# Generated by pormake.
# Topology bpr, (3,3)-cn, num edge types: 1
# Building blocks:
#     Node 0, Type 0, BuildingBlock: WUSLED_clean_sbu_0, # of connection points: 3
#     Node 1, Type 0, BuildingBlock: WUSLED_clean_sbu_0, # of connection points: 3
#     Node 2, Type 0, BuildingBlock: WUSLED_clean_sbu_0, # of connection points: 3
#     Node 3, Type 0, BuildingBlock: WUSLED_clean_sbu_0, # of connection points: 3
#     Node 4, Type 0, BuildingBlock: WUSLED_clean_sbu_0, # of connection points: 3
#     Node 5, Type 0, BuildingBlock: WUSLED_clean_sbu_0, # of connection points: 3
#     Node 6, Type 0, BuildingBlock: WUSLED_clean_sbu_0, # of connection points: 3
#     Node 7, Type 0, BuildingBlock: WUSLED_clean_sbu_0, # of connection points: 3
#     Node 8, Type 0, BuildingBlock: WUSLED_clean_sbu_0, # of connection points: 3
#     Node 9, Type 0, BuildingBlock: WUSLED_clean_sbu_0, # of connection points: 3
#     Node 10, Type 0, BuildingBlock: WUSLED_clean_sbu_0, # of connection points: 3
#     Node 11, Type 0, BuildingBlock: WUSLED_clean_sbu_0, # of connection points: 3
#     Node 12, Type 0, BuildingBlock: WUSLED_clean_sbu_0, # of connection points: 3
#     Node 13, Type 0, BuildingBlock: WUSLED_clean_sbu_0, # of connection points: 3
#     Node 14, Type 0, BuildingBlock: WUSLED_clean_sbu_0, # of connection points: 3
#     Node 15, Type 0, BuildingBlock: WUSLED_clean_sbu_0, # of connection points: 3
#     Node 16, Type 0, BuildingBlock: WUSLED_clean_sbu_0, # of connection points: 3
#     Node 17, Type 0, BuildingBlock: WUSLED_clean_sbu_0, # of connection points: 3
#     Node 18, Type 0, BuildingBlock: WUSLED_clean_sbu_0, # of connection points: 3
#     Node 19, Type 0, BuildingBlock: WUSLED_clean_sbu_0, # of connection points: 3
#     Node 20, Type 0, BuildingBlock: WUSLED_clean_sbu_0, # of connection points: 3
#     Node 21, Type 0, BuildingBlock: WUSLED_clean_sbu_0, # of connection points: 3
#     Node 22, Type 0, BuildingBlock: WUSLED_clean_sbu_0, # of connection points: 3
#     Node 23, Type 0, BuildingBlock: WUSLED_clean_sbu_0, # of connection points: 3
#     Node 24, Type 0, BuildingBlock: WUSLED_clean_sbu_0, # of connection points: 3
#     Node 25, Type 0, BuildingBlock: WUSLED_clean_sbu_0, # of connection points: 3
#     Node 26, Type 0, BuildingBlock: WUSLED_clean_sbu_0, # of connection points: 3
#     Node 27, Type 0, BuildingBlock: WUSLED_clean_sbu_0, # of connection points: 3
#     Node 28, Type 0, BuildingBlock: WUSLED_clean_sbu_0, # of connection points: 3
#     Node 29, Type 0, BuildingBlock: WUSLED_clean_sbu_0, # of connection points: 3
#     Node 30, Type 0, BuildingBlock: WUSLED_clean_sbu_0, # of connection points: 3
#     Node 31, Type 0, BuildingBlock: WUSLED_clean_sbu_0, # of connection points: 3
#     Node 32, Type 0, BuildingBlock: WUSLED_clean_sbu_0, # of connection points: 3
#     Node 33, Type 0, BuildingBlock: WUSLED_clean_sbu_0, # of connection points: 3
#     Node 34, Type 0, BuildingBlock: WUSLED_clean_sbu_0, # of connection points: 3
#     Node 35, Type 0, BuildingBlock: WUSLED_clean_sbu_0, # of connection points: 3
#     Node 36, Type 0, BuildingBlock: WUSLED_clean_sbu_0, # of connection points: 3
#     Node 37, Type 0, BuildingBlock: WUSLED_clean_sbu_0, # of connection points: 3
#     Node 38, Type 0, BuildingBlock: WUSLED_clean_sbu_0, # of connection points: 3
#     Node 39, Type 0, BuildingBlock: WUSLED_clean_sbu_0, # of connection points: 3
#     Node 40, Type 0, BuildingBlock: WUSLED_clean_sbu_0, # of connection points: 3
#     Node 41, Type 0, BuildingBlock: WUSLED_clean_sbu_0, # of connection points: 3
#     Node 42, Type 0, BuildingBlock: WUSLED_clean_sbu_0, # of connection points: 3
#     Node 43, Type 0, BuildingBlock: WUSLED_clean_sbu_0, # of connection points: 3
#     Node 44, Type 0, BuildingBlock: WUSLED_clean_sbu_0, # of connection points: 3
#     Node 45, Type 0, BuildingBlock: WUSLED_clean_sbu_0, # of connection points: 3
#     Node 46, Type 0, BuildingBlock: WUSLED_clean_sbu_0, # of connection points: 3
#     Node 47, Type 0, BuildingBlock: WUSLED_clean_sbu_0, # of connection points: 3
#     Node 48, Type 1, BuildingBlock: KAKCAD_clean_linker_0, # of connection points: 3
#     Node 49, Type 1, BuildingBlock: KAKCAD_clean_linker_0, # of connection points: 3
#     Node 50, Type 1, BuildingBlock: KAKCAD_clean_linker_0, # of connection points: 3
#     Node 51, Type 1, BuildingBlock: KAKCAD_clean_linker_0, # of connection points: 3
#     Node 52, Type 1, BuildingBlock: KAKCAD_clean_linker_0, # of connection points: 3
#     Node 53, Type 1, BuildingBlock: KAKCAD_clean_linker_0, # of connection points: 3
#     Node 54, Type 1, BuildingBlock: KAKCAD_clean_linker_0, # of connection points: 3
#     Node 55, Type 1, BuildingBlock: KAKCAD_clean_linker_0, # of connection points: 3
#     Node 56, Type 1, BuildingBlock: KAKCAD_clean_linker_0, # of connection points: 3
#     Node 57, Type 1, BuildingBlock: KAKCAD_clean_linker_0, # of connection points: 3
#     Node 58, Type 1, BuildingBlock: KAKCAD_clean_linker_0, # of connection points: 3
#     Node 59, Type 1, BuildingBlock: KAKCAD_clean_linker_0, # of connection points: 3
#     Node 60, Type 1, BuildingBlock: KAKCAD_clean_linker_0, # of connection points: 3
#     Node 61, Type 1, BuildingBlock: KAKCAD_clean_linker_0, # of connection points: 3
#     Node 62, Type 1, BuildingBlock: KAKCAD_clean_linker_0, # of connection points: 3
#     Node 63, Type 1, BuildingBlock: KAKCAD_clean_linker_0, # of connection points: 3
#     Node 64, Type 1, BuildingBlock: KAKCAD_clean_linker_0, # of connection points: 3
#     Node 65, Type 1, BuildingBlock: KAKCAD_clean_linker_0, # of connection points: 3
#     Node 66, Type 1, BuildingBlock: KAKCAD_clean_linker_0, # of connection points: 3
#     Node 67, Type 1, BuildingBlock: KAKCAD_clean_linker_0, # of connection points: 3
#     Node 68, Type 1, BuildingBlock: KAKCAD_clean_linker_0, # of connection points: 3
#     Node 69, Type 1, BuildingBlock: KAKCAD_clean_linker_0, # of connection points: 3
#     Node 70, Type 1, BuildingBlock: KAKCAD_clean_linker_0, # of connection points: 3
#     Node 71, Type 1, BuildingBlock: KAKCAD_clean_linker_0, # of connection points: 3
#     Node 72, Type 1, BuildingBlock: KAKCAD_clean_linker_0, # of connection points: 3
#     Node 73, Type 1, BuildingBlock: KAKCAD_clean_linker_0, # of connection points: 3
#     Node 74, Type 1, BuildingBlock: KAKCAD_clean_linker_0, # of connection points: 3
#     Node 75, Type 1, BuildingBlock: KAKCAD_clean_linker_0, # of connection points: 3
#     Node 76, Type 1, BuildingBlock: KAKCAD_clean_linker_0, # of connection points: 3
#     Node 77, Type 1, BuildingBlock: KAKCAD_clean_linker_0, # of connection points: 3
#     Node 78, Type 1, BuildingBlock: KAKCAD_clean_linker_0, # of connection points: 3
#     Node 79, Type 1, BuildingBlock: KAKCAD_clean_linker_0, # of connection points: 3
#     Node 80, Type 1, BuildingBlock: KAKCAD_clean_linker_0, # of connection points: 3
#     Node 81, Type 1, BuildingBlock: KAKCAD_clean_linker_0, # of connection points: 3
#     Node 82, Type 1, BuildingBlock: KAKCAD_clean_linker_0, # of connection points: 3
#     Node 83, Type 1, BuildingBlock: KAKCAD_clean_linker_0, # of connection points: 3
#     Node 84, Type 1, BuildingBlock: KAKCAD_clean_linker_0, # of connection points: 3
#     Node 85, Type 1, BuildingBlock: KAKCAD_clean_linker_0, # of connection points: 3
#     Node 86, Type 1, BuildingBlock: KAKCAD_clean_linker_0, # of connection points: 3
#     Node 87, Type 1, BuildingBlock: KAKCAD_clean_linker_0, # of connection points: 3
#     Node 88, Type 1, BuildingBlock: KAKCAD_clean_linker_0, # of connection points: 3
#     Node 89, Type 1, BuildingBlock: KAKCAD_clean_linker_0, # of connection points: 3
#     Node 90, Type 1, BuildingBlock: KAKCAD_clean_linker_0, # of connection points: 3
#     Node 91, Type 1, BuildingBlock: KAKCAD_clean_linker_0, # of connection points: 3
#     Node 92, Type 1, BuildingBlock: KAKCAD_clean_linker_0, # of connection points: 3
#     Node 93, Type 1, BuildingBlock: KAKCAD_clean_linker_0, # of connection points: 3
#     Node 94, Type 1, BuildingBlock: KAKCAD_clean_linker_0, # of connection points: 3
#     Node 95, Type 1, BuildingBlock: KAKCAD_clean_linker_0, # of connection points: 3
#     Edge 96, Type (0, 1), BuildingBlock: AJUNOK_clean_linker_0, # of connection points: 2
#     Edge 97, Type (0, 1), BuildingBlock: AJUNOK_clean_linker_0, # of connection points: 2
#     Edge 98, Type (0, 1), BuildingBlock: AJUNOK_clean_linker_0, # of connection points: 2
#     Edge 99, Type (0, 1), BuildingBlock: AJUNOK_clean_linker_0, # of connection points: 2
#     Edge 100, Type (0, 1), BuildingBlock: AJUNOK_clean_linker_0, # of connection points: 2
#     Edge 101, Type (0, 1), BuildingBlock: AJUNOK_clean_linker_0, # of connection points: 2
#     Edge 102, Type (0, 1), BuildingBlock: AJUNOK_clean_linker_0, # of connection points: 2
#     Edge 103, Type (0, 1), BuildingBlock: AJUNOK_clean_linker_0, # of connection points: 2
#     Edge 104, Type (0, 1), BuildingBlock: AJUNOK_clean_linker_0, # of connection points: 2
#     Edge 105, Type (0, 1), BuildingBlock: AJUNOK_clean_linker_0, # of connection points: 2
#     Edge 106, Type (0, 1), BuildingBlock: AJUNOK_clean_linker_0, # of connection points: 2
#     Edge 107, Type (0, 1), BuildingBlock: AJUNOK_clean_linker_0, # of connection points: 2
#     Edge 108, Type (0, 1), BuildingBlock: AJUNOK_clean_linker_0, # of connection points: 2
#     Edge 109, Type (0, 1), BuildingBlock: AJUNOK_clean_linker_0, # of connection points: 2
#     Edge 110, Type (0, 1), BuildingBlock: AJUNOK_clean_linker_0, # of connection points: 2
#     Edge 111, Type (0, 1), BuildingBlock: AJUNOK_clean_linker_0, # of connection points: 2
#     Edge 112, Type (0, 1), BuildingBlock: AJUNOK_clean_linker_0, # of connection points: 2
#     Edge 113, Type (0, 1), BuildingBlock: AJUNOK_clean_linker_0, # of connection points: 2
#     Edge 114, Type (0, 1), BuildingBlock: AJUNOK_clean_linker_0, # of connection points: 2
#     Edge 115, Type (0, 1), BuildingBlock: AJUNOK_clean_linker_0, # of connection points: 2
#     Edge 116, Type (0, 1), BuildingBlock: AJUNOK_clean_linker_0, # of connection points: 2
#     Edge 117, Type (0, 1), BuildingBlock: AJUNOK_clean_linker_0, # of connection points: 2
#     Edge 118, Type (0, 1), BuildingBlock: AJUNOK_clean_linker_0, # of connection points: 2
#     Edge 119, Type (0, 1), BuildingBlock: AJUNOK_clean_linker_0, # of connection points: 2
#     Edge 120, Type (0, 1), BuildingBlock: AJUNOK_clean_linker_0, # of connection points: 2
#     Edge 121, Type (0, 1), BuildingBlock: AJUNOK_clean_linker_0, # of connection points: 2
#     Edge 122, Type (0, 1), BuildingBlock: AJUNOK_clean_linker_0, # of connection points: 2
#     Edge 123, Type (0, 1), BuildingBlock: AJUNOK_clean_linker_0, # of connection points: 2
#     Edge 124, Type (0, 1), BuildingBlock: AJUNOK_clean_linker_0, # of connection points: 2
#     Edge 125, Type (0, 1), BuildingBlock: AJUNOK_clean_linker_0, # of connection points: 2
#     Edge 126, Type (0, 1), BuildingBlock: AJUNOK_clean_linker_0, # of connection points: 2
#     Edge 127, Type (0, 1), BuildingBlock: AJUNOK_clean_linker_0, # of connection points: 2
#     Edge 128, Type (0, 1), BuildingBlock: AJUNOK_clean_linker_0, # of connection points: 2
#     Edge 129, Type (0, 1), BuildingBlock: AJUNOK_clean_linker_0, # of connection points: 2
#     Edge 130, Type (0, 1), BuildingBlock: AJUNOK_clean_linker_0, # of connection points: 2
#     Edge 131, Type (0, 1), BuildingBlock: AJUNOK_clean_linker_0, # of connection points: 2
#     Edge 132, Type (0, 1), BuildingBlock: AJUNOK_clean_linker_0, # of connection points: 2
#     Edge 133, Type (0, 1), BuildingBlock: AJUNOK_clean_linker_0, # of connection points: 2
#     Edge 134, Type (0, 1), BuildingBlock: AJUNOK_clean_linker_0, # of connection points: 2
#     Edge 135, Type (0, 1), BuildingBlock: AJUNOK_clean_linker_0, # of connection points: 2
#     Edge 136, Type (0, 1), BuildingBlock: AJUNOK_clean_linker_0, # of connection points: 2
#     Edge 137, Type (0, 1), BuildingBlock: AJUNOK_clean_linker_0, # of connection points: 2
#     Edge 138, Type (0, 1), BuildingBlock: AJUNOK_clean_linker_0, # of connection points: 2
#     Edge 139, Type (0, 1), BuildingBlock: AJUNOK_clean_linker_0, # of connection points: 2
#     Edge 140, Type (0, 1), BuildingBlock: AJUNOK_clean_linker_0, # of connection points: 2
#     Edge 141, Type (0, 1), BuildingBlock: AJUNOK_clean_linker_0, # of connection points: 2
#     Edge 142, Type (0, 1), BuildingBlock: AJUNOK_clean_linker_0, # of connection points: 2
#     Edge 143, Type (0, 1), BuildingBlock: AJUNOK_clean_linker_0, # of connection points: 2
#     Edge 144, Type (0, 1), BuildingBlock: AJUNOK_clean_linker_0, # of connection points: 2
#     Edge 145, Type (0, 1), BuildingBlock: AJUNOK_clean_linker_0, # of connection points: 2
#     Edge 146, Type (0, 1), BuildingBlock: AJUNOK_clean_linker_0, # of connection points: 2
#     Edge 147, Type (0, 1), BuildingBlock: AJUNOK_clean_linker_0, # of connection points: 2
#     Edge 148, Type (0, 1), BuildingBlock: AJUNOK_clean_linker_0, # of connection points: 2
#     Edge 149, Type (0, 1), BuildingBlock: AJUNOK_clean_linker_0, # of connection points: 2
#     Edge 150, Type (0, 1), BuildingBlock: AJUNOK_clean_linker_0, # of connection points: 2
#     Edge 151, Type (0, 1), BuildingBlock: AJUNOK_clean_linker_0, # of connection points: 2
#     Edge 152, Type (0, 1), BuildingBlock: AJUNOK_clean_linker_0, # of connection points: 2
#     Edge 153, Type (0, 1), BuildingBlock: AJUNOK_clean_linker_0, # of connection points: 2
#     Edge 154, Type (0, 1), BuildingBlock: AJUNOK_clean_linker_0, # of connection points: 2
#     Edge 155, Type (0, 1), BuildingBlock: AJUNOK_clean_linker_0, # of connection points: 2
#     Edge 156, Type (0, 1), BuildingBlock: AJUNOK_clean_linker_0, # of connection points: 2
#     Edge 157, Type (0, 1), BuildingBlock: AJUNOK_clean_linker_0, # of connection points: 2
#     Edge 158, Type (0, 1), BuildingBlock: AJUNOK_clean_linker_0, # of connection points: 2
#     Edge 159, Type (0, 1), BuildingBlock: AJUNOK_clean_linker_0, # of connection points: 2
#     Edge 160, Type (0, 1), BuildingBlock: AJUNOK_clean_linker_0, # of connection points: 2
#     Edge 161, Type (0, 1), BuildingBlock: AJUNOK_clean_linker_0, # of connection points: 2
#     Edge 162, Type (0, 1), BuildingBlock: AJUNOK_clean_linker_0, # of connection points: 2
#     Edge 163, Type (0, 1), BuildingBlock: AJUNOK_clean_linker_0, # of connection points: 2
#     Edge 164, Type (0, 1), BuildingBlock: AJUNOK_clean_linker_0, # of connection points: 2
#     Edge 165, Type (0, 1), BuildingBlock: AJUNOK_clean_linker_0, # of connection points: 2
#     Edge 166, Type (0, 1), BuildingBlock: AJUNOK_clean_linker_0, # of connection points: 2
#     Edge 167, Type (0, 1), BuildingBlock: AJUNOK_clean_linker_0, # of connection points: 2
#     Edge 168, Type (0, 1), BuildingBlock: AJUNOK_clean_linker_0, # of connection points: 2
#     Edge 169, Type (0, 1), BuildingBlock: AJUNOK_clean_linker_0, # of connection points: 2
#     Edge 170, Type (0, 1), BuildingBlock: AJUNOK_clean_linker_0, # of connection points: 2
#     Edge 171, Type (0, 1), BuildingBlock: AJUNOK_clean_linker_0, # of connection points: 2
#     Edge 172, Type (0, 1), BuildingBlock: AJUNOK_clean_linker_0, # of connection points: 2
#     Edge 173, Type (0, 1), BuildingBlock: AJUNOK_clean_linker_0, # of connection points: 2
#     Edge 174, Type (0, 1), BuildingBlock: AJUNOK_clean_linker_0, # of connection points: 2
#     Edge 175, Type (0, 1), BuildingBlock: AJUNOK_clean_linker_0, # of connection points: 2
#     Edge 176, Type (0, 1), BuildingBlock: AJUNOK_clean_linker_0, # of connection points: 2
#     Edge 177, Type (0, 1), BuildingBlock: AJUNOK_clean_linker_0, # of connection points: 2
#     Edge 178, Type (0, 1), BuildingBlock: AJUNOK_clean_linker_0, # of connection points: 2
#     Edge 179, Type (0, 1), BuildingBlock: AJUNOK_clean_linker_0, # of connection points: 2
#     Edge 180, Type (0, 1), BuildingBlock: AJUNOK_clean_linker_0, # of connection points: 2
#     Edge 181, Type (0, 1), BuildingBlock: AJUNOK_clean_linker_0, # of connection points: 2
#     Edge 182, Type (0, 1), BuildingBlock: AJUNOK_clean_linker_0, # of connection points: 2
#     Edge 183, Type (0, 1), BuildingBlock: AJUNOK_clean_linker_0, # of connection points: 2
#     Edge 184, Type (0, 1), BuildingBlock: AJUNOK_clean_linker_0, # of connection points: 2
#     Edge 185, Type (0, 1), BuildingBlock: AJUNOK_clean_linker_0, # of connection points: 2
#     Edge 186, Type (0, 1), BuildingBlock: AJUNOK_clean_linker_0, # of connection points: 2
#     Edge 187, Type (0, 1), BuildingBlock: AJUNOK_clean_linker_0, # of connection points: 2
#     Edge 188, Type (0, 1), BuildingBlock: AJUNOK_clean_linker_0, # of connection points: 2
#     Edge 189, Type (0, 1), BuildingBlock: AJUNOK_clean_linker_0, # of connection points: 2
#     Edge 190, Type (0, 1), BuildingBlock: AJUNOK_clean_linker_0, # of connection points: 2
#     Edge 191, Type (0, 1), BuildingBlock: AJUNOK_clean_linker_0, # of connection points: 2
#     Edge 192, Type (0, 1), BuildingBlock: AJUNOK_clean_linker_0, # of connection points: 2
#     Edge 193, Type (0, 1), BuildingBlock: AJUNOK_clean_linker_0, # of connection points: 2
#     Edge 194, Type (0, 1), BuildingBlock: AJUNOK_clean_linker_0, # of connection points: 2
#     Edge 195, Type (0, 1), BuildingBlock: AJUNOK_clean_linker_0, # of connection points: 2
#     Edge 196, Type (0, 1), BuildingBlock: AJUNOK_clean_linker_0, # of connection points: 2
#     Edge 197, Type (0, 1), BuildingBlock: AJUNOK_clean_linker_0, # of connection points: 2
#     Edge 198, Type (0, 1), BuildingBlock: AJUNOK_clean_linker_0, # of connection points: 2
#     Edge 199, Type (0, 1), BuildingBlock: AJUNOK_clean_linker_0, # of connection points: 2
#     Edge 200, Type (0, 1), BuildingBlock: AJUNOK_clean_linker_0, # of connection points: 2
#     Edge 201, Type (0, 1), BuildingBlock: AJUNOK_clean_linker_0, # of connection points: 2
#     Edge 202, Type (0, 1), BuildingBlock: AJUNOK_clean_linker_0, # of connection points: 2
#     Edge 203, Type (0, 1), BuildingBlock: AJUNOK_clean_linker_0, # of connection points: 2
#     Edge 204, Type (0, 1), BuildingBlock: AJUNOK_clean_linker_0, # of connection points: 2
#     Edge 205, Type (0, 1), BuildingBlock: AJUNOK_clean_linker_0, # of connection points: 2
#     Edge 206, Type (0, 1), BuildingBlock: AJUNOK_clean_linker_0, # of connection points: 2
#     Edge 207, Type (0, 1), BuildingBlock: AJUNOK_clean_linker_0, # of connection points: 2
#     Edge 208, Type (0, 1), BuildingBlock: AJUNOK_clean_linker_0, # of connection points: 2
#     Edge 209, Type (0, 1), BuildingBlock: AJUNOK_clean_linker_0, # of connection points: 2
#     Edge 210, Type (0, 1), BuildingBlock: AJUNOK_clean_linker_0, # of connection points: 2
#     Edge 211, Type (0, 1), BuildingBlock: AJUNOK_clean_linker_0, # of connection points: 2
#     Edge 212, Type (0, 1), BuildingBlock: AJUNOK_clean_linker_0, # of connection points: 2
#     Edge 213, Type (0, 1), BuildingBlock: AJUNOK_clean_linker_0, # of connection points: 2
#     Edge 214, Type (0, 1), BuildingBlock: AJUNOK_clean_linker_0, # of connection points: 2
#     Edge 215, Type (0, 1), BuildingBlock: AJUNOK_clean_linker_0, # of connection points: 2
#     Edge 216, Type (0, 1), BuildingBlock: AJUNOK_clean_linker_0, # of connection points: 2
#     Edge 217, Type (0, 1), BuildingBlock: AJUNOK_clean_linker_0, # of connection points: 2
#     Edge 218, Type (0, 1), BuildingBlock: AJUNOK_clean_linker_0, # of connection points: 2
#     Edge 219, Type (0, 1), BuildingBlock: AJUNOK_clean_linker_0, # of connection points: 2
#     Edge 220, Type (0, 1), BuildingBlock: AJUNOK_clean_linker_0, # of connection points: 2
#     Edge 221, Type (0, 1), BuildingBlock: AJUNOK_clean_linker_0, # of connection points: 2
#     Edge 222, Type (0, 1), BuildingBlock: AJUNOK_clean_linker_0, # of connection points: 2
#     Edge 223, Type (0, 1), BuildingBlock: AJUNOK_clean_linker_0, # of connection points: 2
#     Edge 224, Type (0, 1), BuildingBlock: AJUNOK_clean_linker_0, # of connection points: 2
#     Edge 225, Type (0, 1), BuildingBlock: AJUNOK_clean_linker_0, # of connection points: 2
#     Edge 226, Type (0, 1), BuildingBlock: AJUNOK_clean_linker_0, # of connection points: 2
#     Edge 227, Type (0, 1), BuildingBlock: AJUNOK_clean_linker_0, # of connection points: 2
#     Edge 228, Type (0, 1), BuildingBlock: AJUNOK_clean_linker_0, # of connection points: 2
#     Edge 229, Type (0, 1), BuildingBlock: AJUNOK_clean_linker_0, # of connection points: 2
#     Edge 230, Type (0, 1), BuildingBlock: AJUNOK_clean_linker_0, # of connection points: 2
#     Edge 231, Type (0, 1), BuildingBlock: AJUNOK_clean_linker_0, # of connection points: 2
#     Edge 232, Type (0, 1), BuildingBlock: AJUNOK_clean_linker_0, # of connection points: 2
#     Edge 233, Type (0, 1), BuildingBlock: AJUNOK_clean_linker_0, # of connection points: 2
#     Edge 234, Type (0, 1), BuildingBlock: AJUNOK_clean_linker_0, # of connection points: 2
#     Edge 235, Type (0, 1), BuildingBlock: AJUNOK_clean_linker_0, # of connection points: 2
#     Edge 236, Type (0, 1), BuildingBlock: AJUNOK_clean_linker_0, # of connection points: 2
#     Edge 237, Type (0, 1), BuildingBlock: AJUNOK_clean_linker_0, # of connection points: 2
#     Edge 238, Type (0, 1), BuildingBlock: AJUNOK_clean_linker_0, # of connection points: 2
#     Edge 239, Type (0, 1), BuildingBlock: AJUNOK_clean_linker_0, # of connection points: 2
# Relax obj value: 0.091
# Max RMSD: 0.079
# Mean RMSD: 0.074
data_MOF--net-bpr--node1-WUSLED_clean_sbu_0--node2-KAKCAD_clean_linker_0--edge1-AJUNOK_clean_linker_0
_symmetry_space_group_name_H-M    P1
_symmetry_Int_Tables_number       1
_symmetry_cell_setting            triclinic
loop_
_symmetry_equiv_pos_as_xyz
'x, y, z'
_cell_length_a     101.97985
_cell_length_b     102.21463
_cell_length_c     102.6491
_cell_angle_alpha  90.548098
_cell_angle_beta   90.049328
_cell_angle_gamma 90.049669
loop_
_atom_site_label
_atom_site_type_symbol
_atom_site_fract_x
_atom_site_fract_y
_atom_site_fract_z
_atom_type_partial_charge
C0 C 1.00331 0.37661 0.28327 0.0
C1 C 1.00157 0.36937 0.29472 0.0
C2 C 0.98666 0.38614 0.30344 0.0
C3 C 0.99314 0.37397 0.30459 0.0
C4 C 0.98874 0.39333 0.29198 0.0
C5 C 0.99674 0.38854 0.28202 0.0
U6 U 0.03522 0.36299 0.26771 0.0
O7 O 0.03804 0.35062 0.25011 0.0
O8 O 0.04583 0.37077 0.25085 0.0
C9 C 0.04473 0.3598 0.24416 0.0
C10 C 0.01156 0.37213 0.27222 0.0
C11 C 0.04448 0.36056 0.22983 0.0
C12 C 0.03629 0.36892 0.20918 0.0
C13 C 0.03462 0.3669 0.22266 0.0
C14 C 0.05724 0.35781 0.21007 0.0
C15 C 0.04789 0.36478 0.20293 0.0
C16 C 0.05556 0.35576 0.22334 0.0
C17 C 0.06305 0.3547 0.29331 0.0
C18 C 0.08618 0.34907 0.2915 0.0
C19 C 0.0766 0.35354 0.31268 0.0
C20 C 0.06447 0.35559 0.30685 0.0
C21 C 0.08758 0.35046 0.30508 0.0
C22 C 0.07392 0.35126 0.28558 0.0
C23 C 0.05019 0.35839 0.28798 0.0
O24 O 0.02168 0.3796 0.26958 0.0
O25 O 0.01414 0.35955 0.27114 0.0
O26 O 0.04295 0.34931 0.28236 0.0
O27 O 0.04932 0.36989 0.28245 0.0
H28 H 1.00648 0.36007 0.29593 0.0
H29 H 0.9915 0.36774 0.31288 0.0
H30 H 0.9843 0.40283 0.29064 0.0
H31 H 0.9979 0.3943 0.27328 0.0
H32 H 0.02893 0.3743 0.20384 0.0
H33 H 0.02599 0.3707 0.22752 0.0
H34 H 0.06618 0.35439 0.20547 0.0
H35 H 0.06328 0.35088 0.22869 0.0
H36 H 0.09461 0.34671 0.2855 0.0
H37 H 0.07749 0.35465 0.32315 0.0
H38 H 0.0562 0.35825 0.31295 0.0
H39 H 0.07301 0.35057 0.27509 0.0
C40 C 0.86887 0.73245 0.53918 0.0
C41 C 0.86685 0.72977 0.55241 0.0
C42 C 0.86877 0.70638 0.54771 0.0
C43 C 0.86677 0.71675 0.55666 0.0
C44 C 0.87056 0.70923 0.53451 0.0
C45 C 0.87056 0.72212 0.5303 0.0
U46 U 0.8696 0.77117 0.5372 0.0
O47 O 0.88518 0.78121 0.52625 0.0
O48 O 0.8645 0.7819 0.51934 0.0
C49 C 0.87688 0.7847 0.51712 0.0
C50 C 0.87034 0.74571 0.53407 0.0
C51 C 0.88064 0.7941 0.50717 0.0
C52 C 0.89016 0.79806 0.48594 0.0
C53 C 0.88582 0.78938 0.49541 0.0
C54 C 0.88413 0.81631 0.49996 0.0
C55 C 0.88943 0.81162 0.48812 0.0
C56 C 0.8797 0.80758 0.50941 0.0
C57 C 0.86001 0.79038 0.57026 0.0
C58 C 0.85772 0.81225 0.57941 0.0
C59 C 0.85557 0.7933 0.59329 0.0
C60 C 0.85768 0.78514 0.58259 0.0
C61 C 0.8558 0.8069 0.59187 0.0
C62 C 0.8599 0.804 0.56861 0.0
C63 C 0.86283 0.78103 0.55974 0.0
O64 O 0.85972 0.75265 0.53194 0.0
O65 O 0.88036 0.75263 0.53827 0.0
O66 O 0.87507 0.77835 0.55675 0.0
O67 O 0.85435 0.77924 0.55022 0.0
H68 H 0.86566 0.73767 0.55942 0.0
H69 H 0.86557 0.71479 0.56694 0.0
H70 H 0.87209 0.70145 0.52742 0.0
H71 H 0.87221 0.72405 0.52007 0.0
H72 H 0.89411 0.79416 0.47691 0.0
H73 H 0.88663 0.77894 0.49359 0.0
H74 H 0.88372 0.8267 0.50206 0.0
H75 H 0.87581 0.81133 0.51852 0.0
H76 H 0.85792 0.82276 0.57814 0.0
H77 H 0.85391 0.78896 0.60274 0.0
H78 H 0.85767 0.77464 0.58398 0.0
H79 H 0.86167 0.80819 0.55912 0.0
C80 C 0.47998 0.64481 0.72746 0.0
C81 C 0.46645 0.64412 0.72497 0.0
C82 C 0.47079 0.64363 0.70161 0.0
C83 C 0.46188 0.64352 0.71208 0.0
C84 C 0.48422 0.64492 0.70416 0.0
C85 C 0.48876 0.64546 0.71698 0.0
U86 U 0.48103 0.64488 0.76574 0.0
O87 O 0.49805 0.65053 0.77792 0.0
O88 O 0.49107 0.62985 0.77733 0.0
C89 C 0.49942 0.63847 0.78205 0.0
C90 C 0.48557 0.6434 0.74059 0.0
C91 C 0.51073 0.63443 0.78985 0.0
C92 C 0.53236 0.62476 0.79215 0.0
C93 C 0.5223 0.62958 0.78419 0.0
C94 C 0.51933 0.62982 0.8113 0.0
C95 C 0.53076 0.62459 0.80575 0.0
C96 C 0.50943 0.63473 0.8034 0.0
C97 C 0.44761 0.65472 0.78367 0.0
C98 C 0.43922 0.65606 0.80583 0.0
C99 C 0.42468 0.65966 0.78752 0.0
C100 C 0.43509 0.6577 0.77899 0.0
C101 C 0.42654 0.65861 0.80098 0.0
C102 C 0.44975 0.65404 0.79718 0.0
C103 C 0.4577 0.65203 0.77379 0.0
O104 O 0.48759 0.65411 0.7475 0.0
O105 O 0.48131 0.63353 0.7475 0.0
O106 O 0.46086 0.63978 0.77138 0.0
O107 O 0.4674 0.66036 0.77232 0.0
H108 H 0.45951 0.64357 0.73293 0.0
H109 H 0.45145 0.6426 0.71027 0.0
H110 H 0.49124 0.64493 0.69625 0.0
H111 H 0.49923 0.64589 0.71873 0.0
H112 H 0.54113 0.62073 0.78772 0.0
H113 H 0.52343 0.62926 0.7737 0.0
H114 H 0.51796 0.62984 0.82177 0.0
H115 H 0.50054 0.63844 0.80789 0.0
H116 H 0.44087 0.65525 0.81622 0.0
H117 H 0.41509 0.66185 0.78356 0.0
H118 H 0.43329 0.65834 0.76861 0.0
H119 H 0.45939 0.65176 0.80098 0.0
C120 C 0.64521 0.28523 0.04122 0.0
C121 C 0.64761 0.28801 0.05444 0.0
C122 C 0.64528 0.31141 0.05024 0.0
C123 C 0.64767 0.30106 0.05893 0.0
C124 C 0.6431 0.30848 0.03704 0.0
C125 C 0.64311 0.29555 0.03261 0.0
U126 U 0.64524 0.24667 0.04062 0.0
O127 O 0.65073 0.23413 0.02381 0.0
O128 O 0.63007 0.23471 0.03081 0.0
C129 C 0.63864 0.2298 0.02256 0.0
C130 C 0.64387 0.27185 0.03591 0.0
C131 C 0.6345 0.22186 0.01129 0.0
C132 C 0.62577 0.2193 0.98935 0.0
C133 C 0.63032 0.2274 0.99954 0.0
C134 C 0.62962 0.20024 1.00267 0.0
C135 C 0.62518 0.20561 0.99091 0.0
C136 C 0.63427 0.20828 0.0127 0.0
C137 C 0.65452 0.22895 0.07386 0.0
C138 C 0.65997 0.20707 0.08125 0.0
C139 C 0.65592 0.22441 0.09698 0.0
C140 C 0.65374 0.23309 0.08686 0.0
C141 C 0.65922 0.21132 0.09437 0.0
C142 C 0.65762 0.21584 0.07102 0.0
C143 C 0.65224 0.23899 0.06393 0.0
O144 O 0.65459 0.26495 0.03409 0.0
O145 O 0.63392 0.26492 0.04014 0.0
O146 O 0.64005 0.24162 0.06076 0.0
O147 O 0.66061 0.24018 0.05427 0.0
H148 H 0.64914 0.28015 0.06128 0.0
H149 H 0.64918 0.30303 0.06921 0.0
H150 H 0.64129 0.31621 0.03013 0.0
H151 H 0.64118 0.29359 0.02239 0.0
H152 H 0.62278 0.22374 0.98029 0.0
H153 H 0.63049 0.23791 0.99827 0.0
H154 H 0.62924 0.18979 1.00427 0.0
H155 H 0.63745 0.20387 0.02172 0.0
H156 H 0.66243 0.19702 0.0789 0.0
H157 H 0.6547 0.22794 0.10688 0.0
H158 H 0.6513 0.24316 0.08924 0.0
H159 H 0.65827 0.21244 0.06102 0.0
C160 C 1.00385 0.63741 0.23394 0.0
C161 C 1.00661 0.63998 0.22077 0.0
C162 C 0.98694 0.62789 0.21408 0.0
C163 C 0.99817 0.63528 0.21091 0.0
C164 C 0.98407 0.62587 0.2273 0.0
C165 C 0.99247 0.63047 0.23706 0.0
U166 U 0.03654 0.65006 0.24913 0.0
O167 O 0.03963 0.66205 0.26694 0.0
O168 O 0.04745 0.64198 0.2657 0.0
C169 C 0.04647 0.65281 0.27262 0.0
C170 C 0.01267 0.64128 0.24477 0.0
C171 C 0.04636 0.65174 0.28695 0.0
C172 C 0.03636 0.6467 0.30791 0.0
C173 C 0.03521 0.64849 0.29434 0.0
C174 C 0.05955 0.65167 0.30667 0.0
C175 C 0.04863 0.64811 0.31408 0.0
C176 C 0.05841 0.65348 0.29329 0.0
C177 C 0.06435 0.6591 0.2242 0.0
C178 C 0.08804 0.66107 0.22636 0.0
C179 C 0.07766 0.66422 0.20537 0.0
C180 C 0.06544 0.662 0.21095 0.0
C181 C 0.08907 0.66355 0.21294 0.0
C182 C 0.07569 0.65887 0.232 0.0
C183 C 0.05135 0.65512 0.22889 0.0
O184 O 0.0228 0.63362 0.24673 0.0
O185 O 0.01545 0.65378 0.24615 0.0
O186 O 0.04401 0.66403 0.23463 0.0
O187 O 0.05046 0.64349 0.23414 0.0
H188 H 0.01535 0.64537 0.21813 0.0
H189 H 1.0006 0.6371 0.20082 0.0
H190 H 0.9753 0.62066 0.23015 0.0
H191 H 0.9901 0.62848 0.24713 0.0
H192 H 0.02784 0.64382 0.31348 0.0
H193 H 0.02581 0.64705 0.28962 0.0
H194 H 0.0691 0.65269 0.3112 0.0
H195 H 0.06712 0.65594 0.28778 0.0
H196 H 0.09677 0.66056 0.23236 0.0
H197 H 0.07824 0.66599 0.19499 0.0
H198 H 0.05682 0.66209 0.20477 0.0
H199 H 0.07503 0.6566 0.24227 0.0
C200 C 0.64603 0.7313 0.47505 0.0
C201 C 0.64308 0.72825 0.462 0.0
C202 C 0.64588 0.70495 0.46644 0.0
C203 C 0.643 0.71517 0.45774 0.0
C204 C 0.64947 0.7082 0.47928 0.0
C205 C 0.64945 0.72121 0.48353 0.0
U206 U 0.64514 0.76971 0.47584 0.0
O207 O 0.63016 0.78143 0.48599 0.0
O208 O 0.65101 0.78254 0.49238 0.0
C209 C 0.63889 0.78665 0.4939 0.0
C210 C 0.64426 0.74453 0.48065 0.0
C211 C 0.63472 0.7942 0.50539 0.0
C212 C 0.62313 0.79667 0.52595 0.0
C213 C 0.62743 0.78871 0.51557 0.0
C214 C 0.63325 0.81548 0.51585 0.0
C215 C 0.626 0.81016 0.52617 0.0
C216 C 0.63768 0.80754 0.50569 0.0
C217 C 0.65443 0.78736 0.44253 0.0
C218 C 0.65668 0.80966 0.43471 0.0
C219 C 0.65832 0.79137 0.41959 0.0
C220 C 0.65642 0.78273 0.4298 0.0
C221 C 0.65831 0.80488 0.42189 0.0
C222 C 0.65467 0.80091 0.44503 0.0
C223 C 0.652 0.77739 0.4525 0.0
O224 O 0.65482 0.75168 0.48257 0.0
O225 O 0.63414 0.75127 0.47651 0.0
O226 O 0.63979 0.77492 0.45575 0.0
O227 O 0.66043 0.7761 0.46209 0.0
H228 H 0.6404 0.73589 0.45526 0.0
H229 H 0.64023 0.71303 0.44775 0.0
H230 H 0.65223 0.70069 0.48611 0.0
H231 H 0.65178 0.72337 0.49363 0.0
H232 H 0.61757 0.79229 0.53377 0.0
H233 H 0.625 0.77839 0.51545 0.0
H234 H 0.63524 0.82587 0.51543 0.0
H235 H 0.64317 0.81193 0.49782 0.0
H236 H 0.65664 0.8201 0.43664 0.0
H237 H 0.65965 0.78749 0.40982 0.0
H238 H 0.65634 0.77232 0.42771 0.0
H239 H 0.65317 0.80467 0.45482 0.0
C240 C 0.51504 0.37781 0.73204 0.0
C241 C 0.51077 0.37812 0.71902 0.0
C242 C 0.5316 0.38794 0.7125 0.0
C243 C 0.51903 0.38312 0.70929 0.0
C244 C 0.53596 0.38694 0.72544 0.0
C245 C 0.52773 0.38205 0.73509 0.0
U246 U 0.48255 0.36539 0.74731 0.0
O247 O 0.47963 0.3532 0.76478 0.0
O248 O 0.47223 0.37349 0.76437 0.0
C249 C 0.47315 0.36253 0.77089 0.0
C250 C 0.5064 0.37403 0.74291 0.0
C251 C 0.47333 0.36326 0.78525 0.0
C252 C 0.4814 0.37162 0.80611 0.0
C253 C 0.48315 0.36961 0.7926 0.0
C254 C 0.46046 0.36049 0.80489 0.0
C255 C 0.46977 0.36748 0.81222 0.0
C256 C 0.46222 0.35844 0.79159 0.0
C257 C 0.45442 0.35676 0.72211 0.0
C258 C 0.43098 0.35289 0.72446 0.0
C259 C 0.44068 0.35414 0.70296 0.0
C260 C 0.45296 0.35613 0.70856 0.0
C261 C 0.42958 0.35273 0.71083 0.0
C262 C 0.4434 0.35491 0.73012 0.0
C263 C 0.46743 0.36053 0.7271 0.0
O264 O 0.49633 0.38174 0.7451 0.0
O265 O 0.50359 0.36154 0.74405 0.0
O266 O 0.4747 0.35152 0.73262 0.0
O267 O 0.46843 0.37211 0.73266 0.0
H268 H 0.50099 0.37484 0.71645 0.0
H269 H 0.51543 0.38364 0.69938 0.0
H270 H 0.54574 0.39006 0.72818 0.0
H271 H 0.53123 0.3818 0.74505 0.0
H272 H 0.48874 0.37701 0.8116 0.0
H273 H 0.49182 0.37342 0.78787 0.0
H274 H 0.45148 0.35708 0.80938 0.0
H275 H 0.45453 0.35354 0.78611 0.0
H276 H 0.42245 0.35187 0.73066 0.0
H277 H 0.43976 0.35415 0.69244 0.0
H278 H 0.46133 0.35762 0.70224 0.0
H279 H 0.44433 0.35542 0.74063 0.0
C280 C 0.8802 0.22855 0.01234 0.0
C281 C 0.87557 0.21561 0.01131 0.0
C282 C 0.88979 0.20913 0.02936 0.0
C283 C 0.88035 0.20596 0.01978 0.0
C284 C 0.89447 0.22204 0.0301 0.0
C285 C 0.88966 0.23161 0.02177 0.0
U286 U 0.86668 0.24335 0.98019 0.0
O287 O 0.85389 0.26059 0.97739 0.0
O288 O 0.87417 0.26058 0.96993 0.0
C289 C 0.86304 0.26696 0.97102 0.0
C290 C 0.87576 0.23922 1.00377 0.0
C291 C 0.86352 0.28138 0.97187 0.0
C292 C 0.87386 0.30198 0.97837 0.0
C293 C 0.87224 0.28839 0.97998 0.0
C294 C 0.85759 0.30161 0.9612 0.0
C295 C 0.86684 0.30865 0.96862 0.0
C296 C 0.85602 0.28819 0.96277 0.0
C297 C 0.85792 0.21799 0.95228 0.0
C298 C 0.85471 0.21999 0.92888 0.0
C299 C 0.85328 0.19876 0.93908 0.0
C300 C 0.85567 0.20454 0.95118 0.0
C301 C 0.85298 0.20634 0.92774 0.0
C302 C 0.85724 0.2258 0.94111 0.0
C303 C 0.86204 0.22295 0.96515 0.0
O304 O 0.8833 0.24165 0.99371 0.0
O305 O 0.86317 0.23999 1.00111 0.0
O306 O 0.85307 0.22825 0.97271 0.0
O307 O 0.87351 0.22876 0.96589 0.0
H308 H 0.86833 0.21298 1.00401 0.0
H309 H 0.87659 0.19607 0.01892 0.0
H310 H 0.90204 0.22476 0.03702 0.0
H311 H 0.89347 0.24148 0.02264 0.0
H312 H 0.88116 0.30706 0.98419 0.0
H313 H 0.87819 0.2833 0.98705 0.0
H314 H 0.85186 0.30641 0.95375 0.0
H315 H 0.84929 0.28299 0.95638 0.0
H316 H 0.85429 0.22611 0.92034 0.0
H317 H 0.85215 0.18823 0.93857 0.0
H318 H 0.85622 0.19835 0.95968 0.0
H319 H 0.85894 0.23625 0.94179 0.0
C320 C 0.23187 0.03484 0.37104 0.0
C321 C 0.22894 0.04827 0.37114 0.0
C322 C 0.20551 0.0432 0.37055 0.0
C323 C 0.21582 0.05242 0.37087 0.0
C324 C 0.20862 0.02984 0.36986 0.0
C325 C 0.22164 0.02573 0.37017 0.0
U326 U 0.27041 0.0349 0.37192 0.0
O327 O 0.2833 0.01842 0.36605 0.0
O328 O 0.28232 0.02503 0.38673 0.0
C329 C 0.28761 0.01713 0.37805 0.0
C330 C 0.24521 0.02968 0.37286 0.0
C331 C 0.29484 1.00548 0.38222 0.0
C332 C 0.29706 0.98541 0.39453 0.0
C333 C 0.28922 0.99566 0.3899 0.0
C334 C 0.31594 0.99467 0.38362 0.0
C335 C 0.31054 0.98498 0.39158 0.0
C336 C 0.30815 1.0048 0.379 0.0
C337 C 0.28838 0.06802 0.36229 0.0
C338 C 0.31036 0.07708 0.36454 0.0
C339 C 0.29312 0.08991 0.35462 0.0
C340 C 0.28438 0.0796 0.35631 0.0
C341 C 0.30618 0.08882 0.35874 0.0
C342 C 0.30149 0.06669 0.36631 0.0
C343 C 0.27807 0.05831 0.36489 0.0
O344 O 0.25237 0.02769 0.36239 0.0
O345 O 0.25192 0.03426 0.38285 0.0
O346 O 0.27582 0.05514 0.37707 0.0
O347 O 0.27642 0.04862 0.35655 0.0
H348 H 0.23673 0.05546 0.37179 0.0
H349 H 0.21372 0.0628 0.37135 0.0
H350 H 0.20097 0.02251 0.36917 0.0
H351 H 0.22372 0.01534 0.37002 0.0
H352 H 0.29266 0.97792 0.40051 0.0
H353 H 0.27893 0.99602 0.39247 0.0
H354 H 0.3263 0.9946 0.38127 0.0
H355 H 0.31263 0.01235 0.37315 0.0
H356 H 0.3204 0.07601 0.3678 0.0
H357 H 0.28951 0.0989 0.35044 0.0
H358 H 0.27428 0.08085 0.35327 0.0
H359 H 0.30476 0.05783 0.37101 0.0
C360 C 0.23018 1.00378 0.64031 0.0
C361 C 0.21711 1.00579 0.64428 0.0
C362 C 0.21015 0.98654 0.63169 0.0
C363 C 0.20716 0.99717 0.64003 0.0
C364 C 0.22322 0.98461 0.62788 0.0
C365 C 0.23308 0.9931 0.63217 0.0
U366 U 0.24565 0.03677 0.65195 0.0
O367 O 0.26321 0.04031 0.66418 0.0
O368 O 0.26285 0.04678 0.64376 0.0
C369 C 0.26942 0.04637 0.65476 0.0
C370 C 0.2411 0.01261 0.64406 0.0
C371 C 0.28388 0.04583 0.65416 0.0
C372 C 0.30472 0.03647 0.64706 0.0
C373 C 0.29098 0.03553 0.64833 0.0
C374 C 0.30426 0.05771 0.65769 0.0
C375 C 0.31144 0.04763 0.65171 0.0
C376 C 0.29068 0.05681 0.65888 0.0
C377 C 0.22004 0.06495 0.65956 0.0
C378 C 0.22186 0.08828 0.66434 0.0
C379 C 0.20048 0.07821 0.66181 0.0
C380 C 0.20639 0.06615 0.65963 0.0
C381 C 0.20808 0.08947 0.6641 0.0
C382 C 0.22784 0.07605 0.66204 0.0
C383 C 0.22533 0.05198 0.65614 0.0
O384 O 0.24347 0.0223 0.63609 0.0
O385 O 0.2422 0.01597 0.65642 0.0
O386 O 0.23086 0.04506 0.66536 0.0
O387 O 0.23095 0.05065 0.6447 0.0
H388 H 0.21461 0.01402 0.65051 0.0
H389 H 0.19713 0.99896 0.64302 0.0
H390 H 0.22582 0.97648 0.62155 0.0
H391 H 0.24307 0.99136 0.62899 0.0
H392 H 0.31008 0.02859 0.64235 0.0
H393 H 0.28592 0.02699 0.64454 0.0
H394 H 0.30915 0.0665 0.66114 0.0
H395 H 0.28539 0.06493 0.66326 0.0
H396 H 0.22797 0.09675 0.66626 0.0
H397 H 0.18988 0.07878 0.66137 0.0
H398 H 0.20023 0.05771 0.65767 0.0
H399 H 0.23843 0.07531 0.66203 0.0
C400 C 0.22936 0.01195 0.87752 0.0
C401 C 0.21617 0.00802 0.87661 0.0
C402 C 0.20918 0.02885 0.88629 0.0
C403 C 0.20614 0.01641 0.88099 0.0
C404 C 0.22239 0.03271 0.88689 0.0
C405 C 0.23233 0.02436 0.88259 0.0
U406 U 0.24524 0.97926 0.86604 0.0
O407 O 0.26248 0.97616 0.85329 0.0
O408 O 0.26295 0.96987 0.87382 0.0
C409 C 0.26912 0.97039 0.8626 0.0
C410 C 0.2404 1.00333 0.8739 0.0
C411 C 0.28359 0.9708 0.8626 0.0
C412 C 0.30473 0.97779 0.87141 0.0
C413 C 0.29108 0.97963 0.87015 0.0
C414 C 0.30341 0.95888 0.85708 0.0
C415 C 0.31088 0.96702 0.8653 0.0
C416 C 0.28995 0.96072 0.85582 0.0
C417 C 0.22044 0.95041 0.85836 0.0
C418 C 0.22103 0.92662 0.85957 0.0
C419 C 0.2014 0.9376 0.85214 0.0
C420 C 0.20763 0.94964 0.85356 0.0
C421 C 0.20782 0.92598 0.85558 0.0
C422 C 0.22733 0.93881 0.86099 0.0
C423 C 0.22526 0.96353 0.86204 0.0
O424 O 0.24287 0.99368 0.88189 0.0
O425 O 0.24148 0.99998 0.86155 0.0
O426 O 0.23024 0.97089 0.85286 0.0
O427 O 0.23112 0.96486 0.87338 0.0
H428 H 0.21367 0.99842 0.87279 0.0
H429 H 0.19608 0.01303 0.88059 0.0
H430 H 0.22509 0.04224 0.89074 0.0
H431 H 0.24243 0.02756 0.88337 0.0
H432 H 0.3103 0.98426 0.87774 0.0
H433 H 0.28634 0.98751 0.87547 0.0
H434 H 0.30791 0.95066 0.85207 0.0
H435 H 0.28437 0.9538 0.84996 0.0
H436 H 0.22621 0.91784 0.86236 0.0
H437 H 0.19131 0.93743 0.84884 0.0
H438 H 0.20215 0.95847 0.85149 0.0
H439 H 0.23725 0.9392 0.86473 0.0
C440 C 0.2296 0.98081 0.1462 0.0
C441 C 0.227 0.96873 0.15205 0.0
C442 C 0.20365 0.97113 0.14701 0.0
C443 C 0.21407 0.96399 0.15258 0.0
C444 C 0.20641 0.98334 0.14148 0.0
C445 C 0.21921 0.98811 0.14114 0.0
U446 U 0.26814 0.98112 0.1452 0.0
O447 O 0.27961 0.99134 0.13034 0.0
O448 O 0.28109 0.99764 0.15109 0.0
C449 C 0.285 0.99922 0.139 0.0
C450 C 0.2429 0.98621 0.1447 0.0
C451 C 0.29217 0.0109 0.13474 0.0
C452 C 0.29489 0.02997 0.12099 0.0
C453 C 0.28704 0.01973 0.12564 0.0
C454 C 0.31283 0.02265 0.13458 0.0
C455 C 0.30793 0.03135 0.12527 0.0
C456 C 0.305 0.01258 0.13929 0.0
C457 C 0.28652 0.94792 0.15366 0.0
C458 C 0.30873 0.93958 0.15129 0.0
C459 C 0.29171 0.92575 0.16017 0.0
C460 C 0.28274 0.93592 0.15894 0.0
C461 C 0.30474 0.92734 0.15616 0.0
C462 C 0.29964 0.94983 0.14998 0.0
C463 C 0.27605 0.95758 0.15153 0.0
O464 O 0.25014 0.98768 0.15521 0.0
O465 O 0.24953 0.98216 0.13447 0.0
O466 O 0.27347 0.96101 0.13949 0.0
O467 O 0.2746 0.96709 0.1601 0.0
H468 H 0.23491 0.96297 0.1561 0.0
H469 H 0.21227 0.95473 0.15729 0.0
H470 H 0.19873 0.98908 0.13703 0.0
H471 H 0.22104 0.99747 0.13662 0.0
H472 H 0.29094 0.03648 0.11371 0.0
H473 H 0.27715 0.01854 0.12195 0.0
H474 H 0.32282 0.02352 0.13808 0.0
H475 H 0.30912 1.00582 0.14625 0.0
H476 H 0.31882 0.94117 0.14838 0.0
H477 H 0.28831 0.91646 0.1639 0.0
H478 H 0.27265 0.93427 0.16181 0.0
H479 H 0.30277 0.95906 0.14592 0.0
C480 C 0.3694 0.23317 0.03706 0.0
C481 C 0.36689 0.23041 0.05021 0.0
C482 C 0.36954 0.20708 0.0456 0.0
C483 C 0.36687 0.21736 0.05445 0.0
C484 C 0.37157 0.20996 0.03244 0.0
C485 C 0.37149 0.22286 0.02824 0.0
U486 U 0.36995 0.2718 0.0363 0.0
O487 O 0.38534 0.28289 0.02618 0.0
O488 O 0.36462 0.28377 0.01923 0.0
C489 C 0.37687 0.2875 0.01774 0.0
C490 C 0.37098 0.24648 0.03201 0.0
C491 C 0.38117 0.29544 1.00674 0.0
C492 C 0.39297 0.29806 0.98639 0.0
C493 C 0.38818 0.28998 0.99627 0.0
C494 C 0.38357 0.31695 0.99737 0.0
C495 C 0.39086 0.31166 0.98698 0.0
C496 C 0.37874 0.30889 1.00713 0.0
C497 C 0.35961 0.29019 0.06934 0.0
C498 C 0.35968 0.31214 0.07864 0.0
C499 C 0.35289 0.29373 0.09173 0.0
C500 C 0.35496 0.28538 0.08118 0.0
C501 C 0.35548 0.30712 0.09069 0.0
C502 C 0.36183 0.30368 0.06798 0.0
C503 C 0.36255 0.28041 0.05922 0.0
O504 O 0.36039 0.25346 0.0299 0.0
O505 O 0.38093 0.25334 0.03648 0.0
O506 O 0.37487 0.27806 0.05628 0.0
O507 O 0.3543 0.27871 0.0495 0.0
H508 H 0.3653 0.23828 0.05718 0.0
H509 H 0.36528 0.21533 0.06467 0.0
H510 H 0.37348 0.20221 0.02542 0.0
H511 H 0.37344 0.22482 0.01807 0.0
H512 H 0.3987 0.29375 0.97858 0.0
H513 H 0.39014 0.27957 0.99586 0.0
H514 H 0.38172 0.32737 0.99801 0.0
H515 H 0.37335 0.31322 0.01518 0.0
H516 H 0.36169 0.3225 0.07763 0.0
H517 H 0.34941 0.28966 0.10081 0.0
H518 H 0.35315 0.275 0.08236 0.0
H519 H 0.36542 0.30757 0.05887 0.0
C520 C 0.01434 0.87953 0.2336 0.0
C521 C 0.01144 0.87716 0.22039 0.0
C522 C 0.0313 0.88891 0.214 0.0
C523 C 0.01989 0.88183 0.21064 0.0
C524 C 0.03401 0.89124 0.22724 0.0
C525 C 0.02568 0.88653 0.23689 0.0
U526 U 0.98183 0.86641 0.24813 0.0
O527 O 0.9787 0.8541 0.26546 0.0
O528 O 0.97078 0.87415 0.26489 0.0
C529 C 0.97182 0.86323 0.27145 0.0
C530 C 1.00561 0.87551 0.24431 0.0
C531 C 0.97228 0.86418 0.28578 0.0
C532 C 0.98214 0.87077 0.30646 0.0
C533 C 0.98309 0.86905 0.29286 0.0
C534 C 0.9599 0.86241 0.30588 0.0
C535 C 0.97046 0.86755 0.313 0.0
C536 C 0.96081 0.86077 0.29243 0.0
C537 C 0.95441 0.85725 0.22254 0.0
C538 C 0.93081 0.85413 0.22428 0.0
C539 C 0.9415 0.85257 0.20325 0.0
C540 C 0.95355 0.855 0.20912 0.0
C541 C 0.92998 0.85211 0.2107 0.0
C542 C 0.943 0.85669 0.2302 0.0
C543 C 0.96727 0.86138 0.22761 0.0
O544 O 0.99537 0.88303 0.24639 0.0
O545 O 1.00299 0.86296 0.24532 0.0
O546 O 0.9747 0.85251 0.23314 0.0
O547 O 0.96791 0.87295 0.23323 0.0
H548 H 1.00266 0.87185 0.21763 0.0
H549 H 0.01753 0.8799 0.20051 0.0
H550 H 0.04244 0.897 0.23019 0.0
H551 H 0.028 0.88858 0.24701 0.0
H552 H 0.99035 0.87486 0.31183 0.0
H553 H 0.99202 0.8718 0.28788 0.0
H554 H 0.95076 0.86006 0.3107 0.0
H555 H 0.95235 0.85712 0.28713 0.0
H556 H 0.92204 0.8539 0.23022 0.0
H557 H 0.94117 0.85148 0.19275 0.0
H558 H 0.96222 0.85558 0.20305 0.0
H559 H 0.94348 0.85852 0.2406 0.0
C560 C 0.14578 0.78582 0.54291 0.0
C561 C 0.14567 0.78882 0.55629 0.0
C562 C 0.14541 0.8122 0.55135 0.0
C563 C 0.14552 0.80195 0.56048 0.0
C564 C 0.14609 0.80903 0.53804 0.0
C565 C 0.1462 0.79601 0.53389 0.0
U566 U 0.14579 0.74712 0.54159 0.0
O567 O 0.13064 0.73563 0.53115 0.0
O568 O 0.15134 0.73554 0.52415 0.0
C569 C 0.13915 0.73169 0.52236 0.0
C570 C 0.14435 0.77244 0.53769 0.0
C571 C 0.13542 0.72299 0.51154 0.0
C572 C 0.12761 0.71992 0.48935 0.0
C573 C 0.13209 0.72816 0.49937 0.0
C574 C 0.12995 0.70127 0.50356 0.0
C575 C 0.12627 0.70638 0.49141 0.0
C576 C 0.13447 0.70951 0.51354 0.0
C577 C 0.15583 0.72847 0.57421 0.0
C578 C 0.15426 0.70648 0.58292 0.0
C579 C 0.16324 0.72405 0.59623 0.0
C580 C 0.16136 0.73272 0.58602 0.0
C581 C 0.15956 0.71093 0.59483 0.0
C582 C 0.15241 0.71523 0.57259 0.0
C583 C 0.15303 0.7386 0.56451 0.0
O584 O 0.15505 0.76561 0.53553 0.0
O585 O 0.13452 0.76542 0.54203 0.0
O586 O 0.14074 0.74082 0.56139 0.0
O587 O 0.16137 0.74046 0.55494 0.0
H588 H 0.14534 0.78108 0.56341 0.0
H589 H 0.14506 0.80408 0.57083 0.0
H590 H 0.14646 0.81663 0.53077 0.0
H591 H 0.14632 0.79387 0.52353 0.0
H592 H 0.12523 0.72414 0.48 0.0
H593 H 0.13279 0.73858 0.49769 0.0
H594 H 0.129 0.69091 0.50549 0.0
H595 H 0.13699 0.70538 0.5229 0.0
H596 H 0.15139 0.69633 0.58172 0.0
H597 H 0.16725 0.72766 0.60536 0.0
H598 H 0.16395 0.74292 0.58747 0.0
H599 H 0.14808 0.71178 0.56356 0.0
C600 C 0.98213 0.63598 0.7636 0.0
C601 C 0.96897 0.63604 0.75948 0.0
C602 C 0.96226 0.64428 0.78079 0.0
C603 C 0.95905 0.64016 0.76808 0.0
C604 C 0.97534 0.64396 0.78491 0.0
C605 C 0.98518 0.63983 0.77638 0.0
U606 U 0.9968 0.62414 0.73083 0.0
O607 O 0.01346 0.63225 0.71992 0.0
O608 O 0.0144 0.61204 0.72729 0.0
C609 C 0.02021 0.62134 0.72065 0.0
C610 C 0.99303 0.6326 0.75478 0.0
C611 C 0.03463 0.62217 0.72051 0.0
C612 C 0.05639 0.62259 0.7304 0.0
C613 C 0.04262 0.62237 0.7317 0.0
C614 C 0.05404 0.62279 0.70693 0.0
C615 C 0.06221 0.62251 0.71793 0.0
C616 C 0.04049 0.62249 0.70821 0.0
C617 C 0.97126 0.61522 0.70345 0.0
C618 C 0.97329 0.61286 0.67993 0.0
C619 C 0.95223 0.6097 0.69037 0.0
C620 C 0.95795 0.61211 0.70246 0.0
C621 C 0.95974 0.61023 0.67894 0.0
C622 C 0.97902 0.61543 0.69215 0.0
C623 C 0.97612 0.61922 0.71637 0.0
O624 O 0.99445 0.62015 0.75176 0.0
O625 O 0.99474 0.6404 0.74483 0.0
O626 O 0.98158 0.63082 0.71731 0.0
O627 O 0.98185 0.61029 0.72353 0.0
H628 H 0.96641 0.6331 0.74963 0.0
H629 H 0.94895 0.6403 0.7648 0.0
H630 H 0.97795 0.64704 0.79471 0.0
H631 H 0.99526 0.63985 0.77972 0.0
H632 H 0.06247 0.62254 0.73906 0.0
H633 H 0.03826 0.62221 0.74131 0.0
H634 H 0.05813 0.62324 0.69721 0.0
H635 H 0.03451 0.62245 0.69947 0.0
H636 H 0.97938 0.61309 0.6713 0.0
H637 H 0.94178 0.60785 0.68996 0.0
H638 H 0.95181 0.61199 0.71108 0.0
H639 H 0.98936 0.61781 0.69274 0.0
C640 C 0.13129 0.25932 0.47996 0.0
C641 C 0.13112 0.25505 0.46689 0.0
C642 C 0.14025 0.27601 0.46001 0.0
C643 C 0.13553 0.26337 0.45697 0.0
C644 C 0.14014 0.28021 0.47308 0.0
C645 C 0.13571 0.27197 0.4829 0.0
U646 U 0.11895 0.22692 0.49492 0.0
O647 O 0.12628 0.21677 0.51227 0.0
O648 O 0.10582 0.22373 0.51174 0.0
C649 C 0.11495 0.21755 0.51832 0.0
C650 C 0.12749 0.25081 0.49088 0.0
C651 C 0.11498 0.21845 0.53269 0.0
C652 C 0.12401 0.22588 0.55351 0.0
C653 C 0.12298 0.22713 0.53988 0.0
C654 C 0.10873 0.20774 0.55276 0.0
C655 C 0.11717 0.21588 0.56002 0.0
C656 C 0.10767 0.20903 0.53931 0.0
C657 C 0.11073 0.19908 0.46934 0.0
C658 C 0.10729 0.17562 0.47113 0.0
C659 C 0.10589 0.18607 0.45009 0.0
C660 C 0.10842 0.19813 0.45595 0.0
C661 C 0.10547 0.17463 0.45754 0.0
C662 C 0.11 0.1878 0.47702 0.0
C663 C 0.11476 0.21195 0.47443 0.0
O664 O 0.11498 0.24787 0.49191 0.0
O665 O 0.13527 0.24085 0.49314 0.0
O666 O 0.12612 0.21267 0.48043 0.0
O667 O 0.10566 0.21945 0.47962 0.0
H668 H 0.12769 0.24531 0.46439 0.0
H669 H 0.1352 0.25994 0.44696 0.0
H670 H 0.14373 0.28984 0.47577 0.0
H671 H 0.13593 0.27543 0.49291 0.0
H672 H 0.13066 0.23224 0.55882 0.0
H673 H 0.12877 0.23445 0.53494 0.0
H674 H 0.10322 0.20006 0.55747 0.0
H675 H 0.10149 0.20222 0.53396 0.0
H676 H 0.10675 0.167 0.47717 0.0
H677 H 0.10469 0.18568 0.43961 0.0
H678 H 0.109 0.20673 0.44988 0.0
H679 H 0.11174 0.18837 0.48742 0.0
C680 C 0.47831 0.40169 0.23086 0.0
C681 C 0.47506 0.40566 0.21824 0.0
C682 C 0.45207 0.40047 0.22249 0.0
C683 C 0.46196 0.40512 0.2141 0.0
C684 C 0.45551 0.39663 0.23513 0.0
C685 C 0.46847 0.39736 0.23928 0.0
U686 U 0.51736 0.40021 0.23438 0.0
O687 O 0.52493 0.38378 0.24577 0.0
O688 O 0.52708 0.40408 0.25324 0.0
C689 C 0.52851 0.3915 0.25543 0.0
C690 C 0.4918 0.40048 0.23546 0.0
C691 C 0.53851 0.38692 0.26445 0.0
C692 C 0.54352 0.37262 0.28244 0.0
C693 C 0.53456 0.37771 0.27365 0.0
C694 C 0.56054 0.38629 0.27323 0.0
C695 C 0.55664 0.37672 0.28227 0.0
C696 C 0.55152 0.39131 0.26427 0.0
C697 C 0.53843 0.4091 0.2022 0.0
C698 C 0.55971 0.41404 0.19296 0.0
C699 C 0.54092 0.4106 0.17881 0.0
C700 C 0.53303 0.40856 0.18967 0.0
C701 C 0.55433 0.41321 0.18036 0.0
C702 C 0.55177 0.412 0.20386 0.0
C703 C 0.53006 0.40594 0.21327 0.0
O704 O 0.49854 0.39028 0.23148 0.0
O705 O 0.49888 0.41099 0.2379 0.0
O706 O 0.52781 0.41466 0.22251 0.0
O707 O 0.52585 0.394 0.21547 0.0
H708 H 0.48262 0.40887 0.21158 0.0
H709 H 0.45958 0.40813 0.20429 0.0
H710 H 0.4483 0.39257 0.24167 0.0
H711 H 0.4709 0.39404 0.24899 0.0
H712 H 0.54019 0.36526 0.28921 0.0
H713 H 0.52449 0.37431 0.27394 0.0
H714 H 0.57051 0.38994 0.27313 0.0
H715 H 0.55466 0.39853 0.25728 0.0
H716 H 0.57009 0.41586 0.19433 0.0
H717 H 0.5366 0.40994 0.16918 0.0
H718 H 0.52273 0.40634 0.18827 0.0
H719 H 0.55607 0.41234 0.21351 0.0
C720 C 0.38307 0.75477 0.97722 0.0
C721 C 0.38146 0.7594 0.96445 0.0
C722 C 0.37433 0.73773 0.95727 0.0
C723 C 0.37705 0.75091 0.95452 0.0
C724 C 0.37632 0.7331 0.96992 0.0
C725 C 0.38059 0.74156 0.9798 0.0
U726 U 0.39547 0.7873 0.9924 0.0
O727 O 0.38789 0.79802 0.00948 0.0
O728 O 0.40817 0.7905 0.0096 0.0
C729 C 0.39905 0.79713 0.01583 0.0
C730 C 0.38667 0.76345 0.98822 0.0
C731 C 0.39863 0.79682 0.03018 0.0
C732 C 0.39209 0.78771 0.05107 0.0
C733 C 0.39336 0.78645 0.03743 0.0
C734 C 0.40163 0.80939 0.05011 0.0
C735 C 0.39594 0.79938 0.05744 0.0
C736 C 0.40297 0.8081 0.03668 0.0
C737 C 0.40455 0.81469 0.96718 0.0
C738 C 0.40806 0.83818 0.96926 0.0
C739 C 0.41002 0.82749 0.94819 0.0
C740 C 0.40723 0.8155 0.95386 0.0
C741 C 0.41031 0.83901 0.95574 0.0
C742 C 0.40511 0.82607 0.97496 0.0
C743 C 0.4003 0.80189 0.97204 0.0
O744 O 0.39919 0.76621 0.98959 0.0
O745 O 0.37899 0.77358 0.99023 0.0
O746 O 0.38878 0.80132 0.97772 0.0
O747 O 0.40919 0.79437 0.97743 0.0
H748 H 0.38338 0.76957 0.96223 0.0
H749 H 0.3757 0.75461 0.94476 0.0
H750 H 0.37431 0.72297 0.97221 0.0
H751 H 0.38176 0.73782 0.98957 0.0
H752 H 0.3876 0.77987 0.05652 0.0
H753 H 0.38992 0.77765 0.03256 0.0
H754 H 0.40475 0.81844 0.05476 0.0
H755 H 0.40706 0.8162 0.03127 0.0
H756 H 0.40847 0.84685 0.97539 0.0
H757 H 0.41155 0.82777 0.93775 0.0
H758 H 0.40678 0.80684 0.9477 0.0
H759 H 0.40306 0.82562 0.9853 0.0
C760 C 0.03508 0.39843 0.78463 0.0
C761 C 0.03809 0.40491 0.79634 0.0
C762 C 0.06126 0.39807 0.79451 0.0
C763 C 0.05108 0.40505 0.80102 0.0
C764 C 0.05777 0.39168 0.78271 0.0
C765 C 0.04506 0.39213 0.77779 0.0
U766 U 0.99651 0.39879 0.784 0.0
O767 O 0.98456 0.38336 0.77464 0.0
O768 O 0.98385 0.40374 0.76725 0.0
C769 C 0.97944 0.39166 0.76639 0.0
C770 C 0.02175 0.39741 0.77914 0.0
C771 C 0.972 0.38703 0.755 0.0
C772 C 0.97025 0.37805 0.73305 0.0
C773 C 0.97791 0.38342 0.74316 0.0
C774 C 0.95086 0.38016 0.74654 0.0
C775 C 0.95664 0.37625 0.73472 0.0
C776 C 0.95847 0.38546 0.75654 0.0
C777 C 0.97843 0.40767 0.81722 0.0
C778 C 0.95595 0.41109 0.8244 0.0
C779 C 0.97343 0.40913 0.84027 0.0
C780 C 0.98246 0.40765 0.83024 0.0
C781 C 0.96005 0.41076 0.83755 0.0
C782 C 0.9651 0.40946 0.81426 0.0
C783 C 0.98877 0.40574 0.80741 0.0
O784 O 0.01473 0.38743 0.78304 0.0
O785 O 0.0149 0.40818 0.7776 0.0
O786 O 0.98977 0.41407 0.79778 0.0
O787 O 0.99172 0.39364 0.80418 0.0
H788 H 0.03049 0.40997 0.80175 0.0
H789 H 0.05279 0.41095 0.80958 0.0
H790 H 0.06455 0.38579 0.77717 0.0
H791 H 0.04292 0.38706 0.76871 0.0
H792 H 0.97501 0.37496 0.72411 0.0
H793 H 0.9884 0.38448 0.74183 0.0
H794 H 0.94042 0.37906 0.74809 0.0
H795 H 0.95378 0.38817 0.76565 0.0
H796 H 0.94574 0.41264 0.82196 0.0
H797 H 0.97694 0.40868 0.85022 0.0
H798 H 0.99271 0.40632 0.8327 0.0
H799 H 0.96181 0.40959 0.80423 0.0
C800 C 0.38372 0.26006 0.53725 0.0
C801 C 0.38113 0.25543 0.54985 0.0
C802 C 0.37466 0.27743 0.55695 0.0
C803 C 0.37664 0.26406 0.55963 0.0
C804 C 0.37789 0.28201 0.54448 0.0
C805 C 0.38223 0.27341 0.53475 0.0
U806 U 0.39555 0.22725 0.52205 0.0
O807 O 0.38795 0.21688 0.50475 0.0
O808 O 0.40845 0.22366 0.50509 0.0
C809 C 0.3992 0.21748 0.49855 0.0
C810 C 0.38733 0.2513 0.52627 0.0
C811 C 0.39891 0.21858 0.48422 0.0
C812 C 0.39038 0.22735 0.4639 0.0
C813 C 0.39163 0.2281 0.47756 0.0
C814 C 0.40407 0.208 0.46354 0.0
C815 C 0.39644 0.21713 0.45685 0.0
C816 C 0.40527 0.20871 0.47706 0.0
C817 C 0.40294 0.19994 0.54825 0.0
C818 C 0.41202 0.17791 0.54783 0.0
C819 C 0.40285 0.18684 0.56778 0.0
C820 C 0.39992 0.1984 0.56142 0.0
C821 C 0.40915 0.17653 0.56119 0.0
C822 C 0.40894 0.18961 0.54136 0.0
C823 C 0.3995 0.2126 0.54251 0.0
O824 O 0.39979 0.24824 0.52512 0.0
O825 O 0.37942 0.24139 0.524 0.0
O826 O 0.3881 0.21349 0.53664 0.0
O827 O 0.40883 0.21957 0.53711 0.0
H828 H 0.3823 0.24515 0.55203 0.0
H829 H 0.37439 0.26021 0.56916 0.0
H830 H 0.37708 0.29229 0.54218 0.0
H831 H 0.3843 0.27721 0.52514 0.0
H832 H 0.38439 0.23446 0.4589 0.0
H833 H 0.3866 0.23578 0.4829 0.0
H834 H 0.40868 0.19996 0.45834 0.0
H835 H 0.41081 0.20121 0.48202 0.0
H836 H 0.41673 0.17004 0.54247 0.0
H837 H 0.39999 0.18594 0.57789 0.0
H838 H 0.39516 0.20621 0.56685 0.0
H839 H 0.41127 0.1906 0.53113 0.0
C840 C 0.47912 0.61503 0.28384 0.0
C841 C 0.47691 0.61028 0.29646 0.0
C842 C 0.45345 0.61505 0.29444 0.0
C843 C 0.46415 0.6102 0.30167 0.0
C844 C 0.45575 0.61934 0.28168 0.0
C845 C 0.46842 0.61932 0.27647 0.0
U846 U 0.51732 0.61472 0.28476 0.0
O847 O 0.53147 0.60924 0.26933 0.0
O848 O 0.53067 0.62953 0.2768 0.0
C849 C 0.53642 0.62111 0.26893 0.0
C850 C 0.49241 0.61646 0.27823 0.0
C851 C 0.54194 0.62595 0.25661 0.0
C852 C 0.5415 0.63932 0.23707 0.0
C853 C 0.53498 0.63378 0.24779 0.0
C854 C 0.56173 0.62902 0.24388 0.0
C855 C 0.55499 0.63709 0.23515 0.0
C856 C 0.55528 0.62354 0.25445 0.0
C857 C 0.53389 0.60509 0.31791 0.0
C858 C 0.55675 0.60262 0.3243 0.0
C859 C 0.53964 0.60247 0.34065 0.0
C860 C 0.53024 0.60404 0.33097 0.0
C861 C 0.55301 0.60157 0.33749 0.0
C862 C 0.54723 0.6044 0.31454 0.0
C863 C 0.52328 0.60721 0.30843 0.0
O864 O 0.49934 0.62637 0.2827 0.0
O865 O 0.49938 0.60576 0.27652 0.0
O866 O 0.52231 0.59904 0.29852 0.0
O867 O 0.52074 0.61941 0.30543 0.0
H868 H 0.48503 0.60687 0.30232 0.0
H869 H 0.4627 0.60646 0.3114 0.0
H870 H 0.44782 0.62318 0.27583 0.0
H871 H 0.46991 0.62303 0.26673 0.0
H872 H 0.53607 0.64541 0.23038 0.0
H873 H 0.52467 0.63582 0.24932 0.0
H874 H 0.57213 0.62721 0.2427 0.0
H875 H 0.56085 0.61765 0.26122 0.0
H876 H 0.56699 0.60207 0.32155 0.0
H877 H 0.53639 0.60232 0.35068 0.0
H878 H 0.52001 0.60469 0.33376 0.0
H879 H 0.55026 0.60529 0.30447 0.0
C880 C 0.11234 0.7869 0.98337 0.0
C881 C 0.1104 0.80025 0.98086 0.0
C882 C 0.11336 0.79606 0.95755 0.0
C883 C 0.11086 0.80479 0.96799 0.0
C884 C 0.11502 0.78272 0.96023 0.0
C885 C 0.11439 0.77821 0.97297 0.0
U886 U 0.11278 0.78663 0.02167 0.0
O887 O 0.12854 0.77756 0.03319 0.0
O888 O 0.10818 0.76973 0.03415 0.0
C889 C 0.12037 0.76909 0.03828 0.0
C890 C 0.11387 0.78164 0.99657 0.0
C891 C 0.1252 0.75787 0.04565 0.0
C892 C 0.13488 0.73623 0.04728 0.0
C893 C 0.12942 0.74619 0.03967 0.0
C894 C 0.13176 0.74956 0.0667 0.0
C895 C 0.13622 0.738 0.0608 0.0
C896 C 0.12627 0.7594 0.05917 0.0
C897 C 0.10319 0.81983 0.03986 0.0
C898 C 0.1012 0.8275 0.06228 0.0
C899 C 0.09997 0.84289 0.04452 0.0
C900 C 0.10158 0.83269 0.03563 0.0
C901 C 0.09961 0.84048 0.05794 0.0
C902 C 0.10301 0.8172 0.05327 0.0
C903 C 0.10539 0.80991 0.02965 0.0
O904 O 0.12383 0.78614 1.00337 0.0
O905 O 0.10326 0.77967 1.00355 0.0
O906 O 0.09722 0.8 0.02859 0.0
O907 O 0.11758 0.80703 0.0267 0.0
H908 H 0.10892 0.80714 0.9888 0.0
H909 H 0.10954 0.81513 0.96621 0.0
H910 H 0.11738 0.77579 0.95255 0.0
H911 H 0.1161 0.76792 0.97476 0.0
H912 H 0.13825 0.72728 0.04264 0.0
H913 H 0.1287 0.74488 0.02921 0.0
H914 H 0.13267 0.75104 0.07713 0.0
H915 H 0.12308 0.76838 0.06389 0.0
H916 H 0.10106 0.82535 0.07259 0.0
H917 H 0.0994 0.85275 0.0408 0.0
H918 H 0.10184 0.83491 0.02533 0.0
H919 H 0.10434 0.80731 0.05673 0.0
C920 C 0.76181 0.98313 0.63467 0.0
C921 C 0.75884 0.96983 0.63253 0.0
C922 C 0.77908 0.96347 0.64369 0.0
C923 C 0.76744 0.96007 0.637 0.0
C924 C 0.78176 0.9768 0.6459 0.0
C925 C 0.77332 0.98646 0.64134 0.0
U926 U 0.7296 0.99813 0.62091 0.0
O927 O 0.71869 0.01521 0.62832 0.0
O928 O 0.72711 0.01557 0.60855 0.0
C929 C 0.72009 0.02171 0.61743 0.0
C930 C 0.7531 0.99391 0.63057 0.0
C931 C 0.72027 0.03614 0.61812 0.0
C932 C 0.72967 0.05731 0.62418 0.0
C933 C 0.7309 0.04361 0.62283 0.0
C934 C 0.70743 0.05601 0.61595 0.0
C935 C 0.71779 0.06353 0.62095 0.0
C936 C 0.70869 0.04251 0.6145 0.0
C937 C 0.70235 0.9723 0.61082 0.0
C938 C 0.67862 0.97303 0.60823 0.0
C939 C 0.69026 0.95253 0.60559 0.0
C940 C 0.70209 0.95891 0.60792 0.0
C941 C 0.67839 0.9594 0.60619 0.0
C942 C 0.69059 0.97949 0.61064 0.0
C943 C 0.71496 0.97769 0.61536 0.0
O944 O 0.75081 0.99508 0.61803 0.0
O945 O 0.74268 0.99596 0.63781 0.0
O946 O 0.71518 0.98339 0.62689 0.0
O947 O 0.72273 0.98318 0.60679 0.0
H948 H 0.74993 0.96703 0.62747 0.0
H949 H 0.76504 0.94989 0.63515 0.0
H950 H 0.79031 0.97983 0.65142 0.0
H951 H 0.77571 0.99663 0.64323 0.0
H952 H 0.73775 0.06297 0.62815 0.0
H953 H 0.73993 0.03888 0.62571 0.0
H954 H 0.69819 0.06057 0.61344 0.0
H955 H 0.70038 0.03694 0.61088 0.0
H956 H 0.66954 0.97852 0.60869 0.0
H957 H 0.69035 0.94205 0.60388 0.0
H958 H 0.71105 0.95321 0.60802 0.0
H959 H 0.69061 0.98987 0.61287 0.0
C960 C 0.75429 0.98258 0.37897 0.0
C961 C 0.75831 0.96943 0.37939 0.0
C962 C 0.73723 0.96256 0.37043 0.0
C963 C 0.74978 0.95945 0.37515 0.0
C964 C 0.7332 0.97565 0.37026 0.0
C965 C 0.74166 0.98556 0.37451 0.0
U966 U 0.78674 0.99788 0.39183 0.0
O967 O 0.79794 0.01434 0.38377 0.0
O968 O 0.78952 0.01593 0.40352 0.0
C969 C 0.79659 0.02148 0.3944 0.0
C970 C 0.76308 0.99355 0.3825 0.0
C971 C 0.79657 0.03584 0.39317 0.0
C972 C 0.78635 0.05728 0.39083 0.0
C973 C 0.78525 0.04354 0.39166 0.0
C974 C 0.80994 0.05546 0.39277 0.0
C975 C 0.79879 0.0634 0.39141 0.0
C976 C 0.80882 0.04195 0.39372 0.0
C977 C 0.8137 0.9722 0.4024 0.0
C978 C 0.83725 0.97331 0.4063 0.0
C979 C 0.82586 0.95253 0.40737 0.0
C980 C 0.81408 0.95874 0.40461 0.0
C981 C 0.83762 0.95963 0.40793 0.0
C982 C 0.8253 0.97959 0.40349 0.0
C983 C 0.80112 0.97754 0.39786 0.0
O984 O 0.76549 0.99539 0.39497 0.0
O985 O 0.77349 0.99503 0.37513 0.0
O986 O 0.80084 0.98262 0.38616 0.0
O987 O 0.79356 0.9836 0.40634 0.0
H988 H 0.76804 0.96692 0.3828 0.0
H989 H 0.753 0.94935 0.37539 0.0
H990 H 0.72354 0.97821 0.3667 0.0
H991 H 0.7384 0.99563 0.37411 0.0
H992 H 0.77752 0.06308 0.38998 0.0
H993 H 0.77566 0.039 0.39125 0.0
H994 H 0.81968 0.05967 0.39301 0.0
H995 H 0.81767 0.0362 0.39486 0.0
H996 H 0.84621 0.979 0.40657 0.0
H997 H 0.82581 0.94202 0.40869 0.0
H998 H 0.80524 0.95289 0.40378 0.0
H999 H 0.8252 0.99002 0.40174 0.0
C1000 C 0.78685 0.97879 0.11708 0.0
C1001 C 0.80021 0.97602 0.11515 0.0
C1002 C 0.79589 0.95272 0.11832 0.0
C1003 C 0.8047 0.96302 0.1157 0.0
C1004 C 0.78247 0.95559 0.11941 0.0
C1005 C 0.77805 0.96846 0.11891 0.0
U1006 U 0.78637 0.01735 0.11727 0.0
O1007 O 0.77728 0.02915 0.13288 0.0
O1008 O 0.76927 0.02989 0.1127 0.0
C1009 C 0.76863 0.03412 0.12483 0.0
C1010 C 0.78164 0.99214 0.11868 0.0
C1011 C 0.75753 0.04184 0.12974 0.0
C1012 C 0.73721 0.04429 0.14192 0.0
C1013 C 0.74712 0.03625 0.13672 0.0
C1014 C 0.74812 0.06335 0.13317 0.0
C1015 C 0.73766 0.05793 0.14019 0.0
C1016 C 0.75788 0.05537 0.12794 0.0
C1017 C 0.81892 0.03567 0.10642 0.0
C1018 C 0.82649 0.05823 0.10682 0.0
C1019 C 0.84147 0.04076 0.10093 0.0
C1020 C 0.83141 0.0317 0.10239 0.0
C1021 C 0.83925 0.0541 0.10339 0.0
C1022 C 0.81637 0.04903 0.10845 0.0
C1023 C 0.8094 0.02523 0.1091 0.0
O1024 O 0.78641 0.99913 0.12838 0.0
O1025 O 0.77927 0.99899 0.10816 0.0
O1026 O 0.79927 0.02378 0.10129 0.0
O1027 O 0.80685 0.02271 0.12136 0.0
H1028 H 0.80717 0.98388 0.1137 0.0
H1029 H 0.81509 0.9611 0.11469 0.0
H1030 H 0.77536 0.94788 0.12093 0.0
H1031 H 0.7677 0.9704 0.12036 0.0
H1032 H 0.72924 0.03988 0.1473 0.0
H1033 H 0.74672 0.02579 0.13824 0.0
H1034 H 0.74891 0.07384 0.13194 0.0
H1035 H 0.76593 0.05983 0.12271 0.0
H1036 H 0.82439 0.0685 0.10844 0.0
H1037 H 0.85114 0.03723 0.09834 0.0
H1038 H 0.83353 0.02142 0.10078 0.0
H1039 H 0.80674 0.0523 0.1115 0.0
C1040 C 0.72713 0.97665 0.90286 0.0
C1041 C 0.71463 0.97344 0.90757 0.0
C1042 C 0.71839 0.95061 0.90157 0.0
C1043 C 0.71029 0.96039 0.90696 0.0
C1044 C 0.73094 0.95387 0.89718 0.0
C1045 C 0.73527 0.96677 0.89786 0.0
U1046 U 0.73018 0.01566 0.90263 0.0
O1047 O 0.7413 0.02463 0.88672 0.0
O1048 O 0.74905 0.02557 0.90688 0.0
C1049 C 0.75109 0.02782 0.89445 0.0
C1050 C 0.732 0.99011 0.90189 0.0
C1051 C 0.76023 0.03802 0.89034 0.0
C1052 C 0.78192 0.04328 0.88222 0.0
C1053 C 0.77308 0.03426 0.88731 0.0
C1054 C 0.76511 0.06001 0.88318 0.0
C1055 C 0.77805 0.05626 0.88006 0.0
C1056 C 0.75625 0.05094 0.88832 0.0
C1057 C 0.698 0.03657 0.91225 0.0
C1058 C 0.6904 0.05858 0.91715 0.0
C1059 C 0.6747 0.04104 0.9139 0.0
C1060 C 0.68496 0.03229 0.91192 0.0
C1061 C 0.67724 0.05434 0.91629 0.0
C1062 C 0.70075 0.04974 0.91506 0.0
C1063 C 0.70813 0.02672 0.90952 0.0
O1064 O 0.72795 0.99707 0.892 0.0
O1065 O 0.73435 0.997 0.91252 0.0
O1066 O 0.71783 0.02492 0.91777 0.0
O1067 O 0.71072 0.02339 0.89739 0.0
H1068 H 0.70819 0.98097 0.91139 0.0
H1069 H 0.70052 0.95798 0.91032 0.0
H1070 H 0.73727 0.94646 0.89293 0.0
H1071 H 0.74491 0.96912 0.89411 0.0
H1072 H 0.79181 0.04009 0.88 0.0
H1073 H 0.77624 0.02424 0.88867 0.0
H1074 H 0.76173 0.06986 0.88135 0.0
H1075 H 0.74628 0.05392 0.89044 0.0
H1076 H 0.69268 0.06872 0.91932 0.0
H1077 H 0.66473 0.03744 0.91311 0.0
H1078 H 0.68268 0.02211 0.90987 0.0
H1079 H 0.71079 0.05319 0.9155 0.0
C1080 C 0.63174 0.75966 0.9805 0.0
C1081 C 0.62765 0.75784 0.96752 0.0
C1082 C 0.64033 0.77704 0.96091 0.0
C1083 C 0.63187 0.76651 0.9578 0.0
C1084 C 0.64462 0.77845 0.97387 0.0
C1085 C 0.64025 0.76999 0.98352 0.0
U1086 U 0.61846 0.72736 0.99519 0.0
O1087 O 0.62569 0.71676 0.01231 0.0
O1088 O 0.60553 0.72454 0.01223 0.0
C1089 C 0.61449 0.71786 0.01854 0.0
C1090 C 0.62758 0.75105 0.99124 0.0
C1091 C 0.61483 0.71841 0.03291 0.0
C1092 C 0.62081 0.72819 0.05385 0.0
C1093 C 0.6197 0.7291 0.04019 0.0
C1094 C 0.61201 0.70618 0.05288 0.0
C1095 C 0.61717 0.71659 0.06021 0.0
C1096 C 0.61082 0.70711 0.03941 0.0
C1097 C 0.60966 0.69981 0.96936 0.0
C1098 C 0.60752 0.6761 0.97006 0.0
C1099 C 0.60405 0.68759 0.94981 0.0
C1100 C 0.60643 0.69944 0.95613 0.0
C1101 C 0.60489 0.67576 0.95658 0.0
C1102 C 0.60994 0.6881 0.97645 0.0
C1103 C 0.61389 0.71253 0.97469 0.0
O1104 O 0.615 0.74839 0.99217 0.0
O1105 O 0.63513 0.74092 0.99351 0.0
O1106 O 0.6253 0.71303 0.98063 0.0
O1107 O 0.60494 0.72016 0.97994 0.0
H1108 H 0.62115 0.74984 0.96493 0.0
H1109 H 0.62839 0.76506 0.94792 0.0
H1110 H 0.65159 0.78599 0.9766 0.0
H1111 H 0.64366 0.77146 0.99343 0.0
H1112 H 0.6249 0.7363 0.05938 0.0
H1113 H 0.6229 0.7379 0.03534 0.0
H1114 H 0.60922 0.69715 0.05758 0.0
H1115 H 0.60709 0.69876 0.03397 0.0
H1116 H 0.60834 0.6671 0.97549 0.0
H1117 H 0.60193 0.68765 0.93947 0.0
H1118 H 0.6062 0.70836 0.9505 0.0
H1119 H 0.61247 0.68821 0.98669 0.0
C1120 C 0.97975 0.11489 0.78324 0.0
C1121 C 0.9775 0.10966 0.79566 0.0
C1122 C 0.95411 0.11486 0.79391 0.0
C1123 C 0.96476 0.10955 0.8009 0.0
C1124 C 0.95646 0.11967 0.78134 0.0
C1125 C 0.9691 0.11966 0.7761 0.0
U1126 U 0.01799 0.11407 0.78375 0.0
O1127 O 0.03176 0.10903 0.76782 0.0
O1128 O 0.03147 0.12901 0.7762 0.0
C1129 C 0.03699 0.1208 0.76796 0.0
C1130 C 0.99302 0.11627 0.77758 0.0
C1131 C 0.04308 0.12606 0.75609 0.0
C1132 C 0.04268 0.13628 0.73474 0.0
C1133 C 0.036 0.13045 0.74521 0.0
C1134 C 0.06333 0.13319 0.74597 0.0
C1135 C 0.05641 0.13789 0.73518 0.0
C1136 C 0.05674 0.12733 0.75625 0.0
C1137 C 0.03461 0.10358 0.81671 0.0
C1138 C 0.05738 0.1034 0.8239 0.0
C1139 C 0.0399 0.09933 0.83931 0.0
C1140 C 0.03069 0.10065 0.8294 0.0
C1141 C 0.05329 0.10106 0.83678 0.0
C1142 C 0.04806 0.10474 0.81388 0.0
C1143 C 0.02411 0.10599 0.80719 0.0
O1144 O 1.00012 0.12598 0.78221 0.0
O1145 O 0.99984 0.10552 0.77554 0.0
O1146 O 0.02308 0.09804 0.7971 0.0
O1147 O 0.02163 0.11826 0.80446 0.0
H1148 H 0.98558 0.10587 0.80134 0.0
H1149 H 0.96327 0.10542 0.81046 0.0
H1150 H 0.94858 0.12388 0.77568 0.0
H1151 H 0.97062 0.12374 0.76651 0.0
H1152 H 0.03712 0.13984 0.7265 0.0
H1153 H 0.02542 0.12959 0.74493 0.0
H1154 H 0.0739 0.13412 0.7465 0.0
H1155 H 0.06237 0.12399 0.76454 0.0
H1156 H 0.06769 0.1047 0.82171 0.0
H1157 H 0.03649 0.09722 0.84906 0.0
H1158 H 0.02038 0.09965 0.83175 0.0
H1159 H 0.05128 0.10698 0.8041 0.0
C1160 C 0.88245 0.25596 0.47703 0.0
C1161 C 0.88574 0.25866 0.46402 0.0
C1162 C 0.87366 0.23924 0.45665 0.0
C1163 C 0.88144 0.2503 0.45391 0.0
C1164 C 0.87054 0.23665 0.46971 0.0
C1165 C 0.87491 0.24488 0.47974 0.0
U1166 U 0.89561 0.28815 0.49239 0.0
O1167 O 0.88825 0.29898 0.50949 0.0
O1168 O 0.90837 0.29112 0.5096 0.0
C1169 C 0.89937 0.29789 0.51587 0.0
C1170 C 0.88642 0.26446 0.48807 0.0
C1171 C 0.89883 0.29733 0.53021 0.0
C1172 C 0.89183 0.28791 0.55081 0.0
C1173 C 0.89325 0.28692 0.53717 0.0
C1174 C 0.90181 0.30942 0.55048 0.0
C1175 C 0.8959 0.29931 0.55747 0.0
C1176 C 0.90329 0.30841 0.53702 0.0
C1177 C 0.9049 0.31556 0.46735 0.0
C1178 C 0.9071 0.33921 0.46918 0.0
C1179 C 0.91134 0.32824 0.44858 0.0
C1180 C 0.90868 0.31624 0.45428 0.0
C1181 C 0.91035 0.33989 0.45585 0.0
C1182 C 0.90432 0.32709 0.4749 0.0
C1183 C 0.90052 0.30276 0.47208 0.0
O1184 O 0.899 0.26705 0.48928 0.0
O1185 O 0.8789 0.27465 0.49034 0.0
O1186 O 0.88901 0.30228 0.4778 0.0
O1187 O 0.90935 0.2951 0.47738 0.0
H1188 H 0.8916 0.26717 0.4617 0.0
H1189 H 0.88435 0.25243 0.44401 0.0
H1190 H 0.86451 0.22832 0.47222 0.0
H1191 H 0.87226 0.24263 0.48969 0.0
H1192 H 0.88712 0.28006 0.55606 0.0
H1193 H 0.88968 0.2783 0.53208 0.0
H1194 H 0.9049 0.31833 0.5554 0.0
H1195 H 0.90754 0.31656 0.53183 0.0
H1196 H 0.9065 0.34803 0.47508 0.0
H1197 H 0.91369 0.32842 0.43829 0.0
H1198 H 0.90911 0.30745 0.4483 0.0
H1199 H 0.90142 0.32675 0.48504 0.0
C1200 C 0.50317 0.87807 0.78193 0.0
C1201 C 0.50286 0.87288 0.79455 0.0
C1202 C 0.48519 0.88819 0.80082 0.0
C1203 C 0.4938 0.8777 0.80379 0.0
C1204 C 0.48628 0.89359 0.78825 0.0
C1205 C 0.49471 0.88832 0.77891 0.0
U1206 U 0.53596 0.86443 0.76744 0.0
O1207 O 0.53895 0.85248 0.74961 0.0
O1208 O 0.54698 0.87249 0.75095 0.0
C1209 C 0.54585 0.86172 0.74397 0.0
C1210 C 0.51221 0.87358 0.77153 0.0
C1211 C 0.54556 0.86291 0.72967 0.0
C1212 C 0.53561 0.86872 0.7089 0.0
C1213 C 0.53465 0.86722 0.72251 0.0
C1214 C 0.55825 0.86164 0.70972 0.0
C1215 C 0.54752 0.86602 0.70238 0.0
C1216 C 0.55725 0.86008 0.72312 0.0
C1217 C 0.56346 0.85502 0.79282 0.0
C1218 C 0.5873 0.85362 0.79188 0.0
C1219 C 0.57592 0.85014 0.81227 0.0
C1220 C 0.56396 0.85196 0.80605 0.0
C1221 C 0.58775 0.85138 0.8054 0.0
C1222 C 0.57517 0.85549 0.7856 0.0
C1223 C 0.55065 0.85914 0.78771 0.0
O1224 O 0.52246 0.88106 0.76949 0.0
O1225 O 0.51479 0.861 0.77051 0.0
O1226 O 0.54322 0.85033 0.78192 0.0
O1227 O 0.54997 0.87079 0.78246 0.0
H1228 H 0.50944 0.86503 0.7972 0.0
H1229 H 0.49357 0.87302 0.81318 0.0
H1230 H 0.48119 0.90233 0.78544 0.0
H1231 H 0.49496 0.89266 0.76932 0.0
H1232 H 0.5271 0.87195 0.70351 0.0
H1233 H 0.52551 0.86949 0.72741 0.0
H1234 H 0.56761 0.85968 0.70513 0.0
H1235 H 0.5658 0.85684 0.72848 0.0
H1236 H 0.59628 0.85467 0.78636 0.0
H1237 H 0.57594 0.84824 0.82264 0.0
H1238 H 0.55504 0.85156 0.81178 0.0
H1239 H 0.57498 0.85788 0.77535 0.0
C1240 C 0.98093 0.14588 0.22752 0.0
C1241 C 0.96743 0.14513 0.22484 0.0
C1242 C 0.97206 0.145 0.20149 0.0
C1243 C 0.96303 0.14468 0.21188 0.0
C1244 C 0.98547 0.14621 0.20429 0.0
C1245 C 0.98983 0.14668 0.21717 0.0
U1246 U 0.98114 0.14557 0.26575 0.0
O1247 O 0.99071 0.13045 0.27753 0.0
O1248 O 0.99773 0.15105 0.27866 0.0
C1249 C 0.99879 0.13899 0.28286 0.0
C1250 C 0.98635 0.1443 0.24071 0.0
C1251 C 0.0103 0.13453 0.29017 0.0
C1252 C 0.03077 0.12257 0.29225 0.0
C1253 C 0.0206 0.12743 0.28443 0.0
C1254 C 0.02033 0.13191 0.31138 0.0
C1255 C 0.03057 0.12454 0.30587 0.0
C1256 C 0.01038 0.13691 0.30359 0.0
C1257 C 0.94761 0.15548 0.28318 0.0
C1258 C 0.9396 0.15765 0.30543 0.0
C1259 C 0.92455 0.15961 0.28726 0.0
C1260 C 0.93487 0.15767 0.27862 0.0
C1261 C 0.92676 0.15944 0.3007 0.0
C1262 C 0.95004 0.15559 0.29667 0.0
C1263 C 0.95766 0.15291 0.27322 0.0
O1264 O 0.9883 0.15491 0.24779 0.0
O1265 O 0.98192 0.13436 0.24744 0.0
O1266 O 0.96073 0.14067 0.27068 0.0
O1267 O 0.9675 0.16113 0.27206 0.0
H1268 H 0.96039 0.14445 0.2327 0.0
H1269 H 0.95262 0.1438 0.20996 0.0
H1270 H 0.99264 0.14624 0.19652 0.0
H1271 H 1.00028 0.14712 0.21906 0.0
H1272 H 0.03872 0.11725 0.28766 0.0
H1273 H 0.02071 0.12554 0.27403 0.0
H1274 H 0.01978 0.13355 0.3218 0.0
H1275 H 1.00246 0.14234 0.30815 0.0
H1276 H 0.94146 0.15748 0.31582 0.0
H1277 H 0.91476 0.16107 0.28343 0.0
H1278 H 0.93284 0.15768 0.26825 0.0
H1279 H 0.95983 0.15394 0.30039 0.0
C1280 C 0.50351 0.13741 0.73351 0.0
C1281 C 0.50547 0.14165 0.72065 0.0
C1282 C 0.48665 0.12864 0.71327 0.0
C1283 C 0.49707 0.13731 0.7106 0.0
C1284 C 0.48471 0.12465 0.72618 0.0
C1285 C 0.49303 0.12898 0.73613 0.0
U1286 U 0.53594 0.15011 0.74923 0.0
O1287 O 0.53876 0.16185 0.76724 0.0
O1288 O 0.54666 0.1418 0.76583 0.0
C1289 C 0.54555 0.15254 0.77287 0.0
C1290 C 0.51219 0.14118 0.74448 0.0
C1291 C 0.54541 0.15137 0.78719 0.0
C1292 C 0.53551 0.14603 0.8081 0.0
C1293 C 0.53444 0.14748 0.79448 0.0
C1294 C 0.55836 0.15236 0.80702 0.0
C1295 C 0.54757 0.14837 0.8145 0.0
C1296 C 0.55726 0.15388 0.79361 0.0
C1297 C 0.56381 0.16009 0.72451 0.0
C1298 C 0.58769 0.15938 0.72463 0.0
C1299 C 0.57607 0.16715 0.70563 0.0
C1300 C 0.56417 0.16533 0.71198 0.0
C1301 C 0.5879 0.16362 0.71163 0.0
C1302 C 0.57566 0.15754 0.73105 0.0
C1303 C 0.55092 0.15578 0.72929 0.0
O1304 O 0.52237 0.13358 0.74641 0.0
O1305 O 0.51484 0.15369 0.7461 0.0
O1306 O 0.54334 0.16446 0.73505 0.0
O1307 O 0.55019 0.14404 0.73435 0.0
H1308 H 0.5135 0.14819 0.71838 0.0
H1309 H 0.4987 0.14076 0.70079 0.0
H1310 H 0.47688 0.11793 0.72857 0.0
H1311 H 0.49135 0.12557 0.74596 0.0
H1312 H 0.52694 0.14313 0.81359 0.0
H1313 H 0.52517 0.14548 0.78969 0.0
H1314 H 0.56784 0.15405 0.81149 0.0
H1315 H 0.56585 0.15683 0.78816 0.0
H1316 H 0.59672 0.15672 0.7295 0.0
H1317 H 0.57597 0.17075 0.69573 0.0
H1318 H 0.55516 0.16739 0.70679 0.0
H1319 H 0.57558 0.1535 0.74077 0.0
C1320 C 0.14535 0.23028 0.97513 0.0
C1321 C 0.14294 0.22732 0.96195 0.0
C1322 C 0.145 0.20395 0.96645 0.0
C1323 C 0.14277 0.21424 0.95765 0.0
C1324 C 0.14799 0.20709 0.97947 0.0
C1325 C 0.14808 0.22009 0.98374 0.0
U1326 U 0.1446 0.26874 0.97592 0.0
O1327 O 0.12965 0.28047 0.98622 0.0
O1328 O 0.15055 0.28145 0.99247 0.0
C1329 C 0.13846 0.2856 0.9941 0.0
C1330 C 0.14379 0.24354 0.98068 0.0
C1331 C 0.13455 0.29332 1.00557 0.0
C1332 C 0.12537 0.29555 0.02733 0.0
C1333 C 0.12992 0.28758 0.01707 0.0
C1334 C 0.13021 0.31485 0.01464 0.0
C1335 C 0.12526 0.30923 0.02602 0.0
C1336 C 0.13487 0.30695 1.00454 0.0
C1337 C 0.15268 0.28663 0.94245 0.0
C1338 C 0.15842 0.3084 0.93489 0.0
C1339 C 0.15322 0.29123 0.91931 0.0
C1340 C 0.15119 0.28258 0.92948 0.0
C1341 C 0.15708 0.30419 0.9218 0.0
C1342 C 0.15623 0.29966 0.94519 0.0
C1343 C 0.15081 0.27653 0.95243 0.0
O1344 O 0.15441 0.25066 0.98236 0.0
O1345 O 0.13361 0.25031 0.97674 0.0
O1346 O 0.13875 0.27372 0.95592 0.0
O1347 O 0.15947 0.27542 0.96184 0.0
H1348 H 0.14078 0.23504 0.95511 0.0
H1349 H 0.14048 0.21217 0.94753 0.0
H1350 H 0.15021 0.1995 0.98641 0.0
H1351 H 0.14998 0.22218 0.99394 0.0
H1352 H 0.12155 0.29107 0.03606 0.0
H1353 H 0.12959 0.27704 0.01801 0.0
H1354 H 0.13026 0.32537 0.01348 0.0
H1355 H 0.13842 0.3115 0.99572 0.0
H1356 H 0.1613 0.31837 0.93715 0.0
H1357 H 0.15151 0.28774 0.90946 0.0
H1358 H 0.14839 0.27258 0.92719 0.0
H1359 H 0.15742 0.30301 0.95516 0.0
C1360 C 0.37812 0.72539 0.51288 0.0
C1361 C 0.37757 0.7122 0.50891 0.0
C1362 C 0.38732 0.70578 0.52957 0.0
C1363 C 0.38222 0.70242 0.51724 0.0
C1364 C 0.38756 0.71893 0.53352 0.0
C1365 C 0.38302 0.72863 0.52523 0.0
U1366 U 0.36607 0.74311 0.48126 0.0
O1367 O 0.35542 0.76193 0.48117 0.0
O1368 O 0.37572 0.76059 0.47322 0.0
C1369 C 0.36559 0.76798 0.47612 0.0
C1370 C 0.37463 0.73626 0.50432 0.0
C1371 C 0.36532 0.78197 0.47315 0.0
C1372 C 0.36602 0.80469 0.48038 0.0
C1373 C 0.36504 0.79135 0.48323 0.0
C1374 C 0.36741 0.79931 0.45738 0.0
C1375 C 0.36713 0.8088 0.46739 0.0
C1376 C 0.36652 0.78602 0.46024 0.0
C1377 C 0.35572 0.71943 0.45165 0.0
C1378 C 0.35626 0.71891 0.42794 0.0
C1379 C 0.34957 0.6997 0.43988 0.0
C1380 C 0.35115 0.70652 0.45156 0.0
C1381 C 0.35265 0.70561 0.42799 0.0
C1382 C 0.3579 0.72579 0.43977 0.0
C1383 C 0.35981 0.72482 0.46434 0.0
O1384 O 0.38235 0.73822 0.49431 0.0
O1385 O 0.36215 0.73813 0.50175 0.0
O1386 O 0.3511 0.73029 0.47211 0.0
O1387 O 0.3717 0.72969 0.46542 0.0
H1388 H 0.37385 0.70954 0.49936 0.0
H1389 H 0.38195 0.69228 0.51407 0.0
H1390 H 0.39156 0.72173 0.54293 0.0
H1391 H 0.38361 0.73876 0.52839 0.0
H1392 H 0.36588 0.81179 0.48829 0.0
H1393 H 0.36436 0.78833 0.4933 0.0
H1394 H 0.36864 0.80213 0.44731 0.0
H1395 H 0.36697 0.77889 0.45237 0.0
H1396 H 0.35858 0.72372 0.41887 0.0
H1397 H 0.34644 0.68957 0.44018 0.0
H1398 H 0.34944 0.70144 0.46063 0.0
H1399 H 0.36145 0.73578 0.43965 0.0
C1400 C 0.7322 0.53563 0.8714 0.0
C1401 C 0.72947 0.5466 0.86375 0.0
C1402 C 0.70627 0.54529 0.86981 0.0
C1403 C 0.71655 0.55129 0.86281 0.0
C1404 C 0.70922 0.53427 0.87735 0.0
C1405 C 0.72198 0.52948 0.87804 0.0
U1406 U 0.77068 0.535 0.87201 0.0
O1407 O 0.78232 0.525 0.88699 0.0
O1408 O 0.78343 0.51839 0.86627 0.0
C1409 C 0.78745 0.51695 0.87835 0.0
C1410 C 0.74542 0.53002 0.87281 0.0
C1411 C 0.7953 0.50568 0.88243 0.0
C1412 C 0.79785 0.48447 0.89264 0.0
C1413 C 0.78974 0.49465 0.88833 0.0
C1414 C 0.81695 0.49646 0.88536 0.0
C1415 C 0.81157 0.48529 0.89119 0.0
C1416 C 0.80889 0.50644 0.8809 0.0
C1417 C 0.7884 0.56867 0.86337 0.0
C1418 C 0.81077 0.57675 0.86143 0.0
C1419 C 0.79245 0.59173 0.85966 0.0
C1420 C 0.78378 0.58139 0.8614 0.0
C1421 C 0.80599 0.58956 0.85981 0.0
C1422 C 0.80198 0.5663 0.86328 0.0
C1423 C 0.77841 0.55855 0.86558 0.0
O1424 O 0.75254 0.52843 0.86224 0.0
O1425 O 0.75221 0.53399 0.88297 0.0
O1426 O 0.77586 0.5552 0.87764 0.0
O1427 O 0.7772 0.54894 0.85706 0.0
H1428 H 0.73723 0.55145 0.85845 0.0
H1429 H 0.71466 0.55949 0.8565 0.0
H1430 H 0.70171 0.52944 0.883 0.0
H1431 H 0.7239 0.52097 0.88396 0.0
H1432 H 0.79342 0.47599 0.89711 0.0
H1433 H 0.77923 0.49395 0.88966 0.0
H1434 H 0.82746 0.49768 0.8845 0.0
H1435 H 0.81332 0.51498 0.87652 0.0
H1436 H 0.82123 0.57492 0.86159 0.0
H1437 H 0.78857 0.60149 0.85833 0.0
H1438 H 0.77334 0.58338 0.86136 0.0
H1439 H 0.80574 0.55652 0.86476 0.0
C1440 C 0.73119 0.50432 0.13929 0.0
C1441 C 0.71835 0.50466 0.1443 0.0
C1442 C 0.71196 0.48635 0.12992 0.0
C1443 C 0.70886 0.49568 0.13972 0.0
C1444 C 0.72473 0.48656 0.12472 0.0
C1445 C 0.73422 0.49518 0.12954 0.0
U1446 U 0.74625 0.53718 0.15226 0.0
O1447 O 0.764 0.5402 0.16437 0.0
O1448 O 0.76324 0.54772 0.14433 0.0
C1449 C 0.77 0.54679 0.15518 0.0
C1450 C 0.74182 0.51326 0.14361 0.0
C1451 C 0.78446 0.54641 0.15421 0.0
C1452 C 0.80556 0.5358 0.1503 0.0
C1453 C 0.79181 0.535 0.15174 0.0
C1454 C 0.80454 0.55922 0.15395 0.0
C1455 C 0.81196 0.548 0.15128 0.0
C1456 C 0.79099 0.55842 0.15542 0.0
C1457 C 0.72106 0.56542 0.1606 0.0
C1458 C 0.72137 0.58922 0.15938 0.0
C1459 C 0.70191 0.578 0.16689 0.0
C1460 C 0.70826 0.56603 0.16544 0.0
C1461 C 0.70818 0.58972 0.16344 0.0
C1462 C 0.72779 0.57711 0.15794 0.0
C1463 C 0.72599 0.55238 0.15683 0.0
O1464 O 0.74424 0.5232 0.13597 0.0
O1465 O 0.74269 0.51624 0.15608 0.0
O1466 O 0.73139 0.54511 0.16586 0.0
O1467 O 0.73158 0.55121 0.14535 0.0
H1468 H 0.7157 0.51174 0.15175 0.0
H1469 H 0.69915 0.49597 0.14397 0.0
H1470 H 0.72747 0.48029 0.11663 0.0
H1471 H 0.74398 0.49486 0.12539 0.0
H1472 H 0.81113 0.52703 0.14815 0.0
H1473 H 0.78696 0.52562 0.15072 0.0
H1474 H 0.80925 0.56871 0.15468 0.0
H1475 H 0.78552 0.56733 0.1573 0.0
H1476 H 0.72645 0.59806 0.15656 0.0
H1477 H 0.69184 0.57804 0.17025 0.0
H1478 H 0.70288 0.55714 0.16751 0.0
H1479 H 0.73769 0.57685 0.15414 0.0
C1480 C 0.72822 0.51244 0.3776 0.0
C1481 C 0.71496 0.50954 0.37522 0.0
C1482 C 0.70863 0.52974 0.38646 0.0
C1483 C 0.70519 0.51817 0.37966 0.0
C1484 C 0.72194 0.53255 0.38857 0.0
C1485 C 0.73159 0.52398 0.38421 0.0
U1486 U 0.74595 0.48035 0.3657 0.0
O1487 O 0.76439 0.4801 0.35442 0.0
O1488 O 0.764 0.47285 0.37485 0.0
C1489 C 0.77094 0.47551 0.36444 0.0
C1490 C 0.73901 0.50373 0.37384 0.0
C1491 C 0.78501 0.47276 0.36373 0.0
C1492 C 0.80755 0.48056 0.36421 0.0
C1493 C 0.7941 0.48307 0.36306 0.0
C1494 C 0.80286 0.4574 0.36625 0.0
C1495 C 0.81197 0.46771 0.36607 0.0
C1496 C 0.78947 0.45992 0.36516 0.0
C1497 C 0.72215 0.45015 0.35725 0.0
C1498 C 0.72178 0.42636 0.3582 0.0
C1499 C 0.70216 0.43828 0.3523 0.0
C1500 C 0.70901 0.45001 0.35337 0.0
C1501 C 0.7083 0.42639 0.35523 0.0
C1502 C 0.72869 0.43824 0.35933 0.0
C1503 C 0.72774 0.46297 0.36072 0.0
O1504 O 0.74149 0.49401 0.38172 0.0
O1505 O 0.74033 0.50068 0.36145 0.0
O1506 O 0.7327 0.47047 0.35162 0.0
O1507 O 0.73309 0.4645 0.37228 0.0
H1508 H 0.7122 0.5006 0.37017 0.0
H1509 H 0.695 0.51565 0.37808 0.0
H1510 H 0.72491 0.54142 0.39362 0.0
H1511 H 0.74178 0.52634 0.38612 0.0
H1512 H 0.81443 0.48864 0.36415 0.0
H1513 H 0.79076 0.49308 0.36216 0.0
H1514 H 0.80612 0.44742 0.36761 0.0
H1515 H 0.78257 0.45188 0.36578 0.0
H1516 H 0.72675 0.41728 0.36039 0.0
H1517 H 0.69187 0.43857 0.34967 0.0
H1518 H 0.7038 0.4591 0.35176 0.0
H1519 H 0.73886 0.43816 0.36236 0.0
C1520 C 0.72937 0.47937 0.64731 0.0
C1521 C 0.72595 0.46624 0.64933 0.0
C1522 C 0.70284 0.47191 0.64683 0.0
C1523 C 0.71268 0.46255 0.64918 0.0
C1524 C 0.7064 0.48503 0.64519 0.0
C1525 C 0.71953 0.48869 0.64541 0.0
U1526 U 0.76842 0.48128 0.64623 0.0
O1527 O 0.77763 0.49302 0.63079 0.0
O1528 O 0.779 0.49935 0.65152 0.0
C1529 C 0.78121 0.50208 0.63922 0.0
C1530 C 0.74291 0.48391 0.64605 0.0
C1531 C 0.79082 0.51204 0.63572 0.0
C1532 C 0.79548 0.53197 0.62399 0.0
C1533 C 0.78658 0.52256 0.62814 0.0
C1534 C 0.81294 0.52058 0.63525 0.0
C1535 C 0.80878 0.53093 0.62729 0.0
C1536 C 0.80398 0.51115 0.63945 0.0
C1537 C 0.7884 0.44827 0.65423 0.0
C1538 C 0.81034 0.43907 0.65441 0.0
C1539 C 0.79157 0.42533 0.65915 0.0
C1540 C 0.7833 0.43602 0.65754 0.0
C1541 C 0.80509 0.42676 0.6575 0.0
C1542 C 0.80199 0.44985 0.65274 0.0
C1543 C 0.7789 0.45877 0.65194 0.0
O1544 O 0.74999 0.48582 0.6566 0.0
O1545 O 0.74963 0.47987 0.63588 0.0
O1546 O 0.77594 0.46204 0.63994 0.0
O1547 O 0.77708 0.46802 0.66075 0.0
H1548 H 0.73347 0.45891 0.65073 0.0
H1549 H 0.71013 0.45235 0.65047 0.0
H1550 H 0.69902 0.49245 0.64358 0.0
H1551 H 0.72204 0.49886 0.6438 0.0
H1552 H 0.79206 0.53983 0.61785 0.0
H1553 H 0.77639 0.52337 0.62525 0.0
H1554 H 0.82314 0.51972 0.63808 0.0
H1555 H 0.80734 0.5031 0.64537 0.0
H1556 H 0.82081 0.44026 0.6531 0.0
H1557 H 0.78739 0.41589 0.66151 0.0
H1558 H 0.77283 0.43466 0.65869 0.0
H1559 H 0.80607 0.45926 0.65015 0.0
C1560 C 0.48192 0.13649 0.26273 0.0
C1561 C 0.46893 0.13211 0.26118 0.0
C1562 C 0.46219 0.14496 0.28029 0.0
C1563 C 0.45914 0.13628 0.26994 0.0
C1564 C 0.47514 0.14957 0.28141 0.0
C1565 C 0.48487 0.14525 0.27286 0.0
U1566 U 0.49663 0.12347 0.23028 0.0
O1567 O 0.51386 0.13078 0.21969 0.0
O1568 O 0.51378 0.11059 0.2271 0.0
C1569 C 0.52014 0.1196 0.22057 0.0
C1570 C 0.49273 0.13236 0.25406 0.0
C1571 C 0.5346 0.11991 0.22099 0.0
C1572 C 0.55578 0.12527 0.23077 0.0
C1573 C 0.54201 0.12427 0.23177 0.0
C1574 C 0.55463 0.11737 0.20848 0.0
C1575 C 0.56214 0.12207 0.21897 0.0
C1576 C 0.54108 0.11629 0.2095 0.0
C1577 C 0.47096 0.11513 0.20271 0.0
C1578 C 0.47269 0.11327 0.17913 0.0
C1579 C 0.45177 0.10976 0.18974 0.0
C1580 C 0.45761 0.11204 0.20182 0.0
C1581 C 0.45918 0.1106 0.17831 0.0
C1582 C 0.4786 0.1155 0.19132 0.0
C1583 C 0.47596 0.11914 0.21559 0.0
O1584 O 0.49361 0.11982 0.25118 0.0
O1585 O 0.49507 0.13998 0.24409 0.0
O1586 O 0.48191 0.13052 0.2164 0.0
O1587 O 0.48125 0.1101 0.22293 0.0
H1588 H 0.46638 0.12543 0.25332 0.0
H1589 H 0.44927 0.13256 0.26871 0.0
H1590 H 0.47781 0.15672 0.28879 0.0
H1591 H 0.49478 0.14889 0.27411 0.0
H1592 H 0.56138 0.129 0.23898 0.0
H1593 H 0.53719 0.12715 0.24074 0.0
H1594 H 0.55927 0.11478 0.19931 0.0
H1595 H 0.53555 0.11291 0.20109 0.0
H1596 H 0.47854 0.11398 0.17036 0.0
H1597 H 0.44132 0.10787 0.18929 0.0
H1598 H 0.45156 0.11184 0.21048 0.0
H1599 H 0.48893 0.11792 0.19183 0.0
C1600 C 0.97876 0.89899 0.73407 0.0
C1601 C 0.97612 0.90309 0.7213 0.0
C1602 C 0.95267 0.899 0.72454 0.0
C1603 C 0.96315 0.90311 0.71659 0.0
C1604 C 0.95547 0.89509 0.73734 0.0
C1605 C 0.96832 0.89519 0.74204 0.0
U1606 U 0.0171 0.89978 0.73292 0.0
O1607 O 0.03094 0.90464 0.74884 0.0
O1608 O 0.03047 0.88467 0.74036 0.0
C1609 C 0.03606 0.89283 0.74863 0.0
C1610 C 0.9922 0.89756 0.73928 0.0
C1611 C 0.04252 0.8876 0.76031 0.0
C1612 C 0.04302 0.87834 0.78211 0.0
C1613 C 0.03589 0.88357 0.77159 0.0
C1614 C 0.06314 0.88091 0.76991 0.0
C1615 C 0.05678 0.87688 0.78134 0.0
C1616 C 0.05613 0.88629 0.75966 0.0
C1617 C 0.03413 0.91058 0.70048 0.0
C1618 C 0.05712 0.91004 0.69414 0.0
C1619 C 0.04044 0.91553 0.67827 0.0
C1620 C 0.0308 0.91419 0.68778 0.0
C1621 C 0.05361 0.91331 0.68132 0.0
C1622 C 0.0474 0.90866 0.70373 0.0
C1623 C 0.02327 0.90815 0.70958 0.0
O1624 O 0.99917 0.88793 0.73433 0.0
O1625 O 0.99907 0.90828 0.74137 0.0
O1626 O 0.02215 0.91597 0.71976 0.0
O1627 O 0.02071 0.89585 0.71215 0.0
H1628 H 0.98405 0.906 0.71494 0.0
H1629 H 0.96134 0.90619 0.70668 0.0
H1630 H 0.94779 0.89146 0.74362 0.0
H1631 H 0.97017 0.89186 0.75186 0.0
H1632 H 0.03778 0.87565 0.79085 0.0
H1633 H 0.02534 0.88451 0.77227 0.0
H1634 H 0.07363 0.87977 0.76874 0.0
H1635 H 0.06142 0.88928 0.75102 0.0
H1636 H 0.06728 0.90816 0.69658 0.0
H1637 H 0.03756 0.91791 0.66841 0.0
H1638 H 0.02063 0.91564 0.68509 0.0
H1639 H 0.05015 0.9058 0.71348 0.0
C1640 C 0.5356 0.89861 0.28723 0.0
C1641 C 0.53952 0.90658 0.29769 0.0
C1642 C 0.56205 0.89833 0.29561 0.0
C1643 C 0.55271 0.90668 0.30165 0.0
C1644 C 0.55782 0.89057 0.28499 0.0
C1645 C 0.54488 0.8909 0.28077 0.0
U1646 U 0.49649 0.89802 0.2836 0.0
O1647 O 0.488 0.88231 0.2716 0.0
O1648 O 0.48705 0.90276 0.26482 0.0
C1649 C 0.48481 0.89034 0.26221 0.0
C1650 C 0.52209 0.89777 0.28243 0.0
C1651 C 0.47405 0.88659 0.25353 0.0
C1652 C 0.46773 0.88007 0.23165 0.0
C1653 C 0.47701 0.8851 0.24029 0.0
C1654 C 0.45222 0.87808 0.24942 0.0
C1655 C 0.45526 0.87641 0.2361 0.0
C1656 C 0.46159 0.88314 0.25811 0.0
C1657 C 0.47602 0.90699 0.31633 0.0
C1658 C 0.45493 0.91172 0.32614 0.0
C1659 C 0.47412 0.90879 0.33978 0.0
C1660 C 0.48174 0.90666 0.32871 0.0
C1661 C 0.46061 0.91117 0.33863 0.0
C1662 C 0.46263 0.90972 0.31503 0.0
C1663 C 0.48409 0.90377 0.30499 0.0
O1664 O 0.51512 0.88754 0.28577 0.0
O1665 O 0.5152 0.90846 0.28056 0.0
O1666 O 0.48656 0.91257 0.29605 0.0
O1667 O 0.48793 0.89176 0.30235 0.0
H1668 H 0.53247 0.91278 0.30267 0.0
H1669 H 0.55547 0.91348 0.30928 0.0
H1670 H 0.56435 0.88383 0.28006 0.0
H1671 H 0.54202 0.88478 0.27256 0.0
H1672 H 0.47033 0.87901 0.22146 0.0
H1673 H 0.48667 0.88756 0.23666 0.0
H1674 H 0.44277 0.87512 0.25317 0.0
H1675 H 0.45924 0.88405 0.26837 0.0
H1676 H 0.44448 0.91323 0.32497 0.0
H1677 H 0.47875 0.90838 0.34927 0.0
H1678 H 0.49209 0.90456 0.32982 0.0
H1679 H 0.45807 0.90989 0.30549 0.0
C1680 C 0.88321 0.7601 0.03789 0.0
C1681 C 0.88511 0.7568 0.05103 0.0
C1682 C 0.87517 0.77749 0.05787 0.0
C1683 C 0.88115 0.76549 0.06097 0.0
C1684 C 0.87335 0.78068 0.04474 0.0
C1685 C 0.87738 0.7721 0.03487 0.0
U1686 U 0.89603 0.72761 0.02267 0.0
O1687 O 0.88866 0.717 1.00541 0.0
O1688 O 0.90882 0.72484 1.00549 0.0
C1689 C 0.89982 0.71814 0.99913 0.0
C1690 C 0.88696 0.75133 0.027 0.0
C1691 C 0.89947 0.71852 0.98478 0.0
C1692 C 0.89354 0.72799 0.96386 0.0
C1693 C 0.89464 0.7291 0.97753 0.0
C1694 C 0.90234 0.70601 0.96479 0.0
C1695 C 0.89712 0.71626 0.95745 0.0
C1696 C 0.90352 0.70715 0.97825 0.0
C1697 C 0.90572 0.70006 0.04762 0.0
C1698 C 0.90556 0.67621 0.04772 0.0
C1699 C 0.91433 0.68832 0.06617 0.0
C1700 C 0.91173 0.70003 0.05987 0.0
C1701 C 0.91092 0.67629 0.06039 0.0
C1702 C 0.90295 0.68806 0.04136 0.0
C1703 C 0.90111 0.71279 0.0428 0.0
O1704 O 0.89951 0.7487 0.02572 0.0
O1705 O 0.87938 0.74111 0.02498 0.0
O1706 O 0.88959 0.71319 0.03708 0.0
O1707 O 0.90983 0.72068 0.03766 0.0
H1708 H 0.88956 0.74755 0.05357 0.0
H1709 H 0.88257 0.76278 0.07106 0.0
H1710 H 0.86885 0.78988 0.0421 0.0
H1711 H 0.87586 0.77482 0.02481 0.0
H1712 H 0.88942 0.73601 0.95838 0.0
H1713 H 0.89143 0.73797 0.98241 0.0
H1714 H 0.90522 0.69691 0.9601 0.0
H1715 H 0.90727 0.6989 0.98365 0.0
H1716 H 0.90272 0.66709 0.04307 0.0
H1717 H 0.91858 0.68871 0.07584 0.0
H1718 H 0.91391 0.70916 0.06488 0.0
H1719 H 0.89825 0.68786 0.03189 0.0
C1720 C 0.61249 0.28962 0.48258 0.0
C1721 C 0.60436 0.29985 0.47855 0.0
C1722 C 0.61333 0.29789 0.45651 0.0
C1723 C 0.60467 0.30386 0.46551 0.0
C1724 C 0.62114 0.28744 0.4607 0.0
C1725 C 0.62065 0.28332 0.47355 0.0
U1726 U 0.61317 0.28603 0.52144 0.0
O1727 O 0.6296 0.27448 0.52893 0.0
O1728 O 0.60932 0.26705 0.53081 0.0
C1729 C 0.62192 0.2648 0.53237 0.0
C1730 C 0.61328 0.28511 0.49603 0.0
C1731 C 0.6265 0.256 0.54254 0.0
C1732 C 0.64105 0.23814 0.54796 0.0
C1733 C 0.63595 0.24676 0.53889 0.0
C1734 C 0.62693 0.24759 0.56454 0.0
C1735 C 0.63673 0.23849 0.56093 0.0
C1736 C 0.6219 0.25639 0.55539 0.0
C1737 C 0.60395 0.31854 0.54255 0.0
C1738 C 0.59661 0.32783 0.56308 0.0
C1739 C 0.60457 0.34202 0.54602 0.0
C1740 C 0.60666 0.33112 0.53799 0.0
C1741 C 0.59987 0.34044 0.55877 0.0
C1742 C 0.59867 0.31694 0.55503 0.0
C1743 C 0.60739 0.30709 0.5346 0.0
O1744 O 0.62347 0.28881 0.50296 0.0
O1745 O 0.6026 0.28289 0.50284 0.0
O1746 O 0.59866 0.29794 0.53201 0.0
O1747 O 0.61931 0.30498 0.53019 0.0
H1748 H 0.59792 0.30474 0.48541 0.0
H1749 H 0.59816 0.31163 0.46253 0.0
H1750 H 0.62799 0.28266 0.45416 0.0
H1751 H 0.62694 0.27535 0.47653 0.0
H1752 H 0.6486 0.23136 0.54485 0.0
H1753 H 0.63954 0.24629 0.52895 0.0
H1754 H 0.62309 0.24786 0.57436 0.0
H1755 H 0.6145 0.26342 0.55832 0.0
H1756 H 0.59266 0.32636 0.57275 0.0
H1757 H 0.60715 0.35162 0.54245 0.0
H1758 H 0.61069 0.33249 0.52834 0.0
H1759 H 0.59651 0.30726 0.55867 0.0
C1760 C 0.26133 0.48258 0.13498 0.0
C1761 C 0.25966 0.46949 0.13094 0.0
C1762 C 0.27886 0.46304 0.14372 0.0
C1763 C 0.2684 0.4598 0.13526 0.0
C1764 C 0.28018 0.47612 0.14788 0.0
C1765 C 0.27164 0.48574 0.14344 0.0
U1766 U 0.22904 0.49745 0.12131 0.0
O1767 O 0.21796 0.51425 0.12912 0.0
O1768 O 0.22653 0.51517 0.10938 0.0
C1769 C 0.2194 0.521 0.11839 0.0
C1770 C 0.25255 0.49328 0.13094 0.0
C1771 C 0.21909 0.5354 0.11926 0.0
C1772 C 0.22862 0.5571 0.12248 0.0
C1773 C 0.23007 0.54337 0.12186 0.0
C1774 C 0.20538 0.55471 0.11828 0.0
C1775 C 0.21623 0.5629 0.12047 0.0
C1776 C 0.20683 0.54122 0.11753 0.0
C1777 C 0.2019 0.47176 0.11065 0.0
C1778 C 0.17808 0.47204 0.1088 0.0
C1779 C 0.19018 0.45216 0.10406 0.0
C1780 C 0.2019 0.45866 0.10661 0.0
C1781 C 0.17814 0.45861 0.10561 0.0
C1782 C 0.18995 0.47861 0.1114 0.0
C1783 C 0.21448 0.47707 0.11536 0.0
O1784 O 0.25027 0.49456 0.11841 0.0
O1785 O 0.24211 0.49517 0.1382 0.0
O1786 O 0.21467 0.48254 0.127 0.0
O1787 O 0.22228 0.48273 0.10692 0.0
H1788 H 0.25167 0.4668 0.12448 0.0
H1789 H 0.26704 0.44981 0.13188 0.0
H1790 H 0.28768 0.47896 0.15481 0.0
H1791 H 0.273 0.49574 0.14679 0.0
H1792 H 0.23715 0.56316 0.12437 0.0
H1793 H 0.23963 0.53904 0.12335 0.0
H1794 H 0.19561 0.55873 0.11725 0.0
H1795 H 0.19823 0.53524 0.11569 0.0
H1796 H 0.16889 0.47721 0.10998 0.0
H1797 H 0.19049 0.44188 0.1014 0.0
H1798 H 0.211 0.45322 0.10597 0.0
H1799 H 0.18977 0.48876 0.11451 0.0
C1800 C 0.28787 0.53702 0.89886 0.0
C1801 C 0.30136 0.5396 0.89957 0.0
C1802 C 0.29696 0.56297 0.89731 0.0
C1803 C 0.30588 0.55253 0.89879 0.0
C1804 C 0.28349 0.56023 0.89692 0.0
C1805 C 0.27902 0.54739 0.8977 0.0
U1806 U 0.28444 0.49826 0.89863 0.0
O1807 O 0.27345 0.48872 0.88281 0.0
O1808 O 0.26564 0.48838 0.903 0.0
C1809 C 0.26371 0.48571 0.89059 0.0
C1810 C 0.28251 0.52377 0.89767 0.0
C1811 C 0.25424 0.47584 0.88641 0.0
C1812 C 0.23244 0.47135 0.87812 0.0
C1813 C 0.24151 0.48004 0.88348 0.0
C1814 C 0.2487 0.45405 0.87873 0.0
C1815 C 0.23598 0.45832 0.87563 0.0
C1816 C 0.25783 0.4628 0.88411 0.0
C1817 C 0.31711 0.47853 0.90913 0.0
C1818 C 0.32645 0.45711 0.91323 0.0
C1819 C 0.34056 0.47617 0.91196 0.0
C1820 C 0.32966 0.48402 0.90981 0.0
C1821 C 0.33913 0.4626 0.91326 0.0
C1822 C 0.31544 0.46507 0.91113 0.0
C1823 C 0.3063 0.48729 0.90577 0.0
O1824 O 0.28669 0.51654 0.88789 0.0
O1825 O 0.27994 0.51715 0.90828 0.0
O1826 O 0.29666 0.48953 0.914 0.0
O1827 O 0.30387 0.49023 0.89356 0.0
H1828 H 0.30834 0.53166 0.90027 0.0
H1829 H 0.31635 0.5543 0.89883 0.0
H1830 H 0.27638 0.56802 0.89586 0.0
H1831 H 0.26857 0.54552 0.89698 0.0
H1832 H 0.22273 0.47486 0.87568 0.0
H1833 H 0.23869 0.49015 0.88504 0.0
H1834 H 0.25156 0.44399 0.87693 0.0
H1835 H 0.26768 0.45949 0.88624 0.0
H1836 H 0.32512 0.44666 0.91426 0.0
H1837 H 0.35017 0.48068 0.91227 0.0
H1838 H 0.33108 0.49442 0.9084 0.0
H1839 H 0.30577 0.4607 0.91069 0.0
C1840 C 0.28537 0.47934 0.61983 0.0
C1841 C 0.29728 0.47624 0.61363 0.0
C1842 C 0.29513 0.45333 0.62026 0.0
C1843 C 0.3021 0.46333 0.61382 0.0
C1844 C 0.28324 0.45661 0.62639 0.0
C1845 C 0.27841 0.46939 0.62607 0.0
U1846 U 0.28651 0.51753 0.61751 0.0
O1847 O 0.27054 0.53123 0.61245 0.0
O1848 O 0.27932 0.5317 0.63211 0.0
C1849 C 0.27094 0.53695 0.62397 0.0
C1850 C 0.28005 0.49281 0.6207 0.0
C1851 C 0.2591 0.54325 0.62935 0.0
C1852 C 0.23753 0.54329 0.63957 0.0
C1853 C 0.24799 0.53641 0.63372 0.0
C1854 C 0.24924 0.56367 0.63657 0.0
C1855 C 0.23824 0.55698 0.64123 0.0
C1856 C 0.2595 0.55689 0.63066 0.0
C1857 C 0.31971 0.53338 0.60604 0.0
C1858 C 0.32678 0.55606 0.60417 0.0
C1859 C 0.34259 0.53847 0.60224 0.0
C1860 C 0.33264 0.52935 0.60398 0.0
C1861 C 0.33986 0.5519 0.60265 0.0
C1862 C 0.3167 0.54682 0.60594 0.0
C1863 C 0.31007 0.52305 0.60883 0.0
O1864 O 0.28489 0.50026 0.63002 0.0
O1865 O 0.27802 0.49913 0.60978 0.0
O1866 O 0.29981 0.52188 0.60116 0.0
O1867 O 0.30746 0.521 0.62117 0.0
H1868 H 0.30289 0.48378 0.60881 0.0
H1869 H 0.3113 0.46118 0.609 0.0
H1870 H 0.27782 0.44942 0.63186 0.0
H1871 H 0.26929 0.47159 0.63104 0.0
H1872 H 0.22909 0.53794 0.64308 0.0
H1873 H 0.24751 0.52585 0.63281 0.0
H1874 H 0.24995 0.57421 0.63759 0.0
H1875 H 0.26796 0.56234 0.62733 0.0
H1876 H 0.32446 0.5664 0.60448 0.0
H1877 H 0.35254 0.535 0.60084 0.0
H1878 H 0.33513 0.51904 0.60397 0.0
H1879 H 0.30674 0.55013 0.60751 0.0
C1880 C 0.26152 0.53131 0.38241 0.0
C1881 C 0.25821 0.54463 0.38366 0.0
C1882 C 0.27903 0.55085 0.37356 0.0
C1883 C 0.26692 0.55433 0.37927 0.0
C1884 C 0.2821 0.5375 0.37226 0.0
C1885 C 0.27352 0.5279 0.37673 0.0
U1886 U 0.22891 0.51651 0.39537 0.0
O1887 O 0.2183 0.49923 0.38793 0.0
O1888 O 0.22596 0.49934 0.40804 0.0
C1889 C 0.21929 0.49298 0.39902 0.0
C1890 C 0.25269 0.52058 0.38635 0.0
C1891 C 0.21932 0.47852 0.39877 0.0
C1892 C 0.22717 0.4572 0.39123 0.0
C1893 C 0.22891 0.47086 0.39245 0.0
C1894 C 0.20663 0.45888 0.40293 0.0
C1895 C 0.21577 0.4512 0.39614 0.0
C1896 C 0.2084 0.47235 0.40423 0.0
C1897 C 0.20158 0.5425 0.40443 0.0
C1898 C 0.17841 0.54096 0.40991 0.0
C1899 C 0.18892 0.56217 0.40847 0.0
C1900 C 0.20076 0.55611 0.40548 0.0
C1901 C 0.17756 0.55473 0.41063 0.0
C1902 C 0.19037 0.53486 0.40675 0.0
C1903 C 0.21425 0.53708 0.40021 0.0
O1904 O 0.25005 0.51955 0.39884 0.0
O1905 O 0.24246 0.51845 0.37884 0.0
O1906 O 0.21466 0.53117 0.3888 0.0
O1907 O 0.2218 0.53169 0.40904 0.0
H1908 H 0.24893 0.54749 0.38795 0.0
H1909 H 0.26424 0.56453 0.3804 0.0
H1910 H 0.29107 0.53439 0.36753 0.0
H1911 H 0.2762 0.51771 0.37555 0.0
H1912 H 0.23435 0.45145 0.38593 0.0
H1913 H 0.23741 0.47544 0.38813 0.0
H1914 H 0.19781 0.4545 0.40686 0.0
H1915 H 0.20089 0.47805 0.40912 0.0
H1916 H 0.16988 0.53495 0.41175 0.0
H1917 H 0.18862 0.57276 0.40875 0.0
H1918 H 0.20929 0.56216 0.40366 0.0
H1919 H 0.19084 0.52429 0.40599 0.0
C1920 C 0.12524 0.42209 0.11424 0.0
C1921 C 0.13125 0.42625 0.10272 0.0
C1922 C 0.11557 0.4125 0.11393 0.0
C1923 C 0.11115 0.4072 0.102 0.0
C1924 C 0.11646 0.41216 0.09036 0.0
C1925 C 0.1265 0.42152 0.09072 0.0
C1926 C 0.10175 0.39598 0.10192 0.0
C1927 C 0.09248 0.39464 0.11193 0.0
C1928 C 0.08481 0.3832 0.11336 0.0
C1929 C 0.08606 0.3734 0.10357 0.0
C1930 C 0.09496 0.3748 0.09319 0.0
C1931 C 0.10286 0.386 0.0926 0.0
C1932 C 0.09682 0.36433 0.08323 0.0
C1933 C 0.09805 0.35116 0.08686 0.0
C1934 C 0.09864 0.36767 0.07009 0.0
C1935 C 0.10221 0.35819 0.06091 0.0
C1936 C 0.10388 0.34511 0.06462 0.0
C1937 C 0.07642 0.3813 0.12544 0.0
C1938 C 0.07472 0.39151 0.13472 0.0
C1939 C 0.07063 0.36907 0.12842 0.0
C1940 C 0.06447 0.36696 0.14044 0.0
C1941 C 0.06401 0.37692 0.14993 0.0
C1942 C 0.06872 0.38932 0.14669 0.0
C1943 C 0.1016 0.34164 0.07763 0.0
H1944 H 0.12841 0.42588 0.12362 0.0
H1945 H 0.11204 0.4089 0.12316 0.0
H1946 H 0.11311 0.40859 0.08097 0.0
H1947 H 0.13089 0.42466 0.08167 0.0
H1948 H 0.09172 0.40263 0.11873 0.0
H1949 H 0.11035 0.38661 0.08516 0.0
H1950 H 0.08018 0.36464 0.10375 0.0
H1951 H 0.09683 0.34831 0.09692 0.0
H1952 H 0.09766 0.37772 0.06697 0.0
H1953 H 0.10407 0.36118 0.05099 0.0
H1954 H 0.07796 0.40139 0.13316 0.0
H1955 H 0.0712 0.36078 0.12189 0.0
H1956 H 0.1028 0.3316 0.0807 0.0
H1957 H 0.06795 0.39741 0.15355 0.0
H1958 H 0.0607 0.35731 0.14257 0.0
C1959 C 0.88972 0.92333 0.42347 0.0
C1960 C 0.88482 0.9278 0.41151 0.0
C1961 C 0.89969 0.91393 0.42375 0.0
C1962 C 0.9047 0.90854 0.41209 0.0
C1963 C 0.9 0.91335 0.40018 0.0
C1964 C 0.89036 0.92297 0.39991 0.0
C1965 C 0.91397 0.89727 0.41223 0.0
C1966 C 0.91285 0.88761 0.42174 0.0
C1967 C 0.92068 0.87629 0.42137 0.0
C1968 C 0.92928 0.87435 0.41077 0.0
C1969 C 0.93025 0.88379 0.4009 0.0
C1970 C 0.92307 0.89546 0.40215 0.0
C1971 C 0.93778 0.88127 0.3887 0.0
C1972 C 0.95 0.87488 0.38874 0.0
C1973 C 0.93253 0.88531 0.3767 0.0
C1974 C 0.93944 0.88343 0.36516 0.0
C1975 C 0.95179 0.87741 0.3652 0.0
C1976 C 0.91883 0.86625 0.43163 0.0
C1977 C 0.91584 0.8702 0.44447 0.0
C1978 C 0.91874 0.8528 0.42855 0.0
C1979 C 0.91487 0.84365 0.43786 0.0
C1980 C 0.91087 0.84781 0.45031 0.0
C1981 C 0.9118 0.8611 0.45365 0.0
C1982 C 0.95693 0.87293 0.37706 0.0
H1983 H 0.88553 0.92664 0.4326 0.0
H1984 H 0.9032 0.91067 0.43313 0.0
H1985 H 0.90334 0.90934 0.39096 0.0
H1986 H 0.88692 0.92632 0.39053 0.0
H1987 H 0.90535 0.88856 0.42914 0.0
H1988 H 0.92432 0.90304 0.39496 0.0
H1989 H 0.93491 0.8654 0.41001 0.0
H1990 H 0.95431 0.87161 0.39778 0.0
H1991 H 0.92294 0.88981 0.37617 0.0
H1992 H 0.93499 0.88654 0.35611 0.0
H1993 H 0.91623 0.88041 0.44735 0.0
H1994 H 0.92095 0.84937 0.41879 0.0
H1995 H 0.96638 0.8681 0.37733 0.0
H1996 H 0.90912 0.8645 0.46332 0.0
H1997 H 0.91433 0.8334 0.43511 0.0
C1998 C 0.3899 0.59171 0.58938 0.0
C1999 C 0.38353 0.58843 0.60103 0.0
C2000 C 0.39989 0.60108 0.5894 0.0
C2001 C 0.40364 0.60739 0.60107 0.0
C2002 C 0.39728 0.60402 0.61271 0.0
C2003 C 0.38733 0.59469 0.61267 0.0
C2004 C 0.41343 0.61813 0.6011 0.0
C2005 C 0.4131 0.62764 0.59139 0.0
C2006 C 0.42116 0.63879 0.59211 0.0
C2007 C 0.42956 0.64044 0.60292 0.0
C2008 C 0.42983 0.63105 0.61285 0.0
C2009 C 0.42209 0.61974 0.61158 0.0
C2010 C 0.43688 0.63347 0.62529 0.0
C2011 C 0.44991 0.63796 0.62566 0.0
C2012 C 0.43037 0.63104 0.63707 0.0
C2013 C 0.4368 0.63259 0.64892 0.0
C2014 C 0.45 0.63648 0.64937 0.0
C2015 C 0.41942 0.64921 0.58224 0.0
C2016 C 0.41666 0.64584 0.56919 0.0
C2017 C 0.41889 0.66246 0.58603 0.0
C2018 C 0.4148 0.67195 0.57721 0.0
C2019 C 0.41115 0.66837 0.56447 0.0
C2020 C 0.41251 0.65532 0.56041 0.0
C2021 C 0.45644 0.63944 0.63764 0.0
H2022 H 0.38716 0.58699 0.58028 0.0
H2023 H 0.40465 0.60343 0.58029 0.0
H2024 H 0.39964 0.60893 0.62181 0.0
H2025 H 0.38235 0.59263 0.62174 0.0
H2026 H 0.40588 0.62677 0.58368 0.0
H2027 H 0.42246 0.61236 0.61909 0.0
H2028 H 0.43546 0.64922 0.6039 0.0
H2029 H 0.45512 0.64 0.61671 0.0
H2030 H 0.4202 0.62797 0.63715 0.0
H2031 H 0.43138 0.63079 0.65779 0.0
H2032 H 0.41722 0.63577 0.56586 0.0
H2033 H 0.42086 0.66542 0.596 0.0
H2034 H 0.46658 0.64262 0.63771 0.0
H2035 H 0.4098 0.65235 0.55061 0.0
H2036 H 0.41402 0.68203 0.58047 0.0
C2037 C 0.62678 0.09286 0.90424 0.0
C2038 C 0.6314 0.08824 0.91624 0.0
C2039 C 0.61666 0.102 0.9038 0.0
C2040 C 0.61074 0.10654 0.91534 0.0
C2041 C 0.61471 0.10114 0.92729 0.0
C2042 C 0.62498 0.0921 0.92773 0.0
C2043 C 0.60154 0.11781 0.91497 0.0
C2044 C 0.59266 0.11932 0.90465 0.0
C2045 C 0.58552 0.13102 0.90307 0.0
C2046 C 0.58672 0.14088 0.91275 0.0
C2047 C 0.59511 0.13924 0.92354 0.0
C2048 C 0.60264 0.12779 0.92433 0.0
C2049 C 0.59701 0.14968 0.93361 0.0
C2050 C 0.59748 0.16297 0.93021 0.0
C2051 C 0.59958 0.14626 0.94663 0.0
C2052 C 0.60337 0.15572 0.95575 0.0
C2053 C 0.60443 0.16889 0.9522 0.0
C2054 C 0.57758 0.13313 0.89093 0.0
C2055 C 0.58122 0.127 0.87909 0.0
C2056 C 0.56667 0.14162 0.89082 0.0
C2057 C 0.55991 0.14416 0.87921 0.0
C2058 C 0.56368 0.13798 0.86755 0.0
C2059 C 0.57425 0.12927 0.86762 0.0
C2060 C 0.60114 0.17248 0.93942 0.0
H2061 H 0.63129 0.08972 0.89519 0.0
H2062 H 0.61394 0.10596 0.89443 0.0
H2063 H 0.61017 0.10423 0.93634 0.0
H2064 H 0.62825 0.08858 0.93711 0.0
H2065 H 0.59151 0.11135 0.89773 0.0
H2066 H 0.60995 0.12694 0.93193 0.0
H2067 H 0.5814 0.14996 0.91181 0.0
H2068 H 0.5957 0.16599 0.92028 0.0
H2069 H 0.59898 0.13618 0.94973 0.0
H2070 H 0.60565 0.1527 0.96559 0.0
H2071 H 0.58975 0.12075 0.87844 0.0
H2072 H 0.56331 0.14638 0.89966 0.0
H2073 H 0.60198 0.18257 0.93639 0.0
H2074 H 0.57743 0.12458 0.85866 0.0
H2075 H 0.5518 0.15099 0.8793 0.0
C2076 C 0.12615 0.59251 0.42668 0.0
C2077 C 0.13166 0.58781 0.41503 0.0
C2078 C 0.11668 0.60238 0.42645 0.0
C2079 C 0.11274 0.60794 0.41457 0.0
C2080 C 0.11821 0.60306 0.40292 0.0
C2081 C 0.1275 0.59306 0.40315 0.0
C2082 C 0.10363 0.61933 0.41433 0.0
C2083 C 0.10434 0.62902 0.42406 0.0
C2084 C 0.09656 0.64036 0.42353 0.0
C2085 C 0.08818 0.64213 0.41275 0.0
C2086 C 0.08761 0.63267 0.40271 0.0
C2087 C 0.09501 0.62115 0.40385 0.0
C2088 C 0.08043 0.63513 0.39036 0.0
C2089 C 0.06746 0.63982 0.39022 0.0
C2090 C 0.08673 0.63262 0.37844 0.0
C2091 C 0.0802 0.63439 0.36668 0.0
C2092 C 0.06707 0.63852 0.36644 0.0
C2093 C 0.09831 0.65067 0.43375 0.0
C2094 C 0.10087 0.64712 0.44673 0.0
C2095 C 0.09878 0.66399 0.43047 0.0
C2096 C 0.10241 0.67342 0.43978 0.0
C2097 C 0.10562 0.66974 0.45255 0.0
C2098 C 0.10456 0.65652 0.45597 0.0
C2099 C 0.06082 0.64147 0.37834 0.0
H2100 H 0.12924 0.58859 0.43596 0.0
H2101 H 0.11255 0.60572 0.43561 0.0
H2102 H 0.11573 0.60727 0.3936 0.0
H2103 H 0.13184 0.5898 0.39406 0.0
H2104 H 0.11153 0.62807 0.43176 0.0
H2105 H 0.09425 0.61369 0.39631 0.0
H2106 H 0.08247 0.65102 0.41193 0.0
H2107 H 0.06239 0.64191 0.39926 0.0
H2108 H 0.09684 0.62937 0.37819 0.0
H2109 H 0.08553 0.63261 0.35772 0.0
H2110 H 0.10032 0.637 0.4497 0.0
H2111 H 0.09704 0.66709 0.42057 0.0
H2112 H 0.05075 0.64482 0.37846 0.0
H2113 H 0.10677 0.65341 0.46579 0.0
H2114 H 0.10332 0.68351 0.43678 0.0
C2115 C 0.62457 0.9237 0.61535 0.0
C2116 C 0.63125 0.9273 0.60397 0.0
C2117 C 0.61491 0.91406 0.61497 0.0
C2118 C 0.61118 0.90816 0.60309 0.0
C2119 C 0.61707 0.91266 0.59153 0.0
C2120 C 0.6271 0.92199 0.59198 0.0
C2121 C 0.60202 0.89674 0.60297 0.0
C2122 C 0.59249 0.89526 0.61271 0.0
C2123 C 0.58548 0.88347 0.61411 0.0
C2124 C 0.58695 0.87367 0.60445 0.0
C2125 C 0.59576 0.87533 0.59403 0.0
C2126 C 0.60358 0.88665 0.59377 0.0
C2127 C 0.59765 0.86509 0.58375 0.0
C2128 C 0.5971 0.85166 0.58668 0.0
C2129 C 0.60107 0.86879 0.57101 0.0
C2130 C 0.60491 0.85945 0.56181 0.0
C2131 C 0.60505 0.84617 0.565 0.0
C2132 C 0.57748 0.88123 0.62615 0.0
C2133 C 0.5811 0.88729 0.63804 0.0
C2134 C 0.56662 0.87266 0.62616 0.0
C2135 C 0.55984 0.87005 0.63773 0.0
C2136 C 0.56354 0.87624 0.64941 0.0
C2137 C 0.5741 0.88497 0.64944 0.0
C2138 C 0.60068 0.84227 0.57732 0.0
H2139 H 0.62714 0.92801 0.62469 0.0
H2140 H 0.61081 0.91093 0.62415 0.0
H2141 H 0.6142 0.90873 0.58212 0.0
H2142 H 0.63194 0.92469 0.58301 0.0
H2143 H 0.59071 0.90327 0.61943 0.0
H2144 H 0.61135 0.88731 0.58664 0.0
H2145 H 0.58148 0.86464 0.60514 0.0
H2146 H 0.59458 0.84839 0.59635 0.0
H2147 H 0.60117 0.87898 0.56821 0.0
H2148 H 0.60805 0.86263 0.55226 0.0
H2149 H 0.58963 0.89356 0.63875 0.0
H2150 H 0.56332 0.8679 0.61728 0.0
H2151 H 0.60069 0.83202 0.57991 0.0
H2152 H 0.57725 0.88965 0.65844 0.0
H2153 H 0.55173 0.8632 0.63757 0.0
C2154 C 0.38727 0.42156 0.90161 0.0
C2155 C 0.38422 0.42799 0.91338 0.0
C2156 C 0.39718 0.41221 0.90109 0.0
C2157 C 0.40417 0.40895 0.91238 0.0
C2158 C 0.40123 0.41548 0.92416 0.0
C2159 C 0.39131 0.42489 0.92466 0.0
C2160 C 0.41379 0.3981 0.91208 0.0
C2161 C 0.42249 0.39647 0.90163 0.0
C2162 C 0.43137 0.38587 0.90111 0.0
C2163 C 0.43124 0.37687 0.91152 0.0
C2164 C 0.42212 0.37809 0.92179 0.0
C2165 C 0.41351 0.38877 0.92188 0.0
C2166 C 0.42064 0.36789 0.93198 0.0
C2167 C 0.4223 0.35454 0.92898 0.0
C2168 C 0.41614 0.37136 0.94451 0.0
C2169 C 0.41216 0.36183 0.95326 0.0
C2170 C 0.41315 0.34848 0.95002 0.0
C2171 C 0.44004 0.3839 0.88935 0.0
C2172 C 0.44288 0.3944 0.88095 0.0
C2173 C 0.44489 0.3714 0.88582 0.0
C2174 C 0.45148 0.36938 0.87399 0.0
C2175 C 0.45313 0.3797 0.86523 0.0
C2176 C 0.44914 0.39229 0.86903 0.0
C2177 C 0.41883 0.34496 0.938 0.0
H2178 H 0.3817 0.42346 0.89284 0.0
H2179 H 0.39898 0.40714 0.89195 0.0
H2180 H 0.40652 0.41323 0.93301 0.0
H2181 H 0.38917 0.42973 0.93385 0.0
H2182 H 0.42197 0.40341 0.89379 0.0
H2183 H 0.40597 0.38954 0.92927 0.0
H2184 H 0.43818 0.3689 0.91173 0.0
H2185 H 0.42578 0.35141 0.91949 0.0
H2186 H 0.4152 0.38152 0.94745 0.0
H2187 H 0.40792 0.365 0.96242 0.0
H2188 H 0.4402 0.40435 0.88337 0.0
H2189 H 0.44306 0.36293 0.89176 0.0
H2190 H 0.42038 0.33479 0.93539 0.0
H2191 H 0.45068 0.40053 0.86264 0.0
H2192 H 0.45456 0.35957 0.87135 0.0
C2193 C 0.88918 0.09373 0.09017 0.0
C2194 C 0.88503 0.08839 0.10204 0.0
C2195 C 0.89938 0.10284 0.08986 0.0
C2196 C 0.90535 0.10725 0.10148 0.0
C2197 C 0.90166 0.10133 0.11325 0.0
C2198 C 0.89191 0.09177 0.11345 0.0
C2199 C 0.91468 0.11853 0.10142 0.0
C2200 C 0.91327 0.12851 0.09224 0.0
C2201 C 0.92159 0.13954 0.09213 0.0
C2202 C 0.93077 0.14099 0.10239 0.0
C2203 C 0.93158 0.13157 0.11227 0.0
C2204 C 0.92416 0.12006 0.1112 0.0
C2205 C 0.93866 0.13419 0.12466 0.0
C2206 C 0.9518 0.13831 0.12499 0.0
C2207 C 0.93202 0.13226 0.13646 0.0
C2208 C 0.93835 0.13415 0.14832 0.0
C2209 C 0.95161 0.13788 0.14882 0.0
C2210 C 0.91959 0.14981 0.0819 0.0
C2211 C 0.91326 0.14661 0.07004 0.0
C2212 C 0.92316 0.16298 0.08401 0.0
C2213 C 0.91974 0.17263 0.07501 0.0
C2214 C 0.91201 0.16955 0.06401 0.0
C2215 C 0.90916 0.15632 0.06151 0.0
C2216 C 0.95828 0.13997 0.13698 0.0
H2217 H 0.88426 0.09123 0.08113 0.0
H2218 H 0.90227 0.10668 0.08051 0.0
H2219 H 0.90587 0.10434 0.12248 0.0
H2220 H 0.88956 0.0873 0.12267 0.0
H2221 H 0.90509 0.12797 0.08558 0.0
H2222 H 0.92548 0.11254 0.11844 0.0
H2223 H 0.93693 0.14958 0.10313 0.0
H2224 H 0.95713 0.13983 0.11601 0.0
H2225 H 0.9218 0.12934 0.13652 0.0
H2226 H 0.93275 0.13275 0.15717 0.0
H2227 H 0.91105 0.1366 0.06736 0.0
H2228 H 0.92822 0.16609 0.09275 0.0
H2229 H 0.96856 0.14258 0.13692 0.0
H2230 H 0.90341 0.15337 0.05311 0.0
H2231 H 0.92299 0.18254 0.0769 0.0
C2232 C 0.11496 0.12428 0.41946 0.0
C2233 C 0.10295 0.12815 0.42493 0.0
C2234 C 0.11535 0.11479 0.40965 0.0
C2235 C 0.10372 0.10902 0.40502 0.0
C2236 C 0.0917 0.11275 0.41062 0.0
C2237 C 0.09132 0.12227 0.42046 0.0
C2238 C 0.10414 0.09986 0.39375 0.0
C2239 C 0.1144 0.0909 0.39242 0.0
C2240 C 0.11613 0.08368 0.38084 0.0
C2241 C 0.10657 0.08458 0.37095 0.0
C2242 C 0.0958 0.09313 0.37238 0.0
C2243 C 0.09495 0.10094 0.38371 0.0
C2244 C 0.08589 0.09496 0.36186 0.0
C2245 C 0.08945 0.09444 0.3486 0.0
C2246 C 0.07293 0.0985 0.36509 0.0
C2247 C 0.06416 0.10249 0.35551 0.0
C2248 C 0.06796 0.10258 0.34242 0.0
C2249 C 0.12854 0.07625 0.37887 0.0
C2250 C 0.14038 0.08137 0.38386 0.0
C2251 C 0.12888 0.0643 0.37192 0.0
C2252 C 0.14079 0.05768 0.37007 0.0
C2253 C 0.15246 0.06296 0.37509 0.0
C2254 C 0.15215 0.07476 0.38206 0.0
C2255 C 0.08051 0.09813 0.33896 0.0
H2256 H 0.12405 0.12894 0.42241 0.0
H2257 H 0.12474 0.1124 0.40532 0.0
H2258 H 0.08258 0.1084 0.40732 0.0
H2259 H 0.08192 0.12511 0.42451 0.0
H2260 H 0.12132 0.08984 0.40035 0.0
H2261 H 0.08746 0.10841 0.38447 0.0
H2262 H 0.10772 0.07894 0.36206 0.0
H2263 H 0.09931 0.09186 0.34568 0.0
H2264 H 0.06962 0.09857 0.37511 0.0
H2265 H 0.05444 0.10569 0.35835 0.0
H2266 H 0.14066 0.0907 0.38895 0.0
H2267 H 0.11997 0.06003 0.368 0.0
H2268 H 0.08359 0.09812 0.32886 0.0
H2269 H 0.16111 0.07898 0.38597 0.0
H2270 H 0.14091 0.04855 0.36462 0.0
C2271 C 0.09175 0.92378 0.6299 0.0
C2272 C 0.09046 0.91296 0.63819 0.0
C2273 C 0.10128 0.92383 0.62011 0.0
C2274 C 0.10947 0.91295 0.61828 0.0
C2275 C 0.10812 0.90211 0.62642 0.0
C2276 C 0.09888 0.9022 0.63639 0.0
C2277 C 0.12012 0.91313 0.60856 0.0
C2278 C 0.12955 0.92303 0.60902 0.0
C2279 C 0.14075 0.92257 0.60102 0.0
C2280 C 0.14233 0.91172 0.59247 0.0
C2281 C 0.13298 0.90153 0.59216 0.0
C2282 C 0.12175 0.90257 0.6 0.0
C2283 C 0.13532 0.88911 0.58481 0.0
C2284 C 0.14046 0.88899 0.57208 0.0
C2285 C 0.13232 0.8771 0.59072 0.0
C2286 C 0.13434 0.86532 0.58414 0.0
C2287 C 0.13947 0.86518 0.57151 0.0
C2288 C 0.15118 0.93277 0.60281 0.0
C2289 C 0.14782 0.94549 0.60714 0.0
C2290 C 0.16459 0.92966 0.60155 0.0
C2291 C 0.17427 0.93871 0.60526 0.0
C2292 C 0.17073 0.95091 0.61053 0.0
C2293 C 0.15747 0.95433 0.61119 0.0
C2294 C 0.14244 0.87708 0.56543 0.0
H2295 H 0.08542 0.93222 0.631 0.0
H2296 H 0.10224 0.93233 0.61396 0.0
H2297 H 0.11457 0.89375 0.62538 0.0
H2298 H 0.09863 0.89395 0.64292 0.0
H2299 H 0.12846 0.93066 0.61634 0.0
H2300 H 0.11439 0.89491 0.59978 0.0
H2301 H 0.151 0.91093 0.58645 0.0
H2302 H 0.14281 0.89807 0.56725 0.0
H2303 H 0.12859 0.87676 0.60059 0.0
H2304 H 0.13197 0.85624 0.58898 0.0
H2305 H 0.13769 0.94856 0.60778 0.0
H2306 H 0.16769 0.92003 0.59837 0.0
H2307 H 0.14644 0.87714 0.55566 0.0
H2308 H 0.15456 0.96379 0.61505 0.0
H2309 H 0.1845 0.93593 0.60463 0.0
C2310 C 0.42651 0.89088 0.91958 0.0
C2311 C 0.41465 0.88526 0.92369 0.0
C2312 C 0.42657 0.90045 0.90992 0.0
C2313 C 0.41475 0.90456 0.90422 0.0
C2314 C 0.40291 0.89895 0.90842 0.0
C2315 C 0.40287 0.88939 0.91799 0.0
C2316 C 0.41462 0.91397 0.8933 0.0
C2317 C 0.42358 0.91275 0.88309 0.0
C2318 C 0.42217 0.92016 0.87176 0.0
C2319 C 0.41121 0.92852 0.87049 0.0
C2320 C 0.40208 0.93012 0.88081 0.0
C2321 C 0.40457 0.92324 0.89243 0.0
C2322 C 0.38953 0.93793 0.87934 0.0
C2323 C 0.38734 0.94649 0.86878 0.0
C2324 C 0.37911 0.93639 0.8883 0.0
C2325 C 0.36719 0.94275 0.88669 0.0
C2326 C 0.36468 0.95019 0.8756 0.0
C2327 C 0.43153 0.91789 0.86087 0.0
C2328 C 0.44505 0.91678 0.86331 0.0
C2329 C 0.4269 0.91533 0.84825 0.0
C2330 C 0.43546 0.91108 0.83847 0.0
C2331 C 0.44907 0.90992 0.8408 0.0
C2332 C 0.45372 0.91303 0.85339 0.0
C2333 C 0.37503 0.95239 0.86685 0.0
H2334 H 0.43575 0.88781 0.92377 0.0
H2335 H 0.43584 0.90459 0.90689 0.0
H2336 H 0.39366 0.90161 0.90396 0.0
H2337 H 0.39361 0.88491 0.92059 0.0
H2338 H 0.43127 0.90545 0.88363 0.0
H2339 H 0.39862 0.92467 0.90099 0.0
H2340 H 0.40986 0.93348 0.86135 0.0
H2341 H 0.39493 0.94852 0.86176 0.0
H2342 H 0.3796 0.92991 0.89649 0.0
H2343 H 0.35967 0.94134 0.89399 0.0
H2344 H 0.44893 0.9187 0.87298 0.0
H2345 H 0.4165 0.91576 0.84614 0.0
H2346 H 0.37349 0.9583 0.85828 0.0
H2347 H 0.46406 0.91248 0.8557 0.0
H2348 H 0.43114 0.90808 0.82931 0.0
C2349 C 0.41687 0.11947 0.13136 0.0
C2350 C 0.42575 0.10904 0.1327 0.0
C2351 C 0.40743 0.11925 0.12156 0.0
C2352 C 0.40634 0.10841 0.11318 0.0
C2353 C 0.41494 0.09782 0.11461 0.0
C2354 C 0.42467 0.09819 0.12421 0.0
C2355 C 0.39561 0.10796 0.10359 0.0
C2356 C 0.39416 0.11806 0.09468 0.0
C2357 C 0.38272 0.11919 0.08712 0.0
C2358 C 0.37324 0.10911 0.08778 0.0
C2359 C 0.37482 0.0985 0.09642 0.0
C2360 C 0.386 0.09834 0.10448 0.0
C2361 C 0.36456 0.0881 0.098 0.0
C2362 C 0.35123 0.09041 0.0952 0.0
C2363 C 0.36797 0.07585 0.1032 0.0
C2364 C 0.35838 0.06691 0.10684 0.0
C2365 C 0.34503 0.06943 0.10458 0.0
C2366 C 0.38046 0.13139 0.07946 0.0
C2367 C 0.38605 0.14333 0.08372 0.0
C2368 C 0.37256 0.13147 0.06816 0.0
C2369 C 0.37031 0.14316 0.06145 0.0
C2370 C 0.37617 0.15484 0.06574 0.0
C2371 C 0.38412 0.15481 0.07681 0.0
C2372 C 0.34166 0.08105 0.09811 0.0
H2373 H 0.41693 0.12768 0.13809 0.0
H2374 H 0.40064 0.12737 0.12081 0.0
H2375 H 0.41413 0.08931 0.10828 0.0
H2376 H 0.43131 0.08998 0.12502 0.0
H2377 H 0.40194 0.12525 0.09403 0.0
H2378 H 0.38705 0.09114 0.11207 0.0
H2379 H 0.36453 0.10973 0.08185 0.0
H2380 H 0.34798 0.09955 0.09111 0.0
H2381 H 0.37808 0.07315 0.10485 0.0
H2382 H 0.36155 0.05813 0.11173 0.0
H2383 H 0.3917 0.14404 0.09261 0.0
H2384 H 0.36817 0.12257 0.0644 0.0
H2385 H 0.33163 0.08309 0.09542 0.0
H2386 H 0.38859 0.16379 0.08034 0.0
H2387 H 0.36411 0.14306 0.05287 0.0
C2388 C 0.11096 0.89076 0.09709 0.0
C2389 C 0.09886 0.88582 0.09271 0.0
C2390 C 0.11143 0.90079 0.10636 0.0
C2391 C 0.09979 0.90624 0.11134 0.0
C2392 C 0.08769 0.90172 0.10651 0.0
C2393 C 0.08723 0.89152 0.0974 0.0
C2394 C 0.10033 0.91559 0.12245 0.0
C2395 C 0.11014 0.92511 0.12319 0.0
C2396 C 0.11258 0.93223 0.13481 0.0
C2397 C 0.1034 0.93087 0.14511 0.0
C2398 C 0.09274 0.92205 0.14408 0.0
C2399 C 0.09179 0.91409 0.13292 0.0
C2400 C 0.08302 0.92011 0.15481 0.0
C2401 C 0.08653 0.92156 0.16799 0.0
C2402 C 0.07024 0.91567 0.15186 0.0
C2403 C 0.06185 0.9114 0.16164 0.0
C2404 C 0.06566 0.91205 0.17477 0.0
C2405 C 0.12513 0.94005 0.13632 0.0
C2406 C 0.13554 0.93837 0.12734 0.0
C2407 C 0.1274 0.94858 0.14704 0.0
C2408 C 0.13976 0.95434 0.1491 0.0
C2409 C 0.15008 0.95196 0.14036 0.0
C2410 C 0.14756 0.94452 0.12914 0.0
C2411 C 0.07784 0.91785 0.17785 0.0
H2412 H 0.12009 0.88664 0.09357 0.0
H2413 H 0.12091 0.9039 0.11001 0.0
H2414 H 0.07856 0.9058 0.11008 0.0
H2415 H 0.07774 0.88777 0.09445 0.0
H2416 H 0.11593 0.92657 0.11455 0.0
H2417 H 0.08469 0.90622 0.13254 0.0
H2418 H 0.10451 0.93644 0.154 0.0
H2419 H 0.09615 0.92504 0.1708 0.0
H2420 H 0.06681 0.91501 0.14189 0.0
H2421 H 0.05253 0.90716 0.1588 0.0
H2422 H 0.13497 0.93192 0.11901 0.0
H2423 H 0.11986 0.95074 0.1541 0.0
H2424 H 0.08085 0.91925 0.18787 0.0
H2425 H 0.15513 0.94297 0.12189 0.0
H2426 H 0.14134 0.96028 0.15775 0.0
C2427 C 0.4213 0.8993 0.3874 0.0
C2428 C 0.42694 0.91138 0.38414 0.0
C2429 C 0.41208 0.89853 0.39737 0.0
C2430 C 0.4083 0.90984 0.40426 0.0
C2431 C 0.41436 0.92183 0.40138 0.0
C2432 C 0.42364 0.92258 0.39145 0.0
C2433 C 0.39722 0.90933 0.41353 0.0
C2434 C 0.39577 0.89885 0.42207 0.0
C2435 C 0.38433 0.89744 0.42959 0.0
C2436 C 0.37467 0.90731 0.42907 0.0
C2437 C 0.37621 0.91814 0.4208 0.0
C2438 C 0.38742 0.91883 0.41292 0.0
C2439 C 0.36586 0.92832 0.41934 0.0
C2440 C 0.35245 0.92503 0.41968 0.0
C2441 C 0.36941 0.94126 0.41624 0.0
C2442 C 0.35994 0.95031 0.41253 0.0
C2443 C 0.3467 0.94677 0.41229 0.0
C2444 C 0.3822 0.88518 0.43711 0.0
C2445 C 0.38696 0.87316 0.43222 0.0
C2446 C 0.37505 0.88519 0.44886 0.0
C2447 C 0.37251 0.87344 0.45534 0.0
C2448 C 0.37715 0.86156 0.45022 0.0
C2449 C 0.38452 0.86153 0.43874 0.0
C2450 C 0.34294 0.93424 0.41626 0.0
H2451 H 0.42364 0.89051 0.3819 0.0
H2452 H 0.40747 0.88919 0.39925 0.0
H2453 H 0.41176 0.93066 0.40669 0.0
H2454 H 0.42814 0.93194 0.38942 0.0
H2455 H 0.40354 0.89166 0.42265 0.0
H2456 H 0.38826 0.92648 0.40574 0.0
H2457 H 0.36582 0.9064 0.43479 0.0
H2458 H 0.34931 0.91519 0.42191 0.0
H2459 H 0.37958 0.94433 0.41629 0.0
H2460 H 0.36297 0.96002 0.40964 0.0
H2461 H 0.39218 0.87258 0.42306 0.0
H2462 H 0.37135 0.89422 0.45303 0.0
H2463 H 0.3327 0.93142 0.41616 0.0
H2464 H 0.38803 0.8524 0.43458 0.0
H2465 H 0.36667 0.87359 0.46415 0.0
C2466 C 0.42511 0.12373 0.59622 0.0
C2467 C 0.41352 0.12983 0.59218 0.0
C2468 C 0.42472 0.11418 0.60585 0.0
C2469 C 0.41275 0.11077 0.61173 0.0
C2470 C 0.40111 0.11658 0.60726 0.0
C2471 C 0.4015 0.12601 0.59753 0.0
C2472 C 0.41253 0.10216 0.6233 0.0
C2473 C 0.42191 0.10382 0.63311 0.0
C2474 C 0.42164 0.09639 0.64458 0.0
C2475 C 0.41093 0.08775 0.64646 0.0
C2476 C 0.40097 0.08643 0.6369 0.0
C2477 C 0.40236 0.0932 0.62512 0.0
C2478 C 0.38861 0.07883 0.63926 0.0
C2479 C 0.38842 0.06741 0.64684 0.0
C2480 C 0.37668 0.08317 0.63384 0.0
C2481 C 0.36506 0.07623 0.63564 0.0
C2482 C 0.36485 0.0649 0.64321 0.0
C2483 C 0.43215 0.09867 0.65469 0.0
C2484 C 0.44448 0.10371 0.65101 0.0
C2485 C 0.42982 0.09689 0.66809 0.0
C2486 C 0.43924 0.1006 0.6774 0.0
C2487 C 0.4511 0.10662 0.67367 0.0
C2488 C 0.4535 0.10809 0.66029 0.0
C2489 C 0.37664 0.06055 0.64884 0.0
H2490 H 0.43448 0.12667 0.59222 0.0
H2491 H 0.43383 0.10977 0.60897 0.0
H2492 H 0.39176 0.11434 0.61173 0.0
H2493 H 0.39249 0.1308 0.59464 0.0
H2494 H 0.42908 0.11152 0.63195 0.0
H2495 H 0.3953 0.09177 0.61734 0.0
H2496 H 0.41013 0.08233 0.65541 0.0
H2497 H 0.39735 0.06366 0.65111 0.0
H2498 H 0.37616 0.09215 0.62837 0.0
H2499 H 0.3561 0.07997 0.6314 0.0
H2500 H 0.44716 0.10473 0.64088 0.0
H2501 H 0.42057 0.09307 0.67152 0.0
H2502 H 0.37676 0.0518 0.65471 0.0
H2503 H 0.46216 0.11306 0.65681 0.0
H2504 H 0.43705 0.09901 0.68758 0.0
C2505 C 0.09392 0.08942 0.88623 0.0
C2506 C 0.08986 0.10102 0.88025 0.0
C2507 C 0.10327 0.0898 0.89619 0.0
C2508 C 0.10887 0.10178 0.90021 0.0
C2509 C 0.10463 0.11338 0.89428 0.0
C2510 C 0.09522 0.11299 0.88443 0.0
C2511 C 0.11982 0.10215 0.90978 0.0
C2512 C 0.12958 0.09255 0.90933 0.0
C2513 C 0.14072 0.09332 0.91737 0.0
C2514 C 0.14223 0.10426 0.92573 0.0
C2515 C 0.13261 0.11415 0.92611 0.0
C2516 C 0.12125 0.11269 0.91848 0.0
C2517 C 0.1348 0.12667 0.93332 0.0
C2518 C 0.14032 0.12704 0.94589 0.0
C2519 C 0.1314 0.13854 0.92736 0.0
C2520 C 0.13342 0.15043 0.93375 0.0
C2521 C 0.13898 0.15086 0.94623 0.0
C2522 C 0.15112 0.08318 0.91582 0.0
C2523 C 0.1476 0.07012 0.91305 0.0
C2524 C 0.16447 0.08663 0.91556 0.0
C2525 C 0.17393 0.07745 0.91171 0.0
C2526 C 0.17019 0.06473 0.90793 0.0
C2527 C 0.157 0.06104 0.90906 0.0
C2528 C 0.14234 0.13906 0.95234 0.0
H2529 H 0.08985 0.08008 0.88321 0.0
H2530 H 0.10619 0.0807 0.90066 0.0
H2531 H 0.10892 0.12274 0.89686 0.0
H2532 H 0.09241 0.12205 0.8798 0.0
H2533 H 0.12887 0.08479 0.9021 0.0
H2534 H 0.11362 0.12005 0.91904 0.0
H2535 H 0.15103 0.10529 0.93156 0.0
H2536 H 0.14299 0.11807 0.95075 0.0
H2537 H 0.12738 0.13868 0.9176 0.0
H2538 H 0.13069 0.15938 0.92885 0.0
H2539 H 0.13746 0.06699 0.91354 0.0
H2540 H 0.16756 0.09658 0.91758 0.0
H2541 H 0.14672 0.13916 0.96195 0.0
H2542 H 0.15391 0.05118 0.9066 0.0
H2543 H 0.18408 0.08049 0.91103 0.0
C2544 C 0.92191 0.39898 0.88811 0.0
C2545 C 0.9265 0.41099 0.88338 0.0
C2546 C 0.91322 0.39863 0.89858 0.0
C2547 C 0.90914 0.41028 0.90472 0.0
C2548 C 0.9145 0.42223 0.90057 0.0
C2549 C 0.92306 0.42258 0.88997 0.0
C2550 C 0.89833 0.41003 0.91438 0.0
C2551 C 0.89719 0.39981 0.92329 0.0
C2552 C 0.8857 0.39812 0.93074 0.0
C2553 C 0.87581 0.40777 0.93002 0.0
C2554 C 0.87721 0.41858 0.92168 0.0
C2555 C 0.88833 0.41933 0.91369 0.0
C2556 C 0.8668 0.42869 0.9202 0.0
C2557 C 0.85342 0.42531 0.92008 0.0
C2558 C 0.87036 0.44169 0.91741 0.0
C2559 C 0.86097 0.45072 0.91346 0.0
C2560 C 0.84776 0.44707 0.91251 0.0
C2561 C 0.88378 0.38573 0.93824 0.0
C2562 C 0.88979 0.37407 0.9339 0.0
C2563 C 0.87563 0.38513 0.94932 0.0
C2564 C 0.87321 0.37315 0.9555 0.0
C2565 C 0.87915 0.36156 0.95094 0.0
C2566 C 0.88776 0.36232 0.94031 0.0
C2567 C 0.84396 0.43448 0.91635 0.0
H2568 H 0.92476 0.38984 0.8835 0.0
H2569 H 0.90925 0.38926 0.90144 0.0
H2570 H 0.91174 0.43136 0.90525 0.0
H2571 H 0.92658 0.43197 0.88662 0.0
H2572 H 0.90525 0.393 0.92413 0.0
H2573 H 0.8889 0.42685 0.90636 0.0
H2574 H 0.86691 0.40677 0.93563 0.0
H2575 H 0.8503 0.41542 0.92213 0.0
H2576 H 0.88051 0.4448 0.91781 0.0
H2577 H 0.86408 0.46048 0.91082 0.0
H2578 H 0.8958 0.37375 0.92523 0.0
H2579 H 0.87094 0.39384 0.95315 0.0
H2580 H 0.83377 0.43152 0.91576 0.0
H2581 H 0.89267 0.35366 0.93661 0.0
H2582 H 0.86636 0.37295 0.96355 0.0
C2583 C 0.92469 0.62379 0.09639 0.0
C2584 C 0.91302 0.63042 0.09344 0.0
C2585 C 0.92482 0.6142 0.10604 0.0
C2586 C 0.91327 0.61109 0.11283 0.0
C2587 C 0.90154 0.61742 0.10949 0.0
C2588 C 0.90142 0.62695 0.0999 0.0
C2589 C 0.91347 0.60205 0.12405 0.0
C2590 C 0.92315 0.6033 0.13365 0.0
C2591 C 0.92271 0.59588 0.14515 0.0
C2592 C 0.91195 0.58731 0.14701 0.0
C2593 C 0.9019 0.58628 0.13757 0.0
C2594 C 0.90313 0.59329 0.12594 0.0
C2595 C 0.88945 0.579 0.14002 0.0
C2596 C 0.88928 0.56659 0.14585 0.0
C2597 C 0.87745 0.58456 0.1362 0.0
C2598 C 0.86568 0.57788 0.13785 0.0
C2599 C 0.86542 0.56538 0.14342 0.0
C2600 C 0.93294 0.59822 0.15546 0.0
C2601 C 0.94561 0.60258 0.15201 0.0
C2602 C 0.92993 0.59727 0.16882 0.0
C2603 C 0.93904 0.60116 0.17834 0.0
C2604 C 0.95128 0.60631 0.17473 0.0
C2605 C 0.95453 0.6068 0.16149 0.0
C2606 C 0.87738 0.55982 0.14747 0.0
H2607 H 0.9338 0.6264 0.09165 0.0
H2608 H 0.93399 0.60942 0.1084 0.0
H2609 H 0.89252 0.61541 0.11466 0.0
H2610 H 0.89229 0.63191 0.09778 0.0
H2611 H 0.9306 0.61073 0.13241 0.0
H2612 H 0.8957 0.59228 0.11844 0.0
H2613 H 0.91111 0.58178 0.1559 0.0
H2614 H 0.89834 0.562 0.14885 0.0
H2615 H 0.8771 0.59425 0.13202 0.0
H2616 H 0.85668 0.58265 0.1349 0.0
H2617 H 0.94864 0.60298 0.14193 0.0
H2618 H 0.92034 0.5941 0.17202 0.0
H2619 H 0.87761 0.55013 0.15164 0.0
H2620 H 0.964 0.61049 0.15847 0.0
H2621 H 0.9363 0.60068 0.18851 0.0
C2622 C 0.5942 0.58979 0.38708 0.0
C2623 C 0.58996 0.60122 0.38086 0.0
C2624 C 0.60339 0.59046 0.39713 0.0
C2625 C 0.60888 0.60253 0.40093 0.0
C2626 C 0.60448 0.61398 0.39486 0.0
C2627 C 0.59505 0.61334 0.38502 0.0
C2628 C 0.61994 0.60306 0.41034 0.0
C2629 C 0.62975 0.59352 0.40979 0.0
C2630 C 0.64088 0.59423 0.41784 0.0
C2631 C 0.64239 0.60515 0.42622 0.0
C2632 C 0.6328 0.61507 0.42658 0.0
C2633 C 0.62139 0.61361 0.419 0.0
C2634 C 0.63508 0.62761 0.43373 0.0
C2635 C 0.64101 0.62802 0.44612 0.0
C2636 C 0.63146 0.63944 0.42785 0.0
C2637 C 0.63361 0.65135 0.43415 0.0
C2638 C 0.63961 0.65182 0.44643 0.0
C2639 C 0.65124 0.58406 0.41631 0.0
C2640 C 0.64769 0.57113 0.41295 0.0
C2641 C 0.66464 0.58737 0.41668 0.0
C2642 C 0.67413 0.57823 0.41285 0.0
C2643 C 0.67035 0.56577 0.40839 0.0
C2644 C 0.65712 0.56216 0.40884 0.0
C2645 C 0.64322 0.64006 0.45245 0.0
H2646 H 0.59076 0.58025 0.38393 0.0
H2647 H 0.60646 0.58145 0.4017 0.0
H2648 H 0.60863 0.62344 0.39737 0.0
H2649 H 0.59191 0.62235 0.38051 0.0
H2650 H 0.62905 0.58585 0.40248 0.0
H2651 H 0.61375 0.62095 0.41959 0.0
H2652 H 0.65117 0.60616 0.43208 0.0
H2653 H 0.64387 0.61908 0.45092 0.0
H2654 H 0.62715 0.63957 0.41821 0.0
H2655 H 0.63066 0.66027 0.42933 0.0
H2656 H 0.63753 0.56804 0.41302 0.0
H2657 H 0.66778 0.59719 0.41918 0.0
H2658 H 0.64795 0.64018 0.4619 0.0
H2659 H 0.65405 0.55247 0.40574 0.0
H2660 H 0.68435 0.58114 0.41268 0.0
C2661 C 0.92519 0.3922 0.41987 0.0
C2662 C 0.91355 0.38558 0.42303 0.0
C2663 C 0.92526 0.4016 0.41007 0.0
C2664 C 0.91368 0.40455 0.40328 0.0
C2665 C 0.90206 0.39793 0.40649 0.0
C2666 C 0.90202 0.38852 0.41619 0.0
C2667 C 0.91371 0.41384 0.39229 0.0
C2668 C 0.92357 0.41324 0.38283 0.0
C2669 C 0.92259 0.42054 0.37134 0.0
C2670 C 0.91157 0.4286 0.36939 0.0
C2671 C 0.90167 0.42936 0.37891 0.0
C2672 C 0.90306 0.42224 0.39045 0.0
C2673 C 0.88916 0.43632 0.37651 0.0
C2674 C 0.88882 0.44916 0.37172 0.0
C2675 C 0.8773 0.43001 0.37941 0.0
C2676 C 0.8654 0.43645 0.378 0.0
C2677 C 0.86499 0.44947 0.37378 0.0
C2678 C 0.93236 0.41822 0.36089 0.0
C2679 C 0.94579 0.41775 0.36388 0.0
C2680 C 0.92824 0.41482 0.34827 0.0
C2681 C 0.93725 0.41011 0.33912 0.0
C2682 C 0.95066 0.40895 0.34227 0.0
C2683 C 0.95486 0.41342 0.35461 0.0
C2684 C 0.87679 0.4557 0.37038 0.0
H2685 H 0.93425 0.39006 0.42495 0.0
H2686 H 0.93436 0.40654 0.40778 0.0
H2687 H 0.89306 0.39968 0.40118 0.0
H2688 H 0.89301 0.38323 0.41802 0.0
H2689 H 0.93158 0.40638 0.38397 0.0
H2690 H 0.89551 0.42287 0.39786 0.0
H2691 H 0.91046 0.43382 0.36032 0.0
H2692 H 0.89783 0.45422 0.36935 0.0
H2693 H 0.8772 0.41998 0.38275 0.0
H2694 H 0.85646 0.43116 0.38015 0.0
H2695 H 0.94925 0.42052 0.37351 0.0
H2696 H 0.91793 0.41499 0.34573 0.0
H2697 H 0.87674 0.46569 0.36694 0.0
H2698 H 0.96513 0.41348 0.35723 0.0
H2699 H 0.93355 0.40682 0.32976 0.0
C2700 C 0.6144 0.62362 0.91956 0.0
C2701 C 0.60258 0.62866 0.92446 0.0
C2702 C 0.61434 0.61377 0.91012 0.0
C2703 C 0.60244 0.60854 0.90548 0.0
C2704 C 0.5906 0.6132 0.91077 0.0
C2705 C 0.59066 0.62323 0.92014 0.0
C2706 C 0.6026 0.59913 0.89438 0.0
C2707 C 0.61268 0.58992 0.8933 0.0
C2708 C 0.61517 0.58331 0.88148 0.0
C2709 C 0.60612 0.58473 0.87118 0.0
C2710 C 0.59518 0.59305 0.87256 0.0
C2711 C 0.59375 0.60046 0.88407 0.0
C2712 C 0.58569 0.59504 0.86178 0.0
C2713 C 0.58995 0.5963 0.84883 0.0
C2714 C 0.57232 0.59688 0.86461 0.0
C2715 C 0.56356 0.60056 0.8549 0.0
C2716 C 0.56789 0.60222 0.84204 0.0
C2717 C 0.62789 0.57621 0.87969 0.0
C2718 C 0.63904 0.58032 0.88676 0.0
C2719 C 0.62936 0.56583 0.87065 0.0
C2720 C 0.64171 0.56019 0.8684 0.0
C2721 C 0.65278 0.56471 0.87527 0.0
C2722 C 0.65113 0.57439 0.88487 0.0
C2723 C 0.58112 0.59987 0.83905 0.0
H2724 H 0.62373 0.62757 0.92275 0.0
H2725 H 0.62365 0.61065 0.90609 0.0
H2726 H 0.58128 0.60933 0.90745 0.0
H2727 H 0.58139 0.62708 0.92359 0.0
H2728 H 0.61896 0.58839 0.90165 0.0
H2729 H 0.58614 0.60782 0.8847 0.0
H2730 H 0.6077 0.5797 0.862 0.0
H2731 H 0.6002 0.59509 0.84633 0.0
H2732 H 0.56867 0.59584 0.87446 0.0
H2733 H 0.55347 0.60252 0.85756 0.0
H2734 H 0.63871 0.58846 0.89356 0.0
H2735 H 0.62105 0.56213 0.86517 0.0
H2736 H 0.58469 0.60105 0.82919 0.0
H2737 H 0.65934 0.57774 0.89072 0.0
H2738 H 0.64267 0.55257 0.86106 0.0
C2739 C 0.85441 0.63112 0.85182 0.0
C2740 C 0.84154 0.63392 0.85582 0.0
C2741 C 0.86388 0.64092 0.85153 0.0
C2742 C 0.8608 0.65379 0.85537 0.0
C2743 C 0.84795 0.65671 0.8593 0.0
C2744 C 0.83835 0.6469 0.85934 0.0
C2745 C 0.87126 0.66385 0.85542 0.0
C2746 C 0.87998 0.6643 0.84499 0.0
C2747 C 0.89202 0.67093 0.84598 0.0
C2748 C 0.89408 0.67914 0.85698 0.0
C2749 C 0.88466 0.67995 0.86709 0.0
C2750 C 0.87351 0.67179 0.86635 0.0
C2751 C 0.88665 0.68847 0.87891 0.0
C2752 C 0.89928 0.69117 0.88389 0.0
C2753 C 0.87573 0.69334 0.88584 0.0
C2754 C 0.87731 0.69968 0.89784 0.0
C2755 C 0.88984 0.70176 0.90305 0.0
C2756 C 0.90252 0.66822 0.836 0.0
C2757 C 0.90213 0.65653 0.82856 0.0
C2758 C 0.91324 0.67671 0.83406 0.0
C2759 C 0.92321 0.67347 0.82517 0.0
C2760 C 0.92247 0.66192 0.8176 0.0
C2761 C 0.91164 0.65368 0.81929 0.0
C2762 C 0.90084 0.69784 0.89579 0.0
H2763 H 0.85731 0.62125 0.84922 0.0
H2764 H 0.87376 0.63832 0.84863 0.0
H2765 H 0.84531 0.66658 0.86218 0.0
H2766 H 0.82844 0.64954 0.86205 0.0
H2767 H 0.87742 0.65886 0.83627 0.0
H2768 H 0.86685 0.6711 0.87452 0.0
H2769 H 0.90303 0.68472 0.85782 0.0
H2770 H 0.90798 0.68757 0.87903 0.0
H2771 H 0.86586 0.69199 0.88219 0.0
H2772 H 0.86867 0.70271 0.90323 0.0
H2773 H 0.89468 0.64915 0.82994 0.0
H2774 H 0.9141 0.68583 0.8394 0.0
H2775 H 0.91063 0.69923 0.89969 0.0
H2776 H 0.91056 0.64477 0.81359 0.0
H2777 H 0.93159 0.67992 0.82446 0.0
C2778 C 0.17762 0.1485 0.66319 0.0
C2779 C 0.17432 0.13513 0.66402 0.0
C2780 C 0.1678 0.15802 0.66192 0.0
C2781 C 0.15455 0.15432 0.66181 0.0
C2782 C 0.15127 0.14103 0.66254 0.0
C2783 C 0.161 0.13157 0.6635 0.0
C2784 C 0.14388 0.16408 0.66169 0.0
C2785 C 0.14213 0.17254 0.65119 0.0
C2786 C 0.13072 0.18035 0.65019 0.0
C2787 C 0.12095 0.17913 0.65994 0.0
C2788 C 0.12254 0.17032 0.67031 0.0
C2789 C 0.13435 0.16346 0.67139 0.0
C2790 C 0.11159 0.16695 0.6793 0.0
C2791 C 0.10291 0.17645 0.68429 0.0
C2792 C 0.10986 0.15382 0.68302 0.0
C2793 C 0.10001 0.15031 0.69166 0.0
C2794 C 0.09139 0.15974 0.69666 0.0
C2795 C 0.12861 0.18867 0.63836 0.0
C2796 C 0.13938 0.1935 0.63123 0.0
C2797 C 0.11589 0.19108 0.63349 0.0
C2798 C 0.11409 0.19747 0.62161 0.0
C2799 C 0.12492 0.20145 0.61425 0.0
C2800 C 0.13755 0.19962 0.61923 0.0
C2801 C 0.09292 0.17287 0.69299 0.0
H2802 H 0.18772 0.15168 0.66387 0.0
H2803 H 0.17051 0.16825 0.66147 0.0
H2804 H 0.1411 0.13794 0.66236 0.0
H2805 H 0.15804 0.1214 0.6638 0.0
H2806 H 0.14933 0.17235 0.64345 0.0
H2807 H 0.13592 0.15695 0.67952 0.0
H2808 H 0.11192 0.18463 0.6593 0.0
H2809 H 0.10397 0.18663 0.68166 0.0
H2810 H 0.11607 0.14612 0.67916 0.0
H2811 H 0.0991 0.14015 0.69445 0.0
H2812 H 0.14933 0.19234 0.63471 0.0
H2813 H 0.10727 0.18746 0.63839 0.0
H2814 H 0.08636 0.18031 0.69679 0.0
H2815 H 0.14604 0.20258 0.61364 0.0
H2816 H 0.10425 0.19867 0.61782 0.0
C2817 C 0.67721 0.36849 0.3601 0.0
C2818 C 0.67412 0.38108 0.35567 0.0
C2819 C 0.66753 0.35872 0.36034 0.0
C2820 C 0.65475 0.36145 0.35602 0.0
C2821 C 0.65185 0.37407 0.35147 0.0
C2822 C 0.66144 0.38369 0.35117 0.0
C2823 C 0.64415 0.3515 0.35619 0.0
C2824 C 0.6417 0.34381 0.36717 0.0
C2825 C 0.63017 0.33617 0.36798 0.0
C2826 C 0.62085 0.33696 0.3578 0.0
C2827 C 0.62313 0.34496 0.34699 0.0
C2828 C 0.63527 0.35118 0.34585 0.0
C2829 C 0.61254 0.34833 0.33762 0.0
C2830 C 0.60299 0.33918 0.33362 0.0
C2831 C 0.61193 0.36115 0.3327 0.0
C2832 C 0.60254 0.36455 0.32356 0.0
C2833 C 0.59326 0.35538 0.31941 0.0
C2834 C 0.62736 0.32842 0.37994 0.0
C2835 C 0.63766 0.32312 0.3874 0.0
C2836 C 0.61438 0.3268 0.38442 0.0
C2837 C 0.61185 0.32055 0.39617 0.0
C2838 C 0.6222 0.31589 0.40377 0.0
C2839 C 0.6351 0.31701 0.39926 0.0
C2840 C 0.59333 0.34274 0.3246 0.0
H2841 H 0.68695 0.36635 0.36368 0.0
H2842 H 0.67002 0.34909 0.36387 0.0
H2843 H 0.64204 0.37663 0.34834 0.0
H2844 H 0.65885 0.39334 0.3477 0.0
H2845 H 0.64838 0.34442 0.37535 0.0
H2846 H 0.63747 0.35669 0.33714 0.0
H2847 H 0.61166 0.33173 0.35844 0.0
H2848 H 0.60311 0.32927 0.33723 0.0
H2849 H 0.61868 0.36869 0.33593 0.0
H2850 H 0.60246 0.37441 0.31977 0.0
H2851 H 0.64775 0.32386 0.38422 0.0
H2852 H 0.60613 0.33091 0.37926 0.0
H2853 H 0.5861 0.33559 0.32149 0.0
H2854 H 0.64321 0.31352 0.4051 0.0
H2855 H 0.60184 0.31985 0.39962 0.0
C2856 C 0.33694 0.87029 0.15387 0.0
C2857 C 0.33969 0.88275 0.15904 0.0
C2858 C 0.34656 0.86051 0.15401 0.0
C2859 C 0.35908 0.86316 0.15919 0.0
C2860 C 0.36166 0.87574 0.16433 0.0
C2861 C 0.35203 0.88536 0.16437 0.0
C2862 C 0.36968 0.85316 0.15898 0.0
C2863 C 0.37155 0.84477 0.14824 0.0
C2864 C 0.38251 0.83631 0.14749 0.0
C2865 C 0.39205 0.83706 0.15752 0.0
C2866 C 0.39046 0.84585 0.168 0.0
C2867 C 0.37885 0.85302 0.16908 0.0
C2868 C 0.40126 0.84916 0.17713 0.0
C2869 C 0.4083 0.83955 0.18387 0.0
C2870 C 0.40396 0.86243 0.17968 0.0
C2871 C 0.41284 0.86608 0.18931 0.0
C2872 C 0.41928 0.85656 0.19667 0.0
C2873 C 0.38435 0.82769 0.13569 0.0
C2874 C 0.37343 0.82355 0.12827 0.0
C2875 C 0.39696 0.82419 0.13117 0.0
C2876 C 0.39856 0.81748 0.11931 0.0
C2877 C 0.38764 0.81433 0.11158 0.0
C2878 C 0.37507 0.81721 0.11628 0.0
C2879 C 0.41729 0.84325 0.19361 0.0
H2880 H 0.32744 0.8682 0.1496 0.0
H2881 H 0.34421 0.85094 0.15005 0.0
H2882 H 0.37128 0.87835 0.16802 0.0
H2883 H 0.35435 0.89502 0.16819 0.0
H2884 H 0.3648 0.84543 0.14014 0.0
H2885 H 0.37737 0.85922 0.17758 0.0
H2886 H 0.40088 0.83122 0.15706 0.0
H2887 H 0.40647 0.82927 0.182 0.0
H2888 H 0.39898 0.87007 0.17436 0.0
H2889 H 0.41457 0.8764 0.1911 0.0
H2890 H 0.36351 0.82544 0.13152 0.0
H2891 H 0.40571 0.82718 0.13635 0.0
H2892 H 0.42233 0.83574 0.19904 0.0
H2893 H 0.36648 0.81478 0.11052 0.0
H2894 H 0.40838 0.81546 0.11582 0.0
C2895 C 0.83675 0.36961 0.65486 0.0
C2896 C 0.83951 0.38195 0.66039 0.0
C2897 C 0.84636 0.35981 0.65464 0.0
C2898 C 0.85889 0.36227 0.65986 0.0
C2899 C 0.86159 0.37474 0.66516 0.0
C2900 C 0.85203 0.3844 0.66548 0.0
C2901 C 0.86942 0.35222 0.65958 0.0
C2902 C 0.87146 0.34414 0.64865 0.0
C2903 C 0.88268 0.33609 0.64772 0.0
C2904 C 0.89224 0.33686 0.65769 0.0
C2905 C 0.89032 0.34511 0.66857 0.0
C2906 C 0.87844 0.35185 0.6698 0.0
C2907 C 0.901 0.34825 0.67799 0.0
C2908 C 0.90955 0.33865 0.68282 0.0
C2909 C 0.90255 0.36129 0.6823 0.0
C2910 C 0.91211 0.36463 0.69136 0.0
C2911 C 0.9206 0.3551 0.6962 0.0
C2912 C 0.88469 0.32783 0.6358 0.0
C2913 C 0.87387 0.32203 0.62944 0.0
C2914 C 0.89719 0.32631 0.63017 0.0
C2915 C 0.89869 0.3199 0.61814 0.0
C2916 C 0.88772 0.31492 0.61143 0.0
C2917 C 0.87537 0.31566 0.61744 0.0
C2918 C 0.91927 0.34205 0.69196 0.0
H2919 H 0.82717 0.36754 0.65077 0.0
H2920 H 0.84396 0.35033 0.65048 0.0
H2921 H 0.87125 0.37721 0.66882 0.0
H2922 H 0.85457 0.39396 0.66937 0.0
H2923 H 0.86468 0.34465 0.64055 0.0
H2924 H 0.87659 0.35759 0.67854 0.0
H2925 H 0.90129 0.33138 0.65683 0.0
H2926 H 0.90862 0.32854 0.6797 0.0
H2927 H 0.89641 0.36905 0.67856 0.0
H2928 H 0.91295 0.37474 0.69454 0.0
H2929 H 0.86415 0.3226 0.63364 0.0
H2930 H 0.90577 0.33066 0.63468 0.0
H2931 H 0.9258 0.33458 0.6956 0.0
H2932 H 0.86678 0.31153 0.61274 0.0
H2933 H 0.90834 0.31945 0.61378 0.0
C2934 C 0.35279 0.13138 0.34889 0.0
C2935 C 0.34082 0.13366 0.35511 0.0
C2936 C 0.36236 0.14108 0.34871 0.0
C2937 C 0.36007 0.15343 0.35451 0.0
C2938 C 0.34789 0.15576 0.36054 0.0
C2939 C 0.33836 0.14588 0.36092 0.0
C2940 C 0.37078 0.16336 0.35476 0.0
C2941 C 0.37969 0.16381 0.34442 0.0
C2942 C 0.39183 0.17022 0.34565 0.0
C2943 C 0.39403 0.17806 0.35686 0.0
C2944 C 0.38444 0.17902 0.36673 0.0
C2945 C 0.37303 0.17131 0.36575 0.0
C2946 C 0.38654 0.18724 0.37861 0.0
C2947 C 0.39855 0.18705 0.38531 0.0
C2948 C 0.37619 0.19473 0.3838 0.0
C2949 C 0.37764 0.20143 0.39566 0.0
C2950 C 0.38935 0.2005 0.40287 0.0
C2951 C 0.40226 0.16774 0.33561 0.0
C2952 C 0.40225 0.1559 0.32837 0.0
C2953 C 0.41245 0.17676 0.33329 0.0
C2954 C 0.42225 0.17397 0.32409 0.0
C2955 C 0.42185 0.16229 0.31678 0.0
C2956 C 0.41172 0.15337 0.31892 0.0
C2957 C 0.39991 0.19352 0.39732 0.0
H2958 H 0.35488 0.12192 0.34449 0.0
H2959 H 0.37172 0.13869 0.34432 0.0
H2960 H 0.34573 0.16514 0.36502 0.0
H2961 H 0.32912 0.14775 0.36579 0.0
H2962 H 0.37727 0.15863 0.33551 0.0
H2963 H 0.36626 0.17104 0.37387 0.0
H2964 H 0.4032 0.18326 0.35808 0.0
H2965 H 0.40671 0.18135 0.3816 0.0
H2966 H 0.3669 0.19532 0.37871 0.0
H2967 H 0.3695 0.20723 0.39919 0.0
H2968 H 0.39514 0.14827 0.33012 0.0
H2969 H 0.4129 0.186 0.33849 0.0
H2970 H 0.40909 0.19253 0.40252 0.0
H2971 H 0.41141 0.14416 0.31359 0.0
H2972 H 0.43011 0.18093 0.32262 0.0
C2973 C 0.67696 0.64779 0.15826 0.0
C2974 C 0.67411 0.63534 0.16324 0.0
C2975 C 0.66724 0.65751 0.15797 0.0
C2976 C 0.65459 0.6549 0.16275 0.0
C2977 C 0.65192 0.64244 0.16784 0.0
C2978 C 0.66155 0.63286 0.16817 0.0
C2979 C 0.6438 0.66468 0.1622 0.0
C2980 C 0.64141 0.67207 0.15103 0.0
C2981 C 0.62978 0.67944 0.14981 0.0
C2982 C 0.62004 0.67829 0.15957 0.0
C2983 C 0.62227 0.67071 0.17081 0.0
C2984 C 0.63478 0.66521 0.17242 0.0
C2985 C 0.61154 0.66727 0.18029 0.0
C2986 C 0.59987 0.6746 0.18147 0.0
C2987 C 0.61267 0.65588 0.1879 0.0
C2988 C 0.6029 0.65223 0.19655 0.0
C2989 C 0.5911 0.6592 0.19738 0.0
C2990 C 0.62763 0.68752 0.13789 0.0
C2991 C 0.63832 0.69355 0.13166 0.0
C2992 C 0.61509 0.68884 0.13227 0.0
C2993 C 0.61342 0.69546 0.1205 0.0
C2994 C 0.62424 0.70093 0.11402 0.0
C2995 C 0.63666 0.70007 0.11986 0.0
C2996 C 0.58969 0.67048 0.18972 0.0
H2997 H 0.68655 0.64988 0.15426 0.0
H2998 H 0.66958 0.667 0.15399 0.0
H2999 H 0.64222 0.63993 0.17133 0.0
H3000 H 0.65909 0.62336 0.17208 0.0
H3001 H 0.64833 0.67156 0.14304 0.0
H3002 H 0.63743 0.66051 0.18144 0.0
H3003 H 0.61075 0.68314 0.15827 0.0
H3004 H 0.59841 0.68344 0.17597 0.0
H3005 H 0.62092 0.64932 0.18711 0.0
H3006 H 0.60459 0.64365 0.20242 0.0
H3007 H 0.64808 0.69312 0.1358 0.0
H3008 H 0.6066 0.68423 0.13658 0.0
H3009 H 0.58065 0.676 0.18981 0.0
H3010 H 0.64518 0.70429 0.1152 0.0
H3011 H 0.60375 0.69569 0.11615 0.0
C3012 C 0.17659 0.86778 0.86064 0.0
C3013 C 0.17375 0.88038 0.85604 0.0
C3014 C 0.16676 0.85815 0.86091 0.0
C3015 C 0.154 0.86103 0.85656 0.0
C3016 C 0.15134 0.87365 0.85191 0.0
C3017 C 0.16109 0.88311 0.85151 0.0
C3018 C 0.1432 0.85125 0.85695 0.0
C3019 C 0.14116 0.84329 0.86784 0.0
C3020 C 0.12977 0.83542 0.8689 0.0
C3021 C 0.1202 0.83617 0.85891 0.0
C3022 C 0.12196 0.84457 0.84834 0.0
C3023 C 0.13382 0.85124 0.84701 0.0
C3024 C 0.11094 0.84827 0.83968 0.0
C3025 C 0.10325 0.83895 0.83307 0.0
C3026 C 0.10843 0.86162 0.83773 0.0
C3027 C 0.09882 0.86561 0.82904 0.0
C3028 C 0.09149 0.85641 0.82185 0.0
C3029 C 0.12738 0.82756 0.88097 0.0
C3030 C 0.13794 0.8234 0.88882 0.0
C3031 C 0.11453 0.82472 0.88521 0.0
C3032 C 0.11233 0.81838 0.897 0.0
C3033 C 0.12287 0.81496 0.90504 0.0
C3034 C 0.13569 0.8174 0.9008 0.0
C3035 C 0.0937 0.84298 0.82409 0.0
H3036 H 0.18626 0.8655 0.86434 0.0
H3037 H 0.16912 0.84852 0.86454 0.0
H3038 H 0.14157 0.87641 0.84882 0.0
H3039 H 0.15863 0.89272 0.84789 0.0
H3040 H 0.14809 0.84393 0.8758 0.0
H3041 H 0.13531 0.85727 0.8385 0.0
H3042 H 0.11114 0.83071 0.85948 0.0
H3043 H 0.10499 0.8286 0.83444 0.0
H3044 H 0.114 0.86905 0.84293 0.0
H3045 H 0.09722 0.87601 0.8279 0.0
H3046 H 0.148 0.82485 0.88587 0.0
H3047 H 0.10601 0.82787 0.87983 0.0
H3048 H 0.08845 0.83557 0.81858 0.0
H3049 H 0.14399 0.81472 0.9068 0.0
H3050 H 0.10233 0.81674 0.90015 0.0
C3051 C 0.85433 0.83921 0.64939 0.0
C3052 C 0.85216 0.84242 0.63623 0.0
C3053 C 0.85459 0.849 0.65903 0.0
C3054 C 0.85228 0.86208 0.6557 0.0
C3055 C 0.84991 0.86523 0.64264 0.0
C3056 C 0.84994 0.85557 0.63303 0.0
C3057 C 0.85219 0.87264 0.66562 0.0
C3058 C 0.86288 0.87465 0.67395 0.0
C3059 C 0.86362 0.88585 0.68213 0.0
C3060 C 0.85345 0.8953 0.68122 0.0
C3061 C 0.84288 0.89349 0.67248 0.0
C3062 C 0.84203 0.88173 0.66545 0.0
C3063 C 0.83329 0.9041 0.66946 0.0
C3064 C 0.82856 0.91282 0.67906 0.0
C3065 C 0.82878 0.90552 0.65654 0.0
C3066 C 0.8196 0.91504 0.65338 0.0
C3067 C 0.81484 0.9236 0.66294 0.0
C3068 C 0.87554 0.88798 0.69059 0.0
C3069 C 0.8834 0.8773 0.69446 0.0
C3070 C 0.87975 0.90067 0.69424 0.0
C3071 C 0.89159 0.9026 0.70093 0.0
C3072 C 0.89971 0.89195 0.70385 0.0
C3073 C 0.89542 0.87929 0.70072 0.0
C3074 C 0.8194 0.92252 0.67581 0.0
H3075 H 0.85567 0.82916 0.6523 0.0
H3076 H 0.85633 0.84635 0.66907 0.0
H3077 H 0.84828 0.87528 0.63979 0.0
H3078 H 0.84849 0.85848 0.62302 0.0
H3079 H 0.87094 0.8678 0.67336 0.0
H3080 H 0.83367 0.87987 0.65917 0.0
H3081 H 0.85388 0.90422 0.68692 0.0
H3082 H 0.83181 0.91206 0.68907 0.0
H3083 H 0.83249 0.89939 0.64871 0.0
H3084 H 0.81637 0.91588 0.64336 0.0
H3085 H 0.88044 0.86731 0.69253 0.0
H3086 H 0.87429 0.90927 0.69149 0.0
H3087 H 0.81595 0.92923 0.68328 0.0
H3088 H 0.90145 0.8709 0.70305 0.0
H3089 H 0.89473 0.91247 0.70326 0.0
C3090 C 0.86946 0.16043 0.33311 0.0
C3091 C 0.88255 0.16366 0.33623 0.0
C3092 C 0.85974 0.16057 0.34275 0.0
C3093 C 0.86288 0.16427 0.35558 0.0
C3094 C 0.87589 0.16768 0.35861 0.0
C3095 C 0.88557 0.16736 0.34909 0.0
C3096 C 0.85286 0.1646 0.36602 0.0
C3097 C 0.84428 0.15408 0.36798 0.0
C3098 C 0.8361 0.15367 0.37907 0.0
C3099 C 0.83715 0.16389 0.38844 0.0
C3100 C 0.84599 0.17434 0.38667 0.0
C3101 C 0.85305 0.17493 0.37501 0.0
C3102 C 0.84898 0.18409 0.39721 0.0
C3103 C 0.83933 0.18859 0.40597 0.0
C3104 C 0.86189 0.18893 0.3986 0.0
C3105 C 0.86496 0.19822 0.40812 0.0
C3106 C 0.85534 0.20272 0.41671 0.0
C3107 C 0.82747 0.14199 0.38128 0.0
C3108 C 0.82244 0.13463 0.37069 0.0
C3109 C 0.82482 0.13755 0.39395 0.0
C3110 C 0.81783 0.12597 0.39595 0.0
C3111 C 0.81357 0.11822 0.38536 0.0
C3112 C 0.81581 0.12282 0.37269 0.0
C3113 C 0.84251 0.19782 0.41569 0.0
H3114 H 0.86668 0.1579 0.32323 0.0
H3115 H 0.84977 0.158 0.34014 0.0
H3116 H 0.87869 0.17034 0.36847 0.0
H3117 H 0.89554 0.1697 0.35193 0.0
H3118 H 0.8446 0.1459 0.36121 0.0
H3119 H 0.85932 0.18327 0.37312 0.0
H3120 H 0.8314 0.16357 0.39728 0.0
H3121 H 0.82931 0.18515 0.40524 0.0
H3122 H 0.86978 0.18541 0.39246 0.0
H3123 H 0.87495 0.20179 0.40889 0.0
H3124 H 0.82389 0.13779 0.36076 0.0
H3125 H 0.82857 0.14266 0.40244 0.0
H3126 H 0.83498 0.20116 0.42237 0.0
H3127 H 0.81298 0.11706 0.36425 0.0
H3128 H 0.81616 0.12285 0.40586 0.0
C3129 C 0.66796 0.16217 0.13445 0.0
C3130 C 0.66384 0.17492 0.13742 0.0
C3131 C 0.66805 0.15261 0.14398 0.0
C3132 C 0.66423 0.15559 0.15683 0.0
C3133 C 0.66031 0.16845 0.15991 0.0
C3134 C 0.66011 0.17805 0.15026 0.0
C3135 C 0.66426 0.14511 0.16676 0.0
C3136 C 0.67425 0.13576 0.16663 0.0
C3137 C 0.674 0.12488 0.17487 0.0
C3138 C 0.66352 0.12369 0.18376 0.0
C3139 C 0.65331 0.13305 0.18413 0.0
C3140 C 0.65386 0.14372 0.17553 0.0
C3141 C 0.64155 0.13137 0.19267 0.0
C3142 C 0.63637 0.11886 0.19523 0.0
C3143 C 0.63468 0.14239 0.19739 0.0
C3144 C 0.62255 0.14102 0.20351 0.0
C3145 C 0.61711 0.12859 0.20543 0.0
C3146 C 0.68414 0.11444 0.17307 0.0
C3147 C 0.69669 0.11767 0.1683 0.0
C3148 C 0.68099 0.10109 0.1745 0.0
C3149 C 0.68974 0.09135 0.17029 0.0
C3150 C 0.7016 0.09479 0.16432 0.0
C3151 C 0.70517 0.108 0.16372 0.0
C3152 C 0.62431 0.11749 0.20161 0.0
H3153 H 0.67092 0.15952 0.12464 0.0
H3154 H 0.67085 0.14277 0.14114 0.0
H3155 H 0.65739 0.17106 0.16974 0.0
H3156 H 0.65675 0.18781 0.15275 0.0
H3157 H 0.68203 0.13677 0.15956 0.0
H3158 H 0.6458 0.15059 0.17506 0.0
H3159 H 0.6633 0.11551 0.19036 0.0
H3160 H 0.64122 0.11011 0.19168 0.0
H3161 H 0.63848 0.15218 0.19605 0.0
H3162 H 0.61722 0.14972 0.20646 0.0
H3163 H 0.69988 0.12774 0.16764 0.0
H3164 H 0.6715 0.09811 0.17813 0.0
H3165 H 0.62025 0.10779 0.20287 0.0
H3166 H 0.71445 0.11085 0.15945 0.0
H3167 H 0.68689 0.08117 0.17097 0.0
C3168 C 0.62995 0.84646 0.85186 0.0
C3169 C 0.63327 0.85024 0.83921 0.0
C3170 C 0.63935 0.84646 0.86166 0.0
C3171 C 0.65235 0.8502 0.85907 0.0
C3172 C 0.65576 0.85392 0.84636 0.0
C3173 C 0.64626 0.85385 0.83644 0.0
C3174 C 0.66195 0.85034 0.86993 0.0
C3175 C 0.66174 0.84006 0.87883 0.0
C3176 C 0.66773 0.8412 0.89111 0.0
C3177 C 0.67553 0.85235 0.89366 0.0
C3178 C 0.67687 0.86231 0.88431 0.0
C3179 C 0.66985 0.86129 0.87252 0.0
C3180 C 0.68467 0.87431 0.88727 0.0
C3181 C 0.68404 0.88028 0.89964 0.0
C3182 C 0.69234 0.88023 0.87758 0.0
C3183 C 0.69904 0.89193 0.88016 0.0
C3184 C 0.69814 0.89807 0.89247 0.0
C3185 C 0.66484 0.83124 0.90137 0.0
C3186 C 0.65295 0.82411 0.901 0.0
C3187 C 0.67351 0.82895 0.91182 0.0
C3188 C 0.67031 0.81996 0.92155 0.0
C3189 C 0.65858 0.8128 0.92083 0.0
C3190 C 0.65002 0.81486 0.91043 0.0
C3191 C 0.69059 0.89204 0.90217 0.0
H3192 H 0.61998 0.84369 0.85422 0.0
H3193 H 0.63633 0.84378 0.8714 0.0
H3194 H 0.6657 0.85686 0.84412 0.0
H3195 H 0.64896 0.85695 0.82674 0.0
H3196 H 0.65629 0.83133 0.87624 0.0
H3197 H 0.66989 0.86935 0.86574 0.0
H3198 H 0.68033 0.8535 0.90299 0.0
H3199 H 0.678 0.87617 0.90726 0.0
H3200 H 0.69315 0.87583 0.86798 0.0
H3201 H 0.70484 0.89623 0.87247 0.0
H3202 H 0.64557 0.82584 0.89365 0.0
H3203 H 0.68281 0.83402 0.91254 0.0
H3204 H 0.68923 0.89667 0.9116 0.0
H3205 H 0.64079 0.80962 0.90986 0.0
H3206 H 0.67702 0.81854 0.9296 0.0
C3207 C 0.85459 0.17546 0.869 0.0
C3208 C 0.85255 0.17241 0.88221 0.0
C3209 C 0.8556 0.16547 0.85958 0.0
C3210 C 0.85432 0.15233 0.86322 0.0
C3211 C 0.85244 0.14932 0.8764 0.0
C3212 C 0.85162 0.1592 0.88575 0.0
C3213 C 0.85432 0.14157 0.85348 0.0
C3214 C 0.86473 0.13978 0.84473 0.0
C3215 C 0.86548 0.12844 0.8367 0.0
C3216 C 0.85551 0.11883 0.83793 0.0
C3217 C 0.84538 0.12045 0.84708 0.0
C3218 C 0.84454 0.13209 0.85423 0.0
C3219 C 0.83651 0.10961 0.85077 0.0
C3220 C 0.82868 0.10297 0.8416 0.0
C3221 C 0.83519 0.10663 0.86404 0.0
C3222 C 0.82576 0.09778 0.86818 0.0
C3223 C 0.8173 0.09175 0.85918 0.0
C3224 C 0.8773 0.1262 0.82816 0.0
C3225 C 0.88508 0.13681 0.824 0.0
C3226 C 0.88151 0.11343 0.82478 0.0
C3227 C 0.8933 0.11139 0.81809 0.0
C3228 C 0.90136 0.12198 0.81491 0.0
C3229 C 0.89706 0.13471 0.8177 0.0
C3230 C 0.8191 0.09407 0.8458 0.0
H3231 H 0.85511 0.18553 0.86588 0.0
H3232 H 0.85698 0.16801 0.84946 0.0
H3233 H 0.85163 0.13925 0.8795 0.0
H3234 H 0.85036 0.15644 0.89584 0.0
H3235 H 0.87258 0.1469 0.84491 0.0
H3236 H 0.83655 0.13344 0.86109 0.0
H3237 H 0.85578 0.10987 0.83226 0.0
H3238 H 0.82957 0.10507 0.83132 0.0
H3239 H 0.84133 0.11138 0.8713 0.0
H3240 H 0.82499 0.09578 0.8785 0.0
H3241 H 0.88213 0.14683 0.82575 0.0
H3242 H 0.87613 0.10487 0.82778 0.0
H3243 H 0.8128 0.08939 0.83864 0.0
H3244 H 0.9031 0.14304 0.81519 0.0
H3245 H 0.89648 0.10147 0.81602 0.0
C3246 C 0.63125 0.17063 0.66609 0.0
C3247 C 0.63372 0.16525 0.67833 0.0
C3248 C 0.64089 0.17057 0.65656 0.0
C3249 C 0.65341 0.1654 0.6591 0.0
C3250 C 0.65605 0.16034 0.67153 0.0
C3251 C 0.64625 0.16031 0.68112 0.0
C3252 C 0.66325 0.16503 0.64842 0.0
C3253 C 0.6635 0.17528 0.63954 0.0
C3254 C 0.66931 0.1738 0.62726 0.0
C3255 C 0.67732 0.16277 0.62497 0.0
C3256 C 0.6786 0.15292 0.6345 0.0
C3257 C 0.67101 0.15396 0.64598 0.0
C3258 C 0.68704 0.14111 0.63231 0.0
C3259 C 0.6889 0.1357 0.61976 0.0
C3260 C 0.69288 0.13474 0.64296 0.0
C3261 C 0.69966 0.12297 0.64124 0.0
C3262 C 0.70104 0.11734 0.62879 0.0
C3263 C 0.66575 0.18329 0.61681 0.0
C3264 C 0.65333 0.18941 0.61714 0.0
C3265 C 0.67427 0.18626 0.60645 0.0
C3266 C 0.67055 0.19534 0.59695 0.0
C3267 C 0.65842 0.20175 0.59786 0.0
C3268 C 0.64986 0.19868 0.60798 0.0
C3269 C 0.69585 0.12399 0.61803 0.0
H3270 H 0.62165 0.17451 0.66374 0.0
H3271 H 0.63833 0.17425 0.64703 0.0
H3272 H 0.6656 0.15634 0.67379 0.0
H3273 H 0.64829 0.15604 0.69052 0.0
H3274 H 0.6583 0.18421 0.64196 0.0
H3275 H 0.67063 0.1459 0.65273 0.0
H3276 H 0.68232 0.16174 0.61574 0.0
H3277 H 0.68448 0.14011 0.61128 0.0
H3278 H 0.69208 0.13872 0.65273 0.0
H3279 H 0.70366 0.11815 0.64971 0.0
H3280 H 0.64607 0.18699 0.62441 0.0
H3281 H 0.68386 0.18178 0.60575 0.0
H3282 H 0.69655 0.11979 0.60833 0.0
H3283 H 0.64032 0.20332 0.60865 0.0
H3284 H 0.67722 0.19753 0.58906 0.0
C3285 C 0.66715 0.8531 0.38104 0.0
C3286 C 0.66291 0.84034 0.3781 0.0
C3287 C 0.66763 0.86258 0.37143 0.0
C3288 C 0.66382 0.85962 0.35857 0.0
C3289 C 0.65961 0.84688 0.35551 0.0
C3290 C 0.65933 0.83727 0.36515 0.0
C3291 C 0.66401 0.87013 0.34871 0.0
C3292 C 0.67448 0.87897 0.34867 0.0
C3293 C 0.6736 0.89103 0.34229 0.0
C3294 C 0.66267 0.89317 0.33415 0.0
C3295 C 0.65249 0.88383 0.33309 0.0
C3296 C 0.65317 0.87243 0.34067 0.0
C3297 C 0.64049 0.88652 0.32521 0.0
C3298 C 0.63539 0.89929 0.32447 0.0
C3299 C 0.63352 0.87624 0.31909 0.0
C3300 C 0.62145 0.87859 0.31304 0.0
C3301 C 0.61618 0.89125 0.31296 0.0
C3302 C 0.68345 0.90162 0.34527 0.0
C3303 C 0.69044 0.9015 0.35715 0.0
C3304 C 0.68557 0.91224 0.33685 0.0
C3305 C 0.69416 0.92242 0.34035 0.0
C3306 C 0.70127 0.92201 0.35211 0.0
C3307 C 0.69941 0.91127 0.3603 0.0
C3308 C 0.6234 0.90162 0.31838 0.0
H3309 H 0.66978 0.8559 0.39091 0.0
H3310 H 0.67068 0.87238 0.37418 0.0
H3311 H 0.65671 0.84433 0.34565 0.0
H3312 H 0.65639 0.82745 0.36241 0.0
H3313 H 0.68312 0.87652 0.35425 0.0
H3314 H 0.64493 0.86575 0.34096 0.0
H3315 H 0.66183 0.90223 0.3289 0.0
H3316 H 0.64027 0.90746 0.32918 0.0
H3317 H 0.63723 0.86632 0.31923 0.0
H3318 H 0.61599 0.87044 0.30892 0.0
H3319 H 0.68888 0.89405 0.36438 0.0
H3320 H 0.6806 0.91285 0.32757 0.0
H3321 H 0.61946 0.91146 0.31839 0.0
H3322 H 0.70476 0.91047 0.36937 0.0
H3323 H 0.69499 0.93069 0.33391 0.0
C3324 C 0.87125 0.85421 0.18062 0.0
C3325 C 0.88449 0.85231 0.17724 0.0
C3326 C 0.86168 0.85528 0.17086 0.0
C3327 C 0.86528 0.85444 0.15767 0.0
C3328 C 0.87855 0.85314 0.15438 0.0
C3329 C 0.88804 0.85218 0.16403 0.0
C3330 C 0.85538 0.85399 0.14717 0.0
C3331 C 0.8465 0.8642 0.14543 0.0
C3332 C 0.8379 0.86426 0.13464 0.0
C3333 C 0.83822 0.85349 0.12582 0.0
C3334 C 0.84745 0.84327 0.12725 0.0
C3335 C 0.85591 0.84379 0.13805 0.0
C3336 C 0.84925 0.83262 0.11716 0.0
C3337 C 0.84566 0.83442 0.10401 0.0
C3338 C 0.85568 0.82083 0.12038 0.0
C3339 C 0.85956 0.81193 0.11077 0.0
C3340 C 0.85668 0.81418 0.09764 0.0
C3341 C 0.82947 0.87603 0.13216 0.0
C3342 C 0.82561 0.88434 0.14251 0.0
C3343 C 0.82607 0.87972 0.11939 0.0
C3344 C 0.81936 0.89143 0.11708 0.0
C3345 C 0.81617 0.9 0.1274 0.0
C3346 C 0.81943 0.89626 0.14014 0.0
C3347 C 0.84919 0.82522 0.09441 0.0
H3348 H 0.86829 0.85451 0.19075 0.0
H3349 H 0.85147 0.85631 0.1736 0.0
H3350 H 0.88158 0.85272 0.14427 0.0
H3351 H 0.89821 0.85129 0.16112 0.0
H3352 H 0.847 0.87243 0.15211 0.0
H3353 H 0.8635 0.83654 0.13929 0.0
H3354 H 0.83131 0.85313 0.11785 0.0
H3355 H 0.84069 0.84318 0.1009 0.0
H3356 H 0.85793 0.81836 0.13035 0.0
H3357 H 0.8648 0.8032 0.11364 0.0
H3358 H 0.82759 0.88185 0.15254 0.0
H3359 H 0.82895 0.87386 0.11105 0.0
H3360 H 0.84663 0.82708 0.08436 0.0
H3361 H 0.81761 0.90269 0.14837 0.0
H3362 H 0.81694 0.8939 0.10713 0.0
C3363 C 0.1313 0.66968 0.16685 0.0
C3364 C 0.13443 0.66518 0.17934 0.0
C3365 C 0.1406 0.66945 0.15697 0.0
C3366 C 0.15334 0.66476 0.15929 0.0
C3367 C 0.15651 0.66013 0.17174 0.0
C3368 C 0.14715 0.66042 0.18172 0.0
C3369 C 0.16303 0.66472 0.14852 0.0
C3370 C 0.16318 0.6752 0.13993 0.0
C3371 C 0.16943 0.67424 0.12782 0.0
C3372 C 0.17778 0.66348 0.1255 0.0
C3373 C 0.17887 0.65321 0.13464 0.0
C3374 C 0.17093 0.6538 0.14591 0.0
C3375 C 0.18735 0.6414 0.13207 0.0
C3376 C 0.1911 0.63776 0.11933 0.0
C3377 C 0.19146 0.6333 0.14238 0.0
C3378 C 0.19787 0.62144 0.13991 0.0
C3379 C 0.20093 0.61754 0.12711 0.0
C3380 C 0.16588 0.68377 0.11738 0.0
C3381 C 0.15334 0.68959 0.11748 0.0
C3382 C 0.1744 0.68676 0.10703 0.0
C3383 C 0.17041 0.69523 0.09709 0.0
C3384 C 0.15793 0.70111 0.09747 0.0
C3385 C 0.14959 0.69832 0.1079 0.0
C3386 C 0.19813 0.62626 0.11697 0.0
H3387 H 0.12153 0.67315 0.16461 0.0
H3388 H 0.1377 0.67277 0.1474 0.0
H3389 H 0.16626 0.6565 0.17381 0.0
H3390 H 0.14992 0.65707 0.19131 0.0
H3391 H 0.15767 0.68391 0.14245 0.0
H3392 H 0.1703 0.64555 0.15239 0.0
H3393 H 0.18311 0.66303 0.11645 0.0
H3394 H 0.18836 0.64344 0.11095 0.0
H3395 H 0.18954 0.63589 0.15243 0.0
H3396 H 0.20001 0.61515 0.14806 0.0
H3397 H 0.1461 0.68726 0.1248 0.0
H3398 H 0.18413 0.6826 0.10651 0.0
H3399 H 0.20104 0.62409 0.10705 0.0
H3400 H 0.13997 0.70276 0.10861 0.0
H3401 H 0.17701 0.69697 0.08904 0.0
C3402 C 0.16729 0.35242 0.88079 0.0
C3403 C 0.16214 0.33995 0.87824 0.0
C3404 C 0.16777 0.36171 0.87102 0.0
C3405 C 0.16322 0.35876 0.85837 0.0
C3406 C 0.15817 0.34622 0.85574 0.0
C3407 C 0.15768 0.33685 0.86561 0.0
C3408 C 0.16343 0.36915 0.84836 0.0
C3409 C 0.17399 0.37786 0.84818 0.0
C3410 C 0.17299 0.39001 0.84207 0.0
C3411 C 0.16206 0.39239 0.83406 0.0
C3412 C 0.15182 0.38312 0.833 0.0
C3413 C 0.15249 0.37164 0.84049 0.0
C3414 C 0.13977 0.38598 0.82528 0.0
C3415 C 0.13472 0.39877 0.82473 0.0
C3416 C 0.13275 0.3758 0.81906 0.0
C3417 C 0.12068 0.37826 0.81308 0.0
C3418 C 0.11542 0.39093 0.81318 0.0
C3419 C 0.18249 0.40055 0.84566 0.0
C3420 C 0.18781 0.40086 0.85834 0.0
C3421 C 0.18596 0.41058 0.83698 0.0
C3422 C 0.19451 0.42062 0.84097 0.0
C3423 C 0.19966 0.42074 0.85365 0.0
C3424 C 0.19644 0.41065 0.86217 0.0
C3425 C 0.12271 0.40122 0.8187 0.0
H3426 H 0.17082 0.35503 0.89043 0.0
H3427 H 0.17144 0.37137 0.87351 0.0
H3428 H 0.15459 0.34368 0.84611 0.0
H3429 H 0.15353 0.32731 0.86347 0.0
H3430 H 0.18271 0.3755 0.85371 0.0
H3431 H 0.14416 0.36507 0.84086 0.0
H3432 H 0.16132 0.40161 0.82903 0.0
H3433 H 0.13966 0.40687 0.8295 0.0
H3434 H 0.13645 0.36587 0.81904 0.0
H3435 H 0.11522 0.37018 0.80884 0.0
H3436 H 0.1851 0.39372 0.86557 0.0
H3437 H 0.18213 0.41069 0.82714 0.0
H3438 H 0.11887 0.4111 0.81876 0.0
H3439 H 0.20043 0.41047 0.87196 0.0
H3440 H 0.19693 0.42836 0.83424 0.0
C3441 C 0.37151 0.35798 0.68002 0.0
C3442 C 0.38375 0.35204 0.67786 0.0
C3443 C 0.36214 0.35841 0.67003 0.0
C3444 C 0.36491 0.35301 0.65768 0.0
C3445 C 0.37728 0.34719 0.65561 0.0
C3446 C 0.38648 0.34658 0.6656 0.0
C3447 C 0.3552 0.35341 0.6468 0.0
C3448 C 0.34717 0.36437 0.6447 0.0
C3449 C 0.33889 0.36512 0.63364 0.0
C3450 C 0.33947 0.35481 0.6243 0.0
C3451 C 0.34791 0.34407 0.62609 0.0
C3452 C 0.35488 0.3431 0.63777 0.0
C3453 C 0.35075 0.33439 0.61552 0.0
C3454 C 0.34084 0.32902 0.6076 0.0
C3455 C 0.36378 0.33026 0.61351 0.0
C3456 C 0.3668 0.32082 0.60412 0.0
C3457 C 0.35693 0.31524 0.59634 0.0
C3458 C 0.33054 0.3771 0.6315 0.0
C3459 C 0.32657 0.38509 0.64211 0.0
C3460 C 0.32693 0.3811 0.61885 0.0
C3461 C 0.3201 0.39282 0.61689 0.0
C3462 C 0.31696 0.40099 0.62746 0.0
C3463 C 0.32009 0.39697 0.64008 0.0
C3464 C 0.34389 0.31946 0.59816 0.0
H3465 H 0.36919 0.36224 0.68944 0.0
H3466 H 0.35272 0.36288 0.67202 0.0
H3467 H 0.38003 0.34331 0.64615 0.0
H3468 H 0.39594 0.34217 0.6636 0.0
H3469 H 0.34794 0.37256 0.65139 0.0
H3470 H 0.36064 0.33439 0.63953 0.0
H3471 H 0.33371 0.35518 0.61547 0.0
H3472 H 0.33072 0.33193 0.60893 0.0
H3473 H 0.37176 0.33442 0.61917 0.0
H3474 H 0.37697 0.31802 0.60285 0.0
H3475 H 0.32855 0.38231 0.65205 0.0
H3476 H 0.32979 0.37557 0.6103 0.0
H3477 H 0.33598 0.31519 0.59251 0.0
H3478 H 0.31762 0.4031 0.6484 0.0
H3479 H 0.31776 0.39577 0.60705 0.0
C3480 C 0.17097 0.6645 0.63636 0.0
C3481 C 0.1647 0.6764 0.63898 0.0
C3482 C 0.17138 0.65478 0.64576 0.0
C3483 C 0.16579 0.65684 0.65817 0.0
C3484 C 0.15983 0.66897 0.6609 0.0
C3485 C 0.15922 0.67865 0.65135 0.0
C3486 C 0.16569 0.64599 0.66778 0.0
C3487 C 0.17595 0.63691 0.66782 0.0
C3488 C 0.17478 0.62495 0.67428 0.0
C3489 C 0.16405 0.6231 0.68269 0.0
C3490 C 0.154 0.6326 0.68372 0.0
C3491 C 0.15479 0.64379 0.67581 0.0
C3492 C 0.14206 0.63042 0.69199 0.0
C3493 C 0.13751 0.6177 0.69464 0.0
C3494 C 0.13464 0.64109 0.69674 0.0
C3495 C 0.12249 0.63912 0.70274 0.0
C3496 C 0.11762 0.62641 0.70459 0.0
C3497 C 0.18403 0.61409 0.67087 0.0
C3498 C 0.18897 0.61311 0.65806 0.0
C3499 C 0.18765 0.60443 0.6799 0.0
C3500 C 0.19603 0.59416 0.67617 0.0
C3501 C 0.20082 0.59334 0.66337 0.0
C3502 C 0.19734 0.60298 0.65443 0.0
C3503 C 0.12565 0.61576 0.70113 0.0
H3504 H 0.17511 0.66249 0.62683 0.0
H3505 H 0.1757 0.64548 0.64305 0.0
H3506 H 0.15556 0.67098 0.67036 0.0
H3507 H 0.15441 0.68784 0.65359 0.0
H3508 H 0.18468 0.63889 0.66218 0.0
H3509 H 0.14658 0.65047 0.67533 0.0
H3510 H 0.16339 0.6141 0.68808 0.0
H3511 H 0.14273 0.60912 0.69128 0.0
H3512 H 0.13797 0.65105 0.6955 0.0
H3513 H 0.11669 0.64759 0.70544 0.0
H3514 H 0.18616 0.62 0.65062 0.0
H3515 H 0.18414 0.60484 0.68984 0.0
H3516 H 0.12256 0.60582 0.70301 0.0
H3517 H 0.201 0.6026 0.64453 0.0
H3518 H 0.19867 0.5868 0.68323 0.0
C3519 C 0.35216 0.3389 0.14852 0.0
C3520 C 0.35225 0.3425 0.13528 0.0
C3521 C 0.35256 0.34847 0.15836 0.0
C3522 C 0.35255 0.36174 0.15509 0.0
C3523 C 0.35247 0.36535 0.14196 0.0
C3524 C 0.35248 0.35586 0.13218 0.0
C3525 C 0.35216 0.37209 0.16512 0.0
C3526 C 0.36273 0.37411 0.17355 0.0
C3527 C 0.36331 0.3853 0.1817 0.0
C3528 C 0.35315 0.39471 0.18068 0.0
C3529 C 0.34269 0.39291 0.17182 0.0
C3530 C 0.342 0.38115 0.16474 0.0
C3531 C 0.33308 0.40352 0.16885 0.0
C3532 C 0.32899 0.41268 0.17835 0.0
C3533 C 0.32798 0.4046 0.15611 0.0
C3534 C 0.31877 0.41413 0.15308 0.0
C3535 C 0.31471 0.42313 0.16255 0.0
C3536 C 0.37511 0.38754 0.19023 0.0
C3537 C 0.38292 0.37691 0.19427 0.0
C3538 C 0.37924 0.40029 0.19374 0.0
C3539 C 0.39102 0.40231 0.20045 0.0
C3540 C 0.3991 0.3917 0.2035 0.0
C3541 C 0.3949 0.37899 0.20054 0.0
C3542 C 0.31995 0.4225 0.17517 0.0
H3543 H 0.35153 0.32875 0.15133 0.0
H3544 H 0.35248 0.34555 0.16847 0.0
H3545 H 0.35253 0.37558 0.13926 0.0
H3546 H 0.35282 0.35907 0.12217 0.0
H3547 H 0.37081 0.36727 0.17305 0.0
H3548 H 0.3338 0.37921 0.15829 0.0
H3549 H 0.35352 0.4036 0.18643 0.0
H3550 H 0.33263 0.41223 0.18824 0.0
H3551 H 0.33124 0.39825 0.14827 0.0
H3552 H 0.31503 0.41467 0.14321 0.0
H3553 H 0.37999 0.36689 0.19242 0.0
H3554 H 0.37383 0.40885 0.19082 0.0
H3555 H 0.31702 0.42955 0.18255 0.0
H3556 H 0.40098 0.37066 0.20296 0.0
H3557 H 0.39416 0.41222 0.20263 0.0
C3558 C 0.5917 0.42485 0.12808 0.0
C3559 C 0.58936 0.41393 0.13598 0.0
C3560 C 0.60138 0.42436 0.11848 0.0
C3561 C 0.60864 0.41287 0.11644 0.0
C3562 C 0.60593 0.4018 0.12395 0.0
C3563 C 0.59643 0.40235 0.13367 0.0
C3564 C 0.61964 0.41258 0.10712 0.0
C3565 C 0.62933 0.42224 0.10777 0.0
C3566 C 0.64061 0.42158 0.09989 0.0
C3567 C 0.64204 0.41066 0.0914 0.0
C3568 C 0.63253 0.40062 0.09102 0.0
C3569 C 0.62117 0.40198 0.09861 0.0
C3570 C 0.63473 0.38815 0.08367 0.0
C3571 C 0.64093 0.38792 0.07141 0.0
C3572 C 0.6307 0.3762 0.08913 0.0
C3573 C 0.63269 0.36441 0.08252 0.0
C3574 C 0.63891 0.36422 0.0704 0.0
C3575 C 0.65121 0.43169 0.10163 0.0
C3576 C 0.6483 0.44421 0.10663 0.0
C3577 C 0.66444 0.42878 0.09917 0.0
C3578 C 0.67435 0.43783 0.10212 0.0
C3579 C 0.67166 0.44977 0.10874 0.0
C3580 C 0.65824 0.45282 0.11053 0.0
C3581 C 0.64302 0.37601 0.06483 0.0
H3582 H 0.58611 0.43377 0.12933 0.0
H3583 H 0.60325 0.43297 0.11269 0.0
H3584 H 0.61151 0.39287 0.12266 0.0
H3585 H 0.59492 0.39381 0.13966 0.0
H3586 H 0.6283 0.42985 0.1151 0.0
H3587 H 0.61356 0.39457 0.09817 0.0
H3588 H 0.65069 0.40968 0.0854 0.0
H3589 H 0.64408 0.39691 0.06688 0.0
H3590 H 0.62623 0.37587 0.09868 0.0
H3591 H 0.62957 0.35536 0.087 0.0
H3592 H 0.63827 0.44737 0.10801 0.0
H3593 H 0.66735 0.41942 0.09514 0.0
H3594 H 0.6479 0.37598 0.05546 0.0
H3595 H 0.65503 0.4617 0.11528 0.0
H3596 H 0.68399 0.43511 0.09891 0.0
C3597 C 0.921 0.61911 0.62922 0.0
C3598 C 0.92726 0.6074 0.63266 0.0
C3599 C 0.91121 0.61912 0.61975 0.0
C3600 C 0.90735 0.60739 0.61364 0.0
C3601 C 0.91371 0.59569 0.61695 0.0
C3602 C 0.92357 0.5957 0.62639 0.0
C3603 C 0.89604 0.60729 0.6046 0.0
C3604 C 0.8944 0.6173 0.59558 0.0
C3605 C 0.88272 0.61847 0.5884 0.0
C3606 C 0.87317 0.60851 0.5894 0.0
C3607 C 0.87498 0.59798 0.59801 0.0
C3608 C 0.88629 0.59781 0.60584 0.0
C3609 C 0.86493 0.58749 0.59969 0.0
C3610 C 0.85144 0.59 0.59823 0.0
C3611 C 0.86882 0.57499 0.60384 0.0
C3612 C 0.85959 0.56574 0.60755 0.0
C3613 C 0.84612 0.56826 0.60631 0.0
C3614 C 0.88031 0.63061 0.58077 0.0
C3615 C 0.88568 0.64261 0.58512 0.0
C3616 C 0.87247 0.63056 0.56944 0.0
C3617 C 0.87005 0.64222 0.56277 0.0
C3618 C 0.87561 0.654 0.56719 0.0
C3619 C 0.88351 0.65409 0.5783 0.0
C3620 C 0.84216 0.58042 0.60133 0.0
H3621 H 0.9233 0.62822 0.6342 0.0
H3622 H 0.90628 0.62823 0.61763 0.0
H3623 H 0.91095 0.58651 0.61234 0.0
H3624 H 0.92823 0.58653 0.62887 0.0
H3625 H 0.90221 0.62438 0.59444 0.0
H3626 H 0.88733 0.5906 0.61343 0.0
H3627 H 0.86425 0.60913 0.58375 0.0
H3628 H 0.84795 0.59947 0.59517 0.0
H3629 H 0.87907 0.57239 0.60468 0.0
H3630 H 0.86314 0.55676 0.61179 0.0
H3631 H 0.89133 0.64331 0.59403 0.0
H3632 H 0.86825 0.62158 0.56568 0.0
H3633 H 0.83186 0.58268 0.60012 0.0
H3634 H 0.88771 0.66316 0.58193 0.0
H3635 H 0.86384 0.64206 0.5542 0.0
C3636 C 0.61189 0.39039 0.59765 0.0
C3637 C 0.59985 0.38634 0.59237 0.0
C3638 C 0.61236 0.40051 0.60679 0.0
C3639 C 0.60079 0.40686 0.61073 0.0
C3640 C 0.58883 0.40332 0.60485 0.0
C3641 C 0.58837 0.39313 0.59569 0.0
C3642 C 0.60116 0.41606 0.62193 0.0
C3643 C 0.61147 0.42498 0.62332 0.0
C3644 C 0.61354 0.43179 0.63512 0.0
C3645 C 0.60424 0.43039 0.64521 0.0
C3646 C 0.59335 0.42199 0.64363 0.0
C3647 C 0.59212 0.41472 0.63203 0.0
C3648 C 0.58376 0.41966 0.65431 0.0
C3649 C 0.58787 0.41879 0.66735 0.0
C3650 C 0.57055 0.41692 0.65129 0.0
C3651 C 0.56193 0.41259 0.66087 0.0
C3652 C 0.5662 0.41115 0.67376 0.0
C3653 C 0.62593 0.43943 0.63703 0.0
C3654 C 0.63749 0.43552 0.63052 0.0
C3655 C 0.62656 0.45036 0.64549 0.0
C3656 C 0.63842 0.45705 0.64745 0.0
C3657 C 0.64973 0.45309 0.64075 0.0
C3658 C 0.64915 0.4424 0.63221 0.0
C3659 C 0.57917 0.41459 0.67698 0.0
H3660 H 0.62089 0.3854 0.59503 0.0
H3661 H 0.6217 0.40291 0.61124 0.0
H3662 H 0.57979 0.40814 0.60765 0.0
H3663 H 0.57899 0.39019 0.59165 0.0
H3664 H 0.6181 0.42625 0.6152 0.0
H3665 H 0.5845 0.40736 0.63114 0.0
H3666 H 0.6056 0.43551 0.65438 0.0
H3667 H 0.59797 0.42066 0.67004 0.0
H3668 H 0.56692 0.4178 0.64142 0.0
H3669 H 0.55193 0.41022 0.65816 0.0
H3670 H 0.63775 0.4269 0.62433 0.0
H3671 H 0.61792 0.45382 0.65058 0.0
H3672 H 0.58277 0.41345 0.68683 0.0
H3673 H 0.65787 0.43911 0.6271 0.0
H3674 H 0.63876 0.46531 0.65414 0.0
C3675 C 0.36904 0.66084 0.83337 0.0
C3676 C 0.38238 0.6623 0.83677 0.0
C3677 C 0.35932 0.66071 0.843 0.0
C3678 C 0.36276 0.66252 0.85611 0.0
C3679 C 0.37598 0.66419 0.8595 0.0
C3680 C 0.38567 0.66395 0.84998 0.0
C3681 C 0.35278 0.66303 0.8665 0.0
C3682 C 0.34452 0.65237 0.86882 0.0
C3683 C 0.33657 0.65202 0.88007 0.0
C3684 C 0.33752 0.66252 0.88914 0.0
C3685 C 0.34615 0.67306 0.88705 0.0
C3686 C 0.35302 0.67352 0.87526 0.0
C3687 C 0.34925 0.6829 0.8975 0.0
C3688 C 0.33998 0.6867 0.90698 0.0
C3689 C 0.36196 0.68829 0.89829 0.0
C3690 C 0.36519 0.69743 0.90787 0.0
C3691 C 0.35605 0.70112 0.9174 0.0
C3692 C 0.32841 0.64013 0.88285 0.0
C3693 C 0.32403 0.63185 0.87267 0.0
C3694 C 0.32552 0.63649 0.89575 0.0
C3695 C 0.31901 0.6248 0.89836 0.0
C3696 C 0.31578 0.61603 0.88825 0.0
C3697 C 0.31801 0.61987 0.87533 0.0
C3698 C 0.3434 0.69559 0.91691 0.0
H3699 H 0.36603 0.66001 0.82328 0.0
H3700 H 0.34914 0.65954 0.84021 0.0
H3701 H 0.37886 0.66549 0.86959 0.0
H3702 H 0.39579 0.66486 0.85306 0.0
H3703 H 0.34501 0.64407 0.86221 0.0
H3704 H 0.35923 0.68182 0.87306 0.0
H3705 H 0.3319 0.66234 0.89804 0.0
H3706 H 0.3301 0.68285 0.90677 0.0
H3707 H 0.36966 0.68533 0.89165 0.0
H3708 H 0.37499 0.70152 0.90787 0.0
H3709 H 0.32546 0.63439 0.86256 0.0
H3710 H 0.32865 0.64232 0.90402 0.0
H3711 H 0.33619 0.69795 0.92429 0.0
H3712 H 0.31549 0.61345 0.86726 0.0
H3713 H 0.31685 0.62249 0.9084 0.0
C3714 C 0.13016 0.34233 0.35033 0.0
C3715 C 0.13301 0.34812 0.33836 0.0
C3716 C 0.13926 0.34277 0.36044 0.0
C3717 C 0.1516 0.34875 0.35876 0.0
C3718 C 0.15447 0.35445 0.34665 0.0
C3719 C 0.14518 0.35426 0.33658 0.0
C3720 C 0.16112 0.34925 0.36981 0.0
C3721 C 0.16133 0.33907 0.37882 0.0
C3722 C 0.16799 0.34029 0.39072 0.0
C3723 C 0.17633 0.35116 0.39269 0.0
C3724 C 0.17723 0.36113 0.38323 0.0
C3725 C 0.16915 0.36021 0.37207 0.0
C3726 C 0.1858 0.37296 0.3852 0.0
C3727 C 0.18839 0.37816 0.39773 0.0
C3728 C 0.19089 0.37967 0.37436 0.0
C3729 C 0.19737 0.39164 0.37592 0.0
C3730 C 0.19928 0.39709 0.38836 0.0
C3731 C 0.16509 0.33066 0.40122 0.0
C3732 C 0.15235 0.32535 0.40222 0.0
C3733 C 0.17463 0.32672 0.41031 0.0
C3734 C 0.1715 0.31757 0.41996 0.0
C3735 C 0.1588 0.31229 0.42068 0.0
C3736 C 0.1493 0.31624 0.41174 0.0
C3737 C 0.19515 0.39004 0.39928 0.0
H3738 H 0.12069 0.33782 0.35199 0.0
H3739 H 0.13641 0.33868 0.36971 0.0
H3740 H 0.16387 0.35905 0.34492 0.0
H3741 H 0.14748 0.35888 0.32741 0.0
H3742 H 0.15579 0.33025 0.37676 0.0
H3743 H 0.16865 0.36831 0.36538 0.0
H3744 H 0.18185 0.35196 0.40165 0.0
H3745 H 0.18465 0.37347 0.40636 0.0
H3746 H 0.18963 0.37586 0.36457 0.0
H3747 H 0.20059 0.39684 0.36735 0.0
H3748 H 0.14454 0.32838 0.39577 0.0
H3749 H 0.18452 0.33055 0.40989 0.0
H3750 H 0.19646 0.39409 0.40898 0.0
H3751 H 0.13942 0.31236 0.4122 0.0
H3752 H 0.17894 0.3147 0.42691 0.0
C3753 C 0.35622 0.67455 0.37 0.0
C3754 C 0.35175 0.67142 0.38253 0.0
C3755 C 0.35637 0.66496 0.36012 0.0
C3756 C 0.35192 0.6522 0.36266 0.0
C3757 C 0.34725 0.64929 0.3752 0.0
C3758 C 0.34703 0.6588 0.38494 0.0
C3759 C 0.35223 0.64165 0.3526 0.0
C3760 C 0.36327 0.63954 0.34471 0.0
C3761 C 0.36421 0.62837 0.33648 0.0
C3762 C 0.35399 0.61895 0.337 0.0
C3763 C 0.34312 0.6208 0.34529 0.0
C3764 C 0.34196 0.63262 0.35216 0.0
C3765 C 0.33361 0.61012 0.34822 0.0
C3766 C 0.32877 0.60155 0.33854 0.0
C3767 C 0.32928 0.60852 0.36116 0.0
C3768 C 0.32019 0.59891 0.36429 0.0
C3769 C 0.31527 0.59049 0.35465 0.0
C3770 C 0.37633 0.62621 0.32834 0.0
C3771 C 0.38426 0.63687 0.32458 0.0
C3772 C 0.38055 0.6135 0.32475 0.0
C3773 C 0.39246 0.61155 0.31821 0.0
C3774 C 0.40063 0.62218 0.31539 0.0
C3775 C 0.39633 0.63486 0.31842 0.0
C3776 C 0.31961 0.59181 0.34174 0.0
H3777 H 0.35996 0.68424 0.36799 0.0
H3778 H 0.35997 0.66749 0.35055 0.0
H3779 H 0.34401 0.63952 0.37763 0.0
H3780 H 0.34349 0.65619 0.39452 0.0
H3781 H 0.37141 0.64629 0.34563 0.0
H3782 H 0.33325 0.63445 0.35794 0.0
H3783 H 0.35456 0.61001 0.33133 0.0
H3784 H 0.33191 0.60248 0.32851 0.0
H3785 H 0.33306 0.61461 0.36899 0.0
H3786 H 0.31709 0.59792 0.37433 0.0
H3787 H 0.38132 0.64686 0.32651 0.0
H3788 H 0.37505 0.60491 0.32743 0.0
H3789 H 0.31602 0.58524 0.3342 0.0
H3790 H 0.40242 0.64323 0.31617 0.0
H3791 H 0.39561 0.60167 0.31595 0.0
C3792 C 0.15564 0.45382 0.09656 0.0
C3793 C 0.16589 0.45079 0.1052 0.0
C3794 C 0.14444 0.4458 0.09565 0.0
C3795 C 0.14313 0.43461 0.10345 0.0
H3796 H 0.15639 0.46228 0.09034 0.0
H3797 H 0.13673 0.44842 0.0889 0.0
S3798 S 0.16732 0.42249 0.12753 0.0
N3799 N 0.17391 0.43601 0.12181 0.0
N3800 N 0.15326 0.42074 0.11975 0.0
C3801 C 0.15337 0.43151 0.11206 0.0
C3802 C 0.16463 0.43967 0.11305 0.0
C3803 C 0.85207 0.94138 0.40073 0.0
C3804 C 0.85014 0.9523 0.40894 0.0
C3805 C 0.86325 0.93361 0.40174 0.0
C3806 C 0.87315 0.9365 0.41088 0.0
H3807 H 0.84479 0.93873 0.39348 0.0
H3808 H 0.86401 0.92513 0.39538 0.0
S3809 S 0.87295 0.9641 0.43464 0.0
N3810 N 0.85898 0.9656 0.42663 0.0
N3811 N 0.88039 0.95121 0.42824 0.0
C3812 C 0.87145 0.94747 0.41911 0.0
C3813 C 0.85991 0.95537 0.41814 0.0
C3814 C 0.35141 0.57123 0.59295 0.0
C3815 C 0.35092 0.56131 0.60233 0.0
C3816 C 0.36219 0.57978 0.59232 0.0
C3817 C 0.37272 0.57874 0.60113 0.0
H3818 H 0.34349 0.57231 0.586 0.0
H3819 H 0.36215 0.58742 0.58507 0.0
S3820 S 0.3762 0.55422 0.62729 0.0
N3821 N 0.36187 0.55092 0.62054 0.0
N3822 N 0.38219 0.56672 0.61915 0.0
C3823 C 0.37238 0.56876 0.61042 0.0
C3824 C 0.36146 0.56012 0.61108 0.0
C3825 C 0.65469 0.0604 0.92417 0.0
C3826 C 0.66606 0.06365 0.91708 0.0
C3827 C 0.64355 0.06845 0.92404 0.0
C3828 C 0.64337 0.08003 0.91676 0.0
H3829 H 0.65434 0.05148 0.92978 0.0
H3830 H 0.63495 0.06546 0.92943 0.0
S3831 S 0.67066 0.09329 0.897 0.0
N3832 N 0.67637 0.07936 0.90269 0.0
N3833 N 0.65571 0.09476 0.90295 0.0
C3834 C 0.65476 0.08358 0.90995 0.0
C3835 C 0.66604 0.07535 0.91 0.0
C3836 C 0.16486 0.57275 0.42148 0.0
C3837 C 0.16497 0.56171 0.41313 0.0
C3838 C 0.15381 0.58082 0.4225 0.0
C3839 C 0.14245 0.57815 0.41522 0.0
H3840 H 0.17353 0.57541 0.427 0.0
H3841 H 0.15438 0.58951 0.4286 0.0
S3842 S 0.13703 0.5499 0.39301 0.0
N3843 N 0.1523 0.54816 0.39809 0.0
N3844 N 0.13143 0.56322 0.40031 0.0
C3845 C 0.14212 0.56682 0.40739 0.0
C3846 C 0.15339 0.5586 0.40631 0.0
C3847 C 0.65632 0.95396 0.5965 0.0
C3848 C 0.66595 0.95188 0.60606 0.0
C3849 C 0.64506 0.94602 0.59585 0.0
C3850 C 0.64306 0.93582 0.60479 0.0
H3851 H 0.65764 0.96158 0.58935 0.0
H3852 H 0.63787 0.94789 0.58833 0.0
S3853 S 0.66557 0.92646 0.63159 0.0
N3854 N 0.6727 0.93916 0.62475 0.0
N3855 N 0.65198 0.92392 0.62322 0.0
C3856 C 0.65269 0.93372 0.61437 0.0
C3857 C 0.664 0.94183 0.61509 0.0
C3858 C 0.3525 0.44474 0.92334 0.0
C3859 C 0.35095 0.45421 0.91362 0.0
C3860 C 0.36355 0.43657 0.9235 0.0
C3861 C 0.37333 0.43755 0.91388 0.0
H3862 H 0.3451 0.44361 0.93081 0.0
H3863 H 0.36423 0.42917 0.93096 0.0
S3864 S 0.37412 0.46113 0.88668 0.0
N3865 N 0.36021 0.46424 0.89429 0.0
N3866 N 0.38111 0.4492 0.89487 0.0
C3867 C 0.37204 0.44722 0.90435 0.0
C3868 C 0.36082 0.45546 0.90415 0.0
C3869 C 0.85974 0.06249 0.09277 0.0
C3870 C 0.85051 0.06335 0.10295 0.0
C3871 C 0.8709 0.07049 0.09261 0.0
C3872 C 0.87324 0.07979 0.10255 0.0
H3873 H 0.85836 0.05552 0.08487 0.0
H3874 H 0.87781 0.06925 0.08468 0.0
S3875 S 0.85209 0.0859 0.13144 0.0
N3876 N 0.84473 0.07387 0.12347 0.0
N3877 N 0.86508 0.08964 0.12266 0.0
C3878 C 0.86399 0.08086 0.1127 0.0
C3879 C 0.85278 0.0725 0.113 0.0
C3880 C 0.09447 0.16071 0.44056 0.0
C3881 C 0.10371 0.16184 0.45073 0.0
C3882 C 0.09392 0.14955 0.4326 0.0
C3883 C 0.10254 0.13903 0.43454 0.0
H3884 H 0.08785 0.16871 0.43848 0.0
H3885 H 0.08707 0.1494 0.42453 0.0
S3886 S 0.12769 0.13642 0.46046 0.0
N3887 N 0.12124 0.15109 0.46265 0.0
N3888 N 0.11976 0.12985 0.44799 0.0
C3889 C 0.11133 0.13968 0.44507 0.0
C3890 C 0.11199 0.15112 0.45312 0.0
C3891 C 0.07016 0.92445 0.66727 0.0
C3892 C 0.06331 0.91308 0.67069 0.0
C3893 C 0.07879 0.9244 0.65662 0.0
C3894 C 0.08072 0.91302 0.64898 0.0
H3895 H 0.06884 0.93339 0.67286 0.0
H3896 H 0.08416 0.93329 0.65453 0.0
S3897 S 0.06385 0.88115 0.65342 0.0
N3898 N 0.05836 0.89045 0.66546 0.0
N3899 N 0.07409 0.8904 0.64513 0.0
C3900 C 0.07351 0.90173 0.65215 0.0
C3901 C 0.06492 0.90176 0.66308 0.0
C3902 C 0.42208 0.85266 0.93931 0.0
C3903 C 0.41246 0.85172 0.94911 0.0
C3904 C 0.42309 0.86376 0.9315 0.0
C3905 C 0.41455 0.87442 0.93321 0.0
H3906 H 0.42867 0.84455 0.9374 0.0
H3907 H 0.43025 0.86375 0.92371 0.0
S3908 S 0.38845 0.87752 0.95818 0.0
N3909 N 0.39463 0.86278 0.96045 0.0
N3910 N 0.39694 0.8839 0.94612 0.0
C3911 C 0.40535 0.87395 0.94339 0.0
C3912 C 0.40423 0.86257 0.95128 0.0
C3913 C 0.4459 0.09827 0.16186 0.0
C3914 C 0.45234 0.10984 0.16565 0.0
C3915 C 0.43773 0.09794 0.15087 0.0
C3916 C 0.43563 0.10923 0.14337 0.0
H3917 H 0.44687 0.08953 0.16767 0.0
H3918 H 0.43258 0.08893 0.1486 0.0
S3919 S 0.45072 0.14186 0.14917 0.0
N3920 N 0.45634 0.13273 0.16113 0.0
N3921 N 0.44138 0.13212 0.1402 0.0
C3922 C 0.44243 0.12075 0.14687 0.0
C3923 C 0.45069 0.12105 0.15808 0.0
C3924 C 0.10679 0.8525 0.0781 0.0
C3925 C 0.09842 0.85169 0.06723 0.0
C3926 C 0.10678 0.86353 0.08629 0.0
C3927 C 0.09848 0.87425 0.08388 0.0
H3928 H 0.11366 0.84471 0.08013 0.0
H3929 H 0.11335 0.86365 0.09458 0.0
S3930 S 0.07439 0.87692 0.05695 0.0
N3931 N 0.08106 0.86233 0.05492 0.0
N3932 N 0.08166 0.88338 0.06986 0.0
C3933 C 0.08996 0.87354 0.07315 0.0
C3934 C 0.08979 0.86221 0.06493 0.0
C3935 C 0.45387 0.90265 0.36028 0.0
C3936 C 0.45239 0.91206 0.35048 0.0
C3937 C 0.44582 0.90273 0.37129 0.0
C3938 C 0.43596 0.9122 0.3729 0.0
H3939 H 0.4611 0.89494 0.3593 0.0
H3940 H 0.44725 0.89523 0.37853 0.0
S3941 S 0.42846 0.93935 0.35031 0.0
N3942 N 0.44082 0.93151 0.34338 0.0
N3943 N 0.42528 0.93139 0.36387 0.0
C3944 C 0.43453 0.92184 0.3633 0.0
C3945 C 0.44282 0.92181 0.35212 0.0
C3946 C 0.40843 0.15207 0.56331 0.0
C3947 C 0.41219 0.16435 0.5684 0.0
C3948 C 0.40927 0.14073 0.57089 0.0
C3949 C 0.41406 0.14135 0.58371 0.0
H3950 H 0.4042 0.1513 0.55365 0.0
H3951 H 0.40582 0.13151 0.56687 0.0
S3952 S 0.42613 0.17074 0.60132 0.0
N3953 N 0.42179 0.17614 0.58683 0.0
N3954 N 0.4231 0.15487 0.60104 0.0
C3955 C 0.41837 0.15338 0.58873 0.0
C3956 C 0.41753 0.16488 0.58107 0.0
C3957 C 0.07374 0.09293 0.84776 0.0
C3958 C 0.06268 0.10114 0.84783 0.0
C3959 C 0.08235 0.09266 0.85844 0.0
C3960 C 0.08024 0.10071 0.86945 0.0
H3961 H 0.07567 0.08661 0.83945 0.0
H3962 H 0.09085 0.08632 0.85799 0.0
S3963 S 0.05265 0.12375 0.87452 0.0
N3964 N 0.05011 0.11745 0.85987 0.0
N3965 N 0.06615 0.11677 0.87995 0.0
C3966 C 0.06918 0.10884 0.86967 0.0
C3967 C 0.06044 0.10911 0.85886 0.0
C3968 C 0.9539 0.41909 0.8598 0.0
C3969 C 0.95064 0.41164 0.84862 0.0
C3970 C 0.946 0.41897 0.87095 0.0
C3971 C 0.93449 0.41143 0.87134 0.0
H3972 H 0.96276 0.42495 0.86001 0.0
H3973 H 0.94908 0.42459 0.87942 0.0
S3974 S 0.92101 0.3909 0.84451 0.0
N3975 N 0.93487 0.39675 0.83864 0.0
N3976 N 0.91966 0.39711 0.85934 0.0
C3977 C 0.93083 0.40433 0.86011 0.0
C3978 C 0.93896 0.40432 0.8488 0.0
C3979 C 0.90677 0.66455 0.08113 0.0
C3980 C 0.91171 0.66423 0.06833 0.0
C3981 C 0.9074 0.6536 0.08912 0.0
C3982 C 0.91295 0.64182 0.08466 0.0
H3983 H 0.90224 0.67334 0.08501 0.0
H3984 H 0.90352 0.65439 0.09892 0.0
S3985 S 0.92734 0.6357 0.05204 0.0
N3986 N 0.92248 0.65111 0.05159 0.0
N3987 N 0.9235 0.63035 0.06669 0.0
C3988 C 0.91799 0.64128 0.07193 0.0
C3989 C 0.91733 0.6525 0.06372 0.0
C3990 C 0.57419 0.60824 0.34809 0.0
C3991 C 0.56289 0.60035 0.34812 0.0
C3992 C 0.58294 0.60831 0.35862 0.0
C3993 C 0.58068 0.60059 0.36969 0.0
H3994 H 0.57613 0.61472 0.34003 0.0
H3995 H 0.59151 0.61453 0.3581 0.0
S3996 S 0.55288 0.57766 0.3744 0.0
N3997 N 0.55044 0.58385 0.35981 0.0
N3998 N 0.56637 0.58468 0.37996 0.0
C3999 C 0.56955 0.59246 0.36977 0.0
C4000 C 0.56078 0.59219 0.35892 0.0
C4001 C 0.92244 0.35419 0.44027 0.0
C4002 C 0.91201 0.35257 0.44909 0.0
C4003 C 0.92318 0.36518 0.43227 0.0
C4004 C 0.91353 0.37499 0.4328 0.0
H4005 H 0.92989 0.3467 0.43925 0.0
H4006 H 0.93107 0.36571 0.42522 0.0
S4007 S 0.88479 0.37597 0.4549 0.0
N4008 N 0.89211 0.36199 0.45823 0.0
N4009 N 0.89384 0.38293 0.44358 0.0
C4010 C 0.90342 0.37382 0.44203 0.0
C4011 C 0.9026 0.36257 0.4501 0.0
C4012 C 0.61174 0.6621 0.93762 0.0
C4013 C 0.60424 0.66331 0.94906 0.0
C4014 C 0.61104 0.65089 0.92979 0.0
C4015 C 0.6029 0.64034 0.93312 0.0
H4016 H 0.61822 0.66992 0.93464 0.0
H4017 H 0.61684 0.65058 0.92096 0.0
S4018 S 0.58137 0.63846 0.96212 0.0
N4019 N 0.58836 0.65302 0.96335 0.0
N4020 N 0.5873 0.63166 0.94871 0.0
C4021 C 0.5954 0.64132 0.94457 0.0
C4022 C 0.59608 0.65283 0.95257 0.0
C4023 C 0.82347 0.6021 0.84825 0.0
C4024 C 0.81493 0.6009 0.85886 0.0
C4025 C 0.83166 0.61306 0.84709 0.0
C4026 C 0.8318 0.62308 0.85666 0.0
H4027 H 0.8237 0.5946 0.84072 0.0
H4028 H 0.83799 0.61363 0.83865 0.0
S4029 S 0.81117 0.62423 0.88645 0.0
N4030 N 0.80675 0.61057 0.87893 0.0
N4031 N 0.82262 0.63081 0.87724 0.0
C4032 C 0.82318 0.62195 0.8673 0.0
C4033 C 0.81467 0.61093 0.8683 0.0
C4034 C 0.18994 0.10292 0.67357 0.0
C4035 C 0.20124 0.10225 0.66575 0.0
C4036 C 0.18177 0.1139 0.67349 0.0
C4037 C 0.18443 0.12468 0.66546 0.0
H4038 H 0.18713 0.09469 0.67953 0.0
H4039 H 0.17307 0.11374 0.67953 0.0
S4040 S 0.21362 0.12844 0.64421 0.0
N4041 N 0.21537 0.11381 0.65068 0.0
N4042 N 0.19987 0.13442 0.65029 0.0
C4043 C 0.19617 0.12452 0.65822 0.0
C4044 C 0.20459 0.11331 0.65841 0.0
C4045 C 0.70366 0.40282 0.34943 0.0
C4046 C 0.70022 0.41436 0.3562 0.0
C4047 C 0.69543 0.39176 0.34963 0.0
C4048 C 0.68357 0.39199 0.35661 0.0
H4049 H 0.71253 0.40249 0.34364 0.0
H4050 H 0.69811 0.38318 0.34396 0.0
S4051 S 0.67084 0.41919 0.37703 0.0
N4052 N 0.68468 0.42484 0.37095 0.0
N4053 N 0.66927 0.4042 0.37116 0.0
C4054 C 0.68032 0.40325 0.36379 0.0
C4055 C 0.68863 0.41441 0.36363 0.0
C4056 C 0.3144 0.90827 0.16805 0.0
C4057 C 0.31383 0.916 0.15674 0.0
C4058 C 0.32255 0.89725 0.16867 0.0
C4059 C 0.33023 0.89351 0.15794 0.0
H4060 H 0.30863 0.91087 0.17654 0.0
H4061 H 0.32297 0.89171 0.1776 0.0
S4062 S 0.33206 0.90987 0.12602 0.0
N4063 N 0.32145 0.91871 0.13447 0.0
N4064 N 0.33684 0.89804 0.13579 0.0
C4065 C 0.32969 0.90096 0.14659 0.0
C4066 C 0.32147 0.91221 0.14595 0.0
C4067 C 0.81556 0.40707 0.64764 0.0
C4068 C 0.81355 0.41518 0.65857 0.0
C4069 C 0.82356 0.39596 0.64843 0.0
C4070 C 0.82975 0.39265 0.66019 0.0
H4071 H 0.81105 0.40944 0.6384 0.0
H4072 H 0.82525 0.39019 0.63969 0.0
S4073 S 0.82624 0.41001 0.6919 0.0
N4074 N 0.8174 0.41872 0.68165 0.0
N4075 N 0.83239 0.39777 0.68325 0.0
C4076 C 0.82733 0.40043 0.67131 0.0
C4077 C 0.81922 0.41173 0.67048 0.0
C4078 C 0.32222 0.10476 0.36844 0.0
C4079 C 0.31509 0.10025 0.35753 0.0
C4080 C 0.33017 0.11592 0.36771 0.0
C4081 C 0.33131 0.12288 0.35604 0.0
H4082 H 0.32152 0.0997 0.37764 0.0
H4083 H 0.33566 0.11901 0.37625 0.0
S4084 S 0.31492 0.11523 0.32471 0.0
N4085 N 0.30978 0.10372 0.33468 0.0
N4086 N 0.32486 0.12464 0.33339 0.0
C4087 C 0.32429 0.11855 0.34509 0.0
C4088 C 0.31612 0.10726 0.34582 0.0
C4089 C 0.68772 0.60146 0.15727 0.0
C4090 C 0.70031 0.60197 0.16288 0.0
C4091 C 0.67956 0.61241 0.15714 0.0
C4092 C 0.68364 0.62442 0.16254 0.0
H4093 H 0.68405 0.59246 0.15295 0.0
H4094 H 0.66989 0.61144 0.15286 0.0
S4095 S 0.71572 0.63121 0.17819 0.0
N4096 N 0.71656 0.61563 0.17382 0.0
N4097 N 0.70115 0.63638 0.17342 0.0
C4098 C 0.69633 0.62528 0.16784 0.0
C4099 C 0.70468 0.61402 0.16804 0.0
C4100 C 0.1876 0.91412 0.86218 0.0
C4101 C 0.20005 0.91368 0.85629 0.0
C4102 C 0.17946 0.90316 0.86239 0.0
C4103 C 0.18339 0.89122 0.85677 0.0
H4104 H 0.18403 0.92309 0.86662 0.0
H4105 H 0.16989 0.9041 0.86688 0.0
S4106 S 0.21515 0.88458 0.84051 0.0
N4107 N 0.21609 0.90013 0.84499 0.0
N4108 N 0.20067 0.87935 0.84547 0.0
C4109 C 0.19597 0.8904 0.85124 0.0
C4110 C 0.20433 0.90167 0.85098 0.0
C4111 C 0.84484 0.82505 0.60414 0.0
C4112 C 0.85457 0.81538 0.60354 0.0
C4113 C 0.84374 0.8333 0.61505 0.0
C4114 C 0.85254 0.83239 0.62563 0.0
H4115 H 0.83803 0.82622 0.59613 0.0
H4116 H 0.83603 0.84058 0.61509 0.0
S4117 S 0.87967 0.8084 0.62867 0.0
N4118 N 0.87283 0.80492 0.61448 0.0
N4119 N 0.87125 0.82082 0.63472 0.0
C4120 C 0.86216 0.82253 0.6252 0.0
C4121 C 0.86308 0.81397 0.6142 0.0
C4122 C 0.91425 0.17114 0.31823 0.0
C4123 C 0.91541 0.16049 0.30959 0.0
C4124 C 0.90331 0.17236 0.32641 0.0
C4125 C 0.89327 0.16284 0.32643 0.0
H4126 H 0.92178 0.17861 0.31856 0.0
H4127 H 0.90278 0.1808 0.33285 0.0
S4128 S 0.89196 0.13305 0.30548 0.0
N4129 N 0.90565 0.14047 0.30118 0.0
N4130 N 0.88542 0.14232 0.31701 0.0
C4131 C 0.89433 0.1522 0.31769 0.0
C4132 C 0.90534 0.15112 0.3092 0.0
C4133 C 0.65537 0.18958 0.10475 0.0
C4134 C 0.66109 0.20209 0.10537 0.0
C4135 C 0.65623 0.18098 0.11522 0.0
C4136 C 0.66278 0.18453 0.12679 0.0
H4137 H 0.64991 0.18649 0.09621 0.0
H4138 H 0.65158 0.17148 0.11432 0.0
S4139 S 0.68019 0.21574 0.13327 0.0
N4140 N 0.67423 0.21731 0.1184 0.0
N4141 N 0.67549 0.20115 0.1382 0.0
C4142 C 0.66863 0.19694 0.1276 0.0
C4143 C 0.66789 0.20569 0.11687 0.0
C4144 C 0.6009 0.85952 0.82423 0.0
C4145 C 0.60023 0.8517 0.81289 0.0
C4146 C 0.61187 0.8593 0.83236 0.0
C4147 C 0.6227 0.85135 0.82944 0.0
H4148 H 0.59274 0.86574 0.82699 0.0
H4149 H 0.61178 0.86523 0.84117 0.0
S4150 S 0.62619 0.82926 0.80085 0.0
N4151 N 0.61154 0.83593 0.79902 0.0
N4152 N 0.63237 0.83568 0.81436 0.0
C4153 C 0.62246 0.84382 0.81793 0.0
C4154 C 0.61118 0.84397 0.80962 0.0
C4155 C 0.8423 0.1894 0.91356 0.0
C4156 C 0.85152 0.19957 0.91492 0.0
C4157 C 0.84225 0.18118 0.90259 0.0
C4158 C 0.85148 0.18269 0.89253 0.0
H4159 H 0.83531 0.1875 0.92125 0.0
H4160 H 0.83513 0.17331 0.9022 0.0
S4161 S 0.87698 0.20853 0.89079 0.0
N4162 N 0.86951 0.21132 0.90481 0.0
N4163 N 0.86952 0.19574 0.88421 0.0
C4164 C 0.86025 0.1933 0.89337 0.0
C4165 C 0.86026 0.20175 0.90456 0.0
C4166 C 0.61161 0.16953 0.70786 0.0
C4167 C 0.60007 0.16315 0.70372 0.0
C4168 C 0.62278 0.16984 0.69983 0.0
C4169 C 0.62268 0.16376 0.68748 0.0
H4170 H 0.61185 0.17464 0.71715 0.0
H4171 H 0.63137 0.1752 0.70308 0.0
S4172 S 0.59554 0.14452 0.67281 0.0
N4173 N 0.58973 0.14964 0.68697 0.0
N4174 N 0.61059 0.15037 0.67195 0.0
C4175 C 0.61142 0.15692 0.68352 0.0
C4176 C 0.60015 0.15657 0.69162 0.0
C4177 C 0.67032 0.82204 0.40941 0.0
C4178 C 0.65942 0.81379 0.41068 0.0
C4179 C 0.67161 0.83021 0.39858 0.0
C4180 C 0.66192 0.83059 0.38875 0.0
H4181 H 0.67795 0.82208 0.41676 0.0
H4182 H 0.68026 0.83633 0.39795 0.0
S4183 S 0.63141 0.81073 0.38785 0.0
N4184 N 0.63895 0.80612 0.40128 0.0
N4185 N 0.64094 0.82193 0.38127 0.0
C4186 C 0.65101 0.82224 0.38995 0.0
C4187 C 0.64985 0.81376 0.40084 0.0
C4188 C 0.90698 0.85942 0.20595 0.0
C4189 C 0.91722 0.85039 0.20392 0.0
C4190 C 0.89594 0.85953 0.19775 0.0
C4191 C 0.89481 0.85063 0.18727 0.0
H4192 H 0.90788 0.86695 0.21339 0.0
H4193 H 0.88866 0.86712 0.19914 0.0
S4194 S 0.91775 0.82355 0.17934 0.0
N4195 N 0.92466 0.83127 0.19176 0.0
N4196 N 0.90392 0.8314 0.17649 0.0
C4197 C 0.90447 0.84091 0.18583 0.0
C4198 C 0.91567 0.84082 0.19411 0.0
C4199 C 0.10472 0.67574 0.19893 0.0
C4200 C 0.10191 0.66463 0.20637 0.0
C4201 C 0.1157 0.67609 0.19078 0.0
C4202 C 0.12414 0.66525 0.18957 0.0
H4203 H 0.09814 0.68406 0.19912 0.0
H4204 H 0.11735 0.6848 0.18506 0.0
S4205 S 0.12094 0.6338 0.20703 0.0
N4206 N 0.10848 0.64267 0.21233 0.0
N4207 N 0.12895 0.64312 0.19667 0.0
C4208 C 0.12164 0.65422 0.19728 0.0
C4209 C 0.11054 0.65395 0.20574 0.0
C4210 C 0.15401 0.32607 0.91137 0.0
C4211 C 0.15908 0.31329 0.9107 0.0
C4212 C 0.15498 0.33455 0.90078 0.0
C4213 C 0.16097 0.33057 0.88906 0.0
H4214 H 0.14897 0.32949 0.92003 0.0
H4215 H 0.15085 0.34428 0.90171 0.0
S4216 S 0.1768 0.29861 0.88247 0.0
N4217 N 0.1712 0.29744 0.8975 0.0
N4218 N 0.1726 0.31333 0.8775 0.0
C4219 C 0.16623 0.31793 0.88823 0.0
C4220 C 0.16541 0.30932 0.89908 0.0
C4221 C 0.41185 0.34053 0.69914 0.0
C4222 C 0.41659 0.3523 0.7045 0.0
C4223 C 0.40076 0.34041 0.69102 0.0
C4224 C 0.39413 0.35208 0.68798 0.0
H4225 H 0.41703 0.33145 0.70082 0.0
H4226 H 0.3976 0.3312 0.68675 0.0
S4227 S 0.40308 0.38544 0.69928 0.0
N4228 N 0.41405 0.37584 0.70616 0.0
N4229 N 0.39325 0.37567 0.69087 0.0
C4230 C 0.39865 0.36385 0.69353 0.0
C4231 C 0.40991 0.36395 0.70178 0.0
C4232 C 0.17314 0.69827 0.61055 0.0
C4233 C 0.16072 0.7022 0.60614 0.0
C4234 C 0.1744 0.69017 0.62143 0.0
C4235 C 0.16329 0.68601 0.62839 0.0
H4236 H 0.1819 0.70135 0.60545 0.0
H4237 H 0.1841 0.68706 0.62438 0.0
S4238 S 0.12871 0.69434 0.62114 0.0
N4239 N 0.13722 0.70186 0.60976 0.0
N4240 N 0.13956 0.68671 0.63029 0.0
C4241 C 0.15087 0.69021 0.62427 0.0
C4242 C 0.14959 0.69829 0.61311 0.0
C4243 C 0.34646 0.3269 0.10199 0.0
C4244 C 0.35425 0.31562 0.10236 0.0
C4245 C 0.34536 0.33513 0.11291 0.0
C4246 C 0.35231 0.33261 0.12452 0.0
H4247 H 0.34112 0.32934 0.09321 0.0
H4248 H 0.33911 0.34365 0.11216 0.0
S4249 S 0.37382 0.30394 0.13042 0.0
N4250 N 0.36854 0.30189 0.11534 0.0
N4251 N 0.36709 0.31769 0.13566 0.0
C4252 C 0.35992 0.32113 0.12507 0.0
C4253 C 0.36078 0.3126 0.11403 0.0
C4254 C 0.56302 0.40367 0.15977 0.0
C4255 C 0.5628 0.41408 0.16879 0.0
C4256 C 0.57138 0.40389 0.14901 0.0
C4257 C 0.57983 0.41454 0.14686 0.0
H4258 H 0.55686 0.39516 0.16121 0.0
H4259 H 0.57128 0.39559 0.14236 0.0
S4260 S 0.58235 0.44457 0.16736 0.0
N4261 N 0.57112 0.43559 0.17465 0.0
N4262 N 0.58717 0.43595 0.15455 0.0
C4263 C 0.57946 0.42518 0.15568 0.0
C4264 C 0.5709 0.42494 0.16664 0.0
C4265 C 0.94355 0.59868 0.66456 0.0
C4266 C 0.95303 0.6086 0.66617 0.0
C4267 C 0.93561 0.59807 0.65346 0.0
C4268 C 0.93688 0.6073 0.64348 0.0
H4269 H 0.94199 0.59155 0.67215 0.0
H4270 H 0.92806 0.59061 0.65295 0.0
S4271 S 0.96088 0.63451 0.64231 0.0
N4272 N 0.96359 0.62753 0.6565 0.0
N4273 N 0.94902 0.62597 0.63534 0.0
C4274 C 0.94674 0.61686 0.64462 0.0
C4275 C 0.95476 0.61757 0.656 0.0
C4276 C 0.59357 0.36369 0.56359 0.0
C4277 C 0.59918 0.35185 0.56775 0.0
C4278 C 0.59354 0.37481 0.57169 0.0
C4279 C 0.59924 0.37445 0.58414 0.0
H4280 H 0.58922 0.36437 0.55399 0.0
H4281 H 0.58931 0.3838 0.56811 0.0
S4282 S 0.61484 0.34589 0.5998 0.0
N4283 N 0.61049 0.34051 0.58521 0.0
N4284 N 0.61005 0.36129 0.60053 0.0
C4285 C 0.60462 0.36265 0.58852 0.0
C4286 C 0.60468 0.35137 0.5803 0.0
C4287 C 0.41504 0.66879 0.82007 0.0
C4288 C 0.41506 0.6597 0.80975 0.0
C4289 C 0.40418 0.66996 0.82835 0.0
C4290 C 0.39305 0.66185 0.82685 0.0
H4291 H 0.42342 0.67512 0.82167 0.0
H4292 H 0.40459 0.67724 0.83608 0.0
S4293 S 0.38839 0.63649 0.80109 0.0
N4294 N 0.40299 0.64275 0.79811 0.0
N4295 N 0.38287 0.6444 0.81405 0.0
C4296 C 0.39293 0.65283 0.8164 0.0
C4297 C 0.40388 0.65186 0.8078 0.0
C4298 C 0.10611 0.36113 0.31678 0.0
C4299 C 0.10046 0.34966 0.31159 0.0
C4300 C 0.11717 0.36059 0.32487 0.0
C4301 C 0.12277 0.34854 0.32821 0.0
H4302 H 0.10166 0.37055 0.31492 0.0
H4303 H 0.12097 0.3696 0.32905 0.0
S4304 S 0.11187 0.31575 0.31693 0.0
N4305 N 0.10148 0.32597 0.31001 0.0
N4306 N 0.12219 0.32492 0.32546 0.0
C4307 C 0.11742 0.33702 0.32284 0.0
C4308 C 0.10627 0.33759 0.31446 0.0
C4309 C 0.34658 0.70113 0.40454 0.0
C4310 C 0.3532 0.69743 0.41597 0.0
C4311 C 0.34644 0.6929 0.39347 0.0
C4312 C 0.35292 0.68075 0.39356 0.0
H4313 H 0.34118 0.71025 0.40429 0.0
H4314 H 0.34091 0.69583 0.38497 0.0
S4315 S 0.37287 0.66724 0.42043 0.0
N4316 N 0.36733 0.68131 0.42619 0.0
N4317 N 0.36691 0.6659 0.40553 0.0
C4318 C 0.35996 0.67722 0.40472 0.0
C4319 C 0.36014 0.68553 0.41589 0.0
C4320 C 0.12486 0.31883 0.04855 0.0
C4321 C 0.11928 0.31775 0.03607 0.0
C4322 C 0.11963 0.32751 0.05787 0.0
C4323 C 0.10864 0.33531 0.055 0.0
H4324 H 0.13348 0.31317 0.05099 0.0
H4325 H 0.12442 0.32836 0.06726 0.0
S4326 S 0.08983 0.3351 0.02407 0.0
N4327 N 0.10186 0.32458 0.02152 0.0
N4328 N 0.09188 0.34069 0.03909 0.0
C4329 C 0.10279 0.334 0.04266 0.0
C4330 C 0.10816 0.32527 0.03318 0.0
C4331 C 0.9677 0.8605 0.33612 0.0
C4332 C 0.96843 0.87062 0.32696 0.0
C4333 C 0.96312 0.86292 0.34884 0.0
C4334 C 0.95887 0.87548 0.35267 0.0
H4335 H 0.97014 0.85057 0.33326 0.0
H4336 H 0.96216 0.85477 0.35544 0.0
S4337 S 0.95957 0.90535 0.33243 0.0
N4338 N 0.96514 0.89367 0.32269 0.0
N4339 N 0.9566 0.89829 0.34653 0.0
C4340 C 0.96014 0.88575 0.34373 0.0
C4341 C 0.96487 0.8833 0.33087 0.0
C4342 C 0.40399 0.68862 0.53448 0.0
C4343 C 0.39286 0.6958 0.5383 0.0
C4344 C 0.40998 0.67983 0.54305 0.0
C4345 C 0.40503 0.67799 0.55569 0.0
H4346 H 0.40822 0.69001 0.52492 0.0
H4347 H 0.41859 0.67452 0.53982 0.0
S4348 S 0.37555 0.69376 0.56992 0.0
N4349 N 0.37683 0.70014 0.55525 0.0
N4350 N 0.38795 0.68348 0.5713 0.0
C4351 C 0.39379 0.68497 0.55951 0.0
C4352 C 0.38774 0.69392 0.55082 0.0
C4353 C 0.55709 0.15552 0.836 0.0
C4354 C 0.54946 0.14645 0.82882 0.0
C4355 C 0.56105 0.15301 0.84882 0.0
C4356 C 0.55748 0.14137 0.855 0.0
H4357 H 0.56042 0.16448 0.83152 0.0
H4358 H 0.56741 0.15997 0.85374 0.0
S4359 S 0.53663 0.11495 0.8413 0.0
N4360 N 0.53778 0.12567 0.82941 0.0
N4361 N 0.54518 0.12111 0.85359 0.0
C4362 C 0.54932 0.13252 0.84831 0.0
C4363 C 0.54526 0.13505 0.83522 0.0
C4364 C 0.12702 0.68531 0.47875 0.0
C4365 C 0.12101 0.6975 0.48106 0.0
C4366 C 0.12198 0.67646 0.46952 0.0
C4367 C 0.11074 0.67945 0.46216 0.0
H4368 H 0.13574 0.68257 0.48409 0.0
H4369 H 0.12702 0.66724 0.46806 0.0
S4370 S 0.09099 0.70979 0.46474 0.0
N4371 N 0.10294 0.71193 0.47542 0.0
N4372 N 0.09357 0.69531 0.45797 0.0
C4373 C 0.10466 0.69161 0.46429 0.0
C4374 C 0.10976 0.70063 0.47374 0.0
C4375 C 0.55637 0.8586 0.68074 0.0
C4376 C 0.54929 0.86797 0.68809 0.0
C4377 C 0.56027 0.86105 0.6679 0.0
C4378 C 0.55723 0.87293 0.6619 0.0
H4379 H 0.55932 0.84946 0.68511 0.0
H4380 H 0.56624 0.85385 0.66285 0.0
S4381 S 0.53799 0.90022 0.67612 0.0
N4382 N 0.53871 0.88931 0.68787 0.0
N4383 N 0.54604 0.89377 0.66366 0.0
C4384 C 0.54963 0.8821 0.66877 0.0
C4385 C 0.5456 0.87963 0.68186 0.0
C4386 C 0.40373 0.33164 0.98154 0.0
C4387 C 0.39678 0.32052 0.97725 0.0
C4388 C 0.40927 0.34035 0.97268 0.0
C4389 C 0.40793 0.33846 0.95913 0.0
H4390 H 0.40502 0.33356 0.99186 0.0
H4391 H 0.41469 0.34864 0.97655 0.0
S4392 S 0.39006 0.31106 0.94295 0.0
N4393 N 0.38868 0.30807 0.95866 0.0
N4394 N 0.39865 0.3247 0.94192 0.0
C4395 C 0.40094 0.32735 0.95472 0.0
C4396 C 0.39547 0.31834 0.96379 0.0
C4397 C 0.95949 0.13253 0.18458 0.0
C4398 C 0.9676 0.14318 0.18782 0.0
C4399 C 0.95497 0.1306 0.17184 0.0
C4400 C 0.9581 0.13939 0.1618 0.0
H4401 H 0.95665 0.12559 0.19198 0.0
H4402 H 0.94878 0.12218 0.1699 0.0
S4403 S 0.97966 0.16854 0.16517 0.0
N4404 N 0.9793 0.16222 0.17991 0.0
N4405 N 0.97033 0.15897 0.15601 0.0
C4406 C 0.96658 0.14988 0.16483 0.0
C4407 C 0.9714 0.1517 0.17782 0.0
C4408 C 0.04578 0.12635 0.32501 0.0
C4409 C 0.04076 0.11885 0.31455 0.0
C4410 C 0.05466 0.12102 0.3339 0.0
C4411 C 0.05901 0.10805 0.33257 0.0
H4412 H 0.04279 0.13643 0.3264 0.0
H4413 H 0.05817 0.12709 0.34189 0.0
S4414 S 0.04864 0.08406 0.30739 0.0
N4415 N 0.0405 0.09751 0.3038 0.0
N4416 N 0.05765 0.08773 0.32029 0.0
C4417 C 0.05427 0.10046 0.32214 0.0
C4418 C 0.04505 0.10581 0.31318 0.0
C4419 C 0.15199 0.83073 0.56619 0.0
C4420 C 0.14438 0.82614 0.55566 0.0
C4421 C 0.15074 0.8436 0.57085 0.0
C4422 C 0.14195 0.85241 0.56509 0.0
H4423 H 0.15887 0.8243 0.57097 0.0
H4424 H 0.15651 0.84663 0.57923 0.0
S4425 S 0.11969 0.84544 0.53737 0.0
N4426 N 0.12759 0.83155 0.53967 0.0
N4427 N 0.12558 0.85584 0.54833 0.0
C4428 C 0.13453 0.84814 0.55437 0.0
C4429 C 0.13567 0.83498 0.54967 0.0
C4430 C 0.47779 0.89208 0.82428 0.0
C4431 C 0.47557 0.89373 0.81079 0.0
C4432 C 0.46923 0.8972 0.83376 0.0
C4433 C 0.45828 0.90489 0.83042 0.0
H4434 H 0.48627 0.88686 0.82777 0.0
H4435 H 0.47127 0.89496 0.84384 0.0
S4436 S 0.44787 0.91299 0.79676 0.0
N4437 N 0.46046 0.90308 0.79482 0.0
N4438 N 0.44634 0.91491 0.81262 0.0
C4439 C 0.45616 0.90714 0.81707 0.0
C4440 C 0.46428 0.90109 0.80733 0.0
C4441 C 0.36079 0.18715 0.05675 0.0
C4442 C 0.371 0.19341 0.05004 0.0
C4443 C 0.36221 0.17426 0.06114 0.0
C4444 C 0.37393 0.16733 0.05906 0.0
H4445 H 0.3517 0.19229 0.05868 0.0
H4446 H 0.35431 0.16984 0.06661 0.0
S4447 S 0.40351 0.17922 0.04195 0.0
N4448 N 0.39311 0.19159 0.04134 0.0
N4449 N 0.3958 0.16747 0.0498 0.0
C4450 C 0.38411 0.17338 0.05221 0.0
C4451 C 0.38263 0.1864 0.04763 0.0
C4452 C 0.03507 0.90114 0.1932 0.0
C4453 C 0.04022 0.89431 0.20387 0.0
C4454 C 0.04332 0.90705 0.18404 0.0
C4455 C 0.0571 0.90622 0.18503 0.0
H4456 H 0.02456 0.90224 0.19211 0.0
H4457 H 0.03882 0.91245 0.1762 0.0
S4458 S 0.07549 0.88843 0.21062 0.0
N4459 N 0.05994 0.88653 0.21461 0.0
N4460 N 0.07543 0.89721 0.19723 0.0
C4461 C 0.06236 0.89915 0.19553 0.0
C4462 C 0.05394 0.89328 0.20494 0.0
C4463 C 0.37771 0.83085 0.47059 0.0
C4464 C 0.3684 0.82288 0.46416 0.0
C4465 C 0.38014 0.84371 0.46648 0.0
C4466 C 0.37328 0.84895 0.45588 0.0
H4467 H 0.38356 0.82693 0.47846 0.0
H4468 H 0.38775 0.84938 0.47127 0.0
S4469 S 0.34698 0.83281 0.43676 0.0
N4470 N 0.35148 0.82173 0.44747 0.0
N4471 N 0.3563 0.84574 0.43964 0.0
C4472 C 0.36358 0.84135 0.44979 0.0
C4473 C 0.36106 0.82835 0.45397 0.0
C4474 C 0.4642 0.12305 0.7047 0.0
C4475 C 0.47786 0.12342 0.70277 0.0
C4476 C 0.45574 0.11756 0.69534 0.0
C4477 C 0.46053 0.11197 0.68366 0.0
H4478 H 0.45997 0.12718 0.7135 0.0
H4479 H 0.44531 0.11796 0.69724 0.0
S4480 S 0.49574 0.10957 0.67439 0.0
N4481 N 0.49589 0.1174 0.68852 0.0
N4482 N 0.48017 0.10651 0.67121 0.0
C4483 C 0.47426 0.11207 0.68174 0.0
C4484 C 0.48285 0.11793 0.6912 0.0
C4485 C 0.14964 0.18618 0.95008 0.0
C4486 C 0.1441 0.19 0.96207 0.0
C4487 C 0.14835 0.17336 0.94534 0.0
C4488 C 0.14155 0.16379 0.9524 0.0
H4489 H 0.15494 0.19319 0.94424 0.0
H4490 H 0.15256 0.17096 0.93592 0.0
S4491 S 0.12533 0.16849 0.98437 0.0
N4492 N 0.13154 0.18299 0.98098 0.0
N4493 N 0.12942 0.15881 0.97207 0.0
C4494 C 0.13631 0.16728 0.96458 0.0
C4495 C 0.1375 0.1804 0.9694 0.0
C4496 C 0.32904 0.03737 0.11465 0.0
C4497 C 0.31681 0.04128 0.11959 0.0
C4498 C 0.33779 0.04644 0.1094 0.0
C4499 C 0.33488 0.05994 0.1092 0.0
H4500 H 0.33183 0.02714 0.11469 0.0
H4501 H 0.3469 0.04274 0.10544 0.0
S4502 S 0.30406 0.07516 0.12142 0.0
N4503 N 0.30203 0.05937 0.12392 0.0
N4504 N 0.31872 0.07666 0.1148 0.0
C4505 C 0.32259 0.06396 0.11416 0.0
C4506 C 0.31353 0.0546 0.1192 0.0
C4507 C 0.81834 0.46943 0.90855 0.0
C4508 C 0.82038 0.47482 0.89612 0.0
C4509 C 0.82706 0.46022 0.91373 0.0
C4510 C 0.8382 0.4562 0.90672 0.0
H4511 H 0.81013 0.47261 0.91447 0.0
H4512 H 0.82529 0.45649 0.92341 0.0
S4513 S 0.84733 0.46614 0.8733 0.0
N4514 N 0.83383 0.47446 0.87652 0.0
N4515 N 0.85036 0.45748 0.88645 0.0
C4516 C 0.84018 0.46119 0.89418 0.0
C4517 C 0.83125 0.47042 0.88884 0.0
C4518 C 0.83014 0.5551 0.13685 0.0
C4519 C 0.82617 0.5496 0.14869 0.0
C4520 C 0.84306 0.55937 0.13499 0.0
C4521 C 0.85252 0.55858 0.14499 0.0
H4522 H 0.82304 0.55659 0.12915 0.0
H4523 H 0.84553 0.5638 0.12576 0.0
S4524 S 0.84709 0.54427 0.17766 0.0
N4525 N 0.83272 0.54288 0.17032 0.0
N4526 N 0.857 0.55119 0.16702 0.0
C4527 C 0.84879 0.55252 0.1567 0.0
C4528 C 0.8356 0.54803 0.15852 0.0
C4529 C 0.69995 0.54375 0.40464 0.0
C4530 C 0.69857 0.5388 0.39183 0.0
C4531 C 0.69089 0.55262 0.4099 0.0
C4532 C 0.68003 0.5567 0.40261 0.0
H4533 H 0.70807 0.54068 0.41069 0.0
H4534 H 0.69226 0.55614 0.4198 0.0
S4535 S 0.6724 0.54762 0.3684 0.0
N4536 N 0.6859 0.53939 0.37176 0.0
N4537 N 0.66866 0.55581 0.38183 0.0
C4538 C 0.67857 0.55199 0.3898 0.0
C4539 C 0.68786 0.54306 0.38437 0.0
C4540 C 0.17913 0.97408 0.14847 0.0
C4541 C 0.19002 0.96581 0.1463 0.0
C4542 C 0.16621 0.96954 0.14685 0.0
C4543 C 0.16369 0.95653 0.14305 0.0
H4544 H 0.18059 0.98421 0.15133 0.0
H4545 H 0.15818 0.97633 0.14828 0.0
S4546 S 0.18854 0.93076 0.1366 0.0
N4547 N 0.19723 0.94396 0.14006 0.0
N4548 N 0.17307 0.93523 0.13795 0.0
C4549 C 0.17444 0.94807 0.14127 0.0
C4550 C 0.18755 0.95274 0.14268 0.0
C4551 C 0.19895 0.97507 0.61303 0.0
C4552 C 0.19978 0.9776 0.62654 0.0
C4553 C 0.18961 0.96633 0.60787 0.0
C4554 C 0.18076 0.95985 0.61605 0.0
H4555 H 0.20555 0.97993 0.60638 0.0
H4556 H 0.18922 0.96472 0.59743 0.0
S4557 S 0.17944 0.96209 0.65205 0.0
N4558 N 0.19135 0.97223 0.64798 0.0
N4559 N 0.17372 0.95595 0.63824 0.0
C4560 C 0.18155 0.96213 0.62954 0.0
C4561 C 0.19106 0.97099 0.6348 0.0
C4562 C 0.83561 0.46705 0.35931 0.0
C4563 C 0.82592 0.46495 0.36879 0.0
C4564 C 0.84853 0.46267 0.36124 0.0
C4565 C 0.8521 0.45615 0.37274 0.0
H4566 H 0.83304 0.47151 0.35012 0.0
H4567 H 0.85556 0.46378 0.35342 0.0
S4568 S 0.83072 0.45056 0.40141 0.0
N4569 N 0.821 0.45742 0.39058 0.0
N4570 N 0.84528 0.4496 0.39444 0.0
C4571 C 0.84266 0.45498 0.38266 0.0
C4572 C 0.82956 0.45926 0.38061 0.0
C4573 C 0.68175 0.54184 0.87007 0.0
C4574 C 0.69256 0.55052 0.86975 0.0
C4575 C 0.66884 0.54643 0.87142 0.0
C4576 C 0.6662 0.55988 0.87231 0.0
H4577 H 0.68327 0.53137 0.86949 0.0
H4578 H 0.66094 0.53938 0.87216 0.0
S4579 S 0.69054 0.58682 0.87076 0.0
N4580 N 0.69942 0.57335 0.87011 0.0
N4581 N 0.67517 0.58188 0.87143 0.0
C4582 C 0.67676 0.56867 0.87124 0.0
C4583 C 0.68991 0.56403 0.87024 0.0
C4584 C 0.88686 0.70295 0.93977 0.0
C4585 C 0.89449 0.71387 0.94339 0.0
C4586 C 0.88522 0.69936 0.92668 0.0
C4587 C 0.89126 0.70646 0.91669 0.0
H4588 H 0.88228 0.69698 0.94716 0.0
H4589 H 0.87945 0.69073 0.92439 0.0
S4590 S 0.91178 0.73613 0.92086 0.0
N4591 N 0.90777 0.73204 0.93589 0.0
N4592 N 0.90478 0.72516 0.91117 0.0
C4593 C 0.89872 0.71754 0.9201 0.0
C4594 C 0.90027 0.72131 0.93348 0.0
C4595 C 0.07259 0.1548 0.72802 0.0
C4596 C 0.06381 0.14462 0.72472 0.0
C4597 C 0.08099 0.16025 0.7187 0.0
C4598 C 0.081 0.15559 0.70579 0.0
H4599 H 0.07321 0.15834 0.73798 0.0
H4600 H 0.08794 0.1677 0.72174 0.0
S4601 S 0.0597 0.12956 0.69198 0.0
N4602 N 0.0554 0.13048 0.70748 0.0
N4603 N 0.07124 0.1407 0.68999 0.0
C4604 C 0.07201 0.14576 0.70226 0.0
C4605 C 0.06339 0.14029 0.71171 0.0
C4606 C 0.61673 0.29369 0.43255 0.0
C4607 C 0.61479 0.30268 0.44293 0.0
C4608 C 0.6192 0.29797 0.41985 0.0
C4609 C 0.61959 0.31135 0.41706 0.0
H4610 H 0.61637 0.28326 0.43425 0.0
H4611 H 0.62076 0.29079 0.41217 0.0
S4612 S 0.61548 0.33889 0.44031 0.0
N4613 N 0.61396 0.32568 0.44931 0.0
N4614 N 0.61791 0.33356 0.42528 0.0
C4615 C 0.61752 0.32042 0.42714 0.0
C4616 C 0.61525 0.31613 0.44011 0.0
C4617 C 0.4496 0.86112 0.21768 0.0
C4618 C 0.44563 0.87079 0.22675 0.0
C4619 C 0.4409 0.85619 0.20825 0.0
C4620 C 0.42795 0.86077 0.20753 0.0
H4621 H 0.45954 0.85742 0.2178 0.0
H4622 H 0.44445 0.84904 0.20124 0.0
S4623 S 0.41254 0.8856 0.22922 0.0
N4624 N 0.42782 0.88462 0.23443 0.0
N4625 N 0.41135 0.87498 0.21706 0.0
C4626 C 0.42375 0.87013 0.21676 0.0
C4627 C 0.43261 0.87522 0.22628 0.0
C4628 C 0.90105 0.29718 0.58129 0.0
C4629 C 0.89275 0.30168 0.57136 0.0
C4630 C 0.89921 0.30122 0.59432 0.0
C4631 C 0.88901 0.30989 0.59781 0.0
H4632 H 0.90924 0.29086 0.57892 0.0
H4633 H 0.90591 0.29769 0.60168 0.0
S4634 S 0.86491 0.32461 0.57512 0.0
N4635 N 0.87412 0.31518 0.56574 0.0
N4636 N 0.87071 0.32295 0.59003 0.0
C4637 C 0.88059 0.31428 0.58789 0.0
C4638 C 0.88246 0.31014 0.57472 0.0
C4639 C 0.4392 0.15251 0.28549 0.0
C4640 C 0.45196 0.14943 0.2898 0.0
C4641 C 0.42956 0.15697 0.29423 0.0
C4642 C 0.43238 0.15877 0.30752 0.0
H4643 H 0.43665 0.15157 0.27529 0.0
H4644 H 0.41981 0.15902 0.29057 0.0
S4645 S 0.46363 0.15124 0.32413 0.0
N4646 N 0.4664 0.14763 0.30867 0.0
N4647 N 0.44841 0.15667 0.32478 0.0
C4648 C 0.44497 0.15575 0.31201 0.0
C4649 C 0.45472 0.15093 0.30323 0.0
C4650 C 0.63015 0.7064 0.07791 0.0
C4651 C 0.61971 0.71452 0.07424 0.0
C4652 C 0.63174 0.70245 0.09085 0.0
C4653 C 0.62286 0.70637 0.10065 0.0
H4654 H 0.63691 0.70272 0.0706 0.0
H4655 H 0.6397 0.69583 0.09308 0.0
S4656 S 0.59421 0.72823 0.09608 0.0
N4657 N 0.60059 0.72673 0.08135 0.0
N4658 N 0.6036 0.71948 0.1058 0.0
C4659 C 0.61256 0.71482 0.09714 0.0
C4660 C 0.61098 0.71886 0.08391 0.0
C4661 C 0.07727 0.87717 0.7948 0.0
C4662 C 0.0649 0.87156 0.79224 0.0
C4663 C 0.08577 0.87196 0.80406 0.0
C4664 C 0.0822 0.86114 0.81167 0.0
H4665 H 0.08054 0.8857 0.78953 0.0
H4666 H 0.09531 0.87651 0.80521 0.0
S4667 S 0.05075 0.84295 0.80932 0.0
N4668 N 0.04956 0.85433 0.79806 0.0
N4669 N 0.06518 0.84517 0.8163 0.0
C4670 C 0.06977 0.85552 0.80946 0.0
C4671 C 0.06117 0.86065 0.79968 0.0
C4672 C 0.93682 0.89211 0.70698 0.0
C4673 C 0.939 0.89788 0.71932 0.0
C4674 C 0.92408 0.89018 0.70213 0.0
C4675 C 0.91301 0.89405 0.70934 0.0
H4676 H 0.94501 0.88878 0.70113 0.0
H4677 H 0.92287 0.88564 0.69262 0.0
S4678 S 0.9131 0.9096 0.74207 0.0
N4679 N 0.92878 0.90755 0.73858 0.0
N4680 N 0.9049 0.90381 0.72938 0.0
C4681 C 0.91496 0.89989 0.72161 0.0
C4682 C 0.92792 0.90181 0.72662 0.0
C4683 C 0.86913 0.21653 0.44813 0.0
C4684 C 0.86883 0.23018 0.44616 0.0
C4685 C 0.86433 0.20773 0.43872 0.0
C4686 C 0.85906 0.21222 0.42697 0.0
H4687 H 0.87329 0.21257 0.45697 0.0
H4688 H 0.86496 0.19732 0.44053 0.0
S4689 S 0.85573 0.24668 0.4168 0.0
N4690 N 0.86243 0.24762 0.43144 0.0
N4691 N 0.85379 0.23092 0.41364 0.0
C4692 C 0.85866 0.22571 0.42477 0.0
C4693 C 0.86348 0.23473 0.43437 0.0
C4694 C 0.58019 0.13227 0.20626 0.0
C4695 C 0.57635 0.12449 0.21683 0.0
C4696 C 0.5934 0.13374 0.2029 0.0
C4697 C 0.60333 0.12737 0.2099 0.0
H4698 H 0.57286 0.13711 0.20037 0.0
H4699 H 0.59583 0.13963 0.19453 0.0
S4700 S 0.59866 0.1063 0.23869 0.0
N4701 N 0.58362 0.11068 0.23457 0.0
N4702 N 0.60857 0.11336 0.22814 0.0
C4703 C 0.59972 0.11975 0.22064 0.0
C4704 C 0.58621 0.11837 0.22417 0.0
C4705 C 0.64842 0.78179 0.9382 0.0
C4706 C 0.64494 0.78639 0.95073 0.0
C4707 C 0.65308 0.79034 0.92862 0.0
C4708 C 0.65468 0.80376 0.93128 0.0
H4709 H 0.64767 0.77148 0.93578 0.0
H4710 H 0.65548 0.78645 0.91906 0.0
S4711 S 0.64612 0.82113 0.96187 0.0
N4712 N 0.64256 0.80567 0.96473 0.0
N4713 N 0.65197 0.82144 0.94689 0.0
C4714 C 0.65125 0.80854 0.94363 0.0
C4715 C 0.64623 0.79994 0.9533 0.0
C4716 C 0.92945 0.11314 0.79209 0.0
C4717 C 0.94068 0.11599 0.7997 0.0
C4718 C 0.91672 0.11493 0.79706 0.0
C4719 C 0.91475 0.11976 0.80976 0.0
H4720 H 0.93051 0.1095 0.78221 0.0
H4721 H 0.90837 0.1127 0.79089 0.0
S4722 S 0.94046 0.12869 0.83372 0.0
N4723 N 0.94869 0.12395 0.82067 0.0
N4724 N 0.9248 0.12712 0.82992 0.0
C4725 C 0.92576 0.12253 0.81749 0.0
C4726 C 0.9387 0.12067 0.8125 0.0
C4727 C 0.64513 0.21625 0.56686 0.0
C4728 C 0.64262 0.22937 0.57049 0.0
C4729 C 0.65091 0.20749 0.57556 0.0
C4730 C 0.65423 0.21149 0.58824 0.0
H4731 H 0.64238 0.21263 0.55729 0.0
H4732 H 0.65235 0.19741 0.57253 0.0
S4733 S 0.65063 0.24474 0.60242 0.0
N4734 N 0.64484 0.24602 0.58746 0.0
N4735 N 0.65513 0.22931 0.60398 0.0
C4736 C 0.65199 0.22453 0.59197 0.0
C4737 C 0.6463 0.23352 0.58307 0.0
C4738 C 0.58609 0.89367 0.2914 0.0
C4739 C 0.57602 0.89729 0.30025 0.0
C4740 C 0.59901 0.89152 0.29553 0.0
C4741 C 0.60258 0.89348 0.30857 0.0
H4742 H 0.58411 0.89252 0.2811 0.0
H4743 H 0.60631 0.88852 0.28844 0.0
S4744 S 0.58082 0.90307 0.33583 0.0
N4745 N 0.57103 0.90225 0.32305 0.0
N4746 N 0.59557 0.89944 0.33033 0.0
C4747 C 0.59295 0.89745 0.31747 0.0
C4748 C 0.57966 0.89912 0.31344 0.0
C4749 C 0.85759 0.79115 0.06828 0.0
C4750 C 0.87066 0.78673 0.06819 0.0
C4751 C 0.85314 0.80011 0.07774 0.0
C4752 C 0.86164 0.80503 0.08741 0.0
H4753 H 0.85071 0.78754 0.06104 0.0
H4754 H 0.84294 0.80305 0.0776 0.0
S4755 S 0.89717 0.79775 0.09044 0.0
N4756 N 0.89225 0.78864 0.07799 0.0
N4757 N 0.88402 0.80565 0.09563 0.0
C4758 C 0.87483 0.80097 0.08719 0.0
C4759 C 0.87931 0.79177 0.07762 0.0
C4760 C 0.70808 0.93359 0.88746 0.0
C4761 C 0.71353 0.93715 0.89953 0.0
C4762 C 0.70344 0.92086 0.88517 0.0
C4763 C 0.70421 0.91118 0.89484 0.0
H4764 H 0.70724 0.94075 0.8798 0.0
H4765 H 0.69887 0.91873 0.87586 0.0
S4766 S 0.71939 0.91542 0.92754 0.0
N4767 N 0.72048 0.93003 0.92089 0.0
N4768 N 0.71217 0.90593 0.91657 0.0
C4769 C 0.71023 0.91458 0.90679 0.0
C4770 C 0.71482 0.9276 0.90913 0.0
C4771 C 0.21893 0.58498 0.13135 0.0
C4772 C 0.21416 0.57736 0.12089 0.0
C4773 C 0.21507 0.59811 0.133 0.0
C4774 C 0.20618 0.6041 0.12435 0.0
H4775 H 0.22523 0.58063 0.13862 0.0
H4776 H 0.21887 0.60351 0.14132 0.0
S4777 S 0.19182 0.58853 0.09469 0.0
N4778 N 0.20132 0.57715 0.10094 0.0
N4779 N 0.19313 0.60124 0.10462 0.0
C4780 C 0.20178 0.59665 0.11356 0.0
C4781 C 0.206 0.58346 0.1117 0.0
C4782 C 0.22923 0.44276 0.85795 0.0
C4783 C 0.22636 0.44926 0.86974 0.0
C4784 C 0.22022 0.43399 0.85232 0.0
C4785 C 0.20819 0.4314 0.85844 0.0
H4786 H 0.23851 0.44441 0.8531 0.0
H4787 H 0.22286 0.42886 0.84343 0.0
S4788 S 0.19591 0.44632 0.88914 0.0
N4789 N 0.21056 0.45286 0.8871 0.0
N4790 N 0.19364 0.4364 0.87655 0.0
C4791 C 0.20511 0.43813 0.87004 0.0
C4792 C 0.2142 0.44706 0.87569 0.0
C4793 C 0.31394 0.43786 0.62422 0.0
C4794 C 0.30055 0.43973 0.62133 0.0
C4795 C 0.31913 0.42529 0.62619 0.0
C4796 C 0.31118 0.41409 0.62527 0.0
H4797 H 0.32043 0.44618 0.62531 0.0
H4798 H 0.32945 0.42432 0.62851 0.0
S4799 S 0.27573 0.41326 0.61755 0.0
N4800 N 0.27958 0.42895 0.61724 0.0
N4801 N 0.28942 0.40546 0.62114 0.0
C4802 C 0.29788 0.41569 0.62224 0.0
C4803 C 0.29255 0.42847 0.62024 0.0
C4804 C 0.79544 0.06202 0.86377 0.0
C4805 C 0.78753 0.06571 0.87446 0.0
C4806 C 0.80479 0.0706 0.85861 0.0
C4807 C 0.8066 0.08318 0.86396 0.0
H4808 H 0.79441 0.0524 0.85938 0.0
H4809 H 0.81086 0.06725 0.85059 0.0
S4810 S 0.78819 0.09775 0.8917 0.0
N4811 N 0.78219 0.08282 0.89017 0.0
N4812 N 0.79929 0.09915 0.88011 0.0
C4813 C 0.79855 0.0871 0.87443 0.0
C4814 C 0.78914 0.07833 0.87975 0.0
C4815 C 0.81019 0.08387 0.39882 0.0
C4816 C 0.80066 0.07791 0.39077 0.0
C4817 C 0.81397 0.0969 0.39718 0.0
C4818 C 0.80819 0.1048 0.38762 0.0
H4819 H 0.81515 0.07827 0.40625 0.0
H4820 H 0.82189 0.10061 0.4032 0.0
S4821 S 0.78131 0.09469 0.36524 0.0
N4822 N 0.78473 0.08132 0.37348 0.0
N4823 N 0.79126 0.10614 0.37095 0.0
C4824 C 0.79799 0.09929 0.38005 0.0
C4825 C 0.7943 0.08584 0.38156 0.0
C4826 C 0.23114 0.57245 0.65886 0.0
C4827 C 0.22784 0.56458 0.64799 0.0
C4828 C 0.22206 0.58122 0.66436 0.0
C4829 C 0.20946 0.58254 0.65902 0.0
H4830 H 0.24095 0.57209 0.66289 0.0
H4831 H 0.22513 0.58745 0.6724 0.0
S4832 S 0.19582 0.56402 0.63093 0.0
N4833 N 0.21094 0.55842 0.63242 0.0
N4834 N 0.19393 0.57501 0.64267 0.0
C4835 C 0.20591 0.57447 0.64844 0.0
C4836 C 0.21508 0.56544 0.64294 0.0
C4837 C 0.28359 0.44048 0.15232 0.0
C4838 C 0.28821 0.45289 0.14853 0.0
C4839 C 0.29216 0.43097 0.15725 0.0
C4840 C 0.3056 0.43361 0.15875 0.0
H4841 H 0.27327 0.43812 0.1516 0.0
H4842 H 0.28829 0.42147 0.15982 0.0
S4843 S 0.32301 0.46386 0.14951 0.0
N4844 N 0.30751 0.46674 0.14587 0.0
N4845 N 0.32332 0.44901 0.15568 0.0
C4846 C 0.3104 0.44582 0.155 0.0
C4847 C 0.30178 0.45543 0.14977 0.0
C4848 C 0.60799 0.81779 0.54111 0.0
C4849 C 0.62107 0.81886 0.53679 0.0
C4850 C 0.60289 0.82648 0.55048 0.0
C4851 C 0.61065 0.83659 0.55572 0.0
H4852 H 0.60155 0.81042 0.53697 0.0
H4853 H 0.59273 0.82551 0.5534 0.0
S4854 S 0.64571 0.84292 0.54877 0.0
N4855 N 0.64191 0.83026 0.5394 0.0
N4856 N 0.63213 0.84677 0.55667 0.0
C4857 C 0.62377 0.83759 0.55177 0.0
C4858 C 0.62902 0.82869 0.54238 0.0
C4859 C 0.47374 0.36746 0.83651 0.0
C4860 C 0.46633 0.37154 0.82573 0.0
C4861 C 0.46952 0.37017 0.84933 0.0
C4862 C 0.45787 0.3772 0.85173 0.0
H4863 H 0.48262 0.36182 0.83503 0.0
H4864 H 0.47538 0.36672 0.85741 0.0
S4865 S 0.43512 0.39012 0.82673 0.0
N4866 N 0.447 0.38313 0.81827 0.0
N4867 N 0.439 0.38803 0.84218 0.0
C4868 C 0.45053 0.38146 0.84098 0.0
C4869 C 0.45479 0.37869 0.82804 0.0
C4870 C 0.8992 0.18682 0.03362 0.0
C4871 C 0.89509 0.19907 0.03841 0.0
C4872 C 0.90491 0.17753 0.04185 0.0
C4873 C 0.90655 0.17996 0.05533 0.0
H4874 H 0.89831 0.18451 0.02333 0.0
H4875 H 0.90822 0.16843 0.03751 0.0
S4876 S 0.89646 0.21031 0.0729 0.0
N4877 N 0.89263 0.21304 0.05755 0.0
N4878 N 0.90281 0.19548 0.0731 0.0
C4879 C 0.90223 0.19214 0.06027 0.0
C4880 C 0.89661 0.20167 0.05182 0.0
C4881 C 0.04865 0.65377 0.33798 0.0
C4882 C 0.05076 0.6446 0.32789 0.0
C4883 C 0.05327 0.65145 0.35069 0.0
C4884 C 0.06023 0.63994 0.35366 0.0
H4885 H 0.04401 0.66304 0.33587 0.0
H4886 H 0.05203 0.65903 0.35803 0.0
S4887 S 0.06688 0.61233 0.33085 0.0
N4888 N 0.05934 0.62331 0.32185 0.0
N4889 N 0.06762 0.6187 0.34568 0.0
C4890 C 0.06162 0.6304 0.34377 0.0
C4891 C 0.05702 0.63281 0.3309 0.0
C4892 C 0.62626 0.18481 0.97777 0.0
C4893 C 0.61992 0.19677 0.9805 0.0
C4894 C 0.62119 0.17592 0.96861 0.0
C4895 C 0.60962 0.17865 0.96169 0.0
H4896 H 0.63526 0.18228 0.98275 0.0
H4897 H 0.62644 0.16687 0.96685 0.0
S4898 S 0.58891 0.20821 0.96543 0.0
N4899 N 0.60112 0.21059 0.97576 0.0
N4900 N 0.59179 0.19396 0.95829 0.0
C4901 C 0.60321 0.19056 0.96419 0.0
C4902 C 0.6083 0.1996 0.97363 0.0
C4903 C 0.04365 0.36477 0.17868 0.0
C4904 C 0.05123 0.36878 0.18946 0.0
C4905 C 0.04777 0.36743 0.16587 0.0
C4906 C 0.05952 0.37427 0.16346 0.0
H4907 H 0.03471 0.35926 0.18016 0.0
H4908 H 0.04173 0.3641 0.1578 0.0
S4909 S 0.08269 0.38697 0.1885 0.0
N4910 N 0.07075 0.38021 0.19694 0.0
N4911 N 0.07869 0.3848 0.17306 0.0
C4912 C 0.06705 0.37842 0.17423 0.0
C4913 C 0.06284 0.37579 0.18716 0.0
C4914 C 0.90674 0.81841 0.47221 0.0
C4915 C 0.89454 0.8208 0.47821 0.0
C4916 C 0.91192 0.82707 0.46304 0.0
C4917 C 0.90512 0.83848 0.45964 0.0
H4918 H 0.91247 0.80989 0.4748 0.0
H4919 H 0.92142 0.82498 0.45879 0.0
S4920 S 0.87223 0.84855 0.47139 0.0
N4921 N 0.87535 0.83487 0.47922 0.0
N4922 N 0.8852 0.85127 0.46219 0.0
C4923 C 0.89279 0.84083 0.4653 0.0
C4924 C 0.88748 0.83198 0.47455 0.0
C4925 C 0.46855 0.65077 0.67837 0.0
C4926 C 0.46623 0.64142 0.68808 0.0
C4927 C 0.46378 0.64891 0.66564 0.0
C4928 C 0.45668 0.63757 0.6622 0.0
H4929 H 0.47372 0.65974 0.68076 0.0
H4930 H 0.4652 0.65661 0.6586 0.0
S4931 S 0.45038 0.60909 0.68349 0.0
N4932 N 0.45788 0.61982 0.69305 0.0
N4933 N 0.44931 0.61607 0.66909 0.0
C4934 C 0.45517 0.62777 0.67163 0.0
C4935 C 0.45983 0.62977 0.68458 0.0
C4936 C 0.55325 0.6233 0.81544 0.0
C4937 C 0.5405 0.61824 0.81424 0.0
C4938 C 0.56221 0.61783 0.82423 0.0
C4939 C 0.55871 0.6071 0.832 0.0
H4940 H 0.55617 0.63175 0.80984 0.0
H4941 H 0.57181 0.62228 0.82522 0.0
S4942 S 0.52688 0.58952 0.83134 0.0
N4943 N 0.52503 0.60151 0.82082 0.0
N4944 N 0.54193 0.59102 0.8371 0.0
C4945 C 0.54611 0.6017 0.83049 0.0
C4946 C 0.53699 0.60733 0.82166 0.0
C4947 C 0.63348 0.33293 0.05121 0.0
C4948 C 0.64434 0.32523 0.05485 0.0
C4949 C 0.63204 0.34583 0.05579 0.0
C4950 C 0.64148 0.35149 0.06404 0.0
H4951 H 0.62583 0.32882 0.04509 0.0
H4952 H 0.62333 0.35127 0.05318 0.0
S4953 S 0.67215 0.33614 0.07557 0.0
N4954 N 0.66507 0.32467 0.06655 0.0
N4955 N 0.66224 0.3489 0.0752 0.0
C4956 C 0.65254 0.34414 0.06742 0.0
C4957 C 0.654 0.331 0.06282 0.0
C4958 C 0.96674 0.39921 0.3101 0.0
C4959 C 0.97756 0.39146 0.31377 0.0
C4960 C 0.95842 0.40501 0.31932 0.0
C4961 C 0.96006 0.40292 0.33274 0.0
H4962 H 0.96453 0.40088 0.29994 0.0
H4963 H 0.95063 0.41123 0.31579 0.0
S4964 S 0.98617 0.38269 0.34783 0.0
N4965 N 0.98947 0.38219 0.3321 0.0
N4966 N 0.9728 0.39164 0.34926 0.0
C4967 C 0.97051 0.39479 0.33663 0.0
C4968 C 0.97941 0.38935 0.32723 0.0
C4969 C 0.88064 0.685 0.54825 0.0
C4970 C 0.86977 0.69263 0.55205 0.0
C4971 C 0.88218 0.67217 0.55267 0.0
C4972 C 0.87279 0.66651 0.56084 0.0
H4973 H 0.88824 0.68913 0.54216 0.0
H4974 H 0.89094 0.66678 0.55001 0.0
S4975 S 0.84219 0.68182 0.57283 0.0
N4976 N 0.84915 0.69325 0.5639 0.0
N4977 N 0.85211 0.66906 0.57219 0.0
C4978 C 0.86169 0.67379 0.56435 0.0
C4979 C 0.86017 0.68689 0.55996 0.0
C4980 C 0.5418 0.38846 0.69017 0.0
C4981 C 0.54014 0.39424 0.70256 0.0
C4982 C 0.55018 0.39403 0.6809 0.0
C4983 C 0.55723 0.40559 0.68366 0.0
H4984 H 0.5368 0.37941 0.68771 0.0
H4985 H 0.55133 0.38912 0.67157 0.0
S4986 S 0.55543 0.42529 0.71408 0.0
N4987 N 0.54559 0.41275 0.71667 0.0
N4988 N 0.56142 0.42304 0.6993 0.0
C4989 C 0.55548 0.41161 0.69587 0.0
C4990 C 0.54692 0.40599 0.70528 0.0
C4991 C 0.87119 0.32531 0.95155 0.0
C4992 C 0.86998 0.3224 0.96486 0.0
C4993 C 0.87381 0.33797 0.94732 0.0
C4994 C 0.8757 0.3484 0.95617 0.0
H4995 H 0.87018 0.31768 0.94422 0.0
H4996 H 0.87433 0.33956 0.93691 0.0
S4997 S 0.87352 0.3462 0.99218 0.0
N4998 N 0.87053 0.33114 0.98698 0.0
N4999 N 0.87613 0.35499 0.97901 0.0
C5000 C 0.87453 0.34573 0.96956 0.0
C5001 C 0.87164 0.33273 0.97391 0.0
C5002 C 0.97404 0.6296 0.19316 0.0
C5003 C 0.97825 0.62208 0.2038 0.0
C5004 C 0.96539 0.6244 0.18376 0.0
C5005 C 0.96055 0.61153 0.18469 0.0
H5006 H 0.97725 0.63965 0.19221 0.0
H5007 H 0.96228 0.63058 0.17582 0.0
S5008 S 0.96947 0.58736 0.20983 0.0
N5009 N 0.97763 0.60071 0.21405 0.0
N5010 N 0.96118 0.59116 0.19658 0.0
C5011 C 0.96484 0.60385 0.1951 0.0
C5012 C 0.97373 0.60906 0.20459 0.0
C5013 C 0.64984 0.68731 0.44978 0.0
C5014 C 0.64503 0.69099 0.46211 0.0
C5015 C 0.64848 0.67449 0.44506 0.0
C5016 C 0.64232 0.66477 0.45249 0.0
H5017 H 0.65462 0.69442 0.44363 0.0
H5018 H 0.65212 0.6722 0.43539 0.0
S5019 S 0.62821 0.66904 0.48551 0.0
N5020 N 0.6339 0.68367 0.48177 0.0
N5021 N 0.63164 0.65949 0.47291 0.0
C5022 C 0.63785 0.66811 0.46501 0.0
C5023 C 0.63912 0.68124 0.46982 0.0
C5024 C 0.81615 0.55382 0.62293 0.0
C5025 C 0.81833 0.54028 0.62185 0.0
C5026 C 0.82505 0.56278 0.61768 0.0
C5027 C 0.83633 0.55854 0.61093 0.0
H5028 H 0.80765 0.5575 0.6281 0.0
H5029 H 0.82321 0.57311 0.61923 0.0
S5030 S 0.84544 0.52393 0.60409 0.0
N5031 N 0.83196 0.52297 0.61291 0.0
N5032 N 0.84837 0.53971 0.60244 0.0
C5033 C 0.83827 0.54495 0.60936 0.0
C5034 C 0.82935 0.53586 0.61495 0.0
C5035 C 0.32752 0.96754 0.38874 0.0
C5036 C 0.31919 0.97476 0.39703 0.0
C5037 C 0.33628 0.95831 0.39377 0.0
C5038 C 0.33696 0.95603 0.40722 0.0
H5039 H 0.32729 0.96907 0.37832 0.0
H5040 H 0.34262 0.95298 0.38712 0.0
S5041 S 0.31812 0.97298 0.43307 0.0
N5042 N 0.31275 0.97947 0.41938 0.0
N5043 N 0.32914 0.96194 0.42876 0.0
C5044 C 0.3288 0.96318 0.4156 0.0
C5045 C 0.31991 0.9726 0.41052 0.0
C5046 C 0.33079 0.05087 0.63707 0.0
C5047 C 0.32576 0.04949 0.64973 0.0
C5048 C 0.34369 0.05524 0.63502 0.0
C5049 C 0.35209 0.05822 0.64556 0.0
H5050 H 0.32448 0.04926 0.6287 0.0
H5051 H 0.34699 0.05672 0.62511 0.0
S5052 S 0.34387 0.0553 0.68058 0.0
N5053 N 0.33033 0.05078 0.67291 0.0
N5054 N 0.3546 0.05881 0.66909 0.0
C5055 C 0.34737 0.05621 0.65824 0.0
C5056 C 0.3342 0.05193 0.66032 0.0
C5057 C 0.201 0.04428 0.90364 0.0
C5058 C 0.19886 0.03773 0.89166 0.0
C5059 C 0.19174 0.05302 0.90882 0.0
C5060 C 0.17989 0.05546 0.9023 0.0
H5061 H 0.20989 0.04258 0.90914 0.0
H5062 H 0.19379 0.05778 0.91807 0.0
S5063 S 0.16981 0.04171 0.87026 0.0
N5064 N 0.18421 0.03494 0.87312 0.0
N5065 N 0.16673 0.05121 0.88298 0.0
C5066 C 0.17762 0.04909 0.8903 0.0
C5067 C 0.1871 0.04025 0.88497 0.0
C5068 C 0.68284 0.4607 0.65542 0.0
C5069 C 0.6889 0.46803 0.64559 0.0
C5070 C 0.66978 0.45656 0.65415 0.0
C5071 C 0.66247 0.45953 0.64297 0.0
H5072 H 0.68827 0.45804 0.66407 0.0
H5073 H 0.66554 0.45057 0.66172 0.0
S5074 S 0.67362 0.47865 0.61461 0.0
N5075 N 0.68644 0.47836 0.62445 0.0
N5076 N 0.66195 0.47038 0.62207 0.0
C5077 C 0.66828 0.46707 0.63322 0.0
C5078 C 0.6815 0.47139 0.63454 0.0
C5079 C 0.68876 0.48037 0.12345 0.0
C5080 C 0.70195 0.4767 0.12482 0.0
C5081 C 0.67936 0.47183 0.11808 0.0
C5082 C 0.68241 0.45889 0.11396 0.0
H5083 H 0.68566 0.49016 0.12614 0.0
H5084 H 0.66968 0.47589 0.11695 0.0
S5085 S 0.71594 0.44418 0.11611 0.0
N5086 N 0.71772 0.45909 0.12203 0.0
N5087 N 0.70031 0.44299 0.11229 0.0
C5088 C 0.69573 0.45506 0.1155 0.0
C5089 C 0.70534 0.4639 0.12085 0.0
C5090 C 0.33527 0.97166 0.86656 0.0
C5091 C 0.32459 0.96314 0.86844 0.0
C5092 C 0.34828 0.96746 0.86871 0.0
C5093 C 0.351 0.95464 0.87289 0.0
H5094 H 0.33358 0.98153 0.86321 0.0
H5095 H 0.35622 0.97432 0.86722 0.0
S5096 S 0.32637 0.92864 0.87925 0.0
N5097 N 0.3176 0.94149 0.8751 0.0
N5098 N 0.34179 0.93341 0.87838 0.0
C5099 C 0.34033 0.94608 0.87472 0.0
C5100 C 0.32721 0.95039 0.87273 0.0
C5101 C 0.18719 0.05789 0.3635 0.0
C5102 C 0.19156 0.04744 0.37119 0.0
C5103 C 0.17426 0.06244 0.36438 0.0
C5104 C 0.16523 0.05663 0.37286 0.0
H5105 H 0.19384 0.06268 0.35686 0.0
H5106 H 0.17137 0.07078 0.3586 0.0
S5107 S 0.17155 0.02918 0.39523 0.0
N5108 N 0.18569 0.03153 0.38776 0.0
N5109 N 0.16131 0.04 0.38908 0.0
C5110 C 0.16929 0.04603 0.38039 0.0
C5111 C 0.18248 0.04144 0.37963 0.0
C5112 C 0.40415 0.21579 0.4337 0.0
C5113 C 0.39389 0.21493 0.44278 0.0
C5114 C 0.40241 0.21168 0.42071 0.0
C5115 C 0.39046 0.2062 0.41635 0.0
H5116 H 0.41367 0.2194 0.43675 0.0
H5117 H 0.41063 0.21257 0.4141 0.0
S5118 S 0.36071 0.20148 0.43676 0.0
N5119 N 0.37142 0.20844 0.44671 0.0
N5120 N 0.36824 0.20001 0.42259 0.0
C5121 C 0.38007 0.20546 0.42543 0.0
C5122 C 0.38179 0.20996 0.43855 0.0
C5123 C 0.57017 0.63508 0.21624 0.0
C5124 C 0.56242 0.64309 0.22429 0.0
C5125 C 0.57878 0.64043 0.20714 0.0
C5126 C 0.5804 0.65408 0.20594 0.0
H5127 H 0.56973 0.62453 0.21714 0.0
H5128 H 0.58443 0.6337 0.20117 0.0
S5129 S 0.56178 0.67935 0.22445 0.0
N5130 N 0.55616 0.66531 0.23002 0.0
N5131 N 0.57288 0.67551 0.21336 0.0
C5132 C 0.5723 0.66224 0.21363 0.0
C5133 C 0.56324 0.65672 0.22272 0.0
C5134 C 0.12331 0.8118 0.94181 0.0
C5135 C 0.11525 0.80086 0.94403 0.0
C5136 C 0.12589 0.81613 0.92916 0.0
C5137 C 0.12045 0.80973 0.91824 0.0
H5138 H 0.12786 0.81694 0.94991 0.0
H5139 H 0.13207 0.82465 0.92792 0.0
S5140 S 0.09892 0.78052 0.91858 0.0
N5141 N 0.10188 0.7837 0.93411 0.0
N5142 N 0.10691 0.79179 0.91033 0.0
C5143 C 0.11243 0.79877 0.92025 0.0
C5144 C 0.10981 0.79433 0.93314 0.0
C5145 C 0.93912 0.36038 0.72777 0.0
C5146 C 0.94833 0.37011 0.72443 0.0
C5147 C 0.93057 0.35499 0.71844 0.0
C5148 C 0.93092 0.35919 0.70547 0.0
H5149 H 0.93842 0.357 0.73771 0.0
H5150 H 0.92335 0.34786 0.72147 0.0
S5151 S 0.95306 0.38415 0.69158 0.0
N5152 N 0.95717 0.38359 0.70713 0.0
N5153 N 0.94123 0.37327 0.6896 0.0
C5154 C 0.9402 0.36864 0.70193 0.0
C5155 C 0.94889 0.37414 0.71139 0.0
C5156 C 0.386 0.81335 0.07478 0.0
C5157 C 0.39308 0.802 0.07141 0.0
C5158 C 0.3841 0.81703 0.08779 0.0
C5159 C 0.38931 0.80958 0.09799 0.0
H5160 H 0.38204 0.81956 0.06724 0.0
H5161 H 0.37879 0.82598 0.08988 0.0
S5162 S 0.40817 0.77878 0.09453 0.0
N5163 N 0.40497 0.78309 0.07937 0.0
N5164 N 0.40148 0.79013 0.10398 0.0
C5165 C 0.39622 0.7981 0.09484 0.0
C5166 C 0.39804 0.79424 0.08152 0.0
C5167 C 0.94575 0.64018 0.79811 0.0
C5168 C 0.95208 0.64901 0.78988 0.0
C5169 C 0.93648 0.64454 0.80721 0.0
C5170 C 0.93301 0.65789 0.80831 0.0
H5171 H 0.94809 0.62985 0.79759 0.0
H5172 H 0.93206 0.63732 0.8135 0.0
S5173 S 0.94731 0.68488 0.78893 0.0
N5174 N 0.95489 0.67162 0.78356 0.0
N5175 N 0.93696 0.67987 0.8002 0.0
C5176 C 0.93946 0.66682 0.80013 0.0
C5177 C 0.94907 0.66236 0.791 0.0
C5178 C 0.12193 0.19979 0.5776 0.0
C5179 C 0.11953 0.21286 0.57402 0.0
C5180 C 0.12369 0.19629 0.59063 0.0
C5181 C 0.12313 0.2057 0.60064 0.0
H5182 H 0.1225 0.19215 0.57023 0.0
H5183 H 0.12547 0.18612 0.59292 0.0
S5184 S 0.11709 0.24116 0.5968 0.0
N5185 N 0.11665 0.23525 0.58176 0.0
N5186 N 0.12006 0.22857 0.60635 0.0
C5187 C 0.12083 0.21879 0.59734 0.0
C5188 C 0.11905 0.2224 0.584 0.0
C5189 C 0.56238 0.36881 0.30458 0.0
C5190 C 0.56608 0.37083 0.29151 0.0
C5191 C 0.57102 0.36312 0.31348 0.0
C5192 C 0.58364 0.35935 0.3096 0.0
H5193 H 0.55283 0.3719 0.30805 0.0
H5194 H 0.568 0.36207 0.32353 0.0
S5195 S 0.59796 0.36172 0.27661 0.0
N5196 N 0.58304 0.36778 0.27509 0.0
N5197 N 0.59945 0.3576 0.29206 0.0
C5198 C 0.58744 0.36109 0.29663 0.0
C5199 C 0.57862 0.36673 0.28752 0.0
C5200 C 0.43608 0.39283 0.20558 0.0
C5201 C 0.43839 0.3987 0.21783 0.0
C5202 C 0.42332 0.39047 0.20113 0.0
C5203 C 0.4124 0.39395 0.20871 0.0
H5204 H 0.44421 0.38983 0.19947 0.0
H5205 H 0.42197 0.38596 0.19162 0.0
S5206 S 0.41289 0.40928 0.24152 0.0
N5207 N 0.42852 0.40785 0.23752 0.0
N5208 N 0.40451 0.40327 0.22906 0.0
C5209 C 0.41447 0.39977 0.22096 0.0
C5210 C 0.42747 0.40214 0.22556 0.0
C5211 C 0.37722 0.71811 0.94297 0.0
C5212 C 0.36942 0.72867 0.94706 0.0
C5213 C 0.37268 0.70917 0.93358 0.0
C5214 C 0.36013 0.7104 0.92793 0.0
H5215 H 0.38693 0.71679 0.94704 0.0
H5216 H 0.37907 0.70116 0.93079 0.0
S5217 S 0.33566 0.73607 0.93605 0.0
N5218 N 0.3484 0.73961 0.94539 0.0
N5219 N 0.33986 0.72296 0.92751 0.0
C5220 C 0.35214 0.72082 0.93218 0.0
C5221 C 0.3568 0.72994 0.94176 0.0
C5222 C 0.08496 0.63121 0.72233 0.0
C5223 C 0.07669 0.62214 0.71598 0.0
C5224 C 0.09829 0.63227 0.71893 0.0
C5225 C 0.10383 0.62433 0.70905 0.0
H5226 H 0.081 0.63788 0.72957 0.0
H5227 H 0.10424 0.63954 0.72392 0.0
S5228 S 0.0864 0.59846 0.69011 0.0
N5229 N 0.07524 0.60433 0.7002 0.0
N5230 N 0.09984 0.60692 0.69317 0.0
C5231 C 0.09569 0.61495 0.70296 0.0
C5232 C 0.08226 0.61371 0.70659 0.0
C5233 C 0.14129 0.29822 0.44985 0.0
C5234 C 0.14525 0.28501 0.44977 0.0
C5235 C 0.14601 0.30704 0.44059 0.0
C5236 C 0.155 0.30305 0.43101 0.0
H5237 H 0.13431 0.30174 0.45701 0.0
H5238 H 0.14251 0.31705 0.44085 0.0
S5239 S 0.16869 0.26979 0.4265 0.0
N5240 N 0.15892 0.26851 0.43926 0.0
N5241 N 0.16771 0.28518 0.42182 0.0
C5242 C 0.15916 0.28998 0.43081 0.0
C5243 C 0.15428 0.28093 0.44018 0.0
C5244 C 0.42881 0.61283 0.29282 0.0
C5245 C 0.44002 0.61627 0.3002 0.0
C5246 C 0.41607 0.6146 0.29779 0.0
C5247 C 0.41406 0.62003 0.31025 0.0
H5248 H 0.42989 0.60871 0.28312 0.0
H5249 H 0.40774 0.61187 0.29179 0.0
S5250 S 0.43976 0.63072 0.33353 0.0
N5251 N 0.448 0.62548 0.32067 0.0
N5252 N 0.42411 0.62863 0.32994 0.0
C5253 C 0.42507 0.62344 0.31774 0.0
C5254 C 0.43802 0.62159 0.31275 0.0
C5255 C 0.13475 0.71771 0.07384 0.0
C5256 C 0.14237 0.72795 0.06895 0.0
C5257 C 0.14008 0.70879 0.08264 0.0
C5258 C 0.15317 0.7099 0.08701 0.0
H5259 H 0.12455 0.71676 0.07105 0.0
H5260 H 0.1338 0.70106 0.0862 0.0
S5261 S 0.17713 0.73508 0.07661 0.0
N5262 N 0.16357 0.73866 0.06859 0.0
N5263 N 0.17364 0.72206 0.08538 0.0
C5264 C 0.16095 0.72 0.08188 0.0
C5265 C 0.1555 0.72903 0.07285 0.0
C5266 C 0.0855 0.39245 0.79132 0.0
C5267 C 0.07529 0.39702 0.79965 0.0
C5268 C 0.0983 0.39027 0.79575 0.0
C5269 C 0.10188 0.39327 0.80856 0.0
H5270 H 0.08396 0.39061 0.78108 0.0
H5271 H 0.10555 0.38649 0.78899 0.0
S5272 S 0.08043 0.40612 0.83471 0.0
N5273 N 0.07063 0.40437 0.82201 0.0
N5274 N 0.09501 0.40146 0.8296 0.0
C5275 C 0.09232 0.39832 0.81697 0.0
C5276 C 0.07904 0.39998 0.81272 0.0
C5277 C 0.37401 0.28628 0.57994 0.0
C5278 C 0.36933 0.28664 0.56705 0.0
C5279 C 0.36969 0.29531 0.58938 0.0
C5280 C 0.36052 0.30516 0.58635 0.0
H5281 H 0.38133 0.27915 0.5827 0.0
H5282 H 0.37366 0.29463 0.59914 0.0
S5283 S 0.34472 0.31004 0.5542 0.0
N5284 N 0.35433 0.29723 0.55199 0.0
N5285 N 0.3468 0.3146 0.56952 0.0
C5286 C 0.35557 0.30549 0.57357 0.0
C5287 C 0.35985 0.29619 0.56399 0.0
C5288 C 0.21976 0.42691 0.39837 0.0
C5289 C 0.21243 0.43731 0.3932 0.0
C5290 C 0.21557 0.41382 0.39678 0.0
C5291 C 0.20406 0.41078 0.38977 0.0
H5292 H 0.22853 0.42892 0.40401 0.0
H5293 H 0.2213 0.40606 0.40108 0.0
S5294 S 0.1816 0.43445 0.3742 0.0
N5295 N 0.19326 0.44363 0.38073 0.0
N5296 N 0.18552 0.4192 0.37763 0.0
C5297 C 0.19685 0.42109 0.38438 0.0
C5298 C 0.201 0.43431 0.38611 0.0
C5299 C 0.7063 0.08093 0.63357 0.0
C5300 C 0.71535 0.07757 0.62379 0.0
C5301 C 0.70211 0.09387 0.63534 0.0
C5302 C 0.70668 0.10397 0.6273 0.0
H5303 H 0.70212 0.07339 0.63965 0.0
H5304 H 0.69482 0.09588 0.64277 0.0
S5305 S 0.731 0.10036 0.60065 0.0
N5306 N 0.72915 0.08535 0.60624 0.0
N5307 N 0.7213 0.10979 0.60956 0.0
C5308 C 0.71602 0.10079 0.61768 0.0
C5309 C 0.72037 0.08757 0.61594 0.0
C5310 C 0.71971 0.946 0.37412 0.0
C5311 C 0.72826 0.95228 0.36553 0.0
C5312 C 0.71084 0.93652 0.3696 0.0
C5313 C 0.7103 0.93278 0.35632 0.0
H5314 H 0.71982 0.94852 0.38439 0.0
H5315 H 0.7043 0.93213 0.37662 0.0
S5316 S 0.73064 0.94685 0.3299 0.0
N5317 N 0.73543 0.95475 0.34319 0.0
N5318 N 0.71924 0.93645 0.33465 0.0
C5319 C 0.71878 0.93919 0.34761 0.0
C5320 C 0.72766 0.94902 0.35224 0.0
C5321 C 0.80979 0.9333 0.11205 0.0
C5322 C 0.80063 0.93911 0.12054 0.0
C5323 C 0.8145 0.92058 0.11416 0.0
C5324 C 0.8102 0.9131 0.12482 0.0
H5325 H 0.8134 0.93865 0.10373 0.0
H5326 H 0.82184 0.91675 0.10754 0.0
S5327 S 0.78582 0.92365 0.14967 0.0
N5328 N 0.78744 0.93641 0.14008 0.0
N5329 N 0.79555 0.91229 0.14352 0.0
C5330 C 0.80074 0.91869 0.13318 0.0
C5331 C 0.79614 0.93171 0.13116 0.0
C5332 C 0.28393 0.57157 0.36123 0.0
C5333 C 0.28841 0.56095 0.36871 0.0
C5334 C 0.2927 0.58088 0.35622 0.0
C5335 C 0.30624 0.57991 0.35854 0.0
H5336 H 0.27357 0.57262 0.35913 0.0
H5337 H 0.28887 0.58902 0.35072 0.0
S5338 S 0.3231 0.55453 0.37779 0.0
N5339 N 0.30745 0.55046 0.37846 0.0
N5340 N 0.32378 0.56784 0.36883 0.0
C5341 C 0.31087 0.56945 0.36596 0.0
C5342 C 0.30201 0.56001 0.37109 0.0
C5343 C 0.2962 0.58437 0.8856 0.0
C5344 C 0.30158 0.57663 0.89554 0.0
C5345 C 0.30064 0.59716 0.88346 0.0
C5346 C 0.31069 0.6027 0.89114 0.0
H5347 H 0.28864 0.58045 0.87924 0.0
H5348 H 0.29618 0.60271 0.8757 0.0
S5349 S 0.32766 0.58663 0.91875 0.0
N5350 N 0.31692 0.57566 0.91359 0.0
N5351 N 0.32588 0.59934 0.90913 0.0
C5352 C 0.31605 0.59508 0.90121 0.0
C5353 C 0.31137 0.58214 0.90349 0.0
C5354 C 0.7243 0.06574 0.15928 0.0
C5355 C 0.72757 0.06667 0.14599 0.0
C5356 C 0.7156 0.07466 0.16515 0.0
C5357 C 0.70997 0.08483 0.15793 0.0
H5358 H 0.72879 0.0583 0.16526 0.0
H5359 H 0.71356 0.07385 0.17547 0.0
S5360 S 0.71413 0.09066 0.12259 0.0
N5361 N 0.7236 0.07794 0.1256 0.0
N5362 N 0.7074 0.09474 0.13667 0.0
C5363 C 0.7128 0.0856 0.14458 0.0
C5364 C 0.72157 0.07652 0.1386 0.0
C5365 C 0.7836 0.94206 0.65496 0.0
C5366 C 0.78835 0.95329 0.6486 0.0
C5367 C 0.79221 0.93265 0.66005 0.0
C5368 C 0.80586 0.93417 0.659 0.0
H5369 H 0.77315 0.94059 0.65612 0.0
H5370 H 0.78819 0.92404 0.66466 0.0
S5371 S 0.82347 0.96114 0.64278 0.0
N5372 N 0.80781 0.96486 0.64109 0.0
N5373 N 0.8238 0.94731 0.65095 0.0
C5374 C 0.81076 0.94521 0.65267 0.0
C5375 C 0.80206 0.95473 0.64741 0.0
loop_
_geom_bond_atom_site_label_1
_geom_bond_atom_site_label_2
_geom_bond_distance
_geom_bond_site_symmetry_2
_ccdc_geom_bond_type
C0 C1 1.264 . S
C0 C5 1.479 . S
C0 C10 1.444 1_655 S
C1 C0 1.264 . S
C1 C3 1.339 . S
C1 H28 0.931 . S
C2 C3 1.395 . S
C2 C4 1.320 . S
C3 C1 1.339 . S
C3 C2 1.395 . S
C3 H29 0.929 . S
C4 C2 1.320 . S
C4 C5 1.405 . S
C4 H30 0.930 . S
C5 C0 1.479 . S
C5 C4 1.405 . S
C5 H31 0.931 . S
U6 O7 2.454 . S
U6 O8 2.458 . S
U6 C9 2.984 . S
U6 C10 2.870 . S
U6 C23 2.882 . S
U6 O24 2.441 . S
U6 O25 2.420 . S
U6 O26 2.455 . S
U6 O27 2.449 . S
O7 U6 2.454 . S
O7 C9 1.353 . S
O8 U6 2.458 . S
O8 C9 1.286 . S
C9 U6 2.984 . S
C9 O7 1.353 . S
C9 O8 1.286 . S
C9 C11 1.363 . S
C10 C0 1.444 1_455 S
C10 U6 2.870 . S
C10 O24 1.253 . S
C10 O25 1.222 . S
C11 C9 1.363 . S
C11 C13 1.408 . S
C11 C16 1.342 . S
C12 C13 1.310 . S
C12 C15 1.461 . S
C12 H32 0.932 . S
C13 C11 1.408 . S
C13 C12 1.310 . S
C13 H33 0.930 . S
C14 C15 1.474 . S
C14 C16 1.285 . S
C14 H34 0.929 . S
C15 C12 1.461 . S
C15 C14 1.474 . S
C16 C11 1.342 . S
C16 C14 1.285 . S
C16 H35 0.930 . S
C17 C20 1.424 . S
C17 C22 1.245 . S
C17 C23 1.428 . S
C18 C21 1.260 . S
C18 C22 1.477 . S
C18 H36 0.932 . S
C19 C20 1.384 . S
C19 C21 1.479 . S
C19 H37 0.929 . S
C20 C17 1.424 . S
C20 C19 1.384 . S
C20 H38 0.928 . S
C21 C18 1.260 . S
C21 C19 1.479 . S
C22 C17 1.245 . S
C22 C18 1.477 . S
C22 H39 0.932 . S
C23 U6 2.882 . S
C23 C17 1.428 . S
C23 O26 1.301 . S
C23 O27 1.282 . S
O24 U6 2.441 . S
O24 C10 1.253 . S
O25 U6 2.420 . S
O25 C10 1.222 . S
O26 U6 2.455 . S
O26 C23 1.301 . S
O27 U6 2.449 . S
O27 C23 1.282 . S
H28 C1 0.931 . S
H29 C3 0.929 . S
H30 C4 0.930 . S
H31 C5 0.931 . S
H32 C12 0.932 . S
H33 C13 0.930 . S
H34 C14 0.929 . S
H35 C16 0.930 . S
H36 C18 0.932 . S
H37 C19 0.929 . S
H38 C20 0.928 . S
H39 C22 0.932 . S
C40 C41 1.264 . S
C40 C45 1.479 . S
C40 C50 1.465 . S
C41 C40 1.264 . S
C41 C43 1.339 . S
C41 H68 0.931 . S
C42 C43 1.395 . S
C42 C44 1.320 . S
C43 C41 1.339 . S
C43 C42 1.395 . S
C43 H69 0.929 . S
C44 C42 1.320 . S
C44 C45 1.405 . S
C44 H70 0.930 . S
C45 C40 1.479 . S
C45 C44 1.405 . S
C45 H71 0.931 . S
U46 O47 2.454 . S
U46 O48 2.458 . S
U46 C49 2.984 . S
U46 C50 2.847 . S
U46 C63 2.882 . S
U46 O64 2.441 . S
U46 O65 2.420 . S
U46 O66 2.455 . S
U46 O67 2.449 . S
O47 U46 2.454 . S
O47 C49 1.353 . S
O48 U46 2.458 . S
O48 C49 1.286 . S
C49 U46 2.984 . S
C49 O47 1.353 . S
C49 O48 1.286 . S
C49 C51 1.363 . S
C50 C40 1.465 . S
C50 U46 2.847 . S
C50 O64 1.249 . S
C50 O65 1.202 . S
C51 C49 1.363 . S
C51 C53 1.408 . S
C51 C56 1.342 . S
C52 C53 1.310 . S
C52 C55 1.461 . S
C52 H72 0.932 . S
C53 C51 1.408 . S
C53 C52 1.310 . S
C53 H73 0.930 . S
C54 C55 1.474 . S
C54 C56 1.285 . S
C54 H74 0.929 . S
C55 C52 1.461 . S
C55 C54 1.474 . S
C56 C51 1.342 . S
C56 C54 1.285 . S
C56 H75 0.930 . S
C57 C60 1.424 . S
C57 C62 1.245 . S
C57 C63 1.428 . S
C58 C61 1.260 . S
C58 C62 1.477 . S
C58 H76 0.932 . S
C59 C60 1.384 . S
C59 C61 1.479 . S
C59 H77 0.929 . S
C60 C57 1.424 . S
C60 C59 1.384 . S
C60 H78 0.928 . S
C61 C58 1.260 . S
C61 C59 1.479 . S
C62 C57 1.245 . S
C62 C58 1.477 . S
C62 H79 0.932 . S
C63 U46 2.882 . S
C63 C57 1.428 . S
C63 O66 1.301 . S
C63 O67 1.282 . S
O64 U46 2.441 . S
O64 C50 1.249 . S
O65 U46 2.420 . S
O65 C50 1.202 . S
O66 U46 2.455 . S
O66 C63 1.301 . S
O67 U46 2.449 . S
O67 C63 1.282 . S
H68 C41 0.931 . S
H69 C43 0.929 . S
H70 C44 0.930 . S
H71 C45 0.931 . S
H72 C52 0.932 . S
H73 C53 0.930 . S
H74 C54 0.929 . S
H75 C56 0.930 . S
H76 C58 0.932 . S
H77 C59 0.929 . S
H78 C60 0.928 . S
H79 C62 0.932 . S
C80 C81 1.264 . S
C80 C85 1.479 . S
C80 C90 1.465 . S
C81 C80 1.264 . S
C81 C83 1.339 . S
C81 H108 0.931 . S
C82 C83 1.395 . S
C82 C84 1.320 . S
C83 C81 1.339 . S
C83 C82 1.395 . S
C83 H109 0.929 . S
C84 C82 1.320 . S
C84 C85 1.405 . S
C84 H110 0.930 . S
C85 C80 1.479 . S
C85 C84 1.405 . S
C85 H111 0.931 . S
U86 O87 2.454 . S
U86 O88 2.458 . S
U86 C89 2.984 . S
U86 C90 2.847 . S
U86 C103 2.882 . S
U86 O104 2.441 . S
U86 O105 2.420 . S
U86 O106 2.455 . S
U86 O107 2.449 . S
O87 U86 2.454 . S
O87 C89 1.353 . S
O88 U86 2.458 . S
O88 C89 1.286 . S
C89 U86 2.984 . S
C89 O87 1.353 . S
C89 O88 1.286 . S
C89 C91 1.363 . S
C90 C80 1.465 . S
C90 U86 2.847 . S
C90 O104 1.249 . S
C90 O105 1.202 . S
C91 C89 1.363 . S
C91 C93 1.408 . S
C91 C96 1.342 . S
C92 C93 1.310 . S
C92 C95 1.461 . S
C92 H112 0.932 . S
C93 C91 1.408 . S
C93 C92 1.310 . S
C93 H113 0.930 . S
C94 C95 1.474 . S
C94 C96 1.285 . S
C94 H114 0.929 . S
C95 C92 1.461 . S
C95 C94 1.474 . S
C96 C91 1.342 . S
C96 C94 1.285 . S
C96 H115 0.930 . S
C97 C100 1.424 . S
C97 C102 1.245 . S
C97 C103 1.428 . S
C98 C101 1.260 . S
C98 C102 1.477 . S
C98 H116 0.932 . S
C99 C100 1.384 . S
C99 C101 1.479 . S
C99 H117 0.929 . S
C100 C97 1.424 . S
C100 C99 1.384 . S
C100 H118 0.928 . S
C101 C98 1.260 . S
C101 C99 1.479 . S
C102 C97 1.245 . S
C102 C98 1.477 . S
C102 H119 0.932 . S
C103 U86 2.882 . S
C103 C97 1.428 . S
C103 O106 1.301 . S
C103 O107 1.282 . S
O104 U86 2.441 . S
O104 C90 1.249 . S
O105 U86 2.420 . S
O105 C90 1.202 . S
O106 U86 2.455 . S
O106 C103 1.301 . S
O107 U86 2.449 . S
O107 C103 1.282 . S
H108 C81 0.931 . S
H109 C83 0.929 . S
H110 C84 0.930 . S
H111 C85 0.931 . S
H112 C92 0.932 . S
H113 C93 0.930 . S
H114 C94 0.929 . S
H115 C96 0.930 . S
H116 C98 0.932 . S
H117 C99 0.929 . S
H118 C100 0.928 . S
H119 C102 0.932 . S
C120 C121 1.264 . S
C120 C125 1.479 . S
C120 C130 1.465 . S
C121 C120 1.264 . S
C121 C123 1.339 . S
C121 H148 0.931 . S
C122 C123 1.395 . S
C122 C124 1.320 . S
C123 C121 1.339 . S
C123 C122 1.395 . S
C123 H149 0.929 . S
C124 C122 1.320 . S
C124 C125 1.405 . S
C124 H150 0.930 . S
C125 C120 1.479 . S
C125 C124 1.405 . S
C125 H151 0.931 . S
U126 O127 2.454 . S
U126 O128 2.458 . S
U126 C129 2.984 . S
U126 C130 2.847 . S
U126 C143 2.882 . S
U126 O144 2.441 . S
U126 O145 2.420 . S
U126 O146 2.455 . S
U126 O147 2.449 . S
O127 U126 2.454 . S
O127 C129 1.353 . S
O128 U126 2.458 . S
O128 C129 1.286 . S
C129 U126 2.984 . S
C129 O127 1.353 . S
C129 O128 1.286 . S
C129 C131 1.363 1_554 S
C130 C120 1.465 . S
C130 U126 2.847 . S
C130 O144 1.249 . S
C130 O145 1.202 . S
C131 C129 1.363 1_556 S
C131 C133 1.408 . S
C131 C136 1.342 . S
C132 C133 1.310 . S
C132 C135 1.461 . S
C132 H152 0.932 . S
C133 C131 1.408 . S
C133 C132 1.310 . S
C133 H153 0.930 . S
C134 C135 1.474 . S
C134 C136 1.285 . S
C134 H154 0.929 . S
C135 C132 1.461 . S
C135 C134 1.474 . S
C136 C131 1.342 . S
C136 C134 1.285 . S
C136 H155 0.930 1_556 S
C137 C140 1.424 . S
C137 C142 1.245 . S
C137 C143 1.428 . S
C138 C141 1.260 . S
C138 C142 1.477 . S
C138 H156 0.932 . S
C139 C140 1.384 . S
C139 C141 1.479 . S
C139 H157 0.929 . S
C140 C137 1.424 . S
C140 C139 1.384 . S
C140 H158 0.928 . S
C141 C138 1.260 . S
C141 C139 1.479 . S
C142 C137 1.245 . S
C142 C138 1.477 . S
C142 H159 0.932 . S
C143 U126 2.882 . S
C143 C137 1.428 . S
C143 O146 1.301 . S
C143 O147 1.282 . S
O144 U126 2.441 . S
O144 C130 1.249 . S
O145 U126 2.420 . S
O145 C130 1.202 . S
O146 U126 2.455 . S
O146 C143 1.301 . S
O147 U126 2.449 . S
O147 C143 1.282 . S
H148 C121 0.931 . S
H149 C123 0.929 . S
H150 C124 0.930 . S
H151 C125 0.931 . S
H152 C132 0.932 . S
H153 C133 0.930 . S
H154 C134 0.929 . S
H155 C136 0.930 1_554 S
H156 C138 0.932 . S
H157 C139 0.929 . S
H158 C140 0.928 . S
H159 C142 0.932 . S
C160 C161 1.264 . S
C160 C165 1.479 . S
C160 C170 1.465 1_655 S
C161 C160 1.264 . S
C161 C163 1.339 . S
C161 H188 0.931 . S
C162 C163 1.395 . S
C162 C164 1.320 . S
C163 C161 1.339 . S
C163 C162 1.395 . S
C163 H189 0.929 . S
C164 C162 1.320 . S
C164 C165 1.405 . S
C164 H190 0.930 . S
C165 C160 1.479 . S
C165 C164 1.405 . S
C165 H191 0.931 . S
U166 O167 2.454 . S
U166 O168 2.458 . S
U166 C169 2.984 . S
U166 C170 2.847 . S
U166 C183 2.882 . S
U166 O184 2.441 . S
U166 O185 2.420 . S
U166 O186 2.455 . S
U166 O187 2.449 . S
O167 U166 2.454 . S
O167 C169 1.353 . S
O168 U166 2.458 . S
O168 C169 1.286 . S
C169 U166 2.984 . S
C169 O167 1.353 . S
C169 O168 1.286 . S
C169 C171 1.363 . S
C170 C160 1.465 1_455 S
C170 U166 2.847 . S
C170 O184 1.249 . S
C170 O185 1.202 . S
C171 C169 1.363 . S
C171 C173 1.408 . S
C171 C176 1.342 . S
C172 C173 1.310 . S
C172 C175 1.461 . S
C172 H192 0.932 . S
C173 C171 1.408 . S
C173 C172 1.310 . S
C173 H193 0.930 . S
C174 C175 1.474 . S
C174 C176 1.285 . S
C174 H194 0.929 . S
C175 C172 1.461 . S
C175 C174 1.474 . S
C176 C171 1.342 . S
C176 C174 1.285 . S
C176 H195 0.930 . S
C177 C180 1.424 . S
C177 C182 1.245 . S
C177 C183 1.428 . S
C178 C181 1.260 . S
C178 C182 1.477 . S
C178 H196 0.932 . S
C179 C180 1.384 . S
C179 C181 1.479 . S
C179 H197 0.929 . S
C180 C177 1.424 . S
C180 C179 1.384 . S
C180 H198 0.928 . S
C181 C178 1.260 . S
C181 C179 1.479 . S
C182 C177 1.245 . S
C182 C178 1.477 . S
C182 H199 0.932 . S
C183 U166 2.882 . S
C183 C177 1.428 . S
C183 O186 1.301 . S
C183 O187 1.282 . S
O184 U166 2.441 . S
O184 C170 1.249 . S
O185 U166 2.420 . S
O185 C170 1.202 . S
O186 U166 2.455 . S
O186 C183 1.301 . S
O187 U166 2.449 . S
O187 C183 1.282 . S
H188 C161 0.931 . S
H189 C163 0.929 . S
H190 C164 0.930 . S
H191 C165 0.931 . S
H192 C172 0.932 . S
H193 C173 0.930 . S
H194 C174 0.929 . S
H195 C176 0.930 . S
H196 C178 0.932 . S
H197 C179 0.929 . S
H198 C180 0.928 . S
H199 C182 0.932 . S
C200 C201 1.264 . S
C200 C205 1.479 . S
C200 C210 1.465 . S
C201 C200 1.264 . S
C201 C203 1.339 . S
C201 H228 0.931 . S
C202 C203 1.395 . S
C202 C204 1.320 . S
C203 C201 1.339 . S
C203 C202 1.395 . S
C203 H229 0.929 . S
C204 C202 1.320 . S
C204 C205 1.405 . S
C204 H230 0.930 . S
C205 C200 1.479 . S
C205 C204 1.405 . S
C205 H231 0.931 . S
U206 O207 2.454 . S
U206 O208 2.458 . S
U206 C209 2.984 . S
U206 C210 2.847 . S
U206 C223 2.882 . S
U206 O224 2.441 . S
U206 O225 2.420 . S
U206 O226 2.455 . S
U206 O227 2.449 . S
O207 U206 2.454 . S
O207 C209 1.353 . S
O208 U206 2.458 . S
O208 C209 1.286 . S
C209 U206 2.984 . S
C209 O207 1.353 . S
C209 O208 1.286 . S
C209 C211 1.363 . S
C210 C200 1.465 . S
C210 U206 2.847 . S
C210 O224 1.249 . S
C210 O225 1.202 . S
C211 C209 1.363 . S
C211 C213 1.408 . S
C211 C216 1.342 . S
C212 C213 1.310 . S
C212 C215 1.461 . S
C212 H232 0.932 . S
C213 C211 1.408 . S
C213 C212 1.310 . S
C213 H233 0.930 . S
C214 C215 1.474 . S
C214 C216 1.285 . S
C214 H234 0.929 . S
C215 C212 1.461 . S
C215 C214 1.474 . S
C216 C211 1.342 . S
C216 C214 1.285 . S
C216 H235 0.930 . S
C217 C220 1.424 . S
C217 C222 1.245 . S
C217 C223 1.428 . S
C218 C221 1.260 . S
C218 C222 1.477 . S
C218 H236 0.932 . S
C219 C220 1.384 . S
C219 C221 1.479 . S
C219 H237 0.929 . S
C220 C217 1.424 . S
C220 C219 1.384 . S
C220 H238 0.928 . S
C221 C218 1.260 . S
C221 C219 1.479 . S
C222 C217 1.245 . S
C222 C218 1.477 . S
C222 H239 0.932 . S
C223 U206 2.882 . S
C223 C217 1.428 . S
C223 O226 1.301 . S
C223 O227 1.282 . S
O224 U206 2.441 . S
O224 C210 1.249 . S
O225 U206 2.420 . S
O225 C210 1.202 . S
O226 U206 2.455 . S
O226 C223 1.301 . S
O227 U206 2.449 . S
O227 C223 1.282 . S
H228 C201 0.931 . S
H229 C203 0.929 . S
H230 C204 0.930 . S
H231 C205 0.931 . S
H232 C212 0.932 . S
H233 C213 0.930 . S
H234 C214 0.929 . S
H235 C216 0.930 . S
H236 C218 0.932 . S
H237 C219 0.929 . S
H238 C220 0.928 . S
H239 C222 0.932 . S
C240 C241 1.264 . S
C240 C245 1.479 . S
C240 C250 1.465 . S
C241 C240 1.264 . S
C241 C243 1.339 . S
C241 H268 0.931 . S
C242 C243 1.395 . S
C242 C244 1.320 . S
C243 C241 1.339 . S
C243 C242 1.395 . S
C243 H269 0.929 . S
C244 C242 1.320 . S
C244 C245 1.405 . S
C244 H270 0.930 . S
C245 C240 1.479 . S
C245 C244 1.405 . S
C245 H271 0.931 . S
U246 O247 2.454 . S
U246 O248 2.458 . S
U246 C249 2.984 . S
U246 C250 2.847 . S
U246 C263 2.882 . S
U246 O264 2.441 . S
U246 O265 2.420 . S
U246 O266 2.455 . S
U246 O267 2.449 . S
O247 U246 2.454 . S
O247 C249 1.353 . S
O248 U246 2.458 . S
O248 C249 1.286 . S
C249 U246 2.984 . S
C249 O247 1.353 . S
C249 O248 1.286 . S
C249 C251 1.363 . S
C250 C240 1.465 . S
C250 U246 2.847 . S
C250 O264 1.249 . S
C250 O265 1.202 . S
C251 C249 1.363 . S
C251 C253 1.408 . S
C251 C256 1.342 . S
C252 C253 1.310 . S
C252 C255 1.461 . S
C252 H272 0.932 . S
C253 C251 1.408 . S
C253 C252 1.310 . S
C253 H273 0.930 . S
C254 C255 1.474 . S
C254 C256 1.285 . S
C254 H274 0.929 . S
C255 C252 1.461 . S
C255 C254 1.474 . S
C256 C251 1.342 . S
C256 C254 1.285 . S
C256 H275 0.930 . S
C257 C260 1.424 . S
C257 C262 1.245 . S
C257 C263 1.428 . S
C258 C261 1.260 . S
C258 C262 1.477 . S
C258 H276 0.932 . S
C259 C260 1.384 . S
C259 C261 1.479 . S
C259 H277 0.929 . S
C260 C257 1.424 . S
C260 C259 1.384 . S
C260 H278 0.928 . S
C261 C258 1.260 . S
C261 C259 1.479 . S
C262 C257 1.245 . S
C262 C258 1.477 . S
C262 H279 0.932 . S
C263 U246 2.882 . S
C263 C257 1.428 . S
C263 O266 1.301 . S
C263 O267 1.282 . S
O264 U246 2.441 . S
O264 C250 1.249 . S
O265 U246 2.420 . S
O265 C250 1.202 . S
O266 U246 2.455 . S
O266 C263 1.301 . S
O267 U246 2.449 . S
O267 C263 1.282 . S
H268 C241 0.931 . S
H269 C243 0.929 . S
H270 C244 0.930 . S
H271 C245 0.931 . S
H272 C252 0.932 . S
H273 C253 0.930 . S
H274 C254 0.929 . S
H275 C256 0.930 . S
H276 C258 0.932 . S
H277 C259 0.929 . S
H278 C260 0.928 . S
H279 C262 0.932 . S
C280 C281 1.264 . S
C280 C285 1.479 . S
C280 C290 1.465 1_554 S
C281 C280 1.264 . S
C281 C283 1.339 . S
C281 H308 0.931 . S
C282 C283 1.395 . S
C282 C284 1.320 . S
C283 C281 1.339 . S
C283 C282 1.395 . S
C283 H309 0.929 . S
C284 C282 1.320 . S
C284 C285 1.405 . S
C284 H310 0.930 . S
C285 C280 1.479 . S
C285 C284 1.405 . S
C285 H311 0.931 . S
U286 O287 2.454 . S
U286 O288 2.458 . S
U286 C289 2.984 . S
U286 C290 2.847 . S
U286 C303 2.882 . S
U286 O304 2.441 . S
U286 O305 2.420 . S
U286 O306 2.455 . S
U286 O307 2.449 . S
O287 U286 2.454 . S
O287 C289 1.353 . S
O288 U286 2.458 . S
O288 C289 1.286 . S
C289 U286 2.984 . S
C289 O287 1.353 . S
C289 O288 1.286 . S
C289 C291 1.363 . S
C290 C280 1.465 1_556 S
C290 U286 2.847 . S
C290 O304 1.249 . S
C290 O305 1.202 . S
C291 C289 1.363 . S
C291 C293 1.408 . S
C291 C296 1.342 . S
C292 C293 1.310 . S
C292 C295 1.461 . S
C292 H312 0.932 . S
C293 C291 1.408 . S
C293 C292 1.310 . S
C293 H313 0.930 . S
C294 C295 1.474 . S
C294 C296 1.285 . S
C294 H314 0.929 . S
C295 C292 1.461 . S
C295 C294 1.474 . S
C296 C291 1.342 . S
C296 C294 1.285 . S
C296 H315 0.930 . S
C297 C300 1.424 . S
C297 C302 1.245 . S
C297 C303 1.428 . S
C298 C301 1.260 . S
C298 C302 1.477 . S
C298 H316 0.932 . S
C299 C300 1.384 . S
C299 C301 1.479 . S
C299 H317 0.929 . S
C300 C297 1.424 . S
C300 C299 1.384 . S
C300 H318 0.928 . S
C301 C298 1.260 . S
C301 C299 1.479 . S
C302 C297 1.245 . S
C302 C298 1.477 . S
C302 H319 0.932 . S
C303 U286 2.882 . S
C303 C297 1.428 . S
C303 O306 1.301 . S
C303 O307 1.282 . S
O304 U286 2.441 . S
O304 C290 1.249 . S
O305 U286 2.420 . S
O305 C290 1.202 . S
O306 U286 2.455 . S
O306 C303 1.301 . S
O307 U286 2.449 . S
O307 C303 1.282 . S
H308 C281 0.931 . S
H309 C283 0.929 . S
H310 C284 0.930 . S
H311 C285 0.931 . S
H312 C292 0.932 . S
H313 C293 0.930 . S
H314 C294 0.929 . S
H315 C296 0.930 . S
H316 C298 0.932 . S
H317 C299 0.929 . S
H318 C300 0.928 . S
H319 C302 0.932 . S
C320 C321 1.264 . S
C320 C325 1.479 . S
C320 C330 1.465 . S
C321 C320 1.264 . S
C321 C323 1.339 . S
C321 H348 0.931 . S
C322 C323 1.395 . S
C322 C324 1.320 . S
C323 C321 1.339 . S
C323 C322 1.395 . S
C323 H349 0.929 . S
C324 C322 1.320 . S
C324 C325 1.405 . S
C324 H350 0.930 . S
C325 C320 1.479 . S
C325 C324 1.405 . S
C325 H351 0.931 . S
U326 O327 2.454 . S
U326 O328 2.458 . S
U326 C329 2.984 . S
U326 C330 2.847 . S
U326 C343 2.882 . S
U326 O344 2.441 . S
U326 O345 2.420 . S
U326 O346 2.455 . S
U326 O347 2.449 . S
O327 U326 2.454 . S
O327 C329 1.353 . S
O328 U326 2.458 . S
O328 C329 1.286 . S
C329 U326 2.984 . S
C329 O327 1.353 . S
C329 O328 1.286 . S
C329 C331 1.363 1_545 S
C330 C320 1.465 . S
C330 U326 2.847 . S
C330 O344 1.249 . S
C330 O345 1.202 . S
C331 C329 1.363 1_565 S
C331 C333 1.408 . S
C331 C336 1.342 . S
C332 C333 1.310 . S
C332 C335 1.461 . S
C332 H352 0.932 . S
C333 C331 1.408 . S
C333 C332 1.310 . S
C333 H353 0.930 . S
C334 C335 1.474 . S
C334 C336 1.285 . S
C334 H354 0.929 . S
C335 C332 1.461 . S
C335 C334 1.474 . S
C336 C331 1.342 . S
C336 C334 1.285 . S
C336 H355 0.930 . S
C337 C340 1.424 . S
C337 C342 1.245 . S
C337 C343 1.428 . S
C338 C341 1.260 . S
C338 C342 1.477 . S
C338 H356 0.932 . S
C339 C340 1.384 . S
C339 C341 1.479 . S
C339 H357 0.929 . S
C340 C337 1.424 . S
C340 C339 1.384 . S
C340 H358 0.928 . S
C341 C338 1.260 . S
C341 C339 1.479 . S
C342 C337 1.245 . S
C342 C338 1.477 . S
C342 H359 0.932 . S
C343 U326 2.882 . S
C343 C337 1.428 . S
C343 O346 1.301 . S
C343 O347 1.282 . S
O344 U326 2.441 . S
O344 C330 1.249 . S
O345 U326 2.420 . S
O345 C330 1.202 . S
O346 U326 2.455 . S
O346 C343 1.301 . S
O347 U326 2.449 . S
O347 C343 1.282 . S
H348 C321 0.931 . S
H349 C323 0.929 . S
H350 C324 0.930 . S
H351 C325 0.931 . S
H352 C332 0.932 . S
H353 C333 0.930 . S
H354 C334 0.929 . S
H355 C336 0.930 . S
H356 C338 0.932 . S
H357 C339 0.929 . S
H358 C340 0.928 . S
H359 C342 0.932 . S
C360 C361 1.264 . S
C360 C365 1.479 . S
C360 C370 1.465 1_565 S
C361 C360 1.264 . S
C361 C363 1.339 . S
C361 H388 0.931 . S
C362 C363 1.395 . S
C362 C364 1.320 . S
C363 C361 1.339 . S
C363 C362 1.395 . S
C363 H389 0.929 . S
C364 C362 1.320 . S
C364 C365 1.405 . S
C364 H390 0.930 . S
C365 C360 1.479 . S
C365 C364 1.405 . S
C365 H391 0.931 . S
U366 O367 2.454 . S
U366 O368 2.458 . S
U366 C369 2.984 . S
U366 C370 2.847 . S
U366 C383 2.882 . S
U366 O384 2.441 . S
U366 O385 2.420 . S
U366 O386 2.455 . S
U366 O387 2.449 . S
O367 U366 2.454 . S
O367 C369 1.353 . S
O368 U366 2.458 . S
O368 C369 1.286 . S
C369 U366 2.984 . S
C369 O367 1.353 . S
C369 O368 1.286 . S
C369 C371 1.363 . S
C370 C360 1.465 1_545 S
C370 U366 2.847 . S
C370 O384 1.249 . S
C370 O385 1.202 . S
C371 C369 1.363 . S
C371 C373 1.408 . S
C371 C376 1.342 . S
C372 C373 1.310 . S
C372 C375 1.461 . S
C372 H392 0.932 . S
C373 C371 1.408 . S
C373 C372 1.310 . S
C373 H393 0.930 . S
C374 C375 1.474 . S
C374 C376 1.285 . S
C374 H394 0.929 . S
C375 C372 1.461 . S
C375 C374 1.474 . S
C376 C371 1.342 . S
C376 C374 1.285 . S
C376 H395 0.930 . S
C377 C380 1.424 . S
C377 C382 1.245 . S
C377 C383 1.428 . S
C378 C381 1.260 . S
C378 C382 1.477 . S
C378 H396 0.932 . S
C379 C380 1.384 . S
C379 C381 1.479 . S
C379 H397 0.929 . S
C380 C377 1.424 . S
C380 C379 1.384 . S
C380 H398 0.928 . S
C381 C378 1.260 . S
C381 C379 1.479 . S
C382 C377 1.245 . S
C382 C378 1.477 . S
C382 H399 0.932 . S
C383 U366 2.882 . S
C383 C377 1.428 . S
C383 O386 1.301 . S
C383 O387 1.282 . S
O384 U366 2.441 . S
O384 C370 1.249 . S
O385 U366 2.420 . S
O385 C370 1.202 . S
O386 U366 2.455 . S
O386 C383 1.301 . S
O387 U366 2.449 . S
O387 C383 1.282 . S
H388 C361 0.931 . S
H389 C363 0.929 . S
H390 C364 0.930 . S
H391 C365 0.931 . S
H392 C372 0.932 . S
H393 C373 0.930 . S
H394 C374 0.929 . S
H395 C376 0.930 . S
H396 C378 0.932 . S
H397 C379 0.929 . S
H398 C380 0.928 . S
H399 C382 0.932 . S
C400 C401 1.264 . S
C400 C405 1.479 . S
C400 C410 1.465 1_545 S
C401 C400 1.264 . S
C401 C403 1.339 . S
C401 H428 0.931 . S
C402 C403 1.395 . S
C402 C404 1.320 . S
C403 C401 1.339 . S
C403 C402 1.395 . S
C403 H429 0.929 . S
C404 C402 1.320 . S
C404 C405 1.405 . S
C404 H430 0.930 . S
C405 C400 1.479 . S
C405 C404 1.405 . S
C405 H431 0.931 . S
U406 O407 2.454 . S
U406 O408 2.458 . S
U406 C409 2.984 . S
U406 C410 2.847 . S
U406 C423 2.882 . S
U406 O424 2.441 . S
U406 O425 2.420 . S
U406 O426 2.455 . S
U406 O427 2.449 . S
O407 U406 2.454 . S
O407 C409 1.353 . S
O408 U406 2.458 . S
O408 C409 1.286 . S
C409 U406 2.984 . S
C409 O407 1.353 . S
C409 O408 1.286 . S
C409 C411 1.363 . S
C410 C400 1.465 1_565 S
C410 U406 2.847 . S
C410 O424 1.249 . S
C410 O425 1.202 . S
C411 C409 1.363 . S
C411 C413 1.408 . S
C411 C416 1.342 . S
C412 C413 1.310 . S
C412 C415 1.461 . S
C412 H432 0.932 . S
C413 C411 1.408 . S
C413 C412 1.310 . S
C413 H433 0.930 . S
C414 C415 1.474 . S
C414 C416 1.285 . S
C414 H434 0.929 . S
C415 C412 1.461 . S
C415 C414 1.474 . S
C416 C411 1.342 . S
C416 C414 1.285 . S
C416 H435 0.930 . S
C417 C420 1.424 . S
C417 C422 1.245 . S
C417 C423 1.428 . S
C418 C421 1.260 . S
C418 C422 1.477 . S
C418 H436 0.932 . S
C419 C420 1.384 . S
C419 C421 1.479 . S
C419 H437 0.929 . S
C420 C417 1.424 . S
C420 C419 1.384 . S
C420 H438 0.928 . S
C421 C418 1.260 . S
C421 C419 1.479 . S
C422 C417 1.245 . S
C422 C418 1.477 . S
C422 H439 0.932 . S
C423 U406 2.882 . S
C423 C417 1.428 . S
C423 O426 1.301 . S
C423 O427 1.282 . S
O424 U406 2.441 . S
O424 C410 1.249 . S
O425 U406 2.420 . S
O425 C410 1.202 . S
O426 U406 2.455 . S
O426 C423 1.301 . S
O427 U406 2.449 . S
O427 C423 1.282 . S
H428 C401 0.931 . S
H429 C403 0.929 . S
H430 C404 0.930 . S
H431 C405 0.931 . S
H432 C412 0.932 . S
H433 C413 0.930 . S
H434 C414 0.929 . S
H435 C416 0.930 . S
H436 C418 0.932 . S
H437 C419 0.929 . S
H438 C420 0.928 . S
H439 C422 0.932 . S
C440 C441 1.264 . S
C440 C445 1.479 . S
C440 C450 1.465 . S
C441 C440 1.264 . S
C441 C443 1.339 . S
C441 H468 0.931 . S
C442 C443 1.395 . S
C442 C444 1.320 . S
C443 C441 1.339 . S
C443 C442 1.395 . S
C443 H469 0.929 . S
C444 C442 1.320 . S
C444 C445 1.405 . S
C444 H470 0.930 . S
C445 C440 1.479 . S
C445 C444 1.405 . S
C445 H471 0.931 . S
U446 O447 2.454 . S
U446 O448 2.458 . S
U446 C449 3.025 . S
U446 C450 2.847 . S
U446 C463 2.882 . S
U446 O464 2.441 . S
U446 O465 2.420 . S
U446 O466 2.455 . S
U446 O467 2.449 . S
O447 U446 2.454 . S
O447 C449 1.361 . S
O448 U446 2.458 . S
O448 C449 1.325 . S
C449 U446 3.025 . S
C449 O447 1.361 . S
C449 O448 1.325 . S
C449 C451 1.323 1_565 S
C450 C440 1.465 . S
C450 U446 2.847 . S
C450 O464 1.249 . S
C450 O465 1.202 . S
C451 C449 1.323 1_545 S
C451 C453 1.408 . S
C451 C456 1.342 . S
C452 C453 1.310 . S
C452 C455 1.461 . S
C452 H472 0.932 . S
C453 C451 1.408 . S
C453 C452 1.310 . S
C453 H473 0.930 . S
C454 C455 1.474 . S
C454 C456 1.285 . S
C454 H474 0.929 . S
C455 C452 1.461 . S
C455 C454 1.474 . S
C456 C451 1.342 . S
C456 C454 1.285 . S
C456 H475 0.930 . S
C457 C460 1.424 . S
C457 C462 1.245 . S
C457 C463 1.428 . S
C458 C461 1.260 . S
C458 C462 1.477 . S
C458 H476 0.932 . S
C459 C460 1.384 . S
C459 C461 1.479 . S
C459 H477 0.929 . S
C460 C457 1.424 . S
C460 C459 1.384 . S
C460 H478 0.928 . S
C461 C458 1.260 . S
C461 C459 1.479 . S
C462 C457 1.245 . S
C462 C458 1.477 . S
C462 H479 0.932 . S
C463 U446 2.882 . S
C463 C457 1.428 . S
C463 O466 1.301 . S
C463 O467 1.282 . S
O464 U446 2.441 . S
O464 C450 1.249 . S
O465 U446 2.420 . S
O465 C450 1.202 . S
O466 U446 2.455 . S
O466 C463 1.301 . S
O467 U446 2.449 . S
O467 C463 1.282 . S
H468 C441 0.931 . S
H469 C443 0.929 . S
H470 C444 0.930 . S
H471 C445 0.931 . S
H472 C452 0.932 . S
H473 C453 0.930 . S
H474 C454 0.929 . S
H475 C456 0.930 . S
H476 C458 0.932 . S
H477 C459 0.929 . S
H478 C460 0.928 . S
H479 C462 0.932 . S
C480 C481 1.264 . S
C480 C485 1.479 . S
C480 C490 1.465 . S
C481 C480 1.264 . S
C481 C483 1.339 . S
C481 H508 0.931 . S
C482 C483 1.395 . S
C482 C484 1.320 . S
C483 C481 1.339 . S
C483 C482 1.395 . S
C483 H509 0.929 . S
C484 C482 1.320 . S
C484 C485 1.405 . S
C484 H510 0.930 . S
C485 C480 1.479 . S
C485 C484 1.405 . S
C485 H511 0.931 . S
U486 O487 2.454 . S
U486 O488 2.458 . S
U486 C489 2.984 . S
U486 C490 2.847 . S
U486 C503 2.882 . S
U486 O504 2.441 . S
U486 O505 2.420 . S
U486 O506 2.455 . S
U486 O507 2.449 . S
O487 U486 2.454 . S
O487 C489 1.353 . S
O488 U486 2.458 . S
O488 C489 1.286 . S
C489 U486 2.984 . S
C489 O487 1.353 . S
C489 O488 1.286 . S
C489 C491 1.363 1_554 S
C490 C480 1.465 . S
C490 U486 2.847 . S
C490 O504 1.249 . S
C490 O505 1.202 . S
C491 C489 1.363 1_556 S
C491 C493 1.408 . S
C491 C496 1.342 . S
C492 C493 1.310 . S
C492 C495 1.461 . S
C492 H512 0.932 . S
C493 C491 1.408 . S
C493 C492 1.310 . S
C493 H513 0.930 . S
C494 C495 1.474 . S
C494 C496 1.285 . S
C494 H514 0.929 . S
C495 C492 1.461 . S
C495 C494 1.474 . S
C496 C491 1.342 . S
C496 C494 1.285 . S
C496 H515 0.930 . S
C497 C500 1.424 . S
C497 C502 1.245 . S
C497 C503 1.428 . S
C498 C501 1.260 . S
C498 C502 1.477 . S
C498 H516 0.932 . S
C499 C500 1.384 . S
C499 C501 1.479 . S
C499 H517 0.929 . S
C500 C497 1.424 . S
C500 C499 1.384 . S
C500 H518 0.928 . S
C501 C498 1.260 . S
C501 C499 1.479 . S
C502 C497 1.245 . S
C502 C498 1.477 . S
C502 H519 0.932 . S
C503 U486 2.882 . S
C503 C497 1.428 . S
C503 O506 1.301 . S
C503 O507 1.282 . S
O504 U486 2.441 . S
O504 C490 1.249 . S
O505 U486 2.420 . S
O505 C490 1.202 . S
O506 U486 2.455 . S
O506 C503 1.301 . S
O507 U486 2.449 . S
O507 C503 1.282 . S
H508 C481 0.931 . S
H509 C483 0.929 . S
H510 C484 0.930 . S
H511 C485 0.931 . S
H512 C492 0.932 . S
H513 C493 0.930 . S
H514 C494 0.929 . S
H515 C496 0.930 . S
H516 C498 0.932 . S
H517 C499 0.929 . S
H518 C500 0.928 . S
H519 C502 0.932 . S
C520 C521 1.264 . S
C520 C525 1.479 . S
C520 C530 1.516 . S
C521 C520 1.264 . S
C521 C523 1.339 . S
C521 H548 0.931 . S
C522 C523 1.395 . S
C522 C524 1.320 . S
C523 C521 1.339 . S
C523 C522 1.395 . S
C523 H549 0.929 . S
C524 C522 1.320 . S
C524 C525 1.405 . S
C524 H550 0.930 . S
C525 C520 1.479 . S
C525 C524 1.405 . S
C525 H551 0.931 . S
U526 O527 2.454 . S
U526 O528 2.458 . S
U526 C529 2.984 . S
U526 C530 2.789 1_655 S
U526 C543 2.882 . S
U526 O544 2.441 . S
U526 O545 2.420 . S
U526 O546 2.455 . S
U526 O547 2.449 . S
O527 U526 2.454 . S
O527 C529 1.353 . S
O528 U526 2.458 . S
O528 C529 1.286 . S
C529 U526 2.984 . S
C529 O527 1.353 . S
C529 O528 1.286 . S
C529 C531 1.363 . S
C530 C520 1.516 . S
C530 U526 2.789 1_455 S
C530 O544 1.241 1_455 S
C530 O545 1.154 1_455 S
C531 C529 1.363 . S
C531 C533 1.408 . S
C531 C536 1.342 . S
C532 C533 1.310 . S
C532 C535 1.461 . S
C532 H552 0.932 . S
C533 C531 1.408 . S
C533 C532 1.310 . S
C533 H553 0.930 . S
C534 C535 1.474 . S
C534 C536 1.285 . S
C534 H554 0.929 . S
C535 C532 1.461 . S
C535 C534 1.474 . S
C536 C531 1.342 . S
C536 C534 1.285 . S
C536 H555 0.930 . S
C537 C540 1.424 . S
C537 C542 1.245 . S
C537 C543 1.428 . S
C538 C541 1.260 . S
C538 C542 1.477 . S
C538 H556 0.932 . S
C539 C540 1.384 . S
C539 C541 1.479 . S
C539 H557 0.929 . S
C540 C537 1.424 . S
C540 C539 1.384 . S
C540 H558 0.928 . S
C541 C538 1.260 . S
C541 C539 1.479 . S
C542 C537 1.245 . S
C542 C538 1.477 . S
C542 H559 0.932 . S
C543 U526 2.882 . S
C543 C537 1.428 . S
C543 O546 1.301 . S
C543 O547 1.282 . S
O544 U526 2.441 . S
O544 C530 1.241 1_655 S
O545 U526 2.420 . S
O545 C530 1.154 1_655 S
O546 U526 2.455 . S
O546 C543 1.301 . S
O547 U526 2.449 . S
O547 C543 1.282 . S
H548 C521 0.931 . S
H549 C523 0.929 . S
H550 C524 0.930 . S
H551 C525 0.931 . S
H552 C532 0.932 . S
H553 C533 0.930 . S
H554 C534 0.929 . S
H555 C536 0.930 . S
H556 C538 0.932 . S
H557 C539 0.929 . S
H558 C540 0.928 . S
H559 C542 0.932 . S
C560 C561 1.264 . S
C560 C565 1.479 . S
C560 C570 1.465 . S
C561 C560 1.264 . S
C561 C563 1.339 . S
C561 H588 0.931 . S
C562 C563 1.395 . S
C562 C564 1.320 . S
C563 C561 1.339 . S
C563 C562 1.395 . S
C563 H589 0.929 . S
C564 C562 1.320 . S
C564 C565 1.405 . S
C564 H590 0.930 . S
C565 C560 1.479 . S
C565 C564 1.405 . S
C565 H591 0.931 . S
U566 O567 2.454 . S
U566 O568 2.458 . S
U566 C569 2.984 . S
U566 C570 2.847 . S
U566 C583 2.882 . S
U566 O584 2.441 . S
U566 O585 2.420 . S
U566 O586 2.455 . S
U566 O587 2.449 . S
O567 U566 2.454 . S
O567 C569 1.353 . S
O568 U566 2.458 . S
O568 C569 1.286 . S
C569 U566 2.984 . S
C569 O567 1.353 . S
C569 O568 1.286 . S
C569 C571 1.363 . S
C570 C560 1.465 . S
C570 U566 2.847 . S
C570 O584 1.249 . S
C570 O585 1.202 . S
C571 C569 1.363 . S
C571 C573 1.408 . S
C571 C576 1.342 . S
C572 C573 1.310 . S
C572 C575 1.461 . S
C572 H592 0.932 . S
C573 C571 1.408 . S
C573 C572 1.310 . S
C573 H593 0.930 . S
C574 C575 1.474 . S
C574 C576 1.285 . S
C574 H594 0.929 . S
C575 C572 1.461 . S
C575 C574 1.474 . S
C576 C571 1.342 . S
C576 C574 1.285 . S
C576 H595 0.930 . S
C577 C580 1.424 . S
C577 C582 1.245 . S
C577 C583 1.428 . S
C578 C581 1.260 . S
C578 C582 1.477 . S
C578 H596 0.932 . S
C579 C580 1.384 . S
C579 C581 1.479 . S
C579 H597 0.929 . S
C580 C577 1.424 . S
C580 C579 1.384 . S
C580 H598 0.928 . S
C581 C578 1.260 . S
C581 C579 1.479 . S
C582 C577 1.245 . S
C582 C578 1.477 . S
C582 H599 0.932 . S
C583 U566 2.882 . S
C583 C577 1.428 . S
C583 O586 1.301 . S
C583 O587 1.282 . S
O584 U566 2.441 . S
O584 C570 1.249 . S
O585 U566 2.420 . S
O585 C570 1.202 . S
O586 U566 2.455 . S
O586 C583 1.301 . S
O587 U566 2.449 . S
O587 C583 1.282 . S
H588 C561 0.931 . S
H589 C563 0.929 . S
H590 C564 0.930 . S
H591 C565 0.931 . S
H592 C572 0.932 . S
H593 C573 0.930 . S
H594 C574 0.929 . S
H595 C576 0.930 . S
H596 C578 0.932 . S
H597 C579 0.929 . S
H598 C580 0.928 . S
H599 C582 0.932 . S
C600 C601 1.264 . S
C600 C605 1.479 . S
C600 C610 1.465 . S
C601 C600 1.264 . S
C601 C603 1.339 . S
C601 H628 0.931 . S
C602 C603 1.395 . S
C602 C604 1.320 . S
C603 C601 1.339 . S
C603 C602 1.395 . S
C603 H629 0.929 . S
C604 C602 1.320 . S
C604 C605 1.405 . S
C604 H630 0.930 . S
C605 C600 1.479 . S
C605 C604 1.405 . S
C605 H631 0.931 . S
U606 O607 2.454 1_655 S
U606 O608 2.458 1_655 S
U606 C609 2.984 1_655 S
U606 C610 2.847 . S
U606 C623 2.882 . S
U606 O624 2.441 . S
U606 O625 2.420 . S
U606 O626 2.455 . S
U606 O627 2.449 . S
O607 U606 2.454 1_455 S
O607 C609 1.353 . S
O608 U606 2.458 1_455 S
O608 C609 1.286 . S
C609 U606 2.984 1_455 S
C609 O607 1.353 . S
C609 O608 1.286 . S
C609 C611 1.363 . S
C610 C600 1.465 . S
C610 U606 2.847 . S
C610 O624 1.249 . S
C610 O625 1.202 . S
C611 C609 1.363 . S
C611 C613 1.408 . S
C611 C616 1.342 . S
C612 C613 1.310 . S
C612 C615 1.461 . S
C612 H632 0.932 . S
C613 C611 1.408 . S
C613 C612 1.310 . S
C613 H633 0.930 . S
C614 C615 1.474 . S
C614 C616 1.285 . S
C614 H634 0.929 . S
C615 C612 1.461 . S
C615 C614 1.474 . S
C616 C611 1.342 . S
C616 C614 1.285 . S
C616 H635 0.930 . S
C617 C620 1.424 . S
C617 C622 1.245 . S
C617 C623 1.428 . S
C618 C621 1.260 . S
C618 C622 1.477 . S
C618 H636 0.932 . S
C619 C620 1.384 . S
C619 C621 1.479 . S
C619 H637 0.929 . S
C620 C617 1.424 . S
C620 C619 1.384 . S
C620 H638 0.928 . S
C621 C618 1.260 . S
C621 C619 1.479 . S
C622 C617 1.245 . S
C622 C618 1.477 . S
C622 H639 0.932 . S
C623 U606 2.882 . S
C623 C617 1.428 . S
C623 O626 1.301 . S
C623 O627 1.282 . S
O624 U606 2.441 . S
O624 C610 1.249 . S
O625 U606 2.420 . S
O625 C610 1.202 . S
O626 U606 2.455 . S
O626 C623 1.301 . S
O627 U606 2.449 . S
O627 C623 1.282 . S
H628 C601 0.931 . S
H629 C603 0.929 . S
H630 C604 0.930 . S
H631 C605 0.931 . S
H632 C612 0.932 . S
H633 C613 0.930 . S
H634 C614 0.929 . S
H635 C616 0.930 . S
H636 C618 0.932 . S
H637 C619 0.929 . S
H638 C620 0.928 . S
H639 C622 0.932 . S
C640 C641 1.264 . S
C640 C645 1.479 . S
C640 C650 1.465 . S
C641 C640 1.264 . S
C641 C643 1.339 . S
C641 H668 0.931 . S
C642 C643 1.395 . S
C642 C644 1.320 . S
C643 C641 1.339 . S
C643 C642 1.395 . S
C643 H669 0.929 . S
C644 C642 1.320 . S
C644 C645 1.405 . S
C644 H670 0.930 . S
C645 C640 1.479 . S
C645 C644 1.405 . S
C645 H671 0.931 . S
U646 O647 2.454 . S
U646 O648 2.458 . S
U646 C649 2.984 . S
U646 C650 2.847 . S
U646 C663 2.882 . S
U646 O664 2.441 . S
U646 O665 2.420 . S
U646 O666 2.455 . S
U646 O667 2.449 . S
O647 U646 2.454 . S
O647 C649 1.353 . S
O648 U646 2.458 . S
O648 C649 1.286 . S
C649 U646 2.984 . S
C649 O647 1.353 . S
C649 O648 1.286 . S
C649 C651 1.363 . S
C650 C640 1.465 . S
C650 U646 2.847 . S
C650 O664 1.249 . S
C650 O665 1.202 . S
C651 C649 1.363 . S
C651 C653 1.408 . S
C651 C656 1.342 . S
C652 C653 1.310 . S
C652 C655 1.461 . S
C652 H672 0.932 . S
C653 C651 1.408 . S
C653 C652 1.310 . S
C653 H673 0.930 . S
C654 C655 1.474 . S
C654 C656 1.285 . S
C654 H674 0.929 . S
C655 C652 1.461 . S
C655 C654 1.474 . S
C656 C651 1.342 . S
C656 C654 1.285 . S
C656 H675 0.930 . S
C657 C660 1.424 . S
C657 C662 1.245 . S
C657 C663 1.428 . S
C658 C661 1.260 . S
C658 C662 1.477 . S
C658 H676 0.932 . S
C659 C660 1.384 . S
C659 C661 1.479 . S
C659 H677 0.929 . S
C660 C657 1.424 . S
C660 C659 1.384 . S
C660 H678 0.928 . S
C661 C658 1.260 . S
C661 C659 1.479 . S
C662 C657 1.245 . S
C662 C658 1.477 . S
C662 H679 0.932 . S
C663 U646 2.882 . S
C663 C657 1.428 . S
C663 O666 1.301 . S
C663 O667 1.282 . S
O664 U646 2.441 . S
O664 C650 1.249 . S
O665 U646 2.420 . S
O665 C650 1.202 . S
O666 U646 2.455 . S
O666 C663 1.301 . S
O667 U646 2.449 . S
O667 C663 1.282 . S
H668 C641 0.931 . S
H669 C643 0.929 . S
H670 C644 0.930 . S
H671 C645 0.931 . S
H672 C652 0.932 . S
H673 C653 0.930 . S
H674 C654 0.929 . S
H675 C656 0.930 . S
H676 C658 0.932 . S
H677 C659 0.929 . S
H678 C660 0.928 . S
H679 C662 0.932 . S
C680 C681 1.264 . S
C680 C685 1.479 . S
C680 C690 1.465 . S
C681 C680 1.264 . S
C681 C683 1.339 . S
C681 H708 0.931 . S
C682 C683 1.395 . S
C682 C684 1.320 . S
C683 C681 1.339 . S
C683 C682 1.395 . S
C683 H709 0.929 . S
C684 C682 1.320 . S
C684 C685 1.405 . S
C684 H710 0.930 . S
C685 C680 1.479 . S
C685 C684 1.405 . S
C685 H711 0.931 . S
U686 O687 2.454 . S
U686 O688 2.458 . S
U686 C689 2.984 . S
U686 C690 2.847 . S
U686 C703 2.882 . S
U686 O704 2.441 . S
U686 O705 2.420 . S
U686 O706 2.455 . S
U686 O707 2.449 . S
O687 U686 2.454 . S
O687 C689 1.353 . S
O688 U686 2.458 . S
O688 C689 1.286 . S
C689 U686 2.984 . S
C689 O687 1.353 . S
C689 O688 1.286 . S
C689 C691 1.363 . S
C690 C680 1.465 . S
C690 U686 2.847 . S
C690 O704 1.249 . S
C690 O705 1.202 . S
C691 C689 1.363 . S
C691 C693 1.408 . S
C691 C696 1.342 . S
C692 C693 1.310 . S
C692 C695 1.461 . S
C692 H712 0.932 . S
C693 C691 1.408 . S
C693 C692 1.310 . S
C693 H713 0.930 . S
C694 C695 1.474 . S
C694 C696 1.285 . S
C694 H714 0.929 . S
C695 C692 1.461 . S
C695 C694 1.474 . S
C696 C691 1.342 . S
C696 C694 1.285 . S
C696 H715 0.930 . S
C697 C700 1.424 . S
C697 C702 1.245 . S
C697 C703 1.428 . S
C698 C701 1.260 . S
C698 C702 1.477 . S
C698 H716 0.932 . S
C699 C700 1.384 . S
C699 C701 1.479 . S
C699 H717 0.929 . S
C700 C697 1.424 . S
C700 C699 1.384 . S
C700 H718 0.928 . S
C701 C698 1.260 . S
C701 C699 1.479 . S
C702 C697 1.245 . S
C702 C698 1.477 . S
C702 H719 0.932 . S
C703 U686 2.882 . S
C703 C697 1.428 . S
C703 O706 1.301 . S
C703 O707 1.282 . S
O704 U686 2.441 . S
O704 C690 1.249 . S
O705 U686 2.420 . S
O705 C690 1.202 . S
O706 U686 2.455 . S
O706 C703 1.301 . S
O707 U686 2.449 . S
O707 C703 1.282 . S
H708 C681 0.931 . S
H709 C683 0.929 . S
H710 C684 0.930 . S
H711 C685 0.931 . S
H712 C692 0.932 . S
H713 C693 0.930 . S
H714 C694 0.929 . S
H715 C696 0.930 . S
H716 C698 0.932 . S
H717 C699 0.929 . S
H718 C700 0.928 . S
H719 C702 0.932 . S
C720 C721 1.264 . S
C720 C725 1.479 . S
C720 C730 1.465 . S
C721 C720 1.264 . S
C721 C723 1.339 . S
C721 H748 0.931 . S
C722 C723 1.395 . S
C722 C724 1.320 . S
C723 C721 1.339 . S
C723 C722 1.395 . S
C723 H749 0.929 . S
C724 C722 1.320 . S
C724 C725 1.405 . S
C724 H750 0.930 . S
C725 C720 1.479 . S
C725 C724 1.405 . S
C725 H751 0.931 . S
U726 O727 2.454 1_556 S
U726 O728 2.458 1_556 S
U726 C729 2.984 1_556 S
U726 C730 2.847 . S
U726 C743 2.882 . S
U726 O744 2.441 . S
U726 O745 2.420 . S
U726 O746 2.455 . S
U726 O747 2.449 . S
O727 U726 2.454 1_554 S
O727 C729 1.353 . S
O728 U726 2.458 1_554 S
O728 C729 1.286 . S
C729 U726 2.984 1_554 S
C729 O727 1.353 . S
C729 O728 1.286 . S
C729 C731 1.363 . S
C730 C720 1.465 . S
C730 U726 2.847 . S
C730 O744 1.249 . S
C730 O745 1.202 . S
C731 C729 1.363 . S
C731 C733 1.408 . S
C731 C736 1.342 . S
C732 C733 1.310 . S
C732 C735 1.461 . S
C732 H752 0.932 . S
C733 C731 1.408 . S
C733 C732 1.310 . S
C733 H753 0.930 . S
C734 C735 1.474 . S
C734 C736 1.285 . S
C734 H754 0.929 . S
C735 C732 1.461 . S
C735 C734 1.474 . S
C736 C731 1.342 . S
C736 C734 1.285 . S
C736 H755 0.930 . S
C737 C740 1.424 . S
C737 C742 1.245 . S
C737 C743 1.428 . S
C738 C741 1.260 . S
C738 C742 1.477 . S
C738 H756 0.932 . S
C739 C740 1.384 . S
C739 C741 1.479 . S
C739 H757 0.929 . S
C740 C737 1.424 . S
C740 C739 1.384 . S
C740 H758 0.928 . S
C741 C738 1.260 . S
C741 C739 1.479 . S
C742 C737 1.245 . S
C742 C738 1.477 . S
C742 H759 0.932 . S
C743 U726 2.882 . S
C743 C737 1.428 . S
C743 O746 1.301 . S
C743 O747 1.282 . S
O744 U726 2.441 . S
O744 C730 1.249 . S
O745 U726 2.420 . S
O745 C730 1.202 . S
O746 U726 2.455 . S
O746 C743 1.301 . S
O747 U726 2.449 . S
O747 C743 1.282 . S
H748 C721 0.931 . S
H749 C723 0.929 . S
H750 C724 0.930 . S
H751 C725 0.931 . S
H752 C732 0.932 . S
H753 C733 0.930 . S
H754 C734 0.929 . S
H755 C736 0.930 . S
H756 C738 0.932 . S
H757 C739 0.929 . S
H758 C740 0.928 . S
H759 C742 0.932 . S
C760 C761 1.264 . S
C760 C765 1.479 . S
C760 C770 1.465 . S
C761 C760 1.264 . S
C761 C763 1.339 . S
C761 H788 0.931 . S
C762 C763 1.395 . S
C762 C764 1.320 . S
C763 C761 1.339 . S
C763 C762 1.395 . S
C763 H789 0.929 . S
C764 C762 1.320 . S
C764 C765 1.405 . S
C764 H790 0.930 . S
C765 C760 1.479 . S
C765 C764 1.405 . S
C765 H791 0.931 . S
U766 O767 2.454 . S
U766 O768 2.458 . S
U766 C769 2.984 . S
U766 C770 2.847 1_655 S
U766 C783 2.882 . S
U766 O784 2.441 1_655 S
U766 O785 2.420 1_655 S
U766 O786 2.455 . S
U766 O787 2.449 . S
O767 U766 2.454 . S
O767 C769 1.353 . S
O768 U766 2.458 . S
O768 C769 1.286 . S
C769 U766 2.984 . S
C769 O767 1.353 . S
C769 O768 1.286 . S
C769 C771 1.363 . S
C770 C760 1.465 . S
C770 U766 2.847 1_455 S
C770 O784 1.249 . S
C770 O785 1.202 . S
C771 C769 1.363 . S
C771 C773 1.408 . S
C771 C776 1.342 . S
C772 C773 1.310 . S
C772 C775 1.461 . S
C772 H792 0.932 . S
C773 C771 1.408 . S
C773 C772 1.310 . S
C773 H793 0.930 . S
C774 C775 1.474 . S
C774 C776 1.285 . S
C774 H794 0.929 . S
C775 C772 1.461 . S
C775 C774 1.474 . S
C776 C771 1.342 . S
C776 C774 1.285 . S
C776 H795 0.930 . S
C777 C780 1.424 . S
C777 C782 1.245 . S
C777 C783 1.428 . S
C778 C781 1.260 . S
C778 C782 1.477 . S
C778 H796 0.932 . S
C779 C780 1.384 . S
C779 C781 1.479 . S
C779 H797 0.929 . S
C780 C777 1.424 . S
C780 C779 1.384 . S
C780 H798 0.928 . S
C781 C778 1.260 . S
C781 C779 1.479 . S
C782 C777 1.245 . S
C782 C778 1.477 . S
C782 H799 0.932 . S
C783 U766 2.882 . S
C783 C777 1.428 . S
C783 O786 1.301 . S
C783 O787 1.282 . S
O784 U766 2.441 1_455 S
O784 C770 1.249 . S
O785 U766 2.420 1_455 S
O785 C770 1.202 . S
O786 U766 2.455 . S
O786 C783 1.301 . S
O787 U766 2.449 . S
O787 C783 1.282 . S
H788 C761 0.931 . S
H789 C763 0.929 . S
H790 C764 0.930 . S
H791 C765 0.931 . S
H792 C772 0.932 . S
H793 C773 0.930 . S
H794 C774 0.929 . S
H795 C776 0.930 . S
H796 C778 0.932 . S
H797 C779 0.929 . S
H798 C780 0.928 . S
H799 C782 0.932 . S
C800 C801 1.264 . S
C800 C805 1.479 . S
C800 C810 1.465 . S
C801 C800 1.264 . S
C801 C803 1.339 . S
C801 H828 0.931 . S
C802 C803 1.395 . S
C802 C804 1.320 . S
C803 C801 1.339 . S
C803 C802 1.395 . S
C803 H829 0.929 . S
C804 C802 1.320 . S
C804 C805 1.405 . S
C804 H830 0.930 . S
C805 C800 1.479 . S
C805 C804 1.405 . S
C805 H831 0.931 . S
U806 O807 2.454 . S
U806 O808 2.458 . S
U806 C809 2.984 . S
U806 C810 2.847 . S
U806 C823 2.882 . S
U806 O824 2.441 . S
U806 O825 2.420 . S
U806 O826 2.455 . S
U806 O827 2.449 . S
O807 U806 2.454 . S
O807 C809 1.353 . S
O808 U806 2.458 . S
O808 C809 1.286 . S
C809 U806 2.984 . S
C809 O807 1.353 . S
C809 O808 1.286 . S
C809 C811 1.363 . S
C810 C800 1.465 . S
C810 U806 2.847 . S
C810 O824 1.249 . S
C810 O825 1.202 . S
C811 C809 1.363 . S
C811 C813 1.408 . S
C811 C816 1.342 . S
C812 C813 1.310 . S
C812 C815 1.461 . S
C812 H832 0.932 . S
C813 C811 1.408 . S
C813 C812 1.310 . S
C813 H833 0.930 . S
C814 C815 1.474 . S
C814 C816 1.285 . S
C814 H834 0.929 . S
C815 C812 1.461 . S
C815 C814 1.474 . S
C816 C811 1.342 . S
C816 C814 1.285 . S
C816 H835 0.930 . S
C817 C820 1.424 . S
C817 C822 1.245 . S
C817 C823 1.428 . S
C818 C821 1.260 . S
C818 C822 1.477 . S
C818 H836 0.932 . S
C819 C820 1.384 . S
C819 C821 1.479 . S
C819 H837 0.929 . S
C820 C817 1.424 . S
C820 C819 1.384 . S
C820 H838 0.928 . S
C821 C818 1.260 . S
C821 C819 1.479 . S
C822 C817 1.245 . S
C822 C818 1.477 . S
C822 H839 0.932 . S
C823 U806 2.882 . S
C823 C817 1.428 . S
C823 O826 1.301 . S
C823 O827 1.282 . S
O824 U806 2.441 . S
O824 C810 1.249 . S
O825 U806 2.420 . S
O825 C810 1.202 . S
O826 U806 2.455 . S
O826 C823 1.301 . S
O827 U806 2.449 . S
O827 C823 1.282 . S
H828 C801 0.931 . S
H829 C803 0.929 . S
H830 C804 0.930 . S
H831 C805 0.931 . S
H832 C812 0.932 . S
H833 C813 0.930 . S
H834 C814 0.929 . S
H835 C816 0.930 . S
H836 C818 0.932 . S
H837 C819 0.929 . S
H838 C820 0.928 . S
H839 C822 0.932 . S
C840 C841 1.264 . S
C840 C845 1.479 . S
C840 C850 1.465 . S
C841 C840 1.264 . S
C841 C843 1.339 . S
C841 H868 0.931 . S
C842 C843 1.395 . S
C842 C844 1.320 . S
C843 C841 1.339 . S
C843 C842 1.395 . S
C843 H869 0.929 . S
C844 C842 1.320 . S
C844 C845 1.405 . S
C844 H870 0.930 . S
C845 C840 1.479 . S
C845 C844 1.405 . S
C845 H871 0.931 . S
U846 O847 2.454 . S
U846 O848 2.458 . S
U846 C849 2.984 . S
U846 C850 2.847 . S
U846 C863 2.882 . S
U846 O864 2.441 . S
U846 O865 2.420 . S
U846 O866 2.455 . S
U846 O867 2.449 . S
O847 U846 2.454 . S
O847 C849 1.353 . S
O848 U846 2.458 . S
O848 C849 1.286 . S
C849 U846 2.984 . S
C849 O847 1.353 . S
C849 O848 1.286 . S
C849 C851 1.363 . S
C850 C840 1.465 . S
C850 U846 2.847 . S
C850 O864 1.249 . S
C850 O865 1.202 . S
C851 C849 1.363 . S
C851 C853 1.408 . S
C851 C856 1.342 . S
C852 C853 1.310 . S
C852 C855 1.461 . S
C852 H872 0.932 . S
C853 C851 1.408 . S
C853 C852 1.310 . S
C853 H873 0.930 . S
C854 C855 1.474 . S
C854 C856 1.285 . S
C854 H874 0.929 . S
C855 C852 1.461 . S
C855 C854 1.474 . S
C856 C851 1.342 . S
C856 C854 1.285 . S
C856 H875 0.930 . S
C857 C860 1.424 . S
C857 C862 1.245 . S
C857 C863 1.428 . S
C858 C861 1.260 . S
C858 C862 1.477 . S
C858 H876 0.932 . S
C859 C860 1.384 . S
C859 C861 1.479 . S
C859 H877 0.929 . S
C860 C857 1.424 . S
C860 C859 1.384 . S
C860 H878 0.928 . S
C861 C858 1.260 . S
C861 C859 1.479 . S
C862 C857 1.245 . S
C862 C858 1.477 . S
C862 H879 0.932 . S
C863 U846 2.882 . S
C863 C857 1.428 . S
C863 O866 1.301 . S
C863 O867 1.282 . S
O864 U846 2.441 . S
O864 C850 1.249 . S
O865 U846 2.420 . S
O865 C850 1.202 . S
O866 U846 2.455 . S
O866 C863 1.301 . S
O867 U846 2.449 . S
O867 C863 1.282 . S
H868 C841 0.931 . S
H869 C843 0.929 . S
H870 C844 0.930 . S
H871 C845 0.931 . S
H872 C852 0.932 . S
H873 C853 0.930 . S
H874 C854 0.929 . S
H875 C856 0.930 . S
H876 C858 0.932 . S
H877 C859 0.929 . S
H878 C860 0.928 . S
H879 C862 0.932 . S
C880 C881 1.264 . S
C880 C885 1.479 . S
C880 C890 1.465 . S
C881 C880 1.264 . S
C881 C883 1.339 . S
C881 H908 0.931 . S
C882 C883 1.395 . S
C882 C884 1.320 . S
C883 C881 1.339 . S
C883 C882 1.395 . S
C883 H909 0.929 . S
C884 C882 1.320 . S
C884 C885 1.405 . S
C884 H910 0.930 . S
C885 C880 1.479 . S
C885 C884 1.405 . S
C885 H911 0.931 . S
U886 O887 2.454 . S
U886 O888 2.458 . S
U886 C889 2.984 . S
U886 C890 2.847 1_554 S
U886 C903 2.882 . S
U886 O904 2.441 1_554 S
U886 O905 2.420 1_554 S
U886 O906 2.455 . S
U886 O907 2.449 . S
O887 U886 2.454 . S
O887 C889 1.353 . S
O888 U886 2.458 . S
O888 C889 1.286 . S
C889 U886 2.984 . S
C889 O887 1.353 . S
C889 O888 1.286 . S
C889 C891 1.363 . S
C890 C880 1.465 . S
C890 U886 2.847 1_556 S
C890 O904 1.249 . S
C890 O905 1.202 . S
C891 C889 1.363 . S
C891 C893 1.408 . S
C891 C896 1.342 . S
C892 C893 1.310 . S
C892 C895 1.461 . S
C892 H912 0.932 . S
C893 C891 1.408 . S
C893 C892 1.310 . S
C893 H913 0.930 . S
C894 C895 1.474 . S
C894 C896 1.285 . S
C894 H914 0.929 . S
C895 C892 1.461 . S
C895 C894 1.474 . S
C896 C891 1.342 . S
C896 C894 1.285 . S
C896 H915 0.930 . S
C897 C900 1.424 . S
C897 C902 1.245 . S
C897 C903 1.428 . S
C898 C901 1.260 . S
C898 C902 1.477 . S
C898 H916 0.932 . S
C899 C900 1.384 . S
C899 C901 1.479 . S
C899 H917 0.929 . S
C900 C897 1.424 . S
C900 C899 1.384 . S
C900 H918 0.928 . S
C901 C898 1.260 . S
C901 C899 1.479 . S
C902 C897 1.245 . S
C902 C898 1.477 . S
C902 H919 0.932 . S
C903 U886 2.882 . S
C903 C897 1.428 . S
C903 O906 1.301 . S
C903 O907 1.282 . S
O904 U886 2.441 1_556 S
O904 C890 1.249 . S
O905 U886 2.420 1_556 S
O905 C890 1.202 . S
O906 U886 2.455 . S
O906 C903 1.301 . S
O907 U886 2.449 . S
O907 C903 1.282 . S
H908 C881 0.931 . S
H909 C883 0.929 . S
H910 C884 0.930 . S
H911 C885 0.931 . S
H912 C892 0.932 . S
H913 C893 0.930 . S
H914 C894 0.929 . S
H915 C896 0.930 . S
H916 C898 0.932 . S
H917 C899 0.929 . S
H918 C900 0.928 . S
H919 C902 0.932 . S
C920 C921 1.264 . S
C920 C925 1.479 . S
C920 C930 1.465 . S
C921 C920 1.264 . S
C921 C923 1.339 . S
C921 H948 0.931 . S
C922 C923 1.395 . S
C922 C924 1.320 . S
C923 C921 1.339 . S
C923 C922 1.395 . S
C923 H949 0.929 . S
C924 C922 1.320 . S
C924 C925 1.405 . S
C924 H950 0.930 . S
C925 C920 1.479 . S
C925 C924 1.405 . S
C925 H951 0.931 . S
U926 O927 2.454 1_565 S
U926 O928 2.458 1_565 S
U926 C929 2.984 1_565 S
U926 C930 2.847 . S
U926 C943 2.882 . S
U926 O944 2.441 . S
U926 O945 2.420 . S
U926 O946 2.455 . S
U926 O947 2.449 . S
O927 U926 2.454 1_545 S
O927 C929 1.353 . S
O928 U926 2.458 1_545 S
O928 C929 1.286 . S
C929 U926 2.984 1_545 S
C929 O927 1.353 . S
C929 O928 1.286 . S
C929 C931 1.363 . S
C930 C920 1.465 . S
C930 U926 2.847 . S
C930 O944 1.249 . S
C930 O945 1.202 . S
C931 C929 1.363 . S
C931 C933 1.408 . S
C931 C936 1.342 . S
C932 C933 1.310 . S
C932 C935 1.461 . S
C932 H952 0.932 . S
C933 C931 1.408 . S
C933 C932 1.310 . S
C933 H953 0.930 . S
C934 C935 1.474 . S
C934 C936 1.285 . S
C934 H954 0.929 . S
C935 C932 1.461 . S
C935 C934 1.474 . S
C936 C931 1.342 . S
C936 C934 1.285 . S
C936 H955 0.930 . S
C937 C940 1.424 . S
C937 C942 1.245 . S
C937 C943 1.428 . S
C938 C941 1.260 . S
C938 C942 1.477 . S
C938 H956 0.932 . S
C939 C940 1.384 . S
C939 C941 1.479 . S
C939 H957 0.929 . S
C940 C937 1.424 . S
C940 C939 1.384 . S
C940 H958 0.928 . S
C941 C938 1.260 . S
C941 C939 1.479 . S
C942 C937 1.245 . S
C942 C938 1.477 . S
C942 H959 0.932 . S
C943 U926 2.882 . S
C943 C937 1.428 . S
C943 O946 1.301 . S
C943 O947 1.282 . S
O944 U926 2.441 . S
O944 C930 1.249 . S
O945 U926 2.420 . S
O945 C930 1.202 . S
O946 U926 2.455 . S
O946 C943 1.301 . S
O947 U926 2.449 . S
O947 C943 1.282 . S
H948 C921 0.931 . S
H949 C923 0.929 . S
H950 C924 0.930 . S
H951 C925 0.931 . S
H952 C932 0.932 . S
H953 C933 0.930 . S
H954 C934 0.929 . S
H955 C936 0.930 . S
H956 C938 0.932 . S
H957 C939 0.929 . S
H958 C940 0.928 . S
H959 C942 0.932 . S
C960 C961 1.264 . S
C960 C965 1.479 . S
C960 C970 1.465 . S
C961 C960 1.264 . S
C961 C963 1.339 . S
C961 H988 0.931 . S
C962 C963 1.395 . S
C962 C964 1.320 . S
C963 C961 1.339 . S
C963 C962 1.395 . S
C963 H989 0.929 . S
C964 C962 1.320 . S
C964 C965 1.405 . S
C964 H990 0.930 . S
C965 C960 1.479 . S
C965 C964 1.405 . S
C965 H991 0.931 . S
U966 O967 2.454 1_565 S
U966 O968 2.458 1_565 S
U966 C969 2.984 1_565 S
U966 C970 2.847 . S
U966 C983 2.882 . S
U966 O984 2.441 . S
U966 O985 2.420 . S
U966 O986 2.455 . S
U966 O987 2.449 . S
O967 U966 2.454 1_545 S
O967 C969 1.353 . S
O968 U966 2.458 1_545 S
O968 C969 1.286 . S
C969 U966 2.984 1_545 S
C969 O967 1.353 . S
C969 O968 1.286 . S
C969 C971 1.363 . S
C970 C960 1.465 . S
C970 U966 2.847 . S
C970 O984 1.249 . S
C970 O985 1.202 . S
C971 C969 1.363 . S
C971 C973 1.408 . S
C971 C976 1.342 . S
C972 C973 1.310 . S
C972 C975 1.461 . S
C972 H992 0.932 . S
C973 C971 1.408 . S
C973 C972 1.310 . S
C973 H993 0.930 . S
C974 C975 1.474 . S
C974 C976 1.285 . S
C974 H994 0.929 . S
C975 C972 1.461 . S
C975 C974 1.474 . S
C976 C971 1.342 . S
C976 C974 1.285 . S
C976 H995 0.930 . S
C977 C980 1.424 . S
C977 C982 1.245 . S
C977 C983 1.428 . S
C978 C981 1.260 . S
C978 C982 1.477 . S
C978 H996 0.932 . S
C979 C980 1.384 . S
C979 C981 1.479 . S
C979 H997 0.929 . S
C980 C977 1.424 . S
C980 C979 1.384 . S
C980 H998 0.928 . S
C981 C978 1.260 . S
C981 C979 1.479 . S
C982 C977 1.245 . S
C982 C978 1.477 . S
C982 H999 0.932 . S
C983 U966 2.882 . S
C983 C977 1.428 . S
C983 O986 1.301 . S
C983 O987 1.282 . S
O984 U966 2.441 . S
O984 C970 1.249 . S
O985 U966 2.420 . S
O985 C970 1.202 . S
O986 U966 2.455 . S
O986 C983 1.301 . S
O987 U966 2.449 . S
O987 C983 1.282 . S
H988 C961 0.931 . S
H989 C963 0.929 . S
H990 C964 0.930 . S
H991 C965 0.931 . S
H992 C972 0.932 . S
H993 C973 0.930 . S
H994 C974 0.929 . S
H995 C976 0.930 . S
H996 C978 0.932 . S
H997 C979 0.929 . S
H998 C980 0.928 . S
H999 C982 0.932 . S
C1000 C1001 1.264 . S
C1000 C1005 1.479 . S
C1000 C1010 1.465 . S
C1001 C1000 1.264 . S
C1001 C1003 1.339 . S
C1001 H1028 0.931 . S
C1002 C1003 1.395 . S
C1002 C1004 1.320 . S
C1003 C1001 1.339 . S
C1003 C1002 1.395 . S
C1003 H1029 0.929 . S
C1004 C1002 1.320 . S
C1004 C1005 1.405 . S
C1004 H1030 0.930 . S
C1005 C1000 1.479 . S
C1005 C1004 1.405 . S
C1005 H1031 0.931 . S
U1006 O1007 2.454 . S
U1006 O1008 2.458 . S
U1006 C1009 2.984 . S
U1006 C1010 2.847 1_545 S
U1006 C1023 2.882 . S
U1006 O1024 2.441 1_545 S
U1006 O1025 2.420 1_545 S
U1006 O1026 2.455 . S
U1006 O1027 2.449 . S
O1007 U1006 2.454 . S
O1007 C1009 1.353 . S
O1008 U1006 2.458 . S
O1008 C1009 1.286 . S
C1009 U1006 2.984 . S
C1009 O1007 1.353 . S
C1009 O1008 1.286 . S
C1009 C1011 1.363 . S
C1010 C1000 1.465 . S
C1010 U1006 2.847 1_565 S
C1010 O1024 1.249 . S
C1010 O1025 1.202 . S
C1011 C1009 1.363 . S
C1011 C1013 1.408 . S
C1011 C1016 1.342 . S
C1012 C1013 1.310 . S
C1012 C1015 1.461 . S
C1012 H1032 0.932 . S
C1013 C1011 1.408 . S
C1013 C1012 1.310 . S
C1013 H1033 0.930 . S
C1014 C1015 1.474 . S
C1014 C1016 1.285 . S
C1014 H1034 0.929 . S
C1015 C1012 1.461 . S
C1015 C1014 1.474 . S
C1016 C1011 1.342 . S
C1016 C1014 1.285 . S
C1016 H1035 0.930 . S
C1017 C1020 1.424 . S
C1017 C1022 1.245 . S
C1017 C1023 1.428 . S
C1018 C1021 1.260 . S
C1018 C1022 1.477 . S
C1018 H1036 0.932 . S
C1019 C1020 1.384 . S
C1019 C1021 1.479 . S
C1019 H1037 0.929 . S
C1020 C1017 1.424 . S
C1020 C1019 1.384 . S
C1020 H1038 0.928 . S
C1021 C1018 1.260 . S
C1021 C1019 1.479 . S
C1022 C1017 1.245 . S
C1022 C1018 1.477 . S
C1022 H1039 0.932 . S
C1023 U1006 2.882 . S
C1023 C1017 1.428 . S
C1023 O1026 1.301 . S
C1023 O1027 1.282 . S
O1024 U1006 2.441 1_565 S
O1024 C1010 1.249 . S
O1025 U1006 2.420 1_565 S
O1025 C1010 1.202 . S
O1026 U1006 2.455 . S
O1026 C1023 1.301 . S
O1027 U1006 2.449 . S
O1027 C1023 1.282 . S
H1028 C1001 0.931 . S
H1029 C1003 0.929 . S
H1030 C1004 0.930 . S
H1031 C1005 0.931 . S
H1032 C1012 0.932 . S
H1033 C1013 0.930 . S
H1034 C1014 0.929 . S
H1035 C1016 0.930 . S
H1036 C1018 0.932 . S
H1037 C1019 0.929 . S
H1038 C1020 0.928 . S
H1039 C1022 0.932 . S
C1040 C1041 1.264 . S
C1040 C1045 1.479 . S
C1040 C1050 1.465 . S
C1041 C1040 1.264 . S
C1041 C1043 1.339 . S
C1041 H1068 0.931 . S
C1042 C1043 1.395 . S
C1042 C1044 1.320 . S
C1043 C1041 1.339 . S
C1043 C1042 1.395 . S
C1043 H1069 0.929 . S
C1044 C1042 1.320 . S
C1044 C1045 1.405 . S
C1044 H1070 0.930 . S
C1045 C1040 1.479 . S
C1045 C1044 1.405 . S
C1045 H1071 0.931 . S
U1046 O1047 2.454 . S
U1046 O1048 2.458 . S
U1046 C1049 2.984 . S
U1046 C1050 2.847 1_545 S
U1046 C1063 2.882 . S
U1046 O1064 2.441 1_545 S
U1046 O1065 2.420 1_545 S
U1046 O1066 2.455 . S
U1046 O1067 2.449 . S
O1047 U1046 2.454 . S
O1047 C1049 1.353 . S
O1048 U1046 2.458 . S
O1048 C1049 1.286 . S
C1049 U1046 2.984 . S
C1049 O1047 1.353 . S
C1049 O1048 1.286 . S
C1049 C1051 1.363 . S
C1050 C1040 1.465 . S
C1050 U1046 2.847 1_565 S
C1050 O1064 1.249 . S
C1050 O1065 1.202 . S
C1051 C1049 1.363 . S
C1051 C1053 1.408 . S
C1051 C1056 1.342 . S
C1052 C1053 1.310 . S
C1052 C1055 1.461 . S
C1052 H1072 0.932 . S
C1053 C1051 1.408 . S
C1053 C1052 1.310 . S
C1053 H1073 0.930 . S
C1054 C1055 1.474 . S
C1054 C1056 1.285 . S
C1054 H1074 0.929 . S
C1055 C1052 1.461 . S
C1055 C1054 1.474 . S
C1056 C1051 1.342 . S
C1056 C1054 1.285 . S
C1056 H1075 0.930 . S
C1057 C1060 1.424 . S
C1057 C1062 1.245 . S
C1057 C1063 1.428 . S
C1058 C1061 1.260 . S
C1058 C1062 1.477 . S
C1058 H1076 0.932 . S
C1059 C1060 1.384 . S
C1059 C1061 1.479 . S
C1059 H1077 0.929 . S
C1060 C1057 1.424 . S
C1060 C1059 1.384 . S
C1060 H1078 0.928 . S
C1061 C1058 1.260 . S
C1061 C1059 1.479 . S
C1062 C1057 1.245 . S
C1062 C1058 1.477 . S
C1062 H1079 0.932 . S
C1063 U1046 2.882 . S
C1063 C1057 1.428 . S
C1063 O1066 1.301 . S
C1063 O1067 1.282 . S
O1064 U1046 2.441 1_565 S
O1064 C1050 1.249 . S
O1065 U1046 2.420 1_565 S
O1065 C1050 1.202 . S
O1066 U1046 2.455 . S
O1066 C1063 1.301 . S
O1067 U1046 2.449 . S
O1067 C1063 1.282 . S
H1068 C1041 0.931 . S
H1069 C1043 0.929 . S
H1070 C1044 0.930 . S
H1071 C1045 0.931 . S
H1072 C1052 0.932 . S
H1073 C1053 0.930 . S
H1074 C1054 0.929 . S
H1075 C1056 0.930 . S
H1076 C1058 0.932 . S
H1077 C1059 0.929 . S
H1078 C1060 0.928 . S
H1079 C1062 0.932 . S
C1080 C1081 1.264 . S
C1080 C1085 1.479 . S
C1080 C1090 1.465 . S
C1081 C1080 1.264 . S
C1081 C1083 1.339 . S
C1081 H1108 0.931 . S
C1082 C1083 1.395 . S
C1082 C1084 1.320 . S
C1083 C1081 1.339 . S
C1083 C1082 1.395 . S
C1083 H1109 0.929 . S
C1084 C1082 1.320 . S
C1084 C1085 1.405 . S
C1084 H1110 0.930 . S
C1085 C1080 1.479 . S
C1085 C1084 1.405 . S
C1085 H1111 0.931 . S
U1086 O1087 2.454 1_556 S
U1086 O1088 2.458 1_556 S
U1086 C1089 2.984 1_556 S
U1086 C1090 2.847 . S
U1086 C1103 2.882 . S
U1086 O1104 2.441 . S
U1086 O1105 2.420 . S
U1086 O1106 2.455 . S
U1086 O1107 2.449 . S
O1087 U1086 2.454 1_554 S
O1087 C1089 1.353 . S
O1088 U1086 2.458 1_554 S
O1088 C1089 1.286 . S
C1089 U1086 2.984 1_554 S
C1089 O1087 1.353 . S
C1089 O1088 1.286 . S
C1089 C1091 1.363 . S
C1090 C1080 1.465 . S
C1090 U1086 2.847 . S
C1090 O1104 1.249 . S
C1090 O1105 1.202 . S
C1091 C1089 1.363 . S
C1091 C1093 1.408 . S
C1091 C1096 1.342 . S
C1092 C1093 1.310 . S
C1092 C1095 1.461 . S
C1092 H1112 0.932 . S
C1093 C1091 1.408 . S
C1093 C1092 1.310 . S
C1093 H1113 0.930 . S
C1094 C1095 1.474 . S
C1094 C1096 1.285 . S
C1094 H1114 0.929 . S
C1095 C1092 1.461 . S
C1095 C1094 1.474 . S
C1096 C1091 1.342 . S
C1096 C1094 1.285 . S
C1096 H1115 0.930 . S
C1097 C1100 1.424 . S
C1097 C1102 1.245 . S
C1097 C1103 1.428 . S
C1098 C1101 1.260 . S
C1098 C1102 1.477 . S
C1098 H1116 0.932 . S
C1099 C1100 1.384 . S
C1099 C1101 1.479 . S
C1099 H1117 0.929 . S
C1100 C1097 1.424 . S
C1100 C1099 1.384 . S
C1100 H1118 0.928 . S
C1101 C1098 1.260 . S
C1101 C1099 1.479 . S
C1102 C1097 1.245 . S
C1102 C1098 1.477 . S
C1102 H1119 0.932 . S
C1103 U1086 2.882 . S
C1103 C1097 1.428 . S
C1103 O1106 1.301 . S
C1103 O1107 1.282 . S
O1104 U1086 2.441 . S
O1104 C1090 1.249 . S
O1105 U1086 2.420 . S
O1105 C1090 1.202 . S
O1106 U1086 2.455 . S
O1106 C1103 1.301 . S
O1107 U1086 2.449 . S
O1107 C1103 1.282 . S
H1108 C1081 0.931 . S
H1109 C1083 0.929 . S
H1110 C1084 0.930 . S
H1111 C1085 0.931 . S
H1112 C1092 0.932 . S
H1113 C1093 0.930 . S
H1114 C1094 0.929 . S
H1115 C1096 0.930 . S
H1116 C1098 0.932 . S
H1117 C1099 0.929 . S
H1118 C1100 0.928 . S
H1119 C1102 0.932 . S
C1120 C1121 1.264 . S
C1120 C1125 1.479 . S
C1120 C1130 1.465 . S
C1121 C1120 1.264 . S
C1121 C1123 1.339 . S
C1121 H1148 0.931 . S
C1122 C1123 1.395 . S
C1122 C1124 1.320 . S
C1123 C1121 1.339 . S
C1123 C1122 1.395 . S
C1123 H1149 0.929 . S
C1124 C1122 1.320 . S
C1124 C1125 1.405 . S
C1124 H1150 0.930 . S
C1125 C1120 1.479 . S
C1125 C1124 1.405 . S
C1125 H1151 0.931 . S
U1126 O1127 2.454 . S
U1126 O1128 2.458 . S
U1126 C1129 2.984 . S
U1126 C1130 2.847 1_455 S
U1126 C1143 2.882 . S
U1126 O1144 2.441 1_455 S
U1126 O1145 2.420 1_455 S
U1126 O1146 2.455 . S
U1126 O1147 2.449 . S
O1127 U1126 2.454 . S
O1127 C1129 1.353 . S
O1128 U1126 2.458 . S
O1128 C1129 1.286 . S
C1129 U1126 2.984 . S
C1129 O1127 1.353 . S
C1129 O1128 1.286 . S
C1129 C1131 1.363 . S
C1130 C1120 1.465 . S
C1130 U1126 2.847 1_655 S
C1130 O1144 1.249 . S
C1130 O1145 1.202 . S
C1131 C1129 1.363 . S
C1131 C1133 1.408 . S
C1131 C1136 1.342 . S
C1132 C1133 1.310 . S
C1132 C1135 1.461 . S
C1132 H1152 0.932 . S
C1133 C1131 1.408 . S
C1133 C1132 1.310 . S
C1133 H1153 0.930 . S
C1134 C1135 1.474 . S
C1134 C1136 1.285 . S
C1134 H1154 0.929 . S
C1135 C1132 1.461 . S
C1135 C1134 1.474 . S
C1136 C1131 1.342 . S
C1136 C1134 1.285 . S
C1136 H1155 0.930 . S
C1137 C1140 1.424 . S
C1137 C1142 1.245 . S
C1137 C1143 1.428 . S
C1138 C1141 1.260 . S
C1138 C1142 1.477 . S
C1138 H1156 0.932 . S
C1139 C1140 1.384 . S
C1139 C1141 1.479 . S
C1139 H1157 0.929 . S
C1140 C1137 1.424 . S
C1140 C1139 1.384 . S
C1140 H1158 0.928 . S
C1141 C1138 1.260 . S
C1141 C1139 1.479 . S
C1142 C1137 1.245 . S
C1142 C1138 1.477 . S
C1142 H1159 0.932 . S
C1143 U1126 2.882 . S
C1143 C1137 1.428 . S
C1143 O1146 1.301 . S
C1143 O1147 1.282 . S
O1144 U1126 2.441 1_655 S
O1144 C1130 1.249 . S
O1145 U1126 2.420 1_655 S
O1145 C1130 1.202 . S
O1146 U1126 2.455 . S
O1146 C1143 1.301 . S
O1147 U1126 2.449 . S
O1147 C1143 1.282 . S
H1148 C1121 0.931 . S
H1149 C1123 0.929 . S
H1150 C1124 0.930 . S
H1151 C1125 0.931 . S
H1152 C1132 0.932 . S
H1153 C1133 0.930 . S
H1154 C1134 0.929 . S
H1155 C1136 0.930 . S
H1156 C1138 0.932 . S
H1157 C1139 0.929 . S
H1158 C1140 0.928 . S
H1159 C1142 0.932 . S
C1160 C1161 1.264 . S
C1160 C1165 1.479 . S
C1160 C1170 1.465 . S
C1161 C1160 1.264 . S
C1161 C1163 1.339 . S
C1161 H1188 0.931 . S
C1162 C1163 1.395 . S
C1162 C1164 1.320 . S
C1163 C1161 1.339 . S
C1163 C1162 1.395 . S
C1163 H1189 0.929 . S
C1164 C1162 1.320 . S
C1164 C1165 1.405 . S
C1164 H1190 0.930 . S
C1165 C1160 1.479 . S
C1165 C1164 1.405 . S
C1165 H1191 0.931 . S
U1166 O1167 2.454 . S
U1166 O1168 2.458 . S
U1166 C1169 2.984 . S
U1166 C1170 2.847 . S
U1166 C1183 2.882 . S
U1166 O1184 2.441 . S
U1166 O1185 2.420 . S
U1166 O1186 2.455 . S
U1166 O1187 2.449 . S
O1167 U1166 2.454 . S
O1167 C1169 1.353 . S
O1168 U1166 2.458 . S
O1168 C1169 1.286 . S
C1169 U1166 2.984 . S
C1169 O1167 1.353 . S
C1169 O1168 1.286 . S
C1169 C1171 1.363 . S
C1170 C1160 1.465 . S
C1170 U1166 2.847 . S
C1170 O1184 1.249 . S
C1170 O1185 1.202 . S
C1171 C1169 1.363 . S
C1171 C1173 1.408 . S
C1171 C1176 1.342 . S
C1172 C1173 1.310 . S
C1172 C1175 1.461 . S
C1172 H1192 0.932 . S
C1173 C1171 1.408 . S
C1173 C1172 1.310 . S
C1173 H1193 0.930 . S
C1174 C1175 1.474 . S
C1174 C1176 1.285 . S
C1174 H1194 0.929 . S
C1175 C1172 1.461 . S
C1175 C1174 1.474 . S
C1176 C1171 1.342 . S
C1176 C1174 1.285 . S
C1176 H1195 0.930 . S
C1177 C1180 1.424 . S
C1177 C1182 1.245 . S
C1177 C1183 1.428 . S
C1178 C1181 1.260 . S
C1178 C1182 1.477 . S
C1178 H1196 0.932 . S
C1179 C1180 1.384 . S
C1179 C1181 1.479 . S
C1179 H1197 0.929 . S
C1180 C1177 1.424 . S
C1180 C1179 1.384 . S
C1180 H1198 0.928 . S
C1181 C1178 1.260 . S
C1181 C1179 1.479 . S
C1182 C1177 1.245 . S
C1182 C1178 1.477 . S
C1182 H1199 0.932 . S
C1183 U1166 2.882 . S
C1183 C1177 1.428 . S
C1183 O1186 1.301 . S
C1183 O1187 1.282 . S
O1184 U1166 2.441 . S
O1184 C1170 1.249 . S
O1185 U1166 2.420 . S
O1185 C1170 1.202 . S
O1186 U1166 2.455 . S
O1186 C1183 1.301 . S
O1187 U1166 2.449 . S
O1187 C1183 1.282 . S
H1188 C1161 0.931 . S
H1189 C1163 0.929 . S
H1190 C1164 0.930 . S
H1191 C1165 0.931 . S
H1192 C1172 0.932 . S
H1193 C1173 0.930 . S
H1194 C1174 0.929 . S
H1195 C1176 0.930 . S
H1196 C1178 0.932 . S
H1197 C1179 0.929 . S
H1198 C1180 0.928 . S
H1199 C1182 0.932 . S
C1200 C1201 1.264 . S
C1200 C1205 1.479 . S
C1200 C1210 1.465 . S
C1201 C1200 1.264 . S
C1201 C1203 1.339 . S
C1201 H1228 0.931 . S
C1202 C1203 1.395 . S
C1202 C1204 1.320 . S
C1203 C1201 1.339 . S
C1203 C1202 1.395 . S
C1203 H1229 0.929 . S
C1204 C1202 1.320 . S
C1204 C1205 1.405 . S
C1204 H1230 0.930 . S
C1205 C1200 1.479 . S
C1205 C1204 1.405 . S
C1205 H1231 0.931 . S
U1206 O1207 2.454 . S
U1206 O1208 2.458 . S
U1206 C1209 2.984 . S
U1206 C1210 2.847 . S
U1206 C1223 2.882 . S
U1206 O1224 2.441 . S
U1206 O1225 2.420 . S
U1206 O1226 2.455 . S
U1206 O1227 2.449 . S
O1207 U1206 2.454 . S
O1207 C1209 1.353 . S
O1208 U1206 2.458 . S
O1208 C1209 1.286 . S
C1209 U1206 2.984 . S
C1209 O1207 1.353 . S
C1209 O1208 1.286 . S
C1209 C1211 1.363 . S
C1210 C1200 1.465 . S
C1210 U1206 2.847 . S
C1210 O1224 1.249 . S
C1210 O1225 1.202 . S
C1211 C1209 1.363 . S
C1211 C1213 1.408 . S
C1211 C1216 1.342 . S
C1212 C1213 1.310 . S
C1212 C1215 1.461 . S
C1212 H1232 0.932 . S
C1213 C1211 1.408 . S
C1213 C1212 1.310 . S
C1213 H1233 0.930 . S
C1214 C1215 1.474 . S
C1214 C1216 1.285 . S
C1214 H1234 0.929 . S
C1215 C1212 1.461 . S
C1215 C1214 1.474 . S
C1216 C1211 1.342 . S
C1216 C1214 1.285 . S
C1216 H1235 0.930 . S
C1217 C1220 1.424 . S
C1217 C1222 1.245 . S
C1217 C1223 1.428 . S
C1218 C1221 1.260 . S
C1218 C1222 1.477 . S
C1218 H1236 0.932 . S
C1219 C1220 1.384 . S
C1219 C1221 1.479 . S
C1219 H1237 0.929 . S
C1220 C1217 1.424 . S
C1220 C1219 1.384 . S
C1220 H1238 0.928 . S
C1221 C1218 1.260 . S
C1221 C1219 1.479 . S
C1222 C1217 1.245 . S
C1222 C1218 1.477 . S
C1222 H1239 0.932 . S
C1223 U1206 2.882 . S
C1223 C1217 1.428 . S
C1223 O1226 1.301 . S
C1223 O1227 1.282 . S
O1224 U1206 2.441 . S
O1224 C1210 1.249 . S
O1225 U1206 2.420 . S
O1225 C1210 1.202 . S
O1226 U1206 2.455 . S
O1226 C1223 1.301 . S
O1227 U1206 2.449 . S
O1227 C1223 1.282 . S
H1228 C1201 0.931 . S
H1229 C1203 0.929 . S
H1230 C1204 0.930 . S
H1231 C1205 0.931 . S
H1232 C1212 0.932 . S
H1233 C1213 0.930 . S
H1234 C1214 0.929 . S
H1235 C1216 0.930 . S
H1236 C1218 0.932 . S
H1237 C1219 0.929 . S
H1238 C1220 0.928 . S
H1239 C1222 0.932 . S
C1240 C1241 1.264 . S
C1240 C1245 1.479 . S
C1240 C1250 1.465 . S
C1241 C1240 1.264 . S
C1241 C1243 1.339 . S
C1241 H1268 0.931 . S
C1242 C1243 1.395 . S
C1242 C1244 1.320 . S
C1243 C1241 1.339 . S
C1243 C1242 1.395 . S
C1243 H1269 0.929 . S
C1244 C1242 1.320 . S
C1244 C1245 1.405 . S
C1244 H1270 0.930 . S
C1245 C1240 1.479 . S
C1245 C1244 1.405 . S
C1245 H1271 0.931 . S
U1246 O1247 2.454 . S
U1246 O1248 2.458 . S
U1246 C1249 2.984 . S
U1246 C1250 2.847 . S
U1246 C1263 2.882 . S
U1246 O1264 2.441 . S
U1246 O1265 2.420 . S
U1246 O1266 2.455 . S
U1246 O1267 2.449 . S
O1247 U1246 2.454 . S
O1247 C1249 1.353 . S
O1248 U1246 2.458 . S
O1248 C1249 1.286 . S
C1249 U1246 2.984 . S
C1249 O1247 1.353 . S
C1249 O1248 1.286 . S
C1249 C1251 1.363 1_655 S
C1250 C1240 1.465 . S
C1250 U1246 2.847 . S
C1250 O1264 1.249 . S
C1250 O1265 1.202 . S
C1251 C1249 1.363 1_455 S
C1251 C1253 1.408 . S
C1251 C1256 1.342 . S
C1252 C1253 1.310 . S
C1252 C1255 1.461 . S
C1252 H1272 0.932 . S
C1253 C1251 1.408 . S
C1253 C1252 1.310 . S
C1253 H1273 0.930 . S
C1254 C1255 1.474 . S
C1254 C1256 1.285 . S
C1254 H1274 0.929 . S
C1255 C1252 1.461 . S
C1255 C1254 1.474 . S
C1256 C1251 1.342 . S
C1256 C1254 1.285 . S
C1256 H1275 0.930 . S
C1257 C1260 1.424 . S
C1257 C1262 1.245 . S
C1257 C1263 1.428 . S
C1258 C1261 1.260 . S
C1258 C1262 1.477 . S
C1258 H1276 0.932 . S
C1259 C1260 1.384 . S
C1259 C1261 1.479 . S
C1259 H1277 0.929 . S
C1260 C1257 1.424 . S
C1260 C1259 1.384 . S
C1260 H1278 0.928 . S
C1261 C1258 1.260 . S
C1261 C1259 1.479 . S
C1262 C1257 1.245 . S
C1262 C1258 1.477 . S
C1262 H1279 0.932 . S
C1263 U1246 2.882 . S
C1263 C1257 1.428 . S
C1263 O1266 1.301 . S
C1263 O1267 1.282 . S
O1264 U1246 2.441 . S
O1264 C1250 1.249 . S
O1265 U1246 2.420 . S
O1265 C1250 1.202 . S
O1266 U1246 2.455 . S
O1266 C1263 1.301 . S
O1267 U1246 2.449 . S
O1267 C1263 1.282 . S
H1268 C1241 0.931 . S
H1269 C1243 0.929 . S
H1270 C1244 0.930 . S
H1271 C1245 0.931 . S
H1272 C1252 0.932 . S
H1273 C1253 0.930 . S
H1274 C1254 0.929 . S
H1275 C1256 0.930 . S
H1276 C1258 0.932 . S
H1277 C1259 0.929 . S
H1278 C1260 0.928 . S
H1279 C1262 0.932 . S
C1280 C1281 1.264 . S
C1280 C1285 1.479 . S
C1280 C1290 1.465 . S
C1281 C1280 1.264 . S
C1281 C1283 1.339 . S
C1281 H1308 0.931 . S
C1282 C1283 1.395 . S
C1282 C1284 1.320 . S
C1283 C1281 1.339 . S
C1283 C1282 1.395 . S
C1283 H1309 0.929 . S
C1284 C1282 1.320 . S
C1284 C1285 1.405 . S
C1284 H1310 0.930 . S
C1285 C1280 1.479 . S
C1285 C1284 1.405 . S
C1285 H1311 0.931 . S
U1286 O1287 2.454 . S
U1286 O1288 2.458 . S
U1286 C1289 2.984 . S
U1286 C1290 2.847 . S
U1286 C1303 2.882 . S
U1286 O1304 2.441 . S
U1286 O1305 2.420 . S
U1286 O1306 2.455 . S
U1286 O1307 2.449 . S
O1287 U1286 2.454 . S
O1287 C1289 1.353 . S
O1288 U1286 2.458 . S
O1288 C1289 1.286 . S
C1289 U1286 2.984 . S
C1289 O1287 1.353 . S
C1289 O1288 1.286 . S
C1289 C1291 1.363 . S
C1290 C1280 1.465 . S
C1290 U1286 2.847 . S
C1290 O1304 1.249 . S
C1290 O1305 1.202 . S
C1291 C1289 1.363 . S
C1291 C1293 1.408 . S
C1291 C1296 1.342 . S
C1292 C1293 1.310 . S
C1292 C1295 1.461 . S
C1292 H1312 0.932 . S
C1293 C1291 1.408 . S
C1293 C1292 1.310 . S
C1293 H1313 0.930 . S
C1294 C1295 1.474 . S
C1294 C1296 1.285 . S
C1294 H1314 0.929 . S
C1295 C1292 1.461 . S
C1295 C1294 1.474 . S
C1296 C1291 1.342 . S
C1296 C1294 1.285 . S
C1296 H1315 0.930 . S
C1297 C1300 1.424 . S
C1297 C1302 1.245 . S
C1297 C1303 1.428 . S
C1298 C1301 1.260 . S
C1298 C1302 1.477 . S
C1298 H1316 0.932 . S
C1299 C1300 1.384 . S
C1299 C1301 1.479 . S
C1299 H1317 0.929 . S
C1300 C1297 1.424 . S
C1300 C1299 1.384 . S
C1300 H1318 0.928 . S
C1301 C1298 1.260 . S
C1301 C1299 1.479 . S
C1302 C1297 1.245 . S
C1302 C1298 1.477 . S
C1302 H1319 0.932 . S
C1303 U1286 2.882 . S
C1303 C1297 1.428 . S
C1303 O1306 1.301 . S
C1303 O1307 1.282 . S
O1304 U1286 2.441 . S
O1304 C1290 1.249 . S
O1305 U1286 2.420 . S
O1305 C1290 1.202 . S
O1306 U1286 2.455 . S
O1306 C1303 1.301 . S
O1307 U1286 2.449 . S
O1307 C1303 1.282 . S
H1308 C1281 0.931 . S
H1309 C1283 0.929 . S
H1310 C1284 0.930 . S
H1311 C1285 0.931 . S
H1312 C1292 0.932 . S
H1313 C1293 0.930 . S
H1314 C1294 0.929 . S
H1315 C1296 0.930 . S
H1316 C1298 0.932 . S
H1317 C1299 0.929 . S
H1318 C1300 0.928 . S
H1319 C1302 0.932 . S
C1320 C1321 1.264 . S
C1320 C1325 1.479 . S
C1320 C1330 1.465 . S
C1321 C1320 1.264 . S
C1321 C1323 1.339 . S
C1321 H1348 0.931 . S
C1322 C1323 1.395 . S
C1322 C1324 1.320 . S
C1323 C1321 1.339 . S
C1323 C1322 1.395 . S
C1323 H1349 0.929 . S
C1324 C1322 1.320 . S
C1324 C1325 1.405 . S
C1324 H1350 0.930 . S
C1325 C1320 1.479 . S
C1325 C1324 1.405 . S
C1325 H1351 0.931 . S
U1326 O1327 2.454 . S
U1326 O1328 2.458 . S
U1326 C1329 2.984 . S
U1326 C1330 2.847 . S
U1326 C1343 2.882 . S
U1326 O1344 2.441 . S
U1326 O1345 2.420 . S
U1326 O1346 2.455 . S
U1326 O1347 2.449 . S
O1327 U1326 2.454 . S
O1327 C1329 1.353 . S
O1328 U1326 2.458 . S
O1328 C1329 1.286 . S
C1329 U1326 2.984 . S
C1329 O1327 1.353 . S
C1329 O1328 1.286 . S
C1329 C1331 1.363 1_556 S
C1330 C1320 1.465 . S
C1330 U1326 2.847 . S
C1330 O1344 1.249 . S
C1330 O1345 1.202 . S
C1331 C1329 1.363 1_554 S
C1331 C1333 1.408 . S
C1331 C1336 1.342 . S
C1332 C1333 1.310 . S
C1332 C1335 1.461 . S
C1332 H1352 0.932 . S
C1333 C1331 1.408 . S
C1333 C1332 1.310 . S
C1333 H1353 0.930 . S
C1334 C1335 1.474 . S
C1334 C1336 1.285 . S
C1334 H1354 0.929 . S
C1335 C1332 1.461 . S
C1335 C1334 1.474 . S
C1336 C1331 1.342 . S
C1336 C1334 1.285 . S
C1336 H1355 0.930 1_554 S
C1337 C1340 1.424 . S
C1337 C1342 1.245 . S
C1337 C1343 1.428 . S
C1338 C1341 1.260 . S
C1338 C1342 1.477 . S
C1338 H1356 0.932 . S
C1339 C1340 1.384 . S
C1339 C1341 1.479 . S
C1339 H1357 0.929 . S
C1340 C1337 1.424 . S
C1340 C1339 1.384 . S
C1340 H1358 0.928 . S
C1341 C1338 1.260 . S
C1341 C1339 1.479 . S
C1342 C1337 1.245 . S
C1342 C1338 1.477 . S
C1342 H1359 0.932 . S
C1343 U1326 2.882 . S
C1343 C1337 1.428 . S
C1343 O1346 1.301 . S
C1343 O1347 1.282 . S
O1344 U1326 2.441 . S
O1344 C1330 1.249 . S
O1345 U1326 2.420 . S
O1345 C1330 1.202 . S
O1346 U1326 2.455 . S
O1346 C1343 1.301 . S
O1347 U1326 2.449 . S
O1347 C1343 1.282 . S
H1348 C1321 0.931 . S
H1349 C1323 0.929 . S
H1350 C1324 0.930 . S
H1351 C1325 0.931 . S
H1352 C1332 0.932 . S
H1353 C1333 0.930 . S
H1354 C1334 0.929 . S
H1355 C1336 0.930 1_556 S
H1356 C1338 0.932 . S
H1357 C1339 0.929 . S
H1358 C1340 0.928 . S
H1359 C1342 0.932 . S
C1360 C1361 1.264 . S
C1360 C1365 1.479 . S
C1360 C1370 1.465 . S
C1361 C1360 1.264 . S
C1361 C1363 1.339 . S
C1361 H1388 0.931 . S
C1362 C1363 1.395 . S
C1362 C1364 1.320 . S
C1363 C1361 1.339 . S
C1363 C1362 1.395 . S
C1363 H1389 0.929 . S
C1364 C1362 1.320 . S
C1364 C1365 1.405 . S
C1364 H1390 0.930 . S
C1365 C1360 1.479 . S
C1365 C1364 1.405 . S
C1365 H1391 0.931 . S
U1366 O1367 2.454 . S
U1366 O1368 2.458 . S
U1366 C1369 2.984 . S
U1366 C1370 2.847 . S
U1366 C1383 2.882 . S
U1366 O1384 2.441 . S
U1366 O1385 2.420 . S
U1366 O1386 2.455 . S
U1366 O1387 2.449 . S
O1367 U1366 2.454 . S
O1367 C1369 1.353 . S
O1368 U1366 2.458 . S
O1368 C1369 1.286 . S
C1369 U1366 2.984 . S
C1369 O1367 1.353 . S
C1369 O1368 1.286 . S
C1369 C1371 1.363 . S
C1370 C1360 1.465 . S
C1370 U1366 2.847 . S
C1370 O1384 1.249 . S
C1370 O1385 1.202 . S
C1371 C1369 1.363 . S
C1371 C1373 1.408 . S
C1371 C1376 1.342 . S
C1372 C1373 1.310 . S
C1372 C1375 1.461 . S
C1372 H1392 0.932 . S
C1373 C1371 1.408 . S
C1373 C1372 1.310 . S
C1373 H1393 0.930 . S
C1374 C1375 1.474 . S
C1374 C1376 1.285 . S
C1374 H1394 0.929 . S
C1375 C1372 1.461 . S
C1375 C1374 1.474 . S
C1376 C1371 1.342 . S
C1376 C1374 1.285 . S
C1376 H1395 0.930 . S
C1377 C1380 1.424 . S
C1377 C1382 1.245 . S
C1377 C1383 1.428 . S
C1378 C1381 1.260 . S
C1378 C1382 1.477 . S
C1378 H1396 0.932 . S
C1379 C1380 1.384 . S
C1379 C1381 1.479 . S
C1379 H1397 0.929 . S
C1380 C1377 1.424 . S
C1380 C1379 1.384 . S
C1380 H1398 0.928 . S
C1381 C1378 1.260 . S
C1381 C1379 1.479 . S
C1382 C1377 1.245 . S
C1382 C1378 1.477 . S
C1382 H1399 0.932 . S
C1383 U1366 2.882 . S
C1383 C1377 1.428 . S
C1383 O1386 1.301 . S
C1383 O1387 1.282 . S
O1384 U1366 2.441 . S
O1384 C1370 1.249 . S
O1385 U1366 2.420 . S
O1385 C1370 1.202 . S
O1386 U1366 2.455 . S
O1386 C1383 1.301 . S
O1387 U1366 2.449 . S
O1387 C1383 1.282 . S
H1388 C1361 0.931 . S
H1389 C1363 0.929 . S
H1390 C1364 0.930 . S
H1391 C1365 0.931 . S
H1392 C1372 0.932 . S
H1393 C1373 0.930 . S
H1394 C1374 0.929 . S
H1395 C1376 0.930 . S
H1396 C1378 0.932 . S
H1397 C1379 0.929 . S
H1398 C1380 0.928 . S
H1399 C1382 0.932 . S
C1400 C1401 1.264 . S
C1400 C1405 1.479 . S
C1400 C1410 1.465 . S
C1401 C1400 1.264 . S
C1401 C1403 1.339 . S
C1401 H1428 0.931 . S
C1402 C1403 1.395 . S
C1402 C1404 1.320 . S
C1403 C1401 1.339 . S
C1403 C1402 1.395 . S
C1403 H1429 0.929 . S
C1404 C1402 1.320 . S
C1404 C1405 1.405 . S
C1404 H1430 0.930 . S
C1405 C1400 1.479 . S
C1405 C1404 1.405 . S
C1405 H1431 0.931 . S
U1406 O1407 2.454 . S
U1406 O1408 2.458 . S
U1406 C1409 2.984 . S
U1406 C1410 2.847 . S
U1406 C1423 2.882 . S
U1406 O1424 2.441 . S
U1406 O1425 2.420 . S
U1406 O1426 2.455 . S
U1406 O1427 2.449 . S
O1407 U1406 2.454 . S
O1407 C1409 1.353 . S
O1408 U1406 2.458 . S
O1408 C1409 1.286 . S
C1409 U1406 2.984 . S
C1409 O1407 1.353 . S
C1409 O1408 1.286 . S
C1409 C1411 1.363 . S
C1410 C1400 1.465 . S
C1410 U1406 2.847 . S
C1410 O1424 1.249 . S
C1410 O1425 1.202 . S
C1411 C1409 1.363 . S
C1411 C1413 1.408 . S
C1411 C1416 1.342 . S
C1412 C1413 1.310 . S
C1412 C1415 1.461 . S
C1412 H1432 0.932 . S
C1413 C1411 1.408 . S
C1413 C1412 1.310 . S
C1413 H1433 0.930 . S
C1414 C1415 1.474 . S
C1414 C1416 1.285 . S
C1414 H1434 0.929 . S
C1415 C1412 1.461 . S
C1415 C1414 1.474 . S
C1416 C1411 1.342 . S
C1416 C1414 1.285 . S
C1416 H1435 0.930 . S
C1417 C1420 1.424 . S
C1417 C1422 1.245 . S
C1417 C1423 1.428 . S
C1418 C1421 1.260 . S
C1418 C1422 1.477 . S
C1418 H1436 0.932 . S
C1419 C1420 1.384 . S
C1419 C1421 1.479 . S
C1419 H1437 0.929 . S
C1420 C1417 1.424 . S
C1420 C1419 1.384 . S
C1420 H1438 0.928 . S
C1421 C1418 1.260 . S
C1421 C1419 1.479 . S
C1422 C1417 1.245 . S
C1422 C1418 1.477 . S
C1422 H1439 0.932 . S
C1423 U1406 2.882 . S
C1423 C1417 1.428 . S
C1423 O1426 1.301 . S
C1423 O1427 1.282 . S
O1424 U1406 2.441 . S
O1424 C1410 1.249 . S
O1425 U1406 2.420 . S
O1425 C1410 1.202 . S
O1426 U1406 2.455 . S
O1426 C1423 1.301 . S
O1427 U1406 2.449 . S
O1427 C1423 1.282 . S
H1428 C1401 0.931 . S
H1429 C1403 0.929 . S
H1430 C1404 0.930 . S
H1431 C1405 0.931 . S
H1432 C1412 0.932 . S
H1433 C1413 0.930 . S
H1434 C1414 0.929 . S
H1435 C1416 0.930 . S
H1436 C1418 0.932 . S
H1437 C1419 0.929 . S
H1438 C1420 0.928 . S
H1439 C1422 0.932 . S
C1440 C1441 1.264 . S
C1440 C1445 1.479 . S
C1440 C1450 1.465 . S
C1441 C1440 1.264 . S
C1441 C1443 1.339 . S
C1441 H1468 0.931 . S
C1442 C1443 1.395 . S
C1442 C1444 1.320 . S
C1443 C1441 1.339 . S
C1443 C1442 1.395 . S
C1443 H1469 0.929 . S
C1444 C1442 1.320 . S
C1444 C1445 1.405 . S
C1444 H1470 0.930 . S
C1445 C1440 1.479 . S
C1445 C1444 1.405 . S
C1445 H1471 0.931 . S
U1446 O1447 2.454 . S
U1446 O1448 2.458 . S
U1446 C1449 2.984 . S
U1446 C1450 2.847 . S
U1446 C1463 2.882 . S
U1446 O1464 2.441 . S
U1446 O1465 2.420 . S
U1446 O1466 2.455 . S
U1446 O1467 2.449 . S
O1447 U1446 2.454 . S
O1447 C1449 1.353 . S
O1448 U1446 2.458 . S
O1448 C1449 1.286 . S
C1449 U1446 2.984 . S
C1449 O1447 1.353 . S
C1449 O1448 1.286 . S
C1449 C1451 1.363 . S
C1450 C1440 1.465 . S
C1450 U1446 2.847 . S
C1450 O1464 1.249 . S
C1450 O1465 1.202 . S
C1451 C1449 1.363 . S
C1451 C1453 1.408 . S
C1451 C1456 1.342 . S
C1452 C1453 1.310 . S
C1452 C1455 1.461 . S
C1452 H1472 0.932 . S
C1453 C1451 1.408 . S
C1453 C1452 1.310 . S
C1453 H1473 0.930 . S
C1454 C1455 1.474 . S
C1454 C1456 1.285 . S
C1454 H1474 0.929 . S
C1455 C1452 1.461 . S
C1455 C1454 1.474 . S
C1456 C1451 1.342 . S
C1456 C1454 1.285 . S
C1456 H1475 0.930 . S
C1457 C1460 1.424 . S
C1457 C1462 1.245 . S
C1457 C1463 1.428 . S
C1458 C1461 1.260 . S
C1458 C1462 1.477 . S
C1458 H1476 0.932 . S
C1459 C1460 1.384 . S
C1459 C1461 1.479 . S
C1459 H1477 0.929 . S
C1460 C1457 1.424 . S
C1460 C1459 1.384 . S
C1460 H1478 0.928 . S
C1461 C1458 1.260 . S
C1461 C1459 1.479 . S
C1462 C1457 1.245 . S
C1462 C1458 1.477 . S
C1462 H1479 0.932 . S
C1463 U1446 2.882 . S
C1463 C1457 1.428 . S
C1463 O1466 1.301 . S
C1463 O1467 1.282 . S
O1464 U1446 2.441 . S
O1464 C1450 1.249 . S
O1465 U1446 2.420 . S
O1465 C1450 1.202 . S
O1466 U1446 2.455 . S
O1466 C1463 1.301 . S
O1467 U1446 2.449 . S
O1467 C1463 1.282 . S
H1468 C1441 0.931 . S
H1469 C1443 0.929 . S
H1470 C1444 0.930 . S
H1471 C1445 0.931 . S
H1472 C1452 0.932 . S
H1473 C1453 0.930 . S
H1474 C1454 0.929 . S
H1475 C1456 0.930 . S
H1476 C1458 0.932 . S
H1477 C1459 0.929 . S
H1478 C1460 0.928 . S
H1479 C1462 0.932 . S
C1480 C1481 1.264 . S
C1480 C1485 1.479 . S
C1480 C1490 1.465 . S
C1481 C1480 1.264 . S
C1481 C1483 1.339 . S
C1481 H1508 0.931 . S
C1482 C1483 1.395 . S
C1482 C1484 1.320 . S
C1483 C1481 1.339 . S
C1483 C1482 1.395 . S
C1483 H1509 0.929 . S
C1484 C1482 1.320 . S
C1484 C1485 1.405 . S
C1484 H1510 0.930 . S
C1485 C1480 1.479 . S
C1485 C1484 1.405 . S
C1485 H1511 0.931 . S
U1486 O1487 2.454 . S
U1486 O1488 2.458 . S
U1486 C1489 2.984 . S
U1486 C1490 2.847 . S
U1486 C1503 2.882 . S
U1486 O1504 2.441 . S
U1486 O1505 2.420 . S
U1486 O1506 2.455 . S
U1486 O1507 2.449 . S
O1487 U1486 2.454 . S
O1487 C1489 1.353 . S
O1488 U1486 2.458 . S
O1488 C1489 1.286 . S
C1489 U1486 2.984 . S
C1489 O1487 1.353 . S
C1489 O1488 1.286 . S
C1489 C1491 1.363 . S
C1490 C1480 1.465 . S
C1490 U1486 2.847 . S
C1490 O1504 1.249 . S
C1490 O1505 1.202 . S
C1491 C1489 1.363 . S
C1491 C1493 1.408 . S
C1491 C1496 1.342 . S
C1492 C1493 1.310 . S
C1492 C1495 1.461 . S
C1492 H1512 0.932 . S
C1493 C1491 1.408 . S
C1493 C1492 1.310 . S
C1493 H1513 0.930 . S
C1494 C1495 1.474 . S
C1494 C1496 1.285 . S
C1494 H1514 0.929 . S
C1495 C1492 1.461 . S
C1495 C1494 1.474 . S
C1496 C1491 1.342 . S
C1496 C1494 1.285 . S
C1496 H1515 0.930 . S
C1497 C1500 1.424 . S
C1497 C1502 1.245 . S
C1497 C1503 1.428 . S
C1498 C1501 1.260 . S
C1498 C1502 1.477 . S
C1498 H1516 0.932 . S
C1499 C1500 1.384 . S
C1499 C1501 1.479 . S
C1499 H1517 0.929 . S
C1500 C1497 1.424 . S
C1500 C1499 1.384 . S
C1500 H1518 0.928 . S
C1501 C1498 1.260 . S
C1501 C1499 1.479 . S
C1502 C1497 1.245 . S
C1502 C1498 1.477 . S
C1502 H1519 0.932 . S
C1503 U1486 2.882 . S
C1503 C1497 1.428 . S
C1503 O1506 1.301 . S
C1503 O1507 1.282 . S
O1504 U1486 2.441 . S
O1504 C1490 1.249 . S
O1505 U1486 2.420 . S
O1505 C1490 1.202 . S
O1506 U1486 2.455 . S
O1506 C1503 1.301 . S
O1507 U1486 2.449 . S
O1507 C1503 1.282 . S
H1508 C1481 0.931 . S
H1509 C1483 0.929 . S
H1510 C1484 0.930 . S
H1511 C1485 0.931 . S
H1512 C1492 0.932 . S
H1513 C1493 0.930 . S
H1514 C1494 0.929 . S
H1515 C1496 0.930 . S
H1516 C1498 0.932 . S
H1517 C1499 0.929 . S
H1518 C1500 0.928 . S
H1519 C1502 0.932 . S
C1520 C1521 1.264 . S
C1520 C1525 1.479 . S
C1520 C1530 1.465 . S
C1521 C1520 1.264 . S
C1521 C1523 1.339 . S
C1521 H1548 0.931 . S
C1522 C1523 1.395 . S
C1522 C1524 1.320 . S
C1523 C1521 1.339 . S
C1523 C1522 1.395 . S
C1523 H1549 0.929 . S
C1524 C1522 1.320 . S
C1524 C1525 1.405 . S
C1524 H1550 0.930 . S
C1525 C1520 1.479 . S
C1525 C1524 1.405 . S
C1525 H1551 0.931 . S
U1526 O1527 2.454 . S
U1526 O1528 2.458 . S
U1526 C1529 2.984 . S
U1526 C1530 2.847 . S
U1526 C1543 2.882 . S
U1526 O1544 2.441 . S
U1526 O1545 2.420 . S
U1526 O1546 2.455 . S
U1526 O1547 2.449 . S
O1527 U1526 2.454 . S
O1527 C1529 1.353 . S
O1528 U1526 2.458 . S
O1528 C1529 1.286 . S
C1529 U1526 2.984 . S
C1529 O1527 1.353 . S
C1529 O1528 1.286 . S
C1529 C1531 1.363 . S
C1530 C1520 1.465 . S
C1530 U1526 2.847 . S
C1530 O1544 1.249 . S
C1530 O1545 1.202 . S
C1531 C1529 1.363 . S
C1531 C1533 1.408 . S
C1531 C1536 1.342 . S
C1532 C1533 1.310 . S
C1532 C1535 1.461 . S
C1532 H1552 0.932 . S
C1533 C1531 1.408 . S
C1533 C1532 1.310 . S
C1533 H1553 0.930 . S
C1534 C1535 1.474 . S
C1534 C1536 1.285 . S
C1534 H1554 0.929 . S
C1535 C1532 1.461 . S
C1535 C1534 1.474 . S
C1536 C1531 1.342 . S
C1536 C1534 1.285 . S
C1536 H1555 0.930 . S
C1537 C1540 1.424 . S
C1537 C1542 1.245 . S
C1537 C1543 1.428 . S
C1538 C1541 1.260 . S
C1538 C1542 1.477 . S
C1538 H1556 0.932 . S
C1539 C1540 1.384 . S
C1539 C1541 1.479 . S
C1539 H1557 0.929 . S
C1540 C1537 1.424 . S
C1540 C1539 1.384 . S
C1540 H1558 0.928 . S
C1541 C1538 1.260 . S
C1541 C1539 1.479 . S
C1542 C1537 1.245 . S
C1542 C1538 1.477 . S
C1542 H1559 0.932 . S
C1543 U1526 2.882 . S
C1543 C1537 1.428 . S
C1543 O1546 1.301 . S
C1543 O1547 1.282 . S
O1544 U1526 2.441 . S
O1544 C1530 1.249 . S
O1545 U1526 2.420 . S
O1545 C1530 1.202 . S
O1546 U1526 2.455 . S
O1546 C1543 1.301 . S
O1547 U1526 2.449 . S
O1547 C1543 1.282 . S
H1548 C1521 0.931 . S
H1549 C1523 0.929 . S
H1550 C1524 0.930 . S
H1551 C1525 0.931 . S
H1552 C1532 0.932 . S
H1553 C1533 0.930 . S
H1554 C1534 0.929 . S
H1555 C1536 0.930 . S
H1556 C1538 0.932 . S
H1557 C1539 0.929 . S
H1558 C1540 0.928 . S
H1559 C1542 0.932 . S
C1560 C1561 1.264 . S
C1560 C1565 1.479 . S
C1560 C1570 1.465 . S
C1561 C1560 1.264 . S
C1561 C1563 1.339 . S
C1561 H1588 0.931 . S
C1562 C1563 1.395 . S
C1562 C1564 1.320 . S
C1563 C1561 1.339 . S
C1563 C1562 1.395 . S
C1563 H1589 0.929 . S
C1564 C1562 1.320 . S
C1564 C1565 1.405 . S
C1564 H1590 0.930 . S
C1565 C1560 1.479 . S
C1565 C1564 1.405 . S
C1565 H1591 0.931 . S
U1566 O1567 2.454 . S
U1566 O1568 2.458 . S
U1566 C1569 2.984 . S
U1566 C1570 2.847 . S
U1566 C1583 2.882 . S
U1566 O1584 2.441 . S
U1566 O1585 2.420 . S
U1566 O1586 2.455 . S
U1566 O1587 2.449 . S
O1567 U1566 2.454 . S
O1567 C1569 1.353 . S
O1568 U1566 2.458 . S
O1568 C1569 1.286 . S
C1569 U1566 2.984 . S
C1569 O1567 1.353 . S
C1569 O1568 1.286 . S
C1569 C1571 1.363 . S
C1570 C1560 1.465 . S
C1570 U1566 2.847 . S
C1570 O1584 1.249 . S
C1570 O1585 1.202 . S
C1571 C1569 1.363 . S
C1571 C1573 1.408 . S
C1571 C1576 1.342 . S
C1572 C1573 1.310 . S
C1572 C1575 1.461 . S
C1572 H1592 0.932 . S
C1573 C1571 1.408 . S
C1573 C1572 1.310 . S
C1573 H1593 0.930 . S
C1574 C1575 1.474 . S
C1574 C1576 1.285 . S
C1574 H1594 0.929 . S
C1575 C1572 1.461 . S
C1575 C1574 1.474 . S
C1576 C1571 1.342 . S
C1576 C1574 1.285 . S
C1576 H1595 0.930 . S
C1577 C1580 1.424 . S
C1577 C1582 1.245 . S
C1577 C1583 1.428 . S
C1578 C1581 1.260 . S
C1578 C1582 1.477 . S
C1578 H1596 0.932 . S
C1579 C1580 1.384 . S
C1579 C1581 1.479 . S
C1579 H1597 0.929 . S
C1580 C1577 1.424 . S
C1580 C1579 1.384 . S
C1580 H1598 0.928 . S
C1581 C1578 1.260 . S
C1581 C1579 1.479 . S
C1582 C1577 1.245 . S
C1582 C1578 1.477 . S
C1582 H1599 0.932 . S
C1583 U1566 2.882 . S
C1583 C1577 1.428 . S
C1583 O1586 1.301 . S
C1583 O1587 1.282 . S
O1584 U1566 2.441 . S
O1584 C1570 1.249 . S
O1585 U1566 2.420 . S
O1585 C1570 1.202 . S
O1586 U1566 2.455 . S
O1586 C1583 1.301 . S
O1587 U1566 2.449 . S
O1587 C1583 1.282 . S
H1588 C1561 0.931 . S
H1589 C1563 0.929 . S
H1590 C1564 0.930 . S
H1591 C1565 0.931 . S
H1592 C1572 0.932 . S
H1593 C1573 0.930 . S
H1594 C1574 0.929 . S
H1595 C1576 0.930 . S
H1596 C1578 0.932 . S
H1597 C1579 0.929 . S
H1598 C1580 0.928 . S
H1599 C1582 0.932 . S
C1600 C1601 1.264 . S
C1600 C1605 1.479 . S
C1600 C1610 1.465 . S
C1601 C1600 1.264 . S
C1601 C1603 1.339 . S
C1601 H1628 0.931 . S
C1602 C1603 1.395 . S
C1602 C1604 1.320 . S
C1603 C1601 1.339 . S
C1603 C1602 1.395 . S
C1603 H1629 0.929 . S
C1604 C1602 1.320 . S
C1604 C1605 1.405 . S
C1604 H1630 0.930 . S
C1605 C1600 1.479 . S
C1605 C1604 1.405 . S
C1605 H1631 0.931 . S
U1606 O1607 2.454 . S
U1606 O1608 2.458 . S
U1606 C1609 2.984 . S
U1606 C1610 2.847 1_455 S
U1606 C1623 2.882 . S
U1606 O1624 2.441 1_455 S
U1606 O1625 2.420 1_455 S
U1606 O1626 2.455 . S
U1606 O1627 2.449 . S
O1607 U1606 2.454 . S
O1607 C1609 1.353 . S
O1608 U1606 2.458 . S
O1608 C1609 1.286 . S
C1609 U1606 2.984 . S
C1609 O1607 1.353 . S
C1609 O1608 1.286 . S
C1609 C1611 1.363 . S
C1610 C1600 1.465 . S
C1610 U1606 2.847 1_655 S
C1610 O1624 1.249 . S
C1610 O1625 1.202 . S
C1611 C1609 1.363 . S
C1611 C1613 1.408 . S
C1611 C1616 1.342 . S
C1612 C1613 1.310 . S
C1612 C1615 1.461 . S
C1612 H1632 0.932 . S
C1613 C1611 1.408 . S
C1613 C1612 1.310 . S
C1613 H1633 0.930 . S
C1614 C1615 1.474 . S
C1614 C1616 1.285 . S
C1614 H1634 0.929 . S
C1615 C1612 1.461 . S
C1615 C1614 1.474 . S
C1616 C1611 1.342 . S
C1616 C1614 1.285 . S
C1616 H1635 0.930 . S
C1617 C1620 1.424 . S
C1617 C1622 1.245 . S
C1617 C1623 1.428 . S
C1618 C1621 1.260 . S
C1618 C1622 1.477 . S
C1618 H1636 0.932 . S
C1619 C1620 1.384 . S
C1619 C1621 1.479 . S
C1619 H1637 0.929 . S
C1620 C1617 1.424 . S
C1620 C1619 1.384 . S
C1620 H1638 0.928 . S
C1621 C1618 1.260 . S
C1621 C1619 1.479 . S
C1622 C1617 1.245 . S
C1622 C1618 1.477 . S
C1622 H1639 0.932 . S
C1623 U1606 2.882 . S
C1623 C1617 1.428 . S
C1623 O1626 1.301 . S
C1623 O1627 1.282 . S
O1624 U1606 2.441 1_655 S
O1624 C1610 1.249 . S
O1625 U1606 2.420 1_655 S
O1625 C1610 1.202 . S
O1626 U1606 2.455 . S
O1626 C1623 1.301 . S
O1627 U1606 2.449 . S
O1627 C1623 1.282 . S
H1628 C1601 0.931 . S
H1629 C1603 0.929 . S
H1630 C1604 0.930 . S
H1631 C1605 0.931 . S
H1632 C1612 0.932 . S
H1633 C1613 0.930 . S
H1634 C1614 0.929 . S
H1635 C1616 0.930 . S
H1636 C1618 0.932 . S
H1637 C1619 0.929 . S
H1638 C1620 0.928 . S
H1639 C1622 0.932 . S
C1640 C1641 1.264 . S
C1640 C1645 1.479 . S
C1640 C1650 1.465 . S
C1641 C1640 1.264 . S
C1641 C1643 1.339 . S
C1641 H1668 0.931 . S
C1642 C1643 1.395 . S
C1642 C1644 1.320 . S
C1643 C1641 1.339 . S
C1643 C1642 1.395 . S
C1643 H1669 0.929 . S
C1644 C1642 1.320 . S
C1644 C1645 1.405 . S
C1644 H1670 0.930 . S
C1645 C1640 1.479 . S
C1645 C1644 1.405 . S
C1645 H1671 0.931 . S
U1646 O1647 2.454 . S
U1646 O1648 2.458 . S
U1646 C1649 2.984 . S
U1646 C1650 2.847 . S
U1646 C1663 2.882 . S
U1646 O1664 2.441 . S
U1646 O1665 2.420 . S
U1646 O1666 2.455 . S
U1646 O1667 2.449 . S
O1647 U1646 2.454 . S
O1647 C1649 1.353 . S
O1648 U1646 2.458 . S
O1648 C1649 1.286 . S
C1649 U1646 2.984 . S
C1649 O1647 1.353 . S
C1649 O1648 1.286 . S
C1649 C1651 1.363 . S
C1650 C1640 1.465 . S
C1650 U1646 2.847 . S
C1650 O1664 1.249 . S
C1650 O1665 1.202 . S
C1651 C1649 1.363 . S
C1651 C1653 1.408 . S
C1651 C1656 1.342 . S
C1652 C1653 1.310 . S
C1652 C1655 1.461 . S
C1652 H1672 0.932 . S
C1653 C1651 1.408 . S
C1653 C1652 1.310 . S
C1653 H1673 0.930 . S
C1654 C1655 1.474 . S
C1654 C1656 1.285 . S
C1654 H1674 0.929 . S
C1655 C1652 1.461 . S
C1655 C1654 1.474 . S
C1656 C1651 1.342 . S
C1656 C1654 1.285 . S
C1656 H1675 0.930 . S
C1657 C1660 1.424 . S
C1657 C1662 1.245 . S
C1657 C1663 1.428 . S
C1658 C1661 1.260 . S
C1658 C1662 1.477 . S
C1658 H1676 0.932 . S
C1659 C1660 1.384 . S
C1659 C1661 1.479 . S
C1659 H1677 0.929 . S
C1660 C1657 1.424 . S
C1660 C1659 1.384 . S
C1660 H1678 0.928 . S
C1661 C1658 1.260 . S
C1661 C1659 1.479 . S
C1662 C1657 1.245 . S
C1662 C1658 1.477 . S
C1662 H1679 0.932 . S
C1663 U1646 2.882 . S
C1663 C1657 1.428 . S
C1663 O1666 1.301 . S
C1663 O1667 1.282 . S
O1664 U1646 2.441 . S
O1664 C1650 1.249 . S
O1665 U1646 2.420 . S
O1665 C1650 1.202 . S
O1666 U1646 2.455 . S
O1666 C1663 1.301 . S
O1667 U1646 2.449 . S
O1667 C1663 1.282 . S
H1668 C1641 0.931 . S
H1669 C1643 0.929 . S
H1670 C1644 0.930 . S
H1671 C1645 0.931 . S
H1672 C1652 0.932 . S
H1673 C1653 0.930 . S
H1674 C1654 0.929 . S
H1675 C1656 0.930 . S
H1676 C1658 0.932 . S
H1677 C1659 0.929 . S
H1678 C1660 0.928 . S
H1679 C1662 0.932 . S
C1680 C1681 1.264 . S
C1680 C1685 1.479 . S
C1680 C1690 1.465 . S
C1681 C1680 1.264 . S
C1681 C1683 1.339 . S
C1681 H1708 0.931 . S
C1682 C1683 1.395 . S
C1682 C1684 1.320 . S
C1683 C1681 1.339 . S
C1683 C1682 1.395 . S
C1683 H1709 0.929 . S
C1684 C1682 1.320 . S
C1684 C1685 1.405 . S
C1684 H1710 0.930 . S
C1685 C1680 1.479 . S
C1685 C1684 1.405 . S
C1685 H1711 0.931 . S
U1686 O1687 2.454 1_554 S
U1686 O1688 2.458 1_554 S
U1686 C1689 2.984 1_554 S
U1686 C1690 2.847 . S
U1686 C1703 2.882 . S
U1686 O1704 2.441 . S
U1686 O1705 2.420 . S
U1686 O1706 2.455 . S
U1686 O1707 2.449 . S
O1687 U1686 2.454 1_556 S
O1687 C1689 1.353 . S
O1688 U1686 2.458 1_556 S
O1688 C1689 1.286 . S
C1689 U1686 2.984 1_556 S
C1689 O1687 1.353 . S
C1689 O1688 1.286 . S
C1689 C1691 1.363 . S
C1690 C1680 1.465 . S
C1690 U1686 2.847 . S
C1690 O1704 1.249 . S
C1690 O1705 1.202 . S
C1691 C1689 1.363 . S
C1691 C1693 1.408 . S
C1691 C1696 1.342 . S
C1692 C1693 1.310 . S
C1692 C1695 1.461 . S
C1692 H1712 0.932 . S
C1693 C1691 1.408 . S
C1693 C1692 1.310 . S
C1693 H1713 0.930 . S
C1694 C1695 1.474 . S
C1694 C1696 1.285 . S
C1694 H1714 0.929 . S
C1695 C1692 1.461 . S
C1695 C1694 1.474 . S
C1696 C1691 1.342 . S
C1696 C1694 1.285 . S
C1696 H1715 0.930 . S
C1697 C1700 1.424 . S
C1697 C1702 1.245 . S
C1697 C1703 1.428 . S
C1698 C1701 1.260 . S
C1698 C1702 1.477 . S
C1698 H1716 0.932 . S
C1699 C1700 1.384 . S
C1699 C1701 1.479 . S
C1699 H1717 0.929 . S
C1700 C1697 1.424 . S
C1700 C1699 1.384 . S
C1700 H1718 0.928 . S
C1701 C1698 1.260 . S
C1701 C1699 1.479 . S
C1702 C1697 1.245 . S
C1702 C1698 1.477 . S
C1702 H1719 0.932 . S
C1703 U1686 2.882 . S
C1703 C1697 1.428 . S
C1703 O1706 1.301 . S
C1703 O1707 1.282 . S
O1704 U1686 2.441 . S
O1704 C1690 1.249 . S
O1705 U1686 2.420 . S
O1705 C1690 1.202 . S
O1706 U1686 2.455 . S
O1706 C1703 1.301 . S
O1707 U1686 2.449 . S
O1707 C1703 1.282 . S
H1708 C1681 0.931 . S
H1709 C1683 0.929 . S
H1710 C1684 0.930 . S
H1711 C1685 0.931 . S
H1712 C1692 0.932 . S
H1713 C1693 0.930 . S
H1714 C1694 0.929 . S
H1715 C1696 0.930 . S
H1716 C1698 0.932 . S
H1717 C1699 0.929 . S
H1718 C1700 0.928 . S
H1719 C1702 0.932 . S
C1720 C1721 1.264 . S
C1720 C1725 1.479 . S
C1720 C1730 1.465 . S
C1721 C1720 1.264 . S
C1721 C1723 1.339 . S
C1721 H1748 0.931 . S
C1722 C1723 1.395 . S
C1722 C1724 1.320 . S
C1723 C1721 1.339 . S
C1723 C1722 1.395 . S
C1723 H1749 0.929 . S
C1724 C1722 1.320 . S
C1724 C1725 1.405 . S
C1724 H1750 0.930 . S
C1725 C1720 1.479 . S
C1725 C1724 1.405 . S
C1725 H1751 0.931 . S
U1726 O1727 2.454 . S
U1726 O1728 2.458 . S
U1726 C1729 2.984 . S
U1726 C1730 2.847 . S
U1726 C1743 2.882 . S
U1726 O1744 2.441 . S
U1726 O1745 2.420 . S
U1726 O1746 2.455 . S
U1726 O1747 2.449 . S
O1727 U1726 2.454 . S
O1727 C1729 1.353 . S
O1728 U1726 2.458 . S
O1728 C1729 1.286 . S
C1729 U1726 2.984 . S
C1729 O1727 1.353 . S
C1729 O1728 1.286 . S
C1729 C1731 1.363 . S
C1730 C1720 1.465 . S
C1730 U1726 2.847 . S
C1730 O1744 1.249 . S
C1730 O1745 1.202 . S
C1731 C1729 1.363 . S
C1731 C1733 1.408 . S
C1731 C1736 1.342 . S
C1732 C1733 1.310 . S
C1732 C1735 1.461 . S
C1732 H1752 0.932 . S
C1733 C1731 1.408 . S
C1733 C1732 1.310 . S
C1733 H1753 0.930 . S
C1734 C1735 1.474 . S
C1734 C1736 1.285 . S
C1734 H1754 0.929 . S
C1735 C1732 1.461 . S
C1735 C1734 1.474 . S
C1736 C1731 1.342 . S
C1736 C1734 1.285 . S
C1736 H1755 0.930 . S
C1737 C1740 1.424 . S
C1737 C1742 1.245 . S
C1737 C1743 1.428 . S
C1738 C1741 1.260 . S
C1738 C1742 1.477 . S
C1738 H1756 0.932 . S
C1739 C1740 1.384 . S
C1739 C1741 1.479 . S
C1739 H1757 0.929 . S
C1740 C1737 1.424 . S
C1740 C1739 1.384 . S
C1740 H1758 0.928 . S
C1741 C1738 1.260 . S
C1741 C1739 1.479 . S
C1742 C1737 1.245 . S
C1742 C1738 1.477 . S
C1742 H1759 0.932 . S
C1743 U1726 2.882 . S
C1743 C1737 1.428 . S
C1743 O1746 1.301 . S
C1743 O1747 1.282 . S
O1744 U1726 2.441 . S
O1744 C1730 1.249 . S
O1745 U1726 2.420 . S
O1745 C1730 1.202 . S
O1746 U1726 2.455 . S
O1746 C1743 1.301 . S
O1747 U1726 2.449 . S
O1747 C1743 1.282 . S
H1748 C1721 0.931 . S
H1749 C1723 0.929 . S
H1750 C1724 0.930 . S
H1751 C1725 0.931 . S
H1752 C1732 0.932 . S
H1753 C1733 0.930 . S
H1754 C1734 0.929 . S
H1755 C1736 0.930 . S
H1756 C1738 0.932 . S
H1757 C1739 0.929 . S
H1758 C1740 0.928 . S
H1759 C1742 0.932 . S
C1760 C1761 1.264 . S
C1760 C1765 1.479 . S
C1760 C1770 1.465 . S
C1761 C1760 1.264 . S
C1761 C1763 1.339 . S
C1761 H1788 0.931 . S
C1762 C1763 1.395 . S
C1762 C1764 1.320 . S
C1763 C1761 1.339 . S
C1763 C1762 1.395 . S
C1763 H1789 0.929 . S
C1764 C1762 1.320 . S
C1764 C1765 1.405 . S
C1764 H1790 0.930 . S
C1765 C1760 1.479 . S
C1765 C1764 1.405 . S
C1765 H1791 0.931 . S
U1766 O1767 2.454 . S
U1766 O1768 2.458 . S
U1766 C1769 2.984 . S
U1766 C1770 2.847 . S
U1766 C1783 2.882 . S
U1766 O1784 2.441 . S
U1766 O1785 2.420 . S
U1766 O1786 2.455 . S
U1766 O1787 2.449 . S
O1767 U1766 2.454 . S
O1767 C1769 1.353 . S
O1768 U1766 2.458 . S
O1768 C1769 1.286 . S
C1769 U1766 2.984 . S
C1769 O1767 1.353 . S
C1769 O1768 1.286 . S
C1769 C1771 1.363 . S
C1770 C1760 1.465 . S
C1770 U1766 2.847 . S
C1770 O1784 1.249 . S
C1770 O1785 1.202 . S
C1771 C1769 1.363 . S
C1771 C1773 1.408 . S
C1771 C1776 1.342 . S
C1772 C1773 1.310 . S
C1772 C1775 1.461 . S
C1772 H1792 0.932 . S
C1773 C1771 1.408 . S
C1773 C1772 1.310 . S
C1773 H1793 0.930 . S
C1774 C1775 1.474 . S
C1774 C1776 1.285 . S
C1774 H1794 0.929 . S
C1775 C1772 1.461 . S
C1775 C1774 1.474 . S
C1776 C1771 1.342 . S
C1776 C1774 1.285 . S
C1776 H1795 0.930 . S
C1777 C1780 1.424 . S
C1777 C1782 1.245 . S
C1777 C1783 1.428 . S
C1778 C1781 1.260 . S
C1778 C1782 1.477 . S
C1778 H1796 0.932 . S
C1779 C1780 1.384 . S
C1779 C1781 1.479 . S
C1779 H1797 0.929 . S
C1780 C1777 1.424 . S
C1780 C1779 1.384 . S
C1780 H1798 0.928 . S
C1781 C1778 1.260 . S
C1781 C1779 1.479 . S
C1782 C1777 1.245 . S
C1782 C1778 1.477 . S
C1782 H1799 0.932 . S
C1783 U1766 2.882 . S
C1783 C1777 1.428 . S
C1783 O1786 1.301 . S
C1783 O1787 1.282 . S
O1784 U1766 2.441 . S
O1784 C1770 1.249 . S
O1785 U1766 2.420 . S
O1785 C1770 1.202 . S
O1786 U1766 2.455 . S
O1786 C1783 1.301 . S
O1787 U1766 2.449 . S
O1787 C1783 1.282 . S
H1788 C1761 0.931 . S
H1789 C1763 0.929 . S
H1790 C1764 0.930 . S
H1791 C1765 0.931 . S
H1792 C1772 0.932 . S
H1793 C1773 0.930 . S
H1794 C1774 0.929 . S
H1795 C1776 0.930 . S
H1796 C1778 0.932 . S
H1797 C1779 0.929 . S
H1798 C1780 0.928 . S
H1799 C1782 0.932 . S
C1800 C1801 1.264 . S
C1800 C1805 1.479 . S
C1800 C1810 1.465 . S
C1801 C1800 1.264 . S
C1801 C1803 1.339 . S
C1801 H1828 0.931 . S
C1802 C1803 1.395 . S
C1802 C1804 1.320 . S
C1803 C1801 1.339 . S
C1803 C1802 1.395 . S
C1803 H1829 0.929 . S
C1804 C1802 1.320 . S
C1804 C1805 1.405 . S
C1804 H1830 0.930 . S
C1805 C1800 1.479 . S
C1805 C1804 1.405 . S
C1805 H1831 0.931 . S
U1806 O1807 2.454 . S
U1806 O1808 2.458 . S
U1806 C1809 2.984 . S
U1806 C1810 2.847 . S
U1806 C1823 2.882 . S
U1806 O1824 2.441 . S
U1806 O1825 2.420 . S
U1806 O1826 2.455 . S
U1806 O1827 2.449 . S
O1807 U1806 2.454 . S
O1807 C1809 1.353 . S
O1808 U1806 2.458 . S
O1808 C1809 1.286 . S
C1809 U1806 2.984 . S
C1809 O1807 1.353 . S
C1809 O1808 1.286 . S
C1809 C1811 1.363 . S
C1810 C1800 1.465 . S
C1810 U1806 2.847 . S
C1810 O1824 1.249 . S
C1810 O1825 1.202 . S
C1811 C1809 1.363 . S
C1811 C1813 1.408 . S
C1811 C1816 1.342 . S
C1812 C1813 1.310 . S
C1812 C1815 1.461 . S
C1812 H1832 0.932 . S
C1813 C1811 1.408 . S
C1813 C1812 1.310 . S
C1813 H1833 0.930 . S
C1814 C1815 1.474 . S
C1814 C1816 1.285 . S
C1814 H1834 0.929 . S
C1815 C1812 1.461 . S
C1815 C1814 1.474 . S
C1816 C1811 1.342 . S
C1816 C1814 1.285 . S
C1816 H1835 0.930 . S
C1817 C1820 1.424 . S
C1817 C1822 1.245 . S
C1817 C1823 1.428 . S
C1818 C1821 1.260 . S
C1818 C1822 1.477 . S
C1818 H1836 0.932 . S
C1819 C1820 1.384 . S
C1819 C1821 1.479 . S
C1819 H1837 0.929 . S
C1820 C1817 1.424 . S
C1820 C1819 1.384 . S
C1820 H1838 0.928 . S
C1821 C1818 1.260 . S
C1821 C1819 1.479 . S
C1822 C1817 1.245 . S
C1822 C1818 1.477 . S
C1822 H1839 0.932 . S
C1823 U1806 2.882 . S
C1823 C1817 1.428 . S
C1823 O1826 1.301 . S
C1823 O1827 1.282 . S
O1824 U1806 2.441 . S
O1824 C1810 1.249 . S
O1825 U1806 2.420 . S
O1825 C1810 1.202 . S
O1826 U1806 2.455 . S
O1826 C1823 1.301 . S
O1827 U1806 2.449 . S
O1827 C1823 1.282 . S
H1828 C1801 0.931 . S
H1829 C1803 0.929 . S
H1830 C1804 0.930 . S
H1831 C1805 0.931 . S
H1832 C1812 0.932 . S
H1833 C1813 0.930 . S
H1834 C1814 0.929 . S
H1835 C1816 0.930 . S
H1836 C1818 0.932 . S
H1837 C1819 0.929 . S
H1838 C1820 0.928 . S
H1839 C1822 0.932 . S
C1840 C1841 1.264 . S
C1840 C1845 1.479 . S
C1840 C1850 1.465 . S
C1841 C1840 1.264 . S
C1841 C1843 1.339 . S
C1841 H1868 0.931 . S
C1842 C1843 1.395 . S
C1842 C1844 1.320 . S
C1843 C1841 1.339 . S
C1843 C1842 1.395 . S
C1843 H1869 0.929 . S
C1844 C1842 1.320 . S
C1844 C1845 1.405 . S
C1844 H1870 0.930 . S
C1845 C1840 1.479 . S
C1845 C1844 1.405 . S
C1845 H1871 0.931 . S
U1846 O1847 2.454 . S
U1846 O1848 2.458 . S
U1846 C1849 2.984 . S
U1846 C1850 2.847 . S
U1846 C1863 2.882 . S
U1846 O1864 2.441 . S
U1846 O1865 2.420 . S
U1846 O1866 2.455 . S
U1846 O1867 2.449 . S
O1847 U1846 2.454 . S
O1847 C1849 1.353 . S
O1848 U1846 2.458 . S
O1848 C1849 1.286 . S
C1849 U1846 2.984 . S
C1849 O1847 1.353 . S
C1849 O1848 1.286 . S
C1849 C1851 1.363 . S
C1850 C1840 1.465 . S
C1850 U1846 2.847 . S
C1850 O1864 1.249 . S
C1850 O1865 1.202 . S
C1851 C1849 1.363 . S
C1851 C1853 1.408 . S
C1851 C1856 1.342 . S
C1852 C1853 1.310 . S
C1852 C1855 1.461 . S
C1852 H1872 0.932 . S
C1853 C1851 1.408 . S
C1853 C1852 1.310 . S
C1853 H1873 0.930 . S
C1854 C1855 1.474 . S
C1854 C1856 1.285 . S
C1854 H1874 0.929 . S
C1855 C1852 1.461 . S
C1855 C1854 1.474 . S
C1856 C1851 1.342 . S
C1856 C1854 1.285 . S
C1856 H1875 0.930 . S
C1857 C1860 1.424 . S
C1857 C1862 1.245 . S
C1857 C1863 1.428 . S
C1858 C1861 1.260 . S
C1858 C1862 1.477 . S
C1858 H1876 0.932 . S
C1859 C1860 1.384 . S
C1859 C1861 1.479 . S
C1859 H1877 0.929 . S
C1860 C1857 1.424 . S
C1860 C1859 1.384 . S
C1860 H1878 0.928 . S
C1861 C1858 1.260 . S
C1861 C1859 1.479 . S
C1862 C1857 1.245 . S
C1862 C1858 1.477 . S
C1862 H1879 0.932 . S
C1863 U1846 2.882 . S
C1863 C1857 1.428 . S
C1863 O1866 1.301 . S
C1863 O1867 1.282 . S
O1864 U1846 2.441 . S
O1864 C1850 1.249 . S
O1865 U1846 2.420 . S
O1865 C1850 1.202 . S
O1866 U1846 2.455 . S
O1866 C1863 1.301 . S
O1867 U1846 2.449 . S
O1867 C1863 1.282 . S
H1868 C1841 0.931 . S
H1869 C1843 0.929 . S
H1870 C1844 0.930 . S
H1871 C1845 0.931 . S
H1872 C1852 0.932 . S
H1873 C1853 0.930 . S
H1874 C1854 0.929 . S
H1875 C1856 0.930 . S
H1876 C1858 0.932 . S
H1877 C1859 0.929 . S
H1878 C1860 0.928 . S
H1879 C1862 0.932 . S
C1880 C1881 1.264 . S
C1880 C1885 1.479 . S
C1880 C1890 1.465 . S
C1881 C1880 1.264 . S
C1881 C1883 1.339 . S
C1881 H1908 0.931 . S
C1882 C1883 1.395 . S
C1882 C1884 1.320 . S
C1883 C1881 1.339 . S
C1883 C1882 1.395 . S
C1883 H1909 0.929 . S
C1884 C1882 1.320 . S
C1884 C1885 1.405 . S
C1884 H1910 0.930 . S
C1885 C1880 1.479 . S
C1885 C1884 1.405 . S
C1885 H1911 0.931 . S
U1886 O1887 2.454 . S
U1886 O1888 2.458 . S
U1886 C1889 2.984 . S
U1886 C1890 2.847 . S
U1886 C1903 2.882 . S
U1886 O1904 2.441 . S
U1886 O1905 2.420 . S
U1886 O1906 2.455 . S
U1886 O1907 2.449 . S
O1887 U1886 2.454 . S
O1887 C1889 1.353 . S
O1888 U1886 2.458 . S
O1888 C1889 1.286 . S
C1889 U1886 2.984 . S
C1889 O1887 1.353 . S
C1889 O1888 1.286 . S
C1889 C1891 1.363 . S
C1890 C1880 1.465 . S
C1890 U1886 2.847 . S
C1890 O1904 1.249 . S
C1890 O1905 1.202 . S
C1891 C1889 1.363 . S
C1891 C1893 1.408 . S
C1891 C1896 1.342 . S
C1892 C1893 1.310 . S
C1892 C1895 1.461 . S
C1892 H1912 0.932 . S
C1893 C1891 1.408 . S
C1893 C1892 1.310 . S
C1893 H1913 0.930 . S
C1894 C1895 1.474 . S
C1894 C1896 1.285 . S
C1894 H1914 0.929 . S
C1895 C1892 1.461 . S
C1895 C1894 1.474 . S
C1896 C1891 1.342 . S
C1896 C1894 1.285 . S
C1896 H1915 0.930 . S
C1897 C1900 1.424 . S
C1897 C1902 1.245 . S
C1897 C1903 1.428 . S
C1898 C1901 1.260 . S
C1898 C1902 1.477 . S
C1898 H1916 0.932 . S
C1899 C1900 1.384 . S
C1899 C1901 1.479 . S
C1899 H1917 0.929 . S
C1900 C1897 1.424 . S
C1900 C1899 1.384 . S
C1900 H1918 0.928 . S
C1901 C1898 1.260 . S
C1901 C1899 1.479 . S
C1902 C1897 1.245 . S
C1902 C1898 1.477 . S
C1902 H1919 0.932 . S
C1903 U1886 2.882 . S
C1903 C1897 1.428 . S
C1903 O1906 1.301 . S
C1903 O1907 1.282 . S
O1904 U1886 2.441 . S
O1904 C1890 1.249 . S
O1905 U1886 2.420 . S
O1905 C1890 1.202 . S
O1906 U1886 2.455 . S
O1906 C1903 1.301 . S
O1907 U1886 2.449 . S
O1907 C1903 1.282 . S
H1908 C1881 0.931 . S
H1909 C1883 0.929 . S
H1910 C1884 0.930 . S
H1911 C1885 0.931 . S
H1912 C1892 0.932 . S
H1913 C1893 0.930 . S
H1914 C1894 0.929 . S
H1915 C1896 0.930 . S
H1916 C1898 0.932 . S
H1917 C1899 0.929 . S
H1918 C1900 0.928 . S
H1919 C1902 0.932 . S
C1920 C1921 1.386 . S
C1920 C1922 1.397 . S
C1920 H1944 0.931 . S
C1921 C1920 1.386 . S
C1921 C1925 1.397 . S
C1922 C1920 1.397 . S
C1922 C1923 1.384 . S
C1922 H1945 0.930 . S
C1923 C1922 1.384 . S
C1923 C1924 1.377 . S
C1923 C1926 1.481 . S
C1924 C1923 1.377 . S
C1924 C1925 1.389 . S
C1924 H1946 0.929 . S
C1925 C1921 1.397 . S
C1925 C1924 1.389 . S
C1925 H1947 0.931 . S
C1926 C1923 1.481 . S
C1926 C1927 1.387 . S
C1926 C1931 1.390 . S
C1927 C1926 1.387 . S
C1927 C1928 1.401 . S
C1927 H1948 0.930 . S
C1928 C1927 1.401 . S
C1928 C1929 1.376 . S
C1928 C1937 1.511 . S
C1929 C1928 1.376 . S
C1929 C1930 1.392 . S
C1929 H1950 0.931 . S
C1930 C1929 1.392 . S
C1930 C1931 1.361 . S
C1930 C1932 1.500 . S
C1931 C1926 1.390 . S
C1931 C1930 1.361 . S
C1931 H1949 0.931 . S
C1932 C1930 1.500 . S
C1932 C1933 1.371 . S
C1932 C1934 1.365 . S
C1933 C1932 1.371 . S
C1933 C1943 1.386 . S
C1933 H1951 0.931 . S
C1934 C1932 1.365 . S
C1934 C1935 1.409 . S
C1934 H1952 0.929 . S
C1935 C1934 1.409 . S
C1935 C1936 1.380 . S
C1935 H1953 0.930 . S
C1936 C1935 1.380 . S
C1936 C1943 1.357 . S
C1937 C1928 1.511 . S
C1937 C1938 1.341 . S
C1937 C1939 1.371 . S
C1938 C1937 1.341 . S
C1938 C1942 1.394 . S
C1938 H1954 0.930 . S
C1939 C1937 1.371 . S
C1939 C1940 1.392 . S
C1939 H1955 0.931 . S
C1940 C1939 1.392 . S
C1940 C1941 1.331 . S
C1940 H1958 0.932 . S
C1941 C1940 1.331 . S
C1941 C1942 1.336 . S
C1942 C1938 1.394 . S
C1942 C1941 1.336 . S
C1942 H1957 0.929 . S
C1943 C1933 1.386 . S
C1943 C1936 1.357 . S
C1943 H1956 0.928 . S
H1944 C1920 0.931 . S
H1945 C1922 0.930 . S
H1946 C1924 0.929 . S
H1947 C1925 0.931 . S
H1948 C1927 0.930 . S
H1949 C1931 0.931 . S
H1950 C1929 0.931 . S
H1951 C1933 0.931 . S
H1952 C1934 0.929 . S
H1953 C1935 0.930 . S
H1954 C1938 0.930 . S
H1955 C1939 0.931 . S
H1956 C1943 0.928 . S
H1957 C1942 0.929 . S
H1958 C1940 0.932 . S
C1959 C1960 1.386 . S
C1959 C1961 1.397 . S
C1959 H1983 0.931 . S
C1960 C1959 1.386 . S
C1960 C1964 1.397 . S
C1961 C1959 1.397 . S
C1961 C1962 1.384 . S
C1961 H1984 0.930 . S
C1962 C1961 1.384 . S
C1962 C1963 1.377 . S
C1962 C1965 1.481 . S
C1963 C1962 1.377 . S
C1963 C1964 1.389 . S
C1963 H1985 0.929 . S
C1964 C1960 1.397 . S
C1964 C1963 1.389 . S
C1964 H1986 0.931 . S
C1965 C1962 1.481 . S
C1965 C1966 1.387 . S
C1965 C1970 1.390 . S
C1966 C1965 1.387 . S
C1966 C1967 1.401 . S
C1966 H1987 0.930 . S
C1967 C1966 1.401 . S
C1967 C1968 1.376 . S
C1967 C1976 1.511 . S
C1968 C1967 1.376 . S
C1968 C1969 1.392 . S
C1968 H1989 0.931 . S
C1969 C1968 1.392 . S
C1969 C1970 1.361 . S
C1969 C1971 1.500 . S
C1970 C1965 1.390 . S
C1970 C1969 1.361 . S
C1970 H1988 0.931 . S
C1971 C1969 1.500 . S
C1971 C1972 1.371 . S
C1971 C1973 1.365 . S
C1972 C1971 1.371 . S
C1972 C1982 1.386 . S
C1972 H1990 0.931 . S
C1973 C1971 1.365 . S
C1973 C1974 1.409 . S
C1973 H1991 0.929 . S
C1974 C1973 1.409 . S
C1974 C1975 1.380 . S
C1974 H1992 0.930 . S
C1975 C1974 1.380 . S
C1975 C1982 1.357 . S
C1976 C1967 1.511 . S
C1976 C1977 1.341 . S
C1976 C1978 1.371 . S
C1977 C1976 1.341 . S
C1977 C1981 1.394 . S
C1977 H1993 0.930 . S
C1978 C1976 1.371 . S
C1978 C1979 1.392 . S
C1978 H1994 0.931 . S
C1979 C1978 1.392 . S
C1979 C1980 1.331 . S
C1979 H1997 0.932 . S
C1980 C1979 1.331 . S
C1980 C1981 1.336 . S
C1981 C1977 1.394 . S
C1981 C1980 1.336 . S
C1981 H1996 0.929 . S
C1982 C1972 1.386 . S
C1982 C1975 1.357 . S
C1982 H1995 0.928 . S
H1983 C1959 0.931 . S
H1984 C1961 0.930 . S
H1985 C1963 0.929 . S
H1986 C1964 0.931 . S
H1987 C1966 0.930 . S
H1988 C1970 0.931 . S
H1989 C1968 0.931 . S
H1990 C1972 0.931 . S
H1991 C1973 0.929 . S
H1992 C1974 0.930 . S
H1993 C1977 0.930 . S
H1994 C1978 0.931 . S
H1995 C1982 0.928 . S
H1996 C1981 0.929 . S
H1997 C1979 0.932 . S
C1998 C1999 1.386 . S
C1998 C2000 1.397 . S
C1998 H2022 0.931 . S
C1999 C1998 1.386 . S
C1999 C2003 1.397 . S
C2000 C1998 1.397 . S
C2000 C2001 1.384 . S
C2000 H2023 0.930 . S
C2001 C2000 1.384 . S
C2001 C2002 1.377 . S
C2001 C2004 1.481 . S
C2002 C2001 1.377 . S
C2002 C2003 1.389 . S
C2002 H2024 0.929 . S
C2003 C1999 1.397 . S
C2003 C2002 1.389 . S
C2003 H2025 0.931 . S
C2004 C2001 1.481 . S
C2004 C2005 1.387 . S
C2004 C2009 1.390 . S
C2005 C2004 1.387 . S
C2005 C2006 1.401 . S
C2005 H2026 0.930 . S
C2006 C2005 1.401 . S
C2006 C2007 1.376 . S
C2006 C2015 1.511 . S
C2007 C2006 1.376 . S
C2007 C2008 1.392 . S
C2007 H2028 0.931 . S
C2008 C2007 1.392 . S
C2008 C2009 1.361 . S
C2008 C2010 1.500 . S
C2009 C2004 1.390 . S
C2009 C2008 1.361 . S
C2009 H2027 0.931 . S
C2010 C2008 1.500 . S
C2010 C2011 1.371 . S
C2010 C2012 1.365 . S
C2011 C2010 1.371 . S
C2011 C2021 1.386 . S
C2011 H2029 0.931 . S
C2012 C2010 1.365 . S
C2012 C2013 1.409 . S
C2012 H2030 0.929 . S
C2013 C2012 1.409 . S
C2013 C2014 1.380 . S
C2013 H2031 0.930 . S
C2014 C2013 1.380 . S
C2014 C2021 1.357 . S
C2015 C2006 1.511 . S
C2015 C2016 1.341 . S
C2015 C2017 1.371 . S
C2016 C2015 1.341 . S
C2016 C2020 1.394 . S
C2016 H2032 0.930 . S
C2017 C2015 1.371 . S
C2017 C2018 1.392 . S
C2017 H2033 0.931 . S
C2018 C2017 1.392 . S
C2018 C2019 1.331 . S
C2018 H2036 0.932 . S
C2019 C2018 1.331 . S
C2019 C2020 1.336 . S
C2020 C2016 1.394 . S
C2020 C2019 1.336 . S
C2020 H2035 0.929 . S
C2021 C2011 1.386 . S
C2021 C2014 1.357 . S
C2021 H2034 0.928 . S
H2022 C1998 0.931 . S
H2023 C2000 0.930 . S
H2024 C2002 0.929 . S
H2025 C2003 0.931 . S
H2026 C2005 0.930 . S
H2027 C2009 0.931 . S
H2028 C2007 0.931 . S
H2029 C2011 0.931 . S
H2030 C2012 0.929 . S
H2031 C2013 0.930 . S
H2032 C2016 0.930 . S
H2033 C2017 0.931 . S
H2034 C2021 0.928 . S
H2035 C2020 0.929 . S
H2036 C2018 0.932 . S
C2037 C2038 1.386 . S
C2037 C2039 1.397 . S
C2037 H2061 0.931 . S
C2038 C2037 1.386 . S
C2038 C2042 1.397 . S
C2039 C2037 1.397 . S
C2039 C2040 1.384 . S
C2039 H2062 0.930 . S
C2040 C2039 1.384 . S
C2040 C2041 1.377 . S
C2040 C2043 1.481 . S
C2041 C2040 1.377 . S
C2041 C2042 1.389 . S
C2041 H2063 0.929 . S
C2042 C2038 1.397 . S
C2042 C2041 1.389 . S
C2042 H2064 0.931 . S
C2043 C2040 1.481 . S
C2043 C2044 1.387 . S
C2043 C2048 1.390 . S
C2044 C2043 1.387 . S
C2044 C2045 1.401 . S
C2044 H2065 0.930 . S
C2045 C2044 1.401 . S
C2045 C2046 1.376 . S
C2045 C2054 1.511 . S
C2046 C2045 1.376 . S
C2046 C2047 1.392 . S
C2046 H2067 0.931 . S
C2047 C2046 1.392 . S
C2047 C2048 1.361 . S
C2047 C2049 1.500 . S
C2048 C2043 1.390 . S
C2048 C2047 1.361 . S
C2048 H2066 0.931 . S
C2049 C2047 1.500 . S
C2049 C2050 1.371 . S
C2049 C2051 1.365 . S
C2050 C2049 1.371 . S
C2050 C2060 1.386 . S
C2050 H2068 0.931 . S
C2051 C2049 1.365 . S
C2051 C2052 1.409 . S
C2051 H2069 0.929 . S
C2052 C2051 1.409 . S
C2052 C2053 1.380 . S
C2052 H2070 0.930 . S
C2053 C2052 1.380 . S
C2053 C2060 1.357 . S
C2054 C2045 1.511 . S
C2054 C2055 1.341 . S
C2054 C2056 1.371 . S
C2055 C2054 1.341 . S
C2055 C2059 1.394 . S
C2055 H2071 0.930 . S
C2056 C2054 1.371 . S
C2056 C2057 1.392 . S
C2056 H2072 0.931 . S
C2057 C2056 1.392 . S
C2057 C2058 1.331 . S
C2057 H2075 0.932 . S
C2058 C2057 1.331 . S
C2058 C2059 1.336 . S
C2059 C2055 1.394 . S
C2059 C2058 1.336 . S
C2059 H2074 0.929 . S
C2060 C2050 1.386 . S
C2060 C2053 1.357 . S
C2060 H2073 0.928 . S
H2061 C2037 0.931 . S
H2062 C2039 0.930 . S
H2063 C2041 0.929 . S
H2064 C2042 0.931 . S
H2065 C2044 0.930 . S
H2066 C2048 0.931 . S
H2067 C2046 0.931 . S
H2068 C2050 0.931 . S
H2069 C2051 0.929 . S
H2070 C2052 0.930 . S
H2071 C2055 0.930 . S
H2072 C2056 0.931 . S
H2073 C2060 0.928 . S
H2074 C2059 0.929 . S
H2075 C2057 0.932 . S
C2076 C2077 1.386 . S
C2076 C2078 1.397 . S
C2076 H2100 0.931 . S
C2077 C2076 1.386 . S
C2077 C2081 1.397 . S
C2078 C2076 1.397 . S
C2078 C2079 1.384 . S
C2078 H2101 0.930 . S
C2079 C2078 1.384 . S
C2079 C2080 1.377 . S
C2079 C2082 1.481 . S
C2080 C2079 1.377 . S
C2080 C2081 1.389 . S
C2080 H2102 0.929 . S
C2081 C2077 1.397 . S
C2081 C2080 1.389 . S
C2081 H2103 0.931 . S
C2082 C2079 1.481 . S
C2082 C2083 1.387 . S
C2082 C2087 1.390 . S
C2083 C2082 1.387 . S
C2083 C2084 1.401 . S
C2083 H2104 0.930 . S
C2084 C2083 1.401 . S
C2084 C2085 1.376 . S
C2084 C2093 1.511 . S
C2085 C2084 1.376 . S
C2085 C2086 1.392 . S
C2085 H2106 0.931 . S
C2086 C2085 1.392 . S
C2086 C2087 1.361 . S
C2086 C2088 1.500 . S
C2087 C2082 1.390 . S
C2087 C2086 1.361 . S
C2087 H2105 0.931 . S
C2088 C2086 1.500 . S
C2088 C2089 1.371 . S
C2088 C2090 1.365 . S
C2089 C2088 1.371 . S
C2089 C2099 1.386 . S
C2089 H2107 0.931 . S
C2090 C2088 1.365 . S
C2090 C2091 1.409 . S
C2090 H2108 0.929 . S
C2091 C2090 1.409 . S
C2091 C2092 1.380 . S
C2091 H2109 0.930 . S
C2092 C2091 1.380 . S
C2092 C2099 1.357 . S
C2093 C2084 1.511 . S
C2093 C2094 1.341 . S
C2093 C2095 1.371 . S
C2094 C2093 1.341 . S
C2094 C2098 1.394 . S
C2094 H2110 0.930 . S
C2095 C2093 1.371 . S
C2095 C2096 1.392 . S
C2095 H2111 0.931 . S
C2096 C2095 1.392 . S
C2096 C2097 1.331 . S
C2096 H2114 0.932 . S
C2097 C2096 1.331 . S
C2097 C2098 1.336 . S
C2098 C2094 1.394 . S
C2098 C2097 1.336 . S
C2098 H2113 0.929 . S
C2099 C2089 1.386 . S
C2099 C2092 1.357 . S
C2099 H2112 0.928 . S
H2100 C2076 0.931 . S
H2101 C2078 0.930 . S
H2102 C2080 0.929 . S
H2103 C2081 0.931 . S
H2104 C2083 0.930 . S
H2105 C2087 0.931 . S
H2106 C2085 0.931 . S
H2107 C2089 0.931 . S
H2108 C2090 0.929 . S
H2109 C2091 0.930 . S
H2110 C2094 0.930 . S
H2111 C2095 0.931 . S
H2112 C2099 0.928 . S
H2113 C2098 0.929 . S
H2114 C2096 0.932 . S
C2115 C2116 1.386 . S
C2115 C2117 1.397 . S
C2115 H2139 0.931 . S
C2116 C2115 1.386 . S
C2116 C2120 1.397 . S
C2117 C2115 1.397 . S
C2117 C2118 1.384 . S
C2117 H2140 0.930 . S
C2118 C2117 1.384 . S
C2118 C2119 1.377 . S
C2118 C2121 1.481 . S
C2119 C2118 1.377 . S
C2119 C2120 1.389 . S
C2119 H2141 0.929 . S
C2120 C2116 1.397 . S
C2120 C2119 1.389 . S
C2120 H2142 0.931 . S
C2121 C2118 1.481 . S
C2121 C2122 1.387 . S
C2121 C2126 1.390 . S
C2122 C2121 1.387 . S
C2122 C2123 1.401 . S
C2122 H2143 0.930 . S
C2123 C2122 1.401 . S
C2123 C2124 1.376 . S
C2123 C2132 1.511 . S
C2124 C2123 1.376 . S
C2124 C2125 1.392 . S
C2124 H2145 0.931 . S
C2125 C2124 1.392 . S
C2125 C2126 1.361 . S
C2125 C2127 1.500 . S
C2126 C2121 1.390 . S
C2126 C2125 1.361 . S
C2126 H2144 0.931 . S
C2127 C2125 1.500 . S
C2127 C2128 1.371 . S
C2127 C2129 1.365 . S
C2128 C2127 1.371 . S
C2128 C2138 1.386 . S
C2128 H2146 0.931 . S
C2129 C2127 1.365 . S
C2129 C2130 1.409 . S
C2129 H2147 0.929 . S
C2130 C2129 1.409 . S
C2130 C2131 1.380 . S
C2130 H2148 0.930 . S
C2131 C2130 1.380 . S
C2131 C2138 1.357 . S
C2132 C2123 1.511 . S
C2132 C2133 1.341 . S
C2132 C2134 1.371 . S
C2133 C2132 1.341 . S
C2133 C2137 1.394 . S
C2133 H2149 0.930 . S
C2134 C2132 1.371 . S
C2134 C2135 1.392 . S
C2134 H2150 0.931 . S
C2135 C2134 1.392 . S
C2135 C2136 1.331 . S
C2135 H2153 0.932 . S
C2136 C2135 1.331 . S
C2136 C2137 1.336 . S
C2137 C2133 1.394 . S
C2137 C2136 1.336 . S
C2137 H2152 0.929 . S
C2138 C2128 1.386 . S
C2138 C2131 1.357 . S
C2138 H2151 0.928 . S
H2139 C2115 0.931 . S
H2140 C2117 0.930 . S
H2141 C2119 0.929 . S
H2142 C2120 0.931 . S
H2143 C2122 0.930 . S
H2144 C2126 0.931 . S
H2145 C2124 0.931 . S
H2146 C2128 0.931 . S
H2147 C2129 0.929 . S
H2148 C2130 0.930 . S
H2149 C2133 0.930 . S
H2150 C2134 0.931 . S
H2151 C2138 0.928 . S
H2152 C2137 0.929 . S
H2153 C2135 0.932 . S
C2154 C2155 1.386 . S
C2154 C2156 1.397 . S
C2154 H2178 0.931 . S
C2155 C2154 1.386 . S
C2155 C2159 1.397 . S
C2156 C2154 1.397 . S
C2156 C2157 1.384 . S
C2156 H2179 0.930 . S
C2157 C2156 1.384 . S
C2157 C2158 1.377 . S
C2157 C2160 1.481 . S
C2158 C2157 1.377 . S
C2158 C2159 1.389 . S
C2158 H2180 0.929 . S
C2159 C2155 1.397 . S
C2159 C2158 1.389 . S
C2159 H2181 0.931 . S
C2160 C2157 1.481 . S
C2160 C2161 1.387 . S
C2160 C2165 1.390 . S
C2161 C2160 1.387 . S
C2161 C2162 1.401 . S
C2161 H2182 0.930 . S
C2162 C2161 1.401 . S
C2162 C2163 1.376 . S
C2162 C2171 1.511 . S
C2163 C2162 1.376 . S
C2163 C2164 1.392 . S
C2163 H2184 0.931 . S
C2164 C2163 1.392 . S
C2164 C2165 1.361 . S
C2164 C2166 1.500 . S
C2165 C2160 1.390 . S
C2165 C2164 1.361 . S
C2165 H2183 0.931 . S
C2166 C2164 1.500 . S
C2166 C2167 1.371 . S
C2166 C2168 1.365 . S
C2167 C2166 1.371 . S
C2167 C2177 1.386 . S
C2167 H2185 0.931 . S
C2168 C2166 1.365 . S
C2168 C2169 1.409 . S
C2168 H2186 0.929 . S
C2169 C2168 1.409 . S
C2169 C2170 1.380 . S
C2169 H2187 0.930 . S
C2170 C2169 1.380 . S
C2170 C2177 1.357 . S
C2171 C2162 1.511 . S
C2171 C2172 1.341 . S
C2171 C2173 1.371 . S
C2172 C2171 1.341 . S
C2172 C2176 1.394 . S
C2172 H2188 0.930 . S
C2173 C2171 1.371 . S
C2173 C2174 1.392 . S
C2173 H2189 0.931 . S
C2174 C2173 1.392 . S
C2174 C2175 1.331 . S
C2174 H2192 0.932 . S
C2175 C2174 1.331 . S
C2175 C2176 1.336 . S
C2176 C2172 1.394 . S
C2176 C2175 1.336 . S
C2176 H2191 0.929 . S
C2177 C2167 1.386 . S
C2177 C2170 1.357 . S
C2177 H2190 0.928 . S
H2178 C2154 0.931 . S
H2179 C2156 0.930 . S
H2180 C2158 0.929 . S
H2181 C2159 0.931 . S
H2182 C2161 0.930 . S
H2183 C2165 0.931 . S
H2184 C2163 0.931 . S
H2185 C2167 0.931 . S
H2186 C2168 0.929 . S
H2187 C2169 0.930 . S
H2188 C2172 0.930 . S
H2189 C2173 0.931 . S
H2190 C2177 0.928 . S
H2191 C2176 0.929 . S
H2192 C2174 0.932 . S
C2193 C2194 1.386 . S
C2193 C2195 1.397 . S
C2193 H2217 0.931 . S
C2194 C2193 1.386 . S
C2194 C2198 1.397 . S
C2195 C2193 1.397 . S
C2195 C2196 1.384 . S
C2195 H2218 0.930 . S
C2196 C2195 1.384 . S
C2196 C2197 1.377 . S
C2196 C2199 1.481 . S
C2197 C2196 1.377 . S
C2197 C2198 1.389 . S
C2197 H2219 0.929 . S
C2198 C2194 1.397 . S
C2198 C2197 1.389 . S
C2198 H2220 0.931 . S
C2199 C2196 1.481 . S
C2199 C2200 1.387 . S
C2199 C2204 1.390 . S
C2200 C2199 1.387 . S
C2200 C2201 1.401 . S
C2200 H2221 0.930 . S
C2201 C2200 1.401 . S
C2201 C2202 1.376 . S
C2201 C2210 1.511 . S
C2202 C2201 1.376 . S
C2202 C2203 1.392 . S
C2202 H2223 0.931 . S
C2203 C2202 1.392 . S
C2203 C2204 1.361 . S
C2203 C2205 1.500 . S
C2204 C2199 1.390 . S
C2204 C2203 1.361 . S
C2204 H2222 0.931 . S
C2205 C2203 1.500 . S
C2205 C2206 1.371 . S
C2205 C2207 1.365 . S
C2206 C2205 1.371 . S
C2206 C2216 1.386 . S
C2206 H2224 0.931 . S
C2207 C2205 1.365 . S
C2207 C2208 1.409 . S
C2207 H2225 0.929 . S
C2208 C2207 1.409 . S
C2208 C2209 1.380 . S
C2208 H2226 0.930 . S
C2209 C2208 1.380 . S
C2209 C2216 1.357 . S
C2210 C2201 1.511 . S
C2210 C2211 1.341 . S
C2210 C2212 1.371 . S
C2211 C2210 1.341 . S
C2211 C2215 1.394 . S
C2211 H2227 0.930 . S
C2212 C2210 1.371 . S
C2212 C2213 1.392 . S
C2212 H2228 0.931 . S
C2213 C2212 1.392 . S
C2213 C2214 1.331 . S
C2213 H2231 0.932 . S
C2214 C2213 1.331 . S
C2214 C2215 1.336 . S
C2215 C2211 1.394 . S
C2215 C2214 1.336 . S
C2215 H2230 0.929 . S
C2216 C2206 1.386 . S
C2216 C2209 1.357 . S
C2216 H2229 0.928 . S
H2217 C2193 0.931 . S
H2218 C2195 0.930 . S
H2219 C2197 0.929 . S
H2220 C2198 0.931 . S
H2221 C2200 0.930 . S
H2222 C2204 0.931 . S
H2223 C2202 0.931 . S
H2224 C2206 0.931 . S
H2225 C2207 0.929 . S
H2226 C2208 0.930 . S
H2227 C2211 0.930 . S
H2228 C2212 0.931 . S
H2229 C2216 0.928 . S
H2230 C2215 0.929 . S
H2231 C2213 0.932 . S
C2232 C2233 1.386 . S
C2232 C2234 1.397 . S
C2232 H2256 0.931 . S
C2233 C2232 1.386 . S
C2233 C2237 1.397 . S
C2234 C2232 1.397 . S
C2234 C2235 1.384 . S
C2234 H2257 0.930 . S
C2235 C2234 1.384 . S
C2235 C2236 1.377 . S
C2235 C2238 1.481 . S
C2236 C2235 1.377 . S
C2236 C2237 1.389 . S
C2236 H2258 0.929 . S
C2237 C2233 1.397 . S
C2237 C2236 1.389 . S
C2237 H2259 0.931 . S
C2238 C2235 1.481 . S
C2238 C2239 1.387 . S
C2238 C2243 1.390 . S
C2239 C2238 1.387 . S
C2239 C2240 1.401 . S
C2239 H2260 0.930 . S
C2240 C2239 1.401 . S
C2240 C2241 1.376 . S
C2240 C2249 1.511 . S
C2241 C2240 1.376 . S
C2241 C2242 1.392 . S
C2241 H2262 0.931 . S
C2242 C2241 1.392 . S
C2242 C2243 1.361 . S
C2242 C2244 1.500 . S
C2243 C2238 1.390 . S
C2243 C2242 1.361 . S
C2243 H2261 0.931 . S
C2244 C2242 1.500 . S
C2244 C2245 1.371 . S
C2244 C2246 1.365 . S
C2245 C2244 1.371 . S
C2245 C2255 1.386 . S
C2245 H2263 0.931 . S
C2246 C2244 1.365 . S
C2246 C2247 1.409 . S
C2246 H2264 0.929 . S
C2247 C2246 1.409 . S
C2247 C2248 1.380 . S
C2247 H2265 0.930 . S
C2248 C2247 1.380 . S
C2248 C2255 1.357 . S
C2249 C2240 1.511 . S
C2249 C2250 1.341 . S
C2249 C2251 1.371 . S
C2250 C2249 1.341 . S
C2250 C2254 1.394 . S
C2250 H2266 0.930 . S
C2251 C2249 1.371 . S
C2251 C2252 1.392 . S
C2251 H2267 0.931 . S
C2252 C2251 1.392 . S
C2252 C2253 1.331 . S
C2252 H2270 0.932 . S
C2253 C2252 1.331 . S
C2253 C2254 1.336 . S
C2254 C2250 1.394 . S
C2254 C2253 1.336 . S
C2254 H2269 0.929 . S
C2255 C2245 1.386 . S
C2255 C2248 1.357 . S
C2255 H2268 0.928 . S
H2256 C2232 0.931 . S
H2257 C2234 0.930 . S
H2258 C2236 0.929 . S
H2259 C2237 0.931 . S
H2260 C2239 0.930 . S
H2261 C2243 0.931 . S
H2262 C2241 0.931 . S
H2263 C2245 0.931 . S
H2264 C2246 0.929 . S
H2265 C2247 0.930 . S
H2266 C2250 0.930 . S
H2267 C2251 0.931 . S
H2268 C2255 0.928 . S
H2269 C2254 0.929 . S
H2270 C2252 0.932 . S
C2271 C2272 1.386 . S
C2271 C2273 1.397 . S
C2271 H2295 0.931 . S
C2272 C2271 1.386 . S
C2272 C2276 1.397 . S
C2273 C2271 1.397 . S
C2273 C2274 1.384 . S
C2273 H2296 0.930 . S
C2274 C2273 1.384 . S
C2274 C2275 1.377 . S
C2274 C2277 1.481 . S
C2275 C2274 1.377 . S
C2275 C2276 1.389 . S
C2275 H2297 0.929 . S
C2276 C2272 1.397 . S
C2276 C2275 1.389 . S
C2276 H2298 0.931 . S
C2277 C2274 1.481 . S
C2277 C2278 1.387 . S
C2277 C2282 1.390 . S
C2278 C2277 1.387 . S
C2278 C2279 1.401 . S
C2278 H2299 0.930 . S
C2279 C2278 1.401 . S
C2279 C2280 1.376 . S
C2279 C2288 1.511 . S
C2280 C2279 1.376 . S
C2280 C2281 1.392 . S
C2280 H2301 0.931 . S
C2281 C2280 1.392 . S
C2281 C2282 1.361 . S
C2281 C2283 1.500 . S
C2282 C2277 1.390 . S
C2282 C2281 1.361 . S
C2282 H2300 0.931 . S
C2283 C2281 1.500 . S
C2283 C2284 1.371 . S
C2283 C2285 1.365 . S
C2284 C2283 1.371 . S
C2284 C2294 1.386 . S
C2284 H2302 0.931 . S
C2285 C2283 1.365 . S
C2285 C2286 1.409 . S
C2285 H2303 0.929 . S
C2286 C2285 1.409 . S
C2286 C2287 1.380 . S
C2286 H2304 0.930 . S
C2287 C2286 1.380 . S
C2287 C2294 1.357 . S
C2288 C2279 1.511 . S
C2288 C2289 1.341 . S
C2288 C2290 1.371 . S
C2289 C2288 1.341 . S
C2289 C2293 1.394 . S
C2289 H2305 0.930 . S
C2290 C2288 1.371 . S
C2290 C2291 1.392 . S
C2290 H2306 0.931 . S
C2291 C2290 1.392 . S
C2291 C2292 1.331 . S
C2291 H2309 0.932 . S
C2292 C2291 1.331 . S
C2292 C2293 1.336 . S
C2293 C2289 1.394 . S
C2293 C2292 1.336 . S
C2293 H2308 0.929 . S
C2294 C2284 1.386 . S
C2294 C2287 1.357 . S
C2294 H2307 0.928 . S
H2295 C2271 0.931 . S
H2296 C2273 0.930 . S
H2297 C2275 0.929 . S
H2298 C2276 0.931 . S
H2299 C2278 0.930 . S
H2300 C2282 0.931 . S
H2301 C2280 0.931 . S
H2302 C2284 0.931 . S
H2303 C2285 0.929 . S
H2304 C2286 0.930 . S
H2305 C2289 0.930 . S
H2306 C2290 0.931 . S
H2307 C2294 0.928 . S
H2308 C2293 0.929 . S
H2309 C2291 0.932 . S
C2310 C2311 1.386 . S
C2310 C2312 1.397 . S
C2310 H2334 0.931 . S
C2311 C2310 1.386 . S
C2311 C2315 1.397 . S
C2312 C2310 1.397 . S
C2312 C2313 1.384 . S
C2312 H2335 0.930 . S
C2313 C2312 1.384 . S
C2313 C2314 1.377 . S
C2313 C2316 1.481 . S
C2314 C2313 1.377 . S
C2314 C2315 1.389 . S
C2314 H2336 0.929 . S
C2315 C2311 1.397 . S
C2315 C2314 1.389 . S
C2315 H2337 0.931 . S
C2316 C2313 1.481 . S
C2316 C2317 1.387 . S
C2316 C2321 1.390 . S
C2317 C2316 1.387 . S
C2317 C2318 1.401 . S
C2317 H2338 0.930 . S
C2318 C2317 1.401 . S
C2318 C2319 1.376 . S
C2318 C2327 1.511 . S
C2319 C2318 1.376 . S
C2319 C2320 1.392 . S
C2319 H2340 0.931 . S
C2320 C2319 1.392 . S
C2320 C2321 1.361 . S
C2320 C2322 1.500 . S
C2321 C2316 1.390 . S
C2321 C2320 1.361 . S
C2321 H2339 0.931 . S
C2322 C2320 1.500 . S
C2322 C2323 1.371 . S
C2322 C2324 1.365 . S
C2323 C2322 1.371 . S
C2323 C2333 1.386 . S
C2323 H2341 0.931 . S
C2324 C2322 1.365 . S
C2324 C2325 1.409 . S
C2324 H2342 0.929 . S
C2325 C2324 1.409 . S
C2325 C2326 1.380 . S
C2325 H2343 0.930 . S
C2326 C2325 1.380 . S
C2326 C2333 1.357 . S
C2327 C2318 1.511 . S
C2327 C2328 1.341 . S
C2327 C2329 1.371 . S
C2328 C2327 1.341 . S
C2328 C2332 1.394 . S
C2328 H2344 0.930 . S
C2329 C2327 1.371 . S
C2329 C2330 1.392 . S
C2329 H2345 0.931 . S
C2330 C2329 1.392 . S
C2330 C2331 1.331 . S
C2330 H2348 0.932 . S
C2331 C2330 1.331 . S
C2331 C2332 1.336 . S
C2332 C2328 1.394 . S
C2332 C2331 1.336 . S
C2332 H2347 0.929 . S
C2333 C2323 1.386 . S
C2333 C2326 1.357 . S
C2333 H2346 0.928 . S
H2334 C2310 0.931 . S
H2335 C2312 0.930 . S
H2336 C2314 0.929 . S
H2337 C2315 0.931 . S
H2338 C2317 0.930 . S
H2339 C2321 0.931 . S
H2340 C2319 0.931 . S
H2341 C2323 0.931 . S
H2342 C2324 0.929 . S
H2343 C2325 0.930 . S
H2344 C2328 0.930 . S
H2345 C2329 0.931 . S
H2346 C2333 0.928 . S
H2347 C2332 0.929 . S
H2348 C2330 0.932 . S
C2349 C2350 1.386 . S
C2349 C2351 1.397 . S
C2349 H2373 0.931 . S
C2350 C2349 1.386 . S
C2350 C2354 1.397 . S
C2351 C2349 1.397 . S
C2351 C2352 1.384 . S
C2351 H2374 0.930 . S
C2352 C2351 1.384 . S
C2352 C2353 1.377 . S
C2352 C2355 1.481 . S
C2353 C2352 1.377 . S
C2353 C2354 1.389 . S
C2353 H2375 0.929 . S
C2354 C2350 1.397 . S
C2354 C2353 1.389 . S
C2354 H2376 0.931 . S
C2355 C2352 1.481 . S
C2355 C2356 1.387 . S
C2355 C2360 1.390 . S
C2356 C2355 1.387 . S
C2356 C2357 1.401 . S
C2356 H2377 0.930 . S
C2357 C2356 1.401 . S
C2357 C2358 1.376 . S
C2357 C2366 1.511 . S
C2358 C2357 1.376 . S
C2358 C2359 1.392 . S
C2358 H2379 0.931 . S
C2359 C2358 1.392 . S
C2359 C2360 1.361 . S
C2359 C2361 1.500 . S
C2360 C2355 1.390 . S
C2360 C2359 1.361 . S
C2360 H2378 0.931 . S
C2361 C2359 1.500 . S
C2361 C2362 1.371 . S
C2361 C2363 1.365 . S
C2362 C2361 1.371 . S
C2362 C2372 1.386 . S
C2362 H2380 0.931 . S
C2363 C2361 1.365 . S
C2363 C2364 1.409 . S
C2363 H2381 0.929 . S
C2364 C2363 1.409 . S
C2364 C2365 1.380 . S
C2364 H2382 0.930 . S
C2365 C2364 1.380 . S
C2365 C2372 1.357 . S
C2366 C2357 1.511 . S
C2366 C2367 1.341 . S
C2366 C2368 1.371 . S
C2367 C2366 1.341 . S
C2367 C2371 1.394 . S
C2367 H2383 0.930 . S
C2368 C2366 1.371 . S
C2368 C2369 1.392 . S
C2368 H2384 0.931 . S
C2369 C2368 1.392 . S
C2369 C2370 1.331 . S
C2369 H2387 0.932 . S
C2370 C2369 1.331 . S
C2370 C2371 1.336 . S
C2371 C2367 1.394 . S
C2371 C2370 1.336 . S
C2371 H2386 0.929 . S
C2372 C2362 1.386 . S
C2372 C2365 1.357 . S
C2372 H2385 0.928 . S
H2373 C2349 0.931 . S
H2374 C2351 0.930 . S
H2375 C2353 0.929 . S
H2376 C2354 0.931 . S
H2377 C2356 0.930 . S
H2378 C2360 0.931 . S
H2379 C2358 0.931 . S
H2380 C2362 0.931 . S
H2381 C2363 0.929 . S
H2382 C2364 0.930 . S
H2383 C2367 0.930 . S
H2384 C2368 0.931 . S
H2385 C2372 0.928 . S
H2386 C2371 0.929 . S
H2387 C2369 0.932 . S
C2388 C2389 1.386 . S
C2388 C2390 1.397 . S
C2388 H2412 0.931 . S
C2389 C2388 1.386 . S
C2389 C2393 1.397 . S
C2390 C2388 1.397 . S
C2390 C2391 1.384 . S
C2390 H2413 0.930 . S
C2391 C2390 1.384 . S
C2391 C2392 1.377 . S
C2391 C2394 1.481 . S
C2392 C2391 1.377 . S
C2392 C2393 1.389 . S
C2392 H2414 0.929 . S
C2393 C2389 1.397 . S
C2393 C2392 1.389 . S
C2393 H2415 0.931 . S
C2394 C2391 1.481 . S
C2394 C2395 1.387 . S
C2394 C2399 1.390 . S
C2395 C2394 1.387 . S
C2395 C2396 1.401 . S
C2395 H2416 0.930 . S
C2396 C2395 1.401 . S
C2396 C2397 1.376 . S
C2396 C2405 1.511 . S
C2397 C2396 1.376 . S
C2397 C2398 1.392 . S
C2397 H2418 0.931 . S
C2398 C2397 1.392 . S
C2398 C2399 1.361 . S
C2398 C2400 1.500 . S
C2399 C2394 1.390 . S
C2399 C2398 1.361 . S
C2399 H2417 0.931 . S
C2400 C2398 1.500 . S
C2400 C2401 1.371 . S
C2400 C2402 1.365 . S
C2401 C2400 1.371 . S
C2401 C2411 1.386 . S
C2401 H2419 0.931 . S
C2402 C2400 1.365 . S
C2402 C2403 1.409 . S
C2402 H2420 0.929 . S
C2403 C2402 1.409 . S
C2403 C2404 1.380 . S
C2403 H2421 0.930 . S
C2404 C2403 1.380 . S
C2404 C2411 1.357 . S
C2405 C2396 1.511 . S
C2405 C2406 1.341 . S
C2405 C2407 1.371 . S
C2406 C2405 1.341 . S
C2406 C2410 1.394 . S
C2406 H2422 0.930 . S
C2407 C2405 1.371 . S
C2407 C2408 1.392 . S
C2407 H2423 0.931 . S
C2408 C2407 1.392 . S
C2408 C2409 1.331 . S
C2408 H2426 0.932 . S
C2409 C2408 1.331 . S
C2409 C2410 1.336 . S
C2410 C2406 1.394 . S
C2410 C2409 1.336 . S
C2410 H2425 0.929 . S
C2411 C2401 1.386 . S
C2411 C2404 1.357 . S
C2411 H2424 0.928 . S
H2412 C2388 0.931 . S
H2413 C2390 0.930 . S
H2414 C2392 0.929 . S
H2415 C2393 0.931 . S
H2416 C2395 0.930 . S
H2417 C2399 0.931 . S
H2418 C2397 0.931 . S
H2419 C2401 0.931 . S
H2420 C2402 0.929 . S
H2421 C2403 0.930 . S
H2422 C2406 0.930 . S
H2423 C2407 0.931 . S
H2424 C2411 0.928 . S
H2425 C2410 0.929 . S
H2426 C2408 0.932 . S
C2427 C2428 1.386 . S
C2427 C2429 1.397 . S
C2427 H2451 0.931 . S
C2428 C2427 1.386 . S
C2428 C2432 1.397 . S
C2429 C2427 1.397 . S
C2429 C2430 1.384 . S
C2429 H2452 0.930 . S
C2430 C2429 1.384 . S
C2430 C2431 1.377 . S
C2430 C2433 1.481 . S
C2431 C2430 1.377 . S
C2431 C2432 1.389 . S
C2431 H2453 0.929 . S
C2432 C2428 1.397 . S
C2432 C2431 1.389 . S
C2432 H2454 0.931 . S
C2433 C2430 1.481 . S
C2433 C2434 1.387 . S
C2433 C2438 1.390 . S
C2434 C2433 1.387 . S
C2434 C2435 1.401 . S
C2434 H2455 0.930 . S
C2435 C2434 1.401 . S
C2435 C2436 1.376 . S
C2435 C2444 1.511 . S
C2436 C2435 1.376 . S
C2436 C2437 1.392 . S
C2436 H2457 0.931 . S
C2437 C2436 1.392 . S
C2437 C2438 1.361 . S
C2437 C2439 1.500 . S
C2438 C2433 1.390 . S
C2438 C2437 1.361 . S
C2438 H2456 0.931 . S
C2439 C2437 1.500 . S
C2439 C2440 1.371 . S
C2439 C2441 1.365 . S
C2440 C2439 1.371 . S
C2440 C2450 1.386 . S
C2440 H2458 0.931 . S
C2441 C2439 1.365 . S
C2441 C2442 1.409 . S
C2441 H2459 0.929 . S
C2442 C2441 1.409 . S
C2442 C2443 1.380 . S
C2442 H2460 0.930 . S
C2443 C2442 1.380 . S
C2443 C2450 1.357 . S
C2444 C2435 1.511 . S
C2444 C2445 1.341 . S
C2444 C2446 1.371 . S
C2445 C2444 1.341 . S
C2445 C2449 1.394 . S
C2445 H2461 0.930 . S
C2446 C2444 1.371 . S
C2446 C2447 1.392 . S
C2446 H2462 0.931 . S
C2447 C2446 1.392 . S
C2447 C2448 1.331 . S
C2447 H2465 0.932 . S
C2448 C2447 1.331 . S
C2448 C2449 1.336 . S
C2449 C2445 1.394 . S
C2449 C2448 1.336 . S
C2449 H2464 0.929 . S
C2450 C2440 1.386 . S
C2450 C2443 1.357 . S
C2450 H2463 0.928 . S
H2451 C2427 0.931 . S
H2452 C2429 0.930 . S
H2453 C2431 0.929 . S
H2454 C2432 0.931 . S
H2455 C2434 0.930 . S
H2456 C2438 0.931 . S
H2457 C2436 0.931 . S
H2458 C2440 0.931 . S
H2459 C2441 0.929 . S
H2460 C2442 0.930 . S
H2461 C2445 0.930 . S
H2462 C2446 0.931 . S
H2463 C2450 0.928 . S
H2464 C2449 0.929 . S
H2465 C2447 0.932 . S
C2466 C2467 1.386 . S
C2466 C2468 1.397 . S
C2466 H2490 0.931 . S
C2467 C2466 1.386 . S
C2467 C2471 1.397 . S
C2468 C2466 1.397 . S
C2468 C2469 1.384 . S
C2468 H2491 0.930 . S
C2469 C2468 1.384 . S
C2469 C2470 1.377 . S
C2469 C2472 1.481 . S
C2470 C2469 1.377 . S
C2470 C2471 1.389 . S
C2470 H2492 0.929 . S
C2471 C2467 1.397 . S
C2471 C2470 1.389 . S
C2471 H2493 0.931 . S
C2472 C2469 1.481 . S
C2472 C2473 1.387 . S
C2472 C2477 1.390 . S
C2473 C2472 1.387 . S
C2473 C2474 1.401 . S
C2473 H2494 0.930 . S
C2474 C2473 1.401 . S
C2474 C2475 1.376 . S
C2474 C2483 1.511 . S
C2475 C2474 1.376 . S
C2475 C2476 1.392 . S
C2475 H2496 0.931 . S
C2476 C2475 1.392 . S
C2476 C2477 1.361 . S
C2476 C2478 1.500 . S
C2477 C2472 1.390 . S
C2477 C2476 1.361 . S
C2477 H2495 0.931 . S
C2478 C2476 1.500 . S
C2478 C2479 1.371 . S
C2478 C2480 1.365 . S
C2479 C2478 1.371 . S
C2479 C2489 1.386 . S
C2479 H2497 0.931 . S
C2480 C2478 1.365 . S
C2480 C2481 1.409 . S
C2480 H2498 0.929 . S
C2481 C2480 1.409 . S
C2481 C2482 1.380 . S
C2481 H2499 0.930 . S
C2482 C2481 1.380 . S
C2482 C2489 1.357 . S
C2483 C2474 1.511 . S
C2483 C2484 1.341 . S
C2483 C2485 1.371 . S
C2484 C2483 1.341 . S
C2484 C2488 1.394 . S
C2484 H2500 0.930 . S
C2485 C2483 1.371 . S
C2485 C2486 1.392 . S
C2485 H2501 0.931 . S
C2486 C2485 1.392 . S
C2486 C2487 1.331 . S
C2486 H2504 0.932 . S
C2487 C2486 1.331 . S
C2487 C2488 1.336 . S
C2488 C2484 1.394 . S
C2488 C2487 1.336 . S
C2488 H2503 0.929 . S
C2489 C2479 1.386 . S
C2489 C2482 1.357 . S
C2489 H2502 0.928 . S
H2490 C2466 0.931 . S
H2491 C2468 0.930 . S
H2492 C2470 0.929 . S
H2493 C2471 0.931 . S
H2494 C2473 0.930 . S
H2495 C2477 0.931 . S
H2496 C2475 0.931 . S
H2497 C2479 0.931 . S
H2498 C2480 0.929 . S
H2499 C2481 0.930 . S
H2500 C2484 0.930 . S
H2501 C2485 0.931 . S
H2502 C2489 0.928 . S
H2503 C2488 0.929 . S
H2504 C2486 0.932 . S
C2505 C2506 1.386 . S
C2505 C2507 1.397 . S
C2505 H2529 0.931 . S
C2506 C2505 1.386 . S
C2506 C2510 1.397 . S
C2507 C2505 1.397 . S
C2507 C2508 1.384 . S
C2507 H2530 0.930 . S
C2508 C2507 1.384 . S
C2508 C2509 1.377 . S
C2508 C2511 1.481 . S
C2509 C2508 1.377 . S
C2509 C2510 1.389 . S
C2509 H2531 0.929 . S
C2510 C2506 1.397 . S
C2510 C2509 1.389 . S
C2510 H2532 0.931 . S
C2511 C2508 1.481 . S
C2511 C2512 1.387 . S
C2511 C2516 1.390 . S
C2512 C2511 1.387 . S
C2512 C2513 1.401 . S
C2512 H2533 0.930 . S
C2513 C2512 1.401 . S
C2513 C2514 1.376 . S
C2513 C2522 1.511 . S
C2514 C2513 1.376 . S
C2514 C2515 1.392 . S
C2514 H2535 0.931 . S
C2515 C2514 1.392 . S
C2515 C2516 1.361 . S
C2515 C2517 1.500 . S
C2516 C2511 1.390 . S
C2516 C2515 1.361 . S
C2516 H2534 0.931 . S
C2517 C2515 1.500 . S
C2517 C2518 1.371 . S
C2517 C2519 1.365 . S
C2518 C2517 1.371 . S
C2518 C2528 1.386 . S
C2518 H2536 0.931 . S
C2519 C2517 1.365 . S
C2519 C2520 1.409 . S
C2519 H2537 0.929 . S
C2520 C2519 1.409 . S
C2520 C2521 1.380 . S
C2520 H2538 0.930 . S
C2521 C2520 1.380 . S
C2521 C2528 1.357 . S
C2522 C2513 1.511 . S
C2522 C2523 1.341 . S
C2522 C2524 1.371 . S
C2523 C2522 1.341 . S
C2523 C2527 1.394 . S
C2523 H2539 0.930 . S
C2524 C2522 1.371 . S
C2524 C2525 1.392 . S
C2524 H2540 0.931 . S
C2525 C2524 1.392 . S
C2525 C2526 1.331 . S
C2525 H2543 0.932 . S
C2526 C2525 1.331 . S
C2526 C2527 1.336 . S
C2527 C2523 1.394 . S
C2527 C2526 1.336 . S
C2527 H2542 0.929 . S
C2528 C2518 1.386 . S
C2528 C2521 1.357 . S
C2528 H2541 0.928 . S
H2529 C2505 0.931 . S
H2530 C2507 0.930 . S
H2531 C2509 0.929 . S
H2532 C2510 0.931 . S
H2533 C2512 0.930 . S
H2534 C2516 0.931 . S
H2535 C2514 0.931 . S
H2536 C2518 0.931 . S
H2537 C2519 0.929 . S
H2538 C2520 0.930 . S
H2539 C2523 0.930 . S
H2540 C2524 0.931 . S
H2541 C2528 0.928 . S
H2542 C2527 0.929 . S
H2543 C2525 0.932 . S
C2544 C2545 1.386 . S
C2544 C2546 1.397 . S
C2544 H2568 0.931 . S
C2545 C2544 1.386 . S
C2545 C2549 1.397 . S
C2546 C2544 1.397 . S
C2546 C2547 1.384 . S
C2546 H2569 0.930 . S
C2547 C2546 1.384 . S
C2547 C2548 1.377 . S
C2547 C2550 1.481 . S
C2548 C2547 1.377 . S
C2548 C2549 1.389 . S
C2548 H2570 0.929 . S
C2549 C2545 1.397 . S
C2549 C2548 1.389 . S
C2549 H2571 0.931 . S
C2550 C2547 1.481 . S
C2550 C2551 1.387 . S
C2550 C2555 1.390 . S
C2551 C2550 1.387 . S
C2551 C2552 1.401 . S
C2551 H2572 0.930 . S
C2552 C2551 1.401 . S
C2552 C2553 1.376 . S
C2552 C2561 1.511 . S
C2553 C2552 1.376 . S
C2553 C2554 1.392 . S
C2553 H2574 0.931 . S
C2554 C2553 1.392 . S
C2554 C2555 1.361 . S
C2554 C2556 1.500 . S
C2555 C2550 1.390 . S
C2555 C2554 1.361 . S
C2555 H2573 0.931 . S
C2556 C2554 1.500 . S
C2556 C2557 1.371 . S
C2556 C2558 1.365 . S
C2557 C2556 1.371 . S
C2557 C2567 1.386 . S
C2557 H2575 0.931 . S
C2558 C2556 1.365 . S
C2558 C2559 1.409 . S
C2558 H2576 0.929 . S
C2559 C2558 1.409 . S
C2559 C2560 1.380 . S
C2559 H2577 0.930 . S
C2560 C2559 1.380 . S
C2560 C2567 1.357 . S
C2561 C2552 1.511 . S
C2561 C2562 1.341 . S
C2561 C2563 1.371 . S
C2562 C2561 1.341 . S
C2562 C2566 1.394 . S
C2562 H2578 0.930 . S
C2563 C2561 1.371 . S
C2563 C2564 1.392 . S
C2563 H2579 0.931 . S
C2564 C2563 1.392 . S
C2564 C2565 1.331 . S
C2564 H2582 0.932 . S
C2565 C2564 1.331 . S
C2565 C2566 1.336 . S
C2566 C2562 1.394 . S
C2566 C2565 1.336 . S
C2566 H2581 0.929 . S
C2567 C2557 1.386 . S
C2567 C2560 1.357 . S
C2567 H2580 0.928 . S
H2568 C2544 0.931 . S
H2569 C2546 0.930 . S
H2570 C2548 0.929 . S
H2571 C2549 0.931 . S
H2572 C2551 0.930 . S
H2573 C2555 0.931 . S
H2574 C2553 0.931 . S
H2575 C2557 0.931 . S
H2576 C2558 0.929 . S
H2577 C2559 0.930 . S
H2578 C2562 0.930 . S
H2579 C2563 0.931 . S
H2580 C2567 0.928 . S
H2581 C2566 0.929 . S
H2582 C2564 0.932 . S
C2583 C2584 1.386 . S
C2583 C2585 1.397 . S
C2583 H2607 0.931 . S
C2584 C2583 1.386 . S
C2584 C2588 1.397 . S
C2585 C2583 1.397 . S
C2585 C2586 1.384 . S
C2585 H2608 0.930 . S
C2586 C2585 1.384 . S
C2586 C2587 1.377 . S
C2586 C2589 1.481 . S
C2587 C2586 1.377 . S
C2587 C2588 1.389 . S
C2587 H2609 0.929 . S
C2588 C2584 1.397 . S
C2588 C2587 1.389 . S
C2588 H2610 0.931 . S
C2589 C2586 1.481 . S
C2589 C2590 1.387 . S
C2589 C2594 1.390 . S
C2590 C2589 1.387 . S
C2590 C2591 1.401 . S
C2590 H2611 0.930 . S
C2591 C2590 1.401 . S
C2591 C2592 1.376 . S
C2591 C2600 1.511 . S
C2592 C2591 1.376 . S
C2592 C2593 1.392 . S
C2592 H2613 0.931 . S
C2593 C2592 1.392 . S
C2593 C2594 1.361 . S
C2593 C2595 1.500 . S
C2594 C2589 1.390 . S
C2594 C2593 1.361 . S
C2594 H2612 0.931 . S
C2595 C2593 1.500 . S
C2595 C2596 1.371 . S
C2595 C2597 1.365 . S
C2596 C2595 1.371 . S
C2596 C2606 1.386 . S
C2596 H2614 0.931 . S
C2597 C2595 1.365 . S
C2597 C2598 1.409 . S
C2597 H2615 0.929 . S
C2598 C2597 1.409 . S
C2598 C2599 1.380 . S
C2598 H2616 0.930 . S
C2599 C2598 1.380 . S
C2599 C2606 1.357 . S
C2600 C2591 1.511 . S
C2600 C2601 1.341 . S
C2600 C2602 1.371 . S
C2601 C2600 1.341 . S
C2601 C2605 1.394 . S
C2601 H2617 0.930 . S
C2602 C2600 1.371 . S
C2602 C2603 1.392 . S
C2602 H2618 0.931 . S
C2603 C2602 1.392 . S
C2603 C2604 1.331 . S
C2603 H2621 0.932 . S
C2604 C2603 1.331 . S
C2604 C2605 1.336 . S
C2605 C2601 1.394 . S
C2605 C2604 1.336 . S
C2605 H2620 0.929 . S
C2606 C2596 1.386 . S
C2606 C2599 1.357 . S
C2606 H2619 0.928 . S
H2607 C2583 0.931 . S
H2608 C2585 0.930 . S
H2609 C2587 0.929 . S
H2610 C2588 0.931 . S
H2611 C2590 0.930 . S
H2612 C2594 0.931 . S
H2613 C2592 0.931 . S
H2614 C2596 0.931 . S
H2615 C2597 0.929 . S
H2616 C2598 0.930 . S
H2617 C2601 0.930 . S
H2618 C2602 0.931 . S
H2619 C2606 0.928 . S
H2620 C2605 0.929 . S
H2621 C2603 0.932 . S
C2622 C2623 1.386 . S
C2622 C2624 1.397 . S
C2622 H2646 0.931 . S
C2623 C2622 1.386 . S
C2623 C2627 1.397 . S
C2624 C2622 1.397 . S
C2624 C2625 1.384 . S
C2624 H2647 0.930 . S
C2625 C2624 1.384 . S
C2625 C2626 1.377 . S
C2625 C2628 1.481 . S
C2626 C2625 1.377 . S
C2626 C2627 1.389 . S
C2626 H2648 0.929 . S
C2627 C2623 1.397 . S
C2627 C2626 1.389 . S
C2627 H2649 0.931 . S
C2628 C2625 1.481 . S
C2628 C2629 1.387 . S
C2628 C2633 1.390 . S
C2629 C2628 1.387 . S
C2629 C2630 1.401 . S
C2629 H2650 0.930 . S
C2630 C2629 1.401 . S
C2630 C2631 1.376 . S
C2630 C2639 1.511 . S
C2631 C2630 1.376 . S
C2631 C2632 1.392 . S
C2631 H2652 0.931 . S
C2632 C2631 1.392 . S
C2632 C2633 1.361 . S
C2632 C2634 1.500 . S
C2633 C2628 1.390 . S
C2633 C2632 1.361 . S
C2633 H2651 0.931 . S
C2634 C2632 1.500 . S
C2634 C2635 1.371 . S
C2634 C2636 1.365 . S
C2635 C2634 1.371 . S
C2635 C2645 1.386 . S
C2635 H2653 0.931 . S
C2636 C2634 1.365 . S
C2636 C2637 1.409 . S
C2636 H2654 0.929 . S
C2637 C2636 1.409 . S
C2637 C2638 1.380 . S
C2637 H2655 0.930 . S
C2638 C2637 1.380 . S
C2638 C2645 1.357 . S
C2639 C2630 1.511 . S
C2639 C2640 1.341 . S
C2639 C2641 1.371 . S
C2640 C2639 1.341 . S
C2640 C2644 1.394 . S
C2640 H2656 0.930 . S
C2641 C2639 1.371 . S
C2641 C2642 1.392 . S
C2641 H2657 0.931 . S
C2642 C2641 1.392 . S
C2642 C2643 1.331 . S
C2642 H2660 0.932 . S
C2643 C2642 1.331 . S
C2643 C2644 1.336 . S
C2644 C2640 1.394 . S
C2644 C2643 1.336 . S
C2644 H2659 0.929 . S
C2645 C2635 1.386 . S
C2645 C2638 1.357 . S
C2645 H2658 0.928 . S
H2646 C2622 0.931 . S
H2647 C2624 0.930 . S
H2648 C2626 0.929 . S
H2649 C2627 0.931 . S
H2650 C2629 0.930 . S
H2651 C2633 0.931 . S
H2652 C2631 0.931 . S
H2653 C2635 0.931 . S
H2654 C2636 0.929 . S
H2655 C2637 0.930 . S
H2656 C2640 0.930 . S
H2657 C2641 0.931 . S
H2658 C2645 0.928 . S
H2659 C2644 0.929 . S
H2660 C2642 0.932 . S
C2661 C2662 1.386 . S
C2661 C2663 1.397 . S
C2661 H2685 0.931 . S
C2662 C2661 1.386 . S
C2662 C2666 1.397 . S
C2663 C2661 1.397 . S
C2663 C2664 1.384 . S
C2663 H2686 0.930 . S
C2664 C2663 1.384 . S
C2664 C2665 1.377 . S
C2664 C2667 1.481 . S
C2665 C2664 1.377 . S
C2665 C2666 1.389 . S
C2665 H2687 0.929 . S
C2666 C2662 1.397 . S
C2666 C2665 1.389 . S
C2666 H2688 0.931 . S
C2667 C2664 1.481 . S
C2667 C2668 1.387 . S
C2667 C2672 1.390 . S
C2668 C2667 1.387 . S
C2668 C2669 1.401 . S
C2668 H2689 0.930 . S
C2669 C2668 1.401 . S
C2669 C2670 1.376 . S
C2669 C2678 1.511 . S
C2670 C2669 1.376 . S
C2670 C2671 1.392 . S
C2670 H2691 0.931 . S
C2671 C2670 1.392 . S
C2671 C2672 1.361 . S
C2671 C2673 1.500 . S
C2672 C2667 1.390 . S
C2672 C2671 1.361 . S
C2672 H2690 0.931 . S
C2673 C2671 1.500 . S
C2673 C2674 1.371 . S
C2673 C2675 1.365 . S
C2674 C2673 1.371 . S
C2674 C2684 1.386 . S
C2674 H2692 0.931 . S
C2675 C2673 1.365 . S
C2675 C2676 1.409 . S
C2675 H2693 0.929 . S
C2676 C2675 1.409 . S
C2676 C2677 1.380 . S
C2676 H2694 0.930 . S
C2677 C2676 1.380 . S
C2677 C2684 1.357 . S
C2678 C2669 1.511 . S
C2678 C2679 1.341 . S
C2678 C2680 1.371 . S
C2679 C2678 1.341 . S
C2679 C2683 1.394 . S
C2679 H2695 0.930 . S
C2680 C2678 1.371 . S
C2680 C2681 1.392 . S
C2680 H2696 0.931 . S
C2681 C2680 1.392 . S
C2681 C2682 1.331 . S
C2681 H2699 0.932 . S
C2682 C2681 1.331 . S
C2682 C2683 1.336 . S
C2683 C2679 1.394 . S
C2683 C2682 1.336 . S
C2683 H2698 0.929 . S
C2684 C2674 1.386 . S
C2684 C2677 1.357 . S
C2684 H2697 0.928 . S
H2685 C2661 0.931 . S
H2686 C2663 0.930 . S
H2687 C2665 0.929 . S
H2688 C2666 0.931 . S
H2689 C2668 0.930 . S
H2690 C2672 0.931 . S
H2691 C2670 0.931 . S
H2692 C2674 0.931 . S
H2693 C2675 0.929 . S
H2694 C2676 0.930 . S
H2695 C2679 0.930 . S
H2696 C2680 0.931 . S
H2697 C2684 0.928 . S
H2698 C2683 0.929 . S
H2699 C2681 0.932 . S
C2700 C2701 1.386 . S
C2700 C2702 1.397 . S
C2700 H2724 0.931 . S
C2701 C2700 1.386 . S
C2701 C2705 1.397 . S
C2702 C2700 1.397 . S
C2702 C2703 1.384 . S
C2702 H2725 0.930 . S
C2703 C2702 1.384 . S
C2703 C2704 1.377 . S
C2703 C2706 1.481 . S
C2704 C2703 1.377 . S
C2704 C2705 1.389 . S
C2704 H2726 0.929 . S
C2705 C2701 1.397 . S
C2705 C2704 1.389 . S
C2705 H2727 0.931 . S
C2706 C2703 1.481 . S
C2706 C2707 1.387 . S
C2706 C2711 1.390 . S
C2707 C2706 1.387 . S
C2707 C2708 1.401 . S
C2707 H2728 0.930 . S
C2708 C2707 1.401 . S
C2708 C2709 1.376 . S
C2708 C2717 1.511 . S
C2709 C2708 1.376 . S
C2709 C2710 1.392 . S
C2709 H2730 0.931 . S
C2710 C2709 1.392 . S
C2710 C2711 1.361 . S
C2710 C2712 1.500 . S
C2711 C2706 1.390 . S
C2711 C2710 1.361 . S
C2711 H2729 0.931 . S
C2712 C2710 1.500 . S
C2712 C2713 1.371 . S
C2712 C2714 1.365 . S
C2713 C2712 1.371 . S
C2713 C2723 1.386 . S
C2713 H2731 0.931 . S
C2714 C2712 1.365 . S
C2714 C2715 1.409 . S
C2714 H2732 0.929 . S
C2715 C2714 1.409 . S
C2715 C2716 1.380 . S
C2715 H2733 0.930 . S
C2716 C2715 1.380 . S
C2716 C2723 1.357 . S
C2717 C2708 1.511 . S
C2717 C2718 1.341 . S
C2717 C2719 1.371 . S
C2718 C2717 1.341 . S
C2718 C2722 1.394 . S
C2718 H2734 0.930 . S
C2719 C2717 1.371 . S
C2719 C2720 1.392 . S
C2719 H2735 0.931 . S
C2720 C2719 1.392 . S
C2720 C2721 1.331 . S
C2720 H2738 0.932 . S
C2721 C2720 1.331 . S
C2721 C2722 1.336 . S
C2722 C2718 1.394 . S
C2722 C2721 1.336 . S
C2722 H2737 0.929 . S
C2723 C2713 1.386 . S
C2723 C2716 1.357 . S
C2723 H2736 0.928 . S
H2724 C2700 0.931 . S
H2725 C2702 0.930 . S
H2726 C2704 0.929 . S
H2727 C2705 0.931 . S
H2728 C2707 0.930 . S
H2729 C2711 0.931 . S
H2730 C2709 0.931 . S
H2731 C2713 0.931 . S
H2732 C2714 0.929 . S
H2733 C2715 0.930 . S
H2734 C2718 0.930 . S
H2735 C2719 0.931 . S
H2736 C2723 0.928 . S
H2737 C2722 0.929 . S
H2738 C2720 0.932 . S
C2739 C2740 1.386 . S
C2739 C2741 1.397 . S
C2739 H2763 0.931 . S
C2740 C2739 1.386 . S
C2740 C2744 1.397 . S
C2741 C2739 1.397 . S
C2741 C2742 1.384 . S
C2741 H2764 0.930 . S
C2742 C2741 1.384 . S
C2742 C2743 1.377 . S
C2742 C2745 1.481 . S
C2743 C2742 1.377 . S
C2743 C2744 1.389 . S
C2743 H2765 0.929 . S
C2744 C2740 1.397 . S
C2744 C2743 1.389 . S
C2744 H2766 0.931 . S
C2745 C2742 1.481 . S
C2745 C2746 1.387 . S
C2745 C2750 1.390 . S
C2746 C2745 1.387 . S
C2746 C2747 1.401 . S
C2746 H2767 0.930 . S
C2747 C2746 1.401 . S
C2747 C2748 1.376 . S
C2747 C2756 1.511 . S
C2748 C2747 1.376 . S
C2748 C2749 1.392 . S
C2748 H2769 0.931 . S
C2749 C2748 1.392 . S
C2749 C2750 1.361 . S
C2749 C2751 1.500 . S
C2750 C2745 1.390 . S
C2750 C2749 1.361 . S
C2750 H2768 0.931 . S
C2751 C2749 1.500 . S
C2751 C2752 1.371 . S
C2751 C2753 1.365 . S
C2752 C2751 1.371 . S
C2752 C2762 1.386 . S
C2752 H2770 0.931 . S
C2753 C2751 1.365 . S
C2753 C2754 1.409 . S
C2753 H2771 0.929 . S
C2754 C2753 1.409 . S
C2754 C2755 1.380 . S
C2754 H2772 0.930 . S
C2755 C2754 1.380 . S
C2755 C2762 1.357 . S
C2756 C2747 1.511 . S
C2756 C2757 1.341 . S
C2756 C2758 1.371 . S
C2757 C2756 1.341 . S
C2757 C2761 1.394 . S
C2757 H2773 0.930 . S
C2758 C2756 1.371 . S
C2758 C2759 1.392 . S
C2758 H2774 0.931 . S
C2759 C2758 1.392 . S
C2759 C2760 1.331 . S
C2759 H2777 0.932 . S
C2760 C2759 1.331 . S
C2760 C2761 1.336 . S
C2761 C2757 1.394 . S
C2761 C2760 1.336 . S
C2761 H2776 0.929 . S
C2762 C2752 1.386 . S
C2762 C2755 1.357 . S
C2762 H2775 0.928 . S
H2763 C2739 0.931 . S
H2764 C2741 0.930 . S
H2765 C2743 0.929 . S
H2766 C2744 0.931 . S
H2767 C2746 0.930 . S
H2768 C2750 0.931 . S
H2769 C2748 0.931 . S
H2770 C2752 0.931 . S
H2771 C2753 0.929 . S
H2772 C2754 0.930 . S
H2773 C2757 0.930 . S
H2774 C2758 0.931 . S
H2775 C2762 0.928 . S
H2776 C2761 0.929 . S
H2777 C2759 0.932 . S
C2778 C2779 1.386 . S
C2778 C2780 1.397 . S
C2778 H2802 0.931 . S
C2779 C2778 1.386 . S
C2779 C2783 1.397 . S
C2780 C2778 1.397 . S
C2780 C2781 1.384 . S
C2780 H2803 0.930 . S
C2781 C2780 1.384 . S
C2781 C2782 1.377 . S
C2781 C2784 1.481 . S
C2782 C2781 1.377 . S
C2782 C2783 1.389 . S
C2782 H2804 0.929 . S
C2783 C2779 1.397 . S
C2783 C2782 1.389 . S
C2783 H2805 0.931 . S
C2784 C2781 1.481 . S
C2784 C2785 1.387 . S
C2784 C2789 1.390 . S
C2785 C2784 1.387 . S
C2785 C2786 1.401 . S
C2785 H2806 0.930 . S
C2786 C2785 1.401 . S
C2786 C2787 1.376 . S
C2786 C2795 1.511 . S
C2787 C2786 1.376 . S
C2787 C2788 1.392 . S
C2787 H2808 0.931 . S
C2788 C2787 1.392 . S
C2788 C2789 1.361 . S
C2788 C2790 1.500 . S
C2789 C2784 1.390 . S
C2789 C2788 1.361 . S
C2789 H2807 0.931 . S
C2790 C2788 1.500 . S
C2790 C2791 1.371 . S
C2790 C2792 1.365 . S
C2791 C2790 1.371 . S
C2791 C2801 1.386 . S
C2791 H2809 0.931 . S
C2792 C2790 1.365 . S
C2792 C2793 1.409 . S
C2792 H2810 0.929 . S
C2793 C2792 1.409 . S
C2793 C2794 1.380 . S
C2793 H2811 0.930 . S
C2794 C2793 1.380 . S
C2794 C2801 1.357 . S
C2795 C2786 1.511 . S
C2795 C2796 1.341 . S
C2795 C2797 1.371 . S
C2796 C2795 1.341 . S
C2796 C2800 1.394 . S
C2796 H2812 0.930 . S
C2797 C2795 1.371 . S
C2797 C2798 1.392 . S
C2797 H2813 0.931 . S
C2798 C2797 1.392 . S
C2798 C2799 1.331 . S
C2798 H2816 0.932 . S
C2799 C2798 1.331 . S
C2799 C2800 1.336 . S
C2800 C2796 1.394 . S
C2800 C2799 1.336 . S
C2800 H2815 0.929 . S
C2801 C2791 1.386 . S
C2801 C2794 1.357 . S
C2801 H2814 0.928 . S
H2802 C2778 0.931 . S
H2803 C2780 0.930 . S
H2804 C2782 0.929 . S
H2805 C2783 0.931 . S
H2806 C2785 0.930 . S
H2807 C2789 0.931 . S
H2808 C2787 0.931 . S
H2809 C2791 0.931 . S
H2810 C2792 0.929 . S
H2811 C2793 0.930 . S
H2812 C2796 0.930 . S
H2813 C2797 0.931 . S
H2814 C2801 0.928 . S
H2815 C2800 0.929 . S
H2816 C2798 0.932 . S
C2817 C2818 1.386 . S
C2817 C2819 1.397 . S
C2817 H2841 0.931 . S
C2818 C2817 1.386 . S
C2818 C2822 1.397 . S
C2819 C2817 1.397 . S
C2819 C2820 1.384 . S
C2819 H2842 0.930 . S
C2820 C2819 1.384 . S
C2820 C2821 1.377 . S
C2820 C2823 1.481 . S
C2821 C2820 1.377 . S
C2821 C2822 1.389 . S
C2821 H2843 0.929 . S
C2822 C2818 1.397 . S
C2822 C2821 1.389 . S
C2822 H2844 0.931 . S
C2823 C2820 1.481 . S
C2823 C2824 1.387 . S
C2823 C2828 1.390 . S
C2824 C2823 1.387 . S
C2824 C2825 1.401 . S
C2824 H2845 0.930 . S
C2825 C2824 1.401 . S
C2825 C2826 1.376 . S
C2825 C2834 1.511 . S
C2826 C2825 1.376 . S
C2826 C2827 1.392 . S
C2826 H2847 0.931 . S
C2827 C2826 1.392 . S
C2827 C2828 1.361 . S
C2827 C2829 1.500 . S
C2828 C2823 1.390 . S
C2828 C2827 1.361 . S
C2828 H2846 0.931 . S
C2829 C2827 1.500 . S
C2829 C2830 1.371 . S
C2829 C2831 1.365 . S
C2830 C2829 1.371 . S
C2830 C2840 1.386 . S
C2830 H2848 0.931 . S
C2831 C2829 1.365 . S
C2831 C2832 1.409 . S
C2831 H2849 0.929 . S
C2832 C2831 1.409 . S
C2832 C2833 1.380 . S
C2832 H2850 0.930 . S
C2833 C2832 1.380 . S
C2833 C2840 1.357 . S
C2834 C2825 1.511 . S
C2834 C2835 1.341 . S
C2834 C2836 1.371 . S
C2835 C2834 1.341 . S
C2835 C2839 1.394 . S
C2835 H2851 0.930 . S
C2836 C2834 1.371 . S
C2836 C2837 1.392 . S
C2836 H2852 0.931 . S
C2837 C2836 1.392 . S
C2837 C2838 1.331 . S
C2837 H2855 0.932 . S
C2838 C2837 1.331 . S
C2838 C2839 1.336 . S
C2839 C2835 1.394 . S
C2839 C2838 1.336 . S
C2839 H2854 0.929 . S
C2840 C2830 1.386 . S
C2840 C2833 1.357 . S
C2840 H2853 0.928 . S
H2841 C2817 0.931 . S
H2842 C2819 0.930 . S
H2843 C2821 0.929 . S
H2844 C2822 0.931 . S
H2845 C2824 0.930 . S
H2846 C2828 0.931 . S
H2847 C2826 0.931 . S
H2848 C2830 0.931 . S
H2849 C2831 0.929 . S
H2850 C2832 0.930 . S
H2851 C2835 0.930 . S
H2852 C2836 0.931 . S
H2853 C2840 0.928 . S
H2854 C2839 0.929 . S
H2855 C2837 0.932 . S
C2856 C2857 1.386 . S
C2856 C2858 1.397 . S
C2856 H2880 0.931 . S
C2857 C2856 1.386 . S
C2857 C2861 1.397 . S
C2858 C2856 1.397 . S
C2858 C2859 1.384 . S
C2858 H2881 0.930 . S
C2859 C2858 1.384 . S
C2859 C2860 1.377 . S
C2859 C2862 1.481 . S
C2860 C2859 1.377 . S
C2860 C2861 1.389 . S
C2860 H2882 0.929 . S
C2861 C2857 1.397 . S
C2861 C2860 1.389 . S
C2861 H2883 0.931 . S
C2862 C2859 1.481 . S
C2862 C2863 1.387 . S
C2862 C2867 1.390 . S
C2863 C2862 1.387 . S
C2863 C2864 1.401 . S
C2863 H2884 0.930 . S
C2864 C2863 1.401 . S
C2864 C2865 1.376 . S
C2864 C2873 1.511 . S
C2865 C2864 1.376 . S
C2865 C2866 1.392 . S
C2865 H2886 0.931 . S
C2866 C2865 1.392 . S
C2866 C2867 1.361 . S
C2866 C2868 1.500 . S
C2867 C2862 1.390 . S
C2867 C2866 1.361 . S
C2867 H2885 0.931 . S
C2868 C2866 1.500 . S
C2868 C2869 1.371 . S
C2868 C2870 1.365 . S
C2869 C2868 1.371 . S
C2869 C2879 1.386 . S
C2869 H2887 0.931 . S
C2870 C2868 1.365 . S
C2870 C2871 1.409 . S
C2870 H2888 0.929 . S
C2871 C2870 1.409 . S
C2871 C2872 1.380 . S
C2871 H2889 0.930 . S
C2872 C2871 1.380 . S
C2872 C2879 1.357 . S
C2873 C2864 1.511 . S
C2873 C2874 1.341 . S
C2873 C2875 1.371 . S
C2874 C2873 1.341 . S
C2874 C2878 1.394 . S
C2874 H2890 0.930 . S
C2875 C2873 1.371 . S
C2875 C2876 1.392 . S
C2875 H2891 0.931 . S
C2876 C2875 1.392 . S
C2876 C2877 1.331 . S
C2876 H2894 0.932 . S
C2877 C2876 1.331 . S
C2877 C2878 1.336 . S
C2878 C2874 1.394 . S
C2878 C2877 1.336 . S
C2878 H2893 0.929 . S
C2879 C2869 1.386 . S
C2879 C2872 1.357 . S
C2879 H2892 0.928 . S
H2880 C2856 0.931 . S
H2881 C2858 0.930 . S
H2882 C2860 0.929 . S
H2883 C2861 0.931 . S
H2884 C2863 0.930 . S
H2885 C2867 0.931 . S
H2886 C2865 0.931 . S
H2887 C2869 0.931 . S
H2888 C2870 0.929 . S
H2889 C2871 0.930 . S
H2890 C2874 0.930 . S
H2891 C2875 0.931 . S
H2892 C2879 0.928 . S
H2893 C2878 0.929 . S
H2894 C2876 0.932 . S
C2895 C2896 1.386 . S
C2895 C2897 1.397 . S
C2895 H2919 0.931 . S
C2896 C2895 1.386 . S
C2896 C2900 1.397 . S
C2897 C2895 1.397 . S
C2897 C2898 1.384 . S
C2897 H2920 0.930 . S
C2898 C2897 1.384 . S
C2898 C2899 1.377 . S
C2898 C2901 1.481 . S
C2899 C2898 1.377 . S
C2899 C2900 1.389 . S
C2899 H2921 0.929 . S
C2900 C2896 1.397 . S
C2900 C2899 1.389 . S
C2900 H2922 0.931 . S
C2901 C2898 1.481 . S
C2901 C2902 1.387 . S
C2901 C2906 1.390 . S
C2902 C2901 1.387 . S
C2902 C2903 1.401 . S
C2902 H2923 0.930 . S
C2903 C2902 1.401 . S
C2903 C2904 1.376 . S
C2903 C2912 1.511 . S
C2904 C2903 1.376 . S
C2904 C2905 1.392 . S
C2904 H2925 0.931 . S
C2905 C2904 1.392 . S
C2905 C2906 1.361 . S
C2905 C2907 1.500 . S
C2906 C2901 1.390 . S
C2906 C2905 1.361 . S
C2906 H2924 0.931 . S
C2907 C2905 1.500 . S
C2907 C2908 1.371 . S
C2907 C2909 1.365 . S
C2908 C2907 1.371 . S
C2908 C2918 1.386 . S
C2908 H2926 0.931 . S
C2909 C2907 1.365 . S
C2909 C2910 1.409 . S
C2909 H2927 0.929 . S
C2910 C2909 1.409 . S
C2910 C2911 1.380 . S
C2910 H2928 0.930 . S
C2911 C2910 1.380 . S
C2911 C2918 1.357 . S
C2912 C2903 1.511 . S
C2912 C2913 1.341 . S
C2912 C2914 1.371 . S
C2913 C2912 1.341 . S
C2913 C2917 1.394 . S
C2913 H2929 0.930 . S
C2914 C2912 1.371 . S
C2914 C2915 1.392 . S
C2914 H2930 0.931 . S
C2915 C2914 1.392 . S
C2915 C2916 1.331 . S
C2915 H2933 0.932 . S
C2916 C2915 1.331 . S
C2916 C2917 1.336 . S
C2917 C2913 1.394 . S
C2917 C2916 1.336 . S
C2917 H2932 0.929 . S
C2918 C2908 1.386 . S
C2918 C2911 1.357 . S
C2918 H2931 0.928 . S
H2919 C2895 0.931 . S
H2920 C2897 0.930 . S
H2921 C2899 0.929 . S
H2922 C2900 0.931 . S
H2923 C2902 0.930 . S
H2924 C2906 0.931 . S
H2925 C2904 0.931 . S
H2926 C2908 0.931 . S
H2927 C2909 0.929 . S
H2928 C2910 0.930 . S
H2929 C2913 0.930 . S
H2930 C2914 0.931 . S
H2931 C2918 0.928 . S
H2932 C2917 0.929 . S
H2933 C2915 0.932 . S
C2934 C2935 1.386 . S
C2934 C2936 1.397 . S
C2934 H2958 0.931 . S
C2935 C2934 1.386 . S
C2935 C2939 1.397 . S
C2936 C2934 1.397 . S
C2936 C2937 1.384 . S
C2936 H2959 0.930 . S
C2937 C2936 1.384 . S
C2937 C2938 1.377 . S
C2937 C2940 1.481 . S
C2938 C2937 1.377 . S
C2938 C2939 1.389 . S
C2938 H2960 0.929 . S
C2939 C2935 1.397 . S
C2939 C2938 1.389 . S
C2939 H2961 0.931 . S
C2940 C2937 1.481 . S
C2940 C2941 1.387 . S
C2940 C2945 1.390 . S
C2941 C2940 1.387 . S
C2941 C2942 1.401 . S
C2941 H2962 0.930 . S
C2942 C2941 1.401 . S
C2942 C2943 1.376 . S
C2942 C2951 1.511 . S
C2943 C2942 1.376 . S
C2943 C2944 1.392 . S
C2943 H2964 0.931 . S
C2944 C2943 1.392 . S
C2944 C2945 1.361 . S
C2944 C2946 1.500 . S
C2945 C2940 1.390 . S
C2945 C2944 1.361 . S
C2945 H2963 0.931 . S
C2946 C2944 1.500 . S
C2946 C2947 1.371 . S
C2946 C2948 1.365 . S
C2947 C2946 1.371 . S
C2947 C2957 1.386 . S
C2947 H2965 0.931 . S
C2948 C2946 1.365 . S
C2948 C2949 1.409 . S
C2948 H2966 0.929 . S
C2949 C2948 1.409 . S
C2949 C2950 1.380 . S
C2949 H2967 0.930 . S
C2950 C2949 1.380 . S
C2950 C2957 1.357 . S
C2951 C2942 1.511 . S
C2951 C2952 1.341 . S
C2951 C2953 1.371 . S
C2952 C2951 1.341 . S
C2952 C2956 1.394 . S
C2952 H2968 0.930 . S
C2953 C2951 1.371 . S
C2953 C2954 1.392 . S
C2953 H2969 0.931 . S
C2954 C2953 1.392 . S
C2954 C2955 1.331 . S
C2954 H2972 0.932 . S
C2955 C2954 1.331 . S
C2955 C2956 1.336 . S
C2956 C2952 1.394 . S
C2956 C2955 1.336 . S
C2956 H2971 0.929 . S
C2957 C2947 1.386 . S
C2957 C2950 1.357 . S
C2957 H2970 0.928 . S
H2958 C2934 0.931 . S
H2959 C2936 0.930 . S
H2960 C2938 0.929 . S
H2961 C2939 0.931 . S
H2962 C2941 0.930 . S
H2963 C2945 0.931 . S
H2964 C2943 0.931 . S
H2965 C2947 0.931 . S
H2966 C2948 0.929 . S
H2967 C2949 0.930 . S
H2968 C2952 0.930 . S
H2969 C2953 0.931 . S
H2970 C2957 0.928 . S
H2971 C2956 0.929 . S
H2972 C2954 0.932 . S
C2973 C2974 1.386 . S
C2973 C2975 1.397 . S
C2973 H2997 0.931 . S
C2974 C2973 1.386 . S
C2974 C2978 1.397 . S
C2975 C2973 1.397 . S
C2975 C2976 1.384 . S
C2975 H2998 0.930 . S
C2976 C2975 1.384 . S
C2976 C2977 1.377 . S
C2976 C2979 1.481 . S
C2977 C2976 1.377 . S
C2977 C2978 1.389 . S
C2977 H2999 0.929 . S
C2978 C2974 1.397 . S
C2978 C2977 1.389 . S
C2978 H3000 0.931 . S
C2979 C2976 1.481 . S
C2979 C2980 1.387 . S
C2979 C2984 1.390 . S
C2980 C2979 1.387 . S
C2980 C2981 1.401 . S
C2980 H3001 0.930 . S
C2981 C2980 1.401 . S
C2981 C2982 1.376 . S
C2981 C2990 1.511 . S
C2982 C2981 1.376 . S
C2982 C2983 1.392 . S
C2982 H3003 0.931 . S
C2983 C2982 1.392 . S
C2983 C2984 1.361 . S
C2983 C2985 1.500 . S
C2984 C2979 1.390 . S
C2984 C2983 1.361 . S
C2984 H3002 0.931 . S
C2985 C2983 1.500 . S
C2985 C2986 1.371 . S
C2985 C2987 1.365 . S
C2986 C2985 1.371 . S
C2986 C2996 1.386 . S
C2986 H3004 0.931 . S
C2987 C2985 1.365 . S
C2987 C2988 1.409 . S
C2987 H3005 0.929 . S
C2988 C2987 1.409 . S
C2988 C2989 1.380 . S
C2988 H3006 0.930 . S
C2989 C2988 1.380 . S
C2989 C2996 1.357 . S
C2990 C2981 1.511 . S
C2990 C2991 1.341 . S
C2990 C2992 1.371 . S
C2991 C2990 1.341 . S
C2991 C2995 1.394 . S
C2991 H3007 0.930 . S
C2992 C2990 1.371 . S
C2992 C2993 1.392 . S
C2992 H3008 0.931 . S
C2993 C2992 1.392 . S
C2993 C2994 1.331 . S
C2993 H3011 0.932 . S
C2994 C2993 1.331 . S
C2994 C2995 1.336 . S
C2995 C2991 1.394 . S
C2995 C2994 1.336 . S
C2995 H3010 0.929 . S
C2996 C2986 1.386 . S
C2996 C2989 1.357 . S
C2996 H3009 0.928 . S
H2997 C2973 0.931 . S
H2998 C2975 0.930 . S
H2999 C2977 0.929 . S
H3000 C2978 0.931 . S
H3001 C2980 0.930 . S
H3002 C2984 0.931 . S
H3003 C2982 0.931 . S
H3004 C2986 0.931 . S
H3005 C2987 0.929 . S
H3006 C2988 0.930 . S
H3007 C2991 0.930 . S
H3008 C2992 0.931 . S
H3009 C2996 0.928 . S
H3010 C2995 0.929 . S
H3011 C2993 0.932 . S
C3012 C3013 1.386 . S
C3012 C3014 1.397 . S
C3012 H3036 0.931 . S
C3013 C3012 1.386 . S
C3013 C3017 1.397 . S
C3014 C3012 1.397 . S
C3014 C3015 1.384 . S
C3014 H3037 0.930 . S
C3015 C3014 1.384 . S
C3015 C3016 1.377 . S
C3015 C3018 1.481 . S
C3016 C3015 1.377 . S
C3016 C3017 1.389 . S
C3016 H3038 0.929 . S
C3017 C3013 1.397 . S
C3017 C3016 1.389 . S
C3017 H3039 0.931 . S
C3018 C3015 1.481 . S
C3018 C3019 1.387 . S
C3018 C3023 1.390 . S
C3019 C3018 1.387 . S
C3019 C3020 1.401 . S
C3019 H3040 0.930 . S
C3020 C3019 1.401 . S
C3020 C3021 1.376 . S
C3020 C3029 1.511 . S
C3021 C3020 1.376 . S
C3021 C3022 1.392 . S
C3021 H3042 0.931 . S
C3022 C3021 1.392 . S
C3022 C3023 1.361 . S
C3022 C3024 1.500 . S
C3023 C3018 1.390 . S
C3023 C3022 1.361 . S
C3023 H3041 0.931 . S
C3024 C3022 1.500 . S
C3024 C3025 1.371 . S
C3024 C3026 1.365 . S
C3025 C3024 1.371 . S
C3025 C3035 1.386 . S
C3025 H3043 0.931 . S
C3026 C3024 1.365 . S
C3026 C3027 1.409 . S
C3026 H3044 0.929 . S
C3027 C3026 1.409 . S
C3027 C3028 1.380 . S
C3027 H3045 0.930 . S
C3028 C3027 1.380 . S
C3028 C3035 1.357 . S
C3029 C3020 1.511 . S
C3029 C3030 1.341 . S
C3029 C3031 1.371 . S
C3030 C3029 1.341 . S
C3030 C3034 1.394 . S
C3030 H3046 0.930 . S
C3031 C3029 1.371 . S
C3031 C3032 1.392 . S
C3031 H3047 0.931 . S
C3032 C3031 1.392 . S
C3032 C3033 1.331 . S
C3032 H3050 0.932 . S
C3033 C3032 1.331 . S
C3033 C3034 1.336 . S
C3034 C3030 1.394 . S
C3034 C3033 1.336 . S
C3034 H3049 0.929 . S
C3035 C3025 1.386 . S
C3035 C3028 1.357 . S
C3035 H3048 0.928 . S
H3036 C3012 0.931 . S
H3037 C3014 0.930 . S
H3038 C3016 0.929 . S
H3039 C3017 0.931 . S
H3040 C3019 0.930 . S
H3041 C3023 0.931 . S
H3042 C3021 0.931 . S
H3043 C3025 0.931 . S
H3044 C3026 0.929 . S
H3045 C3027 0.930 . S
H3046 C3030 0.930 . S
H3047 C3031 0.931 . S
H3048 C3035 0.928 . S
H3049 C3034 0.929 . S
H3050 C3032 0.932 . S
C3051 C3052 1.386 . S
C3051 C3053 1.397 . S
C3051 H3075 0.931 . S
C3052 C3051 1.386 . S
C3052 C3056 1.397 . S
C3053 C3051 1.397 . S
C3053 C3054 1.384 . S
C3053 H3076 0.930 . S
C3054 C3053 1.384 . S
C3054 C3055 1.377 . S
C3054 C3057 1.481 . S
C3055 C3054 1.377 . S
C3055 C3056 1.389 . S
C3055 H3077 0.929 . S
C3056 C3052 1.397 . S
C3056 C3055 1.389 . S
C3056 H3078 0.931 . S
C3057 C3054 1.481 . S
C3057 C3058 1.387 . S
C3057 C3062 1.390 . S
C3058 C3057 1.387 . S
C3058 C3059 1.401 . S
C3058 H3079 0.930 . S
C3059 C3058 1.401 . S
C3059 C3060 1.376 . S
C3059 C3068 1.511 . S
C3060 C3059 1.376 . S
C3060 C3061 1.392 . S
C3060 H3081 0.931 . S
C3061 C3060 1.392 . S
C3061 C3062 1.361 . S
C3061 C3063 1.500 . S
C3062 C3057 1.390 . S
C3062 C3061 1.361 . S
C3062 H3080 0.931 . S
C3063 C3061 1.500 . S
C3063 C3064 1.371 . S
C3063 C3065 1.365 . S
C3064 C3063 1.371 . S
C3064 C3074 1.386 . S
C3064 H3082 0.931 . S
C3065 C3063 1.365 . S
C3065 C3066 1.409 . S
C3065 H3083 0.929 . S
C3066 C3065 1.409 . S
C3066 C3067 1.380 . S
C3066 H3084 0.930 . S
C3067 C3066 1.380 . S
C3067 C3074 1.357 . S
C3068 C3059 1.511 . S
C3068 C3069 1.341 . S
C3068 C3070 1.371 . S
C3069 C3068 1.341 . S
C3069 C3073 1.394 . S
C3069 H3085 0.930 . S
C3070 C3068 1.371 . S
C3070 C3071 1.392 . S
C3070 H3086 0.931 . S
C3071 C3070 1.392 . S
C3071 C3072 1.331 . S
C3071 H3089 0.932 . S
C3072 C3071 1.331 . S
C3072 C3073 1.336 . S
C3073 C3069 1.394 . S
C3073 C3072 1.336 . S
C3073 H3088 0.929 . S
C3074 C3064 1.386 . S
C3074 C3067 1.357 . S
C3074 H3087 0.928 . S
H3075 C3051 0.931 . S
H3076 C3053 0.930 . S
H3077 C3055 0.929 . S
H3078 C3056 0.931 . S
H3079 C3058 0.930 . S
H3080 C3062 0.931 . S
H3081 C3060 0.931 . S
H3082 C3064 0.931 . S
H3083 C3065 0.929 . S
H3084 C3066 0.930 . S
H3085 C3069 0.930 . S
H3086 C3070 0.931 . S
H3087 C3074 0.928 . S
H3088 C3073 0.929 . S
H3089 C3071 0.932 . S
C3090 C3091 1.386 . S
C3090 C3092 1.397 . S
C3090 H3114 0.931 . S
C3091 C3090 1.386 . S
C3091 C3095 1.397 . S
C3092 C3090 1.397 . S
C3092 C3093 1.384 . S
C3092 H3115 0.930 . S
C3093 C3092 1.384 . S
C3093 C3094 1.377 . S
C3093 C3096 1.481 . S
C3094 C3093 1.377 . S
C3094 C3095 1.389 . S
C3094 H3116 0.929 . S
C3095 C3091 1.397 . S
C3095 C3094 1.389 . S
C3095 H3117 0.931 . S
C3096 C3093 1.481 . S
C3096 C3097 1.387 . S
C3096 C3101 1.390 . S
C3097 C3096 1.387 . S
C3097 C3098 1.401 . S
C3097 H3118 0.930 . S
C3098 C3097 1.401 . S
C3098 C3099 1.376 . S
C3098 C3107 1.511 . S
C3099 C3098 1.376 . S
C3099 C3100 1.392 . S
C3099 H3120 0.931 . S
C3100 C3099 1.392 . S
C3100 C3101 1.361 . S
C3100 C3102 1.500 . S
C3101 C3096 1.390 . S
C3101 C3100 1.361 . S
C3101 H3119 0.931 . S
C3102 C3100 1.500 . S
C3102 C3103 1.371 . S
C3102 C3104 1.365 . S
C3103 C3102 1.371 . S
C3103 C3113 1.386 . S
C3103 H3121 0.931 . S
C3104 C3102 1.365 . S
C3104 C3105 1.409 . S
C3104 H3122 0.929 . S
C3105 C3104 1.409 . S
C3105 C3106 1.380 . S
C3105 H3123 0.930 . S
C3106 C3105 1.380 . S
C3106 C3113 1.357 . S
C3107 C3098 1.511 . S
C3107 C3108 1.341 . S
C3107 C3109 1.371 . S
C3108 C3107 1.341 . S
C3108 C3112 1.394 . S
C3108 H3124 0.930 . S
C3109 C3107 1.371 . S
C3109 C3110 1.392 . S
C3109 H3125 0.931 . S
C3110 C3109 1.392 . S
C3110 C3111 1.331 . S
C3110 H3128 0.932 . S
C3111 C3110 1.331 . S
C3111 C3112 1.336 . S
C3112 C3108 1.394 . S
C3112 C3111 1.336 . S
C3112 H3127 0.929 . S
C3113 C3103 1.386 . S
C3113 C3106 1.357 . S
C3113 H3126 0.928 . S
H3114 C3090 0.931 . S
H3115 C3092 0.930 . S
H3116 C3094 0.929 . S
H3117 C3095 0.931 . S
H3118 C3097 0.930 . S
H3119 C3101 0.931 . S
H3120 C3099 0.931 . S
H3121 C3103 0.931 . S
H3122 C3104 0.929 . S
H3123 C3105 0.930 . S
H3124 C3108 0.930 . S
H3125 C3109 0.931 . S
H3126 C3113 0.928 . S
H3127 C3112 0.929 . S
H3128 C3110 0.932 . S
C3129 C3130 1.386 . S
C3129 C3131 1.397 . S
C3129 H3153 0.931 . S
C3130 C3129 1.386 . S
C3130 C3134 1.397 . S
C3131 C3129 1.397 . S
C3131 C3132 1.384 . S
C3131 H3154 0.930 . S
C3132 C3131 1.384 . S
C3132 C3133 1.377 . S
C3132 C3135 1.481 . S
C3133 C3132 1.377 . S
C3133 C3134 1.389 . S
C3133 H3155 0.929 . S
C3134 C3130 1.397 . S
C3134 C3133 1.389 . S
C3134 H3156 0.931 . S
C3135 C3132 1.481 . S
C3135 C3136 1.387 . S
C3135 C3140 1.390 . S
C3136 C3135 1.387 . S
C3136 C3137 1.401 . S
C3136 H3157 0.930 . S
C3137 C3136 1.401 . S
C3137 C3138 1.376 . S
C3137 C3146 1.511 . S
C3138 C3137 1.376 . S
C3138 C3139 1.392 . S
C3138 H3159 0.931 . S
C3139 C3138 1.392 . S
C3139 C3140 1.361 . S
C3139 C3141 1.500 . S
C3140 C3135 1.390 . S
C3140 C3139 1.361 . S
C3140 H3158 0.931 . S
C3141 C3139 1.500 . S
C3141 C3142 1.371 . S
C3141 C3143 1.365 . S
C3142 C3141 1.371 . S
C3142 C3152 1.386 . S
C3142 H3160 0.931 . S
C3143 C3141 1.365 . S
C3143 C3144 1.409 . S
C3143 H3161 0.929 . S
C3144 C3143 1.409 . S
C3144 C3145 1.380 . S
C3144 H3162 0.930 . S
C3145 C3144 1.380 . S
C3145 C3152 1.357 . S
C3146 C3137 1.511 . S
C3146 C3147 1.341 . S
C3146 C3148 1.371 . S
C3147 C3146 1.341 . S
C3147 C3151 1.394 . S
C3147 H3163 0.930 . S
C3148 C3146 1.371 . S
C3148 C3149 1.392 . S
C3148 H3164 0.931 . S
C3149 C3148 1.392 . S
C3149 C3150 1.331 . S
C3149 H3167 0.932 . S
C3150 C3149 1.331 . S
C3150 C3151 1.336 . S
C3151 C3147 1.394 . S
C3151 C3150 1.336 . S
C3151 H3166 0.929 . S
C3152 C3142 1.386 . S
C3152 C3145 1.357 . S
C3152 H3165 0.928 . S
H3153 C3129 0.931 . S
H3154 C3131 0.930 . S
H3155 C3133 0.929 . S
H3156 C3134 0.931 . S
H3157 C3136 0.930 . S
H3158 C3140 0.931 . S
H3159 C3138 0.931 . S
H3160 C3142 0.931 . S
H3161 C3143 0.929 . S
H3162 C3144 0.930 . S
H3163 C3147 0.930 . S
H3164 C3148 0.931 . S
H3165 C3152 0.928 . S
H3166 C3151 0.929 . S
H3167 C3149 0.932 . S
C3168 C3169 1.386 . S
C3168 C3170 1.397 . S
C3168 H3192 0.931 . S
C3169 C3168 1.386 . S
C3169 C3173 1.397 . S
C3170 C3168 1.397 . S
C3170 C3171 1.384 . S
C3170 H3193 0.930 . S
C3171 C3170 1.384 . S
C3171 C3172 1.377 . S
C3171 C3174 1.481 . S
C3172 C3171 1.377 . S
C3172 C3173 1.389 . S
C3172 H3194 0.929 . S
C3173 C3169 1.397 . S
C3173 C3172 1.389 . S
C3173 H3195 0.931 . S
C3174 C3171 1.481 . S
C3174 C3175 1.387 . S
C3174 C3179 1.390 . S
C3175 C3174 1.387 . S
C3175 C3176 1.401 . S
C3175 H3196 0.930 . S
C3176 C3175 1.401 . S
C3176 C3177 1.376 . S
C3176 C3185 1.511 . S
C3177 C3176 1.376 . S
C3177 C3178 1.392 . S
C3177 H3198 0.931 . S
C3178 C3177 1.392 . S
C3178 C3179 1.361 . S
C3178 C3180 1.500 . S
C3179 C3174 1.390 . S
C3179 C3178 1.361 . S
C3179 H3197 0.931 . S
C3180 C3178 1.500 . S
C3180 C3181 1.371 . S
C3180 C3182 1.365 . S
C3181 C3180 1.371 . S
C3181 C3191 1.386 . S
C3181 H3199 0.931 . S
C3182 C3180 1.365 . S
C3182 C3183 1.409 . S
C3182 H3200 0.929 . S
C3183 C3182 1.409 . S
C3183 C3184 1.380 . S
C3183 H3201 0.930 . S
C3184 C3183 1.380 . S
C3184 C3191 1.357 . S
C3185 C3176 1.511 . S
C3185 C3186 1.341 . S
C3185 C3187 1.371 . S
C3186 C3185 1.341 . S
C3186 C3190 1.394 . S
C3186 H3202 0.930 . S
C3187 C3185 1.371 . S
C3187 C3188 1.392 . S
C3187 H3203 0.931 . S
C3188 C3187 1.392 . S
C3188 C3189 1.331 . S
C3188 H3206 0.932 . S
C3189 C3188 1.331 . S
C3189 C3190 1.336 . S
C3190 C3186 1.394 . S
C3190 C3189 1.336 . S
C3190 H3205 0.929 . S
C3191 C3181 1.386 . S
C3191 C3184 1.357 . S
C3191 H3204 0.928 . S
H3192 C3168 0.931 . S
H3193 C3170 0.930 . S
H3194 C3172 0.929 . S
H3195 C3173 0.931 . S
H3196 C3175 0.930 . S
H3197 C3179 0.931 . S
H3198 C3177 0.931 . S
H3199 C3181 0.931 . S
H3200 C3182 0.929 . S
H3201 C3183 0.930 . S
H3202 C3186 0.930 . S
H3203 C3187 0.931 . S
H3204 C3191 0.928 . S
H3205 C3190 0.929 . S
H3206 C3188 0.932 . S
C3207 C3208 1.386 . S
C3207 C3209 1.397 . S
C3207 H3231 0.931 . S
C3208 C3207 1.386 . S
C3208 C3212 1.397 . S
C3209 C3207 1.397 . S
C3209 C3210 1.384 . S
C3209 H3232 0.930 . S
C3210 C3209 1.384 . S
C3210 C3211 1.377 . S
C3210 C3213 1.481 . S
C3211 C3210 1.377 . S
C3211 C3212 1.389 . S
C3211 H3233 0.929 . S
C3212 C3208 1.397 . S
C3212 C3211 1.389 . S
C3212 H3234 0.931 . S
C3213 C3210 1.481 . S
C3213 C3214 1.387 . S
C3213 C3218 1.390 . S
C3214 C3213 1.387 . S
C3214 C3215 1.401 . S
C3214 H3235 0.930 . S
C3215 C3214 1.401 . S
C3215 C3216 1.376 . S
C3215 C3224 1.511 . S
C3216 C3215 1.376 . S
C3216 C3217 1.392 . S
C3216 H3237 0.931 . S
C3217 C3216 1.392 . S
C3217 C3218 1.361 . S
C3217 C3219 1.500 . S
C3218 C3213 1.390 . S
C3218 C3217 1.361 . S
C3218 H3236 0.931 . S
C3219 C3217 1.500 . S
C3219 C3220 1.371 . S
C3219 C3221 1.365 . S
C3220 C3219 1.371 . S
C3220 C3230 1.386 . S
C3220 H3238 0.931 . S
C3221 C3219 1.365 . S
C3221 C3222 1.409 . S
C3221 H3239 0.929 . S
C3222 C3221 1.409 . S
C3222 C3223 1.380 . S
C3222 H3240 0.930 . S
C3223 C3222 1.380 . S
C3223 C3230 1.357 . S
C3224 C3215 1.511 . S
C3224 C3225 1.341 . S
C3224 C3226 1.371 . S
C3225 C3224 1.341 . S
C3225 C3229 1.394 . S
C3225 H3241 0.930 . S
C3226 C3224 1.371 . S
C3226 C3227 1.392 . S
C3226 H3242 0.931 . S
C3227 C3226 1.392 . S
C3227 C3228 1.331 . S
C3227 H3245 0.932 . S
C3228 C3227 1.331 . S
C3228 C3229 1.336 . S
C3229 C3225 1.394 . S
C3229 C3228 1.336 . S
C3229 H3244 0.929 . S
C3230 C3220 1.386 . S
C3230 C3223 1.357 . S
C3230 H3243 0.928 . S
H3231 C3207 0.931 . S
H3232 C3209 0.930 . S
H3233 C3211 0.929 . S
H3234 C3212 0.931 . S
H3235 C3214 0.930 . S
H3236 C3218 0.931 . S
H3237 C3216 0.931 . S
H3238 C3220 0.931 . S
H3239 C3221 0.929 . S
H3240 C3222 0.930 . S
H3241 C3225 0.930 . S
H3242 C3226 0.931 . S
H3243 C3230 0.928 . S
H3244 C3229 0.929 . S
H3245 C3227 0.932 . S
C3246 C3247 1.386 . S
C3246 C3248 1.397 . S
C3246 H3270 0.931 . S
C3247 C3246 1.386 . S
C3247 C3251 1.397 . S
C3248 C3246 1.397 . S
C3248 C3249 1.384 . S
C3248 H3271 0.930 . S
C3249 C3248 1.384 . S
C3249 C3250 1.377 . S
C3249 C3252 1.481 . S
C3250 C3249 1.377 . S
C3250 C3251 1.389 . S
C3250 H3272 0.929 . S
C3251 C3247 1.397 . S
C3251 C3250 1.389 . S
C3251 H3273 0.931 . S
C3252 C3249 1.481 . S
C3252 C3253 1.387 . S
C3252 C3257 1.390 . S
C3253 C3252 1.387 . S
C3253 C3254 1.401 . S
C3253 H3274 0.930 . S
C3254 C3253 1.401 . S
C3254 C3255 1.376 . S
C3254 C3263 1.511 . S
C3255 C3254 1.376 . S
C3255 C3256 1.392 . S
C3255 H3276 0.931 . S
C3256 C3255 1.392 . S
C3256 C3257 1.361 . S
C3256 C3258 1.500 . S
C3257 C3252 1.390 . S
C3257 C3256 1.361 . S
C3257 H3275 0.931 . S
C3258 C3256 1.500 . S
C3258 C3259 1.371 . S
C3258 C3260 1.365 . S
C3259 C3258 1.371 . S
C3259 C3269 1.386 . S
C3259 H3277 0.931 . S
C3260 C3258 1.365 . S
C3260 C3261 1.409 . S
C3260 H3278 0.929 . S
C3261 C3260 1.409 . S
C3261 C3262 1.380 . S
C3261 H3279 0.930 . S
C3262 C3261 1.380 . S
C3262 C3269 1.357 . S
C3263 C3254 1.511 . S
C3263 C3264 1.341 . S
C3263 C3265 1.371 . S
C3264 C3263 1.341 . S
C3264 C3268 1.394 . S
C3264 H3280 0.930 . S
C3265 C3263 1.371 . S
C3265 C3266 1.392 . S
C3265 H3281 0.931 . S
C3266 C3265 1.392 . S
C3266 C3267 1.331 . S
C3266 H3284 0.932 . S
C3267 C3266 1.331 . S
C3267 C3268 1.336 . S
C3268 C3264 1.394 . S
C3268 C3267 1.336 . S
C3268 H3283 0.929 . S
C3269 C3259 1.386 . S
C3269 C3262 1.357 . S
C3269 H3282 0.928 . S
H3270 C3246 0.931 . S
H3271 C3248 0.930 . S
H3272 C3250 0.929 . S
H3273 C3251 0.931 . S
H3274 C3253 0.930 . S
H3275 C3257 0.931 . S
H3276 C3255 0.931 . S
H3277 C3259 0.931 . S
H3278 C3260 0.929 . S
H3279 C3261 0.930 . S
H3280 C3264 0.930 . S
H3281 C3265 0.931 . S
H3282 C3269 0.928 . S
H3283 C3268 0.929 . S
H3284 C3266 0.932 . S
C3285 C3286 1.386 . S
C3285 C3287 1.397 . S
C3285 H3309 0.931 . S
C3286 C3285 1.386 . S
C3286 C3290 1.397 . S
C3287 C3285 1.397 . S
C3287 C3288 1.384 . S
C3287 H3310 0.930 . S
C3288 C3287 1.384 . S
C3288 C3289 1.377 . S
C3288 C3291 1.481 . S
C3289 C3288 1.377 . S
C3289 C3290 1.389 . S
C3289 H3311 0.929 . S
C3290 C3286 1.397 . S
C3290 C3289 1.389 . S
C3290 H3312 0.931 . S
C3291 C3288 1.481 . S
C3291 C3292 1.387 . S
C3291 C3296 1.390 . S
C3292 C3291 1.387 . S
C3292 C3293 1.401 . S
C3292 H3313 0.930 . S
C3293 C3292 1.401 . S
C3293 C3294 1.376 . S
C3293 C3302 1.511 . S
C3294 C3293 1.376 . S
C3294 C3295 1.392 . S
C3294 H3315 0.931 . S
C3295 C3294 1.392 . S
C3295 C3296 1.361 . S
C3295 C3297 1.500 . S
C3296 C3291 1.390 . S
C3296 C3295 1.361 . S
C3296 H3314 0.931 . S
C3297 C3295 1.500 . S
C3297 C3298 1.371 . S
C3297 C3299 1.365 . S
C3298 C3297 1.371 . S
C3298 C3308 1.386 . S
C3298 H3316 0.931 . S
C3299 C3297 1.365 . S
C3299 C3300 1.409 . S
C3299 H3317 0.929 . S
C3300 C3299 1.409 . S
C3300 C3301 1.380 . S
C3300 H3318 0.930 . S
C3301 C3300 1.380 . S
C3301 C3308 1.357 . S
C3302 C3293 1.511 . S
C3302 C3303 1.341 . S
C3302 C3304 1.371 . S
C3303 C3302 1.341 . S
C3303 C3307 1.394 . S
C3303 H3319 0.930 . S
C3304 C3302 1.371 . S
C3304 C3305 1.392 . S
C3304 H3320 0.931 . S
C3305 C3304 1.392 . S
C3305 C3306 1.331 . S
C3305 H3323 0.932 . S
C3306 C3305 1.331 . S
C3306 C3307 1.336 . S
C3307 C3303 1.394 . S
C3307 C3306 1.336 . S
C3307 H3322 0.929 . S
C3308 C3298 1.386 . S
C3308 C3301 1.357 . S
C3308 H3321 0.928 . S
H3309 C3285 0.931 . S
H3310 C3287 0.930 . S
H3311 C3289 0.929 . S
H3312 C3290 0.931 . S
H3313 C3292 0.930 . S
H3314 C3296 0.931 . S
H3315 C3294 0.931 . S
H3316 C3298 0.931 . S
H3317 C3299 0.929 . S
H3318 C3300 0.930 . S
H3319 C3303 0.930 . S
H3320 C3304 0.931 . S
H3321 C3308 0.928 . S
H3322 C3307 0.929 . S
H3323 C3305 0.932 . S
C3324 C3325 1.386 . S
C3324 C3326 1.397 . S
C3324 H3348 0.931 . S
C3325 C3324 1.386 . S
C3325 C3329 1.397 . S
C3326 C3324 1.397 . S
C3326 C3327 1.384 . S
C3326 H3349 0.930 . S
C3327 C3326 1.384 . S
C3327 C3328 1.377 . S
C3327 C3330 1.481 . S
C3328 C3327 1.377 . S
C3328 C3329 1.389 . S
C3328 H3350 0.929 . S
C3329 C3325 1.397 . S
C3329 C3328 1.389 . S
C3329 H3351 0.931 . S
C3330 C3327 1.481 . S
C3330 C3331 1.387 . S
C3330 C3335 1.390 . S
C3331 C3330 1.387 . S
C3331 C3332 1.401 . S
C3331 H3352 0.930 . S
C3332 C3331 1.401 . S
C3332 C3333 1.376 . S
C3332 C3341 1.511 . S
C3333 C3332 1.376 . S
C3333 C3334 1.392 . S
C3333 H3354 0.931 . S
C3334 C3333 1.392 . S
C3334 C3335 1.361 . S
C3334 C3336 1.500 . S
C3335 C3330 1.390 . S
C3335 C3334 1.361 . S
C3335 H3353 0.931 . S
C3336 C3334 1.500 . S
C3336 C3337 1.371 . S
C3336 C3338 1.365 . S
C3337 C3336 1.371 . S
C3337 C3347 1.386 . S
C3337 H3355 0.931 . S
C3338 C3336 1.365 . S
C3338 C3339 1.409 . S
C3338 H3356 0.929 . S
C3339 C3338 1.409 . S
C3339 C3340 1.380 . S
C3339 H3357 0.930 . S
C3340 C3339 1.380 . S
C3340 C3347 1.357 . S
C3341 C3332 1.511 . S
C3341 C3342 1.341 . S
C3341 C3343 1.371 . S
C3342 C3341 1.341 . S
C3342 C3346 1.394 . S
C3342 H3358 0.930 . S
C3343 C3341 1.371 . S
C3343 C3344 1.392 . S
C3343 H3359 0.931 . S
C3344 C3343 1.392 . S
C3344 C3345 1.331 . S
C3344 H3362 0.932 . S
C3345 C3344 1.331 . S
C3345 C3346 1.336 . S
C3346 C3342 1.394 . S
C3346 C3345 1.336 . S
C3346 H3361 0.929 . S
C3347 C3337 1.386 . S
C3347 C3340 1.357 . S
C3347 H3360 0.928 . S
H3348 C3324 0.931 . S
H3349 C3326 0.930 . S
H3350 C3328 0.929 . S
H3351 C3329 0.931 . S
H3352 C3331 0.930 . S
H3353 C3335 0.931 . S
H3354 C3333 0.931 . S
H3355 C3337 0.931 . S
H3356 C3338 0.929 . S
H3357 C3339 0.930 . S
H3358 C3342 0.930 . S
H3359 C3343 0.931 . S
H3360 C3347 0.928 . S
H3361 C3346 0.929 . S
H3362 C3344 0.932 . S
C3363 C3364 1.386 . S
C3363 C3365 1.397 . S
C3363 H3387 0.931 . S
C3364 C3363 1.386 . S
C3364 C3368 1.397 . S
C3365 C3363 1.397 . S
C3365 C3366 1.384 . S
C3365 H3388 0.930 . S
C3366 C3365 1.384 . S
C3366 C3367 1.377 . S
C3366 C3369 1.481 . S
C3367 C3366 1.377 . S
C3367 C3368 1.389 . S
C3367 H3389 0.929 . S
C3368 C3364 1.397 . S
C3368 C3367 1.389 . S
C3368 H3390 0.931 . S
C3369 C3366 1.481 . S
C3369 C3370 1.387 . S
C3369 C3374 1.390 . S
C3370 C3369 1.387 . S
C3370 C3371 1.401 . S
C3370 H3391 0.930 . S
C3371 C3370 1.401 . S
C3371 C3372 1.376 . S
C3371 C3380 1.511 . S
C3372 C3371 1.376 . S
C3372 C3373 1.392 . S
C3372 H3393 0.931 . S
C3373 C3372 1.392 . S
C3373 C3374 1.361 . S
C3373 C3375 1.500 . S
C3374 C3369 1.390 . S
C3374 C3373 1.361 . S
C3374 H3392 0.931 . S
C3375 C3373 1.500 . S
C3375 C3376 1.371 . S
C3375 C3377 1.365 . S
C3376 C3375 1.371 . S
C3376 C3386 1.386 . S
C3376 H3394 0.931 . S
C3377 C3375 1.365 . S
C3377 C3378 1.409 . S
C3377 H3395 0.929 . S
C3378 C3377 1.409 . S
C3378 C3379 1.380 . S
C3378 H3396 0.930 . S
C3379 C3378 1.380 . S
C3379 C3386 1.357 . S
C3380 C3371 1.511 . S
C3380 C3381 1.341 . S
C3380 C3382 1.371 . S
C3381 C3380 1.341 . S
C3381 C3385 1.394 . S
C3381 H3397 0.930 . S
C3382 C3380 1.371 . S
C3382 C3383 1.392 . S
C3382 H3398 0.931 . S
C3383 C3382 1.392 . S
C3383 C3384 1.331 . S
C3383 H3401 0.932 . S
C3384 C3383 1.331 . S
C3384 C3385 1.336 . S
C3385 C3381 1.394 . S
C3385 C3384 1.336 . S
C3385 H3400 0.929 . S
C3386 C3376 1.386 . S
C3386 C3379 1.357 . S
C3386 H3399 0.928 . S
H3387 C3363 0.931 . S
H3388 C3365 0.930 . S
H3389 C3367 0.929 . S
H3390 C3368 0.931 . S
H3391 C3370 0.930 . S
H3392 C3374 0.931 . S
H3393 C3372 0.931 . S
H3394 C3376 0.931 . S
H3395 C3377 0.929 . S
H3396 C3378 0.930 . S
H3397 C3381 0.930 . S
H3398 C3382 0.931 . S
H3399 C3386 0.928 . S
H3400 C3385 0.929 . S
H3401 C3383 0.932 . S
C3402 C3403 1.386 . S
C3402 C3404 1.397 . S
C3402 H3426 0.931 . S
C3403 C3402 1.386 . S
C3403 C3407 1.397 . S
C3404 C3402 1.397 . S
C3404 C3405 1.384 . S
C3404 H3427 0.930 . S
C3405 C3404 1.384 . S
C3405 C3406 1.377 . S
C3405 C3408 1.481 . S
C3406 C3405 1.377 . S
C3406 C3407 1.389 . S
C3406 H3428 0.929 . S
C3407 C3403 1.397 . S
C3407 C3406 1.389 . S
C3407 H3429 0.931 . S
C3408 C3405 1.481 . S
C3408 C3409 1.387 . S
C3408 C3413 1.390 . S
C3409 C3408 1.387 . S
C3409 C3410 1.401 . S
C3409 H3430 0.930 . S
C3410 C3409 1.401 . S
C3410 C3411 1.376 . S
C3410 C3419 1.511 . S
C3411 C3410 1.376 . S
C3411 C3412 1.392 . S
C3411 H3432 0.931 . S
C3412 C3411 1.392 . S
C3412 C3413 1.361 . S
C3412 C3414 1.500 . S
C3413 C3408 1.390 . S
C3413 C3412 1.361 . S
C3413 H3431 0.931 . S
C3414 C3412 1.500 . S
C3414 C3415 1.371 . S
C3414 C3416 1.365 . S
C3415 C3414 1.371 . S
C3415 C3425 1.386 . S
C3415 H3433 0.931 . S
C3416 C3414 1.365 . S
C3416 C3417 1.409 . S
C3416 H3434 0.929 . S
C3417 C3416 1.409 . S
C3417 C3418 1.380 . S
C3417 H3435 0.930 . S
C3418 C3417 1.380 . S
C3418 C3425 1.357 . S
C3419 C3410 1.511 . S
C3419 C3420 1.341 . S
C3419 C3421 1.371 . S
C3420 C3419 1.341 . S
C3420 C3424 1.394 . S
C3420 H3436 0.930 . S
C3421 C3419 1.371 . S
C3421 C3422 1.392 . S
C3421 H3437 0.931 . S
C3422 C3421 1.392 . S
C3422 C3423 1.331 . S
C3422 H3440 0.932 . S
C3423 C3422 1.331 . S
C3423 C3424 1.336 . S
C3424 C3420 1.394 . S
C3424 C3423 1.336 . S
C3424 H3439 0.929 . S
C3425 C3415 1.386 . S
C3425 C3418 1.357 . S
C3425 H3438 0.928 . S
H3426 C3402 0.931 . S
H3427 C3404 0.930 . S
H3428 C3406 0.929 . S
H3429 C3407 0.931 . S
H3430 C3409 0.930 . S
H3431 C3413 0.931 . S
H3432 C3411 0.931 . S
H3433 C3415 0.931 . S
H3434 C3416 0.929 . S
H3435 C3417 0.930 . S
H3436 C3420 0.930 . S
H3437 C3421 0.931 . S
H3438 C3425 0.928 . S
H3439 C3424 0.929 . S
H3440 C3422 0.932 . S
C3441 C3442 1.386 . S
C3441 C3443 1.397 . S
C3441 H3465 0.931 . S
C3442 C3441 1.386 . S
C3442 C3446 1.397 . S
C3443 C3441 1.397 . S
C3443 C3444 1.384 . S
C3443 H3466 0.930 . S
C3444 C3443 1.384 . S
C3444 C3445 1.377 . S
C3444 C3447 1.481 . S
C3445 C3444 1.377 . S
C3445 C3446 1.389 . S
C3445 H3467 0.929 . S
C3446 C3442 1.397 . S
C3446 C3445 1.389 . S
C3446 H3468 0.931 . S
C3447 C3444 1.481 . S
C3447 C3448 1.387 . S
C3447 C3452 1.390 . S
C3448 C3447 1.387 . S
C3448 C3449 1.401 . S
C3448 H3469 0.930 . S
C3449 C3448 1.401 . S
C3449 C3450 1.376 . S
C3449 C3458 1.511 . S
C3450 C3449 1.376 . S
C3450 C3451 1.392 . S
C3450 H3471 0.931 . S
C3451 C3450 1.392 . S
C3451 C3452 1.361 . S
C3451 C3453 1.500 . S
C3452 C3447 1.390 . S
C3452 C3451 1.361 . S
C3452 H3470 0.931 . S
C3453 C3451 1.500 . S
C3453 C3454 1.371 . S
C3453 C3455 1.365 . S
C3454 C3453 1.371 . S
C3454 C3464 1.386 . S
C3454 H3472 0.931 . S
C3455 C3453 1.365 . S
C3455 C3456 1.409 . S
C3455 H3473 0.929 . S
C3456 C3455 1.409 . S
C3456 C3457 1.380 . S
C3456 H3474 0.930 . S
C3457 C3456 1.380 . S
C3457 C3464 1.357 . S
C3458 C3449 1.511 . S
C3458 C3459 1.341 . S
C3458 C3460 1.371 . S
C3459 C3458 1.341 . S
C3459 C3463 1.394 . S
C3459 H3475 0.930 . S
C3460 C3458 1.371 . S
C3460 C3461 1.392 . S
C3460 H3476 0.931 . S
C3461 C3460 1.392 . S
C3461 C3462 1.331 . S
C3461 H3479 0.932 . S
C3462 C3461 1.331 . S
C3462 C3463 1.336 . S
C3463 C3459 1.394 . S
C3463 C3462 1.336 . S
C3463 H3478 0.929 . S
C3464 C3454 1.386 . S
C3464 C3457 1.357 . S
C3464 H3477 0.928 . S
H3465 C3441 0.931 . S
H3466 C3443 0.930 . S
H3467 C3445 0.929 . S
H3468 C3446 0.931 . S
H3469 C3448 0.930 . S
H3470 C3452 0.931 . S
H3471 C3450 0.931 . S
H3472 C3454 0.931 . S
H3473 C3455 0.929 . S
H3474 C3456 0.930 . S
H3475 C3459 0.930 . S
H3476 C3460 0.931 . S
H3477 C3464 0.928 . S
H3478 C3463 0.929 . S
H3479 C3461 0.932 . S
C3480 C3481 1.386 . S
C3480 C3482 1.397 . S
C3480 H3504 0.931 . S
C3481 C3480 1.386 . S
C3481 C3485 1.397 . S
C3482 C3480 1.397 . S
C3482 C3483 1.384 . S
C3482 H3505 0.930 . S
C3483 C3482 1.384 . S
C3483 C3484 1.377 . S
C3483 C3486 1.481 . S
C3484 C3483 1.377 . S
C3484 C3485 1.389 . S
C3484 H3506 0.929 . S
C3485 C3481 1.397 . S
C3485 C3484 1.389 . S
C3485 H3507 0.931 . S
C3486 C3483 1.481 . S
C3486 C3487 1.387 . S
C3486 C3491 1.390 . S
C3487 C3486 1.387 . S
C3487 C3488 1.401 . S
C3487 H3508 0.930 . S
C3488 C3487 1.401 . S
C3488 C3489 1.376 . S
C3488 C3497 1.511 . S
C3489 C3488 1.376 . S
C3489 C3490 1.392 . S
C3489 H3510 0.931 . S
C3490 C3489 1.392 . S
C3490 C3491 1.361 . S
C3490 C3492 1.500 . S
C3491 C3486 1.390 . S
C3491 C3490 1.361 . S
C3491 H3509 0.931 . S
C3492 C3490 1.500 . S
C3492 C3493 1.371 . S
C3492 C3494 1.365 . S
C3493 C3492 1.371 . S
C3493 C3503 1.386 . S
C3493 H3511 0.931 . S
C3494 C3492 1.365 . S
C3494 C3495 1.409 . S
C3494 H3512 0.929 . S
C3495 C3494 1.409 . S
C3495 C3496 1.380 . S
C3495 H3513 0.930 . S
C3496 C3495 1.380 . S
C3496 C3503 1.357 . S
C3497 C3488 1.511 . S
C3497 C3498 1.341 . S
C3497 C3499 1.371 . S
C3498 C3497 1.341 . S
C3498 C3502 1.394 . S
C3498 H3514 0.930 . S
C3499 C3497 1.371 . S
C3499 C3500 1.392 . S
C3499 H3515 0.931 . S
C3500 C3499 1.392 . S
C3500 C3501 1.331 . S
C3500 H3518 0.932 . S
C3501 C3500 1.331 . S
C3501 C3502 1.336 . S
C3502 C3498 1.394 . S
C3502 C3501 1.336 . S
C3502 H3517 0.929 . S
C3503 C3493 1.386 . S
C3503 C3496 1.357 . S
C3503 H3516 0.928 . S
H3504 C3480 0.931 . S
H3505 C3482 0.930 . S
H3506 C3484 0.929 . S
H3507 C3485 0.931 . S
H3508 C3487 0.930 . S
H3509 C3491 0.931 . S
H3510 C3489 0.931 . S
H3511 C3493 0.931 . S
H3512 C3494 0.929 . S
H3513 C3495 0.930 . S
H3514 C3498 0.930 . S
H3515 C3499 0.931 . S
H3516 C3503 0.928 . S
H3517 C3502 0.929 . S
H3518 C3500 0.932 . S
C3519 C3520 1.386 . S
C3519 C3521 1.397 . S
C3519 H3543 0.931 . S
C3520 C3519 1.386 . S
C3520 C3524 1.397 . S
C3521 C3519 1.397 . S
C3521 C3522 1.384 . S
C3521 H3544 0.930 . S
C3522 C3521 1.384 . S
C3522 C3523 1.377 . S
C3522 C3525 1.481 . S
C3523 C3522 1.377 . S
C3523 C3524 1.389 . S
C3523 H3545 0.929 . S
C3524 C3520 1.397 . S
C3524 C3523 1.389 . S
C3524 H3546 0.931 . S
C3525 C3522 1.481 . S
C3525 C3526 1.387 . S
C3525 C3530 1.390 . S
C3526 C3525 1.387 . S
C3526 C3527 1.401 . S
C3526 H3547 0.930 . S
C3527 C3526 1.401 . S
C3527 C3528 1.376 . S
C3527 C3536 1.511 . S
C3528 C3527 1.376 . S
C3528 C3529 1.392 . S
C3528 H3549 0.931 . S
C3529 C3528 1.392 . S
C3529 C3530 1.361 . S
C3529 C3531 1.500 . S
C3530 C3525 1.390 . S
C3530 C3529 1.361 . S
C3530 H3548 0.931 . S
C3531 C3529 1.500 . S
C3531 C3532 1.371 . S
C3531 C3533 1.365 . S
C3532 C3531 1.371 . S
C3532 C3542 1.386 . S
C3532 H3550 0.931 . S
C3533 C3531 1.365 . S
C3533 C3534 1.409 . S
C3533 H3551 0.929 . S
C3534 C3533 1.409 . S
C3534 C3535 1.380 . S
C3534 H3552 0.930 . S
C3535 C3534 1.380 . S
C3535 C3542 1.357 . S
C3536 C3527 1.511 . S
C3536 C3537 1.341 . S
C3536 C3538 1.371 . S
C3537 C3536 1.341 . S
C3537 C3541 1.394 . S
C3537 H3553 0.930 . S
C3538 C3536 1.371 . S
C3538 C3539 1.392 . S
C3538 H3554 0.931 . S
C3539 C3538 1.392 . S
C3539 C3540 1.331 . S
C3539 H3557 0.932 . S
C3540 C3539 1.331 . S
C3540 C3541 1.336 . S
C3541 C3537 1.394 . S
C3541 C3540 1.336 . S
C3541 H3556 0.929 . S
C3542 C3532 1.386 . S
C3542 C3535 1.357 . S
C3542 H3555 0.928 . S
H3543 C3519 0.931 . S
H3544 C3521 0.930 . S
H3545 C3523 0.929 . S
H3546 C3524 0.931 . S
H3547 C3526 0.930 . S
H3548 C3530 0.931 . S
H3549 C3528 0.931 . S
H3550 C3532 0.931 . S
H3551 C3533 0.929 . S
H3552 C3534 0.930 . S
H3553 C3537 0.930 . S
H3554 C3538 0.931 . S
H3555 C3542 0.928 . S
H3556 C3541 0.929 . S
H3557 C3539 0.932 . S
C3558 C3559 1.386 . S
C3558 C3560 1.397 . S
C3558 H3582 0.931 . S
C3559 C3558 1.386 . S
C3559 C3563 1.397 . S
C3560 C3558 1.397 . S
C3560 C3561 1.384 . S
C3560 H3583 0.930 . S
C3561 C3560 1.384 . S
C3561 C3562 1.377 . S
C3561 C3564 1.481 . S
C3562 C3561 1.377 . S
C3562 C3563 1.389 . S
C3562 H3584 0.929 . S
C3563 C3559 1.397 . S
C3563 C3562 1.389 . S
C3563 H3585 0.931 . S
C3564 C3561 1.481 . S
C3564 C3565 1.387 . S
C3564 C3569 1.390 . S
C3565 C3564 1.387 . S
C3565 C3566 1.401 . S
C3565 H3586 0.930 . S
C3566 C3565 1.401 . S
C3566 C3567 1.376 . S
C3566 C3575 1.511 . S
C3567 C3566 1.376 . S
C3567 C3568 1.392 . S
C3567 H3588 0.931 . S
C3568 C3567 1.392 . S
C3568 C3569 1.361 . S
C3568 C3570 1.500 . S
C3569 C3564 1.390 . S
C3569 C3568 1.361 . S
C3569 H3587 0.931 . S
C3570 C3568 1.500 . S
C3570 C3571 1.371 . S
C3570 C3572 1.365 . S
C3571 C3570 1.371 . S
C3571 C3581 1.386 . S
C3571 H3589 0.931 . S
C3572 C3570 1.365 . S
C3572 C3573 1.409 . S
C3572 H3590 0.929 . S
C3573 C3572 1.409 . S
C3573 C3574 1.380 . S
C3573 H3591 0.930 . S
C3574 C3573 1.380 . S
C3574 C3581 1.357 . S
C3575 C3566 1.511 . S
C3575 C3576 1.341 . S
C3575 C3577 1.371 . S
C3576 C3575 1.341 . S
C3576 C3580 1.394 . S
C3576 H3592 0.930 . S
C3577 C3575 1.371 . S
C3577 C3578 1.392 . S
C3577 H3593 0.931 . S
C3578 C3577 1.392 . S
C3578 C3579 1.331 . S
C3578 H3596 0.932 . S
C3579 C3578 1.331 . S
C3579 C3580 1.336 . S
C3580 C3576 1.394 . S
C3580 C3579 1.336 . S
C3580 H3595 0.929 . S
C3581 C3571 1.386 . S
C3581 C3574 1.357 . S
C3581 H3594 0.928 . S
H3582 C3558 0.931 . S
H3583 C3560 0.930 . S
H3584 C3562 0.929 . S
H3585 C3563 0.931 . S
H3586 C3565 0.930 . S
H3587 C3569 0.931 . S
H3588 C3567 0.931 . S
H3589 C3571 0.931 . S
H3590 C3572 0.929 . S
H3591 C3573 0.930 . S
H3592 C3576 0.930 . S
H3593 C3577 0.931 . S
H3594 C3581 0.928 . S
H3595 C3580 0.929 . S
H3596 C3578 0.932 . S
C3597 C3598 1.386 . S
C3597 C3599 1.397 . S
C3597 H3621 0.931 . S
C3598 C3597 1.386 . S
C3598 C3602 1.397 . S
C3599 C3597 1.397 . S
C3599 C3600 1.384 . S
C3599 H3622 0.930 . S
C3600 C3599 1.384 . S
C3600 C3601 1.377 . S
C3600 C3603 1.481 . S
C3601 C3600 1.377 . S
C3601 C3602 1.389 . S
C3601 H3623 0.929 . S
C3602 C3598 1.397 . S
C3602 C3601 1.389 . S
C3602 H3624 0.931 . S
C3603 C3600 1.481 . S
C3603 C3604 1.387 . S
C3603 C3608 1.390 . S
C3604 C3603 1.387 . S
C3604 C3605 1.401 . S
C3604 H3625 0.930 . S
C3605 C3604 1.401 . S
C3605 C3606 1.376 . S
C3605 C3614 1.511 . S
C3606 C3605 1.376 . S
C3606 C3607 1.392 . S
C3606 H3627 0.931 . S
C3607 C3606 1.392 . S
C3607 C3608 1.361 . S
C3607 C3609 1.500 . S
C3608 C3603 1.390 . S
C3608 C3607 1.361 . S
C3608 H3626 0.931 . S
C3609 C3607 1.500 . S
C3609 C3610 1.371 . S
C3609 C3611 1.365 . S
C3610 C3609 1.371 . S
C3610 C3620 1.386 . S
C3610 H3628 0.931 . S
C3611 C3609 1.365 . S
C3611 C3612 1.409 . S
C3611 H3629 0.929 . S
C3612 C3611 1.409 . S
C3612 C3613 1.380 . S
C3612 H3630 0.930 . S
C3613 C3612 1.380 . S
C3613 C3620 1.357 . S
C3614 C3605 1.511 . S
C3614 C3615 1.341 . S
C3614 C3616 1.371 . S
C3615 C3614 1.341 . S
C3615 C3619 1.394 . S
C3615 H3631 0.930 . S
C3616 C3614 1.371 . S
C3616 C3617 1.392 . S
C3616 H3632 0.931 . S
C3617 C3616 1.392 . S
C3617 C3618 1.331 . S
C3617 H3635 0.932 . S
C3618 C3617 1.331 . S
C3618 C3619 1.336 . S
C3619 C3615 1.394 . S
C3619 C3618 1.336 . S
C3619 H3634 0.929 . S
C3620 C3610 1.386 . S
C3620 C3613 1.357 . S
C3620 H3633 0.928 . S
H3621 C3597 0.931 . S
H3622 C3599 0.930 . S
H3623 C3601 0.929 . S
H3624 C3602 0.931 . S
H3625 C3604 0.930 . S
H3626 C3608 0.931 . S
H3627 C3606 0.931 . S
H3628 C3610 0.931 . S
H3629 C3611 0.929 . S
H3630 C3612 0.930 . S
H3631 C3615 0.930 . S
H3632 C3616 0.931 . S
H3633 C3620 0.928 . S
H3634 C3619 0.929 . S
H3635 C3617 0.932 . S
C3636 C3637 1.386 . S
C3636 C3638 1.397 . S
C3636 H3660 0.931 . S
C3637 C3636 1.386 . S
C3637 C3641 1.397 . S
C3638 C3636 1.397 . S
C3638 C3639 1.384 . S
C3638 H3661 0.930 . S
C3639 C3638 1.384 . S
C3639 C3640 1.377 . S
C3639 C3642 1.481 . S
C3640 C3639 1.377 . S
C3640 C3641 1.389 . S
C3640 H3662 0.929 . S
C3641 C3637 1.397 . S
C3641 C3640 1.389 . S
C3641 H3663 0.931 . S
C3642 C3639 1.481 . S
C3642 C3643 1.387 . S
C3642 C3647 1.390 . S
C3643 C3642 1.387 . S
C3643 C3644 1.401 . S
C3643 H3664 0.930 . S
C3644 C3643 1.401 . S
C3644 C3645 1.376 . S
C3644 C3653 1.511 . S
C3645 C3644 1.376 . S
C3645 C3646 1.392 . S
C3645 H3666 0.931 . S
C3646 C3645 1.392 . S
C3646 C3647 1.361 . S
C3646 C3648 1.500 . S
C3647 C3642 1.390 . S
C3647 C3646 1.361 . S
C3647 H3665 0.931 . S
C3648 C3646 1.500 . S
C3648 C3649 1.371 . S
C3648 C3650 1.365 . S
C3649 C3648 1.371 . S
C3649 C3659 1.386 . S
C3649 H3667 0.931 . S
C3650 C3648 1.365 . S
C3650 C3651 1.409 . S
C3650 H3668 0.929 . S
C3651 C3650 1.409 . S
C3651 C3652 1.380 . S
C3651 H3669 0.930 . S
C3652 C3651 1.380 . S
C3652 C3659 1.357 . S
C3653 C3644 1.511 . S
C3653 C3654 1.341 . S
C3653 C3655 1.371 . S
C3654 C3653 1.341 . S
C3654 C3658 1.394 . S
C3654 H3670 0.930 . S
C3655 C3653 1.371 . S
C3655 C3656 1.392 . S
C3655 H3671 0.931 . S
C3656 C3655 1.392 . S
C3656 C3657 1.331 . S
C3656 H3674 0.932 . S
C3657 C3656 1.331 . S
C3657 C3658 1.336 . S
C3658 C3654 1.394 . S
C3658 C3657 1.336 . S
C3658 H3673 0.929 . S
C3659 C3649 1.386 . S
C3659 C3652 1.357 . S
C3659 H3672 0.928 . S
H3660 C3636 0.931 . S
H3661 C3638 0.930 . S
H3662 C3640 0.929 . S
H3663 C3641 0.931 . S
H3664 C3643 0.930 . S
H3665 C3647 0.931 . S
H3666 C3645 0.931 . S
H3667 C3649 0.931 . S
H3668 C3650 0.929 . S
H3669 C3651 0.930 . S
H3670 C3654 0.930 . S
H3671 C3655 0.931 . S
H3672 C3659 0.928 . S
H3673 C3658 0.929 . S
H3674 C3656 0.932 . S
C3675 C3676 1.386 . S
C3675 C3677 1.397 . S
C3675 H3699 0.931 . S
C3676 C3675 1.386 . S
C3676 C3680 1.397 . S
C3677 C3675 1.397 . S
C3677 C3678 1.384 . S
C3677 H3700 0.930 . S
C3678 C3677 1.384 . S
C3678 C3679 1.377 . S
C3678 C3681 1.481 . S
C3679 C3678 1.377 . S
C3679 C3680 1.389 . S
C3679 H3701 0.929 . S
C3680 C3676 1.397 . S
C3680 C3679 1.389 . S
C3680 H3702 0.931 . S
C3681 C3678 1.481 . S
C3681 C3682 1.387 . S
C3681 C3686 1.390 . S
C3682 C3681 1.387 . S
C3682 C3683 1.401 . S
C3682 H3703 0.930 . S
C3683 C3682 1.401 . S
C3683 C3684 1.376 . S
C3683 C3692 1.511 . S
C3684 C3683 1.376 . S
C3684 C3685 1.392 . S
C3684 H3705 0.931 . S
C3685 C3684 1.392 . S
C3685 C3686 1.361 . S
C3685 C3687 1.500 . S
C3686 C3681 1.390 . S
C3686 C3685 1.361 . S
C3686 H3704 0.931 . S
C3687 C3685 1.500 . S
C3687 C3688 1.371 . S
C3687 C3689 1.365 . S
C3688 C3687 1.371 . S
C3688 C3698 1.386 . S
C3688 H3706 0.931 . S
C3689 C3687 1.365 . S
C3689 C3690 1.409 . S
C3689 H3707 0.929 . S
C3690 C3689 1.409 . S
C3690 C3691 1.380 . S
C3690 H3708 0.930 . S
C3691 C3690 1.380 . S
C3691 C3698 1.357 . S
C3692 C3683 1.511 . S
C3692 C3693 1.341 . S
C3692 C3694 1.371 . S
C3693 C3692 1.341 . S
C3693 C3697 1.394 . S
C3693 H3709 0.930 . S
C3694 C3692 1.371 . S
C3694 C3695 1.392 . S
C3694 H3710 0.931 . S
C3695 C3694 1.392 . S
C3695 C3696 1.331 . S
C3695 H3713 0.932 . S
C3696 C3695 1.331 . S
C3696 C3697 1.336 . S
C3697 C3693 1.394 . S
C3697 C3696 1.336 . S
C3697 H3712 0.929 . S
C3698 C3688 1.386 . S
C3698 C3691 1.357 . S
C3698 H3711 0.928 . S
H3699 C3675 0.931 . S
H3700 C3677 0.930 . S
H3701 C3679 0.929 . S
H3702 C3680 0.931 . S
H3703 C3682 0.930 . S
H3704 C3686 0.931 . S
H3705 C3684 0.931 . S
H3706 C3688 0.931 . S
H3707 C3689 0.929 . S
H3708 C3690 0.930 . S
H3709 C3693 0.930 . S
H3710 C3694 0.931 . S
H3711 C3698 0.928 . S
H3712 C3697 0.929 . S
H3713 C3695 0.932 . S
C3714 C3715 1.386 . S
C3714 C3716 1.397 . S
C3714 H3738 0.931 . S
C3715 C3714 1.386 . S
C3715 C3719 1.397 . S
C3716 C3714 1.397 . S
C3716 C3717 1.384 . S
C3716 H3739 0.930 . S
C3717 C3716 1.384 . S
C3717 C3718 1.377 . S
C3717 C3720 1.481 . S
C3718 C3717 1.377 . S
C3718 C3719 1.389 . S
C3718 H3740 0.929 . S
C3719 C3715 1.397 . S
C3719 C3718 1.389 . S
C3719 H3741 0.931 . S
C3720 C3717 1.481 . S
C3720 C3721 1.387 . S
C3720 C3725 1.390 . S
C3721 C3720 1.387 . S
C3721 C3722 1.401 . S
C3721 H3742 0.930 . S
C3722 C3721 1.401 . S
C3722 C3723 1.376 . S
C3722 C3731 1.511 . S
C3723 C3722 1.376 . S
C3723 C3724 1.392 . S
C3723 H3744 0.931 . S
C3724 C3723 1.392 . S
C3724 C3725 1.361 . S
C3724 C3726 1.500 . S
C3725 C3720 1.390 . S
C3725 C3724 1.361 . S
C3725 H3743 0.931 . S
C3726 C3724 1.500 . S
C3726 C3727 1.371 . S
C3726 C3728 1.365 . S
C3727 C3726 1.371 . S
C3727 C3737 1.386 . S
C3727 H3745 0.931 . S
C3728 C3726 1.365 . S
C3728 C3729 1.409 . S
C3728 H3746 0.929 . S
C3729 C3728 1.409 . S
C3729 C3730 1.380 . S
C3729 H3747 0.930 . S
C3730 C3729 1.380 . S
C3730 C3737 1.357 . S
C3731 C3722 1.511 . S
C3731 C3732 1.341 . S
C3731 C3733 1.371 . S
C3732 C3731 1.341 . S
C3732 C3736 1.394 . S
C3732 H3748 0.930 . S
C3733 C3731 1.371 . S
C3733 C3734 1.392 . S
C3733 H3749 0.931 . S
C3734 C3733 1.392 . S
C3734 C3735 1.331 . S
C3734 H3752 0.932 . S
C3735 C3734 1.331 . S
C3735 C3736 1.336 . S
C3736 C3732 1.394 . S
C3736 C3735 1.336 . S
C3736 H3751 0.929 . S
C3737 C3727 1.386 . S
C3737 C3730 1.357 . S
C3737 H3750 0.928 . S
H3738 C3714 0.931 . S
H3739 C3716 0.930 . S
H3740 C3718 0.929 . S
H3741 C3719 0.931 . S
H3742 C3721 0.930 . S
H3743 C3725 0.931 . S
H3744 C3723 0.931 . S
H3745 C3727 0.931 . S
H3746 C3728 0.929 . S
H3747 C3729 0.930 . S
H3748 C3732 0.930 . S
H3749 C3733 0.931 . S
H3750 C3737 0.928 . S
H3751 C3736 0.929 . S
H3752 C3734 0.932 . S
C3753 C3754 1.386 . S
C3753 C3755 1.397 . S
C3753 H3777 0.931 . S
C3754 C3753 1.386 . S
C3754 C3758 1.397 . S
C3755 C3753 1.397 . S
C3755 C3756 1.384 . S
C3755 H3778 0.930 . S
C3756 C3755 1.384 . S
C3756 C3757 1.377 . S
C3756 C3759 1.481 . S
C3757 C3756 1.377 . S
C3757 C3758 1.389 . S
C3757 H3779 0.929 . S
C3758 C3754 1.397 . S
C3758 C3757 1.389 . S
C3758 H3780 0.931 . S
C3759 C3756 1.481 . S
C3759 C3760 1.387 . S
C3759 C3764 1.390 . S
C3760 C3759 1.387 . S
C3760 C3761 1.401 . S
C3760 H3781 0.930 . S
C3761 C3760 1.401 . S
C3761 C3762 1.376 . S
C3761 C3770 1.511 . S
C3762 C3761 1.376 . S
C3762 C3763 1.392 . S
C3762 H3783 0.931 . S
C3763 C3762 1.392 . S
C3763 C3764 1.361 . S
C3763 C3765 1.500 . S
C3764 C3759 1.390 . S
C3764 C3763 1.361 . S
C3764 H3782 0.931 . S
C3765 C3763 1.500 . S
C3765 C3766 1.371 . S
C3765 C3767 1.365 . S
C3766 C3765 1.371 . S
C3766 C3776 1.386 . S
C3766 H3784 0.931 . S
C3767 C3765 1.365 . S
C3767 C3768 1.409 . S
C3767 H3785 0.929 . S
C3768 C3767 1.409 . S
C3768 C3769 1.380 . S
C3768 H3786 0.930 . S
C3769 C3768 1.380 . S
C3769 C3776 1.357 . S
C3770 C3761 1.511 . S
C3770 C3771 1.341 . S
C3770 C3772 1.371 . S
C3771 C3770 1.341 . S
C3771 C3775 1.394 . S
C3771 H3787 0.930 . S
C3772 C3770 1.371 . S
C3772 C3773 1.392 . S
C3772 H3788 0.931 . S
C3773 C3772 1.392 . S
C3773 C3774 1.331 . S
C3773 H3791 0.932 . S
C3774 C3773 1.331 . S
C3774 C3775 1.336 . S
C3775 C3771 1.394 . S
C3775 C3774 1.336 . S
C3775 H3790 0.929 . S
C3776 C3766 1.386 . S
C3776 C3769 1.357 . S
C3776 H3789 0.928 . S
H3777 C3753 0.931 . S
H3778 C3755 0.930 . S
H3779 C3757 0.929 . S
H3780 C3758 0.931 . S
H3781 C3760 0.930 . S
H3782 C3764 0.931 . S
H3783 C3762 0.931 . S
H3784 C3766 0.931 . S
H3785 C3767 0.929 . S
H3786 C3768 0.930 . S
H3787 C3771 0.930 . S
H3788 C3772 0.931 . S
H3789 C3776 0.928 . S
H3790 C3775 0.929 . S
H3791 C3773 0.932 . S
C3792 C3793 1.369 . S
C3792 C3794 1.419 . S
C3792 H3796 0.930 . S
C3793 C3792 1.369 . S
C3793 C3802 1.429 . S
C3794 C3792 1.419 . S
C3794 C3795 1.363 . S
C3794 H3797 0.929 . S
C3795 C3794 1.363 . S
C3795 C3801 1.428 . S
H3796 C3792 0.930 . S
H3797 C3794 0.929 . S
S3798 N3799 1.613 . S
S3798 N3800 1.610 . S
N3799 S3798 1.613 . S
N3799 C3802 1.350 . S
N3800 S3798 1.610 . S
N3800 C3801 1.351 . S
C3801 C3795 1.428 . S
C3801 N3800 1.351 . S
C3801 C3802 1.434 . S
C3802 C3793 1.429 . S
C3802 N3799 1.350 . S
C3802 C3801 1.434 . S
C3803 C3804 1.369 . S
C3803 C3805 1.419 . S
C3803 H3807 0.930 . S
C3804 C3803 1.369 . S
C3804 C3813 1.429 . S
C3805 C3803 1.419 . S
C3805 C3806 1.363 . S
C3805 H3808 0.929 . S
C3806 C3805 1.363 . S
C3806 C3812 1.428 . S
H3807 C3803 0.930 . S
H3808 C3805 0.929 . S
S3809 N3810 1.613 . S
S3809 N3811 1.610 . S
N3810 S3809 1.613 . S
N3810 C3813 1.350 . S
N3811 S3809 1.610 . S
N3811 C3812 1.351 . S
C3812 C3806 1.428 . S
C3812 N3811 1.351 . S
C3812 C3813 1.434 . S
C3813 C3804 1.429 . S
C3813 N3810 1.350 . S
C3813 C3812 1.434 . S
C3814 C3815 1.369 . S
C3814 C3816 1.419 . S
C3814 H3818 0.930 . S
C3815 C3814 1.369 . S
C3815 C3824 1.429 . S
C3816 C3814 1.419 . S
C3816 C3817 1.363 . S
C3816 H3819 0.929 . S
C3817 C3816 1.363 . S
C3817 C3823 1.428 . S
H3818 C3814 0.930 . S
H3819 C3816 0.929 . S
S3820 N3821 1.613 . S
S3820 N3822 1.610 . S
N3821 S3820 1.613 . S
N3821 C3824 1.350 . S
N3822 S3820 1.610 . S
N3822 C3823 1.351 . S
C3823 C3817 1.428 . S
C3823 N3822 1.351 . S
C3823 C3824 1.434 . S
C3824 C3815 1.429 . S
C3824 N3821 1.350 . S
C3824 C3823 1.434 . S
C3825 C3826 1.369 . S
C3825 C3827 1.419 . S
C3825 H3829 0.930 . S
C3826 C3825 1.369 . S
C3826 C3835 1.429 . S
C3827 C3825 1.419 . S
C3827 C3828 1.363 . S
C3827 H3830 0.929 . S
C3828 C3827 1.363 . S
C3828 C3834 1.428 . S
H3829 C3825 0.930 . S
H3830 C3827 0.929 . S
S3831 N3832 1.613 . S
S3831 N3833 1.610 . S
N3832 S3831 1.613 . S
N3832 C3835 1.350 . S
N3833 S3831 1.610 . S
N3833 C3834 1.351 . S
C3834 C3828 1.428 . S
C3834 N3833 1.351 . S
C3834 C3835 1.434 . S
C3835 C3826 1.429 . S
C3835 N3832 1.350 . S
C3835 C3834 1.434 . S
C3836 C3837 1.369 . S
C3836 C3838 1.419 . S
C3836 H3840 0.930 . S
C3837 C3836 1.369 . S
C3837 C3846 1.429 . S
C3838 C3836 1.419 . S
C3838 C3839 1.363 . S
C3838 H3841 0.929 . S
C3839 C3838 1.363 . S
C3839 C3845 1.428 . S
H3840 C3836 0.930 . S
H3841 C3838 0.929 . S
S3842 N3843 1.613 . S
S3842 N3844 1.610 . S
N3843 S3842 1.613 . S
N3843 C3846 1.350 . S
N3844 S3842 1.610 . S
N3844 C3845 1.351 . S
C3845 C3839 1.428 . S
C3845 N3844 1.351 . S
C3845 C3846 1.434 . S
C3846 C3837 1.429 . S
C3846 N3843 1.350 . S
C3846 C3845 1.434 . S
C3847 C3848 1.369 . S
C3847 C3849 1.419 . S
C3847 H3851 0.930 . S
C3848 C3847 1.369 . S
C3848 C3857 1.429 . S
C3849 C3847 1.419 . S
C3849 C3850 1.363 . S
C3849 H3852 0.929 . S
C3850 C3849 1.363 . S
C3850 C3856 1.428 . S
H3851 C3847 0.930 . S
H3852 C3849 0.929 . S
S3853 N3854 1.613 . S
S3853 N3855 1.610 . S
N3854 S3853 1.613 . S
N3854 C3857 1.350 . S
N3855 S3853 1.610 . S
N3855 C3856 1.351 . S
C3856 C3850 1.428 . S
C3856 N3855 1.351 . S
C3856 C3857 1.434 . S
C3857 C3848 1.429 . S
C3857 N3854 1.350 . S
C3857 C3856 1.434 . S
C3858 C3859 1.369 . S
C3858 C3860 1.419 . S
C3858 H3862 0.930 . S
C3859 C3858 1.369 . S
C3859 C3868 1.429 . S
C3860 C3858 1.419 . S
C3860 C3861 1.363 . S
C3860 H3863 0.929 . S
C3861 C3860 1.363 . S
C3861 C3867 1.428 . S
H3862 C3858 0.930 . S
H3863 C3860 0.929 . S
S3864 N3865 1.613 . S
S3864 N3866 1.610 . S
N3865 S3864 1.613 . S
N3865 C3868 1.350 . S
N3866 S3864 1.610 . S
N3866 C3867 1.351 . S
C3867 C3861 1.428 . S
C3867 N3866 1.351 . S
C3867 C3868 1.434 . S
C3868 C3859 1.429 . S
C3868 N3865 1.350 . S
C3868 C3867 1.434 . S
C3869 C3870 1.369 . S
C3869 C3871 1.419 . S
C3869 H3873 0.930 . S
C3870 C3869 1.369 . S
C3870 C3879 1.429 . S
C3871 C3869 1.419 . S
C3871 C3872 1.363 . S
C3871 H3874 0.929 . S
C3872 C3871 1.363 . S
C3872 C3878 1.428 . S
H3873 C3869 0.930 . S
H3874 C3871 0.929 . S
S3875 N3876 1.613 . S
S3875 N3877 1.610 . S
N3876 S3875 1.613 . S
N3876 C3879 1.350 . S
N3877 S3875 1.610 . S
N3877 C3878 1.351 . S
C3878 C3872 1.428 . S
C3878 N3877 1.351 . S
C3878 C3879 1.434 . S
C3879 C3870 1.429 . S
C3879 N3876 1.350 . S
C3879 C3878 1.434 . S
C3880 C3881 1.369 . S
C3880 C3882 1.419 . S
C3880 H3884 0.930 . S
C3881 C3880 1.369 . S
C3881 C3890 1.429 . S
C3882 C3880 1.419 . S
C3882 C3883 1.363 . S
C3882 H3885 0.929 . S
C3883 C3882 1.363 . S
C3883 C3889 1.428 . S
H3884 C3880 0.930 . S
H3885 C3882 0.929 . S
S3886 N3887 1.613 . S
S3886 N3888 1.610 . S
N3887 S3886 1.613 . S
N3887 C3890 1.350 . S
N3888 S3886 1.610 . S
N3888 C3889 1.351 . S
C3889 C3883 1.428 . S
C3889 N3888 1.351 . S
C3889 C3890 1.434 . S
C3890 C3881 1.429 . S
C3890 N3887 1.350 . S
C3890 C3889 1.434 . S
C3891 C3892 1.369 . S
C3891 C3893 1.419 . S
C3891 H3895 0.930 . S
C3892 C3891 1.369 . S
C3892 C3901 1.429 . S
C3893 C3891 1.419 . S
C3893 C3894 1.363 . S
C3893 H3896 0.929 . S
C3894 C3893 1.363 . S
C3894 C3900 1.428 . S
H3895 C3891 0.930 . S
H3896 C3893 0.929 . S
S3897 N3898 1.613 . S
S3897 N3899 1.610 . S
N3898 S3897 1.613 . S
N3898 C3901 1.350 . S
N3899 S3897 1.610 . S
N3899 C3900 1.351 . S
C3900 C3894 1.428 . S
C3900 N3899 1.351 . S
C3900 C3901 1.434 . S
C3901 C3892 1.429 . S
C3901 N3898 1.350 . S
C3901 C3900 1.434 . S
C3902 C3903 1.369 . S
C3902 C3904 1.419 . S
C3902 H3906 0.930 . S
C3903 C3902 1.369 . S
C3903 C3912 1.429 . S
C3904 C3902 1.419 . S
C3904 C3905 1.363 . S
C3904 H3907 0.929 . S
C3905 C3904 1.363 . S
C3905 C3911 1.428 . S
H3906 C3902 0.930 . S
H3907 C3904 0.929 . S
S3908 N3909 1.613 . S
S3908 N3910 1.610 . S
N3909 S3908 1.613 . S
N3909 C3912 1.350 . S
N3910 S3908 1.610 . S
N3910 C3911 1.351 . S
C3911 C3905 1.428 . S
C3911 N3910 1.351 . S
C3911 C3912 1.434 . S
C3912 C3903 1.429 . S
C3912 N3909 1.350 . S
C3912 C3911 1.434 . S
C3913 C3914 1.369 . S
C3913 C3915 1.419 . S
C3913 H3917 0.930 . S
C3914 C3913 1.369 . S
C3914 C3923 1.429 . S
C3915 C3913 1.419 . S
C3915 C3916 1.363 . S
C3915 H3918 0.929 . S
C3916 C3915 1.363 . S
C3916 C3922 1.428 . S
H3917 C3913 0.930 . S
H3918 C3915 0.929 . S
S3919 N3920 1.613 . S
S3919 N3921 1.610 . S
N3920 S3919 1.613 . S
N3920 C3923 1.350 . S
N3921 S3919 1.610 . S
N3921 C3922 1.351 . S
C3922 C3916 1.428 . S
C3922 N3921 1.351 . S
C3922 C3923 1.434 . S
C3923 C3914 1.429 . S
C3923 N3920 1.350 . S
C3923 C3922 1.434 . S
C3924 C3925 1.369 . S
C3924 C3926 1.419 . S
C3924 H3928 0.930 . S
C3925 C3924 1.369 . S
C3925 C3934 1.429 . S
C3926 C3924 1.419 . S
C3926 C3927 1.363 . S
C3926 H3929 0.929 . S
C3927 C3926 1.363 . S
C3927 C3933 1.428 . S
H3928 C3924 0.930 . S
H3929 C3926 0.929 . S
S3930 N3931 1.613 . S
S3930 N3932 1.610 . S
N3931 S3930 1.613 . S
N3931 C3934 1.350 . S
N3932 S3930 1.610 . S
N3932 C3933 1.351 . S
C3933 C3927 1.428 . S
C3933 N3932 1.351 . S
C3933 C3934 1.434 . S
C3934 C3925 1.429 . S
C3934 N3931 1.350 . S
C3934 C3933 1.434 . S
C3935 C3936 1.369 . S
C3935 C3937 1.419 . S
C3935 H3939 0.930 . S
C3936 C3935 1.369 . S
C3936 C3945 1.429 . S
C3937 C3935 1.419 . S
C3937 C3938 1.363 . S
C3937 H3940 0.929 . S
C3938 C3937 1.363 . S
C3938 C3944 1.428 . S
H3939 C3935 0.930 . S
H3940 C3937 0.929 . S
S3941 N3942 1.613 . S
S3941 N3943 1.610 . S
N3942 S3941 1.613 . S
N3942 C3945 1.350 . S
N3943 S3941 1.610 . S
N3943 C3944 1.351 . S
C3944 C3938 1.428 . S
C3944 N3943 1.351 . S
C3944 C3945 1.434 . S
C3945 C3936 1.429 . S
C3945 N3942 1.350 . S
C3945 C3944 1.434 . S
C3946 C3947 1.369 . S
C3946 C3948 1.419 . S
C3946 H3950 0.930 . S
C3947 C3946 1.369 . S
C3947 C3956 1.429 . S
C3948 C3946 1.419 . S
C3948 C3949 1.363 . S
C3948 H3951 0.929 . S
C3949 C3948 1.363 . S
C3949 C3955 1.428 . S
H3950 C3946 0.930 . S
H3951 C3948 0.929 . S
S3952 N3953 1.613 . S
S3952 N3954 1.610 . S
N3953 S3952 1.613 . S
N3953 C3956 1.350 . S
N3954 S3952 1.610 . S
N3954 C3955 1.351 . S
C3955 C3949 1.428 . S
C3955 N3954 1.351 . S
C3955 C3956 1.434 . S
C3956 C3947 1.429 . S
C3956 N3953 1.350 . S
C3956 C3955 1.434 . S
C3957 C3958 1.369 . S
C3957 C3959 1.419 . S
C3957 H3961 0.930 . S
C3958 C3957 1.369 . S
C3958 C3967 1.429 . S
C3959 C3957 1.419 . S
C3959 C3960 1.363 . S
C3959 H3962 0.929 . S
C3960 C3959 1.363 . S
C3960 C3966 1.428 . S
H3961 C3957 0.930 . S
H3962 C3959 0.929 . S
S3963 N3964 1.613 . S
S3963 N3965 1.610 . S
N3964 S3963 1.613 . S
N3964 C3967 1.350 . S
N3965 S3963 1.610 . S
N3965 C3966 1.351 . S
C3966 C3960 1.428 . S
C3966 N3965 1.351 . S
C3966 C3967 1.434 . S
C3967 C3958 1.429 . S
C3967 N3964 1.350 . S
C3967 C3966 1.434 . S
C3968 C3969 1.369 . S
C3968 C3970 1.419 . S
C3968 H3972 0.930 . S
C3969 C3968 1.369 . S
C3969 C3978 1.429 . S
C3970 C3968 1.419 . S
C3970 C3971 1.363 . S
C3970 H3973 0.929 . S
C3971 C3970 1.363 . S
C3971 C3977 1.428 . S
H3972 C3968 0.930 . S
H3973 C3970 0.929 . S
S3974 N3975 1.613 . S
S3974 N3976 1.610 . S
N3975 S3974 1.613 . S
N3975 C3978 1.350 . S
N3976 S3974 1.610 . S
N3976 C3977 1.351 . S
C3977 C3971 1.428 . S
C3977 N3976 1.351 . S
C3977 C3978 1.434 . S
C3978 C3969 1.429 . S
C3978 N3975 1.350 . S
C3978 C3977 1.434 . S
C3979 C3980 1.369 . S
C3979 C3981 1.419 . S
C3979 H3983 0.930 . S
C3980 C3979 1.369 . S
C3980 C3989 1.429 . S
C3981 C3979 1.419 . S
C3981 C3982 1.363 . S
C3981 H3984 0.929 . S
C3982 C3981 1.363 . S
C3982 C3988 1.428 . S
H3983 C3979 0.930 . S
H3984 C3981 0.929 . S
S3985 N3986 1.613 . S
S3985 N3987 1.610 . S
N3986 S3985 1.613 . S
N3986 C3989 1.350 . S
N3987 S3985 1.610 . S
N3987 C3988 1.351 . S
C3988 C3982 1.428 . S
C3988 N3987 1.351 . S
C3988 C3989 1.434 . S
C3989 C3980 1.429 . S
C3989 N3986 1.350 . S
C3989 C3988 1.434 . S
C3990 C3991 1.369 . S
C3990 C3992 1.419 . S
C3990 H3994 0.930 . S
C3991 C3990 1.369 . S
C3991 C4000 1.429 . S
C3992 C3990 1.419 . S
C3992 C3993 1.363 . S
C3992 H3995 0.929 . S
C3993 C3992 1.363 . S
C3993 C3999 1.428 . S
H3994 C3990 0.930 . S
H3995 C3992 0.929 . S
S3996 N3997 1.613 . S
S3996 N3998 1.610 . S
N3997 S3996 1.613 . S
N3997 C4000 1.350 . S
N3998 S3996 1.610 . S
N3998 C3999 1.351 . S
C3999 C3993 1.428 . S
C3999 N3998 1.351 . S
C3999 C4000 1.434 . S
C4000 C3991 1.429 . S
C4000 N3997 1.350 . S
C4000 C3999 1.434 . S
C4001 C4002 1.369 . S
C4001 C4003 1.419 . S
C4001 H4005 0.930 . S
C4002 C4001 1.369 . S
C4002 C4011 1.429 . S
C4003 C4001 1.419 . S
C4003 C4004 1.363 . S
C4003 H4006 0.929 . S
C4004 C4003 1.363 . S
C4004 C4010 1.428 . S
H4005 C4001 0.930 . S
H4006 C4003 0.929 . S
S4007 N4008 1.613 . S
S4007 N4009 1.610 . S
N4008 S4007 1.613 . S
N4008 C4011 1.350 . S
N4009 S4007 1.610 . S
N4009 C4010 1.351 . S
C4010 C4004 1.428 . S
C4010 N4009 1.351 . S
C4010 C4011 1.434 . S
C4011 C4002 1.429 . S
C4011 N4008 1.350 . S
C4011 C4010 1.434 . S
C4012 C4013 1.369 . S
C4012 C4014 1.419 . S
C4012 H4016 0.930 . S
C4013 C4012 1.369 . S
C4013 C4022 1.429 . S
C4014 C4012 1.419 . S
C4014 C4015 1.363 . S
C4014 H4017 0.929 . S
C4015 C4014 1.363 . S
C4015 C4021 1.428 . S
H4016 C4012 0.930 . S
H4017 C4014 0.929 . S
S4018 N4019 1.613 . S
S4018 N4020 1.610 . S
N4019 S4018 1.613 . S
N4019 C4022 1.350 . S
N4020 S4018 1.610 . S
N4020 C4021 1.351 . S
C4021 C4015 1.428 . S
C4021 N4020 1.351 . S
C4021 C4022 1.434 . S
C4022 C4013 1.429 . S
C4022 N4019 1.350 . S
C4022 C4021 1.434 . S
C4023 C4024 1.369 . S
C4023 C4025 1.419 . S
C4023 H4027 0.930 . S
C4024 C4023 1.369 . S
C4024 C4033 1.429 . S
C4025 C4023 1.419 . S
C4025 C4026 1.363 . S
C4025 H4028 0.929 . S
C4026 C4025 1.363 . S
C4026 C4032 1.428 . S
H4027 C4023 0.930 . S
H4028 C4025 0.929 . S
S4029 N4030 1.613 . S
S4029 N4031 1.610 . S
N4030 S4029 1.613 . S
N4030 C4033 1.350 . S
N4031 S4029 1.610 . S
N4031 C4032 1.351 . S
C4032 C4026 1.428 . S
C4032 N4031 1.351 . S
C4032 C4033 1.434 . S
C4033 C4024 1.429 . S
C4033 N4030 1.350 . S
C4033 C4032 1.434 . S
C4034 C4035 1.369 . S
C4034 C4036 1.419 . S
C4034 H4038 0.930 . S
C4035 C4034 1.369 . S
C4035 C4044 1.429 . S
C4036 C4034 1.419 . S
C4036 C4037 1.363 . S
C4036 H4039 0.929 . S
C4037 C4036 1.363 . S
C4037 C4043 1.428 . S
H4038 C4034 0.930 . S
H4039 C4036 0.929 . S
S4040 N4041 1.613 . S
S4040 N4042 1.610 . S
N4041 S4040 1.613 . S
N4041 C4044 1.350 . S
N4042 S4040 1.610 . S
N4042 C4043 1.351 . S
C4043 C4037 1.428 . S
C4043 N4042 1.351 . S
C4043 C4044 1.434 . S
C4044 C4035 1.429 . S
C4044 N4041 1.350 . S
C4044 C4043 1.434 . S
C4045 C4046 1.369 . S
C4045 C4047 1.419 . S
C4045 H4049 0.930 . S
C4046 C4045 1.369 . S
C4046 C4055 1.429 . S
C4047 C4045 1.419 . S
C4047 C4048 1.363 . S
C4047 H4050 0.929 . S
C4048 C4047 1.363 . S
C4048 C4054 1.428 . S
H4049 C4045 0.930 . S
H4050 C4047 0.929 . S
S4051 N4052 1.613 . S
S4051 N4053 1.610 . S
N4052 S4051 1.613 . S
N4052 C4055 1.350 . S
N4053 S4051 1.610 . S
N4053 C4054 1.351 . S
C4054 C4048 1.428 . S
C4054 N4053 1.351 . S
C4054 C4055 1.434 . S
C4055 C4046 1.429 . S
C4055 N4052 1.350 . S
C4055 C4054 1.434 . S
C4056 C4057 1.369 . S
C4056 C4058 1.419 . S
C4056 H4060 0.930 . S
C4057 C4056 1.369 . S
C4057 C4066 1.429 . S
C4058 C4056 1.419 . S
C4058 C4059 1.363 . S
C4058 H4061 0.929 . S
C4059 C4058 1.363 . S
C4059 C4065 1.428 . S
H4060 C4056 0.930 . S
H4061 C4058 0.929 . S
S4062 N4063 1.613 . S
S4062 N4064 1.610 . S
N4063 S4062 1.613 . S
N4063 C4066 1.350 . S
N4064 S4062 1.610 . S
N4064 C4065 1.351 . S
C4065 C4059 1.428 . S
C4065 N4064 1.351 . S
C4065 C4066 1.434 . S
C4066 C4057 1.429 . S
C4066 N4063 1.350 . S
C4066 C4065 1.434 . S
C4067 C4068 1.369 . S
C4067 C4069 1.419 . S
C4067 H4071 0.930 . S
C4068 C4067 1.369 . S
C4068 C4077 1.429 . S
C4069 C4067 1.419 . S
C4069 C4070 1.363 . S
C4069 H4072 0.929 . S
C4070 C4069 1.363 . S
C4070 C4076 1.428 . S
H4071 C4067 0.930 . S
H4072 C4069 0.929 . S
S4073 N4074 1.613 . S
S4073 N4075 1.610 . S
N4074 S4073 1.613 . S
N4074 C4077 1.350 . S
N4075 S4073 1.610 . S
N4075 C4076 1.351 . S
C4076 C4070 1.428 . S
C4076 N4075 1.351 . S
C4076 C4077 1.434 . S
C4077 C4068 1.429 . S
C4077 N4074 1.350 . S
C4077 C4076 1.434 . S
C4078 C4079 1.369 . S
C4078 C4080 1.419 . S
C4078 H4082 0.930 . S
C4079 C4078 1.369 . S
C4079 C4088 1.429 . S
C4080 C4078 1.419 . S
C4080 C4081 1.363 . S
C4080 H4083 0.929 . S
C4081 C4080 1.363 . S
C4081 C4087 1.428 . S
H4082 C4078 0.930 . S
H4083 C4080 0.929 . S
S4084 N4085 1.613 . S
S4084 N4086 1.610 . S
N4085 S4084 1.613 . S
N4085 C4088 1.350 . S
N4086 S4084 1.610 . S
N4086 C4087 1.351 . S
C4087 C4081 1.428 . S
C4087 N4086 1.351 . S
C4087 C4088 1.434 . S
C4088 C4079 1.429 . S
C4088 N4085 1.350 . S
C4088 C4087 1.434 . S
C4089 C4090 1.369 . S
C4089 C4091 1.419 . S
C4089 H4093 0.930 . S
C4090 C4089 1.369 . S
C4090 C4099 1.429 . S
C4091 C4089 1.419 . S
C4091 C4092 1.363 . S
C4091 H4094 0.929 . S
C4092 C4091 1.363 . S
C4092 C4098 1.428 . S
H4093 C4089 0.930 . S
H4094 C4091 0.929 . S
S4095 N4096 1.613 . S
S4095 N4097 1.610 . S
N4096 S4095 1.613 . S
N4096 C4099 1.350 . S
N4097 S4095 1.610 . S
N4097 C4098 1.351 . S
C4098 C4092 1.428 . S
C4098 N4097 1.351 . S
C4098 C4099 1.434 . S
C4099 C4090 1.429 . S
C4099 N4096 1.350 . S
C4099 C4098 1.434 . S
C4100 C4101 1.369 . S
C4100 C4102 1.419 . S
C4100 H4104 0.930 . S
C4101 C4100 1.369 . S
C4101 C4110 1.429 . S
C4102 C4100 1.419 . S
C4102 C4103 1.363 . S
C4102 H4105 0.929 . S
C4103 C4102 1.363 . S
C4103 C4109 1.428 . S
H4104 C4100 0.930 . S
H4105 C4102 0.929 . S
S4106 N4107 1.613 . S
S4106 N4108 1.610 . S
N4107 S4106 1.613 . S
N4107 C4110 1.350 . S
N4108 S4106 1.610 . S
N4108 C4109 1.351 . S
C4109 C4103 1.428 . S
C4109 N4108 1.351 . S
C4109 C4110 1.434 . S
C4110 C4101 1.429 . S
C4110 N4107 1.350 . S
C4110 C4109 1.434 . S
C4111 C4112 1.369 . S
C4111 C4113 1.419 . S
C4111 H4115 0.930 . S
C4112 C4111 1.369 . S
C4112 C4121 1.429 . S
C4113 C4111 1.419 . S
C4113 C4114 1.363 . S
C4113 H4116 0.929 . S
C4114 C4113 1.363 . S
C4114 C4120 1.428 . S
H4115 C4111 0.930 . S
H4116 C4113 0.929 . S
S4117 N4118 1.613 . S
S4117 N4119 1.610 . S
N4118 S4117 1.613 . S
N4118 C4121 1.350 . S
N4119 S4117 1.610 . S
N4119 C4120 1.351 . S
C4120 C4114 1.428 . S
C4120 N4119 1.351 . S
C4120 C4121 1.434 . S
C4121 C4112 1.429 . S
C4121 N4118 1.350 . S
C4121 C4120 1.434 . S
C4122 C4123 1.369 . S
C4122 C4124 1.419 . S
C4122 H4126 0.930 . S
C4123 C4122 1.369 . S
C4123 C4132 1.429 . S
C4124 C4122 1.419 . S
C4124 C4125 1.363 . S
C4124 H4127 0.929 . S
C4125 C4124 1.363 . S
C4125 C4131 1.428 . S
H4126 C4122 0.930 . S
H4127 C4124 0.929 . S
S4128 N4129 1.613 . S
S4128 N4130 1.610 . S
N4129 S4128 1.613 . S
N4129 C4132 1.350 . S
N4130 S4128 1.610 . S
N4130 C4131 1.351 . S
C4131 C4125 1.428 . S
C4131 N4130 1.351 . S
C4131 C4132 1.434 . S
C4132 C4123 1.429 . S
C4132 N4129 1.350 . S
C4132 C4131 1.434 . S
C4133 C4134 1.369 . S
C4133 C4135 1.419 . S
C4133 H4137 0.930 . S
C4134 C4133 1.369 . S
C4134 C4143 1.429 . S
C4135 C4133 1.419 . S
C4135 C4136 1.363 . S
C4135 H4138 0.929 . S
C4136 C4135 1.363 . S
C4136 C4142 1.428 . S
H4137 C4133 0.930 . S
H4138 C4135 0.929 . S
S4139 N4140 1.613 . S
S4139 N4141 1.610 . S
N4140 S4139 1.613 . S
N4140 C4143 1.350 . S
N4141 S4139 1.610 . S
N4141 C4142 1.351 . S
C4142 C4136 1.428 . S
C4142 N4141 1.351 . S
C4142 C4143 1.434 . S
C4143 C4134 1.429 . S
C4143 N4140 1.350 . S
C4143 C4142 1.434 . S
C4144 C4145 1.369 . S
C4144 C4146 1.419 . S
C4144 H4148 0.930 . S
C4145 C4144 1.369 . S
C4145 C4154 1.429 . S
C4146 C4144 1.419 . S
C4146 C4147 1.363 . S
C4146 H4149 0.929 . S
C4147 C4146 1.363 . S
C4147 C4153 1.428 . S
H4148 C4144 0.930 . S
H4149 C4146 0.929 . S
S4150 N4151 1.613 . S
S4150 N4152 1.610 . S
N4151 S4150 1.613 . S
N4151 C4154 1.350 . S
N4152 S4150 1.610 . S
N4152 C4153 1.351 . S
C4153 C4147 1.428 . S
C4153 N4152 1.351 . S
C4153 C4154 1.434 . S
C4154 C4145 1.429 . S
C4154 N4151 1.350 . S
C4154 C4153 1.434 . S
C4155 C4156 1.369 . S
C4155 C4157 1.419 . S
C4155 H4159 0.930 . S
C4156 C4155 1.369 . S
C4156 C4165 1.429 . S
C4157 C4155 1.419 . S
C4157 C4158 1.363 . S
C4157 H4160 0.929 . S
C4158 C4157 1.363 . S
C4158 C4164 1.428 . S
H4159 C4155 0.930 . S
H4160 C4157 0.929 . S
S4161 N4162 1.613 . S
S4161 N4163 1.610 . S
N4162 S4161 1.613 . S
N4162 C4165 1.350 . S
N4163 S4161 1.610 . S
N4163 C4164 1.351 . S
C4164 C4158 1.428 . S
C4164 N4163 1.351 . S
C4164 C4165 1.434 . S
C4165 C4156 1.429 . S
C4165 N4162 1.350 . S
C4165 C4164 1.434 . S
C4166 C4167 1.369 . S
C4166 C4168 1.419 . S
C4166 H4170 0.930 . S
C4167 C4166 1.369 . S
C4167 C4176 1.429 . S
C4168 C4166 1.419 . S
C4168 C4169 1.363 . S
C4168 H4171 0.929 . S
C4169 C4168 1.363 . S
C4169 C4175 1.428 . S
H4170 C4166 0.930 . S
H4171 C4168 0.929 . S
S4172 N4173 1.613 . S
S4172 N4174 1.610 . S
N4173 S4172 1.613 . S
N4173 C4176 1.350 . S
N4174 S4172 1.610 . S
N4174 C4175 1.351 . S
C4175 C4169 1.428 . S
C4175 N4174 1.351 . S
C4175 C4176 1.434 . S
C4176 C4167 1.429 . S
C4176 N4173 1.350 . S
C4176 C4175 1.434 . S
C4177 C4178 1.369 . S
C4177 C4179 1.419 . S
C4177 H4181 0.930 . S
C4178 C4177 1.369 . S
C4178 C4187 1.429 . S
C4179 C4177 1.419 . S
C4179 C4180 1.363 . S
C4179 H4182 0.929 . S
C4180 C4179 1.363 . S
C4180 C4186 1.428 . S
H4181 C4177 0.930 . S
H4182 C4179 0.929 . S
S4183 N4184 1.613 . S
S4183 N4185 1.610 . S
N4184 S4183 1.613 . S
N4184 C4187 1.350 . S
N4185 S4183 1.610 . S
N4185 C4186 1.351 . S
C4186 C4180 1.428 . S
C4186 N4185 1.351 . S
C4186 C4187 1.434 . S
C4187 C4178 1.429 . S
C4187 N4184 1.350 . S
C4187 C4186 1.434 . S
C4188 C4189 1.369 . S
C4188 C4190 1.419 . S
C4188 H4192 0.930 . S
C4189 C4188 1.369 . S
C4189 C4198 1.429 . S
C4190 C4188 1.419 . S
C4190 C4191 1.363 . S
C4190 H4193 0.929 . S
C4191 C4190 1.363 . S
C4191 C4197 1.428 . S
H4192 C4188 0.930 . S
H4193 C4190 0.929 . S
S4194 N4195 1.613 . S
S4194 N4196 1.610 . S
N4195 S4194 1.613 . S
N4195 C4198 1.350 . S
N4196 S4194 1.610 . S
N4196 C4197 1.351 . S
C4197 C4191 1.428 . S
C4197 N4196 1.351 . S
C4197 C4198 1.434 . S
C4198 C4189 1.429 . S
C4198 N4195 1.350 . S
C4198 C4197 1.434 . S
C4199 C4200 1.369 . S
C4199 C4201 1.419 . S
C4199 H4203 0.930 . S
C4200 C4199 1.369 . S
C4200 C4209 1.429 . S
C4201 C4199 1.419 . S
C4201 C4202 1.363 . S
C4201 H4204 0.929 . S
C4202 C4201 1.363 . S
C4202 C4208 1.428 . S
H4203 C4199 0.930 . S
H4204 C4201 0.929 . S
S4205 N4206 1.613 . S
S4205 N4207 1.610 . S
N4206 S4205 1.613 . S
N4206 C4209 1.350 . S
N4207 S4205 1.610 . S
N4207 C4208 1.351 . S
C4208 C4202 1.428 . S
C4208 N4207 1.351 . S
C4208 C4209 1.434 . S
C4209 C4200 1.429 . S
C4209 N4206 1.350 . S
C4209 C4208 1.434 . S
C4210 C4211 1.369 . S
C4210 C4212 1.419 . S
C4210 H4214 0.930 . S
C4211 C4210 1.369 . S
C4211 C4220 1.429 . S
C4212 C4210 1.419 . S
C4212 C4213 1.363 . S
C4212 H4215 0.929 . S
C4213 C4212 1.363 . S
C4213 C4219 1.428 . S
H4214 C4210 0.930 . S
H4215 C4212 0.929 . S
S4216 N4217 1.613 . S
S4216 N4218 1.610 . S
N4217 S4216 1.613 . S
N4217 C4220 1.350 . S
N4218 S4216 1.610 . S
N4218 C4219 1.351 . S
C4219 C4213 1.428 . S
C4219 N4218 1.351 . S
C4219 C4220 1.434 . S
C4220 C4211 1.429 . S
C4220 N4217 1.350 . S
C4220 C4219 1.434 . S
C4221 C4222 1.369 . S
C4221 C4223 1.419 . S
C4221 H4225 0.930 . S
C4222 C4221 1.369 . S
C4222 C4231 1.429 . S
C4223 C4221 1.419 . S
C4223 C4224 1.363 . S
C4223 H4226 0.929 . S
C4224 C4223 1.363 . S
C4224 C4230 1.428 . S
H4225 C4221 0.930 . S
H4226 C4223 0.929 . S
S4227 N4228 1.613 . S
S4227 N4229 1.610 . S
N4228 S4227 1.613 . S
N4228 C4231 1.350 . S
N4229 S4227 1.610 . S
N4229 C4230 1.351 . S
C4230 C4224 1.428 . S
C4230 N4229 1.351 . S
C4230 C4231 1.434 . S
C4231 C4222 1.429 . S
C4231 N4228 1.350 . S
C4231 C4230 1.434 . S
C4232 C4233 1.369 . S
C4232 C4234 1.419 . S
C4232 H4236 0.930 . S
C4233 C4232 1.369 . S
C4233 C4242 1.429 . S
C4234 C4232 1.419 . S
C4234 C4235 1.363 . S
C4234 H4237 0.929 . S
C4235 C4234 1.363 . S
C4235 C4241 1.428 . S
H4236 C4232 0.930 . S
H4237 C4234 0.929 . S
S4238 N4239 1.613 . S
S4238 N4240 1.610 . S
N4239 S4238 1.613 . S
N4239 C4242 1.350 . S
N4240 S4238 1.610 . S
N4240 C4241 1.351 . S
C4241 C4235 1.428 . S
C4241 N4240 1.351 . S
C4241 C4242 1.434 . S
C4242 C4233 1.429 . S
C4242 N4239 1.350 . S
C4242 C4241 1.434 . S
C4243 C4244 1.369 . S
C4243 C4245 1.419 . S
C4243 H4247 0.930 . S
C4244 C4243 1.369 . S
C4244 C4253 1.429 . S
C4245 C4243 1.419 . S
C4245 C4246 1.363 . S
C4245 H4248 0.929 . S
C4246 C4245 1.363 . S
C4246 C4252 1.428 . S
H4247 C4243 0.930 . S
H4248 C4245 0.929 . S
S4249 N4250 1.613 . S
S4249 N4251 1.610 . S
N4250 S4249 1.613 . S
N4250 C4253 1.350 . S
N4251 S4249 1.610 . S
N4251 C4252 1.351 . S
C4252 C4246 1.428 . S
C4252 N4251 1.351 . S
C4252 C4253 1.434 . S
C4253 C4244 1.429 . S
C4253 N4250 1.350 . S
C4253 C4252 1.434 . S
C4254 C4255 1.369 . S
C4254 C4256 1.419 . S
C4254 H4258 0.930 . S
C4255 C4254 1.369 . S
C4255 C4264 1.429 . S
C4256 C4254 1.419 . S
C4256 C4257 1.363 . S
C4256 H4259 0.929 . S
C4257 C4256 1.363 . S
C4257 C4263 1.428 . S
H4258 C4254 0.930 . S
H4259 C4256 0.929 . S
S4260 N4261 1.613 . S
S4260 N4262 1.610 . S
N4261 S4260 1.613 . S
N4261 C4264 1.350 . S
N4262 S4260 1.610 . S
N4262 C4263 1.351 . S
C4263 C4257 1.428 . S
C4263 N4262 1.351 . S
C4263 C4264 1.434 . S
C4264 C4255 1.429 . S
C4264 N4261 1.350 . S
C4264 C4263 1.434 . S
C4265 C4266 1.369 . S
C4265 C4267 1.419 . S
C4265 H4269 0.930 . S
C4266 C4265 1.369 . S
C4266 C4275 1.429 . S
C4267 C4265 1.419 . S
C4267 C4268 1.363 . S
C4267 H4270 0.929 . S
C4268 C4267 1.363 . S
C4268 C4274 1.428 . S
H4269 C4265 0.930 . S
H4270 C4267 0.929 . S
S4271 N4272 1.613 . S
S4271 N4273 1.610 . S
N4272 S4271 1.613 . S
N4272 C4275 1.350 . S
N4273 S4271 1.610 . S
N4273 C4274 1.351 . S
C4274 C4268 1.428 . S
C4274 N4273 1.351 . S
C4274 C4275 1.434 . S
C4275 C4266 1.429 . S
C4275 N4272 1.350 . S
C4275 C4274 1.434 . S
C4276 C4277 1.369 . S
C4276 C4278 1.419 . S
C4276 H4280 0.930 . S
C4277 C4276 1.369 . S
C4277 C4286 1.429 . S
C4278 C4276 1.419 . S
C4278 C4279 1.363 . S
C4278 H4281 0.929 . S
C4279 C4278 1.363 . S
C4279 C4285 1.428 . S
H4280 C4276 0.930 . S
H4281 C4278 0.929 . S
S4282 N4283 1.613 . S
S4282 N4284 1.610 . S
N4283 S4282 1.613 . S
N4283 C4286 1.350 . S
N4284 S4282 1.610 . S
N4284 C4285 1.351 . S
C4285 C4279 1.428 . S
C4285 N4284 1.351 . S
C4285 C4286 1.434 . S
C4286 C4277 1.429 . S
C4286 N4283 1.350 . S
C4286 C4285 1.434 . S
C4287 C4288 1.369 . S
C4287 C4289 1.419 . S
C4287 H4291 0.930 . S
C4288 C4287 1.369 . S
C4288 C4297 1.429 . S
C4289 C4287 1.419 . S
C4289 C4290 1.363 . S
C4289 H4292 0.929 . S
C4290 C4289 1.363 . S
C4290 C4296 1.428 . S
H4291 C4287 0.930 . S
H4292 C4289 0.929 . S
S4293 N4294 1.613 . S
S4293 N4295 1.610 . S
N4294 S4293 1.613 . S
N4294 C4297 1.350 . S
N4295 S4293 1.610 . S
N4295 C4296 1.351 . S
C4296 C4290 1.428 . S
C4296 N4295 1.351 . S
C4296 C4297 1.434 . S
C4297 C4288 1.429 . S
C4297 N4294 1.350 . S
C4297 C4296 1.434 . S
C4298 C4299 1.369 . S
C4298 C4300 1.419 . S
C4298 H4302 0.930 . S
C4299 C4298 1.369 . S
C4299 C4308 1.429 . S
C4300 C4298 1.419 . S
C4300 C4301 1.363 . S
C4300 H4303 0.929 . S
C4301 C4300 1.363 . S
C4301 C4307 1.428 . S
H4302 C4298 0.930 . S
H4303 C4300 0.929 . S
S4304 N4305 1.613 . S
S4304 N4306 1.610 . S
N4305 S4304 1.613 . S
N4305 C4308 1.350 . S
N4306 S4304 1.610 . S
N4306 C4307 1.351 . S
C4307 C4301 1.428 . S
C4307 N4306 1.351 . S
C4307 C4308 1.434 . S
C4308 C4299 1.429 . S
C4308 N4305 1.350 . S
C4308 C4307 1.434 . S
C4309 C4310 1.369 . S
C4309 C4311 1.419 . S
C4309 H4313 0.930 . S
C4310 C4309 1.369 . S
C4310 C4319 1.429 . S
C4311 C4309 1.419 . S
C4311 C4312 1.363 . S
C4311 H4314 0.929 . S
C4312 C4311 1.363 . S
C4312 C4318 1.428 . S
H4313 C4309 0.930 . S
H4314 C4311 0.929 . S
S4315 N4316 1.613 . S
S4315 N4317 1.610 . S
N4316 S4315 1.613 . S
N4316 C4319 1.350 . S
N4317 S4315 1.610 . S
N4317 C4318 1.351 . S
C4318 C4312 1.428 . S
C4318 N4317 1.351 . S
C4318 C4319 1.434 . S
C4319 C4310 1.429 . S
C4319 N4316 1.350 . S
C4319 C4318 1.434 . S
C4320 C4321 1.369 . S
C4320 C4322 1.419 . S
C4320 H4324 0.930 . S
C4321 C4320 1.369 . S
C4321 C4330 1.429 . S
C4322 C4320 1.419 . S
C4322 C4323 1.363 . S
C4322 H4325 0.929 . S
C4323 C4322 1.363 . S
C4323 C4329 1.428 . S
H4324 C4320 0.930 . S
H4325 C4322 0.929 . S
S4326 N4327 1.613 . S
S4326 N4328 1.610 . S
N4327 S4326 1.613 . S
N4327 C4330 1.350 . S
N4328 S4326 1.610 . S
N4328 C4329 1.351 . S
C4329 C4323 1.428 . S
C4329 N4328 1.351 . S
C4329 C4330 1.434 . S
C4330 C4321 1.429 . S
C4330 N4327 1.350 . S
C4330 C4329 1.434 . S
C4331 C4332 1.369 . S
C4331 C4333 1.419 . S
C4331 H4335 0.930 . S
C4332 C4331 1.369 . S
C4332 C4341 1.429 . S
C4333 C4331 1.419 . S
C4333 C4334 1.363 . S
C4333 H4336 0.929 . S
C4334 C4333 1.363 . S
C4334 C4340 1.428 . S
H4335 C4331 0.930 . S
H4336 C4333 0.929 . S
S4337 N4338 1.613 . S
S4337 N4339 1.610 . S
N4338 S4337 1.613 . S
N4338 C4341 1.350 . S
N4339 S4337 1.610 . S
N4339 C4340 1.351 . S
C4340 C4334 1.428 . S
C4340 N4339 1.351 . S
C4340 C4341 1.434 . S
C4341 C4332 1.429 . S
C4341 N4338 1.350 . S
C4341 C4340 1.434 . S
C4342 C4343 1.369 . S
C4342 C4344 1.419 . S
C4342 H4346 0.930 . S
C4343 C4342 1.369 . S
C4343 C4352 1.429 . S
C4344 C4342 1.419 . S
C4344 C4345 1.363 . S
C4344 H4347 0.929 . S
C4345 C4344 1.363 . S
C4345 C4351 1.428 . S
H4346 C4342 0.930 . S
H4347 C4344 0.929 . S
S4348 N4349 1.613 . S
S4348 N4350 1.610 . S
N4349 S4348 1.613 . S
N4349 C4352 1.350 . S
N4350 S4348 1.610 . S
N4350 C4351 1.351 . S
C4351 C4345 1.428 . S
C4351 N4350 1.351 . S
C4351 C4352 1.434 . S
C4352 C4343 1.429 . S
C4352 N4349 1.350 . S
C4352 C4351 1.434 . S
C4353 C4354 1.369 . S
C4353 C4355 1.419 . S
C4353 H4357 0.930 . S
C4354 C4353 1.369 . S
C4354 C4363 1.429 . S
C4355 C4353 1.419 . S
C4355 C4356 1.363 . S
C4355 H4358 0.929 . S
C4356 C4355 1.363 . S
C4356 C4362 1.428 . S
H4357 C4353 0.930 . S
H4358 C4355 0.929 . S
S4359 N4360 1.613 . S
S4359 N4361 1.610 . S
N4360 S4359 1.613 . S
N4360 C4363 1.350 . S
N4361 S4359 1.610 . S
N4361 C4362 1.351 . S
C4362 C4356 1.428 . S
C4362 N4361 1.351 . S
C4362 C4363 1.434 . S
C4363 C4354 1.429 . S
C4363 N4360 1.350 . S
C4363 C4362 1.434 . S
C4364 C4365 1.369 . S
C4364 C4366 1.419 . S
C4364 H4368 0.930 . S
C4365 C4364 1.369 . S
C4365 C4374 1.429 . S
C4366 C4364 1.419 . S
C4366 C4367 1.363 . S
C4366 H4369 0.929 . S
C4367 C4366 1.363 . S
C4367 C4373 1.428 . S
H4368 C4364 0.930 . S
H4369 C4366 0.929 . S
S4370 N4371 1.613 . S
S4370 N4372 1.610 . S
N4371 S4370 1.613 . S
N4371 C4374 1.350 . S
N4372 S4370 1.610 . S
N4372 C4373 1.351 . S
C4373 C4367 1.428 . S
C4373 N4372 1.351 . S
C4373 C4374 1.434 . S
C4374 C4365 1.429 . S
C4374 N4371 1.350 . S
C4374 C4373 1.434 . S
C4375 C4376 1.369 . S
C4375 C4377 1.419 . S
C4375 H4379 0.930 . S
C4376 C4375 1.369 . S
C4376 C4385 1.429 . S
C4377 C4375 1.419 . S
C4377 C4378 1.363 . S
C4377 H4380 0.929 . S
C4378 C4377 1.363 . S
C4378 C4384 1.428 . S
H4379 C4375 0.930 . S
H4380 C4377 0.929 . S
S4381 N4382 1.613 . S
S4381 N4383 1.610 . S
N4382 S4381 1.613 . S
N4382 C4385 1.350 . S
N4383 S4381 1.610 . S
N4383 C4384 1.351 . S
C4384 C4378 1.428 . S
C4384 N4383 1.351 . S
C4384 C4385 1.434 . S
C4385 C4376 1.429 . S
C4385 N4382 1.350 . S
C4385 C4384 1.434 . S
C4386 C4387 1.369 . S
C4386 C4388 1.419 . S
C4386 H4390 0.930 . S
C4387 C4386 1.369 . S
C4387 C4396 1.429 . S
C4388 C4386 1.419 . S
C4388 C4389 1.363 . S
C4388 H4391 0.929 . S
C4389 C4388 1.363 . S
C4389 C4395 1.428 . S
H4390 C4386 0.930 . S
H4391 C4388 0.929 . S
S4392 N4393 1.613 . S
S4392 N4394 1.610 . S
N4393 S4392 1.613 . S
N4393 C4396 1.350 . S
N4394 S4392 1.610 . S
N4394 C4395 1.351 . S
C4395 C4389 1.428 . S
C4395 N4394 1.351 . S
C4395 C4396 1.434 . S
C4396 C4387 1.429 . S
C4396 N4393 1.350 . S
C4396 C4395 1.434 . S
C4397 C4398 1.369 . S
C4397 C4399 1.419 . S
C4397 H4401 0.930 . S
C4398 C4397 1.369 . S
C4398 C4407 1.429 . S
C4399 C4397 1.419 . S
C4399 C4400 1.363 . S
C4399 H4402 0.929 . S
C4400 C4399 1.363 . S
C4400 C4406 1.428 . S
H4401 C4397 0.930 . S
H4402 C4399 0.929 . S
S4403 N4404 1.613 . S
S4403 N4405 1.610 . S
N4404 S4403 1.613 . S
N4404 C4407 1.350 . S
N4405 S4403 1.610 . S
N4405 C4406 1.351 . S
C4406 C4400 1.428 . S
C4406 N4405 1.351 . S
C4406 C4407 1.434 . S
C4407 C4398 1.429 . S
C4407 N4404 1.350 . S
C4407 C4406 1.434 . S
C4408 C4409 1.369 . S
C4408 C4410 1.419 . S
C4408 H4412 0.930 . S
C4409 C4408 1.369 . S
C4409 C4418 1.429 . S
C4410 C4408 1.419 . S
C4410 C4411 1.363 . S
C4410 H4413 0.929 . S
C4411 C4410 1.363 . S
C4411 C4417 1.428 . S
H4412 C4408 0.930 . S
H4413 C4410 0.929 . S
S4414 N4415 1.613 . S
S4414 N4416 1.610 . S
N4415 S4414 1.613 . S
N4415 C4418 1.350 . S
N4416 S4414 1.610 . S
N4416 C4417 1.351 . S
C4417 C4411 1.428 . S
C4417 N4416 1.351 . S
C4417 C4418 1.434 . S
C4418 C4409 1.429 . S
C4418 N4415 1.350 . S
C4418 C4417 1.434 . S
C4419 C4420 1.369 . S
C4419 C4421 1.419 . S
C4419 H4423 0.930 . S
C4420 C4419 1.369 . S
C4420 C4429 1.429 . S
C4421 C4419 1.419 . S
C4421 C4422 1.363 . S
C4421 H4424 0.929 . S
C4422 C4421 1.363 . S
C4422 C4428 1.428 . S
H4423 C4419 0.930 . S
H4424 C4421 0.929 . S
S4425 N4426 1.613 . S
S4425 N4427 1.610 . S
N4426 S4425 1.613 . S
N4426 C4429 1.350 . S
N4427 S4425 1.610 . S
N4427 C4428 1.351 . S
C4428 C4422 1.428 . S
C4428 N4427 1.351 . S
C4428 C4429 1.434 . S
C4429 C4420 1.429 . S
C4429 N4426 1.350 . S
C4429 C4428 1.434 . S
C4430 C4431 1.369 . S
C4430 C4432 1.419 . S
C4430 H4434 0.930 . S
C4431 C4430 1.369 . S
C4431 C4440 1.429 . S
C4432 C4430 1.419 . S
C4432 C4433 1.363 . S
C4432 H4435 0.929 . S
C4433 C4432 1.363 . S
C4433 C4439 1.428 . S
H4434 C4430 0.930 . S
H4435 C4432 0.929 . S
S4436 N4437 1.613 . S
S4436 N4438 1.610 . S
N4437 S4436 1.613 . S
N4437 C4440 1.350 . S
N4438 S4436 1.610 . S
N4438 C4439 1.351 . S
C4439 C4433 1.428 . S
C4439 N4438 1.351 . S
C4439 C4440 1.434 . S
C4440 C4431 1.429 . S
C4440 N4437 1.350 . S
C4440 C4439 1.434 . S
C4441 C4442 1.369 . S
C4441 C4443 1.419 . S
C4441 H4445 0.930 . S
C4442 C4441 1.369 . S
C4442 C4451 1.429 . S
C4443 C4441 1.419 . S
C4443 C4444 1.363 . S
C4443 H4446 0.929 . S
C4444 C4443 1.363 . S
C4444 C4450 1.428 . S
H4445 C4441 0.930 . S
H4446 C4443 0.929 . S
S4447 N4448 1.613 . S
S4447 N4449 1.610 . S
N4448 S4447 1.613 . S
N4448 C4451 1.350 . S
N4449 S4447 1.610 . S
N4449 C4450 1.351 . S
C4450 C4444 1.428 . S
C4450 N4449 1.351 . S
C4450 C4451 1.434 . S
C4451 C4442 1.429 . S
C4451 N4448 1.350 . S
C4451 C4450 1.434 . S
C4452 C4453 1.369 . S
C4452 C4454 1.419 . S
C4452 H4456 0.930 . S
C4453 C4452 1.369 . S
C4453 C4462 1.429 . S
C4454 C4452 1.419 . S
C4454 C4455 1.363 . S
C4454 H4457 0.929 . S
C4455 C4454 1.363 . S
C4455 C4461 1.428 . S
H4456 C4452 0.930 . S
H4457 C4454 0.929 . S
S4458 N4459 1.613 . S
S4458 N4460 1.610 . S
N4459 S4458 1.613 . S
N4459 C4462 1.350 . S
N4460 S4458 1.610 . S
N4460 C4461 1.351 . S
C4461 C4455 1.428 . S
C4461 N4460 1.351 . S
C4461 C4462 1.434 . S
C4462 C4453 1.429 . S
C4462 N4459 1.350 . S
C4462 C4461 1.434 . S
C4463 C4464 1.369 . S
C4463 C4465 1.419 . S
C4463 H4467 0.930 . S
C4464 C4463 1.369 . S
C4464 C4473 1.429 . S
C4465 C4463 1.419 . S
C4465 C4466 1.363 . S
C4465 H4468 0.929 . S
C4466 C4465 1.363 . S
C4466 C4472 1.428 . S
H4467 C4463 0.930 . S
H4468 C4465 0.929 . S
S4469 N4470 1.613 . S
S4469 N4471 1.610 . S
N4470 S4469 1.613 . S
N4470 C4473 1.350 . S
N4471 S4469 1.610 . S
N4471 C4472 1.351 . S
C4472 C4466 1.428 . S
C4472 N4471 1.351 . S
C4472 C4473 1.434 . S
C4473 C4464 1.429 . S
C4473 N4470 1.350 . S
C4473 C4472 1.434 . S
C4474 C4475 1.369 . S
C4474 C4476 1.419 . S
C4474 H4478 0.930 . S
C4475 C4474 1.369 . S
C4475 C4484 1.429 . S
C4476 C4474 1.419 . S
C4476 C4477 1.363 . S
C4476 H4479 0.929 . S
C4477 C4476 1.363 . S
C4477 C4483 1.428 . S
H4478 C4474 0.930 . S
H4479 C4476 0.929 . S
S4480 N4481 1.613 . S
S4480 N4482 1.610 . S
N4481 S4480 1.613 . S
N4481 C4484 1.350 . S
N4482 S4480 1.610 . S
N4482 C4483 1.351 . S
C4483 C4477 1.428 . S
C4483 N4482 1.351 . S
C4483 C4484 1.434 . S
C4484 C4475 1.429 . S
C4484 N4481 1.350 . S
C4484 C4483 1.434 . S
C4485 C4486 1.369 . S
C4485 C4487 1.419 . S
C4485 H4489 0.930 . S
C4486 C4485 1.369 . S
C4486 C4495 1.429 . S
C4487 C4485 1.419 . S
C4487 C4488 1.363 . S
C4487 H4490 0.929 . S
C4488 C4487 1.363 . S
C4488 C4494 1.428 . S
H4489 C4485 0.930 . S
H4490 C4487 0.929 . S
S4491 N4492 1.613 . S
S4491 N4493 1.610 . S
N4492 S4491 1.613 . S
N4492 C4495 1.350 . S
N4493 S4491 1.610 . S
N4493 C4494 1.351 . S
C4494 C4488 1.428 . S
C4494 N4493 1.351 . S
C4494 C4495 1.434 . S
C4495 C4486 1.429 . S
C4495 N4492 1.350 . S
C4495 C4494 1.434 . S
C4496 C4497 1.369 . S
C4496 C4498 1.419 . S
C4496 H4500 0.930 . S
C4497 C4496 1.369 . S
C4497 C4506 1.429 . S
C4498 C4496 1.419 . S
C4498 C4499 1.363 . S
C4498 H4501 0.929 . S
C4499 C4498 1.363 . S
C4499 C4505 1.428 . S
H4500 C4496 0.930 . S
H4501 C4498 0.929 . S
S4502 N4503 1.613 . S
S4502 N4504 1.610 . S
N4503 S4502 1.613 . S
N4503 C4506 1.350 . S
N4504 S4502 1.610 . S
N4504 C4505 1.351 . S
C4505 C4499 1.428 . S
C4505 N4504 1.351 . S
C4505 C4506 1.434 . S
C4506 C4497 1.429 . S
C4506 N4503 1.350 . S
C4506 C4505 1.434 . S
C4507 C4508 1.369 . S
C4507 C4509 1.419 . S
C4507 H4511 0.930 . S
C4508 C4507 1.369 . S
C4508 C4517 1.429 . S
C4509 C4507 1.419 . S
C4509 C4510 1.363 . S
C4509 H4512 0.929 . S
C4510 C4509 1.363 . S
C4510 C4516 1.428 . S
H4511 C4507 0.930 . S
H4512 C4509 0.929 . S
S4513 N4514 1.613 . S
S4513 N4515 1.610 . S
N4514 S4513 1.613 . S
N4514 C4517 1.350 . S
N4515 S4513 1.610 . S
N4515 C4516 1.351 . S
C4516 C4510 1.428 . S
C4516 N4515 1.351 . S
C4516 C4517 1.434 . S
C4517 C4508 1.429 . S
C4517 N4514 1.350 . S
C4517 C4516 1.434 . S
C4518 C4519 1.369 . S
C4518 C4520 1.419 . S
C4518 H4522 0.930 . S
C4519 C4518 1.369 . S
C4519 C4528 1.429 . S
C4520 C4518 1.419 . S
C4520 C4521 1.363 . S
C4520 H4523 0.929 . S
C4521 C4520 1.363 . S
C4521 C4527 1.428 . S
H4522 C4518 0.930 . S
H4523 C4520 0.929 . S
S4524 N4525 1.613 . S
S4524 N4526 1.610 . S
N4525 S4524 1.613 . S
N4525 C4528 1.350 . S
N4526 S4524 1.610 . S
N4526 C4527 1.351 . S
C4527 C4521 1.428 . S
C4527 N4526 1.351 . S
C4527 C4528 1.434 . S
C4528 C4519 1.429 . S
C4528 N4525 1.350 . S
C4528 C4527 1.434 . S
C4529 C4530 1.369 . S
C4529 C4531 1.419 . S
C4529 H4533 0.930 . S
C4530 C4529 1.369 . S
C4530 C4539 1.429 . S
C4531 C4529 1.419 . S
C4531 C4532 1.363 . S
C4531 H4534 0.929 . S
C4532 C4531 1.363 . S
C4532 C4538 1.428 . S
H4533 C4529 0.930 . S
H4534 C4531 0.929 . S
S4535 N4536 1.613 . S
S4535 N4537 1.610 . S
N4536 S4535 1.613 . S
N4536 C4539 1.350 . S
N4537 S4535 1.610 . S
N4537 C4538 1.351 . S
C4538 C4532 1.428 . S
C4538 N4537 1.351 . S
C4538 C4539 1.434 . S
C4539 C4530 1.429 . S
C4539 N4536 1.350 . S
C4539 C4538 1.434 . S
C4540 C4541 1.369 . S
C4540 C4542 1.419 . S
C4540 H4544 0.930 . S
C4541 C4540 1.369 . S
C4541 C4550 1.429 . S
C4542 C4540 1.419 . S
C4542 C4543 1.363 . S
C4542 H4545 0.929 . S
C4543 C4542 1.363 . S
C4543 C4549 1.428 . S
H4544 C4540 0.930 . S
H4545 C4542 0.929 . S
S4546 N4547 1.613 . S
S4546 N4548 1.610 . S
N4547 S4546 1.613 . S
N4547 C4550 1.350 . S
N4548 S4546 1.610 . S
N4548 C4549 1.351 . S
C4549 C4543 1.428 . S
C4549 N4548 1.351 . S
C4549 C4550 1.434 . S
C4550 C4541 1.429 . S
C4550 N4547 1.350 . S
C4550 C4549 1.434 . S
C4551 C4552 1.369 . S
C4551 C4553 1.419 . S
C4551 H4555 0.930 . S
C4552 C4551 1.369 . S
C4552 C4561 1.429 . S
C4553 C4551 1.419 . S
C4553 C4554 1.363 . S
C4553 H4556 0.929 . S
C4554 C4553 1.363 . S
C4554 C4560 1.428 . S
H4555 C4551 0.930 . S
H4556 C4553 0.929 . S
S4557 N4558 1.613 . S
S4557 N4559 1.610 . S
N4558 S4557 1.613 . S
N4558 C4561 1.350 . S
N4559 S4557 1.610 . S
N4559 C4560 1.351 . S
C4560 C4554 1.428 . S
C4560 N4559 1.351 . S
C4560 C4561 1.434 . S
C4561 C4552 1.429 . S
C4561 N4558 1.350 . S
C4561 C4560 1.434 . S
C4562 C4563 1.369 . S
C4562 C4564 1.419 . S
C4562 H4566 0.930 . S
C4563 C4562 1.369 . S
C4563 C4572 1.429 . S
C4564 C4562 1.419 . S
C4564 C4565 1.363 . S
C4564 H4567 0.929 . S
C4565 C4564 1.363 . S
C4565 C4571 1.428 . S
H4566 C4562 0.930 . S
H4567 C4564 0.929 . S
S4568 N4569 1.613 . S
S4568 N4570 1.610 . S
N4569 S4568 1.613 . S
N4569 C4572 1.350 . S
N4570 S4568 1.610 . S
N4570 C4571 1.351 . S
C4571 C4565 1.428 . S
C4571 N4570 1.351 . S
C4571 C4572 1.434 . S
C4572 C4563 1.429 . S
C4572 N4569 1.350 . S
C4572 C4571 1.434 . S
C4573 C4574 1.369 . S
C4573 C4575 1.419 . S
C4573 H4577 0.930 . S
C4574 C4573 1.369 . S
C4574 C4583 1.429 . S
C4575 C4573 1.419 . S
C4575 C4576 1.363 . S
C4575 H4578 0.929 . S
C4576 C4575 1.363 . S
C4576 C4582 1.428 . S
H4577 C4573 0.930 . S
H4578 C4575 0.929 . S
S4579 N4580 1.613 . S
S4579 N4581 1.610 . S
N4580 S4579 1.613 . S
N4580 C4583 1.350 . S
N4581 S4579 1.610 . S
N4581 C4582 1.351 . S
C4582 C4576 1.428 . S
C4582 N4581 1.351 . S
C4582 C4583 1.434 . S
C4583 C4574 1.429 . S
C4583 N4580 1.350 . S
C4583 C4582 1.434 . S
C4584 C4585 1.369 . S
C4584 C4586 1.419 . S
C4584 H4588 0.930 . S
C4585 C4584 1.369 . S
C4585 C4594 1.429 . S
C4586 C4584 1.419 . S
C4586 C4587 1.363 . S
C4586 H4589 0.929 . S
C4587 C4586 1.363 . S
C4587 C4593 1.428 . S
H4588 C4584 0.930 . S
H4589 C4586 0.929 . S
S4590 N4591 1.613 . S
S4590 N4592 1.610 . S
N4591 S4590 1.613 . S
N4591 C4594 1.350 . S
N4592 S4590 1.610 . S
N4592 C4593 1.351 . S
C4593 C4587 1.428 . S
C4593 N4592 1.351 . S
C4593 C4594 1.434 . S
C4594 C4585 1.429 . S
C4594 N4591 1.350 . S
C4594 C4593 1.434 . S
C4595 C4596 1.369 . S
C4595 C4597 1.419 . S
C4595 H4599 0.930 . S
C4596 C4595 1.369 . S
C4596 C4605 1.429 . S
C4597 C4595 1.419 . S
C4597 C4598 1.363 . S
C4597 H4600 0.929 . S
C4598 C4597 1.363 . S
C4598 C4604 1.428 . S
H4599 C4595 0.930 . S
H4600 C4597 0.929 . S
S4601 N4602 1.613 . S
S4601 N4603 1.610 . S
N4602 S4601 1.613 . S
N4602 C4605 1.350 . S
N4603 S4601 1.610 . S
N4603 C4604 1.351 . S
C4604 C4598 1.428 . S
C4604 N4603 1.351 . S
C4604 C4605 1.434 . S
C4605 C4596 1.429 . S
C4605 N4602 1.350 . S
C4605 C4604 1.434 . S
C4606 C4607 1.369 . S
C4606 C4608 1.419 . S
C4606 H4610 0.930 . S
C4607 C4606 1.369 . S
C4607 C4616 1.429 . S
C4608 C4606 1.419 . S
C4608 C4609 1.363 . S
C4608 H4611 0.929 . S
C4609 C4608 1.363 . S
C4609 C4615 1.428 . S
H4610 C4606 0.930 . S
H4611 C4608 0.929 . S
S4612 N4613 1.613 . S
S4612 N4614 1.610 . S
N4613 S4612 1.613 . S
N4613 C4616 1.350 . S
N4614 S4612 1.610 . S
N4614 C4615 1.351 . S
C4615 C4609 1.428 . S
C4615 N4614 1.351 . S
C4615 C4616 1.434 . S
C4616 C4607 1.429 . S
C4616 N4613 1.350 . S
C4616 C4615 1.434 . S
C4617 C4618 1.369 . S
C4617 C4619 1.419 . S
C4617 H4621 0.930 . S
C4618 C4617 1.369 . S
C4618 C4627 1.429 . S
C4619 C4617 1.419 . S
C4619 C4620 1.363 . S
C4619 H4622 0.929 . S
C4620 C4619 1.363 . S
C4620 C4626 1.428 . S
H4621 C4617 0.930 . S
H4622 C4619 0.929 . S
S4623 N4624 1.613 . S
S4623 N4625 1.610 . S
N4624 S4623 1.613 . S
N4624 C4627 1.350 . S
N4625 S4623 1.610 . S
N4625 C4626 1.351 . S
C4626 C4620 1.428 . S
C4626 N4625 1.351 . S
C4626 C4627 1.434 . S
C4627 C4618 1.429 . S
C4627 N4624 1.350 . S
C4627 C4626 1.434 . S
C4628 C4629 1.369 . S
C4628 C4630 1.419 . S
C4628 H4632 0.930 . S
C4629 C4628 1.369 . S
C4629 C4638 1.429 . S
C4630 C4628 1.419 . S
C4630 C4631 1.363 . S
C4630 H4633 0.929 . S
C4631 C4630 1.363 . S
C4631 C4637 1.428 . S
H4632 C4628 0.930 . S
H4633 C4630 0.929 . S
S4634 N4635 1.613 . S
S4634 N4636 1.610 . S
N4635 S4634 1.613 . S
N4635 C4638 1.350 . S
N4636 S4634 1.610 . S
N4636 C4637 1.351 . S
C4637 C4631 1.428 . S
C4637 N4636 1.351 . S
C4637 C4638 1.434 . S
C4638 C4629 1.429 . S
C4638 N4635 1.350 . S
C4638 C4637 1.434 . S
C4639 C4640 1.369 . S
C4639 C4641 1.419 . S
C4639 H4643 0.930 . S
C4640 C4639 1.369 . S
C4640 C4649 1.429 . S
C4641 C4639 1.419 . S
C4641 C4642 1.363 . S
C4641 H4644 0.929 . S
C4642 C4641 1.363 . S
C4642 C4648 1.428 . S
H4643 C4639 0.930 . S
H4644 C4641 0.929 . S
S4645 N4646 1.613 . S
S4645 N4647 1.610 . S
N4646 S4645 1.613 . S
N4646 C4649 1.350 . S
N4647 S4645 1.610 . S
N4647 C4648 1.351 . S
C4648 C4642 1.428 . S
C4648 N4647 1.351 . S
C4648 C4649 1.434 . S
C4649 C4640 1.429 . S
C4649 N4646 1.350 . S
C4649 C4648 1.434 . S
C4650 C4651 1.369 . S
C4650 C4652 1.419 . S
C4650 H4654 0.930 . S
C4651 C4650 1.369 . S
C4651 C4660 1.429 . S
C4652 C4650 1.419 . S
C4652 C4653 1.363 . S
C4652 H4655 0.929 . S
C4653 C4652 1.363 . S
C4653 C4659 1.428 . S
H4654 C4650 0.930 . S
H4655 C4652 0.929 . S
S4656 N4657 1.613 . S
S4656 N4658 1.610 . S
N4657 S4656 1.613 . S
N4657 C4660 1.350 . S
N4658 S4656 1.610 . S
N4658 C4659 1.351 . S
C4659 C4653 1.428 . S
C4659 N4658 1.351 . S
C4659 C4660 1.434 . S
C4660 C4651 1.429 . S
C4660 N4657 1.350 . S
C4660 C4659 1.434 . S
C4661 C4662 1.369 . S
C4661 C4663 1.419 . S
C4661 H4665 0.930 . S
C4662 C4661 1.369 . S
C4662 C4671 1.429 . S
C4663 C4661 1.419 . S
C4663 C4664 1.363 . S
C4663 H4666 0.929 . S
C4664 C4663 1.363 . S
C4664 C4670 1.428 . S
H4665 C4661 0.930 . S
H4666 C4663 0.929 . S
S4667 N4668 1.613 . S
S4667 N4669 1.610 . S
N4668 S4667 1.613 . S
N4668 C4671 1.350 . S
N4669 S4667 1.610 . S
N4669 C4670 1.351 . S
C4670 C4664 1.428 . S
C4670 N4669 1.351 . S
C4670 C4671 1.434 . S
C4671 C4662 1.429 . S
C4671 N4668 1.350 . S
C4671 C4670 1.434 . S
C4672 C4673 1.369 . S
C4672 C4674 1.419 . S
C4672 H4676 0.930 . S
C4673 C4672 1.369 . S
C4673 C4682 1.429 . S
C4674 C4672 1.419 . S
C4674 C4675 1.363 . S
C4674 H4677 0.929 . S
C4675 C4674 1.363 . S
C4675 C4681 1.428 . S
H4676 C4672 0.930 . S
H4677 C4674 0.929 . S
S4678 N4679 1.613 . S
S4678 N4680 1.610 . S
N4679 S4678 1.613 . S
N4679 C4682 1.350 . S
N4680 S4678 1.610 . S
N4680 C4681 1.351 . S
C4681 C4675 1.428 . S
C4681 N4680 1.351 . S
C4681 C4682 1.434 . S
C4682 C4673 1.429 . S
C4682 N4679 1.350 . S
C4682 C4681 1.434 . S
C4683 C4684 1.369 . S
C4683 C4685 1.419 . S
C4683 H4687 0.930 . S
C4684 C4683 1.369 . S
C4684 C4693 1.429 . S
C4685 C4683 1.419 . S
C4685 C4686 1.363 . S
C4685 H4688 0.929 . S
C4686 C4685 1.363 . S
C4686 C4692 1.428 . S
H4687 C4683 0.930 . S
H4688 C4685 0.929 . S
S4689 N4690 1.613 . S
S4689 N4691 1.610 . S
N4690 S4689 1.613 . S
N4690 C4693 1.350 . S
N4691 S4689 1.610 . S
N4691 C4692 1.351 . S
C4692 C4686 1.428 . S
C4692 N4691 1.351 . S
C4692 C4693 1.434 . S
C4693 C4684 1.429 . S
C4693 N4690 1.350 . S
C4693 C4692 1.434 . S
C4694 C4695 1.369 . S
C4694 C4696 1.419 . S
C4694 H4698 0.930 . S
C4695 C4694 1.369 . S
C4695 C4704 1.429 . S
C4696 C4694 1.419 . S
C4696 C4697 1.363 . S
C4696 H4699 0.929 . S
C4697 C4696 1.363 . S
C4697 C4703 1.428 . S
H4698 C4694 0.930 . S
H4699 C4696 0.929 . S
S4700 N4701 1.613 . S
S4700 N4702 1.610 . S
N4701 S4700 1.613 . S
N4701 C4704 1.350 . S
N4702 S4700 1.610 . S
N4702 C4703 1.351 . S
C4703 C4697 1.428 . S
C4703 N4702 1.351 . S
C4703 C4704 1.434 . S
C4704 C4695 1.429 . S
C4704 N4701 1.350 . S
C4704 C4703 1.434 . S
C4705 C4706 1.369 . S
C4705 C4707 1.419 . S
C4705 H4709 0.930 . S
C4706 C4705 1.369 . S
C4706 C4715 1.429 . S
C4707 C4705 1.419 . S
C4707 C4708 1.363 . S
C4707 H4710 0.929 . S
C4708 C4707 1.363 . S
C4708 C4714 1.428 . S
H4709 C4705 0.930 . S
H4710 C4707 0.929 . S
S4711 N4712 1.613 . S
S4711 N4713 1.610 . S
N4712 S4711 1.613 . S
N4712 C4715 1.350 . S
N4713 S4711 1.610 . S
N4713 C4714 1.351 . S
C4714 C4708 1.428 . S
C4714 N4713 1.351 . S
C4714 C4715 1.434 . S
C4715 C4706 1.429 . S
C4715 N4712 1.350 . S
C4715 C4714 1.434 . S
C4716 C4717 1.369 . S
C4716 C4718 1.419 . S
C4716 H4720 0.930 . S
C4717 C4716 1.369 . S
C4717 C4726 1.429 . S
C4718 C4716 1.419 . S
C4718 C4719 1.363 . S
C4718 H4721 0.929 . S
C4719 C4718 1.363 . S
C4719 C4725 1.428 . S
H4720 C4716 0.930 . S
H4721 C4718 0.929 . S
S4722 N4723 1.613 . S
S4722 N4724 1.610 . S
N4723 S4722 1.613 . S
N4723 C4726 1.350 . S
N4724 S4722 1.610 . S
N4724 C4725 1.351 . S
C4725 C4719 1.428 . S
C4725 N4724 1.351 . S
C4725 C4726 1.434 . S
C4726 C4717 1.429 . S
C4726 N4723 1.350 . S
C4726 C4725 1.434 . S
C4727 C4728 1.369 . S
C4727 C4729 1.419 . S
C4727 H4731 0.930 . S
C4728 C4727 1.369 . S
C4728 C4737 1.429 . S
C4729 C4727 1.419 . S
C4729 C4730 1.363 . S
C4729 H4732 0.929 . S
C4730 C4729 1.363 . S
C4730 C4736 1.428 . S
H4731 C4727 0.930 . S
H4732 C4729 0.929 . S
S4733 N4734 1.613 . S
S4733 N4735 1.610 . S
N4734 S4733 1.613 . S
N4734 C4737 1.350 . S
N4735 S4733 1.610 . S
N4735 C4736 1.351 . S
C4736 C4730 1.428 . S
C4736 N4735 1.351 . S
C4736 C4737 1.434 . S
C4737 C4728 1.429 . S
C4737 N4734 1.350 . S
C4737 C4736 1.434 . S
C4738 C4739 1.369 . S
C4738 C4740 1.419 . S
C4738 H4742 0.930 . S
C4739 C4738 1.369 . S
C4739 C4748 1.429 . S
C4740 C4738 1.419 . S
C4740 C4741 1.363 . S
C4740 H4743 0.929 . S
C4741 C4740 1.363 . S
C4741 C4747 1.428 . S
H4742 C4738 0.930 . S
H4743 C4740 0.929 . S
S4744 N4745 1.613 . S
S4744 N4746 1.610 . S
N4745 S4744 1.613 . S
N4745 C4748 1.350 . S
N4746 S4744 1.610 . S
N4746 C4747 1.351 . S
C4747 C4741 1.428 . S
C4747 N4746 1.351 . S
C4747 C4748 1.434 . S
C4748 C4739 1.429 . S
C4748 N4745 1.350 . S
C4748 C4747 1.434 . S
C4749 C4750 1.369 . S
C4749 C4751 1.419 . S
C4749 H4753 0.930 . S
C4750 C4749 1.369 . S
C4750 C4759 1.429 . S
C4751 C4749 1.419 . S
C4751 C4752 1.363 . S
C4751 H4754 0.929 . S
C4752 C4751 1.363 . S
C4752 C4758 1.428 . S
H4753 C4749 0.930 . S
H4754 C4751 0.929 . S
S4755 N4756 1.613 . S
S4755 N4757 1.610 . S
N4756 S4755 1.613 . S
N4756 C4759 1.350 . S
N4757 S4755 1.610 . S
N4757 C4758 1.351 . S
C4758 C4752 1.428 . S
C4758 N4757 1.351 . S
C4758 C4759 1.434 . S
C4759 C4750 1.429 . S
C4759 N4756 1.350 . S
C4759 C4758 1.434 . S
C4760 C4761 1.369 . S
C4760 C4762 1.419 . S
C4760 H4764 0.930 . S
C4761 C4760 1.369 . S
C4761 C4770 1.429 . S
C4762 C4760 1.419 . S
C4762 C4763 1.363 . S
C4762 H4765 0.929 . S
C4763 C4762 1.363 . S
C4763 C4769 1.428 . S
H4764 C4760 0.930 . S
H4765 C4762 0.929 . S
S4766 N4767 1.613 . S
S4766 N4768 1.610 . S
N4767 S4766 1.613 . S
N4767 C4770 1.350 . S
N4768 S4766 1.610 . S
N4768 C4769 1.351 . S
C4769 C4763 1.428 . S
C4769 N4768 1.351 . S
C4769 C4770 1.434 . S
C4770 C4761 1.429 . S
C4770 N4767 1.350 . S
C4770 C4769 1.434 . S
C4771 C4772 1.369 . S
C4771 C4773 1.419 . S
C4771 H4775 0.930 . S
C4772 C4771 1.369 . S
C4772 C4781 1.429 . S
C4773 C4771 1.419 . S
C4773 C4774 1.363 . S
C4773 H4776 0.929 . S
C4774 C4773 1.363 . S
C4774 C4780 1.428 . S
H4775 C4771 0.930 . S
H4776 C4773 0.929 . S
S4777 N4778 1.613 . S
S4777 N4779 1.610 . S
N4778 S4777 1.613 . S
N4778 C4781 1.350 . S
N4779 S4777 1.610 . S
N4779 C4780 1.351 . S
C4780 C4774 1.428 . S
C4780 N4779 1.351 . S
C4780 C4781 1.434 . S
C4781 C4772 1.429 . S
C4781 N4778 1.350 . S
C4781 C4780 1.434 . S
C4782 C4783 1.369 . S
C4782 C4784 1.419 . S
C4782 H4786 0.930 . S
C4783 C4782 1.369 . S
C4783 C4792 1.429 . S
C4784 C4782 1.419 . S
C4784 C4785 1.363 . S
C4784 H4787 0.929 . S
C4785 C4784 1.363 . S
C4785 C4791 1.428 . S
H4786 C4782 0.930 . S
H4787 C4784 0.929 . S
S4788 N4789 1.613 . S
S4788 N4790 1.610 . S
N4789 S4788 1.613 . S
N4789 C4792 1.350 . S
N4790 S4788 1.610 . S
N4790 C4791 1.351 . S
C4791 C4785 1.428 . S
C4791 N4790 1.351 . S
C4791 C4792 1.434 . S
C4792 C4783 1.429 . S
C4792 N4789 1.350 . S
C4792 C4791 1.434 . S
C4793 C4794 1.369 . S
C4793 C4795 1.419 . S
C4793 H4797 0.930 . S
C4794 C4793 1.369 . S
C4794 C4803 1.429 . S
C4795 C4793 1.419 . S
C4795 C4796 1.363 . S
C4795 H4798 0.929 . S
C4796 C4795 1.363 . S
C4796 C4802 1.428 . S
H4797 C4793 0.930 . S
H4798 C4795 0.929 . S
S4799 N4800 1.613 . S
S4799 N4801 1.610 . S
N4800 S4799 1.613 . S
N4800 C4803 1.350 . S
N4801 S4799 1.610 . S
N4801 C4802 1.351 . S
C4802 C4796 1.428 . S
C4802 N4801 1.351 . S
C4802 C4803 1.434 . S
C4803 C4794 1.429 . S
C4803 N4800 1.350 . S
C4803 C4802 1.434 . S
C4804 C4805 1.369 . S
C4804 C4806 1.419 . S
C4804 H4808 0.930 . S
C4805 C4804 1.369 . S
C4805 C4814 1.429 . S
C4806 C4804 1.419 . S
C4806 C4807 1.363 . S
C4806 H4809 0.929 . S
C4807 C4806 1.363 . S
C4807 C4813 1.428 . S
H4808 C4804 0.930 . S
H4809 C4806 0.929 . S
S4810 N4811 1.613 . S
S4810 N4812 1.610 . S
N4811 S4810 1.613 . S
N4811 C4814 1.350 . S
N4812 S4810 1.610 . S
N4812 C4813 1.351 . S
C4813 C4807 1.428 . S
C4813 N4812 1.351 . S
C4813 C4814 1.434 . S
C4814 C4805 1.429 . S
C4814 N4811 1.350 . S
C4814 C4813 1.434 . S
C4815 C4816 1.369 . S
C4815 C4817 1.419 . S
C4815 H4819 0.930 . S
C4816 C4815 1.369 . S
C4816 C4825 1.429 . S
C4817 C4815 1.419 . S
C4817 C4818 1.363 . S
C4817 H4820 0.929 . S
C4818 C4817 1.363 . S
C4818 C4824 1.428 . S
H4819 C4815 0.930 . S
H4820 C4817 0.929 . S
S4821 N4822 1.613 . S
S4821 N4823 1.610 . S
N4822 S4821 1.613 . S
N4822 C4825 1.350 . S
N4823 S4821 1.610 . S
N4823 C4824 1.351 . S
C4824 C4818 1.428 . S
C4824 N4823 1.351 . S
C4824 C4825 1.434 . S
C4825 C4816 1.429 . S
C4825 N4822 1.350 . S
C4825 C4824 1.434 . S
C4826 C4827 1.369 . S
C4826 C4828 1.419 . S
C4826 H4830 0.930 . S
C4827 C4826 1.369 . S
C4827 C4836 1.429 . S
C4828 C4826 1.419 . S
C4828 C4829 1.363 . S
C4828 H4831 0.929 . S
C4829 C4828 1.363 . S
C4829 C4835 1.428 . S
H4830 C4826 0.930 . S
H4831 C4828 0.929 . S
S4832 N4833 1.613 . S
S4832 N4834 1.610 . S
N4833 S4832 1.613 . S
N4833 C4836 1.350 . S
N4834 S4832 1.610 . S
N4834 C4835 1.351 . S
C4835 C4829 1.428 . S
C4835 N4834 1.351 . S
C4835 C4836 1.434 . S
C4836 C4827 1.429 . S
C4836 N4833 1.350 . S
C4836 C4835 1.434 . S
C4837 C4838 1.369 . S
C4837 C4839 1.419 . S
C4837 H4841 0.930 . S
C4838 C4837 1.369 . S
C4838 C4847 1.429 . S
C4839 C4837 1.419 . S
C4839 C4840 1.363 . S
C4839 H4842 0.929 . S
C4840 C4839 1.363 . S
C4840 C4846 1.428 . S
H4841 C4837 0.930 . S
H4842 C4839 0.929 . S
S4843 N4844 1.613 . S
S4843 N4845 1.610 . S
N4844 S4843 1.613 . S
N4844 C4847 1.350 . S
N4845 S4843 1.610 . S
N4845 C4846 1.351 . S
C4846 C4840 1.428 . S
C4846 N4845 1.351 . S
C4846 C4847 1.434 . S
C4847 C4838 1.429 . S
C4847 N4844 1.350 . S
C4847 C4846 1.434 . S
C4848 C4849 1.369 . S
C4848 C4850 1.419 . S
C4848 H4852 0.930 . S
C4849 C4848 1.369 . S
C4849 C4858 1.429 . S
C4850 C4848 1.419 . S
C4850 C4851 1.363 . S
C4850 H4853 0.929 . S
C4851 C4850 1.363 . S
C4851 C4857 1.428 . S
H4852 C4848 0.930 . S
H4853 C4850 0.929 . S
S4854 N4855 1.613 . S
S4854 N4856 1.610 . S
N4855 S4854 1.613 . S
N4855 C4858 1.350 . S
N4856 S4854 1.610 . S
N4856 C4857 1.351 . S
C4857 C4851 1.428 . S
C4857 N4856 1.351 . S
C4857 C4858 1.434 . S
C4858 C4849 1.429 . S
C4858 N4855 1.350 . S
C4858 C4857 1.434 . S
C4859 C4860 1.369 . S
C4859 C4861 1.419 . S
C4859 H4863 0.930 . S
C4860 C4859 1.369 . S
C4860 C4869 1.429 . S
C4861 C4859 1.419 . S
C4861 C4862 1.363 . S
C4861 H4864 0.929 . S
C4862 C4861 1.363 . S
C4862 C4868 1.428 . S
H4863 C4859 0.930 . S
H4864 C4861 0.929 . S
S4865 N4866 1.613 . S
S4865 N4867 1.610 . S
N4866 S4865 1.613 . S
N4866 C4869 1.350 . S
N4867 S4865 1.610 . S
N4867 C4868 1.351 . S
C4868 C4862 1.428 . S
C4868 N4867 1.351 . S
C4868 C4869 1.434 . S
C4869 C4860 1.429 . S
C4869 N4866 1.350 . S
C4869 C4868 1.434 . S
C4870 C4871 1.369 . S
C4870 C4872 1.419 . S
C4870 H4874 0.930 . S
C4871 C4870 1.369 . S
C4871 C4880 1.429 . S
C4872 C4870 1.419 . S
C4872 C4873 1.363 . S
C4872 H4875 0.929 . S
C4873 C4872 1.363 . S
C4873 C4879 1.428 . S
H4874 C4870 0.930 . S
H4875 C4872 0.929 . S
S4876 N4877 1.613 . S
S4876 N4878 1.610 . S
N4877 S4876 1.613 . S
N4877 C4880 1.350 . S
N4878 S4876 1.610 . S
N4878 C4879 1.351 . S
C4879 C4873 1.428 . S
C4879 N4878 1.351 . S
C4879 C4880 1.434 . S
C4880 C4871 1.429 . S
C4880 N4877 1.350 . S
C4880 C4879 1.434 . S
C4881 C4882 1.369 . S
C4881 C4883 1.419 . S
C4881 H4885 0.930 . S
C4882 C4881 1.369 . S
C4882 C4891 1.429 . S
C4883 C4881 1.419 . S
C4883 C4884 1.363 . S
C4883 H4886 0.929 . S
C4884 C4883 1.363 . S
C4884 C4890 1.428 . S
H4885 C4881 0.930 . S
H4886 C4883 0.929 . S
S4887 N4888 1.613 . S
S4887 N4889 1.610 . S
N4888 S4887 1.613 . S
N4888 C4891 1.350 . S
N4889 S4887 1.610 . S
N4889 C4890 1.351 . S
C4890 C4884 1.428 . S
C4890 N4889 1.351 . S
C4890 C4891 1.434 . S
C4891 C4882 1.429 . S
C4891 N4888 1.350 . S
C4891 C4890 1.434 . S
C4892 C4893 1.369 . S
C4892 C4894 1.419 . S
C4892 H4896 0.930 . S
C4893 C4892 1.369 . S
C4893 C4902 1.429 . S
C4894 C4892 1.419 . S
C4894 C4895 1.363 . S
C4894 H4897 0.929 . S
C4895 C4894 1.363 . S
C4895 C4901 1.428 . S
H4896 C4892 0.930 . S
H4897 C4894 0.929 . S
S4898 N4899 1.613 . S
S4898 N4900 1.610 . S
N4899 S4898 1.613 . S
N4899 C4902 1.350 . S
N4900 S4898 1.610 . S
N4900 C4901 1.351 . S
C4901 C4895 1.428 . S
C4901 N4900 1.351 . S
C4901 C4902 1.434 . S
C4902 C4893 1.429 . S
C4902 N4899 1.350 . S
C4902 C4901 1.434 . S
C4903 C4904 1.369 . S
C4903 C4905 1.419 . S
C4903 H4907 0.930 . S
C4904 C4903 1.369 . S
C4904 C4913 1.429 . S
C4905 C4903 1.419 . S
C4905 C4906 1.363 . S
C4905 H4908 0.929 . S
C4906 C4905 1.363 . S
C4906 C4912 1.428 . S
H4907 C4903 0.930 . S
H4908 C4905 0.929 . S
S4909 N4910 1.613 . S
S4909 N4911 1.610 . S
N4910 S4909 1.613 . S
N4910 C4913 1.350 . S
N4911 S4909 1.610 . S
N4911 C4912 1.351 . S
C4912 C4906 1.428 . S
C4912 N4911 1.351 . S
C4912 C4913 1.434 . S
C4913 C4904 1.429 . S
C4913 N4910 1.350 . S
C4913 C4912 1.434 . S
C4914 C4915 1.369 . S
C4914 C4916 1.419 . S
C4914 H4918 0.930 . S
C4915 C4914 1.369 . S
C4915 C4924 1.429 . S
C4916 C4914 1.419 . S
C4916 C4917 1.363 . S
C4916 H4919 0.929 . S
C4917 C4916 1.363 . S
C4917 C4923 1.428 . S
H4918 C4914 0.930 . S
H4919 C4916 0.929 . S
S4920 N4921 1.613 . S
S4920 N4922 1.610 . S
N4921 S4920 1.613 . S
N4921 C4924 1.350 . S
N4922 S4920 1.610 . S
N4922 C4923 1.351 . S
C4923 C4917 1.428 . S
C4923 N4922 1.351 . S
C4923 C4924 1.434 . S
C4924 C4915 1.429 . S
C4924 N4921 1.350 . S
C4924 C4923 1.434 . S
C4925 C4926 1.369 . S
C4925 C4927 1.419 . S
C4925 H4929 0.930 . S
C4926 C4925 1.369 . S
C4926 C4935 1.429 . S
C4927 C4925 1.419 . S
C4927 C4928 1.363 . S
C4927 H4930 0.929 . S
C4928 C4927 1.363 . S
C4928 C4934 1.428 . S
H4929 C4925 0.930 . S
H4930 C4927 0.929 . S
S4931 N4932 1.613 . S
S4931 N4933 1.610 . S
N4932 S4931 1.613 . S
N4932 C4935 1.350 . S
N4933 S4931 1.610 . S
N4933 C4934 1.351 . S
C4934 C4928 1.428 . S
C4934 N4933 1.351 . S
C4934 C4935 1.434 . S
C4935 C4926 1.429 . S
C4935 N4932 1.350 . S
C4935 C4934 1.434 . S
C4936 C4937 1.369 . S
C4936 C4938 1.419 . S
C4936 H4940 0.930 . S
C4937 C4936 1.369 . S
C4937 C4946 1.429 . S
C4938 C4936 1.419 . S
C4938 C4939 1.363 . S
C4938 H4941 0.929 . S
C4939 C4938 1.363 . S
C4939 C4945 1.428 . S
H4940 C4936 0.930 . S
H4941 C4938 0.929 . S
S4942 N4943 1.613 . S
S4942 N4944 1.610 . S
N4943 S4942 1.613 . S
N4943 C4946 1.350 . S
N4944 S4942 1.610 . S
N4944 C4945 1.351 . S
C4945 C4939 1.428 . S
C4945 N4944 1.351 . S
C4945 C4946 1.434 . S
C4946 C4937 1.429 . S
C4946 N4943 1.350 . S
C4946 C4945 1.434 . S
C4947 C4948 1.369 . S
C4947 C4949 1.419 . S
C4947 H4951 0.930 . S
C4948 C4947 1.369 . S
C4948 C4957 1.429 . S
C4949 C4947 1.419 . S
C4949 C4950 1.363 . S
C4949 H4952 0.929 . S
C4950 C4949 1.363 . S
C4950 C4956 1.428 . S
H4951 C4947 0.930 . S
H4952 C4949 0.929 . S
S4953 N4954 1.613 . S
S4953 N4955 1.610 . S
N4954 S4953 1.613 . S
N4954 C4957 1.350 . S
N4955 S4953 1.610 . S
N4955 C4956 1.351 . S
C4956 C4950 1.428 . S
C4956 N4955 1.351 . S
C4956 C4957 1.434 . S
C4957 C4948 1.429 . S
C4957 N4954 1.350 . S
C4957 C4956 1.434 . S
C4958 C4959 1.369 . S
C4958 C4960 1.419 . S
C4958 H4962 0.930 . S
C4959 C4958 1.369 . S
C4959 C4968 1.429 . S
C4960 C4958 1.419 . S
C4960 C4961 1.363 . S
C4960 H4963 0.929 . S
C4961 C4960 1.363 . S
C4961 C4967 1.428 . S
H4962 C4958 0.930 . S
H4963 C4960 0.929 . S
S4964 N4965 1.613 . S
S4964 N4966 1.610 . S
N4965 S4964 1.613 . S
N4965 C4968 1.350 . S
N4966 S4964 1.610 . S
N4966 C4967 1.351 . S
C4967 C4961 1.428 . S
C4967 N4966 1.351 . S
C4967 C4968 1.434 . S
C4968 C4959 1.429 . S
C4968 N4965 1.350 . S
C4968 C4967 1.434 . S
C4969 C4970 1.369 . S
C4969 C4971 1.419 . S
C4969 H4973 0.930 . S
C4970 C4969 1.369 . S
C4970 C4979 1.429 . S
C4971 C4969 1.419 . S
C4971 C4972 1.363 . S
C4971 H4974 0.929 . S
C4972 C4971 1.363 . S
C4972 C4978 1.428 . S
H4973 C4969 0.930 . S
H4974 C4971 0.929 . S
S4975 N4976 1.613 . S
S4975 N4977 1.610 . S
N4976 S4975 1.613 . S
N4976 C4979 1.350 . S
N4977 S4975 1.610 . S
N4977 C4978 1.351 . S
C4978 C4972 1.428 . S
C4978 N4977 1.351 . S
C4978 C4979 1.434 . S
C4979 C4970 1.429 . S
C4979 N4976 1.350 . S
C4979 C4978 1.434 . S
C4980 C4981 1.369 . S
C4980 C4982 1.419 . S
C4980 H4984 0.930 . S
C4981 C4980 1.369 . S
C4981 C4990 1.429 . S
C4982 C4980 1.419 . S
C4982 C4983 1.363 . S
C4982 H4985 0.929 . S
C4983 C4982 1.363 . S
C4983 C4989 1.428 . S
H4984 C4980 0.930 . S
H4985 C4982 0.929 . S
S4986 N4987 1.613 . S
S4986 N4988 1.610 . S
N4987 S4986 1.613 . S
N4987 C4990 1.350 . S
N4988 S4986 1.610 . S
N4988 C4989 1.351 . S
C4989 C4983 1.428 . S
C4989 N4988 1.351 . S
C4989 C4990 1.434 . S
C4990 C4981 1.429 . S
C4990 N4987 1.350 . S
C4990 C4989 1.434 . S
C4991 C4992 1.369 . S
C4991 C4993 1.419 . S
C4991 H4995 0.930 . S
C4992 C4991 1.369 . S
C4992 C5001 1.429 . S
C4993 C4991 1.419 . S
C4993 C4994 1.363 . S
C4993 H4996 0.929 . S
C4994 C4993 1.363 . S
C4994 C5000 1.428 . S
H4995 C4991 0.930 . S
H4996 C4993 0.929 . S
S4997 N4998 1.613 . S
S4997 N4999 1.610 . S
N4998 S4997 1.613 . S
N4998 C5001 1.350 . S
N4999 S4997 1.610 . S
N4999 C5000 1.351 . S
C5000 C4994 1.428 . S
C5000 N4999 1.351 . S
C5000 C5001 1.434 . S
C5001 C4992 1.429 . S
C5001 N4998 1.350 . S
C5001 C5000 1.434 . S
C5002 C5003 1.369 . S
C5002 C5004 1.419 . S
C5002 H5006 0.930 . S
C5003 C5002 1.369 . S
C5003 C5012 1.429 . S
C5004 C5002 1.419 . S
C5004 C5005 1.363 . S
C5004 H5007 0.929 . S
C5005 C5004 1.363 . S
C5005 C5011 1.428 . S
H5006 C5002 0.930 . S
H5007 C5004 0.929 . S
S5008 N5009 1.613 . S
S5008 N5010 1.610 . S
N5009 S5008 1.613 . S
N5009 C5012 1.350 . S
N5010 S5008 1.610 . S
N5010 C5011 1.351 . S
C5011 C5005 1.428 . S
C5011 N5010 1.351 . S
C5011 C5012 1.434 . S
C5012 C5003 1.429 . S
C5012 N5009 1.350 . S
C5012 C5011 1.434 . S
C5013 C5014 1.369 . S
C5013 C5015 1.419 . S
C5013 H5017 0.930 . S
C5014 C5013 1.369 . S
C5014 C5023 1.429 . S
C5015 C5013 1.419 . S
C5015 C5016 1.363 . S
C5015 H5018 0.929 . S
C5016 C5015 1.363 . S
C5016 C5022 1.428 . S
H5017 C5013 0.930 . S
H5018 C5015 0.929 . S
S5019 N5020 1.613 . S
S5019 N5021 1.610 . S
N5020 S5019 1.613 . S
N5020 C5023 1.350 . S
N5021 S5019 1.610 . S
N5021 C5022 1.351 . S
C5022 C5016 1.428 . S
C5022 N5021 1.351 . S
C5022 C5023 1.434 . S
C5023 C5014 1.429 . S
C5023 N5020 1.350 . S
C5023 C5022 1.434 . S
C5024 C5025 1.369 . S
C5024 C5026 1.419 . S
C5024 H5028 0.930 . S
C5025 C5024 1.369 . S
C5025 C5034 1.429 . S
C5026 C5024 1.419 . S
C5026 C5027 1.363 . S
C5026 H5029 0.929 . S
C5027 C5026 1.363 . S
C5027 C5033 1.428 . S
H5028 C5024 0.930 . S
H5029 C5026 0.929 . S
S5030 N5031 1.613 . S
S5030 N5032 1.610 . S
N5031 S5030 1.613 . S
N5031 C5034 1.350 . S
N5032 S5030 1.610 . S
N5032 C5033 1.351 . S
C5033 C5027 1.428 . S
C5033 N5032 1.351 . S
C5033 C5034 1.434 . S
C5034 C5025 1.429 . S
C5034 N5031 1.350 . S
C5034 C5033 1.434 . S
C5035 C5036 1.369 . S
C5035 C5037 1.419 . S
C5035 H5039 0.930 . S
C5036 C5035 1.369 . S
C5036 C5045 1.429 . S
C5037 C5035 1.419 . S
C5037 C5038 1.363 . S
C5037 H5040 0.929 . S
C5038 C5037 1.363 . S
C5038 C5044 1.428 . S
H5039 C5035 0.930 . S
H5040 C5037 0.929 . S
S5041 N5042 1.613 . S
S5041 N5043 1.610 . S
N5042 S5041 1.613 . S
N5042 C5045 1.350 . S
N5043 S5041 1.610 . S
N5043 C5044 1.351 . S
C5044 C5038 1.428 . S
C5044 N5043 1.351 . S
C5044 C5045 1.434 . S
C5045 C5036 1.429 . S
C5045 N5042 1.350 . S
C5045 C5044 1.434 . S
C5046 C5047 1.369 . S
C5046 C5048 1.419 . S
C5046 H5050 0.930 . S
C5047 C5046 1.369 . S
C5047 C5056 1.429 . S
C5048 C5046 1.419 . S
C5048 C5049 1.363 . S
C5048 H5051 0.929 . S
C5049 C5048 1.363 . S
C5049 C5055 1.428 . S
H5050 C5046 0.930 . S
H5051 C5048 0.929 . S
S5052 N5053 1.613 . S
S5052 N5054 1.610 . S
N5053 S5052 1.613 . S
N5053 C5056 1.350 . S
N5054 S5052 1.610 . S
N5054 C5055 1.351 . S
C5055 C5049 1.428 . S
C5055 N5054 1.351 . S
C5055 C5056 1.434 . S
C5056 C5047 1.429 . S
C5056 N5053 1.350 . S
C5056 C5055 1.434 . S
C5057 C5058 1.369 . S
C5057 C5059 1.419 . S
C5057 H5061 0.930 . S
C5058 C5057 1.369 . S
C5058 C5067 1.429 . S
C5059 C5057 1.419 . S
C5059 C5060 1.363 . S
C5059 H5062 0.929 . S
C5060 C5059 1.363 . S
C5060 C5066 1.428 . S
H5061 C5057 0.930 . S
H5062 C5059 0.929 . S
S5063 N5064 1.613 . S
S5063 N5065 1.610 . S
N5064 S5063 1.613 . S
N5064 C5067 1.350 . S
N5065 S5063 1.610 . S
N5065 C5066 1.351 . S
C5066 C5060 1.428 . S
C5066 N5065 1.351 . S
C5066 C5067 1.434 . S
C5067 C5058 1.429 . S
C5067 N5064 1.350 . S
C5067 C5066 1.434 . S
C5068 C5069 1.369 . S
C5068 C5070 1.419 . S
C5068 H5072 0.930 . S
C5069 C5068 1.369 . S
C5069 C5078 1.429 . S
C5070 C5068 1.419 . S
C5070 C5071 1.363 . S
C5070 H5073 0.929 . S
C5071 C5070 1.363 . S
C5071 C5077 1.428 . S
H5072 C5068 0.930 . S
H5073 C5070 0.929 . S
S5074 N5075 1.613 . S
S5074 N5076 1.610 . S
N5075 S5074 1.613 . S
N5075 C5078 1.350 . S
N5076 S5074 1.610 . S
N5076 C5077 1.351 . S
C5077 C5071 1.428 . S
C5077 N5076 1.351 . S
C5077 C5078 1.434 . S
C5078 C5069 1.429 . S
C5078 N5075 1.350 . S
C5078 C5077 1.434 . S
C5079 C5080 1.369 . S
C5079 C5081 1.419 . S
C5079 H5083 0.930 . S
C5080 C5079 1.369 . S
C5080 C5089 1.429 . S
C5081 C5079 1.419 . S
C5081 C5082 1.363 . S
C5081 H5084 0.929 . S
C5082 C5081 1.363 . S
C5082 C5088 1.428 . S
H5083 C5079 0.930 . S
H5084 C5081 0.929 . S
S5085 N5086 1.613 . S
S5085 N5087 1.610 . S
N5086 S5085 1.613 . S
N5086 C5089 1.350 . S
N5087 S5085 1.610 . S
N5087 C5088 1.351 . S
C5088 C5082 1.428 . S
C5088 N5087 1.351 . S
C5088 C5089 1.434 . S
C5089 C5080 1.429 . S
C5089 N5086 1.350 . S
C5089 C5088 1.434 . S
C5090 C5091 1.369 . S
C5090 C5092 1.419 . S
C5090 H5094 0.930 . S
C5091 C5090 1.369 . S
C5091 C5100 1.429 . S
C5092 C5090 1.419 . S
C5092 C5093 1.363 . S
C5092 H5095 0.929 . S
C5093 C5092 1.363 . S
C5093 C5099 1.428 . S
H5094 C5090 0.930 . S
H5095 C5092 0.929 . S
S5096 N5097 1.613 . S
S5096 N5098 1.610 . S
N5097 S5096 1.613 . S
N5097 C5100 1.350 . S
N5098 S5096 1.610 . S
N5098 C5099 1.351 . S
C5099 C5093 1.428 . S
C5099 N5098 1.351 . S
C5099 C5100 1.434 . S
C5100 C5091 1.429 . S
C5100 N5097 1.350 . S
C5100 C5099 1.434 . S
C5101 C5102 1.369 . S
C5101 C5103 1.419 . S
C5101 H5105 0.930 . S
C5102 C5101 1.369 . S
C5102 C5111 1.429 . S
C5103 C5101 1.419 . S
C5103 C5104 1.363 . S
C5103 H5106 0.929 . S
C5104 C5103 1.363 . S
C5104 C5110 1.428 . S
H5105 C5101 0.930 . S
H5106 C5103 0.929 . S
S5107 N5108 1.613 . S
S5107 N5109 1.610 . S
N5108 S5107 1.613 . S
N5108 C5111 1.350 . S
N5109 S5107 1.610 . S
N5109 C5110 1.351 . S
C5110 C5104 1.428 . S
C5110 N5109 1.351 . S
C5110 C5111 1.434 . S
C5111 C5102 1.429 . S
C5111 N5108 1.350 . S
C5111 C5110 1.434 . S
C5112 C5113 1.369 . S
C5112 C5114 1.419 . S
C5112 H5116 0.930 . S
C5113 C5112 1.369 . S
C5113 C5122 1.429 . S
C5114 C5112 1.419 . S
C5114 C5115 1.363 . S
C5114 H5117 0.929 . S
C5115 C5114 1.363 . S
C5115 C5121 1.428 . S
H5116 C5112 0.930 . S
H5117 C5114 0.929 . S
S5118 N5119 1.613 . S
S5118 N5120 1.610 . S
N5119 S5118 1.613 . S
N5119 C5122 1.350 . S
N5120 S5118 1.610 . S
N5120 C5121 1.351 . S
C5121 C5115 1.428 . S
C5121 N5120 1.351 . S
C5121 C5122 1.434 . S
C5122 C5113 1.429 . S
C5122 N5119 1.350 . S
C5122 C5121 1.434 . S
C5123 C5124 1.369 . S
C5123 C5125 1.419 . S
C5123 H5127 0.930 . S
C5124 C5123 1.369 . S
C5124 C5133 1.429 . S
C5125 C5123 1.419 . S
C5125 C5126 1.363 . S
C5125 H5128 0.929 . S
C5126 C5125 1.363 . S
C5126 C5132 1.428 . S
H5127 C5123 0.930 . S
H5128 C5125 0.929 . S
S5129 N5130 1.613 . S
S5129 N5131 1.610 . S
N5130 S5129 1.613 . S
N5130 C5133 1.350 . S
N5131 S5129 1.610 . S
N5131 C5132 1.351 . S
C5132 C5126 1.428 . S
C5132 N5131 1.351 . S
C5132 C5133 1.434 . S
C5133 C5124 1.429 . S
C5133 N5130 1.350 . S
C5133 C5132 1.434 . S
C5134 C5135 1.369 . S
C5134 C5136 1.419 . S
C5134 H5138 0.930 . S
C5135 C5134 1.369 . S
C5135 C5144 1.429 . S
C5136 C5134 1.419 . S
C5136 C5137 1.363 . S
C5136 H5139 0.929 . S
C5137 C5136 1.363 . S
C5137 C5143 1.428 . S
H5138 C5134 0.930 . S
H5139 C5136 0.929 . S
S5140 N5141 1.613 . S
S5140 N5142 1.610 . S
N5141 S5140 1.613 . S
N5141 C5144 1.350 . S
N5142 S5140 1.610 . S
N5142 C5143 1.351 . S
C5143 C5137 1.428 . S
C5143 N5142 1.351 . S
C5143 C5144 1.434 . S
C5144 C5135 1.429 . S
C5144 N5141 1.350 . S
C5144 C5143 1.434 . S
C5145 C5146 1.369 . S
C5145 C5147 1.419 . S
C5145 H5149 0.930 . S
C5146 C5145 1.369 . S
C5146 C5155 1.429 . S
C5147 C5145 1.419 . S
C5147 C5148 1.363 . S
C5147 H5150 0.929 . S
C5148 C5147 1.363 . S
C5148 C5154 1.428 . S
H5149 C5145 0.930 . S
H5150 C5147 0.929 . S
S5151 N5152 1.613 . S
S5151 N5153 1.610 . S
N5152 S5151 1.613 . S
N5152 C5155 1.350 . S
N5153 S5151 1.610 . S
N5153 C5154 1.351 . S
C5154 C5148 1.428 . S
C5154 N5153 1.351 . S
C5154 C5155 1.434 . S
C5155 C5146 1.429 . S
C5155 N5152 1.350 . S
C5155 C5154 1.434 . S
C5156 C5157 1.369 . S
C5156 C5158 1.419 . S
C5156 H5160 0.930 . S
C5157 C5156 1.369 . S
C5157 C5166 1.429 . S
C5158 C5156 1.419 . S
C5158 C5159 1.363 . S
C5158 H5161 0.929 . S
C5159 C5158 1.363 . S
C5159 C5165 1.428 . S
H5160 C5156 0.930 . S
H5161 C5158 0.929 . S
S5162 N5163 1.613 . S
S5162 N5164 1.610 . S
N5163 S5162 1.613 . S
N5163 C5166 1.350 . S
N5164 S5162 1.610 . S
N5164 C5165 1.351 . S
C5165 C5159 1.428 . S
C5165 N5164 1.351 . S
C5165 C5166 1.434 . S
C5166 C5157 1.429 . S
C5166 N5163 1.350 . S
C5166 C5165 1.434 . S
C5167 C5168 1.369 . S
C5167 C5169 1.419 . S
C5167 H5171 0.930 . S
C5168 C5167 1.369 . S
C5168 C5177 1.429 . S
C5169 C5167 1.419 . S
C5169 C5170 1.363 . S
C5169 H5172 0.929 . S
C5170 C5169 1.363 . S
C5170 C5176 1.428 . S
H5171 C5167 0.930 . S
H5172 C5169 0.929 . S
S5173 N5174 1.613 . S
S5173 N5175 1.610 . S
N5174 S5173 1.613 . S
N5174 C5177 1.350 . S
N5175 S5173 1.610 . S
N5175 C5176 1.351 . S
C5176 C5170 1.428 . S
C5176 N5175 1.351 . S
C5176 C5177 1.434 . S
C5177 C5168 1.429 . S
C5177 N5174 1.350 . S
C5177 C5176 1.434 . S
C5178 C5179 1.369 . S
C5178 C5180 1.419 . S
C5178 H5182 0.930 . S
C5179 C5178 1.369 . S
C5179 C5188 1.429 . S
C5180 C5178 1.419 . S
C5180 C5181 1.363 . S
C5180 H5183 0.929 . S
C5181 C5180 1.363 . S
C5181 C5187 1.428 . S
H5182 C5178 0.930 . S
H5183 C5180 0.929 . S
S5184 N5185 1.613 . S
S5184 N5186 1.610 . S
N5185 S5184 1.613 . S
N5185 C5188 1.350 . S
N5186 S5184 1.610 . S
N5186 C5187 1.351 . S
C5187 C5181 1.428 . S
C5187 N5186 1.351 . S
C5187 C5188 1.434 . S
C5188 C5179 1.429 . S
C5188 N5185 1.350 . S
C5188 C5187 1.434 . S
C5189 C5190 1.369 . S
C5189 C5191 1.419 . S
C5189 H5193 0.930 . S
C5190 C5189 1.369 . S
C5190 C5199 1.429 . S
C5191 C5189 1.419 . S
C5191 C5192 1.363 . S
C5191 H5194 0.929 . S
C5192 C5191 1.363 . S
C5192 C5198 1.428 . S
H5193 C5189 0.930 . S
H5194 C5191 0.929 . S
S5195 N5196 1.613 . S
S5195 N5197 1.610 . S
N5196 S5195 1.613 . S
N5196 C5199 1.350 . S
N5197 S5195 1.610 . S
N5197 C5198 1.351 . S
C5198 C5192 1.428 . S
C5198 N5197 1.351 . S
C5198 C5199 1.434 . S
C5199 C5190 1.429 . S
C5199 N5196 1.350 . S
C5199 C5198 1.434 . S
C5200 C5201 1.369 . S
C5200 C5202 1.419 . S
C5200 H5204 0.930 . S
C5201 C5200 1.369 . S
C5201 C5210 1.429 . S
C5202 C5200 1.419 . S
C5202 C5203 1.363 . S
C5202 H5205 0.929 . S
C5203 C5202 1.363 . S
C5203 C5209 1.428 . S
H5204 C5200 0.930 . S
H5205 C5202 0.929 . S
S5206 N5207 1.613 . S
S5206 N5208 1.610 . S
N5207 S5206 1.613 . S
N5207 C5210 1.350 . S
N5208 S5206 1.610 . S
N5208 C5209 1.351 . S
C5209 C5203 1.428 . S
C5209 N5208 1.351 . S
C5209 C5210 1.434 . S
C5210 C5201 1.429 . S
C5210 N5207 1.350 . S
C5210 C5209 1.434 . S
C5211 C5212 1.369 . S
C5211 C5213 1.419 . S
C5211 H5215 0.930 . S
C5212 C5211 1.369 . S
C5212 C5221 1.429 . S
C5213 C5211 1.419 . S
C5213 C5214 1.363 . S
C5213 H5216 0.929 . S
C5214 C5213 1.363 . S
C5214 C5220 1.428 . S
H5215 C5211 0.930 . S
H5216 C5213 0.929 . S
S5217 N5218 1.613 . S
S5217 N5219 1.610 . S
N5218 S5217 1.613 . S
N5218 C5221 1.350 . S
N5219 S5217 1.610 . S
N5219 C5220 1.351 . S
C5220 C5214 1.428 . S
C5220 N5219 1.351 . S
C5220 C5221 1.434 . S
C5221 C5212 1.429 . S
C5221 N5218 1.350 . S
C5221 C5220 1.434 . S
C5222 C5223 1.369 . S
C5222 C5224 1.419 . S
C5222 H5226 0.930 . S
C5223 C5222 1.369 . S
C5223 C5232 1.429 . S
C5224 C5222 1.419 . S
C5224 C5225 1.363 . S
C5224 H5227 0.929 . S
C5225 C5224 1.363 . S
C5225 C5231 1.428 . S
H5226 C5222 0.930 . S
H5227 C5224 0.929 . S
S5228 N5229 1.613 . S
S5228 N5230 1.610 . S
N5229 S5228 1.613 . S
N5229 C5232 1.350 . S
N5230 S5228 1.610 . S
N5230 C5231 1.351 . S
C5231 C5225 1.428 . S
C5231 N5230 1.351 . S
C5231 C5232 1.434 . S
C5232 C5223 1.429 . S
C5232 N5229 1.350 . S
C5232 C5231 1.434 . S
C5233 C5234 1.369 . S
C5233 C5235 1.419 . S
C5233 H5237 0.930 . S
C5234 C5233 1.369 . S
C5234 C5243 1.429 . S
C5235 C5233 1.419 . S
C5235 C5236 1.363 . S
C5235 H5238 0.929 . S
C5236 C5235 1.363 . S
C5236 C5242 1.428 . S
H5237 C5233 0.930 . S
H5238 C5235 0.929 . S
S5239 N5240 1.613 . S
S5239 N5241 1.610 . S
N5240 S5239 1.613 . S
N5240 C5243 1.350 . S
N5241 S5239 1.610 . S
N5241 C5242 1.351 . S
C5242 C5236 1.428 . S
C5242 N5241 1.351 . S
C5242 C5243 1.434 . S
C5243 C5234 1.429 . S
C5243 N5240 1.350 . S
C5243 C5242 1.434 . S
C5244 C5245 1.369 . S
C5244 C5246 1.419 . S
C5244 H5248 0.930 . S
C5245 C5244 1.369 . S
C5245 C5254 1.429 . S
C5246 C5244 1.419 . S
C5246 C5247 1.363 . S
C5246 H5249 0.929 . S
C5247 C5246 1.363 . S
C5247 C5253 1.428 . S
H5248 C5244 0.930 . S
H5249 C5246 0.929 . S
S5250 N5251 1.613 . S
S5250 N5252 1.610 . S
N5251 S5250 1.613 . S
N5251 C5254 1.350 . S
N5252 S5250 1.610 . S
N5252 C5253 1.351 . S
C5253 C5247 1.428 . S
C5253 N5252 1.351 . S
C5253 C5254 1.434 . S
C5254 C5245 1.429 . S
C5254 N5251 1.350 . S
C5254 C5253 1.434 . S
C5255 C5256 1.369 . S
C5255 C5257 1.419 . S
C5255 H5259 0.930 . S
C5256 C5255 1.369 . S
C5256 C5265 1.429 . S
C5257 C5255 1.419 . S
C5257 C5258 1.363 . S
C5257 H5260 0.929 . S
C5258 C5257 1.363 . S
C5258 C5264 1.428 . S
H5259 C5255 0.930 . S
H5260 C5257 0.929 . S
S5261 N5262 1.613 . S
S5261 N5263 1.610 . S
N5262 S5261 1.613 . S
N5262 C5265 1.350 . S
N5263 S5261 1.610 . S
N5263 C5264 1.351 . S
C5264 C5258 1.428 . S
C5264 N5263 1.351 . S
C5264 C5265 1.434 . S
C5265 C5256 1.429 . S
C5265 N5262 1.350 . S
C5265 C5264 1.434 . S
C5266 C5267 1.369 . S
C5266 C5268 1.419 . S
C5266 H5270 0.930 . S
C5267 C5266 1.369 . S
C5267 C5276 1.429 . S
C5268 C5266 1.419 . S
C5268 C5269 1.363 . S
C5268 H5271 0.929 . S
C5269 C5268 1.363 . S
C5269 C5275 1.428 . S
H5270 C5266 0.930 . S
H5271 C5268 0.929 . S
S5272 N5273 1.613 . S
S5272 N5274 1.610 . S
N5273 S5272 1.613 . S
N5273 C5276 1.350 . S
N5274 S5272 1.610 . S
N5274 C5275 1.351 . S
C5275 C5269 1.428 . S
C5275 N5274 1.351 . S
C5275 C5276 1.434 . S
C5276 C5267 1.429 . S
C5276 N5273 1.350 . S
C5276 C5275 1.434 . S
C5277 C5278 1.369 . S
C5277 C5279 1.419 . S
C5277 H5281 0.930 . S
C5278 C5277 1.369 . S
C5278 C5287 1.429 . S
C5279 C5277 1.419 . S
C5279 C5280 1.363 . S
C5279 H5282 0.929 . S
C5280 C5279 1.363 . S
C5280 C5286 1.428 . S
H5281 C5277 0.930 . S
H5282 C5279 0.929 . S
S5283 N5284 1.613 . S
S5283 N5285 1.610 . S
N5284 S5283 1.613 . S
N5284 C5287 1.350 . S
N5285 S5283 1.610 . S
N5285 C5286 1.351 . S
C5286 C5280 1.428 . S
C5286 N5285 1.351 . S
C5286 C5287 1.434 . S
C5287 C5278 1.429 . S
C5287 N5284 1.350 . S
C5287 C5286 1.434 . S
C5288 C5289 1.369 . S
C5288 C5290 1.419 . S
C5288 H5292 0.930 . S
C5289 C5288 1.369 . S
C5289 C5298 1.429 . S
C5290 C5288 1.419 . S
C5290 C5291 1.363 . S
C5290 H5293 0.929 . S
C5291 C5290 1.363 . S
C5291 C5297 1.428 . S
H5292 C5288 0.930 . S
H5293 C5290 0.929 . S
S5294 N5295 1.613 . S
S5294 N5296 1.610 . S
N5295 S5294 1.613 . S
N5295 C5298 1.350 . S
N5296 S5294 1.610 . S
N5296 C5297 1.351 . S
C5297 C5291 1.428 . S
C5297 N5296 1.351 . S
C5297 C5298 1.434 . S
C5298 C5289 1.429 . S
C5298 N5295 1.350 . S
C5298 C5297 1.434 . S
C5299 C5300 1.369 . S
C5299 C5301 1.419 . S
C5299 H5303 0.930 . S
C5300 C5299 1.369 . S
C5300 C5309 1.429 . S
C5301 C5299 1.419 . S
C5301 C5302 1.363 . S
C5301 H5304 0.929 . S
C5302 C5301 1.363 . S
C5302 C5308 1.428 . S
H5303 C5299 0.930 . S
H5304 C5301 0.929 . S
S5305 N5306 1.613 . S
S5305 N5307 1.610 . S
N5306 S5305 1.613 . S
N5306 C5309 1.350 . S
N5307 S5305 1.610 . S
N5307 C5308 1.351 . S
C5308 C5302 1.428 . S
C5308 N5307 1.351 . S
C5308 C5309 1.434 . S
C5309 C5300 1.429 . S
C5309 N5306 1.350 . S
C5309 C5308 1.434 . S
C5310 C5311 1.369 . S
C5310 C5312 1.419 . S
C5310 H5314 0.930 . S
C5311 C5310 1.369 . S
C5311 C5320 1.429 . S
C5312 C5310 1.419 . S
C5312 C5313 1.363 . S
C5312 H5315 0.929 . S
C5313 C5312 1.363 . S
C5313 C5319 1.428 . S
H5314 C5310 0.930 . S
H5315 C5312 0.929 . S
S5316 N5317 1.613 . S
S5316 N5318 1.610 . S
N5317 S5316 1.613 . S
N5317 C5320 1.350 . S
N5318 S5316 1.610 . S
N5318 C5319 1.351 . S
C5319 C5313 1.428 . S
C5319 N5318 1.351 . S
C5319 C5320 1.434 . S
C5320 C5311 1.429 . S
C5320 N5317 1.350 . S
C5320 C5319 1.434 . S
C5321 C5322 1.369 . S
C5321 C5323 1.419 . S
C5321 H5325 0.930 . S
C5322 C5321 1.369 . S
C5322 C5331 1.429 . S
C5323 C5321 1.419 . S
C5323 C5324 1.363 . S
C5323 H5326 0.929 . S
C5324 C5323 1.363 . S
C5324 C5330 1.428 . S
H5325 C5321 0.930 . S
H5326 C5323 0.929 . S
S5327 N5328 1.613 . S
S5327 N5329 1.610 . S
N5328 S5327 1.613 . S
N5328 C5331 1.350 . S
N5329 S5327 1.610 . S
N5329 C5330 1.351 . S
C5330 C5324 1.428 . S
C5330 N5329 1.351 . S
C5330 C5331 1.434 . S
C5331 C5322 1.429 . S
C5331 N5328 1.350 . S
C5331 C5330 1.434 . S
C5332 C5333 1.369 . S
C5332 C5334 1.419 . S
C5332 H5336 0.930 . S
C5333 C5332 1.369 . S
C5333 C5342 1.429 . S
C5334 C5332 1.419 . S
C5334 C5335 1.363 . S
C5334 H5337 0.929 . S
C5335 C5334 1.363 . S
C5335 C5341 1.428 . S
H5336 C5332 0.930 . S
H5337 C5334 0.929 . S
S5338 N5339 1.613 . S
S5338 N5340 1.610 . S
N5339 S5338 1.613 . S
N5339 C5342 1.350 . S
N5340 S5338 1.610 . S
N5340 C5341 1.351 . S
C5341 C5335 1.428 . S
C5341 N5340 1.351 . S
C5341 C5342 1.434 . S
C5342 C5333 1.429 . S
C5342 N5339 1.350 . S
C5342 C5341 1.434 . S
C5343 C5344 1.369 . S
C5343 C5345 1.419 . S
C5343 H5347 0.930 . S
C5344 C5343 1.369 . S
C5344 C5353 1.429 . S
C5345 C5343 1.419 . S
C5345 C5346 1.363 . S
C5345 H5348 0.929 . S
C5346 C5345 1.363 . S
C5346 C5352 1.428 . S
H5347 C5343 0.930 . S
H5348 C5345 0.929 . S
S5349 N5350 1.613 . S
S5349 N5351 1.610 . S
N5350 S5349 1.613 . S
N5350 C5353 1.350 . S
N5351 S5349 1.610 . S
N5351 C5352 1.351 . S
C5352 C5346 1.428 . S
C5352 N5351 1.351 . S
C5352 C5353 1.434 . S
C5353 C5344 1.429 . S
C5353 N5350 1.350 . S
C5353 C5352 1.434 . S
C5354 C5355 1.369 . S
C5354 C5356 1.419 . S
C5354 H5358 0.930 . S
C5355 C5354 1.369 . S
C5355 C5364 1.429 . S
C5356 C5354 1.419 . S
C5356 C5357 1.363 . S
C5356 H5359 0.929 . S
C5357 C5356 1.363 . S
C5357 C5363 1.428 . S
H5358 C5354 0.930 . S
H5359 C5356 0.929 . S
S5360 N5361 1.613 . S
S5360 N5362 1.610 . S
N5361 S5360 1.613 . S
N5361 C5364 1.350 . S
N5362 S5360 1.610 . S
N5362 C5363 1.351 . S
C5363 C5357 1.428 . S
C5363 N5362 1.351 . S
C5363 C5364 1.434 . S
C5364 C5355 1.429 . S
C5364 N5361 1.350 . S
C5364 C5363 1.434 . S
C5365 C5366 1.369 . S
C5365 C5367 1.419 . S
C5365 H5369 0.930 . S
C5366 C5365 1.369 . S
C5366 C5375 1.429 . S
C5367 C5365 1.419 . S
C5367 C5368 1.363 . S
C5367 H5370 0.929 . S
C5368 C5367 1.363 . S
C5368 C5374 1.428 . S
H5369 C5365 0.930 . S
H5370 C5367 0.929 . S
S5371 N5372 1.613 . S
S5371 N5373 1.610 . S
N5372 S5371 1.613 . S
N5372 C5375 1.350 . S
N5373 S5371 1.610 . S
N5373 C5374 1.351 . S
C5374 C5368 1.428 . S
C5374 N5373 1.351 . S
C5374 C5375 1.434 . S
C5375 C5366 1.429 . S
C5375 N5372 1.350 . S
C5375 C5374 1.434 . S
C3793 C1781 1.719 . S
C3795 C1921 1.742 . S
C3804 C981 1.721 . S
C3806 C1960 1.743 . S
C3817 C1999 1.733 . S
C3815 C1861 1.778 . S
C3826 C1061 1.805 . S
C3828 C2038 1.754 . S
C3837 C1901 1.720 . S
C3839 C2077 1.750 . S
C3848 C941 1.710 . S
C3850 C2116 1.736 . S
C3859 C1821 1.797 . S
C3861 C2155 1.749 . S
C3870 C1021 1.787 . S
C3872 C2194 1.737 . S
C3881 C661 1.701 . S
C3883 C2233 1.727 . S
C3892 C1621 1.787 . S
C3894 C2272 1.741 . S
C3903 C741 1.701 . S
C3905 C2311 1.730 . S
C3914 C1581 1.702 . S
C3916 C2350 1.718 . S
C3925 C901 1.779 . S
C3927 C2389 1.735 . S
C3938 C2428 1.728 . S
C3936 C1661 1.778 . S
C3949 C2467 1.744 . S
C3947 C821 1.730 . S
C3958 C1141 1.775 . S
C3960 C2506 1.734 . S
C3971 C2545 1.723 . S
C3969 C781 1.775 . S
C3982 C2584 1.753 . S
C3980 C1701 1.725 . S
C3991 C861 1.779 . S
C3993 C2623 1.738 . S
C4002 C1181 1.700 . S
C4004 C2662 1.726 . S
C4015 C2701 1.732 . S
C4013 C1101 1.707 . S
C4024 C1421 1.693 . S
C4026 C2740 1.714 . S
C4037 C2779 1.724 . S
C4035 C381 1.767 . S
C4048 C2818 1.718 . S
C4046 C1501 1.765 . S
C4059 C2857 1.757 . S
C4057 C461 1.722 . S
C4070 C2896 1.749 . S
C4068 C1541 1.724 . S
C4079 C341 1.704 . S
C4081 C2935 1.715 . S
C4092 C2974 1.730 . S
C4090 C1461 1.773 . S
C4101 C421 1.760 . S
C4103 C3013 1.717 . S
C4114 C3052 1.733 . S
C4112 C61 1.694 . S
C4125 C3091 1.781 . S
C4123 C1261 1.740 . S
C4134 C141 1.713 . S
C4136 C3130 1.732 . S
C4147 C3169 1.735 . S
C4145 C1221 1.791 . S
C4158 C3208 1.728 . S
C4156 C301 1.767 . S
C4167 C1301 1.802 . S
C4169 C3247 1.740 . S
C4180 C3286 1.742 . S
C4178 C221 1.719 . S
C4191 C3325 1.743 . S
C4189 C541 1.791 . S
C4200 C181 1.790 . S
C4202 C3364 1.733 . S
C4213 C3403 1.733 . S
C4211 C1341 1.717 . S
C4222 C261 1.800 . S
C4224 C3442 1.759 . S
C4235 C3481 1.735 . S
C4233 C581 1.714 . S
C4244 C501 1.690 . S
C4246 C3520 1.729 . S
C4255 C701 1.787 . S
C4257 C3559 1.741 . S
C4268 C3598 1.720 . S
C4266 C621 1.701 . S
C4277 C1741 1.780 . S
C4279 C3637 1.726 . S
C4288 C101 1.732 . S
C4290 C3676 1.772 . S
C4301 C3715 1.743 . S
C4299 C21 1.802 . S
C4312 C3754 1.733 . S
C4310 C1381 1.777 . S
C4321 C1335 2.228 . S
C4323 C1936 2.232 . S
C4332 C535 1.650 . S
C4334 C1975 1.635 . S
C4343 C1362 2.409 . S
C4345 C2019 2.298 . S
C4356 C2058 1.621 . S
C4354 C1295 1.652 . S
C4365 C575 2.252 . S
C4367 C2097 2.266 . S
C4376 C1215 1.633 . S
C4378 C2136 1.607 . S
C4389 C2170 2.303 . S
C4387 C495 2.312 . S
C4398 C1242 1.631 . S
C4400 C2209 1.646 . S
C4409 C1255 2.285 . S
C4411 C2248 2.288 . S
C4422 C2287 1.615 . S
C4420 C562 1.592 . S
C4431 C1202 2.355 . S
C4433 C2331 2.253 . S
C4444 C2370 1.618 . S
C4442 C482 1.596 . S
C4453 C522 2.427 . S
C4455 C2404 2.305 . S
C4464 C1375 1.655 . S
C4466 C2448 1.625 . S
C4477 C2487 2.258 . S
C4475 C1282 2.359 . S
C4488 C2521 1.605 . S
C4486 C1322 1.589 . S
C4497 C455 2.240 . S
C4499 C2365 2.236 . S
C4508 C1415 2.245 . S
C4510 C2560 2.232 . S
C4519 C1455 1.639 . S
C4521 C2599 1.610 . S
C4532 C2643 2.228 . S
C4530 C1482 2.332 . S
C4543 C2409 1.627 . S
C4541 C442 1.624 . S
C4552 C362 2.345 . S
C4554 C2292 2.241 . S
C4563 C1495 1.629 . S
C4565 C2677 1.600 . S
C4576 C2721 1.588 . S
C4574 C1402 1.587 . S
C4587 C2755 1.632 . S
C4585 C1695 1.648 . S
C4596 C1135 2.284 . S
C4598 C2794 2.246 . S
C4609 C2838 1.617 . S
C4607 C1722 1.650 . S
C4620 C2872 2.218 . S
C4618 C1655 2.248 . S
C4629 C1175 1.649 . S
C4631 C2916 1.640 . S
C4640 C1562 2.174 . S
C4642 C2955 2.192 . S
C4651 C1095 1.640 . S
C4653 C2994 1.628 . S
C4664 C3028 2.218 . S
C4662 C1615 2.248 . S
C4675 C3072 1.627 . S
C4673 C1602 1.655 . S
C4684 C1162 2.226 . S
C4686 C3106 2.275 . S
C4697 C3145 1.609 . S
C4695 C1575 1.632 . S
C4706 C1082 2.207 . S
C4708 C3189 2.235 . S
C4719 C3228 1.608 . S
C4717 C1122 1.638 . S
C4728 C1735 2.290 . S
C4730 C3267 2.255 . S
C4741 C3301 1.617 . S
C4739 C1642 1.659 . S
C4750 C1682 2.183 . S
C4752 C3340 2.224 . S
C4761 C1042 1.676 . S
C4763 C3184 1.644 . S
C4772 C1775 1.650 . S
C4774 C3379 1.634 . S
C4783 C1815 2.314 . S
C4785 C3423 2.263 . S
C4796 C3462 1.625 . S
C4794 C1842 1.650 . S
C4805 C1055 2.282 . S
C4807 C3223 2.255 . S
C4816 C975 1.651 . S
C4818 C3111 1.643 . S
C4829 C3501 2.260 . S
C4827 C1855 2.312 . S
C4838 C1762 2.218 . S
C4840 C3535 2.256 . S
C4851 C2131 2.234 . S
C4849 C215 2.245 . S
C4862 C2175 1.648 . S
C4860 C255 1.675 . S
C4873 C2214 2.293 . S
C4871 C282 2.397 . S
C4884 C2092 1.602 . S
C4882 C175 1.624 . S
C4895 C2053 2.288 . S
C4893 C135 2.287 . S
C4904 C15 1.633 . S
C4906 C1941 1.608 . S
C4915 C55 2.275 . S
C4917 C1980 2.281 . S
C4926 C82 1.623 . S
C4928 C2014 1.643 . S
C4937 C95 2.259 . S
C4939 C2716 2.264 . S
C4948 C122 1.608 . S
C4950 C3574 1.623 . S
C4959 C2 2.382 . S
C4961 C2682 2.275 . S
C4970 C42 1.589 . S
C4972 C3618 1.600 . S
C4981 C242 2.428 . S
C4983 C3652 2.311 . S
C4994 C2565 1.617 . S
C4992 C295 1.644 . S
C5003 C162 2.353 . S
C5005 C2604 2.259 . S
C5014 C202 1.601 . S
C5016 C2638 1.618 . S
C5027 C3613 2.234 . S
C5025 C1535 2.233 . S
C5036 C335 2.246 . S
C5038 C2443 2.246 . S
C5047 C375 1.636 . S
C5049 C2482 1.606 . S
C5058 C402 2.322 . S
C5060 C2526 2.220 . S
C5071 C3657 1.628 . S
C5069 C1522 1.620 . S
C5082 C3579 2.248 . S
C5080 C1442 2.345 . S
C5093 C2326 1.585 . S
C5091 C415 1.614 . S
C5102 C322 1.602 . S
C5104 C2253 1.607 . S
C5113 C815 1.641 . S
C5115 C2950 1.626 . S
C5124 C855 2.268 . S
C5126 C2989 2.241 . S
C5135 C882 1.652 . S
C5137 C3033 1.625 . S
C5146 C775 2.264 . S
C5148 C2911 2.224 . S
C5159 C2877 1.644 . S
C5157 C735 1.652 . S
C5170 C2760 2.198 . S
C5168 C602 2.167 . S
C5181 C2799 1.629 . S
C5179 C655 1.639 . S
C5190 C695 2.241 . S
C5192 C2833 2.219 . S
C5203 C3540 1.627 . S
C5201 C682 1.656 . S
C5212 C722 2.220 . S
C5214 C3691 2.270 . S
C5223 C615 1.631 . S
C5225 C3496 1.603 . S
C5236 C3735 2.247 . S
C5234 C642 2.203 . S
C5245 C842 1.646 . S
C5247 C3774 1.615 . S
C5258 C3384 2.256 . S
C5256 C895 2.292 . S
C5267 C762 1.652 . S
C5269 C3418 1.610 . S
C5278 C802 2.184 . S
C5280 C3457 2.225 . S
C5289 C1895 1.644 . S
C5291 C3730 1.630 . S
C5302 C3262 1.641 . S
C5300 C935 1.652 . S
C5311 C962 2.210 . S
C5313 C3306 2.247 . S
C5322 C1002 1.647 . S
C5324 C3345 1.621 . S
C5333 C1882 2.192 . S
C5335 C3769 2.230 . S
C5344 C1802 1.684 . S
C5346 C3696 1.651 . S
C5357 C3150 2.254 . S
C5355 C1015 2.302 . S
C5368 C3067 2.263 . S
C5366 C922 2.225 . S
