# Generated by pormake.
# Topology anh, (6,3)-cn, num edge types: 1
# Building blocks:
#     Node 0, Type 0, BuildingBlock: NUHQIS_clean_sbu_0, # of connection points: 6
#     Node 1, Type 0, BuildingBlock: NUHQIS_clean_sbu_0, # of connection points: 6
#     Node 2, Type 0, BuildingBlock: NUHQIS_clean_sbu_0, # of connection points: 6
#     Node 3, Type 1, BuildingBlock: ESEHIV_clean_linker_0, # of connection points: 3
#     Node 4, Type 1, BuildingBlock: ESEHIV_clean_linker_0, # of connection points: 3
#     Node 5, Type 1, BuildingBlock: ESEHIV_clean_linker_0, # of connection points: 3
#     Node 6, Type 1, BuildingBlock: ESEHIV_clean_linker_0, # of connection points: 3
#     Node 7, Type 1, BuildingBlock: ESEHIV_clean_linker_0, # of connection points: 3
#     Node 8, Type 1, BuildingBlock: ESEHIV_clean_linker_0, # of connection points: 3
#     Edge 9, Type (0, 1), BuildingBlock: ZUJKAS_clean_linker_0, # of connection points: 2
#     Edge 10, Type (0, 1), BuildingBlock: ZUJKAS_clean_linker_0, # of connection points: 2
#     Edge 11, Type (0, 1), BuildingBlock: ZUJKAS_clean_linker_0, # of connection points: 2
#     Edge 12, Type (0, 1), BuildingBlock: ZUJKAS_clean_linker_0, # of connection points: 2
#     Edge 13, Type (0, 1), BuildingBlock: ZUJKAS_clean_linker_0, # of connection points: 2
#     Edge 14, Type (0, 1), BuildingBlock: ZUJKAS_clean_linker_0, # of connection points: 2
#     Edge 15, Type (0, 1), BuildingBlock: ZUJKAS_clean_linker_0, # of connection points: 2
#     Edge 16, Type (0, 1), BuildingBlock: ZUJKAS_clean_linker_0, # of connection points: 2
#     Edge 17, Type (0, 1), BuildingBlock: ZUJKAS_clean_linker_0, # of connection points: 2
#     Edge 18, Type (0, 1), BuildingBlock: ZUJKAS_clean_linker_0, # of connection points: 2
#     Edge 19, Type (0, 1), BuildingBlock: ZUJKAS_clean_linker_0, # of connection points: 2
#     Edge 20, Type (0, 1), BuildingBlock: ZUJKAS_clean_linker_0, # of connection points: 2
#     Edge 21, Type (0, 1), BuildingBlock: ZUJKAS_clean_linker_0, # of connection points: 2
#     Edge 22, Type (0, 1), BuildingBlock: ZUJKAS_clean_linker_0, # of connection points: 2
#     Edge 23, Type (0, 1), BuildingBlock: ZUJKAS_clean_linker_0, # of connection points: 2
#     Edge 24, Type (0, 1), BuildingBlock: ZUJKAS_clean_linker_0, # of connection points: 2
#     Edge 25, Type (0, 1), BuildingBlock: ZUJKAS_clean_linker_0, # of connection points: 2
#     Edge 26, Type (0, 1), BuildingBlock: ZUJKAS_clean_linker_0, # of connection points: 2
# Relax obj value: 0.236
# Max RMSD: 0.188
# Mean RMSD: 0.154
data_MOF--net-anh--node1-NUHQIS_clean_sbu_0--node2-ESEHIV_clean_linker_0--edge1-ZUJKAS_clean_linker_0
_symmetry_space_group_name_H-M    P1
_symmetry_Int_Tables_number       1
_symmetry_cell_setting            triclinic
loop_
_symmetry_equiv_pos_as_xyz
'x, y, z'
_cell_length_a     37.426017
_cell_length_b     37.529328
_cell_length_c     67.102308
_cell_angle_alpha  90.170243
_cell_angle_beta   92.871719
_cell_angle_gamma 120.43735
loop_
_atom_site_label
_atom_site_type_symbol
_atom_site_fract_x
_atom_site_fract_y
_atom_site_fract_z
_atom_type_partial_charge
Tb0 Tb 0.16157 0.61494 0.17569 0.0
Eu1 Eu 0.115 0.6659 0.16553 0.0
C2 C 0.12815 0.64529 0.20942 0.0
C3 C 1.06173 0.56509 0.17301 0.0
C4 C 0.23612 0.57555 0.18159 0.0
C5 C 0.28538 0.55441 0.19196 0.0
C6 C 0.25453 0.56304 0.19651 0.0
C7 C 0.25062 0.58188 0.1623 0.0
C8 C 0.28132 0.57301 0.15769 0.0
C9 C 0.29803 0.55787 0.17234 0.0
C10 C 0.19903 0.57721 0.18594 0.0
O11 O 0.16931 0.62344 0.14347 0.0
O12 O 0.12646 0.6492 0.13521 0.0
O13 O 0.18297 0.71591 0.16344 0.0
O14 O 0.21169 0.68129 0.17934 0.0
C15 C 0.15038 0.63489 0.13007 0.0
O16 O 1.06975 0.67413 0.14745 0.0
O17 O 0.09976 0.71273 0.17399 0.0
O18 O 0.13445 0.67582 0.1981 0.0
O19 O 0.12889 0.61343 0.202 0.0
O20 O 0.09626 0.56425 0.1711 0.0
O21 O 1.06284 0.60085 0.17337 0.0
C22 C 0.21543 0.71592 0.17218 0.0
O23 O 0.20467 0.61029 0.1953 0.0
O24 O 0.1702 0.5647 0.17154 0.0
C25 C 1.02694 0.68172 0.16905 0.0
C26 C 0.94558 0.62792 0.18051 0.0
C27 C 0.9525 0.64607 0.16167 0.0
C28 C 0.9928 0.67279 0.15604 0.0
C29 C 1.02005 0.66632 0.18845 0.0
C30 C 0.97975 0.6399 0.19415 0.0
C31 C 1.06811 0.69817 0.16099 0.0
H32 H 0.29824 0.54357 0.20364 0.0
H33 H 0.24378 0.55823 0.21151 0.0
H34 H 0.23683 0.59169 0.15058 0.0
H35 H 0.29014 0.57573 0.1424 0.0
H36 H 0.92708 0.63726 0.15063 0.0
H37 H 0.99737 0.68378 0.14093 0.0
H38 H 1.0458 0.67229 0.19879 0.0
H39 H 0.97556 0.62715 0.20888 0.0
Tb40 Tb 0.68141 0.11272 0.50926 0.0
Eu41 Eu 0.58359 0.0646 0.49796 0.0
C42 C 0.6182 0.07353 0.54272 0.0
C43 C 0.63323 1.0132 0.50624 0.0
C44 C 0.78247 0.20301 0.51392 0.0
C45 C 0.80733 0.2727 0.52699 0.0
C46 C 0.79678 0.23176 0.53007 0.0
C47 C 0.78309 0.21695 0.49445 0.0
C48 C 0.79376 0.25777 0.49138 0.0
C49 C 0.80412 0.28557 0.50767 0.0
C50 C 0.75773 0.15844 0.51773 0.0
O51 O 0.67625 0.12571 0.47748 0.0
O52 O 0.61134 0.07199 0.46851 0.0
O53 O 0.60422 0.13339 0.49445 0.0
O54 O 0.66334 0.15994 0.5147 0.0
C55 C 0.64728 0.10231 0.46365 0.0
O56 O 0.52757 1.01255 0.4837 0.0
O57 O 0.52391 0.06114 0.49923 0.0
O58 O 0.59085 0.07612 0.53093 0.0
O59 O 0.65289 0.07907 0.53595 0.0
O60 O 0.66846 1.04853 0.50428 0.0
O61 O 0.59781 1.01318 0.50671 0.0
C62 C 0.63438 0.16483 0.50518 0.0
O63 O 0.72954 0.1492 0.53057 0.0
O64 O 0.74284 0.13321 0.5021 0.0
C65 C 0.46498 0.99338 0.49939 0.0
C66 C 0.38637 0.93531 0.51248 0.0
C67 C 0.40575 0.92343 0.49866 0.0
C68 C 0.44456 0.95222 0.49213 0.0
C69 C 0.44658 1.00478 0.51398 0.0
C70 C 0.40765 0.97598 0.52047 0.0
C71 C 0.50323 1.02471 0.49039 0.0
H72 H 0.81596 0.29368 0.53979 0.0
H73 H 0.79652 0.22178 0.54523 0.0
H74 H 0.77209 0.19569 0.48164 0.0
H75 H 0.79073 0.26655 0.4763 0.0
H76 H 0.38986 0.89252 0.49195 0.0
H77 H 0.45778 0.9426 0.48076 0.0
H78 H 0.46147 1.03629 0.51988 0.0
H79 H 0.39351 0.98591 0.5312 0.0
Tb80 Tb 0.67497 0.63268 0.83957 0.0
Eu81 Eu 0.62556 0.53604 0.82861 0.0
C82 C 0.65229 0.56673 0.87276 0.0
C83 C 0.72875 0.58739 0.83712 0.0
C84 C 0.6779 0.72501 0.8548 0.0
C85 C 0.64628 0.76495 0.84415 0.0
C86 C 0.67974 0.7582 0.84443 0.0
C87 C 0.64432 0.70182 0.86681 0.0
C88 C 0.61102 0.70877 0.86664 0.0
C89 C 0.61059 0.73864 0.85428 0.0
C90 C 0.70323 0.70756 0.84856 0.0
O91 O 0.68454 0.62659 0.80781 0.0
O92 O 0.6226 0.56821 0.80116 0.0
O93 O 0.57601 0.54888 0.84026 0.0
O94 O 0.60947 0.61792 0.83482 0.0
C95 C 0.65512 0.60069 0.79482 0.0
O96 O 0.61463 0.48446 0.80896 0.0
O97 O 0.57444 0.47428 0.83326 0.0
O98 O 0.65207 0.54144 0.85938 0.0
O99 O 0.65155 0.60002 0.86736 0.0
O100 O 0.727 0.6203 0.8429 0.0
O101 O 0.69476 0.55381 0.82956 0.0
C102 C 0.57519 0.58358 0.83898 0.0
O103 O 0.70651 0.68212 0.86068 0.0
O104 O 0.69424 0.69277 0.83025 0.0
C105 C 0.58431 0.41909 0.82399 0.0
C106 C 0.57428 0.34102 0.83179 0.0
C107 C 0.57821 0.35506 0.81217 0.0
C108 C 0.58303 0.39368 0.80832 0.0
C109 C 0.58229 0.40599 0.84374 0.0
C110 C 0.57709 0.36711 0.84759 0.0
C111 C 0.58435 0.45732 0.8192 0.0
H112 H 0.64694 0.78867 0.83475 0.0
H113 H 0.70509 0.77624 0.83496 0.0
H114 H 0.64175 0.67566 0.8748 0.0
H115 H 0.5839 0.68798 0.87454 0.0
H116 H 0.57553 0.33537 0.79966 0.0
H117 H 0.58433 0.40312 0.793 0.0
H118 H 0.58348 0.42517 0.85614 0.0
H119 H 0.5744 0.3571 0.86284 0.0
H120 H 0.59609 0.08212 0.24631 0.0
H121 H 0.70925 0.19952 0.24639 0.0
H122 H 0.64182 0.14063 0.1905 0.0
C123 C 0.61894 0.10779 0.23816 0.0
C124 C 0.61383 0.10645 0.21714 0.0
C125 C 0.65281 0.14105 0.2489 0.0
C126 C 0.68315 0.17378 0.23822 0.0
C127 C 0.68028 0.17466 0.2172 0.0
C128 C 0.64467 0.14086 0.20664 0.0
H129 H 0.65302 0.65968 0.5735 0.0
H130 H 0.64843 0.54341 0.57721 0.0
H131 H 0.63618 0.58864 0.51951 0.0
C132 C 0.64953 0.63221 0.56618 0.0
C133 C 0.64419 0.62858 0.54523 0.0
C134 C 0.65065 0.60165 0.57785 0.0
C135 C 0.64719 0.56657 0.56812 0.0
C136 C 0.64178 0.56029 0.5471 0.0
C137 C 0.64049 0.59222 0.53561 0.0
H138 H 0.1074 0.60178 0.91124 0.0
H139 H 0.22006 0.59747 0.91324 0.0
H140 H 0.15746 0.59168 0.8563 0.0
C141 C 0.1313 0.60019 0.90348 0.0
C142 C 0.12767 0.59711 0.88246 0.0
C143 C 0.16418 0.60038 0.91476 0.0
C144 C 0.19443 0.59677 0.90462 0.0
C145 C 0.19325 0.59369 0.88356 0.0
C146 C 0.15926 0.59392 0.87244 0.0
H147 H 0.90911 0.61221 0.39321 0.0
H148 H 1.03119 0.71535 0.40864 0.0
H149 H 0.9423 0.66322 0.45331 0.0
C150 C 0.9311 0.63566 0.40393 0.0
C151 C 0.92006 0.63522 0.42374 0.0
C152 C 0.97137 0.66421 0.39833 0.0
C153 C 0.99995 0.69354 0.41266 0.0
C154 C 0.98974 0.69303 0.43252 0.0
C155 C 0.94957 0.66444 0.4378 0.0
H156 H 0.46931 0.98778 0.73886 0.0
H157 H 0.42573 0.85895 0.72793 0.0
H158 H 0.40947 0.90151 0.78467 0.0
C159 C 0.45328 0.9562 0.7438 0.0
C160 C 0.43871 0.94807 0.76304 0.0
C161 C 0.44896 0.92434 0.73112 0.0
C162 C 0.42809 0.88344 0.73752 0.0
C163 C 0.41336 0.87469 0.75688 0.0
C164 C 0.41824 0.90726 0.76935 0.0
H165 H 0.5141 0.39606 0.06113 0.0
H166 H 0.61826 0.37895 0.0719 0.0
H167 H 0.54749 0.37804 0.12072 0.0
C168 C 0.53269 0.38851 0.07122 0.0
C169 C 0.52551 0.38503 0.09162 0.0
C170 C 0.56663 0.38729 0.06413 0.0
C171 C 0.59169 0.37928 0.0774 0.0
C172 C 0.585 0.37564 0.09794 0.0
C173 C 0.55119 0.37767 0.10482 0.0
H174 H 0.36128 0.59118 0.14679 0.0
H175 H 0.39911 0.55908 0.13428 0.0
H176 H 0.33359 0.45604 0.17239 0.0
H177 H 0.29508 0.48728 0.18469 0.0
H178 H 0.42348 0.48914 0.17074 0.0
H179 H 0.33726 0.45284 0.09656 0.0
H180 H 0.36125 0.50573 0.10542 0.0
H181 H 0.3195 0.46583 0.11846 0.0
C182 C 0.35507 0.56179 0.15257 0.0
C183 C 0.32504 0.54168 0.16664 0.0
C184 C 0.37671 0.54358 0.14544 0.0
C185 C 0.36858 0.50504 0.15227 0.0
C186 C 0.34014 0.48581 0.16697 0.0
H187 H 0.46988 0.34799 0.12059 0.0
H188 H 0.42862 0.37372 0.13592 0.0
C189 C 0.31841 0.50389 0.17406 0.0
C190 C 0.38828 0.4838 0.1434 0.0
H191 H 0.3923 0.43905 0.09994 0.0
C192 C 0.41662 0.47794 0.1553 0.0
C193 C 0.37879 0.46907 0.12332 0.0
C194 C 0.34729 0.47329 0.11018 0.0
C195 C 0.43704 0.45891 0.14738 0.0
C196 C 0.42799 0.44471 0.12718 0.0
C197 C 0.39898 0.44989 0.11543 0.0
C198 C 0.45055 0.42727 0.11749 0.0
C199 C 0.46916 0.45554 0.16042 0.0
C200 C 0.47523 0.44812 0.10169 0.0
C201 C 0.49836 0.43343 0.09288 0.0
C202 C 0.49708 0.39738 0.09963 0.0
C203 C 0.47146 0.37587 0.11515 0.0
C204 C 0.44815 0.39062 0.12396 0.0
H205 H 0.47855 0.47554 0.17417 0.0
H206 H 0.45612 0.42306 0.16497 0.0
H207 H 0.49727 0.46418 0.15216 0.0
H208 H 0.47751 0.4765 0.09652 0.0
H209 H 0.51852 0.45129 0.08128 0.0
H210 H 0.84148 0.33901 0.47783 0.0
H211 H 0.83619 0.39949 0.46947 0.0
H212 H 0.76861 0.38475 0.52194 0.0
H213 H 0.77207 0.32284 0.53002 0.0
H214 H 0.74794 0.39372 0.46637 0.0
H215 H 0.87079 0.51218 0.51926 0.0
H216 H 0.8751 0.46855 0.51136 0.0
H217 H 0.83434 0.46072 0.52694 0.0
C218 C 0.82549 0.34858 0.48762 0.0
C219 C 0.80692 0.32594 0.50448 0.0
C220 C 0.82251 0.38308 0.48283 0.0
C221 C 0.80132 0.39589 0.4949 0.0
C222 C 0.7845 0.37482 0.51231 0.0
H223 H 0.86944 0.63685 0.45171 0.0
H224 H 0.821 0.57794 0.47075 0.0
C225 C 0.7871 0.33989 0.51703 0.0
C226 C 0.7968 0.43101 0.48856 0.0
H227 H 0.85365 0.53601 0.48983 0.0
C228 C 0.77003 0.42494 0.47186 0.0
C229 C 0.82475 0.47141 0.49612 0.0
C230 C 0.85291 0.47899 0.51447 0.0
C231 C 0.77424 0.45858 0.46101 0.0
C232 C 0.80646 0.49883 0.46689 0.0
C233 C 0.82923 0.50506 0.48516 0.0
C234 C 0.82423 0.5323 0.45242 0.0
C235 C 0.7464 0.45052 0.44249 0.0
C236 C 0.84069 0.52596 0.43531 0.0
C237 C 0.86894 0.55946 0.42468 0.0
C238 C 0.88128 0.60006 0.43094 0.0
C239 C 0.8612 0.60598 0.44675 0.0
C240 C 0.83325 0.57238 0.45756 0.0
H241 H 0.7148 0.42389 0.44449 0.0
H242 H 0.74401 0.47804 0.43868 0.0
H243 H 0.75915 0.44246 0.42978 0.0
H244 H 0.83498 0.49545 0.4313 0.0
H245 H 0.88398 0.55353 0.41281 0.0
H246 H 0.55277 0.73459 0.87948 0.0
H247 H 0.48593 0.72948 0.86977 0.0
H248 H 0.51229 0.73252 0.80775 0.0
H249 H 0.57827 0.73768 0.81723 0.0
H250 H 0.47469 0.78536 0.84949 0.0
H251 H 0.39258 0.63908 0.80631 0.0
H252 H 0.43709 0.65195 0.82298 0.0
H253 H 0.44378 0.6679 0.79747 0.0
C254 C 0.54402 0.73402 0.8638 0.0
C255 C 0.57096 0.73725 0.84911 0.0
C256 C 0.50578 0.73069 0.85828 0.0
C257 C 0.49348 0.72917 0.83802 0.0
C258 C 0.5204 0.7322 0.82345 0.0
H259 H 0.44832 0.82707 0.75187 0.0
H260 H 0.44483 0.77501 0.77423 0.0
C261 C 0.5586 0.73613 0.82891 0.0
C262 C 0.45563 0.73028 0.83163 0.0
H263 H 0.38557 0.6973 0.7916 0.0
C264 C 0.45372 0.76514 0.83743 0.0
C265 C 0.42753 0.70329 0.81625 0.0
C266 C 0.42515 0.66323 0.81061 0.0
C267 C 0.42969 0.77752 0.82602 0.0
C268 C 0.40686 0.75398 0.80859 0.0
C269 C 0.40366 0.71569 0.80476 0.0
C270 C 0.3975 0.77407 0.79186 0.0
C271 C 0.43327 0.81843 0.83121 0.0
C272 C 0.36974 0.7885 0.79343 0.0
C273 C 0.37141 0.81832 0.78042 0.0
C274 C 0.40104 0.83415 0.76581 0.0
C275 C 0.42501 0.81567 0.76282 0.0
C276 C 0.42316 0.78585 0.77572 0.0
H277 H 0.45292 0.83313 0.84513 0.0
H278 H 0.44689 0.84006 0.81886 0.0
H279 H 0.40197 0.81376 0.83327 0.0
H280 H 0.3492 0.77921 0.80561 0.0
H281 H 0.35185 0.83133 0.78281 0.0
H282 H 0.92664 0.55705 0.2004 0.0
H283 H 0.8589 0.49414 0.20097 0.0
H284 H 0.8028 0.55496 0.16914 0.0
H285 H 0.86963 0.6188 0.1699 0.0
H286 H 0.74962 0.49907 0.19391 0.0
H287 H 0.82103 0.42733 0.14988 0.0
H288 H 0.84023 0.44377 0.17528 0.0
H289 H 0.84938 0.48158 0.15677 0.0
C290 C 0.89968 0.55764 0.1942 0.0
C291 C 0.90381 0.59287 0.18466 0.0
C292 C 0.86098 0.52132 0.19431 0.0
C293 C 0.82602 0.51934 0.18448 0.0
C294 C 0.82942 0.55553 0.17663 0.0
H295 H 0.66867 0.42366 0.09548 0.0
H296 H 0.72203 0.44126 0.12172 0.0
C297 C 0.86783 0.59197 0.17684 0.0
C298 C 0.78728 0.47938 0.1797 0.0
H299 H 0.74959 0.39737 0.14657 0.0
C300 C 0.74939 0.47598 0.18405 0.0
C301 C 0.78705 0.4489 0.16707 0.0
C302 C 0.8265 0.45042 0.16182 0.0
C303 C 0.71198 0.44636 0.17407 0.0
C304 C 0.71266 0.41907 0.15971 0.0
C305 C 0.74948 0.41868 0.1575 0.0
C306 C 0.68022 0.40054 0.14323 0.0
C307 C 0.673 0.44761 0.17724 0.0
C308 C 0.63905 0.3703 0.14632 0.0
C309 C 0.60804 0.3596 0.13105 0.0
C310 C 0.6179 0.37914 0.11257 0.0
C311 C 0.65973 0.40723 0.10926 0.0
C312 C 0.69045 0.41764 0.12438 0.0
H313 H 0.67811 0.47148 0.18867 0.0
H314 H 0.66136 0.45423 0.163 0.0
H315 H 0.6485 0.41706 0.18214 0.0
H316 H 0.63068 0.35637 0.16072 0.0
H317 H 0.57616 0.33747 0.13399 0.0
H318 H 0.32516 0.95414 0.51265 0.0
H319 H 0.25079 0.90579 0.50999 0.0
H320 H 0.27232 0.80383 0.51712 0.0
H321 H 0.34731 0.8524 0.51963 0.0
H322 H 0.23203 0.79819 0.48263 0.0
H323 H 0.15364 0.83014 0.54164 0.0
H324 H 0.18965 0.87712 0.53026 0.0
H325 H 0.20852 0.84787 0.54374 0.0
C326 C 0.31413 0.9216 0.51452 0.0
C327 C 0.34207 0.907 0.51614 0.0
C328 C 0.27143 0.8939 0.51309 0.0
C329 C 0.2559 0.85117 0.51348 0.0
C330 C 0.28366 0.83672 0.51684 0.0
H331 H 1.00389 0.66716 0.46849 0.0
H332 H 1.06498 0.70392 0.49162 0.0
C333 C 0.32645 0.86443 0.51816 0.0
C334 C 0.21239 0.82229 0.50626 0.0
H335 H 0.11293 0.80152 0.50996 0.0
C336 C 0.20588 0.79814 0.48895 0.0
C337 C 0.17822 0.82223 0.51445 0.0
C338 C 0.18285 0.84544 0.53368 0.0
C339 C 0.16672 0.77604 0.47893 0.0
C340 C 0.13335 0.77848 0.4863 0.0
C341 C 0.13898 0.80047 0.50422 0.0
C342 C 0.09314 0.75967 0.47477 0.0
C343 C 0.16149 0.75153 0.46003 0.0
C344 C 0.08851 0.77956 0.45803 0.0
C345 C 1.05359 0.75881 0.44482 0.0
C346 C 1.02288 0.71782 0.44817 0.0
C347 C 1.02664 0.69893 0.46563 0.0
C348 C 1.06154 0.71976 0.47885 0.0
H349 H 0.18894 0.74831 0.45777 0.0
H350 H 0.13355 0.72021 0.46038 0.0
H351 H 0.15692 0.76732 0.44703 0.0
H352 H 0.11288 0.8104 0.45469 0.0
H353 H 1.05137 0.77423 0.4316 0.0
H354 H 0.60897 0.29932 0.81607 0.0
H355 H 0.581 0.22467 0.81592 0.0
H356 H 0.48695 0.2104 0.85506 0.0
H357 H 0.51427 0.28512 0.85495 0.0
H358 H 0.55959 0.16183 0.84632 0.0
H359 H 0.42351 0.14906 0.80157 0.0
H360 H 0.47097 0.19799 0.80597 0.0
H361 H 0.43669 0.17462 0.82578 0.0
C362 C 0.58281 0.28036 0.82493 0.0
C363 C 0.56337 0.29785 0.83525 0.0
C364 C 0.56706 0.23783 0.82496 0.0
C365 C 0.53161 0.21216 0.83525 0.0
C366 C 0.51414 0.22981 0.8469 0.0
H367 H 0.38858 0.95479 0.78943 0.0
H368 H 0.40707 1.01301 0.81273 0.0
C369 C 0.52994 0.27246 0.84691 0.0
C370 C 0.5103 0.16709 0.83135 0.0
H371 H 0.43118 0.09119 0.80189 0.0
C372 C 0.53097 0.14596 0.83701 0.0
C373 C 0.47279 0.1465 0.81933 0.0
C374 C 0.44959 0.16803 0.81267 0.0
C375 C 0.51645 0.10547 0.82989 0.0
C376 C 0.481 0.08626 0.81645 0.0
C377 C 0.45846 0.10613 0.81214 0.0
C378 C 0.47059 1.049 0.80427 0.0
C379 C 0.54012 0.08429 0.83621 0.0
C380 C 0.50003 1.05025 0.79172 0.0
C381 C 0.4896 1.01736 0.77848 0.0
C382 C 0.4493 0.98267 0.77731 0.0
C383 C 0.41988 0.98114 0.79006 0.0
C384 C 0.43039 1.01423 0.80336 0.0
H385 H 0.55511 0.09506 0.85146 0.0
H386 H 0.51957 1.05016 0.83599 0.0
H387 H 0.56507 0.09215 0.82583 0.0
H388 H 0.53088 0.07723 0.79177 0.0
H389 H 0.51316 1.01914 0.76911 0.0
H390 H 0.56734 0.93222 0.50959 0.0
H391 H 0.56894 0.86805 0.5142 0.0
H392 H 0.7021 0.93661 0.5129 0.0
H393 H 0.70068 1.00069 0.50849 0.0
H394 H 0.59306 0.82311 0.49285 0.0
H395 H 0.6936 0.87444 0.5624 0.0
H396 H 0.67108 0.90335 0.55194 0.0
H397 H 0.71721 0.9081 0.54219 0.0
C398 C 0.59714 0.93393 0.51031 0.0
C399 C 0.63388 0.9727 0.50869 0.0
C400 C 0.59803 0.89671 0.51296 0.0
C401 C 0.63572 0.89633 0.51439 0.0
C402 C 0.67237 0.93499 0.51248 0.0
H403 H 0.70868 0.70647 0.53747 0.0
H404 H 0.70589 0.76871 0.52909 0.0
C405 C 0.67149 0.97214 0.50974 0.0
C406 C 0.63665 0.85598 0.51761 0.0
H407 H 0.68083 0.81162 0.54722 0.0
C408 C 0.61221 0.82083 0.50486 0.0
C409 C 0.66145 0.85159 0.53316 0.0
C410 C 0.68702 0.88618 0.54834 0.0
C411 C 0.61267 0.78308 0.50679 0.0
C412 C 0.63746 0.77865 0.52237 0.0
C413 C 0.66176 0.81383 0.53515 0.0
C414 C 0.63887 0.73852 0.52575 0.0
C415 C 0.58743 0.74877 0.49145 0.0
C416 C 0.60252 0.69908 0.5266 0.0
C417 C 0.60426 0.66284 0.53103 0.0
C418 C 0.64239 0.66407 0.53483 0.0
C419 C 0.67867 0.70334 0.53385 0.0
C420 C 0.67698 0.73951 0.52934 0.0
H421 H 0.58199 0.76094 0.47725 0.0
H422 H 0.60297 0.73106 0.48815 0.0
H423 H 0.55666 0.7273 0.49721 0.0
H424 H 0.57234 0.69632 0.52474 0.0
H425 H 0.57545 0.63403 0.53257 0.0
H426 H 0.80522 0.64911 0.85395 0.0
H427 H 0.87082 0.64965 0.85918 0.0
H428 H 0.8133 0.52699 0.83264 0.0
H429 H 0.74771 0.52653 0.82716 0.0
H430 H 0.89626 0.607 0.88086 0.0
H431 H 0.91631 0.57626 0.80288 0.0
H432 H 0.87745 0.58854 0.80928 0.0
H433 H 0.86821 0.53686 0.81196 0.0
C434 C 0.80629 0.6222 0.849 0.0
C435 C 0.77017 0.5879 0.83988 0.0
C436 C 0.84436 0.6225 0.8521 0.0
C437 C 0.84864 0.58873 0.84607 0.0
C438 C 0.81245 0.55429 0.83707 0.0
H439 H 1.05935 0.53688 0.85865 0.0
H440 H 0.99321 0.53432 0.84969 0.0
C441 C 0.77427 0.5539 0.83402 0.0
C442 C 0.89012 0.58933 0.84983 0.0
H443 H 0.96297 0.57416 0.82752 0.0
C444 C 0.91066 0.59998 0.86904 0.0
C445 C 0.91012 0.57999 0.83479 0.0
C446 C 0.89218 0.57015 0.81353 0.0
C447 C 0.94883 0.6009 0.87361 0.0
C448 C 0.96917 0.59212 0.85853 0.0
C449 C 0.94849 0.5811 0.83933 0.0
C450 C 1.01161 0.59474 0.86242 0.0
C451 C 0.96618 0.61005 0.89499 0.0
C452 C 1.04607 0.63003 0.87183 0.0
C453 C 0.08411 0.63155 0.87686 0.0
C454 C 0.09037 0.59826 0.87241 0.0
C455 C 1.05676 0.56367 0.86205 0.0
C456 C 1.01835 0.56206 0.85707 0.0
H457 H 0.94142 0.60222 0.90551 0.0
H458 H 0.98198 0.59256 0.89904 0.0
H459 H 0.98898 0.64359 0.89704 0.0
H460 H 1.04349 0.65661 0.8757 0.0
H461 H 0.10857 0.65868 0.88497 0.0
H462 H 0.23712 0.795 0.15991 0.0
H463 H 0.30373 0.86003 0.16487 0.0
H464 H 0.35585 0.79553 0.19637 0.0
H465 H 0.28976 0.73046 0.19107 0.0
H466 H 0.34992 0.90749 0.19579 0.0
H467 H 0.44763 0.85677 0.16069 0.0
H468 H 0.39175 0.82594 0.15884 0.0
H469 H 0.42073 0.82447 0.18079 0.0
C470 C 0.26276 0.79433 0.16775 0.0
C471 C 0.25724 0.75647 0.17484 0.0
C472 C 0.30128 0.83203 0.17067 0.0
C473 C 0.3363 0.83375 0.18072 0.0
C474 C 0.3306 0.79598 0.18802 0.0
H475 H 0.5905 1.02511 0.22262 0.0
H476 H 0.52484 0.96228 0.21297 0.0
C477 C 0.29215 0.75829 0.18507 0.0
C478 C 0.37793 0.87473 0.18394 0.0
H479 H 0.4836 0.92025 0.17971 0.0
C480 C 0.37898 0.91009 0.19205 0.0
C481 C 0.41682 0.8795 0.1792 0.0
C482 C 0.41927 0.84481 0.16921 0.0
C483 C 0.41671 0.94845 0.19609 0.0
C484 C 0.45563 0.95299 0.19162 0.0
C485 C 0.45452 0.91777 0.1833 0.0
C486 C 0.49765 0.99283 0.19631 0.0
C487 C 0.41445 0.98339 0.20589 0.0
C488 C 0.50655 1.0323 0.18978 0.0
C489 C 0.54499 0.06893 0.19525 0.0
C490 C 0.57618 0.06762 0.20744 0.0
C491 C 0.56777 1.02796 0.21319 0.0
C492 C 0.52971 0.99157 0.20768 0.0
H493 H 0.38479 0.97212 0.21324 0.0
H494 H 0.44055 1.00044 0.21724 0.0
H495 H 0.41636 1.00534 0.19437 0.0
H496 H 0.48354 1.03501 0.18056 0.0
H497 H 0.54955 0.09849 0.1906 0.0
H498 H 0.69179 0.23762 0.52631 0.0
H499 H 0.69192 0.30269 0.53054 0.0
H500 H 0.58049 0.25351 0.49216 0.0
H501 H 0.57955 0.18804 0.48843 0.0
H502 H 0.6993 0.36388 0.50923 0.0
H503 H 0.54065 0.29323 0.53513 0.0
H504 H 0.5657 0.26358 0.53186 0.0
H505 H 0.54116 0.27411 0.51072 0.0
C506 C 0.66699 0.24027 0.51882 0.0
C507 C 0.6353 0.20627 0.50719 0.0
C508 C 0.66717 0.27812 0.52121 0.0
C509 C 0.63562 0.28408 0.5122 0.0
C510 C 0.60468 0.25051 0.50007 0.0
H511 H 0.59937 0.48141 0.56198 0.0
H512 H 0.60061 0.41951 0.55295 0.0
C513 C 0.60438 0.21261 0.49773 0.0
C514 C 0.63526 0.32485 0.51548 0.0
H515 H 0.57328 0.36419 0.52792 0.0
C516 C 0.67171 0.36367 0.51354 0.0
C517 C 0.59968 0.32618 0.52112 0.0
C518 C 0.55972 0.28711 0.52504 0.0
C519 C 0.67374 0.40234 0.51712 0.0
C520 C 0.63778 0.40366 0.52226 0.0
C521 C 0.60127 0.36473 0.52399 0.0
C522 C 0.63738 0.44399 0.52722 0.0
C523 C 0.71535 0.44133 0.51609 0.0
C524 C 0.65667 0.48038 0.51586 0.0
C525 C 0.65685 0.51736 0.52146 0.0
C526 C 0.63726 0.51965 0.53855 0.0
C527 C 0.61607 0.48246 0.54908 0.0
C528 C 0.61639 0.44609 0.5437 0.0
H529 H 0.74126 0.43516 0.51857 0.0
H530 H 0.71774 0.45413 0.501 0.0
H531 H 0.71955 0.465 0.52738 0.0
H532 H 0.67188 0.48053 0.50256 0.0
H533 H 0.67344 0.54454 0.51268 0.0
H534 H 0.55798 0.64731 0.83354 0.0
H535 H 0.49431 0.64838 0.83914 0.0
H536 H 0.43672 0.5231 0.85859 0.0
H537 H 0.49994 0.52158 0.85252 0.0
H538 H 0.45071 0.64568 0.86778 0.0
H539 H 0.34245 0.50464 0.82326 0.0
H540 H 0.36921 0.49342 0.84284 0.0
H541 H 0.39784 0.52689 0.82316 0.0
C542 C 0.53178 0.61971 0.83889 0.0
C543 C 0.53501 0.58419 0.84231 0.0
C544 C 0.49479 0.62037 0.84215 0.0
C545 C 0.45879 0.58553 0.84888 0.0
C546 C 0.4624 0.55029 0.85268 0.0
H547 H 0.25478 0.6472 0.85846 0.0
H548 H 0.31778 0.6468 0.84943 0.0
C549 C 0.49932 0.54953 0.84934 0.0
C550 C 0.4185 0.58647 0.85225 0.0
H551 H 0.31151 0.5311 0.84453 0.0
C552 C 0.42051 0.62066 0.8624 0.0
C553 C 0.37789 0.55435 0.84541 0.0
C554 C 0.37165 0.518 0.83288 0.0
C555 C 0.3845 0.62318 0.86613 0.0
C556 C 0.34394 0.59049 0.85982 0.0
C557 C 0.34185 0.55639 0.84965 0.0
C558 C 0.30362 0.59027 0.86425 0.0
C559 C 0.39038 0.66081 0.87733 0.0
C560 C 0.27261 0.55822 0.87508 0.0
C561 C 0.23637 0.55849 0.88026 0.0
C562 C 0.22845 0.59024 0.87445 0.0
C563 C 0.25868 0.62164 0.86297 0.0
C564 C 0.29544 0.62171 0.85803 0.0
H565 H 0.42094 0.67739 0.88585 0.0
H566 H 0.38898 0.68241 0.86649 0.0
H567 H 0.36558 0.65236 0.88789 0.0
H568 H 0.27702 0.5333 0.8802 0.0
H569 H 0.21472 0.53402 0.88937 0.0
H570 H 0.98094 0.55081 0.17411 0.0
H571 H 0.91633 0.48583 0.17957 0.0
H572 H 0.98438 0.42173 0.18437 0.0
H573 H 1.0489 0.48629 0.17874 0.0
H574 H 0.8754 0.40426 0.15766 0.0
H575 H 0.91918 0.39037 0.23612 0.0
H576 H 0.94495 0.43853 0.22331 0.0
H577 H 0.95698 0.39881 0.2184 0.0
C578 C 0.98238 0.52295 0.17623 0.0
C579 C 1.02101 0.52464 0.17587 0.0
C580 C 0.94497 0.48538 0.17935 0.0
C581 C 0.94455 0.44796 0.18261 0.0
C582 C 0.98305 0.44961 0.18217 0.0
H583 H 0.76187 0.19515 0.21795 0.0
H584 H 0.8228 0.25939 0.20853 0.0
C585 C 1.02033 0.48697 0.17882 0.0
C586 C 0.90443 0.40754 0.18656 0.0
H587 H 0.85779 0.33353 0.22171 0.0
C588 C 0.87152 0.38905 0.17175 0.0
C589 C 0.89858 0.38662 0.2048 0.0
C590 C 0.93154 0.40457 0.22169 0.0
C591 C 0.83406 0.35093 0.1745 0.0
C592 C 0.82812 0.32984 0.19281 0.0
C593 C 0.86124 0.34858 0.20759 0.0
C594 C 0.78895 0.2883 0.19694 0.0
C595 C 0.80183 0.33311 0.15731 0.0
C596 C 0.74801 0.28104 0.19352 0.0
C597 C 0.7125 0.24323 0.19859 0.0
C598 C 0.71634 0.21117 0.20749 0.0
C599 C 0.75711 0.21831 0.21072 0.0
C600 C 0.7924 0.25572 0.2055 0.0
H601 H 0.81575 0.34513 0.14283 0.0
H602 H 0.78598 0.29885 0.15649 0.0
H603 H 0.77827 0.34225 0.15933 0.0
H604 H 0.74332 0.30525 0.18764 0.0
H605 H 0.6821 0.23997 0.19645 0.0
H606 H 0.12478 0.6649 0.09867 0.0
H607 H 0.13142 0.65834 0.06302 0.0
H608 H 0.19453 0.59098 0.07574 0.0
H609 H 0.18804 0.59739 0.11165 0.0
H610 H 0.20463 0.68552 0.04172 0.0
H611 H 0.10025 0.51512 0.03392 0.0
H612 H 0.1007 0.54481 0.05526 0.0
H613 H 0.1415 0.53338 0.05311 0.0
C614 C 0.14009 0.6486 0.09401 0.0
C615 C 0.1557 0.63154 0.10824 0.0
C616 C 0.14391 0.64494 0.07351 0.0
C617 C 0.163 0.62371 0.06652 0.0
C618 C 0.17905 0.60695 0.08064 0.0
H619 H 0.18891 0.56209 0.94293 0.0
H620 H 0.19187 0.56889 0.97941 0.0
C621 C 0.17553 0.61088 0.10124 0.0
C622 C 0.1663 0.61977 0.04451 0.0
H623 H 0.13244 0.54985 0.00507 0.0
C624 C 0.1889 0.65582 0.03373 0.0
C625 C 0.14607 0.58106 0.03397 0.0
C626 C 0.12046 0.5413 0.04454 0.0
C627 C 0.19189 0.65429 0.01289 0.0
C628 C 0.17066 0.61567 1.00222 0.0
C629 C 0.14867 0.57953 0.01307 0.0
C630 C 0.16987 0.61223 0.97982 0.0
C631 C 0.21853 0.69424 0.00263 0.0
C632 C 0.15624 0.63395 0.96762 0.0
C633 C 0.15503 0.63054 0.94672 0.0
C634 C 0.16678 0.60474 0.93725 0.0
C635 C 0.18017 0.58275 0.94951 0.0
C636 C 0.18155 0.58634 0.97047 0.0
H637 H 0.24295 0.71799 0.01316 0.0
H638 H 0.23377 0.68953 0.98993 0.0
H639 H 0.19881 0.70661 0.99684 0.0
H640 H 0.14604 0.65337 0.97425 0.0
H641 H 0.14498 0.64844 0.93799 0.0
H642 H 0.58894 0.06841 0.43254 0.0
H643 H 0.59743 0.08145 0.39707 0.0
H644 H 0.72775 0.16817 0.40928 0.0
H645 H 0.71953 0.15558 0.44525 0.0
H646 H 0.63424 0.1661 0.37856 0.0
H647 H 0.71615 0.08016 0.36415 0.0
H648 H 0.68362 0.06875 0.38498 0.0
H649 H 0.73321 0.11537 0.38552 0.0
C650 C 0.6196 0.09025 0.42784 0.0
C651 C 0.65362 0.11081 0.44193 0.0
C652 C 0.62431 0.09771 0.40745 0.0
C653 C 0.66321 0.12557 0.40042 0.0
C654 C 0.69744 0.14628 0.41433 0.0
H655 H 0.72323 0.16814 0.27405 0.0
H656 H 0.72839 0.16854 0.31058 0.0
C657 C 0.69268 0.13912 0.4349 0.0
C658 C 0.6671 0.13286 0.37855 0.0
H659 H 0.69856 0.1076 0.33645 0.0
C660 C 0.64863 0.15363 0.36936 0.0
C661 C 0.68601 0.1168 0.36653 0.0
C662 C 0.70584 0.09383 0.37564 0.0
C663 C 0.6482 0.15844 0.34854 0.0
C664 C 0.66551 0.14077 0.33633 0.0
C665 C 0.68503 0.12098 0.34564 0.0
C666 C 0.6625 0.14136 0.31395 0.0
C667 C 0.62955 0.1829 0.33991 0.0
C668 C 0.62375 0.12558 0.30341 0.0
C669 C 0.62074 0.12589 0.2825 0.0
C670 C 0.65635 0.14135 0.27137 0.0
C671 C 0.69512 0.15663 0.28196 0.0
C672 C 0.69812 0.15656 0.30294 0.0
H673 H 0.63097 0.20551 0.35111 0.0
H674 H 0.64571 0.19989 0.32663 0.0
H675 H 0.59636 0.16146 0.33536 0.0
H676 H 0.59557 0.11265 0.31137 0.0
H677 H 0.59034 0.1142 0.27507 0.0
H678 H 0.61253 0.54123 0.76571 0.0
H679 H 0.61653 0.54679 0.72975 0.0
H680 H 0.7083 0.67644 0.73727 0.0
H681 H 0.70566 0.67051 0.77375 0.0
H682 H 0.59694 0.58632 0.70481 0.0
H683 H 0.76445 0.64402 0.69842 0.0
H684 H 0.73948 0.6259 0.72154 0.0
H685 H 0.75473 0.67723 0.71363 0.0
C686 C 0.63382 0.57104 0.75983 0.0
C687 C 0.6588 0.60546 0.77277 0.0
C688 C 0.63605 0.57417 0.73911 0.0
C689 C 0.66303 0.61191 0.7305 0.0
C690 C 0.68794 0.64661 0.74336 0.0
H691 H 0.61811 0.63611 0.60238 0.0
H692 H 0.62366 0.64253 0.63867 0.0
C693 C 0.6862 0.64331 0.76428 0.0
C694 C 0.66341 0.61432 0.70812 0.0
H695 H 0.72586 0.64079 0.66865 0.0
C696 C 0.62525 0.59827 0.69697 0.0
C697 C 0.70011 0.62936 0.69764 0.0
C698 C 0.74196 0.64472 0.70838 0.0
C699 C 0.62258 0.59628 0.67594 0.0
C700 C 0.65935 0.61239 0.66543 0.0
C701 C 0.69761 0.62875 0.67654 0.0
C702 C 0.65859 0.61128 0.643 0.0
C703 C 0.58001 0.57528 0.66529 0.0
C704 C 0.67823 0.59358 0.63294 0.0
C705 C 0.67631 0.59105 0.61197 0.0
C706 C 0.65444 0.60595 0.60036 0.0
C707 C 0.6356 0.62451 0.61054 0.0
C708 C 0.6381 0.62758 0.63148 0.0
H709 H 0.55577 0.55362 0.67512 0.0
H710 H 0.57208 0.599 0.66083 0.0
H711 H 0.57887 0.55772 0.6517 0.0
H712 H 0.69467 0.58109 0.64132 0.0
H713 H 0.69218 0.57747 0.6049 0.0
H714 H 0.5533 0.06794 0.5619 0.0
H715 H 0.53164 1.042 0.59495 0.0
H716 H 0.63588 1.02336 0.6037 0.0
H717 H 0.65787 1.04913 0.57025 0.0
H718 H 0.55726 0.95432 0.61347 0.0
H719 H 0.58708 0.10111 0.64904 0.0
H720 H 0.55675 0.08839 0.62577 0.0
H721 H 0.60948 0.09937 0.62609 0.0
C722 C 0.57197 0.05871 0.57085 0.0
C723 C 0.60747 0.06077 0.56345 0.0
C724 C 0.55956 1.044 0.58979 0.0
C725 C 0.5824 1.03121 0.60182 0.0
C726 C 0.61799 1.03332 0.59462 0.0
H727 H 0.5294 0.98193 0.72639 0.0
H728 H 0.56448 1.00466 0.69528 0.0
C729 C 0.6306 1.04824 0.57559 0.0
C730 C 0.56797 1.01463 0.62168 0.0
H731 H 0.54286 1.0392 0.66575 0.0
C732 C 0.55456 0.97292 0.62504 0.0
C733 C 0.56483 1.03909 0.63676 0.0
C734 C 0.58067 0.08458 0.63435 0.0
C735 C 0.53668 0.95463 0.64291 0.0
C736 C 0.5316 0.97862 0.65757 0.0
C737 C 0.54635 1.02068 0.65441 0.0
C738 C 0.51122 0.96118 0.67638 0.0
C739 C 0.52355 0.90992 0.64594 0.0
C740 C 0.4697 0.92871 0.67614 0.0
C741 C 0.44957 0.91548 0.69399 0.0
C742 C 0.47051 0.93509 0.71225 0.0
C743 C 0.51235 0.96673 0.71246 0.0
C744 C 0.53247 0.97962 0.69472 0.0
H745 H 0.54006 0.89963 0.63623 0.0
H746 H 0.52951 0.90471 0.66173 0.0
H747 H 0.48978 0.89033 0.64203 0.0
H748 H 0.45244 0.91458 0.66212 0.0
H749 H 0.41728 0.89114 0.69346 0.0
H750 H 0.65371 0.61001 0.90642 0.0
H751 H 0.64763 0.58715 0.94108 0.0
H752 H 0.63745 0.47301 0.92079 0.0
H753 H 0.64446 0.49554 0.88676 0.0
H754 H 0.58398 0.52003 0.95715 0.0
H755 H 0.72466 0.50777 0.9657 0.0
H756 H 0.71637 0.53498 0.94553 0.0
H757 H 0.69398 0.47969 0.94367 0.0
C758 C 0.65068 0.5803 0.90946 0.0
C759 C 0.6499 0.55481 0.89385 0.0
C760 C 0.64722 0.5673 0.92921 0.0
C761 C 0.64311 0.52879 0.93353 0.0
C762 C 0.64197 0.50337 0.91792 0.0
H763 H 0.5211 0.36495 0.02835 0.0
H764 H 0.54197 0.40121 0.99692 0.0
C765 C 0.64566 0.51631 0.89837 0.0
C766 C 0.63726 0.51326 0.95406 0.0
H767 H 0.6696 0.46528 0.98728 0.0
C768 C 0.6031 0.5087 0.96394 0.0
C769 C 0.66262 0.4991 0.96305 0.0
C770 C 0.70171 0.50608 0.95401 0.0
C771 C 0.59233 0.48835 0.98207 0.0
C772 C 0.61563 0.47103 0.99016 0.0
C773 C 0.65111 0.47761 0.98082 0.0
C774 C 0.60406 0.44646 0.00842 0.0
C775 C 0.55617 0.48576 0.99235 0.0
C776 C 0.63288 0.45812 0.02483 0.0
C777 C 0.62136 0.43684 0.04255 0.0
C778 C 0.58075 0.40356 0.0442 0.0
C779 C 0.55254 0.39057 0.02745 0.0
C780 C 0.56427 0.41159 0.00962 0.0
H781 H 0.55046 0.51101 0.98784 0.0
H782 H 0.52769 0.45594 0.98804 0.0
H783 H 0.56149 0.48748 0.00884 0.0
H784 H 0.66384 0.48471 0.02419 0.0
H785 H 0.64356 0.44796 0.05532 0.0
H786 H 0.14676 0.71128 0.23369 0.0
H787 H 0.11867 0.71064 0.26588 0.0
H788 H 1.04685 0.57728 0.26205 0.0
H789 H 1.0766 0.5778 0.23031 0.0
H790 H 1.04266 0.6857 0.27405 0.0
H791 H 0.09437 0.59324 0.31779 0.0
H792 H 0.11327 0.61249 0.29366 0.0
H793 H 1.06358 0.5662 0.29559 0.0
C794 C 0.1256 0.68182 0.23993 0.0
C795 C 0.11425 0.64459 0.22967 0.0
C796 C 0.10939 0.68147 0.25827 0.0
C797 C 1.08099 0.6439 0.26658 0.0
C798 C 1.06961 0.60662 0.2563 0.0
H799 H 0.92725 0.6438 0.3618 0.0
H800 H 0.95028 0.63553 0.32951 0.0
C801 C 0.08655 0.60693 0.23813 0.0
C802 C 1.0621 0.64422 0.28551 0.0
H803 H 1.04619 0.60708 0.33259 0.0
C804 C 1.04359 0.66862 0.28689 0.0
C805 C 1.06347 0.62212 0.30231 0.0
C806 C 0.08511 0.59738 0.30237 0.0
C807 C 1.02707 0.67212 0.30462 0.0
C808 C 1.02757 0.64927 0.32127 0.0
C809 C 1.04547 0.62434 0.31979 0.0
C810 C 1.01241 0.65287 0.34081 0.0
C811 C 1.01081 0.70156 0.30552 0.0
C812 C 1.03897 0.66375 0.35806 0.0
C813 C 1.02553 0.66725 0.37658 0.0
C814 C 0.98526 0.66061 0.37834 0.0
C815 C 0.95845 0.64927 0.36105 0.0
C816 C 0.97178 0.64506 0.3425 0.0
H817 H 1.02324 0.72484 0.29372 0.0
H818 H 0.97649 0.68385 0.30314 0.0
H819 H 1.01902 0.71816 0.32026 0.0
H820 H 1.07033 0.66959 0.35722 0.0
H821 H 1.04671 0.67461 0.38957 0.0
loop_
_geom_bond_atom_site_label_1
_geom_bond_atom_site_label_2
_geom_bond_distance
_geom_bond_site_symmetry_2
_ccdc_geom_bond_type
Tb0 C10 2.825 . S
Tb0 O11 2.347 . S
Tb0 O14 2.366 . S
Tb0 O19 2.418 . S
Tb0 O20 2.384 1_455 S
Tb0 O23 2.479 . S
Tb0 O24 2.471 . S
Eu1 O12 2.423 . S
Eu1 O13 2.384 1_655 S
Eu1 O16 2.479 . S
Eu1 O17 2.471 . S
Eu1 O18 2.347 1_655 S
Eu1 O21 2.366 . S
Eu1 C31 2.825 . S
C2 O18 1.259 . S
C2 O19 1.265 . S
C3 O20 1.255 . S
C3 O21 1.265 . S
C4 C6 1.380 . S
C4 C7 1.374 . S
C4 C10 1.507 . S
C5 C6 1.384 . S
C5 C9 1.387 . S
C5 H32 0.930 . S
C6 C4 1.380 . S
C6 C5 1.384 . S
C6 H33 0.931 . S
C7 C4 1.374 . S
C7 C8 1.390 . S
C7 H34 0.930 . S
C8 C7 1.390 . S
C8 C9 1.391 . S
C8 H35 0.930 . S
C9 C5 1.387 . S
C9 C8 1.391 . S
C10 Tb0 2.825 . S
C10 C4 1.507 . S
C10 O23 1.238 . S
C10 O24 1.247 . S
O11 Tb0 2.347 . S
O11 C15 1.259 . S
O12 Eu1 2.423 . S
O12 C15 1.245 1_655 S
O13 Eu1 2.384 1_455 S
O13 C22 1.255 . S
O14 Tb0 2.366 . S
O14 C22 1.265 . S
C15 O11 1.259 . S
C15 O12 1.245 1_455 S
O16 Eu1 2.479 . S
O16 C31 1.238 . S
O17 Eu1 2.471 . S
O17 C31 1.247 . S
O18 Eu1 2.347 1_455 S
O18 C2 1.259 . S
O19 Tb0 2.418 . S
O19 C2 1.265 . S
O20 Tb0 2.384 1_655 S
O20 C3 1.255 . S
O21 Eu1 2.366 . S
O21 C3 1.265 . S
C22 O13 1.255 . S
C22 O14 1.265 . S
O23 Tb0 2.479 . S
O23 C10 1.238 . S
O24 Tb0 2.471 . S
O24 C10 1.247 . S
C25 C28 1.380 . S
C25 C29 1.374 . S
C25 C31 1.507 . S
C26 C27 1.387 . S
C26 C30 1.391 . S
C27 C26 1.387 . S
C27 C28 1.384 . S
C27 H36 0.930 . S
C28 C25 1.380 . S
C28 C27 1.384 . S
C28 H37 0.931 . S
C29 C25 1.374 . S
C29 C30 1.390 . S
C29 H38 0.930 . S
C30 C26 1.391 . S
C30 C29 1.390 . S
C30 H39 0.930 . S
C31 Eu1 2.825 . S
C31 O16 1.238 . S
C31 O17 1.247 . S
C31 C25 1.507 . S
H32 C5 0.930 . S
H33 C6 0.931 . S
H34 C7 0.930 . S
H35 C8 0.930 . S
H36 C27 0.930 . S
H37 C28 0.931 . S
H38 C29 0.930 . S
H39 C30 0.930 . S
Tb40 C50 2.825 . S
Tb40 O51 2.347 . S
Tb40 O54 2.366 . S
Tb40 O59 2.418 . S
Tb40 O60 2.384 1_545 S
Tb40 O63 2.479 . S
Tb40 O64 2.471 . S
Eu41 O52 2.418 . S
Eu41 O53 2.384 . S
Eu41 O56 2.479 1_545 S
Eu41 O57 2.471 1_545 S
Eu41 O58 2.347 . S
Eu41 O61 2.366 1_545 S
Eu41 C71 2.825 1_545 S
C42 O58 1.259 . S
C42 O59 1.265 . S
C43 O60 1.255 . S
C43 O61 1.265 . S
C44 C46 1.380 . S
C44 C47 1.374 . S
C44 C50 1.507 . S
C45 C46 1.384 . S
C45 C49 1.387 . S
C45 H72 0.930 . S
C46 C44 1.380 . S
C46 C45 1.384 . S
C46 H73 0.931 . S
C47 C44 1.374 . S
C47 C48 1.390 . S
C47 H74 0.930 . S
C48 C47 1.390 . S
C48 C49 1.391 . S
C48 H75 0.930 . S
C49 C45 1.387 . S
C49 C48 1.391 . S
C50 Tb40 2.825 . S
C50 C44 1.507 . S
C50 O63 1.238 . S
C50 O64 1.247 . S
O51 Tb40 2.347 . S
O51 C55 1.259 . S
O52 Eu41 2.418 . S
O52 C55 1.265 . S
O53 Eu41 2.384 . S
O53 C62 1.255 . S
O54 Tb40 2.366 . S
O54 C62 1.265 . S
C55 O51 1.259 . S
C55 O52 1.265 . S
O56 Eu41 2.479 1_565 S
O56 C71 1.238 . S
O57 Eu41 2.471 1_565 S
O57 C71 1.247 . S
O58 Eu41 2.347 . S
O58 C42 1.259 . S
O59 Tb40 2.418 . S
O59 C42 1.265 . S
O60 Tb40 2.384 1_565 S
O60 C43 1.255 . S
O61 Eu41 2.366 1_565 S
O61 C43 1.265 . S
C62 O53 1.255 . S
C62 O54 1.265 . S
O63 Tb40 2.479 . S
O63 C50 1.238 . S
O64 Tb40 2.471 . S
O64 C50 1.247 . S
C65 C68 1.380 . S
C65 C69 1.374 . S
C65 C71 1.507 . S
C66 C67 1.387 . S
C66 C70 1.391 . S
C67 C66 1.387 . S
C67 C68 1.384 . S
C67 H76 0.930 . S
C68 C65 1.380 . S
C68 C67 1.384 . S
C68 H77 0.931 . S
C69 C65 1.374 . S
C69 C70 1.390 . S
C69 H78 0.930 . S
C70 C66 1.391 . S
C70 C69 1.390 . S
C70 H79 0.930 . S
C71 Eu41 2.825 1_565 S
C71 O56 1.238 . S
C71 O57 1.247 . S
C71 C65 1.507 . S
H72 C45 0.930 . S
H73 C46 0.931 . S
H74 C47 0.930 . S
H75 C48 0.930 . S
H76 C67 0.930 . S
H77 C68 0.931 . S
H78 C69 0.930 . S
H79 C70 0.930 . S
Tb80 C90 2.825 . S
Tb80 O91 2.347 . S
Tb80 O94 2.366 . S
Tb80 O99 2.418 . S
Tb80 O100 2.384 . S
Tb80 O103 2.479 . S
Tb80 O104 2.471 . S
Eu81 O92 2.418 . S
Eu81 O93 2.384 . S
Eu81 O96 2.479 . S
Eu81 O97 2.471 . S
Eu81 O98 2.347 . S
Eu81 O101 2.366 . S
Eu81 C111 2.825 . S
C82 O98 1.259 . S
C82 O99 1.265 . S
C83 O100 1.255 . S
C83 O101 1.265 . S
C84 C86 1.380 . S
C84 C87 1.374 . S
C84 C90 1.507 . S
C85 C86 1.384 . S
C85 C89 1.387 . S
C85 H112 0.930 . S
C86 C84 1.380 . S
C86 C85 1.384 . S
C86 H113 0.931 . S
C87 C84 1.374 . S
C87 C88 1.390 . S
C87 H114 0.930 . S
C88 C87 1.390 . S
C88 C89 1.391 . S
C88 H115 0.930 . S
C89 C85 1.387 . S
C89 C88 1.391 . S
C90 Tb80 2.825 . S
C90 C84 1.507 . S
C90 O103 1.238 . S
C90 O104 1.247 . S
O91 Tb80 2.347 . S
O91 C95 1.259 . S
O92 Eu81 2.418 . S
O92 C95 1.265 . S
O93 Eu81 2.384 . S
O93 C102 1.255 . S
O94 Tb80 2.366 . S
O94 C102 1.265 . S
C95 O91 1.259 . S
C95 O92 1.265 . S
O96 Eu81 2.479 . S
O96 C111 1.238 . S
O97 Eu81 2.471 . S
O97 C111 1.247 . S
O98 Eu81 2.347 . S
O98 C82 1.259 . S
O99 Tb80 2.418 . S
O99 C82 1.265 . S
O100 Tb80 2.384 . S
O100 C83 1.255 . S
O101 Eu81 2.366 . S
O101 C83 1.265 . S
C102 O93 1.255 . S
C102 O94 1.265 . S
O103 Tb80 2.479 . S
O103 C90 1.238 . S
O104 Tb80 2.471 . S
O104 C90 1.247 . S
C105 C108 1.380 . S
C105 C109 1.374 . S
C105 C111 1.507 . S
C106 C107 1.387 . S
C106 C110 1.391 . S
C107 C106 1.387 . S
C107 C108 1.384 . S
C107 H116 0.930 . S
C108 C105 1.380 . S
C108 C107 1.384 . S
C108 H117 0.931 . S
C109 C105 1.374 . S
C109 C110 1.390 . S
C109 H118 0.930 . S
C110 C106 1.391 . S
C110 C109 1.390 . S
C110 H119 0.930 . S
C111 Eu81 2.825 . S
C111 O96 1.238 . S
C111 O97 1.247 . S
C111 C105 1.507 . S
H112 C85 0.930 . S
H113 C86 0.931 . S
H114 C87 0.930 . S
H115 C88 0.930 . S
H116 C107 0.930 . S
H117 C108 0.931 . S
H118 C109 0.930 . S
H119 C110 0.930 . S
H120 C123 0.931 . S
H121 C126 0.928 . S
H122 C128 0.930 . S
C123 H120 0.931 . S
C123 C124 1.413 . S
C123 C125 1.360 1_565 S
C124 C123 1.413 . S
C124 C128 1.429 1_565 S
C125 C123 1.360 1_545 S
C125 C126 1.372 . S
C126 H121 0.928 . S
C126 C125 1.372 . S
C126 C127 1.404 . S
C127 C126 1.404 . S
C127 C128 1.391 . S
C128 H122 0.930 . S
C128 C124 1.429 1_545 S
C128 C127 1.391 . S
H129 C132 0.931 . S
H130 C135 0.928 . S
H131 C137 0.930 . S
C132 H129 0.931 . S
C132 C133 1.413 . S
C132 C134 1.360 . S
C133 C132 1.413 . S
C133 C137 1.429 . S
C134 C132 1.360 . S
C134 C135 1.372 . S
C135 H130 0.928 . S
C135 C134 1.372 . S
C135 C136 1.404 . S
C136 C135 1.404 . S
C136 C137 1.391 . S
C137 H131 0.930 . S
C137 C133 1.429 . S
C137 C136 1.391 . S
H138 C141 0.931 . S
H139 C144 0.928 . S
H140 C146 0.930 . S
C141 H138 0.931 . S
C141 C142 1.413 . S
C141 C143 1.360 1_655 S
C142 C141 1.413 . S
C142 C146 1.429 1_655 S
C143 C141 1.360 1_455 S
C143 C144 1.372 . S
C144 H139 0.928 . S
C144 C143 1.372 . S
C144 C145 1.404 . S
C145 C144 1.404 . S
C145 C146 1.391 . S
C146 H140 0.930 . S
C146 C142 1.429 1_455 S
C146 C145 1.391 . S
H147 C150 0.931 . S
H148 C153 0.928 . S
H149 C155 0.930 . S
C150 H147 0.931 . S
C150 C151 1.413 . S
C150 C152 1.360 1_655 S
C151 C150 1.413 . S
C151 C155 1.429 1_655 S
C152 C150 1.360 1_455 S
C152 C153 1.372 . S
C153 H148 0.928 . S
C153 C152 1.372 . S
C153 C154 1.404 . S
C154 C153 1.404 . S
C154 C155 1.391 . S
C155 H149 0.930 . S
C155 C151 1.429 1_455 S
C155 C154 1.391 . S
H156 C159 0.931 . S
H157 C162 0.928 . S
H158 C164 0.930 . S
C159 H156 0.931 . S
C159 C160 1.413 . S
C159 C161 1.385 . S
C160 C159 1.413 . S
C160 C164 1.404 1_545 S
C161 C159 1.385 . S
C161 C162 1.347 1_545 S
C162 H157 0.928 . S
C162 C161 1.347 1_565 S
C162 C163 1.404 . S
C163 C162 1.404 . S
C163 C164 1.415 . S
C164 H158 0.930 . S
C164 C160 1.404 1_565 S
C164 C163 1.415 . S
H165 C168 0.931 . S
H166 C171 0.928 . S
H167 C173 0.930 . S
C168 H165 0.931 . S
C168 C169 1.413 . S
C168 C170 1.360 . S
C169 C168 1.413 . S
C169 C173 1.429 . S
C170 C168 1.360 . S
C170 C171 1.372 . S
C171 H166 0.928 . S
C171 C170 1.372 . S
C171 C172 1.404 . S
C172 C171 1.404 . S
C172 C173 1.391 . S
C173 H167 0.930 . S
C173 C169 1.429 . S
C173 C172 1.391 . S
H174 C182 0.929 . S
H175 C184 0.930 . S
H176 C186 0.930 . S
H177 C189 0.929 . S
H178 C192 0.930 . S
H179 C194 0.960 . S
H180 C194 0.960 . S
H181 C194 0.960 . S
C182 H174 0.929 . S
C182 C183 1.377 . S
C182 C184 1.384 . S
C183 C182 1.377 . S
C183 C189 1.390 . S
C184 H175 0.930 . S
C184 C182 1.384 . S
C184 C185 1.372 . S
C185 C184 1.372 . S
C185 C186 1.400 . S
C185 C190 1.490 . S
C186 H176 0.930 . S
C186 C185 1.400 . S
C186 C189 1.386 . S
H187 C203 0.930 . S
H188 C204 0.931 . S
C189 H177 0.929 . S
C189 C183 1.390 . S
C189 C186 1.386 . S
C190 C185 1.490 . S
C190 C192 1.395 . S
C190 C193 1.403 . S
H191 C197 0.930 . S
C192 H178 0.930 . S
C192 C190 1.395 . S
C192 C195 1.403 . S
C193 C190 1.403 . S
C193 C194 1.524 . S
C193 C197 1.400 . S
C194 H179 0.960 . S
C194 H180 0.960 . S
C194 H181 0.960 . S
C194 C193 1.524 . S
C195 C192 1.403 . S
C195 C196 1.392 . S
C195 C199 1.495 . S
C196 C195 1.392 . S
C196 C197 1.385 . S
C196 C198 1.478 . S
C197 H191 0.930 . S
C197 C193 1.400 . S
C197 C196 1.385 . S
C198 C196 1.478 . S
C198 C200 1.381 . S
C198 C204 1.383 . S
C199 C195 1.495 . S
C199 H205 0.959 . S
C199 H206 0.961 . S
C199 H207 0.960 . S
C200 C198 1.381 . S
C200 C201 1.394 . S
C200 H208 0.930 . S
C201 C200 1.394 . S
C201 C202 1.383 . S
C201 H209 0.929 . S
C202 C201 1.383 . S
C202 C203 1.377 . S
C203 H187 0.930 . S
C203 C202 1.377 . S
C203 C204 1.379 . S
C204 H188 0.931 . S
C204 C198 1.383 . S
C204 C203 1.379 . S
H205 C199 0.959 . S
H206 C199 0.961 . S
H207 C199 0.960 . S
H208 C200 0.930 . S
H209 C201 0.929 . S
H210 C218 0.929 . S
H211 C220 0.930 . S
H212 C222 0.930 . S
H213 C225 0.929 . S
H214 C228 0.930 . S
H215 C230 0.960 . S
H216 C230 0.960 . S
H217 C230 0.960 . S
C218 H210 0.929 . S
C218 C219 1.377 . S
C218 C220 1.384 . S
C219 C218 1.377 . S
C219 C225 1.390 . S
C220 H211 0.930 . S
C220 C218 1.384 . S
C220 C221 1.372 . S
C221 C220 1.372 . S
C221 C222 1.400 . S
C221 C226 1.490 . S
C222 H212 0.930 . S
C222 C221 1.400 . S
C222 C225 1.386 . S
H223 C239 0.930 . S
H224 C240 0.931 . S
C225 H213 0.929 . S
C225 C219 1.390 . S
C225 C222 1.386 . S
C226 C221 1.490 . S
C226 C228 1.395 . S
C226 C229 1.403 . S
H227 C233 0.930 . S
C228 H214 0.930 . S
C228 C226 1.395 . S
C228 C231 1.403 . S
C229 C226 1.403 . S
C229 C230 1.524 . S
C229 C233 1.400 . S
C230 H215 0.960 . S
C230 H216 0.960 . S
C230 H217 0.960 . S
C230 C229 1.524 . S
C231 C228 1.403 . S
C231 C232 1.392 . S
C231 C235 1.495 . S
C232 C231 1.392 . S
C232 C233 1.385 . S
C232 C234 1.478 . S
C233 H227 0.930 . S
C233 C229 1.400 . S
C233 C232 1.385 . S
C234 C232 1.478 . S
C234 C236 1.381 . S
C234 C240 1.383 . S
C235 C231 1.495 . S
C235 H241 0.959 . S
C235 H242 0.961 . S
C235 H243 0.960 . S
C236 C234 1.381 . S
C236 C237 1.394 . S
C236 H244 0.930 . S
C237 C236 1.394 . S
C237 C238 1.383 . S
C237 H245 0.929 . S
C238 C237 1.383 . S
C238 C239 1.377 . S
C239 H223 0.930 . S
C239 C238 1.377 . S
C239 C240 1.379 . S
C240 H224 0.931 . S
C240 C234 1.383 . S
C240 C239 1.379 . S
H241 C235 0.959 . S
H242 C235 0.961 . S
H243 C235 0.960 . S
H244 C236 0.930 . S
H245 C237 0.929 . S
H246 C254 0.929 . S
H247 C256 0.930 . S
H248 C258 0.930 . S
H249 C261 0.929 . S
H250 C264 0.930 . S
H251 C266 0.960 . S
H252 C266 0.960 . S
H253 C266 0.960 . S
C254 H246 0.929 . S
C254 C255 1.377 . S
C254 C256 1.384 . S
C255 C254 1.377 . S
C255 C261 1.390 . S
C256 H247 0.930 . S
C256 C254 1.384 . S
C256 C257 1.372 . S
C257 C256 1.372 . S
C257 C258 1.400 . S
C257 C262 1.490 . S
C258 H248 0.930 . S
C258 C257 1.400 . S
C258 C261 1.386 . S
H259 C275 0.930 . S
H260 C276 0.931 . S
C261 H249 0.929 . S
C261 C255 1.390 . S
C261 C258 1.386 . S
C262 C257 1.490 . S
C262 C264 1.395 . S
C262 C265 1.403 . S
H263 C269 0.930 . S
C264 H250 0.930 . S
C264 C262 1.395 . S
C264 C267 1.403 . S
C265 C262 1.403 . S
C265 C266 1.524 . S
C265 C269 1.400 . S
C266 H251 0.960 . S
C266 H252 0.960 . S
C266 H253 0.960 . S
C266 C265 1.524 . S
C267 C264 1.403 . S
C267 C268 1.392 . S
C267 C271 1.495 . S
C268 C267 1.392 . S
C268 C269 1.385 . S
C268 C270 1.478 . S
C269 H263 0.930 . S
C269 C265 1.400 . S
C269 C268 1.385 . S
C270 C268 1.478 . S
C270 C272 1.381 . S
C270 C276 1.383 . S
C271 C267 1.495 . S
C271 H277 0.959 . S
C271 H278 0.961 . S
C271 H279 0.960 . S
C272 C270 1.381 . S
C272 C273 1.394 . S
C272 H280 0.930 . S
C273 C272 1.394 . S
C273 C274 1.383 . S
C273 H281 0.929 . S
C274 C273 1.383 . S
C274 C275 1.377 . S
C275 H259 0.930 . S
C275 C274 1.377 . S
C275 C276 1.379 . S
C276 H260 0.931 . S
C276 C270 1.383 . S
C276 C275 1.379 . S
H277 C271 0.959 . S
H278 C271 0.961 . S
H279 C271 0.960 . S
H280 C272 0.930 . S
H281 C273 0.929 . S
H282 C290 0.929 . S
H283 C292 0.930 . S
H284 C294 0.930 . S
H285 C297 0.929 . S
H286 C300 0.930 . S
H287 C302 0.960 . S
H288 C302 0.960 . S
H289 C302 0.960 . S
C290 H282 0.929 . S
C290 C291 1.377 . S
C290 C292 1.384 . S
C291 C290 1.377 . S
C291 C297 1.390 . S
C292 H283 0.930 . S
C292 C290 1.384 . S
C292 C293 1.372 . S
C293 C292 1.372 . S
C293 C294 1.400 . S
C293 C298 1.490 . S
C294 H284 0.930 . S
C294 C293 1.400 . S
C294 C297 1.386 . S
H295 C311 0.930 . S
H296 C312 0.931 . S
C297 H285 0.929 . S
C297 C291 1.390 . S
C297 C294 1.386 . S
C298 C293 1.490 . S
C298 C300 1.395 . S
C298 C301 1.403 . S
H299 C305 0.930 . S
C300 H286 0.930 . S
C300 C298 1.395 . S
C300 C303 1.403 . S
C301 C298 1.403 . S
C301 C302 1.524 . S
C301 C305 1.400 . S
C302 H287 0.960 . S
C302 H288 0.960 . S
C302 H289 0.960 . S
C302 C301 1.524 . S
C303 C300 1.403 . S
C303 C304 1.392 . S
C303 C307 1.495 . S
C304 C303 1.392 . S
C304 C305 1.385 . S
C304 C306 1.478 . S
C305 H299 0.930 . S
C305 C301 1.400 . S
C305 C304 1.385 . S
C306 C304 1.478 . S
C306 C308 1.381 . S
C306 C312 1.383 . S
C307 C303 1.495 . S
C307 H313 0.959 . S
C307 H314 0.961 . S
C307 H315 0.960 . S
C308 C306 1.381 . S
C308 C309 1.394 . S
C308 H316 0.930 . S
C309 C308 1.394 . S
C309 C310 1.383 . S
C309 H317 0.929 . S
C310 C309 1.383 . S
C310 C311 1.377 . S
C311 H295 0.930 . S
C311 C310 1.377 . S
C311 C312 1.379 . S
C312 H296 0.931 . S
C312 C306 1.383 . S
C312 C311 1.379 . S
H313 C307 0.959 . S
H314 C307 0.961 . S
H315 C307 0.960 . S
H316 C308 0.930 . S
H317 C309 0.929 . S
H318 C326 0.929 . S
H319 C328 0.930 . S
H320 C330 0.930 . S
H321 C333 0.929 . S
H322 C336 0.930 . S
H323 C338 0.960 . S
H324 C338 0.960 . S
H325 C338 0.960 . S
C326 H318 0.929 . S
C326 C327 1.377 . S
C326 C328 1.384 . S
C327 C326 1.377 . S
C327 C333 1.390 . S
C328 H319 0.930 . S
C328 C326 1.384 . S
C328 C329 1.372 . S
C329 C328 1.372 . S
C329 C330 1.400 . S
C329 C334 1.490 . S
C330 H320 0.930 . S
C330 C329 1.400 . S
C330 C333 1.386 . S
H331 C347 0.930 . S
H332 C348 0.931 . S
C333 H321 0.929 . S
C333 C327 1.390 . S
C333 C330 1.386 . S
C334 C329 1.490 . S
C334 C336 1.395 . S
C334 C337 1.403 . S
H335 C341 0.930 . S
C336 H322 0.930 . S
C336 C334 1.395 . S
C336 C339 1.403 . S
C337 C334 1.403 . S
C337 C338 1.524 . S
C337 C341 1.400 . S
C338 H323 0.960 . S
C338 H324 0.960 . S
C338 H325 0.960 . S
C338 C337 1.524 . S
C339 C336 1.403 . S
C339 C340 1.392 . S
C339 C343 1.495 . S
C340 C339 1.392 . S
C340 C341 1.385 . S
C340 C342 1.478 . S
C341 H335 0.930 . S
C341 C337 1.400 . S
C341 C340 1.385 . S
C342 C340 1.478 . S
C342 C344 1.381 . S
C342 C348 1.383 . S
C343 C339 1.495 . S
C343 H349 0.959 . S
C343 H350 0.961 . S
C343 H351 0.960 . S
C344 C342 1.381 . S
C344 C345 1.394 . S
C344 H352 0.930 . S
C345 C344 1.394 . S
C345 C346 1.383 . S
C345 H353 0.929 . S
C346 C345 1.383 . S
C346 C347 1.377 . S
C347 H331 0.930 . S
C347 C346 1.377 . S
C347 C348 1.379 . S
C348 H332 0.931 . S
C348 C342 1.383 . S
C348 C347 1.379 . S
H349 C343 0.959 . S
H350 C343 0.961 . S
H351 C343 0.960 . S
H352 C344 0.930 . S
H353 C345 0.929 . S
H354 C362 0.929 . S
H355 C364 0.930 . S
H356 C366 0.930 . S
H357 C369 0.929 . S
H358 C372 0.930 . S
H359 C374 0.960 . S
H360 C374 0.960 . S
H361 C374 0.960 . S
C362 H354 0.929 . S
C362 C363 1.377 . S
C362 C364 1.384 . S
C363 C362 1.377 . S
C363 C369 1.390 . S
C364 H355 0.930 . S
C364 C362 1.384 . S
C364 C365 1.372 . S
C365 C364 1.372 . S
C365 C366 1.400 . S
C365 C370 1.490 . S
C366 H356 0.930 . S
C366 C365 1.400 . S
C366 C369 1.386 . S
H367 C383 0.930 . S
H368 C384 0.931 . S
C369 H357 0.929 . S
C369 C363 1.390 . S
C369 C366 1.386 . S
C370 C365 1.490 . S
C370 C372 1.395 . S
C370 C373 1.403 . S
H371 C377 0.930 . S
C372 H358 0.930 . S
C372 C370 1.395 . S
C372 C375 1.403 . S
C373 C370 1.403 . S
C373 C374 1.524 . S
C373 C377 1.400 . S
C374 H359 0.960 . S
C374 H360 0.960 . S
C374 H361 0.960 . S
C374 C373 1.524 . S
C375 C372 1.403 . S
C375 C376 1.392 . S
C375 C379 1.495 . S
C376 C375 1.392 . S
C376 C377 1.385 . S
C376 C378 1.478 . S
C377 H371 0.930 . S
C377 C373 1.400 . S
C377 C376 1.385 . S
C378 C376 1.478 . S
C378 C380 1.381 . S
C378 C384 1.383 . S
C379 C375 1.495 . S
C379 H385 0.959 . S
C379 H386 0.961 . S
C379 H387 0.960 . S
C380 C378 1.381 . S
C380 C381 1.394 . S
C380 H388 0.930 . S
C381 C380 1.394 . S
C381 C382 1.383 . S
C381 H389 0.929 . S
C382 C381 1.383 . S
C382 C383 1.377 . S
C383 H367 0.930 . S
C383 C382 1.377 . S
C383 C384 1.379 . S
C384 H368 0.931 . S
C384 C378 1.383 . S
C384 C383 1.379 . S
H385 C379 0.959 . S
H386 C379 0.961 . S
H387 C379 0.960 . S
H388 C380 0.930 . S
H389 C381 0.929 . S
H390 C398 0.929 . S
H391 C400 0.930 . S
H392 C402 0.930 . S
H393 C405 0.929 . S
H394 C408 0.930 . S
H395 C410 0.960 . S
H396 C410 0.960 . S
H397 C410 0.960 . S
C398 H390 0.929 . S
C398 C399 1.377 . S
C398 C400 1.384 . S
C399 C398 1.377 . S
C399 C405 1.390 . S
C400 H391 0.930 . S
C400 C398 1.384 . S
C400 C401 1.372 . S
C401 C400 1.372 . S
C401 C402 1.400 . S
C401 C406 1.490 . S
C402 H392 0.930 . S
C402 C401 1.400 . S
C402 C405 1.386 . S
H403 C419 0.930 . S
H404 C420 0.931 . S
C405 H393 0.929 . S
C405 C399 1.390 . S
C405 C402 1.386 . S
C406 C401 1.490 . S
C406 C408 1.395 . S
C406 C409 1.403 . S
H407 C413 0.930 . S
C408 H394 0.930 . S
C408 C406 1.395 . S
C408 C411 1.403 . S
C409 C406 1.403 . S
C409 C410 1.524 . S
C409 C413 1.400 . S
C410 H395 0.960 . S
C410 H396 0.960 . S
C410 H397 0.960 . S
C410 C409 1.524 . S
C411 C408 1.403 . S
C411 C412 1.392 . S
C411 C415 1.495 . S
C412 C411 1.392 . S
C412 C413 1.385 . S
C412 C414 1.478 . S
C413 H407 0.930 . S
C413 C409 1.400 . S
C413 C412 1.385 . S
C414 C412 1.478 . S
C414 C416 1.381 . S
C414 C420 1.383 . S
C415 C411 1.495 . S
C415 H421 0.959 . S
C415 H422 0.961 . S
C415 H423 0.960 . S
C416 C414 1.381 . S
C416 C417 1.394 . S
C416 H424 0.930 . S
C417 C416 1.394 . S
C417 C418 1.383 . S
C417 H425 0.929 . S
C418 C417 1.383 . S
C418 C419 1.377 . S
C419 H403 0.930 . S
C419 C418 1.377 . S
C419 C420 1.379 . S
C420 H404 0.931 . S
C420 C414 1.383 . S
C420 C419 1.379 . S
H421 C415 0.959 . S
H422 C415 0.961 . S
H423 C415 0.960 . S
H424 C416 0.930 . S
H425 C417 0.929 . S
H426 C434 0.929 . S
H427 C436 0.930 . S
H428 C438 0.930 . S
H429 C441 0.929 . S
H430 C444 0.930 . S
H431 C446 0.960 . S
H432 C446 0.960 . S
H433 C446 0.960 . S
C434 H426 0.929 . S
C434 C435 1.377 . S
C434 C436 1.384 . S
C435 C434 1.377 . S
C435 C441 1.390 . S
C436 H427 0.930 . S
C436 C434 1.384 . S
C436 C437 1.372 . S
C437 C436 1.372 . S
C437 C438 1.400 . S
C437 C442 1.490 . S
C438 H428 0.930 . S
C438 C437 1.400 . S
C438 C441 1.386 . S
H439 C455 0.930 . S
H440 C456 0.931 . S
C441 H429 0.929 . S
C441 C435 1.390 . S
C441 C438 1.386 . S
C442 C437 1.490 . S
C442 C444 1.395 . S
C442 C445 1.403 . S
H443 C449 0.930 . S
C444 H430 0.930 . S
C444 C442 1.395 . S
C444 C447 1.403 . S
C445 C442 1.403 . S
C445 C446 1.524 . S
C445 C449 1.400 . S
C446 H431 0.960 . S
C446 H432 0.960 . S
C446 H433 0.960 . S
C446 C445 1.524 . S
C447 C444 1.403 . S
C447 C448 1.392 . S
C447 C451 1.495 . S
C448 C447 1.392 . S
C448 C449 1.385 . S
C448 C450 1.478 . S
C449 H443 0.930 . S
C449 C445 1.400 . S
C449 C448 1.385 . S
C450 C448 1.478 . S
C450 C452 1.381 . S
C450 C456 1.383 . S
C451 C447 1.495 . S
C451 H457 0.959 . S
C451 H458 0.961 . S
C451 H459 0.960 . S
C452 C450 1.381 . S
C452 C453 1.394 . S
C452 H460 0.930 . S
C453 C452 1.394 . S
C453 C454 1.383 . S
C453 H461 0.929 . S
C454 C453 1.383 . S
C454 C455 1.377 . S
C455 H439 0.930 . S
C455 C454 1.377 . S
C455 C456 1.379 . S
C456 H440 0.931 . S
C456 C450 1.383 . S
C456 C455 1.379 . S
H457 C451 0.959 . S
H458 C451 0.961 . S
H459 C451 0.960 . S
H460 C452 0.930 . S
H461 C453 0.929 . S
H462 C470 0.929 . S
H463 C472 0.930 . S
H464 C474 0.930 . S
H465 C477 0.929 . S
H466 C480 0.930 . S
H467 C482 0.960 . S
H468 C482 0.960 . S
H469 C482 0.960 . S
C470 H462 0.929 . S
C470 C471 1.377 . S
C470 C472 1.384 . S
C471 C470 1.377 . S
C471 C477 1.390 . S
C472 H463 0.930 . S
C472 C470 1.384 . S
C472 C473 1.372 . S
C473 C472 1.372 . S
C473 C474 1.400 . S
C473 C478 1.490 . S
C474 H464 0.930 . S
C474 C473 1.400 . S
C474 C477 1.386 . S
H475 C491 0.930 . S
H476 C492 0.931 . S
C477 H465 0.929 . S
C477 C471 1.390 . S
C477 C474 1.386 . S
C478 C473 1.490 . S
C478 C480 1.395 . S
C478 C481 1.403 . S
H479 C485 0.930 . S
C480 H466 0.930 . S
C480 C478 1.395 . S
C480 C483 1.403 . S
C481 C478 1.403 . S
C481 C482 1.524 . S
C481 C485 1.400 . S
C482 H467 0.960 . S
C482 H468 0.960 . S
C482 H469 0.960 . S
C482 C481 1.524 . S
C483 C480 1.403 . S
C483 C484 1.392 . S
C483 C487 1.495 . S
C484 C483 1.392 . S
C484 C485 1.385 . S
C484 C486 1.478 . S
C485 H479 0.930 . S
C485 C481 1.400 . S
C485 C484 1.385 . S
C486 C484 1.478 . S
C486 C488 1.381 . S
C486 C492 1.383 . S
C487 C483 1.495 . S
C487 H493 0.959 . S
C487 H494 0.961 . S
C487 H495 0.960 . S
C488 C486 1.381 . S
C488 C489 1.394 . S
C488 H496 0.930 . S
C489 C488 1.394 . S
C489 C490 1.383 . S
C489 H497 0.929 . S
C490 C489 1.383 . S
C490 C491 1.377 . S
C491 H475 0.930 . S
C491 C490 1.377 . S
C491 C492 1.379 . S
C492 H476 0.931 . S
C492 C486 1.383 . S
C492 C491 1.379 . S
H493 C487 0.959 . S
H494 C487 0.961 . S
H495 C487 0.960 . S
H496 C488 0.930 . S
H497 C489 0.929 . S
H498 C506 0.929 . S
H499 C508 0.930 . S
H500 C510 0.930 . S
H501 C513 0.929 . S
H502 C516 0.930 . S
H503 C518 0.960 . S
H504 C518 0.960 . S
H505 C518 0.960 . S
C506 H498 0.929 . S
C506 C507 1.377 . S
C506 C508 1.384 . S
C507 C506 1.377 . S
C507 C513 1.390 . S
C508 H499 0.930 . S
C508 C506 1.384 . S
C508 C509 1.372 . S
C509 C508 1.372 . S
C509 C510 1.400 . S
C509 C514 1.490 . S
C510 H500 0.930 . S
C510 C509 1.400 . S
C510 C513 1.386 . S
H511 C527 0.930 . S
H512 C528 0.931 . S
C513 H501 0.929 . S
C513 C507 1.390 . S
C513 C510 1.386 . S
C514 C509 1.490 . S
C514 C516 1.395 . S
C514 C517 1.403 . S
H515 C521 0.930 . S
C516 H502 0.930 . S
C516 C514 1.395 . S
C516 C519 1.403 . S
C517 C514 1.403 . S
C517 C518 1.524 . S
C517 C521 1.400 . S
C518 H503 0.960 . S
C518 H504 0.960 . S
C518 H505 0.960 . S
C518 C517 1.524 . S
C519 C516 1.403 . S
C519 C520 1.392 . S
C519 C523 1.495 . S
C520 C519 1.392 . S
C520 C521 1.385 . S
C520 C522 1.478 . S
C521 H515 0.930 . S
C521 C517 1.400 . S
C521 C520 1.385 . S
C522 C520 1.478 . S
C522 C524 1.381 . S
C522 C528 1.383 . S
C523 C519 1.495 . S
C523 H529 0.959 . S
C523 H530 0.961 . S
C523 H531 0.960 . S
C524 C522 1.381 . S
C524 C525 1.394 . S
C524 H532 0.930 . S
C525 C524 1.394 . S
C525 C526 1.383 . S
C525 H533 0.929 . S
C526 C525 1.383 . S
C526 C527 1.377 . S
C527 H511 0.930 . S
C527 C526 1.377 . S
C527 C528 1.379 . S
C528 H512 0.931 . S
C528 C522 1.383 . S
C528 C527 1.379 . S
H529 C523 0.959 . S
H530 C523 0.961 . S
H531 C523 0.960 . S
H532 C524 0.930 . S
H533 C525 0.929 . S
H534 C542 0.929 . S
H535 C544 0.930 . S
H536 C546 0.930 . S
H537 C549 0.929 . S
H538 C552 0.930 . S
H539 C554 0.960 . S
H540 C554 0.960 . S
H541 C554 0.960 . S
C542 H534 0.929 . S
C542 C543 1.377 . S
C542 C544 1.384 . S
C543 C542 1.377 . S
C543 C549 1.390 . S
C544 H535 0.930 . S
C544 C542 1.384 . S
C544 C545 1.372 . S
C545 C544 1.372 . S
C545 C546 1.400 . S
C545 C550 1.490 . S
C546 H536 0.930 . S
C546 C545 1.400 . S
C546 C549 1.386 . S
H547 C563 0.930 . S
H548 C564 0.931 . S
C549 H537 0.929 . S
C549 C543 1.390 . S
C549 C546 1.386 . S
C550 C545 1.490 . S
C550 C552 1.395 . S
C550 C553 1.403 . S
H551 C557 0.930 . S
C552 H538 0.930 . S
C552 C550 1.395 . S
C552 C555 1.403 . S
C553 C550 1.403 . S
C553 C554 1.524 . S
C553 C557 1.400 . S
C554 H539 0.960 . S
C554 H540 0.960 . S
C554 H541 0.960 . S
C554 C553 1.524 . S
C555 C552 1.403 . S
C555 C556 1.392 . S
C555 C559 1.495 . S
C556 C555 1.392 . S
C556 C557 1.385 . S
C556 C558 1.478 . S
C557 H551 0.930 . S
C557 C553 1.400 . S
C557 C556 1.385 . S
C558 C556 1.478 . S
C558 C560 1.381 . S
C558 C564 1.383 . S
C559 C555 1.495 . S
C559 H565 0.959 . S
C559 H566 0.961 . S
C559 H567 0.960 . S
C560 C558 1.381 . S
C560 C561 1.394 . S
C560 H568 0.930 . S
C561 C560 1.394 . S
C561 C562 1.383 . S
C561 H569 0.929 . S
C562 C561 1.383 . S
C562 C563 1.377 . S
C563 H547 0.930 . S
C563 C562 1.377 . S
C563 C564 1.379 . S
C564 H548 0.931 . S
C564 C558 1.383 . S
C564 C563 1.379 . S
H565 C559 0.959 . S
H566 C559 0.961 . S
H567 C559 0.960 . S
H568 C560 0.930 . S
H569 C561 0.929 . S
H570 C578 0.929 . S
H571 C580 0.930 . S
H572 C582 0.930 . S
H573 C585 0.929 . S
H574 C588 0.930 . S
H575 C590 0.960 . S
H576 C590 0.960 . S
H577 C590 0.960 . S
C578 H570 0.929 . S
C578 C579 1.377 . S
C578 C580 1.384 . S
C579 C578 1.377 . S
C579 C585 1.390 . S
C580 H571 0.930 . S
C580 C578 1.384 . S
C580 C581 1.372 . S
C581 C580 1.372 . S
C581 C582 1.400 . S
C581 C586 1.490 . S
C582 H572 0.930 . S
C582 C581 1.400 . S
C582 C585 1.386 . S
H583 C599 0.930 . S
H584 C600 0.931 . S
C585 H573 0.929 . S
C585 C579 1.390 . S
C585 C582 1.386 . S
C586 C581 1.490 . S
C586 C588 1.395 . S
C586 C589 1.403 . S
H587 C593 0.930 . S
C588 H574 0.930 . S
C588 C586 1.395 . S
C588 C591 1.403 . S
C589 C586 1.403 . S
C589 C590 1.524 . S
C589 C593 1.400 . S
C590 H575 0.960 . S
C590 H576 0.960 . S
C590 H577 0.960 . S
C590 C589 1.524 . S
C591 C588 1.403 . S
C591 C592 1.392 . S
C591 C595 1.495 . S
C592 C591 1.392 . S
C592 C593 1.385 . S
C592 C594 1.478 . S
C593 H587 0.930 . S
C593 C589 1.400 . S
C593 C592 1.385 . S
C594 C592 1.478 . S
C594 C596 1.381 . S
C594 C600 1.383 . S
C595 C591 1.495 . S
C595 H601 0.959 . S
C595 H602 0.961 . S
C595 H603 0.960 . S
C596 C594 1.381 . S
C596 C597 1.394 . S
C596 H604 0.930 . S
C597 C596 1.394 . S
C597 C598 1.383 . S
C597 H605 0.929 . S
C598 C597 1.383 . S
C598 C599 1.377 . S
C599 H583 0.930 . S
C599 C598 1.377 . S
C599 C600 1.379 . S
C600 H584 0.931 . S
C600 C594 1.383 . S
C600 C599 1.379 . S
H601 C595 0.959 . S
H602 C595 0.961 . S
H603 C595 0.960 . S
H604 C596 0.930 . S
H605 C597 0.929 . S
H606 C614 0.929 . S
H607 C616 0.930 . S
H608 C618 0.928 . S
H609 C621 0.929 . S
H610 C624 0.930 . S
H611 C626 0.960 . S
H612 C626 0.960 . S
H613 C626 0.960 . S
C614 H606 0.929 . S
C614 C615 1.377 . S
C614 C616 1.384 . S
C615 C614 1.377 . S
C615 C621 1.390 . S
C616 H607 0.930 . S
C616 C614 1.384 . S
C616 C617 1.372 . S
C617 C616 1.372 . S
C617 C618 1.400 . S
C617 C622 1.490 . S
C618 H608 0.928 . S
C618 C617 1.400 . S
C618 C621 1.386 . S
H619 C635 0.930 . S
H620 C636 0.931 . S
C621 H609 0.929 . S
C621 C615 1.390 . S
C621 C618 1.386 . S
C622 C617 1.490 . S
C622 C624 1.395 . S
C622 C625 1.403 1_455 S
H623 C629 0.930 . S
C624 H610 0.930 . S
C624 C622 1.395 . S
C624 C627 1.403 . S
C625 C622 1.403 1_655 S
C625 C626 1.524 . S
C625 C629 1.400 . S
C626 H611 0.960 . S
C626 H612 0.960 . S
C626 H613 0.960 . S
C626 C625 1.524 . S
C627 C624 1.403 . S
C627 C628 1.392 . S
C627 C631 1.495 . S
C628 C627 1.392 . S
C628 C629 1.385 1_455 S
C628 C630 1.478 1_554 S
C629 H623 0.930 . S
C629 C625 1.400 . S
C629 C628 1.385 1_655 S
C630 C628 1.478 1_556 S
C630 C632 1.381 . S
C630 C636 1.383 . S
C631 C627 1.495 . S
C631 H637 0.959 . S
C631 H638 0.961 1_554 S
C631 H639 0.960 1_554 S
C632 C630 1.381 . S
C632 C633 1.394 . S
C632 H640 0.930 . S
C633 C632 1.394 . S
C633 C634 1.383 . S
C633 H641 0.929 . S
C634 C633 1.383 . S
C634 C635 1.377 . S
C635 H619 0.930 . S
C635 C634 1.377 . S
C635 C636 1.379 . S
C636 H620 0.931 . S
C636 C630 1.383 . S
C636 C635 1.379 . S
H637 C631 0.959 . S
H638 C631 0.961 1_556 S
H639 C631 0.960 1_556 S
H640 C632 0.930 . S
H641 C633 0.929 . S
H642 C650 0.929 . S
H643 C652 0.930 . S
H644 C654 0.930 . S
H645 C657 0.929 . S
H646 C660 0.930 . S
H647 C662 0.960 . S
H648 C662 0.960 . S
H649 C662 0.960 . S
C650 H642 0.929 . S
C650 C651 1.377 . S
C650 C652 1.384 . S
C651 C650 1.377 . S
C651 C657 1.390 . S
C652 H643 0.930 . S
C652 C650 1.384 . S
C652 C653 1.372 . S
C653 C652 1.372 . S
C653 C654 1.400 . S
C653 C658 1.490 . S
C654 H644 0.930 . S
C654 C653 1.400 . S
C654 C657 1.386 . S
H655 C671 0.930 . S
H656 C672 0.931 . S
C657 H645 0.929 . S
C657 C651 1.390 . S
C657 C654 1.386 . S
C658 C653 1.490 . S
C658 C660 1.395 . S
C658 C661 1.403 . S
H659 C665 0.930 1_565 S
C660 H646 0.930 . S
C660 C658 1.395 . S
C660 C663 1.403 . S
C661 C658 1.403 . S
C661 C662 1.524 1_545 S
C661 C665 1.400 . S
C662 H647 0.960 . S
C662 H648 0.960 . S
C662 H649 0.960 . S
C662 C661 1.524 1_565 S
C663 C660 1.403 . S
C663 C664 1.392 . S
C663 C667 1.495 . S
C664 C663 1.392 . S
C664 C665 1.385 . S
C664 C666 1.478 . S
C665 H659 0.930 1_545 S
C665 C661 1.400 . S
C665 C664 1.385 . S
C666 C664 1.478 . S
C666 C668 1.381 . S
C666 C672 1.383 . S
C667 C663 1.495 . S
C667 H673 0.959 . S
C667 H674 0.961 . S
C667 H675 0.960 . S
C668 C666 1.381 . S
C668 C669 1.394 . S
C668 H676 0.930 . S
C669 C668 1.394 . S
C669 C670 1.383 . S
C669 H677 0.929 . S
C670 C669 1.383 . S
C670 C671 1.377 . S
C671 H655 0.930 . S
C671 C670 1.377 . S
C671 C672 1.379 . S
C672 H656 0.931 . S
C672 C666 1.383 . S
C672 C671 1.379 . S
H673 C667 0.959 . S
H674 C667 0.961 . S
H675 C667 0.960 . S
H676 C668 0.930 . S
H677 C669 0.929 . S
H678 C686 0.929 . S
H679 C688 0.930 . S
H680 C690 0.930 . S
H681 C693 0.929 . S
H682 C696 0.930 . S
H683 C698 0.960 . S
H684 C698 0.960 . S
H685 C698 0.960 . S
C686 H678 0.929 . S
C686 C687 1.377 . S
C686 C688 1.384 . S
C687 C686 1.377 . S
C687 C693 1.390 . S
C688 H679 0.930 . S
C688 C686 1.384 . S
C688 C689 1.372 . S
C689 C688 1.372 . S
C689 C690 1.400 . S
C689 C694 1.490 . S
C690 H680 0.930 . S
C690 C689 1.400 . S
C690 C693 1.386 . S
H691 C707 0.930 . S
H692 C708 0.931 . S
C693 H681 0.929 . S
C693 C687 1.390 . S
C693 C690 1.386 . S
C694 C689 1.490 . S
C694 C696 1.395 . S
C694 C697 1.403 . S
H695 C701 0.930 . S
C696 H682 0.930 . S
C696 C694 1.395 . S
C696 C699 1.403 . S
C697 C694 1.403 . S
C697 C698 1.524 . S
C697 C701 1.400 . S
C698 H683 0.960 . S
C698 H684 0.960 . S
C698 H685 0.960 . S
C698 C697 1.524 . S
C699 C696 1.403 . S
C699 C700 1.392 . S
C699 C703 1.495 . S
C700 C699 1.392 . S
C700 C701 1.385 . S
C700 C702 1.478 . S
C701 H695 0.930 . S
C701 C697 1.400 . S
C701 C700 1.385 . S
C702 C700 1.478 . S
C702 C704 1.381 . S
C702 C708 1.383 . S
C703 C699 1.495 . S
C703 H709 0.959 . S
C703 H710 0.961 . S
C703 H711 0.960 . S
C704 C702 1.381 . S
C704 C705 1.394 . S
C704 H712 0.930 . S
C705 C704 1.394 . S
C705 C706 1.383 . S
C705 H713 0.929 . S
C706 C705 1.383 . S
C706 C707 1.377 . S
C707 H691 0.930 . S
C707 C706 1.377 . S
C707 C708 1.379 . S
C708 H692 0.931 . S
C708 C702 1.383 . S
C708 C707 1.379 . S
H709 C703 0.959 . S
H710 C703 0.961 . S
H711 C703 0.960 . S
H712 C704 0.930 . S
H713 C705 0.929 . S
H714 C722 0.929 1_565 S
H715 C724 0.930 . S
H716 C726 0.930 . S
H717 C729 0.929 . S
H718 C732 0.930 . S
H719 C734 0.960 . S
H720 C734 0.960 . S
H721 C734 0.960 . S
C722 H714 0.929 1_545 S
C722 C723 1.377 . S
C722 C724 1.384 1_545 S
C723 C722 1.377 . S
C723 C729 1.390 . S
C724 H715 0.930 . S
C724 C722 1.384 1_565 S
C724 C725 1.372 1_565 S
C725 C724 1.372 1_545 S
C725 C726 1.400 . S
C725 C730 1.490 . S
C726 H716 0.930 . S
C726 C725 1.400 . S
C726 C729 1.386 . S
H727 C743 0.930 . S
H728 C744 0.931 . S
C729 H717 0.929 . S
C729 C723 1.390 . S
C729 C726 1.386 . S
C730 C725 1.490 . S
C730 C732 1.395 1_545 S
C730 C733 1.403 . S
H731 C737 0.930 . S
C732 H718 0.930 . S
C732 C730 1.395 1_565 S
C732 C735 1.403 . S
C733 C730 1.403 . S
C733 C734 1.524 . S
C733 C737 1.400 . S
C734 H719 0.960 . S
C734 H720 0.960 . S
C734 H721 0.960 . S
C734 C733 1.524 . S
C735 C732 1.403 . S
C735 C736 1.392 1_565 S
C735 C739 1.495 . S
C736 C735 1.392 1_545 S
C736 C737 1.385 . S
C736 C738 1.478 . S
C737 H731 0.930 . S
C737 C733 1.400 . S
C737 C736 1.385 . S
C738 C736 1.478 . S
C738 C740 1.381 1_545 S
C738 C744 1.383 . S
C739 C735 1.495 . S
C739 H745 0.959 . S
C739 H746 0.961 . S
C739 H747 0.960 . S
C740 C738 1.381 1_565 S
C740 C741 1.394 . S
C740 H748 0.930 . S
C741 C740 1.394 . S
C741 C742 1.383 1_565 S
C741 H749 0.929 . S
C742 C741 1.383 1_545 S
C742 C743 1.378 . S
C743 H727 0.930 . S
C743 C742 1.378 . S
C743 C744 1.379 . S
C744 H728 0.931 . S
C744 C738 1.383 . S
C744 C743 1.379 . S
H745 C739 0.959 . S
H746 C739 0.961 . S
H747 C739 0.960 . S
H748 C740 0.930 . S
H749 C741 0.929 . S
H750 C758 0.929 . S
H751 C760 0.930 . S
H752 C762 0.930 . S
H753 C765 0.929 . S
H754 C768 0.930 . S
H755 C770 0.960 . S
H756 C770 0.960 . S
H757 C770 0.960 . S
C758 H750 0.929 . S
C758 C759 1.377 . S
C758 C760 1.384 . S
C759 C758 1.377 . S
C759 C765 1.390 . S
C760 H751 0.930 . S
C760 C758 1.384 . S
C760 C761 1.372 . S
C761 C760 1.372 . S
C761 C762 1.400 . S
C761 C766 1.490 . S
C762 H752 0.930 . S
C762 C761 1.400 . S
C762 C765 1.386 . S
H763 C779 0.930 . S
H764 C780 0.931 . S
C765 H753 0.929 . S
C765 C759 1.390 . S
C765 C762 1.386 . S
C766 C761 1.490 . S
C766 C768 1.395 . S
C766 C769 1.403 . S
H767 C773 0.930 . S
C768 H754 0.930 . S
C768 C766 1.395 . S
C768 C771 1.403 . S
C769 C766 1.403 . S
C769 C770 1.524 . S
C769 C773 1.400 . S
C770 H755 0.960 . S
C770 H756 0.960 . S
C770 H757 0.960 . S
C770 C769 1.524 . S
C771 C768 1.403 . S
C771 C772 1.392 . S
C771 C775 1.495 . S
C772 C771 1.392 . S
C772 C773 1.385 . S
C772 C774 1.478 1_556 S
C773 H767 0.930 . S
C773 C769 1.400 . S
C773 C772 1.385 . S
C774 C772 1.478 1_554 S
C774 C776 1.381 . S
C774 C780 1.383 . S
C775 C771 1.495 . S
C775 H781 0.959 . S
C775 H782 0.959 . S
C775 H783 0.960 1_556 S
C776 C774 1.381 . S
C776 C777 1.394 . S
C776 H784 0.930 . S
C777 C776 1.394 . S
C777 C778 1.383 . S
C777 H785 0.929 . S
C778 C777 1.383 . S
C778 C779 1.377 . S
C779 H763 0.930 . S
C779 C778 1.377 . S
C779 C780 1.379 . S
C780 H764 0.931 . S
C780 C774 1.383 . S
C780 C779 1.379 . S
H781 C775 0.959 . S
H782 C775 0.959 . S
H783 C775 0.960 1_554 S
H784 C776 0.930 . S
H785 C777 0.929 . S
H786 C794 0.929 . S
H787 C796 0.930 . S
H788 C798 0.930 . S
H789 C801 0.929 . S
H790 C804 0.930 . S
H791 C806 0.960 . S
H792 C806 0.954 1_455 S
H793 C806 0.965 . S
C794 H786 0.929 . S
C794 C795 1.377 . S
C794 C796 1.384 . S
C795 C794 1.377 . S
C795 C801 1.390 1_455 S
C796 H787 0.930 . S
C796 C794 1.384 . S
C796 C797 1.372 . S
C797 C796 1.372 . S
C797 C798 1.400 1_455 S
C797 C802 1.490 . S
C798 H788 0.930 . S
C798 C797 1.400 1_655 S
C798 C801 1.386 . S
H799 C815 0.930 . S
H800 C816 0.931 . S
C801 H789 0.929 . S
C801 C795 1.390 1_655 S
C801 C798 1.386 . S
C802 C797 1.490 . S
C802 C804 1.395 . S
C802 C805 1.403 . S
H803 C809 0.930 1_655 S
C804 H790 0.930 . S
C804 C802 1.395 . S
C804 C807 1.403 . S
C805 C802 1.403 . S
C805 C806 1.526 1_455 S
C805 C809 1.400 . S
C806 H791 0.960 . S
C806 H792 0.954 1_655 S
C806 H793 0.965 . S
C806 C805 1.526 1_655 S
C807 C804 1.403 . S
C807 C808 1.392 . S
C807 C811 1.495 . S
C808 C807 1.392 . S
C808 C809 1.385 . S
C808 C810 1.478 . S
C809 H803 0.930 1_455 S
C809 C805 1.400 . S
C809 C808 1.385 . S
C810 C808 1.478 . S
C810 C812 1.381 . S
C810 C816 1.383 1_455 S
C811 C807 1.495 . S
C811 H817 0.959 . S
C811 H818 0.961 . S
C811 H819 0.960 . S
C812 C810 1.381 . S
C812 C813 1.394 . S
C812 H820 0.930 . S
C813 C812 1.394 . S
C813 C814 1.383 . S
C813 H821 0.929 . S
C814 C813 1.383 . S
C814 C815 1.377 1_455 S
C815 H799 0.930 . S
C815 C814 1.377 1_655 S
C815 C816 1.379 . S
C816 H800 0.931 . S
C816 C810 1.383 1_655 S
C816 C815 1.379 . S
H817 C811 0.959 . S
H818 C811 0.961 . S
H819 C811 0.960 . S
H820 C812 0.930 . S
H821 C813 0.929 . S
C183 C9 0.423 . S
C202 C169 0.362 . S
C219 C49 0.310 . S
C238 C151 0.278 . S
C255 C89 0.299 . S
C274 C163 0.303 . S
C291 C26 0.433 . S
C310 C172 0.316 . S
C346 C154 0.346 . S
C327 C66 0.479 . S
C382 C160 0.382 . S
C363 C106 0.491 . S
C399 C43 2.802 . S
C418 C133 2.783 . S
C435 C83 2.916 . S
C454 C142 2.879 . S
C471 C22 2.966 . S
C490 C124 2.924 . S
C526 C136 2.918 . S
C507 C62 2.948 . S
C562 C145 2.794 . S
C543 C102 2.827 . S
C579 C3 2.784 . S
C598 C127 2.766 . S
C634 C143 1.786 . S
C615 C15 1.725 . S
C651 C55 1.737 . S
C670 C125 1.784 . S
C687 C95 1.738 . S
C706 C134 1.780 . S
C742 C161 1.068 . S
C723 C42 1.059 . S
C778 C170 1.074 . S
C759 C82 1.056 . S
C795 C2 1.050 . S
C814 C152 1.068 . S
