# Generated by pormake.
# Topology zzz, (3,6)-cn, num edge types: 1
# Building blocks:
#     Node 0, Type 0, BuildingBlock: CUQRIR_clean_linker_1, # of connection points: 3
#     Node 1, Type 0, BuildingBlock: CUQRIR_clean_linker_1, # of connection points: 3
#     Node 2, Type 0, BuildingBlock: CUQRIR_clean_linker_1, # of connection points: 3
#     Node 3, Type 0, BuildingBlock: CUQRIR_clean_linker_1, # of connection points: 3
#     Node 4, Type 0, BuildingBlock: CUQRIR_clean_linker_1, # of connection points: 3
#     Node 5, Type 0, BuildingBlock: CUQRIR_clean_linker_1, # of connection points: 3
#     Node 6, Type 0, BuildingBlock: CUQRIR_clean_linker_1, # of connection points: 3
#     Node 7, Type 0, BuildingBlock: CUQRIR_clean_linker_1, # of connection points: 3
#     Node 8, Type 1, BuildingBlock: BETGAK_clean_sbu_0, # of connection points: 6
#     Node 9, Type 1, BuildingBlock: BETGAK_clean_sbu_0, # of connection points: 6
#     Node 10, Type 1, BuildingBlock: BETGAK_clean_sbu_0, # of connection points: 6
#     Node 11, Type 1, BuildingBlock: BETGAK_clean_sbu_0, # of connection points: 6
#     Edge 12, Type (0, 1), BuildingBlock: XIVTED_clean_linker_0, # of connection points: 2
#     Edge 13, Type (0, 1), BuildingBlock: XIVTED_clean_linker_0, # of connection points: 2
#     Edge 14, Type (0, 1), BuildingBlock: XIVTED_clean_linker_0, # of connection points: 2
#     Edge 15, Type (0, 1), BuildingBlock: XIVTED_clean_linker_0, # of connection points: 2
#     Edge 16, Type (0, 1), BuildingBlock: XIVTED_clean_linker_0, # of connection points: 2
#     Edge 17, Type (0, 1), BuildingBlock: XIVTED_clean_linker_0, # of connection points: 2
#     Edge 18, Type (0, 1), BuildingBlock: XIVTED_clean_linker_0, # of connection points: 2
#     Edge 19, Type (0, 1), BuildingBlock: XIVTED_clean_linker_0, # of connection points: 2
#     Edge 20, Type (0, 1), BuildingBlock: XIVTED_clean_linker_0, # of connection points: 2
#     Edge 21, Type (0, 1), BuildingBlock: XIVTED_clean_linker_0, # of connection points: 2
#     Edge 22, Type (0, 1), BuildingBlock: XIVTED_clean_linker_0, # of connection points: 2
#     Edge 23, Type (0, 1), BuildingBlock: XIVTED_clean_linker_0, # of connection points: 2
#     Edge 24, Type (0, 1), BuildingBlock: XIVTED_clean_linker_0, # of connection points: 2
#     Edge 25, Type (0, 1), BuildingBlock: XIVTED_clean_linker_0, # of connection points: 2
#     Edge 26, Type (0, 1), BuildingBlock: XIVTED_clean_linker_0, # of connection points: 2
#     Edge 27, Type (0, 1), BuildingBlock: XIVTED_clean_linker_0, # of connection points: 2
#     Edge 28, Type (0, 1), BuildingBlock: XIVTED_clean_linker_0, # of connection points: 2
#     Edge 29, Type (0, 1), BuildingBlock: XIVTED_clean_linker_0, # of connection points: 2
#     Edge 30, Type (0, 1), BuildingBlock: XIVTED_clean_linker_0, # of connection points: 2
#     Edge 31, Type (0, 1), BuildingBlock: XIVTED_clean_linker_0, # of connection points: 2
#     Edge 32, Type (0, 1), BuildingBlock: XIVTED_clean_linker_0, # of connection points: 2
#     Edge 33, Type (0, 1), BuildingBlock: XIVTED_clean_linker_0, # of connection points: 2
#     Edge 34, Type (0, 1), BuildingBlock: XIVTED_clean_linker_0, # of connection points: 2
#     Edge 35, Type (0, 1), BuildingBlock: XIVTED_clean_linker_0, # of connection points: 2
# Relax obj value: 0.320
# Max RMSD: 0.199
# Mean RMSD: 0.159
data_MOF--net-zzz--node1-BETGAK_clean_sbu_0--node2-CUQRIR_clean_linker_1--edge1-XIVTED_clean_linker_0
_symmetry_space_group_name_H-M    P1
_symmetry_Int_Tables_number       1
_symmetry_cell_setting            triclinic
loop_
_symmetry_equiv_pos_as_xyz
'x, y, z'
_cell_length_a     49.120997
_cell_length_b     49.223311
_cell_length_c     12.187677
_cell_angle_alpha  90.10723
_cell_angle_beta   89.943201
_cell_angle_gamma 90.043868
loop_
_atom_site_label
_atom_site_type_symbol
_atom_site_fract_x
_atom_site_fract_y
_atom_site_fract_z
_atom_type_partial_charge
C0 C 0.74474 0.5294 0.45176 0.0
N1 N 0.76969 0.51713 0.44521 0.0
N2 N 0.72735 0.51946 0.37302 0.0
C3 C 0.73708 0.54983 0.53732 0.0
C4 C 0.74279 0.5013 0.3182 0.0
N5 N 0.76782 0.49976 0.36235 0.0
C6 C 0.73375 0.48592 0.21745 0.0
H7 H 0.73432 0.53922 0.61681 0.0
H8 H 0.71786 0.56034 0.51554 0.0
H9 H 0.75375 0.56483 0.54774 0.0
H10 H 0.72046 0.49879 0.16548 0.0
H11 H 0.7218 0.46791 0.24346 0.0
H12 H 0.75129 0.47882 0.16772 0.0
C13 C 1.00634 0.74335 0.44704 0.0
N14 N 1.0138 0.7699 0.43062 0.0
N15 N 1.01178 0.72772 0.35588 0.0
C16 C 0.99506 0.73259 0.55233 0.0
C17 C 0.02248 0.74577 0.28467 0.0
N18 N 0.0238 0.77075 0.32958 0.0
C19 C 0.03404 0.73851 0.17367 0.0
H20 H 1.01216 0.72866 0.60955 0.0
H21 H 0.9839 0.71328 0.5382 0.0
H22 H 0.98146 0.74786 0.59092 0.0
H23 H 0.02452 0.71984 0.14001 0.0
H24 H 0.05626 0.73506 0.1819 0.0
H25 H 0.03093 0.75526 0.11439 0.0
C26 C 0.79634 1.00614 0.46969 0.0
N27 N 0.76884 1.0085 0.45316 0.0
N28 N 0.81037 1.00739 0.37212 0.0
C29 C 0.80945 1.00451 0.58011 0.0
C30 C 0.79044 1.01061 0.29715 0.0
N31 N 0.76577 1.01123 0.34547 0.0
C32 C 0.79517 1.01464 0.17619 0.0
H33 H 0.81233 0.02541 0.61235 0.0
H34 H 0.82967 0.99456 0.57409 0.0
H35 H 0.79615 0.99327 0.63808 0.0
H36 H 0.81219 1.00166 0.14721 0.0
H37 H 0.80079 0.03615 0.16125 0.0
H38 H 0.77656 1.00984 0.12834 0.0
C39 C 0.53119 0.79333 0.44416 0.0
N40 N 0.52173 0.76735 0.43053 0.0
N41 N 0.5237 0.80962 0.35772 0.0
C42 C 0.54669 0.8029 0.54243 0.0
C43 C 0.50986 0.79249 0.29152 0.0
N44 N 0.50867 0.76743 0.33541 0.0
C45 C 0.49623 0.80066 0.1857 0.0
H46 H 0.53204 0.80741 0.60937 0.0
H47 H 0.55834 0.82164 0.52345 0.0
H48 H 0.56061 0.78669 0.57153 0.0
H49 H 0.50677 0.81813 0.14703 0.0
H50 H 0.47491 0.80662 0.20355 0.0
H51 H 0.4958 0.78364 0.12617 0.0
C52 C 0.29609 0.50868 0.112 0.0
N53 N 0.26911 0.51473 0.12739 0.0
N54 N 0.31081 0.51331 0.20598 0.0
C55 C 0.3085 0.50062 1.0047 0.0
C56 C 0.2919 0.52245 0.2774 0.0
N57 N 0.26717 0.52338 0.23013 0.0
C58 C 0.29801 0.53283 0.39125 0.0
H59 H 0.3139 0.47876 1.00743 0.0
H60 H 0.32759 0.51226 0.99138 0.0
H61 H 0.29421 0.50426 0.93585 0.0
H62 H 0.30282 0.55482 0.38659 0.0
H63 H 0.31573 0.52212 0.42724 0.0
H64 H 0.28023 0.53023 0.44635 0.0
C65 C 0.02896 0.29644 0.10099 0.0
N66 N 0.02931 0.26897 0.11945 0.0
N67 N 0.03108 0.31071 0.19755 0.0
C68 C 0.02477 0.30935 0.99129 0.0
C69 C 0.03243 0.29096 0.27393 0.0
N70 N 0.03094 0.2661 0.22771 0.0
C71 C 0.03263 0.29595 0.39587 0.0
H72 H 0.0424 0.32267 0.97256 0.0
H73 H 1.00638 0.32241 0.9943 0.0
H74 H 0.02245 0.29385 0.92569 0.0
H75 H 1.01163 0.30055 0.42386 0.0
H76 H 0.04569 0.31368 0.4159 0.0
H77 H 0.04009 0.2778 0.44058 0.0
C78 C 0.23869 0.02069 0.08855 0.0
N79 N 0.26591 0.02582 0.10375 0.0
N80 N 0.22351 0.02905 0.17734 0.0
C81 C 0.22706 1.00676 0.98991 0.0
C82 C 0.2425 0.03918 0.24618 0.0
N83 N 0.26777 0.03703 0.20305 0.0
C84 C 0.23652 0.04891 0.36105 0.0
H85 H 0.2195 0.02242 0.93213 0.0
H86 H 0.20959 0.99375 0.01389 0.0
H87 H 0.2428 0.99443 0.94753 0.0
H88 H 0.23053 0.0313 0.41251 0.0
H89 H 0.2192 0.06333 0.36024 0.0
H90 H 0.25441 0.05911 0.39844 0.0
C91 C 0.50529 0.24313 0.11689 0.0
N92 N 0.52104 0.26574 0.10077 0.0
N93 N 0.51935 0.22332 0.17221 0.0
C94 C 0.47627 0.24065 0.08113 0.0
C95 C 0.54387 0.23503 0.19023 0.0
N96 N 0.54482 0.26034 0.14764 0.0
C97 C 0.56621 0.22247 0.25831 0.0
H98 H 0.46293 0.24898 0.14655 0.0
H99 H 0.47082 0.21902 0.0675 0.0
H100 H 0.47279 0.25255 1.00516 0.0
H101 H 0.57407 0.20411 0.21623 0.0
H102 H 0.5579 0.21609 0.33899 0.0
H103 H 0.58364 0.23642 0.27127 0.0
La104 La 0.03948 1.0147 0.87385 0.0
La105 La 0.99532 0.0238 0.69232 0.0
C106 C 0.06024 1.01003 0.06068 0.0
C107 C 0.0734 0.98724 0.11657 0.0
C108 C 0.10171 0.9833 0.10741 0.0
C109 C 0.1131 0.95831 0.13508 0.0
C110 C 0.09626 0.93765 0.17421 0.0
C111 C 0.06862 0.94253 0.19452 0.0
C112 C 0.05724 0.96723 0.16624 0.0
C113 C 0.06388 0.02076 0.6774 0.0
C114 C 1.01707 0.96249 0.74352 0.0
C115 C 0.97144 0.02577 0.51076 0.0
C116 C 0.96621 0.04644 0.42853 0.0
C117 C 0.93912 0.05359 0.40596 0.0
C118 C 0.93346 0.07745 0.34947 0.0
C119 C 0.95492 0.09362 0.31223 0.0
C120 C 0.98201 0.08522 0.32711 0.0
C121 C 0.98766 0.06188 0.3858 0.0
C122 C 0.97146 1.01513 0.88801 0.0
C123 C 1.01874 0.07606 0.81855 0.0
O124 O 0.07335 0.01984 0.97598 0.0
O125 O 0.03418 1.00702 0.04071 0.0
O126 O 0.07598 1.01412 0.76804 0.0
O127 O 0.03875 0.02307 0.70289 0.0
O128 O 0.03295 0.97143 0.82536 0.0
O129 O 1.00162 0.97939 0.68546 0.0
O130 O 0.95959 0.03056 0.60485 0.0
O131 O 0.99667 1.01754 0.5223 0.0
O132 O 0.95878 0.02028 0.79784 0.0
O133 O 0.99649 1.01522 0.86244 0.0
O134 O 1.00427 0.06712 0.73258 0.0
O135 O 0.03241 0.05904 0.88301 0.0
H136 H 0.11468 0.99872 0.0715 0.0
H137 H 0.13449 0.95458 0.11959 0.0
H138 H 0.05543 0.92646 0.2243 0.0
H139 H 0.03546 0.9698 0.1759 0.0
H140 H 0.92239 0.04183 0.43927 0.0
H141 H 0.91255 0.08406 0.34046 0.0
H142 H 0.99889 0.09802 0.30219 0.0
H143 H 1.0087 0.05704 0.40378 0.0
La144 La 0.5188 0.03797 0.84429 0.0
La145 La 0.51606 0.99666 0.70853 0.0
C146 C 0.52573 0.07432 0.98797 0.0
C147 C 0.54336 0.07777 0.08228 0.0
C148 C 0.55582 0.10295 0.09968 0.0
C149 C 0.57709 0.10513 0.1743 0.0
C150 C 0.58614 0.08199 0.2308 0.0
C151 C 0.57152 0.05751 0.22138 0.0
C152 C 0.55037 0.05536 0.1469 0.0
C153 C 0.50233 0.05672 0.64791 0.0
C154 C 0.57475 1.01794 0.73731 0.0
C155 C 0.50885 0.96077 0.5629 0.0
C156 C 0.48939 0.95682 0.47402 0.0
C157 C 0.47054 0.93554 0.48149 0.0
C158 C 0.4466 0.93669 0.42105 0.0
C159 C 0.44143 0.95933 0.35449 0.0
C160 C 0.46252 0.97783 0.33235 0.0
C161 C 0.48641 0.97665 0.39235 0.0
C162 C 0.53231 0.97858 0.9069 0.0
C163 C 0.46054 1.0152 0.8204 0.0
O164 O 0.53806 0.07411 0.89334 0.0
O165 O 0.50792 0.05489 0.99546 0.0
O166 O 0.49152 0.06196 0.7414 0.0
O167 O 0.52086 0.03929 0.66495 0.0
O168 O 0.56375 0.02936 0.82593 0.0
O169 O 0.55827 1.00588 0.66825 0.0
O170 O 0.4987 0.95942 0.66167 0.0
O171 O 0.52519 0.98144 0.55269 0.0
O172 O 0.54309 0.97268 0.8139 0.0
O173 O 0.51367 0.99563 0.88765 0.0
O174 O 0.47114 1.0055 0.72775 0.0
O175 O 0.47755 0.02606 0.89082 0.0
H176 H 0.55037 0.1204 0.05033 0.0
H177 H 0.58782 0.12428 0.18126 0.0
H178 H 0.57813 0.03915 0.26229 0.0
H179 H 0.54094 0.03568 0.13423 0.0
H180 H 0.47295 0.91969 0.54228 0.0
H181 H 0.43084 0.92178 0.43684 0.0
H182 H 0.45933 0.99539 0.28052 0.0
H183 H 0.50105 0.99294 0.38265 0.0
La184 La 0.50066 0.52343 0.87402 0.0
La185 La 0.54129 0.51437 0.71306 0.0
C186 C 0.47784 0.53267 0.05387 0.0
C187 C 0.45602 0.55078 0.0866 0.0
C188 C 0.43937 0.56258 1.00646 0.0
C189 C 0.42524 0.5863 0.03028 0.0
C190 C 0.42853 0.59876 0.13304 0.0
C191 C 0.4419 0.58457 0.21752 0.0
C192 C 0.45571 0.56063 0.19399 0.0
C193 C 0.47249 0.51781 0.68754 0.0
C194 C 0.51996 0.57444 0.73124 0.0
C195 C 0.57375 0.50333 0.56016 0.0
C196 C 0.58172 0.48027 0.49276 0.0
C197 C 0.60872 0.47118 0.49833 0.0
C198 C 0.61657 0.44807 0.44112 0.0
C199 C 0.59759 0.43432 0.37615 0.0
C200 C 0.57083 0.44396 0.36708 0.0
C201 C 0.56284 0.4668 0.42569 0.0
C202 C 0.56147 0.53131 0.90462 0.0
C203 C 0.51817 0.4622 0.83859 0.0
O204 O 0.47083 0.51274 0.98865 0.0
O205 O 0.49998 0.54522 0.02112 0.0
O206 O 0.46239 0.52323 0.78242 0.0
O207 O 0.49821 0.51652 0.69699 0.0
O208 O 0.50842 0.56653 0.82467 0.0
O209 O 0.53161 0.55618 0.66739 0.0
O210 O 0.57989 0.50135 0.66398 0.0
O211 O 0.54938 0.51326 0.54468 0.0
O212 O 0.56711 0.54153 0.81001 0.0
O213 O 0.54327 0.51342 0.88978 0.0
O214 O 0.53178 0.47093 0.75101 0.0
O215 O 0.50595 0.47995 0.90283 0.0
H216 H 0.43938 0.55513 0.92293 0.0
H217 H 0.41469 0.59666 0.96448 0.0
H218 H 0.44487 0.59361 0.29771 0.0
H219 H 0.46848 0.55154 0.25645 0.0
H220 H 0.62351 0.48151 0.54949 0.0
H221 H 0.63719 0.44054 0.44956 0.0
H222 H 0.55579 0.43304 0.31912 0.0
H223 H 0.54184 0.47338 0.42064 0.0
La224 La 1.01408 0.49884 0.87958 0.0
La225 La 0.02522 0.53844 0.68507 0.0
C226 C 1.00725 0.47929 0.06657 0.0
C227 C 0.98915 0.4579 0.10441 0.0
C228 C 0.97796 0.43976 0.02777 0.0
C229 C 0.95405 0.42598 0.05234 0.0
C230 C 0.94109 0.43063 0.15299 0.0
C231 C 0.95448 0.44565 0.23511 0.0
C232 C 0.97846 0.45942 0.21046 0.0
C233 C 1.01755 0.47055 0.6905 0.0
C234 C 0.96341 0.51869 0.7371 0.0
C235 C 0.03086 0.55807 0.49745 0.0
C236 C 0.04829 0.57959 0.45612 0.0
C237 C 0.05972 0.59825 0.53002 0.0
C238 C 0.08359 0.61175 0.5025 0.0
C239 C 0.0964 0.60599 0.40234 0.0
C240 C 0.08243 0.59087 0.32205 0.0
C241 C 0.0584 0.57753 0.34935 0.0
C242 C 0.02108 0.5665 0.87455 0.0
C243 C 0.07602 0.51855 0.82707 0.0
O244 O 0.02669 0.47141 1.00003 0.0
O245 O 0.99456 0.50113 0.03169 0.0
O246 O 1.01165 0.46044 0.78548 0.0
O247 O 0.02048 0.49585 0.70692 0.0
O248 O 0.97139 0.50614 0.82851 0.0
O249 O 0.98116 0.53045 0.66985 0.0
O250 O 1.01182 0.56584 0.56594 0.0
O251 O 0.04415 0.53652 0.53174 0.0
O252 O 0.02734 0.5769 0.78035 0.0
O253 O 1.01858 0.54126 0.857 0.0
O254 O 0.06798 0.53095 0.73529 0.0
O255 O 0.05822 0.50691 0.89476 0.0
H256 H 0.98598 0.43834 0.94534 0.0
H257 H 0.94397 0.41451 0.98815 0.0
H258 H 0.9447 0.44972 0.31315 0.0
H259 H 0.98695 0.47341 0.27012 0.0
H260 H 0.05203 0.60014 0.61292 0.0
H261 H 0.09397 0.62352 0.56503 0.0
H262 H 0.09189 0.58608 0.24404 0.0
H263 H 0.04962 0.56323 0.29162 0.0
H264 H 0.18343 0.06678 0.18119 0.0
H265 H 0.09046 0.97737 0.58999 0.0
H266 H 0.19982 0.98342 0.25994 0.0
H267 H 0.07464 0.06174 0.5255 0.0
H268 H 0.12604 0.97764 0.44881 0.0
H269 H 0.14029 0.06396 0.28407 0.0
C270 C 0.17736 0.0475 0.21621 0.0
C271 C 0.19499 0.02504 0.20798 0.0
C272 C 0.11448 0.99602 0.4632 0.0
C273 C 0.14567 0.02182 0.33143 0.0
C274 C 0.09371 0.99578 0.54317 0.0
C275 C 0.07854 0.0193 0.56825 0.0
C276 C 0.12104 0.02021 0.40769 0.0
C277 C 0.08488 0.04281 0.50717 0.0
C278 C 0.15285 0.04599 0.27672 0.0
C279 C 0.18657 1.00097 0.26037 0.0
N280 N 0.10563 0.04271 0.4311 0.0
N281 N 0.16282 1.00006 0.31979 0.0
H282 H 0.47957 0.21338 0.32312 0.0
H283 H 0.53749 0.06401 0.46867 0.0
H284 H 0.54168 0.17383 0.1324 0.0
H285 H 0.46793 0.10001 0.62818 0.0
H286 H 0.53874 0.10306 0.34202 0.0
H287 H 0.47364 0.17127 0.42989 0.0
C288 C 0.49141 0.1956 0.30166 0.0
C289 C 0.51094 0.19718 0.21767 0.0
C290 C 0.52306 0.10223 0.4039 0.0
C291 C 0.50516 0.14886 0.34305 0.0
C292 C 0.52227 0.07981 0.4764 0.0
C293 C 0.5025 0.07841 0.56 0.0
C294 C 0.5041 0.12364 0.4145 0.0
C295 C 0.48357 0.09995 0.56556 0.0
C296 C 0.48835 0.17159 0.3637 0.0
C297 C 0.52631 0.17357 0.19606 0.0
N298 N 0.48495 0.12149 0.4951 0.0
N299 N 0.52336 0.15068 0.2586 0.0
H300 H 0.34206 0.46913 0.25047 0.0
H301 H 0.44416 0.56013 0.6017 0.0
H302 H 0.34448 0.5562 0.23047 0.0
H303 H 0.45987 0.47521 0.5471 0.0
H304 H 0.40875 0.55877 0.46023 0.0
H305 H 0.38596 0.46989 0.34926 0.0
C306 C 0.35244 0.48831 0.26264 0.0
C307 C 0.33987 0.51259 0.22928 0.0
C308 C 0.42021 0.54047 0.47716 0.0
C309 C 0.38954 0.51387 0.34806 0.0
C310 C 0.44065 0.54131 0.55769 0.0
C311 C 0.4556 0.51794 0.5849 0.0
C312 C 0.41373 0.51579 0.42466 0.0
C313 C 0.44939 0.4939 0.52718 0.0
C314 C 0.37732 0.48882 0.32063 0.0
C315 C 0.35374 0.53699 0.25192 0.0
N316 N 0.42878 0.49335 0.45118 0.0
N317 N 0.37738 0.53704 0.31088 0.0
H318 H 0.06926 0.35058 0.20678 0.0
H319 H 0.97787 0.43578 0.62799 0.0
H320 H 0.98461 0.33456 0.26631 0.0
H321 H 0.0562 0.465 0.52278 0.0
H322 H 0.97966 0.40049 0.48692 0.0
H323 H 0.06502 0.39376 0.30912 0.0
C324 C 0.04949 0.35677 0.23714 0.0
C325 C 0.02703 0.3393 0.22417 0.0
C326 C 0.99632 0.41484 0.49249 0.0
C327 C 0.0222 0.38823 0.34729 0.0
C328 C 0.9952 0.43527 0.57295 0.0
C329 C 1.01659 0.454 0.58645 0.0
C330 C 0.01944 0.41221 0.42514 0.0
C331 C 0.03888 0.45158 0.51407 0.0
C332 C 0.04714 0.38125 0.29721 0.0
C333 C 1.0022 0.34777 0.27066 0.0
N334 N 0.03988 0.43093 0.43787 0.0
N335 N 1.00056 0.37123 0.33063 0.0
H336 H 0.84477 0.96498 0.34148 0.0
H337 H 0.95073 0.05782 1.0031 0.0
H338 H 0.84049 0.05201 0.32626 0.0
H339 H 0.95545 0.97063 0.00976 0.0
H340 H 0.9144 0.05618 0.14095 0.0
H341 H 0.88868 0.9665 0.24306 0.0
C342 C 0.85369 0.98449 0.32162 0.0
C343 C 0.83932 1.00844 0.34609 0.0
C344 C 0.9239 0.03737 0.11548 0.0
C345 C 0.88928 1.01046 0.22791 0.0
C346 C 0.94502 0.03833 0.03732 0.0
C347 C 0.95713 1.01441 0.99704 0.0
C348 C 0.91421 1.0122 0.15422 0.0
C349 C 0.9476 0.98968 0.04096 0.0
C350 C 0.87859 0.98538 0.26364 0.0
C351 C 0.85126 0.03312 0.31281 0.0
N352 N 0.92676 0.98921 0.11613 0.0
N353 N 0.87522 0.03347 0.25529 0.0
H354 H 0.48552 0.84912 0.36304 0.0
H355 H 0.57395 0.94526 0.96605 0.0
H356 H 0.56942 0.83451 0.2833 0.0
H357 H 0.491 0.96359 0.05351 0.0
H358 H 0.57353 0.90731 0.09556 0.0
H359 H 0.48794 0.89311 0.26761 0.0
C360 C 0.50483 0.85578 0.32962 0.0
C361 C 0.52757 0.83839 0.33474 0.0
C362 C 0.55543 0.91969 0.08769 0.0
C363 C 0.53028 0.88852 0.21979 0.0
C364 C 0.55569 0.94154 0.01364 0.0
C365 C 0.53256 0.95794 0.99838 0.0
C366 C 0.5317 0.91353 0.14738 0.0
C367 C 0.50946 0.95181 0.06267 0.0
C368 C 0.50609 0.88073 0.27328 0.0
C369 C 0.55168 0.84753 0.2848 0.0
N370 N 0.50954 0.93004 0.13311 0.0
N371 N 0.55233 0.87167 0.22907 0.0
H372 H 0.68358 0.48675 0.39547 0.0
H373 H 0.59981 0.57003 0.94162 0.0
H374 H 0.70837 0.56444 0.27022 0.0
H375 H 0.57124 0.49403 0.07349 0.0
H376 H 0.63727 0.56978 0.07325 0.0
H377 H 0.6405 0.49061 0.29378 0.0
C378 C 0.67937 0.50521 0.35037 0.0
C379 C 0.69932 0.52572 0.34441 0.0
C380 C 0.62275 0.55323 0.0747 0.0
C381 C 0.65023 0.52989 0.22337 0.0
C382 C 0.60119 0.55338 0.99931 0.0
C383 C 0.58211 0.53208 0.99586 0.0
C384 C 0.62579 0.53146 0.14812 0.0
C385 C 0.58524 0.51102 0.07308 0.0
C386 C 0.65492 0.50723 0.29089 0.0
C387 C 0.69329 0.5486 0.28029 0.0
N388 N 0.60672 0.51113 0.1451 0.0
N389 N 0.66953 0.54995 0.22191 0.0
H390 H 0.05448 0.69337 0.35519 0.0
H391 H 0.97711 0.57593 0.0124 0.0
H392 H 0.96857 0.69687 0.29188 0.0
H393 H 0.06141 0.5969 0.96702 0.0
H394 H 0.97342 0.6121 0.15296 0.0
H395 H 0.05692 0.65001 0.25523 0.0
C396 C 0.03585 0.68428 0.32503 0.0
C397 C 1.01113 0.69853 0.33541 0.0
C398 C 0.99288 0.60835 0.114 0.0
C399 C 1.01384 0.64888 0.21623 0.0
C400 C 0.9951 0.5874 0.03474 0.0
C401 C 0.01982 0.58276 0.97918 0.0
C402 C 1.01563 0.62468 0.1395 0.0
C403 C 0.04211 0.59921 0.009 0.0
C404 C 0.03732 0.65976 0.26578 0.0
C405 C 0.98786 0.68628 0.28928 0.0
N406 N 0.03953 0.61918 0.08659 0.0
N407 N 0.98977 0.66237 0.23154 0.0
H408 H 0.05314 0.21651 0.24645 0.0
H409 H 0.9324 0.13226 0.44004 0.0
H410 H 0.98213 0.26411 0.32336 0.0
H411 H 0.97019 0.11884 0.12495 0.0
H412 H 0.9497 0.17894 0.43948 0.0
H413 H 0.02549 0.17513 0.26139 0.0
C414 C 0.03203 0.21799 0.27122 0.0
C415 C 0.01949 0.24322 0.28171 0.0
C416 C 0.95311 0.166 0.36874 0.0
C417 C 0.98829 0.19719 0.29819 0.0
C418 C 0.94285 0.1397 0.3677 0.0
C419 C 0.95045 0.12189 0.28299 0.0
C420 C 0.97095 0.17372 0.28517 0.0
C421 C 0.96429 0.13213 0.19181 0.0
C422 C 1.01628 0.19472 0.27799 0.0
C423 C 0.99218 0.24467 0.31482 0.0
N424 N 0.97515 0.15729 0.1971 0.0
N425 N 0.97709 0.22174 0.32039 0.0
H426 H 0.31428 0.06477 0.16777 0.0
H427 H 0.39976 0.9566 0.50118 0.0
H428 H 0.27627 1.00553 0.37766 0.0
H429 H 0.41993 0.98484 0.17519 0.0
H430 H 0.35797 0.98301 0.49486 0.0
H431 H 0.35903 0.04737 0.22296 0.0
C432 C 0.31554 0.04909 0.22974 0.0
C433 C 0.29204 0.03605 0.26693 0.0
C434 C 0.3716 0.98325 0.42491 0.0
C435 C 0.342 1.01606 0.32808 0.0
C436 C 0.39508 0.96768 0.42686 0.0
C437 C 0.41333 0.96846 0.33793 0.0
C438 C 0.3667 0.99992 0.3345 0.0
C439 C 0.40651 0.98385 0.24558 0.0
C440 C 0.34082 0.03894 0.2598 0.0
C441 C 0.29419 1.01587 0.34724 0.0
N442 N 0.38376 0.99927 0.24679 0.0
N443 N 0.31892 1.00593 0.37356 0.0
H444 H 0.5528 0.27816 0.35158 0.0
H445 H 0.59348 0.41802 0.1642 0.0
H446 H 0.57822 0.28927 0.01659 0.0
H447 H 0.61451 0.39058 0.48908 0.0
H448 H 0.59167 0.37073 0.1027 0.0
H449 H 0.57869 0.3184 0.40448 0.0
C450 C 0.56457 0.28886 0.29007 0.0
C451 C 0.56361 0.28089 0.18011 0.0
C452 C 0.5978 0.37511 0.18625 0.0
C453 C 0.59234 0.32688 0.23801 0.0
C454 C 0.59873 0.40195 0.22104 0.0
C455 C 0.6041 0.40774 0.33117 0.0
C456 C 0.60157 0.35434 0.26337 0.0
C457 C 0.61049 0.38661 0.40315 0.0
C458 C 0.57933 0.31165 0.31985 0.0
C459 C 0.57848 0.29532 0.10191 0.0
N460 N 0.60838 0.3606 0.36853 0.0
N461 N 0.59187 0.31821 0.13194 0.0
H462 H 0.23215 0.51098 0.3914 0.0
H463 H 0.12873 0.62216 0.23149 0.0
H464 H 0.25375 0.5723 0.15584 0.0
H465 H 0.13118 0.58831 0.55811 0.0
H466 H 0.17536 0.60633 0.20199 0.0
H467 H 0.19422 0.5396 0.45413 0.0
C468 C 0.22876 0.53063 0.35407 0.0
C469 C 0.24533 0.53963 0.26884 0.0
C470 C 0.16596 0.60335 0.2815 0.0
C471 C 0.20298 0.57209 0.33802 0.0
C472 C 0.13952 0.6125 0.29835 0.0
C473 C 0.12621 0.60654 0.39695 0.0
C474 C 0.17862 0.58782 0.36326 0.0
C475 C 0.1408 0.59362 0.4811 0.0
C476 C 0.20752 0.54699 0.38983 0.0
C477 C 0.24076 0.56499 0.22125 0.0
N478 N 0.16609 0.58405 0.46129 0.0
N479 N 0.21966 0.58039 0.25566 0.0
H480 H 1.01596 0.80339 0.15635 0.0
H481 H 0.11433 0.90933 0.3489 0.0
H482 H 0.07172 0.78375 0.41624 0.0
H483 H 0.09474 0.90283 1.00549 0.0
H484 H 0.10521 0.86092 0.37016 0.0
H485 H 0.0475 0.83871 0.09255 0.0
C486 C 0.03504 0.80663 0.19886 0.0
C487 C 0.04152 0.7915 0.29167 0.0
C488 C 0.10426 0.86973 0.28887 0.0
C489 C 0.07736 0.83086 0.22078 0.0
C490 C 0.10978 0.89722 0.27686 0.0
C491 C 0.10521 0.90959 0.17572 0.0
C492 C 0.09331 0.8553 0.19973 0.0
C493 C 0.09855 0.89357 0.0846 0.0
C494 C 0.05314 0.82628 0.16215 0.0
C495 C 0.06624 0.79578 0.34537 0.0
N496 N 0.09176 0.86721 0.09944 0.0
N497 N 0.08326 0.81549 0.31012 0.0
H498 H 0.7597 0.06135 0.26667 0.0
H499 H 0.60486 0.0548 0.41184 0.0
H500 H 0.71774 0.98591 0.32394 0.0
H501 H 0.63115 0.10537 0.14165 0.0
H502 H 0.65137 0.03762 0.42793 0.0
H503 H 0.71569 0.08449 0.24928 0.0
C504 C 0.74108 0.04962 0.27133 0.0
C505 C 0.74177 0.02199 0.29748 0.0
C506 C 0.64681 0.05299 0.36718 0.0
C507 C 0.69252 0.04807 0.28555 0.0
C508 C 0.62053 0.06299 0.35871 0.0
C509 C 0.61403 0.08089 0.27331 0.0
C510 C 0.66649 0.06169 0.29196 0.0
C511 C 0.63517 0.09146 0.20832 0.0
C512 C 0.71625 0.06279 0.26387 0.0
C513 C 0.71753 1.00737 0.30501 0.0
N514 N 0.66058 0.08129 0.21777 0.0
N515 N 0.69358 0.02079 0.30199 0.0
H516 H 0.46305 0.75016 0.43131 0.0
H517 H 0.44428 0.63568 0.98021 0.0
H518 H 0.51612 0.73704 0.15532 0.0
H519 H 0.41076 0.62938 0.30734 0.0
H520 H 0.45775 0.68197 0.01886 0.0
H521 H 0.43345 0.71327 0.36587 0.0
C522 C 0.46819 0.73937 0.35661 0.0
C523 C 0.49164 0.74605 0.29779 0.0
C524 C 0.44674 0.6707 0.08106 0.0
C525 C 0.45826 0.70509 0.22183 0.0
C526 C 0.43855 0.64436 0.05864 0.0
C527 C 0.42662 0.6285 0.14158 0.0
C528 C 0.4431 0.68108 0.18694 0.0
C529 C 0.42028 0.64085 0.24201 0.0
C530 C 0.45139 0.71871 0.31902 0.0
C531 C 0.49794 0.73213 0.20149 0.0
N532 N 0.42923 0.66636 0.26307 0.0
N533 N 0.48126 0.7121 0.16612 0.0
H534 H 0.8054 0.51961 0.22739 0.0
H535 H 0.91029 0.40919 0.31859 0.0
H536 H 0.77937 0.44733 0.39524 0.0
H537 H 0.90513 0.44953 1.00498 0.0
H538 H 0.86257 0.42102 0.35313 0.0
H539 H 0.8441 0.49444 0.15037 0.0
C540 C 0.80804 0.4983 0.24679 0.0
C541 C 0.79 0.48516 0.3171 0.0
C542 C 0.87169 0.42622 0.27497 0.0
C543 C 0.83313 0.45655 0.23116 0.0
C544 C 0.89873 0.41942 0.25531 0.0
C545 C 0.91143 0.42835 0.15912 0.0
C546 C 0.85794 0.44254 0.19899 0.0
C547 C 0.89592 0.442 0.07977 0.0
C548 C 0.82965 0.48394 0.20249 0.0
C549 C 0.79346 0.45771 0.34133 0.0
N550 N 0.87007 0.44938 0.10284 0.0
N551 N 0.8151 0.44418 0.29955 0.0
H552 H 0.983 0.24462 0.03964 0.0
H553 H 0.06024 0.10374 0.92183 0.0
H554 H 0.07008 0.23732 0.04117 0.0
H555 H 0.98054 0.11789 0.78682 0.0
H556 H 0.0624 0.15146 0.97911 0.0
H557 H 0.97972 0.19858 0.95807 0.0
C558 C 1.0015 0.23385 0.01871 0.0
C559 C 0.02697 0.24565 0.04384 0.0
C560 C 0.04444 0.14432 0.93645 0.0
C561 C 0.02333 0.19167 0.95543 0.0
C562 C 0.04313 0.11683 0.90345 0.0
C563 C 0.02026 0.10628 0.84756 0.0
C564 C 0.02245 0.16202 0.9168 0.0
C565 C 0.99881 0.1248 0.82784 0.0
C566 C 0.99961 0.20727 0.97351 0.0
C567 C 0.05009 0.22972 0.01992 0.0
N568 N 1.00031 0.15142 0.86313 0.0
N569 N 0.04773 0.20381 0.97895 0.0
H570 H 0.28496 0.05256 0.92225 0.0
H571 H 0.43664 0.02685 0.01888 0.0
H572 H 0.30373 0.98566 0.13504 0.0
H573 H 0.41402 1.00346 0.69034 0.0
H574 H 0.38846 0.02791 0.0696 0.0
H575 H 0.33111 0.04878 0.84077 0.0
C576 C 0.29834 0.03645 0.94934 0.0
C577 C 0.28981 0.01909 0.03485 0.0
C578 C 0.39399 0.02199 0.98718 0.0
C579 C 0.34373 1.01548 0.94471 0.0
C580 C 0.42171 0.02165 0.95696 0.0
C581 C 0.43014 1.01479 0.84944 0.0
C582 C 0.37369 1.0155 0.91056 0.0
C583 C 0.40901 1.0086 0.77435 0.0
C584 C 0.32489 0.0345 0.90344 0.0
C585 C 0.30889 0.99925 0.06853 0.0
N586 N 0.38198 1.00921 0.80599 0.0
N587 N 0.33481 0.99844 0.02576 0.0
H588 H 0.53343 0.28312 0.8953 0.0
H589 H 0.49322 0.4395 0.0191 0.0
H590 H 0.49698 0.3098 0.19713 0.0
H591 H 0.54005 0.41592 0.73522 0.0
H592 H 0.49137 0.39205 0.0767 0.0
H593 H 0.5325 0.3303 0.82725 0.0
C594 C 0.52433 0.29878 0.94583 0.0
C595 C 0.51447 0.29209 0.05101 0.0
C596 C 0.50204 0.39708 1.00165 0.0
C597 C 0.51401 0.34696 0.97447 0.0
C598 C 0.50313 0.42443 0.96802 0.0
C599 C 0.51685 0.43232 0.87113 0.0
C600 C 0.51461 0.37667 0.93852 0.0
C601 C 0.52918 0.41124 0.81012 0.0
C602 C 0.52417 0.32589 0.90754 0.0
C603 C 0.50403 0.31366 0.11448 0.0
N604 N 0.52775 0.38464 0.84454 0.0
N605 N 0.50407 0.33985 0.07554 0.0
H606 H 0.23005 0.47687 0.15101 0.0
H607 H 0.12051 0.54819 0.74599 0.0
H608 H 0.2508 0.5466 0.95701 0.0
H609 H 0.10081 0.48623 0.98252 0.0
H610 H 0.16854 0.54603 0.80589 0.0
H611 H 0.18404 0.47734 0.07263 0.0
C612 C 0.22523 0.49169 0.08843 0.0
C613 C 0.24499 0.51096 0.05775 0.0
C614 C 0.15372 0.53284 0.84441 0.0
C615 C 0.19104 0.51263 0.96961 0.0
C616 C 0.12614 0.53402 0.8099 0.0
C617 C 0.10604 0.51742 0.85871 0.0
C618 C 0.16174 0.51466 0.9279 0.0
C619 C 0.1151 0.49961 0.9419 0.0
C620 C 0.19867 0.4923 0.04483 0.0
C621 C 0.2368 0.53063 0.98019 0.0
N622 N 0.14189 0.49871 0.97299 0.0
N623 N 0.21065 0.53099 0.93932 0.0
H624 H 0.97941 0.81127 0.39173 0.0
H625 H 0.04757 0.91781 0.82054 0.0
H626 H 0.04266 0.78672 0.61315 0.0
H627 H 0.98458 0.93766 0.58815 0.0
H628 H 0.04567 0.87006 0.7566 0.0
H629 H 0.97998 0.85685 0.47332 0.0
C630 C 0.99283 0.81523 0.46036 0.0
C631 C 1.01018 0.79451 0.49782 0.0
C632 C 0.0322 0.88488 0.71996 0.0
C633 C 1.01204 0.84801 0.59061 0.0
C634 C 0.03324 0.91233 0.75676 0.0
C635 C 1.01621 0.93243 0.71069 0.0
C636 C 1.01393 0.87703 0.63603 0.0
C637 C 0.99824 0.92345 0.62743 0.0
C638 C 0.99348 0.84154 0.50628 0.0
C639 C 0.02814 0.80154 0.58395 0.0
N640 N 0.99766 0.8969 0.59358 0.0
N641 N 0.02866 0.82751 0.62683 0.0
H642 H 0.74485 0.05388 0.53994 0.0
H643 H 0.60282 0.97746 0.63197 0.0
H644 H 0.73742 0.96703 0.52834 0.0
H645 H 0.61696 0.05512 0.78468 0.0
H646 H 0.65104 0.97514 0.58144 0.0
H647 H 0.69861 0.05672 0.61988 0.0
C648 C 0.73402 0.0353 0.55871 0.0
C649 C 0.74586 1.01005 0.53086 0.0
C650 C 0.64382 0.99266 0.62673 0.0
C651 C 0.69159 1.01323 0.61735 0.0
C652 C 0.61604 0.99407 0.6558 0.0
C653 C 0.60531 1.01643 0.7144 0.0
C654 C 0.66168 1.01406 0.65313 0.0
C655 C 0.624 0.03726 0.74127 0.0
C656 C 0.70732 0.03696 0.60292 0.0
C657 C 0.72984 0.98683 0.55188 0.0
N658 N 0.65094 0.03573 0.7095 0.0
N659 N 0.70375 0.989 0.59181 0.0
H660 H 0.4973 0.7522 0.62406 0.0
H661 H 0.54794 0.59659 0.55761 0.0
H662 H 0.55266 0.72413 0.3757 0.0
H663 H 0.49474 0.6208 0.82167 0.0
H664 H 0.55018 0.64361 0.49636 0.0
H665 H 0.4968 0.70594 0.70428 0.0
C666 C 0.51014 0.7366 0.58877 0.0
C667 C 0.52589 0.74253 0.495 0.0
C668 C 0.53797 0.63887 0.56782 0.0
C669 C 0.52458 0.68881 0.58398 0.0
C670 C 0.53659 0.61171 0.60326 0.0
C671 C 0.52102 0.60411 0.69565 0.0
C672 C 0.52361 0.65939 0.62386 0.0
C673 C 0.50705 0.6253 0.75026 0.0
C674 C 0.50953 0.70999 0.63362 0.0
C675 C 0.54095 0.72089 0.4498 0.0
N676 N 0.50859 0.65174 0.71358 0.0
N677 N 0.53989 0.69535 0.49403 0.0
H678 H 0.79244 0.47996 0.58062 0.0
H679 H 0.93786 0.55523 0.60076 0.0
H680 H 0.80537 0.55986 0.44946 0.0
H681 H 0.92016 0.48483 0.79799 0.0
H682 H 0.89018 0.55657 0.54227 0.0
H683 H 0.83871 0.48071 0.65828 0.0
C684 C 0.80473 0.49808 0.57125 0.0
C685 C 0.79442 0.52027 0.51143 0.0
C686 C 0.89657 0.54084 0.59861 0.0
C687 C 0.84847 0.52093 0.59711 0.0
C688 C 0.92402 0.53997 0.6322 0.0
C689 C 0.93351 0.51987 0.70522 0.0
C690 C 0.87796 0.52117 0.63605 0.0
C691 C 0.91409 0.50085 0.74247 0.0
C692 C 0.83135 0.49839 0.61474 0.0
C693 C 0.81193 0.54269 0.49794 0.0
N694 N 0.88754 0.50183 0.70695 0.0
N695 N 0.83793 0.54237 0.53951 0.0
loop_
_geom_bond_atom_site_label_1
_geom_bond_atom_site_label_2
_geom_bond_distance
_geom_bond_site_symmetry_2
_ccdc_geom_bond_type
C0 N1 1.317 . S
C0 N2 1.348 . S
C0 C3 1.485 . S
N1 C0 1.317 . S
N1 N5 1.370 . S
N2 C0 1.348 . S
N2 C4 1.346 . S
C3 C0 1.485 . S
C3 H7 0.960 . S
C3 H8 0.961 . S
C3 H9 0.960 . S
C4 N2 1.346 . S
C4 N5 1.307 . S
C4 C6 1.486 . S
N5 N1 1.370 . S
N5 C4 1.307 . S
C6 C4 1.486 . S
C6 H10 0.960 . S
C6 H11 0.960 . S
C6 H12 0.959 . S
H7 C3 0.960 . S
H8 C3 0.961 . S
H9 C3 0.960 . S
H10 C6 0.960 . S
H11 C6 0.960 . S
H12 C6 0.959 . S
C13 N14 1.317 . S
C13 N15 1.350 . S
C13 C16 1.485 . S
N14 C13 1.317 . S
N14 N18 1.371 . S
N15 C13 1.350 . S
N15 C17 1.345 1_655 S
C16 C13 1.485 . S
C16 H20 0.960 1_655 S
C16 H21 0.961 . S
C16 H22 0.960 . S
C17 N15 1.345 1_455 S
C17 N18 1.307 1_455 S
C17 C19 1.486 . S
N18 N14 1.371 . S
N18 C17 1.307 1_655 S
C19 C17 1.486 . S
C19 H23 0.922 1_455 S
C19 H24 0.991 . S
C19 H25 0.967 . S
H20 C16 0.960 1_455 S
H21 C16 0.961 . S
H22 C16 0.960 . S
H23 C19 0.922 1_655 S
H24 C19 0.991 . S
H25 C19 0.967 . S
C26 N27 1.317 . S
C26 N28 1.350 . S
C26 C29 1.485 . S
N27 C26 1.317 . S
N27 N31 1.371 . S
N28 C26 1.350 . S
N28 C30 1.345 1_565 S
C29 C26 1.485 . S
C29 H33 0.960 1_565 S
C29 H34 0.961 . S
C29 H35 0.960 . S
C30 N28 1.345 1_545 S
C30 N31 1.307 1_545 S
C30 C32 1.486 . S
N31 N27 1.371 . S
N31 C30 1.307 1_565 S
C32 C30 1.486 . S
C32 H36 0.922 1_545 S
C32 H37 0.991 . S
C32 H38 0.967 . S
H33 C29 0.960 1_545 S
H34 C29 0.961 . S
H35 C29 0.960 . S
H36 C32 0.922 1_565 S
H37 C32 0.991 . S
H38 C32 0.967 . S
C39 N40 1.317 . S
C39 N41 1.348 . S
C39 C42 1.485 . S
N40 C39 1.317 . S
N40 N44 1.370 . S
N41 C39 1.348 . S
N41 C43 1.346 . S
C42 C39 1.485 . S
C42 H46 0.960 . S
C42 H47 0.961 . S
C42 H48 0.960 . S
C43 N41 1.346 . S
C43 N44 1.307 . S
C43 C45 1.486 . S
N44 N40 1.370 . S
N44 C43 1.307 . S
C45 C43 1.486 . S
C45 H49 0.960 . S
C45 H50 0.960 . S
C45 H51 0.959 . S
H46 C42 0.960 . S
H47 C42 0.961 . S
H48 C42 0.960 . S
H49 C45 0.960 . S
H50 C45 0.960 . S
H51 C45 0.959 . S
C52 N53 1.317 . S
C52 N54 1.348 1_556 S
C52 C55 1.485 . S
N53 C52 1.317 . S
N53 N57 1.370 1_556 S
N54 C52 1.348 1_554 S
N54 C56 1.346 . S
C55 C52 1.485 . S
C55 H59 0.960 . S
C55 H60 0.961 . S
C55 H61 0.960 . S
C56 N54 1.346 . S
C56 N57 1.307 . S
C56 C58 1.486 . S
N57 N53 1.370 1_554 S
N57 C56 1.307 . S
C58 C56 1.486 . S
C58 H62 0.960 . S
C58 H63 0.960 . S
C58 H64 0.959 . S
H59 C55 0.960 . S
H60 C55 0.961 . S
H61 C55 0.960 . S
H62 C58 0.960 . S
H63 C58 0.960 . S
H64 C58 0.959 . S
C65 N66 1.317 . S
C65 N67 1.350 1_556 S
C65 C68 1.485 . S
N66 C65 1.317 . S
N66 N70 1.370 1_556 S
N67 C65 1.350 1_554 S
N67 C69 1.345 1_655 S
C68 C65 1.485 . S
C68 H72 0.960 1_655 S
C68 H73 0.961 . S
C68 H74 0.960 . S
C69 N67 1.345 1_455 S
C69 N70 1.307 1_455 S
C69 C71 1.486 . S
N70 N66 1.370 1_554 S
N70 C69 1.307 1_655 S
C71 C69 1.486 . S
C71 H75 0.960 1_455 S
C71 H76 0.960 . S
C71 H77 0.959 . S
H72 C68 0.960 1_455 S
H73 C68 0.961 . S
H74 C68 0.960 . S
H75 C71 0.960 1_655 S
H76 C71 0.960 . S
H77 C71 0.959 . S
C78 N79 1.317 . S
C78 N80 1.350 1_556 S
C78 C81 1.485 . S
N79 C78 1.317 . S
N79 N83 1.370 1_556 S
N80 C78 1.350 1_554 S
N80 C82 1.345 1_565 S
C81 C78 1.485 . S
C81 H85 0.960 1_565 S
C81 H86 0.961 . S
C81 H87 0.960 . S
C82 N80 1.345 1_545 S
C82 N83 1.307 1_545 S
C82 C84 1.487 . S
N83 N79 1.370 1_554 S
N83 C82 1.307 1_565 S
C84 C82 1.487 . S
C84 H88 0.960 1_545 S
C84 H89 0.960 . S
C84 H90 0.959 . S
H85 C81 0.960 1_545 S
H86 C81 0.961 . S
H87 C81 0.960 . S
H88 C84 0.960 1_565 S
H89 C84 0.960 . S
H90 C84 0.959 . S
C91 N92 1.317 . S
C91 N93 1.348 1_556 S
C91 C94 1.485 . S
N92 C91 1.317 . S
N92 N96 1.370 1_556 S
N93 C91 1.348 1_554 S
N93 C95 1.346 . S
C94 C91 1.485 . S
C94 H98 0.960 . S
C94 H99 0.961 . S
C94 H100 0.960 . S
C95 N93 1.346 . S
C95 N96 1.307 . S
C95 C97 1.486 . S
N96 N92 1.370 1_554 S
N96 C95 1.307 . S
C97 C95 1.486 . S
C97 H101 0.960 . S
C97 H102 0.960 . S
C97 H103 0.959 . S
H98 C94 0.960 . S
H99 C94 0.961 . S
H100 C94 0.960 . S
H101 C97 0.960 . S
H102 C97 0.960 . S
H103 C97 0.959 . S
La104 C106 2.928 1_556 S
La104 O124 2.521 . S
La104 O125 2.629 . S
La104 O126 2.554 . S
La104 O127 2.757 1_565 S
La104 O128 2.470 . S
La104 O133 2.482 1_455 S
La104 O135 2.503 1_565 S
La105 C115 2.928 . S
La105 O127 2.482 1_655 S
La105 O129 2.503 1_545 S
La105 O130 2.521 . S
La105 O131 2.628 . S
La105 O132 2.554 . S
La105 O133 2.757 1_545 S
La105 O134 2.470 . S
C106 La104 2.928 1_554 S
C106 C107 1.503 . S
C106 O124 1.261 1_554 S
C106 O125 1.243 1_554 S
C107 C106 1.503 . S
C107 C108 1.394 . S
C107 C112 1.373 . S
C108 C107 1.394 . S
C108 C109 1.380 . S
C108 H136 0.930 . S
C109 C108 1.380 . S
C109 C110 1.376 . S
C109 H137 0.930 . S
C110 C109 1.376 . S
C110 C111 1.370 . S
C111 C110 1.370 . S
C111 C112 1.396 . S
C111 H138 0.929 1_455 S
C112 C107 1.373 . S
C112 C111 1.396 . S
C112 H139 0.929 1_455 S
C113 O126 1.240 . S
C113 O127 1.289 1_565 S
C114 O128 1.258 1_655 S
C114 O129 1.256 . S
C115 La105 2.928 . S
C115 C116 1.503 . S
C115 O130 1.261 . S
C115 O131 1.243 . S
C116 C115 1.503 . S
C116 C117 1.394 . S
C116 C121 1.373 . S
C117 C116 1.394 . S
C117 C118 1.380 . S
C117 H140 0.930 . S
C118 C117 1.380 . S
C118 C119 1.376 . S
C118 H141 0.930 . S
C119 C118 1.376 . S
C119 C120 1.370 . S
C120 C119 1.370 . S
C120 C121 1.396 . S
C120 H142 0.929 1_655 S
C121 C116 1.373 . S
C121 C120 1.396 . S
C121 H143 0.929 1_655 S
C122 O132 1.240 . S
C122 O133 1.289 1_545 S
C123 O134 1.258 1_455 S
C123 O135 1.256 . S
O124 La104 2.521 . S
O124 C106 1.261 1_556 S
O125 La104 2.629 . S
O125 C106 1.243 1_556 S
O126 La104 2.554 . S
O126 C113 1.240 . S
O127 La104 2.757 1_545 S
O127 La105 2.482 1_455 S
O127 C113 1.289 1_545 S
O128 La104 2.470 . S
O128 C114 1.258 1_455 S
O129 La105 2.503 1_565 S
O129 C114 1.256 . S
O130 La105 2.521 . S
O130 C115 1.261 . S
O131 La105 2.628 . S
O131 C115 1.243 . S
O132 La105 2.554 . S
O132 C122 1.240 . S
O133 La104 2.482 1_655 S
O133 La105 2.757 1_565 S
O133 C122 1.289 1_565 S
O134 La105 2.470 . S
O134 C123 1.258 1_655 S
O135 La104 2.503 1_545 S
O135 C123 1.256 . S
H136 C108 0.930 . S
H137 C109 0.930 . S
H138 C111 0.929 1_655 S
H139 C112 0.929 1_655 S
H140 C117 0.930 . S
H141 C118 0.930 . S
H142 C120 0.929 1_455 S
H143 C121 0.929 1_455 S
La144 C146 2.928 1_556 S
La144 O164 2.521 . S
La144 O165 2.625 1_556 S
La144 O166 2.554 . S
La144 O167 2.757 . S
La144 O168 2.470 . S
La144 O173 2.482 1_545 S
La144 O175 2.503 . S
La145 C155 2.928 . S
La145 O167 2.482 1_565 S
La145 O169 2.503 . S
La145 O170 2.521 . S
La145 O171 2.628 . S
La145 O172 2.554 . S
La145 O173 2.757 . S
La145 O174 2.470 . S
C146 La144 2.928 1_554 S
C146 C147 1.503 . S
C146 O164 1.261 1_554 S
C146 O165 1.244 . S
C147 C146 1.503 . S
C147 C148 1.394 . S
C147 C152 1.373 . S
C148 C147 1.394 . S
C148 C149 1.380 . S
C148 H176 0.930 . S
C149 C148 1.380 . S
C149 C150 1.376 . S
C149 H177 0.930 . S
C150 C149 1.376 . S
C150 C151 1.370 . S
C151 C150 1.370 . S
C151 C152 1.396 . S
C151 H178 0.929 1_545 S
C152 C147 1.373 . S
C152 C151 1.396 . S
C152 H179 0.929 1_545 S
C153 O166 1.240 . S
C153 O167 1.289 . S
C154 O168 1.258 1_565 S
C154 O169 1.256 . S
C155 La145 2.928 . S
C155 C156 1.503 . S
C155 O170 1.261 . S
C155 O171 1.243 . S
C156 C155 1.503 . S
C156 C157 1.394 . S
C156 C161 1.373 . S
C157 C156 1.394 . S
C157 C158 1.380 . S
C157 H180 0.930 . S
C158 C157 1.380 . S
C158 C159 1.376 . S
C158 H181 0.930 . S
C159 C158 1.376 . S
C159 C160 1.370 . S
C160 C159 1.370 . S
C160 C161 1.396 . S
C160 H182 0.929 1_565 S
C161 C156 1.373 . S
C161 C160 1.396 . S
C161 H183 0.929 1_565 S
C162 O172 1.240 . S
C162 O173 1.289 . S
C163 O174 1.258 1_545 S
C163 O175 1.256 . S
O164 La144 2.521 . S
O164 C146 1.261 1_556 S
O165 La144 2.625 1_554 S
O165 C146 1.244 . S
O166 La144 2.554 . S
O166 C153 1.240 . S
O167 La144 2.757 . S
O167 La145 2.482 1_545 S
O167 C153 1.289 . S
O168 La144 2.470 . S
O168 C154 1.258 1_545 S
O169 La145 2.503 . S
O169 C154 1.256 . S
O170 La145 2.521 . S
O170 C155 1.261 . S
O171 La145 2.628 . S
O171 C155 1.243 . S
O172 La145 2.554 . S
O172 C162 1.240 . S
O173 La144 2.482 1_565 S
O173 La145 2.757 . S
O173 C162 1.289 . S
O174 La145 2.470 . S
O174 C163 1.258 1_565 S
O175 La144 2.503 . S
O175 C163 1.256 . S
H176 C148 0.930 . S
H177 C149 0.930 . S
H178 C151 0.929 1_565 S
H179 C152 0.929 1_565 S
H180 C157 0.930 . S
H181 C158 0.930 . S
H182 C160 0.929 1_545 S
H183 C161 0.929 1_545 S
La184 C186 2.928 1_556 S
La184 O204 2.521 . S
La184 O205 2.628 1_556 S
La184 O206 2.554 . S
La184 O207 2.757 . S
La184 O208 2.470 . S
La184 O213 2.482 . S
La184 O215 2.503 . S
La185 C195 2.928 . S
La185 O207 2.482 . S
La185 O209 2.503 . S
La185 O210 2.521 . S
La185 O211 2.628 . S
La185 O212 2.554 . S
La185 O213 2.757 . S
La185 O214 2.470 . S
C186 La184 2.928 1_554 S
C186 C187 1.503 . S
C186 O204 1.261 1_554 S
C186 O205 1.243 . S
C187 C186 1.503 . S
C187 C188 1.394 . S
C187 C192 1.373 . S
C188 C187 1.394 . S
C188 C189 1.380 . S
C188 H216 0.930 . S
C189 C188 1.380 . S
C189 C190 1.376 . S
C189 H217 0.930 . S
C190 C189 1.376 . S
C190 C191 1.370 . S
C191 C190 1.370 . S
C191 C192 1.396 . S
C191 H218 0.929 . S
C192 C187 1.373 . S
C192 C191 1.396 . S
C192 H219 0.929 . S
C193 O206 1.240 . S
C193 O207 1.289 . S
C194 O208 1.258 . S
C194 O209 1.256 . S
C195 La185 2.928 . S
C195 C196 1.503 . S
C195 O210 1.261 . S
C195 O211 1.243 . S
C196 C195 1.503 . S
C196 C197 1.394 . S
C196 C201 1.373 . S
C197 C196 1.394 . S
C197 C198 1.380 . S
C197 H220 0.930 . S
C198 C197 1.380 . S
C198 C199 1.376 . S
C198 H221 0.930 . S
C199 C198 1.376 . S
C199 C200 1.370 . S
C200 C199 1.370 . S
C200 C201 1.396 . S
C200 H222 0.929 . S
C201 C196 1.373 . S
C201 C200 1.396 . S
C201 H223 0.929 . S
C202 O212 1.240 . S
C202 O213 1.289 . S
C203 O214 1.258 . S
C203 O215 1.256 . S
O204 La184 2.521 . S
O204 C186 1.261 1_556 S
O205 La184 2.628 1_554 S
O205 C186 1.243 . S
O206 La184 2.554 . S
O206 C193 1.240 . S
O207 La184 2.757 . S
O207 La185 2.482 . S
O207 C193 1.289 . S
O208 La184 2.470 . S
O208 C194 1.258 . S
O209 La185 2.503 . S
O209 C194 1.256 . S
O210 La185 2.521 . S
O210 C195 1.261 . S
O211 La185 2.628 . S
O211 C195 1.243 . S
O212 La185 2.554 . S
O212 C202 1.240 . S
O213 La184 2.482 . S
O213 La185 2.757 . S
O213 C202 1.289 . S
O214 La185 2.470 . S
O214 C203 1.258 . S
O215 La184 2.503 . S
O215 C203 1.256 . S
H216 C188 0.930 . S
H217 C189 0.930 . S
H218 C191 0.929 . S
H219 C192 0.929 . S
H220 C197 0.930 . S
H221 C198 0.930 . S
H222 C200 0.929 . S
H223 C201 0.929 . S
La224 C226 2.928 1_556 S
La224 O244 2.521 . S
La224 O245 2.626 1_556 S
La224 O246 2.554 . S
La224 O247 2.757 1_655 S
La224 O248 2.470 . S
La224 O253 2.482 . S
La224 O255 2.503 1_655 S
La225 C235 2.928 . S
La225 O247 2.482 . S
La225 O249 2.503 1_455 S
La225 O250 2.521 . S
La225 O251 2.628 . S
La225 O252 2.554 . S
La225 O253 2.757 1_455 S
La225 O254 2.470 . S
C226 La224 2.928 1_554 S
C226 C227 1.503 . S
C226 O244 1.261 1_554 S
C226 O245 1.243 . S
C227 C226 1.503 . S
C227 C228 1.394 . S
C227 C232 1.373 . S
C228 C227 1.394 . S
C228 C229 1.380 . S
C228 H256 0.930 . S
C229 C228 1.380 . S
C229 C230 1.376 . S
C229 H257 0.930 . S
C230 C229 1.376 . S
C230 C231 1.370 . S
C231 C230 1.370 . S
C231 C232 1.396 . S
C231 H258 0.929 . S
C232 C227 1.373 . S
C232 C231 1.396 . S
C232 H259 0.929 . S
C233 O246 1.255 . S
C233 O247 1.280 1_655 S
C234 O248 1.258 . S
C234 O249 1.256 . S
C235 La225 2.928 . S
C235 C236 1.503 . S
C235 O250 1.261 . S
C235 O251 1.243 . S
C236 C235 1.503 . S
C236 C237 1.394 . S
C236 C241 1.373 . S
C237 C236 1.394 . S
C237 C238 1.380 . S
C237 H260 0.930 . S
C238 C237 1.380 . S
C238 C239 1.376 . S
C238 H261 0.930 . S
C239 C238 1.376 . S
C239 C240 1.370 . S
C240 C239 1.370 . S
C240 C241 1.396 . S
C240 H262 0.929 . S
C241 C236 1.373 . S
C241 C240 1.396 . S
C241 H263 0.929 . S
C242 O252 1.260 . S
C242 O253 1.277 1_455 S
C243 O254 1.258 . S
C243 O255 1.256 . S
O244 La224 2.521 . S
O244 C226 1.261 1_556 S
O245 La224 2.626 1_554 S
O245 C226 1.243 . S
O246 La224 2.554 . S
O246 C233 1.255 . S
O247 La224 2.757 1_455 S
O247 La225 2.482 . S
O247 C233 1.280 1_455 S
O248 La224 2.470 . S
O248 C234 1.258 . S
O249 La225 2.503 1_655 S
O249 C234 1.256 . S
O250 La225 2.521 . S
O250 C235 1.261 . S
O251 La225 2.628 . S
O251 C235 1.243 . S
O252 La225 2.554 . S
O252 C242 1.260 . S
O253 La224 2.482 . S
O253 La225 2.757 1_655 S
O253 C242 1.277 1_655 S
O254 La225 2.470 . S
O254 C243 1.258 . S
O255 La224 2.503 1_455 S
O255 C243 1.256 . S
H256 C228 0.930 . S
H257 C229 0.930 . S
H258 C231 0.929 . S
H259 C232 0.929 . S
H260 C237 0.930 . S
H261 C238 0.930 . S
H262 C240 0.929 . S
H263 C241 0.929 . S
H264 C270 0.930 . S
H265 C274 0.930 . S
H266 C279 0.929 . S
H267 C277 0.929 . S
H268 C272 0.929 . S
H269 C278 0.929 . S
C270 H264 0.930 . S
C270 C271 1.397 . S
C270 C278 1.378 . S
C271 C270 1.397 . S
C271 C279 1.403 1_545 S
C272 H268 0.929 . S
C272 C274 1.378 . S
C272 C276 1.350 . S
C273 C276 1.462 1_545 S
C273 C278 1.350 . S
C273 N281 1.427 1_545 S
C274 H265 0.930 . S
C274 C272 1.378 . S
C274 C275 1.352 1_565 S
C275 C274 1.352 1_545 S
C275 C277 1.448 . S
C276 C272 1.350 . S
C276 C273 1.462 1_565 S
C276 N280 1.427 1_565 S
C277 H267 0.929 . S
C277 C275 1.448 . S
C277 N280 1.384 . S
C278 H269 0.929 . S
C278 C270 1.378 . S
C278 C273 1.350 . S
C279 H266 0.929 . S
C279 C271 1.403 1_565 S
C279 N281 1.384 . S
N280 C276 1.427 1_545 S
N280 C277 1.384 . S
N281 C273 1.427 1_565 S
N281 C279 1.384 . S
H282 C288 0.930 . S
H283 C292 0.930 . S
H284 C297 0.929 . S
H285 C295 0.929 . S
H286 C290 0.929 . S
H287 C296 0.929 . S
C288 H282 0.930 . S
C288 C289 1.367 . S
C288 C296 1.378 . S
C289 C288 1.367 . S
C289 C297 1.433 . S
C290 H286 0.929 . S
C290 C292 1.378 . S
C290 C294 1.350 . S
C291 C294 1.463 . S
C291 C296 1.350 . S
C291 N299 1.427 . S
C292 H283 0.930 . S
C292 C290 1.378 . S
C292 C293 1.367 . S
C293 C292 1.367 . S
C293 C295 1.433 . S
C294 C290 1.350 . S
C294 C291 1.463 . S
C294 N298 1.427 . S
C295 H285 0.929 . S
C295 C293 1.433 . S
C295 N298 1.384 . S
C296 H287 0.929 . S
C296 C288 1.378 . S
C296 C291 1.350 . S
C297 H284 0.929 . S
C297 C289 1.433 . S
C297 N299 1.384 . S
N298 C294 1.427 . S
N298 C295 1.384 . S
N299 C291 1.427 . S
N299 C297 1.384 . S
H300 C306 0.930 . S
H301 C310 0.930 . S
H302 C315 0.929 . S
H303 C313 0.929 . S
H304 C308 0.929 . S
H305 C314 0.929 . S
C306 H300 0.930 . S
C306 C307 1.367 . S
C306 C314 1.378 . S
C307 C306 1.367 . S
C307 C315 1.433 . S
C308 H304 0.929 . S
C308 C310 1.378 . S
C308 C312 1.350 . S
C309 C312 1.463 . S
C309 C314 1.350 . S
C309 N317 1.427 . S
C310 H301 0.930 . S
C310 C308 1.378 . S
C310 C311 1.367 . S
C311 C310 1.367 . S
C311 C313 1.433 . S
C312 C308 1.350 . S
C312 C309 1.463 . S
C312 N316 1.427 . S
C313 H303 0.929 . S
C313 C311 1.433 . S
C313 N316 1.384 . S
C314 H305 0.929 . S
C314 C306 1.378 . S
C314 C309 1.350 . S
C315 H302 0.929 . S
C315 C307 1.433 . S
C315 N317 1.384 . S
N316 C312 1.427 . S
N316 C313 1.384 . S
N317 C309 1.427 . S
N317 C315 1.384 . S
H318 C324 0.930 . S
H319 C328 0.930 . S
H320 C333 0.929 . S
H321 C331 0.929 . S
H322 C326 0.929 . S
H323 C332 0.929 . S
C324 H318 0.930 . S
C324 C325 1.379 . S
C324 C332 1.378 . S
C325 C324 1.379 . S
C325 C333 1.422 1_455 S
C326 H322 0.929 . S
C326 C328 1.378 . S
C326 C330 1.336 1_655 S
C327 C330 1.463 . S
C327 C332 1.350 . S
C327 N335 1.427 1_455 S
C328 H319 0.930 . S
C328 C326 1.378 . S
C328 C329 1.367 1_655 S
C329 C328 1.367 1_455 S
C329 C331 1.433 . S
C330 C326 1.336 1_455 S
C330 C327 1.463 . S
C330 N334 1.443 . S
C331 H321 0.929 . S
C331 C329 1.433 . S
C331 N334 1.384 . S
C332 H323 0.929 . S
C332 C324 1.378 . S
C332 C327 1.350 . S
C333 H320 0.929 . S
C333 C325 1.422 1_655 S
C333 N335 1.384 . S
N334 C330 1.443 . S
N334 C331 1.384 . S
N335 C327 1.427 1_655 S
N335 C333 1.384 . S
H336 C342 0.930 . S
H337 C346 0.930 1_556 S
H338 C351 0.929 . S
H339 C349 0.929 . S
H340 C344 0.929 . S
H341 C350 0.929 . S
C342 H336 0.930 . S
C342 C343 1.388 . S
C342 C350 1.378 . S
C343 C342 1.388 . S
C343 C351 1.412 1_565 S
C344 H340 0.929 . S
C344 C346 1.378 . S
C344 C348 1.359 . S
C345 C348 1.462 1_565 S
C345 C350 1.350 . S
C345 N353 1.427 1_565 S
C346 H337 0.930 1_554 S
C346 C344 1.378 . S
C346 C347 1.360 1_544 S
C347 C346 1.360 1_566 S
C347 C349 1.440 1_556 S
C348 C344 1.359 . S
C348 C345 1.462 1_545 S
C348 N352 1.418 1_545 S
C349 H339 0.929 . S
C349 C347 1.440 1_554 S
C349 N352 1.384 . S
C350 H341 0.929 . S
C350 C342 1.378 . S
C350 C345 1.350 . S
C351 H338 0.929 . S
C351 C343 1.412 1_545 S
C351 N353 1.384 . S
N352 C348 1.418 1_565 S
N352 C349 1.384 . S
N353 C345 1.427 1_545 S
N353 C351 1.384 . S
H354 C360 0.930 . S
H355 C364 0.930 . S
H356 C369 0.929 . S
H357 C367 0.929 . S
H358 C362 0.929 . S
H359 C368 0.929 . S
C360 H354 0.930 . S
C360 C361 1.367 . S
C360 C368 1.378 . S
C361 C360 1.367 . S
C361 C369 1.433 . S
C362 H358 0.929 . S
C362 C364 1.378 . S
C362 C366 1.350 . S
C363 C366 1.463 . S
C363 C368 1.350 . S
C363 N371 1.427 . S
C364 H355 0.930 . S
C364 C362 1.378 . S
C364 C365 1.367 1_554 S
C365 C364 1.367 1_556 S
C365 C367 1.433 . S
C366 C362 1.350 . S
C366 C363 1.463 . S
C366 N370 1.427 . S
C367 H357 0.929 . S
C367 C365 1.433 . S
C367 N370 1.384 1_556 S
C368 H359 0.929 . S
C368 C360 1.378 . S
C368 C363 1.350 . S
C369 H356 0.929 . S
C369 C361 1.433 . S
C369 N371 1.384 . S
N370 C366 1.427 . S
N370 C367 1.384 1_554 S
N371 C363 1.427 . S
N371 C369 1.384 . S
H372 C378 0.930 . S
H373 C382 0.930 . S
H374 C387 0.929 . S
H375 C385 0.929 . S
H376 C380 0.929 . S
H377 C386 0.929 . S
C378 H372 0.930 . S
C378 C379 1.367 . S
C378 C386 1.378 . S
C379 C378 1.367 . S
C379 C387 1.433 . S
C380 H376 0.929 . S
C380 C382 1.378 1_554 S
C380 C384 1.350 . S
C381 C384 1.463 . S
C381 C386 1.350 . S
C381 N389 1.427 . S
C382 H373 0.930 . S
C382 C380 1.378 1_556 S
C382 C383 1.367 . S
C383 C382 1.367 . S
C383 C385 1.433 1_556 S
C384 C380 1.350 . S
C384 C381 1.463 . S
C384 N388 1.427 . S
C385 H375 0.929 . S
C385 C383 1.433 1_554 S
C385 N388 1.384 . S
C386 H377 0.929 . S
C386 C378 1.378 . S
C386 C381 1.350 . S
C387 H374 0.929 . S
C387 C379 1.433 . S
C387 N389 1.384 . S
N388 C384 1.427 . S
N388 C385 1.384 . S
N389 C381 1.427 . S
N389 C387 1.384 . S
H390 C396 0.930 . S
H391 C400 0.930 . S
H392 C405 0.929 . S
H393 C403 0.929 . S
H394 C398 0.929 . S
H395 C404 0.929 . S
C396 H390 0.930 . S
C396 C397 1.368 . S
C396 C404 1.378 . S
C397 C396 1.368 . S
C397 C405 1.432 1_455 S
C398 H394 0.929 . S
C398 C400 1.378 . S
C398 C402 1.350 . S
C399 C402 1.463 . S
C399 C404 1.346 1_655 S
C399 N407 1.431 . S
C400 H391 0.930 . S
C400 C398 1.378 . S
C400 C401 1.367 1_554 S
C401 C400 1.367 1_556 S
C401 C403 1.433 1_655 S
C402 C398 1.350 . S
C402 C399 1.463 . S
C402 N406 1.427 1_655 S
C403 H393 0.929 . S
C403 C401 1.433 1_455 S
C403 N406 1.384 1_556 S
C404 H395 0.929 . S
C404 C396 1.378 . S
C404 C399 1.346 1_455 S
C405 H392 0.929 . S
C405 C397 1.432 1_655 S
C405 N407 1.384 . S
N406 C402 1.427 1_455 S
N406 C403 1.384 1_554 S
N407 C399 1.431 . S
N407 C405 1.384 . S
H408 C414 0.930 1_456 S
H409 C418 0.930 . S
H410 C423 0.930 . S
H411 C421 0.929 . S
H412 C416 0.929 . S
H413 C422 0.929 . S
C414 H408 0.930 1_654 S
C414 C415 1.367 1_655 S
C414 C422 1.378 . S
C415 C414 1.367 1_455 S
C415 C423 1.433 1_455 S
C416 H412 0.929 . S
C416 C418 1.378 . S
C416 C420 1.350 . S
C417 C420 1.463 . S
C417 C422 1.350 . S
C417 N425 1.427 . S
C418 H409 0.930 . S
C418 C416 1.378 . S
C418 C419 1.367 . S
C419 C418 1.367 . S
C419 C421 1.433 . S
C420 C416 1.350 . S
C420 C417 1.463 . S
C420 N424 1.427 . S
C421 H411 0.929 . S
C421 C419 1.433 . S
C421 N424 1.384 . S
C422 H413 0.929 . S
C422 C414 1.378 . S
C422 C417 1.350 . S
C423 H410 0.930 . S
C423 C415 1.433 1_655 S
C423 N425 1.384 . S
N424 C420 1.427 . S
N424 C421 1.384 . S
N425 C417 1.427 . S
N425 C423 1.384 . S
H426 C432 0.930 1_556 S
H427 C436 0.930 . S
H428 C441 0.929 . S
H429 C439 0.929 . S
H430 C434 0.929 . S
H431 C440 0.929 . S
C432 H426 0.930 1_554 S
C432 C433 1.367 . S
C432 C440 1.378 1_545 S
C433 C432 1.367 . S
C433 C441 1.433 1_545 S
C434 H430 0.929 . S
C434 C436 1.378 . S
C434 C438 1.350 . S
C435 C438 1.463 . S
C435 C440 1.350 . S
C435 N443 1.427 . S
C436 H427 0.930 . S
C436 C434 1.378 . S
C436 C437 1.367 . S
C437 C436 1.367 . S
C437 C439 1.433 . S
C438 C434 1.350 . S
C438 C435 1.463 . S
C438 N442 1.427 . S
C439 H429 0.929 . S
C439 C437 1.433 . S
C439 N442 1.384 . S
C440 H431 0.929 . S
C440 C432 1.378 1_565 S
C440 C435 1.350 . S
C441 H428 0.929 . S
C441 C433 1.433 1_565 S
C441 N443 1.384 . S
N442 C438 1.427 . S
N442 C439 1.384 . S
N443 C435 1.427 . S
N443 C441 1.384 . S
H444 C450 0.930 . S
H445 C454 0.930 . S
H446 C459 0.929 1_556 S
H447 C457 0.929 . S
H448 C452 0.929 . S
H449 C458 0.929 . S
C450 H444 0.930 . S
C450 C451 1.367 . S
C450 C458 1.378 . S
C451 C450 1.367 . S
C451 C459 1.433 . S
C452 H448 0.929 . S
C452 C454 1.378 . S
C452 C456 1.350 . S
C453 C456 1.463 . S
C453 C458 1.350 . S
C453 N461 1.427 . S
C454 H445 0.930 . S
C454 C452 1.378 . S
C454 C455 1.367 . S
C455 C454 1.367 . S
C455 C457 1.433 . S
C456 C452 1.350 . S
C456 C453 1.463 . S
C456 N460 1.427 . S
C457 H447 0.929 . S
C457 C455 1.433 . S
C457 N460 1.384 . S
C458 H449 0.929 . S
C458 C450 1.378 . S
C458 C453 1.350 . S
C459 H446 0.929 1_554 S
C459 C451 1.433 . S
C459 N461 1.384 . S
N460 C456 1.427 . S
N460 C457 1.384 . S
N461 C453 1.427 . S
N461 C459 1.384 . S
H462 C468 0.930 . S
H463 C472 0.930 . S
H464 C477 0.929 . S
H465 C475 0.929 . S
H466 C470 0.929 . S
H467 C476 0.929 . S
C468 H462 0.930 . S
C468 C469 1.367 . S
C468 C476 1.378 . S
C469 C468 1.367 . S
C469 C477 1.433 . S
C470 H466 0.929 . S
C470 C472 1.378 . S
C470 C474 1.350 . S
C471 C474 1.463 . S
C471 C476 1.350 . S
C471 N479 1.427 . S
C472 H463 0.930 . S
C472 C470 1.378 . S
C472 C473 1.367 . S
C473 C472 1.367 . S
C473 C475 1.433 . S
C474 C470 1.350 . S
C474 C471 1.463 . S
C474 N478 1.427 . S
C475 H465 0.929 . S
C475 C473 1.433 . S
C475 N478 1.384 . S
C476 H467 0.929 . S
C476 C468 1.378 . S
C476 C471 1.350 . S
C477 H464 0.929 . S
C477 C469 1.433 . S
C477 N479 1.384 . S
N478 C474 1.427 . S
N478 C475 1.384 . S
N479 C471 1.427 . S
N479 C477 1.384 . S
H480 C486 0.930 . S
H481 C490 0.930 . S
H482 C495 0.929 . S
H483 C493 0.929 . S
H484 C488 0.929 . S
H485 C494 0.936 . S
C486 H480 0.930 . S
C486 C487 1.367 . S
C486 C494 1.387 . S
C487 C486 1.367 . S
C487 C495 1.433 1_655 S
C488 H484 0.929 . S
C488 C490 1.378 . S
C488 C492 1.350 . S
C489 C492 1.463 . S
C489 C494 1.334 1_455 S
C489 N497 1.427 . S
C490 H481 0.930 . S
C490 C488 1.378 . S
C490 C491 1.367 . S
C491 C490 1.367 . S
C491 C493 1.433 . S
C492 C488 1.350 . S
C492 C489 1.463 . S
C492 N496 1.427 . S
C493 H483 0.929 . S
C493 C491 1.433 . S
C493 N496 1.384 . S
C494 H485 0.936 . S
C494 C486 1.387 . S
C494 C489 1.334 1_655 S
C495 H482 0.929 . S
C495 C487 1.433 1_455 S
C495 N497 1.384 . S
N496 C492 1.427 . S
N496 C493 1.384 . S
N497 C489 1.427 . S
N497 C495 1.384 . S
H498 C504 0.930 . S
H499 C508 0.930 . S
H500 C513 0.929 . S
H501 C511 0.929 . S
H502 C506 0.929 1_565 S
H503 C512 0.929 . S
C504 H498 0.930 . S
C504 C505 1.367 1_545 S
C504 C512 1.378 . S
C505 C504 1.367 1_565 S
C505 C513 1.433 . S
C506 H502 0.929 1_545 S
C506 C508 1.378 . S
C506 C510 1.350 . S
C507 C510 1.463 . S
C507 C512 1.350 . S
C507 N515 1.427 1_545 S
C508 H499 0.930 . S
C508 C506 1.378 . S
C508 C509 1.367 . S
C509 C508 1.367 . S
C509 C511 1.433 . S
C510 C506 1.350 . S
C510 C507 1.463 . S
C510 N514 1.427 . S
C511 H501 0.929 . S
C511 C509 1.433 . S
C511 N514 1.384 . S
C512 H503 0.929 . S
C512 C504 1.378 . S
C512 C507 1.350 . S
C513 H500 0.929 . S
C513 C505 1.433 . S
C513 N515 1.384 . S
N514 C510 1.427 . S
N514 C511 1.384 . S
N515 C507 1.427 1_565 S
N515 C513 1.384 . S
H516 C522 0.930 . S
H517 C526 0.930 . S
H518 C531 0.929 . S
H519 C529 0.929 . S
H520 C524 0.929 . S
H521 C530 0.929 . S
C522 H516 0.930 . S
C522 C523 1.367 . S
C522 C530 1.378 . S
C523 C522 1.367 . S
C523 C531 1.433 . S
C524 H520 0.929 . S
C524 C526 1.378 . S
C524 C528 1.350 . S
C525 C528 1.463 . S
C525 C530 1.350 . S
C525 N533 1.427 . S
C526 H517 0.930 . S
C526 C524 1.378 . S
C526 C527 1.367 . S
C527 C526 1.367 . S
C527 C529 1.433 . S
C528 C524 1.350 . S
C528 C525 1.463 . S
C528 N532 1.427 . S
C529 H519 0.929 . S
C529 C527 1.433 . S
C529 N532 1.384 . S
C530 H521 0.929 . S
C530 C522 1.378 . S
C530 C525 1.350 . S
C531 H518 0.929 . S
C531 C523 1.433 . S
C531 N533 1.384 . S
N532 C528 1.427 . S
N532 C529 1.384 . S
N533 C525 1.427 . S
N533 C531 1.384 . S
H534 C540 0.930 . S
H535 C544 0.930 . S
H536 C549 0.929 . S
H537 C547 0.929 . S
H538 C542 0.929 . S
H539 C548 0.929 . S
C540 H534 0.930 . S
C540 C541 1.367 . S
C540 C548 1.378 . S
C541 C540 1.367 . S
C541 C549 1.433 . S
C542 H538 0.929 . S
C542 C544 1.378 . S
C542 C546 1.350 . S
C543 C546 1.463 . S
C543 C548 1.350 . S
C543 N551 1.427 . S
C544 H535 0.930 . S
C544 C542 1.378 . S
C544 C545 1.367 . S
C545 C544 1.367 . S
C545 C547 1.433 . S
C546 C542 1.350 . S
C546 C543 1.463 . S
C546 N550 1.427 . S
C547 H537 0.929 . S
C547 C545 1.433 . S
C547 N550 1.384 . S
C548 H539 0.929 . S
C548 C540 1.378 . S
C548 C543 1.350 . S
C549 H536 0.929 . S
C549 C541 1.433 . S
C549 N551 1.384 . S
N550 C546 1.427 . S
N550 C547 1.384 . S
N551 C543 1.427 . S
N551 C549 1.384 . S
H552 C558 0.930 . S
H553 C562 0.930 . S
H554 C567 0.929 . S
H555 C565 0.929 . S
H556 C560 0.929 . S
H557 C566 0.929 . S
C558 H552 0.930 . S
C558 C559 1.367 1_655 S
C558 C566 1.378 . S
C559 C558 1.367 1_455 S
C559 C567 1.433 . S
C560 H556 0.929 . S
C560 C562 1.378 . S
C560 C564 1.350 . S
C561 C564 1.463 . S
C561 C566 1.350 1_455 S
C561 N569 1.427 . S
C562 H553 0.930 . S
C562 C560 1.378 . S
C562 C563 1.367 . S
C563 C562 1.367 . S
C563 C565 1.433 1_455 S
C564 C560 1.350 . S
C564 C561 1.463 . S
C564 N568 1.427 1_455 S
C565 H555 0.929 . S
C565 C563 1.433 1_655 S
C565 N568 1.384 . S
C566 H557 0.929 . S
C566 C558 1.378 . S
C566 C561 1.350 1_655 S
C567 H554 0.929 . S
C567 C559 1.433 . S
C567 N569 1.384 . S
N568 C564 1.427 1_655 S
N568 C565 1.384 . S
N569 C561 1.427 . S
N569 C567 1.384 . S
H570 C576 0.930 . S
H571 C580 0.939 1_554 S
H572 C585 0.929 . S
H573 C583 0.929 . S
H574 C578 0.929 1_564 S
H575 C584 0.929 . S
C576 H570 0.930 . S
C576 C577 1.367 . S
C576 C584 1.378 . S
C577 C576 1.367 . S
C577 C585 1.433 1_546 S
C578 H574 0.929 1_546 S
C578 C580 1.378 . S
C578 C582 1.350 . S
C579 C582 1.463 . S
C579 C584 1.350 . S
C579 N587 1.427 1_545 S
C580 H571 0.939 1_556 S
C580 C578 1.378 . S
C580 C581 1.367 . S
C581 C580 1.367 . S
C581 C583 1.433 . S
C582 C578 1.350 . S
C582 C579 1.463 . S
C582 N586 1.427 . S
C583 H573 0.929 . S
C583 C581 1.433 . S
C583 N586 1.384 . S
C584 H575 0.929 . S
C584 C576 1.378 . S
C584 C579 1.350 . S
C585 H572 0.929 . S
C585 C577 1.433 1_564 S
C585 N587 1.384 1_554 S
N586 C582 1.427 . S
N586 C583 1.384 . S
N587 C579 1.427 1_565 S
N587 C585 1.384 1_556 S
H588 C594 0.930 . S
H589 C598 0.930 1_554 S
H590 C603 0.929 . S
H591 C601 0.929 . S
H592 C596 0.929 1_554 S
H593 C602 0.929 . S
C594 H588 0.930 . S
C594 C595 1.367 . S
C594 C602 1.378 . S
C595 C594 1.367 . S
C595 C603 1.433 1_556 S
C596 H592 0.929 1_556 S
C596 C598 1.378 . S
C596 C600 1.350 . S
C597 C600 1.463 . S
C597 C602 1.350 . S
C597 N605 1.427 . S
C598 H589 0.930 1_556 S
C598 C596 1.378 . S
C598 C599 1.367 . S
C599 C598 1.367 . S
C599 C601 1.433 . S
C600 C596 1.350 . S
C600 C597 1.463 . S
C600 N604 1.427 . S
C601 H591 0.929 . S
C601 C599 1.433 . S
C601 N604 1.384 . S
C602 H593 0.929 . S
C602 C594 1.378 . S
C602 C597 1.350 . S
C603 H590 0.929 . S
C603 C595 1.433 1_554 S
C603 N605 1.384 1_554 S
N604 C600 1.427 . S
N604 C601 1.384 . S
N605 C597 1.427 . S
N605 C603 1.384 1_556 S
H606 C612 0.930 . S
H607 C616 0.930 . S
H608 C621 0.929 . S
H609 C619 0.929 . S
H610 C614 0.929 . S
H611 C620 0.929 . S
C612 H606 0.930 . S
C612 C613 1.367 . S
C612 C620 1.378 . S
C613 C612 1.367 . S
C613 C621 1.433 . S
C614 H610 0.929 . S
C614 C616 1.378 . S
C614 C618 1.350 . S
C615 C618 1.463 . S
C615 C620 1.350 . S
C615 N623 1.427 . S
C616 H607 0.930 . S
C616 C614 1.378 . S
C616 C617 1.367 . S
C617 C616 1.367 . S
C617 C619 1.433 . S
C618 C614 1.350 . S
C618 C615 1.463 . S
C618 N622 1.427 . S
C619 H609 0.929 . S
C619 C617 1.433 . S
C619 N622 1.384 . S
C620 H611 0.929 . S
C620 C612 1.378 . S
C620 C615 1.350 . S
C621 H608 0.929 . S
C621 C613 1.433 . S
C621 N623 1.384 . S
N622 C618 1.427 . S
N622 C619 1.384 . S
N623 C615 1.427 . S
N623 C621 1.384 . S
H624 C630 0.930 . S
H625 C634 0.930 1_455 S
H626 C639 0.929 . S
H627 C637 0.929 . S
H628 C632 0.931 . S
H629 C638 0.929 . S
C630 H624 0.930 . S
C630 C631 1.367 . S
C630 C638 1.378 . S
C631 C630 1.367 . S
C631 C639 1.433 1_655 S
C632 H628 0.931 . S
C632 C634 1.377 1_455 S
C632 C636 1.348 1_455 S
C633 C636 1.463 . S
C633 C638 1.350 . S
C633 N641 1.427 1_655 S
C634 H625 0.930 1_655 S
C634 C632 1.377 1_655 S
C634 C635 1.367 . S
C635 C634 1.367 . S
C635 C637 1.433 . S
C636 C632 1.348 1_655 S
C636 C633 1.463 . S
C636 N640 1.427 . S
C637 H627 0.929 . S
C637 C635 1.433 . S
C637 N640 1.384 . S
C638 H629 0.929 . S
C638 C630 1.378 . S
C638 C633 1.350 . S
C639 H626 0.929 . S
C639 C631 1.433 1_455 S
C639 N641 1.384 . S
N640 C636 1.427 . S
N640 C637 1.384 . S
N641 C633 1.427 1_455 S
N641 C639 1.384 . S
H642 C648 0.930 . S
H643 C652 0.930 . S
H644 C657 0.929 . S
H645 C655 0.929 . S
H646 C650 0.929 . S
H647 C656 0.929 . S
C648 H642 0.930 . S
C648 C649 1.367 1_545 S
C648 C656 1.378 . S
C649 C648 1.367 1_565 S
C649 C657 1.433 . S
C650 H646 0.929 . S
C650 C652 1.378 . S
C650 C654 1.350 . S
C651 C654 1.463 . S
C651 C656 1.350 1_565 S
C651 N659 1.427 . S
C652 H643 0.930 . S
C652 C650 1.378 . S
C652 C653 1.367 . S
C653 C652 1.367 . S
C653 C655 1.433 1_565 S
C654 C650 1.350 . S
C654 C651 1.463 . S
C654 N658 1.427 1_565 S
C655 H645 0.929 . S
C655 C653 1.433 1_545 S
C655 N658 1.384 . S
C656 H647 0.929 . S
C656 C648 1.378 . S
C656 C651 1.350 1_545 S
C657 H644 0.929 . S
C657 C649 1.433 . S
C657 N659 1.384 . S
N658 C654 1.427 1_545 S
N658 C655 1.384 . S
N659 C651 1.427 . S
N659 C657 1.384 . S
H660 C666 0.930 . S
H661 C670 0.930 . S
H662 C675 0.929 . S
H663 C673 0.929 . S
H664 C668 0.929 . S
H665 C674 0.929 . S
C666 H660 0.930 . S
C666 C667 1.367 . S
C666 C674 1.378 . S
C667 C666 1.367 . S
C667 C675 1.433 . S
C668 H664 0.929 . S
C668 C670 1.378 . S
C668 C672 1.350 . S
C669 C672 1.463 . S
C669 C674 1.350 . S
C669 N677 1.427 . S
C670 H661 0.930 . S
C670 C668 1.378 . S
C670 C671 1.367 . S
C671 C670 1.367 . S
C671 C673 1.433 . S
C672 C668 1.350 . S
C672 C669 1.463 . S
C672 N676 1.427 . S
C673 H663 0.929 . S
C673 C671 1.433 . S
C673 N676 1.384 . S
C674 H665 0.929 . S
C674 C666 1.378 . S
C674 C669 1.350 . S
C675 H662 0.929 . S
C675 C667 1.433 . S
C675 N677 1.384 . S
N676 C672 1.427 . S
N676 C673 1.384 . S
N677 C669 1.427 . S
N677 C675 1.384 . S
H678 C684 0.930 . S
H679 C688 0.930 . S
H680 C693 0.929 . S
H681 C691 0.929 . S
H682 C686 0.929 . S
H683 C692 0.929 . S
C684 H678 0.930 . S
C684 C685 1.367 . S
C684 C692 1.378 . S
C685 C684 1.367 . S
C685 C693 1.433 . S
C686 H682 0.929 . S
C686 C688 1.378 . S
C686 C690 1.350 . S
C687 C690 1.463 . S
C687 C692 1.350 . S
C687 N695 1.427 . S
C688 H679 0.930 . S
C688 C686 1.378 . S
C688 C689 1.367 . S
C689 C688 1.367 . S
C689 C691 1.433 . S
C690 C686 1.350 . S
C690 C687 1.463 . S
C690 N694 1.427 . S
C691 H681 0.929 . S
C691 C689 1.433 . S
C691 N694 1.384 . S
C692 H683 0.929 . S
C692 C684 1.378 . S
C692 C687 1.350 . S
C693 H680 0.929 . S
C693 C685 1.433 . S
C693 N695 1.384 . S
N694 C690 1.427 . S
N694 C691 1.384 . S
N695 C687 1.427 . S
N695 C693 1.384 . S
C271 N80 1.887 1_545 S
C275 C113 1.961 1_545 S
C293 C153 1.980 . S
C289 N93 1.892 . S
C311 C193 1.984 . S
C307 N54 1.912 . S
C329 C233 1.971 1_455 S
C325 N67 1.902 1_455 S
C347 C122 1.965 1_565 S
C343 N28 1.892 . S
C361 N41 1.893 . S
C365 C162 1.982 . S
C379 N2 1.913 . S
C383 C202 1.985 . S
C397 N15 1.894 1_455 S
C401 C242 1.976 1_655 S
C419 C119 0.481 . S
C415 N70 0.442 1_455 S
C437 C159 0.488 . S
C433 N83 0.457 1_545 S
C455 C199 0.496 . S
C451 N96 0.455 . S
C469 N57 0.458 . S
C473 C239 0.502 . S
C487 N18 0.447 . S
C491 C110 0.495 . S
C509 C150 0.469 . S
C505 N31 0.434 . S
C527 C190 0.478 . S
C523 N44 0.446 . S
C541 N5 0.453 . S
C545 C230 0.510 . S
C559 N66 2.200 1_455 S
C563 C123 2.269 . S
C577 N79 2.175 1_545 S
C581 C163 2.236 . S
C599 C203 2.223 . S
C595 N92 2.164 . S
C617 C243 2.252 . S
C613 N53 2.181 . S
C631 N14 2.186 . S
C635 C114 2.276 . S
C653 C154 2.243 . S
C649 N27 2.161 . S
C671 C194 2.223 . S
C667 N40 2.152 . S
C685 N1 2.172 . S
C689 C234 2.264 . S
