# Generated by pormake.
# Topology ctn, (3,4)-cn, num edge types: 1
# Building blocks:
#     Node 0, Type 0, BuildingBlock: BELTOD_clean_linker_0, # of connection points: 3
#     Node 1, Type 0, BuildingBlock: BELTOD_clean_linker_0, # of connection points: 3
#     Node 2, Type 0, BuildingBlock: BELTOD_clean_linker_0, # of connection points: 3
#     Node 3, Type 0, BuildingBlock: BELTOD_clean_linker_0, # of connection points: 3
#     Node 4, Type 0, BuildingBlock: BELTOD_clean_linker_0, # of connection points: 3
#     Node 5, Type 0, BuildingBlock: BELTOD_clean_linker_0, # of connection points: 3
#     Node 6, Type 0, BuildingBlock: BELTOD_clean_linker_0, # of connection points: 3
#     Node 7, Type 0, BuildingBlock: BELTOD_clean_linker_0, # of connection points: 3
#     Node 8, Type 0, BuildingBlock: BELTOD_clean_linker_0, # of connection points: 3
#     Node 9, Type 0, BuildingBlock: BELTOD_clean_linker_0, # of connection points: 3
#     Node 10, Type 0, BuildingBlock: BELTOD_clean_linker_0, # of connection points: 3
#     Node 11, Type 0, BuildingBlock: BELTOD_clean_linker_0, # of connection points: 3
#     Node 12, Type 0, BuildingBlock: BELTOD_clean_linker_0, # of connection points: 3
#     Node 13, Type 0, BuildingBlock: BELTOD_clean_linker_0, # of connection points: 3
#     Node 14, Type 0, BuildingBlock: BELTOD_clean_linker_0, # of connection points: 3
#     Node 15, Type 0, BuildingBlock: BELTOD_clean_linker_0, # of connection points: 3
#     Node 16, Type 1, BuildingBlock: AZAVOO_clean_sbu_0, # of connection points: 4
#     Node 17, Type 1, BuildingBlock: AZAVOO_clean_sbu_0, # of connection points: 4
#     Node 18, Type 1, BuildingBlock: AZAVOO_clean_sbu_0, # of connection points: 4
#     Node 19, Type 1, BuildingBlock: AZAVOO_clean_sbu_0, # of connection points: 4
#     Node 20, Type 1, BuildingBlock: AZAVOO_clean_sbu_0, # of connection points: 4
#     Node 21, Type 1, BuildingBlock: AZAVOO_clean_sbu_0, # of connection points: 4
#     Node 22, Type 1, BuildingBlock: AZAVOO_clean_sbu_0, # of connection points: 4
#     Node 23, Type 1, BuildingBlock: AZAVOO_clean_sbu_0, # of connection points: 4
#     Node 24, Type 1, BuildingBlock: AZAVOO_clean_sbu_0, # of connection points: 4
#     Node 25, Type 1, BuildingBlock: AZAVOO_clean_sbu_0, # of connection points: 4
#     Node 26, Type 1, BuildingBlock: AZAVOO_clean_sbu_0, # of connection points: 4
#     Node 27, Type 1, BuildingBlock: AZAVOO_clean_sbu_0, # of connection points: 4
#     Edge 28, Type (0, 1), None
#     Edge 29, Type (0, 1), None
#     Edge 30, Type (0, 1), None
#     Edge 31, Type (0, 1), None
#     Edge 32, Type (0, 1), None
#     Edge 33, Type (0, 1), None
#     Edge 34, Type (0, 1), None
#     Edge 35, Type (0, 1), None
#     Edge 36, Type (0, 1), None
#     Edge 37, Type (0, 1), None
#     Edge 38, Type (0, 1), None
#     Edge 39, Type (0, 1), None
#     Edge 40, Type (0, 1), None
#     Edge 41, Type (0, 1), None
#     Edge 42, Type (0, 1), None
#     Edge 43, Type (0, 1), None
#     Edge 44, Type (0, 1), None
#     Edge 45, Type (0, 1), None
#     Edge 46, Type (0, 1), None
#     Edge 47, Type (0, 1), None
#     Edge 48, Type (0, 1), None
#     Edge 49, Type (0, 1), None
#     Edge 50, Type (0, 1), None
#     Edge 51, Type (0, 1), None
#     Edge 52, Type (0, 1), None
#     Edge 53, Type (0, 1), None
#     Edge 54, Type (0, 1), None
#     Edge 55, Type (0, 1), None
#     Edge 56, Type (0, 1), None
#     Edge 57, Type (0, 1), None
#     Edge 58, Type (0, 1), None
#     Edge 59, Type (0, 1), None
#     Edge 60, Type (0, 1), None
#     Edge 61, Type (0, 1), None
#     Edge 62, Type (0, 1), None
#     Edge 63, Type (0, 1), None
#     Edge 64, Type (0, 1), None
#     Edge 65, Type (0, 1), None
#     Edge 66, Type (0, 1), None
#     Edge 67, Type (0, 1), None
#     Edge 68, Type (0, 1), None
#     Edge 69, Type (0, 1), None
#     Edge 70, Type (0, 1), None
#     Edge 71, Type (0, 1), None
#     Edge 72, Type (0, 1), None
#     Edge 73, Type (0, 1), None
#     Edge 74, Type (0, 1), None
#     Edge 75, Type (0, 1), None
# Relax obj value: 0.003
# Max RMSD: 0.039
# Mean RMSD: 0.025
data_MOF--net-ctn--node1-AZAVOO_clean_sbu_0--node2-BELTOD_clean_linker_0--edge1-none
_symmetry_space_group_name_H-M    P1
_symmetry_Int_Tables_number       1
_symmetry_cell_setting            triclinic
loop_
_symmetry_equiv_pos_as_xyz
'x, y, z'
_cell_length_a     30.724789
_cell_length_b     32.138028
_cell_length_c     31.669419
_cell_angle_alpha  89.025711
_cell_angle_beta   94.867366
_cell_angle_gamma 95.154745
loop_
_atom_site_label
_atom_site_type_symbol
_atom_site_fract_x
_atom_site_fract_y
_atom_site_fract_z
_atom_type_partial_charge
P0 P 0.08626 0.05462 0.03717 0.0
H1 H 0.08044 -0.00019 0.11046 0.0
H2 H 0.02466 0.98775 0.16066 0.0
H3 H 0.93577 0.0557 0.07838 0.0
H4 H 0.99111 0.06575 0.02722 0.0
H5 H 0.17324 0.04189 0.01277 0.0
H6 H 0.20528 0.97891 0.99298 0.0
H7 H 0.07603 0.91267 0.98101 0.0
H8 H 0.04442 0.97578 0.00114 0.0
H9 H 0.04951 0.12976 0.05921 0.0
H10 H 0.0965 0.07978 0.94777 0.0
O11 O 0.12622 0.07171 0.07339 0.0
H12 H 0.03747 0.19475 0.02172 0.0
H13 H 0.08577 0.14596 0.90991 0.0
C14 C 0.0406 0.03527 0.06617 0.0
C15 C 0.04848 0.01098 0.10262 0.0
C16 C 0.01644 0.00407 0.13126 0.0
C17 C 0.97627 0.02192 0.12401 0.0
C18 C 0.96673 0.04226 0.08516 0.0
C19 C 0.99856 0.04835 0.05607 0.0
C20 C 0.10667 0.01309 0.00941 0.0
C21 C 0.15172 0.01408 0.00481 0.0
C22 C 0.17001 0.978 0.99355 0.0
C23 C 0.14336 0.94046 0.98648 0.0
C24 C 0.09759 0.9409 0.98681 0.0
C25 C 0.07939 0.97701 -0.00172 0.0
C26 C 0.07313 0.09975 0.00604 0.0
C27 C 0.05639 0.13254 0.02624 0.0
C28 C 0.04951 0.16978 0.00471 0.0
C29 C 0.06051 0.17549 0.96277 0.0
C30 C 0.07671 0.14232 0.94217 0.0
C31 C 0.08293 0.10455 0.96372 0.0
P32 P 0.34489 0.71019 0.22885 0.0
H33 H 0.30371 0.68405 0.14838 0.0
H34 H 0.26611 0.71942 0.08973 0.0
H35 H 0.28635 0.83537 0.15884 0.0
H36 H 0.32403 0.7989 0.21859 0.0
H37 H 0.4179 0.77382 0.24199 0.0
H38 H 0.4648 0.79431 0.30565 0.0
H39 H 0.37338 0.72463 0.38264 0.0
H40 H 0.3269 0.7044 0.31909 0.0
H41 H 0.25507 0.70506 0.25497 0.0
H42 H 0.35206 0.62061 0.23285 0.0
O43 O 0.38626 0.69103 0.20684 0.0
H44 H 0.20343 0.64521 0.27216 0.0
H45 H 0.30125 0.56156 0.24893 0.0
C46 C 0.31674 0.73893 0.1876 0.0
C47 C 0.30005 0.7171 0.15105 0.0
C48 C 0.27869 0.73746 0.11738 0.0
C49 C 0.27368 0.78033 0.11937 0.0
C50 C 0.28982 0.80229 0.15642 0.0
C51 C 0.31139 0.78162 0.19047 0.0
C52 C 0.36903 0.73739 0.27555 0.0
C53 C 0.40724 0.76414 0.27267 0.0
C54 C 0.43428 0.77543 0.30917 0.0
C55 C 0.42343 0.76017 0.34926 0.0
C56 C 0.38303 0.73652 0.3523 0.0
C57 C 0.35616 0.72509 0.31573 0.0
C58 C 0.30717 0.66708 0.24244 0.0
C59 C 0.26511 0.67368 0.25373 0.0
C60 C 0.23574 0.63965 0.26349 0.0
C61 C 0.24813 0.59879 0.26134 0.0
C62 C 0.29042 0.59265 0.25021 0.0
C63 C 0.31971 0.62646 0.24114 0.0
P64 P 0.9965 0.52712 0.03944 0.0
H65 H 0.03854 0.49785 0.96743 0.0
H66 H 0.04404 0.42823 0.94003 0.0
H67 H 0.96232 0.37517 0.03569 0.0
H68 H 0.95724 0.44509 0.06283 0.0
H69 H 0.96043 0.58361 0.0965 0.0
H70 H 0.88796 0.60998 0.09515 0.0
H71 H 0.83968 0.52283 -0.00411 0.0
H72 H 0.9118 0.49722 -0.00282 0.0
H73 H 0.0894 0.55072 0.04892 0.0
H74 H 0.99055 0.50028 0.12903 0.0
O75 O 0.01463 0.5633 0.00513 0.0
H76 H 0.14616 0.54082 0.10506 0.0
H77 H 0.04802 0.49039 0.18667 0.0
C78 C 0.99688 0.4765 0.01665 0.0
C79 C 0.02129 0.47127 0.98205 0.0
C80 C 0.0245 0.43138 0.96651 0.0
C81 C 0.00357 0.39605 0.98559 0.0
C82 C 0.97868 0.40165 0.02005 0.0
C83 C 0.97566 0.44157 0.03561 0.0
C84 C 0.94135 0.53779 0.04771 0.0
C85 C 0.93381 0.56929 0.07552 0.0
C86 C 0.89238 0.58448 0.07446 0.0
C87 C 0.85803 0.56871 0.04513 0.0
C88 C 0.86527 0.53569 0.01887 0.0
C89 C 0.90661 0.5207 0.01988 0.0
C90 C 0.03563 0.52738 0.08514 0.0
C91 C 0.07978 0.53842 0.07913 0.0
C92 C 0.1124 0.53215 0.11127 0.0
C93 C 0.10181 0.5144 0.15042 0.0
C94 C 0.05729 0.50414 0.15692 0.0
C95 C 0.02442 0.51013 0.12421 0.0
P96 P 0.66831 0.86508 0.16874 0.0
H97 H 0.70182 0.95272 0.179 0.0
H98 H 0.77581 0.98729 0.19343 0.0
H99 H 0.82835 0.86674 0.20013 0.0
H100 H 0.75497 0.83279 0.18635 0.0
H101 H 0.66054 0.83939 0.0802 0.0
H102 H 0.67708 0.77583 0.04644 0.0
H103 H 0.70354 0.7189 0.16956 0.0
H104 H 0.68549 0.78245 0.20314 0.0
H105 H 0.68658 0.88999 0.25831 0.0
H106 H 0.58619 0.81716 0.18086 0.0
O107 O 0.63951 0.89544 0.13586 0.0
H108 H 0.65029 0.86764 0.32182 0.0
H109 H 0.55034 0.79407 0.24414 0.0
C110 C 0.72277 0.89022 0.18066 0.0
C111 C 0.72934 0.93383 0.18355 0.0
C112 C 0.77166 0.95351 0.1919 0.0
C113 C 0.80814 0.92979 0.19746 0.0
C114 C 0.80115 0.88603 0.1955 0.0
C115 C 0.7589 0.86648 0.18752 0.0
C116 C 0.672 0.81566 0.14406 0.0
C117 C 0.66863 0.81284 0.0999 0.0
C118 C 0.67797 0.77631 0.08069 0.0
C119 C 0.69193 0.74238 0.10542 0.0
C120 C 0.69283 0.74444 0.14971 0.0
C121 C 0.6826 0.78078 0.16888 0.0
C122 C 0.63931 0.85465 0.21507 0.0
C123 C 0.65651 0.86962 0.2549 0.0
C124 C 0.63571 0.85689 0.29115 0.0
C125 C 0.59789 0.82868 0.28784 0.0
C126 C 0.57976 0.81542 0.24762 0.0
C127 C 0.60012 0.82865 0.21149 0.0
P128 P 0.07291 0.94946 0.45499 0.0
H129 H 0.16366 0.97125 0.48604 0.0
H130 H 0.2022 0.03712 0.51106 0.0
H131 H 0.07795 0.08892 0.51724 0.0
H132 H 0.03948 0.02204 0.49403 0.0
H133 H 0.12401 0.87884 0.47394 0.0
H134 H 0.10576 0.80978 0.50321 0.0
H135 H 0.98078 0.84718 0.53444 0.0
H136 H -0.00058 0.91703 0.5043 0.0
H137 H 0.04393 0.0276 0.4164 0.0
H138 H 3e-05 0.89622 0.4144 0.0
O139 O 0.10889 0.93908 0.4208 0.0
H140 H 0.99156 0.03981 0.35666 0.0
H141 H 0.94937 0.90821 0.35282 0.0
C142 C 0.09882 -0.00749 0.48634 0.0
C143 C 0.14463 -0.00363 0.49398 0.0
C144 C 0.16668 0.03407 0.50836 0.0
C145 C 0.14313 0.06856 0.51486 0.0
C146 C 0.09698 0.06309 0.51155 0.0
C147 C 0.07495 0.02494 0.49821 0.0
C148 C 0.06262 0.90267 0.48599 0.0
C149 C 0.09287 0.87253 0.48749 0.0
C150 C 0.08227 0.83289 0.50414 0.0
C151 C 0.04134 0.82266 0.52021 0.0
C152 C 0.0124 0.85403 0.52192 0.0
C153 C 0.02302 0.8939 0.50482 0.0
C154 C 0.02494 0.96117 0.42148 0.0
C155 C 0.02134 0.00171 0.40506 0.0
C156 C 0.99134 0.00873 0.37052 0.0
C157 C 0.96606 0.97501 0.35049 0.0
C158 C 0.9679 0.93483 0.36825 0.0
C159 C 0.99695 0.92802 0.40355 0.0
P160 P 0.23214 0.74276 0.74301 0.0
H161 H 0.22158 0.82003 0.78773 0.0
H162 H 0.22172 0.83499 0.86337 0.0
H163 H 0.21966 0.7029 0.89169 0.0
H164 H 0.21835 0.68814 0.81638 0.0
H165 H 0.3275 0.75575 0.74129 0.0
H166 H 0.38477 0.70754 0.74199 0.0
H167 H 0.28695 0.60316 0.75172 0.0
H168 H 0.22987 0.65158 0.75021 0.0
H169 H 0.13704 0.74703 0.74664 0.0
H170 H 0.22365 0.69506 0.66546 0.0
O171 O 0.25079 0.78739 0.7204 0.0
H172 H 0.07457 0.72764 0.69522 0.0
H173 H 0.16203 0.67515 0.61458 0.0
C174 C 0.22121 0.75303 0.79658 0.0
C175 C 0.22013 0.79424 0.81016 0.0
C176 C 0.22006 0.80278 0.85336 0.0
C177 C 0.2216 0.77016 0.88338 0.0
C178 C 0.21925 0.72872 0.86925 0.0
C179 C 0.21856 0.72023 0.82615 0.0
C180 C 0.27439 0.70717 0.74484 0.0
C181 C 0.3184 0.7225 0.74347 0.0
C182 C 0.35113 0.69489 0.74408 0.0
C183 C 0.3404 0.65151 0.74677 0.0
C184 C 0.29635 0.63639 0.74971 0.0
C185 C 0.26365 0.66402 0.74865 0.0
C186 C 0.18485 0.72183 0.71019 0.0
C187 C 0.14243 0.73044 0.71833 0.0
C188 C 0.10675 0.71931 0.68889 0.0
C189 C 0.1132 0.69989 0.65064 0.0
C190 C 0.15568 0.69003 0.64359 0.0
C191 C 0.19108 0.70124 0.67286 0.0
P192 P 0.99678 0.45766 0.49154 0.0
H193 H 0.06652 0.41804 0.45495 0.0
H194 H 0.10097 0.42975 0.38892 0.0
H195 H 0.00404 0.51427 0.34653 0.0
H196 H 0.96885 0.50126 0.41281 0.0
H197 H 0.94845 0.4871 0.55933 0.0
H198 H 0.94057 0.55678 0.58611 0.0
H199 H 0.02438 0.61085 0.49289 0.0
H200 H 0.03361 0.54162 0.46781 0.0
H201 H 0.9809 0.3681 0.50513 0.0
H202 H 0.9034 0.47192 0.47658 0.0
O203 O 0.03459 0.43802 0.52525 0.0
H204 H 0.91425 0.32155 0.50963 0.0
H205 H 0.83618 0.42565 0.4816 0.0
C206 C 0.01605 0.45987 0.43929 0.0
C207 C 0.05217 0.43854 0.43122 0.0
C208 C 0.07182 0.44526 0.39325 0.0
C209 C 0.05588 0.47377 0.36276 0.0
C210 C 0.01749 0.49258 0.36958 0.0
C211 C 0.99737 0.48521 0.40742 0.0
C212 C 0.98997 0.50917 0.51026 0.0
C213 C 0.96485 0.51406 0.54451 0.0
C214 C 0.96062 0.5539 0.55996 0.0
C215 C 0.9817 0.58953 0.54153 0.0
C216 C 0.00762 0.5843 0.50786 0.0
C217 C 0.01236 0.54449 0.49294 0.0
C218 C 0.94704 0.42358 0.49167 0.0
C219 C 0.94943 0.38087 0.49987 0.0
C220 C 0.9112 0.35426 0.50236 0.0
C221 C 0.86975 0.36992 0.49659 0.0
C222 C 0.86753 0.41263 0.48679 0.0
C223 C 0.90591 0.43915 0.48394 0.0
P224 P 0.81956 0.7734 0.79951 0.0
H225 H 0.89906 0.80388 0.76074 0.0
H226 H 0.93411 0.78108 0.69992 0.0
H227 H 0.83216 0.67974 0.68055 0.0
H228 H 0.79736 0.70287 0.7418 0.0
H229 H 0.75318 0.81097 0.843 0.0
H230 H 0.70752 0.86766 0.82319 0.0
H231 H 0.75018 0.86822 0.69662 0.0
H232 H 0.79508 0.81112 0.71637 0.0
H233 H 0.86061 0.72513 0.86806 0.0
H234 H 0.73137 0.73054 0.80473 0.0
O235 O 0.85696 0.80311 0.82957 0.0
H236 H 0.82917 0.68674 0.927 0.0
H237 H 0.69945 0.69313 0.86407 0.0
C238 C 0.84621 0.75441 0.75627 0.0
C239 C 0.88455 0.77643 0.74373 0.0
C240 C 0.90445 0.76351 0.70877 0.0
C241 C 0.88605 0.72853 0.68544 0.0
C242 C 0.84729 0.70675 0.69793 0.0
C243 C 0.82743 0.71973 0.73302 0.0
C244 C 0.77756 0.80673 0.78123 0.0
C245 C 0.75132 0.82214 0.8105 0.0
C246 C 0.72495 0.85444 0.79903 0.0
C247 C 0.72539 0.87259 0.75837 0.0
C248 C 0.74913 0.85486 0.7282 0.0
C249 C 0.77508 0.82226 0.73957 0.0
C250 C 0.79811 0.73215 0.83306 0.0
C251 C 0.82555 0.71688 0.86625 0.0
C252 C 0.80748 0.69474 0.8999 0.0
C253 C 0.76169 0.68806 0.90078 0.0
C254 C 0.73481 0.69856 0.86467 0.0
C255 C 0.75301 0.72013 0.83078 0.0
P256 P 0.32538 0.2738 0.29588 0.0
H257 H 0.40524 0.30231 0.25678 0.0
H258 H 0.43942 0.27818 0.19603 0.0
H259 H 0.33581 0.17815 0.17816 0.0
H260 H 0.30186 0.20265 0.23931 0.0
H261 H 0.25682 0.31015 0.33738 0.0
H262 H 0.21074 0.36608 0.3165 0.0
H263 H 0.2586 0.3693 0.19195 0.0
H264 H 0.30377 0.31263 0.21268 0.0
H265 H 0.36597 0.22794 0.36657 0.0
H266 H 0.2374 0.23039 0.30099 0.0
O267 O 0.36298 0.30405 0.32515 0.0
H268 H 0.33398 0.19102 0.42607 0.0
H269 H 0.20488 0.19462 0.36097 0.0
C270 C 0.35162 0.25358 0.25305 0.0
C271 C 0.39019 0.27484 0.24014 0.0
C272 C 0.40958 0.26118 0.20519 0.0
C273 C 0.39043 0.2262 0.18231 0.0
C274 C 0.35149 0.20514 0.19521 0.0
C275 C 0.33213 0.21889 0.23025 0.0
C276 C 0.28358 0.30692 0.27659 0.0
C277 C 0.256 0.32163 0.305 0.0
C278 C 0.22944 0.35358 0.29292 0.0
C279 C 0.23112 0.37229 0.25258 0.0
C280 C 0.25651 0.35548 0.22323 0.0
C281 C 0.28259 0.32311 0.23518 0.0
C282 C 0.30381 0.23343 0.33037 0.0
C283 C 0.33095 0.21937 0.36444 0.0
C284 C 0.31257 0.19807 0.39841 0.0
C285 C 0.26675 0.19107 0.39875 0.0
C286 C 0.24024 0.20033 0.36196 0.0
C287 C 0.25878 0.22096 0.32771 0.0
P288 P 0.49782 0.02902 0.54069 0.0
H289 H 0.54014 -0.00055 0.46899 0.0
H290 H 0.54557 0.92974 0.44178 0.0
H291 H 0.4631 0.87712 0.53704 0.0
H292 H 0.45808 0.94713 0.56398 0.0
H293 H 0.46163 0.08604 0.59706 0.0
H294 H 0.38944 0.11305 0.59485 0.0
H295 H 0.3414 0.02584 0.49556 0.0
H296 H 0.41328 -0.00044 0.49774 0.0
H297 H 0.59084 0.05179 0.55135 0.0
H298 H 0.49028 0.00275 0.63021 0.0
O299 O 0.51668 0.06505 0.5066 0.0
H300 H 0.64667 0.04187 0.6084 0.0
H301 H 0.54677 -0.00718 0.68874 0.0
C302 C 0.49814 0.97833 0.51801 0.0
C303 C 0.52272 0.97294 0.48357 0.0
C304 C 0.52588 0.933 0.46813 0.0
C305 C 0.50473 0.89777 0.48717 0.0
C306 C 0.47965 0.90352 0.52146 0.0
C307 C 0.47666 0.94349 0.53691 0.0
C308 C 0.44266 0.04015 0.54832 0.0
C309 C 0.43511 0.07184 0.57589 0.0
C310 C 0.39384 0.0874 0.57434 0.0
C311 C 0.35966 0.07181 0.54474 0.0
C312 C 0.36686 0.03858 0.51873 0.0
C313 C 0.40805 0.02321 0.52024 0.0
C314 C 0.5363 0.02915 0.58687 0.0
C315 C 0.58064 0.03979 0.58146 0.0
C316 C 0.61272 0.03352 0.61414 0.0
C317 C 0.60135 0.01617 0.65321 0.0
C318 C 0.55663 0.00629 0.65907 0.0
C319 C 0.52432 0.01228 0.62585 0.0
P320 P 0.16702 0.36715 0.6676 0.0
H321 H 0.2009 0.45491 0.67657 0.0
H322 H 0.27495 0.48919 0.69159 0.0
H323 H 0.3265 0.36826 0.70204 0.0
H324 H 0.25305 0.3346 0.68784 0.0
H325 H 0.16231 0.34367 0.57858 0.0
H326 H 0.18075 0.28118 0.54407 0.0
H327 H 0.20286 0.22134 0.66637 0.0
H328 H 0.18303 0.28375 0.70062 0.0
H329 H 0.18472 0.39161 0.75729 0.0
H330 H 0.08568 0.31764 0.6794 0.0
O331 O 0.13808 0.39785 0.63521 0.0
H332 H 0.14893 0.36797 0.82069 0.0
H333 H 0.05031 0.29328 0.74256 0.0
C334 C 0.22139 0.39223 0.68003 0.0
C335 C 0.22821 0.43587 0.68208 0.0
C336 C 0.27056 0.45538 0.69077 0.0
C337 C 0.30678 0.43145 0.69748 0.0
C338 C 0.29951 0.38768 0.69643 0.0
C339 C 0.25723 0.36831 0.68819 0.0
C340 C 0.17139 0.31834 0.64204 0.0
C341 C 0.16978 0.31667 0.59787 0.0
C342 C 0.18026 0.28077 0.57823 0.0
C343 C 0.19358 0.24639 0.6026 0.0
C344 C 0.19269 0.24728 0.64679 0.0
C345 C 0.18137 0.28295 0.66635 0.0
C346 C 0.13812 0.35576 0.71384 0.0
C347 C 0.15505 0.37069 0.75377 0.0
C348 C 0.13454 0.35722 0.78995 0.0
C349 C 0.09727 0.32833 0.78648 0.0
C350 C 0.07934 0.31512 0.74618 0.0
C351 C 0.09941 0.32909 0.7101 0.0
P352 P 0.84334 0.20996 0.72675 0.0
H353 H 0.803 0.18371 0.64606 0.0
H354 H 0.76409 0.21844 0.58783 0.0
H355 H 0.78141 0.33407 0.65758 0.0
H356 H 0.82042 0.29817 0.71698 0.0
H357 H 0.91829 0.27162 0.73942 0.0
H358 H 0.96554 0.29157 0.80302 0.0
H359 H 0.8717 0.2259 0.88038 0.0
H360 H 0.82481 0.20635 0.8169 0.0
H361 H 0.75336 0.20572 0.75212 0.0
H362 H 0.85074 0.12049 0.73388 0.0
O363 O 0.88415 0.19017 0.7044 0.0
H364 H 0.70194 0.14662 0.7715 0.0
H365 H 0.80007 0.06203 0.75219 0.0
C366 C 0.81482 0.23848 0.68554 0.0
C367 C 0.79852 0.21658 0.64893 0.0
C368 C 0.77637 0.23658 0.61551 0.0
C369 C 0.77011 0.27918 0.61779 0.0
C370 C 0.78586 0.3012 0.65492 0.0
C371 C 0.80822 0.28087 0.68874 0.0
C372 C 0.86819 0.23722 0.77317 0.0
C373 C 0.90723 0.26273 0.77015 0.0
C374 C 0.93446 0.27368 0.80663 0.0
C375 C 0.923 0.2593 0.84683 0.0
C376 C 0.88188 0.23702 0.84995 0.0
C377 C 0.85477 0.22598 0.81342 0.0
C378 C 0.80559 0.16727 0.74126 0.0
C379 C 0.7635 0.17431 0.75212 0.0
C380 C 0.73428 0.14069 0.76319 0.0
C381 C 0.74684 0.09977 0.76286 0.0
C382 C 0.78915 0.09316 0.75212 0.0
C383 C 0.81832 0.12662 0.74172 0.0
P384 P 0.58373 0.55441 0.5368 0.0
H385 H 0.57771 0.49953 0.60996 0.0
H386 H 0.52248 0.48823 0.66079 0.0
H387 H 0.43433 0.5585 0.58012 0.0
H388 H 0.48909 0.56782 0.52831 0.0
H389 H 0.6691 0.54022 0.50941 0.0
H390 H 0.69939 0.47633 0.48959 0.0
H391 H 0.56938 0.41166 0.48248 0.0
H392 H 0.53951 0.4757 0.50254 0.0
H393 H 0.54938 0.63035 0.56015 0.0
H394 H 0.59362 0.5801 0.44749 0.0
O395 O 0.62467 0.57028 0.57254 0.0
H396 H 0.5386 0.69601 0.52347 0.0
H397 H 0.58417 0.64694 0.41045 0.0
C398 C 0.53823 0.53609 0.56645 0.0
C399 C 0.54601 0.51142 0.60263 0.0
C400 C 0.51429 0.50494 0.63161 0.0
C401 C 0.47454 0.52361 0.62499 0.0
C402 C 0.465 0.54444 0.58642 0.0
C403 C 0.4965 0.5501 0.55697 0.0
C404 C 0.60231 0.51231 0.50843 0.0
C405 C 0.64699 0.51256 0.50244 0.0
C406 C 0.66428 0.47595 0.49121 0.0
C407 C 0.63697 0.4386 0.48556 0.0
C408 C 0.59144 0.43973 0.48717 0.0
C409 C 0.57423 0.47638 0.4986 0.0
C410 C 0.57148 0.60015 0.50629 0.0
C411 C 0.55592 0.63324 0.52709 0.0
C412 C 0.54977 0.67086 0.50604 0.0
C413 C 0.56036 0.67666 0.46398 0.0
C414 C 0.57545 0.64324 0.44281 0.0
C415 C 0.58092 0.6051 0.46389 0.0
P416 P 0.57343 0.445 0.95271 0.0
H417 H 0.6637 0.4667 0.98554 0.0
H418 H 0.70114 0.53233 0.01254 0.0
H419 H 0.57585 0.58184 0.01962 0.0
H420 H 0.5385 0.51521 -0.0056 0.0
H421 H 0.62146 0.37099 0.96118 0.0
H422 H 0.60346 0.30125 0.98864 0.0
H423 H 0.48555 0.34126 0.03465 0.0
H424 H 0.50392 0.41185 0.00623 0.0
H425 H 0.54483 0.52402 0.91637 0.0
H426 H 0.49908 0.39307 0.91246 0.0
O427 O 0.60962 0.43748 0.91774 0.0
H428 H 0.4917 0.53787 0.85774 0.0
H429 H 0.44764 0.40673 0.85199 0.0
C430 C 0.59843 0.48686 0.98622 0.0
C431 C 0.64421 0.49119 -0.00578 0.0
C432 C 0.66563 0.52876 0.00971 0.0
C433 C 0.64146 0.56266 0.01696 0.0
C434 C 0.59535 0.55651 0.01341 0.0
C435 C 0.57396 0.51848 -0.00107 0.0
C436 C 0.56365 0.39642 0.98104 0.0
C437 C 0.5919 0.36508 0.97746 0.0
C438 C 0.58139 0.32497 0.99307 0.0
C439 C 0.54252 0.31534 0.01307 0.0
C440 C 0.51552 0.34756 0.01905 0.0
C441 C 0.52604 0.3879 0.00304 0.0
C442 C 0.52508 0.45766 0.92033 0.0
C443 C 0.52172 0.49856 0.90485 0.0
C444 C 0.49126 0.50654 0.87099 0.0
C445 C 0.46523 0.47343 0.8507 0.0
C446 C 0.46677 0.4329 0.86765 0.0
C447 C 0.49631 0.42512 0.90228 0.0
P448 P 0.73398 0.24269 0.2419 0.0
H449 H 0.71955 0.31906 0.28633 0.0
H450 H 0.71764 0.33363 0.36186 0.0
H451 H 0.72003 0.20186 0.39017 0.0
H452 H 0.7208 0.18746 0.315 0.0
H453 H 0.82961 0.25546 0.24244 0.0
H454 H 0.88669 0.20702 0.24314 0.0
H455 H 0.78799 0.10281 0.24893 0.0
H456 H 0.73118 0.15145 0.2475 0.0
H457 H 0.63834 0.24412 0.24467 0.0
H458 H 0.72791 0.19806 0.16265 0.0
O459 O 0.75322 0.28761 0.22026 0.0
H460 H 0.57677 0.2235 0.19268 0.0
H461 H 0.6672 0.17697 0.11114 0.0
C462 C 0.72163 0.25229 0.29522 0.0
C463 C 0.71864 0.29323 0.30872 0.0
C464 C 0.71737 0.30154 0.35185 0.0
C465 C 0.71957 0.26896 0.38187 0.0
C466 C 0.71905 0.22767 0.36774 0.0
C467 C 0.71958 0.21939 0.32472 0.0
C468 C 0.77614 0.207 0.24407 0.0
C469 C 0.8203 0.2222 0.24379 0.0
C470 C 0.85291 0.19446 0.24439 0.0
C471 C 0.84187 0.15105 0.24592 0.0
C472 C 0.79764 0.13604 0.24779 0.0
C473 C 0.76508 0.16381 0.24677 0.0
C474 C 0.68756 0.22196 0.2078 0.0
C475 C 0.64463 0.22869 0.21596 0.0
C476 C 0.60948 0.21686 0.18617 0.0
C477 C 0.61694 0.19854 0.14762 0.0
C478 C 0.66004 0.19087 0.1404 0.0
C479 C 0.69492 0.2028 0.16999 0.0
P480 P 0.50867 0.94775 0.00883 0.0
H481 H 0.60021 0.93403 0.00243 0.0
H482 H 0.6469 0.93972 0.94415 0.0
H483 H 0.53603 0.96691 0.85794 0.0
H484 H 0.48884 0.96023 0.91712 0.0
H485 H 0.47236 0.98181 0.08106 0.0
H486 H 0.46109 0.05283 0.10148 0.0
H487 H 0.51657 0.10083 0.98756 0.0
H488 H 0.52795 0.03003 0.96756 0.0
H489 H 0.48692 0.85821 0.00383 0.0
H490 H 0.41678 0.96878 -0.00527 0.0
O491 O 0.53598 0.92683 0.05057 0.0
H492 H 0.41763 0.81458 0.00248 0.0
H493 H 0.34719 0.92549 -0.00612 0.0
C494 C 0.541 0.94645 0.96406 0.0
C495 C 0.5856 0.9404 0.97093 0.0
C496 C 0.61238 0.94379 0.93741 0.0
C497 C 0.59529 0.95401 0.89631 0.0
C498 C 0.5502 0.959 0.8892 0.0
C499 C 0.5232 0.95509 0.9229 0.0
C500 C 0.50092 0.00053 0.02284 0.0
C501 C 0.4822 0.0077 0.06058 0.0
C502 C 0.47579 0.0483 0.07219 0.0
C503 C 0.48818 0.08253 0.04625 0.0
C504 C 0.50702 0.07521 0.00843 0.0
C505 C 0.51334 0.03454 -0.00318 0.0
C506 C 0.45705 0.91665 0.00013 0.0
C507 C 0.4565 0.87305 0.00103 0.0
C508 C 0.41676 0.84817 0.00038 0.0
C509 C 0.3767 0.8665 -0.00118 0.0
C510 C 0.37737 0.9103 -0.0044 0.0
C511 C 0.41724 0.93515 -0.0039 0.0
Mg512 Mg 0.22717 0.83519 0.01294 0.0
O513 O 0.29932 0.85755 0.00428 0.0
O514 O 0.33629 0.80055 0.00661 0.0
Mg515 Mg 0.28887 0.74273 0.01653 0.0
C516 C 0.33499 0.84009 0.0028 0.0
C517 C 0.16328 0.90028 0.98476 0.0
O518 O 0.13807 0.86501 0.98193 0.0
O519 O 0.21888 0.81218 0.94446 0.0
O520 O 0.2537 0.75387 0.95112 0.0
O521 O 0.24148 0.83915 0.08373 0.0
O522 O 0.24675 0.78297 0.0461 0.0
C523 C 0.23093 0.779 0.929 0.0
C524 C 0.25245 0.8013 0.08219 0.0
O525 O 0.20421 0.89885 -0.00588 0.0
Mg526 Mg 0.17425 0.49353 0.2844 0.0
O527 O 0.12975 0.50088 0.22209 0.0
O528 O 0.17677 0.5089 0.17181 0.0
Mg529 Mg 0.24776 0.50706 0.19872 0.0
C530 C 0.1378 0.50696 0.18335 0.0
C531 C 0.08211 0.48688 0.32681 0.0
O532 O 0.07376 0.52032 0.30418 0.0
O533 O 0.18822 0.42709 0.26898 0.0
O534 O 0.2372 0.43901 0.22078 0.0
O535 O 0.18443 0.56383 0.29226 0.0
O536 O 0.22673 0.52593 0.25893 0.0
C537 C 0.21566 0.41427 0.24505 0.0
C538 C 0.21847 0.56193 0.27109 0.0
O539 O 0.11722 0.46985 0.32259 0.0
Mg540 Mg 0.75764 0.66513 0.04375 0.0
O541 O 0.7041 0.60996 0.0363 0.0
O542 O 0.64353 0.63575 0.00637 0.0
Mg543 Mg 0.65706 0.70598 -0.00467 0.0
C544 C 0.66388 0.60526 0.02169 0.0
C545 C 0.81663 0.5893 0.03878 0.0
O546 O 0.78679 0.57731 0.00819 0.0
O547 O 0.7659 0.6651 0.97279 0.0
O548 O 0.70585 0.69445 0.94639 0.0
O549 O 0.73711 0.6842 0.10654 0.0
O550 O 0.71143 0.70782 0.04455 0.0
C551 C 0.7424 0.67962 0.94165 0.0
C552 C 0.71221 0.70886 0.08504 0.0
O553 O 0.81226 0.6221 0.05924 0.0
Mg554 Mg 0.91556 0.03899 0.22766 0.0
O555 O 0.85848 0.98933 0.21281 0.0
O556 O 0.88575 0.92864 0.20285 0.0
Mg557 Mg 0.96057 0.93986 0.20906 0.0
C558 C 0.85325 0.95037 0.20488 0.0
C559 C 0.87582 0.12165 0.24271 0.0
O560 O 0.91458 0.13522 0.23082 0.0
O561 O 0.92984 0.01277 0.29461 0.0
O562 O 0.96004 0.95436 0.27961 0.0
O563 O 0.92017 0.05293 0.15877 0.0
O564 O 0.95784 0.0069 0.19499 0.0
C565 C 0.94845 0.97988 0.30616 0.0
C566 C 0.94881 0.02564 0.15959 0.0
O567 O 0.86655 0.08255 0.24707 0.0
Mg568 Mg 0.26064 0.16961 0.54171 0.0
O569 O 0.20642 0.11512 0.5338 0.0
O570 O 0.14645 0.14159 0.50336 0.0
Mg571 Mg 0.16134 0.21156 0.49177 0.0
C572 C 0.16625 0.1109 0.51902 0.0
C573 C 0.31856 0.09282 0.53785 0.0
O574 O 0.28892 0.08099 0.50703 0.0
O575 O 0.26995 0.16914 0.47103 0.0
O576 O 0.21048 0.19876 0.44354 0.0
O577 O 0.23927 0.18862 0.60405 0.0
O578 O 0.21492 0.2129 0.54183 0.0
C579 C 0.24694 0.18349 0.43946 0.0
C580 C 0.21483 0.21349 0.58228 0.0
O581 O 0.3144 0.12584 0.55802 0.0
Mg582 Mg 0.41459 0.53982 0.72931 0.0
O583 O 0.35731 0.4906 0.71369 0.0
O584 O 0.3843 0.42998 0.70264 0.0
Mg585 Mg 0.4591 0.44084 0.70872 0.0
C586 C 0.35192 0.45179 0.70513 0.0
C587 C 0.37445 0.6222 0.74357 0.0
O588 O 0.41256 0.63559 0.73009 0.0
O589 O 0.42887 0.51236 0.7958 0.0
O590 O 0.45874 0.45417 0.77947 0.0
O591 O 0.41915 0.55484 0.6606 0.0
O592 O 0.45656 0.50808 0.69597 0.0
C593 C 0.44735 0.4792 0.8066 0.0
C594 C 0.44754 0.52736 0.66089 0.0
O595 O 0.36574 0.58322 0.74941 0.0
Mg596 Mg 0.72149 0.33318 0.51158 0.0
O597 O 0.79282 0.35781 0.50284 0.0
O598 O 0.83253 0.30265 0.50578 0.0
Mg599 Mg 0.78709 0.24331 0.51533 0.0
C600 C 0.82939 0.34192 0.50168 0.0
C601 C 0.65623 0.39806 0.48408 0.0
O602 O 0.63061 0.36302 0.48206 0.0
O603 O 0.71426 0.31029 0.44298 0.0
O604 O 0.75183 0.25367 0.44979 0.0
O605 O 0.73584 0.33713 0.58248 0.0
O606 O 0.74286 0.28153 0.54463 0.0
C607 C 0.728 0.27785 0.42756 0.0
C608 C 0.74804 0.29974 0.58078 0.0
O609 O 0.69721 0.39633 0.49278 0.0
Mg610 Mg 0.67148 -0.00379 0.78848 0.0
O611 O 0.62812 0.00318 0.72535 0.0
O612 O 0.67587 0.00971 0.67567 0.0
Mg613 Mg 0.74626 0.00646 0.7036 0.0
C614 C 0.63676 0.00861 0.6867 0.0
C615 C 0.6255 0.96197 0.86237 0.0
O616 O 0.66758 0.958 0.87076 0.0
O617 O 0.68392 0.92866 0.77485 0.0
O618 O 0.73305 0.93908 0.72658 0.0
O619 O 0.6829 0.06646 0.79449 0.0
O620 O 0.72525 0.02687 0.76321 0.0
C621 C 0.71096 0.91498 0.75098 0.0
C622 C 0.71717 0.06342 0.77397 0.0
O623 O 0.61274 0.9765 0.82626 0.0
Mg624 Mg 0.06074 0.29162 0.91667 0.0
O625 O 0.99457 0.27808 0.87869 0.0
O626 O 0.94399 0.25266 0.92093 0.0
Mg627 Mg 0.97939 0.25023 0.98781 0.0
C628 C 0.95529 0.26439 0.8844 0.0
C629 C 0.07876 0.30969 0.82452 0.0
O630 O 0.05604 0.27306 0.82212 0.0
O631 O 0.0361 0.34931 0.94296 0.0
O632 O 0.98931 0.3222 0.98867 0.0
O633 O 0.07809 0.22651 0.90835 0.0
O634 O 0.04347 0.24708 0.96166 0.0
C635 C 0.00953 0.35356 0.97115 0.0
C636 C 0.05956 0.21737 0.94296 0.0
O637 O 0.08685 0.32717 0.86034 0.0
Mg638 Mg 0.56144 0.79298 0.41831 0.0
O639 O 0.495 0.77946 0.38077 0.0
O640 O 0.44475 0.7539 0.42331 0.0
Mg641 Mg 0.48049 0.75192 0.49005 0.0
C642 C 0.45581 0.76562 0.38671 0.0
C643 C 0.57906 0.81061 0.32598 0.0
O644 O 0.55594 0.77418 0.3238 0.0
O645 O 0.53713 0.85084 0.44462 0.0
O646 O 0.49044 0.82391 0.49049 0.0
O647 O 0.57841 0.7278 0.40985 0.0
O648 O 0.54429 0.74852 0.46344 0.0
C649 C 0.51063 0.85521 0.47285 0.0
C650 C 0.55999 0.71872 0.44453 0.0
O651 O 0.58742 0.82824 0.3617 0.0
Mg652 Mg 0.97279 0.70566 0.5823 0.0
O653 O 0.03858 0.70203 0.62281 0.0
O654 O 0.08773 0.68518 0.57931 0.0
Mg655 Mg 0.05525 0.68 0.51213 0.0
C656 C 0.07746 0.69413 0.6161 0.0
C657 C 0.90717 0.71465 0.64846 0.0
O658 O 0.88952 0.68211 0.62661 0.0
O659 O -0.00082 0.76999 0.55776 0.0
O660 O 0.04816 0.75032 0.51543 0.0
O661 O 0.95535 0.63704 0.58994 0.0
O662 O 0.99174 0.66491 0.53784 0.0
C663 C 0.02871 0.7787 0.53206 0.0
C664 C 0.9759 0.63184 0.55671 0.0
O665 O 0.94292 0.73334 0.63773 0.0
Mg666 Mg 0.47607 0.20011 0.07969 0.0
O667 O 0.54224 0.19897 0.11974 0.0
O668 O 0.59135 0.18067 0.07691 0.0
Mg669 Mg 0.55799 0.17217 0.01018 0.0
C670 C 0.58121 0.19119 0.11328 0.0
C671 C 0.41108 0.2115 0.14544 0.0
O672 O 0.39326 0.17845 0.12448 0.0
O673 O 0.50125 0.26342 0.05226 0.0
O674 O 0.55009 0.24274 0.01036 0.0
O675 O 0.46036 0.13208 0.09132 0.0
O676 O 0.495 0.15756 0.03702 0.0
C677 C 0.53036 0.27152 0.02602 0.0
C678 C 0.48057 0.12542 0.05822 0.0
O679 O 0.44672 0.22982 0.13409 0.0
loop_
_geom_bond_atom_site_label_1
_geom_bond_atom_site_label_2
_geom_bond_distance
_geom_bond_site_symmetry_2
_ccdc_geom_bond_type
P0 O11 1.490 . S
P0 C14 1.812 . S
P0 C20 1.803 . S
P0 C26 1.819 . S
H1 C15 0.941 . S
H2 C16 0.939 . S
H3 C18 0.940 . S
H4 C19 0.940 . S
H5 C21 0.939 . S
H6 C22 0.942 . S
H7 C24 0.940 . S
H8 C25 0.939 . S
H9 C27 0.941 . S
H10 C31 0.939 . S
O11 P0 1.490 . S
H12 C28 0.939 . S
H13 C30 0.940 . S
C14 P0 1.812 . S
C14 C15 1.389 . S
C14 C19 1.391 1_455 S
C15 H1 0.941 . S
C15 C14 1.389 . S
C15 C16 1.397 1_455 S
C16 H2 0.939 . S
C16 C15 1.397 1_655 S
C16 C17 1.378 . S
C17 C16 1.378 . S
C17 C18 1.378 . S
C18 H3 0.940 . S
C18 C17 1.378 . S
C18 C19 1.396 . S
C19 H4 0.940 . S
C19 C14 1.391 1_655 S
C19 C18 1.396 . S
C20 P0 1.803 . S
C20 C21 1.378 . S
C20 C25 1.400 1_545 S
C21 H5 0.939 . S
C21 C20 1.378 . S
C21 C22 1.361 1_545 S
C22 H6 0.942 . S
C22 C21 1.361 1_565 S
C22 C23 1.369 . S
C23 C22 1.369 . S
C23 C24 1.404 . S
C24 H7 0.940 . S
C24 C23 1.404 . S
C24 C25 1.389 . S
C25 H8 0.939 . S
C25 C20 1.400 1_565 S
C25 C24 1.389 . S
C26 P0 1.819 . S
C26 C27 1.391 . S
C26 C31 1.391 1_554 S
C27 H9 0.941 . S
C27 C26 1.391 . S
C27 C28 1.396 . S
C28 H12 0.939 . S
C28 C27 1.396 . S
C28 C29 1.397 1_554 S
C29 C28 1.397 1_556 S
C29 C30 1.385 . S
C30 H13 0.940 . S
C30 C29 1.385 . S
C30 C31 1.388 . S
C31 H10 0.939 . S
C31 C26 1.391 1_556 S
C31 C30 1.388 . S
P32 O43 1.490 . S
P32 C46 1.812 . S
P32 C52 1.803 . S
P32 C58 1.819 . S
H33 C47 0.941 . S
H34 C48 0.939 . S
H35 C50 0.940 . S
H36 C51 0.940 . S
H37 C53 0.939 . S
H38 C54 0.942 . S
H39 C56 0.940 . S
H40 C57 0.939 . S
H41 C59 0.941 . S
H42 C63 0.939 . S
O43 P32 1.490 . S
H44 C60 0.939 . S
H45 C62 0.940 . S
C46 P32 1.812 . S
C46 C47 1.389 . S
C46 C51 1.391 . S
C47 H33 0.941 . S
C47 C46 1.389 . S
C47 C48 1.397 . S
C48 H34 0.939 . S
C48 C47 1.397 . S
C48 C49 1.378 . S
C49 C48 1.378 . S
C49 C50 1.378 . S
C50 H35 0.940 . S
C50 C49 1.378 . S
C50 C51 1.396 . S
C51 H36 0.940 . S
C51 C46 1.391 . S
C51 C50 1.396 . S
C52 P32 1.803 . S
C52 C53 1.378 . S
C52 C57 1.400 . S
C53 H37 0.939 . S
C53 C52 1.378 . S
C53 C54 1.361 . S
C54 H38 0.942 . S
C54 C53 1.361 . S
C54 C55 1.369 . S
C55 C54 1.369 . S
C55 C56 1.404 . S
C56 H39 0.940 . S
C56 C55 1.404 . S
C56 C57 1.389 . S
C57 H40 0.939 . S
C57 C52 1.400 . S
C57 C56 1.389 . S
C58 P32 1.819 . S
C58 C59 1.391 . S
C58 C63 1.391 . S
C59 H41 0.941 . S
C59 C58 1.391 . S
C59 C60 1.396 . S
C60 H44 0.939 . S
C60 C59 1.396 . S
C60 C61 1.397 . S
C61 C60 1.397 . S
C61 C62 1.385 . S
C62 H45 0.940 . S
C62 C61 1.385 . S
C62 C63 1.388 . S
C63 H42 0.939 . S
C63 C58 1.391 . S
C63 C62 1.388 . S
P64 O75 1.490 1_554 S
P64 C78 1.809 1_554 S
P64 C84 1.803 1_455 S
P64 C90 1.819 . S
H65 C79 0.941 . S
H66 C80 0.939 . S
H67 C82 0.937 1_655 S
H68 C83 0.940 1_655 S
H69 C85 0.939 . S
H70 C86 0.942 . S
H71 C88 0.940 . S
H72 C89 0.939 . S
H73 C91 0.941 . S
H74 C95 0.939 1_655 S
O75 P64 1.490 1_556 S
H76 C92 0.939 . S
H77 C94 0.940 . S
C78 P64 1.809 1_556 S
C78 C79 1.397 . S
C78 C83 1.387 1_556 S
C79 H65 0.941 . S
C79 C78 1.397 . S
C79 C80 1.397 . S
C80 H66 0.939 . S
C80 C79 1.397 . S
C80 C81 1.378 . S
C81 C80 1.378 . S
C81 C82 1.383 1_556 S
C82 H67 0.937 1_455 S
C82 C81 1.383 1_554 S
C82 C83 1.395 . S
C83 H68 0.940 1_455 S
C83 C78 1.387 1_554 S
C83 C82 1.395 . S
C84 P64 1.803 1_655 S
C84 C85 1.378 . S
C84 C89 1.400 . S
C85 H69 0.939 . S
C85 C84 1.378 . S
C85 C86 1.361 . S
C86 H70 0.942 . S
C86 C85 1.361 . S
C86 C87 1.369 . S
C87 C86 1.369 . S
C87 C88 1.404 . S
C88 H71 0.940 . S
C88 C87 1.404 . S
C88 C89 1.389 . S
C89 H72 0.939 . S
C89 C84 1.400 . S
C89 C88 1.389 . S
C90 P64 1.819 . S
C90 C91 1.391 . S
C90 C95 1.391 . S
C91 H73 0.941 . S
C91 C90 1.391 . S
C91 C92 1.396 . S
C92 H76 0.939 . S
C92 C91 1.396 . S
C92 C93 1.397 . S
C93 C92 1.397 . S
C93 C94 1.385 . S
C94 H77 0.940 . S
C94 C93 1.385 . S
C94 C95 1.388 . S
C95 H74 0.939 1_455 S
C95 C90 1.391 . S
C95 C94 1.388 . S
P96 O107 1.490 . S
P96 C110 1.812 . S
P96 C116 1.803 . S
P96 C122 1.819 . S
H97 C111 0.941 . S
H98 C112 0.939 . S
H99 C114 0.940 . S
H100 C115 0.940 . S
H101 C117 0.939 . S
H102 C118 0.942 . S
H103 C120 0.940 . S
H104 C121 0.939 . S
H105 C123 0.941 . S
H106 C127 0.939 . S
O107 P96 1.490 . S
H108 C124 0.939 . S
H109 C126 0.940 . S
C110 P96 1.812 . S
C110 C111 1.389 . S
C110 C115 1.391 . S
C111 H97 0.941 . S
C111 C110 1.389 . S
C111 C112 1.397 . S
C112 H98 0.939 . S
C112 C111 1.397 . S
C112 C113 1.378 . S
C113 C112 1.378 . S
C113 C114 1.378 . S
C114 H99 0.940 . S
C114 C113 1.378 . S
C114 C115 1.396 . S
C115 H100 0.940 . S
C115 C110 1.391 . S
C115 C114 1.396 . S
C116 P96 1.803 . S
C116 C117 1.378 . S
C116 C121 1.400 . S
C117 H101 0.939 . S
C117 C116 1.378 . S
C117 C118 1.361 . S
C118 H102 0.942 . S
C118 C117 1.361 . S
C118 C119 1.369 . S
C119 C118 1.369 . S
C119 C120 1.404 . S
C120 H103 0.940 . S
C120 C119 1.404 . S
C120 C121 1.389 . S
C121 H104 0.939 . S
C121 C116 1.400 . S
C121 C120 1.389 . S
C122 P96 1.819 . S
C122 C123 1.391 . S
C122 C127 1.391 . S
C123 H105 0.941 . S
C123 C122 1.391 . S
C123 C124 1.396 . S
C124 H108 0.939 . S
C124 C123 1.396 . S
C124 C125 1.397 . S
C125 C124 1.397 . S
C125 C126 1.385 . S
C126 H109 0.940 . S
C126 C125 1.385 . S
C126 C127 1.388 . S
C127 H106 0.939 . S
C127 C122 1.391 . S
C127 C126 1.388 . S
P128 O139 1.490 . S
P128 C142 1.812 . S
P128 C148 1.803 . S
P128 C154 1.819 . S
H129 C143 0.941 . S
H130 C144 0.939 . S
H131 C146 0.940 . S
H132 C147 0.940 . S
H133 C149 0.939 . S
H134 C150 0.942 . S
H135 C152 0.940 . S
H136 C153 0.939 . S
H137 C155 0.941 . S
H138 C159 0.940 . S
O139 P128 1.490 . S
H140 C156 0.939 1_545 S
H141 C158 0.940 . S
C142 P128 1.812 . S
C142 C143 1.389 . S
C142 C147 1.391 1_565 S
C143 H129 0.941 . S
C143 C142 1.389 . S
C143 C144 1.397 1_565 S
C144 H130 0.939 . S
C144 C143 1.397 1_545 S
C144 C145 1.378 . S
C145 C144 1.378 . S
C145 C146 1.378 . S
C146 H131 0.940 . S
C146 C145 1.378 . S
C146 C147 1.396 . S
C147 H132 0.940 . S
C147 C142 1.391 1_545 S
C147 C146 1.396 . S
C148 P128 1.803 . S
C148 C149 1.378 . S
C148 C153 1.400 . S
C149 H133 0.939 . S
C149 C148 1.378 . S
C149 C150 1.361 . S
C150 H134 0.942 . S
C150 C149 1.361 . S
C150 C151 1.369 . S
C151 C150 1.369 . S
C151 C152 1.404 . S
C152 H135 0.940 . S
C152 C151 1.404 . S
C152 C153 1.389 . S
C153 H136 0.939 . S
C153 C148 1.400 . S
C153 C152 1.389 . S
C154 P128 1.819 . S
C154 C155 1.391 . S
C154 C159 1.387 1_455 S
C155 H137 0.941 . S
C155 C154 1.391 . S
C155 C156 1.396 . S
C156 H140 0.939 1_565 S
C156 C155 1.396 . S
C156 C157 1.397 1_455 S
C157 C156 1.397 1_655 S
C157 C158 1.385 . S
C158 H141 0.940 . S
C158 C157 1.385 . S
C158 C159 1.392 . S
C159 H138 0.940 . S
C159 C154 1.387 1_655 S
C159 C158 1.392 . S
P160 O171 1.490 . S
P160 C174 1.812 . S
P160 C180 1.803 . S
P160 C186 1.819 . S
H161 C175 0.941 . S
H162 C176 0.939 . S
H163 C178 0.940 . S
H164 C179 0.940 . S
H165 C181 0.939 . S
H166 C182 0.942 . S
H167 C184 0.940 . S
H168 C185 0.939 . S
H169 C187 0.941 . S
H170 C191 0.939 . S
O171 P160 1.490 . S
H172 C188 0.939 . S
H173 C190 0.940 . S
C174 P160 1.812 . S
C174 C175 1.389 . S
C174 C179 1.391 . S
C175 H161 0.941 . S
C175 C174 1.389 . S
C175 C176 1.397 . S
C176 H162 0.939 . S
C176 C175 1.397 . S
C176 C177 1.378 . S
C177 C176 1.378 . S
C177 C178 1.378 . S
C178 H163 0.940 . S
C178 C177 1.378 . S
C178 C179 1.396 . S
C179 H164 0.940 . S
C179 C174 1.391 . S
C179 C178 1.396 . S
C180 P160 1.803 . S
C180 C181 1.378 . S
C180 C185 1.400 . S
C181 H165 0.939 . S
C181 C180 1.378 . S
C181 C182 1.361 . S
C182 H166 0.942 . S
C182 C181 1.361 . S
C182 C183 1.369 . S
C183 C182 1.369 . S
C183 C184 1.404 . S
C184 H167 0.940 . S
C184 C183 1.404 . S
C184 C185 1.389 . S
C185 H168 0.939 . S
C185 C180 1.400 . S
C185 C184 1.389 . S
C186 P160 1.819 . S
C186 C187 1.391 . S
C186 C191 1.391 . S
C187 H169 0.941 . S
C187 C186 1.391 . S
C187 C188 1.396 . S
C188 H172 0.939 . S
C188 C187 1.396 . S
C188 C189 1.397 . S
C189 C188 1.397 . S
C189 C190 1.385 . S
C190 H173 0.940 . S
C190 C189 1.385 . S
C190 C191 1.388 . S
C191 H170 0.939 . S
C191 C186 1.391 . S
C191 C190 1.388 . S
P192 O203 1.484 1_655 S
P192 C206 1.808 1_655 S
P192 C212 1.805 . S
P192 C218 1.827 . S
H193 C207 0.941 . S
H194 C208 0.939 . S
H195 C210 0.940 1_655 S
H196 C211 0.940 . S
H197 C213 0.939 . S
H198 C214 0.942 1_455 S
H199 C216 0.940 . S
H200 C217 0.939 . S
H201 C219 0.941 . S
H202 C223 0.939 . S
O203 P192 1.484 1_455 S
H204 C220 0.939 . S
H205 C222 0.940 . S
C206 P192 1.808 1_455 S
C206 C207 1.389 . S
C206 C211 1.391 1_455 S
C207 H193 0.941 . S
C207 C206 1.389 . S
C207 C208 1.397 . S
C208 H194 0.939 . S
C208 C207 1.397 . S
C208 C209 1.378 . S
C209 C208 1.378 . S
C209 C210 1.378 . S
C210 H195 0.940 1_455 S
C210 C209 1.378 . S
C210 C211 1.396 1_455 S
C211 H196 0.940 . S
C211 C206 1.391 1_655 S
C211 C210 1.396 1_655 S
C212 P192 1.805 . S
C212 C213 1.378 1_655 S
C212 C217 1.400 . S
C213 H197 0.939 . S
C213 C212 1.378 1_455 S
C213 C214 1.360 1_455 S
C214 H198 0.942 1_655 S
C214 C213 1.360 1_655 S
C214 C215 1.371 . S
C215 C214 1.371 . S
C215 C216 1.404 . S
C216 H199 0.940 . S
C216 C215 1.404 . S
C216 C217 1.389 . S
C217 H200 0.939 . S
C217 C212 1.400 . S
C217 C216 1.389 . S
C218 P192 1.827 . S
C218 C219 1.391 . S
C218 C223 1.391 . S
C219 H201 0.941 . S
C219 C218 1.391 . S
C219 C220 1.396 . S
C220 H204 0.939 . S
C220 C219 1.396 . S
C220 C221 1.397 . S
C221 C220 1.397 . S
C221 C222 1.385 . S
C222 H205 0.940 . S
C222 C221 1.385 . S
C222 C223 1.388 . S
C223 H202 0.939 . S
C223 C218 1.391 . S
C223 C222 1.388 . S
P224 O235 1.490 . S
P224 C238 1.812 . S
P224 C244 1.803 . S
P224 C250 1.819 . S
H225 C239 0.941 . S
H226 C240 0.939 . S
H227 C242 0.940 . S
H228 C243 0.940 . S
H229 C245 0.939 . S
H230 C246 0.942 . S
H231 C248 0.940 . S
H232 C249 0.939 . S
H233 C251 0.941 . S
H234 C255 0.939 . S
O235 P224 1.490 . S
H236 C252 0.939 . S
H237 C254 0.940 . S
C238 P224 1.812 . S
C238 C239 1.389 . S
C238 C243 1.391 . S
C239 H225 0.941 . S
C239 C238 1.389 . S
C239 C240 1.397 . S
C240 H226 0.939 . S
C240 C239 1.397 . S
C240 C241 1.378 . S
C241 C240 1.378 . S
C241 C242 1.378 . S
C242 H227 0.940 . S
C242 C241 1.378 . S
C242 C243 1.396 . S
C243 H228 0.940 . S
C243 C238 1.391 . S
C243 C242 1.396 . S
C244 P224 1.803 . S
C244 C245 1.378 . S
C244 C249 1.400 . S
C245 H229 0.939 . S
C245 C244 1.378 . S
C245 C246 1.361 . S
C246 H230 0.942 . S
C246 C245 1.361 . S
C246 C247 1.369 . S
C247 C246 1.369 . S
C247 C248 1.404 . S
C248 H231 0.940 . S
C248 C247 1.404 . S
C248 C249 1.389 . S
C249 H232 0.939 . S
C249 C244 1.400 . S
C249 C248 1.389 . S
C250 P224 1.819 . S
C250 C251 1.391 . S
C250 C255 1.391 . S
C251 H233 0.941 . S
C251 C250 1.391 . S
C251 C252 1.396 . S
C252 H236 0.939 . S
C252 C251 1.396 . S
C252 C253 1.397 . S
C253 C252 1.397 . S
C253 C254 1.385 . S
C254 H237 0.940 . S
C254 C253 1.385 . S
C254 C255 1.388 . S
C255 H234 0.939 . S
C255 C250 1.391 . S
C255 C254 1.388 . S
P256 O267 1.490 . S
P256 C270 1.812 . S
P256 C276 1.803 . S
P256 C282 1.819 . S
H257 C271 0.941 . S
H258 C272 0.939 . S
H259 C274 0.940 . S
H260 C275 0.940 . S
H261 C277 0.939 . S
H262 C278 0.942 . S
H263 C280 0.940 . S
H264 C281 0.939 . S
H265 C283 0.941 . S
H266 C287 0.939 . S
O267 P256 1.490 . S
H268 C284 0.939 . S
H269 C286 0.940 . S
C270 P256 1.812 . S
C270 C271 1.389 . S
C270 C275 1.391 . S
C271 H257 0.941 . S
C271 C270 1.389 . S
C271 C272 1.397 . S
C272 H258 0.939 . S
C272 C271 1.397 . S
C272 C273 1.378 . S
C273 C272 1.378 . S
C273 C274 1.378 . S
C274 H259 0.940 . S
C274 C273 1.378 . S
C274 C275 1.396 . S
C275 H260 0.940 . S
C275 C270 1.391 . S
C275 C274 1.396 . S
C276 P256 1.803 . S
C276 C277 1.378 . S
C276 C281 1.400 . S
C277 H261 0.939 . S
C277 C276 1.378 . S
C277 C278 1.361 . S
C278 H262 0.942 . S
C278 C277 1.361 . S
C278 C279 1.369 . S
C279 C278 1.369 . S
C279 C280 1.404 . S
C280 H263 0.940 . S
C280 C279 1.404 . S
C280 C281 1.389 . S
C281 H264 0.939 . S
C281 C276 1.400 . S
C281 C280 1.389 . S
C282 P256 1.819 . S
C282 C283 1.391 . S
C282 C287 1.391 . S
C283 H265 0.941 . S
C283 C282 1.391 . S
C283 C284 1.396 . S
C284 H268 0.939 . S
C284 C283 1.396 . S
C284 C285 1.397 . S
C285 C284 1.397 . S
C285 C286 1.385 . S
C286 H269 0.940 . S
C286 C285 1.385 . S
C286 C287 1.388 . S
C287 H266 0.939 . S
C287 C282 1.391 . S
C287 C286 1.388 . S
P288 O299 1.490 . S
P288 C302 1.812 1_545 S
P288 C308 1.803 . S
P288 C314 1.819 . S
H289 C303 0.941 . S
H290 C304 0.939 . S
H291 C306 0.940 . S
H292 C307 0.940 . S
H293 C309 0.939 . S
H294 C310 0.942 . S
H295 C312 0.940 1_565 S
H296 C313 0.939 . S
H297 C315 0.941 . S
H298 C319 0.939 . S
O299 P288 1.490 . S
H300 C316 0.939 . S
H301 C318 0.941 . S
C302 P288 1.812 1_565 S
C302 C303 1.389 . S
C302 C307 1.391 . S
C303 H289 0.941 . S
C303 C302 1.389 . S
C303 C304 1.397 . S
C304 H290 0.939 . S
C304 C303 1.397 . S
C304 C305 1.378 . S
C305 C304 1.378 . S
C305 C306 1.378 . S
C306 H291 0.940 . S
C306 C305 1.378 . S
C306 C307 1.396 . S
C307 H292 0.940 . S
C307 C302 1.391 . S
C307 C306 1.396 . S
C308 P288 1.803 . S
C308 C309 1.378 . S
C308 C313 1.400 1_545 S
C309 H293 0.939 . S
C309 C308 1.378 . S
C309 C310 1.361 . S
C310 H294 0.942 . S
C310 C309 1.361 . S
C310 C311 1.369 . S
C311 C310 1.369 . S
C311 C312 1.404 . S
C312 H295 0.940 1_545 S
C312 C311 1.404 . S
C312 C313 1.389 1_545 S
C313 H296 0.939 . S
C313 C308 1.400 1_565 S
C313 C312 1.389 1_565 S
C314 P288 1.819 . S
C314 C315 1.391 1_545 S
C314 C319 1.391 . S
C315 H297 0.941 . S
C315 C314 1.391 1_565 S
C315 C316 1.396 . S
C316 H300 0.939 . S
C316 C315 1.396 . S
C316 C317 1.397 . S
C317 C316 1.397 . S
C317 C318 1.381 1_565 S
C318 H301 0.941 . S
C318 C317 1.381 1_545 S
C318 C319 1.390 . S
C319 H298 0.939 . S
C319 C314 1.391 . S
C319 C318 1.390 . S
P320 O331 1.490 . S
P320 C334 1.812 . S
P320 C340 1.803 . S
P320 C346 1.819 . S
H321 C335 0.941 . S
H322 C336 0.939 . S
H323 C338 0.940 . S
H324 C339 0.940 . S
H325 C341 0.939 . S
H326 C342 0.942 . S
H327 C344 0.940 . S
H328 C345 0.939 . S
H329 C347 0.941 . S
H330 C351 0.939 . S
O331 P320 1.490 . S
H332 C348 0.939 . S
H333 C350 0.940 . S
C334 P320 1.812 . S
C334 C335 1.389 . S
C334 C339 1.391 . S
C335 H321 0.941 . S
C335 C334 1.389 . S
C335 C336 1.397 . S
C336 H322 0.939 . S
C336 C335 1.397 . S
C336 C337 1.378 . S
C337 C336 1.378 . S
C337 C338 1.378 . S
C338 H323 0.940 . S
C338 C337 1.378 . S
C338 C339 1.396 . S
C339 H324 0.940 . S
C339 C334 1.391 . S
C339 C338 1.396 . S
C340 P320 1.803 . S
C340 C341 1.378 . S
C340 C345 1.400 . S
C341 H325 0.939 . S
C341 C340 1.378 . S
C341 C342 1.361 . S
C342 H326 0.942 . S
C342 C341 1.361 . S
C342 C343 1.369 . S
C343 C342 1.369 . S
C343 C344 1.404 . S
C344 H327 0.940 . S
C344 C343 1.404 . S
C344 C345 1.389 . S
C345 H328 0.939 . S
C345 C340 1.400 . S
C345 C344 1.389 . S
C346 P320 1.819 . S
C346 C347 1.391 . S
C346 C351 1.391 . S
C347 H329 0.941 . S
C347 C346 1.391 . S
C347 C348 1.396 . S
C348 H332 0.939 . S
C348 C347 1.396 . S
C348 C349 1.397 . S
C349 C348 1.397 . S
C349 C350 1.385 . S
C350 H333 0.940 . S
C350 C349 1.385 . S
C350 C351 1.388 . S
C351 H330 0.939 . S
C351 C346 1.391 . S
C351 C350 1.388 . S
P352 O363 1.490 . S
P352 C366 1.812 . S
P352 C372 1.803 . S
P352 C378 1.819 . S
H353 C367 0.941 . S
H354 C368 0.939 . S
H355 C370 0.940 . S
H356 C371 0.940 . S
H357 C373 0.939 . S
H358 C374 0.942 . S
H359 C376 0.940 . S
H360 C377 0.939 . S
H361 C379 0.941 . S
H362 C383 0.939 . S
O363 P352 1.490 . S
H364 C380 0.939 . S
H365 C382 0.940 . S
C366 P352 1.812 . S
C366 C367 1.389 . S
C366 C371 1.391 . S
C367 H353 0.941 . S
C367 C366 1.389 . S
C367 C368 1.397 . S
C368 H354 0.939 . S
C368 C367 1.397 . S
C368 C369 1.378 . S
C369 C368 1.378 . S
C369 C370 1.378 . S
C370 H355 0.940 . S
C370 C369 1.378 . S
C370 C371 1.396 . S
C371 H356 0.940 . S
C371 C366 1.391 . S
C371 C370 1.396 . S
C372 P352 1.803 . S
C372 C373 1.378 . S
C372 C377 1.400 . S
C373 H357 0.939 . S
C373 C372 1.378 . S
C373 C374 1.361 . S
C374 H358 0.942 . S
C374 C373 1.361 . S
C374 C375 1.369 . S
C375 C374 1.369 . S
C375 C376 1.404 . S
C376 H359 0.940 . S
C376 C375 1.404 . S
C376 C377 1.389 . S
C377 H360 0.939 . S
C377 C372 1.400 . S
C377 C376 1.389 . S
C378 P352 1.819 . S
C378 C379 1.391 . S
C378 C383 1.391 . S
C379 H361 0.941 . S
C379 C378 1.391 . S
C379 C380 1.396 . S
C380 H364 0.939 . S
C380 C379 1.396 . S
C380 C381 1.397 . S
C381 C380 1.397 . S
C381 C382 1.385 . S
C382 H365 0.940 . S
C382 C381 1.385 . S
C382 C383 1.388 . S
C383 H362 0.939 . S
C383 C378 1.391 . S
C383 C382 1.388 . S
P384 O395 1.490 . S
P384 C398 1.812 . S
P384 C404 1.803 . S
P384 C410 1.819 . S
H385 C399 0.941 . S
H386 C400 0.939 . S
H387 C402 0.940 . S
H388 C403 0.940 . S
H389 C405 0.939 . S
H390 C406 0.942 . S
H391 C408 0.940 . S
H392 C409 0.939 . S
H393 C411 0.941 . S
H394 C415 0.939 . S
O395 P384 1.490 . S
H396 C412 0.939 . S
H397 C414 0.940 . S
C398 P384 1.812 . S
C398 C399 1.389 . S
C398 C403 1.391 . S
C399 H385 0.941 . S
C399 C398 1.389 . S
C399 C400 1.397 . S
C400 H386 0.939 . S
C400 C399 1.397 . S
C400 C401 1.378 . S
C401 C400 1.378 . S
C401 C402 1.378 . S
C402 H387 0.940 . S
C402 C401 1.378 . S
C402 C403 1.396 . S
C403 H388 0.940 . S
C403 C398 1.391 . S
C403 C402 1.396 . S
C404 P384 1.803 . S
C404 C405 1.378 . S
C404 C409 1.400 . S
C405 H389 0.939 . S
C405 C404 1.378 . S
C405 C406 1.361 . S
C406 H390 0.942 . S
C406 C405 1.361 . S
C406 C407 1.369 . S
C407 C406 1.369 . S
C407 C408 1.404 . S
C408 H391 0.940 . S
C408 C407 1.404 . S
C408 C409 1.389 . S
C409 H392 0.939 . S
C409 C404 1.400 . S
C409 C408 1.389 . S
C410 P384 1.819 . S
C410 C411 1.391 . S
C410 C415 1.391 . S
C411 H393 0.941 . S
C411 C410 1.391 . S
C411 C412 1.396 . S
C412 H396 0.939 . S
C412 C411 1.396 . S
C412 C413 1.397 . S
C413 C412 1.397 . S
C413 C414 1.385 . S
C414 H397 0.940 . S
C414 C413 1.385 . S
C414 C415 1.388 . S
C415 H394 0.939 . S
C415 C410 1.391 . S
C415 C414 1.388 . S
P416 O427 1.490 . S
P416 C430 1.812 . S
P416 C436 1.803 . S
P416 C442 1.819 . S
H417 C431 0.941 . S
H418 C432 0.939 . S
H419 C434 0.940 . S
H420 C435 0.940 . S
H421 C437 0.939 . S
H422 C438 0.942 . S
H423 C440 0.940 . S
H424 C441 0.939 . S
H425 C443 0.941 . S
H426 C447 0.939 . S
O427 P416 1.490 . S
H428 C444 0.939 . S
H429 C446 0.940 . S
C430 P416 1.812 . S
C430 C431 1.389 . S
C430 C435 1.391 . S
C431 H417 0.941 . S
C431 C430 1.389 . S
C431 C432 1.397 . S
C432 H418 0.939 . S
C432 C431 1.397 . S
C432 C433 1.378 . S
C433 C432 1.378 . S
C433 C434 1.378 . S
C434 H419 0.940 . S
C434 C433 1.378 . S
C434 C435 1.396 . S
C435 H420 0.940 . S
C435 C430 1.391 . S
C435 C434 1.396 . S
C436 P416 1.803 . S
C436 C437 1.378 . S
C436 C441 1.400 1_556 S
C437 H421 0.939 . S
C437 C436 1.378 . S
C437 C438 1.361 1_556 S
C438 H422 0.942 . S
C438 C437 1.361 1_554 S
C438 C439 1.369 . S
C439 C438 1.369 . S
C439 C440 1.404 . S
C440 H423 0.940 . S
C440 C439 1.404 . S
C440 C441 1.389 . S
C441 H424 0.939 . S
C441 C436 1.400 1_554 S
C441 C440 1.389 . S
C442 P416 1.819 . S
C442 C443 1.391 . S
C442 C447 1.391 . S
C443 H425 0.941 . S
C443 C442 1.391 . S
C443 C444 1.396 . S
C444 H428 0.939 . S
C444 C443 1.396 . S
C444 C445 1.397 . S
C445 C444 1.397 . S
C445 C446 1.385 . S
C446 H429 0.940 . S
C446 C445 1.385 . S
C446 C447 1.388 . S
C447 H426 0.939 . S
C447 C442 1.391 . S
C447 C446 1.388 . S
P448 O459 1.490 . S
P448 C462 1.812 . S
P448 C468 1.803 . S
P448 C474 1.819 . S
H449 C463 0.941 . S
H450 C464 0.939 . S
H451 C466 0.940 . S
H452 C467 0.940 . S
H453 C469 0.939 . S
H454 C470 0.942 . S
H455 C472 0.940 . S
H456 C473 0.939 . S
H457 C475 0.941 . S
H458 C479 0.939 . S
O459 P448 1.490 . S
H460 C476 0.939 . S
H461 C478 0.940 . S
C462 P448 1.812 . S
C462 C463 1.389 . S
C462 C467 1.391 . S
C463 H449 0.941 . S
C463 C462 1.389 . S
C463 C464 1.397 . S
C464 H450 0.939 . S
C464 C463 1.397 . S
C464 C465 1.378 . S
C465 C464 1.378 . S
C465 C466 1.378 . S
C466 H451 0.940 . S
C466 C465 1.378 . S
C466 C467 1.396 . S
C467 H452 0.940 . S
C467 C462 1.391 . S
C467 C466 1.396 . S
C468 P448 1.803 . S
C468 C469 1.378 . S
C468 C473 1.400 . S
C469 H453 0.939 . S
C469 C468 1.378 . S
C469 C470 1.361 . S
C470 H454 0.942 . S
C470 C469 1.361 . S
C470 C471 1.369 . S
C471 C470 1.369 . S
C471 C472 1.404 . S
C472 H455 0.940 . S
C472 C471 1.404 . S
C472 C473 1.389 . S
C473 H456 0.939 . S
C473 C468 1.400 . S
C473 C472 1.389 . S
C474 P448 1.819 . S
C474 C475 1.391 . S
C474 C479 1.391 . S
C475 H457 0.941 . S
C475 C474 1.391 . S
C475 C476 1.396 . S
C476 H460 0.939 . S
C476 C475 1.396 . S
C476 C477 1.397 . S
C477 C476 1.397 . S
C477 C478 1.385 . S
C478 H461 0.940 . S
C478 C477 1.385 . S
C478 C479 1.388 . S
C479 H458 0.939 . S
C479 C474 1.391 . S
C479 C478 1.388 . S
P480 O491 1.490 1_545 S
P480 C494 1.812 1_554 S
P480 C500 1.803 . S
P480 C506 1.819 1_545 S
H481 C495 0.940 1_565 S
H482 C496 0.936 1_565 S
H483 C498 0.940 . S
H484 C499 0.940 . S
H485 C501 0.939 . S
H486 C502 0.942 . S
H487 C504 0.940 . S
H488 C505 0.939 1_556 S
H489 C507 0.941 . S
H490 C511 0.945 . S
O491 P480 1.490 1_565 S
H492 C508 0.939 . S
H493 C510 0.940 . S
C494 P480 1.812 1_556 S
C494 C495 1.390 . S
C494 C499 1.391 . S
C495 H481 0.940 1_545 S
C495 C494 1.390 . S
C495 C496 1.397 . S
C496 H482 0.936 1_545 S
C496 C495 1.397 . S
C496 C497 1.381 . S
C497 C496 1.381 . S
C497 C498 1.378 . S
C498 H483 0.940 . S
C498 C497 1.378 . S
C498 C499 1.396 . S
C499 H484 0.940 . S
C499 C494 1.391 . S
C499 C498 1.396 . S
C500 P480 1.803 . S
C500 C501 1.378 . S
C500 C505 1.400 . S
C501 H485 0.939 . S
C501 C500 1.378 . S
C501 C502 1.361 . S
C502 H486 0.942 . S
C502 C501 1.361 . S
C502 C503 1.369 . S
C503 C502 1.369 . S
C503 C504 1.404 . S
C504 H487 0.940 . S
C504 C503 1.404 . S
C504 C505 1.389 . S
C505 H488 0.939 1_554 S
C505 C500 1.400 . S
C505 C504 1.389 . S
C506 P480 1.819 1_565 S
C506 C507 1.391 . S
C506 C511 1.388 1_565 S
C507 H489 0.941 . S
C507 C506 1.391 . S
C507 C508 1.396 1_554 S
C508 H492 0.939 . S
C508 C507 1.396 1_556 S
C508 C509 1.396 1_556 S
C509 C508 1.396 1_554 S
C509 C510 1.386 . S
C510 H493 0.940 . S
C510 C509 1.386 . S
C510 C511 1.386 1_565 S
C511 H490 0.945 . S
C511 C506 1.388 1_545 S
C511 C510 1.386 1_545 S
Mg512 O513 2.028 . S
Mg512 O519 1.986 1_554 S
Mg512 O521 2.114 . S
Mg512 O522 2.251 . S
Mg512 O525 2.010 . S
O513 Mg512 2.028 . S
O513 C516 1.250 1_554 S
O514 Mg515 2.028 . S
O514 C516 1.248 . S
Mg515 O514 2.028 . S
Mg515 O520 2.032 . S
Mg515 O522 2.079 1_556 S
C516 O513 1.250 1_556 S
C516 O514 1.248 . S
C517 O518 1.264 . S
C517 O525 1.249 . S
O518 C517 1.264 . S
O519 Mg512 1.986 1_556 S
O519 C523 1.246 . S
O520 Mg515 2.032 . S
O520 C523 1.259 . S
O521 Mg512 2.114 . S
O521 C524 1.252 . S
O522 Mg512 2.251 . S
O522 Mg515 2.079 1_554 S
O522 C524 1.273 . S
C523 O519 1.246 . S
C523 O520 1.259 . S
C524 O521 1.252 . S
C524 O522 1.273 . S
O525 Mg512 2.010 . S
O525 C517 1.249 . S
Mg526 O527 2.028 . S
Mg526 O533 1.986 . S
Mg526 O535 2.114 . S
Mg526 O536 2.251 . S
Mg526 O539 2.010 . S
O527 Mg526 2.028 . S
O527 C530 1.250 . S
O528 Mg529 2.028 . S
O528 C530 1.248 . S
Mg529 O528 2.028 . S
Mg529 O534 2.032 . S
Mg529 O536 2.079 . S
C530 O527 1.250 . S
C530 O528 1.248 . S
C531 O532 1.264 . S
C531 O539 1.249 . S
O532 C531 1.264 . S
O533 Mg526 1.986 . S
O533 C537 1.246 . S
O534 Mg529 2.032 . S
O534 C537 1.259 . S
O535 Mg526 2.114 . S
O535 C538 1.252 . S
O536 Mg526 2.251 . S
O536 Mg529 2.079 . S
O536 C538 1.273 . S
C537 O533 1.246 . S
C537 O534 1.259 . S
C538 O535 1.252 . S
C538 O536 1.273 . S
O539 Mg526 2.010 . S
O539 C531 1.249 . S
Mg540 O541 2.028 . S
Mg540 O547 1.986 1_554 S
Mg540 O549 2.114 . S
Mg540 O550 2.251 . S
Mg540 O553 2.010 . S
O541 Mg540 2.028 . S
O541 C544 1.250 . S
O542 Mg543 2.028 . S
O542 C544 1.248 1_556 S
Mg543 O542 2.028 . S
Mg543 O548 2.032 . S
Mg543 O550 2.079 1_556 S
C544 O541 1.250 . S
C544 O542 1.248 1_554 S
C545 O546 1.264 . S
C545 O553 1.249 . S
O546 C545 1.264 . S
O547 Mg540 1.986 1_556 S
O547 C551 1.246 . S
O548 Mg543 2.032 . S
O548 C551 1.259 . S
O549 Mg540 2.114 . S
O549 C552 1.252 . S
O550 Mg540 2.251 . S
O550 Mg543 2.079 1_554 S
O550 C552 1.273 . S
C551 O547 1.246 . S
C551 O548 1.259 . S
C552 O549 1.252 . S
C552 O550 1.273 . S
O553 Mg540 2.010 . S
O553 C545 1.249 . S
Mg554 O555 2.028 1_545 S
Mg554 O561 1.986 . S
Mg554 O563 2.114 . S
Mg554 O564 2.251 . S
Mg554 O567 2.010 . S
O555 Mg554 2.028 1_565 S
O555 C558 1.250 . S
O556 Mg557 2.028 . S
O556 C558 1.248 . S
Mg557 O556 2.028 . S
Mg557 O562 2.032 . S
Mg557 O564 2.079 1_565 S
C558 O555 1.250 . S
C558 O556 1.248 . S
C559 O560 1.264 . S
C559 O567 1.249 . S
O560 C559 1.264 . S
O561 Mg554 1.986 . S
O561 C565 1.246 1_545 S
O562 Mg557 2.032 . S
O562 C565 1.259 . S
O563 Mg554 2.114 . S
O563 C566 1.252 . S
O564 Mg554 2.251 . S
O564 Mg557 2.079 1_545 S
O564 C566 1.273 . S
C565 O561 1.246 1_565 S
C565 O562 1.259 . S
C566 O563 1.252 . S
C566 O564 1.273 . S
O567 Mg554 2.010 . S
O567 C559 1.249 . S
Mg568 O569 2.028 . S
Mg568 O575 1.986 . S
Mg568 O577 2.114 . S
Mg568 O578 2.251 . S
Mg568 O581 2.010 . S
O569 Mg568 2.028 . S
O569 C572 1.250 . S
O570 Mg571 2.028 . S
O570 C572 1.248 . S
Mg571 O570 2.028 . S
Mg571 O576 2.032 . S
Mg571 O578 2.079 . S
C572 O569 1.250 . S
C572 O570 1.248 . S
C573 O574 1.264 . S
C573 O581 1.249 . S
O574 C573 1.264 . S
O575 Mg568 1.986 . S
O575 C579 1.246 . S
O576 Mg571 2.032 . S
O576 C579 1.259 . S
O577 Mg568 2.114 . S
O577 C580 1.252 . S
O578 Mg568 2.251 . S
O578 Mg571 2.079 . S
O578 C580 1.273 . S
C579 O575 1.246 . S
C579 O576 1.259 . S
C580 O577 1.252 . S
C580 O578 1.273 . S
O581 Mg568 2.010 . S
O581 C573 1.249 . S
Mg582 O583 2.028 . S
Mg582 O589 1.986 . S
Mg582 O591 2.114 . S
Mg582 O592 2.251 . S
Mg582 O595 2.010 . S
O583 Mg582 2.028 . S
O583 C586 1.250 . S
O584 Mg585 2.028 . S
O584 C586 1.248 . S
Mg585 O584 2.028 . S
Mg585 O590 2.032 . S
Mg585 O592 2.079 . S
C586 O583 1.250 . S
C586 O584 1.248 . S
C587 O588 1.264 . S
C587 O595 1.249 . S
O588 C587 1.264 . S
O589 Mg582 1.986 . S
O589 C593 1.246 . S
O590 Mg585 2.032 . S
O590 C593 1.259 . S
O591 Mg582 2.114 . S
O591 C594 1.252 . S
O592 Mg582 2.251 . S
O592 Mg585 2.079 . S
O592 C594 1.273 . S
C593 O589 1.246 . S
C593 O590 1.259 . S
C594 O591 1.252 . S
C594 O592 1.273 . S
O595 Mg582 2.010 . S
O595 C587 1.249 . S
Mg596 O597 2.028 . S
Mg596 O603 1.986 . S
Mg596 O605 2.114 . S
Mg596 O606 2.251 . S
Mg596 O609 2.010 . S
O597 Mg596 2.028 . S
O597 C600 1.250 . S
O598 Mg599 2.028 . S
O598 C600 1.248 . S
Mg599 O598 2.028 . S
Mg599 O604 2.032 . S
Mg599 O606 2.079 . S
C600 O597 1.250 . S
C600 O598 1.248 . S
C601 O602 1.264 . S
C601 O609 1.249 . S
O602 C601 1.264 . S
O603 Mg596 1.986 . S
O603 C607 1.246 . S
O604 Mg599 2.032 . S
O604 C607 1.259 . S
O605 Mg596 2.114 . S
O605 C608 1.252 . S
O606 Mg596 2.251 . S
O606 Mg599 2.079 . S
O606 C608 1.273 . S
C607 O603 1.246 . S
C607 O604 1.259 . S
C608 O605 1.252 . S
C608 O606 1.273 . S
O609 Mg596 2.010 . S
O609 C601 1.249 . S
Mg610 O611 2.028 1_545 S
Mg610 O617 1.986 1_545 S
Mg610 O619 2.114 . S
Mg610 O620 2.251 . S
Mg610 O623 2.010 . S
O611 Mg610 2.028 1_565 S
O611 C614 1.250 . S
O612 Mg613 2.028 . S
O612 C614 1.248 . S
Mg613 O612 2.028 . S
Mg613 O618 2.032 . S
Mg613 O620 2.079 1_565 S
C614 O611 1.250 . S
C614 O612 1.248 . S
C615 O616 1.264 . S
C615 O623 1.249 . S
O616 C615 1.264 . S
O617 Mg610 1.986 1_565 S
O617 C621 1.246 . S
O618 Mg613 2.032 . S
O618 C621 1.259 . S
O619 Mg610 2.114 . S
O619 C622 1.252 . S
O620 Mg610 2.251 . S
O620 Mg613 2.079 1_545 S
O620 C622 1.273 . S
C621 O617 1.246 . S
C621 O618 1.259 . S
C622 O619 1.252 . S
C622 O620 1.273 . S
O623 Mg610 2.010 . S
O623 C615 1.249 . S
Mg624 O625 2.028 1_455 S
Mg624 O631 1.986 . S
Mg624 O633 2.114 . S
Mg624 O634 2.258 . S
Mg624 O637 2.010 . S
O625 Mg624 2.028 1_655 S
O625 C628 1.250 . S
O626 Mg627 2.028 . S
O626 C628 1.248 . S
Mg627 O626 2.028 . S
Mg627 O632 2.032 . S
Mg627 O634 2.067 1_655 S
C628 O625 1.250 . S
C628 O626 1.248 . S
C629 O630 1.264 . S
C629 O637 1.249 . S
O630 C629 1.264 . S
O631 Mg624 1.986 . S
O631 C635 1.245 . S
O632 Mg627 2.032 . S
O632 C635 1.260 1_655 S
O633 Mg624 2.114 . S
O633 C636 1.252 . S
O634 Mg624 2.258 . S
O634 Mg627 2.067 1_455 S
O634 C636 1.281 . S
C635 O631 1.245 . S
C635 O632 1.260 1_455 S
C636 O633 1.252 . S
C636 O634 1.281 . S
O637 Mg624 2.010 . S
O637 C629 1.249 . S
Mg638 O639 2.028 . S
Mg638 O645 1.986 . S
Mg638 O647 2.114 . S
Mg638 O648 2.251 . S
Mg638 O651 2.010 . S
O639 Mg638 2.028 . S
O639 C642 1.250 . S
O640 Mg641 2.028 . S
O640 C642 1.248 . S
Mg641 O640 2.028 . S
Mg641 O646 2.032 . S
Mg641 O648 2.079 . S
C642 O639 1.250 . S
C642 O640 1.248 . S
C643 O644 1.264 . S
C643 O651 1.249 . S
O644 C643 1.264 . S
O645 Mg638 1.986 . S
O645 C649 1.246 . S
O646 Mg641 2.032 . S
O646 C649 1.259 . S
O647 Mg638 2.114 . S
O647 C650 1.252 . S
O648 Mg638 2.251 . S
O648 Mg641 2.079 . S
O648 C650 1.273 . S
C649 O645 1.246 . S
C649 O646 1.259 . S
C650 O647 1.252 . S
C650 O648 1.273 . S
O651 Mg638 2.010 . S
O651 C643 1.249 . S
Mg652 O653 2.028 1_655 S
Mg652 O659 1.989 . S
Mg652 O661 2.114 . S
Mg652 O662 2.251 1_655 S
Mg652 O665 2.010 . S
O653 Mg652 2.028 1_455 S
O653 C656 1.250 . S
O654 Mg655 2.028 . S
O654 C656 1.248 . S
Mg655 O654 2.028 . S
Mg655 O660 2.032 . S
Mg655 O662 2.079 . S
C656 O653 1.250 . S
C656 O654 1.248 . S
C657 O658 1.264 . S
C657 O665 1.249 . S
O658 C657 1.264 . S
O659 Mg652 1.989 . S
O659 C663 1.237 1_655 S
O660 Mg655 2.032 . S
O660 C663 1.259 . S
O661 Mg652 2.114 . S
O661 C664 1.252 . S
O662 Mg652 2.251 1_455 S
O662 Mg655 2.079 . S
O662 C664 1.273 1_455 S
C663 O659 1.237 1_455 S
C663 O660 1.259 . S
C664 O661 1.252 . S
C664 O662 1.273 1_655 S
O665 Mg652 2.010 . S
O665 C657 1.249 . S
Mg666 O667 2.028 . S
Mg666 O673 1.986 . S
Mg666 O675 2.114 . S
Mg666 O676 2.251 . S
Mg666 O679 2.010 . S
O667 Mg666 2.028 . S
O667 C670 1.250 . S
O668 Mg669 2.028 . S
O668 C670 1.248 . S
Mg669 O668 2.028 . S
Mg669 O674 2.032 . S
Mg669 O676 2.079 . S
C670 O667 1.250 . S
C670 O668 1.248 . S
C671 O672 1.264 . S
C671 O679 1.249 . S
O672 C671 1.264 . S
O673 Mg666 1.986 . S
O673 C677 1.246 . S
O674 Mg669 2.032 . S
O674 C677 1.259 . S
O675 Mg666 2.114 . S
O675 C678 1.252 . S
O676 Mg666 2.251 . S
O676 Mg669 2.079 . S
O676 C678 1.273 . S
C677 O673 1.246 . S
C677 O674 1.259 . S
C678 O675 1.252 . S
C678 O676 1.273 . S
O679 Mg666 2.010 . S
O679 C671 1.249 . S
C523 C177 1.414 . S
C531 C209 1.195 . S
C253 C551 1.269 . S
C565 C157 1.420 . S
C580 C343 1.510 . S
C594 C401 1.436 . S
C369 C608 1.561 . S
C614 C317 1.350 . S
C375 C628 1.533 . S
C649 C305 1.629 . S
C349 C629 1.412 . S
C650 C413 1.457 . S
C241 C657 1.052 . S
C151 C663 1.393 . S
C189 C656 1.403 . S
C215 C664 1.505 . S
C113 C558 1.422 . S
C471 C559 1.132 . S
C516 C509 1.479 1_556 S
C537 C279 1.353 . S
C145 C572 1.411 . S
C622 C381 1.539 . S
C573 C311 1.148 . S
C601 C407 1.167 . S
C607 C465 1.414 . S
C497 C615 1.195 . S
C285 C579 1.269 . S
C593 C445 1.420 . S
C119 C552 1.510 . S
C566 C17 1.436 . S
C524 C49 1.561 . S
C530 C93 1.350 . S
C55 C642 1.533 . S
C81 C635 1.629 . S
C125 C643 1.412 . S
C29 C636 1.457 . S
C671 C273 1.052 . S
C677 C439 1.393 . S
C670 C477 1.403 . S
C503 C678 1.505 . S
C337 C586 1.422 . S
C587 C183 1.132 . S
C600 C221 1.479 . S
C621 C247 1.353 . S
C433 C544 1.411 1_556 S
C538 C61 1.539 . S
C87 C545 1.149 . S
C517 C23 1.167 . S
