# Generated by pormake.
# Topology rtl, (3,6)-cn, num edge types: 1
# Building blocks:
#     Node 0, Type 0, BuildingBlock: QEWDON_clean_linker_0, # of connection points: 3
#     Node 1, Type 0, BuildingBlock: QEWDON_clean_linker_0, # of connection points: 3
#     Node 2, Type 0, BuildingBlock: QEWDON_clean_linker_0, # of connection points: 3
#     Node 3, Type 0, BuildingBlock: QEWDON_clean_linker_0, # of connection points: 3
#     Node 4, Type 1, BuildingBlock: KUMBUR_clean_sbu_1, # of connection points: 6
#     Node 5, Type 1, BuildingBlock: KUMBUR_clean_sbu_1, # of connection points: 6
#     Edge 6, Type (0, 1), BuildingBlock: AJUNOK_clean_linker_0, # of connection points: 2
#     Edge 7, Type (0, 1), BuildingBlock: AJUNOK_clean_linker_0, # of connection points: 2
#     Edge 8, Type (0, 1), BuildingBlock: AJUNOK_clean_linker_0, # of connection points: 2
#     Edge 9, Type (0, 1), BuildingBlock: AJUNOK_clean_linker_0, # of connection points: 2
#     Edge 10, Type (0, 1), BuildingBlock: AJUNOK_clean_linker_0, # of connection points: 2
#     Edge 11, Type (0, 1), BuildingBlock: AJUNOK_clean_linker_0, # of connection points: 2
#     Edge 12, Type (0, 1), BuildingBlock: AJUNOK_clean_linker_0, # of connection points: 2
#     Edge 13, Type (0, 1), BuildingBlock: AJUNOK_clean_linker_0, # of connection points: 2
#     Edge 14, Type (0, 1), BuildingBlock: AJUNOK_clean_linker_0, # of connection points: 2
#     Edge 15, Type (0, 1), BuildingBlock: AJUNOK_clean_linker_0, # of connection points: 2
#     Edge 16, Type (0, 1), BuildingBlock: AJUNOK_clean_linker_0, # of connection points: 2
#     Edge 17, Type (0, 1), BuildingBlock: AJUNOK_clean_linker_0, # of connection points: 2
# Relax obj value: 0.086
# Max RMSD: 0.288
# Mean RMSD: 0.217
data_MOF--net-rtl--node1-KUMBUR_clean_sbu_1--node2-QEWDON_clean_linker_0--edge1-AJUNOK_clean_linker_0
_symmetry_space_group_name_H-M    P1
_symmetry_Int_Tables_number       1
_symmetry_cell_setting            triclinic
loop_
_symmetry_equiv_pos_as_xyz
'x, y, z'
_cell_length_a     28.321991
_cell_length_b     28.442053
_cell_length_c     20.302087
_cell_angle_alpha  75.306248
_cell_angle_beta   99.897229
_cell_angle_gamma 91.278076
loop_
_atom_site_label
_atom_site_type_symbol
_atom_site_fract_x
_atom_site_fract_y
_atom_site_fract_z
_atom_type_partial_charge
H0 H 0.25265 0.82786 0.11803 0.0
C1 C 0.23097 0.84422 0.06828 0.0
C2 C 0.18411 0.86172 0.06502 0.0
C3 C 0.25044 0.84925 1.00756 0.0
H4 H 0.12133 0.89866 0.99689 0.0
C5 C 0.1569 0.88407 0.99993 0.0
C6 C 0.17627 0.89013 0.93901 0.0
C7 C 0.22301 0.87268 0.94345 0.0
C8 C 0.30168 0.83714 1.01068 0.0
H9 H 0.23844 0.87803 0.89681 0.0
C10 C 0.31875 0.78888 0.0215 0.0
C11 C 0.36705 0.78 0.01748 0.0
C12 C 0.33341 0.87568 0.99758 0.0
H13 H 0.32101 0.91289 0.98879 0.0
C14 C 0.38113 0.86679 0.99481 0.0
H15 H 0.29448 0.75885 0.03078 0.0
C16 C 0.39779 0.8194 1.00423 0.0
H17 H 0.43491 0.8134 1.00113 0.0
H18 H 0.40521 0.89685 0.98454 0.0
H19 H 0.73308 0.72529 0.5973 0.0
C20 C 0.71396 0.71484 0.6405 0.0
C21 C 0.66879 0.69326 0.63167 0.0
C22 C 0.73584 0.71977 0.70615 0.0
H23 H 0.61196 0.65825 0.68282 0.0
C24 C 0.64536 0.67742 0.68861 0.0
C25 C 0.66645 0.68134 0.7544 0.0
C26 C 0.71158 0.70294 0.76286 0.0
C27 C 0.78668 0.73534 0.71807 0.0
H28 H 0.72852 0.70525 0.81402 0.0
C29 C 0.80325 0.77882 0.67763 0.0
C30 C 0.85192 0.79164 0.6913 0.0
C31 C 0.81955 0.70511 0.77082 0.0
H32 H 0.80819 0.67132 0.80194 0.0
C33 C 0.86753 0.71751 0.78347 0.0
H34 H 0.77845 0.80284 0.63715 0.0
C35 C 0.8836 0.76045 0.74423 0.0
H36 H 0.92093 0.76971 0.7557 0.0
H37 H 0.89237 0.69379 0.82418 0.0
H38 H 0.81034 0.19259 0.21445 0.0
C39 C 0.8279 0.19125 0.1715 0.0
C40 C 0.8725 0.16707 0.18412 0.0
C41 C 0.80522 0.21217 0.10322 0.0
H42 H 0.92647 0.14135 0.13918 0.0
C43 C 0.89355 0.16274 0.12828 0.0
C44 C 0.87232 0.18398 0.05945 0.0
C45 C 0.82805 0.20933 0.04765 0.0
C46 C 0.7544 0.22911 0.08927 0.0
H47 H 0.81066 0.22654 0.99555 0.0
C48 C 0.74018 0.27345 0.10055 0.0
C49 C 0.69105 0.28731 0.08636 0.0
C50 C 0.71932 0.19925 0.06443 0.0
H51 H 0.72946 0.16513 0.05558 0.0
C52 C 0.67093 0.21269 0.05141 0.0
H53 H 0.76692 0.2971 0.11895 0.0
C54 C 0.65686 0.25638 0.06222 0.0
H55 H 0.61909 0.26648 0.05077 0.0
H56 H 0.64423 0.18927 0.03244 0.0
H57 H 0.3237 0.30438 0.53538 0.0
C58 C 0.3405 0.32513 0.49336 0.0
C59 C 0.36618 0.36716 0.50091 0.0
C60 C 0.33825 0.3083 0.43346 0.0
H61 H 0.41017 0.42435 0.45201 0.0
C62 C 0.38876 0.39313 0.44629 0.0
C63 C 0.38602 0.37762 0.38536 0.0
C64 C 0.36077 0.3354 0.3793 0.0
C65 C 0.31711 0.25997 0.43014 0.0
H66 H 0.35939 0.32329 0.33251 0.0
C67 C 0.27377 0.24396 0.45434 0.0
C68 C 0.25539 0.19793 0.44967 0.0
C69 C 0.34186 0.22858 0.40358 0.0
H70 H 0.37567 0.23882 0.38645 0.0
C71 C 0.32408 0.18312 0.39992 0.0
H72 H 0.25389 0.26748 0.47473 0.0
C73 C 0.28122 0.16798 0.42243 0.0
H74 H 0.26812 0.13249 0.41867 0.0
H75 H 0.34368 0.15944 0.37946 0.0
Tb76 Tb 0.06216 0.97917 0.51535 0.0
C77 C 0.96476 0.1701 0.48741 0.0
N78 N 1.00283 0.15054 0.53678 0.0
C79 C 0.04293 0.22676 0.51189 0.0
C80 C 0.96572 0.2177 0.44506 0.0
C81 C 0.03969 0.17973 0.55338 0.0
C82 C 1.00636 0.24538 0.45622 0.0
C83 C 0.88119 0.16438 0.43782 0.0
C84 C 0.92296 0.14402 0.48386 0.0
C85 C 0.88302 0.21032 0.39199 0.0
C86 C 0.92527 0.23692 0.39552 0.0
Tb87 Tb 0.99434 0.0711 0.59557 0.0
N88 N 0.92275 0.09936 0.528 0.0
C89 C 0.8387 0.13833 0.44043 0.0
C90 C 0.88083 0.07518 0.53418 0.0
C91 C 0.83835 0.09393 0.48967 0.0
H92 H 0.06707 0.16683 0.59826 0.0
H93 H 0.80545 0.07409 0.4932 0.0
H94 H 0.02578 0.86975 0.58644 0.0
H95 H 0.24213 0.04949 0.52286 0.0
H96 H 0.88068 0.04079 0.57212 0.0
H97 H 0.80582 0.15268 0.40585 0.0
H98 H 0.1581 0.04233 0.46965 0.0
H99 H 0.07327 0.24887 0.52357 0.0
H100 H 0.85159 0.2262 0.35511 0.0
H101 H 0.92567 0.27306 0.36161 0.0
H102 H 0.0565 0.79952 0.68336 0.0
H103 H 1.00863 0.28205 0.42472 0.0
H104 H 0.27679 0.99047 0.6321 0.0
N105 N 0.08936 0.91004 0.59826 0.0
C106 C 0.13528 0.90991 0.63127 0.0
C107 C 0.07897 0.83049 0.66947 0.0
C108 C 0.15431 0.87102 0.68718 0.0
C109 C 0.06161 0.87032 0.61469 0.0
C110 C 0.12528 0.83117 0.70665 0.0
N111 N 0.14304 0.98477 0.55279 0.0
C112 C 0.17188 0.01834 0.51932 0.0
C113 C 0.21123 0.9503 0.63947 0.0
C114 C 0.16288 0.94919 0.60839 0.0
C115 C 0.23945 0.98816 0.60989 0.0
C116 C 0.21998 0.02162 0.54842 0.0
H117 H 0.13847 0.80052 0.74948 0.0
H118 H 0.21678 0.84403 0.76505 0.0
H119 H 0.26693 0.91333 0.72269 0.0
O120 O 0.10277 0.96011 0.4477 0.0
O121 O 0.0565 0.96596 0.62537 0.0
O122 O 0.06409 0.03941 0.65196 0.0
O123 O 0.02912 0.94074 0.4439 0.0
O124 O 0.07726 0.05762 0.48728 0.0
O125 O 0.06948 0.08683 0.5814 0.0
O126 O 0.98494 0.04699 0.70033 0.0
O127 O 0.96297 0.04818 0.50227 0.0
O128 O 0.02465 0.04415 0.44534 0.0
O129 O 0.96312 0.1184 0.64065 0.0
O130 O 0.96599 0.99649 0.61207 0.0
O131 O 0.98965 0.95477 0.53593 0.0
C132 C 0.0742 0.99265 0.6674 0.0
C133 C 0.07927 0.89387 0.39944 0.0
C134 C 0.1074 0.85475 0.31788 0.0
C135 C 0.09807 0.80925 0.3599 0.0
C136 C 0.07036 0.84798 0.44038 0.0
C137 C 0.07994 0.80598 0.42075 0.0
C138 C 0.09837 0.89703 0.33853 0.0
C139 C 0.08966 0.08759 0.52713 0.0
C140 C 0.06762 0.93904 0.41749 0.0
C141 C 0.20161 0.87317 0.72121 0.0
C142 C 0.23008 0.91275 0.69729 0.0
C143 C 0.98094 0.0584 0.44529 0.0
C144 C 0.98979 0.11097 0.75737 0.0
C145 C 0.97821 0.14942 0.84923 0.0
C146 C 0.02348 0.17073 0.84497 0.0
C147 C 0.03522 0.13134 0.75631 0.0
C148 C 0.96211 0.11867 0.80527 0.0
C149 C 0.05194 0.16091 0.80009 0.0
C150 C 0.96306 0.95952 0.58232 0.0
C151 C 0.96815 0.08885 0.7014 0.0
H152 H 0.10504 0.77613 0.34573 0.0
H153 H 0.05563 0.84458 0.48707 0.0
H154 H 0.07295 0.77067 0.45262 0.0
H155 H 0.10511 0.9324 0.30637 0.0
H156 H 0.03703 0.19567 0.87572 0.0
H157 H 0.05691 0.12586 0.7197 0.0
H158 H 0.928 0.10097 0.80713 0.0
H159 H 0.08661 0.17747 0.79787 0.0
Tb160 Tb 0.47821 0.50313 1.00368 0.0
C161 C 0.68279 0.57254 0.12195 0.0
N162 N 0.65707 0.53458 0.15176 0.0
C163 C 0.72886 0.48519 0.19332 0.0
C164 C 0.73274 0.56813 0.12612 0.0
C165 C 0.67937 0.49137 0.18799 0.0
C166 C 0.75567 0.52368 0.16216 0.0
C167 C 0.68365 0.65559 0.05247 0.0
C168 C 0.65864 0.61569 0.08565 0.0
C169 C 0.7335 0.65152 0.05677 0.0
C170 C 0.75799 0.60793 0.09359 0.0
Tb171 Tb 0.57671 0.54933 0.13926 0.0
N172 N 0.61012 0.61759 0.08031 0.0
C173 C 0.65771 0.69817 0.01551 0.0
C174 C 0.58493 0.65972 0.04692 0.0
C175 C 0.6082 0.70035 1.01323 0.0
H176 H 0.65922 0.46186 0.21403 0.0
H177 H 0.58795 0.73338 0.98572 0.0
H178 H 0.37998 0.5664 0.99533 0.0
H179 H 0.51851 0.30905 0.09117 0.0
H180 H 0.54698 0.66225 0.04584 0.0
H181 H 0.67557 0.72963 0.98908 0.0
H182 H 0.52919 0.39258 0.02579 0.0
H183 H 0.74635 0.45083 0.22186 0.0
H184 H 0.75338 0.68175 0.03148 0.0
H185 H 0.79639 0.60522 0.09609 0.0
H186 H 0.30271 0.55182 0.03764 0.0
H187 H 0.794 0.51876 0.16638 0.0
H188 H 0.44862 0.28914 0.15061 0.0
N189 N 0.40505 0.49327 0.0376 0.0
C190 C 0.39505 0.44749 0.0719 0.0
C191 C 0.32848 0.52222 0.04781 0.0
C192 C 0.35174 0.43758 0.09742 0.0
C193 C 0.37223 0.53042 0.02407 0.0
C194 C 0.31831 0.4757 0.08504 0.0
N195 N 0.47071 0.4223 0.05709 0.0
C196 C 0.50063 0.38563 0.0556 0.0
C197 C 0.42045 0.36309 0.11831 0.0
C198 C 0.42936 0.41101 0.0829 0.0
C199 C 0.45407 0.32643 0.12381 0.0
C200 C 0.49374 0.3376 0.09081 0.0
H201 H 0.28456 0.46959 0.10383 0.0
H202 H 0.31065 0.38195 0.15569 0.0
H203 H 0.37064 0.31662 0.17352 0.0
O204 O 0.48151 0.47078 0.92171 0.0
O205 O 0.4643 0.50454 0.10749 0.0
O206 O 0.5355 0.4864 0.18236 0.0
O207 O 0.42432 0.5203 0.91497 0.0
O208 O 0.55239 0.47373 0.02639 0.0
O209 O 0.57897 0.47208 0.14085 0.0
O210 O 0.56233 0.5991 0.19395 0.0
O211 O 0.59282 0.55779 0.03507 0.0
O212 O 0.52098 0.56497 0.95863 0.0
O213 O 0.61507 0.54164 0.24023 0.0
O214 O 0.50555 0.58648 0.10783 0.0
O215 O 0.47188 0.58089 0.9972 0.0
C216 C 0.48883 0.48241 0.16811 0.0
C217 C 0.40703 0.45762 0.85694 0.0
C218 C 0.37791 0.41634 0.76589 0.0
C219 C 0.34379 0.39292 0.80494 0.0
C220 C 0.37201 0.4343 0.89416 0.0
C221 C 0.34076 0.40209 0.86839 0.0
C222 C 0.4096 0.44884 0.79222 0.0
C223 C 0.58159 0.45674 0.08562 0.0
C224 C 0.44129 0.49049 0.88545 0.0
C225 C 0.34352 0.39026 0.13495 0.0
C226 C 0.3778 0.35311 0.1454 0.0
C227 C 0.56739 0.57213 0.97274 0.0
C228 C 0.57678 0.57342 0.31473 0.0
C229 C 0.58149 0.60047 0.4202 0.0
C230 C 0.54279 0.57065 0.43719 0.0
C231 C 0.53815 0.54393 0.33201 0.0
C232 C 0.59855 0.60125 0.35906 0.0
C233 C 0.5214 0.54245 0.39333 0.0
C234 C 0.4752 0.60164 0.04905 0.0
C235 C 0.59306 0.57871 0.2487 0.0
H236 H 0.31899 0.36791 0.78583 0.0
H237 H 0.36857 0.44098 0.943 0.0
H238 H 0.314 0.38421 0.89772 0.0
H239 H 0.43648 0.46667 0.76295 0.0
H240 H 0.52939 0.56888 0.48461 0.0
H241 H 0.52076 0.52265 0.29788 0.0
H242 H 0.62805 0.6245 0.3451 0.0
H243 H 0.49159 0.51964 0.4067 0.0
C244 C 0.17339 0.16703 0.42031 0.0
C245 C 0.20872 0.17991 0.47 0.0
C246 C 0.13397 0.1394 0.43918 0.0
C247 C 0.12776 0.12343 0.50866 0.0
H248 H 0.17766 0.17617 0.36653 0.0
H249 H 0.1096 0.12824 0.39908 0.0
S250 S 0.20928 0.14886 0.65881 0.0
N251 N 0.23427 0.17611 0.59164 0.0
N252 N 0.15986 0.12428 0.62737 0.0
C253 C 0.16155 0.13816 0.55871 0.0
C254 C 0.20205 0.16633 0.53933 0.0
C255 C 0.40005 0.71811 0.96805 0.0
C256 C 0.38686 0.73046 0.02542 0.0
C257 C 0.42707 0.67553 0.97577 0.0
C258 C 0.44298 0.6442 0.04145 0.0
H259 H 0.39073 0.74248 0.917 0.0
H260 H 0.43726 0.66825 0.93021 0.0
S261 S 0.41565 0.65896 0.20776 0.0
N262 N 0.38968 0.70697 0.14949 0.0
N263 N 0.44079 0.6273 0.16461 0.0
C264 C 0.42868 0.65547 0.09901 0.0
C265 C 0.40057 0.69847 0.09086 0.0
C266 C 0.89353 0.84095 0.59761 0.0
C267 C 0.87092 0.83846 0.65484 0.0
C268 C 0.92141 0.88109 0.57251 0.0
C269 C 0.92853 0.92006 0.6044 0.0
H270 H 0.89136 0.81066 0.57396 0.0
H271 H 0.93885 0.88059 0.52922 0.0
S272 S 0.8751 0.93078 0.75547 0.0
N273 N 0.85584 0.87841 0.74138 0.0
N274 N 0.90798 0.95348 0.69565 0.0
C275 C 0.90438 0.91843 0.66044 0.0
C276 C 0.87585 0.87771 0.68539 0.0
C277 C 0.65513 0.3382 0.15048 0.0
C278 C 0.67371 0.33489 0.09174 0.0
C279 C 0.62763 0.37911 0.14977 0.0
C280 C 0.61684 0.41753 0.08971 0.0
H281 H 0.65984 0.30791 0.19601 0.0
H282 H 0.61241 0.37928 0.19514 0.0
S283 S 0.65985 0.42752 0.9241 0.0
N284 N 0.68191 0.37459 0.97377 0.0
N285 N 0.62981 0.4508 0.97167 0.0
C286 C 0.637 0.41537 0.03178 0.0
C287 C 0.66547 0.3742 0.03296 0.0
C288 C 0.1892 0.87938 0.1818 0.0
C289 C 0.16428 0.85914 0.12955 0.0
C290 C 0.17016 0.87898 0.24173 0.0
C291 C 0.12589 0.85751 0.25233 0.0
H292 H 0.22341 0.89624 0.17585 0.0
H293 H 0.19059 0.89485 0.28059 0.0
S294 S 0.04655 0.79948 0.13166 0.0
N295 N 0.09281 0.81737 0.09255 0.0
N296 N 0.05759 0.81583 0.20521 0.0
C297 C 0.10077 0.83706 0.20061 0.0
C298 C 0.11976 0.83812 0.13929 0.0
C299 C 0.5939 0.66515 0.81243 0.0
C300 C 0.64309 0.65684 0.81421 0.0
C301 C 0.56934 0.63732 0.86317 0.0
C302 C 0.59299 0.59999 0.91752 0.0
H303 H 0.5741 0.69298 0.77076 0.0
H304 H 0.53168 0.64534 0.86002 0.0
S305 S 0.72068 0.56116 0.94283 0.0
N306 N 0.71387 0.60723 0.87333 0.0
N307 N 0.66805 0.55487 0.96816 0.0
C308 C 0.64214 0.59127 0.91971 0.0
C309 C 0.6671 0.61973 0.86836 0.0
C310 C 0.87737 0.10454 0.29759 0.0
C311 C 0.8976 0.1439 0.25504 0.0
C312 C 0.90441 0.07707 0.35968 0.0
C313 C 0.95247 0.08805 0.38075 0.0
H314 H 0.84114 0.09384 0.28152 0.0
H315 H 0.88801 0.04645 0.39061 0.0
S316 S 1.01951 0.19142 0.29234 0.0
N317 N 0.9668 0.19512 0.2415 0.0
N318 N 1.0173 0.14363 0.35779 0.0
C319 C 0.97223 0.12844 0.34003 0.0
C320 C 0.94481 0.15644 0.27737 0.0
C321 C 0.38121 0.34572 0.63098 0.0
C322 C 0.37186 0.38163 0.56781 0.0
C323 C 0.38469 0.35756 0.69462 0.0
C324 C 0.37969 0.4059 0.69811 0.0
H325 H 0.3857 0.30792 0.63141 0.0
H326 H 0.39082 0.3285 0.74166 0.0
S327 S 0.35507 0.51387 0.54903 0.0
N328 N 0.35743 0.46797 0.51348 0.0
N329 N 0.36539 0.49008 0.63345 0.0
C330 C 0.37167 0.44242 0.63586 0.0
C331 C 0.36747 0.43035 0.57074 0.0
C332 C 0.67578 0.64998 0.54071 0.0
C333 C 0.64843 0.67936 0.56698 0.0
C334 C 0.65416 0.62601 0.4911 0.0
C335 C 0.60445 0.63033 0.46656 0.0
H336 H 0.71351 0.64296 0.56178 0.0
H337 H 0.67607 0.60199 0.47446 0.0
S338 S 0.51853 0.70905 0.51053 0.0
N339 N 0.57025 0.71619 0.55838 0.0
N340 N 0.52962 0.67069 0.46582 0.0
C341 C 0.57736 0.66209 0.48897 0.0
C342 C 0.59938 0.6868 0.53888 0.0
C343 C 0.9477 0.17694 1.01211 0.0
C344 C 0.89716 0.17815 1.00194 0.0
C345 C 0.97281 0.16676 0.96352 0.0
C346 C 0.94911 0.15951 0.89999 0.0
H347 H 0.9686 0.18341 0.05876 0.0
H348 H 1.01149 0.16402 0.97693 0.0
S349 S 0.81673 0.16301 0.84376 0.0
N350 N 0.82403 0.17123 0.92243 0.0
N351 N 0.87125 0.15825 0.82737 0.0
C352 C 0.89844 0.16277 0.88736 0.0
C353 C 0.87261 0.17103 0.93866 0.0
C354 C 0.39432 0.44823 0.28446 0.0
C355 C 0.4123 0.40379 0.32975 0.0
C356 C 0.41904 0.47336 0.23191 0.0
C357 C 0.463 0.45535 0.22359 0.0
H358 H 0.36081 0.46347 0.28947 0.0
H359 H 0.40388 0.50739 0.19801 0.0
S360 S 0.52463 0.34011 0.32803 0.0
N361 N 0.47598 0.34241 0.36195 0.0
N362 N 0.52282 0.38994 0.26447 0.0
C363 C 0.48127 0.41105 0.26873 0.0
C364 C 0.45577 0.38515 0.32136 0.0
C365 C 0.16746 0.95891 0.8314 0.0
C366 C 0.14875 0.91678 0.87082 0.0
C367 C 0.14235 0.9844 0.76655 0.0
C368 C 0.09823 0.96796 0.73818 0.0
H369 H 0.20175 0.97228 0.85098 0.0
H370 H 0.15822 0.01631 0.73753 0.0
S371 S 0.0337 0.85992 0.82019 0.0
N372 N 0.08306 0.86036 0.87685 0.0
N373 N 0.03651 0.90749 0.75459 0.0
C374 C 0.07912 0.92603 0.77702 0.0
C375 C 0.1042 0.90065 0.84345 0.0
loop_
_geom_bond_atom_site_label_1
_geom_bond_atom_site_label_2
_geom_bond_distance
_geom_bond_site_symmetry_2
_ccdc_geom_bond_type
H0 C1 0.949 . S
C1 H0 0.949 . S
C1 C2 1.395 . S
C1 C3 1.391 . S
C2 C1 1.395 . S
C2 C5 1.390 . S
C3 C1 1.391 . S
C3 C7 1.387 1_554 S
C3 C8 1.491 . S
H4 C5 0.950 . S
C5 C2 1.390 . S
C5 H4 0.950 . S
C5 C6 1.378 1_554 S
C6 C5 1.378 1_556 S
C6 C7 1.409 . S
C7 C3 1.387 1_556 S
C7 C6 1.409 . S
C7 H9 0.951 . S
C8 C3 1.491 . S
C8 C10 1.382 . S
C8 C12 1.404 1_554 S
H9 C7 0.951 . S
C10 C8 1.382 . S
C10 C11 1.390 . S
C10 H15 0.949 . S
C11 C10 1.390 . S
C11 C16 1.399 . S
C12 C8 1.404 1_556 S
C12 H13 0.950 . S
C12 C14 1.375 . S
H13 C12 0.950 . S
C14 C12 1.375 . S
C14 C16 1.382 1_556 S
C14 H18 0.950 . S
H15 C10 0.949 . S
C16 C11 1.399 . S
C16 C14 1.382 1_554 S
C16 H17 0.952 . S
H17 C16 0.952 . S
H18 C14 0.950 . S
H19 C20 0.949 . S
C20 H19 0.949 . S
C20 C21 1.395 . S
C20 C22 1.391 . S
C21 C20 1.395 . S
C21 C24 1.390 . S
C22 C20 1.391 . S
C22 C26 1.387 . S
C22 C27 1.491 . S
H23 C24 0.950 . S
C24 C21 1.390 . S
C24 H23 0.950 . S
C24 C25 1.378 . S
C25 C24 1.378 . S
C25 C26 1.409 . S
C26 C22 1.387 . S
C26 C25 1.409 . S
C26 H28 0.951 . S
C27 C22 1.491 . S
C27 C29 1.382 . S
C27 C31 1.404 . S
H28 C26 0.951 . S
C29 C27 1.382 . S
C29 C30 1.390 . S
C29 H34 0.949 . S
C30 C29 1.390 . S
C30 C35 1.399 . S
C31 C27 1.404 . S
C31 H32 0.950 . S
C31 C33 1.375 . S
H32 C31 0.950 . S
C33 C31 1.375 . S
C33 C35 1.382 . S
C33 H37 0.950 . S
H34 C29 0.949 . S
C35 C30 1.399 . S
C35 C33 1.382 . S
C35 H36 0.952 . S
H36 C35 0.952 . S
H37 C33 0.950 . S
H38 C39 0.949 . S
C39 H38 0.949 . S
C39 C40 1.395 . S
C39 C41 1.391 . S
C40 C39 1.395 . S
C40 C43 1.390 . S
C41 C39 1.391 . S
C41 C45 1.387 . S
C41 C46 1.491 . S
H42 C43 0.950 . S
C43 C40 1.390 . S
C43 H42 0.950 . S
C43 C44 1.378 . S
C44 C43 1.378 . S
C44 C45 1.409 . S
C45 C41 1.387 . S
C45 C44 1.409 . S
C45 H47 0.951 1_554 S
C46 C41 1.491 . S
C46 C48 1.382 . S
C46 C50 1.404 1_554 S
H47 C45 0.951 1_556 S
C48 C46 1.382 . S
C48 C49 1.390 . S
C48 H53 0.949 . S
C49 C48 1.390 . S
C49 C54 1.399 . S
C50 C46 1.404 1_556 S
C50 H51 0.950 . S
C50 C52 1.375 . S
H51 C50 0.950 . S
C52 C50 1.375 . S
C52 C54 1.382 1_556 S
C52 H56 0.950 . S
H53 C48 0.949 . S
C54 C49 1.399 . S
C54 C52 1.382 1_554 S
C54 H55 0.952 1_554 S
H55 C54 0.952 1_556 S
H56 C52 0.950 . S
H57 C58 0.949 . S
C58 H57 0.949 . S
C58 C59 1.395 . S
C58 C60 1.391 . S
C59 C58 1.395 . S
C59 C62 1.390 . S
C60 C58 1.391 . S
C60 C64 1.387 . S
C60 C65 1.491 . S
H61 C62 0.950 . S
C62 C59 1.390 . S
C62 H61 0.950 . S
C62 C63 1.378 . S
C63 C62 1.378 . S
C63 C64 1.409 . S
C64 C60 1.387 . S
C64 C63 1.409 . S
C64 H66 0.951 . S
C65 C60 1.491 . S
C65 C67 1.382 . S
C65 C69 1.404 . S
H66 C64 0.951 . S
C67 C65 1.382 . S
C67 C68 1.390 . S
C67 H72 0.949 . S
C68 C67 1.390 . S
C68 C73 1.399 . S
C69 C65 1.404 . S
C69 H70 0.950 . S
C69 C71 1.375 . S
H70 C69 0.950 . S
C71 C69 1.375 . S
C71 C73 1.382 . S
C71 H75 0.950 . S
H72 C67 0.949 . S
C73 C68 1.399 . S
C73 C71 1.382 . S
C73 H74 0.952 . S
H74 C73 0.952 . S
H75 C71 0.950 . S
Tb76 N105 2.617 . S
Tb76 N111 2.572 . S
Tb76 O120 2.465 . S
Tb76 O121 2.387 . S
Tb76 O123 2.428 . S
Tb76 O124 2.308 1_565 S
Tb76 O128 2.349 1_465 S
Tb76 O131 2.393 1_455 S
Tb76 C140 2.802 . S
C77 N78 1.379 . S
C77 C80 1.416 . S
C77 C84 1.424 . S
N78 C77 1.379 . S
N78 C81 1.334 1_655 S
N78 Tb87 2.617 . S
C79 C81 1.390 . S
C79 C82 1.339 1_455 S
C79 H99 0.930 . S
C80 C77 1.416 . S
C80 C82 1.416 . S
C80 C86 1.448 . S
C81 N78 1.334 1_455 S
C81 C79 1.390 . S
C81 H92 0.930 . S
C82 C79 1.339 1_655 S
C82 C80 1.416 . S
C82 H103 0.930 . S
C83 C84 1.413 . S
C83 C85 1.427 . S
C83 C89 1.416 . S
C84 C77 1.424 . S
C84 C83 1.413 . S
C84 N88 1.361 . S
C85 C83 1.427 . S
C85 C86 1.328 . S
C85 H100 0.929 . S
C86 C80 1.448 . S
C86 C85 1.328 . S
C86 H101 0.930 . S
Tb87 N78 2.617 . S
Tb87 N88 2.572 . S
Tb87 O122 2.349 1_655 S
Tb87 O125 2.393 1_655 S
Tb87 O126 2.465 . S
Tb87 O127 2.387 . S
Tb87 O129 2.428 . S
Tb87 O130 2.308 1_545 S
Tb87 C151 2.802 . S
N88 C84 1.361 . S
N88 Tb87 2.572 . S
N88 C90 1.340 . S
C89 C83 1.416 . S
C89 C91 1.332 . S
C89 H97 0.931 . S
C90 N88 1.340 . S
C90 C91 1.407 . S
C90 H96 0.930 . S
C91 C89 1.332 . S
C91 C90 1.407 . S
C91 H93 0.929 . S
H92 C81 0.930 . S
H93 C91 0.929 . S
H94 C109 0.930 1_655 S
H95 C116 0.929 . S
H96 C90 0.930 . S
H97 C89 0.931 . S
H98 C112 0.930 . S
H99 C79 0.930 . S
H100 C85 0.929 . S
H101 C86 0.930 . S
H102 C107 0.930 1_655 S
H103 C82 0.930 . S
H104 C115 0.931 . S
N105 Tb76 2.617 . S
N105 C106 1.379 . S
N105 C109 1.334 . S
C106 N105 1.379 . S
C106 C108 1.416 . S
C106 C114 1.424 . S
C107 H102 0.930 1_455 S
C107 C109 1.390 . S
C107 C110 1.339 . S
C108 C106 1.416 . S
C108 C110 1.416 . S
C108 C141 1.448 . S
C109 H94 0.930 1_455 S
C109 N105 1.334 . S
C109 C107 1.390 . S
C110 C107 1.339 . S
C110 C108 1.416 . S
C110 H117 0.930 . S
N111 Tb76 2.572 . S
N111 C112 1.340 . S
N111 C114 1.361 . S
C112 H98 0.930 . S
C112 N111 1.340 . S
C112 C116 1.407 . S
C113 C114 1.413 . S
C113 C115 1.416 . S
C113 C142 1.427 . S
C114 C106 1.424 . S
C114 N111 1.361 . S
C114 C113 1.413 . S
C115 H104 0.931 . S
C115 C113 1.416 . S
C115 C116 1.332 . S
C116 H95 0.929 . S
C116 C112 1.407 . S
C116 C115 1.332 . S
H117 C110 0.930 . S
H118 C141 0.930 . S
H119 C142 0.929 . S
O120 Tb76 2.465 . S
O120 C140 1.264 . S
O121 Tb76 2.387 . S
O121 C132 1.264 . S
O122 Tb87 2.349 1_455 S
O122 C132 1.243 1_545 S
O123 Tb76 2.428 . S
O123 C140 1.256 . S
O124 Tb76 2.308 1_545 S
O124 C139 1.266 . S
O125 Tb87 2.393 1_455 S
O125 C139 1.248 . S
O126 Tb87 2.465 . S
O126 C151 1.264 . S
O127 Tb87 2.387 . S
O127 C143 1.264 . S
O128 Tb76 2.349 1_645 S
O128 C143 1.243 . S
O129 Tb87 2.428 . S
O129 C151 1.256 . S
O130 Tb87 2.308 1_565 S
O130 C150 1.266 . S
O131 Tb76 2.393 1_655 S
O131 C150 1.248 . S
C132 O121 1.264 . S
C132 O122 1.243 1_565 S
C133 C136 1.399 . S
C133 C138 1.383 . S
C133 C140 1.496 . S
C134 C135 1.399 . S
C134 C138 1.389 . S
C135 C134 1.399 . S
C135 C137 1.380 . S
C135 H152 0.929 . S
C136 C133 1.399 . S
C136 C137 1.392 . S
C136 H153 0.929 . S
C137 C135 1.380 . S
C137 C136 1.392 . S
C137 H154 0.929 . S
C138 C133 1.383 . S
C138 C134 1.389 . S
C138 H155 0.931 . S
C139 O124 1.266 . S
C139 O125 1.248 . S
C140 Tb76 2.802 . S
C140 O120 1.264 . S
C140 O123 1.256 . S
C140 C133 1.496 . S
C141 C108 1.448 . S
C141 H118 0.930 . S
C141 C142 1.328 . S
C142 C113 1.427 . S
C142 H119 0.929 . S
C142 C141 1.328 . S
C143 O127 1.264 . S
C143 O128 1.243 . S
C144 C147 1.399 . S
C144 C148 1.383 . S
C144 C151 1.496 . S
C145 C146 1.399 . S
C145 C148 1.389 . S
C146 C145 1.399 . S
C146 C149 1.380 . S
C146 H156 0.929 . S
C147 C144 1.399 . S
C147 C149 1.392 . S
C147 H157 0.929 . S
C148 C144 1.383 . S
C148 C145 1.389 . S
C148 H158 0.931 . S
C149 C146 1.380 . S
C149 C147 1.392 . S
C149 H159 0.929 . S
C150 O130 1.266 . S
C150 O131 1.248 . S
C151 Tb87 2.802 . S
C151 O126 1.264 . S
C151 O129 1.256 . S
C151 C144 1.496 . S
H152 C135 0.929 . S
H153 C136 0.929 . S
H154 C137 0.929 . S
H155 C138 0.931 . S
H156 C146 0.929 . S
H157 C147 0.929 . S
H158 C148 0.931 . S
H159 C149 0.929 . S
Tb160 N189 2.617 . S
Tb160 N195 2.572 . S
Tb160 O204 2.465 1_554 S
Tb160 O205 2.387 . S
Tb160 O207 2.428 1_554 S
Tb160 O208 2.308 . S
Tb160 O212 2.349 1_554 S
Tb160 O215 2.393 . S
Tb160 C224 2.802 1_554 S
C161 N162 1.379 . S
C161 C164 1.416 . S
C161 C168 1.424 . S
N162 C161 1.379 . S
N162 C165 1.334 . S
N162 Tb171 2.617 . S
C163 C165 1.390 . S
C163 C166 1.339 . S
C163 H183 0.930 . S
C164 C161 1.416 . S
C164 C166 1.416 . S
C164 C170 1.448 . S
C165 N162 1.334 . S
C165 C163 1.390 . S
C165 H176 0.930 . S
C166 C163 1.339 . S
C166 C164 1.416 . S
C166 H187 0.930 . S
C167 C168 1.413 . S
C167 C169 1.427 . S
C167 C173 1.416 . S
C168 C161 1.424 . S
C168 C167 1.413 . S
C168 N172 1.361 . S
C169 C167 1.427 . S
C169 C170 1.328 . S
C169 H184 0.929 . S
C170 C164 1.448 . S
C170 C169 1.328 . S
C170 H185 0.930 . S
Tb171 N162 2.617 . S
Tb171 N172 2.572 . S
Tb171 O206 2.349 . S
Tb171 O209 2.393 . S
Tb171 O210 2.465 . S
Tb171 O211 2.387 . S
Tb171 O213 2.428 . S
Tb171 O214 2.308 . S
Tb171 C235 2.802 . S
N172 C168 1.361 . S
N172 Tb171 2.572 . S
N172 C174 1.340 . S
C173 C167 1.416 . S
C173 C175 1.332 . S
C173 H181 0.931 . S
C174 N172 1.340 . S
C174 C175 1.407 . S
C174 H180 0.930 . S
C175 C173 1.332 . S
C175 C174 1.407 . S
C175 H177 0.929 . S
H176 C165 0.930 . S
H177 C175 0.929 . S
H178 C193 0.930 . S
H179 C200 0.929 . S
H180 C174 0.930 . S
H181 C173 0.931 . S
H182 C196 0.930 . S
H183 C163 0.930 . S
H184 C169 0.929 . S
H185 C170 0.930 . S
H186 C191 0.930 . S
H187 C166 0.930 . S
H188 C199 0.931 . S
N189 Tb160 2.617 . S
N189 C190 1.379 . S
N189 C193 1.334 1_554 S
C190 N189 1.379 . S
C190 C192 1.416 . S
C190 C198 1.424 . S
C191 H186 0.930 . S
C191 C193 1.390 . S
C191 C194 1.339 1_556 S
C192 C190 1.416 . S
C192 C194 1.416 . S
C192 C225 1.448 . S
C193 H178 0.930 . S
C193 N189 1.334 1_556 S
C193 C191 1.390 . S
C194 C191 1.339 1_554 S
C194 C192 1.416 . S
C194 H201 0.930 . S
N195 Tb160 2.572 . S
N195 C196 1.340 . S
N195 C198 1.361 . S
C196 H182 0.930 . S
C196 N195 1.340 . S
C196 C200 1.407 . S
C197 C198 1.413 . S
C197 C199 1.416 . S
C197 C226 1.427 . S
C198 C190 1.424 . S
C198 N195 1.361 . S
C198 C197 1.413 . S
C199 H188 0.931 . S
C199 C197 1.416 . S
C199 C200 1.332 . S
C200 H179 0.929 . S
C200 C196 1.407 . S
C200 C199 1.332 . S
H201 C194 0.930 . S
H202 C225 0.930 . S
H203 C226 0.929 . S
O204 Tb160 2.465 1_556 S
O204 C224 1.264 . S
O205 Tb160 2.387 . S
O205 C216 1.264 . S
O206 Tb171 2.349 . S
O206 C216 1.243 . S
O207 Tb160 2.428 1_556 S
O207 C224 1.256 . S
O208 Tb160 2.308 . S
O208 C223 1.266 . S
O209 Tb171 2.393 . S
O209 C223 1.248 . S
O210 Tb171 2.465 . S
O210 C235 1.264 . S
O211 Tb171 2.387 . S
O211 C227 1.264 1_554 S
O212 Tb160 2.349 1_556 S
O212 C227 1.243 . S
O213 Tb171 2.428 . S
O213 C235 1.256 . S
O214 Tb171 2.308 . S
O214 C234 1.266 . S
O215 Tb160 2.393 . S
O215 C234 1.248 . S
C216 O205 1.264 . S
C216 O206 1.243 . S
C217 C220 1.399 . S
C217 C222 1.383 . S
C217 C224 1.496 . S
C218 C219 1.399 . S
C218 C222 1.389 . S
C219 C218 1.399 . S
C219 C221 1.380 . S
C219 H236 0.929 . S
C220 C217 1.399 . S
C220 C221 1.392 . S
C220 H237 0.929 . S
C221 C219 1.380 . S
C221 C220 1.392 . S
C221 H238 0.929 . S
C222 C217 1.383 . S
C222 C218 1.389 . S
C222 H239 0.931 . S
C223 O208 1.266 . S
C223 O209 1.248 . S
C224 Tb160 2.802 1_556 S
C224 O204 1.264 . S
C224 O207 1.256 . S
C224 C217 1.496 . S
C225 C192 1.448 . S
C225 H202 0.930 . S
C225 C226 1.328 . S
C226 C197 1.427 . S
C226 H203 0.929 . S
C226 C225 1.328 . S
C227 O211 1.264 1_556 S
C227 O212 1.243 . S
C228 C231 1.399 . S
C228 C232 1.383 . S
C228 C235 1.496 . S
C229 C230 1.399 . S
C229 C232 1.389 . S
C230 C229 1.399 . S
C230 C233 1.380 . S
C230 H240 0.929 . S
C231 C228 1.399 . S
C231 C233 1.392 . S
C231 H241 0.929 . S
C232 C228 1.383 . S
C232 C229 1.389 . S
C232 H242 0.931 . S
C233 C230 1.380 . S
C233 C231 1.392 . S
C233 H243 0.929 . S
C234 O214 1.266 . S
C234 O215 1.248 . S
C235 Tb171 2.802 . S
C235 O210 1.264 . S
C235 O213 1.256 . S
C235 C228 1.496 . S
H236 C219 0.929 . S
H237 C220 0.929 . S
H238 C221 0.929 . S
H239 C222 0.931 . S
H240 C230 0.929 . S
H241 C231 0.929 . S
H242 C232 0.931 . S
H243 C233 0.929 . S
C244 C245 1.369 . S
C244 C246 1.419 . S
C244 H248 0.930 . S
C245 C244 1.369 . S
C245 C254 1.429 . S
C246 C244 1.419 . S
C246 C247 1.363 . S
C246 H249 0.929 . S
C247 C246 1.363 . S
C247 C253 1.428 . S
H248 C244 0.930 . S
H249 C246 0.929 . S
S250 N251 1.613 . S
S250 N252 1.610 . S
N251 S250 1.613 . S
N251 C254 1.350 . S
N252 S250 1.610 . S
N252 C253 1.351 . S
C253 C247 1.428 . S
C253 N252 1.351 . S
C253 C254 1.434 . S
C254 C245 1.429 . S
C254 N251 1.350 . S
C254 C253 1.434 . S
C255 C256 1.369 . S
C255 C257 1.419 . S
C255 H259 0.930 . S
C256 C255 1.369 . S
C256 C265 1.429 . S
C257 C255 1.419 . S
C257 C258 1.363 . S
C257 H260 0.929 . S
C258 C257 1.363 . S
C258 C264 1.428 . S
H259 C255 0.930 . S
H260 C257 0.929 . S
S261 N262 1.613 . S
S261 N263 1.610 . S
N262 S261 1.613 . S
N262 C265 1.350 . S
N263 S261 1.610 . S
N263 C264 1.351 . S
C264 C258 1.428 . S
C264 N263 1.351 . S
C264 C265 1.434 . S
C265 C256 1.429 . S
C265 N262 1.350 . S
C265 C264 1.434 . S
C266 C267 1.369 . S
C266 C268 1.419 . S
C266 H270 0.930 . S
C267 C266 1.369 . S
C267 C276 1.429 . S
C268 C266 1.419 . S
C268 C269 1.363 . S
C268 H271 0.929 . S
C269 C268 1.363 . S
C269 C275 1.428 . S
H270 C266 0.930 . S
H271 C268 0.929 . S
S272 N273 1.613 . S
S272 N274 1.610 . S
N273 S272 1.613 . S
N273 C276 1.350 . S
N274 S272 1.610 . S
N274 C275 1.351 . S
C275 C269 1.428 . S
C275 N274 1.351 . S
C275 C276 1.434 . S
C276 C267 1.429 . S
C276 N273 1.350 . S
C276 C275 1.434 . S
C277 C278 1.369 . S
C277 C279 1.419 . S
C277 H281 0.930 . S
C278 C277 1.369 . S
C278 C287 1.429 . S
C279 C277 1.419 . S
C279 C280 1.363 . S
C279 H282 0.929 . S
C280 C279 1.363 . S
C280 C286 1.428 . S
H281 C277 0.930 . S
H282 C279 0.929 . S
S283 N284 1.613 . S
S283 N285 1.610 . S
N284 S283 1.613 . S
N284 C287 1.350 1_556 S
N285 S283 1.610 . S
N285 C286 1.351 1_556 S
C286 C280 1.428 . S
C286 N285 1.351 1_554 S
C286 C287 1.434 . S
C287 C278 1.429 . S
C287 N284 1.350 1_554 S
C287 C286 1.434 . S
C288 C289 1.369 . S
C288 C290 1.419 . S
C288 H292 0.930 . S
C289 C288 1.369 . S
C289 C298 1.429 . S
C290 C288 1.419 . S
C290 C291 1.363 . S
C290 H293 0.929 . S
C291 C290 1.363 . S
C291 C297 1.428 . S
H292 C288 0.930 . S
H293 C290 0.929 . S
S294 N295 1.613 . S
S294 N296 1.610 . S
N295 S294 1.613 . S
N295 C298 1.350 . S
N296 S294 1.610 . S
N296 C297 1.351 . S
C297 C291 1.428 . S
C297 N296 1.351 . S
C297 C298 1.434 . S
C298 C289 1.429 . S
C298 N295 1.350 . S
C298 C297 1.434 . S
C299 C300 1.369 . S
C299 C301 1.419 . S
C299 H303 0.930 . S
C300 C299 1.369 . S
C300 C309 1.429 . S
C301 C299 1.419 . S
C301 C302 1.363 . S
C301 H304 0.929 . S
C302 C301 1.363 . S
C302 C308 1.428 . S
H303 C299 0.930 . S
H304 C301 0.929 . S
S305 N306 1.613 . S
S305 N307 1.610 . S
N306 S305 1.613 . S
N306 C309 1.350 . S
N307 S305 1.610 . S
N307 C308 1.351 . S
C308 C302 1.428 . S
C308 N307 1.351 . S
C308 C309 1.434 . S
C309 C300 1.429 . S
C309 N306 1.350 . S
C309 C308 1.434 . S
C310 C311 1.369 . S
C310 C312 1.419 . S
C310 H314 0.930 . S
C311 C310 1.369 . S
C311 C320 1.429 . S
C312 C310 1.419 . S
C312 C313 1.363 . S
C312 H315 0.929 . S
C313 C312 1.363 . S
C313 C319 1.428 . S
H314 C310 0.930 . S
H315 C312 0.929 . S
S316 N317 1.613 . S
S316 N318 1.610 . S
N317 S316 1.613 . S
N317 C320 1.350 . S
N318 S316 1.610 . S
N318 C319 1.351 . S
C319 C313 1.428 . S
C319 N318 1.351 . S
C319 C320 1.434 . S
C320 C311 1.429 . S
C320 N317 1.350 . S
C320 C319 1.434 . S
C321 C322 1.369 . S
C321 C323 1.419 . S
C321 H325 0.930 . S
C322 C321 1.369 . S
C322 C331 1.429 . S
C323 C321 1.419 . S
C323 C324 1.363 . S
C323 H326 0.929 . S
C324 C323 1.363 . S
C324 C330 1.428 . S
H325 C321 0.930 . S
H326 C323 0.929 . S
S327 N328 1.613 . S
S327 N329 1.610 . S
N328 S327 1.613 . S
N328 C331 1.350 . S
N329 S327 1.610 . S
N329 C330 1.351 . S
C330 C324 1.428 . S
C330 N329 1.351 . S
C330 C331 1.434 . S
C331 C322 1.429 . S
C331 N328 1.350 . S
C331 C330 1.434 . S
C332 C333 1.369 . S
C332 C334 1.419 . S
C332 H336 0.930 . S
C333 C332 1.369 . S
C333 C342 1.429 . S
C334 C332 1.419 . S
C334 C335 1.363 . S
C334 H337 0.929 . S
C335 C334 1.363 . S
C335 C341 1.428 . S
H336 C332 0.930 . S
H337 C334 0.929 . S
S338 N339 1.613 . S
S338 N340 1.610 . S
N339 S338 1.613 . S
N339 C342 1.350 . S
N340 S338 1.610 . S
N340 C341 1.351 . S
C341 C335 1.428 . S
C341 N340 1.351 . S
C341 C342 1.434 . S
C342 C333 1.429 . S
C342 N339 1.350 . S
C342 C341 1.434 . S
C343 C344 1.369 . S
C343 C345 1.419 . S
C343 H347 0.930 1_556 S
C344 C343 1.369 . S
C344 C353 1.429 . S
C345 C343 1.419 . S
C345 C346 1.363 . S
C345 H348 0.929 . S
C346 C345 1.363 . S
C346 C352 1.428 . S
H347 C343 0.930 1_554 S
H348 C345 0.929 . S
S349 N350 1.613 . S
S349 N351 1.610 . S
N350 S349 1.613 . S
N350 C353 1.350 . S
N351 S349 1.610 . S
N351 C352 1.351 . S
C352 C346 1.428 . S
C352 N351 1.351 . S
C352 C353 1.434 . S
C353 C344 1.429 . S
C353 N350 1.350 . S
C353 C352 1.434 . S
C354 C355 1.369 . S
C354 C356 1.419 . S
C354 H358 0.930 . S
C355 C354 1.369 . S
C355 C364 1.429 . S
C356 C354 1.419 . S
C356 C357 1.363 . S
C356 H359 0.929 . S
C357 C356 1.363 . S
C357 C363 1.428 . S
H358 C354 0.930 . S
H359 C356 0.929 . S
S360 N361 1.613 . S
S360 N362 1.610 . S
N361 S360 1.613 . S
N361 C364 1.350 . S
N362 S360 1.610 . S
N362 C363 1.351 . S
C363 C357 1.428 . S
C363 N362 1.351 . S
C363 C364 1.434 . S
C364 C355 1.429 . S
C364 N361 1.350 . S
C364 C363 1.434 . S
C365 C366 1.369 . S
C365 C367 1.419 . S
C365 H369 0.930 . S
C366 C365 1.369 . S
C366 C375 1.429 . S
C367 C365 1.419 . S
C367 C368 1.363 . S
C367 H370 0.929 . S
C368 C367 1.363 . S
C368 C374 1.428 . S
H369 C365 0.930 . S
H370 C367 0.929 . S
S371 N372 1.613 . S
S371 N373 1.610 . S
N372 S371 1.613 . S
N372 C375 1.350 . S
N373 S371 1.610 . S
N373 C374 1.351 . S
C374 C368 1.428 . S
C374 N373 1.351 . S
C374 C375 1.434 . S
C375 C366 1.429 . S
C375 N372 1.350 . S
C375 C374 1.434 . S
C247 C139 1.661 . S
C245 C68 1.632 . S
C256 C11 1.530 . S
C258 C234 1.698 . S
C267 C30 1.596 . S
C269 C150 1.695 . S
C278 C49 1.592 . S
C280 C223 1.642 . S
C291 C134 1.474 . S
C289 C2 1.645 . S
C302 C227 1.761 . S
C300 C25 1.754 . S
C311 C40 1.674 . S
C313 C143 1.707 . S
C322 C59 1.649 . S
C324 C218 1.485 . S
C335 C229 1.444 . S
C333 C21 1.599 . S
C346 C145 1.396 . S
C344 C44 1.591 1_556 S
C357 C216 1.662 . S
C355 C63 1.659 . S
C366 C6 1.632 . S
C368 C132 1.648 . S
