# Generated by pormake.
# Topology pth, (4,4)-cn, num edge types: 1
# Building blocks:
#     Node 0, Type 0, BuildingBlock: QUQFOY_clean_sbu_1, # of connection points: 4
#     Node 1, Type 0, BuildingBlock: QUQFOY_clean_sbu_1, # of connection points: 4
#     Node 2, Type 0, BuildingBlock: QUQFOY_clean_sbu_1, # of connection points: 4
#     Node 3, Type 1, BuildingBlock: MUDLON_clean_linker_0, # of connection points: 4
#     Node 4, Type 1, BuildingBlock: MUDLON_clean_linker_0, # of connection points: 4
#     Node 5, Type 1, BuildingBlock: MUDLON_clean_linker_0, # of connection points: 4
#     Edge 6, Type (0, 1), BuildingBlock: OJICUG_clean_linker_0, # of connection points: 2
#     Edge 7, Type (0, 1), BuildingBlock: OJICUG_clean_linker_0, # of connection points: 2
#     Edge 8, Type (0, 1), BuildingBlock: OJICUG_clean_linker_0, # of connection points: 2
#     Edge 9, Type (0, 1), BuildingBlock: OJICUG_clean_linker_0, # of connection points: 2
#     Edge 10, Type (0, 1), BuildingBlock: OJICUG_clean_linker_0, # of connection points: 2
#     Edge 11, Type (0, 1), BuildingBlock: OJICUG_clean_linker_0, # of connection points: 2
#     Edge 12, Type (0, 1), BuildingBlock: OJICUG_clean_linker_0, # of connection points: 2
#     Edge 13, Type (0, 1), BuildingBlock: OJICUG_clean_linker_0, # of connection points: 2
#     Edge 14, Type (0, 1), BuildingBlock: OJICUG_clean_linker_0, # of connection points: 2
#     Edge 15, Type (0, 1), BuildingBlock: OJICUG_clean_linker_0, # of connection points: 2
#     Edge 16, Type (0, 1), BuildingBlock: OJICUG_clean_linker_0, # of connection points: 2
#     Edge 17, Type (0, 1), BuildingBlock: OJICUG_clean_linker_0, # of connection points: 2
# Relax obj value: 0.054
# Max RMSD: 0.153
# Mean RMSD: 0.116
data_MOF--net-pth--node1-QUQFOY_clean_sbu_1--node2-MUDLON_clean_linker_0--edge1-OJICUG_clean_linker_0
_symmetry_space_group_name_H-M    P1
_symmetry_Int_Tables_number       1
_symmetry_cell_setting            triclinic
loop_
_symmetry_equiv_pos_as_xyz
'x, y, z'
_cell_length_a     26.180405
_cell_length_b     27.751703
_cell_length_c     56.24175
_cell_angle_alpha  89.950765
_cell_angle_beta   89.951288
_cell_angle_gamma 119.89116
loop_
_atom_site_label
_atom_site_type_symbol
_atom_site_fract_x
_atom_site_fract_y
_atom_site_fract_z
_atom_type_partial_charge
O0 O 0.05357 0.10544 0.01329 0.0
Cd1 Cd 0.98103 0.05125 0.03268 0.0
Cd2 Cd 0.03858 0.99191 0.03142 0.0
O3 O 0.10379 0.06084 0.01352 0.0
O4 O 0.94709 0.09715 0.04454 0.0
O5 O 0.98595 0.06023 0.06821 0.0
C6 C 0.96267 0.09148 0.06564 0.0
C7 C 0.05568 0.94868 0.06356 0.0
C8 C 0.09894 0.10264 0.00751 0.0
C9 C 0.91965 0.94267 0.00734 0.0
O10 O 0.96496 0.93901 0.01218 0.0
O11 O 0.91543 0.9841 0.01437 0.0
O12 O 0.06982 0.94301 0.04219 0.0
O13 O 0.03549 0.98222 0.06692 0.0
O14 O 0.97865 0.06935 0.38891 0.0
Cd15 Cd 0.04514 0.07822 0.36691 0.0
Cd16 Cd 0.97899 0.96647 0.36646 0.0
O17 O 0.9168 0.97992 0.38363 0.0
O18 O 0.07925 0.15421 0.35261 0.0
O19 O 0.0305 0.07631 0.332 0.0
C20 C 0.05603 0.12991 0.33272 0.0
C21 C 0.96056 0.91044 0.33301 0.0
C22 C 0.92892 0.02642 0.39274 0.0
C23 C 0.09745 0.01843 0.39104 0.0
O24 O 0.04803 0.97521 0.38706 0.0
O25 O 0.10856 0.06554 0.38294 0.0
O26 O 0.93989 0.88886 0.35359 0.0
O27 O 0.98874 0.96396 0.33122 0.0
O28 O 0.9167 0.98024 0.67491 0.0
Cd29 Cd 0.96584 0.9595 0.69674 0.0
Cd30 Cd 0.03998 0.06909 0.69594 0.0
O31 O 0.97212 0.07127 0.67802 0.0
O32 O 0.91142 0.88401 0.70993 0.0
O33 O 0.95546 0.9598 0.73212 0.0
C34 C 0.91979 0.9069 0.73059 0.0
C35 C 0.08451 0.12463 0.72916 0.0
C36 C 0.9266 0.02883 0.66989 0.0
C37 C 0.08046 0.99713 0.67204 0.0
O38 O 0.09062 0.04622 0.67602 0.0
O39 O 0.03407 0.95557 0.68019 0.0
O40 O 0.09445 0.14554 0.70803 0.0
O41 O 0.04786 0.07208 0.73148 0.0
H42 H 0.87269 0.6821 0.21312 0.0
N43 N 0.96826 0.6827 0.19651 0.0
H44 H 0.86703 0.73494 0.24713 0.0
H45 H 0.05559 0.74116 0.22853 0.0
H46 H 0.05093 0.79576 0.26187 0.0
H47 H 0.0791 0.77022 0.18911 0.0
H48 H 0.10923 0.83799 0.15651 0.0
H49 H 0.90743 0.67426 0.15737 0.0
H50 H 0.93851 0.74049 0.12408 0.0
H51 H 0.87786 0.58104 0.1908 0.0
H52 H 0.06424 0.67096 0.20451 0.0
H53 H 0.87782 0.49311 0.19286 0.0
H54 H 0.06481 0.58274 0.20744 0.0
H55 H 0.88668 0.22415 0.22849 0.0
H56 H 0.9178 0.18185 0.25921 0.0
H57 H 0.09537 0.32063 0.2546 0.0
H58 H 0.06344 0.36284 0.22378 0.0
H59 H 0.05155 0.32416 0.18206 0.0
H60 H 0.05228 0.26989 0.14791 0.0
H61 H 0.86391 0.19807 0.14098 0.0
H62 H 0.86359 0.25221 0.17538 0.0
H63 H 0.87935 0.34353 0.22201 0.0
H64 H 0.88632 0.43461 0.22146 0.0
H65 H 0.05344 0.50306 0.18483 0.0
N66 N 0.95383 0.31531 0.20367 0.0
H67 H 0.04674 0.41167 0.18631 0.0
C68 C 0.96454 0.70819 0.2182 0.0
C69 C 0.91134 0.70597 0.22403 0.0
C70 C 0.90823 0.73616 0.24334 0.0
C71 C 0.95875 0.76985 0.25686 0.0
C72 C 0.01159 0.7706 0.25149 0.0
C73 C 0.01429 0.73945 0.23248 0.0
C74 C 0.99057 0.71756 0.17578 0.0
C75 C 0.04821 0.76322 0.17499 0.0
C76 C 0.06547 0.80184 0.15638 0.0
C77 C 0.02596 0.79431 0.13801 0.0
C78 C 0.96964 0.74696 0.1381 0.0
C79 C 0.95198 0.70916 0.15697 0.0
C80 C 0.97075 0.63215 0.19768 0.0
C81 C 0.91875 0.58153 0.19441 0.0
C82 C 0.91887 0.53135 0.19579 0.0
C83 C 0.97121 0.53054 0.20064 0.0
C84 C 0.02376 0.5817 0.20358 0.0
C85 C 0.02352 0.63215 0.2021 0.0
C86 C 0.9725 0.29653 0.224 0.0
C87 C 0.93205 0.24582 0.23443 0.0
C88 C 0.95011 0.22148 0.25173 0.0
C89 C 0.00926 0.2475 0.25904 0.0
C90 C 0.04952 0.29963 0.2493 0.0
C91 C 0.03135 0.32386 0.23177 0.0
C92 C 0.9573 0.29206 0.18125 0.0
C93 C 0.0106 0.29752 0.17295 0.0
C94 C 0.01087 0.26608 0.15357 0.0
C95 C 0.95803 0.22921 0.14196 0.0
C96 C 0.90532 0.22621 0.14951 0.0
C97 C 0.90503 0.25719 0.16906 0.0
C98 C 0.96195 0.37063 0.204 0.0
C99 C 0.91765 0.37837 0.21404 0.0
C100 C 0.92159 0.43043 0.2135 0.0
C101 C 0.97 0.47625 0.20272 0.0
C102 C 0.01561 0.46887 0.19334 0.0
C103 C 0.0117 0.41651 0.19402 0.0
H104 H 0.82062 0.14902 0.5486 0.0
N105 N 0.7173 0.07579 0.53018 0.0
H106 H 0.86794 0.13914 0.58427 0.0
H107 H 0.66991 0.98704 0.56155 0.0
H108 H 0.71469 0.97847 0.59763 0.0
H109 H 0.73158 0.9861 0.52096 0.0
H110 H 0.77493 0.97142 0.48514 0.0
H111 H 0.75074 0.13728 0.49107 0.0
H112 H 0.79158 0.12175 0.45469 0.0
H113 H 0.6686 0.13902 0.53572 0.0
H114 H 0.62619 0.96998 0.52326 0.0
H115 H 0.56404 0.11032 0.53494 0.0
H116 H 0.52171 0.93971 0.52458 0.0
H117 H 0.27445 0.03965 0.54443 0.0
H118 H 0.23022 0.04947 0.58082 0.0
H119 H 0.20052 0.88947 0.60489 0.0
H120 H 0.24295 0.87907 0.56771 0.0
H121 H 0.18725 0.88247 0.50844 0.0
H122 H 0.14878 0.90163 0.47235 0.0
H123 H 0.30105 0.06684 0.46952 0.0
H124 H 0.33736 0.04802 0.50636 0.0
H125 H 0.37425 0.03841 0.55603 0.0
H126 H 0.47775 0.06658 0.55591 0.0
H127 H 0.44361 0.93679 0.50512 0.0
N128 N 0.28567 0.9501 0.53149 0.0
H129 H 0.33869 0.90563 0.50711 0.0
C130 C 0.74164 0.06932 0.55224 0.0
C131 C 0.79731 0.11183 0.55934 0.0
C132 C 0.82402 0.10623 0.57987 0.0
C133 C 0.79522 0.05794 0.59395 0.0
C134 C 0.73876 0.01586 0.58708 0.0
C135 C 0.71258 0.02109 0.56636 0.0
C136 C 0.73933 0.0637 0.50884 0.0
C137 C 0.74469 0.01592 0.50659 0.0
C138 C 0.76885 1.00722 0.48594 0.0
C139 C 0.78737 0.04571 0.46707 0.0
C140 C 0.77911 0.09192 0.46904 0.0
C141 C 0.75562 0.10084 0.48975 0.0
C142 C 0.65509 0.05674 0.52996 0.0
C143 C 0.63645 0.09553 0.53319 0.0
C144 C 0.57656 0.07879 0.53297 0.0
C145 C 0.53379 0.02239 0.52997 0.0
C146 C 0.5529 0.98358 0.52657 0.0
C147 C 0.61287 1.00069 0.52615 0.0
C148 C 0.26105 0.95796 0.55316 0.0
C149 C 0.25805 1.00645 0.5574 0.0
C150 C 0.23345 0.01236 0.57846 0.0
C151 C 0.21181 0.97027 0.59587 0.0
C152 C 0.21598 0.92235 0.59176 0.0
C153 C 0.24034 0.91636 0.5706 0.0
C154 C 0.26516 0.96332 0.50997 0.0
C155 C 0.21218 0.92273 0.49996 0.0
C156 C 0.19071 0.9337 0.47918 0.0
C157 C 0.22219 0.98563 0.46772 0.0
C158 C 0.27542 0.02654 0.47787 0.0
C159 C 0.29652 0.01568 0.49887 0.0
C160 C 0.348 0.96877 0.53188 0.0
C161 C 0.38848 0.01518 0.54516 0.0
C162 C 0.44839 0.03199 0.54477 0.0
C163 C 0.46971 1.00413 0.53051 0.0
C164 C 0.42914 0.95857 0.51683 0.0
C165 C 0.36905 0.94085 0.51776 0.0
H166 H 0.68049 0.75827 0.89044 0.0
N167 N 0.70783 0.68052 0.87438 0.0
H168 H 0.72109 0.81723 0.92534 0.0
H169 H 0.78359 0.68018 0.90549 0.0
H170 H 0.82775 0.74126 0.93952 0.0
H171 H 0.79662 0.68179 0.85106 0.0
H172 H 0.84742 0.73626 0.81555 0.0
H173 H 0.67872 0.74796 0.84933 0.0
H174 H 0.73093 0.8044 0.81437 0.0
H175 H 0.61384 0.6596 0.90421 0.0
H176 H 0.66153 0.59959 0.84183 0.0
H177 H 0.51493 0.58226 0.90198 0.0
H178 H 0.56084 0.52215 0.83932 0.0
H179 H 0.20122 0.33912 0.89708 0.0
H180 H 0.16311 0.2816 0.93266 0.0
H181 H 0.30872 0.24966 0.93068 0.0
H182 H 0.3455 0.30619 0.89466 0.0
H183 H 0.29981 0.26791 0.85543 0.0
H184 H 0.24952 0.2116 0.82052 0.0
H185 H 0.18266 0.32201 0.80403 0.0
H186 H 0.23282 0.37792 0.83915 0.0
H187 H 0.32635 0.46327 0.88059 0.0
H188 H 0.42577 0.54399 0.87978 0.0
H189 H 0.49502 0.43736 0.85943 0.0
N190 N 0.29417 0.35839 0.87139 0.0
H191 H 0.39508 0.3575 0.85938 0.0
C192 C 0.7285 0.71416 0.89558 0.0
C193 C 0.71213 0.75399 0.90124 0.0
C194 C 0.7358 0.78801 0.92122 0.0
C195 C 0.77785 0.78431 0.93554 0.0
C196 C 0.79434 0.7446 0.92954 0.0
C197 C 0.76957 0.70979 0.90993 0.0
C198 C 0.73453 0.7113 0.85292 0.0
C199 C 0.78184 0.70814 0.84297 0.0
C200 C 0.81067 0.73915 0.82278 0.0
C201 C 0.79325 0.77471 0.8124 0.0
C202 C 0.74553 0.77771 0.82226 0.0
C203 C 0.71586 0.74569 0.84221 0.0
C204 C 0.64631 0.63744 0.87266 0.0
C205 C 0.6035 0.63118 0.88955 0.0
C206 C 0.54603 0.58624 0.88834 0.0
C207 C 0.52953 0.54597 0.87038 0.0
C208 C 0.57199 0.55207 0.85352 0.0
C209 C 0.62955 0.5969 0.85477 0.0
C210 C 0.2761 0.32726 0.89328 0.0
C211 C 0.22513 0.32013 0.90451 0.0
C212 C 0.20375 0.28751 0.92494 0.0
C213 C 0.23314 0.26127 0.93471 0.0
C214 C 0.28483 0.26897 0.92357 0.0
C215 C 0.30615 0.30165 0.90302 0.0
C216 C 0.26967 0.32704 0.84992 0.0
C217 C 0.27466 0.28021 0.84426 0.0
C218 C 0.24562 0.24787 0.82437 0.0
C219 C 0.21184 0.26221 0.80964 0.0
C220 C 0.20862 0.3101 0.81495 0.0
C221 C 0.23713 0.34201 0.83496 0.0
C222 C 0.3534 0.40458 0.87024 0.0
C223 C 0.36313 0.45761 0.87586 0.0
C224 C 0.42 0.50353 0.87553 0.0
C225 C 0.46864 0.49726 0.86969 0.0
C226 C 0.45863 0.44392 0.86375 0.0
C227 C 0.40151 0.398 0.86394 0.0
C228 C 0.98813 0.12872 0.10717 0.0
C229 C 0.95788 0.12329 0.08582 0.0
H230 H 0.01219 0.16678 0.14155 0.0
C231 C 0.9265 0.15195 0.08329 0.0
H232 H 0.01292 0.1074 0.10964 0.0
C233 C 0.92603 0.18587 0.10157 0.0
C234 C 0.95755 0.19245 0.12266 0.0
H235 H 0.90284 0.14875 0.06704 0.0
H236 H 0.90207 0.20796 0.09899 0.0
C237 C 0.98823 0.16318 0.12534 0.0
C238 C 0.90186 0.08307 0.41873 0.0
C239 C 0.88784 0.03077 0.40959 0.0
H240 H 0.88229 0.12857 0.44409 0.0
C241 C 0.83763 0.98327 0.41832 0.0
H242 H 0.94016 0.12063 0.41245 0.0
C243 C 0.80371 0.98796 0.43651 0.0
C244 C 0.81933 0.04023 0.44628 0.0
H245 H 0.82558 0.94236 0.41165 0.0
H246 H 0.7658 0.9506 0.44315 0.0
C247 C 0.86826 0.08771 0.43684 0.0
C248 C 0.86415 0.81543 0.75152 0.0
C249 C 0.88827 0.87341 0.75171 0.0
H250 H 0.81559 0.73887 0.77074 0.0
C251 C 0.88059 0.89874 0.77198 0.0
H252 H 0.86936 0.79475 0.73615 0.0
C253 C 0.84876 0.86656 0.79157 0.0
C254 C 0.8252 0.80868 0.79141 0.0
H255 H 0.8984 0.9433 0.77258 0.0
H256 H 0.84329 0.88695 0.80698 0.0
C257 C 0.83346 0.78345 0.77128 0.0
C258 C 0.05573 0.86325 0.0777 0.0
C259 C 0.05649 0.91314 0.08306 0.0
H260 H 0.04458 0.78602 0.09104 0.0
C261 C 0.05207 0.92553 0.10694 0.0
H262 H 0.05856 0.85226 0.05946 0.0
C263 C 0.04524 0.88797 0.125 0.0
C264 C 0.04156 0.83704 0.11941 0.0
H265 H 0.05238 0.96353 0.11161 0.0
H266 H 0.04024 0.89758 0.14323 0.0
C267 C 0.04759 0.82524 0.09569 0.0
C268 C 0.17397 0.05792 0.42298 0.0
C269 C 0.13853 0.01389 0.40763 0.0
H270 H 0.22691 0.08328 0.45441 0.0
C271 C 0.13635 0.96266 0.41056 0.0
H272 H 0.17605 0.09775 0.42125 0.0
C273 C 0.16624 0.95456 0.42927 0.0
C274 C 0.19807 0.99715 0.44581 0.0
H275 H 0.10981 0.92814 0.39883 0.0
H276 H 0.16286 0.91423 0.43115 0.0
C277 C 0.20313 0.04954 0.442 0.0
C278 C 0.1493 0.21783 0.74756 0.0
C279 C 0.11576 0.15973 0.74994 0.0
H280 H 0.20608 0.29566 0.76452 0.0
C281 C 0.11397 0.13555 0.77211 0.0
H282 H 0.15168 0.23775 0.7307 0.0
C283 C 0.14559 0.16876 0.79143 0.0
C284 C 0.1791 0.22686 0.78904 0.0
H285 H 0.08867 0.09091 0.7745 0.0
H286 H 0.14326 0.14903 0.80834 0.0
C287 C 0.18037 0.25104 0.76693 0.0
C288 C 0.89489 0.08828 0.64779 0.0
C289 C 0.88836 0.03573 0.65244 0.0
H290 H 0.8695 0.13638 0.62619 0.0
C291 C 0.84834 0.99017 0.63872 0.0
H292 H 0.92518 0.12419 0.65811 0.0
C293 C 0.81751 0.99731 0.62013 0.0
C294 C 0.82512 0.0501 0.61494 0.0
H295 H 0.84251 0.94914 0.64167 0.0
H296 H 0.7894 0.96159 0.60927 0.0
C297 C 0.86335 0.09533 0.62933 0.0
C298 C 0.8511 0.91654 0.97279 0.0
C299 C 0.87482 0.90054 0.99152 0.0
H300 H 0.80394 0.89337 0.93998 0.0
C301 C 0.86147 0.84503 0.99311 0.0
H302 H 0.8614 0.95934 0.97105 0.0
C303 C 0.82703 0.80661 0.97573 0.0
C304 C 0.80676 0.82322 0.95588 0.0
H305 H 0.87895 0.83164 0.00752 0.0
H306 H 0.81777 0.76418 0.97761 0.0
C307 C 0.81798 0.87846 0.955 0.0
C308 C 0.91561 0.81771 0.3127 0.0
C309 C 0.9565 0.87501 0.31262 0.0
H310 H 0.88383 0.73949 0.29486 0.0
C311 C 0.99678 0.89755 0.29369 0.0
H312 H 0.88412 0.79916 0.32707 0.0
C313 C 0.99745 0.86325 0.27565 0.0
C314 C 0.95707 0.80594 0.27588 0.0
H315 H 0.0291 0.94145 0.2932 0.0
H316 H 0.02957 0.88152 0.26146 0.0
C317 C 0.91544 0.78358 0.29433 0.0
C318 C 0.10001 0.93584 0.64534 0.0
C319 C 0.11901 0.98845 0.65539 0.0
H320 H 0.11364 0.889 0.61845 0.0
C321 C 0.17203 0.03388 0.64733 0.0
H322 H 0.05926 0.89998 0.65108 0.0
C323 C 0.2036 0.02747 0.62875 0.0
C324 C 0.18265 0.97557 0.61766 0.0
H325 H 0.18823 0.0749 0.65483 0.0
H326 H 0.24372 0.06355 0.62268 0.0
C327 C 0.13135 0.92951 0.62663 0.0
C328 C 0.17448 0.13439 0.97493 0.0
C329 C 0.1429 0.14648 0.99181 0.0
H330 H 0.22711 0.1609 0.94328 0.0
C331 C 0.14763 0.19916 0.99154 0.0
H332 H 0.17138 0.09399 0.97466 0.0
C333 C 0.18002 0.23765 0.97384 0.0
C334 C 0.20776 0.22412 0.95575 0.0
H335 H 0.12439 0.20993 0.00453 0.0
H336 H 0.18152 0.27737 0.97387 0.0
C337 C 0.20642 0.1728 0.95696 0.0
C338 C 0.02021 0.13373 0.29193 0.0
C339 C 0.05251 0.1618 0.31224 0.0
H340 H 0.98177 0.13897 0.25916 0.0
C341 C 0.0754 0.2196 0.31384 0.0
H342 H 1.00214 0.08932 0.29005 0.0
C343 C 0.06353 0.2481 0.29608 0.0
C344 C 0.0282 0.21927 0.2765 0.0
H345 H 0.10047 0.24249 0.32926 0.0
H346 H 0.07964 0.29215 0.29824 0.0
C347 C 0.00811 0.16211 0.27431 0.0
loop_
_geom_bond_atom_site_label_1
_geom_bond_atom_site_label_2
_geom_bond_distance
_geom_bond_site_symmetry_2
_ccdc_geom_bond_type
O0 Cd1 2.223 1_456 S
O0 C8 1.311 1_556 S
Cd1 O0 2.223 1_654 S
Cd1 O4 2.297 . S
Cd1 O5 2.439 . S
Cd1 O11 2.240 1_545 S
Cd2 O3 2.240 1_565 S
Cd2 O10 2.223 1_454 S
Cd2 O12 2.297 . S
Cd2 O13 2.439 . S
O3 Cd2 2.240 1_545 S
O3 C8 1.296 . S
O4 Cd1 2.297 . S
O4 C6 1.247 . S
O5 Cd1 2.439 . S
O5 C6 1.208 . S
C6 O4 1.247 . S
C6 O5 1.208 . S
C7 O12 1.247 . S
C7 O13 1.208 . S
C8 O0 1.311 1_554 S
C8 O3 1.296 . S
C9 O10 1.312 1_554 S
C9 O11 1.296 . S
O10 Cd2 2.223 1_656 S
O10 C9 1.312 1_556 S
O11 Cd1 2.240 1_565 S
O11 C9 1.296 . S
O12 Cd2 2.297 . S
O12 C7 1.247 . S
O13 Cd2 2.439 . S
O13 C7 1.208 . S
O14 Cd15 2.223 1_655 S
O14 C22 1.315 . S
Cd15 O14 2.223 1_455 S
Cd15 O18 2.297 . S
Cd15 O19 2.439 . S
Cd15 O25 2.240 . S
Cd16 O17 2.240 . S
Cd16 O24 2.223 1_655 S
Cd16 O26 2.297 . S
Cd16 O27 2.439 . S
O17 Cd16 2.240 . S
O17 C22 1.279 1_565 S
O18 Cd15 2.297 . S
O18 C20 1.247 . S
O19 Cd15 2.439 . S
O19 C20 1.208 . S
C20 O18 1.247 . S
C20 O19 1.208 . S
C21 O26 1.247 . S
C21 O27 1.208 . S
C22 O14 1.315 . S
C22 O17 1.279 1_545 S
C23 O24 1.315 . S
C23 O25 1.279 1_565 S
O24 Cd16 2.223 1_455 S
O24 C23 1.315 . S
O25 Cd15 2.240 . S
O25 C23 1.279 1_545 S
O26 Cd16 2.297 . S
O26 C21 1.247 . S
O27 Cd16 2.439 . S
O27 C21 1.208 . S
O28 Cd29 2.223 . S
O28 C36 1.315 . S
Cd29 O28 2.223 . S
Cd29 O32 2.297 . S
Cd29 O33 2.439 . S
Cd29 O39 2.240 1_655 S
Cd30 O31 2.240 1_455 S
Cd30 O38 2.223 . S
Cd30 O40 2.297 . S
Cd30 O41 2.439 . S
O31 Cd30 2.240 1_655 S
O31 C36 1.279 1_545 S
O32 Cd29 2.297 . S
O32 C34 1.247 . S
O33 Cd29 2.439 . S
O33 C34 1.208 . S
C34 O32 1.247 . S
C34 O33 1.208 . S
C35 O40 1.247 . S
C35 O41 1.208 . S
C36 O28 1.315 . S
C36 O31 1.279 1_565 S
C37 O38 1.315 . S
C37 O39 1.279 1_545 S
O38 Cd30 2.223 . S
O38 C37 1.315 . S
O39 Cd29 2.240 1_455 S
O39 C37 1.279 1_565 S
O40 Cd30 2.297 . S
O40 C35 1.247 . S
O41 Cd30 2.439 . S
O41 C35 1.208 . S
H42 C69 0.929 . S
N43 C68 1.433 . S
N43 C74 1.435 . S
N43 C80 1.423 . S
H44 C70 0.930 . S
H45 C73 0.931 . S
H46 C72 0.929 . S
H47 C75 0.930 . S
H48 C76 0.932 . S
H49 C79 0.929 . S
H50 C78 0.931 . S
H51 C81 0.929 . S
H52 C85 0.932 1_455 S
H53 C82 0.931 . S
H54 C84 0.929 1_455 S
H55 C87 0.929 . S
H56 C88 0.930 . S
H57 C90 0.929 . S
H58 C91 0.931 . S
H59 C93 0.930 . S
H60 C94 0.932 . S
H61 C96 0.931 . S
H62 C97 0.929 . S
H63 C99 0.929 . S
H64 C100 0.931 . S
H65 C102 0.929 1_455 S
N66 C86 1.433 . S
N66 C92 1.435 . S
N66 C98 1.423 . S
H67 C103 0.932 1_455 S
C68 N43 1.433 . S
C68 C69 1.363 . S
C68 C73 1.370 1_655 S
C69 H42 0.929 . S
C69 C68 1.363 . S
C69 C70 1.385 . S
C70 H44 0.930 . S
C70 C69 1.385 . S
C70 C71 1.357 . S
C71 C70 1.357 . S
C71 C72 1.406 1_655 S
C72 H46 0.929 . S
C72 C71 1.406 1_455 S
C72 C73 1.391 . S
C73 H45 0.931 . S
C73 C68 1.370 1_455 S
C73 C72 1.391 . S
C74 N43 1.435 . S
C74 C75 1.358 1_655 S
C74 C79 1.371 . S
C75 H47 0.930 . S
C75 C74 1.358 1_455 S
C75 C76 1.405 . S
C76 H48 0.932 . S
C76 C75 1.405 . S
C76 C77 1.383 1_455 S
C77 C76 1.383 1_655 S
C77 C78 1.393 . S
C78 H50 0.931 . S
C78 C77 1.393 . S
C78 C79 1.382 . S
C79 H49 0.929 . S
C79 C74 1.371 . S
C79 C78 1.382 . S
C80 N43 1.423 . S
C80 C81 1.362 . S
C80 C85 1.388 . S
C81 H51 0.929 . S
C81 C80 1.362 . S
C81 C82 1.376 . S
C82 H53 0.931 . S
C82 C81 1.376 . S
C82 C83 1.396 . S
C83 C82 1.396 . S
C83 C84 1.348 . S
C83 C101 1.472 . S
C84 H54 0.929 1_655 S
C84 C83 1.348 . S
C84 C85 1.443 . S
C85 H52 0.932 1_655 S
C85 C80 1.388 . S
C85 C84 1.443 . S
C86 N66 1.433 . S
C86 C87 1.363 . S
C86 C91 1.370 1_655 S
C87 H55 0.929 . S
C87 C86 1.363 . S
C87 C88 1.385 . S
C88 H56 0.930 . S
C88 C87 1.385 . S
C88 C89 1.357 . S
C89 C88 1.357 . S
C89 C90 1.406 1_655 S
C90 H57 0.929 . S
C90 C89 1.406 1_455 S
C90 C91 1.391 . S
C91 H58 0.931 . S
C91 C86 1.370 1_455 S
C91 C90 1.391 . S
C92 N66 1.435 . S
C92 C93 1.358 1_655 S
C92 C97 1.371 . S
C93 H59 0.930 . S
C93 C92 1.358 1_455 S
C93 C94 1.405 . S
C94 H60 0.932 . S
C94 C93 1.405 . S
C94 C95 1.383 1_455 S
C95 C94 1.383 1_655 S
C95 C96 1.393 . S
C96 H61 0.931 . S
C96 C95 1.393 . S
C96 C97 1.382 . S
C97 H62 0.929 . S
C97 C92 1.371 . S
C97 C96 1.382 . S
C98 N66 1.423 . S
C98 C99 1.362 . S
C98 C103 1.388 . S
C99 H63 0.929 . S
C99 C98 1.362 . S
C99 C100 1.376 . S
C100 H64 0.931 . S
C100 C99 1.376 . S
C100 C101 1.396 . S
C101 C83 1.472 . S
C101 C100 1.396 . S
C101 C102 1.348 . S
C102 H65 0.929 1_655 S
C102 C101 1.348 . S
C102 C103 1.443 . S
C103 H67 0.932 1_655 S
C103 C98 1.388 . S
C103 C102 1.443 . S
H104 C131 0.929 . S
N105 C130 1.433 . S
N105 C136 1.435 . S
N105 C142 1.423 . S
H106 C132 0.930 . S
H107 C135 0.931 . S
H108 C134 0.929 . S
H109 C137 0.930 . S
H110 C138 0.932 . S
H111 C141 0.929 . S
H112 C140 0.931 . S
H113 C143 0.929 . S
H114 C147 0.932 1_565 S
H115 C144 0.931 . S
H116 C146 0.929 1_565 S
H117 C149 0.929 . S
H118 C150 0.930 . S
H119 C152 0.929 . S
H120 C153 0.931 . S
H121 C155 0.930 . S
H122 C156 0.932 . S
H123 C158 0.931 . S
H124 C159 0.929 . S
H125 C161 0.929 . S
H126 C162 0.931 . S
H127 C164 0.929 1_565 S
N128 C148 1.433 . S
N128 C154 1.435 . S
N128 C160 1.423 . S
H129 C165 0.932 1_565 S
C130 N105 1.433 . S
C130 C131 1.363 . S
C130 C135 1.370 1_545 S
C131 H104 0.929 . S
C131 C130 1.363 . S
C131 C132 1.385 . S
C132 H106 0.930 . S
C132 C131 1.385 . S
C132 C133 1.357 . S
C133 C132 1.357 . S
C133 C134 1.406 1_545 S
C134 H108 0.929 . S
C134 C133 1.406 1_565 S
C134 C135 1.391 . S
C135 H107 0.931 . S
C135 C130 1.370 1_565 S
C135 C134 1.391 . S
C136 N105 1.435 . S
C136 C137 1.358 1_545 S
C136 C141 1.371 . S
C137 H109 0.930 . S
C137 C136 1.358 1_565 S
C137 C138 1.405 . S
C138 H110 0.932 . S
C138 C137 1.405 . S
C138 C139 1.383 1_565 S
C139 C138 1.383 1_545 S
C139 C140 1.393 . S
C140 H112 0.931 . S
C140 C139 1.393 . S
C140 C141 1.382 . S
C141 H111 0.929 . S
C141 C136 1.371 . S
C141 C140 1.382 . S
C142 N105 1.423 . S
C142 C143 1.362 . S
C142 C147 1.388 . S
C143 H113 0.929 . S
C143 C142 1.362 . S
C143 C144 1.376 . S
C144 H115 0.931 . S
C144 C143 1.376 . S
C144 C145 1.396 . S
C145 C144 1.396 . S
C145 C146 1.348 . S
C145 C163 1.472 . S
C146 H116 0.929 1_545 S
C146 C145 1.348 . S
C146 C147 1.443 . S
C147 H114 0.932 1_545 S
C147 C142 1.388 . S
C147 C146 1.443 . S
C148 N128 1.433 . S
C148 C149 1.363 . S
C148 C153 1.370 1_545 S
C149 H117 0.929 . S
C149 C148 1.363 . S
C149 C150 1.385 . S
C150 H118 0.930 . S
C150 C149 1.385 . S
C150 C151 1.357 . S
C151 C150 1.357 . S
C151 C152 1.406 1_545 S
C152 H119 0.929 . S
C152 C151 1.406 1_565 S
C152 C153 1.391 . S
C153 H120 0.931 . S
C153 C148 1.370 1_565 S
C153 C152 1.391 . S
C154 N128 1.435 . S
C154 C155 1.358 1_545 S
C154 C159 1.371 . S
C155 H121 0.930 . S
C155 C154 1.358 1_565 S
C155 C156 1.405 . S
C156 H122 0.932 . S
C156 C155 1.405 . S
C156 C157 1.383 1_565 S
C157 C156 1.383 1_545 S
C157 C158 1.393 . S
C158 H123 0.931 . S
C158 C157 1.393 . S
C158 C159 1.382 . S
C159 H124 0.929 . S
C159 C154 1.371 . S
C159 C158 1.382 . S
C160 N128 1.423 . S
C160 C161 1.362 . S
C160 C165 1.388 . S
C161 H125 0.929 . S
C161 C160 1.362 . S
C161 C162 1.376 . S
C162 H126 0.931 . S
C162 C161 1.376 . S
C162 C163 1.396 . S
C163 C145 1.472 . S
C163 C162 1.396 . S
C163 C164 1.348 . S
C164 H127 0.929 1_545 S
C164 C163 1.348 . S
C164 C165 1.443 . S
C165 H129 0.932 1_545 S
C165 C160 1.388 . S
C165 C164 1.443 . S
H166 C193 0.929 . S
N167 C192 1.433 . S
N167 C198 1.435 . S
N167 C204 1.423 . S
H168 C194 0.930 . S
H169 C197 0.931 . S
H170 C196 0.929 . S
H171 C199 0.930 . S
H172 C200 0.932 . S
H173 C203 0.929 . S
H174 C202 0.931 . S
H175 C205 0.929 . S
H176 C209 0.932 . S
H177 C206 0.931 . S
H178 C208 0.929 . S
H179 C211 0.929 . S
H180 C212 0.930 . S
H181 C214 0.929 . S
H182 C215 0.931 . S
H183 C217 0.930 . S
H184 C218 0.932 . S
H185 C220 0.931 . S
H186 C221 0.929 . S
H187 C223 0.929 . S
H188 C224 0.931 . S
H189 C226 0.929 . S
N190 C210 1.433 . S
N190 C216 1.435 . S
N190 C222 1.423 . S
H191 C227 0.932 . S
C192 N167 1.433 . S
C192 C193 1.363 . S
C192 C197 1.370 . S
C193 H166 0.929 . S
C193 C192 1.363 . S
C193 C194 1.385 . S
C194 H168 0.930 . S
C194 C193 1.385 . S
C194 C195 1.357 . S
C195 C194 1.357 . S
C195 C196 1.406 . S
C196 H170 0.929 . S
C196 C195 1.406 . S
C196 C197 1.391 . S
C197 H169 0.931 . S
C197 C192 1.370 . S
C197 C196 1.391 . S
C198 N167 1.435 . S
C198 C199 1.358 . S
C198 C203 1.371 . S
C199 H171 0.930 . S
C199 C198 1.358 . S
C199 C200 1.405 . S
C200 H172 0.932 . S
C200 C199 1.405 . S
C200 C201 1.383 . S
C201 C200 1.383 . S
C201 C202 1.393 . S
C202 H174 0.931 . S
C202 C201 1.393 . S
C202 C203 1.382 . S
C203 H173 0.929 . S
C203 C198 1.371 . S
C203 C202 1.382 . S
C204 N167 1.423 . S
C204 C205 1.362 . S
C204 C209 1.388 . S
C205 H175 0.929 . S
C205 C204 1.362 . S
C205 C206 1.376 . S
C206 H177 0.931 . S
C206 C205 1.376 . S
C206 C207 1.396 . S
C207 C206 1.396 . S
C207 C208 1.348 . S
C207 C225 1.472 . S
C208 H178 0.929 . S
C208 C207 1.348 . S
C208 C209 1.443 . S
C209 H176 0.932 . S
C209 C204 1.388 . S
C209 C208 1.443 . S
C210 N190 1.433 . S
C210 C211 1.363 . S
C210 C215 1.370 . S
C211 H179 0.929 . S
C211 C210 1.363 . S
C211 C212 1.385 . S
C212 H180 0.930 . S
C212 C211 1.385 . S
C212 C213 1.357 . S
C213 C212 1.357 . S
C213 C214 1.406 . S
C214 H181 0.929 . S
C214 C213 1.406 . S
C214 C215 1.391 . S
C215 H182 0.931 . S
C215 C210 1.370 . S
C215 C214 1.391 . S
C216 N190 1.435 . S
C216 C217 1.358 . S
C216 C221 1.371 . S
C217 H183 0.930 . S
C217 C216 1.358 . S
C217 C218 1.405 . S
C218 H184 0.932 . S
C218 C217 1.405 . S
C218 C219 1.383 . S
C219 C218 1.383 . S
C219 C220 1.393 . S
C220 H185 0.931 . S
C220 C219 1.393 . S
C220 C221 1.382 . S
C221 H186 0.929 . S
C221 C216 1.371 . S
C221 C220 1.382 . S
C222 N190 1.423 . S
C222 C223 1.362 . S
C222 C227 1.388 . S
C223 H187 0.929 . S
C223 C222 1.362 . S
C223 C224 1.376 . S
C224 H188 0.931 . S
C224 C223 1.376 . S
C224 C225 1.396 . S
C225 C207 1.472 . S
C225 C224 1.396 . S
C225 C226 1.348 . S
C226 H189 0.929 . S
C226 C225 1.348 . S
C226 C227 1.443 . S
C227 H191 0.932 . S
C227 C222 1.388 . S
C227 C226 1.443 . S
C228 C229 1.386 1_655 S
C228 H232 0.950 . S
C228 C237 1.390 . S
C229 C228 1.386 1_455 S
C229 C231 1.387 . S
H230 C237 0.950 . S
C231 C229 1.387 . S
C231 C233 1.390 . S
C231 H235 0.950 . S
H232 C228 0.950 . S
C233 C231 1.390 . S
C233 C234 1.389 . S
C233 H236 0.950 . S
C234 C233 1.389 . S
C234 C237 1.389 1_455 S
H235 C231 0.950 . S
H236 C233 0.950 . S
C237 C228 1.390 . S
C237 H230 0.950 . S
C237 C234 1.389 1_655 S
C238 C239 1.387 . S
C238 H242 0.950 . S
C238 C247 1.390 . S
C239 C238 1.387 . S
C239 C241 1.387 1_545 S
H240 C247 0.950 . S
C241 C239 1.387 1_565 S
C241 C243 1.390 . S
C241 H245 0.950 . S
H242 C238 0.950 . S
C243 C241 1.390 . S
C243 C244 1.367 1_565 S
C243 H246 0.950 . S
C244 C243 1.367 1_545 S
C244 C247 1.401 . S
H245 C241 0.950 . S
H246 C243 0.950 . S
C247 C238 1.390 . S
C247 H240 0.950 . S
C247 C244 1.401 . S
C248 C249 1.387 . S
C248 H252 0.950 . S
C248 C257 1.390 . S
C249 C248 1.387 . S
C249 C251 1.387 . S
H250 C257 0.950 . S
C251 C249 1.387 . S
C251 C253 1.390 . S
C251 H255 0.950 . S
H252 C248 0.950 . S
C253 C251 1.390 . S
C253 C254 1.387 . S
C253 H256 0.950 . S
C254 C253 1.387 . S
C254 C257 1.387 . S
H255 C251 0.950 . S
H256 C253 0.950 . S
C257 C248 1.390 . S
C257 H250 0.950 . S
C257 C254 1.387 . S
C258 C259 1.389 . S
C258 H262 0.950 . S
C258 C267 1.390 . S
C259 C258 1.389 . S
C259 C261 1.382 1_655 S
H260 C267 0.950 . S
C261 C259 1.382 1_455 S
C261 C263 1.390 . S
C261 H265 0.950 . S
H262 C258 0.950 . S
C263 C261 1.390 . S
C263 C264 1.388 . S
C263 H266 0.950 . S
C264 C263 1.388 . S
C264 C267 1.386 1_455 S
H265 C261 0.950 . S
H266 C263 0.950 . S
C267 C258 1.390 . S
C267 H260 0.950 . S
C267 C264 1.386 1_655 S
C268 C269 1.387 1_545 S
C268 H272 0.950 . S
C268 C277 1.390 . S
C269 C268 1.387 1_565 S
C269 C271 1.387 . S
H270 C277 0.950 . S
C271 C269 1.387 . S
C271 C273 1.390 . S
C271 H275 0.950 . S
H272 C268 0.950 . S
C273 C271 1.390 . S
C273 C274 1.398 . S
C273 H276 0.950 . S
C274 C273 1.398 . S
C274 C277 1.372 1_565 S
H275 C271 0.950 . S
H276 C273 0.950 . S
C277 C268 1.390 . S
C277 H270 0.950 . S
C277 C274 1.372 1_545 S
C278 C279 1.387 . S
C278 H282 0.950 . S
C278 C287 1.390 . S
C279 C278 1.387 . S
C279 C281 1.387 . S
H280 C287 0.950 . S
C281 C279 1.387 . S
C281 C283 1.390 . S
C281 H285 0.950 . S
H282 C278 0.950 . S
C283 C281 1.390 . S
C283 C284 1.387 . S
C283 H286 0.950 . S
C284 C283 1.387 . S
C284 C287 1.387 . S
H285 C281 0.950 . S
H286 C283 0.950 . S
C287 C278 1.390 . S
C287 H280 0.950 . S
C287 C284 1.387 . S
C288 C289 1.387 1_545 S
C288 H292 0.950 . S
C288 C297 1.390 . S
C289 C288 1.387 1_565 S
C289 C291 1.387 . S
H290 C297 0.950 . S
C291 C289 1.387 . S
C291 C293 1.390 . S
C291 H295 0.950 . S
H292 C288 0.950 . S
C293 C291 1.390 . S
C293 C294 1.387 . S
C293 H296 0.950 . S
C294 C293 1.387 . S
C294 C297 1.387 1_565 S
H295 C291 0.950 . S
H296 C293 0.950 . S
C297 C288 1.390 . S
C297 H290 0.950 . S
C297 C294 1.387 1_545 S
C298 C299 1.387 . S
C298 H302 0.950 . S
C298 C307 1.390 . S
C299 C298 1.387 . S
C299 C301 1.387 . S
H300 C307 0.950 . S
C301 C299 1.387 . S
C301 C303 1.390 . S
C301 H305 0.950 1_556 S
H302 C298 0.950 . S
C303 C301 1.390 . S
C303 C304 1.387 . S
C303 H306 0.950 . S
C304 C303 1.387 . S
C304 C307 1.387 . S
H305 C301 0.950 1_554 S
H306 C303 0.950 . S
C307 C298 1.390 . S
C307 H300 0.950 . S
C307 C304 1.387 . S
C308 C309 1.387 1_655 S
C308 H312 0.950 . S
C308 C317 1.390 . S
C309 C308 1.387 1_455 S
C309 C311 1.387 . S
H310 C317 0.950 . S
C311 C309 1.387 . S
C311 C313 1.390 . S
C311 H315 0.950 . S
H312 C308 0.950 . S
C313 C311 1.390 . S
C313 C314 1.387 . S
C313 H316 0.950 . S
C314 C313 1.387 . S
C314 C317 1.387 1_455 S
H315 C311 0.950 . S
H316 C313 0.950 . S
C317 C308 1.390 . S
C317 H310 0.950 . S
C317 C314 1.387 1_655 S
C318 C319 1.387 1_565 S
C318 H322 0.950 . S
C318 C327 1.390 . S
C319 C318 1.387 1_545 S
C319 C321 1.387 . S
H320 C327 0.950 . S
C321 C319 1.387 . S
C321 C323 1.390 . S
C321 H325 0.950 . S
H322 C318 0.950 . S
C323 C321 1.390 . S
C323 C324 1.387 . S
C323 H326 0.950 . S
C324 C323 1.387 . S
C324 C327 1.387 1_545 S
H325 C321 0.950 . S
H326 C323 0.950 . S
C327 C318 1.390 . S
C327 H320 0.950 . S
C327 C324 1.387 1_565 S
C328 C329 1.387 . S
C328 H332 0.950 . S
C328 C337 1.390 . S
C329 C328 1.387 . S
C329 C331 1.387 . S
H330 C337 0.950 . S
C331 C329 1.387 . S
C331 C333 1.390 . S
C331 H335 0.950 1_556 S
H332 C328 0.950 . S
C333 C331 1.390 . S
C333 C334 1.387 . S
C333 H336 0.950 . S
C334 C333 1.387 . S
C334 C337 1.387 . S
H335 C331 0.950 1_554 S
H336 C333 0.950 . S
C337 C328 1.390 . S
C337 H330 0.950 . S
C337 C334 1.387 . S
C338 C339 1.387 1_455 S
C338 H342 0.950 . S
C338 C347 1.390 . S
C339 C338 1.387 1_655 S
C339 C341 1.387 . S
H340 C347 0.950 . S
C341 C339 1.387 . S
C341 C343 1.390 . S
C341 H345 0.950 . S
H342 C338 0.950 . S
C343 C341 1.390 . S
C343 C344 1.387 . S
C343 H346 0.950 . S
C344 C343 1.387 . S
C344 C347 1.387 1_655 S
H345 C341 0.950 . S
H346 C343 0.950 . S
C347 C338 1.390 . S
C347 H340 0.950 . S
C347 C344 1.387 1_455 S
C234 C95 1.399 1_455 S
C229 C6 1.394 1_455 S
C239 C22 1.572 . S
C244 C139 1.599 . S
C249 C34 1.261 . S
C254 C201 1.277 . S
C259 C7 1.398 1_655 S
C264 C77 1.405 1_455 S
C274 C157 1.595 1_565 S
C269 C23 1.571 . S
C279 C35 1.262 . S
C284 C219 1.277 . S
C294 C133 1.696 1_565 S
C289 C36 1.782 . S
C299 C9 1.990 1_556 S
C304 C195 1.910 . S
C314 C71 1.577 1_455 S
C309 C21 1.654 1_455 S
C324 C151 1.689 . S
C319 C37 1.778 . S
C334 C213 1.907 . S
C329 C8 1.988 1_556 S
C339 C20 1.651 1_655 S
C344 C89 1.571 . S
