# Generated by pormake.
# Topology apo, (3,6)-cn, num edge types: 1
# Building blocks:
#     Node 0, Type 0, BuildingBlock: MIDCAF_clean_linker_0, # of connection points: 3
#     Node 1, Type 0, BuildingBlock: MIDCAF_clean_linker_0, # of connection points: 3
#     Node 2, Type 0, BuildingBlock: MIDCAF_clean_linker_0, # of connection points: 3
#     Node 3, Type 0, BuildingBlock: MIDCAF_clean_linker_0, # of connection points: 3
#     Node 4, Type 0, BuildingBlock: MIDCAF_clean_linker_0, # of connection points: 3
#     Node 5, Type 0, BuildingBlock: MIDCAF_clean_linker_0, # of connection points: 3
#     Node 6, Type 0, BuildingBlock: MIDCAF_clean_linker_0, # of connection points: 3
#     Node 7, Type 0, BuildingBlock: MIDCAF_clean_linker_0, # of connection points: 3
#     Node 8, Type 1, BuildingBlock: MIDCAF_clean_sbu_0, # of connection points: 6
#     Node 9, Type 1, BuildingBlock: MIDCAF_clean_sbu_0, # of connection points: 6
#     Node 10, Type 1, BuildingBlock: MIDCAF_clean_sbu_0, # of connection points: 6
#     Node 11, Type 1, BuildingBlock: MIDCAF_clean_sbu_0, # of connection points: 6
#     Edge 12, Type (0, 1), BuildingBlock: CIFDUS_clean_linker_0, # of connection points: 2
#     Edge 13, Type (0, 1), BuildingBlock: CIFDUS_clean_linker_0, # of connection points: 2
#     Edge 14, Type (0, 1), BuildingBlock: CIFDUS_clean_linker_0, # of connection points: 2
#     Edge 15, Type (0, 1), BuildingBlock: CIFDUS_clean_linker_0, # of connection points: 2
#     Edge 16, Type (0, 1), BuildingBlock: CIFDUS_clean_linker_0, # of connection points: 2
#     Edge 17, Type (0, 1), BuildingBlock: CIFDUS_clean_linker_0, # of connection points: 2
#     Edge 18, Type (0, 1), BuildingBlock: CIFDUS_clean_linker_0, # of connection points: 2
#     Edge 19, Type (0, 1), BuildingBlock: CIFDUS_clean_linker_0, # of connection points: 2
#     Edge 20, Type (0, 1), BuildingBlock: CIFDUS_clean_linker_0, # of connection points: 2
#     Edge 21, Type (0, 1), BuildingBlock: CIFDUS_clean_linker_0, # of connection points: 2
#     Edge 22, Type (0, 1), BuildingBlock: CIFDUS_clean_linker_0, # of connection points: 2
#     Edge 23, Type (0, 1), BuildingBlock: CIFDUS_clean_linker_0, # of connection points: 2
#     Edge 24, Type (0, 1), BuildingBlock: CIFDUS_clean_linker_0, # of connection points: 2
#     Edge 25, Type (0, 1), BuildingBlock: CIFDUS_clean_linker_0, # of connection points: 2
#     Edge 26, Type (0, 1), BuildingBlock: CIFDUS_clean_linker_0, # of connection points: 2
#     Edge 27, Type (0, 1), BuildingBlock: CIFDUS_clean_linker_0, # of connection points: 2
#     Edge 28, Type (0, 1), BuildingBlock: CIFDUS_clean_linker_0, # of connection points: 2
#     Edge 29, Type (0, 1), BuildingBlock: CIFDUS_clean_linker_0, # of connection points: 2
#     Edge 30, Type (0, 1), BuildingBlock: CIFDUS_clean_linker_0, # of connection points: 2
#     Edge 31, Type (0, 1), BuildingBlock: CIFDUS_clean_linker_0, # of connection points: 2
#     Edge 32, Type (0, 1), BuildingBlock: CIFDUS_clean_linker_0, # of connection points: 2
#     Edge 33, Type (0, 1), BuildingBlock: CIFDUS_clean_linker_0, # of connection points: 2
#     Edge 34, Type (0, 1), BuildingBlock: CIFDUS_clean_linker_0, # of connection points: 2
#     Edge 35, Type (0, 1), BuildingBlock: CIFDUS_clean_linker_0, # of connection points: 2
# Relax obj value: 0.088
# Max RMSD: 0.101
# Mean RMSD: 0.092
data_MOF--net-apo--node1-MIDCAF_clean_sbu_0--node2-MIDCAF_clean_linker_0--edge1-CIFDUS_clean_linker_0
_symmetry_space_group_name_H-M    P1
_symmetry_Int_Tables_number       1
_symmetry_cell_setting            triclinic
loop_
_symmetry_equiv_pos_as_xyz
'x, y, z'
_cell_length_a     37.887243
_cell_length_b     45.179274
_cell_length_c     40.44174
_cell_angle_alpha  89.786877
_cell_angle_beta   90.457742
_cell_angle_gamma 90.272087
loop_
_atom_site_label
_atom_site_type_symbol
_atom_site_fract_x
_atom_site_fract_y
_atom_site_fract_z
_atom_type_partial_charge
C0 C 0.38285 0.36472 0.49485 0.0
C1 C 0.36456 0.34561 0.51621 0.0
C2 C 0.3423 0.32378 0.50251 0.0
C3 C 0.338 0.3216 0.46804 0.0
H4 H 0.26019 0.30608 0.3923 0.0
H5 H 0.20691 0.28644 0.36625 0.0
H6 H 0.25525 0.294 0.27035 0.0
H7 H 0.30889 0.31402 0.29631 0.0
H8 H 0.35524 0.38381 0.2988 0.0
H9 H 0.38599 0.42648 0.27513 0.0
H10 H 0.46743 0.41869 0.34984 0.0
H11 H 0.43687 0.37618 0.37356 0.0
H12 H 0.39358 0.37767 0.44533 0.0
H13 H 0.40075 0.38139 0.50456 0.0
H14 H 0.32802 0.30866 0.51844 0.0
H15 H 0.32047 0.30478 0.4581 0.0
N16 N 0.32481 0.32499 0.39564 0.0
N17 N 0.34307 0.34204 0.3434 0.0
N18 N 0.37503 0.35506 0.39094 0.0
C19 C 0.32017 0.32598 0.36215 0.0
C20 C 0.37076 0.35645 0.35769 0.0
C21 C 0.35234 0.3395 0.41019 0.0
C22 C 0.28883 0.31184 0.34644 0.0
C23 C 0.25973 0.30341 0.3657 0.0
C24 C 0.22908 0.29233 0.35076 0.0
C25 C 0.22686 0.28905 0.31625 0.0
C26 C 0.25629 0.29638 0.29698 0.0
C27 C 0.28689 0.30791 0.3119 0.0
C28 C 0.39328 0.37698 0.33844 0.0
C29 C 0.38027 0.39058 0.30953 0.0
C30 C 0.39781 0.41506 0.29602 0.0
C31 C 0.42886 0.42607 0.31089 0.0
C32 C 0.44365 0.41063 0.33776 0.0
C33 C 0.42595 0.38642 0.3515 0.0
C34 C 0.35644 0.34085 0.44675 0.0
C35 C 0.37896 0.36234 0.46072 0.0
C36 C 0.1358 0.17084 0.01056 0.0
C37 C 0.13337 0.20041 0.02084 0.0
C38 C 0.1418 0.22311 0.99833 0.0
C39 C 0.15176 0.21632 0.96593 0.0
H40 H 0.21816 0.24324 0.88525 0.0
H41 H 0.26186 0.27091 0.85358 0.0
H42 H 0.25567 0.2058 0.77586 0.0
H43 H 0.21227 0.17794 0.80741 0.0
H44 H 0.17288 0.1187 0.81841 0.0
H45 H 0.15238 0.07109 0.79734 0.0
H46 H 0.08119 0.06265 0.87965 0.0
H47 H 0.1016 0.1103 0.90096 0.0
H48 H 0.1457 0.14106 0.97077 0.0
H49 H 0.12897 0.1529 0.02721 0.0
H50 H 0.13997 0.2461 1.00563 0.0
H51 H 0.15747 0.23424 0.9489 0.0
N52 N 0.18041 0.1972 0.90132 0.0
N53 N 0.17401 0.16427 0.8569 0.0
N54 N 0.14646 0.15389 0.90725 0.0
C55 C 0.18768 0.18974 0.8695 0.0
C56 C 0.1532 0.14633 0.87547 0.0
C57 C 0.15992 0.17925 0.92037 0.0
C58 C 0.21186 0.20815 0.84914 0.0
C59 C 0.2258 0.23493 0.86128 0.0
C60 C 0.25068 0.25093 0.84301 0.0
C61 C 0.2623 0.24047 0.81226 0.0
C62 C 0.2475 0.21427 0.79961 0.0
C63 C 0.22251 0.19836 0.81775 0.0
C64 C 0.13912 0.11827 0.86157 0.0
C65 C 0.15262 0.1069 0.83193 0.0
C66 C 0.14097 0.07959 0.81985 0.0
C67 C 0.11526 0.06319 0.83688 0.0
C68 C 0.10082 0.07496 0.86586 0.0
C69 C 0.11276 0.10214 0.87819 0.0
C70 C 0.15257 0.18673 0.95527 0.0
C71 C 0.145 0.16409 0.9781 0.0
C72 C 0.85338 0.15309 0.48287 0.0
C73 C 0.84739 0.18226 0.47212 0.0
C74 C 0.83337 0.20277 0.49439 0.0
C75 C 0.82675 0.19457 0.52715 0.0
H76 H 0.79043 0.22591 0.61445 0.0
H77 H 0.75163 0.25699 0.64633 0.0
H78 H 0.74142 0.1881 0.72 0.0
H79 H 0.7808 0.15644 0.68766 0.0
H80 H 0.8687 0.11909 0.68467 0.0
H81 H 0.90758 0.08022 0.70588 0.0
H82 H 0.91561 0.04429 0.60733 0.0
H83 H 0.87811 0.08335 0.58618 0.0
H84 H 0.85339 0.12262 0.52355 0.0
H85 H 0.86464 0.13693 0.46633 0.0
H86 H 0.82861 0.22541 0.48672 0.0
H87 H 0.81692 0.21117 0.54394 0.0
N88 N 0.81216 0.17531 0.5943 0.0
N89 N 0.82878 0.14621 0.64003 0.0
N90 N 0.84981 0.13507 0.58701 0.0
C91 C 0.81032 0.1694 0.6272 0.0
C92 C 0.84872 0.12897 0.61996 0.0
C93 C 0.83161 0.15821 0.57399 0.0
C94 C 0.7886 0.18862 0.64843 0.0
C95 C 0.78021 0.2173 0.63752 0.0
C96 C 0.75817 0.23528 0.65599 0.0
C97 C 0.74368 0.22507 0.6858 0.0
C98 C 0.75227 0.1965 0.69709 0.0
C99 C 0.77488 0.1785 0.67869 0.0
C100 C 0.87042 0.10448 0.63366 0.0
C101 C 0.87875 0.10282 0.6676 0.0
C102 C 0.90103 0.08052 0.67977 0.0
C103 C 0.91526 0.0593 0.65829 0.0
C104 C 0.90613 0.06069 0.62453 0.0
C105 C 0.88425 0.08303 0.61238 0.0
C106 C 0.83466 0.16583 0.53844 0.0
C107 C 0.84731 0.145 0.51575 0.0
C108 C 0.64878 0.38527 0.99999 0.0
C109 C 0.65139 0.36002 0.97986 0.0
C110 C 0.66023 0.33284 0.995 0.0
C111 C 0.66578 0.33088 0.02915 0.0
H112 H 0.72152 0.28428 0.1025 0.0
H113 H 0.75956 0.24701 0.127 0.0
H114 H 0.74368 0.28479 0.22364 0.0
H115 H 0.70563 0.32266 0.19905 0.0
H116 H 0.65384 0.37836 0.20593 0.0
H117 H 0.62461 0.4163 0.23867 0.0
H118 H 0.5709 0.44771 0.15077 0.0
H119 H 0.59927 0.40987 0.11838 0.0
H120 H 0.65077 0.40292 0.04906 0.0
H121 H 0.6428 0.40671 0.98939 0.0
H122 H 0.66172 0.31267 0.98074 0.0
H123 H 0.67185 0.30951 0.03997 0.0
N124 N 0.68502 0.33191 0.09987 0.0
N125 N 0.66963 0.34891 0.15261 0.0
N126 N 0.64711 0.37237 0.10518 0.0
C127 C 0.68771 0.32965 0.13339 0.0
C128 C 0.64906 0.3702 0.13865 0.0
C129 C 0.66494 0.35337 0.08563 0.0
C130 C 0.71038 0.30655 0.14872 0.0
C131 C 0.72594 0.28474 0.12899 0.0
C132 C 0.7476 0.26317 0.1431 0.0
C133 C 0.75438 0.26277 0.17734 0.0
C134 C 0.73901 0.28458 0.19718 0.0
C135 C 0.71708 0.30617 0.18305 0.0
C136 C 0.62932 0.3913 0.1594 0.0
C137 C 0.63538 0.39309 0.19371 0.0
C138 C 0.61867 0.41482 0.21249 0.0
C139 C 0.59541 0.435 0.19736 0.0
C140 C 0.58818 0.43225 0.16337 0.0
C141 C 0.6049 0.41071 0.14466 0.0
C142 C 0.66183 0.35588 0.04921 0.0
C143 C 0.65356 0.38314 0.03425 0.0
C144 C 0.64103 0.64047 0.50679 0.0
C145 C 0.6493 0.66686 0.48997 0.0
C146 C 0.66384 0.69057 0.50802 0.0
C147 C 0.6696 0.688 0.54222 0.0
H148 H 0.72078 0.72607 0.62236 0.0
H149 H 0.75984 0.75993 0.65143 0.0
H150 H 0.74979 0.70781 0.74059 0.0
H151 H 0.71048 0.67338 0.71131 0.0
H152 H 0.6492 0.62249 0.71255 0.0
H153 H 0.61405 0.58473 0.741 0.0
H154 H 0.56525 0.56059 0.648 0.0
H155 H 0.59952 0.59813 0.61983 0.0
H156 H 0.639 0.61751 0.55304 0.0
H157 H 0.62931 0.62194 0.49371 0.0
H158 H 0.67049 0.71117 0.49573 0.0
H159 H 0.68044 0.70678 0.55548 0.0
N160 N 0.68543 0.67837 0.61271 0.0
N161 N 0.67017 0.65501 0.66266 0.0
N162 N 0.64575 0.6385 0.61252 0.0
C163 C 0.68878 0.6762 0.64619 0.0
C164 C 0.64844 0.63614 0.64597 0.0
C165 C 0.66411 0.65948 0.59567 0.0
C166 C 0.71235 0.69694 0.66443 0.0
C167 C 0.7267 0.7217 0.64816 0.0
C168 C 0.74893 0.74132 0.66494 0.0
C169 C 0.75758 0.73674 0.69844 0.0
C170 C 0.74355 0.7119 0.71479 0.0
C171 C 0.72095 0.69229 0.69801 0.0
C172 C 0.62728 0.61344 0.66382 0.0
C173 C 0.63081 0.60922 0.69822 0.0
C174 C 0.61073 0.58756 0.71456 0.0
C175 C 0.58651 0.56988 0.69688 0.0
C176 C 0.583 0.57426 0.66258 0.0
C177 C 0.60304 0.59569 0.6463 0.0
C178 C 0.66031 0.66185 0.55915 0.0
C179 C 0.64628 0.63804 0.54092 0.0
C180 C 0.86344 0.82733 0.9978 0.0
C181 C 0.86492 0.79758 0.98798 0.0
C182 C 0.8557 0.77538 0.01086 0.0
C183 C 0.84668 0.78278 0.04333 0.0
H184 H 0.79521 0.75491 0.13004 0.0
H185 H 0.7567 0.72523 0.16452 0.0
H186 H 0.75994 0.79253 0.24003 0.0
H187 H 0.79866 0.82274 0.20515 0.0
H188 H 0.875 0.86614 0.19822 0.0
H189 H 0.91148 0.90759 0.21754 0.0
H190 H 0.92442 0.93683 0.11648 0.0
H191 H 0.88918 0.8955 0.0973 0.0
H192 H 0.85574 0.85776 0.03745 0.0
H193 H 0.87084 0.84489 0.98087 0.0
H194 H 0.85671 0.75226 1.00393 0.0
H195 H 0.84096 0.76517 0.06077 0.0
N196 N 0.82458 0.80295 0.10983 0.0
N197 N 0.83945 0.83417 0.15429 0.0
N198 N 0.86062 0.8444 0.10112 0.0
C199 C 0.82201 0.80993 0.14248 0.0
C200 C 0.85896 0.85147 0.13366 0.0
C201 C 0.84364 0.82026 0.08898 0.0
C202 C 0.80004 0.79131 0.16469 0.0
C203 C 0.78801 0.76345 0.15403 0.0
C204 C 0.76612 0.74624 0.174 0.0
C205 C 0.75548 0.75639 0.20519 0.0
C206 C 0.76767 0.78414 0.21612 0.0
C207 C 0.78996 0.80135 0.19617 0.0
C208 C 0.8793 0.87731 0.14618 0.0
C209 C 0.88563 0.88148 0.18019 0.0
C210 C 0.90654 0.90523 0.19127 0.0
C211 C 0.92143 0.92531 0.16855 0.0
C212 C 0.91436 0.92136 0.13467 0.0
C213 C 0.89377 0.8977 0.12365 0.0
C214 C 0.84756 0.81246 0.05366 0.0
C215 C 0.85514 0.83467 0.03032 0.0
C216 C 0.13665 0.82936 0.51749 0.0
C217 C 0.134 0.79945 0.52677 0.0
C218 C 0.1417 0.77755 0.50332 0.0
C219 C 0.15112 0.78546 0.47101 0.0
H220 H 0.20908 0.75815 0.3866 0.0
H221 H 0.2481 0.72891 0.35228 0.0
H222 H 0.24938 0.79859 0.27892 0.0
H223 H 0.21056 0.8281 0.31328 0.0
H224 H 0.1758 0.88862 0.32832 0.0
H225 H 0.15538 0.93636 0.30763 0.0
H226 H 0.07994 0.94089 0.3868 0.0
H227 H 0.10047 0.8931 0.40791 0.0
H228 H 0.14625 0.86051 0.47859 0.0
H229 H 0.13038 0.84669 0.5349 0.0
H230 H 0.1397 0.75432 0.50981 0.0
H231 H 0.15626 0.76811 0.45329 0.0
N232 N 0.17805 0.80606 0.40643 0.0
N233 N 0.17239 0.84058 0.36327 0.0
N234 N 0.14675 0.85015 0.41461 0.0
C235 C 0.18489 0.81433 0.37469 0.0
C236 C 0.15314 0.85851 0.38292 0.0
C237 C 0.15916 0.82399 0.42659 0.0
C238 C 0.20679 0.7956 0.35291 0.0
C239 C 0.21739 0.76721 0.36306 0.0
C240 C 0.23953 0.75031 0.34321 0.0
C241 C 0.25173 0.76142 0.3128 0.0
C242 C 0.24056 0.78951 0.30228 0.0
C243 C 0.21822 0.80635 0.32202 0.0
C244 C 0.1399 0.8871 0.36991 0.0
C245 C 0.15473 0.89964 0.34129 0.0
C246 C 0.14313 0.92701 0.32944 0.0
C247 C 0.11612 0.94222 0.34563 0.0
C248 C 0.10064 0.92945 0.37375 0.0
C249 C 0.1126 0.90224 0.38594 0.0
C250 C 0.15218 0.8154 0.46137 0.0
C251 C 0.14535 0.83724 0.48512 0.0
C252 C 0.36242 0.65456 0.02271 0.0
C253 C 0.36669 0.68509 0.02782 0.0
C254 C 0.35782 0.70477 1.00207 0.0
C255 C 0.34565 0.694 0.97152 0.0
H256 H 0.28327 0.71271 0.88385 0.0
H257 H 0.23923 0.73745 0.84932 0.0
H258 H 0.2217 0.65652 0.79515 0.0
H259 H 0.266 0.63166 0.8295 0.0
H260 H 0.31744 0.57389 0.84667 0.0
H261 H 0.3471 0.52864 0.82866 0.0
H262 H 0.43337 0.54685 0.89591 0.0
H263 H 0.40367 0.59159 0.91447 0.0
H264 H 0.3492 0.62008 0.9886 0.0
H265 H 0.36951 0.63887 0.04195 0.0
H266 H 0.36108 0.72841 1.00535 0.0
H267 H 0.33974 0.70957 0.95184 0.0
N268 N 0.31188 0.66611 0.91205 0.0
N269 N 0.31784 0.62842 0.87255 0.0
N270 N 0.34866 0.62555 0.92295 0.0
C271 C 0.30335 0.65458 0.8819 0.0
C272 C 0.34083 0.61396 0.89284 0.0
C273 C 0.33421 0.65146 0.93283 0.0
C274 C 0.27805 0.67012 0.85965 0.0
C275 C 0.27029 0.7002 0.86442 0.0
C276 C 0.2453 0.71449 0.84441 0.0
C277 C 0.22711 0.69895 0.81944 0.0
C278 C 0.2353 0.66904 0.81422 0.0
C279 C 0.26071 0.65485 0.8339 0.0
C280 C 0.35817 0.58632 0.88203 0.0
C281 C 0.34268 0.56818 0.85767 0.0
C282 C 0.35952 0.54226 0.84747 0.0
C283 C 0.3925 0.53439 0.86089 0.0
C284 C 0.40803 0.55254 0.8851 0.0
C285 C 0.3909 0.57805 0.8958 0.0
C286 C 0.34315 0.66336 0.96596 0.0
C287 C 0.35113 0.6438 0.99205 0.0
Zn288 Zn 0.02561 0.15728 0.30972 0.0
Zn289 Zn 0.9727 0.14039 0.19351 0.0
Zn290 Zn 0.99877 0.14902 0.25196 0.0
C291 C 0.03272 0.17412 0.1838 0.0
C292 C 0.98436 0.08463 0.21813 0.0
O293 O 0.95766 0.17001 0.28287 0.0
O294 O 0.98277 0.17009 0.33242 0.0
C295 C 0.06614 0.19133 0.26891 0.0
O296 O 0.03525 0.16986 0.21531 0.0
O297 O 0.00619 0.16465 0.16799 0.0
O298 O 0.9765 0.09684 0.19099 0.0
O299 O 0.99288 0.10048 0.24346 0.0
O300 O 0.05956 0.18831 0.29921 0.0
O301 O 0.048 0.1769 0.24708 0.0
O302 O 0.01169 0.10513 0.27308 0.0
O303 O 0.04377 0.11661 0.3172 0.0
C304 C 0.03124 0.09737 0.2978 0.0
O305 O 0.94571 0.17031 0.25004 0.0
O306 O 0.9254 0.15695 0.2009 0.0
C307 C 0.95635 0.17517 0.31415 0.0
C308 C 0.92095 0.17022 0.22793 0.0
Zn309 Zn 0.53353 0.36111 0.70038 0.0
Zn310 Zn 0.4928 0.31951 0.79724 0.0
Zn311 Zn 0.50545 0.34493 0.75036 0.0
C312 C 0.46612 0.37716 0.80449 0.0
C313 C 0.44929 0.29602 0.75658 0.0
O314 O 0.54664 0.31266 0.74779 0.0
O315 O 0.57538 0.3344 0.70738 0.0
C316 C 0.5309 0.41112 0.74155 0.0
O317 O 0.49335 0.38014 0.78578 0.0
O318 O 0.45587 0.35117 0.81156 0.0
O319 O 0.47336 0.2837 0.77354 0.0
O320 O 0.4537 0.32305 0.74736 0.0
O321 O 0.53809 0.40374 0.71229 0.0
O322 O 0.51916 0.39169 0.76222 0.0
O323 O 0.4613 0.34157 0.71568 0.0
O324 O 0.49292 0.34942 0.67087 0.0
C325 C 0.46369 0.34322 0.68414 0.0
O326 O 0.5314 0.36969 0.79095 0.0
O327 O 0.54361 0.32621 0.81269 0.0
C328 C 0.57354 0.3143 0.72917 0.0
C329 C 0.55034 0.35367 0.81066 0.0
Zn330 Zn 0.0407 0.8429 0.81889 0.0
Zn331 Zn 0.97763 0.84981 0.70483 0.0
Zn332 Zn 0.00737 0.84613 0.76148 0.0
C333 C 0.98886 0.90738 0.72233 0.0
C334 C 0.92872 0.82231 0.74519 0.0
O335 O 0.05738 0.82031 0.7551 0.0
O336 O 0.07927 0.81687 0.80594 0.0
C337 C 0.03738 0.90263 0.80215 0.0
O338 O 0.99844 0.89378 0.74902 0.0
O339 O 0.98099 0.89286 0.69674 0.0
O340 O 0.93087 0.83433 0.71708 0.0
O341 O 0.95526 0.82317 0.76533 0.0
O342 O 0.0516 0.88575 0.82326 0.0
O343 O 0.01872 0.89187 0.77825 0.0
O344 O 0.97099 0.82415 0.79686 0.0
O345 O 0.0013 0.82494 0.84386 0.0
C346 C 0.97345 0.8185 0.82806 0.0
O347 O 0.04201 0.82481 0.72377 0.0
O348 O 0.00839 0.82391 0.67888 0.0
C349 C 0.08099 0.81073 0.77564 0.0
C350 C 0.03708 0.8176 0.6932 0.0
Zn351 Zn 0.53587 0.65025 0.20708 0.0
Zn352 Zn 0.467 0.65815 0.31955 0.0
Zn353 Zn 0.50155 0.65489 0.26346 0.0
C354 C 0.53432 0.68041 0.33221 0.0
C355 C 0.46676 0.59891 0.30214 0.0
O356 O 0.46903 0.67599 0.22368 0.0
O357 O 0.50202 0.67245 0.17898 0.0
C358 C 0.58055 0.68029 0.25064 0.0
O359 O 0.53751 0.67544 0.30098 0.0
O360 O 0.50585 0.67439 0.3468 0.0
O361 O 0.45334 0.61584 0.32331 0.0
O362 O 0.48677 0.60949 0.27932 0.0
O363 O 0.57959 0.66985 0.22176 0.0
O364 O 0.55385 0.67734 0.26998 0.0
O365 O 0.50837 0.60754 0.25185 0.0
O366 O 0.53654 0.60653 0.20406 0.0
C367 C 0.52245 0.5931 0.22798 0.0
O368 O 0.45279 0.68106 0.25415 0.0
O369 O 0.42988 0.68494 0.30417 0.0
C370 C 0.47371 0.68049 0.19247 0.0
C371 C 0.4288 0.69078 0.27368 0.0
H372 H 0.04963 0.96227 0.33311 0.0
H373 H 0.1591 0.9889 0.3327 0.0
H374 H 0.14239 0.03904 0.31637 0.0
H375 H 0.0966 0.07586 0.30468 0.0
H376 H 0.98718 0.04998 0.30457 0.0
H377 H 0.00364 0.99883 0.31807 0.0
C378 C 0.06971 0.97912 0.32934 0.0
C379 C 0.1055 0.97206 0.33421 0.0
C380 C 0.0599 0.00786 0.31967 0.0
C381 C 0.13141 0.99386 0.32891 0.0
C382 C 0.12188 0.02251 0.3197 0.0
C383 C 0.07648 0.05885 0.30733 0.0
C384 C 0.04082 0.06625 0.30317 0.0
C385 C 0.08623 0.02981 0.31534 0.0
C386 C 0.01481 0.04434 0.3067 0.0
C387 C 0.02424 0.01529 0.31486 0.0
H388 H 0.3674 0.47799 0.85911 0.0
H389 H 0.45932 0.53091 0.83731 0.0
H390 H 0.49051 0.48686 0.81831 0.0
H391 H 0.4915 0.43341 0.80792 0.0
H392 H 0.40033 0.37996 0.8313 0.0
H393 H 0.36915 0.42397 0.85022 0.0
C394 C 0.39421 0.47977 0.8501 0.0
C395 C 0.41105 0.50756 0.84942 0.0
C396 C 0.41217 0.45428 0.83981 0.0
C397 C 0.44595 0.50967 0.83812 0.0
C398 C 0.46374 0.48454 0.82726 0.0
C399 C 0.4648 0.43138 0.8171 0.0
C400 C 0.4482 0.40347 0.81801 0.0
C401 C 0.44712 0.45673 0.82803 0.0
C402 C 0.41377 0.40117 0.83047 0.0
C403 C 0.39585 0.42635 0.84113 0.0
H404 H 0.60971 0.53008 0.74327 0.0
H405 H 0.51726 0.55533 0.68707 0.0
H406 H 0.48779 0.50942 0.70292 0.0
H407 H 0.49328 0.45833 0.72303 0.0
H408 H 0.58557 0.43223 0.77825 0.0
H409 H 0.60968 0.48255 0.77372 0.0
C410 C 0.58272 0.52599 0.73537 0.0
C411 C 0.56613 0.54571 0.71317 0.0
C412 C 0.56596 0.4993 0.74437 0.0
C413 C 0.53105 0.54008 0.7033 0.0
C414 C 0.5141 0.51387 0.71246 0.0
C415 C 0.51791 0.46415 0.73532 0.0
C416 C 0.53774 0.44194 0.75093 0.0
C417 C 0.53197 0.49272 0.73157 0.0
C418 C 0.56981 0.44927 0.76645 0.0
C419 C 0.58377 0.47789 0.76339 0.0
H420 H 0.91163 0.96101 0.22227 0.0
H421 H 0.98111 0.9472 0.13969 0.0
H422 H 0.01072 0.99409 0.15099 0.0
H423 H 0.01104 0.04216 0.17919 0.0
H424 H 0.94201 0.05626 0.26159 0.0
H425 H 0.919 0.00574 0.25641 0.0
C426 C 0.93385 0.96783 0.20728 0.0
C427 C 0.94339 0.95094 0.17957 0.0
C428 C 0.95094 0.9949 0.21397 0.0
C429 C 0.97237 0.96021 0.1605 0.0
C430 C 0.98951 0.98696 0.16704 0.0
C431 C 0.99183 0.03371 0.19665 0.0
C432 C 0.97854 0.05254 0.22102 0.0
C433 C 0.97815 0.00498 0.19292 0.0
C434 C 0.95324 0.04176 0.24322 0.0
C435 C 0.93971 0.01305 0.23991 0.0
H436 H 0.91102 0.02817 0.71654 0.0
H437 H 0.97328 0.03642 0.62795 0.0
H438 H 0.00569 0.99186 0.64278 0.0
H439 H 0.01052 0.94686 0.67671 0.0
H440 H 0.94905 0.93841 0.76531 0.0
H441 H 0.92331 0.98732 0.75554 0.0
C442 C 0.93227 0.02072 0.70088 0.0
C443 C 0.93885 0.03524 0.67061 0.0
C444 C 0.95114 0.99506 0.70968 0.0
C445 C 0.96666 0.02515 0.65077 0.0
C446 C 0.98547 -0.00025 0.65934 0.0
C447 C 0.99238 0.95627 0.6944 0.0
C448 C 0.98196 0.93941 0.72188 0.0
C449 C 0.97705 0.98396 0.68808 0.0
C450 C 0.95812 0.95144 0.74448 0.0
C451 C 0.94296 0.97917 0.73856 0.0
H452 H 0.52949 0.45895 0.19429 0.0
H453 H 0.63172 0.47015 0.24058 0.0
H454 H 0.61509 0.51925 0.2594 0.0
H455 H 0.57602 0.56222 0.25355 0.0
H456 H 0.47561 0.55272 0.20414 0.0
H457 H 0.48679 0.49982 0.19555 0.0
C458 C 0.5479 0.472 0.20894 0.0
C459 C 0.58203 0.46112 0.21545 0.0
C460 C 0.53866 0.50071 0.2186 0.0
C461 C 0.60529 0.47791 0.2352 0.0
C462 C 0.59595 0.50618 0.24567 0.0
C463 C 0.55634 0.54824 0.24167 0.0
C464 C 0.52521 0.56088 0.22933 0.0
C465 C 0.56342 0.51827 0.23615 0.0
C466 C 0.49973 0.54307 0.21378 0.0
C467 C 0.50622 0.513 0.20878 0.0
H468 H 0.39032 0.47554 0.30585 0.0
H469 H 0.4972 0.44401 0.29945 0.0
H470 H 0.51886 0.49513 0.29463 0.0
H471 H 0.50719 0.54922 0.29681 0.0
H472 H 0.4 0.57938 0.30607 0.0
H473 H 0.37856 0.5284 0.30554 0.0
C474 C 0.41828 0.4798 0.30254 0.0
C475 C 0.4421 0.45611 0.30265 0.0
C476 C 0.43047 0.50906 0.30084 0.0
C477 C 0.47838 0.46198 0.29929 0.0
C478 C 0.49074 0.49116 0.29668 0.0
C479 C 0.47918 0.54446 0.29805 0.0
C480 C 0.45512 0.56782 0.3012 0.0
C481 C 0.46705 0.51494 0.29812 0.0
C482 C 0.41893 0.5616 0.30381 0.0
C483 C 0.40665 0.53253 0.30333 0.0
H484 H 0.0492 0.03948 0.82964 0.0
H485 H 0.15973 0.01901 0.81983 0.0
H486 H 0.14498 0.96791 0.80595 0.0
H487 H 0.10106 0.92819 0.80038 0.0
H488 H 0.99059 0.94768 0.81011 0.0
H489 H 0.00461 0.0001 0.81979 0.0
C490 C 0.06995 0.0238 0.82426 0.0
C491 C 0.1055 0.03294 0.82587 0.0
C492 C 0.06125 0.99437 0.81621 0.0
C493 C 0.13218 0.01256 0.81851 0.0
C494 C 0.12379 0.9833 0.81074 0.0
C495 C 0.08012 0.94411 0.80418 0.0
C496 C 0.04489 0.9345 0.80415 0.0
C497 C 0.08851 0.97389 0.81003 0.0
C498 C 0.01782 0.95497 0.80922 0.0
C499 C 0.02591 0.98477 0.81515 0.0
H500 H 0.15242 0.17791 0.08107 0.0
H501 H 0.07889 0.23731 0.03362 0.0
H502 H 0.04412 0.23948 0.08411 0.0
H503 H 0.02872 0.21673 0.13737 0.0
H504 H 0.10115 0.15663 0.18479 0.0
H505 H 0.14285 0.16308 0.13932 0.0
C506 C 0.12926 0.19188 0.08217 0.0
C507 C 0.1179 0.20708 0.05357 0.0
C508 C 0.10918 0.19279 0.11126 0.0
C509 C 0.08815 0.22542 0.0553 0.0
C510 C 0.06812 0.2265 0.08411 0.0
C511 C 0.05431 0.20604 0.1383 0.0
C512 C 0.06205 0.18632 0.16427 0.0
C513 C 0.07754 0.20924 0.11166 0.0
C514 C 0.09502 0.17234 0.16531 0.0
C515 C 0.11855 0.17563 0.139 0.0
H516 H 0.37962 0.30179 0.56081 0.0
H517 H 0.36323 0.39595 0.55277 0.0
H518 H 0.38683 0.40298 0.60848 0.0
H519 H 0.42228 0.38348 0.65467 0.0
H520 H 0.44044 0.28981 0.66271 0.0
H521 H 0.40533 0.2812 0.61239 0.0
C522 C 0.38019 0.32369 0.5717 0.0
C523 C 0.37045 0.34839 0.55245 0.0
C524 C 0.3944 0.32764 0.6037 0.0
C525 C 0.37132 0.37667 0.56687 0.0
C526 C 0.38481 0.38072 0.59872 0.0
C527 C 0.41719 0.36113 0.64607 0.0
C528 C 0.43346 0.33727 0.66222 0.0
C529 C 0.39792 0.35656 0.61672 0.0
C530 C 0.42757 0.30839 0.65073 0.0
C531 C 0.4079 0.30356 0.62178 0.0
H532 H 0.60316 0.39562 0.94788 0.0
H533 H 0.68072 0.32784 0.92958 0.0
H534 H 0.6593 0.32308 0.87299 0.0
H535 H 0.61297 0.33289 0.83162 0.0
H536 H 0.53763 0.40223 0.84836 0.0
H537 H 0.56502 0.41272 0.90219 0.0
C538 C 0.61627 0.38041 0.93143 0.0
C539 C 0.64284 0.36138 0.94369 0.0
C540 C 0.60429 0.37815 0.89851 0.0
C541 C 0.65923 0.34189 0.92153 0.0
C542 C 0.64725 0.33934 0.88894 0.0
C543 C 0.60339 0.35097 0.84664 0.0
C544 C 0.57327 0.36661 0.83639 0.0
C545 C 0.61893 0.35652 0.8776 0.0
C546 C 0.56097 0.39005 0.85577 0.0
C547 C 0.57634 0.39574 0.88672 0.0
H548 H 0.83542 0.15693 0.41178 0.0
H549 H 0.89005 0.22917 0.45965 0.0
H550 H 0.92393 0.2385 0.40967 0.0
H551 H 0.94671 0.219 0.35761 0.0
H552 H 0.89329 0.14662 0.30933 0.0
H553 H 0.84944 0.14498 0.35355 0.0
C554 C 0.85409 0.17518 0.41084 0.0
C555 C 0.86071 0.19202 0.43946 0.0
C556 C 0.87377 0.18028 0.382 0.0
C557 C 0.88454 0.21589 0.43794 0.0
C558 C 0.9041 0.22113 0.40943 0.0
C559 C 0.92447 0.20381 0.35609 0.0
C560 C 0.92324 0.18276 0.33069 0.0
C561 C 0.90015 0.20253 0.38198 0.0
C562 C 0.89453 0.16311 0.3287 0.0
C563 C 0.86984 0.16187 0.35426 0.0
H564 H 0.84916 0.8199 0.92667 0.0
H565 H 0.91822 0.759 0.97765 0.0
H566 H 0.95513 0.75544 0.92874 0.0
H567 H 0.97381 0.77713 0.876 0.0
H568 H 0.90551 0.83791 0.82429 0.0
H569 H 0.86178 0.83352 0.86844 0.0
C570 C 0.8718 0.80528 0.92666 0.0
C571 C 0.88125 0.79005 0.95586 0.0
C572 C 0.89316 0.80353 0.89843 0.0
C573 C 0.91035 0.7709 0.95551 0.0
C574 C 0.93166 0.76903 0.92761 0.0
C575 C 0.94875 0.78857 0.87391 0.0
C576 C 0.94293 0.80807 0.84732 0.0
C577 C 0.92419 0.78628 0.89956 0.0
C578 C 0.91043 0.82269 0.84456 0.0
C579 C 0.88567 0.82047 0.87002 0.0
H580 H 0.61516 0.71257 0.45996 0.0
H581 H 0.66198 0.62775 0.44008 0.0
H582 H 0.63658 0.62817 0.38432 0.0
H583 H 0.59231 0.64835 0.34549 0.0
H584 H 0.5411 0.73058 0.36799 0.0
H585 H 0.57786 0.73625 0.4176 0.0
C586 C 0.62067 0.69461 0.44307 0.0
C587 C 0.64002 0.66999 0.4543 0.0
C588 C 0.60511 0.69462 0.41137 0.0
C589 C 0.64666 0.64673 0.4322 0.0
C590 C 0.63219 0.64699 0.40029 0.0
C591 C 0.59048 0.66812 0.36053 0.0
C592 C 0.56452 0.68924 0.35305 0.0
C593 C 0.61015 0.67021 0.3901 0.0
C594 C 0.5614 0.71435 0.37312 0.0
C595 C 0.58204 0.71733 0.40173 0.0
H596 H 0.3495 0.67275 0.09188 0.0
H597 H 0.42464 0.72033 0.03207 0.0
H598 H 0.46229 0.72838 0.08054 0.0
H599 H 0.47857 0.71395 0.13721 0.0
H600 H 0.4038 0.66662 0.19757 0.0
H601 H 0.3608 0.66719 0.15207 0.0
C602 C 0.37371 0.68551 0.08975 0.0
C603 C 0.38456 0.69562 0.05843 0.0
C604 C 0.39534 0.68995 0.11778 0.0
C605 C 0.41574 0.71237 0.05591 0.0
C606 C 0.43739 0.7168 0.08358 0.0
C607 C 0.45239 0.70467 0.14073 0.0
C608 C 0.44448 0.68995 0.17049 0.0
C609 C 0.42815 0.70461 0.11429 0.0
C610 C 0.41046 0.67819 0.17494 0.0
C611 C 0.38604 0.67814 0.14873 0.0
H612 H 0.15437 0.8195 0.58773 0.0
H613 H 0.07929 0.76214 0.5388 0.0
H614 H 0.04572 0.75744 0.58981 0.0
H615 H 0.03189 0.77728 0.64452 0.0
H616 H 0.10621 0.83473 0.69404 0.0
H617 H 0.14651 0.83105 0.64715 0.0
C618 C 0.13111 0.80544 0.58857 0.0
C619 C 0.11899 0.79154 0.55945 0.0
C620 C 0.11177 0.80296 0.61804 0.0
C621 C 0.08913 0.77305 0.56086 0.0
C622 C 0.06979 0.7705 0.58998 0.0
C623 C 0.05752 0.78808 0.64551 0.0
C624 C 0.06595 0.80655 0.67236 0.0
C625 C 0.08004 0.78639 0.61822 0.0
C626 C 0.09923 0.82032 0.67363 0.0
C627 C 0.12202 0.81856 0.64659 0.0
H628 H 0.21714 0.24408 0.27186 0.0
H629 H 0.16149 0.31089 0.32639 0.0
H630 H 0.10507 0.28978 0.30883 0.0
H631 H 0.07225 0.24777 0.28646 0.0
H632 H 0.12677 0.17822 0.23587 0.0
H633 H 0.18273 0.20535 0.24198 0.0
C634 C 0.1926 0.25431 0.27919 0.0
C635 C 0.19336 0.27865 0.30089 0.0
C636 C 0.16008 0.24157 0.26956 0.0
C637 C 0.16147 0.29179 0.31026 0.0
C638 C 0.12923 0.27981 0.30013 0.0
C639 C 0.09623 0.2392 0.27559 0.0
C640 C 0.09553 0.2113 0.26046 0.0
C641 C 0.12827 0.25408 0.28093 0.0
C642 C 0.12663 0.20002 0.24688 0.0
C643 C 0.15871 0.21528 0.25104 0.0
H644 H 0.31949 0.21495 0.78459 0.0
H645 H 0.2715 0.29988 0.80143 0.0
H646 H 0.32371 0.32482 0.77922 0.0
H647 H 0.38576 0.3224 0.7619 0.0
H648 H 0.43505 0.23738 0.74975 0.0
H649 H 0.37918 0.21247 0.76197 0.0
C650 C 0.32008 0.2389 0.78265 0.0
C651 C 0.29176 0.25555 0.79483 0.0
C652 C 0.35045 0.25304 0.77057 0.0
C653 C 0.29318 0.28659 0.79262 0.0
C654 C 0.32296 0.30084 0.77982 0.0
C655 C 0.38389 0.29845 0.76086 0.0
C656 C 0.41432 0.28167 0.75485 0.0
C657 C 0.35216 0.28431 0.76962 0.0
C658 C 0.41185 0.25067 0.75423 0.0
C659 C 0.38003 0.23645 0.76151 0.0
H660 H 0.67922 0.20966 0.71052 0.0
H661 H 0.75113 0.28342 0.70028 0.0
H662 H 0.70505 0.31751 0.71718 0.0
H663 H 0.64248 0.327 0.72639 0.0
H664 H 0.5697 0.25416 0.73724 0.0
H665 H 0.61804 0.21888 0.72925 0.0
C666 C 0.68502 0.23308 0.71294 0.0
C667 C 0.71829 0.24412 0.70349 0.0
C668 C 0.65816 0.25269 0.72237 0.0
C669 C 0.72549 0.27452 0.70675 0.0
C670 C 0.69917 0.29402 0.71639 0.0
C671 C 0.63741 0.30336 0.72766 0.0
C672 C 0.60275 0.29303 0.73182 0.0
C673 C 0.6651 0.28347 0.72286 0.0
C674 C 0.59632 0.26248 0.73398 0.0
C675 C 0.62388 0.24238 0.72918 0.0
H676 H 0.80739 0.27003 0.22314 0.0
H677 H 0.75454 0.20389 0.16369 0.0
H678 H 0.7992 0.16763 0.17901 0.0
H679 H 0.85723 0.1569 0.20243 0.0
H680 H 0.91155 0.22233 0.26136 0.0
H681 H 0.86173 0.25637 0.25421 0.0
C682 C 0.80522 0.24749 0.2142 0.0
C683 C 0.77814 0.23987 0.19163 0.0
C684 C 0.83128 0.22668 0.22296 0.0
C685 C 0.77564 0.21054 0.18035 0.0
C686 C 0.80107 0.18974 0.18921 0.0
C687 C 0.85782 0.17839 0.21433 0.0
C688 C 0.88816 0.18737 0.23186 0.0
C689 C 0.82966 0.1979 0.20942 0.0
C690 C 0.88845 0.215 0.24766 0.0
C691 C 0.86014 0.23455 0.24326 0.0
H692 H 0.81416 0.72395 0.73854 0.0
H693 H 0.75565 0.79681 0.69635 0.0
H694 H 0.80168 0.83131 0.71382 0.0
H695 H 0.86258 0.8393 0.73184 0.0
H696 H 0.92266 0.76723 0.77309 0.0
H697 H 0.87159 0.73402 0.76649 0.0
C698 C 0.81109 0.74747 0.73401 0.0
C699 C 0.78198 0.75773 0.71538 0.0
C700 C 0.838 0.76727 0.74387 0.0
C701 C 0.77826 0.78829 0.70983 0.0
C702 C 0.8045 0.80805 0.71992 0.0
C703 C 0.86405 0.81652 0.74037 0.0
C704 C 0.89626 0.80549 0.75244 0.0
C705 C 0.83512 0.79759 0.73557 0.0
C706 C 0.89801 0.77613 0.76374 0.0
C707 C 0.86897 0.75709 0.75954 0.0
H708 H 0.69672 0.77513 0.23789 0.0
H709 H 0.75741 0.69699 0.21658 0.0
H710 H 0.70965 0.66568 0.23685 0.0
H711 H 0.6469 0.66062 0.24961 0.0
H712 H 0.58497 0.73797 0.26978 0.0
H713 H 0.63722 0.76955 0.2623 0.0
C714 C 0.69991 0.7513 0.23868 0.0
C715 C 0.73019 0.73837 0.22487 0.0
C716 C 0.67203 0.73331 0.25006 0.0
C717 C 0.73397 0.70744 0.22619 0.0
C718 C 0.70671 0.68951 0.23787 0.0
C719 C 0.64531 0.6843 0.25377 0.0
C720 C 0.61238 0.6971 0.26005 0.0
C721 C 0.67503 0.70218 0.24828 0.0
C722 C 0.61026 0.72772 0.26523 0.0
C723 C 0.64001 0.74576 0.26041 0.0
H724 H 0.31167 0.7824 0.28406 0.0
H725 H 0.25116 0.70235 0.29888 0.0
H726 H 0.30012 0.6729 0.27836 0.0
H727 H 0.3635 0.66959 0.26769 0.0
H728 H 0.42549 0.74899 0.25688 0.0
H729 H 0.37232 0.77921 0.26275 0.0
C730 C 0.30879 0.7586 0.28179 0.0
C731 C 0.27813 0.7445 0.29367 0.0
C732 C 0.33739 0.74174 0.27061 0.0
C733 C 0.27483 0.71363 0.29066 0.0
C734 C 0.30275 0.69679 0.27881 0.0
C735 C 0.36492 0.69349 0.265 0.0
C736 C 0.398 0.70721 0.26172 0.0
C737 C 0.33469 0.71052 0.27029 0.0
C738 C 0.40005 0.73809 0.25888 0.0
C739 C 0.36976 0.75531 0.26287 0.0
H740 H 0.22669 0.75312 0.78935 0.0
H741 H 0.16092 0.67703 0.80912 0.0
H742 H 0.1092 0.70365 0.78863 0.0
H743 H 0.08142 0.75142 0.77532 0.0
H744 H 0.14649 0.82808 0.75779 0.0
H745 H 0.19977 0.79839 0.76606 0.0
C746 C 0.20111 0.74225 0.78855 0.0
C747 C 0.19753 0.71332 0.8012 0.0
C748 C 0.17136 0.75783 0.77701 0.0
C749 C 0.16438 0.69928 0.79956 0.0
C750 C 0.13474 0.71455 0.78798 0.0
C751 C 0.10734 0.76117 0.77167 0.0
C752 C 0.11024 0.79169 0.76556 0.0
C753 C 0.13769 0.74419 0.77789 0.0
C754 C 0.1438 0.80445 0.76182 0.0
C755 C 0.1742 0.78758 0.76715 0.0
loop_
_geom_bond_atom_site_label_1
_geom_bond_atom_site_label_2
_geom_bond_distance
_geom_bond_site_symmetry_2
_ccdc_geom_bond_type
C0 C1 1.384 . S
C0 H13 0.947 . S
C0 C35 1.382 . S
C1 C0 1.384 . S
C1 C2 1.378 . S
C2 C1 1.378 . S
C2 C3 1.378 . S
C2 H14 0.952 . S
C3 C2 1.378 . S
C3 H15 0.950 . S
C3 C34 1.383 . S
H4 C23 0.947 . S
H5 C24 0.946 . S
H6 C26 0.953 . S
H7 C27 0.945 . S
H8 C29 0.952 . S
H9 C30 0.949 . S
H10 C32 0.950 . S
H11 C33 0.948 . S
H12 C35 0.951 . S
H13 C0 0.947 . S
H14 C2 0.952 . S
H15 C3 0.950 . S
N16 C19 1.382 . S
N16 C21 1.363 . S
N17 C19 1.371 . S
N17 C20 1.372 . S
N18 C20 1.361 . S
N18 C21 1.377 . S
C19 N16 1.382 . S
C19 N17 1.371 . S
C19 C22 1.480 . S
C20 N17 1.372 . S
C20 N18 1.361 . S
C20 C28 1.457 . S
C21 N16 1.363 . S
C21 N18 1.377 . S
C21 C34 1.479 . S
C22 C19 1.480 . S
C22 C23 1.383 . S
C22 C27 1.385 . S
C23 H4 0.947 . S
C23 C22 1.383 . S
C23 C24 1.388 . S
C24 H5 0.946 . S
C24 C23 1.388 . S
C24 C25 1.384 . S
C25 C24 1.384 . S
C25 C26 1.377 . S
C26 H6 0.953 . S
C26 C25 1.377 . S
C26 C27 1.369 . S
C27 H7 0.945 . S
C27 C22 1.385 . S
C27 C26 1.369 . S
C28 C20 1.457 . S
C28 C29 1.372 . S
C28 C33 1.364 . S
C29 H8 0.952 . S
C29 C28 1.372 . S
C29 C30 1.389 . S
C30 H9 0.949 . S
C30 C29 1.389 . S
C30 C31 1.387 . S
C31 C30 1.387 . S
C31 C32 1.372 . S
C32 H10 0.950 . S
C32 C31 1.372 . S
C32 C33 1.379 . S
C33 H11 0.948 . S
C33 C28 1.364 . S
C33 C32 1.379 . S
C34 C3 1.383 . S
C34 C21 1.479 . S
C34 C35 1.398 . S
C35 C0 1.382 . S
C35 H12 0.951 . S
C35 C34 1.398 . S
C36 C37 1.384 1_556 S
C36 H49 0.947 1_556 S
C36 C71 1.382 . S
C37 C36 1.384 1_554 S
C37 C38 1.378 . S
C38 C37 1.378 . S
C38 C39 1.378 1_554 S
C38 H50 0.952 . S
C39 C38 1.378 1_556 S
C39 H51 0.950 . S
C39 C70 1.383 . S
H40 C59 0.947 . S
H41 C60 0.946 . S
H42 C62 0.953 . S
H43 C63 0.945 . S
H44 C65 0.952 . S
H45 C66 0.949 . S
H46 C68 0.950 . S
H47 C69 0.948 . S
H48 C71 0.951 . S
H49 C36 0.947 1_554 S
H50 C38 0.952 . S
H51 C39 0.950 . S
N52 C55 1.382 . S
N52 C57 1.363 . S
N53 C55 1.371 . S
N53 C56 1.372 . S
N54 C56 1.361 . S
N54 C57 1.377 . S
C55 N52 1.382 . S
C55 N53 1.371 . S
C55 C58 1.480 . S
C56 N53 1.372 . S
C56 N54 1.361 . S
C56 C64 1.457 . S
C57 N52 1.363 . S
C57 N54 1.377 . S
C57 C70 1.479 . S
C58 C55 1.480 . S
C58 C59 1.383 . S
C58 C63 1.385 . S
C59 H40 0.947 . S
C59 C58 1.383 . S
C59 C60 1.388 . S
C60 H41 0.946 . S
C60 C59 1.388 . S
C60 C61 1.384 . S
C61 C60 1.384 . S
C61 C62 1.377 . S
C62 H42 0.953 . S
C62 C61 1.377 . S
C62 C63 1.369 . S
C63 H43 0.945 . S
C63 C58 1.385 . S
C63 C62 1.369 . S
C64 C56 1.457 . S
C64 C65 1.372 . S
C64 C69 1.364 . S
C65 H44 0.952 . S
C65 C64 1.372 . S
C65 C66 1.389 . S
C66 H45 0.949 . S
C66 C65 1.389 . S
C66 C67 1.387 . S
C67 C66 1.387 . S
C67 C68 1.372 . S
C68 H46 0.950 . S
C68 C67 1.372 . S
C68 C69 1.379 . S
C69 H47 0.948 . S
C69 C64 1.364 . S
C69 C68 1.379 . S
C70 C39 1.383 . S
C70 C57 1.479 . S
C70 C71 1.398 . S
C71 C36 1.382 . S
C71 H48 0.951 . S
C71 C70 1.398 . S
C72 C73 1.384 . S
C72 H85 0.947 . S
C72 C107 1.382 . S
C73 C72 1.384 . S
C73 C74 1.378 . S
C74 C73 1.378 . S
C74 C75 1.378 . S
C74 H86 0.952 . S
C75 C74 1.378 . S
C75 H87 0.950 . S
C75 C106 1.383 . S
H76 C95 0.947 . S
H77 C96 0.946 . S
H78 C98 0.953 . S
H79 C99 0.945 . S
H80 C101 0.952 . S
H81 C102 0.949 . S
H82 C104 0.950 . S
H83 C105 0.948 . S
H84 C107 0.951 . S
H85 C72 0.947 . S
H86 C74 0.952 . S
H87 C75 0.950 . S
N88 C91 1.382 . S
N88 C93 1.363 . S
N89 C91 1.371 . S
N89 C92 1.372 . S
N90 C92 1.361 . S
N90 C93 1.377 . S
C91 N88 1.382 . S
C91 N89 1.371 . S
C91 C94 1.480 . S
C92 N89 1.372 . S
C92 N90 1.361 . S
C92 C100 1.457 . S
C93 N88 1.363 . S
C93 N90 1.377 . S
C93 C106 1.479 . S
C94 C91 1.480 . S
C94 C95 1.383 . S
C94 C99 1.385 . S
C95 H76 0.947 . S
C95 C94 1.383 . S
C95 C96 1.388 . S
C96 H77 0.946 . S
C96 C95 1.388 . S
C96 C97 1.384 . S
C97 C96 1.384 . S
C97 C98 1.377 . S
C98 H78 0.953 . S
C98 C97 1.377 . S
C98 C99 1.369 . S
C99 H79 0.945 . S
C99 C94 1.385 . S
C99 C98 1.369 . S
C100 C92 1.457 . S
C100 C101 1.372 . S
C100 C105 1.364 . S
C101 H80 0.952 . S
C101 C100 1.372 . S
C101 C102 1.389 . S
C102 H81 0.949 . S
C102 C101 1.389 . S
C102 C103 1.387 . S
C103 C102 1.387 . S
C103 C104 1.372 . S
C104 H82 0.950 . S
C104 C103 1.372 . S
C104 C105 1.379 . S
C105 H83 0.948 . S
C105 C100 1.364 . S
C105 C104 1.379 . S
C106 C75 1.383 . S
C106 C93 1.479 . S
C106 C107 1.398 . S
C107 C72 1.382 . S
C107 H84 0.951 . S
C107 C106 1.398 . S
C108 C109 1.384 1_554 S
C108 H121 0.947 1_554 S
C108 C143 1.382 . S
C109 C108 1.384 1_556 S
C109 C110 1.364 1_556 S
C110 C109 1.364 1_554 S
C110 C111 1.410 . S
C110 H122 0.934 1_554 S
C111 C110 1.410 . S
C111 H123 0.950 . S
C111 C142 1.383 . S
H112 C131 0.947 . S
H113 C132 0.946 . S
H114 C134 0.953 . S
H115 C135 0.945 . S
H116 C137 0.952 . S
H117 C138 0.949 . S
H118 C140 0.950 . S
H119 C141 0.948 . S
H120 C143 0.951 . S
H121 C108 0.947 1_556 S
H122 C110 0.934 1_556 S
H123 C111 0.950 . S
N124 C127 1.382 . S
N124 C129 1.363 . S
N125 C127 1.371 . S
N125 C128 1.372 . S
N126 C128 1.361 . S
N126 C129 1.377 . S
C127 N124 1.382 . S
C127 N125 1.371 . S
C127 C130 1.480 . S
C128 N125 1.372 . S
C128 N126 1.361 . S
C128 C136 1.457 . S
C129 N124 1.363 . S
C129 N126 1.377 . S
C129 C142 1.479 . S
C130 C127 1.480 . S
C130 C131 1.383 . S
C130 C135 1.385 . S
C131 H112 0.947 . S
C131 C130 1.383 . S
C131 C132 1.388 . S
C132 H113 0.946 . S
C132 C131 1.388 . S
C132 C133 1.384 . S
C133 C132 1.384 . S
C133 C134 1.377 . S
C134 H114 0.953 . S
C134 C133 1.377 . S
C134 C135 1.369 . S
C135 H115 0.945 . S
C135 C130 1.385 . S
C135 C134 1.369 . S
C136 C128 1.457 . S
C136 C137 1.372 . S
C136 C141 1.364 . S
C137 H116 0.952 . S
C137 C136 1.372 . S
C137 C138 1.389 . S
C138 H117 0.949 . S
C138 C137 1.389 . S
C138 C139 1.387 . S
C139 C138 1.387 . S
C139 C140 1.372 . S
C140 H118 0.950 . S
C140 C139 1.372 . S
C140 C141 1.379 . S
C141 H119 0.948 . S
C141 C136 1.364 . S
C141 C140 1.379 . S
C142 C111 1.383 . S
C142 C129 1.479 . S
C142 C143 1.398 . S
C143 C108 1.382 . S
C143 H120 0.951 . S
C143 C142 1.398 . S
C144 C145 1.384 . S
C144 H157 0.947 . S
C144 C179 1.382 . S
C145 C144 1.384 . S
C145 C146 1.378 . S
C146 C145 1.378 . S
C146 C147 1.378 . S
C146 H158 0.952 . S
C147 C146 1.378 . S
C147 H159 0.950 . S
C147 C178 1.383 . S
H148 C167 0.947 . S
H149 C168 0.946 . S
H150 C170 0.953 . S
H151 C171 0.945 . S
H152 C173 0.952 . S
H153 C174 0.949 . S
H154 C176 0.950 . S
H155 C177 0.948 . S
H156 C179 0.951 . S
H157 C144 0.947 . S
H158 C146 0.952 . S
H159 C147 0.950 . S
N160 C163 1.382 . S
N160 C165 1.363 . S
N161 C163 1.371 . S
N161 C164 1.372 . S
N162 C164 1.361 . S
N162 C165 1.377 . S
C163 N160 1.382 . S
C163 N161 1.371 . S
C163 C166 1.480 . S
C164 N161 1.372 . S
C164 N162 1.361 . S
C164 C172 1.457 . S
C165 N160 1.363 . S
C165 N162 1.377 . S
C165 C178 1.479 . S
C166 C163 1.480 . S
C166 C167 1.383 . S
C166 C171 1.385 . S
C167 H148 0.947 . S
C167 C166 1.383 . S
C167 C168 1.388 . S
C168 H149 0.946 . S
C168 C167 1.388 . S
C168 C169 1.384 . S
C169 C168 1.384 . S
C169 C170 1.377 . S
C170 H150 0.953 . S
C170 C169 1.377 . S
C170 C171 1.369 . S
C171 H151 0.945 . S
C171 C166 1.385 . S
C171 C170 1.369 . S
C172 C164 1.457 . S
C172 C173 1.372 . S
C172 C177 1.364 . S
C173 H152 0.952 . S
C173 C172 1.372 . S
C173 C174 1.389 . S
C174 H153 0.949 . S
C174 C173 1.389 . S
C174 C175 1.387 . S
C175 C174 1.387 . S
C175 C176 1.372 . S
C176 H154 0.950 . S
C176 C175 1.372 . S
C176 C177 1.379 . S
C177 H155 0.948 . S
C177 C172 1.364 . S
C177 C176 1.379 . S
C178 C147 1.383 . S
C178 C165 1.479 . S
C178 C179 1.398 . S
C179 C144 1.382 . S
C179 H156 0.951 . S
C179 C178 1.398 . S
C180 C181 1.384 1_554 S
C180 H193 0.947 1_554 S
C180 C215 1.382 . S
C181 C180 1.384 1_556 S
C181 C182 1.378 . S
C182 C181 1.378 . S
C182 C183 1.378 1_556 S
C182 H194 0.952 . S
C183 C182 1.378 1_554 S
C183 H195 0.950 . S
C183 C214 1.383 . S
H184 C203 0.947 . S
H185 C204 0.946 . S
H186 C206 0.953 . S
H187 C207 0.945 . S
H188 C209 0.952 . S
H189 C210 0.949 . S
H190 C212 0.950 . S
H191 C213 0.948 . S
H192 C215 0.951 . S
H193 C180 0.947 1_556 S
H194 C182 0.952 . S
H195 C183 0.950 . S
N196 C199 1.382 . S
N196 C201 1.363 . S
N197 C199 1.371 . S
N197 C200 1.372 . S
N198 C200 1.361 . S
N198 C201 1.377 . S
C199 N196 1.382 . S
C199 N197 1.371 . S
C199 C202 1.480 . S
C200 N197 1.372 . S
C200 N198 1.361 . S
C200 C208 1.457 . S
C201 N196 1.363 . S
C201 N198 1.377 . S
C201 C214 1.479 . S
C202 C199 1.480 . S
C202 C203 1.383 . S
C202 C207 1.385 . S
C203 H184 0.947 . S
C203 C202 1.383 . S
C203 C204 1.388 . S
C204 H185 0.946 . S
C204 C203 1.388 . S
C204 C205 1.384 . S
C205 C204 1.384 . S
C205 C206 1.377 . S
C206 H186 0.953 . S
C206 C205 1.377 . S
C206 C207 1.369 . S
C207 H187 0.945 . S
C207 C202 1.385 . S
C207 C206 1.369 . S
C208 C200 1.457 . S
C208 C209 1.372 . S
C208 C213 1.364 . S
C209 H188 0.952 . S
C209 C208 1.372 . S
C209 C210 1.389 . S
C210 H189 0.949 . S
C210 C209 1.389 . S
C210 C211 1.387 . S
C211 C210 1.387 . S
C211 C212 1.372 . S
C212 H190 0.950 . S
C212 C211 1.372 . S
C212 C213 1.379 . S
C213 H191 0.948 . S
C213 C208 1.364 . S
C213 C212 1.379 . S
C214 C183 1.383 . S
C214 C201 1.479 . S
C214 C215 1.398 . S
C215 C180 1.382 . S
C215 H192 0.951 . S
C215 C214 1.398 . S
C216 C217 1.384 . S
C216 H229 0.947 . S
C216 C251 1.382 . S
C217 C216 1.384 . S
C217 C218 1.378 . S
C218 C217 1.378 . S
C218 C219 1.378 . S
C218 H230 0.952 . S
C219 C218 1.378 . S
C219 H231 0.950 . S
C219 C250 1.383 . S
H220 C239 0.947 . S
H221 C240 0.946 . S
H222 C242 0.953 . S
H223 C243 0.945 . S
H224 C245 0.952 . S
H225 C246 0.949 . S
H226 C248 0.950 . S
H227 C249 0.948 . S
H228 C251 0.951 . S
H229 C216 0.947 . S
H230 C218 0.952 . S
H231 C219 0.950 . S
N232 C235 1.382 . S
N232 C237 1.363 . S
N233 C235 1.371 . S
N233 C236 1.372 . S
N234 C236 1.361 . S
N234 C237 1.377 . S
C235 N232 1.382 . S
C235 N233 1.371 . S
C235 C238 1.480 . S
C236 N233 1.372 . S
C236 N234 1.361 . S
C236 C244 1.457 . S
C237 N232 1.363 . S
C237 N234 1.377 . S
C237 C250 1.479 . S
C238 C235 1.480 . S
C238 C239 1.383 . S
C238 C243 1.385 . S
C239 H220 0.947 . S
C239 C238 1.383 . S
C239 C240 1.388 . S
C240 H221 0.946 . S
C240 C239 1.388 . S
C240 C241 1.384 . S
C241 C240 1.384 . S
C241 C242 1.377 . S
C242 H222 0.953 . S
C242 C241 1.377 . S
C242 C243 1.369 . S
C243 H223 0.945 . S
C243 C238 1.385 . S
C243 C242 1.369 . S
C244 C236 1.457 . S
C244 C245 1.372 . S
C244 C249 1.364 . S
C245 H224 0.952 . S
C245 C244 1.372 . S
C245 C246 1.389 . S
C246 H225 0.949 . S
C246 C245 1.389 . S
C246 C247 1.387 . S
C247 C246 1.387 . S
C247 C248 1.372 . S
C248 H226 0.950 . S
C248 C247 1.372 . S
C248 C249 1.379 . S
C249 H227 0.948 . S
C249 C244 1.364 . S
C249 C248 1.379 . S
C250 C219 1.383 . S
C250 C237 1.479 . S
C250 C251 1.398 . S
C251 C216 1.382 . S
C251 H228 0.951 . S
C251 C250 1.398 . S
C252 C253 1.384 1_556 S
C252 H265 0.947 1_556 S
C252 C287 1.382 . S
C253 C252 1.384 1_554 S
C253 C254 1.378 . S
C254 C253 1.378 . S
C254 C255 1.378 1_554 S
C254 H266 0.952 . S
C255 C254 1.378 1_556 S
C255 H267 0.950 . S
C255 C286 1.383 . S
H256 C275 0.947 . S
H257 C276 0.946 . S
H258 C278 0.953 . S
H259 C279 0.945 . S
H260 C281 0.952 . S
H261 C282 0.949 . S
H262 C284 0.950 . S
H263 C285 0.948 . S
H264 C287 0.951 . S
H265 C252 0.947 1_554 S
H266 C254 0.952 . S
H267 C255 0.950 . S
N268 C271 1.382 . S
N268 C273 1.363 . S
N269 C271 1.371 . S
N269 C272 1.372 . S
N270 C272 1.361 . S
N270 C273 1.377 . S
C271 N268 1.382 . S
C271 N269 1.371 . S
C271 C274 1.480 . S
C272 N269 1.372 . S
C272 N270 1.361 . S
C272 C280 1.457 . S
C273 N268 1.363 . S
C273 N270 1.377 . S
C273 C286 1.479 . S
C274 C271 1.480 . S
C274 C275 1.383 . S
C274 C279 1.385 . S
C275 H256 0.947 . S
C275 C274 1.383 . S
C275 C276 1.388 . S
C276 H257 0.946 . S
C276 C275 1.388 . S
C276 C277 1.384 . S
C277 C276 1.384 . S
C277 C278 1.377 . S
C278 H258 0.953 . S
C278 C277 1.377 . S
C278 C279 1.369 . S
C279 H259 0.945 . S
C279 C274 1.385 . S
C279 C278 1.369 . S
C280 C272 1.457 . S
C280 C281 1.372 . S
C280 C285 1.364 . S
C281 H260 0.952 . S
C281 C280 1.372 . S
C281 C282 1.389 . S
C282 H261 0.949 . S
C282 C281 1.389 . S
C282 C283 1.387 . S
C283 C282 1.387 . S
C283 C284 1.372 . S
C284 H262 0.950 . S
C284 C283 1.372 . S
C284 C285 1.379 . S
C285 H263 0.948 . S
C285 C280 1.364 . S
C285 C284 1.379 . S
C286 C255 1.383 . S
C286 C273 1.479 . S
C286 C287 1.398 . S
C287 C252 1.382 . S
C287 H264 0.951 . S
C287 C286 1.398 . S
Zn288 O294 1.920 1_455 S
Zn288 O300 1.898 . S
Zn288 O303 1.905 . S
Zn289 O297 1.905 1_655 S
Zn289 O298 1.898 . S
Zn289 O306 1.920 . S
Zn290 O293 2.080 1_455 S
Zn290 O296 2.114 . S
Zn290 O299 2.120 1_455 S
Zn290 O301 2.120 . S
Zn290 O302 2.114 . S
Zn290 O305 2.080 1_455 S
C291 O296 1.166 . S
C291 O297 1.182 . S
C292 O298 1.167 . S
C292 O299 1.299 . S
O293 Zn290 2.080 1_655 S
O293 C307 1.305 . S
O294 Zn288 1.920 1_655 S
O294 C307 1.234 . S
C295 O300 1.167 . S
C295 O301 1.299 . S
O296 Zn290 2.114 . S
O296 C291 1.166 . S
O297 Zn289 1.905 1_455 S
O297 C291 1.182 . S
O298 Zn289 1.898 . S
O298 C292 1.167 . S
O299 Zn290 2.120 1_655 S
O299 C292 1.299 . S
O300 Zn288 1.898 . S
O300 C295 1.167 . S
O301 Zn290 2.120 . S
O301 C295 1.299 . S
O302 Zn290 2.114 . S
O302 C304 1.166 . S
O303 Zn288 1.905 . S
O303 C304 1.182 . S
C304 O302 1.166 . S
C304 O303 1.182 . S
O305 Zn290 2.080 1_655 S
O305 C308 1.305 . S
O306 Zn289 1.920 . S
O306 C308 1.234 . S
C307 O293 1.305 . S
C307 O294 1.234 . S
C308 O305 1.305 . S
C308 O306 1.234 . S
Zn309 O315 1.920 . S
Zn309 O321 1.898 . S
Zn309 O324 1.905 . S
Zn310 O318 1.905 . S
Zn310 O319 1.898 . S
Zn310 O327 1.920 . S
Zn311 O314 2.080 . S
Zn311 O317 2.114 . S
Zn311 O320 2.120 . S
Zn311 O322 2.120 . S
Zn311 O323 2.114 . S
Zn311 O326 2.080 . S
C312 O317 1.166 . S
C312 O318 1.182 . S
C313 O319 1.167 . S
C313 O320 1.299 . S
O314 Zn311 2.080 . S
O314 C328 1.305 . S
O315 Zn309 1.920 . S
O315 C328 1.234 . S
C316 O321 1.167 . S
C316 O322 1.299 . S
O317 Zn311 2.114 . S
O317 C312 1.166 . S
O318 Zn310 1.905 . S
O318 C312 1.182 . S
O319 Zn310 1.898 . S
O319 C313 1.167 . S
O320 Zn311 2.120 . S
O320 C313 1.299 . S
O321 Zn309 1.898 . S
O321 C316 1.167 . S
O322 Zn311 2.120 . S
O322 C316 1.299 . S
O323 Zn311 2.114 . S
O323 C325 1.166 . S
O324 Zn309 1.905 . S
O324 C325 1.182 . S
C325 O323 1.166 . S
C325 O324 1.182 . S
O326 Zn311 2.080 . S
O326 C329 1.305 . S
O327 Zn310 1.920 . S
O327 C329 1.234 . S
C328 O314 1.305 . S
C328 O315 1.234 . S
C329 O326 1.305 . S
C329 O327 1.234 . S
Zn330 O336 1.920 . S
Zn330 O342 1.898 . S
Zn330 O345 1.905 1_455 S
Zn331 O339 1.905 . S
Zn331 O340 1.898 . S
Zn331 O348 1.920 1_655 S
Zn332 O335 2.080 . S
Zn332 O338 2.114 1_455 S
Zn332 O341 2.120 1_455 S
Zn332 O343 2.120 . S
Zn332 O344 2.114 1_455 S
Zn332 O347 2.080 . S
C333 O338 1.166 . S
C333 O339 1.182 . S
C334 O340 1.167 . S
C334 O341 1.299 . S
O335 Zn332 2.080 . S
O335 C349 1.305 . S
O336 Zn330 1.920 . S
O336 C349 1.234 . S
C337 O342 1.167 . S
C337 O343 1.299 . S
O338 Zn332 2.114 1_655 S
O338 C333 1.166 . S
O339 Zn331 1.905 . S
O339 C333 1.182 . S
O340 Zn331 1.898 . S
O340 C334 1.167 . S
O341 Zn332 2.120 1_655 S
O341 C334 1.299 . S
O342 Zn330 1.898 . S
O342 C337 1.167 . S
O343 Zn332 2.120 . S
O343 C337 1.299 . S
O344 Zn332 2.114 1_655 S
O344 C346 1.166 . S
O345 Zn330 1.905 1_655 S
O345 C346 1.182 . S
C346 O344 1.166 . S
C346 O345 1.182 . S
O347 Zn332 2.080 . S
O347 C350 1.305 . S
O348 Zn331 1.920 1_455 S
O348 C350 1.234 . S
C349 O335 1.305 . S
C349 O336 1.234 . S
C350 O347 1.305 . S
C350 O348 1.234 . S
Zn351 O357 1.920 . S
Zn351 O363 1.898 . S
Zn351 O366 1.905 . S
Zn352 O360 1.905 . S
Zn352 O361 1.898 . S
Zn352 O369 1.920 . S
Zn353 O356 2.080 . S
Zn353 O359 2.114 . S
Zn353 O362 2.120 . S
Zn353 O364 2.120 . S
Zn353 O365 2.114 . S
Zn353 O368 2.080 . S
C354 O359 1.166 . S
C354 O360 1.182 . S
C355 O361 1.167 . S
C355 O362 1.299 . S
O356 Zn353 2.080 . S
O356 C370 1.305 . S
O357 Zn351 1.920 . S
O357 C370 1.234 . S
C358 O363 1.167 . S
C358 O364 1.299 . S
O359 Zn353 2.114 . S
O359 C354 1.166 . S
O360 Zn352 1.905 . S
O360 C354 1.182 . S
O361 Zn352 1.898 . S
O361 C355 1.167 . S
O362 Zn353 2.120 . S
O362 C355 1.299 . S
O363 Zn351 1.898 . S
O363 C358 1.167 . S
O364 Zn353 2.120 . S
O364 C358 1.299 . S
O365 Zn353 2.114 . S
O365 C367 1.166 . S
O366 Zn351 1.905 . S
O366 C367 1.182 . S
C367 O365 1.166 . S
C367 O366 1.182 . S
O368 Zn353 2.080 . S
O368 C371 1.305 . S
O369 Zn352 1.920 . S
O369 C371 1.234 . S
C370 O356 1.305 . S
C370 O357 1.234 . S
C371 O368 1.305 . S
C371 O369 1.234 . S
H372 C378 0.930 . S
H373 C381 0.930 . S
H374 C382 0.930 . S
H375 C383 0.930 . S
H376 C386 0.930 . S
H377 C387 0.930 . S
C378 H372 0.930 . S
C378 C379 1.355 . S
C378 C380 1.415 1_565 S
C379 C378 1.355 . S
C379 C381 1.419 . S
C380 C378 1.415 1_545 S
C380 C385 1.425 . S
C380 C387 1.409 . S
C381 H373 0.930 . S
C381 C379 1.419 . S
C381 C382 1.362 1_565 S
C382 H374 0.930 . S
C382 C381 1.362 1_545 S
C382 C385 1.409 . S
C383 H375 0.930 . S
C383 C384 1.355 . S
C383 C385 1.415 . S
C384 C383 1.355 . S
C384 C386 1.419 . S
C385 C380 1.425 . S
C385 C382 1.409 . S
C385 C383 1.415 . S
C386 H376 0.930 . S
C386 C384 1.419 . S
C386 C387 1.362 . S
C387 H377 0.930 . S
C387 C380 1.409 . S
C387 C386 1.362 . S
H388 C394 0.930 . S
H389 C397 0.930 . S
H390 C398 0.930 . S
H391 C399 0.930 . S
H392 C402 0.930 . S
H393 C403 0.930 . S
C394 H388 0.930 . S
C394 C395 1.355 . S
C394 C396 1.415 . S
C395 C394 1.355 . S
C395 C397 1.419 . S
C396 C394 1.415 . S
C396 C401 1.425 . S
C396 C403 1.409 . S
C397 H389 0.930 . S
C397 C395 1.419 . S
C397 C398 1.362 . S
C398 H390 0.930 . S
C398 C397 1.362 . S
C398 C401 1.409 . S
C399 H391 0.930 . S
C399 C400 1.355 . S
C399 C401 1.415 . S
C400 C399 1.355 . S
C400 C402 1.419 . S
C401 C396 1.425 . S
C401 C398 1.409 . S
C401 C399 1.415 . S
C402 H392 0.930 . S
C402 C400 1.419 . S
C402 C403 1.362 . S
C403 H393 0.930 . S
C403 C396 1.409 . S
C403 C402 1.362 . S
H404 C410 0.930 . S
H405 C413 0.930 . S
H406 C414 0.930 . S
H407 C415 0.930 . S
H408 C418 0.930 . S
H409 C419 0.930 . S
C410 H404 0.930 . S
C410 C411 1.355 . S
C410 C412 1.415 . S
C411 C410 1.355 . S
C411 C413 1.419 . S
C412 C410 1.415 . S
C412 C417 1.425 . S
C412 C419 1.409 . S
C413 H405 0.930 . S
C413 C411 1.419 . S
C413 C414 1.362 . S
C414 H406 0.930 . S
C414 C413 1.362 . S
C414 C417 1.409 . S
C415 H407 0.930 . S
C415 C416 1.355 . S
C415 C417 1.415 . S
C416 C415 1.355 . S
C416 C418 1.419 . S
C417 C412 1.425 . S
C417 C414 1.409 . S
C417 C415 1.415 . S
C418 H408 0.930 . S
C418 C416 1.419 . S
C418 C419 1.362 . S
C419 H409 0.930 . S
C419 C412 1.409 . S
C419 C418 1.362 . S
H420 C426 0.930 . S
H421 C429 0.930 . S
H422 C430 0.930 . S
H423 C431 0.930 . S
H424 C434 0.930 . S
H425 C435 0.930 . S
C426 H420 0.930 . S
C426 C427 1.355 . S
C426 C428 1.415 1_565 S
C427 C426 1.355 . S
C427 C429 1.419 . S
C428 C426 1.415 1_545 S
C428 C433 1.425 . S
C428 C435 1.409 . S
C429 H421 0.930 . S
C429 C427 1.419 . S
C429 C430 1.362 . S
C430 H422 0.930 . S
C430 C429 1.362 . S
C430 C433 1.409 1_565 S
C431 H423 0.930 . S
C431 C432 1.355 . S
C431 C433 1.415 . S
C432 C431 1.355 . S
C432 C434 1.419 . S
C433 C428 1.425 . S
C433 C430 1.409 1_545 S
C433 C431 1.415 . S
C434 H424 0.930 . S
C434 C432 1.419 . S
C434 C435 1.362 . S
C435 H425 0.930 . S
C435 C428 1.409 . S
C435 C434 1.362 . S
H436 C442 0.930 1_565 S
H437 C445 0.930 . S
H438 C446 0.930 . S
H439 C447 0.930 . S
H440 C450 0.930 . S
H441 C451 0.930 . S
C442 H436 0.930 1_545 S
C442 C443 1.355 . S
C442 C444 1.415 1_545 S
C443 C442 1.355 . S
C443 C445 1.419 . S
C444 C442 1.415 1_565 S
C444 C449 1.425 . S
C444 C451 1.409 . S
C445 H437 0.930 . S
C445 C443 1.419 . S
C445 C446 1.362 . S
C446 H438 0.930 . S
C446 C445 1.362 . S
C446 C449 1.409 1_545 S
C447 H439 0.930 . S
C447 C448 1.355 . S
C447 C449 1.415 . S
C448 C447 1.355 . S
C448 C450 1.419 . S
C449 C444 1.425 . S
C449 C446 1.409 1_565 S
C449 C447 1.415 . S
C450 H440 0.930 . S
C450 C448 1.419 . S
C450 C451 1.362 . S
C451 H441 0.930 . S
C451 C444 1.409 . S
C451 C450 1.362 . S
H452 C458 0.930 . S
H453 C461 0.930 . S
H454 C462 0.930 . S
H455 C463 0.930 . S
H456 C466 0.930 . S
H457 C467 0.930 . S
C458 H452 0.930 . S
C458 C459 1.355 . S
C458 C460 1.415 . S
C459 C458 1.355 . S
C459 C461 1.419 . S
C460 C458 1.415 . S
C460 C465 1.425 . S
C460 C467 1.409 . S
C461 H453 0.930 . S
C461 C459 1.419 . S
C461 C462 1.362 . S
C462 H454 0.930 . S
C462 C461 1.362 . S
C462 C465 1.409 . S
C463 H455 0.930 . S
C463 C464 1.355 . S
C463 C465 1.415 . S
C464 C463 1.355 . S
C464 C466 1.419 . S
C465 C460 1.425 . S
C465 C462 1.409 . S
C465 C463 1.415 . S
C466 H456 0.930 . S
C466 C464 1.419 . S
C466 C467 1.362 . S
C467 H457 0.930 . S
C467 C460 1.409 . S
C467 C466 1.362 . S
H468 C474 0.930 . S
H469 C477 0.930 . S
H470 C478 0.930 . S
H471 C479 0.930 . S
H472 C482 0.930 . S
H473 C483 0.930 . S
C474 H468 0.930 . S
C474 C475 1.355 . S
C474 C476 1.415 . S
C475 C474 1.355 . S
C475 C477 1.419 . S
C476 C474 1.415 . S
C476 C481 1.425 . S
C476 C483 1.409 . S
C477 H469 0.930 . S
C477 C475 1.419 . S
C477 C478 1.362 . S
C478 H470 0.930 . S
C478 C477 1.362 . S
C478 C481 1.409 . S
C479 H471 0.930 . S
C479 C480 1.355 . S
C479 C481 1.415 . S
C480 C479 1.355 . S
C480 C482 1.419 . S
C481 C476 1.425 . S
C481 C478 1.409 . S
C481 C479 1.415 . S
C482 H472 0.930 . S
C482 C480 1.419 . S
C482 C483 1.362 . S
C483 H473 0.930 . S
C483 C476 1.409 . S
C483 C482 1.362 . S
H484 C490 0.930 . S
H485 C493 0.930 . S
H486 C494 0.930 . S
H487 C495 0.930 . S
H488 C498 0.930 . S
H489 C499 0.942 . S
C490 H484 0.930 . S
C490 C491 1.355 . S
C490 C492 1.415 1_545 S
C491 C490 1.355 . S
C491 C493 1.419 . S
C492 C490 1.415 1_565 S
C492 C497 1.425 . S
C492 C499 1.409 . S
C493 H485 0.930 . S
C493 C491 1.419 . S
C493 C494 1.362 1_545 S
C494 H486 0.930 . S
C494 C493 1.362 1_565 S
C494 C497 1.409 . S
C495 H487 0.930 . S
C495 C496 1.355 . S
C495 C497 1.415 . S
C496 C495 1.355 . S
C496 C498 1.419 . S
C497 C492 1.425 . S
C497 C494 1.409 . S
C497 C495 1.415 . S
C498 H488 0.930 . S
C498 C496 1.419 . S
C498 C499 1.362 . S
C499 H489 0.942 . S
C499 C492 1.409 . S
C499 C498 1.362 . S
H500 C506 0.930 . S
H501 C509 0.930 . S
H502 C510 0.930 . S
H503 C511 0.930 . S
H504 C514 0.930 . S
H505 C515 0.930 . S
C506 H500 0.930 . S
C506 C507 1.355 . S
C506 C508 1.415 . S
C507 C506 1.355 . S
C507 C509 1.419 . S
C508 C506 1.415 . S
C508 C513 1.425 . S
C508 C515 1.409 . S
C509 H501 0.930 . S
C509 C507 1.419 . S
C509 C510 1.362 . S
C510 H502 0.930 . S
C510 C509 1.362 . S
C510 C513 1.409 . S
C511 H503 0.930 . S
C511 C512 1.355 . S
C511 C513 1.415 . S
C512 C511 1.355 . S
C512 C514 1.419 . S
C513 C508 1.425 . S
C513 C510 1.409 . S
C513 C511 1.415 . S
C514 H504 0.930 . S
C514 C512 1.419 . S
C514 C515 1.362 . S
C515 H505 0.930 . S
C515 C508 1.409 . S
C515 C514 1.362 . S
H516 C522 0.930 . S
H517 C525 0.930 . S
H518 C526 0.930 . S
H519 C527 0.930 . S
H520 C530 0.930 . S
H521 C531 0.930 . S
C522 H516 0.930 . S
C522 C523 1.355 . S
C522 C524 1.415 . S
C523 C522 1.355 . S
C523 C525 1.419 . S
C524 C522 1.415 . S
C524 C529 1.425 . S
C524 C531 1.409 . S
C525 H517 0.930 . S
C525 C523 1.419 . S
C525 C526 1.362 . S
C526 H518 0.930 . S
C526 C525 1.362 . S
C526 C529 1.409 . S
C527 H519 0.930 . S
C527 C528 1.355 . S
C527 C529 1.415 . S
C528 C527 1.355 . S
C528 C530 1.419 . S
C529 C524 1.425 . S
C529 C526 1.409 . S
C529 C527 1.415 . S
C530 H520 0.930 . S
C530 C528 1.419 . S
C530 C531 1.362 . S
C531 H521 0.930 . S
C531 C524 1.409 . S
C531 C530 1.362 . S
H532 C538 0.930 . S
H533 C541 0.930 . S
H534 C542 0.930 . S
H535 C543 0.930 . S
H536 C546 0.930 . S
H537 C547 0.930 . S
C538 H532 0.930 . S
C538 C539 1.355 . S
C538 C540 1.415 . S
C539 C538 1.355 . S
C539 C541 1.419 . S
C540 C538 1.415 . S
C540 C545 1.425 . S
C540 C547 1.409 . S
C541 H533 0.930 . S
C541 C539 1.419 . S
C541 C542 1.362 . S
C542 H534 0.930 . S
C542 C541 1.362 . S
C542 C545 1.409 . S
C543 H535 0.930 . S
C543 C544 1.355 . S
C543 C545 1.415 . S
C544 C543 1.355 . S
C544 C546 1.419 . S
C545 C540 1.425 . S
C545 C542 1.409 . S
C545 C543 1.415 . S
C546 H536 0.930 . S
C546 C544 1.419 . S
C546 C547 1.362 . S
C547 H537 0.930 . S
C547 C540 1.409 . S
C547 C546 1.362 . S
H548 C554 0.930 . S
H549 C557 0.930 . S
H550 C558 0.930 . S
H551 C559 0.930 . S
H552 C562 0.930 . S
H553 C563 0.930 . S
C554 H548 0.930 . S
C554 C555 1.355 . S
C554 C556 1.415 . S
C555 C554 1.355 . S
C555 C557 1.419 . S
C556 C554 1.415 . S
C556 C561 1.425 . S
C556 C563 1.409 . S
C557 H549 0.930 . S
C557 C555 1.419 . S
C557 C558 1.362 . S
C558 H550 0.930 . S
C558 C557 1.362 . S
C558 C561 1.409 . S
C559 H551 0.930 . S
C559 C560 1.355 . S
C559 C561 1.415 . S
C560 C559 1.355 . S
C560 C562 1.419 . S
C561 C556 1.425 . S
C561 C558 1.409 . S
C561 C559 1.415 . S
C562 H552 0.930 . S
C562 C560 1.419 . S
C562 C563 1.362 . S
C563 H553 0.930 . S
C563 C556 1.409 . S
C563 C562 1.362 . S
H564 C570 0.930 . S
H565 C573 0.930 . S
H566 C574 0.930 . S
H567 C575 0.930 . S
H568 C578 0.930 . S
H569 C579 0.930 . S
C570 H564 0.930 . S
C570 C571 1.355 . S
C570 C572 1.415 . S
C571 C570 1.355 . S
C571 C573 1.419 . S
C572 C570 1.415 . S
C572 C577 1.425 . S
C572 C579 1.409 . S
C573 H565 0.930 . S
C573 C571 1.419 . S
C573 C574 1.362 . S
C574 H566 0.930 . S
C574 C573 1.362 . S
C574 C577 1.409 . S
C575 H567 0.930 . S
C575 C576 1.355 . S
C575 C577 1.415 . S
C576 C575 1.355 . S
C576 C578 1.419 . S
C577 C572 1.425 . S
C577 C574 1.409 . S
C577 C575 1.415 . S
C578 H568 0.930 . S
C578 C576 1.419 . S
C578 C579 1.362 . S
C579 H569 0.930 . S
C579 C572 1.409 . S
C579 C578 1.362 . S
H580 C586 0.930 . S
H581 C589 0.930 . S
H582 C590 0.930 . S
H583 C591 0.930 . S
H584 C594 0.930 . S
H585 C595 0.930 . S
C586 H580 0.930 . S
C586 C587 1.355 . S
C586 C588 1.415 . S
C587 C586 1.355 . S
C587 C589 1.419 . S
C588 C586 1.415 . S
C588 C593 1.425 . S
C588 C595 1.409 . S
C589 H581 0.930 . S
C589 C587 1.419 . S
C589 C590 1.362 . S
C590 H582 0.930 . S
C590 C589 1.362 . S
C590 C593 1.409 . S
C591 H583 0.930 . S
C591 C592 1.355 . S
C591 C593 1.415 . S
C592 C591 1.355 . S
C592 C594 1.419 . S
C593 C588 1.425 . S
C593 C590 1.409 . S
C593 C591 1.415 . S
C594 H584 0.930 . S
C594 C592 1.419 . S
C594 C595 1.362 . S
C595 H585 0.930 . S
C595 C588 1.409 . S
C595 C594 1.362 . S
H596 C602 0.930 . S
H597 C605 0.930 . S
H598 C606 0.930 . S
H599 C607 0.930 . S
H600 C610 0.930 . S
H601 C611 0.930 . S
C602 H596 0.930 . S
C602 C603 1.355 . S
C602 C604 1.415 . S
C603 C602 1.355 . S
C603 C605 1.419 . S
C604 C602 1.415 . S
C604 C609 1.425 . S
C604 C611 1.409 . S
C605 H597 0.930 . S
C605 C603 1.419 . S
C605 C606 1.362 . S
C606 H598 0.930 . S
C606 C605 1.362 . S
C606 C609 1.409 . S
C607 H599 0.930 . S
C607 C608 1.355 . S
C607 C609 1.415 . S
C608 C607 1.355 . S
C608 C610 1.419 . S
C609 C604 1.425 . S
C609 C606 1.409 . S
C609 C607 1.415 . S
C610 H600 0.930 . S
C610 C608 1.419 . S
C610 C611 1.362 . S
C611 H601 0.930 . S
C611 C604 1.409 . S
C611 C610 1.362 . S
H612 C618 0.930 . S
H613 C621 0.930 . S
H614 C622 0.930 . S
H615 C623 0.930 . S
H616 C626 0.930 . S
H617 C627 0.930 . S
C618 H612 0.930 . S
C618 C619 1.355 . S
C618 C620 1.415 . S
C619 C618 1.355 . S
C619 C621 1.419 . S
C620 C618 1.415 . S
C620 C625 1.425 . S
C620 C627 1.409 . S
C621 H613 0.930 . S
C621 C619 1.419 . S
C621 C622 1.362 . S
C622 H614 0.930 . S
C622 C621 1.362 . S
C622 C625 1.409 . S
C623 H615 0.930 . S
C623 C624 1.355 . S
C623 C625 1.415 . S
C624 C623 1.355 . S
C624 C626 1.419 . S
C625 C620 1.425 . S
C625 C622 1.409 . S
C625 C623 1.415 . S
C626 H616 0.930 . S
C626 C624 1.419 . S
C626 C627 1.362 . S
C627 H617 0.930 . S
C627 C620 1.409 . S
C627 C626 1.362 . S
H628 C634 0.930 . S
H629 C637 0.930 . S
H630 C638 0.930 . S
H631 C639 0.930 . S
H632 C642 0.930 . S
H633 C643 0.930 . S
C634 H628 0.930 . S
C634 C635 1.355 . S
C634 C636 1.415 . S
C635 C634 1.355 . S
C635 C637 1.419 . S
C636 C634 1.415 . S
C636 C641 1.425 . S
C636 C643 1.409 . S
C637 H629 0.930 . S
C637 C635 1.419 . S
C637 C638 1.362 . S
C638 H630 0.930 . S
C638 C637 1.362 . S
C638 C641 1.409 . S
C639 H631 0.930 . S
C639 C640 1.355 . S
C639 C641 1.415 . S
C640 C639 1.355 . S
C640 C642 1.419 . S
C641 C636 1.425 . S
C641 C638 1.409 . S
C641 C639 1.415 . S
C642 H632 0.930 . S
C642 C640 1.419 . S
C642 C643 1.362 . S
C643 H633 0.930 . S
C643 C636 1.409 . S
C643 C642 1.362 . S
H644 C650 0.930 . S
H645 C653 0.930 . S
H646 C654 0.930 . S
H647 C655 0.930 . S
H648 C658 0.930 . S
H649 C659 0.930 . S
C650 H644 0.930 . S
C650 C651 1.355 . S
C650 C652 1.415 . S
C651 C650 1.355 . S
C651 C653 1.419 . S
C652 C650 1.415 . S
C652 C657 1.425 . S
C652 C659 1.409 . S
C653 H645 0.930 . S
C653 C651 1.419 . S
C653 C654 1.362 . S
C654 H646 0.930 . S
C654 C653 1.362 . S
C654 C657 1.409 . S
C655 H647 0.930 . S
C655 C656 1.355 . S
C655 C657 1.415 . S
C656 C655 1.355 . S
C656 C658 1.419 . S
C657 C652 1.425 . S
C657 C654 1.409 . S
C657 C655 1.415 . S
C658 H648 0.930 . S
C658 C656 1.419 . S
C658 C659 1.362 . S
C659 H649 0.930 . S
C659 C652 1.409 . S
C659 C658 1.362 . S
H660 C666 0.930 . S
H661 C669 0.930 . S
H662 C670 0.930 . S
H663 C671 0.930 . S
H664 C674 0.930 . S
H665 C675 0.930 . S
C666 H660 0.930 . S
C666 C667 1.355 . S
C666 C668 1.415 . S
C667 C666 1.355 . S
C667 C669 1.419 . S
C668 C666 1.415 . S
C668 C673 1.425 . S
C668 C675 1.409 . S
C669 H661 0.930 . S
C669 C667 1.419 . S
C669 C670 1.362 . S
C670 H662 0.930 . S
C670 C669 1.362 . S
C670 C673 1.409 . S
C671 H663 0.930 . S
C671 C672 1.355 . S
C671 C673 1.415 . S
C672 C671 1.355 . S
C672 C674 1.419 . S
C673 C668 1.425 . S
C673 C670 1.409 . S
C673 C671 1.415 . S
C674 H664 0.930 . S
C674 C672 1.419 . S
C674 C675 1.362 . S
C675 H665 0.930 . S
C675 C668 1.409 . S
C675 C674 1.362 . S
H676 C682 0.930 . S
H677 C685 0.930 . S
H678 C686 0.930 . S
H679 C687 0.930 . S
H680 C690 0.930 . S
H681 C691 0.930 . S
C682 H676 0.930 . S
C682 C683 1.355 . S
C682 C684 1.415 . S
C683 C682 1.355 . S
C683 C685 1.419 . S
C684 C682 1.415 . S
C684 C689 1.425 . S
C684 C691 1.409 . S
C685 H677 0.930 . S
C685 C683 1.419 . S
C685 C686 1.362 . S
C686 H678 0.930 . S
C686 C685 1.362 . S
C686 C689 1.409 . S
C687 H679 0.930 . S
C687 C688 1.355 . S
C687 C689 1.415 . S
C688 C687 1.355 . S
C688 C690 1.419 . S
C689 C684 1.425 . S
C689 C686 1.409 . S
C689 C687 1.415 . S
C690 H680 0.930 . S
C690 C688 1.419 . S
C690 C691 1.362 . S
C691 H681 0.930 . S
C691 C684 1.409 . S
C691 C690 1.362 . S
H692 C698 0.930 . S
H693 C701 0.930 . S
H694 C702 0.930 . S
H695 C703 0.930 . S
H696 C706 0.930 . S
H697 C707 0.930 . S
C698 H692 0.930 . S
C698 C699 1.355 . S
C698 C700 1.415 . S
C699 C698 1.355 . S
C699 C701 1.419 . S
C700 C698 1.415 . S
C700 C705 1.425 . S
C700 C707 1.409 . S
C701 H693 0.930 . S
C701 C699 1.419 . S
C701 C702 1.362 . S
C702 H694 0.930 . S
C702 C701 1.362 . S
C702 C705 1.409 . S
C703 H695 0.930 . S
C703 C704 1.355 . S
C703 C705 1.415 . S
C704 C703 1.355 . S
C704 C706 1.419 . S
C705 C700 1.425 . S
C705 C702 1.409 . S
C705 C703 1.415 . S
C706 H696 0.930 . S
C706 C704 1.419 . S
C706 C707 1.362 . S
C707 H697 0.930 . S
C707 C700 1.409 . S
C707 C706 1.362 . S
H708 C714 0.930 . S
H709 C717 0.930 . S
H710 C718 0.930 . S
H711 C719 0.930 . S
H712 C722 0.930 . S
H713 C723 0.930 . S
C714 H708 0.930 . S
C714 C715 1.355 . S
C714 C716 1.415 . S
C715 C714 1.355 . S
C715 C717 1.419 . S
C716 C714 1.415 . S
C716 C721 1.425 . S
C716 C723 1.409 . S
C717 H709 0.930 . S
C717 C715 1.419 . S
C717 C718 1.362 . S
C718 H710 0.930 . S
C718 C717 1.362 . S
C718 C721 1.409 . S
C719 H711 0.930 . S
C719 C720 1.355 . S
C719 C721 1.415 . S
C720 C719 1.355 . S
C720 C722 1.419 . S
C721 C716 1.425 . S
C721 C718 1.409 . S
C721 C719 1.415 . S
C722 H712 0.930 . S
C722 C720 1.419 . S
C722 C723 1.362 . S
C723 H713 0.930 . S
C723 C716 1.409 . S
C723 C722 1.362 . S
H724 C730 0.930 . S
H725 C733 0.930 . S
H726 C734 0.930 . S
H727 C735 0.930 . S
H728 C738 0.930 . S
H729 C739 0.930 . S
C730 H724 0.930 . S
C730 C731 1.355 . S
C730 C732 1.415 . S
C731 C730 1.355 . S
C731 C733 1.419 . S
C732 C730 1.415 . S
C732 C737 1.425 . S
C732 C739 1.409 . S
C733 H725 0.930 . S
C733 C731 1.419 . S
C733 C734 1.362 . S
C734 H726 0.930 . S
C734 C733 1.362 . S
C734 C737 1.409 . S
C735 H727 0.930 . S
C735 C736 1.355 . S
C735 C737 1.415 . S
C736 C735 1.355 . S
C736 C738 1.419 . S
C737 C732 1.425 . S
C737 C734 1.409 . S
C737 C735 1.415 . S
C738 H728 0.930 . S
C738 C736 1.419 . S
C738 C739 1.362 . S
C739 H729 0.930 . S
C739 C732 1.409 . S
C739 C738 1.362 . S
H740 C746 0.930 . S
H741 C749 0.930 . S
H742 C750 0.930 . S
H743 C751 0.930 . S
H744 C754 0.930 . S
H745 C755 0.930 . S
C746 H740 0.930 . S
C746 C747 1.355 . S
C746 C748 1.415 . S
C747 C746 1.355 . S
C747 C749 1.419 . S
C748 C746 1.415 . S
C748 C753 1.425 . S
C748 C755 1.409 . S
C749 H741 0.930 . S
C749 C747 1.419 . S
C749 C750 1.362 . S
C750 H742 0.930 . S
C750 C749 1.362 . S
C750 C753 1.409 . S
C751 H743 0.930 . S
C751 C752 1.355 . S
C751 C753 1.415 . S
C752 C751 1.355 . S
C752 C754 1.419 . S
C753 C748 1.425 . S
C753 C750 1.409 . S
C753 C751 1.415 . S
C754 H744 0.930 . S
C754 C752 1.419 . S
C754 C755 1.362 . S
C755 H745 0.930 . S
C755 C748 1.409 . S
C755 C754 1.362 . S
C379 C247 1.458 . S
C384 C304 1.386 . S
C400 C312 1.402 . S
C395 C283 1.417 . S
C416 C316 1.426 . S
C411 C175 1.380 . S
C427 C211 1.434 . S
C432 C292 1.359 . S
C448 C333 1.373 . S
C443 C103 1.451 . S
C464 C367 1.420 . S
C459 C139 1.464 . S
C475 C31 1.444 . S
C480 C355 1.353 . S
C491 C67 1.417 . S
C496 C337 1.437 . S
C512 C291 1.348 . S
C507 C37 1.467 . S
C528 C325 1.250 . S
C523 C1 1.474 . S
C544 C329 1.270 . S
C539 C109 1.478 . S
C560 C307 1.349 . S
C555 C73 1.467 . S
C576 C346 1.364 . S
C571 C181 1.467 . S
C587 C145 1.445 . S
C592 C354 1.366 . S
C608 C370 1.347 . S
C603 C253 1.474 . S
C619 C217 1.458 . S
C624 C350 1.376 . S
C640 C295 1.264 . S
C635 C25 1.493 . S
C656 C313 1.371 . S
C651 C61 1.508 . S
C667 C97 1.486 . S
C672 C328 1.317 . S
C688 C308 1.355 . S
C683 C133 1.491 . S
C704 C334 1.273 . S
C699 C169 1.499 . S
C715 C205 1.506 . S
C720 C358 1.318 . S
C731 C241 1.484 . S
C736 C371 1.261 . S
C747 C277 1.457 . S
C752 C349 1.296 . S
