# Generated by pormake.
# Topology rtl, (3,6)-cn, num edge types: 1
# Building blocks:
#     Node 0, Type 0, BuildingBlock: ESEHIV_clean_linker_0, # of connection points: 3
#     Node 1, Type 0, BuildingBlock: ESEHIV_clean_linker_0, # of connection points: 3
#     Node 2, Type 0, BuildingBlock: ESEHIV_clean_linker_0, # of connection points: 3
#     Node 3, Type 0, BuildingBlock: ESEHIV_clean_linker_0, # of connection points: 3
#     Node 4, Type 1, BuildingBlock: LEVNOQ01_clean_sbu_1, # of connection points: 6
#     Node 5, Type 1, BuildingBlock: LEVNOQ01_clean_sbu_1, # of connection points: 6
#     Edge 6, Type (0, 1), BuildingBlock: MIFKUJ_clean_linker_0, # of connection points: 2
#     Edge 7, Type (0, 1), BuildingBlock: MIFKUJ_clean_linker_0, # of connection points: 2
#     Edge 8, Type (0, 1), BuildingBlock: MIFKUJ_clean_linker_0, # of connection points: 2
#     Edge 9, Type (0, 1), BuildingBlock: MIFKUJ_clean_linker_0, # of connection points: 2
#     Edge 10, Type (0, 1), BuildingBlock: MIFKUJ_clean_linker_0, # of connection points: 2
#     Edge 11, Type (0, 1), BuildingBlock: MIFKUJ_clean_linker_0, # of connection points: 2
#     Edge 12, Type (0, 1), BuildingBlock: MIFKUJ_clean_linker_0, # of connection points: 2
#     Edge 13, Type (0, 1), BuildingBlock: MIFKUJ_clean_linker_0, # of connection points: 2
#     Edge 14, Type (0, 1), BuildingBlock: MIFKUJ_clean_linker_0, # of connection points: 2
#     Edge 15, Type (0, 1), BuildingBlock: MIFKUJ_clean_linker_0, # of connection points: 2
#     Edge 16, Type (0, 1), BuildingBlock: MIFKUJ_clean_linker_0, # of connection points: 2
#     Edge 17, Type (0, 1), BuildingBlock: MIFKUJ_clean_linker_0, # of connection points: 2
# Relax obj value: 0.026
# Max RMSD: 0.060
# Mean RMSD: 0.045
data_MOF--net-rtl--node1-LEVNOQ01_clean_sbu_1--node2-ESEHIV_clean_linker_0--edge1-MIFKUJ_clean_linker_0
_symmetry_space_group_name_H-M    P1
_symmetry_Int_Tables_number       1
_symmetry_cell_setting            triclinic
loop_
_symmetry_equiv_pos_as_xyz
'x, y, z'
_cell_length_a     37.809327
_cell_length_b     42.774605
_cell_length_c     30.073646
_cell_angle_alpha  90.032556
_cell_angle_beta   97.840206
_cell_angle_gamma 90.065751
loop_
_atom_site_label
_atom_site_type_symbol
_atom_site_fract_x
_atom_site_fract_y
_atom_site_fract_z
_atom_type_partial_charge
H0 H 0.22895 0.93266 0.07623 0.0
H1 H 0.28847 0.87323 0.17445 0.0
H2 H 0.28167 0.85102 0.03386 0.0
C3 C 0.24589 0.91244 0.08422 0.0
C4 C 0.2542 0.89288 0.04957 0.0
C5 C 0.25835 0.90559 0.12928 0.0
C6 C 0.27979 0.87911 0.13961 0.0
C7 C 0.28795 0.859 0.10548 0.0
C8 C 0.27511 0.86614 0.06048 0.0
H9 H 0.71257 0.59717 0.57649 0.0
H10 H 0.76981 0.67152 0.52072 0.0
H11 H 0.78179 0.65746 0.66329 0.0
C12 C 0.73149 0.61633 0.58052 0.0
C13 C 0.74714 0.62462 0.62404 0.0
C14 C 0.73939 0.63291 0.54261 0.0
C15 C 0.76296 0.65853 0.54925 0.0
C16 C 0.7782 0.66756 0.59263 0.0
C17 C 0.77074 0.65012 0.62974 0.0
H18 H 0.81756 0.11597 0.01477 0.0
H19 H 0.76403 0.19319 0.06846 0.0
H20 H 0.75613 0.18032 0.92557 0.0
C21 C 0.80044 0.13633 0.00967 0.0
C22 C 0.78797 0.14622 0.96582 0.0
C23 C 0.79224 0.15338 0.04692 0.0
C24 C 0.77065 0.18011 0.03984 0.0
C25 C 0.7574 0.19002 0.99619 0.0
C26 C 0.76649 0.17307 0.95938 0.0
H27 H 0.28315 0.42975 0.49857 0.0
H28 H 0.23314 0.34911 0.54756 0.0
H29 H 0.22344 0.36628 0.40548 0.0
C30 C 0.26704 0.40887 0.49186 0.0
C31 C 0.25463 0.40021 0.44732 0.0
C32 C 0.25951 0.39042 0.528 0.0
C33 C 0.23859 0.36344 0.51957 0.0
C34 C 0.22481 0.35484 0.47543 0.0
C35 C 0.23326 0.37323 0.43956 0.0
O36 O 0.99146 0.06751 0.62845 0.0
Mg37 Mg 0.04014 0.0647 0.60343 0.0
O38 O 0.97121 0.02437 0.59315 0.0
Mg39 Mg 0.01263 0.01006 0.54423 0.0
O40 O 0.03478 0.06034 0.53538 0.0
O41 O 0.0553 0.1035 0.57279 0.0
O42 O 0.05455 0.997 0.49543 0.0
O43 O 0.96925 0.02609 0.48519 0.0
Mg44 Mg 0.98772 0.95843 0.48372 0.0
O45 O 0.98929 0.95945 0.55227 0.0
O46 O 0.03561 0.95497 0.45724 0.0
O47 O 0.94706 0.98481 0.4474 0.0
O48 O 0.97198 0.91798 0.5083 0.0
C49 C 0.07934 0.00744 0.63349 0.0
C50 C 0.96753 0.04683 0.62024 0.0
C51 C 0.04735 0.08867 0.5354 0.0
C52 C 0.05896 0.97593 0.46657 0.0
C53 C 0.94722 0.014 0.45393 0.0
C54 C 0.97693 0.93097 0.54738 0.0
O55 O 0.08043 0.03687 0.6376 0.0
O56 O 0.05626 0.99451 0.60412 0.0
O57 O 0.51916 0.49996 0.13874 0.0
Mg58 Mg 0.49274 0.47452 0.08253 0.0
O59 O 0.53561 0.53553 0.0931 0.0
Mg60 Mg 0.49466 0.52 0.03261 0.0
O61 O 0.52021 0.46808 0.02929 0.0
O62 O 0.51568 0.43257 0.08327 0.0
O63 O 0.45254 0.50293 0.97204 0.0
O64 O 0.53825 0.53075 0.98458 0.0
Mg65 Mg 0.46911 0.57415 0.96605 0.0
O66 O 0.47207 0.5701 0.03344 0.0
O67 O 0.42988 0.54421 0.93386 0.0
O68 O 0.51912 0.57242 0.94467 0.0
O69 O 0.45363 0.61356 0.99612 0.0
C70 C 0.4282 0.49332 0.08588 0.0
C71 C 0.53738 0.52406 0.13243 0.0
C72 C 0.52716 0.44035 0.04643 0.0
C73 C 0.43046 0.51499 0.94069 0.0
C74 C 0.54248 0.55152 0.95508 0.0
C75 C 0.45942 0.59829 0.03339 0.0
O76 O 0.43697 0.46635 0.07508 0.0
O77 O 0.4494 0.51572 0.08077 0.0
H78 H 0.2251 0.31087 0.40858 0.0
H79 H 0.18926 0.26306 0.39757 0.0
H80 H 0.13795 0.28623 0.51278 0.0
H81 H 0.17268 0.33443 0.52325 0.0
H82 H 0.1664 0.22696 0.51681 0.0
H83 H 0.09203 0.29189 0.41312 0.0
H84 H 0.07837 0.32713 0.34824 0.0
H85 H 0.10834 0.25551 0.26053 0.0
H86 H 0.12272 0.21997 0.32507 0.0
H87 H 0.00918 0.13676 0.49642 0.0
H88 H 0.03581 0.17936 0.45833 0.0
H89 H 0.1282 0.12223 0.44826 0.0
H90 H 0.10147 0.07951 0.48645 0.0
H91 H 0.08045 0.19656 0.38384 0.0
H92 H 0.18496 0.15223 0.51427 0.0
H93 H 0.19282 0.11937 0.58251 0.0
H94 H 0.09534 0.15565 0.62042 0.0
H95 H 0.08679 0.18832 0.55208 0.0
C96 C 0.20569 0.30614 0.43106 0.0
C97 C 0.20201 0.32644 0.46706 0.0
C98 C 0.1853 0.27875 0.42474 0.0
C99 C 0.16101 0.27113 0.45437 0.0
C100 C 0.15671 0.29163 0.48967 0.0
C101 C 0.17681 0.31906 0.49579 0.0
C102 C 0.1418 0.2408 0.45088 0.0
C103 C 0.14796 0.22033 0.48743 0.0
C104 C 0.11749 0.2321 0.41276 0.0
C105 C 0.10888 0.25342 0.37399 0.0
C106 C 0.09607 0.28376 0.38007 0.0
C107 C 0.08812 0.30377 0.34335 0.0
C108 C 0.0926 0.29361 0.30031 0.0
C109 C 0.10495 0.26338 0.2939 0.0
C110 C 0.11299 0.24329 0.33054 0.0
C111 C 0.03404 0.13257 0.48324 0.0
C112 C 0.05338 0.10501 0.49427 0.0
C113 C 0.0493 0.15697 0.46152 0.0
C114 C 0.08419 0.1541 0.45118 0.0
C115 C 0.1012 0.12485 0.45597 0.0
C116 C 0.08584 0.10036 0.47759 0.0
C117 C 0.10581 0.18284 0.44935 0.0
C118 C 0.0998 0.20305 0.41238 0.0
C119 C 0.13004 0.19177 0.48723 0.0
C120 C 0.13531 0.17256 0.52837 0.0
C121 C 0.16533 0.15316 0.53732 0.0
C122 C 0.1698 0.13451 0.57584 0.0
C123 C 0.14456 0.13539 0.60575 0.0
C124 C 0.11482 0.15494 0.5972 0.0
C125 C 0.11008 0.17343 0.55854 0.0
H126 H 0.14806 0.12094 0.63555 0.0
H127 H 0.0864 0.30912 0.27191 0.0
H128 H 0.34796 0.85108 0.16692 0.0
H129 H 0.38161 0.80267 0.1849 0.0
H130 H 0.30771 0.75277 0.08803 0.0
H131 H 0.27369 0.80073 0.07061 0.0
H132 H 0.32616 0.71909 0.16727 0.0
H133 H 0.38632 0.78105 0.06086 0.0
H134 H 0.41811 0.82805 0.03983 0.0
H135 H 0.49682 0.81649 0.15583 0.0
H136 H 0.46522 0.7696 0.17776 0.0
H137 H 0.39097 0.60458 0.0431 0.0
H138 H 0.36679 0.64423 0.08773 0.0
H139 H 0.47281 0.66429 0.15507 0.0
H140 H 0.49726 0.62512 0.10774 0.0
H141 H 0.44735 0.71412 0.1222 0.0
H142 H 0.39807 0.64216 0.2135 0.0
H143 H 0.36811 0.59412 0.23409 0.0
H144 H 0.2711 0.62275 0.15342 0.0
H145 H 0.30054 0.67066 0.13159 0.0
C146 C 0.33871 0.82969 0.14983 0.0
C147 C 0.30838 0.82978 0.11699 0.0
C148 C 0.35798 0.8021 0.1601 0.0
C149 C 0.34719 0.77415 0.13774 0.0
C150 C 0.31642 0.77406 0.10583 0.0
C151 C 0.29728 0.80157 0.09545 0.0
C152 C 0.36892 0.74527 0.14471 0.0
C153 C 0.35275 0.7178 0.15769 0.0
C154 C 0.40431 0.74402 0.13458 0.0
C155 C 0.42319 0.77214 0.12124 0.0
C156 C 0.41025 0.7887 0.08203 0.0
C157 C 0.42826 0.81528 0.06993 0.0
C158 C 0.4594 0.82532 0.09657 0.0
C159 C 0.47265 0.80874 0.1353 0.0
C160 C 0.45472 0.78218 0.14757 0.0
C161 C 0.40887 0.61638 0.06903 0.0
C162 C 0.4458 0.61182 0.07239 0.0
C163 C 0.39502 0.63908 0.09489 0.0
C164 C 0.41781 0.6574 0.12531 0.0
C165 C 0.45461 0.65052 0.13193 0.0
C166 C 0.46858 0.62794 0.10532 0.0
C167 C 0.40386 0.68709 0.14216 0.0
C168 C 0.42141 0.71502 0.13372 0.0
C169 C 0.36993 0.68868 0.15715 0.0
C170 C 0.35162 0.66016 0.17094 0.0
C171 C 0.37037 0.63822 0.20001 0.0
C172 C 0.35347 0.61096 0.21188 0.0
C173 C 0.31773 0.6054 0.19511 0.0
C174 C 0.29877 0.62713 0.16649 0.0
C175 C 0.31554 0.6544 0.15445 0.0
H176 H 0.30473 0.58426 0.20428 0.0
H177 H 0.47331 0.8459 0.08714 0.0
H178 H 0.76196 0.72508 0.55736 0.0
H179 H 0.79781 0.77272 0.56728 0.0
H180 H 0.87999 0.72287 0.65257 0.0
H181 H 0.84342 0.67519 0.64379 0.0
H182 H 0.87421 0.78015 0.68463 0.0
H183 H 0.88743 0.73719 0.54182 0.0
H184 H 0.86831 0.71518 0.46657 0.0
H185 H 0.81396 0.80072 0.42596 0.0
H186 H 0.83232 0.82309 0.50122 0.0
H187 H 0.00922 0.88102 0.59 0.0
H188 H 0.97664 0.83823 0.62023 0.0
H189 H 0.88261 0.89596 0.61074 0.0
H190 H 0.91553 0.93911 0.58193 0.0
H191 H 0.89679 0.83475 0.54574 0.0
H192 H 0.88762 0.8767 0.69433 0.0
H193 H 0.91381 0.89658 0.7685 0.0
H194 H 0.96939 0.80979 0.79644 0.0
H195 H 0.94404 0.78962 0.72195 0.0
C196 C 0.78772 0.72427 0.57813 0.0
C197 C 0.80019 0.69636 0.59925 0.0
C198 C 0.80817 0.75151 0.58388 0.0
C199 C 0.84195 0.75129 0.61 0.0
C200 C 0.85407 0.72362 0.6322 0.0
C201 C 0.83328 0.6964 0.627 0.0
C202 C 0.86502 0.7796 0.61221 0.0
C203 C 0.87932 0.79195 0.65423 0.0
C204 C 0.87198 0.79502 0.57265 0.0
C205 C 0.86095 0.78169 0.52729 0.0
C206 C 0.87117 0.75122 0.51694 0.0
C207 C 0.8605 0.73869 0.47428 0.0
C208 C 0.83985 0.75651 0.44155 0.0
C209 C 0.82991 0.78693 0.45138 0.0
C210 C 0.84046 0.79955 0.49402 0.0
C211 C 0.98241 0.88526 0.59749 0.0
C212 C 0.96493 0.91336 0.58432 0.0
C213 C 0.96373 0.86075 0.61443 0.0
C214 C 0.92729 0.86402 0.61776 0.0
C215 C 0.91089 0.89321 0.60913 0.0
C216 C 0.92977 0.91791 0.59298 0.0
C217 C 0.90494 0.83566 0.61791 0.0
C218 C 0.89127 0.82306 0.57608 0.0
C219 C 0.89935 0.81984 0.65751 0.0
C220 C 0.91432 0.83183 0.70235 0.0
C221 C 0.90578 0.862 0.71604 0.0
C222 C 0.92038 0.87329 0.75821 0.0
C223 C 0.94335 0.8545 0.78712 0.0
C224 C 0.95166 0.82435 0.77397 0.0
C225 C 0.93716 0.81297 0.7318 0.0
H226 H 0.95462 0.86328 0.81976 0.0
H227 H 0.83162 0.74677 0.40853 0.0
H228 H 0.7017 0.20478 0.0412 0.0
H229 H 0.6622 0.24996 0.03005 0.0
H230 H 0.71846 0.28268 0.92352 0.0
H231 H 0.75887 0.23765 0.93527 0.0
H232 H 0.70501 0.33019 0.98133 0.0
H233 H 0.63781 0.25113 0.89611 0.0
H234 H 0.61148 0.19878 0.88116 0.0
H235 H 0.54891 0.21061 0.98887 0.0
H236 H 0.57526 0.26283 0.00495 0.0
H237 H 0.56646 0.44812 0.97571 0.0
H238 H 0.60419 0.40855 0.94549 0.0
H239 H 0.57363 0.34104 0.03991 0.0
H240 H 0.53604 0.37941 0.069 0.0
H241 H 0.57381 0.3144 0.96125 0.0
H242 H 0.65312 0.38482 0.05846 0.0
H243 H 0.68017 0.43641 0.07796 0.0
H244 H 0.71976 0.44012 0.9509 0.0
H245 H 0.69234 0.38873 0.93029 0.0
C246 C 0.70591 0.22168 0.01562 0.0
C247 C 0.73344 0.21763 0.98914 0.0
C248 C 0.68307 0.24735 0.00896 0.0
C249 C 0.68705 0.26946 0.97549 0.0
C250 C 0.71477 0.26578 0.9493 0.0
C251 C 0.73765 0.23997 0.95588 0.0
C252 C 0.66235 0.29653 0.96891 0.0
C253 C 0.67629 0.32686 0.97581 0.0
C254 C 0.6249 0.2922 0.96168 0.0
C255 C 0.60861 0.26091 0.95178 0.0
C256 C 0.61857 0.24252 0.91676 0.0
C257 C 0.60363 0.21286 0.90808 0.0
C258 C 0.57855 0.20137 0.93405 0.0
C259 C 0.56831 0.21955 0.96873 0.0
C260 C 0.5832 0.24921 0.97759 0.0
C261 C 0.56758 0.4247 0.9895 0.0
C262 C 0.54842 0.41704 0.025 0.0
C263 C 0.5892 0.40217 0.97236 0.0
C264 C 0.59188 0.37181 0.9906 0.0
C265 C 0.57193 0.36416 0.02504 0.0
C266 C 0.55054 0.38636 0.04193 0.0
C267 C 0.61645 0.34776 0.97651 0.0
C268 C 0.60249 0.3179 0.96534 0.0
C269 C 0.6538 0.35249 0.98027 0.0
C270 C 0.67035 0.3832 0.99265 0.0
C271 C 0.66736 0.39677 0.03455 0.0
C272 C 0.68273 0.42595 0.04577 0.0
C273 C 0.70148 0.4416 0.01554 0.0
C274 C 0.70502 0.42803 0.9741 0.0
C275 C 0.68958 0.3989 0.96263 0.0
H276 H 0.71339 0.46418 0.02428 0.0
H277 H 0.56703 0.1784 0.92729 0.0
H278 H 0.29892 0.93077 0.20309 0.0
H279 H 0.27754 0.95724 0.26677 0.0
H280 H 0.16895 0.94724 0.20201 0.0
H281 H 0.19033 0.92209 0.13799 0.0
H282 H 0.17437 1.00014 0.24334 0.0
H283 H 0.21254 0.89344 0.28321 0.0
H284 H 0.25703 0.85103 0.29493 0.0
H285 H 0.32287 0.90746 0.39138 0.0
H286 H 0.2789 0.95034 0.37978 0.0
H287 H 0.07202 0.93564 0.40102 0.0
H288 H 0.11823 0.93863 0.35268 0.0
H289 H 0.16244 0.02033 0.42369 0.0
H290 H 0.11498 0.01819 0.4723 0.0
H291 H 0.20337 0.94682 0.39017 0.0
H292 H 0.15447 0.05182 0.35411 0.0
H293 H 0.10528 0.08981 0.33843 0.0
H294 H 0.05486 0.03125 0.23218 0.0
H295 H 0.10338 0.99261 0.24791 0.0
C296 C 0.27055 0.9347 0.20238 0.0
C297 C 0.24623 0.92432 0.1658 0.0
C298 C 0.25834 0.94974 0.23874 0.0
C299 C 0.22155 0.95383 0.23963 0.0
C300 C 0.19746 0.94454 0.20218 0.0
C301 C 0.20967 0.93008 0.16558 0.0
C302 C 0.20739 0.96533 0.28046 0.0
C303 C 0.18118 0.98879 0.27563 0.0
C304 C 0.21657 0.95103 0.32298 0.0
C305 C 0.24272 0.92517 0.33025 0.0
C306 C 0.2366 0.89683 0.30674 0.0
C307 C 0.26171 0.87272 0.31336 0.0
C308 C 0.29281 0.87659 0.34378 0.0
C309 C 0.29881 0.90453 0.36775 0.0
C310 C 0.27383 0.92874 0.36117 0.0
C311 C 0.0915 0.9543 0.40681 0.0
C312 C 0.0896 0.9768 0.44058 0.0
C313 C 0.11792 0.95593 0.37897 0.0
C314 C 0.14337 0.97987 0.38428 0.0
C315 C 0.14263 0.00191 0.41877 0.0
C316 C 0.11569 1.00053 0.44663 0.0
C317 C 0.16993 0.98094 0.35252 0.0
C318 C 0.19805 0.95937 0.35861 0.0
C319 C 0.16214 0.99658 0.311 0.0
C320 C 0.13235 0.01921 0.30252 0.0
C321 C 0.13259 0.04682 0.32791 0.0
C322 C 0.10492 0.06853 0.31889 0.0
C323 C 0.07703 0.06296 0.28426 0.0
C324 C 0.07652 0.03553 0.25893 0.0
C325 C 0.10408 0.01373 0.26792 0.0
H326 H 0.05593 0.07999 0.27683 0.0
H327 H 0.31222 0.85791 0.34886 0.0
H328 H 0.67995 0.60937 0.63959 0.0
H329 H 0.66178 0.58739 0.70792 0.0
H330 H 0.77193 0.58134 0.76727 0.0
H331 H 0.79051 0.60359 0.69866 0.0
H332 H 0.70425 0.52503 0.77411 0.0
H333 H 0.75639 0.62876 0.81617 0.0
H334 H 0.76657 0.68399 0.79784 0.0
H335 H 0.65338 0.69897 0.77085 0.0
H336 H 0.64261 0.64367 0.78829 0.0
H337 H 0.60772 0.52058 0.97398 0.0
H338 H 0.65888 0.52457 0.93094 0.0
H339 H 0.59706 0.58553 0.83602 0.0
H340 H 0.54727 0.58205 0.87779 0.0
H341 H 0.66221 0.61002 0.86613 0.0
H342 H 0.60879 0.50862 0.8175 0.0
H343 H 0.59442 0.45341 0.83046 0.0
H344 H 0.70587 0.43291 0.86533 0.0
H345 H 0.72084 0.48827 0.85405 0.0
C346 C 0.70041 0.60268 0.66669 0.0
C347 C 0.73666 0.60826 0.6638 0.0
C348 C 0.68999 0.59008 0.70566 0.0
C349 C 0.71555 0.5826 0.74237 0.0
C350 C 0.75188 0.58677 0.73907 0.0
C351 C 0.76238 0.59971 0.70011 0.0
C352 C 0.70325 0.57469 0.78557 0.0
C353 C 0.69596 0.54343 0.79526 0.0
C354 C 0.69236 0.59875 0.81278 0.0
C355 C 0.69875 0.6321 0.80321 0.0
C356 C 0.73371 0.6438 0.80601 0.0
C357 C 0.73958 0.67511 0.79582 0.0
C358 C 0.71064 0.69497 0.78311 0.0
C359 C 0.67577 0.68357 0.78067 0.0
C360 C 0.66978 0.65226 0.79073 0.0
C361 C 0.60526 0.53475 0.94389 0.0
C362 C 0.5736 0.55144 0.92988 0.0
C363 C 0.63442 0.53701 0.91941 0.0
C364 C 0.6319 0.55578 0.88065 0.0
C365 C 0.59992 0.57141 0.86622 0.0
C366 C 0.57132 0.56934 0.89037 0.0
C367 C 0.66175 0.56033 0.85399 0.0
C368 C 0.67211 0.59127 0.84688 0.0
C369 C 0.67509 0.53591 0.82918 0.0
C370 C 0.66589 0.5027 0.83577 0.0
C371 C 0.6302 0.49245 0.82858 0.0
C372 C 0.62195 0.46112 0.83563 0.0
C373 C 0.64919 0.43972 0.84912 0.0
C374 C 0.68477 0.44957 0.85531 0.0
C375 C 0.69315 0.48093 0.84872 0.0
H376 H 0.64276 0.41547 0.85456 0.0
H377 H 0.71523 0.7192 0.77523 0.0
H378 H 0.7934 0.0944 0.08189 0.0
H379 H 0.81593 0.0781 0.15849 0.0
H380 H 0.84508 0.17341 0.19333 0.0
H381 H 0.82295 0.18984 0.11647 0.0
H382 H 0.8981 0.13123 0.22525 0.0
H383 H 0.77344 0.14455 0.22902 0.0
H384 H 0.70904 0.13828 0.20351 0.0
H385 H 0.71849 0.03894 0.22168 0.0
H386 H 0.78308 0.04455 0.24664 0.0
H387 H 0.94522 0.07827 0.44931 0.0
H388 H 0.91304 0.11004 0.3891 0.0
H389 H 0.86606 0.02648 0.32567 0.0
H390 H 0.89687 0.99492 0.38592 0.0
H391 H 0.81946 0.07268 0.31532 0.0
H392 H 0.94536 0.0592 0.30003 0.0
H393 H 0.0091 0.06484 0.32979 0.0
H394 H 0.99716 0.16458 0.33409 0.0
H395 H 0.933 0.15942 0.30548 0.0
C396 C 0.80481 0.11184 0.10579 0.0
C397 C 0.80629 0.14341 0.09325 0.0
C398 C 0.81742 0.10256 0.1496 0.0
C399 C 0.8318 0.12463 0.1817 0.0
C400 C 0.83392 0.15606 0.16912 0.0
C401 C 0.82107 0.16542 0.12534 0.0
C402 C 0.84464 0.1146 0.22829 0.0
C403 C 0.88077 0.11895 0.24533 0.0
C404 C 0.82206 0.09848 0.25438 0.0
C405 C 0.78318 0.09497 0.23939 0.0
C406 C 0.76185 0.12134 0.22723 0.0
C407 C 0.7253 0.11791 0.21293 0.0
C408 C 0.7097 0.08822 0.2109 0.0
C409 C 0.73061 0.06191 0.22324 0.0
C410 C 0.76719 0.06521 0.23752 0.0
C411 C 0.92741 0.06677 0.42303 0.0
C412 C 0.92404 0.03401 0.42207 0.0
C413 C 0.90917 0.08494 0.38856 0.0
C414 C 0.88773 0.07055 0.35238 0.0
C415 C 0.88254 0.03811 0.35308 0.0
C416 C 0.90042 0.02005 0.38754 0.0
C417 C 0.87313 0.08831 0.31161 0.0
C418 C 0.83664 0.08546 0.29559 0.0
C419 C 0.89542 0.10569 0.28644 0.0
C420 C 0.93434 0.10891 0.30106 0.0
C421 C 0.95633 0.08233 0.30737 0.0
C422 C 0.9925 0.08544 0.32416 0.0
C423 C 0.00719 0.11506 0.33388 0.0
C424 C 0.98573 0.14165 0.32661 0.0
C425 C 0.94945 0.13865 0.31018 0.0
H426 H 0.03519 0.11741 0.34698 0.0
H427 H 0.68138 0.08562 0.19983 0.0
H428 H 0.25509 0.44676 0.56902 0.0
H429 H 0.28197 0.46194 0.64452 0.0
H430 H 0.32512 0.36901 0.66696 0.0
H431 H 0.29703 0.35347 0.59182 0.0
H432 H 0.3044 0.38954 0.74149 0.0
H433 H 0.37706 0.43064 0.63795 0.0
H434 H 0.39063 0.45916 0.57107 0.0
H435 H 0.35232 0.54434 0.62302 0.0
H436 H 0.33799 0.51623 0.68991 0.0
H437 H 0.4386 0.45281 0.92015 0.0
H438 H 0.40688 0.42473 0.85513 0.0
H439 H 0.33928 0.50496 0.82301 0.0
H440 H 0.37033 0.53285 0.88731 0.0
H441 H 0.37814 0.48594 0.75417 0.0
H442 H 0.30432 0.44155 0.85822 0.0
H443 H 0.29417 0.41136 0.92515 0.0
H444 H 0.34074 0.33018 0.87243 0.0
H445 H 0.35166 0.36006 0.80545 0.0
C446 C 0.2702 0.42959 0.59019 0.0
C447 C 0.2743 0.39907 0.57456 0.0
C448 C 0.28563 0.43825 0.63326 0.0
C449 C 0.3063 0.41681 0.66112 0.0
C450 C 0.30944 0.38598 0.64607 0.0
C451 C 0.29346 0.37715 0.60318 0.0
C452 C 0.32557 0.42708 0.70513 0.0
C453 C 0.32093 0.41038 0.74419 0.0
C454 C 0.34732 0.45418 0.7088 0.0
C455 C 0.3562 0.47126 0.66878 0.0
C456 C 0.37132 0.45541 0.63498 0.0
C457 C 0.37917 0.47151 0.59708 0.0
C458 C 0.37227 0.50353 0.59275 0.0
C459 C 0.35761 0.51953 0.62639 0.0
C460 C 0.34965 0.50353 0.66433 0.0
C461 C 0.41631 0.46405 0.89993 0.0
C462 C 0.40729 0.49519 0.90845 0.0
C463 C 0.3983 0.44804 0.86279 0.0
C464 C 0.37104 0.46297 0.83407 0.0
C465 C 0.36045 0.49315 0.84454 0.0
C466 C 0.37826 0.50904 0.88136 0.0
C467 C 0.35593 0.44907 0.79048 0.0
C468 C 0.36173 0.46501 0.75138 0.0
C469 C 0.33588 0.42107 0.78691 0.0
C470 C 0.3292 0.40315 0.82709 0.0
C471 C 0.31273 0.41736 0.8611 0.0
C472 C 0.30676 0.40028 0.899 0.0
C473 C 0.31691 0.3689 0.90311 0.0
C474 C 0.33296 0.35451 0.86925 0.0
C475 C 0.33902 0.3715 0.8313 0.0
H476 H 0.31226 0.35572 0.93248 0.0
H477 H 0.37835 0.51595 0.56337 0.0
H478 H 0.71938 0.6712 0.46948 0.0
H479 H 0.69111 0.65629 0.39496 0.0
H480 H 0.68887 0.56001 0.43725 0.0
H481 H 0.72058 0.57412 0.51018 0.0
H482 H 0.70299 0.55986 0.35838 0.0
H483 H 0.61326 0.61478 0.42859 0.0
H484 H 0.58812 0.65954 0.46546 0.0
H485 H 0.59771 0.71716 0.35082 0.0
H486 H 0.62328 0.67281 0.31349 0.0
H487 H 0.55705 0.4983 0.21482 0.0
H488 H 0.59563 0.5206 0.2785 0.0
H489 H 0.6095 0.60373 0.20169 0.0
H490 H 0.57078 0.58139 0.13714 0.0
H491 H 0.59356 0.61516 0.29043 0.0
H492 H 0.67631 0.55557 0.21754 0.0
H493 H 0.69796 0.50867 0.18197 0.0
H494 H 0.6977 0.45723 0.30449 0.0
H495 H 0.67554 0.5037 0.34062 0.0
C496 C 0.7137 0.64671 0.46285 0.0
C497 C 0.72225 0.62397 0.49652 0.0
C498 C 0.69681 0.63828 0.4202 0.0
C499 C 0.68689 0.60709 0.41052 0.0
C500 C 0.69593 0.5843 0.44372 0.0
C501 C 0.71366 0.59254 0.48592 0.0
C502 C 0.66696 0.59792 0.36614 0.0
C503 C 0.67889 0.57187 0.34389 0.0
C504 C 0.63601 0.61401 0.34614 0.0
C505 C 0.62053 0.6406 0.3685 0.0
C506 C 0.6102 0.63706 0.41139 0.0
C507 C 0.59586 0.66234 0.43234 0.0
C508 C 0.59143 0.6912 0.41056 0.0
C509 C 0.60122 0.69481 0.3677 0.0
C510 C 0.61562 0.66962 0.34662 0.0
C511 C 0.56826 0.52133 0.21128 0.0
C512 C 0.5609 0.53803 0.17079 0.0
C513 C 0.59045 0.53398 0.24772 0.0
C514 C 0.60569 0.56366 0.24466 0.0
C515 C 0.59809 0.5807 0.20459 0.0
C516 C 0.57609 0.56788 0.16777 0.0
C517 C 0.62911 0.57672 0.28387 0.0
C518 C 0.61789 0.60348 0.30493 0.0
C519 C 0.66034 0.561 0.3032 0.0
C520 C 0.67403 0.53309 0.28169 0.0
C521 C 0.68063 0.5342 0.23681 0.0
C522 C 0.69304 0.5077 0.21656 0.0
C523 C 0.69915 0.47998 0.24093 0.0
C524 C 0.69295 0.47872 0.28565 0.0
C525 C 0.68051 0.50515 0.30604 0.0
H526 H 0.70874 0.45948 0.22518 0.0
H527 H 0.58032 0.71075 0.42684 0.0
H528 H 0.81478 0.1709 0.89426 0.0
H529 H 0.83199 0.1435 0.82948 0.0
H530 H 0.80106 0.05559 0.88326 0.0
H531 H 0.7848 0.08312 0.94932 0.0
H532 H 0.86076 0.04797 0.85041 0.0
H533 H 0.74911 0.0906 0.79125 0.0
H534 H 0.70202 0.1306 0.77724 0.0
H535 H 0.77038 0.18706 0.70713 0.0
H536 H 0.81808 0.14763 0.72125 0.0
H537 H 0.92425 0.99968 0.64532 0.0
H538 H 0.87856 0.00504 0.69607 0.0
H539 H 0.89536 0.10489 0.70008 0.0
H540 H 0.93995 0.09977 0.64978 0.0
H541 H 0.82576 0.09124 0.69776 0.0
H542 H 0.94108 0.05236 0.77894 0.0
H543 H 0.9871 0.01133 0.79333 0.0
H544 H 0.90717 0.94513 0.82011 0.0
H545 H 0.86067 0.98572 0.80532 0.0
C546 C 0.81137 0.14576 0.8921 0.0
C547 C 0.79815 0.12916 0.92655 0.0
C548 C 0.82104 0.13009 0.85494 0.0
C549 C 0.81693 0.0975 0.85076 0.0
C550 C 0.80418 0.08074 0.88549 0.0
C551 C 0.79495 0.09645 0.92317 0.0
C552 C 0.82733 0.08132 0.81068 0.0
C553 C 0.85238 0.05693 0.81689 0.0
C554 C 0.81607 0.09249 0.7667 0.0
C555 C 0.78721 0.1161 0.75735 0.0
C556 C 0.75416 0.11158 0.77296 0.0
C557 C 0.72735 0.13417 0.76502 0.0
C558 C 0.73321 0.16135 0.74131 0.0
C559 C 0.76586 0.16597 0.72542 0.0
C560 C 0.79276 0.14346 0.73329 0.0
C561 C 0.91744 0.02276 0.6563 0.0
C562 C 0.93591 0.04928 0.64404 0.0
C563 C 0.89155 0.02579 0.68544 0.0
C564 C 0.88384 0.05536 0.7023 0.0
C565 C 0.90076 0.08184 0.6876 0.0
C566 C 0.92647 0.07885 0.65897 0.0
C567 C 0.8608 0.05956 0.7381 0.0
C568 C 0.83314 0.08161 0.7311 0.0
C569 C 0.86935 0.046 0.78114 0.0
C570 C 0.89743 0.02191 0.79058 0.0
C571 C 0.93336 0.029 0.7877 0.0
C572 C 0.9595 0.00584 0.7959 0.0
C573 C 0.95004 0.9756 0.80744 0.0
C574 C 0.91444 0.96851 0.811 0.0
C575 C 0.8882 0.99158 0.80272 0.0
H576 H 0.9703 0.95769 0.81375 0.0
H577 H 0.71244 0.17883 0.73524 0.0
H578 H 0.31912 0.42842 0.44135 0.0
H579 H 0.33812 0.45469 0.37666 0.0
H580 H 0.23475 0.43813 0.30054 0.0
H581 H 0.21469 0.41311 0.36582 0.0
H582 H 0.29523 0.41558 0.26121 0.0
H583 H 0.25456 0.50945 0.3263 0.0
H584 H 0.25134 0.54735 0.38741 0.0
H585 H 0.36408 0.56408 0.39625 0.0
H586 H 0.36809 0.52593 0.33566 0.0
H587 H 0.35885 0.47403 0.0711 0.0
H588 H 0.31802 0.46935 0.12745 0.0
H589 H 0.39787 0.51088 0.2265 0.0
H590 H 0.43691 0.5183 0.16909 0.0
H591 H 0.33992 0.52405 0.25073 0.0
H592 H 0.38619 0.42598 0.20375 0.0
H593 H 0.3967 0.38455 0.14994 0.0
H594 H 0.28361 0.37136 0.11604 0.0
H595 H 0.27246 0.41296 0.16931 0.0
C596 C 0.29995 0.43109 0.4114 0.0
C597 C 0.26532 0.41841 0.40896 0.0
C598 C 0.31098 0.44606 0.37434 0.0
C599 C 0.28779 0.44844 0.33394 0.0
C600 C 0.25302 0.43652 0.33151 0.0
C601 C 0.24175 0.42195 0.36877 0.0
C602 C 0.30111 0.4606 0.29318 0.0
C603 C 0.30433 0.43949 0.25838 0.0
C604 C 0.31411 0.49144 0.29047 0.0
C605 C 0.31165 0.51464 0.32661 0.0
C606 C 0.27872 0.52102 0.34149 0.0
C607 C 0.27674 0.54259 0.37601 0.0
C608 C 0.3075 0.55807 0.39576 0.0
C609 C 0.34028 0.55207 0.38094 0.0
C610 C 0.34241 0.53051 0.34647 0.0
C611 C 0.36696 0.48311 0.10458 0.0
C612 C 0.40086 0.49646 0.11598 0.0
C613 C 0.3439 0.48006 0.13698 0.0
C614 C 0.35531 0.48851 0.18192 0.0
C615 C 0.38831 0.50389 0.19234 0.0
C616 C 0.41069 0.50816 0.1595 0.0
C617 C 0.33487 0.47879 0.21876 0.0
C618 C 0.33035 0.50026 0.25299 0.0
C619 C 0.32183 0.44783 0.22194 0.0
C620 C 0.32851 0.42279 0.19004 0.0
C621 C 0.36359 0.41434 0.18461 0.0
C622 C 0.36965 0.39083 0.15424 0.0
C623 C 0.34084 0.37541 0.12948 0.0
C624 C 0.3059 0.38338 0.13515 0.0
C625 C 0.29969 0.40691 0.16542 0.0
H626 H 0.34559 0.35722 0.10598 0.0
H627 H 0.30592 0.57475 0.42249 0.0
H628 H 0.25446 0.94901 0.00673 0.0
H629 H 0.22686 0.96184 0.93072 0.0
H630 H 0.19335 0.8659 0.90953 0.0
H631 H 0.22159 0.85281 0.98556 0.0
H632 H 0.21399 0.8893 0.83443 0.0
H633 H 0.13473 0.92073 0.93597 0.0
H634 H 0.11617 0.94643 0.00245 0.0
H635 H 0.14401 0.03599 0.95282 0.0
H636 H 0.16329 0.01078 0.88637 0.0
H637 H 0.074 0.94496 0.65461 0.0
H638 H 0.10691 0.91798 0.71978 0.0
H639 H 0.16995 0.00092 0.7527 0.0
H640 H 0.13798 0.0277 0.68811 0.0
H641 H 0.12863 0.97788 0.82073 0.0
H642 H 0.21057 0.94346 0.71966 0.0
H643 H 0.22647 0.91596 0.65311 0.0
H644 H 0.1883 0.82951 0.70147 0.0
H645 H 0.17167 0.85663 0.76804 0.0
C646 C 0.24132 0.93063 0.98581 0.0
C647 C 0.23984 0.89999 1.00222 0.0
C648 C 0.22554 0.93797 0.94239 0.0
C649 C 0.20737 0.91496 0.91472 0.0
C650 C 0.2071 0.88405 0.93032 0.0
C651 C 0.22324 0.87661 0.97372 0.0
C652 C 0.18745 0.92375 0.87045 0.0
C653 C 0.19492 0.90836 0.83148 0.0
C654 C 0.16241 0.94852 0.8665 0.0
C655 C 0.15073 0.96382 0.90636 0.0
C656 C 0.13714 0.94588 0.93939 0.0
C657 C 0.12646 0.96036 0.97705 0.0
C658 C 0.12898 0.99281 0.9819 0.0
C659 C 0.14211 0.01085 0.94904 0.0
C660 C 0.15289 0.99648 0.91136 0.0
C661 C 0.09553 0.95711 0.67507 0.0
C662 C 0.10301 0.98862 0.66656 0.0
C663 C 0.11424 0.94169 0.71226 0.0
C664 C 0.14058 0.95764 0.74114 0.0
C665 C 0.14956 0.98832 0.73093 0.0
C666 C 0.13116 0.00358 0.69396 0.0
C667 C 0.15613 0.94422 0.78481 0.0
C668 C 0.1475 0.95865 0.82377 0.0
C669 C 0.17956 0.91837 0.78858 0.0
C670 C 0.18942 0.90215 0.7485 0.0
C671 C 0.20517 0.91867 0.71584 0.0
C672 C 0.21442 0.90313 0.67818 0.0
C673 C 0.20828 0.87103 0.67297 0.0
C674 C 0.19296 0.85439 0.70549 0.0
C675 C 0.18364 0.86983 0.7432 0.0
H676 H 0.21548 0.85904 0.64381 0.0
H677 H 0.12068 0.00398 0.01108 0.0
loop_
_geom_bond_atom_site_label_1
_geom_bond_atom_site_label_2
_geom_bond_distance
_geom_bond_site_symmetry_2
_ccdc_geom_bond_type
H0 C3 0.931 . S
H1 C6 0.928 . S
H2 C8 0.930 . S
C3 H0 0.931 . S
C3 C4 1.413 . S
C3 C5 1.360 . S
C4 C3 1.413 . S
C4 C8 1.429 . S
C5 C3 1.360 . S
C5 C6 1.372 . S
C6 H1 0.928 . S
C6 C5 1.372 . S
C6 C7 1.404 . S
C7 C6 1.404 . S
C7 C8 1.391 . S
C8 H2 0.930 . S
C8 C4 1.429 . S
C8 C7 1.391 . S
H9 C12 0.931 . S
H10 C15 0.928 . S
H11 C17 0.930 . S
C12 H9 0.931 . S
C12 C13 1.413 . S
C12 C14 1.360 . S
C13 C12 1.413 . S
C13 C17 1.429 . S
C14 C12 1.360 . S
C14 C15 1.372 . S
C15 H10 0.928 . S
C15 C14 1.372 . S
C15 C16 1.404 . S
C16 C15 1.404 . S
C16 C17 1.391 . S
C17 H11 0.930 . S
C17 C13 1.429 . S
C17 C16 1.391 . S
H18 C21 0.931 . S
H19 C24 0.928 . S
H20 C26 0.930 . S
C21 H18 0.931 . S
C21 C22 1.413 1_554 S
C21 C23 1.360 . S
C22 C21 1.413 1_556 S
C22 C26 1.429 . S
C23 C21 1.360 . S
C23 C24 1.372 . S
C24 H19 0.928 . S
C24 C23 1.372 . S
C24 C25 1.391 1_554 S
C25 C24 1.391 1_556 S
C25 C26 1.404 . S
C26 H20 0.930 . S
C26 C22 1.429 . S
C26 C25 1.404 . S
H27 C30 0.931 . S
H28 C33 0.928 . S
H29 C35 0.930 . S
C30 H27 0.931 . S
C30 C31 1.413 . S
C30 C32 1.360 . S
C31 C30 1.413 . S
C31 C35 1.429 . S
C32 C30 1.360 . S
C32 C33 1.372 . S
C33 H28 0.928 . S
C33 C32 1.372 . S
C33 C34 1.404 . S
C34 C33 1.404 . S
C34 C35 1.391 . S
C35 H29 0.930 . S
C35 C31 1.429 . S
C35 C34 1.391 . S
O36 Mg37 1.990 1_655 S
O36 C50 1.253 . S
Mg37 O36 1.990 1_455 S
Mg37 O40 2.180 . S
Mg37 O41 2.117 . S
Mg37 O55 2.030 . S
O38 Mg39 2.072 1_655 S
O38 C50 1.260 . S
Mg39 O38 2.072 1_455 S
Mg39 O40 2.099 . S
Mg39 O42 2.079 1_545 S
Mg39 O43 2.072 1_455 S
Mg39 O45 2.099 1_445 S
Mg39 O56 2.079 1_545 S
O40 Mg37 2.180 . S
O40 Mg39 2.099 . S
O40 C51 1.279 . S
O41 Mg37 2.117 . S
O41 C51 1.250 . S
O42 Mg39 2.079 1_565 S
O42 C52 1.264 . S
O43 Mg39 2.072 1_655 S
O43 C53 1.260 . S
Mg44 O45 2.180 . S
Mg44 O46 2.030 1_655 S
Mg44 O47 1.990 1_565 S
Mg44 O48 2.117 . S
O45 Mg39 2.099 1_665 S
O45 Mg44 2.180 . S
O45 C54 1.279 . S
O46 Mg44 2.030 1_455 S
O46 C52 1.248 . S
O47 Mg44 1.990 1_545 S
O47 C53 1.253 . S
O48 Mg44 2.117 . S
O48 C54 1.250 . S
C49 O55 1.248 1_565 S
C49 O56 1.264 . S
C50 O36 1.253 . S
C50 O38 1.260 . S
C51 O40 1.279 . S
C51 O41 1.250 . S
C52 O42 1.264 . S
C52 O46 1.248 . S
C53 O43 1.260 . S
C53 O47 1.253 . S
C54 O45 1.279 . S
C54 O48 1.250 . S
O55 Mg37 2.030 . S
O55 C49 1.248 1_545 S
O56 Mg39 2.079 1_565 S
O56 C49 1.264 . S
O57 Mg58 1.990 . S
O57 C71 1.253 . S
Mg58 O57 1.990 . S
Mg58 O61 2.180 . S
Mg58 O62 2.117 . S
Mg58 O76 2.030 . S
O59 Mg60 2.072 . S
O59 C71 1.260 . S
Mg60 O59 2.072 . S
Mg60 O61 2.099 . S
Mg60 O63 2.079 1_554 S
Mg60 O64 2.072 1_554 S
Mg60 O66 2.099 . S
Mg60 O77 2.079 . S
O61 Mg58 2.180 . S
O61 Mg60 2.099 . S
O61 C72 1.279 . S
O62 Mg58 2.117 . S
O62 C72 1.250 . S
O63 Mg60 2.079 1_556 S
O63 C73 1.264 . S
O64 Mg60 2.072 1_556 S
O64 C74 1.260 . S
Mg65 O66 2.180 1_556 S
Mg65 O67 2.030 . S
Mg65 O68 1.990 . S
Mg65 O69 2.116 . S
O66 Mg60 2.099 . S
O66 Mg65 2.180 1_554 S
O66 C75 1.279 . S
O67 Mg65 2.030 . S
O67 C73 1.248 . S
O68 Mg65 1.990 . S
O68 C74 1.253 . S
O69 Mg65 2.116 . S
O69 C75 1.252 1_556 S
C70 O76 1.248 . S
C70 O77 1.264 . S
C71 O57 1.253 . S
C71 O59 1.260 . S
C72 O61 1.279 . S
C72 O62 1.250 . S
C73 O63 1.264 . S
C73 O67 1.248 . S
C74 O64 1.260 . S
C74 O68 1.253 . S
C75 O66 1.279 . S
C75 O69 1.252 1_554 S
O76 Mg58 2.030 . S
O76 C70 1.248 . S
O77 Mg60 2.079 . S
O77 C70 1.264 . S
H78 C96 0.951 . S
H79 C98 0.951 . S
H80 C100 0.950 . S
H81 C101 0.950 . S
H82 C103 0.950 . S
H83 C106 0.950 . S
H84 C107 0.950 . S
H85 C109 0.950 . S
H86 C110 0.950 . S
H87 C111 0.951 . S
H88 C113 0.951 . S
H89 C115 0.950 . S
H90 C116 0.950 . S
H91 C118 0.950 . S
H92 C121 0.950 . S
H93 C122 0.950 . S
H94 C124 0.950 . S
H95 C125 0.950 . S
C96 H78 0.951 . S
C96 C97 1.366 . S
C96 C98 1.388 . S
C97 C96 1.366 . S
C97 C101 1.385 . S
C98 H79 0.951 . S
C98 C96 1.388 . S
C98 C99 1.366 . S
C99 C98 1.366 . S
C99 C100 1.414 . S
C99 C102 1.499 . S
C100 H80 0.950 . S
C100 C99 1.414 . S
C100 C101 1.374 . S
C101 H81 0.950 . S
C101 C97 1.385 . S
C101 C100 1.374 . S
C102 C99 1.499 . S
C102 C103 1.373 . S
C102 C104 1.389 . S
C103 H82 0.950 . S
C103 C102 1.373 . S
C103 C119 1.377 . S
C104 C102 1.389 . S
C104 C105 1.524 . S
C104 C118 1.377 . S
C105 C104 1.524 . S
C105 C106 1.397 . S
C105 C110 1.363 . S
C106 H83 0.950 . S
C106 C105 1.397 . S
C106 C107 1.334 . S
C107 H84 0.950 . S
C107 C106 1.334 . S
C107 C108 1.287 . S
C108 C107 1.287 . S
C108 C109 1.524 . S
C108 H127 0.913 . S
C109 H85 0.950 . S
C109 C108 1.524 . S
C109 C110 1.415 . S
C110 H86 0.950 . S
C110 C105 1.363 . S
C110 C109 1.415 . S
C111 H87 0.951 . S
C111 C112 1.366 . S
C111 C113 1.388 . S
C112 C111 1.366 . S
C112 C116 1.385 . S
C113 H88 0.951 . S
C113 C111 1.388 . S
C113 C114 1.366 . S
C114 C113 1.366 . S
C114 C115 1.414 . S
C114 C117 1.499 . S
C115 H89 0.950 . S
C115 C114 1.414 . S
C115 C116 1.374 . S
C116 H90 0.950 . S
C116 C112 1.385 . S
C116 C115 1.374 . S
C117 C114 1.499 . S
C117 C118 1.373 . S
C117 C119 1.389 . S
C118 H91 0.950 . S
C118 C104 1.377 . S
C118 C117 1.373 . S
C119 C103 1.377 . S
C119 C117 1.389 . S
C119 C120 1.524 . S
C120 C119 1.524 . S
C120 C121 1.397 . S
C120 C125 1.363 . S
C121 H92 0.950 . S
C121 C120 1.397 . S
C121 C122 1.334 . S
C122 H93 0.950 . S
C122 C121 1.334 . S
C122 C123 1.287 . S
C123 C122 1.287 . S
C123 C124 1.524 . S
C123 H126 0.999 . S
C124 H94 0.950 . S
C124 C123 1.524 . S
C124 C125 1.415 . S
C125 H95 0.950 . S
C125 C120 1.363 . S
C125 C124 1.415 . S
H126 C123 0.999 . S
H127 C108 0.913 . S
H128 C146 0.951 . S
H129 C148 0.951 . S
H130 C150 0.950 . S
H131 C151 0.950 . S
H132 C153 0.950 . S
H133 C156 0.950 . S
H134 C157 0.950 . S
H135 C159 0.950 . S
H136 C160 0.950 . S
H137 C161 0.951 . S
H138 C163 0.951 . S
H139 C165 0.950 . S
H140 C166 0.950 . S
H141 C168 0.950 . S
H142 C171 0.950 . S
H143 C172 0.950 . S
H144 C174 0.950 . S
H145 C175 0.950 . S
C146 H128 0.951 . S
C146 C147 1.366 . S
C146 C148 1.388 . S
C147 C146 1.366 . S
C147 C151 1.385 . S
C148 H129 0.951 . S
C148 C146 1.388 . S
C148 C149 1.366 . S
C149 C148 1.366 . S
C149 C150 1.414 . S
C149 C152 1.499 . S
C150 H130 0.950 . S
C150 C149 1.414 . S
C150 C151 1.374 . S
C151 H131 0.950 . S
C151 C147 1.385 . S
C151 C150 1.374 . S
C152 C149 1.499 . S
C152 C153 1.373 . S
C152 C154 1.389 . S
C153 H132 0.950 . S
C153 C152 1.373 . S
C153 C169 1.377 . S
C154 C152 1.389 . S
C154 C155 1.524 . S
C154 C168 1.377 . S
C155 C154 1.524 . S
C155 C156 1.397 . S
C155 C160 1.363 . S
C156 H133 0.950 . S
C156 C155 1.397 . S
C156 C157 1.334 . S
C157 H134 0.950 . S
C157 C156 1.334 . S
C157 C158 1.287 . S
C158 C157 1.287 . S
C158 C159 1.524 . S
C158 H177 0.913 . S
C159 H135 0.950 . S
C159 C158 1.524 . S
C159 C160 1.415 . S
C160 H136 0.950 . S
C160 C155 1.363 . S
C160 C159 1.415 . S
C161 H137 0.951 . S
C161 C162 1.366 . S
C161 C163 1.388 . S
C162 C161 1.366 . S
C162 C166 1.385 . S
C163 H138 0.951 . S
C163 C161 1.388 . S
C163 C164 1.366 . S
C164 C163 1.366 . S
C164 C165 1.414 . S
C164 C167 1.499 . S
C165 H139 0.950 . S
C165 C164 1.414 . S
C165 C166 1.374 . S
C166 H140 0.950 . S
C166 C162 1.385 . S
C166 C165 1.374 . S
C167 C164 1.499 . S
C167 C168 1.373 . S
C167 C169 1.389 . S
C168 H141 0.950 . S
C168 C154 1.377 . S
C168 C167 1.373 . S
C169 C153 1.377 . S
C169 C167 1.389 . S
C169 C170 1.524 . S
C170 C169 1.524 . S
C170 C171 1.397 . S
C170 C175 1.363 . S
C171 H142 0.950 . S
C171 C170 1.397 . S
C171 C172 1.334 . S
C172 H143 0.950 . S
C172 C171 1.334 . S
C172 C173 1.287 . S
C173 C172 1.287 . S
C173 C174 1.524 . S
C173 H176 0.999 . S
C174 H144 0.950 . S
C174 C173 1.524 . S
C174 C175 1.415 . S
C175 H145 0.950 . S
C175 C170 1.363 . S
C175 C174 1.415 . S
H176 C173 0.999 . S
H177 C158 0.913 . S
H178 C196 0.951 . S
H179 C198 0.951 . S
H180 C200 0.950 . S
H181 C201 0.950 . S
H182 C203 0.950 . S
H183 C206 0.950 . S
H184 C207 0.950 . S
H185 C209 0.950 . S
H186 C210 0.950 . S
H187 C211 0.951 . S
H188 C213 0.951 . S
H189 C215 0.950 . S
H190 C216 0.950 . S
H191 C218 0.950 . S
H192 C221 0.950 . S
H193 C222 0.950 . S
H194 C224 0.950 . S
H195 C225 0.950 . S
C196 H178 0.951 . S
C196 C197 1.366 . S
C196 C198 1.388 . S
C197 C196 1.366 . S
C197 C201 1.385 . S
C198 H179 0.951 . S
C198 C196 1.388 . S
C198 C199 1.366 . S
C199 C198 1.366 . S
C199 C200 1.414 . S
C199 C202 1.499 . S
C200 H180 0.950 . S
C200 C199 1.414 . S
C200 C201 1.374 . S
C201 H181 0.950 . S
C201 C197 1.385 . S
C201 C200 1.374 . S
C202 C199 1.499 . S
C202 C203 1.373 . S
C202 C204 1.389 . S
C203 H182 0.950 . S
C203 C202 1.373 . S
C203 C219 1.377 . S
C204 C202 1.389 . S
C204 C205 1.524 . S
C204 C218 1.377 . S
C205 C204 1.524 . S
C205 C206 1.397 . S
C205 C210 1.363 . S
C206 H183 0.950 . S
C206 C205 1.397 . S
C206 C207 1.334 . S
C207 H184 0.950 . S
C207 C206 1.334 . S
C207 C208 1.287 . S
C208 C207 1.287 . S
C208 C209 1.524 . S
C208 H227 0.913 . S
C209 H185 0.950 . S
C209 C208 1.524 . S
C209 C210 1.415 . S
C210 H186 0.950 . S
C210 C205 1.363 . S
C210 C209 1.415 . S
C211 H187 0.951 . S
C211 C212 1.366 . S
C211 C213 1.388 . S
C212 C211 1.366 . S
C212 C216 1.385 . S
C213 H188 0.951 . S
C213 C211 1.388 . S
C213 C214 1.366 . S
C214 C213 1.366 . S
C214 C215 1.414 . S
C214 C217 1.499 . S
C215 H189 0.950 . S
C215 C214 1.414 . S
C215 C216 1.374 . S
C216 H190 0.950 . S
C216 C212 1.385 . S
C216 C215 1.374 . S
C217 C214 1.499 . S
C217 C218 1.373 . S
C217 C219 1.389 . S
C218 H191 0.950 . S
C218 C204 1.377 . S
C218 C217 1.373 . S
C219 C203 1.377 . S
C219 C217 1.389 . S
C219 C220 1.524 . S
C220 C219 1.524 . S
C220 C221 1.397 . S
C220 C225 1.363 . S
C221 H192 0.950 . S
C221 C220 1.397 . S
C221 C222 1.334 . S
C222 H193 0.950 . S
C222 C221 1.334 . S
C222 C223 1.287 . S
C223 C222 1.287 . S
C223 C224 1.524 . S
C223 H226 0.999 . S
C224 H194 0.950 . S
C224 C223 1.524 . S
C224 C225 1.415 . S
C225 H195 0.950 . S
C225 C220 1.363 . S
C225 C224 1.415 . S
H226 C223 0.999 . S
H227 C208 0.913 . S
H228 C246 0.951 . S
H229 C248 0.951 . S
H230 C250 0.950 . S
H231 C251 0.950 . S
H232 C253 0.950 . S
H233 C256 0.950 . S
H234 C257 0.950 . S
H235 C259 0.950 . S
H236 C260 0.950 . S
H237 C261 0.951 . S
H238 C263 0.951 . S
H239 C265 0.950 . S
H240 C266 0.950 . S
H241 C268 0.950 . S
H242 C271 0.950 . S
H243 C272 0.950 . S
H244 C274 0.950 . S
H245 C275 0.950 . S
C246 H228 0.951 . S
C246 C247 1.364 1_554 S
C246 C248 1.388 . S
C247 C246 1.364 1_556 S
C247 C251 1.386 . S
C248 H229 0.951 . S
C248 C246 1.388 . S
C248 C249 1.366 . S
C249 C248 1.366 . S
C249 C250 1.414 1_554 S
C249 C252 1.499 . S
C250 H230 0.950 . S
C250 C249 1.414 1_556 S
C250 C251 1.374 . S
C251 H231 0.950 . S
C251 C247 1.386 . S
C251 C250 1.374 . S
C252 C249 1.499 . S
C252 C253 1.373 1_554 S
C252 C254 1.389 . S
C253 H232 0.950 . S
C253 C252 1.373 1_556 S
C253 C269 1.377 1_556 S
C254 C252 1.389 . S
C254 C255 1.524 . S
C254 C268 1.377 . S
C255 C254 1.524 . S
C255 C256 1.397 1_554 S
C255 C260 1.363 . S
C256 H233 0.950 . S
C256 C255 1.397 1_556 S
C256 C257 1.334 . S
C257 H234 0.950 . S
C257 C256 1.334 . S
C257 C258 1.287 1_556 S
C258 C257 1.287 1_554 S
C258 C259 1.524 . S
C258 H277 0.913 . S
C259 H235 0.950 . S
C259 C258 1.524 . S
C259 C260 1.415 . S
C260 H236 0.950 . S
C260 C255 1.363 . S
C260 C259 1.415 . S
C261 H237 0.951 . S
C261 C262 1.366 1_556 S
C261 C263 1.388 . S
C262 C261 1.366 1_554 S
C262 C266 1.385 . S
C263 H238 0.951 . S
C263 C261 1.388 . S
C263 C264 1.366 1_556 S
C264 C263 1.366 1_554 S
C264 C265 1.414 . S
C264 C267 1.499 . S
C265 H239 0.950 . S
C265 C264 1.414 . S
C265 C266 1.374 . S
C266 H240 0.950 . S
C266 C262 1.385 . S
C266 C265 1.374 . S
C267 C264 1.499 . S
C267 C268 1.373 . S
C267 C269 1.389 . S
C268 H241 0.950 . S
C268 C254 1.377 . S
C268 C267 1.373 . S
C269 C253 1.377 1_554 S
C269 C267 1.389 . S
C269 C270 1.524 1_554 S
C270 C269 1.524 1_556 S
C270 C271 1.397 1_556 S
C270 C275 1.363 . S
C271 H242 0.950 . S
C271 C270 1.397 1_554 S
C271 C272 1.334 . S
C272 H243 0.950 . S
C272 C271 1.334 . S
C272 C273 1.287 1_554 S
C273 C272 1.287 1_556 S
C273 C274 1.524 . S
C273 H276 0.999 . S
C274 H244 0.950 . S
C274 C273 1.524 . S
C274 C275 1.415 . S
C275 H245 0.950 . S
C275 C270 1.363 . S
C275 C274 1.415 . S
H276 C273 0.999 . S
H277 C258 0.913 . S
H278 C296 0.951 . S
H279 C298 0.951 . S
H280 C300 0.950 . S
H281 C301 0.950 . S
H282 C303 0.950 . S
H283 C306 0.950 . S
H284 C307 0.950 . S
H285 C309 0.950 . S
H286 C310 0.950 . S
H287 C311 0.951 . S
H288 C313 0.951 . S
H289 C315 0.950 . S
H290 C316 0.936 1_545 S
H291 C318 0.950 . S
H292 C321 0.950 . S
H293 C322 0.950 . S
H294 C324 0.950 . S
H295 C325 0.950 . S
C296 H278 0.951 . S
C296 C297 1.366 . S
C296 C298 1.388 . S
C297 C296 1.366 . S
C297 C301 1.385 . S
C298 H279 0.951 . S
C298 C296 1.388 . S
C298 C299 1.366 . S
C299 C298 1.366 . S
C299 C300 1.414 . S
C299 C302 1.499 . S
C300 H280 0.950 . S
C300 C299 1.414 . S
C300 C301 1.374 . S
C301 H281 0.950 . S
C301 C297 1.385 . S
C301 C300 1.374 . S
C302 C299 1.499 . S
C302 C303 1.373 . S
C302 C304 1.389 . S
C303 H282 0.950 . S
C303 C302 1.373 . S
C303 C319 1.377 . S
C304 C302 1.389 . S
C304 C305 1.524 . S
C304 C318 1.377 . S
C305 C304 1.524 . S
C305 C306 1.397 . S
C305 C310 1.363 . S
C306 H283 0.950 . S
C306 C305 1.397 . S
C306 C307 1.334 . S
C307 H284 0.950 . S
C307 C306 1.334 . S
C307 C308 1.287 . S
C308 C307 1.287 . S
C308 C309 1.524 . S
C308 H327 0.913 . S
C309 H285 0.950 . S
C309 C308 1.524 . S
C309 C310 1.415 . S
C310 H286 0.950 . S
C310 C305 1.363 . S
C310 C309 1.415 . S
C311 H287 0.951 . S
C311 C312 1.366 . S
C311 C313 1.388 . S
C312 C311 1.366 . S
C312 C316 1.385 . S
C313 H288 0.951 . S
C313 C311 1.388 . S
C313 C314 1.366 . S
C314 C313 1.366 . S
C314 C315 1.414 . S
C314 C317 1.499 . S
C315 H289 0.950 . S
C315 C314 1.414 . S
C315 C316 1.374 . S
C316 H290 0.936 1_565 S
C316 C312 1.385 . S
C316 C315 1.374 . S
C317 C314 1.499 . S
C317 C318 1.373 . S
C317 C319 1.389 . S
C318 H291 0.950 . S
C318 C304 1.377 . S
C318 C317 1.373 . S
C319 C303 1.377 . S
C319 C317 1.389 . S
C319 C320 1.524 . S
C320 C319 1.524 . S
C320 C321 1.397 1_565 S
C320 C325 1.363 . S
C321 H292 0.950 . S
C321 C320 1.397 1_545 S
C321 C322 1.334 . S
C322 H293 0.950 . S
C322 C321 1.334 . S
C322 C323 1.287 . S
C323 C322 1.287 . S
C323 C324 1.524 1_545 S
C323 H326 0.999 . S
C324 H294 0.950 . S
C324 C323 1.524 1_565 S
C324 C325 1.415 . S
C325 H295 0.950 . S
C325 C320 1.363 . S
C325 C324 1.415 . S
H326 C323 0.999 . S
H327 C308 0.913 . S
H328 C346 0.951 . S
H329 C348 0.951 . S
H330 C350 0.950 . S
H331 C351 0.950 . S
H332 C353 0.950 . S
H333 C356 0.950 . S
H334 C357 0.950 . S
H335 C359 0.950 . S
H336 C360 0.950 . S
H337 C361 0.951 . S
H338 C363 0.951 . S
H339 C365 0.950 . S
H340 C366 0.950 . S
H341 C368 0.950 . S
H342 C371 0.950 . S
H343 C372 0.950 . S
H344 C374 0.950 . S
H345 C375 0.950 . S
C346 H328 0.951 . S
C346 C347 1.366 . S
C346 C348 1.388 . S
C347 C346 1.366 . S
C347 C351 1.385 . S
C348 H329 0.951 . S
C348 C346 1.388 . S
C348 C349 1.366 . S
C349 C348 1.366 . S
C349 C350 1.414 . S
C349 C352 1.499 . S
C350 H330 0.950 . S
C350 C349 1.414 . S
C350 C351 1.374 . S
C351 H331 0.950 . S
C351 C347 1.385 . S
C351 C350 1.374 . S
C352 C349 1.499 . S
C352 C353 1.373 . S
C352 C354 1.389 . S
C353 H332 0.950 . S
C353 C352 1.373 . S
C353 C369 1.377 . S
C354 C352 1.389 . S
C354 C355 1.524 . S
C354 C368 1.377 . S
C355 C354 1.524 . S
C355 C356 1.397 . S
C355 C360 1.363 . S
C356 H333 0.950 . S
C356 C355 1.397 . S
C356 C357 1.334 . S
C357 H334 0.950 . S
C357 C356 1.334 . S
C357 C358 1.287 . S
C358 C357 1.287 . S
C358 C359 1.524 . S
C358 H377 0.913 . S
C359 H335 0.950 . S
C359 C358 1.524 . S
C359 C360 1.415 . S
C360 H336 0.950 . S
C360 C355 1.363 . S
C360 C359 1.415 . S
C361 H337 0.951 . S
C361 C362 1.366 . S
C361 C363 1.388 . S
C362 C361 1.366 . S
C362 C366 1.385 . S
C363 H338 0.951 . S
C363 C361 1.388 . S
C363 C364 1.366 . S
C364 C363 1.366 . S
C364 C365 1.414 . S
C364 C367 1.499 . S
C365 H339 0.950 . S
C365 C364 1.414 . S
C365 C366 1.374 . S
C366 H340 0.950 . S
C366 C362 1.385 . S
C366 C365 1.374 . S
C367 C364 1.499 . S
C367 C368 1.373 . S
C367 C369 1.389 . S
C368 H341 0.950 . S
C368 C354 1.377 . S
C368 C367 1.373 . S
C369 C353 1.377 . S
C369 C367 1.389 . S
C369 C370 1.524 . S
C370 C369 1.524 . S
C370 C371 1.397 . S
C370 C375 1.363 . S
C371 H342 0.950 . S
C371 C370 1.397 . S
C371 C372 1.334 . S
C372 H343 0.950 . S
C372 C371 1.334 . S
C372 C373 1.287 . S
C373 C372 1.287 . S
C373 C374 1.524 . S
C373 H376 0.999 . S
C374 H344 0.950 . S
C374 C373 1.524 . S
C374 C375 1.415 . S
C375 H345 0.950 . S
C375 C370 1.363 . S
C375 C374 1.415 . S
H376 C373 0.999 . S
H377 C358 0.913 . S
H378 C396 0.951 . S
H379 C398 0.951 . S
H380 C400 0.950 . S
H381 C401 0.950 . S
H382 C403 0.950 . S
H383 C406 0.950 . S
H384 C407 0.950 . S
H385 C409 0.950 . S
H386 C410 0.950 . S
H387 C411 0.951 . S
H388 C413 0.951 . S
H389 C415 0.950 . S
H390 C416 0.950 . S
H391 C418 0.950 . S
H392 C421 0.950 . S
H393 C422 0.950 . S
H394 C424 0.950 . S
H395 C425 0.950 . S
C396 H378 0.951 . S
C396 C397 1.366 . S
C396 C398 1.388 . S
C397 C396 1.366 . S
C397 C401 1.385 . S
C398 H379 0.951 . S
C398 C396 1.388 . S
C398 C399 1.366 . S
C399 C398 1.366 . S
C399 C400 1.414 . S
C399 C402 1.499 . S
C400 H380 0.950 . S
C400 C399 1.414 . S
C400 C401 1.374 . S
C401 H381 0.950 . S
C401 C397 1.385 . S
C401 C400 1.374 . S
C402 C399 1.499 . S
C402 C403 1.373 . S
C402 C404 1.389 . S
C403 H382 0.950 . S
C403 C402 1.373 . S
C403 C419 1.377 . S
C404 C402 1.389 . S
C404 C405 1.524 . S
C404 C418 1.377 . S
C405 C404 1.524 . S
C405 C406 1.397 . S
C405 C410 1.363 . S
C406 H383 0.950 . S
C406 C405 1.397 . S
C406 C407 1.334 . S
C407 H384 0.950 . S
C407 C406 1.334 . S
C407 C408 1.287 . S
C408 C407 1.287 . S
C408 C409 1.524 . S
C408 H427 0.913 . S
C409 H385 0.950 . S
C409 C408 1.524 . S
C409 C410 1.415 . S
C410 H386 0.950 . S
C410 C405 1.363 . S
C410 C409 1.415 . S
C411 H387 0.951 . S
C411 C412 1.366 . S
C411 C413 1.388 . S
C412 C411 1.366 . S
C412 C416 1.385 . S
C413 H388 0.951 . S
C413 C411 1.388 . S
C413 C414 1.366 . S
C414 C413 1.366 . S
C414 C415 1.414 . S
C414 C417 1.499 . S
C415 H389 0.950 . S
C415 C414 1.414 . S
C415 C416 1.374 . S
C416 H390 0.950 . S
C416 C412 1.385 . S
C416 C415 1.374 . S
C417 C414 1.499 . S
C417 C418 1.373 . S
C417 C419 1.389 . S
C418 H391 0.950 . S
C418 C404 1.377 . S
C418 C417 1.373 . S
C419 C403 1.377 . S
C419 C417 1.389 . S
C419 C420 1.524 . S
C420 C419 1.524 . S
C420 C421 1.397 . S
C420 C425 1.363 . S
C421 H392 0.950 . S
C421 C420 1.397 . S
C421 C422 1.334 1_655 S
C422 H393 0.950 . S
C422 C421 1.334 1_455 S
C422 C423 1.287 . S
C423 C422 1.287 . S
C423 C424 1.524 . S
C423 H426 0.999 . S
C424 H394 0.950 . S
C424 C423 1.524 . S
C424 C425 1.415 1_455 S
C425 H395 0.950 . S
C425 C420 1.363 . S
C425 C424 1.415 1_655 S
H426 C423 0.999 . S
H427 C408 0.913 . S
H428 C446 0.951 . S
H429 C448 0.951 . S
H430 C450 0.950 . S
H431 C451 0.950 . S
H432 C453 0.950 . S
H433 C456 0.950 . S
H434 C457 0.950 . S
H435 C459 0.950 . S
H436 C460 0.950 . S
H437 C461 0.951 . S
H438 C463 0.951 . S
H439 C465 0.950 . S
H440 C466 0.950 . S
H441 C468 0.950 . S
H442 C471 0.950 . S
H443 C472 0.950 . S
H444 C474 0.950 . S
H445 C475 0.950 . S
C446 H428 0.951 . S
C446 C447 1.366 . S
C446 C448 1.388 . S
C447 C446 1.366 . S
C447 C451 1.385 . S
C448 H429 0.951 . S
C448 C446 1.388 . S
C448 C449 1.366 . S
C449 C448 1.366 . S
C449 C450 1.414 . S
C449 C452 1.499 . S
C450 H430 0.950 . S
C450 C449 1.414 . S
C450 C451 1.374 . S
C451 H431 0.950 . S
C451 C447 1.385 . S
C451 C450 1.374 . S
C452 C449 1.499 . S
C452 C453 1.373 . S
C452 C454 1.389 . S
C453 H432 0.950 . S
C453 C452 1.373 . S
C453 C469 1.377 . S
C454 C452 1.389 . S
C454 C455 1.524 . S
C454 C468 1.377 . S
C455 C454 1.524 . S
C455 C456 1.397 . S
C455 C460 1.363 . S
C456 H433 0.950 . S
C456 C455 1.397 . S
C456 C457 1.334 . S
C457 H434 0.950 . S
C457 C456 1.334 . S
C457 C458 1.287 . S
C458 C457 1.287 . S
C458 C459 1.524 . S
C458 H477 0.913 . S
C459 H435 0.950 . S
C459 C458 1.524 . S
C459 C460 1.415 . S
C460 H436 0.950 . S
C460 C455 1.363 . S
C460 C459 1.415 . S
C461 H437 0.951 . S
C461 C462 1.366 . S
C461 C463 1.388 . S
C462 C461 1.366 . S
C462 C466 1.385 . S
C463 H438 0.951 . S
C463 C461 1.388 . S
C463 C464 1.366 . S
C464 C463 1.366 . S
C464 C465 1.414 . S
C464 C467 1.499 . S
C465 H439 0.950 . S
C465 C464 1.414 . S
C465 C466 1.374 . S
C466 H440 0.950 . S
C466 C462 1.385 . S
C466 C465 1.374 . S
C467 C464 1.499 . S
C467 C468 1.373 . S
C467 C469 1.389 . S
C468 H441 0.950 . S
C468 C454 1.377 . S
C468 C467 1.373 . S
C469 C453 1.377 . S
C469 C467 1.389 . S
C469 C470 1.524 . S
C470 C469 1.524 . S
C470 C471 1.397 . S
C470 C475 1.363 . S
C471 H442 0.950 . S
C471 C470 1.397 . S
C471 C472 1.334 . S
C472 H443 0.950 . S
C472 C471 1.334 . S
C472 C473 1.287 . S
C473 C472 1.287 . S
C473 C474 1.524 . S
C473 H476 0.999 . S
C474 H444 0.950 . S
C474 C473 1.524 . S
C474 C475 1.415 . S
C475 H445 0.950 . S
C475 C470 1.363 . S
C475 C474 1.415 . S
H476 C473 0.999 . S
H477 C458 0.913 . S
H478 C496 0.951 . S
H479 C498 0.951 . S
H480 C500 0.950 . S
H481 C501 0.950 . S
H482 C503 0.950 . S
H483 C506 0.950 . S
H484 C507 0.950 . S
H485 C509 0.950 . S
H486 C510 0.950 . S
H487 C511 0.951 . S
H488 C513 0.951 . S
H489 C515 0.950 . S
H490 C516 0.950 . S
H491 C518 0.950 . S
H492 C521 0.950 . S
H493 C522 0.950 . S
H494 C524 0.950 . S
H495 C525 0.950 . S
C496 H478 0.951 . S
C496 C497 1.366 . S
C496 C498 1.388 . S
C497 C496 1.366 . S
C497 C501 1.385 . S
C498 H479 0.951 . S
C498 C496 1.388 . S
C498 C499 1.366 . S
C499 C498 1.366 . S
C499 C500 1.414 . S
C499 C502 1.499 . S
C500 H480 0.950 . S
C500 C499 1.414 . S
C500 C501 1.374 . S
C501 H481 0.950 . S
C501 C497 1.385 . S
C501 C500 1.374 . S
C502 C499 1.499 . S
C502 C503 1.373 . S
C502 C504 1.389 . S
C503 H482 0.950 . S
C503 C502 1.373 . S
C503 C519 1.377 . S
C504 C502 1.389 . S
C504 C505 1.524 . S
C504 C518 1.377 . S
C505 C504 1.524 . S
C505 C506 1.397 . S
C505 C510 1.363 . S
C506 H483 0.950 . S
C506 C505 1.397 . S
C506 C507 1.334 . S
C507 H484 0.950 . S
C507 C506 1.334 . S
C507 C508 1.287 . S
C508 C507 1.287 . S
C508 C509 1.524 . S
C508 H527 0.913 . S
C509 H485 0.950 . S
C509 C508 1.524 . S
C509 C510 1.415 . S
C510 H486 0.950 . S
C510 C505 1.363 . S
C510 C509 1.415 . S
C511 H487 0.951 . S
C511 C512 1.366 . S
C511 C513 1.388 . S
C512 C511 1.366 . S
C512 C516 1.385 . S
C513 H488 0.951 . S
C513 C511 1.388 . S
C513 C514 1.366 . S
C514 C513 1.366 . S
C514 C515 1.414 . S
C514 C517 1.499 . S
C515 H489 0.950 . S
C515 C514 1.414 . S
C515 C516 1.374 . S
C516 H490 0.950 . S
C516 C512 1.385 . S
C516 C515 1.374 . S
C517 C514 1.499 . S
C517 C518 1.373 . S
C517 C519 1.389 . S
C518 H491 0.950 . S
C518 C504 1.377 . S
C518 C517 1.373 . S
C519 C503 1.377 . S
C519 C517 1.389 . S
C519 C520 1.524 . S
C520 C519 1.524 . S
C520 C521 1.397 . S
C520 C525 1.363 . S
C521 H492 0.950 . S
C521 C520 1.397 . S
C521 C522 1.334 . S
C522 H493 0.950 . S
C522 C521 1.334 . S
C522 C523 1.287 . S
C523 C522 1.287 . S
C523 C524 1.524 . S
C523 H526 0.999 . S
C524 H494 0.950 . S
C524 C523 1.524 . S
C524 C525 1.415 . S
C525 H495 0.950 . S
C525 C520 1.363 . S
C525 C524 1.415 . S
H526 C523 0.999 . S
H527 C508 0.913 . S
H528 C546 0.951 . S
H529 C548 0.951 . S
H530 C550 0.950 . S
H531 C551 0.950 . S
H532 C553 0.950 . S
H533 C556 0.950 . S
H534 C557 0.950 . S
H535 C559 0.950 . S
H536 C560 0.950 . S
H537 C561 0.951 . S
H538 C563 0.951 . S
H539 C565 0.950 . S
H540 C566 0.950 . S
H541 C568 0.950 . S
H542 C571 0.950 . S
H543 C572 0.950 . S
H544 C574 0.950 . S
H545 C575 0.951 . S
C546 H528 0.951 . S
C546 C547 1.366 . S
C546 C548 1.388 . S
C547 C546 1.366 . S
C547 C551 1.385 . S
C548 H529 0.951 . S
C548 C546 1.388 . S
C548 C549 1.366 . S
C549 C548 1.366 . S
C549 C550 1.414 . S
C549 C552 1.499 . S
C550 H530 0.950 . S
C550 C549 1.414 . S
C550 C551 1.374 . S
C551 H531 0.950 . S
C551 C547 1.385 . S
C551 C550 1.374 . S
C552 C549 1.499 . S
C552 C553 1.373 . S
C552 C554 1.389 . S
C553 H532 0.950 . S
C553 C552 1.373 . S
C553 C569 1.377 . S
C554 C552 1.389 . S
C554 C555 1.524 . S
C554 C568 1.377 . S
C555 C554 1.524 . S
C555 C556 1.397 . S
C555 C560 1.363 . S
C556 H533 0.950 . S
C556 C555 1.397 . S
C556 C557 1.334 . S
C557 H534 0.950 . S
C557 C556 1.334 . S
C557 C558 1.287 . S
C558 C557 1.287 . S
C558 C559 1.524 . S
C558 H577 0.913 . S
C559 H535 0.950 . S
C559 C558 1.524 . S
C559 C560 1.415 . S
C560 H536 0.950 . S
C560 C555 1.363 . S
C560 C559 1.415 . S
C561 H537 0.951 . S
C561 C562 1.366 . S
C561 C563 1.388 . S
C562 C561 1.366 . S
C562 C566 1.385 . S
C563 H538 0.951 . S
C563 C561 1.388 . S
C563 C564 1.366 . S
C564 C563 1.366 . S
C564 C565 1.414 . S
C564 C567 1.499 . S
C565 H539 0.950 . S
C565 C564 1.414 . S
C565 C566 1.374 . S
C566 H540 0.950 . S
C566 C562 1.385 . S
C566 C565 1.374 . S
C567 C564 1.499 . S
C567 C568 1.373 . S
C567 C569 1.389 . S
C568 H541 0.950 . S
C568 C554 1.377 . S
C568 C567 1.373 . S
C569 C553 1.377 . S
C569 C567 1.389 . S
C569 C570 1.524 . S
C570 C569 1.524 . S
C570 C571 1.397 . S
C570 C575 1.344 1_545 S
C571 H542 0.950 . S
C571 C570 1.397 . S
C571 C572 1.334 . S
C572 H543 0.950 . S
C572 C571 1.334 . S
C572 C573 1.287 1_545 S
C573 C572 1.287 1_565 S
C573 C574 1.524 . S
C573 H576 0.999 . S
C574 H544 0.950 . S
C574 C573 1.524 . S
C574 C575 1.433 . S
C575 H545 0.951 . S
C575 C570 1.344 1_565 S
C575 C574 1.433 . S
H576 C573 0.999 . S
H577 C558 0.913 . S
H578 C596 0.951 . S
H579 C598 0.951 . S
H580 C600 0.950 . S
H581 C601 0.950 . S
H582 C603 0.950 . S
H583 C606 0.950 . S
H584 C607 0.950 . S
H585 C609 0.950 . S
H586 C610 0.950 . S
H587 C611 0.951 . S
H588 C613 0.951 . S
H589 C615 0.950 . S
H590 C616 0.950 . S
H591 C618 0.950 . S
H592 C621 0.950 . S
H593 C622 0.950 . S
H594 C624 0.950 . S
H595 C625 0.950 . S
C596 H578 0.951 . S
C596 C597 1.366 . S
C596 C598 1.388 . S
C597 C596 1.366 . S
C597 C601 1.385 . S
C598 H579 0.951 . S
C598 C596 1.388 . S
C598 C599 1.366 . S
C599 C598 1.366 . S
C599 C600 1.414 . S
C599 C602 1.499 . S
C600 H580 0.950 . S
C600 C599 1.414 . S
C600 C601 1.374 . S
C601 H581 0.950 . S
C601 C597 1.385 . S
C601 C600 1.374 . S
C602 C599 1.499 . S
C602 C603 1.373 . S
C602 C604 1.389 . S
C603 H582 0.950 . S
C603 C602 1.373 . S
C603 C619 1.377 . S
C604 C602 1.389 . S
C604 C605 1.524 . S
C604 C618 1.377 . S
C605 C604 1.524 . S
C605 C606 1.397 . S
C605 C610 1.363 . S
C606 H583 0.950 . S
C606 C605 1.397 . S
C606 C607 1.334 . S
C607 H584 0.950 . S
C607 C606 1.334 . S
C607 C608 1.287 . S
C608 C607 1.287 . S
C608 C609 1.524 . S
C608 H627 0.913 . S
C609 H585 0.950 . S
C609 C608 1.524 . S
C609 C610 1.415 . S
C610 H586 0.950 . S
C610 C605 1.363 . S
C610 C609 1.415 . S
C611 H587 0.951 . S
C611 C612 1.366 . S
C611 C613 1.388 . S
C612 C611 1.366 . S
C612 C616 1.385 . S
C613 H588 0.951 . S
C613 C611 1.388 . S
C613 C614 1.366 . S
C614 C613 1.366 . S
C614 C615 1.414 . S
C614 C617 1.499 . S
C615 H589 0.950 . S
C615 C614 1.414 . S
C615 C616 1.374 . S
C616 H590 0.950 . S
C616 C612 1.385 . S
C616 C615 1.374 . S
C617 C614 1.499 . S
C617 C618 1.373 . S
C617 C619 1.389 . S
C618 H591 0.950 . S
C618 C604 1.377 . S
C618 C617 1.373 . S
C619 C603 1.377 . S
C619 C617 1.389 . S
C619 C620 1.524 . S
C620 C619 1.524 . S
C620 C621 1.397 . S
C620 C625 1.363 . S
C621 H592 0.950 . S
C621 C620 1.397 . S
C621 C622 1.334 . S
C622 H593 0.950 . S
C622 C621 1.334 . S
C622 C623 1.287 . S
C623 C622 1.287 . S
C623 C624 1.524 . S
C623 H626 0.999 . S
C624 H594 0.950 . S
C624 C623 1.524 . S
C624 C625 1.415 . S
C625 H595 0.950 . S
C625 C620 1.363 . S
C625 C624 1.415 . S
H626 C623 0.999 . S
H627 C608 0.913 . S
H628 C646 0.951 1_554 S
H629 C648 0.951 . S
H630 C650 0.950 . S
H631 C651 0.950 . S
H632 C653 0.950 . S
H633 C656 0.950 . S
H634 C657 0.950 1_554 S
H635 C659 0.950 . S
H636 C660 0.950 . S
H637 C661 0.951 . S
H638 C663 0.951 . S
H639 C665 0.950 1_545 S
H640 C666 0.950 . S
H641 C668 0.950 . S
H642 C671 0.950 . S
H643 C672 0.950 . S
H644 C674 0.950 . S
H645 C675 0.950 . S
C646 H628 0.951 1_556 S
C646 C647 1.361 1_556 S
C646 C648 1.388 . S
C647 C646 1.361 1_554 S
C647 C651 1.376 1_554 S
C648 H629 0.951 . S
C648 C646 1.388 . S
C648 C649 1.366 . S
C649 C648 1.366 . S
C649 C650 1.414 . S
C649 C652 1.499 . S
C650 H630 0.950 . S
C650 C649 1.414 . S
C650 C651 1.374 . S
C651 H631 0.950 . S
C651 C647 1.376 1_556 S
C651 C650 1.374 . S
C652 C649 1.499 . S
C652 C653 1.373 . S
C652 C654 1.389 . S
C653 H632 0.950 . S
C653 C652 1.373 . S
C653 C669 1.377 . S
C654 C652 1.389 . S
C654 C655 1.524 . S
C654 C668 1.377 . S
C655 C654 1.524 . S
C655 C656 1.397 . S
C655 C660 1.363 1_565 S
C656 H633 0.950 . S
C656 C655 1.397 . S
C656 C657 1.334 . S
C657 H634 0.950 1_556 S
C657 C656 1.334 . S
C657 C658 1.287 1_565 S
C658 C657 1.287 1_545 S
C658 C659 1.524 . S
C658 H677 0.913 1_556 S
C659 H635 0.950 . S
C659 C658 1.524 . S
C659 C660 1.415 . S
C660 H636 0.950 . S
C660 C655 1.363 1_545 S
C660 C659 1.415 . S
C661 H637 0.951 . S
C661 C662 1.366 . S
C661 C663 1.388 . S
C662 C661 1.366 . S
C662 C666 1.385 1_565 S
C663 H638 0.951 . S
C663 C661 1.388 . S
C663 C664 1.366 . S
C664 C663 1.366 . S
C664 C665 1.414 . S
C664 C667 1.499 . S
C665 H639 0.950 1_565 S
C665 C664 1.414 . S
C665 C666 1.374 1_565 S
C666 H640 0.950 . S
C666 C662 1.385 1_545 S
C666 C665 1.374 1_545 S
C667 C664 1.499 . S
C667 C668 1.373 . S
C667 C669 1.389 . S
C668 H641 0.950 . S
C668 C654 1.377 . S
C668 C667 1.373 . S
C669 C653 1.377 . S
C669 C667 1.389 . S
C669 C670 1.524 . S
C670 C669 1.524 . S
C670 C671 1.397 . S
C670 C675 1.363 . S
C671 H642 0.950 . S
C671 C670 1.397 . S
C671 C672 1.334 . S
C672 H643 0.950 . S
C672 C671 1.334 . S
C672 C673 1.287 . S
C673 C672 1.287 . S
C673 C674 1.524 . S
C673 H676 0.999 . S
C674 H644 0.950 . S
C674 C673 1.524 . S
C674 C675 1.415 . S
C675 H645 0.950 . S
C675 C670 1.363 . S
C675 C674 1.415 . S
H676 C673 0.999 . S
H677 C658 0.913 1_554 S
C112 C51 1.242 . S
C97 C34 1.423 . S
C147 C7 1.429 . S
C162 C75 1.241 . S
C197 C16 1.597 . S
C212 C54 1.381 . S
C247 C25 1.596 . S
C262 C72 1.382 . S
C312 C52 1.473 . S
C297 C5 1.510 . S
C362 C74 1.488 . S
C347 C13 1.546 . S
C397 C23 1.537 . S
C412 C53 1.476 . S
C447 C32 1.505 . S
C462 C73 1.451 . S
C512 C71 1.474 . S
C497 C14 1.535 . S
C562 C50 1.486 . S
C547 C22 1.543 . S
C612 C70 1.471 . S
C597 C31 1.504 . S
C647 C4 1.521 . S
C662 C49 1.449 . S
