# Generated by pormake.
# Topology zzz, (3,6)-cn, num edge types: 1
# Building blocks:
#     Node 0, Type 0, BuildingBlock: MIDCAF_clean_linker_0, # of connection points: 3
#     Node 1, Type 0, BuildingBlock: MIDCAF_clean_linker_0, # of connection points: 3
#     Node 2, Type 0, BuildingBlock: MIDCAF_clean_linker_0, # of connection points: 3
#     Node 3, Type 0, BuildingBlock: MIDCAF_clean_linker_0, # of connection points: 3
#     Node 4, Type 0, BuildingBlock: MIDCAF_clean_linker_0, # of connection points: 3
#     Node 5, Type 0, BuildingBlock: MIDCAF_clean_linker_0, # of connection points: 3
#     Node 6, Type 0, BuildingBlock: MIDCAF_clean_linker_0, # of connection points: 3
#     Node 7, Type 0, BuildingBlock: MIDCAF_clean_linker_0, # of connection points: 3
#     Node 8, Type 1, BuildingBlock: BETDIP_clean_sbu_0, # of connection points: 6
#     Node 9, Type 1, BuildingBlock: BETDIP_clean_sbu_0, # of connection points: 6
#     Node 10, Type 1, BuildingBlock: BETDIP_clean_sbu_0, # of connection points: 6
#     Node 11, Type 1, BuildingBlock: BETDIP_clean_sbu_0, # of connection points: 6
#     Edge 12, Type (0, 1), BuildingBlock: CIFDUS_clean_linker_0, # of connection points: 2
#     Edge 13, Type (0, 1), BuildingBlock: CIFDUS_clean_linker_0, # of connection points: 2
#     Edge 14, Type (0, 1), BuildingBlock: CIFDUS_clean_linker_0, # of connection points: 2
#     Edge 15, Type (0, 1), BuildingBlock: CIFDUS_clean_linker_0, # of connection points: 2
#     Edge 16, Type (0, 1), BuildingBlock: CIFDUS_clean_linker_0, # of connection points: 2
#     Edge 17, Type (0, 1), BuildingBlock: CIFDUS_clean_linker_0, # of connection points: 2
#     Edge 18, Type (0, 1), BuildingBlock: CIFDUS_clean_linker_0, # of connection points: 2
#     Edge 19, Type (0, 1), BuildingBlock: CIFDUS_clean_linker_0, # of connection points: 2
#     Edge 20, Type (0, 1), BuildingBlock: CIFDUS_clean_linker_0, # of connection points: 2
#     Edge 21, Type (0, 1), BuildingBlock: CIFDUS_clean_linker_0, # of connection points: 2
#     Edge 22, Type (0, 1), BuildingBlock: CIFDUS_clean_linker_0, # of connection points: 2
#     Edge 23, Type (0, 1), BuildingBlock: CIFDUS_clean_linker_0, # of connection points: 2
#     Edge 24, Type (0, 1), BuildingBlock: CIFDUS_clean_linker_0, # of connection points: 2
#     Edge 25, Type (0, 1), BuildingBlock: CIFDUS_clean_linker_0, # of connection points: 2
#     Edge 26, Type (0, 1), BuildingBlock: CIFDUS_clean_linker_0, # of connection points: 2
#     Edge 27, Type (0, 1), BuildingBlock: CIFDUS_clean_linker_0, # of connection points: 2
#     Edge 28, Type (0, 1), BuildingBlock: CIFDUS_clean_linker_0, # of connection points: 2
#     Edge 29, Type (0, 1), BuildingBlock: CIFDUS_clean_linker_0, # of connection points: 2
#     Edge 30, Type (0, 1), BuildingBlock: CIFDUS_clean_linker_0, # of connection points: 2
#     Edge 31, Type (0, 1), BuildingBlock: CIFDUS_clean_linker_0, # of connection points: 2
#     Edge 32, Type (0, 1), BuildingBlock: CIFDUS_clean_linker_0, # of connection points: 2
#     Edge 33, Type (0, 1), BuildingBlock: CIFDUS_clean_linker_0, # of connection points: 2
#     Edge 34, Type (0, 1), BuildingBlock: CIFDUS_clean_linker_0, # of connection points: 2
#     Edge 35, Type (0, 1), BuildingBlock: CIFDUS_clean_linker_0, # of connection points: 2
# Relax obj value: 0.466
# Max RMSD: 0.263
# Mean RMSD: 0.243
data_MOF--net-zzz--node1-BETDIP_clean_sbu_0--node2-MIDCAF_clean_linker_0--edge1-CIFDUS_clean_linker_0
_symmetry_space_group_name_H-M    P1
_symmetry_Int_Tables_number       1
_symmetry_cell_setting            triclinic
loop_
_symmetry_equiv_pos_as_xyz
'x, y, z'
_cell_length_a     52.671715
_cell_length_b     52.78122
_cell_length_c     16.63539
_cell_angle_alpha  89.920445
_cell_angle_beta   90.046846
_cell_angle_gamma 89.959355
loop_
_atom_site_label
_atom_site_type_symbol
_atom_site_fract_x
_atom_site_fract_y
_atom_site_fract_z
_atom_type_partial_charge
C0 C 0.81102 0.52587 0.46835 0.0
C1 C 0.81886 0.51156 0.53579 0.0
C2 C 0.80315 0.49154 0.56129 0.0
C3 C 0.78134 0.48498 0.51802 0.0
H4 H 0.71117 0.53456 0.26419 0.0
H5 H 0.67672 0.55021 0.17754 0.0
H6 H 0.64603 0.47444 0.16369 0.0
H7 H 0.6796 0.45925 0.25069 0.0
H8 H 0.73347 0.42524 0.17473 0.0
H9 H 0.76104 0.3997 0.08995 0.0
H10 H 0.81611 0.39588 0.28236 0.0
H11 H 0.78836 0.42034 0.36738 0.0
H12 H 0.78437 0.52957 0.37053 0.0
H13 H 0.82242 0.54159 0.44726 0.0
H14 H 0.80851 0.47977 0.61189 0.0
H15 H 0.77078 0.46833 0.5363 0.0
N16 N 0.73599 0.49751 0.35739 0.0
N17 N 0.72803 0.4606 0.28164 0.0
N18 N 0.76277 0.46193 0.36823 0.0
C19 C 0.72114 0.48443 0.30369 0.0
C20 C 0.74881 0.44924 0.31322 0.0
C21 C 0.75669 0.48581 0.391 0.0
C22 C 0.69832 0.49562 0.26395 0.0
C23 C 0.69665 0.52146 0.24418 0.0
C24 C 0.67703 0.53034 0.19373 0.0
C25 C 0.65854 0.5136 0.1626 0.0
C26 C 0.65957 0.48808 0.18663 0.0
C27 C 0.67908 0.47927 0.2363 0.0
C28 C 0.7594 0.42601 0.27623 0.0
C29 C 0.75095 0.41799 0.20017 0.0
C30 C 0.76682 0.40335 0.15137 0.0
C31 C 0.79138 0.39686 0.17768 0.0
C32 C 0.79759 0.40087 0.25898 0.0
C33 C 0.78169 0.41528 0.30786 0.0
C34 C 0.7743 0.49831 0.44831 0.0
C35 C 0.78893 0.51934 0.42515 0.0
C36 C 0.0145 0.81124 0.46172 0.0
C37 C 0.03258 0.82107 0.51614 0.0
C38 C 0.05576 0.80811 0.52468 0.0
C39 C 0.06138 0.78707 0.47686 0.0
H40 H 1.00472 0.71909 0.19407 0.0
H41 H 0.99127 0.68186 0.11592 0.0
H42 H 0.05785 0.64143 0.19738 0.0
H43 H 0.07092 0.67832 0.27453 0.0
H44 H 0.10189 0.73799 0.11041 0.0
H45 H 0.12738 0.76346 0.01871 0.0
H46 H 0.14271 0.81637 0.21076 0.0
H47 H 0.11809 0.79073 0.30222 0.0
H48 H 1.00646 0.78369 0.36951 0.0
H49 H 0.99633 0.82054 0.45405 0.0
H50 H 0.07032 0.81511 0.56491 0.0
H51 H 0.08007 0.77859 0.48169 0.0
N52 N 0.04039 0.7398 0.33003 0.0
N53 N 0.07288 0.73192 0.23562 0.0
N54 N 0.07562 0.76702 0.32011 0.0
C55 C 0.05063 0.72502 0.27052 0.0
C56 C 0.08543 0.75295 0.25971 0.0
C57 C 0.05335 0.76078 0.35577 0.0
C58 C 0.0386 0.70138 0.24152 0.0
C59 C 0.01586 0.70186 0.19735 0.0
C60 C 1.00842 0.68067 0.15166 0.0
C61 C 0.0235 0.65856 0.14989 0.0
C62 C 0.04551 0.65785 0.19785 0.0
C63 C 0.05302 0.679 0.24242 0.0
C64 C 0.10711 0.76293 0.21278 0.0
C65 C 0.11154 0.75452 0.13383 0.0
C66 C 0.12613 0.76916 0.0811 0.0
C67 C 0.13638 0.79242 0.10649 0.0
C68 C 0.13502 0.7987 0.18854 0.0
C69 C 0.12055 0.78408 0.24113 0.0
C70 C 0.04395 0.77808 0.41957 0.0
C71 C 0.02009 0.78987 0.41415 0.0
C72 C 0.71508 0.99776 0.45068 0.0
C73 C 0.70562 0.01424 0.51048 0.0
C74 C 0.71941 0.03646 0.52697 0.0
C75 C 0.74089 0.04283 0.48197 0.0
H76 H 0.81255 0.98817 0.23361 0.0
H77 H 0.84821 0.97251 0.15214 0.0
H78 H 0.8807 0.04764 0.15073 0.0
H79 H 0.84569 0.06288 0.23193 0.0
H80 H 0.78881 0.09266 0.12507 0.0
H81 H 0.76203 0.1182 0.03717 0.0
H82 H 0.70828 0.12782 0.231 0.0
H83 H 0.73524 0.10323 0.31882 0.0
H84 H 0.74267 0.99196 0.35669 0.0
H85 H 0.70518 0.98033 0.43676 0.0
H86 H 0.71275 0.04988 0.57138 0.0
H87 H 0.74996 0.06092 0.49299 0.0
N88 N 0.78798 0.02629 0.32958 0.0
N89 N 0.7954 0.06108 0.24353 0.0
N90 N 0.76024 0.06127 0.32837 0.0
C91 C 0.80273 0.03817 0.27297 0.0
C92 C 0.77416 0.07271 0.27055 0.0
C93 C 0.7668 0.03831 0.35848 0.0
C94 C 0.82624 0.02677 0.23899 0.0
C95 C 0.82774 1.00106 0.21772 0.0
C96 C 0.84804 0.9922 0.17027 0.0
C97 C 0.86738 1.00882 0.14408 0.0
C98 C 0.86648 0.03413 0.17007 0.0
C99 C 0.84623 0.04295 0.21645 0.0
C100 C 0.76355 0.09497 0.22788 0.0
C101 C 0.77179 0.10111 0.14987 0.0
C102 C 0.75639 0.11572 0.09929 0.0
C103 C 0.73251 0.12422 0.12588 0.0
C104 C 0.72638 0.12144 0.20773 0.0
C105 C 0.74178 0.10698 0.25823 0.0
C106 C 0.74947 0.02717 0.41935 0.0
C107 C 0.73684 1.00414 0.40569 0.0
C108 C 0.40622 0.72384 0.14257 0.0
C109 C 0.40578 0.73144 0.06143 0.0
C110 C 0.41488 0.75572 0.04162 0.0
C111 C 0.4272 0.77049 0.09951 0.0
H112 H 0.45545 0.84712 0.25082 0.0
H113 H 0.46705 0.88537 0.17836 0.0
H114 H 0.54138 0.85398 0.13159 0.0
H115 H 0.52932 0.81524 0.20449 0.0
H116 H 0.53013 0.75192 0.36556 0.0
H117 H 0.54397 0.7147 0.44308 0.0
H118 H 0.46628 0.701 0.51405 0.0
H119 H 0.45287 0.73804 0.43886 0.0
H120 H 0.42013 0.73112 0.26069 0.0
H121 H 0.39951 0.70532 0.16073 0.0
H122 H 0.4143 0.76244 0.9801 0.0
H123 H 0.43595 0.78809 0.08075 0.0
N124 N 0.46071 0.7949 0.21493 0.0
N125 N 0.49171 0.78832 0.31542 0.0
N126 N 0.45984 0.758 0.29187 0.0
C127 C 0.48126 0.80325 0.25653 0.0
C128 C 0.48046 0.76566 0.33413 0.0
C129 C 0.44997 0.77226 0.2319 0.0
C130 C 0.49157 0.82834 0.23397 0.0
C131 C 0.4746 0.84877 0.22755 0.0
C132 C 0.4813 0.87075 0.18582 0.0
C133 C 0.50513 0.87284 0.14831 0.0
C134 C 0.52276 0.85294 0.15896 0.0
C135 C 0.51606 0.83091 0.20171 0.0
C136 C 0.49043 0.74792 0.39607 0.0
C137 C 0.51626 0.74143 0.40023 0.0
C138 C 0.52408 0.71987 0.44375 0.0
C139 C 0.50623 0.7045 0.48437 0.0
C140 C 0.4807 0.71229 0.48458 0.0
C141 C 0.47295 0.73359 0.44103 0.0
C142 C 0.43055 0.7612 0.17811 0.0
C143 C 0.41841 0.73857 0.20021 0.0
C144 C 0.21493 0.51583 0.01189 0.0
C145 C 0.2088 0.50384 0.9387 0.0
C146 C 0.22689 0.48736 0.90476 0.0
C147 C 0.24933 0.48133 0.94619 0.0
H148 H 0.34699 0.43932 0.17644 0.0
H149 H 0.38394 0.44522 0.26235 0.0
H150 H 0.36169 0.52267 0.30534 0.0
H151 H 0.32431 0.51672 0.21783 0.0
H152 H 0.28405 0.42066 0.31309 0.0
H153 H 0.25273 0.40427 0.40682 0.0
H154 H 0.1963 0.40642 0.21707 0.0
H155 H 0.22779 0.42042 0.12427 0.0
H156 H 0.24051 0.51768 0.11246 0.0
H157 H 0.20168 0.52889 0.03947 0.0
H158 H 0.22287 0.47755 0.84907 0.0
H159 H 0.26159 0.4667 0.92214 0.0
N160 N 0.29423 0.4852 0.10387 0.0
N161 N 0.29592 0.44977 0.19065 0.0
N162 N 0.26028 0.45633 0.11032 0.0
C163 C 0.30714 0.47078 0.15917 0.0
C164 C 0.2725 0.44245 0.16669 0.0
C165 C 0.27074 0.47743 0.07835 0.0
C166 C 0.33269 0.47752 0.19049 0.0
C167 C 0.35039 0.4579 0.20189 0.0
C168 C 0.37152 0.46124 0.25146 0.0
C169 C 0.37555 0.48428 0.29166 0.0
C170 C 0.35913 0.50473 0.27491 0.0
C171 C 0.3378 0.50136 0.2246 0.0
C172 C 0.25794 0.42331 0.21253 0.0
C173 C 0.26516 0.41652 0.29097 0.0
C174 C 0.24697 0.40745 0.34518 0.0
C175 C 0.22121 0.40587 0.32227 0.0
C176 C 0.21546 0.40803 0.23965 0.0
C177 C 0.23369 0.41644 0.18542 0.0
C178 C 0.25452 0.4919 0.02194 0.0
C179 C 0.2375 0.50989 0.05299 0.0
C180 C 1.01151 0.21714 0.9968 0.0
C181 C 0.01902 0.19519 0.03918 0.0
C182 C 0.02096 0.19679 0.12359 0.0
C183 C 0.0142 0.21901 0.16439 0.0
H184 H 0.95675 0.34079 0.24876 0.0
H185 H 0.96685 0.37917 0.32188 0.0
H186 H 0.04203 0.35033 0.37132 0.0
H187 H 0.03157 0.31125 0.29754 0.0
H188 H 0.92574 0.28382 0.36633 0.0
H189 H 0.89546 0.25856 0.443 0.0
H190 H 0.89318 0.20373 0.25045 0.0
H191 H 0.92285 0.229 0.1739 0.0
H192 H 0.99716 0.25528 1.00411 0.0
H193 H 1.01009 0.21692 0.93189 0.0
H194 H 0.02618 0.18038 0.15902 0.0
H195 H 0.0141 0.2189 0.22954 0.0
N196 N 0.99965 0.28216 0.19169 0.0
N197 N 0.96069 0.29051 0.25633 0.0
N198 N 0.96632 0.25249 0.18728 0.0
C199 C 0.98453 0.29803 0.23605 0.0
C200 C 0.95144 0.26784 0.2322 0.0
C201 C 0.99017 0.25938 0.16621 0.0
C202 C 0.99336 0.32294 0.26713 0.0
C203 C 0.97565 0.34277 0.27376 0.0
C204 C 0.98151 0.36492 0.31562 0.0
C205 C 1.00527 0.36799 0.35294 0.0
C206 C 0.02347 0.34855 0.34388 0.0
C207 C 0.01763 0.3263 0.3008 0.0
C208 C 0.92739 0.25786 0.26538 0.0
C209 C 0.91795 0.2669 0.33901 0.0
C210 C 0.9006 0.25242 0.38307 0.0
C211 C 0.89246 0.22876 0.35403 0.0
C212 C 0.89905 0.22177 0.27517 0.0
C213 C 0.9164 0.23615 0.23139 0.0
C214 C 1.00543 0.24035 0.12229 0.0
C215 C 1.00463 0.23939 0.03795 0.0
C216 C 0.30982 1.00949 0.01758 0.0
C217 C 0.32297 0.02601 0.96537 0.0
C218 C 0.31157 0.04935 0.94613 0.0
C219 C 0.28884 0.05681 0.98292 0.0
H220 H 0.17685 0.08112 0.18053 0.0
H221 H 0.13849 0.07021 0.25442 0.0
H222 H 0.16788 0.99488 0.29519 0.0
H223 H 0.20627 1.00585 0.21871 0.0
H224 H 0.23754 0.09402 0.35075 0.0
H225 H 0.26772 0.10155 0.45865 0.0
H226 H 0.3257 0.11867 0.28357 0.0
H227 H 0.29563 0.11147 0.17606 0.0
H228 H 0.27815 1.00454 0.09796 0.0
H229 H 0.31789 0.99126 0.03325 0.0
H230 H 0.32112 0.0627 0.90701 0.0
H231 H 0.2817 0.07575 0.97163 0.0
N232 N 0.235 0.04237 0.11352 0.0
N233 N 0.22894 0.07416 0.21123 0.0
N234 N 0.26654 0.07302 0.13764 0.0
C235 C 0.21994 0.05387 0.17001 0.0
C236 C 0.25225 0.08377 0.19594 0.0
C237 C 0.25827 0.05259 0.09592 0.0
C238 C 0.1945 0.0443 0.1934 0.0
C239 C 0.17474 0.06194 0.20292 0.0
C240 C 0.15288 0.05577 0.24632 0.0
C241 C 0.15025 0.03185 0.28268 0.0
C242 C 0.16919 0.01349 0.26803 0.0
C243 C 0.19114 0.01967 0.22374 0.0
C244 C 0.26472 0.10065 0.25489 0.0
C245 C 0.25632 0.10076 0.33515 0.0
C246 C 0.27363 0.10511 0.3973 0.0
C247 C 0.29936 0.10935 0.37943 0.0
C248 C 0.30614 0.11484 0.29955 0.0
C249 C 0.28888 0.11047 0.23749 0.0
C250 C 0.27656 0.04101 0.03885 0.0
C251 C 0.2868 0.01687 0.05368 0.0
C252 C 0.62324 0.30383 0.30224 0.0
C253 C 0.62413 0.29696 0.38399 0.0
C254 C 0.61507 0.27287 0.40634 0.0
C255 C 0.60202 0.25782 0.3508 0.0
H256 H 0.56634 0.18247 0.23604 0.0
H257 H 0.5502 0.14711 0.31441 0.0
H258 H 0.47687 0.18356 0.32801 0.0
H259 H 0.49339 0.21933 0.24877 0.0
H260 H 0.49654 0.27915 0.09554 0.0
H261 H 0.48365 0.31653 0.01736 0.0
H262 H 0.5612 0.32642 0.93866 0.0
H263 H 0.57359 0.28912 0.01401 0.0
H264 H 0.60828 0.29578 0.18597 0.0
H265 H 0.62998 0.32212 0.28194 0.0
H266 H 0.61614 0.26659 0.46825 0.0
H267 H 0.59317 0.24052 0.37181 0.0
N268 N 0.5652 0.23447 0.24393 0.0
N269 N 0.53317 0.24207 0.14748 0.0
N270 N 0.56767 0.27 0.16112 0.0
C271 C 0.54339 0.22717 0.20686 0.0
C272 C 0.54585 0.26341 0.12331 0.0
C273 C 0.57738 0.25592 0.22176 0.0
C274 C 0.53111 0.20362 0.23608 0.0
C275 C 0.54654 0.18259 0.25368 0.0
C276 C 0.53722 0.16225 0.29857 0.0
C277 C 0.51224 0.16245 0.3282 0.0
C278 C 0.49628 0.18288 0.30672 0.0
C279 C 0.5056 0.20322 0.26055 0.0
C280 C 0.53608 0.28122 0.0612 0.0
C281 C 0.51054 0.28883 0.05904 0.0
C282 C 0.50329 0.3105 0.01512 0.0
C283 C 0.52143 0.3249 0.97226 0.0
C284 C 0.54655 0.31594 0.96991 0.0
C285 C 0.55373 0.29448 0.01365 0.0
C286 C 0.598 0.26659 0.27193 0.0
C287 C 0.61042 0.28876 0.24684 0.0
Tb288 Tb 0.0348 1.00779 0.78624 0.0
Tb289 Tb 0.99538 0.02001 0.67633 0.0
C290 C 0.06392 0.98752 0.88769 0.0
C291 C 0.07878 0.96405 0.888 0.0
C292 C 0.0811 0.94944 0.81792 0.0
C293 C 0.09362 0.92611 0.82022 0.0
C294 C 0.10419 0.91718 0.89252 0.0
C295 C 0.10271 0.93246 0.96169 0.0
C296 C 0.09003 0.95568 0.95941 0.0
C297 C 0.052 0.02748 0.65031 0.0
C298 C 0.01489 0.96526 0.66454 0.0
C299 C 0.96627 0.03961 0.57364 0.0
C300 C 0.94857 0.061 0.57449 0.0
C301 C 0.93792 0.06942 0.50226 0.0
C302 C 0.92307 0.09131 0.50079 0.0
C303 C 0.91868 0.10519 0.57171 0.0
C304 C 0.92843 0.09591 0.64482 0.0
C305 C 0.94327 0.07394 0.64618 0.0
C306 C 0.97801 1.00212 0.81601 0.0
C307 C 0.0155 0.06305 0.79642 0.0
O308 O 0.03925 0.98465 0.88804 0.0
O309 O 0.07121 1.00461 0.83595 0.0
O310 O 0.03463 1.01112 0.65647 0.0
O311 O 0.06026 0.03294 0.72121 0.0
O312 O 0.02526 0.97001 0.7355 0.0
O313 O 1.00514 0.984 0.62235 0.0
O314 O 0.99027 0.04552 0.58095 0.0
O315 O 0.96 0.02035 0.61869 0.0
O316 O 0.99598 0.01749 0.80571 0.0
O317 O 0.96898 0.99657 0.74605 0.0
O318 O 1.00404 0.05776 0.72749 0.0
O319 O 0.02643 0.04476 0.83823 0.0
H320 H 0.07279 0.95581 0.76188 0.0
H321 H 0.09452 0.91479 0.76602 0.0
H322 H 0.11024 0.92591 0.01866 0.0
H323 H 0.08842 0.96678 0.01393 0.0
H324 H 0.94186 0.0596 0.44648 0.0
H325 H 0.91632 0.09813 0.44318 0.0
H326 H 0.92532 0.1061 0.70042 0.0
H327 H 0.95125 0.06749 0.70267 0.0
Tb328 Tb 0.51894 0.02265 0.7744 0.0
Tb329 Tb 0.5016 0.99121 0.64289 0.0
C330 C 0.54191 0.04226 0.89103 0.0
C331 C 0.56488 0.05781 0.89587 0.0
C332 C 0.57255 0.06776 0.96983 0.0
C333 C 0.59501 0.0817 0.97533 0.0
C334 C 0.61016 0.08576 0.90685 0.0
C335 C 0.60196 0.07636 0.83225 0.0
C336 C 0.57938 0.06262 0.82674 0.0
C337 C 0.505 0.0488 0.64476 0.0
C338 C 0.55957 1.00047 0.64609 0.0
C339 C 0.47473 0.97573 0.52956 0.0
C340 C 0.44873 0.98456 0.51094 0.0
C341 C 0.44511 1.00264 0.45001 0.0
C342 C 0.42267 0.01664 0.44636 0.0
C343 C 0.4033 0.01267 0.50308 0.0
C344 C 0.40596 0.99303 0.55942 0.0
C345 C 0.42849 0.97913 0.5635 0.0
C346 C 0.51753 0.96497 0.76857 0.0
C347 C 0.46187 0.01395 0.76581 0.0
O348 O 0.54536 0.0188 0.86795 0.0
O349 O 0.5227 0.05295 0.85468 0.0
O350 O 0.51708 0.0283 0.64702 0.0
O351 O 0.50154 0.05621 0.7179 0.0
O352 O 0.55535 1.01143 0.7168 0.0
O353 O 0.54054 0.99225 0.60146 0.0
O354 O 0.49245 0.99288 0.52037 0.0
O355 O 0.47754 0.96306 0.5967 0.0
O356 O 0.50432 0.98496 0.77077 0.0
O357 O 0.52105 0.95856 0.6942 0.0
O358 O 0.46703 1.00972 0.68936 0.0
O359 O 0.48064 0.01508 0.81811 0.0
H360 H 0.56147 0.06431 0.02359 0.0
H361 H 0.60106 0.08833 0.03388 0.0
H362 H 0.61322 0.07926 0.77856 0.0
H363 H 0.57347 0.05539 0.76881 0.0
H364 H 0.46027 1.00712 0.40837 0.0
H365 H 0.42077 0.03111 0.40049 0.0
H366 H 0.39128 0.9894 0.60349 0.0
H367 H 0.43057 0.96531 0.61124 0.0
Tb368 Tb 0.49575 0.51749 0.78408 0.0
Tb369 Tb 0.53619 0.51207 0.67236 0.0
C370 C 0.46517 0.53154 0.89113 0.0
C371 C 0.44706 0.55255 0.8953 0.0
C372 C 0.43557 0.5586 0.96851 0.0
C373 C 0.4199 0.57986 0.97433 0.0
C374 C 0.41557 0.59545 0.90688 0.0
C375 C 0.42631 0.58862 0.83266 0.0
C376 C 0.44194 0.56731 0.82692 0.0
C377 C 0.47974 0.50421 0.63866 0.0
C378 C 0.51423 0.56605 0.68456 0.0
C379 C 0.56635 0.49802 0.56392 0.0
C380 C 0.58435 0.47696 0.55691 0.0
C381 C 0.59519 0.4714 0.48227 0.0
C382 C 0.61057 0.45004 0.47333 0.0
C383 C 0.61531 0.43385 0.53906 0.0
C384 C 0.60529 0.44023 0.61477 0.0
C385 C 0.58989 0.46161 0.62358 0.0
C386 C 0.55216 0.52447 0.81943 0.0
C387 C 0.51753 0.46354 0.77215 0.0
O388 O 0.48913 0.53804 0.88993 0.0
O389 O 0.45995 0.51424 0.83771 0.0
O390 O 0.49673 0.52035 0.65422 0.0
O391 O 0.47119 0.49536 0.70566 0.0
O392 O 0.50318 0.55741 0.75059 0.0
O393 O 0.52575 0.55019 0.63556 0.0
O394 O 0.54239 0.4916 0.56615 0.0
O395 O 0.57193 0.51501 0.61798 0.0
O396 O 0.53496 0.50889 0.80171 0.0
O397 O 0.56137 0.5332 0.75305 0.0
O398 O 0.5285 0.47207 0.70573 0.0
O399 O 0.50645 0.47956 0.82164 0.0
H400 H 0.43934 0.54735 0.02174 0.0
H401 H 0.41231 0.58483 0.03272 0.0
H402 H 0.42325 0.60017 0.77965 0.0
H403 H 0.45057 0.56273 0.76964 0.0
H404 H 0.59106 0.4831 0.43029 0.0
H405 H 0.61758 0.44549 0.41389 0.0
H406 H 0.60872 0.42827 0.66662 0.0
H407 H 0.58175 0.46577 0.68189 0.0
Tb408 Tb 1.00321 0.50323 0.81741 0.0
Tb409 Tb 0.02385 0.52723 0.67424 0.0
C410 C 0.97789 0.49058 0.93834 0.0
C411 C 0.95408 0.476 0.94709 0.0
C412 C 0.93104 0.48878 0.95925 0.0
C413 C 0.9083 0.47534 0.964 0.0
C414 C 0.90807 0.44878 0.95716 0.0
C415 C 0.93113 0.43592 0.94586 0.0
C416 C 0.95392 0.44939 0.9408 0.0
C417 C 0.01804 0.47042 0.70581 0.0
C418 C 0.96494 0.52101 0.67738 0.0
C419 C 0.04964 0.53267 0.54914 0.0
C420 C 0.06722 0.51394 0.51345 0.0
C421 C 0.05793 0.49085 0.48326 0.0
C422 C 0.07444 0.4711 0.46434 0.0
C423 C 0.10081 0.47421 0.47223 0.0
C424 C 0.11016 0.49793 0.4977 0.0
C425 C 0.09354 0.51747 0.51882 0.0
C426 C 1.00936 0.56038 0.78516 0.0
C427 C 0.06092 0.50945 0.81254 0.0
O428 O 0.9759 0.51284 0.90387 0.0
O429 O 0.99771 0.47799 0.91291 0.0
O430 O 1.00686 0.49118 0.69459 0.0
O431 O 0.01979 0.46671 0.78236 0.0
O432 O 0.96786 0.51262 0.75197 0.0
O433 O 0.98477 0.52669 0.63244 0.0
O434 O 0.02566 0.5264 0.54859 0.0
O435 O 0.0565 0.54211 0.61851 0.0
O436 O 0.02009 0.53938 0.79699 0.0
O437 O 1.00885 0.56448 0.70829 0.0
O438 O 0.05721 0.50983 0.73382 0.0
O439 O 0.04121 0.51152 0.86102 0.0
H440 H 0.93057 0.50922 0.96493 0.0
H441 H 0.89092 0.48578 0.97476 0.0
H442 H 0.93154 0.41548 0.94052 0.0
H443 H 0.97135 0.43891 0.93153 0.0
H444 H 0.03778 0.48765 0.47657 0.0
H445 H 0.06636 0.45322 0.44537 0.0
H446 H 0.13036 0.50148 0.50181 0.0
H447 H 0.10126 0.53511 0.54137 0.0
H448 H 0.13225 0.06422 0.39616 0.0
H449 H 0.12104 0.98882 0.30331 0.0
H450 H 0.0878 0.98131 0.40384 0.0
H451 H 0.0631 0.99579 0.52341 0.0
H452 H 0.07667 0.07067 0.61717 0.0
H453 H 0.10714 0.07901 0.50991 0.0
C454 C 0.12227 0.04626 0.39662 0.0
C455 C 0.12913 0.0272 0.3414 0.0
C456 C 0.10339 0.04204 0.4549 0.0
C457 C 0.11633 1.00382 0.34506 0.0
C458 C 0.09721 0.99956 0.40243 0.0
C459 C 0.0724 0.01406 0.51911 0.0
C460 C 0.06746 0.03274 0.57768 0.0
C461 C 0.09067 0.01847 0.45827 0.0
C462 C 0.08005 0.05611 0.57256 0.0
C463 C 0.09758 0.06084 0.51146 0.0
H464 H 0.52154 0.11137 0.32531 0.0
H465 H 0.48532 0.16941 0.46719 0.0
H466 H 0.47797 0.13891 0.57522 0.0
H467 H 0.48569 0.09672 0.63534 0.0
H468 H 0.52265 0.03903 0.49416 0.0
H469 H 0.5259 0.0683 0.38069 0.0
C470 C 0.51186 0.11732 0.37961 0.0
C471 C 0.50419 0.1428 0.38796 0.0
C472 C 0.50807 0.09974 0.44231 0.0
C473 C 0.49126 0.14996 0.45841 0.0
C474 C 0.48727 0.13255 0.52076 0.0
C475 C 0.4942 0.09051 0.5794 0.0
C476 C 0.50418 0.06581 0.57361 0.0
C477 C 0.49616 0.10755 0.51427 0.0
C478 C 0.51495 0.05796 0.50047 0.0
C479 C 0.51687 0.07473 0.43551 0.0
H480 H 0.41431 0.51868 0.31986 0.0
H481 H 0.37855 0.45169 0.41616 0.0
H482 H 0.40818 0.45133 0.52848 0.0
H483 H 0.44358 0.47017 0.6018 0.0
H484 H 0.48086 0.53655 0.50819 0.0
H485 H 0.45178 0.53687 0.39247 0.0
C486 C 0.41309 0.50407 0.36557 0.0
C487 C 0.39424 0.48516 0.35927 0.0
C488 C 0.43059 0.50376 0.43037 0.0
C489 C 0.39298 0.46628 0.41891 0.0
C490 C 0.40991 0.46607 0.48341 0.0
C491 C 0.44549 0.48462 0.55575 0.0
C492 C 0.46432 0.50332 0.56376 0.0
C493 C 0.42874 0.48468 0.48988 0.0
C494 C 0.4666 0.52185 0.50334 0.0
C495 C 0.44985 0.52211 0.4374 0.0
H496 H 0.02894 0.37022 0.49993 0.0
H497 H 0.99174 0.41727 0.32315 0.0
H498 H 0.993 0.45319 0.41523 0.0
H499 H 1.00143 0.47047 0.55036 0.0
H500 H 0.03991 0.42409 0.72566 0.0
H501 H 0.04136 0.38888 0.63026 0.0
C502 C 0.02159 0.38844 0.48078 0.0
C503 C 1.00991 0.39077 0.40476 0.0
C504 C 0.0223 0.40917 0.53438 0.0
C505 C 1.00036 0.41464 0.3817 0.0
C506 C 1.0011 0.43528 0.43438 0.0
C507 C 1.0105 0.45278 0.56715 0.0
C508 C 0.02054 0.44994 0.64505 0.0
C509 C 1.01144 0.43262 0.51162 0.0
C510 C 0.03198 0.42679 0.66615 0.0
C511 C 0.03284 0.40662 0.61153 0.0
H512 H 0.91784 0.02185 0.13841 0.0
H513 H 0.8611 0.97828 0.01242 0.0
H514 H 0.89109 0.97028 0.90359 0.0
H515 H 0.93205 0.97922 0.83729 0.0
H516 H 0.98828 0.02392 0.96113 0.0
H517 H 0.95997 0.02796 0.0769 0.0
C518 C 0.91203 1.01048 0.08739 0.0
C519 C 0.88703 1.00087 0.0839 0.0
C520 C 0.92928 1.00634 0.02391 0.0
C521 C 0.88017 0.98576 0.01767 0.0
C522 C 0.89729 0.98137 0.95477 0.0
C523 C 0.93824 0.98955 0.89007 0.0
C524 C 0.96221 1.00144 0.89013 0.0
C525 C 0.92169 0.99206 0.95627 0.0
C526 C 0.96994 0.01467 0.95922 0.0
C527 C 0.95369 0.01706 0.02544 0.0
H528 H 0.52859 0.87134 1.00196 0.0
H529 H 0.49227 0.92301 0.1665 0.0
H530 H 0.49398 0.95661 0.06546 0.0
H531 H 0.5027 0.97044 0.92574 0.0
H532 H 0.53942 0.91852 0.76296 0.0
H533 H 0.54102 0.88626 0.86794 0.0
C534 C 0.5216 0.89009 0.01668 0.0
C535 C 0.5101 0.89442 0.09188 0.0
C536 C 0.52251 0.90936 0.95802 0.0
C537 C 0.50086 0.9189 0.10886 0.0
C538 C 0.50186 0.9382 0.05102 0.0
C539 C 0.51129 0.95216 0.91368 0.0
C540 C 0.52065 0.94682 0.83623 0.0
C541 C 0.51208 0.9335 0.9746 0.0
C542 C 0.53187 0.92308 0.82174 0.0
C543 C 0.53279 0.90457 0.88182 0.0
H544 H 0.60877 0.49866 0.14506 0.0
H545 H 0.66565 0.5468 0.03751 0.0
H546 H 0.63699 0.55618 0.92614 0.0
H547 H 0.59721 0.54777 0.85238 0.0
H548 H 0.54107 0.49825 0.95667 0.0
H549 H 0.56798 0.49225 0.07523 0.0
C550 C 0.61496 0.51125 0.09741 0.0
C551 C 0.6396 0.52183 0.10015 0.0
C552 C 0.59851 0.51616 0.03218 0.0
C553 C 0.64685 0.53854 0.03821 0.0
C554 C 0.6305 0.54374 0.97376 0.0
C555 C 0.59073 0.53589 0.90148 0.0
C556 C 0.56718 0.52334 0.89526 0.0
C557 C 0.6065 0.53226 0.96917 0.0
C558 C 0.5591 0.50807 0.95963 0.0
C559 C 0.57454 0.50458 0.02744 0.0
H560 H 1.00705 0.6606 0.99355 0.0
H561 H 0.02746 0.60763 0.18053 0.0
H562 H 0.02385 0.57255 0.08569 0.0
H563 H 0.01765 0.557 0.94705 0.0
H564 H 0.99696 0.60992 0.76046 0.0
H565 H 0.99754 0.64465 0.85753 0.0
C566 C 1.0102 0.64135 0.01411 0.0
C567 C 0.01775 0.63694 0.09433 0.0
C568 C 1.00821 0.62115 0.95891 0.0
C569 C 0.02202 0.61176 0.11909 0.0
C570 C 0.01991 0.59161 0.06482 0.0
C571 C 0.01306 0.5761 0.92784 0.0
C572 C 1.00751 0.58085 0.84633 0.0
C573 C 0.01353 0.5961 0.98414 0.0
C574 C 1.00144 0.60571 0.82263 0.0
C575 C 1.0018 0.62563 0.87819 0.0
H576 H 0.9099 0.21952 0.50408 0.0
H577 H 0.85593 0.19227 0.32919 0.0
H578 H 0.85517 0.15099 0.39588 0.0
H579 H 0.87803 0.12055 0.48193 0.0
H580 H 0.93466 0.14796 0.64812 0.0
H581 H 0.92537 0.19138 0.6091 0.0
C582 C 0.89702 0.20502 0.48244 0.0
C583 C 0.88355 0.20875 0.41028 0.0
C584 C 0.89755 0.18109 0.51892 0.0
C585 C 0.86696 0.18966 0.38356 0.0
C586 C 0.86666 0.16599 0.42137 0.0
C587 C 0.88789 0.1361 0.51087 0.0
C588 C 0.90748 0.13095 0.56619 0.0
C589 C 0.88325 0.16105 0.48553 0.0
C590 C 0.91958 0.15128 0.60506 0.0
C591 C 0.91446 0.17618 0.58214 0.0
H592 H 0.29797 0.06542 0.46141 0.0
H593 H 0.34614 0.12984 0.41445 0.0
H594 H 0.38316 0.1056 0.45974 0.0
H595 H 0.40224 0.06391 0.48784 0.0
H596 H 0.35371 0.99895 0.5225 0.0
H597 H 0.31625 0.02578 0.5082 0.0
C598 C 0.31635 0.07463 0.46423 0.0
C599 C 0.31933 0.09937 0.43386 0.0
C600 C 0.33755 0.06021 0.48614 0.0
C601 C 0.34341 0.11078 0.4371 0.0
C602 C 0.36458 0.09683 0.46207 0.0
C603 C 0.38343 0.05568 0.49254 0.0
C604 C 0.38071 0.02939 0.50408 0.0
C605 C 0.36199 0.07111 0.48222 0.0
C606 C 0.3563 0.01908 0.51295 0.0
C607 C 0.33488 0.03441 0.50459 0.0
H608 H 0.65834 0.33617 0.37923 0.0
H609 H 0.59942 0.30343 0.5271 0.0
H610 H 0.59562 0.3427 0.60124 0.0
H611 H 0.60097 0.38855 0.60075 0.0
H612 H 0.65679 0.4229 0.44533 0.0
H613 H 0.66932 0.38108 0.39647 0.0
C614 C 0.64499 0.33747 0.42866 0.0
C615 C 0.6287 0.31697 0.44545 0.0
C616 C 0.64171 0.36073 0.4682 0.0
C617 C 0.61224 0.31873 0.51195 0.0
C618 C 0.60971 0.34143 0.55393 0.0
C619 C 0.61653 0.38692 0.55839 0.0
C620 C 0.62754 0.40886 0.52545 0.0
C621 C 0.62314 0.36293 0.52905 0.0
C622 C 0.64758 0.40631 0.47019 0.0
C623 C 0.65478 0.3824 0.44233 0.0
H624 H 0.17051 0.39263 0.30973 0.0
H625 H 0.22408 0.42639 0.47538 0.0
H626 H 0.18967 0.44641 0.54658 0.0
H627 H 0.14638 0.46298 0.54249 0.0
H628 H 0.09517 0.43738 0.35636 0.0
H629 H 0.12642 0.40659 0.31212 0.0
C630 C 0.17491 0.40449 0.36094 0.0
C631 C 0.20039 0.40895 0.38297 0.0
C632 C 0.15526 0.41833 0.39708 0.0
C633 C 0.20503 0.42265 0.45439 0.0
C634 C 0.18524 0.43468 0.49499 0.0
C635 C 0.142 0.45082 0.4919 0.0
C636 C 0.11856 0.45317 0.45181 0.0
C637 C 0.16064 0.43418 0.46316 0.0
C638 C 0.11295 0.43625 0.38882 0.0
C639 C 0.13094 0.41863 0.3629 0.0
H640 H 0.11123 0.80267 0.96823 0.0
H641 H 0.17402 0.82859 0.11323 0.0
H642 H 0.17233 0.86986 0.04665 0.0
H643 H 0.14679 0.90072 0.96992 0.0
H644 H 0.08273 0.87449 0.83126 0.0
H645 H 0.09176 0.83098 0.87054 0.0
C646 C 0.12535 0.81685 0.9831 0.0
C647 C 0.14227 0.81274 0.04737 0.0
C648 C 0.12372 0.84071 0.94652 0.0
C649 C 0.16037 0.83149 0.06537 0.0
C650 C 0.15932 0.85514 0.02761 0.0
C651 C 0.13517 0.88537 0.94703 0.0
C652 C 0.1138 0.89086 0.8993 0.0
C653 C 0.14001 0.8604 0.97189 0.0
C654 C 0.09925 0.87081 0.86829 0.0
C655 C 0.10427 0.8459 0.89131 0.0
H656 H 0.7241 0.10038 0.98425 0.0
H657 H 0.69345 0.15886 0.13733 0.0
H658 H 0.65225 0.15479 0.071 0.0
H659 H 0.62333 0.12799 0.99122 0.0
H660 H 0.65445 0.06846 0.84344 0.0
H661 H 0.69727 0.08019 0.88422 0.0
C662 C 0.70885 0.11312 1.00107 0.0
C663 C 0.71172 0.12939 0.06748 0.0
C664 C 0.68509 0.11012 0.96447 0.0
C665 C 0.69157 0.14568 0.08784 0.0
C666 C 0.66796 0.14327 0.05021 0.0
C667 C 0.63957 0.11799 0.96674 0.0
C668 C 0.63574 0.09706 0.91587 0.0
C669 C 0.66416 0.12441 0.99212 0.0
C670 C 0.65688 0.08458 0.88293 0.0
C671 C 0.68139 0.09116 0.9067 0.0
H672 H 0.37086 0.69301 0.06016 0.0
H673 H 0.43184 0.72552 0.92064 0.0
H674 H 0.43612 0.6864 0.84564 0.0
H675 H 0.43055 0.64051 0.84532 0.0
H676 H 0.37272 0.60643 0.9937 0.0
H677 H 0.35959 0.64832 0.04042 0.0
C678 C 0.38471 0.6917 0.01214 0.0
C679 C 0.4015 0.71199 0.99818 0.0
C680 C 0.38823 0.66853 0.97243 0.0
C681 C 0.41868 0.71031 0.93356 0.0
C682 C 0.42146 0.6877 0.89117 0.0
C683 C 0.41444 0.64225 0.88553 0.0
C684 C 0.403 0.62038 0.91745 0.0
C685 C 0.40755 0.66626 0.91395 0.0
C686 C 0.38222 0.623 0.96979 0.0
C687 C 0.3747 0.64694 0.99645 0.0
H688 H 0.79662 0.42055 0.03409 0.0
H689 H 0.83408 0.36666 0.18963 0.0
H690 H 0.8745 0.37552 0.12335 0.0
H691 H 0.89992 0.40583 0.04441 0.0
H692 H 0.86191 0.46028 0.89234 0.0
H693 H 0.82078 0.44363 0.93382 0.0
C694 C 0.81328 0.40978 0.05154 0.0
C695 C 0.81238 0.39353 0.11873 0.0
C696 C 0.83651 0.41563 0.01522 0.0
C697 C 0.83434 0.37981 0.1396 0.0
C698 C 0.85751 0.385 0.10205 0.0
C699 C 0.88266 0.41351 0.01835 0.0
C700 C 0.8839 0.43476 0.96728 0.0
C701 C 0.85903 0.4041 0.04349 0.0
C702 C 0.86138 0.44442 0.93373 0.0
C703 C 0.83788 0.43485 0.95715 0.0
H704 H 0.99362 0.17591 0.90796 0.0
H705 H 0.05367 0.15777 0.07539 0.0
H706 H 0.05764 0.11571 0.01642 0.0
H707 H 0.04338 0.08329 0.91967 0.0
H708 H 0.98495 0.10217 0.74778 0.0
H709 H 0.98144 0.14458 0.80517 0.0
C710 C 1.00795 0.16303 0.93084 0.0
C711 C 0.02313 0.17027 0.99708 0.0
C712 C 1.01041 0.13877 0.89586 0.0
C713 C 0.04128 0.15284 0.02588 0.0
C714 C 0.04369 0.12869 0.9918 0.0
C715 C 0.02991 0.09669 0.89457 0.0
C716 C 0.01433 0.08931 0.82967 0.0
C717 C 0.02816 0.1213 0.92741 0.0
C718 C 0.99718 0.10714 0.79766 0.0
C719 C 0.99513 0.13149 0.8306 0.0
H720 H 0.3441 0.03399 0.81625 0.0
H721 H 0.36203 1.0058 0.05313 0.0
H722 H 0.40629 0.99997 0.01369 0.0
H723 H 0.44061 1.00406 0.91294 0.0
H724 H 0.42249 0.03151 0.67554 0.0
H725 H 0.37801 0.03656 0.71399 0.0
C726 C 0.35766 0.0265 0.85924 0.0
C727 C 0.34951 0.02032 0.93771 0.0
C728 C 0.38326 0.02323 0.83614 0.0
C729 C 0.36747 1.0104 0.99207 0.0
C730 C 0.39294 1.00727 0.96976 0.0
C731 C 0.42693 1.01125 0.86983 0.0
C732 C 0.43496 0.01742 0.7914 0.0
C733 C 0.40116 0.01385 0.89222 0.0
C734 C 0.41686 0.02642 0.73605 0.0
C735 C 0.39137 0.0294 0.75812 0.0
H736 H 0.5395 0.34687 0.8332 0.0
H737 H 0.48967 0.3611 0.03421 0.0
H738 H 0.48328 0.40446 0.98816 0.0
H739 H 0.49401 0.43942 0.89663 0.0
H740 H 0.54479 0.42593 0.69773 0.0
H741 H 0.54894 0.38154 0.73808 0.0
C742 C 0.52722 0.3594 0.86708 0.0
C743 C 0.51516 0.35044 0.93752 0.0
C744 C 0.52402 0.38468 0.84119 0.0
C745 C 0.49894 0.36706 0.97929 0.0
C746 C 0.49548 0.39208 0.95347 0.0
C747 C 0.50594 0.42679 0.86179 0.0
C748 C 0.51919 0.43619 0.7944 0.0
C749 C 0.50826 0.40124 0.88538 0.0
C750 C 0.53439 0.41936 0.74988 0.0
C751 C 0.53678 0.39391 0.773 0.0
H752 H 0.16288 0.50509 0.01527 0.0
H753 H 0.19607 0.5079 0.77847 0.0
H754 H 0.15366 0.50927 0.71831 0.0
H755 H 0.10679 0.50939 0.7328 0.0
H756 H 0.07422 0.50674 0.97078 0.0
H757 H 0.11653 0.50577 0.02989 0.0
C758 C 0.16094 0.50643 0.95052 0.0
C759 C 0.18287 0.50654 0.90181 0.0
C760 C 0.13644 0.50709 0.91618 0.0
C761 C 0.17969 0.50765 0.81777 0.0
C762 C 0.15537 0.50848 0.7832 0.0
C763 C 0.10893 0.50852 0.79759 0.0
C764 C 0.08712 0.50808 0.84699 0.0
C765 C 0.13355 0.50806 0.83175 0.0
C766 C 0.09046 0.50706 0.93091 0.0
C767 C 0.11475 0.50655 0.96501 0.0
H768 H 1.0109 0.86451 0.45788 0.0
H769 H 0.04572 0.83358 0.67134 0.0
H770 H 0.04346 0.87503 0.7363 0.0
H771 H 0.0329 0.92079 0.73111 0.0
H772 H 0.99765 0.95101 0.51698 0.0
H773 H 0.99863 0.90934 0.45489 0.0
C774 C 0.01756 0.86663 0.51918 0.0
C775 C 0.02851 0.84574 0.5592 0.0
C776 C 0.01632 0.89062 0.55631 0.0
C777 C 0.03745 0.84924 0.63833 0.0
C778 C 0.03614 0.87301 0.67576 0.0
C779 C 0.02536 0.91826 0.671 0.0
C780 C 0.01529 0.93926 0.62906 0.0
C781 C 0.02591 0.89398 0.63502 0.0
C782 C 1.00557 0.9354 0.5511 0.0
C783 C 1.00609 0.91147 0.51524 0.0
H784 H 0.66176 0.99499 0.4456 0.0
H785 H 0.69261 0.02381 0.66779 0.0
H786 H 0.65064 0.02191 0.72957 0.0
H787 H 0.60451 0.01393 0.71908 0.0
H788 H 0.57417 0.98409 0.49739 0.0
H789 H 0.61643 0.98416 0.4382 0.0
C790 C 0.65952 1.00035 0.50807 0.0
C791 C 0.68055 1.00974 0.55132 0.0
C792 C 0.63521 0.99915 0.54367 0.0
C793 C 0.67687 0.01692 0.63211 0.0
C794 C 0.6528 0.01576 0.66781 0.0
C795 C 0.60713 1.00726 0.65802 0.0
C796 C 0.58593 0.99912 0.613 0.0
C797 C 0.6317 1.00729 0.62384 0.0
C798 C 0.58993 0.9905 0.5339 0.0
C799 C 0.61419 0.99055 0.49968 0.0
H800 H 0.48843 0.68184 0.62237 0.0
H801 H 0.53965 0.66961 0.42367 0.0
H802 H 0.54747 0.62644 0.46983 0.0
H803 H 0.53758 0.59099 0.56089 0.0
H804 H 0.48567 0.60278 0.75797 0.0
H805 H 0.48006 0.64692 0.71735 0.0
C806 C 0.50135 0.66979 0.58908 0.0
C807 C 0.51334 0.67921 0.5192 0.0
C808 C 0.50543 0.64466 0.61515 0.0
C809 C 0.53037 0.66325 0.47812 0.0
C810 C 0.53466 0.63835 0.50403 0.0
C811 C 0.52511 0.6032 0.59528 0.0
C812 C 0.51195 0.59335 0.66221 0.0
C813 C 0.52196 0.62869 0.57159 0.0
C814 C 0.49603 0.60967 0.70617 0.0
C815 C 0.49279 0.635 0.6829 0.0
H816 H 0.86452 0.52397 0.46632 0.0
H817 H 0.83037 0.50842 0.69689 0.0
H818 H 0.87203 0.51013 0.76094 0.0
H819 H 0.91868 0.51422 0.75121 0.0
H820 H 0.9525 0.53081 0.52075 0.0
H821 H 0.91066 0.53088 0.45808 0.0
C822 C 0.86602 0.52146 0.53084 0.0
C823 C 0.84407 0.51586 0.57615 0.0
C824 C 0.89018 0.52253 0.56771 0.0
C825 C 0.84678 0.51233 0.65976 0.0
C826 C 0.87069 0.51339 0.69673 0.0
C827 C 0.91693 0.518 0.68735 0.0
C828 C 0.93896 0.52239 0.64107 0.0
C829 C 0.89262 0.51809 0.65119 0.0
C830 C 0.93608 0.52735 0.55833 0.0
C831 C 0.91206 0.52737 0.52214 0.0
loop_
_geom_bond_atom_site_label_1
_geom_bond_atom_site_label_2
_geom_bond_distance
_geom_bond_site_symmetry_2
_ccdc_geom_bond_type
C0 C1 1.384 . S
C0 H13 0.947 . S
C0 C35 1.382 . S
C1 C0 1.384 . S
C1 C2 1.378 . S
C2 C1 1.378 . S
C2 C3 1.378 . S
C2 H14 0.952 . S
C3 C2 1.378 . S
C3 H15 0.950 . S
C3 C34 1.383 . S
H4 C23 0.947 . S
H5 C24 0.946 . S
H6 C26 0.953 . S
H7 C27 0.945 . S
H8 C29 0.952 . S
H9 C30 0.949 . S
H10 C32 0.950 . S
H11 C33 0.948 . S
H12 C35 0.951 . S
H13 C0 0.947 . S
H14 C2 0.952 . S
H15 C3 0.950 . S
N16 C19 1.382 . S
N16 C21 1.363 . S
N17 C19 1.371 . S
N17 C20 1.372 . S
N18 C20 1.361 . S
N18 C21 1.377 . S
C19 N16 1.382 . S
C19 N17 1.371 . S
C19 C22 1.480 . S
C20 N17 1.372 . S
C20 N18 1.361 . S
C20 C28 1.457 . S
C21 N16 1.363 . S
C21 N18 1.377 . S
C21 C34 1.479 . S
C22 C19 1.480 . S
C22 C23 1.383 . S
C22 C27 1.385 . S
C23 H4 0.947 . S
C23 C22 1.383 . S
C23 C24 1.388 . S
C24 H5 0.946 . S
C24 C23 1.388 . S
C24 C25 1.384 . S
C25 C24 1.384 . S
C25 C26 1.377 . S
C26 H6 0.953 . S
C26 C25 1.377 . S
C26 C27 1.369 . S
C27 H7 0.945 . S
C27 C22 1.385 . S
C27 C26 1.369 . S
C28 C20 1.457 . S
C28 C29 1.372 . S
C28 C33 1.364 . S
C29 H8 0.952 . S
C29 C28 1.372 . S
C29 C30 1.389 . S
C30 H9 0.949 . S
C30 C29 1.389 . S
C30 C31 1.387 . S
C31 C30 1.387 . S
C31 C32 1.372 . S
C32 H10 0.950 . S
C32 C31 1.372 . S
C32 C33 1.379 . S
C33 H11 0.948 . S
C33 C28 1.364 . S
C33 C32 1.379 . S
C34 C3 1.383 . S
C34 C21 1.479 . S
C34 C35 1.398 . S
C35 C0 1.382 . S
C35 H12 0.951 . S
C35 C34 1.398 . S
C36 C37 1.384 1_655 S
C36 H49 0.948 . S
C36 C71 1.382 1_655 S
C37 C36 1.384 1_455 S
C37 C38 1.378 . S
C38 C37 1.378 . S
C38 C39 1.378 . S
C38 H50 0.952 . S
C39 C38 1.378 . S
C39 H51 0.950 . S
C39 C70 1.383 . S
H40 C59 0.947 . S
H41 C60 0.952 . S
H42 C62 0.953 . S
H43 C63 0.945 . S
H44 C65 0.949 1_655 S
H45 C66 0.956 . S
H46 C68 0.950 . S
H47 C69 0.948 . S
H48 C71 0.951 1_655 S
H49 C36 0.948 . S
H50 C38 0.952 . S
H51 C39 0.950 . S
N52 C55 1.382 . S
N52 C57 1.363 . S
N53 C55 1.371 . S
N53 C56 1.372 . S
N54 C56 1.361 . S
N54 C57 1.377 . S
C55 N52 1.382 . S
C55 N53 1.371 . S
C55 C58 1.480 . S
C56 N53 1.372 . S
C56 N54 1.361 . S
C56 C64 1.457 . S
C57 N52 1.363 . S
C57 N54 1.377 . S
C57 C70 1.479 . S
C58 C55 1.480 . S
C58 C59 1.383 . S
C58 C63 1.385 . S
C59 H40 0.947 . S
C59 C58 1.383 . S
C59 C60 1.386 1_455 S
C60 H41 0.952 . S
C60 C59 1.386 1_655 S
C60 C61 1.381 1_655 S
C61 C60 1.381 1_455 S
C61 C62 1.377 . S
C62 H42 0.953 . S
C62 C61 1.377 . S
C62 C63 1.369 . S
C63 H43 0.945 . S
C63 C58 1.385 . S
C63 C62 1.369 . S
C64 C56 1.457 . S
C64 C65 1.376 . S
C64 C69 1.364 . S
C65 H44 0.949 1_455 S
C65 C64 1.376 . S
C65 C66 1.386 1_455 S
C66 H45 0.956 . S
C66 C65 1.386 1_655 S
C66 C67 1.383 1_655 S
C67 C66 1.383 1_455 S
C67 C68 1.372 . S
C68 H46 0.950 . S
C68 C67 1.372 . S
C68 C69 1.379 . S
C69 H47 0.948 . S
C69 C64 1.364 . S
C69 C68 1.379 . S
C70 C39 1.383 . S
C70 C57 1.479 . S
C70 C71 1.398 . S
C71 C36 1.382 1_455 S
C71 H48 0.951 1_455 S
C71 C70 1.398 . S
C72 C73 1.384 1_565 S
C72 H85 0.948 . S
C72 C107 1.382 1_565 S
C73 C72 1.384 1_545 S
C73 C74 1.378 . S
C74 C73 1.378 . S
C74 C75 1.378 . S
C74 H86 0.952 . S
C75 C74 1.378 . S
C75 H87 0.950 . S
C75 C106 1.383 . S
H76 C95 0.947 . S
H77 C96 0.952 . S
H78 C98 0.953 . S
H79 C99 0.945 . S
H80 C101 0.949 1_565 S
H81 C102 0.957 . S
H82 C104 0.950 . S
H83 C105 0.948 . S
H84 C107 0.951 1_565 S
H85 C72 0.948 . S
H86 C74 0.952 . S
H87 C75 0.950 . S
N88 C91 1.382 . S
N88 C93 1.363 . S
N89 C91 1.371 . S
N89 C92 1.372 . S
N90 C92 1.361 . S
N90 C93 1.377 . S
C91 N88 1.382 . S
C91 N89 1.371 . S
C91 C94 1.480 . S
C92 N89 1.372 . S
C92 N90 1.361 . S
C92 C100 1.457 . S
C93 N88 1.363 . S
C93 N90 1.377 . S
C93 C106 1.479 . S
C94 C91 1.480 . S
C94 C95 1.383 . S
C94 C99 1.385 . S
C95 H76 0.947 . S
C95 C94 1.383 . S
C95 C96 1.386 1_545 S
C96 H77 0.952 . S
C96 C95 1.386 1_565 S
C96 C97 1.382 1_565 S
C97 C96 1.382 1_545 S
C97 C98 1.377 . S
C98 H78 0.953 . S
C98 C97 1.377 . S
C98 C99 1.369 . S
C99 H79 0.945 . S
C99 C94 1.385 . S
C99 C98 1.369 . S
C100 C92 1.457 . S
C100 C101 1.377 . S
C100 C105 1.364 . S
C101 H80 0.949 1_545 S
C101 C100 1.377 . S
C101 C102 1.386 1_545 S
C102 H81 0.957 . S
C102 C101 1.386 1_565 S
C102 C103 1.383 1_565 S
C103 C102 1.383 1_545 S
C103 C104 1.372 . S
C104 H82 0.950 . S
C104 C103 1.372 . S
C104 C105 1.379 . S
C105 H83 0.948 . S
C105 C100 1.364 . S
C105 C104 1.379 . S
C106 C75 1.383 . S
C106 C93 1.479 . S
C106 C107 1.398 . S
C107 C72 1.382 1_545 S
C107 H84 0.951 1_545 S
C107 C106 1.398 . S
C108 C109 1.384 . S
C108 H121 0.947 . S
C108 C143 1.382 . S
C109 C108 1.384 . S
C109 C110 1.378 . S
C110 C109 1.378 . S
C110 C111 1.378 . S
C110 H122 0.952 . S
C111 C110 1.378 . S
C111 H123 0.950 . S
C111 C142 1.383 . S
H112 C131 0.947 . S
H113 C132 0.946 . S
H114 C134 0.953 . S
H115 C135 0.945 . S
H116 C137 0.952 . S
H117 C138 0.949 . S
H118 C140 0.950 . S
H119 C141 0.948 . S
H120 C143 0.951 . S
H121 C108 0.947 . S
H122 C110 0.952 . S
H123 C111 0.950 . S
N124 C127 1.382 . S
N124 C129 1.363 . S
N125 C127 1.371 . S
N125 C128 1.372 . S
N126 C128 1.361 . S
N126 C129 1.377 . S
C127 N124 1.382 . S
C127 N125 1.371 . S
C127 C130 1.480 . S
C128 N125 1.372 . S
C128 N126 1.361 . S
C128 C136 1.457 . S
C129 N124 1.363 . S
C129 N126 1.377 . S
C129 C142 1.479 . S
C130 C127 1.480 . S
C130 C131 1.383 . S
C130 C135 1.385 . S
C131 H112 0.947 . S
C131 C130 1.383 . S
C131 C132 1.388 . S
C132 H113 0.946 . S
C132 C131 1.388 . S
C132 C133 1.384 . S
C133 C132 1.384 . S
C133 C134 1.377 . S
C134 H114 0.953 . S
C134 C133 1.377 . S
C134 C135 1.369 . S
C135 H115 0.945 . S
C135 C130 1.385 . S
C135 C134 1.369 . S
C136 C128 1.457 . S
C136 C137 1.372 . S
C136 C141 1.364 . S
C137 H116 0.952 . S
C137 C136 1.372 . S
C137 C138 1.389 . S
C138 H117 0.949 . S
C138 C137 1.389 . S
C138 C139 1.387 . S
C139 C138 1.387 . S
C139 C140 1.372 . S
C140 H118 0.950 . S
C140 C139 1.372 . S
C140 C141 1.379 . S
C141 H119 0.948 . S
C141 C136 1.364 . S
C141 C140 1.379 . S
C142 C111 1.383 . S
C142 C129 1.479 . S
C142 C143 1.398 . S
C143 C108 1.382 . S
C143 H120 0.951 . S
C143 C142 1.398 . S
C144 C145 1.384 . S
C144 H157 0.947 . S
C144 C179 1.382 . S
C145 C144 1.384 . S
C145 C146 1.378 . S
C146 C145 1.378 . S
C146 C147 1.378 . S
C146 H158 0.952 . S
C147 C146 1.378 . S
C147 H159 0.950 . S
C147 C178 1.383 . S
H148 C167 0.947 1_556 S
H149 C168 0.946 . S
H150 C170 0.953 . S
H151 C171 0.945 . S
H152 C173 0.952 . S
H153 C174 0.949 . S
H154 C176 0.950 . S
H155 C177 0.948 . S
H156 C179 0.951 . S
H157 C144 0.947 . S
H158 C146 0.952 . S
H159 C147 0.950 . S
N160 C163 1.382 1_556 S
N160 C165 1.363 . S
N161 C163 1.371 . S
N161 C164 1.372 . S
N162 C164 1.361 . S
N162 C165 1.377 1_554 S
C163 N160 1.382 1_554 S
C163 N161 1.371 . S
C163 C166 1.480 . S
C164 N161 1.372 . S
C164 N162 1.361 . S
C164 C172 1.457 . S
C165 N160 1.363 . S
C165 N162 1.377 1_556 S
C165 C178 1.479 . S
C166 C163 1.480 . S
C166 C167 1.383 . S
C166 C171 1.385 . S
C167 H148 0.947 1_554 S
C167 C166 1.383 . S
C167 C168 1.388 . S
C168 H149 0.946 . S
C168 C167 1.388 . S
C168 C169 1.384 . S
C169 C168 1.384 . S
C169 C170 1.377 . S
C170 H150 0.953 . S
C170 C169 1.377 . S
C170 C171 1.369 . S
C171 H151 0.945 . S
C171 C166 1.385 . S
C171 C170 1.369 . S
C172 C164 1.457 . S
C172 C173 1.372 . S
C172 C177 1.364 . S
C173 H152 0.952 . S
C173 C172 1.372 . S
C173 C174 1.389 . S
C174 H153 0.949 . S
C174 C173 1.389 . S
C174 C175 1.387 . S
C175 C174 1.387 . S
C175 C176 1.372 . S
C176 H154 0.950 . S
C176 C175 1.372 . S
C176 C177 1.379 . S
C177 H155 0.948 . S
C177 C172 1.364 . S
C177 C176 1.379 . S
C178 C147 1.383 . S
C178 C165 1.479 . S
C178 C179 1.398 . S
C179 C144 1.382 . S
C179 H156 0.951 . S
C179 C178 1.398 . S
C180 C181 1.384 . S
C180 H193 0.948 1_455 S
C180 C215 1.382 . S
C181 C180 1.384 . S
C181 C182 1.378 . S
C182 C181 1.378 . S
C182 C183 1.378 . S
C182 H194 0.952 . S
C183 C182 1.378 . S
C183 H195 0.950 . S
C183 C214 1.383 . S
H184 C203 0.947 1_556 S
H185 C204 0.949 . S
H186 C206 0.953 . S
H187 C207 0.945 . S
H188 C209 0.947 1_655 S
H189 C210 0.954 . S
H190 C212 0.950 . S
H191 C213 0.948 . S
H192 C215 0.950 1_655 S
H193 C180 0.948 1_655 S
H194 C182 0.952 . S
H195 C183 0.950 . S
N196 C199 1.382 1_556 S
N196 C201 1.363 . S
N197 C199 1.371 . S
N197 C200 1.372 . S
N198 C200 1.361 . S
N198 C201 1.377 1_554 S
C199 N196 1.382 1_554 S
C199 N197 1.371 . S
C199 C202 1.480 . S
C200 N197 1.372 . S
C200 N198 1.361 . S
C200 C208 1.457 . S
C201 N196 1.363 . S
C201 N198 1.377 1_556 S
C201 C214 1.479 . S
C202 C199 1.480 . S
C202 C203 1.383 . S
C202 C207 1.385 . S
C203 H184 0.947 1_554 S
C203 C202 1.383 . S
C203 C204 1.387 1_455 S
C204 H185 0.949 . S
C204 C203 1.387 1_655 S
C204 C205 1.382 1_655 S
C205 C204 1.382 1_455 S
C205 C206 1.377 . S
C206 H186 0.953 . S
C206 C205 1.377 . S
C206 C207 1.369 . S
C207 H187 0.945 . S
C207 C202 1.385 . S
C207 C206 1.369 . S
C208 C200 1.457 . S
C208 C209 1.379 . S
C208 C213 1.364 . S
C209 H188 0.947 1_455 S
C209 C208 1.379 . S
C209 C210 1.387 1_455 S
C210 H189 0.954 . S
C210 C209 1.387 1_655 S
C210 C211 1.384 1_655 S
C211 C210 1.384 1_455 S
C211 C212 1.372 . S
C212 H190 0.950 . S
C212 C211 1.372 . S
C212 C213 1.379 . S
C213 H191 0.948 . S
C213 C208 1.364 . S
C213 C212 1.379 . S
C214 C183 1.383 . S
C214 C201 1.479 . S
C214 C215 1.399 . S
C215 C180 1.382 . S
C215 H192 0.950 1_455 S
C215 C214 1.399 . S
C216 C217 1.384 . S
C216 H229 0.948 1_545 S
C216 C251 1.382 . S
C217 C216 1.384 . S
C217 C218 1.378 . S
C218 C217 1.378 . S
C218 C219 1.378 . S
C218 H230 0.952 . S
C219 C218 1.378 . S
C219 H231 0.950 . S
C219 C250 1.383 . S
H220 C239 0.947 1_556 S
H221 C240 0.949 . S
H222 C242 0.953 . S
H223 C243 0.945 . S
H224 C245 0.948 1_565 S
H225 C246 0.954 . S
H226 C248 0.950 . S
H227 C249 0.948 . S
H228 C251 0.950 1_565 S
H229 C216 0.948 1_565 S
H230 C218 0.952 . S
H231 C219 0.950 . S
N232 C235 1.382 1_556 S
N232 C237 1.363 . S
N233 C235 1.371 . S
N233 C236 1.372 . S
N234 C236 1.361 . S
N234 C237 1.377 1_554 S
C235 N232 1.382 1_554 S
C235 N233 1.371 . S
C235 C238 1.480 . S
C236 N233 1.372 . S
C236 N234 1.361 . S
C236 C244 1.457 . S
C237 N232 1.363 . S
C237 N234 1.377 1_556 S
C237 C250 1.479 . S
C238 C235 1.480 . S
C238 C239 1.383 . S
C238 C243 1.385 . S
C239 H220 0.947 1_554 S
C239 C238 1.383 . S
C239 C240 1.387 1_545 S
C240 H221 0.949 . S
C240 C239 1.387 1_565 S
C240 C241 1.382 1_565 S
C241 C240 1.382 1_545 S
C241 C242 1.377 . S
C242 H222 0.953 . S
C242 C241 1.377 . S
C242 C243 1.369 . S
C243 H223 0.945 . S
C243 C238 1.385 . S
C243 C242 1.369 . S
C244 C236 1.457 . S
C244 C245 1.379 . S
C244 C249 1.364 . S
C245 H224 0.948 1_545 S
C245 C244 1.379 . S
C245 C246 1.387 1_545 S
C246 H225 0.954 . S
C246 C245 1.387 1_565 S
C246 C247 1.384 1_565 S
C247 C246 1.384 1_545 S
C247 C248 1.372 . S
C248 H226 0.950 . S
C248 C247 1.372 . S
C248 C249 1.379 . S
C249 H227 0.948 . S
C249 C244 1.364 . S
C249 C248 1.379 . S
C250 C219 1.383 . S
C250 C237 1.479 . S
C250 C251 1.399 . S
C251 C216 1.382 . S
C251 H228 0.950 1_545 S
C251 C250 1.399 . S
C252 C253 1.384 . S
C252 H265 0.947 . S
C252 C287 1.382 . S
C253 C252 1.384 . S
C253 C254 1.378 . S
C254 C253 1.378 . S
C254 C255 1.378 . S
C254 H266 0.952 . S
C255 C254 1.378 . S
C255 H267 0.950 . S
C255 C286 1.383 . S
H256 C275 0.947 . S
H257 C276 0.946 . S
H258 C278 0.953 1_556 S
H259 C279 0.945 1_556 S
H260 C281 0.952 . S
H261 C282 0.949 . S
H262 C284 0.950 . S
H263 C285 0.948 . S
H264 C287 0.951 . S
H265 C252 0.947 . S
H266 C254 0.952 . S
H267 C255 0.950 . S
N268 C271 1.382 . S
N268 C273 1.363 . S
N269 C271 1.371 1_556 S
N269 C272 1.372 . S
N270 C272 1.361 1_554 S
N270 C273 1.377 . S
C271 N268 1.382 . S
C271 N269 1.371 1_554 S
C271 C274 1.480 . S
C272 N269 1.372 . S
C272 N270 1.361 1_556 S
C272 C280 1.457 . S
C273 N268 1.363 . S
C273 N270 1.377 . S
C273 C286 1.479 . S
C274 C271 1.480 . S
C274 C275 1.383 . S
C274 C279 1.385 . S
C275 H256 0.947 . S
C275 C274 1.383 . S
C275 C276 1.388 . S
C276 H257 0.946 . S
C276 C275 1.388 . S
C276 C277 1.384 . S
C277 C276 1.384 . S
C277 C278 1.377 . S
C278 H258 0.953 1_554 S
C278 C277 1.377 . S
C278 C279 1.369 . S
C279 H259 0.945 1_554 S
C279 C274 1.385 . S
C279 C278 1.369 . S
C280 C272 1.457 . S
C280 C281 1.372 . S
C280 C285 1.364 . S
C281 H260 0.952 . S
C281 C280 1.372 . S
C281 C282 1.389 . S
C282 H261 0.949 . S
C282 C281 1.389 . S
C282 C283 1.387 . S
C283 C282 1.387 . S
C283 C284 1.372 . S
C284 H262 0.950 . S
C284 C283 1.372 . S
C284 C285 1.379 . S
C285 H263 0.948 . S
C285 C280 1.364 . S
C285 C284 1.379 . S
C286 C255 1.383 . S
C286 C273 1.479 . S
C286 C287 1.398 . S
C287 C252 1.382 . S
C287 H264 0.951 . S
C287 C286 1.398 . S
Tb288 C290 2.809 . S
Tb288 O308 2.484 . S
Tb288 O309 2.440 . S
Tb288 O310 2.658 1_565 S
Tb288 O311 2.409 . S
Tb288 O312 2.378 . S
Tb288 O316 2.325 1_455 S
Tb288 O319 2.341 1_565 S
Tb289 C299 2.809 . S
Tb289 O310 2.325 1_655 S
Tb289 O313 2.341 1_545 S
Tb289 O314 2.484 . S
Tb289 O315 2.440 . S
Tb289 O316 2.658 1_545 S
Tb289 O317 2.409 . S
Tb289 O318 2.378 . S
C290 Tb288 2.809 . S
C290 C291 1.514 . S
C290 O308 1.248 . S
C290 O309 1.266 . S
C291 C290 1.514 . S
C291 C292 1.359 . S
C291 C296 1.348 . S
C292 C291 1.359 . S
C292 C293 1.380 . S
C292 H320 0.929 1_455 S
C293 C292 1.380 . S
C293 C294 1.347 . S
C293 H321 0.931 1_456 S
C294 C293 1.347 . S
C294 C295 1.369 . S
C295 C294 1.369 . S
C295 C296 1.408 . S
C295 H322 0.930 . S
C296 C291 1.348 . S
C296 C295 1.408 . S
C296 H323 0.930 . S
C297 O310 1.281 1_565 S
C297 O311 1.254 . S
C298 O312 1.236 1_655 S
C298 O313 1.266 . S
C299 Tb289 2.809 . S
C299 C300 1.514 . S
C299 O314 1.248 . S
C299 O315 1.266 . S
C300 C299 1.514 . S
C300 C301 1.359 . S
C300 C305 1.348 . S
C301 C300 1.359 . S
C301 C302 1.380 . S
C301 H324 0.929 1_655 S
C302 C301 1.380 . S
C302 C303 1.347 . S
C302 H325 0.931 1_655 S
C303 C302 1.347 . S
C303 C304 1.369 . S
C304 C303 1.369 . S
C304 C305 1.408 . S
C304 H326 0.930 . S
C305 C300 1.348 . S
C305 C304 1.408 . S
C305 H327 0.930 . S
C306 O316 1.281 1_545 S
C306 O317 1.254 . S
C307 O318 1.236 1_455 S
C307 O319 1.266 . S
O308 Tb288 2.484 . S
O308 C290 1.248 . S
O309 Tb288 2.440 . S
O309 C290 1.266 . S
O310 Tb288 2.658 1_545 S
O310 Tb289 2.325 1_455 S
O310 C297 1.281 1_545 S
O311 Tb288 2.409 . S
O311 C297 1.254 . S
O312 Tb288 2.378 . S
O312 C298 1.236 1_455 S
O313 Tb289 2.341 1_565 S
O313 C298 1.266 . S
O314 Tb289 2.484 . S
O314 C299 1.248 . S
O315 Tb289 2.440 . S
O315 C299 1.266 . S
O316 Tb288 2.325 1_655 S
O316 Tb289 2.658 1_565 S
O316 C306 1.281 1_565 S
O317 Tb289 2.409 . S
O317 C306 1.254 . S
O318 Tb289 2.378 . S
O318 C307 1.236 1_655 S
O319 Tb288 2.341 1_545 S
O319 C307 1.266 . S
H320 C292 0.929 1_655 S
H321 C293 0.931 1_654 S
H322 C295 0.930 . S
H323 C296 0.930 . S
H324 C301 0.929 1_455 S
H325 C302 0.931 1_455 S
H326 C304 0.930 . S
H327 C305 0.930 . S
Tb328 C330 2.809 . S
Tb328 O348 2.484 . S
Tb328 O349 2.440 . S
Tb328 O350 2.658 . S
Tb328 O351 2.409 . S
Tb328 O352 2.378 . S
Tb328 O356 2.325 1_545 S
Tb328 O359 2.341 . S
Tb329 C339 2.809 . S
Tb329 O350 2.325 1_565 S
Tb329 O353 2.341 . S
Tb329 O354 2.484 . S
Tb329 O355 2.440 . S
Tb329 O356 2.658 . S
Tb329 O357 2.409 . S
Tb329 O358 2.378 . S
C330 Tb328 2.809 . S
C330 C331 1.514 . S
C330 O348 1.248 . S
C330 O349 1.266 . S
C331 C330 1.514 . S
C331 C332 1.359 . S
C331 C336 1.348 . S
C332 C331 1.359 . S
C332 C333 1.380 . S
C332 H360 0.929 1_545 S
C333 C332 1.380 . S
C333 C334 1.347 . S
C333 H361 0.931 1_546 S
C334 C333 1.347 . S
C334 C335 1.369 . S
C335 C334 1.369 . S
C335 C336 1.408 . S
C335 H362 0.930 . S
C336 C331 1.348 . S
C336 C335 1.408 . S
C336 H363 0.930 . S
C337 O350 1.281 . S
C337 O351 1.254 . S
C338 O352 1.236 1_565 S
C338 O353 1.266 . S
C339 Tb329 2.809 . S
C339 C340 1.514 . S
C339 O354 1.248 . S
C339 O355 1.266 . S
C340 C339 1.514 . S
C340 C341 1.359 . S
C340 C345 1.348 . S
C341 C340 1.359 . S
C341 C342 1.380 . S
C341 H364 0.929 1_565 S
C342 C341 1.380 . S
C342 C343 1.347 . S
C342 H365 0.931 1_565 S
C343 C342 1.347 . S
C343 C344 1.369 . S
C344 C343 1.369 . S
C344 C345 1.408 . S
C344 H366 0.930 . S
C345 C340 1.348 . S
C345 C344 1.408 . S
C345 H367 0.930 . S
C346 O356 1.281 . S
C346 O357 1.254 . S
C347 O358 1.236 1_545 S
C347 O359 1.266 . S
O348 Tb328 2.484 . S
O348 C330 1.248 . S
O349 Tb328 2.440 . S
O349 C330 1.266 . S
O350 Tb328 2.658 . S
O350 Tb329 2.325 1_545 S
O350 C337 1.281 . S
O351 Tb328 2.409 . S
O351 C337 1.254 . S
O352 Tb328 2.378 . S
O352 C338 1.236 1_545 S
O353 Tb329 2.341 . S
O353 C338 1.266 . S
O354 Tb329 2.484 . S
O354 C339 1.248 . S
O355 Tb329 2.440 . S
O355 C339 1.266 . S
O356 Tb328 2.325 1_565 S
O356 Tb329 2.658 . S
O356 C346 1.281 . S
O357 Tb329 2.409 . S
O357 C346 1.254 . S
O358 Tb329 2.378 . S
O358 C347 1.236 1_565 S
O359 Tb328 2.341 . S
O359 C347 1.266 . S
H360 C332 0.929 1_565 S
H361 C333 0.931 1_564 S
H362 C335 0.930 . S
H363 C336 0.930 . S
H364 C341 0.929 1_545 S
H365 C342 0.931 1_545 S
H366 C344 0.930 . S
H367 C345 0.930 . S
Tb368 C370 2.809 . S
Tb368 O388 2.484 . S
Tb368 O389 2.440 . S
Tb368 O390 2.658 . S
Tb368 O391 2.409 . S
Tb368 O392 2.378 . S
Tb368 O396 2.325 . S
Tb368 O399 2.341 . S
Tb369 C379 2.809 . S
Tb369 O390 2.325 . S
Tb369 O393 2.341 . S
Tb369 O394 2.484 . S
Tb369 O395 2.440 . S
Tb369 O396 2.658 . S
Tb369 O397 2.409 . S
Tb369 O398 2.378 . S
C370 Tb368 2.809 . S
C370 C371 1.514 . S
C370 O388 1.248 . S
C370 O389 1.266 . S
C371 C370 1.514 . S
C371 C372 1.359 . S
C371 C376 1.348 . S
C372 C371 1.359 . S
C372 C373 1.380 . S
C372 H400 0.929 . S
C373 C372 1.380 . S
C373 C374 1.347 . S
C373 H401 0.931 1_556 S
C374 C373 1.347 . S
C374 C375 1.369 . S
C375 C374 1.369 . S
C375 C376 1.408 . S
C375 H402 0.930 . S
C376 C371 1.348 . S
C376 C375 1.408 . S
C376 H403 0.930 . S
C377 O390 1.281 . S
C377 O391 1.254 . S
C378 O392 1.236 . S
C378 O393 1.266 . S
C379 Tb369 2.809 . S
C379 C380 1.514 . S
C379 O394 1.248 . S
C379 O395 1.266 . S
C380 C379 1.514 . S
C380 C381 1.359 . S
C380 C385 1.348 . S
C381 C380 1.359 . S
C381 C382 1.380 . S
C381 H404 0.929 . S
C382 C381 1.380 . S
C382 C383 1.347 . S
C382 H405 0.931 . S
C383 C382 1.347 . S
C383 C384 1.369 . S
C384 C383 1.369 . S
C384 C385 1.408 . S
C384 H406 0.930 . S
C385 C380 1.348 . S
C385 C384 1.408 . S
C385 H407 0.930 . S
C386 O396 1.281 . S
C386 O397 1.254 . S
C387 O398 1.236 . S
C387 O399 1.266 . S
O388 Tb368 2.484 . S
O388 C370 1.248 . S
O389 Tb368 2.440 . S
O389 C370 1.266 . S
O390 Tb368 2.658 . S
O390 Tb369 2.325 . S
O390 C377 1.281 . S
O391 Tb368 2.409 . S
O391 C377 1.254 . S
O392 Tb368 2.378 . S
O392 C378 1.236 . S
O393 Tb369 2.341 . S
O393 C378 1.266 . S
O394 Tb369 2.484 . S
O394 C379 1.248 . S
O395 Tb369 2.440 . S
O395 C379 1.266 . S
O396 Tb368 2.325 . S
O396 Tb369 2.658 . S
O396 C386 1.281 . S
O397 Tb369 2.409 . S
O397 C386 1.254 . S
O398 Tb369 2.378 . S
O398 C387 1.236 . S
O399 Tb368 2.341 . S
O399 C387 1.266 . S
H400 C372 0.929 . S
H401 C373 0.931 1_554 S
H402 C375 0.930 . S
H403 C376 0.930 . S
H404 C381 0.929 . S
H405 C382 0.931 . S
H406 C384 0.930 . S
H407 C385 0.930 . S
Tb408 C410 2.809 . S
Tb408 O428 2.484 . S
Tb408 O429 2.440 . S
Tb408 O430 2.658 1_655 S
Tb408 O431 2.409 . S
Tb408 O432 2.378 . S
Tb408 O436 2.325 . S
Tb408 O439 2.341 1_655 S
Tb409 C419 2.809 . S
Tb409 O430 2.325 . S
Tb409 O433 2.341 1_455 S
Tb409 O434 2.484 . S
Tb409 O435 2.440 . S
Tb409 O436 2.658 1_455 S
Tb409 O437 2.409 . S
Tb409 O438 2.378 . S
C410 Tb408 2.809 . S
C410 C411 1.514 . S
C410 O428 1.248 . S
C410 O429 1.266 . S
C411 C410 1.514 . S
C411 C412 1.359 . S
C411 C416 1.348 . S
C412 C411 1.359 . S
C412 C413 1.380 . S
C412 H440 0.929 . S
C413 C412 1.380 . S
C413 C414 1.347 . S
C413 H441 0.931 1_556 S
C414 C413 1.347 . S
C414 C415 1.369 . S
C415 C414 1.369 . S
C415 C416 1.408 . S
C415 H442 0.930 . S
C416 C411 1.348 . S
C416 C415 1.408 . S
C416 H443 0.930 . S
C417 O430 1.278 1_655 S
C417 O431 1.257 . S
C418 O432 1.236 . S
C418 O433 1.266 . S
C419 Tb409 2.809 . S
C419 C420 1.514 . S
C419 O434 1.248 . S
C419 O435 1.266 . S
C420 C419 1.514 . S
C420 C421 1.359 . S
C420 C425 1.348 . S
C421 C420 1.359 . S
C421 C422 1.380 . S
C421 H444 0.929 . S
C422 C421 1.380 . S
C422 C423 1.347 . S
C422 H445 0.931 . S
C423 C422 1.347 . S
C423 C424 1.369 . S
C424 C423 1.369 . S
C424 C425 1.408 . S
C424 H446 0.930 . S
C425 C420 1.348 . S
C425 C424 1.408 . S
C425 H447 0.930 . S
C426 O436 1.275 1_455 S
C426 O437 1.262 . S
C427 O438 1.236 . S
C427 O439 1.266 . S
O428 Tb408 2.484 . S
O428 C410 1.248 . S
O429 Tb408 2.440 . S
O429 C410 1.266 . S
O430 Tb408 2.658 1_455 S
O430 Tb409 2.325 . S
O430 C417 1.278 1_455 S
O431 Tb408 2.409 . S
O431 C417 1.257 . S
O432 Tb408 2.378 . S
O432 C418 1.236 . S
O433 Tb409 2.341 1_655 S
O433 C418 1.266 . S
O434 Tb409 2.484 . S
O434 C419 1.248 . S
O435 Tb409 2.440 . S
O435 C419 1.266 . S
O436 Tb408 2.325 . S
O436 Tb409 2.658 1_655 S
O436 C426 1.275 1_655 S
O437 Tb409 2.409 . S
O437 C426 1.262 . S
O438 Tb409 2.378 . S
O438 C427 1.236 . S
O439 Tb408 2.341 1_455 S
O439 C427 1.266 . S
H440 C412 0.929 . S
H441 C413 0.931 1_554 S
H442 C415 0.930 . S
H443 C416 0.930 . S
H444 C421 0.929 . S
H445 C422 0.931 . S
H446 C424 0.930 . S
H447 C425 0.930 . S
H448 C454 0.930 . S
H449 C457 0.930 . S
H450 C458 0.930 . S
H451 C459 0.930 . S
H452 C462 0.930 . S
H453 C463 0.930 . S
C454 H448 0.930 . S
C454 C455 1.355 1_545 S
C454 C456 1.415 . S
C455 C454 1.355 1_565 S
C455 C457 1.419 . S
C456 C454 1.415 . S
C456 C461 1.425 1_545 S
C456 C463 1.409 . S
C457 H449 0.930 . S
C457 C455 1.419 . S
C457 C458 1.362 . S
C458 H450 0.930 . S
C458 C457 1.362 . S
C458 C461 1.409 . S
C459 H451 0.930 . S
C459 C460 1.355 1_565 S
C459 C461 1.415 . S
C460 C459 1.355 1_545 S
C460 C462 1.419 . S
C461 C456 1.425 1_565 S
C461 C458 1.409 . S
C461 C459 1.415 . S
C462 H452 0.930 . S
C462 C460 1.419 . S
C462 C463 1.362 . S
C463 H453 0.930 . S
C463 C456 1.409 . S
C463 C462 1.362 . S
H464 C470 0.930 . S
H465 C473 0.930 . S
H466 C474 0.930 . S
H467 C475 0.930 . S
H468 C478 0.930 . S
H469 C479 0.930 . S
C470 H464 0.930 . S
C470 C471 1.355 . S
C470 C472 1.415 . S
C471 C470 1.355 . S
C471 C473 1.419 . S
C472 C470 1.415 . S
C472 C477 1.425 . S
C472 C479 1.409 . S
C473 H465 0.930 . S
C473 C471 1.419 . S
C473 C474 1.362 . S
C474 H466 0.930 . S
C474 C473 1.362 . S
C474 C477 1.409 . S
C475 H467 0.930 . S
C475 C476 1.355 . S
C475 C477 1.415 . S
C476 C475 1.355 . S
C476 C478 1.419 . S
C477 C472 1.425 . S
C477 C474 1.409 . S
C477 C475 1.415 . S
C478 H468 0.930 . S
C478 C476 1.419 . S
C478 C479 1.362 . S
C479 H469 0.930 . S
C479 C472 1.409 . S
C479 C478 1.362 . S
H480 C486 0.930 . S
H481 C489 0.930 . S
H482 C490 0.930 . S
H483 C491 0.930 . S
H484 C494 0.930 . S
H485 C495 0.930 . S
C486 H480 0.930 . S
C486 C487 1.355 . S
C486 C488 1.415 . S
C487 C486 1.355 . S
C487 C489 1.419 . S
C488 C486 1.415 . S
C488 C493 1.425 . S
C488 C495 1.409 . S
C489 H481 0.930 . S
C489 C487 1.419 . S
C489 C490 1.362 . S
C490 H482 0.930 . S
C490 C489 1.362 . S
C490 C493 1.409 . S
C491 H483 0.930 . S
C491 C492 1.355 . S
C491 C493 1.415 . S
C492 C491 1.355 . S
C492 C494 1.419 . S
C493 C488 1.425 . S
C493 C490 1.409 . S
C493 C491 1.415 . S
C494 H484 0.930 . S
C494 C492 1.419 . S
C494 C495 1.362 . S
C495 H485 0.930 . S
C495 C488 1.409 . S
C495 C494 1.362 . S
H496 C502 0.931 . S
H497 C505 0.930 . S
H498 C506 0.930 . S
H499 C507 0.929 . S
H500 C510 0.930 . S
H501 C511 0.930 . S
C502 H496 0.931 . S
C502 C503 1.352 1_455 S
C502 C504 1.416 . S
C503 C502 1.352 1_655 S
C503 C505 1.421 . S
C504 C502 1.416 . S
C504 C509 1.425 . S
C504 C511 1.409 . S
C505 H497 0.930 . S
C505 C503 1.421 . S
C505 C506 1.362 . S
C506 H498 0.930 . S
C506 C505 1.362 . S
C506 C509 1.409 1_655 S
C507 H499 0.929 . S
C507 C508 1.357 . S
C507 C509 1.414 . S
C508 C507 1.357 . S
C508 C510 1.419 . S
C509 C504 1.425 . S
C509 C506 1.409 1_455 S
C509 C507 1.414 . S
C510 H500 0.930 . S
C510 C508 1.419 . S
C510 C511 1.362 . S
C511 H501 0.930 . S
C511 C504 1.409 . S
C511 C510 1.362 . S
H512 C518 0.930 . S
H513 C521 0.930 . S
H514 C522 0.930 . S
H515 C523 0.930 . S
H516 C526 0.930 . S
H517 C527 0.930 . S
C518 H512 0.930 . S
C518 C519 1.344 1_545 S
C518 C520 1.415 . S
C519 C518 1.344 1_565 S
C519 C521 1.433 . S
C520 C518 1.415 . S
C520 C525 1.425 1_545 S
C520 C527 1.409 . S
C521 H513 0.930 . S
C521 C519 1.433 . S
C521 C522 1.362 . S
C522 H514 0.930 . S
C522 C521 1.362 . S
C522 C525 1.409 . S
C523 H515 0.930 . S
C523 C524 1.342 1_565 S
C523 C525 1.415 1_556 S
C524 C523 1.342 1_545 S
C524 C526 1.436 . S
C525 C520 1.425 1_565 S
C525 C522 1.409 . S
C525 C523 1.415 1_554 S
C526 H516 0.930 . S
C526 C524 1.436 . S
C526 C527 1.362 1_556 S
C527 H517 0.930 . S
C527 C520 1.409 . S
C527 C526 1.362 1_554 S
H528 C534 0.930 . S
H529 C537 0.930 . S
H530 C538 0.930 . S
H531 C539 0.930 . S
H532 C542 0.930 . S
H533 C543 0.930 . S
C534 H528 0.930 . S
C534 C535 1.355 . S
C534 C536 1.415 . S
C535 C534 1.355 . S
C535 C537 1.419 . S
C536 C534 1.415 . S
C536 C541 1.425 . S
C536 C543 1.409 . S
C537 H529 0.930 . S
C537 C535 1.419 . S
C537 C538 1.362 . S
C538 H530 0.930 . S
C538 C537 1.362 . S
C538 C541 1.409 . S
C539 H531 0.930 . S
C539 C540 1.355 . S
C539 C541 1.415 1_556 S
C540 C539 1.355 . S
C540 C542 1.419 . S
C541 C536 1.425 . S
C541 C538 1.409 . S
C541 C539 1.415 1_554 S
C542 H532 0.930 . S
C542 C540 1.419 . S
C542 C543 1.362 1_556 S
C543 H533 0.930 . S
C543 C536 1.409 . S
C543 C542 1.362 1_554 S
H544 C550 0.930 . S
H545 C553 0.930 . S
H546 C554 0.930 . S
H547 C555 0.930 . S
H548 C558 0.930 . S
H549 C559 0.930 . S
C550 H544 0.930 . S
C550 C551 1.355 . S
C550 C552 1.415 . S
C551 C550 1.355 . S
C551 C553 1.419 . S
C552 C550 1.415 . S
C552 C557 1.425 . S
C552 C559 1.409 . S
C553 H545 0.930 . S
C553 C551 1.419 . S
C553 C554 1.362 . S
C554 H546 0.930 . S
C554 C553 1.362 . S
C554 C557 1.409 . S
C555 H547 0.930 . S
C555 C556 1.355 . S
C555 C557 1.415 1_556 S
C556 C555 1.355 . S
C556 C558 1.419 . S
C557 C552 1.425 . S
C557 C554 1.409 . S
C557 C555 1.415 1_554 S
C558 H548 0.930 . S
C558 C556 1.419 . S
C558 C559 1.362 1_556 S
C559 H549 0.930 . S
C559 C552 1.409 . S
C559 C558 1.362 1_554 S
H560 C566 0.930 . S
H561 C569 0.930 . S
H562 C570 0.930 . S
H563 C571 0.930 . S
H564 C574 0.930 . S
H565 C575 0.930 . S
C566 H560 0.930 . S
C566 C567 1.358 . S
C566 C568 1.415 . S
C567 C566 1.358 . S
C567 C569 1.415 1_655 S
C568 C566 1.415 . S
C568 C573 1.425 1_655 S
C568 C575 1.409 1_554 S
C569 H561 0.930 . S
C569 C567 1.415 1_455 S
C569 C570 1.362 . S
C570 H562 0.930 . S
C570 C569 1.362 . S
C570 C573 1.409 . S
C571 H563 0.930 . S
C571 C572 1.355 1_455 S
C571 C573 1.415 1_556 S
C572 C571 1.355 1_655 S
C572 C574 1.419 . S
C573 C568 1.425 1_455 S
C573 C570 1.409 . S
C573 C571 1.415 1_554 S
C574 H564 0.930 . S
C574 C572 1.419 . S
C574 C575 1.362 . S
C575 H565 0.930 . S
C575 C568 1.409 1_556 S
C575 C574 1.362 . S
H576 C582 0.930 . S
H577 C585 0.930 . S
H578 C586 0.930 . S
H579 C587 0.930 . S
H580 C590 0.930 . S
H581 C591 0.946 . S
C582 H576 0.930 . S
C582 C583 1.355 . S
C582 C584 1.415 1_455 S
C583 C582 1.355 . S
C583 C585 1.419 1_455 S
C584 C582 1.415 1_655 S
C584 C589 1.425 . S
C584 C591 1.404 1_655 S
C585 H577 0.930 . S
C585 C583 1.419 1_655 S
C585 C586 1.362 . S
C586 H578 0.930 . S
C586 C585 1.362 . S
C586 C589 1.409 . S
C587 H579 0.930 . S
C587 C588 1.355 . S
C587 C589 1.415 . S
C588 C587 1.355 . S
C588 C590 1.419 . S
C589 C584 1.425 . S
C589 C586 1.409 . S
C589 C587 1.415 . S
C590 H580 0.930 . S
C590 C588 1.419 . S
C590 C591 1.352 1_655 S
C591 H581 0.946 . S
C591 C584 1.404 1_455 S
C591 C590 1.352 1_455 S
H592 C598 0.930 . S
H593 C601 0.930 . S
H594 C602 0.930 . S
H595 C603 0.930 . S
H596 C606 0.930 . S
H597 C607 0.930 . S
C598 H592 0.930 . S
C598 C599 1.355 1_565 S
C598 C600 1.415 . S
C599 C598 1.355 1_545 S
C599 C601 1.419 . S
C600 C598 1.415 . S
C600 C605 1.425 . S
C600 C607 1.409 . S
C601 H593 0.930 . S
C601 C599 1.419 . S
C601 C602 1.362 . S
C602 H594 0.930 . S
C602 C601 1.362 . S
C602 C605 1.409 1_545 S
C603 H595 0.930 . S
C603 C604 1.355 . S
C603 C605 1.415 . S
C604 C603 1.355 . S
C604 C606 1.419 . S
C605 C600 1.425 . S
C605 C602 1.409 1_565 S
C605 C603 1.415 . S
C606 H596 0.930 . S
C606 C604 1.419 . S
C606 C607 1.362 . S
C607 H597 0.930 . S
C607 C600 1.409 . S
C607 C606 1.362 . S
H608 C614 0.930 . S
H609 C617 0.930 . S
H610 C618 0.930 . S
H611 C619 0.930 . S
H612 C622 0.930 . S
H613 C623 0.930 . S
C614 H608 0.930 . S
C614 C615 1.355 . S
C614 C616 1.415 . S
C615 C614 1.355 . S
C615 C617 1.419 . S
C616 C614 1.415 . S
C616 C621 1.425 . S
C616 C623 1.409 . S
C617 H609 0.930 . S
C617 C615 1.419 . S
C617 C618 1.362 . S
C618 H610 0.930 . S
C618 C617 1.362 . S
C618 C621 1.409 . S
C619 H611 0.930 . S
C619 C620 1.355 . S
C619 C621 1.415 . S
C620 C619 1.355 . S
C620 C622 1.419 . S
C621 C616 1.425 . S
C621 C618 1.409 . S
C621 C619 1.415 . S
C622 H612 0.930 . S
C622 C620 1.419 . S
C622 C623 1.362 . S
C623 H613 0.930 . S
C623 C616 1.409 . S
C623 C622 1.362 . S
H624 C630 0.930 . S
H625 C633 0.930 . S
H626 C634 0.930 . S
H627 C635 0.930 . S
H628 C638 0.930 . S
H629 C639 0.930 . S
C630 H624 0.930 . S
C630 C631 1.355 . S
C630 C632 1.415 . S
C631 C630 1.355 . S
C631 C633 1.419 . S
C632 C630 1.415 . S
C632 C637 1.425 . S
C632 C639 1.409 . S
C633 H625 0.930 . S
C633 C631 1.419 . S
C633 C634 1.362 . S
C634 H626 0.930 . S
C634 C633 1.362 . S
C634 C637 1.409 . S
C635 H627 0.930 . S
C635 C636 1.355 . S
C635 C637 1.415 . S
C636 C635 1.355 . S
C636 C638 1.419 . S
C637 C632 1.425 . S
C637 C634 1.409 . S
C637 C635 1.415 . S
C638 H628 0.930 . S
C638 C636 1.419 . S
C638 C639 1.362 . S
C639 H629 0.930 . S
C639 C632 1.409 . S
C639 C638 1.362 . S
H640 C646 0.930 . S
H641 C649 0.930 . S
H642 C650 0.925 1_556 S
H643 C651 0.927 1_556 S
H644 C654 0.930 . S
H645 C655 0.930 1_655 S
C646 H640 0.930 . S
C646 C647 1.355 . S
C646 C648 1.415 1_655 S
C647 C646 1.355 . S
C647 C649 1.419 1_655 S
C648 C646 1.415 1_455 S
C648 C653 1.425 . S
C648 C655 1.409 . S
C649 H641 0.930 . S
C649 C647 1.419 1_455 S
C649 C650 1.362 . S
C650 H642 0.925 1_554 S
C650 C649 1.362 . S
C650 C653 1.409 . S
C651 H643 0.927 1_554 S
C651 C652 1.355 . S
C651 C653 1.417 . S
C652 C651 1.355 . S
C652 C654 1.419 . S
C653 C648 1.425 . S
C653 C650 1.409 . S
C653 C651 1.417 . S
C654 H644 0.930 . S
C654 C652 1.419 . S
C654 C655 1.362 . S
C655 H645 0.930 1_455 S
C655 C648 1.409 . S
C655 C654 1.362 . S
H656 C662 0.930 . S
H657 C665 0.930 . S
H658 C666 0.930 . S
H659 C667 0.930 . S
H660 C670 0.930 . S
H661 C671 0.930 1_565 S
C662 H656 0.930 . S
C662 C663 1.356 . S
C662 C664 1.415 1_565 S
C663 C662 1.356 . S
C663 C665 1.411 1_565 S
C664 C662 1.415 1_545 S
C664 C669 1.425 . S
C664 C671 1.409 1_554 S
C665 H657 0.930 . S
C665 C663 1.411 1_545 S
C665 C666 1.362 . S
C666 H658 0.930 . S
C666 C665 1.362 . S
C666 C669 1.409 . S
C667 H659 0.930 . S
C667 C668 1.355 1_554 S
C667 C669 1.415 . S
C668 C667 1.355 1_556 S
C668 C670 1.419 . S
C669 C664 1.425 . S
C669 C666 1.409 . S
C669 C667 1.415 . S
C670 H660 0.930 . S
C670 C668 1.419 . S
C670 C671 1.362 . S
C671 H661 0.930 1_545 S
C671 C664 1.409 1_556 S
C671 C670 1.362 . S
H672 C678 0.930 . S
H673 C681 0.930 . S
H674 C682 0.921 1_556 S
H675 C683 0.930 . S
H676 C686 0.930 . S
H677 C687 0.930 . S
C678 H672 0.930 . S
C678 C679 1.355 . S
C678 C680 1.415 . S
C679 C678 1.355 . S
C679 C681 1.419 . S
C680 C678 1.415 . S
C680 C685 1.425 . S
C680 C687 1.409 . S
C681 H673 0.930 . S
C681 C679 1.419 . S
C681 C682 1.368 . S
C682 H674 0.921 1_554 S
C682 C681 1.368 . S
C682 C685 1.412 . S
C683 H675 0.930 . S
C683 C684 1.355 1_556 S
C683 C685 1.415 1_556 S
C684 C683 1.355 1_554 S
C684 C686 1.419 . S
C685 C680 1.425 . S
C685 C682 1.412 . S
C685 C683 1.415 1_554 S
C686 H676 0.930 . S
C686 C684 1.419 . S
C686 C687 1.362 . S
C687 H677 0.930 . S
C687 C680 1.409 . S
C687 C686 1.362 . S
H688 C694 0.930 . S
H689 C697 0.930 . S
H690 C698 0.930 . S
H691 C699 0.930 . S
H692 C702 0.930 . S
H693 C703 0.930 . S
C694 H688 0.930 . S
C694 C695 1.355 . S
C694 C696 1.415 . S
C695 C694 1.355 . S
C695 C697 1.419 . S
C696 C694 1.415 . S
C696 C701 1.425 . S
C696 C703 1.409 1_554 S
C697 H689 0.930 . S
C697 C695 1.419 . S
C697 C698 1.362 . S
C698 H690 0.930 . S
C698 C697 1.362 . S
C698 C701 1.409 . S
C699 H691 0.930 . S
C699 C700 1.355 1_554 S
C699 C701 1.415 . S
C700 C699 1.355 1_556 S
C700 C702 1.419 . S
C701 C696 1.425 . S
C701 C698 1.409 . S
C701 C699 1.415 . S
C702 H692 0.930 . S
C702 C700 1.419 . S
C702 C703 1.362 . S
C703 H693 0.930 . S
C703 C696 1.409 1_556 S
C703 C702 1.362 . S
H704 C710 0.930 . S
H705 C713 0.930 . S
H706 C714 0.930 . S
H707 C715 0.930 . S
H708 C718 0.930 . S
H709 C719 0.930 . S
C710 H704 0.930 . S
C710 C711 1.355 1_655 S
C710 C712 1.415 . S
C711 C710 1.355 1_455 S
C711 C713 1.419 . S
C712 C710 1.415 . S
C712 C717 1.425 1_655 S
C712 C719 1.409 . S
C713 H705 0.930 . S
C713 C711 1.419 . S
C713 C714 1.362 . S
C714 H706 0.930 . S
C714 C713 1.362 . S
C714 C717 1.409 . S
C715 H707 0.930 . S
C715 C716 1.355 . S
C715 C717 1.415 . S
C716 C715 1.355 . S
C716 C718 1.419 1_455 S
C717 C712 1.425 1_455 S
C717 C714 1.409 . S
C717 C715 1.415 . S
C718 H708 0.930 . S
C718 C716 1.419 1_655 S
C718 C719 1.362 . S
C719 H709 0.930 . S
C719 C712 1.409 . S
C719 C718 1.362 . S
H720 C726 0.930 . S
H721 C729 0.928 1_565 S
H722 C730 0.930 . S
H723 C731 0.930 . S
H724 C734 0.930 . S
H725 C735 0.930 . S
C726 H720 0.930 . S
C726 C727 1.355 . S
C726 C728 1.415 . S
C727 C726 1.355 . S
C727 C729 1.419 . S
C728 C726 1.415 . S
C728 C733 1.425 . S
C728 C735 1.409 . S
C729 H721 0.928 1_545 S
C729 C727 1.419 . S
C729 C730 1.362 . S
C730 H722 0.930 . S
C730 C729 1.362 . S
C730 C733 1.409 . S
C731 H723 0.930 . S
C731 C732 1.355 . S
C731 C733 1.415 . S
C732 C731 1.355 . S
C732 C734 1.419 . S
C733 C728 1.425 . S
C733 C730 1.409 . S
C733 C731 1.415 . S
C734 H724 0.930 . S
C734 C732 1.419 . S
C734 C735 1.362 . S
C735 H725 0.930 . S
C735 C728 1.409 . S
C735 C734 1.362 . S
H736 C742 0.930 . S
H737 C745 0.930 . S
H738 C746 0.930 . S
H739 C747 0.930 . S
H740 C750 0.930 . S
H741 C751 0.930 . S
C742 H736 0.930 . S
C742 C743 1.355 . S
C742 C744 1.415 . S
C743 C742 1.355 . S
C743 C745 1.419 . S
C744 C742 1.415 . S
C744 C749 1.425 . S
C744 C751 1.409 . S
C745 H737 0.930 . S
C745 C743 1.419 . S
C745 C746 1.362 . S
C746 H738 0.930 . S
C746 C745 1.362 . S
C746 C749 1.409 . S
C747 H739 0.930 . S
C747 C748 1.355 . S
C747 C749 1.415 . S
C748 C747 1.355 . S
C748 C750 1.419 . S
C749 C744 1.425 . S
C749 C746 1.409 . S
C749 C747 1.415 . S
C750 H740 0.930 . S
C750 C748 1.419 . S
C750 C751 1.362 . S
C751 H741 0.930 . S
C751 C744 1.409 . S
C751 C750 1.362 . S
H752 C758 0.930 . S
H753 C761 0.930 . S
H754 C762 0.930 . S
H755 C763 0.930 . S
H756 C766 0.930 . S
H757 C767 0.930 . S
C758 H752 0.930 . S
C758 C759 1.355 . S
C758 C760 1.415 . S
C759 C758 1.355 . S
C759 C761 1.419 . S
C760 C758 1.415 . S
C760 C765 1.425 . S
C760 C767 1.409 . S
C761 H753 0.930 . S
C761 C759 1.419 . S
C761 C762 1.362 . S
C762 H754 0.930 . S
C762 C761 1.362 . S
C762 C765 1.409 . S
C763 H755 0.930 . S
C763 C764 1.355 . S
C763 C765 1.415 . S
C764 C763 1.355 . S
C764 C766 1.419 . S
C765 C760 1.425 . S
C765 C762 1.409 . S
C765 C763 1.415 . S
C766 H756 0.930 . S
C766 C764 1.419 . S
C766 C767 1.362 . S
C767 H757 0.930 . S
C767 C760 1.409 . S
C767 C766 1.362 . S
H768 C774 0.930 . S
H769 C777 0.930 . S
H770 C778 0.930 . S
H771 C779 0.930 . S
H772 C782 0.930 . S
H773 C783 0.930 . S
C774 H768 0.930 . S
C774 C775 1.379 . S
C774 C776 1.415 . S
C775 C774 1.379 . S
C775 C777 1.392 1_655 S
C776 C774 1.415 . S
C776 C781 1.425 1_655 S
C776 C783 1.409 . S
C777 H769 0.930 . S
C777 C775 1.392 1_455 S
C777 C778 1.362 . S
C778 H770 0.930 . S
C778 C777 1.362 . S
C778 C781 1.409 . S
C779 H771 0.930 . S
C779 C780 1.355 1_455 S
C779 C781 1.415 . S
C780 C779 1.355 1_655 S
C780 C782 1.419 . S
C781 C776 1.425 1_455 S
C781 C778 1.409 . S
C781 C779 1.415 . S
C782 H772 0.930 . S
C782 C780 1.419 . S
C782 C783 1.362 . S
C783 H773 0.930 . S
C783 C776 1.409 . S
C783 C782 1.362 . S
H784 C790 0.930 . S
H785 C793 0.930 . S
H786 C794 0.930 . S
H787 C795 0.930 . S
H788 C798 0.930 . S
H789 C799 0.930 . S
C790 H784 0.930 . S
C790 C791 1.379 . S
C790 C792 1.415 . S
C791 C790 1.379 . S
C791 C793 1.392 1_565 S
C792 C790 1.415 . S
C792 C797 1.425 1_565 S
C792 C799 1.409 . S
C793 H785 0.930 . S
C793 C791 1.392 1_545 S
C793 C794 1.362 . S
C794 H786 0.930 . S
C794 C793 1.362 . S
C794 C797 1.409 . S
C795 H787 0.930 . S
C795 C796 1.355 1_545 S
C795 C797 1.415 . S
C796 C795 1.355 1_565 S
C796 C798 1.419 . S
C797 C792 1.425 1_545 S
C797 C794 1.409 . S
C797 C795 1.415 . S
C798 H788 0.930 . S
C798 C796 1.419 . S
C798 C799 1.362 . S
C799 H789 0.930 . S
C799 C792 1.409 . S
C799 C798 1.362 . S
H800 C806 0.930 . S
H801 C809 0.930 . S
H802 C810 0.930 . S
H803 C811 0.930 . S
H804 C814 0.930 . S
H805 C815 0.930 . S
C806 H800 0.930 . S
C806 C807 1.355 . S
C806 C808 1.415 . S
C807 C806 1.355 . S
C807 C809 1.419 . S
C808 C806 1.415 . S
C808 C813 1.425 . S
C808 C815 1.409 . S
C809 H801 0.930 . S
C809 C807 1.419 . S
C809 C810 1.362 . S
C810 H802 0.930 . S
C810 C809 1.362 . S
C810 C813 1.409 . S
C811 H803 0.930 . S
C811 C812 1.355 . S
C811 C813 1.415 . S
C812 C811 1.355 . S
C812 C814 1.419 . S
C813 C808 1.425 . S
C813 C810 1.409 . S
C813 C811 1.415 . S
C814 H804 0.930 . S
C814 C812 1.419 . S
C814 C815 1.362 . S
C815 H805 0.930 . S
C815 C808 1.409 . S
C815 C814 1.362 . S
H816 C822 0.930 . S
H817 C825 0.930 . S
H818 C826 0.930 . S
H819 C827 0.930 . S
H820 C830 0.930 . S
H821 C831 0.930 . S
C822 H816 0.930 . S
C822 C823 1.355 . S
C822 C824 1.415 . S
C823 C822 1.355 . S
C823 C825 1.419 . S
C824 C822 1.415 . S
C824 C829 1.425 . S
C824 C831 1.409 . S
C825 H817 0.930 . S
C825 C823 1.419 . S
C825 C826 1.362 . S
C826 H818 0.930 . S
C826 C825 1.362 . S
C826 C829 1.409 . S
C827 H819 0.930 . S
C827 C828 1.355 . S
C827 C829 1.415 . S
C828 C827 1.355 . S
C828 C830 1.419 . S
C829 C824 1.425 . S
C829 C826 1.409 . S
C829 C827 1.415 . S
C830 H820 0.930 . S
C830 C828 1.419 . S
C830 C831 1.362 . S
C831 H821 0.930 . S
C831 C824 1.409 . S
C831 C830 1.362 . S
C455 C241 2.259 1_565 S
C460 C297 2.537 1_545 S
C476 C337 2.564 . S
C471 C277 2.330 . S
C492 C377 2.552 . S
C487 C169 2.232 . S
C508 C417 2.554 1_455 S
C503 C205 2.282 1_655 S
C524 C306 2.524 . S
C519 C97 2.191 1_565 S
C535 C133 2.336 . S
C540 C346 2.582 . S
C551 C25 2.239 . S
C556 C386 2.550 . S
C567 C61 2.284 1_655 S
C572 C426 2.552 1_655 S
C588 C303 0.473 . S
C583 C211 0.423 . S
C604 C343 0.644 . S
C599 C247 0.614 . S
C620 C383 0.614 . S
C615 C253 0.616 . S
C631 C175 0.452 . S
C636 C423 0.412 . S
C647 C67 0.594 1_655 S
C652 C294 0.510 1_554 S
C668 C334 0.466 . S
C663 C103 0.447 1_565 S
C684 C374 0.608 1_554 S
C679 C109 0.560 . S
C695 C31 0.428 . S
C700 C414 0.461 . S
C711 C181 3.041 . S
C716 C307 3.421 . S
C727 C217 2.944 . S
C732 C347 3.379 . S
C748 C387 3.361 . S
C743 C283 2.906 . S
C764 C427 3.411 . S
C759 C145 3.022 . S
C775 C37 3.039 1_655 S
C780 C298 3.450 . S
C796 C338 3.391 . S
C791 C73 2.972 1_565 S
C812 C378 3.361 . S
C807 C139 2.870 . S
C823 C1 3.045 . S
C828 C418 3.418 . S
