# Generated by pormake.
# Topology rtl, (3,6)-cn, num edge types: 1
# Building blocks:
#     Node 0, Type 0, BuildingBlock: ESEHIV_clean_linker_0, # of connection points: 3
#     Node 1, Type 0, BuildingBlock: ESEHIV_clean_linker_0, # of connection points: 3
#     Node 2, Type 0, BuildingBlock: ESEHIV_clean_linker_0, # of connection points: 3
#     Node 3, Type 0, BuildingBlock: ESEHIV_clean_linker_0, # of connection points: 3
#     Node 4, Type 1, BuildingBlock: VOLQOD_clean_sbu_1, # of connection points: 6
#     Node 5, Type 1, BuildingBlock: VOLQOD_clean_sbu_1, # of connection points: 6
#     Edge 6, Type (0, 1), BuildingBlock: XIVTED_clean_linker_0, # of connection points: 2
#     Edge 7, Type (0, 1), BuildingBlock: XIVTED_clean_linker_0, # of connection points: 2
#     Edge 8, Type (0, 1), BuildingBlock: XIVTED_clean_linker_0, # of connection points: 2
#     Edge 9, Type (0, 1), BuildingBlock: XIVTED_clean_linker_0, # of connection points: 2
#     Edge 10, Type (0, 1), BuildingBlock: XIVTED_clean_linker_0, # of connection points: 2
#     Edge 11, Type (0, 1), BuildingBlock: XIVTED_clean_linker_0, # of connection points: 2
#     Edge 12, Type (0, 1), BuildingBlock: XIVTED_clean_linker_0, # of connection points: 2
#     Edge 13, Type (0, 1), BuildingBlock: XIVTED_clean_linker_0, # of connection points: 2
#     Edge 14, Type (0, 1), BuildingBlock: XIVTED_clean_linker_0, # of connection points: 2
#     Edge 15, Type (0, 1), BuildingBlock: XIVTED_clean_linker_0, # of connection points: 2
#     Edge 16, Type (0, 1), BuildingBlock: XIVTED_clean_linker_0, # of connection points: 2
#     Edge 17, Type (0, 1), BuildingBlock: XIVTED_clean_linker_0, # of connection points: 2
# Relax obj value: 0.079
# Max RMSD: 0.156
# Mean RMSD: 0.088
data_MOF--net-rtl--node1-VOLQOD_clean_sbu_1--node2-ESEHIV_clean_linker_0--edge1-XIVTED_clean_linker_0
_symmetry_space_group_name_H-M    P1
_symmetry_Int_Tables_number       1
_symmetry_cell_setting            triclinic
loop_
_symmetry_equiv_pos_as_xyz
'x, y, z'
_cell_length_a     34.97461
_cell_length_b     29.996606
_cell_length_c     22.898766
_cell_angle_alpha  90.017302
_cell_angle_beta   90.859735
_cell_angle_gamma 89.850315
loop_
_atom_site_label
_atom_site_type_symbol
_atom_site_fract_x
_atom_site_fract_y
_atom_site_fract_z
_atom_type_partial_charge
H0 H 0.04927 0.76138 -0.00262 0.0
H1 H 0.12616 0.68982 0.11152 0.0
H2 H 0.13763 0.68037 0.92467 0.0
C3 C 0.07229 0.73746 0.00352 0.0
C4 C 0.09098 0.72055 0.95464 0.0
C5 C 0.08553 0.72761 0.06018 0.0
C6 C 0.11587 0.69732 0.06776 0.0
C7 C 0.13481 0.67948 0.01913 0.0
C8 C 0.12212 0.69154 0.96261 0.0
H9 H 0.56402 0.74809 0.53118 0.0
H10 H 0.64715 0.82328 0.4378 0.0
H11 H 0.63515 0.84161 0.62343 0.0
C12 C 0.58539 0.77418 0.53068 0.0
C13 C 0.59744 0.79374 0.58345 0.0
C14 C 0.60276 0.78527 0.47785 0.0
C15 C 0.63281 0.81623 0.47828 0.0
C16 C 0.64532 0.83659 0.53062 0.0
C17 C 0.6266 0.82582 0.58279 0.0
H18 H 0.9463 0.2523 0.00422 0.0
H19 H 0.85482 0.31543 0.09677 0.0
H20 H 0.86501 0.33452 0.91178 0.0
C21 C 0.9219 0.27455 0.00449 0.0
C22 C 0.90796 0.29209 0.95149 0.0
C23 C 0.90294 0.2824 0.05724 0.0
C24 C 0.87078 0.31062 0.05705 0.0
C25 C 0.85698 0.32937 0.00458 0.0
C26 C 0.87604 0.32051 0.9523 0.0
H27 H 0.43933 0.28034 0.50892 0.0
H28 H 0.35543 0.20383 0.59814 0.0
H29 H 0.37806 0.17723 0.41687 0.0
C30 C 0.41922 0.25293 0.50847 0.0
C31 C 0.41141 0.22984 0.45632 0.0
C32 C 0.3998 0.24293 0.55983 0.0
C33 C 0.37196 0.20944 0.55919 0.0
C34 C 0.36316 0.1862 0.5073 0.0
C35 C 0.38406 0.1956 0.45667 0.0
O36 O 0.91073 0.01667 0.51936 0.0
Zn37 Zn 0.9605 0.05002 0.51434 0.0
O38 O 0.00417 0.00913 0.5135 0.0
Zn39 Zn 0.03666 0.01938 0.58265 0.0
Zn40 Zn 0.98584 0.94738 0.51203 0.0
Zn41 Zn 0.03382 0.02012 0.44387 0.0
O42 O 0.0902 0.03639 0.56042 0.0
O43 O 0.08756 0.03855 0.46363 0.0
O44 O 0.96396 0.0908 0.58295 0.0
O45 O 0.01592 0.06959 0.63253 0.0
O46 O 0.04085 0.96333 0.6306 0.0
O47 O 0.00457 0.91392 0.58328 0.0
O48 O 0.00401 0.91384 0.44112 0.0
O49 O 0.95819 0.08879 0.44228 0.0
O50 O 0.03666 0.96557 0.39412 0.0
O51 O 0.00986 0.06776 0.39434 0.0
C52 C 0.90263 0.97546 0.51515 0.0
C53 C 0.10607 0.04303 0.51153 0.0
C54 C 0.02665 0.9244 0.62582 0.0
C55 C 0.98693 0.09509 0.62615 0.0
C56 C 0.02385 0.92604 0.39785 0.0
C57 C 0.98011 0.09195 0.39861 0.0
O58 O 0.92836 0.94567 0.51025 0.0
O59 O 0.5923 0.51209 0.01932 0.0
Zn60 Zn 0.54475 0.5501 0.02321 0.0
O61 O 0.49847 0.51353 0.02089 0.0
Zn62 Zn 0.46593 0.53107 0.95482 0.0
Zn63 Zn 0.51222 0.45069 0.01208 0.0
Zn64 Zn 0.47082 0.52209 0.09351 0.0
O65 O 0.41337 0.54784 0.98141 0.0
O66 O 0.41597 0.54008 0.07785 0.0
O67 O 0.54475 0.59323 0.95587 0.0
O68 O 0.4886 0.58277 0.91141 0.0
O69 O 0.45876 0.48061 0.89793 0.0
O70 O 0.48845 0.42342 0.94016 0.0
O71 O 0.49556 0.41469 0.08106 0.0
O72 O 0.54807 0.5869 0.09665 0.0
O73 O 0.47145 0.46562 0.14091 0.0
O74 O 0.49481 0.56997 0.14304 0.0
C75 C 0.59735 0.47045 0.01157 0.0
C76 C 0.3975 0.54937 0.03104 0.0
C77 C 0.46846 0.43968 0.89843 0.0
C78 C 0.52036 0.60326 0.91609 0.0
C79 C 0.48106 0.42559 0.12964 0.0
C80 C 0.52571 0.59204 0.13951 0.0
O81 O 0.56923 0.44375 0.0067 0.0
H82 H 0.3115 0.17773 0.41685 0.0
H83 H 0.15747 0.04893 0.60307 0.0
H84 H 0.33588 0.12852 0.59084 0.0
H85 H 0.14691 0.06985 0.41689 0.0
H86 H 0.22305 0.07687 0.60005 0.0
H87 H 0.25196 0.13643 0.41582 0.0
C88 C 0.30485 0.15751 0.45449 0.0
C89 C 0.32901 0.15675 0.50408 0.0
C90 C 0.20645 0.07495 0.55983 0.0
C91 C 0.25969 0.11034 0.50377 0.0
C92 C 0.16895 0.05918 0.56152 0.0
C93 C 0.14648 0.0574 0.51022 0.0
C94 C 0.22144 0.08945 0.50658 0.0
C95 C 0.16302 0.07081 0.4576 0.0
C96 C 0.2705 0.13418 0.45402 0.0
C97 C 0.31796 0.13074 0.552 0.0
N98 N 0.19934 0.08662 0.45726 0.0
N99 N 0.2839 0.10895 0.5509 0.0
H100 H 0.15996 0.60883 0.95319 0.0
H101 H 0.35893 0.58143 0.12559 0.0
H102 H 0.19188 0.6899 0.10207 0.0
H103 H 0.34364 0.54779 0.9434 0.0
H104 H 0.29243 0.60736 0.12758 0.0
H105 H 0.22242 0.57216 0.9594 0.0
C106 C 0.17988 0.61877 0.98741 0.0
C107 C 0.17055 0.65288 0.02683 0.0
C108 C 0.30368 0.59404 0.08734 0.0
C109 C 0.24176 0.61038 0.03469 0.0
C110 C 0.34152 0.57914 0.08618 0.0
C111 C 0.35691 0.56283 0.03409 0.0
C112 C 0.28098 0.5919 0.03634 0.0
C113 C 0.33306 0.56061 0.98432 0.0
C114 C 0.21545 0.5977 0.99098 0.0
C115 C 0.19735 0.6635 0.07108 0.0
N116 N 0.29626 0.57498 0.98667 0.0
N117 N 0.23176 0.64246 0.07365 0.0
H118 H 0.69929 0.84691 0.61892 0.0
H119 H 0.86417 0.92881 0.43176 0.0
H120 H 0.67169 0.89256 0.44395 0.0
H121 H 0.85075 0.99033 0.60035 0.0
H122 H 0.79765 0.90259 0.43563 0.0
H123 H 0.75883 0.8886 0.61548 0.0
C124 C 0.70506 0.86618 0.58013 0.0
C125 C 0.67998 0.86564 0.53142 0.0
C126 C 0.80928 0.92222 0.47139 0.0
C127 C 0.74933 0.91165 0.52686 0.0
C128 C 0.84703 0.93687 0.46936 0.0
C129 C 0.86249 0.96165 0.51579 0.0
C130 C 0.7876 0.93115 0.52107 0.0
C131 C 0.83947 0.97141 0.56372 0.0
C132 C 0.73935 0.88969 0.57827 0.0
C133 C 0.69031 0.89058 0.482 0.0
N134 N 0.8032 0.95534 0.56573 0.0
N135 N 0.72456 0.9118 0.48052 0.0
H136 H 0.7967 0.3139 0.93112 0.0
H137 H 0.66397 0.50855 0.05188 0.0
H138 H 0.83255 0.39781 0.07474 0.0
H139 H 0.62012 0.39113 0.96505 0.0
H140 H 0.72848 0.47628 0.04897 0.0
H141 H 0.73424 0.35041 0.93069 0.0
C142 C 0.79151 0.34043 0.96215 0.0
C143 C 0.81981 0.35309 0.00287 0.0
C144 C 0.70465 0.45774 0.03058 0.0
C145 C 0.74834 0.39474 0.00285 0.0
C146 C 0.66793 0.47615 0.03194 0.0
C147 C 0.63663 0.4524 0.00879 0.0
C148 C 0.71009 0.41574 0.00497 0.0
C149 C 0.64336 0.41049 0.98372 0.0
C150 C 0.75579 0.36097 0.96218 0.0
C151 C 0.81137 0.3871 0.04278 0.0
N152 N 0.67936 0.3936 0.98225 0.0
N153 N 0.77633 0.40696 0.04167 0.0
H154 H 0.07542 0.81731 0.06202 0.0
H155 H 0.0118 0.83524 0.39449 0.0
H156 H 0.06714 0.70089 0.17185 0.0
H157 H 0.05317 0.94507 0.29132 0.0
H158 H 0.02441 0.78478 0.31236 0.0
H159 H 0.05819 0.86387 0.14411 0.0
C160 C 0.06932 0.8014 0.10329 0.0
C161 C 0.07231 0.75502 0.10989 0.0
C162 C 0.03072 0.81994 0.30804 0.0
C163 C 0.05348 0.80863 0.20504 0.0
C164 C 0.02349 0.84874 0.35471 0.0
C165 C 0.03149 0.89447 0.34981 0.0
C166 C 0.04554 0.83723 0.25612 0.0
C167 C 0.04667 0.91012 0.29733 0.0
C168 C 0.05992 0.82814 0.15044 0.0
C169 C 0.06515 0.73653 0.165 0.0
N170 N 0.05303 0.88162 0.25263 0.0
N171 N 0.056 0.76345 0.21068 0.0
H172 H 0.52356 0.77158 0.61047 0.0
H173 H 0.58616 0.65231 0.90927 0.0
H174 H 0.63797 0.77524 0.68371 0.0
H175 H 0.47566 0.63493 0.82566 0.0
H176 H 0.60244 0.70687 0.83476 0.0
H177 H 0.50241 0.7314 0.69706 0.0
C178 C 0.54413 0.76439 0.64505 0.0
C179 C 0.58268 0.77641 0.63951 0.0
C180 C 0.57453 0.69133 0.83293 0.0
C181 C 0.55869 0.73047 0.73865 0.0
C182 C 0.5652 0.66012 0.87548 0.0
C183 C 0.52962 0.63855 0.87342 0.0
C184 C 0.54815 0.70113 0.78789 0.0
C185 C 0.50356 0.65036 0.82875 0.0
C186 C 0.53204 0.7415 0.69447 0.0
C187 C 0.60794 0.76692 0.68614 0.0
N188 N 0.51345 0.68062 0.78755 0.0
N189 N 0.59559 0.74411 0.73343 0.0
H190 H 0.90317 0.30973 0.17273 0.0
H191 H 0.0072 0.09061 0.28782 0.0
H192 H 0.92731 0.19575 0.06367 0.0
H193 H 0.93075 0.16359 0.39954 0.0
H194 H 0.98896 0.13931 0.20694 0.0
H195 H 0.9222 0.26536 0.25878 0.0
C196 C 0.91248 0.2756 0.16672 0.0
C197 C 0.91431 0.25687 0.11051 0.0
C198 C 0.97625 0.14472 0.24922 0.0
C199 C 0.93664 0.20668 0.20822 0.0
C200 C 0.98675 0.11709 0.2955 0.0
C201 C 0.97027 0.12287 0.35045 0.0
C202 C 0.94947 0.17885 0.25792 0.0
C203 C 0.94387 0.15778 0.35769 0.0
C204 C 0.92338 0.25047 0.21575 0.0
C205 C 0.92668 0.21242 0.10555 0.0
N206 N 0.93429 0.18467 0.31184 0.0
N207 N 0.93763 0.18909 0.15358 0.0
H208 H 0.41485 0.21525 0.67193 0.0
H209 H 0.43323 0.46403 0.79579 0.0
H210 H 0.39954 0.33346 0.56691 0.0
H211 H 0.4751 0.3487 0.89012 0.0
H212 H 0.41345 0.41551 0.71549 0.0
H213 H 0.42946 0.26269 0.75691 0.0
C214 C 0.41433 0.25116 0.66701 0.0
C215 C 0.40645 0.27059 0.61246 0.0
C216 C 0.42696 0.40081 0.75377 0.0
C217 C 0.42292 0.32476 0.70873 0.0
C218 C 0.43823 0.4285 0.79972 0.0
C219 C 0.45606 0.41047 0.84971 0.0
C220 C 0.43329 0.35466 0.75785 0.0
C221 C 0.46169 0.3641 0.85227 0.0
C222 C 0.42283 0.27815 0.71523 0.0
C223 C 0.4061 0.31722 0.6081 0.0
N224 N 0.45033 0.33777 0.80695 0.0
N225 N 0.41427 0.3427 0.65555 0.0
H226 H 0.64899 0.7528 0.39153 0.0
H227 H 0.48089 0.62132 0.22876 0.0
H228 H 0.53047 0.76326 0.44012 0.0
H229 H 0.59383 0.6354 0.1574 0.0
H230 H 0.49891 0.67217 0.3076 0.0
H231 H 0.62969 0.70955 0.30581 0.0
C232 C 0.61885 0.74661 0.38379 0.0
C233 C 0.59131 0.76169 0.42327 0.0
C234 C 0.51969 0.66433 0.27452 0.0
C235 C 0.56914 0.71123 0.3258 0.0
C236 C 0.50947 0.63514 0.22957 0.0
C237 C 0.53595 0.62388 0.18649 0.0
C238 C 0.55678 0.6821 0.27684 0.0
C239 C 0.5725 0.64309 0.18968 0.0
C240 C 0.60788 0.72162 0.33499 0.0
C241 C 0.55274 0.75176 0.41141 0.0
N242 N 0.58192 0.67102 0.23432 0.0
N243 N 0.54284 0.72692 0.364 0.0
H244 H 0.86726 0.27152 0.85203 0.0
H245 H 0.03076 0.11994 0.72162 0.0
H246 H 0.98244 0.27121 0.92304 0.0
H247 H 0.92526 0.15092 0.62966 0.0
H248 H 0.01496 0.17644 0.79477 0.0
H249 H 0.88953 0.23062 0.76774 0.0
C250 C 0.89746 0.26391 0.84944 0.0
C251 C 0.92288 0.27467 0.89534 0.0
C252 C 0.99552 0.17108 0.7582 0.0
C253 C 0.94837 0.22593 0.79924 0.0
C254 C 0.00441 0.13868 0.71663 0.0
C255 C 0.97912 0.13027 0.66972 0.0
C256 C 0.96097 0.19488 0.75303 0.0
C257 C 0.94553 0.15589 0.66524 0.0
C258 C 0.91011 0.24 0.80133 0.0
C259 C 0.96158 0.26278 0.88947 0.0
N260 N 0.93732 0.18667 0.70658 0.0
N261 N 0.97304 0.23842 0.84278 0.0
H262 H 0.37739 0.23329 0.34708 0.0
H263 H 0.49343 0.43362 0.24646 0.0
H264 H 0.48322 0.2644 0.43809 0.0
H265 H 0.45698 0.3398 0.11427 0.0
H266 H 0.4831 0.37661 0.32129 0.0
H267 H 0.40021 0.27395 0.26223 0.0
C268 C 0.40577 0.24755 0.34904 0.0
C269 C 0.42805 0.246 0.4007 0.0
C270 C 0.47776 0.36848 0.27579 0.0
C271 C 0.45332 0.29401 0.30433 0.0
C272 C 0.48328 0.40096 0.23334 0.0
C273 C 0.47585 0.3912 0.17447 0.0
C274 C 0.46358 0.32658 0.25927 0.0
C275 C 0.46303 0.34837 0.1594 0.0
C276 C 0.41858 0.27103 0.30056 0.0
C277 C 0.4644 0.26594 0.4002 0.0
N278 N 0.45653 0.3177 0.2018 0.0
N279 N 0.47549 0.29015 0.35337 0.0
H280 H 0.0212 0.72752 0.89944 0.0
H281 H 0.08996 0.92227 0.69665 0.0
H282 H 0.14038 0.75999 0.88032 0.0
H283 H 0.98719 0.84882 0.65465 0.0
H284 H 0.10695 0.86582 0.76942 0.0
H285 H 0.00599 0.77308 0.81299 0.0
C286 C 0.04418 0.7435 0.8762 0.0
C287 C 0.08207 0.73999 0.89669 0.0
C288 C 0.08081 0.86191 0.74399 0.0
C289 C 0.0649 0.79282 0.79948 0.0
C290 C 0.07093 0.89429 0.70285 0.0
C291 C 0.03703 0.89031 0.66981 0.0
C292 C 0.05626 0.82572 0.75306 0.0
C293 C 0.01361 0.85311 0.67924 0.0
C294 C 0.03553 0.76945 0.82711 0.0
C295 C 0.11086 0.7615 0.8655 0.0
N296 N 0.02343 0.82243 0.72058 0.0
N297 N 0.10161 0.78764 0.81899 0.0
loop_
_geom_bond_atom_site_label_1
_geom_bond_atom_site_label_2
_geom_bond_distance
_geom_bond_site_symmetry_2
_ccdc_geom_bond_type
H0 C3 0.931 . S
H1 C6 0.928 . S
H2 C8 0.930 . S
C3 H0 0.931 . S
C3 C4 1.413 1_554 S
C3 C5 1.360 . S
C4 C3 1.413 1_556 S
C4 C8 1.429 . S
C5 C3 1.360 . S
C5 C6 1.372 . S
C6 H1 0.928 . S
C6 C5 1.372 . S
C6 C7 1.404 . S
C7 C6 1.404 . S
C7 C8 1.391 1_554 S
C8 H2 0.930 . S
C8 C4 1.429 . S
C8 C7 1.391 1_556 S
H9 C12 0.931 . S
H10 C15 0.928 . S
H11 C17 0.930 . S
C12 H9 0.931 . S
C12 C13 1.413 . S
C12 C14 1.360 . S
C13 C12 1.413 . S
C13 C17 1.429 . S
C14 C12 1.360 . S
C14 C15 1.372 . S
C15 H10 0.928 . S
C15 C14 1.372 . S
C15 C16 1.404 . S
C16 C15 1.404 . S
C16 C17 1.391 . S
C17 H11 0.930 . S
C17 C13 1.429 . S
C17 C16 1.391 . S
H18 C21 0.931 . S
H19 C24 0.928 . S
H20 C26 0.930 . S
C21 H18 0.931 . S
C21 C22 1.413 1_554 S
C21 C23 1.360 . S
C22 C21 1.413 1_556 S
C22 C26 1.429 . S
C23 C21 1.360 . S
C23 C24 1.372 . S
C24 H19 0.928 . S
C24 C23 1.372 . S
C24 C25 1.404 . S
C25 C24 1.404 . S
C25 C26 1.391 1_554 S
C26 H20 0.930 . S
C26 C22 1.429 . S
C26 C25 1.391 1_556 S
H27 C30 0.931 . S
H28 C33 0.928 . S
H29 C35 0.930 . S
C30 H27 0.931 . S
C30 C31 1.413 . S
C30 C32 1.360 . S
C31 C30 1.413 . S
C31 C35 1.429 . S
C32 C30 1.360 . S
C32 C33 1.372 . S
C33 H28 0.928 . S
C33 C32 1.372 . S
C33 C34 1.404 . S
C34 C33 1.404 . S
C34 C35 1.391 . S
C35 H29 0.930 . S
C35 C31 1.429 . S
C35 C34 1.391 . S
O36 Zn37 1.953 1_565 S
O36 C52 1.225 . S
Zn37 O36 1.953 1_545 S
Zn37 O38 1.949 1_655 S
Zn37 O44 1.919 . S
Zn37 O49 1.924 . S
O38 Zn37 1.949 1_455 S
O38 Zn39 1.923 . S
O38 Zn40 1.950 1_445 S
O38 Zn41 1.945 . S
Zn39 O38 1.923 . S
Zn39 O42 1.933 . S
Zn39 O45 1.941 . S
Zn39 O46 1.965 1_545 S
Zn40 O38 1.950 1_665 S
Zn40 O47 1.938 1_655 S
Zn40 O48 1.906 1_655 S
Zn40 O58 1.953 . S
Zn41 O38 1.945 . S
Zn41 O43 1.932 . S
Zn41 O50 1.977 1_545 S
Zn41 O51 1.910 1_455 S
O42 Zn39 1.933 . S
O42 C53 1.226 . S
O43 Zn41 1.932 . S
O43 C53 1.307 . S
O44 Zn37 1.919 . S
O44 C55 1.253 . S
O45 Zn39 1.941 . S
O45 C55 1.283 1_455 S
O46 Zn39 1.965 1_565 S
O46 C54 1.303 . S
O47 Zn40 1.938 1_455 S
O47 C54 1.247 . S
O48 Zn40 1.906 1_455 S
O48 C56 1.304 . S
O49 Zn37 1.924 . S
O49 C57 1.311 . S
O50 Zn41 1.977 1_565 S
O50 C56 1.272 . S
O51 Zn41 1.910 1_655 S
O51 C57 1.231 . S
C52 O36 1.225 . S
C52 O58 1.298 . S
C53 O42 1.226 . S
C53 O43 1.307 . S
C54 O46 1.303 . S
C54 O47 1.247 . S
C55 O44 1.253 . S
C55 O45 1.283 1_655 S
C56 O48 1.304 . S
C56 O50 1.272 . S
C57 O49 1.311 . S
C57 O51 1.231 . S
O58 Zn40 1.953 . S
O58 C52 1.298 . S
O59 Zn60 1.953 . S
O59 C75 1.225 . S
Zn60 O59 1.953 . S
Zn60 O61 1.949 . S
Zn60 O67 1.919 1_554 S
Zn60 O72 1.924 . S
O61 Zn60 1.949 . S
O61 Zn62 1.923 1_554 S
O61 Zn63 1.950 . S
O61 Zn64 1.945 . S
Zn62 O61 1.923 1_556 S
Zn62 O65 1.933 . S
Zn62 O68 1.941 . S
Zn62 O69 1.965 . S
Zn63 O61 1.950 . S
Zn63 O70 1.938 1_554 S
Zn63 O71 1.906 . S
Zn63 O81 1.953 . S
Zn64 O61 1.945 . S
Zn64 O66 1.932 . S
Zn64 O73 1.977 . S
Zn64 O74 1.910 . S
O65 Zn62 1.933 . S
O65 C76 1.226 1_556 S
O66 Zn64 1.932 . S
O66 C76 1.307 . S
O67 Zn60 1.919 1_556 S
O67 C78 1.253 . S
O68 Zn62 1.941 . S
O68 C78 1.283 . S
O69 Zn62 1.965 . S
O69 C77 1.303 . S
O70 Zn63 1.938 1_556 S
O70 C77 1.247 . S
O71 Zn63 1.906 . S
O71 C79 1.304 . S
O72 Zn60 1.924 . S
O72 C80 1.311 . S
O73 Zn64 1.977 . S
O73 C79 1.272 . S
O74 Zn64 1.910 . S
O74 C80 1.231 . S
C75 O59 1.225 . S
C75 O81 1.298 . S
C76 O65 1.226 1_554 S
C76 O66 1.307 . S
C77 O69 1.303 . S
C77 O70 1.247 . S
C78 O67 1.253 . S
C78 O68 1.283 . S
C79 O71 1.304 . S
C79 O73 1.272 . S
C80 O72 1.311 . S
C80 O74 1.231 . S
O81 Zn63 1.953 . S
O81 C75 1.298 . S
H82 C88 0.930 . S
H83 C92 0.930 . S
H84 C97 0.929 . S
H85 C95 0.929 . S
H86 C90 0.929 . S
H87 C96 0.929 . S
C88 H82 0.930 . S
C88 C89 1.367 . S
C88 C96 1.378 . S
C89 C88 1.367 . S
C89 C97 1.433 . S
C90 H86 0.929 . S
C90 C92 1.378 . S
C90 C94 1.350 . S
C91 C94 1.463 . S
C91 C96 1.350 . S
C91 N99 1.427 . S
C92 H83 0.930 . S
C92 C90 1.378 . S
C92 C93 1.367 . S
C93 C92 1.367 . S
C93 C95 1.433 . S
C94 C90 1.350 . S
C94 C91 1.463 . S
C94 N98 1.427 . S
C95 H85 0.929 . S
C95 C93 1.433 . S
C95 N98 1.384 . S
C96 H87 0.929 . S
C96 C88 1.378 . S
C96 C91 1.350 . S
C97 H84 0.929 . S
C97 C89 1.433 . S
C97 N99 1.384 . S
N98 C94 1.427 . S
N98 C95 1.384 . S
N99 C91 1.427 . S
N99 C97 1.384 . S
H100 C106 0.930 . S
H101 C110 0.930 . S
H102 C115 0.929 . S
H103 C113 0.929 . S
H104 C108 0.929 . S
H105 C114 0.929 . S
C106 H100 0.930 . S
C106 C107 1.367 1_556 S
C106 C114 1.378 . S
C107 C106 1.367 1_554 S
C107 C115 1.433 . S
C108 H104 0.929 . S
C108 C110 1.378 . S
C108 C112 1.350 . S
C109 C112 1.463 . S
C109 C114 1.350 1_554 S
C109 N117 1.427 . S
C110 H101 0.930 . S
C110 C108 1.378 . S
C110 C111 1.367 . S
C111 C110 1.367 . S
C111 C113 1.433 1_554 S
C112 C108 1.350 . S
C112 C109 1.463 . S
C112 N116 1.427 1_554 S
C113 H103 0.929 . S
C113 C111 1.433 1_556 S
C113 N116 1.384 . S
C114 H105 0.929 . S
C114 C106 1.378 . S
C114 C109 1.350 1_556 S
C115 H102 0.929 . S
C115 C107 1.433 . S
C115 N117 1.384 . S
N116 C112 1.427 1_556 S
N116 C113 1.384 . S
N117 C109 1.427 . S
N117 C115 1.384 . S
H118 C124 0.930 . S
H119 C128 0.930 . S
H120 C133 0.929 . S
H121 C131 0.929 . S
H122 C126 0.929 . S
H123 C132 0.929 . S
C124 H118 0.930 . S
C124 C125 1.367 . S
C124 C132 1.378 . S
C125 C124 1.367 . S
C125 C133 1.433 . S
C126 H122 0.929 . S
C126 C128 1.378 . S
C126 C130 1.350 . S
C127 C130 1.463 . S
C127 C132 1.350 . S
C127 N135 1.427 . S
C128 H119 0.930 . S
C128 C126 1.378 . S
C128 C129 1.367 . S
C129 C128 1.367 . S
C129 C131 1.433 . S
C130 C126 1.350 . S
C130 C127 1.463 . S
C130 N134 1.427 . S
C131 H121 0.929 . S
C131 C129 1.433 . S
C131 N134 1.384 . S
C132 H123 0.929 . S
C132 C124 1.378 . S
C132 C127 1.350 . S
C133 H120 0.929 . S
C133 C125 1.433 . S
C133 N135 1.384 . S
N134 C130 1.427 . S
N134 C131 1.384 . S
N135 C127 1.427 . S
N135 C133 1.384 . S
H136 C142 0.930 . S
H137 C146 0.930 . S
H138 C151 0.929 . S
H139 C149 0.929 . S
H140 C144 0.929 . S
H141 C150 0.929 . S
C142 H136 0.930 . S
C142 C143 1.367 1_556 S
C142 C150 1.378 . S
C143 C142 1.367 1_554 S
C143 C151 1.433 . S
C144 H140 0.929 . S
C144 C146 1.378 . S
C144 C148 1.350 . S
C145 C148 1.463 . S
C145 C150 1.350 1_554 S
C145 N153 1.427 . S
C146 H137 0.930 . S
C146 C144 1.378 . S
C146 C147 1.367 . S
C147 C146 1.367 . S
C147 C149 1.433 1_554 S
C148 C144 1.350 . S
C148 C145 1.463 . S
C148 N152 1.427 1_554 S
C149 H139 0.929 . S
C149 C147 1.433 1_556 S
C149 N152 1.384 . S
C150 H141 0.929 . S
C150 C142 1.378 . S
C150 C145 1.350 1_556 S
C151 H138 0.929 . S
C151 C143 1.433 . S
C151 N153 1.384 . S
N152 C148 1.427 1_556 S
N152 C149 1.384 . S
N153 C145 1.427 . S
N153 C151 1.384 . S
H154 C160 0.930 . S
H155 C164 0.930 . S
H156 C169 0.929 . S
H157 C167 0.929 . S
H158 C162 0.929 . S
H159 C168 0.929 . S
C160 H154 0.930 . S
C160 C161 1.367 . S
C160 C168 1.378 . S
C161 C160 1.367 . S
C161 C169 1.433 . S
C162 H158 0.929 . S
C162 C164 1.378 . S
C162 C166 1.350 . S
C163 C166 1.463 . S
C163 C168 1.350 . S
C163 N171 1.427 . S
C164 H155 0.930 . S
C164 C162 1.378 . S
C164 C165 1.367 . S
C165 C164 1.367 . S
C165 C167 1.433 . S
C166 C162 1.350 . S
C166 C163 1.463 . S
C166 N170 1.427 . S
C167 H157 0.929 . S
C167 C165 1.433 . S
C167 N170 1.384 . S
C168 H159 0.929 . S
C168 C160 1.378 . S
C168 C163 1.350 . S
C169 H156 0.929 . S
C169 C161 1.433 . S
C169 N171 1.384 . S
N170 C166 1.427 . S
N170 C167 1.384 . S
N171 C163 1.427 . S
N171 C169 1.384 . S
H172 C178 0.930 . S
H173 C182 0.930 . S
H174 C187 0.929 . S
H175 C185 0.929 . S
H176 C180 0.929 . S
H177 C186 0.929 . S
C178 H172 0.930 . S
C178 C179 1.367 . S
C178 C186 1.378 . S
C179 C178 1.367 . S
C179 C187 1.433 . S
C180 H176 0.929 . S
C180 C182 1.378 . S
C180 C184 1.350 . S
C181 C184 1.463 . S
C181 C186 1.350 . S
C181 N189 1.427 . S
C182 H173 0.930 . S
C182 C180 1.378 . S
C182 C183 1.367 . S
C183 C182 1.367 . S
C183 C185 1.433 . S
C184 C180 1.350 . S
C184 C181 1.463 . S
C184 N188 1.427 . S
C185 H175 0.929 . S
C185 C183 1.433 . S
C185 N188 1.384 . S
C186 H177 0.929 . S
C186 C178 1.378 . S
C186 C181 1.350 . S
C187 H174 0.929 . S
C187 C179 1.433 . S
C187 N189 1.384 . S
N188 C184 1.427 . S
N188 C185 1.384 . S
N189 C181 1.427 . S
N189 C187 1.384 . S
H190 C196 0.930 . S
H191 C200 0.930 . S
H192 C205 0.929 . S
H193 C203 0.929 . S
H194 C198 0.929 . S
H195 C204 0.929 . S
C196 H190 0.930 . S
C196 C197 1.367 . S
C196 C204 1.378 . S
C197 C196 1.367 . S
C197 C205 1.433 . S
C198 H194 0.929 . S
C198 C200 1.378 . S
C198 C202 1.350 . S
C199 C202 1.463 . S
C199 C204 1.350 . S
C199 N207 1.427 . S
C200 H191 0.930 . S
C200 C198 1.378 . S
C200 C201 1.367 . S
C201 C200 1.367 . S
C201 C203 1.433 . S
C202 C198 1.350 . S
C202 C199 1.463 . S
C202 N206 1.427 . S
C203 H193 0.929 . S
C203 C201 1.433 . S
C203 N206 1.384 . S
C204 H195 0.929 . S
C204 C196 1.378 . S
C204 C199 1.350 . S
C205 H192 0.929 . S
C205 C197 1.433 . S
C205 N207 1.384 . S
N206 C202 1.427 . S
N206 C203 1.384 . S
N207 C199 1.427 . S
N207 C205 1.384 . S
H208 C214 0.930 . S
H209 C218 0.930 . S
H210 C223 0.929 . S
H211 C221 0.929 . S
H212 C216 0.929 . S
H213 C222 0.929 . S
C214 H208 0.930 . S
C214 C215 1.367 . S
C214 C222 1.378 . S
C215 C214 1.367 . S
C215 C223 1.433 . S
C216 H212 0.929 . S
C216 C218 1.378 . S
C216 C220 1.350 . S
C217 C220 1.463 . S
C217 C222 1.350 . S
C217 N225 1.427 . S
C218 H209 0.930 . S
C218 C216 1.378 . S
C218 C219 1.367 . S
C219 C218 1.367 . S
C219 C221 1.433 . S
C220 C216 1.350 . S
C220 C217 1.463 . S
C220 N224 1.427 . S
C221 H211 0.929 . S
C221 C219 1.433 . S
C221 N224 1.384 . S
C222 H213 0.929 . S
C222 C214 1.378 . S
C222 C217 1.350 . S
C223 H210 0.929 . S
C223 C215 1.433 . S
C223 N225 1.384 . S
N224 C220 1.427 . S
N224 C221 1.384 . S
N225 C217 1.427 . S
N225 C223 1.384 . S
H226 C232 0.930 . S
H227 C236 0.930 . S
H228 C241 0.929 . S
H229 C239 0.929 . S
H230 C234 0.929 . S
H231 C240 0.929 . S
C232 H226 0.930 . S
C232 C233 1.367 . S
C232 C240 1.378 . S
C233 C232 1.367 . S
C233 C241 1.433 . S
C234 H230 0.929 . S
C234 C236 1.378 . S
C234 C238 1.350 . S
C235 C238 1.463 . S
C235 C240 1.350 . S
C235 N243 1.427 . S
C236 H227 0.930 . S
C236 C234 1.378 . S
C236 C237 1.367 . S
C237 C236 1.367 . S
C237 C239 1.433 . S
C238 C234 1.350 . S
C238 C235 1.463 . S
C238 N242 1.427 . S
C239 H229 0.929 . S
C239 C237 1.433 . S
C239 N242 1.384 . S
C240 H231 0.929 . S
C240 C232 1.378 . S
C240 C235 1.350 . S
C241 H228 0.929 . S
C241 C233 1.433 . S
C241 N243 1.384 . S
N242 C238 1.427 . S
N242 C239 1.384 . S
N243 C235 1.427 . S
N243 C241 1.384 . S
H244 C250 0.930 . S
H245 C254 0.930 1_455 S
H246 C259 0.929 . S
H247 C257 0.929 . S
H248 C252 0.929 . S
H249 C258 0.929 . S
C250 H244 0.930 . S
C250 C251 1.367 . S
C250 C258 1.378 . S
C251 C250 1.367 . S
C251 C259 1.433 . S
C252 H248 0.929 . S
C252 C254 1.378 . S
C252 C256 1.350 . S
C253 C256 1.463 . S
C253 C258 1.350 . S
C253 N261 1.427 . S
C254 H245 0.930 1_655 S
C254 C252 1.378 . S
C254 C255 1.367 . S
C255 C254 1.367 . S
C255 C257 1.433 . S
C256 C252 1.350 . S
C256 C253 1.463 . S
C256 N260 1.427 . S
C257 H247 0.929 . S
C257 C255 1.433 . S
C257 N260 1.384 . S
C258 H249 0.929 . S
C258 C250 1.378 . S
C258 C253 1.350 . S
C259 H246 0.929 . S
C259 C251 1.433 . S
C259 N261 1.384 . S
N260 C256 1.427 . S
N260 C257 1.384 . S
N261 C253 1.427 . S
N261 C259 1.384 . S
H262 C268 0.930 . S
H263 C272 0.930 . S
H264 C277 0.929 . S
H265 C275 0.929 . S
H266 C270 0.929 . S
H267 C276 0.929 . S
C268 H262 0.930 . S
C268 C269 1.367 . S
C268 C276 1.378 . S
C269 C268 1.367 . S
C269 C277 1.433 . S
C270 H266 0.929 . S
C270 C272 1.378 . S
C270 C274 1.350 . S
C271 C274 1.463 . S
C271 C276 1.350 . S
C271 N279 1.427 . S
C272 H263 0.930 . S
C272 C270 1.378 . S
C272 C273 1.367 . S
C273 C272 1.367 . S
C273 C275 1.433 . S
C274 C270 1.350 . S
C274 C271 1.463 . S
C274 N278 1.427 . S
C275 H265 0.929 . S
C275 C273 1.433 . S
C275 N278 1.384 . S
C276 H267 0.929 . S
C276 C268 1.378 . S
C276 C271 1.350 . S
C277 H264 0.929 . S
C277 C269 1.433 . S
C277 N279 1.384 . S
N278 C274 1.427 . S
N278 C275 1.384 . S
N279 C271 1.427 . S
N279 C277 1.384 . S
H280 C286 0.930 . S
H281 C290 0.930 . S
H282 C295 0.929 . S
H283 C293 0.933 . S
H284 C288 0.929 . S
H285 C294 0.929 . S
C286 H280 0.930 . S
C286 C287 1.367 . S
C286 C294 1.378 . S
C287 C286 1.367 . S
C287 C295 1.433 . S
C288 H284 0.929 . S
C288 C290 1.378 . S
C288 C292 1.350 . S
C289 C292 1.463 . S
C289 C294 1.350 . S
C289 N297 1.427 . S
C290 H281 0.930 . S
C290 C288 1.378 . S
C290 C291 1.367 . S
C291 C290 1.367 . S
C291 C293 1.431 1_455 S
C292 C288 1.350 . S
C292 C289 1.463 . S
C292 N296 1.427 . S
C293 H283 0.933 . S
C293 C291 1.431 1_655 S
C293 N296 1.382 1_655 S
C294 H285 0.929 . S
C294 C286 1.378 . S
C294 C289 1.350 . S
C295 H282 0.929 . S
C295 C287 1.433 . S
C295 N297 1.384 . S
N296 C292 1.427 . S
N296 C293 1.382 1_455 S
N297 C289 1.427 . S
N297 C295 1.384 . S
C93 C53 1.529 . S
C89 C34 1.517 . S
C107 C7 1.515 . S
C111 C76 1.531 . S
C125 C16 1.528 . S
C129 C52 1.546 . S
C143 C25 1.525 . S
C147 C75 1.545 . S
C165 C56 1.491 . S
C161 C5 1.515 . S
C183 C78 1.501 . S
C179 C13 1.552 . S
C197 C23 1.535 . S
C201 C57 1.506 . S
C215 C32 1.542 . S
C219 C77 1.506 . S
C237 C80 1.495 . S
C233 C14 1.527 . S
C255 C55 1.507 . S
C251 C22 1.548 . S
C273 C79 1.479 . S
C269 C31 1.522 . S
C287 C4 1.534 . S
C291 C54 1.496 . S
