# Generated by pormake.
# Topology zzz, (3,6)-cn, num edge types: 1
# Building blocks:
#     Node 0, Type 0, BuildingBlock: BELTOD_clean_linker_0, # of connection points: 3
#     Node 1, Type 0, BuildingBlock: BELTOD_clean_linker_0, # of connection points: 3
#     Node 2, Type 0, BuildingBlock: BELTOD_clean_linker_0, # of connection points: 3
#     Node 3, Type 0, BuildingBlock: BELTOD_clean_linker_0, # of connection points: 3
#     Node 4, Type 0, BuildingBlock: BELTOD_clean_linker_0, # of connection points: 3
#     Node 5, Type 0, BuildingBlock: BELTOD_clean_linker_0, # of connection points: 3
#     Node 6, Type 0, BuildingBlock: BELTOD_clean_linker_0, # of connection points: 3
#     Node 7, Type 0, BuildingBlock: BELTOD_clean_linker_0, # of connection points: 3
#     Node 8, Type 1, BuildingBlock: NUHQIS_clean_sbu_0, # of connection points: 6
#     Node 9, Type 1, BuildingBlock: NUHQIS_clean_sbu_0, # of connection points: 6
#     Node 10, Type 1, BuildingBlock: NUHQIS_clean_sbu_0, # of connection points: 6
#     Node 11, Type 1, BuildingBlock: NUHQIS_clean_sbu_0, # of connection points: 6
#     Edge 12, Type (0, 1), BuildingBlock: AJUNOK_clean_linker_0, # of connection points: 2
#     Edge 13, Type (0, 1), BuildingBlock: AJUNOK_clean_linker_0, # of connection points: 2
#     Edge 14, Type (0, 1), BuildingBlock: AJUNOK_clean_linker_0, # of connection points: 2
#     Edge 15, Type (0, 1), BuildingBlock: AJUNOK_clean_linker_0, # of connection points: 2
#     Edge 16, Type (0, 1), BuildingBlock: AJUNOK_clean_linker_0, # of connection points: 2
#     Edge 17, Type (0, 1), BuildingBlock: AJUNOK_clean_linker_0, # of connection points: 2
#     Edge 18, Type (0, 1), BuildingBlock: AJUNOK_clean_linker_0, # of connection points: 2
#     Edge 19, Type (0, 1), BuildingBlock: AJUNOK_clean_linker_0, # of connection points: 2
#     Edge 20, Type (0, 1), BuildingBlock: AJUNOK_clean_linker_0, # of connection points: 2
#     Edge 21, Type (0, 1), BuildingBlock: AJUNOK_clean_linker_0, # of connection points: 2
#     Edge 22, Type (0, 1), BuildingBlock: AJUNOK_clean_linker_0, # of connection points: 2
#     Edge 23, Type (0, 1), BuildingBlock: AJUNOK_clean_linker_0, # of connection points: 2
#     Edge 24, Type (0, 1), BuildingBlock: AJUNOK_clean_linker_0, # of connection points: 2
#     Edge 25, Type (0, 1), BuildingBlock: AJUNOK_clean_linker_0, # of connection points: 2
#     Edge 26, Type (0, 1), BuildingBlock: AJUNOK_clean_linker_0, # of connection points: 2
#     Edge 27, Type (0, 1), BuildingBlock: AJUNOK_clean_linker_0, # of connection points: 2
#     Edge 28, Type (0, 1), BuildingBlock: AJUNOK_clean_linker_0, # of connection points: 2
#     Edge 29, Type (0, 1), BuildingBlock: AJUNOK_clean_linker_0, # of connection points: 2
#     Edge 30, Type (0, 1), BuildingBlock: AJUNOK_clean_linker_0, # of connection points: 2
#     Edge 31, Type (0, 1), BuildingBlock: AJUNOK_clean_linker_0, # of connection points: 2
#     Edge 32, Type (0, 1), BuildingBlock: AJUNOK_clean_linker_0, # of connection points: 2
#     Edge 33, Type (0, 1), BuildingBlock: AJUNOK_clean_linker_0, # of connection points: 2
#     Edge 34, Type (0, 1), BuildingBlock: AJUNOK_clean_linker_0, # of connection points: 2
#     Edge 35, Type (0, 1), BuildingBlock: AJUNOK_clean_linker_0, # of connection points: 2
# Relax obj value: 0.472
# Max RMSD: 0.235
# Mean RMSD: 0.224
data_MOF--net-zzz--node1-NUHQIS_clean_sbu_0--node2-BELTOD_clean_linker_0--edge1-AJUNOK_clean_linker_0
_symmetry_space_group_name_H-M    P1
_symmetry_Int_Tables_number       1
_symmetry_cell_setting            triclinic
loop_
_symmetry_equiv_pos_as_xyz
'x, y, z'
_cell_length_a     42.364719
_cell_length_b     42.411226
_cell_length_c     13.784502
_cell_angle_alpha  90.035163
_cell_angle_beta   89.63089
_cell_angle_gamma 90.111285
loop_
_atom_site_label
_atom_site_type_symbol
_atom_site_fract_x
_atom_site_fract_y
_atom_site_fract_z
_atom_type_partial_charge
P0 P 0.72523 0.47915 0.42864 0.0
H1 H 0.74568 0.49843 0.62301 0.0
H2 H 0.79801 0.51115 0.68469 0.0
H3 H 0.83275 0.52046 0.39116 0.0
H4 H 0.78001 0.50845 0.32972 0.0
H5 H 0.66595 0.45217 0.373 0.0
H6 H 0.62515 0.46628 0.25783 0.0
H7 H 0.67566 0.55192 0.18879 0.0
H8 H 0.71712 0.53717 0.3057 0.0
H9 H 0.75992 0.42409 0.49443 0.0
H10 H 0.73562 0.46733 0.22187 0.0
O11 O 0.70748 0.46335 0.5255 0.0
H12 H 0.79993 0.39214 0.4117 0.0
H13 H 0.77548 0.43609 0.13983 0.0
C14 C 0.75847 0.50263 0.47124 0.0
C15 C 0.76409 0.50451 0.5715 0.0
C16 C 0.79433 0.51134 0.60698 0.0
C17 C 0.8199 0.51653 0.54325 0.0
C18 C 0.81371 0.51702 0.4428 0.0
C19 C 0.78333 0.5103 0.40735 0.0
C20 C 0.69407 0.49409 0.35107 0.0
C21 C 0.66781 0.47455 0.33579 0.0
C22 C 0.64437 0.48267 0.26954 0.0
C23 C 0.64647 0.51069 0.21557 0.0
C24 C 0.67303 0.53034 0.2301 0.0
C25 C 0.69667 0.5221 0.29731 0.0
C26 C 0.74455 0.44781 0.3642 0.0
C27 C 0.76211 0.42561 0.41625 0.0
C28 C 0.78506 0.4075 0.36909 0.0
C29 C 0.79076 0.41152 0.26933 0.0
C30 C 0.77117 0.43182 0.21625 0.0
C31 C 0.74833 0.44989 0.2634 0.0
P32 P 0.04048 0.72045 0.43119 0.0
H33 H 0.03889 0.74444 0.63079 0.0
H34 H 0.02854 0.79689 0.69458 0.0
H35 H 0.98674 0.82331 0.42163 0.0
H36 H 0.99923 0.7712 0.35603 0.0
H37 H 0.0319 0.65188 0.43979 0.0
H38 H 0.01855 0.61303 0.31647 0.0
H39 H 0.98997 0.68783 0.12429 0.0
H40 H 1.00389 0.72682 0.24832 0.0
H41 H 0.08303 0.77257 0.47673 0.0
H42 H 0.06772 0.71044 0.23317 0.0
O43 O 0.05832 0.69989 0.51823 0.0
H44 H 0.10948 0.81014 0.37012 0.0
H45 H 0.09394 0.74828 0.12648 0.0
C46 C 0.01957 0.75329 0.48831 0.0
C47 C 0.02656 0.76105 0.58513 0.0
C48 C 0.0208 0.79143 0.62175 0.0
C49 C 1.00767 0.81506 0.56283 0.0
C50 C 0.99808 0.80635 0.46849 0.0
C51 C 1.00437 0.77604 0.43134 0.0
C52 C 0.01923 0.69255 0.35401 0.0
C53 C 0.02192 0.66006 0.37241 0.0
C54 C 0.01413 0.63766 0.30137 0.0
C55 C 1.00342 0.6471 0.20946 0.0
C56 C 0.99842 0.6796 0.19379 0.0
C57 C 1.00596 0.70203 0.2655 0.0
C58 C 0.07115 0.73983 0.36172 0.0
C59 C 0.08595 0.76656 0.4009 0.0
C60 C 0.10145 0.78793 0.34015 0.0
C61 C 0.10269 0.78246 0.23989 0.0
C62 C 0.09248 0.75327 0.20348 0.0
C63 C 0.07698 0.73188 0.26441 0.0
P64 P 0.78693 0.04748 0.43721 0.0
H65 H 0.75898 0.0506 0.63036 0.0
H66 H 0.70677 0.03743 0.68979 0.0
H67 H 0.68975 0.98308 0.43004 0.0
H68 H 0.74128 0.99916 0.36665 0.0
H69 H 0.84923 0.07023 0.38778 0.0
H70 H 0.88798 0.05597 0.26501 0.0
H71 H 0.83184 0.97491 0.18701 0.0
H72 H 0.7924 0.98975 0.31043 0.0
H73 H 0.75406 0.10587 0.48524 0.0
H74 H 0.76889 0.04723 0.23325 0.0
O75 O 0.80528 0.06784 0.524 0.0
H76 H 0.71104 0.13299 0.40189 0.0
H77 H 0.72598 0.07357 0.1512 0.0
C78 C 0.75496 0.02531 0.49443 0.0
C79 C 0.74458 0.03502 0.58681 0.0
C80 C 0.71425 0.02754 0.62099 0.0
C81 C 0.69318 1.00973 0.56437 0.0
C82 C 0.70451 0.9979 0.47479 0.0
C83 C 0.73471 1.00616 0.43944 0.0
C84 C 0.81785 0.03091 0.36014 0.0
C85 C 0.84539 0.04889 0.34622 0.0
C86 C 0.8677 0.04074 0.2754 0.0
C87 C 0.86312 0.01439 0.21523 0.0
C88 C 0.83595 0.99568 0.23091 0.0
C89 C 0.81347 1.00392 0.30248 0.0
C90 C 0.76494 0.07478 0.36509 0.0
C91 C 0.74899 0.09973 0.41067 0.0
C92 C 0.72421 0.11496 0.3635 0.0
C93 C 0.71491 0.10505 0.27073 0.0
C94 C 0.73278 0.08194 0.22236 0.0
C95 C 0.75746 0.0668 0.26939 0.0
P96 P 0.4792 0.7966 0.44445 0.0
H97 H 0.50197 0.77859 0.63764 0.0
H98 H 0.51744 0.72723 0.70155 0.0
H99 H 0.52198 0.6904 0.4098 0.0
H100 H 0.50753 0.74196 0.34634 0.0
H101 H 0.46292 0.8619 0.40733 0.0
H102 H 0.47497 0.89807 0.2748 0.0
H103 H 0.54012 0.8304 0.15367 0.0
H104 H 0.52766 0.79381 0.28696 0.0
H105 H 0.42996 0.75723 0.52783 0.0
H106 H 0.45951 0.78693 0.24199 0.0
O107 O 0.46528 0.81624 0.54055 0.0
H108 H 0.40093 0.71316 0.45631 0.0
H109 H 0.43122 0.74307 0.17113 0.0
C110 C 0.50395 0.76455 0.4867 0.0
C111 C 0.50772 0.75995 0.5869 0.0
C112 C 0.5161 0.7303 0.62368 0.0
C113 C 0.52082 0.70446 0.56116 0.0
C114 C 0.5192 0.70974 0.46038 0.0
C115 C 0.51108 0.73948 0.42368 0.0
C116 C 0.4947 0.82519 0.35838 0.0
C117 C 0.48046 0.85502 0.35394 0.0
C118 C 0.48733 0.87578 0.27784 0.0
C119 C 0.50834 0.86715 0.20323 0.0
C120 C 0.5235 0.83765 0.20935 0.0
C121 C 0.51669 0.81682 0.28619 0.0
C122 C 0.44696 0.77542 0.39051 0.0
C123 C 0.42888 0.7553 0.44955 0.0
C124 C 0.4125 0.72998 0.40876 0.0
C125 C 0.41391 0.72461 0.30828 0.0
C126 C 0.4292 0.74684 0.24864 0.0
C127 C 0.44563 0.77202 0.28947 0.0
P128 P 0.28906 0.48278 0.15246 0.0
H129 H 0.2679 0.45039 0.97533 0.0
H130 H 0.21943 0.45727 0.88267 0.0
H131 H 0.20505 0.54788 0.01823 0.0
H132 H 0.25456 0.54199 0.10449 0.0
H133 H 0.33326 0.43529 0.22102 0.0
H134 H 0.38352 0.44067 0.30165 0.0
H135 H 0.39053 0.53689 0.20367 0.0
H136 H 0.3402 0.5309 0.1166 0.0
H137 H 0.23461 0.47295 0.27622 0.0
H138 H 0.30764 0.54347 0.24509 0.0
O139 O 0.27804 0.44542 0.17119 0.0
H140 H 0.20707 0.50696 0.38964 0.0
H141 H 0.28091 0.57679 0.36233 0.0
C142 C 0.26503 0.49523 0.04944 0.0
C143 C 0.25516 0.4724 0.98213 0.0
C144 C 0.22672 0.476 0.931 0.0
C145 C 0.20704 0.50236 0.94684 0.0
C146 C 0.21895 0.52689 1.00521 0.0
C147 C 0.24768 0.52351 0.05485 0.0
C148 C 0.33206 0.48294 0.16389 0.0
C149 C 0.34598 0.45723 0.21195 0.0
C150 C 0.37499 0.46031 0.25903 0.0
C151 C 0.39087 0.48935 0.26067 0.0
C152 C 0.37868 0.51426 0.20445 0.0
C153 C 0.3499 0.51079 0.15443 0.0
C154 C 0.2739 0.50485 0.25402 0.0
C155 C 0.24559 0.49499 0.29701 0.0
C156 C 0.22991 0.51449 0.36239 0.0
C157 C 0.2424 0.54419 0.38691 0.0
C158 C 0.27114 0.55379 0.34592 0.0
C159 C 0.28669 0.53434 0.27949 0.0
P160 P 0.05895 0.28686 0.10205 0.0
H161 H 0.06815 0.26485 0.90104 0.0
H162 H 0.05105 0.21543 0.82706 0.0
H163 H 0.98086 0.20406 0.05193 0.0
H164 H 0.99747 0.25416 0.12467 0.0
H165 H 0.0971 0.33848 0.17243 0.0
H166 H 0.08672 0.38193 0.28335 0.0
H167 H 0.98708 0.36164 0.27312 0.0
H168 H 0.99764 0.31739 0.16054 0.0
H169 H 0.08839 0.22519 0.11073 0.0
H170 H 0.03704 0.28604 0.30688 0.0
O171 O 0.09434 0.29138 0.04984 0.0
H172 H 0.06622 0.17922 0.19262 0.0
H173 H 0.01522 0.24027 0.38854 0.0
C174 C 0.03438 0.26363 0.01955 0.0
C175 C 0.04795 0.2528 0.93214 0.0
C176 C 0.03838 0.2241 0.89013 0.0
C177 C 0.01519 0.20522 0.93495 0.0
C178 C 0.99921 0.21769 0.01637 0.0
C179 C 1.00835 0.24678 0.05715 0.0
C180 C 0.04817 0.32471 0.15608 0.0
C181 C 0.0728 0.34381 0.19077 0.0
C182 C 0.06692 0.36856 0.25552 0.0
C183 C 0.03617 0.37501 0.28824 0.0
C184 C 1.01106 0.35725 0.24914 0.0
C185 C 0.01703 0.33213 0.18405 0.0
C186 C 0.06319 0.25906 0.19937 0.0
C187 C 0.074 0.22878 0.17503 0.0
C188 C 0.06101 0.20246 0.22111 0.0
C189 C 0.03779 0.20655 0.29298 0.0
C190 C 0.03219 0.23678 0.33038 0.0
C191 C 0.0449 0.26302 0.28369 0.0
P192 P 0.22434 0.05557 0.10178 0.0
H193 H 0.24641 0.064 0.90204 0.0
H194 H 0.29396 0.04541 0.82243 0.0
H195 H 0.30555 0.97517 0.04568 0.0
H196 H 0.25811 0.99482 0.12761 0.0
H197 H 0.16668 0.08771 0.15838 0.0
H198 H 0.12384 0.07551 0.27025 0.0
H199 H 0.16247 0.98273 0.31537 0.0
H200 H 0.20559 0.99488 0.20014 0.0
H201 H 0.27291 0.10471 0.09524 0.0
H202 H 0.24362 0.03034 0.28897 0.0
O203 O 0.21358 0.08748 0.03934 0.0
H204 H 0.3251 0.10492 0.16915 0.0
H205 H 0.29558 0.02801 0.35545 0.0
C206 C 0.24789 0.03073 0.021 0.0
C207 C 0.2581 0.0436 0.93212 0.0
C208 C 0.2857 0.03288 0.88612 0.0
C209 C 0.30397 1.00865 0.92702 0.0
C210 C 0.29235 0.994 0.01199 0.0
C211 C 0.26467 1.00487 0.05822 0.0
C212 C 0.18946 0.04215 0.16883 0.0
C213 C 0.1657 0.0643 0.18955 0.0
C214 C 0.14106 0.05736 0.25424 0.0
C215 C 0.13955 0.02811 0.30183 0.0
C216 C 0.16295 1.00551 0.27998 0.0
C217 C 0.18752 0.01237 0.21347 0.0
C218 C 0.25432 0.06732 0.18593 0.0
C219 C 0.27729 0.0892 0.15603 0.0
C220 C 0.3075 0.08864 0.19652 0.0
C221 C 0.31536 0.06536 0.26485 0.0
C222 C 0.29091 0.04633 0.30283 0.0
C223 C 0.26069 0.04757 0.26444 0.0
P224 P 0.48735 0.25026 0.20862 0.0
H225 H 0.43686 0.28437 0.10811 0.0
H226 H 0.43902 0.32802 0.99338 0.0
H227 H 0.53796 0.30964 0.94338 0.0
H228 H 0.53504 0.26482 0.05104 0.0
H229 H 0.43147 0.2129 0.2622 0.0
H230 H 0.42748 0.16272 0.34787 0.0
H231 H 0.52542 0.14416 0.28391 0.0
H232 H 0.52892 0.19327 0.19349 0.0
H233 H 0.4995 0.28455 0.38887 0.0
H234 H 0.55552 0.23768 0.16905 0.0
O235 O 0.45844 0.26686 0.27394 0.0
H236 H 0.54711 0.30624 0.45862 0.0
H237 H 0.60324 0.26045 0.23763 0.0
C238 C 0.48608 0.2715 0.09281 0.0
C239 C 0.45884 0.28884 0.07001 0.0
C240 C 0.46019 0.3143 1.00486 0.0
C241 C 0.48888 0.32325 0.96031 0.0
C242 C 0.51532 0.30379 0.97545 0.0
C243 C 0.51376 0.27801 0.03942 0.0
C244 C 0.4809 0.20799 0.22397 0.0
C245 C 0.45192 0.1977 0.26333 0.0
C246 C 0.44979 0.16909 0.31408 0.0
C247 C 0.47658 0.15006 0.32683 0.0
C248 C 0.50447 0.15846 0.27702 0.0
C249 C 0.50647 0.18693 0.22536 0.0
C250 C 0.52346 0.26044 0.27077 0.0
C251 C 0.52191 0.27838 0.35606 0.0
C252 C 0.54933 0.29043 0.39715 0.0
C253 C 0.57886 0.28493 0.35341 0.0
C254 C 0.58074 0.26492 0.2727 0.0
C255 C 0.55324 0.25236 0.23263 0.0
Tb256 Tb 0.02786 1.00173 0.83433 0.0
Eu257 Eu 0.97179 0.01605 0.6805 0.0
C258 C 0.04393 0.01676 0.61197 0.0
C259 C 1.00507 0.07309 0.80487 0.0
C260 C 0.08917 0.96031 0.97524 0.0
C261 C 0.11182 0.92618 0.09717 0.0
C262 C 0.10166 0.95601 0.06815 0.0
C263 C 0.08973 0.93538 0.90838 0.0
C264 C 0.10006 0.90562 0.93717 0.0
C265 C 0.10939 0.90042 0.03348 0.0
C266 C 0.07027 0.98838 0.95563 0.0
O267 O 0.98522 0.01311 0.9181 0.0
O268 O 0.94912 0.99405 0.81241 0.0
O269 O 0.98928 0.96731 0.64445 0.0
O270 O 1.01125 0.95451 0.79053 0.0
C271 C 0.95665 1.00255 0.90058 0.0
O272 O 0.92698 0.03866 0.64588 0.0
O273 O 0.94803 1.00614 0.54415 0.0
O274 O 0.01651 0.03092 0.60318 0.0
O275 O 0.05059 1.00026 0.69029 0.0
O276 O 0.02657 0.05329 0.83671 0.0
O277 O 0.98181 0.06398 0.74828 0.0
C278 C 1.0011 0.94635 0.7038 0.0
O279 O 0.07575 1.00307 0.8742 0.0
O280 O 0.04017 0.98449 0.97104 0.0
C281 C 0.92767 0.0534 0.48102 0.0
C282 C 0.95088 0.10489 0.37596 0.0
C283 C 0.95625 0.07424 0.34214 0.0
C284 C 0.94488 0.04857 0.39471 0.0
C285 C 0.91775 0.08409 0.50465 0.0
C286 C 0.92964 0.1098 0.45291 0.0
C287 C 0.92748 0.02867 0.55628 0.0
H288 H 0.11883 0.92272 0.17185 0.0
H289 H 0.10123 0.97505 0.12064 0.0
H290 H 0.08 0.93832 0.83643 0.0
H291 H 0.09831 0.88613 0.88663 0.0
H292 H 0.97174 0.07019 0.28065 0.0
H293 H 0.95248 0.02519 0.37353 0.0
H294 H 0.9039 0.08851 0.56957 0.0
H295 H 0.92495 0.13337 0.47961 0.0
Tb296 Tb 0.50325 0.02722 0.81939 0.0
Eu297 Eu 0.49307 0.97352 0.65506 0.0
C298 C 0.48599 0.04648 0.60846 0.0
C299 C 0.43513 0.99878 0.78725 0.0
C300 C 0.54125 0.08284 0.98843 0.0
C301 C 0.59784 0.08079 1.0106 0.0
C302 C 0.57072 0.0699 0.96483 0.0
C303 C 0.53916 0.10706 0.05745 0.0
C304 C 0.56641 0.11796 0.10359 0.0
C305 C 0.5959 0.10468 0.08097 0.0
C306 C 0.51292 0.07113 0.94006 0.0
O307 O 0.52039 0.98387 0.88763 0.0
O308 O 0.49531 0.94633 0.79513 0.0
O309 O 0.54536 0.97362 0.68245 0.0
O310 O 0.54854 0.02412 0.7409 0.0
C311 C 0.50993 0.95481 0.875 0.0
O312 O 0.4648 0.93776 0.58117 0.0
O313 O 0.51049 0.95054 0.52322 0.0
O314 O 0.49902 0.0202 0.57943 0.0
O315 O 0.47783 0.04966 0.69996 0.0
O316 O 0.45606 1.00888 0.85008 0.0
O317 O 0.44387 0.99043 0.69897 0.0
C318 C 0.56181 0.99902 0.70189 0.0
O319 O 0.51268 0.07496 0.84645 0.0
O320 O 0.50393 0.04283 0.96423 0.0
C321 C 0.46729 0.95093 0.41615 0.0
C322 C 0.42614 0.99218 0.32163 0.0
C323 C 0.41567 0.96214 0.3507 0.0
C324 C 0.4362 0.94152 0.39726 0.0
C325 C 0.47894 0.97866 0.37181 0.0
C326 C 0.45834 0.9993 0.32511 0.0
C327 C 0.48283 0.93867 0.50397 0.0
H328 H 0.62027 0.0699 0.99294 0.0
H329 H 0.5727 0.05117 0.91168 0.0
H330 H 0.51652 0.11736 0.07596 0.0
H331 H 0.56456 0.13655 0.1571 0.0
H332 H 0.39085 0.95604 0.34684 0.0
H333 H 0.42672 0.92016 0.42937 0.0
H334 H 0.503 0.98641 0.38325 0.0
H335 H 0.46691 0.02214 0.30161 0.0
Tb336 Tb 0.4863 0.51988 0.80642 0.0
Eu337 Eu 0.54885 0.50195 0.6786 0.0
C338 C 0.48056 0.50146 0.58152 0.0
C339 C 0.50638 0.44872 0.78615 0.0
C340 C 0.42971 0.55711 0.98028 0.0
C341 C 0.39028 0.58996 0.05898 0.0
C342 C 0.39807 0.56558 0.99492 0.0
C343 C 0.45348 0.57247 0.03251 0.0
C344 C 0.44572 0.5967 0.09673 0.0
C345 C 0.41413 0.60612 0.10903 0.0
C346 C 0.4378 0.53377 0.90589 0.0
O347 O 0.52475 0.51427 0.91158 0.0
O348 O 0.56608 0.52683 0.81259 0.0
O349 O 0.53655 0.55209 0.64094 0.0
O350 O 0.50931 0.56539 0.77905 0.0
C351 C 0.55461 0.52211 0.89986 0.0
O352 O 0.59713 0.48437 0.67777 0.0
O353 O 0.57661 0.50173 0.54476 0.0
O354 O 0.508 0.48702 0.58402 0.0
O355 O 0.47083 0.51892 0.65488 0.0
O356 O 0.48289 0.46891 0.78769 0.0
O357 O 0.53492 0.45727 0.75869 0.0
C358 C 0.52416 0.5735 0.69843 0.0
O359 O 0.44398 0.54522 0.82034 0.0
O360 O 0.45816 0.5123 0.93033 0.0
C361 C 0.61182 0.45835 0.53414 0.0
C362 C 0.6281 0.39886 0.45901 0.0
C363 C 0.64546 0.41191 0.53556 0.0
C364 C 0.63734 0.44149 0.57285 0.0
C365 C 0.5959 0.4462 0.4534 0.0
C366 C 0.60399 0.41679 0.41626 0.0
C367 C 0.60028 0.48684 0.58395 0.0
H368 H 0.36575 0.59652 0.06824 0.0
H369 H 0.37946 0.55382 0.95516 0.0
H370 H 0.47807 0.56633 0.02157 0.0
H371 H 0.46458 0.60898 0.13382 0.0
H372 H 0.66435 0.39873 0.56905 0.0
H373 H 0.65012 0.45059 0.63471 0.0
H374 H 0.57621 0.45863 0.42153 0.0
H375 H 0.58989 0.40722 0.35786 0.0
Tb376 Tb 1.00512 0.48452 0.81257 0.0
Eu377 Eu 0.02276 0.54191 0.66514 0.0
C378 C 0.0221 0.47048 0.59637 0.0
C379 C 0.07661 0.5086 0.79861 0.0
C380 C 0.96243 0.42624 0.96783 0.0
C381 C 0.93778 0.39614 0.09748 0.0
C382 C 0.96496 0.40655 0.04905 0.0
C383 C 0.93255 0.43495 0.93418 0.0
C384 C 0.90545 0.42443 0.98203 0.0
C385 C 0.9078 0.40513 0.06452 0.0
C386 C 0.991 0.43817 0.92001 0.0
O387 O 0.99071 0.52758 0.89039 0.0
O388 O 0.02463 0.56201 0.81629 0.0
O389 O 0.9696 0.54229 0.66966 0.0
O390 O 0.96093 0.49293 0.73339 0.0
C391 C 1.00599 0.55472 0.88931 0.0
O392 O 0.02361 0.59202 0.62752 0.0
O393 O 0.04211 0.55737 0.5267 0.0
O394 O 1.0119 0.49869 0.5742 0.0
O395 O 0.02965 0.46434 0.68666 0.0
O396 O 0.05433 0.49421 0.84875 0.0
O397 O 0.07036 0.52489 0.71966 0.0
C398 C 0.95073 0.51838 0.68819 0.0
O399 O 0.99097 0.43734 0.82559 0.0
O400 O 1.00185 0.4649 0.95243 0.0
C401 C 0.07095 0.6036 0.54256 0.0
C402 C 0.13658 0.61004 0.52663 0.0
C403 C 0.12193 0.61159 0.61818 0.0
C404 C 0.08924 0.60803 0.62622 0.0
C405 C 0.08508 0.60695 0.45109 0.0
C406 C 0.11771 0.6103 0.44307 0.0
C407 C 0.0405 0.58719 0.54937 0.0
H408 H 0.94015 0.38159 0.16158 0.0
H409 H 0.98793 0.39972 0.07597 0.0
H410 H 0.93022 0.45039 0.87212 0.0
H411 H 0.88268 0.43248 0.95686 0.0
H412 H 0.13595 0.61204 0.68363 0.0
H413 H 0.07886 0.60546 0.69783 0.0
H414 H 0.07147 0.60331 0.38579 0.0
H415 H 0.1283 0.60911 0.37142 0.0
C416 C 0.12265 0.01335 0.47241 0.0
C417 C 0.11451 0.02247 0.37755 0.0
C418 C 0.09976 1.01135 0.54713 0.0
C419 C 0.06769 0.01845 0.53051 0.0
H420 H 0.14708 1.00865 0.48984 0.0
H421 H 0.10747 1.00478 0.61908 0.0
S422 S 0.03355 0.03905 0.29098 0.0
N423 N 0.07171 0.03565 0.26897 0.0
N424 N 0.02885 0.03205 0.40806 0.0
C425 C 0.05913 0.02642 0.43477 0.0
C426 C 0.08244 0.02837 0.3589 0.0
C427 C 0.49092 0.09428 0.37343 0.0
C428 C 0.47651 0.12314 0.39755 0.0
C429 C 0.49335 0.06968 0.44145 0.0
C430 C 0.48148 0.07271 0.53699 0.0
H431 H 0.5007 0.09072 0.30142 0.0
H432 H 0.50524 0.04829 0.41903 0.0
S433 S 0.44232 0.14387 0.63828 0.0
N434 N 0.45084 0.15357 0.52513 0.0
N435 N 0.45482 0.10731 0.65176 0.0
C436 C 0.46676 0.10137 0.56187 0.0
C437 C 0.46435 0.1265 0.4926 0.0
C438 C 0.41351 0.51807 0.40374 0.0
C439 C 0.4168 0.49448 0.33262 0.0
C440 C 0.43441 0.52024 0.48245 0.0
C441 C 0.45991 0.49915 0.49348 0.0
H442 H 0.39373 0.5342 0.40099 0.0
H443 H 0.43016 0.53848 0.53595 0.0
S444 S 0.48081 0.43492 0.32123 0.0
N445 N 0.4487 0.45077 0.27462 0.0
N446 N 0.48832 0.4551 0.42103 0.0
C447 C 0.46433 0.47632 0.42014 0.0
C448 C 0.44273 0.47388 0.34044 0.0
C449 C 0.01253 0.42552 0.35568 0.0
C450 C 0.03128 0.39848 0.36852 0.0
C451 C 1.00988 0.44872 0.42905 0.0
C452 C 0.02543 0.44562 0.51906 0.0
H453 H 1.00038 0.4291 0.28767 0.0
H454 H 0.99539 0.46921 0.41509 0.0
S455 S 0.07627 0.37825 0.59008 0.0
N456 N 0.06493 0.36953 0.47887 0.0
N457 N 0.05969 0.41243 0.61628 0.0
C458 C 0.0437 0.41826 0.53306 0.0
C459 C 0.04668 0.39494 0.45811 0.0
C460 C 0.91901 1.00995 0.15228 0.0
C461 C 0.88634 1.00779 0.13484 0.0
C462 C 0.94141 1.00753 0.0769 0.0
C463 C 0.93225 1.0026 0.97995 0.0
H464 H 0.9274 0.01395 0.22506 0.0
H465 H 0.96614 1.00996 0.09497 0.0
S466 S 0.84954 0.99483 0.89434 0.0
N467 N 0.84599 1.00022 0.01254 0.0
N468 N 0.88782 0.995 0.87115 0.0
C469 C 0.89964 0.99946 0.96156 0.0
C470 C 0.8768 1.00215 0.03865 0.0
C471 C 0.51762 0.92096 0.13051 0.0
C472 C 0.51252 0.8884 0.11731 0.0
C473 C 0.51815 0.94197 0.05153 0.0
C474 C 0.51313 0.93145 0.95576 0.0
H475 H 0.52066 0.93041 0.20292 0.0
H476 H 0.52135 0.96685 0.06638 0.0
S477 S 0.49975 0.84824 0.88138 0.0
N478 N 0.50322 0.84654 1.00049 0.0
N479 N 0.50421 0.88577 0.85242 0.0
C480 C 0.50887 0.89878 0.94133 0.0
C481 C 0.50861 0.87736 0.02179 0.0
C482 C 0.63147 0.52565 0.04464 0.0
C483 C 0.62211 0.51765 0.13967 0.0
C484 C 0.60939 0.52815 0.96905 0.0
C485 C 0.5768 0.52285 0.98464 0.0
H486 H 0.65627 0.5287 0.02742 0.0
H487 H 0.61825 0.53335 0.89693 0.0
S488 S 0.53946 0.50502 0.22332 0.0
N489 N 0.57755 0.50731 0.24717 0.0
N490 N 0.53622 0.51173 0.10578 0.0
C491 C 0.56695 0.51632 0.08055 0.0
C492 C 0.58949 0.51377 0.15756 0.0
C493 C 0.01494 0.63075 0.03692 0.0
C494 C 1.00106 0.62368 0.12748 0.0
C495 C 0.01587 0.60854 0.96107 0.0
C496 C 1.00281 0.57804 0.97123 0.0
H497 H 0.02616 0.65341 0.02522 0.0
H498 H 0.02738 0.61541 0.89394 0.0
S499 S 0.96179 0.54803 0.19184 0.0
N500 N 0.97249 0.58424 0.22139 0.0
N501 N 0.97432 0.54253 0.07937 0.0
C502 C 0.98807 0.57086 0.06066 0.0
C503 C 0.98725 0.59355 0.1384 0.0
C504 C 0.02636 0.15114 0.34306 0.0
C505 C 0.01539 0.18082 0.31417 0.0
C506 C 1.00519 0.12636 0.35973 0.0
C507 C 0.97249 0.13042 0.3468 0.0
H508 H 0.05134 0.1472 0.35394 0.0
H509 H 0.0144 0.10409 0.38539 0.0
S510 S 0.93232 0.20262 0.26245 0.0
N511 N 0.97004 0.21236 0.26664 0.0
N512 N 0.93033 0.16554 0.29853 0.0
C513 C 0.96133 0.15969 0.31561 0.0
C514 C 0.9828 0.18495 0.29891 0.0
C515 C 0.35581 0.04309 0.37623 0.0
C516 C 0.34874 0.05646 0.28553 0.0
C517 C 0.38197 0.02357 0.38762 0.0
C518 C 0.40266 0.01752 0.31012 0.0
H519 H 0.33969 0.04569 0.43699 0.0
H520 H 0.3854 1.01191 0.45647 0.0
S521 S 0.40294 0.05748 0.07187 0.0
N522 N 0.36981 0.06906 0.12452 0.0
N523 N 0.42015 0.03355 0.14975 0.0
C524 C 0.39918 0.03486 0.22456 0.0
C525 C 0.37196 0.05425 0.21153 0.0
C526 C 0.61617 0.32722 0.30784 0.0
C527 C 0.60535 0.30593 0.37882 0.0
C528 C 0.62872 0.35645 0.3346 0.0
C529 C 0.63062 0.36512 0.4329 0.0
H530 H 0.61113 0.32316 0.23187 0.0
H531 H 0.63323 0.37376 0.27835 0.0
S532 S 0.61592 0.31282 0.64413 0.0
N533 N 0.60534 0.29164 0.54915 0.0
N534 N 0.62852 0.34688 0.60037 0.0
C535 C 0.62522 0.34178 0.50362 0.0
C536 C 0.61255 0.31199 0.47619 0.0
C537 C 0.21526 0.59591 0.40751 0.0
C538 C 0.22306 0.56614 0.4453 0.0
C539 C 0.18904 0.61249 0.44305 0.0
C540 C 0.16981 0.59964 0.51671 0.0
H541 H 0.22749 0.605 0.34414 0.0
H542 H 0.18205 0.63397 0.40655 0.0
S543 S 0.18406 0.52469 0.64854 0.0
N544 N 0.21339 0.52716 0.57004 0.0
N545 N 0.16287 0.5569 0.63312 0.0
C546 C 0.17965 0.57155 0.5619 0.0
C547 C 0.20666 0.55515 0.52696 0.0
C548 C 0.13401 0.82896 0.18038 0.0
C549 C 0.10717 0.80953 0.17386 0.0
C550 C 0.13553 0.8578 0.13042 0.0
C551 C 0.11021 0.86801 0.07289 0.0
H552 H 0.15338 0.82234 0.22701 0.0
H553 H 0.15612 0.87268 0.13937 0.0
S554 S 0.03375 0.82676 0.0388 0.0
N555 N 0.05437 0.80303 0.10878 0.0
N556 N 0.05712 0.85704 0.01576 0.0
C557 C 0.08349 0.8485 0.06496 0.0
C558 C 0.082 0.81929 0.11528 0.0
C559 C 0.68168 0.12121 0.13058 0.0
C560 C 0.68399 0.11418 0.22996 0.0
C561 C 0.65247 0.12073 0.08378 0.0
C562 C 0.6246 0.11344 0.13498 0.0
H563 H 0.70282 0.12496 0.08743 0.0
H564 H 0.6519 0.12418 1.00593 0.0
S565 S 0.61734 0.09702 0.39817 0.0
N566 N 0.6555 0.10249 0.37973 0.0
N567 N 0.60055 0.10213 0.2916 0.0
C568 C 0.62618 0.10918 0.2358 0.0
C569 C 0.65594 0.10946 0.28348 0.0
C570 C 0.41971 0.66628 0.31011 0.0
C571 C 0.40605 0.69318 0.26795 0.0
C572 C 0.42023 0.6374 0.26101 0.0
C573 C 0.407 0.63437 0.16826 0.0
H574 H 0.43224 0.66805 0.37819 0.0
H575 H 0.43259 0.61775 0.29351 0.0
S576 S 0.36451 0.69653 0.03246 0.0
N577 N 0.37576 0.71406 0.13355 0.0
N578 N 0.37712 0.65979 0.0402 0.0
C579 C 0.39103 0.66036 0.12874 0.0
C580 C 0.39052 0.68981 0.17882 0.0
C581 C 0.84933 0.40829 0.2709 0.0
C582 C 0.82074 0.40064 0.22491 0.0
C583 C 0.87805 0.40701 0.22044 0.0
C584 C 0.87911 0.39813 0.12228 0.0
H585 H 0.84932 0.41793 0.34371 0.0
H586 H 0.89911 0.4155 0.25627 0.0
S587 S 0.81197 0.36928 0.97551 0.0
N588 N 0.79596 0.37891 0.08101 0.0
N589 N 0.85011 0.37669 0.98565 0.0
C590 C 0.85121 0.38744 0.07844 0.0
C591 C 0.82196 0.38864 0.12995 0.0
C592 C 1.00409 0.16381 0.80558 0.0
C593 C 1.01045 0.17153 0.90324 0.0
C594 C 1.00159 0.13208 0.77431 0.0
C595 C 1.00649 0.10673 0.83864 0.0
H596 H 1.001 0.18246 0.7529 0.0
H597 H 0.99661 0.12739 0.69868 0.0
S598 S 0.02336 0.11389 0.10177 0.0
N599 N 0.02077 0.15075 0.06412 0.0
N600 N 0.01725 0.09171 1.00516 0.0
C601 C 0.01277 0.11416 0.93629 0.0
C602 C 0.01445 0.14631 0.96855 0.0
C603 C 0.36214 0.99845 0.95226 0.0
C604 C 0.33659 1.00163 0.88806 0.0
C605 C 0.39352 0.99638 0.91837 0.0
C606 C 0.40108 0.99752 0.81864 0.0
H607 H 0.35811 0.9989 0.02992 0.0
H608 H 0.41215 0.9945 0.97144 0.0
S609 S 0.34262 0.99975 0.61929 0.0
N610 N 0.32086 1.00134 0.71887 0.0
N611 N 0.37969 0.99809 0.65549 0.0
C612 C 0.37566 0.99852 0.75327 0.0
C613 C 0.34359 1.00056 0.78783 0.0
C614 C 0.47679 0.38141 0.9462 0.0
C615 C 0.49188 0.3544 0.90802 0.0
C616 C 0.4809 0.41142 0.90445 0.0
C617 C 0.50075 0.4161 0.82344 0.0
H618 H 0.46235 0.37965 0.01109 0.0
H619 H 0.46925 0.43137 0.93825 0.0
S620 S 0.54269 0.35339 0.68703 0.0
N621 N 0.52505 0.33437 0.77689 0.0
N622 N 0.53375 0.39098 0.70166 0.0
C623 C 0.51539 0.38943 0.78269 0.0
C624 C 0.51075 0.35863 0.82407 0.0
C625 C 0.16075 0.53186 0.87205 0.0
C626 C 0.1737 0.50351 0.908 0.0
C627 C 0.12975 0.53322 0.83476 0.0
C628 C 0.10989 0.50654 0.83435 0.0
H629 H 0.17496 0.5531 0.87007 0.0
H630 H 0.12113 0.55549 0.80714 0.0
S631 S 0.13022 0.42751 0.93069 0.0
N632 N 0.1625 0.44864 0.94744 0.0
N633 N 0.1047 0.45143 0.87882 0.0
C634 C 0.12199 0.47841 0.87326 0.0
C635 C 0.15365 0.47683 0.90965 0.0
C636 C 0.99782 0.85592 0.69544 0.0
C637 C 1.00588 0.84881 0.59804 0.0
C638 C 0.99699 0.88728 0.7303 0.0
C639 C 1.00368 0.913 0.66896 0.0
H640 H 0.99176 0.83711 0.74529 0.0
H641 H 0.99035 0.89143 0.80523 0.0
S642 S 0.02994 0.90782 0.41194 0.0
N643 N 0.02393 0.87081 0.4442 0.0
N644 N 0.02091 0.9292 0.50823 0.0
C645 C 1.01235 0.90632 0.5723 0.0
C646 C 0.01377 0.87448 0.53726 0.0
C647 C 0.65194 1.0016 0.69713 0.0
C648 C 0.65932 1.00533 0.59741 0.0
C649 C 0.62047 0.99973 0.73093 0.0
C650 C 0.59499 1.00086 0.66642 0.0
H651 H 0.67064 1.00011 0.75006 0.0
H652 H 0.61607 0.99718 0.80804 0.0
S653 S 0.60002 1.0113 0.39997 0.0
N654 N 0.63718 1.01145 0.43557 0.0
N655 N 0.57863 1.00614 0.49923 0.0
C656 C 0.60169 1.00418 0.56708 0.0
C657 C 0.63362 1.00677 0.53253 0.0
C658 C 0.5041 0.66106 0.67597 0.0
C659 C 0.52427 0.67171 0.60091 0.0
C660 C 0.5049 0.62968 0.70922 0.0
C661 C 0.52581 0.60742 0.66861 0.0
H662 H 0.48674 0.67684 0.7073 0.0
H663 H 0.48825 0.62263 0.76511 0.0
S664 S 0.58606 0.62403 0.47784 0.0
N665 N 0.56766 0.65797 0.49298 0.0
N666 N 0.56895 0.59915 0.55384 0.0
C667 C 0.54689 0.61806 0.59585 0.0
C668 C 0.54615 0.65005 0.56241 0.0
C669 C 0.86365 0.49667 0.65107 0.0
C670 C 0.85307 0.51859 0.58151 0.0
C671 C 0.8949 0.497 0.68556 0.0
C672 C 0.91716 0.51945 0.65303 0.0
H673 H 0.84779 0.47854 0.67775 0.0
H674 H 0.90164 0.47928 0.73798 0.0
S675 S 0.90139 0.58274 0.47282 0.0
N676 N 0.86739 0.5639 0.48294 0.0
N677 N 0.92586 0.56461 0.54686 0.0
C678 C 0.90676 0.54182 0.58423 0.0
C679 C 0.87493 0.54131 0.54867 0.0
loop_
_geom_bond_atom_site_label_1
_geom_bond_atom_site_label_2
_geom_bond_distance
_geom_bond_site_symmetry_2
_ccdc_geom_bond_type
P0 O11 1.490 . S
P0 C14 1.812 . S
P0 C20 1.803 . S
P0 C26 1.819 . S
H1 C15 0.941 . S
H2 C16 0.939 . S
H3 C18 0.940 . S
H4 C19 0.940 . S
H5 C21 0.939 . S
H6 C22 0.942 . S
H7 C24 0.940 . S
H8 C25 0.939 . S
H9 C27 0.941 . S
H10 C31 0.939 . S
O11 P0 1.490 . S
H12 C28 0.939 . S
H13 C30 0.940 . S
C14 P0 1.812 . S
C14 C15 1.389 . S
C14 C19 1.391 . S
C15 H1 0.941 . S
C15 C14 1.389 . S
C15 C16 1.397 . S
C16 H2 0.939 . S
C16 C15 1.397 . S
C16 C17 1.378 . S
C17 C16 1.378 . S
C17 C18 1.378 . S
C18 H3 0.940 . S
C18 C17 1.378 . S
C18 C19 1.396 . S
C19 H4 0.940 . S
C19 C14 1.391 . S
C19 C18 1.396 . S
C20 P0 1.803 . S
C20 C21 1.378 . S
C20 C25 1.400 . S
C21 H5 0.939 . S
C21 C20 1.378 . S
C21 C22 1.361 . S
C22 H6 0.942 . S
C22 C21 1.361 . S
C22 C23 1.369 . S
C23 C22 1.369 . S
C23 C24 1.404 . S
C24 H7 0.940 . S
C24 C23 1.404 . S
C24 C25 1.389 . S
C25 H8 0.939 . S
C25 C20 1.400 . S
C25 C24 1.389 . S
C26 P0 1.819 . S
C26 C27 1.391 . S
C26 C31 1.391 . S
C27 H9 0.941 . S
C27 C26 1.391 . S
C27 C28 1.396 . S
C28 H12 0.939 . S
C28 C27 1.396 . S
C28 C29 1.397 . S
C29 C28 1.397 . S
C29 C30 1.385 . S
C30 H13 0.940 . S
C30 C29 1.385 . S
C30 C31 1.388 . S
C31 H10 0.939 . S
C31 C26 1.391 . S
C31 C30 1.388 . S
P32 O43 1.490 . S
P32 C46 1.812 . S
P32 C52 1.803 . S
P32 C58 1.819 . S
H33 C47 0.941 . S
H34 C48 0.939 . S
H35 C50 0.940 . S
H36 C51 0.950 . S
H37 C53 0.939 . S
H38 C54 0.942 . S
H39 C56 0.940 . S
H40 C57 0.959 . S
H41 C59 0.941 . S
H42 C63 0.929 1_655 S
O43 P32 1.490 . S
H44 C60 0.939 . S
H45 C62 0.940 . S
C46 P32 1.812 . S
C46 C47 1.389 . S
C46 C51 1.375 1_455 S
C47 H33 0.941 . S
C47 C46 1.389 . S
C47 C48 1.397 . S
C48 H34 0.939 . S
C48 C47 1.397 . S
C48 C49 1.378 . S
C49 C48 1.378 . S
C49 C50 1.378 1_455 S
C50 H35 0.940 . S
C50 C49 1.378 1_655 S
C50 C51 1.403 . S
C51 H36 0.950 . S
C51 C46 1.375 1_655 S
C51 C50 1.403 . S
C52 P32 1.803 . S
C52 C53 1.378 . S
C52 C57 1.368 1_455 S
C53 H37 0.939 . S
C53 C52 1.378 . S
C53 C54 1.361 . S
C54 H38 0.942 . S
C54 C53 1.361 . S
C54 C55 1.369 . S
C55 C54 1.369 . S
C55 C56 1.404 1_455 S
C56 H39 0.940 . S
C56 C55 1.404 1_655 S
C56 C57 1.402 . S
C57 H40 0.959 . S
C57 C52 1.368 1_655 S
C57 C56 1.402 . S
C58 P32 1.819 . S
C58 C59 1.391 . S
C58 C63 1.391 . S
C59 H41 0.941 . S
C59 C58 1.391 . S
C59 C60 1.396 . S
C60 H44 0.939 . S
C60 C59 1.396 . S
C60 C61 1.397 . S
C61 C60 1.397 . S
C61 C62 1.385 1_455 S
C62 H45 0.940 . S
C62 C61 1.385 1_655 S
C62 C63 1.388 1_655 S
C63 H42 0.929 1_455 S
C63 C58 1.391 . S
C63 C62 1.388 1_455 S
P64 O75 1.490 . S
P64 C78 1.812 . S
P64 C84 1.803 . S
P64 C90 1.819 . S
H65 C79 0.941 . S
H66 C80 0.939 . S
H67 C82 0.940 . S
H68 C83 0.950 . S
H69 C85 0.939 . S
H70 C86 0.942 . S
H71 C88 0.940 . S
H72 C89 0.959 . S
H73 C91 0.941 . S
H74 C95 0.929 1_565 S
O75 P64 1.490 . S
H76 C92 0.939 . S
H77 C94 0.940 . S
C78 P64 1.812 . S
C78 C79 1.389 . S
C78 C83 1.375 1_545 S
C79 H65 0.941 . S
C79 C78 1.389 . S
C79 C80 1.397 . S
C80 H66 0.939 . S
C80 C79 1.397 . S
C80 C81 1.378 . S
C81 C80 1.378 . S
C81 C82 1.378 1_545 S
C82 H67 0.940 . S
C82 C81 1.378 1_565 S
C82 C83 1.402 . S
C83 H68 0.950 . S
C83 C78 1.375 1_565 S
C83 C82 1.402 . S
C84 P64 1.803 . S
C84 C85 1.378 . S
C84 C89 1.368 1_545 S
C85 H69 0.939 . S
C85 C84 1.378 . S
C85 C86 1.361 . S
C86 H70 0.942 . S
C86 C85 1.361 . S
C86 C87 1.369 . S
C87 C86 1.369 . S
C87 C88 1.404 1_545 S
C88 H71 0.940 . S
C88 C87 1.404 1_565 S
C88 C89 1.402 . S
C89 H72 0.959 . S
C89 C84 1.368 1_565 S
C89 C88 1.402 . S
C90 P64 1.819 . S
C90 C91 1.391 . S
C90 C95 1.391 . S
C91 H73 0.941 . S
C91 C90 1.391 . S
C91 C92 1.396 . S
C92 H76 0.939 . S
C92 C91 1.396 . S
C92 C93 1.397 . S
C93 C92 1.397 . S
C93 C94 1.385 1_545 S
C94 H77 0.940 . S
C94 C93 1.385 1_565 S
C94 C95 1.388 1_565 S
C95 H74 0.929 1_545 S
C95 C90 1.391 . S
C95 C94 1.388 1_545 S
P96 O107 1.490 . S
P96 C110 1.812 . S
P96 C116 1.803 . S
P96 C122 1.819 . S
H97 C111 0.941 . S
H98 C112 0.939 . S
H99 C114 0.940 . S
H100 C115 0.940 . S
H101 C117 0.939 . S
H102 C118 0.942 . S
H103 C120 0.940 . S
H104 C121 0.939 . S
H105 C123 0.941 . S
H106 C127 0.939 . S
O107 P96 1.490 . S
H108 C124 0.939 . S
H109 C126 0.940 . S
C110 P96 1.812 . S
C110 C111 1.389 . S
C110 C115 1.391 . S
C111 H97 0.941 . S
C111 C110 1.389 . S
C111 C112 1.397 . S
C112 H98 0.939 . S
C112 C111 1.397 . S
C112 C113 1.378 . S
C113 C112 1.378 . S
C113 C114 1.378 . S
C114 H99 0.940 . S
C114 C113 1.378 . S
C114 C115 1.396 . S
C115 H100 0.940 . S
C115 C110 1.391 . S
C115 C114 1.396 . S
C116 P96 1.803 . S
C116 C117 1.378 . S
C116 C121 1.400 . S
C117 H101 0.939 . S
C117 C116 1.378 . S
C117 C118 1.361 . S
C118 H102 0.942 . S
C118 C117 1.361 . S
C118 C119 1.369 . S
C119 C118 1.369 . S
C119 C120 1.404 . S
C120 H103 0.940 . S
C120 C119 1.404 . S
C120 C121 1.389 . S
C121 H104 0.939 . S
C121 C116 1.400 . S
C121 C120 1.389 . S
C122 P96 1.819 . S
C122 C123 1.391 . S
C122 C127 1.391 . S
C123 H105 0.941 . S
C123 C122 1.391 . S
C123 C124 1.396 . S
C124 H108 0.939 . S
C124 C123 1.396 . S
C124 C125 1.397 . S
C125 C124 1.397 . S
C125 C126 1.385 . S
C126 H109 0.940 . S
C126 C125 1.385 . S
C126 C127 1.388 . S
C127 H106 0.939 . S
C127 C122 1.391 . S
C127 C126 1.388 . S
P128 O139 1.490 . S
P128 C142 1.812 1_554 S
P128 C148 1.803 . S
P128 C154 1.819 . S
H129 C143 0.941 . S
H130 C144 0.939 . S
H131 C146 0.940 . S
H132 C147 0.940 . S
H133 C149 0.939 . S
H134 C150 0.942 . S
H135 C152 0.940 . S
H136 C153 0.939 . S
H137 C155 0.941 . S
H138 C159 0.939 . S
O139 P128 1.490 . S
H140 C156 0.939 . S
H141 C158 0.940 . S
C142 P128 1.812 1_556 S
C142 C143 1.389 . S
C142 C147 1.391 . S
C143 H129 0.941 . S
C143 C142 1.389 . S
C143 C144 1.397 . S
C144 H130 0.939 . S
C144 C143 1.397 . S
C144 C145 1.378 . S
C145 C144 1.378 . S
C145 C146 1.378 . S
C146 H131 0.940 . S
C146 C145 1.378 . S
C146 C147 1.396 . S
C147 H132 0.940 . S
C147 C142 1.391 . S
C147 C146 1.396 . S
C148 P128 1.803 . S
C148 C149 1.378 . S
C148 C153 1.400 . S
C149 H133 0.939 . S
C149 C148 1.378 . S
C149 C150 1.361 . S
C150 H134 0.942 . S
C150 C149 1.361 . S
C150 C151 1.369 . S
C151 C150 1.369 . S
C151 C152 1.404 . S
C152 H135 0.940 . S
C152 C151 1.404 . S
C152 C153 1.389 . S
C153 H136 0.939 . S
C153 C148 1.400 . S
C153 C152 1.389 . S
C154 P128 1.819 . S
C154 C155 1.391 . S
C154 C159 1.391 . S
C155 H137 0.941 . S
C155 C154 1.391 . S
C155 C156 1.396 . S
C156 H140 0.939 . S
C156 C155 1.396 . S
C156 C157 1.397 . S
C157 C156 1.397 . S
C157 C158 1.385 . S
C158 H141 0.940 . S
C158 C157 1.385 . S
C158 C159 1.388 . S
C159 H138 0.939 . S
C159 C154 1.391 . S
C159 C158 1.388 . S
P160 O171 1.490 . S
P160 C174 1.812 1_554 S
P160 C180 1.803 . S
P160 C186 1.819 . S
H161 C175 0.941 . S
H162 C176 0.939 . S
H163 C178 0.940 . S
H164 C179 0.945 . S
H165 C181 0.939 . S
H166 C182 0.942 . S
H167 C184 0.940 . S
H168 C185 0.954 . S
H169 C187 0.941 . S
H170 C191 0.932 1_655 S
O171 P160 1.490 . S
H172 C188 0.939 . S
H173 C190 0.940 . S
C174 P160 1.812 1_556 S
C174 C175 1.389 . S
C174 C179 1.383 1_455 S
C175 H161 0.941 . S
C175 C174 1.389 . S
C175 C176 1.397 . S
C176 H162 0.939 . S
C176 C175 1.397 . S
C176 C177 1.378 . S
C177 C176 1.378 . S
C177 C178 1.378 1_455 S
C178 H163 0.940 . S
C178 C177 1.378 1_655 S
C178 C179 1.400 . S
C179 H164 0.945 . S
C179 C174 1.383 1_655 S
C179 C178 1.400 . S
C180 P160 1.803 . S
C180 C181 1.378 . S
C180 C185 1.376 1_455 S
C181 H165 0.939 . S
C181 C180 1.378 . S
C181 C182 1.361 . S
C182 H166 0.942 . S
C182 C181 1.361 . S
C182 C183 1.369 . S
C183 C182 1.369 . S
C183 C184 1.404 1_455 S
C184 H167 0.940 . S
C184 C183 1.404 1_655 S
C184 C185 1.399 . S
C185 H168 0.954 . S
C185 C180 1.376 1_655 S
C185 C184 1.399 . S
C186 P160 1.819 . S
C186 C187 1.391 . S
C186 C191 1.391 . S
C187 H169 0.941 . S
C187 C186 1.391 . S
C187 C188 1.396 . S
C188 H172 0.939 . S
C188 C187 1.396 . S
C188 C189 1.397 . S
C189 C188 1.397 . S
C189 C190 1.385 1_455 S
C190 H173 0.940 . S
C190 C189 1.385 1_655 S
C190 C191 1.388 1_655 S
C191 H170 0.932 1_455 S
C191 C186 1.391 . S
C191 C190 1.388 1_455 S
P192 O203 1.490 . S
P192 C206 1.812 1_554 S
P192 C212 1.803 . S
P192 C218 1.819 . S
H193 C207 0.941 . S
H194 C208 0.939 . S
H195 C210 0.940 . S
H196 C211 0.945 . S
H197 C213 0.939 . S
H198 C214 0.942 . S
H199 C216 0.940 . S
H200 C217 0.954 . S
H201 C219 0.941 . S
H202 C223 0.932 1_565 S
O203 P192 1.490 . S
H204 C220 0.939 . S
H205 C222 0.940 . S
C206 P192 1.812 1_556 S
C206 C207 1.389 . S
C206 C211 1.383 1_545 S
C207 H193 0.941 . S
C207 C206 1.389 . S
C207 C208 1.397 . S
C208 H194 0.939 . S
C208 C207 1.397 . S
C208 C209 1.378 . S
C209 C208 1.378 . S
C209 C210 1.378 1_545 S
C210 H195 0.940 . S
C210 C209 1.378 1_565 S
C210 C211 1.400 . S
C211 H196 0.945 . S
C211 C206 1.383 1_565 S
C211 C210 1.400 . S
C212 P192 1.803 . S
C212 C213 1.378 . S
C212 C217 1.376 1_545 S
C213 H197 0.939 . S
C213 C212 1.378 . S
C213 C214 1.361 . S
C214 H198 0.942 . S
C214 C213 1.361 . S
C214 C215 1.369 . S
C215 C214 1.369 . S
C215 C216 1.404 1_545 S
C216 H199 0.940 . S
C216 C215 1.404 1_565 S
C216 C217 1.398 . S
C217 H200 0.954 . S
C217 C212 1.376 1_565 S
C217 C216 1.398 . S
C218 P192 1.819 . S
C218 C219 1.391 . S
C218 C223 1.391 . S
C219 H201 0.941 . S
C219 C218 1.391 . S
C219 C220 1.396 . S
C220 H204 0.939 . S
C220 C219 1.396 . S
C220 C221 1.397 . S
C221 C220 1.397 . S
C221 C222 1.385 1_545 S
C222 H205 0.940 . S
C222 C221 1.385 1_565 S
C222 C223 1.388 1_565 S
C223 H202 0.932 1_545 S
C223 C218 1.391 . S
C223 C222 1.388 1_545 S
P224 O235 1.490 . S
P224 C238 1.812 1_554 S
P224 C244 1.803 . S
P224 C250 1.819 . S
H225 C239 0.941 . S
H226 C240 0.939 . S
H227 C242 0.940 . S
H228 C243 0.940 . S
H229 C245 0.939 . S
H230 C246 0.942 . S
H231 C248 0.940 . S
H232 C249 0.939 . S
H233 C251 0.941 . S
H234 C255 0.939 . S
O235 P224 1.490 . S
H236 C252 0.939 . S
H237 C254 0.940 . S
C238 P224 1.812 1_556 S
C238 C239 1.389 . S
C238 C243 1.391 . S
C239 H225 0.941 . S
C239 C238 1.389 . S
C239 C240 1.397 . S
C240 H226 0.939 . S
C240 C239 1.397 . S
C240 C241 1.378 . S
C241 C240 1.378 . S
C241 C242 1.378 . S
C242 H227 0.940 . S
C242 C241 1.378 . S
C242 C243 1.396 . S
C243 H228 0.940 . S
C243 C238 1.391 . S
C243 C242 1.396 . S
C244 P224 1.803 . S
C244 C245 1.378 . S
C244 C249 1.400 . S
C245 H229 0.939 . S
C245 C244 1.378 . S
C245 C246 1.361 . S
C246 H230 0.942 . S
C246 C245 1.361 . S
C246 C247 1.369 . S
C247 C246 1.369 . S
C247 C248 1.404 . S
C248 H231 0.940 . S
C248 C247 1.404 . S
C248 C249 1.389 . S
C249 H232 0.939 . S
C249 C244 1.400 . S
C249 C248 1.389 . S
C250 P224 1.819 . S
C250 C251 1.391 . S
C250 C255 1.391 . S
C251 H233 0.941 . S
C251 C250 1.391 . S
C251 C252 1.396 . S
C252 H236 0.939 . S
C252 C251 1.396 . S
C252 C253 1.397 . S
C253 C252 1.397 . S
C253 C254 1.385 . S
C254 H237 0.940 . S
C254 C253 1.385 . S
C254 C255 1.388 . S
C255 H234 0.939 . S
C255 C250 1.391 . S
C255 C254 1.388 . S
Tb256 C266 2.825 . S
Tb256 O267 2.347 1_455 S
Tb256 O270 2.366 . S
Tb256 O275 2.418 . S
Tb256 O276 2.384 1_565 S
Tb256 O279 2.479 . S
Tb256 O280 2.471 . S
Eu257 O268 2.418 . S
Eu257 O269 2.384 1_545 S
Eu257 O272 2.479 . S
Eu257 O273 2.471 . S
Eu257 O274 2.347 1_655 S
Eu257 O277 2.366 . S
Eu257 C287 2.825 . S
C258 O274 1.259 1_565 S
C258 O275 1.265 . S
C259 O276 1.255 . S
C259 O277 1.265 1_455 S
C260 C262 1.380 1_556 S
C260 C263 1.374 1_556 S
C260 C266 1.507 . S
C261 C262 1.384 . S
C261 C265 1.387 . S
C261 H288 0.930 . S
C262 C260 1.380 1_554 S
C262 C261 1.384 . S
C262 H289 0.931 1_554 S
C263 C260 1.374 1_554 S
C263 C264 1.390 . S
C263 H290 0.930 1_455 S
C264 C263 1.390 . S
C264 C265 1.391 . S
C264 H291 0.923 1_455 S
C265 C261 1.387 . S
C265 C264 1.391 . S
C266 Tb256 2.825 . S
C266 C260 1.507 . S
C266 O279 1.238 . S
C266 O280 1.247 . S
O267 Tb256 2.347 1_655 S
O267 C271 1.259 1_565 S
O268 Eu257 2.418 . S
O268 C271 1.265 . S
O269 Eu257 2.384 1_565 S
O269 C278 1.255 . S
O270 Tb256 2.366 . S
O270 C278 1.265 1_455 S
C271 O267 1.259 1_545 S
C271 O268 1.265 . S
O272 Eu257 2.479 . S
O272 C287 1.238 . S
O273 Eu257 2.471 . S
O273 C287 1.247 . S
O274 Eu257 2.347 1_455 S
O274 C258 1.259 1_545 S
O275 Tb256 2.418 . S
O275 C258 1.265 . S
O276 Tb256 2.384 1_545 S
O276 C259 1.255 . S
O277 Eu257 2.366 . S
O277 C259 1.265 1_655 S
C278 O269 1.255 . S
C278 O270 1.265 1_655 S
O279 Tb256 2.479 . S
O279 C266 1.238 . S
O280 Tb256 2.471 . S
O280 C266 1.247 . S
C281 C284 1.380 . S
C281 C285 1.374 . S
C281 C287 1.507 . S
C282 C283 1.387 . S
C282 C286 1.391 . S
C283 C282 1.387 . S
C283 C284 1.384 . S
C283 H292 0.930 . S
C284 C281 1.380 . S
C284 C283 1.384 . S
C284 H293 0.931 . S
C285 C281 1.374 . S
C285 C286 1.390 . S
C285 H294 0.930 1_655 S
C286 C282 1.391 . S
C286 C285 1.390 . S
C286 H295 0.916 1_655 S
C287 Eu257 2.825 . S
C287 O272 1.238 . S
C287 O273 1.247 . S
C287 C281 1.507 . S
H288 C261 0.930 . S
H289 C262 0.931 1_556 S
H290 C263 0.930 1_655 S
H291 C264 0.923 1_655 S
H292 C283 0.930 . S
H293 C284 0.931 . S
H294 C285 0.930 1_455 S
H295 C286 0.916 1_455 S
Tb296 C306 2.825 . S
Tb296 O307 2.347 1_545 S
Tb296 O310 2.366 . S
Tb296 O315 2.418 . S
Tb296 O316 2.384 . S
Tb296 O319 2.479 . S
Tb296 O320 2.471 . S
Eu297 O308 2.418 . S
Eu297 O309 2.384 . S
Eu297 O312 2.479 . S
Eu297 O313 2.471 . S
Eu297 O314 2.347 1_565 S
Eu297 O317 2.366 . S
Eu297 C327 2.825 . S
C298 O314 1.259 . S
C298 O315 1.265 . S
C299 O316 1.255 . S
C299 O317 1.265 1_545 S
C300 C302 1.380 1_556 S
C300 C303 1.374 1_556 S
C300 C306 1.507 . S
C301 C302 1.384 . S
C301 C305 1.387 . S
C301 H328 0.930 . S
C302 C300 1.380 1_554 S
C302 C301 1.384 . S
C302 H329 0.931 1_554 S
C303 C300 1.374 1_554 S
C303 C304 1.390 . S
C303 H330 0.930 1_545 S
C304 C303 1.390 . S
C304 C305 1.391 . S
C304 H331 0.930 1_545 S
C305 C301 1.387 . S
C305 C304 1.391 . S
C306 Tb296 2.825 . S
C306 C300 1.507 . S
C306 O319 1.238 . S
C306 O320 1.247 . S
O307 Tb296 2.347 1_565 S
O307 C311 1.259 . S
O308 Eu297 2.418 . S
O308 C311 1.265 . S
O309 Eu297 2.384 . S
O309 C318 1.255 . S
O310 Tb296 2.366 . S
O310 C318 1.265 1_545 S
C311 O307 1.259 . S
C311 O308 1.265 . S
O312 Eu297 2.479 . S
O312 C327 1.238 . S
O313 Eu297 2.471 . S
O313 C327 1.247 . S
O314 Eu297 2.347 1_545 S
O314 C298 1.259 . S
O315 Tb296 2.418 . S
O315 C298 1.265 . S
O316 Tb296 2.384 . S
O316 C299 1.255 . S
O317 Eu297 2.366 . S
O317 C299 1.265 1_565 S
C318 O309 1.255 . S
C318 O310 1.265 1_565 S
O319 Tb296 2.479 . S
O319 C306 1.238 . S
O320 Tb296 2.471 . S
O320 C306 1.247 . S
C321 C324 1.380 . S
C321 C325 1.374 . S
C321 C327 1.507 . S
C322 C323 1.387 . S
C322 C326 1.391 . S
C323 C322 1.387 . S
C323 C324 1.384 . S
C323 H332 0.930 . S
C324 C321 1.380 . S
C324 C323 1.384 . S
C324 H333 0.931 . S
C325 C321 1.374 . S
C325 C326 1.390 . S
C325 H334 0.930 1_565 S
C326 C322 1.391 . S
C326 C325 1.390 . S
C326 H335 0.930 1_565 S
C327 Eu297 2.825 . S
C327 O312 1.238 . S
C327 O313 1.247 . S
C327 C321 1.507 . S
H328 C301 0.930 . S
H329 C302 0.931 1_556 S
H330 C303 0.930 1_565 S
H331 C304 0.930 1_565 S
H332 C323 0.930 . S
H333 C324 0.931 . S
H334 C325 0.930 1_545 S
H335 C326 0.930 1_545 S
Tb336 C346 2.825 . S
Tb336 O347 2.347 . S
Tb336 O350 2.366 . S
Tb336 O355 2.418 . S
Tb336 O356 2.384 . S
Tb336 O359 2.479 . S
Tb336 O360 2.471 . S
Eu337 O348 2.418 . S
Eu337 O349 2.384 . S
Eu337 O352 2.479 . S
Eu337 O353 2.471 . S
Eu337 O354 2.347 . S
Eu337 O357 2.366 . S
Eu337 C367 2.825 . S
C338 O354 1.259 . S
C338 O355 1.265 . S
C339 O356 1.255 . S
C339 O357 1.265 . S
C340 C342 1.381 . S
C340 C343 1.377 . S
C340 C346 1.502 1_554 S
C341 C342 1.384 . S
C341 C345 1.387 . S
C341 H368 0.930 . S
C342 C340 1.381 . S
C342 C341 1.384 . S
C342 H369 0.931 1_554 S
C343 C340 1.377 . S
C343 C344 1.390 . S
C343 H370 0.930 . S
C344 C343 1.390 . S
C344 C345 1.391 . S
C344 H371 0.930 . S
C345 C341 1.387 . S
C345 C344 1.391 . S
C346 Tb336 2.825 . S
C346 C340 1.502 1_556 S
C346 O359 1.238 . S
C346 O360 1.247 . S
O347 Tb336 2.347 . S
O347 C351 1.259 . S
O348 Eu337 2.418 . S
O348 C351 1.265 . S
O349 Eu337 2.384 . S
O349 C358 1.255 . S
O350 Tb336 2.366 . S
O350 C358 1.265 . S
C351 O347 1.259 . S
C351 O348 1.265 . S
O352 Eu337 2.479 . S
O352 C367 1.238 . S
O353 Eu337 2.471 . S
O353 C367 1.247 . S
O354 Eu337 2.347 . S
O354 C338 1.259 . S
O355 Tb336 2.418 . S
O355 C338 1.265 . S
O356 Tb336 2.384 . S
O356 C339 1.255 . S
O357 Eu337 2.366 . S
O357 C339 1.265 . S
C358 O349 1.255 . S
C358 O350 1.265 . S
O359 Tb336 2.479 . S
O359 C346 1.238 . S
O360 Tb336 2.471 . S
O360 C346 1.247 . S
C361 C364 1.380 . S
C361 C365 1.374 . S
C361 C367 1.507 . S
C362 C363 1.387 . S
C362 C366 1.391 . S
C363 C362 1.387 . S
C363 C364 1.384 . S
C363 H372 0.930 . S
C364 C361 1.380 . S
C364 C363 1.384 . S
C364 H373 0.931 . S
C365 C361 1.374 . S
C365 C366 1.390 . S
C365 H374 0.930 . S
C366 C362 1.391 . S
C366 C365 1.390 . S
C366 H375 0.930 . S
C367 Eu337 2.825 . S
C367 O352 1.238 . S
C367 O353 1.247 . S
C367 C361 1.507 . S
H368 C341 0.930 . S
H369 C342 0.931 1_556 S
H370 C343 0.930 . S
H371 C344 0.930 . S
H372 C363 0.930 . S
H373 C364 0.931 . S
H374 C365 0.930 . S
H375 C366 0.930 . S
Tb376 C386 2.825 . S
Tb376 O387 2.347 . S
Tb376 O390 2.366 . S
Tb376 O395 2.418 . S
Tb376 O396 2.384 1_655 S
Tb376 O399 2.479 . S
Tb376 O400 2.471 . S
Eu377 O388 2.418 . S
Eu377 O389 2.384 1_455 S
Eu377 O392 2.479 . S
Eu377 O393 2.471 . S
Eu377 O394 2.347 . S
Eu377 O397 2.366 . S
Eu377 C407 2.825 . S
C378 O394 1.259 1_655 S
C378 O395 1.265 . S
C379 O396 1.255 . S
C379 O397 1.265 . S
C380 C382 1.379 1_556 S
C380 C383 1.372 1_556 S
C380 C386 1.509 . S
C381 C382 1.384 . S
C381 C385 1.387 . S
C381 H408 0.930 . S
C382 C380 1.379 1_554 S
C382 C381 1.384 . S
C382 H409 0.931 1_554 S
C383 C380 1.372 1_554 S
C383 C384 1.390 . S
C383 H410 0.930 . S
C384 C383 1.390 . S
C384 C385 1.391 . S
C384 H411 0.930 . S
C385 C381 1.387 . S
C385 C384 1.391 . S
C386 Tb376 2.825 . S
C386 C380 1.509 . S
C386 O399 1.238 . S
C386 O400 1.247 . S
O387 Tb376 2.347 . S
O387 C391 1.259 1_655 S
O388 Eu377 2.418 . S
O388 C391 1.265 . S
O389 Eu377 2.384 1_655 S
O389 C398 1.255 . S
O390 Tb376 2.366 . S
O390 C398 1.265 . S
C391 O387 1.259 1_455 S
C391 O388 1.265 . S
O392 Eu377 2.479 . S
O392 C407 1.238 . S
O393 Eu377 2.471 . S
O393 C407 1.247 . S
O394 Eu377 2.347 . S
O394 C378 1.259 1_455 S
O395 Tb376 2.418 . S
O395 C378 1.265 . S
O396 Tb376 2.384 1_455 S
O396 C379 1.255 . S
O397 Eu377 2.366 . S
O397 C379 1.265 . S
C398 O389 1.255 . S
C398 O390 1.265 . S
O399 Tb376 2.479 . S
O399 C386 1.238 . S
O400 Tb376 2.471 . S
O400 C386 1.247 . S
C401 C404 1.380 . S
C401 C405 1.374 . S
C401 C407 1.507 . S
C402 C403 1.387 . S
C402 C406 1.391 . S
C403 C402 1.387 . S
C403 C404 1.384 . S
C403 H412 0.930 . S
C404 C401 1.380 . S
C404 C403 1.384 . S
C404 H413 0.931 . S
C405 C401 1.374 . S
C405 C406 1.390 . S
C405 H414 0.930 . S
C406 C402 1.391 . S
C406 C405 1.390 . S
C406 H415 0.930 . S
C407 Eu377 2.825 . S
C407 O392 1.238 . S
C407 O393 1.247 . S
C407 C401 1.507 . S
H408 C381 0.930 . S
H409 C382 0.931 1_556 S
H410 C383 0.930 . S
H411 C384 0.930 . S
H412 C403 0.930 . S
H413 C404 0.931 . S
H414 C405 0.930 . S
H415 C406 0.930 . S
C416 C417 1.358 1_565 S
C416 C418 1.419 . S
C416 H420 0.930 . S
C417 C416 1.358 1_545 S
C417 C426 1.441 . S
C418 C416 1.419 . S
C418 C419 1.358 1_565 S
C418 H421 0.929 . S
C419 C418 1.358 1_545 S
C419 C425 1.434 . S
H420 C416 0.930 . S
H421 C418 0.929 . S
S422 N423 1.613 . S
S422 N424 1.610 . S
N423 S422 1.613 . S
N423 C426 1.350 . S
N424 S422 1.610 . S
N424 C425 1.351 . S
C425 C419 1.434 . S
C425 N424 1.351 . S
C425 C426 1.434 . S
C426 C417 1.441 . S
C426 N423 1.350 . S
C426 C425 1.434 . S
C427 C428 1.369 . S
C427 C429 1.419 . S
C427 H431 0.930 . S
C428 C427 1.369 . S
C428 C437 1.429 . S
C429 C427 1.419 . S
C429 C430 1.363 . S
C429 H432 0.929 . S
C430 C429 1.363 . S
C430 C436 1.428 . S
H431 C427 0.930 . S
H432 C429 0.929 . S
S433 N434 1.613 . S
S433 N435 1.610 . S
N434 S433 1.613 . S
N434 C437 1.350 . S
N435 S433 1.610 . S
N435 C436 1.351 . S
C436 C430 1.428 . S
C436 N435 1.351 . S
C436 C437 1.434 . S
C437 C428 1.429 . S
C437 N434 1.350 . S
C437 C436 1.434 . S
C438 C439 1.369 . S
C438 C440 1.419 . S
C438 H442 0.930 . S
C439 C438 1.369 . S
C439 C448 1.429 . S
C440 C438 1.419 . S
C440 C441 1.363 . S
C440 H443 0.929 . S
C441 C440 1.363 . S
C441 C447 1.428 . S
H442 C438 0.930 . S
H443 C440 0.929 . S
S444 N445 1.613 . S
S444 N446 1.610 . S
N445 S444 1.613 . S
N445 C448 1.350 . S
N446 S444 1.610 . S
N446 C447 1.351 . S
C447 C441 1.428 . S
C447 N446 1.351 . S
C447 C448 1.434 . S
C448 C439 1.429 . S
C448 N445 1.350 . S
C448 C447 1.434 . S
C449 C450 1.362 1_655 S
C449 C451 1.419 . S
C449 H453 0.930 . S
C450 C449 1.362 1_455 S
C450 C459 1.436 . S
C451 C449 1.419 . S
C451 C452 1.363 1_655 S
C451 H454 0.929 . S
C452 C451 1.363 1_455 S
C452 C458 1.428 . S
H453 C449 0.930 . S
H454 C451 0.929 . S
S455 N456 1.613 . S
S455 N457 1.610 . S
N456 S455 1.613 . S
N456 C459 1.350 . S
N457 S455 1.610 . S
N457 C458 1.351 . S
C458 C452 1.428 . S
C458 N457 1.351 . S
C458 C459 1.434 . S
C459 C450 1.436 . S
C459 N456 1.350 . S
C459 C458 1.434 . S
C460 C461 1.367 1_545 S
C460 C462 1.419 . S
C460 H464 0.930 . S
C461 C460 1.367 1_565 S
C461 C470 1.431 . S
C462 C460 1.419 . S
C462 C463 1.365 1_545 S
C462 H465 0.929 . S
C463 C462 1.365 1_565 S
C463 C469 1.426 . S
H464 C460 0.930 . S
H465 C462 0.929 . S
S466 N467 1.613 . S
S466 N468 1.610 . S
N467 S466 1.613 . S
N467 C470 1.350 . S
N468 S466 1.610 . S
N468 C469 1.351 . S
C469 C463 1.426 . S
C469 N468 1.351 . S
C469 C470 1.434 . S
C470 C461 1.431 . S
C470 N467 1.350 . S
C470 C469 1.434 . S
C471 C472 1.369 . S
C471 C473 1.419 . S
C471 H475 0.930 . S
C472 C471 1.369 . S
C472 C481 1.429 . S
C473 C471 1.419 . S
C473 C474 1.363 . S
C473 H476 0.929 . S
C474 C473 1.363 . S
C474 C480 1.428 . S
H475 C471 0.930 . S
H476 C473 0.929 . S
S477 N478 1.613 . S
S477 N479 1.610 . S
N478 S477 1.613 . S
N478 C481 1.350 . S
N479 S477 1.610 . S
N479 C480 1.351 . S
C480 C474 1.428 . S
C480 N479 1.351 . S
C480 C481 1.434 . S
C481 C472 1.429 . S
C481 N478 1.350 . S
C481 C480 1.434 . S
C482 C483 1.369 . S
C482 C484 1.419 . S
C482 H486 0.930 . S
C483 C482 1.369 . S
C483 C492 1.429 . S
C484 C482 1.419 . S
C484 C485 1.363 . S
C484 H487 0.929 . S
C485 C484 1.363 . S
C485 C491 1.428 . S
H486 C482 0.930 . S
H487 C484 0.929 . S
S488 N489 1.613 . S
S488 N490 1.610 . S
N489 S488 1.613 . S
N489 C492 1.350 . S
N490 S488 1.610 . S
N490 C491 1.351 . S
C491 C485 1.428 . S
C491 N490 1.351 . S
C491 C492 1.434 . S
C492 C483 1.429 . S
C492 N489 1.350 . S
C492 C491 1.434 . S
C493 C494 1.352 1_455 S
C493 C495 1.419 . S
C493 H497 0.930 . S
C494 C493 1.352 1_655 S
C494 C503 1.447 . S
C495 C493 1.419 . S
C495 C496 1.363 1_455 S
C495 H498 0.929 . S
C496 C495 1.363 1_655 S
C496 C502 1.428 . S
H497 C493 0.930 . S
H498 C495 0.929 . S
S499 N500 1.613 . S
S499 N501 1.610 . S
N500 S499 1.613 . S
N500 C503 1.350 . S
N501 S499 1.610 . S
N501 C502 1.351 . S
C502 C496 1.428 . S
C502 N501 1.351 . S
C502 C503 1.434 . S
C503 C494 1.447 . S
C503 N500 1.350 . S
C503 C502 1.434 . S
C504 C505 1.368 1_455 S
C504 C506 1.419 1_455 S
C504 H508 0.930 . S
C505 C504 1.368 1_655 S
C505 C514 1.434 . S
C506 C504 1.419 1_655 S
C506 C507 1.363 . S
C506 H509 0.929 . S
C507 C506 1.363 . S
C507 C513 1.428 . S
H508 C504 0.930 . S
H509 C506 0.929 . S
S510 N511 1.613 . S
S510 N512 1.610 . S
N511 S510 1.613 . S
N511 C514 1.350 . S
N512 S510 1.610 . S
N512 C513 1.351 . S
C513 C507 1.428 . S
C513 N512 1.351 . S
C513 C514 1.434 . S
C514 C505 1.434 . S
C514 N511 1.350 . S
C514 C513 1.434 . S
C515 C516 1.360 1_565 S
C515 C517 1.419 . S
C515 H519 0.930 . S
C516 C515 1.360 1_545 S
C516 C525 1.431 . S
C517 C515 1.419 . S
C517 C518 1.363 . S
C517 H520 0.929 . S
C518 C517 1.363 . S
C518 C524 1.428 . S
H519 C515 0.930 . S
H520 C517 0.929 . S
S521 N522 1.613 . S
S521 N523 1.610 1_545 S
N522 S521 1.613 . S
N522 C525 1.350 . S
N523 S521 1.610 1_565 S
N523 C524 1.351 . S
C524 C518 1.428 . S
C524 N523 1.351 . S
C524 C525 1.434 1_565 S
C525 C516 1.431 . S
C525 N522 1.350 . S
C525 C524 1.434 1_545 S
C526 C527 1.369 . S
C526 C528 1.419 . S
C526 H530 0.930 . S
C527 C526 1.369 . S
C527 C536 1.429 . S
C528 C526 1.419 . S
C528 C529 1.363 . S
C528 H531 0.929 . S
C529 C528 1.363 . S
C529 C535 1.428 . S
H530 C526 0.930 . S
H531 C528 0.929 . S
S532 N533 1.613 . S
S532 N534 1.610 . S
N533 S532 1.613 . S
N533 C536 1.350 . S
N534 S532 1.610 . S
N534 C535 1.351 . S
C535 C529 1.428 . S
C535 N534 1.351 . S
C535 C536 1.434 . S
C536 C527 1.429 . S
C536 N533 1.350 . S
C536 C535 1.434 . S
C537 C538 1.369 . S
C537 C539 1.419 . S
C537 H541 0.930 . S
C538 C537 1.369 . S
C538 C547 1.429 . S
C539 C537 1.419 . S
C539 C540 1.363 . S
C539 H542 0.929 . S
C540 C539 1.363 . S
C540 C546 1.428 . S
H541 C537 0.930 . S
H542 C539 0.929 . S
S543 N544 1.613 . S
S543 N545 1.610 . S
N544 S543 1.613 . S
N544 C547 1.350 . S
N545 S543 1.610 . S
N545 C546 1.351 . S
C546 C540 1.428 . S
C546 N545 1.351 . S
C546 C547 1.434 . S
C547 C538 1.429 . S
C547 N544 1.350 . S
C547 C546 1.434 . S
C548 C549 1.361 1_455 S
C548 C550 1.419 . S
C548 H552 0.930 . S
C549 C548 1.361 1_655 S
C549 C558 1.430 . S
C550 C548 1.419 . S
C550 C551 1.363 . S
C550 H553 0.929 . S
C551 C550 1.363 . S
C551 C557 1.428 . S
H552 C548 0.930 . S
H553 C550 0.929 . S
S554 N555 1.613 . S
S554 N556 1.610 1_655 S
N555 S554 1.613 . S
N555 C558 1.350 . S
N556 S554 1.610 1_455 S
N556 C557 1.351 . S
C557 C551 1.428 . S
C557 N556 1.351 . S
C557 C558 1.434 1_455 S
C558 C549 1.430 . S
C558 N555 1.350 . S
C558 C557 1.434 1_655 S
C559 C560 1.362 1_545 S
C559 C561 1.419 . S
C559 H563 0.930 . S
C560 C559 1.362 1_565 S
C560 C569 1.431 . S
C561 C559 1.419 . S
C561 C562 1.363 . S
C561 H564 0.929 . S
C562 C561 1.363 . S
C562 C568 1.428 . S
H563 C559 0.930 . S
H564 C561 0.929 . S
S565 N566 1.613 . S
S565 N567 1.622 . S
N566 S565 1.613 . S
N566 C569 1.350 . S
N567 S565 1.622 . S
N567 C568 1.346 1_565 S
C568 C562 1.428 . S
C568 N567 1.346 1_545 S
C568 C569 1.434 1_545 S
C569 C560 1.431 . S
C569 N566 1.350 . S
C569 C568 1.434 1_565 S
C570 C571 1.369 . S
C570 C572 1.419 . S
C570 H574 0.930 . S
C571 C570 1.369 . S
C571 C580 1.429 . S
C572 C570 1.419 . S
C572 C573 1.363 . S
C572 H575 0.929 . S
C573 C572 1.363 . S
C573 C579 1.428 . S
H574 C570 0.930 . S
H575 C572 0.929 . S
S576 N577 1.613 . S
S576 N578 1.610 . S
N577 S576 1.613 . S
N577 C580 1.350 . S
N578 S576 1.610 . S
N578 C579 1.351 . S
C579 C573 1.428 . S
C579 N578 1.351 . S
C579 C580 1.434 . S
C580 C571 1.429 . S
C580 N577 1.350 . S
C580 C579 1.434 . S
C581 C582 1.369 . S
C581 C583 1.419 . S
C581 H585 0.930 . S
C582 C581 1.369 . S
C582 C591 1.429 . S
C583 C581 1.419 . S
C583 C584 1.363 . S
C583 H586 0.929 . S
C584 C583 1.363 . S
C584 C590 1.428 . S
H585 C581 0.930 . S
H586 C583 0.929 . S
S587 N588 1.613 . S
S587 N589 1.610 . S
N588 S587 1.613 . S
N588 C591 1.350 . S
N589 S587 1.610 . S
N589 C590 1.351 . S
C590 C584 1.428 . S
C590 N589 1.351 . S
C590 C591 1.434 . S
C591 C582 1.429 . S
C591 N588 1.350 . S
C591 C590 1.434 . S
C592 C593 1.369 . S
C592 C594 1.419 . S
C592 H596 0.930 . S
C593 C592 1.369 . S
C593 C602 1.429 1_455 S
C594 C592 1.419 . S
C594 C595 1.363 . S
C594 H597 0.929 . S
C595 C594 1.363 . S
C595 C601 1.428 1_455 S
H596 C592 0.930 . S
H597 C594 0.929 . S
S598 N599 1.613 . S
S598 N600 1.610 . S
N599 S598 1.613 . S
N599 C602 1.350 . S
N600 S598 1.610 . S
N600 C601 1.351 . S
C601 C595 1.428 1_655 S
C601 N600 1.351 . S
C601 C602 1.434 . S
C602 C593 1.429 1_655 S
C602 N599 1.350 . S
C602 C601 1.434 . S
C603 C604 1.369 . S
C603 C605 1.419 . S
C603 H607 0.930 . S
C604 C603 1.369 . S
C604 C613 1.429 . S
C605 C603 1.419 . S
C605 C606 1.363 . S
C605 H608 0.929 . S
C606 C605 1.363 . S
C606 C612 1.428 . S
H607 C603 0.930 . S
H608 C605 0.929 . S
S609 N610 1.613 . S
S609 N611 1.610 . S
N610 S609 1.613 . S
N610 C613 1.350 . S
N611 S609 1.610 . S
N611 C612 1.351 . S
C612 C606 1.428 . S
C612 N611 1.351 . S
C612 C613 1.434 . S
C613 C604 1.429 . S
C613 N610 1.350 . S
C613 C612 1.434 . S
C614 C615 1.369 . S
C614 C616 1.419 . S
C614 H618 0.930 . S
C615 C614 1.369 . S
C615 C624 1.429 . S
C616 C614 1.419 . S
C616 C617 1.363 . S
C616 H619 0.929 . S
C617 C616 1.363 . S
C617 C623 1.428 . S
H618 C614 0.930 . S
H619 C616 0.929 . S
S620 N621 1.613 . S
S620 N622 1.610 . S
N621 S620 1.613 . S
N621 C624 1.350 . S
N622 S620 1.610 . S
N622 C623 1.351 . S
C623 C617 1.428 . S
C623 N622 1.351 . S
C623 C624 1.434 . S
C624 C615 1.429 . S
C624 N621 1.350 . S
C624 C623 1.434 . S
C625 C626 1.369 . S
C625 C627 1.419 . S
C625 H629 0.930 . S
C626 C625 1.369 . S
C626 C635 1.429 . S
C627 C625 1.419 . S
C627 C628 1.363 . S
C627 H630 0.929 . S
C628 C627 1.363 . S
C628 C634 1.428 . S
H629 C625 0.930 . S
H630 C627 0.929 . S
S631 N632 1.613 . S
S631 N633 1.610 . S
N632 S631 1.613 . S
N632 C635 1.350 . S
N633 S631 1.610 . S
N633 C634 1.351 . S
C634 C628 1.428 . S
C634 N633 1.351 . S
C634 C635 1.434 . S
C635 C626 1.429 . S
C635 N632 1.350 . S
C635 C634 1.434 . S
C636 C637 1.369 . S
C636 C638 1.419 . S
C636 H640 0.930 . S
C637 C636 1.369 . S
C637 C646 1.429 . S
C638 C636 1.419 . S
C638 C639 1.363 . S
C638 H641 0.929 . S
C639 C638 1.363 . S
C639 C645 1.428 . S
H640 C636 0.930 . S
H641 C638 0.929 . S
S642 N643 1.613 . S
S642 N644 1.616 . S
N643 S642 1.613 . S
N643 C646 1.350 1_455 S
N644 S642 1.616 . S
N644 C645 1.347 1_455 S
C645 C639 1.428 . S
C645 N644 1.347 1_655 S
C645 C646 1.434 . S
C646 C637 1.429 . S
C646 N643 1.350 1_655 S
C646 C645 1.434 . S
C647 C648 1.369 1_545 S
C647 C649 1.419 . S
C647 H651 0.930 . S
C648 C647 1.369 1_565 S
C648 C657 1.429 . S
C649 C647 1.419 . S
C649 C650 1.363 1_545 S
C649 H652 0.929 . S
C650 C649 1.363 1_565 S
C650 C656 1.428 . S
H651 C647 0.930 . S
H652 C649 0.929 . S
S653 N654 1.613 . S
S653 N655 1.610 . S
N654 S653 1.613 . S
N654 C657 1.350 . S
N655 S653 1.610 . S
N655 C656 1.351 . S
C656 C650 1.428 . S
C656 N655 1.351 . S
C656 C657 1.434 . S
C657 C648 1.429 . S
C657 N654 1.350 . S
C657 C656 1.434 . S
C658 C659 1.369 . S
C658 C660 1.419 . S
C658 H662 0.930 . S
C659 C658 1.369 . S
C659 C668 1.429 . S
C660 C658 1.419 . S
C660 C661 1.363 . S
C660 H663 0.929 . S
C661 C660 1.363 . S
C661 C667 1.428 . S
H662 C658 0.930 . S
H663 C660 0.929 . S
S664 N665 1.613 . S
S664 N666 1.610 . S
N665 S664 1.613 . S
N665 C668 1.350 . S
N666 S664 1.610 . S
N666 C667 1.351 . S
C667 C661 1.428 . S
C667 N666 1.351 . S
C667 C668 1.434 . S
C668 C659 1.429 . S
C668 N665 1.350 . S
C668 C667 1.434 . S
C669 C670 1.369 . S
C669 C671 1.419 . S
C669 H673 0.930 . S
C670 C669 1.369 . S
C670 C679 1.429 . S
C671 C669 1.419 . S
C671 C672 1.363 . S
C671 H674 0.929 . S
C672 C671 1.363 . S
C672 C678 1.428 . S
H673 C669 0.930 . S
H674 C671 0.929 . S
S675 N676 1.613 . S
S675 N677 1.610 . S
N676 S675 1.613 . S
N676 C679 1.350 . S
N677 S675 1.610 . S
N677 C678 1.351 . S
C678 C672 1.428 . S
C678 N677 1.351 . S
C678 C679 1.434 . S
C679 C670 1.429 . S
C679 N676 1.350 . S
C679 C678 1.434 . S
C417 C215 2.311 . S
C419 C258 2.589 1_545 S
C430 C298 2.611 . S
C428 C247 2.309 . S
C441 C338 2.617 . S
C439 C151 2.324 . S
C452 C378 2.599 1_455 S
C450 C183 2.317 . S
C463 C271 2.592 1_564 S
C461 C87 2.312 1_565 S
C472 C119 2.350 . S
C474 C311 2.612 1_554 S
C483 C23 2.363 . S
C485 C351 2.615 1_554 S
C494 C55 2.325 1_655 S
C496 C391 2.596 1_654 S
C507 C282 0.763 . S
C505 C189 0.747 1_655 S
C518 C322 0.740 . S
C516 C221 0.749 . S
C529 C362 0.718 . S
C527 C253 0.703 . S
C538 C157 0.708 . S
C540 C402 0.704 . S
C549 C61 0.765 1_655 S
C551 C265 0.747 . S
C562 C305 0.737 . S
C560 C93 0.757 1_565 S
C573 C345 0.722 . S
C571 C125 0.711 . S
C582 C29 0.714 . S
C584 C385 0.731 . S
C593 C177 2.815 . S
C595 C259 3.237 . S
C604 C209 2.779 . S
C606 C299 3.198 . S
C617 C339 3.186 . S
C615 C241 2.750 . S
C628 C379 3.230 . S
C626 C145 2.783 . S
C637 C49 2.851 1_655 S
C639 C278 3.244 . S
C650 C318 3.201 . S
C648 C81 2.810 1_565 S
C661 C358 3.190 . S
C659 C113 2.815 . S
C670 C17 2.857 . S
C672 C398 3.234 . S
