# Generated by pormake.
# Topology ptr, (4,4)-cn, num edge types: 1
# Building blocks:
#     Node 0, Type 0, BuildingBlock: QUQFOY_clean_sbu_1, # of connection points: 4
#     Node 1, Type 0, BuildingBlock: QUQFOY_clean_sbu_1, # of connection points: 4
#     Node 2, Type 0, BuildingBlock: QUQFOY_clean_sbu_1, # of connection points: 4
#     Node 3, Type 0, BuildingBlock: QUQFOY_clean_sbu_1, # of connection points: 4
#     Node 4, Type 0, BuildingBlock: QUQFOY_clean_sbu_1, # of connection points: 4
#     Node 5, Type 0, BuildingBlock: QUQFOY_clean_sbu_1, # of connection points: 4
#     Node 6, Type 0, BuildingBlock: QUQFOY_clean_sbu_1, # of connection points: 4
#     Node 7, Type 0, BuildingBlock: QUQFOY_clean_sbu_1, # of connection points: 4
#     Node 8, Type 0, BuildingBlock: QUQFOY_clean_sbu_1, # of connection points: 4
#     Node 9, Type 0, BuildingBlock: QUQFOY_clean_sbu_1, # of connection points: 4
#     Node 10, Type 0, BuildingBlock: QUQFOY_clean_sbu_1, # of connection points: 4
#     Node 11, Type 0, BuildingBlock: QUQFOY_clean_sbu_1, # of connection points: 4
#     Node 12, Type 0, BuildingBlock: QUQFOY_clean_sbu_1, # of connection points: 4
#     Node 13, Type 0, BuildingBlock: QUQFOY_clean_sbu_1, # of connection points: 4
#     Node 14, Type 0, BuildingBlock: QUQFOY_clean_sbu_1, # of connection points: 4
#     Node 15, Type 0, BuildingBlock: QUQFOY_clean_sbu_1, # of connection points: 4
#     Node 16, Type 0, BuildingBlock: QUQFOY_clean_sbu_1, # of connection points: 4
#     Node 17, Type 0, BuildingBlock: QUQFOY_clean_sbu_1, # of connection points: 4
#     Node 18, Type 1, BuildingBlock: AZAVOO_clean_linker_0, # of connection points: 4
#     Node 19, Type 1, BuildingBlock: AZAVOO_clean_linker_0, # of connection points: 4
#     Node 20, Type 1, BuildingBlock: AZAVOO_clean_linker_0, # of connection points: 4
#     Node 21, Type 1, BuildingBlock: AZAVOO_clean_linker_0, # of connection points: 4
#     Node 22, Type 1, BuildingBlock: AZAVOO_clean_linker_0, # of connection points: 4
#     Node 23, Type 1, BuildingBlock: AZAVOO_clean_linker_0, # of connection points: 4
#     Node 24, Type 1, BuildingBlock: AZAVOO_clean_linker_0, # of connection points: 4
#     Node 25, Type 1, BuildingBlock: AZAVOO_clean_linker_0, # of connection points: 4
#     Node 26, Type 1, BuildingBlock: AZAVOO_clean_linker_0, # of connection points: 4
#     Node 27, Type 1, BuildingBlock: AZAVOO_clean_linker_0, # of connection points: 4
#     Node 28, Type 1, BuildingBlock: AZAVOO_clean_linker_0, # of connection points: 4
#     Node 29, Type 1, BuildingBlock: AZAVOO_clean_linker_0, # of connection points: 4
#     Node 30, Type 1, BuildingBlock: AZAVOO_clean_linker_0, # of connection points: 4
#     Node 31, Type 1, BuildingBlock: AZAVOO_clean_linker_0, # of connection points: 4
#     Node 32, Type 1, BuildingBlock: AZAVOO_clean_linker_0, # of connection points: 4
#     Node 33, Type 1, BuildingBlock: AZAVOO_clean_linker_0, # of connection points: 4
#     Node 34, Type 1, BuildingBlock: AZAVOO_clean_linker_0, # of connection points: 4
#     Node 35, Type 1, BuildingBlock: AZAVOO_clean_linker_0, # of connection points: 4
#     Edge 36, Type (0, 1), BuildingBlock: OJICUG_clean_linker_0, # of connection points: 2
#     Edge 37, Type (0, 1), BuildingBlock: OJICUG_clean_linker_0, # of connection points: 2
#     Edge 38, Type (0, 1), BuildingBlock: OJICUG_clean_linker_0, # of connection points: 2
#     Edge 39, Type (0, 1), BuildingBlock: OJICUG_clean_linker_0, # of connection points: 2
#     Edge 40, Type (0, 1), BuildingBlock: OJICUG_clean_linker_0, # of connection points: 2
#     Edge 41, Type (0, 1), BuildingBlock: OJICUG_clean_linker_0, # of connection points: 2
#     Edge 42, Type (0, 1), BuildingBlock: OJICUG_clean_linker_0, # of connection points: 2
#     Edge 43, Type (0, 1), BuildingBlock: OJICUG_clean_linker_0, # of connection points: 2
#     Edge 44, Type (0, 1), BuildingBlock: OJICUG_clean_linker_0, # of connection points: 2
#     Edge 45, Type (0, 1), BuildingBlock: OJICUG_clean_linker_0, # of connection points: 2
#     Edge 46, Type (0, 1), BuildingBlock: OJICUG_clean_linker_0, # of connection points: 2
#     Edge 47, Type (0, 1), BuildingBlock: OJICUG_clean_linker_0, # of connection points: 2
#     Edge 48, Type (0, 1), BuildingBlock: OJICUG_clean_linker_0, # of connection points: 2
#     Edge 49, Type (0, 1), BuildingBlock: OJICUG_clean_linker_0, # of connection points: 2
#     Edge 50, Type (0, 1), BuildingBlock: OJICUG_clean_linker_0, # of connection points: 2
#     Edge 51, Type (0, 1), BuildingBlock: OJICUG_clean_linker_0, # of connection points: 2
#     Edge 52, Type (0, 1), BuildingBlock: OJICUG_clean_linker_0, # of connection points: 2
#     Edge 53, Type (0, 1), BuildingBlock: OJICUG_clean_linker_0, # of connection points: 2
#     Edge 54, Type (0, 1), BuildingBlock: OJICUG_clean_linker_0, # of connection points: 2
#     Edge 55, Type (0, 1), BuildingBlock: OJICUG_clean_linker_0, # of connection points: 2
#     Edge 56, Type (0, 1), BuildingBlock: OJICUG_clean_linker_0, # of connection points: 2
#     Edge 57, Type (0, 1), BuildingBlock: OJICUG_clean_linker_0, # of connection points: 2
#     Edge 58, Type (0, 1), BuildingBlock: OJICUG_clean_linker_0, # of connection points: 2
#     Edge 59, Type (0, 1), BuildingBlock: OJICUG_clean_linker_0, # of connection points: 2
#     Edge 60, Type (0, 1), BuildingBlock: OJICUG_clean_linker_0, # of connection points: 2
#     Edge 61, Type (0, 1), BuildingBlock: OJICUG_clean_linker_0, # of connection points: 2
#     Edge 62, Type (0, 1), BuildingBlock: OJICUG_clean_linker_0, # of connection points: 2
#     Edge 63, Type (0, 1), BuildingBlock: OJICUG_clean_linker_0, # of connection points: 2
#     Edge 64, Type (0, 1), BuildingBlock: OJICUG_clean_linker_0, # of connection points: 2
#     Edge 65, Type (0, 1), BuildingBlock: OJICUG_clean_linker_0, # of connection points: 2
#     Edge 66, Type (0, 1), BuildingBlock: OJICUG_clean_linker_0, # of connection points: 2
#     Edge 67, Type (0, 1), BuildingBlock: OJICUG_clean_linker_0, # of connection points: 2
#     Edge 68, Type (0, 1), BuildingBlock: OJICUG_clean_linker_0, # of connection points: 2
#     Edge 69, Type (0, 1), BuildingBlock: OJICUG_clean_linker_0, # of connection points: 2
#     Edge 70, Type (0, 1), BuildingBlock: OJICUG_clean_linker_0, # of connection points: 2
#     Edge 71, Type (0, 1), BuildingBlock: OJICUG_clean_linker_0, # of connection points: 2
#     Edge 72, Type (0, 1), BuildingBlock: OJICUG_clean_linker_0, # of connection points: 2
#     Edge 73, Type (0, 1), BuildingBlock: OJICUG_clean_linker_0, # of connection points: 2
#     Edge 74, Type (0, 1), BuildingBlock: OJICUG_clean_linker_0, # of connection points: 2
#     Edge 75, Type (0, 1), BuildingBlock: OJICUG_clean_linker_0, # of connection points: 2
#     Edge 76, Type (0, 1), BuildingBlock: OJICUG_clean_linker_0, # of connection points: 2
#     Edge 77, Type (0, 1), BuildingBlock: OJICUG_clean_linker_0, # of connection points: 2
#     Edge 78, Type (0, 1), BuildingBlock: OJICUG_clean_linker_0, # of connection points: 2
#     Edge 79, Type (0, 1), BuildingBlock: OJICUG_clean_linker_0, # of connection points: 2
#     Edge 80, Type (0, 1), BuildingBlock: OJICUG_clean_linker_0, # of connection points: 2
#     Edge 81, Type (0, 1), BuildingBlock: OJICUG_clean_linker_0, # of connection points: 2
#     Edge 82, Type (0, 1), BuildingBlock: OJICUG_clean_linker_0, # of connection points: 2
#     Edge 83, Type (0, 1), BuildingBlock: OJICUG_clean_linker_0, # of connection points: 2
#     Edge 84, Type (0, 1), BuildingBlock: OJICUG_clean_linker_0, # of connection points: 2
#     Edge 85, Type (0, 1), BuildingBlock: OJICUG_clean_linker_0, # of connection points: 2
#     Edge 86, Type (0, 1), BuildingBlock: OJICUG_clean_linker_0, # of connection points: 2
#     Edge 87, Type (0, 1), BuildingBlock: OJICUG_clean_linker_0, # of connection points: 2
#     Edge 88, Type (0, 1), BuildingBlock: OJICUG_clean_linker_0, # of connection points: 2
#     Edge 89, Type (0, 1), BuildingBlock: OJICUG_clean_linker_0, # of connection points: 2
#     Edge 90, Type (0, 1), BuildingBlock: OJICUG_clean_linker_0, # of connection points: 2
#     Edge 91, Type (0, 1), BuildingBlock: OJICUG_clean_linker_0, # of connection points: 2
#     Edge 92, Type (0, 1), BuildingBlock: OJICUG_clean_linker_0, # of connection points: 2
#     Edge 93, Type (0, 1), BuildingBlock: OJICUG_clean_linker_0, # of connection points: 2
#     Edge 94, Type (0, 1), BuildingBlock: OJICUG_clean_linker_0, # of connection points: 2
#     Edge 95, Type (0, 1), BuildingBlock: OJICUG_clean_linker_0, # of connection points: 2
#     Edge 96, Type (0, 1), BuildingBlock: OJICUG_clean_linker_0, # of connection points: 2
#     Edge 97, Type (0, 1), BuildingBlock: OJICUG_clean_linker_0, # of connection points: 2
#     Edge 98, Type (0, 1), BuildingBlock: OJICUG_clean_linker_0, # of connection points: 2
#     Edge 99, Type (0, 1), BuildingBlock: OJICUG_clean_linker_0, # of connection points: 2
#     Edge 100, Type (0, 1), BuildingBlock: OJICUG_clean_linker_0, # of connection points: 2
#     Edge 101, Type (0, 1), BuildingBlock: OJICUG_clean_linker_0, # of connection points: 2
#     Edge 102, Type (0, 1), BuildingBlock: OJICUG_clean_linker_0, # of connection points: 2
#     Edge 103, Type (0, 1), BuildingBlock: OJICUG_clean_linker_0, # of connection points: 2
#     Edge 104, Type (0, 1), BuildingBlock: OJICUG_clean_linker_0, # of connection points: 2
#     Edge 105, Type (0, 1), BuildingBlock: OJICUG_clean_linker_0, # of connection points: 2
#     Edge 106, Type (0, 1), BuildingBlock: OJICUG_clean_linker_0, # of connection points: 2
#     Edge 107, Type (0, 1), BuildingBlock: OJICUG_clean_linker_0, # of connection points: 2
# Relax obj value: 0.052
# Max RMSD: 0.178
# Mean RMSD: 0.114
data_MOF--net-ptr--node1-QUQFOY_clean_sbu_1--node2-AZAVOO_clean_linker_0--edge1-OJICUG_clean_linker_0
_symmetry_space_group_name_H-M    P1
_symmetry_Int_Tables_number       1
_symmetry_cell_setting            triclinic
loop_
_symmetry_equiv_pos_as_xyz
'x, y, z'
_cell_length_a     65.558865
_cell_length_b     64.378449
_cell_length_c     54.608547
_cell_angle_alpha  92.931546
_cell_angle_beta   92.343661
_cell_angle_gamma 119.99256
loop_
_atom_site_label
_atom_site_type_symbol
_atom_site_fract_x
_atom_site_fract_y
_atom_site_fract_z
_atom_type_partial_charge
O0 O 0.02164 0.41753 0.05641 0.0
Cd1 Cd 0.03413 0.40218 0.03147 0.0
Cd2 Cd 0.98797 0.37316 0.02101 0.0
O3 O 0.9853 0.38685 0.05508 0.0
O4 O 0.06618 0.41169 0.04631 0.0
O5 O 0.03697 0.37384 0.04126 0.0
C6 C 0.05831 0.38934 0.04977 0.0
C7 C 0.96198 0.33276 0.00769 0.0
C8 C 1.00143 0.40716 0.06489 0.0
C9 C 0.01659 0.4086 0.98413 0.0
O10 O 0.9967 0.39537 0.99253 0.0
O11 O 0.03542 0.41209 0.99572 0.0
O12 O 0.9551 0.3483 0.0094 0.0
O13 O 0.98367 0.33985 0.01476 0.0
O14 O 0.59915 0.59787 0.0967 0.0
Cd15 Cd 0.61344 0.61806 0.06722 0.0
Cd16 Cd 0.63002 0.58779 0.06168 0.0
O17 O 0.61739 0.5769 0.09563 0.0
O18 O 0.60809 0.64577 0.07244 0.0
O19 O 0.64367 0.64983 0.07484 0.0
C20 C 0.63059 0.6595 0.07673 0.0
C21 C 0.66924 0.60552 0.05217 0.0
C22 C 0.60375 0.58279 0.10593 0.0
C23 C 0.59638 0.58404 0.02137 0.0
O24 O 0.60604 0.57344 0.03149 0.0
O25 O 0.59872 0.60334 0.03177 0.0
O26 O 0.65703 0.58276 0.05493 0.0
O27 O 0.65959 0.61848 0.05652 0.0
O28 O 0.42298 0.01758 0.99887 0.0
Cd29 Cd 0.40864 0.02278 0.02984 0.0
Cd30 Cd 0.38411 0.97425 0.02568 0.0
O31 O 0.3976 0.97876 0.99101 0.0
O32 O 0.41147 0.05524 0.02983 0.0
O33 O 0.37744 0.02095 0.02384 0.0
C34 C 0.38887 0.04416 0.02484 0.0
C35 C 0.34421 0.95145 0.03327 0.0
C36 C 0.41482 0.99833 0.98481 0.0
C37 C 0.41876 0.99898 0.07007 0.0
O38 O 0.40612 0.97957 0.05649 0.0
O39 O 0.42117 0.01876 0.06366 0.0
O40 O 0.35614 0.9412 0.02732 0.0
O41 O 0.35447 0.97454 0.03297 0.0
O42 O 0.98401 0.58326 0.01642 0.0
Cd43 Cd 0.97485 0.60059 0.04283 0.0
Cd44 Cd 0.02097 0.62729 0.05086 0.0
O45 O 0.0208 0.61271 0.01621 0.0
O46 O 0.94268 0.59382 0.03151 0.0
O47 O 0.97439 0.63016 0.03331 0.0
C48 C 0.95208 0.61619 0.02725 0.0
C49 C 0.04685 0.66808 0.06244 0.0
C50 C 0.00372 0.59274 0.00685 0.0
C51 C 0.99409 0.59354 0.08898 0.0
O52 O 0.01367 0.60542 0.07947 0.0
O53 O 0.97536 0.59146 0.0786 0.0
O54 O 0.0543 0.6531 0.05926 0.0
O55 O 0.02453 0.66008 0.05808 0.0
O56 O 0.41125 0.40137 0.98235 0.0
Cd57 Cd 0.39643 0.38016 0.01084 0.0
Cd58 Cd 0.37692 0.40801 0.0154 0.0
O59 O 0.39089 0.42017 0.98196 0.0
O60 O 0.40169 0.35259 0.00428 0.0
O61 O 0.36615 0.34863 1.00273 0.0
C62 C 0.37917 0.33898 0.99988 0.0
C63 C 0.33761 0.39243 0.02433 0.0
C64 C 0.40595 0.41574 0.97262 0.0
C65 C 0.41046 0.41231 0.05709 0.0
O66 O 0.39945 0.42153 0.04685 0.0
O67 O 0.41051 0.39432 0.04641 0.0
O68 O 0.35121 0.4151 0.02204 0.0
O69 O 0.34581 0.37825 0.01938 0.0
O70 O 0.58901 0.98468 0.08288 0.0
Cd71 Cd 0.60117 0.97898 0.05034 0.0
Cd72 Cd 0.62387 0.02755 0.0536 0.0
O73 O 0.61113 0.02426 0.0883 0.0
O74 O 0.59605 0.94566 0.05041 0.0
O75 O 0.63145 0.9783 0.05362 0.0
C76 C 0.61868 0.95523 0.05368 0.0
C77 C 0.66356 0.04871 0.04534 0.0
C78 C 0.59597 0.00431 0.09592 0.0
C79 C 0.58846 0.00173 0.01037 0.0
O80 O 0.60119 0.02148 0.02337 0.0
O81 O 0.58679 0.98233 0.01711 0.0
O82 O 0.65233 0.05985 0.05085 0.0
O83 O 0.65264 0.02566 0.04634 0.0
O84 O 0.68662 0.74902 0.39378 0.0
Cd85 Cd 0.6977 0.73294 0.3681 0.0
Cd86 Cd 0.65126 0.70601 0.35797 0.0
O87 O 0.6494 0.72027 0.39199 0.0
O88 O 0.72992 0.74248 0.38226 0.0
O89 O 0.70072 0.70459 0.37746 0.0
C90 C 0.72212 0.72014 0.38569 0.0
C91 C 0.62544 0.66531 0.346 0.0
C92 C 0.66638 0.73986 0.40216 0.0
C93 C 0.6804 0.74058 0.321 0.0
O94 O 0.66031 0.72804 0.32935 0.0
O95 O 0.69888 0.74314 0.33254 0.0
O96 O 0.61818 0.68054 0.34797 0.0
O97 O 0.64754 0.67304 0.35166 0.0
O98 O 0.25893 0.92643 0.42541 0.0
Cd99 Cd 0.27437 0.95006 0.39898 0.0
Cd100 Cd 0.2951 0.92351 0.39311 0.0
O101 O 0.28139 0.90998 0.42624 0.0
O102 O 0.26857 0.97653 0.4094 0.0
O103 O 0.3045 0.98161 0.40794 0.0
C104 C 0.29111 0.99033 0.41332 0.0
C105 C 0.33392 0.9366 0.3838 0.0
C106 C 0.26502 0.91258 0.43496 0.0
C107 C 0.26126 0.92081 0.35172 0.0
O108 O 0.27254 0.91163 0.3615 0.0
O109 O 0.26065 0.93818 0.36309 0.0
O110 O 0.31879 0.91406 0.38471 0.0
O111 O 0.32755 0.952 0.39026 0.0
O112 O 0.09111 0.35322 0.33092 0.0
Cd113 Cd 0.07738 0.35911 0.36209 0.0
Cd114 Cd 0.05413 0.31102 0.35976 0.0
O115 O 0.06646 0.31411 0.32466 0.0
O116 O 0.08068 0.39155 0.36095 0.0
O117 O 0.04619 0.35764 0.35696 0.0
C118 C 0.058 0.3808 0.35694 0.0
C119 C 0.01481 0.2865 0.36842 0.0
C120 C 0.08305 0.33357 0.31754 0.0
C121 C 0.08974 0.33799 0.40309 0.0
O122 O 0.07724 0.31814 0.39016 0.0
O123 O 0.09128 0.35721 0.39604 0.0
O124 O 0.028 0.27751 0.36327 0.0
O125 O 0.02341 0.30929 0.36675 0.0
O126 O 0.65451 0.91562 0.35368 0.0
Cd127 Cd 0.64111 0.93045 0.3778 0.0
Cd128 Cd 0.68716 0.96107 0.39008 0.0
O129 O 0.69076 0.94661 0.35674 0.0
O130 O 0.60986 0.92189 0.36152 0.0
O131 O 0.63935 0.95953 0.36891 0.0
C132 C 0.61828 0.94454 0.35927 0.0
C133 C 0.71341 0.0019 0.40172 0.0
C134 C 0.67517 0.92631 0.34635 0.0
C135 C 0.65723 0.92549 0.42668 0.0
O136 O 0.67749 0.94009 0.41976 0.0
O137 O 0.63869 0.91999 0.41315 0.0
O138 O 0.72019 0.98627 0.40089 0.0
O139 O 0.69157 0.99453 0.39508 0.0
O140 O 0.07544 0.73811 0.31499 0.0
Cd141 Cd 0.06113 0.71717 0.34422 0.0
Cd142 Cd 0.04877 0.75078 0.35225 0.0
O143 O 0.06003 0.76167 0.318 0.0
O144 O 0.06692 0.69 0.33729 0.0
O145 O 0.03106 0.68516 0.33628 0.0
C146 C 0.04444 0.67595 0.3334 0.0
C147 C 0.01088 0.73718 0.3647 0.0
C148 C 0.07214 0.75438 0.30664 0.0
C149 C 0.08167 0.75025 0.3905 0.0
O150 O 0.07439 0.76311 0.38085 0.0
O151 O 0.07632 0.72991 0.37996 0.0
O152 O 0.02541 0.75981 0.36311 0.0
O153 O 0.01731 0.72201 0.35743 0.0
O154 O 0.25698 0.32411 0.41874 0.0
Cd155 Cd 0.26738 0.31654 0.3858 0.0
Cd156 Cd 0.28964 0.36501 0.38671 0.0
O157 O 0.27802 0.36378 0.42172 0.0
O158 O 0.26027 0.28279 0.38811 0.0
O159 O 0.29659 0.31355 0.38762 0.0
C160 C 0.28272 0.2909 0.38979 0.0
C161 C 0.32901 0.38605 0.37744 0.0
C162 C 0.26381 0.34425 0.43069 0.0
C163 C 0.25315 0.33722 0.34476 0.0
O164 O 0.26622 0.3575 0.35677 0.0
O165 O 0.25168 0.31823 0.35254 0.0
O166 O 0.31764 0.39712 0.3825 0.0
O167 O 0.31844 0.36311 0.37938 0.0
O168 O 0.35421 0.08234 0.72408 0.0
Cd169 Cd 0.3666 0.06746 0.69888 0.0
Cd170 Cd 0.32002 0.03832 0.68673 0.0
O171 O 0.31689 0.0537 0.71972 0.0
O172 O 0.39852 0.07699 0.71407 0.0
O173 O 0.36966 0.03902 0.7078 0.0
C174 C 0.39078 0.05455 0.71686 0.0
C175 C 0.29468 0.99716 0.67666 0.0
C176 C 0.33339 0.07304 0.7309 0.0
C177 C 0.35006 0.07321 0.65002 0.0
O178 O 0.32964 0.05859 0.65656 0.0
O179 O 0.36845 0.07857 0.66377 0.0
O180 O 0.28712 0.01218 0.677 0.0
O181 O 0.3168 0.00538 0.68273 0.0
O182 O 0.92962 0.25837 0.76195 0.0
Cd183 Cd 0.94564 0.28065 0.73447 0.0
Cd184 Cd 0.96329 0.25189 0.72985 0.0
O185 O 0.95132 0.24117 0.76424 0.0
O186 O 0.93913 0.30711 0.74254 0.0
O187 O 0.97532 0.31273 0.74333 0.0
C188 C 0.96153 0.3213 0.74713 0.0
C189 C 1.00224 0.26904 0.71931 0.0
C190 C 0.93544 0.24482 0.77262 0.0
C191 C 0.92999 0.24816 0.68866 0.0
O192 O 0.93897 0.23733 0.69967 0.0
O193 O 0.93251 0.26773 0.69847 0.0
O194 O 0.98972 0.2463 0.72199 0.0
O195 O 0.99313 0.28236 0.7245 0.0
O196 O 0.75575 0.68651 0.66619 0.0
Cd197 Cd 0.74082 0.69094 0.69721 0.0
Cd198 Cd 0.71913 0.64298 0.69328 0.0
O199 O 0.73078 0.64768 0.65796 0.0
O200 O 0.74411 0.72365 0.69782 0.0
O201 O 0.70989 0.68973 0.69096 0.0
C202 C 0.72157 0.71294 0.69258 0.0
C203 C 0.6798 0.62167 0.7031 0.0
C204 C 0.74771 0.66744 0.65183 0.0
C205 C 0.7538 0.66816 0.73659 0.0
O206 O 0.74323 0.64902 0.72221 0.0
O207 O 0.75308 0.68681 0.73123 0.0
O208 O 0.69051 0.61049 0.69575 0.0
O209 O 0.691 0.64483 0.7033 0.0
O210 O 0.31708 0.25381 0.68545 0.0
Cd211 Cd 0.3073 0.2688 0.71352 0.0
Cd212 Cd 0.35483 0.29405 0.7245 0.0
O213 O 0.35568 0.2779 0.69108 0.0
O214 O 0.27496 0.26158 0.70211 0.0
O215 O 0.3059 0.29845 0.70606 0.0
C216 C 0.28381 0.28417 0.69919 0.0
C217 C 0.38153 0.33475 0.73556 0.0
C218 C 0.3377 0.26084 0.67871 0.0
C219 C 0.32446 0.25996 0.76108 0.0
O220 O 0.34493 0.27339 0.75401 0.0
O221 O 0.3062 0.25645 0.74821 0.0
O222 O 0.38818 0.31901 0.73439 0.0
O223 O 0.35964 0.32756 0.7293 0.0
O224 O 0.7449 0.07222 0.65145 0.0
Cd225 Cd 0.72919 0.05093 0.67996 0.0
Cd226 Cd 0.71718 0.08459 0.68701 0.0
O227 O 0.72884 0.09521 0.65273 0.0
O228 O 0.73436 0.02341 0.67263 0.0
O229 O 0.69884 0.01938 0.67126 0.0
C230 C 0.71188 0.0098 0.66817 0.0
C231 C 0.67908 0.07097 0.69886 0.0
C232 C 0.74162 0.08821 0.64232 0.0
C233 C 0.74925 0.08363 0.72615 0.0
O234 O 0.74251 0.09672 0.716 0.0
O235 O 0.74363 0.0631 0.71591 0.0
O236 O 0.69365 0.09361 0.69739 0.0
O237 O 0.68561 0.05582 0.69184 0.0
O238 O 0.92484 0.6562 0.75133 0.0
Cd239 Cd 0.93637 0.64991 0.71864 0.0
Cd240 Cd 0.95885 0.69828 0.72158 0.0
O241 O 0.94685 0.69573 0.75662 0.0
O242 O 0.92944 0.61608 0.71971 0.0
O243 O 0.96572 0.64719 0.72063 0.0
C244 C 0.95192 0.62438 0.72181 0.0
C245 C 0.99829 0.71889 0.71245 0.0
C246 C 0.93181 0.67582 0.76438 0.0
C247 C 0.92282 0.67206 0.67884 0.0
O248 O 0.93569 0.69191 0.69164 0.0
O249 O 0.92133 0.65275 0.68564 0.0
O250 O 0.98734 0.73028 0.71807 0.0
O251 O 0.98727 0.69587 0.71384 0.0
H252 H 0.17957 0.38812 0.99853 0.0
H253 H 0.30929 0.32473 0.18816 0.0
H254 H 0.17392 0.3899 0.13257 0.0
H255 H 0.14712 0.39956 0.11095 0.0
H256 H 0.09071 0.32574 0.11205 0.0
H257 H 0.11861 0.31597 0.13239 0.0
H258 H 0.20828 0.38867 0.10149 0.0
H259 H 0.20188 0.39529 0.05883 0.0
H260 H 0.14258 0.32261 0.04775 0.0
H261 H 0.14938 0.31613 0.09038 0.0
H262 H 0.24628 0.38678 0.13384 0.0
H263 H 0.27678 0.39654 0.10504 0.0
H264 H 0.2323 0.32801 0.06358 0.0
H265 H 0.20184 0.31824 0.09286 0.0
H266 H 0.24264 0.37618 0.18902 0.0
H267 H 0.27838 0.37613 0.20365 0.0
H268 H 0.25524 0.30971 0.15889 0.0
H269 H 0.21938 0.30978 0.14467 0.0
H270 H 0.19696 0.37042 0.21436 0.0
H271 H 0.20847 0.3681 0.25668 0.0
H272 H 0.2059 0.30116 0.23521 0.0
H273 H 0.19259 0.30279 0.19329 0.0
H274 H 0.15881 0.37501 0.1845 0.0
H275 H 0.13503 0.37222 0.21881 0.0
H276 H 0.11845 0.29882 0.22518 0.0
H277 H 0.14122 0.30143 0.19001 0.0
O278 O 0.18189 0.38505 0.01529 0.0
O279 O 0.1515 0.34757 0.01058 0.0
O280 O 0.30554 0.3584 0.20659 0.0
O281 O 0.29531 0.32516 0.18264 0.0
C282 C 0.16655 0.34618 0.14199 0.0
C283 C 0.18302 0.34792 0.12497 0.0
C284 C 0.20313 0.34665 0.13275 0.0
C285 C 0.20644 0.34278 0.15747 0.0
C286 C 0.18941 0.33969 0.17432 0.0
C287 C 0.16928 0.34126 0.16655 0.0
C288 C 0.14828 0.35225 0.13408 0.0
C289 C 0.15565 0.37588 0.12854 0.0
C290 C 0.14014 0.38138 0.11619 0.0
C291 C 0.11652 0.36348 0.10953 0.0
C292 C 0.10881 0.33996 0.11637 0.0
C293 C 0.1246 0.33437 0.12842 0.0
C294 C 0.17943 0.35185 0.09893 0.0
C295 C 0.19408 0.37413 0.08974 0.0
C296 C 0.1903 0.37789 0.0654 0.0
C297 C 0.17173 0.35947 0.04986 0.0
C298 C 0.15706 0.33717 0.05921 0.0
C299 C 0.1609 0.33341 0.08353 0.0
C300 C 0.22188 0.35176 0.11554 0.0
C301 C 0.24318 0.37379 0.11865 0.0
C302 C 0.26047 0.37943 0.102 0.0
C303 C 0.25689 0.36315 0.08185 0.0
C304 C 0.23563 0.3409 0.07895 0.0
C305 C 0.21822 0.33531 0.09561 0.0
C306 C 0.22836 0.3429 0.16592 0.0
C307 C 0.24528 0.36158 0.18248 0.0
C308 C 0.26569 0.36153 0.19077 0.0
C309 C 0.26964 0.34287 0.18248 0.0
C310 C 0.25274 0.32433 0.16566 0.0
C311 C 0.23227 0.32434 0.15747 0.0
C312 C 0.19389 0.33678 0.20062 0.0
C313 C 0.19823 0.35491 0.21893 0.0
C314 C 0.20521 0.35372 0.2431 0.0
C315 C 0.20857 0.33464 0.24946 0.0
C316 C 0.20334 0.31603 0.23121 0.0
C317 C 0.1959 0.31701 0.20712 0.0
C318 C 0.15174 0.33841 0.18459 0.0
C319 C 0.14941 0.35808 0.19277 0.0
C320 C 0.13611 0.35655 0.21272 0.0
C321 C 0.12505 0.3354 0.22514 0.0
C322 C 0.12648 0.31534 0.21606 0.0
C323 C 0.13959 0.31682 0.19596 0.0
C324 C 0.16769 0.36357 0.02406 0.0
C325 C 0.29127 0.3427 0.19134 0.0
H326 H 0.62834 0.79001 1.0036 0.0
H327 H 0.71343 0.99698 0.20359 0.0
H328 H 0.63664 0.78625 0.14238 0.0
H329 H 0.62648 0.74672 0.12402 0.0
H330 H 0.70065 0.77142 0.11817 0.0
H331 H 0.71062 0.8108 0.13801 0.0
H332 H 0.63427 0.8195 0.10799 0.0
H333 H 0.62478 0.805 0.06441 0.0
H334 H 0.69817 0.82725 0.05677 0.0
H335 H 0.70741 0.84181 0.10036 0.0
H336 H 0.6365 0.85923 0.13907 0.0
H337 H 0.62306 0.88056 0.11337 0.0
H338 H 0.69033 0.91463 0.08125 0.0
H339 H 0.70378 0.89317 0.10756 0.0
H340 H 0.6519 0.87691 0.19052 0.0
H341 H 0.65518 0.91506 0.20538 0.0
H342 H 0.72403 0.95367 0.17697 0.0
H343 H 0.7206 0.91535 0.16244 0.0
H344 H 0.65198 0.83708 0.21488 0.0
H345 H 0.65155 0.85329 0.25589 0.0
H346 H 0.72549 0.90691 0.25451 0.0
H347 H 0.7252 0.89108 0.21266 0.0
H348 H 0.64822 0.7908 0.18814 0.0
H349 H 0.64827 0.76644 0.22069 0.0
H350 H 0.72197 0.81793 0.24071 0.0
H351 H 0.72213 0.84119 0.20658 0.0
O352 O 0.6325 0.79597 0.02076 0.0
O353 O 0.67043 0.80771 0.01781 0.0
O354 O 0.67621 0.96094 0.21219 0.0
O355 O 0.71165 0.98165 0.19785 0.0
C356 C 0.67974 0.82572 0.15071 0.0
C357 C 0.67721 0.84027 0.13368 0.0
C358 C 0.6789 0.8622 0.14195 0.0
C359 C 0.68437 0.87028 0.1671 0.0
C360 C 0.68695 0.85585 0.18423 0.0
C361 C 0.6845 0.83342 0.1761 0.0
C362 C 0.67435 0.80121 0.14186 0.0
C363 C 0.65071 0.78294 0.1376 0.0
C364 C 0.64495 0.76046 0.12669 0.0
C365 C 0.66271 0.75588 0.11917 0.0
C366 C 0.68652 0.77419 0.12388 0.0
C367 C 0.69228 0.79669 0.13521 0.0
C368 C 0.67153 0.83184 0.10719 0.0
C369 C 0.64827 0.82136 0.0968 0.0
C370 C 0.6429 0.81303 0.07194 0.0
C371 C 0.66072 0.81499 0.05709 0.0
C372 C 0.68404 0.8255 0.06767 0.0
C373 C 0.68937 0.83384 0.09253 0.0
C374 C 0.67109 0.87472 0.12518 0.0
C375 C 0.64828 0.87118 0.12636 0.0
C376 C 0.64058 0.88324 0.1115 0.0
C377 C 0.65555 0.89916 0.09508 0.0
C378 C 0.67842 0.90254 0.09376 0.0
C379 C 0.6861 0.89029 0.10866 0.0
C380 C 0.68613 0.89343 0.17565 0.0
C381 C 0.66772 0.89364 0.18765 0.0
C382 C 0.66962 0.91544 0.19605 0.0
C383 C 0.68992 0.93743 0.19243 0.0
C384 C 0.7082 0.93709 0.18012 0.0
C385 C 0.70629 0.91525 0.17178 0.0
C386 C 0.68862 0.86285 0.21086 0.0
C387 C 0.66822 0.85196 0.2237 0.0
C388 C 0.66808 0.8613 0.24725 0.0
C389 C 0.68848 0.88159 0.25868 0.0
C390 C 0.70932 0.8916 0.24619 0.0
C391 C 0.70932 0.88241 0.22241 0.0
C392 C 0.68528 0.81753 0.19454 0.0
C393 C 0.66461 0.79637 0.19891 0.0
C394 C 0.66458 0.78271 0.21797 0.0
C395 C 0.68506 0.79029 0.23367 0.0
C396 C 0.70593 0.8113 0.22889 0.0
C397 C 0.70604 0.82472 0.20946 0.0
C398 C 0.65494 0.80604 0.03071 0.0
C399 C 0.69208 0.96065 0.20144 0.0
H400 H 0.1535 0.81068 0.99049 0.0
H401 H 0.32442 0.97345 0.22137 0.0
H402 H 0.12659 0.821 0.11749 0.0
H403 H 0.09629 0.78217 0.09684 0.0
H404 H 0.13306 0.74834 0.12775 0.0
H405 H 0.16353 0.7872 0.14729 0.0
H406 H 0.16343 0.8557 0.08942 0.0
H407 H 0.15623 0.84077 0.04597 0.0
H408 H 0.18865 0.79805 0.06124 0.0
H409 H 0.19577 0.81321 0.10463 0.0
H410 H 0.20823 0.89604 0.10024 0.0
H411 H 0.23953 0.91563 0.07207 0.0
H412 H 0.27606 0.88192 0.1038 0.0
H413 H 0.24458 0.8622 0.13139 0.0
H414 H 0.22234 0.9194 0.15211 0.0
H415 H 0.25834 0.95632 0.16807 0.0
H416 H 0.2828 0.91381 0.20452 0.0
H417 H 0.24692 0.87703 0.18805 0.0
H418 H 0.19624 0.89909 0.20257 0.0
H419 H 0.21168 0.91383 0.24533 0.0
H420 H 0.21769 0.85065 0.25416 0.0
H421 H 0.20433 0.83737 0.21111 0.0
H422 H 0.13619 0.8442 0.1846 0.0
H423 H 0.10917 0.82254 0.21577 0.0
H424 H 0.14314 0.78015 0.22416 0.0
H425 H 0.16886 0.8009 0.19211 0.0
O426 O 0.15659 0.81642 0.00771 0.0
O427 O 0.17342 0.7948 0.01653 0.0
O428 O 0.29866 0.97999 0.19235 0.0
O429 O 0.31038 0.95912 0.21423 0.0
C430 C 0.16753 0.83063 0.14308 0.0
C431 C 0.18413 0.84433 0.12636 0.0
C432 C 0.20527 0.86551 0.13487 0.0
C433 C 0.20962 0.87334 0.16015 0.0
C434 C 0.19299 0.85974 0.17698 0.0
C435 C 0.17187 0.83837 0.16841 0.0
C436 C 0.14708 0.80683 0.13412 0.0
C437 C 0.12778 0.80507 0.1201 0.0
C438 C 0.11053 0.78289 0.10833 0.0
C439 C 0.1124 0.76219 0.1104 0.0
C440 C 0.1313 0.76399 0.12536 0.0
C441 C 0.14854 0.7861 0.13692 0.0
C442 C 0.18013 0.83552 0.10003 0.0
C443 C 0.16901 0.84317 0.08327 0.0
C444 C 0.1649 0.83459 0.0585 0.0
C445 C 0.17186 0.81821 0.05012 0.0
C446 C 0.18307 0.81065 0.06707 0.0
C447 C 0.18718 0.81927 0.09183 0.0
C448 C 0.22417 0.87773 0.11784 0.0
C449 C 0.22297 0.89287 0.10096 0.0
C450 C 0.2409 0.90409 0.08498 0.0
C451 C 0.26026 0.90024 0.08554 0.0
C452 C 0.26124 0.88496 0.10251 0.0
C453 C 0.24339 0.87384 0.11847 0.0
C454 C 0.23196 0.89558 0.16908 0.0
C455 C 0.23558 0.91811 0.16339 0.0
C456 C 0.25612 0.93915 0.17258 0.0
C457 C 0.27338 0.93801 0.18772 0.0
C458 C 0.26982 0.91534 0.19305 0.0
C459 C 0.24934 0.89431 0.1837 0.0
C460 C 0.19881 0.86695 0.20379 0.0
C461 C 0.20067 0.88836 0.21391 0.0
C462 C 0.2094 0.89668 0.23841 0.0
C463 C 0.21617 0.88356 0.25328 0.0
C464 C 0.21319 0.86155 0.24323 0.0
C465 C 0.20499 0.85358 0.2187 0.0
C466 C 0.15446 0.82411 0.18608 0.0
C467 C 0.13746 0.82995 0.19297 0.0
C468 C 0.1222 0.81768 0.211 0.0
C469 C 0.12388 0.79953 0.22274 0.0
C470 C 0.14082 0.79359 0.21536 0.0
C471 C 0.15575 0.80558 0.19709 0.0
C472 C 0.16739 0.80906 0.02381 0.0
C473 C 0.29489 0.96034 0.19813 0.0
H474 H 0.33259 0.19039 0.08044 0.0
H475 H 0.33683 0.02044 0.88084 0.0
H476 H 0.29818 0.18445 0.9532 0.0
H477 H 0.30965 0.22485 0.97129 0.0
H478 H 0.3741 0.25425 0.93403 0.0
H479 H 0.36294 0.21394 0.91686 0.0
H480 H 0.29844 0.14106 0.98188 0.0
H481 H 0.3063 0.15661 0.02515 0.0
H482 H 0.37631 0.21205 0.01012 0.0
H483 H 0.36831 0.19613 0.96699 0.0
H484 H 0.29831 0.09421 0.9595 0.0
H485 H 0.31113 0.07241 0.9857 0.0
H486 H 0.38373 0.12912 0.98309 0.0
H487 H 0.37055 0.15101 0.95814 0.0
H488 H 0.28336 0.08464 0.89777 0.0
H489 H 0.28102 0.04636 0.88543 0.0
H490 H 0.35659 0.07972 0.90103 0.0
H491 H 0.35867 0.11791 0.91302 0.0
H492 H 0.28395 0.11954 0.85919 0.0
H493 H 0.28504 0.10442 0.81717 0.0
H494 H 0.35947 0.12976 0.8318 0.0
H495 H 0.35823 0.14502 0.87308 0.0
H496 H 0.28696 0.17286 0.88899 0.0
H497 H 0.28633 0.19761 0.85648 0.0
H498 H 0.35509 0.21108 0.83764 0.0
H499 H 0.35584 0.18718 0.87049 0.0
O500 O 0.32989 0.18448 0.06328 0.0
O501 O 0.36566 0.21269 0.05457 0.0
O502 O 0.29845 0.01904 0.87783 0.0
O503 O 0.33723 0.03532 0.88566 0.0
C504 C 0.32529 0.17167 0.92661 0.0
C505 C 0.32773 0.15816 0.94506 0.0
C506 C 0.32658 0.13609 0.9385 0.0
C507 C 0.32239 0.12716 0.91358 0.0
C508 C 0.32059 0.14085 0.89508 0.0
C509 C 0.32188 0.16306 0.90153 0.0
C510 C 0.32967 0.19626 0.93362 0.0
C511 C 0.31454 0.19973 0.94859 0.0
C512 C 0.32111 0.22279 0.95889 0.0
C513 C 0.34295 0.24269 0.95437 0.0
C514 C 0.35738 0.23923 0.93825 0.0
C515 C 0.35086 0.21625 0.92808 0.0
C516 C 0.33271 0.16762 0.9713 0.0
C517 C 0.31546 0.15654 0.988 0.0
C518 C 0.32 0.16548 0.01268 0.0
C519 C 0.34191 0.18563 0.02108 0.0
C520 C 0.35923 0.19655 0.00426 0.0
C521 C 0.35468 0.18756 0.97961 0.0
C522 C 0.3335 0.12421 0.95705 0.0
C523 C 0.3169 0.10208 0.96517 0.0
C524 C 0.32433 0.08957 0.97992 0.0
C525 C 0.34855 0.09884 0.98651 0.0
C526 C 0.36494 0.12151 0.97895 0.0
C527 C 0.35746 0.13408 0.96453 0.0
C528 C 0.32112 0.10392 0.90655 0.0
C529 C 0.29935 0.08359 0.89856 0.0
C530 C 0.29809 0.06178 0.89152 0.0
C531 C 0.31862 0.05996 0.89232 0.0
C532 C 0.34043 0.08046 0.90028 0.0
C533 C 0.34167 0.10227 0.90725 0.0
C534 C 0.32103 0.13342 0.86904 0.0
C535 C 0.30048 0.12207 0.85305 0.0
C536 C 0.30112 0.11332 0.82921 0.0
C537 C 0.32237 0.11598 0.82111 0.0
C538 C 0.34292 0.12778 0.83721 0.0
C539 C 0.34224 0.13641 0.86087 0.0
C540 C 0.32135 0.17804 0.88195 0.0
C541 C 0.30187 0.18125 0.87782 0.0
C542 C 0.30149 0.19527 0.85918 0.0
C543 C 0.32068 0.20641 0.84446 0.0
C544 C 0.34016 0.20312 0.84881 0.0
C545 C 0.34052 0.18921 0.86741 0.0
C546 C 0.34662 0.19515 0.04728 0.0
C547 C 0.31739 0.03685 0.88482 0.0
H548 H 0.83117 0.19183 0.08601 0.0
H549 H 0.69224 0.00269 0.87688 0.0
H550 H 0.83527 0.202 0.9541 0.0
H551 H 0.86526 0.24159 0.9718 0.0
H552 H 0.91957 0.22441 0.95614 0.0
H553 H 0.88883 0.18376 0.93973 0.0
H554 H 0.80083 0.16747 0.98124 0.0
H555 H 0.80824 0.17924 0.02541 0.0
H556 H 0.86476 0.16296 0.02812 0.0
H557 H 0.85695 0.15093 0.98395 0.0
H558 H 0.76215 0.13134 0.94405 0.0
H559 H 0.73059 0.11235 0.97163 0.0
H560 H 0.76832 0.08183 0.00748 0.0
H561 H 0.79991 0.10081 0.97938 0.0
H562 H 0.76232 0.12201 0.89111 0.0
H563 H 0.72534 0.08668 0.87434 0.0
H564 H 0.74772 0.04051 0.90627 0.0
H565 H 0.7848 0.07605 0.92269 0.0
H566 H 0.80305 0.15935 0.8694 0.0
H567 H 0.7892 0.14693 0.82626 0.0
H568 H 0.80364 0.08845 0.83018 0.0
H569 H 0.8162 0.10042 0.87393 0.0
H570 H 0.84959 0.20324 0.89843 0.0
H571 H 0.87591 0.2257 0.86729 0.0
H572 H 0.88891 0.16699 0.85144 0.0
H573 H 0.86365 0.14536 0.88373 0.0
O574 O 0.82847 0.18698 0.06857 0.0
O575 O 0.85741 0.17843 0.06896 0.0
O576 O 0.69658 0.0415 0.86639 0.0
O577 O 0.70675 0.01695 0.88328 0.0
C578 C 0.84063 0.16543 0.93638 0.0
C579 C 0.82377 0.15092 0.95259 0.0
C580 C 0.80266 0.13004 0.94324 0.0
C581 C 0.79886 0.12305 0.91779 0.0
C582 C 0.8161 0.13692 0.90168 0.0
C583 C 0.83714 0.15805 0.91093 0.0
C584 C 0.85981 0.1899 0.9458 0.0
C585 C 0.85363 0.20667 0.95464 0.0
C586 C 0.8709 0.22947 0.96451 0.0
C587 C 0.89497 0.23641 0.96522 0.0
C588 C 0.90122 0.21962 0.95611 0.0
C589 C 0.88373 0.19649 0.94651 0.0
C590 C 0.82815 0.15804 0.97946 0.0
C591 C 0.81463 0.1662 0.99145 0.0
C592 C 0.81899 0.17304 0.01667 0.0
C593 C 0.83705 0.17198 0.03032 0.0
C594 C 0.85068 0.16394 0.01817 0.0
C595 C 0.84626 0.15706 0.99296 0.0
C596 C 0.78324 0.11733 0.9596 0.0
C597 C 0.76353 0.12039 0.95772 0.0
C598 C 0.74566 0.10977 0.9737 0.0
C599 C 0.74707 0.09578 0.99193 0.0
C600 C 0.76671 0.09244 0.99359 0.0
C601 C 0.78474 0.10325 0.9776 0.0
C602 C 0.77631 0.10155 0.90787 0.0
C603 C 0.75927 0.10424 0.8943 0.0
C604 C 0.73814 0.08403 0.88482 0.0
C605 C 0.7336 0.06074 0.88891 0.0
C606 C 0.75066 0.05816 0.90274 0.0
C607 C 0.77184 0.07841 0.91215 0.0
C608 C 0.81062 0.1308 0.87473 0.0
C609 C 0.80348 0.14404 0.86081 0.0
C610 C 0.79568 0.13693 0.83604 0.0
C611 C 0.79522 0.1166 0.8245 0.0
C612 C 0.80328 0.1039 0.83843 0.0
C613 C 0.81072 0.11083 0.86338 0.0
C614 C 0.85479 0.1727 0.89354 0.0
C615 C 0.85858 0.1955 0.88867 0.0
C616 C 0.8734 0.20815 0.87056 0.0
C617 C 0.88442 0.1981 0.85655 0.0
C618 C 0.88102 0.17549 0.86197 0.0
C619 C 0.86644 0.16299 0.88033 0.0
C620 C 0.84167 0.1793 0.0571 0.0
C621 C 0.71118 0.03922 0.87882 0.0
H622 H 0.85581 0.65676 0.08952 0.0
H623 H 0.67796 0.62701 0.88201 0.0
H624 H 0.8827 0.69066 0.96725 0.0
H625 H 0.9107 0.68186 0.98874 0.0
H626 H 0.88026 0.61373 0.9452 0.0
H627 H 0.852 0.62242 0.92431 0.0
H628 H 0.84013 0.6871 0.99481 0.0
H629 H 0.84803 0.681 0.03726 0.0
H630 H 0.83334 0.60936 0.01364 0.0
H631 H 0.82519 0.61561 0.97135 0.0
H632 H 0.7972 0.68617 0.97366 0.0
H633 H 0.76688 0.67641 1.00286 0.0
H634 H 0.74403 0.60082 0.98898 0.0
H635 H 0.77521 0.61107 0.96112 0.0
H636 H 0.79419 0.69417 0.91078 0.0
H637 H 0.75681 0.69123 0.89662 0.0
H638 H 0.72065 0.61444 0.90303 0.0
H639 H 0.75811 0.61762 0.91686 0.0
H640 H 0.83693 0.70028 0.87806 0.0
H641 H 0.82412 0.70294 0.83604 0.0
H642 H 0.77117 0.62739 0.83196 0.0
H643 H 0.78464 0.62484 0.87341 0.0
H644 H 0.88343 0.6992 0.90619 0.0
H645 H 0.90853 0.70349 0.87242 0.0
H646 H 0.85558 0.63284 0.84035 0.0
H647 H 0.83135 0.62845 0.8745 0.0
O648 O 0.85249 0.65874 0.07264 0.0
O649 O 0.84494 0.62213 0.05952 0.0
O650 O 0.71228 0.66836 0.88456 0.0
O651 O 0.69297 0.62883 0.88768 0.0
C652 C 0.84425 0.65909 0.93667 0.0
C653 C 0.82777 0.65577 0.95429 0.0
C654 C 0.80645 0.655 0.94727 0.0
C655 C 0.80156 0.65777 0.92265 0.0
C656 C 0.81787 0.66104 0.90494 0.0
C657 C 0.83924 0.66161 0.91187 0.0
C658 C 0.86527 0.65718 0.94422 0.0
C659 C 0.8826 0.67419 0.96182 0.0
C660 C 0.89854 0.66909 0.97415 0.0
C661 C 0.8974 0.64688 0.96903 0.0
C662 C 0.88125 0.63077 0.94995 0.0
C663 C 0.86535 0.63588 0.93767 0.0
C664 C 0.83223 0.65185 0.98005 0.0
C665 C 0.83856 0.67009 0.99889 0.0
C666 C 0.8431 0.66656 0.02309 0.0
C667 C 0.84137 0.64471 0.02884 0.0
C668 C 0.83487 0.62642 0.00985 0.0
C669 C 0.83025 0.62994 0.98569 0.0
C670 C 0.78835 0.64932 0.96531 0.0
C671 C 0.78572 0.66756 0.9772 0.0
C672 C 0.76825 0.66187 0.99375 0.0
C673 C 0.75283 0.63775 0.99845 0.0
C674 C 0.75577 0.61962 0.98644 0.0
C675 C 0.77345 0.62538 0.97025 0.0
C676 C 0.77877 0.65616 0.91508 0.0
C677 C 0.77813 0.67678 0.90923 0.0
C678 C 0.75678 0.67503 0.90112 0.0
C679 C 0.73572 0.65259 0.89873 0.0
C680 C 0.73649 0.632 0.90472 0.0
C681 C 0.75784 0.63377 0.91277 0.0
C682 C 0.81164 0.6624 0.8788 0.0
C683 C 0.82281 0.68429 0.86788 0.0
C684 C 0.81531 0.68579 0.84398 0.0
C685 C 0.79652 0.6654 0.83061 0.0
C686 C 0.78587 0.64339 0.8415 0.0
C687 C 0.79341 0.64191 0.86528 0.0
C688 C 0.85553 0.66354 0.89277 0.0
C689 C 0.87751 0.68454 0.89203 0.0
C690 C 0.8917 0.68705 0.87257 0.0
C691 C 0.88413 0.66855 0.85352 0.0
C692 C 0.86227 0.64734 0.85478 0.0
C693 C 0.84824 0.64483 0.87423 0.0
C694 C 0.84635 0.64109 0.05454 0.0
C695 C 0.71301 0.65052 0.8899 0.0
H696 H 0.82972 0.71225 0.33282 0.0
H697 H 0.9804 0.67024 0.53257 0.0
H698 H 0.83641 0.72496 0.47511 0.0
H699 H 0.80863 0.73321 0.45344 0.0
H700 H 0.75886 0.65667 0.44172 0.0
H701 H 0.7881 0.64878 0.46198 0.0
H702 H 0.85923 0.72461 0.43758 0.0
H703 H 0.8497 0.72673 0.39435 0.0
H704 H 0.82007 0.64979 0.38164 0.0
H705 H 0.82962 0.64795 0.425 0.0
H706 H 0.89805 0.7283 0.45107 0.0
H707 H 0.92909 0.74027 0.423 0.0
H708 H 0.91989 0.66871 0.42065 0.0
H709 H 0.88691 0.65634 0.44664 0.0
H710 H 0.91414 0.72075 0.51374 0.0
H711 H 0.95155 0.72435 0.52891 0.0
H712 H 0.92392 0.64912 0.50617 0.0
H713 H 0.88662 0.64581 0.49118 0.0
H714 H 0.86793 0.70886 0.5498 0.0
H715 H 0.8801 0.7064 0.59188 0.0
H716 H 0.87374 0.63769 0.57014 0.0
H717 H 0.85984 0.63959 0.52864 0.0
H718 H 0.82754 0.71185 0.52151 0.0
H719 H 0.80321 0.70862 0.5554 0.0
H720 H 0.78636 0.63503 0.56094 0.0
H721 H 0.80973 0.63811 0.52613 0.0
O722 O 0.83342 0.71101 0.34983 0.0
O723 O 0.81855 0.67145 0.34423 0.0
O724 O 0.97942 0.70811 0.53755 0.0
O725 O 0.96594 0.66944 0.52646 0.0
C726 C 0.83383 0.68219 0.47804 0.0
C727 C 0.85022 0.68455 0.46073 0.0
C728 C 0.87114 0.68466 0.4682 0.0
C729 C 0.87499 0.68093 0.49281 0.0
C730 C 0.85803 0.67719 0.50995 0.0
C731 C 0.83746 0.67807 0.50265 0.0
C732 C 0.81425 0.68631 0.47025 0.0
C733 C 0.81929 0.70998 0.46831 0.0
C734 C 0.80318 0.71462 0.45589 0.0
C735 C 0.7812 0.69565 0.44559 0.0
C736 C 0.77569 0.67182 0.44885 0.0
C737 C 0.79218 0.6672 0.46086 0.0
C738 C 0.84505 0.68612 0.43439 0.0
C739 C 0.85068 0.70825 0.42543 0.0
C740 C 0.84522 0.7094 0.40072 0.0
C741 C 0.83408 0.68842 0.38453 0.0
C742 C 0.82862 0.66628 0.3936 0.0
C743 C 0.83408 0.66518 0.41833 0.0
C744 C 0.89013 0.69144 0.45094 0.0
C745 C 0.90242 0.71507 0.44407 0.0
C746 C 0.92055 0.72199 0.42827 0.0
C747 C 0.92755 0.70566 0.4196 0.0
C748 C 0.91502 0.68184 0.42651 0.0
C749 C 0.89632 0.67476 0.44175 0.0
C750 C 0.8978 0.68307 0.50127 0.0
C751 C 0.91629 0.70512 0.51197 0.0
C752 C 0.93759 0.7071 0.52064 0.0
C753 C 0.94073 0.687 0.51875 0.0
C754 C 0.92212 0.66494 0.5079 0.0
C755 C 0.90083 0.66301 0.49925 0.0
C756 C 0.86313 0.67449 0.53607 0.0
C757 C 0.86866 0.69304 0.5543 0.0
C758 C 0.87595 0.69172 0.57831 0.0
C759 C 0.87835 0.67201 0.58451 0.0
C760 C 0.87196 0.65306 0.56629 0.0
C761 C 0.86423 0.65421 0.54241 0.0
C762 C 0.82027 0.67516 0.52109 0.0
C763 C 0.818 0.6948 0.52952 0.0
C764 C 0.80438 0.69302 0.54923 0.0
C765 C 0.79295 0.67162 0.56121 0.0
C766 C 0.79462 0.6517 0.5521 0.0
C767 C 0.80807 0.65345 0.53223 0.0
C768 C 0.82819 0.68968 0.35831 0.0
C769 C 0.96323 0.68893 0.52816 0.0
H770 H 0.31855 0.12532 0.33259 0.0
H771 H 0.35638 0.32002 0.54335 0.0
H772 H 0.30081 0.12039 0.47624 0.0
H773 H 0.28926 0.08004 0.45972 0.0
H774 H 0.36298 0.10068 0.45791 0.0
H775 H 0.3742 0.14193 0.47284 0.0
H776 H 0.30468 0.14022 0.43567 0.0
H777 H 0.30349 0.12891 0.39201 0.0
H778 H 0.37791 0.18109 0.39199 0.0
H779 H 0.3789 0.19204 0.4358 0.0
H780 H 0.30146 0.17715 0.44603 0.0
H781 H 0.28809 0.1983 0.42031 0.0
H782 H 0.3555 0.26368 0.43673 0.0
H783 H 0.3696 0.24135 0.46004 0.0
H784 H 0.30598 0.20339 0.5057 0.0
H785 H 0.30218 0.23787 0.52012 0.0
H786 H 0.37819 0.28331 0.52421 0.0
H787 H 0.38168 0.24868 0.50969 0.0
H788 H 0.31281 0.16907 0.54574 0.0
H789 H 0.31127 0.18434 0.58692 0.0
H790 H 0.38394 0.24129 0.58571 0.0
H791 H 0.38575 0.22443 0.54526 0.0
H792 H 0.3111 0.13062 0.5295 0.0
H793 H 0.31294 0.10726 0.56237 0.0
H794 H 0.38906 0.14391 0.56125 0.0
H795 H 0.3869 0.16823 0.52929 0.0
O796 O 0.31944 0.13003 0.34989 0.0
O797 O 0.35771 0.15716 0.35083 0.0
O798 O 0.31835 0.28201 0.53497 0.0
O799 O 0.35735 0.30612 0.53749 0.0
C800 C 0.34428 0.15896 0.48329 0.0
C801 C 0.34298 0.17359 0.46554 0.0
C802 C 0.34317 0.19502 0.47306 0.0
C803 C 0.34621 0.2025 0.4984 0.0
C804 C 0.34882 0.18855 0.51612 0.0
C805 C 0.34765 0.16664 0.50856 0.0
C806 C 0.33828 0.13404 0.47553 0.0
C807 C 0.31446 0.11615 0.47231 0.0
C808 C 0.30793 0.09294 0.46307 0.0
C809 C 0.32514 0.08678 0.45756 0.0
C810 C 0.34918 0.10473 0.46154 0.0
C811 C 0.35569 0.12826 0.47032 0.0
C812 C 0.34195 0.16675 0.43895 0.0
C813 C 0.32076 0.14902 0.42628 0.0
C814 C 0.3201 0.14268 0.40129 0.0
C815 C 0.34062 0.15405 0.38851 0.0
C816 C 0.3618 0.17195 0.40128 0.0
C817 C 0.36242 0.17824 0.42628 0.0
C818 C 0.33656 0.20761 0.45493 0.0
C819 C 0.31368 0.19579 0.44327 0.0
C820 C 0.30587 0.20817 0.42898 0.0
C821 C 0.3204 0.23302 0.4268 0.0
C822 C 0.34373 0.24459 0.4377 0.0
C823 C 0.3518 0.23191 0.45134 0.0
C824 C 0.34408 0.22362 0.50667 0.0
C825 C 0.32175 0.22084 0.50966 0.0
C826 C 0.31965 0.24054 0.51792 0.0
C827 C 0.3399 0.26336 0.52334 0.0
C828 C 0.36226 0.26602 0.52022 0.0
C829 C 0.36431 0.24629 0.51194 0.0
C830 C 0.34944 0.19551 0.5426 0.0
C831 C 0.32865 0.18428 0.55478 0.0
C832 C 0.3277 0.1934 0.57816 0.0
C833 C 0.34732 0.21444 0.58957 0.0
C834 C 0.36851 0.22499 0.57771 0.0
C835 C 0.36959 0.21546 0.55451 0.0
C836 C 0.34887 0.15124 0.52722 0.0
C837 C 0.32815 0.13356 0.5364 0.0
C838 C 0.32928 0.12003 0.55505 0.0
C839 C 0.35119 0.12355 0.56463 0.0
C840 C 0.37191 0.14092 0.55476 0.0
C841 C 0.37074 0.15472 0.53633 0.0
C842 C 0.33987 0.14725 0.36196 0.0
C843 C 0.33779 0.28432 0.53227 0.0
H844 H 0.81893 0.15962 0.32547 0.0
H845 H 0.00694 0.28217 0.54689 0.0
H846 H 0.79751 0.15639 0.44987 0.0
H847 H 0.76626 0.11741 0.43039 0.0
H848 H 0.79618 0.08166 0.47074 0.0
H849 H 0.82769 0.12045 0.48909 0.0
H850 H 0.84416 0.20207 0.42715 0.0
H851 H 0.83332 0.19031 0.38315 0.0
H852 H 0.83601 0.12535 0.3922 0.0
H853 H 0.84714 0.13747 0.43609 0.0
H854 H 0.89739 0.24498 0.45962 0.0
H855 H 0.92951 0.26554 0.43303 0.0
H856 H 0.92436 0.1975 0.41062 0.0
H857 H 0.89407 0.17777 0.43907 0.0
H858 H 0.8946 0.24895 0.51664 0.0
H859 H 0.93386 0.27948 0.53472 0.0
H860 H 0.96146 0.2337 0.5115 0.0
H861 H 0.92216 0.20336 0.49357 0.0
H862 H 0.84921 0.21302 0.54533 0.0
H863 H 0.86239 0.22514 0.58906 0.0
H864 H 0.91073 0.19823 0.58231 0.0
H865 H 0.89682 0.18545 0.53913 0.0
H866 H 0.7999 0.16804 0.51237 0.0
H867 H 0.77333 0.14659 0.54407 0.0
H868 H 0.82197 0.12419 0.57006 0.0
H869 H 0.84772 0.14476 0.53786 0.0
O870 O 0.82331 0.16395 0.3429 0.0
O871 O 0.82483 0.13078 0.34856 0.0
O872 O 0.97805 0.29621 0.5457 0.0
O873 O 0.99167 0.27121 0.53839 0.0
C874 C 0.83652 0.16467 0.47902 0.0
C875 C 0.85269 0.17781 0.46156 0.0
C876 C 0.87527 0.19758 0.4695 0.0
C877 C 0.88138 0.20453 0.49493 0.0
C878 C 0.86499 0.19193 0.51232 0.0
C879 C 0.84254 0.17201 0.50441 0.0
C880 C 0.81495 0.1413 0.47085 0.0
C881 C 0.79703 0.14007 0.45476 0.0
C882 C 0.77919 0.1178 0.44369 0.0
C883 C 0.779 0.09648 0.44867 0.0
C884 C 0.79613 0.09777 0.46604 0.0
C885 C 0.81396 0.11993 0.47687 0.0
C886 C 0.84623 0.17054 0.43484 0.0
C887 C 0.84242 0.18533 0.41957 0.0
C888 C 0.83621 0.17855 0.39446 0.0
C889 C 0.83372 0.15685 0.38416 0.0
C890 C 0.83771 0.14214 0.39954 0.0
C891 C 0.84398 0.14897 0.42463 0.0
C892 C 0.89325 0.20981 0.45138 0.0
C893 C 0.90328 0.23457 0.44898 0.0
C894 C 0.92151 0.24625 0.43346 0.0
C895 C 0.92984 0.23334 0.41953 0.0
C896 C 0.919 0.20832 0.42134 0.0
C897 C 0.90126 0.19682 0.43734 0.0
C898 C 0.90558 0.22401 0.50375 0.0
C899 C 0.90922 0.2457 0.51525 0.0
C900 C 0.93164 0.26307 0.52558 0.0
C901 C 0.95077 0.25895 0.52467 0.0
C902 C 0.94711 0.2374 0.51261 0.0
C903 C 0.92472 0.2201 0.50222 0.0
C904 C 0.87219 0.19854 0.53905 0.0
C905 C 0.86249 0.2096 0.55344 0.0
C906 C 0.87017 0.21664 0.57834 0.0
C907 C 0.88766 0.2127 0.58922 0.0
C908 C 0.89701 0.20125 0.5747 0.0
C909 C 0.88927 0.19414 0.54993 0.0
C910 C 0.82585 0.15814 0.52291 0.0
C911 C 0.80464 0.15829 0.52481 0.0
C912 C 0.7896 0.14619 0.54307 0.0
C913 C 0.79548 0.13365 0.55971 0.0
C914 C 0.81663 0.13332 0.55741 0.0
C915 C 0.83154 0.14529 0.53915 0.0
C916 C 0.82703 0.14966 0.3575 0.0
C917 C 0.97431 0.2767 0.53679 0.0
H918 H 0.00387 0.52847 0.41241 0.0
H919 H 0.00574 0.36084 0.19914 0.0
H920 H 0.96609 0.5232 0.2768 0.0
H921 H 0.97575 0.56271 0.29607 0.0
H922 H 0.04866 0.59102 0.28021 0.0
H923 H 0.03903 0.55146 0.2624 0.0
H924 H 0.96776 0.48433 0.31222 0.0
H925 H 0.97599 0.49889 0.35582 0.0
H926 H 0.05036 0.54156 0.34465 0.0
H927 H 0.04183 0.52674 0.30113 0.0
H928 H 0.96909 0.4353 0.29578 0.0
H929 H 0.98195 0.41327 0.3218 0.0
H930 H 0.05442 0.46205 0.3072 0.0
H931 H 0.04143 0.48407 0.28208 0.0
H932 H 0.95393 0.42028 0.24285 0.0
H933 H 0.95149 0.38219 0.22921 0.0
H934 H 0.0254 0.42094 0.21511 0.0
H935 H 0.02756 0.45883 0.2289 0.0
H936 H 0.95209 0.44618 0.19704 0.0
H937 H 0.95244 0.42994 0.15557 0.0
H938 H 0.02786 0.479 0.15773 0.0
H939 H 0.02693 0.49566 0.19838 0.0
H940 H 0.9546 0.49538 0.20568 0.0
H941 H 0.95429 0.51813 0.17123 0.0
H942 H 0.02951 0.56626 0.18619 0.0
H943 H 0.0298 0.54228 0.21905 0.0
O944 O 1.00102 0.52289 0.39515 0.0
O945 O 0.03905 0.54449 0.38843 0.0
O946 O 0.96834 0.3565 0.21251 0.0
O947 O 0.00622 0.37559 0.20476 0.0
C948 C 0.99701 0.51021 0.25956 0.0
C949 C 0.99901 0.49588 0.27722 0.0
C950 C 0.99706 0.47365 0.26973 0.0
C951 C 0.99215 0.46522 0.24467 0.0
C952 C 0.99028 0.4795 0.22692 0.0
C953 C 0.99277 0.50208 0.23429 0.0
C954 C 1.00177 0.53465 0.26773 0.0
C955 C 0.98403 0.53813 0.27717 0.0
C956 C 0.9896 0.56068 0.28817 0.0
C957 C 0.01304 0.58003 0.28992 0.0
C958 C 0.03052 0.57648 0.27966 0.0
C959 C 0.02499 0.55399 0.26898 0.0
C960 C 0.00419 0.50461 0.30361 0.0
C961 C 0.98579 0.49681 0.31928 0.0
C962 C 0.99056 0.50517 0.34414 0.0
C963 C 0.01383 0.52144 0.35372 0.0
C964 C 0.03224 0.52909 0.33788 0.0
C965 C 0.02743 0.52069 0.31304 0.0
C966 C 0.00438 0.46132 0.28726 0.0
C967 C 0.98775 0.44136 0.29864 0.0
C968 C 0.99513 0.42874 0.31332 0.0
C969 C 0.01926 0.43591 0.31672 0.0
C970 C 0.03579 0.45627 0.30554 0.0
C971 C 0.02841 0.46884 0.29103 0.0
C972 C 0.99088 0.4422 0.23678 0.0
C973 C 0.96955 0.42044 0.23685 0.0
C974 C 0.96822 0.39875 0.22903 0.0
C975 C 0.98826 0.39853 0.22102 0.0
C976 C 0.00965 0.42046 0.22113 0.0
C977 C 0.01094 0.44211 0.22898 0.0
C978 C 0.98944 0.47222 0.20053 0.0
C979 C 0.9685 0.45377 0.18815 0.0
C980 C 0.96884 0.44433 0.16461 0.0
C981 C 0.99021 0.45299 0.15321 0.0
C982 C 0.01097 0.4721 0.16553 0.0
C983 C 0.01054 0.48167 0.18887 0.0
C984 C 0.99213 0.51749 0.21527 0.0
C985 C 0.97093 0.51102 0.2016 0.0
C986 C 0.97079 0.52415 0.18199 0.0
C987 C 0.99189 0.54411 0.17578 0.0
C988 C 0.01296 0.55083 0.19006 0.0
C989 C 0.01312 0.53744 0.2093 0.0
C990 C 0.01882 0.53035 0.38011 0.0
C991 C 0.98691 0.37557 0.21254 0.0
H992 H 0.50378 0.5465 0.41036 0.0
H993 H 0.35345 0.34088 0.21137 0.0
H994 H 0.51004 0.54625 0.26003 0.0
H995 H 0.54058 0.58512 0.27937 0.0
H996 H 0.57551 0.55082 0.31334 0.0
H997 H 0.5452 0.51191 0.29281 0.0
H998 H 0.47968 0.5221 0.30449 0.0
H999 H 0.48722 0.5369 0.34799 0.0
H1000 H 0.51432 0.48947 0.36298 0.0
H1001 H 0.50677 0.47494 0.31938 0.0
H1002 H 0.42925 0.47371 0.27907 0.0
H1003 H 0.39789 0.45451 0.30686 0.0
H1004 H 0.4315 0.41669 0.33543 0.0
H1005 H 0.46265 0.43572 0.30696 0.0
H1006 H 0.42572 0.45993 0.22239 0.0
H1007 H 0.38809 0.42481 0.20668 0.0
H1008 H 0.4096 0.37831 0.23942 0.0
H1009 H 0.44733 0.41361 0.25471 0.0
H1010 H 0.46707 0.49625 0.19778 0.0
H1011 H 0.45377 0.48308 0.15471 0.0
H1012 H 0.46024 0.42011 0.16333 0.0
H1013 H 0.47571 0.43484 0.20605 0.0
H1014 H 0.50231 0.5314 0.21531 0.0
H1015 H 0.52888 0.55295 0.1842 0.0
H1016 H 0.56557 0.51363 0.19602 0.0
H1017 H 0.53762 0.491 0.22612 0.0
O1018 O 0.50088 0.54036 0.39327 0.0
O1019 O 0.51455 0.51557 0.40002 0.0
O1020 O 0.35869 0.37968 0.19953 0.0
O1021 O 0.36818 0.35506 0.2174 0.0
C1022 C 0.505 0.5026 0.26574 0.0
C1023 C 0.48845 0.48889 0.28249 0.0
C1024 C 0.46703 0.46806 0.27391 0.0
C1025 C 0.46231 0.46061 0.24855 0.0
C1026 C 0.47899 0.47407 0.23172 0.0
C1027 C 0.50039 0.49511 0.24034 0.0
C1028 C 0.52559 0.52633 0.27471 0.0
C1029 C 0.52468 0.54722 0.27101 0.0
C1030 C 0.54194 0.56936 0.28246 0.0
C1031 C 0.5603 0.57103 0.29825 0.0
C1032 C 0.56168 0.55017 0.30122 0.0
C1033 C 0.54442 0.52796 0.28953 0.0
C1034 C 0.49268 0.49748 0.30891 0.0
C1035 C 0.48722 0.51494 0.31725 0.0
C1036 C 0.49155 0.52335 0.34208 0.0
C1037 C 0.50138 0.51437 0.35897 0.0
C1038 C 0.50674 0.49676 0.35046 0.0
C1039 C 0.50242 0.4884 0.32562 0.0
C1040 C 0.44817 0.45608 0.29101 0.0
C1041 C 0.42982 0.46126 0.29133 0.0
C1042 C 0.41204 0.45043 0.3074 0.0
C1043 C 0.41226 0.43419 0.32357 0.0
C1044 C 0.43073 0.429 0.32315 0.0
C1045 C 0.44857 0.4399 0.30701 0.0
C1046 C 0.43929 0.43927 0.23949 0.0
C1047 C 0.42231 0.44213 0.22603 0.0
C1048 C 0.40082 0.42205 0.21714 0.0
C1049 C 0.39586 0.39873 0.22174 0.0
C1050 C 0.41286 0.39599 0.23551 0.0
C1051 C 0.4344 0.41611 0.2443 0.0
C1052 C 0.47302 0.46691 0.20492 0.0
C1053 C 0.46658 0.48016 0.19012 0.0
C1054 C 0.45838 0.47221 0.16557 0.0
C1055 C 0.45558 0.4503 0.15542 0.0
C1056 C 0.46244 0.43722 0.17027 0.0
C1057 C 0.47119 0.44553 0.19476 0.0
C1058 C 0.51782 0.50942 0.22273 0.0
C1059 C 0.51603 0.52739 0.21111 0.0
C1060 C 0.53152 0.53993 0.19348 0.0
C1061 C 0.54958 0.53519 0.18744 0.0
C1062 C 0.5517 0.51755 0.19975 0.0
C1063 C 0.53588 0.50471 0.21714 0.0
C1064 C 0.50603 0.5234 0.38532 0.0
C1065 C 0.37311 0.37732 0.2122 0.0
H1066 H 0.53105 0.00266 0.42226 0.0
H1067 H 0.34348 0.94571 0.2049 0.0
H1068 H 0.55296 0.02029 0.29178 0.0
H1069 H 0.58202 0.01177 0.31112 0.0
H1070 H 0.53797 0.93669 0.28468 0.0
H1071 H 0.51054 0.94603 0.26394 0.0
H1072 H 0.50867 0.02089 0.32368 0.0
H1073 H 0.51952 0.02011 0.36692 0.0
H1074 H 0.50331 0.94653 0.35243 0.0
H1075 H 0.4922 0.94746 0.30937 0.0
H1076 H 0.45405 0.01195 0.29678 0.0
H1077 H 0.42206 1.00098 0.32387 0.0
H1078 H 0.41943 0.93328 0.33288 0.0
H1079 H 0.44956 0.94347 0.3039 0.0
H1080 H 0.45534 0.02068 0.24766 0.0
H1081 H 0.41704 0.01441 0.23167 0.0
H1082 H 0.38843 0.9374 0.22825 0.0
H1083 H 0.42683 0.94398 0.24417 0.0
H1084 H 0.48961 0.03014 0.21735 0.0
H1085 H 0.47478 0.03277 0.17657 0.0
H1086 H 0.45068 0.95733 0.15868 0.0
H1087 H 0.46366 0.95464 0.20023 0.0
H1088 H 0.54529 0.03014 0.23464 0.0
H1089 H 0.57022 0.03454 0.2008 0.0
H1090 H 0.52444 0.9591 0.1771 0.0
H1091 H 0.50084 0.95478 0.21181 0.0
O1092 O 0.52654 0.00253 0.40513 0.0
O1093 O 0.5181 0.96478 0.39667 0.0
O1094 O 0.37373 0.98846 0.21519 0.0
O1095 O 0.3586 0.94877 0.21196 0.0
C1096 C 0.50968 0.98733 0.26921 0.0
C1097 C 0.49384 0.98526 0.2871 0.0
C1098 C 0.47231 0.98418 0.28008 0.0
C1099 C 0.46726 0.98645 0.25527 0.0
C1100 C 0.48369 0.98996 0.23764 0.0
C1101 C 0.50475 0.98998 0.2445 0.0
C1102 C 0.52978 0.98381 0.27627 0.0
C1103 C 0.5502 0.00222 0.28947 0.0
C1104 C 0.56654 0.99713 0.30096 0.0
C1105 C 0.56245 0.97338 0.29998 0.0
C1106 C 0.54234 0.95529 0.28568 0.0
C1107 C 0.52644 0.96055 0.27371 0.0
C1108 C 0.4999 0.98434 0.31338 0.0
C1109 C 0.50744 0.00462 0.32992 0.0
C1110 C 0.51365 0.00413 0.35458 0.0
C1111 C 0.51238 0.98329 0.36311 0.0
C1112 C 0.50459 0.96291 0.34646 0.0
C1113 C 0.49834 0.96342 0.32183 0.0
C1114 C 0.45417 0.97851 0.29822 0.0
C1115 C 0.44639 0.99468 0.30449 0.0
C1116 C 0.42827 0.98847 0.32033 0.0
C1117 C 0.41785 0.9661 0.33068 0.0
C1118 C 0.42643 0.9504 0.32496 0.0
C1119 C 0.44404 0.95636 0.30865 0.0
C1120 C 0.44377 0.98277 0.24706 0.0
C1121 C 0.44072 0.00249 0.24355 0.0
C1122 C 0.41885 0.99885 0.23441 0.0
C1123 C 0.39968 0.97538 0.2286 0.0
C1124 C 0.40281 0.95569 0.23248 0.0
C1125 C 0.42468 0.95937 0.24164 0.0
C1126 C 0.4779 0.99226 0.21167 0.0
C1127 C 0.48129 0.01428 0.20446 0.0
C1128 C 0.47289 0.01573 0.181 0.0
C1129 C 0.46129 0.99523 0.16408 0.0
C1130 C 0.45891 0.97342 0.17121 0.0
C1131 C 0.46676 0.97188 0.19486 0.0
C1132 C 0.52118 0.99218 0.22555 0.0
C1133 C 0.54099 0.01453 0.22232 0.0
C1134 C 0.55504 0.01704 0.20276 0.0
C1135 C 0.54937 0.99724 0.18589 0.0
C1136 C 0.52975 0.97473 0.18975 0.0
C1137 C 0.51601 0.97221 0.2095 0.0
C1138 C 0.51915 0.98288 0.38928 0.0
C1139 C 0.37659 0.97137 0.21825 0.0
H1140 H 0.49765 0.0487 0.66644 0.0
H1141 H 0.64755 0.00319 0.86382 0.0
H1142 H 0.50284 0.05754 0.80887 0.0
H1143 H 0.47551 0.06627 0.78699 0.0
H1144 H 0.42631 0.98986 0.77233 0.0
H1145 H 0.45514 0.98156 0.79284 0.0
H1146 H 0.52619 0.05825 0.77116 0.0
H1147 H 0.51704 0.06154 0.72816 0.0
H1148 H 0.48783 0.98487 0.71314 0.0
H1149 H 0.49699 0.98186 0.75629 0.0
H1150 H 0.56501 0.06135 0.78369 0.0
H1151 H 0.59639 0.07362 0.756 0.0
H1152 H 0.5871 0.00201 0.75309 0.0
H1153 H 0.55382 0.98937 0.77865 0.0
H1154 H 0.58065 0.05312 0.84588 0.0
H1155 H 0.61819 0.0569 0.86083 0.0
H1156 H 0.59083 0.98175 0.8379 0.0
H1157 H 0.5534 0.97827 0.82311 0.0
H1158 H 0.53427 0.04024 0.88225 0.0
H1159 H 0.5463 0.03716 0.92416 0.0
H1160 H 0.53985 0.96865 0.90125 0.0
H1161 H 0.52608 0.97117 0.85991 0.0
H1162 H 0.49388 0.04349 0.85439 0.0
H1163 H 0.46971 0.03973 0.88856 0.0
H1164 H 0.45283 0.96597 0.89262 0.0
H1165 H 0.47605 0.9696 0.8575 0.0
O1166 O 0.50121 0.04701 0.68335 0.0
O1167 O 0.48655 0.00756 0.67655 0.0
O1168 O 0.6463 0.04088 0.86913 0.0
O1169 O 0.63299 0.00228 0.85787 0.0
C1170 C 0.5005 0.01475 0.81028 0.0
C1171 C 0.51707 0.01753 0.79301 0.0
C1172 C 0.53792 0.01748 0.8004 0.0
C1173 C 0.54159 0.01328 0.82488 0.0
C1174 C 0.52448 0.00913 0.84194 0.0
C1175 C 0.50392 0.01008 0.83473 0.0
C1176 C 0.48094 0.01894 0.80261 0.0
C1177 C 0.4859 0.04268 0.80142 0.0
C1178 C 0.47006 0.0476 0.78885 0.0
C1179 C 0.44842 0.02883 0.77761 0.0
C1180 C 0.44291 0.00489 0.78017 0.0
C1181 C 0.45915 1.00001 0.79234 0.0
C1182 C 0.51219 0.01981 0.7668 0.0
C1183 C 0.51782 0.0422 0.75855 0.0
C1184 C 0.51258 0.04402 0.73397 0.0
C1185 C 0.50167 0.02346 0.71721 0.0
C1186 C 0.49622 1.00106 0.72557 0.0
C1187 C 0.50145 0.99928 0.75017 0.0
C1188 C 0.55702 0.02445 0.78322 0.0
C1189 C 0.56942 0.04818 0.77662 0.0
C1190 C 0.58775 0.05526 0.76105 0.0
C1191 C 0.59484 0.03901 0.75235 0.0
C1192 C 0.58217 0.0151 0.75896 0.0
C1193 C 0.56329 0.00785 0.77397 0.0
C1194 C 0.56443 0.01547 0.83335 0.0
C1195 C 0.58288 0.03755 0.84405 0.0
C1196 C 0.60426 0.03963 0.85258 0.0
C1197 C 0.60752 0.01961 0.85055 0.0
C1198 C 0.58894 0.99752 0.83973 0.0
C1199 C 0.56757 0.99548 0.83122 0.0
C1200 C 0.52943 0.00601 0.86795 0.0
C1201 C 0.53494 0.02433 0.88646 0.0
C1202 C 0.54216 0.02265 0.91036 0.0
C1203 C 0.54451 0.00283 0.91618 0.0
C1204 C 0.53811 0.98409 0.89769 0.0
C1205 C 0.53045 0.9856 0.87391 0.0
C1206 C 0.48659 0.00677 0.85318 0.0
C1207 C 0.48435 0.02629 0.8621 0.0
C1208 C 0.47082 0.02419 0.88199 0.0
C1209 C 0.45948 0.00261 0.89368 0.0
C1210 C 0.46105 0.98279 0.88403 0.0
C1211 C 0.47441 0.98485 0.86397 0.0
C1212 C 0.49599 0.02543 0.69114 0.0
C1213 C 0.63014 0.02167 0.85976 0.0
H1214 H 0.99715 0.46358 0.66075 0.0
H1215 H 0.02443 0.65067 0.87704 0.0
H1216 H 0.9696 0.45389 0.7981 0.0
H1217 H 0.95865 0.41357 0.78214 0.0
H1218 H 0.03117 0.43071 0.79549 0.0
H1219 H 0.04223 0.47213 0.80982 0.0
H1220 H 0.97506 0.47536 0.7613 0.0
H1221 H 0.97723 0.46581 0.71798 0.0
H1222 H 0.0529 0.51377 0.72577 0.0
H1223 H 0.05048 0.52307 0.76922 0.0
H1224 H 0.97069 0.50932 0.77355 0.0
H1225 H 0.95789 0.53105 0.74809 0.0
H1226 H 0.0244 0.59656 0.768 0.0
H1227 H 0.03808 0.57374 0.79104 0.0
H1228 H 0.97397 0.53753 0.82712 0.0
H1229 H 0.97054 0.57225 0.84137 0.0
H1230 H 0.04574 0.61268 0.86132 0.0
H1231 H 0.04894 0.5779 0.84672 0.0
H1232 H 0.97705 0.50757 0.86969 0.0
H1233 H 0.97482 0.52394 0.91008 0.0
H1234 H 0.05115 0.56331 0.92041 0.0
H1235 H 0.05304 0.54759 0.87928 0.0
H1236 H 0.98015 0.45513 0.85036 0.0
H1237 H 0.98135 0.43161 0.88343 0.0
H1238 H 0.05443 0.48543 0.90316 0.0
H1239 H 0.05343 0.50782 0.86877 0.0
O1240 O 0.99671 0.46761 0.67796 0.0
O1241 O 0.03555 0.49252 0.68292 0.0
O1242 O 0.98678 0.6153 0.8602 0.0
O1243 O 0.02531 0.63674 0.87108 0.0
C1244 C 0.01263 0.49086 0.81269 0.0
C1245 C 0.01172 0.50568 0.79489 0.0
C1246 C 0.01139 0.52685 0.80231 0.0
C1247 C 0.01361 0.53398 0.82764 0.0
C1248 C 0.01602 0.51998 0.84542 0.0
C1249 C 0.01551 0.49836 0.83803 0.0
C1250 C 0.00673 0.46601 0.8047 0.0
C1251 C 0.98318 0.44902 0.79734 0.0
C1252 C 0.97691 0.42578 0.78856 0.0
C1253 C 0.99395 0.41861 0.78766 0.0
C1254 C 0.01761 0.43562 0.79559 0.0
C1255 C 0.02397 0.45921 0.80399 0.0
C1256 C 0.01264 0.49982 0.76846 0.0
C1257 C 0.99211 0.48371 0.7537 0.0
C1258 C 0.99339 0.47832 0.7289 0.0
C1259 C 0.01525 0.489 0.7184 0.0
C1260 C 0.03578 0.50521 0.73327 0.0
C1261 C 0.03445 0.51056 0.75807 0.0
C1262 C 0.00547 0.53976 0.78395 0.0
C1263 C 0.98297 0.52809 0.77144 0.0
C1264 C 0.97543 0.54081 0.75737 0.0
C1265 C 0.98978 0.56585 0.75634 0.0
C1266 C 0.0128 0.57733 0.76805 0.0
C1267 C 0.02065 0.56433 0.78145 0.0
C1268 C 0.0117 0.55528 0.83584 0.0
C1269 C 0.98968 0.55396 0.83444 0.0
C1270 C 0.98778 0.57379 0.84265 0.0
C1271 C 0.00788 0.59525 0.85251 0.0
C1272 C 0.02992 0.59645 0.85384 0.0
C1273 C 0.0318 0.57663 0.84554 0.0
C1274 C 0.01518 0.52628 0.8717 0.0
C1275 C 0.99325 0.51931 0.88095 0.0
C1276 C 0.99206 0.52869 0.90409 0.0
C1277 C 0.01283 0.5451 0.91856 0.0
C1278 C 0.03481 0.55107 0.90963 0.0
C1279 C 0.03596 0.54185 0.88631 0.0
C1280 C 0.01672 0.48316 0.85704 0.0
C1281 C 0.99657 0.46152 0.86145 0.0
C1282 C 0.99723 0.44829 0.88067 0.0
C1283 C 0.01792 0.4567 0.89635 0.0
C1284 C 0.03825 0.47816 0.89143 0.0
C1285 C 0.03767 0.49115 0.87189 0.0
C1286 C 0.01655 0.48322 0.69205 0.0
C1287 C 0.00592 0.6163 0.86146 0.0
H1288 H 0.49403 0.48064 0.65878 0.0
H1289 H 0.66191 0.65454 0.86283 0.0
H1290 H 0.46453 0.48913 0.78224 0.0
H1291 H 0.43412 0.44978 0.76292 0.0
H1292 H 0.46406 0.41551 0.80579 0.0
H1293 H 0.49481 0.45484 0.82417 0.0
H1294 H 0.50788 0.52975 0.75636 0.0
H1295 H 0.50084 0.51438 0.71308 0.0
H1296 H 0.51357 0.45741 0.73288 0.0
H1297 H 0.52084 0.47315 0.77603 0.0
H1298 H 0.55089 0.57497 0.78101 0.0
H1299 H 0.58211 0.59561 0.75316 0.0
H1300 H 0.60172 0.54102 0.75941 0.0
H1301 H 0.56989 0.52016 0.78613 0.0
H1302 H 0.54501 0.5833 0.84444 0.0
H1303 H 0.57929 0.62265 0.85777 0.0
H1304 H 0.62546 0.59425 0.84331 0.0
H1305 H 0.59098 0.55487 0.83038 0.0
H1306 H 0.51034 0.54565 0.88042 0.0
H1307 H 0.52412 0.55768 0.92417 0.0
H1308 H 0.57892 0.54009 0.91364 0.0
H1309 H 0.56478 0.52772 0.87049 0.0
H1310 H 0.46338 0.49881 0.84429 0.0
H1311 H 0.43683 0.47573 0.87533 0.0
H1312 H 0.48987 0.46069 0.90486 0.0
H1313 H 0.51569 0.48287 0.87331 0.0
O1314 O 0.49692 0.48644 0.67599 0.0
O1315 O 0.50348 0.45741 0.68715 0.0
O1316 O 0.62344 0.65217 0.86706 0.0
O1317 O 0.64805 0.63909 0.85786 0.0
C1318 C 0.5028 0.49871 0.81285 0.0
C1319 C 0.51903 0.51192 0.79552 0.0
C1320 C 0.53987 0.53378 0.80319 0.0
C1321 C 0.54447 0.54257 0.82819 0.0
C1322 C 0.52898 0.52882 0.84575 0.0
C1323 C 0.50787 0.50706 0.83809 0.0
C1324 C 0.48189 0.47487 0.80462 0.0
C1325 C 0.46423 0.47305 0.78772 0.0
C1326 C 0.44687 0.45057 0.77673 0.0
C1327 C 0.44686 0.42952 0.78254 0.0
C1328 C 0.46385 0.43139 0.8005 0.0
C1329 C 0.48123 0.45383 0.81134 0.0
C1330 C 0.51472 0.50247 0.7693 0.0
C1331 C 0.50917 0.51398 0.75127 0.0
C1332 C 0.50513 0.50514 0.72659 0.0
C1333 C 0.50659 0.48463 0.71952 0.0
C1334 C 0.51226 0.47321 0.73769 0.0
C1335 C 0.51636 0.48211 0.76235 0.0
C1336 C 0.55812 0.54607 0.78552 0.0
C1337 C 0.56183 0.56742 0.77606 0.0
C1338 C 0.57981 0.57925 0.76029 0.0
C1339 C 0.5946 0.57007 0.7539 0.0
C1340 C 0.59051 0.54846 0.76334 0.0
C1341 C 0.5724 0.53655 0.77882 0.0
C1342 C 0.56553 0.56634 0.83616 0.0
C1343 C 0.56255 0.58562 0.84416 0.0
C1344 C 0.58216 0.60807 0.85177 0.0
C1345 C 0.60514 0.61163 0.85148 0.0
C1346 C 0.60802 0.59217 0.84361 0.0
C1347 C 0.58837 0.56968 0.83611 0.0
C1348 C 0.53661 0.53588 0.87232 0.0
C1349 C 0.52522 0.54431 0.8877 0.0
C1350 C 0.53318 0.55127 0.91259 0.0
C1351 C 0.55255 0.54973 0.9224 0.0
C1352 C 0.56373 0.54113 0.90682 0.0
C1353 C 0.55582 0.53426 0.8821 0.0
C1354 C 0.49154 0.49266 0.85661 0.0
C1355 C 0.46914 0.49037 0.85741 0.0
C1356 C 0.45408 0.47734 0.87528 0.0
C1357 C 0.46115 0.4663 0.89266 0.0
C1358 C 0.48362 0.46858 0.8916 0.0
C1359 C 0.49855 0.48148 0.87371 0.0
C1360 C 0.50225 0.47527 0.69329 0.0
C1361 C 0.62602 0.63553 0.85931 0.0
H1362 H 0.66559 0.86257 0.74986 0.0
H1363 H 0.67234 0.69127 0.55444 0.0
H1364 H 0.63224 0.85519 0.62207 0.0
H1365 H 0.6431 0.89561 0.63955 0.0
H1366 H 0.7078 0.92535 0.60272 0.0
H1367 H 0.69727 0.88505 0.58619 0.0
H1368 H 0.63263 0.81236 0.65157 0.0
H1369 H 0.63999 0.82826 0.69469 0.0
H1370 H 0.70994 0.88406 0.67996 0.0
H1371 H 0.70244 0.86779 0.63699 0.0
H1372 H 0.63247 0.76552 0.62967 0.0
H1373 H 0.64483 0.74318 0.65556 0.0
H1374 H 0.71764 0.79978 0.65409 0.0
H1375 H 0.70489 0.82221 0.62946 0.0
H1376 H 0.61858 0.75554 0.56821 0.0
H1377 H 0.61642 0.71717 0.5568 0.0
H1378 H 0.69186 0.75075 0.5735 0.0
H1379 H 0.69379 0.78903 0.58454 0.0
H1380 H 0.61945 0.7904 0.52916 0.0
H1381 H 0.62053 0.77443 0.4876 0.0
H1382 H 0.69472 0.799 0.50295 0.0
H1383 H 0.69352 0.81523 0.54378 0.0
H1384 H 0.62177 0.84304 0.55778 0.0
H1385 H 0.62082 0.8667 0.52431 0.0
H1386 H 0.68998 0.88066 0.50644 0.0
H1387 H 0.69102 0.85779 0.54024 0.0
O1388 O 0.66309 0.85653 0.73276 0.0
O1389 O 0.69884 0.88492 0.7242 0.0
O1390 O 0.63396 0.68981 0.55039 0.0
O1391 O 0.67267 0.70619 0.55885 0.0
C1392 C 0.65993 0.84266 0.59621 0.0
C1393 C 0.66224 0.82938 0.61499 0.0
C1394 C 0.66123 0.80731 0.60886 0.0
C1395 C 0.65743 0.79821 0.58403 0.0
C1396 C 0.65584 0.81172 0.56523 0.0
C1397 C 0.65691 0.83388 0.57124 0.0
C1398 C 0.66393 0.86717 0.6028 0.0
C1399 C 0.64852 0.87053 0.61742 0.0
C1400 C 0.65473 0.8936 0.62736 0.0
C1401 C 0.67647 0.91361 0.62281 0.0
C1402 C 0.69115 0.91025 0.60696 0.0
C1403 C 0.68499 0.88727 0.59717 0.0
C1404 C 0.6669 0.83906 0.64115 0.0
C1405 C 0.64953 0.82799 0.65773 0.0
C1406 C 0.65378 0.83713 0.68233 0.0
C1407 C 0.67553 0.85748 0.69076 0.0
C1408 C 0.69297 0.86841 0.67407 0.0
C1409 C 0.68872 0.85921 0.6495 0.0
C1410 C 0.66778 0.79549 0.6278 0.0
C1411 C 0.65099 0.77328 0.63559 0.0
C1412 C 0.65817 0.76045 0.65014 0.0
C1413 C 0.68232 0.76947 0.65683 0.0
C1414 C 0.69889 0.79232 0.64981 0.0
C1415 C 0.69166 0.80521 0.6356 0.0
C1416 C 0.65628 0.77494 0.57745 0.0
C1417 C 0.63459 0.75453 0.56943 0.0
C1418 C 0.63342 0.73266 0.56292 0.0
C1419 C 0.65397 0.73087 0.56432 0.0
C1420 C 0.6757 0.75146 0.57229 0.0
C1421 C 0.67684 0.77332 0.57872 0.0
C1422 C 0.65642 0.80397 0.53935 0.0
C1423 C 0.63594 0.7926 0.52326 0.0
C1424 C 0.63657 0.78335 0.49969 0.0
C1425 C 0.65773 0.78547 0.49195 0.0
C1426 C 0.67824 0.7974 0.50809 0.0
C1427 C 0.67758 0.80657 0.53149 0.0
C1428 C 0.65637 0.84853 0.5513 0.0
C1429 C 0.63672 0.85134 0.54666 0.0
C1430 C 0.63616 0.86473 0.52746 0.0
C1431 C 0.65534 0.87562 0.51267 0.0
C1432 C 0.67505 0.87286 0.51763 0.0
C1433 C 0.67558 0.85955 0.53678 0.0
C1434 C 0.67994 0.86721 0.71688 0.0
C1435 C 0.65283 0.70769 0.55742 0.0
H1436 H 0.16532 0.87164 0.74536 0.0
H1437 H 0.02451 0.66973 0.54437 0.0
H1438 H 0.17356 0.87445 0.60294 0.0
H1439 H 0.20392 0.91348 0.6219 0.0
H1440 H 0.24838 0.88351 0.63951 0.0
H1441 H 0.21809 0.8446 0.61892 0.0
H1442 H 0.13846 0.84315 0.64034 0.0
H1443 H 0.14531 0.85786 0.68382 0.0
H1444 H 0.19189 0.82921 0.69526 0.0
H1445 H 0.18475 0.8145 0.65174 0.0
H1446 H 0.09618 0.80094 0.60991 0.0
H1447 H 0.06497 0.78248 0.63801 0.0
H1448 H 0.1018 0.75027 0.67234 0.0
H1449 H 0.13299 0.76873 0.64375 0.0
H1450 H 0.09454 0.7891 0.55672 0.0
H1451 H 0.05731 0.75358 0.54084 0.0
H1452 H 0.08052 0.70791 0.57242 0.0
H1453 H 0.11785 0.74365 0.58794 0.0
H1454 H 0.13393 0.82523 0.5339 0.0
H1455 H 0.12015 0.81264 0.49077 0.0
H1456 H 0.13684 0.7557 0.49448 0.0
H1457 H 0.14941 0.76786 0.53825 0.0
H1458 H 0.17839 0.86794 0.55881 0.0
H1459 H 0.20364 0.88994 0.52692 0.0
H1460 H 0.22267 0.83494 0.51609 0.0
H1461 H 0.19844 0.81387 0.5494 0.0
O1462 O 0.16278 0.86559 0.72826 0.0
O1463 O 0.18657 0.85053 0.73317 0.0
O1464 O 0.02863 0.70834 0.53342 0.0
O1465 O 0.0391 0.68407 0.55045 0.0
C1466 C 0.17389 0.83282 0.60006 0.0
C1467 C 0.15708 0.8191 0.61661 0.0
C1468 C 0.13584 0.79812 0.60785 0.0
C1469 C 0.13165 0.79049 0.58253 0.0
C1470 C 0.14858 0.80397 0.56597 0.0
C1471 C 0.1698 0.82511 0.57471 0.0
C1472 C 0.19383 0.85687 0.60914 0.0
C1473 C 0.19012 0.87649 0.61032 0.0
C1474 C 0.20737 0.89869 0.62162 0.0
C1475 C 0.22853 0.90164 0.6327 0.0
C1476 C 0.23241 0.88199 0.63104 0.0
C1477 C 0.21517 0.85975 0.61929 0.0
C1478 C 0.16106 0.82773 0.64302 0.0
C1479 C 0.15005 0.84001 0.65233 0.0
C1480 C 0.15404 0.84842 0.67714 0.0
C1481 C 0.16915 0.84471 0.69303 0.0
C1482 C 0.18015 0.83236 0.68354 0.0
C1483 C 0.17611 0.82394 0.65872 0.0
C1484 C 0.11674 0.78603 0.62468 0.0
C1485 C 0.09744 0.78979 0.62341 0.0
C1486 C 0.07977 0.77943 0.63966 0.0
C1487 C 0.08099 0.76506 0.65757 0.0
C1488 C 0.1003 0.76116 0.65869 0.0
C1489 C 0.11811 0.77168 0.64244 0.0
C1490 C 0.10896 0.7689 0.57321 0.0
C1491 C 0.09161 0.7714 0.56002 0.0
C1492 C 0.07034 0.75108 0.55105 0.0
C1493 C 0.06597 0.72788 0.55529 0.0
C1494 C 0.08334 0.7255 0.56878 0.0
C1495 C 0.10465 0.74586 0.57767 0.0
C1496 C 0.14268 0.79747 0.53912 0.0
C1497 C 0.13483 0.8102 0.52527 0.0
C1498 C 0.1271 0.80301 0.50051 0.0
C1499 C 0.12738 0.78311 0.4889 0.0
C1500 C 0.13597 0.77084 0.50279 0.0
C1501 C 0.14338 0.77786 0.52774 0.0
C1502 C 0.18696 0.83958 0.55689 0.0
C1503 C 0.18864 0.86107 0.5502 0.0
C1504 C 0.20276 0.87337 0.53153 0.0
C1505 C 0.21508 0.86413 0.51863 0.0
C1506 C 0.21372 0.84279 0.52575 0.0
C1507 C 0.19981 0.83066 0.54473 0.0
C1508 C 0.17342 0.85374 0.71936 0.0
C1509 C 0.04343 0.70625 0.5457 0.0
H1510 H 0.18522 0.31266 0.75394 0.0
H1511 H 0.03028 0.32386 0.5251 0.0
H1512 H 0.21706 0.35889 0.63229 0.0
H1513 H 0.24418 0.3501 0.65564 0.0
H1514 H 0.20861 0.27804 0.61972 0.0
H1515 H 0.18114 0.28678 0.59726 0.0
H1516 H 0.18029 0.35353 0.66212 0.0
H1517 H 0.18552 0.34336 0.70363 0.0
H1518 H 0.15029 0.26805 0.67743 0.0
H1519 H 0.14515 0.27853 0.63603 0.0
H1520 H 0.13758 0.35104 0.65226 0.0
H1521 H 0.10621 0.33884 0.68072 0.0
H1522 H 0.06676 0.26944 0.6394 0.0
H1523 H 0.09832 0.28164 0.61148 0.0
H1524 H 0.12538 0.36252 0.60307 0.0
H1525 H 0.09181 0.36612 0.58761 0.0
H1526 H 0.06675 0.30098 0.53998 0.0
H1527 H 0.10008 0.29726 0.55603 0.0
H1528 H 0.15353 0.37069 0.55348 0.0
H1529 H 0.13972 0.37302 0.51201 0.0
H1530 H 0.13135 0.30348 0.49007 0.0
H1531 H 0.14314 0.30053 0.53198 0.0
H1532 H 0.21007 0.37279 0.56568 0.0
H1533 H 0.23538 0.37771 0.53216 0.0
H1534 H 0.20033 0.30021 0.51835 0.0
H1535 H 0.17653 0.29578 0.55281 0.0
O1536 O 0.1828 0.31627 0.73744 0.0
O1537 O 0.16459 0.27779 0.72305 0.0
O1538 O 0.05331 0.35215 0.56111 0.0
O1539 O 0.04316 0.3223 0.53224 0.0
C1540 C 0.17712 0.32649 0.60431 0.0
C1541 C 0.15986 0.32302 0.62093 0.0
C1542 C 0.13956 0.32392 0.61313 0.0
C1543 C 0.13661 0.32868 0.5887 0.0
C1544 C 0.15379 0.33214 0.57192 0.0
C1545 C 0.17406 0.33094 0.57972 0.0
C1546 C 0.19729 0.32357 0.61285 0.0
C1547 C 0.21565 0.34147 0.62893 0.0
C1548 C 0.23106 0.33635 0.64235 0.0
C1549 C 0.22835 0.31322 0.63989 0.0
C1550 C 0.21089 0.29588 0.62249 0.0
C1551 C 0.19545 0.30098 0.60922 0.0
C1552 C 0.16232 0.31675 0.6462 0.0
C1553 C 0.17362 0.33485 0.66547 0.0
C1554 C 0.17662 0.32899 0.68912 0.0
C1555 C 0.16834 0.30489 0.69385 0.0
C1556 C 0.15688 0.28678 0.67442 0.0
C1557 C 0.15388 0.29269 0.6508 0.0
C1558 C 0.12021 0.3172 0.62984 0.0
C1559 C 0.12213 0.33322 0.64942 0.0
C1560 C 0.10417 0.32625 0.66559 0.0
C1561 C 0.08404 0.30308 0.66248 0.0
C1562 C 0.08218 0.28724 0.64264 0.0
C1563 C 0.10008 0.29424 0.62651 0.0
C1564 C 0.11526 0.32974 0.58054 0.0
C1565 C 0.11246 0.34888 0.58953 0.0
C1566 C 0.09332 0.35095 0.5806 0.0
C1567 C 0.07672 0.33395 0.56239 0.0
C1568 C 0.07931 0.31448 0.55384 0.0
C1569 C 0.09833 0.31231 0.56298 0.0
C1570 C 0.14959 0.33554 0.54578 0.0
C1571 C 0.14899 0.35613 0.53958 0.0
C1572 C 0.14118 0.35745 0.51577 0.0
C1573 C 0.13414 0.33833 0.49756 0.0
C1574 C 0.13606 0.31834 0.50362 0.0
C1575 C 0.14335 0.31682 0.52752 0.0
C1576 C 0.1916 0.33394 0.5618 0.0
C1577 C 0.2084 0.35695 0.55575 0.0
C1578 C 0.2226 0.35967 0.53629 0.0
C1579 C 0.21995 0.33939 0.52214 0.0
C1580 C 0.20345 0.31635 0.5289 0.0
C1581 C 0.18966 0.3137 0.54865 0.0
C1582 C 0.17174 0.29874 0.71894 0.0
C1583 C 0.05701 0.3367 0.55201 0.0
C1584 C 0.98 0.40518 0.10251 0.0
C1585 C 0.99703 0.41885 0.08641 0.0
H1586 H 0.96489 0.40504 0.13651 0.0
C1587 C 0.01056 0.44392 0.09148 0.0
H1588 H 0.96937 0.3858 0.09908 0.0
C1589 C 0.00757 0.45507 0.11252 0.0
C1590 C 0.99134 0.44137 0.12936 0.0
H1591 H 0.02358 0.45498 0.07918 0.0
H1592 H 0.01825 0.47446 0.1157 0.0
C1593 C 0.97733 0.41629 0.12388 0.0
C1594 C 0.58711 0.54807 0.13246 0.0
C1595 C 0.59216 0.57143 0.12813 0.0
H1596 H 0.56917 0.51801 0.15395 0.0
C1597 C 0.58462 0.58339 0.1444 0.0
H1598 H 0.59258 0.53836 0.12013 0.0
C1599 C 0.57174 0.57202 0.16417 0.0
C1600 C 0.56552 0.54813 0.16789 0.0
H1601 H 0.58852 0.60154 0.14172 0.0
H1602 H 0.56644 0.58196 0.17636 0.0
C1603 C 0.57375 0.53646 0.15197 0.0
C1604 C 0.41998 0.97694 0.10594 0.0
C1605 C 0.43001 0.99818 0.09381 0.0
H1606 H 0.42114 0.95961 0.13774 0.0
C1607 C 0.45057 0.01848 0.10469 0.0
H1608 H 0.40396 0.96107 0.09816 0.0
C1609 C 0.46101 0.01746 0.12717 0.0
C1610 C 0.45081 0.99626 0.1396 0.0
H1611 H 0.45878 0.03506 0.09566 0.0
H1612 H 0.47718 0.03329 0.13465 0.0
C1613 C 0.43004 0.97608 0.12863 0.0
C1614 C 0.41608 0.97908 0.94379 0.0
C1615 C 0.42577 0.99907 0.96128 0.0
H1616 H 0.4187 0.96457 0.90857 0.0
C1617 C 0.44635 0.02015 0.95615 0.0
H1618 H 0.40021 0.96258 0.94708 0.0
C1619 C 0.45704 0.02123 0.93428 0.0
C1620 C 0.44742 0.00133 0.91669 0.0
H1621 H 0.45446 0.03589 0.96919 0.0
H1622 H 0.4732 0.03762 0.93143 0.0
C1623 C 0.42676 0.98021 0.92174 0.0
C1624 C 0.99718 0.42112 0.95251 0.0
C1625 C 0.01733 0.42055 0.96135 0.0
H1626 H 0.98178 0.43339 0.92597 0.0
C1627 C 0.03778 0.43171 0.94846 0.0
H1628 H 0.98117 0.41296 0.96208 0.0
C1629 C 0.03798 0.44312 0.92715 0.0
C1630 C 0.01781 0.44385 0.91845 0.0
H1631 H 0.05357 0.43151 0.95473 0.0
H1632 H 0.05391 0.45122 0.91746 0.0
C1633 C 0.99747 0.43273 0.93154 0.0
C1634 C 0.57498 0.58727 0.98375 0.0
C1635 C 0.58326 0.57436 0.99688 0.0
H1636 H 0.55887 0.58969 0.94987 0.0
C1637 C 0.57979 0.55248 0.98593 0.0
H1638 H 0.57733 0.60417 0.99166 0.0
C1639 C 0.56908 0.54413 0.96213 0.0
C1640 C 0.56163 0.55748 0.9486 0.0
H1641 H 0.58571 0.54193 0.99558 0.0
H1642 H 0.5669 0.52732 0.95417 0.0
C1643 C 0.56427 0.57891 0.95985 0.0
C1644 C 0.99061 0.55591 0.97835 0.0
C1645 C 0.00669 0.5804 0.98485 0.0
H1646 H 0.98045 0.52533 0.95302 0.0
C1647 C 0.02544 0.59295 0.97005 0.0
H1648 H 0.97614 0.54565 0.98956 0.0
C1649 C 0.02769 0.5814 0.94881 0.0
C1650 C 0.01142 0.55694 0.94207 0.0
H1651 H 0.03808 0.61186 0.97454 0.0
H1652 H 0.04181 0.59188 0.93732 0.0
C1653 C 0.99305 0.54427 0.95733 0.0
C1654 C 0.41823 0.44827 0.94321 0.0
C1655 C 0.41824 0.42775 0.95086 0.0
H1656 H 0.43202 0.4768 0.91913 0.0
C1657 C 0.43129 0.4193 0.93824 0.0
H1658 H 0.40841 0.45529 0.95257 0.0
C1659 C 0.44457 0.43141 0.919 0.0
C1660 C 0.44539 0.45248 0.91192 0.0
H1661 H 0.43149 0.40337 0.94339 0.0
H1662 H 0.45435 0.42428 0.90978 0.0
C1663 C 0.43172 0.46055 0.92398 0.0
C1664 C 0.58337 0.02354 0.97615 0.0
C1665 C 0.57638 0.00177 0.9868 0.0
H1666 H 0.57949 0.0409 0.94555 0.0
C1667 C 0.5583 0.98028 0.97441 0.0
H1668 H 0.59741 0.04042 0.98505 0.0
C1669 C 0.54754 0.9806 0.95183 0.0
C1670 C 0.55484 0.00237 0.94092 0.0
H1671 H 0.55241 0.96322 0.98219 0.0
H1672 H 0.53347 0.96374 0.94296 0.0
C1673 C 0.5729 0.02382 0.95348 0.0
C1674 C 0.57685 0.98256 0.13245 0.0
C1675 C 0.58591 0.00355 0.11991 0.0
H1676 H 0.5594 0.96449 0.16343 0.0
C1677 C 0.58427 0.02313 0.12999 0.0
H1678 H 0.57816 0.96728 0.12534 0.0
C1679 C 0.57284 0.02131 0.15161 0.0
C1680 C 0.56318 1.00003 0.1639 0.0
H1681 H 0.591 0.03951 0.12068 0.0
H1682 H 0.57091 0.03635 0.15816 0.0
C1683 C 0.5659 0.98092 0.15426 0.0
C1684 C 0.01234 0.57815 0.11865 0.0
C1685 C 0.99331 0.58132 0.1115 0.0
H1686 H 0.02647 0.56337 0.14365 0.0
C1687 C 0.97369 0.57229 0.12572 0.0
H1688 H 0.02762 0.58459 0.10796 0.0
C1689 C 0.97324 0.56047 0.14674 0.0
C1690 C 0.99227 0.55716 0.1538 0.0
H1691 H 0.95877 0.5745 0.12072 0.0
H1692 H 0.95804 0.5541 0.15753 0.0
C1693 C 0.01175 0.56608 0.13933 0.0
C1694 C 0.44021 0.41785 0.09113 0.0
C1695 C 0.42242 0.42214 0.08197 0.0
H1696 H 0.46521 0.42398 0.12108 0.0
C1697 C 0.41572 0.43571 0.09702 0.0
H1698 H 0.4458 0.40751 0.07991 0.0
C1699 C 0.42637 0.44463 0.12074 0.0
C1700 C 0.44441 0.44068 0.12996 0.0
H1701 H 0.40183 0.43905 0.09065 0.0
H1702 H 0.42006 0.45427 0.13198 0.0
C1703 C 0.45122 0.42718 0.1148 0.0
C1704 C 0.64266 0.74026 0.43704 0.0
C1705 C 0.66299 0.75203 0.42403 0.0
H1706 H 0.62511 0.74151 0.46887 0.0
C1707 C 0.68059 0.77553 0.43253 0.0
H1708 H 0.62877 0.72216 0.43093 0.0
C1709 C 0.67835 0.7867 0.45397 0.0
C1710 C 0.65855 0.77459 0.46762 0.0
H1711 H 0.69632 0.78527 0.42277 0.0
H1712 H 0.69235 0.80475 0.46008 0.0
C1713 C 0.64049 0.75141 0.45868 0.0
C1714 C 0.23092 0.89806 0.46114 0.0
C1715 C 0.25241 0.89948 0.45608 0.0
H1716 H 0.20215 0.88535 0.484 0.0
C1717 C 0.26148 0.88868 0.47149 0.0
H1718 H 0.22319 0.90585 0.44949 0.0
C1719 C 0.24948 0.87718 0.49183 0.0
C1720 C 0.22809 0.87608 0.49702 0.0
H1721 H 0.27802 0.88949 0.46811 0.0
H1722 H 0.25718 0.86952 0.5037 0.0
C1723 C 0.21888 0.88642 0.48116 0.0
C1724 C 0.09447 0.31682 0.4381 0.0
C1725 C 0.10173 0.33832 0.42685 0.0
H1726 H 0.09823 0.30004 0.46926 0.0
C1727 C 0.12008 0.35993 0.43877 0.0
H1728 H 0.08019 0.29988 0.42958 0.0
C1729 C 0.13093 0.35998 0.46145 0.0
C1730 C 0.12346 0.33845 0.47289 0.0
H1731 H 0.12615 0.3768 0.43052 0.0
H1732 H 0.14525 0.37689 0.46992 0.0
C1733 C 0.10501 0.31691 0.46087 0.0
C1734 C 0.08326 0.31329 0.27677 0.0
C1735 C 0.0933 0.33374 0.29368 0.0
H1736 H 0.08493 0.29785 0.24169 0.0
C1737 C 0.11347 0.35471 0.2876 0.0
H1738 H 0.06766 0.29687 0.28078 0.0
C1739 C 0.12349 0.35522 0.26538 0.0
C1740 C 0.11354 0.33484 0.24839 0.0
H1741 H 0.12181 0.3708 0.30017 0.0
H1742 H 0.13941 0.37154 0.26182 0.0
C1743 C 0.09323 0.31385 0.25437 0.0
C1744 C 0.70249 0.76321 0.28556 0.0
C1745 C 0.68192 0.75291 0.29835 0.0
H1746 H 0.7195 0.78249 0.25475 0.0
C1747 C 0.66254 0.75485 0.28959 0.0
H1748 H 0.71772 0.76198 0.29181 0.0
C1749 C 0.66368 0.76693 0.26876 0.0
C1750 C 0.68411 0.77713 0.25573 0.0
H1751 H 0.64649 0.74742 0.29912 0.0
H1752 H 0.64858 0.76864 0.26321 0.0
C1753 C 0.70354 0.77508 0.26439 0.0
C1754 C 0.25631 0.89814 0.3114 0.0
C1755 C 0.24949 0.91145 0.32669 0.0
H1756 H 0.25195 0.87984 0.27627 0.0
C1757 C 0.23164 0.91575 0.31771 0.0
H1758 H 0.27024 0.89481 0.31761 0.0
C1759 C 0.22063 0.90659 0.29401 0.0
C1760 C 0.22747 0.89323 0.27867 0.0
H1761 H 0.22597 0.9259 0.32911 0.0
H1762 H 0.20658 0.90975 0.28784 0.0
C1763 C 0.24563 0.88937 0.28767 0.0
C1764 C 0.69683 0.92917 0.30876 0.0
C1765 C 0.68064 0.91506 0.32532 0.0
H1766 H 0.71153 0.92983 0.27439 0.0
C1767 C 0.66863 0.88991 0.32097 0.0
H1768 H 0.70625 0.94863 0.31166 0.0
C1769 C 0.67217 0.87904 0.30007 0.0
C1770 C 0.68733 0.89309 0.28262 0.0
H1771 H 0.65631 0.87858 0.33368 0.0
H1772 H 0.66264 0.85959 0.29743 0.0
C1773 C 0.69996 0.91832 0.28748 0.0
C1774 C 0.08936 0.75248 0.26712 0.0
C1775 C 0.08335 0.76531 0.28409 0.0
H1776 H 0.10571 0.75262 0.23407 0.0
C1777 C 0.08938 0.789 0.27994 0.0
H1778 H 0.08469 0.73408 0.26964 0.0
C1779 C 0.10211 0.79998 0.25984 0.0
C1780 C 0.10873 0.78736 0.24314 0.0
H1781 H 0.08511 0.7994 0.29278 0.0
H1782 H 0.10744 0.81864 0.25796 0.0
C1783 C 0.10163 0.76324 0.24679 0.0
C1784 C 0.24685 0.35758 0.30984 0.0
C1785 C 0.2407 0.33623 0.321 0.0
H1786 H 0.24225 0.37381 0.27862 0.0
C1787 C 0.22331 0.31422 0.3088 0.0
H1788 H 0.26033 0.37487 0.31854 0.0
C1789 C 0.21246 0.31364 0.28588 0.0
C1790 C 0.21894 0.33503 0.27451 0.0
H1791 H 0.2181 0.29744 0.31692 0.0
H1792 H 0.19899 0.2964 0.27712 0.0
C1793 C 0.23627 0.35699 0.2869 0.0
C1794 C 0.2493 0.32551 0.46992 0.0
C1795 C 0.25474 0.34449 0.45504 0.0
H1796 H 0.2355 0.30968 0.50314 0.0
C1797 C 0.25022 0.36276 0.46308 0.0
H1798 H 0.25291 0.31134 0.46434 0.0
C1799 C 0.23938 0.36141 0.48503 0.0
C1800 C 0.23333 0.34204 0.49976 0.0
H1801 H 0.25411 0.37754 0.45188 0.0
H1802 H 0.23501 0.37516 0.48989 0.0
C1803 C 0.23908 0.32448 0.49213 0.0
C1804 C 0.67597 0.92265 0.46624 0.0
C1805 C 0.65572 0.91401 0.44994 0.0
H1806 H 0.69154 0.91777 0.49898 0.0
C1807 C 0.63474 0.89357 0.45543 0.0
H1808 H 0.69237 0.93851 0.46278 0.0
C1809 C 0.63435 0.88145 0.47618 0.0
C1810 C 0.6549 0.88959 0.49191 0.0
H1811 H 0.61884 0.88643 0.44325 0.0
H1812 H 0.61818 0.8652 0.47936 0.0
C1813 C 0.67554 0.91066 0.48697 0.0
C1814 C 0.0943 0.74205 0.43107 0.0
C1815 C 0.09533 0.75861 0.41469 0.0
H1816 H 0.10289 0.7366 0.46747 0.0
C1817 C 0.10841 0.78329 0.4222 0.0
H1818 H 0.08422 0.72289 0.42581 0.0
C1819 C 0.11969 0.79125 0.44583 0.0
C1820 C 0.11769 0.77469 0.4628 0.0
H1821 H 0.10976 0.79649 0.40983 0.0
H1822 H 0.12972 0.81043 0.45086 0.0
C1823 C 0.10516 0.74997 0.45494 0.0
C1824 C 0.34584 0.10832 0.76125 0.0
C1825 C 0.3289 0.08466 0.75247 0.0
H1826 H 0.35665 0.13699 0.78925 0.0
C1827 C 0.3085 0.07212 0.7652 0.0
H1828 H 0.36158 0.11865 0.75168 0.0
C1829 C 0.30579 0.08263 0.78703 0.0
C1830 C 0.32336 0.10589 0.79639 0.0
H1831 H 0.2951 0.05388 0.75885 0.0
H1832 H 0.29047 0.07214 0.79711 0.0
C1833 C 0.34305 0.11884 0.78285 0.0
C1834 C 0.90296 0.23422 0.80057 0.0
C1835 C 0.92301 0.23305 0.79441 0.0
H1836 H 0.87494 0.22381 0.82425 0.0
C1837 C 0.93059 0.2205 0.80908 0.0
H1838 H 0.89643 0.24353 0.78961 0.0
C1839 C 0.91835 0.20941 0.82945 0.0
C1840 C 0.89818 0.2105 0.83548 0.0
H1841 H 0.946 0.21932 0.80491 0.0
H1842 H 0.92482 0.20014 0.84054 0.0
C1843 C 0.89068 0.22302 0.82067 0.0
C1844 C 0.76918 0.6487 0.76478 0.0
C1845 C 0.76625 0.66834 0.75999 0.0
H1846 H 0.78156 0.63266 0.79039 0.0
C1847 C 0.77462 0.68769 0.77812 0.0
H1848 H 0.76316 0.63359 0.75116 0.0
C1849 C 0.78498 0.68703 0.80079 0.0
C1850 C 0.78733 0.66707 0.80581 0.0
H1851 H 0.77262 0.70309 0.77507 0.0
H1852 H 0.79044 0.70183 0.81465 0.0
C1853 C 0.77965 0.64811 0.78735 0.0
C1854 C 0.77905 0.68961 0.62305 0.0
C1855 C 0.75861 0.66843 0.62823 0.0
H1856 H 0.80602 0.70707 0.59843 0.0
C1857 C 0.74913 0.64836 0.61086 0.0
H1858 H 0.78697 0.7054 0.63601 0.0
C1859 C 0.75995 0.64943 0.58895 0.0
C1860 C 0.78059 0.67057 0.58392 0.0
H1861 H 0.73335 0.63178 0.61418 0.0
H1862 H 0.75208 0.6337 0.57592 0.0
C1863 C 0.78992 0.69063 0.6013 0.0
C1864 C 0.33368 0.07395 0.60813 0.0
C1865 C 0.35196 0.08502 0.62697 0.0
H1866 H 0.31959 0.07681 0.57335 0.0
C1867 C 0.37096 0.10815 0.62434 0.0
H1868 H 0.31892 0.05601 0.6095 0.0
C1869 C 0.37104 0.12046 0.60388 0.0
C1870 C 0.35231 0.10973 0.58535 0.0
H1871 H 0.38523 0.1172 0.63865 0.0
H1872 H 0.38535 0.13875 0.60316 0.0
C1873 C 0.33398 0.08603 0.58748 0.0
C1874 C 0.91269 0.21566 0.65408 0.0
C1875 C 0.91749 0.2384 0.66393 0.0
H1876 H 0.89897 0.18948 0.62315 0.0
C1877 C 0.91112 0.25204 0.6495 0.0
H1878 H 0.91715 0.20456 0.66475 0.0
C1879 C 0.90091 0.24348 0.62548 0.0
C1880 C 0.89674 0.22103 0.61538 0.0
H1881 H 0.9146 0.26965 0.65651 0.0
H1882 H 0.89702 0.25483 0.61455 0.0
C1883 C 0.90237 0.20705 0.63015 0.0
C1884 C 0.32139 0.23659 0.63837 0.0
C1885 C 0.34051 0.24912 0.65611 0.0
H1886 H 0.30876 0.21673 0.60336 0.0
C1887 C 0.36201 0.25017 0.652 0.0
H1888 H 0.30466 0.23569 0.64083 0.0
C1889 C 0.36422 0.23864 0.63066 0.0
C1890 C 0.34508 0.22614 0.6128 0.0
H1891 H 0.37702 0.25959 0.66544 0.0
H1892 H 0.38088 0.23937 0.62831 0.0
C1893 C 0.32371 0.22548 0.61692 0.0
C1894 C 0.75568 0.12061 0.61269 0.0
C1895 C 0.75361 0.09905 0.62001 0.0
H1896 H 0.77077 0.14866 0.58819 0.0
C1897 C 0.76417 0.08831 0.60639 0.0
H1898 H 0.7478 0.12938 0.62279 0.0
C1899 C 0.77705 0.09916 0.58646 0.0
C1900 C 0.77997 0.1212 0.57966 0.0
H1901 H 0.7627 0.07154 0.61129 0.0
H1902 H 0.7849 0.0903 0.57647 0.0
C1903 C 0.76877 0.13161 0.59277 0.0
C1904 C 0.91733 0.69348 0.64446 0.0
C1905 C 0.91049 0.67185 0.65534 0.0
H1906 H 0.91325 0.71046 0.61361 0.0
C1907 C 0.8924 0.65024 0.64318 0.0
H1908 H 0.93136 0.71046 0.65319 0.0
C1909 C 0.88152 0.65028 0.62055 0.0
C1910 C 0.88873 0.6719 0.60937 0.0
H1911 H 0.88661 0.63328 0.65115 0.0
H1912 H 0.86747 0.63332 0.61186 0.0
C1913 C 0.90675 0.69349 0.62174 0.0
C1914 C 0.92215 0.69528 0.79986 0.0
C1915 C 0.92169 0.67498 0.7884 0.0
H1916 H 0.91035 0.70917 0.82913 0.0
C1917 C 0.91032 0.65315 0.79952 0.0
H1918 H 0.93074 0.71235 0.79173 0.0
C1919 C 0.89901 0.6514 0.82108 0.0
C1920 C 0.89843 0.67134 0.83201 0.0
H1921 H 0.90992 0.63722 0.79142 0.0
H1922 H 0.89046 0.63424 0.82903 0.0
C1923 C 0.91054 0.69346 0.82138 0.0
C1924 C 0.34241 0.2553 0.80014 0.0
C1925 C 0.32234 0.2476 0.78383 0.0
H1926 H 0.35744 0.24885 0.83225 0.0
C1927 C 0.30105 0.22721 0.78873 0.0
H1928 H 0.35903 0.27113 0.79714 0.0
C1929 C 0.30021 0.21416 0.80885 0.0
C1930 C 0.32063 0.22133 0.82451 0.0
H1931 H 0.28528 0.2208 0.77651 0.0
H1932 H 0.28383 0.19795 0.81156 0.0
C1933 C 0.34154 0.24242 0.82023 0.0
C1934 C 0.76128 0.07542 0.767 0.0
C1935 C 0.76271 0.092 0.75044 0.0
H1936 H 0.76967 0.07001 0.80347 0.0
C1937 C 0.77618 0.1167 0.75776 0.0
H1938 H 0.7509 0.05625 0.7619 0.0
C1939 C 0.78755 0.12468 0.78137 0.0
C1940 C 0.78526 0.10813 0.79848 0.0
H1941 H 0.77784 0.1299 0.74526 0.0
H1942 H 0.79794 0.14387 0.78623 0.0
C1943 C 0.77222 0.08338 0.79083 0.0
C1944 C 0.06915 0.35875 0.06246 0.0
C1945 C 0.07284 0.38224 0.06478 0.0
H1946 H 0.08037 0.33451 0.07408 0.0
C1947 C 0.09013 0.39906 0.0825 0.0
H1948 H 0.05585 0.34537 0.04902 0.0
C1949 C 0.10354 0.39268 0.0975 0.0
C1950 C 0.10058 0.36943 0.09478 0.0
H1951 H 0.09303 0.41716 0.08514 0.0
H1952 H 0.11621 0.40611 0.11132 0.0
C1953 C 0.08306 0.35248 0.07708 0.0
C1954 C 0.62778 0.6967 0.0799 0.0
C1955 C 0.64062 0.68515 0.08507 0.0
H1956 H 0.62518 0.72828 0.08563 0.0
C1957 C 0.6619 0.6977 0.09996 0.0
H1958 H 0.61146 0.68757 0.06822 0.0
C1959 C 0.6695 0.72093 0.11061 0.0
C1960 C 0.6561 0.73214 0.10627 0.0
H1961 H 0.67209 0.68916 0.10434 0.0
H1962 H 0.68535 0.72966 0.12299 0.0
C1963 C 0.63556 0.71998 0.09012 0.0
C1964 C 0.31072 0.91282 0.0456 0.0
C1965 C 0.32065 0.93758 0.04304 0.0
H1966 H 0.28371 0.88157 0.06063 0.0
C1967 C 0.30919 0.94942 0.05254 0.0
H1968 H 0.31902 0.9031 0.03843 0.0
C1969 C 0.28902 0.93709 0.06547 0.0
C1970 C 0.27986 0.91264 0.06922 0.0
H1971 H 0.31638 0.9685 0.05095 0.0
H1972 H 0.2813 0.94703 0.07355 0.0
C1973 C 0.29058 0.90051 0.05853 0.0
C1974 C 0.35528 0.04594 1.00372 0.0
C1975 C 0.37682 0.05756 0.01822 0.0
H1976 H 0.3298 0.04978 0.98183 0.0
C1977 C 0.38772 0.08244 0.02436 0.0
H1978 H 0.34652 0.02678 0.99857 0.0
C1979 C 0.3778 0.09562 0.01529 0.0
C1980 C 0.35703 0.08432 0.99938 0.0
H1981 H 0.40421 0.09183 0.03573 0.0
H1982 H 0.38681 0.11481 0.02027 0.0
C1983 C 0.34561 0.05918 0.99423 0.0
C1984 C 0.94969 0.28895 1.00003 0.0
C1985 C 0.94555 0.30806 0.99667 0.0
H1986 H 0.93675 0.25112 0.99316 0.0
C1987 C 0.92544 0.30364 0.98207 0.0
H1988 H 0.96513 0.29189 0.01111 0.0
C1989 C 0.90963 0.28063 0.97133 0.0
C1990 C 0.91313 0.26119 0.9753 0.0
H1991 H 0.92198 0.31807 0.97867 0.0
H1992 H 0.89457 0.27814 0.95986 0.0
C1993 C 0.93353 0.26566 0.98957 0.0
C1994 C 0.70501 0.60333 0.04175 0.0
C1995 C 0.69253 0.61579 0.04171 0.0
H1996 H 0.73429 0.60097 0.02918 0.0
C1997 C 0.70119 0.63677 0.02918 0.0
H1998 H 0.69887 0.58719 0.05139 0.0
C1999 C 0.72112 0.64432 0.01576 0.0
C2000 C 0.73313 0.63128 0.01487 0.0
H2001 H 0.69185 0.64667 0.02864 0.0
H2002 H 0.72638 0.65975 0.00519 0.0
C2003 C 0.7252 0.61112 0.02873 0.0
C2004 C 0.94847 0.64856 0.00684 0.0
C2005 C 0.93793 0.62492 0.01405 0.0
H2006 H 0.94406 0.67402 0.9867 0.0
C2007 C 0.91393 0.60897 0.00695 0.0
H2008 H 0.96695 0.66127 0.01192 0.0
C2009 C 0.90092 0.61622 0.99249 0.0
C2010 C 0.91153 0.63962 0.98469 0.0
H2011 H 0.90519 0.59067 0.01223 0.0
H2012 H 0.88243 0.60344 0.98746 0.0
C2013 C 0.93538 0.65586 0.99236 0.0
C2014 C 0.38379 0.30366 0.98822 0.0
C2015 C 0.36903 0.31356 0.99028 0.0
H2016 H 0.38703 0.27354 0.97569 0.0
C2017 C 0.34513 0.29948 0.98153 0.0
H2018 H 0.40223 0.31391 0.99493 0.0
C2019 C 0.33642 0.27626 0.97022 0.0
C2020 C 0.35147 0.26676 0.9674 0.0
H2021 H 0.33332 0.30663 0.98281 0.0
H2022 H 0.31811 0.26604 0.96303 0.0
C2023 C 0.37512 0.28056 0.97698 0.0
C2024 C 0.69804 0.04889 0.0267 0.0
C2025 C 0.68709 0.06158 0.03538 0.0
H2026 H 0.72557 0.04974 0.00609 0.0
C2027 C 0.69752 0.08619 0.03181 0.0
H2028 H 0.69047 0.02991 0.02912 0.0
C2029 C 0.71757 0.09749 0.0186 0.0
C2030 C 0.72773 0.08449 0.00868 0.0
H2031 H 0.68964 0.09654 0.03834 0.0
H2032 H 0.72479 0.11632 0.0156 0.0
C2033 C 0.71819 0.06026 0.01353 0.0
C2034 C 0.61504 0.91536 0.06012 0.0
C2035 C 0.62933 0.94044 0.06004 0.0
H2036 H 0.6123 0.88257 0.0707 0.0
C2037 C 0.65323 0.95141 0.06877 0.0
H2038 H 0.59662 0.90631 0.05332 0.0
C2039 C 0.66219 0.93779 0.07895 0.0
C2040 C 0.64742 0.91294 0.08055 0.0
H2041 H 0.66472 0.97071 0.06894 0.0
H2042 H 0.68028 0.94696 0.08683 0.0
C2043 C 0.62399 0.90177 0.07021 0.0
C2044 C 0.05516 0.70799 0.0822 0.0
C2045 C 0.06341 0.69318 0.07234 0.0
H2046 H 0.06412 0.74133 0.10234 0.0
C2047 C 0.08784 0.7019 0.07372 0.0
H2048 H 0.03642 0.70173 0.08147 0.0
C2049 C 0.10362 0.7245 0.08546 0.0
C2050 C 0.09541 0.73893 0.09636 0.0
H2051 H 0.09481 0.69107 0.06608 0.0
H2052 H 0.12233 0.73058 0.08619 0.0
C2053 C 0.07103 0.73066 0.09413 0.0
C2054 C 0.30706 0.39989 0.04224 0.0
C2055 C 0.31464 0.38365 0.03536 0.0
H2056 H 0.2828 0.40609 0.06198 0.0
C2057 C 0.3016 0.35982 0.04189 0.0
H2058 H 0.31659 0.41835 0.03745 0.0
C2059 C 0.28221 0.35282 0.05614 0.0
C2060 C 0.27554 0.36951 0.06424 0.0
H2061 H 0.30698 0.34686 0.03696 0.0
H2062 H 0.27318 0.33466 0.06181 0.0
C2063 C 0.28779 0.39292 0.05651 0.0
C2064 C 0.73568 0.69108 0.39611 0.0
C2065 C 0.73667 0.71322 0.40077 0.0
H2066 H 0.7495 0.66847 0.40583 0.0
C2067 C 0.75133 0.72887 0.42078 0.0
H2068 H 0.7244 0.67865 0.38083 0.0
C2069 C 0.76487 0.72268 0.4358 0.0
C2070 C 0.76485 0.70099 0.43074 0.0
H2071 H 0.752 0.74582 0.42516 0.0
H2072 H 0.77532 0.73505 0.45144 0.0
C2073 C 0.74989 0.68518 0.4107 0.0
C2074 C 0.28813 0.01914 0.44274 0.0
C2075 C 0.30087 0.01487 0.42516 0.0
H2076 H 0.28642 0.04452 0.46784 0.0
C2077 C 0.32253 0.03402 0.41926 0.0
H2078 H 0.27162 0.00454 0.44803 0.0
C2079 C 0.33073 0.05738 0.42999 0.0
C2080 C 0.31768 0.06182 0.44729 0.0
H2081 H 0.3327 0.0311 0.40577 0.0
H2082 H 0.34691 0.07196 0.42415 0.0
C2083 C 0.2966 0.04218 0.45397 0.0
C2084 C 0.98664 0.25013 0.38876 0.0
C2085 C 0.99169 0.27168 0.37868 0.0
H2086 H 0.96412 0.22186 0.4102 0.0
C2087 C 0.97556 0.27989 0.38079 0.0
H2088 H 0.99884 0.24344 0.38777 0.0
C2089 C 0.95509 0.26708 0.39322 0.0
C2090 C 0.9505 0.246 0.4043 0.0
H2091 H 0.97894 0.29643 0.37316 0.0
H2092 H 0.94304 0.27392 0.39434 0.0
C2093 C 0.96651 0.23762 0.4016 0.0
C2094 C 0.02374 0.38287 0.33774 0.0
C2095 C 0.04631 0.39453 0.35027 0.0
H2096 H 0.99762 0.38674 0.31696 0.0
C2097 C 0.05864 0.41974 0.35413 0.0
H2098 H 0.01384 0.36344 0.33443 0.0
C2099 C 0.04918 0.43309 0.3445 0.0
C2100 C 0.02734 0.42157 0.33044 0.0
H2101 H 0.07595 0.42924 0.36397 0.0
H2102 H 0.05937 0.45252 0.34745 0.0
C2103 C 0.0144 0.39625 0.32781 0.0
C2104 C 0.58457 0.63175 0.33386 0.0
C2105 C 0.60894 0.6402 0.33612 0.0
H2106 H 0.55022 0.60322 0.32078 0.0
C2107 C 0.61722 0.62509 0.32725 0.0
H2108 H 0.57758 0.64282 0.34076 0.0
C2109 C 0.60145 0.60235 0.31537 0.0
C2110 C 0.57715 0.59434 0.31225 0.0
H2111 H 0.63593 0.63115 0.32868 0.0
H2112 H 0.60839 0.59143 0.30791 0.0
C2113 C 0.56889 0.60909 0.3222 0.0
C2114 C 0.35963 0.92711 0.35872 0.0
C2115 C 0.35669 0.94414 0.37284 0.0
H2116 H 0.38029 0.92057 0.33376 0.0
C2117 C 0.3746 0.96842 0.37417 0.0
H2118 H 0.34605 0.90828 0.35699 0.0
C2119 C 0.39481 0.97553 0.3612 0.0
C2120 C 0.39735 0.95858 0.34622 0.0
H2121 H 0.37285 0.98199 0.38491 0.0
H2122 H 0.40829 0.99437 0.36278 0.0
C2123 C 0.3795 0.93422 0.34542 0.0
C2124 C 0.60379 0.97329 0.35157 0.0
C2125 C 0.60477 0.95265 0.34422 0.0
H2126 H 0.58894 0.99547 0.34419 0.0
C2127 C 0.59293 0.93963 0.32185 0.0
H2128 H 0.61284 0.98363 0.36878 0.0
C2129 C 0.58019 0.94698 0.30709 0.0
C2130 C 0.57813 0.96706 0.31474 0.0
H2131 H 0.59386 0.92392 0.31552 0.0
H2132 H 0.57197 0.93676 0.28964 0.0
C2133 C 0.59027 0.98019 0.33722 0.0
C2134 C 0.04886 0.63982 0.32782 0.0
C2135 C 0.03482 0.65042 0.32467 0.0
H2136 H 0.05265 0.60916 0.32016 0.0
C2137 C 0.0126 0.63704 0.31153 0.0
H2138 H 0.06593 0.64955 0.33813 0.0
C2139 C 0.00514 0.6139 0.30067 0.0
C2140 C 0.01969 0.6037 0.30296 0.0
H2141 H 1.00145 0.64482 0.30875 0.0
H2142 H 0.9884 0.60441 0.28974 0.0
C2143 C 0.04131 0.6167 0.3173 0.0
C2144 C 0.36342 0.42379 0.36498 0.0
C2145 C 0.35238 0.39888 0.36711 0.0
H2146 H 0.39119 0.45452 0.35007 0.0
C2147 C 0.36257 0.38606 0.3568 0.0
H2148 H 0.35614 0.43426 0.37283 0.0
C2149 C 0.38258 0.39768 0.34347 0.0
C2150 C 0.39285 0.42236 0.3402 0.0
H2151 H 0.35447 0.36683 0.35804 0.0
H2152 H 0.38931 0.38706 0.33476 0.0
C2153 C 0.38342 0.43539 0.35174 0.0
C2154 C 0.31589 0.28199 0.3944 0.0
C2155 C 0.29209 0.27512 0.39658 0.0
H2156 H 0.34335 0.27373 0.40119 0.0
C2157 C 0.2775 0.25377 0.40739 0.0
H2158 H 0.32755 0.29837 0.38609 0.0
C2159 C 0.28663 0.24008 0.41675 0.0
C2160 C 0.31056 0.24699 0.41505 0.0
H2161 H 0.25916 0.24811 0.40968 0.0
H2162 H 0.27496 0.22455 0.42619 0.0
C2163 C 0.32497 0.26795 0.4033 0.0
C2164 C 0.75425 0.03472 0.41529 0.0
C2165 C 0.73012 0.02704 0.41141 0.0
H2166 H 0.78848 0.06267 0.42948 0.0
C2167 C 0.72222 0.04299 0.4185 0.0
H2168 H 0.76099 0.02301 0.4098 0.0
C2169 C 0.73809 0.06582 0.43018 0.0
C2170 C 0.76208 0.07304 0.43493 0.0
H2171 H 0.70371 0.03755 0.41578 0.0
H2172 H 0.73144 0.07746 0.43619 0.0
C2173 C 0.77001 0.05742 0.42678 0.0
C2174 C 0.96997 0.70533 0.37358 0.0
C2175 C 0.98867 0.72925 0.37689 0.0
H2176 H 0.93567 0.6793 0.38347 0.0
C2177 C 0.98685 0.74541 0.39365 0.0
H2178 H 0.97088 0.69246 0.36078 0.0
C2179 C 0.96716 0.73774 0.40735 0.0
C2180 C 0.9483 0.71378 0.40426 0.0
H2181 H 1.00113 0.76387 0.39696 0.0
H2182 H 0.96722 0.75062 0.42092 0.0
C2183 C 0.94988 0.69775 0.38687 0.0
C2184 C 0.4043 0.02541 0.72706 0.0
C2185 C 0.40503 0.04737 0.73211 0.0
H2186 H 0.41799 0.00266 0.73668 0.0
C2187 C 0.41907 0.06254 0.75268 0.0
H2188 H 0.39351 0.01335 0.71134 0.0
C2189 C 0.43223 0.05602 0.76788 0.0
C2190 C 0.43246 0.0345 0.76248 0.0
H2191 H 0.41952 0.07933 0.75736 0.0
H2192 H 0.44219 0.068 0.78394 0.0
C2193 C 0.41815 0.0192 0.74185 0.0
C2194 C 0.99356 0.36473 0.75447 0.0
C2195 C 0.97065 0.34613 0.75789 0.0
H2196 H 0.01878 0.40244 0.76058 0.0
C2197 C 0.95616 0.35121 0.7722 0.0
H2198 H 0.00512 0.36121 0.74359 0.0
C2199 C 0.96416 0.37444 0.78259 0.0
C2200 C 0.98666 0.39348 0.77836 0.0
H2201 H 0.93861 0.33709 0.77564 0.0
H2202 H 0.95254 0.37741 0.79393 0.0
C2203 C 1.00142 0.38828 0.7644 0.0
C2204 C 0.64287 0.58338 0.71028 0.0
C2205 C 0.6564 0.6086 0.7133 0.0
H2206 H 0.61238 0.55149 0.71981 0.0
C2207 C 0.64841 0.62116 0.72815 0.0
H2208 H 0.64845 0.57318 0.69882 0.0
C2209 C 0.62803 0.60873 0.74073 0.0
C2210 C 0.61491 0.5834 0.73851 0.0
H2211 H 0.6585 0.64061 0.73101 0.0
H2212 H 0.62322 0.61904 0.75302 0.0
C2213 C 0.62228 0.57094 0.72255 0.0
C2214 C 0.6884 0.71571 0.67189 0.0
C2215 C 0.70986 0.72677 0.68651 0.0
H2216 H 0.66322 0.72043 0.65056 0.0
C2217 C 0.72094 0.75154 0.69341 0.0
H2218 H 0.6795 0.69665 0.66616 0.0
C2219 C 0.71126 0.76516 0.68502 0.0
C2220 C 0.69055 0.75443 0.66903 0.0
H2221 H 0.73738 0.7605 0.7049 0.0
H2222 H 0.72039 0.78425 0.69058 0.0
C2223 C 0.67896 0.72939 0.66307 0.0
C2224 C 0.25407 0.96176 0.67009 0.0
C2225 C 0.27841 0.97163 0.66823 0.0
H2226 H 0.21945 0.93172 0.66141 0.0
C2227 C 0.28657 0.95761 0.65636 0.0
H2228 H 0.24729 0.97205 0.67943 0.0
C2229 C 0.2705 0.93458 0.6453 0.0
C2230 C 0.246 0.92509 0.64623 0.0
H2231 H 0.30528 0.96487 0.65458 0.0
H2232 H 0.27725 0.92468 0.63521 0.0
C2233 C 0.2381 0.9387 0.65951 0.0
C2234 C 0.03401 0.26376 0.70116 0.0
C2235 C 0.02516 0.27893 0.70798 0.0
H2236 H 0.05965 0.25956 0.68184 0.0
C2237 C 0.03706 0.30281 0.70145 0.0
H2238 H 0.02537 0.24529 0.70596 0.0
C2239 C 0.05668 0.31095 0.6874 0.0
C2240 C 0.06478 0.29538 0.67953 0.0
H2241 H 0.03067 0.31496 0.70633 0.0
H2242 H 0.06484 0.32913 0.6818 0.0
C2243 C 0.05356 0.27188 0.68713 0.0
C2244 C 0.24514 0.27708 0.68054 0.0
C2245 C 0.26943 0.29279 0.68627 0.0
H2246 H 0.21319 0.27131 0.66193 0.0
C2247 C 0.28003 0.31585 0.67759 0.0
H2248 H 0.23635 0.25924 0.68703 0.0
C2249 C 0.26675 0.32268 0.66277 0.0
C2250 C 0.24258 0.3066 0.65634 0.0
H2251 H 0.29874 0.32834 0.68155 0.0
H2252 H 0.27557 0.34029 0.65576 0.0
C2253 C 0.23189 0.28391 0.66587 0.0
C2254 C 0.67806 0.97028 0.64944 0.0
C2255 C 0.70188 0.98444 0.65843 0.0
H2256 H 0.6513 0.93676 0.63082 0.0
C2257 C 0.71675 0.97465 0.65666 0.0
H2258 H 0.66618 0.97735 0.65051 0.0
C2259 C 0.70829 0.95159 0.64547 0.0
C2260 C 0.68474 0.93769 0.63567 0.0
H2261 H 0.73514 0.98495 0.66358 0.0
H2262 H 0.72029 0.94465 0.64444 0.0
C2263 C 0.66955 0.94707 0.63817 0.0
C2264 C 0.03224 0.75609 0.69845 0.0
C2265 C 0.02161 0.73145 0.70196 0.0
H2266 H 0.05948 0.78605 0.68199 0.0
C2267 C 0.03211 0.71849 0.69281 0.0
H2268 H 0.02471 0.76666 0.70534 0.0
C2269 C 0.05204 0.72963 0.67928 0.0
C2270 C 0.06181 0.75393 0.67455 0.0
H2271 H 0.02435 0.69947 0.69516 0.0
H2272 H 0.05907 0.71891 0.67151 0.0
C2273 C 0.05208 0.76718 0.68489 0.0
C2274 C 0.98534 0.61585 0.72614 0.0
C2275 C 0.96138 0.60851 0.7279 0.0
H2276 H 0.01299 0.60781 0.73271 0.0
C2277 C 0.94669 0.58654 0.73763 0.0
H2278 H 0.99709 0.63271 0.71866 0.0
C2279 C 0.95586 0.57267 0.74638 0.0
C2280 C 0.97994 0.58004 0.74512 0.0
H2281 H 0.92821 0.58051 0.73956 0.0
H2282 H 0.94407 0.55661 0.75504 0.0
C2283 C 0.99448 0.60165 0.73443 0.0
C2284 C 0.39051 0.37599 0.7518 0.0
C2285 C 0.39833 0.35982 0.74545 0.0
H2286 H 0.3996 0.41061 0.76887 0.0
C2287 C 0.42231 0.36721 0.75032 0.0
H2288 H 0.37211 0.37078 0.74837 0.0
C2289 C 0.43798 0.38992 0.76194 0.0
C2290 C 0.43009 0.40582 0.76915 0.0
H2291 H 0.42898 0.35529 0.7455 0.0
H2292 H 0.45634 0.39498 0.76535 0.0
C2293 C 0.40625 0.39879 0.76355 0.0
C2294 C 0.63794 0.03908 0.70702 0.0
C2295 C 0.65665 0.06298 0.71065 0.0
H2296 H 0.60345 0.01297 0.7163 0.0
C2297 C 0.6546 0.07903 0.72735 0.0
H2298 H 0.63903 0.0263 0.69424 0.0
C2299 C 0.63468 0.07125 0.74072 0.0
C2300 C 0.61582 0.04729 0.73732 0.0
H2301 H 0.66887 0.09747 0.73091 0.0
H2302 H 0.63455 0.08403 0.75428 0.0
C2303 C 0.61764 0.0314 0.71995 0.0
loop_
_geom_bond_atom_site_label_1
_geom_bond_atom_site_label_2
_geom_bond_distance
_geom_bond_site_symmetry_2
_ccdc_geom_bond_type
O0 Cd1 2.223 . S
O0 C8 1.315 . S
Cd1 O0 2.223 . S
Cd1 O4 2.297 . S
Cd1 O5 2.439 . S
Cd1 O11 2.225 1_554 S
Cd2 O3 2.240 . S
Cd2 O10 2.223 . S
Cd2 O12 2.297 1_554 S
Cd2 O13 2.439 . S
O3 Cd2 2.240 . S
O3 C8 1.279 1_655 S
O4 Cd1 2.297 . S
O4 C6 1.247 . S
O5 Cd1 2.439 . S
O5 C6 1.208 . S
C6 O4 1.247 . S
C6 O5 1.208 . S
C7 O12 1.247 . S
C7 O13 1.208 1_556 S
C8 O0 1.315 . S
C8 O3 1.279 1_455 S
C9 O10 1.315 1_556 S
C9 O11 1.284 1_655 S
O10 Cd2 2.223 . S
O10 C9 1.315 1_554 S
O11 Cd1 2.225 1_556 S
O11 C9 1.284 1_455 S
O12 Cd2 2.297 1_556 S
O12 C7 1.247 . S
O13 Cd2 2.439 . S
O13 C7 1.208 1_554 S
O14 Cd15 2.223 . S
O14 C22 1.315 . S
Cd15 O14 2.223 . S
Cd15 O18 2.297 . S
Cd15 O19 2.439 . S
Cd15 O25 2.240 . S
Cd16 O17 2.240 . S
Cd16 O24 2.223 . S
Cd16 O26 2.297 . S
Cd16 O27 2.439 . S
O17 Cd16 2.240 . S
O17 C22 1.279 . S
O18 Cd15 2.297 . S
O18 C20 1.247 . S
O19 Cd15 2.439 . S
O19 C20 1.208 . S
C20 O18 1.247 . S
C20 O19 1.208 . S
C21 O26 1.247 . S
C21 O27 1.208 . S
C22 O14 1.315 . S
C22 O17 1.279 . S
C23 O24 1.315 . S
C23 O25 1.279 . S
O24 Cd16 2.223 . S
O24 C23 1.315 . S
O25 Cd15 2.240 . S
O25 C23 1.279 . S
O26 Cd16 2.297 . S
O26 C21 1.247 . S
O27 Cd16 2.439 . S
O27 C21 1.208 . S
O28 Cd29 2.223 . S
O28 C36 1.311 1_544 S
Cd29 O28 2.223 . S
Cd29 O32 2.297 1_554 S
Cd29 O33 2.439 . S
Cd29 O39 2.240 . S
Cd30 O31 2.240 1_554 S
Cd30 O38 2.223 . S
Cd30 O40 2.297 . S
Cd30 O41 2.439 . S
O31 Cd30 2.240 1_556 S
O31 C36 1.279 . S
O32 Cd29 2.297 1_556 S
O32 C34 1.247 . S
O33 Cd29 2.439 . S
O33 C34 1.208 1_554 S
C34 O32 1.247 . S
C34 O33 1.208 1_556 S
C35 O40 1.247 . S
C35 O41 1.208 . S
C36 O28 1.311 1_566 S
C36 O31 1.279 . S
C37 O38 1.360 . S
C37 O39 1.236 1_565 S
O38 Cd30 2.223 . S
O38 C37 1.360 . S
O39 Cd29 2.240 . S
O39 C37 1.236 1_545 S
O40 Cd30 2.297 . S
O40 C35 1.247 . S
O41 Cd30 2.439 . S
O41 C35 1.208 . S
O42 Cd43 2.223 . S
O42 C50 1.315 . S
Cd43 O42 2.223 . S
Cd43 O46 2.297 . S
Cd43 O47 2.439 . S
Cd43 O53 2.240 . S
Cd44 O45 2.240 . S
Cd44 O52 2.223 . S
Cd44 O54 2.297 . S
Cd44 O55 2.439 . S
O45 Cd44 2.240 . S
O45 C50 1.279 1_455 S
O46 Cd43 2.297 . S
O46 C48 1.247 . S
O47 Cd43 2.439 . S
O47 C48 1.208 . S
C48 O46 1.247 . S
C48 O47 1.208 . S
C49 O54 1.247 . S
C49 O55 1.208 . S
C50 O42 1.315 . S
C50 O45 1.279 1_655 S
C51 O52 1.315 . S
C51 O53 1.279 1_455 S
O52 Cd44 2.223 . S
O52 C51 1.315 . S
O53 Cd43 2.240 . S
O53 C51 1.279 1_655 S
O54 Cd44 2.297 . S
O54 C49 1.247 . S
O55 Cd44 2.439 . S
O55 C49 1.208 . S
O56 Cd57 2.219 1_556 S
O56 C64 1.315 . S
Cd57 O56 2.219 1_554 S
Cd57 O60 2.291 1_554 S
Cd57 O61 2.435 1_554 S
Cd57 O67 2.247 . S
Cd58 O59 2.240 1_554 S
Cd58 O66 2.223 . S
Cd58 O68 2.297 . S
Cd58 O69 2.439 . S
O59 Cd58 2.240 1_556 S
O59 C64 1.279 . S
O60 Cd57 2.291 1_556 S
O60 C62 1.247 . S
O61 Cd57 2.435 1_556 S
O61 C62 1.208 . S
C62 O60 1.247 . S
C62 O61 1.208 . S
C63 O68 1.247 . S
C63 O69 1.208 . S
C64 O56 1.315 . S
C64 O59 1.279 . S
C65 O66 1.315 . S
C65 O67 1.279 . S
O66 Cd58 2.223 . S
O66 C65 1.315 . S
O67 Cd57 2.247 . S
O67 C65 1.279 . S
O68 Cd58 2.297 . S
O68 C63 1.247 . S
O69 Cd58 2.439 . S
O69 C63 1.208 . S
O70 Cd71 2.223 . S
O70 C78 1.302 1_565 S
Cd71 O70 2.223 . S
Cd71 O74 2.297 . S
Cd71 O75 2.439 . S
Cd71 O81 2.240 . S
Cd72 O73 2.240 . S
Cd72 O80 2.223 . S
Cd72 O82 2.297 . S
Cd72 O83 2.439 . S
O73 Cd72 2.240 . S
O73 C78 1.279 . S
O74 Cd71 2.297 . S
O74 C76 1.247 . S
O75 Cd71 2.439 . S
O75 C76 1.208 . S
C76 O74 1.247 . S
C76 O75 1.208 . S
C77 O82 1.247 . S
C77 O83 1.208 . S
C78 O70 1.302 1_545 S
C78 O73 1.279 . S
C79 O80 1.315 . S
C79 O81 1.279 1_545 S
O80 Cd72 2.223 . S
O80 C79 1.315 . S
O81 Cd71 2.240 . S
O81 C79 1.279 1_565 S
O82 Cd72 2.297 . S
O82 C77 1.247 . S
O83 Cd72 2.439 . S
O83 C77 1.208 . S
O84 Cd85 2.223 . S
O84 C92 1.315 . S
Cd85 O84 2.223 . S
Cd85 O88 2.297 . S
Cd85 O89 2.439 . S
Cd85 O95 2.240 . S
Cd86 O87 2.240 . S
Cd86 O94 2.223 . S
Cd86 O96 2.297 . S
Cd86 O97 2.439 . S
O87 Cd86 2.240 . S
O87 C92 1.279 . S
O88 Cd85 2.297 . S
O88 C90 1.247 . S
O89 Cd85 2.439 . S
O89 C90 1.208 . S
C90 O88 1.247 . S
C90 O89 1.208 . S
C91 O96 1.247 . S
C91 O97 1.208 . S
C92 O84 1.315 . S
C92 O87 1.279 . S
C93 O94 1.315 . S
C93 O95 1.279 . S
O94 Cd86 2.223 . S
O94 C93 1.315 . S
O95 Cd85 2.240 . S
O95 C93 1.279 . S
O96 Cd86 2.297 . S
O96 C91 1.247 . S
O97 Cd86 2.439 . S
O97 C91 1.208 . S
O98 Cd99 2.223 . S
O98 C106 1.315 . S
Cd99 O98 2.223 . S
Cd99 O102 2.297 . S
Cd99 O103 2.438 1_565 S
Cd99 O109 2.240 . S
Cd100 O101 2.240 . S
Cd100 O108 2.223 . S
Cd100 O110 2.297 . S
Cd100 O111 2.439 . S
O101 Cd100 2.240 . S
O101 C106 1.279 . S
O102 Cd99 2.297 . S
O102 C104 1.247 1_565 S
O103 Cd99 2.438 1_545 S
O103 C104 1.210 . S
C104 O102 1.247 1_545 S
C104 O103 1.210 . S
C105 O110 1.247 . S
C105 O111 1.208 . S
C106 O98 1.315 . S
C106 O101 1.279 . S
C107 O108 1.315 . S
C107 O109 1.279 . S
O108 Cd100 2.223 . S
O108 C107 1.315 . S
O109 Cd99 2.240 . S
O109 C107 1.279 . S
O110 Cd100 2.297 . S
O110 C105 1.247 . S
O111 Cd100 2.439 . S
O111 C105 1.208 . S
O112 Cd113 2.223 . S
O112 C120 1.315 . S
Cd113 O112 2.223 . S
Cd113 O116 2.297 . S
Cd113 O117 2.439 . S
Cd113 O123 2.240 . S
Cd114 O115 2.240 . S
Cd114 O122 2.223 . S
Cd114 O124 2.297 . S
Cd114 O125 2.439 . S
O115 Cd114 2.240 . S
O115 C120 1.279 . S
O116 Cd113 2.297 . S
O116 C118 1.247 . S
O117 Cd113 2.439 . S
O117 C118 1.208 . S
C118 O116 1.247 . S
C118 O117 1.208 . S
C119 O124 1.231 1_655 S
C119 O125 1.210 1_655 S
C120 O112 1.315 . S
C120 O115 1.279 . S
C121 O122 1.315 . S
C121 O123 1.279 . S
O122 Cd114 2.223 . S
O122 C121 1.315 . S
O123 Cd113 2.240 . S
O123 C121 1.279 . S
O124 Cd114 2.297 . S
O124 C119 1.231 1_455 S
O125 Cd114 2.439 . S
O125 C119 1.210 1_455 S
O126 Cd127 2.223 . S
O126 C134 1.315 . S
Cd127 O126 2.223 . S
Cd127 O130 2.297 . S
Cd127 O131 2.439 . S
Cd127 O137 2.240 . S
Cd128 O129 2.240 . S
Cd128 O136 2.223 . S
Cd128 O138 2.297 1_565 S
Cd128 O139 2.439 1_565 S
O129 Cd128 2.240 . S
O129 C134 1.279 . S
O130 Cd127 2.297 . S
O130 C132 1.247 . S
O131 Cd127 2.439 . S
O131 C132 1.208 . S
C132 O130 1.247 . S
C132 O131 1.208 . S
C133 O138 1.247 . S
C133 O139 1.208 . S
C134 O126 1.315 . S
C134 O129 1.279 . S
C135 O136 1.315 . S
C135 O137 1.279 . S
O136 Cd128 2.223 . S
O136 C135 1.315 . S
O137 Cd127 2.240 . S
O137 C135 1.279 . S
O138 Cd128 2.297 1_545 S
O138 C133 1.247 . S
O139 Cd128 2.439 1_545 S
O139 C133 1.208 . S
O140 Cd141 2.223 . S
O140 C148 1.315 . S
Cd141 O140 2.223 . S
Cd141 O144 2.297 . S
Cd141 O145 2.439 . S
Cd141 O151 2.240 . S
Cd142 O143 2.240 . S
Cd142 O150 2.223 . S
Cd142 O152 2.270 1_455 S
Cd142 O153 2.439 1_455 S
O143 Cd142 2.240 . S
O143 C148 1.279 . S
O144 Cd141 2.297 . S
O144 C146 1.247 . S
O145 Cd141 2.439 . S
O145 C146 1.208 . S
C146 O144 1.247 . S
C146 O145 1.208 . S
C147 O152 1.246 . S
C147 O153 1.208 . S
C148 O140 1.315 . S
C148 O143 1.279 . S
C149 O150 1.315 . S
C149 O151 1.279 . S
O150 Cd142 2.223 . S
O150 C149 1.315 . S
O151 Cd141 2.240 . S
O151 C149 1.279 . S
O152 Cd142 2.270 1_655 S
O152 C147 1.246 . S
O153 Cd142 2.439 1_655 S
O153 C147 1.208 . S
O154 Cd155 2.223 . S
O154 C162 1.315 . S
Cd155 O154 2.223 . S
Cd155 O158 2.297 . S
Cd155 O159 2.439 . S
Cd155 O165 2.240 . S
Cd156 O157 2.240 . S
Cd156 O164 2.223 . S
Cd156 O166 2.297 . S
Cd156 O167 2.439 . S
O157 Cd156 2.240 . S
O157 C162 1.279 . S
O158 Cd155 2.297 . S
O158 C160 1.247 . S
O159 Cd155 2.439 . S
O159 C160 1.208 . S
C160 O158 1.247 . S
C160 O159 1.208 . S
C161 O166 1.247 . S
C161 O167 1.208 . S
C162 O154 1.315 . S
C162 O157 1.279 . S
C163 O164 1.315 . S
C163 O165 1.279 . S
O164 Cd156 2.223 . S
O164 C163 1.315 . S
O165 Cd155 2.240 . S
O165 C163 1.279 . S
O166 Cd156 2.297 . S
O166 C161 1.247 . S
O167 Cd156 2.439 . S
O167 C161 1.208 . S
O168 Cd169 2.223 . S
O168 C176 1.315 . S
Cd169 O168 2.223 . S
Cd169 O172 2.297 . S
Cd169 O173 2.439 . S
Cd169 O179 2.240 . S
Cd170 O171 2.240 . S
Cd170 O178 2.223 . S
Cd170 O180 2.297 1_545 S
Cd170 O181 2.439 1_545 S
O171 Cd170 2.240 . S
O171 C176 1.279 . S
O172 Cd169 2.297 . S
O172 C174 1.247 . S
O173 Cd169 2.439 . S
O173 C174 1.208 . S
C174 O172 1.247 . S
C174 O173 1.208 . S
C175 O180 1.247 . S
C175 O181 1.208 . S
C176 O168 1.315 . S
C176 O171 1.279 . S
C177 O178 1.315 . S
C177 O179 1.279 . S
O178 Cd170 2.223 . S
O178 C177 1.315 . S
O179 Cd169 2.240 . S
O179 C177 1.279 . S
O180 Cd170 2.297 1_565 S
O180 C175 1.247 . S
O181 Cd170 2.439 1_565 S
O181 C175 1.208 . S
O182 Cd183 2.223 . S
O182 C190 1.315 . S
Cd183 O182 2.223 . S
Cd183 O186 2.297 . S
Cd183 O187 2.439 . S
Cd183 O193 2.240 . S
Cd184 O185 2.240 . S
Cd184 O192 2.223 . S
Cd184 O194 2.297 1_655 S
Cd184 O195 2.439 1_655 S
O185 Cd184 2.240 . S
O185 C190 1.279 . S
O186 Cd183 2.297 . S
O186 C188 1.247 . S
O187 Cd183 2.439 . S
O187 C188 1.208 . S
C188 O186 1.247 . S
C188 O187 1.208 . S
C189 O194 1.247 . S
C189 O195 1.208 . S
C190 O182 1.315 . S
C190 O185 1.279 . S
C191 O192 1.315 . S
C191 O193 1.279 . S
O192 Cd184 2.223 . S
O192 C191 1.315 . S
O193 Cd183 2.240 . S
O193 C191 1.279 . S
O194 Cd184 2.297 1_455 S
O194 C189 1.247 . S
O195 Cd184 2.439 1_455 S
O195 C189 1.208 . S
O196 Cd197 2.223 . S
O196 C204 1.315 . S
Cd197 O196 2.223 . S
Cd197 O200 2.297 . S
Cd197 O201 2.439 . S
Cd197 O207 2.240 . S
Cd198 O199 2.240 . S
Cd198 O206 2.223 . S
Cd198 O208 2.297 . S
Cd198 O209 2.439 . S
O199 Cd198 2.240 . S
O199 C204 1.279 . S
O200 Cd197 2.297 . S
O200 C202 1.247 . S
O201 Cd197 2.439 . S
O201 C202 1.208 . S
C202 O200 1.247 . S
C202 O201 1.208 . S
C203 O208 1.247 . S
C203 O209 1.208 . S
C204 O196 1.315 . S
C204 O199 1.279 . S
C205 O206 1.315 . S
C205 O207 1.279 . S
O206 Cd198 2.223 . S
O206 C205 1.315 . S
O207 Cd197 2.240 . S
O207 C205 1.279 . S
O208 Cd198 2.297 . S
O208 C203 1.247 . S
O209 Cd198 2.439 . S
O209 C203 1.208 . S
O210 Cd211 2.223 . S
O210 C218 1.315 . S
Cd211 O210 2.223 . S
Cd211 O214 2.297 . S
Cd211 O215 2.439 . S
Cd211 O221 2.240 . S
Cd212 O213 2.240 . S
Cd212 O220 2.223 . S
Cd212 O222 2.297 . S
Cd212 O223 2.439 . S
O213 Cd212 2.240 . S
O213 C218 1.279 . S
O214 Cd211 2.297 . S
O214 C216 1.247 . S
O215 Cd211 2.439 . S
O215 C216 1.208 . S
C216 O214 1.247 . S
C216 O215 1.208 . S
C217 O222 1.247 . S
C217 O223 1.208 . S
C218 O210 1.315 . S
C218 O213 1.279 . S
C219 O220 1.315 . S
C219 O221 1.279 . S
O220 Cd212 2.223 . S
O220 C219 1.315 . S
O221 Cd211 2.240 . S
O221 C219 1.279 . S
O222 Cd212 2.297 . S
O222 C217 1.247 . S
O223 Cd212 2.439 . S
O223 C217 1.208 . S
O224 Cd225 2.223 . S
O224 C232 1.315 . S
Cd225 O224 2.223 . S
Cd225 O228 2.297 . S
Cd225 O229 2.438 1_545 S
Cd225 O235 2.240 . S
Cd226 O227 2.240 . S
Cd226 O234 2.223 . S
Cd226 O236 2.297 . S
Cd226 O237 2.439 . S
O227 Cd226 2.240 . S
O227 C232 1.279 . S
O228 Cd225 2.297 . S
O228 C230 1.247 1_545 S
O229 Cd225 2.438 1_565 S
O229 C230 1.210 . S
C230 O228 1.247 1_565 S
C230 O229 1.210 . S
C231 O236 1.247 . S
C231 O237 1.208 . S
C232 O224 1.315 . S
C232 O227 1.279 . S
C233 O234 1.315 . S
C233 O235 1.279 . S
O234 Cd226 2.223 . S
O234 C233 1.315 . S
O235 Cd225 2.240 . S
O235 C233 1.279 . S
O236 Cd226 2.297 . S
O236 C231 1.247 . S
O237 Cd226 2.439 . S
O237 C231 1.208 . S
O238 Cd239 2.223 . S
O238 C246 1.315 . S
Cd239 O238 2.223 . S
Cd239 O242 2.297 . S
Cd239 O243 2.439 . S
Cd239 O249 2.240 . S
Cd240 O241 2.240 . S
Cd240 O248 2.223 . S
Cd240 O250 2.297 . S
Cd240 O251 2.439 . S
O241 Cd240 2.240 . S
O241 C246 1.279 . S
O242 Cd239 2.297 . S
O242 C244 1.247 . S
O243 Cd239 2.439 . S
O243 C244 1.208 . S
C244 O242 1.247 . S
C244 O243 1.208 . S
C245 O250 1.209 1_455 S
C245 O251 1.212 1_455 S
C246 O238 1.315 . S
C246 O241 1.279 . S
C247 O248 1.315 . S
C247 O249 1.279 . S
O248 Cd240 2.223 . S
O248 C247 1.315 . S
O249 Cd239 2.240 . S
O249 C247 1.279 . S
O250 Cd240 2.297 . S
O250 C245 1.209 1_655 S
O251 Cd240 2.439 . S
O251 C245 1.212 1_655 S
H252 O278 0.856 . S
H253 O281 0.854 . S
H254 C289 0.930 . S
H255 C290 0.930 . S
H256 C292 0.930 . S
H257 C293 0.930 . S
H258 C295 0.931 . S
H259 C296 0.930 . S
H260 C298 0.930 . S
H261 C299 0.929 . S
H262 C301 0.930 . S
H263 C302 0.931 . S
H264 C304 0.930 . S
H265 C305 0.929 . S
H266 C307 0.931 . S
H267 C308 0.930 . S
H268 C310 0.930 . S
H269 C311 0.932 . S
H270 C313 0.930 . S
H271 C314 0.929 . S
H272 C316 0.931 . S
H273 C317 0.930 . S
H274 C319 0.929 . S
H275 C320 0.931 . S
H276 C322 0.930 . S
H277 C323 0.929 . S
O278 H252 0.856 . S
O278 C324 1.300 . S
O279 C324 1.209 . S
O280 C325 1.199 . S
O281 H253 0.854 . S
O281 C325 1.297 . S
C282 C283 1.404 . S
C282 C287 1.397 . S
C282 C288 1.492 . S
C283 C282 1.404 . S
C283 C284 1.396 . S
C283 C294 1.492 . S
C284 C283 1.396 . S
C284 C285 1.397 . S
C284 C300 1.509 . S
C285 C284 1.397 . S
C285 C286 1.412 . S
C285 C306 1.485 . S
C286 C285 1.412 . S
C286 C287 1.388 . S
C286 C312 1.490 . S
C287 C282 1.397 . S
C287 C286 1.388 . S
C287 C318 1.519 . S
C288 C282 1.492 . S
C288 C289 1.363 . S
C288 C293 1.390 . S
C289 H254 0.930 . S
C289 C288 1.363 . S
C289 C290 1.372 . S
C290 H255 0.930 . S
C290 C289 1.372 . S
C290 C291 1.383 . S
C291 C290 1.383 . S
C291 C292 1.395 . S
C292 H256 0.930 . S
C292 C291 1.395 . S
C292 C293 1.362 . S
C293 H257 0.930 . S
C293 C288 1.390 . S
C293 C292 1.362 . S
C294 C283 1.492 . S
C294 C295 1.377 . S
C294 C299 1.397 . S
C295 H258 0.931 . S
C295 C294 1.377 . S
C295 C296 1.376 . S
C296 H259 0.930 . S
C296 C295 1.376 . S
C296 C297 1.376 . S
C297 C296 1.376 . S
C297 C298 1.378 . S
C297 C324 1.486 . S
C298 H260 0.930 . S
C298 C297 1.378 . S
C298 C299 1.376 . S
C299 H261 0.929 . S
C299 C294 1.397 . S
C299 C298 1.376 . S
C300 C284 1.509 . S
C300 C301 1.391 . S
C300 C305 1.386 . S
C301 H262 0.930 . S
C301 C300 1.391 . S
C301 C302 1.375 . S
C302 H263 0.931 . S
C302 C301 1.375 . S
C302 C303 1.375 . S
C303 C302 1.375 . S
C303 C304 1.361 . S
C304 H264 0.930 . S
C304 C303 1.361 . S
C304 C305 1.399 . S
C305 H265 0.929 . S
C305 C300 1.386 . S
C305 C304 1.399 . S
C306 C285 1.485 . S
C306 C307 1.394 . S
C306 C311 1.360 . S
C307 H266 0.931 . S
C307 C306 1.394 . S
C307 C308 1.372 . S
C308 H267 0.930 . S
C308 C307 1.372 . S
C308 C309 1.397 . S
C309 C308 1.397 . S
C309 C310 1.390 . S
C309 C325 1.476 . S
C310 H268 0.930 . S
C310 C309 1.390 . S
C310 C311 1.366 . S
C311 H269 0.932 . S
C311 C306 1.360 . S
C311 C310 1.366 . S
C312 C286 1.490 . S
C312 C313 1.380 . S
C312 C317 1.386 . S
C313 H270 0.930 . S
C313 C312 1.380 . S
C313 C314 1.381 . S
C314 H271 0.929 . S
C314 C313 1.381 . S
C314 C315 1.371 . S
C315 C314 1.371 . S
C315 C316 1.380 . S
C316 H272 0.931 . S
C316 C315 1.380 . S
C316 C317 1.387 . S
C317 H273 0.930 . S
C317 C312 1.386 . S
C317 C316 1.387 . S
C318 C287 1.519 . S
C318 C319 1.377 . S
C318 C323 1.361 . S
C319 H274 0.929 . S
C319 C318 1.377 . S
C319 C320 1.386 . S
C320 H275 0.931 . S
C320 C319 1.386 . S
C320 C321 1.363 . S
C321 C320 1.363 . S
C321 C322 1.385 . S
C322 H276 0.930 . S
C322 C321 1.385 . S
C322 C323 1.396 . S
C323 H277 0.929 . S
C323 C318 1.361 . S
C323 C322 1.396 . S
C324 O278 1.300 . S
C324 O279 1.209 . S
C324 C297 1.486 . S
C325 O280 1.199 . S
C325 O281 1.297 . S
C325 C309 1.476 . S
H326 O352 0.856 . S
H327 O355 0.908 . S
H328 C363 0.930 . S
H329 C364 0.930 . S
H330 C366 0.930 . S
H331 C367 0.930 . S
H332 C369 0.931 . S
H333 C370 0.930 . S
H334 C372 0.930 . S
H335 C373 0.929 . S
H336 C375 0.930 . S
H337 C376 0.931 . S
H338 C378 0.930 . S
H339 C379 0.929 . S
H340 C381 0.931 . S
H341 C382 0.930 . S
H342 C384 0.930 . S
H343 C385 0.932 . S
H344 C387 0.930 . S
H345 C388 0.929 . S
H346 C390 0.931 . S
H347 C391 0.930 . S
H348 C393 0.929 . S
H349 C394 0.931 . S
H350 C396 0.930 . S
H351 C397 0.929 . S
O352 H326 0.856 . S
O352 C398 1.300 . S
O353 C398 1.209 . S
O354 C399 1.199 . S
O355 H327 0.908 . S
O355 C399 1.297 . S
C356 C357 1.404 . S
C356 C361 1.397 . S
C356 C362 1.492 . S
C357 C356 1.404 . S
C357 C358 1.396 . S
C357 C368 1.492 . S
C358 C357 1.396 . S
C358 C359 1.397 . S
C358 C374 1.509 . S
C359 C358 1.397 . S
C359 C360 1.412 . S
C359 C380 1.485 . S
C360 C359 1.412 . S
C360 C361 1.388 . S
C360 C386 1.490 . S
C361 C356 1.397 . S
C361 C360 1.388 . S
C361 C392 1.519 . S
C362 C356 1.492 . S
C362 C363 1.363 . S
C362 C367 1.390 . S
C363 H328 0.930 . S
C363 C362 1.363 . S
C363 C364 1.372 . S
C364 H329 0.930 . S
C364 C363 1.372 . S
C364 C365 1.383 . S
C365 C364 1.383 . S
C365 C366 1.395 . S
C366 H330 0.930 . S
C366 C365 1.395 . S
C366 C367 1.362 . S
C367 H331 0.930 . S
C367 C362 1.390 . S
C367 C366 1.362 . S
C368 C357 1.492 . S
C368 C369 1.377 . S
C368 C373 1.397 . S
C369 H332 0.931 . S
C369 C368 1.377 . S
C369 C370 1.376 . S
C370 H333 0.930 . S
C370 C369 1.376 . S
C370 C371 1.376 . S
C371 C370 1.376 . S
C371 C372 1.378 . S
C371 C398 1.486 . S
C372 H334 0.930 . S
C372 C371 1.378 . S
C372 C373 1.376 . S
C373 H335 0.929 . S
C373 C368 1.397 . S
C373 C372 1.376 . S
C374 C358 1.509 . S
C374 C375 1.391 . S
C374 C379 1.386 . S
C375 H336 0.930 . S
C375 C374 1.391 . S
C375 C376 1.375 . S
C376 H337 0.931 . S
C376 C375 1.375 . S
C376 C377 1.375 . S
C377 C376 1.375 . S
C377 C378 1.361 . S
C378 H338 0.930 . S
C378 C377 1.361 . S
C378 C379 1.399 . S
C379 H339 0.929 . S
C379 C374 1.386 . S
C379 C378 1.399 . S
C380 C359 1.485 . S
C380 C381 1.394 . S
C380 C385 1.360 . S
C381 H340 0.931 . S
C381 C380 1.394 . S
C381 C382 1.372 . S
C382 H341 0.930 . S
C382 C381 1.372 . S
C382 C383 1.397 . S
C383 C382 1.397 . S
C383 C384 1.390 . S
C383 C399 1.476 . S
C384 H342 0.930 . S
C384 C383 1.390 . S
C384 C385 1.366 . S
C385 H343 0.932 . S
C385 C380 1.360 . S
C385 C384 1.366 . S
C386 C360 1.490 . S
C386 C387 1.380 . S
C386 C391 1.386 . S
C387 H344 0.930 . S
C387 C386 1.380 . S
C387 C388 1.381 . S
C388 H345 0.929 . S
C388 C387 1.381 . S
C388 C389 1.371 . S
C389 C388 1.371 . S
C389 C390 1.380 . S
C390 H346 0.931 . S
C390 C389 1.380 . S
C390 C391 1.387 . S
C391 H347 0.930 . S
C391 C386 1.386 . S
C391 C390 1.387 . S
C392 C361 1.519 . S
C392 C393 1.377 . S
C392 C397 1.361 . S
C393 H348 0.929 . S
C393 C392 1.377 . S
C393 C394 1.386 . S
C394 H349 0.931 . S
C394 C393 1.386 . S
C394 C395 1.363 . S
C395 C394 1.363 . S
C395 C396 1.385 . S
C396 H350 0.930 . S
C396 C395 1.385 . S
C396 C397 1.396 . S
C397 H351 0.929 . S
C397 C392 1.361 . S
C397 C396 1.396 . S
C398 O352 1.300 . S
C398 O353 1.209 . S
C398 C371 1.486 . S
C399 O354 1.199 . S
C399 O355 1.297 . S
C399 C383 1.476 . S
H400 O426 0.856 . S
H401 O429 0.854 . S
H402 C437 0.930 . S
H403 C438 0.930 . S
H404 C440 0.930 . S
H405 C441 0.930 . S
H406 C443 0.931 . S
H407 C444 0.930 . S
H408 C446 0.930 . S
H409 C447 0.929 . S
H410 C449 0.930 . S
H411 C450 0.931 . S
H412 C452 0.930 . S
H413 C453 0.929 . S
H414 C455 0.931 . S
H415 C456 0.930 . S
H416 C458 0.930 . S
H417 C459 0.932 . S
H418 C461 0.930 . S
H419 C462 0.929 . S
H420 C464 0.931 . S
H421 C465 0.930 . S
H422 C467 0.929 . S
H423 C468 0.931 . S
H424 C470 0.930 . S
H425 C471 0.929 . S
O426 H400 0.856 . S
O426 C472 1.300 . S
O427 C472 1.209 . S
O428 C473 1.199 . S
O429 H401 0.854 . S
O429 C473 1.297 . S
C430 C431 1.404 . S
C430 C435 1.397 . S
C430 C436 1.492 . S
C431 C430 1.404 . S
C431 C432 1.396 . S
C431 C442 1.492 . S
C432 C431 1.396 . S
C432 C433 1.397 . S
C432 C448 1.509 . S
C433 C432 1.397 . S
C433 C434 1.412 . S
C433 C454 1.485 . S
C434 C433 1.412 . S
C434 C435 1.388 . S
C434 C460 1.490 . S
C435 C430 1.397 . S
C435 C434 1.388 . S
C435 C466 1.519 . S
C436 C430 1.492 . S
C436 C437 1.363 . S
C436 C441 1.390 . S
C437 H402 0.930 . S
C437 C436 1.363 . S
C437 C438 1.372 . S
C438 H403 0.930 . S
C438 C437 1.372 . S
C438 C439 1.383 . S
C439 C438 1.383 . S
C439 C440 1.395 . S
C440 H404 0.930 . S
C440 C439 1.395 . S
C440 C441 1.362 . S
C441 H405 0.930 . S
C441 C436 1.390 . S
C441 C440 1.362 . S
C442 C431 1.492 . S
C442 C443 1.377 . S
C442 C447 1.397 . S
C443 H406 0.931 . S
C443 C442 1.377 . S
C443 C444 1.376 . S
C444 H407 0.930 . S
C444 C443 1.376 . S
C444 C445 1.376 . S
C445 C444 1.376 . S
C445 C446 1.378 . S
C445 C472 1.486 . S
C446 H408 0.930 . S
C446 C445 1.378 . S
C446 C447 1.376 . S
C447 H409 0.929 . S
C447 C442 1.397 . S
C447 C446 1.376 . S
C448 C432 1.509 . S
C448 C449 1.391 . S
C448 C453 1.386 . S
C449 H410 0.930 . S
C449 C448 1.391 . S
C449 C450 1.375 . S
C450 H411 0.931 . S
C450 C449 1.375 . S
C450 C451 1.375 . S
C451 C450 1.375 . S
C451 C452 1.361 . S
C452 H412 0.930 . S
C452 C451 1.361 . S
C452 C453 1.399 . S
C453 H413 0.929 . S
C453 C448 1.386 . S
C453 C452 1.399 . S
C454 C433 1.485 . S
C454 C455 1.394 . S
C454 C459 1.360 . S
C455 H414 0.931 . S
C455 C454 1.394 . S
C455 C456 1.372 . S
C456 H415 0.930 . S
C456 C455 1.372 . S
C456 C457 1.397 . S
C457 C456 1.397 . S
C457 C458 1.390 . S
C457 C473 1.476 . S
C458 H416 0.930 . S
C458 C457 1.390 . S
C458 C459 1.366 . S
C459 H417 0.932 . S
C459 C454 1.360 . S
C459 C458 1.366 . S
C460 C434 1.490 . S
C460 C461 1.380 . S
C460 C465 1.386 . S
C461 H418 0.930 . S
C461 C460 1.380 . S
C461 C462 1.381 . S
C462 H419 0.929 . S
C462 C461 1.381 . S
C462 C463 1.371 . S
C463 C462 1.371 . S
C463 C464 1.380 . S
C464 H420 0.931 . S
C464 C463 1.380 . S
C464 C465 1.387 . S
C465 H421 0.930 . S
C465 C460 1.386 . S
C465 C464 1.387 . S
C466 C435 1.519 . S
C466 C467 1.377 . S
C466 C471 1.361 . S
C467 H422 0.929 . S
C467 C466 1.377 . S
C467 C468 1.386 . S
C468 H423 0.931 . S
C468 C467 1.386 . S
C468 C469 1.363 . S
C469 C468 1.363 . S
C469 C470 1.385 . S
C470 H424 0.930 . S
C470 C469 1.385 . S
C470 C471 1.396 . S
C471 H425 0.929 . S
C471 C466 1.361 . S
C471 C470 1.396 . S
C472 O426 1.300 . S
C472 O427 1.209 . S
C472 C445 1.486 . S
C473 O428 1.199 . S
C473 O429 1.297 . S
C473 C457 1.476 . S
H474 O500 0.856 . S
H475 O503 0.854 . S
H476 C511 0.930 . S
H477 C512 0.930 . S
H478 C514 0.930 . S
H479 C515 0.930 . S
H480 C517 0.931 . S
H481 C518 0.930 . S
H482 C520 0.930 . S
H483 C521 0.929 . S
H484 C523 0.930 . S
H485 C524 0.931 . S
H486 C526 0.930 . S
H487 C527 0.929 . S
H488 C529 0.931 . S
H489 C530 0.930 . S
H490 C532 0.930 . S
H491 C533 0.932 . S
H492 C535 0.930 . S
H493 C536 0.929 . S
H494 C538 0.931 . S
H495 C539 0.930 . S
H496 C541 0.929 . S
H497 C542 0.931 . S
H498 C544 0.930 . S
H499 C545 0.929 . S
O500 H474 0.856 . S
O500 C546 1.300 . S
O501 C546 1.209 . S
O502 C547 1.199 . S
O503 H475 0.854 . S
O503 C547 1.297 . S
C504 C505 1.404 . S
C504 C509 1.397 . S
C504 C510 1.492 . S
C505 C504 1.404 . S
C505 C506 1.396 . S
C505 C516 1.492 . S
C506 C505 1.396 . S
C506 C507 1.397 . S
C506 C522 1.509 . S
C507 C506 1.397 . S
C507 C508 1.412 . S
C507 C528 1.485 . S
C508 C507 1.412 . S
C508 C509 1.388 . S
C508 C534 1.490 . S
C509 C504 1.397 . S
C509 C508 1.388 . S
C509 C540 1.519 . S
C510 C504 1.492 . S
C510 C511 1.363 . S
C510 C515 1.390 . S
C511 H476 0.930 . S
C511 C510 1.363 . S
C511 C512 1.372 . S
C512 H477 0.930 . S
C512 C511 1.372 . S
C512 C513 1.383 . S
C513 C512 1.383 . S
C513 C514 1.395 . S
C514 H478 0.930 . S
C514 C513 1.395 . S
C514 C515 1.362 . S
C515 H479 0.930 . S
C515 C510 1.390 . S
C515 C514 1.362 . S
C516 C505 1.492 . S
C516 C517 1.377 . S
C516 C521 1.397 . S
C517 H480 0.931 . S
C517 C516 1.377 . S
C517 C518 1.376 . S
C518 H481 0.930 . S
C518 C517 1.376 . S
C518 C519 1.376 . S
C519 C518 1.376 . S
C519 C520 1.378 . S
C519 C546 1.486 1_556 S
C520 H482 0.930 . S
C520 C519 1.378 . S
C520 C521 1.376 . S
C521 H483 0.929 . S
C521 C516 1.397 . S
C521 C520 1.376 . S
C522 C506 1.509 . S
C522 C523 1.391 . S
C522 C527 1.386 . S
C523 H484 0.930 . S
C523 C522 1.391 . S
C523 C524 1.375 . S
C524 H485 0.931 . S
C524 C523 1.375 . S
C524 C525 1.375 . S
C525 C524 1.375 . S
C525 C526 1.361 . S
C526 H486 0.930 . S
C526 C525 1.361 . S
C526 C527 1.399 . S
C527 H487 0.929 . S
C527 C522 1.386 . S
C527 C526 1.399 . S
C528 C507 1.485 . S
C528 C529 1.394 . S
C528 C533 1.360 . S
C529 H488 0.931 . S
C529 C528 1.394 . S
C529 C530 1.372 . S
C530 H489 0.930 . S
C530 C529 1.372 . S
C530 C531 1.397 . S
C531 C530 1.397 . S
C531 C532 1.390 . S
C531 C547 1.476 . S
C532 H490 0.930 . S
C532 C531 1.390 . S
C532 C533 1.366 . S
C533 H491 0.932 . S
C533 C528 1.360 . S
C533 C532 1.366 . S
C534 C508 1.490 . S
C534 C535 1.380 . S
C534 C539 1.386 . S
C535 H492 0.930 . S
C535 C534 1.380 . S
C535 C536 1.381 . S
C536 H493 0.929 . S
C536 C535 1.381 . S
C536 C537 1.371 . S
C537 C536 1.371 . S
C537 C538 1.380 . S
C538 H494 0.931 . S
C538 C537 1.380 . S
C538 C539 1.387 . S
C539 H495 0.930 . S
C539 C534 1.386 . S
C539 C538 1.387 . S
C540 C509 1.519 . S
C540 C541 1.377 . S
C540 C545 1.361 . S
C541 H496 0.929 . S
C541 C540 1.377 . S
C541 C542 1.386 . S
C542 H497 0.931 . S
C542 C541 1.386 . S
C542 C543 1.363 . S
C543 C542 1.363 . S
C543 C544 1.385 . S
C544 H498 0.930 . S
C544 C543 1.385 . S
C544 C545 1.396 . S
C545 H499 0.929 . S
C545 C540 1.361 . S
C545 C544 1.396 . S
C546 O500 1.300 . S
C546 O501 1.209 . S
C546 C519 1.486 1_554 S
C547 O502 1.199 . S
C547 O503 1.297 . S
C547 C531 1.476 . S
H548 O574 0.856 . S
H549 O577 0.854 1_565 S
H550 C585 0.930 . S
H551 C586 0.930 . S
H552 C588 0.930 . S
H553 C589 0.930 . S
H554 C591 0.931 . S
H555 C592 0.930 . S
H556 C594 0.930 . S
H557 C595 0.929 . S
H558 C597 0.930 . S
H559 C598 0.931 . S
H560 C600 0.930 . S
H561 C601 0.929 . S
H562 C603 0.931 . S
H563 C604 0.930 . S
H564 C606 0.930 . S
H565 C607 0.932 . S
H566 C609 0.930 . S
H567 C610 0.929 . S
H568 C612 0.931 . S
H569 C613 0.930 . S
H570 C615 0.929 . S
H571 C616 0.931 . S
H572 C618 0.930 . S
H573 C619 0.929 . S
O574 H548 0.856 . S
O574 C620 1.300 . S
O575 C620 1.209 . S
O576 C621 1.199 . S
O577 H549 0.854 1_545 S
O577 C621 1.297 . S
C578 C579 1.404 . S
C578 C583 1.397 . S
C578 C584 1.492 . S
C579 C578 1.404 . S
C579 C580 1.396 . S
C579 C590 1.492 . S
C580 C579 1.396 . S
C580 C581 1.397 . S
C580 C596 1.509 . S
C581 C580 1.397 . S
C581 C582 1.412 . S
C581 C602 1.485 . S
C582 C581 1.412 . S
C582 C583 1.388 . S
C582 C608 1.490 . S
C583 C578 1.397 . S
C583 C582 1.388 . S
C583 C614 1.519 . S
C584 C578 1.492 . S
C584 C585 1.363 . S
C584 C589 1.390 . S
C585 H550 0.930 . S
C585 C584 1.363 . S
C585 C586 1.372 . S
C586 H551 0.930 . S
C586 C585 1.372 . S
C586 C587 1.383 . S
C587 C586 1.383 . S
C587 C588 1.395 . S
C588 H552 0.930 . S
C588 C587 1.395 . S
C588 C589 1.362 . S
C589 H553 0.930 . S
C589 C584 1.390 . S
C589 C588 1.362 . S
C590 C579 1.492 . S
C590 C591 1.377 . S
C590 C595 1.397 . S
C591 H554 0.931 . S
C591 C590 1.377 . S
C591 C592 1.376 . S
C592 H555 0.930 . S
C592 C591 1.376 . S
C592 C593 1.376 . S
C593 C592 1.376 . S
C593 C594 1.378 . S
C593 C620 1.486 1_556 S
C594 H556 0.930 . S
C594 C593 1.378 . S
C594 C595 1.376 . S
C595 H557 0.929 . S
C595 C590 1.397 . S
C595 C594 1.376 . S
C596 C580 1.509 . S
C596 C597 1.391 . S
C596 C601 1.386 . S
C597 H558 0.930 . S
C597 C596 1.391 . S
C597 C598 1.375 . S
C598 H559 0.931 . S
C598 C597 1.375 . S
C598 C599 1.375 . S
C599 C598 1.375 . S
C599 C600 1.361 . S
C600 H560 0.930 . S
C600 C599 1.361 . S
C600 C601 1.399 . S
C601 H561 0.929 . S
C601 C596 1.386 . S
C601 C600 1.399 . S
C602 C581 1.485 . S
C602 C603 1.394 . S
C602 C607 1.360 . S
C603 H562 0.931 . S
C603 C602 1.394 . S
C603 C604 1.372 . S
C604 H563 0.930 . S
C604 C603 1.372 . S
C604 C605 1.397 . S
C605 C604 1.397 . S
C605 C606 1.390 . S
C605 C621 1.476 . S
C606 H564 0.930 . S
C606 C605 1.390 . S
C606 C607 1.366 . S
C607 H565 0.932 . S
C607 C602 1.360 . S
C607 C606 1.366 . S
C608 C582 1.490 . S
C608 C609 1.380 . S
C608 C613 1.386 . S
C609 H566 0.930 . S
C609 C608 1.380 . S
C609 C610 1.381 . S
C610 H567 0.929 . S
C610 C609 1.381 . S
C610 C611 1.371 . S
C611 C610 1.371 . S
C611 C612 1.380 . S
C612 H568 0.931 . S
C612 C611 1.380 . S
C612 C613 1.387 . S
C613 H569 0.930 . S
C613 C608 1.386 . S
C613 C612 1.387 . S
C614 C583 1.519 . S
C614 C615 1.377 . S
C614 C619 1.361 . S
C615 H570 0.929 . S
C615 C614 1.377 . S
C615 C616 1.386 . S
C616 H571 0.931 . S
C616 C615 1.386 . S
C616 C617 1.363 . S
C617 C616 1.363 . S
C617 C618 1.385 . S
C618 H572 0.930 . S
C618 C617 1.385 . S
C618 C619 1.396 . S
C619 H573 0.929 . S
C619 C614 1.361 . S
C619 C618 1.396 . S
C620 O574 1.300 . S
C620 O575 1.209 . S
C620 C593 1.486 1_554 S
C621 O576 1.199 . S
C621 O577 1.297 . S
C621 C605 1.476 . S
H622 O648 0.856 . S
H623 O651 0.854 . S
H624 C659 0.930 . S
H625 C660 0.930 . S
H626 C662 0.930 . S
H627 C663 0.930 . S
H628 C665 0.931 . S
H629 C666 0.930 1_554 S
H630 C668 0.930 . S
H631 C669 0.929 . S
H632 C671 0.930 . S
H633 C672 0.931 . S
H634 C674 0.930 . S
H635 C675 0.929 . S
H636 C677 0.931 . S
H637 C678 0.930 . S
H638 C680 0.930 . S
H639 C681 0.932 . S
H640 C683 0.930 . S
H641 C684 0.929 . S
H642 C686 0.931 . S
H643 C687 0.930 . S
H644 C689 0.929 . S
H645 C690 0.931 . S
H646 C692 0.930 . S
H647 C693 0.929 . S
O648 H622 0.856 . S
O648 C694 1.300 . S
O649 C694 1.209 . S
O650 C695 1.199 . S
O651 H623 0.854 . S
O651 C695 1.297 . S
C652 C653 1.404 . S
C652 C657 1.397 . S
C652 C658 1.492 . S
C653 C652 1.404 . S
C653 C654 1.396 . S
C653 C664 1.492 . S
C654 C653 1.396 . S
C654 C655 1.397 . S
C654 C670 1.509 . S
C655 C654 1.397 . S
C655 C656 1.412 . S
C655 C676 1.485 . S
C656 C655 1.412 . S
C656 C657 1.388 . S
C656 C682 1.490 . S
C657 C652 1.397 . S
C657 C656 1.388 . S
C657 C688 1.519 . S
C658 C652 1.492 . S
C658 C659 1.363 . S
C658 C663 1.390 . S
C659 H624 0.930 . S
C659 C658 1.363 . S
C659 C660 1.372 . S
C660 H625 0.930 . S
C660 C659 1.372 . S
C660 C661 1.383 . S
C661 C660 1.383 . S
C661 C662 1.395 . S
C662 H626 0.930 . S
C662 C661 1.395 . S
C662 C663 1.362 . S
C663 H627 0.930 . S
C663 C658 1.390 . S
C663 C662 1.362 . S
C664 C653 1.492 . S
C664 C665 1.377 . S
C664 C669 1.397 . S
C665 H628 0.931 . S
C665 C664 1.377 . S
C665 C666 1.376 . S
C666 H629 0.930 1_556 S
C666 C665 1.376 . S
C666 C667 1.376 1_556 S
C667 C666 1.376 1_554 S
C667 C668 1.378 1_554 S
C667 C694 1.486 . S
C668 H630 0.930 . S
C668 C667 1.378 1_556 S
C668 C669 1.376 . S
C669 H631 0.929 . S
C669 C664 1.397 . S
C669 C668 1.376 . S
C670 C654 1.509 . S
C670 C671 1.391 . S
C670 C675 1.386 . S
C671 H632 0.930 . S
C671 C670 1.391 . S
C671 C672 1.375 . S
C672 H633 0.931 . S
C672 C671 1.375 . S
C672 C673 1.375 . S
C673 C672 1.375 . S
C673 C674 1.361 . S
C674 H634 0.930 . S
C674 C673 1.361 . S
C674 C675 1.399 . S
C675 H635 0.929 . S
C675 C670 1.386 . S
C675 C674 1.399 . S
C676 C655 1.485 . S
C676 C677 1.394 . S
C676 C681 1.360 . S
C677 H636 0.931 . S
C677 C676 1.394 . S
C677 C678 1.372 . S
C678 H637 0.930 . S
C678 C677 1.372 . S
C678 C679 1.397 . S
C679 C678 1.397 . S
C679 C680 1.390 . S
C679 C695 1.476 . S
C680 H638 0.930 . S
C680 C679 1.390 . S
C680 C681 1.366 . S
C681 H639 0.932 . S
C681 C676 1.360 . S
C681 C680 1.366 . S
C682 C656 1.490 . S
C682 C683 1.380 . S
C682 C687 1.386 . S
C683 H640 0.930 . S
C683 C682 1.380 . S
C683 C684 1.381 . S
C684 H641 0.929 . S
C684 C683 1.381 . S
C684 C685 1.371 . S
C685 C684 1.371 . S
C685 C686 1.380 . S
C686 H642 0.931 . S
C686 C685 1.380 . S
C686 C687 1.387 . S
C687 H643 0.930 . S
C687 C682 1.386 . S
C687 C686 1.387 . S
C688 C657 1.519 . S
C688 C689 1.377 . S
C688 C693 1.361 . S
C689 H644 0.929 . S
C689 C688 1.377 . S
C689 C690 1.386 . S
C690 H645 0.931 . S
C690 C689 1.386 . S
C690 C691 1.363 . S
C691 C690 1.363 . S
C691 C692 1.385 . S
C692 H646 0.930 . S
C692 C691 1.385 . S
C692 C693 1.396 . S
C693 H647 0.929 . S
C693 C688 1.361 . S
C693 C692 1.396 . S
C694 O648 1.300 . S
C694 O649 1.209 . S
C694 C667 1.486 . S
C695 O650 1.199 . S
C695 O651 1.297 . S
C695 C679 1.476 . S
H696 O722 0.856 . S
H697 O725 0.854 . S
H698 C733 0.930 . S
H699 C734 0.930 . S
H700 C736 0.930 . S
H701 C737 0.930 . S
H702 C739 0.931 . S
H703 C740 0.930 . S
H704 C742 0.930 . S
H705 C743 0.929 . S
H706 C745 0.930 . S
H707 C746 0.931 . S
H708 C748 0.930 . S
H709 C749 0.929 . S
H710 C751 0.931 . S
H711 C752 0.930 . S
H712 C754 0.930 . S
H713 C755 0.932 . S
H714 C757 0.930 . S
H715 C758 0.929 . S
H716 C760 0.931 . S
H717 C761 0.930 . S
H718 C763 0.929 . S
H719 C764 0.931 . S
H720 C766 0.930 . S
H721 C767 0.929 . S
O722 H696 0.856 . S
O722 C768 1.300 . S
O723 C768 1.209 . S
O724 C769 1.199 . S
O725 H697 0.854 . S
O725 C769 1.297 . S
C726 C727 1.404 . S
C726 C731 1.397 . S
C726 C732 1.492 . S
C727 C726 1.404 . S
C727 C728 1.396 . S
C727 C738 1.492 . S
C728 C727 1.396 . S
C728 C729 1.397 . S
C728 C744 1.509 . S
C729 C728 1.397 . S
C729 C730 1.412 . S
C729 C750 1.485 . S
C730 C729 1.412 . S
C730 C731 1.388 . S
C730 C756 1.490 . S
C731 C726 1.397 . S
C731 C730 1.388 . S
C731 C762 1.519 . S
C732 C726 1.492 . S
C732 C733 1.363 . S
C732 C737 1.390 . S
C733 H698 0.930 . S
C733 C732 1.363 . S
C733 C734 1.372 . S
C734 H699 0.930 . S
C734 C733 1.372 . S
C734 C735 1.383 . S
C735 C734 1.383 . S
C735 C736 1.395 . S
C736 H700 0.930 . S
C736 C735 1.395 . S
C736 C737 1.362 . S
C737 H701 0.930 . S
C737 C732 1.390 . S
C737 C736 1.362 . S
C738 C727 1.492 . S
C738 C739 1.377 . S
C738 C743 1.397 . S
C739 H702 0.931 . S
C739 C738 1.377 . S
C739 C740 1.376 . S
C740 H703 0.930 . S
C740 C739 1.376 . S
C740 C741 1.376 . S
C741 C740 1.376 . S
C741 C742 1.378 . S
C741 C768 1.486 . S
C742 H704 0.930 . S
C742 C741 1.378 . S
C742 C743 1.376 . S
C743 H705 0.929 . S
C743 C738 1.397 . S
C743 C742 1.376 . S
C744 C728 1.509 . S
C744 C745 1.391 . S
C744 C749 1.386 . S
C745 H706 0.930 . S
C745 C744 1.391 . S
C745 C746 1.375 . S
C746 H707 0.931 . S
C746 C745 1.375 . S
C746 C747 1.375 . S
C747 C746 1.375 . S
C747 C748 1.361 . S
C748 H708 0.930 . S
C748 C747 1.361 . S
C748 C749 1.399 . S
C749 H709 0.929 . S
C749 C744 1.386 . S
C749 C748 1.399 . S
C750 C729 1.485 . S
C750 C751 1.394 . S
C750 C755 1.360 . S
C751 H710 0.931 . S
C751 C750 1.394 . S
C751 C752 1.372 . S
C752 H711 0.930 . S
C752 C751 1.372 . S
C752 C753 1.397 . S
C753 C752 1.397 . S
C753 C754 1.390 . S
C753 C769 1.476 . S
C754 H712 0.930 . S
C754 C753 1.390 . S
C754 C755 1.366 . S
C755 H713 0.932 . S
C755 C750 1.360 . S
C755 C754 1.366 . S
C756 C730 1.490 . S
C756 C757 1.380 . S
C756 C761 1.386 . S
C757 H714 0.930 . S
C757 C756 1.380 . S
C757 C758 1.381 . S
C758 H715 0.929 . S
C758 C757 1.381 . S
C758 C759 1.371 . S
C759 C758 1.371 . S
C759 C760 1.380 . S
C760 H716 0.931 . S
C760 C759 1.380 . S
C760 C761 1.387 . S
C761 H717 0.930 . S
C761 C756 1.386 . S
C761 C760 1.387 . S
C762 C731 1.519 . S
C762 C763 1.377 . S
C762 C767 1.361 . S
C763 H718 0.929 . S
C763 C762 1.377 . S
C763 C764 1.386 . S
C764 H719 0.931 . S
C764 C763 1.386 . S
C764 C765 1.363 . S
C765 C764 1.363 . S
C765 C766 1.385 . S
C766 H720 0.930 . S
C766 C765 1.385 . S
C766 C767 1.396 . S
C767 H721 0.929 . S
C767 C762 1.361 . S
C767 C766 1.396 . S
C768 O722 1.300 . S
C768 O723 1.209 . S
C768 C741 1.486 . S
C769 O724 1.199 . S
C769 O725 1.297 . S
C769 C753 1.476 . S
H770 O796 0.856 . S
H771 O799 0.854 . S
H772 C807 0.930 . S
H773 C808 0.930 . S
H774 C810 0.930 . S
H775 C811 0.930 . S
H776 C813 0.931 . S
H777 C814 0.930 . S
H778 C816 0.930 . S
H779 C817 0.929 . S
H780 C819 0.930 . S
H781 C820 0.931 . S
H782 C822 0.930 . S
H783 C823 0.929 . S
H784 C825 0.931 . S
H785 C826 0.930 . S
H786 C828 0.930 . S
H787 C829 0.932 . S
H788 C831 0.930 . S
H789 C832 0.929 . S
H790 C834 0.931 . S
H791 C835 0.930 . S
H792 C837 0.929 . S
H793 C838 0.931 . S
H794 C840 0.930 . S
H795 C841 0.929 . S
O796 H770 0.856 . S
O796 C842 1.300 . S
O797 C842 1.209 . S
O798 C843 1.199 . S
O799 H771 0.854 . S
O799 C843 1.297 . S
C800 C801 1.404 . S
C800 C805 1.397 . S
C800 C806 1.492 . S
C801 C800 1.404 . S
C801 C802 1.396 . S
C801 C812 1.492 . S
C802 C801 1.396 . S
C802 C803 1.397 . S
C802 C818 1.509 . S
C803 C802 1.397 . S
C803 C804 1.412 . S
C803 C824 1.485 . S
C804 C803 1.412 . S
C804 C805 1.388 . S
C804 C830 1.490 . S
C805 C800 1.397 . S
C805 C804 1.388 . S
C805 C836 1.519 . S
C806 C800 1.492 . S
C806 C807 1.363 . S
C806 C811 1.390 . S
C807 H772 0.930 . S
C807 C806 1.363 . S
C807 C808 1.372 . S
C808 H773 0.930 . S
C808 C807 1.372 . S
C808 C809 1.383 . S
C809 C808 1.383 . S
C809 C810 1.395 . S
C810 H774 0.930 . S
C810 C809 1.395 . S
C810 C811 1.362 . S
C811 H775 0.930 . S
C811 C806 1.390 . S
C811 C810 1.362 . S
C812 C801 1.492 . S
C812 C813 1.377 . S
C812 C817 1.397 . S
C813 H776 0.931 . S
C813 C812 1.377 . S
C813 C814 1.376 . S
C814 H777 0.930 . S
C814 C813 1.376 . S
C814 C815 1.376 . S
C815 C814 1.376 . S
C815 C816 1.378 . S
C815 C842 1.486 . S
C816 H778 0.930 . S
C816 C815 1.378 . S
C816 C817 1.376 . S
C817 H779 0.929 . S
C817 C812 1.397 . S
C817 C816 1.376 . S
C818 C802 1.509 . S
C818 C819 1.391 . S
C818 C823 1.386 . S
C819 H780 0.930 . S
C819 C818 1.391 . S
C819 C820 1.375 . S
C820 H781 0.931 . S
C820 C819 1.375 . S
C820 C821 1.375 . S
C821 C820 1.375 . S
C821 C822 1.361 . S
C822 H782 0.930 . S
C822 C821 1.361 . S
C822 C823 1.399 . S
C823 H783 0.929 . S
C823 C818 1.386 . S
C823 C822 1.399 . S
C824 C803 1.485 . S
C824 C825 1.394 . S
C824 C829 1.360 . S
C825 H784 0.931 . S
C825 C824 1.394 . S
C825 C826 1.372 . S
C826 H785 0.930 . S
C826 C825 1.372 . S
C826 C827 1.397 . S
C827 C826 1.397 . S
C827 C828 1.390 . S
C827 C843 1.476 . S
C828 H786 0.930 . S
C828 C827 1.390 . S
C828 C829 1.366 . S
C829 H787 0.932 . S
C829 C824 1.360 . S
C829 C828 1.366 . S
C830 C804 1.490 . S
C830 C831 1.380 . S
C830 C835 1.386 . S
C831 H788 0.930 . S
C831 C830 1.380 . S
C831 C832 1.381 . S
C832 H789 0.929 . S
C832 C831 1.381 . S
C832 C833 1.371 . S
C833 C832 1.371 . S
C833 C834 1.380 . S
C834 H790 0.931 . S
C834 C833 1.380 . S
C834 C835 1.387 . S
C835 H791 0.930 . S
C835 C830 1.386 . S
C835 C834 1.387 . S
C836 C805 1.519 . S
C836 C837 1.377 . S
C836 C841 1.361 . S
C837 H792 0.929 . S
C837 C836 1.377 . S
C837 C838 1.386 . S
C838 H793 0.931 . S
C838 C837 1.386 . S
C838 C839 1.363 . S
C839 C838 1.363 . S
C839 C840 1.385 . S
C840 H794 0.930 . S
C840 C839 1.385 . S
C840 C841 1.396 . S
C841 H795 0.929 . S
C841 C836 1.361 . S
C841 C840 1.396 . S
C842 O796 1.300 . S
C842 O797 1.209 . S
C842 C815 1.486 . S
C843 O798 1.199 . S
C843 O799 1.297 . S
C843 C827 1.476 . S
H844 O870 0.856 . S
H845 O873 0.854 . S
H846 C881 0.930 . S
H847 C882 0.930 . S
H848 C884 0.930 . S
H849 C885 0.930 . S
H850 C887 0.931 . S
H851 C888 0.930 . S
H852 C890 0.930 . S
H853 C891 0.929 . S
H854 C893 0.930 . S
H855 C894 0.931 . S
H856 C896 0.930 . S
H857 C897 0.929 . S
H858 C899 0.931 . S
H859 C900 0.930 . S
H860 C902 0.930 . S
H861 C903 0.932 . S
H862 C905 0.930 . S
H863 C906 0.929 . S
H864 C908 0.931 . S
H865 C909 0.930 . S
H866 C911 0.929 . S
H867 C912 0.931 . S
H868 C914 0.930 . S
H869 C915 0.929 . S
O870 H844 0.856 . S
O870 C916 1.300 . S
O871 C916 1.209 . S
O872 C917 1.199 . S
O873 H845 0.854 . S
O873 C917 1.297 . S
C874 C875 1.404 . S
C874 C879 1.397 . S
C874 C880 1.492 . S
C875 C874 1.404 . S
C875 C876 1.396 . S
C875 C886 1.492 . S
C876 C875 1.396 . S
C876 C877 1.397 . S
C876 C892 1.509 . S
C877 C876 1.397 . S
C877 C878 1.412 . S
C877 C898 1.485 . S
C878 C877 1.412 . S
C878 C879 1.388 . S
C878 C904 1.490 . S
C879 C874 1.397 . S
C879 C878 1.388 . S
C879 C910 1.519 . S
C880 C874 1.492 . S
C880 C881 1.363 . S
C880 C885 1.390 . S
C881 H846 0.930 . S
C881 C880 1.363 . S
C881 C882 1.372 . S
C882 H847 0.930 . S
C882 C881 1.372 . S
C882 C883 1.383 . S
C883 C882 1.383 . S
C883 C884 1.395 . S
C884 H848 0.930 . S
C884 C883 1.395 . S
C884 C885 1.362 . S
C885 H849 0.930 . S
C885 C880 1.390 . S
C885 C884 1.362 . S
C886 C875 1.492 . S
C886 C887 1.377 . S
C886 C891 1.397 . S
C887 H850 0.931 . S
C887 C886 1.377 . S
C887 C888 1.376 . S
C888 H851 0.930 . S
C888 C887 1.376 . S
C888 C889 1.376 . S
C889 C888 1.376 . S
C889 C890 1.378 . S
C889 C916 1.486 . S
C890 H852 0.930 . S
C890 C889 1.378 . S
C890 C891 1.376 . S
C891 H853 0.929 . S
C891 C886 1.397 . S
C891 C890 1.376 . S
C892 C876 1.509 . S
C892 C893 1.391 . S
C892 C897 1.386 . S
C893 H854 0.930 . S
C893 C892 1.391 . S
C893 C894 1.375 . S
C894 H855 0.931 . S
C894 C893 1.375 . S
C894 C895 1.375 . S
C895 C894 1.375 . S
C895 C896 1.361 . S
C896 H856 0.930 . S
C896 C895 1.361 . S
C896 C897 1.399 . S
C897 H857 0.929 . S
C897 C892 1.386 . S
C897 C896 1.399 . S
C898 C877 1.485 . S
C898 C899 1.394 . S
C898 C903 1.360 . S
C899 H858 0.931 . S
C899 C898 1.394 . S
C899 C900 1.372 . S
C900 H859 0.930 . S
C900 C899 1.372 . S
C900 C901 1.397 . S
C901 C900 1.397 . S
C901 C902 1.390 . S
C901 C917 1.476 . S
C902 H860 0.930 . S
C902 C901 1.390 . S
C902 C903 1.366 . S
C903 H861 0.932 . S
C903 C898 1.360 . S
C903 C902 1.366 . S
C904 C878 1.490 . S
C904 C905 1.380 . S
C904 C909 1.386 . S
C905 H862 0.930 . S
C905 C904 1.380 . S
C905 C906 1.381 . S
C906 H863 0.929 . S
C906 C905 1.381 . S
C906 C907 1.371 . S
C907 C906 1.371 . S
C907 C908 1.380 . S
C908 H864 0.931 . S
C908 C907 1.380 . S
C908 C909 1.387 . S
C909 H865 0.930 . S
C909 C904 1.386 . S
C909 C908 1.387 . S
C910 C879 1.519 . S
C910 C911 1.377 . S
C910 C915 1.361 . S
C911 H866 0.929 . S
C911 C910 1.377 . S
C911 C912 1.386 . S
C912 H867 0.931 . S
C912 C911 1.386 . S
C912 C913 1.363 . S
C913 C912 1.363 . S
C913 C914 1.385 . S
C914 H868 0.930 . S
C914 C913 1.385 . S
C914 C915 1.396 . S
C915 H869 0.929 . S
C915 C910 1.361 . S
C915 C914 1.396 . S
C916 O870 1.300 . S
C916 O871 1.209 . S
C916 C889 1.486 . S
C917 O872 1.199 . S
C917 O873 1.297 . S
C917 C901 1.476 . S
H918 O944 0.856 . S
H919 O947 0.854 . S
H920 C955 0.930 . S
H921 C956 0.930 . S
H922 C958 0.930 . S
H923 C959 0.930 . S
H924 C961 0.931 . S
H925 C962 0.930 1_655 S
H926 C964 0.930 . S
H927 C965 0.929 . S
H928 C967 0.930 . S
H929 C968 0.911 1_655 S
H930 C970 0.930 . S
H931 C971 0.929 . S
H932 C973 0.931 . S
H933 C974 0.930 . S
H934 C976 0.930 . S
H935 C977 0.932 . S
H936 C979 0.930 . S
H937 C980 0.929 . S
H938 C982 0.931 . S
H939 C983 0.930 . S
H940 C985 0.929 . S
H941 C986 0.931 . S
H942 C988 0.930 . S
H943 C989 0.929 . S
O944 H918 0.856 . S
O944 C990 1.300 . S
O945 C990 1.209 . S
O946 C991 1.199 1_655 S
O947 H919 0.854 . S
O947 C991 1.297 . S
C948 C949 1.404 . S
C948 C953 1.394 . S
C948 C954 1.492 . S
C949 C948 1.404 . S
C949 C950 1.396 . S
C949 C960 1.492 . S
C950 C949 1.396 . S
C950 C951 1.397 . S
C950 C966 1.509 . S
C951 C950 1.397 . S
C951 C952 1.421 . S
C951 C972 1.485 . S
C952 C951 1.421 . S
C952 C953 1.406 . S
C952 C978 1.490 1_455 S
C953 C948 1.394 . S
C953 C952 1.406 . S
C953 C984 1.488 1_455 S
C954 C948 1.492 . S
C954 C955 1.363 1_455 S
C954 C959 1.390 . S
C955 H920 0.930 . S
C955 C954 1.363 1_655 S
C955 C956 1.372 . S
C956 H921 0.930 . S
C956 C955 1.372 . S
C956 C957 1.383 . S
C957 C956 1.383 . S
C957 C958 1.395 1_655 S
C958 H922 0.930 . S
C958 C957 1.395 1_455 S
C958 C959 1.362 . S
C959 H923 0.930 . S
C959 C954 1.390 . S
C959 C958 1.362 . S
C960 C949 1.492 . S
C960 C961 1.377 1_455 S
C960 C965 1.397 . S
C961 H924 0.931 . S
C961 C960 1.377 1_655 S
C961 C962 1.376 1_655 S
C962 H925 0.930 1_455 S
C962 C961 1.376 1_455 S
C962 C963 1.376 . S
C963 C962 1.376 . S
C963 C964 1.378 . S
C963 C990 1.486 . S
C964 H926 0.930 . S
C964 C963 1.378 . S
C964 C965 1.376 . S
C965 H927 0.929 . S
C965 C960 1.397 . S
C965 C964 1.376 . S
C966 C950 1.509 . S
C966 C967 1.391 1_455 S
C966 C971 1.386 . S
C967 H928 0.930 . S
C967 C966 1.391 1_655 S
C967 C968 1.348 1_655 S
C968 H929 0.911 1_455 S
C968 C967 1.348 1_455 S
C968 C969 1.425 . S
C969 C968 1.425 . S
C969 C970 1.361 . S
C970 H930 0.930 . S
C970 C969 1.361 . S
C970 C971 1.399 . S
C971 H931 0.929 . S
C971 C966 1.386 . S
C971 C970 1.399 . S
C972 C951 1.485 . S
C972 C973 1.394 1_455 S
C972 C977 1.360 . S
C973 H932 0.931 . S
C973 C972 1.394 1_655 S
C973 C974 1.372 . S
C974 H933 0.930 . S
C974 C973 1.372 . S
C974 C975 1.397 1_655 S
C975 C974 1.397 1_455 S
C975 C976 1.390 . S
C975 C991 1.476 . S
C976 H934 0.930 . S
C976 C975 1.390 . S
C976 C977 1.366 . S
C977 H935 0.932 . S
C977 C972 1.360 . S
C977 C976 1.366 . S
C978 C952 1.490 1_655 S
C978 C979 1.380 . S
C978 C983 1.386 1_655 S
C979 H936 0.930 . S
C979 C978 1.380 . S
C979 C980 1.381 . S
C980 H937 0.929 . S
C980 C979 1.381 . S
C980 C981 1.371 . S
C981 C980 1.371 . S
C981 C982 1.380 1_655 S
C982 H938 0.931 . S
C982 C981 1.380 1_455 S
C982 C983 1.387 . S
C983 H939 0.930 . S
C983 C978 1.386 1_455 S
C983 C982 1.387 . S
C984 C953 1.488 1_655 S
C984 C985 1.413 . S
C984 C989 1.337 1_655 S
C985 H940 0.929 . S
C985 C984 1.413 . S
C985 C986 1.386 . S
C986 H941 0.931 . S
C986 C985 1.386 . S
C986 C987 1.385 . S
C987 C986 1.385 . S
C987 C988 1.353 1_655 S
C988 H942 0.930 . S
C988 C987 1.353 1_455 S
C988 C989 1.396 . S
C989 H943 0.929 . S
C989 C984 1.337 1_455 S
C989 C988 1.396 . S
C990 O944 1.300 . S
C990 O945 1.209 . S
C990 C963 1.486 . S
C991 O946 1.199 1_455 S
C991 O947 1.297 . S
C991 C975 1.476 . S
H992 O1018 0.856 . S
H993 O1021 0.854 . S
H994 C1029 0.930 . S
H995 C1030 0.930 . S
H996 C1032 0.930 . S
H997 C1033 0.930 . S
H998 C1035 0.931 . S
H999 C1036 0.930 . S
H1000 C1038 0.930 . S
H1001 C1039 0.929 . S
H1002 C1041 0.930 . S
H1003 C1042 0.931 . S
H1004 C1044 0.930 . S
H1005 C1045 0.929 . S
H1006 C1047 0.931 . S
H1007 C1048 0.930 . S
H1008 C1050 0.930 . S
H1009 C1051 0.932 . S
H1010 C1053 0.930 . S
H1011 C1054 0.929 . S
H1012 C1056 0.931 . S
H1013 C1057 0.930 . S
H1014 C1059 0.929 . S
H1015 C1060 0.931 . S
H1016 C1062 0.930 . S
H1017 C1063 0.929 . S
O1018 H992 0.856 . S
O1018 C1064 1.300 . S
O1019 C1064 1.209 . S
O1020 C1065 1.199 . S
O1021 H993 0.854 . S
O1021 C1065 1.297 . S
C1022 C1023 1.404 . S
C1022 C1027 1.397 . S
C1022 C1028 1.492 . S
C1023 C1022 1.404 . S
C1023 C1024 1.396 . S
C1023 C1034 1.492 . S
C1024 C1023 1.396 . S
C1024 C1025 1.397 . S
C1024 C1040 1.509 . S
C1025 C1024 1.397 . S
C1025 C1026 1.412 . S
C1025 C1046 1.485 . S
C1026 C1025 1.412 . S
C1026 C1027 1.388 . S
C1026 C1052 1.490 . S
C1027 C1022 1.397 . S
C1027 C1026 1.388 . S
C1027 C1058 1.519 . S
C1028 C1022 1.492 . S
C1028 C1029 1.363 . S
C1028 C1033 1.390 . S
C1029 H994 0.930 . S
C1029 C1028 1.363 . S
C1029 C1030 1.372 . S
C1030 H995 0.930 . S
C1030 C1029 1.372 . S
C1030 C1031 1.383 . S
C1031 C1030 1.383 . S
C1031 C1032 1.395 . S
C1032 H996 0.930 . S
C1032 C1031 1.395 . S
C1032 C1033 1.362 . S
C1033 H997 0.930 . S
C1033 C1028 1.390 . S
C1033 C1032 1.362 . S
C1034 C1023 1.492 . S
C1034 C1035 1.377 . S
C1034 C1039 1.397 . S
C1035 H998 0.931 . S
C1035 C1034 1.377 . S
C1035 C1036 1.376 . S
C1036 H999 0.930 . S
C1036 C1035 1.376 . S
C1036 C1037 1.376 . S
C1037 C1036 1.376 . S
C1037 C1038 1.378 . S
C1037 C1064 1.486 . S
C1038 H1000 0.930 . S
C1038 C1037 1.378 . S
C1038 C1039 1.376 . S
C1039 H1001 0.929 . S
C1039 C1034 1.397 . S
C1039 C1038 1.376 . S
C1040 C1024 1.509 . S
C1040 C1041 1.391 . S
C1040 C1045 1.386 . S
C1041 H1002 0.930 . S
C1041 C1040 1.391 . S
C1041 C1042 1.375 . S
C1042 H1003 0.931 . S
C1042 C1041 1.375 . S
C1042 C1043 1.375 . S
C1043 C1042 1.375 . S
C1043 C1044 1.361 . S
C1044 H1004 0.930 . S
C1044 C1043 1.361 . S
C1044 C1045 1.399 . S
C1045 H1005 0.929 . S
C1045 C1040 1.386 . S
C1045 C1044 1.399 . S
C1046 C1025 1.485 . S
C1046 C1047 1.394 . S
C1046 C1051 1.360 . S
C1047 H1006 0.931 . S
C1047 C1046 1.394 . S
C1047 C1048 1.372 . S
C1048 H1007 0.930 . S
C1048 C1047 1.372 . S
C1048 C1049 1.397 . S
C1049 C1048 1.397 . S
C1049 C1050 1.390 . S
C1049 C1065 1.476 . S
C1050 H1008 0.930 . S
C1050 C1049 1.390 . S
C1050 C1051 1.366 . S
C1051 H1009 0.932 . S
C1051 C1046 1.360 . S
C1051 C1050 1.366 . S
C1052 C1026 1.490 . S
C1052 C1053 1.380 . S
C1052 C1057 1.386 . S
C1053 H1010 0.930 . S
C1053 C1052 1.380 . S
C1053 C1054 1.381 . S
C1054 H1011 0.929 . S
C1054 C1053 1.381 . S
C1054 C1055 1.371 . S
C1055 C1054 1.371 . S
C1055 C1056 1.380 . S
C1056 H1012 0.931 . S
C1056 C1055 1.380 . S
C1056 C1057 1.387 . S
C1057 H1013 0.930 . S
C1057 C1052 1.386 . S
C1057 C1056 1.387 . S
C1058 C1027 1.519 . S
C1058 C1059 1.377 . S
C1058 C1063 1.361 . S
C1059 H1014 0.929 . S
C1059 C1058 1.377 . S
C1059 C1060 1.386 . S
C1060 H1015 0.931 . S
C1060 C1059 1.386 . S
C1060 C1061 1.363 . S
C1061 C1060 1.363 . S
C1061 C1062 1.385 . S
C1062 H1016 0.930 . S
C1062 C1061 1.385 . S
C1062 C1063 1.396 . S
C1063 H1017 0.929 . S
C1063 C1058 1.361 . S
C1063 C1062 1.396 . S
C1064 O1018 1.300 . S
C1064 O1019 1.209 . S
C1064 C1037 1.486 . S
C1065 O1020 1.199 . S
C1065 O1021 1.297 . S
C1065 C1049 1.476 . S
H1066 O1092 0.856 . S
H1067 O1095 0.854 . S
H1068 C1103 0.930 . S
H1069 C1104 0.930 . S
H1070 C1106 0.930 . S
H1071 C1107 0.930 . S
H1072 C1109 0.931 . S
H1073 C1110 0.968 . S
H1074 C1112 0.930 . S
H1075 C1113 0.929 . S
H1076 C1115 0.930 . S
H1077 C1116 0.931 . S
H1078 C1118 0.930 . S
H1079 C1119 0.929 . S
H1080 C1121 0.931 . S
H1081 C1122 0.930 . S
H1082 C1124 0.930 . S
H1083 C1125 0.932 . S
H1084 C1127 0.930 . S
H1085 C1128 0.929 . S
H1086 C1130 0.931 . S
H1087 C1131 0.930 . S
H1088 C1133 0.929 . S
H1089 C1134 0.931 . S
H1090 C1136 0.930 . S
H1091 C1137 0.929 . S
O1092 H1066 0.856 . S
O1092 C1138 1.300 . S
O1093 C1138 1.209 . S
O1094 C1139 1.199 1_545 S
O1095 H1067 0.854 . S
O1095 C1139 1.297 . S
C1096 C1097 1.404 . S
C1096 C1101 1.413 . S
C1096 C1102 1.492 . S
C1097 C1096 1.404 . S
C1097 C1098 1.396 . S
C1097 C1108 1.492 . S
C1098 C1097 1.396 . S
C1098 C1099 1.397 . S
C1098 C1114 1.509 . S
C1099 C1098 1.397 . S
C1099 C1100 1.409 . S
C1099 C1120 1.485 . S
C1100 C1099 1.409 . S
C1100 C1101 1.372 . S
C1100 C1126 1.485 1_565 S
C1101 C1096 1.413 . S
C1101 C1100 1.372 . S
C1101 C1132 1.533 1_565 S
C1102 C1096 1.492 . S
C1102 C1103 1.363 1_565 S
C1102 C1107 1.390 . S
C1103 H1068 0.930 . S
C1103 C1102 1.363 1_545 S
C1103 C1104 1.372 . S
C1104 H1069 0.930 . S
C1104 C1103 1.372 . S
C1104 C1105 1.383 . S
C1105 C1104 1.383 . S
C1105 C1106 1.395 1_545 S
C1106 H1070 0.930 . S
C1106 C1105 1.395 1_565 S
C1106 C1107 1.362 . S
C1107 H1071 0.930 . S
C1107 C1102 1.390 . S
C1107 C1106 1.362 . S
C1108 C1097 1.492 . S
C1108 C1109 1.377 1_565 S
C1108 C1113 1.397 . S
C1109 H1072 0.931 . S
C1109 C1108 1.377 1_545 S
C1109 C1110 1.396 . S
C1110 H1073 0.968 . S
C1110 C1109 1.396 . S
C1110 C1111 1.320 1_545 S
C1111 C1110 1.320 1_565 S
C1111 C1112 1.378 . S
C1111 C1138 1.486 . S
C1112 H1074 0.930 . S
C1112 C1111 1.378 . S
C1112 C1113 1.376 . S
C1113 H1075 0.929 . S
C1113 C1108 1.397 . S
C1113 C1112 1.376 . S
C1114 C1098 1.509 . S
C1114 C1115 1.391 1_565 S
C1114 C1119 1.386 . S
C1115 H1076 0.930 . S
C1115 C1114 1.391 1_545 S
C1115 C1116 1.375 . S
C1116 H1077 0.931 . S
C1116 C1115 1.375 . S
C1116 C1117 1.375 1_545 S
C1117 C1116 1.375 1_565 S
C1117 C1118 1.361 . S
C1118 H1078 0.930 . S
C1118 C1117 1.361 . S
C1118 C1119 1.399 . S
C1119 H1079 0.929 . S
C1119 C1114 1.386 . S
C1119 C1118 1.399 . S
C1120 C1099 1.485 . S
C1120 C1121 1.394 1_565 S
C1120 C1125 1.360 . S
C1121 H1080 0.931 . S
C1121 C1120 1.394 1_545 S
C1121 C1122 1.372 . S
C1122 H1081 0.930 . S
C1122 C1121 1.372 . S
C1122 C1123 1.397 1_545 S
C1123 C1122 1.397 1_565 S
C1123 C1124 1.390 . S
C1123 C1139 1.476 . S
C1124 H1082 0.930 . S
C1124 C1123 1.390 . S
C1124 C1125 1.366 . S
C1125 H1083 0.932 . S
C1125 C1120 1.360 . S
C1125 C1124 1.366 . S
C1126 C1100 1.485 1_545 S
C1126 C1127 1.380 . S
C1126 C1131 1.386 1_545 S
C1127 H1084 0.930 . S
C1127 C1126 1.380 . S
C1127 C1128 1.381 . S
C1128 H1085 0.929 . S
C1128 C1127 1.381 . S
C1128 C1129 1.371 . S
C1129 C1128 1.371 . S
C1129 C1130 1.380 1_545 S
C1130 H1086 0.931 . S
C1130 C1129 1.380 1_565 S
C1130 C1131 1.387 . S
C1131 H1087 0.930 . S
C1131 C1126 1.386 1_565 S
C1131 C1130 1.387 . S
C1132 C1101 1.533 1_545 S
C1132 C1133 1.377 . S
C1132 C1137 1.360 1_545 S
C1133 H1088 0.929 . S
C1133 C1132 1.377 . S
C1133 C1134 1.386 . S
C1134 H1089 0.931 . S
C1134 C1133 1.386 . S
C1134 C1135 1.363 1_545 S
C1135 C1134 1.363 1_565 S
C1135 C1136 1.385 . S
C1136 H1090 0.930 . S
C1136 C1135 1.385 . S
C1136 C1137 1.396 . S
C1137 H1091 0.929 . S
C1137 C1132 1.360 1_565 S
C1137 C1136 1.396 . S
C1138 O1092 1.300 . S
C1138 O1093 1.209 . S
C1138 C1111 1.486 . S
C1139 O1094 1.199 1_565 S
C1139 O1095 1.297 . S
C1139 C1123 1.476 . S
H1140 O1166 0.856 . S
H1141 O1169 0.854 . S
H1142 C1177 0.930 . S
H1143 C1178 0.930 . S
H1144 C1180 0.930 . S
H1145 C1181 0.930 . S
H1146 C1183 0.931 . S
H1147 C1184 0.930 . S
H1148 C1186 0.930 . S
H1149 C1187 0.929 . S
H1150 C1189 0.930 . S
H1151 C1190 0.931 . S
H1152 C1192 0.930 . S
H1153 C1193 0.929 . S
H1154 C1195 0.931 . S
H1155 C1196 0.930 . S
H1156 C1198 0.930 . S
H1157 C1199 0.932 . S
H1158 C1201 0.930 . S
H1159 C1202 0.929 . S
H1160 C1204 0.931 . S
H1161 C1205 0.930 . S
H1162 C1207 0.929 . S
H1163 C1208 0.931 . S
H1164 C1210 0.930 . S
H1165 C1211 0.929 . S
O1166 H1140 0.856 . S
O1166 C1212 1.300 . S
O1167 C1212 1.209 1_565 S
O1168 C1213 1.199 1_545 S
O1169 H1141 0.854 . S
O1169 C1213 1.297 . S
C1170 C1171 1.404 . S
C1170 C1175 1.397 1_545 S
C1170 C1176 1.492 . S
C1171 C1170 1.404 . S
C1171 C1172 1.396 . S
C1171 C1182 1.492 . S
C1172 C1171 1.396 . S
C1172 C1173 1.394 1_545 S
C1172 C1188 1.509 . S
C1173 C1172 1.394 1_565 S
C1173 C1174 1.420 . S
C1173 C1194 1.491 . S
C1174 C1173 1.420 . S
C1174 C1175 1.371 . S
C1174 C1200 1.487 . S
C1175 C1170 1.397 1_565 S
C1175 C1174 1.371 . S
C1175 C1206 1.519 . S
C1176 C1170 1.492 . S
C1176 C1177 1.363 . S
C1176 C1181 1.390 1_545 S
C1177 H1142 0.930 . S
C1177 C1176 1.363 . S
C1177 C1178 1.372 . S
C1178 H1143 0.930 . S
C1178 C1177 1.372 . S
C1178 C1179 1.383 . S
C1179 C1178 1.383 . S
C1179 C1180 1.395 1_545 S
C1180 H1144 0.930 . S
C1180 C1179 1.395 1_565 S
C1180 C1181 1.362 . S
C1181 H1145 0.930 . S
C1181 C1176 1.390 1_565 S
C1181 C1180 1.362 . S
C1182 C1171 1.492 . S
C1182 C1183 1.377 . S
C1182 C1187 1.397 1_545 S
C1183 H1146 0.931 . S
C1183 C1182 1.377 . S
C1183 C1184 1.376 . S
C1184 H1147 0.930 . S
C1184 C1183 1.376 . S
C1184 C1185 1.376 . S
C1185 C1184 1.376 . S
C1185 C1186 1.378 1_545 S
C1185 C1212 1.486 . S
C1186 H1148 0.930 . S
C1186 C1185 1.378 1_565 S
C1186 C1187 1.376 . S
C1187 H1149 0.929 . S
C1187 C1182 1.397 1_565 S
C1187 C1186 1.376 . S
C1188 C1172 1.509 . S
C1188 C1189 1.391 . S
C1188 C1193 1.386 1_545 S
C1189 H1150 0.930 . S
C1189 C1188 1.391 . S
C1189 C1190 1.375 . S
C1190 H1151 0.931 . S
C1190 C1189 1.375 . S
C1190 C1191 1.375 . S
C1191 C1190 1.375 . S
C1191 C1192 1.361 1_545 S
C1192 H1152 0.930 . S
C1192 C1191 1.361 1_565 S
C1192 C1193 1.399 . S
C1193 H1153 0.929 . S
C1193 C1188 1.386 1_565 S
C1193 C1192 1.399 . S
C1194 C1173 1.491 . S
C1194 C1195 1.394 1_565 S
C1194 C1199 1.360 . S
C1195 H1154 0.931 . S
C1195 C1194 1.394 1_545 S
C1195 C1196 1.372 . S
C1196 H1155 0.930 . S
C1196 C1195 1.372 . S
C1196 C1197 1.397 1_545 S
C1197 C1196 1.397 1_565 S
C1197 C1198 1.390 . S
C1197 C1213 1.476 . S
C1198 H1156 0.930 . S
C1198 C1197 1.390 . S
C1198 C1199 1.366 . S
C1199 H1157 0.932 . S
C1199 C1194 1.360 . S
C1199 C1198 1.366 . S
C1200 C1174 1.487 . S
C1200 C1201 1.342 1_565 S
C1200 C1205 1.434 . S
C1201 H1158 0.930 . S
C1201 C1200 1.342 1_545 S
C1201 C1202 1.381 . S
C1202 H1159 0.929 . S
C1202 C1201 1.381 . S
C1202 C1203 1.383 . S
C1203 C1202 1.383 . S
C1203 C1204 1.370 1_545 S
C1204 H1160 0.931 . S
C1204 C1203 1.370 1_565 S
C1204 C1205 1.387 . S
C1205 H1161 0.930 . S
C1205 C1200 1.434 . S
C1205 C1204 1.387 . S
C1206 C1175 1.519 . S
C1206 C1207 1.377 1_565 S
C1206 C1211 1.361 . S
C1207 H1162 0.929 . S
C1207 C1206 1.377 1_545 S
C1207 C1208 1.386 . S
C1208 H1163 0.931 . S
C1208 C1207 1.386 . S
C1208 C1209 1.363 1_545 S
C1209 C1208 1.363 1_565 S
C1209 C1210 1.385 . S
C1210 H1164 0.930 . S
C1210 C1209 1.385 . S
C1210 C1211 1.396 . S
C1211 H1165 0.929 . S
C1211 C1206 1.361 . S
C1211 C1210 1.396 . S
C1212 O1166 1.300 . S
C1212 O1167 1.209 1_545 S
C1212 C1185 1.486 . S
C1213 O1168 1.199 1_565 S
C1213 O1169 1.297 . S
C1213 C1197 1.476 . S
H1214 O1240 0.856 . S
H1215 O1243 0.854 . S
H1216 C1251 0.930 . S
H1217 C1252 0.930 . S
H1218 C1254 0.930 . S
H1219 C1255 0.930 . S
H1220 C1257 0.931 . S
H1221 C1258 0.930 . S
H1222 C1260 0.930 . S
H1223 C1261 0.929 . S
H1224 C1263 0.930 . S
H1225 C1264 0.931 . S
H1226 C1266 0.930 . S
H1227 C1267 0.929 . S
H1228 C1269 0.931 . S
H1229 C1270 0.930 . S
H1230 C1272 0.930 . S
H1231 C1273 0.932 . S
H1232 C1275 0.930 . S
H1233 C1276 0.929 . S
H1234 C1278 0.931 . S
H1235 C1279 0.930 . S
H1236 C1281 0.929 . S
H1237 C1282 0.931 . S
H1238 C1284 0.930 . S
H1239 C1285 0.929 . S
O1240 H1214 0.856 . S
O1240 C1286 1.300 . S
O1241 C1286 1.209 1_455 S
O1242 C1287 1.199 1_655 S
O1243 H1215 0.854 . S
O1243 C1287 1.297 . S
C1244 C1245 1.404 . S
C1244 C1249 1.396 1_655 S
C1244 C1250 1.492 . S
C1245 C1244 1.404 . S
C1245 C1246 1.396 . S
C1245 C1256 1.492 . S
C1246 C1245 1.396 . S
C1246 C1247 1.398 . S
C1246 C1262 1.509 . S
C1247 C1246 1.398 . S
C1247 C1248 1.398 1_655 S
C1247 C1268 1.484 1_655 S
C1248 C1247 1.398 1_455 S
C1248 C1249 1.413 . S
C1248 C1274 1.484 . S
C1249 C1244 1.396 1_455 S
C1249 C1248 1.413 . S
C1249 C1280 1.517 . S
C1250 C1244 1.492 . S
C1250 C1251 1.363 . S
C1250 C1255 1.390 1_655 S
C1251 H1216 0.930 . S
C1251 C1250 1.363 . S
C1251 C1252 1.372 . S
C1252 H1217 0.930 . S
C1252 C1251 1.372 . S
C1252 C1253 1.383 . S
C1253 C1252 1.383 . S
C1253 C1254 1.395 1_655 S
C1254 H1218 0.930 . S
C1254 C1253 1.395 1_455 S
C1254 C1255 1.362 . S
C1255 H1219 0.930 . S
C1255 C1250 1.390 1_455 S
C1255 C1254 1.362 . S
C1256 C1245 1.492 . S
C1256 C1257 1.377 . S
C1256 C1261 1.397 1_655 S
C1257 H1220 0.931 . S
C1257 C1256 1.377 . S
C1257 C1258 1.376 . S
C1258 H1221 0.930 . S
C1258 C1257 1.376 . S
C1258 C1259 1.376 . S
C1259 C1258 1.376 . S
C1259 C1260 1.378 1_655 S
C1259 C1286 1.486 . S
C1260 H1222 0.930 . S
C1260 C1259 1.378 1_455 S
C1260 C1261 1.376 . S
C1261 H1223 0.929 . S
C1261 C1256 1.397 1_455 S
C1261 C1260 1.376 . S
C1262 C1246 1.509 . S
C1262 C1263 1.391 . S
C1262 C1267 1.386 1_655 S
C1263 H1224 0.930 . S
C1263 C1262 1.391 . S
C1263 C1264 1.375 . S
C1264 H1225 0.931 . S
C1264 C1263 1.375 . S
C1264 C1265 1.375 . S
C1265 C1264 1.375 . S
C1265 C1266 1.361 1_655 S
C1266 H1226 0.930 . S
C1266 C1265 1.361 1_455 S
C1266 C1267 1.399 . S
C1267 H1227 0.929 . S
C1267 C1262 1.386 1_455 S
C1267 C1266 1.399 . S
C1268 C1247 1.484 1_455 S
C1268 C1269 1.394 1_455 S
C1268 C1273 1.360 . S
C1269 H1228 0.931 . S
C1269 C1268 1.394 1_655 S
C1269 C1270 1.372 . S
C1270 H1229 0.930 . S
C1270 C1269 1.372 . S
C1270 C1271 1.397 1_655 S
C1271 C1270 1.397 1_455 S
C1271 C1272 1.390 . S
C1271 C1287 1.476 . S
C1272 H1230 0.930 . S
C1272 C1271 1.390 . S
C1272 C1273 1.366 . S
C1273 H1231 0.932 . S
C1273 C1268 1.360 . S
C1273 C1272 1.366 . S
C1274 C1248 1.484 . S
C1274 C1275 1.380 1_455 S
C1274 C1279 1.386 . S
C1275 H1232 0.930 . S
C1275 C1274 1.380 1_655 S
C1275 C1276 1.381 . S
C1276 H1233 0.929 . S
C1276 C1275 1.381 . S
C1276 C1277 1.371 1_655 S
C1277 C1276 1.371 1_455 S
C1277 C1278 1.380 . S
C1278 H1234 0.931 . S
C1278 C1277 1.380 . S
C1278 C1279 1.387 . S
C1279 H1235 0.930 . S
C1279 C1274 1.386 . S
C1279 C1278 1.387 . S
C1280 C1249 1.517 . S
C1280 C1281 1.377 1_455 S
C1280 C1285 1.361 . S
C1281 H1236 0.929 . S
C1281 C1280 1.377 1_655 S
C1281 C1282 1.386 . S
C1282 H1237 0.931 . S
C1282 C1281 1.386 . S
C1282 C1283 1.363 1_655 S
C1283 C1282 1.363 1_455 S
C1283 C1284 1.385 . S
C1284 H1238 0.930 . S
C1284 C1283 1.385 . S
C1284 C1285 1.396 . S
C1285 H1239 0.929 . S
C1285 C1280 1.361 . S
C1285 C1284 1.396 . S
C1286 O1240 1.300 . S
C1286 O1241 1.209 1_655 S
C1286 C1259 1.486 . S
C1287 O1242 1.199 1_455 S
C1287 O1243 1.297 . S
C1287 C1271 1.476 . S
H1288 O1314 0.856 . S
H1289 O1317 0.854 . S
H1290 C1325 0.930 . S
H1291 C1326 0.930 . S
H1292 C1328 0.930 . S
H1293 C1329 0.930 . S
H1294 C1331 0.931 . S
H1295 C1332 0.930 . S
H1296 C1334 0.930 . S
H1297 C1335 0.929 . S
H1298 C1337 0.930 . S
H1299 C1338 0.931 . S
H1300 C1340 0.930 . S
H1301 C1341 0.929 . S
H1302 C1343 0.931 . S
H1303 C1344 0.930 . S
H1304 C1346 0.930 . S
H1305 C1347 0.932 . S
H1306 C1349 0.930 . S
H1307 C1350 0.929 . S
H1308 C1352 0.931 . S
H1309 C1353 0.930 . S
H1310 C1355 0.929 . S
H1311 C1356 0.931 . S
H1312 C1358 0.930 . S
H1313 C1359 0.929 . S
O1314 H1288 0.856 . S
O1314 C1360 1.300 . S
O1315 C1360 1.209 . S
O1316 C1361 1.199 . S
O1317 H1289 0.854 . S
O1317 C1361 1.297 . S
C1318 C1319 1.404 . S
C1318 C1323 1.397 . S
C1318 C1324 1.492 . S
C1319 C1318 1.404 . S
C1319 C1320 1.396 . S
C1319 C1330 1.492 . S
C1320 C1319 1.396 . S
C1320 C1321 1.397 . S
C1320 C1336 1.509 . S
C1321 C1320 1.397 . S
C1321 C1322 1.412 . S
C1321 C1342 1.485 . S
C1322 C1321 1.412 . S
C1322 C1323 1.388 . S
C1322 C1348 1.490 . S
C1323 C1318 1.397 . S
C1323 C1322 1.388 . S
C1323 C1354 1.519 . S
C1324 C1318 1.492 . S
C1324 C1325 1.363 . S
C1324 C1329 1.390 . S
C1325 H1290 0.930 . S
C1325 C1324 1.363 . S
C1325 C1326 1.372 . S
C1326 H1291 0.930 . S
C1326 C1325 1.372 . S
C1326 C1327 1.383 . S
C1327 C1326 1.383 . S
C1327 C1328 1.395 . S
C1328 H1292 0.930 . S
C1328 C1327 1.395 . S
C1328 C1329 1.362 . S
C1329 H1293 0.930 . S
C1329 C1324 1.390 . S
C1329 C1328 1.362 . S
C1330 C1319 1.492 . S
C1330 C1331 1.377 . S
C1330 C1335 1.397 . S
C1331 H1294 0.931 . S
C1331 C1330 1.377 . S
C1331 C1332 1.376 . S
C1332 H1295 0.930 . S
C1332 C1331 1.376 . S
C1332 C1333 1.376 . S
C1333 C1332 1.376 . S
C1333 C1334 1.378 . S
C1333 C1360 1.486 . S
C1334 H1296 0.930 . S
C1334 C1333 1.378 . S
C1334 C1335 1.376 . S
C1335 H1297 0.929 . S
C1335 C1330 1.397 . S
C1335 C1334 1.376 . S
C1336 C1320 1.509 . S
C1336 C1337 1.391 . S
C1336 C1341 1.386 . S
C1337 H1298 0.930 . S
C1337 C1336 1.391 . S
C1337 C1338 1.375 . S
C1338 H1299 0.931 . S
C1338 C1337 1.375 . S
C1338 C1339 1.375 . S
C1339 C1338 1.375 . S
C1339 C1340 1.361 . S
C1340 H1300 0.930 . S
C1340 C1339 1.361 . S
C1340 C1341 1.399 . S
C1341 H1301 0.929 . S
C1341 C1336 1.386 . S
C1341 C1340 1.399 . S
C1342 C1321 1.485 . S
C1342 C1343 1.394 . S
C1342 C1347 1.360 . S
C1343 H1302 0.931 . S
C1343 C1342 1.394 . S
C1343 C1344 1.372 . S
C1344 H1303 0.930 . S
C1344 C1343 1.372 . S
C1344 C1345 1.397 . S
C1345 C1344 1.397 . S
C1345 C1346 1.390 . S
C1345 C1361 1.476 . S
C1346 H1304 0.930 . S
C1346 C1345 1.390 . S
C1346 C1347 1.366 . S
C1347 H1305 0.932 . S
C1347 C1342 1.360 . S
C1347 C1346 1.366 . S
C1348 C1322 1.490 . S
C1348 C1349 1.380 . S
C1348 C1353 1.386 . S
C1349 H1306 0.930 . S
C1349 C1348 1.380 . S
C1349 C1350 1.381 . S
C1350 H1307 0.929 . S
C1350 C1349 1.381 . S
C1350 C1351 1.371 . S
C1351 C1350 1.371 . S
C1351 C1352 1.380 . S
C1352 H1308 0.931 . S
C1352 C1351 1.380 . S
C1352 C1353 1.387 . S
C1353 H1309 0.930 . S
C1353 C1348 1.386 . S
C1353 C1352 1.387 . S
C1354 C1323 1.519 . S
C1354 C1355 1.377 . S
C1354 C1359 1.361 . S
C1355 H1310 0.929 . S
C1355 C1354 1.377 . S
C1355 C1356 1.386 . S
C1356 H1311 0.931 . S
C1356 C1355 1.386 . S
C1356 C1357 1.363 . S
C1357 C1356 1.363 . S
C1357 C1358 1.385 . S
C1358 H1312 0.930 . S
C1358 C1357 1.385 . S
C1358 C1359 1.396 . S
C1359 H1313 0.929 . S
C1359 C1354 1.361 . S
C1359 C1358 1.396 . S
C1360 O1314 1.300 . S
C1360 O1315 1.209 . S
C1360 C1333 1.486 . S
C1361 O1316 1.199 . S
C1361 O1317 1.297 . S
C1361 C1345 1.476 . S
H1362 O1388 0.856 . S
H1363 O1391 0.854 . S
H1364 C1399 0.930 . S
H1365 C1400 0.930 . S
H1366 C1402 0.930 . S
H1367 C1403 0.930 . S
H1368 C1405 0.931 . S
H1369 C1406 0.930 . S
H1370 C1408 0.930 . S
H1371 C1409 0.929 . S
H1372 C1411 0.930 . S
H1373 C1412 0.931 . S
H1374 C1414 0.930 . S
H1375 C1415 0.929 . S
H1376 C1417 0.931 . S
H1377 C1418 0.930 . S
H1378 C1420 0.930 . S
H1379 C1421 0.932 . S
H1380 C1423 0.930 . S
H1381 C1424 0.929 . S
H1382 C1426 0.931 . S
H1383 C1427 0.930 . S
H1384 C1429 0.929 . S
H1385 C1430 0.931 . S
H1386 C1432 0.930 . S
H1387 C1433 0.929 . S
O1388 H1362 0.856 . S
O1388 C1434 1.300 . S
O1389 C1434 1.209 . S
O1390 C1435 1.199 . S
O1391 H1363 0.854 . S
O1391 C1435 1.297 . S
C1392 C1393 1.404 . S
C1392 C1397 1.397 . S
C1392 C1398 1.492 . S
C1393 C1392 1.404 . S
C1393 C1394 1.396 . S
C1393 C1404 1.492 . S
C1394 C1393 1.396 . S
C1394 C1395 1.397 . S
C1394 C1410 1.509 . S
C1395 C1394 1.397 . S
C1395 C1396 1.412 . S
C1395 C1416 1.485 . S
C1396 C1395 1.412 . S
C1396 C1397 1.388 . S
C1396 C1422 1.490 . S
C1397 C1392 1.397 . S
C1397 C1396 1.388 . S
C1397 C1428 1.519 . S
C1398 C1392 1.492 . S
C1398 C1399 1.363 . S
C1398 C1403 1.390 . S
C1399 H1364 0.930 . S
C1399 C1398 1.363 . S
C1399 C1400 1.372 . S
C1400 H1365 0.930 . S
C1400 C1399 1.372 . S
C1400 C1401 1.383 . S
C1401 C1400 1.383 . S
C1401 C1402 1.395 . S
C1402 H1366 0.930 . S
C1402 C1401 1.395 . S
C1402 C1403 1.362 . S
C1403 H1367 0.930 . S
C1403 C1398 1.390 . S
C1403 C1402 1.362 . S
C1404 C1393 1.492 . S
C1404 C1405 1.377 . S
C1404 C1409 1.397 . S
C1405 H1368 0.931 . S
C1405 C1404 1.377 . S
C1405 C1406 1.376 . S
C1406 H1369 0.930 . S
C1406 C1405 1.376 . S
C1406 C1407 1.376 . S
C1407 C1406 1.376 . S
C1407 C1408 1.378 . S
C1407 C1434 1.486 . S
C1408 H1370 0.930 . S
C1408 C1407 1.378 . S
C1408 C1409 1.376 . S
C1409 H1371 0.929 . S
C1409 C1404 1.397 . S
C1409 C1408 1.376 . S
C1410 C1394 1.509 . S
C1410 C1411 1.391 . S
C1410 C1415 1.386 . S
C1411 H1372 0.930 . S
C1411 C1410 1.391 . S
C1411 C1412 1.375 . S
C1412 H1373 0.931 . S
C1412 C1411 1.375 . S
C1412 C1413 1.375 . S
C1413 C1412 1.375 . S
C1413 C1414 1.361 . S
C1414 H1374 0.930 . S
C1414 C1413 1.361 . S
C1414 C1415 1.399 . S
C1415 H1375 0.929 . S
C1415 C1410 1.386 . S
C1415 C1414 1.399 . S
C1416 C1395 1.485 . S
C1416 C1417 1.394 . S
C1416 C1421 1.360 . S
C1417 H1376 0.931 . S
C1417 C1416 1.394 . S
C1417 C1418 1.372 . S
C1418 H1377 0.930 . S
C1418 C1417 1.372 . S
C1418 C1419 1.397 . S
C1419 C1418 1.397 . S
C1419 C1420 1.390 . S
C1419 C1435 1.476 . S
C1420 H1378 0.930 . S
C1420 C1419 1.390 . S
C1420 C1421 1.366 . S
C1421 H1379 0.932 . S
C1421 C1416 1.360 . S
C1421 C1420 1.366 . S
C1422 C1396 1.490 . S
C1422 C1423 1.380 . S
C1422 C1427 1.386 . S
C1423 H1380 0.930 . S
C1423 C1422 1.380 . S
C1423 C1424 1.381 . S
C1424 H1381 0.929 . S
C1424 C1423 1.381 . S
C1424 C1425 1.371 . S
C1425 C1424 1.371 . S
C1425 C1426 1.380 . S
C1426 H1382 0.931 . S
C1426 C1425 1.380 . S
C1426 C1427 1.387 . S
C1427 H1383 0.930 . S
C1427 C1422 1.386 . S
C1427 C1426 1.387 . S
C1428 C1397 1.519 . S
C1428 C1429 1.377 . S
C1428 C1433 1.361 . S
C1429 H1384 0.929 . S
C1429 C1428 1.377 . S
C1429 C1430 1.386 . S
C1430 H1385 0.931 . S
C1430 C1429 1.386 . S
C1430 C1431 1.363 . S
C1431 C1430 1.363 . S
C1431 C1432 1.385 . S
C1432 H1386 0.930 . S
C1432 C1431 1.385 . S
C1432 C1433 1.396 . S
C1433 H1387 0.929 . S
C1433 C1428 1.361 . S
C1433 C1432 1.396 . S
C1434 O1388 1.300 . S
C1434 O1389 1.209 . S
C1434 C1407 1.486 . S
C1435 O1390 1.199 . S
C1435 O1391 1.297 . S
C1435 C1419 1.476 . S
H1436 O1462 0.856 . S
H1437 O1465 0.854 . S
H1438 C1473 0.930 . S
H1439 C1474 0.930 . S
H1440 C1476 0.930 . S
H1441 C1477 0.930 . S
H1442 C1479 0.931 . S
H1443 C1480 0.930 . S
H1444 C1482 0.930 . S
H1445 C1483 0.929 . S
H1446 C1485 0.930 . S
H1447 C1486 0.931 . S
H1448 C1488 0.930 . S
H1449 C1489 0.929 . S
H1450 C1491 0.931 . S
H1451 C1492 0.930 . S
H1452 C1494 0.930 . S
H1453 C1495 0.932 . S
H1454 C1497 0.930 . S
H1455 C1498 0.929 . S
H1456 C1500 0.931 . S
H1457 C1501 0.930 . S
H1458 C1503 0.929 . S
H1459 C1504 0.931 . S
H1460 C1506 0.930 . S
H1461 C1507 0.929 . S
O1462 H1436 0.856 . S
O1462 C1508 1.300 . S
O1463 C1508 1.209 . S
O1464 C1509 1.199 . S
O1465 H1437 0.854 . S
O1465 C1509 1.297 . S
C1466 C1467 1.404 . S
C1466 C1471 1.397 . S
C1466 C1472 1.492 . S
C1467 C1466 1.404 . S
C1467 C1468 1.396 . S
C1467 C1478 1.492 . S
C1468 C1467 1.396 . S
C1468 C1469 1.397 . S
C1468 C1484 1.509 . S
C1469 C1468 1.397 . S
C1469 C1470 1.412 . S
C1469 C1490 1.485 . S
C1470 C1469 1.412 . S
C1470 C1471 1.388 . S
C1470 C1496 1.490 . S
C1471 C1466 1.397 . S
C1471 C1470 1.388 . S
C1471 C1502 1.519 . S
C1472 C1466 1.492 . S
C1472 C1473 1.363 . S
C1472 C1477 1.390 . S
C1473 H1438 0.930 . S
C1473 C1472 1.363 . S
C1473 C1474 1.372 . S
C1474 H1439 0.930 . S
C1474 C1473 1.372 . S
C1474 C1475 1.383 . S
C1475 C1474 1.383 . S
C1475 C1476 1.395 . S
C1476 H1440 0.930 . S
C1476 C1475 1.395 . S
C1476 C1477 1.362 . S
C1477 H1441 0.930 . S
C1477 C1472 1.390 . S
C1477 C1476 1.362 . S
C1478 C1467 1.492 . S
C1478 C1479 1.377 . S
C1478 C1483 1.397 . S
C1479 H1442 0.931 . S
C1479 C1478 1.377 . S
C1479 C1480 1.376 . S
C1480 H1443 0.930 . S
C1480 C1479 1.376 . S
C1480 C1481 1.376 . S
C1481 C1480 1.376 . S
C1481 C1482 1.378 . S
C1481 C1508 1.486 . S
C1482 H1444 0.930 . S
C1482 C1481 1.378 . S
C1482 C1483 1.376 . S
C1483 H1445 0.929 . S
C1483 C1478 1.397 . S
C1483 C1482 1.376 . S
C1484 C1468 1.509 . S
C1484 C1485 1.391 . S
C1484 C1489 1.386 . S
C1485 H1446 0.930 . S
C1485 C1484 1.391 . S
C1485 C1486 1.375 . S
C1486 H1447 0.931 . S
C1486 C1485 1.375 . S
C1486 C1487 1.375 . S
C1487 C1486 1.375 . S
C1487 C1488 1.361 . S
C1488 H1448 0.930 . S
C1488 C1487 1.361 . S
C1488 C1489 1.399 . S
C1489 H1449 0.929 . S
C1489 C1484 1.386 . S
C1489 C1488 1.399 . S
C1490 C1469 1.485 . S
C1490 C1491 1.394 . S
C1490 C1495 1.360 . S
C1491 H1450 0.931 . S
C1491 C1490 1.394 . S
C1491 C1492 1.372 . S
C1492 H1451 0.930 . S
C1492 C1491 1.372 . S
C1492 C1493 1.397 . S
C1493 C1492 1.397 . S
C1493 C1494 1.390 . S
C1493 C1509 1.476 . S
C1494 H1452 0.930 . S
C1494 C1493 1.390 . S
C1494 C1495 1.366 . S
C1495 H1453 0.932 . S
C1495 C1490 1.360 . S
C1495 C1494 1.366 . S
C1496 C1470 1.490 . S
C1496 C1497 1.380 . S
C1496 C1501 1.386 . S
C1497 H1454 0.930 . S
C1497 C1496 1.380 . S
C1497 C1498 1.381 . S
C1498 H1455 0.929 . S
C1498 C1497 1.381 . S
C1498 C1499 1.371 . S
C1499 C1498 1.371 . S
C1499 C1500 1.380 . S
C1500 H1456 0.931 . S
C1500 C1499 1.380 . S
C1500 C1501 1.387 . S
C1501 H1457 0.930 . S
C1501 C1496 1.386 . S
C1501 C1500 1.387 . S
C1502 C1471 1.519 . S
C1502 C1503 1.377 . S
C1502 C1507 1.361 . S
C1503 H1458 0.929 . S
C1503 C1502 1.377 . S
C1503 C1504 1.386 . S
C1504 H1459 0.931 . S
C1504 C1503 1.386 . S
C1504 C1505 1.363 . S
C1505 C1504 1.363 . S
C1505 C1506 1.385 . S
C1506 H1460 0.930 . S
C1506 C1505 1.385 . S
C1506 C1507 1.396 . S
C1507 H1461 0.929 . S
C1507 C1502 1.361 . S
C1507 C1506 1.396 . S
C1508 O1462 1.300 . S
C1508 O1463 1.209 . S
C1508 C1481 1.486 . S
C1509 O1464 1.199 . S
C1509 O1465 1.297 . S
C1509 C1493 1.476 . S
H1510 O1536 0.856 . S
H1511 O1539 0.854 . S
H1512 C1547 0.930 . S
H1513 C1548 0.930 . S
H1514 C1550 0.930 . S
H1515 C1551 0.930 . S
H1516 C1553 0.931 . S
H1517 C1554 0.930 . S
H1518 C1556 0.930 . S
H1519 C1557 0.929 . S
H1520 C1559 0.930 . S
H1521 C1560 0.931 . S
H1522 C1562 0.930 . S
H1523 C1563 0.929 . S
H1524 C1565 0.931 . S
H1525 C1566 0.930 . S
H1526 C1568 0.930 . S
H1527 C1569 0.932 . S
H1528 C1571 0.930 . S
H1529 C1572 0.929 . S
H1530 C1574 0.931 . S
H1531 C1575 0.930 . S
H1532 C1577 0.929 . S
H1533 C1578 0.931 . S
H1534 C1580 0.930 . S
H1535 C1581 0.929 . S
O1536 H1510 0.856 . S
O1536 C1582 1.300 . S
O1537 C1582 1.209 . S
O1538 C1583 1.199 . S
O1539 H1511 0.854 . S
O1539 C1583 1.297 . S
C1540 C1541 1.404 . S
C1540 C1545 1.397 . S
C1540 C1546 1.492 . S
C1541 C1540 1.404 . S
C1541 C1542 1.396 . S
C1541 C1552 1.492 . S
C1542 C1541 1.396 . S
C1542 C1543 1.397 . S
C1542 C1558 1.509 . S
C1543 C1542 1.397 . S
C1543 C1544 1.412 . S
C1543 C1564 1.485 . S
C1544 C1543 1.412 . S
C1544 C1545 1.388 . S
C1544 C1570 1.490 . S
C1545 C1540 1.397 . S
C1545 C1544 1.388 . S
C1545 C1576 1.519 . S
C1546 C1540 1.492 . S
C1546 C1547 1.363 . S
C1546 C1551 1.390 . S
C1547 H1512 0.930 . S
C1547 C1546 1.363 . S
C1547 C1548 1.372 . S
C1548 H1513 0.930 . S
C1548 C1547 1.372 . S
C1548 C1549 1.383 . S
C1549 C1548 1.383 . S
C1549 C1550 1.395 . S
C1550 H1514 0.930 . S
C1550 C1549 1.395 . S
C1550 C1551 1.362 . S
C1551 H1515 0.930 . S
C1551 C1546 1.390 . S
C1551 C1550 1.362 . S
C1552 C1541 1.492 . S
C1552 C1553 1.377 . S
C1552 C1557 1.397 . S
C1553 H1516 0.931 . S
C1553 C1552 1.377 . S
C1553 C1554 1.376 . S
C1554 H1517 0.930 . S
C1554 C1553 1.376 . S
C1554 C1555 1.376 . S
C1555 C1554 1.376 . S
C1555 C1556 1.378 . S
C1555 C1582 1.486 . S
C1556 H1518 0.930 . S
C1556 C1555 1.378 . S
C1556 C1557 1.376 . S
C1557 H1519 0.929 . S
C1557 C1552 1.397 . S
C1557 C1556 1.376 . S
C1558 C1542 1.509 . S
C1558 C1559 1.391 . S
C1558 C1563 1.386 . S
C1559 H1520 0.930 . S
C1559 C1558 1.391 . S
C1559 C1560 1.375 . S
C1560 H1521 0.931 . S
C1560 C1559 1.375 . S
C1560 C1561 1.375 . S
C1561 C1560 1.375 . S
C1561 C1562 1.361 . S
C1562 H1522 0.930 . S
C1562 C1561 1.361 . S
C1562 C1563 1.399 . S
C1563 H1523 0.929 . S
C1563 C1558 1.386 . S
C1563 C1562 1.399 . S
C1564 C1543 1.485 . S
C1564 C1565 1.394 . S
C1564 C1569 1.360 . S
C1565 H1524 0.931 . S
C1565 C1564 1.394 . S
C1565 C1566 1.372 . S
C1566 H1525 0.930 . S
C1566 C1565 1.372 . S
C1566 C1567 1.397 . S
C1567 C1566 1.397 . S
C1567 C1568 1.390 . S
C1567 C1583 1.476 . S
C1568 H1526 0.930 . S
C1568 C1567 1.390 . S
C1568 C1569 1.366 . S
C1569 H1527 0.932 . S
C1569 C1564 1.360 . S
C1569 C1568 1.366 . S
C1570 C1544 1.490 . S
C1570 C1571 1.380 . S
C1570 C1575 1.386 . S
C1571 H1528 0.930 . S
C1571 C1570 1.380 . S
C1571 C1572 1.381 . S
C1572 H1529 0.929 . S
C1572 C1571 1.381 . S
C1572 C1573 1.371 . S
C1573 C1572 1.371 . S
C1573 C1574 1.380 . S
C1574 H1530 0.931 . S
C1574 C1573 1.380 . S
C1574 C1575 1.387 . S
C1575 H1531 0.930 . S
C1575 C1570 1.386 . S
C1575 C1574 1.387 . S
C1576 C1545 1.519 . S
C1576 C1577 1.377 . S
C1576 C1581 1.361 . S
C1577 H1532 0.929 . S
C1577 C1576 1.377 . S
C1577 C1578 1.386 . S
C1578 H1533 0.931 . S
C1578 C1577 1.386 . S
C1578 C1579 1.363 . S
C1579 C1578 1.363 . S
C1579 C1580 1.385 . S
C1580 H1534 0.930 . S
C1580 C1579 1.385 . S
C1580 C1581 1.396 . S
C1581 H1535 0.929 . S
C1581 C1576 1.361 . S
C1581 C1580 1.396 . S
C1582 O1536 1.300 . S
C1582 O1537 1.209 . S
C1582 C1555 1.486 . S
C1583 O1538 1.199 . S
C1583 O1539 1.297 . S
C1583 C1567 1.476 . S
C1584 C1585 1.387 . S
C1584 H1588 0.950 . S
C1584 C1593 1.390 . S
C1585 C1584 1.387 . S
C1585 C1587 1.387 . S
H1586 C1593 0.950 . S
C1587 C1585 1.387 . S
C1587 C1589 1.390 . S
C1587 H1591 0.950 . S
H1588 C1584 0.950 . S
C1589 C1587 1.390 . S
C1589 C1590 1.387 . S
C1589 H1592 0.950 . S
C1590 C1589 1.387 . S
C1590 C1593 1.387 . S
H1591 C1587 0.950 . S
H1592 C1589 0.950 . S
C1593 C1584 1.390 . S
C1593 H1586 0.950 . S
C1593 C1590 1.387 . S
C1594 C1595 1.387 . S
C1594 H1598 0.950 . S
C1594 C1603 1.390 . S
C1595 C1594 1.387 . S
C1595 C1597 1.387 . S
H1596 C1603 0.950 . S
C1597 C1595 1.387 . S
C1597 C1599 1.390 . S
C1597 H1601 0.950 . S
H1598 C1594 0.950 . S
C1599 C1597 1.390 . S
C1599 C1600 1.387 . S
C1599 H1602 0.950 . S
C1600 C1599 1.387 . S
C1600 C1603 1.387 . S
H1601 C1597 0.950 . S
H1602 C1599 0.950 . S
C1603 C1594 1.390 . S
C1603 H1596 0.950 . S
C1603 C1600 1.387 . S
C1604 C1605 1.387 1_565 S
C1604 H1608 0.950 . S
C1604 C1613 1.390 . S
C1605 C1604 1.387 1_545 S
C1605 C1607 1.387 . S
H1606 C1613 0.950 . S
C1607 C1605 1.387 . S
C1607 C1609 1.390 . S
C1607 H1611 0.950 . S
H1608 C1604 0.950 . S
C1609 C1607 1.390 . S
C1609 C1610 1.387 . S
C1609 H1612 0.950 . S
C1610 C1609 1.387 . S
C1610 C1613 1.387 1_545 S
H1611 C1607 0.950 . S
H1612 C1609 0.950 . S
C1613 C1604 1.390 . S
C1613 H1606 0.950 . S
C1613 C1610 1.387 1_565 S
C1614 C1615 1.387 . S
C1614 H1618 0.950 . S
C1614 C1623 1.390 . S
C1615 C1614 1.387 . S
C1615 C1617 1.387 1_565 S
H1616 C1623 0.950 . S
C1617 C1615 1.387 1_545 S
C1617 C1619 1.390 . S
C1617 H1621 0.950 . S
H1618 C1614 0.950 . S
C1619 C1617 1.390 . S
C1619 C1620 1.387 1_545 S
C1619 H1622 0.950 . S
C1620 C1619 1.387 1_565 S
C1620 C1623 1.387 . S
H1621 C1617 0.950 . S
H1622 C1619 0.950 . S
C1623 C1614 1.390 . S
C1623 H1616 0.950 . S
C1623 C1620 1.387 . S
C1624 C1625 1.387 1_655 S
C1624 H1628 0.950 . S
C1624 C1633 1.390 . S
C1625 C1624 1.387 1_455 S
C1625 C1627 1.387 . S
H1626 C1633 0.950 . S
C1627 C1625 1.387 . S
C1627 C1629 1.390 . S
C1627 H1631 0.950 . S
H1628 C1624 0.950 . S
C1629 C1627 1.390 . S
C1629 C1630 1.387 . S
C1629 H1632 0.950 . S
C1630 C1629 1.387 . S
C1630 C1633 1.387 1_455 S
H1631 C1627 0.950 . S
H1632 C1629 0.950 . S
C1633 C1624 1.390 . S
C1633 H1626 0.950 . S
C1633 C1630 1.387 1_655 S
C1634 C1635 1.387 1_556 S
C1634 H1638 0.950 . S
C1634 C1643 1.390 . S
C1635 C1634 1.387 1_554 S
C1635 C1637 1.387 . S
H1636 C1643 0.950 . S
C1637 C1635 1.387 . S
C1637 C1639 1.390 1_554 S
C1637 H1641 0.950 . S
H1638 C1634 0.950 . S
C1639 C1637 1.390 1_556 S
C1639 C1640 1.387 . S
C1639 H1642 0.950 . S
C1640 C1639 1.387 . S
C1640 C1643 1.387 . S
H1641 C1637 0.950 . S
H1642 C1639 0.950 . S
C1643 C1634 1.390 . S
C1643 H1636 0.950 . S
C1643 C1640 1.387 . S
C1644 C1645 1.385 1_554 S
C1644 H1648 0.958 . S
C1644 C1653 1.390 . S
C1645 C1644 1.385 1_556 S
C1645 C1647 1.391 . S
H1646 C1653 0.939 . S
C1647 C1645 1.391 . S
C1647 C1649 1.390 . S
C1647 H1651 0.950 . S
H1648 C1644 0.958 . S
C1649 C1647 1.390 . S
C1649 C1650 1.387 . S
C1649 H1652 0.950 . S
C1650 C1649 1.387 . S
C1650 C1653 1.387 1_556 S
H1651 C1647 0.950 . S
H1652 C1649 0.950 . S
C1653 C1644 1.390 . S
C1653 H1646 0.939 . S
C1653 C1650 1.387 1_554 S
C1654 C1655 1.387 . S
C1654 H1658 0.950 . S
C1654 C1663 1.390 . S
C1655 C1654 1.387 . S
C1655 C1657 1.387 . S
H1656 C1663 0.950 . S
C1657 C1655 1.387 . S
C1657 C1659 1.390 . S
C1657 H1661 0.950 . S
H1658 C1654 0.950 . S
C1659 C1657 1.390 . S
C1659 C1660 1.387 . S
C1659 H1662 0.950 . S
C1660 C1659 1.387 . S
C1660 C1663 1.387 . S
H1661 C1657 0.950 . S
H1662 C1659 0.950 . S
C1663 C1654 1.390 . S
C1663 H1656 0.950 . S
C1663 C1660 1.387 . S
C1664 C1665 1.387 1_545 S
C1664 H1668 0.952 1_556 S
C1664 C1673 1.390 . S
C1665 C1664 1.387 1_565 S
C1665 C1667 1.387 . S
H1666 C1673 0.950 . S
C1667 C1665 1.387 . S
C1667 C1669 1.390 . S
C1667 H1671 0.950 . S
H1668 C1664 0.952 1_554 S
C1669 C1667 1.390 . S
C1669 C1670 1.374 1_565 S
C1669 H1672 0.950 . S
C1670 C1669 1.374 1_545 S
C1670 C1673 1.395 . S
H1671 C1667 0.950 . S
H1672 C1669 0.950 . S
C1673 C1664 1.390 . S
C1673 H1666 0.950 . S
C1673 C1670 1.395 . S
C1674 C1675 1.387 1_565 S
C1674 H1678 0.950 . S
C1674 C1683 1.390 . S
C1675 C1674 1.387 1_545 S
C1675 C1677 1.387 . S
H1676 C1683 0.950 . S
C1677 C1675 1.387 . S
C1677 C1679 1.390 . S
C1677 H1681 0.950 . S
H1678 C1674 0.950 . S
C1679 C1677 1.390 . S
C1679 C1680 1.387 . S
C1679 H1682 0.950 . S
C1680 C1679 1.387 . S
C1680 C1683 1.388 1_545 S
H1681 C1677 0.950 . S
H1682 C1679 0.950 . S
C1683 C1674 1.390 . S
C1683 H1676 0.950 . S
C1683 C1680 1.388 1_565 S
C1684 C1685 1.387 1_455 S
C1684 H1688 0.950 . S
C1684 C1693 1.390 . S
C1685 C1684 1.387 1_655 S
C1685 C1687 1.387 . S
H1686 C1693 0.950 . S
C1687 C1685 1.387 . S
C1687 C1689 1.390 . S
C1687 H1691 0.950 . S
H1688 C1684 0.950 . S
C1689 C1687 1.390 . S
C1689 C1690 1.413 . S
C1689 H1692 0.950 . S
C1690 C1689 1.413 . S
C1690 C1693 1.373 1_655 S
H1691 C1687 0.950 . S
H1692 C1689 0.950 . S
C1693 C1684 1.390 . S
C1693 H1686 0.950 . S
C1693 C1690 1.373 1_455 S
C1694 C1695 1.387 . S
C1694 H1698 0.950 . S
C1694 C1703 1.390 . S
C1695 C1694 1.387 . S
C1695 C1697 1.387 . S
H1696 C1703 0.950 . S
C1697 C1695 1.387 . S
C1697 C1699 1.390 . S
C1697 H1701 0.950 . S
H1698 C1694 0.950 . S
C1699 C1697 1.390 . S
C1699 C1700 1.387 . S
C1699 H1702 0.950 . S
C1700 C1699 1.387 . S
C1700 C1703 1.387 . S
H1701 C1697 0.950 . S
H1702 C1699 0.950 . S
C1703 C1694 1.390 . S
C1703 H1696 0.950 . S
C1703 C1700 1.387 . S
C1704 C1705 1.387 . S
C1704 H1708 0.950 . S
C1704 C1713 1.390 . S
C1705 C1704 1.387 . S
C1705 C1707 1.387 . S
H1706 C1713 0.950 . S
C1707 C1705 1.387 . S
C1707 C1709 1.390 . S
C1707 H1711 0.950 . S
H1708 C1704 0.950 . S
C1709 C1707 1.390 . S
C1709 C1710 1.387 . S
C1709 H1712 0.950 . S
C1710 C1709 1.387 . S
C1710 C1713 1.387 . S
H1711 C1707 0.950 . S
H1712 C1709 0.950 . S
C1713 C1704 1.390 . S
C1713 H1706 0.950 . S
C1713 C1710 1.387 . S
C1714 C1715 1.387 . S
C1714 H1718 0.950 . S
C1714 C1723 1.390 . S
C1715 C1714 1.387 . S
C1715 C1717 1.387 . S
H1716 C1723 0.950 . S
C1717 C1715 1.387 . S
C1717 C1719 1.390 . S
C1717 H1721 0.950 . S
H1718 C1714 0.950 . S
C1719 C1717 1.390 . S
C1719 C1720 1.387 . S
C1719 H1722 0.950 . S
C1720 C1719 1.387 . S
C1720 C1723 1.387 . S
H1721 C1717 0.950 . S
H1722 C1719 0.950 . S
C1723 C1714 1.390 . S
C1723 H1716 0.950 . S
C1723 C1720 1.387 . S
C1724 C1725 1.387 . S
C1724 H1728 0.950 . S
C1724 C1733 1.390 . S
C1725 C1724 1.387 . S
C1725 C1727 1.387 . S
H1726 C1733 0.950 . S
C1727 C1725 1.387 . S
C1727 C1729 1.390 . S
C1727 H1731 0.950 . S
H1728 C1724 0.950 . S
C1729 C1727 1.390 . S
C1729 C1730 1.387 . S
C1729 H1732 0.950 . S
C1730 C1729 1.387 . S
C1730 C1733 1.387 . S
H1731 C1727 0.950 . S
H1732 C1729 0.950 . S
C1733 C1724 1.390 . S
C1733 H1726 0.950 . S
C1733 C1730 1.387 . S
C1734 C1735 1.387 . S
C1734 H1738 0.950 . S
C1734 C1743 1.390 . S
C1735 C1734 1.387 . S
C1735 C1737 1.387 . S
H1736 C1743 0.950 . S
C1737 C1735 1.387 . S
C1737 C1739 1.390 . S
C1737 H1741 0.950 . S
H1738 C1734 0.950 . S
C1739 C1737 1.390 . S
C1739 C1740 1.387 . S
C1739 H1742 0.950 . S
C1740 C1739 1.387 . S
C1740 C1743 1.387 . S
H1741 C1737 0.950 . S
H1742 C1739 0.950 . S
C1743 C1734 1.390 . S
C1743 H1736 0.950 . S
C1743 C1740 1.387 . S
C1744 C1745 1.387 . S
C1744 H1748 0.950 . S
C1744 C1753 1.390 . S
C1745 C1744 1.387 . S
C1745 C1747 1.387 . S
H1746 C1753 0.950 . S
C1747 C1745 1.387 . S
C1747 C1749 1.390 . S
C1747 H1751 0.950 . S
H1748 C1744 0.950 . S
C1749 C1747 1.390 . S
C1749 C1750 1.387 . S
C1749 H1752 0.950 . S
C1750 C1749 1.387 . S
C1750 C1753 1.387 . S
H1751 C1747 0.950 . S
H1752 C1749 0.950 . S
C1753 C1744 1.390 . S
C1753 H1746 0.950 . S
C1753 C1750 1.387 . S
C1754 C1755 1.387 . S
C1754 H1758 0.950 . S
C1754 C1763 1.390 . S
C1755 C1754 1.387 . S
C1755 C1757 1.387 . S
H1756 C1763 0.950 . S
C1757 C1755 1.387 . S
C1757 C1759 1.390 . S
C1757 H1761 0.950 . S
H1758 C1754 0.950 . S
C1759 C1757 1.390 . S
C1759 C1760 1.387 . S
C1759 H1762 0.950 . S
C1760 C1759 1.387 . S
C1760 C1763 1.387 . S
H1761 C1757 0.950 . S
H1762 C1759 0.950 . S
C1763 C1754 1.390 . S
C1763 H1756 0.950 . S
C1763 C1760 1.387 . S
C1764 C1765 1.387 . S
C1764 H1768 0.950 . S
C1764 C1773 1.390 . S
C1765 C1764 1.387 . S
C1765 C1767 1.387 . S
H1766 C1773 0.950 . S
C1767 C1765 1.387 . S
C1767 C1769 1.390 . S
C1767 H1771 0.950 . S
H1768 C1764 0.950 . S
C1769 C1767 1.390 . S
C1769 C1770 1.387 . S
C1769 H1772 0.950 . S
C1770 C1769 1.387 . S
C1770 C1773 1.387 . S
H1771 C1767 0.950 . S
H1772 C1769 0.950 . S
C1773 C1764 1.390 . S
C1773 H1766 0.950 . S
C1773 C1770 1.387 . S
C1774 C1775 1.387 . S
C1774 H1778 0.950 . S
C1774 C1783 1.390 . S
C1775 C1774 1.387 . S
C1775 C1777 1.387 . S
H1776 C1783 0.950 . S
C1777 C1775 1.387 . S
C1777 C1779 1.390 . S
C1777 H1781 0.950 . S
H1778 C1774 0.950 . S
C1779 C1777 1.390 . S
C1779 C1780 1.387 . S
C1779 H1782 0.950 . S
C1780 C1779 1.387 . S
C1780 C1783 1.387 . S
H1781 C1777 0.950 . S
H1782 C1779 0.950 . S
C1783 C1774 1.390 . S
C1783 H1776 0.950 . S
C1783 C1780 1.387 . S
C1784 C1785 1.387 . S
C1784 H1788 0.950 . S
C1784 C1793 1.390 . S
C1785 C1784 1.387 . S
C1785 C1787 1.387 . S
H1786 C1793 0.950 . S
C1787 C1785 1.387 . S
C1787 C1789 1.390 . S
C1787 H1791 0.950 . S
H1788 C1784 0.950 . S
C1789 C1787 1.390 . S
C1789 C1790 1.387 . S
C1789 H1792 0.950 . S
C1790 C1789 1.387 . S
C1790 C1793 1.387 . S
H1791 C1787 0.950 . S
H1792 C1789 0.950 . S
C1793 C1784 1.390 . S
C1793 H1786 0.950 . S
C1793 C1790 1.387 . S
C1794 C1795 1.387 . S
C1794 H1798 0.950 . S
C1794 C1803 1.390 . S
C1795 C1794 1.387 . S
C1795 C1797 1.387 . S
H1796 C1803 0.950 . S
C1797 C1795 1.387 . S
C1797 C1799 1.390 . S
C1797 H1801 0.950 . S
H1798 C1794 0.950 . S
C1799 C1797 1.390 . S
C1799 C1800 1.387 . S
C1799 H1802 0.950 . S
C1800 C1799 1.387 . S
C1800 C1803 1.387 . S
H1801 C1797 0.950 . S
H1802 C1799 0.950 . S
C1803 C1794 1.390 . S
C1803 H1796 0.950 . S
C1803 C1800 1.387 . S
C1804 C1805 1.387 . S
C1804 H1808 0.950 . S
C1804 C1813 1.390 . S
C1805 C1804 1.387 . S
C1805 C1807 1.387 . S
H1806 C1813 0.950 . S
C1807 C1805 1.387 . S
C1807 C1809 1.390 . S
C1807 H1811 0.950 . S
H1808 C1804 0.950 . S
C1809 C1807 1.390 . S
C1809 C1810 1.387 . S
C1809 H1812 0.950 . S
C1810 C1809 1.387 . S
C1810 C1813 1.387 . S
H1811 C1807 0.950 . S
H1812 C1809 0.950 . S
C1813 C1804 1.390 . S
C1813 H1806 0.950 . S
C1813 C1810 1.387 . S
C1814 C1815 1.387 . S
C1814 H1818 0.950 . S
C1814 C1823 1.390 . S
C1815 C1814 1.387 . S
C1815 C1817 1.387 . S
H1816 C1823 0.950 . S
C1817 C1815 1.387 . S
C1817 C1819 1.390 . S
C1817 H1821 0.950 . S
H1818 C1814 0.950 . S
C1819 C1817 1.390 . S
C1819 C1820 1.387 . S
C1819 H1822 0.950 . S
C1820 C1819 1.387 . S
C1820 C1823 1.387 . S
H1821 C1817 0.950 . S
H1822 C1819 0.950 . S
C1823 C1814 1.390 . S
C1823 H1816 0.950 . S
C1823 C1820 1.387 . S
C1824 C1825 1.387 . S
C1824 H1828 0.950 . S
C1824 C1833 1.390 . S
C1825 C1824 1.387 . S
C1825 C1827 1.387 . S
H1826 C1833 0.950 . S
C1827 C1825 1.387 . S
C1827 C1829 1.390 . S
C1827 H1831 0.950 . S
H1828 C1824 0.950 . S
C1829 C1827 1.390 . S
C1829 C1830 1.387 . S
C1829 H1832 0.950 . S
C1830 C1829 1.387 . S
C1830 C1833 1.387 . S
H1831 C1827 0.950 . S
H1832 C1829 0.950 . S
C1833 C1824 1.390 . S
C1833 H1826 0.950 . S
C1833 C1830 1.387 . S
C1834 C1835 1.387 . S
C1834 H1838 0.950 . S
C1834 C1843 1.390 . S
C1835 C1834 1.387 . S
C1835 C1837 1.387 . S
H1836 C1843 0.950 . S
C1837 C1835 1.387 . S
C1837 C1839 1.390 . S
C1837 H1841 0.950 . S
H1838 C1834 0.950 . S
C1839 C1837 1.390 . S
C1839 C1840 1.387 . S
C1839 H1842 0.950 . S
C1840 C1839 1.387 . S
C1840 C1843 1.387 . S
H1841 C1837 0.950 . S
H1842 C1839 0.950 . S
C1843 C1834 1.390 . S
C1843 H1836 0.950 . S
C1843 C1840 1.387 . S
C1844 C1845 1.387 . S
C1844 H1848 0.950 . S
C1844 C1853 1.390 . S
C1845 C1844 1.387 . S
C1845 C1847 1.387 . S
H1846 C1853 0.950 . S
C1847 C1845 1.387 . S
C1847 C1849 1.390 . S
C1847 H1851 0.950 . S
H1848 C1844 0.950 . S
C1849 C1847 1.390 . S
C1849 C1850 1.387 . S
C1849 H1852 0.950 . S
C1850 C1849 1.387 . S
C1850 C1853 1.387 . S
H1851 C1847 0.950 . S
H1852 C1849 0.950 . S
C1853 C1844 1.390 . S
C1853 H1846 0.950 . S
C1853 C1850 1.387 . S
C1854 C1855 1.387 . S
C1854 H1858 0.950 . S
C1854 C1863 1.390 . S
C1855 C1854 1.387 . S
C1855 C1857 1.387 . S
H1856 C1863 0.950 . S
C1857 C1855 1.387 . S
C1857 C1859 1.390 . S
C1857 H1861 0.950 . S
H1858 C1854 0.950 . S
C1859 C1857 1.390 . S
C1859 C1860 1.387 . S
C1859 H1862 0.950 . S
C1860 C1859 1.387 . S
C1860 C1863 1.387 . S
H1861 C1857 0.950 . S
H1862 C1859 0.950 . S
C1863 C1854 1.390 . S
C1863 H1856 0.950 . S
C1863 C1860 1.387 . S
C1864 C1865 1.387 . S
C1864 H1868 0.950 . S
C1864 C1873 1.390 . S
C1865 C1864 1.387 . S
C1865 C1867 1.387 . S
H1866 C1873 0.950 . S
C1867 C1865 1.387 . S
C1867 C1869 1.390 . S
C1867 H1871 0.950 . S
H1868 C1864 0.950 . S
C1869 C1867 1.390 . S
C1869 C1870 1.387 . S
C1869 H1872 0.950 . S
C1870 C1869 1.387 . S
C1870 C1873 1.387 . S
H1871 C1867 0.950 . S
H1872 C1869 0.950 . S
C1873 C1864 1.390 . S
C1873 H1866 0.950 . S
C1873 C1870 1.387 . S
C1874 C1875 1.387 . S
C1874 H1878 0.950 . S
C1874 C1883 1.390 . S
C1875 C1874 1.387 . S
C1875 C1877 1.387 . S
H1876 C1883 0.950 . S
C1877 C1875 1.387 . S
C1877 C1879 1.390 . S
C1877 H1881 0.950 . S
H1878 C1874 0.950 . S
C1879 C1877 1.390 . S
C1879 C1880 1.387 . S
C1879 H1882 0.950 . S
C1880 C1879 1.387 . S
C1880 C1883 1.387 . S
H1881 C1877 0.950 . S
H1882 C1879 0.950 . S
C1883 C1874 1.390 . S
C1883 H1876 0.950 . S
C1883 C1880 1.387 . S
C1884 C1885 1.387 . S
C1884 H1888 0.950 . S
C1884 C1893 1.390 . S
C1885 C1884 1.387 . S
C1885 C1887 1.387 . S
H1886 C1893 0.950 . S
C1887 C1885 1.387 . S
C1887 C1889 1.390 . S
C1887 H1891 0.950 . S
H1888 C1884 0.950 . S
C1889 C1887 1.390 . S
C1889 C1890 1.387 . S
C1889 H1892 0.950 . S
C1890 C1889 1.387 . S
C1890 C1893 1.387 . S
H1891 C1887 0.950 . S
H1892 C1889 0.950 . S
C1893 C1884 1.390 . S
C1893 H1886 0.950 . S
C1893 C1890 1.387 . S
C1894 C1895 1.387 . S
C1894 H1898 0.950 . S
C1894 C1903 1.390 . S
C1895 C1894 1.387 . S
C1895 C1897 1.387 . S
H1896 C1903 0.950 . S
C1897 C1895 1.387 . S
C1897 C1899 1.390 . S
C1897 H1901 0.950 . S
H1898 C1894 0.950 . S
C1899 C1897 1.390 . S
C1899 C1900 1.387 . S
C1899 H1902 0.950 . S
C1900 C1899 1.387 . S
C1900 C1903 1.387 . S
H1901 C1897 0.950 . S
H1902 C1899 0.950 . S
C1903 C1894 1.390 . S
C1903 H1896 0.950 . S
C1903 C1900 1.387 . S
C1904 C1905 1.387 . S
C1904 H1908 0.950 . S
C1904 C1913 1.390 . S
C1905 C1904 1.387 . S
C1905 C1907 1.387 . S
H1906 C1913 0.950 . S
C1907 C1905 1.387 . S
C1907 C1909 1.390 . S
C1907 H1911 0.950 . S
H1908 C1904 0.950 . S
C1909 C1907 1.390 . S
C1909 C1910 1.387 . S
C1909 H1912 0.950 . S
C1910 C1909 1.387 . S
C1910 C1913 1.387 . S
H1911 C1907 0.950 . S
H1912 C1909 0.950 . S
C1913 C1904 1.390 . S
C1913 H1906 0.950 . S
C1913 C1910 1.387 . S
C1914 C1915 1.387 . S
C1914 H1918 0.950 . S
C1914 C1923 1.390 . S
C1915 C1914 1.387 . S
C1915 C1917 1.387 . S
H1916 C1923 0.950 . S
C1917 C1915 1.387 . S
C1917 C1919 1.390 . S
C1917 H1921 0.950 . S
H1918 C1914 0.950 . S
C1919 C1917 1.390 . S
C1919 C1920 1.387 . S
C1919 H1922 0.950 . S
C1920 C1919 1.387 . S
C1920 C1923 1.387 . S
H1921 C1917 0.950 . S
H1922 C1919 0.950 . S
C1923 C1914 1.390 . S
C1923 H1916 0.950 . S
C1923 C1920 1.387 . S
C1924 C1925 1.387 . S
C1924 H1928 0.950 . S
C1924 C1933 1.390 . S
C1925 C1924 1.387 . S
C1925 C1927 1.387 . S
H1926 C1933 0.950 . S
C1927 C1925 1.387 . S
C1927 C1929 1.390 . S
C1927 H1931 0.950 . S
H1928 C1924 0.950 . S
C1929 C1927 1.390 . S
C1929 C1930 1.387 . S
C1929 H1932 0.950 . S
C1930 C1929 1.387 . S
C1930 C1933 1.387 . S
H1931 C1927 0.950 . S
H1932 C1929 0.950 . S
C1933 C1924 1.390 . S
C1933 H1926 0.950 . S
C1933 C1930 1.387 . S
C1934 C1935 1.387 . S
C1934 H1938 0.950 . S
C1934 C1943 1.390 . S
C1935 C1934 1.387 . S
C1935 C1937 1.387 . S
H1936 C1943 0.950 . S
C1937 C1935 1.387 . S
C1937 C1939 1.390 . S
C1937 H1941 0.950 . S
H1938 C1934 0.950 . S
C1939 C1937 1.390 . S
C1939 C1940 1.387 . S
C1939 H1942 0.950 . S
C1940 C1939 1.387 . S
C1940 C1943 1.387 . S
H1941 C1937 0.950 . S
H1942 C1939 0.950 . S
C1943 C1934 1.390 . S
C1943 H1936 0.950 . S
C1943 C1940 1.387 . S
C1944 C1945 1.387 . S
C1944 H1948 0.950 . S
C1944 C1953 1.390 . S
C1945 C1944 1.387 . S
C1945 C1947 1.387 . S
H1946 C1953 0.950 . S
C1947 C1945 1.387 . S
C1947 C1949 1.390 . S
C1947 H1951 0.950 . S
H1948 C1944 0.950 . S
C1949 C1947 1.390 . S
C1949 C1950 1.387 . S
C1949 H1952 0.950 . S
C1950 C1949 1.387 . S
C1950 C1953 1.387 . S
H1951 C1947 0.950 . S
H1952 C1949 0.950 . S
C1953 C1944 1.390 . S
C1953 H1946 0.950 . S
C1953 C1950 1.387 . S
C1954 C1955 1.387 . S
C1954 H1958 0.950 . S
C1954 C1963 1.390 . S
C1955 C1954 1.387 . S
C1955 C1957 1.387 . S
H1956 C1963 0.950 . S
C1957 C1955 1.387 . S
C1957 C1959 1.390 . S
C1957 H1961 0.950 . S
H1958 C1954 0.950 . S
C1959 C1957 1.390 . S
C1959 C1960 1.387 . S
C1959 H1962 0.950 . S
C1960 C1959 1.387 . S
C1960 C1963 1.387 . S
H1961 C1957 0.950 . S
H1962 C1959 0.950 . S
C1963 C1954 1.390 . S
C1963 H1956 0.950 . S
C1963 C1960 1.387 . S
C1964 C1965 1.387 . S
C1964 H1968 0.950 . S
C1964 C1973 1.390 . S
C1965 C1964 1.387 . S
C1965 C1967 1.387 . S
H1966 C1973 0.950 . S
C1967 C1965 1.387 . S
C1967 C1969 1.390 . S
C1967 H1971 0.950 . S
H1968 C1964 0.950 . S
C1969 C1967 1.390 . S
C1969 C1970 1.387 . S
C1969 H1972 0.950 . S
C1970 C1969 1.387 . S
C1970 C1973 1.387 . S
H1971 C1967 0.950 . S
H1972 C1969 0.950 . S
C1973 C1964 1.390 . S
C1973 H1966 0.950 . S
C1973 C1970 1.387 . S
C1974 C1975 1.387 . S
C1974 H1978 0.950 . S
C1974 C1983 1.390 . S
C1975 C1974 1.387 . S
C1975 C1977 1.387 . S
H1976 C1983 0.950 . S
C1977 C1975 1.387 . S
C1977 C1979 1.390 . S
C1977 H1981 0.950 . S
H1978 C1974 0.950 . S
C1979 C1977 1.390 . S
C1979 C1980 1.387 . S
C1979 H1982 0.950 . S
C1980 C1979 1.387 . S
C1980 C1983 1.387 . S
H1981 C1977 0.950 . S
H1982 C1979 0.950 . S
C1983 C1974 1.390 . S
C1983 H1976 0.950 . S
C1983 C1980 1.387 . S
C1984 C1985 1.387 . S
C1984 H1988 0.950 . S
C1984 C1993 1.390 . S
C1985 C1984 1.387 . S
C1985 C1987 1.387 . S
H1986 C1993 0.950 . S
C1987 C1985 1.387 . S
C1987 C1989 1.390 . S
C1987 H1991 0.950 . S
H1988 C1984 0.950 . S
C1989 C1987 1.390 . S
C1989 C1990 1.387 . S
C1989 H1992 0.950 . S
C1990 C1989 1.387 . S
C1990 C1993 1.387 . S
H1991 C1987 0.950 . S
H1992 C1989 0.950 . S
C1993 C1984 1.390 . S
C1993 H1986 0.950 . S
C1993 C1990 1.387 . S
C1994 C1995 1.387 . S
C1994 H1998 0.950 . S
C1994 C2003 1.390 . S
C1995 C1994 1.387 . S
C1995 C1997 1.387 1_554 S
H1996 C2003 0.950 . S
C1997 C1995 1.387 1_556 S
C1997 C1999 1.390 . S
C1997 H2001 0.950 . S
H1998 C1994 0.950 . S
C1999 C1997 1.390 . S
C1999 C2000 1.387 . S
C1999 H2002 0.950 . S
C2000 C1999 1.387 . S
C2000 C2003 1.387 1_556 S
H2001 C1997 0.950 . S
H2002 C1999 0.950 . S
C2003 C1994 1.390 . S
C2003 H1996 0.950 . S
C2003 C2000 1.387 1_554 S
C2004 C2005 1.387 . S
C2004 H2008 0.950 1_556 S
C2004 C2013 1.390 . S
C2005 C2004 1.387 . S
C2005 C2007 1.387 . S
H2006 C2013 0.950 . S
C2007 C2005 1.387 . S
C2007 C2009 1.390 . S
C2007 H2011 0.950 . S
H2008 C2004 0.950 1_554 S
C2009 C2007 1.390 . S
C2009 C2010 1.387 . S
C2009 H2012 0.950 . S
C2010 C2009 1.387 . S
C2010 C2013 1.387 . S
H2011 C2007 0.950 . S
H2012 C2009 0.950 . S
C2013 C2004 1.390 . S
C2013 H2006 0.950 . S
C2013 C2010 1.387 . S
C2014 C2015 1.387 . S
C2014 H2018 0.950 . S
C2014 C2023 1.390 . S
C2015 C2014 1.387 . S
C2015 C2017 1.387 . S
H2016 C2023 0.950 . S
C2017 C2015 1.387 . S
C2017 C2019 1.390 . S
C2017 H2021 0.950 . S
H2018 C2014 0.950 . S
C2019 C2017 1.390 . S
C2019 C2020 1.387 . S
C2019 H2022 0.950 . S
C2020 C2019 1.387 . S
C2020 C2023 1.387 . S
H2021 C2017 0.950 . S
H2022 C2019 0.950 . S
C2023 C2014 1.390 . S
C2023 H2016 0.950 . S
C2023 C2020 1.387 . S
C2024 C2025 1.404 . S
C2024 H2028 0.950 . S
C2024 C2033 1.390 . S
C2025 C2024 1.404 . S
C2025 C2027 1.384 1_556 S
H2026 C2033 0.950 . S
C2027 C2025 1.384 1_554 S
C2027 C2029 1.390 1_554 S
C2027 H2031 0.950 . S
H2028 C2024 0.950 . S
C2029 C2027 1.390 1_556 S
C2029 C2030 1.387 . S
C2029 H2032 0.950 . S
C2030 C2029 1.387 . S
C2030 C2033 1.387 . S
H2031 C2027 0.950 . S
H2032 C2029 0.950 . S
C2033 C2024 1.390 . S
C2033 H2026 0.950 . S
C2033 C2030 1.387 . S
C2034 C2035 1.387 . S
C2034 H2038 0.950 . S
C2034 C2043 1.390 . S
C2035 C2034 1.387 . S
C2035 C2037 1.387 . S
H2036 C2043 0.950 . S
C2037 C2035 1.387 . S
C2037 C2039 1.390 . S
C2037 H2041 0.950 . S
H2038 C2034 0.950 . S
C2039 C2037 1.390 . S
C2039 C2040 1.387 . S
C2039 H2042 0.950 . S
C2040 C2039 1.387 . S
C2040 C2043 1.387 . S
H2041 C2037 0.950 . S
H2042 C2039 0.950 . S
C2043 C2034 1.390 . S
C2043 H2036 0.950 . S
C2043 C2040 1.387 . S
C2044 C2045 1.387 . S
C2044 H2048 0.950 . S
C2044 C2053 1.390 . S
C2045 C2044 1.387 . S
C2045 C2047 1.387 . S
H2046 C2053 0.950 . S
C2047 C2045 1.387 . S
C2047 C2049 1.390 . S
C2047 H2051 0.950 . S
H2048 C2044 0.950 . S
C2049 C2047 1.390 . S
C2049 C2050 1.387 . S
C2049 H2052 0.950 . S
C2050 C2049 1.387 . S
C2050 C2053 1.387 . S
H2051 C2047 0.950 . S
H2052 C2049 0.950 . S
C2053 C2044 1.390 . S
C2053 H2046 0.950 . S
C2053 C2050 1.387 . S
C2054 C2055 1.387 . S
C2054 H2058 0.950 . S
C2054 C2063 1.390 . S
C2055 C2054 1.387 . S
C2055 C2057 1.387 . S
H2056 C2063 0.950 . S
C2057 C2055 1.387 . S
C2057 C2059 1.390 . S
C2057 H2061 0.950 . S
H2058 C2054 0.950 . S
C2059 C2057 1.390 . S
C2059 C2060 1.387 . S
C2059 H2062 0.950 . S
C2060 C2059 1.387 . S
C2060 C2063 1.387 . S
H2061 C2057 0.950 . S
H2062 C2059 0.950 . S
C2063 C2054 1.390 . S
C2063 H2056 0.950 . S
C2063 C2060 1.387 . S
C2064 C2065 1.387 . S
C2064 H2068 0.950 . S
C2064 C2073 1.390 . S
C2065 C2064 1.387 . S
C2065 C2067 1.387 . S
H2066 C2073 0.950 . S
C2067 C2065 1.387 . S
C2067 C2069 1.390 . S
C2067 H2071 0.950 . S
H2068 C2064 0.950 . S
C2069 C2067 1.390 . S
C2069 C2070 1.387 . S
C2069 H2072 0.950 . S
C2070 C2069 1.387 . S
C2070 C2073 1.387 . S
H2071 C2067 0.950 . S
H2072 C2069 0.950 . S
C2073 C2064 1.390 . S
C2073 H2066 0.950 . S
C2073 C2070 1.387 . S
C2074 C2075 1.387 . S
C2074 H2078 0.950 . S
C2074 C2083 1.390 . S
C2075 C2074 1.387 . S
C2075 C2077 1.387 . S
H2076 C2083 0.950 . S
C2077 C2075 1.387 . S
C2077 C2079 1.390 . S
C2077 H2081 0.950 . S
H2078 C2074 0.950 . S
C2079 C2077 1.390 . S
C2079 C2080 1.387 . S
C2079 H2082 0.950 . S
C2080 C2079 1.387 . S
C2080 C2083 1.387 . S
H2081 C2077 0.950 . S
H2082 C2079 0.950 . S
C2083 C2074 1.390 . S
C2083 H2076 0.950 . S
C2083 C2080 1.387 . S
C2084 C2085 1.387 . S
C2084 H2088 0.950 . S
C2084 C2093 1.390 . S
C2085 C2084 1.387 . S
C2085 C2087 1.387 . S
H2086 C2093 0.950 . S
C2087 C2085 1.387 . S
C2087 C2089 1.390 . S
C2087 H2091 0.950 . S
H2088 C2084 0.950 . S
C2089 C2087 1.390 . S
C2089 C2090 1.387 . S
C2089 H2092 0.950 . S
C2090 C2089 1.387 . S
C2090 C2093 1.387 . S
H2091 C2087 0.950 . S
H2092 C2089 0.950 . S
C2093 C2084 1.390 . S
C2093 H2086 0.950 . S
C2093 C2090 1.387 . S
C2094 C2095 1.387 . S
C2094 H2098 0.950 . S
C2094 C2103 1.390 . S
C2095 C2094 1.387 . S
C2095 C2097 1.387 . S
H2096 C2103 0.950 . S
C2097 C2095 1.387 . S
C2097 C2099 1.390 . S
C2097 H2101 0.950 . S
H2098 C2094 0.950 . S
C2099 C2097 1.390 . S
C2099 C2100 1.387 . S
C2099 H2102 0.950 . S
C2100 C2099 1.387 . S
C2100 C2103 1.387 . S
H2101 C2097 0.950 . S
H2102 C2099 0.950 . S
C2103 C2094 1.390 . S
C2103 H2096 0.950 . S
C2103 C2100 1.387 . S
C2104 C2105 1.387 . S
C2104 H2108 0.950 . S
C2104 C2113 1.390 . S
C2105 C2104 1.387 . S
C2105 C2107 1.387 . S
H2106 C2113 0.950 . S
C2107 C2105 1.387 . S
C2107 C2109 1.390 . S
C2107 H2111 0.950 . S
H2108 C2104 0.950 . S
C2109 C2107 1.390 . S
C2109 C2110 1.387 . S
C2109 H2112 0.950 . S
C2110 C2109 1.387 . S
C2110 C2113 1.387 . S
H2111 C2107 0.950 . S
H2112 C2109 0.950 . S
C2113 C2104 1.390 . S
C2113 H2106 0.950 . S
C2113 C2110 1.387 . S
C2114 C2115 1.387 . S
C2114 H2118 0.950 . S
C2114 C2123 1.390 . S
C2115 C2114 1.387 . S
C2115 C2117 1.387 . S
H2116 C2123 0.950 . S
C2117 C2115 1.387 . S
C2117 C2119 1.390 . S
C2117 H2121 0.950 1_565 S
H2118 C2114 0.950 . S
C2119 C2117 1.390 . S
C2119 C2120 1.387 . S
C2119 H2122 0.950 1_565 S
C2120 C2119 1.387 . S
C2120 C2123 1.387 . S
H2121 C2117 0.950 1_545 S
H2122 C2119 0.950 1_545 S
C2123 C2114 1.390 . S
C2123 H2116 0.950 . S
C2123 C2120 1.387 . S
C2124 C2125 1.384 . S
C2124 H2128 0.951 1_565 S
C2124 C2133 1.393 1_565 S
C2125 C2124 1.384 . S
C2125 C2127 1.387 . S
H2126 C2133 0.950 . S
C2127 C2125 1.387 . S
C2127 C2129 1.390 . S
C2127 H2131 0.950 . S
H2128 C2124 0.951 1_545 S
C2129 C2127 1.390 . S
C2129 C2130 1.387 . S
C2129 H2132 0.950 . S
C2130 C2129 1.387 . S
C2130 C2133 1.387 1_565 S
H2131 C2127 0.950 . S
H2132 C2129 0.950 . S
C2133 C2124 1.393 1_545 S
C2133 H2126 0.950 . S
C2133 C2130 1.387 1_545 S
C2134 C2135 1.387 . S
C2134 H2138 0.950 . S
C2134 C2143 1.390 . S
C2135 C2134 1.387 . S
C2135 C2137 1.387 1_455 S
H2136 C2143 0.950 . S
C2137 C2135 1.387 1_655 S
C2137 C2139 1.390 . S
C2137 H2141 0.950 . S
H2138 C2134 0.950 . S
C2139 C2137 1.390 . S
C2139 C2140 1.387 1_655 S
C2139 H2142 0.950 . S
C2140 C2139 1.387 1_455 S
C2140 C2143 1.387 . S
H2141 C2137 0.950 . S
H2142 C2139 0.950 . S
C2143 C2134 1.390 . S
C2143 H2136 0.950 . S
C2143 C2140 1.387 . S
C2144 C2145 1.387 . S
C2144 H2148 0.950 . S
C2144 C2153 1.390 . S
C2145 C2144 1.387 . S
C2145 C2147 1.387 . S
H2146 C2153 0.950 . S
C2147 C2145 1.387 . S
C2147 C2149 1.390 . S
C2147 H2151 0.950 . S
H2148 C2144 0.950 . S
C2149 C2147 1.390 . S
C2149 C2150 1.387 . S
C2149 H2152 0.950 . S
C2150 C2149 1.387 . S
C2150 C2153 1.387 . S
H2151 C2147 0.950 . S
H2152 C2149 0.950 . S
C2153 C2144 1.390 . S
C2153 H2146 0.950 . S
C2153 C2150 1.387 . S
C2154 C2155 1.387 . S
C2154 H2158 0.950 . S
C2154 C2163 1.390 . S
C2155 C2154 1.387 . S
C2155 C2157 1.387 . S
H2156 C2163 0.950 . S
C2157 C2155 1.387 . S
C2157 C2159 1.390 . S
C2157 H2161 0.950 . S
H2158 C2154 0.950 . S
C2159 C2157 1.390 . S
C2159 C2160 1.387 . S
C2159 H2162 0.950 . S
C2160 C2159 1.387 . S
C2160 C2163 1.387 . S
H2161 C2157 0.950 . S
H2162 C2159 0.950 . S
C2163 C2154 1.390 . S
C2163 H2156 0.950 . S
C2163 C2160 1.387 . S
C2164 C2165 1.387 . S
C2164 H2168 0.950 . S
C2164 C2173 1.390 . S
C2165 C2164 1.387 . S
C2165 C2167 1.387 . S
H2166 C2173 0.950 . S
C2167 C2165 1.387 . S
C2167 C2169 1.390 . S
C2167 H2171 0.950 . S
H2168 C2164 0.950 . S
C2169 C2167 1.390 . S
C2169 C2170 1.387 . S
C2169 H2172 0.950 . S
C2170 C2169 1.387 . S
C2170 C2173 1.387 . S
H2171 C2167 0.950 . S
H2172 C2169 0.950 . S
C2173 C2164 1.390 . S
C2173 H2166 0.950 . S
C2173 C2170 1.387 . S
C2174 C2175 1.387 . S
C2174 H2178 0.950 . S
C2174 C2183 1.390 . S
C2175 C2174 1.387 . S
C2175 C2177 1.387 . S
H2176 C2183 0.950 . S
C2177 C2175 1.387 . S
C2177 C2179 1.390 . S
C2177 H2181 0.950 . S
H2178 C2174 0.950 . S
C2179 C2177 1.390 . S
C2179 C2180 1.387 . S
C2179 H2182 0.950 . S
C2180 C2179 1.387 . S
C2180 C2183 1.387 . S
H2181 C2177 0.950 . S
H2182 C2179 0.950 . S
C2183 C2174 1.390 . S
C2183 H2176 0.950 . S
C2183 C2180 1.387 . S
C2184 C2185 1.387 . S
C2184 H2188 0.950 1_545 S
C2184 C2193 1.390 . S
C2185 C2184 1.387 . S
C2185 C2187 1.387 . S
H2186 C2193 0.950 1_565 S
C2187 C2185 1.387 . S
C2187 C2189 1.390 . S
C2187 H2191 0.950 . S
H2188 C2184 0.950 1_565 S
C2189 C2187 1.390 . S
C2189 C2190 1.387 . S
C2189 H2192 0.950 . S
C2190 C2189 1.387 . S
C2190 C2193 1.387 . S
H2191 C2187 0.950 . S
H2192 C2189 0.950 . S
C2193 C2184 1.390 . S
C2193 H2186 0.950 1_545 S
C2193 C2190 1.387 . S
C2194 C2195 1.387 . S
C2194 H2198 0.950 1_655 S
C2194 C2203 1.390 . S
C2195 C2194 1.387 . S
C2195 C2197 1.387 . S
H2196 C2203 0.950 1_455 S
C2197 C2195 1.387 . S
C2197 C2199 1.390 . S
C2197 H2201 0.950 . S
H2198 C2194 0.950 1_455 S
C2199 C2197 1.390 . S
C2199 C2200 1.387 . S
C2199 H2202 0.950 . S
C2200 C2199 1.387 . S
C2200 C2203 1.387 . S
H2201 C2197 0.950 . S
H2202 C2199 0.950 . S
C2203 C2194 1.390 . S
C2203 H2196 0.950 1_655 S
C2203 C2200 1.387 . S
C2204 C2205 1.387 . S
C2204 H2208 0.950 . S
C2204 C2213 1.390 . S
C2205 C2204 1.387 . S
C2205 C2207 1.387 . S
H2206 C2213 0.950 . S
C2207 C2205 1.387 . S
C2207 C2209 1.390 . S
C2207 H2211 0.950 . S
H2208 C2204 0.950 . S
C2209 C2207 1.390 . S
C2209 C2210 1.387 . S
C2209 H2212 0.950 . S
C2210 C2209 1.387 . S
C2210 C2213 1.387 . S
H2211 C2207 0.950 . S
H2212 C2209 0.950 . S
C2213 C2204 1.390 . S
C2213 H2206 0.950 . S
C2213 C2210 1.387 . S
C2214 C2215 1.387 . S
C2214 H2218 0.950 . S
C2214 C2223 1.390 . S
C2215 C2214 1.387 . S
C2215 C2217 1.387 . S
H2216 C2223 0.950 . S
C2217 C2215 1.387 . S
C2217 C2219 1.390 . S
C2217 H2221 0.950 . S
H2218 C2214 0.950 . S
C2219 C2217 1.390 . S
C2219 C2220 1.387 . S
C2219 H2222 0.950 . S
C2220 C2219 1.387 . S
C2220 C2223 1.387 . S
H2221 C2217 0.950 . S
H2222 C2219 0.950 . S
C2223 C2214 1.390 . S
C2223 H2216 0.950 . S
C2223 C2220 1.387 . S
C2224 C2225 1.387 . S
C2224 H2228 0.950 . S
C2224 C2233 1.390 . S
C2225 C2224 1.387 . S
C2225 C2227 1.387 . S
H2226 C2233 0.950 . S
C2227 C2225 1.387 . S
C2227 C2229 1.390 . S
C2227 H2231 0.950 . S
H2228 C2224 0.950 . S
C2229 C2227 1.390 . S
C2229 C2230 1.387 . S
C2229 H2232 0.950 . S
C2230 C2229 1.387 . S
C2230 C2233 1.387 . S
H2231 C2227 0.950 . S
H2232 C2229 0.950 . S
C2233 C2224 1.390 . S
C2233 H2226 0.950 . S
C2233 C2230 1.387 . S
C2234 C2235 1.387 . S
C2234 H2238 0.950 . S
C2234 C2243 1.390 . S
C2235 C2234 1.387 . S
C2235 C2237 1.387 . S
H2236 C2243 0.950 . S
C2237 C2235 1.387 . S
C2237 C2239 1.390 . S
C2237 H2241 0.950 . S
H2238 C2234 0.950 . S
C2239 C2237 1.390 . S
C2239 C2240 1.387 . S
C2239 H2242 0.950 . S
C2240 C2239 1.387 . S
C2240 C2243 1.387 . S
H2241 C2237 0.950 . S
H2242 C2239 0.950 . S
C2243 C2234 1.390 . S
C2243 H2236 0.950 . S
C2243 C2240 1.387 . S
C2244 C2245 1.387 . S
C2244 H2248 0.950 . S
C2244 C2253 1.390 . S
C2245 C2244 1.387 . S
C2245 C2247 1.387 . S
H2246 C2253 0.950 . S
C2247 C2245 1.387 . S
C2247 C2249 1.390 . S
C2247 H2251 0.950 . S
H2248 C2244 0.950 . S
C2249 C2247 1.390 . S
C2249 C2250 1.387 . S
C2249 H2252 0.950 . S
C2250 C2249 1.387 . S
C2250 C2253 1.387 . S
H2251 C2247 0.950 . S
H2252 C2249 0.950 . S
C2253 C2244 1.390 . S
C2253 H2246 0.950 . S
C2253 C2250 1.387 . S
C2254 C2255 1.387 . S
C2254 H2258 0.950 . S
C2254 C2263 1.390 . S
C2255 C2254 1.387 . S
C2255 C2257 1.387 . S
H2256 C2263 0.950 . S
C2257 C2255 1.387 . S
C2257 C2259 1.390 . S
C2257 H2261 0.950 . S
H2258 C2254 0.950 . S
C2259 C2257 1.390 . S
C2259 C2260 1.387 . S
C2259 H2262 0.950 . S
C2260 C2259 1.387 . S
C2260 C2263 1.387 . S
H2261 C2257 0.950 . S
H2262 C2259 0.950 . S
C2263 C2254 1.390 . S
C2263 H2256 0.950 . S
C2263 C2260 1.387 . S
C2264 C2265 1.387 . S
C2264 H2268 0.950 . S
C2264 C2273 1.390 . S
C2265 C2264 1.387 . S
C2265 C2267 1.387 . S
H2266 C2273 0.950 . S
C2267 C2265 1.387 . S
C2267 C2269 1.390 . S
C2267 H2271 0.950 . S
H2268 C2264 0.950 . S
C2269 C2267 1.390 . S
C2269 C2270 1.387 . S
C2269 H2272 0.950 . S
C2270 C2269 1.387 . S
C2270 C2273 1.387 . S
H2271 C2267 0.950 . S
H2272 C2269 0.950 . S
C2273 C2264 1.390 . S
C2273 H2266 0.950 . S
C2273 C2270 1.387 . S
C2274 C2275 1.387 . S
C2274 H2278 0.950 . S
C2274 C2283 1.372 1_655 S
C2275 C2274 1.387 . S
C2275 C2277 1.387 . S
H2276 C2283 0.970 . S
C2277 C2275 1.387 . S
C2277 C2279 1.390 . S
C2277 H2281 0.950 . S
H2278 C2274 0.950 . S
C2279 C2277 1.390 . S
C2279 C2280 1.387 . S
C2279 H2282 0.950 . S
C2280 C2279 1.387 . S
C2280 C2283 1.385 1_655 S
H2281 C2277 0.950 . S
H2282 C2279 0.950 . S
C2283 C2274 1.372 1_455 S
C2283 H2276 0.970 . S
C2283 C2280 1.385 1_455 S
C2284 C2285 1.387 . S
C2284 H2288 0.950 . S
C2284 C2293 1.390 . S
C2285 C2284 1.387 . S
C2285 C2287 1.387 . S
H2286 C2293 0.950 . S
C2287 C2285 1.387 . S
C2287 C2289 1.390 . S
C2287 H2291 0.950 . S
H2288 C2284 0.950 . S
C2289 C2287 1.390 . S
C2289 C2290 1.387 . S
C2289 H2292 0.950 . S
C2290 C2289 1.387 . S
C2290 C2293 1.387 . S
H2291 C2287 0.950 . S
H2292 C2289 0.950 . S
C2293 C2284 1.390 . S
C2293 H2286 0.950 . S
C2293 C2290 1.387 . S
C2294 C2295 1.387 . S
C2294 H2298 0.950 . S
C2294 C2303 1.392 . S
C2295 C2294 1.387 . S
C2295 C2297 1.387 . S
H2296 C2303 0.942 1_565 S
C2297 C2295 1.387 . S
C2297 C2299 1.390 . S
C2297 H2301 0.950 . S
H2298 C2294 0.950 . S
C2299 C2297 1.390 . S
C2299 C2300 1.387 . S
C2299 H2302 0.950 . S
C2300 C2299 1.387 . S
C2300 C2303 1.397 . S
H2301 C2297 0.950 . S
H2302 C2299 0.950 . S
C2303 C2294 1.392 . S
C2303 H2296 0.942 1_545 S
C2303 C2300 1.397 . S
C1585 C8 1.405 1_655 S
C1590 C981 1.257 . S
C1595 C22 1.631 . S
C1600 C1061 1.580 . S
C1610 C1129 1.426 . S
C1605 C37 1.495 1_545 S
C1615 C36 1.740 . S
C1620 C1209 1.744 . S
C1625 C9 1.541 1_455 S
C1630 C1283 1.523 . S
C1635 C23 1.728 . S
C1640 C1351 1.590 . S
C1645 C50 1.262 1_456 S
C1650 C1277 1.192 . S
C1660 C1357 1.490 . S
C1655 C64 1.462 . S
C1670 C1203 1.379 . S
C1665 C79 1.374 1_566 S
C1675 C78 1.654 . S
C1680 C1135 1.712 1_545 S
C1690 C987 1.474 . S
C1685 C51 1.436 1_655 S
C1695 C65 1.495 . S
C1700 C1055 1.470 . S
C1705 C92 1.594 . S
C1710 C1425 1.393 . S
C1715 C106 1.678 . S
C1720 C1505 1.613 . S
C1730 C1573 1.563 . S
C1725 C121 1.692 . S
C1735 C120 1.905 . S
C1740 C321 1.848 . S
C1745 C93 1.700 . S
C1750 C395 1.627 . S
C1755 C107 1.754 . S
C1760 C463 1.615 . S
C1765 C134 1.286 . S
C1770 C389 1.209 . S
C1775 C148 1.489 . S
C1780 C469 1.513 . S
C1790 C315 1.431 . S
C1785 C163 1.446 . S
C1800 C1579 1.813 . S
C1795 C162 1.781 . S
C1810 C1431 1.522 . S
C1805 C135 1.515 . S
C1820 C1499 1.511 . S
C1815 C149 1.538 . S
C1825 C176 1.527 . S
C1830 C537 1.336 . S
C1835 C190 1.677 . S
C1840 C617 1.614 . S
C1845 C205 1.681 . S
C1850 C685 1.559 . S
C1855 C204 1.961 . S
C1860 C765 1.903 . S
C1870 C839 1.629 . S
C1865 C177 1.709 . S
C1880 C907 1.647 . S
C1875 C191 1.789 . S
C1890 C833 1.271 . S
C1885 C218 1.353 . S
C1900 C913 1.511 . S
C1895 C232 1.491 . S
C1905 C247 1.449 . S
C1910 C759 1.430 . S
C1920 C691 1.758 . S
C1915 C246 1.722 . S
C1925 C219 1.511 . S
C1930 C543 1.525 . S
C1940 C611 1.482 . S
C1935 C233 1.502 . S
C1950 C291 1.874 . S
C1945 C6 1.951 . S
C1955 C20 1.467 . S
C1960 C365 1.462 . S
C1970 C451 1.493 . S
C1965 C35 1.500 . S
C1980 C525 1.280 . S
C1975 C34 1.295 . S
C1990 C587 1.573 . S
C1985 C7 1.604 . S
C2000 C673 1.538 . S
C1995 C21 1.543 . S
C2005 C48 2.131 1_556 S
C2010 C661 1.971 . S
C2015 C62 1.674 . S
C2020 C513 1.573 . S
C2025 C77 1.734 1_556 S
C2030 C599 1.662 . S
C2035 C76 1.567 . S
C2040 C377 1.473 . S
C2050 C439 1.699 . S
C2045 C49 1.834 . S
C2055 C63 1.796 . S
C2060 C303 1.709 . S
C2070 C735 1.854 . S
C2065 C90 1.919 . S
C2075 C104 1.527 . S
C2080 C809 1.533 . S
C2085 C119 1.515 . S
C2090 C895 1.502 . S
C2100 C969 1.223 . S
C2095 C118 1.207 . S
C2105 C91 1.565 . S
C2110 C1031 1.548 . S
C2115 C105 1.469 . S
C2120 C1117 1.495 . S
C2125 C132 1.940 . S
C2130 C1105 1.832 1_565 S
C2135 C146 1.543 . S
C2140 C957 1.491 1_455 S
C2150 C1043 1.619 . S
C2145 C161 1.690 . S
C2155 C160 1.564 . S
C2160 C821 1.469 . S
C2165 C133 1.824 . S
C2170 C883 1.709 . S
C2180 C747 1.740 . S
C2175 C147 1.823 . S
C2190 C1179 1.797 . S
C2185 C174 1.841 . S
C2195 C188 1.420 . S
C2200 C1253 1.432 . S
C2205 C203 1.465 . S
C2210 C1339 1.467 . S
C2220 C1413 1.287 . S
C2215 C202 1.298 . S
C2230 C1475 1.596 . S
C2225 C175 1.608 . S
C2235 C189 1.578 . S
C2240 C1561 1.577 . S
C2245 C216 2.100 . S
C2250 C1549 1.944 . S
C2255 C230 1.725 . S
C2260 C1401 1.635 . S
C2270 C1487 1.657 . S
C2265 C245 1.772 . S
C2280 C1265 1.324 . S
C2275 C244 1.369 . S
C2290 C1327 1.662 . S
C2285 C217 1.777 . S
C2295 C231 1.607 . S
C2300 C1191 1.575 . S
