# Generated by pormake.
# Topology wbl, (4,4)-cn, num edge types: 1
# Building blocks:
#     Node 0, Type 0, BuildingBlock: NAWXER_clean_linker_0, # of connection points: 4
#     Node 1, Type 0, BuildingBlock: NAWXER_clean_linker_0, # of connection points: 4
#     Node 2, Type 0, BuildingBlock: NAWXER_clean_linker_0, # of connection points: 4
#     Node 3, Type 0, BuildingBlock: NAWXER_clean_linker_0, # of connection points: 4
#     Node 4, Type 0, BuildingBlock: NAWXER_clean_linker_0, # of connection points: 4
#     Node 5, Type 0, BuildingBlock: NAWXER_clean_linker_0, # of connection points: 4
#     Node 6, Type 0, BuildingBlock: NAWXER_clean_linker_0, # of connection points: 4
#     Node 7, Type 0, BuildingBlock: NAWXER_clean_linker_0, # of connection points: 4
#     Node 8, Type 1, BuildingBlock: QUQFOY_clean_sbu_1, # of connection points: 4
#     Node 9, Type 1, BuildingBlock: QUQFOY_clean_sbu_1, # of connection points: 4
#     Node 10, Type 1, BuildingBlock: QUQFOY_clean_sbu_1, # of connection points: 4
#     Node 11, Type 1, BuildingBlock: QUQFOY_clean_sbu_1, # of connection points: 4
#     Node 12, Type 1, BuildingBlock: QUQFOY_clean_sbu_1, # of connection points: 4
#     Node 13, Type 1, BuildingBlock: QUQFOY_clean_sbu_1, # of connection points: 4
#     Node 14, Type 1, BuildingBlock: QUQFOY_clean_sbu_1, # of connection points: 4
#     Node 15, Type 1, BuildingBlock: QUQFOY_clean_sbu_1, # of connection points: 4
#     Edge 16, Type (0, 1), BuildingBlock: XUDNAN_clean_linker_2, # of connection points: 2
#     Edge 17, Type (0, 1), BuildingBlock: XUDNAN_clean_linker_2, # of connection points: 2
#     Edge 18, Type (0, 1), BuildingBlock: XUDNAN_clean_linker_2, # of connection points: 2
#     Edge 19, Type (0, 1), BuildingBlock: XUDNAN_clean_linker_2, # of connection points: 2
#     Edge 20, Type (0, 1), BuildingBlock: XUDNAN_clean_linker_2, # of connection points: 2
#     Edge 21, Type (0, 1), BuildingBlock: XUDNAN_clean_linker_2, # of connection points: 2
#     Edge 22, Type (0, 1), BuildingBlock: XUDNAN_clean_linker_2, # of connection points: 2
#     Edge 23, Type (0, 1), BuildingBlock: XUDNAN_clean_linker_2, # of connection points: 2
#     Edge 24, Type (0, 1), BuildingBlock: XUDNAN_clean_linker_2, # of connection points: 2
#     Edge 25, Type (0, 1), BuildingBlock: XUDNAN_clean_linker_2, # of connection points: 2
#     Edge 26, Type (0, 1), BuildingBlock: XUDNAN_clean_linker_2, # of connection points: 2
#     Edge 27, Type (0, 1), BuildingBlock: XUDNAN_clean_linker_2, # of connection points: 2
#     Edge 28, Type (0, 1), BuildingBlock: XUDNAN_clean_linker_2, # of connection points: 2
#     Edge 29, Type (0, 1), BuildingBlock: XUDNAN_clean_linker_2, # of connection points: 2
#     Edge 30, Type (0, 1), BuildingBlock: XUDNAN_clean_linker_2, # of connection points: 2
#     Edge 31, Type (0, 1), BuildingBlock: XUDNAN_clean_linker_2, # of connection points: 2
#     Edge 32, Type (0, 1), BuildingBlock: XUDNAN_clean_linker_2, # of connection points: 2
#     Edge 33, Type (0, 1), BuildingBlock: XUDNAN_clean_linker_2, # of connection points: 2
#     Edge 34, Type (0, 1), BuildingBlock: XUDNAN_clean_linker_2, # of connection points: 2
#     Edge 35, Type (0, 1), BuildingBlock: XUDNAN_clean_linker_2, # of connection points: 2
#     Edge 36, Type (0, 1), BuildingBlock: XUDNAN_clean_linker_2, # of connection points: 2
#     Edge 37, Type (0, 1), BuildingBlock: XUDNAN_clean_linker_2, # of connection points: 2
#     Edge 38, Type (0, 1), BuildingBlock: XUDNAN_clean_linker_2, # of connection points: 2
#     Edge 39, Type (0, 1), BuildingBlock: XUDNAN_clean_linker_2, # of connection points: 2
#     Edge 40, Type (0, 1), BuildingBlock: XUDNAN_clean_linker_2, # of connection points: 2
#     Edge 41, Type (0, 1), BuildingBlock: XUDNAN_clean_linker_2, # of connection points: 2
#     Edge 42, Type (0, 1), BuildingBlock: XUDNAN_clean_linker_2, # of connection points: 2
#     Edge 43, Type (0, 1), BuildingBlock: XUDNAN_clean_linker_2, # of connection points: 2
#     Edge 44, Type (0, 1), BuildingBlock: XUDNAN_clean_linker_2, # of connection points: 2
#     Edge 45, Type (0, 1), BuildingBlock: XUDNAN_clean_linker_2, # of connection points: 2
#     Edge 46, Type (0, 1), BuildingBlock: XUDNAN_clean_linker_2, # of connection points: 2
#     Edge 47, Type (0, 1), BuildingBlock: XUDNAN_clean_linker_2, # of connection points: 2
# Relax obj value: 0.183
# Max RMSD: 0.220
# Mean RMSD: 0.163
data_MOF--net-wbl--node1-QUQFOY_clean_sbu_1--node2-NAWXER_clean_linker_0--edge1-XUDNAN_clean_linker_2
_symmetry_space_group_name_H-M    P1
_symmetry_Int_Tables_number       1
_symmetry_cell_setting            triclinic
loop_
_symmetry_equiv_pos_as_xyz
'x, y, z'
_cell_length_a     44.717015
_cell_length_b     44.711601
_cell_length_c     79.776777
_cell_angle_alpha  93.352359
_cell_angle_beta   93.343817
_cell_angle_gamma 90.374625
loop_
_atom_site_label
_atom_site_type_symbol
_atom_site_fract_x
_atom_site_fract_y
_atom_site_fract_z
_atom_type_partial_charge
C0 C 0.21035 0.027 0.38679 0.0
C1 C 0.22336 0.03631 0.40279 0.0
C2 C 0.19863 0.04782 0.37586 0.0
C3 C 0.2014 0.07875 0.38002 0.0
C4 C 0.2262 0.06735 0.40688 0.0
C5 C 0.21575 0.08817 0.39558 0.0
C6 C 0.18546 0.10124 0.36981 0.0
C7 C 0.23944 0.0467 0.33416 0.0
C8 C 0.22164 0.02833 0.32257 0.0
C9 C 0.22671 0.07051 0.34333 0.0
C10 C 0.1959 0.07619 0.34116 0.0
C11 C 0.19121 0.03525 0.31973 0.0
C12 C 0.17853 0.05904 0.32886 0.0
C13 C 0.18121 0.09901 0.35201 0.0
C14 C 0.09642 0.2032 0.34014 0.0
C15 C 0.07383 0.18743 0.33021 0.0
C16 C 0.12106 0.18803 0.34701 0.0
C17 C 0.12335 0.15682 0.34419 0.0
C18 C 0.07729 0.15655 0.32651 0.0
C19 C 0.10183 0.14143 0.3334 0.0
C20 C 0.14665 0.13953 0.35325 0.0
C21 C 0.08794 0.17688 0.39381 0.0
C22 C 0.10282 0.19875 0.40467 0.0
C23 C 0.10384 0.15922 0.38245 0.0
C24 C 0.1349 0.16309 0.3818 0.0
C25 C 0.13383 0.20303 0.40375 0.0
C26 C 0.14981 0.18505 0.39252 0.0
C27 C 0.15206 0.14269 0.37086 0.0
H28 H 0.20825 0.00354 0.38276 0.0
H29 H 0.18629 0.03936 0.36449 0.0
H30 H 0.23527 0.07592 0.41909 0.0
H31 H 0.21773 0.1118 0.39938 0.0
H32 H 0.26294 0.04191 0.33668 0.0
H33 H 0.2407 0.08385 0.3525 0.0
H34 H 0.17704 0.02185 0.31067 0.0
H35 H 0.15479 0.06323 0.32681 0.0
H36 H 0.09445 0.227 0.34319 0.0
H37 H 0.13782 0.20054 0.35494 0.0
H38 H 0.06063 0.1439 0.31857 0.0
H39 H 0.10327 0.11742 0.33089 0.0
H40 H 0.06404 0.1732 0.39426 0.0
H41 H 0.09201 0.14205 0.37446 0.0
H42 H 0.14583 0.21952 0.41212 0.0
H43 H 0.17384 0.18808 0.3923 0.0
N44 N 0.17107 0.12342 0.3784 0.0
N45 N 0.16153 0.1179 0.3445 0.0
C46 C 0.95361 0.57794 0.63269 0.0
C47 C 0.96372 0.5671 0.64824 0.0
C48 C 0.97262 0.59505 0.62358 0.0
C49 C 0.00237 0.60105 0.62961 0.0
C50 C 0.99337 0.57362 0.6543 0.0
C51 C 0.0124 0.59022 0.64509 0.0
C52 C 0.02262 0.62069 0.62089 0.0
C53 C 0.9994 0.54338 0.5846 0.0
C54 C 0.98601 0.55054 0.56902 0.0
C55 C 0.01256 0.56572 0.5956 0.0
C56 C 0.01159 0.59588 0.59152 0.0
C57 C 0.9862 0.58041 0.56453 0.0
C58 C 0.99881 0.60295 0.57573 0.0
C59 C 0.02532 0.61978 0.60324 0.0
C60 C 0.12573 0.70937 0.59733 0.0
C61 C 0.11249 0.72902 0.58602 0.0
C62 C 0.10865 0.68678 0.60368 0.0
C63 C 0.07803 0.68346 0.59884 0.0
C64 C 0.08216 0.72473 0.58061 0.0
C65 C 0.06514 0.70202 0.5869 0.0
C66 C 0.05911 0.66162 0.60672 0.0
C67 C 0.07927 0.73282 0.64984 0.0
C68 C 0.10042 0.72207 0.66169 0.0
C69 C 0.06619 0.71341 0.63705 0.0
C70 C 0.07376 0.68298 0.63619 0.0
C71 C 0.10877 0.69185 0.66035 0.0
C72 C 0.09524 0.67237 0.64782 0.0
C73 C 0.0574 0.66152 0.62427 0.0
H74 H 0.93101 0.57332 0.62756 0.0
H75 H 0.96387 0.60394 0.61197 0.0
H76 H 0.00186 0.56652 0.6664 0.0
H77 H 0.03504 0.5949 0.65021 0.0
H78 H 7e-05 0.52035 0.58815 0.0
H79 H 0.0236 0.55932 0.60727 0.0
H80 H 0.97617 0.58633 0.55249 0.0
H81 H 0.99832 0.62594 0.57213 0.0
H82 H 0.14901 0.71213 0.60175 0.0
H83 H 0.11923 0.67227 0.61263 0.0
H84 H 0.07146 0.73925 0.57171 0.0
H85 H 0.04163 0.69966 0.58288 0.0
H86 H 0.07246 0.75605 0.6507 0.0
H87 H 0.04938 0.72184 0.62824 0.0
H88 H 0.12475 0.683 0.66948 0.0
H89 H 0.10112 0.64888 0.64738 0.0
N90 N 0.03917 0.64129 0.63065 0.0
N91 N 0.04306 0.64072 0.59682 0.0
C92 C 0.58835 0.45793 0.8776 0.0
C93 C 0.60831 0.47343 0.88938 0.0
C94 C 0.56747 0.47372 0.8678 0.0
C95 C 0.56607 0.5051 0.86989 0.0
C96 C 0.60695 0.50481 0.89124 0.0
C97 C 0.58592 0.52042 0.8817 0.0
C98 C 0.54288 0.52245 0.86087 0.0
C99 C 0.60783 0.49304 0.82255 0.0
C100 C 0.59529 0.47307 0.80974 0.0
C101 C 0.58952 0.50883 0.83348 0.0
C102 C 0.5583 0.5049 0.83187 0.0
C103 C 0.56398 0.4694 0.80803 0.0
C104 C 0.54562 0.48543 0.81891 0.0
C105 C 0.53888 0.52221 0.84316 0.0
C106 C 0.47465 0.63642 0.83472 0.0
C107 C 0.44939 0.6294 0.82388 0.0
C108 C 0.49186 0.61372 0.84152 0.0
C109 C 0.48422 0.58353 0.83761 0.0
C110 C 0.44205 0.59911 0.8197 0.0
C111 C 0.45958 0.5763 0.82639 0.0
C112 C 0.50169 0.55995 0.8458 0.0
C113 C 0.44058 0.59889 0.88403 0.0
C114 C 0.45555 0.6142 0.898 0.0
C115 C 0.45655 0.58121 0.87268 0.0
C116 C 0.48781 0.57879 0.875 0.0
C117 C 0.48683 0.61174 0.90025 0.0
C118 C 0.50275 0.5941 0.88892 0.0
C119 C 0.50506 0.5594 0.86347 0.0
H120 H 0.58896 0.43373 0.87598 0.0
H121 H 0.55202 0.46146 0.85891 0.0
H122 H 0.62177 0.51729 0.90038 0.0
H123 H 0.58506 0.54459 0.8836 0.0
H124 H 0.63188 0.49615 0.82429 0.0
H125 H 0.59977 0.52431 0.84313 0.0
H126 H 0.5537 0.45433 0.79819 0.0
H127 H 0.52154 0.48243 0.81731 0.0
H128 H 0.4807 0.65951 0.83829 0.0
H129 H 0.51098 0.61974 0.85005 0.0
H130 H 0.42279 0.59311 0.81128 0.0
H131 H 0.45344 0.5531 0.8232 0.0
H132 H 0.41644 0.59996 0.8821 0.0
H133 H 0.44438 0.56895 0.8623 0.0
H134 H 0.49909 0.62358 0.91076 0.0
H135 H 0.52685 0.59254 0.89098 0.0
N136 N 0.52574 0.54095 0.8703 0.0
N137 N 0.51845 0.5411 0.83624 0.0
C138 C 0.53357 0.95804 0.09722 0.0
C139 C 0.51376 0.9687 0.08464 0.0
C140 C 0.55578 0.97669 0.10518 0.0
C141 C 0.55825 0.00666 0.10105 0.0
C142 C 0.51653 0.9986 0.08032 0.0
C143 C 0.5387 0.01738 0.08841 0.0
C144 C 0.58223 0.02623 0.10925 0.0
C145 C 0.52182 0.00441 0.15006 0.0
C146 C 0.53554 0.98988 0.16363 0.0
C147 C 0.53912 0.01671 0.13807 0.0
C148 C 0.57048 0.01411 0.13915 0.0
C149 C 0.56699 0.98797 0.16488 0.0
C150 C 0.58421 -8e-05 0.15278 0.0
C151 C 0.58938 0.02755 0.1268 0.0
C152 C 0.68709 0.11871 0.13889 0.0
C153 C 0.70576 0.10349 0.1503 0.0
C154 C 0.66404 0.10343 0.12928 0.0
C155 C 0.65946 0.07265 0.13083 0.0
C156 C 0.70185 0.07243 0.15126 0.0
C157 C 0.67879 0.05723 0.1417 0.0
C158 C 0.6327 0.05704 0.12279 0.0
C159 C 0.68943 0.07709 0.07978 0.0
C160 C 0.67931 0.10366 0.07273 0.0
C161 C 0.67155 0.06178 0.09032 0.0
C162 C 0.64296 0.07231 0.0937 0.0
C163 C 0.65024 0.11366 0.07595 0.0
C164 C 0.63213 0.09787 0.08615 0.0
C165 C 0.62464 0.05713 0.10546 0.0
H166 H 0.53189 0.93523 0.10098 0.0
H167 H 0.57119 0.96757 0.1145 0.0
H168 H 0.50192 0.00735 0.0705 0.0
H169 H 0.54053 0.0403 0.08484 0.0
H170 H 0.49769 0.00621 0.14861 0.0
H171 H 0.52791 0.02846 0.12806 0.0
H172 H 0.57845 0.97764 0.17534 0.0
H173 H 0.60836 0.99803 0.1541 0.0
H174 H 0.68919 0.14271 0.13806 0.0
H175 H 0.6489 0.11599 0.12134 0.0
H176 H 0.7161 0.06002 0.15977 0.0
H177 H 0.67556 0.03348 0.14311 0.0
H178 H 0.71128 0.06817 0.07732 0.0
H179 H 0.68008 0.04181 0.09592 0.0
H180 H 0.6417 0.13424 0.07111 0.0
H181 H 0.61007 0.10629 0.08868 0.0
N182 N 0.59984 0.04154 0.09927 0.0
N183 N 0.61465 0.0425 0.1328 0.0
C184 C 0.07227 0.69238 0.92201 0.0
C185 C 0.08907 0.6829 0.90832 0.0
C186 C 0.05674 0.67147 0.93074 0.0
C187 C 0.05787 0.64078 0.92594 0.0
C188 C 0.0905 0.65205 0.90384 0.0
C189 C 0.07484 0.63132 0.91243 0.0
C190 C 0.04058 0.61819 0.93427 0.0
C191 C 0.11279 0.65252 0.97153 0.0
C192 C 0.10323 0.66379 0.98707 0.0
C193 C 0.09302 0.63659 0.96012 0.0
C194 C 0.06295 0.63258 0.96377 0.0
C195 C 0.07357 0.65886 0.99111 0.0
C196 C 0.0535 0.64344 0.97948 0.0
C197 C 0.04201 0.61509 0.95185 0.0
C198 C 0.98027 0.49652 0.95698 0.0
C199 C 0.96126 0.50308 0.9701 0.0
C200 C 0.9956 0.5195 0.94988 0.0
C201 C 0.99205 0.54946 0.95569 0.0
C202 C 0.95856 0.53301 0.97626 0.0
C203 C 0.97399 0.55597 0.96919 0.0
C204 C 0.00745 0.574 0.94791 0.0
C205 C 0.93921 0.53566 0.90837 0.0
C206 C 0.95177 0.52357 0.89373 0.0
C207 C 0.95678 0.55289 0.92045 0.0
C208 C 0.98728 0.55797 0.91819 0.0
C209 C 0.9823 0.52872 0.89155 0.0
C210 C -0.00019 0.54587 0.90361 0.0
C211 C 0.00607 0.57717 0.93038 0.0
H212 H 0.07047 0.71596 0.92569 0.0
H213 H 0.04342 0.67929 0.941 0.0
H214 H 0.10379 0.6438 0.89366 0.0
H215 H 0.07613 0.60774 0.90856 0.0
H216 H 0.13583 0.65547 0.96837 0.0
H217 H 0.1015 0.62701 0.94859 0.0
H218 H 0.06592 0.66715 0.00313 0.0
H219 H 0.0306 0.64003 0.98274 0.0
H220 H 0.98271 0.47371 0.95192 0.0
H221 H 0.01006 0.51388 0.93975 0.0
H222 H 0.94444 0.53869 0.98654 0.0
H223 H 0.97131 0.57889 0.97402 0.0
H224 H 0.91566 0.53245 0.91028 0.0
H225 H 0.94639 0.56268 0.93138 0.0
H226 H 0.99275 0.51937 0.88053 0.0
H227 H 0.02326 0.54959 0.90157 0.0
N228 N 0.02281 0.59901 0.92428 0.0
N229 N 0.02517 0.59323 0.95799 0.0
C230 C 0.46767 0.56248 0.15738 0.0
C231 C 0.48095 0.58344 0.14753 0.0
C232 C 0.48539 0.54487 0.16786 0.0
C233 C 0.5167 0.5478 0.16866 0.0
C234 C 0.51237 0.58673 0.14873 0.0
C235 C 0.53004 0.56885 0.15904 0.0
C236 C 0.5357 0.52768 0.17864 0.0
C237 C 0.51128 0.59869 0.21709 0.0
C238 C 0.48223 0.59233 0.22189 0.0
C239 C 0.52805 0.57663 0.20905 0.0
C240 C 0.51639 0.54761 0.20585 0.0
C241 C 0.47091 0.56287 0.21906 0.0
C242 C 0.48798 0.5406 0.21115 0.0
C243 C 0.53367 0.52563 0.19606 0.0
C244 C 0.64362 0.45914 0.21695 0.0
C245 C 0.63221 0.43739 0.22703 0.0
C246 C 0.62435 0.4758 0.20677 0.0
C247 C 0.59325 0.47123 0.20652 0.0
C248 C 0.60095 0.43302 0.22673 0.0
C249 C 0.58169 0.45 0.21672 0.0
C250 C 0.57269 0.48953 0.19628 0.0
C251 C 0.61786 0.4283 0.15802 0.0
C252 C 0.63287 0.44349 0.14598 0.0
C253 C 0.59977 0.44399 0.1692 0.0
C254 C 0.59669 0.47518 0.16864 0.0
C255 C 0.63032 0.47476 0.14578 0.0
C256 C 0.61236 0.49038 0.15693 0.0
C257 C 0.57502 0.49199 0.1788 0.0
H258 H 0.44364 0.55893 0.1566 0.0
H259 H 0.47468 0.52826 0.17492 0.0
H260 H 0.52342 0.60304 0.14163 0.0
H261 H 0.55419 0.57144 0.1595 0.0
H262 H 0.52113 0.62083 0.21948 0.0
H263 H 0.55006 0.58231 0.2051 0.0
H264 H 0.44859 0.55722 0.22252 0.0
H265 H 0.47867 0.51824 0.20869 0.0
H266 H 0.66744 0.46368 0.21708 0.0
H267 H 0.63372 0.49261 0.19929 0.0
H268 H 0.59127 0.4162 0.23407 0.0
H269 H 0.55773 0.44627 0.21677 0.0
H270 H 0.61915 0.40416 0.15836 0.0
H271 H 0.58731 0.4316 0.1778 0.0
H272 H 0.64197 0.48717 0.13684 0.0
H273 H 0.61031 0.51442 0.15623 0.0
N274 N 0.5564 0.511 0.17069 0.0
N275 N 0.5522 0.50667 0.20431 0.0
C276 C 0.55034 0.96763 0.42379 0.0
C277 C 0.53199 0.97307 0.40944 0.0
C278 C 0.56237 0.99148 0.43417 0.0
C279 C 0.55635 0.02118 0.4303 0.0
C280 C 0.52463 0.00274 0.4061 0.0
C281 C 0.53702 0.02662 0.41636 0.0
C282 C 0.57417 0.04602 0.43898 0.0
C283 C 0.51073 0.01662 0.47582 0.0
C284 C 0.52441 -3e-05 0.48851 0.0
C285 C 0.52809 0.03315 0.4656 0.0
C286 C 0.55945 0.03353 0.46794 0.0
C287 C 0.55579 0.00075 0.49104 0.0
C288 C 0.57314 0.0177 0.48095 0.0
C289 C 0.5779 0.05002 0.45666 0.0
C290 C 0.67203 0.14976 0.46398 0.0
C291 C 0.6938 0.13585 0.47419 0.0
C292 C 0.64597 0.13413 0.45805 0.0
C293 C 0.64138 0.10445 0.4623 0.0
C294 C 0.68812 0.10696 0.47935 0.0
C295 C 0.662 0.09147 0.47356 0.0
C296 C 0.61695 0.08569 0.4539 0.0
C297 C 0.68298 0.09868 0.41401 0.0
C298 C 0.67133 0.11307 0.39987 0.0
C299 C 0.66412 0.08959 0.42613 0.0
C300 C 0.63323 0.09508 0.42453 0.0
C301 C 0.64052 0.11922 0.39848 0.0
C302 C 0.6216 0.11006 0.41064 0.0
C303 C 0.61273 0.08211 0.43618 0.0
H304 H 0.55635 0.94494 0.4266 0.0
H305 H 0.57784 0.9867 0.44461 0.0
H306 H 0.51081 0.00752 0.39499 0.0
H307 H 0.53248 0.04937 0.41302 0.0
H308 H 0.48661 0.01624 0.47351 0.0
H309 H 0.51701 0.04551 0.45578 0.0
H310 H 0.56686 0.98825 0.5008 0.0
H311 H 0.59731 0.01779 0.48301 0.0
H312 H 0.67591 0.17202 0.45983 0.0
H313 H 0.63006 0.1447 0.44956 0.0
H314 H 0.70443 0.09593 0.4874 0.0
H315 H 0.6588 0.06868 0.47708 0.0
H316 H 0.70665 0.0938 0.4155 0.0
H317 H 0.67358 0.0773 0.43644 0.0
H318 H 0.63083 0.12994 0.38764 0.0
H319 H 0.59777 0.11407 0.40901 0.0
N320 N 0.59149 0.06242 0.42944 0.0
N321 N 0.5994 0.06948 0.46349 0.0
C322 C 0.22205 0.09456 0.67744 0.0
C323 C 0.2129 0.07744 0.66264 0.0
C324 C 0.20073 0.10897 0.68725 0.0
C325 C 0.17009 0.10657 0.68226 0.0
C326 C 0.18219 0.07502 0.65788 0.0
C327 C 0.16112 0.08947 0.66752 0.0
C328 C 0.14696 0.12339 0.69126 0.0
C329 C 0.17974 0.05341 0.72576 0.0
C330 C 0.18942 0.06395 0.74213 0.0
C331 C 0.16497 0.07235 0.7148 0.0
C332 C 0.16022 0.10252 0.71979 0.0
C333 C 0.1843 0.09398 0.74726 0.0
C334 C 0.16983 0.1131 0.73617 0.0
C335 C 0.1427 0.1222 0.70865 0.0
C336 C 0.019 0.1716 0.71208 0.0
C337 C 0.02177 0.19563 0.72424 0.0
C338 C 0.04445 0.15713 0.70651 0.0
C339 C 0.0731 0.16641 0.71298 0.0
C340 C 0.05043 0.20394 0.73128 0.0
C341 C 0.07592 0.18925 0.72578 0.0
C342 C 0.09994 0.15358 0.70552 0.0
C343 C 0.0581 0.2162 0.66874 0.0
C344 C 0.04791 0.20177 0.65331 0.0
C345 C 0.07645 0.20113 0.68021 0.0
C346 C 0.08453 0.17124 0.67654 0.0
C347 C 0.05613 0.17191 0.64969 0.0
C348 C 0.07435 0.15687 0.66115 0.0
C349 C 0.10448 0.15494 0.68824 0.0
H350 H 0.24559 0.09686 0.68137 0.0
H351 H 0.20816 0.12249 0.69844 0.0
H352 H 0.17441 0.06257 0.64637 0.0
H353 H 0.13764 0.08752 0.66335 0.0
H354 H 0.18263 0.03015 0.72162 0.0
H355 H 0.15645 0.06304 0.70261 0.0
H356 H 0.19141 0.10262 0.75984 0.0
H357 H 0.16593 0.13612 0.74043 0.0
H358 H 0.99727 0.16482 0.70635 0.0
H359 H 0.04185 0.13929 0.69672 0.0
H360 H 0.05315 0.22216 0.74083 0.0
H361 H 0.09785 0.19658 0.73098 0.0
H362 H 0.05249 0.23934 0.67177 0.0
H363 H 0.08471 0.21299 0.6918 0.0
H364 H 0.04832 0.16004 0.63801 0.0
H365 H 0.08034 0.13385 0.65802 0.0
N366 N 0.12764 0.13966 0.68181 0.0
N367 N 0.11934 0.13753 0.71514 0.0
O368 O 0.35666 0.74084 0.99811 0.0
Cd369 Cd 0.34201 0.75992 0.02028 0.0
Cd370 Cd 0.39003 0.73239 0.03394 0.0
O371 O 0.39206 0.7136 0.00983 0.0
O372 O 0.29952 0.76955 0.01496 0.0
O373 O 0.31389 0.73624 0.03322 0.0
C374 C 0.29247 0.74965 0.02515 0.0
C375 C 0.39681 0.70119 0.05626 0.0
C376 C 0.377 0.72129 0.99681 0.0
C377 C 0.38905 0.79994 0.03713 0.0
O378 O 0.40411 0.77619 0.03889 0.0
O379 O 0.36249 0.79852 0.03057 0.0
O380 O 0.41877 0.70862 0.04755 0.0
O381 O 0.37053 0.71119 0.05214 0.0
O382 O 0.42111 0.84693 0.31177 0.0
Cd383 Cd 0.39285 0.83507 0.29115 0.0
Cd384 Cd 0.442 0.84584 0.27377 0.0
O385 O 0.46121 0.85514 0.29772 0.0
O386 O 0.3513 0.84101 0.29815 0.0
O387 O 0.37262 0.86941 0.28022 0.0
C388 C 0.34994 0.86373 0.28889 0.0
C389 C 0.45174 0.87895 0.25314 0.0
C390 C 0.44849 0.85448 0.31153 0.0
C391 C 0.41451 0.78379 0.26956 0.0
O392 O 0.43448 0.8019 0.2655 0.0
O393 O 0.39519 0.7923 0.27985 0.0
O394 O 0.47152 0.86018 0.25825 0.0
O395 O 0.42622 0.87926 0.25995 0.0
O396 O 0.28412 0.9035 0.50672 0.0
Cd397 Cd 0.30419 0.89031 0.52896 0.0
Cd398 Cd 0.27883 0.93883 0.54135 0.0
O399 O 0.28023 0.95036 0.51661 0.0
O400 O 0.34531 0.87492 0.52531 0.0
O401 O 0.33595 0.91889 0.53827 0.0
C402 C 0.35506 0.90043 0.53203 0.0
C403 C 0.28514 0.9742 0.56397 0.0
C404 C 0.2792 0.93092 0.50428 0.0
C405 C 0.25374 0.87773 0.54843 0.0
O406 O 0.24928 0.90544 0.54667 0.0
O407 O 0.27801 0.86596 0.54391 0.0
O408 O 0.26141 0.97352 0.55401 0.0
O409 O 0.30651 0.95604 0.56055 0.0
O410 O 0.23509 0.80888 0.76307 0.0
Cd411 Cd 0.26113 0.82722 0.78317 0.0
Cd412 Cd 0.22812 0.78872 0.80103 0.0
O413 O 0.20129 0.79158 0.77912 0.0
O414 O 0.27541 0.8659 0.77546 0.0
O415 O 0.24468 0.86266 0.7961 0.0
C416 C 0.25866 0.87909 0.78621 0.0
C417 C 0.20109 0.78028 0.82465 0.0
C418 C 0.20934 0.79784 0.76473 0.0
C419 C 0.29501 0.77772 0.79756 0.0
O420 O 0.26951 0.76758 0.80091 0.0
O421 O 0.29727 0.80329 0.79159 0.0
O422 O 0.20388 0.75996 0.81277 0.0
O423 O 0.21393 0.8059 0.8233 0.0
O424 O 0.91802 0.29189 0.55166 0.0
Cd425 Cd 0.9001 0.30695 0.52935 0.0
Cd426 Cd 0.94076 0.27021 0.51565 0.0
O427 O 0.95568 0.26805 0.5405 0.0
O428 O 0.88638 0.34834 0.53457 0.0
O429 O 0.92401 0.33743 0.51837 0.0
C430 C 0.908 0.35736 0.526 0.0
C431 C 0.97675 0.26762 0.49547 0.0
C432 C 0.94213 0.27724 0.55336 0.0
C433 C 0.87401 0.25635 0.50842 0.0
O434 O 0.9012 0.24858 0.50763 0.0
O435 O 0.86751 0.28098 0.51604 0.0
O436 O 0.96972 0.24473 0.50352 0.0
O437 O 0.96393 0.29272 0.49921 0.0
O438 O 0.84228 0.3989 0.789 0.0
Cd439 Cd 0.82329 0.38096 0.76646 0.0
Cd440 Cd 0.86713 0.41522 0.75371 0.0
O441 O 0.87109 0.43233 0.77835 0.0
O442 O 0.78307 0.36608 0.77163 0.0
O443 O 0.78985 0.40475 0.75605 0.0
C444 C 0.77185 0.38775 0.76342 0.0
C445 C 0.87472 0.44788 0.73239 0.0
C446 C 0.86027 0.42111 0.791 0.0
C447 C 0.87054 0.34727 0.7493 0.0
O448 O 0.88306 0.37271 0.74862 0.0
O449 O 0.84463 0.34529 0.7549 0.0
O450 O 0.89647 0.43923 0.74216 0.0
O451 O 0.84803 0.43874 0.73499 0.0
O452 O 0.75308 0.34565 0.04495 0.0
Cd453 Cd 0.77085 0.32491 0.024 0.0
Cd454 Cd 0.7385 0.37335 0.00978 0.0
O455 O 0.7203 0.37576 0.03301 0.0
O456 O 0.78801 0.28794 0.03314 0.0
O457 O 0.7495 0.28722 0.01445 0.0
C458 C 0.76743 0.27285 0.02433 0.0
C459 C 0.71133 0.38766 0.9857 0.0
C460 C 0.7315 0.36391 0.04604 0.0
C461 C 0.80667 0.37132 0.0091 0.0
O462 O 0.78252 0.38605 0.00846 0.0
O463 O 0.80677 0.34454 0.01358 0.0
O464 O 0.72012 0.40684 0.99764 0.0
O465 O 0.71579 0.35963 0.98787 0.0
O466 O 0.81352 0.23678 0.25054 0.0
Cd467 Cd 0.81843 0.26395 0.27219 0.0
Cd468 Cd 0.80926 0.21017 0.28705 0.0
O469 O 0.79751 0.19671 0.26227 0.0
O470 O 0.80873 0.30441 0.26454 0.0
O471 O 0.7811 0.2806 0.28183 0.0
C472 C 0.78489 0.30337 0.27287 0.0
C473 C 0.78371 0.18631 0.30756 0.0
C474 C 0.80282 0.21035 0.24921 0.0
C475 C 0.87006 0.2427 0.29264 0.0
O476 O 0.8538 0.2196 0.29396 0.0
O477 O 0.85967 0.26498 0.2851 0.0
O478 O 0.8032 0.17265 0.29875 0.0
O479 O 0.77811 0.21386 0.3046 0.0
H480 H 0.27632 0.02138 0.30864 0.0
H481 H 0.1956 0.97279 0.31873 0.0
H482 H 0.21757 0.92589 0.30753 0.0
H483 H 0.29306 0.97628 0.26967 0.0
H484 H 0.33288 0.97791 0.27472 0.0
H485 H 0.30948 0.00838 0.2816 0.0
H486 H 0.32955 0.00308 0.31241 0.0
H487 H 0.35301 0.97274 0.30563 0.0
H488 H 0.32681 0.96729 0.32154 0.0
H489 H 0.25052 0.88358 0.29921 0.0
H490 H 0.29196 0.84889 0.29339 0.0
H491 H 0.35073 0.92451 0.28737 0.0
C492 C 0.26312 0.00093 0.30825 0.0
C493 C 0.23413 0.00081 0.31443 0.0
C494 C 0.21761 0.97356 0.31377 0.0
C495 C 0.22993 0.94677 0.30747 0.0
C496 C 0.25869 0.94758 0.30169 0.0
C497 C 0.27501 0.97397 0.30186 0.0
C498 C 0.30618 0.96833 0.29594 0.0
C499 C 0.31065 0.98363 0.2795 0.0
C500 C 0.3303 0.97845 0.3097 0.0
C501 C 0.30518 0.93453 0.29302 0.0
C502 C 0.27749 0.92304 0.29632 0.0
C503 C 0.27205 0.89229 0.29618 0.0
C504 C 0.29568 0.87278 0.29289 0.0
C505 C 0.32423 0.88409 0.28961 0.0
C506 C 0.32881 0.91532 0.28929 0.0
H507 H 0.17026 0.73013 0.57561 0.0
H508 H 0.09364 0.7867 0.58466 0.0
H509 H 0.12199 0.83055 0.57657 0.0
H510 H 0.22714 0.78414 0.59139 0.0
H511 H 0.253 0.77353 0.57564 0.0
H512 H 0.22686 0.74633 0.5822 0.0
H513 H 0.20674 0.7359 0.55128 0.0
H514 H 0.23288 0.76299 0.54462 0.0
H515 H 0.19339 0.76661 0.53931 0.0
H516 H 0.1582 0.86811 0.56803 0.0
H517 H 0.19949 0.89746 0.55806 0.0
H518 H 0.25336 0.81706 0.55399 0.0
C519 C 0.15953 0.75178 0.57592 0.0
C520 C 0.12966 0.755 0.58068 0.0
C521 C 0.1163 0.78364 0.58082 0.0
C522 C 0.1323 0.80871 0.57637 0.0
C523 C 0.16164 0.8048 0.57177 0.0
C524 C 0.17515 0.7771 0.57141 0.0
C525 C 0.20685 0.77917 0.56567 0.0
C526 C 0.22982 0.77026 0.57956 0.0
C527 C 0.21015 0.76003 0.54924 0.0
C528 C 0.20895 0.81236 0.56285 0.0
C529 C 0.18263 0.82664 0.56658 0.0
C530 C 0.17891 0.85721 0.56503 0.0
C531 C 0.20261 0.87368 0.55935 0.0
C532 C 0.22976 0.85962 0.55516 0.0
C533 C 0.23295 0.8285 0.55706 0.0
H534 H 0.38817 0.63363 0.82324 0.0
H535 H 0.46812 0.68062 0.81042 0.0
H536 H 0.43721 0.72336 0.80187 0.0
H537 H 0.33841 0.65968 0.78919 0.0
H538 H 0.30675 0.66308 0.80214 0.0
H539 H 0.33505 0.63557 0.80634 0.0
H540 H 0.34271 0.65784 0.83703 0.0
H541 H 0.31464 0.68556 0.83289 0.0
H542 H 0.35174 0.69709 0.84086 0.0
H543 H 0.39801 0.76165 0.79579 0.0
H544 H 0.35299 0.79266 0.792 0.0
H545 H 0.29844 0.72088 0.80898 0.0
C546 C 0.39906 0.65269 0.81833 0.0
C547 C 0.4305 0.65383 0.81743 0.0
C548 C 0.44406 0.6794 0.81128 0.0
C549 C 0.4267 0.70372 0.80636 0.0
C550 C 0.39582 0.70213 0.80769 0.0
C551 C 0.38207 0.67725 0.81345 0.0
C552 C 0.34861 0.68169 0.81419 0.0
C553 C 0.33118 0.65864 0.80225 0.0
C554 C 0.33887 0.68048 0.83232 0.0
C555 C 0.34573 0.71301 0.80802 0.0
C556 C 0.37322 0.72434 0.8043 0.0
C557 C 0.37632 0.75297 0.79859 0.0
C558 C 0.3506 0.77045 0.79651 0.0
C559 C 0.32212 0.75927 0.80018 0.0
C560 C 0.31983 0.73014 0.80605 0.0
H561 H 0.51993 0.90963 0.07452 0.0
H562 H 0.45533 0.98169 0.07527 0.0
H563 H 0.41659 0.9469 0.06188 0.0
H564 H 0.49323 0.87229 0.03502 0.0
H565 H 0.49981 0.8354 0.04235 0.0
H566 H 0.52274 0.86658 0.05086 0.0
H567 H 0.50908 0.85516 0.081 0.0
H568 H 0.4861 0.82399 0.07259 0.0
H569 H 0.47022 0.85317 0.08576 0.0
H570 H 0.38447 0.90335 0.04944 0.0
H571 H 0.36156 0.85468 0.03924 0.0
H572 H 0.44734 0.81149 0.0479 0.0
C573 C 0.49763 0.91817 0.07194 0.0
C574 C 0.49066 0.94839 0.07597 0.0
C575 C 0.46129 0.95871 0.0721 0.0
C576 C 0.43912 0.93909 0.06458 0.0
C577 C 0.44672 0.90931 0.06102 0.0
C578 C 0.4753 0.89894 0.06457 0.0
C579 C 0.47758 0.86575 0.06012 0.0
C580 C 0.49964 0.85966 0.04626 0.0
C581 C 0.48624 0.84851 0.0758 0.0
C582 C 0.44569 0.85891 0.05368 0.0
C583 C 0.42825 0.88431 0.05416 0.0
C584 C 0.39794 0.88333 0.04897 0.0
C585 C 0.38514 0.8556 0.0432 0.0
C586 C 0.40264 0.82927 0.04281 0.0
C587 C 0.43331 0.83115 0.04808 0.0
H588 H 0.13393 0.71431 0.9818 0.0
H589 H 0.12232 0.64822 0.01846 0.0
H590 H 0.16632 0.66938 0.03561 0.0
H591 H 0.20832 0.71039 0.981 0.0
H592 H 0.21582 0.7496 0.97887 0.0
H593 H 0.18002 0.73385 0.97169 0.0
H594 H 0.15339 0.77306 0.99069 0.0
H595 H 0.18925 0.78924 0.99787 0.0
H596 H 0.16389 0.77697 0.01288 0.0
H597 H 0.21726 0.69056 0.0451 0.0
H598 H 0.26869 0.71176 0.04698 0.0
H599 H 0.24526 0.76559 0.00475 0.0
C600 C 0.14006 0.70515 0.99379 0.0
C601 C 0.12489 0.67995 0.99899 0.0
C602 C 0.13358 0.6679 0.0145 0.0
C603 C 0.1585 0.67976 0.02427 0.0
C604 C 0.17387 0.704 0.01845 0.0
C605 C 0.16454 0.71696 0.00372 0.0
C606 C 0.18652 0.74055 0.99917 0.0
C607 C 0.19837 0.73312 0.98166 0.0
C608 C 0.17242 0.77181 0.00023 0.0
C609 C 0.21064 0.73756 0.01302 0.0
C610 C 0.20285 0.71672 0.02419 0.0
C611 C 0.22324 0.70757 0.03675 0.0
C612 C 0.25243 0.71963 0.03769 0.0
C613 C 0.26085 0.74054 0.02612 0.0
C614 C 0.23934 0.75016 0.01401 0.0
H615 H 0.47942 0.65075 0.21348 0.0
H616 H 0.44415 0.5893 0.24776 0.0
H617 H 0.41731 0.63116 0.26168 0.0
H618 H 0.49612 0.70834 0.24374 0.0
H619 H 0.4869 0.73813 0.23012 0.0
H620 H 0.4992 0.70267 0.22135 0.0
H621 H 0.45088 0.69819 0.20172 0.0
H622 H 0.43837 0.7337 0.21047 0.0
H623 H 0.41482 0.70087 0.21067 0.0
H624 H 0.39801 0.68109 0.27344 0.0
H625 H 0.39044 0.7342 0.28275 0.0
H626 H 0.44115 0.76218 0.24156 0.0
C627 C 0.46597 0.64594 0.22387 0.0
C628 C 0.464 0.61668 0.22954 0.0
C629 C 0.44573 0.61142 0.24303 0.0
C630 C 0.43045 0.63509 0.25104 0.0
C631 C 0.43359 0.66382 0.24537 0.0
C632 C 0.45094 0.66922 0.23207 0.0
C633 C 0.45302 0.70229 0.22926 0.0
C634 C 0.48574 0.7135 0.23125 0.0
C635 C 0.43839 0.70916 0.212 0.0
C636 C 0.43489 0.71485 0.24339 0.0
C637 C 0.4233 0.69237 0.25236 0.0
C638 C 0.40675 0.69883 0.2664 0.0
C639 C 0.40251 0.72903 0.27158 0.0
C640 C 0.41525 0.75227 0.26289 0.0
C641 C 0.43112 0.74492 0.24845 0.0
H642 H 0.47356 0.01588 0.50417 0.0
H643 H 0.53291 0.94117 0.49504 0.0
H644 H 0.49877 0.90803 0.50899 0.0
H645 H 0.44943 0.9931 0.54564 0.0
H646 H 0.41176 0.00586 0.54133 0.0
H647 H 0.44278 0.02428 0.53262 0.0
H648 H 0.41754 0.01495 0.50266 0.0
H649 H 0.38653 0.99661 0.51127 0.0
H650 H 0.40703 0.97729 0.49519 0.0
H651 H 0.45423 0.88172 0.51972 0.0
H652 H 0.40427 0.86511 0.52758 0.0
H653 H 0.37565 0.95759 0.5313 0.0
C654 C 0.47961 0.99266 0.50541 0.0
C655 C 0.50585 0.98103 0.49859 0.0
C656 C 0.51306 0.95055 0.50038 0.0
C657 C 0.49379 0.93159 0.50826 0.0
C658 C 0.46771 0.94362 0.51454 0.0
C659 C 0.46085 0.97358 0.51342 0.0
C660 C 0.43059 0.9806 0.52017 0.0
C661 C 0.43385 0.00224 0.53588 0.0
C662 C 0.40917 0.99308 0.50651 0.0
C663 C 0.4209 0.94969 0.52462 0.0
C664 C 0.44265 0.92864 0.52138 0.0
C665 C 0.43736 0.8981 0.52274 0.0
C666 C 0.40895 0.88885 0.5272 0.0
C667 C 0.38635 0.9101 0.53038 0.0
C668 C 0.3928 0.9409 0.52949 0.0
H669 H 0.23367 0.02374 0.73598 0.0
H670 H 0.17549 0.05598 0.77456 0.0
H671 H 0.19328 0.01571 0.79256 0.0
H672 H 0.22016 0.94935 0.73906 0.0
H673 H 0.25767 0.93692 0.73556 0.0
H674 H 0.24455 0.97124 0.72724 0.0
H675 H 0.28942 8e-05 0.74282 0.0
H676 H 0.30277 0.96571 0.7512 0.0
H677 H 0.29592 0.9977 0.76521 0.0
H678 H 0.21072 0.96689 0.80397 0.0
H679 H 0.22743 0.91505 0.80809 0.0
H680 H 0.27536 0.91598 0.76238 0.0
C681 C 0.22525 0.02273 0.7484 0.0
C682 C 0.20331 0.04294 0.75393 0.0
C683 C 0.19264 0.04092 0.7702 0.0
C684 C 0.20259 0.01811 0.78048 0.0
C685 C 0.22358 0.99788 0.77441 0.0
C686 C 0.23511 0.00031 0.75883 0.0
C687 C 0.25529 0.97432 0.7545 0.0
C688 C 0.2437 0.95694 0.73813 0.0
C689 C 0.28778 0.98511 0.75337 0.0
C690 C 0.25215 0.95607 0.76968 0.0
C691 C 0.2341 0.97014 0.78116 0.0
C692 C 0.22549 0.956 0.79529 0.0
C693 C 0.23504 0.92654 0.79752 0.0
C694 C 0.25297 0.91158 0.78566 0.0
C695 C 0.26223 0.92699 0.77188 0.0
H696 H 0.64396 0.49336 0.79423 0.0
H697 H 0.59178 0.41316 0.8006 0.0
H698 H 0.62806 0.38297 0.78483 0.0
H699 H 0.66987 0.47018 0.75151 0.0
H700 H 0.70626 0.48711 0.75642 0.0
H701 H 0.67374 0.50295 0.76578 0.0
H702 H 0.6995 0.49855 0.79548 0.0
H703 H 0.732 0.48284 0.78624 0.0
H704 H 0.71317 0.46266 0.80153 0.0
H705 H 0.67407 0.36075 0.77307 0.0
H706 H 0.72553 0.34847 0.76542 0.0
H707 H 0.74692 0.4431 0.76529 0.0
C708 C 0.63989 0.46952 0.79201 0.0
C709 C 0.61504 0.45557 0.79859 0.0
C710 C 0.61045 0.42434 0.79547 0.0
C711 C 0.63095 0.40703 0.78653 0.0
C712 C 0.65563 0.42137 0.78056 0.0
C713 C 0.65997 0.45199 0.78299 0.0
C714 C 0.68957 0.46161 0.77658 0.0
C715 C 0.68455 0.48165 0.76168 0.0
C716 C 0.70974 0.47732 0.79081 0.0
C717 C 0.70192 0.43145 0.77094 0.0
C718 C 0.68184 0.40854 0.77317 0.0
C719 C 0.68962 0.37851 0.7708 0.0
C720 C 0.71887 0.37172 0.76647 0.0
C721 C 0.73984 0.39485 0.7644 0.0
C722 C 0.73094 0.42503 0.76618 0.0
H723 H 0.66413 0.13937 0.04636 0.0
H724 H 0.74048 0.11059 0.07743 0.0
H725 H 0.77318 0.14427 0.06344 0.0
H726 H 0.70498 0.15518 0.00811 0.0
H727 H 0.68327 0.18829 0.00458 0.0
H728 H 0.66674 0.15701 0.01408 0.0
H729 H 0.65332 0.19196 0.03957 0.0
H730 H 0.66961 0.22323 0.03012 0.0
H731 H 0.68249 0.21406 0.05102 0.0
H732 H 0.79632 0.18608 0.04978 0.0
H733 H 0.80737 0.23507 0.03884 0.0
H734 H 0.71607 0.23938 0.0176 0.0
C735 C 0.68777 0.13975 0.05012 0.0
C736 C 0.69955 0.12183 0.06296 0.0
C737 C 0.73076 0.12322 0.06735 0.0
C738 C 0.74965 0.14246 0.05949 0.0
C739 C 0.73713 0.16034 0.04725 0.0
C740 C 0.70689 0.15923 0.0426 0.0
C741 C 0.69838 0.1837 0.03088 0.0
C742 C 0.68772 0.17023 0.01337 0.0
C743 C 0.67456 0.20446 0.03835 0.0
C744 C 0.72829 0.19967 0.03037 0.0
C745 C 0.75049 0.18529 0.03955 0.0
C746 C 0.77931 0.19724 0.04229 0.0
C747 C 0.78536 0.22512 0.03604 0.0
C748 C 0.76263 0.2409 0.02727 0.0
C749 C 0.73406 0.22748 0.0239 0.0
H750 H 0.01658 0.16606 0.33051 0.0
H751 H 0.06785 0.24304 0.31726 0.0
H752 H 0.0208 0.26752 0.30777 0.0
H753 H 0.96399 0.16469 0.29544 0.0
H754 H 0.93303 0.15334 0.30718 0.0
H755 H 0.9706 0.14307 0.31365 0.0
H756 H 0.96389 0.16803 0.34335 0.0
H757 H 0.92632 0.17855 0.33692 0.0
H758 H 0.95291 0.20673 0.34544 0.0
H759 H 0.96765 0.28233 0.29853 0.0
H760 H 0.91372 0.2857 0.28999 0.0
H761 H 0.89854 0.19852 0.30943 0.0
C762 C 0.01801 0.188 0.32552 0.0
C763 C 0.0459 0.20257 0.32452 0.0
C764 C 0.04669 0.23154 0.31823 0.0
C765 C 0.02011 0.24558 0.31279 0.0
C766 C 0.99298 0.23041 0.31386 0.0
C767 C 0.99184 0.20226 0.32009 0.0
C768 C 0.96012 0.19023 0.31955 0.0
C769 C 0.95675 0.16112 0.30828 0.0
C770 C 0.95024 0.18563 0.33738 0.0
C771 C 0.94353 0.21578 0.31176 0.0
C772 C 0.96273 0.23889 0.30866 0.0
C773 C 0.9524 0.26444 0.30102 0.0
C774 C 0.92173 0.26617 0.29623 0.0
C775 C 0.90183 0.24241 0.29905 0.0
C776 C 0.91302 0.21717 0.30714 0.0
H777 H 0.94173 0.51212 0.57587 0.0
H778 H -0.0 0.53447 0.53685 0.0
H779 H 0.98134 0.48978 0.51934 0.0
H780 H 0.95189 0.43619 0.57319 0.0
H781 H 0.91382 0.426 0.57675 0.0
H782 H 0.92874 0.46165 0.58494 0.0
H783 H 0.88525 0.48867 0.5693 0.0
H784 H 0.8701 0.45297 0.56106 0.0
H785 H 0.87847 0.48149 0.54692 0.0
H786 H 0.96246 0.43828 0.50852 0.0
H787 H 0.94254 0.38636 0.5045 0.0
H788 H 0.89407 0.40006 0.54979 0.0
C789 C 0.94996 0.50791 0.56345 0.0
C790 C 0.97216 0.52653 0.5576 0.0
C791 C 0.98273 0.52046 0.5414 0.0
C792 C 0.97228 0.49518 0.53142 0.0
C793 C 0.95083 0.47674 0.53773 0.0
C794 C 0.9394 0.48317 0.55327 0.0
C795 C 0.91794 0.45899 0.55769 0.0
C796 C 0.92876 0.44488 0.5741 0.0
C797 C 0.88605 0.47127 0.5588 0.0
C798 C 0.92006 0.43723 0.54259 0.0
C799 C 0.939 0.44784 0.53114 0.0
C800 C 0.94695 0.43009 0.51715 0.0
C801 C 0.9356 0.40064 0.51498 0.0
C802 C 0.91635 0.38943 0.52666 0.0
C803 C 0.90801 0.40829 0.54037 0.0
H804 H 0.7069 0.19315 0.48733 0.0
H805 H 0.74771 0.11039 0.46946 0.0
H806 H 0.79786 0.13327 0.47518 0.0
H807 H 0.76033 0.24397 0.47102 0.0
H808 H 0.76054 0.27027 0.48904 0.0
H809 H 0.72755 0.2479 0.48306 0.0
H810 H 0.72834 0.22791 0.51292 0.0
H811 H 0.76125 0.25029 0.51901 0.0
H812 H 0.76174 0.21043 0.52133 0.0
H813 H 0.84302 0.16434 0.48262 0.0
H814 H 0.88171 0.20103 0.49318 0.0
H815 H 0.81256 0.26405 0.50722 0.0
C816 C 0.72646 0.18 0.48459 0.0
C817 C 0.72357 0.14999 0.47804 0.0
C818 C 0.74956 0.13329 0.47469 0.0
C819 C 0.77807 0.14615 0.47777 0.0
C820 C 0.78022 0.17569 0.48427 0.0
C821 C 0.75523 0.19242 0.48778 0.0
C822 C 0.76412 0.22336 0.49533 0.0
C823 C 0.75244 0.24782 0.48393 0.0
C824 C 0.75322 0.22828 0.51321 0.0
C825 C 0.79798 0.22126 0.49557 0.0
C826 C 0.80664 0.19363 0.48895 0.0
C827 C 0.83659 0.18607 0.48785 0.0
C828 C 0.8584 0.20716 0.49389 0.0
C829 C 0.85024 0.23548 0.50109 0.0
C830 C 0.81955 0.24265 0.50178 0.0
H831 H 0.01668 0.25649 0.72687 0.0
H832 H 0.96636 0.1743 0.73119 0.0
H833 H 0.92121 0.20395 0.73715 0.0
H834 H 0.98305 0.29975 0.76006 0.0
H835 H 0.98323 0.33389 0.74912 0.0
H836 H 0.01121 0.30594 0.74532 0.0
H837 H 0.996 0.30432 0.71341 0.0
H838 H 0.96776 0.33207 0.71713 0.0
H839 H 0.95755 0.29662 0.70633 0.0
H840 H 0.88167 0.24316 0.743 0.0
H841 H 0.8515 0.28846 0.74865 0.0
H842 H 0.92826 0.34423 0.73987 0.0
C843 C 0.99627 0.24472 0.72929 0.0
C844 C 0.99503 0.21313 0.72869 0.0
C845 C 0.96773 0.19853 0.73155 0.0
C846 C 0.94202 0.21516 0.73495 0.0
C847 C 0.94399 0.24632 0.73533 0.0
C848 C 0.97046 0.26091 0.73258 0.0
C849 C 0.96676 0.29453 0.73355 0.0
C850 C 0.98727 0.30939 0.74787 0.0
C851 C 0.97234 0.30765 0.7166 0.0
C852 C 0.93414 0.29666 0.73745 0.0
C853 C 0.9213 0.26867 0.7384 0.0
C854 C 0.89148 0.26519 0.74223 0.0
C855 C 0.8745 0.29104 0.74538 0.0
C856 C 0.88743 0.31993 0.74465 0.0
C857 C 0.91755 0.32254 0.74043 0.0
H858 H 0.90227 0.5048 0.97709 0.0
H859 H 0.9797 0.44684 0.97811 0.0
H860 H 0.94898 0.40646 0.98866 0.0
H861 H 0.87125 0.48075 0.01489 0.0
H862 H 0.83309 0.4832 0.0065 0.0
H863 H 0.86151 0.50736 0.99939 0.0
H864 H 0.84791 0.48827 0.96854 0.0
H865 H 0.81952 0.46399 0.97557 0.0
H866 H 0.84853 0.44863 0.96296 0.0
H867 H 0.90895 0.37222 0.99894 0.0
H868 H 0.86319 0.34721 0.0076 0.0
H869 H 0.81305 0.42853 0.99963 0.0
C870 C 0.91291 0.48377 0.97976 0.0
C871 C 0.94339 0.47899 0.97689 0.0
C872 C 0.9563 0.4509 0.98015 0.0
C873 C 0.93909 0.42791 0.9862 0.0
C874 C 0.90903 0.4334 0.98886 0.0
C875 C 0.8961 0.46067 0.98572 0.0
C876 C 0.86327 0.46084 0.98921 0.0
C877 C 0.85692 0.48443 0.00334 0.0
C878 C 0.84366 0.46571 0.97311 0.0
C879 C 0.85966 0.42941 0.99483 0.0
C880 C 0.88622 0.41385 0.9946 0.0
C881 C 0.88804 0.38424 0.99919 0.0
C882 C 0.86196 0.37023 0.00409 0.0
C883 C 0.83451 0.38587 0.00431 0.0
C884 C 0.83361 0.41586 0.99964 0.0
H885 H 0.68796 0.41614 0.2198 0.0
H886 H 0.62328 0.41717 0.2584 0.0
H887 H 0.65649 0.38515 0.27526 0.0
H888 H 0.71071 0.3417 0.22252 0.0
H889 H 0.7496 0.34924 0.21945 0.0
H890 H 0.72108 0.37299 0.21074 0.0
H891 H 0.74704 0.41944 0.22642 0.0
H892 H 0.77567 0.3958 0.2352 0.0
H893 H 0.75447 0.41989 0.24889 0.0
H894 H 0.6955 0.34974 0.28696 0.0
H895 H 0.73769 0.31543 0.29272 0.0
H896 H 0.77799 0.34136 0.24751 0.0
C897 C 0.68091 0.41026 0.23194 0.0
C898 C 0.6528 0.41921 0.23766 0.0
C899 C 0.64439 0.41023 0.25352 0.0
C900 C 0.66325 0.39225 0.2633 0.0
C901 C 0.69069 0.38375 0.2572 0.0
C902 C 0.69959 0.39271 0.24195 0.0
C903 C 0.72987 0.38008 0.23803 0.0
C904 C 0.72766 0.3598 0.22173 0.0
C905 C 0.75314 0.40531 0.23709 0.0
C906 C 0.73639 0.36215 0.25331 0.0
C907 C 0.71356 0.36447 0.26424 0.0
C908 C 0.71376 0.34816 0.27864 0.0
C909 C 0.73777 0.32874 0.28181 0.0
C910 C 0.76131 0.32608 0.27071 0.0
C911 C 0.76069 0.34341 0.25645 0.0
H912 H 0.26538 0.04225 0.43002 0.0
H913 H 0.19964 0.97942 0.40535 0.0
H914 H 0.2114 0.94397 0.4269 0.0
H915 H 0.31815 0.98866 0.44705 0.0
H916 H 0.32436 0.0101 0.46681 0.0
H917 H 0.31487 0.02888 0.44787 0.0
H918 H 0.26978 0.0539 0.4619 0.0
H919 H 0.27913 0.03525 0.48087 0.0
H920 H 0.2422 0.03075 0.47067 0.0
H921 H 0.22848 0.91563 0.45178 0.0
H922 H 0.24565 0.89916 0.47977 0.0
H923 H 0.29398 0.98318 0.4904 0.0
C924 C 0.25324 0.02118 0.42899 0.0
C925 C 0.23182 0.01393 0.41551 0.0
C926 C 0.217 0.98561 0.41494 0.0
C927 C 0.22329 0.96519 0.42731 0.0
C928 C 0.244 0.97344 0.44046 0.0
C929 C 0.25844 0.00092 0.44153 0.0
C930 C 0.27719 0.00563 0.45794 0.0
C931 C 0.31063 0.00848 0.45472 0.0
C932 C 0.26642 0.033 0.46846 0.0
C933 C 0.27059 0.97668 0.46602 0.0
C934 C 0.25202 0.95809 0.45552 0.0
C935 C 0.24298 0.93 0.46013 0.0
C936 C 0.25286 0.92082 0.47601 0.0
C937 C 0.2709 0.94002 0.48719 0.0
C938 C 0.27999 0.96821 0.48209 0.0
H939 H 0.15882 0.73264 0.67261 0.0
H940 H 0.06748 0.75341 0.68416 0.0
H941 H 0.08584 0.77886 0.7112 0.0
H942 H 0.18479 0.71536 0.71238 0.0
H943 H 0.22138 0.7323 0.71183 0.0
H944 H 0.20152 0.71892 0.69256 0.0
H945 H 0.20591 0.7714 0.6807 0.0
H946 H 0.22614 0.78491 0.69988 0.0
H947 H 0.19281 0.80379 0.69255 0.0
H948 H 0.11335 0.79437 0.73859 0.0
H949 H 0.14887 0.80486 0.76322 0.0
H950 H 0.22274 0.77766 0.73311 0.0
C951 C 0.14284 0.74324 0.68069 0.0
C952 C 0.11181 0.7413 0.67638 0.0
C953 C 0.09137 0.7551 0.68722 0.0
C954 C 0.10158 0.76945 0.7026 0.0
C955 C 0.13231 0.77027 0.70672 0.0
C956 C 0.15271 0.75814 0.69593 0.0
C957 C 0.18441 0.76102 0.70366 0.0
C958 C 0.19885 0.73006 0.7052 0.0
C959 C 0.20344 0.78151 0.6936 0.0
C960 C 0.17854 0.77558 0.72074 0.0
C961 C 0.14833 0.78066 0.72227 0.0
C962 C 0.13713 0.79124 0.73742 0.0
C963 C 0.15738 0.79692 0.75134 0.0
C964 C 0.18843 0.79241 0.74991 0.0
C965 C 0.19913 0.78192 0.73438 0.0
H966 H 0.46421 0.61657 0.9323 0.0
H967 H 0.40875 0.65236 0.89186 0.0
H968 H 0.38139 0.68275 0.91277 0.0
H969 H 0.40678 0.61239 0.96193 0.0
H970 H 0.43173 0.62333 0.97983 0.0
H971 H 0.44609 0.60376 0.96167 0.0
H972 H 0.48467 0.64663 0.9593 0.0
H973 H 0.47046 0.66631 0.97745 0.0
H974 H 0.47171 0.68456 0.95795 0.0
H975 H 0.36118 0.71033 0.93825 0.0
H976 H 0.34958 0.73267 0.96616 0.0
H977 H 0.4191 0.67896 0.98957 0.0
C978 C 0.44643 0.63092 0.92781 0.0
C979 C 0.43866 0.63216 0.91045 0.0
C980 C 0.41489 0.65084 0.90512 0.0
C981 C 0.39933 0.66827 0.91689 0.0
C982 C 0.40777 0.66665 0.93391 0.0
C983 C 0.43074 0.6484 0.93934 0.0
C984 C 0.4358 0.65096 0.95828 0.0
C985 C 0.42973 0.62082 0.96587 0.0
C986 C 0.46754 0.66283 0.96355 0.0
C987 C 0.41226 0.67374 0.96269 0.0
C988 C 0.39623 0.68247 0.94849 0.0
C989 C 0.37353 0.70359 0.94946 0.0
C990 C 0.36713 0.71617 0.96537 0.0
C991 C 0.38342 0.7076 0.98008 0.0
C992 C 0.40619 0.68601 0.97861 0.0
H993 H 0.54579 0.93814 0.18 0.0
H994 H 0.48405 0.01246 0.17677 0.0
H995 H 0.4546 0.99133 0.19856 0.0
H996 H 0.49199 0.88104 0.18744 0.0
H997 H 0.51685 0.86284 0.20217 0.0
H998 H 0.53195 0.88296 0.18562 0.0
H999 H 0.56468 0.91535 0.20772 0.0
H1000 H 0.54971 0.89532 0.22433 0.0
H1001 H 0.54709 0.93556 0.22465 0.0
H1002 H 0.43224 0.9621 0.22127 0.0
H1003 H 0.42008 0.92815 0.24343 0.0
H1004 H 0.49836 0.87518 0.23256 0.0
C1005 C 0.52622 0.95019 0.1839 0.0
C1006 C 0.51729 0.97699 0.17655 0.0
C1007 C 0.49115 0.99162 0.18193 0.0
C1008 C 0.47434 0.9799 0.1944 0.0
C1009 C 0.48401 0.9536 0.20145 0.0
C1010 C 0.50941 0.93902 0.19642 0.0
C1011 C 0.51567 0.91167 0.2063 0.0
C1012 C 0.514 0.88293 0.19469 0.0
C1013 C 0.54609 0.91467 0.21635 0.0
C1014 C 0.48993 0.91321 0.21779 0.0
C1015 C 0.47171 0.93737 0.21473 0.0
C1016 C 0.4464 0.94314 0.22378 0.0
C1017 C 0.43965 0.92376 0.23632 0.0
C1018 C 0.45835 0.89915 0.23977 0.0
C1019 C 0.48373 0.89392 0.23031 0.0
H1020 H 0.09372 0.68054 0.87424 0.0
H1021 H 0.11986 0.73459 0.91977 0.0
H1022 H 0.14825 0.76864 0.90297 0.0
H1023 H 0.1636 0.68296 0.85674 0.0
H1024 H 0.14837 0.68392 0.83536 0.0
H1025 H 0.12743 0.66634 0.85072 0.0
H1026 H 0.08233 0.70078 0.84411 0.0
H1027 H 0.10317 0.7185 0.8287 0.0
H1028 H 0.08769 0.74086 0.84556 0.0
H1029 H 0.17663 0.79503 0.88087 0.0
H1030 H 0.20327 0.8096 0.85609 0.0
H1031 H 0.15992 0.73583 0.82611 0.0
C1032 C 0.10537 0.69951 0.88076 0.0
C1033 C 0.10462 0.70477 0.89836 0.0
C1034 C 0.1198 0.73024 0.90627 0.0
C1035 C 0.13607 0.74965 0.89684 0.0
C1036 C 0.13685 0.7433 0.87953 0.0
C1037 C 0.12183 0.71879 0.87163 0.0
C1038 C 0.12757 0.71548 0.85315 0.0
C1039 C 0.14265 0.6854 0.84874 0.0
C1040 C 0.09845 0.71913 0.84224 0.0
C1041 C 0.14874 0.74158 0.85188 0.0
C1042 C 0.15355 0.75776 0.86711 0.0
C1043 C 0.17287 0.78257 0.86888 0.0
C1044 C 0.18786 0.79071 0.85476 0.0
C1045 C 0.18375 0.77375 0.83924 0.0
C1046 C 0.16365 0.74916 0.83784 0.0
H1047 H 0.49471 0.59935 0.11612 0.0
H1048 H 0.42497 0.6074 0.15176 0.0
H1049 H 0.39423 0.63591 0.1316 0.0
H1050 H 0.4881 0.67375 0.10248 0.0
H1051 H 0.49581 0.66302 0.08104 0.0
H1052 H 0.51121 0.64175 0.09791 0.0
H1053 H 0.48681 0.59338 0.08349 0.0
H1054 H 0.47115 0.61455 0.06662 0.0
H1055 H 0.44701 0.59222 0.07834 0.0
H1056 H 0.37134 0.66436 0.10734 0.0
H1057 H 0.35994 0.6927 0.08199 0.0
H1058 H 0.44619 0.66782 0.06346 0.0
C1059 C 0.47313 0.6073 0.11985 0.0
C1060 C 0.46234 0.601 0.13559 0.0
C1061 C 0.43362 0.61146 0.13969 0.0
C1062 C 0.41602 0.62781 0.12835 0.0
C1063 C 0.42747 0.63363 0.11298 0.0
C1064 C 0.45547 0.62383 0.1088 0.0
C1065 C 0.46325 0.63392 0.09181 0.0
C1066 C 0.49124 0.65433 0.09341 0.0
C1067 C 0.46728 0.6069 0.07933 0.0
C1068 C 0.43536 0.6512 0.08711 0.0
C1069 C 0.41478 0.65053 0.09935 0.0
C1070 C 0.38732 0.66503 0.09769 0.0
C1071 C 0.381 0.68098 0.08324 0.0
C1072 C 0.40221 0.68253 0.07081 0.0
C1073 C 0.42956 0.66717 0.07278 0.0
H1074 H 0.47629 0.95972 0.39452 0.0
H1075 H 0.56898 0.93165 0.39566 0.0
H1076 H 0.55672 0.89436 0.37216 0.0
H1077 H 0.44327 0.8837 0.38342 0.0
H1078 H 0.41361 0.89847 0.37012 0.0
H1079 H 0.4291 0.9207 0.38818 0.0
H1080 H 0.44075 0.96362 0.369 0.0
H1081 H 0.42547 0.94151 0.35091 0.0
H1082 H 0.46323 0.95601 0.35122 0.0
H1083 H 0.53618 0.86616 0.34594 0.0
H1084 H 0.50738 0.84516 0.32044 0.0
H1085 H 0.42728 0.88841 0.33757 0.0
C1086 C 0.49379 0.94524 0.39001 0.0
C1087 C 0.5235 0.94834 0.39691 0.0
C1088 C 0.54597 0.92925 0.39068 0.0
C1089 C 0.53925 0.90811 0.37731 0.0
C1090 C 0.50985 0.90599 0.37054 0.0
C1091 C 0.48734 0.92363 0.37686 0.0
C1092 C 0.45786 0.91776 0.36686 0.0
C1093 C 0.43459 0.90435 0.3778 0.0
C1094 C 0.44616 0.94642 0.35903 0.0
C1095 C 0.46758 0.89492 0.35354 0.0
C1096 C 0.49767 0.88846 0.35587 0.0
C1097 C 0.51243 0.87037 0.34421 0.0
C1098 C 0.496 0.85867 0.32977 0.0
C1099 C 0.46512 0.86475 0.3273 0.0
C1100 C 0.4507 0.88273 0.33946 0.0
H1101 H 0.20944 0.02119 0.64769 0.0
H1102 H 0.26467 0.10158 0.65185 0.0
H1103 H 0.29484 0.08059 0.62895 0.0
H1104 H 0.26864 0.96695 0.63477 0.0
H1105 H 0.24218 0.94639 0.62048 0.0
H1106 H 0.22976 0.96494 0.63948 0.0
H1107 H 0.19014 0.99357 0.62177 0.0
H1108 H 0.20259 0.97547 0.60277 0.0
H1109 H 0.20209 0.0158 0.6052 0.0
H1110 H 0.3141 0.05336 0.60259 0.0
H1111 H 0.31975 0.02302 0.57577 0.0
H1112 H 0.24928 0.9631 0.58852 0.0
C1113 C 0.22838 0.03407 0.64408 0.0
C1114 C 0.23476 0.06296 0.65153 0.0
C1115 C 0.25967 0.07918 0.64647 0.0
C1116 C 0.27685 0.06747 0.63343 0.0
C1117 C 0.26893 0.03944 0.62575 0.0
C1118 C 0.24539 0.02288 0.63107 0.0
C1119 C 0.23888 0.99512 0.6197 0.0
C1120 C 0.24526 0.96667 0.62917 0.0
C1121 C 0.20652 0.99503 0.6119 0.0
C1122 C 0.26143 0.99926 0.60665 0.0
C1123 C 0.27917 0.02448 0.61048 0.0
C1124 C 0.30061 0.03336 0.59963 0.0
C1125 C 0.30367 0.01615 0.58447 0.0
C1126 C 0.2849 0.99096 0.5803 0.0
C1127 C 0.26391 0.9823 0.59159 0.0
H1128 H 0.59797 0.42647 0.90916 0.0
H1129 H 0.66782 0.48561 0.89445 0.0
H1130 H 0.70306 0.46558 0.91582 0.0
H1131 H 0.61442 0.43498 0.95185 0.0
H1132 H 0.60733 0.39677 0.95665 0.0
H1133 H 0.5886 0.41185 0.93848 0.0
H1134 H 0.60911 0.36894 0.91932 0.0
H1135 H 0.62767 0.35344 0.93748 0.0
H1136 H 0.64885 0.36223 0.91983 0.0
H1137 H 0.72783 0.44605 0.94112 0.0
H1138 H 0.74272 0.42462 0.96809 0.0
H1139 H 0.65851 0.37566 0.96653 0.0
C1140 C 0.62099 0.43435 0.91009 0.0
C1141 C 0.6303 0.45749 0.90015 0.0
C1142 C 0.66032 0.46792 0.90198 0.0
C1143 C 0.68049 0.45661 0.91403 0.0
C1144 C 0.67039 0.43465 0.92407 0.0
C1145 C 0.64152 0.42322 0.92212 0.0
C1146 C 0.63593 0.40138 0.93553 0.0
C1147 C 0.61004 0.41189 0.94626 0.0
C1148 C 0.63005 0.36961 0.92756 0.0
C1149 C 0.66575 0.40331 0.94568 0.0
C1150 C 0.68527 0.42256 0.9387 0.0
C1151 C 0.7131 0.43037 0.94649 0.0
C1152 C 0.72127 0.41827 0.96183 0.0
C1153 C 0.70188 0.39834 0.96916 0.0
C1154 C 0.67392 0.39038 0.96091 0.0
H1155 H 0.7156 0.09576 0.18385 0.0
H1156 H 0.74325 0.15008 0.14404 0.0
H1157 H 0.77477 0.18119 0.16491 0.0
H1158 H 0.70827 0.15371 0.21387 0.0
H1159 H 0.72218 0.13336 0.23151 0.0
H1160 H 0.70462 0.11347 0.21326 0.0
H1161 H 0.75189 0.08081 0.21021 0.0
H1162 H 0.76958 0.10047 0.22856 0.0
H1163 H 0.78789 0.09867 0.209 0.0
H1164 H 0.79942 0.20891 0.1905 0.0
H1165 H 0.81555 0.23097 0.21869 0.0
H1166 H 0.77216 0.1576 0.24148 0.0
C1167 C 0.72898 0.11361 0.1794 0.0
C1168 C 0.72717 0.12036 0.16229 0.0
C1169 C 0.74425 0.14459 0.1571 0.0
C1170 C 0.76233 0.16224 0.16884 0.0
C1171 C 0.76317 0.15523 0.18566 0.0
C1172 C 0.74708 0.13136 0.1909 0.0
C1173 C 0.75014 0.1297 0.20981 0.0
C1174 C 0.71949 0.13276 0.21756 0.0
C1175 C 0.76582 0.10069 0.21468 0.0
C1176 C 0.76986 0.15685 0.21447 0.0
C1177 C 0.77737 0.17114 0.20037 0.0
C1178 C 0.79402 0.19769 0.20161 0.0
C1179 C 0.803 0.21008 0.21769 0.0
C1180 C 0.79522 0.19596 0.23231 0.0
C1181 C 0.77878 0.16878 0.23058 0.0
H1182 H 0.06619 0.1757 0.42677 0.0
H1183 H 0.10268 0.25955 0.41194 0.0
H1184 H 0.07458 0.28717 0.43378 0.0
H1185 H 0.99294 0.20193 0.43539 0.0
H1186 H 0.98987 0.17948 0.45327 0.0
H1187 H 0.0126 0.16694 0.43638 0.0
H1188 H 0.05833 0.1629 0.45764 0.0
H1189 H 0.03576 0.1755 0.47459 0.0
H1190 H 0.06997 0.19515 0.47112 0.0
H1191 H 0.04045 0.30535 0.45691 0.0
H1192 H 0.00591 0.31206 0.48006 0.0
H1193 H 0.99461 0.21559 0.47998 0.0
C1194 C 0.06808 0.19991 0.42805 0.0
C1195 C 0.08628 0.21561 0.41762 0.0
C1196 C 0.08876 0.2472 0.41985 0.0
C1197 C 0.07286 0.26301 0.43217 0.0
C1198 C 0.05497 0.24678 0.44224 0.0
C1199 C 0.05277 0.21588 0.44036 0.0
C1200 C 0.03269 0.20348 0.45292 0.0
C1201 C 0.00541 0.187 0.44395 0.0
C1202 C 0.05024 0.18306 0.46477 0.0
C1203 C 0.02366 0.2322 0.46212 0.0
C1204 C 0.0365 0.25702 0.45577 0.0
C1205 C 0.03049 0.28603 0.46205 0.0
C1206 C 0.01086 0.28964 0.47517 0.0
C1207 C 0.99783 0.26436 0.48191 0.0
C1208 C 0.00451 0.23538 0.47526 0.0
H1209 H 0.97863 0.52071 0.66819 0.0
H1210 H 0.903 0.57437 0.65176 0.0
H1211 H 0.87078 0.54765 0.67022 0.0
H1212 H 0.93822 0.45173 0.6733 0.0
H1213 H 0.96057 0.44347 0.69197 0.0
H1214 H 0.97659 0.46459 0.6761 0.0
H1215 H 0.99089 0.50742 0.69851 0.0
H1216 H 0.97486 0.48649 0.71443 0.0
H1217 H 0.96223 0.52395 0.71096 0.0
H1218 H 0.84721 0.51581 0.69173 0.0
H1219 H 0.83547 0.48346 0.71479 0.0
H1220 H 0.92795 0.45467 0.71822 0.0
C1221 C 0.95533 0.52704 0.66842 0.0
C1222 C 0.94351 0.54976 0.65843 0.0
C1223 C 0.91264 0.55673 0.65902 0.0
C1224 C 0.89415 0.54179 0.66957 0.0
C1225 C 0.90683 0.52003 0.67953 0.0
C1226 C 0.93677 0.51279 0.67903 0.0
C1227 C 0.94559 0.48998 0.69163 0.0
C1228 C 0.95584 0.46071 0.68271 0.0
C1229 C 0.96981 0.50274 0.70465 0.0
C1230 C 0.91604 0.48575 0.69949 0.0
C1231 C 0.89376 0.50287 0.69223 0.0
C1232 C 0.86453 0.50235 0.6975 0.0
C1233 C 0.85805 0.48395 0.71058 0.0
C1234 C 0.88085 0.46681 0.71837 0.0
C1235 C 0.9101 0.46776 0.71264 0.0
H1236 H 0.67389 0.1642 0.38212 0.0
H1237 H 0.71273 0.076 0.38623 0.0
H1238 H 0.74508 0.0854 0.36311 0.0
H1239 H 0.67307 0.16468 0.33682 0.0
H1240 H 0.68289 0.20383 0.33667 0.0
H1241 H 0.66264 0.19045 0.35366 0.0
H1242 H 0.70366 0.21267 0.3752 0.0
H1243 H 0.72401 0.22615 0.35828 0.0
H1244 H 0.74216 0.20214 0.37306 0.0
H1245 H 0.77254 0.10347 0.33953 0.0
H1246 H 0.79517 0.12995 0.31719 0.0
H1247 H 0.73942 0.20712 0.32799 0.0
C1248 C 0.68916 0.14688 0.37809 0.0
C1249 C 0.69094 0.11943 0.38607 0.0
C1250 C 0.71133 0.09737 0.38052 0.0
C1251 C 0.72966 0.10241 0.36731 0.0
C1252 C 0.72741 0.12965 0.35976 0.0
C1253 C 0.70782 0.15161 0.36494 0.0
C1254 C 0.71025 0.17901 0.3547 0.0
C1255 C 0.68044 0.18483 0.34488 0.0
C1256 C 0.72064 0.20662 0.36598 0.0
C1257 C 0.73421 0.16891 0.34295 0.0
C1258 C 0.74363 0.1403 0.34611 0.0
C1259 C 0.76542 0.12591 0.33694 0.0
C1260 C 0.77811 0.14118 0.32425 0.0
C1261 C 0.76912 0.17065 0.32081 0.0
C1262 C 0.74678 0.18464 0.33031 0.0
H1263 H 0.05313 0.20068 0.61931 0.0
H1264 H 0.00044 0.23893 0.65907 0.0
H1265 H 0.96836 0.26404 0.63792 0.0
H1266 H 0.05006 0.26429 0.59332 0.0
H1267 H 0.04729 0.24136 0.57394 0.0
H1268 H 0.06669 0.22766 0.59233 0.0
H1269 H 0.03238 0.18044 0.58998 0.0
H1270 H 0.01287 0.194 0.5716 0.0
H1271 H 0.99229 0.18484 0.58941 0.0
H1272 H 0.94077 0.28307 0.61208 0.0
H1273 H 0.9205 0.29524 0.58383 0.0
H1274 H 0.99152 0.24387 0.56132 0.0
C1275 C 0.0348 0.21427 0.62359 0.0
C1276 C 0.0292 0.21779 0.64082 0.0
C1277 C 0.00528 0.23616 0.64593 0.0
C1278 C 0.98689 0.25038 0.63401 0.0
C1279 C 0.99286 0.2461 0.61708 0.0
C1280 C 0.01632 0.22858 0.61191 0.0
C1281 C 0.01777 0.22707 0.59299 0.0
C1282 C 0.0472 0.24093 0.58785 0.0
C1283 C 0.01356 0.19467 0.58557 0.0
C1284 C 0.9912 0.2462 0.58827 0.0
C1285 C 0.97714 0.25707 0.60231 0.0
C1286 C 0.95169 0.2748 0.601 0.0
C1287 C 0.94033 0.28155 0.5849 0.0
C1288 C 0.95442 0.27054 0.57034 0.0
C1289 C 0.98025 0.25274 0.57216 0.0
H1290 H 0.95239 0.52693 0.85961 0.0
H1291 H 0.90917 0.48063 0.89811 0.0
H1292 H 0.87943 0.4505 0.87599 0.0
H1293 H 0.88785 0.52922 0.83019 0.0
H1294 H 0.90964 0.52305 0.81202 0.0
H1295 H 0.92632 0.54181 0.83091 0.0
H1296 H 0.96888 0.50273 0.83154 0.0
H1297 H 0.95235 0.48386 0.81267 0.0
H1298 H 0.9595 0.46342 0.83128 0.0
H1299 H 0.8561 0.42399 0.84953 0.0
H1300 H 0.84057 0.40357 0.8209 0.0
H1301 H 0.89982 0.46718 0.79998 0.0
C1302 C 0.93674 0.5104 0.86341 0.0
C1303 C 0.93314 0.50606 0.88058 0.0
C1304 C 0.91207 0.48453 0.88502 0.0
C1305 C 0.89519 0.46724 0.87256 0.0
C1306 C 0.89959 0.47189 0.85575 0.0
C1307 C 0.91978 0.49302 0.85118 0.0
C1308 C 0.92082 0.4933 0.83227 0.0
C1309 C 0.91053 0.52365 0.82599 0.0
C1310 C 0.95225 0.48534 0.82661 0.0
C1311 C 0.89831 0.46871 0.82688 0.0
C1312 C 0.88621 0.45671 0.84059 0.0
C1313 C 0.86533 0.43332 0.83871 0.0
C1314 C 0.85669 0.42185 0.82238 0.0
C1315 C 0.86895 0.43376 0.80816 0.0
C1316 C 0.88993 0.45761 0.81055 0.0
H1317 H 0.63239 0.45215 0.1123 0.0
H1318 H 0.67204 0.39722 0.15063 0.0
H1319 H 0.70108 0.37022 0.12912 0.0
H1320 H 0.62582 0.39431 0.07896 0.0
H1321 H 0.63487 0.41903 0.06289 0.0
H1322 H 0.61699 0.43356 0.08127 0.0
H1323 H 0.65994 0.47257 0.08745 0.0
H1324 H 0.67794 0.45818 0.06909 0.0
H1325 H 0.69814 0.45997 0.08935 0.0
H1326 H 0.72674 0.35035 0.10349 0.0
H1327 H 0.74632 0.33813 0.07567 0.0
H1328 H 0.68956 0.40625 0.05416 0.0
C1329 C 0.64734 0.43458 0.11621 0.0
C1330 C 0.6501 0.42686 0.13316 0.0
C1331 C 0.66945 0.40334 0.1377 0.0
C1332 C 0.6861 0.388 0.12559 0.0
C1333 C 0.68297 0.39636 0.10901 0.0
C1334 C 0.66399 0.41902 0.10431 0.0
C1335 C 0.66465 0.42374 0.0857 0.0
C1336 C 0.63375 0.41726 0.07667 0.0
C1337 C 0.67584 0.4555 0.08273 0.0
C1338 C 0.68718 0.40031 0.08063 0.0
C1339 C 0.6975 0.38476 0.09426 0.0
C1340 C 0.71876 0.36231 0.09273 0.0
C1341 C 0.72977 0.35558 0.07686 0.0
C1342 C 0.71948 0.3712 0.06269 0.0
C1343 C 0.69782 0.3938 0.06469 0.0
loop_
_geom_bond_atom_site_label_1
_geom_bond_atom_site_label_2
_geom_bond_distance
_geom_bond_site_symmetry_2
_ccdc_geom_bond_type
C0 C1 1.384 . S
C0 C2 1.384 . S
C0 H28 0.931 . S
C1 C0 1.384 . S
C1 C4 1.383 1_565 S
C2 C0 1.384 . S
C2 C3 1.381 1_565 S
C2 H29 0.930 . S
C3 C2 1.381 1_545 S
C3 C5 1.381 . S
C3 C6 1.487 . S
C4 C1 1.383 1_545 S
C4 C5 1.387 . S
C4 H30 0.930 . S
C5 C3 1.381 . S
C5 C4 1.387 . S
C5 H31 0.931 . S
C6 C3 1.487 . S
C6 C13 1.399 . S
C6 N44 1.343 . S
C7 C8 1.384 . S
C7 C9 1.384 1_565 S
C7 H32 0.932 . S
C8 C7 1.384 . S
C8 C11 1.382 . S
C9 C7 1.384 1_545 S
C9 C10 1.381 . S
C9 H33 0.930 . S
C10 C9 1.381 . S
C10 C12 1.381 1_545 S
C10 C13 1.487 . S
C11 C8 1.382 . S
C11 C12 1.387 . S
C11 H34 0.930 . S
C12 C10 1.381 1_565 S
C12 C11 1.387 . S
C12 H35 0.931 . S
C13 C6 1.399 . S
C13 C10 1.487 . S
C13 N45 1.343 . S
C14 C15 1.384 . S
C14 C16 1.384 . S
C14 H36 0.931 . S
C15 C14 1.384 . S
C15 C18 1.382 . S
C16 C14 1.384 . S
C16 C17 1.381 . S
C16 H37 0.930 . S
C17 C16 1.381 . S
C17 C19 1.381 . S
C17 C20 1.487 . S
C18 C15 1.382 . S
C18 C19 1.387 . S
C18 H38 0.930 . S
C19 C17 1.381 . S
C19 C18 1.387 . S
C19 H39 0.931 . S
C20 C17 1.487 . S
C20 C27 1.399 . S
C20 N45 1.343 . S
C21 C22 1.384 . S
C21 C23 1.384 . S
C21 H40 0.931 . S
C22 C21 1.384 . S
C22 C25 1.382 . S
C23 C21 1.384 . S
C23 C24 1.381 . S
C23 H41 0.930 . S
C24 C23 1.381 . S
C24 C26 1.381 . S
C24 C27 1.487 . S
C25 C22 1.382 . S
C25 C26 1.387 . S
C25 H42 0.930 . S
C26 C24 1.381 . S
C26 C25 1.387 . S
C26 H43 0.931 . S
C27 C20 1.399 . S
C27 C24 1.487 . S
C27 N44 1.343 . S
H28 C0 0.931 . S
H29 C2 0.930 . S
H30 C4 0.930 . S
H31 C5 0.931 . S
H32 C7 0.932 . S
H33 C9 0.930 . S
H34 C11 0.930 . S
H35 C12 0.931 . S
H36 C14 0.931 . S
H37 C16 0.930 . S
H38 C18 0.930 . S
H39 C19 0.931 . S
H40 C21 0.931 . S
H41 C23 0.930 . S
H42 C25 0.930 . S
H43 C26 0.931 . S
N44 C6 1.343 . S
N44 C27 1.343 . S
N45 C13 1.343 . S
N45 C20 1.343 . S
C46 C47 1.384 . S
C46 C48 1.384 . S
C46 H74 0.931 . S
C47 C46 1.384 . S
C47 C50 1.382 . S
C48 C46 1.384 . S
C48 C49 1.381 1_655 S
C48 H75 0.930 . S
C49 C48 1.381 1_455 S
C49 C51 1.381 . S
C49 C52 1.487 . S
C50 C47 1.382 . S
C50 C51 1.387 1_655 S
C50 H76 0.930 1_655 S
C51 C49 1.381 . S
C51 C50 1.387 1_455 S
C51 H77 0.931 . S
C52 C49 1.487 . S
C52 C59 1.399 . S
C52 N90 1.343 . S
C53 C54 1.384 1_455 S
C53 C55 1.384 . S
C53 H78 0.931 . S
C54 C53 1.384 1_655 S
C54 C57 1.382 . S
C55 C53 1.384 . S
C55 C56 1.381 . S
C55 H79 0.930 . S
C56 C55 1.381 . S
C56 C58 1.381 . S
C56 C59 1.487 . S
C57 C54 1.382 . S
C57 C58 1.387 1_655 S
C57 H80 0.930 . S
C58 C56 1.381 . S
C58 C57 1.387 1_455 S
C58 H81 0.931 . S
C59 C52 1.399 . S
C59 C56 1.487 . S
C59 N91 1.343 . S
C60 C61 1.384 . S
C60 C62 1.384 . S
C60 H82 0.931 . S
C61 C60 1.384 . S
C61 C64 1.382 . S
C62 C60 1.384 . S
C62 C63 1.381 . S
C62 H83 0.930 . S
C63 C62 1.381 . S
C63 C65 1.381 . S
C63 C66 1.487 . S
C64 C61 1.382 . S
C64 C65 1.387 . S
C64 H84 0.930 . S
C65 C63 1.381 . S
C65 C64 1.387 . S
C65 H85 0.931 . S
C66 C63 1.487 . S
C66 C73 1.399 . S
C66 N91 1.343 . S
C67 C68 1.384 . S
C67 C69 1.384 . S
C67 H86 0.931 . S
C68 C67 1.384 . S
C68 C71 1.382 . S
C69 C67 1.384 . S
C69 C70 1.381 . S
C69 H87 0.930 . S
C70 C69 1.381 . S
C70 C72 1.381 . S
C70 C73 1.487 . S
C71 C68 1.382 . S
C71 C72 1.387 . S
C71 H88 0.930 . S
C72 C70 1.381 . S
C72 C71 1.387 . S
C72 H89 0.931 . S
C73 C66 1.399 . S
C73 C70 1.487 . S
C73 N90 1.343 . S
H74 C46 0.931 . S
H75 C48 0.930 . S
H76 C50 0.930 1_455 S
H77 C51 0.931 . S
H78 C53 0.931 . S
H79 C55 0.930 . S
H80 C57 0.930 . S
H81 C58 0.931 . S
H82 C60 0.931 . S
H83 C62 0.930 . S
H84 C64 0.930 . S
H85 C65 0.931 . S
H86 C67 0.931 . S
H87 C69 0.930 . S
H88 C71 0.930 . S
H89 C72 0.931 . S
N90 C52 1.343 . S
N90 C73 1.343 . S
N91 C59 1.343 . S
N91 C66 1.343 . S
C92 C93 1.384 . S
C92 C94 1.384 . S
C92 H120 0.931 . S
C93 C92 1.384 . S
C93 C96 1.382 . S
C94 C92 1.384 . S
C94 C95 1.381 . S
C94 H121 0.930 . S
C95 C94 1.381 . S
C95 C97 1.381 . S
C95 C98 1.487 . S
C96 C93 1.382 . S
C96 C97 1.387 . S
C96 H122 0.930 . S
C97 C95 1.381 . S
C97 C96 1.387 . S
C97 H123 0.931 . S
C98 C95 1.487 . S
C98 C105 1.399 . S
C98 N136 1.343 . S
C99 C100 1.384 . S
C99 C101 1.384 . S
C99 H124 0.931 . S
C100 C99 1.384 . S
C100 C103 1.382 . S
C101 C99 1.384 . S
C101 C102 1.381 . S
C101 H125 0.930 . S
C102 C101 1.381 . S
C102 C104 1.381 . S
C102 C105 1.487 . S
C103 C100 1.382 . S
C103 C104 1.387 . S
C103 H126 0.930 . S
C104 C102 1.381 . S
C104 C103 1.387 . S
C104 H127 0.931 . S
C105 C98 1.399 . S
C105 C102 1.487 . S
C105 N137 1.343 . S
C106 C107 1.384 . S
C106 C108 1.384 . S
C106 H128 0.931 . S
C107 C106 1.384 . S
C107 C110 1.382 . S
C108 C106 1.384 . S
C108 C109 1.381 . S
C108 H129 0.930 . S
C109 C108 1.381 . S
C109 C111 1.381 . S
C109 C112 1.487 . S
C110 C107 1.382 . S
C110 C111 1.387 . S
C110 H130 0.930 . S
C111 C109 1.381 . S
C111 C110 1.387 . S
C111 H131 0.931 . S
C112 C109 1.487 . S
C112 C119 1.399 . S
C112 N137 1.343 . S
C113 C114 1.384 . S
C113 C115 1.384 . S
C113 H132 0.931 . S
C114 C113 1.384 . S
C114 C117 1.382 . S
C115 C113 1.384 . S
C115 C116 1.381 . S
C115 H133 0.930 . S
C116 C115 1.381 . S
C116 C118 1.381 . S
C116 C119 1.487 . S
C117 C114 1.382 . S
C117 C118 1.387 . S
C117 H134 0.930 . S
C118 C116 1.381 . S
C118 C117 1.387 . S
C118 H135 0.931 . S
C119 C112 1.399 . S
C119 C116 1.487 . S
C119 N136 1.343 . S
H120 C92 0.931 . S
H121 C94 0.930 . S
H122 C96 0.930 . S
H123 C97 0.931 . S
H124 C99 0.931 . S
H125 C101 0.930 . S
H126 C103 0.930 . S
H127 C104 0.931 . S
H128 C106 0.931 . S
H129 C108 0.930 . S
H130 C110 0.930 . S
H131 C111 0.931 . S
H132 C113 0.931 . S
H133 C115 0.930 . S
H134 C117 0.930 . S
H135 C118 0.931 . S
N136 C98 1.343 . S
N136 C119 1.343 . S
N137 C105 1.343 . S
N137 C112 1.343 . S
C138 C139 1.384 . S
C138 C140 1.384 . S
C138 H166 0.931 . S
C139 C138 1.384 . S
C139 C142 1.382 . S
C140 C138 1.384 . S
C140 C141 1.381 . S
C140 H167 0.930 . S
C141 C140 1.381 . S
C141 C143 1.381 . S
C141 C144 1.487 . S
C142 C139 1.382 . S
C142 C143 1.387 . S
C142 H168 0.930 . S
C143 C141 1.381 . S
C143 C142 1.387 . S
C143 H169 0.931 . S
C144 C141 1.487 . S
C144 C151 1.399 . S
C144 N182 1.343 1_565 S
C145 C146 1.384 . S
C145 C147 1.384 . S
C145 H170 0.931 . S
C146 C145 1.384 . S
C146 C149 1.382 . S
C147 C145 1.384 . S
C147 C148 1.381 . S
C147 H171 0.930 . S
C148 C147 1.381 . S
C148 C150 1.381 . S
C148 C151 1.487 . S
C149 C146 1.382 . S
C149 C150 1.387 . S
C149 H172 0.930 . S
C150 C148 1.381 . S
C150 C149 1.387 . S
C150 H173 0.931 . S
C151 C144 1.399 . S
C151 C148 1.487 . S
C151 N183 1.343 . S
C152 C153 1.384 . S
C152 C154 1.384 . S
C152 H174 0.931 . S
C153 C152 1.384 . S
C153 C156 1.382 . S
C154 C152 1.384 . S
C154 C155 1.381 . S
C154 H175 0.930 . S
C155 C154 1.381 . S
C155 C157 1.381 . S
C155 C158 1.487 . S
C156 C153 1.382 . S
C156 C157 1.387 . S
C156 H176 0.930 . S
C157 C155 1.381 . S
C157 C156 1.387 . S
C157 H177 0.931 . S
C158 C155 1.487 . S
C158 C165 1.399 . S
C158 N183 1.343 1_545 S
C159 C160 1.384 . S
C159 C161 1.384 . S
C159 H178 0.931 . S
C160 C159 1.384 . S
C160 C163 1.382 . S
C161 C159 1.384 . S
C161 C162 1.381 . S
C161 H179 0.930 . S
C162 C161 1.381 . S
C162 C164 1.381 . S
C162 C165 1.487 . S
C163 C160 1.382 . S
C163 C164 1.387 . S
C163 H180 0.930 . S
C164 C162 1.381 . S
C164 C163 1.387 . S
C164 H181 0.931 . S
C165 C158 1.399 . S
C165 C162 1.487 . S
C165 N182 1.343 . S
H166 C138 0.931 . S
H167 C140 0.930 . S
H168 C142 0.930 . S
H169 C143 0.931 . S
H170 C145 0.931 . S
H171 C147 0.930 . S
H172 C149 0.930 . S
H173 C150 0.931 . S
H174 C152 0.931 . S
H175 C154 0.930 . S
H176 C156 0.930 . S
H177 C157 0.931 . S
H178 C159 0.931 . S
H179 C161 0.930 . S
H180 C163 0.930 . S
H181 C164 0.931 . S
N182 C144 1.343 1_545 S
N182 C165 1.343 . S
N183 C151 1.343 . S
N183 C158 1.343 1_565 S
C184 C185 1.384 . S
C184 C186 1.384 . S
C184 H212 0.931 . S
C185 C184 1.384 . S
C185 C188 1.382 . S
C186 C184 1.384 . S
C186 C187 1.381 . S
C186 H213 0.930 . S
C187 C186 1.381 . S
C187 C189 1.381 . S
C187 C190 1.487 . S
C188 C185 1.382 . S
C188 C189 1.387 . S
C188 H214 0.930 . S
C189 C187 1.381 . S
C189 C188 1.387 . S
C189 H215 0.931 . S
C190 C187 1.487 . S
C190 C197 1.399 . S
C190 N228 1.338 1_455 S
C191 C192 1.384 . S
C191 C193 1.384 . S
C191 H216 0.931 . S
C192 C191 1.384 . S
C192 C195 1.381 . S
C193 C191 1.384 . S
C193 C194 1.381 . S
C193 H217 0.930 . S
C194 C193 1.381 . S
C194 C196 1.381 . S
C194 C197 1.487 . S
C195 C192 1.381 . S
C195 C196 1.384 . S
C195 H218 0.935 1_556 S
C196 C194 1.381 . S
C196 C195 1.384 . S
C196 H219 0.931 . S
C197 C190 1.399 . S
C197 C194 1.487 . S
C197 N229 1.356 . S
C198 C199 1.384 . S
C198 C200 1.384 . S
C198 H220 0.931 . S
C199 C198 1.384 . S
C199 C202 1.382 . S
C200 C198 1.384 . S
C200 C201 1.381 . S
C200 H221 0.930 . S
C201 C200 1.381 . S
C201 C203 1.381 . S
C201 C204 1.487 . S
C202 C199 1.382 . S
C202 C203 1.387 . S
C202 H222 0.930 . S
C203 C201 1.381 . S
C203 C202 1.387 . S
C203 H223 0.931 . S
C204 C201 1.487 . S
C204 C211 1.399 . S
C204 N229 1.331 1_655 S
C205 C206 1.384 . S
C205 C207 1.384 . S
C205 H224 0.931 . S
C206 C205 1.384 . S
C206 C209 1.382 . S
C207 C205 1.384 . S
C207 C208 1.381 . S
C207 H225 0.930 . S
C208 C207 1.381 . S
C208 C210 1.381 . S
C208 C211 1.487 . S
C209 C206 1.382 . S
C209 C210 1.387 . S
C209 H226 0.930 . S
C210 C208 1.381 . S
C210 C209 1.387 . S
C210 H227 0.931 . S
C211 C204 1.399 . S
C211 C208 1.487 . S
C211 N228 1.349 . S
H212 C184 0.931 . S
H213 C186 0.930 . S
H214 C188 0.930 . S
H215 C189 0.931 . S
H216 C191 0.931 . S
H217 C193 0.930 . S
H218 C195 0.935 1_554 S
H219 C196 0.931 . S
H220 C198 0.931 . S
H221 C200 0.930 . S
H222 C202 0.930 . S
H223 C203 0.931 . S
H224 C205 0.931 . S
H225 C207 0.930 . S
H226 C209 0.930 . S
H227 C210 0.931 . S
N228 C190 1.338 1_655 S
N228 C211 1.349 . S
N229 C197 1.356 . S
N229 C204 1.331 1_455 S
C230 C231 1.384 . S
C230 C232 1.384 . S
C230 H258 0.931 . S
C231 C230 1.384 . S
C231 C234 1.382 . S
C232 C230 1.384 . S
C232 C233 1.381 . S
C232 H259 0.930 . S
C233 C232 1.381 . S
C233 C235 1.381 . S
C233 C236 1.487 . S
C234 C231 1.382 . S
C234 C235 1.387 . S
C234 H260 0.930 . S
C235 C233 1.381 . S
C235 C234 1.387 . S
C235 H261 0.931 . S
C236 C233 1.487 . S
C236 C243 1.399 . S
C236 N274 1.343 . S
C237 C238 1.384 . S
C237 C239 1.384 . S
C237 H262 0.931 . S
C238 C237 1.384 . S
C238 C241 1.382 . S
C239 C237 1.384 . S
C239 C240 1.381 . S
C239 H263 0.930 . S
C240 C239 1.381 . S
C240 C242 1.381 . S
C240 C243 1.487 . S
C241 C238 1.382 . S
C241 C242 1.387 . S
C241 H264 0.930 . S
C242 C240 1.381 . S
C242 C241 1.387 . S
C242 H265 0.931 . S
C243 C236 1.399 . S
C243 C240 1.487 . S
C243 N275 1.343 . S
C244 C245 1.384 . S
C244 C246 1.384 . S
C244 H266 0.931 . S
C245 C244 1.384 . S
C245 C248 1.382 . S
C246 C244 1.384 . S
C246 C247 1.381 . S
C246 H267 0.930 . S
C247 C246 1.381 . S
C247 C249 1.381 . S
C247 C250 1.487 . S
C248 C245 1.382 . S
C248 C249 1.387 . S
C248 H268 0.930 . S
C249 C247 1.381 . S
C249 C248 1.387 . S
C249 H269 0.931 . S
C250 C247 1.487 . S
C250 C257 1.399 . S
C250 N275 1.343 . S
C251 C252 1.384 . S
C251 C253 1.384 . S
C251 H270 0.931 . S
C252 C251 1.384 . S
C252 C255 1.382 . S
C253 C251 1.384 . S
C253 C254 1.381 . S
C253 H271 0.930 . S
C254 C253 1.381 . S
C254 C256 1.381 . S
C254 C257 1.487 . S
C255 C252 1.382 . S
C255 C256 1.387 . S
C255 H272 0.930 . S
C256 C254 1.381 . S
C256 C255 1.387 . S
C256 H273 0.931 . S
C257 C250 1.399 . S
C257 C254 1.487 . S
C257 N274 1.343 . S
H258 C230 0.931 . S
H259 C232 0.930 . S
H260 C234 0.930 . S
H261 C235 0.931 . S
H262 C237 0.931 . S
H263 C239 0.930 . S
H264 C241 0.930 . S
H265 C242 0.931 . S
H266 C244 0.931 . S
H267 C246 0.930 . S
H268 C248 0.930 . S
H269 C249 0.931 . S
H270 C251 0.931 . S
H271 C253 0.930 . S
H272 C255 0.930 . S
H273 C256 0.931 . S
N274 C236 1.343 . S
N274 C257 1.343 . S
N275 C243 1.343 . S
N275 C250 1.343 . S
C276 C277 1.384 . S
C276 C278 1.384 . S
C276 H304 0.931 . S
C277 C276 1.384 . S
C277 C280 1.382 . S
C278 C276 1.384 . S
C278 C279 1.381 . S
C278 H305 0.930 . S
C279 C278 1.381 . S
C279 C281 1.381 . S
C279 C282 1.487 1_565 S
C280 C277 1.382 . S
C280 C281 1.387 . S
C280 H306 0.930 . S
C281 C279 1.381 . S
C281 C280 1.387 . S
C281 H307 0.931 1_565 S
C282 C279 1.487 1_545 S
C282 C289 1.399 . S
C282 N320 1.343 . S
C283 C284 1.384 . S
C283 C285 1.384 1_565 S
C283 H308 0.931 . S
C284 C283 1.384 . S
C284 C287 1.382 . S
C285 C283 1.384 1_545 S
C285 C286 1.383 . S
C285 H309 0.930 . S
C286 C285 1.383 . S
C286 C288 1.372 1_545 S
C286 C289 1.496 . S
C287 C284 1.382 . S
C287 C288 1.387 . S
C287 H310 0.930 . S
C288 C286 1.372 1_565 S
C288 C287 1.387 . S
C288 H311 0.931 . S
C289 C282 1.399 . S
C289 C286 1.496 . S
C289 N321 1.343 . S
C290 C291 1.384 . S
C290 C292 1.384 . S
C290 H312 0.931 . S
C291 C290 1.384 . S
C291 C294 1.382 . S
C292 C290 1.384 . S
C292 C293 1.381 . S
C292 H313 0.930 . S
C293 C292 1.381 . S
C293 C295 1.381 . S
C293 C296 1.487 . S
C294 C291 1.382 . S
C294 C295 1.387 . S
C294 H314 0.930 . S
C295 C293 1.381 . S
C295 C294 1.387 . S
C295 H315 0.931 . S
C296 C293 1.487 . S
C296 C303 1.399 . S
C296 N321 1.343 . S
C297 C298 1.384 . S
C297 C299 1.384 . S
C297 H316 0.931 . S
C298 C297 1.384 . S
C298 C301 1.382 . S
C299 C297 1.384 . S
C299 C300 1.381 . S
C299 H317 0.930 . S
C300 C299 1.381 . S
C300 C302 1.381 . S
C300 C303 1.487 . S
C301 C298 1.382 . S
C301 C302 1.387 . S
C301 H318 0.930 . S
C302 C300 1.381 . S
C302 C301 1.387 . S
C302 H319 0.931 . S
C303 C296 1.399 . S
C303 C300 1.487 . S
C303 N320 1.343 . S
H304 C276 0.931 . S
H305 C278 0.930 . S
H306 C280 0.930 . S
H307 C281 0.931 1_545 S
H308 C283 0.931 . S
H309 C285 0.930 . S
H310 C287 0.930 . S
H311 C288 0.931 . S
H312 C290 0.931 . S
H313 C292 0.930 . S
H314 C294 0.930 . S
H315 C295 0.931 . S
H316 C297 0.931 . S
H317 C299 0.930 . S
H318 C301 0.930 . S
H319 C302 0.931 . S
N320 C282 1.343 . S
N320 C303 1.343 . S
N321 C289 1.343 . S
N321 C296 1.343 . S
C322 C323 1.384 . S
C322 C324 1.384 . S
C322 H350 0.931 . S
C323 C322 1.384 . S
C323 C326 1.382 . S
C324 C322 1.384 . S
C324 C325 1.381 . S
C324 H351 0.930 . S
C325 C324 1.381 . S
C325 C327 1.381 . S
C325 C328 1.487 . S
C326 C323 1.382 . S
C326 C327 1.387 . S
C326 H352 0.930 . S
C327 C325 1.381 . S
C327 C326 1.387 . S
C327 H353 0.931 . S
C328 C325 1.487 . S
C328 C335 1.399 . S
C328 N366 1.343 . S
C329 C330 1.384 . S
C329 C331 1.384 . S
C329 H354 0.931 . S
C330 C329 1.384 . S
C330 C333 1.382 . S
C331 C329 1.384 . S
C331 C332 1.381 . S
C331 H355 0.930 . S
C332 C331 1.381 . S
C332 C334 1.381 . S
C332 C335 1.487 . S
C333 C330 1.382 . S
C333 C334 1.387 . S
C333 H356 0.930 . S
C334 C332 1.381 . S
C334 C333 1.387 . S
C334 H357 0.931 . S
C335 C328 1.399 . S
C335 C332 1.487 . S
C335 N367 1.343 . S
C336 C337 1.384 . S
C336 C338 1.384 . S
C336 H358 0.908 1_455 S
C337 C336 1.384 . S
C337 C340 1.382 . S
C338 C336 1.384 . S
C338 C339 1.381 . S
C338 H359 0.930 . S
C339 C338 1.381 . S
C339 C341 1.381 . S
C339 C342 1.487 . S
C340 C337 1.382 . S
C340 C341 1.387 . S
C340 H360 0.930 . S
C341 C339 1.381 . S
C341 C340 1.387 . S
C341 H361 0.931 . S
C342 C339 1.487 . S
C342 C349 1.399 . S
C342 N367 1.343 . S
C343 C344 1.384 . S
C343 C345 1.384 . S
C343 H362 0.931 . S
C344 C343 1.384 . S
C344 C347 1.382 . S
C345 C343 1.384 . S
C345 C346 1.381 . S
C345 H363 0.930 . S
C346 C345 1.381 . S
C346 C348 1.381 . S
C346 C349 1.487 . S
C347 C344 1.382 . S
C347 C348 1.387 . S
C347 H364 0.930 . S
C348 C346 1.381 . S
C348 C347 1.387 . S
C348 H365 0.931 . S
C349 C342 1.399 . S
C349 C346 1.487 . S
C349 N366 1.343 . S
H350 C322 0.931 . S
H351 C324 0.930 . S
H352 C326 0.930 . S
H353 C327 0.931 . S
H354 C329 0.931 . S
H355 C331 0.930 . S
H356 C333 0.930 . S
H357 C334 0.931 . S
H358 C336 0.908 1_655 S
H359 C338 0.930 . S
H360 C340 0.930 . S
H361 C341 0.931 . S
H362 C343 0.931 . S
H363 C345 0.930 . S
H364 C347 0.930 . S
H365 C348 0.931 . S
N366 C328 1.343 . S
N366 C349 1.343 . S
N367 C335 1.343 . S
N367 C342 1.343 . S
O368 Cd369 2.223 . S
O368 C376 1.315 . S
Cd369 O368 2.223 . S
Cd369 O372 2.297 . S
Cd369 O373 2.439 . S
Cd369 O379 2.240 . S
Cd370 O371 2.240 . S
Cd370 O378 2.223 . S
Cd370 O380 2.297 . S
Cd370 O381 2.439 . S
O371 Cd370 2.240 . S
O371 C376 1.279 . S
O372 Cd369 2.297 . S
O372 C374 1.247 . S
O373 Cd369 2.439 . S
O373 C374 1.208 . S
C374 O372 1.247 . S
C374 O373 1.208 . S
C375 O380 1.247 . S
C375 O381 1.208 . S
C376 O368 1.315 . S
C376 O371 1.279 . S
C377 O378 1.315 . S
C377 O379 1.279 . S
O378 Cd370 2.223 . S
O378 C377 1.315 . S
O379 Cd369 2.240 . S
O379 C377 1.279 . S
O380 Cd370 2.297 . S
O380 C375 1.247 . S
O381 Cd370 2.439 . S
O381 C375 1.208 . S
O382 Cd383 2.223 . S
O382 C390 1.315 . S
Cd383 O382 2.223 . S
Cd383 O386 2.297 . S
Cd383 O387 2.439 . S
Cd383 O393 2.240 . S
Cd384 O385 2.240 . S
Cd384 O392 2.223 . S
Cd384 O394 2.297 . S
Cd384 O395 2.439 . S
O385 Cd384 2.240 . S
O385 C390 1.279 . S
O386 Cd383 2.297 . S
O386 C388 1.247 . S
O387 Cd383 2.439 . S
O387 C388 1.208 . S
C388 O386 1.247 . S
C388 O387 1.208 . S
C389 O394 1.247 . S
C389 O395 1.208 . S
C390 O382 1.315 . S
C390 O385 1.279 . S
C391 O392 1.315 . S
C391 O393 1.279 . S
O392 Cd384 2.223 . S
O392 C391 1.315 . S
O393 Cd383 2.240 . S
O393 C391 1.279 . S
O394 Cd384 2.297 . S
O394 C389 1.247 . S
O395 Cd384 2.439 . S
O395 C389 1.208 . S
O396 Cd397 2.223 . S
O396 C404 1.315 . S
Cd397 O396 2.223 . S
Cd397 O400 2.297 . S
Cd397 O401 2.439 . S
Cd397 O407 2.240 . S
Cd398 O399 2.240 . S
Cd398 O406 2.223 . S
Cd398 O408 2.297 . S
Cd398 O409 2.439 . S
O399 Cd398 2.240 . S
O399 C404 1.279 . S
O400 Cd397 2.297 . S
O400 C402 1.247 . S
O401 Cd397 2.439 . S
O401 C402 1.208 . S
C402 O400 1.247 . S
C402 O401 1.208 . S
C403 O408 1.247 . S
C403 O409 1.208 . S
C404 O396 1.315 . S
C404 O399 1.279 . S
C405 O406 1.315 . S
C405 O407 1.279 . S
O406 Cd398 2.223 . S
O406 C405 1.315 . S
O407 Cd397 2.240 . S
O407 C405 1.279 . S
O408 Cd398 2.297 . S
O408 C403 1.247 . S
O409 Cd398 2.439 . S
O409 C403 1.208 . S
O410 Cd411 2.223 . S
O410 C418 1.315 . S
Cd411 O410 2.223 . S
Cd411 O414 2.297 . S
Cd411 O415 2.439 . S
Cd411 O421 2.240 . S
Cd412 O413 2.240 . S
Cd412 O420 2.223 . S
Cd412 O422 2.297 . S
Cd412 O423 2.439 . S
O413 Cd412 2.240 . S
O413 C418 1.279 . S
O414 Cd411 2.297 . S
O414 C416 1.247 . S
O415 Cd411 2.439 . S
O415 C416 1.208 . S
C416 O414 1.247 . S
C416 O415 1.208 . S
C417 O422 1.247 . S
C417 O423 1.208 . S
C418 O410 1.315 . S
C418 O413 1.279 . S
C419 O420 1.315 . S
C419 O421 1.279 . S
O420 Cd412 2.223 . S
O420 C419 1.315 . S
O421 Cd411 2.240 . S
O421 C419 1.279 . S
O422 Cd412 2.297 . S
O422 C417 1.247 . S
O423 Cd412 2.439 . S
O423 C417 1.208 . S
O424 Cd425 2.223 . S
O424 C432 1.315 . S
Cd425 O424 2.223 . S
Cd425 O428 2.297 . S
Cd425 O429 2.439 . S
Cd425 O435 2.240 . S
Cd426 O427 2.240 . S
Cd426 O434 2.223 . S
Cd426 O436 2.297 . S
Cd426 O437 2.439 . S
O427 Cd426 2.240 . S
O427 C432 1.279 . S
O428 Cd425 2.297 . S
O428 C430 1.247 . S
O429 Cd425 2.439 . S
O429 C430 1.208 . S
C430 O428 1.247 . S
C430 O429 1.208 . S
C431 O436 1.247 . S
C431 O437 1.208 . S
C432 O424 1.315 . S
C432 O427 1.279 . S
C433 O434 1.315 . S
C433 O435 1.279 . S
O434 Cd426 2.223 . S
O434 C433 1.315 . S
O435 Cd425 2.240 . S
O435 C433 1.279 . S
O436 Cd426 2.297 . S
O436 C431 1.247 . S
O437 Cd426 2.439 . S
O437 C431 1.208 . S
O438 Cd439 2.223 . S
O438 C446 1.315 . S
Cd439 O438 2.223 . S
Cd439 O442 2.297 . S
Cd439 O443 2.439 . S
Cd439 O449 2.240 . S
Cd440 O441 2.240 . S
Cd440 O448 2.223 . S
Cd440 O450 2.297 . S
Cd440 O451 2.439 . S
O441 Cd440 2.240 . S
O441 C446 1.279 . S
O442 Cd439 2.297 . S
O442 C444 1.247 . S
O443 Cd439 2.439 . S
O443 C444 1.208 . S
C444 O442 1.247 . S
C444 O443 1.208 . S
C445 O450 1.247 . S
C445 O451 1.208 . S
C446 O438 1.315 . S
C446 O441 1.279 . S
C447 O448 1.315 . S
C447 O449 1.279 . S
O448 Cd440 2.223 . S
O448 C447 1.315 . S
O449 Cd439 2.240 . S
O449 C447 1.279 . S
O450 Cd440 2.297 . S
O450 C445 1.247 . S
O451 Cd440 2.439 . S
O451 C445 1.208 . S
O452 Cd453 2.223 . S
O452 C460 1.315 . S
Cd453 O452 2.223 . S
Cd453 O456 2.297 . S
Cd453 O457 2.439 . S
Cd453 O463 2.240 1_554 S
Cd454 O455 2.225 1_556 S
Cd454 O462 2.223 1_556 S
Cd454 O464 2.314 . S
Cd454 O465 2.451 . S
O455 Cd454 2.225 1_554 S
O455 C460 1.279 . S
O456 Cd453 2.297 . S
O456 C458 1.247 . S
O457 Cd453 2.439 . S
O457 C458 1.208 . S
C458 O456 1.247 . S
C458 O457 1.208 . S
C459 O464 1.247 . S
C459 O465 1.208 . S
C460 O452 1.315 . S
C460 O455 1.279 . S
C461 O462 1.308 1_556 S
C461 O463 1.288 . S
O462 Cd454 2.223 1_554 S
O462 C461 1.308 1_554 S
O463 Cd453 2.240 1_556 S
O463 C461 1.288 . S
O464 Cd454 2.314 . S
O464 C459 1.247 . S
O465 Cd454 2.451 . S
O465 C459 1.208 . S
O466 Cd467 2.223 . S
O466 C474 1.315 . S
Cd467 O466 2.223 . S
Cd467 O470 2.297 . S
Cd467 O471 2.439 . S
Cd467 O477 2.240 . S
Cd468 O469 2.240 . S
Cd468 O476 2.223 . S
Cd468 O478 2.297 . S
Cd468 O479 2.439 . S
O469 Cd468 2.240 . S
O469 C474 1.279 . S
O470 Cd467 2.297 . S
O470 C472 1.247 . S
O471 Cd467 2.439 . S
O471 C472 1.208 . S
C472 O470 1.247 . S
C472 O471 1.208 . S
C473 O478 1.247 . S
C473 O479 1.208 . S
C474 O466 1.315 . S
C474 O469 1.279 . S
C475 O476 1.315 . S
C475 O477 1.279 . S
O476 Cd468 2.223 . S
O476 C475 1.315 . S
O477 Cd467 2.240 . S
O477 C475 1.279 . S
O478 Cd468 2.297 . S
O478 C473 1.247 . S
O479 Cd468 2.439 . S
O479 C473 1.208 . S
H480 C492 0.930 . S
H481 C494 0.930 . S
H482 C495 0.930 . S
H483 C499 0.959 . S
H484 C499 0.959 . S
H485 C499 0.961 . S
H486 C500 0.960 . S
H487 C500 0.961 . S
H488 C500 0.959 . S
H489 C503 0.929 . S
H490 C504 0.931 . S
H491 C506 0.930 . S
C492 H480 0.930 . S
C492 C493 1.399 . S
C492 C497 1.399 . S
C493 C492 1.399 . S
C493 C494 1.376 . S
C494 H481 0.930 . S
C494 C493 1.376 . S
C494 C495 1.388 . S
C495 H482 0.930 . S
C495 C494 1.388 . S
C495 C496 1.390 . S
C496 C495 1.390 . S
C496 C497 1.394 . S
C496 C502 1.465 . S
C497 C492 1.399 . S
C497 C496 1.394 . S
C497 C498 1.516 . S
C498 C497 1.516 . S
C498 C499 1.502 . S
C498 C500 1.561 . S
C498 C501 1.526 . S
C499 H483 0.959 . S
C499 H484 0.959 . S
C499 H485 0.961 . S
C499 C498 1.502 . S
C500 H486 0.960 . S
C500 H487 0.961 . S
C500 H488 0.959 . S
C500 C498 1.561 . S
C501 C498 1.526 . S
C501 C502 1.396 . S
C501 C506 1.390 . S
C502 C496 1.465 . S
C502 C501 1.396 . S
C502 C503 1.399 . S
C503 H489 0.929 . S
C503 C502 1.399 . S
C503 C504 1.385 . S
C504 H490 0.931 . S
C504 C503 1.385 . S
C504 C505 1.389 . S
C505 C504 1.389 . S
C505 C506 1.387 . S
C506 H491 0.930 . S
C506 C501 1.390 . S
C506 C505 1.387 . S
H507 C519 0.930 . S
H508 C521 0.930 . S
H509 C522 0.930 . S
H510 C526 0.959 . S
H511 C526 0.959 . S
H512 C526 0.961 . S
H513 C527 0.960 . S
H514 C527 0.961 . S
H515 C527 0.959 . S
H516 C530 0.929 . S
H517 C531 0.931 . S
H518 C533 0.930 . S
C519 H507 0.930 . S
C519 C520 1.399 . S
C519 C524 1.399 . S
C520 C519 1.399 . S
C520 C521 1.376 . S
C521 H508 0.930 . S
C521 C520 1.376 . S
C521 C522 1.388 . S
C522 H509 0.930 . S
C522 C521 1.388 . S
C522 C523 1.390 . S
C523 C522 1.390 . S
C523 C524 1.394 . S
C523 C529 1.465 . S
C524 C519 1.399 . S
C524 C523 1.394 . S
C524 C525 1.516 . S
C525 C524 1.516 . S
C525 C526 1.502 . S
C525 C527 1.561 . S
C525 C528 1.526 . S
C526 H510 0.959 . S
C526 H511 0.959 . S
C526 H512 0.961 . S
C526 C525 1.502 . S
C527 H513 0.960 . S
C527 H514 0.961 . S
C527 H515 0.959 . S
C527 C525 1.561 . S
C528 C525 1.526 . S
C528 C529 1.396 . S
C528 C533 1.390 . S
C529 C523 1.465 . S
C529 C528 1.396 . S
C529 C530 1.399 . S
C530 H516 0.929 . S
C530 C529 1.399 . S
C530 C531 1.385 . S
C531 H517 0.931 . S
C531 C530 1.385 . S
C531 C532 1.389 . S
C532 C531 1.389 . S
C532 C533 1.387 . S
C533 H518 0.930 . S
C533 C528 1.390 . S
C533 C532 1.387 . S
H534 C546 0.930 . S
H535 C548 0.930 . S
H536 C549 0.930 . S
H537 C553 0.959 . S
H538 C553 0.959 . S
H539 C553 0.961 . S
H540 C554 0.960 . S
H541 C554 0.961 . S
H542 C554 0.959 . S
H543 C557 0.929 . S
H544 C558 0.931 . S
H545 C560 0.930 . S
C546 H534 0.930 . S
C546 C547 1.399 . S
C546 C551 1.399 . S
C547 C546 1.399 . S
C547 C548 1.376 . S
C548 H535 0.930 . S
C548 C547 1.376 . S
C548 C549 1.388 . S
C549 H536 0.930 . S
C549 C548 1.388 . S
C549 C550 1.390 . S
C550 C549 1.390 . S
C550 C551 1.394 . S
C550 C556 1.465 . S
C551 C546 1.399 . S
C551 C550 1.394 . S
C551 C552 1.516 . S
C552 C551 1.516 . S
C552 C553 1.502 . S
C552 C554 1.561 . S
C552 C555 1.526 . S
C553 H537 0.959 . S
C553 H538 0.959 . S
C553 H539 0.961 . S
C553 C552 1.502 . S
C554 H540 0.960 . S
C554 H541 0.961 . S
C554 H542 0.959 . S
C554 C552 1.561 . S
C555 C552 1.526 . S
C555 C556 1.396 . S
C555 C560 1.390 . S
C556 C550 1.465 . S
C556 C555 1.396 . S
C556 C557 1.399 . S
C557 H543 0.929 . S
C557 C556 1.399 . S
C557 C558 1.385 . S
C558 H544 0.931 . S
C558 C557 1.385 . S
C558 C559 1.389 . S
C559 C558 1.389 . S
C559 C560 1.387 . S
C560 H545 0.930 . S
C560 C555 1.390 . S
C560 C559 1.387 . S
H561 C573 0.930 . S
H562 C575 0.930 . S
H563 C576 0.930 . S
H564 C580 0.959 . S
H565 C580 0.959 . S
H566 C580 0.961 . S
H567 C581 0.960 . S
H568 C581 0.961 . S
H569 C581 0.959 . S
H570 C584 0.929 . S
H571 C585 0.931 . S
H572 C587 0.930 . S
C573 H561 0.930 . S
C573 C574 1.399 . S
C573 C578 1.399 . S
C574 C573 1.399 . S
C574 C575 1.376 . S
C575 H562 0.930 . S
C575 C574 1.376 . S
C575 C576 1.388 . S
C576 H563 0.930 . S
C576 C575 1.388 . S
C576 C577 1.390 . S
C577 C576 1.390 . S
C577 C578 1.394 . S
C577 C583 1.465 . S
C578 C573 1.399 . S
C578 C577 1.394 . S
C578 C579 1.516 . S
C579 C578 1.516 . S
C579 C580 1.502 . S
C579 C581 1.561 . S
C579 C582 1.526 . S
C580 H564 0.959 . S
C580 H565 0.959 . S
C580 H566 0.961 . S
C580 C579 1.502 . S
C581 H567 0.960 . S
C581 H568 0.961 . S
C581 H569 0.959 . S
C581 C579 1.561 . S
C582 C579 1.526 . S
C582 C583 1.396 . S
C582 C587 1.390 . S
C583 C577 1.465 . S
C583 C582 1.396 . S
C583 C584 1.399 . S
C584 H570 0.929 . S
C584 C583 1.399 . S
C584 C585 1.385 . S
C585 H571 0.931 . S
C585 C584 1.385 . S
C585 C586 1.389 . S
C586 C585 1.389 . S
C586 C587 1.387 . S
C587 H572 0.930 . S
C587 C582 1.390 . S
C587 C586 1.387 . S
H588 C600 0.930 1_556 S
H589 C602 0.930 . S
H590 C603 0.930 . S
H591 C607 0.959 . S
H592 C607 0.959 . S
H593 C607 0.961 . S
H594 C608 0.960 . S
H595 C608 0.961 . S
H596 C608 0.959 . S
H597 C611 0.929 . S
H598 C612 0.931 . S
H599 C614 0.930 . S
C600 H588 0.930 1_554 S
C600 C601 1.399 . S
C600 C605 1.399 . S
C601 C600 1.399 . S
C601 C602 1.376 . S
C602 H589 0.930 . S
C602 C601 1.376 . S
C602 C603 1.388 . S
C603 H590 0.930 . S
C603 C602 1.388 . S
C603 C604 1.390 . S
C604 C603 1.390 . S
C604 C605 1.394 . S
C604 C610 1.465 . S
C605 C600 1.399 . S
C605 C604 1.394 . S
C605 C606 1.516 . S
C606 C605 1.516 . S
C606 C607 1.502 1_554 S
C606 C608 1.561 . S
C606 C609 1.526 . S
C607 H591 0.959 . S
C607 H592 0.959 . S
C607 H593 0.961 . S
C607 C606 1.502 1_556 S
C608 H594 0.960 . S
C608 H595 0.961 . S
C608 H596 0.959 . S
C608 C606 1.561 . S
C609 C606 1.526 . S
C609 C610 1.396 . S
C609 C614 1.390 . S
C610 C604 1.465 . S
C610 C609 1.396 . S
C610 C611 1.399 . S
C611 H597 0.929 . S
C611 C610 1.399 . S
C611 C612 1.385 . S
C612 H598 0.931 . S
C612 C611 1.385 . S
C612 C613 1.389 . S
C613 C612 1.389 . S
C613 C614 1.387 . S
C614 H599 0.930 . S
C614 C609 1.390 . S
C614 C613 1.387 . S
H615 C627 0.930 . S
H616 C629 0.930 . S
H617 C630 0.930 . S
H618 C634 0.959 . S
H619 C634 0.959 . S
H620 C634 0.961 . S
H621 C635 0.960 . S
H622 C635 0.961 . S
H623 C635 0.959 . S
H624 C638 0.929 . S
H625 C639 0.931 . S
H626 C641 0.930 . S
C627 H615 0.930 . S
C627 C628 1.399 . S
C627 C632 1.399 . S
C628 C627 1.399 . S
C628 C629 1.376 . S
C629 H616 0.930 . S
C629 C628 1.376 . S
C629 C630 1.388 . S
C630 H617 0.930 . S
C630 C629 1.388 . S
C630 C631 1.390 . S
C631 C630 1.390 . S
C631 C632 1.394 . S
C631 C637 1.465 . S
C632 C627 1.399 . S
C632 C631 1.394 . S
C632 C633 1.516 . S
C633 C632 1.516 . S
C633 C634 1.502 . S
C633 C635 1.561 . S
C633 C636 1.526 . S
C634 H618 0.959 . S
C634 H619 0.959 . S
C634 H620 0.961 . S
C634 C633 1.502 . S
C635 H621 0.960 . S
C635 H622 0.961 . S
C635 H623 0.959 . S
C635 C633 1.561 . S
C636 C633 1.526 . S
C636 C637 1.396 . S
C636 C641 1.390 . S
C637 C631 1.465 . S
C637 C636 1.396 . S
C637 C638 1.399 . S
C638 H624 0.929 . S
C638 C637 1.399 . S
C638 C639 1.385 . S
C639 H625 0.931 . S
C639 C638 1.385 . S
C639 C640 1.389 . S
C640 C639 1.389 . S
C640 C641 1.387 . S
C641 H626 0.930 . S
C641 C636 1.390 . S
C641 C640 1.387 . S
H642 C654 0.930 . S
H643 C656 0.930 . S
H644 C657 0.930 . S
H645 C661 0.959 . S
H646 C661 0.959 . S
H647 C661 0.961 . S
H648 C662 0.960 . S
H649 C662 0.961 . S
H650 C662 0.971 . S
H651 C665 0.929 . S
H652 C666 0.931 . S
H653 C668 0.930 . S
C654 H642 0.930 . S
C654 C655 1.399 . S
C654 C659 1.399 . S
C655 C654 1.399 . S
C655 C656 1.376 . S
C656 H643 0.930 . S
C656 C655 1.376 . S
C656 C657 1.388 . S
C657 H644 0.930 . S
C657 C656 1.388 . S
C657 C658 1.390 . S
C658 C657 1.390 . S
C658 C659 1.394 . S
C658 C664 1.465 . S
C659 C654 1.399 . S
C659 C658 1.394 . S
C659 C660 1.516 . S
C660 C659 1.516 . S
C660 C661 1.502 . S
C660 C662 1.561 . S
C660 C663 1.526 . S
C661 H645 0.959 . S
C661 H646 0.959 . S
C661 H647 0.961 . S
C661 C660 1.502 . S
C662 H648 0.960 . S
C662 H649 0.961 . S
C662 H650 0.971 . S
C662 C660 1.561 . S
C663 C660 1.526 . S
C663 C664 1.396 . S
C663 C668 1.390 . S
C664 C658 1.465 . S
C664 C663 1.396 . S
C664 C665 1.399 . S
C665 H651 0.929 . S
C665 C664 1.399 . S
C665 C666 1.385 . S
C666 H652 0.931 . S
C666 C665 1.385 . S
C666 C667 1.389 . S
C667 C666 1.389 . S
C667 C668 1.387 . S
C668 H653 0.930 . S
C668 C663 1.390 . S
C668 C667 1.387 . S
H669 C681 0.930 . S
H670 C683 0.930 . S
H671 C684 0.930 . S
H672 C688 0.959 1_565 S
H673 C688 0.959 1_565 S
H674 C688 0.961 . S
H675 C689 0.960 . S
H676 C689 0.961 . S
H677 C689 0.959 . S
H678 C692 0.929 . S
H679 C693 0.931 . S
H680 C695 0.930 . S
C681 H669 0.930 . S
C681 C682 1.399 . S
C681 C686 1.399 . S
C682 C681 1.399 . S
C682 C683 1.376 . S
C683 H670 0.930 . S
C683 C682 1.376 . S
C683 C684 1.388 . S
C684 H671 0.930 . S
C684 C683 1.388 . S
C684 C685 1.390 . S
C685 C684 1.390 . S
C685 C686 1.394 . S
C685 C691 1.465 1_545 S
C686 C681 1.399 . S
C686 C685 1.394 . S
C686 C687 1.516 . S
C687 C686 1.516 . S
C687 C688 1.502 . S
C687 C689 1.561 . S
C687 C690 1.526 1_545 S
C688 H672 0.959 1_545 S
C688 H673 0.959 1_545 S
C688 H674 0.961 . S
C688 C687 1.502 . S
C689 H675 0.960 . S
C689 H676 0.961 . S
C689 H677 0.959 . S
C689 C687 1.561 . S
C690 C687 1.526 1_565 S
C690 C691 1.396 . S
C690 C695 1.390 . S
C691 C685 1.465 1_565 S
C691 C690 1.396 . S
C691 C692 1.399 . S
C692 H678 0.929 . S
C692 C691 1.399 . S
C692 C693 1.385 . S
C693 H679 0.931 . S
C693 C692 1.385 . S
C693 C694 1.389 . S
C694 C693 1.389 . S
C694 C695 1.387 . S
C695 H680 0.930 . S
C695 C690 1.390 . S
C695 C694 1.387 . S
H696 C708 0.930 . S
H697 C710 0.930 . S
H698 C711 0.930 . S
H699 C715 0.959 . S
H700 C715 0.959 . S
H701 C715 0.961 . S
H702 C716 0.960 . S
H703 C716 0.961 . S
H704 C716 0.959 . S
H705 C719 0.929 . S
H706 C720 0.931 . S
H707 C722 0.930 . S
C708 H696 0.930 . S
C708 C709 1.399 . S
C708 C713 1.399 . S
C709 C708 1.399 . S
C709 C710 1.376 . S
C710 H697 0.930 . S
C710 C709 1.376 . S
C710 C711 1.388 . S
C711 H698 0.930 . S
C711 C710 1.388 . S
C711 C712 1.390 . S
C712 C711 1.390 . S
C712 C713 1.394 . S
C712 C718 1.465 . S
C713 C708 1.399 . S
C713 C712 1.394 . S
C713 C714 1.516 . S
C714 C713 1.516 . S
C714 C715 1.502 . S
C714 C716 1.561 . S
C714 C717 1.526 . S
C715 H699 0.959 . S
C715 H700 0.959 . S
C715 H701 0.961 . S
C715 C714 1.502 . S
C716 H702 0.960 . S
C716 H703 0.961 . S
C716 H704 0.959 . S
C716 C714 1.561 . S
C717 C714 1.526 . S
C717 C718 1.396 . S
C717 C722 1.390 . S
C718 C712 1.465 . S
C718 C717 1.396 . S
C718 C719 1.399 . S
C719 H705 0.929 . S
C719 C718 1.399 . S
C719 C720 1.385 . S
C720 H706 0.931 . S
C720 C719 1.385 . S
C720 C721 1.389 . S
C721 C720 1.389 . S
C721 C722 1.387 . S
C722 H707 0.930 . S
C722 C717 1.390 . S
C722 C721 1.387 . S
H723 C735 0.930 . S
H724 C737 0.930 . S
H725 C738 0.930 . S
H726 C742 0.959 . S
H727 C742 0.959 1_556 S
H728 C742 0.961 . S
H729 C743 0.961 1_556 S
H730 C743 0.961 1_556 S
H731 C743 0.959 . S
H732 C746 0.929 . S
H733 C747 0.931 . S
H734 C749 0.930 . S
C735 H723 0.930 . S
C735 C736 1.399 . S
C735 C740 1.399 . S
C736 C735 1.399 . S
C736 C737 1.376 . S
C737 H724 0.930 . S
C737 C736 1.376 . S
C737 C738 1.388 . S
C738 H725 0.930 . S
C738 C737 1.388 . S
C738 C739 1.390 . S
C739 C738 1.390 . S
C739 C740 1.394 . S
C739 C745 1.465 . S
C740 C735 1.399 . S
C740 C739 1.394 . S
C740 C741 1.516 . S
C741 C740 1.516 . S
C741 C742 1.502 . S
C741 C743 1.561 . S
C741 C744 1.526 . S
C742 H726 0.959 . S
C742 H727 0.959 1_554 S
C742 H728 0.961 . S
C742 C741 1.502 . S
C743 H729 0.961 1_554 S
C743 H730 0.961 1_554 S
C743 H731 0.959 . S
C743 C741 1.561 . S
C744 C741 1.526 . S
C744 C745 1.396 . S
C744 C749 1.390 . S
C745 C739 1.465 . S
C745 C744 1.396 . S
C745 C746 1.399 . S
C746 H732 0.929 . S
C746 C745 1.399 . S
C746 C747 1.385 . S
C747 H733 0.931 . S
C747 C746 1.385 . S
C747 C748 1.389 . S
C748 C747 1.389 . S
C748 C749 1.387 . S
C749 H734 0.930 . S
C749 C744 1.390 . S
C749 C748 1.387 . S
H750 C762 0.930 . S
H751 C764 0.930 . S
H752 C765 0.930 . S
H753 C769 0.959 . S
H754 C769 0.959 . S
H755 C769 0.961 . S
H756 C770 0.960 . S
H757 C770 0.961 . S
H758 C770 0.959 . S
H759 C773 0.929 . S
H760 C774 0.931 . S
H761 C776 0.930 . S
C762 H750 0.930 . S
C762 C763 1.399 1_655 S
C762 C767 1.399 . S
C763 C762 1.399 1_455 S
C763 C764 1.376 . S
C764 H751 0.930 . S
C764 C763 1.376 . S
C764 C765 1.388 . S
C765 H752 0.930 . S
C765 C764 1.388 . S
C765 C766 1.390 1_455 S
C766 C765 1.390 1_655 S
C766 C767 1.394 . S
C766 C772 1.465 . S
C767 C762 1.399 . S
C767 C766 1.394 . S
C767 C768 1.516 . S
C768 C767 1.516 . S
C768 C769 1.502 . S
C768 C770 1.561 . S
C768 C771 1.526 . S
C769 H753 0.959 . S
C769 H754 0.959 . S
C769 H755 0.961 . S
C769 C768 1.502 . S
C770 H756 0.960 . S
C770 H757 0.961 . S
C770 H758 0.959 . S
C770 C768 1.561 . S
C771 C768 1.526 . S
C771 C772 1.396 . S
C771 C776 1.390 . S
C772 C766 1.465 . S
C772 C771 1.396 . S
C772 C773 1.399 . S
C773 H759 0.929 . S
C773 C772 1.399 . S
C773 C774 1.385 . S
C774 H760 0.931 . S
C774 C773 1.385 . S
C774 C775 1.389 . S
C775 C774 1.389 . S
C775 C776 1.387 . S
C776 H761 0.930 . S
C776 C771 1.390 . S
C776 C775 1.387 . S
H777 C789 0.930 . S
H778 C791 0.930 . S
H779 C792 0.930 1_455 S
H780 C796 0.959 . S
H781 C796 0.959 . S
H782 C796 0.961 . S
H783 C797 0.960 . S
H784 C797 0.961 . S
H785 C797 0.959 . S
H786 C800 0.929 . S
H787 C801 0.931 . S
H788 C803 0.930 . S
C789 H777 0.930 . S
C789 C790 1.399 . S
C789 C794 1.399 . S
C790 C789 1.399 . S
C790 C791 1.376 1_655 S
C791 H778 0.930 . S
C791 C790 1.376 1_455 S
C791 C792 1.388 1_455 S
C792 H779 0.930 1_655 S
C792 C791 1.388 1_655 S
C792 C793 1.390 . S
C793 C792 1.390 . S
C793 C794 1.394 . S
C793 C799 1.465 . S
C794 C789 1.399 . S
C794 C793 1.394 . S
C794 C795 1.516 . S
C795 C794 1.516 . S
C795 C796 1.502 . S
C795 C797 1.561 . S
C795 C798 1.526 . S
C796 H780 0.959 . S
C796 H781 0.959 . S
C796 H782 0.961 . S
C796 C795 1.502 . S
C797 H783 0.960 . S
C797 H784 0.961 . S
C797 H785 0.959 . S
C797 C795 1.561 . S
C798 C795 1.526 . S
C798 C799 1.396 . S
C798 C803 1.390 . S
C799 C793 1.465 . S
C799 C798 1.396 . S
C799 C800 1.399 . S
C800 H786 0.929 . S
C800 C799 1.399 . S
C800 C801 1.385 . S
C801 H787 0.931 . S
C801 C800 1.385 . S
C801 C802 1.389 . S
C802 C801 1.389 . S
C802 C803 1.387 . S
C803 H788 0.930 . S
C803 C798 1.390 . S
C803 C802 1.387 . S
H804 C816 0.930 . S
H805 C818 0.930 . S
H806 C819 0.930 . S
H807 C823 0.959 . S
H808 C823 0.959 . S
H809 C823 0.961 . S
H810 C824 0.960 . S
H811 C824 0.961 . S
H812 C824 0.959 . S
H813 C827 0.929 . S
H814 C828 0.931 . S
H815 C830 0.930 . S
C816 H804 0.930 . S
C816 C817 1.399 . S
C816 C821 1.399 . S
C817 C816 1.399 . S
C817 C818 1.376 . S
C818 H805 0.930 . S
C818 C817 1.376 . S
C818 C819 1.388 . S
C819 H806 0.930 . S
C819 C818 1.388 . S
C819 C820 1.390 . S
C820 C819 1.390 . S
C820 C821 1.394 . S
C820 C826 1.465 . S
C821 C816 1.399 . S
C821 C820 1.394 . S
C821 C822 1.516 . S
C822 C821 1.516 . S
C822 C823 1.502 . S
C822 C824 1.561 . S
C822 C825 1.526 . S
C823 H807 0.959 . S
C823 H808 0.959 . S
C823 H809 0.961 . S
C823 C822 1.502 . S
C824 H810 0.960 . S
C824 H811 0.961 . S
C824 H812 0.959 . S
C824 C822 1.561 . S
C825 C822 1.526 . S
C825 C826 1.396 . S
C825 C830 1.390 . S
C826 C820 1.465 . S
C826 C825 1.396 . S
C826 C827 1.399 . S
C827 H813 0.929 . S
C827 C826 1.399 . S
C827 C828 1.385 . S
C828 H814 0.931 . S
C828 C827 1.385 . S
C828 C829 1.389 . S
C829 C828 1.389 . S
C829 C830 1.387 . S
C830 H815 0.930 . S
C830 C825 1.390 . S
C830 C829 1.387 . S
H831 C843 0.930 . S
H832 C845 0.930 . S
H833 C846 0.930 . S
H834 C850 0.959 . S
H835 C850 0.959 . S
H836 C850 0.961 . S
H837 C851 0.960 . S
H838 C851 0.961 . S
H839 C851 0.959 . S
H840 C854 0.929 . S
H841 C855 0.931 . S
H842 C857 0.930 . S
C843 H831 0.930 . S
C843 C844 1.399 1_655 S
C843 C848 1.399 . S
C844 C843 1.399 1_455 S
C844 C845 1.376 . S
C845 H832 0.930 . S
C845 C844 1.376 . S
C845 C846 1.388 1_455 S
C846 H833 0.930 . S
C846 C845 1.388 1_655 S
C846 C847 1.390 . S
C847 C846 1.390 . S
C847 C848 1.394 . S
C847 C853 1.465 . S
C848 C843 1.399 . S
C848 C847 1.394 . S
C848 C849 1.516 . S
C849 C848 1.516 . S
C849 C850 1.502 . S
C849 C851 1.561 . S
C849 C852 1.526 . S
C850 H834 0.959 . S
C850 H835 0.959 . S
C850 H836 0.961 . S
C850 C849 1.502 . S
C851 H837 0.960 . S
C851 H838 0.961 . S
C851 H839 0.959 . S
C851 C849 1.561 . S
C852 C849 1.526 . S
C852 C853 1.396 . S
C852 C857 1.390 . S
C853 C847 1.465 . S
C853 C852 1.396 . S
C853 C854 1.399 . S
C854 H840 0.929 . S
C854 C853 1.399 . S
C854 C855 1.385 . S
C855 H841 0.931 . S
C855 C854 1.385 . S
C855 C856 1.389 . S
C856 C855 1.389 . S
C856 C857 1.387 . S
C857 H842 0.930 . S
C857 C852 1.390 . S
C857 C856 1.387 . S
H858 C870 0.930 . S
H859 C872 0.930 . S
H860 C873 0.930 . S
H861 C877 0.959 . S
H862 C877 0.959 . S
H863 C877 0.961 . S
H864 C878 0.960 . S
H865 C878 0.961 . S
H866 C878 0.959 . S
H867 C881 0.929 . S
H868 C882 0.931 . S
H869 C884 0.930 . S
C870 H858 0.930 . S
C870 C871 1.399 . S
C870 C875 1.399 . S
C871 C870 1.399 . S
C871 C872 1.376 1_556 S
C872 H859 0.930 . S
C872 C871 1.376 1_554 S
C872 C873 1.388 . S
C873 H860 0.930 . S
C873 C872 1.388 . S
C873 C874 1.379 1_554 S
C874 C873 1.379 1_556 S
C874 C875 1.412 . S
C874 C880 1.461 1_556 S
C875 C870 1.399 . S
C875 C874 1.412 . S
C875 C876 1.516 . S
C876 C875 1.516 . S
C876 C877 1.502 . S
C876 C878 1.561 . S
C876 C879 1.526 . S
C877 H861 0.959 . S
C877 H862 0.959 . S
C877 H863 0.961 . S
C877 C876 1.502 . S
C878 H864 0.960 . S
C878 H865 0.961 . S
C878 H866 0.959 . S
C878 C876 1.561 . S
C879 C876 1.526 . S
C879 C880 1.396 1_556 S
C879 C884 1.390 . S
C880 C874 1.461 1_554 S
C880 C879 1.396 1_554 S
C880 C881 1.399 . S
C881 H867 0.929 . S
C881 C880 1.399 . S
C881 C882 1.385 . S
C882 H868 0.931 . S
C882 C881 1.385 . S
C882 C883 1.385 1_554 S
C883 C882 1.385 1_556 S
C883 C884 1.391 . S
C884 H869 0.930 . S
C884 C879 1.390 . S
C884 C883 1.391 . S
H885 C897 0.930 . S
H886 C899 0.930 . S
H887 C900 0.930 . S
H888 C904 0.959 . S
H889 C904 0.959 . S
H890 C904 0.961 . S
H891 C905 0.960 . S
H892 C905 0.961 . S
H893 C905 0.959 . S
H894 C908 0.929 . S
H895 C909 0.931 . S
H896 C911 0.930 . S
C897 H885 0.930 . S
C897 C898 1.399 . S
C897 C902 1.399 . S
C898 C897 1.399 . S
C898 C899 1.376 . S
C899 H886 0.930 . S
C899 C898 1.376 . S
C899 C900 1.388 . S
C900 H887 0.930 . S
C900 C899 1.388 . S
C900 C901 1.390 . S
C901 C900 1.390 . S
C901 C902 1.394 . S
C901 C907 1.465 . S
C902 C897 1.399 . S
C902 C901 1.394 . S
C902 C903 1.516 . S
C903 C902 1.516 . S
C903 C904 1.502 . S
C903 C905 1.561 . S
C903 C906 1.526 . S
C904 H888 0.959 . S
C904 H889 0.959 . S
C904 H890 0.961 . S
C904 C903 1.502 . S
C905 H891 0.960 . S
C905 H892 0.961 . S
C905 H893 0.959 . S
C905 C903 1.561 . S
C906 C903 1.526 . S
C906 C907 1.396 . S
C906 C911 1.390 . S
C907 C901 1.465 . S
C907 C906 1.396 . S
C907 C908 1.399 . S
C908 H894 0.929 . S
C908 C907 1.399 . S
C908 C909 1.385 . S
C909 H895 0.931 . S
C909 C908 1.385 . S
C909 C910 1.389 . S
C910 C909 1.389 . S
C910 C911 1.387 . S
C911 H896 0.930 . S
C911 C906 1.390 . S
C911 C910 1.387 . S
H912 C924 0.930 1_545 S
H913 C926 0.930 . S
H914 C927 0.930 . S
H915 C931 0.959 . S
H916 C931 0.959 . S
H917 C931 0.961 1_545 S
H918 C932 0.960 . S
H919 C932 0.961 . S
H920 C932 0.959 . S
H921 C935 0.929 . S
H922 C936 0.931 . S
H923 C938 0.930 . S
C924 H912 0.930 1_565 S
C924 C925 1.399 . S
C924 C929 1.399 . S
C925 C924 1.399 . S
C925 C926 1.376 . S
C926 H913 0.930 . S
C926 C925 1.376 . S
C926 C927 1.388 . S
C927 H914 0.930 . S
C927 C926 1.388 . S
C927 C928 1.390 . S
C928 C927 1.390 . S
C928 C929 1.394 . S
C928 C934 1.465 . S
C929 C924 1.399 . S
C929 C928 1.394 . S
C929 C930 1.516 . S
C930 C929 1.516 . S
C930 C931 1.502 . S
C930 C932 1.561 1_565 S
C930 C933 1.526 . S
C931 H915 0.959 . S
C931 H916 0.959 . S
C931 H917 0.961 1_565 S
C931 C930 1.502 . S
C932 H918 0.960 . S
C932 H919 0.961 . S
C932 H920 0.959 . S
C932 C930 1.561 1_545 S
C933 C930 1.526 . S
C933 C934 1.396 . S
C933 C938 1.390 . S
C934 C928 1.465 . S
C934 C933 1.396 . S
C934 C935 1.399 . S
C935 H921 0.929 . S
C935 C934 1.399 . S
C935 C936 1.385 . S
C936 H922 0.931 . S
C936 C935 1.385 . S
C936 C937 1.389 . S
C937 C936 1.389 . S
C937 C938 1.387 . S
C938 H923 0.930 . S
C938 C933 1.390 . S
C938 C937 1.387 . S
H939 C951 0.930 . S
H940 C953 0.930 . S
H941 C954 0.930 . S
H942 C958 0.959 . S
H943 C958 0.959 . S
H944 C958 0.961 . S
H945 C959 0.960 . S
H946 C959 0.961 . S
H947 C959 0.959 . S
H948 C962 0.929 . S
H949 C963 0.931 . S
H950 C965 0.930 . S
C951 H939 0.930 . S
C951 C952 1.399 . S
C951 C956 1.399 . S
C952 C951 1.399 . S
C952 C953 1.376 . S
C953 H940 0.930 . S
C953 C952 1.376 . S
C953 C954 1.388 . S
C954 H941 0.930 . S
C954 C953 1.388 . S
C954 C955 1.390 . S
C955 C954 1.390 . S
C955 C956 1.394 . S
C955 C961 1.465 . S
C956 C951 1.399 . S
C956 C955 1.394 . S
C956 C957 1.516 . S
C957 C956 1.516 . S
C957 C958 1.502 . S
C957 C959 1.561 . S
C957 C960 1.526 . S
C958 H942 0.959 . S
C958 H943 0.959 . S
C958 H944 0.961 . S
C958 C957 1.502 . S
C959 H945 0.960 . S
C959 H946 0.961 . S
C959 H947 0.959 . S
C959 C957 1.561 . S
C960 C957 1.526 . S
C960 C961 1.396 . S
C960 C965 1.390 . S
C961 C955 1.465 . S
C961 C960 1.396 . S
C961 C962 1.399 . S
C962 H948 0.929 . S
C962 C961 1.399 . S
C962 C963 1.385 . S
C963 H949 0.931 . S
C963 C962 1.385 . S
C963 C964 1.389 . S
C964 C963 1.389 . S
C964 C965 1.387 . S
C965 H950 0.930 . S
C965 C960 1.390 . S
C965 C964 1.387 . S
H966 C978 0.930 . S
H967 C980 0.930 . S
H968 C981 0.930 . S
H969 C985 0.959 . S
H970 C985 0.959 . S
H971 C985 0.961 . S
H972 C986 0.960 . S
H973 C986 0.961 . S
H974 C986 0.959 . S
H975 C989 0.929 . S
H976 C990 0.931 . S
H977 C992 0.930 . S
C978 H966 0.930 . S
C978 C979 1.399 . S
C978 C983 1.399 . S
C979 C978 1.399 . S
C979 C980 1.376 . S
C980 H967 0.930 . S
C980 C979 1.376 . S
C980 C981 1.388 . S
C981 H968 0.930 . S
C981 C980 1.388 . S
C981 C982 1.390 . S
C982 C981 1.390 . S
C982 C983 1.394 . S
C982 C988 1.465 . S
C983 C978 1.399 . S
C983 C982 1.394 . S
C983 C984 1.516 . S
C984 C983 1.516 . S
C984 C985 1.502 . S
C984 C986 1.561 . S
C984 C987 1.526 . S
C985 H969 0.959 . S
C985 H970 0.959 . S
C985 H971 0.961 . S
C985 C984 1.502 . S
C986 H972 0.960 . S
C986 H973 0.961 . S
C986 H974 0.959 . S
C986 C984 1.561 . S
C987 C984 1.526 . S
C987 C988 1.396 . S
C987 C992 1.390 . S
C988 C982 1.465 . S
C988 C987 1.396 . S
C988 C989 1.399 . S
C989 H975 0.929 . S
C989 C988 1.399 . S
C989 C990 1.385 . S
C990 H976 0.931 . S
C990 C989 1.385 . S
C990 C991 1.389 . S
C991 C990 1.389 . S
C991 C992 1.387 . S
C992 H977 0.930 . S
C992 C987 1.390 . S
C992 C991 1.387 . S
H993 C1005 0.930 . S
H994 C1007 0.930 . S
H995 C1008 0.930 . S
H996 C1012 0.959 . S
H997 C1012 0.959 . S
H998 C1012 0.961 . S
H999 C1013 0.960 . S
H1000 C1013 0.961 . S
H1001 C1013 0.959 . S
H1002 C1016 0.929 . S
H1003 C1017 0.931 . S
H1004 C1019 0.930 . S
C1005 H993 0.930 . S
C1005 C1006 1.399 . S
C1005 C1010 1.399 . S
C1006 C1005 1.399 . S
C1006 C1007 1.376 . S
C1007 H994 0.930 . S
C1007 C1006 1.376 . S
C1007 C1008 1.388 . S
C1008 H995 0.930 . S
C1008 C1007 1.388 . S
C1008 C1009 1.390 . S
C1009 C1008 1.390 . S
C1009 C1010 1.394 . S
C1009 C1015 1.465 . S
C1010 C1005 1.399 . S
C1010 C1009 1.394 . S
C1010 C1011 1.516 . S
C1011 C1010 1.516 . S
C1011 C1012 1.502 . S
C1011 C1013 1.561 . S
C1011 C1014 1.526 . S
C1012 H996 0.959 . S
C1012 H997 0.959 . S
C1012 H998 0.961 . S
C1012 C1011 1.502 . S
C1013 H999 0.960 . S
C1013 H1000 0.961 . S
C1013 H1001 0.959 . S
C1013 C1011 1.561 . S
C1014 C1011 1.526 . S
C1014 C1015 1.396 . S
C1014 C1019 1.390 . S
C1015 C1009 1.465 . S
C1015 C1014 1.396 . S
C1015 C1016 1.399 . S
C1016 H1002 0.929 . S
C1016 C1015 1.399 . S
C1016 C1017 1.385 . S
C1017 H1003 0.931 . S
C1017 C1016 1.385 . S
C1017 C1018 1.389 . S
C1018 C1017 1.389 . S
C1018 C1019 1.387 . S
C1019 H1004 0.930 . S
C1019 C1014 1.390 . S
C1019 C1018 1.387 . S
H1020 C1032 0.930 . S
H1021 C1034 0.930 . S
H1022 C1035 0.930 . S
H1023 C1039 0.959 . S
H1024 C1039 0.959 . S
H1025 C1039 0.961 . S
H1026 C1040 0.960 . S
H1027 C1040 0.961 . S
H1028 C1040 0.959 . S
H1029 C1043 0.929 . S
H1030 C1044 0.931 . S
H1031 C1046 0.930 . S
C1032 H1020 0.930 . S
C1032 C1033 1.399 . S
C1032 C1037 1.399 . S
C1033 C1032 1.399 . S
C1033 C1034 1.376 . S
C1034 H1021 0.930 . S
C1034 C1033 1.376 . S
C1034 C1035 1.388 . S
C1035 H1022 0.930 . S
C1035 C1034 1.388 . S
C1035 C1036 1.390 . S
C1036 C1035 1.390 . S
C1036 C1037 1.394 . S
C1036 C1042 1.465 . S
C1037 C1032 1.399 . S
C1037 C1036 1.394 . S
C1037 C1038 1.516 . S
C1038 C1037 1.516 . S
C1038 C1039 1.502 . S
C1038 C1040 1.561 . S
C1038 C1041 1.526 . S
C1039 H1023 0.959 . S
C1039 H1024 0.959 . S
C1039 H1025 0.961 . S
C1039 C1038 1.502 . S
C1040 H1026 0.960 . S
C1040 H1027 0.961 . S
C1040 H1028 0.959 . S
C1040 C1038 1.561 . S
C1041 C1038 1.526 . S
C1041 C1042 1.396 . S
C1041 C1046 1.390 . S
C1042 C1036 1.465 . S
C1042 C1041 1.396 . S
C1042 C1043 1.399 . S
C1043 H1029 0.929 . S
C1043 C1042 1.399 . S
C1043 C1044 1.385 . S
C1044 H1030 0.931 . S
C1044 C1043 1.385 . S
C1044 C1045 1.389 . S
C1045 C1044 1.389 . S
C1045 C1046 1.387 . S
C1046 H1031 0.930 . S
C1046 C1041 1.390 . S
C1046 C1045 1.387 . S
H1047 C1059 0.930 . S
H1048 C1061 0.930 . S
H1049 C1062 0.930 . S
H1050 C1066 0.959 . S
H1051 C1066 0.959 . S
H1052 C1066 0.961 . S
H1053 C1067 0.960 . S
H1054 C1067 0.961 . S
H1055 C1067 0.959 . S
H1056 C1070 0.929 . S
H1057 C1071 0.931 . S
H1058 C1073 0.930 . S
C1059 H1047 0.930 . S
C1059 C1060 1.399 . S
C1059 C1064 1.399 . S
C1060 C1059 1.399 . S
C1060 C1061 1.376 . S
C1061 H1048 0.930 . S
C1061 C1060 1.376 . S
C1061 C1062 1.388 . S
C1062 H1049 0.930 . S
C1062 C1061 1.388 . S
C1062 C1063 1.390 . S
C1063 C1062 1.390 . S
C1063 C1064 1.394 . S
C1063 C1069 1.465 . S
C1064 C1059 1.399 . S
C1064 C1063 1.394 . S
C1064 C1065 1.516 . S
C1065 C1064 1.516 . S
C1065 C1066 1.502 . S
C1065 C1067 1.561 . S
C1065 C1068 1.526 . S
C1066 H1050 0.959 . S
C1066 H1051 0.959 . S
C1066 H1052 0.961 . S
C1066 C1065 1.502 . S
C1067 H1053 0.960 . S
C1067 H1054 0.961 . S
C1067 H1055 0.959 . S
C1067 C1065 1.561 . S
C1068 C1065 1.526 . S
C1068 C1069 1.396 . S
C1068 C1073 1.390 . S
C1069 C1063 1.465 . S
C1069 C1068 1.396 . S
C1069 C1070 1.399 . S
C1070 H1056 0.929 . S
C1070 C1069 1.399 . S
C1070 C1071 1.385 . S
C1071 H1057 0.931 . S
C1071 C1070 1.385 . S
C1071 C1072 1.389 . S
C1072 C1071 1.389 . S
C1072 C1073 1.387 . S
C1073 H1058 0.930 . S
C1073 C1068 1.390 . S
C1073 C1072 1.387 . S
H1074 C1086 0.930 . S
H1075 C1088 0.930 . S
H1076 C1089 0.930 . S
H1077 C1093 0.959 . S
H1078 C1093 0.959 . S
H1079 C1093 0.961 . S
H1080 C1094 0.960 . S
H1081 C1094 0.961 . S
H1082 C1094 0.959 . S
H1083 C1097 0.929 . S
H1084 C1098 0.931 . S
H1085 C1100 0.930 . S
C1086 H1074 0.930 . S
C1086 C1087 1.399 . S
C1086 C1091 1.399 . S
C1087 C1086 1.399 . S
C1087 C1088 1.376 . S
C1088 H1075 0.930 . S
C1088 C1087 1.376 . S
C1088 C1089 1.388 . S
C1089 H1076 0.930 . S
C1089 C1088 1.388 . S
C1089 C1090 1.390 . S
C1090 C1089 1.390 . S
C1090 C1091 1.394 . S
C1090 C1096 1.465 . S
C1091 C1086 1.399 . S
C1091 C1090 1.394 . S
C1091 C1092 1.516 . S
C1092 C1091 1.516 . S
C1092 C1093 1.502 . S
C1092 C1094 1.561 . S
C1092 C1095 1.526 . S
C1093 H1077 0.959 . S
C1093 H1078 0.959 . S
C1093 H1079 0.961 . S
C1093 C1092 1.502 . S
C1094 H1080 0.960 . S
C1094 H1081 0.961 . S
C1094 H1082 0.959 . S
C1094 C1092 1.561 . S
C1095 C1092 1.526 . S
C1095 C1096 1.396 . S
C1095 C1100 1.390 . S
C1096 C1090 1.465 . S
C1096 C1095 1.396 . S
C1096 C1097 1.399 . S
C1097 H1083 0.929 . S
C1097 C1096 1.399 . S
C1097 C1098 1.385 . S
C1098 H1084 0.931 . S
C1098 C1097 1.385 . S
C1098 C1099 1.389 . S
C1099 C1098 1.389 . S
C1099 C1100 1.387 . S
C1100 H1085 0.930 . S
C1100 C1095 1.390 . S
C1100 C1099 1.387 . S
H1101 C1113 0.930 . S
H1102 C1115 0.930 . S
H1103 C1116 0.930 . S
H1104 C1120 0.959 . S
H1105 C1120 0.959 . S
H1106 C1120 0.961 . S
H1107 C1121 0.960 . S
H1108 C1121 0.961 . S
H1109 C1121 0.959 . S
H1110 C1124 0.929 . S
H1111 C1125 0.931 . S
H1112 C1127 0.930 . S
C1113 H1101 0.930 . S
C1113 C1114 1.399 . S
C1113 C1118 1.399 . S
C1114 C1113 1.399 . S
C1114 C1115 1.376 . S
C1115 H1102 0.930 . S
C1115 C1114 1.376 . S
C1115 C1116 1.388 . S
C1116 H1103 0.930 . S
C1116 C1115 1.388 . S
C1116 C1117 1.390 . S
C1117 C1116 1.390 . S
C1117 C1118 1.394 . S
C1117 C1123 1.465 . S
C1118 C1113 1.399 . S
C1118 C1117 1.394 . S
C1118 C1119 1.516 . S
C1119 C1118 1.516 . S
C1119 C1120 1.502 . S
C1119 C1121 1.561 1_545 S
C1119 C1122 1.526 . S
C1120 H1104 0.959 . S
C1120 H1105 0.959 . S
C1120 H1106 0.961 . S
C1120 C1119 1.502 . S
C1121 H1107 0.960 . S
C1121 H1108 0.961 . S
C1121 H1109 0.959 . S
C1121 C1119 1.561 1_565 S
C1122 C1119 1.526 . S
C1122 C1123 1.396 . S
C1122 C1127 1.390 1_545 S
C1123 C1117 1.465 . S
C1123 C1122 1.396 . S
C1123 C1124 1.399 . S
C1124 H1110 0.929 . S
C1124 C1123 1.399 . S
C1124 C1125 1.385 1_545 S
C1125 H1111 0.931 . S
C1125 C1124 1.385 1_565 S
C1125 C1126 1.389 . S
C1126 C1125 1.389 . S
C1126 C1127 1.387 . S
C1127 H1112 0.930 . S
C1127 C1122 1.390 1_565 S
C1127 C1126 1.387 . S
H1128 C1140 0.930 . S
H1129 C1142 0.930 . S
H1130 C1143 0.930 . S
H1131 C1147 0.959 . S
H1132 C1147 0.959 . S
H1133 C1147 0.961 . S
H1134 C1148 0.960 . S
H1135 C1148 0.961 . S
H1136 C1148 0.959 . S
H1137 C1151 0.929 . S
H1138 C1152 0.931 . S
H1139 C1154 0.930 . S
C1140 H1128 0.930 . S
C1140 C1141 1.399 . S
C1140 C1145 1.399 . S
C1141 C1140 1.399 . S
C1141 C1142 1.376 . S
C1142 H1129 0.930 . S
C1142 C1141 1.376 . S
C1142 C1143 1.388 . S
C1143 H1130 0.930 . S
C1143 C1142 1.388 . S
C1143 C1144 1.390 . S
C1144 C1143 1.390 . S
C1144 C1145 1.394 . S
C1144 C1150 1.465 . S
C1145 C1140 1.399 . S
C1145 C1144 1.394 . S
C1145 C1146 1.516 . S
C1146 C1145 1.516 . S
C1146 C1147 1.502 . S
C1146 C1148 1.561 . S
C1146 C1149 1.526 . S
C1147 H1131 0.959 . S
C1147 H1132 0.959 . S
C1147 H1133 0.961 . S
C1147 C1146 1.502 . S
C1148 H1134 0.960 . S
C1148 H1135 0.961 . S
C1148 H1136 0.959 . S
C1148 C1146 1.561 . S
C1149 C1146 1.526 . S
C1149 C1150 1.396 . S
C1149 C1154 1.390 . S
C1150 C1144 1.465 . S
C1150 C1149 1.396 . S
C1150 C1151 1.399 . S
C1151 H1137 0.929 . S
C1151 C1150 1.399 . S
C1151 C1152 1.385 . S
C1152 H1138 0.931 . S
C1152 C1151 1.385 . S
C1152 C1153 1.389 . S
C1153 C1152 1.389 . S
C1153 C1154 1.387 . S
C1154 H1139 0.930 . S
C1154 C1149 1.390 . S
C1154 C1153 1.387 . S
H1155 C1167 0.930 . S
H1156 C1169 0.930 . S
H1157 C1170 0.930 . S
H1158 C1174 0.959 . S
H1159 C1174 0.959 . S
H1160 C1174 0.961 . S
H1161 C1175 0.960 . S
H1162 C1175 0.961 . S
H1163 C1175 0.959 . S
H1164 C1178 0.929 . S
H1165 C1179 0.931 . S
H1166 C1181 0.930 . S
C1167 H1155 0.930 . S
C1167 C1168 1.399 . S
C1167 C1172 1.399 . S
C1168 C1167 1.399 . S
C1168 C1169 1.376 . S
C1169 H1156 0.930 . S
C1169 C1168 1.376 . S
C1169 C1170 1.388 . S
C1170 H1157 0.930 . S
C1170 C1169 1.388 . S
C1170 C1171 1.390 . S
C1171 C1170 1.390 . S
C1171 C1172 1.394 . S
C1171 C1177 1.465 . S
C1172 C1167 1.399 . S
C1172 C1171 1.394 . S
C1172 C1173 1.516 . S
C1173 C1172 1.516 . S
C1173 C1174 1.502 . S
C1173 C1175 1.561 . S
C1173 C1176 1.526 . S
C1174 H1158 0.959 . S
C1174 H1159 0.959 . S
C1174 H1160 0.961 . S
C1174 C1173 1.502 . S
C1175 H1161 0.960 . S
C1175 H1162 0.961 . S
C1175 H1163 0.959 . S
C1175 C1173 1.561 . S
C1176 C1173 1.526 . S
C1176 C1177 1.396 . S
C1176 C1181 1.390 . S
C1177 C1171 1.465 . S
C1177 C1176 1.396 . S
C1177 C1178 1.399 . S
C1178 H1164 0.929 . S
C1178 C1177 1.399 . S
C1178 C1179 1.385 . S
C1179 H1165 0.931 . S
C1179 C1178 1.385 . S
C1179 C1180 1.389 . S
C1180 C1179 1.389 . S
C1180 C1181 1.387 . S
C1181 H1166 0.930 . S
C1181 C1176 1.390 . S
C1181 C1180 1.387 . S
H1182 C1194 0.930 1_655 S
H1183 C1196 0.930 . S
H1184 C1197 0.930 . S
H1185 C1201 0.959 . S
H1186 C1201 0.959 . S
H1187 C1201 0.961 . S
H1188 C1202 0.960 . S
H1189 C1202 0.961 . S
H1190 C1202 0.959 1_455 S
H1191 C1205 0.929 . S
H1192 C1206 0.931 . S
H1193 C1208 0.930 . S
C1194 H1182 0.930 1_455 S
C1194 C1195 1.399 . S
C1194 C1199 1.399 1_455 S
C1195 C1194 1.399 . S
C1195 C1196 1.376 . S
C1196 H1183 0.930 . S
C1196 C1195 1.376 . S
C1196 C1197 1.388 . S
C1197 H1184 0.930 . S
C1197 C1196 1.388 . S
C1197 C1198 1.390 . S
C1198 C1197 1.390 . S
C1198 C1199 1.394 1_455 S
C1198 C1204 1.465 1_455 S
C1199 C1194 1.399 1_655 S
C1199 C1198 1.394 1_655 S
C1199 C1200 1.516 . S
C1200 C1199 1.516 . S
C1200 C1201 1.502 . S
C1200 C1202 1.561 . S
C1200 C1203 1.526 . S
C1201 H1185 0.959 . S
C1201 H1186 0.959 . S
C1201 H1187 0.961 . S
C1201 C1200 1.502 . S
C1202 H1188 0.960 . S
C1202 H1189 0.961 . S
C1202 H1190 0.959 1_655 S
C1202 C1200 1.561 . S
C1203 C1200 1.526 . S
C1203 C1204 1.396 . S
C1203 C1208 1.390 . S
C1204 C1198 1.465 1_655 S
C1204 C1203 1.396 . S
C1204 C1205 1.399 1_655 S
C1205 H1191 0.929 . S
C1205 C1204 1.399 1_455 S
C1205 C1206 1.385 1_455 S
C1206 H1192 0.931 . S
C1206 C1205 1.385 1_655 S
C1206 C1207 1.389 . S
C1207 C1206 1.389 . S
C1207 C1208 1.387 . S
C1208 H1193 0.930 . S
C1208 C1203 1.390 . S
C1208 C1207 1.387 . S
H1209 C1221 0.930 . S
H1210 C1223 0.930 . S
H1211 C1224 0.930 . S
H1212 C1228 0.959 . S
H1213 C1228 0.959 . S
H1214 C1228 0.961 . S
H1215 C1229 0.960 . S
H1216 C1229 0.961 . S
H1217 C1229 0.959 . S
H1218 C1232 0.929 . S
H1219 C1233 0.931 . S
H1220 C1235 0.930 . S
C1221 H1209 0.930 . S
C1221 C1222 1.399 . S
C1221 C1226 1.399 . S
C1222 C1221 1.399 . S
C1222 C1223 1.376 . S
C1223 H1210 0.930 . S
C1223 C1222 1.376 . S
C1223 C1224 1.388 . S
C1224 H1211 0.930 . S
C1224 C1223 1.388 . S
C1224 C1225 1.390 . S
C1225 C1224 1.390 . S
C1225 C1226 1.394 . S
C1225 C1231 1.465 . S
C1226 C1221 1.399 . S
C1226 C1225 1.394 . S
C1226 C1227 1.516 . S
C1227 C1226 1.516 . S
C1227 C1228 1.502 . S
C1227 C1229 1.561 . S
C1227 C1230 1.526 . S
C1228 H1212 0.959 . S
C1228 H1213 0.959 . S
C1228 H1214 0.961 . S
C1228 C1227 1.502 . S
C1229 H1215 0.960 . S
C1229 H1216 0.961 . S
C1229 H1217 0.959 . S
C1229 C1227 1.561 . S
C1230 C1227 1.526 . S
C1230 C1231 1.396 . S
C1230 C1235 1.390 . S
C1231 C1225 1.465 . S
C1231 C1230 1.396 . S
C1231 C1232 1.399 . S
C1232 H1218 0.929 . S
C1232 C1231 1.399 . S
C1232 C1233 1.385 . S
C1233 H1219 0.931 . S
C1233 C1232 1.385 . S
C1233 C1234 1.389 . S
C1234 C1233 1.389 . S
C1234 C1235 1.387 . S
C1235 H1220 0.930 . S
C1235 C1230 1.390 . S
C1235 C1234 1.387 . S
H1236 C1248 0.930 . S
H1237 C1250 0.930 . S
H1238 C1251 0.930 . S
H1239 C1255 0.959 . S
H1240 C1255 0.959 . S
H1241 C1255 0.961 . S
H1242 C1256 0.960 . S
H1243 C1256 0.961 . S
H1244 C1256 0.959 . S
H1245 C1259 0.929 . S
H1246 C1260 0.931 . S
H1247 C1262 0.930 . S
C1248 H1236 0.930 . S
C1248 C1249 1.399 . S
C1248 C1253 1.399 . S
C1249 C1248 1.399 . S
C1249 C1250 1.376 . S
C1250 H1237 0.930 . S
C1250 C1249 1.376 . S
C1250 C1251 1.388 . S
C1251 H1238 0.930 . S
C1251 C1250 1.388 . S
C1251 C1252 1.390 . S
C1252 C1251 1.390 . S
C1252 C1253 1.394 . S
C1252 C1258 1.465 . S
C1253 C1248 1.399 . S
C1253 C1252 1.394 . S
C1253 C1254 1.516 . S
C1254 C1253 1.516 . S
C1254 C1255 1.502 . S
C1254 C1256 1.561 . S
C1254 C1257 1.526 . S
C1255 H1239 0.959 . S
C1255 H1240 0.959 . S
C1255 H1241 0.961 . S
C1255 C1254 1.502 . S
C1256 H1242 0.960 . S
C1256 H1243 0.961 . S
C1256 H1244 0.959 . S
C1256 C1254 1.561 . S
C1257 C1254 1.526 . S
C1257 C1258 1.396 . S
C1257 C1262 1.390 . S
C1258 C1252 1.465 . S
C1258 C1257 1.396 . S
C1258 C1259 1.399 . S
C1259 H1245 0.929 . S
C1259 C1258 1.399 . S
C1259 C1260 1.385 . S
C1260 H1246 0.931 . S
C1260 C1259 1.385 . S
C1260 C1261 1.389 . S
C1261 C1260 1.389 . S
C1261 C1262 1.387 . S
C1262 H1247 0.930 . S
C1262 C1257 1.390 . S
C1262 C1261 1.387 . S
H1263 C1275 0.930 . S
H1264 C1277 0.930 . S
H1265 C1278 0.930 . S
H1266 C1282 0.959 . S
H1267 C1282 0.959 . S
H1268 C1282 0.961 . S
H1269 C1283 0.960 . S
H1270 C1283 0.961 . S
H1271 C1283 0.959 . S
H1272 C1286 0.929 . S
H1273 C1287 0.931 . S
H1274 C1289 0.930 . S
C1275 H1263 0.930 . S
C1275 C1276 1.399 . S
C1275 C1280 1.399 . S
C1276 C1275 1.399 . S
C1276 C1277 1.376 . S
C1277 H1264 0.930 . S
C1277 C1276 1.376 . S
C1277 C1278 1.388 1_455 S
C1278 H1265 0.930 . S
C1278 C1277 1.388 1_655 S
C1278 C1279 1.390 . S
C1279 C1278 1.390 . S
C1279 C1280 1.394 1_655 S
C1279 C1285 1.465 . S
C1280 C1275 1.399 . S
C1280 C1279 1.394 1_455 S
C1280 C1281 1.516 1_455 S
C1281 C1280 1.516 1_655 S
C1281 C1282 1.500 1_655 S
C1281 C1283 1.562 . S
C1281 C1284 1.527 . S
C1282 H1266 0.959 . S
C1282 H1267 0.959 . S
C1282 H1268 0.961 . S
C1282 C1281 1.500 1_455 S
C1283 H1269 0.960 . S
C1283 H1270 0.961 . S
C1283 H1271 0.959 . S
C1283 C1281 1.562 . S
C1284 C1281 1.527 . S
C1284 C1285 1.396 . S
C1284 C1289 1.390 . S
C1285 C1279 1.465 . S
C1285 C1284 1.396 . S
C1285 C1286 1.399 . S
C1286 H1272 0.929 . S
C1286 C1285 1.399 . S
C1286 C1287 1.385 . S
C1287 H1273 0.931 . S
C1287 C1286 1.385 . S
C1287 C1288 1.389 . S
C1288 C1287 1.389 . S
C1288 C1289 1.387 . S
C1289 H1274 0.930 . S
C1289 C1284 1.390 . S
C1289 C1288 1.387 . S
H1290 C1302 0.930 . S
H1291 C1304 0.930 . S
H1292 C1305 0.930 . S
H1293 C1309 0.959 . S
H1294 C1309 0.959 . S
H1295 C1309 0.961 . S
H1296 C1310 0.960 . S
H1297 C1310 0.961 . S
H1298 C1310 0.959 . S
H1299 C1313 0.929 . S
H1300 C1314 0.931 . S
H1301 C1316 0.930 . S
C1302 H1290 0.930 . S
C1302 C1303 1.399 . S
C1302 C1307 1.399 . S
C1303 C1302 1.399 . S
C1303 C1304 1.376 . S
C1304 H1291 0.930 . S
C1304 C1303 1.376 . S
C1304 C1305 1.388 . S
C1305 H1292 0.930 . S
C1305 C1304 1.388 . S
C1305 C1306 1.390 . S
C1306 C1305 1.390 . S
C1306 C1307 1.394 . S
C1306 C1312 1.465 . S
C1307 C1302 1.399 . S
C1307 C1306 1.394 . S
C1307 C1308 1.516 . S
C1308 C1307 1.516 . S
C1308 C1309 1.502 . S
C1308 C1310 1.561 . S
C1308 C1311 1.526 . S
C1309 H1293 0.959 . S
C1309 H1294 0.959 . S
C1309 H1295 0.961 . S
C1309 C1308 1.502 . S
C1310 H1296 0.960 . S
C1310 H1297 0.961 . S
C1310 H1298 0.959 . S
C1310 C1308 1.561 . S
C1311 C1308 1.526 . S
C1311 C1312 1.396 . S
C1311 C1316 1.390 . S
C1312 C1306 1.465 . S
C1312 C1311 1.396 . S
C1312 C1313 1.399 . S
C1313 H1299 0.929 . S
C1313 C1312 1.399 . S
C1313 C1314 1.385 . S
C1314 H1300 0.931 . S
C1314 C1313 1.385 . S
C1314 C1315 1.389 . S
C1315 C1314 1.389 . S
C1315 C1316 1.387 . S
C1316 H1301 0.930 . S
C1316 C1311 1.390 . S
C1316 C1315 1.387 . S
H1317 C1329 0.930 . S
H1318 C1331 0.930 . S
H1319 C1332 0.930 . S
H1320 C1336 0.959 . S
H1321 C1336 0.959 . S
H1322 C1336 0.961 . S
H1323 C1337 0.960 . S
H1324 C1337 0.961 . S
H1325 C1337 0.959 . S
H1326 C1340 0.929 . S
H1327 C1341 0.931 . S
H1328 C1343 0.930 . S
C1329 H1317 0.930 . S
C1329 C1330 1.399 . S
C1329 C1334 1.399 . S
C1330 C1329 1.399 . S
C1330 C1331 1.376 . S
C1331 H1318 0.930 . S
C1331 C1330 1.376 . S
C1331 C1332 1.388 . S
C1332 H1319 0.930 . S
C1332 C1331 1.388 . S
C1332 C1333 1.390 . S
C1333 C1332 1.390 . S
C1333 C1334 1.394 . S
C1333 C1339 1.465 . S
C1334 C1329 1.399 . S
C1334 C1333 1.394 . S
C1334 C1335 1.516 . S
C1335 C1334 1.516 . S
C1335 C1336 1.502 . S
C1335 C1337 1.561 . S
C1335 C1338 1.526 . S
C1336 H1320 0.959 . S
C1336 H1321 0.959 . S
C1336 H1322 0.961 . S
C1336 C1335 1.502 . S
C1337 H1323 0.960 . S
C1337 H1324 0.961 . S
C1337 H1325 0.959 . S
C1337 C1335 1.561 . S
C1338 C1335 1.526 . S
C1338 C1339 1.396 . S
C1338 C1343 1.390 . S
C1339 C1333 1.465 . S
C1339 C1338 1.396 . S
C1339 C1340 1.399 . S
C1340 H1326 0.929 . S
C1340 C1339 1.399 . S
C1340 C1341 1.385 . S
C1341 H1327 0.931 . S
C1341 C1340 1.385 . S
C1341 C1342 1.389 . S
C1342 C1341 1.389 . S
C1342 C1343 1.387 . S
C1343 H1328 0.930 . S
C1343 C1338 1.390 . S
C1343 C1342 1.387 . S
C505 C388 1.331 . S
C493 C8 1.280 . S
C532 C405 1.346 . S
C520 C61 1.409 . S
C559 C419 1.564 . S
C547 C107 1.542 . S
C574 C139 1.278 . S
C586 C377 1.318 . S
C601 C192 1.299 1_554 S
C613 C374 1.326 . S
C628 C238 1.147 . S
C640 C391 1.153 . S
C667 C402 1.523 . S
C655 C284 1.483 . S
C694 C416 1.405 . S
C682 C330 1.368 . S
C709 C100 1.329 . S
C721 C444 1.353 . S
C748 C458 1.523 . S
C736 C160 1.464 . S
C763 C15 1.115 . S
C775 C475 1.154 . S
C802 C430 1.324 . S
C790 C54 1.308 . S
C817 C291 1.305 . S
C829 C433 1.280 . S
C844 C337 1.579 . S
C856 C447 1.523 . S
C883 C461 1.407 . S
C871 C199 1.442 . S
C898 C245 1.339 . S
C910 C472 1.331 . S
C937 C404 1.933 . S
C925 C1 1.913 . S
C964 C418 2.048 . S
C952 C68 2.000 . S
C979 C114 1.928 . S
C991 C376 1.992 1_556 S
C1006 C146 1.827 . S
C1018 C389 1.736 . S
C1033 C185 1.635 . S
C1045 C417 1.536 . S
C1072 C375 1.516 . S
C1060 C231 1.591 . S
C1099 C390 1.811 . S
C1087 C277 1.815 . S
C1126 C403 1.561 . S
C1114 C323 1.716 . S
C1153 C459 1.579 . S
C1141 C93 1.723 . S
C1180 C474 1.827 . S
C1168 C153 1.842 . S
C1195 C22 1.572 . S
C1207 C431 1.499 . S
C1234 C445 1.452 . S
C1222 C47 1.619 . S
C1261 C473 1.694 . S
C1249 C298 1.838 . S
C1276 C344 1.965 . S
C1288 C432 1.958 . S
C1315 C446 2.050 . S
C1303 C206 1.993 . S
C1342 C460 1.909 . S
C1330 C252 1.926 . S
