# Generated by pormake.
# Topology pto, (3,4)-cn, num edge types: 1
# Building blocks:
#     Node 0, Type 0, BuildingBlock: WUSLED_clean_sbu_0, # of connection points: 3
#     Node 1, Type 0, BuildingBlock: WUSLED_clean_sbu_0, # of connection points: 3
#     Node 2, Type 0, BuildingBlock: WUSLED_clean_sbu_0, # of connection points: 3
#     Node 3, Type 0, BuildingBlock: WUSLED_clean_sbu_0, # of connection points: 3
#     Node 4, Type 0, BuildingBlock: WUSLED_clean_sbu_0, # of connection points: 3
#     Node 5, Type 0, BuildingBlock: WUSLED_clean_sbu_0, # of connection points: 3
#     Node 6, Type 0, BuildingBlock: WUSLED_clean_sbu_0, # of connection points: 3
#     Node 7, Type 0, BuildingBlock: WUSLED_clean_sbu_0, # of connection points: 3
#     Node 8, Type 1, BuildingBlock: MUDLON_clean_linker_0, # of connection points: 4
#     Node 9, Type 1, BuildingBlock: MUDLON_clean_linker_0, # of connection points: 4
#     Node 10, Type 1, BuildingBlock: MUDLON_clean_linker_0, # of connection points: 4
#     Node 11, Type 1, BuildingBlock: MUDLON_clean_linker_0, # of connection points: 4
#     Node 12, Type 1, BuildingBlock: MUDLON_clean_linker_0, # of connection points: 4
#     Node 13, Type 1, BuildingBlock: MUDLON_clean_linker_0, # of connection points: 4
#     Edge 14, Type (0, 1), BuildingBlock: CIFDUS_clean_linker_0, # of connection points: 2
#     Edge 15, Type (0, 1), BuildingBlock: CIFDUS_clean_linker_0, # of connection points: 2
#     Edge 16, Type (0, 1), BuildingBlock: CIFDUS_clean_linker_0, # of connection points: 2
#     Edge 17, Type (0, 1), BuildingBlock: CIFDUS_clean_linker_0, # of connection points: 2
#     Edge 18, Type (0, 1), BuildingBlock: CIFDUS_clean_linker_0, # of connection points: 2
#     Edge 19, Type (0, 1), BuildingBlock: CIFDUS_clean_linker_0, # of connection points: 2
#     Edge 20, Type (0, 1), BuildingBlock: CIFDUS_clean_linker_0, # of connection points: 2
#     Edge 21, Type (0, 1), BuildingBlock: CIFDUS_clean_linker_0, # of connection points: 2
#     Edge 22, Type (0, 1), BuildingBlock: CIFDUS_clean_linker_0, # of connection points: 2
#     Edge 23, Type (0, 1), BuildingBlock: CIFDUS_clean_linker_0, # of connection points: 2
#     Edge 24, Type (0, 1), BuildingBlock: CIFDUS_clean_linker_0, # of connection points: 2
#     Edge 25, Type (0, 1), BuildingBlock: CIFDUS_clean_linker_0, # of connection points: 2
#     Edge 26, Type (0, 1), BuildingBlock: CIFDUS_clean_linker_0, # of connection points: 2
#     Edge 27, Type (0, 1), BuildingBlock: CIFDUS_clean_linker_0, # of connection points: 2
#     Edge 28, Type (0, 1), BuildingBlock: CIFDUS_clean_linker_0, # of connection points: 2
#     Edge 29, Type (0, 1), BuildingBlock: CIFDUS_clean_linker_0, # of connection points: 2
#     Edge 30, Type (0, 1), BuildingBlock: CIFDUS_clean_linker_0, # of connection points: 2
#     Edge 31, Type (0, 1), BuildingBlock: CIFDUS_clean_linker_0, # of connection points: 2
#     Edge 32, Type (0, 1), BuildingBlock: CIFDUS_clean_linker_0, # of connection points: 2
#     Edge 33, Type (0, 1), BuildingBlock: CIFDUS_clean_linker_0, # of connection points: 2
#     Edge 34, Type (0, 1), BuildingBlock: CIFDUS_clean_linker_0, # of connection points: 2
#     Edge 35, Type (0, 1), BuildingBlock: CIFDUS_clean_linker_0, # of connection points: 2
#     Edge 36, Type (0, 1), BuildingBlock: CIFDUS_clean_linker_0, # of connection points: 2
#     Edge 37, Type (0, 1), BuildingBlock: CIFDUS_clean_linker_0, # of connection points: 2
# Relax obj value: 0.005
# Max RMSD: 0.037
# Mean RMSD: 0.021
data_MOF--net-pto--node1-WUSLED_clean_sbu_0--node2-MUDLON_clean_linker_0--edge1-CIFDUS_clean_linker_0
_symmetry_space_group_name_H-M    P1
_symmetry_Int_Tables_number       1
_symmetry_cell_setting            triclinic
loop_
_symmetry_equiv_pos_as_xyz
'x, y, z'
_cell_length_a     45.509642
_cell_length_b     75.108656
_cell_length_c     60.874103
_cell_angle_alpha  89.625281
_cell_angle_beta   90.728594
_cell_angle_gamma 90.267551
loop_
_atom_site_label
_atom_site_type_symbol
_atom_site_fract_x
_atom_site_fract_y
_atom_site_fract_z
_atom_type_partial_charge
C0 C 0.22489 0.24144 0.37183 0.0
C1 C 0.23706 0.22615 0.36254 0.0
C2 C 0.21882 0.20811 0.39291 0.0
C3 C 0.23404 0.2096 0.37299 0.0
C4 C 0.20701 0.22359 0.40222 0.0
C5 C 0.21 0.24008 0.39174 0.0
U6 U 0.25693 0.27165 0.32758 0.0
O7 O 0.23584 0.29184 0.30656 0.0
O8 O 0.27079 0.29978 0.3297 0.0
C9 C 0.24985 0.30509 0.31614 0.0
C10 C 0.22744 0.25887 0.36096 0.0
C11 C 0.23088 0.31934 0.32434 0.0
C12 C 0.18598 0.32861 0.34204 0.0
C13 C 0.20481 0.31512 0.33534 0.0
C14 C 0.21965 0.3508 0.32777 0.0
C15 C 0.19303 0.34658 0.33811 0.0
C16 C 0.23838 0.33725 0.32084 0.0
C17 C 0.31086 0.25198 0.28655 0.0
C18 C 0.33829 0.26948 0.26004 0.0
C19 C 0.33714 0.2373 0.25739 0.0
C20 C 0.31928 0.2364 0.27586 0.0
C21 C 0.34699 0.25385 0.24929 0.0
C22 C 0.3203 0.26856 0.27849 0.0
C23 C 0.29188 0.2506 0.30582 0.0
O24 O 0.25312 0.26679 0.36312 0.0
O25 O 0.21664 0.25973 0.34086 0.0
O26 O 0.26357 0.25187 0.30166 0.0
O27 O 0.30043 0.25963 0.32323 0.0
H28 H 0.24871 0.22701 0.34715 0.0
H29 H 0.2432 0.19794 0.36531 0.0
H30 H 0.19566 0.22299 0.41774 0.0
H31 H 0.20066 0.25179 0.3992 0.0
H32 H 0.16581 0.32498 0.35025 0.0
H33 H 0.19879 0.30136 0.33845 0.0
H34 H 0.22555 0.36454 0.32449 0.0
H35 H 0.25849 0.34075 0.31247 0.0
H36 H 0.34574 0.28242 0.2544 0.0
H37 H 0.34299 0.22503 0.24934 0.0
H38 H 0.31196 0.22351 0.28178 0.0
H39 H 0.31386 0.28074 0.28651 0.0
C40 C 0.22954 0.79966 0.66092 0.0
C41 C 0.22465 0.81561 0.67225 0.0
C42 C 0.22769 0.8324 0.63797 0.0
C43 C 0.22356 0.83185 0.66082 0.0
C44 C 0.2327 0.81641 0.62678 0.0
C45 C 0.23352 0.80022 0.63814 0.0
U46 U 0.25548 0.76915 0.708 0.0
O47 O 0.23226 0.74758 0.72527 0.0
O48 O 0.27184 0.74169 0.70649 0.0
C49 C 0.24947 0.7352 0.71745 0.0
C50 C 0.23077 0.78229 0.67232 0.0
C51 C 0.23416 0.7201 0.70716 0.0
C52 C 0.20607 0.70745 0.67683 0.0
C53 C 0.22151 0.72174 0.68612 0.0
C54 C 0.21599 0.68973 0.70948 0.0
C55 C 0.20292 0.69131 0.68848 0.0
C56 C 0.23147 0.70401 0.71872 0.0
C57 C 0.30398 0.78624 0.75473 0.0
C58 C 0.34175 0.77028 0.77537 0.0
C59 C 0.31372 0.79329 0.79311 0.0
C60 C 0.29808 0.7963 0.7735 0.0
C61 C 0.33575 0.78022 0.79429 0.0
C62 C 0.32596 0.77317 0.75587 0.0
C63 C 0.28692 0.7894 0.73426 0.0
O64 O 0.25658 0.77451 0.67245 0.0
O65 O 0.21717 0.78103 0.69121 0.0
O66 O 0.25826 0.78769 0.73589 0.0
O67 O 0.29737 0.78223 0.71633 0.0
H68 H 0.22173 0.81556 0.68988 0.0
H69 H 0.21987 0.84398 0.66988 0.0
H70 H 0.23557 0.81639 0.60914 0.0
H71 H 0.23727 0.78807 0.6291 0.0
H72 H 0.19658 0.70905 0.66054 0.0
H73 H 0.22339 0.73411 0.67697 0.0
H74 H 0.21363 0.67761 0.71905 0.0
H75 H 0.24101 0.70258 0.73503 0.0
H76 H 0.35891 0.76034 0.77549 0.0
H77 H 0.30826 0.80106 0.80741 0.0
H78 H 0.28118 0.80642 0.77304 0.0
H79 H 0.33105 0.76516 0.7417 0.0
C80 C 0.7369 0.79321 0.28637 0.0
C81 C 0.74452 0.78473 0.26674 0.0
C82 C 0.70039 0.79633 0.24869 0.0
C83 C 0.72645 0.78632 0.24805 0.0
C84 C 0.69267 0.80447 0.26855 0.0
C85 C 0.7108 0.80297 0.28713 0.0
U86 U 0.78656 0.76883 0.32833 0.0
O87 O 0.82756 0.77789 0.34419 0.0
O88 O 0.78889 0.77207 0.36423 0.0
C89 C 0.81571 0.77861 0.36373 0.0
C90 C 0.75594 0.79251 0.30611 0.0
C91 C 0.82017 0.79544 0.3755 0.0
C92 C 0.81705 0.8277 0.37717 0.0
C93 C 0.81191 0.81175 0.36595 0.0
C94 C 0.83825 0.81109 0.40769 0.0
C95 C 0.83051 0.82755 0.39812 0.0
C96 C 0.83316 0.79519 0.39645 0.0
C97 C 0.80389 0.7198 0.32493 0.0
C98 C 0.82885 0.70485 0.3553 0.0
C99 C 0.82642 0.69092 0.31953 0.0
C100 C 0.81047 0.70544 0.31128 0.0
C101 C 0.83607 0.69053 0.3416 0.0
C102 C 0.81308 0.71938 0.34701 0.0
C103 C 0.78871 0.73551 0.31587 0.0
O104 O 0.74538 0.78359 0.32292 0.0
O105 O 0.78408 0.78972 0.30295 0.0
O106 O 0.80612 0.74796 0.30802 0.0
O107 O 0.76754 0.74187 0.32802 0.0
H108 H 0.76454 0.77705 0.26577 0.0
H109 H 0.73318 0.77999 0.23301 0.0
H110 H 0.67249 0.81195 0.2698 0.0
H111 H 0.70446 0.80954 0.30213 0.0
H112 H 0.81104 0.84013 0.36926 0.0
H113 H 0.80177 0.81215 0.34975 0.0
H114 H 0.84813 0.81046 0.42396 0.0
H115 H 0.83948 0.78269 0.4041 0.0
H116 H 0.8355 0.70489 0.37244 0.0
H117 H 0.83189 0.68024 0.30846 0.0
H118 H 0.80372 0.70561 0.29415 0.0
H119 H 0.80832 0.73039 0.3578 0.0
C120 C 0.7816 0.21989 0.69807 0.0
C121 C 0.7938 0.22481 0.67787 0.0
C122 C 0.79954 0.19356 0.66832 0.0
C123 C 0.80261 0.21176 0.66309 0.0
C124 C 0.78738 0.18875 0.68867 0.0
C125 C 0.77848 0.20182 0.7034 0.0
U126 U 0.78118 0.26787 0.71772 0.0
O127 O 0.74555 0.28384 0.73141 0.0
O128 O 0.78509 0.27842 0.75129 0.0
C129 C 0.75816 0.28469 0.75092 0.0
C130 C 0.7725 0.23346 0.7138 0.0
C131 C 0.73957 0.27881 0.76914 0.0
C132 C 0.71142 0.2556 0.78731 0.0
C133 C 0.73025 0.26102 0.77057 0.0
C134 C 0.71148 0.28564 0.80162 0.0
C135 C 0.70159 0.26788 0.80291 0.0
C136 C 0.73029 0.29106 0.78482 0.0
C137 C 0.82271 0.30341 0.68449 0.0
C138 C 0.84526 0.331 0.69707 0.0
C139 C 0.83378 0.32707 0.65844 0.0
C140 C 0.82244 0.31014 0.66296 0.0
C141 C 0.84585 0.3376 0.67537 0.0
C142 C 0.83372 0.31409 0.7016 0.0
C143 C 0.81253 0.28501 0.68847 0.0
O144 O 0.79388 0.24034 0.72577 0.0
O145 O 0.75405 0.24546 0.70608 0.0
O146 O 0.78413 0.28223 0.68612 0.0
O147 O 0.82409 0.27675 0.70561 0.0
H148 H 0.79643 0.23874 0.67352 0.0
H149 H 0.81151 0.21595 0.64746 0.0
H150 H 0.78507 0.17488 0.69336 0.0
H151 H 0.76928 0.19781 0.71901 0.0
H152 H 0.7045 0.24179 0.78801 0.0
H153 H 0.7373 0.25138 0.75858 0.0
H154 H 0.70405 0.29546 0.81323 0.0
H155 H 0.73724 0.30486 0.78388 0.0
H156 H 0.85461 0.33864 0.71049 0.0
H157 H 0.83334 0.33184 0.64161 0.0
H158 H 0.81386 0.30215 0.64955 0.0
H159 H 0.83401 0.30924 0.71839 0.0
C160 C 0.80322 0.72254 0.71575 0.0
C161 C 0.82624 0.72681 0.70153 0.0
C162 C 0.83549 0.69529 0.6956 0.0
C163 C 0.84231 0.71332 0.69162 0.0
C164 C 0.81215 0.69111 0.70972 0.0
C165 C 0.79618 0.70464 0.71972 0.0
U166 U 0.77996 0.77087 0.71885 0.0
O167 O 0.73677 0.78253 0.72582 0.0
O168 O 0.77479 0.7885 0.74715 0.0
C169 C 0.74616 0.78964 0.74431 0.0
C170 C 0.78633 0.73665 0.7263 0.0
C171 C 0.72849 0.78541 0.76374 0.0
C172 C 0.7195 0.7676 0.79647 0.0
C173 C 0.7365 0.77149 0.77807 0.0
C174 C 0.68594 0.79126 0.78616 0.0
C175 C 0.69398 0.77744 0.80076 0.0
C176 C 0.70309 0.79522 0.76787 0.0
C177 C 0.81082 0.80364 0.67605 0.0
C178 C 0.79008 0.83153 0.66263 0.0
C179 C 0.84166 0.82524 0.65734 0.0
C180 C 0.83831 0.80892 0.66814 0.0
C181 C 0.81748 0.83661 0.65407 0.0
C182 C 0.78678 0.81519 0.67356 0.0
C183 C 0.80776 0.78582 0.68602 0.0
O184 O 0.8021 0.74893 0.73634 0.0
O185 O 0.76472 0.74326 0.71433 0.0
O186 O 0.78192 0.77806 0.68387 0.0
O187 O 0.81963 0.78378 0.70566 0.0
H188 H 0.8319 0.74059 0.69821 0.0
H189 H 0.86038 0.71704 0.68111 0.0
H190 H 0.80603 0.6774 0.71291 0.0
H191 H 0.77831 0.70113 0.73054 0.0
H192 H 0.72655 0.75701 0.80745 0.0
H193 H 0.75595 0.76365 0.77508 0.0
H194 H 0.66614 0.79889 0.78867 0.0
H195 H 0.69644 0.8059 0.75686 0.0
H196 H 0.77098 0.83991 0.66029 0.0
H197 H 0.8632 0.82888 0.65138 0.0
H198 H 0.85716 0.80026 0.67004 0.0
H199 H 0.76535 0.81144 0.67966 0.0
C200 C 0.72926 0.25791 0.28712 0.0
C201 C 0.72964 0.27493 0.27751 0.0
C202 C 0.69491 0.26511 0.24929 0.0
C203 C 0.71264 0.2785 0.25873 0.0
C204 C 0.69486 0.24802 0.25894 0.0
C205 C 0.71191 0.24447 0.27771 0.0
U206 U 0.77781 0.27401 0.33402 0.0
O207 O 0.77793 0.26675 0.36914 0.0
O208 O 0.81723 0.26228 0.34935 0.0
C209 C 0.80411 0.25949 0.3682 0.0
C210 C 0.7464 0.2542 0.30719 0.0
C211 C 0.80658 0.2414 0.37766 0.0
C212 C 0.81744 0.20985 0.37434 0.0
C213 C 0.81429 0.22672 0.36476 0.0
C214 C 0.80432 0.22195 0.40966 0.0
C215 C 0.81259 0.20731 0.39691 0.0
C216 C 0.80147 0.23884 0.40013 0.0
C217 C 0.79858 0.32306 0.33703 0.0
C218 C 0.83029 0.33431 0.36622 0.0
C219 C 0.81536 0.35376 0.33621 0.0
C220 C 0.79909 0.33984 0.32689 0.0
C221 C 0.8314 0.35111 0.35587 0.0
C222 C 0.81405 0.32038 0.35685 0.0
C223 C 0.78285 0.3083 0.32637 0.0
O224 O 0.77496 0.25631 0.30543 0.0
O225 O 0.73583 0.26115 0.32518 0.0
O226 O 0.76117 0.30128 0.33762 0.0
O227 O 0.79977 0.29634 0.31734 0.0
H228 H 0.74298 0.28546 0.28462 0.0
H229 H 0.71343 0.29173 0.25157 0.0
H230 H 0.68114 0.23749 0.25229 0.0
H231 H 0.7113 0.23128 0.28502 0.0
H232 H 0.8236 0.19877 0.3641 0.0
H233 H 0.81811 0.22827 0.34733 0.0
H234 H 0.80078 0.22044 0.42714 0.0
H235 H 0.79553 0.24997 0.41038 0.0
H236 H 0.84267 0.33178 0.38122 0.0
H237 H 0.81549 0.36659 0.32799 0.0
H238 H 0.78723 0.34211 0.31159 0.0
H239 H 0.81397 0.30744 0.36483 0.0
C240 C 0.23406 0.24191 0.65998 0.0
C241 C 0.25827 0.23039 0.65947 0.0
C242 C 0.22907 0.20847 0.63944 0.0
C243 C 0.25584 0.21385 0.64915 0.0
C244 C 0.20479 0.21995 0.6403 0.0
C245 C 0.20732 0.23654 0.65043 0.0
U246 U 0.26489 0.27265 0.7043 0.0
O247 O 0.27994 0.30044 0.70236 0.0
O248 O 0.24295 0.29333 0.72352 0.0
C249 C 0.25863 0.30623 0.71478 0.0
C250 C 0.23615 0.25949 0.67047 0.0
C251 C 0.24162 0.32116 0.70558 0.0
C252 C 0.21321 0.33447 0.67576 0.0
C253 C 0.22947 0.32023 0.68432 0.0
C254 C 0.22084 0.35064 0.7097 0.0
C255 C 0.20866 0.34982 0.68837 0.0
C256 C 0.23724 0.33642 0.7182 0.0
C257 C 0.31917 0.25427 0.74718 0.0
C258 C 0.32767 0.26342 0.78502 0.0
C259 C 0.36696 0.2499 0.76456 0.0
C260 C 0.34827 0.24829 0.7463 0.0
C261 C 0.35682 0.25739 0.78414 0.0
C262 C 0.30904 0.26197 0.76666 0.0
C263 C 0.29986 0.25215 0.72771 0.0
O264 O 0.22487 0.26043 0.6902 0.0
O265 O 0.26156 0.26777 0.6688 0.0
O266 O 0.30837 0.26056 0.70986 0.0
O267 O 0.27142 0.25322 0.73101 0.0
H268 H 0.27906 0.2342 0.66697 0.0
H269 H 0.27482 0.20521 0.6489 0.0
H270 H 0.18399 0.21627 0.63273 0.0
H271 H 0.18839 0.24523 0.65071 0.0
H272 H 0.20376 0.33334 0.6594 0.0
H273 H 0.23247 0.30846 0.6744 0.0
H274 H 0.2179 0.36233 0.71974 0.0
H275 H 0.24648 0.33733 0.73466 0.0
H276 H 0.31937 0.2694 0.79983 0.0
H277 H 0.38923 0.24497 0.7635 0.0
H278 H 0.35651 0.24227 0.73148 0.0
H279 H 0.28674 0.26683 0.76776 0.0
C280 C 0.21441 0.74512 0.36337 0.0
C281 C 0.2073 0.7344 0.34524 0.0
C282 C 0.18326 0.71296 0.36926 0.0
C283 C 0.1917 0.71851 0.34815 0.0
C284 C 0.19126 0.72344 0.38745 0.0
C285 C 0.20663 0.73944 0.3845 0.0
U286 U 0.26507 0.7754 0.33079 0.0
O287 O 0.26058 0.80363 0.32158 0.0
O288 O 0.29824 0.79493 0.34172 0.0
C289 C 0.28347 0.80848 0.33351 0.0
C290 C 0.2294 0.76234 0.36037 0.0
C291 C 0.27802 0.82316 0.34875 0.0
C292 C 0.25913 0.834 0.38328 0.0
C293 C 0.26542 0.81987 0.36929 0.0
C294 C 0.27801 0.85486 0.35633 0.0
C295 C 0.26512 0.8517 0.3769 0.0
C296 C 0.28439 0.8407 0.34239 0.0
C297 C 0.30054 0.75762 0.2791 0.0
C298 C 0.33162 0.77632 0.25637 0.0
C299 C 0.32512 0.74508 0.24767 0.0
C300 C 0.30655 0.74307 0.26564 0.0
C301 C 0.33796 0.76172 0.24287 0.0
C302 C 0.31309 0.77427 0.27436 0.0
C303 C 0.28158 0.75521 0.29821 0.0
O304 O 0.25815 0.76207 0.36269 0.0
O305 O 0.22042 0.7718 0.34334 0.0
O306 O 0.25715 0.76448 0.2978 0.0
O307 O 0.29521 0.75556 0.31736 0.0
H308 H 0.21343 0.73844 0.3288 0.0
H309 H 0.18612 0.71058 0.33387 0.0
H310 H 0.18485 0.71955 0.40388 0.0
H311 H 0.21204 0.74752 0.39868 0.0
H312 H 0.24964 0.83105 0.39911 0.0
H313 H 0.26024 0.80639 0.37443 0.0
H314 H 0.28256 0.86831 0.35078 0.0
H315 H 0.29392 0.84347 0.3265 0.0
H316 H 0.34146 0.78924 0.2533 0.0
H317 H 0.32931 0.73364 0.23746 0.0
H318 H 0.29697 0.73013 0.26908 0.0
H319 H 0.30874 0.78563 0.2847 0.0
H320 H 1.00221 0.42828 0.42641 0.0
N321 N 0.02469 0.45658 0.40633 0.0
H322 H 0.96105 0.4097 0.41403 0.0
H323 H 0.98626 0.46444 0.37229 0.0
H324 H 0.94463 0.44643 0.36036 0.0
H325 H 0.03551 0.44843 0.36333 0.0
H326 H 0.07604 0.43045 0.35005 0.0
H327 H 0.07174 0.44585 0.42906 0.0
H328 H 0.11267 0.42785 0.41577 0.0
H329 H 0.01557 0.47668 0.44116 0.0
H330 H 0.03342 0.47982 0.37191 0.0
H331 H 0.01495 0.50916 0.4431 0.0
H332 H 0.03144 0.51219 0.37335 0.0
H333 H 0.99354 0.61231 0.44129 0.0
H334 H 0.95456 0.63273 0.4296 0.0
H335 H 0.95538 0.60983 0.36467 0.0
H336 H 0.99386 0.58908 0.37679 0.0
H337 H 0.04442 0.59906 0.37596 0.0
H338 H 0.08411 0.62 0.36864 0.0
H339 H 0.09892 0.62601 0.43852 0.0
H340 H 0.05991 0.60428 0.44558 0.0
H341 H 0.98841 0.56677 0.43669 0.0
H342 H 0.98732 0.53443 0.4333 0.0
H343 H 0.05719 0.5375 0.38597 0.0
N344 N 0.02303 0.58997 0.41638 0.0
H345 H 0.05726 0.56956 0.38859 0.0
C346 C 0.99744 0.44777 0.40045 0.0
C347 C 0.98932 0.43246 0.41222 0.0
C348 C 0.96573 0.4219 0.40514 0.0
C349 C 0.94961 0.42649 0.38608 0.0
C350 C 0.95687 0.44233 0.37489 0.0
C351 C 0.98062 0.4528 0.38189 0.0
C352 C 0.05047 0.44837 0.39734 0.0
C353 C 0.05243 0.44428 0.37487 0.0
C354 C 0.07556 0.43392 0.36729 0.0
C355 C 0.09733 0.42761 0.38192 0.0
C356 C 0.09628 0.4326 0.4041 0.0
C357 C 0.07296 0.44284 0.41172 0.0
C358 C 0.02445 0.47579 0.4065 0.0
C359 C 0.01912 0.48442 0.42635 0.0
C360 C 0.01851 0.50299 0.42734 0.0
C361 C 0.02296 0.51341 0.40834 0.0
C362 C 0.0283 0.50468 0.38838 0.0
C363 C 0.02923 0.48608 0.38749 0.0
C364 C 0.99669 0.59934 0.40993 0.0
C365 C 0.98475 0.61144 0.42471 0.0
C366 C 0.96273 0.62318 0.41793 0.0
C367 C 0.95226 0.62311 0.39609 0.0
C368 C 0.96293 0.61019 0.38161 0.0
C369 C 0.985 0.59838 0.38847 0.0
C370 C 0.04936 0.59994 0.41142 0.0
C371 C 0.05668 0.60451 0.38971 0.0
C372 C 0.07922 0.61669 0.38555 0.0
C373 C 0.09452 0.62494 0.40298 0.0
C374 C 0.08791 0.61981 0.42466 0.0
C375 C 0.0656 0.6074 0.42877 0.0
C376 C 0.02268 0.57089 0.41298 0.0
C377 C 1.00326 0.56046 0.4254 0.0
C378 C 1.00289 0.54193 0.42359 0.0
C379 C 0.02233 0.53324 0.40946 0.0
C380 C 0.04158 0.54368 0.39679 0.0
C381 C 0.0417 0.56225 0.39841 0.0
H382 H 0.99784 0.44263 0.66748 0.0
N383 N 0.01988 0.45406 0.62812 0.0
H384 H 0.95857 0.4209 0.67236 0.0
H385 H 0.98235 0.44257 0.5975 0.0
H386 H 0.94224 0.42107 0.60226 0.0
H387 H 0.05034 0.42907 0.60816 0.0
H388 H 0.08967 0.41078 0.62375 0.0
H389 H 0.04718 0.4593 0.66798 0.0
H390 H 0.08735 0.44155 0.6835 0.0
H391 H 0.99313 0.47421 0.65979 0.0
H392 H 0.04475 0.47714 0.60099 0.0
H393 H 0.99116 0.50657 0.66105 0.0
H394 H 0.04434 0.5096 0.60275 0.0
H395 H 1.00345 0.59508 0.67593 0.0
H396 H 0.96372 0.61229 0.6914 0.0
H397 H 0.92091 0.61445 0.62765 0.0
H398 H 0.9615 0.59752 0.61212 0.0
H399 H 0.02849 0.61257 0.60485 0.0
H400 H 0.06822 0.63418 0.61068 0.0
H401 H 0.09155 0.60767 0.67161 0.0
H402 H 0.05257 0.58596 0.66534 0.0
H403 H 0.01456 0.56517 0.66842 0.0
H404 H 0.01818 0.53284 0.66794 0.0
H405 H 0.01311 0.53394 0.59694 0.0
N406 N 0.01071 0.58738 0.63238 0.0
H407 H 0.01115 0.56641 0.59767 0.0
C408 C 0.99318 0.44415 0.63201 0.0
C409 C 0.98542 0.43833 0.65319 0.0
C410 C 0.9628 0.42591 0.65597 0.0
C411 C 0.94745 0.41906 0.63767 0.0
C412 C 0.95397 0.42583 0.61667 0.0
C413 C 0.97665 0.43823 0.61391 0.0
C414 C 0.04593 0.44555 0.63678 0.0
C415 C 0.05876 0.43204 0.62446 0.0
C416 C 0.08133 0.42166 0.63341 0.0
C417 C 0.09172 0.42464 0.65495 0.0
C418 C 0.07961 0.43871 0.66699 0.0
C419 C 0.05683 0.44902 0.65805 0.0
C420 C 0.0187 0.47319 0.62996 0.0
C421 C 0.00413 0.48177 0.64715 0.0
C422 C 1.00332 0.50039 0.64799 0.0
C423 C 0.01743 0.51082 0.63192 0.0
C424 C 0.0326 0.5021 0.61513 0.0
C425 C 0.03307 0.48354 0.61415 0.0
C426 C 0.9855 0.59506 0.64274 0.0
C427 C 0.98533 0.59892 0.66531 0.0
C428 C 0.96244 0.60876 0.6742 0.0
C429 C 0.9392 0.6149 0.66074 0.0
C430 C 0.93871 0.6102 0.6384 0.0
C431 C 0.96169 0.6004 0.62953 0.0
C432 C 0.03739 0.59768 0.63458 0.0
C433 C 0.04272 0.6112 0.61916 0.0
C434 C 0.06521 0.62362 0.62264 0.0
C435 C 0.08283 0.62281 0.64177 0.0
C436 C 0.07856 0.60863 0.65662 0.0
C437 C 0.05608 0.59618 0.65308 0.0
C438 C 0.013 0.56826 0.63297 0.0
C439 C 0.01467 0.55852 0.65275 0.0
C440 C 0.01637 0.53992 0.65244 0.0
C441 C 0.01603 0.53066 0.63239 0.0
C442 C 0.01409 0.54053 0.61269 0.0
C443 C 0.01276 0.5591 0.61304 0.0
H444 H 0.12625 0.10847 0.54006 0.0
N445 N 0.16405 0.08777 0.51979 0.0
H446 H 0.13647 0.12885 0.57032 0.0
H447 H 0.21499 0.08897 0.54402 0.0
H448 H 0.22557 0.10931 0.57456 0.0
H449 H 0.21624 0.10263 0.50714 0.0
H450 H 0.22239 0.12473 0.47815 0.0
H451 H 0.12554 0.09545 0.488 0.0
H452 H 0.13181 0.11688 0.45796 0.0
H453 H 0.12825 0.06367 0.5367 0.0
H454 H 0.21126 0.06925 0.50408 0.0
H455 H 0.13342 0.03139 0.53671 0.0
H456 H 0.21594 0.03685 0.50276 0.0
H457 H 0.13683 0.93637 0.53599 0.0
H458 H 0.14344 0.91559 0.56683 0.0
H459 H 0.23506 0.9306 0.57147 0.0
H460 H 0.22824 0.9512 0.54066 0.0
H461 H 0.2339 0.94741 0.50248 0.0
H462 H 0.24693 0.92701 0.47313 0.0
H463 H 0.15511 0.92241 0.45469 0.0
H464 H 0.14236 0.94203 0.48498 0.0
H465 H 0.13159 0.97545 0.51119 0.0
H466 H 0.12962 1.00788 0.51201 0.0
H467 H 0.2238 1.00984 0.52244 0.0
N468 N 0.17826 0.95492 0.51568 0.0
H469 H 0.2255 0.97733 0.52021 0.0
C470 C 0.16979 0.09731 0.53983 0.0
C471 C 0.14775 0.10833 0.54789 0.0
C472 C 0.15366 0.11992 0.56522 0.0
C473 C 0.1819 0.12076 0.57482 0.0
C474 C 0.2037 0.10911 0.56734 0.0
C475 C 0.19767 0.09742 0.55001 0.0
C476 C 0.17018 0.09762 0.49996 0.0
C477 C 0.19782 0.10545 0.4963 0.0
C478 C 0.20136 0.11805 0.47952 0.0
C479 C 0.17744 0.12289 0.46589 0.0
C480 C 0.15051 0.11385 0.46849 0.0
C481 C 0.14692 0.10144 0.48546 0.0
C482 C 0.16899 0.06885 0.52011 0.0
C483 C 0.14753 0.05786 0.52942 0.0
C484 C 0.15045 0.03939 0.52919 0.0
C485 C 0.17482 0.03139 0.5193 0.0
C486 C 0.19691 0.04249 0.51057 0.0
C487 C 0.19414 0.06107 0.51112 0.0
C488 C 0.18194 0.94526 0.53599 0.0
C489 C 0.15813 0.93545 0.54406 0.0
C490 C 0.16196 0.92364 0.56167 0.0
C491 C 0.18984 0.92136 0.57147 0.0
C492 C 0.2134 0.9319 0.56407 0.0
C493 C 0.20948 0.94378 0.5465 0.0
C494 C 0.18706 0.94596 0.49606 0.0
C495 C 0.21665 0.94215 0.49198 0.0
C496 C 0.22407 0.93055 0.47504 0.0
C497 C 0.20202 0.92276 0.46173 0.0
C498 C 0.17261 0.92773 0.46496 0.0
C499 C 0.16526 0.93911 0.48206 0.0
C500 C 0.17849 0.97403 0.51598 0.0
C501 C 0.15176 0.98295 0.51359 0.0
C502 C 0.15072 1.00149 0.51428 0.0
C503 C 0.1765 1.01159 0.51772 0.0
C504 C 0.20351 1.00257 0.51971 0.0
C505 C 0.20452 0.98393 0.5187 0.0
H506 H 0.53287 0.76772 0.12517 0.0
N507 N 0.51684 0.79825 0.10321 0.0
H508 H 0.57457 0.76432 0.15018 0.0
H509 H 0.56091 0.82113 0.10939 0.0
H510 H 0.60372 0.81759 0.13383 0.0
H511 H 0.49047 0.82201 0.12817 0.0
H512 H 0.44901 0.81709 0.15272 0.0
H513 H 0.48427 0.76763 0.10644 0.0
H514 H 0.44257 0.76258 0.13081 0.0
H515 H 0.5429 0.76903 0.08422 0.0
H516 H 0.48754 0.8144 0.07096 0.0
H517 H 0.54142 0.76129 0.04565 0.0
H518 H 0.48396 0.80595 0.03243 0.0
H519 H 0.52714 0.74268 0.91237 0.0
H520 H 0.56704 0.74721 0.88654 0.0
H521 H 0.5951 0.79378 0.92269 0.0
H522 H 0.5545 0.78976 0.94752 0.0
H523 H 0.50319 0.79579 0.92125 0.0
H524 H 0.46354 0.80285 0.8955 0.0
H525 H 0.41955 0.7537 0.91305 0.0
H526 H 0.46028 0.74639 0.93812 0.0
H527 H 0.51404 0.7423 0.97794 0.0
H528 H 0.51408 0.74967 0.01697 0.0
H529 H 0.50902 0.80563 0.99993 0.0
N530 N 0.51018 0.76441 0.94387 0.0
H531 H 0.50677 0.79793 0.96125 0.0
C532 C 0.54354 0.79485 0.11558 0.0
C533 C 0.54827 0.77865 0.1268 0.0
C534 C 0.57239 0.77665 0.141 0.0
C535 C 0.59242 0.79075 0.14422 0.0
C536 C 0.58843 0.80659 0.13208 0.0
C537 C 0.56417 0.8086 0.11797 0.0
C538 C 0.49042 0.79526 0.11556 0.0
C539 C 0.47976 0.80911 0.12846 0.0
C540 C 0.45605 0.80627 0.14239 0.0
C541 C 0.44255 0.78943 0.14375 0.0
C542 C 0.45273 0.77565 0.1303 0.0
C543 C 0.47642 0.77854 0.11629 0.0
C544 C 0.5157 0.79261 0.08056 0.0
C545 C 0.53022 0.77733 0.07311 0.0
C546 C 0.52903 0.77274 0.05088 0.0
C547 C 0.51268 0.78301 0.03565 0.0
C548 C 0.49746 0.79794 0.04338 0.0
C549 C 0.49922 0.80273 0.06548 0.0
C550 C 0.53743 0.76577 0.93193 0.0
C551 C 0.54228 0.75366 0.91494 0.0
C552 C 0.56522 0.75627 0.90021 0.0
C553 C 0.58421 0.77101 0.90232 0.0
C554 C 0.5805 0.78253 0.92021 0.0
C555 C 0.55724 0.78008 0.9347 0.0
C556 C 0.48485 0.77037 0.93141 0.0
C557 C 0.48483 0.78665 0.91982 0.0
C558 C 0.46196 0.79072 0.90514 0.0
C559 C 0.43844 0.77873 0.90192 0.0
C560 C 0.43763 0.76304 0.91469 0.0
C561 C 0.46068 0.7589 0.92919 0.0
C562 C 0.51072 0.76948 0.96669 0.0
C563 C 0.51284 0.75613 0.98276 0.0
C564 C 0.51311 0.76043 1.00507 0.0
C565 C 0.51174 0.77831 0.01183 0.0
C566 C 0.50958 0.7917 0.99556 0.0
C567 C 0.50864 0.78733 0.97328 0.0
H568 H 0.79125 0.09387 0.53979 0.0
N569 N 0.84678 0.086 0.52612 0.0
H570 H 0.77873 0.1113 0.57188 0.0
H571 H 0.88288 0.09619 0.55833 0.0
H572 H 0.87047 0.11346 0.59094 0.0
H573 H 0.88182 0.10987 0.50772 0.0
H574 H 0.86905 0.13148 0.47898 0.0
H575 H 0.79586 0.08604 0.50178 0.0
H576 H 0.78266 0.10775 0.47303 0.0
H577 H 0.80139 0.06305 0.53596 0.0
H578 H 0.88937 0.06596 0.51086 0.0
H579 H 0.80273 0.03061 0.5341 0.0
H580 H 0.89043 0.03361 0.50773 0.0
H581 H 0.8093 0.9472 0.54245 0.0
H582 H 0.805 0.92384 0.57062 0.0
H583 H 0.89737 0.91218 0.56392 0.0
H584 H 0.90098 0.93499 0.53523 0.0
H585 H 0.89374 0.94425 0.48518 0.0
H586 H 0.8838 0.92348 0.45512 0.0
H587 H 0.79297 0.92013 0.47467 0.0
H588 H 0.80298 0.94121 0.50411 0.0
H589 H 0.80708 0.97254 0.51001 0.0
H590 H 0.80302 1.00501 0.51124 0.0
H591 H 0.89465 1.00858 0.53057 0.0
N592 N 0.8573 0.95316 0.51694 0.0
H593 H 0.89865 0.97629 0.5281 0.0
C594 C 0.83813 0.09371 0.54666 0.0
C595 C 0.80865 0.09774 0.55105 0.0
C596 C 0.80148 0.10772 0.5695 0.0
C597 C 0.82363 0.1139 0.5839 0.0
C598 C 0.85294 0.10913 0.58 0.0
C599 C 0.86006 0.09913 0.56153 0.0
C600 C 0.83981 0.09651 0.50693 0.0
C601 C 0.86039 0.10911 0.49982 0.0
C602 C 0.85305 0.12139 0.48338 0.0
C603 C 0.82478 0.12136 0.47381 0.0
C604 C 0.8045 0.10819 0.48028 0.0
C605 C 0.81202 0.09577 0.49664 0.0
C606 C 0.84566 0.06693 0.52396 0.0
C607 C 0.82095 0.05675 0.52992 0.0
C608 C 0.82166 0.03812 0.52864 0.0
C609 C 0.84687 0.02937 0.52108 0.0
C610 C 0.87096 0.03976 0.51426 0.0
C611 C 0.87035 0.05828 0.51583 0.0
C612 C 0.85542 0.94254 0.5366 0.0
C613 C 0.82864 0.93976 0.54734 0.0
C614 C 0.82628 0.92648 0.56351 0.0
C615 C 0.85073 0.9159 0.56919 0.0
C616 C 0.87797 0.91978 0.55955 0.0
C617 C 0.88019 0.93291 0.54335 0.0
C618 C 0.84924 0.94424 0.49689 0.0
C619 C 0.87152 0.93944 0.48247 0.0
C620 C 0.86585 0.92743 0.4655 0.0
C621 C 0.83769 0.91989 0.46273 0.0
C622 C 0.81485 0.92573 0.47624 0.0
C623 C 0.82057 0.93781 0.49317 0.0
C624 C 0.8534 0.97208 0.51861 0.0
C625 C 0.82627 0.98035 0.51436 0.0
C626 C 0.82395 0.99894 0.51526 0.0
C627 C 0.84861 1.00953 0.52071 0.0
C628 C 0.87538 1.001 0.52568 0.0
C629 C 0.87771 0.98253 0.5245 0.0
H630 H 0.53138 0.24677 0.12069 0.0
N631 N 0.51648 0.27831 0.10063 0.0
H632 H 0.57212 0.24195 0.14631 0.0
H633 H 0.55945 0.30108 0.11075 0.0
H634 H 0.60086 0.29626 0.13632 0.0
H635 H 0.49082 0.30422 0.12263 0.0
H636 H 0.44998 0.30147 0.14828 0.0
H637 H 0.48237 0.24861 0.10669 0.0
H638 H 0.44179 0.24565 0.13264 0.0
H639 H 0.54805 0.25086 0.08157 0.0
H640 H 0.48229 0.291 0.06848 0.0
H641 H 0.54702 0.2425 0.04344 0.0
H642 H 0.47995 0.28184 0.03012 0.0
H643 H 0.54646 0.21849 0.91866 0.0
H644 H 0.58974 0.22325 0.8958 0.0
H645 H 0.59497 0.27774 0.91786 0.0
H646 H 0.5524 0.27281 0.94083 0.0
H647 H 0.50505 0.27338 0.91982 0.0
H648 H 0.46559 0.27743 0.89281 0.0
H649 H 0.43489 0.22393 0.90572 0.0
H650 H 0.47465 0.21994 0.93286 0.0
H651 H 0.52382 0.22086 0.97642 0.0
H652 H 0.52093 0.22836 0.01534 0.0
H653 H 0.50633 0.28352 0.99757 0.0
N654 N 0.51817 0.24246 0.94207 0.0
H655 H 0.50735 0.27562 0.95894 0.0
C656 C 0.54235 0.27437 0.11375 0.0
C657 C 0.5465 0.25762 0.12381 0.0
C658 C 0.57 0.25483 0.13836 0.0
C659 C 0.58968 0.26874 0.14336 0.0
C660 C 0.58591 0.28534 0.1329 0.0
C661 C 0.56247 0.28808 0.11821 0.0
C662 C 0.48973 0.27666 0.11295 0.0
C663 C 0.47974 0.29151 0.12441 0.0
C664 C 0.45644 0.28991 0.139 0.0
C665 C 0.44288 0.27331 0.14256 0.0
C666 C 0.45209 0.25855 0.13038 0.0
C667 C 0.4752 0.26022 0.11555 0.0
C668 C 0.5151 0.27174 0.07828 0.0
C669 C 0.5329 0.25777 0.07077 0.0
C670 C 0.53219 0.25282 0.04868 0.0
C671 C 0.51344 0.26147 0.0335 0.0
C672 C 0.49513 0.27508 0.04114 0.0
C673 C 0.49619 0.28022 0.06316 0.0
C674 C 0.54609 0.24517 0.93152 0.0
C675 C 0.5574 0.23133 0.91889 0.0
C676 C 0.58192 0.23413 0.9057 0.0
C677 C 0.59565 0.25093 0.90485 0.0
C678 C 0.58511 0.26459 0.91829 0.0
C679 C 0.56057 0.26177 0.93146 0.0
C680 C 0.49293 0.24623 0.9283 0.0
C681 C 0.48965 0.2626 0.91717 0.0
C682 C 0.46713 0.26488 0.90162 0.0
C683 C 0.44733 0.25094 0.89703 0.0
C684 C 0.4497 0.23495 0.90902 0.0
C685 C 0.47238 0.23263 0.92446 0.0
C686 C 0.5162 0.24762 0.96477 0.0
C687 C 0.51987 0.23454 0.98104 0.0
C688 C 0.51842 0.23891 1.00327 0.0
C689 C 0.51362 0.25661 1.00976 0.0
C690 C 0.50966 0.26971 0.99332 0.0
C691 C 0.51064 0.26524 0.97108 0.0
H692 H 0.20439 0.3774 0.36023 0.0
H693 H 0.13443 0.34739 0.32925 0.0
H694 H 0.09902 0.37013 0.33936 0.0
H695 H 0.08763 0.39811 0.3577 0.0
H696 H 0.15675 0.42795 0.38986 0.0
H697 H 0.19284 0.40576 0.37862 0.0
C698 C 0.18142 0.37595 0.35559 0.0
C699 C 0.172 0.36073 0.34407 0.0
C700 C 0.16107 0.38902 0.36169 0.0
C701 C 0.14214 0.3589 0.33833 0.0
C702 C 0.12191 0.37192 0.34402 0.0
C703 C 0.11067 0.39987 0.36199 0.0
C704 C 0.11959 0.4147 0.37441 0.0
C705 C 0.13109 0.38698 0.35578 0.0
C706 C 0.14939 0.41661 0.38031 0.0
C707 C 0.16999 0.40396 0.37387 0.0
H708 H 0.15089 0.69348 0.66615 0.0
H709 H 0.21486 0.65558 0.69012 0.0
H710 H 0.18402 0.63104 0.67702 0.0
H711 H 0.13803 0.62032 0.6598 0.0
H712 H 0.07412 0.65847 0.63628 0.0
H713 H 0.10625 0.68288 0.6475 0.0
C714 C 0.15837 0.67987 0.66819 0.0
C715 C 0.18512 0.67641 0.6792 0.0
C716 C 0.14057 0.66583 0.6606 0.0
C717 C 0.19417 0.65864 0.682 0.0
C718 C 0.17661 0.64459 0.67442 0.0
C719 C 0.13115 0.63397 0.65712 0.0
C720 C 0.10368 0.6375 0.64717 0.0
C721 C 0.14959 0.64802 0.66392 0.0
C722 C 0.0953 0.65531 0.64358 0.0
C723 C 0.11356 0.66931 0.65017 0.0
H724 H 0.88343 0.69274 0.36907 0.0
H725 H 0.83041 0.65477 0.33316 0.0
H726 H 0.86154 0.63052 0.34673 0.0
H727 H 0.90396 0.62009 0.36901 0.0
H728 H 0.95614 0.65847 0.40501 0.0
H729 H 0.9247 0.68245 0.39167 0.0
C730 C 0.87835 0.67915 0.36444 0.0
C731 C 0.85452 0.67563 0.35015 0.0
C732 C 0.89613 0.66528 0.37243 0.0
C733 C 0.84878 0.65792 0.34394 0.0
C734 C 0.86649 0.64402 0.3518 0.0
C735 C 0.90844 0.63371 0.37388 0.0
C736 C 0.93225 0.63743 0.38814 0.0
C737 C 0.89029 0.64754 0.36602 0.0
C738 C 0.93766 0.65515 0.39439 0.0
C739 C 0.91981 0.66892 0.38664 0.0
H740 H 0.88054 0.34547 0.64054 0.0
H741 H 0.84426 0.36868 0.69887 0.0
H742 H 0.87124 0.39629 0.6918 0.0
H743 H 0.90677 0.41342 0.66977 0.0
H744 H 0.94291 0.38976 0.61164 0.0
H745 H 0.91343 0.36306 0.61749 0.0
C746 C 0.878 0.35666 0.65151 0.0
C747 C 0.86043 0.35491 0.67027 0.0
C748 C 0.89346 0.3725 0.64731 0.0
C749 C 0.85797 0.36951 0.68449 0.0
C750 C 0.87327 0.38536 0.68039 0.0
C751 C 0.90812 0.40244 0.65835 0.0
C752 C 0.92706 0.40366 0.64028 0.0
C753 C 0.89141 0.38692 0.66201 0.0
C754 C 0.92823 0.38936 0.6255 0.0
C755 C 0.91158 0.37398 0.62894 0.0
H756 H 0.16994 0.19522 0.41279 0.0
H757 H 0.25944 0.18148 0.39793 0.0
H758 H 0.25387 0.15322 0.41765 0.0
H759 H 0.22425 0.13309 0.44067 0.0
H760 H 0.13582 0.14818 0.45732 0.0
H761 H 0.14028 0.17505 0.43515 0.0
C762 C 0.18832 0.18611 0.41397 0.0
C763 C 0.21513 0.19056 0.40403 0.0
C764 C 0.18513 0.17004 0.42559 0.0
C765 C 0.23847 0.17836 0.40529 0.0
C766 C 0.23536 0.16224 0.41667 0.0
C767 C 0.20596 0.14226 0.4395 0.0
C768 C 0.17971 0.13847 0.45069 0.0
C769 C 0.20888 0.15803 0.42712 0.0
C770 C 0.15611 0.15044 0.44862 0.0
C771 C 0.15872 0.16598 0.4361 0.0
H772 H 0.35548 0.80472 0.82417 0.0
H773 H 0.35398 0.74825 0.81126 0.0
H774 H 0.38465 0.74286 0.84367 0.0
H775 H 0.41394 0.75421 0.87446 0.0
H776 H 0.41353 0.81043 0.88885 0.0
H777 H 0.38134 0.81582 0.85711 0.0
C778 C 0.3614 0.7912 0.82862 0.0
C779 C 0.35267 0.77696 0.81504 0.0
C780 C 0.37882 0.78813 0.8475 0.0
C781 C 0.36091 0.75954 0.82104 0.0
C782 C 0.37831 0.75641 0.83969 0.0
C783 C 0.40633 0.76762 0.87104 0.0
C784 C 0.41634 0.78189 0.88407 0.0
C785 C 0.38768 0.77062 0.85287 0.0
C786 C 0.40661 0.7992 0.87895 0.0
C787 C 0.38808 0.8023 0.86084 0.0
H788 H 0.7956 0.85697 0.40111 0.0
H789 H 0.87993 0.83616 0.42164 0.0
H790 H 0.88989 0.86312 0.44256 0.0
H791 H 0.87398 0.89193 0.4563 0.0
H792 H 0.79026 0.91336 0.4355 0.0
H793 H 0.78085 0.88686 0.41327 0.0
C794 C 0.81632 0.85843 0.40992 0.0
C795 C 0.83685 0.84445 0.40995 0.0
C796 C 0.82201 0.87406 0.42189 0.0
C797 C 0.86346 0.84653 0.42167 0.0
C798 C 0.86929 0.862 0.43353 0.0
C799 C 0.85392 0.89103 0.44655 0.0
C800 C 0.83292 0.90468 0.44753 0.0
C801 C 0.84863 0.87577 0.43392 0.0
C802 C 0.80673 0.90301 0.43518 0.0
C803 C 0.80135 0.88787 0.42244 0.0
H804 H 0.70191 0.27657 0.84638 0.0
H805 H 0.65314 0.24677 0.7976 0.0
H806 H 0.61707 0.2382 0.82506 0.0
H807 H 0.59811 0.24026 0.86239 0.0
H808 H 0.64637 0.27013 0.91136 0.0
H809 H 0.68363 0.27783 0.88426 0.0
C810 C 0.68333 0.26826 0.84176 0.0
C811 C 0.68026 0.26233 0.81996 0.0
C812 C 0.66249 0.26346 0.85762 0.0
C813 C 0.65626 0.25135 0.81431 0.0
C814 C 0.6355 0.24652 0.82997 0.0
C815 C 0.61703 0.2482 0.86727 0.0
C816 C 0.61944 0.25458 0.8889 0.0
C817 C 0.63831 0.25258 0.85163 0.0
C818 C 0.64383 0.26517 0.89477 0.0
C819 C 0.66519 0.26954 0.8793 0.0
H820 H 0.18717 0.85879 0.64132 0.0
H821 H 0.26559 0.84425 0.60678 0.0
H822 H 0.26187 0.87117 0.58424 0.0
H823 H 0.23464 0.89774 0.57273 0.0
H824 H 0.15567 0.91224 0.60659 0.0
H825 H 0.16135 0.88649 0.6311 0.0
C826 C 0.20366 0.86168 0.62908 0.0
C827 C 0.22651 0.8495 0.62562 0.0
C828 C 0.2012 0.87711 0.61599 0.0
C829 C 0.24757 0.8533 0.60954 0.0
C830 C 0.24551 0.86871 0.5967 0.0
C831 C 0.21899 0.89548 0.58576 0.0
C832 C 0.1948 0.9069 0.58785 0.0
C833 C 0.22218 0.88056 0.59955 0.0
C834 C 0.17438 0.90357 0.60454 0.0
C835 C 0.17763 0.88887 0.61857 0.0
H836 H 0.68634 0.77128 0.21784 0.0
H837 H 0.67155 0.82624 0.2347 0.0
H838 H 0.63781 0.82945 0.20357 0.0
H839 H 0.61073 0.81637 0.17268 0.0
H840 H 0.62679 0.76184 0.15457 0.0
H841 H 0.66196 0.75882 0.18501 0.0
C842 C 0.6761 0.78404 0.21453 0.0
C843 C 0.68127 0.79842 0.22882 0.0
C844 C 0.65685 0.78587 0.19641 0.0
C845 C 0.66751 0.81481 0.22433 0.0
C846 C 0.64834 0.81671 0.20641 0.0
C847 C 0.62235 0.80392 0.17504 0.0
C848 C 0.61597 0.78935 0.16134 0.0
C849 C 0.6426 0.80229 0.1925 0.0
C850 C 0.6309 0.77321 0.16503 0.0
C851 C 0.65112 0.77149 0.18239 0.0
H852 H 0.7716 0.16238 0.65828 0.0
H853 H 0.84868 0.19354 0.64291 0.0
H854 H 0.86329 0.17142 0.61605 0.0
H855 H 0.85342 0.14375 0.59609 0.0
H856 H 0.77706 0.11215 0.61195 0.0
H857 H 0.76309 0.13387 0.63962 0.0
C858 C 0.79181 0.16423 0.64929 0.0
C859 C 0.8089 0.17969 0.65256 0.0
C860 C 0.80021 0.15139 0.63394 0.0
C861 C 0.83481 0.18195 0.64048 0.0
C862 C 0.84331 0.16924 0.62521 0.0
C863 C 0.834 0.14143 0.60587 0.0
C864 C 0.81633 0.12633 0.60194 0.0
C865 C 0.82607 0.15397 0.6217 0.0
C866 C 0.7909 0.12375 0.61447 0.0
C867 C 0.78294 0.13613 0.63034 0.0
H868 H 0.34536 0.27769 0.21522 0.0
H869 H 0.39279 0.23189 0.23977 0.0
H870 H 0.42509 0.23314 0.20816 0.0
H871 H 0.44128 0.24792 0.17432 0.0
H872 H 0.39545 0.29443 0.15043 0.0
H873 H 0.36134 0.29235 0.18112 0.0
C874 C 0.3629 0.26806 0.21376 0.0
C875 C 0.36654 0.2547 0.22989 0.0
C876 C 0.38172 0.26899 0.19565 0.0
C877 C 0.38914 0.24217 0.22749 0.0
C878 C 0.40777 0.24292 0.20946 0.0
C879 C 0.42353 0.25743 0.17566 0.0
C880 C 0.42077 0.27125 0.1601 0.0
C881 C 0.40434 0.25631 0.1935 0.0
C882 C 0.39805 0.2837 0.16227 0.0
C883 C 0.37857 0.28252 0.1798 0.0
H884 H 0.85381 0.66402 0.71417 0.0
H885 H 0.85657 0.69434 0.65372 0.0
H886 H 0.88786 0.67185 0.63744 0.0
H887 H 0.91631 0.64436 0.64091 0.0
H888 H 0.91238 0.61343 0.70082 0.0
H889 H 0.87943 0.63534 0.71668 0.0
C890 C 0.86083 0.66559 0.69731 0.0
C891 C 0.853 0.68097 0.68529 0.0
C892 C 0.8787 0.65253 0.68796 0.0
C893 C 0.8627 0.68284 0.66354 0.0
C894 C 0.88046 0.66992 0.65414 0.0
C895 C 0.90779 0.64218 0.65727 0.0
C896 C 0.91692 0.62726 0.66965 0.0
C897 C 0.88886 0.65481 0.66628 0.0
C898 C 0.90605 0.6249 0.69101 0.0
C899 C 0.88713 0.6374 0.70007 0.0
H900 H 0.86756 0.37336 0.33345 0.0
H901 H 0.83785 0.36112 0.39887 0.0
H902 H 0.87083 0.38389 0.41396 0.0
H903 H 0.90903 0.40677 0.40859 0.0
H904 H 0.93947 0.41814 0.34304 0.0
H905 H 0.90457 0.39665 0.32798 0.0
C906 C 0.86795 0.37585 0.35098 0.0
C907 C 0.85027 0.36555 0.365 0.0
C908 C 0.887 0.38889 0.35953 0.0
C909 C 0.85147 0.36873 0.38773 0.0
C910 C 0.87023 0.3818 0.39636 0.0
C911 C 0.90809 0.40453 0.39101 0.0
C912 C 0.92687 0.41415 0.37702 0.0
C913 C 0.88832 0.39184 0.38243 0.0
C914 C 0.92499 0.41121 0.35423 0.0
C915 C 0.90521 0.39877 0.34558 0.0
H916 H 0.16617 0.36835 0.7092 0.0
H917 H 0.21096 0.36473 0.64737 0.0
H918 H 0.18 0.38833 0.63199 0.0
H919 H 0.13923 0.40932 0.63577 0.0
H920 H 0.09305 0.41192 0.6972 0.0
H921 H 0.12623 0.3899 0.71327 0.0
C922 C 0.16941 0.37289 0.69245 0.0
C923 C 0.19077 0.36475 0.67943 0.0
C924 C 0.15141 0.38638 0.68367 0.0
C925 C 0.19442 0.37062 0.65765 0.0
C926 C 0.17682 0.38417 0.64888 0.0
C927 C 0.13633 0.40504 0.65266 0.0
C928 C 0.11356 0.41231 0.66519 0.0
C929 C 0.15502 0.392 0.66167 0.0
C930 C 0.11058 0.40682 0.6872 0.0
C931 C 0.12939 0.39406 0.69637 0.0
H932 H 0.19076 0.68611 0.39917 0.0
H933 H 0.13441 0.70362 0.34583 0.0
H934 H 0.10267 0.6777 0.35113 0.0
H935 H 0.08968 0.65096 0.37188 0.0
H936 H 0.14655 0.63256 0.42452 0.0
H937 H 0.17901 0.65814 0.4188 0.0
C938 C 0.17151 0.68421 0.38874 0.0
C939 C 0.16491 0.69675 0.37214 0.0
C940 C 0.15336 0.66922 0.39184 0.0
C941 C 0.14011 0.69406 0.35857 0.0
C942 C 0.12187 0.6793 0.36166 0.0
C943 C 0.10947 0.65227 0.38184 0.0
C944 C 0.11557 0.63977 0.39861 0.0
C945 C 0.12819 0.66687 0.37831 0.0
C946 C 0.14103 0.64205 0.41167 0.0
C947 C 0.15971 0.65665 0.40835 0.0
H948 H 0.84825 0.84104 0.61659 0.0
H949 H 0.7936 0.86953 0.66172 0.0
H950 H 0.79884 0.89664 0.63952 0.0
H951 H 0.81954 0.91231 0.60728 0.0
H952 H 0.87417 0.88319 0.56265 0.0
H953 H 0.86897 0.85645 0.58503 0.0
C954 C 0.8378 0.85323 0.6218 0.0
C955 C 0.82072 0.85325 0.64089 0.0
C956 C 0.84107 0.86873 0.60911 0.0
C957 C 0.80671 0.86909 0.64701 0.0
C958 C 0.80982 0.88462 0.63439 0.0
C959 C 0.83023 0.9001 0.60246 0.0
C960 C 0.84751 0.89987 0.58343 0.0
C961 C 0.82697 0.8846 0.61537 0.0
C962 C 0.86129 0.88391 0.57746 0.0
C963 C 0.85814 0.86853 0.59015 0.0
H964 H 0.68497 0.24428 0.21342 0.0
H965 H 0.66188 0.29484 0.24158 0.0
H966 H 0.62894 0.30092 0.21053 0.0
H967 H 0.60449 0.29116 0.17652 0.0
H968 H 0.62647 0.24031 0.14873 0.0
H969 H 0.66171 0.23495 0.17868 0.0
C970 C 0.67264 0.2566 0.2128 0.0
C971 C 0.67587 0.26905 0.22985 0.0
C972 C 0.65342 0.25992 0.19504 0.0
C973 C 0.6601 0.2851 0.22859 0.0
C974 C 0.6411 0.28855 0.2109 0.0
C975 C 0.61736 0.27904 0.17681 0.0
C976 C 0.61286 0.26615 0.16044 0.0
C977 C 0.63738 0.27599 0.19415 0.0
C978 C 0.62934 0.25037 0.16126 0.0
C979 C 0.64952 0.24731 0.17834 0.0
H980 H 0.18519 0.18393 0.64255 0.0
H981 H 0.26733 0.19432 0.6102 0.0
H982 H 0.26132 0.16712 0.58874 0.0
H983 H 0.23065 0.14183 0.57696 0.0
H984 H 0.14842 0.13148 0.60928 0.0
H985 H 0.15645 0.15727 0.63287 0.0
C986 C 0.20179 0.1802 0.63083 0.0
C987 C 0.22653 0.19119 0.62783 0.0
C988 C 0.1981 0.16461 0.61846 0.0
C989 C 0.24815 0.18604 0.61288 0.0
C990 C 0.24465 0.17054 0.60053 0.0
C991 C 0.2148 0.14496 0.58949 0.0
C992 C 0.18885 0.1348 0.59122 0.0
C993 C 0.21947 0.15988 0.60292 0.0
C994 C 0.16837 0.13923 0.60738 0.0
C995 C 0.17296 0.15396 0.6209 0.0
H996 H 0.34038 0.78886 0.21304 0.0
H997 H 0.38159 0.73908 0.23078 0.0
H998 H 0.41636 0.74274 0.20087 0.0
H999 H 0.43669 0.7608 0.1709 0.0
H1000 H 0.39597 0.81076 0.15337 0.0
H1001 H 0.35966 0.80644 0.18218 0.0
C1002 C 0.35705 0.77885 0.21041 0.0
C1003 C 0.35841 0.76375 0.22417 0.0
C1004 C 0.37716 0.78111 0.19329 0.0
C1005 C 0.37984 0.75075 0.2203 0.0
C1006 C 0.39986 0.75288 0.20327 0.0
C1007 C 0.41957 0.7706 0.17313 0.0
C1008 C 0.41908 0.7861 0.16002 0.0
C1009 C 0.39886 0.76807 0.18978 0.0
C1010 C 0.39704 0.79881 0.1634 0.0
C1011 C 0.37623 0.79633 0.17983 0.0
H1012 H 0.77693 0.19016 0.42574 0.0
H1013 H 0.85885 0.18488 0.39157 0.0
H1014 H 0.86877 0.15694 0.41103 0.0
H1015 H 0.8558 0.13513 0.43966 0.0
H1016 H 0.77421 0.14067 0.47422 0.0
H1017 H 0.76233 0.1672 0.45252 0.0
C1018 C 0.7969 0.18284 0.42253 0.0
C1019 C 0.81723 0.18963 0.40739 0.0
C1020 C 0.8025 0.16683 0.43383 0.0
C1021 C 0.84278 0.17988 0.40308 0.0
C1022 C 0.84854 0.16395 0.41428 0.0
C1023 C 0.83533 0.1421 0.44232 0.0
C1024 C 0.816 0.136 0.4586 0.0
C1025 C 0.8288 0.15747 0.42996 0.0
C1026 C 0.78935 0.14499 0.46166 0.0
C1027 C 0.78266 0.16026 0.44939 0.0
H1028 H 0.34459 0.24815 0.82632 0.0
H1029 H 0.41344 0.26933 0.78555 0.0
H1030 H 0.447 0.27006 0.81719 0.0
H1031 H 0.45739 0.26347 0.856 0.0
H1032 H 0.38913 0.2416 0.89676 0.0
H1033 H 0.35461 0.24241 0.86559 0.0
C1034 C 0.36684 0.25313 0.82446 0.0
C1035 C 0.37657 0.25865 0.80364 0.0
C1036 C 0.3861 0.25332 0.84268 0.0
C1037 C 0.40556 0.26484 0.80137 0.0
C1038 C 0.42471 0.26531 0.81946 0.0
C1039 C 0.43482 0.25915 0.85814 0.0
C1040 C 0.42576 0.25256 0.87865 0.0
C1041 C 0.4153 0.25943 0.84012 0.0
C1042 C 0.39663 0.24665 0.88108 0.0
C1043 C 0.37691 0.24714 0.86329 0.0
H1044 H 0.21592 0.85527 0.40137 0.0
H1045 H 0.29684 0.88216 0.38507 0.0
H1046 H 0.28395 0.90687 0.40897 0.0
H1047 H 0.25 0.92062 0.43503 0.0
H1048 H 0.17061 0.89254 0.45274 0.0
H1049 H 0.18261 0.86865 0.42769 0.0
C1050 C 0.23094 0.86642 0.40321 0.0
C1051 C 0.25737 0.86677 0.39147 0.0
C1052 C 0.22359 0.88048 0.41716 0.0
C1053 C 0.27621 0.88158 0.39372 0.0
C1054 C 0.26893 0.89569 0.40748 0.0
C1055 C 0.23539 0.90923 0.43353 0.0
C1056 C 0.20929 0.90855 0.44572 0.0
C1057 C 0.24271 0.89525 0.41936 0.0
C1058 C 0.19051 0.89372 0.44327 0.0
C1059 C 0.19748 0.87991 0.42908 0.0
H1060 H 0.66641 0.8008 0.82757 0.0
H1061 H 0.68042 0.74459 0.8179 0.0
H1062 H 0.6497 0.73773 0.84943 0.0
H1063 H 0.61739 0.74761 0.87893 0.0
H1064 H 0.60026 0.80376 0.88638 0.0
H1065 H 0.63385 0.81063 0.85673 0.0
C1066 C 0.66255 0.78702 0.83219 0.0
C1067 C 0.67571 0.77326 0.82026 0.0
C1068 C 0.64438 0.78313 0.85006 0.0
C1069 C 0.67093 0.7555 0.82689 0.0
C1070 C 0.65317 0.75154 0.84485 0.0
C1071 C 0.62082 0.76135 0.87402 0.0
C1072 C 0.60624 0.7751 0.88506 0.0
C1073 C 0.63957 0.76524 0.85644 0.0
C1074 C 0.61151 0.79286 0.87861 0.0
C1075 C 0.63053 0.79683 0.86143 0.0
loop_
_geom_bond_atom_site_label_1
_geom_bond_atom_site_label_2
_geom_bond_distance
_geom_bond_site_symmetry_2
_ccdc_geom_bond_type
C0 C1 1.264 . S
C0 C5 1.479 . S
C0 C10 1.465 . S
C1 C0 1.264 . S
C1 C3 1.339 . S
C1 H28 0.931 . S
C2 C3 1.395 . S
C2 C4 1.320 . S
C3 C1 1.339 . S
C3 C2 1.395 . S
C3 H29 0.929 . S
C4 C2 1.320 . S
C4 C5 1.405 . S
C4 H30 0.930 . S
C5 C0 1.479 . S
C5 C4 1.405 . S
C5 H31 0.931 . S
U6 O7 2.454 . S
U6 O8 2.458 . S
U6 C9 2.984 . S
U6 C10 2.847 . S
U6 C23 2.882 . S
U6 O24 2.441 . S
U6 O25 2.420 . S
U6 O26 2.455 . S
U6 O27 2.449 . S
O7 U6 2.454 . S
O7 C9 1.353 . S
O8 U6 2.458 . S
O8 C9 1.286 . S
C9 U6 2.984 . S
C9 O7 1.353 . S
C9 O8 1.286 . S
C9 C11 1.363 . S
C10 C0 1.465 . S
C10 U6 2.847 . S
C10 O24 1.249 . S
C10 O25 1.202 . S
C11 C9 1.363 . S
C11 C13 1.408 . S
C11 C16 1.342 . S
C12 C13 1.310 . S
C12 C15 1.461 . S
C12 H32 0.932 . S
C13 C11 1.408 . S
C13 C12 1.310 . S
C13 H33 0.930 . S
C14 C15 1.474 . S
C14 C16 1.285 . S
C14 H34 0.929 . S
C15 C12 1.461 . S
C15 C14 1.474 . S
C16 C11 1.342 . S
C16 C14 1.285 . S
C16 H35 0.930 . S
C17 C20 1.424 . S
C17 C22 1.245 . S
C17 C23 1.428 . S
C18 C21 1.260 . S
C18 C22 1.477 . S
C18 H36 0.932 . S
C19 C20 1.384 . S
C19 C21 1.479 . S
C19 H37 0.929 . S
C20 C17 1.424 . S
C20 C19 1.384 . S
C20 H38 0.928 . S
C21 C18 1.260 . S
C21 C19 1.479 . S
C22 C17 1.245 . S
C22 C18 1.477 . S
C22 H39 0.932 . S
C23 U6 2.882 . S
C23 C17 1.428 . S
C23 O26 1.301 . S
C23 O27 1.282 . S
O24 U6 2.441 . S
O24 C10 1.249 . S
O25 U6 2.420 . S
O25 C10 1.202 . S
O26 U6 2.455 . S
O26 C23 1.301 . S
O27 U6 2.449 . S
O27 C23 1.282 . S
H28 C1 0.931 . S
H29 C3 0.929 . S
H30 C4 0.930 . S
H31 C5 0.931 . S
H32 C12 0.932 . S
H33 C13 0.930 . S
H34 C14 0.929 . S
H35 C16 0.930 . S
H36 C18 0.932 . S
H37 C19 0.929 . S
H38 C20 0.928 . S
H39 C22 0.932 . S
C40 C41 1.264 . S
C40 C45 1.479 . S
C40 C50 1.465 . S
C41 C40 1.264 . S
C41 C43 1.339 . S
C41 H68 0.931 . S
C42 C43 1.395 . S
C42 C44 1.320 . S
C43 C41 1.339 . S
C43 C42 1.395 . S
C43 H69 0.929 . S
C44 C42 1.320 . S
C44 C45 1.405 . S
C44 H70 0.930 . S
C45 C40 1.479 . S
C45 C44 1.405 . S
C45 H71 0.931 . S
U46 O47 2.454 . S
U46 O48 2.458 . S
U46 C49 2.984 . S
U46 C50 2.847 . S
U46 C63 2.882 . S
U46 O64 2.441 . S
U46 O65 2.420 . S
U46 O66 2.455 . S
U46 O67 2.449 . S
O47 U46 2.454 . S
O47 C49 1.353 . S
O48 U46 2.458 . S
O48 C49 1.286 . S
C49 U46 2.984 . S
C49 O47 1.353 . S
C49 O48 1.286 . S
C49 C51 1.363 . S
C50 C40 1.465 . S
C50 U46 2.847 . S
C50 O64 1.249 . S
C50 O65 1.202 . S
C51 C49 1.363 . S
C51 C53 1.408 . S
C51 C56 1.342 . S
C52 C53 1.310 . S
C52 C55 1.461 . S
C52 H72 0.932 . S
C53 C51 1.408 . S
C53 C52 1.310 . S
C53 H73 0.930 . S
C54 C55 1.474 . S
C54 C56 1.285 . S
C54 H74 0.929 . S
C55 C52 1.461 . S
C55 C54 1.474 . S
C56 C51 1.342 . S
C56 C54 1.285 . S
C56 H75 0.930 . S
C57 C60 1.424 . S
C57 C62 1.245 . S
C57 C63 1.428 . S
C58 C61 1.260 . S
C58 C62 1.477 . S
C58 H76 0.932 . S
C59 C60 1.384 . S
C59 C61 1.479 . S
C59 H77 0.929 . S
C60 C57 1.424 . S
C60 C59 1.384 . S
C60 H78 0.928 . S
C61 C58 1.260 . S
C61 C59 1.479 . S
C62 C57 1.245 . S
C62 C58 1.477 . S
C62 H79 0.932 . S
C63 U46 2.882 . S
C63 C57 1.428 . S
C63 O66 1.301 . S
C63 O67 1.282 . S
O64 U46 2.441 . S
O64 C50 1.249 . S
O65 U46 2.420 . S
O65 C50 1.202 . S
O66 U46 2.455 . S
O66 C63 1.301 . S
O67 U46 2.449 . S
O67 C63 1.282 . S
H68 C41 0.931 . S
H69 C43 0.929 . S
H70 C44 0.930 . S
H71 C45 0.931 . S
H72 C52 0.932 . S
H73 C53 0.930 . S
H74 C54 0.929 . S
H75 C56 0.930 . S
H76 C58 0.932 . S
H77 C59 0.929 . S
H78 C60 0.928 . S
H79 C62 0.932 . S
C80 C81 1.264 . S
C80 C85 1.479 . S
C80 C90 1.465 . S
C81 C80 1.264 . S
C81 C83 1.339 . S
C81 H108 0.931 . S
C82 C83 1.395 . S
C82 C84 1.320 . S
C83 C81 1.339 . S
C83 C82 1.395 . S
C83 H109 0.929 . S
C84 C82 1.320 . S
C84 C85 1.405 . S
C84 H110 0.930 . S
C85 C80 1.479 . S
C85 C84 1.405 . S
C85 H111 0.931 . S
U86 O87 2.454 . S
U86 O88 2.458 . S
U86 C89 2.984 . S
U86 C90 2.847 . S
U86 C103 2.882 . S
U86 O104 2.441 . S
U86 O105 2.420 . S
U86 O106 2.455 . S
U86 O107 2.449 . S
O87 U86 2.454 . S
O87 C89 1.353 . S
O88 U86 2.458 . S
O88 C89 1.286 . S
C89 U86 2.984 . S
C89 O87 1.353 . S
C89 O88 1.286 . S
C89 C91 1.363 . S
C90 C80 1.465 . S
C90 U86 2.847 . S
C90 O104 1.249 . S
C90 O105 1.202 . S
C91 C89 1.363 . S
C91 C93 1.408 . S
C91 C96 1.342 . S
C92 C93 1.310 . S
C92 C95 1.461 . S
C92 H112 0.932 . S
C93 C91 1.408 . S
C93 C92 1.310 . S
C93 H113 0.930 . S
C94 C95 1.474 . S
C94 C96 1.285 . S
C94 H114 0.929 . S
C95 C92 1.461 . S
C95 C94 1.474 . S
C96 C91 1.342 . S
C96 C94 1.285 . S
C96 H115 0.930 . S
C97 C100 1.424 . S
C97 C102 1.245 . S
C97 C103 1.428 . S
C98 C101 1.260 . S
C98 C102 1.477 . S
C98 H116 0.932 . S
C99 C100 1.384 . S
C99 C101 1.479 . S
C99 H117 0.929 . S
C100 C97 1.424 . S
C100 C99 1.384 . S
C100 H118 0.928 . S
C101 C98 1.260 . S
C101 C99 1.479 . S
C102 C97 1.245 . S
C102 C98 1.477 . S
C102 H119 0.932 . S
C103 U86 2.882 . S
C103 C97 1.428 . S
C103 O106 1.301 . S
C103 O107 1.282 . S
O104 U86 2.441 . S
O104 C90 1.249 . S
O105 U86 2.420 . S
O105 C90 1.202 . S
O106 U86 2.455 . S
O106 C103 1.301 . S
O107 U86 2.449 . S
O107 C103 1.282 . S
H108 C81 0.931 . S
H109 C83 0.929 . S
H110 C84 0.930 . S
H111 C85 0.931 . S
H112 C92 0.932 . S
H113 C93 0.930 . S
H114 C94 0.929 . S
H115 C96 0.930 . S
H116 C98 0.932 . S
H117 C99 0.929 . S
H118 C100 0.928 . S
H119 C102 0.932 . S
C120 C121 1.264 . S
C120 C125 1.479 . S
C120 C130 1.465 . S
C121 C120 1.264 . S
C121 C123 1.339 . S
C121 H148 0.931 . S
C122 C123 1.395 . S
C122 C124 1.320 . S
C123 C121 1.339 . S
C123 C122 1.395 . S
C123 H149 0.929 . S
C124 C122 1.320 . S
C124 C125 1.405 . S
C124 H150 0.930 . S
C125 C120 1.479 . S
C125 C124 1.405 . S
C125 H151 0.931 . S
U126 O127 2.454 . S
U126 O128 2.458 . S
U126 C129 2.984 . S
U126 C130 2.847 . S
U126 C143 2.882 . S
U126 O144 2.441 . S
U126 O145 2.420 . S
U126 O146 2.455 . S
U126 O147 2.449 . S
O127 U126 2.454 . S
O127 C129 1.353 . S
O128 U126 2.458 . S
O128 C129 1.286 . S
C129 U126 2.984 . S
C129 O127 1.353 . S
C129 O128 1.286 . S
C129 C131 1.363 . S
C130 C120 1.465 . S
C130 U126 2.847 . S
C130 O144 1.249 . S
C130 O145 1.202 . S
C131 C129 1.363 . S
C131 C133 1.408 . S
C131 C136 1.342 . S
C132 C133 1.310 . S
C132 C135 1.461 . S
C132 H152 0.932 . S
C133 C131 1.408 . S
C133 C132 1.310 . S
C133 H153 0.930 . S
C134 C135 1.474 . S
C134 C136 1.285 . S
C134 H154 0.929 . S
C135 C132 1.461 . S
C135 C134 1.474 . S
C136 C131 1.342 . S
C136 C134 1.285 . S
C136 H155 0.930 . S
C137 C140 1.424 . S
C137 C142 1.245 . S
C137 C143 1.428 . S
C138 C141 1.260 . S
C138 C142 1.477 . S
C138 H156 0.932 . S
C139 C140 1.384 . S
C139 C141 1.479 . S
C139 H157 0.929 . S
C140 C137 1.424 . S
C140 C139 1.384 . S
C140 H158 0.928 . S
C141 C138 1.260 . S
C141 C139 1.479 . S
C142 C137 1.245 . S
C142 C138 1.477 . S
C142 H159 0.932 . S
C143 U126 2.882 . S
C143 C137 1.428 . S
C143 O146 1.301 . S
C143 O147 1.282 . S
O144 U126 2.441 . S
O144 C130 1.249 . S
O145 U126 2.420 . S
O145 C130 1.202 . S
O146 U126 2.455 . S
O146 C143 1.301 . S
O147 U126 2.449 . S
O147 C143 1.282 . S
H148 C121 0.931 . S
H149 C123 0.929 . S
H150 C124 0.930 . S
H151 C125 0.931 . S
H152 C132 0.932 . S
H153 C133 0.930 . S
H154 C134 0.929 . S
H155 C136 0.930 . S
H156 C138 0.932 . S
H157 C139 0.929 . S
H158 C140 0.928 . S
H159 C142 0.932 . S
C160 C161 1.264 . S
C160 C165 1.479 . S
C160 C170 1.465 . S
C161 C160 1.264 . S
C161 C163 1.339 . S
C161 H188 0.931 . S
C162 C163 1.395 . S
C162 C164 1.320 . S
C163 C161 1.339 . S
C163 C162 1.395 . S
C163 H189 0.929 . S
C164 C162 1.320 . S
C164 C165 1.405 . S
C164 H190 0.930 . S
C165 C160 1.479 . S
C165 C164 1.405 . S
C165 H191 0.931 . S
U166 O167 2.454 . S
U166 O168 2.458 . S
U166 C169 2.984 . S
U166 C170 2.847 . S
U166 C183 2.882 . S
U166 O184 2.441 . S
U166 O185 2.420 . S
U166 O186 2.455 . S
U166 O187 2.449 . S
O167 U166 2.454 . S
O167 C169 1.353 . S
O168 U166 2.458 . S
O168 C169 1.286 . S
C169 U166 2.984 . S
C169 O167 1.353 . S
C169 O168 1.286 . S
C169 C171 1.363 . S
C170 C160 1.465 . S
C170 U166 2.847 . S
C170 O184 1.249 . S
C170 O185 1.202 . S
C171 C169 1.363 . S
C171 C173 1.408 . S
C171 C176 1.342 . S
C172 C173 1.310 . S
C172 C175 1.461 . S
C172 H192 0.932 . S
C173 C171 1.408 . S
C173 C172 1.310 . S
C173 H193 0.930 . S
C174 C175 1.474 . S
C174 C176 1.285 . S
C174 H194 0.929 . S
C175 C172 1.461 . S
C175 C174 1.474 . S
C176 C171 1.342 . S
C176 C174 1.285 . S
C176 H195 0.930 . S
C177 C180 1.424 . S
C177 C182 1.245 . S
C177 C183 1.428 . S
C178 C181 1.260 . S
C178 C182 1.477 . S
C178 H196 0.932 . S
C179 C180 1.384 . S
C179 C181 1.479 . S
C179 H197 0.929 . S
C180 C177 1.424 . S
C180 C179 1.384 . S
C180 H198 0.928 . S
C181 C178 1.260 . S
C181 C179 1.479 . S
C182 C177 1.245 . S
C182 C178 1.477 . S
C182 H199 0.932 . S
C183 U166 2.882 . S
C183 C177 1.428 . S
C183 O186 1.301 . S
C183 O187 1.282 . S
O184 U166 2.441 . S
O184 C170 1.249 . S
O185 U166 2.420 . S
O185 C170 1.202 . S
O186 U166 2.455 . S
O186 C183 1.301 . S
O187 U166 2.449 . S
O187 C183 1.282 . S
H188 C161 0.931 . S
H189 C163 0.929 . S
H190 C164 0.930 . S
H191 C165 0.931 . S
H192 C172 0.932 . S
H193 C173 0.930 . S
H194 C174 0.929 . S
H195 C176 0.930 . S
H196 C178 0.932 . S
H197 C179 0.929 . S
H198 C180 0.928 . S
H199 C182 0.932 . S
C200 C201 1.264 . S
C200 C205 1.479 . S
C200 C210 1.465 . S
C201 C200 1.264 . S
C201 C203 1.339 . S
C201 H228 0.931 . S
C202 C203 1.395 . S
C202 C204 1.320 . S
C203 C201 1.339 . S
C203 C202 1.395 . S
C203 H229 0.929 . S
C204 C202 1.320 . S
C204 C205 1.405 . S
C204 H230 0.930 . S
C205 C200 1.479 . S
C205 C204 1.405 . S
C205 H231 0.931 . S
U206 O207 2.454 . S
U206 O208 2.458 . S
U206 C209 2.984 . S
U206 C210 2.847 . S
U206 C223 2.882 . S
U206 O224 2.441 . S
U206 O225 2.420 . S
U206 O226 2.455 . S
U206 O227 2.449 . S
O207 U206 2.454 . S
O207 C209 1.353 . S
O208 U206 2.458 . S
O208 C209 1.286 . S
C209 U206 2.984 . S
C209 O207 1.353 . S
C209 O208 1.286 . S
C209 C211 1.363 . S
C210 C200 1.465 . S
C210 U206 2.847 . S
C210 O224 1.249 . S
C210 O225 1.202 . S
C211 C209 1.363 . S
C211 C213 1.408 . S
C211 C216 1.342 . S
C212 C213 1.310 . S
C212 C215 1.461 . S
C212 H232 0.932 . S
C213 C211 1.408 . S
C213 C212 1.310 . S
C213 H233 0.930 . S
C214 C215 1.474 . S
C214 C216 1.285 . S
C214 H234 0.929 . S
C215 C212 1.461 . S
C215 C214 1.474 . S
C216 C211 1.342 . S
C216 C214 1.285 . S
C216 H235 0.930 . S
C217 C220 1.424 . S
C217 C222 1.245 . S
C217 C223 1.428 . S
C218 C221 1.260 . S
C218 C222 1.477 . S
C218 H236 0.932 . S
C219 C220 1.384 . S
C219 C221 1.479 . S
C219 H237 0.929 . S
C220 C217 1.424 . S
C220 C219 1.384 . S
C220 H238 0.928 . S
C221 C218 1.260 . S
C221 C219 1.479 . S
C222 C217 1.245 . S
C222 C218 1.477 . S
C222 H239 0.932 . S
C223 U206 2.882 . S
C223 C217 1.428 . S
C223 O226 1.301 . S
C223 O227 1.282 . S
O224 U206 2.441 . S
O224 C210 1.249 . S
O225 U206 2.420 . S
O225 C210 1.202 . S
O226 U206 2.455 . S
O226 C223 1.301 . S
O227 U206 2.449 . S
O227 C223 1.282 . S
H228 C201 0.931 . S
H229 C203 0.929 . S
H230 C204 0.930 . S
H231 C205 0.931 . S
H232 C212 0.932 . S
H233 C213 0.930 . S
H234 C214 0.929 . S
H235 C216 0.930 . S
H236 C218 0.932 . S
H237 C219 0.929 . S
H238 C220 0.928 . S
H239 C222 0.932 . S
C240 C241 1.264 . S
C240 C245 1.479 . S
C240 C250 1.465 . S
C241 C240 1.264 . S
C241 C243 1.339 . S
C241 H268 0.931 . S
C242 C243 1.395 . S
C242 C244 1.320 . S
C243 C241 1.339 . S
C243 C242 1.395 . S
C243 H269 0.929 . S
C244 C242 1.320 . S
C244 C245 1.405 . S
C244 H270 0.930 . S
C245 C240 1.479 . S
C245 C244 1.405 . S
C245 H271 0.931 . S
U246 O247 2.454 . S
U246 O248 2.458 . S
U246 C249 2.984 . S
U246 C250 2.847 . S
U246 C263 2.882 . S
U246 O264 2.441 . S
U246 O265 2.420 . S
U246 O266 2.455 . S
U246 O267 2.449 . S
O247 U246 2.454 . S
O247 C249 1.353 . S
O248 U246 2.458 . S
O248 C249 1.286 . S
C249 U246 2.984 . S
C249 O247 1.353 . S
C249 O248 1.286 . S
C249 C251 1.363 . S
C250 C240 1.465 . S
C250 U246 2.847 . S
C250 O264 1.249 . S
C250 O265 1.202 . S
C251 C249 1.363 . S
C251 C253 1.408 . S
C251 C256 1.342 . S
C252 C253 1.310 . S
C252 C255 1.461 . S
C252 H272 0.932 . S
C253 C251 1.408 . S
C253 C252 1.310 . S
C253 H273 0.930 . S
C254 C255 1.474 . S
C254 C256 1.285 . S
C254 H274 0.929 . S
C255 C252 1.461 . S
C255 C254 1.474 . S
C256 C251 1.342 . S
C256 C254 1.285 . S
C256 H275 0.930 . S
C257 C260 1.424 . S
C257 C262 1.245 . S
C257 C263 1.428 . S
C258 C261 1.260 . S
C258 C262 1.477 . S
C258 H276 0.932 . S
C259 C260 1.384 . S
C259 C261 1.479 . S
C259 H277 0.929 . S
C260 C257 1.424 . S
C260 C259 1.384 . S
C260 H278 0.928 . S
C261 C258 1.260 . S
C261 C259 1.479 . S
C262 C257 1.245 . S
C262 C258 1.477 . S
C262 H279 0.932 . S
C263 U246 2.882 . S
C263 C257 1.428 . S
C263 O266 1.301 . S
C263 O267 1.282 . S
O264 U246 2.441 . S
O264 C250 1.249 . S
O265 U246 2.420 . S
O265 C250 1.202 . S
O266 U246 2.455 . S
O266 C263 1.301 . S
O267 U246 2.449 . S
O267 C263 1.282 . S
H268 C241 0.931 . S
H269 C243 0.929 . S
H270 C244 0.930 . S
H271 C245 0.931 . S
H272 C252 0.932 . S
H273 C253 0.930 . S
H274 C254 0.929 . S
H275 C256 0.930 . S
H276 C258 0.932 . S
H277 C259 0.929 . S
H278 C260 0.928 . S
H279 C262 0.932 . S
C280 C281 1.264 . S
C280 C285 1.479 . S
C280 C290 1.465 . S
C281 C280 1.264 . S
C281 C283 1.339 . S
C281 H308 0.931 . S
C282 C283 1.395 . S
C282 C284 1.320 . S
C283 C281 1.339 . S
C283 C282 1.395 . S
C283 H309 0.929 . S
C284 C282 1.320 . S
C284 C285 1.405 . S
C284 H310 0.930 . S
C285 C280 1.479 . S
C285 C284 1.405 . S
C285 H311 0.931 . S
U286 O287 2.454 . S
U286 O288 2.458 . S
U286 C289 2.984 . S
U286 C290 2.847 . S
U286 C303 2.882 . S
U286 O304 2.441 . S
U286 O305 2.420 . S
U286 O306 2.455 . S
U286 O307 2.449 . S
O287 U286 2.454 . S
O287 C289 1.353 . S
O288 U286 2.458 . S
O288 C289 1.286 . S
C289 U286 2.984 . S
C289 O287 1.353 . S
C289 O288 1.286 . S
C289 C291 1.363 . S
C290 C280 1.465 . S
C290 U286 2.847 . S
C290 O304 1.249 . S
C290 O305 1.202 . S
C291 C289 1.363 . S
C291 C293 1.408 . S
C291 C296 1.342 . S
C292 C293 1.310 . S
C292 C295 1.461 . S
C292 H312 0.932 . S
C293 C291 1.408 . S
C293 C292 1.310 . S
C293 H313 0.930 . S
C294 C295 1.474 . S
C294 C296 1.285 . S
C294 H314 0.929 . S
C295 C292 1.461 . S
C295 C294 1.474 . S
C296 C291 1.342 . S
C296 C294 1.285 . S
C296 H315 0.930 . S
C297 C300 1.424 . S
C297 C302 1.245 . S
C297 C303 1.428 . S
C298 C301 1.260 . S
C298 C302 1.477 . S
C298 H316 0.932 . S
C299 C300 1.384 . S
C299 C301 1.479 . S
C299 H317 0.929 . S
C300 C297 1.424 . S
C300 C299 1.384 . S
C300 H318 0.928 . S
C301 C298 1.260 . S
C301 C299 1.479 . S
C302 C297 1.245 . S
C302 C298 1.477 . S
C302 H319 0.932 . S
C303 U286 2.882 . S
C303 C297 1.428 . S
C303 O306 1.301 . S
C303 O307 1.282 . S
O304 U286 2.441 . S
O304 C290 1.249 . S
O305 U286 2.420 . S
O305 C290 1.202 . S
O306 U286 2.455 . S
O306 C303 1.301 . S
O307 U286 2.449 . S
O307 C303 1.282 . S
H308 C281 0.931 . S
H309 C283 0.929 . S
H310 C284 0.930 . S
H311 C285 0.931 . S
H312 C292 0.932 . S
H313 C293 0.930 . S
H314 C294 0.929 . S
H315 C296 0.930 . S
H316 C298 0.932 . S
H317 C299 0.929 . S
H318 C300 0.928 . S
H319 C302 0.932 . S
H320 C347 0.929 . S
N321 C346 1.433 1_455 S
N321 C352 1.435 . S
N321 C358 1.423 . S
H322 C348 0.930 . S
H323 C351 0.931 . S
H324 C350 0.929 . S
H325 C353 0.930 . S
H326 C354 0.932 . S
H327 C357 0.929 . S
H328 C356 0.931 . S
H329 C359 0.951 . S
H330 C363 0.932 . S
H331 C360 0.931 1_655 S
H332 C362 0.929 . S
H333 C365 0.929 . S
H334 C366 0.930 . S
H335 C368 0.929 . S
H336 C369 0.931 . S
H337 C371 0.930 . S
H338 C372 0.932 . S
H339 C374 0.931 . S
H340 C375 0.929 . S
H341 C377 0.951 . S
H342 C378 0.931 1_655 S
H343 C380 0.929 . S
N344 C364 1.433 1_455 S
N344 C370 1.435 . S
N344 C376 1.423 . S
H345 C381 0.932 . S
C346 N321 1.433 1_655 S
C346 C347 1.363 . S
C346 C351 1.370 . S
C347 H320 0.929 . S
C347 C346 1.363 . S
C347 C348 1.385 . S
C348 H322 0.930 . S
C348 C347 1.385 . S
C348 C349 1.357 . S
C349 C348 1.357 . S
C349 C350 1.406 . S
C350 H324 0.929 . S
C350 C349 1.406 . S
C350 C351 1.391 . S
C351 H323 0.931 . S
C351 C346 1.370 . S
C351 C350 1.391 . S
C352 N321 1.435 . S
C352 C353 1.358 . S
C352 C357 1.371 . S
C353 H325 0.930 . S
C353 C352 1.358 . S
C353 C354 1.405 . S
C354 H326 0.932 . S
C354 C353 1.405 . S
C354 C355 1.383 . S
C355 C354 1.383 . S
C355 C356 1.393 . S
C356 H328 0.931 . S
C356 C355 1.393 . S
C356 C357 1.382 . S
C357 H327 0.929 . S
C357 C352 1.371 . S
C357 C356 1.382 . S
C358 N321 1.423 . S
C358 C359 1.343 1_455 S
C358 C363 1.388 . S
C359 H329 0.951 . S
C359 C358 1.343 1_655 S
C359 C360 1.375 1_655 S
C360 H331 0.931 1_455 S
C360 C359 1.375 1_455 S
C360 C361 1.396 . S
C361 C360 1.396 . S
C361 C362 1.348 . S
C361 C379 1.472 . S
C362 H332 0.929 . S
C362 C361 1.348 . S
C362 C363 1.443 . S
C363 H330 0.932 . S
C363 C358 1.388 . S
C363 C362 1.443 . S
C364 N344 1.433 1_655 S
C364 C365 1.363 . S
C364 C369 1.370 . S
C365 H333 0.929 . S
C365 C364 1.363 . S
C365 C366 1.385 . S
C366 H334 0.930 . S
C366 C365 1.385 . S
C366 C367 1.357 . S
C367 C366 1.357 . S
C367 C368 1.406 . S
C368 H335 0.929 . S
C368 C367 1.406 . S
C368 C369 1.391 . S
C369 H336 0.931 . S
C369 C364 1.370 . S
C369 C368 1.391 . S
C370 N344 1.435 . S
C370 C371 1.358 . S
C370 C375 1.371 . S
C371 H337 0.930 . S
C371 C370 1.358 . S
C371 C372 1.405 . S
C372 H338 0.932 . S
C372 C371 1.405 . S
C372 C373 1.383 . S
C373 C372 1.383 . S
C373 C374 1.393 . S
C374 H339 0.931 . S
C374 C373 1.393 . S
C374 C375 1.382 . S
C375 H340 0.929 . S
C375 C370 1.371 . S
C375 C374 1.382 . S
C376 N344 1.423 . S
C376 C377 1.344 1_455 S
C376 C381 1.388 . S
C377 H341 0.951 . S
C377 C376 1.344 1_655 S
C377 C378 1.374 1_655 S
C378 H342 0.931 1_455 S
C378 C377 1.374 1_455 S
C378 C379 1.396 . S
C379 C361 1.472 . S
C379 C378 1.396 . S
C379 C380 1.348 . S
C380 H343 0.929 . S
C380 C379 1.348 . S
C380 C381 1.443 . S
C381 H345 0.932 . S
C381 C376 1.388 . S
C381 C380 1.443 . S
H382 C409 0.929 . S
N383 C408 1.433 1_455 S
N383 C414 1.435 . S
N383 C420 1.423 . S
H384 C410 0.930 . S
H385 C413 0.931 . S
H386 C412 0.929 . S
H387 C415 0.930 . S
H388 C416 0.932 . S
H389 C419 0.929 . S
H390 C418 0.931 . S
H391 C421 0.938 . S
H392 C425 0.932 . S
H393 C422 0.931 1_655 S
H394 C424 0.929 . S
H395 C427 0.929 . S
H396 C428 0.930 . S
H397 C430 0.929 . S
H398 C431 0.931 . S
H399 C433 0.930 . S
H400 C434 0.932 . S
H401 C436 0.931 . S
H402 C437 0.929 . S
H403 C439 0.935 . S
H404 C440 0.931 1_655 S
H405 C442 0.929 . S
N406 C426 1.433 1_455 S
N406 C432 1.435 . S
N406 C438 1.423 . S
H407 C443 0.932 . S
C408 N383 1.433 1_655 S
C408 C409 1.363 . S
C408 C413 1.370 . S
C409 H382 0.929 . S
C409 C408 1.363 . S
C409 C410 1.385 . S
C410 H384 0.930 . S
C410 C409 1.385 . S
C410 C411 1.357 . S
C411 C410 1.357 . S
C411 C412 1.406 . S
C412 H386 0.929 . S
C412 C411 1.406 . S
C412 C413 1.391 . S
C413 H385 0.931 . S
C413 C408 1.370 . S
C413 C412 1.391 . S
C414 N383 1.435 . S
C414 C415 1.358 . S
C414 C419 1.371 . S
C415 H387 0.930 . S
C415 C414 1.358 . S
C415 C416 1.405 . S
C416 H388 0.932 . S
C416 C415 1.405 . S
C416 C417 1.383 . S
C417 C416 1.383 . S
C417 C418 1.393 . S
C418 H390 0.931 . S
C418 C417 1.393 . S
C418 C419 1.382 . S
C419 H389 0.929 . S
C419 C414 1.371 . S
C419 C418 1.382 . S
C420 N383 1.423 . S
C420 C421 1.354 1_455 S
C420 C425 1.388 . S
C421 H391 0.938 . S
C421 C420 1.354 1_655 S
C421 C422 1.375 1_655 S
C422 H393 0.931 1_455 S
C422 C421 1.375 1_455 S
C422 C423 1.396 . S
C423 C422 1.396 . S
C423 C424 1.348 . S
C423 C441 1.472 . S
C424 H394 0.929 . S
C424 C423 1.348 . S
C424 C425 1.443 . S
C425 H392 0.932 . S
C425 C420 1.388 . S
C425 C424 1.443 . S
C426 N406 1.433 1_655 S
C426 C427 1.363 . S
C426 C431 1.370 . S
C427 H395 0.929 . S
C427 C426 1.363 . S
C427 C428 1.385 . S
C428 H396 0.930 . S
C428 C427 1.385 . S
C428 C429 1.357 . S
C429 C428 1.357 . S
C429 C430 1.406 . S
C430 H397 0.929 . S
C430 C429 1.406 . S
C430 C431 1.391 . S
C431 H398 0.931 . S
C431 C426 1.370 . S
C431 C430 1.391 . S
C432 N406 1.435 . S
C432 C433 1.358 . S
C432 C437 1.371 . S
C433 H399 0.930 . S
C433 C432 1.358 . S
C433 C434 1.405 . S
C434 H400 0.932 . S
C434 C433 1.405 . S
C434 C435 1.383 . S
C435 C434 1.383 . S
C435 C436 1.393 . S
C436 H401 0.931 . S
C436 C435 1.393 . S
C436 C437 1.382 . S
C437 H402 0.929 . S
C437 C432 1.371 . S
C437 C436 1.382 . S
C438 N406 1.423 . S
C438 C439 1.357 1_455 S
C438 C443 1.388 . S
C439 H403 0.935 . S
C439 C438 1.357 1_655 S
C439 C440 1.376 1_655 S
C440 H404 0.931 1_455 S
C440 C439 1.376 1_455 S
C440 C441 1.396 . S
C441 C423 1.472 . S
C441 C440 1.396 . S
C441 C442 1.348 . S
C442 H405 0.929 . S
C442 C441 1.348 . S
C442 C443 1.443 . S
C443 H407 0.932 . S
C443 C438 1.388 . S
C443 C442 1.443 . S
H444 C471 0.929 . S
N445 C470 1.433 . S
N445 C476 1.435 . S
N445 C482 1.423 . S
H446 C472 0.930 . S
H447 C475 0.931 . S
H448 C474 0.929 . S
H449 C477 0.930 . S
H450 C478 0.932 . S
H451 C481 0.929 . S
H452 C480 0.931 . S
H453 C483 0.929 . S
H454 C487 0.932 . S
H455 C484 0.931 . S
H456 C486 0.929 . S
H457 C489 0.929 . S
H458 C490 0.930 . S
H459 C492 0.929 . S
H460 C493 0.931 . S
H461 C495 0.930 . S
H462 C496 0.932 . S
H463 C498 0.931 . S
H464 C499 0.929 . S
H465 C501 0.929 . S
H466 C502 0.931 . S
H467 C504 0.929 . S
N468 C488 1.433 . S
N468 C494 1.435 . S
N468 C500 1.423 . S
H469 C505 0.932 . S
C470 N445 1.433 . S
C470 C471 1.363 . S
C470 C475 1.370 . S
C471 H444 0.929 . S
C471 C470 1.363 . S
C471 C472 1.385 . S
C472 H446 0.930 . S
C472 C471 1.385 . S
C472 C473 1.357 . S
C473 C472 1.357 . S
C473 C474 1.406 . S
C474 H448 0.929 . S
C474 C473 1.406 . S
C474 C475 1.391 . S
C475 H447 0.931 . S
C475 C470 1.370 . S
C475 C474 1.391 . S
C476 N445 1.435 . S
C476 C477 1.358 . S
C476 C481 1.371 . S
C477 H449 0.930 . S
C477 C476 1.358 . S
C477 C478 1.405 . S
C478 H450 0.932 . S
C478 C477 1.405 . S
C478 C479 1.383 . S
C479 C478 1.383 . S
C479 C480 1.393 . S
C480 H452 0.931 . S
C480 C479 1.393 . S
C480 C481 1.382 . S
C481 H451 0.929 . S
C481 C476 1.371 . S
C481 C480 1.382 . S
C482 N445 1.423 . S
C482 C483 1.362 . S
C482 C487 1.388 . S
C483 H453 0.929 . S
C483 C482 1.362 . S
C483 C484 1.376 . S
C484 H455 0.931 . S
C484 C483 1.376 . S
C484 C485 1.396 . S
C485 C484 1.396 . S
C485 C486 1.348 . S
C485 C503 1.472 1_545 S
C486 H456 0.929 . S
C486 C485 1.348 . S
C486 C487 1.443 . S
C487 H454 0.932 . S
C487 C482 1.388 . S
C487 C486 1.443 . S
C488 N468 1.433 . S
C488 C489 1.363 . S
C488 C493 1.370 . S
C489 H457 0.929 . S
C489 C488 1.363 . S
C489 C490 1.385 . S
C490 H458 0.930 . S
C490 C489 1.385 . S
C490 C491 1.357 . S
C491 C490 1.357 . S
C491 C492 1.406 . S
C492 H459 0.929 . S
C492 C491 1.406 . S
C492 C493 1.391 . S
C493 H460 0.931 . S
C493 C488 1.370 . S
C493 C492 1.391 . S
C494 N468 1.435 . S
C494 C495 1.358 . S
C494 C499 1.371 . S
C495 H461 0.930 . S
C495 C494 1.358 . S
C495 C496 1.405 . S
C496 H462 0.932 . S
C496 C495 1.405 . S
C496 C497 1.383 . S
C497 C496 1.383 . S
C497 C498 1.393 . S
C498 H463 0.931 . S
C498 C497 1.393 . S
C498 C499 1.382 . S
C499 H464 0.929 . S
C499 C494 1.371 . S
C499 C498 1.382 . S
C500 N468 1.423 . S
C500 C501 1.362 . S
C500 C505 1.388 . S
C501 H465 0.929 . S
C501 C500 1.362 . S
C501 C502 1.376 . S
C502 H466 0.931 . S
C502 C501 1.376 . S
C502 C503 1.396 . S
C503 C485 1.472 1_565 S
C503 C502 1.396 . S
C503 C504 1.348 . S
C504 H467 0.929 . S
C504 C503 1.348 . S
C504 C505 1.443 . S
C505 H469 0.932 . S
C505 C500 1.388 . S
C505 C504 1.443 . S
H506 C533 0.929 . S
N507 C532 1.433 . S
N507 C538 1.435 . S
N507 C544 1.423 . S
H508 C534 0.930 . S
H509 C537 0.931 . S
H510 C536 0.929 . S
H511 C539 0.930 . S
H512 C540 0.932 . S
H513 C543 0.929 . S
H514 C542 0.931 . S
H515 C545 0.929 . S
H516 C549 0.932 . S
H517 C546 0.931 . S
H518 C548 0.929 . S
H519 C551 0.929 . S
H520 C552 0.930 . S
H521 C554 0.929 . S
H522 C555 0.931 . S
H523 C557 0.930 . S
H524 C558 0.932 . S
H525 C560 0.931 . S
H526 C561 0.929 . S
H527 C563 0.929 . S
H528 C564 0.931 . S
H529 C566 0.929 . S
N530 C550 1.433 . S
N530 C556 1.435 . S
N530 C562 1.423 . S
H531 C567 0.932 . S
C532 N507 1.433 . S
C532 C533 1.363 . S
C532 C537 1.370 . S
C533 H506 0.929 . S
C533 C532 1.363 . S
C533 C534 1.385 . S
C534 H508 0.930 . S
C534 C533 1.385 . S
C534 C535 1.357 . S
C535 C534 1.357 . S
C535 C536 1.406 . S
C536 H510 0.929 . S
C536 C535 1.406 . S
C536 C537 1.391 . S
C537 H509 0.931 . S
C537 C532 1.370 . S
C537 C536 1.391 . S
C538 N507 1.435 . S
C538 C539 1.358 . S
C538 C543 1.371 . S
C539 H511 0.930 . S
C539 C538 1.358 . S
C539 C540 1.405 . S
C540 H512 0.932 . S
C540 C539 1.405 . S
C540 C541 1.383 . S
C541 C540 1.383 . S
C541 C542 1.393 . S
C542 H514 0.931 . S
C542 C541 1.393 . S
C542 C543 1.382 . S
C543 H513 0.929 . S
C543 C538 1.371 . S
C543 C542 1.382 . S
C544 N507 1.423 . S
C544 C545 1.362 . S
C544 C549 1.388 . S
C545 H515 0.929 . S
C545 C544 1.362 . S
C545 C546 1.376 . S
C546 H517 0.931 . S
C546 C545 1.376 . S
C546 C547 1.396 . S
C547 C546 1.396 . S
C547 C548 1.348 . S
C547 C565 1.472 1_554 S
C548 H518 0.929 . S
C548 C547 1.348 . S
C548 C549 1.443 . S
C549 H516 0.932 . S
C549 C544 1.388 . S
C549 C548 1.443 . S
C550 N530 1.433 . S
C550 C551 1.363 . S
C550 C555 1.370 . S
C551 H519 0.929 . S
C551 C550 1.363 . S
C551 C552 1.385 . S
C552 H520 0.930 . S
C552 C551 1.385 . S
C552 C553 1.357 . S
C553 C552 1.357 . S
C553 C554 1.406 . S
C554 H521 0.929 . S
C554 C553 1.406 . S
C554 C555 1.391 . S
C555 H522 0.931 . S
C555 C550 1.370 . S
C555 C554 1.391 . S
C556 N530 1.435 . S
C556 C557 1.358 . S
C556 C561 1.371 . S
C557 H523 0.930 . S
C557 C556 1.358 . S
C557 C558 1.405 . S
C558 H524 0.932 . S
C558 C557 1.405 . S
C558 C559 1.383 . S
C559 C558 1.383 . S
C559 C560 1.393 . S
C560 H525 0.931 . S
C560 C559 1.393 . S
C560 C561 1.382 . S
C561 H526 0.929 . S
C561 C556 1.371 . S
C561 C560 1.382 . S
C562 N530 1.423 . S
C562 C563 1.362 . S
C562 C567 1.388 . S
C563 H527 0.929 . S
C563 C562 1.362 . S
C563 C564 1.376 . S
C564 H528 0.931 . S
C564 C563 1.376 . S
C564 C565 1.396 . S
C565 C547 1.472 1_556 S
C565 C564 1.396 . S
C565 C566 1.348 . S
C566 H529 0.929 . S
C566 C565 1.348 . S
C566 C567 1.443 . S
C567 H531 0.932 . S
C567 C562 1.388 . S
C567 C566 1.443 . S
H568 C595 0.929 . S
N569 C594 1.433 . S
N569 C600 1.435 . S
N569 C606 1.423 . S
H570 C596 0.930 . S
H571 C599 0.931 . S
H572 C598 0.929 . S
H573 C601 0.930 . S
H574 C602 0.932 . S
H575 C605 0.929 . S
H576 C604 0.931 . S
H577 C607 0.929 . S
H578 C611 0.932 . S
H579 C608 0.931 . S
H580 C610 0.929 . S
H581 C613 0.929 . S
H582 C614 0.930 . S
H583 C616 0.929 . S
H584 C617 0.931 . S
H585 C619 0.930 . S
H586 C620 0.932 . S
H587 C622 0.931 . S
H588 C623 0.929 . S
H589 C625 0.929 . S
H590 C626 0.931 . S
H591 C628 0.929 . S
N592 C612 1.433 . S
N592 C618 1.435 . S
N592 C624 1.423 . S
H593 C629 0.932 . S
C594 N569 1.433 . S
C594 C595 1.363 . S
C594 C599 1.370 . S
C595 H568 0.929 . S
C595 C594 1.363 . S
C595 C596 1.385 . S
C596 H570 0.930 . S
C596 C595 1.385 . S
C596 C597 1.357 . S
C597 C596 1.357 . S
C597 C598 1.406 . S
C598 H572 0.929 . S
C598 C597 1.406 . S
C598 C599 1.391 . S
C599 H571 0.931 . S
C599 C594 1.370 . S
C599 C598 1.391 . S
C600 N569 1.435 . S
C600 C601 1.358 . S
C600 C605 1.371 . S
C601 H573 0.930 . S
C601 C600 1.358 . S
C601 C602 1.405 . S
C602 H574 0.932 . S
C602 C601 1.405 . S
C602 C603 1.383 . S
C603 C602 1.383 . S
C603 C604 1.393 . S
C604 H576 0.931 . S
C604 C603 1.393 . S
C604 C605 1.382 . S
C605 H575 0.929 . S
C605 C600 1.371 . S
C605 C604 1.382 . S
C606 N569 1.423 . S
C606 C607 1.362 . S
C606 C611 1.388 . S
C607 H577 0.929 . S
C607 C606 1.362 . S
C607 C608 1.376 . S
C608 H579 0.931 . S
C608 C607 1.376 . S
C608 C609 1.396 . S
C609 C608 1.396 . S
C609 C610 1.348 . S
C609 C627 1.472 1_545 S
C610 H580 0.929 . S
C610 C609 1.348 . S
C610 C611 1.443 . S
C611 H578 0.932 . S
C611 C606 1.388 . S
C611 C610 1.443 . S
C612 N592 1.433 . S
C612 C613 1.363 . S
C612 C617 1.370 . S
C613 H581 0.929 . S
C613 C612 1.363 . S
C613 C614 1.385 . S
C614 H582 0.930 . S
C614 C613 1.385 . S
C614 C615 1.357 . S
C615 C614 1.357 . S
C615 C616 1.406 . S
C616 H583 0.929 . S
C616 C615 1.406 . S
C616 C617 1.391 . S
C617 H584 0.931 . S
C617 C612 1.370 . S
C617 C616 1.391 . S
C618 N592 1.435 . S
C618 C619 1.358 . S
C618 C623 1.371 . S
C619 H585 0.930 . S
C619 C618 1.358 . S
C619 C620 1.405 . S
C620 H586 0.932 . S
C620 C619 1.405 . S
C620 C621 1.383 . S
C621 C620 1.383 . S
C621 C622 1.393 . S
C622 H587 0.931 . S
C622 C621 1.393 . S
C622 C623 1.382 . S
C623 H588 0.929 . S
C623 C618 1.371 . S
C623 C622 1.382 . S
C624 N592 1.423 . S
C624 C625 1.362 . S
C624 C629 1.388 . S
C625 H589 0.929 . S
C625 C624 1.362 . S
C625 C626 1.376 . S
C626 H590 0.931 . S
C626 C625 1.376 . S
C626 C627 1.396 . S
C627 C609 1.472 1_565 S
C627 C626 1.396 . S
C627 C628 1.348 . S
C628 H591 0.929 . S
C628 C627 1.348 . S
C628 C629 1.443 . S
C629 H593 0.932 . S
C629 C624 1.388 . S
C629 C628 1.443 . S
H630 C657 0.929 . S
N631 C656 1.433 . S
N631 C662 1.435 . S
N631 C668 1.423 . S
H632 C658 0.930 . S
H633 C661 0.931 . S
H634 C660 0.929 . S
H635 C663 0.930 . S
H636 C664 0.932 . S
H637 C667 0.929 . S
H638 C666 0.931 . S
H639 C669 0.929 . S
H640 C673 0.932 . S
H641 C670 0.931 . S
H642 C672 0.929 . S
H643 C675 0.929 . S
H644 C676 0.930 . S
H645 C678 0.929 . S
H646 C679 0.931 . S
H647 C681 0.930 . S
H648 C682 0.932 . S
H649 C684 0.931 . S
H650 C685 0.929 . S
H651 C687 0.929 . S
H652 C688 0.931 . S
H653 C690 0.929 . S
N654 C674 1.433 . S
N654 C680 1.435 . S
N654 C686 1.423 . S
H655 C691 0.932 . S
C656 N631 1.433 . S
C656 C657 1.363 . S
C656 C661 1.370 . S
C657 H630 0.929 . S
C657 C656 1.363 . S
C657 C658 1.385 . S
C658 H632 0.930 . S
C658 C657 1.385 . S
C658 C659 1.357 . S
C659 C658 1.357 . S
C659 C660 1.406 . S
C660 H634 0.929 . S
C660 C659 1.406 . S
C660 C661 1.391 . S
C661 H633 0.931 . S
C661 C656 1.370 . S
C661 C660 1.391 . S
C662 N631 1.435 . S
C662 C663 1.358 . S
C662 C667 1.371 . S
C663 H635 0.930 . S
C663 C662 1.358 . S
C663 C664 1.405 . S
C664 H636 0.932 . S
C664 C663 1.405 . S
C664 C665 1.383 . S
C665 C664 1.383 . S
C665 C666 1.393 . S
C666 H638 0.931 . S
C666 C665 1.393 . S
C666 C667 1.382 . S
C667 H637 0.929 . S
C667 C662 1.371 . S
C667 C666 1.382 . S
C668 N631 1.423 . S
C668 C669 1.362 . S
C668 C673 1.388 . S
C669 H639 0.929 . S
C669 C668 1.362 . S
C669 C670 1.376 . S
C670 H641 0.931 . S
C670 C669 1.376 . S
C670 C671 1.396 . S
C671 C670 1.396 . S
C671 C672 1.348 . S
C671 C689 1.472 1_554 S
C672 H642 0.929 . S
C672 C671 1.348 . S
C672 C673 1.443 . S
C673 H640 0.932 . S
C673 C668 1.388 . S
C673 C672 1.443 . S
C674 N654 1.433 . S
C674 C675 1.363 . S
C674 C679 1.370 . S
C675 H643 0.929 . S
C675 C674 1.363 . S
C675 C676 1.385 . S
C676 H644 0.930 . S
C676 C675 1.385 . S
C676 C677 1.357 . S
C677 C676 1.357 . S
C677 C678 1.406 . S
C678 H645 0.929 . S
C678 C677 1.406 . S
C678 C679 1.391 . S
C679 H646 0.931 . S
C679 C674 1.370 . S
C679 C678 1.391 . S
C680 N654 1.435 . S
C680 C681 1.358 . S
C680 C685 1.371 . S
C681 H647 0.930 . S
C681 C680 1.358 . S
C681 C682 1.405 . S
C682 H648 0.932 . S
C682 C681 1.405 . S
C682 C683 1.383 . S
C683 C682 1.383 . S
C683 C684 1.393 . S
C684 H649 0.931 . S
C684 C683 1.393 . S
C684 C685 1.382 . S
C685 H650 0.929 . S
C685 C680 1.371 . S
C685 C684 1.382 . S
C686 N654 1.423 . S
C686 C687 1.362 . S
C686 C691 1.388 . S
C687 H651 0.929 . S
C687 C686 1.362 . S
C687 C688 1.376 . S
C688 H652 0.931 . S
C688 C687 1.376 . S
C688 C689 1.396 . S
C689 C671 1.472 1_556 S
C689 C688 1.396 . S
C689 C690 1.348 . S
C690 H653 0.929 . S
C690 C689 1.348 . S
C690 C691 1.443 . S
C691 H655 0.932 . S
C691 C686 1.388 . S
C691 C690 1.443 . S
H692 C698 0.930 . S
H693 C701 0.930 . S
H694 C702 0.930 . S
H695 C703 0.930 . S
H696 C706 0.930 . S
H697 C707 0.930 . S
C698 H692 0.930 . S
C698 C699 1.355 . S
C698 C700 1.415 . S
C699 C698 1.355 . S
C699 C701 1.419 . S
C700 C698 1.415 . S
C700 C705 1.425 . S
C700 C707 1.409 . S
C701 H693 0.930 . S
C701 C699 1.419 . S
C701 C702 1.362 . S
C702 H694 0.930 . S
C702 C701 1.362 . S
C702 C705 1.409 . S
C703 H695 0.930 . S
C703 C704 1.355 . S
C703 C705 1.415 . S
C704 C703 1.355 . S
C704 C706 1.419 . S
C705 C700 1.425 . S
C705 C702 1.409 . S
C705 C703 1.415 . S
C706 H696 0.930 . S
C706 C704 1.419 . S
C706 C707 1.362 . S
C707 H697 0.930 . S
C707 C700 1.409 . S
C707 C706 1.362 . S
H708 C714 0.930 . S
H709 C717 0.930 . S
H710 C718 0.930 . S
H711 C719 0.930 . S
H712 C722 0.930 . S
H713 C723 0.930 . S
C714 H708 0.930 . S
C714 C715 1.355 . S
C714 C716 1.415 . S
C715 C714 1.355 . S
C715 C717 1.419 . S
C716 C714 1.415 . S
C716 C721 1.425 . S
C716 C723 1.409 . S
C717 H709 0.930 . S
C717 C715 1.419 . S
C717 C718 1.362 . S
C718 H710 0.930 . S
C718 C717 1.362 . S
C718 C721 1.409 . S
C719 H711 0.930 . S
C719 C720 1.355 . S
C719 C721 1.415 . S
C720 C719 1.355 . S
C720 C722 1.419 . S
C721 C716 1.425 . S
C721 C718 1.409 . S
C721 C719 1.415 . S
C722 H712 0.930 . S
C722 C720 1.419 . S
C722 C723 1.362 . S
C723 H713 0.930 . S
C723 C716 1.409 . S
C723 C722 1.362 . S
H724 C730 0.930 . S
H725 C733 0.930 . S
H726 C734 0.930 . S
H727 C735 0.930 . S
H728 C738 0.930 . S
H729 C739 0.930 . S
C730 H724 0.930 . S
C730 C731 1.355 . S
C730 C732 1.415 . S
C731 C730 1.355 . S
C731 C733 1.419 . S
C732 C730 1.415 . S
C732 C737 1.425 . S
C732 C739 1.409 . S
C733 H725 0.930 . S
C733 C731 1.419 . S
C733 C734 1.362 . S
C734 H726 0.930 . S
C734 C733 1.362 . S
C734 C737 1.409 . S
C735 H727 0.930 . S
C735 C736 1.355 . S
C735 C737 1.415 . S
C736 C735 1.355 . S
C736 C738 1.419 . S
C737 C732 1.425 . S
C737 C734 1.409 . S
C737 C735 1.415 . S
C738 H728 0.930 . S
C738 C736 1.419 . S
C738 C739 1.362 . S
C739 H729 0.930 . S
C739 C732 1.409 . S
C739 C738 1.362 . S
H740 C746 0.930 . S
H741 C749 0.930 . S
H742 C750 0.930 . S
H743 C751 0.930 . S
H744 C754 0.930 . S
H745 C755 0.930 . S
C746 H740 0.930 . S
C746 C747 1.355 . S
C746 C748 1.415 . S
C747 C746 1.355 . S
C747 C749 1.419 . S
C748 C746 1.415 . S
C748 C753 1.425 . S
C748 C755 1.409 . S
C749 H741 0.930 . S
C749 C747 1.419 . S
C749 C750 1.362 . S
C750 H742 0.930 . S
C750 C749 1.362 . S
C750 C753 1.409 . S
C751 H743 0.930 . S
C751 C752 1.355 . S
C751 C753 1.415 . S
C752 C751 1.355 . S
C752 C754 1.419 . S
C753 C748 1.425 . S
C753 C750 1.409 . S
C753 C751 1.415 . S
C754 H744 0.930 . S
C754 C752 1.419 . S
C754 C755 1.362 . S
C755 H745 0.930 . S
C755 C748 1.409 . S
C755 C754 1.362 . S
H756 C762 0.930 . S
H757 C765 0.930 . S
H758 C766 0.930 . S
H759 C767 0.930 . S
H760 C770 0.930 . S
H761 C771 0.930 . S
C762 H756 0.930 . S
C762 C763 1.355 . S
C762 C764 1.415 . S
C763 C762 1.355 . S
C763 C765 1.419 . S
C764 C762 1.415 . S
C764 C769 1.425 . S
C764 C771 1.409 . S
C765 H757 0.930 . S
C765 C763 1.419 . S
C765 C766 1.362 . S
C766 H758 0.930 . S
C766 C765 1.362 . S
C766 C769 1.409 . S
C767 H759 0.930 . S
C767 C768 1.355 . S
C767 C769 1.415 . S
C768 C767 1.355 . S
C768 C770 1.419 . S
C769 C764 1.425 . S
C769 C766 1.409 . S
C769 C767 1.415 . S
C770 H760 0.930 . S
C770 C768 1.419 . S
C770 C771 1.362 . S
C771 H761 0.930 . S
C771 C764 1.409 . S
C771 C770 1.362 . S
H772 C778 0.930 . S
H773 C781 0.930 . S
H774 C782 0.930 . S
H775 C783 0.930 . S
H776 C786 0.930 . S
H777 C787 0.930 . S
C778 H772 0.930 . S
C778 C779 1.355 . S
C778 C780 1.415 . S
C779 C778 1.355 . S
C779 C781 1.419 . S
C780 C778 1.415 . S
C780 C785 1.425 . S
C780 C787 1.409 . S
C781 H773 0.930 . S
C781 C779 1.419 . S
C781 C782 1.362 . S
C782 H774 0.930 . S
C782 C781 1.362 . S
C782 C785 1.409 . S
C783 H775 0.930 . S
C783 C784 1.355 . S
C783 C785 1.415 . S
C784 C783 1.355 . S
C784 C786 1.419 . S
C785 C780 1.425 . S
C785 C782 1.409 . S
C785 C783 1.415 . S
C786 H776 0.930 . S
C786 C784 1.419 . S
C786 C787 1.362 . S
C787 H777 0.930 . S
C787 C780 1.409 . S
C787 C786 1.362 . S
H788 C794 0.930 . S
H789 C797 0.930 . S
H790 C798 0.930 . S
H791 C799 0.930 . S
H792 C802 0.930 . S
H793 C803 0.930 . S
C794 H788 0.930 . S
C794 C795 1.355 . S
C794 C796 1.415 . S
C795 C794 1.355 . S
C795 C797 1.419 . S
C796 C794 1.415 . S
C796 C801 1.425 . S
C796 C803 1.409 . S
C797 H789 0.930 . S
C797 C795 1.419 . S
C797 C798 1.362 . S
C798 H790 0.930 . S
C798 C797 1.362 . S
C798 C801 1.409 . S
C799 H791 0.930 . S
C799 C800 1.355 . S
C799 C801 1.415 . S
C800 C799 1.355 . S
C800 C802 1.419 . S
C801 C796 1.425 . S
C801 C798 1.409 . S
C801 C799 1.415 . S
C802 H792 0.930 . S
C802 C800 1.419 . S
C802 C803 1.362 . S
C803 H793 0.930 . S
C803 C796 1.409 . S
C803 C802 1.362 . S
H804 C810 0.930 . S
H805 C813 0.930 . S
H806 C814 0.930 . S
H807 C815 0.930 . S
H808 C818 0.930 . S
H809 C819 0.930 . S
C810 H804 0.930 . S
C810 C811 1.355 . S
C810 C812 1.415 . S
C811 C810 1.355 . S
C811 C813 1.419 . S
C812 C810 1.415 . S
C812 C817 1.425 . S
C812 C819 1.409 . S
C813 H805 0.930 . S
C813 C811 1.419 . S
C813 C814 1.362 . S
C814 H806 0.930 . S
C814 C813 1.362 . S
C814 C817 1.409 . S
C815 H807 0.930 . S
C815 C816 1.355 . S
C815 C817 1.415 . S
C816 C815 1.355 . S
C816 C818 1.419 . S
C817 C812 1.425 . S
C817 C814 1.409 . S
C817 C815 1.415 . S
C818 H808 0.930 . S
C818 C816 1.419 . S
C818 C819 1.362 . S
C819 H809 0.930 . S
C819 C812 1.409 . S
C819 C818 1.362 . S
H820 C826 0.930 . S
H821 C829 0.930 . S
H822 C830 0.930 . S
H823 C831 0.930 . S
H824 C834 0.930 . S
H825 C835 0.930 . S
C826 H820 0.930 . S
C826 C827 1.355 . S
C826 C828 1.415 . S
C827 C826 1.355 . S
C827 C829 1.419 . S
C828 C826 1.415 . S
C828 C833 1.425 . S
C828 C835 1.409 . S
C829 H821 0.930 . S
C829 C827 1.419 . S
C829 C830 1.362 . S
C830 H822 0.930 . S
C830 C829 1.362 . S
C830 C833 1.409 . S
C831 H823 0.930 . S
C831 C832 1.355 . S
C831 C833 1.415 . S
C832 C831 1.355 . S
C832 C834 1.419 . S
C833 C828 1.425 . S
C833 C830 1.409 . S
C833 C831 1.415 . S
C834 H824 0.930 . S
C834 C832 1.419 . S
C834 C835 1.362 . S
C835 H825 0.930 . S
C835 C828 1.409 . S
C835 C834 1.362 . S
H836 C842 0.930 . S
H837 C845 0.930 . S
H838 C846 0.930 . S
H839 C847 0.930 . S
H840 C850 0.930 . S
H841 C851 0.930 . S
C842 H836 0.930 . S
C842 C843 1.355 . S
C842 C844 1.415 . S
C843 C842 1.355 . S
C843 C845 1.419 . S
C844 C842 1.415 . S
C844 C849 1.425 . S
C844 C851 1.409 . S
C845 H837 0.930 . S
C845 C843 1.419 . S
C845 C846 1.362 . S
C846 H838 0.930 . S
C846 C845 1.362 . S
C846 C849 1.409 . S
C847 H839 0.930 . S
C847 C848 1.355 . S
C847 C849 1.415 . S
C848 C847 1.355 . S
C848 C850 1.419 . S
C849 C844 1.425 . S
C849 C846 1.409 . S
C849 C847 1.415 . S
C850 H840 0.930 . S
C850 C848 1.419 . S
C850 C851 1.362 . S
C851 H841 0.930 . S
C851 C844 1.409 . S
C851 C850 1.362 . S
H852 C858 0.930 . S
H853 C861 0.930 . S
H854 C862 0.930 . S
H855 C863 0.930 . S
H856 C866 0.930 . S
H857 C867 0.930 . S
C858 H852 0.930 . S
C858 C859 1.355 . S
C858 C860 1.415 . S
C859 C858 1.355 . S
C859 C861 1.419 . S
C860 C858 1.415 . S
C860 C865 1.425 . S
C860 C867 1.409 . S
C861 H853 0.930 . S
C861 C859 1.419 . S
C861 C862 1.362 . S
C862 H854 0.930 . S
C862 C861 1.362 . S
C862 C865 1.409 . S
C863 H855 0.930 . S
C863 C864 1.355 . S
C863 C865 1.415 . S
C864 C863 1.355 . S
C864 C866 1.419 . S
C865 C860 1.425 . S
C865 C862 1.409 . S
C865 C863 1.415 . S
C866 H856 0.930 . S
C866 C864 1.419 . S
C866 C867 1.362 . S
C867 H857 0.930 . S
C867 C860 1.409 . S
C867 C866 1.362 . S
H868 C874 0.930 . S
H869 C877 0.930 . S
H870 C878 0.930 . S
H871 C879 0.930 . S
H872 C882 0.930 . S
H873 C883 0.930 . S
C874 H868 0.930 . S
C874 C875 1.355 . S
C874 C876 1.415 . S
C875 C874 1.355 . S
C875 C877 1.419 . S
C876 C874 1.415 . S
C876 C881 1.425 . S
C876 C883 1.409 . S
C877 H869 0.930 . S
C877 C875 1.419 . S
C877 C878 1.362 . S
C878 H870 0.930 . S
C878 C877 1.362 . S
C878 C881 1.409 . S
C879 H871 0.930 . S
C879 C880 1.355 . S
C879 C881 1.415 . S
C880 C879 1.355 . S
C880 C882 1.419 . S
C881 C876 1.425 . S
C881 C878 1.409 . S
C881 C879 1.415 . S
C882 H872 0.930 . S
C882 C880 1.419 . S
C882 C883 1.362 . S
C883 H873 0.930 . S
C883 C876 1.409 . S
C883 C882 1.362 . S
H884 C890 0.930 . S
H885 C893 0.930 . S
H886 C894 0.930 . S
H887 C895 0.930 . S
H888 C898 0.930 . S
H889 C899 0.930 . S
C890 H884 0.930 . S
C890 C891 1.355 . S
C890 C892 1.415 . S
C891 C890 1.355 . S
C891 C893 1.419 . S
C892 C890 1.415 . S
C892 C897 1.425 . S
C892 C899 1.409 . S
C893 H885 0.930 . S
C893 C891 1.419 . S
C893 C894 1.362 . S
C894 H886 0.930 . S
C894 C893 1.362 . S
C894 C897 1.409 . S
C895 H887 0.930 . S
C895 C896 1.355 . S
C895 C897 1.415 . S
C896 C895 1.355 . S
C896 C898 1.419 . S
C897 C892 1.425 . S
C897 C894 1.409 . S
C897 C895 1.415 . S
C898 H888 0.930 . S
C898 C896 1.419 . S
C898 C899 1.362 . S
C899 H889 0.930 . S
C899 C892 1.409 . S
C899 C898 1.362 . S
H900 C906 0.930 . S
H901 C909 0.930 . S
H902 C910 0.930 . S
H903 C911 0.930 . S
H904 C914 0.930 . S
H905 C915 0.930 . S
C906 H900 0.930 . S
C906 C907 1.355 . S
C906 C908 1.415 . S
C907 C906 1.355 . S
C907 C909 1.419 . S
C908 C906 1.415 . S
C908 C913 1.425 . S
C908 C915 1.409 . S
C909 H901 0.930 . S
C909 C907 1.419 . S
C909 C910 1.362 . S
C910 H902 0.930 . S
C910 C909 1.362 . S
C910 C913 1.409 . S
C911 H903 0.930 . S
C911 C912 1.355 . S
C911 C913 1.415 . S
C912 C911 1.355 . S
C912 C914 1.419 . S
C913 C908 1.425 . S
C913 C910 1.409 . S
C913 C911 1.415 . S
C914 H904 0.930 . S
C914 C912 1.419 . S
C914 C915 1.362 . S
C915 H905 0.930 . S
C915 C908 1.409 . S
C915 C914 1.362 . S
H916 C922 0.930 . S
H917 C925 0.930 . S
H918 C926 0.930 . S
H919 C927 0.930 . S
H920 C930 0.930 . S
H921 C931 0.930 . S
C922 H916 0.930 . S
C922 C923 1.355 . S
C922 C924 1.415 . S
C923 C922 1.355 . S
C923 C925 1.419 . S
C924 C922 1.415 . S
C924 C929 1.425 . S
C924 C931 1.409 . S
C925 H917 0.930 . S
C925 C923 1.419 . S
C925 C926 1.362 . S
C926 H918 0.930 . S
C926 C925 1.362 . S
C926 C929 1.409 . S
C927 H919 0.930 . S
C927 C928 1.355 . S
C927 C929 1.415 . S
C928 C927 1.355 . S
C928 C930 1.419 . S
C929 C924 1.425 . S
C929 C926 1.409 . S
C929 C927 1.415 . S
C930 H920 0.930 . S
C930 C928 1.419 . S
C930 C931 1.362 . S
C931 H921 0.930 . S
C931 C924 1.409 . S
C931 C930 1.362 . S
H932 C938 0.930 . S
H933 C941 0.930 . S
H934 C942 0.930 . S
H935 C943 0.930 . S
H936 C946 0.930 . S
H937 C947 0.930 . S
C938 H932 0.930 . S
C938 C939 1.355 . S
C938 C940 1.415 . S
C939 C938 1.355 . S
C939 C941 1.419 . S
C940 C938 1.415 . S
C940 C945 1.425 . S
C940 C947 1.409 . S
C941 H933 0.930 . S
C941 C939 1.419 . S
C941 C942 1.362 . S
C942 H934 0.930 . S
C942 C941 1.362 . S
C942 C945 1.409 . S
C943 H935 0.930 . S
C943 C944 1.355 . S
C943 C945 1.415 . S
C944 C943 1.355 . S
C944 C946 1.419 . S
C945 C940 1.425 . S
C945 C942 1.409 . S
C945 C943 1.415 . S
C946 H936 0.930 . S
C946 C944 1.419 . S
C946 C947 1.362 . S
C947 H937 0.930 . S
C947 C940 1.409 . S
C947 C946 1.362 . S
H948 C954 0.930 . S
H949 C957 0.930 . S
H950 C958 0.930 . S
H951 C959 0.930 . S
H952 C962 0.930 . S
H953 C963 0.930 . S
C954 H948 0.930 . S
C954 C955 1.355 . S
C954 C956 1.415 . S
C955 C954 1.355 . S
C955 C957 1.419 . S
C956 C954 1.415 . S
C956 C961 1.425 . S
C956 C963 1.409 . S
C957 H949 0.930 . S
C957 C955 1.419 . S
C957 C958 1.362 . S
C958 H950 0.930 . S
C958 C957 1.362 . S
C958 C961 1.409 . S
C959 H951 0.930 . S
C959 C960 1.355 . S
C959 C961 1.415 . S
C960 C959 1.355 . S
C960 C962 1.419 . S
C961 C956 1.425 . S
C961 C958 1.409 . S
C961 C959 1.415 . S
C962 H952 0.930 . S
C962 C960 1.419 . S
C962 C963 1.362 . S
C963 H953 0.930 . S
C963 C956 1.409 . S
C963 C962 1.362 . S
H964 C970 0.930 . S
H965 C973 0.930 . S
H966 C974 0.930 . S
H967 C975 0.930 . S
H968 C978 0.930 . S
H969 C979 0.930 . S
C970 H964 0.930 . S
C970 C971 1.355 . S
C970 C972 1.415 . S
C971 C970 1.355 . S
C971 C973 1.419 . S
C972 C970 1.415 . S
C972 C977 1.425 . S
C972 C979 1.409 . S
C973 H965 0.930 . S
C973 C971 1.419 . S
C973 C974 1.362 . S
C974 H966 0.930 . S
C974 C973 1.362 . S
C974 C977 1.409 . S
C975 H967 0.930 . S
C975 C976 1.355 . S
C975 C977 1.415 . S
C976 C975 1.355 . S
C976 C978 1.419 . S
C977 C972 1.425 . S
C977 C974 1.409 . S
C977 C975 1.415 . S
C978 H968 0.930 . S
C978 C976 1.419 . S
C978 C979 1.362 . S
C979 H969 0.930 . S
C979 C972 1.409 . S
C979 C978 1.362 . S
H980 C986 0.930 . S
H981 C989 0.930 . S
H982 C990 0.930 . S
H983 C991 0.930 . S
H984 C994 0.930 . S
H985 C995 0.930 . S
C986 H980 0.930 . S
C986 C987 1.355 . S
C986 C988 1.415 . S
C987 C986 1.355 . S
C987 C989 1.419 . S
C988 C986 1.415 . S
C988 C993 1.425 . S
C988 C995 1.409 . S
C989 H981 0.930 . S
C989 C987 1.419 . S
C989 C990 1.362 . S
C990 H982 0.930 . S
C990 C989 1.362 . S
C990 C993 1.409 . S
C991 H983 0.930 . S
C991 C992 1.355 . S
C991 C993 1.415 . S
C992 C991 1.355 . S
C992 C994 1.419 . S
C993 C988 1.425 . S
C993 C990 1.409 . S
C993 C991 1.415 . S
C994 H984 0.930 . S
C994 C992 1.419 . S
C994 C995 1.362 . S
C995 H985 0.930 . S
C995 C988 1.409 . S
C995 C994 1.362 . S
H996 C1002 0.930 . S
H997 C1005 0.930 . S
H998 C1006 0.930 . S
H999 C1007 0.930 . S
H1000 C1010 0.930 . S
H1001 C1011 0.930 . S
C1002 H996 0.930 . S
C1002 C1003 1.355 . S
C1002 C1004 1.415 . S
C1003 C1002 1.355 . S
C1003 C1005 1.419 . S
C1004 C1002 1.415 . S
C1004 C1009 1.425 . S
C1004 C1011 1.409 . S
C1005 H997 0.930 . S
C1005 C1003 1.419 . S
C1005 C1006 1.362 . S
C1006 H998 0.930 . S
C1006 C1005 1.362 . S
C1006 C1009 1.409 . S
C1007 H999 0.930 . S
C1007 C1008 1.355 . S
C1007 C1009 1.415 . S
C1008 C1007 1.355 . S
C1008 C1010 1.419 . S
C1009 C1004 1.425 . S
C1009 C1006 1.409 . S
C1009 C1007 1.415 . S
C1010 H1000 0.930 . S
C1010 C1008 1.419 . S
C1010 C1011 1.362 . S
C1011 H1001 0.930 . S
C1011 C1004 1.409 . S
C1011 C1010 1.362 . S
H1012 C1018 0.930 . S
H1013 C1021 0.930 . S
H1014 C1022 0.930 . S
H1015 C1023 0.930 . S
H1016 C1026 0.930 . S
H1017 C1027 0.930 . S
C1018 H1012 0.930 . S
C1018 C1019 1.355 . S
C1018 C1020 1.415 . S
C1019 C1018 1.355 . S
C1019 C1021 1.419 . S
C1020 C1018 1.415 . S
C1020 C1025 1.425 . S
C1020 C1027 1.409 . S
C1021 H1013 0.930 . S
C1021 C1019 1.419 . S
C1021 C1022 1.362 . S
C1022 H1014 0.930 . S
C1022 C1021 1.362 . S
C1022 C1025 1.409 . S
C1023 H1015 0.930 . S
C1023 C1024 1.355 . S
C1023 C1025 1.415 . S
C1024 C1023 1.355 . S
C1024 C1026 1.419 . S
C1025 C1020 1.425 . S
C1025 C1022 1.409 . S
C1025 C1023 1.415 . S
C1026 H1016 0.930 . S
C1026 C1024 1.419 . S
C1026 C1027 1.362 . S
C1027 H1017 0.930 . S
C1027 C1020 1.409 . S
C1027 C1026 1.362 . S
H1028 C1034 0.930 . S
H1029 C1037 0.930 . S
H1030 C1038 0.930 . S
H1031 C1039 0.930 . S
H1032 C1042 0.930 . S
H1033 C1043 0.930 . S
C1034 H1028 0.930 . S
C1034 C1035 1.355 . S
C1034 C1036 1.415 . S
C1035 C1034 1.355 . S
C1035 C1037 1.419 . S
C1036 C1034 1.415 . S
C1036 C1041 1.425 . S
C1036 C1043 1.409 . S
C1037 H1029 0.930 . S
C1037 C1035 1.419 . S
C1037 C1038 1.362 . S
C1038 H1030 0.930 . S
C1038 C1037 1.362 . S
C1038 C1041 1.409 . S
C1039 H1031 0.930 . S
C1039 C1040 1.355 . S
C1039 C1041 1.415 . S
C1040 C1039 1.355 . S
C1040 C1042 1.419 . S
C1041 C1036 1.425 . S
C1041 C1038 1.409 . S
C1041 C1039 1.415 . S
C1042 H1032 0.930 . S
C1042 C1040 1.419 . S
C1042 C1043 1.362 . S
C1043 H1033 0.930 . S
C1043 C1036 1.409 . S
C1043 C1042 1.362 . S
H1044 C1050 0.930 . S
H1045 C1053 0.930 . S
H1046 C1054 0.930 . S
H1047 C1055 0.930 . S
H1048 C1058 0.930 . S
H1049 C1059 0.930 . S
C1050 H1044 0.930 . S
C1050 C1051 1.355 . S
C1050 C1052 1.415 . S
C1051 C1050 1.355 . S
C1051 C1053 1.419 . S
C1052 C1050 1.415 . S
C1052 C1057 1.425 . S
C1052 C1059 1.409 . S
C1053 H1045 0.930 . S
C1053 C1051 1.419 . S
C1053 C1054 1.362 . S
C1054 H1046 0.930 . S
C1054 C1053 1.362 . S
C1054 C1057 1.409 . S
C1055 H1047 0.930 . S
C1055 C1056 1.355 . S
C1055 C1057 1.415 . S
C1056 C1055 1.355 . S
C1056 C1058 1.419 . S
C1057 C1052 1.425 . S
C1057 C1054 1.409 . S
C1057 C1055 1.415 . S
C1058 H1048 0.930 . S
C1058 C1056 1.419 . S
C1058 C1059 1.362 . S
C1059 H1049 0.930 . S
C1059 C1052 1.409 . S
C1059 C1058 1.362 . S
H1060 C1066 0.930 . S
H1061 C1069 0.930 . S
H1062 C1070 0.930 . S
H1063 C1071 0.930 . S
H1064 C1074 0.930 . S
H1065 C1075 0.930 . S
C1066 H1060 0.930 . S
C1066 C1067 1.355 . S
C1066 C1068 1.415 . S
C1067 C1066 1.355 . S
C1067 C1069 1.419 . S
C1068 C1066 1.415 . S
C1068 C1073 1.425 . S
C1068 C1075 1.409 . S
C1069 H1061 0.930 . S
C1069 C1067 1.419 . S
C1069 C1070 1.362 . S
C1070 H1062 0.930 . S
C1070 C1069 1.362 . S
C1070 C1073 1.409 . S
C1071 H1063 0.930 . S
C1071 C1072 1.355 . S
C1071 C1073 1.415 . S
C1072 C1071 1.355 . S
C1072 C1074 1.419 . S
C1073 C1068 1.425 . S
C1073 C1070 1.409 . S
C1073 C1071 1.415 . S
C1074 H1064 0.930 . S
C1074 C1072 1.419 . S
C1074 C1075 1.362 . S
C1075 H1065 0.930 . S
C1075 C1068 1.409 . S
C1075 C1074 1.362 . S
C704 C355 1.523 . S
C699 C15 1.506 . S
C720 C435 1.680 . S
C715 C55 1.736 . S
C736 C367 1.602 . S
C731 C101 1.716 . S
C752 C411 1.764 . S
C747 C141 1.966 . S
C768 C479 1.516 . S
C763 C2 1.497 . S
C784 C559 1.474 . S
C779 C61 1.491 . S
C795 C95 1.809 . S
C800 C621 1.739 . S
C816 C677 1.538 . S
C811 C135 1.619 . S
C832 C491 1.594 . S
C827 C42 1.645 . S
C843 C82 1.569 . S
C848 C535 1.438 . S
C864 C597 1.775 . S
C859 C122 2.036 . S
C880 C665 1.484 . S
C875 C21 1.481 . S
C891 C162 1.953 . S
C896 C429 1.743 . S
C912 C349 1.584 . S
C907 C221 1.694 . S
C923 C255 1.722 . S
C928 C417 1.642 . S
C939 C282 1.473 . S
C944 C373 1.540 . S
C960 C615 1.785 . S
C955 C181 2.052 . S
C976 C659 1.489 . S
C971 C202 1.648 . S
C992 C473 1.564 . S
C987 C242 1.703 . S
C1003 C301 1.488 . S
C1008 C541 1.471 . S
C1024 C603 1.716 . S
C1019 C215 1.811 . S
C1040 C683 1.509 . S
C1035 C261 1.510 . S
C1056 C497 1.454 . S
C1051 C295 1.504 . S
C1067 C175 1.621 . S
C1072 C553 1.477 . S
