# Generated by pormake.
# Topology rtl, (3,6)-cn, num edge types: 1
# Building blocks:
#     Node 0, Type 0, BuildingBlock: PAMTOO_clean_linker_0, # of connection points: 3
#     Node 1, Type 0, BuildingBlock: PAMTOO_clean_linker_0, # of connection points: 3
#     Node 2, Type 0, BuildingBlock: PAMTOO_clean_linker_0, # of connection points: 3
#     Node 3, Type 0, BuildingBlock: PAMTOO_clean_linker_0, # of connection points: 3
#     Node 4, Type 1, BuildingBlock: VOLQOD_clean_sbu_1, # of connection points: 6
#     Node 5, Type 1, BuildingBlock: VOLQOD_clean_sbu_1, # of connection points: 6
#     Edge 6, Type (0, 1), BuildingBlock: FUNLAD_clean_linker_1, # of connection points: 2
#     Edge 7, Type (0, 1), BuildingBlock: FUNLAD_clean_linker_1, # of connection points: 2
#     Edge 8, Type (0, 1), BuildingBlock: FUNLAD_clean_linker_1, # of connection points: 2
#     Edge 9, Type (0, 1), BuildingBlock: FUNLAD_clean_linker_1, # of connection points: 2
#     Edge 10, Type (0, 1), BuildingBlock: FUNLAD_clean_linker_1, # of connection points: 2
#     Edge 11, Type (0, 1), BuildingBlock: FUNLAD_clean_linker_1, # of connection points: 2
#     Edge 12, Type (0, 1), BuildingBlock: FUNLAD_clean_linker_1, # of connection points: 2
#     Edge 13, Type (0, 1), BuildingBlock: FUNLAD_clean_linker_1, # of connection points: 2
#     Edge 14, Type (0, 1), BuildingBlock: FUNLAD_clean_linker_1, # of connection points: 2
#     Edge 15, Type (0, 1), BuildingBlock: FUNLAD_clean_linker_1, # of connection points: 2
#     Edge 16, Type (0, 1), BuildingBlock: FUNLAD_clean_linker_1, # of connection points: 2
#     Edge 17, Type (0, 1), BuildingBlock: FUNLAD_clean_linker_1, # of connection points: 2
# Relax obj value: 0.042
# Max RMSD: 0.144
# Mean RMSD: 0.096
data_MOF--net-rtl--node1-VOLQOD_clean_sbu_1--node2-PAMTOO_clean_linker_0--edge1-FUNLAD_clean_linker_1
_symmetry_space_group_name_H-M    P1
_symmetry_Int_Tables_number       1
_symmetry_cell_setting            triclinic
loop_
_symmetry_equiv_pos_as_xyz
'x, y, z'
_cell_length_a     39.166656
_cell_length_b     39.185923
_cell_length_c     22.675174
_cell_angle_alpha  92.418011
_cell_angle_beta   90.379149
_cell_angle_gamma 89.776571
loop_
_atom_site_label
_atom_site_type_symbol
_atom_site_fract_x
_atom_site_fract_y
_atom_site_fract_z
_atom_type_partial_charge
H0 H 0.16118 0.8777 0.01787 0.0
H1 H 0.22552 0.79767 0.08138 0.0
H2 H 0.21702 0.81226 0.89548 0.0
H3 H 0.21939 0.74149 0.92535 0.0
C4 C 0.23487 0.74336 0.96664 0.0
O5 O 0.24606 0.77646 0.97639 0.0
H6 H 0.21864 0.73563 0.00393 0.0
C7 C 0.17824 0.85624 0.00953 0.0
C8 C 0.18689 0.84728 0.95107 0.0
C9 C 0.19125 0.83813 0.05694 0.0
C10 C 0.21484 0.81171 0.04541 0.0
C11 C 0.22405 0.8026 0.98715 0.0
C12 C 0.21008 0.82027 0.94004 0.0
H13 H 0.66122 0.6395 0.52379 0.0
H14 H 0.71924 0.71289 0.43064 0.0
H15 H 0.71889 0.71706 0.61995 0.0
H16 H 0.71185 0.7833 0.56096 0.0
C17 C 0.72977 0.77807 0.52377 0.0
O18 O 0.74231 0.74519 0.52586 0.0
H19 H 0.71591 0.7814 0.48139 0.0
C20 C 0.67699 0.66211 0.52418 0.0
C21 C 0.6877 0.67734 0.57851 0.0
C22 C 0.6878 0.67501 0.47041 0.0
C23 C 0.71043 0.7027 0.47153 0.0
C24 C 0.7213 0.71794 0.52534 0.0
C25 C 0.71021 0.70509 0.57859 0.0
H26 H 0.89216 0.17906 0.02635 0.0
H27 H 0.81961 0.23249 0.92074 0.0
H28 H 0.80853 0.23333 0.10962 0.0
H29 H 0.74617 0.2211 0.03317 0.0
C30 C 0.75085 0.24134 0.00123 0.0
O31 O 0.78282 0.25529 0.01072 0.0
H32 H 0.74909 0.22983 0.95564 0.0
C33 C 0.86951 0.19491 0.02319 0.0
C34 C 0.85139 0.20441 0.07434 0.0
C35 C 0.85819 0.20459 0.96779 0.0
C36 C 0.82874 0.2249 0.96348 0.0
C37 C 0.81105 0.23557 0.01477 0.0
C38 C 0.82256 0.2255 0.07026 0.0
H39 H 0.366 0.36086 0.5084 0.0
H40 H 0.29555 0.28858 0.57689 0.0
H41 H 0.29468 0.30817 0.39216 0.0
H42 H 0.22743 0.30154 0.44135 0.0
C43 C 0.23289 0.28378 0.47723 0.0
O44 O 0.26658 0.27351 0.47466 0.0
H45 H 0.22757 0.29732 0.52039 0.0
C46 C 0.34493 0.34322 0.5019 0.0
C47 C 0.3322 0.33688 0.44463 0.0
C48 C 0.33179 0.32628 0.55015 0.0
C49 C 0.30582 0.30215 0.54034 0.0
C50 C 0.2924 0.29595 0.4834 0.0
C51 C 0.30564 0.31313 0.43559 0.0
O52 O 0.93124 0.96706 0.50378 0.0
Zn53 Zn 0.9553 0.01246 0.50714 0.0
O54 O 0.00501 0.00732 0.50777 0.0
Zn55 Zn 0.0241 0.0261 0.5827 0.0
Zn56 Zn 0.01576 0.95869 0.49911 0.0
Zn57 Zn 0.02444 0.03136 0.44163 0.0
O58 O 0.05843 0.06304 0.56789 0.0
O59 O 0.05786 0.06752 0.4705 0.0
O60 O 0.93968 0.03891 0.57974 0.0
O61 O 0.98687 0.04827 0.63308 0.0
O62 O 0.04884 0.98949 0.62775 0.0
O63 O 0.0437 0.94365 0.56718 0.0
O64 O 0.04383 0.94846 0.42718 0.0
O65 O 0.93939 0.03862 0.43752 0.0
O66 O 0.04966 0.99852 0.38579 0.0
O67 O 0.98752 0.05476 0.39554 0.0
C68 C 0.94185 0.93635 0.49809 0.0
C69 C 0.06887 0.07691 0.52161 0.0
C70 C 0.05483 0.95806 0.61465 0.0
C71 C 0.95474 0.05152 0.62543 0.0
C72 C 0.05546 0.96655 0.38663 0.0
C73 C 0.95504 0.05474 0.39846 0.0
O74 O 0.97353 0.92935 0.49469 0.0
O75 O 0.58461 0.47792 0.00548 0.0
Zn76 Zn 0.55348 0.51922 0.01055 0.0
O77 O 0.50529 0.50548 0.00734 0.0
Zn78 Zn 0.4826 0.52668 0.9409 0.0
Zn79 Zn 0.50249 0.45559 0.99709 0.0
Zn80 Zn 0.48232 0.52035 0.08058 0.0
O81 O 0.44538 0.55942 0.96807 0.0
O82 O 0.44515 0.5548 0.06538 0.0
O83 O 0.5654 0.54854 0.94227 0.0
O84 O 0.51618 0.5527 0.89362 0.0
O85 O 0.46142 0.49105 0.88576 0.0
O86 O 0.4768 0.4416 0.92275 0.0
O87 O 0.4765 0.43558 0.06329 0.0
O88 O 0.56423 0.54524 0.08726 0.0
O89 O 0.46055 0.48051 0.11975 0.0
O90 O 0.51576 0.54302 0.13759 0.0
C91 C 0.57939 0.44593 -0.001 0.0
C92 C 0.43347 0.56777 0.01881 0.0
C93 C 0.46144 0.45856 0.88385 0.0
C94 C 0.54782 0.55932 0.89932 0.0
C95 C 0.46079 0.44843 0.10784 0.0
C96 C 0.54688 0.55186 0.13375 0.0
O97 O 0.5493 0.43378 0.99469 0.0
H98 H 0.20028 0.24675 0.42502 0.0
C99 C 0.21004 0.25328 0.46903 0.0
H100 H 0.21129 0.24075 0.55848 0.0
H101 H 0.06689 0.1678 0.5383 0.0
H102 H 0.05217 0.21981 0.59396 0.0
H103 H 0.09454 0.26565 0.61088 0.0
H104 H 0.1518 0.25982 0.57168 0.0
C105 C 0.20199 0.2339 0.5143 0.0
C106 C 0.17737 0.20518 0.50668 0.0
C107 C 0.1443 0.20856 0.53135 0.0
C108 C 0.1201 0.18179 0.5227 0.0
C109 C 0.0867 0.18669 0.54524 0.0
C110 C 0.07779 0.2166 0.5769 0.0
C111 C 0.10162 0.24243 0.58634 0.0
C112 C 0.13444 0.23869 0.56369 0.0
H113 H 0.10324 0.11178 0.5725 0.0
C114 C 0.09386 0.10494 0.52835 0.0
H115 H 0.0961 0.11574 0.43791 0.0
H116 H 0.23933 0.18952 0.45701 0.0
H117 H 0.25424 0.13736 0.4016 0.0
H118 H 0.2123 0.09096 0.38637 0.0
H119 H 0.15522 0.0964 0.42663 0.0
C120 C 0.10452 0.12272 0.48254 0.0
C121 C 0.12939 0.15123 0.49081 0.0
C122 C 0.16249 0.14786 0.46621 0.0
C123 C 0.18658 0.17477 0.47446 0.0
C124 C 0.21978 0.17024 0.45095 0.0
C125 C 0.22876 0.14033 0.41935 0.0
C126 C 0.20515 0.1142 0.41082 0.0
C127 C 0.17243 0.1177 0.43406 0.0
H128 H 0.27398 0.713 0.91569 0.0
C129 C 0.26493 0.71967 0.95992 0.0
H130 H 0.27153 0.71339 0.05111 0.0
H131 H 0.34175 0.56815 0.01145 0.0
H132 H 0.28655 0.55227 0.04895 0.0
H133 H 0.24111 0.59536 0.06487 0.0
H134 H 0.25056 0.65458 0.04287 0.0
C135 C 0.28094 0.70717 0.00695 0.0
C136 C 0.30919 0.68179 -0.0001 0.0
C137 C 0.30358 0.64743 0.01446 0.0
C138 C 0.33003 0.62269 0.00641 0.0
C139 C 0.32306 0.58825 0.01859 0.0
C140 C 0.29134 0.57869 0.0397 0.0
C141 C 0.26574 0.60294 0.04857 0.0
C142 C 0.27157 0.63689 0.0359 0.0
H143 H 0.39609 0.59963 0.06875 0.0
C144 C 0.40531 0.59285 0.02466 0.0
H145 H 0.40008 0.60138 0.93362 0.0
H146 H 0.3293 0.74597 0.97191 0.0
H147 H 0.38461 0.76197 0.93467 0.0
H148 H 0.43036 0.71907 0.9201 0.0
H149 H 0.42114 0.65992 0.94292 0.0
C150 C 0.39057 0.60708 0.97788 0.0
C151 C 0.36241 0.63258 0.98527 0.0
C152 C 0.36801 0.66696 0.97074 0.0
C153 C 0.34148 0.69164 0.97847 0.0
C154 C 0.34822 0.726 0.96552 0.0
C155 C 0.37995 0.7356 0.94446 0.0
C156 C 0.40572 0.71145 0.93631 0.0
C157 C 0.40004 0.67754 0.94945 0.0
H158 H 0.75795 0.82259 0.56455 0.0
C159 C 0.75851 0.80321 0.52881 0.0
H160 H 0.78358 0.78456 0.4521 0.0
H161 H 0.85587 0.92398 0.40156 0.0
H162 H 0.8168 0.9175 0.31846 0.0
H163 H 0.7742 0.87125 0.31373 0.0
H164 H 0.77054 0.83108 0.39182 0.0
C165 C 0.78383 0.80308 0.48917 0.0
C166 C 0.81055 0.83007 0.4914 0.0
C167 C 0.81222 0.85344 0.44543 0.0
C168 C 0.83644 0.88042 0.44856 0.0
C169 C 0.83771 0.90325 0.4018 0.0
C170 C 0.81547 0.8998 0.35376 0.0
C171 C 0.79152 0.87374 0.35107 0.0
C172 C 0.78975 0.8508 0.39622 0.0
H173 H 0.92701 0.88201 0.49026 0.0
C174 C 0.91719 0.90792 0.49588 0.0
H175 H 0.87302 0.9388 0.50512 0.0
H176 H 0.81774 0.78675 0.58254 0.0
H177 H 0.85574 0.7941 0.66691 0.0
H178 H 0.89465 0.84342 0.67613 0.0
H179 H 0.89627 0.88525 0.60049 0.0
C180 C 0.88338 0.91305 0.50122 0.0
C181 C 0.85885 0.8841 0.49773 0.0
C182 C 0.85736 0.8606 0.54358 0.0
C183 C 0.83374 0.83309 0.5397 0.0
C184 C 0.83409 0.80894 0.58447 0.0
C185 C 0.85596 0.81271 0.63296 0.0
C186 C 0.87796 0.8404 0.63804 0.0
C187 C 0.87876 0.86414 0.59406 0.0
H188 H 0.70404 0.26471 0.04187 0.0
C189 C 0.72382 0.26838 0.00934 0.0
H190 H 0.74165 0.29866 0.94159 0.0
H191 H 0.59916 0.36612 0.88617 0.0
H192 H 0.60983 0.33219 0.79624 0.0
H193 H 0.65868 0.29234 0.78945 0.0
H194 H 0.69729 0.28633 0.87232 0.0
C195 C 0.72268 0.29581 0.97579 0.0
C196 C 0.69378 0.32069 0.97996 0.0
C197 C 0.67128 0.32373 0.93115 0.0
C198 C 0.64277 0.3463 0.93538 0.0
C199 C 0.62095 0.34906 0.8857 0.0
C200 C 0.6268 0.32977 0.83372 0.0
C201 C 0.65433 0.30737 0.82987 0.0
C202 C 0.67635 0.30424 0.87784 0.0
H203 H 0.63458 0.43403 -0.00131 0.0
C204 C 0.60925 0.42275 0.99669 0.0
H205 H 0.58107 0.3769 0.98893 0.0
H206 H 0.73456 0.32497 0.0787 0.0
H207 H 0.72296 0.35757 0.16964 0.0
H208 H 0.67104 0.39311 0.17976 0.0
H209 H 0.63081 0.39682 0.09862 0.0
C210 C 0.60616 0.38857 0.99269 0.0
C211 C 0.63663 0.36569 0.98849 0.0
C212 C 0.65916 0.36274 0.03732 0.0
C213 C 0.68822 0.34087 0.03253 0.0
C214 C 0.71132 0.33995 0.08077 0.0
C215 C 0.7051 0.35874 0.13313 0.0
C216 C 0.67595 0.37886 0.13874 0.0
C217 C 0.65315 0.38092 0.0916 0.0
H218 H 0.19797 0.84188 0.15457 0.0
C219 C 0.18054 0.847 0.11848 0.0
H220 H 0.13091 0.86352 0.09564 0.0
H221 H 0.05291 0.86485 0.3294 0.0
H222 H 0.03093 0.81274 0.2823 0.0
H223 H 0.05848 0.7869 0.19356 0.0
H224 H 0.10813 0.81326 0.15119 0.0
C225 C 0.14986 0.86121 0.1304 0.0
C226 C 0.1389 0.87249 0.19067 0.0
C227 C 0.11061 0.85625 0.216 0.0
C228 C 0.09517 0.8708 0.26777 0.0
C229 C 0.06606 0.8547 0.29068 0.0
C230 C 0.0531 0.82476 0.264 0.0
C231 C 0.06857 0.81024 0.21399 0.0
C232 C 0.09695 0.82571 0.19002 0.0
H233 H 0.0807 0.96418 0.29979 0.0
C234 C 0.07614 0.95013 0.3393 0.0
H235 H 0.08509 0.9045 0.38346 0.0
H236 H 0.19331 0.91027 0.15418 0.0
H237 H 0.21819 0.95948 0.20594 0.0
H238 H 0.19451 0.98155 0.30068 0.0
H239 H 0.14514 0.9549 0.34331 0.0
C240 C 0.08959 0.91871 0.34414 0.0
C241 C 0.1084 0.90137 0.29448 0.0
C242 C 0.13857 0.91589 0.27217 0.0
C243 C 0.15333 0.90201 0.21923 0.0
C244 C 0.18177 0.91876 0.1954 0.0
C245 C 0.19628 0.9472 0.22458 0.0
C246 C 0.18287 0.9597 0.27779 0.0
C247 C 0.15437 0.94434 0.30152 0.0
H248 H 0.69357 0.66708 0.67354 0.0
C249 C 0.67656 0.664 0.63561 0.0
H250 H 0.62828 0.64636 0.60549 0.0
H251 H 0.60965 0.53207 0.78703 0.0
H252 H 0.62311 0.49794 0.69836 0.0
H253 H 0.64308 0.52516 0.60877 0.0
H254 H 0.6497 0.58662 0.60725 0.0
C255 C 0.64604 0.6491 0.64233 0.0
C256 C 0.63636 0.63304 0.69806 0.0
C257 C 0.63274 0.59705 0.69819 0.0
C258 C 0.62123 0.58134 0.74976 0.0
C259 C 0.61798 0.54533 0.7488 0.0
C260 C 0.62574 0.52543 0.69829 0.0
C261 C 0.63698 0.54075 0.64785 0.0
C262 C 0.64056 0.5761 0.64756 0.0
H263 H 0.54847 0.58608 0.8159 0.0
C264 C 0.56426 0.57856 0.85283 0.0
H265 H 0.61438 0.57836 0.88867 0.0
H266 H 0.6394 0.70286 0.71251 0.0
H267 H 0.62717 0.73656 0.80206 0.0
H268 H 0.60888 0.70893 0.89233 0.0
H269 H 0.60245 0.6473 0.89336 0.0
C270 C 0.5978 0.5855 0.8526 0.0
C271 C 0.61315 0.60167 0.80096 0.0
C272 C 0.61783 0.63749 0.80159 0.0
C273 C 0.62909 0.65331 0.74985 0.0
C274 C 0.63189 0.68935 0.75092 0.0
C275 C 0.62474 0.70905 0.80198 0.0
C276 C 0.61438 0.6935 0.85279 0.0
C277 C 0.61079 0.65815 0.85279 0.0
H278 H 0.87012 0.20937 0.16677 0.0
C279 C 0.86284 0.19129 0.1313 0.0
H280 H 0.85954 0.14014 0.10041 0.0
H281 H 0.98185 0.07632 0.23198 0.0
H282 H 0.99788 0.0684 0.12941 0.0
H283 H 0.96441 0.09506 0.05106 0.0
H284 H 0.91468 0.12941 0.07473 0.0
C285 C 0.86725 0.1575 0.13674 0.0
C286 C 0.88783 0.14301 0.18522 0.0
C287 C 0.9175 0.12353 0.17054 0.0
C288 C 0.93729 0.1088 0.21576 0.0
C289 C 0.96619 0.08866 0.19963 0.0
C290 C 0.97569 0.0838 0.14081 0.0
C291 C 0.95683 0.09875 0.09673 0.0
C292 C 0.92815 0.1184 0.11109 0.0
H293 H 0.90759 0.06752 0.35122 0.0
C294 C 0.93463 0.07339 0.3554 0.0
H295 H 0.97527 0.10329 0.32582 0.0
H296 H 0.83008 0.17478 0.22855 0.0
H297 H 0.81595 0.18544 0.33159 0.0
H298 H 0.85383 0.16535 0.41037 0.0
H299 H 0.90554 0.13364 0.38646 0.0
C300 C 0.94822 0.0974 0.32221 0.0
C301 C 0.92781 0.11403 0.27568 0.0
C302 C 0.89878 0.13436 0.29055 0.0
C303 C 0.87811 0.14789 0.24517 0.0
C304 C 0.84773 0.16558 0.26116 0.0
C305 C 0.83914 0.17162 0.3202 0.0
C306 C 0.86037 0.16017 0.36454 0.0
C307 C 0.88986 0.14175 0.35017 0.0
H308 H 0.34769 0.3117 0.63999 0.0
C309 C 0.34622 0.33272 0.61029 0.0
H310 H 0.35625 0.38501 0.59926 0.0
H311 H 0.381 0.39202 0.88479 0.0
H312 H 0.32075 0.37868 0.89365 0.0
H313 H 0.2865 0.36119 0.80585 0.0
H314 H 0.31226 0.35673 0.70874 0.0
C315 C 0.35829 0.36359 0.62798 0.0
C316 C 0.3791 0.36918 0.68241 0.0
C317 C 0.3636 0.37132 0.73873 0.0
C318 C 0.38324 0.3818 0.78927 0.0
C319 C 0.36716 0.38428 0.845 0.0
C320 C 0.33264 0.37671 0.85067 0.0
C321 C 0.31336 0.36682 0.80123 0.0
C322 C 0.32848 0.36427 0.74575 0.0
H323 H 0.43397 0.45572 0.79881 0.0
C324 C 0.44319 0.44062 0.83484 0.0
H325 H 0.4446 0.39138 0.87005 0.0
H326 H 0.41747 0.3637 0.5818 0.0
H327 H 0.478 0.37542 0.57375 0.0
H328 H 0.51196 0.39349 0.66157 0.0
H329 H 0.4855 0.40004 0.75796 0.0
C330 C 0.43701 0.4069 0.83357 0.0
C331 C 0.41804 0.3906 0.78298 0.0
C332 C 0.43403 0.3863 0.72732 0.0
C333 C 0.4145 0.37571 0.6769 0.0
C334 C 0.43102 0.37199 0.62157 0.0
C335 C 0.46579 0.37848 0.61635 0.0
C336 C 0.48491 0.38866 0.66578 0.0
C337 C 0.46937 0.39251 0.72075 0.0
H338 H 0.69261 0.66276 0.37436 0.0
C339 C 0.67647 0.65958 0.41259 0.0
H340 H 0.62856 0.64191 0.44119 0.0
H341 H 0.56368 0.63973 0.18479 0.0
H342 H 0.54172 0.69415 0.22317 0.0
H343 H 0.56225 0.71917 0.31852 0.0
H344 H 0.60513 0.69004 0.3758 0.0
C345 C 0.64655 0.6432 0.40516 0.0
C346 C 0.6355 0.62873 0.3465 0.0
C347 C 0.61003 0.64577 0.31413 0.0
C348 C 0.5977 0.63101 0.25976 0.0
C349 C 0.57315 0.64922 0.22727 0.0
C350 C 0.56052 0.68063 0.24857 0.0
C351 C 0.57212 0.69474 0.30221 0.0
C352 C 0.59666 0.6777 0.33471 0.0
H353 H 0.54728 0.57465 0.22428 0.0
C354 C 0.56274 0.57019 0.18501 0.0
H355 H 0.61132 0.57646 0.14689 0.0
H356 H 0.6848 0.58963 0.3974 0.0
H357 H 0.70735 0.5356 0.35843 0.0
H358 H 0.68589 0.50988 0.26423 0.0
H359 H 0.64169 0.538 0.20847 0.0
C360 C 0.5951 0.58147 0.185 0.0
C361 C 0.61027 0.59877 0.23868 0.0
C362 C 0.63664 0.58233 0.27004 0.0
C363 C 0.64917 0.59725 0.3242 0.0
C364 C 0.67469 0.57971 0.35563 0.0
C365 C 0.68778 0.5486 0.33387 0.0
C366 C 0.67569 0.53412 0.28085 0.0
C367 C 0.65034 0.55058 0.24923 0.0
H368 H 0.90507 0.19072 0.91948 0.0
C369 C 0.87736 0.19159 0.91577 0.0
H370 H 0.83451 0.1727 0.86771 0.0
H371 H 0.92986 0.13875 0.64285 0.0
H372 H 0.89925 0.18807 0.60845 0.0
H373 H 0.86068 0.2213 0.67476 0.0
H374 H 0.85264 0.20542 0.77612 0.0
C375 C 0.86217 0.17378 0.87123 0.0
C376 C 0.883 0.15197 0.82983 0.0
C377 C 0.88676 0.16104 0.77048 0.0
C378 C 0.90854 0.14148 0.73201 0.0
C379 C 0.91291 0.15202 0.67355 0.0
C380 C 0.89566 0.18046 0.65333 0.0
C381 C 0.87399 0.19921 0.69069 0.0
C382 C 0.86959 0.18981 0.74871 0.0
H383 H 0.90651 0.07184 0.66225 0.0
C384 C 0.93406 0.07163 0.66854 0.0
H385 H 0.97532 0.09116 0.7201 0.0
H386 H 0.87831 0.12497 0.93939 0.0
H387 H 0.90929 0.07608 0.97411 0.0
H388 H 0.94829 0.04316 0.90815 0.0
H389 H 0.95636 0.05896 0.80689 0.0
C390 C 0.94791 0.09116 0.71241 0.0
C391 C 0.92597 0.11245 0.75282 0.0
C392 C 0.92207 0.10328 0.81214 0.0
C393 C 0.90015 0.12271 0.85048 0.0
C394 C 0.89557 0.11199 0.90885 0.0
C395 C 0.91297 0.08371 0.92927 0.0
C396 C 0.93488 0.06516 0.89211 0.0
C397 C 0.93932 0.07456 0.8341 0.0
H398 H 0.36291 0.37837 0.40962 0.0
C399 C 0.34764 0.3561 0.39655 0.0
H400 H 0.33197 0.32468 0.32268 0.0
H401 H 0.3617 0.44951 0.15588 0.0
H402 H 0.29981 0.44758 0.15112 0.0
H403 H 0.26751 0.40869 0.21267 0.0
H404 H 0.29696 0.37128 0.27916 0.0
C405 C 0.34643 0.34672 0.33892 0.0
C406 C 0.36593 0.36669 0.29613 0.0
C407 C 0.34839 0.38817 0.25735 0.0
C408 C 0.36703 0.41082 0.22232 0.0
C409 C 0.34883 0.43204 0.18392 0.0
C410 C 0.3133 0.43115 0.18069 0.0
C411 C 0.29511 0.40924 0.21533 0.0
C412 C 0.31231 0.38796 0.25334 0.0
H413 H 0.44461 0.39778 0.13569 0.0
C414 C 0.44225 0.42509 0.14553 0.0
H415 H 0.41847 0.46343 0.19939 0.0
H416 H 0.40751 0.32482 0.3586 0.0
H417 H 0.46931 0.32733 0.36521 0.0
H418 H 0.50153 0.36943 0.31008 0.0
H419 H 0.47223 0.40878 0.24734 0.0
C420 C 0.42239 0.43624 0.19042 0.0
C421 C 0.40318 0.41187 0.22616 0.0
C422 C 0.42078 0.3898 0.26411 0.0
C423 C 0.40215 0.36661 0.29799 0.0
C424 C 0.42036 0.34382 0.33362 0.0
C425 C 0.45584 0.34484 0.33754 0.0
C426 C 0.47397 0.36845 0.30633 0.0
C427 C 0.45681 0.39076 0.27009 0.0
H428 H 0.14832 0.88288 0.91789 0.0
C429 C 0.16923 0.86603 0.90404 0.0
H430 H 0.19781 0.84881 0.82908 0.0
H431 H 0.04497 0.90665 0.74143 0.0
H432 H 0.02319 0.85454 0.78071 0.0
H433 H 0.06179 0.81423 0.82907 0.0
H434 H 0.12232 0.8263 0.83948 0.0
C435 C 0.17639 0.86369 0.84618 0.0
C436 C 0.15522 0.88349 0.80476 0.0
C437 C 0.1203 0.87513 0.79599 0.0
C438 C 0.09844 0.89742 0.76527 0.0
C439 C 0.06313 0.88978 0.76152 0.0
C440 C 0.0502 0.86007 0.78442 0.0
C441 C 0.07189 0.83746 0.81187 0.0
C442 C 0.10653 0.8448 0.81785 0.0
H443 H 0.08016 0.91066 0.63969 0.0
C444 C 0.07576 0.93721 0.65366 0.0
H445 H 0.08693 0.97606 0.71821 0.0
H446 H 0.22121 0.90579 0.81115 0.0
H447 H 0.24387 0.95646 0.76759 0.0
H448 H 0.20666 0.99383 0.7101 0.0
H449 H 0.14653 0.98102 0.69627 0.0
C450 C 0.08983 0.94932 0.70438 0.0
C451 C 0.11203 0.92699 0.74005 0.0
C452 C 0.14724 0.93465 0.74701 0.0
C453 C 0.16884 0.91289 0.77951 0.0
C454 C 0.20375 0.92141 0.78666 0.0
C455 C 0.21709 0.95037 0.76182 0.0
C456 C 0.19613 0.97142 0.72947 0.0
C457 C 0.16162 0.96377 0.72193 0.0
loop_
_geom_bond_atom_site_label_1
_geom_bond_atom_site_label_2
_geom_bond_distance
_geom_bond_site_symmetry_2
_ccdc_geom_bond_type
H0 C7 0.929 . S
H1 C10 0.930 . S
H2 C12 0.929 . S
H3 C4 0.969 . S
C4 H3 0.969 . S
C4 O5 1.550 1_554 S
C4 H6 0.973 . S
O5 C4 1.550 1_556 S
O5 C11 1.412 . S
H6 C4 0.973 . S
C7 H0 0.929 . S
C7 C8 1.400 1_554 S
C7 C9 1.364 . S
C8 C7 1.400 1_556 S
C8 C12 1.377 . S
C9 C7 1.364 . S
C9 C10 1.374 . S
C10 H1 0.930 . S
C10 C9 1.374 . S
C10 C11 1.383 1_554 S
C11 O5 1.412 . S
C11 C10 1.383 1_556 S
C11 C12 1.394 . S
C12 H2 0.929 . S
C12 C8 1.377 . S
C12 C11 1.394 . S
H13 C20 0.929 . S
H14 C23 0.930 . S
H15 C25 0.929 . S
H16 C17 0.969 . S
C17 H16 0.969 . S
C17 O18 1.550 . S
C17 H19 0.973 . S
O18 C17 1.550 . S
O18 C24 1.412 . S
H19 C17 0.973 . S
C20 H13 0.929 . S
C20 C21 1.400 . S
C20 C22 1.364 . S
C21 C20 1.400 . S
C21 C25 1.377 . S
C22 C20 1.364 . S
C22 C23 1.374 . S
C23 H14 0.930 . S
C23 C22 1.374 . S
C23 C24 1.383 . S
C24 O18 1.412 . S
C24 C23 1.383 . S
C24 C25 1.394 . S
C25 H15 0.929 . S
C25 C21 1.377 . S
C25 C24 1.394 . S
H26 C33 0.929 . S
H27 C36 0.930 . S
H28 C38 0.929 . S
H29 C30 0.969 . S
C30 H29 0.969 . S
C30 O31 1.550 1_556 S
C30 H32 0.973 . S
O31 C30 1.550 1_554 S
O31 C37 1.412 . S
H32 C30 0.973 . S
C33 H26 0.929 . S
C33 C34 1.400 . S
C33 C35 1.364 1_554 S
C34 C33 1.400 . S
C34 C38 1.377 . S
C35 C33 1.364 1_556 S
C35 C36 1.374 . S
C36 H27 0.930 . S
C36 C35 1.374 . S
C36 C37 1.383 1_556 S
C37 O31 1.412 . S
C37 C36 1.383 1_554 S
C37 C38 1.394 . S
C38 H28 0.929 . S
C38 C34 1.377 . S
C38 C37 1.394 . S
H39 C46 0.929 . S
H40 C49 0.930 . S
H41 C51 0.929 . S
H42 C43 0.969 . S
C43 H42 0.969 . S
C43 O44 1.550 . S
C43 H45 0.973 . S
O44 C43 1.550 . S
O44 C50 1.412 . S
H45 C43 0.973 . S
C46 H39 0.929 . S
C46 C47 1.400 . S
C46 C48 1.364 . S
C47 C46 1.400 . S
C47 C51 1.377 . S
C48 C46 1.364 . S
C48 C49 1.374 . S
C49 H40 0.930 . S
C49 C48 1.374 . S
C49 C50 1.383 . S
C50 O44 1.412 . S
C50 C49 1.383 . S
C50 C51 1.394 . S
C51 H41 0.929 . S
C51 C47 1.377 . S
C51 C50 1.394 . S
O52 Zn53 1.953 1_565 S
O52 C68 1.225 . S
Zn53 O52 1.953 1_545 S
Zn53 O54 1.949 1_655 S
Zn53 O60 1.919 . S
Zn53 O65 1.924 . S
O54 Zn53 1.949 1_455 S
O54 Zn55 1.923 . S
O54 Zn56 1.950 1_545 S
O54 Zn57 1.945 . S
Zn55 O54 1.923 . S
Zn55 O58 1.933 . S
Zn55 O61 1.941 . S
Zn55 O62 1.965 1_545 S
Zn56 O54 1.950 1_565 S
Zn56 O63 1.938 . S
Zn56 O64 1.906 . S
Zn56 O74 1.953 1_455 S
Zn57 O54 1.945 . S
Zn57 O59 1.932 . S
Zn57 O66 1.977 1_545 S
Zn57 O67 1.910 1_455 S
O58 Zn55 1.933 . S
O58 C69 1.226 . S
O59 Zn57 1.932 . S
O59 C69 1.307 . S
O60 Zn53 1.919 . S
O60 C71 1.253 . S
O61 Zn55 1.941 . S
O61 C71 1.283 1_455 S
O62 Zn55 1.965 1_565 S
O62 C70 1.303 . S
O63 Zn56 1.938 . S
O63 C70 1.247 . S
O64 Zn56 1.906 . S
O64 C72 1.304 . S
O65 Zn53 1.924 . S
O65 C73 1.311 . S
O66 Zn57 1.977 1_565 S
O66 C72 1.272 . S
O67 Zn57 1.910 1_655 S
O67 C73 1.231 . S
C68 O52 1.225 . S
C68 O74 1.298 . S
C69 O58 1.226 . S
C69 O59 1.307 . S
C70 O62 1.303 . S
C70 O63 1.247 . S
C71 O60 1.253 . S
C71 O61 1.283 1_655 S
C72 O64 1.304 . S
C72 O66 1.272 . S
C73 O65 1.311 . S
C73 O67 1.231 . S
O74 Zn56 1.953 1_655 S
O74 C68 1.298 . S
O75 Zn76 1.953 . S
O75 C91 1.225 1_556 S
Zn76 O75 1.953 . S
Zn76 O77 1.949 1_556 S
Zn76 O83 1.919 . S
Zn76 O88 1.924 1_556 S
O77 Zn76 1.949 1_554 S
O77 Zn78 1.923 1_554 S
O77 Zn79 1.950 . S
O77 Zn80 1.945 . S
Zn78 O77 1.923 1_556 S
Zn78 O81 1.933 . S
Zn78 O84 1.941 . S
Zn78 O85 1.965 . S
Zn79 O77 1.950 . S
Zn79 O86 1.938 1_554 S
Zn79 O87 1.906 . S
Zn79 O97 1.953 . S
Zn80 O77 1.945 . S
Zn80 O82 1.932 . S
Zn80 O89 1.977 . S
Zn80 O90 1.910 . S
O81 Zn78 1.933 . S
O81 C92 1.226 1_556 S
O82 Zn80 1.932 . S
O82 C92 1.307 . S
O83 Zn76 1.919 . S
O83 C94 1.253 . S
O84 Zn78 1.941 . S
O84 C94 1.283 . S
O85 Zn78 1.965 . S
O85 C93 1.303 . S
O86 Zn79 1.938 1_556 S
O86 C93 1.247 . S
O87 Zn79 1.906 . S
O87 C95 1.304 . S
O88 Zn76 1.924 1_554 S
O88 C96 1.311 . S
O89 Zn80 1.977 . S
O89 C95 1.272 . S
O90 Zn80 1.910 . S
O90 C96 1.231 . S
C91 O75 1.225 1_554 S
C91 O97 1.298 . S
C92 O81 1.226 1_554 S
C92 O82 1.307 . S
C93 O85 1.303 . S
C93 O86 1.247 . S
C94 O83 1.253 . S
C94 O84 1.283 . S
C95 O87 1.304 . S
C95 O89 1.272 . S
C96 O88 1.311 . S
C96 O90 1.231 . S
O97 Zn79 1.953 . S
O97 C91 1.298 . S
H98 C99 0.951 . S
C99 H98 0.951 . S
C99 C105 1.265 . S
H100 C105 0.950 . S
H101 C109 0.949 . S
H102 C110 0.950 . S
H103 C111 0.951 . S
H104 C112 0.951 . S
C105 C99 1.265 . S
C105 H100 0.950 . S
C105 C106 1.478 . S
C106 C105 1.478 . S
C106 C107 1.397 . S
C106 C123 1.394 . S
C107 C106 1.397 . S
C107 C108 1.438 . S
C107 C112 1.429 . S
C108 C107 1.438 . S
C108 C109 1.428 . S
C108 C121 1.394 . S
C109 H101 0.949 . S
C109 C108 1.428 . S
C109 C110 1.345 . S
C110 H102 0.950 . S
C110 C109 1.345 . S
C110 C111 1.424 . S
C111 H103 0.951 . S
C111 C110 1.424 . S
C111 C112 1.347 . S
C112 H104 0.951 . S
C112 C107 1.429 . S
C112 C111 1.347 . S
H113 C114 0.951 . S
C114 H113 0.951 . S
C114 C120 1.265 . S
H115 C120 0.950 . S
H116 C124 0.949 . S
H117 C125 0.950 . S
H118 C126 0.951 . S
H119 C127 0.951 . S
C120 C114 1.265 . S
C120 H115 0.950 . S
C120 C121 1.478 . S
C121 C108 1.394 . S
C121 C120 1.478 . S
C121 C122 1.397 . S
C122 C121 1.397 . S
C122 C123 1.438 . S
C122 C127 1.429 . S
C123 C106 1.394 . S
C123 C122 1.438 . S
C123 C124 1.428 . S
C124 H116 0.949 . S
C124 C123 1.428 . S
C124 C125 1.345 . S
C125 H117 0.950 . S
C125 C124 1.345 . S
C125 C126 1.424 . S
C126 H118 0.951 . S
C126 C125 1.424 . S
C126 C127 1.347 . S
C127 H119 0.951 . S
C127 C122 1.429 . S
C127 C126 1.347 . S
H128 C129 0.951 . S
C129 H128 0.951 . S
C129 C135 1.265 . S
H130 C135 0.950 . S
H131 C139 0.949 . S
H132 C140 0.950 . S
H133 C141 0.951 . S
H134 C142 0.951 . S
C135 C129 1.265 . S
C135 H130 0.950 . S
C135 C136 1.478 . S
C136 C135 1.478 . S
C136 C137 1.397 . S
C136 C153 1.394 1_554 S
C137 C136 1.397 . S
C137 C138 1.438 . S
C137 C142 1.429 . S
C138 C137 1.438 . S
C138 C139 1.428 . S
C138 C151 1.394 . S
C139 H131 0.949 . S
C139 C138 1.428 . S
C139 C140 1.345 . S
C140 H132 0.950 . S
C140 C139 1.345 . S
C140 C141 1.424 . S
C141 H133 0.951 . S
C141 C140 1.424 . S
C141 C142 1.347 . S
C142 H134 0.951 . S
C142 C137 1.429 . S
C142 C141 1.347 . S
H143 C144 0.951 . S
C144 H143 0.951 . S
C144 C150 1.265 . S
H145 C150 0.950 . S
H146 C154 0.949 . S
H147 C155 0.950 . S
H148 C156 0.951 . S
H149 C157 0.951 . S
C150 C144 1.265 . S
C150 H145 0.950 . S
C150 C151 1.478 . S
C151 C138 1.394 . S
C151 C150 1.478 . S
C151 C152 1.397 1_554 S
C152 C151 1.397 1_556 S
C152 C153 1.438 . S
C152 C157 1.429 . S
C153 C136 1.394 1_556 S
C153 C152 1.438 . S
C153 C154 1.428 . S
C154 H146 0.949 . S
C154 C153 1.428 . S
C154 C155 1.345 . S
C155 H147 0.950 . S
C155 C154 1.345 . S
C155 C156 1.424 . S
C156 H148 0.951 . S
C156 C155 1.424 . S
C156 C157 1.347 . S
C157 H149 0.951 . S
C157 C152 1.429 . S
C157 C156 1.347 . S
H158 C159 0.951 . S
C159 H158 0.951 . S
C159 C165 1.265 . S
H160 C165 0.950 . S
H161 C169 0.949 . S
H162 C170 0.950 . S
H163 C171 0.951 . S
H164 C172 0.951 . S
C165 C159 1.265 . S
C165 H160 0.950 . S
C165 C166 1.478 . S
C166 C165 1.478 . S
C166 C167 1.397 . S
C166 C183 1.394 . S
C167 C166 1.397 . S
C167 C168 1.438 . S
C167 C172 1.429 . S
C168 C167 1.438 . S
C168 C169 1.428 . S
C168 C181 1.394 . S
C169 H161 0.949 . S
C169 C168 1.428 . S
C169 C170 1.345 . S
C170 H162 0.950 . S
C170 C169 1.345 . S
C170 C171 1.424 . S
C171 H163 0.951 . S
C171 C170 1.424 . S
C171 C172 1.347 . S
C172 H164 0.951 . S
C172 C167 1.429 . S
C172 C171 1.347 . S
H173 C174 0.951 . S
C174 H173 0.951 . S
C174 C180 1.265 . S
H175 C180 0.950 . S
H176 C184 0.949 . S
H177 C185 0.950 . S
H178 C186 0.951 . S
H179 C187 0.951 . S
C180 C174 1.265 . S
C180 H175 0.950 . S
C180 C181 1.478 . S
C181 C168 1.394 . S
C181 C180 1.478 . S
C181 C182 1.397 . S
C182 C181 1.397 . S
C182 C183 1.438 . S
C182 C187 1.429 . S
C183 C166 1.394 . S
C183 C182 1.438 . S
C183 C184 1.428 . S
C184 H176 0.949 . S
C184 C183 1.428 . S
C184 C185 1.345 . S
C185 H177 0.950 . S
C185 C184 1.345 . S
C185 C186 1.424 . S
C186 H178 0.951 . S
C186 C185 1.424 . S
C186 C187 1.347 . S
C187 H179 0.951 . S
C187 C182 1.429 . S
C187 C186 1.347 . S
H188 C189 0.951 1_556 S
C189 H188 0.951 1_554 S
C189 C195 1.265 1_554 S
H190 C195 0.949 . S
H191 C199 0.949 . S
H192 C200 0.950 . S
H193 C201 0.951 . S
H194 C202 0.951 . S
C195 C189 1.265 1_556 S
C195 H190 0.949 . S
C195 C196 1.478 1_556 S
C196 C195 1.478 1_554 S
C196 C197 1.397 1_554 S
C196 C213 1.394 . S
C197 C196 1.397 1_556 S
C197 C198 1.438 . S
C197 C202 1.429 . S
C198 C197 1.438 . S
C198 C199 1.428 . S
C198 C211 1.394 1_556 S
C199 H191 0.949 . S
C199 C198 1.428 . S
C199 C200 1.345 . S
C200 H192 0.950 . S
C200 C199 1.345 . S
C200 C201 1.424 . S
C201 H193 0.951 . S
C201 C200 1.424 . S
C201 C202 1.347 . S
C202 H194 0.951 . S
C202 C197 1.429 . S
C202 C201 1.347 . S
H203 C204 0.951 . S
C204 H203 0.951 . S
C204 C210 1.265 . S
H205 C210 0.950 . S
H206 C214 0.949 . S
H207 C215 0.950 . S
H208 C216 0.951 . S
H209 C217 0.951 . S
C210 C204 1.265 . S
C210 H205 0.950 . S
C210 C211 1.478 . S
C211 C198 1.394 1_554 S
C211 C210 1.478 . S
C211 C212 1.397 . S
C212 C211 1.397 . S
C212 C213 1.438 . S
C212 C217 1.429 . S
C213 C196 1.394 . S
C213 C212 1.438 . S
C213 C214 1.428 . S
C214 H206 0.949 . S
C214 C213 1.428 . S
C214 C215 1.345 . S
C215 H207 0.950 . S
C215 C214 1.345 . S
C215 C216 1.424 . S
C216 H208 0.951 . S
C216 C215 1.424 . S
C216 C217 1.347 . S
C217 H209 0.951 . S
C217 C212 1.429 . S
C217 C216 1.347 . S
H218 C219 0.951 . S
C219 H218 0.951 . S
C219 C225 1.265 . S
H220 C225 0.950 . S
H221 C229 0.949 . S
H222 C230 0.950 . S
H223 C231 0.951 . S
H224 C232 0.951 . S
C225 C219 1.265 . S
C225 H220 0.950 . S
C225 C226 1.478 . S
C226 C225 1.478 . S
C226 C227 1.397 . S
C226 C243 1.394 . S
C227 C226 1.397 . S
C227 C228 1.438 . S
C227 C232 1.429 . S
C228 C227 1.438 . S
C228 C229 1.428 . S
C228 C241 1.394 . S
C229 H221 0.949 . S
C229 C228 1.428 . S
C229 C230 1.345 . S
C230 H222 0.950 . S
C230 C229 1.345 . S
C230 C231 1.424 . S
C231 H223 0.951 . S
C231 C230 1.424 . S
C231 C232 1.347 . S
C232 H224 0.951 . S
C232 C227 1.429 . S
C232 C231 1.347 . S
H233 C234 0.951 . S
C234 H233 0.951 . S
C234 C240 1.265 . S
H235 C240 0.950 . S
H236 C244 0.949 . S
H237 C245 0.950 . S
H238 C246 0.951 . S
H239 C247 0.951 . S
C240 C234 1.265 . S
C240 H235 0.950 . S
C240 C241 1.478 . S
C241 C228 1.394 . S
C241 C240 1.478 . S
C241 C242 1.397 . S
C242 C241 1.397 . S
C242 C243 1.438 . S
C242 C247 1.429 . S
C243 C226 1.394 . S
C243 C242 1.438 . S
C243 C244 1.428 . S
C244 H236 0.949 . S
C244 C243 1.428 . S
C244 C245 1.345 . S
C245 H237 0.950 . S
C245 C244 1.345 . S
C245 C246 1.424 . S
C246 H238 0.951 . S
C246 C245 1.424 . S
C246 C247 1.347 . S
C247 H239 0.951 . S
C247 C242 1.429 . S
C247 C246 1.347 . S
H248 C249 0.951 . S
C249 H248 0.951 . S
C249 C255 1.265 . S
H250 C255 0.950 . S
H251 C259 0.949 . S
H252 C260 0.950 . S
H253 C261 0.951 . S
H254 C262 0.951 . S
C255 C249 1.265 . S
C255 H250 0.950 . S
C255 C256 1.478 . S
C256 C255 1.478 . S
C256 C257 1.397 . S
C256 C273 1.394 . S
C257 C256 1.397 . S
C257 C258 1.438 . S
C257 C262 1.429 . S
C258 C257 1.438 . S
C258 C259 1.428 . S
C258 C271 1.394 . S
C259 H251 0.949 . S
C259 C258 1.428 . S
C259 C260 1.345 . S
C260 H252 0.950 . S
C260 C259 1.345 . S
C260 C261 1.424 . S
C261 H253 0.951 . S
C261 C260 1.424 . S
C261 C262 1.347 . S
C262 H254 0.951 . S
C262 C257 1.429 . S
C262 C261 1.347 . S
H263 C264 0.951 . S
C264 H263 0.951 . S
C264 C270 1.265 . S
H265 C270 0.950 . S
H266 C274 0.949 . S
H267 C275 0.950 . S
H268 C276 0.951 . S
H269 C277 0.951 . S
C270 C264 1.265 . S
C270 H265 0.950 . S
C270 C271 1.478 . S
C271 C258 1.394 . S
C271 C270 1.478 . S
C271 C272 1.397 . S
C272 C271 1.397 . S
C272 C273 1.438 . S
C272 C277 1.429 . S
C273 C256 1.394 . S
C273 C272 1.438 . S
C273 C274 1.428 . S
C274 H266 0.949 . S
C274 C273 1.428 . S
C274 C275 1.345 . S
C275 H267 0.950 . S
C275 C274 1.345 . S
C275 C276 1.424 . S
C276 H268 0.951 . S
C276 C275 1.424 . S
C276 C277 1.347 . S
C277 H269 0.951 . S
C277 C272 1.429 . S
C277 C276 1.347 . S
H278 C279 0.951 . S
C279 H278 0.951 . S
C279 C285 1.265 . S
H280 C285 0.950 . S
H281 C289 0.949 . S
H282 C290 0.950 . S
H283 C291 0.951 . S
H284 C292 0.951 . S
C285 C279 1.265 . S
C285 H280 0.950 . S
C285 C286 1.478 . S
C286 C285 1.478 . S
C286 C287 1.397 . S
C286 C303 1.394 . S
C287 C286 1.397 . S
C287 C288 1.438 . S
C287 C292 1.429 . S
C288 C287 1.438 . S
C288 C289 1.428 . S
C288 C301 1.394 . S
C289 H281 0.949 . S
C289 C288 1.428 . S
C289 C290 1.345 . S
C290 H282 0.950 . S
C290 C289 1.345 . S
C290 C291 1.424 . S
C291 H283 0.951 . S
C291 C290 1.424 . S
C291 C292 1.347 . S
C292 H284 0.951 . S
C292 C287 1.429 . S
C292 C291 1.347 . S
H293 C294 0.951 . S
C294 H293 0.951 . S
C294 C300 1.265 . S
H295 C300 0.950 . S
H296 C304 0.949 . S
H297 C305 0.950 . S
H298 C306 0.951 . S
H299 C307 0.951 . S
C300 C294 1.265 . S
C300 H295 0.950 . S
C300 C301 1.478 . S
C301 C288 1.394 . S
C301 C300 1.478 . S
C301 C302 1.397 . S
C302 C301 1.397 . S
C302 C303 1.438 . S
C302 C307 1.429 . S
C303 C286 1.394 . S
C303 C302 1.438 . S
C303 C304 1.428 . S
C304 H296 0.949 . S
C304 C303 1.428 . S
C304 C305 1.345 . S
C305 H297 0.950 . S
C305 C304 1.345 . S
C305 C306 1.424 . S
C306 H298 0.951 . S
C306 C305 1.424 . S
C306 C307 1.347 . S
C307 H299 0.951 . S
C307 C302 1.429 . S
C307 C306 1.347 . S
H308 C309 0.951 . S
C309 H308 0.951 . S
C309 C315 1.265 . S
H310 C315 0.950 . S
H311 C319 0.949 . S
H312 C320 0.950 . S
H313 C321 0.951 . S
H314 C322 0.951 . S
C315 C309 1.265 . S
C315 H310 0.950 . S
C315 C316 1.478 . S
C316 C315 1.478 . S
C316 C317 1.397 . S
C316 C333 1.394 . S
C317 C316 1.397 . S
C317 C318 1.438 . S
C317 C322 1.429 . S
C318 C317 1.438 . S
C318 C319 1.428 . S
C318 C331 1.394 . S
C319 H311 0.949 . S
C319 C318 1.428 . S
C319 C320 1.345 . S
C320 H312 0.950 . S
C320 C319 1.345 . S
C320 C321 1.424 . S
C321 H313 0.951 . S
C321 C320 1.424 . S
C321 C322 1.347 . S
C322 H314 0.951 . S
C322 C317 1.429 . S
C322 C321 1.347 . S
H323 C324 0.951 . S
C324 H323 0.951 . S
C324 C330 1.265 . S
H325 C330 0.950 . S
H326 C334 0.949 . S
H327 C335 0.950 . S
H328 C336 0.951 . S
H329 C337 0.951 . S
C330 C324 1.265 . S
C330 H325 0.950 . S
C330 C331 1.478 . S
C331 C318 1.394 . S
C331 C330 1.478 . S
C331 C332 1.397 . S
C332 C331 1.397 . S
C332 C333 1.438 . S
C332 C337 1.429 . S
C333 C316 1.394 . S
C333 C332 1.438 . S
C333 C334 1.428 . S
C334 H326 0.949 . S
C334 C333 1.428 . S
C334 C335 1.345 . S
C335 H327 0.950 . S
C335 C334 1.345 . S
C335 C336 1.424 . S
C336 H328 0.951 . S
C336 C335 1.424 . S
C336 C337 1.347 . S
C337 H329 0.951 . S
C337 C332 1.429 . S
C337 C336 1.347 . S
H338 C339 0.951 . S
C339 H338 0.951 . S
C339 C345 1.265 . S
H340 C345 0.950 . S
H341 C349 0.949 . S
H342 C350 0.950 . S
H343 C351 0.951 . S
H344 C352 0.951 . S
C345 C339 1.265 . S
C345 H340 0.950 . S
C345 C346 1.478 . S
C346 C345 1.478 . S
C346 C347 1.397 . S
C346 C363 1.394 . S
C347 C346 1.397 . S
C347 C348 1.438 . S
C347 C352 1.429 . S
C348 C347 1.438 . S
C348 C349 1.428 . S
C348 C361 1.394 . S
C349 H341 0.949 . S
C349 C348 1.428 . S
C349 C350 1.345 . S
C350 H342 0.950 . S
C350 C349 1.345 . S
C350 C351 1.424 . S
C351 H343 0.951 . S
C351 C350 1.424 . S
C351 C352 1.347 . S
C352 H344 0.951 . S
C352 C347 1.429 . S
C352 C351 1.347 . S
H353 C354 0.951 . S
C354 H353 0.951 . S
C354 C360 1.265 . S
H355 C360 0.950 . S
H356 C364 0.949 . S
H357 C365 0.950 . S
H358 C366 0.951 . S
H359 C367 0.951 . S
C360 C354 1.265 . S
C360 H355 0.950 . S
C360 C361 1.478 . S
C361 C348 1.394 . S
C361 C360 1.478 . S
C361 C362 1.397 . S
C362 C361 1.397 . S
C362 C363 1.438 . S
C362 C367 1.429 . S
C363 C346 1.394 . S
C363 C362 1.438 . S
C363 C364 1.428 . S
C364 H356 0.949 . S
C364 C363 1.428 . S
C364 C365 1.345 . S
C365 H357 0.950 . S
C365 C364 1.345 . S
C365 C366 1.424 . S
C366 H358 0.951 . S
C366 C365 1.424 . S
C366 C367 1.347 . S
C367 H359 0.951 . S
C367 C362 1.429 . S
C367 C366 1.347 . S
H368 C369 0.951 . S
C369 H368 0.951 . S
C369 C375 1.265 . S
H370 C375 0.950 . S
H371 C379 0.949 . S
H372 C380 0.950 . S
H373 C381 0.951 . S
H374 C382 0.951 . S
C375 C369 1.265 . S
C375 H370 0.950 . S
C375 C376 1.478 . S
C376 C375 1.478 . S
C376 C377 1.397 . S
C376 C393 1.394 . S
C377 C376 1.397 . S
C377 C378 1.438 . S
C377 C382 1.429 . S
C378 C377 1.438 . S
C378 C379 1.428 . S
C378 C391 1.394 . S
C379 H371 0.949 . S
C379 C378 1.428 . S
C379 C380 1.345 . S
C380 H372 0.950 . S
C380 C379 1.345 . S
C380 C381 1.424 . S
C381 H373 0.951 . S
C381 C380 1.424 . S
C381 C382 1.347 . S
C382 H374 0.951 . S
C382 C377 1.429 . S
C382 C381 1.347 . S
H383 C384 0.951 . S
C384 H383 0.951 . S
C384 C390 1.265 . S
H385 C390 0.950 . S
H386 C394 0.949 . S
H387 C395 0.950 . S
H388 C396 0.951 . S
H389 C397 0.951 . S
C390 C384 1.265 . S
C390 H385 0.950 . S
C390 C391 1.478 . S
C391 C378 1.394 . S
C391 C390 1.478 . S
C391 C392 1.397 . S
C392 C391 1.397 . S
C392 C393 1.438 . S
C392 C397 1.429 . S
C393 C376 1.394 . S
C393 C392 1.438 . S
C393 C394 1.428 . S
C394 H386 0.949 . S
C394 C393 1.428 . S
C394 C395 1.345 . S
C395 H387 0.950 . S
C395 C394 1.345 . S
C395 C396 1.424 . S
C396 H388 0.951 . S
C396 C395 1.424 . S
C396 C397 1.347 . S
C397 H389 0.951 . S
C397 C392 1.429 . S
C397 C396 1.347 . S
H398 C399 0.951 . S
C399 H398 0.951 . S
C399 C405 1.265 . S
H400 C405 0.950 . S
H401 C409 0.949 . S
H402 C410 0.950 . S
H403 C411 0.951 . S
H404 C412 0.951 . S
C405 C399 1.265 . S
C405 H400 0.950 . S
C405 C406 1.478 . S
C406 C405 1.478 . S
C406 C407 1.397 . S
C406 C423 1.394 . S
C407 C406 1.397 . S
C407 C408 1.438 . S
C407 C412 1.429 . S
C408 C407 1.438 . S
C408 C409 1.428 . S
C408 C421 1.394 . S
C409 H401 0.949 . S
C409 C408 1.428 . S
C409 C410 1.345 . S
C410 H402 0.950 . S
C410 C409 1.345 . S
C410 C411 1.424 . S
C411 H403 0.951 . S
C411 C410 1.424 . S
C411 C412 1.347 . S
C412 H404 0.951 . S
C412 C407 1.429 . S
C412 C411 1.347 . S
H413 C414 0.951 . S
C414 H413 0.951 . S
C414 C420 1.265 . S
H415 C420 0.950 . S
H416 C424 0.949 . S
H417 C425 0.950 . S
H418 C426 0.951 . S
H419 C427 0.951 . S
C420 C414 1.265 . S
C420 H415 0.950 . S
C420 C421 1.478 . S
C421 C408 1.394 . S
C421 C420 1.478 . S
C421 C422 1.397 . S
C422 C421 1.397 . S
C422 C423 1.438 . S
C422 C427 1.429 . S
C423 C406 1.394 . S
C423 C422 1.438 . S
C423 C424 1.428 . S
C424 H416 0.949 . S
C424 C423 1.428 . S
C424 C425 1.345 . S
C425 H417 0.950 . S
C425 C424 1.345 . S
C425 C426 1.424 . S
C426 H418 0.951 . S
C426 C425 1.424 . S
C426 C427 1.347 . S
C427 H419 0.951 . S
C427 C422 1.429 . S
C427 C426 1.347 . S
H428 C429 0.951 . S
C429 H428 0.951 . S
C429 C435 1.265 . S
H430 C435 0.950 . S
H431 C439 0.949 . S
H432 C440 0.950 . S
H433 C441 0.951 . S
H434 C442 0.951 . S
C435 C429 1.265 . S
C435 H430 0.950 . S
C435 C436 1.478 . S
C436 C435 1.478 . S
C436 C437 1.397 . S
C436 C453 1.394 . S
C437 C436 1.397 . S
C437 C438 1.438 . S
C437 C442 1.429 . S
C438 C437 1.438 . S
C438 C439 1.428 . S
C438 C451 1.394 . S
C439 H431 0.949 . S
C439 C438 1.428 . S
C439 C440 1.345 . S
C440 H432 0.950 . S
C440 C439 1.345 . S
C440 C441 1.424 . S
C441 H433 0.951 . S
C441 C440 1.424 . S
C441 C442 1.347 . S
C442 H434 0.951 . S
C442 C437 1.429 . S
C442 C441 1.347 . S
H443 C444 0.951 . S
C444 H443 0.951 . S
C444 C450 1.265 . S
H445 C450 0.950 . S
H446 C454 0.949 . S
H447 C455 0.950 . S
H448 C456 0.951 . S
H449 C457 0.951 . S
C450 C444 1.265 . S
C450 H445 0.950 . S
C450 C451 1.478 . S
C451 C438 1.394 . S
C451 C450 1.478 . S
C451 C452 1.397 . S
C452 C451 1.397 . S
C452 C453 1.438 . S
C452 C457 1.429 . S
C453 C436 1.394 . S
C453 C452 1.438 . S
C453 C454 1.428 . S
C454 H446 0.949 . S
C454 C453 1.428 . S
C454 C455 1.345 . S
C455 H447 0.950 . S
C455 C454 1.345 . S
C455 C456 1.424 . S
C456 H448 0.951 . S
C456 C455 1.424 . S
C456 C457 1.347 . S
C457 H449 0.951 . S
C457 C452 1.429 . S
C457 C456 1.347 . S
C114 C69 1.466 . S
C99 C43 1.395 . S
C129 C4 1.408 . S
C144 C92 1.484 . S
C159 C17 1.443 . S
C174 C68 1.515 . S
C189 C30 1.430 1_554 S
C204 C91 1.504 . S
C234 C72 1.391 . S
C219 C9 1.467 . S
C264 C94 1.496 . S
C249 C21 1.510 . S
C279 C34 1.489 . S
C294 C73 1.475 . S
C309 C48 1.467 . S
C324 C93 1.402 . S
C354 C96 1.398 . S
C339 C22 1.466 . S
C384 C71 1.430 . S
C369 C35 1.477 . S
C414 C95 1.446 . S
C399 C47 1.451 . S
C429 C8 1.476 . S
C444 C70 1.400 . S
