# Generated by pormake.
# Topology zzz, (3,6)-cn, num edge types: 1
# Building blocks:
#     Node 0, Type 0, BuildingBlock: ESEHIV_clean_linker_0, # of connection points: 3
#     Node 1, Type 0, BuildingBlock: ESEHIV_clean_linker_0, # of connection points: 3
#     Node 2, Type 0, BuildingBlock: ESEHIV_clean_linker_0, # of connection points: 3
#     Node 3, Type 0, BuildingBlock: ESEHIV_clean_linker_0, # of connection points: 3
#     Node 4, Type 0, BuildingBlock: ESEHIV_clean_linker_0, # of connection points: 3
#     Node 5, Type 0, BuildingBlock: ESEHIV_clean_linker_0, # of connection points: 3
#     Node 6, Type 0, BuildingBlock: ESEHIV_clean_linker_0, # of connection points: 3
#     Node 7, Type 0, BuildingBlock: ESEHIV_clean_linker_0, # of connection points: 3
#     Node 8, Type 1, BuildingBlock: CIFDUS_clean_sbu_1, # of connection points: 6
#     Node 9, Type 1, BuildingBlock: CIFDUS_clean_sbu_1, # of connection points: 6
#     Node 10, Type 1, BuildingBlock: CIFDUS_clean_sbu_1, # of connection points: 6
#     Node 11, Type 1, BuildingBlock: CIFDUS_clean_sbu_1, # of connection points: 6
#     Edge 12, Type (0, 1), BuildingBlock: XUDNAN_clean_linker_2, # of connection points: 2
#     Edge 13, Type (0, 1), BuildingBlock: XUDNAN_clean_linker_2, # of connection points: 2
#     Edge 14, Type (0, 1), BuildingBlock: XUDNAN_clean_linker_2, # of connection points: 2
#     Edge 15, Type (0, 1), BuildingBlock: XUDNAN_clean_linker_2, # of connection points: 2
#     Edge 16, Type (0, 1), BuildingBlock: XUDNAN_clean_linker_2, # of connection points: 2
#     Edge 17, Type (0, 1), BuildingBlock: XUDNAN_clean_linker_2, # of connection points: 2
#     Edge 18, Type (0, 1), BuildingBlock: XUDNAN_clean_linker_2, # of connection points: 2
#     Edge 19, Type (0, 1), BuildingBlock: XUDNAN_clean_linker_2, # of connection points: 2
#     Edge 20, Type (0, 1), BuildingBlock: XUDNAN_clean_linker_2, # of connection points: 2
#     Edge 21, Type (0, 1), BuildingBlock: XUDNAN_clean_linker_2, # of connection points: 2
#     Edge 22, Type (0, 1), BuildingBlock: XUDNAN_clean_linker_2, # of connection points: 2
#     Edge 23, Type (0, 1), BuildingBlock: XUDNAN_clean_linker_2, # of connection points: 2
#     Edge 24, Type (0, 1), BuildingBlock: XUDNAN_clean_linker_2, # of connection points: 2
#     Edge 25, Type (0, 1), BuildingBlock: XUDNAN_clean_linker_2, # of connection points: 2
#     Edge 26, Type (0, 1), BuildingBlock: XUDNAN_clean_linker_2, # of connection points: 2
#     Edge 27, Type (0, 1), BuildingBlock: XUDNAN_clean_linker_2, # of connection points: 2
#     Edge 28, Type (0, 1), BuildingBlock: XUDNAN_clean_linker_2, # of connection points: 2
#     Edge 29, Type (0, 1), BuildingBlock: XUDNAN_clean_linker_2, # of connection points: 2
#     Edge 30, Type (0, 1), BuildingBlock: XUDNAN_clean_linker_2, # of connection points: 2
#     Edge 31, Type (0, 1), BuildingBlock: XUDNAN_clean_linker_2, # of connection points: 2
#     Edge 32, Type (0, 1), BuildingBlock: XUDNAN_clean_linker_2, # of connection points: 2
#     Edge 33, Type (0, 1), BuildingBlock: XUDNAN_clean_linker_2, # of connection points: 2
#     Edge 34, Type (0, 1), BuildingBlock: XUDNAN_clean_linker_2, # of connection points: 2
#     Edge 35, Type (0, 1), BuildingBlock: XUDNAN_clean_linker_2, # of connection points: 2
# Relax obj value: 0.309
# Max RMSD: 0.221
# Mean RMSD: 0.206
data_MOF--net-zzz--node1-CIFDUS_clean_sbu_1--node2-ESEHIV_clean_linker_0--edge1-XUDNAN_clean_linker_2
_symmetry_space_group_name_H-M    P1
_symmetry_Int_Tables_number       1
_symmetry_cell_setting            triclinic
loop_
_symmetry_equiv_pos_as_xyz
'x, y, z'
_cell_length_a     41.741482
_cell_length_b     44.407556
_cell_length_c     16.282079
_cell_angle_alpha  90.031209
_cell_angle_beta   90.064764
_cell_angle_gamma 88.574928
loop_
_atom_site_label
_atom_site_type_symbol
_atom_site_fract_x
_atom_site_fract_y
_atom_site_fract_z
_atom_type_partial_charge
H0 H 0.82835 0.62637 0.20558 0.0
H1 H 0.75818 0.63239 0.01337 0.0
H2 H 0.74903 0.56739 0.20624 0.0
C3 C 0.80504 0.62096 0.18126 0.0
C4 C 0.78867 0.59772 0.21963 0.0
C5 C 0.79633 0.63079 0.10214 0.0
C6 C 0.76551 0.6242 0.07345 0.0
C7 C 0.74789 0.60121 0.11018 0.0
C8 C 0.76018 0.58737 0.18255 0.0
H9 H 0.98448 0.81824 0.19738 0.0
H10 H 1.00664 0.74372 0.04329 0.0
H11 H 0.984 0.72834 0.29878 0.0
C12 C 0.98749 0.79399 0.19085 0.0
C13 C 0.98671 0.77544 0.26018 0.0
C14 C 0.99723 0.78268 0.11559 0.0
C15 C 0.99879 0.75194 0.10293 0.0
C16 C 0.99038 0.73176 0.1653 0.0
C17 C 0.9866 0.74346 0.24727 0.0
H18 H 0.69561 0.88341 0.20265 0.0
H19 H 0.77352 0.88486 0.03447 0.0
H20 H 0.78063 0.9314 0.26384 0.0
C21 C 0.72084 0.88746 0.19235 0.0
C22 C 0.7368 0.90664 0.24635 0.0
C23 C 0.73255 0.88308 0.11267 0.0
C24 C 0.76476 0.88827 0.09665 0.0
C25 C 0.78293 0.90515 0.15176 0.0
C26 C 0.76844 0.91523 0.22591 0.0
H27 H 0.48924 0.69658 0.16937 0.0
H28 H 0.51347 0.78293 0.26979 0.0
H29 H 0.49502 0.77124 0.00958 0.0
C30 C 0.49124 0.72082 0.16267 0.0
C31 C 0.49444 0.73237 0.08382 0.0
C32 C 0.49961 0.73801 0.2309 0.0
C33 C 0.50535 0.76937 0.21899 0.0
C34 C 0.50248 0.78222 0.13839 0.0
C35 C 0.49556 0.76304 0.07231 0.0
H36 H 0.18822 0.38778 0.27343 0.0
H37 H 0.27318 0.37478 0.40862 0.0
H38 H 0.26954 0.4408 0.21255 0.0
C39 C 0.21365 0.39185 0.27982 0.0
C40 C 0.22755 0.41337 0.22844 0.0
C41 C 0.22807 0.38516 0.35507 0.0
C42 C 0.26147 0.38562 0.35682 0.0
C43 C 0.27722 0.40788 0.31096 0.0
C44 C 0.25962 0.42199 0.2453 0.0
H45 H 0.06497 0.20219 0.20603 0.0
H46 H 0.04924 0.26541 0.39811 0.0
H47 H 0.01308 0.28538 0.15565 0.0
C48 C 0.05751 0.22488 0.22378 0.0
C49 C 0.03968 0.24267 0.16867 0.0
C50 C 0.05628 0.23126 0.30735 0.0
C51 C 0.0479 0.26025 0.33312 0.0
C52 C 0.03333 0.28095 0.2787 0.0
C53 C 0.02775 0.27146 0.19613 0.0
H54 H 0.32198 0.1332 0.23803 0.0
H55 H 0.24638 0.12691 0.40709 0.0
H56 H 0.24272 0.07762 0.17904 0.0
C57 C 0.29739 0.12682 0.24929 0.0
C58 C 0.28403 0.105 0.19839 0.0
C59 C 0.28551 0.13061 0.32841 0.0
C60 C 0.25383 0.12346 0.34438 0.0
C61 C 0.23613 0.10539 0.29002 0.0
C62 C 0.25269 0.09484 0.21751 0.0
H63 H 0.46577 0.3095 0.23479 0.0
H64 H 0.52745 0.23495 0.16039 0.0
H65 H 0.48744 0.23925 0.40418 0.0
C66 C 0.47598 0.28709 0.24536 0.0
C67 C 0.47597 0.2761 0.32524 0.0
C68 C 0.49559 0.27363 0.18536 0.0
C69 C 0.51078 0.24517 0.20367 0.0
C70 C 0.50573 0.23139 0.28194 0.0
C71 C 0.48764 0.24722 0.34108 0.0
O72 O 0.00977 0.04838 0.79695 0.0
Mn73 Mn 1.00483 0.0105 0.715 0.0
O74 O 0.96118 0.07108 0.78568 0.0
Mn75 Mn 0.94356 0.04386 0.71475 0.0
O76 O 0.99878 0.97272 0.63771 0.0
O77 O 0.05204 0.01231 0.67749 0.0
Mn78 Mn 0.06923 0.97651 0.70082 0.0
O79 O 0.01375 0.98086 0.8097 0.0
O80 O 0.04711 0.94878 0.63618 0.0
O81 O 0.99843 0.03969 0.61939 0.0
O82 O 0.94793 0.05326 0.60562 0.0
O83 O 0.10164 0.99758 0.65472 0.0
O84 O 0.06617 0.97133 0.8127 0.0
C85 C 0.92628 0.00529 0.76936 0.0
C86 C 0.98912 0.06954 0.81712 0.0
C87 C 0.01747 0.95051 0.61581 0.0
C88 C 0.07959 0.01814 0.64306 0.0
C89 C 0.03832 0.96753 0.84095 0.0
C90 C 0.97665 0.05493 0.58309 0.0
O91 O 0.95673 0.00729 0.74834 0.0
O92 O 0.90726 0.02741 0.74739 0.0
O93 O 0.54069 0.9892 0.80197 0.0
Mn94 Mn 0.51054 0.00827 0.71483 0.0
O95 O 0.57155 0.02433 0.84709 0.0
Mn96 Mn 0.57043 0.03701 0.73985 0.0
O97 O 0.47883 0.02483 0.62831 0.0
O98 O 0.48785 0.96872 0.72584 0.0
Mn99 Mn 0.44684 0.97371 0.7028 0.0
O100 O 0.47871 0.02572 0.80598 0.0
O101 O 0.44493 0.98856 0.59701 0.0
O102 O 0.54191 0.99073 0.62241 0.0
O103 O 0.58832 0.01049 0.66395 0.0
O104 O 0.45277 0.9344 0.73971 0.0
O105 O 0.43215 0.00212 0.77964 0.0
C106 C 0.54847 0.07538 0.69117 0.0
C107 C 0.56142 0.99802 0.85299 0.0
C108 C 0.45534 0.01501 0.58662 0.0
C109 C 0.4815 0.94264 0.75704 0.0
C110 C 0.44839 0.02161 0.81867 0.0
C111 C 0.57256 0.99392 0.61523 0.0
O112 O 0.53277 0.04993 0.69834 0.0
O113 O 0.57708 0.07587 0.72227 0.0
O114 O 0.50305 0.53693 0.81666 0.0
Mn115 Mn 0.50741 0.509 0.71717 0.0
O116 O 0.45147 0.54882 0.83319 0.0
Mn117 Mn 0.444 0.5456 0.72202 0.0
O118 O 0.5102 0.48139 0.61697 0.0
O119 O 0.5574 0.50973 0.74474 0.0
Mn120 Mn 0.56305 0.46995 0.72556 0.0
O121 O 0.49875 0.47053 0.79358 0.0
O122 O 0.55711 0.45745 0.61943 0.0
O123 O 0.51209 0.54774 0.64079 0.0
O124 O 0.46481 0.57325 0.65569 0.0
O125 O 0.60215 0.47996 0.7505 0.0
O126 O 0.54527 0.44528 0.80234 0.0
C127 C 0.43102 0.50501 0.66229 0.0
C128 C 0.48043 0.54993 0.85648 0.0
C129 C 0.5297 0.46172 0.58833 0.0
C130 C 0.58871 0.50641 0.75986 0.0
C131 C 0.51607 0.44822 0.82108 0.0
C132 C 0.49299 0.57064 0.62503 0.0
O133 O 0.45957 0.51017 0.69056 0.0
O134 O 0.40971 0.52569 0.67962 0.0
O135 O 0.03963 0.48852 0.81493 0.0
Mn136 Mn 1.0074 0.50607 0.72616 0.0
O137 O 0.08494 0.5141 0.79003 0.0
Mn138 Mn 0.06779 0.54473 0.72212 0.0
O139 O 0.97525 0.52376 0.63538 0.0
O140 O 0.98696 0.46511 0.70702 0.0
Mn141 Mn 0.94598 0.47039 0.73339 0.0
O142 O 0.97555 0.51963 0.81675 0.0
O143 O 0.93054 0.49656 0.653 0.0
O144 O 0.04098 0.49379 0.63561 0.0
O145 O 0.06648 0.53615 0.61188 0.0
O146 O 0.95037 0.43062 0.70514 0.0
O147 O 0.93981 0.48445 0.83913 0.0
C148 C 0.03207 0.57231 0.78321 0.0
C149 C 0.06967 0.49356 0.8277 0.0
C150 C 0.94604 0.51708 0.61647 0.0
C151 C 0.97901 0.43807 0.68376 0.0
C152 C 0.95228 0.5093 0.85761 0.0
C153 C 0.06073 0.50907 0.59315 0.0
O154 O 0.02708 0.5466 0.74806 0.0
O155 O 0.06031 0.58229 0.76857 0.0
H156 H 0.19754 0.12532 0.42398 0.0
H157 H 0.19747 0.05997 0.22389 0.0
H158 H 0.14848 0.03907 0.28163 0.0
H159 H 0.18377 0.07063 0.5739 0.0
H160 H 0.16144 0.09619 0.63963 0.0
H161 H 0.19156 0.11037 0.57214 0.0
H162 H 0.14919 0.1473 0.50913 0.0
H163 H 0.11865 0.13259 0.57511 0.0
H164 H 0.113 0.13277 0.46539 0.0
H165 H 0.10037 0.02263 0.36855 0.0
H166 H 0.06803 0.00498 0.48506 0.0
H167 H 0.10796 0.07359 0.64044 0.0
C168 C 0.18864 0.10612 0.3915 0.0
C169 C 0.20358 0.09415 0.3189 0.0
C170 C 0.18781 0.07011 0.27907 0.0
C171 C 0.15951 0.05792 0.31169 0.0
C172 C 0.14702 0.06943 0.38535 0.0
C173 C 0.16168 0.09261 0.42546 0.0
C174 C 0.14705 0.09805 0.50999 0.0
C175 C 0.17245 0.09352 0.57789 0.0
C176 C 0.13103 0.12955 0.51516 0.0
C177 C 0.12215 0.07372 0.51246 0.0
C178 C 0.12147 0.05839 0.43838 0.0
C179 C 0.10075 0.03463 0.42639 0.0
C180 C 0.08193 0.02508 0.49282 0.0
C181 C 0.08457 0.03839 0.5717 0.0
C182 C 0.10427 0.06371 0.58046 0.0
H183 H 0.49163 0.17037 0.2864 0.0
H184 H 0.56045 0.2356 0.36678 0.0
H185 H 0.57511 0.20308 0.48388 0.0
H186 H 0.46382 0.1435 0.46985 0.0
H187 H 0.46459 0.10437 0.43862 0.0
H188 H 0.46152 0.13336 0.36269 0.0
H189 H 0.51159 0.10682 0.29467 0.0
H190 H 0.51428 0.08 0.37768 0.0
H191 H 0.54816 0.10269 0.35312 0.0
H192 H 0.57025 0.17199 0.60944 0.0
H193 H 0.56694 0.13207 0.71223 0.0
H194 H 0.51284 0.07792 0.54138 0.0
C195 C 0.51132 0.17678 0.32545 0.0
C196 C 0.52506 0.20562 0.3166 0.0
C197 C 0.5501 0.2135 0.3708 0.0
C198 C 0.55807 0.19541 0.4388 0.0
C199 C 0.54222 0.16845 0.44953 0.0
C200 C 0.5212 0.15792 0.39149 0.0
C201 C 0.50927 0.12701 0.41723 0.0
C202 C 0.47259 0.12719 0.42263 0.0
C203 C 0.52157 0.10268 0.3571 0.0
C204 C 0.52486 0.12311 0.50197 0.0
C205 C 0.54307 0.14793 0.51911 0.0
C206 C 0.55726 0.15183 0.59541 0.0
C207 C 0.55483 0.12899 0.65402 0.0
C208 C 0.53957 0.10151 0.63623 0.0
C209 C 0.52381 0.09878 0.55885 0.0
H210 H 0.29554 0.41106 0.47426 0.0
H211 H 0.32832 0.43504 0.23037 0.0
H212 H 0.37729 0.45605 0.29341 0.0
H213 H 0.31896 0.47243 0.57864 0.0
H214 H 0.3308 0.45228 0.67033 0.0
H215 H 0.30081 0.43721 0.60403 0.0
H216 H 0.33447 0.38748 0.59082 0.0
H217 H 0.36478 0.40265 0.65693 0.0
H218 H 0.37545 0.38876 0.55637 0.0
H219 H 0.4218 0.47753 0.38935 0.0
H220 H 0.4514 0.50149 0.50338 0.0
H221 H 0.3883 0.46074 0.67917 0.0
C222 C 0.31323 0.41938 0.43219 0.0
C223 C 0.30793 0.42019 0.34583 0.0
C224 C 0.33157 0.43362 0.29622 0.0
C225 C 0.35968 0.44539 0.33166 0.0
C226 C 0.36412 0.44337 0.41691 0.0
C227 C 0.34128 0.43057 0.46604 0.0
C228 C 0.34987 0.43255 0.55627 0.0
C229 C 0.32356 0.44965 0.6051 0.0
C230 C 0.35653 0.40098 0.5922 0.0
C231 C 0.38037 0.45008 0.55157 0.0
C232 C 0.38893 0.45547 0.4708 0.0
C233 C 0.41545 0.47287 0.45242 0.0
C234 C 0.43247 0.4861 0.51765 0.0
C235 C 0.42275 0.48214 0.60022 0.0
C236 C 0.39698 0.46318 0.61691 0.0
H237 H 0.99795 0.28872 0.41876 0.0
H238 H 0.04372 0.33932 0.22627 0.0
H239 H 0.03584 0.38618 0.30863 0.0
H240 H 0.94105 0.34688 0.49193 0.0
H241 H 0.94666 0.33572 0.59748 0.0
H242 H 0.9513 0.30826 0.51665 0.0
H243 H 1.00827 0.29473 0.57091 0.0
H244 H 1.00418 0.32272 0.65046 0.0
H245 H 0.03736 0.32389 0.57987 0.0
H246 H 0.02325 0.42802 0.42005 0.0
H247 H 0.00846 0.45826 0.54309 0.0
H248 H 0.97941 0.37734 0.66714 0.0
C249 C 1.00573 0.30976 0.39271 0.0
C250 C 0.02134 0.31023 0.31533 0.0
C251 C 0.03118 0.33834 0.28434 0.0
C252 C 0.02711 0.36502 0.3314 0.0
C253 C 0.01338 0.36324 0.40976 0.0
C254 C 1.00279 0.33614 0.43964 0.0
C255 C 0.99127 0.33909 0.52761 0.0
C256 C 0.95545 0.33208 0.53376 0.0
C257 C 0.01148 0.3189 0.58559 0.0
C258 C 0.99708 0.3721 0.54358 0.0
C259 C 0.0093 0.38598 0.4748 0.0
C260 C 0.01447 0.41701 0.47456 0.0
C261 C 1.00674 0.43402 0.54565 0.0
C262 C 0.99479 0.42002 0.61713 0.0
C263 C 0.99005 0.38858 0.6152 0.0
H264 H 0.78363 0.95137 0.04616 0.0
H265 H 0.84675 0.88785 0.17132 0.0
H266 H 0.89249 0.90475 0.08578 0.0
H267 H 0.81444 0.93745 0.85064 0.0
H268 H 0.80901 0.97572 0.81547 0.0
H269 H 0.78327 0.96135 0.89404 0.0
H270 H 0.7986 0.00476 0.99217 0.0
H271 H 0.82375 0.01979 0.91319 0.0
H272 H 0.84029 0.01126 0.01304 0.0
H273 H 0.93178 0.93023 0.97666 0.0
H274 H 0.95712 0.9602 0.86565 0.0
H275 H 0.86397 0.00024 0.8081 0.0
C276 C 0.80736 0.9418 0.05761 0.0
C277 C 0.81199 0.91916 0.11725 0.0
C278 C 0.84302 0.90605 0.12784 0.0
C279 C 0.86899 0.91529 0.07874 0.0
C280 C 0.86332 0.93724 0.01829 0.0
C281 C 0.83302 0.95017 0.00825 0.0
C282 C 0.83172 0.97156 0.9365 0.0
C283 C 0.80822 0.96087 0.87028 0.0
C284 C 0.8231 0.00374 0.96546 0.0
C285 C 0.86596 0.96901 0.9071 0.0
C286 C 0.88435 0.94952 0.9547 0.0
C287 C 0.91727 0.94536 0.9391 0.0
C288 C 0.93154 0.96225 0.87529 0.0
C289 C 0.91275 0.98264 0.82716 0.0
C290 C 0.87942 0.98497 0.84278 0.0
H291 H 0.53916 0.80033 0.01003 0.0
H292 H 0.48098 0.83624 0.20914 0.0
H293 H 0.48061 0.88649 0.14136 0.0
H294 H 0.57983 0.86518 0.9388 0.0
H295 H 0.57249 0.85772 0.83104 0.0
H296 H 0.57641 0.82711 0.90317 0.0
H297 H 0.52161 0.80675 0.86516 0.0
H298 H 0.5171 0.83568 0.78869 0.0
H299 H 0.48679 0.83156 0.86643 0.0
H300 H 0.48116 0.93147 0.03914 0.0
H301 H 0.47374 0.96203 0.91316 0.0
H302 H 0.51908 0.89102 0.76955 0.0
C303 C 0.52681 0.81885 0.04091 0.0
C304 C 0.51002 0.81409 0.11541 0.0
C305 C 0.49452 0.83921 0.15316 0.0
C306 C 0.49394 0.86779 0.11428 0.0
C307 C 0.50826 0.87069 0.03674 0.0
C308 C 0.5237 0.84641 1.00008 0.0
C309 C 0.53083 0.85238 0.91033 0.0
C310 C 0.56707 0.85056 0.89479 0.0
C311 C 0.51302 0.8303 0.85442 0.0
C312 C 0.51741 0.88425 0.90122 0.0
C313 C 0.50546 0.89486 0.97552 0.0
C314 C 0.49073 0.92335 0.98126 0.0
C315 C 0.4869 0.94074 0.90932 0.0
C316 C 0.4968 0.9294 0.83174 0.0
C317 C 0.51246 0.90083 0.82821 0.0
H318 H 0.68047 0.60667 0.09728 0.0
H319 H 0.76452 0.56093 0.99614 0.0
H320 H 0.73191 0.54098 0.88349 0.0
H321 H 0.62723 0.54617 0.06139 0.0
H322 H 0.59256 0.56835 0.03099 0.0
H323 H 0.6216 0.58406 0.09965 0.0
H324 H 0.6299 0.62899 0.00404 0.0
H325 H 0.60061 0.61481 0.9332 0.0
H326 H 0.64039 0.62258 0.89807 0.0
H327 H 0.69329 0.53142 0.77448 0.0
H328 H 0.64709 0.51279 0.70013 0.0
H329 H 0.58309 0.55254 0.88294 0.0
C330 C 0.69169 0.59201 0.052 0.0
C331 C 0.72521 0.58533 0.05513 0.0
C332 C 0.73907 0.56628 0.99464 0.0
C333 C 0.72079 0.55522 0.92985 0.0
C334 C 0.68825 0.56285 0.92663 0.0
C335 C 0.6733 0.57968 0.9874 0.0
C336 C 0.63709 0.58136 0.97146 0.0
C337 C 0.61851 0.56926 0.04527 0.0
C338 C 0.62635 0.61386 0.95059 0.0
C339 C 0.63415 0.56111 0.89565 0.0
C340 C 0.66448 0.55293 0.86843 0.0
C341 C 0.66937 0.53688 0.79636 0.0
C342 C 0.64272 0.52665 0.75401 0.0
C343 C 0.61125 0.53034 0.78607 0.0
C344 C 0.60667 0.54917 0.85637 0.0
H345 H 0.96275 0.71245 0.02412 0.0
H346 H 0.01292 0.67822 0.23918 0.0
H347 H 0.01972 0.62851 0.16957 0.0
H348 H 0.92848 0.64576 0.9323 0.0
H349 H 0.94086 0.65685 0.83147 0.0
H350 H 0.9318 0.68512 0.90816 0.0
H351 H 0.98856 0.70668 0.88463 0.0
H352 H 0.99738 0.67767 0.81035 0.0
H353 H 0.02331 0.68226 0.89775 0.0
H354 H 0.0274 0.58434 0.06506 0.0
H355 H 0.03916 0.55383 0.94059 0.0
H356 H 0.99183 0.62156 0.78994 0.0
C357 C 0.97449 0.69435 0.05814 0.0
C358 C 0.98722 0.6995 0.1379 0.0
C359 C 1.00245 0.67498 0.17905 0.0
C360 C 1.00667 0.64671 0.13927 0.0
C361 C 0.99609 0.64349 0.05784 0.0
C362 C 0.98066 0.66705 0.01776 0.0
C363 C 0.97766 0.66102 0.92627 0.0
C364 C 0.94259 0.6623 0.89793 0.0
C365 C 0.99792 0.68321 0.87688 0.0
C366 C 0.99178 0.62939 0.92101 0.0
C367 C 1.0024 0.61954 0.99732 0.0
C368 C 0.01861 0.59182 0.00576 0.0
C369 C 0.02478 0.57438 0.93476 0.0
C370 C 0.01486 0.58454 0.85596 0.0
C371 C 0.99793 0.61232 0.84965 0.0
H372 H 0.01567 0.18627 0.27647 0.0
H373 H 0.07835 0.22142 0.46514 0.0
H374 H 0.05964 0.18214 0.56097 0.0
H375 H 0.95043 0.16737 0.40907 0.0
H376 H 0.94122 0.13381 0.3523 0.0
H377 H 0.95832 0.16542 0.30033 0.0
H378 H 1.00504 0.13113 0.24679 0.0
H379 H 0.98784 0.09939 0.2975 0.0
H380 H 0.02864 0.10923 0.31906 0.0
H381 H 0.03633 0.13888 0.631 0.0
H382 H 0.01293 0.09134 0.67203 0.0
H383 H 0.96504 0.08431 0.43629 0.0
C384 C 0.02622 0.1854 0.33728 0.0
C385 C 0.04931 0.20622 0.36302 0.0
C386 C 0.06121 0.20518 0.4442 0.0
C387 C 0.05047 0.18328 0.49883 0.0
C388 C 0.02766 0.16323 0.47084 0.0
C389 C 0.01581 0.164 0.39196 0.0
C390 C 0.99241 0.13923 0.37579 0.0
C391 C 0.95859 0.15225 0.35837 0.0
C392 C 1.00421 0.11852 0.30566 0.0
C393 C 0.99384 0.12345 0.4575 0.0
C394 C 0.01385 0.13814 0.51167 0.0
C395 C 0.02051 0.12731 0.58953 0.0
C396 C 1.00713 0.10025 0.61192 0.0
C397 C 0.98746 0.08426 0.55655 0.0
C398 C 0.97994 0.09628 0.47921 0.0
H399 H 0.29346 0.0761 0.39209 0.0
H400 H 0.33181 0.16581 0.40002 0.0
H401 H 0.37849 0.14591 0.48033 0.0
H402 H 0.32586 0.04606 0.58961 0.0
H403 H 0.33468 0.00987 0.54364 0.0
H404 H 0.30105 0.03243 0.50754 0.0
H405 H 0.32419 0.03028 0.35751 0.0
H406 H 0.3564 0.00683 0.39653 0.0
H407 H 0.36536 0.04071 0.34194 0.0
H408 H 0.42164 0.11483 0.55166 0.0
H409 H 0.46147 0.07612 0.59184 0.0
H410 H 0.39765 0.0062 0.51126 0.0
C411 C 0.31085 0.09187 0.41454 0.0
C412 C 0.30866 0.12266 0.39339 0.0
C413 C 0.33274 0.1424 0.41867 0.0
C414 C 0.35923 0.13122 0.46359 0.0
C415 C 0.36126 0.10031 0.47992 0.0
C416 C 0.33781 0.08092 0.45519 0.0
C417 C 0.34772 0.04825 0.46728 0.0
C418 C 0.32605 0.03328 0.53084 0.0
C419 C 0.34839 0.03056 0.3859 0.0
C420 C 0.38102 0.05214 0.50004 0.0
C421 C 0.38793 0.08222 0.50974 0.0
C422 C 0.41688 0.09126 0.54191 0.0
C423 C 0.43966 0.06899 0.5628 0.0
C424 C 0.43356 0.03798 0.55037 0.0
C425 C 0.40369 0.02963 0.51859 0.0
H426 H 0.52823 0.30805 0.34645 0.0
H427 H 0.43279 0.29538 0.4428 0.0
H428 H 0.43819 0.34134 0.5285 0.0
H429 H 0.56512 0.34344 0.53197 0.0
H430 H 0.58704 0.36919 0.46903 0.0
H431 H 0.5785 0.33213 0.43101 0.0
H432 H 0.55114 0.35624 0.30215 0.0
H433 H 0.55996 0.39303 0.3411 0.0
H434 H 0.5193 0.38396 0.31694 0.0
H435 H 0.45022 0.39179 0.58218 0.0
H436 H 0.47099 0.44092 0.61957 0.0
H437 H 0.55767 0.42216 0.4799 0.0
C438 C 0.50897 0.31449 0.38803 0.0
C439 C 0.48008 0.29869 0.38921 0.0
C440 C 0.45498 0.30749 0.44226 0.0
C441 C 0.45792 0.33341 0.49054 0.0
C442 C 0.48599 0.34971 0.48374 0.0
C443 C 0.51135 0.34035 0.43489 0.0
C444 C 0.53725 0.36353 0.43065 0.0
C445 C 0.56884 0.35134 0.46798 0.0
C446 C 0.5422 0.3748 0.34237 0.0
C447 C 0.52211 0.38781 0.4831 0.0
C448 C 0.49263 0.37936 0.51304 0.0
C449 C 0.47326 0.39862 0.55921 0.0
C450 C 0.48485 0.42693 0.5777 0.0
C451 C 0.51531 0.43583 0.54912 0.0
C452 C 0.53404 0.4161 0.50069 0.0
H453 H 0.17091 0.371 0.43215 0.0
H454 H 0.24601 0.43726 0.42897 0.0
H455 H 0.20906 0.47511 0.48129 0.0
H456 H 0.10756 0.41215 0.37868 0.0
H457 H 0.07883 0.4005 0.45399 0.0
H458 H 0.11182 0.37576 0.42734 0.0
H459 H 0.12948 0.37271 0.58011 0.0
H460 H 0.0955 0.39659 0.60683 0.0
H461 H 0.13529 0.40701 0.63686 0.0
H462 H 0.16204 0.50828 0.48295 0.0
H463 H 0.11156 0.53415 0.51747 0.0
H464 H 0.06816 0.44758 0.56207 0.0
C465 C 0.18004 0.39291 0.44747 0.0
C466 C 0.21137 0.40091 0.42399 0.0
C467 C 0.22237 0.43001 0.44499 0.0
C468 C 0.20132 0.45218 0.47398 0.0
C469 C 0.16991 0.44447 0.48741 0.0
C470 C 0.15974 0.4152 0.48224 0.0
C471 C 0.12461 0.41371 0.50605 0.0
C472 C 0.10456 0.39972 0.43731 0.0
C473 C 0.12101 0.39649 0.5873 0.0
C474 C 0.11648 0.44705 0.5171 0.0
C475 C 0.14301 0.46413 0.50332 0.0
C476 C 0.14136 0.49532 0.49908 0.0
C477 C 0.11233 0.50975 0.51777 0.0
C478 C 0.08581 0.49305 0.54483 0.0
C479 C 0.08762 0.46114 0.54137 0.0
H480 H 0.03895 0.82766 0.13692 0.0
H481 H 0.97935 0.78469 0.95479 0.0
H482 H 0.99101 0.82525 0.85644 0.0
H483 H 0.01317 0.89581 0.11064 0.0
H484 H 0.04904 0.91756 0.11512 0.0
H485 H 0.04806 0.88213 0.16705 0.0
H486 H 0.09527 0.85843 0.09397 0.0
H487 H 0.10143 0.89448 0.04639 0.0
H488 H 0.09841 0.86113 0.98382 0.0
H489 H 0.99602 0.87452 0.79675 0.0
H490 H 1.00186 0.92793 0.76551 0.0
H491 H 0.06221 0.93911 0.97909 0.0
C492 C 0.02922 0.82641 0.07534 0.0
C493 C 1.0081 0.80351 0.0527 0.0
C494 C 0.99562 0.80221 0.97234 0.0
C495 C 1.0022 0.825 0.91642 0.0
C496 C 0.0217 0.84823 0.94215 0.0
C497 C 0.03577 0.8488 0.01887 0.0
C498 C 0.05269 0.87805 0.03426 0.0
C499 C 0.03982 0.89435 0.11125 0.0
C500 C 0.08913 0.87269 0.03983 0.0
C501 C 0.04348 0.89483 0.95716 0.0
C502 C 0.02596 0.87695 0.90472 0.0
C503 C 0.01068 0.88839 0.83559 0.0
C504 C 0.01377 0.91879 0.81899 0.0
C505 C 0.03243 0.93728 0.87002 0.0
C506 C 0.04792 0.9252 0.9394 0.0
H507 H 0.71764 0.93989 0.08093 0.0
H508 H 0.69474 0.84896 0.00944 0.0
H509 H 0.64827 0.86921 0.92846 0.0
H510 H 0.64027 0.95896 0.12894 0.0
H511 H 0.64229 0.99801 0.09963 0.0
H512 H 0.67792 0.9779 0.13296 0.0
H513 H 0.70712 0.99055 0.99704 0.0
H514 H 0.67212 0.01191 0.96449 0.0
H515 H 0.68831 0.98218 0.90024 0.0
H516 H 0.60479 0.901 0.85773 0.0
H517 H 0.56305 0.93801 0.8191 0.0
H518 H 0.61029 0.00633 0.96225 0.0
C519 C 0.70357 0.92436 0.04528 0.0
C520 C 0.70989 0.89307 0.04881 0.0
C521 C 0.69045 0.87306 0.00513 0.0
C522 C 0.6641 0.88439 0.95974 0.0
C523 C 0.65754 0.91545 0.96154 0.0
C524 C 0.67668 0.93503 0.0039 0.0
C525 C 0.66216 0.96645 0.0083 0.0
C526 C 0.65526 0.97586 0.09775 0.0
C527 C 0.6837 0.98911 0.9649 0.0
C528 C 0.63161 0.96175 0.96148 0.0
C529 C 0.62973 0.93243 0.93348 0.0
C530 C 0.60484 0.92336 0.88365 0.0
C531 C 0.58102 0.94463 0.86277 0.0
C532 C 0.5823 0.97479 0.89134 0.0
C533 C 0.60789 0.98325 0.94207 0.0
H534 H 0.47362 0.71753 0.92947 0.0
H535 H 0.55147 0.70427 0.10174 0.0
H536 H 0.56601 0.65607 0.03757 0.0
H537 H 0.44099 0.6649 0.89988 0.0
H538 H 0.44055 0.65461 0.79261 0.0
H539 H 0.44736 0.6928 0.82106 0.0
H540 H 0.50077 0.69185 0.74052 0.0
H541 H 0.49346 0.65337 0.71093 0.0
H542 H 0.53043 0.66265 0.76005 0.0
H543 H 0.54982 0.60476 0.01516 0.0
H544 H 0.52387 0.5568 0.98011 0.0
H545 H 0.46159 0.60487 0.80908 0.0
C546 C 0.49514 0.70542 0.94889 0.0
C547 C 0.5101 0.71273 0.02312 0.0
C548 C 0.53864 0.69742 0.04743 0.0
C549 C 0.5476 0.67045 0.01025 0.0
C550 C 0.52933 0.66094 0.94456 0.0
C551 C 0.50601 0.67942 0.9078 0.0
C552 C 0.48857 0.66216 0.84238 0.0
C553 C 0.4522 0.669 0.83918 0.0
C554 C 0.50421 0.66786 0.75849 0.0
C555 C 0.49691 0.63066 0.87076 0.0
C556 C 0.52233 0.63024 0.92506 0.0
C557 C 0.53143 0.60429 0.96841 0.0
C558 C 0.51576 0.57758 0.9511 0.0
C559 C 0.49021 0.5777 0.89444 0.0
C560 C 0.48052 0.60457 0.85465 0.0
H561 H 0.79971 0.60917 0.94403 0.0
H562 H 0.85493 0.65866 0.12261 0.0
H563 H 0.90417 0.63336 0.0722 0.0
H564 H 0.82862 0.54581 0.96404 0.0
H565 H 0.83315 0.53212 0.86033 0.0
H566 H 0.80384 0.56111 0.88234 0.0
H567 H 0.82764 0.59804 0.77883 0.0
H568 H 0.85565 0.56851 0.74871 0.0
H569 H 0.87006 0.60469 0.77975 0.0
H570 H 0.94249 0.59057 0.03671 0.0
H571 H 0.97133 0.54463 0.98529 0.0
H572 H 0.89094 0.52543 0.82755 0.0
C573 C 0.82213 0.61657 0.96933 0.0
C574 C 0.82306 0.63426 0.04178 0.0
C575 C 0.85334 0.64381 0.07006 0.0
C576 C 0.88153 0.62943 0.042 0.0
C577 C 0.87907 0.60782 0.98036 0.0
C578 C 0.85043 0.603 0.94025 0.0
C579 C 0.85339 0.57662 0.8814 0.0
C580 C 0.82828 0.55252 0.89825 0.0
C581 C 0.85159 0.58762 0.79189 0.0
C582 C 0.88676 0.56525 0.9023 0.0
C583 C 0.90159 0.5839 0.95778 0.0
C584 C 0.93165 0.5765 0.99067 0.0
C585 C 0.94762 0.55029 0.96238 0.0
C586 C 0.93314 0.53165 0.9035 0.0
C587 C 0.90219 0.53902 0.8742 0.0
H588 H 0.07277 0.20894 0.05133 0.0
H589 H 0.97698 0.23366 0.134 0.0
H590 H 0.95573 0.19014 0.05927 0.0
H591 H 0.05029 0.17962 0.84444 0.0
H592 H 0.07971 0.14925 0.84909 0.0
H593 H 0.08688 0.18418 0.90163 0.0
H594 H 0.09565 0.15449 0.03704 0.0
H595 H 0.08752 0.11958 0.98541 0.0
H596 H 0.06443 0.13075 0.0743 0.0
H597 H 0.94613 0.14013 0.99755 0.0
H598 H 0.94468 0.09356 0.91815 0.0
H599 H 0.04589 0.10063 0.86091 0.0
C600 C 0.04708 0.20612 0.04993 0.0
C601 C 0.02644 0.22549 0.09729 0.0
C602 C 0.99317 0.22009 0.09646 0.0
C603 C 0.98098 0.1949 0.05558 0.0
C604 C 1.00224 0.17533 0.01447 0.0
C605 C 0.03444 0.18104 0.00885 0.0
C606 C 0.05197 0.15569 0.96199 0.0
C607 C 0.06817 0.16792 0.88466 0.0
C608 C 0.07635 0.13916 0.01801 0.0
C609 C 0.02439 0.13522 0.94016 0.0
C610 C 0.99625 0.14677 0.97405 0.0
C611 C 0.96779 0.13146 0.96857 0.0
C612 C 0.96736 0.10478 0.92312 0.0
C613 C 0.99491 0.09349 0.88051 0.0
C614 C 0.0243 0.10852 0.89168 0.0
H615 H 0.29131 0.09917 0.02587 0.0
H616 H 0.33344 0.07281 0.25871 0.0
H617 H 0.38183 0.05359 0.18851 0.0
H618 H 0.32293 0.03216 0.91348 0.0
H619 H 0.32979 0.05273 0.81997 0.0
H620 H 0.29826 0.06482 0.88883 0.0
H621 H 0.3228 0.11779 0.89551 0.0
H622 H 0.35474 0.10558 0.82792 0.0
H623 H 0.36397 0.12135 0.92691 0.0
H624 H 0.42803 0.04102 0.09522 0.0
H625 H 0.46386 0.02472 0.98139 0.0
H626 H 0.39135 0.05345 0.80555 0.0
C627 C 0.31028 0.08846 0.06156 0.0
C628 C 0.3082 0.08712 0.14851 0.0
C629 C 0.3341 0.07347 0.1925 0.0
C630 C 0.362 0.06294 0.15312 0.0
C631 C 0.36386 0.06538 0.06825 0.0
C632 C 0.33839 0.07687 0.02239 0.0
C633 C 0.34654 0.07522 0.93122 0.0
C634 C 0.32299 0.05502 0.88567 0.0
C635 C 0.34703 0.10687 0.89316 0.0
C636 C 0.3802 0.06095 0.93374 0.0
C637 C 0.39004 0.05635 0.01371 0.0
C638 C 0.42049 0.04428 0.03217 0.0
C639 C 0.44092 0.03542 0.96721 0.0
C640 C 0.43065 0.03812 0.88475 0.0
C641 C 0.40001 0.05147 0.8681 0.0
H642 H 0.5184 0.33062 0.18892 0.0
H643 H 0.48591 0.26272 0.01929 0.0
H644 H 0.48369 0.30123 0.90814 0.0
H645 H 0.46451 0.38904 0.11157 0.0
H646 H 0.49244 0.41817 0.13469 0.0
H647 H 0.49264 0.38393 0.19406 0.0
H648 H 0.55398 0.37658 0.15815 0.0
H649 H 0.552 0.41053 0.09799 0.0
H650 H 0.5657 0.37564 0.0517 0.0
H651 H 0.48139 0.34979 0.8176 0.0
H652 H 0.48699 0.40009 0.75391 0.0
H653 H 0.5191 0.43585 0.98613 0.0
C654 C 0.51174 0.32354 0.1277 0.0
C655 C 0.5028 0.29331 0.11274 0.0
C656 C 0.49354 0.28537 0.0321 0.0
C657 C 0.4917 0.30733 0.969 0.0
C658 C 0.49886 0.33729 0.98756 0.0
C659 C 0.50905 0.3452 0.06511 0.0
C660 C 0.51381 0.37895 0.07158 0.0
C661 C 0.48946 0.39339 0.13157 0.0
C662 C 0.54843 0.38583 0.09629 0.0
C663 C 0.50645 0.38887 0.98439 0.0
C664 C 0.49699 0.36472 0.93714 0.0
C665 C 0.48864 0.36869 0.85464 0.0
C666 C 0.49136 0.39753 0.81916 0.0
C667 C 0.50239 0.42225 0.86561 0.0
C668 C 0.50954 0.41775 0.9497 0.0
H669 H 0.22342 0.41849 0.05697 0.0
H670 H 0.17784 0.44743 0.28388 0.0
H671 H 0.13087 0.46637 0.20641 0.0
H672 H 0.19443 0.48476 0.9367 0.0
H673 H 0.18918 0.4632 0.84401 0.0
H674 H 0.21941 0.45181 0.91751 0.0
H675 H 0.19458 0.39899 0.92471 0.0
H676 H 0.16381 0.41052 0.85276 0.0
H677 H 0.15293 0.3958 0.95174 0.0
H678 H 0.08617 0.47736 0.1068 0.0
H679 H 0.05213 0.49198 0.98803 0.0
H680 H 0.12776 0.46244 0.82224 0.0
C681 C 0.20399 0.42969 0.08981 0.0
C682 C 0.20446 0.4315 0.17676 0.0
C683 C 0.17818 0.44593 0.21743 0.0
C684 C 0.15115 0.45645 0.17401 0.0
C685 C 0.15075 0.45324 0.08902 0.0
C686 C 0.17685 0.44123 0.0468 0.0
C687 C 0.17038 0.44196 0.95468 0.0
C688 C 0.1948 0.46161 0.91061 0.0
C689 C 0.17044 0.40991 0.91888 0.0
C690 C 0.13681 0.45632 0.95223 0.0
C691 C 0.12562 0.4617 0.03075 0.0
C692 C 0.09483 0.47362 0.04492 0.0
C693 C 0.07547 0.48152 0.97713 0.0
C694 C 0.08714 0.47817 0.89607 0.0
C695 C 0.11812 0.46503 0.88364 0.0
H696 H 0.02943 0.81841 0.29095 0.0
H697 H 0.95069 0.77327 0.40714 0.0
H698 H 0.94911 0.81334 0.51528 0.0
H699 H 0.07011 0.85686 0.43409 0.0
H700 H 0.06936 0.89234 0.38012 0.0
H701 H 0.06691 0.85779 0.32348 0.0
H702 H 0.00935 0.87382 0.25811 0.0
H703 H 0.01886 0.90967 0.30395 0.0
H704 H 0.98129 0.89217 0.32496 0.0
H705 H 0.95434 0.86445 0.60346 0.0
H706 H 0.96757 0.91433 0.66163 0.0
H707 H 0.03782 0.92639 0.47005 0.0
C708 C 0.01221 0.81627 0.34023 0.0
C709 C 0.99038 0.79222 0.34031 0.0
C710 C 0.96808 0.79094 0.40578 0.0
C711 C 0.96667 0.81405 0.46654 0.0
C712 C 0.98671 0.83893 0.45877 0.0
C713 C 0.0085 0.8401 0.39546 0.0
C714 C 0.02274 0.87098 0.38804 0.0
C715 C 0.05947 0.86935 0.38118 0.0
C716 C 1.00733 0.88773 0.31445 0.0
C717 C 0.01112 0.8853 0.46681 0.0
C718 C 0.9886 0.86754 0.5046 0.0
C719 C 0.97223 0.87804 0.57424 0.0
C720 C 0.97985 0.90656 0.60683 0.0
C721 C 1.00432 0.92404 0.57146 0.0
C722 C 0.0195 0.91334 0.49945 0.0
H723 H 0.69074 0.88509 0.3535 0.0
H724 H 0.73408 0.96749 0.26998 0.0
H725 H 0.69251 0.99722 0.34303 0.0
H726 H 0.60851 0.913 0.33442 0.0
H727 H 0.59433 0.89366 0.42407 0.0
H728 H 0.62761 0.87808 0.36617 0.0
H729 H 0.66291 0.87697 0.497 0.0
H730 H 0.62957 0.89193 0.55551 0.0
H731 H 0.66722 0.91099 0.55613 0.0
H732 H 0.64493 0.01828 0.41534 0.0
H733 H 0.60082 0.03054 0.51027 0.0
H734 H 0.58808 0.93548 0.55757 0.0
C735 C 0.69192 0.90942 0.35227 0.0
C736 C 0.71634 0.92386 0.30687 0.0
C737 C 0.71649 0.95575 0.30586 0.0
C738 C 0.69249 0.97288 0.34592 0.0
C739 C 0.66831 0.95796 0.38724 0.0
C740 C 0.6681 0.92699 0.39245 0.0
C741 C 0.63944 0.91688 0.44276 0.0
C742 C 0.6161 0.89936 0.38864 0.0
C743 C 0.65046 0.89809 0.51732 0.0
C744 C 0.62455 0.94714 0.46846 0.0
C745 C 0.64105 0.97034 0.43244 0.0
C746 C 0.632 0.00034 0.44433 0.0
C747 C 0.60666 0.00705 0.49791 0.0
C748 C 0.59078 0.98407 0.54105 0.0
C749 C 0.59927 0.95352 0.52439 0.0
H750 H 0.46735 0.72672 0.37763 0.0
H751 H 0.55373 0.70375 0.24221 0.0
H752 H 0.56158 0.65796 0.32566 0.0
H753 H 0.50442 0.69809 0.58192 0.0
H754 H 0.46489 0.68838 0.61662 0.0
H755 H 0.46977 0.71968 0.54808 0.0
H756 H 0.42847 0.69407 0.45178 0.0
H757 H 0.4265 0.66202 0.51887 0.0
H758 H 0.43747 0.6568 0.41263 0.0
H759 H 0.55645 0.61082 0.41409 0.0
H760 H 0.54322 0.57081 0.51376 0.0
H761 H 0.46342 0.62636 0.60196 0.0
C762 C 0.48882 0.71295 0.36853 0.0
C763 C 0.51017 0.71939 0.30355 0.0
C764 C 0.53734 0.69986 0.29223 0.0
C765 C 0.54185 0.67347 0.33894 0.0
C766 C 0.51987 0.66722 0.40047 0.0
C767 C 0.49458 0.68701 0.4176 0.0
C768 C 0.47527 0.67542 0.48962 0.0
C769 C 0.47882 0.69662 0.56351 0.0
C770 C 0.43983 0.67185 0.46672 0.0
C771 C 0.49205 0.64506 0.50566 0.0
C772 C 0.51798 0.64088 0.45416 0.0
C773 C 0.53663 0.61422 0.45613 0.0
C774 C 0.52897 0.59152 0.51313 0.0
C775 C 0.50262 0.59528 0.56722 0.0
C776 C 0.48399 0.62258 0.56248 0.0
H777 H 0.81796 0.61774 0.36187 0.0
H778 H 0.80499 0.5381 0.2124 0.0
H779 H 0.84802 0.51164 0.28995 0.0
H780 H 0.90307 0.61128 0.37797 0.0
H781 H 0.90542 0.62358 0.48324 0.0
H782 H 0.87267 0.63656 0.41908 0.0
H783 H 0.83163 0.61644 0.52359 0.0
H784 H 0.86426 0.60421 0.58898 0.0
H785 H 0.83479 0.57771 0.55643 0.0
H786 H 0.89549 0.49531 0.3735 0.0
H787 H 0.93599 0.48511 0.48073 0.0
H788 H 0.91716 0.57347 0.58578 0.0
C789 C 0.82344 0.59436 0.34754 0.0
C790 C 0.80745 0.57977 0.28188 0.0
C791 C 0.81604 0.54947 0.26362 0.0
C792 C 0.84095 0.53445 0.30641 0.0
C793 C 0.85701 0.54985 0.36816 0.0
C794 C 0.84806 0.57882 0.3906 0.0
C795 C 0.86906 0.58983 0.46075 0.0
C796 C 0.88871 0.61693 0.43362 0.0
C797 C 0.84872 0.59749 0.53696 0.0
C798 C 0.89077 0.56226 0.47523 0.0
C799 C 0.88392 0.53992 0.41904 0.0
C800 C 0.90088 0.51255 0.41808 0.0
C801 C 0.92417 0.50711 0.47867 0.0
C802 C 0.93024 0.52864 0.54066 0.0
C803 C 0.91374 0.55692 0.53789 0.0
loop_
_geom_bond_atom_site_label_1
_geom_bond_atom_site_label_2
_geom_bond_distance
_geom_bond_site_symmetry_2
_ccdc_geom_bond_type
H0 C3 0.931 . S
H1 C6 0.928 1_556 S
H2 C8 0.930 . S
C3 H0 0.931 . S
C3 C4 1.413 . S
C3 C5 1.360 . S
C4 C3 1.413 . S
C4 C8 1.429 . S
C5 C3 1.360 . S
C5 C6 1.372 . S
C6 H1 0.928 1_554 S
C6 C5 1.372 . S
C6 C7 1.404 . S
C7 C6 1.404 . S
C7 C8 1.391 . S
C8 H2 0.930 . S
C8 C4 1.429 . S
C8 C7 1.391 . S
H9 C12 0.931 . S
H10 C15 0.928 1_556 S
H11 C17 0.930 . S
C12 H9 0.931 . S
C12 C13 1.413 . S
C12 C14 1.360 . S
C13 C12 1.413 . S
C13 C17 1.429 1_655 S
C14 C12 1.360 . S
C14 C15 1.373 . S
C15 H10 0.928 1_554 S
C15 C14 1.373 . S
C15 C16 1.404 . S
C16 C15 1.404 . S
C16 C17 1.390 1_655 S
C17 H11 0.930 . S
C17 C13 1.429 1_455 S
C17 C16 1.390 1_455 S
H18 C21 0.931 . S
H19 C24 0.928 1_556 S
H20 C26 0.930 . S
C21 H18 0.931 . S
C21 C22 1.413 . S
C21 C23 1.360 . S
C22 C21 1.413 . S
C22 C26 1.429 . S
C23 C21 1.360 . S
C23 C24 1.372 . S
C24 H19 0.928 1_554 S
C24 C23 1.372 . S
C24 C25 1.404 . S
C25 C24 1.404 . S
C25 C26 1.391 . S
C26 H20 0.930 . S
C26 C22 1.429 . S
C26 C25 1.391 . S
H27 C30 0.931 . S
H28 C33 0.928 . S
H29 C35 0.930 1_556 S
C30 H27 0.931 . S
C30 C31 1.413 . S
C30 C32 1.360 . S
C31 C30 1.413 . S
C31 C35 1.429 . S
C32 C30 1.360 . S
C32 C33 1.372 . S
C33 H28 0.928 . S
C33 C32 1.372 . S
C33 C34 1.404 . S
C34 C33 1.404 . S
C34 C35 1.391 . S
C35 H29 0.930 1_554 S
C35 C31 1.429 . S
C35 C34 1.391 . S
H36 C39 0.931 . S
H37 C42 0.928 . S
H38 C44 0.930 . S
C39 H36 0.931 . S
C39 C40 1.413 . S
C39 C41 1.360 . S
C40 C39 1.413 . S
C40 C44 1.429 . S
C41 C39 1.360 . S
C41 C42 1.372 . S
C42 H37 0.928 . S
C42 C41 1.372 . S
C42 C43 1.404 . S
C43 C42 1.404 . S
C43 C44 1.391 . S
C44 H38 0.930 . S
C44 C40 1.429 . S
C44 C43 1.391 . S
H45 C48 0.930 . S
H46 C51 0.928 . S
H47 C53 0.929 . S
C48 H45 0.930 . S
C48 C49 1.413 . S
C48 C50 1.360 . S
C49 C48 1.413 . S
C49 C53 1.429 1_655 S
C50 C48 1.360 . S
C50 C51 1.372 . S
C51 H46 0.928 . S
C51 C50 1.372 . S
C51 C52 1.404 . S
C52 C51 1.404 . S
C52 C53 1.391 1_655 S
C53 H47 0.929 . S
C53 C49 1.429 1_455 S
C53 C52 1.391 1_455 S
H54 C57 0.931 . S
H55 C60 0.928 . S
H56 C62 0.930 . S
C57 H54 0.931 . S
C57 C58 1.413 . S
C57 C59 1.360 . S
C58 C57 1.413 . S
C58 C62 1.429 . S
C59 C57 1.360 . S
C59 C60 1.372 . S
C60 H55 0.928 . S
C60 C59 1.372 . S
C60 C61 1.404 . S
C61 C60 1.404 . S
C61 C62 1.391 . S
C62 H56 0.930 . S
C62 C58 1.429 . S
C62 C61 1.391 . S
H63 C66 0.931 . S
H64 C69 0.928 . S
H65 C71 0.930 . S
C66 H63 0.931 . S
C66 C67 1.413 . S
C66 C68 1.360 . S
C67 C66 1.413 . S
C67 C71 1.429 . S
C68 C66 1.360 . S
C68 C69 1.372 . S
C69 H64 0.928 . S
C69 C68 1.372 . S
C69 C70 1.404 . S
C70 C69 1.404 . S
C70 C71 1.391 . S
C71 H65 0.930 . S
C71 C67 1.429 . S
C71 C70 1.391 . S
O72 Mn73 2.163 1_455 S
O72 C86 1.244 . S
Mn73 O72 2.163 1_655 S
Mn73 O76 2.160 1_545 S
Mn73 O77 2.221 1_655 S
Mn73 O79 2.163 1_645 S
Mn73 O81 2.160 . S
Mn73 O91 2.221 . S
O74 Mn75 2.087 . S
O74 C86 1.256 1_655 S
Mn75 O74 2.087 . S
Mn75 O82 2.089 . S
Mn75 O91 2.290 . S
Mn75 O92 2.251 . S
O76 Mn73 2.160 1_565 S
O76 C87 1.239 . S
O77 Mn73 2.221 1_455 S
O77 Mn78 2.290 1_545 S
O77 C88 1.278 . S
Mn78 O77 2.290 1_565 S
Mn78 O80 2.089 . S
Mn78 O83 2.251 . S
Mn78 O84 2.087 . S
O79 Mn73 2.163 1_465 S
O79 C89 1.244 . S
O80 Mn78 2.089 . S
O80 C87 1.256 1_455 S
O81 Mn73 2.160 . S
O81 C90 1.239 . S
O82 Mn75 2.089 . S
O82 C90 1.256 . S
O83 Mn78 2.251 . S
O83 C88 1.241 1_565 S
O84 Mn78 2.087 . S
O84 C89 1.256 . S
C85 O91 1.278 . S
C85 O92 1.241 . S
C86 O72 1.244 . S
C86 O74 1.256 1_455 S
C87 O76 1.239 . S
C87 O80 1.256 1_655 S
C88 O77 1.278 . S
C88 O83 1.241 1_545 S
C89 O79 1.244 . S
C89 O84 1.256 . S
C90 O81 1.239 . S
C90 O82 1.256 . S
O91 Mn73 2.221 . S
O91 Mn75 2.290 . S
O91 C85 1.278 . S
O92 Mn75 2.251 . S
O92 C85 1.241 . S
O93 Mn94 2.163 1_565 S
O93 C107 1.244 1_565 S
Mn94 O93 2.163 1_545 S
Mn94 O97 2.160 . S
Mn94 O98 2.221 1_545 S
Mn94 O100 2.163 . S
Mn94 O102 2.160 1_545 S
Mn94 O112 2.221 . S
O95 Mn96 2.087 . S
O95 C107 1.256 . S
Mn96 O95 2.087 . S
Mn96 O103 2.054 1_545 S
Mn96 O112 2.290 . S
Mn96 O113 2.251 . S
O97 Mn94 2.160 . S
O97 C108 1.239 . S
O98 Mn94 2.221 1_565 S
O98 Mn99 2.290 . S
O98 C109 1.278 . S
Mn99 O98 2.290 . S
Mn99 O101 2.089 1_565 S
Mn99 O104 2.251 . S
Mn99 O105 2.087 1_565 S
O100 Mn94 2.163 . S
O100 C110 1.244 . S
O101 Mn99 2.089 1_545 S
O101 C108 1.256 . S
O102 Mn94 2.160 1_565 S
O102 C111 1.239 . S
O103 Mn96 2.054 1_565 S
O103 C111 1.280 . S
O104 Mn99 2.251 . S
O104 C109 1.241 . S
O105 Mn99 2.087 1_545 S
O105 C110 1.256 . S
C106 O112 1.278 . S
C106 O113 1.241 . S
C107 O93 1.244 1_545 S
C107 O95 1.256 . S
C108 O97 1.239 . S
C108 O101 1.256 . S
C109 O98 1.278 . S
C109 O104 1.241 . S
C110 O100 1.244 . S
C110 O105 1.256 . S
C111 O102 1.239 . S
C111 O103 1.280 . S
O112 Mn94 2.221 . S
O112 Mn96 2.290 . S
O112 C106 1.278 . S
O113 Mn96 2.251 . S
O113 C106 1.241 . S
O114 Mn115 2.163 . S
O114 C128 1.244 . S
Mn115 O114 2.163 . S
Mn115 O118 2.160 . S
Mn115 O119 2.221 . S
Mn115 O121 2.163 . S
Mn115 O123 2.160 . S
Mn115 O133 2.221 . S
O116 Mn117 2.087 . S
O116 C128 1.256 . S
Mn117 O116 2.087 . S
Mn117 O124 2.089 . S
Mn117 O133 2.290 . S
Mn117 O134 2.251 . S
O118 Mn115 2.160 . S
O118 C129 1.239 . S
O119 Mn115 2.221 . S
O119 Mn120 2.290 . S
O119 C130 1.278 . S
Mn120 O119 2.290 . S
Mn120 O122 2.089 . S
Mn120 O125 2.251 . S
Mn120 O126 2.087 . S
O121 Mn115 2.163 . S
O121 C131 1.244 . S
O122 Mn120 2.089 . S
O122 C129 1.256 . S
O123 Mn115 2.160 . S
O123 C132 1.239 . S
O124 Mn117 2.089 . S
O124 C132 1.256 . S
O125 Mn120 2.251 . S
O125 C130 1.241 . S
O126 Mn120 2.087 . S
O126 C131 1.256 . S
C127 O133 1.278 . S
C127 O134 1.241 . S
C128 O114 1.244 . S
C128 O116 1.256 . S
C129 O118 1.239 . S
C129 O122 1.256 . S
C130 O119 1.278 . S
C130 O125 1.241 . S
C131 O121 1.244 . S
C131 O126 1.256 . S
C132 O123 1.239 . S
C132 O124 1.256 . S
O133 Mn115 2.221 . S
O133 Mn117 2.290 . S
O133 C127 1.278 . S
O134 Mn117 2.251 . S
O134 C127 1.241 . S
O135 Mn136 2.163 . S
O135 C149 1.244 . S
Mn136 O135 2.163 . S
Mn136 O139 2.160 1_455 S
Mn136 O140 2.221 1_455 S
Mn136 O142 2.163 1_455 S
Mn136 O144 2.160 . S
Mn136 O154 2.221 . S
O137 Mn138 2.087 . S
O137 C149 1.256 . S
Mn138 O137 2.087 . S
Mn138 O145 2.089 . S
Mn138 O154 2.290 . S
Mn138 O155 2.251 . S
O139 Mn136 2.160 1_655 S
O139 C150 1.239 . S
O140 Mn136 2.221 1_655 S
O140 Mn141 2.290 . S
O140 C151 1.278 . S
Mn141 O140 2.290 . S
Mn141 O143 2.089 . S
Mn141 O146 2.251 . S
Mn141 O147 2.087 . S
O142 Mn136 2.163 1_655 S
O142 C152 1.244 . S
O143 Mn141 2.089 . S
O143 C150 1.256 . S
O144 Mn136 2.160 . S
O144 C153 1.239 . S
O145 Mn138 2.089 . S
O145 C153 1.256 . S
O146 Mn141 2.251 . S
O146 C151 1.241 . S
O147 Mn141 2.087 . S
O147 C152 1.256 . S
C148 O154 1.278 . S
C148 O155 1.241 . S
C149 O135 1.244 . S
C149 O137 1.256 . S
C150 O139 1.239 . S
C150 O143 1.256 . S
C151 O140 1.278 . S
C151 O146 1.241 . S
C152 O142 1.244 . S
C152 O147 1.256 . S
C153 O144 1.239 . S
C153 O145 1.256 . S
O154 Mn136 2.221 . S
O154 Mn138 2.290 . S
O154 C148 1.278 . S
O155 Mn138 2.251 . S
O155 C148 1.241 . S
H156 C168 0.930 . S
H157 C170 0.930 . S
H158 C171 0.930 . S
H159 C175 0.959 . S
H160 C175 0.959 . S
H161 C175 0.961 . S
H162 C176 0.960 . S
H163 C176 0.961 . S
H164 C176 0.959 . S
H165 C179 0.929 . S
H166 C180 0.931 1_565 S
H167 C182 0.930 . S
C168 H156 0.930 . S
C168 C169 1.399 . S
C168 C173 1.399 . S
C169 C168 1.399 . S
C169 C170 1.376 . S
C170 H157 0.930 . S
C170 C169 1.376 . S
C170 C171 1.388 . S
C171 H158 0.930 . S
C171 C170 1.388 . S
C171 C172 1.390 . S
C172 C171 1.390 . S
C172 C173 1.394 . S
C172 C178 1.465 . S
C173 C168 1.399 . S
C173 C172 1.394 . S
C173 C174 1.516 . S
C174 C173 1.516 . S
C174 C175 1.502 . S
C174 C176 1.561 . S
C174 C177 1.526 . S
C175 H159 0.959 . S
C175 H160 0.959 . S
C175 H161 0.961 . S
C175 C174 1.502 . S
C176 H162 0.960 . S
C176 H163 0.961 . S
C176 H164 0.959 . S
C176 C174 1.561 . S
C177 C174 1.526 . S
C177 C178 1.396 . S
C177 C182 1.390 . S
C178 C172 1.465 . S
C178 C177 1.396 . S
C178 C179 1.399 . S
C179 H165 0.929 . S
C179 C178 1.399 . S
C179 C180 1.385 . S
C180 H166 0.931 1_545 S
C180 C179 1.385 . S
C180 C181 1.389 . S
C181 C180 1.389 . S
C181 C182 1.387 . S
C182 H167 0.930 . S
C182 C177 1.390 . S
C182 C181 1.387 . S
H183 C195 0.930 . S
H184 C197 0.930 . S
H185 C198 0.930 . S
H186 C202 0.959 . S
H187 C202 0.959 . S
H188 C202 0.961 . S
H189 C203 0.960 . S
H190 C203 0.961 . S
H191 C203 0.959 . S
H192 C206 0.929 . S
H193 C207 0.931 . S
H194 C209 0.930 . S
C195 H183 0.930 . S
C195 C196 1.399 . S
C195 C200 1.399 . S
C196 C195 1.399 . S
C196 C197 1.376 . S
C197 H184 0.930 . S
C197 C196 1.376 . S
C197 C198 1.388 . S
C198 H185 0.930 . S
C198 C197 1.388 . S
C198 C199 1.390 . S
C199 C198 1.390 . S
C199 C200 1.394 . S
C199 C205 1.465 . S
C200 C195 1.399 . S
C200 C199 1.394 . S
C200 C201 1.516 . S
C201 C200 1.516 . S
C201 C202 1.502 . S
C201 C203 1.561 . S
C201 C204 1.526 . S
C202 H186 0.959 . S
C202 H187 0.959 . S
C202 H188 0.961 . S
C202 C201 1.502 . S
C203 H189 0.960 . S
C203 H190 0.961 . S
C203 H191 0.959 . S
C203 C201 1.561 . S
C204 C201 1.526 . S
C204 C205 1.396 . S
C204 C209 1.390 . S
C205 C199 1.465 . S
C205 C204 1.396 . S
C205 C206 1.399 . S
C206 H192 0.929 . S
C206 C205 1.399 . S
C206 C207 1.385 . S
C207 H193 0.931 . S
C207 C206 1.385 . S
C207 C208 1.389 . S
C208 C207 1.389 . S
C208 C209 1.387 . S
C209 H194 0.930 . S
C209 C204 1.390 . S
C209 C208 1.387 . S
H210 C222 0.930 . S
H211 C224 0.930 . S
H212 C225 0.930 . S
H213 C229 0.959 . S
H214 C229 0.959 . S
H215 C229 0.961 . S
H216 C230 0.960 . S
H217 C230 0.961 . S
H218 C230 0.959 . S
H219 C233 0.929 . S
H220 C234 0.931 . S
H221 C236 0.930 . S
C222 H210 0.930 . S
C222 C223 1.399 . S
C222 C227 1.399 . S
C223 C222 1.399 . S
C223 C224 1.376 . S
C224 H211 0.930 . S
C224 C223 1.376 . S
C224 C225 1.388 . S
C225 H212 0.930 . S
C225 C224 1.388 . S
C225 C226 1.390 . S
C226 C225 1.390 . S
C226 C227 1.394 . S
C226 C232 1.465 . S
C227 C222 1.399 . S
C227 C226 1.394 . S
C227 C228 1.516 . S
C228 C227 1.516 . S
C228 C229 1.502 . S
C228 C230 1.561 . S
C228 C231 1.526 . S
C229 H213 0.959 . S
C229 H214 0.959 . S
C229 H215 0.961 . S
C229 C228 1.502 . S
C230 H216 0.960 . S
C230 H217 0.961 . S
C230 H218 0.959 . S
C230 C228 1.561 . S
C231 C228 1.526 . S
C231 C232 1.396 . S
C231 C236 1.390 . S
C232 C226 1.465 . S
C232 C231 1.396 . S
C232 C233 1.399 . S
C233 H219 0.929 . S
C233 C232 1.399 . S
C233 C234 1.385 . S
C234 H220 0.931 . S
C234 C233 1.385 . S
C234 C235 1.389 . S
C235 C234 1.389 . S
C235 C236 1.387 . S
C236 H221 0.930 . S
C236 C231 1.390 . S
C236 C235 1.387 . S
H237 C249 0.930 . S
H238 C251 0.930 . S
H239 C252 0.930 . S
H240 C256 0.959 . S
H241 C256 0.959 . S
H242 C256 0.961 . S
H243 C257 0.958 1_655 S
H244 C257 0.961 1_655 S
H245 C257 0.959 . S
H246 C260 0.929 . S
H247 C261 0.931 . S
H248 C263 0.930 . S
C249 H237 0.930 . S
C249 C250 1.399 1_655 S
C249 C254 1.399 . S
C250 C249 1.399 1_455 S
C250 C251 1.376 . S
C251 H238 0.930 . S
C251 C250 1.376 . S
C251 C252 1.388 . S
C252 H239 0.930 . S
C252 C251 1.388 . S
C252 C253 1.390 . S
C253 C252 1.390 . S
C253 C254 1.394 1_455 S
C253 C259 1.465 . S
C254 C249 1.399 . S
C254 C253 1.394 1_655 S
C254 C255 1.516 . S
C255 C254 1.516 . S
C255 C256 1.502 . S
C255 C257 1.561 1_655 S
C255 C258 1.526 . S
C256 H240 0.959 . S
C256 H241 0.959 . S
C256 H242 0.961 . S
C256 C255 1.502 . S
C257 H243 0.958 1_455 S
C257 H244 0.961 1_455 S
C257 H245 0.959 . S
C257 C255 1.561 1_455 S
C258 C255 1.526 . S
C258 C259 1.396 1_655 S
C258 C263 1.390 . S
C259 C253 1.465 . S
C259 C258 1.396 1_455 S
C259 C260 1.399 . S
C260 H246 0.929 . S
C260 C259 1.399 . S
C260 C261 1.385 . S
C261 H247 0.931 . S
C261 C260 1.385 . S
C261 C262 1.389 1_455 S
C262 C261 1.389 1_655 S
C262 C263 1.387 . S
C263 H248 0.930 . S
C263 C258 1.390 . S
C263 C262 1.387 . S
H264 C276 0.930 . S
H265 C278 0.930 . S
H266 C279 0.930 . S
H267 C283 0.959 . S
H268 C283 0.959 . S
H269 C283 0.961 . S
H270 C284 0.960 . S
H271 C284 0.961 . S
H272 C284 0.959 . S
H273 C287 0.929 . S
H274 C288 0.931 . S
H275 C290 0.930 1_545 S
C276 H264 0.930 . S
C276 C277 1.399 1_556 S
C276 C281 1.399 . S
C277 C276 1.399 1_554 S
C277 C278 1.376 . S
C278 H265 0.930 . S
C278 C277 1.376 . S
C278 C279 1.388 . S
C279 H266 0.930 . S
C279 C278 1.388 . S
C279 C280 1.390 1_554 S
C280 C279 1.390 1_556 S
C280 C281 1.394 . S
C280 C286 1.465 . S
C281 C276 1.399 . S
C281 C280 1.394 . S
C281 C282 1.516 . S
C282 C281 1.516 . S
C282 C283 1.502 . S
C282 C284 1.561 1_565 S
C282 C285 1.526 . S
C283 H267 0.959 . S
C283 H268 0.959 . S
C283 H269 0.961 . S
C283 C282 1.502 . S
C284 H270 0.960 . S
C284 H271 0.961 . S
C284 H272 0.959 . S
C284 C282 1.561 1_545 S
C285 C282 1.526 . S
C285 C286 1.396 . S
C285 C290 1.390 . S
C286 C280 1.465 . S
C286 C285 1.396 . S
C286 C287 1.399 . S
C287 H273 0.929 . S
C287 C286 1.399 . S
C287 C288 1.385 . S
C288 H274 0.931 . S
C288 C287 1.385 . S
C288 C289 1.389 . S
C289 C288 1.389 . S
C289 C290 1.387 . S
C290 H275 0.930 1_565 S
C290 C285 1.390 . S
C290 C289 1.387 . S
H291 C303 0.930 . S
H292 C305 0.930 . S
H293 C306 0.930 . S
H294 C310 0.959 . S
H295 C310 0.959 . S
H296 C310 0.961 . S
H297 C311 0.960 . S
H298 C311 0.961 . S
H299 C311 0.959 . S
H300 C314 0.929 . S
H301 C315 0.931 . S
H302 C317 0.930 . S
C303 H291 0.930 . S
C303 C304 1.399 1_556 S
C303 C308 1.399 . S
C304 C303 1.399 1_554 S
C304 C305 1.376 . S
C305 H292 0.930 . S
C305 C304 1.376 . S
C305 C306 1.388 . S
C306 H293 0.930 . S
C306 C305 1.388 . S
C306 C307 1.390 1_554 S
C307 C306 1.390 1_556 S
C307 C308 1.394 . S
C307 C313 1.465 . S
C308 C303 1.399 . S
C308 C307 1.394 . S
C308 C309 1.516 . S
C309 C308 1.516 . S
C309 C310 1.502 . S
C309 C311 1.561 . S
C309 C312 1.526 . S
C310 H294 0.959 . S
C310 H295 0.959 . S
C310 H296 0.961 . S
C310 C309 1.502 . S
C311 H297 0.960 . S
C311 H298 0.961 . S
C311 H299 0.959 . S
C311 C309 1.561 . S
C312 C309 1.526 . S
C312 C313 1.396 . S
C312 C317 1.390 . S
C313 C307 1.465 . S
C313 C312 1.396 . S
C313 C314 1.399 . S
C314 H300 0.929 . S
C314 C313 1.399 . S
C314 C315 1.385 . S
C315 H301 0.931 . S
C315 C314 1.385 . S
C315 C316 1.389 . S
C316 C315 1.389 . S
C316 C317 1.387 . S
C317 H302 0.930 . S
C317 C312 1.390 . S
C317 C316 1.387 . S
H318 C330 0.930 . S
H319 C332 0.930 . S
H320 C333 0.930 . S
H321 C337 0.959 1_554 S
H322 C337 0.959 . S
H323 C337 0.961 1_554 S
H324 C338 0.960 . S
H325 C338 0.961 . S
H326 C338 0.959 . S
H327 C341 0.929 . S
H328 C342 0.931 . S
H329 C344 0.930 . S
C330 H318 0.930 . S
C330 C331 1.399 . S
C330 C335 1.399 1_554 S
C331 C330 1.399 . S
C331 C332 1.376 . S
C332 H319 0.930 . S
C332 C331 1.376 . S
C332 C333 1.388 1_554 S
C333 H320 0.930 . S
C333 C332 1.388 1_556 S
C333 C334 1.390 . S
C334 C333 1.390 . S
C334 C335 1.394 . S
C334 C340 1.465 . S
C335 C330 1.399 1_556 S
C335 C334 1.394 . S
C335 C336 1.516 . S
C336 C335 1.516 . S
C336 C337 1.502 . S
C336 C338 1.561 . S
C336 C339 1.526 . S
C337 H321 0.959 1_556 S
C337 H322 0.959 . S
C337 H323 0.961 1_556 S
C337 C336 1.502 . S
C338 H324 0.960 . S
C338 H325 0.961 . S
C338 H326 0.959 . S
C338 C336 1.561 . S
C339 C336 1.526 . S
C339 C340 1.396 . S
C339 C344 1.390 . S
C340 C334 1.465 . S
C340 C339 1.396 . S
C340 C341 1.399 . S
C341 H327 0.929 . S
C341 C340 1.399 . S
C341 C342 1.385 . S
C342 H328 0.931 . S
C342 C341 1.385 . S
C342 C343 1.389 . S
C343 C342 1.389 . S
C343 C344 1.387 . S
C344 H329 0.930 . S
C344 C339 1.390 . S
C344 C343 1.387 . S
H345 C357 0.930 . S
H346 C359 0.930 . S
H347 C360 0.930 . S
H348 C364 0.959 . S
H349 C364 0.959 . S
H350 C364 0.961 . S
H351 C365 0.960 . S
H352 C365 0.961 . S
H353 C365 0.959 . S
H354 C368 0.929 1_554 S
H355 C369 0.931 . S
H356 C371 0.933 . S
C357 H345 0.930 . S
C357 C358 1.399 1_656 S
C357 C362 1.399 . S
C358 C357 1.399 1_454 S
C358 C359 1.376 . S
C359 H346 0.930 . S
C359 C358 1.376 . S
C359 C360 1.388 . S
C360 H347 0.930 . S
C360 C359 1.388 . S
C360 C361 1.390 1_554 S
C361 C360 1.390 1_556 S
C361 C362 1.393 1_455 S
C361 C367 1.465 . S
C362 C357 1.399 . S
C362 C361 1.393 1_655 S
C362 C363 1.516 . S
C363 C362 1.516 . S
C363 C364 1.502 . S
C363 C365 1.561 1_655 S
C363 C366 1.526 1_655 S
C364 H348 0.959 . S
C364 H349 0.959 . S
C364 H350 0.961 . S
C364 C363 1.502 . S
C365 H351 0.960 . S
C365 H352 0.961 . S
C365 H353 0.959 . S
C365 C363 1.561 1_455 S
C366 C363 1.526 1_455 S
C366 C367 1.396 . S
C366 C371 1.389 1_455 S
C367 C361 1.465 . S
C367 C366 1.396 . S
C367 C368 1.399 . S
C368 H354 0.929 1_556 S
C368 C367 1.399 . S
C368 C369 1.385 . S
C369 H355 0.931 . S
C369 C368 1.385 . S
C369 C370 1.389 . S
C370 C369 1.389 . S
C370 C371 1.384 1_455 S
C371 H356 0.933 . S
C371 C366 1.389 1_655 S
C371 C370 1.384 1_655 S
H372 C384 0.930 . S
H373 C386 0.930 . S
H374 C387 0.930 . S
H375 C391 0.959 . S
H376 C391 0.959 . S
H377 C391 0.961 . S
H378 C392 0.960 . S
H379 C392 0.961 . S
H380 C392 0.959 1_455 S
H381 C395 0.929 . S
H382 C396 0.931 1_455 S
H383 C398 0.930 . S
C384 H372 0.930 . S
C384 C385 1.399 1_655 S
C384 C389 1.399 . S
C385 C384 1.399 1_455 S
C385 C386 1.376 . S
C386 H373 0.930 . S
C386 C385 1.376 . S
C386 C387 1.388 . S
C387 H374 0.930 . S
C387 C386 1.388 . S
C387 C388 1.390 . S
C388 C387 1.390 . S
C388 C389 1.394 1_455 S
C388 C394 1.465 1_455 S
C389 C384 1.399 . S
C389 C388 1.394 1_655 S
C389 C390 1.516 . S
C390 C389 1.516 . S
C390 C391 1.502 . S
C390 C392 1.561 . S
C390 C393 1.526 . S
C391 H375 0.959 . S
C391 H376 0.959 . S
C391 H377 0.961 . S
C391 C390 1.502 . S
C392 H378 0.960 . S
C392 H379 0.961 . S
C392 H380 0.959 1_655 S
C392 C390 1.561 . S
C393 C390 1.526 . S
C393 C394 1.396 . S
C393 C398 1.390 . S
C394 C388 1.465 1_655 S
C394 C393 1.396 . S
C394 C395 1.399 1_655 S
C395 H381 0.929 . S
C395 C394 1.399 1_455 S
C395 C396 1.385 1_455 S
C396 H382 0.931 1_655 S
C396 C395 1.385 1_655 S
C396 C397 1.389 . S
C397 C396 1.389 . S
C397 C398 1.387 . S
C398 H383 0.930 . S
C398 C393 1.390 . S
C398 C397 1.387 . S
H399 C411 0.930 . S
H400 C413 0.930 . S
H401 C414 0.930 . S
H402 C418 0.959 . S
H403 C418 0.959 1_565 S
H404 C418 0.961 . S
H405 C419 0.960 . S
H406 C419 0.961 . S
H407 C419 0.959 . S
H408 C422 0.929 . S
H409 C423 0.931 . S
H410 C425 0.930 1_565 S
C411 H399 0.930 . S
C411 C412 1.399 . S
C411 C416 1.399 . S
C412 C411 1.399 . S
C412 C413 1.376 . S
C413 H400 0.930 . S
C413 C412 1.376 . S
C413 C414 1.388 . S
C414 H401 0.930 . S
C414 C413 1.388 . S
C414 C415 1.390 . S
C415 C414 1.390 . S
C415 C416 1.394 . S
C415 C421 1.465 . S
C416 C411 1.399 . S
C416 C415 1.394 . S
C416 C417 1.516 . S
C417 C416 1.516 . S
C417 C418 1.502 . S
C417 C419 1.561 . S
C417 C420 1.526 . S
C418 H402 0.959 . S
C418 H403 0.959 1_545 S
C418 H404 0.961 . S
C418 C417 1.502 . S
C419 H405 0.960 . S
C419 H406 0.961 . S
C419 H407 0.959 . S
C419 C417 1.561 . S
C420 C417 1.526 . S
C420 C421 1.396 . S
C420 C425 1.390 . S
C421 C415 1.465 . S
C421 C420 1.396 . S
C421 C422 1.399 . S
C422 H408 0.929 . S
C422 C421 1.399 . S
C422 C423 1.385 . S
C423 H409 0.931 . S
C423 C422 1.385 . S
C423 C424 1.389 . S
C424 C423 1.389 . S
C424 C425 1.387 . S
C425 H410 0.930 1_545 S
C425 C420 1.390 . S
C425 C424 1.387 . S
H426 C438 0.930 . S
H427 C440 0.930 . S
H428 C441 0.930 . S
H429 C445 0.959 . S
H430 C445 0.959 . S
H431 C445 0.961 . S
H432 C446 0.960 . S
H433 C446 0.961 . S
H434 C446 0.959 . S
H435 C449 0.929 . S
H436 C450 0.931 . S
H437 C452 0.930 . S
C438 H426 0.930 . S
C438 C439 1.399 . S
C438 C443 1.399 . S
C439 C438 1.399 . S
C439 C440 1.376 . S
C440 H427 0.930 . S
C440 C439 1.376 . S
C440 C441 1.388 . S
C441 H428 0.930 . S
C441 C440 1.388 . S
C441 C442 1.390 . S
C442 C441 1.390 . S
C442 C443 1.394 . S
C442 C448 1.465 . S
C443 C438 1.399 . S
C443 C442 1.394 . S
C443 C444 1.516 . S
C444 C443 1.516 . S
C444 C445 1.502 . S
C444 C446 1.561 . S
C444 C447 1.526 . S
C445 H429 0.959 . S
C445 H430 0.959 . S
C445 H431 0.961 . S
C445 C444 1.502 . S
C446 H432 0.960 . S
C446 H433 0.961 . S
C446 H434 0.959 . S
C446 C444 1.561 . S
C447 C444 1.526 . S
C447 C448 1.396 . S
C447 C452 1.390 . S
C448 C442 1.465 . S
C448 C447 1.396 . S
C448 C449 1.399 . S
C449 H435 0.929 . S
C449 C448 1.399 . S
C449 C450 1.385 . S
C450 H436 0.931 . S
C450 C449 1.385 . S
C450 C451 1.389 . S
C451 C450 1.389 . S
C451 C452 1.387 . S
C452 H437 0.930 . S
C452 C447 1.390 . S
C452 C451 1.387 . S
H453 C465 0.930 . S
H454 C467 0.930 . S
H455 C468 0.930 . S
H456 C472 0.959 . S
H457 C472 0.959 . S
H458 C472 0.961 . S
H459 C473 0.960 . S
H460 C473 0.961 . S
H461 C473 0.959 . S
H462 C476 0.929 . S
H463 C477 0.931 . S
H464 C479 0.930 . S
C465 H453 0.930 . S
C465 C466 1.399 . S
C465 C470 1.399 . S
C466 C465 1.399 . S
C466 C467 1.376 . S
C467 H454 0.930 . S
C467 C466 1.376 . S
C467 C468 1.388 . S
C468 H455 0.930 . S
C468 C467 1.388 . S
C468 C469 1.390 . S
C469 C468 1.390 . S
C469 C470 1.394 . S
C469 C475 1.465 . S
C470 C465 1.399 . S
C470 C469 1.394 . S
C470 C471 1.516 . S
C471 C470 1.516 . S
C471 C472 1.502 . S
C471 C473 1.561 . S
C471 C474 1.526 . S
C472 H456 0.959 . S
C472 H457 0.959 . S
C472 H458 0.961 . S
C472 C471 1.502 . S
C473 H459 0.960 . S
C473 H460 0.961 . S
C473 H461 0.959 . S
C473 C471 1.561 . S
C474 C471 1.526 . S
C474 C475 1.396 . S
C474 C479 1.390 . S
C475 C469 1.465 . S
C475 C474 1.396 . S
C475 C476 1.399 . S
C476 H462 0.929 . S
C476 C475 1.399 . S
C476 C477 1.385 . S
C477 H463 0.931 . S
C477 C476 1.385 . S
C477 C478 1.389 . S
C478 C477 1.389 . S
C478 C479 1.387 . S
C479 H464 0.930 . S
C479 C474 1.390 . S
C479 C478 1.387 . S
H480 C492 0.930 . S
H481 C494 0.930 . S
H482 C495 0.930 . S
H483 C499 0.959 . S
H484 C499 0.959 1_455 S
H485 C499 0.961 . S
H486 C500 0.960 . S
H487 C500 0.961 . S
H488 C500 0.959 . S
H489 C503 0.929 . S
H490 C504 0.931 . S
H491 C506 0.930 . S
C492 H480 0.930 . S
C492 C493 1.400 . S
C492 C497 1.399 1_554 S
C493 C492 1.400 . S
C493 C494 1.376 1_454 S
C494 H481 0.930 . S
C494 C493 1.376 1_656 S
C494 C495 1.388 1_655 S
C495 H482 0.930 . S
C495 C494 1.388 1_455 S
C495 C496 1.390 . S
C496 C495 1.390 . S
C496 C497 1.394 . S
C496 C502 1.465 . S
C497 C492 1.399 1_556 S
C497 C496 1.394 . S
C497 C498 1.516 1_556 S
C498 C497 1.516 1_554 S
C498 C499 1.502 1_455 S
C498 C500 1.561 . S
C498 C501 1.526 1_554 S
C499 H483 0.959 . S
C499 H484 0.959 1_655 S
C499 H485 0.961 . S
C499 C498 1.502 1_655 S
C500 H486 0.960 . S
C500 H487 0.961 . S
C500 H488 0.959 . S
C500 C498 1.561 . S
C501 C498 1.526 1_556 S
C501 C502 1.396 . S
C501 C506 1.390 . S
C502 C496 1.465 . S
C502 C501 1.396 . S
C502 C503 1.399 . S
C503 H489 0.929 . S
C503 C502 1.399 . S
C503 C504 1.385 . S
C504 H490 0.931 . S
C504 C503 1.385 . S
C504 C505 1.389 . S
C505 C504 1.389 . S
C505 C506 1.387 . S
C506 H491 0.930 . S
C506 C501 1.390 . S
C506 C505 1.387 . S
H507 C519 0.930 . S
H508 C521 0.930 . S
H509 C522 0.930 . S
H510 C526 0.959 . S
H511 C526 0.959 1_545 S
H512 C526 0.961 . S
H513 C527 0.960 1_554 S
H514 C527 0.961 . S
H515 C527 0.959 . S
H516 C530 0.929 . S
H517 C531 0.931 . S
H518 C533 0.926 1_545 S
C519 H507 0.930 . S
C519 C520 1.399 . S
C519 C524 1.399 1_554 S
C520 C519 1.399 . S
C520 C521 1.376 1_554 S
C521 H508 0.930 . S
C521 C520 1.376 1_556 S
C521 C522 1.388 . S
C522 H509 0.930 . S
C522 C521 1.388 . S
C522 C523 1.390 . S
C523 C522 1.390 . S
C523 C524 1.394 . S
C523 C529 1.465 . S
C524 C519 1.399 1_556 S
C524 C523 1.394 . S
C524 C525 1.516 . S
C525 C524 1.516 . S
C525 C526 1.502 1_556 S
C525 C527 1.561 1_565 S
C525 C528 1.526 . S
C526 H510 0.959 . S
C526 H511 0.959 1_565 S
C526 H512 0.961 . S
C526 C525 1.502 1_554 S
C527 H513 0.960 1_556 S
C527 H514 0.961 . S
C527 H515 0.959 . S
C527 C525 1.561 1_545 S
C528 C525 1.526 . S
C528 C529 1.396 . S
C528 C533 1.392 . S
C529 C523 1.465 . S
C529 C528 1.396 . S
C529 C530 1.399 . S
C530 H516 0.929 . S
C530 C529 1.399 . S
C530 C531 1.385 . S
C531 H517 0.931 . S
C531 C530 1.385 . S
C531 C532 1.389 . S
C532 C531 1.389 . S
C532 C533 1.388 . S
C533 H518 0.926 1_565 S
C533 C528 1.392 . S
C533 C532 1.388 . S
H534 C546 0.930 . S
H535 C548 0.930 . S
H536 C549 0.930 . S
H537 C553 0.959 . S
H538 C553 0.959 . S
H539 C553 0.961 . S
H540 C554 0.960 . S
H541 C554 0.961 . S
H542 C554 0.959 . S
H543 C557 0.929 1_554 S
H544 C558 0.931 . S
H545 C560 0.930 . S
C546 H534 0.930 . S
C546 C547 1.399 1_556 S
C546 C551 1.399 . S
C547 C546 1.399 1_554 S
C547 C548 1.376 . S
C548 H535 0.930 . S
C548 C547 1.376 . S
C548 C549 1.388 . S
C549 H536 0.930 . S
C549 C548 1.388 . S
C549 C550 1.390 1_554 S
C550 C549 1.390 1_556 S
C550 C551 1.394 . S
C550 C556 1.465 . S
C551 C546 1.399 . S
C551 C550 1.394 . S
C551 C552 1.516 . S
C552 C551 1.516 . S
C552 C553 1.502 . S
C552 C554 1.561 . S
C552 C555 1.526 . S
C553 H537 0.959 . S
C553 H538 0.959 . S
C553 H539 0.961 . S
C553 C552 1.502 . S
C554 H540 0.960 . S
C554 H541 0.961 . S
C554 H542 0.959 . S
C554 C552 1.561 . S
C555 C552 1.526 . S
C555 C556 1.396 . S
C555 C560 1.390 . S
C556 C550 1.465 . S
C556 C555 1.396 . S
C556 C557 1.399 . S
C557 H543 0.929 1_556 S
C557 C556 1.399 . S
C557 C558 1.385 . S
C558 H544 0.931 . S
C558 C557 1.385 . S
C558 C559 1.389 . S
C559 C558 1.389 . S
C559 C560 1.387 . S
C560 H545 0.930 . S
C560 C555 1.390 . S
C560 C559 1.387 . S
H561 C573 0.930 . S
H562 C575 0.930 . S
H563 C576 0.930 . S
H564 C580 0.959 . S
H565 C580 0.959 . S
H566 C580 0.961 . S
H567 C581 0.960 . S
H568 C581 0.961 . S
H569 C581 0.959 . S
H570 C584 0.929 1_554 S
H571 C585 0.931 . S
H572 C587 0.930 . S
C573 H561 0.930 . S
C573 C574 1.399 1_556 S
C573 C578 1.399 . S
C574 C573 1.399 1_554 S
C574 C575 1.376 . S
C575 H562 0.930 . S
C575 C574 1.376 . S
C575 C576 1.388 . S
C576 H563 0.930 . S
C576 C575 1.388 . S
C576 C577 1.390 1_554 S
C577 C576 1.390 1_556 S
C577 C578 1.394 . S
C577 C583 1.465 . S
C578 C573 1.399 . S
C578 C577 1.394 . S
C578 C579 1.516 . S
C579 C578 1.516 . S
C579 C580 1.502 . S
C579 C581 1.561 . S
C579 C582 1.526 . S
C580 H564 0.959 . S
C580 H565 0.959 . S
C580 H566 0.961 . S
C580 C579 1.502 . S
C581 H567 0.960 . S
C581 H568 0.961 . S
C581 H569 0.959 . S
C581 C579 1.561 . S
C582 C579 1.526 . S
C582 C583 1.396 . S
C582 C587 1.390 . S
C583 C577 1.465 . S
C583 C582 1.396 . S
C583 C584 1.399 . S
C584 H570 0.929 1_556 S
C584 C583 1.399 . S
C584 C585 1.385 . S
C585 H571 0.931 . S
C585 C584 1.385 . S
C585 C586 1.389 . S
C586 C585 1.389 . S
C586 C587 1.387 . S
C587 H572 0.930 . S
C587 C582 1.390 . S
C587 C586 1.387 . S
H588 C600 0.930 . S
H589 C602 0.930 . S
H590 C603 0.930 . S
H591 C607 0.959 . S
H592 C607 0.959 . S
H593 C607 0.961 1_554 S
H594 C608 0.960 . S
H595 C608 0.961 . S
H596 C608 0.959 . S
H597 C611 0.929 . S
H598 C612 0.931 . S
H599 C614 0.930 . S
C600 H588 0.930 . S
C600 C601 1.399 1_455 S
C600 C605 1.399 . S
C601 C600 1.399 1_655 S
C601 C602 1.376 . S
C602 H589 0.930 . S
C602 C601 1.376 . S
C602 C603 1.388 . S
C603 H590 0.930 . S
C603 C602 1.388 . S
C603 C604 1.390 . S
C604 C603 1.390 . S
C604 C605 1.394 1_655 S
C604 C610 1.465 . S
C605 C600 1.399 . S
C605 C604 1.394 1_455 S
C605 C606 1.516 . S
C606 C605 1.516 . S
C606 C607 1.502 1_554 S
C606 C608 1.561 . S
C606 C609 1.526 1_554 S
C607 H591 0.959 . S
C607 H592 0.959 . S
C607 H593 0.961 1_556 S
C607 C606 1.502 1_556 S
C608 H594 0.960 . S
C608 H595 0.961 . S
C608 H596 0.959 . S
C608 C606 1.561 . S
C609 C606 1.526 1_556 S
C609 C610 1.396 1_456 S
C609 C614 1.390 . S
C610 C604 1.465 . S
C610 C609 1.396 1_654 S
C610 C611 1.399 1_554 S
C611 H597 0.929 . S
C611 C610 1.399 1_556 S
C611 C612 1.385 . S
C612 H598 0.931 . S
C612 C611 1.385 . S
C612 C613 1.389 1_655 S
C613 C612 1.389 1_455 S
C613 C614 1.387 . S
C614 H599 0.930 . S
C614 C609 1.390 . S
C614 C613 1.387 . S
H615 C627 0.930 . S
H616 C629 0.930 . S
H617 C630 0.930 . S
H618 C634 0.959 . S
H619 C634 0.959 . S
H620 C634 0.961 . S
H621 C635 0.960 . S
H622 C635 0.961 . S
H623 C635 0.959 . S
H624 C638 0.929 . S
H625 C639 0.929 1_554 S
H626 C641 0.930 . S
C627 H615 0.930 . S
C627 C628 1.399 . S
C627 C632 1.399 . S
C628 C627 1.399 . S
C628 C629 1.376 . S
C629 H616 0.930 . S
C629 C628 1.376 . S
C629 C630 1.388 . S
C630 H617 0.930 . S
C630 C629 1.388 . S
C630 C631 1.390 . S
C631 C630 1.390 . S
C631 C632 1.394 . S
C631 C637 1.465 . S
C632 C627 1.399 . S
C632 C631 1.394 . S
C632 C633 1.516 1_554 S
C633 C632 1.516 1_556 S
C633 C634 1.502 . S
C633 C635 1.561 . S
C633 C636 1.526 . S
C634 H618 0.959 . S
C634 H619 0.959 . S
C634 H620 0.961 . S
C634 C633 1.502 . S
C635 H621 0.960 . S
C635 H622 0.961 . S
C635 H623 0.959 . S
C635 C633 1.561 . S
C636 C633 1.526 . S
C636 C637 1.396 1_556 S
C636 C641 1.390 . S
C637 C631 1.465 . S
C637 C636 1.396 1_554 S
C637 C638 1.399 . S
C638 H624 0.929 . S
C638 C637 1.399 . S
C638 C639 1.385 1_554 S
C639 H625 0.929 1_556 S
C639 C638 1.385 1_556 S
C639 C640 1.389 . S
C640 C639 1.389 . S
C640 C641 1.387 . S
C641 H626 0.930 . S
C641 C636 1.390 . S
C641 C640 1.387 . S
H642 C654 0.930 . S
H643 C656 0.930 . S
H644 C657 0.930 1_556 S
H645 C661 0.959 . S
H646 C661 0.959 . S
H647 C661 0.961 . S
H648 C662 0.960 . S
H649 C662 0.961 . S
H650 C662 0.959 . S
H651 C665 0.929 . S
H652 C666 0.931 . S
H653 C668 0.930 1_554 S
C654 H642 0.930 . S
C654 C655 1.399 . S
C654 C659 1.399 . S
C655 C654 1.399 . S
C655 C656 1.376 . S
C656 H643 0.930 . S
C656 C655 1.376 . S
C656 C657 1.388 . S
C657 H644 0.930 1_554 S
C657 C656 1.388 . S
C657 C658 1.390 . S
C658 C657 1.390 . S
C658 C659 1.394 . S
C658 C664 1.465 1_554 S
C659 C654 1.399 . S
C659 C658 1.394 . S
C659 C660 1.516 . S
C660 C659 1.516 . S
C660 C661 1.502 . S
C660 C662 1.561 . S
C660 C663 1.526 . S
C661 H645 0.959 . S
C661 H646 0.959 . S
C661 H647 0.961 . S
C661 C660 1.502 . S
C662 H648 0.960 . S
C662 H649 0.961 . S
C662 H650 0.959 . S
C662 C660 1.561 . S
C663 C660 1.526 . S
C663 C664 1.396 1_554 S
C663 C668 1.390 1_554 S
C664 C658 1.465 1_556 S
C664 C663 1.396 1_556 S
C664 C665 1.399 . S
C665 H651 0.929 . S
C665 C664 1.399 . S
C665 C666 1.385 . S
C666 H652 0.931 . S
C666 C665 1.385 . S
C666 C667 1.389 . S
C667 C666 1.389 . S
C667 C668 1.387 . S
C668 H653 0.930 1_556 S
C668 C663 1.390 1_556 S
C668 C667 1.387 . S
H669 C681 0.930 . S
H670 C683 0.930 . S
H671 C684 0.930 . S
H672 C688 0.959 . S
H673 C688 0.959 . S
H674 C688 0.961 . S
H675 C689 0.960 . S
H676 C689 0.961 . S
H677 C689 0.959 . S
H678 C692 0.929 . S
H679 C693 0.931 1_554 S
H680 C695 0.930 . S
C681 H669 0.930 . S
C681 C682 1.399 . S
C681 C686 1.399 . S
C682 C681 1.399 . S
C682 C683 1.376 . S
C683 H670 0.930 . S
C683 C682 1.376 . S
C683 C684 1.388 . S
C684 H671 0.930 . S
C684 C683 1.388 . S
C684 C685 1.390 . S
C685 C684 1.390 . S
C685 C686 1.394 . S
C685 C691 1.465 . S
C686 C681 1.399 . S
C686 C685 1.394 . S
C686 C687 1.516 1_554 S
C687 C686 1.516 1_556 S
C687 C688 1.502 . S
C687 C689 1.561 . S
C687 C690 1.526 . S
C688 H672 0.959 . S
C688 H673 0.959 . S
C688 H674 0.961 . S
C688 C687 1.502 . S
C689 H675 0.960 . S
C689 H676 0.961 . S
C689 H677 0.959 . S
C689 C687 1.561 . S
C690 C687 1.526 . S
C690 C691 1.396 1_556 S
C690 C695 1.390 . S
C691 C685 1.465 . S
C691 C690 1.396 1_554 S
C691 C692 1.399 . S
C692 H678 0.929 . S
C692 C691 1.399 . S
C692 C693 1.385 1_554 S
C693 H679 0.931 1_556 S
C693 C692 1.385 1_556 S
C693 C694 1.389 . S
C694 C693 1.389 . S
C694 C695 1.387 . S
C695 H680 0.930 . S
C695 C690 1.390 . S
C695 C694 1.387 . S
H696 C708 0.930 . S
H697 C710 0.930 . S
H698 C711 0.930 . S
H699 C715 0.959 . S
H700 C715 0.959 . S
H701 C715 0.961 . S
H702 C716 0.960 . S
H703 C716 0.961 . S
H704 C716 0.959 . S
H705 C719 0.929 . S
H706 C720 0.931 . S
H707 C722 0.930 1_455 S
C708 H696 0.930 . S
C708 C709 1.399 1_455 S
C708 C713 1.399 1_455 S
C709 C708 1.399 1_655 S
C709 C710 1.376 . S
C710 H697 0.930 . S
C710 C709 1.376 . S
C710 C711 1.388 . S
C711 H698 0.930 . S
C711 C710 1.388 . S
C711 C712 1.390 . S
C712 C711 1.390 . S
C712 C713 1.394 . S
C712 C718 1.465 . S
C713 C708 1.399 1_655 S
C713 C712 1.394 . S
C713 C714 1.516 1_655 S
C714 C713 1.516 1_455 S
C714 C715 1.502 . S
C714 C716 1.561 1_455 S
C714 C717 1.526 1_455 S
C715 H699 0.959 . S
C715 H700 0.959 . S
C715 H701 0.961 . S
C715 C714 1.502 . S
C716 H702 0.960 . S
C716 H703 0.961 . S
C716 H704 0.959 . S
C716 C714 1.561 1_655 S
C717 C714 1.526 1_655 S
C717 C718 1.396 . S
C717 C722 1.390 . S
C718 C712 1.465 . S
C718 C717 1.396 . S
C718 C719 1.399 . S
C719 H705 0.929 . S
C719 C718 1.399 . S
C719 C720 1.385 . S
C720 H706 0.931 . S
C720 C719 1.385 . S
C720 C721 1.389 . S
C721 C720 1.389 . S
C721 C722 1.387 . S
C722 H707 0.930 1_655 S
C722 C717 1.390 . S
C722 C721 1.387 . S
H723 C735 0.930 . S
H724 C737 0.930 . S
H725 C738 0.930 . S
H726 C742 0.959 . S
H727 C742 0.959 . S
H728 C742 0.961 . S
H729 C743 0.960 . S
H730 C743 0.961 . S
H731 C743 0.959 . S
H732 C746 0.929 1_545 S
H733 C747 0.931 1_545 S
H734 C749 0.930 . S
C735 H723 0.930 . S
C735 C736 1.399 . S
C735 C740 1.399 . S
C736 C735 1.399 . S
C736 C737 1.376 . S
C737 H724 0.930 . S
C737 C736 1.376 . S
C737 C738 1.388 . S
C738 H725 0.930 . S
C738 C737 1.388 . S
C738 C739 1.390 . S
C739 C738 1.390 . S
C739 C740 1.394 . S
C739 C745 1.465 . S
C740 C735 1.399 . S
C740 C739 1.394 . S
C740 C741 1.516 . S
C741 C740 1.516 . S
C741 C742 1.502 . S
C741 C743 1.561 . S
C741 C744 1.526 . S
C742 H726 0.959 . S
C742 H727 0.959 . S
C742 H728 0.961 . S
C742 C741 1.502 . S
C743 H729 0.960 . S
C743 H730 0.961 . S
C743 H731 0.959 . S
C743 C741 1.561 . S
C744 C741 1.526 . S
C744 C745 1.396 . S
C744 C749 1.390 . S
C745 C739 1.465 . S
C745 C744 1.396 . S
C745 C746 1.399 . S
C746 H732 0.929 1_565 S
C746 C745 1.399 . S
C746 C747 1.385 . S
C747 H733 0.931 1_565 S
C747 C746 1.385 . S
C747 C748 1.389 . S
C748 C747 1.389 . S
C748 C749 1.387 . S
C749 H734 0.930 . S
C749 C744 1.390 . S
C749 C748 1.387 . S
H750 C762 0.930 . S
H751 C764 0.930 . S
H752 C765 0.930 . S
H753 C769 0.959 . S
H754 C769 0.959 . S
H755 C769 0.961 . S
H756 C770 0.960 . S
H757 C770 0.961 . S
H758 C770 0.959 . S
H759 C773 0.929 . S
H760 C774 0.931 . S
H761 C776 0.930 . S
C762 H750 0.930 . S
C762 C763 1.399 . S
C762 C767 1.399 . S
C763 C762 1.399 . S
C763 C764 1.376 . S
C764 H751 0.930 . S
C764 C763 1.376 . S
C764 C765 1.388 . S
C765 H752 0.930 . S
C765 C764 1.388 . S
C765 C766 1.390 . S
C766 C765 1.390 . S
C766 C767 1.394 . S
C766 C772 1.465 . S
C767 C762 1.399 . S
C767 C766 1.394 . S
C767 C768 1.516 . S
C768 C767 1.516 . S
C768 C769 1.502 . S
C768 C770 1.561 . S
C768 C771 1.526 . S
C769 H753 0.959 . S
C769 H754 0.959 . S
C769 H755 0.961 . S
C769 C768 1.502 . S
C770 H756 0.960 . S
C770 H757 0.961 . S
C770 H758 0.959 . S
C770 C768 1.561 . S
C771 C768 1.526 . S
C771 C772 1.396 . S
C771 C776 1.390 . S
C772 C766 1.465 . S
C772 C771 1.396 . S
C772 C773 1.399 . S
C773 H759 0.929 . S
C773 C772 1.399 . S
C773 C774 1.385 . S
C774 H760 0.931 . S
C774 C773 1.385 . S
C774 C775 1.389 . S
C775 C774 1.389 . S
C775 C776 1.387 . S
C776 H761 0.930 . S
C776 C771 1.390 . S
C776 C775 1.387 . S
H777 C789 0.930 . S
H778 C791 0.930 . S
H779 C792 0.930 . S
H780 C796 0.959 . S
H781 C796 0.959 . S
H782 C796 0.961 . S
H783 C797 0.960 . S
H784 C797 0.961 . S
H785 C797 0.959 . S
H786 C800 0.929 . S
H787 C801 0.931 . S
H788 C803 0.930 . S
C789 H777 0.930 . S
C789 C790 1.399 . S
C789 C794 1.399 . S
C790 C789 1.399 . S
C790 C791 1.376 . S
C791 H778 0.930 . S
C791 C790 1.376 . S
C791 C792 1.388 . S
C792 H779 0.930 . S
C792 C791 1.388 . S
C792 C793 1.390 . S
C793 C792 1.390 . S
C793 C794 1.394 . S
C793 C799 1.465 . S
C794 C789 1.399 . S
C794 C793 1.394 . S
C794 C795 1.516 . S
C795 C794 1.516 . S
C795 C796 1.502 . S
C795 C797 1.561 . S
C795 C798 1.526 . S
C796 H780 0.959 . S
C796 H781 0.959 . S
C796 H782 0.961 . S
C796 C795 1.502 . S
C797 H783 0.960 . S
C797 H784 0.961 . S
C797 H785 0.959 . S
C797 C795 1.561 . S
C798 C795 1.526 . S
C798 C799 1.396 . S
C798 C803 1.390 . S
C799 C793 1.465 . S
C799 C798 1.396 . S
C799 C800 1.399 . S
C800 H786 0.929 . S
C800 C799 1.399 . S
C800 C801 1.385 . S
C801 H787 0.931 . S
C801 C800 1.385 . S
C801 C802 1.389 . S
C802 C801 1.389 . S
C802 C803 1.387 . S
C803 H788 0.930 . S
C803 C798 1.390 . S
C803 C802 1.387 . S
C169 C61 1.671 . S
C181 C88 1.499 . S
C208 C106 1.288 . S
C196 C70 1.471 . S
C235 C127 1.493 . S
C223 C43 1.674 . S
C262 C151 1.345 . S
C250 C52 1.514 1_455 S
C289 C85 1.480 1_565 S
C277 C25 1.594 . S
C304 C34 1.378 . S
C316 C109 1.138 . S
C331 C7 1.517 . S
C343 C130 1.382 . S
C358 C16 1.393 1_455 S
C370 C148 1.175 . S
C397 C90 0.399 . S
C385 C50 0.525 1_455 S
C424 C108 0.566 . S
C412 C59 0.698 . S
C451 C129 0.420 . S
C439 C67 0.511 . S
C466 C41 0.556 . S
C478 C153 0.593 . S
C493 C14 0.580 1_455 S
C505 C89 0.474 . S
C532 C107 0.614 1_565 S
C520 C23 0.742 . S
C559 C128 0.601 . S
C547 C31 0.493 . S
C574 C5 0.667 . S
C586 C152 0.689 . S
C601 C49 1.520 . S
C613 C86 1.463 . S
C628 C58 1.644 . S
C640 C110 1.662 . S
C667 C131 1.472 . S
C655 C68 1.555 . S
C694 C149 1.683 . S
C682 C40 1.660 . S
C709 C13 1.437 . S
C721 C87 1.393 . S
C748 C111 1.483 . S
C736 C22 1.567 . S
C775 C132 1.385 . S
C763 C32 1.350 . S
C790 C4 1.559 . S
C802 C150 1.514 . S
