# Generated by pormake.
# Topology zzz, (3,6)-cn, num edge types: 1
# Building blocks:
#     Node 0, Type 0, BuildingBlock: CUQRIR_clean_linker_1, # of connection points: 3
#     Node 1, Type 0, BuildingBlock: CUQRIR_clean_linker_1, # of connection points: 3
#     Node 2, Type 0, BuildingBlock: CUQRIR_clean_linker_1, # of connection points: 3
#     Node 3, Type 0, BuildingBlock: CUQRIR_clean_linker_1, # of connection points: 3
#     Node 4, Type 0, BuildingBlock: CUQRIR_clean_linker_1, # of connection points: 3
#     Node 5, Type 0, BuildingBlock: CUQRIR_clean_linker_1, # of connection points: 3
#     Node 6, Type 0, BuildingBlock: CUQRIR_clean_linker_1, # of connection points: 3
#     Node 7, Type 0, BuildingBlock: CUQRIR_clean_linker_1, # of connection points: 3
#     Node 8, Type 1, BuildingBlock: KUMJIN_clean_sbu_1, # of connection points: 6
#     Node 9, Type 1, BuildingBlock: KUMJIN_clean_sbu_1, # of connection points: 6
#     Node 10, Type 1, BuildingBlock: KUMJIN_clean_sbu_1, # of connection points: 6
#     Node 11, Type 1, BuildingBlock: KUMJIN_clean_sbu_1, # of connection points: 6
#     Edge 12, Type (0, 1), BuildingBlock: XIVTED_clean_linker_0, # of connection points: 2
#     Edge 13, Type (0, 1), BuildingBlock: XIVTED_clean_linker_0, # of connection points: 2
#     Edge 14, Type (0, 1), BuildingBlock: XIVTED_clean_linker_0, # of connection points: 2
#     Edge 15, Type (0, 1), BuildingBlock: XIVTED_clean_linker_0, # of connection points: 2
#     Edge 16, Type (0, 1), BuildingBlock: XIVTED_clean_linker_0, # of connection points: 2
#     Edge 17, Type (0, 1), BuildingBlock: XIVTED_clean_linker_0, # of connection points: 2
#     Edge 18, Type (0, 1), BuildingBlock: XIVTED_clean_linker_0, # of connection points: 2
#     Edge 19, Type (0, 1), BuildingBlock: XIVTED_clean_linker_0, # of connection points: 2
#     Edge 20, Type (0, 1), BuildingBlock: XIVTED_clean_linker_0, # of connection points: 2
#     Edge 21, Type (0, 1), BuildingBlock: XIVTED_clean_linker_0, # of connection points: 2
#     Edge 22, Type (0, 1), BuildingBlock: XIVTED_clean_linker_0, # of connection points: 2
#     Edge 23, Type (0, 1), BuildingBlock: XIVTED_clean_linker_0, # of connection points: 2
#     Edge 24, Type (0, 1), BuildingBlock: XIVTED_clean_linker_0, # of connection points: 2
#     Edge 25, Type (0, 1), BuildingBlock: XIVTED_clean_linker_0, # of connection points: 2
#     Edge 26, Type (0, 1), BuildingBlock: XIVTED_clean_linker_0, # of connection points: 2
#     Edge 27, Type (0, 1), BuildingBlock: XIVTED_clean_linker_0, # of connection points: 2
#     Edge 28, Type (0, 1), BuildingBlock: XIVTED_clean_linker_0, # of connection points: 2
#     Edge 29, Type (0, 1), BuildingBlock: XIVTED_clean_linker_0, # of connection points: 2
#     Edge 30, Type (0, 1), BuildingBlock: XIVTED_clean_linker_0, # of connection points: 2
#     Edge 31, Type (0, 1), BuildingBlock: XIVTED_clean_linker_0, # of connection points: 2
#     Edge 32, Type (0, 1), BuildingBlock: XIVTED_clean_linker_0, # of connection points: 2
#     Edge 33, Type (0, 1), BuildingBlock: XIVTED_clean_linker_0, # of connection points: 2
#     Edge 34, Type (0, 1), BuildingBlock: XIVTED_clean_linker_0, # of connection points: 2
#     Edge 35, Type (0, 1), BuildingBlock: XIVTED_clean_linker_0, # of connection points: 2
# Relax obj value: 0.217
# Max RMSD: 0.112
# Mean RMSD: 0.089
data_MOF--net-zzz--node1-KUMJIN_clean_sbu_1--node2-CUQRIR_clean_linker_1--edge1-XIVTED_clean_linker_0
_symmetry_space_group_name_H-M    P1
_symmetry_Int_Tables_number       1
_symmetry_cell_setting            triclinic
loop_
_symmetry_equiv_pos_as_xyz
'x, y, z'
_cell_length_a     46.894562
_cell_length_b     46.921018
_cell_length_c     14.293426
_cell_angle_alpha  90.259981
_cell_angle_beta   90.394449
_cell_angle_gamma 90.209468
loop_
_atom_site_label
_atom_site_type_symbol
_atom_site_fract_x
_atom_site_fract_y
_atom_site_fract_z
_atom_type_partial_charge
C0 C 0.75508 0.55434 0.36599 0.0
N1 N 0.78374 0.55813 0.35315 0.0
N2 N 0.74008 0.55938 0.28509 0.0
C3 C 0.74197 0.54482 0.45581 0.0
C4 C 0.76077 0.56594 0.22317 0.0
N5 N 0.78696 0.56521 0.26388 0.0
C6 C 0.75578 0.56952 0.11935 0.0
H7 H 0.74625 0.52177 0.46533 0.0
H8 H 0.71857 0.5483 0.4552 0.0
H9 H 0.75193 0.55642 0.51553 0.0
H10 H 0.76255 0.59124 0.09843 0.0
H11 H 0.73317 0.56653 0.09854 0.0
H12 H 0.76892 0.55401 0.07992 0.0
C13 C 0.02192 0.75708 0.33361 0.0
N14 N 1.00724 0.78202 0.34266 0.0
N15 N 1.00576 0.73651 0.29044 0.0
C16 C 0.05225 0.75313 0.36423 0.0
C17 C 0.98063 0.75003 0.27616 0.0
N18 N 0.98201 0.77811 0.30069 0.0
C19 C 0.95448 0.73574 0.2354 0.0
H20 H 0.06644 0.76413 0.31405 0.0
H21 H 0.05787 0.73018 0.36646 0.0
H22 H 0.0557 0.763 0.43412 0.0
H23 H 0.94811 0.71779 0.28101 0.0
H24 H 0.95933 0.72672 0.16539 0.0
H25 H 0.93627 0.7507 0.23032 0.0
C26 C 0.79673 1.01706 0.28847 0.0
N27 N 0.7717 1.00378 0.30993 0.0
N28 N 0.81316 1.00035 0.23187 0.0
C29 C 0.80454 0.04667 0.31914 0.0
C30 C 0.79698 0.97655 0.21965 0.0
N31 N 0.772 0.97863 0.26648 0.0
C32 C 0.80513 0.95185 0.15775 0.0
H33 H 0.79531 0.06206 0.26871 0.0
H34 H 0.82804 0.04951 0.32059 0.0
H35 H 0.79561 0.05132 0.38924 0.0
H36 H 0.82481 0.94183 0.18524 0.0
H37 H 0.80975 0.95972 0.08631 0.0
H38 H 0.78835 0.9352 0.15422 0.0
C39 C 0.54139 0.7962 0.31386 0.0
N40 N 0.52806 0.77114 0.33547 0.0
N41 N 0.52657 0.81079 0.24652 0.0
C42 C 0.56828 0.80669 0.35964 0.0
C43 C 0.50399 0.79344 0.22798 0.0
N44 N 0.5049 0.7697 0.28145 0.0
C45 C 0.482 0.79888 0.15302 0.0
H46 H 0.56954 0.8303 0.35734 0.0
H47 H 0.58677 0.79787 0.32125 0.0
H48 H 0.56956 0.79926 0.43315 0.0
H49 H 0.49082 0.81243 0.09669 0.0
H50 H 0.46364 0.81013 0.18467 0.0
H51 H 0.47414 0.77858 0.12205 0.0
C52 C 0.29857 0.53049 0.11947 0.0
N53 N 0.27395 0.51683 0.09367 0.0
N54 N 0.31504 0.51374 0.17639 0.0
C55 C 0.30601 0.56034 0.09198 0.0
C56 C 0.2991 0.4897 0.185 0.0
N57 N 0.27445 0.4915 0.13513 0.0
C58 C 0.30677 0.46531 0.2483 0.0
H59 H 0.32945 0.5633 0.09037 0.0
H60 H 0.29711 0.57527 0.14454 0.0
H61 H 0.2966 0.56549 0.02267 0.0
H62 H 0.31003 0.47341 0.32067 0.0
H63 H 0.32714 0.45574 0.22519 0.0
H64 H 0.29018 0.44841 0.24802 0.0
C65 C 0.0451 0.29791 0.12526 0.0
N66 N 0.05971 0.2739 0.10087 0.0
N67 N 0.06255 0.31747 0.16803 0.0
C68 C 1.01361 0.30153 0.11229 0.0
C69 C 0.08823 0.30432 0.16792 0.0
N70 N 0.08651 0.27755 0.13097 0.0
C71 C 0.11501 0.31748 0.20804 0.0
H72 H 1.00671 0.29234 0.0441 0.0
H73 H 1.00762 0.32436 0.11625 0.0
H74 H 1.00242 0.28978 0.16845 0.0
H75 H 0.11875 0.33853 0.17525 0.0
H76 H 0.13393 0.30389 0.19557 0.0
H77 H 0.11232 0.32118 0.28423 0.0
C78 C 0.26794 0.05009 0.14278 0.0
N79 N 0.29373 0.06285 0.12899 0.0
N80 N 0.25133 0.06593 0.20121 0.0
C81 C 0.25982 0.02134 0.10494 0.0
C82 C 0.26815 0.08861 0.22263 0.0
N83 N 0.29386 0.08669 0.18005 0.0
C84 C 0.25996 0.11173 0.29055 0.0
H85 H 0.2363 0.01862 0.10371 0.0
H86 H 0.26921 1.00473 0.15067 0.0
H87 H 0.2685 0.01841 0.03352 0.0
H88 H 0.25951 0.10281 0.36231 0.0
H89 H 0.23823 0.11956 0.27402 0.0
H90 H 0.27508 0.12995 0.28848 0.0
C91 C 0.51492 0.26335 0.15501 0.0
N92 N 0.50105 0.28793 0.13215 0.0
N93 N 0.49843 0.24624 0.21041 0.0
C94 C 0.54463 0.25637 0.12491 0.0
C95 C 0.47424 0.26176 0.22098 0.0
N96 N 0.47576 0.28678 0.17389 0.0
C97 C 0.44983 0.25324 0.28305 0.0
H98 H 0.54914 0.26592 0.05565 0.0
H99 H 0.54776 0.23295 0.12187 0.0
H100 H 0.55992 0.26552 0.17656 0.0
H101 H 0.45812 0.24649 0.35239 0.0
H102 H 0.43843 0.23483 0.25119 0.0
H103 H 0.43415 0.27061 0.2923 0.0
Eu104 Eu 1.0086 0.04039 0.61035 0.0
C105 C 0.08016 0.05804 0.97208 0.0
N106 N 0.08411 0.05153 0.87996 0.0
C107 C 0.12044 0.08751 0.86986 0.0
C108 C 0.09563 0.0804 0.01545 0.0
C109 C 0.1044 0.06545 0.82935 0.0
C110 C 0.11591 0.09516 0.96301 0.0
C111 C 0.05409 0.05034 0.11623 0.0
C112 C 0.05975 0.04299 0.02234 0.0
C113 C 0.06937 0.07268 0.15924 0.0
C114 C 0.09017 0.08757 0.10915 0.0
Eu115 Eu 0.05477 1.01443 0.81899 0.0
N116 N 0.04514 0.02147 0.97924 0.0
C117 C 0.03301 0.03519 0.16396 0.0
C118 C 0.02561 1.0057 0.02694 0.0
C119 C 0.01893 1.01256 0.11945 0.0
H120 H 0.10844 0.05983 0.75773 0.0
H121 H 1.00294 1.00039 0.1563 0.0
H122 H 0.94125 0.03274 0.69698 0.0
H123 H 0.05324 0.99032 0.29799 0.0
H124 H 1.0152 0.98778 0.99371 0.0
H125 H 0.02762 0.04066 0.23537 0.0
H126 H 0.05042 0.02586 0.42593 0.0
H127 H 0.13629 0.09865 0.82904 0.0
H128 H 0.06529 0.07859 0.23131 0.0
H129 H 0.10178 0.10475 0.14336 0.0
H130 H 0.90211 0.99794 0.68918 0.0
H131 H 0.12822 0.11244 0.99381 0.0
H132 H 0.01577 0.95342 0.28084 0.0
N133 N 0.96819 1.00961 0.60439 0.0
C134 C 0.96871 0.98913 0.53642 0.0
C135 C 0.92102 0.99476 0.64747 0.0
C136 C 0.94609 0.96937 0.52635 0.0
C137 C 0.94376 1.01402 0.65391 0.0
C138 C 0.92248 0.97191 0.58502 0.0
N139 N 1.01235 1.00843 0.48237 0.0
C140 C 0.03407 1.00971 0.41908 0.0
C141 C 0.99175 0.96833 0.4003 0.0
C142 C 0.99109 0.98881 0.47288 0.0
C143 C 1.01445 0.96889 0.33718 0.0
C144 C 0.03566 0.98969 0.34657 0.0
H145 H 0.90467 0.95721 0.57937 0.0
H146 H 0.9301 0.93293 0.44803 0.0
H147 H 0.97025 0.93181 0.33849 0.0
O148 O 1.0025 0.05972 0.47363 0.0
O149 O 0.03309 0.99766 0.60626 0.0
O150 O 0.0262 0.98041 0.75082 0.0
O151 O 0.97567 0.07268 0.5868 0.0
O152 O 0.05429 0.05411 0.58714 0.0
O153 O 0.07951 0.02354 0.68334 0.0
O154 O 0.07595 0.98758 0.92198 0.0
O155 O 0.03852 0.06014 0.83536 0.0
O156 O 0.0309 0.0778 0.6875 0.0
O157 O 0.08838 0.98498 0.77671 0.0
O158 O 1.00764 1.00286 0.82902 0.0
O159 O 0.98798 0.04154 0.75641 0.0
C160 C 0.02835 0.97564 0.66067 0.0
C161 C 0.99403 0.10872 0.48932 0.0
C162 C 0.03055 0.14226 0.43932 0.0
C163 C 0.0163 0.16423 0.48668 0.0
C164 C 0.97969 0.13103 0.5347 0.0
C165 C 0.9908 0.15866 0.53309 0.0
C166 C 0.01913 0.11473 0.4393 0.0
C167 C 0.07784 0.04059 0.60991 0.0
C168 C 0.98505 0.07893 0.5039 0.0
C169 C 0.94715 0.94843 0.45592 0.0
C170 C 0.96992 0.94789 0.39316 0.0
C171 C 0.03505 0.08179 0.77824 0.0
C172 C 0.08107 0.94198 0.85563 0.0
C173 C 0.04683 0.90447 0.89189 0.0
C174 C 0.062 0.88562 0.83397 0.0
C175 C 0.09611 0.92294 0.79861 0.0
C176 C 0.05641 0.93256 0.90147 0.0
C177 C 0.08652 0.89487 0.78775 0.0
C178 C 0.98689 0.02153 0.82105 0.0
C179 C 0.08855 0.97242 0.85795 0.0
H180 H 0.02476 0.18575 0.48682 0.0
H181 H 0.96039 0.12694 0.57371 0.0
H182 H 0.97987 0.17571 0.56919 0.0
H183 H 0.03059 0.09792 0.4035 0.0
H184 H 0.05527 0.86364 0.82585 0.0
H185 H 0.11482 0.92996 0.76096 0.0
H186 H 0.04409 0.94727 0.94327 0.0
H187 H 0.09808 0.88026 0.7433 0.0
Eu188 Eu 0.54865 0.05464 0.83031 0.0
C189 C 0.52366 0.93699 0.69642 0.0
N190 N 0.54024 0.95752 0.65744 0.0
C191 C 0.57792 0.9239 0.63458 0.0
C192 C 0.53432 0.90927 0.71052 0.0
C193 C 0.56656 0.95117 0.6229 0.0
C194 C 0.56188 0.90295 0.67964 0.0
C195 C 0.47839 0.92292 0.76316 0.0
C196 C 0.49599 0.94382 0.72215 0.0
C197 C 0.48936 0.89565 0.78122 0.0
C198 C 0.5172 0.8888 0.75458 0.0
Eu199 Eu 0.51928 1.00272 0.63723 0.0
N200 N 0.48584 0.97034 0.70291 0.0
C201 C 0.44998 0.92972 0.782 0.0
C202 C 0.45745 0.97599 0.71291 0.0
C203 C 0.43934 0.95618 0.755 0.0
H204 H 0.57886 0.96734 0.58757 0.0
H205 H 0.41703 0.96113 0.76487 0.0
H206 H 0.49243 0.07105 0.96978 0.0
H207 H 0.62694 0.12849 0.68888 0.0
H208 H 0.44834 0.99545 0.68661 0.0
H209 H 0.43581 0.91428 0.81357 0.0
H210 H 0.60838 0.08185 0.74202 0.0
H211 H 0.59902 0.91905 0.60887 0.0
H212 H 0.47621 0.87946 0.81356 0.0
H213 H 0.52516 0.86751 0.76727 0.0
H214 H 0.46076 0.11178 0.99853 0.0
H215 H 0.57081 0.88188 0.6891 0.0
H216 H 0.59666 0.17147 0.70034 0.0
N217 N 0.51832 0.09309 0.87165 0.0
C218 C 0.52576 0.11907 0.83766 0.0
C219 C 0.47863 0.11402 0.95159 0.0
C220 C 0.50896 0.14336 0.85565 0.0
C221 C 0.49624 0.09071 0.9331 0.0
C222 C 0.48465 0.14034 0.91103 0.0
N223 N 0.56799 0.09837 0.78036 0.0
C224 C 0.59509 0.10054 0.74685 0.0
C225 C 0.5612 0.14887 0.76246 0.0
C226 C 0.55157 0.12188 0.79187 0.0
C227 C 0.58846 0.15109 0.72355 0.0
C228 C 0.60563 0.12688 0.71704 0.0
H229 H 0.47122 0.15847 0.92662 0.0
H230 H 0.50487 0.18887 0.83402 0.0
H231 H 0.55062 0.19367 0.75217 0.0
O232 O 0.58487 0.03909 0.91217 0.0
O233 O 0.5462 0.07185 0.67991 0.0
O234 O 0.50702 0.04963 0.61625 0.0
O235 O 0.55981 0.07411 0.96453 0.0
O236 O 0.58378 0.03247 0.74359 0.0
O237 O 0.56239 0.02218 0.60108 0.0
O238 O 0.49159 0.98344 0.53085 0.0
O239 O 0.54715 0.98712 0.76085 0.0
O240 O 0.52923 1.01287 0.87925 0.0
O241 O 0.53296 0.99939 0.49193 0.0
O242 O 0.48451 0.03047 0.70552 0.0
O243 O 0.50371 0.03655 0.85236 0.0
C244 C 0.52455 0.07168 0.62054 0.0
C245 C 0.57431 0.03923 0.07409 0.0
C246 C 0.5867 0.99942 0.17679 0.0
C247 C 0.56579 1.00851 0.24017 0.0
C248 C 0.55365 0.048 0.13892 0.0
C249 C 0.54963 0.03279 0.22146 0.0
C250 C 0.59078 1.01508 0.09397 0.0
C251 C 0.58535 0.02698 0.65268 0.0
C252 C 0.57847 0.05463 0.98492 0.0
C253 C 0.51767 0.17005 0.82175 0.0
C254 C 0.54375 0.17281 0.77533 0.0
C255 C 0.53884 0.9885 0.84835 0.0
C256 C 0.49746 0.99835 0.37541 0.0
C257 C 0.47128 0.03444 0.28807 0.0
C258 C 0.47271 1.01683 0.20812 0.0
C259 C 0.49863 0.98119 0.29523 0.0
C260 C 0.48421 0.02505 0.37163 0.0
C261 C 0.48637 0.9905 0.21186 0.0
C262 C 0.48138 0.03554 0.79591 0.0
C263 C 0.5094 0.98756 0.46296 0.0
H264 H 0.56224 0.99719 0.3049 0.0
H265 H 0.54062 0.06661 0.12624 0.0
H266 H 0.53411 0.04008 0.27159 0.0
H267 H 0.60747 1.0091 0.04573 0.0
H268 H 0.4621 0.02268 0.14372 0.0
H269 H 0.50876 0.96048 0.2974 0.0
H270 H 0.48357 0.03807 0.43427 0.0
H271 H 0.48668 0.97689 0.15079 0.0
Eu272 Eu 0.55398 0.51612 0.65772 0.0
C273 C 0.4618 0.49633 0.94387 0.0
N274 N 0.46379 0.50659 0.85517 0.0
C275 C 0.42311 0.47886 0.80753 0.0
C276 C 0.4402 0.47661 0.96722 0.0
C277 C 0.44429 0.49894 0.78804 0.0
C278 C 0.4211 0.46757 0.89739 0.0
C279 C 0.47779 0.4972 0.10579 0.0
C280 C 0.48091 0.50615 1.01223 0.0
C281 C 0.45611 0.47785 0.12895 0.0
C282 C 0.43766 0.46726 0.05982 0.0
Eu283 Eu 0.49722 0.54369 0.83539 0.0
N284 N 0.50139 0.52553 0.9888 0.0
C285 C 0.49593 0.50869 0.17426 0.0
C286 C 0.51895 0.53694 0.05594 0.0
C287 C 0.51685 0.52829 0.14893 0.0
H288 H 0.44492 0.50848 0.71977 0.0
H289 H 0.53092 0.53731 0.20143 0.0
H290 H 0.61683 0.50238 0.76441 0.0
H291 H 0.53356 0.57028 0.32659 0.0
H292 H 0.53358 0.55392 0.03992 0.0
H293 H 0.49375 0.50284 0.24711 0.0
H294 H 0.52167 0.5413 0.46453 0.0
H295 H 0.40797 0.47256 0.75376 0.0
H296 H 0.45317 0.47121 0.20058 0.0
H297 H 0.42102 0.45237 0.07924 0.0
H298 H 0.66731 0.51643 0.75102 0.0
H299 H 0.4043 0.45241 0.91272 0.0
H300 H 0.58307 0.587 0.3033 0.0
N301 N 0.60305 0.52798 0.65034 0.0
C302 C 0.61114 0.54451 0.57716 0.0
C303 C 0.65169 0.52475 0.7023 0.0
C304 C 0.64001 0.55212 0.5646 0.0
C305 C 0.62294 0.51728 0.71081 0.0
C306 C 0.66025 0.54244 0.62934 0.0
N307 N 0.56324 0.54427 0.52422 0.0
C308 C 0.5431 0.54926 0.45668 0.0
C309 C 0.59876 0.56815 0.4317 0.0
C310 C 0.59077 0.5525 0.51152 0.0
C311 C 0.57782 0.57486 0.36519 0.0
C312 C 0.54988 0.56533 0.37777 0.0
H313 H 0.68262 0.54784 0.62211 0.0
H314 H 0.66996 0.57449 0.47597 0.0
H315 H 0.63383 0.58849 0.35968 0.0
O316 O 0.53683 0.47776 0.59179 0.0
O317 O 0.54568 0.56404 0.64063 0.0
O318 O 0.51787 0.58146 0.7614 0.0
O319 O 0.58201 0.48683 0.58286 0.0
O320 O 0.50671 0.51321 0.61084 0.0
O321 O 0.48345 0.54977 0.68448 0.0
O322 O 0.48433 0.57514 0.93936 0.0
O323 O 0.50281 0.49547 0.80373 0.0
O324 O 0.55035 0.48951 0.79065 0.0
O325 O 0.45488 0.563 0.82907 0.0
O326 O 0.54346 0.55522 0.87761 0.0
O327 O 0.57022 0.51972 0.80923 0.0
C328 C 0.53346 0.58526 0.68592 0.0
C329 C 0.55848 0.46961 0.44644 0.0
C330 C 0.52945 0.4554 0.31128 0.0
C331 C 0.54862 0.46987 0.25251 0.0
C332 C 0.57721 0.48413 0.38667 0.0
C333 C 0.57231 0.48408 0.2902 0.0
C334 C 0.53525 0.4548 0.40793 0.0
C335 C 0.48565 0.53182 0.61431 0.0
C336 C 0.56071 0.47207 0.54921 0.0
C337 C 0.64791 0.56839 0.48659 0.0
C338 C 0.62735 0.57634 0.42025 0.0
C339 C 0.52577 0.4804 0.82236 0.0
C340 C 0.43562 0.57529 0.97762 0.0
C341 C 0.41492 0.5954 0.11866 0.0
C342 C 0.39337 0.57472 0.11639 0.0
C343 C 0.41404 0.5544 0.97557 0.0
C344 C 0.43585 0.59556 0.04932 0.0
C345 C 0.39306 0.55415 0.04499 0.0
C346 C 0.56683 0.53958 0.87399 0.0
C347 C 0.45837 0.57689 0.90734 0.0
H348 H 0.54518 0.47073 0.17766 0.0
H349 H 0.59531 0.49594 0.41425 0.0
H350 H 0.58669 0.49547 0.24456 0.0
H351 H 0.52155 0.44296 0.45459 0.0
H352 H 0.377 0.57457 0.16931 0.0
H353 H 0.41327 0.53846 0.9207 0.0
H354 H 0.45239 0.61181 0.05096 0.0
H355 H 0.37646 0.53807 0.04298 0.0
Eu356 Eu 0.04055 0.56259 0.59718 0.0
C357 C 0.04687 0.47488 0.96379 0.0
N358 N 0.04874 0.47339 0.86965 0.0
C359 C 0.08541 0.43802 0.88242 0.0
C360 C 0.06485 0.45853 0.02139 0.0
C361 C 0.06681 0.4544 0.8282 0.0
C362 C 0.08475 0.44042 0.97965 0.0
C363 C 0.0216 0.49209 0.09958 0.0
C364 C 0.02571 0.49147 1.00202 0.0
C365 C 0.04017 0.47673 0.15787 0.0
C366 C 0.06184 0.46008 0.11846 0.0
Eu367 Eu 0.01962 0.50458 0.78203 0.0
N368 N 1.0081 0.50569 0.94323 0.0
C369 C 0.99868 0.50768 0.13518 0.0
C370 C 0.98482 0.51967 0.97699 0.0
C371 C 0.97996 0.52122 0.0734 0.0
H372 H 0.0673 0.4521 0.75312 0.0
H373 H 0.96184 0.53288 0.09994 0.0
H374 H 0.06553 0.62387 0.68914 0.0
H375 H 0.9632 0.55452 0.30997 0.0
H376 H 0.97033 0.53029 0.92956 0.0
H377 H 0.99491 0.50888 0.20982 0.0
H378 H 1.00497 0.54033 0.40538 0.0
H379 H 0.10015 0.42351 0.84922 0.0
H380 H 0.03765 0.47739 0.233 0.0
H381 H 0.07603 0.44791 0.16221 0.0
H382 H 0.0487 0.67304 0.71863 0.0
H383 H 0.09904 0.4276 0.0218 0.0
H384 H 0.93801 0.59953 0.3455 0.0
N385 N 0.02764 0.61112 0.61806 0.0
C386 C 1.00317 0.61988 0.57635 0.0
C387 C 0.03546 0.6582 0.67954 0.0
C388 C 0.99307 0.64793 0.58836 0.0
C389 C 0.04478 0.63031 0.66372 0.0
C390 C 1.00915 0.66688 0.64342 0.0
N391 N 1.00241 0.57618 0.49655 0.0
C392 C 0.99397 0.55994 0.4215 0.0
C393 C 0.96647 0.61096 0.45976 0.0
C394 C 0.99012 0.60176 0.51298 0.0
C395 C 0.95614 0.59326 0.38797 0.0
C396 C 0.97035 0.5679 0.36746 0.0
H397 H 1.00216 0.68862 0.65446 0.0
H398 H 0.95997 0.67793 0.54996 0.0
H399 H 0.9366 0.64545 0.4372 0.0
O400 O 0.07875 0.54827 0.52412 0.0
O401 O 0.99831 0.53832 0.59376 0.0
O402 O 0.98502 0.53734 0.74389 0.0
O403 O 0.0604 0.5891 0.49047 0.0
O404 O 0.03422 0.51717 0.5415 0.0
O405 O 0.051 0.49322 0.66707 0.0
O406 O 0.99378 0.46653 0.80652 0.0
O407 O 0.06799 0.51211 0.77473 0.0
O408 O 0.0745 0.55756 0.71471 0.0
O409 O 0.99501 0.48479 0.66844 0.0
O410 O 1.01364 0.54988 0.84066 0.0
O411 O 0.04224 0.57907 0.75001 0.0
C412 C 0.97827 0.54202 0.65596 0.0
C413 C 0.07688 0.56072 0.36428 0.0
C414 C 0.09291 0.52828 0.24086 0.0
C415 C 0.07271 0.54024 0.17945 0.0
C416 C 0.05678 0.5723 0.30168 0.0
C417 C 0.05483 0.56211 0.20984 0.0
C418 C 0.09514 0.53925 0.33262 0.0
C419 C 0.04479 0.49379 0.5777 0.0
C420 C 0.07782 0.56914 0.46423 0.0
C421 C 0.96826 0.65658 0.54079 0.0
C422 C 0.95496 0.63809 0.47653 0.0
C423 C 0.08363 0.53531 0.76342 0.0
C424 C 0.95132 0.46747 0.71749 0.0
C425 C 0.90724 0.4877 0.77579 0.0
C426 C 0.89244 0.47626 0.69851 0.0
C427 C 0.93648 0.45574 0.64095 0.0
C428 C 0.93657 0.48335 0.78407 0.0
C429 C 0.90707 0.46013 0.63167 0.0
C430 C 0.02755 0.57408 0.82722 0.0
C431 C 0.98249 0.46663 0.7227 0.0
H432 H 0.07045 0.53258 0.10824 0.0
H433 H 0.04233 0.58894 0.32368 0.0
H434 H 0.03921 0.57102 0.16223 0.0
H435 H 0.11114 0.53111 0.38046 0.0
H436 H 0.86969 0.47942 0.69064 0.0
H437 H 0.94772 0.44391 0.58748 0.0
H438 H 0.94813 0.49303 0.8418 0.0
H439 H 0.89567 0.45131 0.57211 0.0
H440 H 0.19984 0.09095 0.17667 0.0
H441 H 0.12999 1.01361 0.62315 0.0
H442 H 0.24256 0.02602 0.33505 0.0
H443 H 0.08473 0.07449 0.45301 0.0
H444 H 0.17091 0.01759 0.51837 0.0
H445 H 0.15706 0.08434 0.27339 0.0
C446 C 0.19994 0.07488 0.23079 0.0
C447 C 0.22464 0.05872 0.24692 0.0
C448 C 0.15205 0.0301 0.5038 0.0
C449 C 0.17593 0.05148 0.36057 0.0
C450 C 0.12857 0.02793 0.56412 0.0
C451 C 0.10358 0.04378 0.54795 0.0
C452 C 0.15091 0.04834 0.42593 0.0
C453 C 0.10337 0.06184 0.46927 0.0
C454 C 0.17561 0.07124 0.28662 0.0
C455 C 0.22383 0.03856 0.31925 0.0
N456 N 0.12652 0.06362 0.41177 0.0
N457 N 0.20006 0.03565 0.37353 0.0
H458 H 0.54381 0.23458 0.32503 0.0
H459 H 0.47815 0.08581 0.50823 0.0
H460 H 0.46802 0.19658 0.20694 0.0
H461 H 0.5631 0.11419 0.57729 0.0
H462 H 0.47323 0.12649 0.40135 0.0
H463 H 0.55095 0.19147 0.42031 0.0
C464 C 0.5289 0.21703 0.31803 0.0
C465 C 0.50519 0.21945 0.25777 0.0
C466 C 0.49297 0.1239 0.44009 0.0
C467 C 0.51277 0.16991 0.36922 0.0
C468 C 0.49583 0.10048 0.50112 0.0
C469 C 0.52102 0.09638 0.55355 0.0
C470 C 0.51534 0.1439 0.4314 0.0
C471 C 0.54301 0.11659 0.541 0.0
C472 C 0.53281 0.19243 0.37317 0.0
C473 C 0.48632 0.19599 0.2533 0.0
N474 N 0.53962 0.13932 0.48235 0.0
N475 N 0.49035 0.17252 0.30836 0.0
H476 H 0.36554 0.48596 0.16028 0.0
H477 H 0.43762 0.56553 0.60471 0.0
H478 H 0.3254 0.55452 0.30952 0.0
H479 H 0.47869 0.49689 0.45683 0.0
H480 H 0.3981 0.56346 0.49246 0.0
H481 H 0.408 0.49129 0.26106 0.0
C482 C 0.36583 0.50242 0.21359 0.0
C483 C 0.34178 0.51989 0.22588 0.0
C484 C 0.41572 0.54884 0.48408 0.0
C485 C 0.3907 0.5261 0.34314 0.0
C486 C 0.43851 0.54999 0.54858 0.0
C487 C 0.46184 0.5312 0.54177 0.0
C488 C 0.41572 0.52869 0.41087 0.0
C489 C 0.46129 0.5117 0.46625 0.0
C490 C 0.39015 0.50546 0.2713 0.0
C491 C 0.34346 0.54081 0.29656 0.0
N492 N 0.43872 0.5109 0.40454 0.0
N493 N 0.36727 0.54321 0.35241 0.0
H494 H 0.03276 0.3211 0.33056 0.0
H495 H 0.06787 0.48864 0.4041 0.0
H496 H 0.07864 0.37213 0.13263 0.0
H497 H 0.02824 0.43818 0.61746 0.0
H498 H 0.0739 0.44536 0.31039 0.0
H499 H 0.02875 0.36319 0.43422 0.0
C500 C 0.04143 0.34133 0.30801 0.0
C501 C 0.05568 0.34309 0.22186 0.0
C502 C 0.06265 0.44388 0.37515 0.0
C503 C 0.05194 0.39151 0.34182 0.0
C504 C 0.05986 0.46857 0.43015 0.0
C505 C 0.04754 0.46729 0.51889 0.0
C506 C 0.0511 0.41774 0.40457 0.0
C507 C 0.03773 0.44038 0.54912 0.0
C508 C 0.03948 0.36532 0.36779 0.0
C509 C 0.06722 0.36977 0.19768 0.0
N510 N 0.03919 0.4169 0.49164 0.0
N511 N 0.06513 0.3927 0.25686 0.0
H512 H 0.86258 0.97066 0.24389 0.0
H513 H 0.9457 0.06225 0.85513 0.0
H514 H 0.82509 0.04371 0.11122 0.0
H515 H 0.9695 0.97695 0.93373 0.0
H516 H 0.9045 0.05909 0.96 0.0
H517 H 0.90508 0.97634 0.14617 0.0
C518 C 0.8634 0.98805 0.19449 0.0
C519 C 0.84006 1.00657 0.18539 0.0
C520 C 0.91883 0.04112 0.95472 0.0
C521 C 0.88905 1.01345 0.07262 0.0
C522 C 0.94243 0.04287 0.89456 0.0
C523 C 0.96158 0.01995 0.88556 0.0
C524 C 0.91421 1.01636 1.0078 0.0
C525 C 0.95592 0.99547 0.93917 0.0
C526 C 0.88769 0.99128 0.13848 0.0
C527 C 0.8426 0.02906 0.12113 0.0
N528 N 0.93301 0.9944 0.99776 0.0
N529 N 0.8665 0.03181 0.06717 0.0
H530 H 0.49386 0.85802 0.25745 0.0
H531 H 0.57575 0.94238 0.84711 0.0
H532 H 0.57039 0.82611 0.13152 0.0
H533 H 0.50364 0.97604 0.99476 0.0
H534 H 0.57509 0.9003 0.94977 0.0
H535 H 0.49831 0.90187 0.1652 0.0
C536 C 0.51194 0.86054 0.2115 0.0
C537 C 0.53198 0.83846 0.20349 0.0
C538 C 0.55946 0.91691 0.96021 0.0
C539 C 0.53691 0.88865 0.09409 0.0
C540 C 0.55973 0.94094 0.90108 0.0
C541 C 0.53957 0.96286 0.9116 0.0
C542 C 0.53882 0.91453 0.03106 0.0
C543 C 0.51968 0.95985 0.98413 0.0
C544 C 0.5144 0.88553 0.15808 0.0
C545 C 0.55473 0.84272 0.14121 0.0
N546 N 0.51969 0.93627 0.04018 0.0
N547 N 0.55645 0.86708 0.08863 0.0
H548 H 0.71466 0.50935 0.23832 0.0
H549 H 0.57959 0.58575 0.99054 0.0
H550 H 0.69885 0.59918 0.26148 0.0
H551 H 0.60614 0.49974 0.93172 0.0
H552 H 0.61824 0.58972 0.10788 0.0
H553 H 0.67005 0.50384 0.14797 0.0
C554 C 0.70114 0.52773 0.22775 0.0
C555 C 0.71023 0.55463 0.25996 0.0
C556 C 0.61559 0.56996 0.06931 0.0
C557 C 0.65936 0.54885 0.1521 0.0
C558 C 0.59342 0.56766 1.00213 0.0
C559 C 0.58961 0.54252 0.94912 0.0
C560 C 0.63417 0.54686 0.08507 0.0
C561 C 0.60837 0.51982 0.96861 0.0
C562 C 0.67588 0.52473 0.17452 0.0
C563 C 0.69235 0.57796 0.24028 0.0
N564 N 0.62961 0.52255 0.03417 0.0
N565 N 0.66805 0.5746 0.18744 0.0
H566 H 0.98454 0.68263 0.31121 0.0
H567 H 0.0638 0.62031 0.85406 0.0
H568 H 0.04514 0.73112 0.1524 0.0
H569 H 0.99047 0.58009 0.97722 0.0
H570 H 0.06126 0.65812 0.97245 0.0
H571 H 0.99113 0.64207 0.20367 0.0
C572 C 0.99965 0.68458 0.25467 0.0
C573 C 1.01437 0.71048 0.24149 0.0
C574 C 0.04569 0.64103 0.97382 0.0
C575 C 0.02187 0.66384 0.11597 0.0
C576 C 0.04694 0.61941 0.90514 0.0
C577 C 0.02697 0.59686 0.90308 0.0
C578 C 0.02453 0.64029 0.04321 0.0
C579 C 1.00641 0.59674 0.97482 0.0
C580 C 1.00328 0.66142 0.19266 0.0
C581 C 0.03366 0.71157 0.16646 0.0
N582 N 1.00571 0.61796 0.04113 0.0
N583 N 0.0367 0.68884 0.10672 0.0
H584 H 0.10507 0.23145 0.02893 0.0
H585 H 0.0803 0.16235 0.51287 0.0
H586 H 0.10835 0.269 0.30455 0.0
H587 H 0.04128 0.13587 0.25283 0.0
H588 H 0.11849 0.18544 0.42514 0.0
H589 H 0.10994 0.18419 0.10049 0.0
C590 C 0.10812 0.22997 0.10382 0.0
C591 C 0.10412 0.254 0.16124 0.0
C592 C 0.10214 0.17369 0.38716 0.0
C593 C 0.11165 0.20077 0.24238 0.0
C594 C 0.08028 0.1608 0.43719 0.0
C595 C 0.05721 0.14845 0.38938 0.0
C596 C 0.1 0.17535 0.28918 0.0
C597 C 0.05839 0.14612 0.29171 0.0
C598 C 0.11122 0.20304 0.14442 0.0
C599 C 0.11027 0.25118 0.257 0.0
N600 N 0.07898 0.16038 0.2443 0.0
N601 N 0.11308 0.22498 0.29472 0.0
H602 H 0.31361 0.0928 0.35625 0.0
H603 H 0.46224 0.0726 0.144 0.0
H604 H 0.33332 0.11244 0.06999 0.0
H605 H 0.43806 0.0555 0.42953 0.0
H606 H 0.42148 0.10457 0.12957 0.0
H607 H 0.36329 0.09973 0.39847 0.0
C608 C 0.32826 0.09978 0.3028 0.0
C609 C 0.31961 0.10118 0.20899 0.0
C610 C 0.42571 0.09454 0.1963 0.0
C611 C 0.37701 0.10695 0.25533 0.0
C612 C 0.44883 0.07602 0.20439 0.0
C613 C 0.45296 0.06026 0.28685 0.0
C614 C 0.40668 0.09726 0.27124 0.0
C615 C 0.43568 0.06663 0.36389 0.0
C616 C 0.35684 0.10336 0.3266 0.0
C617 C 0.33953 0.11022 0.14262 0.0
N618 N 0.41299 0.08413 0.35348 0.0
N619 N 0.36764 0.11164 0.16621 0.0
H620 H 0.44669 0.31895 0.04765 0.0
H621 H 0.47721 0.44632 0.39518 0.0
H622 H 0.46712 0.31201 0.34034 0.0
H623 H 0.52252 0.42961 0.13864 0.0
H624 H 0.44282 0.4094 0.35212 0.0
H625 H 0.44265 0.37092 0.06669 0.0
C626 C 0.44891 0.32826 0.1167 0.0
C627 C 0.45889 0.31176 0.1915 0.0
C628 C 0.4597 0.41478 0.30386 0.0
C629 C 0.45229 0.37002 0.21509 0.0
C630 C 0.47986 0.4353 0.3292 0.0
C631 C 0.50412 0.43979 0.27346 0.0
C632 C 0.46348 0.39914 0.22143 0.0
C633 C 0.50489 0.42636 0.18557 0.0
C634 C 0.4463 0.35772 0.12758 0.0
C635 C 0.46007 0.32423 0.28053 0.0
N636 N 0.4852 0.40615 0.16316 0.0
N637 N 0.45751 0.35284 0.28966 0.0
H638 H 0.24412 0.46141 1.00529 0.0
H639 H 0.11622 0.51987 0.0657 0.0
H640 H 0.24678 0.48434 0.2968 0.0
H641 H 0.11511 0.4839 0.34353 0.0
H642 H 0.15719 0.4904 0.02964 0.0
H643 H 0.19236 0.45361 0.01705 0.0
C644 C 0.23388 0.46373 0.07247 0.0
C645 C 0.24913 0.47474 0.14927 0.0
C646 C 0.14739 0.48827 0.09745 0.0
C647 C 0.19086 0.46546 0.16396 0.0
C648 C 0.12391 0.50527 0.11851 0.0
C649 C 0.11281 0.50551 0.20959 0.0
C650 C 0.16026 0.47212 0.16857 0.0
C651 C 0.12374 0.48569 0.27395 0.0
C652 C 0.20449 0.45933 0.07912 0.0
C653 C 0.23549 0.47635 0.23575 0.0
N654 N 0.14748 0.4706 0.25339 0.0
N655 N 0.20691 0.47239 0.24045 0.0
H656 H 0.96979 0.77465 0.11429 0.0
H657 H 0.03363 0.91749 0.07358 0.0
H658 H 0.96597 0.83289 0.34886 0.0
H659 H 1.00282 0.8698 0.83428 0.0
H660 H 0.9981 0.89422 0.17043 0.0
H661 H 0.9662 0.81367 1.00959 0.0
C662 C 0.96709 0.7955 0.14517 0.0
C663 C 0.96948 0.8001 0.2424 0.0
C664 C 0.99845 0.88943 0.09622 0.0
C665 C 0.96859 0.84593 0.11893 0.0
C666 C 0.0189 0.90263 0.04073 0.0
C667 C 0.02192 0.89467 0.94637 0.0
C668 C 0.98135 0.86775 0.0574 0.0
C669 C 1.00205 0.87558 0.90765 0.0
C670 C 0.96553 0.8182 0.08392 0.0
C671 C 0.96627 0.82821 0.27485 0.0
N672 N 0.983 0.86231 0.96378 0.0
N673 N 0.96746 0.85026 0.21329 0.0
H674 H 0.74599 0.96545 0.10376 0.0
H675 H 0.6088 0.98595 0.34967 0.0
H676 H 0.74075 0.9531 0.40121 0.0
H677 H 0.61085 0.95923 0.06062 0.0
H678 H 0.65369 0.96171 0.37677 0.0
H679 H 0.69651 0.95045 0.08724 0.0
C680 C 0.73466 0.95834 0.16519 0.0
C681 C 0.74712 0.96092 0.25407 0.0
C682 C 0.64397 0.96033 0.30793 0.0
C683 C 0.69001 0.94537 0.2369 0.0
C684 C 0.6182 0.97432 0.29227 0.0
C685 C 0.607 0.97629 0.2012 0.0
C686 C 0.65865 0.94861 0.23164 0.0
C687 C 0.61972 0.95981 0.13074 0.0
C688 C 0.70628 0.94995 0.15608 0.0
C689 C 0.73149 0.95186 0.33175 0.0
N690 N 0.64544 0.94748 0.14655 0.0
N691 N 0.70334 0.94545 0.32194 0.0
H692 H 0.44729 0.76726 0.30023 0.0
H693 H 0.45111 0.59808 0.26598 0.0
H694 H 0.5214 0.71617 0.24454 0.0
H695 H 0.38442 0.64449 0.12572 0.0
H696 H 0.46919 0.6429 0.33201 0.0
H697 H 0.41759 0.72348 0.29464 0.0
C698 C 0.45719 0.74683 0.28722 0.0
C699 C 0.48673 0.74501 0.27368 0.0
C700 C 0.44989 0.64311 0.28986 0.0
C701 C 0.45368 0.69555 0.27218 0.0
C702 C 0.43939 0.61758 0.25339 0.0
C703 C 0.41645 0.61788 0.19027 0.0
C704 C 0.43734 0.66888 0.26251 0.0
C705 C 0.40217 0.64363 0.17447 0.0
C706 C 0.44044 0.72204 0.28522 0.0
C707 C 0.49881 0.71824 0.25749 0.0
N708 N 0.41329 0.66842 0.20861 0.0
N709 N 0.4823 0.69454 0.258 0.0
H710 H 0.8123 0.60229 0.14519 0.0
H711 H 0.86921 0.53177 0.75823 0.0
H712 H 0.81824 0.51776 0.25917 0.0
H713 H 0.91275 0.47999 0.96262 0.0
H714 H 0.84641 0.55812 0.88643 0.0
H715 H 0.84667 0.58862 0.02324 0.0
C716 C 0.82167 0.58124 0.14628 0.0
C717 C 0.81272 0.56108 0.21208 0.0
C718 C 0.86152 0.54145 0.90285 0.0
C719 C 0.85121 0.54535 0.07452 0.0
C720 C 0.87404 0.52613 0.82998 0.0
C721 C 0.8927 0.5037 0.8503 0.0
C722 C 0.86751 0.53383 0.9959 0.0
C723 C 0.8985 0.49722 0.94419 0.0
C724 C 0.84087 0.57338 0.07655 0.0
C725 C 0.82523 0.53408 0.21141 0.0
N726 N 0.88562 0.51195 1.01351 0.0
N727 N 0.84374 0.52692 0.14321 0.0
H728 H 0.04017 0.22467 0.17935 0.0
H729 H 0.04036 0.1351 0.6919 0.0
H730 H 0.05739 0.26347 0.91386 0.0
H731 H 0.03096 0.09714 0.96406 0.0
H732 H 0.0429 0.18245 0.76773 0.0
H733 H 0.03234 0.17863 0.09916 0.0
C734 C 0.04141 0.22367 0.10379 0.0
C735 C 0.049 0.24821 0.05332 0.0
C736 C 0.0403 0.16373 0.81087 0.0
C737 C 0.04076 0.19496 0.95987 0.0
C738 C 0.0388 0.13655 0.76735 0.0
C739 C 0.03579 0.11156 0.82097 0.0
C740 C 0.03853 0.16635 0.90925 0.0
C741 C 0.0338 0.11534 0.91893 0.0
C742 C 0.03734 0.19723 0.05779 0.0
C743 C 0.05115 0.24529 0.9554 0.0
N744 N 0.03523 0.14184 0.95921 0.0
N745 N 0.04724 0.21935 0.91226 0.0
H746 H 0.34179 0.03875 0.19974 0.0
H747 H 0.42912 0.04996 0.71486 0.0
H748 H 0.30274 0.06505 0.94154 0.0
H749 H 0.46642 0.02391 0.9768 0.0
H750 H 0.38235 0.05328 0.79221 0.0
H751 H 0.3868 0.03053 0.11651 0.0
C752 C 0.3425 0.04195 0.12482 0.0
C753 C 0.31826 0.0521 0.07733 0.0
C754 C 0.40077 0.04682 0.83283 0.0
C755 C 0.37022 0.04336 0.98067 0.0
C756 C 0.42755 0.04487 0.78848 0.0
C757 C 0.45209 0.03695 0.83926 0.0
C758 C 0.39823 0.04069 0.92904 0.0
C759 C 0.4484 0.03059 0.93476 0.0
C760 C 0.36832 0.03757 0.07721 0.0
C761 C 0.32071 0.05671 0.98048 0.0
N762 N 0.4223 0.03267 0.97611 0.0
N763 N 0.34611 0.05248 0.93565 0.0
H764 H 0.48969 0.30081 0.95103 0.0
H765 H 0.56608 0.45315 0.93117 0.0
H766 H 0.53334 0.33287 0.19511 0.0
H767 H 0.48134 0.44103 0.81958 0.0
H768 H 0.56327 0.4056 1.0037 0.0
H769 H 0.4959 0.34761 0.8754 0.0
C770 C 0.5015 0.3174 0.98742 0.0
C771 C 0.5113 0.31262 0.0793 0.0
C772 C 0.54534 0.41331 0.96309 0.0
C773 C 0.51862 0.36665 0.99263 0.0
C774 C 0.5469 0.44052 0.92141 0.0
C775 C 0.52391 0.45144 0.86867 0.0
C776 C 0.5209 0.39619 0.9504 0.0
C777 C 0.49959 0.43383 0.85964 0.0
C778 C 0.50466 0.34428 0.94477 0.0
C779 C 0.52586 0.33531 0.12385 0.0
N780 N 0.49888 0.40717 0.8988 0.0
N781 N 0.52921 0.36113 0.08018 0.0
H782 H 0.26313 0.50547 0.91108 0.0
H783 H 0.1095 0.57831 0.86761 0.0
H784 H 0.22831 0.54869 0.1497 0.0
H785 H 0.12476 0.49356 0.76331 0.0
H786 H 0.15675 0.57752 0.94588 0.0
H787 H 0.21723 0.51132 0.8281 0.0
C788 C 0.24615 0.51717 0.94469 0.0
C789 C 0.24991 0.52703 0.03704 0.0
C790 C 0.14983 0.55923 0.9051 0.0
C791 C 0.19685 0.53384 0.94207 0.0
C792 C 0.12289 0.5597 0.85992 0.0
C793 C 0.113 0.53603 0.80785 0.0
C794 C 0.16772 0.53533 0.89561 0.0
C795 C 0.13134 0.51236 0.8021 0.0
C796 C 0.21979 0.52013 0.89781 0.0
C797 C 0.22667 0.54128 0.07808 0.0
N798 N 0.15774 0.51278 0.84389 0.0
N799 N 0.2013 0.54433 0.03052 0.0
H800 H 0.98988 0.7962 0.5169 0.0
H801 H 0.05519 0.95596 0.50235 0.0
H802 H 0.04075 0.82719 0.28994 0.0
H803 H 1.00227 0.92608 0.72645 0.0
H804 H 0.0522 0.90875 0.42853 0.0
H805 H 0.9966 0.84209 0.59906 0.0
C806 C 1.00302 0.8125 0.48531 0.0
C807 C 1.01514 0.8075 0.39692 0.0
C808 C 0.04123 0.91234 0.49391 0.0
C809 C 0.02247 0.86098 0.49008 0.0
C810 C 0.04276 0.93954 0.53609 0.0
C811 C 0.02843 0.94563 0.62016 0.0
C812 C 0.02543 0.89032 0.53592 0.0
C813 C 1.01353 0.92279 0.66147 0.0
C814 C 1.00665 0.83889 0.53189 0.0
C815 C 0.03144 0.82979 0.35848 0.0
N816 N 1.0123 0.89645 0.61899 0.0
N817 N 0.03446 0.85539 0.40474 0.0
H818 H 0.76633 1.00888 0.49862 0.0
H819 H 0.59601 0.02998 0.464 0.0
H820 H 0.72055 0.02086 0.24046 0.0
H821 H 0.64029 0.02401 0.72849 0.0
H822 H 0.64178 0.02888 0.38355 0.0
H823 H 0.72169 1.01686 0.58552 0.0
C824 C 0.74704 1.01407 0.46044 0.0
C825 C 0.74736 1.01475 0.36211 0.0
C826 C 0.64163 0.02773 0.45917 0.0
C827 C 0.69567 0.02295 0.46095 0.0
C828 C 0.61532 0.02834 0.50564 0.0
C829 C 0.61389 0.02692 0.60397 0.0
C830 C 0.66723 0.02521 0.51032 0.0
C831 C 0.64006 0.02511 0.65288 0.0
C832 C 0.72142 0.01826 0.50994 0.0
C833 C 0.72143 0.02065 0.31612 0.0
N834 N 0.66546 0.02407 0.60579 0.0
N835 N 0.69681 0.02427 0.3655 0.0
H836 H 0.57388 0.73525 0.33984 0.0
H837 H 0.49967 0.63229 0.72093 0.0
H838 H 0.49662 0.75577 0.4849 0.0
H839 H 0.57232 0.60698 0.55821 0.0
H840 H 0.50152 0.67939 0.64755 0.0
H841 H 0.5775 0.69089 0.43172 0.0
C842 C 0.55828 0.73097 0.39351 0.0
C843 C 0.53516 0.74961 0.40557 0.0
C844 C 0.51717 0.66359 0.62785 0.0
C845 C 0.53855 0.69819 0.50966 0.0
C846 C 0.51619 0.63654 0.67025 0.0
C847 C 0.5357 0.61504 0.64562 0.0
C848 C 0.53796 0.66976 0.56001 0.0
C849 C 0.55646 0.62232 0.57865 0.0
C850 C 0.56004 0.70535 0.44497 0.0
C851 C 0.51502 0.74231 0.4742 0.0
N852 N 0.557 0.64879 0.53843 0.0
N853 N 0.51705 0.71733 0.52268 0.0
H854 H 0.81688 0.60089 0.421 0.0
H855 H 0.9522 0.50948 0.52004 0.0
H856 H 0.80694 0.50987 0.42935 0.0
H857 H 0.93422 0.57706 0.71524 0.0
H858 H 0.90286 0.51232 0.46086 0.0
H859 H 0.86269 0.59649 0.50607 0.0
C860 C 0.82401 0.58001 0.44284 0.0
C861 C 0.80759 0.5558 0.41949 0.0
C862 C 0.90962 0.52642 0.51704 0.0
C863 C 0.86112 0.5504 0.51258 0.0
C864 C 0.93785 0.52485 0.55096 0.0
C865 C 0.9475 0.54277 0.624 0.0
C866 C 0.89082 0.5469 0.55321 0.0
C867 C 0.92776 0.56249 0.66005 0.0
C868 C 0.85027 0.5775 0.4908 0.0
C869 C 0.81848 0.52916 0.44725 0.0
N870 N 0.90068 0.56438 0.62333 0.0
N871 N 0.84469 0.52714 0.49021 0.0
loop_
_geom_bond_atom_site_label_1
_geom_bond_atom_site_label_2
_geom_bond_distance
_geom_bond_site_symmetry_2
_ccdc_geom_bond_type
C0 N1 1.317 . S
C0 N2 1.348 . S
C0 C3 1.485 . S
N1 C0 1.317 . S
N1 N5 1.370 . S
N2 C0 1.348 . S
N2 C4 1.346 . S
C3 C0 1.485 . S
C3 H7 0.960 . S
C3 H8 0.961 . S
C3 H9 0.960 . S
C4 N2 1.346 . S
C4 N5 1.307 . S
C4 C6 1.486 . S
N5 N1 1.370 . S
N5 C4 1.307 . S
C6 C4 1.486 . S
C6 H10 0.960 . S
C6 H11 0.960 . S
C6 H12 0.959 . S
H7 C3 0.960 . S
H8 C3 0.961 . S
H9 C3 0.960 . S
H10 C6 0.960 . S
H11 C6 0.960 . S
H12 C6 0.959 . S
C13 N14 1.317 . S
C13 N15 1.348 . S
C13 C16 1.485 . S
N14 C13 1.317 . S
N14 N18 1.370 . S
N15 C13 1.348 . S
N15 C17 1.346 . S
C16 C13 1.485 . S
C16 H20 0.960 . S
C16 H21 0.961 . S
C16 H22 0.960 . S
C17 N15 1.346 . S
C17 N18 1.307 . S
C17 C19 1.486 . S
N18 N14 1.370 . S
N18 C17 1.307 . S
C19 C17 1.486 . S
C19 H23 0.960 . S
C19 H24 0.960 . S
C19 H25 0.959 . S
H20 C16 0.960 . S
H21 C16 0.961 . S
H22 C16 0.960 . S
H23 C19 0.960 . S
H24 C19 0.960 . S
H25 C19 0.959 . S
C26 N27 1.317 . S
C26 N28 1.348 . S
C26 C29 1.485 . S
N27 C26 1.317 . S
N27 N31 1.370 . S
N28 C26 1.348 . S
N28 C30 1.346 . S
C29 C26 1.485 . S
C29 H33 0.960 . S
C29 H34 0.961 . S
C29 H35 0.960 . S
C30 N28 1.346 . S
C30 N31 1.307 . S
C30 C32 1.486 . S
N31 N27 1.370 . S
N31 C30 1.307 . S
C32 C30 1.486 . S
C32 H36 0.960 . S
C32 H37 0.976 . S
C32 H38 0.959 . S
H33 C29 0.960 . S
H34 C29 0.961 . S
H35 C29 0.960 . S
H36 C32 0.960 . S
H37 C32 0.976 . S
H38 C32 0.959 . S
C39 N40 1.317 . S
C39 N41 1.348 . S
C39 C42 1.485 . S
N40 C39 1.317 . S
N40 N44 1.370 . S
N41 C39 1.348 . S
N41 C43 1.346 . S
C42 C39 1.485 . S
C42 H46 0.960 . S
C42 H47 0.961 . S
C42 H48 0.960 . S
C43 N41 1.346 . S
C43 N44 1.307 . S
C43 C45 1.486 . S
N44 N40 1.370 . S
N44 C43 1.307 . S
C45 C43 1.486 . S
C45 H49 0.960 . S
C45 H50 0.960 . S
C45 H51 0.959 . S
H46 C42 0.960 . S
H47 C42 0.961 . S
H48 C42 0.960 . S
H49 C45 0.960 . S
H50 C45 0.960 . S
H51 C45 0.959 . S
C52 N53 1.317 . S
C52 N54 1.348 1_556 S
C52 C55 1.485 . S
N53 C52 1.317 . S
N53 N57 1.370 1_556 S
N54 C52 1.348 1_554 S
N54 C56 1.346 . S
C55 C52 1.485 . S
C55 H59 0.960 . S
C55 H60 0.961 . S
C55 H61 0.960 . S
C56 N54 1.346 . S
C56 N57 1.307 . S
C56 C58 1.486 . S
N57 N53 1.370 1_554 S
N57 C56 1.307 . S
C58 C56 1.486 . S
C58 H62 0.960 . S
C58 H63 0.960 . S
C58 H64 0.959 . S
H59 C55 0.960 . S
H60 C55 0.961 . S
H61 C55 0.960 . S
H62 C58 0.960 . S
H63 C58 0.960 . S
H64 C58 0.959 . S
C65 N66 1.318 . S
C65 N67 1.348 1_556 S
C65 C68 1.485 . S
N66 C65 1.318 . S
N66 N70 1.360 1_556 S
N67 C65 1.348 1_554 S
N67 C69 1.346 . S
C68 C65 1.485 . S
C68 H72 0.960 . S
C68 H73 0.961 . S
C68 H74 0.960 . S
C69 N67 1.346 . S
C69 N70 1.307 . S
C69 C71 1.486 . S
N70 N66 1.360 1_554 S
N70 C69 1.307 . S
C71 C69 1.486 . S
C71 H75 0.960 . S
C71 H76 0.960 . S
C71 H77 0.959 . S
H72 C68 0.960 . S
H73 C68 0.961 . S
H74 C68 0.960 . S
H75 C71 0.960 . S
H76 C71 0.960 . S
H77 C71 0.959 . S
C78 N79 1.317 . S
C78 N80 1.348 1_556 S
C78 C81 1.485 . S
N79 C78 1.317 . S
N79 N83 1.370 1_556 S
N80 C78 1.348 1_554 S
N80 C82 1.346 . S
C81 C78 1.485 . S
C81 H85 0.960 . S
C81 H86 0.961 . S
C81 H87 0.960 . S
C82 N80 1.346 . S
C82 N83 1.307 . S
C82 C84 1.486 . S
N83 N79 1.370 1_554 S
N83 C82 1.307 . S
C84 C82 1.486 . S
C84 H88 0.960 . S
C84 H89 0.960 . S
C84 H90 0.959 . S
H85 C81 0.960 . S
H86 C81 0.961 . S
H87 C81 0.960 . S
H88 C84 0.960 . S
H89 C84 0.960 . S
H90 C84 0.959 . S
C91 N92 1.317 . S
C91 N93 1.348 1_556 S
C91 C94 1.485 . S
N92 C91 1.317 . S
N92 N96 1.370 1_556 S
N93 C91 1.348 1_554 S
N93 C95 1.346 . S
C94 C91 1.485 . S
C94 H98 0.960 . S
C94 H99 0.961 . S
C94 H100 0.960 . S
C95 N93 1.346 . S
C95 N96 1.307 . S
C95 C97 1.486 . S
N96 N92 1.370 1_554 S
N96 C95 1.307 . S
C97 C95 1.486 . S
C97 H101 0.960 . S
C97 H102 0.960 . S
C97 H103 0.959 . S
H98 C94 0.960 . S
H99 C94 0.961 . S
H100 C94 0.960 . S
H101 C97 0.960 . S
H102 C97 0.960 . S
H103 C97 0.959 . S
Eu104 N133 2.600 . S
Eu104 N139 2.562 . S
Eu104 O148 2.468 . S
Eu104 O149 2.373 1_545 S
Eu104 O151 2.432 . S
Eu104 O152 2.291 1_655 S
Eu104 O156 2.335 1_655 S
Eu104 O159 2.372 . S
Eu104 C168 2.787 . S
C105 N106 1.365 . S
C105 C108 1.405 . S
C105 C112 1.448 . S
N106 C105 1.365 . S
N106 C109 1.319 . S
N106 Eu115 2.600 1_545 S
C107 C109 1.397 . S
C107 C110 1.367 . S
C107 H127 0.931 . S
C108 C105 1.405 . S
C108 C110 1.403 . S
C108 C114 1.439 1_556 S
C109 N106 1.319 . S
C109 C107 1.397 . S
C109 H120 0.930 1_545 S
C110 C107 1.367 . S
C110 C108 1.403 . S
C110 H131 0.929 . S
C111 C112 1.430 1_554 S
C111 C113 1.387 . S
C111 C117 1.404 . S
C112 C105 1.448 . S
C112 C111 1.430 1_556 S
C112 N116 1.351 . S
C113 C111 1.387 . S
C113 C114 1.374 . S
C113 H128 0.931 . S
C114 C108 1.439 1_554 S
C114 C113 1.374 . S
C114 H129 0.931 . S
Eu115 N106 2.600 1_565 S
Eu115 N116 2.562 1_565 S
Eu115 O150 2.335 . S
Eu115 O153 2.372 . S
Eu115 O154 2.462 . S
Eu115 O155 2.373 1_565 S
Eu115 O157 2.432 . S
Eu115 O158 2.291 1_465 S
Eu115 C179 2.787 . S
N116 C112 1.351 . S
N116 Eu115 2.562 1_545 S
N116 C118 1.325 1_556 S
C117 C111 1.404 . S
C117 C119 1.366 . S
C117 H125 0.930 . S
C118 N116 1.325 1_554 S
C118 C119 1.416 . S
C118 H124 0.929 1_455 S
C119 C117 1.366 . S
C119 C118 1.416 . S
C119 H121 0.905 1_455 S
H120 C109 0.930 1_565 S
H121 C119 0.905 1_655 S
H122 C137 0.930 . S
H123 C144 0.930 . S
H124 C118 0.929 1_655 S
H125 C117 0.930 . S
H126 C140 0.929 . S
H127 C107 0.931 . S
H128 C113 0.931 . S
H129 C114 0.931 . S
H130 C135 0.931 . S
H131 C110 0.929 . S
H132 C143 0.930 . S
N133 Eu104 2.600 . S
N133 C134 1.365 . S
N133 C137 1.319 . S
C134 N133 1.365 . S
C134 C136 1.405 1_545 S
C134 C142 1.446 1_545 S
C135 H130 0.931 . S
C135 C137 1.397 . S
C135 C138 1.367 1_545 S
C136 C134 1.405 1_565 S
C136 C138 1.403 . S
C136 C169 1.439 . S
C137 H122 0.930 . S
C137 N133 1.319 . S
C137 C135 1.397 . S
C138 C135 1.367 1_565 S
C138 C136 1.403 . S
C138 H145 0.929 . S
N139 Eu104 2.562 . S
N139 C140 1.325 1_655 S
N139 C142 1.344 1_545 S
C140 H126 0.929 . S
C140 N139 1.325 1_455 S
C140 C144 1.416 1_545 S
C141 C142 1.439 . S
C141 C143 1.404 . S
C141 C170 1.387 . S
C142 C134 1.446 1_565 S
C142 N139 1.344 1_565 S
C142 C141 1.439 . S
C143 H132 0.930 . S
C143 C141 1.404 . S
C143 C144 1.366 1_655 S
C144 H123 0.930 . S
C144 C140 1.416 1_565 S
C144 C143 1.366 1_455 S
H145 C138 0.929 . S
H146 C169 0.931 . S
H147 C170 0.931 . S
O148 Eu104 2.468 . S
O148 C168 1.267 . S
O149 Eu104 2.373 1_565 S
O149 C160 1.249 . S
O150 Eu115 2.335 . S
O150 C160 1.264 1_455 S
O151 Eu104 2.432 . S
O151 C168 1.268 . S
O152 Eu104 2.291 1_455 S
O152 C167 1.255 . S
O153 Eu115 2.372 . S
O153 C167 1.257 1_565 S
O154 Eu115 2.462 . S
O154 C179 1.252 . S
O155 Eu115 2.373 1_545 S
O155 C171 1.249 . S
O156 Eu104 2.335 1_455 S
O156 C171 1.264 . S
O157 Eu115 2.432 . S
O157 C179 1.268 . S
O158 Eu115 2.291 1_645 S
O158 C178 1.255 . S
O159 Eu104 2.372 . S
O159 C178 1.257 . S
C160 O149 1.249 . S
C160 O150 1.264 1_655 S
C161 C164 1.382 . S
C161 C166 1.390 . S
C161 C168 1.506 . S
C162 C163 1.398 . S
C162 C166 1.392 . S
C163 C162 1.398 . S
C163 C165 1.372 . S
C163 H180 0.931 . S
C164 C161 1.382 . S
C164 C165 1.390 . S
C164 H181 0.931 . S
C165 C163 1.372 . S
C165 C164 1.390 . S
C165 H182 0.929 . S
C166 C161 1.390 . S
C166 C162 1.392 . S
C166 H183 0.930 1_655 S
C167 O152 1.255 . S
C167 O153 1.257 1_545 S
C168 Eu104 2.787 . S
C168 O148 1.267 . S
C168 O151 1.268 . S
C168 C161 1.506 . S
C169 C136 1.439 . S
C169 H146 0.931 . S
C169 C170 1.374 . S
C170 C141 1.387 . S
C170 H147 0.931 . S
C170 C169 1.374 . S
C171 O155 1.249 . S
C171 O156 1.264 . S
C172 C175 1.382 . S
C172 C176 1.390 . S
C172 C179 1.506 . S
C173 C174 1.398 . S
C173 C176 1.392 1_554 S
C174 C173 1.398 . S
C174 C177 1.372 1_554 S
C174 H184 0.931 . S
C175 C172 1.382 . S
C175 C177 1.390 . S
C175 H185 0.931 . S
C176 C172 1.390 . S
C176 C173 1.392 1_556 S
C176 H186 0.930 . S
C177 C174 1.372 1_556 S
C177 C175 1.390 . S
C177 H187 0.929 . S
C178 O158 1.255 . S
C178 O159 1.257 . S
C179 Eu115 2.787 . S
C179 O154 1.252 . S
C179 O157 1.268 . S
C179 C172 1.506 . S
H180 C163 0.931 . S
H181 C164 0.931 . S
H182 C165 0.929 . S
H183 C166 0.930 1_455 S
H184 C174 0.931 . S
H185 C175 0.931 . S
H186 C176 0.930 . S
H187 C177 0.929 . S
Eu188 N217 2.600 . S
Eu188 N223 2.562 . S
Eu188 O232 2.462 . S
Eu188 O233 2.373 . S
Eu188 O235 2.432 . S
Eu188 O236 2.291 . S
Eu188 O240 2.335 1_545 S
Eu188 O243 2.372 . S
Eu188 C252 2.787 . S
C189 N190 1.365 . S
C189 C192 1.405 . S
C189 C196 1.448 . S
N190 C189 1.365 . S
N190 C193 1.319 . S
N190 Eu199 2.600 . S
C191 C193 1.397 . S
C191 C194 1.367 . S
C191 H211 0.931 . S
C192 C189 1.405 . S
C192 C194 1.403 . S
C192 C198 1.439 . S
C193 N190 1.319 . S
C193 C191 1.397 . S
C193 H204 0.930 . S
C194 C191 1.367 . S
C194 C192 1.403 . S
C194 H215 0.929 . S
C195 C196 1.430 . S
C195 C197 1.387 . S
C195 C201 1.404 . S
C196 C189 1.448 . S
C196 C195 1.430 . S
C196 N200 1.351 . S
C197 C195 1.387 . S
C197 C198 1.374 . S
C197 H212 0.931 . S
C198 C192 1.439 . S
C198 C197 1.374 . S
C198 H213 0.931 . S
Eu199 N190 2.600 . S
Eu199 N200 2.562 . S
Eu199 O234 2.335 1_565 S
Eu199 O237 2.372 . S
Eu199 O238 2.462 . S
Eu199 O239 2.373 . S
Eu199 O241 2.432 . S
Eu199 O242 2.291 1_565 S
Eu199 C263 2.787 . S
N200 C196 1.351 . S
N200 Eu199 2.562 . S
N200 C202 1.325 . S
C201 C195 1.404 . S
C201 C203 1.366 . S
C201 H209 0.930 . S
C202 N200 1.325 . S
C202 C203 1.416 . S
C202 H208 0.929 . S
C203 C201 1.366 . S
C203 C202 1.416 . S
C203 H205 0.930 . S
H204 C193 0.930 . S
H205 C203 0.930 . S
H206 C221 0.930 . S
H207 C228 0.930 . S
H208 C202 0.929 . S
H209 C201 0.930 . S
H210 C224 0.929 . S
H211 C191 0.931 . S
H212 C197 0.931 . S
H213 C198 0.931 . S
H214 C219 0.931 . S
H215 C194 0.929 . S
H216 C227 0.930 . S
N217 Eu188 2.600 . S
N217 C218 1.365 . S
N217 C221 1.319 . S
C218 N217 1.365 . S
C218 C220 1.405 . S
C218 C226 1.448 . S
C219 H214 0.931 . S
C219 C221 1.397 . S
C219 C222 1.367 . S
C220 C218 1.405 . S
C220 C222 1.403 . S
C220 C253 1.439 . S
C221 H206 0.930 . S
C221 N217 1.319 . S
C221 C219 1.397 . S
C222 C219 1.367 . S
C222 C220 1.403 . S
C222 H229 0.929 . S
N223 Eu188 2.562 . S
N223 C224 1.325 . S
N223 C226 1.351 . S
C224 H210 0.929 . S
C224 N223 1.325 . S
C224 C228 1.416 . S
C225 C226 1.430 . S
C225 C227 1.404 . S
C225 C254 1.387 . S
C226 C218 1.448 . S
C226 N223 1.351 . S
C226 C225 1.430 . S
C227 H216 0.930 . S
C227 C225 1.404 . S
C227 C228 1.366 . S
C228 H207 0.930 . S
C228 C224 1.416 . S
C228 C227 1.366 . S
H229 C222 0.929 . S
H230 C253 0.931 . S
H231 C254 0.931 . S
O232 Eu188 2.462 . S
O232 C252 1.252 . S
O233 Eu188 2.373 . S
O233 C244 1.249 . S
O234 Eu199 2.335 1_545 S
O234 C244 1.264 . S
O235 Eu188 2.432 . S
O235 C252 1.268 . S
O236 Eu188 2.291 . S
O236 C251 1.255 . S
O237 Eu199 2.372 . S
O237 C251 1.257 1_565 S
O238 Eu199 2.462 . S
O238 C263 1.252 . S
O239 Eu199 2.373 . S
O239 C255 1.249 . S
O240 Eu188 2.335 1_565 S
O240 C255 1.264 . S
O241 Eu199 2.432 . S
O241 C263 1.268 . S
O242 Eu199 2.291 1_545 S
O242 C262 1.255 . S
O243 Eu188 2.372 . S
O243 C262 1.257 . S
C244 O233 1.249 . S
C244 O234 1.264 . S
C245 C248 1.382 . S
C245 C250 1.390 . S
C245 C252 1.506 1_554 S
C246 C247 1.398 . S
C246 C250 1.392 . S
C247 C246 1.398 . S
C247 C249 1.372 . S
C247 H264 0.931 . S
C248 C245 1.382 . S
C248 C249 1.390 . S
C248 H265 0.931 . S
C249 C247 1.372 . S
C249 C248 1.390 . S
C249 H266 0.929 . S
C250 C245 1.390 . S
C250 C246 1.392 . S
C250 H267 0.930 1_554 S
C251 O236 1.255 . S
C251 O237 1.257 1_545 S
C252 Eu188 2.787 . S
C252 O232 1.252 . S
C252 O235 1.268 . S
C252 C245 1.506 1_556 S
C253 C220 1.439 . S
C253 H230 0.931 . S
C253 C254 1.374 . S
C254 C225 1.387 . S
C254 H231 0.931 . S
C254 C253 1.374 . S
C255 O239 1.249 . S
C255 O240 1.264 . S
C256 C259 1.382 . S
C256 C260 1.390 1_565 S
C256 C263 1.506 . S
C257 C258 1.398 1_545 S
C257 C260 1.392 . S
C258 C257 1.398 1_565 S
C258 C261 1.372 . S
C258 H268 0.931 . S
C259 C256 1.382 . S
C259 C261 1.390 . S
C259 H269 0.931 . S
C260 C256 1.390 1_545 S
C260 C257 1.392 . S
C260 H270 0.930 . S
C261 C258 1.372 . S
C261 C259 1.390 . S
C261 H271 0.929 . S
C262 O242 1.255 . S
C262 O243 1.257 . S
C263 Eu199 2.787 . S
C263 O238 1.252 . S
C263 O241 1.268 . S
C263 C256 1.506 . S
H264 C247 0.931 . S
H265 C248 0.931 . S
H266 C249 0.929 . S
H267 C250 0.930 1_556 S
H268 C258 0.931 . S
H269 C259 0.931 . S
H270 C260 0.930 . S
H271 C261 0.929 . S
Eu272 N301 2.600 . S
Eu272 N307 2.562 . S
Eu272 O316 2.462 . S
Eu272 O317 2.373 . S
Eu272 O319 2.432 . S
Eu272 O320 2.291 . S
Eu272 O324 2.335 . S
Eu272 O327 2.372 . S
Eu272 C336 2.787 . S
C273 N274 1.365 . S
C273 C276 1.405 . S
C273 C280 1.448 . S
N274 C273 1.365 . S
N274 C277 1.319 . S
N274 Eu283 2.600 . S
C275 C277 1.397 . S
C275 C278 1.367 . S
C275 H295 0.931 . S
C276 C273 1.405 . S
C276 C278 1.403 . S
C276 C282 1.439 1_556 S
C277 N274 1.319 . S
C277 C275 1.397 . S
C277 H288 0.930 . S
C278 C275 1.367 . S
C278 C276 1.403 . S
C278 H299 0.929 . S
C279 C280 1.430 1_554 S
C279 C281 1.387 . S
C279 C285 1.404 . S
C280 C273 1.448 . S
C280 C279 1.430 1_556 S
C280 N284 1.351 . S
C281 C279 1.387 . S
C281 C282 1.374 . S
C281 H296 0.931 . S
C282 C276 1.439 1_554 S
C282 C281 1.374 . S
C282 H297 0.931 . S
Eu283 N274 2.600 . S
Eu283 N284 2.562 . S
Eu283 O318 2.335 . S
Eu283 O321 2.372 . S
Eu283 O322 2.462 . S
Eu283 O323 2.373 . S
Eu283 O325 2.432 . S
Eu283 O326 2.291 . S
Eu283 C347 2.787 . S
N284 C280 1.351 . S
N284 Eu283 2.562 . S
N284 C286 1.325 1_556 S
C285 C279 1.404 . S
C285 C287 1.366 . S
C285 H293 0.930 . S
C286 N284 1.325 1_554 S
C286 C287 1.416 . S
C286 H292 0.929 . S
C287 C285 1.366 . S
C287 C286 1.416 . S
C287 H289 0.930 . S
H288 C277 0.930 . S
H289 C287 0.930 . S
H290 C305 0.930 . S
H291 C312 0.930 . S
H292 C286 0.929 . S
H293 C285 0.930 . S
H294 C308 0.929 . S
H295 C275 0.931 . S
H296 C281 0.931 . S
H297 C282 0.931 . S
H298 C303 0.931 . S
H299 C278 0.929 . S
H300 C311 0.930 . S
N301 Eu272 2.600 . S
N301 C302 1.365 . S
N301 C305 1.319 . S
C302 N301 1.365 . S
C302 C304 1.405 . S
C302 C310 1.448 . S
C303 H298 0.931 . S
C303 C305 1.397 . S
C303 C306 1.367 . S
C304 C302 1.405 . S
C304 C306 1.403 . S
C304 C337 1.439 . S
C305 H290 0.930 . S
C305 N301 1.319 . S
C305 C303 1.397 . S
C306 C303 1.367 . S
C306 C304 1.403 . S
C306 H313 0.929 . S
N307 Eu272 2.562 . S
N307 C308 1.325 . S
N307 C310 1.351 . S
C308 H294 0.929 . S
C308 N307 1.325 . S
C308 C312 1.416 . S
C309 C310 1.430 . S
C309 C311 1.404 . S
C309 C338 1.387 . S
C310 C302 1.448 . S
C310 N307 1.351 . S
C310 C309 1.430 . S
C311 H300 0.930 . S
C311 C309 1.404 . S
C311 C312 1.366 . S
C312 H291 0.930 . S
C312 C308 1.416 . S
C312 C311 1.366 . S
H313 C306 0.929 . S
H314 C337 0.931 . S
H315 C338 0.931 . S
O316 Eu272 2.462 . S
O316 C336 1.252 . S
O317 Eu272 2.373 . S
O317 C328 1.249 . S
O318 Eu283 2.335 . S
O318 C328 1.264 . S
O319 Eu272 2.432 . S
O319 C336 1.268 . S
O320 Eu272 2.291 . S
O320 C335 1.255 . S
O321 Eu283 2.372 . S
O321 C335 1.257 . S
O322 Eu283 2.462 . S
O322 C347 1.252 . S
O323 Eu283 2.373 . S
O323 C339 1.249 . S
O324 Eu272 2.335 . S
O324 C339 1.264 . S
O325 Eu283 2.432 . S
O325 C347 1.268 . S
O326 Eu283 2.291 . S
O326 C346 1.255 . S
O327 Eu272 2.372 . S
O327 C346 1.257 . S
C328 O317 1.249 . S
C328 O318 1.264 . S
C329 C332 1.382 . S
C329 C334 1.390 . S
C329 C336 1.506 . S
C330 C331 1.398 . S
C330 C334 1.392 . S
C331 C330 1.398 . S
C331 C333 1.372 . S
C331 H348 0.931 . S
C332 C329 1.382 . S
C332 C333 1.390 . S
C332 H349 0.931 . S
C333 C331 1.372 . S
C333 C332 1.390 . S
C333 H350 0.929 . S
C334 C329 1.390 . S
C334 C330 1.392 . S
C334 H351 0.930 . S
C335 O320 1.255 . S
C335 O321 1.257 . S
C336 Eu272 2.787 . S
C336 O316 1.252 . S
C336 O319 1.268 . S
C336 C329 1.506 . S
C337 C304 1.439 . S
C337 H314 0.931 . S
C337 C338 1.374 . S
C338 C309 1.387 . S
C338 H315 0.931 . S
C338 C337 1.374 . S
C339 O323 1.249 . S
C339 O324 1.264 . S
C340 C343 1.382 . S
C340 C344 1.390 . S
C340 C347 1.506 . S
C341 C342 1.398 . S
C341 C344 1.392 1_554 S
C342 C341 1.398 . S
C342 C345 1.372 1_554 S
C342 H352 0.931 . S
C343 C340 1.382 . S
C343 C345 1.390 . S
C343 H353 0.931 . S
C344 C340 1.390 . S
C344 C341 1.392 1_556 S
C344 H354 0.930 . S
C345 C342 1.372 1_556 S
C345 C343 1.390 . S
C345 H355 0.929 . S
C346 O326 1.255 . S
C346 O327 1.257 . S
C347 Eu283 2.787 . S
C347 O322 1.252 . S
C347 O325 1.268 . S
C347 C340 1.506 . S
H348 C331 0.931 . S
H349 C332 0.931 . S
H350 C333 0.929 . S
H351 C334 0.930 . S
H352 C342 0.931 . S
H353 C343 0.931 . S
H354 C344 0.930 . S
H355 C345 0.929 . S
Eu356 N385 2.600 . S
Eu356 N391 2.562 . S
Eu356 O400 2.462 . S
Eu356 O401 2.373 1_455 S
Eu356 O403 2.432 . S
Eu356 O404 2.291 . S
Eu356 O408 2.335 . S
Eu356 O411 2.372 . S
Eu356 C420 2.787 . S
C357 N358 1.365 . S
C357 C360 1.405 . S
C357 C364 1.448 . S
N358 C357 1.365 . S
N358 C361 1.318 1_455 S
N358 Eu367 2.600 1_455 S
C359 C361 1.394 1_455 S
C359 C362 1.367 . S
C359 H379 0.931 . S
C360 C357 1.405 . S
C360 C362 1.403 . S
C360 C366 1.439 1_556 S
C361 N358 1.318 1_655 S
C361 C359 1.394 1_655 S
C361 H372 0.934 . S
C362 C359 1.367 . S
C362 C360 1.403 . S
C362 H383 0.929 . S
C363 C364 1.430 1_554 S
C363 C365 1.387 . S
C363 C369 1.404 . S
C364 C357 1.448 . S
C364 C363 1.430 1_556 S
C364 N368 1.351 . S
C365 C363 1.387 . S
C365 C366 1.374 . S
C365 H380 0.931 . S
C366 C360 1.439 1_554 S
C366 C365 1.374 . S
C366 H381 0.931 . S
Eu367 N358 2.600 1_655 S
Eu367 N368 2.562 1_655 S
Eu367 O402 2.335 . S
Eu367 O405 2.372 . S
Eu367 O406 2.462 . S
Eu367 O407 2.373 1_655 S
Eu367 O409 2.432 . S
Eu367 O410 2.291 1_655 S
Eu367 C431 2.787 . S
N368 C364 1.351 . S
N368 Eu367 2.562 1_455 S
N368 C370 1.325 1_556 S
C369 C363 1.404 . S
C369 C371 1.366 . S
C369 H377 0.930 . S
C370 N368 1.325 1_554 S
C370 C371 1.416 . S
C370 H376 0.929 . S
C371 C369 1.366 . S
C371 C370 1.416 . S
C371 H373 0.930 . S
H372 C361 0.934 . S
H373 C371 0.930 . S
H374 C389 0.930 . S
H375 C396 0.930 . S
H376 C370 0.929 . S
H377 C369 0.930 . S
H378 C392 0.929 . S
H379 C359 0.931 . S
H380 C365 0.931 . S
H381 C366 0.931 . S
H382 C387 0.931 . S
H383 C362 0.929 . S
H384 C395 0.930 . S
N385 Eu356 2.600 . S
N385 C386 1.372 . S
N385 C389 1.319 . S
C386 N385 1.372 . S
C386 C388 1.400 1_455 S
C386 C394 1.446 1_455 S
C387 H382 0.931 . S
C387 C389 1.397 . S
C387 C390 1.367 1_455 S
C388 C386 1.400 1_655 S
C388 C390 1.403 . S
C388 C421 1.439 . S
C389 H374 0.930 . S
C389 N385 1.319 . S
C389 C387 1.397 . S
C390 C387 1.367 1_655 S
C390 C388 1.403 . S
C390 H397 0.929 . S
N391 Eu356 2.562 . S
N391 C392 1.325 . S
N391 C394 1.351 1_455 S
C392 H378 0.929 . S
C392 N391 1.325 . S
C392 C396 1.416 1_455 S
C393 C394 1.430 . S
C393 C395 1.404 . S
C393 C422 1.387 . S
C394 C386 1.446 1_655 S
C394 N391 1.351 1_655 S
C394 C393 1.430 . S
C395 H384 0.930 . S
C395 C393 1.404 . S
C395 C396 1.366 . S
C396 H375 0.930 . S
C396 C392 1.416 1_655 S
C396 C395 1.366 . S
H397 C390 0.929 . S
H398 C421 0.931 . S
H399 C422 0.931 . S
O400 Eu356 2.462 . S
O400 C420 1.252 . S
O401 Eu356 2.373 1_655 S
O401 C412 1.249 . S
O402 Eu367 2.335 . S
O402 C412 1.264 . S
O403 Eu356 2.432 . S
O403 C420 1.268 . S
O404 Eu356 2.291 . S
O404 C419 1.255 . S
O405 Eu367 2.372 . S
O405 C419 1.257 1_655 S
O406 Eu367 2.462 . S
O406 C431 1.252 . S
O407 Eu367 2.373 1_455 S
O407 C423 1.249 . S
O408 Eu356 2.335 . S
O408 C423 1.264 . S
O409 Eu367 2.432 . S
O409 C431 1.268 . S
O410 Eu367 2.291 1_455 S
O410 C430 1.255 . S
O411 Eu356 2.372 . S
O411 C430 1.257 . S
C412 O401 1.249 . S
C412 O402 1.264 . S
C413 C416 1.382 . S
C413 C418 1.390 . S
C413 C420 1.506 . S
C414 C415 1.398 . S
C414 C418 1.392 . S
C415 C414 1.398 . S
C415 C417 1.372 . S
C415 H432 0.931 . S
C416 C413 1.382 . S
C416 C417 1.390 . S
C416 H433 0.931 . S
C417 C415 1.372 . S
C417 C416 1.390 . S
C417 H434 0.929 . S
C418 C413 1.390 . S
C418 C414 1.392 . S
C418 H435 0.930 . S
C419 O404 1.255 . S
C419 O405 1.257 1_455 S
C420 Eu356 2.787 . S
C420 O400 1.252 . S
C420 O403 1.268 . S
C420 C413 1.506 . S
C421 C388 1.439 . S
C421 H398 0.931 . S
C421 C422 1.374 . S
C422 C393 1.387 . S
C422 H399 0.931 . S
C422 C421 1.374 . S
C423 O407 1.249 . S
C423 O408 1.264 . S
C424 C427 1.382 . S
C424 C428 1.390 . S
C424 C431 1.506 . S
C425 C426 1.398 . S
C425 C428 1.392 1_554 S
C426 C425 1.398 . S
C426 C429 1.372 1_554 S
C426 H436 0.931 . S
C427 C424 1.382 . S
C427 C429 1.390 . S
C427 H437 0.931 . S
C428 C424 1.390 . S
C428 C425 1.392 1_556 S
C428 H438 0.930 . S
C429 C426 1.372 1_556 S
C429 C427 1.390 . S
C429 H439 0.929 . S
C430 O410 1.255 . S
C430 O411 1.257 . S
C431 Eu367 2.787 . S
C431 O406 1.252 . S
C431 O409 1.268 . S
C431 C424 1.506 . S
H432 C415 0.931 . S
H433 C416 0.931 . S
H434 C417 0.929 . S
H435 C418 0.930 . S
H436 C426 0.931 . S
H437 C427 0.931 . S
H438 C428 0.930 . S
H439 C429 0.929 . S
H440 C446 0.930 . S
H441 C450 0.900 1_565 S
H442 C455 0.929 1_565 S
H443 C453 0.929 . S
H444 C448 0.929 1_565 S
H445 C454 0.929 . S
C446 H440 0.930 . S
C446 C447 1.367 . S
C446 C454 1.378 . S
C447 C446 1.367 . S
C447 C455 1.433 . S
C448 H444 0.929 1_545 S
C448 C450 1.382 . S
C448 C452 1.350 . S
C449 C452 1.463 . S
C449 C454 1.350 . S
C449 N457 1.427 . S
C450 H441 0.900 1_545 S
C450 C448 1.382 . S
C450 C451 1.394 . S
C451 C450 1.394 . S
C451 C453 1.433 . S
C452 C448 1.350 . S
C452 C449 1.463 . S
C452 N456 1.427 . S
C453 H443 0.929 . S
C453 C451 1.433 . S
C453 N456 1.384 . S
C454 H445 0.929 . S
C454 C446 1.378 . S
C454 C449 1.350 . S
C455 H442 0.929 1_545 S
C455 C447 1.433 . S
C455 N457 1.384 . S
N456 C452 1.427 . S
N456 C453 1.384 . S
N457 C449 1.427 . S
N457 C455 1.384 . S
H458 C464 0.930 . S
H459 C468 0.930 . S
H460 C473 0.929 . S
H461 C471 0.929 . S
H462 C466 0.929 . S
H463 C472 0.929 . S
C464 H458 0.930 . S
C464 C465 1.367 . S
C464 C472 1.378 . S
C465 C464 1.367 . S
C465 C473 1.433 . S
C466 H462 0.929 . S
C466 C468 1.378 . S
C466 C470 1.350 . S
C467 C470 1.463 . S
C467 C472 1.350 . S
C467 N475 1.427 . S
C468 H459 0.930 . S
C468 C466 1.378 . S
C468 C469 1.367 . S
C469 C468 1.367 . S
C469 C471 1.433 . S
C470 C466 1.350 . S
C470 C467 1.463 . S
C470 N474 1.427 . S
C471 H461 0.929 . S
C471 C469 1.433 . S
C471 N474 1.384 . S
C472 H463 0.929 . S
C472 C464 1.378 . S
C472 C467 1.350 . S
C473 H460 0.929 . S
C473 C465 1.433 . S
C473 N475 1.384 . S
N474 C470 1.427 . S
N474 C471 1.384 . S
N475 C467 1.427 . S
N475 C473 1.384 . S
H476 C482 0.930 . S
H477 C486 0.930 . S
H478 C491 0.929 . S
H479 C489 0.929 . S
H480 C484 0.929 . S
H481 C490 0.929 . S
C482 H476 0.930 . S
C482 C483 1.367 . S
C482 C490 1.378 . S
C483 C482 1.367 . S
C483 C491 1.433 . S
C484 H480 0.929 . S
C484 C486 1.378 . S
C484 C488 1.350 . S
C485 C488 1.463 . S
C485 C490 1.350 . S
C485 N493 1.427 . S
C486 H477 0.930 . S
C486 C484 1.378 . S
C486 C487 1.367 . S
C487 C486 1.367 . S
C487 C489 1.433 . S
C488 C484 1.350 . S
C488 C485 1.463 . S
C488 N492 1.427 . S
C489 H479 0.929 . S
C489 C487 1.433 . S
C489 N492 1.384 . S
C490 H481 0.929 . S
C490 C482 1.378 . S
C490 C485 1.350 . S
C491 H478 0.929 . S
C491 C483 1.433 . S
C491 N493 1.384 . S
N492 C488 1.427 . S
N492 C489 1.384 . S
N493 C485 1.427 . S
N493 C491 1.384 . S
H494 C500 0.930 . S
H495 C504 0.930 . S
H496 C509 0.929 . S
H497 C507 0.929 1_655 S
H498 C502 0.929 . S
H499 C508 0.929 . S
C500 H494 0.930 . S
C500 C501 1.367 . S
C500 C508 1.378 . S
C501 C500 1.367 . S
C501 C509 1.433 . S
C502 H498 0.929 . S
C502 C504 1.378 . S
C502 C506 1.350 . S
C503 C506 1.463 . S
C503 C508 1.350 . S
C503 N511 1.427 . S
C504 H495 0.930 . S
C504 C502 1.378 . S
C504 C505 1.367 . S
C505 C504 1.367 . S
C505 C507 1.433 . S
C506 C502 1.350 . S
C506 C503 1.463 . S
C506 N510 1.427 . S
C507 H497 0.929 1_455 S
C507 C505 1.433 . S
C507 N510 1.384 . S
C508 H499 0.929 . S
C508 C500 1.378 . S
C508 C503 1.350 . S
C509 H496 0.929 . S
C509 C501 1.433 . S
C509 N511 1.384 . S
N510 C506 1.427 . S
N510 C507 1.384 . S
N511 C503 1.427 . S
N511 C509 1.384 . S
H512 C518 0.930 . S
H513 C522 0.930 . S
H514 C527 0.929 . S
H515 C525 0.929 . S
H516 C520 0.929 . S
H517 C526 0.929 . S
C518 H512 0.930 . S
C518 C519 1.367 . S
C518 C526 1.378 . S
C519 C518 1.367 . S
C519 C527 1.433 1_565 S
C520 H516 0.929 . S
C520 C522 1.378 1_554 S
C520 C524 1.350 1_545 S
C521 C524 1.463 . S
C521 C526 1.350 . S
C521 N529 1.427 1_565 S
C522 H513 0.930 . S
C522 C520 1.378 1_556 S
C522 C523 1.367 . S
C523 C522 1.367 . S
C523 C525 1.433 1_545 S
C524 C520 1.350 1_565 S
C524 C521 1.463 . S
C524 N528 1.427 1_554 S
C525 H515 0.929 . S
C525 C523 1.433 1_565 S
C525 N528 1.384 . S
C526 H517 0.929 . S
C526 C518 1.378 . S
C526 C521 1.350 . S
C527 H514 0.929 . S
C527 C519 1.433 1_545 S
C527 N529 1.384 . S
N528 C524 1.427 1_556 S
N528 C525 1.384 . S
N529 C521 1.427 1_545 S
N529 C527 1.384 . S
H530 C536 0.930 . S
H531 C540 0.930 . S
H532 C545 0.929 . S
H533 C543 0.929 1_554 S
H534 C538 0.929 . S
H535 C544 0.929 . S
C536 H530 0.930 . S
C536 C537 1.367 . S
C536 C544 1.378 . S
C537 C536 1.367 . S
C537 C545 1.433 . S
C538 H534 0.929 . S
C538 C540 1.378 . S
C538 C542 1.350 1_556 S
C539 C542 1.463 . S
C539 C544 1.350 . S
C539 N547 1.427 . S
C540 H531 0.930 . S
C540 C538 1.378 . S
C540 C541 1.367 . S
C541 C540 1.367 . S
C541 C543 1.433 . S
C542 C538 1.350 1_554 S
C542 C539 1.463 . S
C542 N546 1.427 . S
C543 H533 0.929 1_556 S
C543 C541 1.433 . S
C543 N546 1.384 1_556 S
C544 H535 0.929 . S
C544 C536 1.378 . S
C544 C539 1.350 . S
C545 H532 0.929 . S
C545 C537 1.433 . S
C545 N547 1.384 . S
N546 C542 1.427 . S
N546 C543 1.384 1_554 S
N547 C539 1.427 . S
N547 C545 1.384 . S
H548 C554 0.930 . S
H549 C558 0.930 . S
H550 C563 0.929 . S
H551 C561 0.929 . S
H552 C556 0.929 . S
H553 C562 0.929 . S
C554 H548 0.930 . S
C554 C555 1.367 . S
C554 C562 1.378 . S
C555 C554 1.367 . S
C555 C563 1.433 . S
C556 H552 0.929 . S
C556 C558 1.378 . S
C556 C560 1.350 1_556 S
C557 C560 1.463 . S
C557 C562 1.350 . S
C557 N565 1.427 . S
C558 H549 0.930 . S
C558 C556 1.378 . S
C558 C559 1.367 . S
C559 C558 1.367 . S
C559 C561 1.433 . S
C560 C556 1.350 1_554 S
C560 C557 1.463 . S
C560 N564 1.427 . S
C561 H551 0.929 . S
C561 C559 1.433 . S
C561 N564 1.384 1_556 S
C562 H553 0.929 . S
C562 C554 1.378 . S
C562 C557 1.350 . S
C563 H550 0.929 . S
C563 C555 1.433 . S
C563 N565 1.384 . S
N564 C560 1.427 . S
N564 C561 1.384 1_554 S
N565 C557 1.427 . S
N565 C563 1.384 . S
H566 C572 0.930 . S
H567 C576 0.930 . S
H568 C581 0.929 . S
H569 C579 0.929 . S
H570 C574 0.929 . S
H571 C580 0.929 . S
C572 H566 0.930 . S
C572 C573 1.367 . S
C572 C580 1.378 . S
C573 C572 1.367 . S
C573 C581 1.433 1_655 S
C574 H570 0.929 . S
C574 C576 1.378 1_554 S
C574 C578 1.350 1_455 S
C575 C578 1.463 . S
C575 C580 1.350 . S
C575 N583 1.427 1_655 S
C576 H567 0.930 . S
C576 C574 1.378 1_556 S
C576 C577 1.343 1_455 S
C577 C576 1.343 1_655 S
C577 C579 1.460 . S
C578 C574 1.350 1_655 S
C578 C575 1.463 . S
C578 N582 1.427 . S
C579 H569 0.929 . S
C579 C577 1.460 . S
C579 N582 1.384 1_556 S
C580 H571 0.929 . S
C580 C572 1.378 . S
C580 C575 1.350 . S
C581 H568 0.929 . S
C581 C573 1.433 1_455 S
C581 N583 1.384 . S
N582 C578 1.427 . S
N582 C579 1.384 1_554 S
N583 C575 1.427 1_455 S
N583 C581 1.384 . S
H584 C590 0.930 1_556 S
H585 C594 0.930 . S
H586 C599 0.929 . S
H587 C597 0.934 . S
H588 C592 0.929 . S
H589 C598 0.929 . S
C590 H584 0.930 1_554 S
C590 C591 1.367 . S
C590 C598 1.378 . S
C591 C590 1.367 . S
C591 C599 1.433 . S
C592 H588 0.929 . S
C592 C594 1.378 . S
C592 C596 1.350 . S
C593 C596 1.463 . S
C593 C598 1.350 . S
C593 N601 1.427 . S
C594 H585 0.930 . S
C594 C592 1.378 . S
C594 C595 1.367 . S
C595 C594 1.367 . S
C595 C597 1.433 . S
C596 C592 1.350 . S
C596 C593 1.463 . S
C596 N600 1.427 . S
C597 H587 0.934 . S
C597 C595 1.433 . S
C597 N600 1.384 . S
C598 H589 0.929 . S
C598 C590 1.378 . S
C598 C593 1.350 . S
C599 H586 0.929 . S
C599 C591 1.433 . S
C599 N601 1.384 . S
N600 C596 1.427 . S
N600 C597 1.384 . S
N601 C593 1.427 . S
N601 C599 1.384 . S
H602 C608 0.930 . S
H603 C612 0.930 . S
H604 C617 0.929 . S
H605 C615 0.929 . S
H606 C610 0.929 . S
H607 C616 0.929 1_565 S
C608 H602 0.930 . S
C608 C609 1.367 . S
C608 C616 1.378 . S
C609 C608 1.367 . S
C609 C617 1.433 . S
C610 H606 0.929 . S
C610 C612 1.378 . S
C610 C614 1.350 . S
C611 C614 1.463 . S
C611 C616 1.350 . S
C611 N619 1.427 . S
C612 H603 0.930 . S
C612 C610 1.378 . S
C612 C613 1.367 . S
C613 C612 1.367 . S
C613 C615 1.433 1_545 S
C614 C610 1.350 . S
C614 C611 1.463 . S
C614 N618 1.427 1_545 S
C615 H605 0.929 . S
C615 C613 1.433 1_565 S
C615 N618 1.384 . S
C616 H607 0.929 1_545 S
C616 C608 1.378 . S
C616 C611 1.350 . S
C617 H604 0.929 . S
C617 C609 1.433 . S
C617 N619 1.384 . S
N618 C614 1.427 1_565 S
N618 C615 1.384 . S
N619 C611 1.427 . S
N619 C617 1.384 . S
H620 C626 0.930 . S
H621 C630 0.930 . S
H622 C635 0.929 . S
H623 C633 0.929 . S
H624 C628 0.929 . S
H625 C634 0.929 . S
C626 H620 0.930 . S
C626 C627 1.367 . S
C626 C634 1.378 . S
C627 C626 1.367 . S
C627 C635 1.433 . S
C628 H624 0.929 . S
C628 C630 1.378 . S
C628 C632 1.350 . S
C629 C632 1.463 . S
C629 C634 1.350 . S
C629 N637 1.427 . S
C630 H621 0.930 . S
C630 C628 1.378 . S
C630 C631 1.367 . S
C631 C630 1.367 . S
C631 C633 1.433 . S
C632 C628 1.350 . S
C632 C629 1.463 . S
C632 N636 1.427 . S
C633 H623 0.929 . S
C633 C631 1.433 . S
C633 N636 1.384 . S
C634 H625 0.929 . S
C634 C626 1.378 . S
C634 C629 1.350 . S
C635 H622 0.929 . S
C635 C627 1.433 . S
C635 N637 1.384 . S
N636 C632 1.427 . S
N636 C633 1.384 . S
N637 C629 1.427 . S
N637 C635 1.384 . S
H638 C644 0.930 . S
H639 C648 0.930 . S
H640 C653 0.929 1_556 S
H641 C651 0.929 . S
H642 C646 0.929 . S
H643 C652 0.929 . S
C644 H638 0.930 . S
C644 C645 1.367 . S
C644 C652 1.378 . S
C645 C644 1.367 . S
C645 C653 1.433 . S
C646 H642 0.929 . S
C646 C648 1.378 . S
C646 C650 1.350 . S
C647 C650 1.463 . S
C647 C652 1.350 . S
C647 N655 1.427 . S
C648 H639 0.930 . S
C648 C646 1.378 . S
C648 C649 1.367 . S
C649 C648 1.367 . S
C649 C651 1.433 . S
C650 C646 1.350 . S
C650 C647 1.463 . S
C650 N654 1.427 . S
C651 H641 0.929 . S
C651 C649 1.433 . S
C651 N654 1.384 . S
C652 H643 0.929 . S
C652 C644 1.378 . S
C652 C647 1.350 . S
C653 H640 0.929 1_554 S
C653 C645 1.433 . S
C653 N655 1.384 . S
N654 C650 1.427 . S
N654 C651 1.384 . S
N655 C647 1.427 . S
N655 C653 1.384 . S
H656 C662 0.930 . S
H657 C666 0.930 . S
H658 C671 0.929 . S
H659 C669 0.929 . S
H660 C664 0.929 . S
H661 C670 0.929 . S
C662 H656 0.930 . S
C662 C663 1.367 1_455 S
C662 C670 1.378 . S
C663 C662 1.367 1_655 S
C663 C671 1.433 . S
C664 H660 0.929 . S
C664 C666 1.378 . S
C664 C668 1.337 1_655 S
C665 C668 1.459 1_655 S
C665 C670 1.350 1_655 S
C665 N673 1.427 . S
C666 H657 0.930 . S
C666 C664 1.378 . S
C666 C667 1.367 1_655 S
C667 C666 1.367 1_455 S
C667 C669 1.433 . S
C668 C664 1.337 1_455 S
C668 C665 1.459 1_455 S
C668 N672 1.445 . S
C669 H659 0.929 . S
C669 C667 1.433 . S
C669 N672 1.384 . S
C670 H661 0.929 . S
C670 C662 1.378 . S
C670 C665 1.350 1_455 S
C671 H658 0.929 . S
C671 C663 1.433 . S
C671 N673 1.384 . S
N672 C668 1.445 . S
N672 C669 1.384 . S
N673 C665 1.427 . S
N673 C671 1.384 . S
H674 C680 0.930 . S
H675 C684 0.930 1_556 S
H676 C689 0.929 . S
H677 C687 0.929 . S
H678 C682 0.929 . S
H679 C688 0.929 . S
C680 H674 0.930 . S
C680 C681 1.367 1_545 S
C680 C688 1.378 . S
C681 C680 1.367 1_565 S
C681 C689 1.433 . S
C682 H678 0.929 . S
C682 C684 1.378 . S
C682 C686 1.350 1_565 S
C683 C686 1.463 1_565 S
C683 C688 1.350 1_565 S
C683 N691 1.427 . S
C684 H675 0.930 1_554 S
C684 C682 1.378 . S
C684 C685 1.367 1_565 S
C685 C684 1.367 1_545 S
C685 C687 1.433 . S
C686 C682 1.350 1_545 S
C686 C683 1.463 1_545 S
C686 N690 1.427 . S
C687 H677 0.929 . S
C687 C685 1.433 . S
C687 N690 1.384 . S
C688 H679 0.929 . S
C688 C680 1.378 . S
C688 C683 1.350 1_545 S
C689 H676 0.929 . S
C689 C681 1.433 . S
C689 N691 1.384 . S
N690 C686 1.427 . S
N690 C687 1.384 . S
N691 C683 1.427 . S
N691 C689 1.384 . S
H692 C698 0.930 . S
H693 C702 0.930 . S
H694 C707 0.929 . S
H695 C705 0.929 . S
H696 C700 0.929 . S
H697 C706 0.929 . S
C698 H692 0.930 . S
C698 C699 1.367 . S
C698 C706 1.378 . S
C699 C698 1.367 . S
C699 C707 1.433 . S
C700 H696 0.929 . S
C700 C702 1.378 . S
C700 C704 1.350 . S
C701 C704 1.463 . S
C701 C706 1.350 . S
C701 N709 1.427 . S
C702 H693 0.930 . S
C702 C700 1.378 . S
C702 C703 1.367 . S
C703 C702 1.367 . S
C703 C705 1.433 . S
C704 C700 1.350 . S
C704 C701 1.463 . S
C704 N708 1.427 . S
C705 H695 0.929 . S
C705 C703 1.433 . S
C705 N708 1.384 . S
C706 H697 0.929 . S
C706 C698 1.378 . S
C706 C701 1.350 . S
C707 H694 0.929 . S
C707 C699 1.433 . S
C707 N709 1.384 . S
N708 C704 1.427 . S
N708 C705 1.384 . S
N709 C701 1.427 . S
N709 C707 1.384 . S
H710 C716 0.930 . S
H711 C720 0.930 1_556 S
H712 C725 0.929 . S
H713 C723 0.929 . S
H714 C718 0.929 . S
H715 C724 0.929 . S
C716 H710 0.930 . S
C716 C717 1.367 . S
C716 C724 1.378 . S
C717 C716 1.367 . S
C717 C725 1.433 . S
C718 H714 0.929 . S
C718 C720 1.378 . S
C718 C722 1.350 . S
C719 C722 1.463 . S
C719 C724 1.350 . S
C719 N727 1.427 . S
C720 H711 0.930 1_554 S
C720 C718 1.378 . S
C720 C721 1.367 . S
C721 C720 1.367 . S
C721 C723 1.433 . S
C722 C718 1.350 . S
C722 C719 1.463 . S
C722 N726 1.427 . S
C723 H713 0.929 . S
C723 C721 1.433 . S
C723 N726 1.384 . S
C724 H715 0.929 . S
C724 C716 1.378 . S
C724 C719 1.350 . S
C725 H712 0.929 . S
C725 C717 1.433 . S
C725 N727 1.384 . S
N726 C722 1.427 . S
N726 C723 1.384 . S
N727 C719 1.427 . S
N727 C725 1.384 . S
H728 C734 0.930 . S
H729 C738 0.930 . S
H730 C743 0.929 . S
H731 C741 0.929 . S
H732 C736 0.929 . S
H733 C742 0.929 1_554 S
C734 H728 0.930 . S
C734 C735 1.367 1_554 S
C734 C742 1.378 1_554 S
C735 C734 1.367 1_556 S
C735 C743 1.433 . S
C736 H732 0.929 . S
C736 C738 1.378 . S
C736 C740 1.350 . S
C737 C740 1.463 . S
C737 C742 1.350 . S
C737 N745 1.427 . S
C738 H729 0.930 . S
C738 C736 1.378 . S
C738 C739 1.367 . S
C739 C738 1.367 . S
C739 C741 1.433 . S
C740 C736 1.350 . S
C740 C737 1.463 . S
C740 N744 1.427 . S
C741 H731 0.929 . S
C741 C739 1.433 . S
C741 N744 1.384 . S
C742 H733 0.929 1_556 S
C742 C734 1.378 1_556 S
C742 C737 1.350 . S
C743 H730 0.929 . S
C743 C735 1.433 . S
C743 N745 1.384 . S
N744 C740 1.427 . S
N744 C741 1.384 . S
N745 C737 1.427 . S
N745 C743 1.384 . S
H746 C752 0.930 1_565 S
H747 C756 0.930 . S
H748 C761 0.929 . S
H749 C759 0.929 1_565 S
H750 C754 0.929 . S
H751 C760 0.929 1_565 S
C752 H746 0.930 1_545 S
C752 C753 1.367 . S
C752 C760 1.378 . S
C753 C752 1.367 . S
C753 C761 1.433 . S
C754 H750 0.929 . S
C754 C756 1.378 . S
C754 C758 1.350 . S
C755 C758 1.463 . S
C755 C760 1.350 . S
C755 N763 1.427 . S
C756 H747 0.930 . S
C756 C754 1.378 . S
C756 C757 1.367 . S
C757 C756 1.367 . S
C757 C759 1.433 . S
C758 C754 1.350 . S
C758 C755 1.463 . S
C758 N762 1.427 . S
C759 H749 0.929 1_545 S
C759 C757 1.433 . S
C759 N762 1.384 . S
C760 H751 0.929 1_545 S
C760 C752 1.378 . S
C760 C755 1.350 . S
C761 H748 0.929 . S
C761 C753 1.433 . S
C761 N763 1.384 . S
N762 C758 1.427 . S
N762 C759 1.384 . S
N763 C755 1.427 . S
N763 C761 1.384 . S
H764 C770 0.930 . S
H765 C774 0.930 . S
H766 C779 0.929 . S
H767 C777 0.929 . S
H768 C772 0.929 . S
H769 C778 0.929 . S
C770 H764 0.930 . S
C770 C771 1.367 . S
C770 C778 1.378 . S
C771 C770 1.367 . S
C771 C779 1.433 1_556 S
C772 H768 0.929 . S
C772 C774 1.378 . S
C772 C776 1.350 . S
C773 C776 1.463 . S
C773 C778 1.350 . S
C773 N781 1.427 . S
C774 H765 0.930 . S
C774 C772 1.378 . S
C774 C775 1.367 . S
C775 C774 1.367 . S
C775 C777 1.433 . S
C776 C772 1.350 . S
C776 C773 1.463 . S
C776 N780 1.427 . S
C777 H767 0.929 . S
C777 C775 1.433 . S
C777 N780 1.384 . S
C778 H769 0.929 . S
C778 C770 1.378 . S
C778 C773 1.350 . S
C779 H766 0.929 . S
C779 C771 1.433 1_554 S
C779 N781 1.384 1_554 S
N780 C776 1.427 . S
N780 C777 1.384 . S
N781 C773 1.427 . S
N781 C779 1.384 1_556 S
H782 C788 0.930 . S
H783 C792 0.930 . S
H784 C797 0.929 . S
H785 C795 0.929 . S
H786 C790 0.929 . S
H787 C796 0.929 . S
C788 H782 0.930 . S
C788 C789 1.367 . S
C788 C796 1.378 . S
C789 C788 1.367 . S
C789 C797 1.433 . S
C790 H786 0.929 . S
C790 C792 1.378 . S
C790 C794 1.350 . S
C791 C794 1.463 . S
C791 C796 1.350 . S
C791 N799 1.427 . S
C792 H783 0.930 . S
C792 C790 1.378 . S
C792 C793 1.367 . S
C793 C792 1.367 . S
C793 C795 1.433 . S
C794 C790 1.350 . S
C794 C791 1.463 . S
C794 N798 1.427 . S
C795 H785 0.929 . S
C795 C793 1.433 . S
C795 N798 1.384 . S
C796 H787 0.929 . S
C796 C788 1.378 . S
C796 C791 1.350 . S
C797 H784 0.929 . S
C797 C789 1.433 . S
C797 N799 1.384 . S
N798 C794 1.427 . S
N798 C795 1.384 . S
N799 C791 1.427 . S
N799 C797 1.384 . S
H800 C806 0.930 . S
H801 C810 0.930 . S
H802 C815 0.940 . S
H803 C813 0.929 . S
H804 C808 0.924 1_455 S
H805 C814 0.929 . S
C806 H800 0.930 . S
C806 C807 1.367 . S
C806 C814 1.378 . S
C807 C806 1.367 . S
C807 C815 1.433 . S
C808 H804 0.924 1_655 S
C808 C810 1.377 1_655 S
C808 C812 1.356 . S
C809 C812 1.463 . S
C809 C814 1.350 . S
C809 N817 1.427 . S
C810 H801 0.930 . S
C810 C808 1.377 1_455 S
C810 C811 1.367 1_455 S
C811 C810 1.367 1_655 S
C811 C813 1.433 . S
C812 C808 1.356 . S
C812 C809 1.463 . S
C812 N816 1.427 . S
C813 H803 0.929 . S
C813 C811 1.433 . S
C813 N816 1.384 . S
C814 H805 0.929 . S
C814 C806 1.378 . S
C814 C809 1.350 . S
C815 H802 0.940 . S
C815 C807 1.433 . S
C815 N817 1.384 . S
N816 C812 1.427 . S
N816 C813 1.384 . S
N817 C809 1.427 . S
N817 C815 1.384 . S
H818 C824 0.930 . S
H819 C828 0.930 . S
H820 C833 0.929 . S
H821 C831 0.929 . S
H822 C826 0.929 . S
H823 C832 0.929 . S
C824 H818 0.930 . S
C824 C825 1.367 . S
C824 C832 1.378 . S
C825 C824 1.367 . S
C825 C833 1.433 1_565 S
C826 H822 0.929 . S
C826 C828 1.378 . S
C826 C830 1.350 1_545 S
C827 C830 1.463 . S
C827 C832 1.350 . S
C827 N835 1.427 1_565 S
C828 H819 0.930 . S
C828 C826 1.378 . S
C828 C829 1.367 1_545 S
C829 C828 1.367 1_565 S
C829 C831 1.433 . S
C830 C826 1.350 1_565 S
C830 C827 1.463 . S
C830 N834 1.427 . S
C831 H821 0.929 . S
C831 C829 1.433 . S
C831 N834 1.384 . S
C832 H823 0.929 . S
C832 C824 1.378 . S
C832 C827 1.350 . S
C833 H820 0.929 . S
C833 C825 1.433 1_545 S
C833 N835 1.384 . S
N834 C830 1.427 . S
N834 C831 1.384 . S
N835 C827 1.427 1_545 S
N835 C833 1.384 . S
H836 C842 0.930 . S
H837 C846 0.930 . S
H838 C851 0.929 . S
H839 C849 0.929 . S
H840 C844 0.929 . S
H841 C850 0.929 . S
C842 H836 0.930 . S
C842 C843 1.367 . S
C842 C850 1.378 . S
C843 C842 1.367 . S
C843 C851 1.433 . S
C844 H840 0.929 . S
C844 C846 1.378 . S
C844 C848 1.350 . S
C845 C848 1.463 . S
C845 C850 1.350 . S
C845 N853 1.427 . S
C846 H837 0.930 . S
C846 C844 1.378 . S
C846 C847 1.367 . S
C847 C846 1.367 . S
C847 C849 1.433 . S
C848 C844 1.350 . S
C848 C845 1.463 . S
C848 N852 1.427 . S
C849 H839 0.929 . S
C849 C847 1.433 . S
C849 N852 1.384 . S
C850 H841 0.929 . S
C850 C842 1.378 . S
C850 C845 1.350 . S
C851 H838 0.929 . S
C851 C843 1.433 . S
C851 N853 1.384 . S
N852 C848 1.427 . S
N852 C849 1.384 . S
N853 C845 1.427 . S
N853 C851 1.384 . S
H854 C860 0.930 . S
H855 C864 0.930 . S
H856 C869 0.929 . S
H857 C867 0.929 . S
H858 C862 0.929 . S
H859 C868 0.929 . S
C860 H854 0.930 . S
C860 C861 1.367 . S
C860 C868 1.378 . S
C861 C860 1.367 . S
C861 C869 1.433 . S
C862 H858 0.929 . S
C862 C864 1.378 . S
C862 C866 1.350 . S
C863 C866 1.463 . S
C863 C868 1.350 . S
C863 N871 1.427 . S
C864 H855 0.930 . S
C864 C862 1.378 . S
C864 C865 1.367 . S
C865 C864 1.367 . S
C865 C867 1.433 . S
C866 C862 1.350 . S
C866 C863 1.463 . S
C866 N870 1.427 . S
C867 H857 0.929 . S
C867 C865 1.433 . S
C867 N870 1.384 . S
C868 H859 0.929 . S
C868 C860 1.378 . S
C868 C863 1.350 . S
C869 H856 0.929 . S
C869 C861 1.433 . S
C869 N871 1.384 . S
N870 C866 1.427 . S
N870 C867 1.384 . S
N871 C863 1.427 . S
N871 C869 1.384 . S
C447 N80 1.945 . S
C451 C167 2.010 . S
C469 C244 2.023 . S
C465 N93 1.934 . S
C487 C335 2.005 . S
C483 N54 1.940 . S
C505 C419 2.003 . S
C501 N67 1.935 . S
C523 C178 2.009 . S
C519 N28 1.945 . S
C537 N41 1.948 . S
C541 C255 2.026 . S
C555 N2 1.943 . S
C559 C346 2.011 . S
C573 N15 1.936 . S
C577 C430 1.992 1_655 S
C595 C162 0.577 1_455 S
C591 N70 0.536 . S
C613 C257 0.560 . S
C609 N83 0.500 . S
C631 C330 0.562 . S
C627 N96 0.542 . S
C645 N57 0.515 . S
C649 C414 0.574 . S
C663 N18 0.518 . S
C667 C173 0.607 . S
C685 C246 0.586 . S
C681 N31 0.504 . S
C703 C341 0.597 . S
C699 N44 0.522 . S
C717 N5 0.521 . S
C721 C425 0.556 . S
C735 N66 2.019 . S
C739 C171 2.093 . S
C753 N79 2.027 . S
C757 C262 2.106 . S
C775 C339 2.111 . S
C771 N92 2.037 . S
C793 C423 2.115 . S
C789 N53 2.042 . S
C807 N14 2.032 . S
C811 C160 2.098 . S
C829 C251 2.103 1_565 S
C825 N27 2.037 . S
C847 C328 2.107 . S
C843 N40 2.036 . S
C861 N1 2.043 . S
C865 C412 2.114 . S
