# Generated by pormake.
# Topology pyr, (3,6)-cn, num edge types: 1
# Building blocks:
#     Node 0, Type 0, BuildingBlock: CUQRIR_clean_linker_1, # of connection points: 3
#     Node 1, Type 0, BuildingBlock: CUQRIR_clean_linker_1, # of connection points: 3
#     Node 2, Type 0, BuildingBlock: CUQRIR_clean_linker_1, # of connection points: 3
#     Node 3, Type 0, BuildingBlock: CUQRIR_clean_linker_1, # of connection points: 3
#     Node 4, Type 0, BuildingBlock: CUQRIR_clean_linker_1, # of connection points: 3
#     Node 5, Type 0, BuildingBlock: CUQRIR_clean_linker_1, # of connection points: 3
#     Node 6, Type 0, BuildingBlock: CUQRIR_clean_linker_1, # of connection points: 3
#     Node 7, Type 0, BuildingBlock: CUQRIR_clean_linker_1, # of connection points: 3
#     Node 8, Type 1, BuildingBlock: BETFEN_clean_sbu_0, # of connection points: 6
#     Node 9, Type 1, BuildingBlock: BETFEN_clean_sbu_0, # of connection points: 6
#     Node 10, Type 1, BuildingBlock: BETFEN_clean_sbu_0, # of connection points: 6
#     Node 11, Type 1, BuildingBlock: BETFEN_clean_sbu_0, # of connection points: 6
#     Edge 12, Type (0, 1), BuildingBlock: XIVTED_clean_linker_0, # of connection points: 2
#     Edge 13, Type (0, 1), BuildingBlock: XIVTED_clean_linker_0, # of connection points: 2
#     Edge 14, Type (0, 1), BuildingBlock: XIVTED_clean_linker_0, # of connection points: 2
#     Edge 15, Type (0, 1), BuildingBlock: XIVTED_clean_linker_0, # of connection points: 2
#     Edge 16, Type (0, 1), BuildingBlock: XIVTED_clean_linker_0, # of connection points: 2
#     Edge 17, Type (0, 1), BuildingBlock: XIVTED_clean_linker_0, # of connection points: 2
#     Edge 18, Type (0, 1), BuildingBlock: XIVTED_clean_linker_0, # of connection points: 2
#     Edge 19, Type (0, 1), BuildingBlock: XIVTED_clean_linker_0, # of connection points: 2
#     Edge 20, Type (0, 1), BuildingBlock: XIVTED_clean_linker_0, # of connection points: 2
#     Edge 21, Type (0, 1), BuildingBlock: XIVTED_clean_linker_0, # of connection points: 2
#     Edge 22, Type (0, 1), BuildingBlock: XIVTED_clean_linker_0, # of connection points: 2
#     Edge 23, Type (0, 1), BuildingBlock: XIVTED_clean_linker_0, # of connection points: 2
#     Edge 24, Type (0, 1), BuildingBlock: XIVTED_clean_linker_0, # of connection points: 2
#     Edge 25, Type (0, 1), BuildingBlock: XIVTED_clean_linker_0, # of connection points: 2
#     Edge 26, Type (0, 1), BuildingBlock: XIVTED_clean_linker_0, # of connection points: 2
#     Edge 27, Type (0, 1), BuildingBlock: XIVTED_clean_linker_0, # of connection points: 2
#     Edge 28, Type (0, 1), BuildingBlock: XIVTED_clean_linker_0, # of connection points: 2
#     Edge 29, Type (0, 1), BuildingBlock: XIVTED_clean_linker_0, # of connection points: 2
#     Edge 30, Type (0, 1), BuildingBlock: XIVTED_clean_linker_0, # of connection points: 2
#     Edge 31, Type (0, 1), BuildingBlock: XIVTED_clean_linker_0, # of connection points: 2
#     Edge 32, Type (0, 1), BuildingBlock: XIVTED_clean_linker_0, # of connection points: 2
#     Edge 33, Type (0, 1), BuildingBlock: XIVTED_clean_linker_0, # of connection points: 2
#     Edge 34, Type (0, 1), BuildingBlock: XIVTED_clean_linker_0, # of connection points: 2
#     Edge 35, Type (0, 1), BuildingBlock: XIVTED_clean_linker_0, # of connection points: 2
# Relax obj value: 0.211
# Max RMSD: 0.328
# Mean RMSD: 0.170
data_MOF--net-pyr--node1-BETFEN_clean_sbu_0--node2-CUQRIR_clean_linker_1--edge1-XIVTED_clean_linker_0
_symmetry_space_group_name_H-M    P1
_symmetry_Int_Tables_number       1
_symmetry_cell_setting            triclinic
loop_
_symmetry_equiv_pos_as_xyz
'x, y, z'
_cell_length_a     34.803779
_cell_length_b     38.166204
_cell_length_c     33.12258
_cell_angle_alpha  90.563428
_cell_angle_beta   100.35524
_cell_angle_gamma 114.40979
loop_
_atom_site_label
_atom_site_type_symbol
_atom_site_fract_x
_atom_site_fract_y
_atom_site_fract_z
_atom_type_partial_charge
C0 C 0.4371 0.46847 0.3425 0.0
N1 N 0.44694 0.43769 0.34591 0.0
N2 N 0.45447 0.49006 0.31263 0.0
C3 C 0.404 0.47351 0.36286 0.0
C4 C 0.4762 0.47152 0.29884 0.0
N5 N 0.47121 0.4395 0.31862 0.0
C6 C 0.50144 0.48444 0.26522 0.0
H7 H 0.37541 0.4699 0.33908 0.0
H8 H 0.41773 0.50312 0.3786 0.0
H9 H 0.39349 0.45268 0.38602 0.0
H10 H 0.51319 0.51616 0.26402 0.0
H11 H 0.4806 0.4701 0.23499 0.0
H12 H 0.52912 0.4765 0.27041 0.0
C13 C 0.29375 0.87245 0.73265 0.0
N14 N 0.28503 0.89379 0.75953 0.0
N15 N 0.31492 0.85306 0.75309 0.0
C16 C 0.28402 0.8724 0.68652 0.0
C17 C 0.31845 0.86312 0.79335 0.0
N18 N 0.2998 0.88758 0.79739 0.0
C19 C 0.34342 0.85177 0.82872 0.0
H20 H 0.28069 0.84519 0.67093 0.0
H21 H 0.31096 0.89676 0.67712 0.0
H22 H 0.25401 0.87631 0.6762 0.0
H23 H 0.35619 0.83178 0.81832 0.0
H24 H 0.32223 0.83724 0.85042 0.0
H25 H 0.37051 0.8781 0.84577 0.0
C26 C 0.58861 0.33458 0.85601 0.0
N27 N 0.61697 0.33014 0.88733 0.0
N28 N 0.60885 0.36603 0.83635 0.0
C29 C 0.54188 0.30726 0.84295 0.0
C30 C 0.65025 0.38074 0.85689 0.0
N31 N 0.65529 0.35881 0.88744 0.0
C32 C 0.68495 0.41854 0.84948 0.0
H33 H 0.53006 0.3081 0.80971 0.0
H34 H 0.52278 0.31616 0.8608 0.0
H35 H 0.53677 0.27728 0.84903 0.0
H36 H 0.70809 0.43335 0.87857 0.0
H37 H 0.67102 0.4382 0.83585 0.0
H38 H 0.70286 0.41271 0.82772 0.0
C39 C 0.84977 0.67427 0.34976 0.0
N40 N 0.88622 0.70328 0.34227 0.0
N41 N 0.83847 0.68424 0.38371 0.0
C42 C 0.82458 0.63668 0.32318 0.0
C43 C 0.86947 0.72005 0.39694 0.0
N44 N 0.89866 0.73177 0.37216 0.0
C45 C 0.87045 0.74426 0.43369 0.0
H46 H 0.80691 0.64195 0.29425 0.0
H47 H 0.80096 0.61496 0.33877 0.0
H48 H 0.8468 0.62505 0.31477 0.0
H49 H 0.85322 0.72584 0.45618 0.0
H50 H 0.85441 0.76327 0.42303 0.0
H51 H 0.90404 0.76286 0.44939 0.0
C52 C 0.57708 0.68243 0.79516 0.0
N53 N 0.60904 0.67899 0.77984 0.0
N54 N 0.5721 0.7146 0.78392 0.0
C55 C 0.55212 0.65565 0.82359 0.0
C56 C 0.60036 0.72912 0.75851 0.0
N57 N 0.62273 0.70765 0.75605 0.0
C58 C 0.61283 0.76876 0.74358 0.0
H59 H 0.55163 0.6266 0.81906 0.0
H60 H 0.51867 0.65326 0.81779 0.0
H61 H 0.567 0.66732 0.85614 0.0
H62 H 0.63849 0.79034 0.76757 0.0
H63 H 0.58496 0.77633 0.7377 0.0
H64 H 0.62535 0.77043 0.71482 0.0
C65 C 0.81745 0.25344 0.49456 0.0
N66 N 0.82819 0.23717 0.4643 0.0
N67 N 0.79328 0.27193 0.47817 0.0
C68 C 0.83059 0.25157 0.5399 0.0
C69 C 0.78921 0.26597 0.43701 0.0
N70 N 0.81084 0.24524 0.42851 0.0
C71 C 0.7596 0.27623 0.40519 0.0
H72 H 0.80678 0.22464 0.54917 0.0
H73 H 0.83121 0.27653 0.55792 0.0
H74 H 0.86272 0.25102 0.54711 0.0
H75 H 0.77919 0.30204 0.39087 0.0
H76 H 0.73624 0.28284 0.41886 0.0
H77 H 0.74129 0.25216 0.38055 0.0
C78 C 0.40907 0.6903 0.25761 0.0
N79 N 0.44568 0.71891 0.27944 0.0
N80 N 0.38306 0.70488 0.23656 0.0
C81 C 0.39803 0.64785 0.25813 0.0
C82 C 0.40446 0.74331 0.24662 0.0
N83 N 0.44279 0.75228 0.27266 0.0
C84 C 0.38879 0.77257 0.22934 0.0
H85 H 0.42606 0.64223 0.25436 0.0
H86 H 0.37031 0.63053 0.23314 0.0
H87 H 0.39012 0.6385 0.28836 0.0
H88 H 0.35391 0.7591 0.21545 0.0
H89 H 0.407 0.78696 0.20543 0.0
H90 H 0.39456 0.79503 0.25403 0.0
C91 C 0.15131 0.38016 0.7906 0.0
N92 N 0.17162 0.37655 0.76044 0.0
N93 N 0.16482 0.41788 0.80413 0.0
C94 C 0.11636 0.347 0.80507 0.0
C95 C 0.19413 0.43705 0.78084 0.0
N96 N 0.19809 0.41206 0.75399 0.0
C97 C 0.22132 0.47998 0.78687 0.0
H98 H 0.09839 0.32315 0.78013 0.0
H99 H 0.09352 0.3565 0.81592 0.0
H100 H 0.1313 0.33576 0.83114 0.0
H101 H 0.22469 0.49165 0.81877 0.0
H102 H 0.20556 0.49436 0.76524 0.0
H103 H 0.25384 0.48701 0.7806 0.0
Pr104 Pr 1.02229 0.03376 0.58615 0.0
Pr105 Pr 0.09081 0.0711 0.54542 0.0
C106 C 0.95914 0.98856 0.62408 0.0
C107 C 0.9371 0.95051 0.63897 0.0
C108 C 0.92694 0.94918 0.67813 0.0
C109 C 0.90022 0.91426 0.69086 0.0
C110 C 0.88298 0.87985 0.66459 0.0
C111 C 0.8951 0.88093 0.62614 0.0
C112 C 0.92196 0.91598 0.61341 0.0
C113 C 0.06479 0.11339 0.61309 0.0
C114 C 0.11267 0.02662 0.6213 0.0
C115 C 0.15305 0.11232 0.50463 0.0
C116 C 0.1783 0.14836 0.488 0.0
C117 C 0.18646 0.14604 0.44841 0.0
C118 C 0.21493 0.17856 0.43339 0.0
C119 C 0.23588 0.21417 0.45774 0.0
C120 C 0.22659 0.21674 0.49702 0.0
C121 C 0.19801 0.18406 0.51207 0.0
C122 C 0.04824 0.99142 0.51861 0.0
C123 C 1.00216 0.08382 0.51626 0.0
O124 O 0.95389 0.99076 0.58431 0.0
O125 O 0.99761 1.01161 0.6442 0.0
O126 O 0.08373 0.09212 0.60811 0.0
O127 O 1.02343 0.09379 0.60463 0.0
O128 O 0.13027 0.05807 0.603 0.0
O129 O 0.07047 1.00733 0.6139 0.0
O130 O 0.15972 0.11102 0.54454 0.0
O131 O 0.11319 0.09165 0.48601 0.0
O132 O 0.02946 1.01298 0.52307 0.0
O133 O 0.08947 1.01053 0.52969 0.0
O134 O 0.98392 0.05061 0.5313 0.0
O135 O 0.04458 0.10141 0.52242 0.0
H136 H 0.93805 0.97551 0.69819 0.0
H137 H 0.89115 0.91471 0.72041 0.0
H138 H 0.88283 0.85488 0.6054 0.0
H139 H 0.92954 0.91624 0.58306 0.0
H140 H 0.17194 0.11865 0.42957 0.0
H141 H 0.22176 0.17536 0.40328 0.0
H142 H 0.24175 0.24389 0.51628 0.0
H143 H 0.19219 0.1865 0.5428 0.0
Pr144 Pr 0.52993 0.07071 0.14124 0.0
Pr145 Pr 0.57697 0.04902 0.09192 0.0
C146 C 0.49414 0.08936 0.19917 0.0
C147 C 0.4942 0.12625 0.2124 0.0
C148 C 0.51103 0.15837 0.19017 0.0
C149 C 0.51091 0.1935 0.20211 0.0
C150 C 0.49413 0.19726 0.23666 0.0
C151 C 0.47785 0.16509 0.25925 0.0
C152 C 0.47782 0.1298 0.24712 0.0
C153 C 0.54895 0.11987 0.07818 0.0
C154 C 0.63534 0.10934 0.17249 0.0
C155 C 0.62094 0.03352 1.04075 0.0
C156 C 0.61144 0.99809 1.01518 0.0
C157 C 0.59035 0.96171 1.02914 0.0
C158 C 0.57909 0.92802 1.00404 0.0
C159 C 0.58843 0.92997 0.96437 0.0
C160 C 0.60913 0.96643 0.95023 0.0
C161 C 0.62058 1.00025 0.97551 0.0
C162 C 0.53391 0.98794 0.13767 0.0
C163 C 0.47643 0.02249 0.05568 0.0
O164 O 0.53131 0.08759 0.20755 0.0
O165 O 0.4731 0.07468 0.16186 0.0
O166 O 0.57537 0.1088 0.09911 0.0
O167 O 0.51252 0.10616 0.09003 0.0
O168 O 0.63609 0.08633 0.14324 0.0
O169 O 0.59935 0.11125 0.17659 0.0
O170 O 0.59521 0.05025 1.02946 0.0
O171 O 0.62958 0.03227 0.08066 0.0
O172 O 0.55421 0.02299 0.15163 0.0
O173 O 0.53348 0.9841 0.09872 0.0
O174 O 0.47395 0.02121 0.09487 0.0
O175 O 0.51422 0.03963 0.04572 0.0
H176 H 0.52421 0.15623 0.16347 0.0
H177 H 0.52427 0.21784 0.18443 0.0
H178 H 0.46439 0.16698 0.2858 0.0
H179 H 0.46481 0.10528 0.26467 0.0
H180 H 0.58226 0.95925 0.05937 0.0
H181 H 0.56271 0.90038 1.01559 0.0
H182 H 0.6171 0.96879 0.91994 0.0
H183 H 0.63636 0.02806 0.96404 0.0
Pr184 Pr 0.51978 0.57988 0.57762 0.0
Pr185 Pr 0.50532 0.50033 0.54177 0.0
C186 C 0.53386 0.6538 0.59544 0.0
C187 C 0.51193 0.67498 0.61203 0.0
C188 C 0.52503 0.69051 0.65341 0.0
C189 C 0.50416 0.71024 0.66931 0.0
C190 C 0.46992 0.71508 0.64416 0.0
C191 C 0.45721 0.69996 0.60264 0.0
C192 C 0.47801 0.68021 0.58672 0.0
C193 C 0.54306 0.53481 0.63424 0.0
C194 C 0.42987 0.50877 0.58756 0.0
C195 C 0.49768 0.42765 0.5285 0.0
C196 C 0.52936 0.41127 0.52926 0.0
C197 C 0.51614 0.37253 0.51516 0.0
C198 C 0.54661 0.35731 0.51556 0.0
C199 C 0.59086 0.38066 0.53005 0.0
C200 C 0.60372 0.41946 0.54443 0.0
C201 C 0.57332 0.43461 0.54387 0.0
C202 C 0.48344 0.54568 0.48385 0.0
C203 C 0.59378 0.57102 0.53167 0.0
O204 O 0.51619 0.63527 0.55875 0.0
O205 O 0.54953 0.63482 0.62099 0.0
O206 O 0.55151 0.5388 0.5986 0.0
O207 O 0.52323 0.55555 0.64226 0.0
O208 O 0.44643 0.48584 0.57529 0.0
O209 O 0.4487 0.54656 0.58588 0.0
O210 O 0.49694 0.44222 0.5641 0.0
O211 O 0.49553 0.4495 0.49885 0.0
O212 O 0.47482 0.54229 0.51951 0.0
O213 O 0.50035 0.52243 0.47594 0.0
O214 O 0.57485 0.59326 0.53973 0.0
O215 O 0.57767 0.53426 0.5385 0.0
H216 H 0.55122 0.68717 0.67361 0.0
H217 H 0.51439 0.72111 0.70147 0.0
H218 H 0.43143 0.70375 0.58225 0.0
H219 H 0.4674 0.66906 0.55454 0.0
H220 H 0.48233 0.35415 0.50356 0.0
H221 H 0.53557 0.32749 0.50372 0.0
H222 H 0.63733 0.43819 0.55632 0.0
H223 H 0.58417 0.46465 0.55476 0.0
Pr224 Pr 1.00109 0.57865 1.03258 0.0
Pr225 Pr 0.02965 0.53657 0.10397 0.0
C226 C 0.9606 0.60366 0.97028 0.0
C227 C 0.92099 0.60815 0.95408 0.0
C228 C 0.91946 0.62854 0.91939 0.0
C229 C 0.88105 0.63017 0.90067 0.0
C230 C 0.84341 0.6114 0.91637 0.0
C231 C 0.84527 0.5915 0.95174 0.0
C232 C 0.8838 0.58976 0.97039 0.0
C233 C 0.08755 0.61476 0.0716 0.0
C234 C 0.98574 0.59382 0.12751 0.0
C235 C 0.07458 0.51156 0.16202 0.0
C236 C 0.12037 0.51984 0.17426 0.0
C237 C 0.13659 0.51361 0.21399 0.0
C238 C 0.1804 0.52258 0.22637 0.0
C239 C 0.20878 0.53806 0.19919 0.0
C240 C 0.19236 0.54472 0.15948 0.0
C241 C 0.14853 0.53573 0.14714 0.0
C242 C 0.94355 0.49806 0.06396 0.0
C243 C 0.05349 0.52856 1.01098 0.0
O244 O 0.95678 0.56815 0.97091 0.0
O245 O 0.98718 0.62659 1.00246 0.0
O246 O 0.05602 0.59881 0.08858 0.0
O247 O 0.07507 0.61523 1.03228 0.0
O248 O 1.01277 0.57851 0.14162 0.0
O249 O 0.97108 0.59212 0.08721 0.0
O250 O 0.06501 0.54035 0.16934 0.0
O251 O 0.05451 0.49241 0.12593 0.0
O252 O 0.97505 0.51551 0.04719 0.0
O253 O 0.95623 0.49732 0.1032 0.0
O254 O 1.02545 0.54232 0.99542 0.0
O255 O 0.06483 0.52842 0.05142 0.0
H256 H 0.94788 0.64269 0.90631 0.0
H257 H 0.88088 0.64631 0.87397 0.0
H258 H 0.81676 0.5766 0.96443 0.0
H259 H 0.88439 0.57352 0.99696 0.0
H260 H 0.11532 0.50167 0.23539 0.0
H261 H 0.19182 0.51647 0.25692 0.0
H262 H 0.21342 0.55705 0.13801 0.0
H263 H 0.13666 0.54138 0.11651 0.0
H264 H 0.38097 0.37632 0.30218 0.0
H265 H 0.31379 0.26775 0.50109 0.0
H266 H 0.45366 0.42085 0.42494 0.0
H267 H 0.23255 0.23707 0.37957 0.0
H268 H 0.36852 0.32088 0.47412 0.0
H269 H 0.33042 0.32035 0.32975 0.0
C270 C 0.38644 0.37365 0.33501 0.0
C271 C 0.42115 0.4026 0.36164 0.0
C272 C 0.33867 0.3025 0.45343 0.0
C273 C 0.3635 0.33968 0.39364 0.0
C274 C 0.30725 0.27237 0.46885 0.0
C275 C 0.26847 0.24784 0.44255 0.0
C276 C 0.33129 0.30803 0.4114 0.0
C277 C 0.26216 0.25483 0.40089 0.0
C278 C 0.35757 0.34209 0.35083 0.0
C279 C 0.42712 0.39867 0.40392 0.0
N280 N 0.29323 0.28419 0.38665 0.0
N281 N 0.39835 0.36778 0.41883 0.0
H282 H 0.27455 0.86394 0.86886 0.0
H283 H 0.46453 0.05647 0.98668 0.0
H284 H 0.34459 0.96466 0.81089 0.0
H285 H 0.40182 0.95534 0.04802 0.0
H286 H 0.40843 0.02829 0.92509 0.0
H287 H 0.3076 0.90133 0.93658 0.0
C288 C 0.29592 0.89432 0.8705 0.0
C289 C 0.30747 0.9113 0.83461 0.0
C290 C 0.40635 1.0123 0.95205 0.0
C291 C 0.34556 0.95405 0.91139 0.0
C292 C 0.43843 0.0284 0.98724 0.0
C293 C 0.43802 1.00786 1.02212 0.0
C294 C 0.37393 0.97489 0.95124 0.0
C295 C 0.40326 0.97194 1.02157 0.0
C296 C 0.31489 0.91558 0.90902 0.0
C297 C 0.33488 0.95068 0.83794 0.0
N298 N 0.37294 0.95615 0.98625 0.0
N299 N 0.35359 0.97057 0.8757 0.0
H300 H 0.54687 0.39144 0.83526 0.0
H301 H 0.58618 0.49033 0.6244 0.0
H302 H 0.63245 0.37948 0.76287 0.0
H303 H 0.51562 0.51524 0.70639 0.0
H304 H 0.59664 0.4436 0.67027 0.0
H305 H 0.52683 0.4298 0.78331 0.0
C306 C 0.56059 0.39624 0.80785 0.0
C307 C 0.59117 0.38242 0.80303 0.0
C308 C 0.5788 0.45923 0.67821 0.0
C309 C 0.56939 0.42669 0.74404 0.0
C310 C 0.57286 0.4859 0.65203 0.0
C311 C 0.55019 0.50679 0.66171 0.0
C312 C 0.56185 0.45334 0.71434 0.0
C313 C 0.53356 0.49993 0.6979 0.0
C314 C 0.5496 0.4184 0.77845 0.0
C315 C 0.60871 0.38977 0.76743 0.0
N316 N 0.53975 0.47386 0.72289 0.0
N317 N 0.59782 0.41161 0.73941 0.0
H318 H 0.85868 0.70036 0.26006 0.0
H319 H 1.01792 0.60981 0.21077 0.0
H320 H 0.96132 0.69615 0.35085 0.0
H321 H 0.92582 0.62554 0.11534 0.0
H322 H 0.99888 0.6433 0.26134 0.0
H323 H 0.88489 0.67713 0.20593 0.0
C324 C 0.88769 0.69578 0.26832 0.0
C325 C 0.90836 0.70089 0.30991 0.0
C326 C 0.98282 0.63963 0.22938 0.0
C327 C 0.93774 0.67267 0.24831 0.0
C328 C 0.99355 0.62021 0.20024 0.0
C329 C 0.97337 0.6144 0.15832 0.0
C330 C 0.95127 0.65346 0.21709 0.0
C331 C 0.94225 0.62907 0.14713 0.0
C332 C 0.90236 0.68204 0.23751 0.0
C333 C 0.94506 0.69344 0.31912 0.0
N334 N 0.93204 0.64764 0.17626 0.0
N335 N 0.95824 0.67934 0.28878 0.0
H336 H 0.5098 0.40279 0.36815 0.0
H337 H 0.47204 0.24501 0.18595 0.0
H338 H 0.45071 0.40268 0.24229 0.0
H339 H 0.51361 0.2343 0.31421 0.0
H340 H 0.47052 0.30616 0.20551 0.0
H341 H 0.51788 0.34422 0.34867 0.0
C342 C 0.49936 0.39074 0.33628 0.0
C343 C 0.48066 0.40798 0.30655 0.0
C344 C 0.48004 0.29051 0.22943 0.0
C345 C 0.48902 0.34103 0.28402 0.0
C346 C 0.48113 0.25566 0.21825 0.0
C347 C 0.49302 0.23447 0.24848 0.0
C348 C 0.49105 0.30453 0.2712 0.0
C349 C 0.50382 0.24946 0.28992 0.0
C350 C 0.50371 0.35733 0.32518 0.0
C351 C 0.46678 0.39109 0.26577 0.0
N352 N 0.50264 0.28359 0.30006 0.0
N353 N 0.47119 0.35855 0.25572 0.0
H354 H 0.20959 0.88681 0.7767 0.0
H355 H 0.20049 0.05331 0.63452 0.0
H356 H 0.31234 0.95686 0.71759 0.0
H357 H 0.08817 0.96557 0.66878 0.0
H358 H 0.24517 0.02561 0.67501 0.0
H359 H 0.16823 0.92318 0.74833 0.0
C360 C 0.2236 0.91042 0.75838 0.0
C361 C 0.26397 0.91889 0.74903 0.0
C362 C 0.21078 1.01255 0.67387 0.0
C363 C 0.21733 0.96023 0.71632 0.0
C364 C 0.1852 0.02838 0.65078 0.0
C365 C 0.14039 1.01156 0.64791 0.0
C366 C 0.19154 0.97974 0.69453 0.0
C367 C 0.12251 0.97932 0.66982 0.0
C368 C 0.20003 0.93091 0.74194 0.0
C369 C 0.28103 0.94946 0.72503 0.0
N370 N 0.1481 0.96439 0.69208 0.0
N371 N 0.25754 0.96891 0.70926 0.0
H372 H 0.66886 0.3748 0.96984 0.0
H373 H 0.91985 0.48217 0.98102 0.0
H374 H 0.73051 0.36483 0.8716 0.0
H375 H 0.86892 0.45824 0.09223 0.0
H376 H 0.84899 0.44088 0.94078 0.0
H377 H 0.73994 0.4046 1.01669 0.0
C378 C 0.6974 0.37797 0.95864 0.0
C379 C 0.69442 0.36778 0.91708 0.0
C380 C 0.8532 0.44434 0.974 0.0
C381 C 0.77505 0.40241 0.9694 0.0
C382 C 0.89363 0.46817 0.997 0.0
C383 C 0.90018 0.47356 1.04001 0.0
C384 C 0.81868 0.4261 0.99398 0.0
C385 C 0.86507 0.4547 0.05907 0.0
C386 C 0.7378 0.39513 0.98511 0.0
C387 C 0.73195 0.37267 0.9035 0.0
N388 N 0.82555 0.43193 1.03585 0.0
N389 N 0.77081 0.39019 0.92941 0.0
H390 H 0.77575 0.70752 0.38567 0.0
H391 H 0.64556 0.5366 0.51459 0.0
H392 H 0.81518 0.61721 0.42014 0.0
H393 H 0.62682 0.64112 0.50042 0.0
H394 H 0.70375 0.56191 0.47584 0.0
H395 H 0.71578 0.67917 0.42172 0.0
C396 C 0.77117 0.68129 0.40043 0.0
C397 C 0.79999 0.66443 0.39984 0.0
C398 C 0.68698 0.57932 0.48141 0.0
C399 C 0.73198 0.63196 0.44172 0.0
C400 C 0.65382 0.56495 0.50364 0.0
C401 C 0.6313 0.58682 0.51106 0.0
C402 C 0.69742 0.61563 0.46606 0.0
C403 C 0.64335 0.62327 0.49582 0.0
C404 C 0.73724 0.66524 0.42124 0.0
C405 C 0.79317 0.63066 0.41962 0.0
N406 N 0.67534 0.63637 0.47398 0.0
N407 N 0.75988 0.61551 0.43989 0.0
H408 H 0.41285 0.47278 0.23326 0.0
H409 H 0.26371 0.56855 0.27403 0.0
H410 H 0.44925 0.55549 0.33809 0.0
H411 H 0.25836 0.52255 0.15255 0.0
H412 H 0.33467 0.56879 0.29672 0.0
H413 H 0.36205 0.49723 0.19992 0.0
C414 C 0.41151 0.49731 0.24855 0.0
C415 C 0.43524 0.51212 0.28859 0.0
C416 C 0.31836 0.55945 0.26487 0.0
C417 C 0.37501 0.53874 0.25163 0.0
C418 C 0.27767 0.55894 0.252 0.0
C419 C 0.25463 0.54474 0.21155 0.0
C420 C 0.33619 0.54573 0.23708 0.0
C421 C 0.27482 0.53368 0.18403 0.0
C422 C 0.38193 0.51094 0.22973 0.0
C423 C 0.43108 0.54308 0.30745 0.0
N424 N 0.31413 0.53383 0.19747 0.0
N425 N 0.40056 0.55472 0.28933 0.0
H426 H 0.66104 0.28624 0.90633 0.0
H427 H 0.49918 0.15539 1.04426 0.0
H428 H 0.55383 0.30545 0.93163 0.0
H429 H 0.62331 0.15475 0.04739 0.0
H430 H 0.51643 0.20672 0.99826 0.0
H431 H 0.64625 0.23518 0.9537 0.0
C432 C 0.63448 0.27974 0.92202 0.0
C433 C 0.60844 0.29989 0.91495 0.0
C434 C 0.54004 0.19553 1.009 0.0
C435 C 0.59088 0.24125 0.96858 0.0
C436 C 0.53017 0.16608 1.03525 0.0
C437 C 0.55995 0.15085 0.04988 0.0
C438 C 0.5799 0.20982 0.9967 0.0
C439 C 0.59952 0.16581 1.03697 0.0
C440 C 0.62597 0.25057 0.9489 0.0
C441 C 0.57414 0.29011 0.93564 0.0
N442 N 0.60833 0.19442 1.01098 0.0
N443 N 0.56626 0.26144 0.96133 0.0
H444 H 0.88574 0.79186 0.34232 0.0
H445 H 0.08395 0.94071 0.5117 0.0
H446 H 0.98117 0.76125 0.41375 0.0
H447 H 0.96844 0.95615 0.46623 0.0
H448 H 0.05413 0.88018 0.46702 0.0
H449 H 0.92492 0.85824 0.37529 0.0
C450 C 0.9164 0.79979 0.36322 0.0
C451 C 0.93059 0.77114 0.37477 0.0
C452 C 0.03529 0.89679 0.4667 0.0
C453 C 0.97478 0.8467 0.41428 0.0
C454 C 0.05222 0.93134 0.49233 0.0
C455 C 1.0286 0.95356 0.49295 0.0
C456 C 0.9945 0.88431 0.44083 0.0
C457 C 0.98768 0.93989 0.46704 0.0
C458 C 0.93814 0.83741 0.38291 0.0
C459 C 0.96964 0.78261 0.40332 0.0
N460 N 0.97203 0.90629 0.44199 0.0
N461 N 0.99002 0.81926 0.42254 0.0
H462 H 0.27816 0.78416 0.70773 0.0
H463 H 0.50533 0.78147 0.6968 0.0
H464 H 0.40047 0.87707 0.76078 0.0
H465 H 0.38325 0.69578 0.63007 0.0
H466 H 0.46748 0.81521 0.72358 0.0
H467 H 0.31591 0.74986 0.68086 0.0
C468 C 0.31303 0.79722 0.71342 0.0
C469 C 0.33649 0.8332 0.73624 0.0
C470 C 0.44898 0.78908 0.703 0.0
C471 C 0.37991 0.79452 0.70635 0.0
C472 C 0.47055 0.76964 0.68793 0.0
C473 C 0.44744 0.73577 0.66106 0.0
C474 C 0.40392 0.77451 0.69122 0.0
C475 C 0.40243 0.72207 0.65024 0.0
C476 C 0.33458 0.77779 0.69829 0.0
C477 C 0.38156 0.84922 0.74328 0.0
N478 N 0.38217 0.74145 0.66537 0.0
N479 N 0.40189 0.82973 0.7285 0.0
H480 H 0.70202 0.73994 0.80405 0.0
H481 H 0.80887 0.82773 0.61446 0.0
H482 H 0.63443 0.70833 0.67782 0.0
H483 H 0.87925 0.8512 0.74037 0.0
H484 H 0.74804 0.77638 0.63562 0.0
H485 H 0.76997 0.7732 0.78062 0.0
C486 C 0.70193 0.7393 0.77135 0.0
C487 C 0.66311 0.72143 0.74266 0.0
C488 C 0.77701 0.79235 0.65855 0.0
C489 C 0.73998 0.76022 0.71543 0.0
C490 C 0.81199 0.82156 0.64642 0.0
C491 C 0.84912 0.84429 0.67578 0.0
C492 C 0.77898 0.78596 0.70041 0.0
C493 C 0.85093 0.83507 0.71683 0.0
C494 C 0.7405 0.75841 0.7579 0.0
C495 C 0.66404 0.72181 0.70062 0.0
N496 N 0.81615 0.80701 0.728 0.0
N497 N 0.70185 0.7414 0.68817 0.0
H498 H 0.82712 0.2803 0.3592 0.0
H499 H 0.69492 0.08538 0.21118 0.0
H500 H 0.78132 0.16883 0.40661 0.0
H501 H 0.66444 0.18402 0.20345 0.0
H502 H 0.7537 0.12015 0.27055 0.0
H503 H 0.79558 0.24833 0.28881 0.0
C504 C 0.81186 0.24904 0.35457 0.0
C505 C 0.80598 0.22708 0.38846 0.0
C506 C 0.73477 0.13438 0.25499 0.0
C507 C 0.77106 0.19063 0.30886 0.0
C508 C 0.70147 0.11474 0.22127 0.0
C509 C 0.67488 0.13196 0.2029 0.0
C510 C 0.74206 0.17174 0.26926 0.0
C511 C 0.68416 0.1698 0.21716 0.0
C512 C 0.7939 0.23094 0.31465 0.0
C513 C 0.78649 0.18668 0.38119 0.0
N514 N 0.71704 0.18849 0.24964 0.0
N515 N 0.76904 0.16964 0.34205 0.0
H516 H 0.50675 0.69213 0.28376 0.0
H517 H 0.44734 0.59701 0.49176 0.0
H518 H 0.43386 0.72375 0.35691 0.0
H519 H 0.51951 0.56617 0.41628 0.0
H520 H 0.44904 0.64901 0.44782 0.0
H521 H 0.52182 0.65371 0.33815 0.0
C522 C 0.4958 0.6925 0.31229 0.0
C523 C 0.46951 0.71148 0.3161 0.0
C524 C 0.46473 0.63101 0.44102 0.0
C525 C 0.48467 0.66608 0.37788 0.0
C526 C 0.46361 0.60123 0.46604 0.0
C527 C 0.48306 0.57701 0.45758 0.0
C528 C 0.48554 0.63672 0.4073 0.0
C529 C 0.50378 0.58389 0.42385 0.0
C530 C 0.50356 0.66991 0.34303 0.0
C531 C 0.45489 0.71006 0.35318 0.0
N532 N 0.50441 0.61294 0.40005 0.0
N533 N 0.46191 0.68715 0.38226 0.0
H534 H 0.13213 0.47109 0.793 0.0
H535 H 0.10254 0.4867 1.02729 0.0
H536 H 0.16268 0.4019 0.88394 0.0
H537 H 0.04731 0.53429 0.92766 0.0
H538 H 0.1303 0.45967 0.97768 0.0
H539 H 0.10653 0.49875 0.8439 0.0
C540 C 0.13356 0.46187 0.82383 0.0
C541 C 0.14956 0.43419 0.83424 0.0
C542 C 0.11212 0.47606 0.96674 0.0
C543 C 0.12027 0.46577 0.8931 0.0
C544 C 0.09635 0.49166 0.99512 0.0
C545 C 0.0723 0.51285 0.98187 0.0
C546 C 0.10433 0.48198 0.9247 0.0
C547 C 0.06542 0.51812 0.93958 0.0
C548 C 0.1188 0.47752 0.8529 0.0
C549 C 0.15035 0.423 0.87461 0.0
N550 N 0.08134 0.50298 0.91278 0.0
N551 N 0.13611 0.43888 0.90256 0.0
H552 H 0.51704 0.74903 0.76602 0.0
H553 H 0.60105 0.86693 0.98883 0.0
H554 H 0.60982 0.73707 0.86341 0.0
H555 H 0.55256 0.91118 0.88161 0.0
H556 H 0.58753 0.80909 0.94612 0.0
H557 H 0.51391 0.79931 0.81093 0.0
C558 C 0.53593 0.7564 0.79707 0.0
C559 C 0.56339 0.73874 0.81126 0.0
C560 C 0.57955 0.83132 0.93195 0.0
C561 C 0.55986 0.7954 0.86253 0.0
C562 C 0.58706 0.86427 0.95635 0.0
C563 C 0.57818 0.89402 0.93868 0.0
C564 C 0.56293 0.82791 0.88951 0.0
C565 C 0.56047 0.88913 0.89628 0.0
C566 C 0.53427 0.78503 0.82257 0.0
C567 C 0.58745 0.74931 0.8517 0.0
N568 N 0.55354 0.85669 0.873 0.0
N569 N 0.58517 0.77692 0.87584 0.0
H570 H 0.90046 0.25171 0.43536 0.0
H571 H 0.91516 0.05802 0.50876 0.0
H572 H 0.81263 0.17204 0.5029 0.0
H573 H 1.02721 0.15665 0.48896 0.0
H574 H 0.87244 0.09497 0.49351 0.0
H575 H 0.94307 0.21327 0.44303 0.0
C576 C 0.89036 0.22609 0.45184 0.0
C577 C 0.85354 0.2151 0.46903 0.0
C578 C 0.90629 0.10845 0.49219 0.0
C579 C 0.90112 0.17081 0.47722 0.0
C580 C 0.93078 0.08729 0.50061 0.0
C581 C 0.97508 0.10426 0.5004 0.0
C582 C 0.92592 0.14689 0.483 0.0
C583 C 0.99323 0.14237 0.48953 0.0
C584 C 0.91454 0.20428 0.45624 0.0
C585 C 0.84129 0.18167 0.48988 0.0
N586 N 0.9686 0.16247 0.48138 0.0
N587 N 0.8649 0.16059 0.49324 0.0
H588 H 0.31099 0.65523 0.25915 0.0
H589 H 0.16084 0.63907 1.03942 0.0
H590 H 0.36144 0.70934 0.15526 0.0
H591 H 0.11525 0.61495 0.15334 0.0
H592 H 0.23436 0.65521 0.07771 0.0
H593 H 0.23807 0.62826 0.21636 0.0
C594 C 0.30645 0.66079 0.22704 0.0
C595 C 0.34151 0.68458 0.21044 0.0
C596 C 0.20813 0.64629 0.09417 0.0
C597 C 0.25909 0.65474 0.16167 0.0
C598 C 0.16638 0.6373 0.07243 0.0
C599 C 0.13218 0.62588 0.09337 0.0
C600 C 0.21533 0.64358 0.13694 0.0
C601 C 0.14078 0.62365 0.13604 0.0
C602 C 0.26509 0.64575 0.20274 0.0
C603 C 0.33468 0.69122 0.16882 0.0
N604 N 0.18149 0.63244 0.15641 0.0
N605 N 0.29407 0.67663 0.14579 0.0
H606 H 0.2535 0.38078 0.74379 0.0
H607 H 0.37723 0.5424 0.60388 0.0
H608 H 0.2094 0.46592 0.69879 0.0
H609 H 0.39463 0.43719 0.61625 0.0
H610 H 0.31766 0.51633 0.64069 0.0
H611 H 0.30666 0.40153 0.69909 0.0
C612 C 0.25463 0.40348 0.72408 0.0
C613 C 0.22712 0.42178 0.72522 0.0
C614 C 0.33425 0.49879 0.63504 0.0
C615 C 0.28869 0.44649 0.67468 0.0
C616 C 0.36837 0.5137 0.614 0.0
C617 C 0.39112 0.49201 0.60673 0.0
C618 C 0.32303 0.4621 0.64969 0.0
C619 C 0.378 0.45495 0.62081 0.0
C620 C 0.28517 0.41553 0.69875 0.0
C621 C 0.23051 0.45152 0.69945 0.0
N622 N 0.34523 0.44139 0.6419 0.0
N623 N 0.26093 0.4632 0.67564 0.0
H624 H 0.63933 0.63561 0.74135 0.0
H625 H 0.78499 0.62358 0.95313 0.0
H626 H 0.64055 0.68189 0.8609 0.0
H627 H 0.80921 0.60369 0.83362 0.0
H628 H 0.72141 0.63202 0.91933 0.0
H629 H 0.69223 0.61177 0.77422 0.0
C630 C 0.64991 0.63977 0.77455 0.0
C631 C 0.63479 0.65975 0.79861 0.0
C632 C 0.74047 0.62556 0.90046 0.0
C633 C 0.69506 0.63323 0.83623 0.0
C634 C 0.77663 0.6205 0.91977 0.0
C635 C 0.80273 0.61336 0.89618 0.0
C636 C 0.73018 0.62339 0.85721 0.0
C637 C 0.79044 0.60993 0.85298 0.0
C638 C 0.6801 0.62642 0.79325 0.0
C639 C 0.64999 0.66526 0.84142 0.0
N640 N 0.75517 0.61521 0.83485 0.0
N641 N 0.67928 0.65218 0.8588 0.0
H642 H 0.50031 0.76693 0.22406 0.0
H643 H 0.53077 0.9869 0.22017 0.0
H644 H 0.46257 0.82102 0.31429 0.0
H645 H 0.52402 0.91505 0.11545 0.0
H646 H 0.52273 0.93282 0.26304 0.0
H647 H 0.53116 0.82877 0.19471 0.0
C648 C 0.50081 0.79244 0.23921 0.0
C649 C 0.47863 0.7888 0.27147 0.0
C650 C 0.52325 0.92906 0.23073 0.0
C651 C 0.51218 0.85948 0.23705 0.0
C652 C 0.5276 0.9598 0.20622 0.0
C653 C 0.5276 0.9554 0.16404 0.0
C654 C 0.51974 0.89391 0.21311 0.0
C655 C 0.52371 0.91972 0.14767 0.0
C656 C 0.51735 0.82755 0.22176 0.0
C657 C 0.47946 0.82269 0.28944 0.0
N658 N 0.52007 0.89053 0.17217 0.0
N659 N 0.49486 0.85644 0.27139 0.0
H660 H 0.12983 0.35527 0.68115 0.0
H661 H 0.1432 0.15097 0.66677 0.0
H662 H 0.19052 0.31711 0.78518 0.0
H663 H 0.03397 0.16823 0.60283 0.0
H664 H 0.17339 0.21704 0.70139 0.0
H665 H 0.10694 0.29199 0.6425 0.0
C666 C 0.13885 0.33365 0.69546 0.0
C667 C 0.16208 0.34116 0.73616 0.0
C668 C 0.14296 0.20634 0.67955 0.0
C669 C 0.13651 0.2691 0.69242 0.0
C670 C 0.12586 0.16879 0.65968 0.0
C671 C 0.08588 0.15403 0.63211 0.0
C672 C 0.12049 0.22961 0.67089 0.0
C673 C 0.0647 0.17835 0.62414 0.0
C674 C 0.12566 0.29759 0.67364 0.0
C675 C 0.17271 0.31221 0.75375 0.0
N676 N 0.0823 0.21489 0.6432 0.0
N677 N 0.16002 0.27749 0.73177 0.0
H678 H 0.8095 0.34703 0.48135 0.0
H679 H 0.58628 0.30869 0.54759 0.0
H680 H 0.72719 0.2377 0.51723 0.0
H681 H 0.67044 0.41715 0.51019 0.0
H682 H 0.63997 0.28358 0.5433 0.0
H683 H 0.76295 0.3754 0.50051 0.0
C684 C 0.78214 0.32943 0.49447 0.0
C685 C 0.77216 0.2903 0.49823 0.0
C686 C 0.64678 0.31297 0.53636 0.0
C687 C 0.71777 0.32177 0.51883 0.0
C688 C 0.61598 0.32725 0.53848 0.0
C689 C 0.62365 0.36513 0.52911 0.0
C690 C 0.68555 0.33664 0.52465 0.0
C691 C 0.66315 0.38798 0.51818 0.0
C692 C 0.7553 0.34537 0.50499 0.0
C693 C 0.736 0.26817 0.51451 0.0
N694 N 0.69238 0.37334 0.51607 0.0
N695 N 0.70972 0.28408 0.52378 0.0
loop_
_geom_bond_atom_site_label_1
_geom_bond_atom_site_label_2
_geom_bond_distance
_geom_bond_site_symmetry_2
_ccdc_geom_bond_type
C0 N1 1.317 . S
C0 N2 1.348 . S
C0 C3 1.485 . S
N1 C0 1.317 . S
N1 N5 1.370 . S
N2 C0 1.348 . S
N2 C4 1.346 . S
C3 C0 1.485 . S
C3 H7 0.960 . S
C3 H8 0.961 . S
C3 H9 0.960 . S
C4 N2 1.346 . S
C4 N5 1.307 . S
C4 C6 1.486 . S
N5 N1 1.370 . S
N5 C4 1.307 . S
C6 C4 1.486 . S
C6 H10 0.960 . S
C6 H11 0.960 . S
C6 H12 0.959 . S
H7 C3 0.960 . S
H8 C3 0.961 . S
H9 C3 0.960 . S
H10 C6 0.960 . S
H11 C6 0.960 . S
H12 C6 0.959 . S
C13 N14 1.317 . S
C13 N15 1.348 . S
C13 C16 1.485 . S
N14 C13 1.317 . S
N14 N18 1.370 . S
N15 C13 1.348 . S
N15 C17 1.346 . S
C16 C13 1.485 . S
C16 H20 0.960 . S
C16 H21 0.961 . S
C16 H22 0.960 . S
C17 N15 1.346 . S
C17 N18 1.307 . S
C17 C19 1.486 . S
N18 N14 1.370 . S
N18 C17 1.307 . S
C19 C17 1.486 . S
C19 H23 0.960 . S
C19 H24 0.960 . S
C19 H25 0.959 . S
H20 C16 0.960 . S
H21 C16 0.961 . S
H22 C16 0.960 . S
H23 C19 0.960 . S
H24 C19 0.960 . S
H25 C19 0.959 . S
C26 N27 1.317 . S
C26 N28 1.348 . S
C26 C29 1.485 . S
N27 C26 1.317 . S
N27 N31 1.370 . S
N28 C26 1.348 . S
N28 C30 1.346 . S
C29 C26 1.485 . S
C29 H33 0.960 . S
C29 H34 0.961 . S
C29 H35 0.960 . S
C30 N28 1.346 . S
C30 N31 1.307 . S
C30 C32 1.486 . S
N31 N27 1.370 . S
N31 C30 1.307 . S
C32 C30 1.486 . S
C32 H36 0.960 . S
C32 H37 0.960 . S
C32 H38 0.959 . S
H33 C29 0.960 . S
H34 C29 0.961 . S
H35 C29 0.960 . S
H36 C32 0.960 . S
H37 C32 0.960 . S
H38 C32 0.959 . S
C39 N40 1.317 . S
C39 N41 1.348 . S
C39 C42 1.485 . S
N40 C39 1.317 . S
N40 N44 1.370 . S
N41 C39 1.348 . S
N41 C43 1.346 . S
C42 C39 1.485 . S
C42 H46 0.960 . S
C42 H47 0.961 . S
C42 H48 0.960 . S
C43 N41 1.346 . S
C43 N44 1.307 . S
C43 C45 1.486 . S
N44 N40 1.370 . S
N44 C43 1.307 . S
C45 C43 1.486 . S
C45 H49 0.960 . S
C45 H50 0.960 . S
C45 H51 0.959 . S
H46 C42 0.960 . S
H47 C42 0.961 . S
H48 C42 0.960 . S
H49 C45 0.960 . S
H50 C45 0.960 . S
H51 C45 0.959 . S
C52 N53 1.317 . S
C52 N54 1.348 . S
C52 C55 1.485 . S
N53 C52 1.317 . S
N53 N57 1.370 . S
N54 C52 1.348 . S
N54 C56 1.346 . S
C55 C52 1.485 . S
C55 H59 0.960 . S
C55 H60 0.961 . S
C55 H61 0.960 . S
C56 N54 1.346 . S
C56 N57 1.307 . S
C56 C58 1.486 . S
N57 N53 1.370 . S
N57 C56 1.307 . S
C58 C56 1.486 . S
C58 H62 0.960 . S
C58 H63 0.960 . S
C58 H64 0.959 . S
H59 C55 0.960 . S
H60 C55 0.961 . S
H61 C55 0.960 . S
H62 C58 0.960 . S
H63 C58 0.960 . S
H64 C58 0.959 . S
C65 N66 1.317 . S
C65 N67 1.348 . S
C65 C68 1.485 . S
N66 C65 1.317 . S
N66 N70 1.370 . S
N67 C65 1.348 . S
N67 C69 1.346 . S
C68 C65 1.485 . S
C68 H72 0.960 . S
C68 H73 0.961 . S
C68 H74 0.960 . S
C69 N67 1.346 . S
C69 N70 1.307 . S
C69 C71 1.486 . S
N70 N66 1.370 . S
N70 C69 1.307 . S
C71 C69 1.486 . S
C71 H75 0.960 . S
C71 H76 0.960 . S
C71 H77 0.959 . S
H72 C68 0.960 . S
H73 C68 0.961 . S
H74 C68 0.960 . S
H75 C71 0.960 . S
H76 C71 0.960 . S
H77 C71 0.959 . S
C78 N79 1.317 . S
C78 N80 1.348 . S
C78 C81 1.485 . S
N79 C78 1.317 . S
N79 N83 1.370 . S
N80 C78 1.348 . S
N80 C82 1.346 . S
C81 C78 1.485 . S
C81 H85 0.960 . S
C81 H86 0.961 . S
C81 H87 0.960 . S
C82 N80 1.346 . S
C82 N83 1.307 . S
C82 C84 1.486 . S
N83 N79 1.370 . S
N83 C82 1.307 . S
C84 C82 1.486 . S
C84 H88 0.960 . S
C84 H89 0.960 . S
C84 H90 0.959 . S
H85 C81 0.960 . S
H86 C81 0.961 . S
H87 C81 0.960 . S
H88 C84 0.960 . S
H89 C84 0.960 . S
H90 C84 0.959 . S
C91 N92 1.317 . S
C91 N93 1.348 . S
C91 C94 1.485 . S
N92 C91 1.317 . S
N92 N96 1.370 . S
N93 C91 1.348 . S
N93 C95 1.346 . S
C94 C91 1.485 . S
C94 H98 0.960 . S
C94 H99 0.961 . S
C94 H100 0.960 . S
C95 N93 1.346 . S
C95 N96 1.307 . S
C95 C97 1.486 . S
N96 N92 1.370 . S
N96 C95 1.307 . S
C97 C95 1.486 . S
C97 H101 0.960 . S
C97 H102 0.960 . S
C97 H103 0.959 . S
H98 C94 0.960 . S
H99 C94 0.961 . S
H100 C94 0.960 . S
H101 C97 0.960 . S
H102 C97 0.960 . S
H103 C97 0.959 . S
Pr104 C106 2.880 1_545 S
Pr104 O124 2.562 1_545 S
Pr104 O125 2.490 1_545 S
Pr104 O126 2.695 1_655 S
Pr104 O127 2.512 1_655 S
Pr104 O129 2.437 1_645 S
Pr104 O132 2.436 1_645 S
Pr104 O134 2.438 . S
Pr105 C115 2.880 . S
Pr105 O126 2.436 . S
Pr105 O128 2.438 . S
Pr105 O130 2.562 . S
Pr105 O131 2.490 . S
Pr105 O132 2.695 1_545 S
Pr105 O133 2.512 1_545 S
Pr105 O135 2.437 . S
C106 Pr104 2.880 1_565 S
C106 C107 1.491 . S
C106 O124 1.254 . S
C106 O125 1.225 . S
C107 C106 1.491 . S
C107 C108 1.392 . S
C107 C112 1.356 . S
C108 C107 1.392 . S
C108 C109 1.368 . S
C108 H136 0.929 . S
C109 C108 1.368 . S
C109 C110 1.386 . S
C109 H137 0.929 . S
C110 C109 1.386 . S
C110 C111 1.373 . S
C111 C110 1.373 . S
C111 C112 1.409 . S
C111 H138 0.931 . S
C112 C107 1.356 . S
C112 C111 1.409 . S
C112 H139 0.930 . S
C113 O126 1.270 . S
C113 O127 1.248 . S
C114 O128 1.267 1_565 S
C114 O129 1.278 . S
C115 Pr105 2.880 . S
C115 C116 1.491 . S
C115 O130 1.254 . S
C115 O131 1.225 . S
C116 C115 1.491 . S
C116 C117 1.392 . S
C116 C121 1.356 . S
C117 C116 1.392 . S
C117 C118 1.368 . S
C117 H140 0.929 . S
C118 C117 1.368 . S
C118 C119 1.386 . S
C118 H141 0.929 . S
C119 C118 1.386 . S
C119 C120 1.373 . S
C120 C119 1.373 . S
C120 C121 1.409 . S
C120 H142 0.931 . S
C121 C116 1.356 . S
C121 C120 1.409 . S
C121 H143 0.930 . S
C122 O132 1.270 . S
C122 O133 1.248 . S
C123 O134 1.267 1_455 S
C123 O135 1.278 . S
O124 Pr104 2.562 1_565 S
O124 C106 1.254 . S
O125 Pr104 2.490 1_565 S
O125 C106 1.225 . S
O126 Pr104 2.695 1_455 S
O126 Pr105 2.436 . S
O126 C113 1.270 . S
O127 Pr104 2.512 1_455 S
O127 C113 1.248 . S
O128 Pr105 2.438 . S
O128 C114 1.267 1_545 S
O129 Pr104 2.437 1_465 S
O129 C114 1.278 . S
O130 Pr105 2.562 . S
O130 C115 1.254 . S
O131 Pr105 2.490 . S
O131 C115 1.225 . S
O132 Pr104 2.436 1_465 S
O132 Pr105 2.695 1_565 S
O132 C122 1.270 . S
O133 Pr105 2.512 1_565 S
O133 C122 1.248 . S
O134 Pr104 2.438 . S
O134 C123 1.267 1_655 S
O135 Pr105 2.437 . S
O135 C123 1.278 . S
H136 C108 0.929 . S
H137 C109 0.929 . S
H138 C111 0.931 . S
H139 C112 0.930 . S
H140 C117 0.929 . S
H141 C118 0.929 . S
H142 C120 0.931 . S
H143 C121 0.930 . S
Pr144 C146 2.880 . S
Pr144 O164 2.562 . S
Pr144 O165 2.490 . S
Pr144 O166 2.695 . S
Pr144 O167 2.512 . S
Pr144 O169 2.437 . S
Pr144 O172 2.436 . S
Pr144 O174 2.438 . S
Pr145 C155 2.880 1_545 S
Pr145 O166 2.436 . S
Pr145 O168 2.438 . S
Pr145 O170 2.562 1_545 S
Pr145 O171 2.490 1_545 S
Pr145 O172 2.695 . S
Pr145 O173 2.512 1_545 S
Pr145 O175 2.437 1_545 S
C146 Pr144 2.880 . S
C146 C147 1.491 . S
C146 O164 1.254 . S
C146 O165 1.225 . S
C147 C146 1.491 . S
C147 C148 1.392 . S
C147 C152 1.356 . S
C148 C147 1.392 . S
C148 C149 1.368 . S
C148 H176 0.929 . S
C149 C148 1.368 . S
C149 C150 1.386 . S
C149 H177 0.929 . S
C150 C149 1.386 . S
C150 C151 1.373 . S
C151 C150 1.373 . S
C151 C152 1.409 . S
C151 H178 0.931 . S
C152 C147 1.356 . S
C152 C151 1.409 . S
C152 H179 0.930 . S
C153 O166 1.270 . S
C153 O167 1.248 . S
C154 O168 1.267 . S
C154 O169 1.278 . S
C155 Pr145 2.880 1_565 S
C155 C156 1.491 1_554 S
C155 O170 1.254 . S
C155 O171 1.225 . S
C156 C155 1.491 1_556 S
C156 C157 1.392 1_556 S
C156 C161 1.356 . S
C157 C156 1.392 1_554 S
C157 C158 1.368 1_554 S
C157 H180 0.929 . S
C158 C157 1.368 1_556 S
C158 C159 1.386 . S
C158 H181 0.929 . S
C159 C158 1.386 . S
C159 C160 1.373 . S
C160 C159 1.373 . S
C160 C161 1.409 . S
C160 H182 0.931 . S
C161 C156 1.356 . S
C161 C160 1.409 . S
C161 H183 0.930 . S
C162 O172 1.270 1_565 S
C162 O173 1.248 . S
C163 O174 1.267 1_565 S
C163 O175 1.278 . S
O164 Pr144 2.562 . S
O164 C146 1.254 . S
O165 Pr144 2.490 . S
O165 C146 1.225 . S
O166 Pr144 2.695 . S
O166 Pr145 2.436 . S
O166 C153 1.270 . S
O167 Pr144 2.512 . S
O167 C153 1.248 . S
O168 Pr145 2.438 . S
O168 C154 1.267 . S
O169 Pr144 2.437 . S
O169 C154 1.278 . S
O170 Pr145 2.562 1_565 S
O170 C155 1.254 . S
O171 Pr145 2.490 1_565 S
O171 C155 1.225 . S
O172 Pr144 2.436 . S
O172 Pr145 2.695 . S
O172 C162 1.270 1_545 S
O173 Pr145 2.512 1_565 S
O173 C162 1.248 . S
O174 Pr144 2.438 . S
O174 C163 1.267 1_545 S
O175 Pr145 2.437 1_565 S
O175 C163 1.278 . S
H176 C148 0.929 . S
H177 C149 0.929 . S
H178 C151 0.931 . S
H179 C152 0.930 . S
H180 C157 0.929 . S
H181 C158 0.929 . S
H182 C160 0.931 . S
H183 C161 0.930 . S
Pr184 C186 2.880 . S
Pr184 O204 2.562 . S
Pr184 O205 2.490 . S
Pr184 O206 2.695 . S
Pr184 O207 2.512 . S
Pr184 O209 2.437 . S
Pr184 O212 2.436 . S
Pr184 O214 2.438 . S
Pr185 C195 2.880 . S
Pr185 O206 2.436 . S
Pr185 O208 2.438 . S
Pr185 O210 2.562 . S
Pr185 O211 2.490 . S
Pr185 O212 2.695 . S
Pr185 O213 2.512 . S
Pr185 O215 2.437 . S
C186 Pr184 2.880 . S
C186 C187 1.491 . S
C186 O204 1.254 . S
C186 O205 1.225 . S
C187 C186 1.491 . S
C187 C188 1.392 . S
C187 C192 1.356 . S
C188 C187 1.392 . S
C188 C189 1.368 . S
C188 H216 0.929 . S
C189 C188 1.368 . S
C189 C190 1.386 . S
C189 H217 0.929 . S
C190 C189 1.386 . S
C190 C191 1.373 . S
C191 C190 1.373 . S
C191 C192 1.409 . S
C191 H218 0.931 . S
C192 C187 1.356 . S
C192 C191 1.409 . S
C192 H219 0.930 . S
C193 O206 1.270 . S
C193 O207 1.248 . S
C194 O208 1.267 . S
C194 O209 1.278 . S
C195 Pr185 2.880 . S
C195 C196 1.491 . S
C195 O210 1.254 . S
C195 O211 1.225 . S
C196 C195 1.491 . S
C196 C197 1.392 . S
C196 C201 1.356 . S
C197 C196 1.392 . S
C197 C198 1.368 . S
C197 H220 0.929 . S
C198 C197 1.368 . S
C198 C199 1.386 . S
C198 H221 0.929 . S
C199 C198 1.386 . S
C199 C200 1.373 . S
C200 C199 1.373 . S
C200 C201 1.409 . S
C200 H222 0.931 . S
C201 C196 1.356 . S
C201 C200 1.409 . S
C201 H223 0.930 . S
C202 O212 1.270 . S
C202 O213 1.248 . S
C203 O214 1.267 . S
C203 O215 1.278 . S
O204 Pr184 2.562 . S
O204 C186 1.254 . S
O205 Pr184 2.490 . S
O205 C186 1.225 . S
O206 Pr184 2.695 . S
O206 Pr185 2.436 . S
O206 C193 1.270 . S
O207 Pr184 2.512 . S
O207 C193 1.248 . S
O208 Pr185 2.438 . S
O208 C194 1.267 . S
O209 Pr184 2.437 . S
O209 C194 1.278 . S
O210 Pr185 2.562 . S
O210 C195 1.254 . S
O211 Pr185 2.490 . S
O211 C195 1.225 . S
O212 Pr184 2.436 . S
O212 Pr185 2.695 . S
O212 C202 1.270 . S
O213 Pr185 2.512 . S
O213 C202 1.248 . S
O214 Pr184 2.438 . S
O214 C203 1.267 . S
O215 Pr185 2.437 . S
O215 C203 1.278 . S
H216 C188 0.929 . S
H217 C189 0.929 . S
H218 C191 0.931 . S
H219 C192 0.930 . S
H220 C197 0.929 . S
H221 C198 0.929 . S
H222 C200 0.931 . S
H223 C201 0.930 . S
Pr224 C226 2.880 1_455 S
Pr224 O244 2.562 1_455 S
Pr224 O245 2.490 1_455 S
Pr224 O246 2.695 1_556 S
Pr224 O247 2.512 1_556 S
Pr224 O249 2.437 1_456 S
Pr224 O252 2.436 1_455 S
Pr224 O254 2.438 . S
Pr225 C235 2.880 . S
Pr225 O246 2.436 . S
Pr225 O248 2.438 1_455 S
Pr225 O250 2.562 . S
Pr225 O251 2.490 . S
Pr225 O252 2.695 1_454 S
Pr225 O253 2.512 1_454 S
Pr225 O255 2.437 1_554 S
C226 Pr224 2.880 1_655 S
C226 C227 1.491 . S
C226 O244 1.254 . S
C226 O245 1.225 . S
C227 C226 1.491 . S
C227 C228 1.392 . S
C227 C232 1.356 . S
C228 C227 1.392 . S
C228 C229 1.368 . S
C228 H256 0.929 . S
C229 C228 1.368 . S
C229 C230 1.386 . S
C229 H257 0.929 . S
C230 C229 1.386 . S
C230 C231 1.373 . S
C231 C230 1.373 . S
C231 C232 1.409 . S
C231 H258 0.931 . S
C232 C227 1.356 . S
C232 C231 1.409 . S
C232 H259 0.930 . S
C233 O246 1.270 . S
C233 O247 1.248 . S
C234 O248 1.267 . S
C234 O249 1.278 . S
C235 Pr225 2.880 . S
C235 C236 1.491 . S
C235 O250 1.254 . S
C235 O251 1.225 . S
C236 C235 1.491 . S
C236 C237 1.392 . S
C236 C241 1.356 . S
C237 C236 1.392 . S
C237 C238 1.368 . S
C237 H260 0.929 . S
C238 C237 1.368 . S
C238 C239 1.386 . S
C238 H261 0.929 . S
C239 C238 1.386 . S
C239 C240 1.373 . S
C240 C239 1.373 . S
C240 C241 1.409 . S
C240 H262 0.931 . S
C241 C236 1.356 . S
C241 C240 1.409 . S
C241 H263 0.930 . S
C242 O252 1.270 . S
C242 O253 1.248 . S
C243 O254 1.267 . S
C243 O255 1.278 . S
O244 Pr224 2.562 1_655 S
O244 C226 1.254 . S
O245 Pr224 2.490 1_655 S
O245 C226 1.225 . S
O246 Pr224 2.695 1_554 S
O246 Pr225 2.436 . S
O246 C233 1.270 . S
O247 Pr224 2.512 1_554 S
O247 C233 1.248 . S
O248 Pr225 2.438 1_655 S
O248 C234 1.267 . S
O249 Pr224 2.437 1_654 S
O249 C234 1.278 . S
O250 Pr225 2.562 . S
O250 C235 1.254 . S
O251 Pr225 2.490 . S
O251 C235 1.225 . S
O252 Pr224 2.436 1_655 S
O252 Pr225 2.695 1_656 S
O252 C242 1.270 . S
O253 Pr225 2.512 1_656 S
O253 C242 1.248 . S
O254 Pr224 2.438 . S
O254 C243 1.267 . S
O255 Pr225 2.437 1_556 S
O255 C243 1.278 . S
H256 C228 0.929 . S
H257 C229 0.929 . S
H258 C231 0.931 . S
H259 C232 0.930 . S
H260 C237 0.929 . S
H261 C238 0.929 . S
H262 C240 0.931 . S
H263 C241 0.930 . S
H264 C270 0.930 . S
H265 C274 0.930 . S
H266 C279 0.929 . S
H267 C277 0.929 . S
H268 C272 0.929 . S
H269 C278 0.929 . S
C270 H264 0.930 . S
C270 C271 1.367 . S
C270 C278 1.378 . S
C271 C270 1.367 . S
C271 C279 1.433 . S
C272 H268 0.929 . S
C272 C274 1.378 . S
C272 C276 1.350 . S
C273 C276 1.463 . S
C273 C278 1.350 . S
C273 N281 1.427 . S
C274 H265 0.930 . S
C274 C272 1.378 . S
C274 C275 1.367 . S
C275 C274 1.367 . S
C275 C277 1.433 . S
C276 C272 1.350 . S
C276 C273 1.463 . S
C276 N280 1.427 . S
C277 H267 0.929 . S
C277 C275 1.433 . S
C277 N280 1.384 . S
C278 H269 0.929 . S
C278 C270 1.378 . S
C278 C273 1.350 . S
C279 H266 0.929 . S
C279 C271 1.433 . S
C279 N281 1.384 . S
N280 C276 1.427 . S
N280 C277 1.384 . S
N281 C273 1.427 . S
N281 C279 1.384 . S
H282 C288 0.930 . S
H283 C292 0.930 . S
H284 C297 0.929 . S
H285 C295 0.929 . S
H286 C290 0.929 . S
H287 C296 0.929 . S
C288 H282 0.930 . S
C288 C289 1.367 . S
C288 C296 1.378 . S
C289 C288 1.367 . S
C289 C297 1.433 . S
C290 H286 0.929 . S
C290 C292 1.378 . S
C290 C294 1.350 . S
C291 C294 1.463 . S
C291 C296 1.350 . S
C291 N299 1.427 . S
C292 H283 0.930 . S
C292 C290 1.378 . S
C292 C293 1.367 . S
C293 C292 1.367 . S
C293 C295 1.433 . S
C294 C290 1.350 . S
C294 C291 1.463 . S
C294 N298 1.427 . S
C295 H285 0.929 . S
C295 C293 1.433 . S
C295 N298 1.384 . S
C296 H287 0.929 . S
C296 C288 1.378 . S
C296 C291 1.350 . S
C297 H284 0.929 . S
C297 C289 1.433 . S
C297 N299 1.384 . S
N298 C294 1.427 . S
N298 C295 1.384 . S
N299 C291 1.427 . S
N299 C297 1.384 . S
H300 C306 0.930 . S
H301 C310 0.930 . S
H302 C315 0.929 . S
H303 C313 0.929 . S
H304 C308 0.929 . S
H305 C314 0.929 . S
C306 H300 0.930 . S
C306 C307 1.367 . S
C306 C314 1.378 . S
C307 C306 1.367 . S
C307 C315 1.433 . S
C308 H304 0.929 . S
C308 C310 1.378 . S
C308 C312 1.350 . S
C309 C312 1.463 . S
C309 C314 1.350 . S
C309 N317 1.427 . S
C310 H301 0.930 . S
C310 C308 1.378 . S
C310 C311 1.367 . S
C311 C310 1.367 . S
C311 C313 1.433 . S
C312 C308 1.350 . S
C312 C309 1.463 . S
C312 N316 1.427 . S
C313 H303 0.929 . S
C313 C311 1.433 . S
C313 N316 1.384 . S
C314 H305 0.929 . S
C314 C306 1.378 . S
C314 C309 1.350 . S
C315 H302 0.929 . S
C315 C307 1.433 . S
C315 N317 1.384 . S
N316 C312 1.427 . S
N316 C313 1.384 . S
N317 C309 1.427 . S
N317 C315 1.384 . S
H318 C324 0.930 . S
H319 C328 0.930 . S
H320 C333 0.929 . S
H321 C331 0.929 . S
H322 C326 0.929 . S
H323 C332 0.929 . S
C324 H318 0.930 . S
C324 C325 1.367 . S
C324 C332 1.378 . S
C325 C324 1.367 . S
C325 C333 1.433 . S
C326 H322 0.929 . S
C326 C328 1.378 . S
C326 C330 1.350 . S
C327 C330 1.463 . S
C327 C332 1.350 . S
C327 N335 1.427 . S
C328 H319 0.930 . S
C328 C326 1.378 . S
C328 C329 1.367 . S
C329 C328 1.367 . S
C329 C331 1.433 . S
C330 C326 1.350 . S
C330 C327 1.463 . S
C330 N334 1.427 . S
C331 H321 0.929 . S
C331 C329 1.433 . S
C331 N334 1.384 . S
C332 H323 0.929 . S
C332 C324 1.378 . S
C332 C327 1.350 . S
C333 H320 0.929 . S
C333 C325 1.433 . S
C333 N335 1.384 . S
N334 C330 1.427 . S
N334 C331 1.384 . S
N335 C327 1.427 . S
N335 C333 1.384 . S
H336 C342 0.930 . S
H337 C346 0.930 . S
H338 C351 0.929 . S
H339 C349 0.929 . S
H340 C344 0.929 . S
H341 C350 0.929 . S
C342 H336 0.930 . S
C342 C343 1.367 . S
C342 C350 1.378 . S
C343 C342 1.367 . S
C343 C351 1.433 . S
C344 H340 0.929 . S
C344 C346 1.378 . S
C344 C348 1.350 . S
C345 C348 1.463 . S
C345 C350 1.350 . S
C345 N353 1.427 . S
C346 H337 0.930 . S
C346 C344 1.378 . S
C346 C347 1.367 . S
C347 C346 1.367 . S
C347 C349 1.433 . S
C348 C344 1.350 . S
C348 C345 1.463 . S
C348 N352 1.427 . S
C349 H339 0.929 . S
C349 C347 1.433 . S
C349 N352 1.384 . S
C350 H341 0.929 . S
C350 C342 1.378 . S
C350 C345 1.350 . S
C351 H338 0.929 . S
C351 C343 1.433 . S
C351 N353 1.384 . S
N352 C348 1.427 . S
N352 C349 1.384 . S
N353 C345 1.427 . S
N353 C351 1.384 . S
H354 C360 0.930 . S
H355 C364 0.930 . S
H356 C369 0.929 . S
H357 C367 0.929 . S
H358 C362 0.929 . S
H359 C368 0.929 . S
C360 H354 0.930 . S
C360 C361 1.367 . S
C360 C368 1.378 . S
C361 C360 1.367 . S
C361 C369 1.433 . S
C362 H358 0.929 . S
C362 C364 1.378 . S
C362 C366 1.350 . S
C363 C366 1.463 . S
C363 C368 1.350 . S
C363 N371 1.427 . S
C364 H355 0.930 . S
C364 C362 1.378 . S
C364 C365 1.367 . S
C365 C364 1.367 . S
C365 C367 1.433 . S
C366 C362 1.350 . S
C366 C363 1.463 . S
C366 N370 1.427 . S
C367 H357 0.929 . S
C367 C365 1.433 . S
C367 N370 1.384 . S
C368 H359 0.929 . S
C368 C360 1.378 . S
C368 C363 1.350 . S
C369 H356 0.929 . S
C369 C361 1.433 . S
C369 N371 1.384 . S
N370 C366 1.427 . S
N370 C367 1.384 . S
N371 C363 1.427 . S
N371 C369 1.384 . S
H372 C378 0.930 . S
H373 C382 0.930 . S
H374 C387 0.929 . S
H375 C385 0.929 . S
H376 C380 0.929 . S
H377 C386 0.929 . S
C378 H372 0.930 . S
C378 C379 1.367 . S
C378 C386 1.378 . S
C379 C378 1.367 . S
C379 C387 1.433 . S
C380 H376 0.929 . S
C380 C382 1.378 . S
C380 C384 1.350 . S
C381 C384 1.463 . S
C381 C386 1.350 . S
C381 N389 1.427 . S
C382 H373 0.930 . S
C382 C380 1.378 . S
C382 C383 1.367 . S
C383 C382 1.367 . S
C383 C385 1.433 . S
C384 C380 1.350 . S
C384 C381 1.463 . S
C384 N388 1.427 . S
C385 H375 0.929 . S
C385 C383 1.433 . S
C385 N388 1.384 . S
C386 H377 0.929 . S
C386 C378 1.378 . S
C386 C381 1.350 . S
C387 H374 0.929 . S
C387 C379 1.433 . S
C387 N389 1.384 . S
N388 C384 1.427 . S
N388 C385 1.384 . S
N389 C381 1.427 . S
N389 C387 1.384 . S
H390 C396 0.930 . S
H391 C400 0.930 . S
H392 C405 0.929 . S
H393 C403 0.929 . S
H394 C398 0.929 . S
H395 C404 0.929 . S
C396 H390 0.930 . S
C396 C397 1.367 . S
C396 C404 1.378 . S
C397 C396 1.367 . S
C397 C405 1.433 . S
C398 H394 0.929 . S
C398 C400 1.378 . S
C398 C402 1.350 . S
C399 C402 1.463 . S
C399 C404 1.350 . S
C399 N407 1.427 . S
C400 H391 0.930 . S
C400 C398 1.378 . S
C400 C401 1.367 . S
C401 C400 1.367 . S
C401 C403 1.433 . S
C402 C398 1.350 . S
C402 C399 1.463 . S
C402 N406 1.427 . S
C403 H393 0.929 . S
C403 C401 1.433 . S
C403 N406 1.384 . S
C404 H395 0.929 . S
C404 C396 1.378 . S
C404 C399 1.350 . S
C405 H392 0.929 . S
C405 C397 1.433 . S
C405 N407 1.384 . S
N406 C402 1.427 . S
N406 C403 1.384 . S
N407 C399 1.427 . S
N407 C405 1.384 . S
H408 C414 0.930 . S
H409 C418 0.930 . S
H410 C423 0.929 . S
H411 C421 0.929 . S
H412 C416 0.929 . S
H413 C422 0.929 . S
C414 H408 0.930 . S
C414 C415 1.367 . S
C414 C422 1.378 . S
C415 C414 1.367 . S
C415 C423 1.433 . S
C416 H412 0.929 . S
C416 C418 1.378 . S
C416 C420 1.350 . S
C417 C420 1.463 . S
C417 C422 1.350 . S
C417 N425 1.427 . S
C418 H409 0.930 . S
C418 C416 1.378 . S
C418 C419 1.367 . S
C419 C418 1.367 . S
C419 C421 1.433 . S
C420 C416 1.350 . S
C420 C417 1.463 . S
C420 N424 1.427 . S
C421 H411 0.929 . S
C421 C419 1.433 . S
C421 N424 1.384 . S
C422 H413 0.929 . S
C422 C414 1.378 . S
C422 C417 1.350 . S
C423 H410 0.929 . S
C423 C415 1.433 . S
C423 N425 1.384 . S
N424 C420 1.427 . S
N424 C421 1.384 . S
N425 C417 1.427 . S
N425 C423 1.384 . S
H426 C432 0.930 . S
H427 C436 0.930 . S
H428 C441 0.929 . S
H429 C439 0.929 . S
H430 C434 0.929 . S
H431 C440 0.929 . S
C432 H426 0.930 . S
C432 C433 1.367 . S
C432 C440 1.378 . S
C433 C432 1.367 . S
C433 C441 1.433 . S
C434 H430 0.929 . S
C434 C436 1.378 . S
C434 C438 1.350 . S
C435 C438 1.463 . S
C435 C440 1.350 . S
C435 N443 1.427 . S
C436 H427 0.930 . S
C436 C434 1.378 . S
C436 C437 1.367 . S
C437 C436 1.367 . S
C437 C439 1.433 . S
C438 C434 1.350 . S
C438 C435 1.463 . S
C438 N442 1.427 . S
C439 H429 0.929 . S
C439 C437 1.433 . S
C439 N442 1.384 . S
C440 H431 0.929 . S
C440 C432 1.378 . S
C440 C435 1.350 . S
C441 H428 0.929 . S
C441 C433 1.433 . S
C441 N443 1.384 . S
N442 C438 1.427 . S
N442 C439 1.384 . S
N443 C435 1.427 . S
N443 C441 1.384 . S
H444 C450 0.930 . S
H445 C454 0.930 1_455 S
H446 C459 0.929 . S
H447 C457 0.929 . S
H448 C452 0.929 . S
H449 C458 0.929 . S
C450 H444 0.930 . S
C450 C451 1.367 . S
C450 C458 1.378 . S
C451 C450 1.367 . S
C451 C459 1.433 . S
C452 H448 0.929 . S
C452 C454 1.378 . S
C452 C456 1.350 . S
C453 C456 1.463 . S
C453 C458 1.350 . S
C453 N461 1.427 . S
C454 H445 0.930 1_655 S
C454 C452 1.378 . S
C454 C455 1.367 . S
C455 C454 1.367 . S
C455 C457 1.433 . S
C456 C452 1.350 . S
C456 C453 1.463 . S
C456 N460 1.427 . S
C457 H447 0.929 . S
C457 C455 1.433 . S
C457 N460 1.384 . S
C458 H449 0.929 . S
C458 C450 1.378 . S
C458 C453 1.350 . S
C459 H446 0.929 . S
C459 C451 1.433 . S
C459 N461 1.384 . S
N460 C456 1.427 . S
N460 C457 1.384 . S
N461 C453 1.427 . S
N461 C459 1.384 . S
H462 C468 0.930 . S
H463 C472 0.930 . S
H464 C477 0.929 . S
H465 C475 0.929 . S
H466 C470 0.929 . S
H467 C476 0.929 . S
C468 H462 0.930 . S
C468 C469 1.367 . S
C468 C476 1.378 . S
C469 C468 1.367 . S
C469 C477 1.433 . S
C470 H466 0.929 . S
C470 C472 1.378 . S
C470 C474 1.350 . S
C471 C474 1.463 . S
C471 C476 1.350 . S
C471 N479 1.427 . S
C472 H463 0.930 . S
C472 C470 1.378 . S
C472 C473 1.367 . S
C473 C472 1.367 . S
C473 C475 1.433 . S
C474 C470 1.350 . S
C474 C471 1.463 . S
C474 N478 1.427 . S
C475 H465 0.929 . S
C475 C473 1.433 . S
C475 N478 1.384 . S
C476 H467 0.929 . S
C476 C468 1.378 . S
C476 C471 1.350 . S
C477 H464 0.929 . S
C477 C469 1.433 . S
C477 N479 1.384 . S
N478 C474 1.427 . S
N478 C475 1.384 . S
N479 C471 1.427 . S
N479 C477 1.384 . S
H480 C486 0.930 . S
H481 C490 0.930 . S
H482 C495 0.929 . S
H483 C493 0.929 . S
H484 C488 0.929 . S
H485 C494 0.929 . S
C486 H480 0.930 . S
C486 C487 1.367 . S
C486 C494 1.378 . S
C487 C486 1.367 . S
C487 C495 1.433 . S
C488 H484 0.929 . S
C488 C490 1.378 . S
C488 C492 1.350 . S
C489 C492 1.463 . S
C489 C494 1.350 . S
C489 N497 1.427 . S
C490 H481 0.930 . S
C490 C488 1.378 . S
C490 C491 1.367 . S
C491 C490 1.367 . S
C491 C493 1.433 . S
C492 C488 1.350 . S
C492 C489 1.463 . S
C492 N496 1.427 . S
C493 H483 0.929 . S
C493 C491 1.433 . S
C493 N496 1.384 . S
C494 H485 0.929 . S
C494 C486 1.378 . S
C494 C489 1.350 . S
C495 H482 0.929 . S
C495 C487 1.433 . S
C495 N497 1.384 . S
N496 C492 1.427 . S
N496 C493 1.384 . S
N497 C489 1.427 . S
N497 C495 1.384 . S
H498 C504 0.930 . S
H499 C508 0.930 . S
H500 C513 0.929 . S
H501 C511 0.929 . S
H502 C506 0.929 . S
H503 C512 0.929 . S
C504 H498 0.930 . S
C504 C505 1.367 . S
C504 C512 1.378 . S
C505 C504 1.367 . S
C505 C513 1.433 . S
C506 H502 0.929 . S
C506 C508 1.378 . S
C506 C510 1.350 . S
C507 C510 1.463 . S
C507 C512 1.350 . S
C507 N515 1.427 . S
C508 H499 0.930 . S
C508 C506 1.378 . S
C508 C509 1.367 . S
C509 C508 1.367 . S
C509 C511 1.433 . S
C510 C506 1.350 . S
C510 C507 1.463 . S
C510 N514 1.427 . S
C511 H501 0.929 . S
C511 C509 1.433 . S
C511 N514 1.384 . S
C512 H503 0.929 . S
C512 C504 1.378 . S
C512 C507 1.350 . S
C513 H500 0.929 . S
C513 C505 1.433 . S
C513 N515 1.384 . S
N514 C510 1.427 . S
N514 C511 1.384 . S
N515 C507 1.427 . S
N515 C513 1.384 . S
H516 C522 0.930 . S
H517 C526 0.930 . S
H518 C531 0.929 . S
H519 C529 0.929 . S
H520 C524 0.929 . S
H521 C530 0.929 . S
C522 H516 0.930 . S
C522 C523 1.367 . S
C522 C530 1.378 . S
C523 C522 1.367 . S
C523 C531 1.433 . S
C524 H520 0.929 . S
C524 C526 1.378 . S
C524 C528 1.350 . S
C525 C528 1.463 . S
C525 C530 1.350 . S
C525 N533 1.427 . S
C526 H517 0.930 . S
C526 C524 1.378 . S
C526 C527 1.367 . S
C527 C526 1.367 . S
C527 C529 1.433 . S
C528 C524 1.350 . S
C528 C525 1.463 . S
C528 N532 1.427 . S
C529 H519 0.929 . S
C529 C527 1.433 . S
C529 N532 1.384 . S
C530 H521 0.929 . S
C530 C522 1.378 . S
C530 C525 1.350 . S
C531 H518 0.929 . S
C531 C523 1.433 . S
C531 N533 1.384 . S
N532 C528 1.427 . S
N532 C529 1.384 . S
N533 C525 1.427 . S
N533 C531 1.384 . S
H534 C540 0.930 . S
H535 C544 0.930 . S
H536 C549 0.929 . S
H537 C547 0.929 . S
H538 C542 0.929 . S
H539 C548 0.929 . S
C540 H534 0.930 . S
C540 C541 1.367 . S
C540 C548 1.378 . S
C541 C540 1.367 . S
C541 C549 1.433 . S
C542 H538 0.929 . S
C542 C544 1.378 . S
C542 C546 1.350 . S
C543 C546 1.463 . S
C543 C548 1.350 . S
C543 N551 1.427 . S
C544 H535 0.930 . S
C544 C542 1.378 . S
C544 C545 1.367 . S
C545 C544 1.367 . S
C545 C547 1.433 . S
C546 C542 1.350 . S
C546 C543 1.463 . S
C546 N550 1.427 . S
C547 H537 0.929 . S
C547 C545 1.433 . S
C547 N550 1.384 . S
C548 H539 0.929 . S
C548 C540 1.378 . S
C548 C543 1.350 . S
C549 H536 0.929 . S
C549 C541 1.433 . S
C549 N551 1.384 . S
N550 C546 1.427 . S
N550 C547 1.384 . S
N551 C543 1.427 . S
N551 C549 1.384 . S
H552 C558 0.930 . S
H553 C562 0.930 . S
H554 C567 0.929 . S
H555 C565 0.929 . S
H556 C560 0.929 . S
H557 C566 0.929 . S
C558 H552 0.930 . S
C558 C559 1.367 . S
C558 C566 1.378 . S
C559 C558 1.367 . S
C559 C567 1.433 . S
C560 H556 0.929 . S
C560 C562 1.378 . S
C560 C564 1.350 . S
C561 C564 1.463 . S
C561 C566 1.350 . S
C561 N569 1.427 . S
C562 H553 0.930 . S
C562 C560 1.378 . S
C562 C563 1.367 . S
C563 C562 1.367 . S
C563 C565 1.433 . S
C564 C560 1.350 . S
C564 C561 1.463 . S
C564 N568 1.427 . S
C565 H555 0.929 . S
C565 C563 1.433 . S
C565 N568 1.384 . S
C566 H557 0.929 . S
C566 C558 1.378 . S
C566 C561 1.350 . S
C567 H554 0.929 . S
C567 C559 1.433 . S
C567 N569 1.384 . S
N568 C564 1.427 . S
N568 C565 1.384 . S
N569 C561 1.427 . S
N569 C567 1.384 . S
H570 C576 0.930 . S
H571 C580 0.930 . S
H572 C585 0.929 . S
H573 C583 0.929 1_455 S
H574 C578 0.929 . S
H575 C584 0.929 . S
C576 H570 0.930 . S
C576 C577 1.367 . S
C576 C584 1.378 . S
C577 C576 1.367 . S
C577 C585 1.433 . S
C578 H574 0.929 . S
C578 C580 1.378 . S
C578 C582 1.350 . S
C579 C582 1.463 . S
C579 C584 1.350 . S
C579 N587 1.427 . S
C580 H571 0.930 . S
C580 C578 1.378 . S
C580 C581 1.367 . S
C581 C580 1.367 . S
C581 C583 1.433 . S
C582 C578 1.350 . S
C582 C579 1.463 . S
C582 N586 1.427 . S
C583 H573 0.929 1_655 S
C583 C581 1.433 . S
C583 N586 1.384 . S
C584 H575 0.929 . S
C584 C576 1.378 . S
C584 C579 1.350 . S
C585 H572 0.929 . S
C585 C577 1.433 . S
C585 N587 1.384 . S
N586 C582 1.427 . S
N586 C583 1.384 . S
N587 C579 1.427 . S
N587 C585 1.384 . S
H588 C594 0.930 . S
H589 C598 0.930 . S
H590 C603 0.929 . S
H591 C601 0.929 . S
H592 C596 0.929 . S
H593 C602 0.929 . S
C594 H588 0.930 . S
C594 C595 1.367 . S
C594 C602 1.378 . S
C595 C594 1.367 . S
C595 C603 1.433 . S
C596 H592 0.929 . S
C596 C598 1.378 . S
C596 C600 1.350 . S
C597 C600 1.463 . S
C597 C602 1.350 . S
C597 N605 1.427 . S
C598 H589 0.930 . S
C598 C596 1.378 . S
C598 C599 1.367 . S
C599 C598 1.367 . S
C599 C601 1.433 . S
C600 C596 1.350 . S
C600 C597 1.463 . S
C600 N604 1.427 . S
C601 H591 0.929 . S
C601 C599 1.433 . S
C601 N604 1.384 . S
C602 H593 0.929 . S
C602 C594 1.378 . S
C602 C597 1.350 . S
C603 H590 0.929 . S
C603 C595 1.433 . S
C603 N605 1.384 . S
N604 C600 1.427 . S
N604 C601 1.384 . S
N605 C597 1.427 . S
N605 C603 1.384 . S
H606 C612 0.930 . S
H607 C616 0.930 . S
H608 C621 0.929 . S
H609 C619 0.929 . S
H610 C614 0.929 . S
H611 C620 0.929 . S
C612 H606 0.930 . S
C612 C613 1.367 . S
C612 C620 1.378 . S
C613 C612 1.367 . S
C613 C621 1.433 . S
C614 H610 0.929 . S
C614 C616 1.378 . S
C614 C618 1.350 . S
C615 C618 1.463 . S
C615 C620 1.350 . S
C615 N623 1.427 . S
C616 H607 0.930 . S
C616 C614 1.378 . S
C616 C617 1.367 . S
C617 C616 1.367 . S
C617 C619 1.433 . S
C618 C614 1.350 . S
C618 C615 1.463 . S
C618 N622 1.427 . S
C619 H609 0.929 . S
C619 C617 1.433 . S
C619 N622 1.384 . S
C620 H611 0.929 . S
C620 C612 1.378 . S
C620 C615 1.350 . S
C621 H608 0.929 . S
C621 C613 1.433 . S
C621 N623 1.384 . S
N622 C618 1.427 . S
N622 C619 1.384 . S
N623 C615 1.427 . S
N623 C621 1.384 . S
H624 C630 0.930 . S
H625 C634 0.930 . S
H626 C639 0.929 . S
H627 C637 0.929 . S
H628 C632 0.929 . S
H629 C638 0.929 . S
C630 H624 0.930 . S
C630 C631 1.367 . S
C630 C638 1.378 . S
C631 C630 1.367 . S
C631 C639 1.433 . S
C632 H628 0.929 . S
C632 C634 1.378 . S
C632 C636 1.350 . S
C633 C636 1.463 . S
C633 C638 1.350 . S
C633 N641 1.427 . S
C634 H625 0.930 . S
C634 C632 1.378 . S
C634 C635 1.367 . S
C635 C634 1.367 . S
C635 C637 1.433 . S
C636 C632 1.350 . S
C636 C633 1.463 . S
C636 N640 1.427 . S
C637 H627 0.929 . S
C637 C635 1.433 . S
C637 N640 1.384 . S
C638 H629 0.929 . S
C638 C630 1.378 . S
C638 C633 1.350 . S
C639 H626 0.929 . S
C639 C631 1.433 . S
C639 N641 1.384 . S
N640 C636 1.427 . S
N640 C637 1.384 . S
N641 C633 1.427 . S
N641 C639 1.384 . S
H642 C648 0.930 . S
H643 C652 0.930 . S
H644 C657 0.929 . S
H645 C655 0.929 . S
H646 C650 0.929 . S
H647 C656 0.929 . S
C648 H642 0.930 . S
C648 C649 1.367 . S
C648 C656 1.378 . S
C649 C648 1.367 . S
C649 C657 1.433 . S
C650 H646 0.929 . S
C650 C652 1.378 . S
C650 C654 1.350 . S
C651 C654 1.463 . S
C651 C656 1.350 . S
C651 N659 1.427 . S
C652 H643 0.930 . S
C652 C650 1.378 . S
C652 C653 1.367 . S
C653 C652 1.367 . S
C653 C655 1.433 . S
C654 C650 1.350 . S
C654 C651 1.463 . S
C654 N658 1.427 . S
C655 H645 0.929 . S
C655 C653 1.433 . S
C655 N658 1.384 . S
C656 H647 0.929 . S
C656 C648 1.378 . S
C656 C651 1.350 . S
C657 H644 0.929 . S
C657 C649 1.433 . S
C657 N659 1.384 . S
N658 C654 1.427 . S
N658 C655 1.384 . S
N659 C651 1.427 . S
N659 C657 1.384 . S
H660 C666 0.930 . S
H661 C670 0.930 . S
H662 C675 0.929 . S
H663 C673 0.929 . S
H664 C668 0.929 . S
H665 C674 0.929 . S
C666 H660 0.930 . S
C666 C667 1.367 . S
C666 C674 1.378 . S
C667 C666 1.367 . S
C667 C675 1.433 . S
C668 H664 0.929 . S
C668 C670 1.378 . S
C668 C672 1.350 . S
C669 C672 1.463 . S
C669 C674 1.350 . S
C669 N677 1.427 . S
C670 H661 0.930 . S
C670 C668 1.378 . S
C670 C671 1.367 . S
C671 C670 1.367 . S
C671 C673 1.433 . S
C672 C668 1.350 . S
C672 C669 1.463 . S
C672 N676 1.427 . S
C673 H663 0.929 . S
C673 C671 1.433 . S
C673 N676 1.384 . S
C674 H665 0.929 . S
C674 C666 1.378 . S
C674 C669 1.350 . S
C675 H662 0.929 . S
C675 C667 1.433 . S
C675 N677 1.384 . S
N676 C672 1.427 . S
N676 C673 1.384 . S
N677 C669 1.427 . S
N677 C675 1.384 . S
H678 C684 0.930 . S
H679 C688 0.930 . S
H680 C693 0.929 . S
H681 C691 0.929 . S
H682 C686 0.929 . S
H683 C692 0.929 . S
C684 H678 0.930 . S
C684 C685 1.367 . S
C684 C692 1.378 . S
C685 C684 1.367 . S
C685 C693 1.433 . S
C686 H682 0.929 . S
C686 C688 1.378 . S
C686 C690 1.350 . S
C687 C690 1.463 . S
C687 C692 1.350 . S
C687 N695 1.427 . S
C688 H679 0.930 . S
C688 C686 1.378 . S
C688 C689 1.367 . S
C689 C688 1.367 . S
C689 C691 1.433 . S
C690 C686 1.350 . S
C690 C687 1.463 . S
C690 N694 1.427 . S
C691 H681 0.929 . S
C691 C689 1.433 . S
C691 N694 1.384 . S
C692 H683 0.929 . S
C692 C684 1.378 . S
C692 C687 1.350 . S
C693 H680 0.929 . S
C693 C685 1.433 . S
C693 N695 1.384 . S
N694 C690 1.427 . S
N694 C691 1.384 . S
N695 C687 1.427 . S
N695 C693 1.384 . S
C271 N1 0.865 . S
C275 C119 0.880 . S
C289 N18 1.567 . S
C293 C163 1.608 1_556 S
C311 C193 1.804 . S
C307 N28 1.782 . S
C325 N40 2.865 . S
C329 C234 2.847 . S
C347 C150 1.125 . S
C343 N5 1.144 . S
C365 C114 2.286 . S
C361 N14 2.235 . S
C383 C242 1.267 . S
C379 N31 1.264 . S
C401 C203 1.960 . S
C397 N41 1.987 . S
C415 N2 0.891 . S
C419 C239 0.890 . S
C437 C153 2.188 1_556 S
C433 N27 2.257 . S
C451 N44 2.015 . S
C455 C122 2.061 1_655 S
C469 N15 1.686 . S
C473 C190 1.685 . S
C491 C110 1.462 . S
C487 N57 1.482 . S
C505 N70 1.234 . S
C509 C154 1.267 . S
C523 N79 2.069 . S
C527 C202 2.183 . S
C541 N93 2.668 . S
C545 C243 2.622 . S
C559 N54 0.700 . S
C563 C159 0.684 . S
C581 C123 2.827 1_655 S
C577 N66 2.848 . S
C599 C233 0.742 . S
C595 N80 0.750 . S
C617 C194 2.074 . S
C613 N96 2.155 . S
C631 N53 0.948 . S
C635 C230 0.976 . S
C653 C162 1.640 . S
C649 N83 1.594 . S
C671 C113 2.142 . S
C667 N92 2.245 . S
C685 N67 2.095 . S
C689 C199 2.070 . S
