# Generated by pormake.
# Topology pyr, (3,6)-cn, num edge types: 1
# Building blocks:
#     Node 0, Type 0, BuildingBlock: ESEHIV_clean_linker_0, # of connection points: 3
#     Node 1, Type 0, BuildingBlock: ESEHIV_clean_linker_0, # of connection points: 3
#     Node 2, Type 0, BuildingBlock: ESEHIV_clean_linker_0, # of connection points: 3
#     Node 3, Type 0, BuildingBlock: ESEHIV_clean_linker_0, # of connection points: 3
#     Node 4, Type 0, BuildingBlock: ESEHIV_clean_linker_0, # of connection points: 3
#     Node 5, Type 0, BuildingBlock: ESEHIV_clean_linker_0, # of connection points: 3
#     Node 6, Type 0, BuildingBlock: ESEHIV_clean_linker_0, # of connection points: 3
#     Node 7, Type 0, BuildingBlock: ESEHIV_clean_linker_0, # of connection points: 3
#     Node 8, Type 1, BuildingBlock: CIFDUS_clean_sbu_1, # of connection points: 6
#     Node 9, Type 1, BuildingBlock: CIFDUS_clean_sbu_1, # of connection points: 6
#     Node 10, Type 1, BuildingBlock: CIFDUS_clean_sbu_1, # of connection points: 6
#     Node 11, Type 1, BuildingBlock: CIFDUS_clean_sbu_1, # of connection points: 6
#     Edge 12, Type (0, 1), BuildingBlock: CIFDUS_clean_linker_0, # of connection points: 2
#     Edge 13, Type (0, 1), BuildingBlock: CIFDUS_clean_linker_0, # of connection points: 2
#     Edge 14, Type (0, 1), BuildingBlock: CIFDUS_clean_linker_0, # of connection points: 2
#     Edge 15, Type (0, 1), BuildingBlock: CIFDUS_clean_linker_0, # of connection points: 2
#     Edge 16, Type (0, 1), BuildingBlock: CIFDUS_clean_linker_0, # of connection points: 2
#     Edge 17, Type (0, 1), BuildingBlock: CIFDUS_clean_linker_0, # of connection points: 2
#     Edge 18, Type (0, 1), BuildingBlock: CIFDUS_clean_linker_0, # of connection points: 2
#     Edge 19, Type (0, 1), BuildingBlock: CIFDUS_clean_linker_0, # of connection points: 2
#     Edge 20, Type (0, 1), BuildingBlock: CIFDUS_clean_linker_0, # of connection points: 2
#     Edge 21, Type (0, 1), BuildingBlock: CIFDUS_clean_linker_0, # of connection points: 2
#     Edge 22, Type (0, 1), BuildingBlock: CIFDUS_clean_linker_0, # of connection points: 2
#     Edge 23, Type (0, 1), BuildingBlock: CIFDUS_clean_linker_0, # of connection points: 2
#     Edge 24, Type (0, 1), BuildingBlock: CIFDUS_clean_linker_0, # of connection points: 2
#     Edge 25, Type (0, 1), BuildingBlock: CIFDUS_clean_linker_0, # of connection points: 2
#     Edge 26, Type (0, 1), BuildingBlock: CIFDUS_clean_linker_0, # of connection points: 2
#     Edge 27, Type (0, 1), BuildingBlock: CIFDUS_clean_linker_0, # of connection points: 2
#     Edge 28, Type (0, 1), BuildingBlock: CIFDUS_clean_linker_0, # of connection points: 2
#     Edge 29, Type (0, 1), BuildingBlock: CIFDUS_clean_linker_0, # of connection points: 2
#     Edge 30, Type (0, 1), BuildingBlock: CIFDUS_clean_linker_0, # of connection points: 2
#     Edge 31, Type (0, 1), BuildingBlock: CIFDUS_clean_linker_0, # of connection points: 2
#     Edge 32, Type (0, 1), BuildingBlock: CIFDUS_clean_linker_0, # of connection points: 2
#     Edge 33, Type (0, 1), BuildingBlock: CIFDUS_clean_linker_0, # of connection points: 2
#     Edge 34, Type (0, 1), BuildingBlock: CIFDUS_clean_linker_0, # of connection points: 2
#     Edge 35, Type (0, 1), BuildingBlock: CIFDUS_clean_linker_0, # of connection points: 2
# Relax obj value: 0.035
# Max RMSD: 0.110
# Mean RMSD: 0.045
data_MOF--net-pry--node1-CIFDUS_clean_sbu_1--node2-ESEHIV_clean_linker_0--edge1-CIFDUS_clean_linker_0
_symmetry_space_group_name_H-M    P1
_symmetry_Int_Tables_number       1
_symmetry_cell_setting            triclinic
loop_
_symmetry_equiv_pos_as_xyz
'x, y, z'
_cell_length_a     30.525006
_cell_length_b     29.532817
_cell_length_c     29.341059
_cell_angle_alpha  92.393346
_cell_angle_beta   91.174984
_cell_angle_gamma 93.67894
loop_
_atom_site_label
_atom_site_type_symbol
_atom_site_fract_x
_atom_site_fract_y
_atom_site_fract_z
_atom_type_partial_charge
H0 H 0.09118 0.18751 0.16875 0.0
H1 H 0.18283 0.08565 0.19183 0.0
H2 H 0.19581 0.16977 0.07533 0.0
C3 C 0.11947 0.1695 0.15853 0.0
C4 C 0.14093 0.18167 0.1184 0.0
C5 C 0.13455 0.13521 0.18586 0.0
C6 C 0.17187 0.11303 0.17193 0.0
C7 C 0.19475 0.12507 0.13226 0.0
C8 C 0.17863 0.15947 0.10552 0.0
H9 H 0.33701 0.94969 0.6601 0.0
H10 H 0.44354 0.8609 0.64606 0.0
H11 H 0.33373 0.84541 0.55267 0.0
C12 C 0.35244 0.92218 0.64252 0.0
C13 C 0.33016 0.89876 0.60492 0.0
C14 C 0.39403 0.90955 0.6578 0.0
C15 C 0.41278 0.87308 0.63417 0.0
C16 C 0.39152 0.85072 0.59593 0.0
C17 C 0.35038 0.86353 0.58164 0.0
H18 H 0.67712 0.32774 0.91776 0.0
H19 H 0.66717 0.44449 0.83655 0.0
H20 H 0.58776 0.32278 0.8021 0.0
C21 C 0.66222 0.34446 0.88978 0.0
C22 C 0.62626 0.32264 0.8646 0.0
C23 C 0.67934 0.38758 0.87756 0.0
C24 C 0.65721 0.40956 0.84329 0.0
C25 C 0.62789 0.38509 0.81283 0.0
C26 C 0.61133 0.34203 0.82459 0.0
H27 H 0.85891 0.65493 0.46349 0.0
H28 H 0.94507 0.66753 0.34953 0.0
H29 H 0.82861 0.57918 0.33743 0.0
C30 C 0.86742 0.64626 0.42874 0.0
C31 C 0.84053 0.61312 0.40329 0.0
C32 C 0.90543 0.66724 0.40953 0.0
C33 C 0.91587 0.65309 0.36462 0.0
C34 C 0.88848 0.62199 0.33764 0.0
C35 C 0.85089 0.6023 0.35766 0.0
H36 H 0.83934 0.92104 0.83404 0.0
H37 H 0.93162 0.82024 0.8554 0.0
H38 H 0.82893 0.83811 0.95176 0.0
C39 C 0.85053 0.89369 0.85384 0.0
C40 C 0.82813 0.88159 0.89371 0.0
C41 C 0.88745 0.87161 0.83928 0.0
C42 C 0.90339 0.83791 0.86645 0.0
C43 C 0.88345 0.82609 0.90758 0.0
C44 C 0.84521 0.8477 0.92083 0.0
H45 H 0.58207 0.17727 0.36068 0.0
H46 H 0.68366 0.08196 0.35549 0.0
H47 H 0.69433 0.19511 0.45216 0.0
C48 C 0.61233 0.16513 0.37396 0.0
C49 C 0.63554 0.19071 0.40947 0.0
C50 C 0.62922 0.12559 0.3538 0.0
C51 C 0.66986 0.11196 0.37026 0.0
C52 C 0.69352 0.13756 0.40513 0.0
C53 C 0.67599 0.17619 0.42476 0.0
H54 H 0.32991 0.71793 0.10651 0.0
H55 H 0.30808 0.60692 0.19438 0.0
H56 H 0.42457 0.69575 0.21349 0.0
C57 C 0.34111 0.69861 0.1346 0.0
C58 C 0.38081 0.71183 0.15834 0.0
C59 C 0.31506 0.66091 0.1478 0.0
C60 C 0.3291 0.63541 0.18379 0.0
C61 C 0.36866 0.64749 0.20755 0.0
C62 C 0.39422 0.68596 0.19484 0.0
H63 H 0.07584 0.3464 0.65662 0.0
H64 H 0.16804 0.35829 0.54722 0.0
H65 H 0.17489 0.45685 0.65872 0.0
C66 C 0.10314 0.36427 0.64065 0.0
C67 C 0.12248 0.40463 0.66196 0.0
C68 C 0.11947 0.34699 0.59895 0.0
C69 C 0.1551 0.37097 0.57904 0.0
C70 C 0.17614 0.40955 0.60106 0.0
C71 C 0.15909 0.42652 0.64193 0.0
O72 O 0.94255 0.03091 0.50181 0.0
Mn73 Mn 0.00508 0.00794 0.51331 0.0
O74 O 0.92368 0.00915 0.42997 0.0
Mn75 Mn 0.96888 0.97133 0.42074 0.0
O76 O 0.06906 0.98647 0.52683 0.0
O77 O 0.0174 0.06555 0.55366 0.0
Mn78 Mn 0.04052 0.04834 0.60531 0.0
O79 O 0.97803 0.97165 0.56882 0.0
O80 O 0.09341 0.02597 0.5908 0.0
O81 O 0.03256 0.04306 0.45613 0.0
O82 O 0.01618 0.99823 0.39309 0.0
O83 O 0.03814 0.10926 0.61394 0.0
O84 O 1.00143 0.00984 0.63349 0.0
C85 C 0.96654 0.91445 0.46238 0.0
C86 C 0.91632 0.03011 0.46721 0.0
C87 C 0.09952 0.99923 0.55677 0.0
C88 C 0.02308 0.10642 0.57224 0.0
C89 C 0.97876 0.9776 0.61274 0.0
C90 C 0.03695 0.03248 0.41296 0.0
O91 O 0.99193 0.95103 0.47182 0.0
O92 O 0.9492 0.9121 0.42161 0.0
O93 O 0.49065 0.00903 0.93852 0.0
Mn94 Mn 0.51264 0.01094 0.00831 0.0
O95 O 0.49599 0.93734 0.91074 0.0
Mn96 Mn 0.52395 0.9175 0.96149 0.0
O97 O 0.5345 0.01283 0.07806 0.0
O98 O 0.5242 0.07921 0.00614 0.0
Mn99 Mn 0.50032 0.10373 0.05495 0.0
O100 O 0.44568 0.0184 0.02681 0.0
O101 O 0.52806 0.08433 0.10579 0.0
O102 O 0.57971 0.00289 0.99016 0.0
O103 O 0.58345 0.93006 0.96528 0.0
O104 O 0.52405 0.15198 0.02569 0.0
O105 O 0.44082 0.09101 0.05142 0.0
C106 C 0.48942 0.90187 0.02103 0.0
C107 C 0.48524 0.97779 0.90622 0.0
C108 C 0.53923 0.04408 0.11037 0.0
C109 C 0.53543 0.12086 0.99664 0.0
C110 C 0.42322 0.05185 0.04082 0.0
C111 C 0.60167 0.96887 0.97646 0.0
O112 O 0.50108 0.94295 0.01031 0.0
O113 O 0.4999 0.87008 0.99228 0.0
O114 O 0.56914 0.54076 0.49267 0.0
Mn115 Mn 0.50578 0.51527 0.50685 0.0
O116 O 0.58779 0.49594 0.43484 0.0
Mn117 Mn 0.53031 0.47812 0.41605 0.0
O118 O 0.44273 0.49386 0.52681 0.0
O119 O 0.52421 0.51763 0.5732 0.0
Mn120 Mn 0.49704 0.56074 0.60056 0.0
O121 O 0.48431 0.58272 0.5092 0.0
O122 O 0.43869 0.53806 0.59165 0.0
O123 O 0.52402 0.44594 0.50368 0.0
O124 O 0.51236 0.4209 0.4311 0.0
O125 O 0.52962 0.53704 0.64567 0.0
O126 O 0.51667 0.61208 0.57195 0.0
C127 C 0.48966 0.531 0.40145 0.0
C128 C 0.59792 0.5263 0.46572 0.0
C129 C 0.42191 0.50848 0.56186 0.0
C130 C 0.53916 0.50876 0.61307 0.0
C131 C 0.49522 0.61759 0.53571 0.0
C132 C 0.51825 0.4131 0.47287 0.0
O133 O 0.48748 0.51012 0.43961 0.0
O134 O 0.51264 0.51201 0.37024 0.0
O135 O 0.94629 0.46597 0.99741 0.0
Mn136 Mn 0.00667 0.50098 0.01064 0.0
O137 O 0.92735 0.51339 0.9453 0.0
Mn138 Mn 0.98463 0.53365 0.93334 0.0
O139 O 0.06712 0.53683 0.02351 0.0
O140 O 0.98966 0.50686 0.07899 0.0
Mn141 Mn 0.03516 0.48154 0.10344 0.0
O142 O 0.03826 0.43774 0.01617 0.0
O143 O 0.08662 0.51555 0.09312 0.0
O144 O 0.97536 0.56504 0.00962 0.0
O145 O 1.00171 0.59298 0.94885 0.0
O146 O 0.0056 0.49639 0.15279 0.0
O147 O 0.03305 0.42092 0.08865 0.0
C148 C 0.02316 0.4959 0.89505 0.0
C149 C 0.91747 0.48064 0.97064 0.0
C150 C 0.09422 0.5376 0.05751 0.0
C151 C 0.97902 0.51052 0.12225 0.0
C152 C 0.04236 0.4096 0.0484 0.0
C153 C 0.98372 0.60007 0.98595 0.0
O154 O 0.02519 0.49274 0.94027 0.0
O155 O 0.99558 0.52147 0.87634 0.0
H156 H 0.16892 0.1113 0.269 0.0
H157 H 0.04583 0.12871 0.19862 0.0
H158 H 0.00587 0.10553 0.26553 0.0
H159 H 0.00484 0.07407 0.34149 0.0
H160 H 0.1262 0.05291 0.41223 0.0
H161 H 0.16775 0.0838 0.34819 0.0
C162 C 0.13335 0.10998 0.2682 0.0
C163 C 0.11068 0.12194 0.22823 0.0
C164 C 0.11017 0.0961 0.30713 0.0
C165 C 0.0645 0.12048 0.22859 0.0
C166 C 0.04144 0.10693 0.26694 0.0
C167 C 0.04045 0.07761 0.34348 0.0
C168 C 0.06242 0.06226 0.38204 0.0
C169 C 0.06383 0.09419 0.30613 0.0
C170 C 0.10852 0.06581 0.38366 0.0
C171 C 0.13221 0.08279 0.34664 0.0
H172 H 0.35943 0.94719 0.73659 0.0
H173 H 0.48291 0.92559 0.67216 0.0
H174 H 0.52246 0.95174 0.7419 0.0
H175 H 0.52212 0.97167 0.82401 0.0
H176 H 0.40031 0.99678 0.88872 0.0
H177 H 0.36035 0.98063 0.81574 0.0
C178 C 0.39499 0.94918 0.73718 0.0
C179 C 0.41771 0.93266 0.69893 0.0
C180 C 0.41808 0.96547 0.77758 0.0
C181 C 0.46401 0.93597 0.70116 0.0
C182 C 0.48693 0.95154 0.74107 0.0
C183 C 0.48704 0.97552 0.82165 0.0
C184 C 0.46429 0.98608 0.86157 0.0
C185 C 0.46432 0.96511 0.77987 0.0
C186 C 0.41871 0.98983 0.85831 0.0
C187 C 0.39579 0.97973 0.81667 0.0
H188 H 0.55295 0.37406 0.75815 0.0
H189 H 0.68632 0.43334 0.76165 0.0
H190 H 0.67369 0.46813 0.68995 0.0
H191 H 0.62176 0.49179 0.63291 0.0
H192 H 0.48942 0.4323 0.62689 0.0
H193 H 0.5056 0.38475 0.69062 0.0
C194 C 0.57956 0.39374 0.74287 0.0
C195 C 0.6199 0.4026 0.76673 0.0
C196 C 0.57266 0.41275 0.70035 0.0
C197 C 0.65406 0.42786 0.74572 0.0
C198 C 0.64727 0.44717 0.70403 0.0
C199 C 0.59739 0.46632 0.6438 0.0
C200 C 0.55472 0.4653 0.62558 0.0
C201 C 0.60635 0.44107 0.68181 0.0
C202 C 0.52288 0.43292 0.64017 0.0
C203 C 0.53177 0.40671 0.67746 0.0
H204 H 0.86654 0.54366 0.28364 0.0
H205 H 0.93303 0.67723 0.27775 0.0
H206 H 0.96003 0.65736 0.20334 0.0
H207 H 0.97315 0.59888 0.14412 0.0
H208 H 0.90258 0.46828 0.14608 0.0
H209 H 0.86552 0.49191 0.21537 0.0
C210 C 0.88576 0.56924 0.26596 0.0
C211 C 0.89917 0.61135 0.28845 0.0
C212 C 0.89951 0.55866 0.2213 0.0
C213 C 0.92414 0.64342 0.26363 0.0
C214 C 0.93898 0.63256 0.22012 0.0
C215 C 0.94756 0.57666 0.1581 0.0
C216 C 0.94041 0.53202 0.13986 0.0
C217 C 0.92789 0.58989 0.19911 0.0
C218 C 0.90804 0.50315 0.15902 0.0
C219 C 0.88777 0.51626 0.19947 0.0
H220 H 0.22657 0.09947 0.04748 0.0
H221 H 0.25872 0.10193 0.1917 0.0
H222 H 0.32813 0.06961 0.17577 0.0
H223 H 0.38405 0.04908 0.12143 0.0
H224 H 0.35627 0.05054 0.97727 0.0
H225 H 0.28127 0.07201 0.99238 0.0
C226 C 0.24869 0.09287 0.07544 0.0
C227 C 0.23676 0.10333 0.12091 0.0
C228 C 0.28954 0.07453 0.06602 0.0
C229 C 0.26608 0.09383 0.15647 0.0
C230 C 0.30619 0.07545 0.14741 0.0
C231 C 0.36088 0.05214 0.09335 0.0
C232 C 0.3753 0.04682 0.04831 0.0
C233 C 0.31863 0.06637 0.10242 0.0
C234 C 0.34552 0.05277 0.01221 0.0
C235 C 0.30288 0.06599 0.02095 0.0
H236 H 0.30044 0.98187 0.58978 0.0
H237 H 0.25891 0.83951 0.58675 0.0
H238 H 0.18441 0.85671 0.56422 0.0
H239 H 0.12907 0.9134 0.55201 0.0
H240 H 0.17169 0.05548 0.55577 0.0
H241 H 0.24732 0.03736 0.57051 0.0
C242 C 0.27504 0.95468 0.58422 0.0
C243 C 0.28511 0.90962 0.59046 0.0
C244 C 0.23232 0.96477 0.57095 0.0
C245 C 0.252 0.87459 0.58225 0.0
C246 C 0.20934 0.88437 0.56934 0.0
C247 C 0.15525 0.94007 0.55449 0.0
C248 C 0.14499 0.98563 0.5524 0.0
C249 C 0.19886 0.92944 0.56415 0.0
C250 C 0.17901 0.02009 0.5568 0.0
C251 C 0.2222 0.00983 0.56574 0.0
H252 H 0.72458 0.38408 0.96162 0.0
H253 H 0.73798 0.43142 0.82442 0.0
H254 H 0.80921 0.46553 0.84324 0.0
H255 H 0.86917 0.48041 0.89502 0.0
H256 H 0.86621 0.42999 0.0307 0.0
H257 H 0.7905 0.39702 0.01544 0.0
C258 C 0.74317 0.40178 0.93597 0.0
C259 C 0.72421 0.40671 0.89215 0.0
C260 C 0.78649 0.42009 0.94628 0.0
C261 C 0.74966 0.42903 0.85921 0.0
C262 C 0.79123 0.44808 0.86955 0.0
C263 C 0.85213 0.46252 0.92173 0.0
C264 C 0.873 0.45813 0.96403 0.0
C265 C 0.80985 0.44377 0.91263 0.0
C266 C 0.85067 0.43382 0.99769 0.0
C267 C 0.80742 0.4152 0.98897 0.0
H268 H 0.77419 0.64949 0.45286 0.0
H269 H 0.81764 0.52275 0.39753 0.0
H270 H 0.74777 0.484 0.41567 0.0
H271 H 0.67157 0.48743 0.43881 0.0
H272 H 0.62683 0.61255 0.49619 0.0
H273 H 0.69987 0.65022 0.48663 0.0
C274 C 0.76866 0.61324 0.44571 0.0
C275 C 0.80089 0.58933 0.42281 0.0
C276 C 0.72793 0.59088 0.45618 0.0
C277 C 0.79313 0.54224 0.41408 0.0
C278 C 0.75314 0.51996 0.42449 0.0
C279 C 0.6779 0.52284 0.44973 0.0
C280 C 0.64355 0.54733 0.46738 0.0
C281 C 0.71981 0.54419 0.44406 0.0
C282 C 0.6526 0.59293 0.48225 0.0
C283 C 0.69435 0.61457 0.47654 0.0
H284 H 0.16871 0.2711 0.12134 0.0
H285 H 0.07368 0.17486 0.0553 0.0
H286 H 0.03761 0.23683 0.01947 0.0
H287 H 0.02674 0.31998 0.01676 0.0
H288 H 0.12441 0.41487 0.08105 0.0
H289 H 0.16522 0.35263 0.10783 0.0
C290 C 0.14071 0.26373 0.09825 0.0
C291 C 0.12377 0.21853 0.09106 0.0
C292 C 0.12015 0.29961 0.07784 0.0
C293 C 0.08718 0.20945 0.06146 0.0
C294 C 0.06649 0.24494 0.04108 0.0
C295 C 0.0581 0.3269 0.03452 0.0
C296 C 0.07287 0.37228 0.04594 0.0
C297 C 0.08182 0.29043 0.05008 0.0
C298 C 0.11293 0.38042 0.07052 0.0
C299 C 0.13603 0.34474 0.08659 0.0
H300 H 0.66264 0.24722 0.89744 0.0
H301 H 0.53872 0.30208 0.86401 0.0
H302 H 0.49932 0.23396 0.88914 0.0
H303 H 0.49935 0.16512 0.93121 0.0
H304 H 0.62125 0.11388 0.97502 0.0
H305 H 0.66233 0.17249 0.93326 0.0
C306 C 0.62707 0.24406 0.89554 0.0
C307 C 0.60371 0.27975 0.87891 0.0
C308 C 0.6043 0.2049 0.91106 0.0
C309 C 0.55757 0.27497 0.87617 0.0
C310 C 0.53491 0.236 0.89053 0.0
C311 C 0.53489 0.16549 0.92954 0.0
C312 C 0.5574 0.13533 0.95549 0.0
C313 C 0.55787 0.20133 0.90898 0.0
C314 C 0.60336 0.13635 0.95431 0.0
C315 C 0.62676 0.17061 0.93148 0.0
H316 H 0.88125 0.72847 0.47802 0.0
H317 H 0.99337 0.69575 0.3978 0.0
H318 H 0.0278 0.77024 0.41593 0.0
H319 H 0.02041 0.849 0.44318 0.0
H320 H 0.91174 0.88118 0.52686 0.0
H321 H 0.88469 0.80116 0.52327 0.0
C322 C 0.91383 0.73644 0.46554 0.0
C323 C 0.93242 0.70664 0.4333 0.0
C324 C 0.9352 0.77922 0.47812 0.0
C325 C 0.97563 0.71848 0.41932 0.0
C326 C 0.9963 0.76113 0.43061 0.0
C327 C 0.99231 0.83802 0.46298 0.0
C328 C 0.96808 0.87104 0.48511 0.0
C329 C 0.97552 0.7925 0.45831 0.0
C330 C 0.93122 0.85645 0.50982 0.0
C331 C 0.91509 0.81077 0.5067 0.0
H332 H 0.3817 0.76518 0.62201 0.0
H333 H 0.44201 0.84711 0.51989 0.0
H334 H 0.47585 0.78024 0.48644 0.0
H335 H 0.49403 0.69896 0.49205 0.0
H336 H 0.43028 0.61964 0.59465 0.0
H337 H 0.39206 0.68413 0.6217 0.0
C338 C 0.40204 0.76814 0.59223 0.0
C339 C 0.4102 0.81066 0.5738 0.0
C340 C 0.42075 0.72979 0.57317 0.0
C341 C 0.43605 0.81447 0.53492 0.0
C342 C 0.45522 0.77629 0.51581 0.0
C343 C 0.47056 0.69564 0.51913 0.0
C344 C 0.46451 0.65411 0.5407 0.0
C345 C 0.44855 0.73374 0.53524 0.0
C346 C 0.4347 0.65058 0.57653 0.0
C347 C 0.41318 0.68781 0.59265 0.0
H348 H 0.85096 0.89434 0.75698 0.0
H349 H 0.9758 0.87878 0.82476 0.0
H350 H 0.01405 0.90214 0.75694 0.0
H351 H 0.01302 0.93425 0.68159 0.0
H352 H 0.88997 0.95483 0.61381 0.0
H353 H 0.85007 0.92206 0.678 0.0
C354 C 0.88654 0.8961 0.75699 0.0
C355 C 0.91026 0.88467 0.79642 0.0
C356 C 0.9087 0.91033 0.71768 0.0
C357 C 0.95641 0.88661 0.79514 0.0
C358 C 0.97846 0.90027 0.7563 0.0
C359 C 0.97742 0.93021 0.68027 0.0
C360 C 0.95443 0.94623 0.64277 0.0
C361 C 0.95504 0.91283 0.71774 0.0
C362 C 0.90836 0.94166 0.64174 0.0
C363 C 0.88564 0.92362 0.67883 0.0
H364 H 0.66395 0.08387 0.27793 0.0
H365 H 0.54038 0.10909 0.34036 0.0
H366 H 0.5009 0.07653 0.27252 0.0
H367 H 0.50161 0.05097 0.19184 0.0
H368 H 0.62415 0.02591 0.12858 0.0
H369 H 0.66375 0.04611 0.20098 0.0
C370 C 0.62837 0.0813 0.27736 0.0
C371 C 0.6054 0.10013 0.3143 0.0
C372 C 0.60559 0.06204 0.23808 0.0
C373 C 0.55919 0.09642 0.31223 0.0
C374 C 0.53645 0.07732 0.2735 0.0
C375 C 0.5368 0.04791 0.19456 0.0
C376 C 0.55987 0.03628 0.15515 0.0
C377 C 0.5593 0.06131 0.23574 0.0
C378 C 0.60556 0.03358 0.15869 0.0
C379 C 0.62824 0.04609 0.19991 0.0
H380 H 0.40595 0.67699 0.29016 0.0
H381 H 0.36297 0.55533 0.21042 0.0
H382 H 0.38598 0.50875 0.27179 0.0
H383 H 0.42603 0.50201 0.34323 0.0
H384 H 0.48008 0.62167 0.41829 0.0
H385 H 0.44335 0.66985 0.36502 0.0
C386 C 0.40169 0.6403 0.28625 0.0
C387 C 0.38265 0.61976 0.24569 0.0
C388 C 0.41616 0.61347 0.32134 0.0
C389 C 0.37688 0.57213 0.24143 0.0
C390 C 0.39009 0.54539 0.2765 0.0
C391 C 0.42819 0.53868 0.34888 0.0
C392 C 0.45495 0.55847 0.38474 0.0
C393 C 0.41034 0.56567 0.31617 0.0
C394 C 0.4587 0.60584 0.39145 0.0
C395 C 0.43856 0.63326 0.36037 0.0
H396 H 0.10223 0.36617 0.74459 0.0
H397 H 0.10362 0.49194 0.67449 0.0
H398 H 0.08097 0.53169 0.74327 0.0
H399 H 0.05823 0.53132 0.82148 0.0
H400 H 0.04951 0.4071 0.89347 0.0
H401 H 0.07936 0.36651 0.82686 0.0
C402 C 0.09716 0.40216 0.74448 0.0
C403 C 0.10479 0.42606 0.70423 0.0
C404 C 0.0838 0.42525 0.78476 0.0
C405 C 0.0984 0.47278 0.70483 0.0
C406 C 0.08556 0.49564 0.74426 0.0
C407 C 0.06347 0.4954 0.82306 0.0
C408 C 0.05178 0.47235 0.86249 0.0
C409 C 0.07822 0.47232 0.78424 0.0
C410 C 0.05892 0.42588 0.8639 0.0
C411 C 0.07522 0.40258 0.82542 0.0
H412 H 0.79566 0.91147 0.9775 0.0
H413 H 0.76436 0.9012 0.83296 0.0
H414 H 0.69717 0.93853 0.84562 0.0
H415 H 0.64262 0.96654 0.89716 0.0
H416 H 0.66731 0.9715 0.04207 0.0
H417 H 0.74123 0.94516 0.03006 0.0
C418 C 0.77409 0.91731 0.94884 0.0
C419 C 0.78594 0.90354 0.90414 0.0
C420 C 0.73416 0.93852 0.95637 0.0
C421 C 0.75721 0.9119 0.86761 0.0
C422 C 0.71836 0.93326 0.87476 0.0
C423 C 0.66497 0.96379 0.92603 0.0
C424 C 0.6499 0.97234 0.97032 0.0
C425 C 0.70619 0.94621 0.91887 0.0
C426 C 0.6786 0.96681 0.00752 0.0
C427 C 0.72056 0.95068 1.00061 0.0
H428 H 0.71686 0.06015 0.44327 0.0
H429 H 0.76931 0.18988 0.40008 0.0
H430 H 0.84371 0.17097 0.42156 0.0
H431 H 0.89446 0.11438 0.44656 0.0
H432 H 0.84168 0.98557 0.49154 0.0
H433 H 0.76685 0.00729 0.47655 0.0
C434 C 0.74469 0.08416 0.43878 0.0
C435 C 0.73801 0.12593 0.41955 0.0
C436 C 0.78719 0.07336 0.45202 0.0
C437 C 0.77399 0.15731 0.41452 0.0
C438 C 0.81642 0.14658 0.42688 0.0
C439 C 0.86638 0.09191 0.4545 0.0
C440 C 0.87313 0.04887 0.47082 0.0
C441 C 0.82352 0.10443 0.44509 0.0
C442 C 0.83686 0.01929 0.47991 0.0
C443 C 0.7942 0.03145 0.47076 0.0
H444 H 0.2886 0.62117 0.06479 0.0
H445 H 0.2417 0.67729 0.19131 0.0
H446 H 0.16697 0.64872 0.17077 0.0
H447 H 0.11729 0.5998 0.12238 0.0
H448 H 0.16134 0.54065 0.99627 0.0
H449 H 0.23478 0.57909 0.0101 0.0
C450 C 0.26161 0.62804 0.08697 0.0
C451 C 0.2701 0.65119 0.12944 0.0
C452 C 0.21856 0.61078 0.07512 0.0
C453 C 0.23542 0.65966 0.15846 0.0
C454 C 0.19288 0.6432 0.14683 0.0
C455 C 0.14277 0.59628 0.09743 0.0
C456 C 0.13448 0.5676 0.05865 0.0
C457 C 0.18439 0.61759 0.10608 0.0
C458 C 0.1673 0.56299 0.02629 0.0
C459 C 0.20924 0.58458 0.03446 0.0
H460 H 0.24872 0.43424 0.65179 0.0
H461 H 0.19993 0.42681 0.51262 0.0
H462 H 0.27241 0.4545 0.48664 0.0
H463 H 0.35062 0.48174 0.50455 0.0
H464 H 0.39542 0.4891 0.64542 0.0
H465 H 0.32371 0.46093 0.66944 0.0
C466 C 0.25354 0.43942 0.6158 0.0
C467 C 0.2188 0.42898 0.58437 0.0
C468 C 0.29492 0.45516 0.6013 0.0
C469 C 0.22619 0.4346 0.53764 0.0
C470 C 0.26764 0.45044 0.52277 0.0
C471 C 0.34455 0.4767 0.54032 0.0
C472 C 0.37829 0.48775 0.57313 0.0
C473 C 0.30248 0.46072 0.55436 0.0
C474 C 0.36994 0.48135 0.61948 0.0
C475 C 0.32891 0.46519 0.63339 0.0
H476 H 0.84822 0.74432 0.93869 0.0
H477 H 0.96785 0.83017 0.93828 0.0
H478 H 0.00904 0.76968 0.96875 0.0
H479 H 0.0133 0.68881 0.98501 0.0
H480 H 0.89458 0.60226 0.98751 0.0
H481 H 0.85116 0.66584 0.96725 0.0
C482 C 0.88304 0.75014 0.94654 0.0
C483 C 0.90488 0.79186 0.93571 0.0
C484 C 0.90697 0.71465 0.96405 0.0
C485 C 0.9502 0.79845 0.94582 0.0
C486 C 0.9739 0.76372 0.96317 0.0
C487 C 0.97776 0.68436 0.98296 0.0
C488 C 0.95728 0.64091 0.98877 0.0
C489 C 0.953 0.72117 0.97099 0.0
C490 C 0.91119 0.63552 0.98465 0.0
C491 C 0.88634 0.67186 0.97234 0.0
H492 H 0.35388 0.79284 0.12931 0.0
H493 H 0.47043 0.72182 0.15692 0.0
H494 H 0.51601 0.78475 0.12927 0.0
H495 H 0.52202 0.8522 0.08453 0.0
H496 H 0.40616 0.91827 0.04603 0.0
H497 H 0.36105 0.86601 0.09146 0.0
C498 C 0.38924 0.79111 0.12932 0.0
C499 C 0.40848 0.7522 0.14483 0.0
C500 C 0.4154 0.82684 0.11166 0.0
C501 C 0.45451 0.75125 0.14566 0.0
C502 C 0.48074 0.78722 0.12961 0.0
C503 C 0.48714 0.85639 0.08802 0.0
C504 C 0.46726 0.88891 0.06262 0.0
C505 C 0.46145 0.82432 0.11115 0.0
C506 C 0.4221 0.89393 0.06626 0.0
C507 C 0.3963 0.86338 0.09134 0.0
H508 H 0.03429 0.30916 0.59272 0.0
H509 H 0.16736 0.28251 0.55767 0.0
H510 H 0.14299 0.20757 0.5274 0.0
H511 H 0.08788 0.14437 0.52555 0.0
H512 H 0.95799 0.1651 0.57244 0.0
H513 H 0.97599 0.24706 0.58086 0.0
C514 C 0.05789 0.28708 0.57821 0.0
C515 C 0.1027 0.30206 0.57771 0.0
C516 C 0.04393 0.24262 0.56225 0.0
C517 C 0.13257 0.27284 0.55804 0.0
C518 C 0.11873 0.22952 0.54078 0.0
C519 C 0.06279 0.16726 0.53499 0.0
C520 C 0.02176 0.14888 0.5483 0.0
C521 C 0.07488 0.21347 0.5442 0.0
C522 C 0.98968 0.17859 0.56138 0.0
C523 C 1.00046 0.22536 0.56753 0.0
H524 H 0.55111 0.21036 0.43079 0.0
H525 H 0.68424 0.2696 0.43173 0.0
H526 H 0.66004 0.34084 0.46328 0.0
H527 H 0.60061 0.38947 0.48245 0.0
H528 H 0.46667 0.33453 0.47327 0.0
H529 H 0.49135 0.25867 0.45458 0.0
C530 C 0.5748 0.23884 0.43794 0.0
C531 C 0.61957 0.23413 0.42903 0.0
C532 C 0.5605 0.28054 0.45541 0.0
C533 C 0.64974 0.27157 0.4389 0.0
C534 C 0.63593 0.3126 0.45688 0.0
C535 C 0.57704 0.36037 0.47852 0.0
C536 C 0.53203 0.36715 0.48081 0.0
C537 C 0.5914 0.31772 0.46474 0.0
C538 C 0.50156 0.32972 0.47332 0.0
C539 C 0.51569 0.28657 0.46165 0.0
loop_
_geom_bond_atom_site_label_1
_geom_bond_atom_site_label_2
_geom_bond_distance
_geom_bond_site_symmetry_2
_ccdc_geom_bond_type
H0 C3 0.931 . S
H1 C6 0.928 . S
H2 C8 0.930 . S
C3 H0 0.931 . S
C3 C4 1.413 . S
C3 C5 1.360 . S
C4 C3 1.413 . S
C4 C8 1.429 . S
C5 C3 1.360 . S
C5 C6 1.372 . S
C6 H1 0.928 . S
C6 C5 1.372 . S
C6 C7 1.404 . S
C7 C6 1.404 . S
C7 C8 1.391 . S
C8 H2 0.930 . S
C8 C4 1.429 . S
C8 C7 1.391 . S
H9 C12 0.931 . S
H10 C15 0.928 . S
H11 C17 0.930 . S
C12 H9 0.931 . S
C12 C13 1.413 . S
C12 C14 1.360 . S
C13 C12 1.413 . S
C13 C17 1.429 . S
C14 C12 1.360 . S
C14 C15 1.372 . S
C15 H10 0.928 . S
C15 C14 1.372 . S
C15 C16 1.404 . S
C16 C15 1.404 . S
C16 C17 1.391 . S
C17 H11 0.930 . S
C17 C13 1.429 . S
C17 C16 1.391 . S
H18 C21 0.931 . S
H19 C24 0.928 . S
H20 C26 0.930 . S
C21 H18 0.931 . S
C21 C22 1.413 . S
C21 C23 1.360 . S
C22 C21 1.413 . S
C22 C26 1.429 . S
C23 C21 1.360 . S
C23 C24 1.372 . S
C24 H19 0.928 . S
C24 C23 1.372 . S
C24 C25 1.404 . S
C25 C24 1.404 . S
C25 C26 1.391 . S
C26 H20 0.930 . S
C26 C22 1.429 . S
C26 C25 1.391 . S
H27 C30 0.931 . S
H28 C33 0.928 . S
H29 C35 0.930 . S
C30 H27 0.931 . S
C30 C31 1.413 . S
C30 C32 1.360 . S
C31 C30 1.413 . S
C31 C35 1.429 . S
C32 C30 1.360 . S
C32 C33 1.372 . S
C33 H28 0.928 . S
C33 C32 1.372 . S
C33 C34 1.404 . S
C34 C33 1.404 . S
C34 C35 1.391 . S
C35 H29 0.930 . S
C35 C31 1.429 . S
C35 C34 1.391 . S
H36 C39 0.931 . S
H37 C42 0.928 . S
H38 C44 0.930 . S
C39 H36 0.931 . S
C39 C40 1.413 . S
C39 C41 1.360 . S
C40 C39 1.413 . S
C40 C44 1.429 . S
C41 C39 1.360 . S
C41 C42 1.372 . S
C42 H37 0.928 . S
C42 C41 1.372 . S
C42 C43 1.404 . S
C43 C42 1.404 . S
C43 C44 1.391 . S
C44 H38 0.930 . S
C44 C40 1.429 . S
C44 C43 1.391 . S
H45 C48 0.931 . S
H46 C51 0.928 . S
H47 C53 0.930 . S
C48 H45 0.931 . S
C48 C49 1.413 . S
C48 C50 1.360 . S
C49 C48 1.413 . S
C49 C53 1.429 . S
C50 C48 1.360 . S
C50 C51 1.372 . S
C51 H46 0.928 . S
C51 C50 1.372 . S
C51 C52 1.404 . S
C52 C51 1.404 . S
C52 C53 1.391 . S
C53 H47 0.930 . S
C53 C49 1.429 . S
C53 C52 1.391 . S
H54 C57 0.931 . S
H55 C60 0.928 . S
H56 C62 0.930 . S
C57 H54 0.931 . S
C57 C58 1.413 . S
C57 C59 1.360 . S
C58 C57 1.413 . S
C58 C62 1.429 . S
C59 C57 1.360 . S
C59 C60 1.372 . S
C60 H55 0.928 . S
C60 C59 1.372 . S
C60 C61 1.404 . S
C61 C60 1.404 . S
C61 C62 1.391 . S
C62 H56 0.930 . S
C62 C58 1.429 . S
C62 C61 1.391 . S
H63 C66 0.931 . S
H64 C69 0.928 . S
H65 C71 0.930 . S
C66 H63 0.931 . S
C66 C67 1.413 . S
C66 C68 1.360 . S
C67 C66 1.413 . S
C67 C71 1.429 . S
C68 C66 1.360 . S
C68 C69 1.372 . S
C69 H64 0.928 . S
C69 C68 1.372 . S
C69 C70 1.404 . S
C70 C69 1.404 . S
C70 C71 1.391 . S
C71 H65 0.930 . S
C71 C67 1.429 . S
C71 C70 1.391 . S
O72 Mn73 2.163 1_655 S
O72 C86 1.244 . S
Mn73 O72 2.163 1_455 S
Mn73 O76 2.160 1_545 S
Mn73 O77 2.221 . S
Mn73 O79 2.163 1_445 S
Mn73 O81 2.160 . S
Mn73 O91 2.221 1_445 S
O74 Mn75 2.087 1_545 S
O74 C86 1.256 . S
Mn75 O74 2.087 1_565 S
Mn75 O82 2.089 1_565 S
Mn75 O91 2.290 . S
Mn75 O92 2.251 . S
O76 Mn73 2.160 1_565 S
O76 C87 1.239 . S
O77 Mn73 2.221 . S
O77 Mn78 2.290 . S
O77 C88 1.278 . S
Mn78 O77 2.290 . S
Mn78 O80 2.089 1_545 S
Mn78 O83 2.251 . S
Mn78 O84 2.087 . S
O79 Mn73 2.163 1_665 S
O79 C89 1.244 . S
O80 Mn78 2.089 1_565 S
O80 C87 1.256 . S
O81 Mn73 2.160 . S
O81 C90 1.239 . S
O82 Mn75 2.089 1_545 S
O82 C90 1.256 1_655 S
O83 Mn78 2.251 . S
O83 C88 1.241 . S
O84 Mn78 2.087 . S
O84 C89 1.256 1_445 S
C85 O91 1.278 . S
C85 O92 1.241 . S
C86 O72 1.244 . S
C86 O74 1.256 . S
C87 O76 1.239 . S
C87 O80 1.256 . S
C88 O77 1.278 . S
C88 O83 1.241 . S
C89 O79 1.244 . S
C89 O84 1.256 1_665 S
C90 O81 1.239 . S
C90 O82 1.256 1_455 S
O91 Mn73 2.221 1_665 S
O91 Mn75 2.290 . S
O91 C85 1.278 . S
O92 Mn75 2.251 . S
O92 C85 1.241 . S
O93 Mn94 2.163 1_556 S
O93 C107 1.244 1_545 S
Mn94 O93 2.163 1_554 S
Mn94 O97 2.160 . S
Mn94 O98 2.221 1_554 S
Mn94 O100 2.163 . S
Mn94 O102 2.160 1_544 S
Mn94 O112 2.221 1_545 S
O95 Mn96 2.087 . S
O95 C107 1.256 . S
Mn96 O95 2.087 . S
Mn96 O103 2.089 . S
Mn96 O112 2.290 1_556 S
Mn96 O113 2.250 . S
O97 Mn94 2.160 . S
O97 C108 1.239 . S
O98 Mn94 2.221 1_556 S
O98 Mn99 2.290 1_556 S
O98 C109 1.278 . S
Mn99 O98 2.290 1_554 S
Mn99 O101 2.089 . S
Mn99 O104 2.251 1_554 S
Mn99 O105 2.087 . S
O100 Mn94 2.163 . S
O100 C110 1.244 . S
O101 Mn99 2.089 . S
O101 C108 1.256 . S
O102 Mn94 2.160 1_566 S
O102 C111 1.239 . S
O103 Mn96 2.089 . S
O103 C111 1.256 . S
O104 Mn99 2.251 1_556 S
O104 C109 1.241 . S
O105 Mn99 2.087 . S
O105 C110 1.256 . S
C106 O112 1.278 . S
C106 O113 1.242 1_554 S
C107 O93 1.244 1_565 S
C107 O95 1.256 . S
C108 O97 1.239 . S
C108 O101 1.256 . S
C109 O98 1.278 . S
C109 O104 1.241 . S
C110 O100 1.244 . S
C110 O105 1.256 . S
C111 O102 1.239 . S
C111 O103 1.256 . S
O112 Mn94 2.221 1_565 S
O112 Mn96 2.290 1_554 S
O112 C106 1.278 . S
O113 Mn96 2.250 . S
O113 C106 1.242 1_556 S
O114 Mn115 2.163 . S
O114 C128 1.244 . S
Mn115 O114 2.163 . S
Mn115 O118 2.160 . S
Mn115 O119 2.221 . S
Mn115 O121 2.163 . S
Mn115 O123 2.160 . S
Mn115 O133 2.221 . S
O116 Mn117 2.087 . S
O116 C128 1.256 . S
Mn117 O116 2.087 . S
Mn117 O124 2.089 . S
Mn117 O133 2.290 . S
Mn117 O134 2.251 . S
O118 Mn115 2.160 . S
O118 C129 1.239 . S
O119 Mn115 2.221 . S
O119 Mn120 2.290 . S
O119 C130 1.278 . S
Mn120 O119 2.290 . S
Mn120 O122 2.089 . S
Mn120 O125 2.251 . S
Mn120 O126 2.087 . S
O121 Mn115 2.163 . S
O121 C131 1.244 . S
O122 Mn120 2.089 . S
O122 C129 1.256 . S
O123 Mn115 2.160 . S
O123 C132 1.239 . S
O124 Mn117 2.089 . S
O124 C132 1.256 . S
O125 Mn120 2.251 . S
O125 C130 1.241 . S
O126 Mn120 2.087 . S
O126 C131 1.256 . S
C127 O133 1.278 . S
C127 O134 1.241 . S
C128 O114 1.244 . S
C128 O116 1.256 . S
C129 O118 1.239 . S
C129 O122 1.256 . S
C130 O119 1.278 . S
C130 O125 1.241 . S
C131 O121 1.244 . S
C131 O126 1.256 . S
C132 O123 1.239 . S
C132 O124 1.256 . S
O133 Mn115 2.221 . S
O133 Mn117 2.290 . S
O133 C127 1.278 . S
O134 Mn117 2.251 . S
O134 C127 1.241 . S
O135 Mn136 2.163 1_655 S
O135 C149 1.244 1_554 S
Mn136 O135 2.163 1_455 S
Mn136 O139 2.160 . S
Mn136 O140 2.221 1_455 S
Mn136 O142 2.163 . S
Mn136 O144 2.160 1_454 S
Mn136 O154 2.221 1_554 S
O137 Mn138 2.087 . S
O137 C149 1.256 . S
Mn138 O137 2.087 . S
Mn138 O145 2.089 . S
Mn138 O154 2.290 1_655 S
Mn138 O155 2.251 . S
O139 Mn136 2.160 . S
O139 C150 1.239 . S
O140 Mn136 2.221 1_655 S
O140 Mn141 2.290 1_655 S
O140 C151 1.278 . S
Mn141 O140 2.290 1_455 S
Mn141 O143 2.089 . S
Mn141 O146 2.251 1_455 S
Mn141 O147 2.087 . S
O142 Mn136 2.163 . S
O142 C152 1.244 . S
O143 Mn141 2.089 . S
O143 C150 1.256 . S
O144 Mn136 2.160 1_656 S
O144 C153 1.239 . S
O145 Mn138 2.089 . S
O145 C153 1.256 . S
O146 Mn141 2.251 1_655 S
O146 C151 1.241 . S
O147 Mn141 2.087 . S
O147 C152 1.256 . S
C148 O154 1.278 . S
C148 O155 1.241 1_455 S
C149 O135 1.244 1_556 S
C149 O137 1.256 . S
C150 O139 1.239 . S
C150 O143 1.256 . S
C151 O140 1.278 . S
C151 O146 1.241 . S
C152 O142 1.244 . S
C152 O147 1.256 . S
C153 O144 1.239 . S
C153 O145 1.256 . S
O154 Mn136 2.221 1_556 S
O154 Mn138 2.290 1_455 S
O154 C148 1.278 . S
O155 Mn138 2.251 . S
O155 C148 1.241 1_655 S
H156 C162 0.930 . S
H157 C165 0.930 . S
H158 C166 0.930 . S
H159 C167 0.930 . S
H160 C170 0.930 . S
H161 C171 0.930 . S
C162 H156 0.930 . S
C162 C163 1.355 . S
C162 C164 1.415 . S
C163 C162 1.355 . S
C163 C165 1.419 . S
C164 C162 1.415 . S
C164 C169 1.425 . S
C164 C171 1.409 . S
C165 H157 0.930 . S
C165 C163 1.419 . S
C165 C166 1.362 . S
C166 H158 0.930 . S
C166 C165 1.362 . S
C166 C169 1.409 . S
C167 H159 0.930 . S
C167 C168 1.355 . S
C167 C169 1.415 . S
C168 C167 1.355 . S
C168 C170 1.419 . S
C169 C164 1.425 . S
C169 C166 1.409 . S
C169 C167 1.415 . S
C170 H160 0.930 . S
C170 C168 1.419 . S
C170 C171 1.362 . S
C171 H161 0.930 . S
C171 C164 1.409 . S
C171 C170 1.362 . S
H172 C178 0.930 . S
H173 C181 0.930 . S
H174 C182 0.930 . S
H175 C183 0.930 . S
H176 C186 0.930 1_545 S
H177 C187 0.930 . S
C178 H172 0.930 . S
C178 C179 1.355 . S
C178 C180 1.415 . S
C179 C178 1.355 . S
C179 C181 1.419 . S
C180 C178 1.415 . S
C180 C185 1.425 . S
C180 C187 1.409 . S
C181 H173 0.930 . S
C181 C179 1.419 . S
C181 C182 1.362 . S
C182 H174 0.930 . S
C182 C181 1.362 . S
C182 C185 1.409 . S
C183 H175 0.930 . S
C183 C184 1.355 . S
C183 C185 1.415 . S
C184 C183 1.355 . S
C184 C186 1.419 . S
C185 C180 1.425 . S
C185 C182 1.409 . S
C185 C183 1.415 . S
C186 H176 0.930 1_565 S
C186 C184 1.419 . S
C186 C187 1.362 . S
C187 H177 0.930 . S
C187 C180 1.409 . S
C187 C186 1.362 . S
H188 C194 0.930 . S
H189 C197 0.930 . S
H190 C198 0.930 . S
H191 C199 0.930 . S
H192 C202 0.930 . S
H193 C203 0.930 . S
C194 H188 0.930 . S
C194 C195 1.355 . S
C194 C196 1.415 . S
C195 C194 1.355 . S
C195 C197 1.419 . S
C196 C194 1.415 . S
C196 C201 1.425 . S
C196 C203 1.409 . S
C197 H189 0.930 . S
C197 C195 1.419 . S
C197 C198 1.362 . S
C198 H190 0.930 . S
C198 C197 1.362 . S
C198 C201 1.409 . S
C199 H191 0.930 . S
C199 C200 1.355 . S
C199 C201 1.415 . S
C200 C199 1.355 . S
C200 C202 1.419 . S
C201 C196 1.425 . S
C201 C198 1.409 . S
C201 C199 1.415 . S
C202 H192 0.930 . S
C202 C200 1.419 . S
C202 C203 1.362 . S
C203 H193 0.930 . S
C203 C196 1.409 . S
C203 C202 1.362 . S
H204 C210 0.930 . S
H205 C213 0.930 . S
H206 C214 0.930 . S
H207 C215 0.930 . S
H208 C218 0.930 . S
H209 C219 0.930 . S
C210 H204 0.930 . S
C210 C211 1.355 . S
C210 C212 1.415 . S
C211 C210 1.355 . S
C211 C213 1.419 . S
C212 C210 1.415 . S
C212 C217 1.425 . S
C212 C219 1.409 . S
C213 H205 0.930 . S
C213 C211 1.419 . S
C213 C214 1.362 . S
C214 H206 0.930 . S
C214 C213 1.362 . S
C214 C217 1.409 . S
C215 H207 0.930 . S
C215 C216 1.355 . S
C215 C217 1.415 . S
C216 C215 1.355 . S
C216 C218 1.419 . S
C217 C212 1.425 . S
C217 C214 1.409 . S
C217 C215 1.415 . S
C218 H208 0.930 . S
C218 C216 1.419 . S
C218 C219 1.362 . S
C219 H209 0.930 . S
C219 C212 1.409 . S
C219 C218 1.362 . S
H220 C226 0.930 . S
H221 C229 0.930 . S
H222 C230 0.930 . S
H223 C231 0.930 . S
H224 C234 0.930 1_556 S
H225 C235 0.930 1_556 S
C226 H220 0.930 . S
C226 C227 1.355 . S
C226 C228 1.415 . S
C227 C226 1.355 . S
C227 C229 1.419 . S
C228 C226 1.415 . S
C228 C233 1.425 . S
C228 C235 1.409 . S
C229 H221 0.930 . S
C229 C227 1.419 . S
C229 C230 1.362 . S
C230 H222 0.930 . S
C230 C229 1.362 . S
C230 C233 1.409 . S
C231 H223 0.930 . S
C231 C232 1.355 . S
C231 C233 1.415 . S
C232 C231 1.355 . S
C232 C234 1.419 . S
C233 C228 1.425 . S
C233 C230 1.409 . S
C233 C231 1.415 . S
C234 H224 0.930 1_554 S
C234 C232 1.419 . S
C234 C235 1.362 . S
C235 H225 0.930 1_554 S
C235 C228 1.409 . S
C235 C234 1.362 . S
H236 C242 0.930 . S
H237 C245 0.930 . S
H238 C246 0.930 . S
H239 C247 0.930 . S
H240 C250 0.930 1_545 S
H241 C251 0.930 1_545 S
C242 H236 0.930 . S
C242 C243 1.355 . S
C242 C244 1.415 . S
C243 C242 1.355 . S
C243 C245 1.419 . S
C244 C242 1.415 . S
C244 C249 1.425 . S
C244 C251 1.409 . S
C245 H237 0.930 . S
C245 C243 1.419 . S
C245 C246 1.362 . S
C246 H238 0.930 . S
C246 C245 1.362 . S
C246 C249 1.409 . S
C247 H239 0.930 . S
C247 C248 1.355 . S
C247 C249 1.415 . S
C248 C247 1.355 . S
C248 C250 1.419 . S
C249 C244 1.425 . S
C249 C246 1.409 . S
C249 C247 1.415 . S
C250 H240 0.930 1_565 S
C250 C248 1.419 . S
C250 C251 1.362 . S
C251 H241 0.930 1_565 S
C251 C244 1.409 . S
C251 C250 1.362 . S
H252 C258 0.930 . S
H253 C261 0.930 . S
H254 C262 0.930 . S
H255 C263 0.930 . S
H256 C266 0.930 . S
H257 C267 0.930 1_554 S
C258 H252 0.930 . S
C258 C259 1.355 . S
C258 C260 1.415 . S
C259 C258 1.355 . S
C259 C261 1.419 . S
C260 C258 1.415 . S
C260 C265 1.425 . S
C260 C267 1.409 . S
C261 H253 0.930 . S
C261 C259 1.419 . S
C261 C262 1.362 . S
C262 H254 0.930 . S
C262 C261 1.362 . S
C262 C265 1.409 . S
C263 H255 0.930 . S
C263 C264 1.355 . S
C263 C265 1.415 . S
C264 C263 1.355 . S
C264 C266 1.419 1_556 S
C265 C260 1.425 . S
C265 C262 1.409 . S
C265 C263 1.415 . S
C266 H256 0.930 . S
C266 C264 1.419 1_554 S
C266 C267 1.362 1_554 S
C267 H257 0.930 1_556 S
C267 C260 1.409 . S
C267 C266 1.362 1_556 S
H268 C274 0.930 . S
H269 C277 0.930 . S
H270 C278 0.930 . S
H271 C279 0.930 . S
H272 C282 0.930 . S
H273 C283 0.930 . S
C274 H268 0.930 . S
C274 C275 1.355 . S
C274 C276 1.415 . S
C275 C274 1.355 . S
C275 C277 1.419 . S
C276 C274 1.415 . S
C276 C281 1.425 . S
C276 C283 1.409 . S
C277 H269 0.930 . S
C277 C275 1.419 . S
C277 C278 1.362 . S
C278 H270 0.930 . S
C278 C277 1.362 . S
C278 C281 1.409 . S
C279 H271 0.930 . S
C279 C280 1.355 . S
C279 C281 1.415 . S
C280 C279 1.355 . S
C280 C282 1.419 . S
C281 C276 1.425 . S
C281 C278 1.409 . S
C281 C279 1.415 . S
C282 H272 0.930 . S
C282 C280 1.419 . S
C282 C283 1.362 . S
C283 H273 0.930 . S
C283 C276 1.409 . S
C283 C282 1.362 . S
H284 C290 0.930 . S
H285 C293 0.930 . S
H286 C294 0.930 1_556 S
H287 C295 0.930 1_556 S
H288 C298 0.930 . S
H289 C299 0.930 . S
C290 H284 0.930 . S
C290 C291 1.355 . S
C290 C292 1.415 . S
C291 C290 1.355 . S
C291 C293 1.419 . S
C292 C290 1.415 . S
C292 C297 1.425 . S
C292 C299 1.409 . S
C293 H285 0.930 . S
C293 C291 1.419 . S
C293 C294 1.362 . S
C294 H286 0.930 1_554 S
C294 C293 1.362 . S
C294 C297 1.409 . S
C295 H287 0.930 1_554 S
C295 C296 1.355 . S
C295 C297 1.415 . S
C296 C295 1.355 . S
C296 C298 1.419 . S
C297 C292 1.425 . S
C297 C294 1.409 . S
C297 C295 1.415 . S
C298 H288 0.930 . S
C298 C296 1.419 . S
C298 C299 1.362 . S
C299 H289 0.930 . S
C299 C292 1.409 . S
C299 C298 1.362 . S
H300 C306 0.930 . S
H301 C309 0.930 . S
H302 C310 0.930 . S
H303 C311 0.930 . S
H304 C314 0.930 . S
H305 C315 0.930 . S
C306 H300 0.930 . S
C306 C307 1.355 . S
C306 C308 1.415 . S
C307 C306 1.355 . S
C307 C309 1.419 . S
C308 C306 1.415 . S
C308 C313 1.425 . S
C308 C315 1.409 . S
C309 H301 0.930 . S
C309 C307 1.419 . S
C309 C310 1.362 . S
C310 H302 0.930 . S
C310 C309 1.362 . S
C310 C313 1.409 . S
C311 H303 0.930 . S
C311 C312 1.355 . S
C311 C313 1.415 . S
C312 C311 1.355 . S
C312 C314 1.419 . S
C313 C308 1.425 . S
C313 C310 1.409 . S
C313 C311 1.415 . S
C314 H304 0.930 . S
C314 C312 1.419 . S
C314 C315 1.362 . S
C315 H305 0.930 . S
C315 C308 1.409 . S
C315 C314 1.362 . S
H316 C322 0.930 . S
H317 C325 0.930 . S
H318 C326 0.930 . S
H319 C327 0.930 . S
H320 C330 0.930 . S
H321 C331 0.930 . S
C322 H316 0.930 . S
C322 C323 1.355 . S
C322 C324 1.415 . S
C323 C322 1.355 . S
C323 C325 1.419 . S
C324 C322 1.415 . S
C324 C329 1.425 . S
C324 C331 1.409 . S
C325 H317 0.930 . S
C325 C323 1.419 . S
C325 C326 1.362 . S
C326 H318 0.930 . S
C326 C325 1.362 . S
C326 C329 1.409 . S
C327 H319 0.930 . S
C327 C328 1.355 . S
C327 C329 1.415 . S
C328 C327 1.355 . S
C328 C330 1.419 . S
C329 C324 1.425 . S
C329 C326 1.409 . S
C329 C327 1.415 . S
C330 H320 0.930 . S
C330 C328 1.419 . S
C330 C331 1.362 . S
C331 H321 0.930 . S
C331 C324 1.409 . S
C331 C330 1.362 . S
H332 C338 0.930 . S
H333 C341 0.930 . S
H334 C342 0.930 . S
H335 C343 0.930 . S
H336 C346 0.930 . S
H337 C347 0.930 . S
C338 H332 0.930 . S
C338 C339 1.355 . S
C338 C340 1.415 . S
C339 C338 1.355 . S
C339 C341 1.419 . S
C340 C338 1.415 . S
C340 C345 1.425 . S
C340 C347 1.409 . S
C341 H333 0.930 . S
C341 C339 1.419 . S
C341 C342 1.362 . S
C342 H334 0.930 . S
C342 C341 1.362 . S
C342 C345 1.409 . S
C343 H335 0.930 . S
C343 C344 1.355 . S
C343 C345 1.415 . S
C344 C343 1.355 . S
C344 C346 1.419 . S
C345 C340 1.425 . S
C345 C342 1.409 . S
C345 C343 1.415 . S
C346 H336 0.930 . S
C346 C344 1.419 . S
C346 C347 1.362 . S
C347 H337 0.930 . S
C347 C340 1.409 . S
C347 C346 1.362 . S
H348 C354 0.930 . S
H349 C357 0.930 . S
H350 C358 0.930 . S
H351 C359 0.908 1_455 S
H352 C362 0.930 1_545 S
H353 C363 0.930 . S
C354 H348 0.930 . S
C354 C355 1.355 . S
C354 C356 1.415 . S
C355 C354 1.355 . S
C355 C357 1.419 . S
C356 C354 1.415 . S
C356 C361 1.425 . S
C356 C363 1.409 . S
C357 H349 0.930 . S
C357 C355 1.419 . S
C357 C358 1.362 . S
C358 H350 0.930 . S
C358 C357 1.362 . S
C358 C361 1.409 . S
C359 H351 0.908 1_655 S
C359 C360 1.355 . S
C359 C361 1.415 . S
C360 C359 1.355 . S
C360 C362 1.419 . S
C361 C356 1.425 . S
C361 C358 1.409 . S
C361 C359 1.415 . S
C362 H352 0.930 1_565 S
C362 C360 1.419 . S
C362 C363 1.362 . S
C363 H353 0.930 . S
C363 C356 1.409 . S
C363 C362 1.362 . S
H364 C370 0.930 . S
H365 C373 0.930 . S
H366 C374 0.930 . S
H367 C375 0.930 . S
H368 C378 0.930 . S
H369 C379 0.930 . S
C370 H364 0.930 . S
C370 C371 1.355 . S
C370 C372 1.415 . S
C371 C370 1.355 . S
C371 C373 1.419 . S
C372 C370 1.415 . S
C372 C377 1.425 . S
C372 C379 1.409 . S
C373 H365 0.930 . S
C373 C371 1.419 . S
C373 C374 1.362 . S
C374 H366 0.930 . S
C374 C373 1.362 . S
C374 C377 1.409 . S
C375 H367 0.930 . S
C375 C376 1.355 . S
C375 C377 1.415 . S
C376 C375 1.355 . S
C376 C378 1.419 . S
C377 C372 1.425 . S
C377 C374 1.409 . S
C377 C375 1.415 . S
C378 H368 0.930 . S
C378 C376 1.419 . S
C378 C379 1.362 . S
C379 H369 0.930 . S
C379 C372 1.409 . S
C379 C378 1.362 . S
H380 C386 0.930 . S
H381 C389 0.930 . S
H382 C390 0.930 . S
H383 C391 0.930 . S
H384 C394 0.930 . S
H385 C395 0.930 . S
C386 H380 0.930 . S
C386 C387 1.355 . S
C386 C388 1.415 . S
C387 C386 1.355 . S
C387 C389 1.419 . S
C388 C386 1.415 . S
C388 C393 1.425 . S
C388 C395 1.409 . S
C389 H381 0.930 . S
C389 C387 1.419 . S
C389 C390 1.362 . S
C390 H382 0.930 . S
C390 C389 1.362 . S
C390 C393 1.409 . S
C391 H383 0.930 . S
C391 C392 1.355 . S
C391 C393 1.415 . S
C392 C391 1.355 . S
C392 C394 1.419 . S
C393 C388 1.425 . S
C393 C390 1.409 . S
C393 C391 1.415 . S
C394 H384 0.930 . S
C394 C392 1.419 . S
C394 C395 1.362 . S
C395 H385 0.930 . S
C395 C388 1.409 . S
C395 C394 1.362 . S
H396 C402 0.930 . S
H397 C405 0.930 . S
H398 C406 0.930 . S
H399 C407 0.930 . S
H400 C410 0.930 . S
H401 C411 0.930 . S
C402 H396 0.930 . S
C402 C403 1.355 . S
C402 C404 1.415 . S
C403 C402 1.355 . S
C403 C405 1.419 . S
C404 C402 1.415 . S
C404 C409 1.425 . S
C404 C411 1.409 . S
C405 H397 0.930 . S
C405 C403 1.419 . S
C405 C406 1.362 . S
C406 H398 0.930 . S
C406 C405 1.362 . S
C406 C409 1.409 . S
C407 H399 0.930 . S
C407 C408 1.355 . S
C407 C409 1.415 . S
C408 C407 1.355 . S
C408 C410 1.419 . S
C409 C404 1.425 . S
C409 C406 1.409 . S
C409 C407 1.415 . S
C410 H400 0.930 . S
C410 C408 1.419 . S
C410 C411 1.362 . S
C411 H401 0.930 . S
C411 C404 1.409 . S
C411 C410 1.362 . S
H412 C418 0.930 . S
H413 C421 0.930 . S
H414 C422 0.930 . S
H415 C423 0.930 . S
H416 C426 0.930 1_554 S
H417 C427 0.930 1_554 S
C418 H412 0.930 . S
C418 C419 1.355 . S
C418 C420 1.415 . S
C419 C418 1.355 . S
C419 C421 1.419 . S
C420 C418 1.415 . S
C420 C425 1.425 . S
C420 C427 1.409 . S
C421 H413 0.930 . S
C421 C419 1.419 . S
C421 C422 1.362 . S
C422 H414 0.930 . S
C422 C421 1.362 . S
C422 C425 1.409 . S
C423 H415 0.930 . S
C423 C424 1.355 . S
C423 C425 1.415 . S
C424 C423 1.355 . S
C424 C426 1.419 . S
C425 C420 1.425 . S
C425 C422 1.409 . S
C425 C423 1.415 . S
C426 H416 0.930 1_556 S
C426 C424 1.419 . S
C426 C427 1.362 . S
C427 H417 0.930 1_556 S
C427 C420 1.409 . S
C427 C426 1.362 . S
H428 C434 0.930 . S
H429 C437 0.930 . S
H430 C438 0.930 . S
H431 C439 0.930 . S
H432 C442 0.930 1_565 S
H433 C443 0.930 1_565 S
C434 H428 0.930 . S
C434 C435 1.355 . S
C434 C436 1.415 . S
C435 C434 1.355 . S
C435 C437 1.419 . S
C436 C434 1.415 . S
C436 C441 1.425 . S
C436 C443 1.409 . S
C437 H429 0.930 . S
C437 C435 1.419 . S
C437 C438 1.362 . S
C438 H430 0.930 . S
C438 C437 1.362 . S
C438 C441 1.409 . S
C439 H431 0.930 . S
C439 C440 1.355 . S
C439 C441 1.415 . S
C440 C439 1.355 . S
C440 C442 1.419 . S
C441 C436 1.425 . S
C441 C438 1.409 . S
C441 C439 1.415 . S
C442 H432 0.930 1_545 S
C442 C440 1.419 . S
C442 C443 1.362 . S
C443 H433 0.930 1_545 S
C443 C436 1.409 . S
C443 C442 1.362 . S
H444 C450 0.930 . S
H445 C453 0.930 . S
H446 C454 0.930 . S
H447 C455 0.930 . S
H448 C458 0.930 1_556 S
H449 C459 0.930 1_556 S
C450 H444 0.930 . S
C450 C451 1.355 . S
C450 C452 1.415 . S
C451 C450 1.355 . S
C451 C453 1.419 . S
C452 C450 1.415 . S
C452 C457 1.425 . S
C452 C459 1.409 . S
C453 H445 0.930 . S
C453 C451 1.419 . S
C453 C454 1.362 . S
C454 H446 0.930 . S
C454 C453 1.362 . S
C454 C457 1.409 . S
C455 H447 0.930 . S
C455 C456 1.355 . S
C455 C457 1.415 . S
C456 C455 1.355 . S
C456 C458 1.419 . S
C457 C452 1.425 . S
C457 C454 1.409 . S
C457 C455 1.415 . S
C458 H448 0.930 1_554 S
C458 C456 1.419 . S
C458 C459 1.362 . S
C459 H449 0.930 1_554 S
C459 C452 1.409 . S
C459 C458 1.362 . S
H460 C466 0.930 . S
H461 C469 0.930 . S
H462 C470 0.930 . S
H463 C471 0.930 . S
H464 C474 0.930 . S
H465 C475 0.930 . S
C466 H460 0.930 . S
C466 C467 1.355 . S
C466 C468 1.415 . S
C467 C466 1.355 . S
C467 C469 1.419 . S
C468 C466 1.415 . S
C468 C473 1.425 . S
C468 C475 1.409 . S
C469 H461 0.930 . S
C469 C467 1.419 . S
C469 C470 1.362 . S
C470 H462 0.930 . S
C470 C469 1.362 . S
C470 C473 1.409 . S
C471 H463 0.930 . S
C471 C472 1.355 . S
C471 C473 1.415 . S
C472 C471 1.355 . S
C472 C474 1.419 . S
C473 C468 1.425 . S
C473 C470 1.409 . S
C473 C471 1.415 . S
C474 H464 0.930 . S
C474 C472 1.419 . S
C474 C475 1.362 . S
C475 H465 0.930 . S
C475 C468 1.409 . S
C475 C474 1.362 . S
H476 C482 0.930 . S
H477 C485 0.930 . S
H478 C486 0.930 . S
H479 C487 0.930 . S
H480 C490 0.930 . S
H481 C491 0.930 . S
C482 H476 0.930 . S
C482 C483 1.355 . S
C482 C484 1.415 . S
C483 C482 1.355 . S
C483 C485 1.419 . S
C484 C482 1.415 . S
C484 C489 1.425 . S
C484 C491 1.409 . S
C485 H477 0.930 . S
C485 C483 1.419 . S
C485 C486 1.362 . S
C486 H478 0.930 . S
C486 C485 1.362 . S
C486 C489 1.409 . S
C487 H479 0.930 . S
C487 C488 1.355 . S
C487 C489 1.415 . S
C488 C487 1.355 . S
C488 C490 1.419 . S
C489 C484 1.425 . S
C489 C486 1.409 . S
C489 C487 1.415 . S
C490 H480 0.930 . S
C490 C488 1.419 . S
C490 C491 1.362 . S
C491 H481 0.930 . S
C491 C484 1.409 . S
C491 C490 1.362 . S
H492 C498 0.930 . S
H493 C501 0.930 . S
H494 C502 0.930 . S
H495 C503 0.930 . S
H496 C506 0.930 . S
H497 C507 0.930 . S
C498 H492 0.930 . S
C498 C499 1.355 . S
C498 C500 1.415 . S
C499 C498 1.355 . S
C499 C501 1.419 . S
C500 C498 1.415 . S
C500 C505 1.425 . S
C500 C507 1.409 . S
C501 H493 0.930 . S
C501 C499 1.419 . S
C501 C502 1.362 . S
C502 H494 0.930 . S
C502 C501 1.362 . S
C502 C505 1.409 . S
C503 H495 0.930 . S
C503 C504 1.355 . S
C503 C505 1.415 . S
C504 C503 1.355 . S
C504 C506 1.419 . S
C505 C500 1.425 . S
C505 C502 1.409 . S
C505 C503 1.415 . S
C506 H496 0.930 . S
C506 C504 1.419 . S
C506 C507 1.362 . S
C507 H497 0.930 . S
C507 C500 1.409 . S
C507 C506 1.362 . S
H508 C514 0.930 . S
H509 C517 0.930 . S
H510 C518 0.930 . S
H511 C519 0.930 . S
H512 C522 0.930 . S
H513 C523 0.925 1_655 S
C514 H508 0.930 . S
C514 C515 1.355 . S
C514 C516 1.415 . S
C515 C514 1.355 . S
C515 C517 1.419 . S
C516 C514 1.415 . S
C516 C521 1.425 . S
C516 C523 1.415 . S
C517 H509 0.930 . S
C517 C515 1.419 . S
C517 C518 1.362 . S
C518 H510 0.930 . S
C518 C517 1.362 . S
C518 C521 1.409 . S
C519 H511 0.930 . S
C519 C520 1.355 . S
C519 C521 1.415 . S
C520 C519 1.355 . S
C520 C522 1.419 1_455 S
C521 C516 1.425 . S
C521 C518 1.409 . S
C521 C519 1.415 . S
C522 H512 0.930 . S
C522 C520 1.419 1_655 S
C522 C523 1.362 1_655 S
C523 H513 0.925 1_455 S
C523 C516 1.415 . S
C523 C522 1.362 1_455 S
H524 C530 0.930 . S
H525 C533 0.930 . S
H526 C534 0.930 . S
H527 C535 0.930 . S
H528 C538 0.930 . S
H529 C539 0.930 . S
C530 H524 0.930 . S
C530 C531 1.355 . S
C530 C532 1.415 . S
C531 C530 1.355 . S
C531 C533 1.419 . S
C532 C530 1.415 . S
C532 C537 1.425 . S
C532 C539 1.409 . S
C533 H525 0.930 . S
C533 C531 1.419 . S
C533 C534 1.362 . S
C534 H526 0.930 . S
C534 C533 1.362 . S
C534 C537 1.409 . S
C535 H527 0.930 . S
C535 C536 1.355 . S
C535 C537 1.415 . S
C536 C535 1.355 . S
C536 C538 1.419 . S
C537 C532 1.425 . S
C537 C534 1.409 . S
C537 C535 1.415 . S
C538 H528 0.930 . S
C538 C536 1.419 . S
C538 C539 1.362 . S
C539 H529 0.930 . S
C539 C532 1.409 . S
C539 C538 1.362 . S
C163 C5 1.559 . S
C168 C90 1.534 . S
C179 C14 1.486 . S
C184 C107 1.419 . S
C200 C130 1.143 . S
C195 C25 1.440 . S
C211 C34 1.677 . S
C216 C151 1.402 . S
C232 C110 1.613 . S
C227 C7 1.678 . S
C248 C87 1.531 . S
C243 C13 1.610 . S
C264 C149 1.361 . S
C259 C23 1.408 . S
C280 C128 1.415 . S
C275 C31 1.447 . S
C291 C4 1.661 . S
C296 C152 1.573 . S
C312 C109 1.306 . S
C307 C22 1.579 . S
C323 C32 1.570 . S
C328 C85 1.454 . S
C339 C16 1.487 . S
C344 C131 1.427 . S
C360 C89 1.490 . S
C355 C41 1.556 . S
C371 C50 1.351 . S
C376 C108 1.326 . S
C387 C61 1.511 . S
C392 C127 1.338 . S
C403 C67 1.641 . S
C408 C148 1.395 . S
C419 C40 1.632 . S
C424 C111 1.611 . S
C440 C86 1.572 . S
C435 C52 1.663 . S
C456 C150 1.297 . S
C451 C59 1.319 . S
C472 C129 1.419 . S
C467 C70 1.521 . S
C483 C43 1.522 . S
C488 C153 1.438 . S
C504 C106 1.294 . S
C499 C58 1.507 . S
C520 C88 1.296 . S
C515 C68 1.437 . S
C531 C49 1.432 . S
C536 C132 1.436 . S
