# Generated by pormake.
# Topology zzz, (3,6)-cn, num edge types: 1
# Building blocks:
#     Node 0, Type 0, BuildingBlock: CUQRIR_clean_linker_1, # of connection points: 3
#     Node 1, Type 0, BuildingBlock: CUQRIR_clean_linker_1, # of connection points: 3
#     Node 2, Type 0, BuildingBlock: CUQRIR_clean_linker_1, # of connection points: 3
#     Node 3, Type 0, BuildingBlock: CUQRIR_clean_linker_1, # of connection points: 3
#     Node 4, Type 0, BuildingBlock: CUQRIR_clean_linker_1, # of connection points: 3
#     Node 5, Type 0, BuildingBlock: CUQRIR_clean_linker_1, # of connection points: 3
#     Node 6, Type 0, BuildingBlock: CUQRIR_clean_linker_1, # of connection points: 3
#     Node 7, Type 0, BuildingBlock: CUQRIR_clean_linker_1, # of connection points: 3
#     Node 8, Type 1, BuildingBlock: PAMTUU_clean_sbu_0, # of connection points: 6
#     Node 9, Type 1, BuildingBlock: PAMTUU_clean_sbu_0, # of connection points: 6
#     Node 10, Type 1, BuildingBlock: PAMTUU_clean_sbu_0, # of connection points: 6
#     Node 11, Type 1, BuildingBlock: PAMTUU_clean_sbu_0, # of connection points: 6
#     Edge 12, Type (0, 1), BuildingBlock: EZIPEK_clean_linker_0, # of connection points: 2
#     Edge 13, Type (0, 1), BuildingBlock: EZIPEK_clean_linker_0, # of connection points: 2
#     Edge 14, Type (0, 1), BuildingBlock: EZIPEK_clean_linker_0, # of connection points: 2
#     Edge 15, Type (0, 1), BuildingBlock: EZIPEK_clean_linker_0, # of connection points: 2
#     Edge 16, Type (0, 1), BuildingBlock: EZIPEK_clean_linker_0, # of connection points: 2
#     Edge 17, Type (0, 1), BuildingBlock: EZIPEK_clean_linker_0, # of connection points: 2
#     Edge 18, Type (0, 1), BuildingBlock: EZIPEK_clean_linker_0, # of connection points: 2
#     Edge 19, Type (0, 1), BuildingBlock: EZIPEK_clean_linker_0, # of connection points: 2
#     Edge 20, Type (0, 1), BuildingBlock: EZIPEK_clean_linker_0, # of connection points: 2
#     Edge 21, Type (0, 1), BuildingBlock: EZIPEK_clean_linker_0, # of connection points: 2
#     Edge 22, Type (0, 1), BuildingBlock: EZIPEK_clean_linker_0, # of connection points: 2
#     Edge 23, Type (0, 1), BuildingBlock: EZIPEK_clean_linker_0, # of connection points: 2
#     Edge 24, Type (0, 1), BuildingBlock: EZIPEK_clean_linker_0, # of connection points: 2
#     Edge 25, Type (0, 1), BuildingBlock: EZIPEK_clean_linker_0, # of connection points: 2
#     Edge 26, Type (0, 1), BuildingBlock: EZIPEK_clean_linker_0, # of connection points: 2
#     Edge 27, Type (0, 1), BuildingBlock: EZIPEK_clean_linker_0, # of connection points: 2
#     Edge 28, Type (0, 1), BuildingBlock: EZIPEK_clean_linker_0, # of connection points: 2
#     Edge 29, Type (0, 1), BuildingBlock: EZIPEK_clean_linker_0, # of connection points: 2
#     Edge 30, Type (0, 1), BuildingBlock: EZIPEK_clean_linker_0, # of connection points: 2
#     Edge 31, Type (0, 1), BuildingBlock: EZIPEK_clean_linker_0, # of connection points: 2
#     Edge 32, Type (0, 1), BuildingBlock: EZIPEK_clean_linker_0, # of connection points: 2
#     Edge 33, Type (0, 1), BuildingBlock: EZIPEK_clean_linker_0, # of connection points: 2
#     Edge 34, Type (0, 1), BuildingBlock: EZIPEK_clean_linker_0, # of connection points: 2
#     Edge 35, Type (0, 1), BuildingBlock: EZIPEK_clean_linker_0, # of connection points: 2
# Relax obj value: 0.340
# Max RMSD: 0.261
# Mean RMSD: 0.116
data_MOF--net-zzz--node1-PAMTUU_clean_sbu_0--node2-CUQRIR_clean_linker_1--edge1-EZIPEK_clean_linker_0
_symmetry_space_group_name_H-M    P1
_symmetry_Int_Tables_number       1
_symmetry_cell_setting            triclinic
loop_
_symmetry_equiv_pos_as_xyz
'x, y, z'
_cell_length_a     32.85616
_cell_length_b     36.677564
_cell_length_c     10.696027
_cell_angle_alpha  106.12245
_cell_angle_beta   90.364585
_cell_angle_gamma 89.367758
loop_
_atom_site_label
_atom_site_type_symbol
_atom_site_fract_x
_atom_site_fract_y
_atom_site_fract_z
_atom_type_partial_charge
C0 C 0.74383 0.53452 0.55236 0.0
N1 N 0.78607 0.53277 0.56488 0.0
N2 N 0.73137 0.5509 0.45218 0.0
C3 C 0.71619 0.51243 0.61538 0.0
C4 C 0.76897 0.56011 0.41733 0.0
N5 N 0.79976 0.54339 0.46577 0.0
C6 C 0.77701 0.58796 0.3403 0.0
H7 H 0.73219 0.48857 0.6387 0.0
H8 H 0.69015 0.50127 0.55023 0.0
H9 H 0.70531 0.53045 0.71042 0.0
H10 H 0.79274 0.61289 0.4044 0.0
H11 H 0.74873 0.59803 0.30421 0.0
H12 H 0.79802 0.57537 0.25847 0.0
C13 C 1.00371 0.74544 0.54777 0.0
N14 N 1.01389 0.78022 0.53541 0.0
N15 N 1.00175 0.71913 0.4287 0.0
C16 C 0.99692 0.7371 0.67533 0.0
C17 C 1.01054 0.73953 0.34469 0.0
N18 N 1.01815 0.77601 0.40882 0.0
C19 C 1.01673 0.72279 0.20063 0.0
H20 H 0.98385 0.70846 0.66105 0.0
H21 H 0.97622 0.75891 0.73627 0.0
H22 H 1.02629 0.73882 0.72822 0.0
H23 H 0.99949 0.69608 0.1637 0.0
H24 H 0.04959 0.71654 0.18146 0.0
H25 H 1.00707 0.74332 0.14693 0.0
C26 C 0.83788 0.00917 0.55626 0.0
N27 N 0.80179 0.99069 0.56365 0.0
N28 N 0.86074 0.99062 0.44816 0.0
C29 C 0.85154 0.04441 0.65499 0.0
C30 C 0.83799 0.95956 0.39575 0.0
N31 N 0.8021 0.96071 0.45861 0.0
C32 C 0.84916 0.92924 0.27317 0.0
H33 H 0.85656 0.06716 0.60694 0.0
H34 H 0.88096 0.03853 0.6969 0.0
H35 H 0.82908 0.05403 0.73461 0.0
H36 H 0.82359 0.90959 0.23668 0.0
H37 H 0.87528 0.91244 0.29425 0.0
H38 H 0.85897 0.94222 0.19626 0.0
C39 C 0.60072 0.77864 0.13898 0.0
N40 N 0.59493 0.74123 0.12928 0.0
N41 N 0.58034 0.78916 0.04227 0.0
C42 C 0.62413 0.8052 0.24672 0.0
C43 C 0.5617 0.75668 0.97506 0.0
N44 N 0.56898 0.72852 0.03124 0.0
C45 C 0.53745 0.75189 0.85192 0.0
H46 H 0.62108 0.79685 0.3383 0.0
H47 H 0.6135 0.83494 0.26215 0.0
H48 H 0.65685 0.80344 0.22053 0.0
H49 H 0.54613 0.77328 0.80136 0.0
H50 H 0.50457 0.75529 0.87556 0.0
H51 H 0.54226 0.72295 0.78588 0.0
C52 C 0.30259 0.50915 0.29915 0.0
N53 N 0.26788 0.53074 0.29419 0.0
N54 N 0.32487 0.5234 0.41257 0.0
C55 C 0.31571 0.47508 0.19326 0.0
C56 C 0.30293 0.55437 0.47429 0.0
N57 N 0.26988 0.55912 0.40371 0.0
C58 C 0.31292 0.57933 0.60874 0.0
H59 H 0.31362 0.44948 0.22884 0.0
H60 H 0.34811 0.47805 0.16928 0.0
H61 H 0.29657 0.47142 0.10488 0.0
H62 H 0.33348 0.6022 0.59935 0.0
H63 H 0.32879 0.56314 0.66823 0.0
H64 H 0.28521 0.59261 0.66157 0.0
C65 C 0.07265 0.28895 0.26112 0.0
N66 N 0.06391 0.25313 0.26683 0.0
N67 N 0.06497 0.31511 0.37794 0.0
C68 C 0.08701 0.29846 0.14146 0.0
C69 C 0.05115 0.29375 0.45326 0.0
N70 N 0.05013 0.25681 0.38596 0.0
C71 C 1.03605 0.30924 0.59054 0.0
H72 H 0.12059 0.29503 0.13538 0.0
H73 H 0.07908 0.32825 0.14539 0.0
H74 H 0.07363 0.27875 0.05307 0.0
H75 H 1.00289 0.31507 0.58808 0.0
H76 H 0.05161 0.33609 0.64038 0.0
H77 H 1.04093 0.28828 0.64676 0.0
C78 C 0.27677 0.01281 0.27887 0.0
N79 N 0.3143 0.99485 0.24561 0.0
N80 N 0.25846 1.00353 0.38335 0.0
C81 C 0.25756 0.03806 0.20653 0.0
C82 C 0.2867 0.97997 0.41198 0.0
N83 N 0.31834 0.97381 0.32825 0.0
C84 C 0.28342 0.96215 0.52332 0.0
H85 H 0.27331 0.06577 0.23333 0.0
H86 H 0.22476 0.04275 0.23068 0.0
H87 H 0.26143 0.02534 0.10026 0.0
H88 H 0.27402 0.93214 0.4845 0.0
H89 H 0.2613 0.97742 0.5979 0.0
H90 H 0.31315 0.96214 0.57256 0.0
C91 C 0.50166 0.22225 0.56945 0.0
N92 N 0.50885 0.25966 0.58328 0.0
N93 N 0.52162 0.21027 0.66315 0.0
C94 C 0.47562 0.19734 0.46549 0.0
C95 C 0.54119 0.24159 0.73363 0.0
N96 N 0.53314 0.27144 0.68608 0.0
C97 C 0.56715 0.243 0.85103 0.0
H98 H 0.45208 0.18378 0.51106 0.0
H99 H 0.49479 0.1743 0.40363 0.0
H100 H 0.4608 0.2136 0.40413 0.0
H101 H 0.59255 0.2222 0.82293 0.0
H102 H 0.54868 0.23452 0.92468 0.0
H103 H 0.57981 0.27165 0.89459 0.0
Tb104 Tb 1.01889 0.02073 0.8075 0.0
Tb105 Tb 0.08593 0.00944 1.00629 0.0
C106 C 0.99245 0.01056 0.0929 0.0
C107 C 0.96586 0.06455 0.58792 0.0
C108 C 0.98287 0.12741 0.49901 0.0
C109 C 0.95238 0.1299 0.5919 0.0
C110 C 0.94363 0.09845 0.63533 0.0
C111 C 0.99383 0.06134 0.48623 0.0
C112 C 1.00195 0.09256 0.44103 0.0
C113 C 0.96535 0.036 0.66069 0.0
O114 O 0.04331 0.07803 0.88842 0.0
O115 O 0.0791 0.07138 0.06539 0.0
O116 O 0.1235 0.01895 0.84599 0.0
O117 O 0.07526 0.01819 0.68978 0.0
O118 O 0.11316 0.01775 0.19045 0.0
O119 O 0.14054 0.98055 0.01848 0.0
O120 O 0.06016 0.95217 0.92316 0.0
O121 O 1.02431 0.95935 0.74803 0.0
O122 O 0.98239 0.01163 0.9734 0.0
O123 O 1.03116 0.01149 0.12693 0.0
C124 C 0.06249 0.093 0.99884 0.0
O125 O 0.99127 0.00799 0.62387 0.0
O126 O 0.96505 0.04976 0.78688 0.0
C127 C 0.11394 0.01921 0.7261 0.0
C128 C 0.13008 0.95527 0.19311 0.0
C129 C 0.10046 0.88958 0.24489 0.0
C130 C 0.12868 0.88645 0.14492 0.0
C131 C 0.14367 0.91912 0.11978 0.0
C132 C 0.10276 0.95802 0.29612 0.0
C133 C 0.08819 0.9254 0.32187 0.0
C134 C 0.13713 0.9885 0.14454 0.0
C135 C 1.03991 0.93754 0.81436 0.0
H136 H 0.93741 0.15678 0.63689 0.0
H137 H 0.92201 0.10164 0.71378 0.0
H138 H 1.01154 0.03564 0.44761 0.0
H139 H 1.02539 0.09039 0.3684 0.0
H140 H 0.13818 0.85882 0.08452 0.0
H141 H 0.16437 0.91606 0.03898 0.0
H142 H 0.0913 0.98528 0.35374 0.0
H143 H 0.06636 0.92807 0.39953 0.0
Tb144 Tb 0.54351 0.97949 0.7294 0.0
Tb145 Tb 0.56049 0.0271 1.01097 0.0
C146 C 0.55818 0.93487 0.92791 0.0
C147 C 0.52058 0.91162 0.40255 0.0
C148 C 0.448 0.87851 0.31095 0.0
C149 C 0.47122 0.86271 0.39347 0.0
C150 C 0.50746 0.88054 0.444 0.0
C151 C 0.50391 0.91817 0.29041 0.0
C152 C 0.46734 0.90123 0.24352 0.0
C153 C 0.54108 0.94335 0.4916 0.0
O154 O 0.47951 0.98493 0.82139 0.0
O155 O 0.49623 0.01499 0.03211 0.0
O156 O 0.53444 0.06983 0.92639 0.0
O157 O 0.54938 0.03782 0.71767 0.0
O158 O 0.54061 0.04145 0.20484 0.0
O159 O 0.5957 0.06508 0.15401 0.0
O160 O 0.62165 0.02946 0.91963 0.0
O161 O 0.61172 0.97875 0.74668 0.0
O162 O 0.53766 0.93488 0.82331 0.0
O163 O 0.57385 0.96667 1.00003 0.0
C164 C 0.46826 0.99924 0.94683 0.0
O165 O 0.51802 0.97285 0.54441 0.0
O166 O 0.56562 0.93522 0.57592 0.0
C167 C 0.53851 0.06922 0.80426 0.0
C168 C 0.59845 0.03026 0.30423 0.0
C169 C 0.64067 0.97716 0.39475 0.0
C170 C 0.61781 1.00577 0.48199 0.0
C171 C 0.59409 0.03091 0.43429 0.0
C172 C 0.61952 1.00021 0.21935 0.0
C173 C 0.63446 0.97062 0.26183 0.0
C174 C 0.57603 0.05514 0.24481 0.0
C175 C 0.63712 1.00423 0.81687 0.0
H176 H 0.45722 0.84381 0.44213 0.0
H177 H 0.52104 0.87422 0.52826 0.0
H178 H 0.5148 0.94112 0.25419 0.0
H179 H 0.45018 0.91283 0.1763 0.0
H180 H 0.62297 0.01246 0.58467 0.0
H181 H 0.5757 0.05257 0.4986 0.0
H182 H 0.62623 1.00037 0.12092 0.0
H183 H 0.65224 0.94901 0.19424 0.0
Tb184 Tb 0.49971 0.49812 0.01933 0.0
Tb185 Tb 0.56198 0.50992 0.80182 0.0
C186 C 0.46565 0.50464 0.73906 0.0
C187 C 0.4633 0.4452 0.24934 0.0
C188 C 0.47463 0.38095 0.34885 0.0
C189 C 0.44049 0.38383 0.27193 0.0
C190 C 0.43486 0.41551 0.22319 0.0
C191 C 0.49695 0.44276 0.32965 0.0
C192 C 0.50251 0.41105 0.37851 0.0
C193 C 0.45838 0.47725 0.18769 0.0
O194 O 0.50996 0.44534 0.86976 0.0
O195 O 0.57521 0.45379 0.8213 0.0
O196 O 0.59019 0.52967 0.99025 0.0
O197 O 0.56192 0.49197 0.09752 0.0
O198 O 0.59357 0.49915 0.62512 0.0
O199 O 0.61209 0.54359 0.79433 0.0
O200 O 0.52457 0.56012 0.85649 0.0
O201 O 0.50975 0.55997 0.06476 0.0
O202 O 0.45885 0.51113 0.86698 0.0
O203 O 0.50341 0.49807 0.69253 0.0
C204 C 0.54569 0.43123 0.82969 0.0
O205 O 0.48502 0.50439 0.21635 0.0
O206 O 0.44985 0.46799 0.06393 0.0
C207 C 0.5927 0.51308 0.08237 0.0
C208 C 0.62376 0.55378 0.59644 0.0
C209 C 0.63526 0.6201 0.36377 0.0
C210 C 0.67975 0.61828 0.48832 0.0
C211 C 0.67369 0.58513 0.60905 0.0
C212 C 0.5796 0.55774 0.47655 0.0
C213 C 0.58645 0.58938 0.35724 0.0
C214 C 0.61845 0.52735 0.67236 0.0
C215 C 0.51719 0.5784 0.97746 0.0
H216 H 0.41825 0.36134 0.24874 0.0
H217 H 0.4085 0.41647 0.16282 0.0
H218 H 0.51947 0.465 0.35297 0.0
H219 H 0.52879 0.40991 0.43897 0.0
H220 H 0.70461 0.63809 0.50193 0.0
H221 H 0.69507 0.58799 0.68814 0.0
H222 H 0.55195 0.54177 0.47346 0.0
H223 H 0.56106 0.59277 0.2965 0.0
Tb224 Tb 1.03712 0.55229 0.82842 0.0
Tb225 Tb 1.02386 0.48579 0.95048 0.0
C226 C 1.01264 0.56909 0.1219 0.0
C227 C 0.07512 0.64102 0.77752 0.0
C228 C 0.14973 0.65701 0.69228 0.0
C229 C 0.11506 0.67399 0.65566 0.0
C230 C 0.07691 0.66478 0.69517 0.0
C231 C 0.11 0.63616 0.84719 0.0
C232 C 0.14785 0.64419 0.80407 0.0
C233 C 0.04528 0.61047 0.74935 0.0
O234 O 0.10059 0.54093 0.90199 0.0
O235 O 0.08208 0.50733 0.0434 0.0
O236 O 0.06564 0.46965 0.78713 0.0
O237 O 1.0333 0.50045 0.66439 0.0
O238 O 1.02893 0.45504 0.08692 0.0
O239 O 1.01566 0.4269 0.88521 0.0
O240 O 0.96049 0.49244 0.87358 0.0
O241 O 0.96985 0.54507 0.80345 0.0
O242 O 1.03607 0.57738 0.03586 0.0
O243 O 0.99886 0.53432 0.10291 0.0
C244 C 0.1106 0.52507 0.99769 0.0
O245 O 0.06036 0.57693 0.69078 0.0
O246 O 1.02145 0.60924 0.84469 0.0
C247 C 0.05358 0.47028 0.67211 0.0
C248 C 0.98304 0.40566 0.04578 0.0
C249 C 0.91701 0.43615 0.194 0.0
C250 C 0.91291 0.42494 0.05848 0.0
C251 C 0.94577 0.40801 0.98333 0.0
C252 C 0.98308 0.4068 0.17784 0.0
C253 C 0.95005 0.42349 0.25358 0.0
C254 C 1.01781 0.42337 1.00325 0.0
C255 C 0.94507 0.51868 0.82096 0.0
H256 H 0.11724 0.68718 0.57792 0.0
H257 H 0.05002 0.66998 0.64366 0.0
H258 H 0.10866 0.61914 0.91454 0.0
H259 H 0.17478 0.63258 0.83859 0.0
H260 H 0.88626 0.43292 1.01153 0.0
H261 H 0.94428 0.40455 0.87945 0.0
H262 H 1.0114 0.40361 0.22615 0.0
H263 H 0.95227 0.4311 0.35824 0.0
C264 C 0.20525 0.04597 0.53076 0.0
C265 C 0.21745 0.01007 0.44651 0.0
C266 C 0.16261 0.98064 0.548 0.0
C267 C 0.14854 0.01667 0.62565 0.0
N268 N 0.15389 0.0845 0.67557 0.0
N269 N 0.2021 0.94421 0.36155 0.0
C270 C 0.16904 0.04956 0.6115 0.0
C271 C 0.19385 0.97795 0.45096 0.0
N272 N 0.22969 0.0764 0.53991 0.0
N273 N 0.14689 0.94857 0.5695 0.0
H274 H 0.22245 0.94212 0.28537 0.0
H275 H 0.18641 0.91935 0.35483 0.0
H276 H 0.12335 0.94917 0.63506 0.0
H277 H 0.15887 0.92149 0.52947 0.0
H278 H 0.22566 0.10252 0.60869 0.0
H279 H 0.25587 0.0745 0.48379 0.0
H280 H 0.16439 0.10968 0.66093 0.0
H281 H 0.12856 0.08799 0.73636 0.0
C282 C 0.49195 0.16122 0.75559 0.0
C283 C 0.52326 0.17298 0.68537 0.0
C284 C 0.56547 0.11889 0.70211 0.0
C285 C 0.533 0.10509 0.76336 0.0
N286 N 0.46241 0.10998 0.82715 0.0
N287 N 0.58642 0.15969 0.57046 0.0
C288 C 0.49535 0.12543 0.78431 0.0
C289 C 0.5589 0.15059 0.6518 0.0
N290 N 0.4596 0.18495 0.79859 0.0
N291 N 0.60333 0.10293 0.69779 0.0
H292 H 0.58225 0.18295 0.5333 0.0
H293 H 0.61113 0.14238 0.53089 0.0
H294 H 0.60919 0.07939 0.73143 0.0
H295 H 0.62923 0.11435 0.66818 0.0
H296 H 0.43782 0.1802 0.86247 0.0
H297 H 0.45625 0.21091 0.77723 0.0
H298 H 0.43321 0.12164 0.83262 0.0
H299 H 0.46351 0.08361 0.84621 0.0
C300 C 0.3997 0.52954 0.46313 0.0
C301 C 0.36231 0.51086 0.46836 0.0
C302 C 0.39373 0.48464 0.63978 0.0
C303 C 0.43001 0.50629 0.64375 0.0
N304 N 0.46449 0.55326 0.56466 0.0
N305 N 0.32269 0.47309 0.57067 0.0
C306 C 0.43231 0.52934 0.55514 0.0
C307 C 0.35941 0.48876 0.55849 0.0
N308 N 0.40347 0.54834 0.37016 0.0
N309 N 0.3923 0.45911 0.71137 0.0
H310 H 0.29812 0.47441 0.50967 0.0
H311 H 0.31582 0.46075 0.64453 0.0
H312 H 0.41643 0.45474 0.76943 0.0
H313 H 0.36892 0.43974 0.70441 0.0
H314 H 0.43029 0.56049 0.35065 0.0
H315 H 0.38004 0.549 0.30439 0.0
H316 H 0.46689 0.57327 0.51276 0.0
H317 H 0.4876 0.55567 0.63331 0.0
C318 C 0.09861 0.37824 0.45356 0.0
C319 C 0.06307 0.35645 0.41374 0.0
C320 C 1.02081 0.41184 0.5225 0.0
C321 C 0.05623 0.43399 0.56326 0.0
N322 N 0.12844 0.44066 0.54419 0.0
N323 N 0.99105 0.35444 0.38137 0.0
C324 C 0.09504 0.4179 0.52035 0.0
C325 C 1.02444 0.37425 0.43815 0.0
N326 N 0.13561 0.36038 0.43441 0.0
N327 N 0.98382 0.42558 0.57166 0.0
H328 H 0.99369 0.32758 0.31546 0.0
H329 H 0.96165 0.36567 0.38891 0.0
H330 H 0.97924 0.45347 0.62695 0.0
H331 H 0.95809 0.40872 0.5618 0.0
H332 H 0.1627 0.37329 0.47307 0.0
H333 H 0.13871 0.33167 0.38476 0.0
H334 H 0.1572 0.43182 0.50684 0.0
H335 H 0.12644 0.46958 0.59237 0.0
C336 C 0.93247 0.97857 0.36318 0.0
C337 C 0.89645 1.00141 0.38103 0.0
C338 C 0.92512 0.03322 0.2217 0.0
C339 C 0.95917 0.00754 0.19305 0.0
N340 N 0.99194 0.95257 0.2317 0.0
N341 N 0.85668 0.04746 0.31113 0.0
C342 C 0.962 0.97961 0.2638 0.0
C343 C 0.89256 0.02806 0.30624 0.0
N344 N 0.93807 0.95537 0.44218 0.0
N345 N 0.92452 0.0638 0.17242 0.0
H346 H 0.83307 0.04528 0.37307 0.0
H347 H 0.84923 0.06353 0.24772 0.0
H348 H 0.94787 0.06937 0.11502 0.0
H349 H 0.90291 0.08553 0.19805 0.0
H350 H 0.96456 0.93988 0.44563 0.0
H351 H 0.91711 0.95444 0.5142 0.0
H352 H 0.99466 0.93009 0.27256 0.0
H353 H 1.01238 0.95063 0.15603 0.0
C354 C 0.53594 0.84238 0.01877 0.0
C355 C 0.57549 0.82667 0.02116 0.0
C356 C 0.60434 0.88331 0.97496 0.0
C357 C 0.56442 0.89796 0.9634 0.0
N358 N 0.49194 0.88772 0.95542 0.0
N359 N 0.64627 0.82775 0.96947 0.0
C360 C 0.53019 0.87596 0.97749 0.0
C361 C 0.60945 0.84602 0.99087 0.0
N362 N 0.50396 0.82583 0.06199 0.0
N363 N 0.63761 0.90468 0.96951 0.0
H364 H 0.65045 0.80008 0.97563 0.0
H365 H 0.6715 0.8383 0.93307 0.0
H366 H 0.6355 0.93198 0.95942 0.0
H367 H 0.66714 0.89706 0.98855 0.0
H368 H 0.4737 0.83404 0.05869 0.0
H369 H 0.5083 0.80533 0.11149 0.0
H370 H 0.46646 0.87046 0.94344 0.0
H371 H 0.48569 0.9148 0.94714 0.0
C372 C 0.64758 0.5607 0.40127 0.0
C373 C 0.69355 0.54827 0.36332 0.0
C374 C 0.66788 0.53138 0.13171 0.0
C375 C 0.6296 0.52288 0.17282 0.0
N376 N 0.61942 0.49507 0.34573 0.0
N377 N 0.7372 0.5201 0.16552 0.0
C378 C 0.62862 0.52626 0.30629 0.0
C379 C 0.70096 0.53488 0.22073 0.0
N380 N 0.61935 0.60498 0.53747 0.0
N381 N 0.67526 0.52954 1.00482 0.0
H382 H 0.76381 0.51647 0.21132 0.0
H383 H 0.74024 0.50672 0.06625 0.0
H384 H 0.6568 0.51491 0.92857 0.0
H385 H 0.70167 0.5408 0.97698 0.0
H386 H 0.62172 0.63025 0.61597 0.0
H387 H 0.62172 0.63025 0.61597 0.0
H388 H 0.60965 0.46972 0.28115 0.0
H389 H 0.60965 0.46972 0.28115 0.0
C390 C 0.96694 0.65674 0.36277 0.0
C391 C 1.00332 0.67784 0.39459 0.0
C392 C 0.04278 0.61952 0.3007 0.0
C393 C 1.00698 0.60036 0.24542 0.0
N394 N 0.93406 0.60063 0.2237 0.0
N395 N 0.07598 0.68002 0.37886 0.0
C396 C 0.96855 0.61857 0.27926 0.0
C397 C 1.04132 0.65915 0.36166 0.0
N398 N 0.93089 0.674 0.40801 0.0
N399 N 0.07864 0.59976 0.28955 0.0
H400 H 0.07635 0.70867 0.43018 0.0
H401 H 0.10386 0.66939 0.33784 0.0
H402 H 0.07989 0.57036 0.25009 0.0
H403 H 0.106 0.61178 0.3293 0.0
H404 H 0.90325 0.65984 0.39751 0.0
H405 H 0.92953 0.70212 0.46545 0.0
H406 H 0.90548 0.6136 0.23238 0.0
H407 H 0.93445 0.57279 0.16414 0.0
C408 C 0.05565 0.20607 0.49402 0.0
C409 C 1.03182 0.22688 0.42746 0.0
C410 C 0.97573 0.18264 0.40659 0.0
C411 C 0.99905 0.16228 0.47684 0.0
N412 N 0.05692 0.15924 0.61486 0.0
N413 N 0.96668 0.24165 0.34992 0.0
C414 C 1.03788 0.17532 0.52881 0.0
C415 C 0.99094 0.21724 0.3932 0.0
N416 N 0.0954 0.21556 0.52193 0.0
N417 N 0.93991 0.16825 0.34892 0.0
H418 H 0.97737 0.2673 0.33973 0.0
H419 H 0.93548 0.23799 0.33456 0.0
H420 H 0.92763 0.14302 0.35802 0.0
H421 H 0.92398 0.17978 0.28422 0.0
H422 H 0.11596 0.19888 0.55677 0.0
H423 H 0.10835 0.2393 0.50286 0.0
H424 H 0.08341 0.16992 0.66505 0.0
H425 H 0.04438 0.13716 0.64541 0.0
C426 C 0.345 0.90831 0.24946 0.0
C427 C 0.34955 0.94637 0.32698 0.0
C428 C 0.40325 0.92587 0.44781 0.0
C429 C 0.40617 0.89113 0.34835 0.0
N430 N 0.37638 0.84687 0.16274 0.0
N431 N 0.38467 0.99218 0.49645 0.0
C432 C 0.37569 0.88149 0.25225 0.0
C433 C 0.37958 0.95546 0.42453 0.0
N434 N 0.31156 0.8968 0.17415 0.0
N435 N 0.4233 0.93057 0.56299 0.0
H436 H 0.36636 0.01426 0.4836 0.0
H437 H 0.40884 1.00086 0.56111 0.0
H438 H 0.43782 0.90815 0.58756 0.0
H439 H 0.4205 0.9551 0.64001 0.0
H440 H 0.28662 0.91446 0.1721 0.0
H441 H 0.28662 0.91446 0.1721 0.0
H442 H 0.35485 0.83914 0.08802 0.0
H443 H 0.39851 0.82643 0.16569 0.0
C444 C 0.52471 0.33295 0.85154 0.0
C445 C 0.54499 0.31031 0.74055 0.0
C446 C 0.57226 0.36703 0.69477 0.0
C447 C 0.55185 0.3898 0.8063 0.0
N448 N 0.52231 0.39345 1.01487 0.0
N449 N 0.59574 0.30541 0.57453 0.0
C450 C 0.53246 0.37233 0.89253 0.0
C451 C 0.57166 0.32715 0.66988 0.0
N452 N 0.49644 0.31725 0.9134 0.0
N453 N 0.591 0.38272 0.60888 0.0
H454 H 0.5975 0.27588 0.55349 0.0
H455 H 0.5975 0.27588 0.55349 0.0
H456 H 0.59072 0.41168 0.61737 0.0
H457 H 0.60545 0.36615 0.52535 0.0
H458 H 0.47684 0.33337 0.98412 0.0
H459 H 0.49017 0.28832 0.88658 0.0
H460 H 0.50857 0.38222 0.08261 0.0
H461 H 0.5315 0.42149 0.05298 0.0
C462 C 0.201 0.57086 0.48921 0.0
C463 C 0.23743 0.58526 0.45513 0.0
C464 C 0.2139 0.65014 0.55933 0.0
C465 C 0.17691 0.63513 0.58797 0.0
N466 N 0.12991 0.58267 0.52473 0.0
N467 N 0.27785 0.63978 0.44939 0.0
C468 C 0.16863 0.59596 0.53425 0.0
C469 C 0.24343 0.62511 0.48506 0.0
N470 N 0.1983 0.53373 0.48894 0.0
N471 N 0.22111 0.68809 0.60309 0.0
H472 H 0.30115 0.62315 0.39558 0.0
H473 H 0.30115 0.62315 0.39558 0.0
H474 H 0.19955 0.70725 0.65617 0.0
H475 H 0.24842 0.69996 0.58481 0.0
H476 H 0.17299 0.52288 0.52433 0.0
H477 H 0.22313 0.51516 0.46907 0.0
H478 H 0.12275 0.55446 0.47899 0.0
H479 H 0.10492 0.60083 0.54214 0.0
C480 C 1.01782 0.82421 0.28746 0.0
C481 C 1.03928 0.80208 0.35492 0.0
C482 C 0.10295 0.83299 0.33253 0.0
C483 C 0.08146 0.85562 0.26591 0.0
N484 N 1.02251 0.86384 0.14093 0.0
N485 N 0.10123 0.77541 0.40323 0.0
C486 C 1.03998 0.84849 0.23113 0.0
C487 C 0.08189 0.80356 0.3654 0.0
N488 N 0.97642 0.82226 0.27919 0.0
N489 N 0.14257 0.84056 0.36885 0.0
H490 H 0.13275 0.772 0.40547 0.0
H491 H 0.13275 0.772 0.40547 0.0
H492 H 0.1595 0.86071 0.34058 0.0
H493 H 0.15785 0.82844 0.43324 0.0
H494 H 0.9586 0.84066 0.24271 0.0
H495 H 0.95993 0.80353 0.31657 0.0
H496 H 0.99333 0.85713 0.10363 0.0
H497 H 1.03874 0.88074 0.09493 0.0
C498 C 0.74927 0.9793 0.33667 0.0
C499 C 0.76517 0.95068 0.38669 0.0
C500 C 0.69653 0.93437 0.43194 0.0
C501 C 0.68328 0.97048 0.422 0.0
N502 N 0.70148 0.03077 0.38348 0.0
N503 N 0.7524 0.8939 0.45031 0.0
C504 C 0.71127 0.9943 0.38144 0.0
C505 C 0.73834 0.9256 0.42198 0.0
N506 N 0.77174 0.99406 0.25616 0.0
N507 N 0.6704 0.90849 0.4546 0.0
H508 H 0.78326 0.88645 0.44461 0.0
H509 H 0.78326 0.88645 0.44461 0.0
H510 H 0.6391 0.9133 0.46566 0.0
H511 H 0.6391 0.9133 0.46566 0.0
H512 H 0.76009 0.01412 0.21257 0.0
H513 H 0.79982 0.98265 0.22 0.0
H514 H 0.72213 0.049 0.35884 0.0
H515 H 0.67516 0.04449 0.42624 0.0
C516 C 0.51092 0.68564 0.03683 0.0
C517 C 0.55129 0.6913 0.99821 0.0
C518 C 0.56885 0.6274 0.99381 0.0
C519 C 0.52793 0.61916 1.01444 0.0
N520 N 0.45797 0.63975 0.03763 0.0
N521 N 0.61382 0.66402 0.9001 0.0
C522 C 0.49806 0.64807 0.02995 0.0
C523 C 0.57804 0.66041 0.95895 0.0
N524 N 0.48576 0.71596 0.08529 0.0
N525 N 0.59935 0.60647 0.02559 0.0
H526 H 0.62104 0.68892 0.87609 0.0
H527 H 0.63401 0.64133 0.866 0.0
H528 H 0.59374 0.59218 0.09486 0.0
H529 H 0.62998 0.61011 1.00809 0.0
H530 H 0.45758 0.71377 0.12661 0.0
H531 H 0.4945 0.74361 0.09232 0.0
H532 H 0.43454 0.65905 0.03656 0.0
H533 H 0.4484 0.61275 0.03821 0.0
C534 C 0.86915 0.52961 0.38227 0.0
C535 C 0.8283 0.51799 0.382 0.0
C536 C 0.84843 0.45176 0.27881 0.0
C537 C 0.88826 0.46384 0.27086 0.0
N538 N 0.93824 0.51351 0.30574 0.0
N539 N 0.77949 0.46489 0.31821 0.0
C540 C 0.8993 0.50261 0.32046 0.0
C541 C 0.81796 0.47872 0.32606 0.0
N542 N 0.87888 0.56624 0.44559 0.0
N543 N 0.83926 0.41386 0.24073 0.0
H544 H 0.75302 0.48051 0.34695 0.0
H545 H 0.75302 0.48051 0.34695 0.0
H546 H 0.86119 0.39246 0.21044 0.0
H547 H 0.80992 0.4036 0.2447 0.0
H548 H 0.90847 0.57625 0.4625 0.0
H549 H 0.85681 0.58659 0.48722 0.0
H550 H 0.94818 0.54139 0.33537 0.0
H551 H 0.96092 0.49466 0.25898 0.0
C552 C 1.03279 0.19972 0.09978 0.0
C553 C 0.06776 0.21637 0.16911 0.0
C554 C 0.10245 0.15387 0.09833 0.0
C555 C 0.06493 0.13593 0.05067 0.0
N556 N 0.99214 0.14311 0.02639 0.0
N557 N 0.13618 0.20937 0.23761 0.0
C558 C 1.02956 0.15929 0.05482 0.0
C559 C 0.1028 0.19341 0.16817 0.0
N560 N 1.00222 0.22285 0.07933 0.0
N561 N 0.138 0.13356 0.07286 0.0
H562 H 0.13774 0.23844 0.28333 0.0
H563 H 0.16107 0.19366 0.2553 0.0
H564 H 0.13919 0.1053 0.01714 0.0
H565 H 0.16657 0.14572 0.09517 0.0
H566 H 0.97717 0.21296 0.01983 0.0
H567 H 1.00426 0.25236 0.11244 0.0
H568 H 0.9651 0.15879 0.04045 0.0
H569 H 0.98747 0.11396 1.00281 0.0
C570 C 0.35656 0.97065 0.03659 0.0
C571 C 0.34756 0.99945 0.15432 0.0
C572 C 0.41016 0.0322 0.10738 0.0
C573 C 0.42355 1.0 1.00375 0.0
N574 N 0.40717 0.93614 0.8806 0.0
N575 N 0.36953 0.05741 0.30398 0.0
C576 C 0.3958 0.9687 0.97097 0.0
C577 C 0.37552 0.03009 0.18955 0.0
N578 N 0.32646 0.94596 0.98285 0.0
N579 N 0.42929 0.06608 0.1238 0.0
H580 H 0.344 0.05784 0.36187 0.0
H581 H 0.39108 0.07793 0.34515 0.0
H582 H 0.45203 0.06998 0.06133 0.0
H583 H 0.41923 0.09133 0.18834 0.0
H584 H 0.32893 0.92599 0.8924 0.0
H585 H 0.29723 0.9492 0.02219 0.0
H586 H 0.39089 0.91099 0.86304 0.0
H587 H 0.4345 0.93354 0.83033 0.0
C588 C 0.46428 0.31256 0.56284 0.0
C589 C 0.49367 0.28436 0.50712 0.0
C590 C 0.5064 0.31609 0.33609 0.0
C591 C 0.48051 0.34692 0.40125 0.0
N592 N 0.43676 0.37564 0.5824 0.0
N593 N 0.54235 0.2579 0.34013 0.0
C594 C 0.45967 0.34524 0.5157 0.0
C595 C 0.51409 0.28544 0.39203 0.0
N596 N 0.44052 0.30752 0.66076 0.0
N597 N 0.52364 0.31614 0.22045 0.0
H598 H 0.54745 0.23477 0.37717 0.0
H599 H 0.56209 0.25861 0.26525 0.0
H600 H 0.52097 0.33909 0.18199 0.0
H601 H 0.5389 0.29306 0.15947 0.0
H602 H 0.4161 0.32511 0.7008 0.0
H603 H 0.44328 0.28338 0.69392 0.0
H604 H 0.42448 0.37827 0.67397 0.0
H605 H 0.43228 0.39966 0.54979 0.0
C606 C 0.2069 0.49357 0.16808 0.0
C607 C 0.23288 0.52596 0.19887 0.0
C608 C 0.17916 0.5585 0.09794 0.0
C609 C 0.15468 0.52523 0.05722 0.0
N610 N 0.15401 0.45753 0.02728 0.0
N611 N 0.24677 0.58514 0.15431 0.0
C612 C 0.1713 0.49181 0.08478 0.0
C613 C 0.21979 0.55697 0.15101 0.0
N614 N 0.21466 0.46483 0.22308 0.0
N615 N 0.16281 0.59256 0.0954 0.0
H616 H 0.27675 0.58362 0.18543 0.0
H617 H 0.24082 0.60717 0.11259 0.0
H618 H 0.13263 0.59526 0.06918 0.0
H619 H 0.17743 0.61831 0.13466 0.0
H620 H 0.19444 0.44274 0.21751 0.0
H621 H 0.23936 0.46495 0.28453 0.0
H622 H 0.1666 0.43185 0.03302 0.0
H623 H 0.12999 0.45439 0.96106 0.0
C624 C 0.9856 0.84356 0.65299 0.0
C625 C 1.01791 0.8167 0.63445 0.0
C626 C 0.06423 0.86785 0.75012 0.0
C627 C 1.0321 0.8952 0.76582 0.0
N628 N 0.95954 0.90612 0.76747 0.0
N629 N 0.08662 0.80288 0.68958 0.0
C630 C 0.99194 0.8821 0.72748 0.0
C631 C 0.0563 0.82857 0.69215 0.0
N632 N 0.94893 0.83226 0.59551 0.0
N633 N 0.10312 0.87897 0.78583 0.0
H634 H 0.08301 0.77365 0.65107 0.0
H635 H 0.08301 0.77365 0.65107 0.0
H636 H 0.11156 0.90725 0.82163 0.0
H637 H 0.12729 0.85962 0.77491 0.0
H638 H 0.92544 0.85101 0.58956 0.0
H639 H 0.94294 0.80392 0.54751 0.0
H640 H 0.92934 0.89762 0.75283 0.0
H641 H 0.96273 0.93366 0.8279 0.0
C642 C 0.75075 0.97064 0.70682 0.0
C643 C 0.76586 0.99955 0.6554 0.0
C644 C 0.7032 0.03671 0.75259 0.0
C645 C 0.68356 1.00404 0.77475 0.0
N646 N 0.6919 0.93694 0.75299 0.0
N647 N 0.7517 0.06069 0.62237 0.0
C648 C 0.70856 0.97029 0.74737 0.0
C649 C 0.74092 0.03298 0.67781 0.0
N650 N 0.77781 0.94296 0.71377 0.0
N651 N 0.68665 0.07181 0.8047 0.0
H652 H 0.77705 0.0581 0.56251 0.0
H653 H 0.7331 0.08401 0.62401 0.0
H654 H 0.66149 0.07633 0.86568 0.0
H655 H 0.70091 0.09672 0.80101 0.0
H656 H 0.77163 0.92143 0.75711 0.0
H657 H 0.77163 0.92143 0.75711 0.0
H658 H 0.70679 0.91082 0.72032 0.0
H659 H 0.66162 0.93458 0.77579 0.0
C660 C 0.58385 0.70953 0.30217 0.0
C661 C 0.61036 0.71821 0.21189 0.0
C662 C 0.6563 0.6657 0.23051 0.0
C663 C 0.62886 0.65587 0.31829 0.0
N664 N 0.57129 0.67697 0.46418 0.0
N665 N 0.67546 0.71024 0.10834 0.0
C666 C 0.59406 0.68023 0.36165 0.0
C667 C 0.64807 0.69833 0.18356 0.0
N668 N 0.54766 0.7288 0.32767 0.0
N669 N 0.6886 0.6422 0.18441 0.0
H670 H 0.66924 0.73304 0.07048 0.0
H671 H 0.70495 0.69949 0.09079 0.0
H672 H 0.69389 0.61747 0.2119 0.0
H673 H 0.70801 0.64522 0.11158 0.0
H674 H 0.5234 0.72024 0.3746 0.0
H675 H 0.5411 0.75242 0.29437 0.0
H676 H 0.54985 0.69713 0.51141 0.0
H677 H 0.5756 0.65623 0.51109 0.0
C678 C 0.83825 0.55916 0.74079 0.0
C679 C 0.81669 0.52691 0.6637 0.0
C680 C 0.8759 0.48723 0.70844 0.0
C681 C 0.89849 0.52002 0.77969 0.0
N682 N 0.89244 0.58623 0.89513 0.0
N683 N 0.814 0.45906 0.59324 0.0
C684 C 0.87692 0.55559 0.80436 0.0
C685 C 0.8354 0.49069 0.65403 0.0
N686 N 0.82226 0.59422 0.74845 0.0
N687 N 0.8935 0.45227 0.68871 0.0
H688 H 0.78599 0.46064 0.5498 0.0
H689 H 0.82223 0.43153 0.59209 0.0
H690 H 0.91915 0.4475 0.73912 0.0
H691 H 0.88328 0.42782 0.62139 0.0
H692 H 0.83815 0.61938 0.78447 0.0
H693 H 0.79344 0.5978 0.7116 0.0
H694 H 0.87694 0.61195 0.9293 0.0
H695 H 0.91893 0.58469 0.94757 0.0
loop_
_geom_bond_atom_site_label_1
_geom_bond_atom_site_label_2
_geom_bond_distance
_geom_bond_site_symmetry_2
_ccdc_geom_bond_type
C0 N1 1.317 . S
C0 N2 1.348 . S
C0 C3 1.485 . S
N1 C0 1.317 . S
N1 N5 1.370 . S
N2 C0 1.348 . S
N2 C4 1.346 . S
C3 C0 1.485 . S
C3 H7 0.960 . S
C3 H8 0.961 . S
C3 H9 0.960 . S
C4 N2 1.346 . S
C4 N5 1.307 . S
C4 C6 1.486 . S
N5 N1 1.370 . S
N5 C4 1.307 . S
C6 C4 1.486 . S
C6 H10 0.960 . S
C6 H11 0.960 . S
C6 H12 0.959 . S
H7 C3 0.960 . S
H8 C3 0.961 . S
H9 C3 0.960 . S
H10 C6 0.960 . S
H11 C6 0.960 . S
H12 C6 0.959 . S
C13 N14 1.317 . S
C13 N15 1.348 . S
C13 C16 1.485 . S
N14 C13 1.317 . S
N14 N18 1.371 . S
N15 C13 1.348 . S
N15 C17 1.346 1_655 S
C16 C13 1.485 . S
C16 H20 0.960 1_655 S
C16 H21 0.961 . S
C16 H22 0.960 . S
C17 N15 1.346 1_455 S
C17 N18 1.307 1_455 S
C17 C19 1.486 . S
N18 N14 1.371 . S
N18 C17 1.307 1_655 S
C19 C17 1.486 . S
C19 H23 0.960 1_455 S
C19 H24 0.960 . S
C19 H25 0.959 . S
H20 C16 0.960 1_455 S
H21 C16 0.961 . S
H22 C16 0.960 . S
H23 C19 0.960 1_655 S
H24 C19 0.960 . S
H25 C19 0.959 . S
C26 N27 1.317 . S
C26 N28 1.348 . S
C26 C29 1.485 . S
N27 C26 1.317 . S
N27 N31 1.375 . S
N28 C26 1.348 . S
N28 C30 1.345 1_565 S
C29 C26 1.485 . S
C29 H33 0.960 1_565 S
C29 H34 0.961 . S
C29 H35 0.960 . S
C30 N28 1.345 1_545 S
C30 N31 1.304 1_545 S
C30 C32 1.487 . S
N31 N27 1.375 . S
N31 C30 1.304 1_565 S
C32 C30 1.487 . S
C32 H36 0.960 1_545 S
C32 H37 0.960 . S
C32 H38 0.959 . S
H33 C29 0.960 1_545 S
H34 C29 0.961 . S
H35 C29 0.960 . S
H36 C32 0.960 1_565 S
H37 C32 0.960 . S
H38 C32 0.959 . S
C39 N40 1.317 . S
C39 N41 1.348 1_554 S
C39 C42 1.485 . S
N40 C39 1.317 . S
N40 N44 1.370 1_554 S
N41 C39 1.348 1_556 S
N41 C43 1.346 . S
C42 C39 1.485 . S
C42 H46 0.960 . S
C42 H47 0.961 . S
C42 H48 0.960 . S
C43 N41 1.346 . S
C43 N44 1.307 . S
C43 C45 1.486 . S
N44 N40 1.370 1_556 S
N44 C43 1.307 . S
C45 C43 1.486 . S
C45 H49 0.960 . S
C45 H50 0.960 . S
C45 H51 0.959 . S
H46 C42 0.960 . S
H47 C42 0.961 . S
H48 C42 0.960 . S
H49 C45 0.960 . S
H50 C45 0.960 . S
H51 C45 0.959 . S
C52 N53 1.317 . S
C52 N54 1.348 . S
C52 C55 1.485 1_554 S
N53 C52 1.317 . S
N53 N57 1.370 . S
N54 C52 1.348 . S
N54 C56 1.346 . S
C55 C52 1.485 1_556 S
C55 H59 0.960 . S
C55 H60 0.961 . S
C55 H61 0.960 . S
C56 N54 1.346 . S
C56 N57 1.307 . S
C56 C58 1.486 . S
N57 N53 1.370 . S
N57 C56 1.307 . S
C58 C56 1.486 . S
C58 H62 0.960 . S
C58 H63 0.960 . S
C58 H64 0.959 . S
H59 C55 0.960 . S
H60 C55 0.961 . S
H61 C55 0.960 . S
H62 C58 0.960 . S
H63 C58 0.960 . S
H64 C58 0.959 . S
C65 N66 1.317 . S
C65 N67 1.348 . S
C65 C68 1.485 . S
N66 C65 1.317 . S
N66 N70 1.371 . S
N67 C65 1.348 . S
N67 C69 1.346 1_655 S
C68 C65 1.485 . S
C68 H72 0.960 1_655 S
C68 H73 0.961 . S
C68 H74 0.960 1_554 S
C69 N67 1.346 1_455 S
C69 N70 1.307 1_455 S
C69 C71 1.486 . S
N70 N66 1.371 . S
N70 C69 1.307 1_655 S
C71 C69 1.486 . S
C71 H75 0.960 1_455 S
C71 H76 0.960 . S
C71 H77 0.959 . S
H72 C68 0.960 1_455 S
H73 C68 0.961 . S
H74 C68 0.960 1_556 S
H75 C71 0.960 1_655 S
H76 C71 0.960 . S
H77 C71 0.959 . S
C78 N79 1.317 . S
C78 N80 1.348 . S
C78 C81 1.485 1_554 S
N79 C78 1.317 . S
N79 N83 1.369 . S
N80 C78 1.348 . S
N80 C82 1.348 1_565 S
C81 C78 1.485 1_556 S
C81 H85 0.960 1_565 S
C81 H86 0.961 . S
C81 H87 0.960 . S
C82 N80 1.348 1_545 S
C82 N83 1.309 1_545 S
C82 C84 1.483 . S
N83 N79 1.369 . S
N83 C82 1.309 1_565 S
C84 C82 1.483 . S
C84 H88 0.960 1_545 S
C84 H89 0.960 . S
C84 H90 0.959 . S
H85 C81 0.960 1_545 S
H86 C81 0.961 . S
H87 C81 0.960 . S
H88 C84 0.960 1_565 S
H89 C84 0.960 . S
H90 C84 0.959 . S
C91 N92 1.317 . S
C91 N93 1.348 . S
C91 C94 1.485 . S
N92 C91 1.317 . S
N92 N96 1.370 . S
N93 C91 1.348 . S
N93 C95 1.346 . S
C94 C91 1.485 . S
C94 H98 0.960 . S
C94 H99 0.961 . S
C94 H100 0.960 . S
C95 N93 1.346 . S
C95 N96 1.307 . S
C95 C97 1.486 1_556 S
N96 N92 1.370 . S
N96 C95 1.307 . S
C97 C95 1.486 1_554 S
C97 H101 0.960 . S
C97 H102 0.960 . S
C97 H103 0.959 . S
H98 C94 0.960 . S
H99 C94 0.961 . S
H100 C94 0.960 . S
H101 C97 0.960 . S
H102 C97 0.960 . S
H103 C97 0.959 . S
Tb104 C113 2.764 . S
Tb104 O114 2.325 . S
Tb104 O117 2.303 1_655 S
Tb104 O121 2.322 1_545 S
Tb104 O122 2.349 . S
Tb104 O125 2.415 . S
Tb104 O126 2.399 . S
Tb105 O115 2.322 1_565 S
Tb105 O116 2.349 1_554 S
Tb105 O118 2.415 . S
Tb105 O119 2.399 . S
Tb105 O120 2.325 1_554 S
Tb105 O123 2.303 1_454 S
Tb105 C134 2.764 . S
C106 O122 1.261 . S
C106 O123 1.257 1_545 S
C107 C110 1.358 . S
C107 C111 1.332 . S
C107 C113 1.504 . S
C108 C109 1.373 . S
C108 C112 1.308 . S
C109 C108 1.373 . S
C109 C110 1.429 . S
C109 H136 0.932 . S
C110 C107 1.358 . S
C110 C109 1.429 . S
C110 H137 0.930 . S
C111 C107 1.332 . S
C111 C112 1.394 . S
C111 H138 0.960 . S
C112 C108 1.308 . S
C112 C111 1.394 . S
C112 H139 0.929 . S
C113 Tb104 2.764 . S
C113 C107 1.504 . S
C113 O125 1.239 . S
C113 O126 1.263 . S
O114 Tb104 2.325 . S
O114 C124 1.236 1_655 S
O115 Tb105 2.322 1_545 S
O115 C124 1.257 1_554 S
O116 Tb105 2.349 1_556 S
O116 C127 1.261 . S
O117 Tb104 2.303 1_455 S
O117 C127 1.257 1_545 S
O118 Tb105 2.415 . S
O118 C134 1.239 . S
O119 Tb105 2.399 . S
O119 C134 1.263 . S
O120 Tb105 2.325 1_556 S
O120 C135 1.236 1_455 S
O121 Tb104 2.322 1_565 S
O121 C135 1.257 . S
O122 Tb104 2.349 . S
O122 C106 1.261 . S
O123 Tb105 2.303 1_656 S
O123 C106 1.257 1_565 S
C124 O114 1.236 1_455 S
C124 O115 1.257 1_556 S
O125 Tb104 2.415 . S
O125 C113 1.239 . S
O126 Tb104 2.399 . S
O126 C113 1.263 . S
C127 O116 1.261 . S
C127 O117 1.257 1_565 S
C128 C131 1.358 . S
C128 C132 1.332 . S
C128 C134 1.504 . S
C129 C130 1.373 . S
C129 C133 1.308 . S
C130 C129 1.373 . S
C130 C131 1.429 . S
C130 H140 0.932 . S
C131 C128 1.358 . S
C131 C130 1.429 . S
C131 H141 0.930 . S
C132 C128 1.332 . S
C132 C133 1.394 . S
C132 H142 0.932 . S
C133 C129 1.308 . S
C133 C132 1.394 . S
C133 H143 0.929 . S
C134 Tb105 2.764 . S
C134 O118 1.239 . S
C134 O119 1.263 . S
C134 C128 1.504 . S
C135 O120 1.236 1_655 S
C135 O121 1.257 . S
H136 C109 0.932 . S
H137 C110 0.930 . S
H138 C111 0.960 . S
H139 C112 0.929 . S
H140 C130 0.932 . S
H141 C131 0.930 . S
H142 C132 0.932 . S
H143 C133 0.929 . S
Tb144 C153 2.764 . S
Tb144 O154 2.325 . S
Tb144 O157 2.303 1_565 S
Tb144 O161 2.322 . S
Tb144 O162 2.349 . S
Tb144 O165 2.415 1_565 S
Tb144 O166 2.399 . S
Tb145 O155 2.322 . S
Tb145 O156 2.349 . S
Tb145 O158 2.415 1_545 S
Tb145 O159 2.399 . S
Tb145 O160 2.325 1_554 S
Tb145 O163 2.303 1_544 S
Tb145 C174 2.764 . S
C146 O162 1.261 . S
C146 O163 1.257 . S
C147 C150 1.358 . S
C147 C151 1.332 1_565 S
C147 C153 1.504 . S
C148 C149 1.373 . S
C148 C152 1.314 . S
C149 C148 1.373 . S
C149 C150 1.429 . S
C149 H176 0.932 . S
C150 C147 1.358 . S
C150 C149 1.429 . S
C150 H177 0.930 . S
C151 C147 1.332 1_545 S
C151 C152 1.395 1_545 S
C151 H178 0.932 . S
C152 C148 1.314 . S
C152 C151 1.395 1_565 S
C152 H179 0.922 1_565 S
C153 Tb144 2.764 . S
C153 C147 1.504 . S
C153 O165 1.239 1_565 S
C153 O166 1.263 . S
O154 Tb144 2.325 . S
O154 C164 1.236 1_565 S
O155 Tb145 2.322 . S
O155 C164 1.257 1_554 S
O156 Tb145 2.349 . S
O156 C167 1.261 1_554 S
O157 Tb144 2.303 1_545 S
O157 C167 1.257 . S
O158 Tb145 2.415 1_565 S
O158 C174 1.239 1_565 S
O159 Tb145 2.399 . S
O159 C174 1.263 . S
O160 Tb145 2.325 1_556 S
O160 C175 1.236 1_545 S
O161 Tb144 2.322 . S
O161 C175 1.257 . S
O162 Tb144 2.349 . S
O162 C146 1.261 . S
O163 Tb145 2.303 1_566 S
O163 C146 1.257 . S
C164 O154 1.236 1_545 S
C164 O155 1.257 1_556 S
O165 Tb144 2.415 1_545 S
O165 C153 1.239 1_545 S
O166 Tb144 2.399 . S
O166 C153 1.263 . S
C167 O156 1.261 1_556 S
C167 O157 1.257 . S
C168 C171 1.358 . S
C168 C172 1.332 1_545 S
C168 C174 1.504 . S
C169 C170 1.373 . S
C169 C173 1.319 . S
C170 C169 1.373 . S
C170 C171 1.429 . S
C170 H180 0.932 . S
C171 C168 1.358 . S
C171 C170 1.429 . S
C171 H181 0.930 . S
C172 C168 1.332 1_565 S
C172 C173 1.396 1_565 S
C172 H182 0.932 . S
C173 C169 1.319 . S
C173 C172 1.396 1_545 S
C173 H183 0.916 1_545 S
C174 Tb145 2.764 . S
C174 O158 1.239 1_545 S
C174 O159 1.263 . S
C174 C168 1.504 . S
C175 O160 1.236 1_565 S
C175 O161 1.257 . S
H176 C149 0.932 . S
H177 C150 0.930 . S
H178 C151 0.932 . S
H179 C152 0.922 1_545 S
H180 C170 0.932 . S
H181 C171 0.930 . S
H182 C172 0.932 . S
H183 C173 0.916 1_565 S
Tb184 C193 2.764 . S
Tb184 O194 2.325 1_554 S
Tb184 O197 2.303 1_554 S
Tb184 O201 2.322 1_554 S
Tb184 O202 2.349 1_554 S
Tb184 O205 2.415 . S
Tb184 O206 2.399 . S
Tb185 O195 2.322 . S
Tb185 O196 2.349 . S
Tb185 O198 2.415 . S
Tb185 O199 2.399 . S
Tb185 O200 2.325 . S
Tb185 O203 2.303 . S
Tb185 C214 2.764 . S
C186 O202 1.261 . S
C186 O203 1.257 . S
C187 C190 1.358 . S
C187 C191 1.332 . S
C187 C193 1.504 . S
C188 C189 1.373 . S
C188 C192 1.308 . S
C189 C188 1.373 . S
C189 C190 1.429 . S
C189 H216 0.932 . S
C190 C187 1.358 . S
C190 C189 1.429 . S
C190 H217 0.930 . S
C191 C187 1.332 . S
C191 C192 1.394 . S
C191 H218 0.932 . S
C192 C188 1.308 . S
C192 C191 1.394 . S
C192 H219 0.929 . S
C193 Tb184 2.764 . S
C193 C187 1.504 . S
C193 O205 1.239 . S
C193 O206 1.263 . S
O194 Tb184 2.325 1_556 S
O194 C204 1.236 . S
O195 Tb185 2.322 . S
O195 C204 1.257 . S
O196 Tb185 2.349 . S
O196 C207 1.261 . S
O197 Tb184 2.303 1_556 S
O197 C207 1.257 . S
O198 Tb185 2.415 . S
O198 C214 1.239 . S
O199 Tb185 2.399 . S
O199 C214 1.263 . S
O200 Tb185 2.325 . S
O200 C215 1.236 . S
O201 Tb184 2.322 1_556 S
O201 C215 1.257 . S
O202 Tb184 2.349 1_556 S
O202 C186 1.261 . S
O203 Tb185 2.303 . S
O203 C186 1.257 . S
C204 O194 1.236 . S
C204 O195 1.257 . S
O205 Tb184 2.415 . S
O205 C193 1.239 . S
O206 Tb184 2.399 . S
O206 C193 1.263 . S
C207 O196 1.261 . S
C207 O197 1.257 . S
C208 C211 1.358 . S
C208 C212 1.332 . S
C208 C214 1.504 . S
C209 C210 1.373 . S
C209 C213 1.308 . S
C210 C209 1.373 . S
C210 C211 1.429 . S
C210 H220 0.932 . S
C211 C208 1.358 . S
C211 C210 1.429 . S
C211 H221 0.930 . S
C212 C208 1.332 . S
C212 C213 1.394 . S
C212 H222 0.932 . S
C213 C209 1.308 . S
C213 C212 1.394 . S
C213 H223 0.929 . S
C214 Tb185 2.764 . S
C214 O198 1.239 . S
C214 O199 1.263 . S
C214 C208 1.504 . S
C215 O200 1.236 . S
C215 O201 1.257 . S
H216 C189 0.932 . S
H217 C190 0.930 . S
H218 C191 0.932 . S
H219 C192 0.929 . S
H220 C210 0.932 . S
H221 C211 0.930 . S
H222 C212 0.932 . S
H223 C213 0.929 . S
Tb224 C233 2.764 . S
Tb224 O234 2.325 . S
Tb224 O237 2.303 . S
Tb224 O241 2.322 1_455 S
Tb224 O242 2.349 . S
Tb224 O245 2.415 . S
Tb224 O246 2.399 . S
Tb225 O235 2.322 1_654 S
Tb225 O236 2.349 1_554 S
Tb225 O238 2.415 . S
Tb225 O239 2.399 . S
Tb225 O240 2.325 1_554 S
Tb225 O243 2.303 . S
Tb225 C254 2.764 . S
C226 O242 1.261 1_554 S
C226 O243 1.257 1_455 S
C227 C230 1.358 . S
C227 C231 1.332 . S
C227 C233 1.504 . S
C228 C229 1.373 . S
C228 C232 1.308 . S
C229 C228 1.373 . S
C229 C230 1.429 . S
C229 H256 0.932 . S
C230 C227 1.358 . S
C230 C229 1.429 . S
C230 H257 0.930 . S
C231 C227 1.332 . S
C231 C232 1.394 . S
C231 H258 0.932 . S
C232 C228 1.308 . S
C232 C231 1.394 . S
C232 H259 0.929 . S
C233 Tb224 2.764 . S
C233 C227 1.504 . S
C233 O245 1.239 . S
C233 O246 1.263 . S
O234 Tb224 2.325 . S
O234 C244 1.236 . S
O235 Tb225 2.322 1_456 S
O235 C244 1.257 . S
O236 Tb225 2.349 1_556 S
O236 C247 1.261 . S
O237 Tb224 2.303 . S
O237 C247 1.257 1_455 S
O238 Tb225 2.415 . S
O238 C254 1.239 . S
O239 Tb225 2.399 . S
O239 C254 1.263 . S
O240 Tb225 2.325 1_556 S
O240 C255 1.236 . S
O241 Tb224 2.322 1_655 S
O241 C255 1.257 . S
O242 Tb224 2.349 . S
O242 C226 1.261 1_556 S
O243 Tb225 2.303 . S
O243 C226 1.257 1_655 S
C244 O234 1.236 . S
C244 O235 1.257 . S
O245 Tb224 2.415 . S
O245 C233 1.239 . S
O246 Tb224 2.399 . S
O246 C233 1.263 . S
C247 O236 1.261 . S
C247 O237 1.257 1_655 S
C248 C251 1.358 . S
C248 C252 1.332 . S
C248 C254 1.504 . S
C249 C250 1.373 . S
C249 C253 1.308 . S
C250 C249 1.373 . S
C250 C251 1.429 . S
C250 H260 0.932 . S
C251 C248 1.358 . S
C251 C250 1.429 . S
C251 H261 0.930 . S
C252 C248 1.332 . S
C252 C253 1.394 . S
C252 H262 0.932 . S
C253 C249 1.308 . S
C253 C252 1.394 . S
C253 H263 0.929 . S
C254 Tb225 2.764 . S
C254 O238 1.239 . S
C254 O239 1.263 . S
C254 C248 1.504 . S
C255 O240 1.236 . S
C255 O241 1.257 . S
H256 C229 0.932 . S
H257 C230 0.930 . S
H258 C231 0.932 . S
H259 C232 0.929 . S
H260 C250 0.932 . S
H261 C251 0.930 . S
H262 C252 0.932 . S
H263 C253 0.929 . S
C264 C265 1.370 . S
C264 C270 1.379 . S
C264 N272 1.356 . S
C265 C264 1.370 . S
C265 C271 1.352 1_545 S
C266 C267 1.363 1_565 S
C266 C271 1.379 . S
C266 N273 1.356 . S
C267 C266 1.363 1_545 S
C267 C270 1.363 . S
N268 C270 1.356 . S
N268 H280 0.984 . S
N268 H281 0.985 . S
N269 C271 1.356 . S
N269 H274 0.984 . S
N269 H275 0.985 . S
C270 C264 1.379 . S
C270 C267 1.363 . S
C270 N268 1.356 . S
C271 C265 1.352 1_565 S
C271 C266 1.379 . S
C271 N269 1.356 . S
N272 C264 1.356 . S
N272 H278 0.984 . S
N272 H279 0.984 . S
N273 C266 1.356 . S
N273 H276 0.984 . S
N273 H277 0.985 . S
H274 N269 0.984 . S
H275 N269 0.985 . S
H276 N273 0.984 . S
H277 N273 0.985 . S
H278 N272 0.984 . S
H279 N272 0.984 . S
H280 N268 0.984 . S
H281 N268 0.985 . S
C282 C283 1.363 . S
C282 C288 1.379 . S
C282 N290 1.356 . S
C283 C282 1.363 . S
C283 C289 1.363 . S
C284 C285 1.363 . S
C284 C289 1.379 . S
C284 N291 1.356 . S
C285 C284 1.363 . S
C285 C288 1.363 . S
N286 C288 1.356 . S
N286 H298 0.984 . S
N286 H299 0.985 . S
N287 C289 1.356 . S
N287 H292 0.984 . S
N287 H293 0.985 . S
C288 C282 1.379 . S
C288 C285 1.363 . S
C288 N286 1.356 . S
C289 C283 1.363 . S
C289 C284 1.379 . S
C289 N287 1.356 . S
N290 C282 1.356 . S
N290 H296 0.984 . S
N290 H297 0.984 . S
N291 C284 1.356 . S
N291 H294 0.984 . S
N291 H295 0.985 . S
H292 N287 0.984 . S
H293 N287 0.985 . S
H294 N291 0.984 . S
H295 N291 0.985 . S
H296 N290 0.984 . S
H297 N290 0.984 . S
H298 N286 0.984 . S
H299 N286 0.985 . S
C300 C301 1.363 . S
C300 C306 1.379 . S
C300 N308 1.356 . S
C301 C300 1.363 . S
C301 C307 1.363 . S
C302 C303 1.363 . S
C302 C307 1.379 . S
C302 N309 1.356 . S
C303 C302 1.363 . S
C303 C306 1.363 . S
N304 C306 1.356 . S
N304 H316 0.984 . S
N304 H317 0.985 . S
N305 C307 1.356 . S
N305 H310 0.984 . S
N305 H311 0.985 . S
C306 C300 1.379 . S
C306 C303 1.363 . S
C306 N304 1.356 . S
C307 C301 1.363 . S
C307 C302 1.379 . S
C307 N305 1.356 . S
N308 C300 1.356 . S
N308 H314 0.984 . S
N308 H315 0.984 . S
N309 C302 1.356 . S
N309 H312 0.984 . S
N309 H313 0.985 . S
H310 N305 0.984 . S
H311 N305 0.985 . S
H312 N309 0.984 . S
H313 N309 0.985 . S
H314 N308 0.984 . S
H315 N308 0.984 . S
H316 N304 0.984 . S
H317 N304 0.985 . S
C318 C319 1.367 . S
C318 C324 1.379 . S
C318 N326 1.356 . S
C319 C318 1.367 . S
C319 C325 1.359 1_455 S
C320 C321 1.344 1_655 S
C320 C325 1.379 . S
C320 N327 1.356 . S
C321 C320 1.344 1_455 S
C321 C324 1.382 . S
N322 C324 1.356 . S
N322 H334 0.984 . S
N322 H335 0.985 . S
N323 C325 1.356 . S
N323 H328 0.984 . S
N323 H329 0.985 . S
C324 C318 1.379 . S
C324 C321 1.382 . S
C324 N322 1.356 . S
C325 C319 1.359 1_655 S
C325 C320 1.379 . S
C325 N323 1.356 . S
N326 C318 1.356 . S
N326 H332 0.984 . S
N326 H333 0.984 . S
N327 C320 1.356 . S
N327 H330 0.984 . S
N327 H331 0.985 . S
H328 N323 0.984 . S
H329 N323 0.985 . S
H330 N327 0.984 . S
H331 N327 0.985 . S
H332 N326 0.984 . S
H333 N326 0.984 . S
H334 N322 0.984 . S
H335 N322 0.985 . S
C336 C337 1.366 . S
C336 C342 1.379 . S
C336 N344 1.356 . S
C337 C336 1.366 . S
C337 C343 1.359 1_565 S
C338 C339 1.348 1_545 S
C338 C343 1.379 . S
C338 N345 1.356 . S
C339 C338 1.348 1_565 S
C339 C342 1.386 . S
N340 C342 1.356 . S
N340 H352 0.984 . S
N340 H353 0.985 . S
N341 C343 1.356 . S
N341 H346 0.984 . S
N341 H347 0.985 . S
C342 C336 1.379 . S
C342 C339 1.386 . S
C342 N340 1.356 . S
C343 C337 1.359 1_545 S
C343 C338 1.379 . S
C343 N341 1.356 . S
N344 C336 1.356 . S
N344 H350 0.984 . S
N344 H351 0.984 . S
N345 C338 1.356 . S
N345 H348 0.984 . S
N345 H349 0.985 . S
H346 N341 0.984 . S
H347 N341 0.985 . S
H348 N345 0.984 . S
H349 N345 0.985 . S
H350 N344 0.984 . S
H351 N344 0.984 . S
H352 N340 0.984 . S
H353 N340 0.985 . S
C354 C355 1.363 1_554 S
C354 C360 1.379 1_554 S
C354 N362 1.356 . S
C355 C354 1.363 1_556 S
C355 C361 1.363 . S
C356 C357 1.363 . S
C356 C361 1.379 . S
C356 N363 1.356 . S
C357 C356 1.363 . S
C357 C360 1.363 . S
N358 C360 1.356 1_554 S
N358 H370 0.984 . S
N358 H371 0.985 1_554 S
N359 C361 1.356 . S
N359 H364 0.984 . S
N359 H365 0.985 . S
C360 C354 1.379 1_556 S
C360 C357 1.363 . S
C360 N358 1.356 1_556 S
C361 C355 1.363 . S
C361 C356 1.379 . S
C361 N359 1.356 . S
N362 C354 1.356 . S
N362 H368 0.984 . S
N362 H369 0.984 . S
N363 C356 1.356 . S
N363 H366 0.984 . S
N363 H367 0.985 . S
H364 N359 0.984 . S
H365 N359 0.985 . S
H366 N363 0.984 . S
H367 N363 0.985 . S
H368 N362 0.984 . S
H369 N362 0.984 . S
H370 N358 0.984 . S
H371 N358 0.985 1_556 S
C372 C373 1.363 . S
C372 C378 1.379 . S
C372 N380 1.356 . S
C373 C372 1.363 . S
C373 C379 1.363 . S
C374 C375 1.363 . S
C374 C379 1.379 . S
C374 N381 1.356 . S
C375 C374 1.363 . S
C375 C378 1.363 . S
N376 C378 1.356 . S
N376 H388 0.984 . S
N376 H389 0.985 . S
N377 C379 1.356 . S
N377 H382 0.984 . S
N377 H383 0.985 . S
C378 C372 1.379 . S
C378 C375 1.363 . S
C378 N376 1.356 . S
C379 C373 1.363 . S
C379 C374 1.379 . S
C379 N377 1.356 . S
N380 C372 1.356 . S
N380 H386 0.984 . S
N380 H387 0.984 . S
N381 C374 1.356 . S
N381 H384 0.984 . S
N381 H385 0.985 . S
H382 N377 0.984 . S
H383 N377 0.985 . S
H384 N381 0.984 . S
H385 N381 0.985 . S
H386 N380 0.984 . S
H387 N380 0.984 . S
H388 N376 0.984 . S
H389 N376 0.985 . S
C390 C391 1.367 . S
C390 C396 1.379 . S
C390 N398 1.356 . S
C391 C390 1.367 . S
C391 C397 1.359 1_655 S
C392 C393 1.346 1_455 S
C392 C397 1.379 . S
C392 N399 1.356 . S
C393 C392 1.346 1_655 S
C393 C396 1.380 . S
N394 C396 1.356 . S
N394 H406 0.984 . S
N394 H407 0.985 1_554 S
N395 C397 1.356 . S
N395 H400 0.984 . S
N395 H401 0.985 . S
C396 C390 1.379 . S
C396 C393 1.380 . S
C396 N394 1.356 . S
C397 C391 1.359 1_455 S
C397 C392 1.379 . S
C397 N395 1.356 . S
N398 C390 1.356 . S
N398 H404 0.984 . S
N398 H405 0.984 . S
N399 C392 1.356 . S
N399 H402 0.984 . S
N399 H403 0.985 . S
H400 N395 0.984 . S
H401 N395 0.985 . S
H402 N399 0.984 . S
H403 N399 0.985 . S
H404 N398 0.984 . S
H405 N398 0.984 . S
H406 N394 0.984 . S
H407 N394 0.985 1_556 S
C408 C409 1.363 . S
C408 C414 1.379 . S
C408 N416 1.356 1_655 S
C409 C408 1.363 . S
C409 C415 1.363 . S
C410 C411 1.363 . S
C410 C415 1.379 . S
C410 N417 1.356 . S
C411 C410 1.363 . S
C411 C414 1.363 . S
N412 C414 1.356 . S
N412 H424 0.984 . S
N412 H425 0.985 . S
N413 C415 1.356 . S
N413 H418 0.984 . S
N413 H419 0.985 . S
C414 C408 1.379 . S
C414 C411 1.363 . S
C414 N412 1.356 . S
C415 C409 1.363 . S
C415 C410 1.379 . S
C415 N413 1.356 . S
N416 C408 1.356 1_455 S
N416 H422 0.984 . S
N416 H423 0.984 . S
N417 C410 1.356 . S
N417 H420 0.984 . S
N417 H421 0.985 . S
H418 N413 0.984 . S
H419 N413 0.985 . S
H420 N417 0.984 . S
H421 N417 0.985 . S
H422 N416 0.984 . S
H423 N416 0.984 . S
H424 N412 0.984 . S
H425 N412 0.985 . S
C426 C427 1.363 1_565 S
C426 C432 1.379 . S
C426 N434 1.356 . S
C427 C426 1.363 1_545 S
C427 C433 1.363 . S
C428 C429 1.363 . S
C428 C433 1.379 1_565 S
C428 N435 1.357 . S
C429 C428 1.363 . S
C429 C432 1.363 . S
N430 C432 1.356 . S
N430 H442 0.984 . S
N430 H443 0.985 . S
N431 C433 1.356 . S
N431 H436 0.984 . S
N431 H437 0.985 . S
C432 C426 1.379 . S
C432 C429 1.363 . S
C432 N430 1.356 . S
C433 C427 1.363 . S
C433 C428 1.379 1_545 S
C433 N431 1.356 . S
N434 C426 1.356 . S
N434 H440 0.984 . S
N434 H441 0.984 . S
N435 C428 1.357 . S
N435 H438 0.982 . S
N435 H439 0.987 1_565 S
H436 N431 0.984 . S
H437 N431 0.985 . S
H438 N435 0.982 . S
H439 N435 0.987 1_545 S
H440 N434 0.984 . S
H441 N434 0.984 . S
H442 N430 0.984 . S
H443 N430 0.985 . S
C444 C445 1.363 . S
C444 C450 1.379 . S
C444 N452 1.356 1_556 S
C445 C444 1.363 . S
C445 C451 1.363 . S
C446 C447 1.363 . S
C446 C451 1.379 . S
C446 N453 1.356 . S
C447 C446 1.363 . S
C447 C450 1.363 . S
N448 C450 1.356 . S
N448 H460 0.984 1_556 S
N448 H461 0.985 . S
N449 C451 1.356 . S
N449 H454 0.984 . S
N449 H455 0.985 . S
C450 C444 1.379 . S
C450 C447 1.363 . S
C450 N448 1.356 . S
C451 C445 1.363 . S
C451 C446 1.379 . S
C451 N449 1.356 . S
N452 C444 1.356 1_554 S
N452 H458 0.984 . S
N452 H459 0.985 1_554 S
N453 C446 1.356 . S
N453 H456 0.984 . S
N453 H457 0.985 . S
H454 N449 0.984 . S
H455 N449 0.985 . S
H456 N453 0.984 . S
H457 N453 0.985 . S
H458 N452 0.984 . S
H459 N452 0.985 1_556 S
H460 N448 0.984 1_554 S
H461 N448 0.985 . S
C462 C463 1.363 . S
C462 C468 1.379 . S
C462 N470 1.356 . S
C463 C462 1.363 . S
C463 C469 1.363 . S
C464 C465 1.363 . S
C464 C469 1.379 . S
C464 N471 1.356 . S
C465 C464 1.363 . S
C465 C468 1.363 . S
N466 C468 1.356 . S
N466 H478 0.984 . S
N466 H479 0.985 . S
N467 C469 1.356 . S
N467 H472 0.984 . S
N467 H473 0.985 . S
C468 C462 1.379 . S
C468 C465 1.363 . S
C468 N466 1.356 . S
C469 C463 1.363 . S
C469 C464 1.379 . S
C469 N467 1.356 . S
N470 C462 1.356 . S
N470 H476 0.984 . S
N470 H477 0.984 . S
N471 C464 1.356 . S
N471 H474 0.984 . S
N471 H475 0.985 . S
H472 N467 0.984 . S
H473 N467 0.985 . S
H474 N471 0.984 . S
H475 N471 0.985 . S
H476 N470 0.984 . S
H477 N470 0.984 . S
H478 N466 0.984 . S
H479 N466 0.985 . S
C480 C481 1.363 . S
C480 C486 1.379 . S
C480 N488 1.356 1_455 S
C481 C480 1.363 . S
C481 C487 1.363 . S
C482 C483 1.363 . S
C482 C487 1.379 . S
C482 N489 1.356 . S
C483 C482 1.363 . S
C483 C486 1.363 . S
N484 C486 1.356 . S
N484 H496 0.984 . S
N484 H497 0.985 . S
N485 C487 1.356 . S
N485 H490 0.984 1_455 S
N485 H491 0.985 . S
C486 C480 1.379 . S
C486 C483 1.363 . S
C486 N484 1.356 . S
C487 C481 1.363 . S
C487 C482 1.379 . S
C487 N485 1.356 . S
N488 C480 1.356 1_655 S
N488 H494 0.985 . S
N488 H495 0.984 . S
N489 C482 1.356 . S
N489 H492 0.984 . S
N489 H493 0.985 . S
H490 N485 0.984 1_655 S
H491 N485 0.985 . S
H492 N489 0.984 . S
H493 N489 0.985 . S
H494 N488 0.985 . S
H495 N488 0.984 . S
H496 N484 0.984 . S
H497 N484 0.985 . S
C498 C499 1.363 1_545 S
C498 C504 1.379 . S
C498 N506 1.356 1_545 S
C499 C498 1.363 1_565 S
C499 C505 1.363 1_565 S
C500 C501 1.363 . S
C500 C505 1.379 . S
C500 N507 1.356 . S
C501 C500 1.363 . S
C501 C504 1.363 . S
N502 C504 1.356 . S
N502 H514 0.984 . S
N502 H515 0.985 . S
N503 C505 1.356 1_565 S
N503 H508 0.984 . S
N503 H509 0.985 . S
C504 C498 1.379 . S
C504 C501 1.363 . S
C504 N502 1.356 . S
C505 C499 1.363 1_545 S
C505 C500 1.379 . S
C505 N503 1.356 1_545 S
N506 C498 1.356 1_565 S
N506 H512 0.984 1_565 S
N506 H513 0.984 . S
N507 C500 1.356 . S
N507 H510 0.984 . S
N507 H511 0.985 . S
H508 N503 0.984 . S
H509 N503 0.985 . S
H510 N507 0.984 . S
H511 N507 0.985 . S
H512 N506 0.984 1_545 S
H513 N506 0.984 . S
H514 N502 0.984 . S
H515 N502 0.985 . S
C516 C517 1.363 . S
C516 C522 1.379 . S
C516 N524 1.356 . S
C517 C516 1.363 . S
C517 C523 1.363 . S
C518 C519 1.363 . S
C518 C523 1.379 . S
C518 N525 1.356 1_556 S
C519 C518 1.363 . S
C519 C522 1.363 . S
N520 C522 1.356 . S
N520 H532 0.984 . S
N520 H533 0.985 . S
N521 C523 1.356 . S
N521 H526 0.984 . S
N521 H527 0.985 1_556 S
C522 C516 1.379 . S
C522 C519 1.363 . S
C522 N520 1.356 . S
C523 C517 1.363 . S
C523 C518 1.379 . S
C523 N521 1.356 . S
N524 C516 1.356 . S
N524 H530 0.984 . S
N524 H531 0.984 . S
N525 C518 1.356 1_554 S
N525 H528 0.984 . S
N525 H529 0.985 . S
H526 N521 0.984 . S
H527 N521 0.985 1_554 S
H528 N525 0.984 . S
H529 N525 0.985 . S
H530 N524 0.984 . S
H531 N524 0.984 . S
H532 N520 0.984 . S
H533 N520 0.985 . S
C534 C535 1.363 . S
C534 C540 1.379 . S
C534 N542 1.356 . S
C535 C534 1.363 . S
C535 C541 1.363 . S
C536 C537 1.363 . S
C536 C541 1.379 . S
C536 N543 1.356 . S
C537 C536 1.363 . S
C537 C540 1.363 . S
N538 C540 1.356 . S
N538 H550 0.984 . S
N538 H551 0.985 . S
N539 C541 1.356 . S
N539 H544 0.984 . S
N539 H545 0.985 . S
C540 C534 1.379 . S
C540 C537 1.363 . S
C540 N538 1.356 . S
C541 C535 1.363 . S
C541 C536 1.379 . S
C541 N539 1.356 . S
N542 C534 1.356 . S
N542 H548 0.984 . S
N542 H549 0.984 . S
N543 C536 1.356 . S
N543 H546 0.984 . S
N543 H547 0.985 . S
H544 N539 0.984 . S
H545 N539 0.985 . S
H546 N543 0.984 . S
H547 N543 0.985 . S
H548 N542 0.984 . S
H549 N542 0.984 . S
H550 N538 0.984 . S
H551 N538 0.985 . S
C552 C553 1.363 1_655 S
C552 C558 1.379 . S
C552 N560 1.356 . S
C553 C552 1.363 1_455 S
C553 C559 1.363 . S
C554 C555 1.363 . S
C554 C559 1.379 . S
C554 N561 1.356 . S
C555 C554 1.363 . S
C555 C558 1.363 1_455 S
N556 C558 1.356 1_556 S
N556 H568 0.984 . S
N556 H569 0.985 . S
N557 C559 1.356 . S
N557 H562 0.984 . S
N557 H563 0.985 . S
C558 C552 1.379 . S
C558 C555 1.363 1_655 S
C558 N556 1.356 1_554 S
C559 C553 1.363 . S
C559 C554 1.379 . S
C559 N557 1.356 . S
N560 C552 1.356 . S
N560 H566 0.984 1_554 S
N560 H567 0.984 . S
N561 C554 1.356 . S
N561 H564 0.984 . S
N561 H565 0.985 . S
H562 N557 0.984 . S
H563 N557 0.985 . S
H564 N561 0.984 . S
H565 N561 0.985 . S
H566 N560 0.984 1_556 S
H567 N560 0.984 . S
H568 N556 0.984 . S
H569 N556 0.985 . S
C570 C571 1.363 1_565 S
C570 C576 1.379 . S
C570 N578 1.356 . S
C571 C570 1.363 1_545 S
C571 C577 1.363 . S
C572 C573 1.363 . S
C572 C577 1.379 . S
C572 N579 1.356 1_554 S
C573 C572 1.363 . S
C573 C576 1.363 1_545 S
N574 C576 1.356 . S
N574 H586 0.984 . S
N574 H587 0.985 . S
N575 C577 1.356 . S
N575 H580 0.984 . S
N575 H581 0.985 . S
C576 C570 1.379 . S
C576 C573 1.363 1_565 S
C576 N574 1.356 . S
C577 C571 1.363 . S
C577 C572 1.379 . S
C577 N575 1.356 . S
N578 C570 1.356 . S
N578 H584 0.984 . S
N578 H585 0.984 . S
N579 C572 1.356 1_556 S
N579 H582 0.984 . S
N579 H583 0.985 . S
H580 N575 0.984 . S
H581 N575 0.985 . S
H582 N579 0.984 . S
H583 N579 0.985 . S
H584 N578 0.984 . S
H585 N578 0.984 . S
H586 N574 0.984 . S
H587 N574 0.985 . S
C588 C589 1.363 . S
C588 C594 1.379 . S
C588 N596 1.356 . S
C589 C588 1.363 . S
C589 C595 1.363 . S
C590 C591 1.363 . S
C590 C595 1.379 . S
C590 N597 1.356 . S
C591 C590 1.363 . S
C591 C594 1.363 . S
N592 C594 1.356 . S
N592 H604 0.984 . S
N592 H605 0.985 . S
N593 C595 1.356 . S
N593 H598 0.984 . S
N593 H599 0.985 . S
C594 C588 1.379 . S
C594 C591 1.363 . S
C594 N592 1.356 . S
C595 C589 1.363 . S
C595 C590 1.379 . S
C595 N593 1.356 . S
N596 C588 1.356 . S
N596 H602 0.984 . S
N596 H603 0.984 . S
N597 C590 1.356 . S
N597 H600 0.984 . S
N597 H601 0.985 . S
H598 N593 0.984 . S
H599 N593 0.985 . S
H600 N597 0.984 . S
H601 N597 0.985 . S
H602 N596 0.984 . S
H603 N596 0.984 . S
H604 N592 0.984 . S
H605 N592 0.985 . S
C606 C607 1.363 1_556 S
C606 C612 1.379 . S
C606 N614 1.356 . S
C607 C606 1.363 1_554 S
C607 C613 1.363 . S
C608 C609 1.363 1_554 S
C608 C613 1.379 . S
C608 N615 1.356 . S
C609 C608 1.363 1_556 S
C609 C612 1.363 . S
N610 C612 1.356 . S
N610 H622 0.984 . S
N610 H623 0.985 . S
N611 C613 1.356 . S
N611 H616 0.984 . S
N611 H617 0.985 . S
C612 C606 1.379 . S
C612 C609 1.363 . S
C612 N610 1.356 . S
C613 C607 1.363 . S
C613 C608 1.379 . S
C613 N611 1.356 . S
N614 C606 1.356 . S
N614 H620 0.984 . S
N614 H621 0.984 . S
N615 C608 1.356 . S
N615 H618 0.984 . S
N615 H619 0.985 . S
H616 N611 0.984 . S
H617 N611 0.985 . S
H618 N615 0.984 . S
H619 N615 0.985 . S
H620 N614 0.984 . S
H621 N614 0.984 . S
H622 N610 0.984 . S
H623 N610 0.985 . S
C624 C625 1.363 . S
C624 C630 1.379 . S
C624 N632 1.356 . S
C625 C624 1.363 . S
C625 C631 1.363 1_655 S
C626 C627 1.363 1_455 S
C626 C631 1.379 . S
C626 N633 1.356 . S
C627 C626 1.363 1_655 S
C627 C630 1.363 . S
N628 C630 1.356 . S
N628 H640 0.984 . S
N628 H641 0.985 . S
N629 C631 1.356 . S
N629 H634 0.984 . S
N629 H635 0.985 . S
C630 C624 1.379 . S
C630 C627 1.363 . S
C630 N628 1.356 . S
C631 C625 1.363 1_455 S
C631 C626 1.379 . S
C631 N629 1.356 . S
N632 C624 1.356 . S
N632 H638 0.984 . S
N632 H639 0.984 . S
N633 C626 1.356 . S
N633 H636 0.984 . S
N633 H637 0.985 . S
H634 N629 0.984 . S
H635 N629 0.985 . S
H636 N633 0.984 . S
H637 N633 0.985 . S
H638 N632 0.984 . S
H639 N632 0.984 . S
H640 N628 0.984 . S
H641 N628 0.985 . S
C642 C643 1.363 . S
C642 C648 1.379 . S
C642 N650 1.356 . S
C643 C642 1.363 . S
C643 C649 1.363 1_565 S
C644 C645 1.363 1_545 S
C644 C649 1.379 . S
C644 N651 1.356 . S
C645 C644 1.363 1_565 S
C645 C648 1.363 . S
N646 C648 1.356 . S
N646 H658 0.984 . S
N646 H659 0.985 . S
N647 C649 1.356 . S
N647 H652 0.984 . S
N647 H653 0.985 . S
C648 C642 1.379 . S
C648 C645 1.363 . S
C648 N646 1.356 . S
C649 C643 1.363 1_545 S
C649 C644 1.379 . S
C649 N647 1.356 . S
N650 C642 1.356 . S
N650 H656 0.984 . S
N650 H657 0.984 . S
N651 C644 1.356 . S
N651 H654 0.984 . S
N651 H655 0.985 . S
H652 N647 0.984 . S
H653 N647 0.985 . S
H654 N651 0.984 . S
H655 N651 0.985 . S
H656 N650 0.984 . S
H657 N650 0.984 . S
H658 N646 0.984 . S
H659 N646 0.985 . S
C660 C661 1.363 . S
C660 C666 1.379 . S
C660 N668 1.356 . S
C661 C660 1.363 . S
C661 C667 1.363 . S
C662 C663 1.363 . S
C662 C667 1.379 . S
C662 N669 1.356 . S
C663 C662 1.363 . S
C663 C666 1.363 . S
N664 C666 1.356 . S
N664 H676 0.984 . S
N664 H677 0.985 . S
N665 C667 1.356 1_556 S
N665 H670 0.984 . S
N665 H671 0.985 . S
C666 C660 1.379 . S
C666 C663 1.363 . S
C666 N664 1.356 . S
C667 C661 1.363 . S
C667 C662 1.379 . S
C667 N665 1.356 1_554 S
N668 C660 1.356 . S
N668 H674 0.984 . S
N668 H675 0.984 . S
N669 C662 1.356 . S
N669 H672 0.984 . S
N669 H673 0.985 . S
H670 N665 0.984 . S
H671 N665 0.985 . S
H672 N669 0.984 . S
H673 N669 0.985 . S
H674 N668 0.984 . S
H675 N668 0.984 . S
H676 N664 0.984 . S
H677 N664 0.985 . S
C678 C679 1.363 . S
C678 C684 1.379 . S
C678 N686 1.356 . S
C679 C678 1.363 . S
C679 C685 1.363 . S
C680 C681 1.363 . S
C680 C685 1.379 . S
C680 N687 1.356 . S
C681 C680 1.363 . S
C681 C684 1.363 . S
N682 C684 1.356 . S
N682 H694 0.984 . S
N682 H695 0.985 . S
N683 C685 1.356 . S
N683 H688 0.984 . S
N683 H689 0.985 . S
C684 C678 1.379 . S
C684 C681 1.363 . S
C684 N682 1.356 . S
C685 C679 1.363 . S
C685 C680 1.379 . S
C685 N683 1.356 . S
N686 C678 1.356 . S
N686 H692 0.984 . S
N686 H693 0.984 . S
N687 C680 1.356 . S
N687 H690 0.984 . S
N687 H691 0.985 . S
H688 N683 0.984 . S
H689 N683 0.985 . S
H690 N687 0.984 . S
H691 N687 0.985 . S
H692 N686 0.984 . S
H693 N686 0.984 . S
H694 N682 0.984 . S
H695 N682 0.985 . S
C265 N80 2.066 1_545 S
C267 C127 2.243 1_545 S
C285 C167 1.835 . S
C283 N93 1.830 . S
C303 C186 2.254 . S
C301 N54 2.075 . S
C321 C247 1.523 1_455 S
C319 N67 1.420 1_455 S
C339 C106 2.236 1_564 S
C337 N28 2.069 . S
C355 N41 1.843 . S
C357 C146 1.838 . S
C373 N2 2.087 . S
C375 C207 2.253 1_554 S
C391 N15 1.419 . S
C393 C226 1.523 1_655 S
C411 C108 1.164 . S
C409 N70 1.249 . S
C429 C148 0.603 . S
C427 N83 0.563 1_545 S
C447 C204 1.304 . S
C445 N96 1.282 . S
C463 N57 0.680 . S
C465 C228 0.686 . S
C481 N18 1.255 1_455 S
C483 C129 1.168 . S
C501 C169 0.603 . S
C499 N31 0.559 . S
C519 C215 1.304 . S
C517 N44 1.288 . S
C535 N5 0.677 . S
C537 C249 0.690 . S
C553 N66 1.767 1_455 S
C555 C124 1.829 1_554 S
C571 N79 2.476 1_545 S
C573 C164 2.575 1_554 S
C591 C188 1.686 . S
C589 N92 1.822 . S
C609 C244 2.563 . S
C607 N53 2.459 . S
C625 N14 1.754 . S
C627 C135 1.836 . S
C645 C175 2.575 . S
C643 N27 2.469 . S
C663 C209 1.687 . S
C661 N40 1.786 . S
C679 N1 2.469 . S
C681 C255 2.565 . S
