# Generated by pormake.
# Topology anh, (6,3)-cn, num edge types: 1
# Building blocks:
#     Node 0, Type 0, BuildingBlock: VOLQOD_clean_sbu_1, # of connection points: 6
#     Node 1, Type 0, BuildingBlock: VOLQOD_clean_sbu_1, # of connection points: 6
#     Node 2, Type 0, BuildingBlock: VOLQOD_clean_sbu_1, # of connection points: 6
#     Node 3, Type 1, BuildingBlock: BETDIP_clean_linker_0, # of connection points: 3
#     Node 4, Type 1, BuildingBlock: BETDIP_clean_linker_0, # of connection points: 3
#     Node 5, Type 1, BuildingBlock: BETDIP_clean_linker_0, # of connection points: 3
#     Node 6, Type 1, BuildingBlock: BETDIP_clean_linker_0, # of connection points: 3
#     Node 7, Type 1, BuildingBlock: BETDIP_clean_linker_0, # of connection points: 3
#     Node 8, Type 1, BuildingBlock: BETDIP_clean_linker_0, # of connection points: 3
#     Edge 9, Type (0, 1), BuildingBlock: XIVTED_clean_linker_0, # of connection points: 2
#     Edge 10, Type (0, 1), BuildingBlock: XIVTED_clean_linker_0, # of connection points: 2
#     Edge 11, Type (0, 1), BuildingBlock: XIVTED_clean_linker_0, # of connection points: 2
#     Edge 12, Type (0, 1), BuildingBlock: XIVTED_clean_linker_0, # of connection points: 2
#     Edge 13, Type (0, 1), BuildingBlock: XIVTED_clean_linker_0, # of connection points: 2
#     Edge 14, Type (0, 1), BuildingBlock: XIVTED_clean_linker_0, # of connection points: 2
#     Edge 15, Type (0, 1), BuildingBlock: XIVTED_clean_linker_0, # of connection points: 2
#     Edge 16, Type (0, 1), BuildingBlock: XIVTED_clean_linker_0, # of connection points: 2
#     Edge 17, Type (0, 1), BuildingBlock: XIVTED_clean_linker_0, # of connection points: 2
#     Edge 18, Type (0, 1), BuildingBlock: XIVTED_clean_linker_0, # of connection points: 2
#     Edge 19, Type (0, 1), BuildingBlock: XIVTED_clean_linker_0, # of connection points: 2
#     Edge 20, Type (0, 1), BuildingBlock: XIVTED_clean_linker_0, # of connection points: 2
#     Edge 21, Type (0, 1), BuildingBlock: XIVTED_clean_linker_0, # of connection points: 2
#     Edge 22, Type (0, 1), BuildingBlock: XIVTED_clean_linker_0, # of connection points: 2
#     Edge 23, Type (0, 1), BuildingBlock: XIVTED_clean_linker_0, # of connection points: 2
#     Edge 24, Type (0, 1), BuildingBlock: XIVTED_clean_linker_0, # of connection points: 2
#     Edge 25, Type (0, 1), BuildingBlock: XIVTED_clean_linker_0, # of connection points: 2
#     Edge 26, Type (0, 1), BuildingBlock: XIVTED_clean_linker_0, # of connection points: 2
# Relax obj value: 0.171
# Max RMSD: 0.216
# Mean RMSD: 0.152
data_MOF--net-anh--node1-VOLQOD_clean_sbu_1--node2-BETDIP_clean_linker_0--edge1-XIVTED_clean_linker_0
_symmetry_space_group_name_H-M    P1
_symmetry_Int_Tables_number       1
_symmetry_cell_setting            triclinic
loop_
_symmetry_equiv_pos_as_xyz
'x, y, z'
_cell_length_a     29.503802
_cell_length_b     29.471962
_cell_length_c     56.723721
_cell_angle_alpha  93.815606
_cell_angle_beta   89.825124
_cell_angle_gamma 120.49944
loop_
_atom_site_label
_atom_site_type_symbol
_atom_site_fract_x
_atom_site_fract_y
_atom_site_fract_z
_atom_type_partial_charge
O0 O 0.01496 0.59017 0.19576 0.0
Zn1 Zn 0.02412 0.60874 0.16169 0.0
O2 O 0.04102 0.56147 0.14244 0.0
Zn3 Zn 0.98777 0.52122 0.11744 0.0
Zn4 Zn 0.04466 0.51167 0.16238 0.0
Zn5 Zn 0.10776 0.6031 0.1275 0.0
O6 O 0.01772 0.5311 0.08486 0.0
O7 O 0.10004 0.59633 0.09199 0.0
O8 O 0.95548 0.60149 0.14967 0.0
O9 O 0.93584 0.54519 0.11805 0.0
O10 O 0.94427 0.44378 0.1233 0.0
O11 O 0.98336 0.43782 0.15527 0.0
O12 O 0.11323 0.51262 0.15892 0.0
O13 O 0.08514 0.68473 0.16271 0.0
O14 O 0.15732 0.57872 0.13596 0.0
O15 O 0.14247 0.67954 0.13885 0.0
C16 C 0.02385 0.55938 0.20707 0.0
C17 C 0.06264 0.56449 0.07755 0.0
C18 C 0.94651 0.41683 0.13943 0.0
C19 C 0.92575 0.57479 0.13166 0.0
C20 C 0.15471 0.54279 0.14816 0.0
C21 C 0.12953 0.70628 0.15286 0.0
O22 O 0.03805 0.52936 0.19652 0.0
O23 O 0.48658 0.06737 0.446 0.0
Zn24 Zn 0.46306 0.06288 0.47951 0.0
O25 O 0.5091 0.05249 0.49983 0.0
Zn26 Zn 0.55143 0.11405 0.52134 0.0
Zn27 Zn 0.55482 0.03681 0.48034 0.0
Zn28 Zn 0.466 0.99486 0.51883 0.0
O29 O 0.54237 0.09621 0.55567 0.0
O30 O 0.46796 0.01864 0.55293 0.0
O31 O 0.46158 0.1286 0.49056 0.0
O32 O 0.52711 0.16508 0.5178 0.0
O33 O 0.62777 0.15179 0.51285 0.0
O34 O 0.62844 0.09916 0.48317 0.0
O35 O 0.55779 0.97441 0.49171 0.0
O36 O 0.38985 5e-05 0.47837 0.0
O37 O 0.49846 0.95056 0.51965 0.0
O38 O 0.39137 0.95048 0.50579 0.0
C39 C 0.51144 0.04836 0.43475 0.0
C40 C 0.50432 0.05789 0.56535 0.0
C41 C 0.65197 0.14145 0.49669 0.0
C42 C 0.49144 0.16605 0.50568 0.0
C43 C 0.53355 0.94588 0.50857 0.0
C44 C 0.36715 0.95835 0.48947 0.0
O45 O 0.53485 0.02888 0.44551 0.0
O46 O 0.47557 0.48992 0.80291 0.0
Zn47 Zn 0.46314 0.4743 0.83742 0.0
O48 O 0.52665 0.52384 0.85707 0.0
Zn49 Zn 0.51142 0.56362 0.88121 0.0
Zn50 Zn 0.58144 0.57415 0.83751 0.0
Zn51 Zn 0.55248 0.48503 0.87314 0.0
O52 O 0.53148 0.55725 0.9143 0.0
O53 O 0.5503 0.49353 0.90854 0.0
O54 O 0.40058 0.4817 0.84779 0.0
O55 O 0.43462 0.53651 0.88008 0.0
O56 O 0.54303 0.63995 0.87418 0.0
O57 O 0.58992 0.64656 0.84264 0.0
O58 O 0.65079 0.57716 0.84262 0.0
O59 O 0.4474 0.39845 0.83856 0.0
O60 O 0.62716 0.51038 0.86518 0.0
O61 O 0.51135 0.40836 0.86275 0.0
C62 C 0.51673 0.52085 0.79212 0.0
C63 C 0.54363 0.52533 0.92236 0.0
C64 C 0.57185 0.66666 0.85777 0.0
C65 C 0.39586 0.50711 0.86584 0.0
C66 C 0.66158 0.54715 0.8535 0.0
C67 C 0.4712 0.37921 0.8492 0.0
O68 O 0.55983 0.55281 0.80335 0.0
H69 H 0.50559 0.02912 0.18943 0.0
H70 H 0.59819 0.10342 0.25365 0.0
H71 H 0.4309 0.00359 0.25655 0.0
H72 H 0.57331 0.09624 0.17238 0.0
C73 C 0.60847 0.11013 0.18347 0.0
C74 C 0.50774 0.03726 0.20837 0.0
C75 C 0.46163 0.01145 0.22142 0.0
C76 C 0.55694 0.07155 0.22001 0.0
C77 C 0.56014 0.07809 0.24474 0.0
C78 C 0.51478 0.05353 0.25798 0.0
C79 C 0.46579 0.02165 0.24617 0.0
N80 N 0.6044 0.09954 0.20772 0.0
H81 H 0.52122 0.53431 0.54729 0.0
H82 H 0.53793 0.61049 0.61645 0.0
H83 H 0.48185 0.44401 0.60841 0.0
H84 H 0.59518 0.6833 0.59916 0.0
C85 C 0.58155 0.67721 0.58084 0.0
C86 C 0.51746 0.53189 0.56625 0.0
C87 C 0.49918 0.48346 0.57606 0.0
C88 C 0.53286 0.57791 0.58059 0.0
C89 C 0.52779 0.57535 0.60519 0.0
C90 C 0.50879 0.52695 0.61539 0.0
C91 C 0.49422 0.48102 0.60065 0.0
N92 N 0.55277 0.62571 0.56943 0.0
H93 H 0.06697 0.65641 0.84308 0.0
H94 H 0.16424 0.65765 0.89972 0.0
H95 H -0.00358 0.57599 0.90531 0.0
H96 H 0.24917 0.7461 0.86148 0.0
C97 C 0.21729 0.70541 0.86155 0.0
C98 C 0.07057 0.64375 0.86013 0.0
C99 C 0.02547 0.613 0.87281 0.0
C100 C 0.12062 0.65922 0.86943 0.0
C101 C 0.12567 0.64425 0.89194 0.0
C102 C 0.08085 0.61327 0.90484 0.0
C103 C 0.03099 0.5976 0.895 0.0
N104 N 0.16516 0.69375 0.85669 0.0
H105 H 0.04351 0.58685 0.45152 0.0
H106 H 0.96432 0.48881 0.38854 0.0
H107 H 0.0626 0.65611 0.38491 0.0
H108 H 0.97203 0.42831 0.40996 0.0
C109 C 0.95972 0.43638 0.42703 0.0
C110 C 0.03447 0.5835 0.43277 0.0
C111 C 0.0577 0.62844 0.4197 0.0
C112 C 0.00126 0.53321 0.42172 0.0
C113 C 0.99062 0.52745 0.39721 0.0
C114 C 0.01303 0.57175 0.38382 0.0
C115 C 0.04555 0.62204 0.39528 0.0
N116 N 0.97826 0.48934 0.43583 0.0
H117 H 0.48966 0.03325 0.8099 0.0
H118 H 0.52021 0.9789 0.7427 0.0
H119 H 0.47418 0.09596 0.7462 0.0
H120 H 0.49752 0.97092 0.82453 0.0
C121 C 0.51554 0.9557 0.81215 0.0
C122 C 0.49156 0.03386 0.79091 0.0
C123 C 0.4794 0.0678 0.77968 0.0
C124 C 0.50612 0.00141 0.77755 0.0
C125 C 0.50849 0.00342 0.75293 0.0
C126 C 0.49706 0.03745 0.7415 0.0
C127 C 0.48257 0.06937 0.755 0.0
N128 N 0.51993 0.96717 0.78799 0.0
H129 H 0.44932 0.4364 0.15746 0.0
H130 H 0.54238 0.42953 0.10042 0.0
H131 H 0.46167 0.51542 0.09469 0.0
H132 H 0.53526 0.34108 0.13962 0.0
C133 C 0.54567 0.38196 0.13889 0.0
C134 C 0.46556 0.44806 0.14026 0.0
C135 C 0.45277 0.47937 0.12746 0.0
C136 C 0.49844 0.43063 0.13087 0.0
C137 C 0.51847 0.44436 0.10821 0.0
C138 C 0.50624 0.4759 0.09516 0.0
C139 C 0.47361 0.49343 0.10506 0.0
N140 N 0.50658 0.39545 0.14374 0.0
H141 H 0.16133 0.46183 0.16605 0.0
H142 H 0.45784 0.57446 0.12643 0.0
H143 H 0.25378 0.60886 0.13351 0.0
H144 H 0.35921 0.41664 0.14816 0.0
H145 H 0.38789 0.59337 0.13556 0.0
H146 H 0.23774 0.45003 0.16583 0.0
C147 C 0.19772 0.49177 0.15901 0.0
C148 C 0.20095 0.53607 0.14952 0.0
C149 C 0.3817 0.55475 0.13856 0.0
C150 C 0.28835 0.52295 0.14933 0.0
C151 C 0.42159 0.54396 0.13333 0.0
C152 C 0.41405 0.49374 0.13627 0.0
C153 C 0.3338 0.51497 0.14672 0.0
C154 C 0.36673 0.45595 0.14569 0.0
C155 C 0.24127 0.485 0.15889 0.0
C156 C 0.24919 0.57373 0.14074 0.0
N157 N 0.3281 0.46715 0.15034 0.0
N158 N 0.29084 0.56617 0.14077 0.0
H159 H 0.71225 0.24172 0.51788 0.0
H160 H 0.91864 0.33201 0.41486 0.0
H161 H 0.71534 0.13459 0.46297 0.0
H162 H 0.91626 0.43939 0.46969 0.0
H163 H 0.85143 0.25768 0.43529 0.0
H164 H 0.79467 0.31274 0.50392 0.0
C165 C 0.73064 0.23284 0.50315 0.0
C166 C 0.7063 0.18219 0.49137 0.0
C167 C 0.86594 0.29746 0.44299 0.0
C168 C 0.80041 0.26357 0.47513 0.0
C169 C 0.90424 0.33981 0.43133 0.0
C170 C 0.92257 0.39174 0.44049 0.0
C171 C 0.84562 0.30721 0.46392 0.0
C172 C 0.90292 0.39991 0.46191 0.0
C173 C 0.77765 0.27353 0.49512 0.0
C174 C 0.73223 0.17311 0.47245 0.0
N175 N 0.86513 0.35806 0.4728 0.0
N176 N 0.77747 0.21353 0.46474 0.0
H177 H 0.61836 0.72956 0.82118 0.0
H178 H 0.50269 0.91832 0.85568 0.0
H179 H 0.53604 0.7215 0.88527 0.0
H180 H 0.56527 0.91026 0.78773 0.0
H181 H 0.52574 0.85503 0.86917 0.0
H182 H 0.61183 0.80555 0.81144 0.0
C183 C 0.59974 0.74426 0.83345 0.0
C184 C 0.57726 0.71857 0.854 0.0
C185 C 0.53468 0.8673 0.85135 0.0
C186 C 0.56909 0.80543 0.84272 0.0
C187 C 0.52151 0.90337 0.84366 0.0
C188 C 0.53162 0.91917 0.82052 0.0
C189 C 0.55836 0.84699 0.8358 0.0
C190 C 0.55631 0.89885 0.80566 0.0
C191 C 0.59572 0.78753 0.82776 0.0
C192 C 0.55365 0.73967 0.86916 0.0
N193 N 0.56864 0.86368 0.81353 0.0
N194 N 0.54975 0.78149 0.86311 0.0
H195 H 0.86129 0.53594 0.0922 0.0
H196 H 0.60257 0.48455 0.15816 0.0
H197 H 0.86967 0.59844 0.16414 0.0
H198 H 0.61385 0.36978 0.11121 0.0
H199 H 0.69684 0.54735 0.15323 0.0
H200 H 0.76633 0.49929 0.09117 0.0
C201 C 0.84342 0.5433 0.10758 0.0
C202 C 0.87329 0.56905 0.12854 0.0
C203 C 0.67824 0.50868 0.14378 0.0
C204 C 0.76469 0.52708 0.12735 0.0
C205 C 0.62475 0.473 0.14653 0.0
C206 C 0.60093 0.42208 0.13507 0.0
C207 C 0.70719 0.49345 0.12902 0.0
C208 C 0.63111 0.40864 0.1204 0.0
C209 C 0.78921 0.52213 0.10697 0.0
C210 C 0.84804 0.57824 0.14773 0.0
N211 N 0.68271 0.4442 0.11771 0.0
N212 N 0.79477 0.55627 0.14686 0.0
H213 H 0.31666 0.94738 0.44745 0.0
H214 H 0.0623 0.6697 0.46559 0.0
H215 H 0.29679 0.87187 0.51249 0.0
H216 H 0.14488 0.70828 0.4001 0.0
H217 H 0.13243 0.7538 0.48428 0.0
H218 H 0.23523 0.87032 0.4314 0.0
C219 C 0.2947 0.91509 0.45856 0.0
C220 C 0.31392 0.91578 0.48127 0.0
C221 C 0.13442 0.74366 0.46575 0.0
C222 C 0.22067 0.82787 0.46297 0.0
C223 C 0.09473 0.69556 0.45505 0.0
C224 C 0.09728 0.68123 0.4311 0.0
C225 C 0.17615 0.77821 0.45228 0.0
C226 C 0.13995 0.71747 0.41836 0.0
C227 C 0.24843 0.8711 0.44931 0.0
C228 C 0.28367 0.87266 0.4948 0.0
N229 N 0.17749 0.76419 0.42909 0.0
N230 N 0.23849 0.83016 0.48539 0.0
H231 H 0.5044 0.32257 0.87255 0.0
H232 H 0.404 0.0924 0.76891 0.0
H233 H 0.4068 0.30922 0.81286 0.0
H234 H 0.52348 0.12519 0.82196 0.0
H235 H 0.39034 0.16025 0.78906 0.0
H236 H 0.49588 0.23841 0.85884 0.0
C237 C 0.48043 0.30157 0.85673 0.0
C238 C 0.45698 0.32356 0.84362 0.0
C239 C 0.41911 0.15216 0.79642 0.0
C240 C 0.44756 0.22707 0.82769 0.0
C241 C 0.42716 0.11361 0.78488 0.0
C242 C 0.46561 0.1036 0.79352 0.0
C243 C 0.44959 0.18091 0.81683 0.0
C244 C 0.49337 0.13138 0.81464 0.0
C245 C 0.47575 0.25349 0.84889 0.0
C246 C 0.42587 0.29403 0.82345 0.0
N247 N 0.48519 0.16909 0.82541 0.0
N248 N 0.42268 0.24763 0.8159 0.0
H249 H 0.53792 0.92945 0.55436 0.0
H250 H 0.56824 0.68188 0.53335 0.0
H251 H 0.56866 0.88545 0.48466 0.0
H252 H 0.61029 0.77505 0.60014 0.0
H253 H 0.56798 0.75399 0.51443 0.0
H254 H 0.56249 0.87087 0.57106 0.0
C255 C 0.54983 0.90724 0.54255 0.0
C256 C 0.55053 0.9115 0.51807 0.0
C257 C 0.57815 0.75894 0.53313 0.0
C258 C 0.57873 0.84428 0.53712 0.0
C259 C 0.578 0.71778 0.54398 0.0
C260 C 0.58837 0.72244 0.56843 0.0
C261 C 0.5878 0.80437 0.54696 0.0
C262 C 0.60156 0.76991 0.58129 0.0
C263 C 0.5644 0.87425 0.55213 0.0
C264 C 0.56731 0.88278 0.50362 0.0
N265 N 0.59999 0.8088 0.57047 0.0
N266 N 0.57995 0.84943 0.51336 0.0
H267 H 0.69212 0.47923 0.8668 0.0
H268 H -0.00197 0.67837 0.85289 0.0
H269 H 0.75225 0.63061 0.83793 0.0
H270 H 0.93279 0.51909 0.87333 0.0
H271 H 0.90888 0.66004 0.84413 0.0
H272 H 0.78013 0.49192 0.86687 0.0
C273 C 0.72388 0.51523 0.86044 0.0
C274 C 0.71484 0.55422 0.85259 0.0
C275 C 0.91413 0.62892 0.85025 0.0
C276 C 0.81621 0.56902 0.85263 0.0
C277 C 0.96501 0.63923 0.85509 0.0
C278 C 0.97273 0.60032 0.8641 0.0
C279 C 0.8708 0.57947 0.85455 0.0
C280 C 0.92852 0.55051 0.86684 0.0
C281 C 0.77421 0.52233 0.86038 0.0
C282 C 0.7575 0.59967 0.84426 0.0
N283 N 0.87948 0.5417 0.86232 0.0
N284 N 0.80654 0.60608 0.8447 0.0
H285 H 0.13937 0.76072 0.19525 0.0
H286 H 0.4226 0.0087 0.17644 0.0
H287 H 0.21428 0.77553 0.12844 0.0
H288 H 0.38088 0.92245 0.23937 0.0
H289 H 0.3373 0.94134 0.15804 0.0
H290 H 0.21797 0.84191 0.21105 0.0
C291 C 0.17164 0.78185 0.18368 0.0
C292 C 0.17054 0.76108 0.16057 0.0
C293 C 0.34705 0.93805 0.176 0.0
C294 C 0.2602 0.85372 0.17854 0.0
C295 C 0.39589 0.9761 0.18649 0.0
C296 C 0.4095 0.97205 0.20973 0.0
C297 C 0.31111 0.89648 0.18901 0.0
C298 C 0.37227 0.92893 0.22181 0.0
C299 C 0.21657 0.82785 0.19278 0.0
C300 C 0.2138 0.78999 0.14644 0.0
N301 N 0.32492 0.89324 0.21139 0.0
N302 N 0.25715 0.83476 0.15569 0.0
H303 H 0.40111 0.16914 0.51248 0.0
H304 H 0.56263 0.48136 0.54172 0.0
H305 H 0.56941 0.26771 0.50834 0.0
H306 H 0.41803 0.38036 0.57588 0.0
H307 H 0.55387 0.40441 0.51878 0.0
H308 H 0.39636 0.24811 0.52559 0.0
C309 C 0.43672 0.20757 0.51381 0.0
C310 C 0.48576 0.21245 0.50956 0.0
C311 C 0.52371 0.39915 0.53109 0.0
C312 C 0.48065 0.30163 0.52413 0.0
C313 C 0.52847 0.44304 0.5441 0.0
C314 C 0.49106 0.43711 0.5608 0.0
C315 C 0.48132 0.34887 0.5348 0.0
C316 C 0.44804 0.38637 0.56338 0.0
C317 C 0.43406 0.25226 0.52139 0.0
C318 C 0.53098 0.26261 0.51167 0.0
N319 N 0.44444 0.3439 0.55058 0.0
N320 N 0.52736 0.30532 0.51886 0.0
H321 H 0.36445 0.53827 0.90571 0.0
H322 H 0.1692 0.60449 0.8402 0.0
H323 H 0.32098 0.48947 0.83183 0.0
H324 H 0.29496 0.71257 0.88939 0.0
H325 H 0.1975 0.53942 0.84363 0.0
H326 H 0.30736 0.57578 0.90698 0.0
C327 C 0.34164 0.53395 0.88991 0.0
C328 C 0.34857 0.51195 0.86845 0.0
C329 C 0.21815 0.5771 0.8539 0.0
C330 C 0.28334 0.55486 0.86991 0.0
C331 C 0.20214 0.61405 0.85201 0.0
C332 C 0.23014 0.66378 0.86453 0.0
C333 C 0.26129 0.58979 0.86891 0.0
C334 C 0.2727 0.67468 0.8794 0.0
C335 C 0.30931 0.55561 0.89067 0.0
C336 C 0.31725 0.50664 0.84866 0.0
N337 N 0.28691 0.63788 0.88127 0.0
N338 N 0.28663 0.52906 0.84972 0.0
H339 H 0.93493 0.34857 0.17269 0.0
H340 H 0.62821 0.15309 0.1409 0.0
H341 H 0.8545 0.36203 0.11245 0.0
H342 H 0.70664 0.15266 0.20486 0.0
H343 H 0.71324 0.22084 0.12695 0.0
H344 H 0.85465 0.26743 0.18106 0.0
C345 C 0.9007 0.33409 0.16096 0.0
C346 C 0.90149 0.36272 0.14197 0.0
C347 C 0.71189 0.2056 0.14395 0.0
C348 C 0.80891 0.2698 0.1517 0.0
C349 C 0.66341 0.16695 0.15189 0.0
C350 C 0.66029 0.14769 0.17415 0.0
C351 C 0.7576 0.22498 0.15836 0.0
C352 C 0.70706 0.16677 0.18768 0.0
C353 C 0.8547 0.28778 0.16584 0.0
C354 C 0.85578 0.34161 0.12738 0.0
N355 N 0.75367 0.20453 0.17963 0.0
N356 N 0.81122 0.29681 0.1327 0.0
H357 H 0.14782 0.63923 0.0551 0.0
H358 H 0.01962 0.52027 0.92536 0.0
H359 H -0.00346 0.49747 0.0412 0.0
H360 H 0.15193 0.6779 0.94039 0.0
H361 H 0.01944 0.50465 0.96713 0.0
H362 H 0.15813 0.64723 0.01256 0.0
C363 C 0.11691 0.60952 0.04313 0.0
C364 C 0.07098 0.56782 0.0518 0.0
C365 C 0.0488 0.54249 0.96125 0.0
C366 C 0.08274 0.57679 0.00303 0.0
C367 C 0.04891 0.55148 0.93741 0.0
C368 C 0.08542 0.60072 0.92937 0.0
C369 C 0.08558 0.58295 0.97723 0.0
C370 C 0.12318 0.63927 0.94573 0.0
C371 C 0.12284 0.61422 0.01883 0.0
C372 C 0.0324 0.53051 0.03538 0.0
N373 N 0.12198 0.62972 0.96891 0.0
N374 N 0.03908 0.536 0.01181 0.0
H375 H 0.57023 0.02385 0.40447 0.0
H376 H 0.45418 0.07448 0.28824 0.0
H377 H 0.45834 0.07733 0.40555 0.0
H378 H 0.58247 0.04385 0.28732 0.0
H379 H 0.45477 0.07478 0.33133 0.0
H380 H 0.5743 0.029 0.36156 0.0
C381 C 0.54642 0.03653 0.39572 0.0
C382 C 0.51381 0.05007 0.40869 0.0
C383 C 0.48306 0.06832 0.32175 0.0
C384 C 0.51842 0.05618 0.35958 0.0
C385 C 0.48264 0.06805 0.29716 0.0
C386 C 0.5182 0.05893 0.28421 0.0
C387 C 0.519 0.05894 0.33353 0.0
C388 C 0.55464 0.05141 0.29666 0.0
C389 C 0.54896 0.03969 0.37122 0.0
C390 C 0.48407 0.0665 0.39635 0.0
N391 N 0.55384 0.05116 0.32063 0.0
N392 N 0.487 0.06893 0.37254 0.0
H393 H 0.59476 0.58653 0.76402 0.0
H394 H 0.43142 0.45333 0.64189 0.0
H395 H 0.43464 0.45544 0.76063 0.0
H396 H 0.58371 0.59595 0.64826 0.0
H397 H 0.43211 0.45051 0.685 0.0
H398 H 0.5917 0.5875 0.72128 0.0
C399 C 0.55887 0.55781 0.7543 0.0
C400 C 0.51484 0.52083 0.76602 0.0
C401 C 0.46523 0.4825 0.67693 0.0
C402 C 0.51112 0.52184 0.71677 0.0
C403 C 0.46496 0.48401 0.65235 0.0
C404 C 0.50747 0.52508 0.64148 0.0
C405 C 0.50853 0.5221 0.69068 0.0
C406 C 0.54974 0.56401 0.65588 0.0
C407 C 0.55714 0.5585 0.72982 0.0
C408 C 0.46949 0.48471 0.75236 0.0
N409 N 0.54923 0.56146 0.67968 0.0
N410 N 0.46881 0.48607 0.72843 0.0
H411 H 0.56515 0.13862 0.59882 0.0
H412 H 0.45673 0.95536 0.70734 0.0
H413 H 0.44232 0.97451 0.59141 0.0
H414 H 0.5445 0.12552 0.71651 0.0
H415 H 0.45908 0.96078 0.6644 0.0
H416 H 0.56508 0.13399 0.6418 0.0
C417 C 0.53808 0.10171 0.6062 0.0
C418 C 0.50358 0.05696 0.59144 0.0
C419 C 0.47784 0.99693 0.67581 0.0
C420 C 0.50378 0.05126 0.64054 0.0
C421 C 0.47683 0.99383 0.70029 0.0
C422 C 0.50026 0.04004 0.71546 0.0
C423 C 0.50297 0.04662 0.66644 0.0
C424 C 0.52542 0.08893 0.70541 0.0
C425 C 0.53806 0.09911 0.63072 0.0
C426 C 0.46941 0.01014 0.60204 0.0
N427 N 0.5262 0.09096 0.68153 0.0
N428 N 0.47058 0.00847 0.62588 0.0
H429 H 0.54384 0.59384 0.95763 0.0
H430 H 0.51127 0.40936 0.06028 0.0
H431 H 0.55216 0.45194 0.9462 0.0
H432 H 0.53944 0.56776 0.0735 0.0
H433 H 0.52924 0.4253 0.01869 0.0
H434 H 0.544 0.58587 0.00022 0.0
C435 C 0.54602 0.56118 0.96406 0.0
C436 C 0.5476 0.5233 0.94826 0.0
C437 C 0.53204 0.45678 0.03074 0.0
C438 C 0.5475 0.51378 0.99705 0.0
C439 C 0.52215 0.44783 0.05457 0.0
C440 C 0.52337 0.48712 0.07046 0.0
C441 C 0.54274 0.50515 0.02263 0.0
C442 C 0.53694 0.53591 0.06183 0.0
C443 C 0.54627 0.55674 0.9884 0.0
C444 C 0.55072 0.48201 0.95767 0.0
N445 N 0.54552 0.54333 0.03849 0.0
N446 N 0.55004 0.47807 0.98142 0.0
H447 H 0.03157 0.49333 0.23639 0.0
H448 H 0.99398 0.63186 0.35487 0.0
H449 H 0.00124 0.62217 0.2369 0.0
H450 H 0.01668 0.49812 0.35318 0.0
H451 H 0.99217 0.62657 0.31162 0.0
H452 H 0.02251 0.49249 0.27908 0.0
C453 C 0.02296 0.52148 0.24545 0.0
C454 C 0.01745 0.55809 0.23298 0.0
C455 C -0.00288 0.59812 0.32071 0.0
C456 C 0.00695 0.55726 0.28205 0.0
C457 C -0.00171 0.6012 0.34539 0.0
C458 C 0.00581 0.56556 0.35767 0.0
C459 C 0.00381 0.55929 0.30819 0.0
C460 C 0.01038 0.52615 0.34447 0.0
C461 C 0.01764 0.52085 0.26987 0.0
C462 C 0.00597 0.59333 0.24575 0.0
N463 N 0.00973 0.52436 0.32048 0.0
N464 N 0.00135 0.5922 0.2696 0.0
loop_
_geom_bond_atom_site_label_1
_geom_bond_atom_site_label_2
_geom_bond_distance
_geom_bond_site_symmetry_2
_ccdc_geom_bond_type
O0 Zn1 1.953 . S
O0 C16 1.225 . S
Zn1 O0 1.953 . S
Zn1 O2 1.949 . S
Zn1 O8 1.919 1_455 S
Zn1 O13 1.924 . S
O2 Zn1 1.949 . S
O2 Zn3 1.923 . S
O2 Zn4 1.950 . S
O2 Zn5 1.945 . S
Zn3 O2 1.923 . S
Zn3 O6 1.933 . S
Zn3 O9 1.941 1_455 S
Zn3 O10 1.965 1_455 S
Zn4 O2 1.950 . S
Zn4 O11 1.938 . S
Zn4 O12 1.906 . S
Zn4 O22 1.953 . S
Zn5 O2 1.945 . S
Zn5 O7 1.932 . S
Zn5 O14 1.977 . S
Zn5 O15 1.910 . S
O6 Zn3 1.933 . S
O6 C17 1.226 . S
O7 Zn5 1.932 . S
O7 C17 1.307 . S
O8 Zn1 1.919 1_655 S
O8 C19 1.253 . S
O9 Zn3 1.941 1_655 S
O9 C19 1.283 . S
O10 Zn3 1.965 1_655 S
O10 C18 1.303 . S
O11 Zn4 1.938 . S
O11 C18 1.247 1_455 S
O12 Zn4 1.906 . S
O12 C20 1.304 . S
O13 Zn1 1.924 . S
O13 C21 1.311 . S
O14 Zn5 1.977 . S
O14 C20 1.272 . S
O15 Zn5 1.910 . S
O15 C21 1.231 . S
C16 O0 1.225 . S
C16 O22 1.298 . S
C17 O6 1.226 . S
C17 O7 1.307 . S
C18 O10 1.303 . S
C18 O11 1.247 1_655 S
C19 O8 1.253 . S
C19 O9 1.283 . S
C20 O12 1.304 . S
C20 O14 1.272 . S
C21 O13 1.311 . S
C21 O15 1.231 . S
O22 Zn4 1.953 . S
O22 C16 1.298 . S
O23 Zn24 1.953 . S
O23 C39 1.225 . S
Zn24 O23 1.953 . S
Zn24 O25 1.949 . S
Zn24 O31 1.919 . S
Zn24 O36 1.924 1_545 S
O25 Zn24 1.949 . S
O25 Zn26 1.923 . S
O25 Zn27 1.950 . S
O25 Zn28 1.945 1_545 S
Zn26 O25 1.923 . S
Zn26 O29 1.933 . S
Zn26 O32 1.941 . S
Zn26 O33 1.965 . S
Zn27 O25 1.950 . S
Zn27 O34 1.938 . S
Zn27 O35 1.906 1_545 S
Zn27 O45 1.953 . S
Zn28 O25 1.945 1_565 S
Zn28 O30 1.932 1_565 S
Zn28 O37 1.977 . S
Zn28 O38 1.910 . S
O29 Zn26 1.933 . S
O29 C40 1.226 . S
O30 Zn28 1.932 1_545 S
O30 C40 1.307 . S
O31 Zn24 1.919 . S
O31 C42 1.253 . S
O32 Zn26 1.941 . S
O32 C42 1.283 . S
O33 Zn26 1.965 . S
O33 C41 1.303 . S
O34 Zn27 1.938 . S
O34 C41 1.247 . S
O35 Zn27 1.906 1_565 S
O35 C43 1.304 . S
O36 Zn24 1.924 1_565 S
O36 C44 1.311 . S
O37 Zn28 1.977 . S
O37 C43 1.272 . S
O38 Zn28 1.910 . S
O38 C44 1.231 . S
C39 O23 1.225 . S
C39 O45 1.298 . S
C40 O29 1.226 . S
C40 O30 1.307 . S
C41 O33 1.303 . S
C41 O34 1.247 . S
C42 O31 1.253 . S
C42 O32 1.283 . S
C43 O35 1.304 . S
C43 O37 1.272 . S
C44 O36 1.311 . S
C44 O38 1.231 . S
O45 Zn27 1.953 . S
O45 C39 1.298 . S
O46 Zn47 1.953 . S
O46 C62 1.225 . S
Zn47 O46 1.953 . S
Zn47 O48 1.949 . S
Zn47 O54 1.919 . S
Zn47 O59 1.924 . S
O48 Zn47 1.949 . S
O48 Zn49 1.923 . S
O48 Zn50 1.950 . S
O48 Zn51 1.945 . S
Zn49 O48 1.923 . S
Zn49 O52 1.933 . S
Zn49 O55 1.941 . S
Zn49 O56 1.965 . S
Zn50 O48 1.950 . S
Zn50 O57 1.938 . S
Zn50 O58 1.906 . S
Zn50 O68 1.953 . S
Zn51 O48 1.945 . S
Zn51 O53 1.932 . S
Zn51 O60 1.977 . S
Zn51 O61 1.910 . S
O52 Zn49 1.933 . S
O52 C63 1.226 . S
O53 Zn51 1.932 . S
O53 C63 1.307 . S
O54 Zn47 1.919 . S
O54 C65 1.253 . S
O55 Zn49 1.941 . S
O55 C65 1.283 . S
O56 Zn49 1.965 . S
O56 C64 1.303 . S
O57 Zn50 1.938 . S
O57 C64 1.247 . S
O58 Zn50 1.906 . S
O58 C66 1.304 . S
O59 Zn47 1.924 . S
O59 C67 1.311 . S
O60 Zn51 1.977 . S
O60 C66 1.272 . S
O61 Zn51 1.910 . S
O61 C67 1.231 . S
C62 O46 1.225 . S
C62 O68 1.298 . S
C63 O52 1.226 . S
C63 O53 1.307 . S
C64 O56 1.303 . S
C64 O57 1.247 . S
C65 O54 1.253 . S
C65 O55 1.283 . S
C66 O58 1.304 . S
C66 O60 1.272 . S
C67 O59 1.311 . S
C67 O61 1.231 . S
O68 Zn50 1.953 . S
O68 C62 1.298 . S
H69 C74 0.930 . S
H70 C77 0.930 . S
H71 C79 0.930 1_565 S
H72 C73 1.016 . S
C73 H72 1.016 . S
C73 N80 1.286 . S
C74 H69 0.930 . S
C74 C75 1.397 . S
C74 C76 1.361 . S
C75 C74 1.397 . S
C75 C79 1.390 . S
C76 C74 1.361 . S
C76 C77 1.393 . S
C76 N80 1.413 . S
C77 H70 0.930 . S
C77 C76 1.393 . S
C77 C78 1.399 . S
C78 C77 1.399 . S
C78 C79 1.381 . S
C79 H71 0.930 1_545 S
C79 C75 1.390 . S
C79 C78 1.381 . S
N80 C73 1.286 . S
N80 C76 1.413 . S
H81 C86 0.930 . S
H82 C89 0.930 . S
H83 C91 0.930 . S
H84 C85 1.016 . S
C85 H84 1.016 . S
C85 N92 1.286 . S
C86 H81 0.930 . S
C86 C87 1.397 . S
C86 C88 1.361 . S
C87 C86 1.397 . S
C87 C91 1.390 . S
C88 C86 1.361 . S
C88 C89 1.393 . S
C88 N92 1.413 . S
C89 H82 0.930 . S
C89 C88 1.393 . S
C89 C90 1.399 . S
C90 C89 1.399 . S
C90 C91 1.381 . S
C91 H83 0.930 . S
C91 C87 1.390 . S
C91 C90 1.381 . S
N92 C85 1.286 . S
N92 C88 1.413 . S
H93 C98 0.930 . S
H94 C101 0.930 . S
H95 C103 0.930 . S
H96 C97 1.016 . S
C97 H96 1.016 . S
C97 N104 1.286 . S
C98 H93 0.930 . S
C98 C99 1.397 1_455 S
C98 C100 1.361 . S
C99 C98 1.397 1_655 S
C99 C103 1.390 . S
C100 C98 1.361 . S
C100 C101 1.393 . S
C100 N104 1.413 . S
C101 H94 0.930 . S
C101 C100 1.393 . S
C101 C102 1.399 . S
C102 C101 1.399 . S
C102 C103 1.381 1_455 S
C103 H95 0.930 . S
C103 C99 1.390 . S
C103 C102 1.381 1_655 S
N104 C97 1.286 . S
N104 C100 1.413 . S
H105 C110 0.930 . S
H106 C113 0.930 . S
H107 C115 0.930 . S
H108 C109 1.016 . S
C109 H108 1.016 . S
C109 N116 1.286 . S
C110 H105 0.930 . S
C110 C111 1.397 . S
C110 C112 1.361 . S
C111 C110 1.397 . S
C111 C115 1.390 . S
C112 C110 1.361 . S
C112 C113 1.393 1_455 S
C112 N116 1.413 1_455 S
C113 H106 0.930 . S
C113 C112 1.393 1_655 S
C113 C114 1.399 1_655 S
C114 C113 1.399 1_455 S
C114 C115 1.381 . S
C115 H107 0.930 . S
C115 C111 1.390 . S
C115 C114 1.381 . S
N116 C109 1.286 . S
N116 C112 1.413 1_655 S
H117 C122 0.930 . S
H118 C125 0.930 1_565 S
H119 C127 0.930 . S
H120 C121 1.016 . S
C121 H120 1.016 . S
C121 N128 1.286 . S
C122 H117 0.930 . S
C122 C123 1.397 . S
C122 C124 1.361 . S
C123 C122 1.397 . S
C123 C127 1.390 . S
C124 C122 1.361 . S
C124 C125 1.393 . S
C124 N128 1.413 1_545 S
C125 H118 0.930 1_545 S
C125 C124 1.393 . S
C125 C126 1.399 . S
C126 C125 1.399 . S
C126 C127 1.381 . S
C127 H119 0.930 . S
C127 C123 1.390 . S
C127 C126 1.381 . S
N128 C121 1.286 . S
N128 C124 1.413 1_565 S
H129 C134 0.930 . S
H130 C137 0.930 . S
H131 C139 0.930 . S
H132 C133 1.016 . S
C133 H132 1.016 . S
C133 N140 1.286 . S
C134 H129 0.930 . S
C134 C135 1.397 . S
C134 C136 1.361 . S
C135 C134 1.397 . S
C135 C139 1.390 . S
C136 C134 1.361 . S
C136 C137 1.393 . S
C136 N140 1.413 . S
C137 H130 0.930 . S
C137 C136 1.393 . S
C137 C138 1.399 . S
C138 C137 1.399 . S
C138 C139 1.381 . S
C139 H131 0.930 . S
C139 C135 1.390 . S
C139 C138 1.381 . S
N140 C133 1.286 . S
N140 C136 1.413 . S
H141 C147 0.930 . S
H142 C151 0.930 . S
H143 C156 0.929 . S
H144 C154 0.929 . S
H145 C149 0.929 . S
H146 C155 0.929 . S
C147 H141 0.930 . S
C147 C148 1.367 . S
C147 C155 1.378 . S
C148 C147 1.367 . S
C148 C156 1.433 . S
C149 H145 0.929 . S
C149 C151 1.378 . S
C149 C153 1.350 . S
C150 C153 1.463 . S
C150 C155 1.350 . S
C150 N158 1.427 . S
C151 H142 0.930 . S
C151 C149 1.378 . S
C151 C152 1.367 . S
C152 C151 1.367 . S
C152 C154 1.433 . S
C153 C149 1.350 . S
C153 C150 1.463 . S
C153 N157 1.427 . S
C154 H144 0.929 . S
C154 C152 1.433 . S
C154 N157 1.384 . S
C155 H146 0.929 . S
C155 C147 1.378 . S
C155 C150 1.350 . S
C156 H143 0.929 . S
C156 C148 1.433 . S
C156 N158 1.384 . S
N157 C153 1.427 . S
N157 C154 1.384 . S
N158 C150 1.427 . S
N158 C156 1.384 . S
H159 C165 0.930 . S
H160 C169 0.930 . S
H161 C174 0.929 . S
H162 C172 0.929 . S
H163 C167 0.929 . S
H164 C173 0.929 . S
C165 H159 0.930 . S
C165 C166 1.367 . S
C165 C173 1.378 . S
C166 C165 1.367 . S
C166 C174 1.433 . S
C167 H163 0.929 . S
C167 C169 1.378 . S
C167 C171 1.350 . S
C168 C171 1.463 . S
C168 C173 1.350 . S
C168 N176 1.427 . S
C169 H160 0.930 . S
C169 C167 1.378 . S
C169 C170 1.367 . S
C170 C169 1.367 . S
C170 C172 1.433 . S
C171 C167 1.350 . S
C171 C168 1.463 . S
C171 N175 1.427 . S
C172 H162 0.929 . S
C172 C170 1.433 . S
C172 N175 1.384 . S
C173 H164 0.929 . S
C173 C165 1.378 . S
C173 C168 1.350 . S
C174 H161 0.929 . S
C174 C166 1.433 . S
C174 N176 1.384 . S
N175 C171 1.427 . S
N175 C172 1.384 . S
N176 C168 1.427 . S
N176 C174 1.384 . S
H177 C183 0.930 . S
H178 C187 0.930 . S
H179 C192 0.929 . S
H180 C190 0.929 . S
H181 C185 0.929 . S
H182 C191 0.929 . S
C183 H177 0.930 . S
C183 C184 1.367 . S
C183 C191 1.378 . S
C184 C183 1.367 . S
C184 C192 1.433 . S
C185 H181 0.929 . S
C185 C187 1.378 . S
C185 C189 1.350 . S
C186 C189 1.463 . S
C186 C191 1.350 . S
C186 N194 1.427 . S
C187 H178 0.930 . S
C187 C185 1.378 . S
C187 C188 1.367 . S
C188 C187 1.367 . S
C188 C190 1.433 . S
C189 C185 1.350 . S
C189 C186 1.463 . S
C189 N193 1.427 . S
C190 H180 0.929 . S
C190 C188 1.433 . S
C190 N193 1.384 . S
C191 H182 0.929 . S
C191 C183 1.378 . S
C191 C186 1.350 . S
C192 H179 0.929 . S
C192 C184 1.433 . S
C192 N194 1.384 . S
N193 C189 1.427 . S
N193 C190 1.384 . S
N194 C186 1.427 . S
N194 C192 1.384 . S
H195 C201 0.930 . S
H196 C205 0.930 . S
H197 C210 0.929 . S
H198 C208 0.929 . S
H199 C203 0.929 . S
H200 C209 0.929 . S
C201 H195 0.930 . S
C201 C202 1.367 . S
C201 C209 1.378 . S
C202 C201 1.367 . S
C202 C210 1.433 . S
C203 H199 0.929 . S
C203 C205 1.378 . S
C203 C207 1.350 . S
C204 C207 1.463 . S
C204 C209 1.350 . S
C204 N212 1.427 . S
C205 H196 0.930 . S
C205 C203 1.378 . S
C205 C206 1.367 . S
C206 C205 1.367 . S
C206 C208 1.433 . S
C207 C203 1.350 . S
C207 C204 1.463 . S
C207 N211 1.427 . S
C208 H198 0.929 . S
C208 C206 1.433 . S
C208 N211 1.384 . S
C209 H200 0.929 . S
C209 C201 1.378 . S
C209 C204 1.350 . S
C210 H197 0.929 . S
C210 C202 1.433 . S
C210 N212 1.384 . S
N211 C207 1.427 . S
N211 C208 1.384 . S
N212 C204 1.427 . S
N212 C210 1.384 . S
H213 C219 0.930 . S
H214 C223 0.930 . S
H215 C228 0.929 . S
H216 C226 0.929 . S
H217 C221 0.929 . S
H218 C227 0.929 . S
C219 H213 0.930 . S
C219 C220 1.367 . S
C219 C227 1.378 . S
C220 C219 1.367 . S
C220 C228 1.433 . S
C221 H217 0.929 . S
C221 C223 1.378 . S
C221 C225 1.350 . S
C222 C225 1.463 . S
C222 C227 1.350 . S
C222 N230 1.427 . S
C223 H214 0.930 . S
C223 C221 1.378 . S
C223 C224 1.367 . S
C224 C223 1.367 . S
C224 C226 1.433 . S
C225 C221 1.350 . S
C225 C222 1.463 . S
C225 N229 1.427 . S
C226 H216 0.929 . S
C226 C224 1.433 . S
C226 N229 1.384 . S
C227 H218 0.929 . S
C227 C219 1.378 . S
C227 C222 1.350 . S
C228 H215 0.929 . S
C228 C220 1.433 . S
C228 N230 1.384 . S
N229 C225 1.427 . S
N229 C226 1.384 . S
N230 C222 1.427 . S
N230 C228 1.384 . S
H231 C237 0.930 . S
H232 C241 0.930 . S
H233 C246 0.929 . S
H234 C244 0.929 . S
H235 C239 0.929 . S
H236 C245 0.929 . S
C237 H231 0.930 . S
C237 C238 1.367 . S
C237 C245 1.378 . S
C238 C237 1.367 . S
C238 C246 1.433 . S
C239 H235 0.929 . S
C239 C241 1.378 . S
C239 C243 1.350 . S
C240 C243 1.463 . S
C240 C245 1.350 . S
C240 N248 1.427 . S
C241 H232 0.930 . S
C241 C239 1.378 . S
C241 C242 1.367 . S
C242 C241 1.367 . S
C242 C244 1.433 . S
C243 C239 1.350 . S
C243 C240 1.463 . S
C243 N247 1.427 . S
C244 H234 0.929 . S
C244 C242 1.433 . S
C244 N247 1.384 . S
C245 H236 0.929 . S
C245 C237 1.378 . S
C245 C240 1.350 . S
C246 H233 0.929 . S
C246 C238 1.433 . S
C246 N248 1.384 . S
N247 C243 1.427 . S
N247 C244 1.384 . S
N248 C240 1.427 . S
N248 C246 1.384 . S
H249 C255 0.930 . S
H250 C259 0.930 . S
H251 C264 0.929 . S
H252 C262 0.929 . S
H253 C257 0.929 . S
H254 C263 0.929 . S
C255 H249 0.930 . S
C255 C256 1.367 . S
C255 C263 1.378 . S
C256 C255 1.367 . S
C256 C264 1.433 . S
C257 H253 0.929 . S
C257 C259 1.378 . S
C257 C261 1.350 . S
C258 C261 1.463 . S
C258 C263 1.350 . S
C258 N266 1.427 . S
C259 H250 0.930 . S
C259 C257 1.378 . S
C259 C260 1.367 . S
C260 C259 1.367 . S
C260 C262 1.433 . S
C261 C257 1.350 . S
C261 C258 1.463 . S
C261 N265 1.427 . S
C262 H252 0.929 . S
C262 C260 1.433 . S
C262 N265 1.384 . S
C263 H254 0.929 . S
C263 C255 1.378 . S
C263 C258 1.350 . S
C264 H251 0.929 . S
C264 C256 1.433 . S
C264 N266 1.384 . S
N265 C261 1.427 . S
N265 C262 1.384 . S
N266 C258 1.427 . S
N266 C264 1.384 . S
H267 C273 0.930 . S
H268 C277 0.930 . S
H269 C282 0.929 . S
H270 C280 0.929 . S
H271 C275 0.929 . S
H272 C281 0.929 . S
C273 H267 0.930 . S
C273 C274 1.367 . S
C273 C281 1.378 . S
C274 C273 1.367 . S
C274 C282 1.433 . S
C275 H271 0.929 . S
C275 C277 1.378 . S
C275 C279 1.350 . S
C276 C279 1.463 . S
C276 C281 1.350 . S
C276 N284 1.427 . S
C277 H268 0.930 . S
C277 C275 1.378 . S
C277 C278 1.367 . S
C278 C277 1.367 . S
C278 C280 1.433 . S
C279 C275 1.350 . S
C279 C276 1.463 . S
C279 N283 1.427 . S
C280 H270 0.929 . S
C280 C278 1.433 . S
C280 N283 1.384 . S
C281 H272 0.929 . S
C281 C273 1.378 . S
C281 C276 1.350 . S
C282 H269 0.929 . S
C282 C274 1.433 . S
C282 N284 1.384 . S
N283 C279 1.427 . S
N283 C280 1.384 . S
N284 C276 1.427 . S
N284 C282 1.384 . S
H285 C291 0.930 . S
H286 C295 0.930 . S
H287 C300 0.929 . S
H288 C298 0.929 . S
H289 C293 0.929 . S
H290 C299 0.929 . S
C291 H285 0.930 . S
C291 C292 1.367 . S
C291 C299 1.378 . S
C292 C291 1.367 . S
C292 C300 1.433 . S
C293 H289 0.929 . S
C293 C295 1.378 . S
C293 C297 1.350 . S
C294 C297 1.463 . S
C294 C299 1.350 . S
C294 N302 1.427 . S
C295 H286 0.930 . S
C295 C293 1.378 . S
C295 C296 1.367 . S
C296 C295 1.367 . S
C296 C298 1.433 . S
C297 C293 1.350 . S
C297 C294 1.463 . S
C297 N301 1.427 . S
C298 H288 0.929 . S
C298 C296 1.433 . S
C298 N301 1.384 . S
C299 H290 0.929 . S
C299 C291 1.378 . S
C299 C294 1.350 . S
C300 H287 0.929 . S
C300 C292 1.433 . S
C300 N302 1.384 . S
N301 C297 1.427 . S
N301 C298 1.384 . S
N302 C294 1.427 . S
N302 C300 1.384 . S
H303 C309 0.930 . S
H304 C313 0.930 . S
H305 C318 0.929 . S
H306 C316 0.929 . S
H307 C311 0.929 . S
H308 C317 0.929 . S
C309 H303 0.930 . S
C309 C310 1.367 . S
C309 C317 1.378 . S
C310 C309 1.367 . S
C310 C318 1.433 . S
C311 H307 0.929 . S
C311 C313 1.378 . S
C311 C315 1.350 . S
C312 C315 1.463 . S
C312 C317 1.350 . S
C312 N320 1.427 . S
C313 H304 0.930 . S
C313 C311 1.378 . S
C313 C314 1.367 . S
C314 C313 1.367 . S
C314 C316 1.433 . S
C315 C311 1.350 . S
C315 C312 1.463 . S
C315 N319 1.427 . S
C316 H306 0.929 . S
C316 C314 1.433 . S
C316 N319 1.384 . S
C317 H308 0.929 . S
C317 C309 1.378 . S
C317 C312 1.350 . S
C318 H305 0.929 . S
C318 C310 1.433 . S
C318 N320 1.384 . S
N319 C315 1.427 . S
N319 C316 1.384 . S
N320 C312 1.427 . S
N320 C318 1.384 . S
H321 C327 0.930 . S
H322 C331 0.930 . S
H323 C336 0.929 . S
H324 C334 0.929 . S
H325 C329 0.929 . S
H326 C335 0.929 . S
C327 H321 0.930 . S
C327 C328 1.367 . S
C327 C335 1.378 . S
C328 C327 1.367 . S
C328 C336 1.433 . S
C329 H325 0.929 . S
C329 C331 1.378 . S
C329 C333 1.350 . S
C330 C333 1.463 . S
C330 C335 1.350 . S
C330 N338 1.427 . S
C331 H322 0.930 . S
C331 C329 1.378 . S
C331 C332 1.367 . S
C332 C331 1.367 . S
C332 C334 1.433 . S
C333 C329 1.350 . S
C333 C330 1.463 . S
C333 N337 1.427 . S
C334 H324 0.929 . S
C334 C332 1.433 . S
C334 N337 1.384 . S
C335 H326 0.929 . S
C335 C327 1.378 . S
C335 C330 1.350 . S
C336 H323 0.929 . S
C336 C328 1.433 . S
C336 N338 1.384 . S
N337 C333 1.427 . S
N337 C334 1.384 . S
N338 C330 1.427 . S
N338 C336 1.384 . S
H339 C345 0.930 . S
H340 C349 0.930 . S
H341 C354 0.929 . S
H342 C352 0.929 . S
H343 C347 0.929 . S
H344 C353 0.929 . S
C345 H339 0.930 . S
C345 C346 1.367 . S
C345 C353 1.378 . S
C346 C345 1.367 . S
C346 C354 1.433 . S
C347 H343 0.929 . S
C347 C349 1.378 . S
C347 C351 1.350 . S
C348 C351 1.463 . S
C348 C353 1.350 . S
C348 N356 1.427 . S
C349 H340 0.930 . S
C349 C347 1.378 . S
C349 C350 1.367 . S
C350 C349 1.367 . S
C350 C352 1.433 . S
C351 C347 1.350 . S
C351 C348 1.463 . S
C351 N355 1.427 . S
C352 H342 0.929 . S
C352 C350 1.433 . S
C352 N355 1.384 . S
C353 H344 0.929 . S
C353 C345 1.378 . S
C353 C348 1.350 . S
C354 H341 0.929 . S
C354 C346 1.433 . S
C354 N356 1.384 . S
N355 C351 1.427 . S
N355 C352 1.384 . S
N356 C348 1.427 . S
N356 C354 1.384 . S
H357 C363 0.930 . S
H358 C367 0.930 . S
H359 C372 0.929 . S
H360 C370 0.929 . S
H361 C365 0.928 1_554 S
H362 C371 0.929 . S
C363 H357 0.930 . S
C363 C364 1.367 . S
C363 C371 1.378 . S
C364 C363 1.367 . S
C364 C372 1.433 . S
C365 H361 0.928 1_556 S
C365 C367 1.378 . S
C365 C369 1.350 1_556 S
C366 C369 1.463 . S
C366 C371 1.350 . S
C366 N374 1.427 . S
C367 H358 0.930 . S
C367 C365 1.378 . S
C367 C368 1.367 . S
C368 C367 1.367 . S
C368 C370 1.433 . S
C369 C365 1.350 1_554 S
C369 C366 1.463 . S
C369 N373 1.427 1_554 S
C370 H360 0.929 . S
C370 C368 1.433 . S
C370 N373 1.384 . S
C371 H362 0.929 . S
C371 C363 1.378 . S
C371 C366 1.350 . S
C372 H359 0.929 . S
C372 C364 1.433 . S
C372 N374 1.384 . S
N373 C369 1.427 1_556 S
N373 C370 1.384 . S
N374 C366 1.427 . S
N374 C372 1.384 . S
H375 C381 0.930 . S
H376 C385 0.930 . S
H377 C390 0.929 . S
H378 C388 0.929 . S
H379 C383 0.929 . S
H380 C389 0.929 . S
C381 H375 0.930 . S
C381 C382 1.367 . S
C381 C389 1.378 . S
C382 C381 1.367 . S
C382 C390 1.433 . S
C383 H379 0.929 . S
C383 C385 1.378 . S
C383 C387 1.350 . S
C384 C387 1.463 . S
C384 C389 1.350 . S
C384 N392 1.427 . S
C385 H376 0.930 . S
C385 C383 1.378 . S
C385 C386 1.367 . S
C386 C385 1.367 . S
C386 C388 1.433 . S
C387 C383 1.350 . S
C387 C384 1.463 . S
C387 N391 1.427 . S
C388 H378 0.929 . S
C388 C386 1.433 . S
C388 N391 1.384 . S
C389 H380 0.929 . S
C389 C381 1.378 . S
C389 C384 1.350 . S
C390 H377 0.929 . S
C390 C382 1.433 . S
C390 N392 1.384 . S
N391 C387 1.427 . S
N391 C388 1.384 . S
N392 C384 1.427 . S
N392 C390 1.384 . S
H393 C399 0.930 . S
H394 C403 0.930 . S
H395 C408 0.929 . S
H396 C406 0.929 . S
H397 C401 0.929 . S
H398 C407 0.929 . S
C399 H393 0.930 . S
C399 C400 1.367 . S
C399 C407 1.378 . S
C400 C399 1.367 . S
C400 C408 1.433 . S
C401 H397 0.929 . S
C401 C403 1.378 . S
C401 C405 1.350 . S
C402 C405 1.463 . S
C402 C407 1.350 . S
C402 N410 1.427 . S
C403 H394 0.930 . S
C403 C401 1.378 . S
C403 C404 1.367 . S
C404 C403 1.367 . S
C404 C406 1.433 . S
C405 C401 1.350 . S
C405 C402 1.463 . S
C405 N409 1.427 . S
C406 H396 0.929 . S
C406 C404 1.433 . S
C406 N409 1.384 . S
C407 H398 0.929 . S
C407 C399 1.378 . S
C407 C402 1.350 . S
C408 H395 0.929 . S
C408 C400 1.433 . S
C408 N410 1.384 . S
N409 C405 1.427 . S
N409 C406 1.384 . S
N410 C402 1.427 . S
N410 C408 1.384 . S
H411 C417 0.930 . S
H412 C421 0.930 . S
H413 C426 0.935 . S
H414 C424 0.929 . S
H415 C419 0.929 . S
H416 C425 0.929 . S
C417 H411 0.930 . S
C417 C418 1.367 . S
C417 C425 1.378 . S
C418 C417 1.367 . S
C418 C426 1.425 1_545 S
C419 H415 0.929 . S
C419 C421 1.378 . S
C419 C423 1.350 1_565 S
C420 C423 1.463 . S
C420 C425 1.350 . S
C420 N428 1.427 1_545 S
C421 H412 0.930 . S
C421 C419 1.378 . S
C421 C422 1.367 1_565 S
C422 C421 1.367 1_545 S
C422 C424 1.433 . S
C423 C419 1.350 1_545 S
C423 C420 1.463 . S
C423 N427 1.427 . S
C424 H414 0.929 . S
C424 C422 1.433 . S
C424 N427 1.384 . S
C425 H416 0.929 . S
C425 C417 1.378 . S
C425 C420 1.350 . S
C426 H413 0.935 . S
C426 C418 1.425 1_565 S
C426 N428 1.385 . S
N427 C423 1.427 . S
N427 C424 1.384 . S
N428 C420 1.427 1_565 S
N428 C426 1.385 . S
H429 C435 0.930 . S
H430 C439 0.930 . S
H431 C444 0.929 . S
H432 C442 0.929 . S
H433 C437 0.950 . S
H434 C443 0.929 . S
C435 H429 0.930 . S
C435 C436 1.367 . S
C435 C443 1.378 . S
C436 C435 1.367 . S
C436 C444 1.433 . S
C437 H433 0.950 . S
C437 C439 1.378 . S
C437 C441 1.350 1_554 S
C438 C441 1.463 . S
C438 C443 1.350 . S
C438 N446 1.427 . S
C439 H430 0.930 . S
C439 C437 1.378 . S
C439 C440 1.367 . S
C440 C439 1.367 . S
C440 C442 1.433 . S
C441 C437 1.350 1_556 S
C441 C438 1.463 . S
C441 N445 1.427 1_556 S
C442 H432 0.929 . S
C442 C440 1.433 . S
C442 N445 1.384 . S
C443 H434 0.929 . S
C443 C435 1.378 . S
C443 C438 1.350 . S
C444 H431 0.929 . S
C444 C436 1.433 . S
C444 N446 1.384 . S
N445 C441 1.427 1_554 S
N445 C442 1.384 . S
N446 C438 1.427 . S
N446 C444 1.384 . S
H447 C453 0.930 . S
H448 C457 0.930 . S
H449 C462 0.929 . S
H450 C460 0.929 . S
H451 C455 0.929 . S
H452 C461 0.929 . S
C453 H447 0.930 . S
C453 C454 1.367 . S
C453 C461 1.378 . S
C454 C453 1.367 . S
C454 C462 1.433 . S
C455 H451 0.929 . S
C455 C457 1.378 . S
C455 C459 1.350 . S
C456 C459 1.463 . S
C456 C461 1.350 . S
C456 N464 1.427 . S
C457 H448 0.930 . S
C457 C455 1.378 . S
C457 C458 1.367 . S
C458 C457 1.367 . S
C458 C460 1.433 . S
C459 C455 1.350 . S
C459 C456 1.463 . S
C459 N463 1.427 . S
C460 H450 0.929 . S
C460 C458 1.433 . S
C460 N463 1.384 . S
C461 H452 0.929 . S
C461 C453 1.378 . S
C461 C456 1.350 . S
C462 H449 0.929 . S
C462 C454 1.433 . S
C462 N464 1.384 . S
N463 C459 1.427 . S
N463 C460 1.384 . S
N464 C456 1.427 . S
N464 C462 1.384 . S
C148 C20 1.507 . S
C152 C135 1.541 . S
C166 C41 1.317 . S
C170 C109 1.291 . S
C184 C64 1.333 . S
C188 C121 1.314 . S
C202 C19 1.054 . S
C206 C133 1.081 . S
C224 C111 1.299 . S
C220 C44 1.285 . S
C242 C123 1.257 . S
C238 C67 1.246 . S
C256 C43 1.277 . S
C260 C85 1.292 . S
C274 C66 1.495 . S
C278 C99 1.540 . S
C292 C21 1.267 . S
C296 C75 1.277 1_565 S
C314 C87 1.316 . S
C310 C42 1.262 . S
C332 C97 1.080 . S
C328 C65 1.051 . S
C346 C18 1.320 . S
C350 C73 1.295 . S
C368 C102 1.524 . S
C364 C17 1.525 . S
C382 C39 1.535 . S
C386 C78 1.530 . S
C400 C62 1.535 . S
C404 C90 1.529 . S
C422 C126 1.522 . S
C418 C40 1.518 . S
C440 C138 1.526 . S
C436 C63 1.523 . S
C454 C16 1.516 . S
C458 C114 1.511 . S
