# Generated by pormake.
# Topology wbl, (4,4)-cn, num edge types: 1
# Building blocks:
#     Node 0, Type 0, BuildingBlock: MIFKUJ_clean_linker_1, # of connection points: 4
#     Node 1, Type 0, BuildingBlock: MIFKUJ_clean_linker_1, # of connection points: 4
#     Node 2, Type 0, BuildingBlock: MIFKUJ_clean_linker_1, # of connection points: 4
#     Node 3, Type 0, BuildingBlock: MIFKUJ_clean_linker_1, # of connection points: 4
#     Node 4, Type 0, BuildingBlock: MIFKUJ_clean_linker_1, # of connection points: 4
#     Node 5, Type 0, BuildingBlock: MIFKUJ_clean_linker_1, # of connection points: 4
#     Node 6, Type 0, BuildingBlock: MIFKUJ_clean_linker_1, # of connection points: 4
#     Node 7, Type 0, BuildingBlock: MIFKUJ_clean_linker_1, # of connection points: 4
#     Node 8, Type 1, BuildingBlock: NAHDIM_clean_sbu_0, # of connection points: 4
#     Node 9, Type 1, BuildingBlock: NAHDIM_clean_sbu_0, # of connection points: 4
#     Node 10, Type 1, BuildingBlock: NAHDIM_clean_sbu_0, # of connection points: 4
#     Node 11, Type 1, BuildingBlock: NAHDIM_clean_sbu_0, # of connection points: 4
#     Node 12, Type 1, BuildingBlock: NAHDIM_clean_sbu_0, # of connection points: 4
#     Node 13, Type 1, BuildingBlock: NAHDIM_clean_sbu_0, # of connection points: 4
#     Node 14, Type 1, BuildingBlock: NAHDIM_clean_sbu_0, # of connection points: 4
#     Node 15, Type 1, BuildingBlock: NAHDIM_clean_sbu_0, # of connection points: 4
#     Edge 16, Type (0, 1), BuildingBlock: ZUJKAS_clean_linker_0, # of connection points: 2
#     Edge 17, Type (0, 1), BuildingBlock: ZUJKAS_clean_linker_0, # of connection points: 2
#     Edge 18, Type (0, 1), BuildingBlock: ZUJKAS_clean_linker_0, # of connection points: 2
#     Edge 19, Type (0, 1), BuildingBlock: ZUJKAS_clean_linker_0, # of connection points: 2
#     Edge 20, Type (0, 1), BuildingBlock: ZUJKAS_clean_linker_0, # of connection points: 2
#     Edge 21, Type (0, 1), BuildingBlock: ZUJKAS_clean_linker_0, # of connection points: 2
#     Edge 22, Type (0, 1), BuildingBlock: ZUJKAS_clean_linker_0, # of connection points: 2
#     Edge 23, Type (0, 1), BuildingBlock: ZUJKAS_clean_linker_0, # of connection points: 2
#     Edge 24, Type (0, 1), BuildingBlock: ZUJKAS_clean_linker_0, # of connection points: 2
#     Edge 25, Type (0, 1), BuildingBlock: ZUJKAS_clean_linker_0, # of connection points: 2
#     Edge 26, Type (0, 1), BuildingBlock: ZUJKAS_clean_linker_0, # of connection points: 2
#     Edge 27, Type (0, 1), BuildingBlock: ZUJKAS_clean_linker_0, # of connection points: 2
#     Edge 28, Type (0, 1), BuildingBlock: ZUJKAS_clean_linker_0, # of connection points: 2
#     Edge 29, Type (0, 1), BuildingBlock: ZUJKAS_clean_linker_0, # of connection points: 2
#     Edge 30, Type (0, 1), BuildingBlock: ZUJKAS_clean_linker_0, # of connection points: 2
#     Edge 31, Type (0, 1), BuildingBlock: ZUJKAS_clean_linker_0, # of connection points: 2
#     Edge 32, Type (0, 1), BuildingBlock: ZUJKAS_clean_linker_0, # of connection points: 2
#     Edge 33, Type (0, 1), BuildingBlock: ZUJKAS_clean_linker_0, # of connection points: 2
#     Edge 34, Type (0, 1), BuildingBlock: ZUJKAS_clean_linker_0, # of connection points: 2
#     Edge 35, Type (0, 1), BuildingBlock: ZUJKAS_clean_linker_0, # of connection points: 2
#     Edge 36, Type (0, 1), BuildingBlock: ZUJKAS_clean_linker_0, # of connection points: 2
#     Edge 37, Type (0, 1), BuildingBlock: ZUJKAS_clean_linker_0, # of connection points: 2
#     Edge 38, Type (0, 1), BuildingBlock: ZUJKAS_clean_linker_0, # of connection points: 2
#     Edge 39, Type (0, 1), BuildingBlock: ZUJKAS_clean_linker_0, # of connection points: 2
#     Edge 40, Type (0, 1), BuildingBlock: ZUJKAS_clean_linker_0, # of connection points: 2
#     Edge 41, Type (0, 1), BuildingBlock: ZUJKAS_clean_linker_0, # of connection points: 2
#     Edge 42, Type (0, 1), BuildingBlock: ZUJKAS_clean_linker_0, # of connection points: 2
#     Edge 43, Type (0, 1), BuildingBlock: ZUJKAS_clean_linker_0, # of connection points: 2
#     Edge 44, Type (0, 1), BuildingBlock: ZUJKAS_clean_linker_0, # of connection points: 2
#     Edge 45, Type (0, 1), BuildingBlock: ZUJKAS_clean_linker_0, # of connection points: 2
#     Edge 46, Type (0, 1), BuildingBlock: ZUJKAS_clean_linker_0, # of connection points: 2
#     Edge 47, Type (0, 1), BuildingBlock: ZUJKAS_clean_linker_0, # of connection points: 2
# Relax obj value: 0.144
# Max RMSD: 0.133
# Mean RMSD: 0.124
data_MOF--net-wbl--node1-NAHDIM_clean_sbu_0--node2-MIFKUJ_clean_linker_1--edge1-ZUJKAS_clean_linker_0
_symmetry_space_group_name_H-M    P1
_symmetry_Int_Tables_number       1
_symmetry_cell_setting            triclinic
loop_
_symmetry_equiv_pos_as_xyz
'x, y, z'
_cell_length_a     58.640799
_cell_length_b     56.84709
_cell_length_c     90.893783
_cell_angle_alpha  90.060286
_cell_angle_beta   90.013888
_cell_angle_gamma 90.032055
loop_
_atom_site_label
_atom_site_type_symbol
_atom_site_fract_x
_atom_site_fract_y
_atom_site_fract_z
_atom_type_partial_charge
H0 H 0.0074 0.05459 0.35791 0.0
H1 H 0.98501 0.08144 0.37318 0.0
H2 H 0.92313 0.04678 0.35903 0.0
H3 H 0.94563 0.02022 0.34365 0.0
H4 H 0.00963 0.00698 0.36075 0.0
H5 H 0.98867 0.06216 0.3229 0.0
H6 H 0.96068 0.08614 0.30976 0.0
H7 H 0.92575 0.02299 0.2958 0.0
H8 H 0.95349 -0.00086 0.30925 0.0
H9 H 0.00323 0.94601 0.31002 0.0
H10 H 0.02708 0.91789 0.29646 0.0
H11 H 0.08744 0.95447 0.31135 0.0
H12 H 0.06361 0.98254 0.32468 0.0
H13 H -0.00044 0.99425 0.30713 0.0
H14 H 0.01997 0.939 0.34425 0.0
H15 H 0.04321 0.91453 0.36047 0.0
H16 H 0.07778 0.97667 0.37645 0.0
H17 H 0.05445 0.00106 0.36021 0.0
C18 C 0.97817 0.03549 0.34961 0.0
C19 C 0.98899 0.05293 0.35802 0.0
C20 C 0.97618 0.06819 0.36678 0.0
C21 C 0.95229 0.06617 0.36738 0.0
C22 C 0.94146 0.04902 0.35866 0.0
C23 C 0.9543 0.03378 0.34989 0.0
C24 C 0.99197 0.01824 0.34124 0.0
C25 C 0.00775 0.00448 0.34897 0.0
C26 C 0.9889 0.01444 0.32599 0.0
C27 C 0.97294 0.02891 0.31721 0.0
C28 C 0.97499 0.05351 0.31699 0.0
C29 C 0.95912 0.06717 0.30937 0.0
C30 C 0.94097 0.05643 0.30182 0.0
C31 C 0.93939 0.03175 0.30169 0.0
C32 C 0.95529 0.01811 0.30927 0.0
C33 C 0.03169 0.96623 0.3184 0.0
C34 C 0.0216 0.94795 0.31029 0.0
C35 C 0.0352 0.93186 0.30264 0.0
C36 C 0.05908 0.93406 0.30283 0.0
C37 C 0.06907 0.95251 0.31087 0.0
C38 C 0.05551 0.96844 0.31859 0.0
C39 C 0.01744 0.98319 0.32664 0.0
C40 C 0.00157 0.99685 0.31888 0.0
C41 C 0.02038 0.98686 0.34191 0.0
C42 C 0.03557 0.97185 0.35096 0.0
C43 C 0.03284 0.94731 0.35106 0.0
C44 C 0.04614 0.93334 0.36033 0.0
C45 C 0.06229 0.94368 0.36978 0.0
C46 C 0.06527 0.96822 0.36945 0.0
C47 C 0.05201 0.98217 0.36015 0.0
H48 H 0.9919 0.44977 0.55919 0.0
H49 H 0.96645 0.42162 0.54709 0.0
H50 H 0.90813 0.46149 0.56197 0.0
H51 H 0.93369 0.48981 0.57385 0.0
H52 H -0.00096 0.49787 0.55706 0.0
H53 H 0.97171 0.44182 0.59292 0.0
H54 H 0.94462 0.42002 0.60815 0.0
H55 H 0.91859 0.48562 0.62539 0.0
H56 H 0.94512 0.50727 0.60973 0.0
H57 H 0.00132 0.55139 0.61148 0.0
H58 H 0.0283 0.5722 0.62736 0.0
H59 H 0.08361 0.53136 0.60907 0.0
H60 H 0.05644 0.51024 0.59344 0.0
H61 H 0.99127 0.50523 0.61124 0.0
H62 H 0.01861 0.56146 0.57745 0.0
H63 H 0.04864 0.58432 0.5656 0.0
H64 H 0.07457 0.52114 0.54517 0.0
H65 H 0.04457 0.49812 0.55732 0.0
C66 C 0.96465 0.47169 0.56753 0.0
C67 C 0.97365 0.45265 0.55962 0.0
C68 C 0.9591 0.4365 0.55282 0.0
C69 C 0.93531 0.43925 0.55372 0.0
C70 C 0.92638 0.45899 0.56104 0.0
C71 C 0.94094 0.47508 0.5679 0.0
C72 C 0.98003 0.48705 0.57618 0.0
C73 C 0.99746 0.49935 0.56891 0.0
C74 C 0.97759 0.48946 0.5916 0.0
C75 C 0.96028 0.47618 0.6001 0.0
C76 C 0.95984 0.45149 0.59976 0.0
C77 C 0.94451 0.43906 0.60858 0.0
C78 C 0.92946 0.45108 0.61801 0.0
C79 C 0.92969 0.47582 0.61811 0.0
C80 C 0.94498 0.48823 0.60926 0.0
C81 C 0.02688 0.52936 0.60124 0.0
C82 C 0.01927 0.54699 0.61086 0.0
C83 C 0.03473 0.55898 0.61984 0.0
C84 C 0.05809 0.55344 0.61944 0.0
C85 C 0.0657 0.53589 0.6097 0.0
C86 C 0.05023 0.52395 0.60068 0.0
C87 C 0.01031 0.516 0.59217 0.0
C88 C 0.9927 0.50398 0.59936 0.0
C89 C 0.01245 0.51407 0.5767 0.0
C90 C 0.02962 0.52802 0.56851 0.0
C91 C 0.0308 0.55247 0.57049 0.0
C92 C 0.04797 0.56551 0.56372 0.0
C93 C 0.0641 0.55442 0.55464 0.0
C94 C 0.06234 0.53009 0.55213 0.0
C95 C 0.04523 0.51697 0.55904 0.0
H96 H 0.50278 0.5541 0.85629 0.0
H97 H 0.47959 0.57917 0.87216 0.0
H98 H 0.41844 0.548 0.85406 0.0
H99 H 0.44183 0.52319 0.83802 0.0
H100 H 0.50348 0.50651 0.85734 0.0
H101 H 0.48699 0.5661 0.82186 0.0
H102 H 0.46208 0.59212 0.80773 0.0
H103 H 0.43029 0.53158 0.78753 0.0
H104 H 0.45511 0.50562 0.8018 0.0
H105 H 0.50333 0.45174 0.80357 0.0
H106 H 0.52876 0.42489 0.79024 0.0
H107 H 0.58702 0.45835 0.81054 0.0
H108 H 0.56166 0.48533 0.8235 0.0
H109 H 0.50003 0.49983 0.80297 0.0
H110 H 0.51626 0.44037 0.83898 0.0
H111 H 0.53754 0.41474 0.85568 0.0
H112 H 0.56974 0.47572 0.8751 0.0
H113 H 0.54835 0.50121 0.85845 0.0
C114 C 0.47403 0.5368 0.84599 0.0
C115 C 0.48437 0.55285 0.85564 0.0
C116 C 0.47109 0.56707 0.86475 0.0
C117 C 0.44717 0.56539 0.86449 0.0
C118 C 0.43681 0.54987 0.85444 0.0
C119 C 0.45014 0.53565 0.84528 0.0
C120 C 0.48834 0.52011 0.83753 0.0
C121 C 0.50299 0.5053 0.84542 0.0
C122 C 0.48711 0.51806 0.82204 0.0
C123 C 0.47264 0.5339 0.81307 0.0
C124 C 0.47456 0.55842 0.81446 0.0
C125 C 0.46036 0.57327 0.80636 0.0
C126 C 0.4442 0.56388 0.79657 0.0
C127 C 0.44275 0.53933 0.79488 0.0
C128 C 0.45685 0.52448 0.80306 0.0
C129 C 0.53063 0.47035 0.81461 0.0
C130 C 0.5216 0.45331 0.80506 0.0
C131 C 0.53611 0.43792 0.79754 0.0
C132 C 0.55987 0.43955 0.79933 0.0
C133 C 0.56881 0.45684 0.80878 0.0
C134 C 0.55434 0.47212 0.81631 0.0
C135 C 0.51538 0.48645 0.8228 0.0
C136 C 0.50052 0.50108 0.81488 0.0
C137 C 0.51645 0.48844 0.83829 0.0
C138 C 0.53075 0.4727 0.84746 0.0
C139 C 0.5282 0.44817 0.84667 0.0
C140 C 0.54037 0.43354 0.85621 0.0
C141 C 0.5552 0.44322 0.86678 0.0
C142 C 0.55816 0.46776 0.86725 0.0
C143 C 0.54602 0.48234 0.85771 0.0
H144 H 0.4867 0.95607 0.05807 0.0
H145 H 0.46107 0.92836 0.04574 0.0
H146 H 0.40301 0.96794 0.06135 0.0
H147 H 0.4287 0.9956 0.0736 0.0
H148 H 0.49501 0.00259 0.05651 0.0
H149 H 0.4675 0.94886 0.09311 0.0
H150 H 0.4417 0.92705 0.10924 0.0
H151 H 0.41249 0.99257 0.12431 0.0
H152 H 0.43845 0.01426 0.10824 0.0
H153 H 0.4915 0.06181 0.10761 0.0
H154 H 0.51571 0.08611 0.12334 0.0
H155 H 0.57426 0.04444 0.11084 0.0
H156 H 0.54993 0.02052 0.09487 0.0
H157 H 0.48413 0.01441 0.11016 0.0
H158 H 0.51274 0.06802 0.07442 0.0
H159 H 0.54382 0.08964 0.06276 0.0
H160 H 0.57216 0.02435 0.04674 0.0
H161 H 0.5411 0.00262 0.05872 0.0
C162 C 0.4596 0.97766 0.06694 0.0
C163 C 0.46846 0.95895 0.05865 0.0
C164 C 0.4538 0.94318 0.05159 0.0
C165 C 0.43002 0.94588 0.05269 0.0
C166 C 0.42124 0.96518 0.06052 0.0
C167 C 0.43589 0.98099 0.0675 0.0
C168 C 0.47503 0.9931 0.07553 0.0
C169 C 0.49277 0.00497 0.06827 0.0
C170 C 0.47194 0.99652 0.09082 0.0
C171 C 0.45485 0.98318 0.09946 0.0
C172 C 0.45525 0.95849 0.09969 0.0
C173 C 0.44047 0.94605 0.1089 0.0
C174 C 0.42515 0.9581 0.11812 0.0
C175 C 0.42434 0.9828 0.11751 0.0
C176 C 0.43909 0.99521 0.1083 0.0
C177 C 0.51893 0.03942 0.10007 0.0
C178 C 0.50958 0.05802 0.10821 0.0
C179 C 0.52343 0.07181 0.11724 0.0
C180 C 0.54691 0.06713 0.11844 0.0
C181 C 0.55631 0.04872 0.11004 0.0
C182 C 0.54243 0.03497 0.10095 0.0
C183 C 0.50384 0.02408 0.09116 0.0
C184 C 0.48624 0.01212 0.09838 0.0
C185 C 0.50713 0.02057 0.0759 0.0
C186 C 0.52487 0.03368 0.06769 0.0
C187 C 0.52568 0.05832 0.06846 0.0
C188 C 0.54344 0.07064 0.06181 0.0
C189 C 0.56055 0.0586 0.05404 0.0
C190 C 0.55918 0.03402 0.05268 0.0
C191 C 0.54147 0.02163 0.05949 0.0
H192 H 0.9922 0.55398 0.89854 0.0
H193 H 0.015 0.57944 0.88267 0.0
H194 H 0.07635 0.54494 0.89778 0.0
H195 H 0.0534 0.51977 0.91382 0.0
H196 H 0.99017 0.50589 0.89634 0.0
H197 H 0.01046 0.56345 0.93323 0.0
H198 H 0.03868 0.58767 0.94604 0.0
H199 H 0.07174 0.52476 0.96204 0.0
H200 H 0.04379 0.50064 0.9489 0.0
H201 H 0.99253 0.44931 0.94958 0.0
H202 H 0.96719 0.42111 0.9619 0.0
H203 H 0.90878 0.45634 0.9431 0.0
H204 H 0.93401 0.48432 0.93094 0.0
H205 H 0.99737 0.4969 0.95044 0.0
H206 H 0.97895 0.43931 0.9141 0.0
H207 H 0.95566 0.41372 0.8985 0.0
H208 H 0.9218 0.47478 0.88053 0.0
H209 H 0.94478 0.50023 0.8964 0.0
C210 C 0.02111 0.53504 0.90736 0.0
C211 C 0.01058 0.55208 0.89853 0.0
C212 C 0.02363 0.56654 0.88942 0.0
C213 C 0.04748 0.56408 0.88887 0.0
C214 C 0.05805 0.54746 0.89807 0.0
C215 C 0.04497 0.53302 0.90722 0.0
C216 C 0.00696 0.51835 0.91591 0.0
C217 C 0.99146 0.5042 0.9082 0.0
C218 C 0.00931 0.51556 0.93129 0.0
C219 C 0.02525 0.53026 0.93995 0.0
C220 C 0.02378 0.5549 0.93952 0.0
C221 C 0.03978 0.56871 0.94695 0.0
C222 C 0.0575 0.55811 0.95497 0.0
C223 C 0.05846 0.53342 0.95578 0.0
C224 C 0.04243 0.51963 0.94837 0.0
C225 C 0.96514 0.46862 0.93915 0.0
C226 C 0.97425 0.45101 0.94824 0.0
C227 C 0.95979 0.43496 0.95526 0.0
C228 C 0.93606 0.43633 0.95326 0.0
C229 C 0.92703 0.45451 0.94456 0.0
C230 C 0.94142 0.47054 0.93764 0.0
C231 C 0.98026 0.48473 0.93087 0.0
C232 C 0.99599 0.49868 0.9386 0.0
C233 C 0.9783 0.48724 0.91544 0.0
C234 C 0.9635 0.47166 0.90647 0.0
C235 C 0.96629 0.44715 0.90695 0.0
C236 C 0.9531 0.43257 0.89795 0.0
C237 C 0.93692 0.44224 0.88828 0.0
C238 C 0.93393 0.46678 0.88798 0.0
C239 C 0.94717 0.48135 0.89695 0.0
H240 H 0.49208 0.53401 0.20147 0.0
H241 H 0.46872 0.56174 0.21539 0.0
H242 H 0.40815 0.53415 0.19444 0.0
H243 H 0.43156 0.50581 0.18098 0.0
H244 H 0.49539 0.48791 0.19957 0.0
H245 H 0.47614 0.55043 0.16697 0.0
H246 H 0.45344 0.57795 0.15243 0.0
H247 H 0.4216 0.51944 0.12999 0.0
H248 H 0.44373 0.49204 0.14496 0.0
H249 H 0.49461 0.43977 0.1436 0.0
H250 H 0.51996 0.41766 0.12729 0.0
H251 H 0.57824 0.45227 0.1468 0.0
H252 H 0.55275 0.47475 0.16281 0.0
H253 H 0.48918 0.48755 0.14512 0.0
H254 H 0.51188 0.42536 0.17779 0.0
H255 H 0.54106 0.40051 0.18891 0.0
H256 H 0.57042 0.46152 0.21014 0.0
H257 H 0.54155 0.48645 0.19851 0.0
C258 C 0.4636 0.51808 0.19003 0.0
C259 C 0.47374 0.53368 0.20005 0.0
C260 C 0.46038 0.54965 0.2079 0.0
C261 C 0.43661 0.55033 0.20589 0.0
C262 C 0.42639 0.534 0.19631 0.0
C263 C 0.43977 0.51796 0.18849 0.0
C264 C 0.47808 0.50263 0.18079 0.0
C265 C 0.49409 0.48795 0.18766 0.0
C266 C 0.4763 0.50249 0.16525 0.0
C267 C 0.46147 0.51917 0.15715 0.0
C268 C 0.46393 0.54353 0.15913 0.0
C269 C 0.45111 0.55925 0.1507 0.0
C270 C 0.43574 0.5509 0.14002 0.0
C271 C 0.43303 0.52647 0.13826 0.0
C272 C 0.44581 0.51077 0.14672 0.0
C273 C 0.52181 0.45876 0.15447 0.0
C274 C 0.51286 0.44253 0.14437 0.0
C275 C 0.52737 0.42978 0.13515 0.0
C276 C 0.55111 0.43318 0.13579 0.0
C277 C 0.56003 0.44939 0.14597 0.0
C278 C 0.5455 0.46209 0.15521 0.0
C279 C 0.50631 0.4728 0.16389 0.0
C280 C 0.49017 0.48728 0.15704 0.0
C281 C 0.50823 0.47305 0.1794 0.0
C282 C 0.52473 0.45777 0.18718 0.0
C283 C 0.52459 0.43337 0.18485 0.0
C284 C 0.54117 0.41917 0.19133 0.0
C285 C 0.55811 0.42906 0.20039 0.0
C286 C 0.55779 0.45343 0.20307 0.0
C287 C 0.54119 0.46765 0.19654 0.0
H288 H 0.50181 0.94364 0.39854 0.0
H289 H 0.47781 0.91884 0.38295 0.0
H290 H 0.41775 0.95334 0.40013 0.0
H291 H 0.44189 0.97781 0.41587 0.0
H292 H 0.50475 0.99147 0.39743 0.0
H293 H 0.4868 0.93292 0.43385 0.0
H294 H 0.45949 0.90757 0.44659 0.0
H295 H 0.42485 0.96906 0.46338 0.0
H296 H 0.45206 0.99435 0.45041 0.0
H297 H 0.50302 0.04472 0.45219 0.0
H298 H 0.52763 0.07217 0.46567 0.0
H299 H 0.58677 0.042 0.44456 0.0
H300 H 0.56227 0.01433 0.43139 0.0
H301 H 0.49918 -0.00134 0.4517 0.0
H302 H 0.51891 0.05746 0.41583 0.0
H303 H 0.54174 0.08223 0.39945 0.0
H304 H 0.57225 0.02004 0.38049 0.0
H305 H 0.54952 0.9954 0.39691 0.0
C306 C 0.47363 0.96248 0.4084 0.0
C307 C 0.48345 0.9457 0.39902 0.0
C308 C 0.46972 0.93163 0.39007 0.0
C309 C 0.44586 0.93422 0.39021 0.0
C310 C 0.43603 0.95069 0.39988 0.0
C311 C 0.44981 0.96472 0.40887 0.0
C312 C 0.4884 0.97859 0.41699 0.0
C313 C 0.50386 0.9928 0.40933 0.0
C314 C 0.48668 0.98076 0.43243 0.0
C315 C 0.47126 0.96548 0.44107 0.0
C316 C 0.47337 0.94092 0.44033 0.0
C317 C 0.45789 0.92647 0.44771 0.0
C318 C 0.44 0.93636 0.45593 0.0
C319 C 0.43833 0.96098 0.45699 0.0
C320 C 0.45391 0.97542 0.44968 0.0
C321 C 0.53076 0.02774 0.44058 0.0
C322 C 0.5213 0.04392 0.45055 0.0
C323 C 0.53534 0.05957 0.45824 0.0
C324 C 0.55905 0.05935 0.45602 0.0
C325 C 0.5685 0.04284 0.44626 0.0
C326 C 0.55452 0.02706 0.43872 0.0
C327 C 0.51584 0.01153 0.43213 0.0
C328 C 0.50026 0.99733 0.43982 0.0
C329 C 0.51751 0.00934 0.41665 0.0
C330 C 0.53255 0.02457 0.40762 0.0
C331 C 0.53081 0.04919 0.40833 0.0
C332 C 0.54386 0.06332 0.39897 0.0
C333 C 0.55866 0.05305 0.38863 0.0
C334 C 0.56074 0.02843 0.3882 0.0
C335 C 0.54781 0.01435 0.39759 0.0
H336 H 0.99442 0.03869 0.69892 0.0
H337 H 0.97024 0.06629 0.71237 0.0
H338 H 0.91043 0.03504 0.69256 0.0
H339 H 0.9347 0.00691 0.67952 0.0
H340 H -0.00136 0.99229 0.6986 0.0
H341 H 0.9781 0.05176 0.66386 0.0
H342 H 0.9543 0.07724 0.6486 0.0
H343 H 0.92384 0.01591 0.62844 0.0
H344 H 0.94716 0.99055 0.64408 0.0
H345 H -0.00061 0.94045 0.64369 0.0
H346 H 0.02538 0.91819 0.6279 0.0
H347 H 0.08278 0.95415 0.64755 0.0
H348 H 0.05666 0.97678 0.66303 0.0
H349 H 0.99299 0.98757 0.64421 0.0
H350 H 0.01399 0.92835 0.67937 0.0
H351 H 0.04099 0.90362 0.6928 0.0
H352 H 0.07276 0.96575 0.71103 0.0
H353 H 0.04576 0.99048 0.69741 0.0
C354 C 0.96639 0.02097 0.68807 0.0
C355 C 0.97608 0.03759 0.69762 0.0
C356 C 0.96225 0.05346 0.70521 0.0
C357 C 0.93844 0.05299 0.70341 0.0
C358 C 0.9287 0.03576 0.69424 0.0
C359 C 0.94256 0.01985 0.68667 0.0
C360 C 0.98129 0.00523 0.67933 0.0
C361 C 0.99751 0.99143 0.6867 0.0
C362 C 0.9796 0.00377 0.66382 0.0
C363 C 0.96426 0.01925 0.6552 0.0
C364 C 0.96599 0.04381 0.65635 0.0
C365 C 0.95254 0.05835 0.64752 0.0
C366 C 0.93721 0.0486 0.63729 0.0
C367 C 0.93525 0.02399 0.63634 0.0
C368 C 0.94869 0.00946 0.64518 0.0
C369 C 0.02609 0.96015 0.6546 0.0
C370 C 0.01758 0.94344 0.64464 0.0
C371 C 0.03246 0.93061 0.63571 0.0
C372 C 0.05614 0.9344 0.63649 0.0
C373 C 0.06462 0.95097 0.64661 0.0
C374 C 0.04973 0.96375 0.65555 0.0
C375 C 0.0102 0.97463 0.66348 0.0
C376 C 0.99389 0.98827 0.65613 0.0
C377 C 0.01191 0.9761 0.67897 0.0
C378 C 0.028 0.96121 0.68734 0.0
C379 C 0.02679 0.93664 0.68624 0.0
C380 C 0.04211 0.92255 0.69399 0.0
C381 C 0.05893 0.93279 0.70297 0.0
C382 C 0.06007 0.95742 0.7041 0.0
C383 C 0.0446 0.97152 0.69642 0.0
C384 C 0.25671 0.67128 0.00709 0.0
O385 O 0.27116 0.65607 0.01268 0.0
O386 O 0.31151 0.68107 0.02102 0.0
Zn387 Zn 0.29804 0.69638 0.00302 0.0
O388 O 0.31171 0.68151 0.98498 0.0
C389 C 0.3 0.74364 0.01416 0.0
O390 O 0.28808 0.73438 0.02494 0.0
O391 O 0.2642 0.69087 0.00241 0.0
C392 C 0.33061 0.68841 0.97968 0.0
O393 O 0.34157 0.70573 0.98614 0.0
C394 C 0.33064 0.68757 0.0262 0.0
O395 O 0.34174 0.70477 0.01973 0.0
O396 O 0.3055 0.73082 0.00328 0.0
C397 C 0.2531 0.82163 0.25085 0.0
O398 O 0.26676 0.83833 0.24618 0.0
O399 O 0.30764 0.81647 0.23602 0.0
Zn400 Zn 0.29581 0.79879 0.25376 0.0
O401 O 0.30895 0.81295 0.27239 0.0
C402 C 0.32444 0.76077 0.24593 0.0
O403 O 0.33704 0.77866 0.24173 0.0
O404 O 0.26161 0.80201 0.25468 0.0
C405 C 0.32607 0.80468 0.27923 0.0
O406 O 0.33593 0.78548 0.27435 0.0
C407 C 0.31788 0.83611 0.23712 0.0
O408 O 0.32068 0.84559 0.25018 0.0
O409 O 0.30509 0.76477 0.25173 0.0
C410 C 0.24722 0.7972 0.49021 0.0
O411 O 0.23634 0.79011 0.47836 0.0
O412 O 0.18843 0.80357 0.5205 0.0
Zn413 Zn 0.20326 0.78989 0.50249 0.0
O414 O 0.18872 0.8042 0.48458 0.0
C415 C 0.20203 0.7435 0.51412 0.0
O416 O 0.21034 0.75462 0.52561 0.0
O417 O 0.2366 0.79786 0.50238 0.0
C418 C 0.16744 0.80834 0.48412 0.0
O419 O 0.1547 0.80275 0.49547 0.0
C420 C 0.19058 0.82524 0.52363 0.0
O421 O 0.20311 0.83867 0.51508 0.0
O422 O 0.19818 0.75502 0.50241 0.0
C423 C 0.25102 0.68651 0.74446 0.0
O424 O 0.24266 0.68766 0.73107 0.0
O425 O 0.19183 0.68182 0.73525 0.0
Zn426 Zn 0.20441 0.69652 0.75372 0.0
O427 O 0.18909 0.68203 0.77147 0.0
C428 C 0.17877 0.73879 0.75743 0.0
O429 O 0.16417 0.7237 0.76296 0.0
O430 O 0.23801 0.69029 0.75539 0.0
C431 C 0.16984 0.67182 0.77056 0.0
O432 O 0.15947 0.67078 0.75776 0.0
C433 C 0.19449 0.66017 0.73221 0.0
O434 O 0.20635 0.64687 0.74121 0.0
O435 O 0.19799 0.73137 0.75293 0.0
C436 C 0.74768 0.18525 0.51034 0.0
O437 O 0.75557 0.18588 0.52387 0.0
O438 O 0.80709 0.17791 0.51939 0.0
Zn439 Zn 0.79464 0.19539 0.50185 0.0
O440 O 0.81009 0.18281 0.48372 0.0
C441 C 0.7996 0.23978 0.51654 0.0
O442 O 0.79212 0.22747 0.52777 0.0
O443 O 0.76111 0.18935 0.49968 0.0
C444 C 0.82792 0.19192 0.47819 0.0
O445 O 0.83684 0.21071 0.48435 0.0
C446 C 0.82728 0.18232 0.52369 0.0
O447 O 0.83928 0.19825 0.51665 0.0
O448 O 0.80128 0.22992 0.50404 0.0
C449 C 0.74588 0.30851 0.74432 0.0
O450 O 0.7546 0.31413 0.73149 0.0
O451 O 0.80338 0.31608 0.73426 0.0
Zn452 Zn 0.79291 0.29808 0.7521 0.0
O453 O 0.80703 0.31282 0.77014 0.0
C454 C 0.82094 0.26011 0.74278 0.0
O455 O 0.83157 0.27771 0.73642 0.0
O456 O 0.75888 0.3005 0.75433 0.0
C457 C 0.82831 0.31203 0.77275 0.0
O458 O 0.84177 0.30091 0.76353 0.0
C459 C 0.80553 0.33831 0.73424 0.0
O460 O 0.8 0.35027 0.74609 0.0
O461 O 0.80306 0.26425 0.75026 0.0
C462 C 0.73567 0.31956 0.99207 0.0
O463 O 0.71949 0.33142 0.98538 0.0
O464 O 0.68212 0.305 0.01778 0.0
Zn465 Zn 0.69728 0.29151 0.99971 0.0
O466 O 0.68129 0.30379 0.98168 0.0
C467 C 0.69814 0.24568 0.01229 0.0
O468 O 0.70552 0.25776 0.02367 0.0
O469 O 0.73042 0.30106 0.99914 0.0
C470 C 0.65998 0.30778 0.98156 0.0
O471 O 0.64787 0.30301 0.99335 0.0
C472 C 0.68371 0.32662 0.02118 0.0
O473 O 0.69586 0.34069 0.01284 0.0
O474 O 0.69406 0.25642 0.00033 0.0
C475 C 0.74314 0.17189 0.25003 0.0
O476 O 0.72794 0.15698 0.24493 0.0
O477 O 0.68894 0.18391 0.23583 0.0
Zn478 Zn 0.70304 0.19904 0.2538 0.0
O479 O 0.68871 0.18527 0.27197 0.0
C480 C 0.70628 0.2465 0.24335 0.0
O481 O 0.72064 0.23687 0.23403 0.0
O482 O 0.73657 0.19203 0.25437 0.0
C483 C 0.66718 0.18428 0.27342 0.0
O484 O 0.65414 0.19272 0.26293 0.0
C485 C 0.67244 0.19326 0.2289 0.0
O486 O 0.66431 0.21355 0.23342 0.0
O487 O 0.69728 0.23376 0.25324 0.0
H488 H 0.05597 0.886 0.30232 0.0
H489 H 0.08246 0.85827 0.29059 0.0
H490 H 0.12166 0.91645 0.27366 0.0
H491 H 0.09522 0.94416 0.28514 0.0
H492 H 0.11303 0.87653 0.25312 0.0
H493 H 0.14887 0.85101 0.30769 0.0
H494 H 0.11848 0.84939 0.30504 0.0
H495 H 0.13233 0.87751 0.30534 0.0
C496 C 0.07003 0.89282 0.29589 0.0
C497 C 0.07371 0.91721 0.29475 0.0
C498 C 0.08516 0.877 0.28927 0.0
C499 C 0.10405 0.88539 0.2814 0.0
C500 C 0.10717 0.90968 0.27973 0.0
H501 H 0.23034 0.8616 0.24345 0.0
H502 H 0.19108 0.87182 0.24918 0.0
C503 C 0.09218 0.92546 0.28638 0.0
C504 C 0.12164 0.86921 0.27568 0.0
H505 H 0.16839 0.83829 0.28672 0.0
C506 C 0.12491 0.86775 0.26043 0.0
C507 C 0.13694 0.85766 0.28527 0.0
C508 C 0.13419 0.85892 0.30176 0.0
C509 C 0.14381 0.85595 0.25451 0.0
C510 C 0.16007 0.84592 0.26415 0.0
C511 C 0.15594 0.84604 0.27936 0.0
C512 C 0.1828 0.83817 0.25897 0.0
C513 C 0.14649 0.8549 0.23802 0.0
C514 C 0.19134 0.81588 0.26268 0.0
C515 C 0.21401 0.81004 0.25955 0.0
C516 C 0.22852 0.82651 0.25278 0.0
C517 C 0.21965 0.8485 0.24866 0.0
C518 C 0.19708 0.8543 0.25179 0.0
H519 H 0.12961 0.85499 0.23247 0.0
H520 H 0.15599 0.87067 0.23424 0.0
H521 H 0.15601 0.83896 0.23454 0.0
H522 H 0.18066 0.80327 0.26836 0.0
H523 H 0.22035 0.79295 0.26287 0.0
H524 H 0.09136 0.58616 0.56848 0.0
H525 H 0.12015 0.61179 0.55746 0.0
H526 H 0.10819 0.57984 0.51511 0.0
H527 H 0.0791 0.55411 0.52609 0.0
H528 H 0.1614 0.59934 0.53877 0.0
H529 H 0.09424 0.6531 0.51125 0.0
H530 H 0.08773 0.63426 0.52667 0.0
H531 H 0.09372 0.62162 0.50901 0.0
C532 C 0.09492 0.58453 0.55683 0.0
C533 C 0.08284 0.56838 0.54809 0.0
C534 C 0.11147 0.59902 0.55059 0.0
C535 C 0.11613 0.59773 0.53549 0.0
C536 C 0.10471 0.58108 0.52679 0.0
H537 H 0.18572 0.71483 0.4923 0.0
H538 H 0.16865 0.67582 0.49515 0.0
C539 C 0.08821 0.5664 0.53306 0.0
C540 C 0.13177 0.61513 0.5289 0.0
H541 H 0.13154 0.66761 0.51082 0.0
C542 C 0.15503 0.61409 0.53242 0.0
C543 C 0.12333 0.63418 0.52056 0.0
C544 C 0.09839 0.6361 0.51663 0.0
C545 C 0.16999 0.63219 0.52828 0.0
C546 C 0.16126 0.65206 0.5208 0.0
C547 C 0.13822 0.6524 0.51658 0.0
C548 C 0.17489 0.67375 0.51858 0.0
C549 C 0.1949 0.62997 0.53217 0.0
C550 C 0.18439 0.68539 0.53076 0.0
C551 C 0.19427 0.70758 0.52915 0.0
C552 C 0.1945 0.71876 0.51537 0.0
C553 C 0.18574 0.70672 0.50308 0.0
C554 C 0.176 0.68442 0.50468 0.0
H555 H 0.20019 0.61122 0.53258 0.0
H556 H 0.20589 0.63937 0.52415 0.0
H557 H 0.19782 0.63762 0.54325 0.0
H558 H 0.18318 0.67785 0.54167 0.0
H559 H 0.20077 0.7164 0.53886 0.0
H560 H 0.43149 0.56153 0.76761 0.0
H561 H 0.4033 0.58604 0.75493 0.0
H562 H 0.39242 0.6255 0.79488 0.0
H563 H 0.42063 0.6013 0.80753 0.0
H564 H 0.35886 0.58957 0.76162 0.0
H565 H 0.39791 0.67789 0.76526 0.0
H566 H 0.41385 0.6513 0.76876 0.0
H567 H 0.39632 0.66406 0.78295 0.0
C568 C 0.4232 0.57558 0.77363 0.0
C569 C 0.4283 0.57956 0.78855 0.0
C570 C 0.40721 0.58962 0.76637 0.0
C571 C 0.39608 0.60789 0.77388 0.0
C572 C 0.4013 0.612 0.78873 0.0
H573 H 0.2745 0.68636 0.77037 0.0
H574 H 0.31171 0.66871 0.77522 0.0
C575 C 0.41737 0.59809 0.79597 0.0
C576 C 0.37747 0.62124 0.76668 0.0
H577 H 0.35718 0.67683 0.76116 0.0
C578 C 0.35869 0.60864 0.76123 0.0
C579 C 0.37731 0.64612 0.76615 0.0
C580 C 0.39756 0.66061 0.77096 0.0
C581 C 0.33921 0.62027 0.75604 0.0
C582 C 0.33862 0.64512 0.75622 0.0
C583 C 0.35772 0.65776 0.7611 0.0
C584 C 0.31751 0.65808 0.75268 0.0
C585 C 0.31891 0.60593 0.75111 0.0
C586 C 0.30882 0.65846 0.73831 0.0
C587 C 0.28754 0.6686 0.73547 0.0
C588 C 0.27464 0.67838 0.747 0.0
C589 C 0.28393 0.67883 0.76126 0.0
C590 C 0.30521 0.66884 0.76406 0.0
H591 H 0.32109 0.58688 0.75344 0.0
H592 H 0.30317 0.61219 0.75666 0.0
H593 H 0.31649 0.60815 0.73908 0.0
H594 H 0.31822 0.65037 0.72938 0.0
H595 H 0.28088 0.66802 0.72436 0.0
H596 H 0.39254 0.92644 0.06562 0.0
H597 H 0.36835 0.8949 0.05608 0.0
H598 H 0.40806 0.89306 0.01616 0.0
H599 H 0.43246 0.92462 0.02567 0.0
H600 H 0.34169 0.89104 0.03064 0.0
H601 H 0.41205 0.82548 0.03125 0.0
H602 H 0.4143 0.85366 0.04028 0.0
H603 H 0.41765 0.85151 0.02068 0.0
C604 C 0.39594 0.91955 0.05472 0.0
C605 C 0.41447 0.92791 0.04641 0.0
C606 C 0.38214 0.90149 0.04931 0.0
C607 C 0.38663 0.89143 0.03552 0.0
C608 C 0.40461 0.90028 0.02696 0.0
H609 H 0.32816 0.7664 0.99489 0.0
H610 H 0.34734 0.80414 0.99852 0.0
C611 C 0.41851 0.91828 0.0324 0.0
C612 C 0.37293 0.87113 0.03042 0.0
H613 H 0.37649 0.81264 0.02228 0.0
C614 C 0.34928 0.87391 0.02874 0.0
C615 C 0.38292 0.84881 0.02799 0.0
C616 C 0.40808 0.84452 0.03025 0.0
C617 C 0.33531 0.85489 0.02473 0.0
C618 C 0.34527 0.83253 0.02253 0.0
C619 C 0.36896 0.82987 0.02392 0.0
C620 C 0.33146 0.81128 0.01952 0.0
C621 C 0.31005 0.85887 0.02284 0.0
C622 C 0.31598 0.80295 0.03008 0.0
C623 C 0.305 0.78137 0.02806 0.0
C624 C 0.30942 0.76769 0.01549 0.0
C625 C 0.32436 0.77649 0.0047 0.0
C626 C 0.33535 0.79805 0.00674 0.0
H627 H 0.30609 0.87772 0.02091 0.0
H628 H 0.30324 0.84835 0.01352 0.0
H629 H 0.30108 0.8533 0.03301 0.0
H630 H 0.31308 0.8127 0.04015 0.0
H631 H 0.29364 0.77506 0.03659 0.0
H632 H 0.0524 0.59878 0.9709 0.0
H633 H 0.08269 0.62356 0.98132 0.0
H634 H 0.13333 0.57497 0.96522 0.0
H635 H 0.10336 0.55044 0.95456 0.0
H636 H 0.11809 0.61076 0.00221 0.0
H637 H 0.15248 0.64007 0.94844 0.0
H638 H 0.12442 0.62735 0.95042 0.0
H639 H 0.14919 0.60874 0.94988 0.0
C640 C 0.07001 0.59347 0.96953 0.0
C641 C 0.07553 0.5727 0.96189 0.0
C642 C 0.08723 0.60755 0.97554 0.0
C643 C 0.11018 0.6012 0.97385 0.0
C644 C 0.1157 0.5803 0.96646 0.0
H645 H 0.23594 0.63033 0.01515 0.0
H646 H 0.19775 0.61703 0.00857 0.0
C647 C 0.09855 0.5662 0.96051 0.0
C648 C 0.12858 0.61624 0.97977 0.0
H649 H 0.17653 0.64576 0.96938 0.0
C650 C 0.13072 0.61873 0.99506 0.0
C651 C 0.14474 0.62694 0.97039 0.0
C652 C 0.14253 0.62588 0.95386 0.0
C653 C 0.14942 0.63059 0.00125 0.0
C654 C 0.16643 0.63986 0.99187 0.0
C655 C 0.16356 0.63849 0.97657 0.0
C656 C 0.18825 0.64932 0.99756 0.0
C657 C 0.15095 0.63278 0.01776 0.0
C658 C 0.19564 0.6719 0.99353 0.0
C659 C 0.2176 0.67951 0.99718 0.0
C660 C 0.2326 0.66455 0.0048 0.0
C661 C 0.22482 0.64229 0.00928 0.0
C662 C 0.2029 0.63472 0.00564 0.0
H663 H 0.13379 0.63201 0.02292 0.0
H664 H 0.16113 0.61792 0.02216 0.0
H665 H 0.15937 0.64948 0.02105 0.0
H666 H 0.18463 0.68337 0.9872 0.0
H667 H 0.22306 0.69677 0.99357 0.0
H668 H 0.3944 0.54617 0.21876 0.0
H669 H 0.371 0.57776 0.22929 0.0
H670 H 0.4241 0.62791 0.21959 0.0
H671 H 0.44739 0.5967 0.20899 0.0
H672 H 0.40499 0.63195 0.24839 0.0
H673 H 0.33893 0.62889 0.2043 0.0
H674 H 0.34512 0.6019 0.21381 0.0
H675 H 0.3664 0.61496 0.20222 0.0
C676 C 0.40103 0.56395 0.21886 0.0
C677 C 0.42275 0.56894 0.21304 0.0
C678 C 0.38767 0.58193 0.22488 0.0
C679 C 0.39579 0.60515 0.22509 0.0
C680 C 0.41759 0.61006 0.21957 0.0
H681 H 0.36688 0.74753 0.23719 0.0
H682 H 0.38172 0.70775 0.23443 0.0
C683 C 0.43092 0.59217 0.21358 0.0
C684 C 0.38162 0.62471 0.23067 0.0
H685 H 0.33614 0.6593 0.22168 0.0
C686 C 0.38973 0.63774 0.2427 0.0
C687 C 0.36165 0.63209 0.22327 0.0
C688 C 0.35247 0.61889 0.21012 0.0
C689 C 0.37896 0.65858 0.24712 0.0
C690 C 0.35982 0.6667 0.23917 0.0
C691 C 0.35087 0.65297 0.22771 0.0
C692 C 0.35061 0.69061 0.24143 0.0
C693 C 0.38853 0.67212 0.26001 0.0
C694 C 0.32802 0.6941 0.246 0.0
C695 C 0.31941 0.71693 0.24759 0.0
C696 C 0.33324 0.73653 0.24443 0.0
C697 C 0.35579 0.73285 0.23974 0.0
C698 C 0.36437 0.71012 0.23826 0.0
H699 H 0.39843 0.66051 0.26748 0.0
H700 H 0.40021 0.68598 0.25587 0.0
H701 H 0.37474 0.68076 0.2664 0.0
H702 H 0.3171 0.67919 0.24835 0.0
H703 H 0.30194 0.71922 0.25118 0.0
H704 H 0.39391 0.94191 0.45511 0.0
H705 H 0.36481 0.91549 0.46485 0.0
H706 H 0.41724 0.86956 0.48166 0.0
H707 H 0.44655 0.89591 0.47173 0.0
H708 H 0.38536 0.84539 0.46693 0.0
H709 H 0.34272 0.90502 0.50622 0.0
H710 H 0.34422 0.918 0.48829 0.0
H711 H 0.37012 0.91174 0.49821 0.0
C712 C 0.39925 0.92643 0.46113 0.0
C713 C 0.4225 0.92104 0.46274 0.0
C714 C 0.3826 0.91136 0.46673 0.0
C715 C 0.38885 0.89079 0.47425 0.0
C716 C 0.41206 0.88544 0.47598 0.0
H717 H 0.27538 0.81132 0.51258 0.0
H718 H 0.3125 0.8307 0.51036 0.0
C719 C 0.42875 0.90044 0.47028 0.0
C720 C 0.37103 0.87417 0.47932 0.0
H721 H 0.32047 0.87185 0.49778 0.0
C722 C 0.37136 0.85104 0.47389 0.0
C723 C 0.35304 0.88135 0.48865 0.0
C724 C 0.35262 0.90531 0.49581 0.0
C725 C 0.35346 0.83535 0.47683 0.0
C726 C 0.33449 0.84323 0.48509 0.0
C727 C 0.33485 0.86589 0.49126 0.0
C728 C 0.3134 0.82905 0.48658 0.0
C729 C 0.35498 0.8106 0.47091 0.0
C730 C 0.30166 0.82152 0.47396 0.0
C731 C 0.28058 0.81029 0.4752 0.0
C732 C 0.27062 0.80672 0.48907 0.0
C733 C 0.2826 0.81382 0.50173 0.0
C734 C 0.3038 0.8249 0.50049 0.0
H735 H 0.37302 0.80494 0.46975 0.0
H736 H 0.34597 0.7979 0.47815 0.0
H737 H 0.34708 0.80995 0.45982 0.0
H738 H 0.30839 0.8251 0.4631 0.0
H739 H 0.27174 0.8052 0.46522 0.0
H740 H 0.10522 0.93793 0.70504 0.0
H741 H 0.13234 0.91114 0.71699 0.0
H742 H 0.07661 0.86686 0.73079 0.0
H743 H 0.04946 0.89355 0.71902 0.0
H744 H 0.11407 0.87832 0.7531 0.0
H745 H 0.14316 0.84258 0.69908 0.0
H746 H 0.1422 0.87398 0.70167 0.0
H747 H 0.11615 0.85751 0.70099 0.0
C748 C 0.09877 0.92266 0.71081 0.0
C749 C 0.07527 0.91768 0.71102 0.0
C750 C 0.11425 0.90737 0.71756 0.0
C751 C 0.1064 0.88704 0.72466 0.0
C752 C 0.08293 0.88249 0.72533 0.0
H753 H 0.13813 0.75894 0.76455 0.0
H754 H 0.12478 0.79811 0.75817 0.0
C755 C 0.06749 0.89763 0.71853 0.0
C756 C 0.12248 0.86959 0.7307 0.0
H757 H 0.15576 0.82333 0.72033 0.0
C758 C 0.12353 0.8665 0.74598 0.0
C759 C 0.1349 0.85443 0.72135 0.0
C760 C 0.13413 0.85708 0.70484 0.0
C761 C 0.13603 0.84794 0.75217 0.0
C762 C 0.14718 0.83177 0.74277 0.0
C763 C 0.14717 0.83571 0.72752 0.0
C764 C 0.15657 0.80922 0.74824 0.0
C765 C 0.1368 0.84562 0.76869 0.0
C766 C 0.17886 0.80226 0.74465 0.0
C767 C 0.18649 0.77962 0.74811 0.0
C768 C 0.17188 0.76354 0.75515 0.0
C769 C 0.14986 0.77087 0.75916 0.0
C770 C 0.14225 0.79341 0.75565 0.0
H771 H 0.13529 0.86309 0.7741 0.0
H772 H 0.12217 0.83475 0.7724 0.0
H773 H 0.15283 0.83712 0.77242 0.0
H774 H 0.19012 0.81413 0.73881 0.0
H775 H 0.20356 0.7745 0.74488 0.0
H776 H 0.55523 0.39189 0.79588 0.0
H777 H 0.58295 0.36453 0.78512 0.0
H778 H 0.62731 0.4227 0.77475 0.0
H779 H 0.59972 0.45013 0.78534 0.0
H780 H 0.60516 0.36295 0.75597 0.0
H781 H 0.66477 0.37856 0.80243 0.0
H782 H 0.63499 0.38652 0.80321 0.0
H783 H 0.65493 0.40488 0.79354 0.0
C784 C 0.57072 0.39887 0.79108 0.0
C785 C 0.57546 0.42312 0.79161 0.0
C786 C 0.58652 0.38322 0.78498 0.0
C787 C 0.60725 0.39163 0.77937 0.0
C788 C 0.61153 0.41589 0.77926 0.0
H789 H 0.71656 0.33565 0.72826 0.0
H790 H 0.68015 0.35188 0.73641 0.0
C791 C 0.59581 0.4315 0.78535 0.0
C792 C 0.62508 0.37512 0.77437 0.0
H793 H 0.67959 0.35813 0.78175 0.0
C794 C 0.62138 0.36165 0.76165 0.0
C795 C 0.64601 0.37321 0.78198 0.0
C796 C 0.65042 0.38638 0.79613 0.0
C797 C 0.63855 0.34697 0.75598 0.0
C798 C 0.65994 0.34607 0.76317 0.0
C799 C 0.66322 0.35888 0.77621 0.0
C800 C 0.67972 0.33307 0.75711 0.0
C801 C 0.63366 0.33263 0.74237 0.0
C802 C 0.69152 0.31695 0.76597 0.0
C803 C 0.71251 0.30792 0.76144 0.0
C804 C 0.72209 0.31486 0.74795 0.0
C805 C 0.70961 0.3299 0.7387 0.0
C806 C 0.68868 0.33908 0.74329 0.0
H807 H 0.61508 0.32935 0.74107 0.0
H808 H 0.63957 0.34248 0.73255 0.0
H809 H 0.64268 0.31547 0.74267 0.0
H810 H 0.68493 0.31213 0.77669 0.0
H811 H 0.72163 0.29624 0.76879 0.0
H812 H 0.58625 0.09209 0.06749 0.0
H813 H 0.616 0.1166 0.05653 0.0
H814 H 0.60848 0.07961 0.01537 0.0
H815 H 0.57846 0.05496 0.02629 0.0
H816 H 0.65923 0.10244 0.0399 0.0
H817 H 0.59394 0.15222 0.0079 0.0
H818 H 0.5863 0.13513 0.02389 0.0
H819 H 0.59391 0.12055 0.0071 0.0
C820 C 0.59101 0.0891 0.05613 0.0
C821 C 0.57989 0.07186 0.04767 0.0
C822 C 0.60811 0.10295 0.04993 0.0
C823 C 0.61428 0.09992 0.03516 0.0
C824 C 0.60385 0.08216 0.0268 0.0
H825 H 0.68486 0.21494 0.99073 0.0
H826 H 0.66892 0.17553 0.99406 0.0
C827 C 0.5868 0.06812 0.03304 0.0
C828 C 0.6303 0.11677 0.02841 0.0
H829 H 0.63093 0.16748 0.00849 0.0
C830 C 0.65323 0.11645 0.03279 0.0
C831 C 0.62236 0.13485 0.01908 0.0
C832 C 0.59779 0.13595 0.01419 0.0
C833 C 0.66829 0.1344 0.02855 0.0
C834 C 0.65995 0.15342 0.02007 0.0
C835 C 0.63732 0.15293 0.015 0.0
C836 C 0.67333 0.17522 0.0177 0.0
C837 C 0.69285 0.13298 0.03339 0.0
C838 C 0.68152 0.18798 0.02985 0.0
C839 C 0.69078 0.21039 0.02797 0.0
C840 C 0.69165 0.22069 0.01394 0.0
C841 C 0.68433 0.20753 0.0017 0.0
C842 C 0.67525 0.18499 0.00358 0.0
H843 H 0.69839 0.11438 0.03451 0.0
H844 H 0.70438 0.14203 0.02554 0.0
H845 H 0.69463 0.14141 0.04435 0.0
H846 H 0.67965 0.18115 0.0409 0.0
H847 H 0.69617 0.22009 0.03763 0.0
H848 H 0.94667 0.0956 0.28462 0.0
H849 H 0.91674 0.12042 0.27387 0.0
H850 H 0.86533 0.07468 0.29208 0.0
H851 H 0.89497 0.0501 0.30303 0.0
H852 H 0.87971 0.10664 0.2539 0.0
H853 H 0.84941 0.14205 0.30733 0.0
H854 H 0.87703 0.12843 0.30511 0.0
H855 H 0.85188 0.11056 0.30687 0.0
C856 C 0.92897 0.09092 0.28636 0.0
C857 C 0.92314 0.07095 0.29468 0.0
C858 C 0.91196 0.10501 0.28017 0.0
C859 C 0.88891 0.09947 0.28236 0.0
C860 C 0.88306 0.07935 0.29043 0.0
H861 H 0.76192 0.12944 0.24304 0.0
H862 H 0.79998 0.11531 0.24919 0.0
C863 C 0.9 0.06522 0.29655 0.0
C864 C 0.87074 0.11463 0.27633 0.0
H865 H 0.8245 0.14685 0.28676 0.0
C866 C 0.86779 0.11575 0.26104 0.0
C867 C 0.85554 0.12679 0.28569 0.0
C868 C 0.85868 0.12714 0.30216 0.0
C869 C 0.84915 0.12769 0.25487 0.0
C870 C 0.83304 0.13847 0.2643 0.0
C871 C 0.83678 0.13844 0.27955 0.0
C872 C 0.81125 0.14819 0.2588 0.0
C873 C 0.8467 0.12838 0.23836 0.0
C874 C 0.80489 0.17136 0.2622 0.0
C875 C 0.78301 0.17945 0.25881 0.0
C876 C 0.76707 0.1644 0.25208 0.0
C877 C 0.77378 0.14148 0.24821 0.0
C878 C 0.79563 0.13343 0.25161 0.0
H879 H 0.8635 0.12648 0.23283 0.0
H880 H 0.83577 0.11351 0.23476 0.0
H881 H 0.83866 0.14504 0.23467 0.0
H882 H 0.81666 0.18297 0.26784 0.0
H883 H 0.77838 0.19722 0.26191 0.0
H884 H 0.89631 0.44497 0.53745 0.0
H885 H 0.87031 0.41414 0.52872 0.0
H886 H 0.91334 0.36131 0.54843 0.0
H887 H 0.93942 0.39188 0.55698 0.0
H888 H 0.90009 0.34931 0.52079 0.0
H889 H 0.8254 0.37768 0.55399 0.0
H890 H 0.83681 0.39975 0.54193 0.0
H891 H 0.8537 0.38916 0.55704 0.0
C892 C 0.90016 0.42676 0.53992 0.0
C893 C 0.9199 0.42081 0.54787 0.0
C894 C 0.88527 0.4092 0.53498 0.0
C895 C 0.88973 0.38547 0.53812 0.0
C896 C 0.90958 0.37952 0.54588 0.0
H897 H 0.80728 0.26224 0.54264 0.0
H898 H 0.8274 0.29936 0.54647 0.0
C899 C 0.92452 0.39699 0.5507 0.0
C900 C 0.87391 0.3666 0.53337 0.0
H901 H 0.82011 0.345 0.53833 0.0
C902 C 0.88255 0.34843 0.52453 0.0
C903 C 0.8511 0.36543 0.5384 0.0
C904 C 0.84118 0.38391 0.54847 0.0
C905 C 0.86921 0.3288 0.52086 0.0
C906 C 0.84637 0.32765 0.52584 0.0
C907 C 0.83755 0.34607 0.53442 0.0
C908 C 0.83203 0.30657 0.52328 0.0
C909 C 0.88007 0.30902 0.51226 0.0
C910 C 0.82727 0.29872 0.50896 0.0
C911 C 0.81598 0.27735 0.50673 0.0
C912 C 0.80895 0.26367 0.5188 0.0
C913 C 0.81253 0.27231 0.53311 0.0
C914 C 0.82401 0.29354 0.53532 0.0
H915 H 0.89899 0.31019 0.51234 0.0
H916 H 0.87502 0.29164 0.51679 0.0
H917 H 0.87432 0.30989 0.50065 0.0
H918 H 0.83281 0.3088 0.49952 0.0
H919 H 0.81325 0.27129 0.49557 0.0
H920 H 0.55895 0.07094 0.48526 0.0
H921 H 0.58538 0.09754 0.49809 0.0
H922 H 0.6193 0.11223 0.45702 0.0
H923 H 0.59299 0.08591 0.44417 0.0
H924 H 0.63428 0.09157 0.49795 0.0
H925 H 0.60828 0.17811 0.47557 0.0
H926 H 0.58979 0.15265 0.4753 0.0
H927 H 0.61191 0.15581 0.46175 0.0
C928 C 0.57184 0.08016 0.47897 0.0
C929 C 0.57401 0.07635 0.46374 0.0
C930 C 0.5869 0.09526 0.48629 0.0
C931 C 0.60404 0.10704 0.47845 0.0
C932 C 0.60593 0.10359 0.46322 0.0
H933 H 0.72735 0.17997 0.48356 0.0
H934 H 0.69005 0.1631 0.47829 0.0
C935 C 0.59106 0.08838 0.45592 0.0
C936 C 0.62126 0.12148 0.48617 0.0
H937 H 0.64591 0.17583 0.48592 0.0
C938 C 0.63661 0.11013 0.49562 0.0
C939 C 0.62413 0.14564 0.48306 0.0
C940 C 0.60753 0.15886 0.47347 0.0
C941 C 0.65577 0.12192 0.50123 0.0
C942 C 0.65929 0.14582 0.49751 0.0
C943 C 0.64319 0.1575 0.48873 0.0
C944 C 0.68084 0.15813 0.50113 0.0
C945 C 0.67283 0.10826 0.51026 0.0
C946 C 0.6878 0.16152 0.51576 0.0
C947 C 0.70929 0.17105 0.51884 0.0
C948 C 0.72405 0.17748 0.50732 0.0
C949 C 0.7165 0.17509 0.49271 0.0
C950 C 0.69513 0.1655 0.48966 0.0
H951 H 0.66966 0.089 0.50982 0.0
H952 H 0.69047 0.1117 0.50637 0.0
H953 H 0.6717 0.11393 0.52192 0.0
H954 H 0.67681 0.15637 0.52477 0.0
H955 H 0.71453 0.17285 0.53021 0.0
H956 H 0.89705 0.04726 0.71711 0.0
H957 H 0.8728 0.07802 0.72781 0.0
H958 H 0.92291 0.13037 0.7162 0.0
H959 H 0.94706 0.09995 0.70548 0.0
H960 H 0.90576 0.13459 0.74524 0.0
H961 H 0.83651 0.12656 0.70348 0.0
H962 H 0.84455 0.10031 0.71321 0.0
H963 H 0.86435 0.11375 0.70073 0.0
C964 C 0.90283 0.06535 0.71681 0.0
C965 C 0.92397 0.07119 0.71046 0.0
C966 C 0.88898 0.08286 0.72292 0.0
C967 C 0.89601 0.10644 0.72267 0.0
C968 C 0.91723 0.11223 0.71655 0.0
H969 H 0.86216 0.24741 0.73169 0.0
H970 H 0.87792 0.20794 0.72937 0.0
C971 C 0.93105 0.09481 0.71048 0.0
C972 C 0.88136 0.12548 0.72846 0.0
H973 H 0.83376 0.15757 0.72045 0.0
C974 C 0.88981 0.1394 0.73999 0.0
C975 C 0.8605 0.13159 0.72163 0.0
C976 C 0.85089 0.11742 0.70901 0.0
C977 C 0.87854 0.15995 0.7444 0.0
C978 C 0.85846 0.16681 0.73697 0.0
C979 C 0.84919 0.15216 0.72608 0.0
C980 C 0.84869 0.19053 0.73896 0.0
C981 C 0.8886 0.17467 0.7566 0.0
C982 C 0.82685 0.19369 0.74492 0.0
C983 C 0.81774 0.21636 0.74632 0.0
C984 C 0.83026 0.23605 0.74154 0.0
C985 C 0.85205 0.23265 0.73547 0.0
C986 C 0.86117 0.21012 0.73421 0.0
H987 H 0.9 0.1641 0.76378 0.0
H988 H 0.89886 0.18911 0.75172 0.0
H989 H 0.87498 0.18267 0.76345 0.0
H990 H 0.81694 0.17868 0.74852 0.0
H991 H 0.80088 0.21843 0.75099 0.0
H992 H 0.90056 0.41394 0.94008 0.0
H993 H 0.87238 0.3882 0.95148 0.0
H994 H 0.90845 0.39255 0.99276 0.0
H995 H 0.93659 0.41898 0.98143 0.0
H996 H 0.87608 0.34463 0.9667 0.0
H997 H 0.84379 0.41756 0.00211 0.0
H998 H 0.86254 0.4229 0.98673 0.0
H999 H 0.87356 0.41023 0.00335 0.0
C1000 C 0.90252 0.40942 0.95158 0.0
C1001 C 0.92052 0.41878 0.95994 0.0
C1002 C 0.88654 0.39454 0.95804 0.0
C1003 C 0.88821 0.38872 0.97299 0.0
C1004 C 0.90676 0.39709 0.98124 0.0
H1005 H 0.77401 0.29877 0.00363 0.0
H1006 H 0.81348 0.31301 0.00189 0.0
C1007 C 0.92285 0.41203 0.97475 0.0
C1008 C 0.86942 0.37534 0.97987 0.0
H1009 H 0.82189 0.38322 0.00095 0.0
C1010 C 0.86447 0.35276 0.97447 0.0
C1011 C 0.85432 0.38616 0.98995 0.0
C1012 C 0.85861 0.41059 0.99587 0.0
C1013 C 0.84406 0.3413 0.97817 0.0
C1014 C 0.82841 0.3527 0.9876 0.0
C1015 C 0.83404 0.37459 0.99375 0.0
C1016 C 0.8048 0.34407 0.98935 0.0
C1017 C 0.83861 0.31789 0.97117 0.0
C1018 C 0.78697 0.35702 0.98307 0.0
C1019 C 0.76457 0.34902 0.98403 0.0
C1020 C 0.75951 0.3279 0.99135 0.0
C1021 C 0.77739 0.31506 0.99785 0.0
C1022 C 0.79991 0.32311 0.99686 0.0
H1023 H 0.85166 0.31252 0.96296 0.0
H1024 H 0.83771 0.30415 0.97981 0.0
H1025 H 0.82173 0.31862 0.96565 0.0
H1026 H 0.79044 0.37323 0.97721 0.0
H1027 H 0.75124 0.35939 0.97894 0.0
H1028 H 0.60374 0.43894 0.2025 0.0
H1029 H 0.6342 0.41267 0.21089 0.0
H1030 H 0.58449 0.35886 0.22026 0.0
H1031 H 0.5539 0.38508 0.21223 0.0
H1032 H 0.63886 0.38573 0.23957 0.0
H1033 H 0.63134 0.33093 0.18914 0.0
H1034 H 0.62065 0.36068 0.19018 0.0
H1035 H 0.60491 0.33701 0.19842 0.0
C1036 C 0.59924 0.42168 0.20661 0.0
C1037 C 0.57641 0.41401 0.20658 0.0
C1038 C 0.61667 0.4067 0.21133 0.0
C1039 C 0.61152 0.38383 0.216 0.0
C1040 C 0.58874 0.3764 0.2165 0.0
H1041 H 0.67516 0.2706 0.25986 0.0
H1042 H 0.6563 0.30742 0.25352 0.0
C1043 C 0.57133 0.39135 0.21185 0.0
C1044 C 0.62991 0.36717 0.21974 0.0
H1045 H 0.65331 0.31521 0.20874 0.0
C1046 C 0.64229 0.37043 0.23278 0.0
C1047 C 0.63452 0.34752 0.21069 0.0
C1048 C 0.62233 0.34383 0.19625 0.0
C1049 C 0.65848 0.35379 0.2374 0.0
C1050 C 0.6621 0.33341 0.22877 0.0
C1051 C 0.65048 0.33082 0.21537 0.0
C1052 C 0.67629 0.31352 0.23388 0.0
C1053 C 0.67135 0.35804 0.25152 0.0
C1054 C 0.69395 0.30479 0.225 0.0
C1055 C 0.70468 0.28358 0.22853 0.0
C1056 C 0.69776 0.27067 0.24093 0.0
C1057 C 0.68089 0.2801 0.25022 0.0
C1058 C 0.6702 0.30128 0.24668 0.0
H1059 H 0.67225 0.3771 0.25418 0.0
H1060 H 0.66234 0.34911 0.26068 0.0
H1061 H 0.68895 0.35091 0.25088 0.0
H1062 H 0.69879 0.31392 0.21502 0.0
H1063 H 0.71764 0.27683 0.22116 0.0
H1064 H 0.07104 0.95333 0.39865 0.0
H1065 H 0.09113 0.92879 0.41645 0.0
H1066 H 0.10244 0.87622 0.383 0.0
H1067 H 0.08232 0.90076 0.36504 0.0
H1068 H 0.08588 0.85768 0.40901 0.0
H1069 H 0.1594 0.91645 0.41987 0.0
H1070 H 0.13242 0.93087 0.42216 0.0
H1071 H 0.1407 0.92032 0.40427 0.0
C1072 C 0.07814 0.93673 0.395 0.0
C1073 C 0.07524 0.92906 0.38041 0.0
C1074 C 0.08962 0.92273 0.40519 0.0
C1075 C 0.0986 0.90088 0.40098 0.0
C1076 C 0.09572 0.8931 0.38644 0.0
H1077 H 0.18881 0.82082 0.45854 0.0
H1078 H 0.17236 0.84144 0.43747 0.0
C1079 C 0.08417 0.90709 0.37622 0.0
C1080 C 0.11012 0.88578 0.41197 0.0
H1081 H 0.15336 0.88529 0.43709 0.0
C1082 C 0.10077 0.86359 0.41506 0.0
C1083 C 0.12972 0.89341 0.41969 0.0
C1084 C 0.1413 0.91646 0.41624 0.0
C1085 C 0.11005 0.84915 0.42605 0.0
C1086 C 0.12891 0.85734 0.43431 0.0
C1087 C 0.13873 0.87917 0.43085 0.0
C1088 C 0.13848 0.84379 0.44677 0.0
C1089 C 0.09963 0.82525 0.42867 0.0
C1090 C 0.1249 0.83838 0.45902 0.0
C1091 C 0.13421 0.82652 0.47107 0.0
C1092 C 0.15735 0.82008 0.47114 0.0
C1093 C 0.17091 0.82551 0.45883 0.0
C1094 C 0.16156 0.83729 0.44678 0.0
H1095 H 0.09013 0.81891 0.41885 0.0
H1096 H 0.11288 0.81207 0.43154 0.0
H1097 H 0.0874 0.82642 0.43796 0.0
H1098 H 0.10718 0.84371 0.45939 0.0
H1099 H 0.12334 0.82275 0.4804 0.0
H1100 H 0.0922 0.53339 0.63563 0.0
H1101 H 0.1172 0.55258 0.65356 0.0
H1102 H 0.08558 0.61936 0.64412 0.0
H1103 H 0.06047 0.60029 0.62618 0.0
H1104 H 0.14846 0.58959 0.65085 0.0
H1105 H 0.07748 0.61284 0.6886 0.0
H1106 H 0.07407 0.59232 0.6736 0.0
H1107 H 0.07395 0.62346 0.67015 0.0
C1108 C 0.09076 0.55221 0.63725 0.0
C1109 C 0.07425 0.56531 0.62959 0.0
C1110 C 0.10499 0.56312 0.64753 0.0
C1111 C 0.10295 0.58729 0.65034 0.0
C1112 C 0.08706 0.60058 0.64234 0.0
H1113 H 0.16671 0.6824 0.71251 0.0
H1114 H 0.14596 0.6649 0.69191 0.0
C1115 C 0.07275 0.58967 0.63211 0.0
C1116 C 0.11713 0.59848 0.66188 0.0
H1117 H 0.11396 0.62792 0.69456 0.0
C1118 C 0.14096 0.59794 0.66043 0.0
C1119 C 0.10725 0.60927 0.67438 0.0
C1120 C 0.0818 0.60937 0.6769 0.0
C1121 C 0.15519 0.60826 0.67106 0.0
C1122 C 0.14528 0.61911 0.68352 0.0
C1123 C 0.12147 0.61967 0.68495 0.0
C1124 C 0.15922 0.62983 0.69533 0.0
C1125 C 0.18067 0.60783 0.66879 0.0
C1126 C 0.17357 0.61588 0.70406 0.0
C1127 C 0.18544 0.62581 0.71588 0.0
C1128 C 0.18308 0.64985 0.71919 0.0
C1129 C 0.16894 0.66383 0.71026 0.0
C1130 C 0.15706 0.65387 0.69848 0.0
H1131 H 0.18522 0.60397 0.65717 0.0
H1132 H 0.18844 0.6249 0.67199 0.0
H1133 H 0.18822 0.59391 0.67581 0.0
H1134 H 0.17514 0.59719 0.70196 0.0
H1135 H 0.19613 0.61455 0.72256 0.0
H1136 H 0.4562 0.57248 0.8936 0.0
H1137 H 0.4333 0.59387 0.91156 0.0
H1138 H 0.38333 0.60925 0.87812 0.0
H1139 H 0.4066 0.5884 0.85985 0.0
H1140 H 0.39478 0.64819 0.8958 0.0
H1141 H 0.37363 0.57025 0.92973 0.0
H1142 H 0.4037 0.57361 0.92666 0.0
H1143 H 0.38506 0.56786 0.91134 0.0
C1144 C 0.44047 0.58062 0.88999 0.0
C1145 C 0.43324 0.57877 0.87527 0.0
C1146 C 0.42727 0.59258 0.90032 0.0
C1147 C 0.40645 0.60276 0.89622 0.0
C1148 C 0.39927 0.60131 0.88151 0.0
H1149 H 0.31147 0.65343 0.96307 0.0
H1150 H 0.32795 0.63362 0.94168 0.0
C1151 C 0.41251 0.5893 0.87113 0.0
C1152 C 0.39249 0.6152 0.90733 0.0
H1153 H 0.36697 0.60784 0.94074 0.0
C1154 C 0.38847 0.63936 0.90556 0.0
C1155 C 0.38398 0.60354 0.91992 0.0
C1156 C 0.38659 0.57734 0.92199 0.0
C1157 C 0.37694 0.65239 0.91638 0.0
C1158 C 0.36962 0.64097 0.92937 0.0
C1159 C 0.37284 0.61662 0.93084 0.0
C1160 C 0.35915 0.65396 0.94179 0.0
C1161 C 0.37271 0.67822 0.91378 0.0
C1162 C 0.37129 0.67188 0.94898 0.0
C1163 C 0.3619 0.68328 0.96119 0.0
C1164 C 0.34029 0.6768 0.96651 0.0
C1165 C 0.32816 0.65886 0.95925 0.0
C1166 C 0.33753 0.64752 0.94703 0.0
H1167 H 0.37301 0.68255 0.90186 0.0
H1168 H 0.35603 0.68376 0.91842 0.0
H1169 H 0.38634 0.6886 0.91924 0.0
H1170 H 0.38823 0.67674 0.94535 0.0
H1171 H 0.37175 0.69693 0.96657 0.0
H1172 H 0.41729 0.96986 0.14677 0.0
H1173 H 0.39584 0.94773 0.16513 0.0
H1174 H 0.38014 0.89467 0.13272 0.0
H1175 H 0.40159 0.91683 0.11418 0.0
H1176 H 0.34998 0.93337 0.16527 0.0
H1177 H 0.40944 0.85712 0.1664 0.0
H1178 H 0.41685 0.88478 0.15793 0.0
H1179 H 0.3981 0.86465 0.14865 0.0
C1180 C 0.40903 0.95364 0.14347 0.0
C1181 C 0.41115 0.94509 0.12901 0.0
C1182 C 0.39688 0.94097 0.154 0.0
C1183 C 0.38667 0.91944 0.15033 0.0
C1184 C 0.38828 0.91104 0.13584 0.0
H1185 H 0.31708 0.82028 0.20866 0.0
H1186 H 0.33187 0.84024 0.18679 0.0
C1187 C 0.4005 0.92371 0.12527 0.0
C1188 C 0.37462 0.90585 0.16182 0.0
H1189 H 0.37733 0.85524 0.18194 0.0
C1190 C 0.35586 0.91623 0.16887 0.0
C1191 C 0.38235 0.88347 0.16645 0.0
C1192 C 0.40289 0.87185 0.15958 0.0
C1193 C 0.34476 0.90494 0.18056 0.0
C1194 C 0.35287 0.88288 0.18545 0.0
C1195 C 0.37121 0.87218 0.17814 0.0
C1196 C 0.34329 0.87114 0.19858 0.0
C1197 C 0.32445 0.91673 0.18761 0.0
C1198 C 0.34506 0.88184 0.21245 0.0
C1199 C 0.33671 0.8705 0.22496 0.0
C1200 C 0.32649 0.8482 0.22383 0.0
C1201 C 0.32478 0.83749 0.2099 0.0
C1202 C 0.33322 0.84884 0.1974 0.0
H1203 H 0.31663 0.92997 0.18017 0.0
H1204 H 0.31126 0.90361 0.1907 0.0
H1205 H 0.33005 0.92594 0.19775 0.0
H1206 H 0.3532 0.89885 0.21363 0.0
H1207 H 0.33837 0.87919 0.23552 0.0
H1208 H 0.08928 0.58504 0.89286 0.0
H1209 H 0.11194 0.60638 0.87452 0.0
H1210 H 0.05915 0.59511 0.84224 0.0
H1211 H 0.03661 0.57367 0.86032 0.0
H1212 H 0.12786 0.58932 0.84731 0.0
H1213 H 0.07088 0.66601 0.83956 0.0
H1214 H 0.06859 0.64653 0.85518 0.0
H1215 H 0.05636 0.63836 0.83775 0.0
C1216 C 0.08251 0.58715 0.88185 0.0
C1217 C 0.06104 0.57784 0.87809 0.0
C1218 C 0.09542 0.59941 0.87143 0.0
C1219 C 0.08701 0.60268 0.85712 0.0
C1220 C 0.06568 0.59333 0.85333 0.0
H1221 H 0.12821 0.65055 0.77241 0.0
H1222 H 0.10975 0.6346 0.79433 0.0
C1223 C 0.0528 0.58109 0.8637 0.0
C1224 C 0.10085 0.61484 0.84584 0.0
H1225 H 0.09898 0.65958 0.82087 0.0
C1226 C 0.12177 0.60489 0.84166 0.0
C1227 C 0.09281 0.63516 0.83853 0.0
C1228 C 0.07103 0.6473 0.84307 0.0
C1229 C 0.13435 0.61409 0.82985 0.0
C1230 C 0.12587 0.6339 0.82221 0.0
C1231 C 0.10534 0.64429 0.82671 0.0
C1232 C 0.13745 0.64344 0.80905 0.0
C1233 C 0.1561 0.60199 0.82523 0.0
C1234 C 0.1591 0.6538 0.81012 0.0
C1235 C 0.16973 0.66295 0.7976 0.0
C1236 C 0.15883 0.66193 0.78382 0.0
C1237 C 0.13711 0.65158 0.78284 0.0
C1238 C 0.1265 0.64249 0.79535 0.0
H1239 H 0.158 0.58443 0.83045 0.0
H1240 H 0.15666 0.5998 0.81309 0.0
H1241 H 0.1709 0.61297 0.82852 0.0
H1242 H 0.16767 0.655 0.82066 0.0
H1243 H 0.18644 0.6709 0.79874 0.0
H1244 H 0.45268 0.59052 0.12696 0.0
H1245 H 0.43356 0.6163 0.10937 0.0
H1246 H 0.37268 0.57401 0.11248 0.0
H1247 H 0.39141 0.54857 0.13049 0.0
H1248 H 0.41691 0.60203 0.08239 0.0
H1249 H 0.34768 0.6408 0.11622 0.0
H1250 H 0.37203 0.62617 0.12423 0.0
H1251 H 0.34882 0.60925 0.11677 0.0
C1252 C 0.43504 0.58701 0.12419 0.0
C1253 C 0.42355 0.56751 0.13017 0.0
C1254 C 0.4242 0.60168 0.11406 0.0
C1255 C 0.40164 0.59722 0.10975 0.0
C1256 C 0.38996 0.57802 0.11586 0.0
H1257 H 0.31245 0.65101 0.04186 0.0
H1258 H 0.32984 0.62984 0.06243 0.0
C1259 C 0.40078 0.56334 0.12602 0.0
C1260 C 0.39097 0.6116 0.09805 0.0
H1261 H 0.34538 0.64686 0.09033 0.0
C1262 C 0.40137 0.612 0.08415 0.0
C1263 C 0.37064 0.62446 0.10038 0.0
C1264 C 0.35921 0.62538 0.11524 0.0
C1265 C 0.39177 0.62455 0.07241 0.0
C1266 C 0.37141 0.63735 0.07472 0.0
C1267 C 0.36101 0.63702 0.08863 0.0
C1268 C 0.36056 0.65092 0.06274 0.0
C1269 C 0.40318 0.62353 0.05754 0.0
C1270 C 0.37192 0.67004 0.05631 0.0
C1271 C 0.36208 0.68214 0.04455 0.0
C1272 C 0.34063 0.67539 0.03905 0.0
C1273 C 0.32903 0.65659 0.04578 0.0
C1274 C 0.33891 0.64451 0.05755 0.0
H1275 H 0.41542 0.60867 0.05675 0.0
H1276 H 0.39035 0.6217 0.04863 0.0
H1277 H 0.41275 0.6401 0.05568 0.0
H1278 H 0.38849 0.6755 0.06034 0.0
H1279 H 0.37139 0.69665 0.03968 0.0
H1280 H 0.45471 0.92407 0.36138 0.0
H1281 H 0.43098 0.90208 0.34415 0.0
H1282 H 0.38018 0.89225 0.37789 0.0
H1283 H 0.4043 0.91354 0.39546 0.0
H1284 H 0.38899 0.85162 0.36223 0.0
H1285 H 0.37333 0.92602 0.32431 0.0
H1286 H 0.40314 0.92114 0.32754 0.0
H1287 H 0.38501 0.93005 0.34252 0.0
C1288 C 0.43861 0.91703 0.36522 0.0
C1289 C 0.43141 0.92057 0.37982 0.0
C1290 C 0.42492 0.90474 0.35528 0.0
C1291 C 0.40363 0.89595 0.35966 0.0
C1292 C 0.39648 0.89911 0.37426 0.0
H1293 H 0.30841 0.84317 0.29332 0.0
H1294 H 0.32491 0.86466 0.31409 0.0
C1295 C 0.41021 0.91138 0.38425 0.0
C1296 C 0.38917 0.88303 0.349 0.0
H1297 H 0.36497 0.88756 0.31499 0.0
C1298 C 0.3835 0.85952 0.35196 0.0
C1299 C 0.38167 0.89351 0.33575 0.0
C1300 C 0.38589 0.91914 0.33239 0.0
C1301 C 0.37135 0.8459 0.34172 0.0
C1302 C 0.36514 0.85596 0.32806 0.0
C1303 C 0.36997 0.87976 0.32539 0.0
C1304 C 0.35438 0.84199 0.31615 0.0
C1305 C 0.36528 0.82089 0.34566 0.0
C1306 C 0.3655 0.82216 0.31039 0.0
C1307 C 0.35605 0.80977 0.29859 0.0
C1308 C 0.33545 0.81716 0.29218 0.0
C1309 C 0.32429 0.837 0.298 0.0
C1310 C 0.3337 0.8493 0.30987 0.0
H1311 H 0.36454 0.81842 0.35778 0.0
H1312 H 0.3486 0.81571 0.34086 0.0
H1313 H 0.37857 0.80889 0.34128 0.0
H1314 H 0.38177 0.81656 0.31479 0.0
H1315 H 0.36518 0.79468 0.2943 0.0
H1316 H 0.05526 0.88786 0.62869 0.0
H1317 H 0.07989 0.86777 0.61092 0.0
H1318 H 0.11663 0.93242 0.60347 0.0
H1319 H 0.09214 0.95258 0.62119 0.0
H1320 H 0.08465 0.87844 0.58158 0.0
H1321 H 0.16813 0.88565 0.6099 0.0
H1322 H 0.14139 0.89082 0.61919 0.0
H1323 H 0.1538 0.91333 0.60784 0.0
C1324 C 0.06865 0.89776 0.6233 0.0
C1325 C 0.07181 0.92179 0.62638 0.0
C1326 C 0.08275 0.88624 0.61321 0.0
C1327 C 0.1003 0.89851 0.60605 0.0
C1328 C 0.10358 0.92246 0.60915 0.0
H1329 H 0.19175 0.87067 0.53359 0.0
H1330 H 0.16998 0.88766 0.55397 0.0
C1331 C 0.08955 0.93397 0.61927 0.0
C1332 C 0.11424 0.88667 0.59465 0.0
H1333 H 0.16902 0.8739 0.58468 0.0
C1334 C 0.10308 0.87724 0.58232 0.0
C1335 C 0.13828 0.88522 0.59563 0.0
C1336 C 0.15112 0.89409 0.60891 0.0
C1337 C 0.11535 0.86688 0.57076 0.0
C1338 C 0.13939 0.86567 0.57167 0.0
C1339 C 0.15057 0.87493 0.58403 0.0
C1340 C 0.1532 0.85507 0.55977 0.0
C1341 C 0.10256 0.85786 0.55749 0.0
C1342 C 0.15124 0.83105 0.55649 0.0
C1343 C 0.16364 0.82128 0.54488 0.0
C1344 C 0.17827 0.83538 0.53635 0.0
C1345 C 0.18057 0.85935 0.5399 0.0
C1346 C 0.16819 0.86908 0.55155 0.0
H1347 H 0.08483 0.86471 0.55707 0.0
H1348 H 0.11147 0.86285 0.54717 0.0
H1349 H 0.10172 0.83838 0.55796 0.0
H1350 H 0.14 0.81989 0.56287 0.0
H1351 H 0.16155 0.80273 0.54249 0.0
H1352 H 0.57607 0.40063 0.86221 0.0
H1353 H 0.59448 0.37547 0.88061 0.0
H1354 H 0.57859 0.42614 0.91443 0.0
H1355 H 0.56015 0.45126 0.8962 0.0
H1356 H 0.62346 0.41059 0.91531 0.0
H1357 H 0.5626 0.33574 0.91225 0.0
H1358 H 0.57498 0.34438 0.895 0.0
H1359 H 0.55635 0.36428 0.90455 0.0
C1360 C 0.57636 0.4063 0.87359 0.0
C1361 C 0.56669 0.42795 0.87775 0.0
C1362 C 0.58684 0.39191 0.88408 0.0
C1363 C 0.58765 0.39884 0.8989 0.0
C1364 C 0.57815 0.42048 0.90304 0.0
H1365 H 0.61554 0.32144 0.97834 0.0
H1366 H 0.59863 0.34263 0.95762 0.0
C1367 C 0.56774 0.43487 0.89259 0.0
C1368 C 0.5987 0.38387 0.91015 0.0
H1369 H 0.59482 0.33087 0.92763 0.0
C1370 C 0.61727 0.39312 0.91798 0.0
C1371 C 0.59038 0.36121 0.91369 0.0
C1372 C 0.56986 0.35081 0.90605 0.0
C1373 C 0.62775 0.38037 0.92932 0.0
C1374 C 0.61965 0.35757 0.93272 0.0
C1375 C 0.60109 0.34828 0.92488 0.0
C1376 C 0.62969 0.34352 0.9448 0.0
C1377 C 0.64695 0.39169 0.93783 0.0
C1378 C 0.65262 0.33658 0.94429 0.0
C1379 C 0.66237 0.32456 0.95612 0.0
C1380 C 0.64929 0.31912 0.96864 0.0
C1381 C 0.6261 0.32542 0.96889 0.0
C1382 C 0.6164 0.33749 0.95706 0.0
H1383 H 0.64747 0.41104 0.93619 0.0
H1384 H 0.64531 0.38804 0.94978 0.0
H1385 H 0.66344 0.38431 0.93402 0.0
H1386 H 0.66305 0.34068 0.9348 0.0
H1387 H 0.68023 0.31981 0.95552 0.0
H1388 H 0.53573 0.08169 0.14616 0.0
H1389 H 0.55917 0.10385 0.16347 0.0
H1390 H 0.61449 0.10444 0.13222 0.0
H1391 H 0.59075 0.08307 0.11451 0.0
H1392 H 0.59976 0.0908 0.17575 0.0
H1393 H 0.60973 0.17355 0.14393 0.0
H1394 H 0.5889 0.15141 0.13921 0.0
H1395 H 0.61834 0.14739 0.13433 0.0
C1396 C 0.55272 0.0869 0.14282 0.0
C1397 C 0.56128 0.08078 0.12888 0.0
C1398 C 0.56617 0.09939 0.1528 0.0
C1399 C 0.58846 0.10604 0.14907 0.0
C1400 C 0.59718 0.09985 0.13522 0.0
H1401 H 0.6863 0.15232 0.21579 0.0
H1402 H 0.6675 0.13108 0.19575 0.0
C1403 C 0.58368 0.0874 0.12518 0.0
C1404 C 0.60263 0.11883 0.15995 0.0
H1405 H 0.6305 0.17064 0.16619 0.0
C1406 C 0.60655 0.10823 0.17366 0.0
C1407 C 0.61125 0.14165 0.15722 0.0
C1408 C 0.60672 0.15432 0.14293 0.0
C1409 C 0.6187 0.1199 0.18477 0.0
C1410 C 0.62761 0.14259 0.18198 0.0
C1411 C 0.62382 0.15315 0.16824 0.0
C1412 C 0.63992 0.15609 0.19344 0.0
C1413 C 0.62123 0.10812 0.19957 0.0
C1414 C 0.6311 0.17761 0.19842 0.0
C1415 C 0.6419 0.1899 0.20976 0.0
C1416 C 0.66175 0.18088 0.21635 0.0
C1417 C 0.67092 0.15963 0.21105 0.0
C1418 C 0.66015 0.14741 0.19965 0.0
H1419 H 0.60879 0.09356 0.20102 0.0
H1420 H 0.63863 0.10061 0.2005 0.0
H1421 H 0.61887 0.12097 0.20865 0.0
H1422 H 0.61555 0.18465 0.19373 0.0
H1423 H 0.63444 0.20625 0.21354 0.0
H1424 H 0.9632 0.07837 0.39559 0.0
H1425 H 0.94051 0.10128 0.41295 0.0
H1426 H 0.88793 0.10973 0.38021 0.0
H1427 H 0.91092 0.0874 0.36253 0.0
H1428 H 0.89806 0.15135 0.39607 0.0
H1429 H 0.88308 0.0755 0.43317 0.0
H1430 H 0.91267 0.08075 0.4293 0.0
H1431 H 0.89378 0.07209 0.41467 0.0
C1432 C 0.94697 0.08538 0.39198 0.0
C1433 C 0.93885 0.081 0.37767 0.0
C1434 C 0.93391 0.09824 0.40198 0.0
C1435 C 0.9124 0.10682 0.39793 0.0
C1436 C 0.90444 0.10307 0.38357 0.0
H1437 H 0.81263 0.15446 0.4621 0.0
H1438 H 0.83175 0.13497 0.44156 0.0
C1439 C 0.91752 0.0902 0.37352 0.0
C1440 C 0.89817 0.11945 0.40881 0.0
H1441 H 0.87301 0.11325 0.44242 0.0
C1442 C 0.89243 0.14303 0.40617 0.0
C1443 C 0.89057 0.10839 0.42185 0.0
C1444 C 0.89513 0.08272 0.42489 0.0
C1445 C 0.87981 0.15608 0.41646 0.0
C1446 C 0.87313 0.14531 0.42981 0.0
C1447 C 0.87834 0.12154 0.43224 0.0
C1448 C 0.8609 0.15832 0.44153 0.0
C1449 C 0.87361 0.18119 0.4129 0.0
C1450 C 0.87096 0.17793 0.44833 0.0
C1451 C 0.86004 0.18918 0.46006 0.0
C1452 C 0.83897 0.18084 0.46529 0.0
C1453 C 0.82886 0.16132 0.45836 0.0
C1454 C 0.83974 0.15016 0.44661 0.0
H1455 H 0.87415 0.18455 0.40086 0.0
H1456 H 0.85631 0.18558 0.41704 0.0
H1457 H 0.88603 0.19319 0.41825 0.0
H1458 H 0.88752 0.1842 0.4448 0.0
H1459 H 0.86834 0.20409 0.4652 0.0
H1460 H 0.94029 0.41222 0.63424 0.0
H1461 H 0.91676 0.39229 0.65256 0.0
H1462 H 0.86192 0.44098 0.64419 0.0
H1463 H 0.88507 0.46058 0.62545 0.0
H1464 H 0.89969 0.41305 0.67778 0.0
H1465 H 0.82965 0.37703 0.64334 0.0
H1466 H 0.85629 0.38716 0.63565 0.0
H1467 H 0.83474 0.40796 0.64097 0.0
C1468 C 0.92303 0.41837 0.63603 0.0
C1469 C 0.91453 0.43796 0.62835 0.0
C1470 C 0.90967 0.40706 0.64659 0.0
C1471 C 0.88754 0.41503 0.64963 0.0
C1472 C 0.87882 0.43432 0.64183 0.0
H1473 H 0.81364 0.3854 0.73067 0.0
H1474 H 0.83242 0.40467 0.70987 0.0
C1475 C 0.89217 0.44564 0.63125 0.0
C1476 C 0.87423 0.40407 0.66165 0.0
H1477 H 0.82484 0.37466 0.66926 0.0
C1478 C 0.88333 0.40462 0.67592 0.0
C1479 C 0.85299 0.39296 0.65915 0.0
C1480 C 0.84288 0.391 0.64393 0.0
C1481 C 0.87173 0.39445 0.68781 0.0
C1482 C 0.85025 0.38382 0.68538 0.0
C1483 C 0.8412 0.38308 0.67109 0.0
C1484 C 0.8374 0.37255 0.69749 0.0
C1485 C 0.8828 0.39473 0.7028 0.0
C1486 C 0.83332 0.34825 0.69716 0.0
C1487 C 0.82251 0.33721 0.70897 0.0
C1488 C 0.81551 0.3503 0.72132 0.0
C1489 C 0.81896 0.37478 0.72138 0.0
C1490 C 0.82976 0.38581 0.70954 0.0
H1491 H 0.90135 0.39857 0.70213 0.0
H1492 H 0.87474 0.4086 0.70964 0.0
H1493 H 0.88044 0.3776 0.70847 0.0
H1494 H 0.83902 0.33774 0.68792 0.0
H1495 H 0.82004 0.31834 0.70854 0.0
H1496 H 0.58193 0.09419 0.39355 0.0
H1497 H 0.60198 0.11844 0.37536 0.0
H1498 H 0.583 0.06955 0.34115 0.0
H1499 H 0.56318 0.04524 0.35921 0.0
H1500 H 0.62793 0.08196 0.33974 0.0
H1501 H 0.57312 0.16129 0.34467 0.0
H1502 H 0.5857 0.15157 0.36163 0.0
H1503 H 0.5652 0.13323 0.35241 0.0
C1504 C 0.58195 0.08873 0.38213 0.0
C1505 C 0.57103 0.06781 0.3778 0.0
C1506 C 0.59334 0.10261 0.37176 0.0
C1507 C 0.59372 0.09594 0.35688 0.0
C1508 C 0.58293 0.07501 0.35257 0.0
H1509 H 0.62217 0.17465 0.27833 0.0
H1510 H 0.60551 0.15397 0.29929 0.0
C1511 C 0.57169 0.06109 0.36291 0.0
C1512 C 0.60556 0.11044 0.3457 0.0
H1513 H 0.60507 0.16414 0.32891 0.0
C1514 C 0.62301 0.09997 0.3374 0.0
C1515 C 0.59891 0.13383 0.34258 0.0
C1516 C 0.57958 0.14564 0.35068 0.0
C1517 C 0.63384 0.11214 0.32595 0.0
C1518 C 0.62739 0.13563 0.32295 0.0
C1519 C 0.61009 0.1462 0.33133 0.0
C1520 C 0.6376 0.14911 0.31065 0.0
C1521 C 0.65151 0.09944 0.31685 0.0
C1522 C 0.66111 0.15362 0.31022 0.0
C1523 C 0.67073 0.16528 0.29819 0.0
C1524 C 0.65694 0.17287 0.28646 0.0
C1525 C 0.63328 0.16898 0.28716 0.0
C1526 C 0.62372 0.1572 0.29914 0.0
H1527 H 0.65035 0.08005 0.31819 0.0
H1528 H 0.64962 0.10371 0.30499 0.0
H1529 H 0.66877 0.10503 0.32042 0.0
H1530 H 0.67206 0.14799 0.31915 0.0
H1531 H 0.68898 0.16821 0.29806 0.0
H1532 H 0.95261 0.08736 0.62258 0.0
H1533 H 0.93205 0.11122 0.60459 0.0
H1534 H 0.87234 0.06786 0.61028 0.0
H1535 H 0.89259 0.04427 0.62863 0.0
H1536 H 0.91357 0.09378 0.57825 0.0
H1537 H 0.84688 0.1352 0.61312 0.0
H1538 H 0.87222 0.12187 0.62074 0.0
H1539 H 0.84896 0.10375 0.61463 0.0
C1540 C 0.93494 0.0832 0.62026 0.0
C1541 C 0.9242 0.06395 0.62707 0.0
C1542 C 0.92328 0.09676 0.6099 0.0
C1543 C 0.90063 0.09144 0.60622 0.0
C1544 C 0.88971 0.07249 0.61315 0.0
H1545 H 0.8079 0.14712 0.54006 0.0
H1546 H 0.82545 0.12493 0.56018 0.0
C1547 C 0.90137 0.05888 0.62351 0.0
C1548 C 0.88901 0.10483 0.59444 0.0
H1549 H 0.84368 0.14075 0.58734 0.0
C1550 C 0.89834 0.10413 0.58024 0.0
C1551 C 0.86906 0.11814 0.59708 0.0
C1552 C 0.85874 0.12002 0.61223 0.0
C1553 C 0.88816 0.11627 0.56853 0.0
C1554 C 0.86836 0.12982 0.57119 0.0
C1555 C 0.85888 0.13036 0.58537 0.0
C1556 C 0.85748 0.14379 0.55938 0.0
C1557 C 0.89846 0.11414 0.55338 0.0
C1558 C 0.86954 0.16202 0.55249 0.0
C1559 C 0.85962 0.17466 0.54099 0.0
C1560 C 0.83738 0.16941 0.53622 0.0
C1561 C 0.8251 0.15153 0.54341 0.0
C1562 C 0.83507 0.13886 0.55493 0.0
H1563 H 0.90965 0.09844 0.55244 0.0
H1564 H 0.88499 0.113 0.54482 0.0
H1565 H 0.909 0.12994 0.5511 0.0
H1566 H 0.88669 0.16641 0.55598 0.0
H1567 H 0.86948 0.18845 0.53578 0.0
H1568 H 0.89152 0.4446 0.88136 0.0
H1569 H 0.87073 0.42069 0.86336 0.0
H1570 H 0.93222 0.38193 0.85388 0.0
H1571 H 0.95303 0.40562 0.87185 0.0
H1572 H 0.87935 0.41741 0.8339 0.0
H1573 H 0.88635 0.32934 0.85955 0.0
H1574 H 0.89243 0.35614 0.86949 0.0
H1575 H 0.91345 0.34359 0.85738 0.0
C1576 C 0.90056 0.43088 0.87549 0.0
C1577 C 0.92389 0.42692 0.87806 0.0
C1578 C 0.88865 0.4172 0.86526 0.0
C1579 C 0.89984 0.39929 0.85745 0.0
C1580 C 0.92309 0.39522 0.86006 0.0
H1581 H 0.87249 0.31168 0.78232 0.0
H1582 H 0.88857 0.3328 0.80337 0.0
C1583 C 0.93498 0.40881 0.87032 0.0
C1584 C 0.88763 0.38588 0.84589 0.0
H1585 H 0.87485 0.33025 0.83429 0.0
C1586 C 0.87811 0.39837 0.83407 0.0
C1587 C 0.88608 0.36104 0.84613 0.0
C1588 C 0.89492 0.34675 0.85889 0.0
C1589 C 0.86772 0.38664 0.82225 0.0
C1590 C 0.86664 0.3618 0.82235 0.0
C1591 C 0.87581 0.34931 0.83426 0.0
C1592 C 0.85657 0.34848 0.80997 0.0
C1593 C 0.85861 0.40083 0.80952 0.0
C1594 C 0.83319 0.35008 0.80688 0.0
C1595 C 0.82392 0.33801 0.79488 0.0
C1596 C 0.83791 0.32414 0.78577 0.0
C1597 C 0.86127 0.32229 0.78908 0.0
C1598 C 0.87049 0.33429 0.80111 0.0
H1599 H 0.86469 0.41934 0.80981 0.0
H1600 H 0.86375 0.39281 0.79888 0.0
H1601 H 0.8397 0.40099 0.80997 0.0
H1602 H 0.82214 0.36073 0.81373 0.0
H1603 H 0.80585 0.33975 0.79267 0.0
H1604 H 0.54936 0.38678 0.12774 0.0
H1605 H 0.57349 0.36647 0.10978 0.0
H1606 H 0.61113 0.4306 0.10243 0.0
H1607 H 0.58715 0.45097 0.12035 0.0
H1608 H 0.5782 0.3772 0.08049 0.0
H1609 H 0.66197 0.38301 0.10851 0.0
H1610 H 0.63539 0.38852 0.11791 0.0
H1611 H 0.64808 0.41097 0.10663 0.0
C1612 C 0.56284 0.39651 0.12233 0.0
C1613 C 0.56641 0.42046 0.12549 0.0
C1614 C 0.57666 0.38487 0.11213 0.0
C1615 C 0.59432 0.39693 0.10495 0.0
C1616 C 0.59799 0.42079 0.10813 0.0
H1617 H 0.68445 0.37155 0.03192 0.0
H1618 H 0.66281 0.38737 0.0527 0.0
C1619 C 0.58424 0.43242 0.11836 0.0
C1620 C 0.608 0.38499 0.09346 0.0
H1621 H 0.66257 0.37208 0.08311 0.0
C1622 C 0.59663 0.37583 0.08113 0.0
C1623 C 0.63204 0.38329 0.09433 0.0
C1624 C 0.64509 0.39176 0.10762 0.0
C1625 C 0.60869 0.36565 0.06942 0.0
C1626 C 0.63274 0.36434 0.07018 0.0
C1627 C 0.64412 0.37319 0.08258 0.0
C1628 C 0.64639 0.35437 0.05799 0.0
C1629 C 0.5957 0.35701 0.05613 0.0
C1630 C 0.64456 0.3305 0.05428 0.0
C1631 C 0.65691 0.32138 0.04242 0.0
C1632 C 0.67132 0.33601 0.0341 0.0
C1633 C 0.67344 0.35983 0.03806 0.0
C1634 C 0.66113 0.3689 0.04994 0.0
H1635 H 0.5779 0.36368 0.05596 0.0
H1636 H 0.60435 0.36249 0.04582 0.0
H1637 H 0.59508 0.3375 0.0563 0.0
H1638 H 0.63351 0.31894 0.06052 0.0
H1639 H 0.65497 0.30293 0.03971 0.0
loop_
_geom_bond_atom_site_label_1
_geom_bond_atom_site_label_2
_geom_bond_distance
_geom_bond_site_symmetry_2
_ccdc_geom_bond_type
H0 C19 0.949 . S
H1 C20 0.950 . S
H2 C22 0.950 . S
H3 C23 0.950 . S
H4 C25 0.950 . S
H5 C28 0.950 . S
H6 C29 0.950 . S
H7 C31 0.951 . S
H8 C32 0.949 1_565 S
H9 C34 0.949 . S
H10 C35 0.950 . S
H11 C37 0.950 . S
H12 C38 0.950 . S
H13 C40 0.950 . S
H14 C43 0.950 . S
H15 C44 0.950 . S
H16 C46 0.951 . S
H17 C47 0.949 1_545 S
C18 C19 1.376 . S
C18 C23 1.386 . S
C18 C24 1.483 . S
C19 H0 0.949 . S
C19 C18 1.376 . S
C19 C20 1.397 . S
C20 H1 0.950 . S
C20 C19 1.397 . S
C20 C21 1.391 . S
C21 C20 1.391 . S
C21 C22 1.405 . S
C22 H2 0.950 . S
C22 C21 1.405 . S
C22 C23 1.367 . S
C23 H3 0.950 . S
C23 C18 1.386 . S
C23 C22 1.367 . S
C24 C18 1.483 . S
C24 C25 1.382 1_655 S
C24 C26 1.403 . S
C25 H4 0.950 . S
C25 C24 1.382 1_455 S
C25 C41 1.411 1_545 S
C26 C24 1.403 . S
C26 C27 1.489 . S
C26 C40 1.411 1_545 S
C27 C26 1.489 . S
C27 C28 1.383 . S
C27 C32 1.382 . S
C28 H5 0.950 . S
C28 C27 1.383 . S
C28 C29 1.395 . S
C29 H6 0.950 . S
C29 C28 1.395 . S
C29 C30 1.288 . S
C30 C29 1.288 . S
C30 C31 1.392 . S
C31 H7 0.951 . S
C31 C30 1.392 . S
C31 C32 1.392 . S
C32 H8 0.949 1_545 S
C32 C27 1.382 . S
C32 C31 1.392 . S
C33 C34 1.376 . S
C33 C38 1.386 . S
C33 C39 1.483 . S
C34 H9 0.949 . S
C34 C33 1.376 . S
C34 C35 1.397 . S
C35 H10 0.950 . S
C35 C34 1.397 . S
C35 C36 1.391 . S
C36 C35 1.391 . S
C36 C37 1.405 . S
C37 H11 0.950 . S
C37 C36 1.405 . S
C37 C38 1.367 . S
C38 H12 0.950 . S
C38 C33 1.386 . S
C38 C37 1.367 . S
C39 C33 1.483 . S
C39 C40 1.382 1_455 S
C39 C41 1.403 . S
C40 H13 0.950 . S
C40 C26 1.411 1_565 S
C40 C39 1.382 1_655 S
C41 C25 1.411 1_565 S
C41 C39 1.403 . S
C41 C42 1.489 . S
C42 C41 1.489 . S
C42 C43 1.383 . S
C42 C47 1.382 . S
C43 H14 0.950 . S
C43 C42 1.383 . S
C43 C44 1.395 . S
C44 H15 0.950 . S
C44 C43 1.395 . S
C44 C45 1.288 . S
C45 C44 1.288 . S
C45 C46 1.392 . S
C46 H16 0.951 . S
C46 C45 1.392 . S
C46 C47 1.392 . S
C47 H17 0.949 1_565 S
C47 C42 1.382 . S
C47 C46 1.392 . S
H48 C67 0.949 1_455 S
H49 C68 0.950 . S
H50 C70 0.950 . S
H51 C71 0.950 . S
H52 C73 0.950 . S
H53 C76 0.950 . S
H54 C77 0.950 . S
H55 C79 0.951 . S
H56 C80 0.949 . S
H57 C82 0.949 1_655 S
H58 C83 0.950 . S
H59 C85 0.950 . S
H60 C86 0.950 . S
H61 C88 0.950 . S
H62 C91 0.950 . S
H63 C92 0.950 . S
H64 C94 0.951 . S
H65 C95 0.949 . S
C66 C67 1.376 . S
C66 C71 1.386 . S
C66 C72 1.483 . S
C67 H48 0.949 1_655 S
C67 C66 1.376 . S
C67 C68 1.397 . S
C68 H49 0.950 . S
C68 C67 1.397 . S
C68 C69 1.391 . S
C69 C68 1.391 . S
C69 C70 1.405 . S
C70 H50 0.950 . S
C70 C69 1.405 . S
C70 C71 1.367 . S
C71 H51 0.950 . S
C71 C66 1.386 . S
C71 C70 1.367 . S
C72 C66 1.483 . S
C72 C73 1.382 1_655 S
C72 C74 1.403 . S
C73 H52 0.950 . S
C73 C72 1.382 1_455 S
C73 C89 1.411 . S
C74 C72 1.403 . S
C74 C75 1.489 . S
C74 C88 1.411 . S
C75 C74 1.489 . S
C75 C76 1.383 . S
C75 C80 1.382 . S
C76 H53 0.950 . S
C76 C75 1.383 . S
C76 C77 1.395 . S
C77 H54 0.950 . S
C77 C76 1.395 . S
C77 C78 1.288 . S
C78 C77 1.288 . S
C78 C79 1.392 . S
C79 H55 0.951 . S
C79 C78 1.392 . S
C79 C80 1.392 . S
C80 H56 0.949 . S
C80 C75 1.382 . S
C80 C79 1.392 . S
C81 C82 1.376 . S
C81 C86 1.386 . S
C81 C87 1.483 . S
C82 H57 0.949 1_455 S
C82 C81 1.376 . S
C82 C83 1.397 . S
C83 H58 0.950 . S
C83 C82 1.397 . S
C83 C84 1.391 . S
C84 C83 1.391 . S
C84 C85 1.405 . S
C85 H59 0.950 . S
C85 C84 1.405 . S
C85 C86 1.367 . S
C86 H60 0.950 . S
C86 C81 1.386 . S
C86 C85 1.367 . S
C87 C81 1.483 . S
C87 C88 1.382 1_455 S
C87 C89 1.403 . S
C88 H61 0.950 . S
C88 C74 1.411 . S
C88 C87 1.382 1_655 S
C89 C73 1.411 . S
C89 C87 1.403 . S
C89 C90 1.489 . S
C90 C89 1.489 . S
C90 C91 1.383 . S
C90 C95 1.382 . S
C91 H62 0.950 . S
C91 C90 1.383 . S
C91 C92 1.395 . S
C92 H63 0.950 . S
C92 C91 1.395 . S
C92 C93 1.288 . S
C93 C92 1.288 . S
C93 C94 1.392 . S
C94 H64 0.951 . S
C94 C93 1.392 . S
C94 C95 1.392 . S
C95 H65 0.949 . S
C95 C90 1.382 . S
C95 C94 1.392 . S
H96 C115 0.949 . S
H97 C116 0.950 . S
H98 C118 0.950 . S
H99 C119 0.950 . S
H100 C121 0.950 . S
H101 C124 0.950 . S
H102 C125 0.950 . S
H103 C127 0.951 . S
H104 C128 0.949 . S
H105 C130 0.949 . S
H106 C131 0.950 . S
H107 C133 0.950 . S
H108 C134 0.950 . S
H109 C136 0.950 . S
H110 C139 0.950 . S
H111 C140 0.950 . S
H112 C142 0.951 . S
H113 C143 0.949 . S
C114 C115 1.376 . S
C114 C119 1.386 . S
C114 C120 1.483 . S
C115 H96 0.949 . S
C115 C114 1.376 . S
C115 C116 1.397 . S
C116 H97 0.950 . S
C116 C115 1.397 . S
C116 C117 1.391 . S
C117 C116 1.391 . S
C117 C118 1.405 . S
C118 H98 0.950 . S
C118 C117 1.405 . S
C118 C119 1.367 . S
C119 H99 0.950 . S
C119 C114 1.386 . S
C119 C118 1.367 . S
C120 C114 1.483 . S
C120 C121 1.382 . S
C120 C122 1.403 . S
C121 H100 0.950 . S
C121 C120 1.382 . S
C121 C137 1.411 . S
C122 C120 1.403 . S
C122 C123 1.489 . S
C122 C136 1.411 . S
C123 C122 1.489 . S
C123 C124 1.383 . S
C123 C128 1.382 . S
C124 H101 0.950 . S
C124 C123 1.383 . S
C124 C125 1.395 . S
C125 H102 0.950 . S
C125 C124 1.395 . S
C125 C126 1.288 . S
C126 C125 1.288 . S
C126 C127 1.392 . S
C127 H103 0.951 . S
C127 C126 1.392 . S
C127 C128 1.392 . S
C128 H104 0.949 . S
C128 C123 1.382 . S
C128 C127 1.392 . S
C129 C130 1.376 . S
C129 C134 1.386 . S
C129 C135 1.483 . S
C130 H105 0.949 . S
C130 C129 1.376 . S
C130 C131 1.397 . S
C131 H106 0.950 . S
C131 C130 1.397 . S
C131 C132 1.391 . S
C132 C131 1.391 . S
C132 C133 1.405 . S
C133 H107 0.950 . S
C133 C132 1.405 . S
C133 C134 1.367 . S
C134 H108 0.950 . S
C134 C129 1.386 . S
C134 C133 1.367 . S
C135 C129 1.483 . S
C135 C136 1.382 . S
C135 C137 1.403 . S
C136 H109 0.950 . S
C136 C122 1.411 . S
C136 C135 1.382 . S
C137 C121 1.411 . S
C137 C135 1.403 . S
C137 C138 1.489 . S
C138 C137 1.489 . S
C138 C139 1.383 . S
C138 C143 1.382 . S
C139 H110 0.950 . S
C139 C138 1.383 . S
C139 C140 1.395 . S
C140 H111 0.950 . S
C140 C139 1.395 . S
C140 C141 1.288 . S
C141 C140 1.288 . S
C141 C142 1.392 . S
C142 H112 0.951 . S
C142 C141 1.392 . S
C142 C143 1.392 . S
C143 H113 0.949 . S
C143 C138 1.382 . S
C143 C142 1.392 . S
H144 C163 0.949 . S
H145 C164 0.950 . S
H146 C166 0.950 . S
H147 C167 0.950 . S
H148 C169 0.950 . S
H149 C172 0.950 . S
H150 C173 0.950 . S
H151 C175 0.951 . S
H152 C176 0.949 . S
H153 C178 0.949 . S
H154 C179 0.950 . S
H155 C181 0.950 . S
H156 C182 0.950 . S
H157 C184 0.950 . S
H158 C187 0.950 . S
H159 C188 0.950 . S
H160 C190 0.951 . S
H161 C191 0.949 . S
C162 C163 1.376 . S
C162 C167 1.386 . S
C162 C168 1.483 . S
C163 H144 0.949 . S
C163 C162 1.376 . S
C163 C164 1.397 . S
C164 H145 0.950 . S
C164 C163 1.397 . S
C164 C165 1.391 . S
C165 C164 1.391 . S
C165 C166 1.405 . S
C166 H146 0.950 . S
C166 C165 1.405 . S
C166 C167 1.367 . S
C167 H147 0.950 . S
C167 C162 1.386 . S
C167 C166 1.367 . S
C168 C162 1.483 . S
C168 C169 1.382 . S
C168 C170 1.403 . S
C169 H148 0.950 . S
C169 C168 1.382 . S
C169 C185 1.411 1_565 S
C170 C168 1.403 . S
C170 C171 1.489 . S
C170 C184 1.411 1_565 S
C171 C170 1.489 . S
C171 C172 1.383 . S
C171 C176 1.382 . S
C172 H149 0.950 . S
C172 C171 1.383 . S
C172 C173 1.395 . S
C173 H150 0.950 . S
C173 C172 1.395 . S
C173 C174 1.288 . S
C174 C173 1.288 . S
C174 C175 1.392 . S
C175 H151 0.951 . S
C175 C174 1.392 . S
C175 C176 1.392 . S
C176 H152 0.949 . S
C176 C171 1.382 . S
C176 C175 1.392 . S
C177 C178 1.376 . S
C177 C182 1.386 . S
C177 C183 1.483 . S
C178 H153 0.949 . S
C178 C177 1.376 . S
C178 C179 1.397 . S
C179 H154 0.950 . S
C179 C178 1.397 . S
C179 C180 1.391 . S
C180 C179 1.391 . S
C180 C181 1.405 . S
C181 H155 0.950 . S
C181 C180 1.405 . S
C181 C182 1.367 . S
C182 H156 0.950 . S
C182 C177 1.386 . S
C182 C181 1.367 . S
C183 C177 1.483 . S
C183 C184 1.382 . S
C183 C185 1.403 . S
C184 H157 0.950 . S
C184 C170 1.411 1_545 S
C184 C183 1.382 . S
C185 C169 1.411 1_545 S
C185 C183 1.403 . S
C185 C186 1.489 . S
C186 C185 1.489 . S
C186 C187 1.383 . S
C186 C191 1.382 . S
C187 H158 0.950 . S
C187 C186 1.383 . S
C187 C188 1.395 . S
C188 H159 0.950 . S
C188 C187 1.395 . S
C188 C189 1.288 . S
C189 C188 1.288 . S
C189 C190 1.392 . S
C190 H160 0.951 . S
C190 C189 1.392 . S
C190 C191 1.392 . S
C191 H161 0.949 . S
C191 C186 1.382 . S
C191 C190 1.392 . S
H192 C211 0.949 . S
H193 C212 0.950 . S
H194 C214 0.950 . S
H195 C215 0.950 . S
H196 C217 0.950 . S
H197 C220 0.950 . S
H198 C221 0.950 . S
H199 C223 0.951 . S
H200 C224 0.949 . S
H201 C226 0.949 . S
H202 C227 0.950 . S
H203 C229 0.950 . S
H204 C230 0.950 . S
H205 C232 0.950 . S
H206 C235 0.950 . S
H207 C236 0.950 . S
H208 C238 0.951 . S
H209 C239 0.949 . S
C210 C211 1.376 . S
C210 C215 1.386 . S
C210 C216 1.483 . S
C211 H192 0.949 . S
C211 C210 1.376 . S
C211 C212 1.397 . S
C212 H193 0.950 . S
C212 C211 1.397 . S
C212 C213 1.391 . S
C213 C212 1.391 . S
C213 C214 1.405 . S
C214 H194 0.950 . S
C214 C213 1.405 . S
C214 C215 1.367 . S
C215 H195 0.950 . S
C215 C210 1.386 . S
C215 C214 1.367 . S
C216 C210 1.483 . S
C216 C217 1.382 1_455 S
C216 C218 1.403 . S
C217 H196 0.950 . S
C217 C216 1.382 1_655 S
C217 C233 1.411 . S
C218 C216 1.403 . S
C218 C219 1.489 . S
C218 C232 1.411 . S
C219 C218 1.489 . S
C219 C220 1.383 . S
C219 C224 1.382 . S
C220 H197 0.950 . S
C220 C219 1.383 . S
C220 C221 1.395 . S
C221 H198 0.950 . S
C221 C220 1.395 . S
C221 C222 1.288 . S
C222 C221 1.288 . S
C222 C223 1.392 . S
C223 H199 0.951 . S
C223 C222 1.392 . S
C223 C224 1.392 . S
C224 H200 0.949 . S
C224 C219 1.382 . S
C224 C223 1.392 . S
C225 C226 1.376 . S
C225 C230 1.386 . S
C225 C231 1.483 . S
C226 H201 0.949 . S
C226 C225 1.376 . S
C226 C227 1.397 . S
C227 H202 0.950 . S
C227 C226 1.397 . S
C227 C228 1.391 . S
C228 C227 1.391 . S
C228 C229 1.405 . S
C229 H203 0.950 . S
C229 C228 1.405 . S
C229 C230 1.367 . S
C230 H204 0.950 . S
C230 C225 1.386 . S
C230 C229 1.367 . S
C231 C225 1.483 . S
C231 C232 1.382 1_655 S
C231 C233 1.403 . S
C232 H205 0.950 . S
C232 C218 1.411 . S
C232 C231 1.382 1_455 S
C233 C217 1.411 . S
C233 C231 1.403 . S
C233 C234 1.489 . S
C234 C233 1.489 . S
C234 C235 1.383 . S
C234 C239 1.382 . S
C235 H206 0.950 . S
C235 C234 1.383 . S
C235 C236 1.395 . S
C236 H207 0.950 . S
C236 C235 1.395 . S
C236 C237 1.288 . S
C237 C236 1.288 . S
C237 C238 1.392 . S
C238 H208 0.951 . S
C238 C237 1.392 . S
C238 C239 1.392 . S
C239 H209 0.949 . S
C239 C234 1.382 . S
C239 C238 1.392 . S
H240 C259 0.949 . S
H241 C260 0.950 . S
H242 C262 0.950 . S
H243 C263 0.950 . S
H244 C265 0.950 . S
H245 C268 0.950 . S
H246 C269 0.950 . S
H247 C271 0.951 . S
H248 C272 0.949 . S
H249 C274 0.949 . S
H250 C275 0.950 . S
H251 C277 0.950 . S
H252 C278 0.950 . S
H253 C280 0.950 . S
H254 C283 0.950 . S
H255 C284 0.950 . S
H256 C286 0.951 . S
H257 C287 0.949 . S
C258 C259 1.376 . S
C258 C263 1.386 . S
C258 C264 1.483 . S
C259 H240 0.949 . S
C259 C258 1.376 . S
C259 C260 1.397 . S
C260 H241 0.950 . S
C260 C259 1.397 . S
C260 C261 1.391 . S
C261 C260 1.391 . S
C261 C262 1.405 . S
C262 H242 0.950 . S
C262 C261 1.405 . S
C262 C263 1.367 . S
C263 H243 0.950 . S
C263 C258 1.386 . S
C263 C262 1.367 . S
C264 C258 1.483 . S
C264 C265 1.382 . S
C264 C266 1.403 . S
C265 H244 0.950 . S
C265 C264 1.382 . S
C265 C281 1.411 . S
C266 C264 1.403 . S
C266 C267 1.489 . S
C266 C280 1.411 . S
C267 C266 1.489 . S
C267 C268 1.383 . S
C267 C272 1.382 . S
C268 H245 0.950 . S
C268 C267 1.383 . S
C268 C269 1.395 . S
C269 H246 0.950 . S
C269 C268 1.395 . S
C269 C270 1.288 . S
C270 C269 1.288 . S
C270 C271 1.392 . S
C271 H247 0.951 . S
C271 C270 1.392 . S
C271 C272 1.392 . S
C272 H248 0.949 . S
C272 C267 1.382 . S
C272 C271 1.392 . S
C273 C274 1.376 . S
C273 C278 1.386 . S
C273 C279 1.483 . S
C274 H249 0.949 . S
C274 C273 1.376 . S
C274 C275 1.397 . S
C275 H250 0.950 . S
C275 C274 1.397 . S
C275 C276 1.391 . S
C276 C275 1.391 . S
C276 C277 1.405 . S
C277 H251 0.950 . S
C277 C276 1.405 . S
C277 C278 1.367 . S
C278 H252 0.950 . S
C278 C273 1.386 . S
C278 C277 1.367 . S
C279 C273 1.483 . S
C279 C280 1.382 . S
C279 C281 1.403 . S
C280 H253 0.950 . S
C280 C266 1.411 . S
C280 C279 1.382 . S
C281 C265 1.411 . S
C281 C279 1.403 . S
C281 C282 1.489 . S
C282 C281 1.489 . S
C282 C283 1.383 . S
C282 C287 1.382 . S
C283 H254 0.950 . S
C283 C282 1.383 . S
C283 C284 1.395 . S
C284 H255 0.950 . S
C284 C283 1.395 . S
C284 C285 1.288 . S
C285 C284 1.288 . S
C285 C286 1.392 . S
C286 H256 0.951 . S
C286 C285 1.392 . S
C286 C287 1.392 . S
C287 H257 0.949 . S
C287 C282 1.382 . S
C287 C286 1.392 . S
H288 C307 0.949 . S
H289 C308 0.950 . S
H290 C310 0.950 . S
H291 C311 0.950 . S
H292 C313 0.950 . S
H293 C316 0.950 . S
H294 C317 0.950 . S
H295 C319 0.951 . S
H296 C320 0.949 1_545 S
H297 C322 0.949 . S
H298 C323 0.950 . S
H299 C325 0.950 . S
H300 C326 0.950 . S
H301 C328 0.950 . S
H302 C331 0.950 . S
H303 C332 0.950 . S
H304 C334 0.951 . S
H305 C335 0.949 1_565 S
C306 C307 1.376 . S
C306 C311 1.386 . S
C306 C312 1.483 . S
C307 H288 0.949 . S
C307 C306 1.376 . S
C307 C308 1.397 . S
C308 H289 0.950 . S
C308 C307 1.397 . S
C308 C309 1.391 . S
C309 C308 1.391 . S
C309 C310 1.405 . S
C310 H290 0.950 . S
C310 C309 1.405 . S
C310 C311 1.367 . S
C311 H291 0.950 . S
C311 C306 1.386 . S
C311 C310 1.367 . S
C312 C306 1.483 . S
C312 C313 1.382 . S
C312 C314 1.403 . S
C313 H292 0.950 . S
C313 C312 1.382 . S
C313 C329 1.411 1_565 S
C314 C312 1.403 . S
C314 C315 1.489 . S
C314 C328 1.411 1_565 S
C315 C314 1.489 . S
C315 C316 1.383 . S
C315 C320 1.382 . S
C316 H293 0.950 . S
C316 C315 1.383 . S
C316 C317 1.395 . S
C317 H294 0.950 . S
C317 C316 1.395 . S
C317 C318 1.288 . S
C318 C317 1.288 . S
C318 C319 1.392 . S
C319 H295 0.951 . S
C319 C318 1.392 . S
C319 C320 1.392 . S
C320 H296 0.949 1_565 S
C320 C315 1.382 . S
C320 C319 1.392 . S
C321 C322 1.376 . S
C321 C326 1.386 . S
C321 C327 1.483 . S
C322 H297 0.949 . S
C322 C321 1.376 . S
C322 C323 1.397 . S
C323 H298 0.950 . S
C323 C322 1.397 . S
C323 C324 1.391 . S
C324 C323 1.391 . S
C324 C325 1.405 . S
C325 H299 0.950 . S
C325 C324 1.405 . S
C325 C326 1.367 . S
C326 H300 0.950 . S
C326 C321 1.386 . S
C326 C325 1.367 . S
C327 C321 1.483 . S
C327 C328 1.382 . S
C327 C329 1.403 . S
C328 H301 0.950 . S
C328 C314 1.411 1_545 S
C328 C327 1.382 . S
C329 C313 1.411 1_545 S
C329 C327 1.403 . S
C329 C330 1.489 . S
C330 C329 1.489 . S
C330 C331 1.383 . S
C330 C335 1.382 . S
C331 H302 0.950 . S
C331 C330 1.383 . S
C331 C332 1.395 . S
C332 H303 0.950 . S
C332 C331 1.395 . S
C332 C333 1.288 . S
C333 C332 1.288 . S
C333 C334 1.392 . S
C334 H304 0.951 . S
C334 C333 1.392 . S
C334 C335 1.392 . S
C335 H305 0.949 1_545 S
C335 C330 1.382 . S
C335 C334 1.392 . S
H336 C355 0.949 1_455 S
H337 C356 0.950 . S
H338 C358 0.950 . S
H339 C359 0.950 . S
H340 C361 0.950 . S
H341 C364 0.950 . S
H342 C365 0.950 . S
H343 C367 0.951 . S
H344 C368 0.949 . S
H345 C370 0.949 1_655 S
H346 C371 0.950 . S
H347 C373 0.950 . S
H348 C374 0.950 . S
H349 C376 0.950 . S
H350 C379 0.950 . S
H351 C380 0.950 . S
H352 C382 0.951 . S
H353 C383 0.949 . S
C354 C355 1.376 . S
C354 C359 1.386 . S
C354 C360 1.483 . S
C355 H336 0.949 1_655 S
C355 C354 1.376 . S
C355 C356 1.397 . S
C356 H337 0.950 . S
C356 C355 1.397 . S
C356 C357 1.391 . S
C357 C356 1.391 . S
C357 C358 1.405 . S
C358 H338 0.950 . S
C358 C357 1.405 . S
C358 C359 1.367 . S
C359 H339 0.950 . S
C359 C354 1.386 . S
C359 C358 1.367 . S
C360 C354 1.483 . S
C360 C361 1.382 1_655 S
C360 C362 1.403 . S
C361 H340 0.950 . S
C361 C360 1.382 1_455 S
C361 C377 1.411 1_545 S
C362 C360 1.403 . S
C362 C363 1.489 . S
C362 C376 1.411 1_545 S
C363 C362 1.489 . S
C363 C364 1.383 . S
C363 C368 1.382 . S
C364 H341 0.950 . S
C364 C363 1.383 . S
C364 C365 1.395 . S
C365 H342 0.950 . S
C365 C364 1.395 . S
C365 C366 1.288 . S
C366 C365 1.288 . S
C366 C367 1.392 . S
C367 H343 0.951 . S
C367 C366 1.392 . S
C367 C368 1.392 . S
C368 H344 0.949 . S
C368 C363 1.382 . S
C368 C367 1.392 . S
C369 C370 1.376 . S
C369 C374 1.386 . S
C369 C375 1.483 . S
C370 H345 0.949 1_455 S
C370 C369 1.376 . S
C370 C371 1.397 . S
C371 H346 0.950 . S
C371 C370 1.397 . S
C371 C372 1.391 . S
C372 C371 1.391 . S
C372 C373 1.405 . S
C373 H347 0.950 . S
C373 C372 1.405 . S
C373 C374 1.367 . S
C374 H348 0.950 . S
C374 C369 1.386 . S
C374 C373 1.367 . S
C375 C369 1.483 . S
C375 C376 1.382 1_455 S
C375 C377 1.403 . S
C376 H349 0.950 . S
C376 C362 1.411 1_565 S
C376 C375 1.382 1_655 S
C377 C361 1.411 1_565 S
C377 C375 1.403 . S
C377 C378 1.489 . S
C378 C377 1.489 . S
C378 C379 1.383 . S
C378 C383 1.382 . S
C379 H350 0.950 . S
C379 C378 1.383 . S
C379 C380 1.395 . S
C380 H351 0.950 . S
C380 C379 1.395 . S
C380 C381 1.288 . S
C381 C380 1.288 . S
C381 C382 1.392 . S
C382 H352 0.951 . S
C382 C381 1.392 . S
C382 C383 1.392 . S
C383 H353 0.949 . S
C383 C378 1.382 . S
C383 C382 1.392 . S
C384 O385 1.164 . S
C384 O391 1.184 1_554 S
O385 C384 1.164 . S
O386 Zn387 1.899 . S
O386 C394 1.284 . S
Zn387 O386 1.899 . S
Zn387 O388 2.032 1_554 S
Zn387 O391 2.086 1_554 S
Zn387 O396 1.977 . S
O388 Zn387 2.032 1_556 S
O388 C392 1.278 . S
C389 O390 1.203 . S
C389 O396 1.267 . S
O390 C389 1.203 . S
O391 C384 1.184 1_556 S
O391 Zn387 2.086 1_556 S
C392 O388 1.278 . S
C392 O393 1.211 . S
O393 C392 1.211 . S
C394 O386 1.284 . S
C394 O395 1.273 . S
O395 C394 1.273 . S
O396 Zn387 1.977 . S
O396 C389 1.267 . S
C397 O398 1.160 . S
C397 O404 1.185 . S
O398 C397 1.160 . S
O399 Zn400 1.899 . S
O399 C407 1.284 . S
Zn400 O399 1.899 . S
Zn400 O401 2.032 . S
Zn400 O404 2.086 . S
Zn400 O409 1.977 . S
O401 Zn400 2.032 . S
O401 C405 1.278 . S
C402 O403 1.203 . S
C402 O409 1.267 . S
O403 C402 1.203 . S
O404 C397 1.185 . S
O404 Zn400 2.086 . S
C405 O401 1.278 . S
C405 O406 1.211 . S
O406 C405 1.211 . S
C407 O399 1.284 . S
C407 O408 1.273 . S
O408 C407 1.273 . S
O409 Zn400 1.977 . S
O409 C402 1.267 . S
C410 O411 1.160 . S
C410 O417 1.185 . S
O411 C410 1.160 . S
O412 Zn413 1.899 . S
O412 C420 1.284 . S
Zn413 O412 1.899 . S
Zn413 O414 2.032 . S
Zn413 O417 2.086 . S
Zn413 O422 1.977 . S
O414 Zn413 2.032 . S
O414 C418 1.278 . S
C415 O416 1.203 . S
C415 O422 1.267 . S
O416 C415 1.203 . S
O417 C410 1.185 . S
O417 Zn413 2.086 . S
C418 O414 1.278 . S
C418 O419 1.211 . S
O419 C418 1.211 . S
C420 O412 1.284 . S
C420 O421 1.273 . S
O421 C420 1.273 . S
O422 Zn413 1.977 . S
O422 C415 1.267 . S
C423 O424 1.160 . S
C423 O430 1.185 . S
O424 C423 1.160 . S
O425 Zn426 1.899 . S
O425 C433 1.284 . S
Zn426 O425 1.899 . S
Zn426 O427 2.032 . S
Zn426 O430 2.086 . S
Zn426 O435 1.977 . S
O427 Zn426 2.032 . S
O427 C431 1.278 . S
C428 O429 1.203 . S
C428 O435 1.267 . S
O429 C428 1.203 . S
O430 C423 1.185 . S
O430 Zn426 2.086 . S
C431 O427 1.278 . S
C431 O432 1.211 . S
O432 C431 1.211 . S
C433 O425 1.284 . S
C433 O434 1.273 . S
O434 C433 1.273 . S
O435 Zn426 1.977 . S
O435 C428 1.267 . S
C436 O437 1.160 . S
C436 O443 1.185 . S
O437 C436 1.160 . S
O438 Zn439 1.899 . S
O438 C446 1.284 . S
Zn439 O438 1.899 . S
Zn439 O440 2.032 . S
Zn439 O443 2.086 . S
Zn439 O448 1.977 . S
O440 Zn439 2.032 . S
O440 C444 1.278 . S
C441 O442 1.203 . S
C441 O448 1.267 . S
O442 C441 1.203 . S
O443 C436 1.185 . S
O443 Zn439 2.086 . S
C444 O440 1.278 . S
C444 O445 1.211 . S
O445 C444 1.211 . S
C446 O438 1.284 . S
C446 O447 1.273 . S
O447 C446 1.273 . S
O448 Zn439 1.977 . S
O448 C441 1.267 . S
C449 O450 1.160 . S
C449 O456 1.185 . S
O450 C449 1.160 . S
O451 Zn452 1.899 . S
O451 C459 1.284 . S
Zn452 O451 1.899 . S
Zn452 O453 2.032 . S
Zn452 O456 2.086 . S
Zn452 O461 1.977 . S
O453 Zn452 2.032 . S
O453 C457 1.278 . S
C454 O455 1.203 . S
C454 O461 1.267 . S
O455 C454 1.203 . S
O456 C449 1.185 . S
O456 Zn452 2.086 . S
C457 O453 1.278 . S
C457 O458 1.211 . S
O458 C457 1.211 . S
C459 O451 1.284 . S
C459 O460 1.273 . S
O460 C459 1.273 . S
O461 Zn452 1.977 . S
O461 C454 1.267 . S
C462 O463 1.164 . S
C462 O469 1.184 1_554 S
O463 C462 1.164 . S
O464 Zn465 1.899 . S
O464 C472 1.284 . S
Zn465 O464 1.899 . S
Zn465 O466 2.032 1_554 S
Zn465 O469 2.086 1_554 S
Zn465 O474 1.977 . S
O466 Zn465 2.032 1_556 S
O466 C470 1.278 . S
C467 O468 1.203 . S
C467 O474 1.267 . S
O468 C467 1.203 . S
O469 C462 1.184 1_556 S
O469 Zn465 2.086 1_556 S
C470 O466 1.278 . S
C470 O471 1.211 . S
O471 C470 1.211 . S
C472 O464 1.284 . S
C472 O473 1.273 . S
O473 C472 1.273 . S
O474 Zn465 1.977 . S
O474 C467 1.267 . S
C475 O476 1.160 . S
C475 O482 1.185 . S
O476 C475 1.160 . S
O477 Zn478 1.899 . S
O477 C485 1.284 . S
Zn478 O477 1.899 . S
Zn478 O479 2.032 . S
Zn478 O482 2.086 . S
Zn478 O487 1.977 . S
O479 Zn478 2.032 . S
O479 C483 1.278 . S
C480 O481 1.203 . S
C480 O487 1.267 . S
O481 C480 1.203 . S
O482 C475 1.185 . S
O482 Zn478 2.086 . S
C483 O479 1.278 . S
C483 O484 1.211 . S
O484 C483 1.211 . S
C485 O477 1.284 . S
C485 O486 1.273 . S
O486 C485 1.273 . S
O487 Zn478 1.977 . S
O487 C480 1.267 . S
H488 C496 0.929 . S
H489 C498 0.930 . S
H490 C500 0.930 . S
H491 C503 0.929 . S
H492 C506 0.930 . S
H493 C508 0.960 . S
H494 C508 0.960 . S
H495 C508 0.960 . S
C496 H488 0.929 . S
C496 C497 1.377 . S
C496 C498 1.384 . S
C497 C496 1.377 . S
C497 C503 1.390 . S
C498 H489 0.930 . S
C498 C496 1.384 . S
C498 C499 1.372 . S
C499 C498 1.372 . S
C499 C500 1.400 . S
C499 C504 1.490 . S
C500 H490 0.930 . S
C500 C499 1.400 . S
C500 C503 1.386 . S
H501 C517 0.930 . S
H502 C518 0.931 . S
C503 H491 0.929 . S
C503 C497 1.390 . S
C503 C500 1.386 . S
C504 C499 1.490 . S
C504 C506 1.395 . S
C504 C507 1.403 . S
H505 C511 0.930 . S
C506 H492 0.930 . S
C506 C504 1.395 . S
C506 C509 1.403 . S
C507 C504 1.403 . S
C507 C508 1.524 . S
C507 C511 1.400 . S
C508 H493 0.960 . S
C508 H494 0.960 . S
C508 H495 0.960 . S
C508 C507 1.524 . S
C509 C506 1.403 . S
C509 C510 1.392 . S
C509 C513 1.495 . S
C510 C509 1.392 . S
C510 C511 1.385 . S
C510 C512 1.478 . S
C511 H505 0.930 . S
C511 C507 1.400 . S
C511 C510 1.385 . S
C512 C510 1.478 . S
C512 C514 1.381 . S
C512 C518 1.383 . S
C513 C509 1.495 . S
C513 H519 0.959 . S
C513 H520 0.961 . S
C513 H521 0.960 . S
C514 C512 1.381 . S
C514 C515 1.394 . S
C514 H522 0.930 . S
C515 C514 1.394 . S
C515 C516 1.383 . S
C515 H523 0.929 . S
C516 C515 1.383 . S
C516 C517 1.377 . S
C517 H501 0.930 . S
C517 C516 1.377 . S
C517 C518 1.379 . S
C518 H502 0.931 . S
C518 C512 1.383 . S
C518 C517 1.379 . S
H519 C513 0.959 . S
H520 C513 0.961 . S
H521 C513 0.960 . S
H522 C514 0.930 . S
H523 C515 0.929 . S
H524 C532 0.929 . S
H525 C534 0.930 . S
H526 C536 0.930 . S
H527 C539 0.929 . S
H528 C542 0.930 . S
H529 C544 0.960 . S
H530 C544 0.960 . S
H531 C544 0.960 . S
C532 H524 0.929 . S
C532 C533 1.377 . S
C532 C534 1.384 . S
C533 C532 1.377 . S
C533 C539 1.390 . S
C534 H525 0.930 . S
C534 C532 1.384 . S
C534 C535 1.372 . S
C535 C534 1.372 . S
C535 C536 1.400 . S
C535 C540 1.490 . S
C536 H526 0.930 . S
C536 C535 1.400 . S
C536 C539 1.386 . S
H537 C553 0.930 . S
H538 C554 0.931 . S
C539 H527 0.929 . S
C539 C533 1.390 . S
C539 C536 1.386 . S
C540 C535 1.490 . S
C540 C542 1.395 . S
C540 C543 1.403 . S
H541 C547 0.930 . S
C542 H528 0.930 . S
C542 C540 1.395 . S
C542 C545 1.403 . S
C543 C540 1.403 . S
C543 C544 1.524 . S
C543 C547 1.400 . S
C544 H529 0.960 . S
C544 H530 0.960 . S
C544 H531 0.960 . S
C544 C543 1.524 . S
C545 C542 1.403 . S
C545 C546 1.392 . S
C545 C549 1.495 . S
C546 C545 1.392 . S
C546 C547 1.385 . S
C546 C548 1.478 . S
C547 H541 0.930 . S
C547 C543 1.400 . S
C547 C546 1.385 . S
C548 C546 1.478 . S
C548 C550 1.381 . S
C548 C554 1.383 . S
C549 C545 1.495 . S
C549 H555 0.959 . S
C549 H556 0.961 . S
C549 H557 0.960 . S
C550 C548 1.381 . S
C550 C551 1.394 . S
C550 H558 0.930 . S
C551 C550 1.394 . S
C551 C552 1.383 . S
C551 H559 0.929 . S
C552 C551 1.383 . S
C552 C553 1.377 . S
C553 H537 0.930 . S
C553 C552 1.377 . S
C553 C554 1.379 . S
C554 H538 0.931 . S
C554 C548 1.383 . S
C554 C553 1.379 . S
H555 C549 0.959 . S
H556 C549 0.961 . S
H557 C549 0.960 . S
H558 C550 0.930 . S
H559 C551 0.929 . S
H560 C568 0.929 . S
H561 C570 0.930 . S
H562 C572 0.930 . S
H563 C575 0.929 . S
H564 C578 0.930 . S
H565 C580 0.960 . S
H566 C580 0.960 . S
H567 C580 0.960 . S
C568 H560 0.929 . S
C568 C569 1.377 . S
C568 C570 1.384 . S
C569 C568 1.377 . S
C569 C575 1.390 . S
C570 H561 0.930 . S
C570 C568 1.384 . S
C570 C571 1.372 . S
C571 C570 1.372 . S
C571 C572 1.400 . S
C571 C576 1.490 . S
C572 H562 0.930 . S
C572 C571 1.400 . S
C572 C575 1.386 . S
H573 C589 0.930 . S
H574 C590 0.931 . S
C575 H563 0.929 . S
C575 C569 1.390 . S
C575 C572 1.386 . S
C576 C571 1.490 . S
C576 C578 1.395 . S
C576 C579 1.403 . S
H577 C583 0.930 . S
C578 H564 0.930 . S
C578 C576 1.395 . S
C578 C581 1.403 . S
C579 C576 1.403 . S
C579 C580 1.524 . S
C579 C583 1.400 . S
C580 H565 0.960 . S
C580 H566 0.960 . S
C580 H567 0.960 . S
C580 C579 1.524 . S
C581 C578 1.403 . S
C581 C582 1.392 . S
C581 C585 1.495 . S
C582 C581 1.392 . S
C582 C583 1.385 . S
C582 C584 1.478 . S
C583 H577 0.930 . S
C583 C579 1.400 . S
C583 C582 1.385 . S
C584 C582 1.478 . S
C584 C586 1.381 . S
C584 C590 1.383 . S
C585 C581 1.495 . S
C585 H591 0.959 . S
C585 H592 0.961 . S
C585 H593 0.960 . S
C586 C584 1.381 . S
C586 C587 1.394 . S
C586 H594 0.930 . S
C587 C586 1.394 . S
C587 C588 1.383 . S
C587 H595 0.929 . S
C588 C587 1.383 . S
C588 C589 1.377 . S
C589 H573 0.930 . S
C589 C588 1.377 . S
C589 C590 1.379 . S
C590 H574 0.931 . S
C590 C584 1.383 . S
C590 C589 1.379 . S
H591 C585 0.959 . S
H592 C585 0.961 . S
H593 C585 0.960 . S
H594 C586 0.930 . S
H595 C587 0.929 . S
H596 C604 0.929 . S
H597 C606 0.930 . S
H598 C608 0.930 . S
H599 C611 0.929 . S
H600 C614 0.930 . S
H601 C616 0.960 . S
H602 C616 0.960 . S
H603 C616 0.960 . S
C604 H596 0.929 . S
C604 C605 1.377 . S
C604 C606 1.384 . S
C605 C604 1.377 . S
C605 C611 1.390 . S
C606 H597 0.930 . S
C606 C604 1.384 . S
C606 C607 1.372 . S
C607 C606 1.372 . S
C607 C608 1.400 . S
C607 C612 1.490 . S
C608 H598 0.930 . S
C608 C607 1.400 . S
C608 C611 1.386 . S
H609 C625 0.930 1_556 S
H610 C626 0.931 1_556 S
C611 H599 0.929 . S
C611 C605 1.390 . S
C611 C608 1.386 . S
C612 C607 1.490 . S
C612 C614 1.395 . S
C612 C615 1.403 . S
H613 C619 0.930 . S
C614 H600 0.930 . S
C614 C612 1.395 . S
C614 C617 1.403 . S
C615 C612 1.403 . S
C615 C616 1.524 . S
C615 C619 1.400 . S
C616 H601 0.960 . S
C616 H602 0.960 . S
C616 H603 0.960 . S
C616 C615 1.524 . S
C617 C614 1.403 . S
C617 C618 1.392 . S
C617 C621 1.495 . S
C618 C617 1.392 . S
C618 C619 1.385 . S
C618 C620 1.478 . S
C619 H613 0.930 . S
C619 C615 1.400 . S
C619 C618 1.385 . S
C620 C618 1.478 . S
C620 C622 1.381 . S
C620 C626 1.383 . S
C621 C617 1.495 . S
C621 H627 0.959 . S
C621 H628 0.961 . S
C621 H629 0.960 . S
C622 C620 1.381 . S
C622 C623 1.394 . S
C622 H630 0.930 . S
C623 C622 1.394 . S
C623 C624 1.383 . S
C623 H631 0.929 . S
C624 C623 1.383 . S
C624 C625 1.377 . S
C625 H609 0.930 1_554 S
C625 C624 1.377 . S
C625 C626 1.379 . S
C626 H610 0.931 1_554 S
C626 C620 1.383 . S
C626 C625 1.379 . S
H627 C621 0.959 . S
H628 C621 0.961 . S
H629 C621 0.960 . S
H630 C622 0.930 . S
H631 C623 0.929 . S
H632 C640 0.929 . S
H633 C642 0.930 . S
H634 C644 0.930 . S
H635 C647 0.929 . S
H636 C650 0.930 . S
H637 C652 0.960 . S
H638 C652 0.960 . S
H639 C652 0.960 . S
C640 H632 0.929 . S
C640 C641 1.377 . S
C640 C642 1.384 . S
C641 C640 1.377 . S
C641 C647 1.390 . S
C642 H633 0.930 . S
C642 C640 1.384 . S
C642 C643 1.372 . S
C643 C642 1.372 . S
C643 C644 1.400 . S
C643 C648 1.490 . S
C644 H634 0.930 . S
C644 C643 1.400 . S
C644 C647 1.386 . S
H645 C661 0.930 . S
H646 C662 0.931 . S
C647 H635 0.929 . S
C647 C641 1.390 . S
C647 C644 1.386 . S
C648 C643 1.490 . S
C648 C650 1.395 . S
C648 C651 1.403 . S
H649 C655 0.930 . S
C650 H636 0.930 . S
C650 C648 1.395 . S
C650 C653 1.403 . S
C651 C648 1.403 . S
C651 C652 1.524 . S
C651 C655 1.400 . S
C652 H637 0.960 . S
C652 H638 0.960 . S
C652 H639 0.960 . S
C652 C651 1.524 . S
C653 C650 1.403 . S
C653 C654 1.392 . S
C653 C657 1.495 1_556 S
C654 C653 1.392 . S
C654 C655 1.385 . S
C654 C656 1.478 . S
C655 H649 0.930 . S
C655 C651 1.400 . S
C655 C654 1.385 . S
C656 C654 1.478 . S
C656 C658 1.363 1_556 S
C656 C662 1.383 . S
C657 C653 1.495 1_554 S
C657 H663 0.959 . S
C657 H664 0.961 . S
C657 H665 0.960 . S
C658 C656 1.363 1_554 S
C658 C659 1.399 . S
C658 H666 0.944 . S
C659 C658 1.399 . S
C659 C660 1.383 1_554 S
C659 H667 0.929 . S
C660 C659 1.383 1_556 S
C660 C661 1.377 . S
C661 H645 0.930 . S
C661 C660 1.377 . S
C661 C662 1.379 . S
C662 H646 0.931 . S
C662 C656 1.383 . S
C662 C661 1.379 . S
H663 C657 0.959 . S
H664 C657 0.961 . S
H665 C657 0.960 . S
H666 C658 0.944 . S
H667 C659 0.929 . S
H668 C676 0.929 . S
H669 C678 0.930 . S
H670 C680 0.930 . S
H671 C683 0.929 . S
H672 C686 0.930 . S
H673 C688 0.960 . S
H674 C688 0.960 . S
H675 C688 0.960 . S
C676 H668 0.929 . S
C676 C677 1.377 . S
C676 C678 1.384 . S
C677 C676 1.377 . S
C677 C683 1.390 . S
C678 H669 0.930 . S
C678 C676 1.384 . S
C678 C679 1.372 . S
C679 C678 1.372 . S
C679 C680 1.400 . S
C679 C684 1.490 . S
C680 H670 0.930 . S
C680 C679 1.400 . S
C680 C683 1.386 . S
H681 C697 0.930 . S
H682 C698 0.931 . S
C683 H671 0.929 . S
C683 C677 1.390 . S
C683 C680 1.386 . S
C684 C679 1.490 . S
C684 C686 1.395 . S
C684 C687 1.403 . S
H685 C691 0.930 . S
C686 H672 0.930 . S
C686 C684 1.395 . S
C686 C689 1.403 . S
C687 C684 1.403 . S
C687 C688 1.524 . S
C687 C691 1.400 . S
C688 H673 0.960 . S
C688 H674 0.960 . S
C688 H675 0.960 . S
C688 C687 1.524 . S
C689 C686 1.403 . S
C689 C690 1.392 . S
C689 C693 1.495 . S
C690 C689 1.392 . S
C690 C691 1.385 . S
C690 C692 1.478 . S
C691 H685 0.930 . S
C691 C687 1.400 . S
C691 C690 1.385 . S
C692 C690 1.478 . S
C692 C694 1.381 . S
C692 C698 1.383 . S
C693 C689 1.495 . S
C693 H699 0.959 . S
C693 H700 0.961 . S
C693 H701 0.960 . S
C694 C692 1.381 . S
C694 C695 1.394 . S
C694 H702 0.930 . S
C695 C694 1.394 . S
C695 C696 1.383 . S
C695 H703 0.929 . S
C696 C695 1.383 . S
C696 C697 1.377 . S
C697 H681 0.930 . S
C697 C696 1.377 . S
C697 C698 1.379 . S
C698 H682 0.931 . S
C698 C692 1.383 . S
C698 C697 1.379 . S
H699 C693 0.959 . S
H700 C693 0.961 . S
H701 C693 0.960 . S
H702 C694 0.930 . S
H703 C695 0.929 . S
H704 C712 0.929 . S
H705 C714 0.930 . S
H706 C716 0.930 . S
H707 C719 0.929 . S
H708 C722 0.930 . S
H709 C724 0.960 . S
H710 C724 0.960 . S
H711 C724 0.960 . S
C712 H704 0.929 . S
C712 C713 1.377 . S
C712 C714 1.384 . S
C713 C712 1.377 . S
C713 C719 1.390 . S
C714 H705 0.930 . S
C714 C712 1.384 . S
C714 C715 1.372 . S
C715 C714 1.372 . S
C715 C716 1.400 . S
C715 C720 1.490 . S
C716 H706 0.930 . S
C716 C715 1.400 . S
C716 C719 1.386 . S
H717 C733 0.930 . S
H718 C734 0.931 . S
C719 H707 0.929 . S
C719 C713 1.390 . S
C719 C716 1.386 . S
C720 C715 1.490 . S
C720 C722 1.395 . S
C720 C723 1.403 . S
H721 C727 0.930 . S
C722 H708 0.930 . S
C722 C720 1.395 . S
C722 C725 1.403 . S
C723 C720 1.403 . S
C723 C724 1.524 . S
C723 C727 1.400 . S
C724 H709 0.960 . S
C724 H710 0.960 . S
C724 H711 0.960 . S
C724 C723 1.524 . S
C725 C722 1.403 . S
C725 C726 1.392 . S
C725 C729 1.495 . S
C726 C725 1.392 . S
C726 C727 1.385 . S
C726 C728 1.478 . S
C727 H721 0.930 . S
C727 C723 1.400 . S
C727 C726 1.385 . S
C728 C726 1.478 . S
C728 C730 1.381 . S
C728 C734 1.383 . S
C729 C725 1.495 . S
C729 H735 0.959 . S
C729 H736 0.961 . S
C729 H737 0.960 . S
C730 C728 1.381 . S
C730 C731 1.394 . S
C730 H738 0.930 . S
C731 C730 1.394 . S
C731 C732 1.383 . S
C731 H739 0.929 . S
C732 C731 1.383 . S
C732 C733 1.377 . S
C733 H717 0.930 . S
C733 C732 1.377 . S
C733 C734 1.379 . S
C734 H718 0.931 . S
C734 C728 1.383 . S
C734 C733 1.379 . S
H735 C729 0.959 . S
H736 C729 0.961 . S
H737 C729 0.960 . S
H738 C730 0.930 . S
H739 C731 0.929 . S
H740 C748 0.929 . S
H741 C750 0.930 . S
H742 C752 0.930 . S
H743 C755 0.929 . S
H744 C758 0.930 . S
H745 C760 0.960 . S
H746 C760 0.960 . S
H747 C760 0.960 . S
C748 H740 0.929 . S
C748 C749 1.377 . S
C748 C750 1.384 . S
C749 C748 1.377 . S
C749 C755 1.390 . S
C750 H741 0.930 . S
C750 C748 1.384 . S
C750 C751 1.372 . S
C751 C750 1.372 . S
C751 C752 1.400 . S
C751 C756 1.490 . S
C752 H742 0.930 . S
C752 C751 1.400 . S
C752 C755 1.386 . S
H753 C769 0.930 . S
H754 C770 0.931 . S
C755 H743 0.929 . S
C755 C749 1.390 . S
C755 C752 1.386 . S
C756 C751 1.490 . S
C756 C758 1.395 . S
C756 C759 1.403 . S
H757 C763 0.930 . S
C758 H744 0.930 . S
C758 C756 1.395 . S
C758 C761 1.403 . S
C759 C756 1.403 . S
C759 C760 1.524 . S
C759 C763 1.400 . S
C760 H745 0.960 . S
C760 H746 0.960 . S
C760 H747 0.960 . S
C760 C759 1.524 . S
C761 C758 1.403 . S
C761 C762 1.392 . S
C761 C765 1.495 . S
C762 C761 1.392 . S
C762 C763 1.385 . S
C762 C764 1.478 . S
C763 H757 0.930 . S
C763 C759 1.400 . S
C763 C762 1.385 . S
C764 C762 1.478 . S
C764 C766 1.381 . S
C764 C770 1.383 . S
C765 C761 1.495 . S
C765 H771 0.959 . S
C765 H772 0.961 . S
C765 H773 0.960 . S
C766 C764 1.381 . S
C766 C767 1.394 . S
C766 H774 0.930 . S
C767 C766 1.394 . S
C767 C768 1.383 . S
C767 H775 0.929 . S
C768 C767 1.383 . S
C768 C769 1.377 . S
C769 H753 0.930 . S
C769 C768 1.377 . S
C769 C770 1.379 . S
C770 H754 0.931 . S
C770 C764 1.383 . S
C770 C769 1.379 . S
H771 C765 0.959 . S
H772 C765 0.961 . S
H773 C765 0.960 . S
H774 C766 0.930 . S
H775 C767 0.929 . S
H776 C784 0.929 . S
H777 C786 0.930 . S
H778 C788 0.930 . S
H779 C791 0.929 . S
H780 C794 0.930 . S
H781 C796 0.960 . S
H782 C796 0.960 . S
H783 C796 0.960 . S
C784 H776 0.929 . S
C784 C785 1.377 . S
C784 C786 1.384 . S
C785 C784 1.377 . S
C785 C791 1.390 . S
C786 H777 0.930 . S
C786 C784 1.384 . S
C786 C787 1.372 . S
C787 C786 1.372 . S
C787 C788 1.400 . S
C787 C792 1.490 . S
C788 H778 0.930 . S
C788 C787 1.400 . S
C788 C791 1.386 . S
H789 C805 0.930 . S
H790 C806 0.931 . S
C791 H779 0.929 . S
C791 C785 1.390 . S
C791 C788 1.386 . S
C792 C787 1.490 . S
C792 C794 1.395 . S
C792 C795 1.403 . S
H793 C799 0.930 . S
C794 H780 0.930 . S
C794 C792 1.395 . S
C794 C797 1.403 . S
C795 C792 1.403 . S
C795 C796 1.524 . S
C795 C799 1.400 . S
C796 H781 0.960 . S
C796 H782 0.960 . S
C796 H783 0.960 . S
C796 C795 1.524 . S
C797 C794 1.403 . S
C797 C798 1.392 . S
C797 C801 1.495 . S
C798 C797 1.392 . S
C798 C799 1.385 . S
C798 C800 1.478 . S
C799 H793 0.930 . S
C799 C795 1.400 . S
C799 C798 1.385 . S
C800 C798 1.478 . S
C800 C802 1.381 . S
C800 C806 1.383 . S
C801 C797 1.495 . S
C801 H807 0.959 . S
C801 H808 0.961 . S
C801 H809 0.960 . S
C802 C800 1.381 . S
C802 C803 1.394 . S
C802 H810 0.930 . S
C803 C802 1.394 . S
C803 C804 1.383 . S
C803 H811 0.929 . S
C804 C803 1.383 . S
C804 C805 1.377 . S
C805 H789 0.930 . S
C805 C804 1.377 . S
C805 C806 1.379 . S
C806 H790 0.931 . S
C806 C800 1.383 . S
C806 C805 1.379 . S
H807 C801 0.959 . S
H808 C801 0.961 . S
H809 C801 0.960 . S
H810 C802 0.930 . S
H811 C803 0.929 . S
H812 C820 0.929 . S
H813 C822 0.930 . S
H814 C824 0.930 . S
H815 C827 0.929 . S
H816 C830 0.930 . S
H817 C832 0.960 . S
H818 C832 0.960 . S
H819 C832 0.960 . S
C820 H812 0.929 . S
C820 C821 1.377 . S
C820 C822 1.384 . S
C821 C820 1.377 . S
C821 C827 1.390 . S
C822 H813 0.930 . S
C822 C820 1.384 . S
C822 C823 1.372 . S
C823 C822 1.372 . S
C823 C824 1.400 . S
C823 C828 1.490 . S
C824 H814 0.930 . S
C824 C823 1.400 . S
C824 C827 1.386 . S
H825 C841 0.853 1_556 S
H826 C842 0.931 1_556 S
C827 H815 0.929 . S
C827 C821 1.390 . S
C827 C824 1.386 . S
C828 C823 1.490 . S
C828 C830 1.395 . S
C828 C831 1.403 . S
H829 C835 0.930 . S
C830 H816 0.930 . S
C830 C828 1.395 . S
C830 C833 1.403 . S
C831 C828 1.403 . S
C831 C832 1.524 . S
C831 C835 1.400 . S
C832 H817 0.960 . S
C832 H818 0.960 . S
C832 H819 0.960 . S
C832 C831 1.524 . S
C833 C830 1.403 . S
C833 C834 1.392 . S
C833 C837 1.495 . S
C834 C833 1.392 . S
C834 C835 1.385 . S
C834 C836 1.478 . S
C835 H829 0.930 . S
C835 C831 1.400 . S
C835 C834 1.385 . S
C836 C834 1.478 . S
C836 C838 1.381 . S
C836 C842 1.383 . S
C837 C833 1.495 . S
C837 H843 0.959 . S
C837 H844 0.961 . S
C837 H845 0.960 . S
C838 C836 1.381 . S
C838 C839 1.394 . S
C838 H846 0.930 . S
C839 C838 1.394 . S
C839 C840 1.383 . S
C839 H847 0.929 . S
C840 C839 1.383 . S
C840 C841 1.435 . S
C841 H825 0.853 1_554 S
C841 C840 1.435 . S
C841 C842 1.400 . S
C842 H826 0.931 1_554 S
C842 C836 1.383 . S
C842 C841 1.400 . S
H843 C837 0.959 . S
H844 C837 0.961 . S
H845 C837 0.960 . S
H846 C838 0.930 . S
H847 C839 0.929 . S
H848 C856 0.929 . S
H849 C858 0.930 . S
H850 C860 0.930 . S
H851 C863 0.929 . S
H852 C866 0.930 . S
H853 C868 0.960 . S
H854 C868 0.960 . S
H855 C868 0.960 . S
C856 H848 0.929 . S
C856 C857 1.377 . S
C856 C858 1.384 . S
C857 C856 1.377 . S
C857 C863 1.390 . S
C858 H849 0.930 . S
C858 C856 1.384 . S
C858 C859 1.372 . S
C859 C858 1.372 . S
C859 C860 1.400 . S
C859 C864 1.490 . S
C860 H850 0.930 . S
C860 C859 1.400 . S
C860 C863 1.386 . S
H861 C877 0.930 . S
H862 C878 0.931 . S
C863 H851 0.929 . S
C863 C857 1.390 . S
C863 C860 1.386 . S
C864 C859 1.490 . S
C864 C866 1.395 . S
C864 C867 1.403 . S
H865 C871 0.930 . S
C866 H852 0.930 . S
C866 C864 1.395 . S
C866 C869 1.403 . S
C867 C864 1.403 . S
C867 C868 1.524 . S
C867 C871 1.400 . S
C868 H853 0.960 . S
C868 H854 0.960 . S
C868 H855 0.960 . S
C868 C867 1.524 . S
C869 C866 1.403 . S
C869 C870 1.392 . S
C869 C873 1.495 . S
C870 C869 1.392 . S
C870 C871 1.385 . S
C870 C872 1.478 . S
C871 H865 0.930 . S
C871 C867 1.400 . S
C871 C870 1.385 . S
C872 C870 1.478 . S
C872 C874 1.381 . S
C872 C878 1.383 . S
C873 C869 1.495 . S
C873 H879 0.959 . S
C873 H880 0.961 . S
C873 H881 0.960 . S
C874 C872 1.381 . S
C874 C875 1.394 . S
C874 H882 0.930 . S
C875 C874 1.394 . S
C875 C876 1.383 . S
C875 H883 0.929 . S
C876 C875 1.383 . S
C876 C877 1.377 . S
C877 H861 0.930 . S
C877 C876 1.377 . S
C877 C878 1.379 . S
C878 H862 0.931 . S
C878 C872 1.383 . S
C878 C877 1.379 . S
H879 C873 0.959 . S
H880 C873 0.961 . S
H881 C873 0.960 . S
H882 C874 0.930 . S
H883 C875 0.929 . S
H884 C892 0.929 . S
H885 C894 0.930 . S
H886 C896 0.930 . S
H887 C899 0.929 . S
H888 C902 0.930 . S
H889 C904 0.960 . S
H890 C904 0.960 . S
H891 C904 0.960 . S
C892 H884 0.929 . S
C892 C893 1.377 . S
C892 C894 1.384 . S
C893 C892 1.377 . S
C893 C899 1.390 . S
C894 H885 0.930 . S
C894 C892 1.384 . S
C894 C895 1.372 . S
C895 C894 1.372 . S
C895 C896 1.400 . S
C895 C900 1.490 . S
C896 H886 0.930 . S
C896 C895 1.400 . S
C896 C899 1.386 . S
H897 C913 0.930 . S
H898 C914 0.931 . S
C899 H887 0.929 . S
C899 C893 1.390 . S
C899 C896 1.386 . S
C900 C895 1.490 . S
C900 C902 1.395 . S
C900 C903 1.403 . S
H901 C907 0.930 . S
C902 H888 0.930 . S
C902 C900 1.395 . S
C902 C905 1.403 . S
C903 C900 1.403 . S
C903 C904 1.524 . S
C903 C907 1.400 . S
C904 H889 0.960 . S
C904 H890 0.960 . S
C904 H891 0.960 . S
C904 C903 1.524 . S
C905 C902 1.403 . S
C905 C906 1.392 . S
C905 C909 1.495 . S
C906 C905 1.392 . S
C906 C907 1.385 . S
C906 C908 1.478 . S
C907 H901 0.930 . S
C907 C903 1.400 . S
C907 C906 1.385 . S
C908 C906 1.478 . S
C908 C910 1.381 . S
C908 C914 1.383 . S
C909 C905 1.495 . S
C909 H915 0.959 . S
C909 H916 0.961 . S
C909 H917 0.960 . S
C910 C908 1.381 . S
C910 C911 1.394 . S
C910 H918 0.930 . S
C911 C910 1.394 . S
C911 C912 1.383 . S
C911 H919 0.929 . S
C912 C911 1.383 . S
C912 C913 1.377 . S
C913 H897 0.930 . S
C913 C912 1.377 . S
C913 C914 1.379 . S
C914 H898 0.931 . S
C914 C908 1.383 . S
C914 C913 1.379 . S
H915 C909 0.959 . S
H916 C909 0.961 . S
H917 C909 0.960 . S
H918 C910 0.930 . S
H919 C911 0.929 . S
H920 C928 0.929 . S
H921 C930 0.930 . S
H922 C932 0.930 . S
H923 C935 0.929 . S
H924 C938 0.930 . S
H925 C940 0.960 . S
H926 C940 0.960 . S
H927 C940 0.960 . S
C928 H920 0.929 . S
C928 C929 1.377 . S
C928 C930 1.384 . S
C929 C928 1.377 . S
C929 C935 1.390 . S
C930 H921 0.930 . S
C930 C928 1.384 . S
C930 C931 1.372 . S
C931 C930 1.372 . S
C931 C932 1.400 . S
C931 C936 1.490 . S
C932 H922 0.930 . S
C932 C931 1.400 . S
C932 C935 1.386 . S
H933 C949 0.930 . S
H934 C950 0.931 . S
C935 H923 0.929 . S
C935 C929 1.390 . S
C935 C932 1.386 . S
C936 C931 1.490 . S
C936 C938 1.395 . S
C936 C939 1.403 . S
H937 C943 0.930 . S
C938 H924 0.930 . S
C938 C936 1.395 . S
C938 C941 1.403 . S
C939 C936 1.403 . S
C939 C940 1.524 . S
C939 C943 1.400 . S
C940 H925 0.960 . S
C940 H926 0.960 . S
C940 H927 0.960 . S
C940 C939 1.524 . S
C941 C938 1.403 . S
C941 C942 1.392 . S
C941 C945 1.495 . S
C942 C941 1.392 . S
C942 C943 1.385 . S
C942 C944 1.478 . S
C943 H937 0.930 . S
C943 C939 1.400 . S
C943 C942 1.385 . S
C944 C942 1.478 . S
C944 C946 1.381 . S
C944 C950 1.383 . S
C945 C941 1.495 . S
C945 H951 0.959 . S
C945 H952 0.961 . S
C945 H953 0.960 . S
C946 C944 1.381 . S
C946 C947 1.394 . S
C946 H954 0.930 . S
C947 C946 1.394 . S
C947 C948 1.383 . S
C947 H955 0.929 . S
C948 C947 1.383 . S
C948 C949 1.377 . S
C949 H933 0.930 . S
C949 C948 1.377 . S
C949 C950 1.379 . S
C950 H934 0.931 . S
C950 C944 1.383 . S
C950 C949 1.379 . S
H951 C945 0.959 . S
H952 C945 0.961 . S
H953 C945 0.960 . S
H954 C946 0.930 . S
H955 C947 0.929 . S
H956 C964 0.929 . S
H957 C966 0.930 . S
H958 C968 0.930 . S
H959 C971 0.929 . S
H960 C974 0.930 . S
H961 C976 0.960 . S
H962 C976 0.960 . S
H963 C976 0.960 . S
C964 H956 0.929 . S
C964 C965 1.377 . S
C964 C966 1.384 . S
C965 C964 1.377 . S
C965 C971 1.390 . S
C966 H957 0.930 . S
C966 C964 1.384 . S
C966 C967 1.372 . S
C967 C966 1.372 . S
C967 C968 1.400 . S
C967 C972 1.490 . S
C968 H958 0.930 . S
C968 C967 1.400 . S
C968 C971 1.386 . S
H969 C985 0.930 . S
H970 C986 0.931 . S
C971 H959 0.929 . S
C971 C965 1.390 . S
C971 C968 1.386 . S
C972 C967 1.490 . S
C972 C974 1.395 . S
C972 C975 1.403 . S
H973 C979 0.930 . S
C974 H960 0.930 . S
C974 C972 1.395 . S
C974 C977 1.403 . S
C975 C972 1.403 . S
C975 C976 1.524 . S
C975 C979 1.400 . S
C976 H961 0.960 . S
C976 H962 0.960 . S
C976 H963 0.960 . S
C976 C975 1.524 . S
C977 C974 1.403 . S
C977 C978 1.392 . S
C977 C981 1.495 . S
C978 C977 1.392 . S
C978 C979 1.385 . S
C978 C980 1.478 . S
C979 H973 0.930 . S
C979 C975 1.400 . S
C979 C978 1.385 . S
C980 C978 1.478 . S
C980 C982 1.381 . S
C980 C986 1.383 . S
C981 C977 1.495 . S
C981 H987 0.959 . S
C981 H988 0.961 . S
C981 H989 0.960 . S
C982 C980 1.381 . S
C982 C983 1.394 . S
C982 H990 0.930 . S
C983 C982 1.394 . S
C983 C984 1.383 . S
C983 H991 0.929 . S
C984 C983 1.383 . S
C984 C985 1.377 . S
C985 H969 0.930 . S
C985 C984 1.377 . S
C985 C986 1.379 . S
C986 H970 0.931 . S
C986 C980 1.383 . S
C986 C985 1.379 . S
H987 C981 0.959 . S
H988 C981 0.961 . S
H989 C981 0.960 . S
H990 C982 0.930 . S
H991 C983 0.929 . S
H992 C1000 0.929 . S
H993 C1002 0.930 . S
H994 C1004 0.930 . S
H995 C1007 0.929 . S
H996 C1010 0.930 . S
H997 C1012 0.974 . S
H998 C1012 0.952 1_556 S
H999 C1012 0.967 . S
C1000 H992 0.929 . S
C1000 C1001 1.377 . S
C1000 C1002 1.384 . S
C1001 C1000 1.377 . S
C1001 C1007 1.390 . S
C1002 H993 0.930 . S
C1002 C1000 1.384 . S
C1002 C1003 1.372 . S
C1003 C1002 1.372 . S
C1003 C1004 1.400 . S
C1003 C1008 1.490 . S
C1004 H994 0.930 . S
C1004 C1003 1.400 . S
C1004 C1007 1.386 . S
H1005 C1021 0.930 . S
H1006 C1022 0.931 1_554 S
C1007 H995 0.929 . S
C1007 C1001 1.390 . S
C1007 C1004 1.386 . S
C1008 C1003 1.490 . S
C1008 C1010 1.395 . S
C1008 C1011 1.403 . S
H1009 C1015 0.936 1_554 S
C1010 H996 0.930 . S
C1010 C1008 1.395 . S
C1010 C1013 1.403 . S
C1011 C1008 1.403 . S
C1011 C1012 1.511 1_556 S
C1011 C1015 1.400 . S
C1012 H997 0.974 . S
C1012 H998 0.952 1_554 S
C1012 H999 0.967 . S
C1012 C1011 1.511 1_554 S
C1013 C1010 1.403 . S
C1013 C1014 1.392 . S
C1013 C1017 1.495 . S
C1014 C1013 1.392 . S
C1014 C1015 1.385 . S
C1014 C1016 1.478 . S
C1015 H1009 0.936 1_556 S
C1015 C1011 1.400 . S
C1015 C1014 1.385 . S
C1016 C1014 1.478 . S
C1016 C1018 1.381 . S
C1016 C1022 1.383 . S
C1017 C1013 1.495 . S
C1017 H1023 0.959 . S
C1017 H1024 0.961 . S
C1017 H1025 0.960 . S
C1018 C1016 1.381 . S
C1018 C1019 1.394 . S
C1018 H1026 0.930 . S
C1019 C1018 1.394 . S
C1019 C1020 1.383 . S
C1019 H1027 0.929 . S
C1020 C1019 1.383 . S
C1020 C1021 1.377 1_556 S
C1021 H1005 0.930 . S
C1021 C1020 1.377 1_554 S
C1021 C1022 1.379 1_554 S
C1022 H1006 0.931 1_556 S
C1022 C1016 1.383 . S
C1022 C1021 1.379 1_556 S
H1023 C1017 0.959 . S
H1024 C1017 0.961 . S
H1025 C1017 0.960 . S
H1026 C1018 0.930 . S
H1027 C1019 0.929 . S
H1028 C1036 0.929 . S
H1029 C1038 0.930 . S
H1030 C1040 0.930 . S
H1031 C1043 0.929 . S
H1032 C1046 0.930 . S
H1033 C1048 0.960 . S
H1034 C1048 0.960 . S
H1035 C1048 0.960 . S
C1036 H1028 0.929 . S
C1036 C1037 1.377 . S
C1036 C1038 1.384 . S
C1037 C1036 1.377 . S
C1037 C1043 1.390 . S
C1038 H1029 0.930 . S
C1038 C1036 1.384 . S
C1038 C1039 1.372 . S
C1039 C1038 1.372 . S
C1039 C1040 1.400 . S
C1039 C1044 1.490 . S
C1040 H1030 0.930 . S
C1040 C1039 1.400 . S
C1040 C1043 1.386 . S
H1041 C1057 0.930 . S
H1042 C1058 0.931 . S
C1043 H1031 0.929 . S
C1043 C1037 1.390 . S
C1043 C1040 1.386 . S
C1044 C1039 1.490 . S
C1044 C1046 1.395 . S
C1044 C1047 1.403 . S
H1045 C1051 0.930 . S
C1046 H1032 0.930 . S
C1046 C1044 1.395 . S
C1046 C1049 1.403 . S
C1047 C1044 1.403 . S
C1047 C1048 1.524 . S
C1047 C1051 1.400 . S
C1048 H1033 0.960 . S
C1048 H1034 0.960 . S
C1048 H1035 0.960 . S
C1048 C1047 1.524 . S
C1049 C1046 1.403 . S
C1049 C1050 1.392 . S
C1049 C1053 1.495 . S
C1050 C1049 1.392 . S
C1050 C1051 1.385 . S
C1050 C1052 1.478 . S
C1051 H1045 0.930 . S
C1051 C1047 1.400 . S
C1051 C1050 1.385 . S
C1052 C1050 1.478 . S
C1052 C1054 1.381 . S
C1052 C1058 1.383 . S
C1053 C1049 1.495 . S
C1053 H1059 0.959 . S
C1053 H1060 0.961 . S
C1053 H1061 0.960 . S
C1054 C1052 1.381 . S
C1054 C1055 1.394 . S
C1054 H1062 0.930 . S
C1055 C1054 1.394 . S
C1055 C1056 1.383 . S
C1055 H1063 0.929 . S
C1056 C1055 1.383 . S
C1056 C1057 1.377 . S
C1057 H1041 0.930 . S
C1057 C1056 1.377 . S
C1057 C1058 1.379 . S
C1058 H1042 0.931 . S
C1058 C1052 1.383 . S
C1058 C1057 1.379 . S
H1059 C1053 0.959 . S
H1060 C1053 0.961 . S
H1061 C1053 0.960 . S
H1062 C1054 0.930 . S
H1063 C1055 0.929 . S
H1064 C1072 0.929 . S
H1065 C1074 0.930 . S
H1066 C1076 0.930 . S
H1067 C1079 0.929 . S
H1068 C1082 0.930 . S
H1069 C1084 0.960 . S
H1070 C1084 0.960 . S
H1071 C1084 0.960 . S
C1072 H1064 0.929 . S
C1072 C1073 1.377 . S
C1072 C1074 1.384 . S
C1073 C1072 1.377 . S
C1073 C1079 1.390 . S
C1074 H1065 0.930 . S
C1074 C1072 1.384 . S
C1074 C1075 1.372 . S
C1075 C1074 1.372 . S
C1075 C1076 1.400 . S
C1075 C1080 1.490 . S
C1076 H1066 0.930 . S
C1076 C1075 1.400 . S
C1076 C1079 1.386 . S
H1077 C1093 0.930 . S
H1078 C1094 0.931 . S
C1079 H1067 0.929 . S
C1079 C1073 1.390 . S
C1079 C1076 1.386 . S
C1080 C1075 1.490 . S
C1080 C1082 1.395 . S
C1080 C1083 1.403 . S
H1081 C1087 0.930 . S
C1082 H1068 0.930 . S
C1082 C1080 1.395 . S
C1082 C1085 1.403 . S
C1083 C1080 1.403 . S
C1083 C1084 1.524 . S
C1083 C1087 1.400 . S
C1084 H1069 0.960 . S
C1084 H1070 0.960 . S
C1084 H1071 0.960 . S
C1084 C1083 1.524 . S
C1085 C1082 1.403 . S
C1085 C1086 1.392 . S
C1085 C1089 1.495 . S
C1086 C1085 1.392 . S
C1086 C1087 1.385 . S
C1086 C1088 1.478 . S
C1087 H1081 0.930 . S
C1087 C1083 1.400 . S
C1087 C1086 1.385 . S
C1088 C1086 1.478 . S
C1088 C1090 1.381 . S
C1088 C1094 1.383 . S
C1089 C1085 1.495 . S
C1089 H1095 0.959 . S
C1089 H1096 0.961 . S
C1089 H1097 0.960 . S
C1090 C1088 1.381 . S
C1090 C1091 1.394 . S
C1090 H1098 0.930 . S
C1091 C1090 1.394 . S
C1091 C1092 1.383 . S
C1091 H1099 0.929 . S
C1092 C1091 1.383 . S
C1092 C1093 1.377 . S
C1093 H1077 0.930 . S
C1093 C1092 1.377 . S
C1093 C1094 1.379 . S
C1094 H1078 0.931 . S
C1094 C1088 1.383 . S
C1094 C1093 1.379 . S
H1095 C1089 0.959 . S
H1096 C1089 0.961 . S
H1097 C1089 0.960 . S
H1098 C1090 0.930 . S
H1099 C1091 0.929 . S
H1100 C1108 0.929 . S
H1101 C1110 0.930 . S
H1102 C1112 0.930 . S
H1103 C1115 0.929 . S
H1104 C1118 0.930 . S
H1105 C1120 0.960 . S
H1106 C1120 0.960 . S
H1107 C1120 0.960 . S
C1108 H1100 0.929 . S
C1108 C1109 1.377 . S
C1108 C1110 1.384 . S
C1109 C1108 1.377 . S
C1109 C1115 1.390 . S
C1110 H1101 0.930 . S
C1110 C1108 1.384 . S
C1110 C1111 1.372 . S
C1111 C1110 1.372 . S
C1111 C1112 1.400 . S
C1111 C1116 1.490 . S
C1112 H1102 0.930 . S
C1112 C1111 1.400 . S
C1112 C1115 1.386 . S
H1113 C1129 0.930 . S
H1114 C1130 0.931 . S
C1115 H1103 0.929 . S
C1115 C1109 1.390 . S
C1115 C1112 1.386 . S
C1116 C1111 1.490 . S
C1116 C1118 1.395 . S
C1116 C1119 1.403 . S
H1117 C1123 0.930 . S
C1118 H1104 0.930 . S
C1118 C1116 1.395 . S
C1118 C1121 1.403 . S
C1119 C1116 1.403 . S
C1119 C1120 1.524 . S
C1119 C1123 1.400 . S
C1120 H1105 0.960 . S
C1120 H1106 0.960 . S
C1120 H1107 0.960 . S
C1120 C1119 1.524 . S
C1121 C1118 1.403 . S
C1121 C1122 1.392 . S
C1121 C1125 1.495 . S
C1122 C1121 1.392 . S
C1122 C1123 1.385 . S
C1122 C1124 1.478 . S
C1123 H1117 0.930 . S
C1123 C1119 1.400 . S
C1123 C1122 1.385 . S
C1124 C1122 1.478 . S
C1124 C1126 1.381 . S
C1124 C1130 1.383 . S
C1125 C1121 1.495 . S
C1125 H1131 0.959 . S
C1125 H1132 0.961 . S
C1125 H1133 0.960 . S
C1126 C1124 1.381 . S
C1126 C1127 1.394 . S
C1126 H1134 0.930 . S
C1127 C1126 1.394 . S
C1127 C1128 1.383 . S
C1127 H1135 0.929 . S
C1128 C1127 1.383 . S
C1128 C1129 1.377 . S
C1129 H1113 0.930 . S
C1129 C1128 1.377 . S
C1129 C1130 1.379 . S
C1130 H1114 0.931 . S
C1130 C1124 1.383 . S
C1130 C1129 1.379 . S
H1131 C1125 0.959 . S
H1132 C1125 0.961 . S
H1133 C1125 0.960 . S
H1134 C1126 0.930 . S
H1135 C1127 0.929 . S
H1136 C1144 0.929 . S
H1137 C1146 0.930 . S
H1138 C1148 0.930 . S
H1139 C1151 0.929 . S
H1140 C1154 0.930 . S
H1141 C1156 0.960 . S
H1142 C1156 0.960 . S
H1143 C1156 0.960 . S
C1144 H1136 0.929 . S
C1144 C1145 1.377 . S
C1144 C1146 1.384 . S
C1145 C1144 1.377 . S
C1145 C1151 1.390 . S
C1146 H1137 0.930 . S
C1146 C1144 1.384 . S
C1146 C1147 1.372 . S
C1147 C1146 1.372 . S
C1147 C1148 1.400 . S
C1147 C1152 1.490 . S
C1148 H1138 0.930 . S
C1148 C1147 1.400 . S
C1148 C1151 1.386 . S
H1149 C1165 0.930 . S
H1150 C1166 0.931 . S
C1151 H1139 0.929 . S
C1151 C1145 1.390 . S
C1151 C1148 1.386 . S
C1152 C1147 1.490 . S
C1152 C1154 1.395 . S
C1152 C1155 1.403 . S
H1153 C1159 0.930 . S
C1154 H1140 0.930 . S
C1154 C1152 1.395 . S
C1154 C1157 1.403 . S
C1155 C1152 1.403 . S
C1155 C1156 1.524 . S
C1155 C1159 1.400 . S
C1156 H1141 0.960 . S
C1156 H1142 0.960 . S
C1156 H1143 0.960 . S
C1156 C1155 1.524 . S
C1157 C1154 1.403 . S
C1157 C1158 1.392 . S
C1157 C1161 1.495 . S
C1158 C1157 1.392 . S
C1158 C1159 1.385 . S
C1158 C1160 1.478 . S
C1159 H1153 0.930 . S
C1159 C1155 1.400 . S
C1159 C1158 1.385 . S
C1160 C1158 1.478 . S
C1160 C1162 1.381 . S
C1160 C1166 1.383 . S
C1161 C1157 1.495 . S
C1161 H1167 0.959 . S
C1161 H1168 0.961 . S
C1161 H1169 0.960 . S
C1162 C1160 1.381 . S
C1162 C1163 1.394 . S
C1162 H1170 0.930 . S
C1163 C1162 1.394 . S
C1163 C1164 1.383 . S
C1163 H1171 0.929 . S
C1164 C1163 1.383 . S
C1164 C1165 1.377 . S
C1165 H1149 0.930 . S
C1165 C1164 1.377 . S
C1165 C1166 1.379 . S
C1166 H1150 0.931 . S
C1166 C1160 1.383 . S
C1166 C1165 1.379 . S
H1167 C1161 0.959 . S
H1168 C1161 0.961 . S
H1169 C1161 0.960 . S
H1170 C1162 0.930 . S
H1171 C1163 0.929 . S
H1172 C1180 0.929 . S
H1173 C1182 0.930 . S
H1174 C1184 0.930 . S
H1175 C1187 0.929 . S
H1176 C1190 0.930 . S
H1177 C1192 0.960 . S
H1178 C1192 0.960 . S
H1179 C1192 0.960 . S
C1180 H1172 0.929 . S
C1180 C1181 1.377 . S
C1180 C1182 1.384 . S
C1181 C1180 1.377 . S
C1181 C1187 1.390 . S
C1182 H1173 0.930 . S
C1182 C1180 1.384 . S
C1182 C1183 1.372 . S
C1183 C1182 1.372 . S
C1183 C1184 1.400 . S
C1183 C1188 1.490 . S
C1184 H1174 0.930 . S
C1184 C1183 1.400 . S
C1184 C1187 1.386 . S
H1185 C1201 0.930 . S
H1186 C1202 0.931 . S
C1187 H1175 0.929 . S
C1187 C1181 1.390 . S
C1187 C1184 1.386 . S
C1188 C1183 1.490 . S
C1188 C1190 1.395 . S
C1188 C1191 1.403 . S
H1189 C1195 0.930 . S
C1190 H1176 0.930 . S
C1190 C1188 1.395 . S
C1190 C1193 1.403 . S
C1191 C1188 1.403 . S
C1191 C1192 1.524 . S
C1191 C1195 1.400 . S
C1192 H1177 0.960 . S
C1192 H1178 0.960 . S
C1192 H1179 0.960 . S
C1192 C1191 1.524 . S
C1193 C1190 1.403 . S
C1193 C1194 1.392 . S
C1193 C1197 1.495 . S
C1194 C1193 1.392 . S
C1194 C1195 1.385 . S
C1194 C1196 1.478 . S
C1195 H1189 0.930 . S
C1195 C1191 1.400 . S
C1195 C1194 1.385 . S
C1196 C1194 1.478 . S
C1196 C1198 1.381 . S
C1196 C1202 1.383 . S
C1197 C1193 1.495 . S
C1197 H1203 0.959 . S
C1197 H1204 0.961 . S
C1197 H1205 0.960 . S
C1198 C1196 1.381 . S
C1198 C1199 1.394 . S
C1198 H1206 0.930 . S
C1199 C1198 1.394 . S
C1199 C1200 1.383 . S
C1199 H1207 0.929 . S
C1200 C1199 1.383 . S
C1200 C1201 1.377 . S
C1201 H1185 0.930 . S
C1201 C1200 1.377 . S
C1201 C1202 1.379 . S
C1202 H1186 0.931 . S
C1202 C1196 1.383 . S
C1202 C1201 1.379 . S
H1203 C1197 0.959 . S
H1204 C1197 0.961 . S
H1205 C1197 0.960 . S
H1206 C1198 0.930 . S
H1207 C1199 0.929 . S
H1208 C1216 0.929 . S
H1209 C1218 0.930 . S
H1210 C1220 0.930 . S
H1211 C1223 0.929 . S
H1212 C1226 0.930 . S
H1213 C1228 0.960 . S
H1214 C1228 0.960 . S
H1215 C1228 0.960 . S
C1216 H1208 0.929 . S
C1216 C1217 1.377 . S
C1216 C1218 1.384 . S
C1217 C1216 1.377 . S
C1217 C1223 1.390 . S
C1218 H1209 0.930 . S
C1218 C1216 1.384 . S
C1218 C1219 1.372 . S
C1219 C1218 1.372 . S
C1219 C1220 1.400 . S
C1219 C1224 1.490 . S
C1220 H1210 0.930 . S
C1220 C1219 1.400 . S
C1220 C1223 1.386 . S
H1221 C1237 0.930 . S
H1222 C1238 0.931 . S
C1223 H1211 0.929 . S
C1223 C1217 1.390 . S
C1223 C1220 1.386 . S
C1224 C1219 1.490 . S
C1224 C1226 1.395 . S
C1224 C1227 1.403 . S
H1225 C1231 0.930 . S
C1226 H1212 0.930 . S
C1226 C1224 1.395 . S
C1226 C1229 1.403 . S
C1227 C1224 1.403 . S
C1227 C1228 1.524 . S
C1227 C1231 1.400 . S
C1228 H1213 0.960 . S
C1228 H1214 0.960 . S
C1228 H1215 0.960 . S
C1228 C1227 1.524 . S
C1229 C1226 1.403 . S
C1229 C1230 1.392 . S
C1229 C1233 1.495 . S
C1230 C1229 1.392 . S
C1230 C1231 1.385 . S
C1230 C1232 1.478 . S
C1231 H1225 0.930 . S
C1231 C1227 1.400 . S
C1231 C1230 1.385 . S
C1232 C1230 1.478 . S
C1232 C1234 1.381 . S
C1232 C1238 1.383 . S
C1233 C1229 1.495 . S
C1233 H1239 0.959 . S
C1233 H1240 0.961 . S
C1233 H1241 0.960 . S
C1234 C1232 1.381 . S
C1234 C1235 1.394 . S
C1234 H1242 0.930 . S
C1235 C1234 1.394 . S
C1235 C1236 1.383 . S
C1235 H1243 0.929 . S
C1236 C1235 1.383 . S
C1236 C1237 1.377 . S
C1237 H1221 0.930 . S
C1237 C1236 1.377 . S
C1237 C1238 1.379 . S
C1238 H1222 0.931 . S
C1238 C1232 1.383 . S
C1238 C1237 1.379 . S
H1239 C1233 0.959 . S
H1240 C1233 0.961 . S
H1241 C1233 0.960 . S
H1242 C1234 0.930 . S
H1243 C1235 0.929 . S
H1244 C1252 0.929 . S
H1245 C1254 0.930 . S
H1246 C1256 0.930 . S
H1247 C1259 0.929 . S
H1248 C1262 0.930 . S
H1249 C1264 0.960 . S
H1250 C1264 0.960 . S
H1251 C1264 0.960 . S
C1252 H1244 0.929 . S
C1252 C1253 1.377 . S
C1252 C1254 1.384 . S
C1253 C1252 1.377 . S
C1253 C1259 1.390 . S
C1254 H1245 0.930 . S
C1254 C1252 1.384 . S
C1254 C1255 1.372 . S
C1255 C1254 1.372 . S
C1255 C1256 1.400 . S
C1255 C1260 1.490 . S
C1256 H1246 0.930 . S
C1256 C1255 1.400 . S
C1256 C1259 1.386 . S
H1257 C1273 0.930 . S
H1258 C1274 0.931 . S
C1259 H1247 0.929 . S
C1259 C1253 1.390 . S
C1259 C1256 1.386 . S
C1260 C1255 1.490 . S
C1260 C1262 1.395 . S
C1260 C1263 1.403 . S
H1261 C1267 0.930 . S
C1262 H1248 0.930 . S
C1262 C1260 1.395 . S
C1262 C1265 1.403 . S
C1263 C1260 1.403 . S
C1263 C1264 1.524 . S
C1263 C1267 1.400 . S
C1264 H1249 0.960 . S
C1264 H1250 0.960 . S
C1264 H1251 0.960 . S
C1264 C1263 1.524 . S
C1265 C1262 1.403 . S
C1265 C1266 1.392 . S
C1265 C1269 1.495 . S
C1266 C1265 1.392 . S
C1266 C1267 1.385 . S
C1266 C1268 1.478 . S
C1267 H1261 0.930 . S
C1267 C1263 1.400 . S
C1267 C1266 1.385 . S
C1268 C1266 1.478 . S
C1268 C1270 1.381 . S
C1268 C1274 1.383 . S
C1269 C1265 1.495 . S
C1269 H1275 0.959 . S
C1269 H1276 0.961 . S
C1269 H1277 0.960 . S
C1270 C1268 1.381 . S
C1270 C1271 1.394 . S
C1270 H1278 0.930 . S
C1271 C1270 1.394 . S
C1271 C1272 1.383 . S
C1271 H1279 0.929 . S
C1272 C1271 1.383 . S
C1272 C1273 1.377 . S
C1273 H1257 0.930 . S
C1273 C1272 1.377 . S
C1273 C1274 1.379 . S
C1274 H1258 0.931 . S
C1274 C1268 1.383 . S
C1274 C1273 1.379 . S
H1275 C1269 0.959 . S
H1276 C1269 0.961 . S
H1277 C1269 0.960 . S
H1278 C1270 0.930 . S
H1279 C1271 0.929 . S
H1280 C1288 0.929 . S
H1281 C1290 0.930 . S
H1282 C1292 0.930 . S
H1283 C1295 0.929 . S
H1284 C1298 0.930 . S
H1285 C1300 0.960 . S
H1286 C1300 0.960 . S
H1287 C1300 0.960 . S
C1288 H1280 0.929 . S
C1288 C1289 1.377 . S
C1288 C1290 1.384 . S
C1289 C1288 1.377 . S
C1289 C1295 1.390 . S
C1290 H1281 0.930 . S
C1290 C1288 1.384 . S
C1290 C1291 1.372 . S
C1291 C1290 1.372 . S
C1291 C1292 1.400 . S
C1291 C1296 1.490 . S
C1292 H1282 0.930 . S
C1292 C1291 1.400 . S
C1292 C1295 1.386 . S
H1293 C1309 0.930 . S
H1294 C1310 0.931 . S
C1295 H1283 0.929 . S
C1295 C1289 1.390 . S
C1295 C1292 1.386 . S
C1296 C1291 1.490 . S
C1296 C1298 1.395 . S
C1296 C1299 1.403 . S
H1297 C1303 0.930 . S
C1298 H1284 0.930 . S
C1298 C1296 1.395 . S
C1298 C1301 1.403 . S
C1299 C1296 1.403 . S
C1299 C1300 1.524 . S
C1299 C1303 1.400 . S
C1300 H1285 0.960 . S
C1300 H1286 0.960 . S
C1300 H1287 0.960 . S
C1300 C1299 1.524 . S
C1301 C1298 1.403 . S
C1301 C1302 1.392 . S
C1301 C1305 1.495 . S
C1302 C1301 1.392 . S
C1302 C1303 1.385 . S
C1302 C1304 1.478 . S
C1303 H1297 0.930 . S
C1303 C1299 1.400 . S
C1303 C1302 1.385 . S
C1304 C1302 1.478 . S
C1304 C1306 1.381 . S
C1304 C1310 1.383 . S
C1305 C1301 1.495 . S
C1305 H1311 0.959 . S
C1305 H1312 0.961 . S
C1305 H1313 0.960 . S
C1306 C1304 1.381 . S
C1306 C1307 1.394 . S
C1306 H1314 0.930 . S
C1307 C1306 1.394 . S
C1307 C1308 1.383 . S
C1307 H1315 0.929 . S
C1308 C1307 1.383 . S
C1308 C1309 1.377 . S
C1309 H1293 0.930 . S
C1309 C1308 1.377 . S
C1309 C1310 1.379 . S
C1310 H1294 0.931 . S
C1310 C1304 1.383 . S
C1310 C1309 1.379 . S
H1311 C1305 0.959 . S
H1312 C1305 0.961 . S
H1313 C1305 0.960 . S
H1314 C1306 0.930 . S
H1315 C1307 0.929 . S
H1316 C1324 0.929 . S
H1317 C1326 0.930 . S
H1318 C1328 0.930 . S
H1319 C1331 0.929 . S
H1320 C1334 0.930 . S
H1321 C1336 0.960 . S
H1322 C1336 0.960 . S
H1323 C1336 0.960 . S
C1324 H1316 0.929 . S
C1324 C1325 1.377 . S
C1324 C1326 1.384 . S
C1325 C1324 1.377 . S
C1325 C1331 1.390 . S
C1326 H1317 0.930 . S
C1326 C1324 1.384 . S
C1326 C1327 1.372 . S
C1327 C1326 1.372 . S
C1327 C1328 1.400 . S
C1327 C1332 1.490 . S
C1328 H1318 0.930 . S
C1328 C1327 1.400 . S
C1328 C1331 1.386 . S
H1329 C1345 0.930 . S
H1330 C1346 0.931 . S
C1331 H1319 0.929 . S
C1331 C1325 1.390 . S
C1331 C1328 1.386 . S
C1332 C1327 1.490 . S
C1332 C1334 1.395 . S
C1332 C1335 1.403 . S
H1333 C1339 0.930 . S
C1334 H1320 0.930 . S
C1334 C1332 1.395 . S
C1334 C1337 1.403 . S
C1335 C1332 1.403 . S
C1335 C1336 1.524 . S
C1335 C1339 1.400 . S
C1336 H1321 0.960 . S
C1336 H1322 0.960 . S
C1336 H1323 0.960 . S
C1336 C1335 1.524 . S
C1337 C1334 1.403 . S
C1337 C1338 1.392 . S
C1337 C1341 1.495 . S
C1338 C1337 1.392 . S
C1338 C1339 1.385 . S
C1338 C1340 1.478 . S
C1339 H1333 0.930 . S
C1339 C1335 1.400 . S
C1339 C1338 1.385 . S
C1340 C1338 1.478 . S
C1340 C1342 1.381 . S
C1340 C1346 1.383 . S
C1341 C1337 1.495 . S
C1341 H1347 0.959 . S
C1341 H1348 0.961 . S
C1341 H1349 0.960 . S
C1342 C1340 1.381 . S
C1342 C1343 1.394 . S
C1342 H1350 0.930 . S
C1343 C1342 1.394 . S
C1343 C1344 1.383 . S
C1343 H1351 0.929 . S
C1344 C1343 1.383 . S
C1344 C1345 1.377 . S
C1345 H1329 0.930 . S
C1345 C1344 1.377 . S
C1345 C1346 1.379 . S
C1346 H1330 0.931 . S
C1346 C1340 1.383 . S
C1346 C1345 1.379 . S
H1347 C1341 0.959 . S
H1348 C1341 0.961 . S
H1349 C1341 0.960 . S
H1350 C1342 0.930 . S
H1351 C1343 0.929 . S
H1352 C1360 0.929 . S
H1353 C1362 0.930 . S
H1354 C1364 0.930 . S
H1355 C1367 0.929 . S
H1356 C1370 0.930 . S
H1357 C1372 0.960 . S
H1358 C1372 0.960 . S
H1359 C1372 0.960 . S
C1360 H1352 0.929 . S
C1360 C1361 1.377 . S
C1360 C1362 1.384 . S
C1361 C1360 1.377 . S
C1361 C1367 1.390 . S
C1362 H1353 0.930 . S
C1362 C1360 1.384 . S
C1362 C1363 1.372 . S
C1363 C1362 1.372 . S
C1363 C1364 1.400 . S
C1363 C1368 1.490 . S
C1364 H1354 0.930 . S
C1364 C1363 1.400 . S
C1364 C1367 1.386 . S
H1365 C1381 0.930 . S
H1366 C1382 0.931 . S
C1367 H1355 0.929 . S
C1367 C1361 1.390 . S
C1367 C1364 1.386 . S
C1368 C1363 1.490 . S
C1368 C1370 1.395 . S
C1368 C1371 1.403 . S
H1369 C1375 0.930 . S
C1370 H1356 0.930 . S
C1370 C1368 1.395 . S
C1370 C1373 1.403 . S
C1371 C1368 1.403 . S
C1371 C1372 1.524 . S
C1371 C1375 1.400 . S
C1372 H1357 0.960 . S
C1372 H1358 0.960 . S
C1372 H1359 0.960 . S
C1372 C1371 1.524 . S
C1373 C1370 1.403 . S
C1373 C1374 1.392 . S
C1373 C1377 1.495 . S
C1374 C1373 1.392 . S
C1374 C1375 1.385 . S
C1374 C1376 1.478 . S
C1375 H1369 0.930 . S
C1375 C1371 1.400 . S
C1375 C1374 1.385 . S
C1376 C1374 1.478 . S
C1376 C1378 1.381 . S
C1376 C1382 1.383 . S
C1377 C1373 1.495 . S
C1377 H1383 0.959 . S
C1377 H1384 0.961 . S
C1377 H1385 0.960 . S
C1378 C1376 1.381 . S
C1378 C1379 1.394 . S
C1378 H1386 0.930 . S
C1379 C1378 1.394 . S
C1379 C1380 1.383 . S
C1379 H1387 0.929 . S
C1380 C1379 1.383 . S
C1380 C1381 1.377 . S
C1381 H1365 0.930 . S
C1381 C1380 1.377 . S
C1381 C1382 1.379 . S
C1382 H1366 0.931 . S
C1382 C1376 1.383 . S
C1382 C1381 1.379 . S
H1383 C1377 0.959 . S
H1384 C1377 0.961 . S
H1385 C1377 0.960 . S
H1386 C1378 0.930 . S
H1387 C1379 0.929 . S
H1388 C1396 0.929 . S
H1389 C1398 0.930 . S
H1390 C1400 0.930 . S
H1391 C1403 0.929 . S
H1392 C1406 0.930 . S
H1393 C1408 0.960 . S
H1394 C1408 0.960 . S
H1395 C1408 0.960 . S
C1396 H1388 0.929 . S
C1396 C1397 1.377 . S
C1396 C1398 1.384 . S
C1397 C1396 1.377 . S
C1397 C1403 1.390 . S
C1398 H1389 0.930 . S
C1398 C1396 1.384 . S
C1398 C1399 1.372 . S
C1399 C1398 1.372 . S
C1399 C1400 1.400 . S
C1399 C1404 1.490 . S
C1400 H1390 0.930 . S
C1400 C1399 1.400 . S
C1400 C1403 1.386 . S
H1401 C1417 0.930 . S
H1402 C1418 0.931 . S
C1403 H1391 0.929 . S
C1403 C1397 1.390 . S
C1403 C1400 1.386 . S
C1404 C1399 1.490 . S
C1404 C1406 1.395 . S
C1404 C1407 1.403 . S
H1405 C1411 0.930 . S
C1406 H1392 0.930 . S
C1406 C1404 1.395 . S
C1406 C1409 1.403 . S
C1407 C1404 1.403 . S
C1407 C1408 1.524 . S
C1407 C1411 1.400 . S
C1408 H1393 0.960 . S
C1408 H1394 0.960 . S
C1408 H1395 0.960 . S
C1408 C1407 1.524 . S
C1409 C1406 1.403 . S
C1409 C1410 1.392 . S
C1409 C1413 1.495 . S
C1410 C1409 1.392 . S
C1410 C1411 1.385 . S
C1410 C1412 1.478 . S
C1411 H1405 0.930 . S
C1411 C1407 1.400 . S
C1411 C1410 1.385 . S
C1412 C1410 1.478 . S
C1412 C1414 1.381 . S
C1412 C1418 1.383 . S
C1413 C1409 1.495 . S
C1413 H1419 0.959 . S
C1413 H1420 0.961 . S
C1413 H1421 0.960 . S
C1414 C1412 1.381 . S
C1414 C1415 1.394 . S
C1414 H1422 0.930 . S
C1415 C1414 1.394 . S
C1415 C1416 1.383 . S
C1415 H1423 0.929 . S
C1416 C1415 1.383 . S
C1416 C1417 1.377 . S
C1417 H1401 0.930 . S
C1417 C1416 1.377 . S
C1417 C1418 1.379 . S
C1418 H1402 0.931 . S
C1418 C1412 1.383 . S
C1418 C1417 1.379 . S
H1419 C1413 0.959 . S
H1420 C1413 0.961 . S
H1421 C1413 0.960 . S
H1422 C1414 0.930 . S
H1423 C1415 0.929 . S
H1424 C1432 0.929 . S
H1425 C1434 0.930 . S
H1426 C1436 0.930 . S
H1427 C1439 0.929 . S
H1428 C1442 0.930 . S
H1429 C1444 0.960 . S
H1430 C1444 0.960 . S
H1431 C1444 0.960 . S
C1432 H1424 0.929 . S
C1432 C1433 1.377 . S
C1432 C1434 1.384 . S
C1433 C1432 1.377 . S
C1433 C1439 1.390 . S
C1434 H1425 0.930 . S
C1434 C1432 1.384 . S
C1434 C1435 1.372 . S
C1435 C1434 1.372 . S
C1435 C1436 1.400 . S
C1435 C1440 1.490 . S
C1436 H1426 0.930 . S
C1436 C1435 1.400 . S
C1436 C1439 1.386 . S
H1437 C1453 0.930 . S
H1438 C1454 0.931 . S
C1439 H1427 0.929 . S
C1439 C1433 1.390 . S
C1439 C1436 1.386 . S
C1440 C1435 1.490 . S
C1440 C1442 1.395 . S
C1440 C1443 1.403 . S
H1441 C1447 0.930 . S
C1442 H1428 0.930 . S
C1442 C1440 1.395 . S
C1442 C1445 1.403 . S
C1443 C1440 1.403 . S
C1443 C1444 1.524 . S
C1443 C1447 1.400 . S
C1444 H1429 0.960 . S
C1444 H1430 0.960 . S
C1444 H1431 0.960 . S
C1444 C1443 1.524 . S
C1445 C1442 1.403 . S
C1445 C1446 1.392 . S
C1445 C1449 1.495 . S
C1446 C1445 1.392 . S
C1446 C1447 1.385 . S
C1446 C1448 1.478 . S
C1447 H1441 0.930 . S
C1447 C1443 1.400 . S
C1447 C1446 1.385 . S
C1448 C1446 1.478 . S
C1448 C1450 1.381 . S
C1448 C1454 1.383 . S
C1449 C1445 1.495 . S
C1449 H1455 0.959 . S
C1449 H1456 0.961 . S
C1449 H1457 0.960 . S
C1450 C1448 1.381 . S
C1450 C1451 1.394 . S
C1450 H1458 0.930 . S
C1451 C1450 1.394 . S
C1451 C1452 1.383 . S
C1451 H1459 0.929 . S
C1452 C1451 1.383 . S
C1452 C1453 1.377 . S
C1453 H1437 0.930 . S
C1453 C1452 1.377 . S
C1453 C1454 1.379 . S
C1454 H1438 0.931 . S
C1454 C1448 1.383 . S
C1454 C1453 1.379 . S
H1455 C1449 0.959 . S
H1456 C1449 0.961 . S
H1457 C1449 0.960 . S
H1458 C1450 0.930 . S
H1459 C1451 0.929 . S
H1460 C1468 0.929 . S
H1461 C1470 0.930 . S
H1462 C1472 0.930 . S
H1463 C1475 0.929 . S
H1464 C1478 0.930 . S
H1465 C1480 0.960 . S
H1466 C1480 0.960 . S
H1467 C1480 0.960 . S
C1468 H1460 0.929 . S
C1468 C1469 1.377 . S
C1468 C1470 1.384 . S
C1469 C1468 1.377 . S
C1469 C1475 1.390 . S
C1470 H1461 0.930 . S
C1470 C1468 1.384 . S
C1470 C1471 1.372 . S
C1471 C1470 1.372 . S
C1471 C1472 1.400 . S
C1471 C1476 1.490 . S
C1472 H1462 0.930 . S
C1472 C1471 1.400 . S
C1472 C1475 1.386 . S
H1473 C1489 0.930 . S
H1474 C1490 0.931 . S
C1475 H1463 0.929 . S
C1475 C1469 1.390 . S
C1475 C1472 1.386 . S
C1476 C1471 1.490 . S
C1476 C1478 1.395 . S
C1476 C1479 1.403 . S
H1477 C1483 0.930 . S
C1478 H1464 0.930 . S
C1478 C1476 1.395 . S
C1478 C1481 1.403 . S
C1479 C1476 1.403 . S
C1479 C1480 1.524 . S
C1479 C1483 1.400 . S
C1480 H1465 0.960 . S
C1480 H1466 0.960 . S
C1480 H1467 0.960 . S
C1480 C1479 1.524 . S
C1481 C1478 1.403 . S
C1481 C1482 1.392 . S
C1481 C1485 1.495 . S
C1482 C1481 1.392 . S
C1482 C1483 1.385 . S
C1482 C1484 1.478 . S
C1483 H1477 0.930 . S
C1483 C1479 1.400 . S
C1483 C1482 1.385 . S
C1484 C1482 1.478 . S
C1484 C1486 1.381 . S
C1484 C1490 1.383 . S
C1485 C1481 1.495 . S
C1485 H1491 0.959 . S
C1485 H1492 0.961 . S
C1485 H1493 0.960 . S
C1486 C1484 1.381 . S
C1486 C1487 1.394 . S
C1486 H1494 0.930 . S
C1487 C1486 1.394 . S
C1487 C1488 1.383 . S
C1487 H1495 0.929 . S
C1488 C1487 1.383 . S
C1488 C1489 1.377 . S
C1489 H1473 0.930 . S
C1489 C1488 1.377 . S
C1489 C1490 1.379 . S
C1490 H1474 0.931 . S
C1490 C1484 1.383 . S
C1490 C1489 1.379 . S
H1491 C1485 0.959 . S
H1492 C1485 0.961 . S
H1493 C1485 0.960 . S
H1494 C1486 0.930 . S
H1495 C1487 0.929 . S
H1496 C1504 0.929 . S
H1497 C1506 0.930 . S
H1498 C1508 0.930 . S
H1499 C1511 0.929 . S
H1500 C1514 0.930 . S
H1501 C1516 0.960 . S
H1502 C1516 0.960 . S
H1503 C1516 0.960 . S
C1504 H1496 0.929 . S
C1504 C1505 1.377 . S
C1504 C1506 1.384 . S
C1505 C1504 1.377 . S
C1505 C1511 1.390 . S
C1506 H1497 0.930 . S
C1506 C1504 1.384 . S
C1506 C1507 1.372 . S
C1507 C1506 1.372 . S
C1507 C1508 1.400 . S
C1507 C1512 1.490 . S
C1508 H1498 0.930 . S
C1508 C1507 1.400 . S
C1508 C1511 1.386 . S
H1509 C1525 0.930 . S
H1510 C1526 0.931 . S
C1511 H1499 0.929 . S
C1511 C1505 1.390 . S
C1511 C1508 1.386 . S
C1512 C1507 1.490 . S
C1512 C1514 1.395 . S
C1512 C1515 1.403 . S
H1513 C1519 0.930 . S
C1514 H1500 0.930 . S
C1514 C1512 1.395 . S
C1514 C1517 1.403 . S
C1515 C1512 1.403 . S
C1515 C1516 1.524 . S
C1515 C1519 1.400 . S
C1516 H1501 0.960 . S
C1516 H1502 0.960 . S
C1516 H1503 0.960 . S
C1516 C1515 1.524 . S
C1517 C1514 1.403 . S
C1517 C1518 1.392 . S
C1517 C1521 1.495 . S
C1518 C1517 1.392 . S
C1518 C1519 1.385 . S
C1518 C1520 1.478 . S
C1519 H1513 0.930 . S
C1519 C1515 1.400 . S
C1519 C1518 1.385 . S
C1520 C1518 1.478 . S
C1520 C1522 1.381 . S
C1520 C1526 1.383 . S
C1521 C1517 1.495 . S
C1521 H1527 0.959 . S
C1521 H1528 0.961 . S
C1521 H1529 0.960 . S
C1522 C1520 1.381 . S
C1522 C1523 1.394 . S
C1522 H1530 0.930 . S
C1523 C1522 1.394 . S
C1523 C1524 1.383 . S
C1523 H1531 0.929 . S
C1524 C1523 1.383 . S
C1524 C1525 1.377 . S
C1525 H1509 0.930 . S
C1525 C1524 1.377 . S
C1525 C1526 1.379 . S
C1526 H1510 0.931 . S
C1526 C1520 1.383 . S
C1526 C1525 1.379 . S
H1527 C1521 0.959 . S
H1528 C1521 0.961 . S
H1529 C1521 0.960 . S
H1530 C1522 0.930 . S
H1531 C1523 0.929 . S
H1532 C1540 0.929 . S
H1533 C1542 0.930 . S
H1534 C1544 0.930 . S
H1535 C1547 0.929 . S
H1536 C1550 0.930 . S
H1537 C1552 0.960 . S
H1538 C1552 0.960 . S
H1539 C1552 0.960 . S
C1540 H1532 0.929 . S
C1540 C1541 1.377 . S
C1540 C1542 1.384 . S
C1541 C1540 1.377 . S
C1541 C1547 1.390 . S
C1542 H1533 0.930 . S
C1542 C1540 1.384 . S
C1542 C1543 1.372 . S
C1543 C1542 1.372 . S
C1543 C1544 1.400 . S
C1543 C1548 1.490 . S
C1544 H1534 0.930 . S
C1544 C1543 1.400 . S
C1544 C1547 1.386 . S
H1545 C1561 0.930 . S
H1546 C1562 0.931 . S
C1547 H1535 0.929 . S
C1547 C1541 1.390 . S
C1547 C1544 1.386 . S
C1548 C1543 1.490 . S
C1548 C1550 1.395 . S
C1548 C1551 1.403 . S
H1549 C1555 0.930 . S
C1550 H1536 0.930 . S
C1550 C1548 1.395 . S
C1550 C1553 1.403 . S
C1551 C1548 1.403 . S
C1551 C1552 1.524 . S
C1551 C1555 1.400 . S
C1552 H1537 0.960 . S
C1552 H1538 0.960 . S
C1552 H1539 0.960 . S
C1552 C1551 1.524 . S
C1553 C1550 1.403 . S
C1553 C1554 1.392 . S
C1553 C1557 1.495 . S
C1554 C1553 1.392 . S
C1554 C1555 1.385 . S
C1554 C1556 1.478 . S
C1555 H1549 0.930 . S
C1555 C1551 1.400 . S
C1555 C1554 1.385 . S
C1556 C1554 1.478 . S
C1556 C1558 1.381 . S
C1556 C1562 1.383 . S
C1557 C1553 1.495 . S
C1557 H1563 0.959 . S
C1557 H1564 0.961 . S
C1557 H1565 0.960 . S
C1558 C1556 1.381 . S
C1558 C1559 1.394 . S
C1558 H1566 0.930 . S
C1559 C1558 1.394 . S
C1559 C1560 1.383 . S
C1559 H1567 0.929 . S
C1560 C1559 1.383 . S
C1560 C1561 1.377 . S
C1561 H1545 0.930 . S
C1561 C1560 1.377 . S
C1561 C1562 1.379 . S
C1562 H1546 0.931 . S
C1562 C1556 1.383 . S
C1562 C1561 1.379 . S
H1563 C1557 0.959 . S
H1564 C1557 0.961 . S
H1565 C1557 0.960 . S
H1566 C1558 0.930 . S
H1567 C1559 0.929 . S
H1568 C1576 0.929 . S
H1569 C1578 0.930 . S
H1570 C1580 0.930 . S
H1571 C1583 0.929 . S
H1572 C1586 0.930 . S
H1573 C1588 0.960 . S
H1574 C1588 0.960 . S
H1575 C1588 0.960 . S
C1576 H1568 0.929 . S
C1576 C1577 1.377 . S
C1576 C1578 1.384 . S
C1577 C1576 1.377 . S
C1577 C1583 1.390 . S
C1578 H1569 0.930 . S
C1578 C1576 1.384 . S
C1578 C1579 1.372 . S
C1579 C1578 1.372 . S
C1579 C1580 1.400 . S
C1579 C1584 1.490 . S
C1580 H1570 0.930 . S
C1580 C1579 1.400 . S
C1580 C1583 1.386 . S
H1581 C1597 0.930 . S
H1582 C1598 0.931 . S
C1583 H1571 0.929 . S
C1583 C1577 1.390 . S
C1583 C1580 1.386 . S
C1584 C1579 1.490 . S
C1584 C1586 1.395 . S
C1584 C1587 1.403 . S
H1585 C1591 0.930 . S
C1586 H1572 0.930 . S
C1586 C1584 1.395 . S
C1586 C1589 1.403 . S
C1587 C1584 1.403 . S
C1587 C1588 1.524 . S
C1587 C1591 1.400 . S
C1588 H1573 0.960 . S
C1588 H1574 0.960 . S
C1588 H1575 0.960 . S
C1588 C1587 1.524 . S
C1589 C1586 1.403 . S
C1589 C1590 1.392 . S
C1589 C1593 1.495 . S
C1590 C1589 1.392 . S
C1590 C1591 1.385 . S
C1590 C1592 1.478 . S
C1591 H1585 0.930 . S
C1591 C1587 1.400 . S
C1591 C1590 1.385 . S
C1592 C1590 1.478 . S
C1592 C1594 1.381 . S
C1592 C1598 1.383 . S
C1593 C1589 1.495 . S
C1593 H1599 0.959 . S
C1593 H1600 0.961 . S
C1593 H1601 0.960 . S
C1594 C1592 1.381 . S
C1594 C1595 1.394 . S
C1594 H1602 0.930 . S
C1595 C1594 1.394 . S
C1595 C1596 1.383 . S
C1595 H1603 0.929 . S
C1596 C1595 1.383 . S
C1596 C1597 1.377 . S
C1597 H1581 0.930 . S
C1597 C1596 1.377 . S
C1597 C1598 1.379 . S
C1598 H1582 0.931 . S
C1598 C1592 1.383 . S
C1598 C1597 1.379 . S
H1599 C1593 0.959 . S
H1600 C1593 0.961 . S
H1601 C1593 0.960 . S
H1602 C1594 0.930 . S
H1603 C1595 0.929 . S
H1604 C1612 0.929 . S
H1605 C1614 0.930 . S
H1606 C1616 0.930 . S
H1607 C1619 0.929 . S
H1608 C1622 0.930 . S
H1609 C1624 0.960 . S
H1610 C1624 0.960 . S
H1611 C1624 0.960 . S
C1612 H1604 0.929 . S
C1612 C1613 1.377 . S
C1612 C1614 1.384 . S
C1613 C1612 1.377 . S
C1613 C1619 1.390 . S
C1614 H1605 0.930 . S
C1614 C1612 1.384 . S
C1614 C1615 1.372 . S
C1615 C1614 1.372 . S
C1615 C1616 1.400 . S
C1615 C1620 1.490 . S
C1616 H1606 0.930 . S
C1616 C1615 1.400 . S
C1616 C1619 1.386 . S
H1617 C1633 0.930 . S
H1618 C1634 0.931 . S
C1619 H1607 0.929 . S
C1619 C1613 1.390 . S
C1619 C1616 1.386 . S
C1620 C1615 1.490 . S
C1620 C1622 1.395 . S
C1620 C1623 1.403 . S
H1621 C1627 0.930 . S
C1622 H1608 0.930 . S
C1622 C1620 1.395 . S
C1622 C1625 1.403 . S
C1623 C1620 1.403 . S
C1623 C1624 1.524 . S
C1623 C1627 1.400 . S
C1624 H1609 0.960 . S
C1624 H1610 0.960 . S
C1624 H1611 0.960 . S
C1624 C1623 1.524 . S
C1625 C1622 1.403 . S
C1625 C1626 1.392 . S
C1625 C1629 1.495 . S
C1626 C1625 1.392 . S
C1626 C1627 1.385 . S
C1626 C1628 1.478 . S
C1627 H1621 0.930 . S
C1627 C1623 1.400 . S
C1627 C1626 1.385 . S
C1628 C1626 1.478 . S
C1628 C1630 1.381 . S
C1628 C1634 1.383 . S
C1629 C1625 1.495 . S
C1629 H1635 0.959 . S
C1629 H1636 0.961 . S
C1629 H1637 0.960 . S
C1630 C1628 1.381 . S
C1630 C1631 1.394 . S
C1630 H1638 0.930 . S
C1631 C1630 1.394 . S
C1631 C1632 1.383 . S
C1631 H1639 0.929 . S
C1632 C1631 1.383 . S
C1632 C1633 1.377 . S
C1633 H1617 0.930 . S
C1633 C1632 1.377 . S
C1633 C1634 1.379 . S
C1634 H1618 0.931 . S
C1634 C1628 1.383 . S
C1634 C1633 1.379 . S
H1635 C1629 0.959 . S
H1636 C1629 0.961 . S
H1637 C1629 0.960 . S
H1638 C1630 0.930 . S
H1639 C1631 0.929 . S
C516 C397 1.239 . S
C497 C36 1.287 . S
C552 C415 1.268 . S
C533 C93 1.291 . S
C588 C423 1.228 . S
C569 C126 1.297 . S
C605 C165 1.273 . S
C624 C389 1.269 . S
C641 C222 1.295 . S
C660 C384 1.221 1_556 S
C677 C261 1.280 . S
C696 C402 1.225 . S
C732 C410 1.287 . S
C713 C318 1.288 . S
C768 C428 1.249 . S
C749 C381 1.290 . S
C785 C132 1.282 . S
C804 C449 1.264 . S
C840 C467 1.266 . S
C821 C189 1.292 . S
C857 C30 1.295 . S
C876 C475 1.218 . S
C912 C441 1.219 . S
C893 C69 1.281 . S
C929 C324 1.291 . S
C948 C436 1.220 . S
C965 C357 1.279 . S
C984 C454 1.236 . S
C1020 C462 1.278 1_556 S
C1001 C228 1.286 . S
C1037 C285 1.290 . S
C1056 C480 1.272 . S
C1092 C418 1.488 . S
C1073 C45 1.493 . S
C1128 C433 1.491 . S
C1109 C84 1.502 . S
C1145 C117 1.493 . S
C1164 C392 1.490 . S
C1181 C174 1.474 . S
C1200 C407 1.489 . S
C1217 C213 1.494 . S
C1236 C431 1.509 . S
C1272 C394 1.455 . S
C1253 C270 1.481 . S
C1308 C405 1.494 . S
C1289 C309 1.493 . S
C1344 C420 1.450 . S
C1325 C372 1.505 . S
C1380 C470 1.508 . S
C1361 C141 1.496 . S
C1416 C485 1.453 . S
C1397 C180 1.505 . S
C1433 C21 1.494 . S
C1452 C444 1.489 . S
C1488 C459 1.448 . S
C1469 C78 1.479 . S
C1524 C483 1.507 . S
C1505 C333 1.495 . S
C1541 C366 1.481 . S
C1560 C446 1.448 . S
C1596 C457 1.502 . S
C1577 C237 1.496 . S
C1632 C472 1.447 . S
C1613 C276 1.505 . S
