# Generated by pormake.
# Topology pyr, (3,6)-cn, num edge types: 1
# Building blocks:
#     Node 0, Type 0, BuildingBlock: BETDAH_clean_linker_0, # of connection points: 3
#     Node 1, Type 0, BuildingBlock: BETDAH_clean_linker_0, # of connection points: 3
#     Node 2, Type 0, BuildingBlock: BETDAH_clean_linker_0, # of connection points: 3
#     Node 3, Type 0, BuildingBlock: BETDAH_clean_linker_0, # of connection points: 3
#     Node 4, Type 0, BuildingBlock: BETDAH_clean_linker_0, # of connection points: 3
#     Node 5, Type 0, BuildingBlock: BETDAH_clean_linker_0, # of connection points: 3
#     Node 6, Type 0, BuildingBlock: BETDAH_clean_linker_0, # of connection points: 3
#     Node 7, Type 0, BuildingBlock: BETDAH_clean_linker_0, # of connection points: 3
#     Node 8, Type 1, BuildingBlock: PAMTUU_clean_sbu_0, # of connection points: 6
#     Node 9, Type 1, BuildingBlock: PAMTUU_clean_sbu_0, # of connection points: 6
#     Node 10, Type 1, BuildingBlock: PAMTUU_clean_sbu_0, # of connection points: 6
#     Node 11, Type 1, BuildingBlock: PAMTUU_clean_sbu_0, # of connection points: 6
#     Edge 12, Type (0, 1), BuildingBlock: XIVTED_clean_linker_0, # of connection points: 2
#     Edge 13, Type (0, 1), BuildingBlock: XIVTED_clean_linker_0, # of connection points: 2
#     Edge 14, Type (0, 1), BuildingBlock: XIVTED_clean_linker_0, # of connection points: 2
#     Edge 15, Type (0, 1), BuildingBlock: XIVTED_clean_linker_0, # of connection points: 2
#     Edge 16, Type (0, 1), BuildingBlock: XIVTED_clean_linker_0, # of connection points: 2
#     Edge 17, Type (0, 1), BuildingBlock: XIVTED_clean_linker_0, # of connection points: 2
#     Edge 18, Type (0, 1), BuildingBlock: XIVTED_clean_linker_0, # of connection points: 2
#     Edge 19, Type (0, 1), BuildingBlock: XIVTED_clean_linker_0, # of connection points: 2
#     Edge 20, Type (0, 1), BuildingBlock: XIVTED_clean_linker_0, # of connection points: 2
#     Edge 21, Type (0, 1), BuildingBlock: XIVTED_clean_linker_0, # of connection points: 2
#     Edge 22, Type (0, 1), BuildingBlock: XIVTED_clean_linker_0, # of connection points: 2
#     Edge 23, Type (0, 1), BuildingBlock: XIVTED_clean_linker_0, # of connection points: 2
#     Edge 24, Type (0, 1), BuildingBlock: XIVTED_clean_linker_0, # of connection points: 2
#     Edge 25, Type (0, 1), BuildingBlock: XIVTED_clean_linker_0, # of connection points: 2
#     Edge 26, Type (0, 1), BuildingBlock: XIVTED_clean_linker_0, # of connection points: 2
#     Edge 27, Type (0, 1), BuildingBlock: XIVTED_clean_linker_0, # of connection points: 2
#     Edge 28, Type (0, 1), BuildingBlock: XIVTED_clean_linker_0, # of connection points: 2
#     Edge 29, Type (0, 1), BuildingBlock: XIVTED_clean_linker_0, # of connection points: 2
#     Edge 30, Type (0, 1), BuildingBlock: XIVTED_clean_linker_0, # of connection points: 2
#     Edge 31, Type (0, 1), BuildingBlock: XIVTED_clean_linker_0, # of connection points: 2
#     Edge 32, Type (0, 1), BuildingBlock: XIVTED_clean_linker_0, # of connection points: 2
#     Edge 33, Type (0, 1), BuildingBlock: XIVTED_clean_linker_0, # of connection points: 2
#     Edge 34, Type (0, 1), BuildingBlock: XIVTED_clean_linker_0, # of connection points: 2
#     Edge 35, Type (0, 1), BuildingBlock: XIVTED_clean_linker_0, # of connection points: 2
# Relax obj value: 0.134
# Max RMSD: 0.173
# Mean RMSD: 0.134
data_MOF--net-pyr--node1-PAMTUU_clean_sbu_0--node2-BETDAH_clean_linker_0--edge1-XIVTED_clean_linker_0
_symmetry_space_group_name_H-M    P1
_symmetry_Int_Tables_number       1
_symmetry_cell_setting            triclinic
loop_
_symmetry_equiv_pos_as_xyz
'x, y, z'
_cell_length_a     37.661081
_cell_length_b     39.929188
_cell_length_c     38.619117
_cell_angle_alpha  90.362342
_cell_angle_beta   89.876454
_cell_angle_gamma 106.89628
loop_
_atom_site_label
_atom_site_type_symbol
_atom_site_fract_x
_atom_site_fract_y
_atom_site_fract_z
_atom_type_partial_charge
H0 H 0.3757 0.23945 0.26027 0.0
H1 H 0.41156 0.30571 0.17193 0.0
H2 H 0.34573 0.33511 0.25103 0.0
C3 C 0.37752 0.26358 0.2467 0.0
C4 C 0.35917 0.28691 0.25997 0.0
C5 C 0.39599 0.26993 0.2148 0.0
C6 C 0.39736 0.30057 0.19665 0.0
C7 C 0.37913 0.32397 0.20941 0.0
C8 C 0.35988 0.31702 0.24105 0.0
N9 N 0.37939 0.3536 0.18932 0.0
C10 C 0.34946 0.36721 0.18908 0.0
H11 H 0.25402 0.78876 0.78109 0.0
H12 H 0.15701 0.82188 0.76261 0.0
H13 H 0.18761 0.75301 0.69007 0.0
C14 C 0.22958 0.78725 0.76568 0.0
C15 C 0.22387 0.76824 0.73444 0.0
C16 C 0.2055 0.80644 0.77615 0.0
C17 C 0.17547 0.80681 0.75488 0.0
C18 C 0.16895 0.78736 0.72388 0.0
C19 C 0.19276 0.76772 0.71414 0.0
N20 N 0.13924 0.78789 0.70161 0.0
C21 C 0.12721 0.81744 0.69791 0.0
H22 H 0.72571 0.36544 0.94647 0.0
H23 H 0.71712 0.4486 0.8791 0.0
H24 H 0.62471 0.35615 0.89101 0.0
C25 C 0.71001 0.37593 0.92823 0.0
C26 C 0.67358 0.35612 0.92016 0.0
C27 C 0.72632 0.40932 0.91392 0.0
C28 C 0.70543 0.42284 0.89005 0.0
C29 C 0.66878 0.40322 0.88136 0.0
C30 C 0.65328 0.37034 0.89683 0.0
N31 N 0.64478 0.41663 0.86049 0.0
C32 C 0.65353 0.4387 0.83172 0.0
H33 H 0.83636 0.75321 0.45514 0.0
H34 H 0.92606 0.77577 0.38232 0.0
H35 H 0.84277 0.67582 0.37855 0.0
C36 C 0.85068 0.74491 0.4339 0.0
C37 C 0.83594 0.71108 0.41956 0.0
C38 C 0.88329 0.76847 0.42113 0.0
C39 C 0.90054 0.75826 0.39235 0.0
C40 C 0.88601 0.72539 0.37642 0.0
C41 C 0.85355 0.70157 0.39008 0.0
N42 N 0.90641 0.71796 0.34763 0.0
C43 C 0.89809 0.68923 0.3251 0.0
H44 H 0.76073 0.7879 0.85597 0.0
H45 H 0.69452 0.75404 0.94724 0.0
H46 H 0.65831 0.81333 0.86959 0.0
C47 C 0.73581 0.78591 0.8709 0.0
C48 C 0.70987 0.80205 0.85861 0.0
C49 C 0.73115 0.76913 0.90314 0.0
C50 C 0.69853 0.76643 0.92208 0.0
C51 C 0.67241 0.78247 0.91014 0.0
C52 C 0.67827 0.80049 0.87854 0.0
N53 N 0.64171 0.78235 0.9314 0.0
C54 C 0.6315 0.81271 0.93667 0.0
H55 H 0.85916 0.24181 0.38931 0.0
H56 H 0.92211 0.32615 0.45419 0.0
H57 H 0.83621 0.34094 0.38786 0.0
C58 C 0.86524 0.26863 0.39844 0.0
C59 C 0.84474 0.28997 0.38551 0.0
C60 C 0.89309 0.28124 0.42329 0.0
C61 C 0.90134 0.31624 0.43435 0.0
C62 C 0.88053 0.33768 0.42214 0.0
C63 C 0.85253 0.32458 0.39729 0.0
N64 N 0.88611 0.37131 0.43712 0.0
C65 C 0.85622 0.38412 0.44379 0.0
H66 H 0.33336 0.75236 0.18943 0.0
H67 H 0.34267 0.67689 0.26585 0.0
H68 H 0.43259 0.77078 0.25018 0.0
C69 C 0.34917 0.74421 0.20941 0.0
C70 C 0.38477 0.76588 0.2177 0.0
C71 C 0.33351 0.71208 0.22639 0.0
C72 C 0.35419 0.70155 0.25269 0.0
C73 C 0.38996 0.72324 0.2616 0.0
C74 C 0.40478 0.75486 0.24377 0.0
N75 N 0.41336 0.71435 0.28684 0.0
C76 C 0.40444 0.68975 0.3135 0.0
H77 H 0.22251 0.37036 0.69006 0.0
H78 H 0.21072 0.45597 0.75291 0.0
H79 H 0.12321 0.35887 0.74963 0.0
C80 C 0.20616 0.38093 0.70782 0.0
C81 C 0.17104 0.35989 0.71816 0.0
C82 C 0.22042 0.41585 0.71912 0.0
C83 C 0.20047 0.42902 0.74428 0.0
C84 C 0.16551 0.40794 0.75587 0.0
C85 C 0.15096 0.37394 0.74214 0.0
N86 N 0.14146 0.4213 0.77686 0.0
C87 C 0.15058 0.44295 0.80608 0.0
Tb88 Tb 0.06316 0.07097 0.54486 0.0
Tb89 Tb 0.99024 0.05636 0.59619 0.0
C90 C 0.9942 1.00268 0.53874 0.0
C91 C 0.14019 0.11228 0.48302 0.0
C92 C 0.1882 0.16684 0.44452 0.0
C93 C 0.15696 0.1436 0.42886 0.0
C94 C 0.13336 0.11655 0.44783 0.0
C95 C 0.17112 0.13582 0.49894 0.0
C96 C 0.19495 0.16284 0.47983 0.0
C97 C 0.11582 0.08219 0.5019 0.0
O98 O 0.03782 0.11196 0.53433 0.0
O99 O 0.97937 0.07906 0.54776 0.0
O100 O 0.0245 0.10883 0.60959 0.0
O101 O 0.08117 0.10947 0.58639 0.0
O102 O 0.93232 0.04505 0.59789 0.0
O103 O 0.96514 0.05754 0.6446 0.0
O104 O 0.02628 0.03081 0.62258 0.0
O105 O 0.06811 0.0297 0.57889 0.0
O106 O 0.0183 0.02833 0.52244 0.0
O107 O 0.98431 1.00644 0.57079 0.0
C108 C 1.00195 0.10639 0.5328 0.0
O109 O 0.12027 0.08075 0.53531 0.0
O110 O 0.08084 0.07309 0.49331 0.0
C111 C 0.06055 0.12289 0.60663 0.0
C112 C 0.90391 0.02028 0.64944 0.0
C113 C 0.84916 0.96841 0.68443 0.0
C114 C 0.84231 0.99971 0.67429 0.0
C115 C 0.8695 0.02541 0.65698 0.0
C116 C 0.9108 0.98888 0.65877 0.0
C117 C 0.88361 0.96312 0.67623 0.0
C118 C 0.9318 0.04797 0.63146 0.0
C119 C 0.0537 0.02036 0.60964 0.0
H120 H 0.15142 0.14553 0.40154 0.0
H121 H 0.11006 0.09853 0.43472 0.0
H122 H 0.17727 0.13312 0.52599 0.0
H123 H 0.21879 0.18043 0.49258 0.0
H124 H 0.81591 1.00436 0.67971 0.0
H125 H 0.8637 0.04943 0.64956 0.0
H126 H 0.93724 0.98448 0.65287 0.0
H127 H 0.8899 0.93947 0.68404 0.0
Tb128 Tb 0.56569 0.06449 0.0901 0.0
Tb129 Tb 0.4972 0.04823 1.03339 0.0
C130 C 0.56489 0.01962 1.02396 0.0
C131 C 0.64124 0.10341 0.15458 0.0
C132 C 0.68142 0.15377 0.20201 0.0
C133 C 0.68837 0.12116 0.19891 0.0
C134 C 0.66843 0.09621 0.17537 0.0
C135 C 0.63523 0.13649 0.15633 0.0
C136 C 0.65543 0.16168 0.17986 0.0
C137 C 0.61724 0.07483 0.13404 0.0
O138 O 0.58426 0.10607 0.05161 0.0
O139 O 0.52987 0.10147 1.02186 0.0
O140 O 0.47879 0.06749 0.08108 0.0
O141 O 0.53497 0.10099 0.10162 0.0
O142 O 0.47353 0.025 0.98696 0.0
O143 O 0.44697 0.05647 1.01718 0.0
O144 O 0.48689 0.99962 0.0624 0.0
O145 O 0.52096 0.02141 0.11119 0.0
O146 O 0.57023 0.02193 0.05743 0.0
O147 O 0.54402 0.03621 1.00861 0.0
C148 C 0.56462 0.11813 1.02922 0.0
O149 O 0.58209 0.06628 0.14189 0.0
O150 O 0.62275 0.07546 0.10065 0.0
C151 C 0.4988 0.09349 0.10014 0.0
C152 C 0.40804 1.01065 0.98329 0.0
C153 C 0.34157 0.96475 0.9573 0.0
C154 C 0.34475 1.00034 0.96298 0.0
C155 C 0.37776 0.02308 0.97567 0.0
C156 C 0.40404 0.97469 0.98016 0.0
C157 C 0.37117 0.95198 0.96719 0.0
C158 C 0.44441 0.03604 0.99035 0.0
C159 C 0.49619 0.99621 0.09473 0.0
H160 H 0.70866 0.11464 0.21533 0.0
H161 H 0.67335 0.07079 0.17428 0.0
H162 H 0.61411 0.1423 0.14044 0.0
H163 H 0.64957 0.18662 0.18185 0.0
H164 H 0.32226 1.01093 0.95631 0.0
H165 H 0.38022 0.05072 0.97805 0.0
H166 H 0.42691 0.96432 0.98604 0.0
H167 H 0.36998 0.92485 0.96292 0.0
Tb168 Tb 0.52495 0.52514 0.54983 0.0
Tb169 Tb 0.53366 0.59872 0.59178 0.0
C170 C 0.49345 0.5837 0.51886 0.0
C171 C 0.55289 0.45252 0.51413 0.0
C172 C 0.61537 0.42952 0.49964 0.0
C173 C 0.58316 0.41813 0.47915 0.0
C174 C 0.55214 0.42962 0.48634 0.0
C175 C 0.58455 0.46315 0.53518 0.0
C176 C 0.61543 0.45171 0.52808 0.0
C177 C 0.52295 0.46883 0.51884 0.0
O178 O 0.58283 0.55503 0.54217 0.0
O179 O 0.58101 0.61061 0.5566 0.0
O180 O 0.57153 0.57536 0.61901 0.0
O181 O 0.54597 0.51843 0.60125 0.0
O182 O 0.54003 0.65275 0.59082 0.0
O183 O 0.53306 0.62489 0.63908 0.0
O184 O 0.48759 0.55937 0.61525 0.0
O185 O 0.46948 0.52135 0.5697 0.0
O186 O 0.50966 0.55929 0.51266 0.0
O187 O 0.49338 0.5969 0.55018 0.0
C188 C 0.59748 0.58921 0.54201 0.0
O189 O 0.51144 0.47019 0.55052 0.0
O190 O 0.52863 0.49877 0.50337 0.0
C191 C 0.5673 0.54161 0.62243 0.0
C192 C 0.50178 0.66729 0.63306 0.0
C193 C 0.43997 0.68897 0.65357 0.0
C194 C 0.47376 0.70062 0.67171 0.0
C195 C 0.50446 0.68987 0.66148 0.0
C196 C 0.46815 0.6557 0.61486 0.0
C197 C 0.43761 0.66658 0.6249 0.0
C198 C 0.53301 0.65383 0.62381 0.0
C199 C 0.46262 0.53381 0.59981 0.0
H200 H 0.58214 0.40078 0.45727 0.0
H201 H 0.52806 0.42149 0.46962 0.0
H202 H 0.58591 0.48136 0.55641 0.0
H203 H 0.63993 0.4615 0.54402 0.0
H204 H 0.47648 0.71809 0.69375 0.0
H205 H 0.53009 0.69881 0.676 0.0
H206 H 0.46529 0.63777 0.59319 0.0
H207 H 0.41185 0.65673 0.61072 0.0
Tb208 Tb 0.03284 0.59744 0.0531 0.0
Tb209 Tb 0.02498 0.52351 0.09249 0.0
C210 C 0.06738 0.54107 1.0206 0.0
C211 C 1.00476 0.66806 1.01328 0.0
C212 C 0.94543 0.69311 0.99278 0.0
C213 C 0.98192 0.71579 0.99442 0.0
C214 C 0.01139 0.70328 1.00449 0.0
C215 C 0.96847 0.64554 1.0123 0.0
C216 C 0.93915 0.6578 1.00185 0.0
C217 C 0.03518 0.65455 1.02427 0.0
O218 O 0.98576 0.55999 1.02829 0.0
O219 O 0.97039 0.51625 0.06904 0.0
O220 O 1.00678 0.55693 0.12923 0.0
O221 O 0.98861 0.59229 0.09123 0.0
O222 O 0.01333 0.46872 0.09228 0.0
O223 O 0.02863 0.49845 0.13938 0.0
O224 O 0.08306 0.55411 0.09868 0.0
O225 O 0.07528 0.60851 0.09336 0.0
O226 O 0.0711 0.57465 1.02518 0.0
O227 O 0.04658 0.51726 0.04125 0.0
C228 C 0.9628 0.53122 0.04078 0.0
O229 O 0.03791 0.65111 0.05757 0.0
O230 O 0.03768 0.62687 1.00758 0.0
C231 C 0.98858 0.57962 0.12254 0.0
C232 C 0.05422 0.45273 0.13021 0.0
C233 C 0.11672 0.4309 0.14679 0.0
C234 C 0.08405 0.41958 0.16662 0.0
C235 C 0.05302 0.43055 0.15842 0.0
C236 C 0.08634 0.46319 0.10977 0.0
C237 C 0.11724 0.45228 0.1179 0.0
C238 C 0.024 0.46827 0.1243 0.0
C239 C 0.09463 0.58805 0.10421 0.0
H240 H 0.98772 0.74326 0.98822 0.0
H241 H 0.03924 0.72109 1.00556 0.0
H242 H 0.96286 0.61836 1.01952 0.0
H243 H 0.91167 0.63938 1.0004 0.0
H244 H 0.08292 0.40333 0.18918 0.0
H245 H 0.02858 0.42265 0.17471 0.0
H246 H 0.0879 0.48063 0.08806 0.0
H247 H 0.14173 0.46095 0.10178 0.0
H248 H 0.37911 0.26245 0.32071 0.0
H249 H 0.17294 0.20965 0.39512 0.0
H250 H 0.28892 0.29092 0.27237 0.0
H251 H 0.26403 0.18398 0.44493 0.0
H252 H 0.21667 0.24646 0.35428 0.0
H253 H 0.33932 0.24055 0.3706 0.0
C254 C 0.35101 0.26437 0.32079 0.0
C255 C 0.33714 0.27813 0.29223 0.0
C256 C 0.22719 0.23316 0.37442 0.0
C257 C 0.29138 0.25304 0.34913 0.0
C258 C 0.20222 0.21207 0.39766 0.0
C259 C 0.21483 0.19337 0.42317 0.0
C260 C 0.26503 0.23537 0.37651 0.0
C261 C 0.25311 0.19795 0.42571 0.0
C262 C 0.32834 0.25198 0.3493 0.0
C263 C 0.30074 0.28056 0.29388 0.0
N264 N 0.27679 0.21811 0.40237 0.0
N265 N 0.27896 0.2677 0.32166 0.0
H266 H 0.22327 0.78694 0.83997 0.0
H267 H 0.30552 0.98298 0.90214 0.0
H268 H 0.20711 0.87493 0.78478 0.0
H269 H 0.30578 0.8945 0.96583 0.0
H270 H 0.26192 0.94385 0.86308 0.0
H271 H 0.24641 0.82517 0.88969 0.0
C272 C 0.22417 0.81426 0.83856 0.0
C273 C 0.21376 0.82795 0.80813 0.0
C274 C 0.271 0.933 0.88589 0.0
C275 C 0.24045 0.87191 0.86472 0.0
C276 C 0.29578 0.95544 0.90848 0.0
C277 C 0.30991 0.94204 0.9372 0.0
C278 C 0.26059 0.89678 0.89168 0.0
C279 C 0.29645 0.90594 0.94356 0.0
C280 C 0.23724 0.83605 0.86696 0.0
C281 C 0.21491 0.86337 0.80775 0.0
N282 N 0.27303 0.88451 0.92067 0.0
N283 N 0.22864 0.88427 0.83543 0.0
H284 H 0.65555 0.50726 0.82455 0.0
H285 H 0.57527 0.47598 0.63071 0.0
H286 H 0.64141 0.41162 0.76701 0.0
H287 H 0.60117 0.57677 0.68139 0.0
H288 H 0.60145 0.45318 0.67984 0.0
H289 H 0.6387 0.53446 0.77235 0.0
C290 C 0.64977 0.49228 0.80067 0.0
C291 C 0.65049 0.45733 0.7999 0.0
C292 C 0.60167 0.48035 0.68027 0.0
C293 C 0.63002 0.48785 0.74029 0.0
C294 C 0.58658 0.49347 0.6521 0.0
C295 C 0.58572 0.52847 0.65169 0.0
C296 C 0.61593 0.50209 0.70883 0.0
C297 C 0.60117 0.54967 0.68036 0.0
C298 C 0.63986 0.50771 0.77094 0.0
C299 C 0.64179 0.43881 0.76857 0.0
N300 N 0.6153 0.53613 0.70777 0.0
N301 N 0.63173 0.45415 0.74021 0.0
H302 H 0.92108 0.63073 0.32715 0.0
H303 H 0.94992 0.62877 0.12081 0.0
H304 H 0.88524 0.69808 0.2574 0.0
H305 H 0.98314 0.55964 0.19086 0.0
H306 H 0.92187 0.65136 0.16966 0.0
H307 H 0.93883 0.60072 0.27713 0.0
C308 C 0.916 0.63852 0.30123 0.0
C309 C 0.90107 0.66644 0.29631 0.0
C310 C 0.93508 0.63107 0.17432 0.0
C311 C 0.92249 0.63313 0.23883 0.0
C312 C 0.95114 0.61811 0.14635 0.0
C313 C 0.96918 0.59225 0.15152 0.0
C314 C 0.93702 0.61824 0.20793 0.0
C315 C 0.96973 0.57961 0.18541 0.0
C316 C 0.92648 0.62165 0.27265 0.0
C317 C 0.89607 0.67621 0.26224 0.0
N318 N 0.95415 0.59279 0.21218 0.0
N319 N 0.90697 0.6598 0.23486 0.0
H320 H 0.44334 0.23779 0.24415 0.0
H321 H 0.43132 0.10381 0.08744 0.0
H322 H 0.38209 0.24072 0.15056 0.0
H323 H 0.5254 0.13449 0.15648 0.0
H324 H 0.40484 0.1457 0.11675 0.0
H325 H 0.46645 0.19188 0.21807 0.0
C326 C 0.43487 0.22874 0.21811 0.0
C327 C 0.4112 0.24315 0.19924 0.0
C328 C 0.43118 0.14303 0.12552 0.0
C329 C 0.43672 0.19057 0.1697 0.0
C330 C 0.44614 0.11902 0.10902 0.0
C331 C 0.48065 0.11589 0.11947 0.0
C332 C 0.45063 0.16352 0.15295 0.0
C333 C 0.49884 0.13634 0.14745 0.0
C334 C 0.448 0.20267 0.20329 0.0
C335 C 0.40079 0.23055 0.16567 0.0
N336 N 0.48358 0.1593 0.16327 0.0
N337 N 0.41349 0.2048 0.15198 0.0
H338 H 0.06265 0.83165 0.71315 0.0
H339 H 0.1204 1.00738 0.60249 0.0
H340 H 0.17031 0.87475 0.66689 0.0
H341 H 0.01786 0.97437 0.66002 0.0
H342 H 0.14003 0.96045 0.62877 0.0
H343 H 0.04617 0.88476 0.69681 0.0
C344 C 0.08284 0.85255 0.69982 0.0
C345 C 0.11771 0.84918 0.69109 0.0
C346 C 0.11337 0.96356 0.63598 0.0
C347 C 0.09931 0.90939 0.67223 0.0
C348 C 0.1021 0.99038 0.62092 0.0
C349 C 0.06731 0.99464 0.62887 0.0
C350 C 0.0895 0.94037 0.6589 0.0
C351 C 0.04494 0.97203 0.65319 0.0
C352 C 0.07352 0.88276 0.69054 0.0
C353 C 0.14307 0.8766 0.67389 0.0
N354 N 0.05622 0.94554 0.66704 0.0
N355 N 0.13329 0.9055 0.66478 0.0
H356 H 0.78651 0.38543 0.92674 0.0
H357 H 0.92484 0.56297 0.99732 0.0
H358 H 0.7531 0.48004 0.93014 0.0
H359 H 0.92081 0.46221 0.03955 0.0
H360 H 0.8686 0.53529 0.96372 0.0
H361 H 0.84331 0.41567 0.95766 0.0
C362 C 0.7911 0.41265 0.93378 0.0
C363 C 0.76423 0.42985 0.92637 0.0
C364 C 0.88001 0.51933 0.98044 0.0
C365 C 0.83025 0.46498 0.96135 0.0
C366 C 0.91214 0.53506 0.99965 0.0
C367 C 0.92762 0.51495 1.02154 0.0
C368 C 0.8637 0.48302 0.98227 0.0
C369 C 0.90981 0.47884 1.02331 0.0
C370 C 0.82364 0.42987 0.95149 0.0
C371 C 0.77277 0.46558 0.93522 0.0
N372 N 0.87913 0.46402 1.00369 0.0
N373 N 0.80494 0.48193 0.95235 0.0
H374 H 0.77445 0.66306 0.38971 0.0
H375 H 0.65076 0.65039 0.55732 0.0
H376 H 0.82092 0.70296 0.489 0.0
H377 H 0.62677 0.56287 0.48632 0.0
H378 H 0.70967 0.67596 0.52723 0.0
H379 H 0.71692 0.63008 0.41945 0.0
C380 C 0.77286 0.66466 0.41764 0.0
C381 C 0.80251 0.68667 0.43663 0.0
C382 C 0.69156 0.65109 0.51829 0.0
C383 C 0.73652 0.64976 0.47055 0.0
C384 C 0.65788 0.63654 0.5354 0.0
C385 C 0.63384 0.60435 0.52447 0.0
C386 C 0.70104 0.63392 0.48937 0.0
C387 C 0.64463 0.58761 0.4958 0.0
C388 C 0.73995 0.64598 0.43454 0.0
C389 C 0.79856 0.6875 0.47291 0.0
N390 N 0.67724 0.60276 0.47896 0.0
N391 N 0.76616 0.66997 0.48847 0.0
H392 H 0.34472 0.43152 0.17332 0.0
H393 H 0.12248 0.36757 0.16931 0.0
H394 H 0.27967 0.3272 0.20031 0.0
H395 H 0.18826 0.47324 0.14713 0.0
H396 H 0.17938 0.3528 0.1836 0.0
H397 H 0.28735 0.44812 0.16625 0.0
C398 C 0.31821 0.4123 0.17802 0.0
C399 C 0.31641 0.37811 0.18733 0.0
C400 C 0.18133 0.37924 0.1757 0.0
C401 C 0.25105 0.39643 0.17906 0.0
C402 C 0.14885 0.38771 0.16767 0.0
C403 C 0.15066 0.42158 0.15666 0.0
C404 C 0.21582 0.40485 0.17271 0.0
C405 C 0.18561 0.44659 0.15478 0.0
C406 C 0.28553 0.42165 0.17395 0.0
C407 C 0.28178 0.35388 0.19307 0.0
N408 N 0.21678 0.43769 0.16258 0.0
N409 N 0.2503 0.36345 0.18867 0.0
H410 H 0.684 0.33514 0.9866 0.0
H411 H 0.54112 0.14371 0.97056 0.0
H412 H 0.62449 0.29646 0.89219 0.0
H413 H 0.62645 0.17134 0.04882 0.0
H414 H 0.56724 0.20108 0.944 0.0
H415 H 0.6592 0.27729 1.01209 0.0
C416 C 0.666 0.31455 0.97097 0.0
C417 C 0.65689 0.32103 0.93676 0.0
C418 C 0.58035 0.19457 0.9669 0.0
C419 C 0.62739 0.25435 0.96663 0.0
C420 C 0.56542 0.16178 0.98219 0.0
C421 C 0.58158 0.15249 1.01207 0.0
C422 C 0.61145 0.21874 0.98177 0.0
C423 C 0.61313 0.17716 1.02575 0.0
C424 C 0.65165 0.28144 0.98576 0.0
C425 C 0.63224 0.29315 0.91863 0.0
N426 N 0.62682 0.20916 1.01068 0.0
N427 N 0.61838 0.2612 0.93375 0.0
H428 H 0.8856 0.78425 0.49079 0.0
H429 H 1.00113 0.98623 0.47016 0.0
H430 H 0.91887 0.83244 0.39151 0.0
H431 H 0.94961 0.94129 0.56571 0.0
H432 H 0.97429 0.92975 0.44123 0.0
H433 H 0.91163 0.84098 0.51878 0.0
C434 C 0.89807 0.80674 0.47473 0.0
C435 C 0.89964 0.80327 0.43852 0.0
C436 C 0.9688 0.93229 0.4685 0.0
C437 C 0.93044 0.86873 0.47086 0.0
C438 C 0.98417 0.96457 0.4851 0.0
C439 C 0.97764 0.96871 0.52051 0.0
C440 C 0.94693 0.90371 0.48744 0.0
C441 C 0.95538 0.93953 0.5384 0.0
C442 C 0.91319 0.83921 0.49086 0.0
C443 C 0.91721 0.83352 0.41945 0.0
N444 N 0.941 0.90838 0.52174 0.0
N445 N 0.93188 0.86486 0.43581 0.0
H446 H 0.26254 0.73225 0.77214 0.0
H447 H 0.39053 0.70957 0.61306 0.0
H448 H 0.25054 0.76709 0.66839 0.0
H449 H 0.41405 0.6919 0.71957 0.0
H450 H 0.3355 0.72541 0.63197 0.0
H451 H 0.31421 0.7116 0.75232 0.0
C452 C 0.27063 0.73542 0.74515 0.0
C453 C 0.25223 0.75167 0.72197 0.0
C454 C 0.35269 0.71808 0.65121 0.0
C455 C 0.31134 0.72788 0.69907 0.0
C456 C 0.38404 0.70892 0.64043 0.0
C457 C 0.40698 0.69947 0.66479 0.0
C458 C 0.34401 0.71759 0.68662 0.0
C459 C 0.39742 0.69944 0.69995 0.0
C460 C 0.30012 0.72358 0.73386 0.0
C461 C 0.26356 0.75444 0.68715 0.0
N462 N 0.36664 0.70829 0.7098 0.0
N463 N 0.29248 0.74285 0.67682 0.0
H464 H 0.70469 0.86827 0.84933 0.0
H465 H 0.82912 0.89677 0.67843 0.0
H466 H 0.73589 0.78553 0.79651 0.0
H467 H 0.80526 0.9802 0.73692 0.0
H468 H 0.78636 0.85418 0.71562 0.0
H469 H 0.73107 0.9077 0.80172 0.0
C470 C 0.71628 0.85817 0.8273 0.0
C471 C 0.71859 0.82374 0.82703 0.0
C472 C 0.7902 0.88181 0.72006 0.0
C473 C 0.74957 0.86885 0.77291 0.0
C474 C 0.8148 0.90613 0.699 0.0
C475 C 0.82109 0.94212 0.70478 0.0
C476 C 0.77188 0.89356 0.74719 0.0
C477 C 0.80115 0.95273 0.73135 0.0
C478 C 0.73166 0.88077 0.80027 0.0
C479 C 0.7342 0.81211 0.79797 0.0
N480 N 0.77772 0.92858 0.75175 0.0
N481 N 0.74955 0.83475 0.77227 0.0
H482 H 0.78811 0.23059 0.39375 0.0
H483 H 0.71781 0.22422 0.19788 0.0
H484 H 0.83189 0.31489 0.32208 0.0
H485 H 0.68603 0.13845 0.2698 0.0
H486 H 0.75227 0.26198 0.24467 0.0
H487 H 0.74249 0.20097 0.35063 0.0
C488 C 0.78781 0.24294 0.36889 0.0
C489 C 0.81403 0.27485 0.36112 0.0
C490 C 0.73747 0.23497 0.25018 0.0
C491 C 0.76219 0.241 0.31137 0.0
C492 C 0.7178 0.21352 0.22358 0.0
C493 C 0.6997 0.1781 0.22997 0.0
C494 C 0.73857 0.2208 0.28327 0.0
C495 C 0.70032 0.16543 0.26364 0.0
C496 C 0.7618 0.22607 0.34425 0.0
C497 C 0.81215 0.29016 0.32885 0.0
N498 N 0.7196 0.18668 0.28891 0.0
N499 N 0.78695 0.27281 0.30483 0.0
H500 H 0.3972 0.70702 0.38071 0.0
H501 H 0.48495 0.55961 0.4517 0.0
H502 H 0.42211 0.62855 0.31611 0.0
H503 H 0.46034 0.63737 0.51801 0.0
H504 H 0.45797 0.58212 0.40292 0.0
H505 H 0.41505 0.67935 0.43196 0.0
C506 C 0.40551 0.68338 0.37745 0.0
C507 C 0.40754 0.66964 0.34422 0.0
C508 C 0.45825 0.59424 0.42811 0.0
C509 C 0.42918 0.63837 0.40266 0.0
C510 C 0.47376 0.58137 0.45617 0.0
C511 C 0.47522 0.59658 0.48932 0.0
C512 C 0.44397 0.6228 0.43279 0.0
C513 C 0.45999 0.62472 0.49309 0.0
C514 C 0.41606 0.66778 0.40669 0.0
C515 C 0.4195 0.6396 0.34133 0.0
N516 N 0.44524 0.63697 0.46524 0.0
N517 N 0.43002 0.62512 0.37006 0.0
H518 H 0.15178 0.51106 0.81532 0.0
H519 H 0.07733 0.47639 1.01046 0.0
H520 H 0.14145 0.41522 0.87022 0.0
H521 H 0.09967 0.57754 0.96218 0.0
H522 H 0.1033 0.45491 0.96 0.0
H523 H 0.1362 0.53736 0.86902 0.0
C524 C 0.14712 0.49587 0.83892 0.0
C525 C 0.14846 0.46112 0.83856 0.0
C526 C 0.10281 0.48189 0.9604 0.0
C527 C 0.12949 0.49057 0.89983 0.0
C528 C 0.08786 0.49424 0.98932 0.0
C529 C 0.08603 0.52892 0.99075 0.0
C530 C 0.11592 0.5041 0.93214 0.0
C531 C 0.10046 0.55066 0.9624 0.0
C532 C 0.13794 0.51078 0.86951 0.0
C533 C 0.14126 0.44228 0.86956 0.0
N534 N 0.11445 0.53784 0.93422 0.0
N535 N 0.13186 0.4571 0.89878 0.0
H536 H 0.67318 0.86277 0.9779 0.0
H537 H 0.53934 0.98558 0.96284 0.0
H538 H 0.57593 0.83729 0.91313 0.0
H539 H 0.62363 0.99659 0.04112 0.0
H540 H 0.55879 0.93751 0.93662 0.0
H541 H 0.66151 0.91801 0.99397 0.0
C542 C 0.64941 0.86906 0.96702 0.0
C543 C 0.62519 0.84573 0.9446 0.0
C544 C 0.57325 0.95079 0.95929 0.0
C545 C 0.61154 0.9085 0.96263 0.0
C546 C 0.56237 0.97834 0.97409 0.0
C547 C 0.5797 0.99481 1.00436 0.0
C548 C 0.60182 0.94 0.97479 0.0
C549 C 0.60923 0.98432 1.01802 0.0
C550 C 0.64274 0.9005 0.97611 0.0
C551 C 0.59495 0.8548 0.93079 0.0
N552 N 0.61918 0.95749 1.00326 0.0
N553 N 0.58877 0.88555 0.94021 0.0
H554 H 0.96705 0.29109 0.43777 0.0
H555 H 0.92911 0.10016 0.51989 0.0
H556 H 0.85911 0.21548 0.44624 0.0
H557 H 0.03943 0.17018 0.5053 0.0
H558 H 0.90352 0.14309 0.49325 0.0
H559 H 0.99476 0.24845 0.46364 0.0
C560 C 0.94925 0.2656 0.44515 0.0
C561 C 0.91082 0.25664 0.43953 0.0
C562 C 0.93335 0.14911 0.49573 0.0
C563 C 0.94209 0.20794 0.4689 0.0
C564 C 0.94801 0.12453 0.51094 0.0
C565 C 0.98648 0.13157 0.51485 0.0
C566 C 0.95726 0.18115 0.48443 0.0
C567 C 0.00957 0.16364 0.50272 0.0
C568 C 0.96503 0.24125 0.4597 0.0
C569 C 0.88895 0.22326 0.44947 0.0
N570 N 0.99459 0.18735 0.48814 0.0
N571 N 0.90488 0.2002 0.46362 0.0
H572 H 0.27139 0.73326 0.2188 0.0
H573 H 0.1466 0.5566 0.12796 0.0
H574 H 0.30956 0.64194 0.20774 0.0
H575 H 0.12247 0.65584 0.12657 0.0
H576 H 0.20316 0.58411 0.1616 0.0
H577 H 0.21304 0.70168 0.19116 0.0
C578 C 0.26729 0.70632 0.21088 0.0
C579 C 0.29565 0.69038 0.21541 0.0
C580 C 0.18541 0.59977 0.1539 0.0
C581 C 0.22844 0.65379 0.18309 0.0
C582 C 0.15311 0.58411 0.13463 0.0
C583 C 0.12959 0.60389 0.12413 0.0
C584 C 0.19416 0.63541 0.16307 0.0
C585 C 0.13959 0.63942 0.13376 0.0
C586 C 0.23393 0.68828 0.19491 0.0
C587 C 0.28846 0.65523 0.2049 0.0
N588 N 0.17085 0.65386 0.15259 0.0
N589 N 0.25571 0.6382 0.18895 0.0
H590 H 0.23526 0.42009 0.64998 0.0
H591 H 0.44252 0.54762 0.66557 0.0
H592 H 0.28331 0.46254 0.74784 0.0
H593 H 0.3996 0.48547 0.57485 0.0
H594 H 0.38316 0.52226 0.69479 0.0
H595 H 0.29318 0.45001 0.62107 0.0
C596 C 0.25806 0.43583 0.66546 0.0
C597 C 0.25451 0.4382 0.70161 0.0
C598 C 0.38672 0.5142 0.66851 0.0
C599 C 0.32141 0.47306 0.66825 0.0
C600 C 0.42064 0.52869 0.65167 0.0
C601 C 0.42631 0.51864 0.61755 0.0
C602 C 0.35788 0.48963 0.65111 0.0
C603 C 0.39674 0.49399 0.6011 0.0
C604 C 0.29121 0.45294 0.64884 0.0
C605 C 0.28479 0.45982 0.72002 0.0
N606 N 0.36391 0.48044 0.61798 0.0
N607 N 0.31708 0.47622 0.70317 0.0
H608 H 0.72727 0.71013 0.94159 0.0
H609 H 0.94587 0.74148 0.94243 0.0
H610 H 0.80556 0.80245 0.89948 0.0
H611 H 0.87319 0.67362 1.01607 0.0
H612 H 0.89365 0.7605 0.92223 0.0
H613 H 0.77941 0.69237 0.96528 0.0
C614 C 0.7553 0.72667 0.93735 0.0
C615 C 0.76197 0.75755 0.91802 0.0
C616 C 0.8892 0.74153 0.94291 0.0
C617 C 0.82153 0.73723 0.94464 0.0
C618 C 0.91909 0.7308 0.95465 0.0
C619 C 0.91408 0.70584 0.98104 0.0
C620 C 0.85386 0.72695 0.95731 0.0
C621 C 0.87835 0.69242 0.99524 0.0
C622 C 0.785 0.71649 0.95081 0.0
C623 C 0.79897 0.77789 0.91327 0.0
N624 N 0.84955 0.70299 0.98306 0.0
N625 N 0.82727 0.76726 0.92627 0.0
H626 H 0.37875 0.78062 0.14851 0.0
H627 H 0.50507 0.98043 0.16279 0.0
H628 H 0.42805 0.82906 0.24397 0.0
H629 H 0.44774 0.93516 0.06935 0.0
H630 H 0.47805 0.92499 0.19246 0.0
H631 H 0.40447 0.83639 0.11893 0.0
C632 C 0.39476 0.80296 0.16341 0.0
C633 C 0.40099 0.79983 0.19902 0.0
C634 C 0.47127 0.92715 0.16549 0.0
C635 C 0.43118 0.86414 0.16485 0.0
C636 C 0.48673 0.95891 0.14844 0.0
C637 C 0.47877 0.96273 0.11336 0.0
C638 C 0.44767 0.89862 0.14748 0.0
C639 C 0.45472 0.93365 0.09636 0.0
C640 C 0.40965 0.83485 0.14636 0.0
C641 C 0.42276 0.82981 0.2165 0.0
N642 N 0.44017 0.90293 0.11351 0.0
N643 N 0.43696 0.86054 0.19931 0.0
H644 H 0.18055 0.33792 0.65173 0.0
H645 H 0.03464 0.1494 0.66388 0.0
H646 H 0.12375 0.30001 0.74742 0.0
H647 H 0.12575 0.17323 0.59137 0.0
H648 H 0.06185 0.20624 0.69213 0.0
H649 H 0.15578 0.27983 0.62655 0.0
C650 C 0.16329 0.31744 0.66778 0.0
C651 C 0.15492 0.32423 0.70224 0.0
C652 C 0.07596 0.19891 0.67018 0.0
C653 C 0.12516 0.2573 0.67256 0.0
C654 C 0.06042 0.16651 0.65394 0.0
C655 C 0.07792 0.15644 0.62516 0.0
C656 C 0.10887 0.22183 0.65715 0.0
C657 C 0.11136 0.17973 0.61355 0.0
C658 C 0.14891 0.28418 0.65312 0.0
C659 C 0.13095 0.29644 0.7208 0.0
N660 N 0.12551 0.21143 0.62934 0.0
N661 N 0.11683 0.26433 0.70571 0.0
H662 H 0.82957 0.3905 0.50732 0.0
H663 H 0.64472 0.42626 0.43506 0.0
H664 H 0.80651 0.39577 0.39865 0.0
H665 H 0.66456 0.41219 0.54331 0.0
H666 H 0.70371 0.41542 0.42096 0.0
H667 H 0.76975 0.40026 0.52106 0.0
C668 C 0.8119 0.39414 0.48643 0.0
C669 C 0.82268 0.3928 0.45194 0.0
C670 C 0.69508 0.41458 0.44778 0.0
C671 C 0.75435 0.40334 0.46713 0.0
C672 C 0.66122 0.42045 0.45584 0.0
C673 C 0.64965 0.42021 0.49045 0.0
C674 C 0.71762 0.4085 0.47452 0.0
C675 C 0.67258 0.41314 0.51632 0.0
C676 C 0.77775 0.39947 0.49419 0.0
C677 C 0.79899 0.39708 0.4256 0.0
N678 N 0.70549 0.4077 0.50783 0.0
N679 N 0.76579 0.40218 0.43373 0.0
loop_
_geom_bond_atom_site_label_1
_geom_bond_atom_site_label_2
_geom_bond_distance
_geom_bond_site_symmetry_2
_ccdc_geom_bond_type
H0 C3 0.929 . S
H1 C6 0.929 . S
H2 C8 0.930 . S
C3 H0 0.929 . S
C3 C4 1.398 . S
C3 C5 1.396 . S
C4 C3 1.398 . S
C4 C8 1.407 . S
C5 C3 1.396 . S
C5 C6 1.394 . S
C6 H1 0.929 . S
C6 C5 1.394 . S
C6 C7 1.382 . S
C7 C6 1.382 . S
C7 C8 1.392 . S
C7 N9 1.420 . S
C8 H2 0.930 . S
C8 C4 1.407 . S
C8 C7 1.392 . S
N9 C7 1.420 . S
N9 C10 1.244 . S
C10 N9 1.244 . S
H11 C14 0.929 . S
H12 C17 0.929 . S
H13 C19 0.930 . S
C14 H11 0.929 . S
C14 C15 1.398 . S
C14 C16 1.396 . S
C15 C14 1.398 . S
C15 C19 1.407 . S
C16 C14 1.396 . S
C16 C17 1.394 . S
C17 H12 0.929 . S
C17 C16 1.394 . S
C17 C18 1.382 . S
C18 C17 1.382 . S
C18 C19 1.392 . S
C18 N20 1.420 . S
C19 H13 0.930 . S
C19 C15 1.407 . S
C19 C18 1.392 . S
N20 C18 1.420 . S
N20 C21 1.244 . S
C21 N20 1.244 . S
H22 C25 0.929 . S
H23 C28 0.929 . S
H24 C30 0.930 . S
C25 H22 0.929 . S
C25 C26 1.398 . S
C25 C27 1.396 . S
C26 C25 1.398 . S
C26 C30 1.407 . S
C27 C25 1.396 . S
C27 C28 1.394 . S
C28 H23 0.929 . S
C28 C27 1.394 . S
C28 C29 1.382 . S
C29 C28 1.382 . S
C29 C30 1.392 . S
C29 N31 1.420 . S
C30 H24 0.930 . S
C30 C26 1.407 . S
C30 C29 1.392 . S
N31 C29 1.420 . S
N31 C32 1.244 . S
C32 N31 1.244 . S
H33 C36 0.929 . S
H34 C39 0.929 . S
H35 C41 0.930 . S
C36 H33 0.929 . S
C36 C37 1.398 . S
C36 C38 1.396 . S
C37 C36 1.398 . S
C37 C41 1.407 . S
C38 C36 1.396 . S
C38 C39 1.394 . S
C39 H34 0.929 . S
C39 C38 1.394 . S
C39 C40 1.382 . S
C40 C39 1.382 . S
C40 C41 1.392 . S
C40 N42 1.420 . S
C41 H35 0.930 . S
C41 C37 1.407 . S
C41 C40 1.392 . S
N42 C40 1.420 . S
N42 C43 1.244 . S
C43 N42 1.244 . S
H44 C47 0.929 . S
H45 C50 0.929 . S
H46 C52 0.930 . S
C47 H44 0.929 . S
C47 C48 1.398 . S
C47 C49 1.396 . S
C48 C47 1.398 . S
C48 C52 1.407 . S
C49 C47 1.396 . S
C49 C50 1.394 . S
C50 H45 0.929 . S
C50 C49 1.394 . S
C50 C51 1.382 . S
C51 C50 1.382 . S
C51 C52 1.392 . S
C51 N53 1.420 . S
C52 H46 0.930 . S
C52 C48 1.407 . S
C52 C51 1.392 . S
N53 C51 1.420 . S
N53 C54 1.244 . S
C54 N53 1.244 . S
H55 C58 0.929 . S
H56 C61 0.929 . S
H57 C63 0.930 . S
C58 H55 0.929 . S
C58 C59 1.398 . S
C58 C60 1.396 . S
C59 C58 1.398 . S
C59 C63 1.407 . S
C60 C58 1.396 . S
C60 C61 1.394 . S
C61 H56 0.929 . S
C61 C60 1.394 . S
C61 C62 1.382 . S
C62 C61 1.382 . S
C62 C63 1.392 . S
C62 N64 1.420 . S
C63 H57 0.930 . S
C63 C59 1.407 . S
C63 C62 1.392 . S
N64 C62 1.420 . S
N64 C65 1.244 . S
C65 N64 1.244 . S
H66 C69 0.929 . S
H67 C72 0.929 . S
H68 C74 0.930 . S
C69 H66 0.929 . S
C69 C70 1.398 . S
C69 C71 1.396 . S
C70 C69 1.398 . S
C70 C74 1.407 . S
C71 C69 1.396 . S
C71 C72 1.394 . S
C72 H67 0.929 . S
C72 C71 1.394 . S
C72 C73 1.382 . S
C73 C72 1.382 . S
C73 C74 1.392 . S
C73 N75 1.420 . S
C74 H68 0.930 . S
C74 C70 1.407 . S
C74 C73 1.392 . S
N75 C73 1.420 . S
N75 C76 1.244 . S
C76 N75 1.244 . S
H77 C80 0.929 . S
H78 C83 0.929 . S
H79 C85 0.930 . S
C80 H77 0.929 . S
C80 C81 1.398 . S
C80 C82 1.396 . S
C81 C80 1.398 . S
C81 C85 1.407 . S
C82 C80 1.396 . S
C82 C83 1.394 . S
C83 H78 0.929 . S
C83 C82 1.394 . S
C83 C84 1.382 . S
C84 C83 1.382 . S
C84 C85 1.392 . S
C84 N86 1.420 . S
C85 H79 0.930 . S
C85 C81 1.407 . S
C85 C84 1.392 . S
N86 C84 1.420 . S
N86 C87 1.244 . S
C87 N86 1.244 . S
Tb88 C97 2.764 . S
Tb88 O98 2.325 . S
Tb88 O101 2.303 . S
Tb88 O105 2.322 1_545 S
Tb88 O106 2.349 1_545 S
Tb88 O109 2.415 . S
Tb88 O110 2.399 . S
Tb89 O99 2.322 . S
Tb89 O100 2.349 1_655 S
Tb89 O102 2.415 1_545 S
Tb89 O103 2.399 . S
Tb89 O104 2.325 1_655 S
Tb89 O107 2.303 1_545 S
Tb89 C118 2.764 1_545 S
C90 O106 1.261 1_655 S
C90 O107 1.257 . S
C91 C94 1.358 . S
C91 C95 1.332 . S
C91 C97 1.504 . S
C92 C93 1.373 . S
C92 C96 1.308 . S
C93 C92 1.373 . S
C93 C94 1.429 . S
C93 H120 0.932 . S
C94 C91 1.358 . S
C94 C93 1.429 . S
C94 H121 0.930 . S
C95 C91 1.332 . S
C95 C96 1.394 . S
C95 H122 0.932 . S
C96 C92 1.308 . S
C96 C95 1.394 . S
C96 H123 0.929 . S
C97 Tb88 2.764 . S
C97 C91 1.504 . S
C97 O109 1.239 . S
C97 O110 1.263 . S
O98 Tb88 2.325 . S
O98 C108 1.236 1_455 S
O99 Tb89 2.322 . S
O99 C108 1.257 . S
O100 Tb89 2.349 1_455 S
O100 C111 1.261 . S
O101 Tb88 2.303 . S
O101 C111 1.257 . S
O102 Tb89 2.415 1_565 S
O102 C118 1.239 . S
O103 Tb89 2.399 . S
O103 C118 1.263 1_545 S
O104 Tb89 2.325 1_455 S
O104 C119 1.236 1_545 S
O105 Tb88 2.322 1_565 S
O105 C119 1.257 . S
O106 Tb88 2.349 1_565 S
O106 C90 1.261 1_455 S
O107 Tb89 2.303 1_565 S
O107 C90 1.257 . S
C108 O98 1.236 1_655 S
C108 O99 1.257 . S
O109 Tb88 2.415 . S
O109 C97 1.239 . S
O110 Tb88 2.399 . S
O110 C97 1.263 . S
C111 O100 1.261 . S
C111 O101 1.257 . S
C112 C115 1.358 . S
C112 C116 1.332 . S
C112 C118 1.504 . S
C113 C114 1.373 . S
C113 C117 1.308 . S
C114 C113 1.373 . S
C114 C115 1.429 . S
C114 H124 0.932 . S
C115 C112 1.358 . S
C115 C114 1.429 . S
C115 H125 0.957 . S
C116 C112 1.332 . S
C116 C117 1.394 . S
C116 H126 0.932 . S
C117 C113 1.308 . S
C117 C116 1.394 . S
C117 H127 0.929 . S
C118 Tb89 2.764 1_565 S
C118 O102 1.239 . S
C118 O103 1.263 1_565 S
C118 C112 1.504 . S
C119 O104 1.236 1_565 S
C119 O105 1.257 . S
H120 C93 0.932 . S
H121 C94 0.930 . S
H122 C95 0.932 . S
H123 C96 0.929 . S
H124 C114 0.932 . S
H125 C115 0.957 . S
H126 C116 0.932 . S
H127 C117 0.929 . S
Tb128 C137 2.764 . S
Tb128 O138 2.325 . S
Tb128 O141 2.303 . S
Tb128 O145 2.322 1_545 S
Tb128 O146 2.349 . S
Tb128 O149 2.415 . S
Tb128 O150 2.399 . S
Tb129 O139 2.322 . S
Tb129 O140 2.349 . S
Tb129 O142 2.415 1_544 S
Tb129 O143 2.399 1_544 S
Tb129 O144 2.325 1_545 S
Tb129 O147 2.303 . S
Tb129 C158 2.764 1_544 S
C130 O146 1.261 1_565 S
C130 O147 1.257 1_565 S
C131 C134 1.358 . S
C131 C135 1.332 . S
C131 C137 1.504 . S
C132 C133 1.373 . S
C132 C136 1.308 . S
C133 C132 1.373 . S
C133 C134 1.429 . S
C133 H160 0.932 . S
C134 C131 1.358 . S
C134 C133 1.429 . S
C134 H161 0.930 . S
C135 C131 1.332 . S
C135 C136 1.394 . S
C135 H162 0.932 . S
C136 C132 1.308 . S
C136 C135 1.394 . S
C136 H163 0.929 . S
C137 Tb128 2.764 . S
C137 C131 1.504 . S
C137 O149 1.239 . S
C137 O150 1.263 . S
O138 Tb128 2.325 . S
O138 C148 1.236 . S
O139 Tb129 2.322 . S
O139 C148 1.257 . S
O140 Tb129 2.349 . S
O140 C151 1.261 . S
O141 Tb128 2.303 . S
O141 C151 1.257 . S
O142 Tb129 2.415 1_566 S
O142 C158 1.239 . S
O143 Tb129 2.399 1_566 S
O143 C158 1.263 . S
O144 Tb129 2.325 1_565 S
O144 C159 1.236 . S
O145 Tb128 2.322 1_565 S
O145 C159 1.257 . S
O146 Tb128 2.349 . S
O146 C130 1.261 1_545 S
O147 Tb129 2.303 . S
O147 C130 1.257 1_545 S
C148 O138 1.236 . S
C148 O139 1.257 . S
O149 Tb128 2.415 . S
O149 C137 1.239 . S
O150 Tb128 2.399 . S
O150 C137 1.263 . S
C151 O140 1.261 . S
C151 O141 1.257 . S
C152 C155 1.358 . S
C152 C156 1.332 . S
C152 C158 1.504 . S
C153 C154 1.373 . S
C153 C157 1.308 . S
C154 C153 1.373 . S
C154 C155 1.429 . S
C154 H164 0.932 . S
C155 C152 1.358 . S
C155 C154 1.429 . S
C155 H165 0.930 . S
C156 C152 1.332 . S
C156 C157 1.394 . S
C156 H166 0.932 . S
C157 C153 1.308 . S
C157 C156 1.394 . S
C157 H167 0.929 . S
C158 Tb129 2.764 1_566 S
C158 O142 1.239 . S
C158 O143 1.263 . S
C158 C152 1.504 . S
C159 O144 1.236 . S
C159 O145 1.257 . S
H160 C133 0.932 . S
H161 C134 0.930 . S
H162 C135 0.932 . S
H163 C136 0.929 . S
H164 C154 0.932 . S
H165 C155 0.930 . S
H166 C156 0.932 . S
H167 C157 0.929 . S
Tb168 C177 2.764 . S
Tb168 O178 2.325 . S
Tb168 O181 2.303 . S
Tb168 O185 2.322 . S
Tb168 O186 2.349 . S
Tb168 O189 2.415 . S
Tb168 O190 2.399 . S
Tb169 O179 2.322 . S
Tb169 O180 2.349 . S
Tb169 O182 2.415 . S
Tb169 O183 2.399 . S
Tb169 O184 2.325 . S
Tb169 O187 2.303 . S
Tb169 C198 2.764 . S
C170 O186 1.261 . S
C170 O187 1.257 . S
C171 C174 1.358 . S
C171 C175 1.332 . S
C171 C177 1.504 . S
C172 C173 1.373 . S
C172 C176 1.308 . S
C173 C172 1.373 . S
C173 C174 1.429 . S
C173 H200 0.932 . S
C174 C171 1.358 . S
C174 C173 1.429 . S
C174 H201 0.930 . S
C175 C171 1.332 . S
C175 C176 1.394 . S
C175 H202 0.932 . S
C176 C172 1.308 . S
C176 C175 1.394 . S
C176 H203 0.929 . S
C177 Tb168 2.764 . S
C177 C171 1.504 . S
C177 O189 1.239 . S
C177 O190 1.263 . S
O178 Tb168 2.325 . S
O178 C188 1.236 . S
O179 Tb169 2.322 . S
O179 C188 1.257 . S
O180 Tb169 2.349 . S
O180 C191 1.261 . S
O181 Tb168 2.303 . S
O181 C191 1.257 . S
O182 Tb169 2.415 . S
O182 C198 1.239 . S
O183 Tb169 2.399 . S
O183 C198 1.263 . S
O184 Tb169 2.325 . S
O184 C199 1.236 . S
O185 Tb168 2.322 . S
O185 C199 1.257 . S
O186 Tb168 2.349 . S
O186 C170 1.261 . S
O187 Tb169 2.303 . S
O187 C170 1.257 . S
C188 O178 1.236 . S
C188 O179 1.257 . S
O189 Tb168 2.415 . S
O189 C177 1.239 . S
O190 Tb168 2.399 . S
O190 C177 1.263 . S
C191 O180 1.261 . S
C191 O181 1.257 . S
C192 C195 1.358 . S
C192 C196 1.332 . S
C192 C198 1.504 . S
C193 C194 1.373 . S
C193 C197 1.308 . S
C194 C193 1.373 . S
C194 C195 1.429 . S
C194 H204 0.932 . S
C195 C192 1.358 . S
C195 C194 1.429 . S
C195 H205 0.930 . S
C196 C192 1.332 . S
C196 C197 1.394 . S
C196 H206 0.932 . S
C197 C193 1.308 . S
C197 C196 1.394 . S
C197 H207 0.929 . S
C198 Tb169 2.764 . S
C198 O182 1.239 . S
C198 O183 1.263 . S
C198 C192 1.504 . S
C199 O184 1.236 . S
C199 O185 1.257 . S
H200 C173 0.932 . S
H201 C174 0.930 . S
H202 C175 0.932 . S
H203 C176 0.929 . S
H204 C194 0.932 . S
H205 C195 0.930 . S
H206 C196 0.932 . S
H207 C197 0.929 . S
Tb208 C217 2.764 1_455 S
Tb208 O218 2.325 1_455 S
Tb208 O221 2.303 1_556 S
Tb208 O225 2.322 1_556 S
Tb208 O226 2.349 . S
Tb208 O229 2.415 1_455 S
Tb208 O230 2.399 . S
Tb209 O219 2.322 1_455 S
Tb209 O220 2.349 . S
Tb209 O222 2.415 . S
Tb209 O223 2.399 . S
Tb209 O224 2.325 . S
Tb209 O227 2.303 1_554 S
Tb209 C238 2.764 . S
C210 O226 1.261 . S
C210 O227 1.257 . S
C211 C214 1.358 . S
C211 C215 1.332 . S
C211 C217 1.504 . S
C212 C213 1.373 . S
C212 C216 1.308 . S
C213 C212 1.373 . S
C213 C214 1.429 . S
C213 H240 0.932 . S
C214 C211 1.358 . S
C214 C213 1.429 . S
C214 H241 0.930 . S
C215 C211 1.332 . S
C215 C216 1.394 . S
C215 H242 0.932 . S
C216 C212 1.308 . S
C216 C215 1.394 . S
C216 H243 0.929 . S
C217 Tb208 2.764 1_655 S
C217 C211 1.504 . S
C217 O229 1.239 . S
C217 O230 1.263 1_655 S
O218 Tb208 2.325 1_655 S
O218 C228 1.236 . S
O219 Tb209 2.322 1_655 S
O219 C228 1.257 1_554 S
O220 Tb209 2.349 . S
O220 C231 1.261 . S
O221 Tb208 2.303 1_554 S
O221 C231 1.257 . S
O222 Tb209 2.415 . S
O222 C238 1.239 . S
O223 Tb209 2.399 . S
O223 C238 1.263 . S
O224 Tb209 2.325 . S
O224 C239 1.236 . S
O225 Tb208 2.322 1_554 S
O225 C239 1.257 . S
O226 Tb208 2.349 . S
O226 C210 1.261 . S
O227 Tb209 2.303 1_556 S
O227 C210 1.257 . S
C228 O218 1.236 . S
C228 O219 1.257 1_556 S
O229 Tb208 2.415 1_655 S
O229 C217 1.239 . S
O230 Tb208 2.399 . S
O230 C217 1.263 1_455 S
C231 O220 1.261 . S
C231 O221 1.257 . S
C232 C235 1.358 . S
C232 C236 1.332 . S
C232 C238 1.504 . S
C233 C234 1.373 . S
C233 C237 1.308 . S
C234 C233 1.373 . S
C234 C235 1.429 . S
C234 H244 0.932 . S
C235 C232 1.358 . S
C235 C234 1.429 . S
C235 H245 0.930 . S
C236 C232 1.332 . S
C236 C237 1.394 . S
C236 H246 0.932 . S
C237 C233 1.308 . S
C237 C236 1.394 . S
C237 H247 0.929 . S
C238 Tb209 2.764 . S
C238 O222 1.239 . S
C238 O223 1.263 . S
C238 C232 1.504 . S
C239 O224 1.236 . S
C239 O225 1.257 . S
H240 C213 0.932 . S
H241 C214 0.930 . S
H242 C215 0.932 . S
H243 C216 0.929 . S
H244 C234 0.932 . S
H245 C235 0.930 . S
H246 C236 0.932 . S
H247 C237 0.929 . S
H248 C254 0.930 . S
H249 C258 0.930 . S
H250 C263 0.929 . S
H251 C261 0.929 . S
H252 C256 0.929 . S
H253 C262 0.929 . S
C254 H248 0.930 . S
C254 C255 1.367 . S
C254 C262 1.378 . S
C255 C254 1.367 . S
C255 C263 1.433 . S
C256 H252 0.929 . S
C256 C258 1.378 . S
C256 C260 1.350 . S
C257 C260 1.463 . S
C257 C262 1.350 . S
C257 N265 1.427 . S
C258 H249 0.930 . S
C258 C256 1.378 . S
C258 C259 1.367 . S
C259 C258 1.367 . S
C259 C261 1.433 . S
C260 C256 1.350 . S
C260 C257 1.463 . S
C260 N264 1.427 . S
C261 H251 0.929 . S
C261 C259 1.433 . S
C261 N264 1.384 . S
C262 H253 0.929 . S
C262 C254 1.378 . S
C262 C257 1.350 . S
C263 H250 0.929 . S
C263 C255 1.433 . S
C263 N265 1.384 . S
N264 C260 1.427 . S
N264 C261 1.384 . S
N265 C257 1.427 . S
N265 C263 1.384 . S
H266 C272 0.930 . S
H267 C276 0.930 . S
H268 C281 0.929 . S
H269 C279 0.929 . S
H270 C274 0.929 . S
H271 C280 0.929 . S
C272 H266 0.930 . S
C272 C273 1.367 . S
C272 C280 1.378 . S
C273 C272 1.367 . S
C273 C281 1.433 . S
C274 H270 0.929 . S
C274 C276 1.378 . S
C274 C278 1.350 . S
C275 C278 1.463 . S
C275 C280 1.350 . S
C275 N283 1.427 . S
C276 H267 0.930 . S
C276 C274 1.378 . S
C276 C277 1.367 . S
C277 C276 1.367 . S
C277 C279 1.433 . S
C278 C274 1.350 . S
C278 C275 1.463 . S
C278 N282 1.427 . S
C279 H269 0.929 . S
C279 C277 1.433 . S
C279 N282 1.384 . S
C280 H271 0.929 . S
C280 C272 1.378 . S
C280 C275 1.350 . S
C281 H268 0.929 . S
C281 C273 1.433 . S
C281 N283 1.384 . S
N282 C278 1.427 . S
N282 C279 1.384 . S
N283 C275 1.427 . S
N283 C281 1.384 . S
H284 C290 0.930 . S
H285 C294 0.930 . S
H286 C299 0.929 . S
H287 C297 0.929 . S
H288 C292 0.929 . S
H289 C298 0.929 . S
C290 H284 0.930 . S
C290 C291 1.367 . S
C290 C298 1.378 . S
C291 C290 1.367 . S
C291 C299 1.433 . S
C292 H288 0.929 . S
C292 C294 1.378 . S
C292 C296 1.350 . S
C293 C296 1.463 . S
C293 C298 1.350 . S
C293 N301 1.427 . S
C294 H285 0.930 . S
C294 C292 1.378 . S
C294 C295 1.367 . S
C295 C294 1.367 . S
C295 C297 1.433 . S
C296 C292 1.350 . S
C296 C293 1.463 . S
C296 N300 1.427 . S
C297 H287 0.929 . S
C297 C295 1.433 . S
C297 N300 1.384 . S
C298 H289 0.929 . S
C298 C290 1.378 . S
C298 C293 1.350 . S
C299 H286 0.929 . S
C299 C291 1.433 . S
C299 N301 1.384 . S
N300 C296 1.427 . S
N300 C297 1.384 . S
N301 C293 1.427 . S
N301 C299 1.384 . S
H302 C308 0.930 . S
H303 C312 0.930 . S
H304 C317 0.929 . S
H305 C315 0.929 1_455 S
H306 C310 0.929 . S
H307 C316 0.929 . S
C308 H302 0.930 . S
C308 C309 1.367 . S
C308 C316 1.378 . S
C309 C308 1.367 . S
C309 C317 1.433 . S
C310 H306 0.929 . S
C310 C312 1.378 . S
C310 C314 1.350 . S
C311 C314 1.463 . S
C311 C316 1.350 . S
C311 N319 1.427 . S
C312 H303 0.930 . S
C312 C310 1.378 . S
C312 C313 1.367 . S
C313 C312 1.367 . S
C313 C315 1.433 . S
C314 C310 1.350 . S
C314 C311 1.463 . S
C314 N318 1.427 . S
C315 H305 0.929 1_655 S
C315 C313 1.433 . S
C315 N318 1.384 . S
C316 H307 0.929 . S
C316 C308 1.378 . S
C316 C311 1.350 . S
C317 H304 0.929 . S
C317 C309 1.433 . S
C317 N319 1.384 . S
N318 C314 1.427 . S
N318 C315 1.384 . S
N319 C311 1.427 . S
N319 C317 1.384 . S
H320 C326 0.930 . S
H321 C330 0.930 . S
H322 C335 0.929 . S
H323 C333 0.929 . S
H324 C328 0.929 . S
H325 C334 0.929 . S
C326 H320 0.930 . S
C326 C327 1.367 . S
C326 C334 1.378 . S
C327 C326 1.367 . S
C327 C335 1.433 . S
C328 H324 0.929 . S
C328 C330 1.378 . S
C328 C332 1.350 . S
C329 C332 1.463 . S
C329 C334 1.350 . S
C329 N337 1.427 . S
C330 H321 0.930 . S
C330 C328 1.378 . S
C330 C331 1.367 . S
C331 C330 1.367 . S
C331 C333 1.433 . S
C332 C328 1.350 . S
C332 C329 1.463 . S
C332 N336 1.427 . S
C333 H323 0.929 . S
C333 C331 1.433 . S
C333 N336 1.384 . S
C334 H325 0.929 . S
C334 C326 1.378 . S
C334 C329 1.350 . S
C335 H322 0.929 . S
C335 C327 1.433 . S
C335 N337 1.384 . S
N336 C332 1.427 . S
N336 C333 1.384 . S
N337 C329 1.427 . S
N337 C335 1.384 . S
H338 C344 0.930 . S
H339 C348 0.930 . S
H340 C353 0.929 . S
H341 C351 0.929 . S
H342 C346 0.929 . S
H343 C352 0.929 . S
C344 H338 0.930 . S
C344 C345 1.367 . S
C344 C352 1.378 . S
C345 C344 1.367 . S
C345 C353 1.433 . S
C346 H342 0.929 . S
C346 C348 1.378 . S
C346 C350 1.350 . S
C347 C350 1.463 . S
C347 C352 1.350 . S
C347 N355 1.427 . S
C348 H339 0.930 . S
C348 C346 1.378 . S
C348 C349 1.367 . S
C349 C348 1.367 . S
C349 C351 1.433 . S
C350 C346 1.350 . S
C350 C347 1.463 . S
C350 N354 1.427 . S
C351 H341 0.929 . S
C351 C349 1.433 . S
C351 N354 1.384 . S
C352 H343 0.929 . S
C352 C344 1.378 . S
C352 C347 1.350 . S
C353 H340 0.929 . S
C353 C345 1.433 . S
C353 N355 1.384 . S
N354 C350 1.427 . S
N354 C351 1.384 . S
N355 C347 1.427 . S
N355 C353 1.384 . S
H356 C362 0.930 . S
H357 C366 0.930 . S
H358 C371 0.929 . S
H359 C369 0.929 1_554 S
H360 C364 0.929 . S
H361 C370 0.929 . S
C362 H356 0.930 . S
C362 C363 1.367 . S
C362 C370 1.378 . S
C363 C362 1.367 . S
C363 C371 1.433 . S
C364 H360 0.929 . S
C364 C366 1.378 . S
C364 C368 1.350 . S
C365 C368 1.463 . S
C365 C370 1.350 . S
C365 N373 1.427 . S
C366 H357 0.930 . S
C366 C364 1.378 . S
C366 C367 1.367 . S
C367 C366 1.367 . S
C367 C369 1.433 . S
C368 C364 1.350 . S
C368 C365 1.463 . S
C368 N372 1.427 . S
C369 H359 0.929 1_556 S
C369 C367 1.433 . S
C369 N372 1.384 . S
C370 H361 0.929 . S
C370 C362 1.378 . S
C370 C365 1.350 . S
C371 H358 0.929 . S
C371 C363 1.433 . S
C371 N373 1.384 . S
N372 C368 1.427 . S
N372 C369 1.384 . S
N373 C365 1.427 . S
N373 C371 1.384 . S
H374 C380 0.930 . S
H375 C384 0.930 . S
H376 C389 0.929 . S
H377 C387 0.929 . S
H378 C382 0.929 . S
H379 C388 0.929 . S
C380 H374 0.930 . S
C380 C381 1.367 . S
C380 C388 1.378 . S
C381 C380 1.367 . S
C381 C389 1.433 . S
C382 H378 0.929 . S
C382 C384 1.378 . S
C382 C386 1.350 . S
C383 C386 1.463 . S
C383 C388 1.350 . S
C383 N391 1.427 . S
C384 H375 0.930 . S
C384 C382 1.378 . S
C384 C385 1.367 . S
C385 C384 1.367 . S
C385 C387 1.433 . S
C386 C382 1.350 . S
C386 C383 1.463 . S
C386 N390 1.427 . S
C387 H377 0.929 . S
C387 C385 1.433 . S
C387 N390 1.384 . S
C388 H379 0.929 . S
C388 C380 1.378 . S
C388 C383 1.350 . S
C389 H376 0.929 . S
C389 C381 1.433 . S
C389 N391 1.384 . S
N390 C386 1.427 . S
N390 C387 1.384 . S
N391 C383 1.427 . S
N391 C389 1.384 . S
H392 C398 0.930 . S
H393 C402 0.930 . S
H394 C407 0.929 . S
H395 C405 0.929 . S
H396 C400 0.929 . S
H397 C406 0.929 . S
C398 H392 0.930 . S
C398 C399 1.367 . S
C398 C406 1.378 . S
C399 C398 1.367 . S
C399 C407 1.433 . S
C400 H396 0.929 . S
C400 C402 1.378 . S
C400 C404 1.350 . S
C401 C404 1.463 . S
C401 C406 1.350 . S
C401 N409 1.427 . S
C402 H393 0.930 . S
C402 C400 1.378 . S
C402 C403 1.367 . S
C403 C402 1.367 . S
C403 C405 1.433 . S
C404 C400 1.350 . S
C404 C401 1.463 . S
C404 N408 1.427 . S
C405 H395 0.929 . S
C405 C403 1.433 . S
C405 N408 1.384 . S
C406 H397 0.929 . S
C406 C398 1.378 . S
C406 C401 1.350 . S
C407 H394 0.929 . S
C407 C399 1.433 . S
C407 N409 1.384 . S
N408 C404 1.427 . S
N408 C405 1.384 . S
N409 C401 1.427 . S
N409 C407 1.384 . S
H410 C416 0.930 . S
H411 C420 0.930 . S
H412 C425 0.929 . S
H413 C423 0.929 . S
H414 C418 0.929 . S
H415 C424 0.929 1_554 S
C416 H410 0.930 . S
C416 C417 1.367 . S
C416 C424 1.378 . S
C417 C416 1.367 . S
C417 C425 1.433 . S
C418 H414 0.929 . S
C418 C420 1.378 . S
C418 C422 1.350 . S
C419 C422 1.463 . S
C419 C424 1.350 . S
C419 N427 1.427 . S
C420 H411 0.930 . S
C420 C418 1.378 . S
C420 C421 1.367 1_556 S
C421 C420 1.367 1_554 S
C421 C423 1.433 . S
C422 C418 1.350 . S
C422 C419 1.463 . S
C422 N426 1.427 1_556 S
C423 H413 0.929 . S
C423 C421 1.433 . S
C423 N426 1.384 . S
C424 H415 0.929 1_556 S
C424 C416 1.378 . S
C424 C419 1.350 . S
C425 H412 0.929 . S
C425 C417 1.433 . S
C425 N427 1.384 . S
N426 C422 1.427 1_554 S
N426 C423 1.384 . S
N427 C419 1.427 . S
N427 C425 1.384 . S
H428 C434 0.930 . S
H429 C438 0.930 . S
H430 C443 0.929 . S
H431 C441 0.929 . S
H432 C436 0.929 . S
H433 C442 0.929 . S
C434 H428 0.930 . S
C434 C435 1.367 . S
C434 C442 1.378 . S
C435 C434 1.367 . S
C435 C443 1.433 . S
C436 H432 0.929 . S
C436 C438 1.378 . S
C436 C440 1.350 . S
C437 C440 1.463 . S
C437 C442 1.350 . S
C437 N445 1.427 . S
C438 H429 0.930 . S
C438 C436 1.378 . S
C438 C439 1.367 . S
C439 C438 1.367 . S
C439 C441 1.433 . S
C440 C436 1.350 . S
C440 C437 1.463 . S
C440 N444 1.427 . S
C441 H431 0.929 . S
C441 C439 1.433 . S
C441 N444 1.384 . S
C442 H433 0.929 . S
C442 C434 1.378 . S
C442 C437 1.350 . S
C443 H430 0.929 . S
C443 C435 1.433 . S
C443 N445 1.384 . S
N444 C440 1.427 . S
N444 C441 1.384 . S
N445 C437 1.427 . S
N445 C443 1.384 . S
H446 C452 0.930 . S
H447 C456 0.930 . S
H448 C461 0.929 . S
H449 C459 0.929 . S
H450 C454 0.929 . S
H451 C460 0.929 . S
C452 H446 0.930 . S
C452 C453 1.367 . S
C452 C460 1.378 . S
C453 C452 1.367 . S
C453 C461 1.433 . S
C454 H450 0.929 . S
C454 C456 1.378 . S
C454 C458 1.350 . S
C455 C458 1.463 . S
C455 C460 1.350 . S
C455 N463 1.427 . S
C456 H447 0.930 . S
C456 C454 1.378 . S
C456 C457 1.367 . S
C457 C456 1.367 . S
C457 C459 1.433 . S
C458 C454 1.350 . S
C458 C455 1.463 . S
C458 N462 1.427 . S
C459 H449 0.929 . S
C459 C457 1.433 . S
C459 N462 1.384 . S
C460 H451 0.929 . S
C460 C452 1.378 . S
C460 C455 1.350 . S
C461 H448 0.929 . S
C461 C453 1.433 . S
C461 N463 1.384 . S
N462 C458 1.427 . S
N462 C459 1.384 . S
N463 C455 1.427 . S
N463 C461 1.384 . S
H464 C470 0.930 . S
H465 C474 0.930 . S
H466 C479 0.929 . S
H467 C477 0.929 . S
H468 C472 0.929 . S
H469 C478 0.929 . S
C470 H464 0.930 . S
C470 C471 1.367 . S
C470 C478 1.378 . S
C471 C470 1.367 . S
C471 C479 1.433 . S
C472 H468 0.929 . S
C472 C474 1.378 . S
C472 C476 1.350 . S
C473 C476 1.463 . S
C473 C478 1.350 . S
C473 N481 1.427 . S
C474 H465 0.930 . S
C474 C472 1.378 . S
C474 C475 1.367 . S
C475 C474 1.367 . S
C475 C477 1.433 . S
C476 C472 1.350 . S
C476 C473 1.463 . S
C476 N480 1.427 . S
C477 H467 0.929 . S
C477 C475 1.433 . S
C477 N480 1.384 . S
C478 H469 0.929 . S
C478 C470 1.378 . S
C478 C473 1.350 . S
C479 H466 0.929 . S
C479 C471 1.433 . S
C479 N481 1.384 . S
N480 C476 1.427 . S
N480 C477 1.384 . S
N481 C473 1.427 . S
N481 C479 1.384 . S
H482 C488 0.930 . S
H483 C492 0.930 . S
H484 C497 0.929 . S
H485 C495 0.929 . S
H486 C490 0.929 . S
H487 C496 0.929 . S
C488 H482 0.930 . S
C488 C489 1.367 . S
C488 C496 1.378 . S
C489 C488 1.367 . S
C489 C497 1.433 . S
C490 H486 0.929 . S
C490 C492 1.378 . S
C490 C494 1.350 . S
C491 C494 1.463 . S
C491 C496 1.350 . S
C491 N499 1.427 . S
C492 H483 0.930 . S
C492 C490 1.378 . S
C492 C493 1.367 . S
C493 C492 1.367 . S
C493 C495 1.433 . S
C494 C490 1.350 . S
C494 C491 1.463 . S
C494 N498 1.427 . S
C495 H485 0.929 . S
C495 C493 1.433 . S
C495 N498 1.384 . S
C496 H487 0.929 . S
C496 C488 1.378 . S
C496 C491 1.350 . S
C497 H484 0.929 . S
C497 C489 1.433 . S
C497 N499 1.384 . S
N498 C494 1.427 . S
N498 C495 1.384 . S
N499 C491 1.427 . S
N499 C497 1.384 . S
H500 C506 0.930 . S
H501 C510 0.930 . S
H502 C515 0.929 . S
H503 C513 0.929 . S
H504 C508 0.929 . S
H505 C514 0.929 . S
C506 H500 0.930 . S
C506 C507 1.367 . S
C506 C514 1.378 . S
C507 C506 1.367 . S
C507 C515 1.433 . S
C508 H504 0.929 . S
C508 C510 1.378 . S
C508 C512 1.350 . S
C509 C512 1.463 . S
C509 C514 1.350 . S
C509 N517 1.427 . S
C510 H501 0.930 . S
C510 C508 1.378 . S
C510 C511 1.367 . S
C511 C510 1.367 . S
C511 C513 1.433 . S
C512 C508 1.350 . S
C512 C509 1.463 . S
C512 N516 1.427 . S
C513 H503 0.929 . S
C513 C511 1.433 . S
C513 N516 1.384 . S
C514 H505 0.929 . S
C514 C506 1.378 . S
C514 C509 1.350 . S
C515 H502 0.929 . S
C515 C507 1.433 . S
C515 N517 1.384 . S
N516 C512 1.427 . S
N516 C513 1.384 . S
N517 C509 1.427 . S
N517 C515 1.384 . S
H518 C524 0.930 . S
H519 C528 0.930 . S
H520 C533 0.929 . S
H521 C531 0.929 . S
H522 C526 0.929 . S
H523 C532 0.929 . S
C524 H518 0.930 . S
C524 C525 1.367 . S
C524 C532 1.378 . S
C525 C524 1.367 . S
C525 C533 1.433 . S
C526 H522 0.929 . S
C526 C528 1.378 . S
C526 C530 1.350 . S
C527 C530 1.463 . S
C527 C532 1.350 . S
C527 N535 1.427 . S
C528 H519 0.930 . S
C528 C526 1.378 . S
C528 C529 1.367 . S
C529 C528 1.367 . S
C529 C531 1.433 . S
C530 C526 1.350 . S
C530 C527 1.463 . S
C530 N534 1.427 . S
C531 H521 0.929 . S
C531 C529 1.433 . S
C531 N534 1.384 . S
C532 H523 0.929 . S
C532 C524 1.378 . S
C532 C527 1.350 . S
C533 H520 0.929 . S
C533 C525 1.433 . S
C533 N535 1.384 . S
N534 C530 1.427 . S
N534 C531 1.384 . S
N535 C527 1.427 . S
N535 C533 1.384 . S
H536 C542 0.930 . S
H537 C546 0.930 . S
H538 C551 0.929 . S
H539 C549 0.929 . S
H540 C544 0.929 . S
H541 C550 0.929 . S
C542 H536 0.930 . S
C542 C543 1.367 . S
C542 C550 1.378 . S
C543 C542 1.367 . S
C543 C551 1.433 . S
C544 H540 0.929 . S
C544 C546 1.378 . S
C544 C548 1.350 . S
C545 C548 1.463 . S
C545 C550 1.350 . S
C545 N553 1.427 . S
C546 H537 0.930 . S
C546 C544 1.378 . S
C546 C547 1.367 1_556 S
C547 C546 1.367 1_554 S
C547 C549 1.433 . S
C548 C544 1.350 . S
C548 C545 1.463 . S
C548 N552 1.418 1_556 S
C549 H539 0.929 . S
C549 C547 1.433 . S
C549 N552 1.390 . S
C550 H541 0.929 . S
C550 C542 1.378 . S
C550 C545 1.350 . S
C551 H538 0.929 . S
C551 C543 1.433 . S
C551 N553 1.384 . S
N552 C548 1.418 1_554 S
N552 C549 1.390 . S
N553 C545 1.427 . S
N553 C551 1.384 . S
H554 C560 0.930 . S
H555 C564 0.930 . S
H556 C569 0.929 . S
H557 C567 0.929 1_455 S
H558 C562 0.929 . S
H559 C568 0.929 . S
C560 H554 0.930 . S
C560 C561 1.367 . S
C560 C568 1.378 . S
C561 C560 1.367 . S
C561 C569 1.433 . S
C562 H558 0.929 . S
C562 C564 1.378 . S
C562 C566 1.350 . S
C563 C566 1.463 . S
C563 C568 1.350 . S
C563 N571 1.427 . S
C564 H555 0.930 . S
C564 C562 1.378 . S
C564 C565 1.367 . S
C565 C564 1.367 . S
C565 C567 1.433 . S
C566 C562 1.350 . S
C566 C563 1.463 . S
C566 N570 1.427 . S
C567 H557 0.929 1_655 S
C567 C565 1.433 . S
C567 N570 1.384 . S
C568 H559 0.929 . S
C568 C560 1.378 . S
C568 C563 1.350 . S
C569 H556 0.929 . S
C569 C561 1.433 . S
C569 N571 1.384 . S
N570 C566 1.427 . S
N570 C567 1.384 . S
N571 C563 1.427 . S
N571 C569 1.384 . S
H572 C578 0.930 . S
H573 C582 0.930 . S
H574 C587 0.929 . S
H575 C585 0.929 . S
H576 C580 0.929 . S
H577 C586 0.929 . S
C578 H572 0.930 . S
C578 C579 1.367 . S
C578 C586 1.378 . S
C579 C578 1.367 . S
C579 C587 1.433 . S
C580 H576 0.929 . S
C580 C582 1.378 . S
C580 C584 1.350 . S
C581 C584 1.463 . S
C581 C586 1.350 . S
C581 N589 1.427 . S
C582 H573 0.930 . S
C582 C580 1.378 . S
C582 C583 1.367 . S
C583 C582 1.367 . S
C583 C585 1.433 . S
C584 C580 1.350 . S
C584 C581 1.463 . S
C584 N588 1.427 . S
C585 H575 0.929 . S
C585 C583 1.433 . S
C585 N588 1.384 . S
C586 H577 0.929 . S
C586 C578 1.378 . S
C586 C581 1.350 . S
C587 H574 0.929 . S
C587 C579 1.433 . S
C587 N589 1.384 . S
N588 C584 1.427 . S
N588 C585 1.384 . S
N589 C581 1.427 . S
N589 C587 1.384 . S
H590 C596 0.930 . S
H591 C600 0.930 . S
H592 C605 0.929 . S
H593 C603 0.929 . S
H594 C598 0.929 . S
H595 C604 0.929 . S
C596 H590 0.930 . S
C596 C597 1.367 . S
C596 C604 1.378 . S
C597 C596 1.367 . S
C597 C605 1.433 . S
C598 H594 0.929 . S
C598 C600 1.378 . S
C598 C602 1.350 . S
C599 C602 1.463 . S
C599 C604 1.350 . S
C599 N607 1.427 . S
C600 H591 0.930 . S
C600 C598 1.378 . S
C600 C601 1.367 . S
C601 C600 1.367 . S
C601 C603 1.433 . S
C602 C598 1.350 . S
C602 C599 1.463 . S
C602 N606 1.427 . S
C603 H593 0.929 . S
C603 C601 1.433 . S
C603 N606 1.384 . S
C604 H595 0.929 . S
C604 C596 1.378 . S
C604 C599 1.350 . S
C605 H592 0.929 . S
C605 C597 1.433 . S
C605 N607 1.384 . S
N606 C602 1.427 . S
N606 C603 1.384 . S
N607 C599 1.427 . S
N607 C605 1.384 . S
H608 C614 0.930 . S
H609 C618 0.930 . S
H610 C623 0.929 . S
H611 C621 0.929 . S
H612 C616 0.929 . S
H613 C622 0.929 . S
C614 H608 0.930 . S
C614 C615 1.367 . S
C614 C622 1.378 . S
C615 C614 1.367 . S
C615 C623 1.433 . S
C616 H612 0.929 . S
C616 C618 1.378 . S
C616 C620 1.350 . S
C617 C620 1.463 . S
C617 C622 1.350 . S
C617 N625 1.427 . S
C618 H609 0.930 . S
C618 C616 1.378 . S
C618 C619 1.367 . S
C619 C618 1.367 . S
C619 C621 1.433 . S
C620 C616 1.350 . S
C620 C617 1.463 . S
C620 N624 1.427 . S
C621 H611 0.929 . S
C621 C619 1.433 . S
C621 N624 1.384 . S
C622 H613 0.929 . S
C622 C614 1.378 . S
C622 C617 1.350 . S
C623 H610 0.929 . S
C623 C615 1.433 . S
C623 N625 1.384 . S
N624 C620 1.427 . S
N624 C621 1.384 . S
N625 C617 1.427 . S
N625 C623 1.384 . S
H626 C632 0.930 . S
H627 C636 0.930 . S
H628 C641 0.929 . S
H629 C639 0.929 . S
H630 C634 0.929 . S
H631 C640 0.929 . S
C632 H626 0.930 . S
C632 C633 1.367 . S
C632 C640 1.378 . S
C633 C632 1.367 . S
C633 C641 1.433 . S
C634 H630 0.929 . S
C634 C636 1.378 . S
C634 C638 1.350 . S
C635 C638 1.463 . S
C635 C640 1.350 . S
C635 N643 1.427 . S
C636 H627 0.930 . S
C636 C634 1.378 . S
C636 C637 1.367 . S
C637 C636 1.367 . S
C637 C639 1.433 . S
C638 C634 1.350 . S
C638 C635 1.463 . S
C638 N642 1.427 . S
C639 H629 0.929 . S
C639 C637 1.433 . S
C639 N642 1.384 . S
C640 H631 0.929 . S
C640 C632 1.378 . S
C640 C635 1.350 . S
C641 H628 0.929 . S
C641 C633 1.433 . S
C641 N643 1.384 . S
N642 C638 1.427 . S
N642 C639 1.384 . S
N643 C635 1.427 . S
N643 C641 1.384 . S
H644 C650 0.930 . S
H645 C654 0.930 . S
H646 C659 0.929 . S
H647 C657 0.929 . S
H648 C652 0.929 . S
H649 C658 0.929 . S
C650 H644 0.930 . S
C650 C651 1.367 . S
C650 C658 1.378 . S
C651 C650 1.367 . S
C651 C659 1.433 . S
C652 H648 0.929 . S
C652 C654 1.378 . S
C652 C656 1.350 . S
C653 C656 1.463 . S
C653 C658 1.350 . S
C653 N661 1.427 . S
C654 H645 0.930 . S
C654 C652 1.378 . S
C654 C655 1.367 . S
C655 C654 1.367 . S
C655 C657 1.433 . S
C656 C652 1.350 . S
C656 C653 1.463 . S
C656 N660 1.427 . S
C657 H647 0.929 . S
C657 C655 1.433 . S
C657 N660 1.384 . S
C658 H649 0.929 . S
C658 C650 1.378 . S
C658 C653 1.350 . S
C659 H646 0.929 . S
C659 C651 1.433 . S
C659 N661 1.384 . S
N660 C656 1.427 . S
N660 C657 1.384 . S
N661 C653 1.427 . S
N661 C659 1.384 . S
H662 C668 0.930 . S
H663 C672 0.930 . S
H664 C677 0.929 . S
H665 C675 0.929 . S
H666 C670 0.929 . S
H667 C676 0.929 . S
C668 H662 0.930 . S
C668 C669 1.367 . S
C668 C676 1.378 . S
C669 C668 1.367 . S
C669 C677 1.433 . S
C670 H666 0.929 . S
C670 C672 1.378 . S
C670 C674 1.350 . S
C671 C674 1.463 . S
C671 C676 1.350 . S
C671 N679 1.427 . S
C672 H663 0.930 . S
C672 C670 1.378 . S
C672 C673 1.367 . S
C673 C672 1.367 . S
C673 C675 1.433 . S
C674 C670 1.350 . S
C674 C671 1.463 . S
C674 N678 1.427 . S
C675 H665 0.929 . S
C675 C673 1.433 . S
C675 N678 1.384 . S
C676 H667 0.929 . S
C676 C668 1.378 . S
C676 C671 1.350 . S
C677 H664 0.929 . S
C677 C669 1.433 . S
C677 N679 1.384 . S
N678 C674 1.427 . S
N678 C675 1.384 . S
N679 C671 1.427 . S
N679 C677 1.384 . S
C255 C4 0.925 . S
C259 C92 0.929 . S
C273 C16 1.281 . S
C277 C153 1.318 . S
C295 C191 2.134 . S
C291 C32 2.169 . S
C309 C43 2.288 . S
C313 C231 2.245 1_655 S
C331 C151 1.748 . S
C327 C5 1.729 . S
C349 C119 1.655 . S
C345 C21 1.575 . S
C367 C228 1.705 . S
C363 C27 1.709 . S
C385 C188 1.730 . S
C381 C37 1.761 . S
C399 C10 1.027 . S
C403 C233 1.028 . S
C421 C148 2.594 . S
C417 C26 2.593 . S
C435 C38 1.918 . S
C439 C90 1.890 . S
C453 C15 1.527 . S
C457 C193 1.573 . S
C475 C113 1.063 . S
C471 C48 1.044 . S
C489 C59 1.079 . S
C493 C132 1.091 . S
C507 C76 2.479 . S
C511 C170 2.412 . S
C525 C87 2.045 . S
C529 C210 2.032 . S
C543 C54 0.991 . S
C547 C130 1.019 . S
C565 C108 2.332 . S
C561 C60 2.263 . S
C583 C239 1.593 . S
C579 C71 1.592 . S
C601 C199 1.824 . S
C597 C82 1.832 . S
C615 C49 1.339 . S
C619 C212 1.383 . S
C637 C159 2.053 . S
C633 C70 2.058 . S
C655 C111 2.351 . S
C651 C81 2.400 . S
C669 C65 1.284 . S
C673 C172 1.319 . S
