# Generated by pormake.
# Topology ctn, (3,4)-cn, num edge types: 1
# Building blocks:
#     Node 0, Type 0, BuildingBlock: KAKCAD_clean_linker_0, # of connection points: 3
#     Node 1, Type 0, BuildingBlock: KAKCAD_clean_linker_0, # of connection points: 3
#     Node 2, Type 0, BuildingBlock: KAKCAD_clean_linker_0, # of connection points: 3
#     Node 3, Type 0, BuildingBlock: KAKCAD_clean_linker_0, # of connection points: 3
#     Node 4, Type 0, BuildingBlock: KAKCAD_clean_linker_0, # of connection points: 3
#     Node 5, Type 0, BuildingBlock: KAKCAD_clean_linker_0, # of connection points: 3
#     Node 6, Type 0, BuildingBlock: KAKCAD_clean_linker_0, # of connection points: 3
#     Node 7, Type 0, BuildingBlock: KAKCAD_clean_linker_0, # of connection points: 3
#     Node 8, Type 0, BuildingBlock: KAKCAD_clean_linker_0, # of connection points: 3
#     Node 9, Type 0, BuildingBlock: KAKCAD_clean_linker_0, # of connection points: 3
#     Node 10, Type 0, BuildingBlock: KAKCAD_clean_linker_0, # of connection points: 3
#     Node 11, Type 0, BuildingBlock: KAKCAD_clean_linker_0, # of connection points: 3
#     Node 12, Type 0, BuildingBlock: KAKCAD_clean_linker_0, # of connection points: 3
#     Node 13, Type 0, BuildingBlock: KAKCAD_clean_linker_0, # of connection points: 3
#     Node 14, Type 0, BuildingBlock: KAKCAD_clean_linker_0, # of connection points: 3
#     Node 15, Type 0, BuildingBlock: KAKCAD_clean_linker_0, # of connection points: 3
#     Node 16, Type 1, BuildingBlock: KUFVIS_clean_sbu_0, # of connection points: 4
#     Node 17, Type 1, BuildingBlock: KUFVIS_clean_sbu_0, # of connection points: 4
#     Node 18, Type 1, BuildingBlock: KUFVIS_clean_sbu_0, # of connection points: 4
#     Node 19, Type 1, BuildingBlock: KUFVIS_clean_sbu_0, # of connection points: 4
#     Node 20, Type 1, BuildingBlock: KUFVIS_clean_sbu_0, # of connection points: 4
#     Node 21, Type 1, BuildingBlock: KUFVIS_clean_sbu_0, # of connection points: 4
#     Node 22, Type 1, BuildingBlock: KUFVIS_clean_sbu_0, # of connection points: 4
#     Node 23, Type 1, BuildingBlock: KUFVIS_clean_sbu_0, # of connection points: 4
#     Node 24, Type 1, BuildingBlock: KUFVIS_clean_sbu_0, # of connection points: 4
#     Node 25, Type 1, BuildingBlock: KUFVIS_clean_sbu_0, # of connection points: 4
#     Node 26, Type 1, BuildingBlock: KUFVIS_clean_sbu_0, # of connection points: 4
#     Node 27, Type 1, BuildingBlock: KUFVIS_clean_sbu_0, # of connection points: 4
#     Edge 28, Type (0, 1), BuildingBlock: EZIPEK_clean_linker_0, # of connection points: 2
#     Edge 29, Type (0, 1), BuildingBlock: EZIPEK_clean_linker_0, # of connection points: 2
#     Edge 30, Type (0, 1), BuildingBlock: EZIPEK_clean_linker_0, # of connection points: 2
#     Edge 31, Type (0, 1), BuildingBlock: EZIPEK_clean_linker_0, # of connection points: 2
#     Edge 32, Type (0, 1), BuildingBlock: EZIPEK_clean_linker_0, # of connection points: 2
#     Edge 33, Type (0, 1), BuildingBlock: EZIPEK_clean_linker_0, # of connection points: 2
#     Edge 34, Type (0, 1), BuildingBlock: EZIPEK_clean_linker_0, # of connection points: 2
#     Edge 35, Type (0, 1), BuildingBlock: EZIPEK_clean_linker_0, # of connection points: 2
#     Edge 36, Type (0, 1), BuildingBlock: EZIPEK_clean_linker_0, # of connection points: 2
#     Edge 37, Type (0, 1), BuildingBlock: EZIPEK_clean_linker_0, # of connection points: 2
#     Edge 38, Type (0, 1), BuildingBlock: EZIPEK_clean_linker_0, # of connection points: 2
#     Edge 39, Type (0, 1), BuildingBlock: EZIPEK_clean_linker_0, # of connection points: 2
#     Edge 40, Type (0, 1), BuildingBlock: EZIPEK_clean_linker_0, # of connection points: 2
#     Edge 41, Type (0, 1), BuildingBlock: EZIPEK_clean_linker_0, # of connection points: 2
#     Edge 42, Type (0, 1), BuildingBlock: EZIPEK_clean_linker_0, # of connection points: 2
#     Edge 43, Type (0, 1), BuildingBlock: EZIPEK_clean_linker_0, # of connection points: 2
#     Edge 44, Type (0, 1), BuildingBlock: EZIPEK_clean_linker_0, # of connection points: 2
#     Edge 45, Type (0, 1), BuildingBlock: EZIPEK_clean_linker_0, # of connection points: 2
#     Edge 46, Type (0, 1), BuildingBlock: EZIPEK_clean_linker_0, # of connection points: 2
#     Edge 47, Type (0, 1), BuildingBlock: EZIPEK_clean_linker_0, # of connection points: 2
#     Edge 48, Type (0, 1), BuildingBlock: EZIPEK_clean_linker_0, # of connection points: 2
#     Edge 49, Type (0, 1), BuildingBlock: EZIPEK_clean_linker_0, # of connection points: 2
#     Edge 50, Type (0, 1), BuildingBlock: EZIPEK_clean_linker_0, # of connection points: 2
#     Edge 51, Type (0, 1), BuildingBlock: EZIPEK_clean_linker_0, # of connection points: 2
#     Edge 52, Type (0, 1), BuildingBlock: EZIPEK_clean_linker_0, # of connection points: 2
#     Edge 53, Type (0, 1), BuildingBlock: EZIPEK_clean_linker_0, # of connection points: 2
#     Edge 54, Type (0, 1), BuildingBlock: EZIPEK_clean_linker_0, # of connection points: 2
#     Edge 55, Type (0, 1), BuildingBlock: EZIPEK_clean_linker_0, # of connection points: 2
#     Edge 56, Type (0, 1), BuildingBlock: EZIPEK_clean_linker_0, # of connection points: 2
#     Edge 57, Type (0, 1), BuildingBlock: EZIPEK_clean_linker_0, # of connection points: 2
#     Edge 58, Type (0, 1), BuildingBlock: EZIPEK_clean_linker_0, # of connection points: 2
#     Edge 59, Type (0, 1), BuildingBlock: EZIPEK_clean_linker_0, # of connection points: 2
#     Edge 60, Type (0, 1), BuildingBlock: EZIPEK_clean_linker_0, # of connection points: 2
#     Edge 61, Type (0, 1), BuildingBlock: EZIPEK_clean_linker_0, # of connection points: 2
#     Edge 62, Type (0, 1), BuildingBlock: EZIPEK_clean_linker_0, # of connection points: 2
#     Edge 63, Type (0, 1), BuildingBlock: EZIPEK_clean_linker_0, # of connection points: 2
#     Edge 64, Type (0, 1), BuildingBlock: EZIPEK_clean_linker_0, # of connection points: 2
#     Edge 65, Type (0, 1), BuildingBlock: EZIPEK_clean_linker_0, # of connection points: 2
#     Edge 66, Type (0, 1), BuildingBlock: EZIPEK_clean_linker_0, # of connection points: 2
#     Edge 67, Type (0, 1), BuildingBlock: EZIPEK_clean_linker_0, # of connection points: 2
#     Edge 68, Type (0, 1), BuildingBlock: EZIPEK_clean_linker_0, # of connection points: 2
#     Edge 69, Type (0, 1), BuildingBlock: EZIPEK_clean_linker_0, # of connection points: 2
#     Edge 70, Type (0, 1), BuildingBlock: EZIPEK_clean_linker_0, # of connection points: 2
#     Edge 71, Type (0, 1), BuildingBlock: EZIPEK_clean_linker_0, # of connection points: 2
#     Edge 72, Type (0, 1), BuildingBlock: EZIPEK_clean_linker_0, # of connection points: 2
#     Edge 73, Type (0, 1), BuildingBlock: EZIPEK_clean_linker_0, # of connection points: 2
#     Edge 74, Type (0, 1), BuildingBlock: EZIPEK_clean_linker_0, # of connection points: 2
#     Edge 75, Type (0, 1), BuildingBlock: EZIPEK_clean_linker_0, # of connection points: 2
# Relax obj value: 0.012
# Max RMSD: 0.061
# Mean RMSD: 0.029
data_MOF--net-ctn--node1-KUFVIS_clean_sbu_0--node2-KAKCAD_clean_linker_0--edge1-EZIPEK_clean_linker_0
_symmetry_space_group_name_H-M    P1
_symmetry_Int_Tables_number       1
_symmetry_cell_setting            triclinic
loop_
_symmetry_equiv_pos_as_xyz
'x, y, z'
_cell_length_a     52.080848
_cell_length_b     51.881186
_cell_length_c     52.106183
_cell_angle_alpha  91.132325
_cell_angle_beta   90.562113
_cell_angle_gamma 91.96259
loop_
_atom_site_label
_atom_site_type_symbol
_atom_site_fract_x
_atom_site_fract_y
_atom_site_fract_z
_atom_type_partial_charge
C0 C 0.04146 0.11238 0.97341 0.0
C1 C 0.02567 0.13197 0.98236 0.0
C2 C 0.04709 0.09151 0.98893 0.0
C3 C 0.03799 0.09012 0.01434 0.0
C4 C 0.02271 0.11029 0.02338 0.0
C5 C 0.01623 0.13058 0.00746 0.0
C6 C 0.04427 0.06781 0.03118 0.0
C7 C 0.06665 0.05371 0.02717 0.0
C8 C 0.07229 0.03232 0.04221 0.0
C9 C 0.05594 0.02592 0.06265 0.0
C10 C 0.0338 0.03995 0.06763 0.0
C11 C 0.02786 0.06031 0.05132 0.0
C12 C 0.01688 0.03348 0.08987 0.0
C13 C 0.01236 0.00771 0.09723 0.0
C14 C 0.00519 0.05317 0.10413 0.0
C15 C 0.98926 0.04728 0.12485 0.0
C16 C 0.98484 0.02161 0.13202 0.0
C17 C 0.09493 0.01633 0.03614 0.0
C18 C 0.10131 0.01075 0.01044 0.0
C19 C 0.10993 0.00592 0.05581 0.0
C20 C 0.13048 0.99015 0.04993 0.0
C21 C 0.13654 0.98457 0.02428 0.0
C22 C 0.12192 0.9951 0.0046 0.0
C23 C 0.99664 1.00188 0.11816 0.0
H24 H 0.04897 0.11292 0.95411 0.0
H25 H 0.05829 0.07635 0.98063 0.0
H26 H 0.01578 0.11074 0.04287 0.0
H27 H 0.00404 0.14545 0.01488 0.0
H28 H 0.08012 0.05949 0.01253 0.0
H29 H 0.00998 0.06994 0.05413 0.0
H30 H 0.06043 0.00987 0.07467 0.0
H31 H 0.02063 0.99196 0.08659 0.0
H32 H 0.00852 0.07325 0.09947 0.0
H33 H 0.98037 0.06279 0.13536 0.0
H34 H 0.09003 0.01802 0.99477 0.0
H35 H 0.10589 0.01004 0.07579 0.0
H36 H 0.99333 0.98192 0.12333 0.0
H37 H 0.12626 0.99089 0.98469 0.0
H38 H 0.14161 0.98223 0.06537 0.0
C39 C 0.37017 0.70479 0.28612 0.0
C40 C 0.39454 0.7132 0.27798 0.0
C41 C 0.34987 0.70148 0.26848 0.0
C42 C 0.35362 0.70614 0.24219 0.0
C43 C 0.37836 0.71391 0.23406 0.0
C44 C 0.39859 0.7175 0.25181 0.0
C45 C 0.3316 0.70338 0.2236 0.0
C46 C 0.32879 0.72097 0.2036 0.0
C47 C 0.30701 0.71978 0.18714 0.0
C48 C 0.28822 0.69993 0.19099 0.0
C49 C 0.29128 0.68141 0.21006 0.0
C50 C 0.31292 0.68349 0.22633 0.0
C51 C 0.27193 0.6598 0.21312 0.0
C52 C 0.24542 0.66387 0.21071 0.0
C53 C 0.27991 0.63483 0.21873 0.0
C54 C 0.26189 0.61465 0.22231 0.0
C55 C 0.23555 0.61892 0.22015 0.0
C56 C 0.30379 0.73918 0.1662 0.0
C57 C 0.31637 0.76377 0.16754 0.0
C58 C 0.28794 0.73343 0.14453 0.0
C59 C 0.28409 0.75175 0.12565 0.0
C60 C 0.29695 0.77597 0.127 0.0
C61 C 0.31354 0.78155 0.14792 0.0
C62 C 0.22743 0.64358 0.21408 0.0
H63 H 0.36677 0.70117 0.3062 0.0
H64 H 0.33109 0.69583 0.2756 0.0
H65 H 0.38214 0.71722 0.21397 0.0
H66 H 0.41735 0.72391 0.24519 0.0
H67 H 0.34363 0.73574 0.20119 0.0
H68 H 0.31515 0.66959 0.24136 0.0
H69 H 0.27107 0.69861 0.17917 0.0
H70 H 0.23852 0.68284 0.20667 0.0
H71 H 0.30012 0.63081 0.22025 0.0
H72 H 0.2685 0.59568 0.22684 0.0
H73 H 0.32822 0.76976 0.18386 0.0
H74 H 0.27848 0.71472 0.14171 0.0
H75 H 0.20718 0.64718 0.21215 0.0
H76 H 0.32383 0.80003 0.14941 0.0
H77 H 0.27127 0.74681 0.10966 0.0
C78 C 1.00225 0.49425 0.13313 0.0
C79 C 0.02877 0.49033 0.1327 0.0
C80 C 0.98692 0.48842 0.11137 0.0
C81 C 0.99785 0.47879 0.08861 0.0
C82 C 0.02449 0.47493 0.08839 0.0
C83 C 0.03971 0.48048 0.1102 0.0
C84 C 0.98171 0.473 0.06512 0.0
C85 C 0.96114 0.48867 0.05868 0.0
C86 C 0.9461 0.4836 0.03642 0.0
C87 C 0.95215 0.46264 0.02021 0.0
C88 C 0.97267 0.44669 0.02619 0.0
C89 C 0.98707 0.45195 0.04881 0.0
C90 C 0.97915 0.42443 0.00902 0.0
C91 C 0.95967 0.40853 0.99744 0.0
C92 C 0.00497 0.41864 0.00439 0.0
C93 C 0.01113 0.39743 0.98886 0.0
C94 C 0.99162 0.38155 0.97761 0.0
C95 C 0.92413 0.50031 0.03023 0.0
C96 C 0.90759 0.50859 0.04973 0.0
C97 C 0.91958 0.50831 0.00495 0.0
C98 C 0.89917 0.52434 0.99941 0.0
C99 C 0.88286 0.53258 0.019 0.0
C100 C 0.88717 0.5245 0.04416 0.0
C101 C 0.96586 0.38733 0.98189 0.0
H102 H 0.99344 0.50186 0.1503 0.0
H103 H 0.96647 0.4913 0.11249 0.0
H104 H 0.03378 0.46804 0.07119 0.0
H105 H 0.06017 0.47746 0.10941 0.0
H106 H 0.95721 0.50534 0.07067 0.0
H107 H 1.00224 0.4392 0.054 0.0
H108 H 0.94084 0.45872 1.00294 0.0
H109 H 0.93962 0.41217 1.00077 0.0
H110 H 0.02049 0.43064 0.01261 0.0
H111 H 0.03112 0.39338 0.98561 0.0
H112 H 0.91028 0.50255 0.06933 0.0
H113 H 0.93205 0.50254 0.98951 0.0
H114 H 0.95054 0.3753 0.97333 0.0
H115 H 0.87471 0.53056 0.05951 0.0
H116 H 0.89613 0.53038 0.97986 0.0
C117 C 0.69261 0.74515 0.12743 0.0
C118 C 0.71725 0.74147 0.11767 0.0
C119 C 0.6891 0.76227 0.14814 0.0
C120 C 0.71022 0.77594 0.15958 0.0
C121 C 0.73494 0.77183 0.14984 0.0
C122 C 0.73839 0.75486 0.12905 0.0
C123 C 0.7065 0.7949 0.18111 0.0
C124 C 0.68854 0.78984 0.20057 0.0
C125 C 0.68433 0.80803 0.22055 0.0
C126 C 0.69951 0.83116 0.22107 0.0
C127 C 0.71839 0.83611 0.20246 0.0
C128 C 0.7211 0.81816 0.18221 0.0
C129 C 0.73608 0.85944 0.20467 0.0
C130 C 0.72763 0.8831 0.21466 0.0
C131 C 0.76205 0.85789 0.19757 0.0
C132 C 0.77907 0.87913 0.20078 0.0
C133 C 0.7708 0.90222 0.21174 0.0
C134 C 0.66427 0.80289 0.24075 0.0
C135 C 0.64303 0.78582 0.23574 0.0
C136 C 0.66582 0.81522 0.2652 0.0
C137 C 0.64655 0.81129 0.28342 0.0
C138 C 0.62579 0.7939 0.27839 0.0
C139 C 0.62446 0.78098 0.25445 0.0
C140 C 0.74486 0.90423 0.21828 0.0
H141 H 0.67608 0.73494 0.11885 0.0
H142 H 0.66978 0.76514 0.15487 0.0
H143 H 0.75172 0.78161 0.15839 0.0
H144 H 0.75757 0.75208 0.12188 0.0
H145 H 0.67834 0.77134 0.20028 0.0
H146 H 0.73451 0.82247 0.167 0.0
H147 H 0.69695 0.8454 0.23612 0.0
H148 H 0.70773 0.88534 0.21981 0.0
H149 H 0.7695 0.84006 0.19011 0.0
H150 H 0.79884 0.87742 0.19506 0.0
H151 H 0.64024 0.77633 0.21722 0.0
H152 H 0.68195 0.82786 0.27066 0.0
H153 H 0.73805 0.92205 0.2265 0.0
H154 H 0.60863 0.7675 0.24998 0.0
H155 H 0.64808 0.82157 0.3017 0.0
C156 C 0.96358 0.98192 0.40425 0.0
C157 C 0.97513 0.99378 0.38305 0.0
C158 C 0.97794 0.97739 0.42654 0.0
C159 C 0.00439 0.98417 0.42804 0.0
C160 C 0.01573 0.99626 0.4067 0.0
C161 C 1.00123 1.00133 0.38473 0.0
C162 C 0.02024 0.97842 0.45142 0.0
C163 C 0.01477 0.95644 0.46631 0.0
C164 C 0.03044 0.95045 0.48748 0.0
C165 C 0.05207 0.96656 0.49345 0.0
C166 C 0.05783 0.98859 0.47907 0.0
C167 C 0.04159 0.99457 0.45849 0.0
C168 C 0.08121 0.00509 0.48503 0.0
C169 C 0.10511 0.99392 0.48923 0.0
C170 C 0.08002 0.03215 0.48564 0.0
C171 C 0.10224 0.04765 0.48994 0.0
C172 C 0.12612 0.03644 0.49341 0.0
C173 C 0.02447 0.92733 0.50337 0.0
C174 C 0.99911 0.92118 0.51089 0.0
C175 C 0.04427 0.91158 0.51177 0.0
C176 C 0.03891 0.89046 0.52741 0.0
C177 C 0.01368 0.88464 0.53513 0.0
C178 C 0.99378 0.90009 0.52668 0.0
C179 C 0.12737 0.00945 0.49328 0.0
H180 H 0.94345 0.97593 0.40343 0.0
H181 H 0.96822 0.96855 0.44256 0.0
H182 H 0.03606 1.0013 0.40653 0.0
H183 H 0.01062 0.01039 0.3686 0.0
H184 H 0.99884 0.94342 0.46101 0.0
H185 H 0.04596 0.01178 0.44772 0.0
H186 H 0.0642 0.96229 0.50973 0.0
H187 H 0.1067 0.97315 0.48867 0.0
H188 H 0.06188 0.04135 0.4828 0.0
H189 H 0.10082 0.06838 0.49034 0.0
H190 H 0.98344 0.93299 0.50498 0.0
H191 H 0.06395 0.9155 0.50611 0.0
H192 H 0.14564 1.00045 0.49596 0.0
H193 H 0.97417 0.89586 0.5324 0.0
H194 H 0.0545 0.87867 0.5336 0.0
C195 C 0.12487 0.69202 0.74791 0.0
C196 C 0.11901 0.7167 0.73945 0.0
C197 C 0.14505 0.68887 0.76546 0.0
C198 C 0.15963 0.71036 0.77504 0.0
C199 C 0.15366 0.73504 0.76644 0.0
C200 C 0.13362 0.73816 0.74879 0.0
C201 C 0.18083 0.70723 0.79411 0.0
C202 C 0.1984 0.68736 0.79118 0.0
C203 C 0.21886 0.68486 0.80879 0.0
C204 C 0.22137 0.7025 0.82962 0.0
C205 C 0.20392 0.72239 0.83304 0.0
C206 C 0.18371 0.72449 0.81519 0.0
C207 C 0.20705 0.74117 0.85506 0.0
C208 C 0.2152 0.73304 0.87936 0.0
C209 C 0.20227 0.7675 0.85187 0.0
C210 C 0.20589 0.78521 0.8723 0.0
C211 C 0.21461 0.77704 0.89624 0.0
C212 C 0.23793 0.6642 0.80526 0.0
C213 C 0.22998 0.63913 0.79708 0.0
C214 C 0.26431 0.66942 0.80998 0.0
C215 C 0.28224 0.65019 0.80642 0.0
C216 C 0.2742 0.62533 0.79803 0.0
C217 C 0.24794 0.61991 0.79349 0.0
C218 C 0.21901 0.75082 0.89971 0.0
H219 H 0.11383 0.67522 0.74089 0.0
H220 H 0.14898 0.66964 0.77183 0.0
H221 H 0.16469 0.75197 0.77314 0.0
H222 H 0.12952 0.75733 0.74236 0.0
H223 H 0.19665 0.67436 0.77468 0.0
H224 H 0.16981 0.73933 0.81795 0.0
H225 H 0.23709 0.70081 0.84317 0.0
H226 H 0.2186 0.71291 0.88273 0.0
H227 H 0.19624 0.77457 0.83343 0.0
H228 H 0.20219 0.80533 0.86935 0.0
H229 H 0.20984 0.6343 0.79355 0.0
H230 H 0.27123 0.68856 0.81592 0.0
H231 H 0.22563 0.74416 0.91812 0.0
H232 H 0.24139 0.60085 0.78689 0.0
H233 H 0.30246 0.65482 0.80974 0.0
C234 C 0.99286 0.63205 0.50573 0.0
C235 C 0.99462 0.62972 0.5325 0.0
C236 C 0.98816 0.61015 0.48995 0.0
C237 C 0.98479 0.58564 0.50074 0.0
C238 C 0.98703 0.58337 0.52749 0.0
C239 C 0.99223 0.60516 0.54315 0.0
C240 C 0.97823 0.56252 0.48435 0.0
C241 C 0.99333 0.55622 0.46309 0.0
C242 C 0.98724 0.53424 0.44754 0.0
C243 C 0.96552 0.51864 0.45376 0.0
C244 C 0.95 0.52472 0.47495 0.0
C245 C 0.95668 0.54676 0.49008 0.0
C246 C 0.92651 0.50852 0.48102 0.0
C247 C 0.91128 0.4968 0.46124 0.0
C248 C 0.91868 0.50513 0.50663 0.0
C249 C 0.8961 0.49096 0.51222 0.0
C250 C 0.88114 0.47933 0.49238 0.0
C251 C 0.00339 0.52777 0.42476 0.0
C252 C 0.01472 0.54748 0.40995 0.0
C253 C 0.00754 0.50191 0.41742 0.0
C254 C 0.02233 0.49602 0.39587 0.0
C255 C 0.03371 0.51582 0.38143 0.0
C256 C 0.02979 0.54156 0.38868 0.0
C257 C 0.88899 0.48225 0.46689 0.0
H258 H 0.99484 0.65084 0.49712 0.0
H259 H 0.98649 0.61242 0.46938 0.0
H260 H 0.98487 0.56467 0.53627 0.0
H261 H 0.9943 0.60283 0.56358 0.0
H262 H 0.01022 0.56819 0.45913 0.0
H263 H 0.94469 0.55225 0.50602 0.0
H264 H 0.96059 0.50177 0.44196 0.0
H265 H 0.91618 0.4993 0.44129 0.0
H266 H 0.93001 0.51337 0.52248 0.0
H267 H 0.89034 0.48895 0.53202 0.0
H268 H 0.01163 0.56758 0.41449 0.0
H269 H 0.99958 0.48614 0.42845 0.0
H270 H 0.87754 0.47363 0.45129 0.0
H271 H 0.03817 0.55712 0.37761 0.0
H272 H 0.02506 0.47603 0.39053 0.0
C273 C 0.82551 0.74908 0.88716 0.0
C274 C 0.80091 0.73922 0.89318 0.0
C275 C 0.82874 0.76686 0.86741 0.0
C276 C 0.80741 0.77515 0.8533 0.0
C277 C 0.78281 0.76516 0.85953 0.0
C278 C 0.77962 0.74742 0.87924 0.0
C279 C 0.8107 0.79378 0.83191 0.0
C280 C 0.83135 0.79188 0.81478 0.0
C281 C 0.83374 0.80842 0.79381 0.0
C282 C 0.81541 0.82731 0.79015 0.0
C283 C 0.79494 0.83009 0.80738 0.0
C284 C 0.79278 0.81315 0.82812 0.0
C285 C 0.7758 0.85059 0.80366 0.0
C286 C 0.78373 0.87539 0.79574 0.0
C287 C 0.74942 0.84553 0.80784 0.0
C288 C 0.73148 0.86463 0.80387 0.0
C289 C 0.73951 0.88919 0.79569 0.0
C290 C 0.85504 0.80535 0.7753 0.0
C291 C 0.88073 0.80627 0.78386 0.0
C292 C 0.84975 0.80055 0.7491 0.0
C293 C 0.8697 0.79564 0.73199 0.0
C294 C 0.89537 0.79598 0.74066 0.0
C295 C 0.90072 0.802 0.76665 0.0
C296 C 0.76578 0.89446 0.7918 0.0
H297 H 0.84217 0.74299 0.89774 0.0
H298 H 0.84792 0.7743 0.86336 0.0
H299 H 0.76599 0.77071 0.84887 0.0
H300 H 0.7605 0.73993 0.88354 0.0
H301 H 0.8451 0.77687 0.81713 0.0
H302 H 0.77734 0.81537 0.84169 0.0
H303 H 0.81711 0.83979 0.77377 0.0
H304 H 0.80387 0.88013 0.79269 0.0
H305 H 0.74254 0.82661 0.81364 0.0
H306 H 0.71126 0.86013 0.80676 0.0
H307 H 0.8853 0.8101 0.80393 0.0
H308 H 0.8301 0.79968 0.74203 0.0
H309 H 0.77235 0.91328 0.78543 0.0
H310 H 0.92035 0.80243 0.77377 0.0
H311 H 0.86507 0.79097 0.71209 0.0
C312 C 0.32582 0.24715 0.38582 0.0
C313 C 0.30117 0.23786 0.39238 0.0
C314 C 0.32897 0.26522 0.36631 0.0
C315 C 0.30752 0.27429 0.35292 0.0
C316 C 0.28289 0.26476 0.35964 0.0
C317 C 0.27977 0.24682 0.37917 0.0
C318 C 0.31065 0.29326 0.33178 0.0
C319 C 0.33113 0.29164 0.3144 0.0
C320 C 0.33325 0.30847 0.29366 0.0
C321 C 0.31483 0.32732 0.29038 0.0
C322 C 0.29454 0.32983 0.30783 0.0
C323 C 0.29268 0.31269 0.32843 0.0
C324 C 0.2752 0.35017 0.30444 0.0
C325 C 0.28285 0.37509 0.29664 0.0
C326 C 0.24888 0.34481 0.3087 0.0
C327 C 0.23072 0.36372 0.30486 0.0
C328 C 0.23847 0.38839 0.29676 0.0
C329 C 0.35433 0.30578 0.27493 0.0
C330 C 0.38008 0.30969 0.28275 0.0
C331 C 0.34884 0.29852 0.24929 0.0
C332 C 0.36879 0.29422 0.23202 0.0
C333 C 0.39459 0.29763 0.23994 0.0
C334 C 0.40002 0.30605 0.26531 0.0
C335 C 0.26468 0.39397 0.29284 0.0
H336 H 0.34257 0.24045 0.39584 0.0
H337 H 0.3482 0.27228 0.36191 0.0
H338 H 0.26594 0.27082 0.34952 0.0
H339 H 0.26061 0.23976 0.38388 0.0
H340 H 0.34497 0.27665 0.31636 0.0
H341 H 0.2774 0.31477 0.34219 0.0
H342 H 0.31631 0.33994 0.27409 0.0
H343 H 0.30293 0.38006 0.29353 0.0
H344 H 0.24223 0.32579 0.31441 0.0
H345 H 0.21055 0.35898 0.30777 0.0
H346 H 0.38474 0.31542 0.3024 0.0
H347 H 0.32912 0.29538 0.24285 0.0
H348 H 0.27102 0.41289 0.28652 0.0
H349 H 0.41974 0.30887 0.27184 0.0
H350 H 0.36411 0.28771 0.2126 0.0
C351 C 0.50251 0.9967 0.63391 0.0
C352 C 0.52901 0.99267 0.63329 0.0
C353 C 0.48703 0.99097 0.61223 0.0
C354 C 0.49779 0.98135 0.58938 0.0
C355 C 0.52442 0.97742 0.58898 0.0
C356 C 0.53978 0.98286 0.6107 0.0
C357 C 0.48153 0.97559 0.56598 0.0
C358 C 0.46098 0.99127 0.55958 0.0
C359 C 0.44594 0.98625 0.5373 0.0
C360 C 0.45204 0.96535 0.52102 0.0
C361 C 0.47251 0.94933 0.527 0.0
C362 C 0.48683 0.95451 0.54968 0.0
C363 C 0.479 0.92699 0.5099 0.0
C364 C 0.45954 0.91139 0.49791 0.0
C365 C 0.50481 0.92065 0.50596 0.0
C366 C 0.51095 0.8991 0.4909 0.0
C367 C 0.49144 0.88355 0.47924 0.0
C368 C 0.42388 1.00291 0.53124 0.0
C369 C 0.40728 0.01092 0.5508 0.0
C370 C 0.41928 0.01109 0.50603 0.0
C371 C 0.39874 0.02701 0.50062 0.0
C372 C 0.38232 0.03492 0.52026 0.0
C373 C 0.38671 0.02669 0.54535 0.0
C374 C 0.46572 0.88992 0.48273 0.0
H375 H 0.49384 0.00431 0.65115 0.0
H376 H 0.46659 0.99392 0.61346 0.0
H377 H 0.53359 0.97055 0.57171 0.0
H378 H 0.56023 0.97978 0.60977 0.0
H379 H 0.45705 0.00791 0.57161 0.0
H380 H 0.5019 0.94169 0.55497 0.0
H381 H 0.44074 0.96152 0.50371 0.0
H382 H 0.43948 0.91538 0.50072 0.0
H383 H 0.52036 0.9324 0.51448 0.0
H384 H 0.53092 0.89452 0.48836 0.0
H385 H 0.41001 0.00474 0.57035 0.0
H386 H 0.43179 0.00552 0.49055 0.0
H387 H 0.4504 0.87805 0.47394 0.0
H388 H 0.37417 0.03248 0.56074 0.0
H389 H 0.39563 0.03315 0.48112 0.0
C390 C 0.19392 0.23976 0.62879 0.0
C391 C 0.2175 0.23929 0.61594 0.0
C392 C 0.19061 0.25656 0.64982 0.0
C393 C 0.21109 0.27273 0.65919 0.0
C394 C 0.235 0.2713 0.64676 0.0
C395 C 0.23796 0.2553 0.62515 0.0
C396 C 0.2076 0.29132 0.68135 0.0
C397 C 0.189 0.28653 0.70039 0.0
C398 C 0.18566 0.30415 0.72094 0.0
C399 C 0.20204 0.32622 0.72303 0.0
C400 C 0.22084 0.33145 0.7045 0.0
C401 C 0.22289 0.31427 0.68345 0.0
C402 C 0.23864 0.35462 0.70724 0.0
C403 C 0.23017 0.37806 0.71773 0.0
C404 C 0.26454 0.35329 0.69989 0.0
C405 C 0.28151 0.37458 0.7033 0.0
C406 C 0.27317 0.39751 0.71459 0.0
C407 C 0.16444 0.30028 0.73974 0.0
C408 C 0.13987 0.29161 0.73153 0.0
C409 C 0.16827 0.30599 0.76595 0.0
C410 C 0.14768 0.30508 0.78305 0.0
C411 C 0.12209 0.29994 0.77438 0.0
C412 C 0.11931 0.29074 0.74865 0.0
C413 C 0.24729 0.39924 0.72146 0.0
H414 H 0.17779 0.22765 0.62204 0.0
H415 H 0.17174 0.25714 0.65824 0.0
H416 H 0.25166 0.28252 0.65359 0.0
H417 H 0.25636 0.25536 0.61563 0.0
H418 H 0.17726 0.26892 0.69962 0.0
H419 H 0.23621 0.31921 0.66839 0.0
H420 H 0.19997 0.3395 0.73911 0.0
H421 H 0.21031 0.38011 0.7231 0.0
H422 H 0.27194 0.33561 0.69198 0.0
H423 H 0.30125 0.37307 0.69738 0.0
H424 H 0.13628 0.28595 0.71166 0.0
H425 H 0.18733 0.31107 0.77337 0.0
H426 H 0.24044 0.41691 0.72997 0.0
H427 H 0.1014 0.2825 0.74123 0.0
H428 H 0.15242 0.30813 0.80309 0.0
C429 C 0.86877 0.20658 0.78478 0.0
C430 C 0.89305 0.21592 0.77727 0.0
C431 C 0.84872 0.20355 0.7668 0.0
C432 C 0.85264 0.20946 0.7408 0.0
C433 C 0.87724 0.2184 0.73334 0.0
C434 C 0.89721 0.22169 0.75142 0.0
C435 C 0.83104 0.20655 0.72173 0.0
C436 C 0.82808 0.22465 0.70224 0.0
C437 C 0.80707 0.2228 0.6849 0.0
C438 C 0.78906 0.20205 0.68723 0.0
C439 C 0.79196 0.18339 0.70623 0.0
C440 C 0.81298 0.18591 0.72333 0.0
C441 C 0.7729 0.16144 0.70872 0.0
C442 C 0.74636 0.16522 0.70615 0.0
C443 C 0.78112 0.13662 0.71458 0.0
C444 C 0.76329 0.11633 0.71841 0.0
C445 C 0.73688 0.12035 0.71634 0.0
C446 C 0.8038 0.24276 0.66476 0.0
C447 C 0.8117 0.26869 0.66958 0.0
C448 C 0.79269 0.23622 0.64058 0.0
C449 C 0.78932 0.25506 0.62203 0.0
C450 C 0.7975 0.28075 0.62696 0.0
C451 C 0.80888 0.28733 0.65082 0.0
C452 C 0.72854 0.14483 0.70987 0.0
H453 H 0.86529 0.20183 0.80459 0.0
H454 H 0.83002 0.19699 0.77343 0.0
H455 H 0.88117 0.22272 0.71349 0.0
H456 H 0.9159 0.22883 0.74529 0.0
H457 H 0.84211 0.2404 0.70076 0.0
H458 H 0.81517 0.17179 0.73815 0.0
H459 H 0.77265 0.20038 0.67432 0.0
H460 H 0.7393 0.18407 0.7019 0.0
H461 H 0.80139 0.13286 0.71626 0.0
H462 H 0.77008 0.09751 0.72324 0.0
H463 H 0.81972 0.27484 0.68802 0.0
H464 H 0.78675 0.2165 0.63581 0.0
H465 H 0.70825 0.14825 0.70802 0.0
H466 H 0.81513 0.30709 0.65512 0.0
H467 H 0.78046 0.24957 0.60374 0.0
C468 C 0.53125 0.61215 0.47337 0.0
C469 C 0.5216 0.63449 0.48479 0.0
C470 C 0.53741 0.59106 0.48843 0.0
C471 C 0.53416 0.59194 0.51527 0.0
C472 C 0.52479 0.61461 0.52657 0.0
C473 C 0.51849 0.63557 0.5115 0.0
C474 C 0.5403 0.56934 0.53145 0.0
C475 C 0.56159 0.55421 0.52591 0.0
C476 C 0.56761 0.53309 0.54118 0.0
C477 C 0.55207 0.52731 0.56242 0.0
C478 C 0.53062 0.54202 0.56839 0.0
C479 C 0.52486 0.56286 0.55262 0.0
C480 C 0.51419 0.53561 0.59102 0.0
C481 C 0.50903 0.50977 0.5978 0.0
C482 C 0.50348 0.55531 0.6061 0.0
C483 C 0.48789 0.54934 0.62708 0.0
C484 C 0.48282 0.52359 0.63364 0.0
C485 C 0.59002 0.51691 0.53489 0.0
C486 C 0.59532 0.50992 0.50926 0.0
C487 C 0.60596 0.5078 0.5545 0.0
C488 C 0.62634 0.49183 0.54867 0.0
C489 C 0.63128 0.48465 0.52314 0.0
C490 C 0.61573 0.49396 0.50346 0.0
C491 C 0.49363 0.50385 0.61894 0.0
H492 H 0.53365 0.61091 0.45276 0.0
H493 H 0.54425 0.57389 0.47895 0.0
H494 H 0.52245 0.61629 0.54716 0.0
H495 H 0.51112 0.65268 0.52067 0.0
H496 H 0.57395 0.55928 0.51006 0.0
H497 H 0.5079 0.57374 0.55647 0.0
H498 H 0.5567 0.51122 0.57434 0.0
H499 H 0.51651 0.49403 0.58651 0.0
H500 H 0.50731 0.57541 0.60186 0.0
H501 H 0.47976 0.56484 0.63823 0.0
H502 H 0.58332 0.5163 0.4937 0.0
H503 H 0.60273 0.51306 0.57439 0.0
H504 H 0.48981 0.48384 0.62362 0.0
H505 H 0.61919 0.48854 0.48364 0.0
H506 H 0.63815 0.48487 0.56412 0.0
C507 C 0.46398 0.48168 0.90719 0.0
C508 C 0.47487 0.49436 0.88612 0.0
C509 C 0.47877 0.47721 0.92924 0.0
C510 C 0.50501 0.48491 0.93058 0.0
C511 C 0.51562 0.49798 0.90943 0.0
C512 C 0.50068 0.50295 0.88774 0.0
C513 C 0.52164 0.47871 0.9533 0.0
C514 C 0.51718 0.45611 0.96748 0.0
C515 C 0.53404 0.44944 0.98742 0.0
C516 C 0.55615 0.46518 0.99247 0.0
C517 C 0.56094 0.48815 0.97902 0.0
C518 C 0.54291 0.49502 0.96019 0.0
C519 C 0.58488 0.50471 0.98413 0.0
C520 C 0.59778 0.5048 0.00811 0.0
C521 C 0.59543 0.52039 0.96478 0.0
C522 C 0.61738 0.53612 0.96946 0.0
C523 C 0.63017 0.53602 0.99329 0.0
C524 C 0.5287 0.42604 0.00313 0.0
C525 C 0.50385 0.42048 0.01244 0.0
C526 C 0.54862 0.40968 0.00987 0.0
C527 C 0.54391 0.3886 0.02576 0.0
C528 C 0.51922 0.38343 0.03536 0.0
C529 C 0.49918 0.39943 0.02845 0.0
C530 C 0.62041 0.51974 0.01238 0.0
H531 H 0.44408 0.47488 0.90641 0.0
H532 H 0.46959 0.46758 0.94512 0.0
H533 H 0.53577 0.50376 0.90913 0.0
H534 H 0.50957 0.51265 0.8717 0.0
H535 H 0.50108 0.44314 0.96258 0.0
H536 H 0.5453 0.51333 0.95082 0.0
H537 H 0.56954 0.45938 0.00706 0.0
H538 H 0.59042 0.4936 0.02387 0.0
H539 H 0.5871 0.5204 0.94569 0.0
H540 H 0.62476 0.54795 0.95416 0.0
H541 H 0.48813 0.43278 0.00784 0.0
H542 H 0.56789 0.41313 1.00281 0.0
H543 H 0.63002 0.51906 0.03088 0.0
H544 H 0.47998 0.3957 0.03559 0.0
H545 H 0.55958 0.37637 0.03071 0.0
C546 C 0.63095 0.19441 0.24123 0.0
C547 C 0.61778 0.21759 0.24059 0.0
C548 C 0.65137 0.19143 0.25852 0.0
C549 C 0.65988 0.2119 0.27509 0.0
C550 C 0.64714 0.23544 0.27359 0.0
C551 C 0.6261 0.23803 0.25702 0.0
C552 C 0.68158 0.20874 0.294 0.0
C553 C 0.70102 0.19095 0.28935 0.0
C554 C 0.72124 0.1879 0.30711 0.0
C555 C 0.72259 0.2038 0.32928 0.0
C556 C 0.70371 0.22192 0.33435 0.0
C557 C 0.683 0.22363 0.31698 0.0
C558 C 0.70595 0.23958 0.3574 0.0
C559 C 0.71615 0.23114 0.38082 0.0
C560 C 0.69857 0.2654 0.35591 0.0
C561 C 0.70172 0.28234 0.377 0.0
C562 C 0.71276 0.27406 0.39991 0.0
C563 C 0.74085 0.16796 0.30261 0.0
C564 C 0.73342 0.14321 0.29305 0.0
C565 C 0.76705 0.17325 0.30828 0.0
C566 C 0.78529 0.15435 0.30437 0.0
C567 C 0.77772 0.12977 0.29477 0.0
C568 C 0.75165 0.12435 0.28917 0.0
C569 C 0.71959 0.24823 0.40181 0.0
H570 H 0.62488 0.17829 0.22882 0.0
H571 H 0.66 0.17279 0.25913 0.0
H572 H 0.6533 0.25209 0.28515 0.0
H573 H 0.61631 0.25612 0.257 0.0
H574 H 0.7009 0.17971 0.27164 0.0
H575 H 0.66771 0.23642 0.32173 0.0
H576 H 0.73846 0.20203 0.34264 0.0
H577 H 0.72155 0.21133 0.38297 0.0
H578 H 0.69089 0.27279 0.33823 0.0
H579 H 0.69584 0.30202 0.37533 0.0
H580 H 0.71342 0.13831 0.28882 0.0
H581 H 0.77355 0.19215 0.31536 0.0
H582 H 0.72791 0.24142 0.41946 0.0
H583 H 0.74546 0.10551 0.28163 0.0
H584 H 0.80535 0.15898 0.30854 0.0
C585 C 0.49685 0.13094 0.00718 0.0
C586 C 0.49699 0.1288 0.034 0.0
C587 C 0.49258 0.10901 0.99135 0.0
C588 C 0.48806 0.08464 1.00213 0.0
C589 C 0.48875 0.08255 0.02899 0.0
C590 C 0.49338 0.10439 0.04474 0.0
C591 C 0.48158 0.06159 0.98554 0.0
C592 C 0.49639 0.0557 0.96393 0.0
C593 C 0.49007 0.03405 0.94798 0.0
C594 C 0.46841 0.01834 0.95415 0.0
C595 C 0.45337 0.02388 0.97581 0.0
C596 C 0.46022 0.04558 0.9913 0.0
C597 C 0.43025 0.00741 0.98217 0.0
C598 C 0.41367 0.99729 0.96267 0.0
C599 C 0.42421 1.00215 0.00792 0.0
C600 C 0.40212 0.98746 0.01397 0.0
C601 C 0.38571 0.97753 0.99443 0.0
C602 C 0.50598 0.02801 0.9249 0.0
C603 C 0.51728 0.048 0.91043 0.0
C604 C 0.51005 1.00229 0.91704 0.0
C605 C 0.5248 0.9968 0.89534 0.0
C606 C 0.53618 0.01686 0.88127 0.0
C607 C 0.53229 0.04247 0.88901 0.0
C608 C 0.39167 0.98246 0.96876 0.0
H609 H 0.49966 0.14964 0.99854 0.0
H610 H 0.49203 0.11122 0.97073 0.0
H611 H 0.48564 0.06399 0.03783 0.0
H612 H 0.49385 0.10227 0.06531 0.0
H613 H 0.51322 0.06775 0.95996 0.0
H614 H 0.44841 0.05057 0.00755 0.0
H615 H 0.46315 1.00177 0.94203 0.0
H616 H 0.4174 1.00122 0.9427 0.0
H617 H 0.43667 0.00924 0.02344 0.0
H618 H 0.39787 0.98373 0.03389 0.0
H619 H 0.51424 0.06802 0.91537 0.0
H620 H 0.5021 0.98631 0.92779 0.0
H621 H 0.37915 0.97499 0.95343 0.0
H622 H 0.54066 0.05824 0.87822 0.0
H623 H 0.52749 0.9769 0.88962 0.0
Mn624 Mn 0.25488 0.87362 0.01464 0.0
Mn625 Mn 0.25574 0.90005 0.95576 0.0
C626 C 0.23683 0.85105 0.97936 0.0
C627 C 0.27257 0.84827 0.04668 0.0
C628 C 0.21962 0.91667 0.99797 0.0
O629 O 0.28309 0.90186 0.01856 0.0
O630 O 0.28335 0.91651 0.97795 0.0
C631 C 0.30624 0.88229 0.93824 0.0
N632 N 0.28032 0.88315 0.93487 0.0
C633 C 0.2822 0.8587 0.89525 0.0
C634 C 0.3089 0.85751 0.89835 0.0
C635 C 0.32095 0.86929 0.92 0.0
C636 C 0.26851 0.87168 0.91423 0.0
H637 H 0.31564 0.89154 0.95467 0.0
C638 C 0.29229 0.91622 1.00096 0.0
O639 O 0.25574 0.86545 0.05181 0.0
O640 O 0.2801 0.84675 0.02305 0.0
N641 N 0.2305 0.88546 0.93224 0.0
C642 C 0.20459 0.88837 0.93204 0.0
C643 C 0.18964 0.87743 0.91178 0.0
C644 C 0.20151 0.86403 0.89171 0.0
C645 C 0.22826 0.86182 0.892 0.0
C646 C 0.24215 0.87302 0.91275 0.0
H647 H 0.19535 0.8988 0.9473 0.0
O648 O 0.22974 0.84567 1.0025 0.0
O649 O 0.25391 0.86976 0.97758 0.0
O650 O 0.22711 0.90078 0.01461 0.0
O651 O 0.22919 0.91822 0.97553 0.0
C652 C 0.24171 0.84905 0.87246 0.0
C653 C 0.26864 0.84741 0.87412 0.0
H654 H 0.32032 0.84757 0.88426 0.0
H655 H 0.34155 0.86846 0.92254 0.0
H656 H 0.16902 0.87935 0.91162 0.0
H657 H 0.18991 0.85561 0.87613 0.0
H658 H 0.23154 0.8404 0.85605 0.0
H659 H 0.27872 0.83732 0.8591 0.0
Mn660 Mn 0.13983 0.49892 0.25575 0.0
Mn661 Mn 0.11454 0.55828 0.25793 0.0
C662 C 0.16257 0.53436 0.23933 0.0
C663 C 0.16471 0.46624 0.2723 0.0
C664 C 0.0973 0.51641 0.21913 0.0
O665 O 0.11194 0.49488 0.28306 0.0
O666 O 0.09704 0.53522 0.28279 0.0
C667 C 0.13229 0.57254 0.31069 0.0
N668 N 0.13158 0.57765 0.28514 0.0
C669 C 0.15744 0.61657 0.2918 0.0
C670 C 0.15834 0.61178 0.31816 0.0
C671 C 0.14581 0.58959 0.32763 0.0
C672 C 0.14403 0.59866 0.27578 0.0
H673 H 0.12265 0.55559 0.31815 0.0
C674 C 0.09719 0.51232 0.29147 0.0
O675 O 0.14665 0.46135 0.25543 0.0
O676 O 0.16743 0.48989 0.28078 0.0
N677 N 0.12979 0.58335 0.23565 0.0
C678 C 0.12529 0.58647 0.21014 0.0
C679 C 0.13664 0.60761 0.19761 0.0
C680 C 0.15145 0.62613 0.21172 0.0
C681 C 0.15437 0.62354 0.2383 0.0
C682 C 0.14294 0.60178 0.24962 0.0
H683 H 0.11242 0.57347 0.19966 0.0
O684 O 0.16738 0.51107 0.23173 0.0
O685 O 0.14439 0.53622 0.25612 0.0
O686 O 0.11239 0.49944 0.22722 0.0
O687 O 0.09656 0.5393 0.2288 0.0
C688 C 0.16768 0.64199 0.25408 0.0
C689 C 0.16933 0.63844 0.28079 0.0
H690 H 0.16861 0.62498 0.33131 0.0
H691 H 0.14647 0.5857 0.34795 0.0
H692 H 0.13346 0.60995 0.17725 0.0
H693 H 0.15985 0.64263 0.20206 0.0
H694 H 0.17661 0.65906 0.24591 0.0
H695 H 0.17976 0.65267 0.2927 0.0
Mn696 Mn 0.761 0.62575 0.00755 0.0
Mn697 Mn 0.70947 0.6523 0.9796 0.0
C698 C 0.72069 0.60442 0.00823 0.0
C699 C 0.79704 0.59995 0.00615 0.0
C700 C 0.73145 0.67061 0.03125 0.0
O701 O 0.77762 0.65279 0.98425 0.0
O702 O 0.74188 0.66764 0.96557 0.0
C703 C 0.71679 0.6308 0.9272 0.0
N704 N 0.7018 0.63371 0.94826 0.0
C705 C 0.66722 0.60842 0.92835 0.0
C706 C 0.6823 0.60513 0.90647 0.0
C707 C 0.70724 0.61631 0.90594 0.0
C708 C 0.67795 0.62269 0.94912 0.0
H709 H 0.73587 0.63948 0.92665 0.0
C710 C 0.76631 0.66721 0.9684 0.0
O711 O 0.79488 0.61812 0.02336 0.0
O712 O 0.77872 0.59724 0.98913 0.0
N713 N 0.67665 0.63951 0.99081 0.0
C714 C 0.66412 0.64563 0.01283 0.0
C715 C 0.63851 0.63701 0.01594 0.0
C716 C 0.62594 0.62245 0.99626 0.0
C717 C 0.63904 0.61683 0.97358 0.0
C718 C 0.66445 0.62618 0.97146 0.0
H719 H 0.67352 0.65713 0.02789 0.0
O720 O 0.73842 0.59914 0.02479 0.0
O721 O 0.72708 0.62206 0.99188 0.0
O722 O 0.74942 0.65449 0.03211 0.0
O723 O 0.71564 0.67175 0.01238 0.0
C724 C 0.62772 0.6027 0.9528 0.0
C725 C 0.6419 0.59823 0.93032 0.0
H726 H 0.67492 0.59413 0.88995 0.0
H727 H 0.71902 0.61387 0.88912 0.0
H728 H 0.62848 0.64158 0.03344 0.0
H729 H 0.60621 0.61574 0.99877 0.0
H730 H 0.60813 0.59514 0.95394 0.0
H731 H 0.63306 0.58716 0.91455 0.0
Mn732 Mn 0.87362 0.01688 0.25269 0.0
Mn733 Mn 0.89462 0.95591 0.25014 0.0
C734 C 0.84812 0.98356 0.23355 0.0
C735 C 0.85081 0.05055 0.27117 0.0
C736 C 0.91537 0.99869 0.21608 0.0
O737 O 0.90205 0.01749 0.2806 0.0
O738 O 0.91199 0.97546 0.27884 0.0
C739 C 0.87432 0.93721 0.29956 0.0
N740 N 0.87572 0.93483 0.27352 0.0
C741 C 0.84991 0.8955 0.27339 0.0
C742 C 0.84831 0.89743 0.3002 0.0
C743 C 0.86042 0.91848 0.31331 0.0
C744 C 0.86372 0.91494 0.26068 0.0
H745 H 0.88378 0.95323 0.30977 0.0
C746 C 0.91416 0.99815 0.28897 0.0
O747 O 0.86931 0.05486 0.2552 0.0
O748 O 0.84679 0.02684 0.27807 0.0
N749 N 0.87874 0.93458 0.22368 0.0
C750 C 0.88161 0.93586 0.19777 0.0
C751 C 0.8699 0.91668 0.18178 0.0
C752 C 0.85588 0.89608 0.19261 0.0
C753 C 0.85358 0.8949 0.21935 0.0
C754 C 0.86536 0.91477 0.23429 0.0
H755 H 0.8928 0.95134 0.18937 0.0
O756 O 0.84498 0.00742 0.22758 0.0
O757 O 0.86645 0.97997 0.25003 0.0
O758 O 0.90054 0.01597 0.22425 0.0
O759 O 0.91526 0.9758 0.22476 0.0
C760 C 0.84021 0.87473 0.2318 0.0
C761 C 0.83822 0.87511 0.25877 0.0
H762 H 0.83772 0.88295 0.31088 0.0
H763 H 0.85918 0.92018 0.334 0.0
H764 H 0.87188 0.91766 0.16117 0.0
H765 H 0.84704 0.88123 0.18021 0.0
H766 H 0.83134 0.85881 0.22083 0.0
H767 H 0.82758 0.85969 0.26807 0.0
Mn768 Mn 0.25784 0.12456 0.50609 0.0
Mn769 Mn 0.20826 0.14984 0.47445 0.0
C770 C 0.21842 0.1022 0.50466 0.0
C771 C 0.29502 0.10035 0.50624 0.0
C772 C 0.22826 0.17053 0.52636 0.0
O773 O 0.27467 0.15291 0.48413 0.0
O774 O 0.24076 0.16321 0.45945 0.0
C775 C 0.21426 0.12524 0.42328 0.0
N776 N 0.19958 0.12987 0.44425 0.0
C777 C 0.16322 0.10676 0.42506 0.0
C778 C 0.1779 0.10181 0.40319 0.0
C779 C 0.20358 0.11098 0.40237 0.0
C780 C 0.175 0.12083 0.4454 0.0
H781 H 0.23394 0.13241 0.42253 0.0
C782 C 0.26463 0.16484 0.46545 0.0
O783 O 0.29119 0.11799 0.52364 0.0
O784 O 0.27774 0.09732 0.4882 0.0
N785 N 0.17539 0.13838 0.48685 0.0
C786 C 0.16436 0.14343 0.50992 0.0
C787 C 0.13881 0.13518 0.51409 0.0
C788 C 0.12483 0.12191 0.49449 0.0
C789 C 0.13662 0.11674 0.47096 0.0
C790 C 0.1621 0.12552 0.46789 0.0
H791 H 0.17511 0.15319 0.52521 0.0
O792 O 0.2356 0.09693 0.52181 0.0
O793 O 0.22521 0.11996 0.48852 0.0
O794 O 0.24314 0.15191 0.53038 0.0
O795 O 0.21563 0.17209 0.50538 0.0
C796 C 0.12414 0.10314 0.45046 0.0
C797 C 0.13746 0.09806 0.42757 0.0
H798 H 0.1697 0.09088 0.387 0.0
H799 H 0.21506 0.10716 0.38561 0.0
H800 H 0.12995 0.13897 0.53242 0.0
H801 H 0.10511 0.11563 0.4978 0.0
H802 H 0.10437 0.09627 0.45217 0.0
H803 H 0.12779 0.08723 0.41211 0.0
Mn804 Mn 0.37278 0.51487 0.75557 0.0
Mn805 Mn 0.39619 0.45489 0.75239 0.0
C806 C 0.34853 0.48075 0.73625 0.0
C807 C 0.34868 0.54746 0.77431 0.0
C808 C 0.41511 0.49875 0.71865 0.0
O809 O 0.40124 0.5163 0.78351 0.0
O810 O 0.4128 0.47475 0.78134 0.0
C811 C 0.37667 0.43478 0.80156 0.0
N812 N 0.37812 0.43281 0.77551 0.0
C813 C 0.35352 0.39272 0.77485 0.0
C814 C 0.3519 0.39422 0.80168 0.0
C815 C 0.36337 0.41544 0.81507 0.0
C816 C 0.36675 0.41273 0.7624 0.0
H817 H 0.38561 0.45095 0.81199 0.0
C818 C 0.41406 0.49736 0.79173 0.0
O819 O 0.36699 0.55258 0.75835 0.0
O820 O 0.34558 0.52359 0.78105 0.0
N821 N 0.38108 0.43336 0.72567 0.0
C822 C 0.38379 0.43515 0.69978 0.0
C823 C 0.37264 0.41584 0.68354 0.0
C824 C 0.35927 0.39467 0.6941 0.0
C825 C 0.3571 0.39302 0.72082 0.0
C826 C 0.36836 0.41298 0.73602 0.0
H827 H 0.39432 0.45119 0.69156 0.0
O828 O 0.34445 0.50446 0.73041 0.0
O829 O 0.36707 0.47778 0.75264 0.0
O830 O 0.39966 0.51532 0.72708 0.0
O831 O 0.41603 0.47587 0.72721 0.0
C832 C 0.34431 0.37231 0.73299 0.0
C833 C 0.34239 0.37223 0.75996 0.0
H834 H 0.34175 0.37928 0.81217 0.0
H835 H 0.3621 0.41681 0.83577 0.0
H836 H 0.37447 0.41722 0.66294 0.0
H837 H 0.35077 0.37978 0.68151 0.0
H838 H 0.33584 0.35634 0.7218 0.0
H839 H 0.33218 0.35638 0.76905 0.0
Mn840 Mn 0.75138 0.37502 0.51585 0.0
Mn841 Mn 0.74882 0.39836 0.45572 0.0
C842 C 0.73369 0.34942 0.48235 0.0
C843 C 0.77309 0.35462 0.54949 0.0
C844 C 0.71333 0.41514 0.49866 0.0
O845 O 0.77772 0.40545 0.51708 0.0
O846 O 0.77683 0.4168 0.47547 0.0
C847 C 0.79912 0.38125 0.43707 0.0
N848 N 0.77306 0.38138 0.43453 0.0
C849 C 0.77424 0.35633 0.39526 0.0
C850 C 0.80108 0.35608 0.39735 0.0
C851 C 0.81356 0.36844 0.41846 0.0
C852 C 0.76083 0.36906 0.41462 0.0
H853 H 0.80884 0.39087 0.45316 0.0
C854 C 0.78628 0.41857 0.49822 0.0
O855 O 0.75452 0.37014 0.55345 0.0
O856 O 0.77871 0.35057 0.52554 0.0
N857 N 0.72309 0.3818 0.43399 0.0
C858 C 0.69713 0.38404 0.43458 0.0
C859 C 0.68174 0.37207 0.41522 0.0
C860 C 0.69325 0.35865 0.39495 0.0
C861 C 0.72008 0.35739 0.39421 0.0
C862 C 0.73439 0.36934 0.41428 0.0
H863 H 0.68826 0.39518 0.44949 0.0
O864 O 0.72804 0.34465 0.50605 0.0
O865 O 0.74932 0.36912 0.47908 0.0
O866 O 0.72143 0.39966 0.51533 0.0
O867 O 0.72265 0.4169 0.47609 0.0
C868 C 0.73321 0.34502 0.37417 0.0
C869 C 0.76025 0.34435 0.37478 0.0
H870 H 0.81229 0.34633 0.38295 0.0
H871 H 0.83427 0.36823 0.42029 0.0
H872 H 0.66107 0.37351 0.41572 0.0
H873 H 0.68133 0.34967 0.37991 0.0
H874 H 0.72272 0.33598 0.35816 0.0
H875 H 0.77009 0.3345 0.35943 0.0
Mn876 Mn 0.64174 1.00068 0.75485 0.0
Mn877 Mn 0.61678 0.0602 0.75727 0.0
C878 C 0.66441 0.03594 0.73794 0.0
C879 C 0.66659 0.96787 0.77125 0.0
C880 C 0.59876 0.0183 0.71882 0.0
O881 O 0.61416 0.99686 0.78251 0.0
O882 O 0.59954 0.03731 0.78246 0.0
C883 C 0.63548 0.07452 0.8097 0.0
N884 N 0.63436 0.07956 0.78415 0.0
C885 C 0.66049 0.11839 0.79027 0.0
C886 C 0.66181 0.11367 0.81663 0.0
C887 C 0.64936 0.09156 0.82636 0.0
C888 C 0.64674 0.10048 0.77453 0.0
H889 H 0.6259 0.05763 0.81735 0.0
C890 C 0.59962 0.01439 0.79111 0.0
O891 O 0.64834 0.96306 0.75457 0.0
O892 O 0.66959 0.99155 0.77958 0.0
N893 N 0.63174 0.08513 0.73467 0.0
C894 C 0.62672 0.08825 0.70926 0.0
C895 C 0.63787 0.10934 0.69649 0.0
C896 C 0.65302 0.12782 0.71029 0.0
C897 C 0.65649 0.12524 0.7368 0.0
C898 C 0.64521 0.10354 0.74837 0.0
H899 H 0.61355 0.07533 0.69907 0.0
O900 O 0.66902 0.01257 0.73042 0.0
O901 O 0.6465 0.03798 0.75501 0.0
O902 O 0.61393 1.00128 0.72667 0.0
O903 O 0.59826 0.04121 0.72849 0.0
C904 C 0.67018 0.14365 0.75231 0.0
C905 C 0.67228 0.14017 0.779 0.0
H906 H 0.67236 0.12686 0.82957 0.0
H907 H 0.65035 0.08772 0.84668 0.0
H908 H 0.63425 0.11169 0.6762 0.0
H909 H 0.66122 0.1443 0.70045 0.0
H910 H 0.67906 0.16064 0.74393 0.0
H911 H 0.68298 0.15438 0.7907 0.0
Mn912 Mn 0.01232 0.25294 0.8726 0.0
Mn913 Mn 0.95444 0.25098 0.90152 0.0
C914 C 0.97645 0.23444 0.85116 0.0
C915 C 0.04288 0.27322 0.84646 0.0
C916 C 0.99802 0.21633 0.91611 0.0
O917 O 0.01663 0.28069 0.90108 0.0
O918 O 0.97614 0.28007 0.9165 0.0
C919 C 0.93363 0.30041 0.88474 0.0
N920 N 0.93182 0.27419 0.88541 0.0
C921 C 0.89139 0.27339 0.86259 0.0
C922 C 0.89298 0.30037 0.86145 0.0
C923 C 0.91423 0.31393 0.87253 0.0
C924 C 0.91145 0.26095 0.87478 0.0
H925 H 0.94963 0.31095 0.89362 0.0
C926 C 0.99917 0.2896 0.91558 0.0
O927 O 0.04935 0.25611 0.86293 0.0
O928 O 0.01895 0.27936 0.84594 0.0
N929 N 0.93168 0.22412 0.88806 0.0
C930 C 0.933 0.19813 0.89075 0.0
C931 C 0.91332 0.18176 0.88043 0.0
C932 C 0.8923 0.1923 0.8678 0.0
C933 C 0.89108 0.21912 0.86571 0.0
C934 C 0.91135 0.23446 0.87624 0.0
H935 H 0.94896 0.1899 0.90064 0.0
O936 O 0.99948 0.22825 0.84473 0.0
O937 O 0.97523 0.25062 0.87042 0.0
O938 O 0.01366 0.22392 0.89891 0.0
O939 O 0.9759 0.22573 0.9193 0.0
C940 C 0.87051 0.23126 0.85371 0.0
C941 C 0.8707 0.25835 0.85205 0.0
H942 H 0.87799 0.31086 0.85213 0.0
H943 H 0.91556 0.33477 0.87184 0.0
H944 H 0.91435 0.16108 0.88223 0.0
H945 H 0.87716 0.17962 0.85985 0.0
H946 H 0.85439 0.21994 0.84574 0.0
H947 H 0.85487 0.26743 0.84257 0.0
Mn948 Mn 0.5109 0.75273 0.37631 0.0
Mn949 Mn 0.45124 0.75569 0.40053 0.0
C950 C 0.47598 0.73561 0.35284 0.0
C951 C 0.54464 0.76998 0.35172 0.0
C952 C 0.49133 0.71919 0.42037 0.0
O953 O 0.51485 0.78074 0.40469 0.0
O954 O 0.47321 0.78394 0.41602 0.0
C955 C 0.43549 0.8053 0.37933 0.0
N956 N 0.4314 0.7794 0.38178 0.0
C957 C 0.39199 0.78021 0.3574 0.0
C958 C 0.39573 0.80691 0.35469 0.0
C959 C 0.41765 0.81948 0.36559 0.0
C960 C 0.41053 0.76707 0.37113 0.0
H961 H 0.45223 0.81507 0.38782 0.0
C962 C 0.49687 0.79146 0.41719 0.0
O963 O 0.54849 0.75289 0.36909 0.0
O964 O 0.52148 0.77823 0.34988 0.0
N965 N 0.42792 0.72959 0.38653 0.0
C966 C 0.42817 0.70354 0.38914 0.0
C967 C 0.40794 0.68798 0.37867 0.0
C968 C 0.38771 0.69936 0.36552 0.0
C969 C 0.38799 0.72619 0.36282 0.0
C970 C 0.40862 0.7407 0.37374 0.0
H971 H 0.44402 0.69465 0.39852 0.0
O972 O 0.499 0.72813 0.34816 0.0
O973 O 0.47421 0.75272 0.37124 0.0
O974 O 0.50794 0.72417 0.40311 0.0
O975 O 0.47 0.73057 0.42141 0.0
C976 C 0.36872 0.73911 0.34953 0.0
C977 C 0.37077 0.76608 0.34674 0.0
H978 H 0.38199 0.81791 0.34413 0.0
H979 H 0.42073 0.84006 0.36351 0.0
H980 H 0.40808 0.66725 0.3805 0.0
H981 H 0.37223 0.68728 0.35731 0.0
H982 H 0.35233 0.72847 0.3412 0.0
H983 H 0.35604 0.77572 0.33612 0.0
Mn984 Mn 0.00816 0.75833 0.62472 0.0
Mn985 Mn 0.98355 0.70324 0.64979 0.0
C986 C 0.0088 0.7196 0.60082 0.0
C987 C 0.00369 0.79611 0.6013 0.0
C988 C 0.03516 0.72802 0.66636 0.0
O989 O 0.98645 0.77129 0.65492 0.0
O990 O 0.96804 0.73345 0.66663 0.0
C991 C 0.9299 0.70699 0.63135 0.0
N992 N 0.95192 0.69363 0.63274 0.0
C993 C 0.93236 0.65752 0.60941 0.0
C994 C 0.90943 0.67083 0.6078 0.0
C995 C 0.90826 0.69574 0.61868 0.0
C996 C 0.95342 0.66989 0.6219 0.0
H997 H 0.92886 0.72609 0.63983 0.0
C998 C 0.9706 0.75804 0.66846 0.0
O999 O 0.02214 0.79384 0.6179 0.0
O1000 O 0.98698 0.77701 0.59918 0.0
N1001 N 0.99627 0.67211 0.63516 0.0
C1002 C 0.01974 0.66181 0.63851 0.0
C1003 C 0.0242 0.63704 0.62856 0.0
C1004 C 0.00426 0.62279 0.61597 0.0
C1005 C 0.98004 0.6335 0.61331 0.0
C1006 C 0.97684 0.65839 0.62337 0.0
H1007 H 0.0348 0.67221 0.64905 0.0
O1008 O 0.02406 0.73896 0.59537 0.0
O1009 O 0.99354 0.72362 0.62 0.0
O1010 O 0.03542 0.74612 0.65013 0.0
O1011 O 0.01654 0.71147 0.66842 0.0
C1012 C 0.95885 0.62035 0.60137 0.0
C1013 C 0.93513 0.63247 0.59915 0.0
H1014 H 0.89265 0.66214 0.5982 0.0
H1015 H 0.89067 0.70618 0.61745 0.0
H1016 H 0.04286 0.62879 0.63097 0.0
H1017 H 0.0077 0.60354 0.60869 0.0
H1018 H 0.96055 0.60091 0.59381 0.0
H1019 H 0.91911 0.6223 0.58959 0.0
Mn1020 Mn 0.50848 0.25725 0.12575 0.0
Mn1021 Mn 0.47821 0.2048 0.14972 0.0
C1022 C 0.50777 0.21863 0.10229 0.0
C1023 C 0.50755 0.29532 0.10224 0.0
C1024 C 0.52986 0.22637 0.17019 0.0
O1025 O 0.48637 0.27186 0.15489 0.0
O1026 O 0.46286 0.23605 0.16455 0.0
C1027 C 0.42662 0.20994 0.12656 0.0
N1028 N 0.44787 0.19584 0.13023 0.0
C1029 C 0.42886 0.15962 0.10662 0.0
C1030 C 0.4067 0.17369 0.10267 0.0
C1031 C 0.40564 0.19903 0.11256 0.0
C1032 C 0.44926 0.17163 0.12046 0.0
H1033 H 0.4257 0.22936 0.1343 0.0
C1034 C 0.46817 0.26025 0.16693 0.0
O1035 O 0.52516 0.29185 0.11951 0.0
O1036 O 0.48982 0.27728 0.09942 0.0
N1037 N 0.49101 0.17293 0.13686 0.0
C1038 C 0.5144 0.16266 0.14079 0.0
C1039 C 0.51885 0.13756 0.13173 0.0
C1040 C 0.49919 0.12326 0.11873 0.0
C1041 C 0.47535 0.13434 0.1146 0.0
C1042 C 0.47203 0.1594 0.12417 0.0
H1043 H 0.52974 0.17373 0.15029 0.0
O1044 O 0.52454 0.23688 0.09738 0.0
O1045 O 0.49164 0.22387 0.12043 0.0
O1046 O 0.53339 0.24251 0.15222 0.0
O1047 O 0.50927 0.21243 0.17144 0.0
C1048 C 0.45479 0.12156 0.10128 0.0
C1049 C 0.43161 0.13424 0.09717 0.0
H1050 H 0.39046 0.1653 0.09195 0.0
H1051 H 0.38865 0.21005 0.1095 0.0
H1052 H 0.53742 0.12929 0.13466 0.0
H1053 H 0.5027 0.10389 0.11184 0.0
H1054 H 0.45665 0.10207 0.09389 0.0
H1055 H 0.41611 0.12438 0.08652 0.0
C1056 C 0.19958 0.80647 0.93168 0.0
C1057 C 0.22007 0.7961 0.9175 0.0
C1058 C 0.25129 0.81944 0.94567 0.0
C1059 C 0.2309 0.83231 0.95789 0.0
N1060 N 0.18555 0.83914 0.9619 0.0
N1061 N 0.26535 0.7952 0.90847 0.0
C1062 C 0.20498 0.82596 0.95084 0.0
C1063 C 0.24591 0.8033 0.9238 0.0
N1064 N 0.17503 0.7971 0.92732 0.0
N1065 N 0.27567 0.82157 0.95567 0.0
H1066 H 0.26223 0.78341 0.89222 0.0
H1067 H 0.28431 0.80202 0.91046 0.0
H1068 H 0.28051 0.83244 0.97213 0.0
H1069 H 0.29072 0.81054 0.94918 0.0
H1070 H 0.15953 0.80168 0.93879 0.0
H1071 H 0.17037 0.78306 0.91328 0.0
H1072 H 0.16649 0.83759 0.95572 0.0
H1073 H 0.18882 0.85348 0.97592 0.0
C1074 C 0.07531 0.50376 0.36067 0.0
C1075 C 0.04908 0.50996 0.35809 0.0
C1076 C 0.05339 0.5101 0.31113 0.0
C1077 C 0.08031 0.50722 0.31389 0.0
N1078 N 0.11752 0.5034 0.3414 0.0
N1079 N 0.01262 0.51881 0.3313 0.0
C1080 C 0.0914 0.50409 0.33866 0.0
C1081 C 0.03792 0.51278 0.33338 0.0
N1082 N 0.08491 0.49781 0.38426 0.0
N1083 N 0.04268 0.5101 0.28707 0.0
H1084 H 1.00034 0.51932 0.34699 0.0
H1085 H 0.00391 0.52439 0.31434 0.0
H1086 H 0.05359 0.5089 0.27048 0.0
H1087 H 0.023 0.50943 0.28338 0.0
H1088 H 0.10295 0.49023 0.38707 0.0
H1089 H 0.07409 0.49857 0.40096 0.0
H1090 H 0.12706 0.50452 0.35905 0.0
H1091 H 0.13007 0.50354 0.32596 0.0
C1092 C 0.79282 0.72882 0.93951 0.0
C1093 C 0.79719 0.72006 0.91395 0.0
C1094 C 0.78859 0.67518 0.92672 0.0
C1095 C 0.78178 0.68429 0.95146 0.0
N1096 N 0.78411 0.71775 0.98389 0.0
N1097 N 0.80056 0.68536 0.8829 0.0
C1098 C 0.78603 0.71057 0.95862 0.0
C1099 C 0.79587 0.69326 0.90757 0.0
N1100 N 0.79401 0.7547 0.94512 0.0
N1101 N 0.78842 0.64917 0.92188 0.0
H1102 H 0.80678 0.69802 0.86876 0.0
H1103 H 0.7977 0.66655 0.87598 0.0
H1104 H 0.78367 0.63572 0.93585 0.0
H1105 H 0.79449 0.64064 0.90488 0.0
H1106 H 0.78835 0.7628 0.96249 0.0
H1107 H 0.7997 0.76847 0.93181 0.0
H1108 H 0.78861 0.73618 0.99115 0.0
H1109 H 0.78007 0.70441 0.99815 0.0
C1110 C 0.9679 0.98383 0.33584 0.0
C1111 C 0.96035 0.99695 0.35855 0.0
C1112 C 0.9222 0.0118 0.33572 0.0
C1113 C 0.93117 1.00084 0.31233 0.0
N1114 N 0.96629 0.98183 0.28953 0.0
N1115 N 0.93347 0.0285 0.3783 0.0
C1116 C 0.95525 0.98865 0.31223 0.0
C1117 C 0.93851 0.0126 0.3579 0.0
N1118 N 0.98621 0.96559 0.33693 0.0
N1119 N 0.89753 0.01974 0.33752 0.0
H1120 H 0.94514 0.02984 0.39469 0.0
H1121 H 0.91925 0.04214 0.37783 0.0
H1122 H 0.88429 0.01809 0.32243 0.0
H1123 H 0.88937 0.02539 0.35483 0.0
H1124 H 0.99042 0.95354 0.3214 0.0
H1125 H 0.99525 0.96052 0.35394 0.0
H1126 H 0.98499 0.9754 0.28832 0.0
H1127 H 0.95784 0.98506 0.27176 0.0
C1128 C 0.20408 0.22579 0.57069 0.0
C1129 C 0.22052 0.22288 0.59222 0.0
C1130 C 0.24593 0.19366 0.56627 0.0
C1131 C 0.22612 0.19122 0.54717 0.0
N1132 N 0.18402 0.20622 0.5332 0.0
N1133 N 0.2548 0.19946 0.61155 0.0
C1134 C 0.20452 0.20762 0.54979 0.0
C1135 C 0.24072 0.2054 0.59036 0.0
N1136 N 0.18889 0.24671 0.5694 0.0
N1137 N 0.27035 0.18654 0.56097 0.0
H1138 H 0.25089 0.20666 0.62987 0.0
H1139 H 0.26845 0.18521 0.61115 0.0
H1140 H 0.27616 0.18153 0.54248 0.0
H1141 H 0.28556 0.18956 0.57398 0.0
H1142 H 0.17864 0.25127 0.55291 0.0
H1143 H 0.18886 0.26117 0.58359 0.0
H1144 H 0.1667 0.21479 0.53744 0.0
H1145 H 0.18306 0.19615 0.51587 0.0
C1146 C 0.43935 0.51058 0.65069 0.0
C1147 C 0.4656 0.51733 0.65559 0.0
C1148 C 0.45866 0.51307 0.70209 0.0
C1149 C 0.4324 0.50624 0.69709 0.0
N1150 N 0.3965 0.50382 0.66761 0.0
N1151 N 0.50076 0.52559 0.68528 0.0
C1152 C 0.42242 0.50646 0.67163 0.0
C1153 C 0.47542 0.51874 0.68118 0.0
N1154 N 0.43068 0.50767 0.62588 0.0
N1155 N 0.46719 0.51482 0.72698 0.0
H1156 H 0.51352 0.52923 0.67037 0.0
H1157 H 0.50953 0.52788 0.7032 0.0
H1158 H 0.45471 0.51343 0.74243 0.0
H1159 H 0.48618 0.5182 0.73269 0.0
H1160 H 0.41273 0.49961 0.62079 0.0
H1161 H 0.44205 0.51182 0.61003 0.0
H1162 H 0.38744 0.50642 0.65001 0.0
H1163 H 0.38366 0.50129 0.68255 0.0
C1164 C 0.80791 0.3016 0.58451 0.0
C1165 C 0.79352 0.30118 0.6076 0.0
C1166 C 0.7746 0.34205 0.59621 0.0
C1167 C 0.78484 0.33992 0.57114 0.0
N1168 N 0.8206 0.32527 0.54655 0.0
N1169 N 0.76048 0.31944 0.63385 0.0
C1170 C 0.80417 0.32171 0.56655 0.0
C1171 C 0.77624 0.32105 0.61307 0.0
N1172 N 0.82501 0.28272 0.57973 0.0
N1173 N 0.7654 0.36494 0.60485 0.0
H1174 H 0.76047 0.30408 0.64645 0.0
H1175 H 0.74564 0.33206 0.63703 0.0
H1176 H 0.76783 0.38194 0.59469 0.0
H1177 H 0.75943 0.36801 0.62366 0.0
H1178 H 0.83378 0.27978 0.56211 0.0
H1179 H 0.82975 0.26903 0.59321 0.0
H1180 H 0.83599 0.31366 0.54254 0.0
H1181 H 0.82106 0.34207 0.5359 0.0
C1182 C 0.54484 0.98468 0.67848 0.0
C1183 C 0.54593 0.99956 0.65587 0.0
C1184 C 0.58393 0.02329 0.67305 0.0
C1185 C 0.58095 0.01105 0.69697 0.0
N1186 N 0.5575 0.98066 0.72315 0.0
N1187 N 0.5635 0.03655 0.63387 0.0
C1188 C 0.56106 0.99187 0.69989 0.0
C1189 C 0.56453 0.01997 0.65388 0.0
N1190 N 0.52918 0.96301 0.67908 0.0
N1191 N 0.60626 0.03648 0.6678 0.0
H1192 H 0.54931 0.03507 0.61959 0.0
H1193 H 0.57517 0.05323 0.63292 0.0
H1194 H 0.62163 0.0373 0.68069 0.0
H1195 H 0.61057 0.04377 0.6498 0.0
H1196 H 0.52955 0.94977 0.69382 0.0
H1197 H 0.51717 0.95708 0.6638 0.0
H1198 H 0.54147 0.96906 0.72745 0.0
H1199 H 0.56991 0.98412 0.73873 0.0
C1200 C 0.92032 0.24587 0.80539 0.0
C1201 C 0.91403 0.22039 0.79664 0.0
C1202 C 0.9474 0.20374 0.8249 0.0
C1203 C 0.95461 0.22942 0.83273 0.0
N1204 N 0.9523 0.27513 0.82483 0.0
N1205 N 0.92356 0.17531 0.79489 0.0
C1206 C 0.94227 0.25057 0.82144 0.0
C1207 C 0.9281 0.19936 0.80556 0.0
N1208 N 0.90497 0.2656 0.79876 0.0
N1209 N 0.95864 0.18349 0.83638 0.0
H1210 H 0.90936 0.17135 0.78098 0.0
H1211 H 0.93497 0.15965 0.79832 0.0
H1212 H 0.97329 0.18601 0.84996 0.0
H1213 H 0.95225 0.16437 0.83399 0.0
H1214 H 0.90692 0.28413 0.80674 0.0
H1215 H 0.88874 0.26296 0.78699 0.0
H1216 H 0.94574 0.29086 0.81489 0.0
H1217 H 0.96883 0.27963 0.83561 0.0
C1218 C 0.50226 0.86229 0.43702 0.0
C1219 C 0.49776 0.86016 0.46373 0.0
C1220 C 0.5019 0.81315 0.46021 0.0
C1221 C 0.50262 0.815 0.43314 0.0
N1222 N 0.50333 0.84076 0.3952 0.0
N1223 N 0.49344 0.83404 0.50128 0.0
C1224 C 0.50323 0.83947 0.42139 0.0
C1225 C 0.49795 0.83571 0.47555 0.0
N1226 N 0.50557 0.88616 0.42664 0.0
N1227 N 0.50513 0.7897 0.4711 0.0
H1228 H 0.49147 0.85021 0.51323 0.0
H1229 H 0.4904 0.81672 0.5107 0.0
H1230 H 0.50811 0.77302 0.46015 0.0
H1231 H 0.50701 0.78702 0.49075 0.0
H1232 H 0.51145 0.88918 0.40788 0.0
H1233 H 0.50425 0.90322 0.43741 0.0
H1234 H 0.50043 0.85758 0.38518 0.0
H1235 H 0.5051 0.82455 0.38327 0.0
C1236 C 0.07376 0.29456 0.78396 0.0
C1237 C 0.0991 0.30123 0.79247 0.0
C1238 C 0.08428 0.2979 0.83697 0.0
C1239 C 0.06166 0.28434 0.82801 0.0
N1240 N 0.03519 0.26917 0.79185 0.0
N1241 N 0.1177 0.32898 0.82571 0.0
C1242 C 0.05628 0.28279 0.80121 0.0
C1243 C 0.10178 0.30854 0.81882 0.0
N1244 N 0.06512 0.30314 0.76099 0.0
N1245 N 0.08904 0.30099 0.86268 0.0
H1246 H 0.12668 0.34041 0.81193 0.0
H1247 H 0.11883 0.33684 0.84426 0.0
H1248 H 0.07586 0.2954 0.87662 0.0
H1249 H 0.10665 0.30806 0.87004 0.0
H1250 H 0.04603 0.30077 0.75491 0.0
H1251 H 0.07625 0.31585 0.75004 0.0
H1252 H 0.0321 0.26581 0.77224 0.0
H1253 H 0.02218 0.25927 0.80347 0.0
C1254 C 0.48832 0.65753 0.45972 0.0
C1255 C 0.51393 0.65664 0.46888 0.0
C1256 C 0.52369 0.69897 0.44999 0.0
C1257 C 0.49788 0.69973 0.44049 0.0
N1258 N 0.45379 0.68449 0.4475 0.0
N1259 N 0.55537 0.67752 0.4761 0.0
C1260 C 0.47956 0.68047 0.44852 0.0
C1261 C 0.53147 0.67769 0.46496 0.0
N1262 N 0.47219 0.6363 0.46154 0.0
N1263 N 0.54053 0.71912 0.44541 0.0
H1264 H 0.56187 0.6619 0.48634 0.0
H1265 H 0.5685 0.69307 0.47634 0.0
H1266 H 0.53461 0.73686 0.4389 0.0
H1267 H 0.5603 0.71856 0.4482 0.0
H1268 H 0.45438 0.63468 0.45225 0.0
H1269 H 0.47748 0.61938 0.47037 0.0
H1270 H 0.44008 0.67178 0.45508 0.0
H1271 H 0.44592 0.70196 0.44306 0.0
C1272 C 0.9301 0.7656 0.72806 0.0
C1273 C 0.91634 0.7881 0.72297 0.0
C1274 C 0.93878 0.79212 0.68177 0.0
C1275 C 0.95411 0.77087 0.68801 0.0
N1276 N 0.96885 0.74244 0.72093 0.0
N1277 N 0.91204 0.82621 0.69776 0.0
C1278 C 0.95121 0.75929 0.7124 0.0
C1279 C 0.92213 0.80248 0.70069 0.0
N1280 N 0.92221 0.74929 0.74695 0.0
N1281 N 0.93871 0.80148 0.65744 0.0
H1282 H 0.90008 0.83448 0.71134 0.0
H1283 H 0.91757 0.83864 0.68319 0.0
H1284 H 0.9497 0.79405 0.64263 0.0
H1285 H 0.92584 0.81506 0.65128 0.0
H1286 H 0.92998 0.73126 0.74954 0.0
H1287 H 0.90614 0.75237 0.75822 0.0
H1288 H 0.96901 0.73559 0.7396 0.0
H1289 H 0.98488 0.73745 0.71038 0.0
C1290 C 0.00701 0.86577 0.57901 0.0
C1291 C 0.0083 0.86213 0.55197 0.0
C1292 C 0.00557 0.81513 0.55709 0.0
C1293 C 1.00318 0.81874 0.5841 0.0
N1294 N 0.99631 0.84727 0.6202 0.0
N1295 N 0.00357 0.83393 0.51484 0.0
C1296 C 1.00235 0.84404 0.59489 0.0
C1297 C 0.00586 0.83696 0.5409 0.0
N1298 N 0.01104 0.88991 0.58958 0.0
N1299 N 0.00916 0.79102 0.54696 0.0
H1300 H 0.00415 0.84944 0.50239 0.0
H1301 H 0.99888 0.81634 0.50572 0.0
H1302 H 0.00941 0.77448 0.55796 0.0
H1303 H 0.01408 0.78757 0.52791 0.0
H1304 H 0.01336 0.8935 0.60921 0.0
H1305 H 0.01382 0.90633 0.57856 0.0
H1306 H 0.99284 0.86512 0.62871 0.0
H1307 H 0.99239 0.8318 0.63221 0.0
C1308 C 0.10088 0.71215 0.69447 0.0
C1309 C 0.09779 0.72012 0.72045 0.0
C1310 C 0.05585 0.73744 0.70947 0.0
C1311 C 0.05744 0.72649 0.68442 0.0
N1312 N 0.0808 0.70213 0.65316 0.0
N1313 N 0.07083 0.73717 0.75365 0.0
C1314 C 0.07981 0.71349 0.67694 0.0
C1315 C 0.07485 0.73193 0.72823 0.0
N1316 N 0.12426 0.70422 0.68631 0.0
N1317 N 0.03674 0.75399 0.71504 0.0
H1318 H 0.0842 0.73329 0.76798 0.0
H1319 H 0.05336 0.74322 0.76076 0.0
H1320 H 0.0233 0.75934 0.70135 0.0
H1321 H 0.03586 0.76448 0.73224 0.0
H1322 H 0.12859 0.7008 0.66711 0.0
H1323 H 0.14017 0.70313 0.6985 0.0
H1324 H 0.095 0.68962 0.64753 0.0
H1325 H 0.06633 0.70404 0.63953 0.0
C1326 C 0.02345 0.65968 0.55954 0.0
C1327 C 0.99859 0.65305 0.54952 0.0
C1328 C 0.98153 0.69163 0.57044 0.0
C1329 C 0.00569 0.697 0.58262 0.0
N1330 N 0.05018 0.68686 0.58822 0.0
N1331 N 0.95351 0.66321 0.54594 0.0
C1332 C 0.02689 0.68134 0.57678 0.0
C1333 C 0.97767 0.66903 0.55505 0.0
N1334 N 0.04393 0.64578 0.55174 0.0
N1335 N 0.96192 0.70829 0.57317 0.0
H1336 H 0.94847 0.64676 0.53492 0.0
H1337 H 0.94847 0.64676 0.53492 0.0
H1338 H 0.96392 0.72598 0.58293 0.0
H1339 H 0.94384 0.70477 0.56473 0.0
H1340 H 0.063 0.65086 0.55603 0.0
H1341 H 0.04206 0.62974 0.5394 0.0
H1342 H 0.06552 0.67455 0.58794 0.0
H1343 H 0.05397 0.70364 0.59901 0.0
C1344 C 0.79965 0.93879 0.19683 0.0
C1345 C 0.78965 0.92394 0.21724 0.0
C1346 C 0.8146 0.95105 0.24824 0.0
C1347 C 0.82745 0.96352 0.22768 0.0
N1348 N 0.832 0.96962 0.18217 0.0
N1349 N 0.7895 0.91382 0.26221 0.0
C1350 C 0.81974 0.95763 0.20189 0.0
C1351 C 0.7976 0.92955 0.24291 0.0
N1352 N 0.78928 0.93545 0.17272 0.0
N1353 N 0.81767 0.96049 0.27281 0.0
H1354 H 0.77725 0.89772 0.25915 0.0
H1355 H 0.79668 0.91533 0.28092 0.0
H1356 H 0.82904 0.97681 0.27758 0.0
H1357 H 0.80686 0.95383 0.28818 0.0
H1358 H 0.79365 0.94741 0.15746 0.0
H1359 H 0.77459 0.92185 0.16836 0.0
H1360 H 0.82999 0.9638 0.16301 0.0
H1361 H 0.84543 0.98465 0.18512 0.0
C1362 C 0.80407 0.10494 0.26338 0.0
C1363 C 0.7972 0.11004 0.28919 0.0
C1364 C 0.8276 0.07794 0.30369 0.0
C1365 C 0.83251 0.0711 0.27772 0.0
N1366 N 0.82079 0.07429 0.23287 0.0
N1367 N 0.79966 0.09925 0.3339 0.0
C1368 C 0.81955 0.08363 0.25755 0.0
C1369 C 0.80822 0.09595 0.30938 0.0
N1370 N 0.79625 0.12083 0.24441 0.0
N1371 N 0.84209 0.06795 0.32284 0.0
H1372 H 0.78576 0.11245 0.33878 0.0
H1373 H 0.80484 0.0876 0.34901 0.0
H1374 H 0.85654 0.05498 0.31928 0.0
H1375 H 0.84133 0.07413 0.34194 0.0
H1376 H 0.80307 0.11981 0.2257 0.0
H1377 H 0.7848 0.13662 0.24784 0.0
H1378 H 0.80946 0.08089 0.21795 0.0
H1379 H 0.83103 0.05815 0.22765 0.0
C1380 C 0.36355 0.93468 1.00262 0.0
C1381 C 0.36217 0.96185 1.0007 0.0
C1382 C 0.31569 0.95867 0.00824 0.0
C1383 C 0.31651 0.9315 0.00598 0.0
N1384 N 0.34082 0.89299 1.00154 0.0
N1385 N 0.33727 1.00018 1.00149 0.0
C1386 C 0.34041 0.91928 0.00377 0.0
C1387 C 0.33833 0.97403 0.00372 0.0
N1388 N 0.38702 0.92366 0.00336 0.0
N1389 N 0.29328 0.96961 0.0153 0.0
H1390 H 0.35358 0.0121 0.99911 0.0
H1391 H 0.32018 0.00997 1.00056 0.0
H1392 H 0.27696 0.95845 0.01983 0.0
H1393 H 0.29154 0.98921 0.01924 0.0
H1394 H 0.38961 0.90435 0.00737 0.0
H1395 H 0.40428 0.9343 1.00184 0.0
H1396 H 0.35703 0.88293 0.99656 0.0
H1397 H 0.32442 0.88108 0.00341 0.0
C1398 C 0.21313 0.41318 0.2649 0.0
C1399 C 0.21904 0.40799 0.29087 0.0
C1400 C 0.18747 0.43941 0.30495 0.0
C1401 C 0.18342 0.44628 0.27901 0.0
N1402 N 0.19682 0.44363 0.23477 0.0
N1403 N 0.21467 0.41849 0.33584 0.0
C1404 C 0.1974 0.43418 0.25909 0.0
C1405 C 0.20698 0.42177 0.311 0.0
N1406 N 0.22203 0.39761 0.24571 0.0
N1407 N 0.17205 0.449 0.32368 0.0
H1408 H 0.22865 0.40556 0.34096 0.0
H1409 H 0.20868 0.42995 0.35113 0.0
H1410 H 0.15748 0.46173 0.31991 0.0
H1411 H 0.17221 0.4427 0.34253 0.0
H1412 H 0.21597 0.39866 0.22666 0.0
H1413 H 0.23367 0.38204 0.24911 0.0
H1414 H 0.2088 0.43738 0.2202 0.0
H1415 H 0.18637 0.45957 0.22972 0.0
C1416 C 0.15579 0.06547 0.52047 0.0
C1417 C 0.14997 0.05302 0.49651 0.0
C1418 C 0.19038 0.07053 0.47892 0.0
C1419 C 0.19465 0.08554 0.50177 0.0
N1420 N 0.18116 0.09828 0.54418 0.0
N1421 N 0.16004 0.04564 0.45196 0.0
C1422 C 0.17739 0.08308 0.52263 0.0
C1423 C 0.16684 0.05605 0.47548 0.0
N1424 N 0.14101 0.05989 0.54132 0.0
N1425 N 0.20929 0.06917 0.46096 0.0
H1426 H 0.14301 0.03488 0.44865 0.0
H1427 H 0.17015 0.04943 0.43524 0.0
H1428 H 0.227 0.07902 0.46289 0.0
H1429 H 0.20842 0.05651 0.4452 0.0
H1430 H 0.14566 0.06602 0.55997 0.0
H1431 H 0.12493 0.04734 0.54034 0.0
H1432 H 0.1679 0.09961 0.55891 0.0
H1433 H 0.19661 0.11148 0.54644 0.0
C1434 C 0.70625 0.08456 0.70101 0.0
C1435 C 0.71802 0.09893 0.72166 0.0
C1436 C 0.69714 0.07012 0.75256 0.0
C1437 C 0.68306 0.05748 0.73213 0.0
N1438 N 0.67458 0.05183 0.68678 0.0
N1439 N 0.72296 0.10749 0.76708 0.0
C1440 C 0.68786 0.06439 0.70629 0.0
C1441 C 0.713 0.09225 0.74744 0.0
N1442 N 0.71343 0.08962 0.67638 0.0
N1443 N 0.69636 0.06022 0.77669 0.0
H1444 H 0.73471 0.12383 0.76413 0.0
H1445 H 0.71787 0.10535 0.78621 0.0
H1446 H 0.68568 0.04362 0.78124 0.0
H1447 H 0.70816 0.06692 0.79179 0.0
H1448 H 0.70785 0.07824 0.6605 0.0
H1449 H 0.72652 0.10446 0.67182 0.0
H1450 H 0.67419 0.05807 0.66793 0.0
H1451 H 0.66295 0.03547 0.68965 0.0
C1452 C 0.33522 0.04025 0.5114 0.0
C1453 C 0.36023 0.05162 0.51468 0.0
C1454 C 0.34284 0.09453 0.5082 0.0
C1455 C 0.31753 0.08342 0.50785 0.0
N1456 N 0.28928 0.04601 0.513 0.0
N1457 N 0.38789 0.08969 0.5189 0.0
C1458 C 0.3136 0.05632 0.51028 0.0
C1459 C 0.36407 0.07882 0.51375 0.0
N1460 N 0.33215 0.01403 0.50903 0.0
N1461 N 0.34666 0.11993 0.5023 0.0
H1462 H 0.40398 0.0788 0.52242 0.0
H1463 H 0.39138 0.10945 0.5215 0.0
H1464 H 0.33164 0.13187 0.49774 0.0
H1465 H 0.36474 0.12857 0.49961 0.0
H1466 H 0.31484 0.00468 0.50374 0.0
H1467 H 0.34747 1.00164 0.51018 0.0
H1468 H 0.2854 0.02689 0.51778 0.0
H1469 H 0.2729 0.057 0.51275 0.0
C1470 C 0.64613 0.44041 0.51078 0.0
C1471 C 0.65227 0.46667 0.51714 0.0
C1472 C 0.69824 0.4577 0.51566 0.0
C1473 C 0.69219 0.43241 0.50612 0.0
N1474 N 0.66049 0.39936 0.49429 0.0
N1475 N 0.68404 0.5013 0.52249 0.0
C1476 C 0.66612 0.42368 0.5036 0.0
C1477 C 0.67832 0.47559 0.51871 0.0
N1478 N 0.62129 0.43124 0.51262 0.0
N1479 N 0.72289 0.46419 0.52303 0.0
H1480 H 0.66999 0.51497 0.52492 0.0
H1481 H 0.70256 0.50936 0.52107 0.0
H1482 H 0.7375 0.45095 0.52253 0.0
H1483 H 0.72822 0.48156 0.53229 0.0
H1484 H 0.61583 0.41179 0.51099 0.0
H1485 H 0.60616 0.44287 0.51778 0.0
H1486 H 0.64213 0.39273 0.48877 0.0
H1487 H 0.67464 0.3861 0.49089 0.0
C1488 C 0.74364 0.30127 0.42726 0.0
C1489 C 0.71799 0.29275 0.42161 0.0
C1490 C 0.70232 0.32134 0.4558 0.0
C1491 C 0.72806 0.32952 0.46176 0.0
N1492 N 0.77334 0.3215 0.45816 0.0
N1493 N 0.6733 0.29091 0.43306 0.0
C1494 C 0.74878 0.3178 0.44894 0.0
C1495 C 0.6974 0.30178 0.43659 0.0
N1496 N 0.76307 0.29421 0.4114 0.0
N1497 N 0.68251 0.33267 0.46816 0.0
H1498 H 0.66904 0.27656 0.41921 0.0
H1499 H 0.6579 0.29452 0.44502 0.0
H1500 H 0.68538 0.34568 0.48343 0.0
H1501 H 0.66334 0.33035 0.46247 0.0
H1502 H 0.78177 0.30187 0.41295 0.0
H1503 H 0.76013 0.28239 0.39515 0.0
H1504 H 0.78886 0.31143 0.45125 0.0
H1505 H 0.77798 0.33273 0.47445 0.0
C1506 C 0.5404 0.01464 0.83318 0.0
C1507 C 0.55157 0.01143 0.85783 0.0
C1508 C 0.59388 0.00584 0.83825 0.0
C1509 C 0.58277 0.00929 0.81355 0.0
N1510 N 0.5451 0.0126 0.78684 0.0
N1511 N 0.58744 0.99894 0.88376 0.0
C1512 C 0.55585 0.01226 0.81087 0.0
C1513 C 0.57781 0.00521 0.86028 0.0
N1514 N 0.51511 0.02074 0.83122 0.0
N1515 N 0.62 0.00511 0.84094 0.0
H1516 H 0.57663 0.99945 0.90049 0.0
H1517 H 0.60548 0.99134 0.88645 0.0
H1518 H 0.63252 0.00549 0.82547 0.0
H1519 H 0.62956 0.00597 0.85858 0.0
H1520 H 0.50641 0.0266 0.81436 0.0
H1521 H 0.50285 0.02105 0.84692 0.0
H1522 H 0.52541 0.01198 0.78319 0.0
H1523 H 0.55598 0.01167 0.77021 0.0
C1524 C 0.29628 0.19175 0.40646 0.0
C1525 C 0.29737 0.2185 0.41294 0.0
C1526 C 0.28283 0.20906 0.45659 0.0
C1527 C 0.28077 0.18245 0.44975 0.0
N1528 N 0.29092 0.1476 0.42103 0.0
N1529 N 0.29739 0.25235 0.44522 0.0
C1530 C 0.28939 0.17354 0.42556 0.0
C1531 C 0.29259 0.22703 0.43845 0.0
N1532 N 0.30079 0.18391 0.38175 0.0
N1533 N 0.27425 0.21717 0.48001 0.0
H1534 H 0.30413 0.266 0.43224 0.0
H1535 H 0.29663 0.25951 0.46398 0.0
H1536 H 0.26819 0.20437 0.49411 0.0
H1537 H 0.27211 0.23644 0.48521 0.0
H1538 H 0.29748 0.16512 0.37488 0.0
H1539 H 0.30678 0.19662 0.36756 0.0
H1540 H 0.29896 0.13955 0.40466 0.0
H1541 H 0.28601 0.13402 0.43484 0.0
C1542 C 0.468 0.48438 0.8389 0.0
C1543 C 0.45991 0.49705 0.86165 0.0
C1544 C 0.42135 0.51078 0.8387 0.0
C1545 C 0.43084 0.50038 0.81526 0.0
N1546 N 0.46676 0.48274 0.79259 0.0
N1547 N 0.43176 0.52733 0.88154 0.0
C1548 C 0.45533 0.48898 0.81525 0.0
C1549 C 0.4375 0.51189 0.86101 0.0
N1550 N 0.4869 0.46676 0.83996 0.0
N1551 N 0.39638 0.51783 0.8404 0.0
H1552 H 0.44325 0.52883 0.89806 0.0
H1553 H 0.41707 0.54046 0.88112 0.0
H1554 H 0.38329 0.51589 0.82521 0.0
H1555 H 0.38791 0.52302 0.8577 0.0
H1556 H 0.49158 0.45498 0.82438 0.0
H1557 H 0.49602 0.46185 0.85699 0.0
H1558 H 0.48569 0.47695 0.79146 0.0
H1559 H 0.45831 0.48582 0.77479 0.0
C1560 C 0.72539 0.69704 0.10013 0.0
C1561 C 0.72104 0.72338 0.09558 0.0
C1562 C 0.72659 0.71578 0.04931 0.0
C1563 C 0.72844 0.68886 0.05353 0.0
N1564 N 0.72527 0.65341 0.083 0.0
N1565 N 0.71406 0.7575 0.06589 0.0
C1566 C 0.72681 0.67937 0.07898 0.0
C1567 C 0.7206 0.73263 0.07016 0.0
N1568 N 0.72857 0.68894 0.12474 0.0
N1569 N 0.73179 0.72549 0.02565 0.0
H1570 H 0.71034 0.77063 0.0807 0.0
H1571 H 0.71038 0.76455 0.0477 0.0
H1572 H 0.73666 0.71405 0.00992 0.0
H1573 H 0.73366 0.74515 0.02211 0.0
H1574 H 0.73496 0.67075 0.12923 0.0
H1575 H 0.72677 0.70107 0.14078 0.0
H1576 H 0.72078 0.64544 0.10065 0.0
H1577 H 0.72629 0.63963 0.06835 0.0
C1578 C 0.97626 0.01847 0.17951 0.0
C1579 C 0.96727 0.01548 0.15372 0.0
C1580 C 0.92395 0.00396 0.16896 0.0
C1581 C 0.93316 0.00535 0.19471 0.0
N1582 N 0.96709 0.01554 0.22519 0.0
N1583 N 0.93352 1.00323 0.12345 0.0
C1584 C 0.95912 0.01304 0.20016 0.0
C1585 C 0.94137 0.00758 0.14835 0.0
N1586 N 1.00115 0.02676 0.18408 0.0
N1587 N 0.89822 1.0003 0.1643 0.0
H1588 H 0.94522 0.00699 0.10775 0.0
H1589 H 0.91596 0.99438 0.11823 0.0
H1590 H 0.88507 0.99794 0.179 0.0
H1591 H 0.88957 1.00178 0.14633 0.0
H1592 H 0.00896 0.03107 0.20214 0.0
H1593 H 0.01433 0.02993 0.16944 0.0
H1594 H 0.98602 0.01887 0.23117 0.0
H1595 H 0.95433 0.01431 0.24043 0.0
C1596 C 0.28504 0.82059 0.11259 0.0
C1597 C 0.29293 0.79528 0.10641 0.0
C1598 C 0.28621 0.80398 0.06081 0.0
C1599 C 0.28146 0.8303 0.06682 0.0
N1600 N 0.28508 0.86474 0.09881 0.0
N1601 N 0.30883 0.76639 0.07374 0.0
C1602 C 0.28357 0.83899 0.09284 0.0
C1603 C 0.29608 0.7881 0.08023 0.0
N1604 N 0.27764 0.82691 0.13692 0.0
N1605 N 0.27971 0.79332 0.03735 0.0
H1606 H 0.31742 0.7549 0.08737 0.0
H1607 H 0.31335 0.76163 0.05482 0.0
H1608 H 0.26991 0.80301 0.02319 0.0
H1609 H 0.28105 0.77366 0.03324 0.0
H1610 H 0.26965 0.84454 0.14157 0.0
H1611 H 0.27669 0.81367 0.15169 0.0
H1612 H 0.28858 0.87178 0.11744 0.0
H1613 H 0.28621 0.87889 0.08489 0.0
C1614 C 0.04413 0.48244 0.17806 0.0
C1615 C 0.04549 0.49726 0.15543 0.0
C1616 C 0.08312 0.52123 0.17311 0.0
C1617 C 0.07982 0.50906 0.19703 0.0
N1618 N 0.0561 0.47863 0.22294 0.0
N1619 N 0.06326 0.53424 0.13354 0.0
C1620 C 0.05998 0.48978 0.1997 0.0
C1621 C 0.06405 0.51774 0.15364 0.0
N1622 N 0.02858 0.46069 0.17849 0.0
N1623 N 0.10548 0.53454 0.16819 0.0
H1624 H 0.04932 0.53262 0.11903 0.0
H1625 H 0.07487 0.55096 0.1327 0.0
H1626 H 0.12065 0.53545 0.18131 0.0
H1627 H 0.11004 0.54181 0.15024 0.0
H1628 H 0.02879 0.4475 0.19329 0.0
H1629 H 0.01686 0.45462 0.16303 0.0
H1630 H 0.04005 0.46696 0.22703 0.0
H1631 H 0.06825 0.4822 0.2387 0.0
C1632 C 0.42895 0.69815 0.30797 0.0
C1633 C 0.41553 0.71871 0.2971 0.0
C1634 C 0.44363 0.7501 0.32052 0.0
C1635 C 0.45494 0.72966 0.3339 0.0
N1636 N 0.45814 0.6841 0.34113 0.0
N1637 N 0.40753 0.76416 0.29538 0.0
C1638 C 0.44767 0.7036 0.32768 0.0
C1639 C 0.42216 0.74466 0.30405 0.0
N1640 N 0.42426 0.67351 0.29891 0.0
N1641 N 0.45419 0.77458 0.32245 0.0
H1642 H 0.3916 0.76102 0.2833 0.0
H1643 H 0.40975 0.7832 0.30193 0.0
H1644 H 0.47047 0.77944 0.33352 0.0
H1645 H 0.44841 0.78967 0.3111 0.0
H1646 H 0.43516 0.65791 0.30393 0.0
H1647 H 0.41051 0.66885 0.28471 0.0
H1648 H 0.45176 0.6649 0.33958 0.0
H1649 H 0.47189 0.68732 0.35564 0.0
C1650 C 0.99681 0.36071 0.93398 0.0
C1651 C 0.99805 0.35887 0.96113 0.0
C1652 C 0.01015 0.31368 0.95657 0.0
C1653 C 0.00429 0.31428 0.93007 0.0
N1654 N 0.99399 0.33833 0.89254 0.0
N1655 N 0.00527 0.33352 0.99869 0.0
C1656 C 0.99853 0.33792 0.91841 0.0
C1657 C 0.00485 0.33538 0.97257 0.0
N1658 N 0.9943 0.38432 0.9232 0.0
N1659 N 0.02154 0.29258 0.96615 0.0
H1660 H 1.00185 0.34907 0.01104 0.0
H1661 H 0.00729 0.31618 0.00812 0.0
H1662 H 0.02722 0.27755 0.95413 0.0
H1663 H 0.0281 0.29138 0.98501 0.0
H1664 H 0.9956 0.38754 0.9036 0.0
H1665 H 0.99282 0.40128 0.93411 0.0
H1666 H 0.98661 0.35397 0.88309 0.0
H1667 H 0.99661 0.32233 0.88051 0.0
C1668 C 0.57898 0.79234 0.29092 0.0
C1669 C 0.60513 0.78946 0.29787 0.0
C1670 C 0.59141 0.78 0.34174 0.0
C1671 C 0.56531 0.77803 0.33344 0.0
N1672 N 0.53585 0.77558 0.29691 0.0
N1673 N 0.6355 0.7746 0.32929 0.0
C1674 C 0.55942 0.78244 0.30715 0.0
C1675 C 0.61121 0.78165 0.32315 0.0
N1676 N 0.57266 0.80493 0.26909 0.0
N1677 N 0.59745 0.78127 0.36731 0.0
H1678 H 0.65027 0.77401 0.31595 0.0
H1679 H 0.64013 0.7666 0.34687 0.0
H1680 H 0.58358 0.78209 0.38156 0.0
H1681 H 0.61617 0.78477 0.37411 0.0
H1682 H 0.55378 0.80928 0.26448 0.0
H1683 H 0.58638 0.81359 0.2573 0.0
H1684 H 0.53176 0.77669 0.27734 0.0
H1685 H 0.5216 0.76559 0.30692 0.0
C1686 C 0.00646 0.14846 0.9412 0.0
C1687 C 0.01875 0.15371 0.96531 0.0
C1688 C 0.01444 0.2001 0.95839 0.0
C1689 C 0.00551 0.19484 0.93296 0.0
N1690 N 0.99775 0.16374 0.89854 0.0
N1691 N 0.03976 0.18519 0.99397 0.0
C1692 C 1.00308 0.16892 0.92383 0.0
C1693 C 0.02425 0.17976 0.97314 0.0
N1694 N 0.99676 0.12422 0.93531 0.0
N1695 N 0.01313 0.22439 0.96869 0.0
H1696 H 0.04839 0.17093 0.00456 0.0
H1697 H 0.04627 0.20384 0.99902 0.0
H1698 H 0.00538 0.23948 0.95863 0.0
H1699 H 0.01722 0.22881 0.98793 0.0
H1700 H 0.98548 0.11999 0.91905 0.0
H1701 H 0.99752 0.10897 0.948 0.0
H1702 H 0.99817 0.14528 0.89034 0.0
H1703 H 0.9954 0.17827 0.88534 0.0
C1704 C 0.4195 0.30408 0.19882 0.0
C1705 C 0.4158 0.29067 0.22215 0.0
C1706 C 0.45255 0.26423 0.21178 0.0
C1707 C 0.45318 0.27425 0.18667 0.0
N1708 N 0.43598 0.30279 0.15537 0.0
N1709 N 0.42645 0.2547 0.24864 0.0
C1710 C 0.43651 0.29418 0.17997 0.0
C1711 C 0.43185 0.26999 0.22818 0.0
N1712 N 0.40715 0.32649 0.19492 0.0
N1713 N 0.47198 0.24929 0.22004 0.0
H1714 H 0.41077 0.25729 0.26058 0.0
H1715 H 0.43599 0.23779 0.25219 0.0
H1716 H 0.48783 0.24533 0.2087 0.0
H1717 H 0.47376 0.24336 0.23894 0.0
H1718 H 0.41088 0.33839 0.17943 0.0
H1719 H 0.39493 0.33443 0.20846 0.0
H1720 H 0.42217 0.3151 0.14859 0.0
H1721 H 0.44833 0.29628 0.14121 0.0
C1722 C 0.51389 0.3649 0.07957 0.0
C1723 C 0.51449 0.36105 0.05252 0.0
C1724 C 0.51112 0.31414 0.05808 0.0
C1725 C 0.50887 0.318 0.08507 0.0
N1726 N 0.50325 0.34706 0.12105 0.0
N1727 N 0.50881 0.33255 0.0157 0.0
C1728 C 0.50891 0.34342 0.0957 0.0
C1729 C 0.51157 0.3358 0.04169 0.0
N1730 N 0.51883 0.389 0.08991 0.0
N1731 N 0.51431 0.28987 0.04814 0.0
H1732 H 0.50939 0.34792 0.00308 0.0
H1733 H 0.50373 0.31493 0.00682 0.0
H1734 H 0.51464 0.27347 0.05934 0.0
H1735 H 0.519 0.28619 0.02906 0.0
H1736 H 0.52161 0.39264 0.10948 0.0
H1737 H 0.52204 0.40524 0.07874 0.0
H1738 H 0.50032 0.3651 0.12942 0.0
H1739 H 0.49914 0.33183 0.1333 0.0
C1740 C 0.57332 0.20249 0.22559 0.0
C1741 C 0.59461 0.22007 0.2236 0.0
C1742 C 0.56923 0.24508 0.19393 0.0
C1743 C 0.55061 0.22438 0.19073 0.0
N1744 N 0.53764 0.18066 0.20425 0.0
N1745 N 0.61416 0.25591 0.20119 0.0
C1746 C 0.55328 0.20229 0.20673 0.0
C1747 C 0.59302 0.24066 0.20629 0.0
N1748 N 0.57142 0.18669 0.24623 0.0
N1749 N 0.56368 0.26958 0.18712 0.0
H1750 H 0.63228 0.25268 0.20894 0.0
H1751 H 0.61405 0.26993 0.18712 0.0
H1752 H 0.54521 0.27482 0.18197 0.0
H1753 H 0.57633 0.2853 0.19065 0.0
H1754 H 0.55493 0.1755 0.25003 0.0
H1755 H 0.58492 0.18706 0.26116 0.0
H1756 H 0.54203 0.16339 0.21293 0.0
H1757 H 0.52126 0.17862 0.19295 0.0
C1758 C 0.47877 0.16808 0.05515 0.0
C1759 C 0.50006 0.15221 0.05098 0.0
C1760 C 0.52622 0.1793 0.08119 0.0
C1761 C 0.50507 0.19557 0.08484 0.0
N1762 N 0.46375 0.20939 0.07007 0.0
N1763 N 0.54513 0.14473 0.05637 0.0
C1764 C 0.48205 0.19109 0.07032 0.0
C1765 C 0.52413 0.15844 0.06295 0.0
N1766 N 0.4552 0.16079 0.04514 0.0
N1767 N 0.54798 0.18324 0.09586 0.0
H1768 H 0.54418 0.12917 0.04336 0.0
H1769 H 0.56382 0.14984 0.06216 0.0
H1770 H 0.55018 0.19816 0.1095 0.0
H1771 H 0.56299 0.17053 0.09629 0.0
H1772 H 0.43835 0.16999 0.04976 0.0
H1773 H 0.45201 0.14419 0.03379 0.0
H1774 H 0.44781 0.20848 0.05784 0.0
H1775 H 0.46556 0.22677 0.08041 0.0
C1776 C 0.29978 0.42512 0.74565 0.0
C1777 C 0.2918 0.41943 0.72001 0.0
C1778 C 0.32101 0.45385 0.70463 0.0
C1779 C 0.32857 0.45998 0.73041 0.0
N1780 N 0.31907 0.4565 0.77557 0.0
N1781 N 0.29089 0.43112 0.67554 0.0
C1782 C 0.31618 0.44708 0.75098 0.0
C1783 C 0.30133 0.43458 0.6996 0.0
N1784 N 0.29228 0.40908 0.76492 0.0
N1785 N 0.33311 0.46596 0.68488 0.0
H1786 H 0.2765 0.41719 0.67118 0.0
H1787 H 0.29487 0.44328 0.66034 0.0
H1788 H 0.34669 0.48086 0.68784 0.0
H1789 H 0.33106 0.46017 0.66572 0.0
H1790 H 0.29954 0.41071 0.78359 0.0
H1791 H 0.2805 0.39263 0.76184 0.0
H1792 H 0.30851 0.44948 0.79095 0.0
H1793 H 0.33001 0.47311 0.78038 0.0
C1794 C 0.29994 0.59999 0.76651 0.0
C1795 C 0.29347 0.60542 0.79237 0.0
C1796 C 0.32482 0.57422 0.80688 0.0
C1797 C 0.32959 0.56724 0.78092 0.0
N1798 N 0.31714 0.56942 0.73619 0.0
N1799 N 0.29691 0.59544 0.83721 0.0
C1800 C 0.31594 0.57905 0.76076 0.0
C1801 C 0.30512 0.59188 0.8126 0.0
N1802 N 0.29132 0.61528 0.74738 0.0
N1803 N 0.33976 0.56476 0.82597 0.0
H1804 H 0.2828 0.60842 0.84208 0.0
H1805 H 0.30259 0.58421 0.85245 0.0
H1806 H 0.35439 0.552 0.82239 0.0
H1807 H 0.33912 0.57112 0.84502 0.0
H1808 H 0.29784 0.61413 0.72858 0.0
H1809 H 0.27939 0.63072 0.75071 0.0
H1810 H 0.30539 0.57541 0.72132 0.0
H1811 H 0.32789 0.55359 0.73106 0.0
C1812 C 0.8328 0.47649 0.49315 0.0
C1813 C 0.85662 0.46484 0.49795 0.0
C1814 C 0.83401 0.4235 0.50622 0.0
C1815 C 0.81009 0.43512 0.50154 0.0
N1816 N 0.78618 0.47317 0.49383 0.0
N1817 N 0.87999 0.42899 0.51367 0.0
C1818 C 0.80938 0.46183 0.49606 0.0
C1819 C 0.85719 0.43894 0.50616 0.0
N1820 N 0.8327 0.50144 0.48512 0.0
N1821 N 0.83484 0.39733 0.5087 0.0
H1822 H 0.89754 0.43915 0.51256 0.0
H1823 H 0.88135 0.41141 0.52279 0.0
H1824 H 0.81854 0.38513 0.50858 0.0
H1825 H 0.85179 0.38726 0.50888 0.0
H1826 H 0.81651 0.51028 0.47812 0.0
H1827 H 0.84927 0.51327 0.48444 0.0
H1828 H 0.78393 0.49296 0.4927 0.0
H1829 H 0.76876 0.4628 0.4947 0.0
C1830 C 0.71441 0.91424 0.76382 0.0
C1831 C 0.72033 0.90904 0.78979 0.0
C1832 C 0.6892 0.94091 0.80389 0.0
C1833 C 0.68514 0.94774 0.77795 0.0
N1834 N 0.69829 0.94477 0.73366 0.0
N1835 N 0.71622 0.91972 0.83475 0.0
C1836 C 0.6989 0.93541 0.75801 0.0
C1837 C 0.7085 0.92303 0.80992 0.0
N1838 N 0.7231 0.89853 0.74464 0.0
N1839 N 0.67396 0.95073 0.82265 0.0
H1840 H 0.73005 0.90663 0.83986 0.0
H1841 H 0.71042 0.9313 0.85003 0.0
H1842 H 0.65954 0.96365 0.8189 0.0
H1843 H 0.6741 0.94449 0.84152 0.0
H1844 H 0.71701 0.89959 0.7256 0.0
H1845 H 0.73459 0.88284 0.74806 0.0
H1846 H 0.71013 0.93834 0.71904 0.0
H1847 H 0.68796 0.9608 0.7286 0.0
C1848 C 0.67506 0.55111 0.98112 0.0
C1849 C 0.65387 0.55283 0.99798 0.0
C1850 C 0.67843 0.58545 0.02392 0.0
C1851 C 0.6976 0.58677 0.00476 0.0
N1852 N 0.71357 0.5714 0.964 0.0
N1853 N 0.6339 0.57507 0.03336 0.0
C1854 C 0.69564 0.56988 0.98294 0.0
C1855 C 0.65524 0.57075 0.01902 0.0
N1856 N 0.67638 0.53055 0.96441 0.0
N1857 N 0.68212 0.59856 0.04669 0.0
H1858 H 0.61596 0.56639 0.02925 0.0
H1859 H 0.63318 0.58945 0.04753 0.0
H1860 H 0.69809 0.61068 0.05038 0.0
H1861 H 0.67023 0.59601 0.06247 0.0
H1862 H 0.69249 0.52683 0.95344 0.0
H1863 H 0.66256 0.51552 0.96359 0.0
H1864 H 0.71111 0.56217 0.94617 0.0
H1865 H 0.73017 0.58315 0.96531 0.0
C1866 C 0.2109 0.5906 0.25042 0.0
C1867 C 0.21651 0.59752 0.22484 0.0
C1868 C 0.18666 0.56316 0.20848 0.0
C1869 C 0.18133 0.55596 0.23414 0.0
N1870 N 0.19367 0.55824 0.27899 0.0
N1871 N 0.21288 0.58873 0.1794 0.0
C1872 C 0.19494 0.5684 0.25498 0.0
C1873 C 0.20517 0.58338 0.20381 0.0
N1874 N 0.22042 0.60565 0.27041 0.0
N1875 N 0.17374 0.55087 0.18859 0.0
H1876 H 0.22603 0.60365 0.17526 0.0
H1877 H 0.20764 0.57752 0.1633 0.0
H1878 H 0.16194 0.53455 0.19106 0.0
H1879 H 0.17378 0.55731 0.16981 0.0
H1880 H 0.21486 0.60335 0.28939 0.0
H1881 H 0.23227 0.62199 0.26787 0.0
H1882 H 0.20514 0.56482 0.29439 0.0
H1883 H 0.18293 0.54157 0.28315 0.0
C1884 C 0.83573 0.53882 0.01113 0.0
C1885 C 0.86107 0.54963 0.01334 0.0
C1886 C 0.84458 0.59272 0.00591 0.0
C1887 C 0.81903 0.58233 0.00688 0.0
N1888 N 0.79008 0.54584 0.01398 0.0
N1889 N 0.88973 0.5871 0.01547 0.0
C1890 C 0.81451 0.55541 0.0102 0.0
C1891 C 0.86555 0.57666 0.01135 0.0
N1892 N 0.83197 0.51262 0.00957 0.0
N1893 N 0.84882 0.61777 0.99895 0.0
H1894 H 0.90563 0.57595 0.01898 0.0
H1895 H 0.89375 0.60685 0.01728 0.0
H1896 H 0.83396 0.62992 0.99439 0.0
H1897 H 0.86699 0.6258 0.99533 0.0
H1898 H 0.81429 0.50357 0.00511 0.0
H1899 H 0.84702 0.49989 0.0105 0.0
H1900 H 0.7859 0.52698 0.01947 0.0
H1901 H 0.77398 0.55723 0.01386 0.0
C1902 C 0.18283 0.97784 0.01322 0.0
C1903 C 0.15793 0.96719 0.01794 0.0
C1904 C 0.17375 0.92345 0.0114 0.0
C1905 C 0.19837 0.93412 0.00491 0.0
N1906 N 0.22567 0.97167 0.9969 0.0
N1907 N 0.12844 0.93046 0.01846 0.0
C1908 C 0.20267 0.96139 0.00494 0.0
C1909 C 0.15307 0.94014 0.01625 0.0
N1910 N 0.18769 0.00368 0.01738 0.0
N1911 N 0.17005 0.89731 0.013 0.0
H1912 H 0.11294 0.94197 0.02272 0.0
H1913 H 0.12289 0.91137 0.0143 0.0
H1914 H 0.18388 0.88422 0.00788 0.0
H1915 H 0.15378 0.88848 0.02084 0.0
H1916 H 0.20601 0.01234 0.01733 0.0
H1917 H 0.17353 0.01637 0.02284 0.0
H1918 H 0.22895 0.99118 0.99338 0.0
H1919 H 0.24127 0.96058 0.99215 0.0
loop_
_geom_bond_atom_site_label_1
_geom_bond_atom_site_label_2
_geom_bond_distance
_geom_bond_site_symmetry_2
_ccdc_geom_bond_type
C0 C1 1.386 . S
C0 C2 1.397 . S
C0 H24 0.931 . S
C1 C0 1.386 . S
C1 C5 1.397 . S
C2 C0 1.397 . S
C2 C3 1.387 . S
C2 H25 0.930 . S
C3 C2 1.387 . S
C3 C4 1.376 1_556 S
C3 C6 1.479 1_556 S
C4 C3 1.376 1_554 S
C4 C5 1.389 1_554 S
C4 H26 0.929 . S
C5 C1 1.397 . S
C5 C4 1.389 1_556 S
C5 H27 0.934 . S
C6 C3 1.479 1_554 S
C6 C7 1.387 . S
C6 C11 1.390 . S
C7 C6 1.387 . S
C7 C8 1.401 . S
C7 H28 0.927 1_554 S
C8 C7 1.401 . S
C8 C9 1.376 . S
C8 C17 1.511 1_545 S
C9 C8 1.376 . S
C9 C10 1.392 . S
C9 H30 0.933 1_545 S
C10 C9 1.392 . S
C10 C11 1.361 . S
C10 C12 1.518 . S
C11 C6 1.390 . S
C11 C10 1.361 . S
C11 H29 0.931 . S
C12 C10 1.518 . S
C12 C13 1.366 1_455 S
C12 C14 1.352 1_455 S
C13 C12 1.366 1_655 S
C13 C23 1.388 . S
C13 H31 0.931 1_645 S
C14 C12 1.352 1_655 S
C14 C15 1.409 . S
C14 H32 0.929 . S
C15 C14 1.409 . S
C15 C16 1.380 . S
C15 H33 0.930 . S
C16 C15 1.380 . S
C16 C23 1.368 . S
C17 C8 1.511 1_565 S
C17 C18 1.341 . S
C17 C19 1.371 . S
C18 C17 1.341 . S
C18 C22 1.398 . S
C18 H34 0.930 1_564 S
C19 C17 1.371 . S
C19 C20 1.392 . S
C19 H35 0.931 . S
C20 C19 1.392 . S
C20 C21 1.331 . S
C20 H38 0.932 . S
C21 C20 1.331 . S
C21 C22 1.357 . S
C22 C18 1.398 . S
C22 C21 1.357 . S
C22 H37 0.905 1_554 S
C23 C13 1.388 . S
C23 C16 1.368 . S
C23 H36 0.916 1_545 S
H24 C0 0.931 . S
H25 C2 0.930 . S
H26 C4 0.929 . S
H27 C5 0.934 . S
H28 C7 0.927 1_556 S
H29 C11 0.931 . S
H30 C9 0.933 1_565 S
H31 C13 0.931 1_465 S
H32 C14 0.929 . S
H33 C15 0.930 . S
H34 C18 0.930 1_546 S
H35 C19 0.931 . S
H36 C23 0.916 1_565 S
H37 C22 0.905 1_556 S
H38 C20 0.932 . S
C39 C40 1.386 . S
C39 C41 1.397 . S
C39 H63 0.931 . S
C40 C39 1.386 . S
C40 C44 1.397 . S
C41 C39 1.397 . S
C41 C42 1.384 . S
C41 H64 0.930 . S
C42 C41 1.384 . S
C42 C43 1.377 . S
C42 C45 1.481 . S
C43 C42 1.377 . S
C43 C44 1.389 . S
C43 H65 0.929 . S
C44 C40 1.397 . S
C44 C43 1.389 . S
C44 H66 0.931 . S
C45 C42 1.481 . S
C45 C46 1.387 . S
C45 C50 1.390 . S
C46 C45 1.387 . S
C46 C47 1.401 . S
C46 H67 0.930 . S
C47 C46 1.401 . S
C47 C48 1.376 . S
C47 C56 1.511 . S
C48 C47 1.376 . S
C48 C49 1.392 . S
C48 H69 0.931 . S
C49 C48 1.392 . S
C49 C50 1.361 . S
C49 C51 1.500 . S
C50 C45 1.390 . S
C50 C49 1.361 . S
C50 H68 0.931 . S
C51 C49 1.500 . S
C51 C52 1.371 . S
C51 C53 1.365 . S
C52 C51 1.371 . S
C52 C62 1.386 . S
C52 H70 0.931 . S
C53 C51 1.365 . S
C53 C54 1.409 . S
C53 H71 0.929 . S
C54 C53 1.409 . S
C54 C55 1.380 . S
C54 H72 0.930 . S
C55 C54 1.380 . S
C55 C62 1.357 . S
C56 C47 1.511 . S
C56 C57 1.341 . S
C56 C58 1.371 . S
C57 C56 1.341 . S
C57 C61 1.394 . S
C57 H73 0.930 . S
C58 C56 1.371 . S
C58 C59 1.392 . S
C58 H74 0.931 . S
C59 C58 1.392 . S
C59 C60 1.331 . S
C59 H77 0.932 . S
C60 C59 1.331 . S
C60 C61 1.336 . S
C61 C57 1.394 . S
C61 C60 1.336 . S
C61 H76 0.929 . S
C62 C52 1.386 . S
C62 C55 1.357 . S
C62 H75 0.928 . S
H63 C39 0.931 . S
H64 C41 0.930 . S
H65 C43 0.929 . S
H66 C44 0.931 . S
H67 C46 0.930 . S
H68 C50 0.931 . S
H69 C48 0.931 . S
H70 C52 0.931 . S
H71 C53 0.929 . S
H72 C54 0.930 . S
H73 C57 0.930 . S
H74 C58 0.931 . S
H75 C62 0.928 . S
H76 C61 0.929 . S
H77 C59 0.932 . S
C78 C79 1.386 . S
C78 C80 1.397 1_455 S
C78 H102 0.931 . S
C79 C78 1.386 . S
C79 C83 1.397 . S
C80 C78 1.397 1_655 S
C80 C81 1.375 1_655 S
C80 H103 0.930 . S
C81 C80 1.375 1_455 S
C81 C82 1.401 . S
C81 C84 1.466 1_455 S
C82 C81 1.401 . S
C82 C83 1.389 . S
C82 H104 0.929 . S
C83 C79 1.397 . S
C83 C82 1.389 . S
C83 H105 0.931 . S
C84 C81 1.466 1_655 S
C84 C85 1.387 . S
C84 C89 1.390 . S
C85 C84 1.387 . S
C85 C86 1.401 . S
C85 H106 0.930 . S
C86 C85 1.401 . S
C86 C87 1.376 . S
C86 C95 1.511 . S
C87 C86 1.376 . S
C87 C88 1.392 . S
C87 H108 0.950 . S
C88 C87 1.392 . S
C88 C89 1.361 . S
C88 C90 1.483 1_554 S
C89 C84 1.390 . S
C89 C88 1.361 . S
C89 H107 0.944 . S
C90 C88 1.483 1_556 S
C90 C91 1.384 . S
C90 C92 1.409 . S
C91 C90 1.384 . S
C91 C101 1.386 . S
C91 H109 0.931 . S
C92 C90 1.409 . S
C92 C93 1.402 1_655 S
C92 H110 0.898 1_656 S
C93 C92 1.402 1_455 S
C93 C94 1.380 1_455 S
C93 H111 0.930 . S
C94 C93 1.380 1_655 S
C94 C101 1.357 . S
C95 C86 1.511 . S
C95 C96 1.341 . S
C95 C97 1.371 . S
C96 C95 1.341 . S
C96 C100 1.394 . S
C96 H112 0.930 . S
C97 C95 1.371 . S
C97 C98 1.388 1_554 S
C97 H113 0.931 1_554 S
C98 C97 1.388 1_556 S
C98 C99 1.307 1_556 S
C98 H116 0.960 . S
C99 C98 1.307 1_554 S
C99 C100 1.336 . S
C100 C96 1.394 . S
C100 C99 1.336 . S
C100 H115 0.929 . S
C101 C91 1.386 . S
C101 C94 1.357 . S
C101 H114 0.928 . S
H102 C78 0.931 . S
H103 C80 0.930 . S
H104 C82 0.929 . S
H105 C83 0.931 . S
H106 C85 0.930 . S
H107 C89 0.944 . S
H108 C87 0.950 . S
H109 C91 0.931 . S
H110 C92 0.898 1_454 S
H111 C93 0.930 . S
H112 C96 0.930 . S
H113 C97 0.931 1_556 S
H114 C101 0.928 . S
H115 C100 0.929 . S
H116 C98 0.960 . S
C117 C118 1.386 . S
C117 C119 1.397 . S
C117 H141 0.931 . S
C118 C117 1.386 . S
C118 C122 1.397 . S
C119 C117 1.397 . S
C119 C120 1.384 . S
C119 H142 0.930 . S
C120 C119 1.384 . S
C120 C121 1.377 . S
C120 C123 1.481 . S
C121 C120 1.377 . S
C121 C122 1.389 . S
C121 H143 0.929 . S
C122 C118 1.397 . S
C122 C121 1.389 . S
C122 H144 0.931 . S
C123 C120 1.481 . S
C123 C124 1.387 . S
C123 C128 1.390 . S
C124 C123 1.387 . S
C124 C125 1.401 . S
C124 H145 0.930 . S
C125 C124 1.401 . S
C125 C126 1.376 . S
C125 C134 1.511 . S
C126 C125 1.376 . S
C126 C127 1.392 . S
C126 H147 0.931 . S
C127 C126 1.392 . S
C127 C128 1.361 . S
C127 C129 1.500 . S
C128 C123 1.390 . S
C128 C127 1.361 . S
C128 H146 0.931 . S
C129 C127 1.500 . S
C129 C130 1.371 . S
C129 C131 1.365 . S
C130 C129 1.371 . S
C130 C140 1.386 . S
C130 H148 0.931 . S
C131 C129 1.365 . S
C131 C132 1.409 . S
C131 H149 0.929 . S
C132 C131 1.409 . S
C132 C133 1.380 . S
C132 H150 0.930 . S
C133 C132 1.380 . S
C133 C140 1.357 . S
C134 C125 1.511 . S
C134 C135 1.341 . S
C134 C136 1.371 . S
C135 C134 1.341 . S
C135 C139 1.394 . S
C135 H151 0.930 . S
C136 C134 1.371 . S
C136 C137 1.392 . S
C136 H152 0.931 . S
C137 C136 1.392 . S
C137 C138 1.331 . S
C137 H155 0.932 . S
C138 C137 1.331 . S
C138 C139 1.336 . S
C139 C135 1.394 . S
C139 C138 1.336 . S
C139 H154 0.929 . S
C140 C130 1.386 . S
C140 C133 1.357 . S
C140 H153 0.928 . S
H141 C117 0.931 . S
H142 C119 0.930 . S
H143 C121 0.929 . S
H144 C122 0.931 . S
H145 C124 0.930 . S
H146 C128 0.931 . S
H147 C126 0.931 . S
H148 C130 0.931 . S
H149 C131 0.929 . S
H150 C132 0.930 . S
H151 C135 0.930 . S
H152 C136 0.931 . S
H153 C140 0.928 . S
H154 C139 0.929 . S
H155 C137 0.932 . S
C156 C157 1.386 . S
C156 C158 1.397 . S
C156 H180 0.931 . S
C157 C156 1.386 . S
C157 C161 1.397 . S
C158 C156 1.397 . S
C158 C159 1.384 1_655 S
C158 H181 0.930 . S
C159 C158 1.384 1_455 S
C159 C160 1.377 . S
C159 C162 1.481 . S
C160 C159 1.377 . S
C160 C161 1.389 1_455 S
C160 H182 0.929 . S
C161 C157 1.397 . S
C161 C160 1.389 1_655 S
C161 H183 0.931 1_655 S
C162 C159 1.481 . S
C162 C163 1.387 . S
C162 C167 1.390 . S
C163 C162 1.387 . S
C163 C164 1.401 . S
C163 H184 0.930 . S
C164 C163 1.401 . S
C164 C165 1.376 . S
C164 C173 1.511 . S
C165 C164 1.376 . S
C165 C166 1.392 . S
C165 H186 0.931 . S
C166 C165 1.392 . S
C166 C167 1.361 . S
C166 C168 1.500 1_565 S
C167 C162 1.390 . S
C167 C166 1.361 . S
C167 H185 0.931 1_565 S
C168 C166 1.500 1_545 S
C168 C169 1.371 . S
C168 C170 1.365 . S
C169 C168 1.371 . S
C169 C179 1.386 . S
C169 H187 0.931 . S
C170 C168 1.365 . S
C170 C171 1.409 . S
C170 H188 0.929 . S
C171 C170 1.409 . S
C171 C172 1.380 . S
C171 H189 0.930 . S
C172 C171 1.380 . S
C172 C179 1.357 . S
C173 C164 1.511 . S
C173 C174 1.341 . S
C173 C175 1.371 . S
C174 C173 1.341 . S
C174 C178 1.394 . S
C174 H190 0.930 1_455 S
C175 C173 1.371 . S
C175 C176 1.392 . S
C175 H191 0.931 . S
C176 C175 1.392 . S
C176 C177 1.331 . S
C176 H194 0.932 . S
C177 C176 1.331 . S
C177 C178 1.336 . S
C178 C174 1.394 . S
C178 C177 1.336 . S
C178 H193 0.929 1_455 S
C179 C169 1.386 . S
C179 C172 1.357 . S
C179 H192 0.928 . S
H180 C156 0.931 . S
H181 C158 0.930 . S
H182 C160 0.929 . S
H183 C161 0.931 1_455 S
H184 C163 0.930 . S
H185 C167 0.931 1_545 S
H186 C165 0.931 . S
H187 C169 0.931 . S
H188 C170 0.929 . S
H189 C171 0.930 . S
H190 C174 0.930 1_655 S
H191 C175 0.931 . S
H192 C179 0.928 . S
H193 C178 0.929 1_655 S
H194 C176 0.932 . S
C195 C196 1.386 . S
C195 C197 1.397 . S
C195 H219 0.931 . S
C196 C195 1.386 . S
C196 C200 1.397 . S
C197 C195 1.397 . S
C197 C198 1.384 . S
C197 H220 0.930 . S
C198 C197 1.384 . S
C198 C199 1.377 . S
C198 C201 1.481 . S
C199 C198 1.377 . S
C199 C200 1.389 . S
C199 H221 0.929 . S
C200 C196 1.397 . S
C200 C199 1.389 . S
C200 H222 0.931 . S
C201 C198 1.481 . S
C201 C202 1.387 . S
C201 C206 1.390 . S
C202 C201 1.387 . S
C202 C203 1.401 . S
C202 H223 0.930 . S
C203 C202 1.401 . S
C203 C204 1.376 . S
C203 C212 1.511 . S
C204 C203 1.376 . S
C204 C205 1.392 . S
C204 H225 0.931 . S
C205 C204 1.392 . S
C205 C206 1.361 . S
C205 C207 1.500 . S
C206 C201 1.390 . S
C206 C205 1.361 . S
C206 H224 0.931 . S
C207 C205 1.500 . S
C207 C208 1.371 . S
C207 C209 1.365 . S
C208 C207 1.371 . S
C208 C218 1.386 . S
C208 H226 0.931 . S
C209 C207 1.365 . S
C209 C210 1.409 . S
C209 H227 0.929 . S
C210 C209 1.409 . S
C210 C211 1.380 . S
C210 H228 0.930 . S
C211 C210 1.380 . S
C211 C218 1.357 . S
C212 C203 1.511 . S
C212 C213 1.341 . S
C212 C214 1.371 . S
C213 C212 1.341 . S
C213 C217 1.394 . S
C213 H229 0.930 . S
C214 C212 1.371 . S
C214 C215 1.392 . S
C214 H230 0.931 . S
C215 C214 1.392 . S
C215 C216 1.331 . S
C215 H233 0.932 . S
C216 C215 1.331 . S
C216 C217 1.336 . S
C217 C213 1.394 . S
C217 C216 1.336 . S
C217 H232 0.929 . S
C218 C208 1.386 . S
C218 C211 1.357 . S
C218 H231 0.928 . S
H219 C195 0.931 . S
H220 C197 0.930 . S
H221 C199 0.929 . S
H222 C200 0.931 . S
H223 C202 0.930 . S
H224 C206 0.931 . S
H225 C204 0.931 . S
H226 C208 0.931 . S
H227 C209 0.929 . S
H228 C210 0.930 . S
H229 C213 0.930 . S
H230 C214 0.931 . S
H231 C218 0.928 . S
H232 C217 0.929 . S
H233 C215 0.932 . S
C234 C235 1.386 . S
C234 C236 1.397 . S
C234 H258 0.931 . S
C235 C234 1.386 . S
C235 C239 1.397 . S
C236 C234 1.397 . S
C236 C237 1.384 . S
C236 H259 0.930 . S
C237 C236 1.384 . S
C237 C238 1.377 . S
C237 C240 1.481 . S
C238 C237 1.377 . S
C238 C239 1.389 . S
C238 H260 0.929 . S
C239 C235 1.397 . S
C239 C238 1.389 . S
C239 H261 0.931 . S
C240 C237 1.481 . S
C240 C241 1.387 . S
C240 C245 1.390 . S
C241 C240 1.387 . S
C241 C242 1.401 . S
C241 H262 0.930 1_655 S
C242 C241 1.401 . S
C242 C243 1.376 . S
C242 C251 1.511 1_655 S
C243 C242 1.376 . S
C243 C244 1.392 . S
C243 H264 0.931 . S
C244 C243 1.392 . S
C244 C245 1.361 . S
C244 C246 1.500 . S
C245 C240 1.390 . S
C245 C244 1.361 . S
C245 H263 0.931 . S
C246 C244 1.500 . S
C246 C247 1.371 . S
C246 C248 1.365 . S
C247 C246 1.371 . S
C247 C257 1.386 . S
C247 H265 0.931 . S
C248 C246 1.365 . S
C248 C249 1.409 . S
C248 H266 0.929 . S
C249 C248 1.409 . S
C249 C250 1.380 . S
C249 H267 0.930 . S
C250 C249 1.380 . S
C250 C257 1.357 . S
C251 C242 1.511 1_455 S
C251 C252 1.341 . S
C251 C253 1.371 . S
C252 C251 1.341 . S
C252 C256 1.394 . S
C252 H268 0.930 . S
C253 C251 1.371 . S
C253 C254 1.392 . S
C253 H269 0.931 1_455 S
C254 C253 1.392 . S
C254 C255 1.331 . S
C254 H272 0.932 . S
C255 C254 1.331 . S
C255 C256 1.336 . S
C256 C252 1.394 . S
C256 C255 1.336 . S
C256 H271 0.929 . S
C257 C247 1.386 . S
C257 C250 1.357 . S
C257 H270 0.928 . S
H258 C234 0.931 . S
H259 C236 0.930 . S
H260 C238 0.929 . S
H261 C239 0.931 . S
H262 C241 0.930 1_455 S
H263 C245 0.931 . S
H264 C243 0.931 . S
H265 C247 0.931 . S
H266 C248 0.929 . S
H267 C249 0.930 . S
H268 C252 0.930 . S
H269 C253 0.931 1_655 S
H270 C257 0.928 . S
H271 C256 0.929 . S
H272 C254 0.932 . S
C273 C274 1.386 . S
C273 C275 1.397 . S
C273 H297 0.931 . S
C274 C273 1.386 . S
C274 C278 1.397 . S
C275 C273 1.397 . S
C275 C276 1.384 . S
C275 H298 0.930 . S
C276 C275 1.384 . S
C276 C277 1.377 . S
C276 C279 1.481 . S
C277 C276 1.377 . S
C277 C278 1.389 . S
C277 H299 0.929 . S
C278 C274 1.397 . S
C278 C277 1.389 . S
C278 H300 0.931 . S
C279 C276 1.481 . S
C279 C280 1.387 . S
C279 C284 1.390 . S
C280 C279 1.387 . S
C280 C281 1.401 . S
C280 H301 0.930 . S
C281 C280 1.401 . S
C281 C282 1.376 . S
C281 C290 1.511 . S
C282 C281 1.376 . S
C282 C283 1.392 . S
C282 H303 0.931 . S
C283 C282 1.392 . S
C283 C284 1.361 . S
C283 C285 1.500 . S
C284 C279 1.390 . S
C284 C283 1.361 . S
C284 H302 0.931 . S
C285 C283 1.500 . S
C285 C286 1.371 . S
C285 C287 1.365 . S
C286 C285 1.371 . S
C286 C296 1.386 . S
C286 H304 0.931 . S
C287 C285 1.365 . S
C287 C288 1.409 . S
C287 H305 0.929 . S
C288 C287 1.409 . S
C288 C289 1.380 . S
C288 H306 0.930 . S
C289 C288 1.380 . S
C289 C296 1.357 . S
C290 C281 1.511 . S
C290 C291 1.341 . S
C290 C292 1.371 . S
C291 C290 1.341 . S
C291 C295 1.394 . S
C291 H307 0.930 . S
C292 C290 1.371 . S
C292 C293 1.392 . S
C292 H308 0.931 . S
C293 C292 1.392 . S
C293 C294 1.331 . S
C293 H311 0.932 . S
C294 C293 1.331 . S
C294 C295 1.336 . S
C295 C291 1.394 . S
C295 C294 1.336 . S
C295 H310 0.929 . S
C296 C286 1.386 . S
C296 C289 1.357 . S
C296 H309 0.928 . S
H297 C273 0.931 . S
H298 C275 0.930 . S
H299 C277 0.929 . S
H300 C278 0.931 . S
H301 C280 0.930 . S
H302 C284 0.931 . S
H303 C282 0.931 . S
H304 C286 0.931 . S
H305 C287 0.929 . S
H306 C288 0.930 . S
H307 C291 0.930 . S
H308 C292 0.931 . S
H309 C296 0.928 . S
H310 C295 0.929 . S
H311 C293 0.932 . S
C312 C313 1.386 . S
C312 C314 1.397 . S
C312 H336 0.931 . S
C313 C312 1.386 . S
C313 C317 1.397 . S
C314 C312 1.397 . S
C314 C315 1.384 . S
C314 H337 0.930 . S
C315 C314 1.384 . S
C315 C316 1.377 . S
C315 C318 1.481 . S
C316 C315 1.377 . S
C316 C317 1.389 . S
C316 H338 0.929 . S
C317 C313 1.397 . S
C317 C316 1.389 . S
C317 H339 0.931 . S
C318 C315 1.481 . S
C318 C319 1.387 . S
C318 C323 1.390 . S
C319 C318 1.387 . S
C319 C320 1.401 . S
C319 H340 0.930 . S
C320 C319 1.401 . S
C320 C321 1.376 . S
C320 C329 1.511 . S
C321 C320 1.376 . S
C321 C322 1.392 . S
C321 H342 0.931 . S
C322 C321 1.392 . S
C322 C323 1.361 . S
C322 C324 1.500 . S
C323 C318 1.390 . S
C323 C322 1.361 . S
C323 H341 0.931 . S
C324 C322 1.500 . S
C324 C325 1.371 . S
C324 C326 1.365 . S
C325 C324 1.371 . S
C325 C335 1.386 . S
C325 H343 0.931 . S
C326 C324 1.365 . S
C326 C327 1.409 . S
C326 H344 0.929 . S
C327 C326 1.409 . S
C327 C328 1.380 . S
C327 H345 0.930 . S
C328 C327 1.380 . S
C328 C335 1.357 . S
C329 C320 1.511 . S
C329 C330 1.341 . S
C329 C331 1.371 . S
C330 C329 1.341 . S
C330 C334 1.394 . S
C330 H346 0.930 . S
C331 C329 1.371 . S
C331 C332 1.392 . S
C331 H347 0.931 . S
C332 C331 1.392 . S
C332 C333 1.331 . S
C332 H350 0.932 . S
C333 C332 1.331 . S
C333 C334 1.336 . S
C334 C330 1.394 . S
C334 C333 1.336 . S
C334 H349 0.929 . S
C335 C325 1.386 . S
C335 C328 1.357 . S
C335 H348 0.928 . S
H336 C312 0.931 . S
H337 C314 0.930 . S
H338 C316 0.929 . S
H339 C317 0.931 . S
H340 C319 0.930 . S
H341 C323 0.931 . S
H342 C321 0.931 . S
H343 C325 0.931 . S
H344 C326 0.929 . S
H345 C327 0.930 . S
H346 C330 0.930 . S
H347 C331 0.931 . S
H348 C335 0.928 . S
H349 C334 0.929 . S
H350 C332 0.932 . S
C351 C352 1.386 . S
C351 C353 1.397 . S
C351 H375 0.931 . S
C352 C351 1.386 . S
C352 C356 1.397 . S
C353 C351 1.397 . S
C353 C354 1.384 . S
C353 H376 0.930 . S
C354 C353 1.384 . S
C354 C355 1.377 . S
C354 C357 1.481 . S
C355 C354 1.377 . S
C355 C356 1.389 . S
C355 H377 0.929 . S
C356 C352 1.397 . S
C356 C355 1.389 . S
C356 H378 0.931 . S
C357 C354 1.481 . S
C357 C358 1.387 . S
C357 C362 1.390 . S
C358 C357 1.387 . S
C358 C359 1.401 . S
C358 H379 0.930 1_565 S
C359 C358 1.401 . S
C359 C360 1.376 . S
C359 C368 1.511 1_565 S
C360 C359 1.376 . S
C360 C361 1.392 . S
C360 H381 0.931 . S
C361 C360 1.392 . S
C361 C362 1.361 . S
C361 C363 1.500 . S
C362 C357 1.390 . S
C362 C361 1.361 . S
C362 H380 0.931 . S
C363 C361 1.500 . S
C363 C364 1.371 . S
C363 C365 1.365 . S
C364 C363 1.371 . S
C364 C374 1.386 . S
C364 H382 0.931 . S
C365 C363 1.365 . S
C365 C366 1.409 . S
C365 H383 0.929 . S
C366 C365 1.409 . S
C366 C367 1.380 . S
C366 H384 0.930 . S
C367 C366 1.380 . S
C367 C374 1.357 . S
C368 C359 1.511 1_545 S
C368 C369 1.341 . S
C368 C370 1.371 . S
C369 C368 1.341 . S
C369 C373 1.394 . S
C369 H385 0.930 . S
C370 C368 1.371 . S
C370 C371 1.392 . S
C370 H386 0.931 1_545 S
C371 C370 1.392 . S
C371 C372 1.331 . S
C371 H389 0.932 . S
C372 C371 1.331 . S
C372 C373 1.336 . S
C373 C369 1.394 . S
C373 C372 1.336 . S
C373 H388 0.929 . S
C374 C364 1.386 . S
C374 C367 1.357 . S
C374 H387 0.928 . S
H375 C351 0.931 . S
H376 C353 0.930 . S
H377 C355 0.929 . S
H378 C356 0.931 . S
H379 C358 0.930 1_545 S
H380 C362 0.931 . S
H381 C360 0.931 . S
H382 C364 0.931 . S
H383 C365 0.929 . S
H384 C366 0.930 . S
H385 C369 0.930 . S
H386 C370 0.931 1_565 S
H387 C374 0.928 . S
H388 C373 0.929 . S
H389 C371 0.932 . S
C390 C391 1.386 . S
C390 C392 1.397 . S
C390 H414 0.931 . S
C391 C390 1.386 . S
C391 C395 1.397 . S
C392 C390 1.397 . S
C392 C393 1.384 . S
C392 H415 0.930 . S
C393 C392 1.384 . S
C393 C394 1.377 . S
C393 C396 1.481 . S
C394 C393 1.377 . S
C394 C395 1.389 . S
C394 H416 0.929 . S
C395 C391 1.397 . S
C395 C394 1.389 . S
C395 H417 0.931 . S
C396 C393 1.481 . S
C396 C397 1.387 . S
C396 C401 1.390 . S
C397 C396 1.387 . S
C397 C398 1.401 . S
C397 H418 0.930 . S
C398 C397 1.401 . S
C398 C399 1.376 . S
C398 C407 1.511 . S
C399 C398 1.376 . S
C399 C400 1.392 . S
C399 H420 0.931 . S
C400 C399 1.392 . S
C400 C401 1.361 . S
C400 C402 1.500 . S
C401 C396 1.390 . S
C401 C400 1.361 . S
C401 H419 0.931 . S
C402 C400 1.500 . S
C402 C403 1.371 . S
C402 C404 1.365 . S
C403 C402 1.371 . S
C403 C413 1.386 . S
C403 H421 0.931 . S
C404 C402 1.365 . S
C404 C405 1.409 . S
C404 H422 0.929 . S
C405 C404 1.409 . S
C405 C406 1.380 . S
C405 H423 0.930 . S
C406 C405 1.380 . S
C406 C413 1.357 . S
C407 C398 1.511 . S
C407 C408 1.341 . S
C407 C409 1.371 . S
C408 C407 1.341 . S
C408 C412 1.394 . S
C408 H424 0.930 . S
C409 C407 1.371 . S
C409 C410 1.392 . S
C409 H425 0.931 . S
C410 C409 1.392 . S
C410 C411 1.331 . S
C410 H428 0.932 . S
C411 C410 1.331 . S
C411 C412 1.336 . S
C412 C408 1.394 . S
C412 C411 1.336 . S
C412 H427 0.929 . S
C413 C403 1.386 . S
C413 C406 1.357 . S
C413 H426 0.928 . S
H414 C390 0.931 . S
H415 C392 0.930 . S
H416 C394 0.929 . S
H417 C395 0.931 . S
H418 C397 0.930 . S
H419 C401 0.931 . S
H420 C399 0.931 . S
H421 C403 0.931 . S
H422 C404 0.929 . S
H423 C405 0.930 . S
H424 C408 0.930 . S
H425 C409 0.931 . S
H426 C413 0.928 . S
H427 C412 0.929 . S
H428 C410 0.932 . S
C429 C430 1.386 . S
C429 C431 1.397 . S
C429 H453 0.931 . S
C430 C429 1.386 . S
C430 C434 1.397 . S
C431 C429 1.397 . S
C431 C432 1.384 . S
C431 H454 0.930 . S
C432 C431 1.384 . S
C432 C433 1.377 . S
C432 C435 1.481 . S
C433 C432 1.377 . S
C433 C434 1.389 . S
C433 H455 0.929 . S
C434 C430 1.397 . S
C434 C433 1.389 . S
C434 H456 0.931 . S
C435 C432 1.481 . S
C435 C436 1.387 . S
C435 C440 1.390 . S
C436 C435 1.387 . S
C436 C437 1.401 . S
C436 H457 0.930 . S
C437 C436 1.401 . S
C437 C438 1.376 . S
C437 C446 1.511 . S
C438 C437 1.376 . S
C438 C439 1.392 . S
C438 H459 0.931 . S
C439 C438 1.392 . S
C439 C440 1.361 . S
C439 C441 1.500 . S
C440 C435 1.390 . S
C440 C439 1.361 . S
C440 H458 0.931 . S
C441 C439 1.500 . S
C441 C442 1.371 . S
C441 C443 1.365 . S
C442 C441 1.371 . S
C442 C452 1.386 . S
C442 H460 0.931 . S
C443 C441 1.365 . S
C443 C444 1.409 . S
C443 H461 0.929 . S
C444 C443 1.409 . S
C444 C445 1.380 . S
C444 H462 0.930 . S
C445 C444 1.380 . S
C445 C452 1.357 . S
C446 C437 1.511 . S
C446 C447 1.341 . S
C446 C448 1.371 . S
C447 C446 1.341 . S
C447 C451 1.394 . S
C447 H463 0.930 . S
C448 C446 1.371 . S
C448 C449 1.392 . S
C448 H464 0.931 . S
C449 C448 1.392 . S
C449 C450 1.331 . S
C449 H467 0.932 . S
C450 C449 1.331 . S
C450 C451 1.336 . S
C451 C447 1.394 . S
C451 C450 1.336 . S
C451 H466 0.929 . S
C452 C442 1.386 . S
C452 C445 1.357 . S
C452 H465 0.928 . S
H453 C429 0.931 . S
H454 C431 0.930 . S
H455 C433 0.929 . S
H456 C434 0.931 . S
H457 C436 0.930 . S
H458 C440 0.931 . S
H459 C438 0.931 . S
H460 C442 0.931 . S
H461 C443 0.929 . S
H462 C444 0.930 . S
H463 C447 0.930 . S
H464 C448 0.931 . S
H465 C452 0.928 . S
H466 C451 0.929 . S
H467 C449 0.932 . S
C468 C469 1.386 . S
C468 C470 1.397 . S
C468 H492 0.931 . S
C469 C468 1.386 . S
C469 C473 1.397 . S
C470 C468 1.397 . S
C470 C471 1.384 . S
C470 H493 0.930 . S
C471 C470 1.384 . S
C471 C472 1.377 . S
C471 C474 1.481 . S
C472 C471 1.377 . S
C472 C473 1.389 . S
C472 H494 0.929 . S
C473 C469 1.397 . S
C473 C472 1.389 . S
C473 H495 0.931 . S
C474 C471 1.481 . S
C474 C475 1.387 . S
C474 C479 1.390 . S
C475 C474 1.387 . S
C475 C476 1.401 . S
C475 H496 0.930 . S
C476 C475 1.401 . S
C476 C477 1.376 . S
C476 C485 1.511 . S
C477 C476 1.376 . S
C477 C478 1.392 . S
C477 H498 0.931 . S
C478 C477 1.392 . S
C478 C479 1.361 . S
C478 C480 1.500 . S
C479 C474 1.390 . S
C479 C478 1.361 . S
C479 H497 0.931 . S
C480 C478 1.500 . S
C480 C481 1.371 . S
C480 C482 1.365 . S
C481 C480 1.371 . S
C481 C491 1.386 . S
C481 H499 0.931 . S
C482 C480 1.365 . S
C482 C483 1.409 . S
C482 H500 0.929 . S
C483 C482 1.409 . S
C483 C484 1.380 . S
C483 H501 0.930 . S
C484 C483 1.380 . S
C484 C491 1.357 . S
C485 C476 1.511 . S
C485 C486 1.341 . S
C485 C487 1.371 . S
C486 C485 1.341 . S
C486 C490 1.394 . S
C486 H502 0.930 . S
C487 C485 1.371 . S
C487 C488 1.392 . S
C487 H503 0.931 . S
C488 C487 1.392 . S
C488 C489 1.331 . S
C488 H506 0.932 . S
C489 C488 1.331 . S
C489 C490 1.336 . S
C490 C486 1.394 . S
C490 C489 1.336 . S
C490 H505 0.929 . S
C491 C481 1.386 . S
C491 C484 1.357 . S
C491 H504 0.928 . S
H492 C468 0.931 . S
H493 C470 0.930 . S
H494 C472 0.929 . S
H495 C473 0.931 . S
H496 C475 0.930 . S
H497 C479 0.931 . S
H498 C477 0.931 . S
H499 C481 0.931 . S
H500 C482 0.929 . S
H501 C483 0.930 . S
H502 C486 0.930 . S
H503 C487 0.931 . S
H504 C491 0.928 . S
H505 C490 0.929 . S
H506 C488 0.932 . S
C507 C508 1.386 . S
C507 C509 1.397 . S
C507 H531 0.931 . S
C508 C507 1.386 . S
C508 C512 1.397 . S
C509 C507 1.397 . S
C509 C510 1.384 . S
C509 H532 0.930 . S
C510 C509 1.384 . S
C510 C511 1.377 . S
C510 C513 1.481 . S
C511 C510 1.377 . S
C511 C512 1.389 . S
C511 H533 0.929 . S
C512 C508 1.397 . S
C512 C511 1.389 . S
C512 H534 0.931 . S
C513 C510 1.481 . S
C513 C514 1.387 . S
C513 C518 1.390 . S
C514 C513 1.387 . S
C514 C515 1.401 . S
C514 H535 0.930 . S
C515 C514 1.401 . S
C515 C516 1.376 . S
C515 C524 1.511 1_556 S
C516 C515 1.376 . S
C516 C517 1.392 . S
C516 H537 0.931 1_556 S
C517 C516 1.392 . S
C517 C518 1.361 . S
C517 C519 1.500 . S
C518 C513 1.390 . S
C518 C517 1.361 . S
C518 H536 0.931 . S
C519 C517 1.500 . S
C519 C520 1.371 . S
C519 C521 1.365 . S
C520 C519 1.371 . S
C520 C530 1.386 1_556 S
C520 H538 0.931 1_556 S
C521 C519 1.365 . S
C521 C522 1.409 . S
C521 H539 0.929 . S
C522 C521 1.409 . S
C522 C523 1.380 . S
C522 H540 0.930 . S
C523 C522 1.380 . S
C523 C530 1.357 1_556 S
C524 C515 1.511 1_554 S
C524 C525 1.341 . S
C524 C526 1.371 . S
C525 C524 1.341 . S
C525 C529 1.394 . S
C525 H541 0.930 1_554 S
C526 C524 1.371 . S
C526 C527 1.392 . S
C526 H542 0.931 . S
C527 C526 1.392 . S
C527 C528 1.331 . S
C527 H545 0.932 . S
C528 C527 1.331 . S
C528 C529 1.336 . S
C529 C525 1.394 . S
C529 C528 1.336 . S
C529 H544 0.929 . S
C530 C520 1.386 1_554 S
C530 C523 1.357 1_554 S
C530 H543 0.928 . S
H531 C507 0.931 . S
H532 C509 0.930 . S
H533 C511 0.929 . S
H534 C512 0.931 . S
H535 C514 0.930 . S
H536 C518 0.931 . S
H537 C516 0.931 1_554 S
H538 C520 0.931 1_554 S
H539 C521 0.929 . S
H540 C522 0.930 . S
H541 C525 0.930 1_556 S
H542 C526 0.931 . S
H543 C530 0.928 . S
H544 C529 0.929 . S
H545 C527 0.932 . S
C546 C547 1.386 . S
C546 C548 1.397 . S
C546 H570 0.931 . S
C547 C546 1.386 . S
C547 C551 1.397 . S
C548 C546 1.397 . S
C548 C549 1.384 . S
C548 H571 0.930 . S
C549 C548 1.384 . S
C549 C550 1.377 . S
C549 C552 1.481 . S
C550 C549 1.377 . S
C550 C551 1.389 . S
C550 H572 0.929 . S
C551 C547 1.397 . S
C551 C550 1.389 . S
C551 H573 0.931 . S
C552 C549 1.481 . S
C552 C553 1.387 . S
C552 C557 1.390 . S
C553 C552 1.387 . S
C553 C554 1.401 . S
C553 H574 0.930 . S
C554 C553 1.401 . S
C554 C555 1.376 . S
C554 C563 1.511 . S
C555 C554 1.376 . S
C555 C556 1.392 . S
C555 H576 0.931 . S
C556 C555 1.392 . S
C556 C557 1.361 . S
C556 C558 1.500 . S
C557 C552 1.390 . S
C557 C556 1.361 . S
C557 H575 0.931 . S
C558 C556 1.500 . S
C558 C559 1.371 . S
C558 C560 1.365 . S
C559 C558 1.371 . S
C559 C569 1.386 . S
C559 H577 0.931 . S
C560 C558 1.365 . S
C560 C561 1.409 . S
C560 H578 0.929 . S
C561 C560 1.409 . S
C561 C562 1.380 . S
C561 H579 0.930 . S
C562 C561 1.380 . S
C562 C569 1.357 . S
C563 C554 1.511 . S
C563 C564 1.341 . S
C563 C565 1.371 . S
C564 C563 1.341 . S
C564 C568 1.394 . S
C564 H580 0.930 . S
C565 C563 1.371 . S
C565 C566 1.392 . S
C565 H581 0.931 . S
C566 C565 1.392 . S
C566 C567 1.331 . S
C566 H584 0.932 . S
C567 C566 1.331 . S
C567 C568 1.336 . S
C568 C564 1.394 . S
C568 C567 1.336 . S
C568 H583 0.929 . S
C569 C559 1.386 . S
C569 C562 1.357 . S
C569 H582 0.928 . S
H570 C546 0.931 . S
H571 C548 0.930 . S
H572 C550 0.929 . S
H573 C551 0.931 . S
H574 C553 0.930 . S
H575 C557 0.931 . S
H576 C555 0.931 . S
H577 C559 0.931 . S
H578 C560 0.929 . S
H579 C561 0.930 . S
H580 C564 0.930 . S
H581 C565 0.931 . S
H582 C569 0.928 . S
H583 C568 0.929 . S
H584 C566 0.932 . S
C585 C586 1.386 . S
C585 C587 1.397 1_554 S
C585 H609 0.931 . S
C586 C585 1.386 . S
C586 C590 1.397 . S
C587 C585 1.397 1_556 S
C587 C588 1.384 1_556 S
C587 H610 0.930 . S
C588 C587 1.384 1_554 S
C588 C589 1.377 . S
C588 C591 1.481 1_554 S
C589 C588 1.377 . S
C589 C590 1.389 . S
C589 H611 0.929 . S
C590 C586 1.397 . S
C590 C589 1.389 . S
C590 H612 0.931 . S
C591 C588 1.481 1_556 S
C591 C592 1.387 . S
C591 C596 1.390 . S
C592 C591 1.387 . S
C592 C593 1.401 . S
C592 H613 0.930 . S
C593 C592 1.401 . S
C593 C594 1.376 . S
C593 C602 1.511 . S
C594 C593 1.376 . S
C594 C595 1.392 . S
C594 H615 0.931 . S
C595 C594 1.392 . S
C595 C596 1.361 . S
C595 C597 1.500 . S
C596 C591 1.390 . S
C596 C595 1.361 . S
C596 H614 0.931 1_556 S
C597 C595 1.500 . S
C597 C598 1.371 1_545 S
C597 C599 1.365 1_546 S
C598 C597 1.371 1_565 S
C598 C608 1.386 . S
C598 H616 0.931 . S
C599 C597 1.365 1_564 S
C599 C600 1.409 . S
C599 H617 0.929 1_565 S
C600 C599 1.409 . S
C600 C601 1.380 1_554 S
C600 H618 0.930 . S
C601 C600 1.380 1_556 S
C601 C608 1.357 . S
C602 C593 1.511 . S
C602 C603 1.341 . S
C602 C604 1.371 . S
C603 C602 1.341 . S
C603 C607 1.394 . S
C603 H619 0.930 . S
C604 C602 1.371 . S
C604 C605 1.392 . S
C604 H620 0.931 1_545 S
C605 C604 1.392 . S
C605 C606 1.331 . S
C605 H623 0.932 1_545 S
C606 C605 1.331 . S
C606 C607 1.336 . S
C607 C603 1.394 . S
C607 C606 1.336 . S
C607 H622 0.929 . S
C608 C598 1.386 . S
C608 C601 1.357 . S
C608 H621 0.928 . S
H609 C585 0.931 . S
H610 C587 0.930 . S
H611 C589 0.929 . S
H612 C590 0.931 . S
H613 C592 0.930 . S
H614 C596 0.931 1_554 S
H615 C594 0.931 . S
H616 C598 0.931 . S
H617 C599 0.929 1_545 S
H618 C600 0.930 . S
H619 C603 0.930 . S
H620 C604 0.931 1_565 S
H621 C608 0.928 . S
H622 C607 0.929 . S
H623 C605 0.932 1_565 S
Mn624 O629 2.095 . S
Mn624 O639 2.162 . S
Mn624 O640 2.297 . S
Mn624 O648 2.385 1_554 S
Mn624 O649 2.209 1_554 S
Mn624 O650 2.094 . S
Mn625 O630 2.121 . S
Mn625 N632 2.257 . S
Mn625 N641 2.282 . S
Mn625 O649 2.215 . S
Mn625 O651 2.117 . S
C626 O648 1.234 . S
C626 O649 1.283 . S
C627 O639 1.281 . S
C627 O640 1.236 . S
C628 O650 1.240 . S
C628 O651 1.264 1_554 S
O629 Mn624 2.095 . S
O629 C638 1.258 . S
O630 Mn625 2.121 . S
O630 C638 1.247 1_556 S
C631 N632 1.326 . S
C631 C635 1.460 . S
C631 H637 0.929 . S
N632 Mn625 2.257 . S
N632 C631 1.326 . S
N632 C636 1.362 . S
C633 C634 1.258 . S
C633 C636 1.431 . S
C633 C653 1.449 . S
C634 C633 1.258 . S
C634 C635 1.477 . S
C634 H654 0.931 . S
C635 C631 1.460 . S
C635 C634 1.477 . S
C635 H655 0.930 . S
C636 N632 1.362 . S
C636 C633 1.431 . S
C636 C646 1.476 . S
H637 C631 0.929 . S
C638 O629 1.258 . S
C638 O630 1.247 1_554 S
O639 Mn624 2.162 . S
O639 C627 1.281 . S
O640 Mn624 2.297 . S
O640 C627 1.236 . S
N641 Mn625 2.282 . S
N641 C642 1.328 . S
N641 C646 1.318 . S
C642 N641 1.328 . S
C642 C643 1.457 . S
C642 H647 0.929 . S
C643 C642 1.457 . S
C643 C644 1.291 . S
C643 H656 0.931 . S
C644 C643 1.291 . S
C644 C645 1.373 . S
C644 H657 0.929 . S
C645 C644 1.373 . S
C645 C646 1.396 . S
C645 C652 1.403 . S
C646 C636 1.476 . S
C646 N641 1.318 . S
C646 C645 1.396 . S
H647 C642 0.929 . S
O648 Mn624 2.385 1_556 S
O648 C626 1.234 . S
O649 Mn624 2.209 1_556 S
O649 Mn625 2.215 . S
O649 C626 1.283 . S
O650 Mn624 2.094 . S
O650 C628 1.240 . S
O651 Mn625 2.117 . S
O651 C628 1.264 1_556 S
C652 C645 1.403 . S
C652 C653 1.399 . S
C652 H658 0.929 . S
C653 C633 1.449 . S
C653 C652 1.399 . S
C653 H659 0.930 . S
H654 C634 0.931 . S
H655 C635 0.930 . S
H656 C643 0.931 . S
H657 C644 0.929 . S
H658 C652 0.929 . S
H659 C653 0.930 . S
Mn660 O665 2.095 . S
Mn660 O675 2.162 . S
Mn660 O676 2.297 . S
Mn660 O684 2.385 . S
Mn660 O685 2.209 . S
Mn660 O686 2.094 . S
Mn661 O666 2.121 . S
Mn661 N668 2.257 . S
Mn661 N677 2.282 . S
Mn661 O685 2.215 . S
Mn661 O687 2.117 . S
C662 O684 1.234 . S
C662 O685 1.283 . S
C663 O675 1.281 . S
C663 O676 1.236 . S
C664 O686 1.240 . S
C664 O687 1.264 . S
O665 Mn660 2.095 . S
O665 C674 1.250 . S
O666 Mn661 2.121 . S
O666 C674 1.258 . S
C667 N668 1.326 . S
C667 C671 1.460 . S
C667 H673 0.929 . S
N668 Mn661 2.257 . S
N668 C667 1.326 . S
N668 C672 1.362 . S
C669 C670 1.258 . S
C669 C672 1.431 . S
C669 C689 1.449 . S
C670 C669 1.258 . S
C670 C671 1.477 . S
C670 H690 0.931 . S
C671 C667 1.460 . S
C671 C670 1.477 . S
C671 H691 0.930 . S
C672 N668 1.362 . S
C672 C669 1.431 . S
C672 C682 1.476 . S
H673 C667 0.929 . S
C674 O665 1.250 . S
C674 O666 1.258 . S
O675 Mn660 2.162 . S
O675 C663 1.281 . S
O676 Mn660 2.297 . S
O676 C663 1.236 . S
N677 Mn661 2.282 . S
N677 C678 1.328 . S
N677 C682 1.318 . S
C678 N677 1.328 . S
C678 C679 1.457 . S
C678 H683 0.929 . S
C679 C678 1.457 . S
C679 C680 1.291 . S
C679 H692 0.931 . S
C680 C679 1.291 . S
C680 C681 1.373 . S
C680 H693 0.929 . S
C681 C680 1.373 . S
C681 C682 1.396 . S
C681 C688 1.403 . S
C682 C672 1.476 . S
C682 N677 1.318 . S
C682 C681 1.396 . S
H683 C678 0.929 . S
O684 Mn660 2.385 . S
O684 C662 1.234 . S
O685 Mn660 2.209 . S
O685 Mn661 2.215 . S
O685 C662 1.283 . S
O686 Mn660 2.094 . S
O686 C664 1.240 . S
O687 Mn661 2.117 . S
O687 C664 1.264 . S
C688 C681 1.403 . S
C688 C689 1.399 . S
C688 H694 0.929 . S
C689 C669 1.449 . S
C689 C688 1.399 . S
C689 H695 0.930 . S
H690 C670 0.931 . S
H691 C671 0.930 . S
H692 C679 0.931 . S
H693 C680 0.929 . S
H694 C688 0.929 . S
H695 C689 0.930 . S
Mn696 O701 2.095 1_554 S
Mn696 O711 2.162 . S
Mn696 O712 2.297 1_554 S
Mn696 O720 2.385 . S
Mn696 O721 2.209 1_554 S
Mn696 O722 2.094 . S
Mn697 O702 2.121 . S
Mn697 N704 2.257 . S
Mn697 N713 2.282 . S
Mn697 O721 2.215 . S
Mn697 O723 2.117 1_556 S
C698 O720 1.213 1_556 S
C698 O721 1.298 . S
C699 O711 1.281 . S
C699 O712 1.236 1_554 S
C700 O722 1.240 . S
C700 O723 1.264 . S
O701 Mn696 2.095 1_556 S
O701 C710 1.250 . S
O702 Mn697 2.121 . S
O702 C710 1.258 . S
C703 N704 1.326 . S
C703 C707 1.460 . S
C703 H709 0.929 . S
N704 Mn697 2.257 . S
N704 C703 1.326 . S
N704 C708 1.362 . S
C705 C706 1.258 . S
C705 C708 1.431 . S
C705 C725 1.449 . S
C706 C705 1.258 . S
C706 C707 1.477 . S
C706 H726 0.931 . S
C707 C703 1.460 . S
C707 C706 1.477 . S
C707 H727 0.930 . S
C708 N704 1.362 . S
C708 C705 1.431 . S
C708 C718 1.476 . S
H709 C703 0.929 . S
C710 O701 1.250 . S
C710 O702 1.258 . S
O711 Mn696 2.162 . S
O711 C699 1.281 . S
O712 Mn696 2.297 1_556 S
O712 C699 1.236 1_556 S
N713 Mn697 2.282 . S
N713 C714 1.328 1_556 S
N713 C718 1.318 . S
C714 N713 1.328 1_554 S
C714 C715 1.457 . S
C714 H719 0.929 . S
C715 C714 1.457 . S
C715 C716 1.291 . S
C715 H728 0.931 . S
C716 C715 1.291 . S
C716 C717 1.373 1_554 S
C716 H729 0.929 . S
C717 C716 1.373 1_556 S
C717 C718 1.396 . S
C717 C724 1.403 . S
C718 C708 1.476 . S
C718 N713 1.318 . S
C718 C717 1.396 . S
H719 C714 0.929 . S
O720 Mn696 2.385 . S
O720 C698 1.213 1_554 S
O721 Mn696 2.209 1_556 S
O721 Mn697 2.215 . S
O721 C698 1.298 . S
O722 Mn696 2.094 . S
O722 C700 1.240 . S
O723 Mn697 2.117 1_554 S
O723 C700 1.264 . S
C724 C717 1.403 . S
C724 C725 1.399 . S
C724 H730 0.929 . S
C725 C705 1.449 . S
C725 C724 1.399 . S
C725 H731 0.930 . S
H726 C706 0.931 . S
H727 C707 0.930 . S
H728 C715 0.931 . S
H729 C716 0.929 . S
H730 C724 0.929 . S
H731 C725 0.930 . S
Mn732 O737 2.095 . S
Mn732 O747 2.162 . S
Mn732 O748 2.297 . S
Mn732 O756 2.385 1_545 S
Mn732 O757 2.209 1_545 S
Mn732 O758 2.094 . S
Mn733 O738 2.121 . S
Mn733 N740 2.257 . S
Mn733 N749 2.282 . S
Mn733 O757 2.215 . S
Mn733 O759 2.117 . S
C734 O756 1.234 . S
C734 O757 1.283 . S
C735 O747 1.281 . S
C735 O748 1.236 . S
C736 O758 1.240 . S
C736 O759 1.264 1_545 S
O737 Mn732 2.095 . S
O737 C746 1.250 1_545 S
O738 Mn733 2.121 . S
O738 C746 1.258 . S
C739 N740 1.326 . S
C739 C743 1.460 . S
C739 H745 0.929 . S
N740 Mn733 2.257 . S
N740 C739 1.326 . S
N740 C744 1.362 . S
C741 C742 1.258 . S
C741 C744 1.431 . S
C741 C761 1.449 . S
C742 C741 1.258 . S
C742 C743 1.477 . S
C742 H762 0.931 . S
C743 C739 1.460 . S
C743 C742 1.477 . S
C743 H763 0.930 . S
C744 N740 1.362 . S
C744 C741 1.431 . S
C744 C754 1.476 . S
H745 C739 0.929 . S
C746 O737 1.250 1_565 S
C746 O738 1.258 . S
O747 Mn732 2.162 . S
O747 C735 1.281 . S
O748 Mn732 2.297 . S
O748 C735 1.236 . S
N749 Mn733 2.282 . S
N749 C750 1.328 . S
N749 C754 1.318 . S
C750 N749 1.328 . S
C750 C751 1.457 . S
C750 H755 0.929 . S
C751 C750 1.457 . S
C751 C752 1.291 . S
C751 H764 0.931 . S
C752 C751 1.291 . S
C752 C753 1.373 . S
C752 H765 0.929 . S
C753 C752 1.373 . S
C753 C754 1.396 . S
C753 C760 1.403 . S
C754 C744 1.476 . S
C754 N749 1.318 . S
C754 C753 1.396 . S
H755 C750 0.929 . S
O756 Mn732 2.385 1_565 S
O756 C734 1.234 . S
O757 Mn732 2.209 1_565 S
O757 Mn733 2.215 . S
O757 C734 1.283 . S
O758 Mn732 2.094 . S
O758 C736 1.240 . S
O759 Mn733 2.117 . S
O759 C736 1.264 1_565 S
C760 C753 1.403 . S
C760 C761 1.399 . S
C760 H766 0.929 . S
C761 C741 1.449 . S
C761 C760 1.399 . S
C761 H767 0.930 . S
H762 C742 0.931 . S
H763 C743 0.930 . S
H764 C751 0.931 . S
H765 C752 0.929 . S
H766 C760 0.929 . S
H767 C761 0.930 . S
Mn768 O773 2.095 . S
Mn768 O783 2.162 . S
Mn768 O784 2.297 . S
Mn768 O792 2.385 . S
Mn768 O793 2.209 . S
Mn768 O794 2.094 . S
Mn769 O774 2.121 . S
Mn769 N776 2.257 . S
Mn769 N785 2.282 . S
Mn769 O793 2.215 . S
Mn769 O795 2.117 . S
C770 O792 1.234 . S
C770 O793 1.283 . S
C771 O783 1.281 . S
C771 O784 1.236 . S
C772 O794 1.240 . S
C772 O795 1.264 . S
O773 Mn768 2.095 . S
O773 C782 1.250 . S
O774 Mn769 2.121 . S
O774 C782 1.258 . S
C775 N776 1.326 . S
C775 C779 1.460 . S
C775 H781 0.929 . S
N776 Mn769 2.257 . S
N776 C775 1.326 . S
N776 C780 1.362 . S
C777 C778 1.258 . S
C777 C780 1.431 . S
C777 C797 1.449 . S
C778 C777 1.258 . S
C778 C779 1.477 . S
C778 H798 0.931 . S
C779 C775 1.460 . S
C779 C778 1.477 . S
C779 H799 0.930 . S
C780 N776 1.362 . S
C780 C777 1.431 . S
C780 C790 1.476 . S
H781 C775 0.929 . S
C782 O773 1.250 . S
C782 O774 1.258 . S
O783 Mn768 2.162 . S
O783 C771 1.281 . S
O784 Mn768 2.297 . S
O784 C771 1.236 . S
N785 Mn769 2.282 . S
N785 C786 1.328 . S
N785 C790 1.318 . S
C786 N785 1.328 . S
C786 C787 1.457 . S
C786 H791 0.929 . S
C787 C786 1.457 . S
C787 C788 1.291 . S
C787 H800 0.931 . S
C788 C787 1.291 . S
C788 C789 1.373 . S
C788 H801 0.929 . S
C789 C788 1.373 . S
C789 C790 1.396 . S
C789 C796 1.403 . S
C790 C780 1.476 . S
C790 N785 1.318 . S
C790 C789 1.396 . S
H791 C786 0.929 . S
O792 Mn768 2.385 . S
O792 C770 1.234 . S
O793 Mn768 2.209 . S
O793 Mn769 2.215 . S
O793 C770 1.283 . S
O794 Mn768 2.094 . S
O794 C772 1.240 . S
O795 Mn769 2.117 . S
O795 C772 1.264 . S
C796 C789 1.403 . S
C796 C797 1.399 . S
C796 H802 0.929 . S
C797 C777 1.449 . S
C797 C796 1.399 . S
C797 H803 0.930 . S
H798 C778 0.931 . S
H799 C779 0.930 . S
H800 C787 0.931 . S
H801 C788 0.929 . S
H802 C796 0.929 . S
H803 C797 0.930 . S
Mn804 O809 2.095 . S
Mn804 O819 2.162 . S
Mn804 O820 2.297 . S
Mn804 O828 2.385 . S
Mn804 O829 2.209 . S
Mn804 O830 2.094 . S
Mn805 O810 2.121 . S
Mn805 N812 2.257 . S
Mn805 N821 2.282 . S
Mn805 O829 2.215 . S
Mn805 O831 2.117 . S
C806 O828 1.234 . S
C806 O829 1.283 . S
C807 O819 1.281 . S
C807 O820 1.236 . S
C808 O830 1.240 . S
C808 O831 1.264 . S
O809 Mn804 2.095 . S
O809 C818 1.250 . S
O810 Mn805 2.121 . S
O810 C818 1.258 . S
C811 N812 1.326 . S
C811 C815 1.460 . S
C811 H817 0.929 . S
N812 Mn805 2.257 . S
N812 C811 1.326 . S
N812 C816 1.362 . S
C813 C814 1.258 . S
C813 C816 1.431 . S
C813 C833 1.449 . S
C814 C813 1.258 . S
C814 C815 1.477 . S
C814 H834 0.931 . S
C815 C811 1.460 . S
C815 C814 1.477 . S
C815 H835 0.930 . S
C816 N812 1.362 . S
C816 C813 1.431 . S
C816 C826 1.476 . S
H817 C811 0.929 . S
C818 O809 1.250 . S
C818 O810 1.258 . S
O819 Mn804 2.162 . S
O819 C807 1.281 . S
O820 Mn804 2.297 . S
O820 C807 1.236 . S
N821 Mn805 2.282 . S
N821 C822 1.328 . S
N821 C826 1.318 . S
C822 N821 1.328 . S
C822 C823 1.457 . S
C822 H827 0.929 . S
C823 C822 1.457 . S
C823 C824 1.291 . S
C823 H836 0.931 . S
C824 C823 1.291 . S
C824 C825 1.373 . S
C824 H837 0.929 . S
C825 C824 1.373 . S
C825 C826 1.396 . S
C825 C832 1.403 . S
C826 C816 1.476 . S
C826 N821 1.318 . S
C826 C825 1.396 . S
H827 C822 0.929 . S
O828 Mn804 2.385 . S
O828 C806 1.234 . S
O829 Mn804 2.209 . S
O829 Mn805 2.215 . S
O829 C806 1.283 . S
O830 Mn804 2.094 . S
O830 C808 1.240 . S
O831 Mn805 2.117 . S
O831 C808 1.264 . S
C832 C825 1.403 . S
C832 C833 1.399 . S
C832 H838 0.929 . S
C833 C813 1.449 . S
C833 C832 1.399 . S
C833 H839 0.930 . S
H834 C814 0.931 . S
H835 C815 0.930 . S
H836 C823 0.931 . S
H837 C824 0.929 . S
H838 C832 0.929 . S
H839 C833 0.930 . S
Mn840 O845 2.095 . S
Mn840 O855 2.162 . S
Mn840 O856 2.297 . S
Mn840 O864 2.385 . S
Mn840 O865 2.209 . S
Mn840 O866 2.094 . S
Mn841 O846 2.121 . S
Mn841 N848 2.257 . S
Mn841 N857 2.282 . S
Mn841 O865 2.215 . S
Mn841 O867 2.117 . S
C842 O864 1.234 . S
C842 O865 1.283 . S
C843 O855 1.281 . S
C843 O856 1.236 . S
C844 O866 1.240 . S
C844 O867 1.264 . S
O845 Mn840 2.095 . S
O845 C854 1.250 . S
O846 Mn841 2.121 . S
O846 C854 1.258 . S
C847 N848 1.326 . S
C847 C851 1.460 . S
C847 H853 0.929 . S
N848 Mn841 2.257 . S
N848 C847 1.326 . S
N848 C852 1.362 . S
C849 C850 1.258 . S
C849 C852 1.431 . S
C849 C869 1.449 . S
C850 C849 1.258 . S
C850 C851 1.477 . S
C850 H870 0.931 . S
C851 C847 1.460 . S
C851 C850 1.477 . S
C851 H871 0.930 . S
C852 N848 1.362 . S
C852 C849 1.431 . S
C852 C862 1.476 . S
H853 C847 0.929 . S
C854 O845 1.250 . S
C854 O846 1.258 . S
O855 Mn840 2.162 . S
O855 C843 1.281 . S
O856 Mn840 2.297 . S
O856 C843 1.236 . S
N857 Mn841 2.282 . S
N857 C858 1.328 . S
N857 C862 1.318 . S
C858 N857 1.328 . S
C858 C859 1.457 . S
C858 H863 0.929 . S
C859 C858 1.457 . S
C859 C860 1.291 . S
C859 H872 0.931 . S
C860 C859 1.291 . S
C860 C861 1.373 . S
C860 H873 0.929 . S
C861 C860 1.373 . S
C861 C862 1.396 . S
C861 C868 1.403 . S
C862 C852 1.476 . S
C862 N857 1.318 . S
C862 C861 1.396 . S
H863 C858 0.929 . S
O864 Mn840 2.385 . S
O864 C842 1.234 . S
O865 Mn840 2.209 . S
O865 Mn841 2.215 . S
O865 C842 1.283 . S
O866 Mn840 2.094 . S
O866 C844 1.240 . S
O867 Mn841 2.117 . S
O867 C844 1.264 . S
C868 C861 1.403 . S
C868 C869 1.399 . S
C868 H874 0.929 . S
C869 C849 1.449 . S
C869 C868 1.399 . S
C869 H875 0.930 . S
H870 C850 0.931 . S
H871 C851 0.930 . S
H872 C859 0.931 . S
H873 C860 0.929 . S
H874 C868 0.929 . S
H875 C869 0.930 . S
Mn876 O881 2.095 . S
Mn876 O891 2.162 . S
Mn876 O892 2.297 . S
Mn876 O900 2.385 1_565 S
Mn876 O901 2.209 1_565 S
Mn876 O902 2.094 . S
Mn877 O882 2.121 . S
Mn877 N884 2.257 . S
Mn877 N893 2.282 . S
Mn877 O901 2.215 . S
Mn877 O903 2.117 . S
C878 O900 1.234 . S
C878 O901 1.283 . S
C879 O891 1.281 . S
C879 O892 1.236 . S
C880 O902 1.221 1_545 S
C880 O903 1.288 . S
O881 Mn876 2.095 . S
O881 C890 1.250 1_565 S
O882 Mn877 2.121 . S
O882 C890 1.258 . S
C883 N884 1.326 . S
C883 C887 1.460 . S
C883 H889 0.929 . S
N884 Mn877 2.257 . S
N884 C883 1.326 . S
N884 C888 1.362 . S
C885 C886 1.258 . S
C885 C888 1.431 . S
C885 C905 1.449 . S
C886 C885 1.258 . S
C886 C887 1.477 . S
C886 H906 0.931 . S
C887 C883 1.460 . S
C887 C886 1.477 . S
C887 H907 0.930 . S
C888 N884 1.362 . S
C888 C885 1.431 . S
C888 C898 1.476 . S
H889 C883 0.929 . S
C890 O881 1.250 1_545 S
C890 O882 1.258 . S
O891 Mn876 2.162 . S
O891 C879 1.281 . S
O892 Mn876 2.297 . S
O892 C879 1.236 . S
N893 Mn877 2.282 . S
N893 C894 1.328 . S
N893 C898 1.318 . S
C894 N893 1.328 . S
C894 C895 1.457 . S
C894 H899 0.929 . S
C895 C894 1.457 . S
C895 C896 1.291 . S
C895 H908 0.931 . S
C896 C895 1.291 . S
C896 C897 1.373 . S
C896 H909 0.929 . S
C897 C896 1.373 . S
C897 C898 1.396 . S
C897 C904 1.403 . S
C898 C888 1.476 . S
C898 N893 1.318 . S
C898 C897 1.396 . S
H899 C894 0.929 . S
O900 Mn876 2.385 1_545 S
O900 C878 1.234 . S
O901 Mn876 2.209 1_545 S
O901 Mn877 2.215 . S
O901 C878 1.283 . S
O902 Mn876 2.094 . S
O902 C880 1.221 1_565 S
O903 Mn877 2.117 . S
O903 C880 1.288 . S
C904 C897 1.403 . S
C904 C905 1.399 . S
C904 H910 0.929 . S
C905 C885 1.449 . S
C905 C904 1.399 . S
C905 H911 0.930 . S
H906 C886 0.931 . S
H907 C887 0.930 . S
H908 C895 0.931 . S
H909 C896 0.929 . S
H910 C904 0.929 . S
H911 C905 0.930 . S
Mn912 O917 2.095 . S
Mn912 O927 2.162 . S
Mn912 O928 2.297 . S
Mn912 O936 2.385 1_455 S
Mn912 O937 2.209 1_455 S
Mn912 O938 2.094 . S
Mn913 O918 2.121 . S
Mn913 N920 2.257 . S
Mn913 N929 2.282 . S
Mn913 O937 2.215 . S
Mn913 O939 2.117 . S
C914 O936 1.234 . S
C914 O937 1.283 . S
C915 O927 1.281 . S
C915 O928 1.236 . S
C916 O938 1.240 . S
C916 O939 1.264 1_455 S
O917 Mn912 2.095 . S
O917 C926 1.250 1_455 S
O918 Mn913 2.121 . S
O918 C926 1.258 . S
C919 N920 1.326 . S
C919 C923 1.460 . S
C919 H925 0.929 . S
N920 Mn913 2.257 . S
N920 C919 1.326 . S
N920 C924 1.362 . S
C921 C922 1.258 . S
C921 C924 1.431 . S
C921 C941 1.449 . S
C922 C921 1.258 . S
C922 C923 1.477 . S
C922 H942 0.931 . S
C923 C919 1.460 . S
C923 C922 1.477 . S
C923 H943 0.930 . S
C924 N920 1.362 . S
C924 C921 1.431 . S
C924 C934 1.476 . S
H925 C919 0.929 . S
C926 O917 1.250 1_655 S
C926 O918 1.258 . S
O927 Mn912 2.162 . S
O927 C915 1.281 . S
O928 Mn912 2.297 . S
O928 C915 1.236 . S
N929 Mn913 2.282 . S
N929 C930 1.328 . S
N929 C934 1.318 . S
C930 N929 1.328 . S
C930 C931 1.457 . S
C930 H935 0.929 . S
C931 C930 1.457 . S
C931 C932 1.291 . S
C931 H944 0.931 . S
C932 C931 1.291 . S
C932 C933 1.373 . S
C932 H945 0.929 . S
C933 C932 1.373 . S
C933 C934 1.396 . S
C933 C940 1.403 . S
C934 C924 1.476 . S
C934 N929 1.318 . S
C934 C933 1.396 . S
H935 C930 0.929 . S
O936 Mn912 2.385 1_655 S
O936 C914 1.234 . S
O937 Mn912 2.209 1_655 S
O937 Mn913 2.215 . S
O937 C914 1.283 . S
O938 Mn912 2.094 . S
O938 C916 1.240 . S
O939 Mn913 2.117 . S
O939 C916 1.264 1_655 S
C940 C933 1.403 . S
C940 C941 1.399 . S
C940 H946 0.929 . S
C941 C921 1.449 . S
C941 C940 1.399 . S
C941 H947 0.930 . S
H942 C922 0.931 . S
H943 C923 0.930 . S
H944 C931 0.931 . S
H945 C932 0.929 . S
H946 C940 0.929 . S
H947 C941 0.930 . S
Mn948 O953 2.095 . S
Mn948 O963 2.162 . S
Mn948 O964 2.297 . S
Mn948 O972 2.385 . S
Mn948 O973 2.209 . S
Mn948 O974 2.094 . S
Mn949 O954 2.121 . S
Mn949 N956 2.257 . S
Mn949 N965 2.282 . S
Mn949 O973 2.215 . S
Mn949 O975 2.117 . S
C950 O972 1.234 . S
C950 O973 1.283 . S
C951 O963 1.281 . S
C951 O964 1.236 . S
C952 O974 1.240 . S
C952 O975 1.264 . S
O953 Mn948 2.095 . S
O953 C962 1.250 . S
O954 Mn949 2.121 . S
O954 C962 1.258 . S
C955 N956 1.326 . S
C955 C959 1.460 . S
C955 H961 0.929 . S
N956 Mn949 2.257 . S
N956 C955 1.326 . S
N956 C960 1.362 . S
C957 C958 1.258 . S
C957 C960 1.431 . S
C957 C977 1.449 . S
C958 C957 1.258 . S
C958 C959 1.477 . S
C958 H978 0.931 . S
C959 C955 1.460 . S
C959 C958 1.477 . S
C959 H979 0.930 . S
C960 N956 1.362 . S
C960 C957 1.431 . S
C960 C970 1.476 . S
H961 C955 0.929 . S
C962 O953 1.250 . S
C962 O954 1.258 . S
O963 Mn948 2.162 . S
O963 C951 1.281 . S
O964 Mn948 2.297 . S
O964 C951 1.236 . S
N965 Mn949 2.282 . S
N965 C966 1.328 . S
N965 C970 1.318 . S
C966 N965 1.328 . S
C966 C967 1.457 . S
C966 H971 0.929 . S
C967 C966 1.457 . S
C967 C968 1.291 . S
C967 H980 0.931 . S
C968 C967 1.291 . S
C968 C969 1.373 . S
C968 H981 0.929 . S
C969 C968 1.373 . S
C969 C970 1.396 . S
C969 C976 1.403 . S
C970 C960 1.476 . S
C970 N965 1.318 . S
C970 C969 1.396 . S
H971 C966 0.929 . S
O972 Mn948 2.385 . S
O972 C950 1.234 . S
O973 Mn948 2.209 . S
O973 Mn949 2.215 . S
O973 C950 1.283 . S
O974 Mn948 2.094 . S
O974 C952 1.240 . S
O975 Mn949 2.117 . S
O975 C952 1.264 . S
C976 C969 1.403 . S
C976 C977 1.399 . S
C976 H982 0.929 . S
C977 C957 1.449 . S
C977 C976 1.399 . S
C977 H983 0.930 . S
H978 C958 0.931 . S
H979 C959 0.930 . S
H980 C967 0.931 . S
H981 C968 0.929 . S
H982 C976 0.929 . S
H983 C977 0.930 . S
Mn984 O989 2.095 1_455 S
Mn984 O999 2.162 . S
Mn984 O1000 2.297 1_455 S
Mn984 O1008 2.385 . S
Mn984 O1009 2.209 1_455 S
Mn984 O1010 2.094 . S
Mn985 O990 2.121 . S
Mn985 N992 2.257 . S
Mn985 N1001 2.282 1_655 S
Mn985 O1009 2.215 . S
Mn985 O1011 2.117 1_655 S
C986 O1008 1.234 . S
C986 O1009 1.283 1_455 S
C987 O999 1.281 . S
C987 O1000 1.236 1_455 S
C988 O1010 1.240 . S
C988 O1011 1.264 . S
O989 Mn984 2.095 1_655 S
O989 C998 1.250 . S
O990 Mn985 2.121 . S
O990 C998 1.258 . S
C991 N992 1.326 . S
C991 C995 1.460 . S
C991 H997 0.929 . S
N992 Mn985 2.257 . S
N992 C991 1.326 . S
N992 C996 1.362 . S
C993 C994 1.258 . S
C993 C996 1.431 . S
C993 C1013 1.449 . S
C994 C993 1.258 . S
C994 C995 1.477 . S
C994 H1014 0.931 . S
C995 C991 1.460 . S
C995 C994 1.477 . S
C995 H1015 0.930 . S
C996 N992 1.362 . S
C996 C993 1.431 . S
C996 C1006 1.476 . S
H997 C991 0.929 . S
C998 O989 1.250 . S
C998 O990 1.258 . S
O999 Mn984 2.162 . S
O999 C987 1.281 . S
O1000 Mn984 2.297 1_655 S
O1000 C987 1.236 1_655 S
N1001 Mn985 2.282 1_455 S
N1001 C1002 1.328 . S
N1001 C1006 1.318 1_455 S
C1002 N1001 1.328 . S
C1002 C1003 1.457 . S
C1002 H1007 0.929 . S
C1003 C1002 1.457 . S
C1003 C1004 1.291 . S
C1003 H1016 0.931 . S
C1004 C1003 1.291 . S
C1004 C1005 1.373 1_455 S
C1004 H1017 0.929 . S
C1005 C1004 1.373 1_655 S
C1005 C1006 1.396 . S
C1005 C1012 1.403 . S
C1006 C996 1.476 . S
C1006 N1001 1.318 1_655 S
C1006 C1005 1.396 . S
H1007 C1002 0.929 . S
O1008 Mn984 2.385 . S
O1008 C986 1.234 . S
O1009 Mn984 2.209 1_655 S
O1009 Mn985 2.215 . S
O1009 C986 1.283 1_655 S
O1010 Mn984 2.094 . S
O1010 C988 1.240 . S
O1011 Mn985 2.117 1_455 S
O1011 C988 1.264 . S
C1012 C1005 1.403 . S
C1012 C1013 1.399 . S
C1012 H1018 0.929 . S
C1013 C993 1.449 . S
C1013 C1012 1.399 . S
C1013 H1019 0.930 . S
H1014 C994 0.931 . S
H1015 C995 0.930 . S
H1016 C1003 0.931 . S
H1017 C1004 0.929 . S
H1018 C1012 0.929 . S
H1019 C1013 0.930 . S
Mn1020 O1025 2.095 . S
Mn1020 O1035 2.162 . S
Mn1020 O1036 2.297 . S
Mn1020 O1044 2.385 . S
Mn1020 O1045 2.209 . S
Mn1020 O1046 2.094 . S
Mn1021 O1026 2.121 . S
Mn1021 N1028 2.257 . S
Mn1021 N1037 2.282 . S
Mn1021 O1045 2.215 . S
Mn1021 O1047 2.117 . S
C1022 O1044 1.234 . S
C1022 O1045 1.283 . S
C1023 O1035 1.281 . S
C1023 O1036 1.236 . S
C1024 O1046 1.240 . S
C1024 O1047 1.264 . S
O1025 Mn1020 2.095 . S
O1025 C1034 1.250 . S
O1026 Mn1021 2.121 . S
O1026 C1034 1.258 . S
C1027 N1028 1.326 . S
C1027 C1031 1.460 . S
C1027 H1033 0.929 . S
N1028 Mn1021 2.257 . S
N1028 C1027 1.326 . S
N1028 C1032 1.362 . S
C1029 C1030 1.258 . S
C1029 C1032 1.431 . S
C1029 C1049 1.449 . S
C1030 C1029 1.258 . S
C1030 C1031 1.477 . S
C1030 H1050 0.931 . S
C1031 C1027 1.460 . S
C1031 C1030 1.477 . S
C1031 H1051 0.930 . S
C1032 N1028 1.362 . S
C1032 C1029 1.431 . S
C1032 C1042 1.476 . S
H1033 C1027 0.929 . S
C1034 O1025 1.250 . S
C1034 O1026 1.258 . S
O1035 Mn1020 2.162 . S
O1035 C1023 1.281 . S
O1036 Mn1020 2.297 . S
O1036 C1023 1.236 . S
N1037 Mn1021 2.282 . S
N1037 C1038 1.328 . S
N1037 C1042 1.318 . S
C1038 N1037 1.328 . S
C1038 C1039 1.457 . S
C1038 H1043 0.929 . S
C1039 C1038 1.457 . S
C1039 C1040 1.291 . S
C1039 H1052 0.931 . S
C1040 C1039 1.291 . S
C1040 C1041 1.373 . S
C1040 H1053 0.929 . S
C1041 C1040 1.373 . S
C1041 C1042 1.396 . S
C1041 C1048 1.403 . S
C1042 C1032 1.476 . S
C1042 N1037 1.318 . S
C1042 C1041 1.396 . S
H1043 C1038 0.929 . S
O1044 Mn1020 2.385 . S
O1044 C1022 1.234 . S
O1045 Mn1020 2.209 . S
O1045 Mn1021 2.215 . S
O1045 C1022 1.283 . S
O1046 Mn1020 2.094 . S
O1046 C1024 1.240 . S
O1047 Mn1021 2.117 . S
O1047 C1024 1.264 . S
C1048 C1041 1.403 . S
C1048 C1049 1.399 . S
C1048 H1054 0.929 . S
C1049 C1029 1.449 . S
C1049 C1048 1.399 . S
C1049 H1055 0.930 . S
H1050 C1030 0.931 . S
H1051 C1031 0.930 . S
H1052 C1039 0.931 . S
H1053 C1040 0.929 . S
H1054 C1048 0.929 . S
H1055 C1049 0.930 . S
C1056 C1057 1.363 . S
C1056 C1062 1.379 . S
C1056 N1064 1.356 . S
C1057 C1056 1.363 . S
C1057 C1063 1.363 . S
C1058 C1059 1.363 . S
C1058 C1063 1.379 . S
C1058 N1065 1.356 . S
C1059 C1058 1.363 . S
C1059 C1062 1.363 . S
N1060 C1062 1.356 . S
N1060 H1072 0.984 . S
N1060 H1073 0.985 . S
N1061 C1063 1.356 . S
N1061 H1066 0.984 . S
N1061 H1067 0.985 . S
C1062 C1056 1.379 . S
C1062 C1059 1.363 . S
C1062 N1060 1.356 . S
C1063 C1057 1.363 . S
C1063 C1058 1.379 . S
C1063 N1061 1.356 . S
N1064 C1056 1.356 . S
N1064 H1070 0.984 . S
N1064 H1071 0.984 . S
N1065 C1058 1.356 . S
N1065 H1068 0.984 . S
N1065 H1069 0.985 . S
H1066 N1061 0.984 . S
H1067 N1061 0.985 . S
H1068 N1065 0.984 . S
H1069 N1065 0.985 . S
H1070 N1064 0.984 . S
H1071 N1064 0.984 . S
H1072 N1060 0.984 . S
H1073 N1060 0.985 . S
C1074 C1075 1.363 . S
C1074 C1080 1.379 . S
C1074 N1082 1.356 . S
C1075 C1074 1.363 . S
C1075 C1081 1.363 . S
C1076 C1077 1.363 . S
C1076 C1081 1.379 . S
C1076 N1083 1.356 . S
C1077 C1076 1.363 . S
C1077 C1080 1.363 . S
N1078 C1080 1.356 . S
N1078 H1090 0.984 . S
N1078 H1091 0.985 . S
N1079 C1081 1.356 . S
N1079 H1084 0.984 . S
N1079 H1085 0.985 . S
C1080 C1074 1.379 . S
C1080 C1077 1.363 . S
C1080 N1078 1.356 . S
C1081 C1075 1.363 . S
C1081 C1076 1.379 . S
C1081 N1079 1.356 . S
N1082 C1074 1.356 . S
N1082 H1088 0.984 . S
N1082 H1089 0.984 . S
N1083 C1076 1.356 . S
N1083 H1086 0.984 . S
N1083 H1087 0.985 . S
H1084 N1079 0.984 . S
H1085 N1079 0.985 . S
H1086 N1083 0.984 . S
H1087 N1083 0.985 . S
H1088 N1082 0.984 . S
H1089 N1082 0.984 . S
H1090 N1078 0.984 . S
H1091 N1078 0.985 . S
C1092 C1093 1.363 . S
C1092 C1098 1.379 . S
C1092 N1100 1.356 . S
C1093 C1092 1.363 . S
C1093 C1099 1.363 . S
C1094 C1095 1.363 . S
C1094 C1099 1.379 . S
C1094 N1101 1.356 . S
C1095 C1094 1.363 . S
C1095 C1098 1.363 . S
N1096 C1098 1.356 . S
N1096 H1108 0.984 . S
N1096 H1109 0.985 . S
N1097 C1099 1.356 . S
N1097 H1102 0.984 . S
N1097 H1103 0.985 . S
C1098 C1092 1.379 . S
C1098 C1095 1.363 . S
C1098 N1096 1.356 . S
C1099 C1093 1.363 . S
C1099 C1094 1.379 . S
C1099 N1097 1.356 . S
N1100 C1092 1.356 . S
N1100 H1106 0.984 . S
N1100 H1107 0.984 . S
N1101 C1094 1.356 . S
N1101 H1104 0.984 . S
N1101 H1105 0.985 . S
H1102 N1097 0.984 . S
H1103 N1097 0.985 . S
H1104 N1101 0.984 . S
H1105 N1101 0.985 . S
H1106 N1100 0.984 . S
H1107 N1100 0.984 . S
H1108 N1096 0.984 . S
H1109 N1096 0.985 . S
C1110 C1111 1.363 . S
C1110 C1116 1.379 . S
C1110 N1118 1.356 . S
C1111 C1110 1.363 . S
C1111 C1117 1.363 1_565 S
C1112 C1113 1.366 1_545 S
C1112 C1117 1.379 . S
C1112 N1119 1.356 . S
C1113 C1112 1.366 1_565 S
C1113 C1116 1.359 . S
N1114 C1116 1.356 . S
N1114 H1126 0.984 . S
N1114 H1127 0.985 . S
N1115 C1117 1.356 . S
N1115 H1120 0.984 . S
N1115 H1121 0.985 . S
C1116 C1110 1.379 . S
C1116 C1113 1.359 . S
C1116 N1114 1.356 . S
C1117 C1111 1.363 1_545 S
C1117 C1112 1.379 . S
C1117 N1115 1.356 . S
N1118 C1110 1.356 . S
N1118 H1124 0.984 . S
N1118 H1125 0.984 . S
N1119 C1112 1.356 . S
N1119 H1122 0.984 . S
N1119 H1123 0.985 . S
H1120 N1115 0.984 . S
H1121 N1115 0.985 . S
H1122 N1119 0.984 . S
H1123 N1119 0.985 . S
H1124 N1118 0.984 . S
H1125 N1118 0.984 . S
H1126 N1114 0.984 . S
H1127 N1114 0.985 . S
C1128 C1129 1.363 . S
C1128 C1134 1.379 . S
C1128 N1136 1.356 . S
C1129 C1128 1.363 . S
C1129 C1135 1.363 . S
C1130 C1131 1.363 . S
C1130 C1135 1.379 . S
C1130 N1137 1.356 . S
C1131 C1130 1.363 . S
C1131 C1134 1.363 . S
N1132 C1134 1.356 . S
N1132 H1144 0.984 . S
N1132 H1145 0.985 . S
N1133 C1135 1.356 . S
N1133 H1138 0.984 . S
N1133 H1139 0.985 . S
C1134 C1128 1.379 . S
C1134 C1131 1.363 . S
C1134 N1132 1.356 . S
C1135 C1129 1.363 . S
C1135 C1130 1.379 . S
C1135 N1133 1.356 . S
N1136 C1128 1.356 . S
N1136 H1142 0.984 . S
N1136 H1143 0.984 . S
N1137 C1130 1.356 . S
N1137 H1140 0.984 . S
N1137 H1141 0.985 . S
H1138 N1133 0.984 . S
H1139 N1133 0.985 . S
H1140 N1137 0.984 . S
H1141 N1137 0.985 . S
H1142 N1136 0.984 . S
H1143 N1136 0.984 . S
H1144 N1132 0.984 . S
H1145 N1132 0.985 . S
C1146 C1147 1.363 . S
C1146 C1152 1.379 . S
C1146 N1154 1.356 . S
C1147 C1146 1.363 . S
C1147 C1153 1.363 . S
C1148 C1149 1.363 . S
C1148 C1153 1.379 . S
C1148 N1155 1.356 . S
C1149 C1148 1.363 . S
C1149 C1152 1.363 . S
N1150 C1152 1.356 . S
N1150 H1162 0.984 . S
N1150 H1163 0.985 . S
N1151 C1153 1.356 . S
N1151 H1156 0.984 . S
N1151 H1157 0.985 . S
C1152 C1146 1.379 . S
C1152 C1149 1.363 . S
C1152 N1150 1.356 . S
C1153 C1147 1.363 . S
C1153 C1148 1.379 . S
C1153 N1151 1.356 . S
N1154 C1146 1.356 . S
N1154 H1160 0.984 . S
N1154 H1161 0.984 . S
N1155 C1148 1.356 . S
N1155 H1158 0.984 . S
N1155 H1159 0.985 . S
H1156 N1151 0.984 . S
H1157 N1151 0.985 . S
H1158 N1155 0.984 . S
H1159 N1155 0.985 . S
H1160 N1154 0.984 . S
H1161 N1154 0.984 . S
H1162 N1150 0.984 . S
H1163 N1150 0.985 . S
C1164 C1165 1.363 . S
C1164 C1170 1.379 . S
C1164 N1172 1.356 . S
C1165 C1164 1.363 . S
C1165 C1171 1.363 . S
C1166 C1167 1.363 . S
C1166 C1171 1.379 . S
C1166 N1173 1.356 . S
C1167 C1166 1.363 . S
C1167 C1170 1.363 . S
N1168 C1170 1.356 . S
N1168 H1180 0.984 . S
N1168 H1181 0.985 . S
N1169 C1171 1.356 . S
N1169 H1174 0.984 . S
N1169 H1175 0.985 . S
C1170 C1164 1.379 . S
C1170 C1167 1.363 . S
C1170 N1168 1.356 . S
C1171 C1165 1.363 . S
C1171 C1166 1.379 . S
C1171 N1169 1.356 . S
N1172 C1164 1.356 . S
N1172 H1178 0.984 . S
N1172 H1179 0.984 . S
N1173 C1166 1.356 . S
N1173 H1176 0.984 . S
N1173 H1177 0.985 . S
H1174 N1169 0.984 . S
H1175 N1169 0.985 . S
H1176 N1173 0.984 . S
H1177 N1173 0.985 . S
H1178 N1172 0.984 . S
H1179 N1172 0.984 . S
H1180 N1168 0.984 . S
H1181 N1168 0.985 . S
C1182 C1183 1.363 . S
C1182 C1188 1.379 . S
C1182 N1190 1.356 . S
C1183 C1182 1.363 . S
C1183 C1189 1.363 1_565 S
C1184 C1185 1.363 1_545 S
C1184 C1189 1.379 . S
C1184 N1191 1.356 . S
C1185 C1184 1.363 1_565 S
C1185 C1188 1.363 . S
N1186 C1188 1.356 . S
N1186 H1198 0.984 . S
N1186 H1199 0.985 . S
N1187 C1189 1.356 . S
N1187 H1192 0.984 . S
N1187 H1193 0.985 . S
C1188 C1182 1.379 . S
C1188 C1185 1.363 . S
C1188 N1186 1.356 . S
C1189 C1183 1.363 1_545 S
C1189 C1184 1.379 . S
C1189 N1187 1.356 . S
N1190 C1182 1.356 . S
N1190 H1196 0.984 . S
N1190 H1197 0.984 . S
N1191 C1184 1.356 . S
N1191 H1194 0.984 . S
N1191 H1195 0.985 . S
H1192 N1187 0.984 . S
H1193 N1187 0.985 . S
H1194 N1191 0.984 . S
H1195 N1191 0.985 . S
H1196 N1190 0.984 . S
H1197 N1190 0.984 . S
H1198 N1186 0.984 . S
H1199 N1186 0.985 . S
C1200 C1201 1.363 . S
C1200 C1206 1.379 . S
C1200 N1208 1.356 . S
C1201 C1200 1.363 . S
C1201 C1207 1.363 . S
C1202 C1203 1.363 . S
C1202 C1207 1.379 . S
C1202 N1209 1.356 . S
C1203 C1202 1.363 . S
C1203 C1206 1.363 . S
N1204 C1206 1.356 . S
N1204 H1216 0.984 . S
N1204 H1217 0.985 . S
N1205 C1207 1.356 . S
N1205 H1210 0.984 . S
N1205 H1211 0.985 . S
C1206 C1200 1.379 . S
C1206 C1203 1.363 . S
C1206 N1204 1.356 . S
C1207 C1201 1.363 . S
C1207 C1202 1.379 . S
C1207 N1205 1.356 . S
N1208 C1200 1.356 . S
N1208 H1214 0.984 . S
N1208 H1215 0.984 . S
N1209 C1202 1.356 . S
N1209 H1212 0.984 . S
N1209 H1213 0.985 . S
H1210 N1205 0.984 . S
H1211 N1205 0.985 . S
H1212 N1209 0.984 . S
H1213 N1209 0.985 . S
H1214 N1208 0.984 . S
H1215 N1208 0.984 . S
H1216 N1204 0.984 . S
H1217 N1204 0.985 . S
C1218 C1219 1.363 . S
C1218 C1224 1.379 . S
C1218 N1226 1.356 . S
C1219 C1218 1.363 . S
C1219 C1225 1.363 . S
C1220 C1221 1.363 . S
C1220 C1225 1.379 . S
C1220 N1227 1.356 . S
C1221 C1220 1.363 . S
C1221 C1224 1.363 . S
N1222 C1224 1.356 . S
N1222 H1234 0.984 . S
N1222 H1235 0.985 . S
N1223 C1225 1.356 . S
N1223 H1228 0.984 . S
N1223 H1229 0.985 . S
C1224 C1218 1.379 . S
C1224 C1221 1.363 . S
C1224 N1222 1.356 . S
C1225 C1219 1.363 . S
C1225 C1220 1.379 . S
C1225 N1223 1.356 . S
N1226 C1218 1.356 . S
N1226 H1232 0.984 . S
N1226 H1233 0.984 . S
N1227 C1220 1.356 . S
N1227 H1230 0.984 . S
N1227 H1231 0.985 . S
H1228 N1223 0.984 . S
H1229 N1223 0.985 . S
H1230 N1227 0.984 . S
H1231 N1227 0.985 . S
H1232 N1226 0.984 . S
H1233 N1226 0.984 . S
H1234 N1222 0.984 . S
H1235 N1222 0.985 . S
C1236 C1237 1.363 . S
C1236 C1242 1.379 . S
C1236 N1244 1.356 . S
C1237 C1236 1.363 . S
C1237 C1243 1.363 . S
C1238 C1239 1.363 . S
C1238 C1243 1.379 . S
C1238 N1245 1.356 . S
C1239 C1238 1.363 . S
C1239 C1242 1.363 . S
N1240 C1242 1.356 . S
N1240 H1252 0.984 . S
N1240 H1253 0.985 . S
N1241 C1243 1.356 . S
N1241 H1246 0.984 . S
N1241 H1247 0.985 . S
C1242 C1236 1.379 . S
C1242 C1239 1.363 . S
C1242 N1240 1.356 . S
C1243 C1237 1.363 . S
C1243 C1238 1.379 . S
C1243 N1241 1.356 . S
N1244 C1236 1.356 . S
N1244 H1250 0.984 . S
N1244 H1251 0.984 . S
N1245 C1238 1.356 . S
N1245 H1248 0.984 . S
N1245 H1249 0.985 . S
H1246 N1241 0.984 . S
H1247 N1241 0.985 . S
H1248 N1245 0.984 . S
H1249 N1245 0.985 . S
H1250 N1244 0.984 . S
H1251 N1244 0.984 . S
H1252 N1240 0.984 . S
H1253 N1240 0.985 . S
C1254 C1255 1.363 . S
C1254 C1260 1.379 . S
C1254 N1262 1.356 . S
C1255 C1254 1.363 . S
C1255 C1261 1.363 . S
C1256 C1257 1.363 . S
C1256 C1261 1.379 . S
C1256 N1263 1.356 . S
C1257 C1256 1.363 . S
C1257 C1260 1.363 . S
N1258 C1260 1.356 . S
N1258 H1270 0.984 . S
N1258 H1271 0.985 . S
N1259 C1261 1.356 . S
N1259 H1264 0.984 . S
N1259 H1265 0.985 . S
C1260 C1254 1.379 . S
C1260 C1257 1.363 . S
C1260 N1258 1.356 . S
C1261 C1255 1.363 . S
C1261 C1256 1.379 . S
C1261 N1259 1.356 . S
N1262 C1254 1.356 . S
N1262 H1268 0.984 . S
N1262 H1269 0.984 . S
N1263 C1256 1.356 . S
N1263 H1266 0.984 . S
N1263 H1267 0.985 . S
H1264 N1259 0.984 . S
H1265 N1259 0.985 . S
H1266 N1263 0.984 . S
H1267 N1263 0.985 . S
H1268 N1262 0.984 . S
H1269 N1262 0.984 . S
H1270 N1258 0.984 . S
H1271 N1258 0.985 . S
C1272 C1273 1.363 . S
C1272 C1278 1.379 . S
C1272 N1280 1.356 . S
C1273 C1272 1.363 . S
C1273 C1279 1.363 . S
C1274 C1275 1.363 . S
C1274 C1279 1.379 . S
C1274 N1281 1.356 . S
C1275 C1274 1.363 . S
C1275 C1278 1.363 . S
N1276 C1278 1.356 . S
N1276 H1288 0.984 . S
N1276 H1289 0.985 . S
N1277 C1279 1.356 . S
N1277 H1282 0.984 . S
N1277 H1283 0.985 . S
C1278 C1272 1.379 . S
C1278 C1275 1.363 . S
C1278 N1276 1.356 . S
C1279 C1273 1.363 . S
C1279 C1274 1.379 . S
C1279 N1277 1.356 . S
N1280 C1272 1.356 . S
N1280 H1286 0.984 . S
N1280 H1287 0.984 . S
N1281 C1274 1.356 . S
N1281 H1284 0.984 . S
N1281 H1285 0.985 . S
H1282 N1277 0.984 . S
H1283 N1277 0.985 . S
H1284 N1281 0.984 . S
H1285 N1281 0.985 . S
H1286 N1280 0.984 . S
H1287 N1280 0.984 . S
H1288 N1276 0.984 . S
H1289 N1276 0.985 . S
C1290 C1291 1.363 . S
C1290 C1296 1.379 . S
C1290 N1298 1.356 1_455 S
C1291 C1290 1.363 . S
C1291 C1297 1.363 . S
C1292 C1293 1.363 . S
C1292 C1297 1.379 . S
C1292 N1299 1.356 . S
C1293 C1292 1.363 . S
C1293 C1296 1.363 . S
N1294 C1296 1.356 1_655 S
N1294 H1306 0.984 . S
N1294 H1307 0.985 . S
N1295 C1297 1.356 . S
N1295 H1300 0.984 . S
N1295 H1301 0.985 . S
C1296 C1290 1.379 . S
C1296 C1293 1.363 . S
C1296 N1294 1.356 1_455 S
C1297 C1291 1.363 . S
C1297 C1292 1.379 . S
C1297 N1295 1.356 . S
N1298 C1290 1.356 1_655 S
N1298 H1304 0.984 . S
N1298 H1305 0.984 1_655 S
N1299 C1292 1.356 . S
N1299 H1302 0.984 . S
N1299 H1303 0.985 . S
H1300 N1295 0.984 . S
H1301 N1295 0.985 . S
H1302 N1299 0.984 . S
H1303 N1299 0.985 . S
H1304 N1298 0.984 . S
H1305 N1298 0.984 1_455 S
H1306 N1294 0.984 . S
H1307 N1294 0.985 . S
C1308 C1309 1.363 . S
C1308 C1314 1.379 . S
C1308 N1316 1.356 . S
C1309 C1308 1.363 . S
C1309 C1315 1.363 . S
C1310 C1311 1.363 . S
C1310 C1315 1.379 . S
C1310 N1317 1.356 . S
C1311 C1310 1.363 . S
C1311 C1314 1.363 . S
N1312 C1314 1.356 . S
N1312 H1324 0.984 . S
N1312 H1325 0.985 . S
N1313 C1315 1.356 . S
N1313 H1318 0.984 . S
N1313 H1319 0.985 . S
C1314 C1308 1.379 . S
C1314 C1311 1.363 . S
C1314 N1312 1.356 . S
C1315 C1309 1.363 . S
C1315 C1310 1.379 . S
C1315 N1313 1.356 . S
N1316 C1308 1.356 . S
N1316 H1322 0.984 . S
N1316 H1323 0.984 . S
N1317 C1310 1.356 . S
N1317 H1320 0.984 . S
N1317 H1321 0.985 . S
H1318 N1313 0.984 . S
H1319 N1313 0.985 . S
H1320 N1317 0.984 . S
H1321 N1317 0.985 . S
H1322 N1316 0.984 . S
H1323 N1316 0.984 . S
H1324 N1312 0.984 . S
H1325 N1312 0.985 . S
C1326 C1327 1.363 1_455 S
C1326 C1332 1.379 . S
C1326 N1334 1.356 . S
C1327 C1326 1.363 1_655 S
C1327 C1333 1.363 . S
C1328 C1329 1.363 . S
C1328 C1333 1.379 . S
C1328 N1335 1.356 . S
C1329 C1328 1.363 . S
C1329 C1332 1.363 1_655 S
N1330 C1332 1.356 . S
N1330 H1342 0.984 . S
N1330 H1343 0.985 . S
N1331 C1333 1.356 . S
N1331 H1336 0.984 . S
N1331 H1337 0.985 . S
C1332 C1326 1.379 . S
C1332 C1329 1.363 1_455 S
C1332 N1330 1.356 . S
C1333 C1327 1.363 . S
C1333 C1328 1.379 . S
C1333 N1331 1.356 . S
N1334 C1326 1.356 . S
N1334 H1340 0.984 . S
N1334 H1341 0.984 . S
N1335 C1328 1.356 . S
N1335 H1338 0.984 . S
N1335 H1339 0.985 . S
H1336 N1331 0.984 . S
H1337 N1331 0.985 . S
H1338 N1335 0.984 . S
H1339 N1335 0.985 . S
H1340 N1334 0.984 . S
H1341 N1334 0.984 . S
H1342 N1330 0.984 . S
H1343 N1330 0.985 . S
C1344 C1345 1.363 . S
C1344 C1350 1.379 . S
C1344 N1352 1.356 . S
C1345 C1344 1.363 . S
C1345 C1351 1.363 . S
C1346 C1347 1.363 . S
C1346 C1351 1.379 . S
C1346 N1353 1.356 . S
C1347 C1346 1.363 . S
C1347 C1350 1.363 . S
N1348 C1350 1.356 . S
N1348 H1360 0.984 1_565 S
N1348 H1361 0.985 . S
N1349 C1351 1.356 . S
N1349 H1354 0.984 . S
N1349 H1355 0.985 . S
C1350 C1344 1.379 . S
C1350 C1347 1.363 . S
C1350 N1348 1.356 . S
C1351 C1345 1.363 . S
C1351 C1346 1.379 . S
C1351 N1349 1.356 . S
N1352 C1344 1.356 . S
N1352 H1358 0.984 . S
N1352 H1359 0.984 . S
N1353 C1346 1.356 . S
N1353 H1356 0.984 . S
N1353 H1357 0.985 . S
H1354 N1349 0.984 . S
H1355 N1349 0.985 . S
H1356 N1353 0.984 . S
H1357 N1353 0.985 . S
H1358 N1352 0.984 . S
H1359 N1352 0.984 . S
H1360 N1348 0.984 1_545 S
H1361 N1348 0.985 . S
C1362 C1363 1.363 . S
C1362 C1368 1.379 . S
C1362 N1370 1.356 . S
C1363 C1362 1.363 . S
C1363 C1369 1.363 . S
C1364 C1365 1.363 . S
C1364 C1369 1.379 . S
C1364 N1371 1.356 . S
C1365 C1364 1.363 . S
C1365 C1368 1.363 . S
N1366 C1368 1.356 . S
N1366 H1378 0.984 . S
N1366 H1379 0.985 . S
N1367 C1369 1.356 . S
N1367 H1372 0.984 . S
N1367 H1373 0.985 . S
C1368 C1362 1.379 . S
C1368 C1365 1.363 . S
C1368 N1366 1.356 . S
C1369 C1363 1.363 . S
C1369 C1364 1.379 . S
C1369 N1367 1.356 . S
N1370 C1362 1.356 . S
N1370 H1376 0.984 . S
N1370 H1377 0.984 . S
N1371 C1364 1.356 . S
N1371 H1374 0.984 . S
N1371 H1375 0.985 . S
H1372 N1367 0.984 . S
H1373 N1367 0.985 . S
H1374 N1371 0.984 . S
H1375 N1371 0.985 . S
H1376 N1370 0.984 . S
H1377 N1370 0.984 . S
H1378 N1366 0.984 . S
H1379 N1366 0.985 . S
C1380 C1381 1.363 . S
C1380 C1386 1.379 . S
C1380 N1388 1.356 . S
C1381 C1380 1.363 . S
C1381 C1387 1.363 1_556 S
C1382 C1383 1.363 . S
C1382 C1387 1.379 . S
C1382 N1389 1.356 . S
C1383 C1382 1.363 . S
C1383 C1386 1.363 1_554 S
N1384 C1386 1.356 . S
N1384 H1396 0.984 . S
N1384 H1397 0.985 . S
N1385 C1387 1.356 . S
N1385 H1390 0.984 . S
N1385 H1391 0.985 . S
C1386 C1380 1.379 . S
C1386 C1383 1.363 1_556 S
C1386 N1384 1.356 . S
C1387 C1381 1.363 1_554 S
C1387 C1382 1.379 . S
C1387 N1385 1.356 . S
N1388 C1380 1.356 . S
N1388 H1394 0.984 . S
N1388 H1395 0.984 . S
N1389 C1382 1.356 . S
N1389 H1392 0.984 . S
N1389 H1393 0.985 . S
H1390 N1385 0.984 . S
H1391 N1385 0.985 . S
H1392 N1389 0.984 . S
H1393 N1389 0.985 . S
H1394 N1388 0.984 . S
H1395 N1388 0.984 . S
H1396 N1384 0.984 . S
H1397 N1384 0.985 . S
C1398 C1399 1.363 . S
C1398 C1404 1.379 . S
C1398 N1406 1.356 . S
C1399 C1398 1.363 . S
C1399 C1405 1.363 . S
C1400 C1401 1.363 . S
C1400 C1405 1.379 . S
C1400 N1407 1.356 . S
C1401 C1400 1.363 . S
C1401 C1404 1.363 . S
N1402 C1404 1.356 . S
N1402 H1414 0.984 . S
N1402 H1415 0.985 . S
N1403 C1405 1.356 . S
N1403 H1408 0.984 . S
N1403 H1409 0.985 . S
C1404 C1398 1.379 . S
C1404 C1401 1.363 . S
C1404 N1402 1.356 . S
C1405 C1399 1.363 . S
C1405 C1400 1.379 . S
C1405 N1403 1.356 . S
N1406 C1398 1.356 . S
N1406 H1412 0.984 . S
N1406 H1413 0.984 . S
N1407 C1400 1.356 . S
N1407 H1410 0.984 . S
N1407 H1411 0.985 . S
H1408 N1403 0.984 . S
H1409 N1403 0.985 . S
H1410 N1407 0.984 . S
H1411 N1407 0.985 . S
H1412 N1406 0.984 . S
H1413 N1406 0.984 . S
H1414 N1402 0.984 . S
H1415 N1402 0.985 . S
C1416 C1417 1.363 . S
C1416 C1422 1.379 . S
C1416 N1424 1.356 . S
C1417 C1416 1.363 . S
C1417 C1423 1.363 . S
C1418 C1419 1.363 . S
C1418 C1423 1.379 . S
C1418 N1425 1.356 . S
C1419 C1418 1.363 . S
C1419 C1422 1.363 . S
N1420 C1422 1.356 . S
N1420 H1432 0.984 . S
N1420 H1433 0.985 . S
N1421 C1423 1.356 . S
N1421 H1426 0.984 . S
N1421 H1427 0.985 . S
C1422 C1416 1.379 . S
C1422 C1419 1.363 . S
C1422 N1420 1.356 . S
C1423 C1417 1.363 . S
C1423 C1418 1.379 . S
C1423 N1421 1.356 . S
N1424 C1416 1.356 . S
N1424 H1430 0.984 . S
N1424 H1431 0.984 . S
N1425 C1418 1.356 . S
N1425 H1428 0.984 . S
N1425 H1429 0.985 . S
H1426 N1421 0.984 . S
H1427 N1421 0.985 . S
H1428 N1425 0.984 . S
H1429 N1425 0.985 . S
H1430 N1424 0.984 . S
H1431 N1424 0.984 . S
H1432 N1420 0.984 . S
H1433 N1420 0.985 . S
C1434 C1435 1.363 . S
C1434 C1440 1.379 . S
C1434 N1442 1.356 . S
C1435 C1434 1.363 . S
C1435 C1441 1.363 . S
C1436 C1437 1.363 . S
C1436 C1441 1.379 . S
C1436 N1443 1.356 . S
C1437 C1436 1.363 . S
C1437 C1440 1.363 . S
N1438 C1440 1.356 . S
N1438 H1450 0.984 . S
N1438 H1451 0.985 . S
N1439 C1441 1.356 . S
N1439 H1444 0.984 . S
N1439 H1445 0.985 . S
C1440 C1434 1.379 . S
C1440 C1437 1.363 . S
C1440 N1438 1.356 . S
C1441 C1435 1.363 . S
C1441 C1436 1.379 . S
C1441 N1439 1.356 . S
N1442 C1434 1.356 . S
N1442 H1448 0.984 . S
N1442 H1449 0.984 . S
N1443 C1436 1.356 . S
N1443 H1446 0.984 . S
N1443 H1447 0.985 . S
H1444 N1439 0.984 . S
H1445 N1439 0.985 . S
H1446 N1443 0.984 . S
H1447 N1443 0.985 . S
H1448 N1442 0.984 . S
H1449 N1442 0.984 . S
H1450 N1438 0.984 . S
H1451 N1438 0.985 . S
C1452 C1453 1.363 . S
C1452 C1458 1.379 . S
C1452 N1460 1.356 . S
C1453 C1452 1.363 . S
C1453 C1459 1.363 . S
C1454 C1455 1.363 . S
C1454 C1459 1.379 . S
C1454 N1461 1.356 . S
C1455 C1454 1.363 . S
C1455 C1458 1.363 . S
N1456 C1458 1.356 . S
N1456 H1468 0.984 . S
N1456 H1469 0.985 . S
N1457 C1459 1.356 . S
N1457 H1462 0.984 . S
N1457 H1463 0.985 . S
C1458 C1452 1.379 . S
C1458 C1455 1.363 . S
C1458 N1456 1.356 . S
C1459 C1453 1.363 . S
C1459 C1454 1.379 . S
C1459 N1457 1.356 . S
N1460 C1452 1.356 . S
N1460 H1466 0.984 . S
N1460 H1467 0.984 . S
N1461 C1454 1.356 . S
N1461 H1464 0.984 . S
N1461 H1465 0.985 . S
H1462 N1457 0.984 . S
H1463 N1457 0.985 . S
H1464 N1461 0.984 . S
H1465 N1461 0.985 . S
H1466 N1460 0.984 . S
H1467 N1460 0.984 . S
H1468 N1456 0.984 . S
H1469 N1456 0.985 . S
C1470 C1471 1.363 . S
C1470 C1476 1.379 . S
C1470 N1478 1.356 . S
C1471 C1470 1.363 . S
C1471 C1477 1.363 . S
C1472 C1473 1.363 . S
C1472 C1477 1.379 . S
C1472 N1479 1.356 . S
C1473 C1472 1.363 . S
C1473 C1476 1.363 . S
N1474 C1476 1.356 . S
N1474 H1486 0.984 . S
N1474 H1487 0.985 . S
N1475 C1477 1.356 . S
N1475 H1480 0.984 . S
N1475 H1481 0.985 . S
C1476 C1470 1.379 . S
C1476 C1473 1.363 . S
C1476 N1474 1.356 . S
C1477 C1471 1.363 . S
C1477 C1472 1.379 . S
C1477 N1475 1.356 . S
N1478 C1470 1.356 . S
N1478 H1484 0.984 . S
N1478 H1485 0.984 . S
N1479 C1472 1.356 . S
N1479 H1482 0.984 . S
N1479 H1483 0.985 . S
H1480 N1475 0.984 . S
H1481 N1475 0.985 . S
H1482 N1479 0.984 . S
H1483 N1479 0.985 . S
H1484 N1478 0.984 . S
H1485 N1478 0.984 . S
H1486 N1474 0.984 . S
H1487 N1474 0.985 . S
C1488 C1489 1.363 . S
C1488 C1494 1.379 . S
C1488 N1496 1.356 . S
C1489 C1488 1.363 . S
C1489 C1495 1.363 . S
C1490 C1491 1.363 . S
C1490 C1495 1.379 . S
C1490 N1497 1.356 . S
C1491 C1490 1.363 . S
C1491 C1494 1.363 . S
N1492 C1494 1.356 . S
N1492 H1504 0.984 . S
N1492 H1505 0.985 . S
N1493 C1495 1.356 . S
N1493 H1498 0.984 . S
N1493 H1499 0.985 . S
C1494 C1488 1.379 . S
C1494 C1491 1.363 . S
C1494 N1492 1.356 . S
C1495 C1489 1.363 . S
C1495 C1490 1.379 . S
C1495 N1493 1.356 . S
N1496 C1488 1.356 . S
N1496 H1502 0.984 . S
N1496 H1503 0.984 . S
N1497 C1490 1.356 . S
N1497 H1500 0.984 . S
N1497 H1501 0.985 . S
H1498 N1493 0.984 . S
H1499 N1493 0.985 . S
H1500 N1497 0.984 . S
H1501 N1497 0.985 . S
H1502 N1496 0.984 . S
H1503 N1496 0.984 . S
H1504 N1492 0.984 . S
H1505 N1492 0.985 . S
C1506 C1507 1.363 . S
C1506 C1512 1.379 . S
C1506 N1514 1.356 . S
C1507 C1506 1.363 . S
C1507 C1513 1.363 1_545 S
C1508 C1509 1.363 1_565 S
C1508 C1513 1.379 . S
C1508 N1515 1.356 . S
C1509 C1508 1.363 1_545 S
C1509 C1512 1.363 . S
N1510 C1512 1.356 . S
N1510 H1522 0.984 . S
N1510 H1523 0.985 . S
N1511 C1513 1.356 . S
N1511 H1516 0.984 . S
N1511 H1517 0.985 . S
C1512 C1506 1.379 . S
C1512 C1509 1.363 . S
C1512 N1510 1.356 . S
C1513 C1507 1.363 1_565 S
C1513 C1508 1.379 . S
C1513 N1511 1.356 . S
N1514 C1506 1.356 . S
N1514 H1520 0.984 . S
N1514 H1521 0.984 . S
N1515 C1508 1.356 . S
N1515 H1518 0.984 . S
N1515 H1519 0.985 . S
H1516 N1511 0.984 . S
H1517 N1511 0.985 . S
H1518 N1515 0.984 . S
H1519 N1515 0.985 . S
H1520 N1514 0.984 . S
H1521 N1514 0.984 . S
H1522 N1510 0.984 . S
H1523 N1510 0.985 . S
C1524 C1525 1.363 . S
C1524 C1530 1.379 . S
C1524 N1532 1.356 . S
C1525 C1524 1.363 . S
C1525 C1531 1.363 . S
C1526 C1527 1.363 . S
C1526 C1531 1.379 . S
C1526 N1533 1.356 . S
C1527 C1526 1.363 . S
C1527 C1530 1.363 . S
N1528 C1530 1.356 . S
N1528 H1540 0.984 . S
N1528 H1541 0.985 . S
N1529 C1531 1.356 . S
N1529 H1534 0.984 . S
N1529 H1535 0.985 . S
C1530 C1524 1.379 . S
C1530 C1527 1.363 . S
C1530 N1528 1.356 . S
C1531 C1525 1.363 . S
C1531 C1526 1.379 . S
C1531 N1529 1.356 . S
N1532 C1524 1.356 . S
N1532 H1538 0.984 . S
N1532 H1539 0.984 . S
N1533 C1526 1.356 . S
N1533 H1536 0.984 . S
N1533 H1537 0.985 . S
H1534 N1529 0.984 . S
H1535 N1529 0.985 . S
H1536 N1533 0.984 . S
H1537 N1533 0.985 . S
H1538 N1532 0.984 . S
H1539 N1532 0.984 . S
H1540 N1528 0.984 . S
H1541 N1528 0.985 . S
C1542 C1543 1.363 . S
C1542 C1548 1.379 . S
C1542 N1550 1.356 . S
C1543 C1542 1.363 . S
C1543 C1549 1.363 . S
C1544 C1545 1.363 . S
C1544 C1549 1.379 . S
C1544 N1551 1.356 . S
C1545 C1544 1.363 . S
C1545 C1548 1.363 . S
N1546 C1548 1.356 . S
N1546 H1558 0.984 . S
N1546 H1559 0.985 . S
N1547 C1549 1.356 . S
N1547 H1552 0.984 . S
N1547 H1553 0.985 . S
C1548 C1542 1.379 . S
C1548 C1545 1.363 . S
C1548 N1546 1.356 . S
C1549 C1543 1.363 . S
C1549 C1544 1.379 . S
C1549 N1547 1.356 . S
N1550 C1542 1.356 . S
N1550 H1556 0.984 . S
N1550 H1557 0.984 . S
N1551 C1544 1.356 . S
N1551 H1554 0.984 . S
N1551 H1555 0.985 . S
H1552 N1547 0.984 . S
H1553 N1547 0.985 . S
H1554 N1551 0.984 . S
H1555 N1551 0.985 . S
H1556 N1550 0.984 . S
H1557 N1550 0.984 . S
H1558 N1546 0.984 . S
H1559 N1546 0.985 . S
C1560 C1561 1.363 . S
C1560 C1566 1.379 . S
C1560 N1568 1.356 . S
C1561 C1560 1.363 . S
C1561 C1567 1.363 . S
C1562 C1563 1.363 . S
C1562 C1567 1.379 . S
C1562 N1569 1.356 . S
C1563 C1562 1.363 . S
C1563 C1566 1.363 . S
N1564 C1566 1.356 . S
N1564 H1576 0.984 . S
N1564 H1577 0.985 . S
N1565 C1567 1.356 . S
N1565 H1570 0.984 . S
N1565 H1571 0.985 . S
C1566 C1560 1.379 . S
C1566 C1563 1.363 . S
C1566 N1564 1.356 . S
C1567 C1561 1.363 . S
C1567 C1562 1.379 . S
C1567 N1565 1.356 . S
N1568 C1560 1.356 . S
N1568 H1574 0.984 . S
N1568 H1575 0.984 . S
N1569 C1562 1.356 . S
N1569 H1572 0.984 . S
N1569 H1573 0.985 . S
H1570 N1565 0.984 . S
H1571 N1565 0.985 . S
H1572 N1569 0.984 . S
H1573 N1569 0.985 . S
H1574 N1568 0.984 . S
H1575 N1568 0.984 . S
H1576 N1564 0.984 . S
H1577 N1564 0.985 . S
C1578 C1579 1.363 . S
C1578 C1584 1.379 . S
C1578 N1586 1.356 . S
C1579 C1578 1.363 . S
C1579 C1585 1.363 1_545 S
C1580 C1581 1.363 1_565 S
C1580 C1585 1.379 . S
C1580 N1587 1.356 . S
C1581 C1580 1.363 1_545 S
C1581 C1584 1.363 . S
N1582 C1584 1.356 . S
N1582 H1594 0.984 . S
N1582 H1595 0.985 . S
N1583 C1585 1.356 . S
N1583 H1588 0.984 . S
N1583 H1589 0.985 . S
C1584 C1578 1.379 . S
C1584 C1581 1.363 . S
C1584 N1582 1.356 . S
C1585 C1579 1.363 1_565 S
C1585 C1580 1.379 . S
C1585 N1583 1.356 . S
N1586 C1578 1.356 . S
N1586 H1592 0.984 . S
N1586 H1593 0.984 . S
N1587 C1580 1.356 . S
N1587 H1590 0.984 . S
N1587 H1591 0.985 . S
H1588 N1583 0.984 . S
H1589 N1583 0.985 . S
H1590 N1587 0.984 . S
H1591 N1587 0.985 . S
H1592 N1586 0.984 . S
H1593 N1586 0.984 . S
H1594 N1582 0.984 . S
H1595 N1582 0.985 . S
C1596 C1597 1.363 . S
C1596 C1602 1.379 . S
C1596 N1604 1.356 . S
C1597 C1596 1.363 . S
C1597 C1603 1.363 . S
C1598 C1599 1.363 . S
C1598 C1603 1.379 . S
C1598 N1605 1.356 . S
C1599 C1598 1.363 . S
C1599 C1602 1.363 . S
N1600 C1602 1.356 . S
N1600 H1612 0.984 . S
N1600 H1613 0.985 . S
N1601 C1603 1.356 . S
N1601 H1606 0.984 . S
N1601 H1607 0.985 . S
C1602 C1596 1.379 . S
C1602 C1599 1.363 . S
C1602 N1600 1.356 . S
C1603 C1597 1.363 . S
C1603 C1598 1.379 . S
C1603 N1601 1.356 . S
N1604 C1596 1.356 . S
N1604 H1610 0.984 . S
N1604 H1611 0.984 . S
N1605 C1598 1.356 . S
N1605 H1608 0.984 . S
N1605 H1609 0.985 . S
H1606 N1601 0.984 . S
H1607 N1601 0.985 . S
H1608 N1605 0.984 . S
H1609 N1605 0.985 . S
H1610 N1604 0.984 . S
H1611 N1604 0.984 . S
H1612 N1600 0.984 . S
H1613 N1600 0.985 . S
C1614 C1615 1.363 . S
C1614 C1620 1.379 . S
C1614 N1622 1.356 . S
C1615 C1614 1.363 . S
C1615 C1621 1.363 . S
C1616 C1617 1.363 . S
C1616 C1621 1.379 . S
C1616 N1623 1.356 . S
C1617 C1616 1.363 . S
C1617 C1620 1.363 . S
N1618 C1620 1.356 . S
N1618 H1630 0.984 . S
N1618 H1631 0.985 . S
N1619 C1621 1.356 . S
N1619 H1624 0.984 . S
N1619 H1625 0.985 . S
C1620 C1614 1.379 . S
C1620 C1617 1.363 . S
C1620 N1618 1.356 . S
C1621 C1615 1.363 . S
C1621 C1616 1.379 . S
C1621 N1619 1.356 . S
N1622 C1614 1.356 . S
N1622 H1628 0.984 . S
N1622 H1629 0.984 . S
N1623 C1616 1.356 . S
N1623 H1626 0.984 . S
N1623 H1627 0.985 . S
H1624 N1619 0.984 . S
H1625 N1619 0.985 . S
H1626 N1623 0.984 . S
H1627 N1623 0.985 . S
H1628 N1622 0.984 . S
H1629 N1622 0.984 . S
H1630 N1618 0.984 . S
H1631 N1618 0.985 . S
C1632 C1633 1.363 . S
C1632 C1638 1.379 . S
C1632 N1640 1.356 . S
C1633 C1632 1.363 . S
C1633 C1639 1.363 . S
C1634 C1635 1.363 . S
C1634 C1639 1.379 . S
C1634 N1641 1.356 . S
C1635 C1634 1.363 . S
C1635 C1638 1.363 . S
N1636 C1638 1.356 . S
N1636 H1648 0.984 . S
N1636 H1649 0.985 . S
N1637 C1639 1.356 . S
N1637 H1642 0.984 . S
N1637 H1643 0.985 . S
C1638 C1632 1.379 . S
C1638 C1635 1.363 . S
C1638 N1636 1.356 . S
C1639 C1633 1.363 . S
C1639 C1634 1.379 . S
C1639 N1637 1.356 . S
N1640 C1632 1.356 . S
N1640 H1646 0.984 . S
N1640 H1647 0.984 . S
N1641 C1634 1.356 . S
N1641 H1644 0.984 . S
N1641 H1645 0.985 . S
H1642 N1637 0.984 . S
H1643 N1637 0.985 . S
H1644 N1641 0.984 . S
H1645 N1641 0.985 . S
H1646 N1640 0.984 . S
H1647 N1640 0.984 . S
H1648 N1636 0.984 . S
H1649 N1636 0.985 . S
C1650 C1651 1.363 . S
C1650 C1656 1.379 . S
C1650 N1658 1.356 . S
C1651 C1650 1.363 . S
C1651 C1657 1.363 1_655 S
C1652 C1653 1.363 1_455 S
C1652 C1657 1.379 . S
C1652 N1659 1.356 . S
C1653 C1652 1.363 1_655 S
C1653 C1656 1.363 . S
N1654 C1656 1.356 . S
N1654 H1666 0.984 . S
N1654 H1667 0.985 . S
N1655 C1657 1.356 . S
N1655 H1660 0.984 . S
N1655 H1661 0.985 . S
C1656 C1650 1.379 . S
C1656 C1653 1.363 . S
C1656 N1654 1.356 . S
C1657 C1651 1.363 1_455 S
C1657 C1652 1.379 . S
C1657 N1655 1.356 . S
N1658 C1650 1.356 . S
N1658 H1664 0.984 . S
N1658 H1665 0.984 . S
N1659 C1652 1.356 . S
N1659 H1662 0.984 . S
N1659 H1663 0.985 . S
H1660 N1655 0.984 . S
H1661 N1655 0.985 . S
H1662 N1659 0.984 . S
H1663 N1659 0.985 . S
H1664 N1658 0.984 . S
H1665 N1658 0.984 . S
H1666 N1654 0.984 . S
H1667 N1654 0.985 . S
C1668 C1669 1.363 . S
C1668 C1674 1.379 . S
C1668 N1676 1.356 . S
C1669 C1668 1.363 . S
C1669 C1675 1.363 . S
C1670 C1671 1.363 . S
C1670 C1675 1.379 . S
C1670 N1677 1.356 . S
C1671 C1670 1.363 . S
C1671 C1674 1.363 . S
N1672 C1674 1.356 . S
N1672 H1684 0.984 . S
N1672 H1685 0.985 . S
N1673 C1675 1.356 . S
N1673 H1678 0.984 . S
N1673 H1679 0.985 . S
C1674 C1668 1.379 . S
C1674 C1671 1.363 . S
C1674 N1672 1.356 . S
C1675 C1669 1.363 . S
C1675 C1670 1.379 . S
C1675 N1673 1.356 . S
N1676 C1668 1.356 . S
N1676 H1682 0.984 . S
N1676 H1683 0.984 . S
N1677 C1670 1.356 . S
N1677 H1680 0.984 . S
N1677 H1681 0.985 . S
H1678 N1673 0.984 . S
H1679 N1673 0.985 . S
H1680 N1677 0.984 . S
H1681 N1677 0.985 . S
H1682 N1676 0.984 . S
H1683 N1676 0.984 . S
H1684 N1672 0.984 . S
H1685 N1672 0.985 . S
C1686 C1687 1.363 1_655 S
C1686 C1692 1.379 . S
C1686 N1694 1.356 . S
C1687 C1686 1.363 1_455 S
C1687 C1693 1.363 . S
C1688 C1689 1.363 . S
C1688 C1693 1.379 . S
C1688 N1695 1.356 . S
C1689 C1688 1.363 . S
C1689 C1692 1.363 1_455 S
N1690 C1692 1.356 . S
N1690 H1702 0.984 . S
N1690 H1703 0.985 . S
N1691 C1693 1.356 . S
N1691 H1696 0.984 . S
N1691 H1697 0.985 . S
C1692 C1686 1.379 . S
C1692 C1689 1.363 1_655 S
C1692 N1690 1.356 . S
C1693 C1687 1.363 . S
C1693 C1688 1.379 . S
C1693 N1691 1.356 . S
N1694 C1686 1.356 . S
N1694 H1700 0.984 . S
N1694 H1701 0.984 . S
N1695 C1688 1.356 . S
N1695 H1698 0.984 . S
N1695 H1699 0.985 . S
H1696 N1691 0.984 . S
H1697 N1691 0.985 . S
H1698 N1695 0.984 . S
H1699 N1695 0.985 . S
H1700 N1694 0.984 . S
H1701 N1694 0.984 . S
H1702 N1690 0.984 . S
H1703 N1690 0.985 . S
C1704 C1705 1.363 . S
C1704 C1710 1.379 . S
C1704 N1712 1.356 . S
C1705 C1704 1.363 . S
C1705 C1711 1.363 . S
C1706 C1707 1.363 . S
C1706 C1711 1.379 . S
C1706 N1713 1.356 . S
C1707 C1706 1.363 . S
C1707 C1710 1.363 . S
N1708 C1710 1.356 . S
N1708 H1720 0.984 . S
N1708 H1721 0.985 . S
N1709 C1711 1.356 . S
N1709 H1714 0.984 . S
N1709 H1715 0.985 . S
C1710 C1704 1.379 . S
C1710 C1707 1.363 . S
C1710 N1708 1.356 . S
C1711 C1705 1.363 . S
C1711 C1706 1.379 . S
C1711 N1709 1.356 . S
N1712 C1704 1.356 . S
N1712 H1718 0.984 . S
N1712 H1719 0.984 . S
N1713 C1706 1.356 . S
N1713 H1716 0.984 . S
N1713 H1717 0.985 . S
H1714 N1709 0.984 . S
H1715 N1709 0.985 . S
H1716 N1713 0.984 . S
H1717 N1713 0.985 . S
H1718 N1712 0.984 . S
H1719 N1712 0.984 . S
H1720 N1708 0.984 . S
H1721 N1708 0.985 . S
C1722 C1723 1.363 . S
C1722 C1728 1.379 . S
C1722 N1730 1.356 . S
C1723 C1722 1.363 . S
C1723 C1729 1.363 . S
C1724 C1725 1.363 . S
C1724 C1729 1.379 . S
C1724 N1731 1.356 . S
C1725 C1724 1.363 . S
C1725 C1728 1.363 . S
N1726 C1728 1.356 . S
N1726 H1738 0.984 . S
N1726 H1739 0.985 . S
N1727 C1729 1.356 . S
N1727 H1732 0.984 . S
N1727 H1733 0.985 . S
C1728 C1722 1.379 . S
C1728 C1725 1.363 . S
C1728 N1726 1.356 . S
C1729 C1723 1.363 . S
C1729 C1724 1.379 . S
C1729 N1727 1.356 . S
N1730 C1722 1.356 . S
N1730 H1736 0.984 . S
N1730 H1737 0.984 . S
N1731 C1724 1.356 . S
N1731 H1734 0.984 . S
N1731 H1735 0.985 . S
H1732 N1727 0.984 . S
H1733 N1727 0.985 . S
H1734 N1731 0.984 . S
H1735 N1731 0.985 . S
H1736 N1730 0.984 . S
H1737 N1730 0.984 . S
H1738 N1726 0.984 . S
H1739 N1726 0.985 . S
C1740 C1741 1.363 . S
C1740 C1746 1.379 . S
C1740 N1748 1.356 . S
C1741 C1740 1.363 . S
C1741 C1747 1.363 . S
C1742 C1743 1.363 . S
C1742 C1747 1.379 . S
C1742 N1749 1.356 . S
C1743 C1742 1.363 . S
C1743 C1746 1.363 . S
N1744 C1746 1.356 . S
N1744 H1756 0.984 . S
N1744 H1757 0.985 . S
N1745 C1747 1.356 . S
N1745 H1750 0.984 . S
N1745 H1751 0.985 . S
C1746 C1740 1.379 . S
C1746 C1743 1.363 . S
C1746 N1744 1.356 . S
C1747 C1741 1.363 . S
C1747 C1742 1.379 . S
C1747 N1745 1.356 . S
N1748 C1740 1.356 . S
N1748 H1754 0.984 . S
N1748 H1755 0.984 . S
N1749 C1742 1.356 . S
N1749 H1752 0.984 . S
N1749 H1753 0.985 . S
H1750 N1745 0.984 . S
H1751 N1745 0.985 . S
H1752 N1749 0.984 . S
H1753 N1749 0.985 . S
H1754 N1748 0.984 . S
H1755 N1748 0.984 . S
H1756 N1744 0.984 . S
H1757 N1744 0.985 . S
C1758 C1759 1.363 . S
C1758 C1764 1.379 . S
C1758 N1766 1.356 . S
C1759 C1758 1.363 . S
C1759 C1765 1.363 . S
C1760 C1761 1.363 . S
C1760 C1765 1.379 . S
C1760 N1767 1.356 . S
C1761 C1760 1.363 . S
C1761 C1764 1.363 . S
N1762 C1764 1.356 . S
N1762 H1774 0.984 . S
N1762 H1775 0.985 . S
N1763 C1765 1.356 . S
N1763 H1768 0.984 . S
N1763 H1769 0.985 . S
C1764 C1758 1.379 . S
C1764 C1761 1.363 . S
C1764 N1762 1.356 . S
C1765 C1759 1.363 . S
C1765 C1760 1.379 . S
C1765 N1763 1.356 . S
N1766 C1758 1.356 . S
N1766 H1772 0.984 . S
N1766 H1773 0.984 . S
N1767 C1760 1.356 . S
N1767 H1770 0.984 . S
N1767 H1771 0.985 . S
H1768 N1763 0.984 . S
H1769 N1763 0.985 . S
H1770 N1767 0.984 . S
H1771 N1767 0.985 . S
H1772 N1766 0.984 . S
H1773 N1766 0.984 . S
H1774 N1762 0.984 . S
H1775 N1762 0.985 . S
C1776 C1777 1.363 . S
C1776 C1782 1.379 . S
C1776 N1784 1.356 . S
C1777 C1776 1.363 . S
C1777 C1783 1.363 . S
C1778 C1779 1.363 . S
C1778 C1783 1.379 . S
C1778 N1785 1.356 . S
C1779 C1778 1.363 . S
C1779 C1782 1.363 . S
N1780 C1782 1.356 . S
N1780 H1792 0.984 . S
N1780 H1793 0.985 . S
N1781 C1783 1.356 . S
N1781 H1786 0.984 . S
N1781 H1787 0.985 . S
C1782 C1776 1.379 . S
C1782 C1779 1.363 . S
C1782 N1780 1.356 . S
C1783 C1777 1.363 . S
C1783 C1778 1.379 . S
C1783 N1781 1.356 . S
N1784 C1776 1.356 . S
N1784 H1790 0.984 . S
N1784 H1791 0.984 . S
N1785 C1778 1.356 . S
N1785 H1788 0.984 . S
N1785 H1789 0.985 . S
H1786 N1781 0.984 . S
H1787 N1781 0.985 . S
H1788 N1785 0.984 . S
H1789 N1785 0.985 . S
H1790 N1784 0.984 . S
H1791 N1784 0.984 . S
H1792 N1780 0.984 . S
H1793 N1780 0.985 . S
C1794 C1795 1.363 . S
C1794 C1800 1.379 . S
C1794 N1802 1.356 . S
C1795 C1794 1.363 . S
C1795 C1801 1.363 . S
C1796 C1797 1.363 . S
C1796 C1801 1.379 . S
C1796 N1803 1.356 . S
C1797 C1796 1.363 . S
C1797 C1800 1.363 . S
N1798 C1800 1.356 . S
N1798 H1810 0.984 . S
N1798 H1811 0.985 . S
N1799 C1801 1.356 . S
N1799 H1804 0.984 . S
N1799 H1805 0.985 . S
C1800 C1794 1.379 . S
C1800 C1797 1.363 . S
C1800 N1798 1.356 . S
C1801 C1795 1.363 . S
C1801 C1796 1.379 . S
C1801 N1799 1.356 . S
N1802 C1794 1.356 . S
N1802 H1808 0.984 . S
N1802 H1809 0.984 . S
N1803 C1796 1.356 . S
N1803 H1806 0.984 . S
N1803 H1807 0.985 . S
H1804 N1799 0.984 . S
H1805 N1799 0.985 . S
H1806 N1803 0.984 . S
H1807 N1803 0.985 . S
H1808 N1802 0.984 . S
H1809 N1802 0.984 . S
H1810 N1798 0.984 . S
H1811 N1798 0.985 . S
C1812 C1813 1.363 . S
C1812 C1818 1.379 . S
C1812 N1820 1.356 . S
C1813 C1812 1.363 . S
C1813 C1819 1.363 . S
C1814 C1815 1.363 . S
C1814 C1819 1.379 . S
C1814 N1821 1.356 . S
C1815 C1814 1.363 . S
C1815 C1818 1.363 . S
N1816 C1818 1.356 . S
N1816 H1828 0.984 . S
N1816 H1829 0.985 . S
N1817 C1819 1.356 . S
N1817 H1822 0.984 . S
N1817 H1823 0.985 . S
C1818 C1812 1.379 . S
C1818 C1815 1.363 . S
C1818 N1816 1.356 . S
C1819 C1813 1.363 . S
C1819 C1814 1.379 . S
C1819 N1817 1.356 . S
N1820 C1812 1.356 . S
N1820 H1826 0.984 . S
N1820 H1827 0.984 . S
N1821 C1814 1.356 . S
N1821 H1824 0.984 . S
N1821 H1825 0.985 . S
H1822 N1817 0.984 . S
H1823 N1817 0.985 . S
H1824 N1821 0.984 . S
H1825 N1821 0.985 . S
H1826 N1820 0.984 . S
H1827 N1820 0.984 . S
H1828 N1816 0.984 . S
H1829 N1816 0.985 . S
C1830 C1831 1.363 . S
C1830 C1836 1.379 . S
C1830 N1838 1.356 . S
C1831 C1830 1.363 . S
C1831 C1837 1.363 . S
C1832 C1833 1.363 . S
C1832 C1837 1.379 . S
C1832 N1839 1.356 . S
C1833 C1832 1.363 . S
C1833 C1836 1.363 . S
N1834 C1836 1.356 . S
N1834 H1846 0.984 . S
N1834 H1847 0.985 . S
N1835 C1837 1.356 . S
N1835 H1840 0.984 . S
N1835 H1841 0.985 . S
C1836 C1830 1.379 . S
C1836 C1833 1.363 . S
C1836 N1834 1.356 . S
C1837 C1831 1.363 . S
C1837 C1832 1.379 . S
C1837 N1835 1.356 . S
N1838 C1830 1.356 . S
N1838 H1844 0.984 . S
N1838 H1845 0.984 . S
N1839 C1832 1.356 . S
N1839 H1842 0.984 . S
N1839 H1843 0.985 . S
H1840 N1835 0.984 . S
H1841 N1835 0.985 . S
H1842 N1839 0.984 . S
H1843 N1839 0.985 . S
H1844 N1838 0.984 . S
H1845 N1838 0.984 . S
H1846 N1834 0.984 . S
H1847 N1834 0.985 . S
C1848 C1849 1.363 . S
C1848 C1854 1.379 . S
C1848 N1856 1.356 . S
C1849 C1848 1.363 . S
C1849 C1855 1.363 1_556 S
C1850 C1851 1.363 1_554 S
C1850 C1855 1.379 . S
C1850 N1857 1.356 . S
C1851 C1850 1.363 1_556 S
C1851 C1854 1.363 . S
N1852 C1854 1.356 . S
N1852 H1864 0.984 . S
N1852 H1865 0.985 . S
N1853 C1855 1.356 . S
N1853 H1858 0.984 . S
N1853 H1859 0.985 . S
C1854 C1848 1.379 . S
C1854 C1851 1.363 . S
C1854 N1852 1.356 . S
C1855 C1849 1.363 1_554 S
C1855 C1850 1.379 . S
C1855 N1853 1.356 . S
N1856 C1848 1.356 . S
N1856 H1862 0.984 . S
N1856 H1863 0.984 . S
N1857 C1850 1.356 . S
N1857 H1860 0.984 . S
N1857 H1861 0.985 . S
H1858 N1853 0.984 . S
H1859 N1853 0.985 . S
H1860 N1857 0.984 . S
H1861 N1857 0.985 . S
H1862 N1856 0.984 . S
H1863 N1856 0.984 . S
H1864 N1852 0.984 . S
H1865 N1852 0.985 . S
C1866 C1867 1.363 . S
C1866 C1872 1.379 . S
C1866 N1874 1.356 . S
C1867 C1866 1.363 . S
C1867 C1873 1.363 . S
C1868 C1869 1.363 . S
C1868 C1873 1.379 . S
C1868 N1875 1.356 . S
C1869 C1868 1.363 . S
C1869 C1872 1.363 . S
N1870 C1872 1.356 . S
N1870 H1882 0.984 . S
N1870 H1883 0.985 . S
N1871 C1873 1.356 . S
N1871 H1876 0.984 . S
N1871 H1877 0.985 . S
C1872 C1866 1.379 . S
C1872 C1869 1.363 . S
C1872 N1870 1.356 . S
C1873 C1867 1.363 . S
C1873 C1868 1.379 . S
C1873 N1871 1.356 . S
N1874 C1866 1.356 . S
N1874 H1880 0.984 . S
N1874 H1881 0.984 . S
N1875 C1868 1.356 . S
N1875 H1878 0.984 . S
N1875 H1879 0.985 . S
H1876 N1871 0.984 . S
H1877 N1871 0.985 . S
H1878 N1875 0.984 . S
H1879 N1875 0.985 . S
H1880 N1874 0.984 . S
H1881 N1874 0.984 . S
H1882 N1870 0.984 . S
H1883 N1870 0.985 . S
C1884 C1885 1.363 . S
C1884 C1890 1.379 . S
C1884 N1892 1.356 . S
C1885 C1884 1.363 . S
C1885 C1891 1.363 1_554 S
C1886 C1887 1.363 1_556 S
C1886 C1891 1.379 . S
C1886 N1893 1.356 . S
C1887 C1886 1.363 1_554 S
C1887 C1890 1.363 . S
N1888 C1890 1.356 . S
N1888 H1900 0.984 . S
N1888 H1901 0.985 . S
N1889 C1891 1.356 . S
N1889 H1894 0.984 . S
N1889 H1895 0.985 . S
C1890 C1884 1.379 . S
C1890 C1887 1.363 . S
C1890 N1888 1.356 . S
C1891 C1885 1.363 1_556 S
C1891 C1886 1.379 . S
C1891 N1889 1.356 . S
N1892 C1884 1.356 . S
N1892 H1898 0.984 . S
N1892 H1899 0.984 . S
N1893 C1886 1.356 . S
N1893 H1896 0.984 . S
N1893 H1897 0.985 . S
H1894 N1889 0.984 . S
H1895 N1889 0.985 . S
H1896 N1893 0.984 . S
H1897 N1893 0.985 . S
H1898 N1892 0.984 . S
H1899 N1892 0.984 . S
H1900 N1888 0.984 . S
H1901 N1888 0.985 . S
C1902 C1903 1.363 . S
C1902 C1908 1.379 . S
C1902 N1910 1.356 . S
C1903 C1902 1.363 . S
C1903 C1909 1.363 1_554 S
C1904 C1905 1.363 1_556 S
C1904 C1909 1.379 . S
C1904 N1911 1.356 . S
C1905 C1904 1.363 1_554 S
C1905 C1908 1.363 . S
N1906 C1908 1.356 . S
N1906 H1918 0.984 . S
N1906 H1919 0.985 . S
N1907 C1909 1.356 . S
N1907 H1912 0.984 . S
N1907 H1913 0.985 . S
C1908 C1902 1.379 . S
C1908 C1905 1.363 . S
C1908 N1906 1.356 . S
C1909 C1903 1.363 1_556 S
C1909 C1904 1.379 . S
C1909 N1907 1.356 . S
N1910 C1902 1.356 . S
N1910 H1916 0.984 . S
N1910 H1917 0.984 . S
N1911 C1904 1.356 . S
N1911 H1914 0.984 . S
N1911 H1915 0.985 . S
H1912 N1907 0.984 . S
H1913 N1907 0.985 . S
H1914 N1911 0.984 . S
H1915 N1911 0.985 . S
H1916 N1910 0.984 . S
H1917 N1910 0.984 . S
H1918 N1906 0.984 . S
H1919 N1906 0.985 . S
C1059 C626 1.475 . S
C1057 C211 1.485 . S
C1077 C674 1.600 . S
C1075 C255 1.643 . S
C1093 C274 1.467 . S
C1095 C710 1.408 . S
C1113 C746 1.559 . S
C1111 C157 1.606 . S
C1131 C772 1.516 . S
C1129 C391 1.517 . S
C1149 C808 1.568 . S
C1147 C484 1.570 . S
C1165 C450 1.517 . S
C1167 C843 1.538 . S
C1185 C880 1.587 1_565 S
C1183 C352 1.593 . S
C1201 C430 1.477 . S
C1203 C914 1.468 . S
C1221 C962 1.550 . S
C1219 C367 1.594 . S
C1237 C411 1.505 . S
C1239 C915 1.524 . S
C1257 C952 1.594 . S
C1255 C469 1.597 . S
C1273 C294 1.500 . S
C1275 C998 1.437 . S
C1291 C177 1.606 . S
C1293 C987 1.599 . S
C1309 C196 1.527 . S
C1311 C988 1.524 . S
C1327 C235 1.625 . S
C1329 C986 1.619 1_655 S
C1345 C133 1.507 . S
C1347 C734 1.495 . S
C1363 C567 1.481 . S
C1365 C735 1.496 . S
C1383 C638 1.578 . S
C1381 C601 1.623 . S
C1401 C663 1.503 . S
C1399 C328 1.492 . S
C1417 C172 1.607 . S
C1419 C770 1.604 . S
C1437 C878 1.506 . S
C1435 C445 1.519 . S
C1455 C771 1.583 . S
C1453 C372 1.588 . S
C1473 C844 1.588 . S
C1471 C489 1.595 . S
C1491 C842 1.475 . S
C1489 C562 1.485 . S
C1507 C606 1.644 . S
C1509 C890 1.600 . S
C1525 C313 1.467 . S
C1527 C782 1.408 . S
C1545 C818 1.559 . S
C1543 C508 1.606 . S
C1561 C118 1.517 . S
C1563 C700 1.516 . S
C1581 C736 1.568 . S
C1579 C16 1.570 . S
C1599 C627 1.538 . S
C1597 C60 1.517 . S
C1617 C664 1.591 . S
C1615 C79 1.593 . S
C1633 C40 1.477 . S
C1635 C950 1.468 . S
C1651 C94 1.594 . S
C1653 C926 1.550 . S
C1669 C138 1.505 . S
C1671 C951 1.524 . S
C1687 C1 1.597 . S
C1689 C916 1.594 . S
C1707 C1034 1.437 . S
C1705 C333 1.500 . S
C1725 C1023 1.599 . S
C1723 C528 1.606 . S
C1743 C1024 1.524 . S
C1741 C547 1.527 . S
C1759 C586 1.625 . S
C1761 C1022 1.619 . S
C1777 C406 1.507 . S
C1779 C806 1.495 . S
C1797 C807 1.496 . S
C1795 C216 1.481 . S
C1815 C854 1.578 . S
C1813 C250 1.623 . S
C1833 C879 1.503 . S
C1831 C289 1.496 . S
C1849 C523 1.607 . S
C1851 C698 1.608 . S
C1869 C662 1.506 . S
C1867 C55 1.522 . S
C1885 C99 1.588 . S
C1887 C699 1.583 . S
C1905 C628 1.588 . S
C1903 C21 1.595 . S
