# Generated by pormake.
# Topology anh, (6,3)-cn, num edge types: 1
# Building blocks:
#     Node 0, Type 0, BuildingBlock: MIFKUJ_clean_sbu_0, # of connection points: 6
#     Node 1, Type 0, BuildingBlock: MIFKUJ_clean_sbu_0, # of connection points: 6
#     Node 2, Type 0, BuildingBlock: MIFKUJ_clean_sbu_0, # of connection points: 6
#     Node 3, Type 1, BuildingBlock: BELTOD_clean_linker_0, # of connection points: 3
#     Node 4, Type 1, BuildingBlock: BELTOD_clean_linker_0, # of connection points: 3
#     Node 5, Type 1, BuildingBlock: BELTOD_clean_linker_0, # of connection points: 3
#     Node 6, Type 1, BuildingBlock: BELTOD_clean_linker_0, # of connection points: 3
#     Node 7, Type 1, BuildingBlock: BELTOD_clean_linker_0, # of connection points: 3
#     Node 8, Type 1, BuildingBlock: BELTOD_clean_linker_0, # of connection points: 3
#     Edge 9, Type (0, 1), BuildingBlock: XUDNAN_clean_linker_2, # of connection points: 2
#     Edge 10, Type (0, 1), BuildingBlock: XUDNAN_clean_linker_2, # of connection points: 2
#     Edge 11, Type (0, 1), BuildingBlock: XUDNAN_clean_linker_2, # of connection points: 2
#     Edge 12, Type (0, 1), BuildingBlock: XUDNAN_clean_linker_2, # of connection points: 2
#     Edge 13, Type (0, 1), BuildingBlock: XUDNAN_clean_linker_2, # of connection points: 2
#     Edge 14, Type (0, 1), BuildingBlock: XUDNAN_clean_linker_2, # of connection points: 2
#     Edge 15, Type (0, 1), BuildingBlock: XUDNAN_clean_linker_2, # of connection points: 2
#     Edge 16, Type (0, 1), BuildingBlock: XUDNAN_clean_linker_2, # of connection points: 2
#     Edge 17, Type (0, 1), BuildingBlock: XUDNAN_clean_linker_2, # of connection points: 2
#     Edge 18, Type (0, 1), BuildingBlock: XUDNAN_clean_linker_2, # of connection points: 2
#     Edge 19, Type (0, 1), BuildingBlock: XUDNAN_clean_linker_2, # of connection points: 2
#     Edge 20, Type (0, 1), BuildingBlock: XUDNAN_clean_linker_2, # of connection points: 2
#     Edge 21, Type (0, 1), BuildingBlock: XUDNAN_clean_linker_2, # of connection points: 2
#     Edge 22, Type (0, 1), BuildingBlock: XUDNAN_clean_linker_2, # of connection points: 2
#     Edge 23, Type (0, 1), BuildingBlock: XUDNAN_clean_linker_2, # of connection points: 2
#     Edge 24, Type (0, 1), BuildingBlock: XUDNAN_clean_linker_2, # of connection points: 2
#     Edge 25, Type (0, 1), BuildingBlock: XUDNAN_clean_linker_2, # of connection points: 2
#     Edge 26, Type (0, 1), BuildingBlock: XUDNAN_clean_linker_2, # of connection points: 2
# Relax obj value: 0.123
# Max RMSD: 0.178
# Mean RMSD: 0.136
data_MOF--net-anh--node1-MIFKUJ_clean_sbu_0--node2-BELTOD_clean_linker_0--edge1-XUDNAN_clean_linker_2
_symmetry_space_group_name_H-M    P1
_symmetry_Int_Tables_number       1
_symmetry_cell_setting            triclinic
loop_
_symmetry_equiv_pos_as_xyz
'x, y, z'
_cell_length_a     34.798585
_cell_length_b     34.774237
_cell_length_c     58.155824
_cell_angle_alpha  94.036191
_cell_angle_beta   90.738186
_cell_angle_gamma 120.09017
loop_
_atom_site_label
_atom_site_type_symbol
_atom_site_fract_x
_atom_site_fract_y
_atom_site_fract_z
_atom_type_partial_charge
Zn0 Zn 0.03526 0.59679 0.17614 0.0
Zn1 Zn 0.89532 0.51298 0.17066 0.0
C2 C 0.10347 0.57456 0.1712 0.0
O3 O 0.12209 0.605 0.18876 0.0
C4 C 0.85027 0.56413 0.17298 0.0
O5 O 0.88616 0.59416 0.16375 0.0
O6 O 0.0774 0.66279 0.17549 0.0
O7 O 0.97765 0.57158 0.15968 0.0
O8 O 0.91684 0.53579 0.13883 0.0
C9 C 0.0997 0.67533 0.15763 0.0
O10 O 0.0915 0.64575 0.14015 0.0
O11 O 0.06528 0.5646 0.16304 0.0
C12 C 0.83258 0.4257 0.15157 0.0
O13 O 0.82532 0.44941 0.13734 0.0
O14 O 0.86316 0.44586 0.16748 0.0
O15 O 0.94501 0.53649 0.1972 0.0
O16 O 0.01691 0.57885 0.20788 0.0
O17 O 0.84843 0.52858 0.17856 0.0
C18 C 0.95803 0.56373 0.14017 0.0
C19 C 0.97686 0.55204 0.21275 0.0
Zn20 Zn 0.54435 0.06251 0.49244 0.0
Zn21 Zn 0.55158 0.97444 0.50202 0.0
C22 C 0.63307 0.14026 0.50377 0.0
O23 O 0.61004 0.15763 0.51266 0.0
C24 C 0.46949 0.89444 0.4863 0.0
O25 O 0.49755 0.88765 0.47423 0.0
O26 O 0.52392 0.10601 0.48671 0.0
O27 O 0.52616 0.02035 0.4634 0.0
O28 O 0.57456 0.9999 0.47207 0.0
C29 C 0.54111 0.13263 0.47111 0.0
O30 O 0.57012 0.1294 0.45808 0.0
O31 O 0.6125 0.09969 0.49524 0.0
C32 C 0.56543 0.90556 0.51931 0.0
O33 O 0.53085 0.89689 0.53147 0.0
O34 O 0.58006 0.93747 0.50643 0.0
O35 O 0.5676 0.01625 0.53071 0.0
O36 O 0.51978 0.03813 0.523 0.0
O37 O 0.4844 0.93084 0.49909 0.0
C38 C 0.55167 0.00578 0.45709 0.0
C39 C 0.54126 0.02938 0.53756 0.0
Zn40 Zn 0.55617 0.47927 0.8283 0.0
Zn41 Zn 0.46727 0.50115 0.82431 0.0
C42 C 0.52141 0.39752 0.84957 0.0
O43 O 0.54509 0.42574 0.86727 0.0
C44 C 0.484 0.5864 0.81547 0.0
O45 O 0.45857 0.56117 0.79738 0.0
O46 O 0.61714 0.4884 0.83383 0.0
O47 O 0.55054 0.49235 0.79596 0.0
O48 O 0.48545 0.48955 0.79289 0.0
C49 C 0.65439 0.52232 0.83064 0.0
O50 O 0.65566 0.55692 0.82213 0.0
O51 O 0.51763 0.41283 0.83096 0.0
C52 C 0.38294 0.48181 0.83986 0.0
O53 O 0.40436 0.48905 0.8599 0.0
O54 O 0.40226 0.48168 0.82148 0.0
O55 O 0.4766 0.47535 0.85256 0.0
O56 O 0.54928 0.5162 0.85421 0.0
O57 O 0.49542 0.56844 0.83045 0.0
C58 C 0.51922 0.49105 0.78382 0.0
C59 C 0.51323 0.49732 0.86439 0.0
P60 P 0.5551 0.97447 0.20873 0.0
H61 H 0.50628 0.92112 0.16638 0.0
H62 H 0.42789 0.88415 0.15329 0.0
H63 H 0.39919 0.93614 0.21635 0.0
H64 H 0.47762 0.97244 0.22946 0.0
H65 H 0.65034 0.03383 0.20623 0.0
H66 H 0.69453 0.10706 0.19146 0.0
H67 H 0.57392 0.109 0.17549 0.0
H68 H 0.53012 0.03589 0.19002 0.0
H69 H 0.54418 0.908 0.23953 0.0
H70 H 0.57308 0.04434 0.24587 0.0
O71 O 0.57554 0.94324 0.19769 0.0
H72 H 0.54712 0.90838 0.28153 0.0
H73 H 0.57686 0.04532 0.28802 0.0
C74 C 0.49748 0.94853 0.19909 0.0
C75 C 0.48307 0.92445 0.17739 0.0
C76 C 0.43831 0.90374 0.16984 0.0
C77 C 0.40722 0.9071 0.18382 0.0
C78 C 0.42215 0.93237 0.20534 0.0
C79 C 0.46699 0.95311 0.21285 0.0
C80 C 0.58701 0.02916 0.19885 0.0
C81 C 0.63351 0.05012 0.19954 0.0
C82 C 0.6587 0.09202 0.19121 0.0
C83 C 0.63766 0.11359 0.18208 0.0
C84 C 0.59103 0.09283 0.18198 0.0
C85 C 0.56594 0.05105 0.19038 0.0
C86 C 0.55952 0.97644 0.23966 0.0
C87 C 0.55176 0.93822 0.25001 0.0
C88 C 0.55349 0.93853 0.27401 0.0
C89 C 0.56266 0.97704 0.28811 0.0
C90 C 0.56957 0.0151 0.27763 0.0
C91 C 0.56788 0.01474 0.25356 0.0
P92 P 0.67255 0.56395 0.55389 0.0
H93 H 0.70226 0.50166 0.53979 0.0
H94 H 0.666 0.42989 0.51672 0.0
H95 H 0.55468 0.44742 0.50015 0.0
H96 H 0.59146 0.51965 0.52325 0.0
H97 H 0.65186 0.62517 0.58064 0.0
H98 H 0.6398 0.68481 0.57019 0.0
H99 H 0.65864 0.65826 0.49875 0.0
H100 H 0.67146 0.59847 0.50947 0.0
H101 H 0.70926 0.58688 0.60171 0.0
H102 H 0.58132 0.50295 0.56568 0.0
O103 O 0.72757 0.586 0.55694 0.0
H104 H 0.67418 0.56972 0.63863 0.0
H105 H 0.54635 0.48435 0.60232 0.0
C106 C 0.64982 0.51619 0.53299 0.0
C107 C 0.67068 0.49073 0.53065 0.0
C108 C 0.64993 0.44972 0.5174 0.0
C109 C 0.60753 0.4331 0.50657 0.0
C110 C 0.58732 0.45941 0.50832 0.0
C111 C 0.60841 0.50074 0.52139 0.0
C112 C 0.66141 0.6065 0.54572 0.0
C113 C 0.65284 0.63155 0.56266 0.0
C114 C 0.64582 0.66574 0.55665 0.0
C115 C 0.64775 0.67595 0.5336 0.0
C116 C 0.65703 0.65122 0.51667 0.0
C117 C 0.66401 0.61687 0.52273 0.0
C118 C 0.64808 0.54554 0.58093 0.0
C119 C 0.67383 0.56382 0.60173 0.0
C120 C 0.6537 0.55393 0.62284 0.0
C121 C 0.60739 0.5257 0.62344 0.0
C122 C 0.58197 0.50666 0.60249 0.0
C123 C 0.60208 0.51681 0.58146 0.0
P124 P 0.09776 0.64475 0.91016 0.0
H125 H 0.09075 0.60286 0.86358 0.0
H126 H 0.12669 0.56458 0.84598 0.0
H127 H 0.20573 0.59297 0.90965 0.0
H128 H 0.1664 0.6275 0.92765 0.0
H129 H 0.04424 0.68642 0.90296 0.0
H130 H 0.96709 0.65655 0.8891 0.0
H131 H 0.9526 0.52579 0.87604 0.0
H132 H 0.02868 0.55544 0.89115 0.0
H133 H 0.15451 0.70044 0.95059 0.0
H134 H 0.0317 0.57542 0.93699 0.0
O135 O 0.12846 0.6987 0.90592 0.0
H136 H 0.14554 0.69529 0.9921 0.0
H137 H 0.02118 0.57108 0.97809 0.0
C138 C 0.12446 0.61633 0.89723 0.0
C139 C 0.11488 0.59968 0.87396 0.0
C140 C 0.1362 0.57842 0.86375 0.0
C141 C 0.16913 0.57514 0.87633 0.0
C142 C 0.17963 0.59335 0.89952 0.0
C143 C 0.15737 0.61354 0.90986 0.0
C144 C 0.04259 0.62345 0.89744 0.0
C145 C 0.02455 0.65146 0.89681 0.0
C146 C 0.98044 0.63432 0.88878 0.0
C147 C 0.95356 0.58874 0.88132 0.0
C148 C 0.97207 0.56093 0.88185 0.0
C149 C 0.01592 0.57801 0.89014 0.0
C150 C 0.0932 0.63895 0.94069 0.0
C151 C 0.12555 0.67195 0.95653 0.0
C152 C 0.12022 0.66904 0.98027 0.0
C153 C 0.08229 0.63307 0.98855 0.0
C154 C 0.05103 0.59908 0.9725 0.0
C155 C 0.0567 0.60181 0.94884 0.0
P156 P 0.05776 0.47836 0.44151 0.0
H157 H 0.08196 0.53385 0.48668 0.0
H158 H 0.14626 0.60765 0.49944 0.0
H159 H 0.19523 0.61717 0.43092 0.0
H160 H 0.13251 0.5438 0.41879 0.0
H161 H 0.04893 0.4189 0.4767 0.0
H162 H 0.98326 0.36033 0.49334 0.0
H163 H 0.90282 0.40856 0.46351 0.0
H164 H 0.96878 0.46748 0.44722 0.0
H165 H 0.01009 0.41265 0.40249 0.0
H166 H 0.04901 0.54981 0.42214 0.0
O167 O 0.08207 0.44828 0.4352 0.0
H168 H 0.98003 0.41703 0.36505 0.0
H169 H 0.01973 0.55457 0.38463 0.0
C170 C 0.10232 0.53352 0.45174 0.0
C171 C 0.10657 0.55207 0.47449 0.0
C172 C 0.14329 0.59432 0.4817 0.0
C173 C 0.17635 0.61841 0.46628 0.0
C174 C 0.17123 0.59949 0.44347 0.0
C175 C 0.13498 0.55756 0.43641 0.0
C176 C 0.01374 0.44717 0.46039 0.0
C177 C 0.01746 0.41779 0.47434 0.0
C178 C 0.97972 0.38397 0.48365 0.0
C179 C 0.9375 0.379 0.47929 0.0
C180 C 0.93471 0.41127 0.46719 0.0
C181 C 0.97254 0.44509 0.45783 0.0
C182 C 0.033 0.48128 0.41476 0.0
C183 C 0.01213 0.44367 0.39874 0.0
C184 C 0.9947 0.44611 0.37745 0.0
C185 C 0.99803 0.4863 0.37188 0.0
C186 C 0.01739 0.5234 0.38837 0.0
C187 C 0.03425 0.52074 0.40976 0.0
P188 P 0.56393 0.02697 0.78459 0.0
H189 H 0.58916 0.08066 0.82894 0.0
H190 H 0.56682 0.13165 0.8468 0.0
H191 H 0.46417 0.08906 0.79255 0.0
H192 H 0.48664 0.0383 0.77479 0.0
H193 H 0.55899 0.94942 0.7591 0.0
H194 H 0.54452 0.8775 0.77027 0.0
H195 H 0.51661 0.91002 0.83879 0.0
H196 H 0.53148 0.9827 0.82737 0.0
H197 H 0.62023 0.0826 0.74961 0.0
H198 H 0.48673 0.97186 0.75234 0.0
O199 O 0.61875 0.05557 0.79069 0.0
H200 H 0.60747 0.08349 0.70825 0.0
H201 H 0.47347 0.97328 0.71094 0.0
C202 C 0.5403 0.05625 0.80024 0.0
C203 C 0.56131 0.08166 0.82111 0.0
C204 C 0.54838 0.11074 0.83136 0.0
C205 C 0.5141 0.11493 0.82091 0.0
C206 C 0.49125 0.08725 0.80079 0.0
C207 C 0.50405 0.05799 0.79064 0.0
C208 C 0.54493 0.971 0.79216 0.0
C209 C 0.54846 0.94072 0.77634 0.0
C210 C 0.54027 0.89946 0.78279 0.0
C211 C 0.52908 0.88771 0.80541 0.0
C212 C 0.52527 0.91805 0.82125 0.0
C213 C 0.53328 0.95941 0.81469 0.0
C214 C 0.55455 0.02686 0.75399 0.0
C215 C 0.58823 0.05833 0.74131 0.0
C216 C 0.58094 0.05884 0.71768 0.0
C217 C 0.53952 0.02843 0.70643 0.0
C218 C 0.50562 0.99724 0.71923 0.0
C219 C 0.51321 0.99628 0.74281 0.0
P220 P 0.41237 0.43219 0.10256 0.0
H221 H 0.47072 0.39908 0.11434 0.0
H222 H 0.5446 0.43468 0.13329 0.0
H223 H 0.53788 0.55416 0.15044 0.0
H224 H 0.46405 0.51836 0.13056 0.0
H225 H 0.36326 0.46042 0.07353 0.0
H226 H 0.3077 0.48149 0.08176 0.0
H227 H 0.3219 0.46839 0.15427 0.0
H228 H 0.37875 0.44816 0.14591 0.0
H229 H 0.39066 0.3766 0.05866 0.0
H230 H 0.47471 0.515 0.0835 0.0
O231 O 0.38386 0.37706 0.10402 0.0
H232 H 0.41699 0.39389 0.01983 0.0
H233 H 0.50092 0.5326 0.04477 0.0
C234 C 0.46154 0.45569 0.12149 0.0
C235 C 0.4846 0.43248 0.12275 0.0
C236 C 0.52696 0.45298 0.13368 0.0
C237 C 0.54731 0.49736 0.14355 0.0
C238 C 0.52337 0.52009 0.14291 0.0
C239 C 0.48091 0.49949 0.13181 0.0
C240 C 0.37581 0.4535 0.1092 0.0
C241 C 0.35527 0.4629 0.09129 0.0
C242 C 0.32301 0.47449 0.09597 0.0
C243 C 0.31015 0.47631 0.11864 0.0
C244 C 0.33143 0.46773 0.13666 0.0
C245 C 0.36385 0.45613 0.13192 0.0
C246 C 0.43142 0.4444 0.07398 0.0
C247 C 0.41487 0.41066 0.05577 0.0
C248 C 0.42969 0.42064 0.03357 0.0
C249 C 0.46126 0.46455 0.02931 0.0
C250 C 0.47721 0.49833 0.04761 0.0
C251 C 0.46223 0.48833 0.06973 0.0
H252 H 0.18466 0.58654 0.18504 0.0
H253 H 0.07667 0.51577 0.13254 0.0
H254 H 0.11757 0.48245 0.1137 0.0
H255 H 0.27327 0.61197 0.14751 0.0
H256 H 0.30704 0.6041 0.16829 0.0
H257 H 0.26884 0.62166 0.17797 0.0
H258 H 0.23149 0.55437 0.20276 0.0
H259 H 0.26959 0.53657 0.19318 0.0
H260 H 0.21046 0.4987 0.18927 0.0
H261 H 0.17037 0.45767 0.1003 0.0
H262 H 0.23146 0.4425 0.0933 0.0
H263 H 0.30551 0.52999 0.15427 0.0
C264 C 0.16949 0.56388 0.16964 0.0
C265 C 0.12741 0.55364 0.16031 0.0
C266 C 0.10879 0.52394 0.14008 0.0
C267 C 0.13176 0.50488 0.12923 0.0
C268 C 0.17322 0.51578 0.13885 0.0
C269 C 0.19191 0.54449 0.15861 0.0
C270 C 0.23713 0.551 0.16528 0.0
C271 C 0.27372 0.6001 0.16472 0.0
C272 C 0.23715 0.53414 0.18903 0.0
C273 C 0.24103 0.52156 0.14612 0.0
C274 C 0.20379 0.50157 0.13107 0.0
C275 C 0.19975 0.47319 0.11193 0.0
C276 C 0.23476 0.46502 0.10803 0.0
C277 C 0.27337 0.48525 0.12317 0.0
C278 C 0.27629 0.51375 0.14251 0.0
H279 H 0.68357 0.23161 0.51158 0.0
H280 H 0.69275 0.1143 0.49061 0.0
H281 H 0.7728 0.16265 0.48476 0.0
H282 H 0.75228 0.29897 0.47078 0.0
H283 H 0.77938 0.35037 0.48927 0.0
H284 H 0.72413 0.30747 0.49474 0.0
H285 H 0.74818 0.30496 0.53623 0.0
H286 H 0.80367 0.34897 0.53168 0.0
H287 H 0.79494 0.29721 0.54138 0.0
H288 H 0.85097 0.22389 0.47938 0.0
H289 H 0.92051 0.29312 0.47335 0.0
H290 H 0.86065 0.37118 0.49713 0.0
C291 C 0.70253 0.21596 0.50614 0.0
C292 C 0.68182 0.16899 0.50174 0.0
C293 C 0.7078 0.15008 0.4942 0.0
C294 C 0.75335 0.17731 0.49088 0.0
C295 C 0.77255 0.22345 0.49514 0.0
C296 C 0.74799 0.24266 0.50262 0.0
C297 C 0.77615 0.29325 0.50477 0.0
C298 C 0.75685 0.3137 0.48891 0.0
C299 C 0.78102 0.3122 0.53002 0.0
C300 C 0.82003 0.29953 0.49667 0.0
C301 C 0.81742 0.25882 0.4916 0.0
C302 C 0.85346 0.25593 0.4835 0.0
C303 C 0.89301 0.29557 0.48028 0.0
C304 C 0.89637 0.33779 0.48494 0.0
C305 C 0.85925 0.33954 0.4934 0.0
H306 H 0.46445 0.63254 0.78582 0.0
H307 H 0.53028 0.64785 0.85252 0.0
H308 H 0.54693 0.72615 0.85806 0.0
H309 H 0.5398 0.74169 0.76918 0.0
H310 H 0.49672 0.74733 0.75503 0.0
H311 H 0.49015 0.69286 0.75666 0.0
H312 H 0.41543 0.66694 0.77611 0.0
H313 H 0.4219 0.72143 0.77466 0.0
H314 H 0.41408 0.69782 0.80201 0.0
H315 H 0.55593 0.80345 0.85602 0.0
H316 H 0.5598 0.87315 0.84583 0.0
H317 H 0.48696 0.80551 0.78069 0.0
C318 C 0.4825 0.65226 0.80161 0.0
C319 C 0.4961 0.63398 0.81874 0.0
C320 C 0.51963 0.66112 0.83912 0.0
C321 C 0.52908 0.70558 0.84244 0.0
C322 C 0.51478 0.72236 0.82524 0.0
C323 C 0.49216 0.69647 0.80518 0.0
C324 C 0.48071 0.72222 0.78918 0.0
C325 C 0.5032 0.72627 0.76616 0.0
C326 C 0.43002 0.70082 0.78527 0.0
C327 C 0.50065 0.76687 0.80324 0.0
C328 C 0.51995 0.76635 0.82406 0.0
C329 C 0.54079 0.8041 0.83979 0.0
C330 C 0.54252 0.84348 0.83393 0.0
C331 C 0.52369 0.84493 0.81245 0.0
C332 C 0.50206 0.80575 0.79714 0.0
H333 H 0.76708 0.50141 0.18427 0.0
H334 H 0.84136 0.63449 0.16133 0.0
H335 H 0.77149 0.63588 0.15633 0.0
H336 H 0.68 0.46156 0.14407 0.0
H337 H 0.63718 0.42743 0.16267 0.0
H338 H 0.69333 0.4398 0.16825 0.0
H339 H 0.6938 0.47247 0.20978 0.0
H340 H 0.63738 0.45992 0.20438 0.0
H341 H 0.68016 0.51602 0.21404 0.0
H342 H 0.69287 0.6184 0.14856 0.0
H343 H 0.61256 0.58371 0.13868 0.0
H344 H 0.58973 0.4628 0.16774 0.0
C345 C 0.76892 0.53144 0.17886 0.0
C346 C 0.80979 0.56798 0.17334 0.0
C347 C 0.81052 0.6062 0.16582 0.0
C348 C 0.77098 0.60734 0.16297 0.0
C349 C 0.73108 0.57014 0.16789 0.0
C350 C 0.72985 0.53304 0.17587 0.0
C351 C 0.68249 0.49574 0.17775 0.0
C352 C 0.6727 0.45368 0.16226 0.0
C353 C 0.6729 0.48545 0.20299 0.0
C354 C 0.65721 0.51704 0.16881 0.0
C355 C 0.68575 0.56014 0.16349 0.0
C356 C 0.67015 0.58506 0.15316 0.0
C357 C 0.62433 0.56509 0.14772 0.0
C358 C 0.59458 0.52052 0.15253 0.0
C359 C 0.61144 0.49685 0.16378 0.0
H360 H 0.4304 0.81077 0.4636 0.0
H361 H 0.4012 0.89622 0.50903 0.0
H362 H 0.32316 0.83476 0.50975 0.0
H363 H 0.32641 0.75517 0.43016 0.0
H364 H 0.32409 0.70208 0.42761 0.0
H365 H 0.3771 0.753 0.43068 0.0
H366 H 0.39889 0.72598 0.4664 0.0
H367 H 0.34587 0.67504 0.46349 0.0
H368 H 0.36322 0.70993 0.49034 0.0
H369 H 0.24723 0.76234 0.50524 0.0
H370 H 0.18132 0.68757 0.49517 0.0
H371 H 0.26243 0.65028 0.45383 0.0
C372 C 0.40766 0.81682 0.47364 0.0
C373 C 0.42205 0.85853 0.4862 0.0
C374 C 0.39104 0.86467 0.4992 0.0
C375 C 0.34662 0.82989 0.49975 0.0
C376 C 0.3337 0.78907 0.48727 0.0
C377 C 0.36345 0.78254 0.47445 0.0
C378 C 0.34164 0.73569 0.46261 0.0
C379 C 0.34235 0.73656 0.4362 0.0
C380 C 0.36372 0.71016 0.47123 0.0
C381 C 0.29483 0.71677 0.47063 0.0
C382 C 0.29074 0.74788 0.48487 0.0
C383 C 0.25022 0.73776 0.49414 0.0
C384 C 0.21297 0.69503 0.48845 0.0
C385 C 0.21636 0.66284 0.4736 0.0
C386 C 0.25823 0.6741 0.46492 0.0
H387 H 0.50211 0.33589 0.81262 0.0
H388 H 0.51196 0.352 0.88749 0.0
H389 H 0.50196 0.27662 0.88833 0.0
H390 H 0.42113 0.2127 0.80593 0.0
H391 H 0.44858 0.20458 0.78156 0.0
H392 H 0.44866 0.25633 0.7869 0.0
H393 H 0.53474 0.29997 0.7872 0.0
H394 H 0.53499 0.24852 0.78207 0.0
H395 H 0.56614 0.28668 0.80677 0.0
H396 H 0.50125 0.20412 0.88103 0.0
H397 H 0.5085 0.13981 0.86612 0.0
H398 H 0.50059 0.17165 0.79606 0.0
C399 C 0.50056 0.32294 0.8292 0.0
C400 C 0.50736 0.34968 0.85001 0.0
C401 C 0.50652 0.33201 0.87134 0.0
C402 C 0.5008 0.28917 0.87198 0.0
C403 C 0.49583 0.2643 0.85115 0.0
C404 C 0.49528 0.28038 0.83013 0.0
C405 C 0.49396 0.249 0.81027 0.0
C406 C 0.45049 0.22949 0.79528 0.0
C407 C 0.53489 0.27245 0.79574 0.0
C408 C 0.4953 0.21352 0.82339 0.0
C409 C 0.4958 0.22263 0.84694 0.0
C410 C 0.50016 0.19628 0.86261 0.0
C411 C 0.50455 0.15999 0.854 0.0
C412 C 0.50476 0.15042 0.82992 0.0
C413 C 0.49941 0.17733 0.81451 0.0
H414 H 0.53924 0.83098 0.54256 0.0
H415 H 0.63591 0.91411 0.49519 0.0
H416 H 0.66667 0.86376 0.49315 0.0
H417 H 0.61203 0.80449 0.57379 0.0
H418 H 0.56897 0.74799 0.57705 0.0
H419 H 0.55488 0.79093 0.57496 0.0
H420 H 0.49919 0.7442 0.54039 0.0
H421 H 0.51328 0.70122 0.54229 0.0
H422 H 0.51837 0.72611 0.51552 0.0
H423 H 0.68632 0.80383 0.49579 0.0
H424 H 0.69534 0.74007 0.50431 0.0
H425 H 0.58528 0.69578 0.54946 0.0
C426 C 0.56704 0.83878 0.53186 0.0
C427 C 0.58517 0.87653 0.51906 0.0
C428 C 0.62147 0.88542 0.5052 0.0
C429 C 0.63914 0.85698 0.50387 0.0
C430 C 0.6202 0.81982 0.51651 0.0
C431 C 0.5851 0.81075 0.53033 0.0
C432 C 0.57082 0.76859 0.54215 0.0
C433 C 0.57707 0.77862 0.56855 0.0
C434 C 0.52256 0.73293 0.53463 0.0
C435 C 0.60343 0.75544 0.53285 0.0
C436 C 0.63153 0.78531 0.51803 0.0
C437 C 0.66447 0.78015 0.50735 0.0
C438 C 0.66913 0.74368 0.51215 0.0
C439 C 0.64105 0.71299 0.52754 0.0
C440 C 0.60759 0.71894 0.53782 0.0
H441 H 0.74118 0.58918 0.82716 0.0
H442 H 0.66095 0.45712 0.85072 0.0
H443 H 0.72882 0.45897 0.86481 0.0
H444 H 0.83294 0.57349 0.80848 0.0
H445 H 0.87492 0.62997 0.81803 0.0
H446 H 0.82003 0.61766 0.8087 0.0
H447 H 0.81332 0.65387 0.8478 0.0
H448 H 0.86805 0.66608 0.85729 0.0
H449 H 0.82123 0.63415 0.87431 0.0
H450 H 0.8041 0.4765 0.87862 0.0
H451 H 0.88314 0.5078 0.89018 0.0
H452 H 0.91575 0.62723 0.85634 0.0
C453 C 0.73792 0.56051 0.83509 0.0
C454 C 0.69569 0.52305 0.83783 0.0
C455 C 0.69288 0.48623 0.84838 0.0
C456 C 0.73125 0.4869 0.85646 0.0
C457 C 0.77226 0.52446 0.85375 0.0
C458 C 0.776 0.56048 0.84319 0.0
C459 C 0.82423 0.59705 0.84294 0.0
C460 C 0.83889 0.60499 0.81806 0.0
C461 C 0.83215 0.64034 0.85639 0.0
C462 C 0.84678 0.57616 0.85537 0.0
C463 C 0.81613 0.53426 0.86138 0.0
C464 C 0.82858 0.509 0.87371 0.0
C465 C 0.87368 0.527 0.88005 0.0
C466 C 0.90594 0.56982 0.87396 0.0
C467 C 0.89205 0.59453 0.86137 0.0
H468 H 0.15406 0.72611 0.19504 0.0
H469 H 0.13713 0.7227 0.12081 0.0
H470 H 0.21142 0.7901 0.12042 0.0
H471 H 0.22452 0.8511 0.20762 0.0
H472 H 0.25864 0.84536 0.22913 0.0
H473 H 0.20071 0.80337 0.22429 0.0
H474 H 0.22275 0.74272 0.21715 0.0
H475 H 0.28057 0.7844 0.22171 0.0
H476 H 0.26096 0.74853 0.19519 0.0
H477 H 0.29083 0.85031 0.12722 0.0
H478 H 0.36978 0.89813 0.14052 0.0
H479 H 0.33628 0.85962 0.21007 0.0
C480 C 0.16527 0.74074 0.17887 0.0
C481 C 0.13972 0.71987 0.158 0.0
C482 C 0.15613 0.73867 0.137 0.0
C483 C 0.19819 0.77696 0.13664 0.0
C484 C 0.22341 0.79584 0.15741 0.0
C485 C 0.2075 0.77847 0.17818 0.0
C486 C 0.24334 0.80106 0.19752 0.0
C487 C 0.23106 0.82676 0.21572 0.0
C488 C 0.25243 0.76716 0.20852 0.0
C489 C 0.28227 0.83265 0.18425 0.0
C490 C 0.26988 0.82976 0.16124 0.0
C491 C 0.3008 0.85334 0.14526 0.0
C492 C 0.34562 0.8801 0.15294 0.0
C493 C 0.35923 0.88267 0.17634 0.0
C494 C 0.32684 0.85917 0.19219 0.0
H495 H 0.59823 0.21304 0.45554 0.0
H496 H 0.47226 0.14124 0.4875 0.0
H497 H 0.46915 0.21068 0.49316 0.0
H498 H 0.64287 0.30201 0.49423 0.0
H499 H 0.67311 0.34402 0.47472 0.0
H500 H 0.66005 0.28759 0.46743 0.0
H501 H 0.62046 0.28468 0.42894 0.0
H502 H 0.63367 0.34152 0.43586 0.0
H503 H 0.57677 0.29821 0.42912 0.0
H504 H 0.48552 0.28891 0.50114 0.0
H505 H 0.52183 0.36958 0.51289 0.0
H506 H 0.63868 0.39121 0.47712 0.0
C507 C 0.56908 0.21157 0.46283 0.0
C508 C 0.53516 0.17174 0.4708 0.0
C509 C 0.49838 0.17141 0.48109 0.0
C510 C 0.49624 0.21063 0.48425 0.0
C511 C 0.53112 0.24984 0.47701 0.0
C512 C 0.56682 0.25056 0.46641 0.0
C513 C 0.60318 0.29788 0.46351 0.0
C514 C 0.64737 0.30849 0.47572 0.0
C515 C 0.60883 0.30604 0.43783 0.0
C516 C 0.58361 0.32374 0.4754 0.0
C517 C 0.5414 0.29545 0.48237 0.0
C518 C 0.51812 0.31144 0.49533 0.0
C519 C 0.53896 0.35735 0.50186 0.0
C520 C 0.58294 0.3866 0.49578 0.0
C521 C 0.60492 0.36959 0.48185 0.0
H522 H 0.32897 0.47376 0.87513 0.0
H523 H 0.34475 0.49641 0.80254 0.0
H524 H 0.28488 0.51478 0.80292 0.0
H525 H 0.20472 0.42739 0.87335 0.0
H526 H 0.20838 0.45427 0.9016 0.0
H527 H 0.24699 0.43556 0.89455 0.0
H528 H 0.31265 0.51531 0.90614 0.0
H529 H 0.27446 0.53451 0.91283 0.0
H530 H 0.31607 0.56164 0.89228 0.0
H531 H 0.23448 0.54439 0.81302 0.0
H532 H 0.19154 0.57579 0.83097 0.0
H533 H 0.20356 0.52829 0.89637 0.0
C534 C 0.31884 0.48117 0.85913 0.0
C535 C 0.34144 0.48359 0.8388 0.0
C536 C 0.32761 0.49393 0.81826 0.0
C537 C 0.2937 0.50452 0.81832 0.0
C538 C 0.27339 0.50371 0.83892 0.0
C539 C 0.28472 0.49132 0.85883 0.0
C540 C 0.26016 0.49632 0.87907 0.0
C541 C 0.22815 0.45066 0.88764 0.0
C542 C 0.29279 0.52888 0.89872 0.0
C543 C 0.23502 0.51563 0.8677 0.0
C544 C 0.24285 0.51934 0.84452 0.0
C545 C 0.22687 0.54031 0.83098 0.0
C546 C 0.20223 0.55793 0.84139 0.0
C547 C 0.19339 0.55423 0.86514 0.0
C548 C 0.20964 0.53207 0.87825 0.0
H549 H 0.83078 0.36776 0.18193 0.0
H550 H 0.76604 0.37309 0.11887 0.0
H551 H 0.71176 0.2927 0.11866 0.0
H552 H 0.81394 0.25505 0.16798 0.0
H553 H 0.80388 0.24103 0.19739 0.0
H554 H 0.84013 0.29812 0.19146 0.0
H555 H 0.79231 0.32213 0.21554 0.0
H556 H 0.75583 0.26517 0.22144 0.0
H557 H 0.73346 0.29578 0.20834 0.0
H558 H 0.66129 0.21341 0.12677 0.0
H559 H 0.61896 0.13992 0.14225 0.0
H560 H 0.71589 0.1862 0.20024 0.0
C561 C 0.80569 0.35189 0.16784 0.0
C562 C 0.80275 0.37674 0.15037 0.0
C563 C 0.76904 0.35477 0.13242 0.0
C564 C 0.73806 0.30909 0.13212 0.0
C565 C 0.74134 0.28578 0.14985 0.0
C566 C 0.77444 0.3063 0.1673 0.0
C567 C 0.76921 0.2741 0.1849 0.0
C568 C 0.80917 0.26664 0.18545 0.0
C569 C 0.76228 0.29027 0.20897 0.0
C570 C 0.72742 0.23257 0.17488 0.0
C571 C 0.71208 0.23996 0.15457 0.0
C572 C 0.67313 0.20712 0.14258 0.0
C573 C 0.64914 0.16563 0.1516 0.0
C574 C 0.66408 0.15735 0.17246 0.0
C575 C 0.70396 0.1913 0.1841 0.0
H576 H 0.96503 0.51886 0.10155 0.0
H577 H 0.00557 0.65117 0.13309 0.0
H578 H 0.04706 0.6843 0.09869 0.0
H579 H 0.0703 0.55046 0.07421 0.0
H580 H 0.04323 0.51253 0.04883 0.0
H581 H 0.01829 0.49953 0.07628 0.0
H582 H 0.94564 0.49151 0.05853 0.0
H583 H 0.97022 0.50427 0.03104 0.0
H584 H 0.94807 0.53699 0.04423 0.0
H585 H 0.07974 0.70218 0.06005 0.0
H586 H 0.10068 0.70408 0.0197 0.0
H587 H 0.04291 0.56008 0.01411 0.0
C588 C 0.98285 0.55478 0.10112 0.0
C589 C 0.98252 0.58277 0.11975 0.0
C590 C 0.00587 0.62951 0.11884 0.0
C591 C 0.02951 0.6485 0.09947 0.0
C592 C 0.02968 0.62011 0.08137 0.0
C593 C 0.00716 0.57427 0.08205 0.0
C594 C 0.01193 0.55125 0.0601 0.0
C595 C 0.03746 0.52702 0.06516 0.0
C596 C 0.96625 0.51912 0.04775 0.0
C597 C 0.0392 0.59116 0.04662 0.0
C598 C 0.04949 0.63057 0.05928 0.0
C599 C 0.07248 0.67161 0.05006 0.0
C600 C 0.08454 0.67234 0.02712 0.0
C601 C 0.07369 0.63227 0.0136 0.0
C602 C 0.05147 0.59133 0.0238 0.0
H603 H 0.52109 0.02821 0.4191 0.0
H604 H 0.59278 0.96227 0.43916 0.0
H605 H 0.60297 0.94795 0.39834 0.0
H606 H 0.46425 0.95459 0.3675 0.0
H607 H 0.469 0.9987 0.35107 0.0
H608 H 0.4664 0.00326 0.38199 0.0
H609 H 0.54041 0.07889 0.38485 0.0
H610 H 0.54335 0.07449 0.35395 0.0
H611 H 0.58895 0.08188 0.37244 0.0
H612 H 0.60667 0.94144 0.35579 0.0
H613 H 0.60303 0.94269 0.31351 0.0
H614 H 0.52876 0.01228 0.32038 0.0
C615 C 0.53867 0.01054 0.41487 0.0
C616 C 0.55617 0.99644 0.43236 0.0
C617 C 0.57923 0.97362 0.42612 0.0
C618 C 0.58517 0.96522 0.40295 0.0
C619 C 0.56793 0.97987 0.38617 0.0
C620 C 0.54511 0.00197 0.39175 0.0
C621 C 0.53051 0.01453 0.37022 0.0
C622 C 0.47951 0.99138 0.36754 0.0
C623 C 0.55211 0.06548 0.37038 0.0
C624 C 0.54879 0.99605 0.35176 0.0
C625 C 0.57017 0.97616 0.3614 0.0
C626 C 0.58983 0.95672 0.34798 0.0
C627 C 0.58739 0.9574 0.32398 0.0
C628 C 0.56544 0.97737 0.31362 0.0
C629 C 0.54609 0.99711 0.32779 0.0
H630 H 0.58557 0.49292 0.75802 0.0
H631 H 0.46166 0.49437 0.75242 0.0
H632 H 0.46962 0.5009 0.71057 0.0
H633 H 0.64318 0.57327 0.71834 0.0
H634 H 0.67182 0.54604 0.70634 0.0
H635 H 0.65544 0.53936 0.73569 0.0
H636 H 0.61204 0.45342 0.72677 0.0
H637 H 0.62843 0.4598 0.69739 0.0
H638 H 0.57034 0.42859 0.70323 0.0
H639 H 0.49264 0.51063 0.66978 0.0
H640 H 0.52869 0.52206 0.63269 0.0
H641 H 0.63668 0.5125 0.66474 0.0
C642 C 0.55987 0.49427 0.74801 0.0
C643 C 0.52293 0.49305 0.75855 0.0
C644 C 0.4902 0.49509 0.74477 0.0
C645 C 0.49441 0.49882 0.72098 0.0
C646 C 0.53141 0.50029 0.71122 0.0
C647 C 0.56348 0.49791 0.72427 0.0
C648 C 0.60052 0.50118 0.70964 0.0
C649 C 0.64538 0.54242 0.718 0.0
C650 C 0.60295 0.45818 0.70923 0.0
C651 C 0.58451 0.50631 0.68636 0.0
C652 C 0.54453 0.50556 0.68764 0.0
C653 C 0.52371 0.51077 0.6685 0.0
C654 C 0.54434 0.51696 0.64746 0.0
C655 C 0.58536 0.51781 0.64571 0.0
C656 C 0.60549 0.51226 0.6655 0.0
H657 H 0.5929 0.02962 0.57354 0.0
H658 H 0.4735 0.03517 0.55806 0.0
H659 H 0.45993 0.03583 0.5997 0.0
H660 H 0.55147 0.95787 0.61875 0.0
H661 H 0.60307 0.98601 0.63607 0.0
H662 H 0.60364 0.98673 0.60515 0.0
H663 H 0.64863 0.07321 0.6095 0.0
H664 H 0.64836 0.07276 0.64045 0.0
H665 H 0.62737 0.10344 0.62619 0.0
H666 H 0.45756 0.03187 0.64303 0.0
H667 H 0.46966 0.02928 0.68483 0.0
H668 H 0.59203 0.02929 0.6717 0.0
C669 C 0.56395 0.03114 0.57887 0.0
C670 C 0.53415 0.03218 0.56253 0.0
C671 C 0.49684 0.03446 0.57027 0.0
C672 C 0.48879 0.03471 0.59387 0.0
C673 C 0.51863 0.03317 0.60949 0.0
C674 C 0.55572 0.03193 0.60231 0.0
C675 C 0.58288 0.03083 0.62253 0.0
C676 C 0.58539 0.98779 0.6205 0.0
C677 C 0.62957 0.07255 0.6248 0.0
C678 C 0.55508 0.03122 0.64223 0.0
C679 C 0.51799 0.03228 0.63438 0.0
C680 C 0.48667 0.0314 0.64938 0.0
C681 C 0.49366 0.0297 0.67303 0.0
C682 C 0.53186 0.02935 0.68141 0.0
C683 C 0.56285 0.03013 0.66576 0.0
H684 H 0.44286 0.45444 0.89181 0.0
H685 H 0.58618 0.54248 0.89456 0.0
H686 H 0.58831 0.54392 0.93703 0.0
H687 H 0.42244 0.50521 0.94276 0.0
H688 H 0.3794 0.45291 0.95178 0.0
H689 H 0.38915 0.45915 0.92157 0.0
H690 H 0.40005 0.39054 0.91852 0.0
H691 H 0.3905 0.38415 0.94874 0.0
H692 H 0.44097 0.38979 0.93753 0.0
H693 H 0.57504 0.53576 0.97907 0.0
H694 H 0.54722 0.51773 0.01798 0.0
H695 H 0.41265 0.43525 0.98783 0.0
C696 C 0.4747 0.47417 0.90132 0.0
C697 C 0.51434 0.49846 0.88985 0.0
C698 C 0.55534 0.52364 0.90296 0.0
C699 C 0.55692 0.52469 0.92709 0.0
C700 C 0.51724 0.50036 0.93784 0.0
C701 C 0.47691 0.47555 0.92541 0.0
C702 C 0.43917 0.45209 0.94116 0.0
C703 C 0.40557 0.46833 0.9392 0.0
C704 C 0.41634 0.40112 0.93619 0.0
C705 C 0.46465 0.46754 0.96441 0.0
C706 C 0.50961 0.49546 0.9621 0.0
C707 C 0.53989 0.51403 0.98113 0.0
C708 C 0.52376 0.50378 0.00314 0.0
C709 C 0.47781 0.47516 0.00591 0.0
C710 C 0.448 0.45686 0.98623 0.0
H711 H 0.03289 0.58994 0.25126 0.0
H712 H 0.90179 0.48089 0.22759 0.0
H713 H 0.89099 0.45344 0.26647 0.0
H714 H 0.06302 0.52923 0.28564 0.0
H715 H 0.09224 0.57409 0.30801 0.0
H716 H 0.08818 0.58641 0.27884 0.0
H717 H 0.05309 0.63376 0.29287 0.0
H718 H 0.05718 0.62172 0.32213 0.0
H719 H 0.00418 0.6091 0.3094 0.0
H720 H 0.89769 0.43473 0.30732 0.0
H721 H 0.91948 0.42908 0.34714 0.0
H722 H 0.04508 0.55179 0.34364 0.0
C723 C 0.00164 0.56055 0.25426 0.0
C724 C 0.96818 0.53754 0.23638 0.0
C725 C 0.9278 0.49922 0.24107 0.0
C726 C 0.92142 0.48333 0.26308 0.0
C727 C 0.95551 0.50647 0.2802 0.0
C728 C 0.99461 0.54456 0.27607 0.0
C729 C 0.02661 0.56288 0.29711 0.0
C730 C 0.07006 0.56314 0.29209 0.0
C731 C 0.03578 0.60964 0.30589 0.0
C732 C 0.99975 0.5288 0.31371 0.0
C733 C 0.95886 0.49642 0.30369 0.0
C734 C 0.92936 0.46023 0.31541 0.0
C735 C 0.94205 0.45718 0.33794 0.0
C736 C 0.98368 0.49028 0.3485 0.0
C737 C 0.01264 0.52655 0.33618 0.0
loop_
_geom_bond_atom_site_label_1
_geom_bond_atom_site_label_2
_geom_bond_distance
_geom_bond_site_symmetry_2
_ccdc_geom_bond_type
Zn0 O6 1.969 . S
Zn0 O7 1.965 . S
Zn0 O11 2.024 . S
Zn0 O16 1.969 . S
Zn1 O8 1.969 . S
Zn1 O14 1.969 . S
Zn1 O15 1.965 . S
Zn1 O17 2.024 . S
C2 O3 1.229 . S
C2 O11 1.058 . S
O3 C2 1.229 . S
C4 O5 1.229 . S
C4 O17 1.058 . S
O5 C4 1.229 . S
O6 Zn0 1.969 . S
O6 C9 1.267 . S
O7 Zn0 1.965 . S
O7 C18 1.260 1_455 S
O8 Zn1 1.969 . S
O8 C18 1.258 . S
C9 O6 1.267 . S
C9 O10 1.228 . S
O10 C9 1.228 . S
O11 Zn0 2.024 . S
O11 C2 1.058 . S
C12 O13 1.228 . S
C12 O14 1.267 . S
O13 C12 1.228 . S
O14 Zn1 1.969 . S
O14 C12 1.267 . S
O15 Zn1 1.965 . S
O15 C19 1.260 1_655 S
O16 Zn0 1.969 . S
O16 C19 1.258 . S
O17 Zn1 2.024 . S
O17 C4 1.058 . S
C18 O7 1.260 1_655 S
C18 O8 1.258 . S
C19 O15 1.260 1_455 S
C19 O16 1.258 . S
Zn20 O26 1.969 . S
Zn20 O27 1.965 . S
Zn20 O31 2.024 . S
Zn20 O36 1.969 . S
Zn21 O28 1.969 . S
Zn21 O34 1.969 . S
Zn21 O35 1.965 . S
Zn21 O37 2.024 . S
C22 O23 1.229 . S
C22 O31 1.058 . S
O23 C22 1.229 . S
C24 O25 1.229 . S
C24 O37 1.058 . S
O25 C24 1.229 . S
O26 Zn20 1.969 . S
O26 C29 1.267 . S
O27 Zn20 1.965 . S
O27 C38 1.260 . S
O28 Zn21 1.969 . S
O28 C38 1.258 1_565 S
C29 O26 1.267 . S
C29 O30 1.228 . S
O30 C29 1.228 . S
O31 Zn20 2.024 . S
O31 C22 1.058 . S
C32 O33 1.228 . S
C32 O34 1.267 . S
O33 C32 1.228 . S
O34 Zn21 1.969 . S
O34 C32 1.267 . S
O35 Zn21 1.965 . S
O35 C39 1.260 1_565 S
O36 Zn20 1.969 . S
O36 C39 1.258 . S
O37 Zn21 2.024 . S
O37 C24 1.058 . S
C38 O27 1.260 . S
C38 O28 1.258 1_545 S
C39 O35 1.260 1_545 S
C39 O36 1.258 . S
Zn40 O46 1.969 . S
Zn40 O47 1.965 . S
Zn40 O51 2.024 . S
Zn40 O56 1.969 . S
Zn41 O48 1.969 . S
Zn41 O54 1.969 . S
Zn41 O55 1.965 . S
Zn41 O57 2.024 . S
C42 O43 1.229 . S
C42 O51 1.058 . S
O43 C42 1.229 . S
C44 O45 1.229 . S
C44 O57 1.058 . S
O45 C44 1.229 . S
O46 Zn40 1.969 . S
O46 C49 1.267 . S
O47 Zn40 1.965 . S
O47 C58 1.260 . S
O48 Zn41 1.969 . S
O48 C58 1.258 . S
C49 O46 1.267 . S
C49 O50 1.228 . S
O50 C49 1.228 . S
O51 Zn40 2.024 . S
O51 C42 1.058 . S
C52 O53 1.228 . S
C52 O54 1.267 . S
O53 C52 1.228 . S
O54 Zn41 1.969 . S
O54 C52 1.267 . S
O55 Zn41 1.965 . S
O55 C59 1.260 . S
O56 Zn40 1.969 . S
O56 C59 1.258 . S
O57 Zn41 2.024 . S
O57 C44 1.058 . S
C58 O47 1.260 . S
C58 O48 1.258 . S
C59 O55 1.260 . S
C59 O56 1.258 . S
P60 O71 1.490 . S
P60 C74 1.812 . S
P60 C80 1.803 1_565 S
P60 C86 1.819 1_565 S
H61 C75 0.941 . S
H62 C76 0.939 . S
H63 C78 0.940 . S
H64 C79 0.940 . S
H65 C81 0.939 . S
H66 C82 0.942 . S
H67 C84 0.940 . S
H68 C85 0.939 . S
H69 C87 0.941 . S
H70 C91 0.939 . S
O71 P60 1.490 . S
H72 C88 0.939 . S
H73 C90 0.940 . S
C74 P60 1.812 . S
C74 C75 1.389 . S
C74 C79 1.391 . S
C75 H61 0.941 . S
C75 C74 1.389 . S
C75 C76 1.397 . S
C76 H62 0.939 . S
C76 C75 1.397 . S
C76 C77 1.378 . S
C77 C76 1.378 . S
C77 C78 1.378 . S
C78 H63 0.940 . S
C78 C77 1.378 . S
C78 C79 1.396 . S
C79 H64 0.940 . S
C79 C74 1.391 . S
C79 C78 1.396 . S
C80 P60 1.803 1_545 S
C80 C81 1.378 . S
C80 C85 1.400 . S
C81 H65 0.939 . S
C81 C80 1.378 . S
C81 C82 1.361 . S
C82 H66 0.942 . S
C82 C81 1.361 . S
C82 C83 1.369 . S
C83 C82 1.369 . S
C83 C84 1.404 . S
C84 H67 0.940 . S
C84 C83 1.404 . S
C84 C85 1.389 . S
C85 H68 0.939 . S
C85 C80 1.400 . S
C85 C84 1.389 . S
C86 P60 1.819 1_545 S
C86 C87 1.391 1_545 S
C86 C91 1.391 . S
C87 H69 0.941 . S
C87 C86 1.391 1_565 S
C87 C88 1.396 . S
C88 H72 0.939 . S
C88 C87 1.396 . S
C88 C89 1.397 1_565 S
C89 C88 1.397 1_545 S
C89 C90 1.385 . S
C90 H73 0.940 . S
C90 C89 1.385 . S
C90 C91 1.388 . S
C91 H70 0.939 . S
C91 C86 1.391 . S
C91 C90 1.388 . S
P92 O103 1.490 . S
P92 C106 1.812 . S
P92 C112 1.803 . S
P92 C118 1.819 . S
H93 C107 0.941 . S
H94 C108 0.939 . S
H95 C110 0.940 . S
H96 C111 0.940 . S
H97 C113 0.939 . S
H98 C114 0.942 . S
H99 C116 0.940 . S
H100 C117 0.939 . S
H101 C119 0.941 . S
H102 C123 0.939 . S
O103 P92 1.490 . S
H104 C120 0.939 . S
H105 C122 0.940 . S
C106 P92 1.812 . S
C106 C107 1.389 . S
C106 C111 1.391 . S
C107 H93 0.941 . S
C107 C106 1.389 . S
C107 C108 1.397 . S
C108 H94 0.939 . S
C108 C107 1.397 . S
C108 C109 1.378 . S
C109 C108 1.378 . S
C109 C110 1.378 . S
C110 H95 0.940 . S
C110 C109 1.378 . S
C110 C111 1.396 . S
C111 H96 0.940 . S
C111 C106 1.391 . S
C111 C110 1.396 . S
C112 P92 1.803 . S
C112 C113 1.378 . S
C112 C117 1.400 . S
C113 H97 0.939 . S
C113 C112 1.378 . S
C113 C114 1.361 . S
C114 H98 0.942 . S
C114 C113 1.361 . S
C114 C115 1.369 . S
C115 C114 1.369 . S
C115 C116 1.404 . S
C116 H99 0.940 . S
C116 C115 1.404 . S
C116 C117 1.389 . S
C117 H100 0.939 . S
C117 C112 1.400 . S
C117 C116 1.389 . S
C118 P92 1.819 . S
C118 C119 1.391 . S
C118 C123 1.391 . S
C119 H101 0.941 . S
C119 C118 1.391 . S
C119 C120 1.396 . S
C120 H104 0.939 . S
C120 C119 1.396 . S
C120 C121 1.397 . S
C121 C120 1.397 . S
C121 C122 1.385 . S
C122 H105 0.940 . S
C122 C121 1.385 . S
C122 C123 1.388 . S
C123 H102 0.939 . S
C123 C118 1.391 . S
C123 C122 1.388 . S
P124 O135 1.490 . S
P124 C138 1.812 . S
P124 C144 1.803 . S
P124 C150 1.819 . S
H125 C139 0.941 . S
H126 C140 0.939 . S
H127 C142 0.940 . S
H128 C143 0.940 . S
H129 C145 0.940 1_455 S
H130 C146 0.942 . S
H131 C148 0.940 . S
H132 C149 0.954 . S
H133 C151 0.941 . S
H134 C155 0.939 1_655 S
O135 P124 1.490 . S
H136 C152 0.939 . S
H137 C154 0.923 1_655 S
C138 P124 1.812 . S
C138 C139 1.389 . S
C138 C143 1.391 . S
C139 H125 0.941 . S
C139 C138 1.389 . S
C139 C140 1.397 . S
C140 H126 0.939 . S
C140 C139 1.397 . S
C140 C141 1.378 . S
C141 C140 1.378 . S
C141 C142 1.378 . S
C142 H127 0.940 . S
C142 C141 1.378 . S
C142 C143 1.396 . S
C143 H128 0.940 . S
C143 C138 1.391 . S
C143 C142 1.396 . S
C144 P124 1.803 . S
C144 C145 1.378 1_455 S
C144 C149 1.400 1_455 S
C145 H129 0.940 1_655 S
C145 C144 1.378 1_655 S
C145 C146 1.361 . S
C146 H130 0.942 . S
C146 C145 1.361 . S
C146 C147 1.369 . S
C147 C146 1.369 . S
C147 C148 1.404 . S
C148 H131 0.940 . S
C148 C147 1.404 . S
C148 C149 1.389 . S
C149 H132 0.954 . S
C149 C144 1.400 1_655 S
C149 C148 1.389 . S
C150 P124 1.819 . S
C150 C151 1.391 . S
C150 C155 1.391 . S
C151 H133 0.941 . S
C151 C150 1.391 . S
C151 C152 1.396 . S
C152 H136 0.939 . S
C152 C151 1.396 . S
C152 C153 1.397 . S
C153 C152 1.397 . S
C153 C154 1.403 . S
C154 H137 0.923 1_455 S
C154 C153 1.403 . S
C154 C155 1.388 . S
C155 H134 0.939 1_455 S
C155 C150 1.391 . S
C155 C154 1.388 . S
P156 O167 1.490 . S
P156 C170 1.812 . S
P156 C176 1.799 1_455 S
P156 C182 1.819 . S
H157 C171 0.941 . S
H158 C172 0.939 . S
H159 C174 0.940 . S
H160 C175 0.940 . S
H161 C177 0.939 . S
H162 C178 0.942 . S
H163 C180 0.940 . S
H164 C181 0.939 . S
H165 C183 0.941 . S
H166 C187 0.939 . S
O167 P156 1.490 . S
H168 C184 0.939 . S
H169 C186 0.940 . S
C170 P156 1.812 . S
C170 C171 1.389 . S
C170 C175 1.391 . S
C171 H157 0.941 . S
C171 C170 1.389 . S
C171 C172 1.397 . S
C172 H158 0.939 . S
C172 C171 1.397 . S
C172 C173 1.378 . S
C173 C172 1.378 . S
C173 C174 1.378 . S
C174 H159 0.940 . S
C174 C173 1.378 . S
C174 C175 1.396 . S
C175 H160 0.940 . S
C175 C170 1.391 . S
C175 C174 1.396 . S
C176 P156 1.799 1_655 S
C176 C177 1.378 . S
C176 C181 1.405 . S
C177 H161 0.939 . S
C177 C176 1.378 . S
C177 C178 1.361 . S
C178 H162 0.942 . S
C178 C177 1.361 . S
C178 C179 1.369 . S
C179 C178 1.369 . S
C179 C180 1.404 . S
C180 H163 0.940 . S
C180 C179 1.404 . S
C180 C181 1.389 . S
C181 H164 0.939 . S
C181 C176 1.405 . S
C181 C180 1.389 . S
C182 P156 1.819 . S
C182 C183 1.391 . S
C182 C187 1.391 1_455 S
C183 H165 0.941 . S
C183 C182 1.391 . S
C183 C184 1.396 . S
C184 H168 0.939 . S
C184 C183 1.396 . S
C184 C185 1.397 . S
C185 C184 1.397 . S
C185 C186 1.385 1_455 S
C186 H169 0.940 . S
C186 C185 1.385 1_655 S
C186 C187 1.388 . S
C187 H166 0.939 . S
C187 C182 1.391 1_655 S
C187 C186 1.388 . S
P188 O199 1.490 . S
P188 C202 1.812 . S
P188 C208 1.803 1_545 S
P188 C214 1.819 . S
H189 C203 0.941 . S
H190 C204 0.939 . S
H191 C206 0.940 . S
H192 C207 0.940 . S
H193 C209 0.939 . S
H194 C210 0.942 . S
H195 C212 0.940 . S
H196 C213 0.939 . S
H197 C215 0.941 . S
H198 C219 0.939 . S
O199 P188 1.490 . S
H200 C216 0.939 . S
H201 C218 0.940 . S
C202 P188 1.812 . S
C202 C203 1.389 . S
C202 C207 1.391 . S
C203 H189 0.941 . S
C203 C202 1.389 . S
C203 C204 1.397 . S
C204 H190 0.939 . S
C204 C203 1.397 . S
C204 C205 1.378 . S
C205 C204 1.378 . S
C205 C206 1.378 . S
C206 H191 0.940 . S
C206 C205 1.378 . S
C206 C207 1.396 . S
C207 H192 0.940 . S
C207 C202 1.391 . S
C207 C206 1.396 . S
C208 P188 1.803 1_565 S
C208 C209 1.378 . S
C208 C213 1.400 . S
C209 H193 0.939 . S
C209 C208 1.378 . S
C209 C210 1.361 . S
C210 H194 0.942 . S
C210 C209 1.361 . S
C210 C211 1.369 . S
C211 C210 1.369 . S
C211 C212 1.404 . S
C212 H195 0.940 . S
C212 C211 1.404 . S
C212 C213 1.389 . S
C213 H196 0.939 . S
C213 C208 1.400 . S
C213 C212 1.389 . S
C214 P188 1.819 . S
C214 C215 1.391 . S
C214 C219 1.391 1_545 S
C215 H197 0.941 . S
C215 C214 1.391 . S
C215 C216 1.396 . S
C216 H200 0.939 . S
C216 C215 1.396 . S
C216 C217 1.397 . S
C217 C216 1.397 . S
C217 C218 1.385 1_545 S
C218 H201 0.940 . S
C218 C217 1.385 1_565 S
C218 C219 1.388 . S
C219 H198 0.939 . S
C219 C214 1.391 1_565 S
C219 C218 1.388 . S
P220 O231 1.490 . S
P220 C234 1.812 . S
P220 C240 1.803 . S
P220 C246 1.819 . S
H221 C235 0.941 . S
H222 C236 0.939 . S
H223 C238 0.940 . S
H224 C239 0.940 . S
H225 C241 0.939 . S
H226 C242 0.942 . S
H227 C244 0.940 . S
H228 C245 0.939 . S
H229 C247 0.941 . S
H230 C251 0.939 . S
O231 P220 1.490 . S
H232 C248 0.939 . S
H233 C250 0.940 . S
C234 P220 1.812 . S
C234 C235 1.389 . S
C234 C239 1.391 . S
C235 H221 0.941 . S
C235 C234 1.389 . S
C235 C236 1.397 . S
C236 H222 0.939 . S
C236 C235 1.397 . S
C236 C237 1.378 . S
C237 C236 1.378 . S
C237 C238 1.378 . S
C238 H223 0.940 . S
C238 C237 1.378 . S
C238 C239 1.396 . S
C239 H224 0.940 . S
C239 C234 1.391 . S
C239 C238 1.396 . S
C240 P220 1.803 . S
C240 C241 1.378 . S
C240 C245 1.400 . S
C241 H225 0.939 . S
C241 C240 1.378 . S
C241 C242 1.361 . S
C242 H226 0.942 . S
C242 C241 1.361 . S
C242 C243 1.369 . S
C243 C242 1.369 . S
C243 C244 1.404 . S
C244 H227 0.940 . S
C244 C243 1.404 . S
C244 C245 1.389 . S
C245 H228 0.939 . S
C245 C240 1.400 . S
C245 C244 1.389 . S
C246 P220 1.819 . S
C246 C247 1.391 . S
C246 C251 1.391 . S
C247 H229 0.941 . S
C247 C246 1.391 . S
C247 C248 1.396 . S
C248 H232 0.939 . S
C248 C247 1.396 . S
C248 C249 1.397 . S
C249 C248 1.397 . S
C249 C250 1.385 . S
C250 H233 0.940 . S
C250 C249 1.385 . S
C250 C251 1.388 . S
C251 H230 0.939 . S
C251 C246 1.391 . S
C251 C250 1.388 . S
H252 C264 0.930 . S
H253 C266 0.930 . S
H254 C267 0.930 . S
H255 C271 0.959 . S
H256 C271 0.959 . S
H257 C271 0.961 . S
H258 C272 0.960 . S
H259 C272 0.961 . S
H260 C272 0.959 . S
H261 C275 0.929 . S
H262 C276 0.931 . S
H263 C278 0.930 . S
C264 H252 0.930 . S
C264 C265 1.399 . S
C264 C269 1.399 . S
C265 C264 1.399 . S
C265 C266 1.376 . S
C266 H253 0.930 . S
C266 C265 1.376 . S
C266 C267 1.388 . S
C267 H254 0.930 . S
C267 C266 1.388 . S
C267 C268 1.390 . S
C268 C267 1.390 . S
C268 C269 1.394 . S
C268 C274 1.465 . S
C269 C264 1.399 . S
C269 C268 1.394 . S
C269 C270 1.516 . S
C270 C269 1.516 . S
C270 C271 1.502 . S
C270 C272 1.561 . S
C270 C273 1.526 . S
C271 H255 0.959 . S
C271 H256 0.959 . S
C271 H257 0.961 . S
C271 C270 1.502 . S
C272 H258 0.960 . S
C272 H259 0.961 . S
C272 H260 0.959 . S
C272 C270 1.561 . S
C273 C270 1.526 . S
C273 C274 1.396 . S
C273 C278 1.390 . S
C274 C268 1.465 . S
C274 C273 1.396 . S
C274 C275 1.399 . S
C275 H261 0.929 . S
C275 C274 1.399 . S
C275 C276 1.385 . S
C276 H262 0.931 . S
C276 C275 1.385 . S
C276 C277 1.389 . S
C277 C276 1.389 . S
C277 C278 1.387 . S
C278 H263 0.930 . S
C278 C273 1.390 . S
C278 C277 1.387 . S
H279 C291 0.930 . S
H280 C293 0.930 . S
H281 C294 0.930 . S
H282 C298 0.959 . S
H283 C298 0.959 . S
H284 C298 0.961 . S
H285 C299 0.960 . S
H286 C299 0.961 . S
H287 C299 0.959 . S
H288 C302 0.929 . S
H289 C303 0.931 . S
H290 C305 0.930 . S
C291 H279 0.930 . S
C291 C292 1.399 . S
C291 C296 1.399 . S
C292 C291 1.399 . S
C292 C293 1.376 . S
C293 H280 0.930 . S
C293 C292 1.376 . S
C293 C294 1.388 . S
C294 H281 0.930 . S
C294 C293 1.388 . S
C294 C295 1.390 . S
C295 C294 1.390 . S
C295 C296 1.394 . S
C295 C301 1.465 . S
C296 C291 1.399 . S
C296 C295 1.394 . S
C296 C297 1.516 . S
C297 C296 1.516 . S
C297 C298 1.502 . S
C297 C299 1.561 . S
C297 C300 1.526 . S
C298 H282 0.959 . S
C298 H283 0.959 . S
C298 H284 0.961 . S
C298 C297 1.502 . S
C299 H285 0.960 . S
C299 H286 0.961 . S
C299 H287 0.959 . S
C299 C297 1.561 . S
C300 C297 1.526 . S
C300 C301 1.396 . S
C300 C305 1.390 . S
C301 C295 1.465 . S
C301 C300 1.396 . S
C301 C302 1.399 . S
C302 H288 0.929 . S
C302 C301 1.399 . S
C302 C303 1.385 . S
C303 H289 0.931 . S
C303 C302 1.385 . S
C303 C304 1.389 . S
C304 C303 1.389 . S
C304 C305 1.387 . S
C305 H290 0.930 . S
C305 C300 1.390 . S
C305 C304 1.387 . S
H306 C318 0.930 . S
H307 C320 0.930 . S
H308 C321 0.930 . S
H309 C325 0.959 . S
H310 C325 0.959 . S
H311 C325 0.961 . S
H312 C326 0.960 . S
H313 C326 0.961 . S
H314 C326 0.959 . S
H315 C329 0.929 . S
H316 C330 0.931 . S
H317 C332 0.930 . S
C318 H306 0.930 . S
C318 C319 1.399 . S
C318 C323 1.399 . S
C319 C318 1.399 . S
C319 C320 1.376 . S
C320 H307 0.930 . S
C320 C319 1.376 . S
C320 C321 1.388 . S
C321 H308 0.930 . S
C321 C320 1.388 . S
C321 C322 1.390 . S
C322 C321 1.390 . S
C322 C323 1.394 . S
C322 C328 1.465 . S
C323 C318 1.399 . S
C323 C322 1.394 . S
C323 C324 1.516 . S
C324 C323 1.516 . S
C324 C325 1.502 . S
C324 C326 1.561 . S
C324 C327 1.526 . S
C325 H309 0.959 . S
C325 H310 0.959 . S
C325 H311 0.961 . S
C325 C324 1.502 . S
C326 H312 0.960 . S
C326 H313 0.961 . S
C326 H314 0.959 . S
C326 C324 1.561 . S
C327 C324 1.526 . S
C327 C328 1.396 . S
C327 C332 1.390 . S
C328 C322 1.465 . S
C328 C327 1.396 . S
C328 C329 1.399 . S
C329 H315 0.929 . S
C329 C328 1.399 . S
C329 C330 1.385 . S
C330 H316 0.931 . S
C330 C329 1.385 . S
C330 C331 1.389 . S
C331 C330 1.389 . S
C331 C332 1.387 . S
C332 H317 0.930 . S
C332 C327 1.390 . S
C332 C331 1.387 . S
H333 C345 0.930 . S
H334 C347 0.930 . S
H335 C348 0.930 . S
H336 C352 0.959 . S
H337 C352 0.959 . S
H338 C352 0.961 . S
H339 C353 0.960 . S
H340 C353 0.961 . S
H341 C353 0.959 . S
H342 C356 0.929 . S
H343 C357 0.931 . S
H344 C359 0.930 . S
C345 H333 0.930 . S
C345 C346 1.399 . S
C345 C350 1.399 . S
C346 C345 1.399 . S
C346 C347 1.376 . S
C347 H334 0.930 . S
C347 C346 1.376 . S
C347 C348 1.388 . S
C348 H335 0.930 . S
C348 C347 1.388 . S
C348 C349 1.390 . S
C349 C348 1.390 . S
C349 C350 1.394 . S
C349 C355 1.465 . S
C350 C345 1.399 . S
C350 C349 1.394 . S
C350 C351 1.516 . S
C351 C350 1.516 . S
C351 C352 1.502 . S
C351 C353 1.561 . S
C351 C354 1.526 . S
C352 H336 0.959 . S
C352 H337 0.959 . S
C352 H338 0.961 . S
C352 C351 1.502 . S
C353 H339 0.960 . S
C353 H340 0.961 . S
C353 H341 0.959 . S
C353 C351 1.561 . S
C354 C351 1.526 . S
C354 C355 1.396 . S
C354 C359 1.390 . S
C355 C349 1.465 . S
C355 C354 1.396 . S
C355 C356 1.399 . S
C356 H342 0.929 . S
C356 C355 1.399 . S
C356 C357 1.385 . S
C357 H343 0.931 . S
C357 C356 1.385 . S
C357 C358 1.389 . S
C358 C357 1.389 . S
C358 C359 1.387 . S
C359 H344 0.930 . S
C359 C354 1.390 . S
C359 C358 1.387 . S
H360 C372 0.930 . S
H361 C374 0.930 . S
H362 C375 0.930 . S
H363 C379 0.959 . S
H364 C379 0.959 . S
H365 C379 0.961 . S
H366 C380 0.960 . S
H367 C380 0.961 . S
H368 C380 0.959 . S
H369 C383 0.929 . S
H370 C384 0.931 . S
H371 C386 0.930 . S
C372 H360 0.930 . S
C372 C373 1.399 . S
C372 C377 1.399 . S
C373 C372 1.399 . S
C373 C374 1.376 . S
C374 H361 0.930 . S
C374 C373 1.376 . S
C374 C375 1.388 . S
C375 H362 0.930 . S
C375 C374 1.388 . S
C375 C376 1.390 . S
C376 C375 1.390 . S
C376 C377 1.394 . S
C376 C382 1.465 . S
C377 C372 1.399 . S
C377 C376 1.394 . S
C377 C378 1.516 . S
C378 C377 1.516 . S
C378 C379 1.502 . S
C378 C380 1.561 . S
C378 C381 1.526 . S
C379 H363 0.959 . S
C379 H364 0.959 . S
C379 H365 0.961 . S
C379 C378 1.502 . S
C380 H366 0.960 . S
C380 H367 0.961 . S
C380 H368 0.959 . S
C380 C378 1.561 . S
C381 C378 1.526 . S
C381 C382 1.396 . S
C381 C386 1.390 . S
C382 C376 1.465 . S
C382 C381 1.396 . S
C382 C383 1.399 . S
C383 H369 0.929 . S
C383 C382 1.399 . S
C383 C384 1.385 . S
C384 H370 0.931 . S
C384 C383 1.385 . S
C384 C385 1.389 . S
C385 C384 1.389 . S
C385 C386 1.387 . S
C386 H371 0.930 . S
C386 C381 1.390 . S
C386 C385 1.387 . S
H387 C399 0.930 . S
H388 C401 0.930 . S
H389 C402 0.930 . S
H390 C406 0.959 . S
H391 C406 0.959 . S
H392 C406 0.961 . S
H393 C407 0.960 . S
H394 C407 0.961 . S
H395 C407 0.959 . S
H396 C410 0.929 . S
H397 C411 0.931 . S
H398 C413 0.930 . S
C399 H387 0.930 . S
C399 C400 1.399 . S
C399 C404 1.399 . S
C400 C399 1.399 . S
C400 C401 1.376 . S
C401 H388 0.930 . S
C401 C400 1.376 . S
C401 C402 1.388 . S
C402 H389 0.930 . S
C402 C401 1.388 . S
C402 C403 1.390 . S
C403 C402 1.390 . S
C403 C404 1.394 . S
C403 C409 1.465 . S
C404 C399 1.399 . S
C404 C403 1.394 . S
C404 C405 1.516 . S
C405 C404 1.516 . S
C405 C406 1.502 . S
C405 C407 1.561 . S
C405 C408 1.526 . S
C406 H390 0.959 . S
C406 H391 0.959 . S
C406 H392 0.961 . S
C406 C405 1.502 . S
C407 H393 0.960 . S
C407 H394 0.961 . S
C407 H395 0.959 . S
C407 C405 1.561 . S
C408 C405 1.526 . S
C408 C409 1.396 . S
C408 C413 1.390 . S
C409 C403 1.465 . S
C409 C408 1.396 . S
C409 C410 1.399 . S
C410 H396 0.929 . S
C410 C409 1.399 . S
C410 C411 1.385 . S
C411 H397 0.931 . S
C411 C410 1.385 . S
C411 C412 1.389 . S
C412 C411 1.389 . S
C412 C413 1.387 . S
C413 H398 0.930 . S
C413 C408 1.390 . S
C413 C412 1.387 . S
H414 C426 0.930 . S
H415 C428 0.930 . S
H416 C429 0.930 . S
H417 C433 0.959 . S
H418 C433 0.959 . S
H419 C433 0.961 . S
H420 C434 0.960 . S
H421 C434 0.961 . S
H422 C434 0.959 . S
H423 C437 0.929 . S
H424 C438 0.931 . S
H425 C440 0.930 . S
C426 H414 0.930 . S
C426 C427 1.399 . S
C426 C431 1.399 . S
C427 C426 1.399 . S
C427 C428 1.376 . S
C428 H415 0.930 . S
C428 C427 1.376 . S
C428 C429 1.388 . S
C429 H416 0.930 . S
C429 C428 1.388 . S
C429 C430 1.390 . S
C430 C429 1.390 . S
C430 C431 1.394 . S
C430 C436 1.465 . S
C431 C426 1.399 . S
C431 C430 1.394 . S
C431 C432 1.516 . S
C432 C431 1.516 . S
C432 C433 1.502 . S
C432 C434 1.561 . S
C432 C435 1.526 . S
C433 H417 0.959 . S
C433 H418 0.959 . S
C433 H419 0.961 . S
C433 C432 1.502 . S
C434 H420 0.960 . S
C434 H421 0.961 . S
C434 H422 0.959 . S
C434 C432 1.561 . S
C435 C432 1.526 . S
C435 C436 1.396 . S
C435 C440 1.390 . S
C436 C430 1.465 . S
C436 C435 1.396 . S
C436 C437 1.399 . S
C437 H423 0.929 . S
C437 C436 1.399 . S
C437 C438 1.385 . S
C438 H424 0.931 . S
C438 C437 1.385 . S
C438 C439 1.389 . S
C439 C438 1.389 . S
C439 C440 1.387 . S
C440 H425 0.930 . S
C440 C435 1.390 . S
C440 C439 1.387 . S
H441 C453 0.930 . S
H442 C455 0.930 . S
H443 C456 0.930 . S
H444 C460 0.959 . S
H445 C460 0.959 . S
H446 C460 0.961 . S
H447 C461 0.960 . S
H448 C461 0.961 . S
H449 C461 0.959 . S
H450 C464 0.929 . S
H451 C465 0.931 . S
H452 C467 0.930 . S
C453 H441 0.930 . S
C453 C454 1.399 . S
C453 C458 1.399 . S
C454 C453 1.399 . S
C454 C455 1.376 . S
C455 H442 0.930 . S
C455 C454 1.376 . S
C455 C456 1.388 . S
C456 H443 0.930 . S
C456 C455 1.388 . S
C456 C457 1.390 . S
C457 C456 1.390 . S
C457 C458 1.394 . S
C457 C463 1.465 . S
C458 C453 1.399 . S
C458 C457 1.394 . S
C458 C459 1.516 . S
C459 C458 1.516 . S
C459 C460 1.502 . S
C459 C461 1.561 . S
C459 C462 1.526 . S
C460 H444 0.959 . S
C460 H445 0.959 . S
C460 H446 0.961 . S
C460 C459 1.502 . S
C461 H447 0.960 . S
C461 H448 0.961 . S
C461 H449 0.959 . S
C461 C459 1.561 . S
C462 C459 1.526 . S
C462 C463 1.396 . S
C462 C467 1.390 . S
C463 C457 1.465 . S
C463 C462 1.396 . S
C463 C464 1.399 . S
C464 H450 0.929 . S
C464 C463 1.399 . S
C464 C465 1.385 . S
C465 H451 0.931 . S
C465 C464 1.385 . S
C465 C466 1.389 . S
C466 C465 1.389 . S
C466 C467 1.387 . S
C467 H452 0.930 . S
C467 C462 1.390 . S
C467 C466 1.387 . S
H468 C480 0.930 . S
H469 C482 0.930 . S
H470 C483 0.930 . S
H471 C487 0.959 . S
H472 C487 0.959 . S
H473 C487 0.961 . S
H474 C488 0.960 . S
H475 C488 0.961 . S
H476 C488 0.959 . S
H477 C491 0.929 . S
H478 C492 0.931 . S
H479 C494 0.930 . S
C480 H468 0.930 . S
C480 C481 1.399 . S
C480 C485 1.399 . S
C481 C480 1.399 . S
C481 C482 1.376 . S
C482 H469 0.930 . S
C482 C481 1.376 . S
C482 C483 1.388 . S
C483 H470 0.930 . S
C483 C482 1.388 . S
C483 C484 1.390 . S
C484 C483 1.390 . S
C484 C485 1.394 . S
C484 C490 1.465 . S
C485 C480 1.399 . S
C485 C484 1.394 . S
C485 C486 1.516 . S
C486 C485 1.516 . S
C486 C487 1.502 . S
C486 C488 1.561 . S
C486 C489 1.526 . S
C487 H471 0.959 . S
C487 H472 0.959 . S
C487 H473 0.961 . S
C487 C486 1.502 . S
C488 H474 0.960 . S
C488 H475 0.961 . S
C488 H476 0.959 . S
C488 C486 1.561 . S
C489 C486 1.526 . S
C489 C490 1.396 . S
C489 C494 1.390 . S
C490 C484 1.465 . S
C490 C489 1.396 . S
C490 C491 1.399 . S
C491 H477 0.929 . S
C491 C490 1.399 . S
C491 C492 1.385 . S
C492 H478 0.931 . S
C492 C491 1.385 . S
C492 C493 1.389 . S
C493 C492 1.389 . S
C493 C494 1.387 . S
C494 H479 0.930 . S
C494 C489 1.390 . S
C494 C493 1.387 . S
H495 C507 0.930 . S
H496 C509 0.930 . S
H497 C510 0.930 . S
H498 C514 0.959 . S
H499 C514 0.959 . S
H500 C514 0.961 . S
H501 C515 0.960 . S
H502 C515 0.961 . S
H503 C515 0.959 . S
H504 C518 0.929 . S
H505 C519 0.931 . S
H506 C521 0.930 . S
C507 H495 0.930 . S
C507 C508 1.399 . S
C507 C512 1.399 . S
C508 C507 1.399 . S
C508 C509 1.376 . S
C509 H496 0.930 . S
C509 C508 1.376 . S
C509 C510 1.388 . S
C510 H497 0.930 . S
C510 C509 1.388 . S
C510 C511 1.390 . S
C511 C510 1.390 . S
C511 C512 1.394 . S
C511 C517 1.465 . S
C512 C507 1.399 . S
C512 C511 1.394 . S
C512 C513 1.516 . S
C513 C512 1.516 . S
C513 C514 1.502 . S
C513 C515 1.561 . S
C513 C516 1.526 . S
C514 H498 0.959 . S
C514 H499 0.959 . S
C514 H500 0.961 . S
C514 C513 1.502 . S
C515 H501 0.960 . S
C515 H502 0.961 . S
C515 H503 0.959 . S
C515 C513 1.561 . S
C516 C513 1.526 . S
C516 C517 1.396 . S
C516 C521 1.390 . S
C517 C511 1.465 . S
C517 C516 1.396 . S
C517 C518 1.399 . S
C518 H504 0.929 . S
C518 C517 1.399 . S
C518 C519 1.385 . S
C519 H505 0.931 . S
C519 C518 1.385 . S
C519 C520 1.389 . S
C520 C519 1.389 . S
C520 C521 1.387 . S
C521 H506 0.930 . S
C521 C516 1.390 . S
C521 C520 1.387 . S
H522 C534 0.930 . S
H523 C536 0.930 . S
H524 C537 0.930 . S
H525 C541 0.959 . S
H526 C541 0.959 . S
H527 C541 0.961 . S
H528 C542 0.960 . S
H529 C542 0.961 . S
H530 C542 0.959 . S
H531 C545 0.929 . S
H532 C546 0.931 . S
H533 C548 0.930 . S
C534 H522 0.930 . S
C534 C535 1.399 . S
C534 C539 1.399 . S
C535 C534 1.399 . S
C535 C536 1.376 . S
C536 H523 0.930 . S
C536 C535 1.376 . S
C536 C537 1.388 . S
C537 H524 0.930 . S
C537 C536 1.388 . S
C537 C538 1.390 . S
C538 C537 1.390 . S
C538 C539 1.394 . S
C538 C544 1.465 . S
C539 C534 1.399 . S
C539 C538 1.394 . S
C539 C540 1.516 . S
C540 C539 1.516 . S
C540 C541 1.502 . S
C540 C542 1.561 . S
C540 C543 1.526 . S
C541 H525 0.959 . S
C541 H526 0.959 . S
C541 H527 0.961 . S
C541 C540 1.502 . S
C542 H528 0.960 . S
C542 H529 0.961 . S
C542 H530 0.959 . S
C542 C540 1.561 . S
C543 C540 1.526 . S
C543 C544 1.396 . S
C543 C548 1.390 . S
C544 C538 1.465 . S
C544 C543 1.396 . S
C544 C545 1.399 . S
C545 H531 0.929 . S
C545 C544 1.399 . S
C545 C546 1.385 . S
C546 H532 0.931 . S
C546 C545 1.385 . S
C546 C547 1.389 . S
C547 C546 1.389 . S
C547 C548 1.387 . S
C548 H533 0.930 . S
C548 C543 1.390 . S
C548 C547 1.387 . S
H549 C561 0.930 . S
H550 C563 0.930 . S
H551 C564 0.930 . S
H552 C568 0.959 . S
H553 C568 0.959 . S
H554 C568 0.961 . S
H555 C569 0.960 . S
H556 C569 0.961 . S
H557 C569 0.959 . S
H558 C572 0.929 . S
H559 C573 0.931 . S
H560 C575 0.930 . S
C561 H549 0.930 . S
C561 C562 1.399 . S
C561 C566 1.399 . S
C562 C561 1.399 . S
C562 C563 1.376 . S
C563 H550 0.930 . S
C563 C562 1.376 . S
C563 C564 1.388 . S
C564 H551 0.930 . S
C564 C563 1.388 . S
C564 C565 1.390 . S
C565 C564 1.390 . S
C565 C566 1.394 . S
C565 C571 1.465 . S
C566 C561 1.399 . S
C566 C565 1.394 . S
C566 C567 1.516 . S
C567 C566 1.516 . S
C567 C568 1.502 . S
C567 C569 1.561 . S
C567 C570 1.526 . S
C568 H552 0.959 . S
C568 H553 0.959 . S
C568 H554 0.961 . S
C568 C567 1.502 . S
C569 H555 0.960 . S
C569 H556 0.961 . S
C569 H557 0.959 . S
C569 C567 1.561 . S
C570 C567 1.526 . S
C570 C571 1.396 . S
C570 C575 1.390 . S
C571 C565 1.465 . S
C571 C570 1.396 . S
C571 C572 1.399 . S
C572 H558 0.929 . S
C572 C571 1.399 . S
C572 C573 1.385 . S
C573 H559 0.931 . S
C573 C572 1.385 . S
C573 C574 1.389 . S
C574 C573 1.389 . S
C574 C575 1.387 . S
C575 H560 0.930 . S
C575 C570 1.390 . S
C575 C574 1.387 . S
H576 C588 0.930 . S
H577 C590 0.930 . S
H578 C591 0.930 . S
H579 C595 0.959 . S
H580 C595 0.959 . S
H581 C595 0.961 . S
H582 C596 0.960 . S
H583 C596 0.961 . S
H584 C596 0.959 . S
H585 C599 0.929 . S
H586 C600 0.931 . S
H587 C602 0.930 1_556 S
C588 H576 0.930 . S
C588 C589 1.399 . S
C588 C593 1.399 . S
C589 C588 1.399 . S
C589 C590 1.376 1_455 S
C590 H577 0.930 . S
C590 C589 1.376 1_655 S
C590 C591 1.388 . S
C591 H578 0.930 . S
C591 C590 1.388 . S
C591 C592 1.390 1_655 S
C592 C591 1.390 1_455 S
C592 C593 1.394 . S
C592 C598 1.465 . S
C593 C588 1.399 . S
C593 C592 1.394 . S
C593 C594 1.516 . S
C594 C593 1.516 . S
C594 C595 1.502 . S
C594 C596 1.561 1_455 S
C594 C597 1.526 . S
C595 H579 0.959 . S
C595 H580 0.959 . S
C595 H581 0.961 . S
C595 C594 1.502 . S
C596 H582 0.960 . S
C596 H583 0.961 . S
C596 H584 0.959 . S
C596 C594 1.561 1_655 S
C597 C594 1.526 . S
C597 C598 1.396 . S
C597 C602 1.390 . S
C598 C592 1.465 . S
C598 C597 1.396 . S
C598 C599 1.399 . S
C599 H585 0.929 . S
C599 C598 1.399 . S
C599 C600 1.385 1_554 S
C600 H586 0.931 . S
C600 C599 1.385 1_556 S
C600 C601 1.389 . S
C601 C600 1.389 . S
C601 C602 1.387 1_556 S
C602 H587 0.930 1_554 S
C602 C597 1.390 . S
C602 C601 1.387 1_554 S
H603 C615 0.930 . S
H604 C617 0.930 . S
H605 C618 0.930 . S
H606 C622 0.959 . S
H607 C622 0.959 . S
H608 C622 0.961 . S
H609 C623 0.960 . S
H610 C623 0.961 . S
H611 C623 0.959 . S
H612 C626 0.929 . S
H613 C627 0.931 . S
H614 C629 0.930 . S
C615 H603 0.930 . S
C615 C616 1.399 . S
C615 C620 1.399 . S
C616 C615 1.399 . S
C616 C617 1.376 1_545 S
C617 H604 0.930 . S
C617 C616 1.376 1_565 S
C617 C618 1.388 . S
C618 H605 0.930 . S
C618 C617 1.388 . S
C618 C619 1.386 1_565 S
C619 C618 1.386 1_545 S
C619 C620 1.398 . S
C619 C625 1.466 . S
C620 C615 1.399 . S
C620 C619 1.398 . S
C620 C621 1.516 . S
C621 C620 1.516 . S
C621 C622 1.502 . S
C621 C623 1.561 . S
C621 C624 1.526 . S
C622 H606 0.959 . S
C622 H607 0.959 . S
C622 H608 0.961 . S
C622 C621 1.502 . S
C623 H609 0.960 . S
C623 H610 0.961 . S
C623 H611 0.959 . S
C623 C621 1.561 . S
C624 C621 1.526 . S
C624 C625 1.396 . S
C624 C629 1.390 . S
C625 C619 1.466 . S
C625 C624 1.396 . S
C625 C626 1.399 1_545 S
C626 H612 0.929 . S
C626 C625 1.399 1_565 S
C626 C627 1.385 . S
C627 H613 0.931 . S
C627 C626 1.385 . S
C627 C628 1.389 1_565 S
C628 C627 1.389 1_545 S
C628 C629 1.387 . S
C629 H614 0.930 . S
C629 C624 1.390 . S
C629 C628 1.387 . S
H630 C642 0.930 . S
H631 C644 0.930 . S
H632 C645 0.930 . S
H633 C649 0.959 . S
H634 C649 0.959 . S
H635 C649 0.961 . S
H636 C650 0.960 . S
H637 C650 0.961 . S
H638 C650 0.959 . S
H639 C653 0.929 . S
H640 C654 0.931 . S
H641 C656 0.930 . S
C642 H630 0.930 . S
C642 C643 1.399 . S
C642 C647 1.399 . S
C643 C642 1.399 . S
C643 C644 1.376 . S
C644 H631 0.930 . S
C644 C643 1.376 . S
C644 C645 1.388 . S
C645 H632 0.930 . S
C645 C644 1.388 . S
C645 C646 1.390 . S
C646 C645 1.390 . S
C646 C647 1.394 . S
C646 C652 1.465 . S
C647 C642 1.399 . S
C647 C646 1.394 . S
C647 C648 1.516 . S
C648 C647 1.516 . S
C648 C649 1.502 . S
C648 C650 1.561 . S
C648 C651 1.526 . S
C649 H633 0.959 . S
C649 H634 0.959 . S
C649 H635 0.961 . S
C649 C648 1.502 . S
C650 H636 0.960 . S
C650 H637 0.961 . S
C650 H638 0.959 . S
C650 C648 1.561 . S
C651 C648 1.526 . S
C651 C652 1.396 . S
C651 C656 1.390 . S
C652 C646 1.465 . S
C652 C651 1.396 . S
C652 C653 1.399 . S
C653 H639 0.929 . S
C653 C652 1.399 . S
C653 C654 1.385 . S
C654 H640 0.931 . S
C654 C653 1.385 . S
C654 C655 1.389 . S
C655 C654 1.389 . S
C655 C656 1.387 . S
C656 H641 0.930 . S
C656 C651 1.390 . S
C656 C655 1.387 . S
H657 C669 0.930 . S
H658 C671 0.930 . S
H659 C672 0.930 . S
H660 C676 0.959 . S
H661 C676 0.959 . S
H662 C676 0.961 . S
H663 C677 0.960 . S
H664 C677 0.961 . S
H665 C677 0.959 . S
H666 C680 0.929 . S
H667 C681 0.931 . S
H668 C683 0.930 . S
C669 H657 0.930 . S
C669 C670 1.399 . S
C669 C674 1.399 . S
C670 C669 1.399 . S
C670 C671 1.376 1_545 S
C671 H658 0.930 . S
C671 C670 1.376 1_565 S
C671 C672 1.388 . S
C672 H659 0.930 . S
C672 C671 1.388 . S
C672 C673 1.390 1_565 S
C673 C672 1.390 1_545 S
C673 C674 1.394 . S
C673 C679 1.465 . S
C674 C669 1.399 . S
C674 C673 1.394 . S
C674 C675 1.516 . S
C675 C674 1.516 . S
C675 C676 1.502 . S
C675 C677 1.561 . S
C675 C678 1.526 . S
C676 H660 0.959 . S
C676 H661 0.959 . S
C676 H662 0.961 . S
C676 C675 1.502 . S
C677 H663 0.960 . S
C677 H664 0.961 . S
C677 H665 0.959 . S
C677 C675 1.561 . S
C678 C675 1.526 . S
C678 C679 1.396 . S
C678 C683 1.390 . S
C679 C673 1.465 . S
C679 C678 1.396 . S
C679 C680 1.399 1_545 S
C680 H666 0.929 . S
C680 C679 1.399 1_565 S
C680 C681 1.385 . S
C681 H667 0.931 . S
C681 C680 1.385 . S
C681 C682 1.389 1_565 S
C682 C681 1.389 1_545 S
C682 C683 1.387 . S
C683 H668 0.930 . S
C683 C678 1.390 . S
C683 C682 1.387 . S
H684 C696 0.930 . S
H685 C698 0.930 . S
H686 C699 0.930 . S
H687 C703 0.959 . S
H688 C703 0.959 . S
H689 C703 0.961 . S
H690 C704 0.960 . S
H691 C704 0.961 . S
H692 C704 0.959 . S
H693 C707 0.929 . S
H694 C708 0.931 . S
H695 C710 0.930 . S
C696 H684 0.930 . S
C696 C697 1.399 . S
C696 C701 1.399 . S
C697 C696 1.399 . S
C697 C698 1.376 . S
C698 H685 0.930 . S
C698 C697 1.376 . S
C698 C699 1.388 . S
C699 H686 0.930 . S
C699 C698 1.388 . S
C699 C700 1.390 . S
C700 C699 1.390 . S
C700 C701 1.394 . S
C700 C706 1.465 . S
C701 C696 1.399 . S
C701 C700 1.394 . S
C701 C702 1.516 . S
C702 C701 1.516 . S
C702 C703 1.502 . S
C702 C704 1.561 . S
C702 C705 1.526 . S
C703 H687 0.959 . S
C703 H688 0.959 . S
C703 H689 0.961 . S
C703 C702 1.502 . S
C704 H690 0.960 . S
C704 H691 0.961 . S
C704 H692 0.959 . S
C704 C702 1.561 . S
C705 C702 1.526 . S
C705 C706 1.396 . S
C705 C710 1.390 . S
C706 C700 1.465 . S
C706 C705 1.396 . S
C706 C707 1.399 . S
C707 H693 0.929 . S
C707 C706 1.399 . S
C707 C708 1.385 1_556 S
C708 H694 0.931 . S
C708 C707 1.385 1_554 S
C708 C709 1.389 . S
C709 C708 1.389 . S
C709 C710 1.387 1_554 S
C710 H695 0.930 . S
C710 C705 1.390 . S
C710 C709 1.387 1_556 S
H711 C723 0.930 . S
H712 C725 0.930 . S
H713 C726 0.930 . S
H714 C730 0.959 1_455 S
H715 C730 0.959 . S
H716 C730 0.961 . S
H717 C731 0.960 . S
H718 C731 0.961 . S
H719 C731 0.959 . S
H720 C734 0.929 . S
H721 C735 0.931 . S
H722 C737 0.930 . S
C723 H711 0.930 . S
C723 C724 1.391 1_655 S
C723 C728 1.399 . S
C724 C723 1.391 1_455 S
C724 C725 1.386 . S
C725 H712 0.930 . S
C725 C724 1.386 . S
C725 C726 1.388 . S
C726 H713 0.930 . S
C726 C725 1.388 . S
C726 C727 1.390 . S
C727 C726 1.390 . S
C727 C728 1.394 1_455 S
C727 C733 1.465 . S
C728 C723 1.399 . S
C728 C727 1.394 1_655 S
C728 C729 1.516 . S
C729 C728 1.516 . S
C729 C730 1.502 . S
C729 C731 1.561 . S
C729 C732 1.526 . S
C730 H714 0.959 1_655 S
C730 H715 0.959 . S
C730 H716 0.961 . S
C730 C729 1.502 . S
C731 H717 0.960 . S
C731 H718 0.961 . S
C731 H719 0.959 . S
C731 C729 1.561 . S
C732 C729 1.526 . S
C732 C733 1.396 1_655 S
C732 C737 1.390 . S
C733 C727 1.465 . S
C733 C732 1.396 1_455 S
C733 C734 1.399 . S
C734 H720 0.929 . S
C734 C733 1.399 . S
C734 C735 1.385 . S
C735 H721 0.931 . S
C735 C734 1.385 . S
C735 C736 1.389 . S
C736 C735 1.389 . S
C736 C737 1.387 1_455 S
C737 H722 0.930 . S
C737 C732 1.390 . S
C737 C736 1.387 1_655 S
C265 C2 1.366 . S
C277 C243 1.370 . S
C292 C22 1.381 . S
C304 C179 1.371 . S
C319 C44 1.359 . S
C331 C211 1.474 . S
C346 C4 1.513 . S
C358 C237 1.572 . S
C385 C173 1.589 . S
C373 C24 1.493 . S
C412 C205 1.550 . S
C400 C42 1.431 . S
C427 C32 1.296 . S
C439 C115 1.349 . S
C454 C49 1.219 . S
C466 C147 1.246 . S
C481 C9 1.211 . S
C493 C77 1.241 . S
C520 C109 1.238 . S
C508 C29 1.242 . S
C547 C141 1.289 . S
C535 C52 1.201 . S
C562 C12 1.199 . S
C574 C83 1.303 . S
C601 C153 1.391 . S
C589 C18 1.413 1_455 S
C616 C38 1.420 . S
C628 C89 1.369 . S
C643 C58 1.406 . S
C655 C121 1.435 . S
C682 C217 1.495 . S
C670 C39 1.491 . S
C709 C249 1.488 . S
C697 C59 1.471 . S
C724 C19 1.449 . S
C736 C185 1.432 . S
