# Generated by pormake.
# Topology pth, (4,4)-cn, num edge types: 1
# Building blocks:
#     Node 0, Type 0, BuildingBlock: TATPOV_clean_sbu_0, # of connection points: 4
#     Node 1, Type 0, BuildingBlock: TATPOV_clean_sbu_0, # of connection points: 4
#     Node 2, Type 0, BuildingBlock: TATPOV_clean_sbu_0, # of connection points: 4
#     Node 3, Type 1, BuildingBlock: NAHDIM_clean_linker_0, # of connection points: 4
#     Node 4, Type 1, BuildingBlock: NAHDIM_clean_linker_0, # of connection points: 4
#     Node 5, Type 1, BuildingBlock: NAHDIM_clean_linker_0, # of connection points: 4
#     Edge 6, Type (0, 1), BuildingBlock: FUNLAD_clean_linker_1, # of connection points: 2
#     Edge 7, Type (0, 1), BuildingBlock: FUNLAD_clean_linker_1, # of connection points: 2
#     Edge 8, Type (0, 1), BuildingBlock: FUNLAD_clean_linker_1, # of connection points: 2
#     Edge 9, Type (0, 1), BuildingBlock: FUNLAD_clean_linker_1, # of connection points: 2
#     Edge 10, Type (0, 1), BuildingBlock: FUNLAD_clean_linker_1, # of connection points: 2
#     Edge 11, Type (0, 1), BuildingBlock: FUNLAD_clean_linker_1, # of connection points: 2
#     Edge 12, Type (0, 1), BuildingBlock: FUNLAD_clean_linker_1, # of connection points: 2
#     Edge 13, Type (0, 1), BuildingBlock: FUNLAD_clean_linker_1, # of connection points: 2
#     Edge 14, Type (0, 1), BuildingBlock: FUNLAD_clean_linker_1, # of connection points: 2
#     Edge 15, Type (0, 1), BuildingBlock: FUNLAD_clean_linker_1, # of connection points: 2
#     Edge 16, Type (0, 1), BuildingBlock: FUNLAD_clean_linker_1, # of connection points: 2
#     Edge 17, Type (0, 1), BuildingBlock: FUNLAD_clean_linker_1, # of connection points: 2
# Relax obj value: 0.054
# Max RMSD: 0.173
# Mean RMSD: 0.111
data_MOF--net-pth--node1-TATPOV_clean_sbu_0--node2-NAHDIM_clean_linker_0--edge1-FUNLAD_clean_linker_1
_symmetry_space_group_name_H-M    P1
_symmetry_Int_Tables_number       1
_symmetry_cell_setting            triclinic
loop_
_symmetry_equiv_pos_as_xyz
'x, y, z'
_cell_length_a     32.976524
_cell_length_b     32.590658
_cell_length_c     81.443265
_cell_angle_alpha  92.05512
_cell_angle_beta   92.630828
_cell_angle_gamma 121.10484
loop_
_atom_site_label
_atom_site_type_symbol
_atom_site_fract_x
_atom_site_fract_y
_atom_site_fract_z
_atom_type_partial_charge
Zn0 Zn 0.14465 0.02672 0.03502 0.0
Zn1 Zn 0.10909 0.07441 0.05168 0.0
O2 O 0.1184 0.03539 0.06913 0.0
O3 O 0.14946 0.9985 0.05634 0.0
O4 O 0.09045 0.11662 0.06399 0.0
O5 O 0.19816 0.08932 0.02749 0.0
O6 O 0.16726 0.12543 0.04079 0.0
C7 C 0.13425 0.00705 0.06923 0.0
C8 C 0.04819 0.0008 0.02358 0.0
O9 O 0.05312 0.03139 0.0349 0.0
O10 O 0.08143 0.99287 0.0213 0.0
C11 C 0.07806 0.11252 0.07867 0.0
O12 O 0.07402 0.07681 0.0869 0.0
C13 C 0.19839 0.12724 0.03169 0.0
Zn14 Zn 0.11544 0.09682 0.35955 0.0
Zn15 Zn 0.04116 0.08208 0.37773 0.0
O16 O 0.0926 0.09136 0.39516 0.0
O17 O 0.15265 0.10265 0.38105 0.0
O18 O 0.98821 0.07592 0.39101 0.0
O19 O 0.1176 0.15547 0.35063 0.0
O20 O 0.05788 0.14163 0.36535 0.0
C21 C 0.13432 0.09864 0.39469 0.0
C22 C 0.02863 0.00376 0.35248 0.0
O23 O 0.01207 0.01885 0.3634 0.0
O24 O 0.07092 0.03017 0.34855 0.0
C25 C 0.98059 0.05905 0.40511 0.0
O26 O 0.00632 0.04233 0.41125 0.0
C27 C 0.08816 0.16662 0.35528 0.0
Zn28 Zn 0.06602 0.99201 0.74483 0.0
Zn29 Zn 0.03062 0.00885 0.71646 0.0
O30 O 0.07985 0.9942 0.70817 0.0
O31 O 0.10923 0.9806 0.73079 0.0
O32 O 0.00346 0.02087 0.69578 0.0
O33 O 0.99959 0.93703 0.74825 0.0
O34 O 0.97234 0.95211 0.72547 0.0
C35 C 0.10834 0.98396 0.71535 0.0
C36 C 0.08176 0.08779 0.74459 0.0
O37 O 0.0605 0.07286 0.73028 0.0
O38 O 0.08805 0.06018 0.75352 0.0
C39 C 0.97046 0.02999 0.69642 0.0
O40 O 0.95408 0.03152 0.71069 0.0
C41 C 0.96535 0.92755 0.73797 0.0
C42 C 0.88891 0.62667 0.32051 0.0
C43 C 0.93254 0.65901 0.31126 0.0
C44 C 0.94556 0.64018 0.28363 0.0
C45 C 0.99534 0.66721 0.28441 0.0
C46 C 0.02047 0.65524 0.27372 0.0
C47 C 0.9952 0.61467 0.26232 0.0
C48 C 0.94481 0.58819 0.26126 0.0
C49 C 0.92071 0.60217 0.27168 0.0
C50 C 0.074 0.68539 0.27489 0.0
C51 C 0.9162 0.54394 0.24962 0.0
C52 C 0.19636 0.5268 0.32301 0.0
C53 C 0.15655 0.48992 0.31071 0.0
C54 C 0.14178 0.51233 0.28389 0.0
C55 C 0.09206 0.48337 0.2821 0.0
C56 C 0.06539 0.49466 0.27127 0.0
C57 C 0.08904 0.53598 0.26221 0.0
C58 C 0.13936 0.56412 0.26358 0.0
C59 C 0.16504 0.55125 0.27419 0.0
C60 C 0.01199 0.46294 0.26974 0.0
C61 C 0.16608 0.60886 0.25434 0.0
C62 C 0.05338 0.42564 0.15799 0.0
C63 C 0.0105 0.41748 0.16372 0.0
C64 C 0.00743 0.45518 0.17114 0.0
C65 C 0.04811 0.50208 0.17289 0.0
C66 C 0.09068 0.51095 0.16632 0.0
C67 C 0.09261 0.47253 0.15878 0.0
C68 C 0.96089 0.44463 0.17748 0.0
C69 C 0.13446 0.56057 0.16783 0.0
C70 C 0.95006 0.77611 0.16613 0.0
C71 C 0.99543 0.77631 0.16288 0.0
C72 C 0.99542 0.70154 0.16058 0.0
C73 C 0.96152 0.65244 0.15903 0.0
C74 C 0.97104 0.61908 0.1659 0.0
C75 C 0.01617 0.63542 0.17404 0.0
C76 C 0.05173 0.68483 0.17458 0.0
C77 C 0.04083 0.71745 0.16794 0.0
C78 C 0.93235 0.56675 0.165 0.0
C79 C 0.10088 0.70342 0.18256 0.0
C80 C 0.02104 0.59714 0.25258 0.0
C81 C 0.04176 0.57493 0.26092 0.0
C82 C 0.0616 0.55236 0.2524 0.0
C83 C 0.05786 0.54891 0.23499 0.0
C84 C 0.07159 0.52113 0.22594 0.0
C85 C 0.06731 0.51777 0.20878 0.0
C86 C 0.05109 0.54375 0.20007 0.0
C87 C 0.04637 0.54051 0.18264 0.0
C88 C 0.03509 0.57074 0.17441 0.0
C89 C 0.02518 0.60192 0.18319 0.0
C90 C 0.02424 0.6013 0.20054 0.0
C91 C 0.00913 0.62791 0.20964 0.0
C92 C 0.00775 0.62644 0.22668 0.0
C93 C 0.02274 0.59945 0.23531 0.0
C94 C 0.03978 0.57389 0.22645 0.0
C95 C 0.03858 0.57315 0.20901 0.0
C96 C 0.07487 0.3525 0.17402 0.0
C97 C 0.04164 0.34571 0.15904 0.0
O98 O 0.92065 0.6493 0.29445 0.0
O99 O 0.98328 0.73268 0.15489 0.0
O100 O 0.05802 0.38903 0.15184 0.0
O101 O 0.16831 0.50395 0.29492 0.0
H102 H 0.96021 0.65059 0.31505 0.0
H103 H 0.87678 0.5884 0.31734 0.0
H104 H 0.85929 0.63245 0.31713 0.0
H105 H 0.89781 0.63406 0.33404 0.0
H106 H 0.0145 0.69753 0.29341 0.0
H107 H 0.88223 0.58191 0.27112 0.0
H108 H 0.08865 0.66633 0.28164 0.0
H109 H 0.08748 0.7209 0.28158 0.0
H110 H 0.08749 0.69115 0.26242 0.0
H111 H 0.87816 0.52326 0.25225 0.0
H112 H 0.93072 0.51994 0.25042 0.0
H113 H 0.91825 0.5547 0.23678 0.0
H114 H 0.12341 0.48899 0.31367 0.0
H115 H 0.18759 0.51677 0.33583 0.0
H116 H 0.20083 0.56271 0.32174 0.0
H117 H 0.23049 0.52922 0.32074 0.0
H118 H 0.07411 0.45207 0.28919 0.0
H119 H 0.2035 0.57286 0.27552 0.0
H120 H 0.99639 0.4815 0.27622 0.0
H121 H 0.9997 0.42802 0.27521 0.0
H122 H 0.99833 0.45602 0.25659 0.0
H123 H 0.20467 0.62956 0.2582 0.0
H124 H 0.15154 0.63257 0.25631 0.0
H125 H 0.16168 0.59877 0.24094 0.0
H126 H 0.00551 0.33186 0.16322 0.0
H127 H 0.97927 0.38174 0.16241 0.0
H128 H 0.12536 0.47864 0.15407 0.0
H129 H 0.96463 0.4489 0.19115 0.0
H130 H 0.93137 0.40759 0.17362 0.0
H131 H 0.95136 0.47057 0.173 0.0
H132 H 0.16457 0.56184 0.16178 0.0
H133 H 0.14551 0.57266 0.18105 0.0
H134 H 0.12633 0.58628 0.16219 0.0
H135 H 0.01494 0.78192 0.17507 0.0
H136 H 0.95883 0.81062 0.17262 0.0
H137 H 0.92813 0.74649 0.17402 0.0
H138 H 0.92883 0.77066 0.15437 0.0
H139 H 0.92682 0.64054 0.15304 0.0
H140 H 0.06768 0.75535 0.16855 0.0
H141 H 0.9261 0.55375 0.17759 0.0
H142 H 0.9437 0.54517 0.1579 0.0
H143 H 0.89839 0.56027 0.15903 0.0
H144 H 0.12649 0.74067 0.17944 0.0
H145 H 0.11427 0.67978 0.17869 0.0
H146 H 0.09944 0.70325 0.19615 0.0
H147 H 0.0425 0.57526 0.27426 0.0
H148 H 0.08485 0.50093 0.23205 0.0
H149 H 0.07771 0.49528 0.20242 0.0
H150 H 0.03316 0.56934 0.16106 0.0
H151 H 0.99731 0.64946 0.20366 0.0
H152 H 0.99533 0.64715 0.23306 0.0
H153 H 0.06249 0.31775 0.17963 0.0
H154 H 0.0752 0.37814 0.18347 0.0
H155 H 0.11171 0.36695 0.17042 0.0
C156 C 0.36812 0.9394 0.65681 0.0
C157 C 0.36018 0.97392 0.64686 0.0
C158 C 0.39595 0.97996 0.62099 0.0
C159 C 0.42802 0.02954 0.62084 0.0
C160 C 0.46773 0.04739 0.61147 0.0
C161 C 0.47555 0.01487 0.60218 0.0
C162 C 0.44262 0.96484 0.60209 0.0
C163 C 0.40273 0.94811 0.6113 0.0
C164 C 0.50139 0.10097 0.61156 0.0
C165 C 0.44991 0.929 0.59247 0.0
C166 C 0.84983 0.16924 0.64717 0.0
C167 C 0.80879 0.13115 0.63542 0.0
C168 C 0.73792 0.12712 0.6221 0.0
C169 C 0.71177 0.0773 0.618 0.0
C170 C 0.66744 0.05567 0.60892 0.0
C171 C 0.64912 0.08441 0.60386 0.0
C172 C 0.67508 0.13438 0.60824 0.0
C173 C 0.71909 0.15496 0.61732 0.0
C174 C 0.64049 0.0023 0.60448 0.0
C175 C 0.65662 0.16622 0.60314 0.0
C176 C 0.7165 0.08659 0.49917 0.0
C177 C 0.68106 0.04075 0.50312 0.0
C178 C 0.64105 0.03412 0.51078 0.0
C179 C 0.63651 0.07424 0.51457 0.0
C180 C 0.67111 0.12014 0.50988 0.0
C181 C 0.71054 0.12561 0.50205 0.0
C182 C 0.60401 0.98437 0.51509 0.0
C183 C 0.66711 0.16353 0.51361 0.0
C184 C 0.31588 0.06863 0.50496 0.0
C185 C 0.34609 0.08107 0.4901 0.0
C186 C 0.40021 0.05216 0.49708 0.0
C187 C 0.40696 0.01341 0.49493 0.0
C188 C 0.4442 0.01263 0.50371 0.0
C189 C 0.47622 0.0523 0.51465 0.0
C190 C 0.47028 0.0922 0.51664 0.0
C191 C 0.43193 0.09137 0.50807 0.0
C192 C 0.44909 0.96928 0.50137 0.0
C193 C 0.5045 0.13597 0.52779 0.0
C194 C 0.51864 0.03297 0.59287 0.0
C195 C 0.56171 0.04669 0.60166 0.0
C196 C 0.60344 0.06307 0.59364 0.0
C197 C 0.60191 0.06346 0.57628 0.0
C198 C 0.64245 0.07636 0.56771 0.0
C199 C 0.64069 0.07712 0.55063 0.0
C200 C 0.59876 0.06669 0.54152 0.0
C201 C 0.5968 0.0682 0.52418 0.0
C202 C 0.55609 0.06229 0.5157 0.0
C203 C 0.51615 0.05258 0.52402 0.0
C204 C 0.51593 0.04631 0.54113 0.0
C205 C 0.47507 0.03236 0.54965 0.0
C206 C 0.47563 0.02739 0.56656 0.0
C207 C 0.5173 0.03697 0.57563 0.0
C208 C 0.55893 0.05139 0.56729 0.0
C209 C 0.55782 0.05464 0.54996 0.0
C210 C 0.82383 0.11596 0.51116 0.0
C211 C 0.78509 0.07761 0.49885 0.0
O212 O 0.35789 0.96198 0.63021 0.0
O213 O 0.36289 0.05008 0.48833 0.0
O214 O 0.75661 0.09403 0.49256 0.0
O215 O 0.7816 0.15019 0.63037 0.0
H216 H 0.39008 0.0112 0.65029 0.0
H217 H 0.40199 0.94225 0.65382 0.0
H218 H 0.33862 0.90171 0.65385 0.0
H219 H 0.37039 0.94848 0.67023 0.0
H220 H 0.42176 0.05431 0.62787 0.0
H221 H 0.37733 0.90992 0.61137 0.0
H222 H 0.53541 0.11087 0.61844 0.0
H223 H 0.48689 0.12146 0.61748 0.0
H224 H 0.50928 0.11192 0.59878 0.0
H225 H 0.4236 0.89134 0.59497 0.0
H226 H 0.4862 0.93598 0.59555 0.0
H227 H 0.44665 0.93303 0.57908 0.0
H228 H 0.7871 0.09906 0.6424 0.0
H229 H 0.86718 0.1535 0.65434 0.0
H230 H 0.83605 0.18445 0.65624 0.0
H231 H 0.87664 0.19905 0.64029 0.0
H232 H 0.7258 0.05523 0.6217 0.0
H233 H 0.73947 0.1933 0.62058 0.0
H234 H 0.63529 0.99554 0.59086 0.0
H235 H 0.60475 0.98544 0.60928 0.0
H236 H 0.6592 0.98472 0.60949 0.0
H237 H 0.68031 0.2041 0.60806 0.0
H238 H 0.62077 0.15258 0.60755 0.0
H239 H 0.65315 0.16535 0.58949 0.0
H240 H 0.76421 0.04455 0.50548 0.0
H241 H 0.6846 0.01012 0.5002 0.0
H242 H 0.73777 0.16071 0.49868 0.0
H243 H 0.60453 0.98289 0.52869 0.0
H244 H 0.61018 0.95633 0.50979 0.0
H245 H 0.56807 0.97597 0.51055 0.0
H246 H 0.6974 0.19689 0.50939 0.0
H247 H 0.66563 0.16848 0.52709 0.0
H248 H 0.63359 0.15776 0.50751 0.0
H249 H 0.37603 0.11899 0.49168 0.0
H250 H 0.30263 0.09354 0.50669 0.0
H251 H 0.33747 0.07198 0.51636 0.0
H252 H 0.28506 0.03117 0.50322 0.0
H253 H 0.38241 0.98329 0.48645 0.0
H254 H 0.42745 0.1217 0.51005 0.0
H255 H 0.45302 0.95677 0.51351 0.0
H256 H 0.48158 0.97928 0.49493 0.0
H257 H 0.4181 0.93913 0.49399 0.0
H258 H 0.49995 0.16693 0.52575 0.0
H259 H 0.54179 0.14694 0.52581 0.0
H260 H 0.49848 0.12729 0.54083 0.0
H261 H 0.56299 0.04561 0.61497 0.0
H262 H 0.67586 0.08541 0.57411 0.0
H263 H 0.6729 0.08694 0.54468 0.0
H264 H 0.55561 0.06562 0.5025 0.0
H265 H 0.44211 0.02485 0.54331 0.0
H266 H 0.44317 0.01661 0.57247 0.0
H267 H 0.84739 0.10357 0.51609 0.0
H268 H 0.80729 0.1229 0.52165 0.0
H269 H 0.84558 0.15017 0.50523 0.0
C270 C 0.66069 0.58018 0.75541 0.0
C271 C 0.66687 0.61407 0.77007 0.0
C272 C 0.63876 0.5862 0.79711 0.0
C273 C 0.62401 0.61844 0.8013 0.0
C274 C 0.59344 0.60933 0.81396 0.0
C275 C 0.57738 0.5672 0.82252 0.0
C276 C 0.59387 0.53579 0.81874 0.0
C277 C 0.62492 0.54617 0.80622 0.0
C278 C 0.57773 0.64429 0.81802 0.0
C279 C 0.57746 0.49038 0.82753 0.0
C280 C 0.22981 0.46251 0.78593 0.0
C281 C 0.26055 0.44313 0.7923 0.0
C282 C 0.31811 0.47038 0.81603 0.0
C283 C 0.33889 0.44313 0.81248 0.0
C284 C 0.38296 0.45532 0.82027 0.0
C285 C 0.40747 0.49663 0.83141 0.0
C286 C 0.38645 0.52422 0.83492 0.0
C287 C 0.34138 0.50975 0.82753 0.0
C288 C 0.40326 0.42412 0.81646 0.0
C289 C 0.4118 0.56978 0.8461 0.0
C290 C 0.38478 0.43619 0.93794 0.0
C291 C 0.40624 0.41498 0.92951 0.0
C292 C 0.44443 0.44227 0.91993 0.0
C293 C 0.46108 0.49164 0.91866 0.0
C294 C 0.44076 0.51351 0.92774 0.0
C295 C 0.40319 0.48548 0.93748 0.0
C296 C 0.46639 0.41813 0.91093 0.0
C297 C 0.45776 0.56607 0.92676 0.0
C298 C 0.7964 0.79548 0.91787 0.0
C299 C 0.77693 0.77522 0.93434 0.0
C300 C 0.7156 0.69104 0.92629 0.0
C301 C 0.70503 0.64354 0.92578 0.0
C302 C 0.66166 0.60571 0.91836 0.0
C303 C 0.62788 0.61575 0.91144 0.0
C304 C 0.638 0.66364 0.91211 0.0
C305 C 0.68183 0.70076 0.91935 0.0
C306 C 0.65205 0.55512 0.9178 0.0
C307 C 0.60242 0.67576 0.90519 0.0
C308 C 0.54062 0.55366 0.83451 0.0
C309 C 0.49335 0.5323 0.82825 0.0
C310 C 0.45612 0.51287 0.83865 0.0
C311 C 0.46619 0.51249 0.8557 0.0
C312 C 0.42971 0.48844 0.86629 0.0
C313 C 0.44008 0.48989 0.88315 0.0
C314 C 0.48726 0.51641 0.89008 0.0
C315 C 0.4982 0.51964 0.90726 0.0
C316 C 0.54492 0.55039 0.91385 0.0
C317 C 0.58152 0.57665 0.90364 0.0
C318 C 0.572 0.56971 0.88633 0.0
C319 C 0.60866 0.59169 0.87564 0.0
C320 C 0.59864 0.58558 0.85861 0.0
C321 C 0.55149 0.55897 0.85173 0.0
C322 C 0.51405 0.53726 0.86232 0.0
C323 C 0.52448 0.54081 0.87958 0.0
C324 C 0.26264 0.36784 0.93962 0.0
C325 C 0.30763 0.36518 0.94095 0.0
O326 O 0.66631 0.59238 0.78444 0.0
O327 O 0.75855 0.72606 0.93349 0.0
O328 O 0.34604 0.40988 0.94646 0.0
O329 O 0.27578 0.45976 0.80861 0.0
H330 H 0.63683 0.62048 0.76887 0.0
H331 H 0.62671 0.54544 0.7558 0.0
H332 H 0.69031 0.57317 0.75574 0.0
H333 H 0.65966 0.59588 0.74362 0.0
H334 H 0.63632 0.65067 0.79475 0.0
H335 H 0.63721 0.52202 0.80305 0.0
H336 H 0.53958 0.62774 0.81392 0.0
H337 H 0.59834 0.67838 0.81191 0.0
H338 H 0.5816 0.65255 0.83155 0.0
H339 H 0.59129 0.46831 0.8224 0.0
H340 H 0.53804 0.46835 0.82663 0.0
H341 H 0.58965 0.49969 0.84079 0.0
H342 H 0.29178 0.45712 0.7847 0.0
H343 H 0.21796 0.45061 0.77272 0.0
H344 H 0.25067 0.50241 0.78709 0.0
H345 H 0.19807 0.44972 0.79313 0.0
H346 H 0.32056 0.41202 0.80379 0.0
H347 H 0.32487 0.53039 0.83021 0.0
H348 H 0.43151 0.44201 0.80782 0.0
H349 H 0.37579 0.38836 0.81062 0.0
H350 H 0.41946 0.4189 0.82784 0.0
H351 H 0.39577 0.59227 0.84449 0.0
H352 H 0.44997 0.59155 0.84376 0.0
H353 H 0.40942 0.56045 0.85913 0.0
H354 H 0.312 0.35409 0.92838 0.0
H355 H 0.39303 0.37708 0.93038 0.0
H356 H 0.38675 0.50157 0.94427 0.0
H357 H 0.45713 0.41532 0.89749 0.0
H358 H 0.45379 0.38145 0.91492 0.0
H359 H 0.50571 0.43995 0.91297 0.0
H360 H 0.43611 0.57685 0.9337 0.0
H361 H 0.45653 0.57428 0.91369 0.0
H362 H 0.49527 0.58814 0.93186 0.0
H363 H 0.74906 0.78316 0.93743 0.0
H364 H 0.81088 0.83481 0.91842 0.0
H365 H 0.7678 0.77841 0.90776 0.0
H366 H 0.82503 0.78861 0.9149 0.0
H367 H 0.73116 0.63621 0.93113 0.0
H368 H 0.6891 0.73713 0.9195 0.0
H369 H 0.64188 0.53899 0.90493 0.0
H370 H 0.62172 0.53283 0.92525 0.0
H371 H 0.68331 0.55367 0.92264 0.0
H372 H 0.61328 0.71364 0.90845 0.0
H373 H 0.56702 0.6518 0.9098 0.0
H374 H 0.59862 0.66996 0.89155 0.0
H375 H 0.48548 0.53089 0.81509 0.0
H376 H 0.39277 0.46807 0.86163 0.0
H377 H 0.41055 0.47083 0.89072 0.0
H378 H 0.55263 0.55497 0.92711 0.0
H379 H 0.6455 0.61334 0.88034 0.0
H380 H 0.62815 0.603 0.85092 0.0
H381 H 0.23148 0.33239 0.93508 0.0
H382 H 0.26679 0.39464 0.93075 0.0
H383 H 0.25583 0.37886 0.95175 0.0
H384 H 0.07917 0.18084 0.07959 0.0
C385 C 0.07284 0.15071 0.08669 0.0
H386 H 0.05904 0.12197 0.10999 0.0
H387 H 0.1442 0.31836 0.15173 0.0
H388 H 0.20144 0.29529 0.15889 0.0
H389 H 0.19794 0.226 0.14412 0.0
H390 H 0.1369 0.17909 0.12221 0.0
C391 C 0.06353 0.15092 0.10258 0.0
C392 C 0.06577 0.19344 0.11107 0.0
C393 C 0.10217 0.22099 0.1237 0.0
C394 C 0.10475 0.26153 0.13201 0.0
C395 C 0.14089 0.28768 0.14483 0.0
C396 C 0.174 0.27478 0.1491 0.0
C397 C 0.17199 0.23574 0.1408 0.0
C398 C 0.13663 0.20904 0.12826 0.0
H399 H 0.00724 0.27153 0.14709 0.0
C400 C 0.03775 0.30775 0.1468 0.0
H401 H 0.10458 0.3509 0.13748 0.0
H402 H 0.989 0.14629 0.08844 0.0
H403 H 0.93399 0.17159 0.08037 0.0
H404 H 0.94228 0.24546 0.09328 0.0
H405 H 0.00513 0.29395 0.11455 0.0
C406 C 0.07256 0.31553 0.13708 0.0
C407 C 0.07117 0.27479 0.12758 0.0
C408 C 0.03553 0.24803 0.11463 0.0
C409 C 0.03214 0.20668 0.10663 0.0
C410 C 0.99446 0.17906 0.09445 0.0
C411 C 0.96241 0.19301 0.08978 0.0
C412 C 0.96696 0.23449 0.09709 0.0
C413 C 0.00302 0.26182 0.10937 0.0
H414 H 0.92569 0.07699 0.40937 0.0
C415 C 0.94596 0.06265 0.41495 0.0
H416 H 0.9631 0.04004 0.43679 0.0
H417 H 0.91281 0.16194 0.48412 0.0
H418 H 0.99884 0.20948 0.48692 0.0
H419 H 0.04627 0.19122 0.46882 0.0
H420 H 0.00794 0.12514 0.44785 0.0
C421 C 0.94139 0.05218 0.43081 0.0
C422 C 0.91218 0.06358 0.44127 0.0
C423 C 0.93516 0.10259 0.45339 0.0
C424 C 0.90782 0.11348 0.46369 0.0
C425 C 0.93176 0.1523 0.47584 0.0
C426 C 0.98118 0.17989 0.4776 0.0
C427 C 0.00788 0.16958 0.46742 0.0
C428 C 0.98537 0.13146 0.45545 0.0
H429 H 0.80723 0.03199 0.48562 0.0
C430 C 0.80682 0.06508 0.48513 0.0
H431 H 0.83171 0.12967 0.47341 0.0
H432 H 0.85696 0.98528 0.41969 0.0
H433 H 0.77084 0.93937 0.41625 0.0
H434 H 0.72346 0.96051 0.43331 0.0
H435 H 0.76192 0.02737 0.45404 0.0
C436 C 0.82947 0.09521 0.47344 0.0
C437 C 0.85754 0.08528 0.46188 0.0
C438 C 0.83451 0.04696 0.4495 0.0
C439 C 0.86187 0.03571 0.43932 0.0
C440 C 0.83796 0.99616 0.42747 0.0
C441 C 0.78853 0.96939 0.42542 0.0
C442 C 0.76185 0.98121 0.43505 0.0
C443 C 0.78436 0.01951 0.44696 0.0
H444 H 0.88837 0.8811 0.73133 0.0
C445 C 0.91707 0.88719 0.74013 0.0
H446 H 0.93607 0.86328 0.76127 0.0
H447 H 0.73044 0.7462 0.78611 0.0
H448 H 0.77002 0.81217 0.80713 0.0
H449 H 0.85067 0.88061 0.804 0.0
H450 H 0.89226 0.8835 0.77985 0.0
C451 C 0.90799 0.85705 0.75216 0.0
C452 C 0.85929 0.81564 0.75391 0.0
C453 C 0.83561 0.81445 0.76816 0.0
C454 C 0.78917 0.77495 0.77 0.0
C455 C 0.76601 0.775 0.78421 0.0
C456 C 0.78823 0.81275 0.79634 0.0
C457 C 0.83363 0.85129 0.79457 0.0
C458 C 0.85716 0.85241 0.78066 0.0
H459 H 0.74422 0.6654 0.77714 0.0
C460 C 0.71346 0.6608 0.76987 0.0
H461 H 0.68897 0.68879 0.7516 0.0
H462 H 0.89671 0.8033 0.72601 0.0
H463 H 0.85672 0.73766 0.705 0.0
H464 H 0.77478 0.67109 0.70764 0.0
H465 H 0.73263 0.66963 0.73144 0.0
C466 C 0.71884 0.69444 0.75968 0.0
C467 C 0.7666 0.73672 0.75761 0.0
C468 C 0.79009 0.73794 0.74334 0.0
C469 C 0.83684 0.777 0.7416 0.0
C470 C 0.86051 0.77568 0.72768 0.0
C471 C 0.83811 0.73791 0.71558 0.0
C472 C 0.79203 0.70039 0.71708 0.0
C473 C 0.76821 0.70007 0.7308 0.0
H474 H 0.13407 0.94819 0.08169 0.0
C475 C 0.12804 0.97782 0.08339 0.0
H476 H 0.10124 0.01057 0.0986 0.0
H477 H 0.94712 0.82002 0.12723 0.0
H478 H 0.89984 0.8464 0.1127 0.0
H479 H 0.93718 0.91593 0.09565 0.0
H480 H 0.02194 0.9598 0.09319 0.0
C481 C 0.1085 0.98179 0.09702 0.0
C482 C 0.08701 0.94169 0.1082 0.0
C483 C 0.03707 0.91598 0.10931 0.0
C484 C 0.01533 0.87507 0.11878 0.0
C485 C 0.9655 0.85071 0.11994 0.0
C486 C 0.93785 0.86555 0.1117 0.0
C487 C 0.95888 0.90473 0.10213 0.0
C488 C 0.00778 0.92972 0.10087 0.0
H489 H 0.05176 0.852 0.15934 0.0
C490 C 0.02642 0.81777 0.15277 0.0
H491 H 0.99189 0.78216 0.12978 0.0
H492 H 0.18397 0.98707 0.11085 0.0
H493 H 0.23121 0.95913 0.12463 0.0
H494 H 0.19289 0.88406 0.13894 0.0
H495 H 0.10733 0.83708 0.13988 0.0
C496 C 0.01951 0.81544 0.13629 0.0
C497 C 0.04334 0.85931 0.12689 0.0
C498 C 0.09332 0.88521 0.1259 0.0
C499 C 0.11527 0.92717 0.11691 0.0
C500 C 0.1654 0.95386 0.11689 0.0
C501 C 0.19293 0.9384 0.12484 0.0
C502 C 0.17137 0.89624 0.13296 0.0
C503 C 0.12218 0.86977 0.1335 0.0
H504 H 0.14553 0.10167 0.42175 0.0
C505 C 0.16054 0.10096 0.4102 0.0
H506 H 0.21656 0.09994 0.39899 0.0
H507 H 0.36555 0.18675 0.46034 0.0
H508 H 0.40051 0.25133 0.44199 0.0
H509 H 0.35622 0.24866 0.41633 0.0
H510 H 0.27684 0.18115 0.4088 0.0
C511 C 0.20083 0.1 0.41043 0.0
C512 C 0.22662 0.10163 0.42617 0.0
C513 C 0.27278 0.14166 0.4305 0.0
C514 C 0.29794 0.14363 0.44546 0.0
C515 C 0.34442 0.18366 0.44929 0.0
C516 C 0.36502 0.22099 0.43884 0.0
C517 C 0.34012 0.21946 0.42438 0.0
C518 C 0.29457 0.18039 0.42019 0.0
H519 H 0.306 0.04644 0.46562 0.0
C520 C 0.31684 0.07649 0.47459 0.0
H521 H 0.31535 0.13906 0.48056 0.0
H522 H 0.14142 0.01644 0.42061 0.0
H523 H 0.10466 0.95388 0.43961 0.0
H524 H 0.14485 0.96122 0.46681 0.0
H525 H 0.22255 0.03058 0.47496 0.0
C526 C 0.30357 0.10844 0.47177 0.0
C527 C 0.27667 0.10583 0.45618 0.0
C528 C 0.23006 0.0662 0.45201 0.0
C529 C 0.20563 0.06337 0.43675 0.0
C530 C 0.16062 0.02171 0.43238 0.0
C531 C 0.13922 0.98528 0.44312 0.0
C532 C 0.16193 0.98931 0.4584 0.0
C533 C 0.20677 0.0292 0.46287 0.0
H534 H 0.09865 0.1619 0.74171 0.0
C535 C 0.10163 0.13853 0.75025 0.0
H536 H 0.12995 0.13446 0.7735 0.0
H537 H 0.29895 0.35016 0.77893 0.0
H538 H 0.34043 0.30682 0.77746 0.0
H539 H 0.29617 0.21874 0.77204 0.0
H540 H 0.21024 0.17346 0.76821 0.0
C541 C 0.12546 0.15713 0.76506 0.0
C542 C 0.15158 0.20985 0.76936 0.0
C543 C 0.20192 0.23572 0.77151 0.0
C544 C 0.22751 0.28655 0.77436 0.0
C545 C 0.27776 0.31155 0.77654 0.0
C546 C 0.30204 0.28712 0.77575 0.0
C547 C 0.27711 0.23754 0.77272 0.0
C548 C 0.22769 0.21196 0.77058 0.0
H549 H 0.21185 0.3697 0.80091 0.0
C550 C 0.23231 0.389 0.79077 0.0
H551 H 0.25097 0.38401 0.7667 0.0
H552 H 0.05526 0.1706 0.7686 0.0
H553 H 0.01385 0.21411 0.76978 0.0
H554 H 0.05837 0.30269 0.77281 0.0
H555 H 0.14445 0.34822 0.77497 0.0
C556 C 0.23016 0.36474 0.77677 0.0
C557 C 0.2028 0.31142 0.77497 0.0
C558 C 0.15245 0.28554 0.77322 0.0
C559 C 0.12678 0.23457 0.77076 0.0
C560 C 0.07651 0.20942 0.76981 0.0
C561 C 0.0523 0.23393 0.7706 0.0
C562 C 0.07736 0.28379 0.77236 0.0
C563 C 0.12683 0.30949 0.77365 0.0
H564 H 0.96668 0.03814 0.66971 0.0
C565 C 0.95203 0.04001 0.68122 0.0
H566 H 0.90318 0.05337 0.69253 0.0
H567 H 0.93805 0.16282 0.62237 0.0
H568 H 0.01927 0.21548 0.63369 0.0
H569 H 0.04727 0.20051 0.66012 0.0
H570 H 0.99451 0.13258 0.67526 0.0
C571 C 0.9191 0.05258 0.68122 0.0
C572 C 0.90184 0.06367 0.66576 0.0
C573 C 0.9331 0.10427 0.65724 0.0
C574 C 0.91663 0.11369 0.64223 0.0
C575 C 0.94865 0.15408 0.63385 0.0
C576 C 0.99535 0.1847 0.64023 0.0
C577 C 0.01113 0.17622 0.6551 0.0
C578 C 0.98051 0.13673 0.66359 0.0
H579 H 0.81869 0.12678 0.60849 0.0
C580 C 0.82674 0.11791 0.62047 0.0
H581 H 0.86264 0.08841 0.60923 0.0
H582 H 0.83242 0.98351 0.67912 0.0
H583 H 0.75072 0.93211 0.66801 0.0
H584 H 0.72227 0.94898 0.64204 0.0
H585 H 0.77539 0.01751 0.62706 0.0
C586 C 0.85137 0.09539 0.62078 0.0
C587 C 0.86848 0.08385 0.63615 0.0
C588 C 0.8372 0.04347 0.64466 0.0
C589 C 0.85379 0.03356 0.65955 0.0
C590 C 0.82172 0.9929 0.6678 0.0
C591 C 0.77474 0.963 0.66153 0.0
C592 C 0.75871 0.97251 0.64691 0.0
C593 C 0.78948 0.01207 0.63848 0.0
H594 H 0.97513 0.98125 0.01526 0.0
C595 C 0.00351 0.97456 0.01296 0.0
H596 H 0.0261 0.93738 0.99771 0.0
H597 H 0.79623 0.79489 0.98064 0.0
H598 H 0.79594 0.76895 0.00821 0.0
H599 H 0.86799 0.81064 0.02733 0.0
H600 H 0.94063 0.87884 0.01904 0.0
C601 C 0.99755 0.94333 0.0005 0.0
C602 C 0.95365 0.91866 0.98925 0.0
C603 C 0.91178 0.87843 0.99423 0.0
C604 C 0.8706 0.85365 0.98307 0.0
C605 C 0.82885 0.81431 0.98848 0.0
C606 C 0.82814 0.79917 0.0043 0.0
C607 C 0.86868 0.8227 0.01507 0.0
C608 C 0.91011 0.86188 0.01017 0.0
H609 H 0.8364 0.7821 0.95112 0.0
C610 C 0.8163 0.79899 0.94788 0.0
H611 H 0.8113 0.86069 0.95102 0.0
H612 H 0.02793 0.99508 0.97603 0.0
H613 H 0.02855 0.02057 0.94837 0.0
H614 H 0.95756 0.97682 0.92884 0.0
H615 H 0.88551 0.90743 0.93687 0.0
C616 C 0.82944 0.84238 0.95496 0.0
C617 C 0.87178 0.86868 0.96688 0.0
C618 C 0.91351 0.90925 0.96199 0.0
C619 C 0.95454 0.9342 0.97318 0.0
C620 C 0.99584 0.97457 0.96797 0.0
C621 C 0.99667 0.98964 0.95213 0.0
C622 C 0.95669 0.96504 0.94115 0.0
C623 C 0.91553 0.92529 0.94593 0.0
H624 H 0.9627 0.9325 0.34834 0.0
C625 C 0.99934 0.95394 0.34521 0.0
H626 H 0.05452 0.95473 0.33275 0.0
H627 H 0.91442 0.72279 0.3436 0.0
H628 H 0.92998 0.74551 0.3729 0.0
H629 H 0.97596 0.83086 0.38309 0.0
H630 H 0.00539 0.89375 0.3641 0.0
C631 C 0.01813 0.93348 0.33613 0.0
C632 C 0.99078 0.88176 0.33025 0.0
C633 C 0.97591 0.84551 0.34164 0.0
C634 C 0.95209 0.79635 0.33579 0.0
C635 C 0.93483 0.76071 0.34737 0.0
C636 C 0.94318 0.77324 0.36424 0.0
C637 C 0.96885 0.82127 0.36997 0.0
C638 C 0.98521 0.85711 0.35888 0.0
H639 H 0.98545 0.731 0.32342 0.0
C640 C 0.9517 0.71125 0.31606 0.0
H641 H 0.89404 0.71394 0.30497 0.0
H642 H 0.01208 0.94184 0.30519 0.0
H643 H 0.99869 0.9188 0.27587 0.0
H644 H 0.96148 0.83379 0.26579 0.0
H645 H 0.93706 0.77124 0.28496 0.0
C646 C 0.92739 0.73297 0.31255 0.0
C647 C 0.94614 0.78368 0.31862 0.0
C648 C 0.96014 0.81971 0.30726 0.0
C649 C 0.98229 0.86879 0.31308 0.0
C650 C 0.99573 0.90407 0.30145 0.0
C651 C 0.98814 0.89134 0.28458 0.0
C652 C 0.96714 0.84347 0.27891 0.0
C653 C 0.95327 0.80792 0.29005 0.0
H654 H 0.16733 0.97141 0.71291 0.0
C655 C 0.14254 0.97816 0.70603 0.0
H656 H 0.12254 0.99179 0.68278 0.0
H657 H 0.3289 0.07612 0.65824 0.0
H658 H 0.32012 0.14561 0.65857 0.0
H659 H 0.24981 0.14194 0.66945 0.0
H660 H 0.18774 0.06876 0.67997 0.0
C661 C 0.14589 0.98336 0.68976 0.0
C662 C 0.18535 0.98362 0.68146 0.0
C663 C 0.22119 0.0267 0.67529 0.0
C664 C 0.26207 0.02906 0.66925 0.0
C665 C 0.2974 0.07255 0.66318 0.0
C666 C 0.29276 0.11268 0.66325 0.0
C667 C 0.25316 0.11059 0.66937 0.0
C668 C 0.21774 0.06827 0.67536 0.0
H669 H 0.28211 0.94653 0.64319 0.0
C670 C 0.31438 0.97037 0.65093 0.0
H671 H 0.34452 0.01704 0.67236 0.0
H672 H 0.11901 0.89314 0.68929 0.0
H673 H 0.12799 0.82376 0.68926 0.0
H674 H 0.20148 0.82941 0.68078 0.0
H675 H 0.2659 0.90398 0.67198 0.0
C676 C 0.31223 0.99301 0.66466 0.0
C677 C 0.26715 0.98846 0.66943 0.0
C678 C 0.23048 0.94481 0.67504 0.0
C679 C 0.18904 0.94212 0.68068 0.0
C680 C 0.15202 0.89761 0.68552 0.0
C681 C 0.15658 0.85744 0.68546 0.0
C682 C 0.19788 0.86058 0.68063 0.0
C683 C 0.23454 0.90365 0.6755 0.0
H684 H 0.22877 0.20418 0.02835 0.0
C685 C 0.22953 0.17257 0.02411 0.0
H686 H 0.24876 0.14142 0.00515 0.0
H687 H 0.21159 0.27133 0.95727 0.0
H688 H 0.13688 0.1959 0.95256 0.0
H689 H 0.11965 0.12712 0.96889 0.0
H690 H 0.17688 0.13384 0.99021 0.0
C691 C 0.25045 0.17361 0.01024 0.0
C692 C 0.26403 0.21361 0.99931 0.0
C693 C 0.23109 0.20837 0.98637 0.0
C694 C 0.24178 0.24742 0.97654 0.0
C695 C 0.20658 0.24224 0.96455 0.0
C696 C 0.16317 0.19919 0.96184 0.0
C697 C 0.15342 0.16053 0.97106 0.0
C698 C 0.18668 0.16492 0.98325 0.0
H699 H 0.29727 0.29409 0.94677 0.0
C700 C 0.30228 0.32741 0.9523 0.0
H701 H 0.30393 0.36481 0.97426 0.0
H702 H 0.33473 0.23475 0.02293 0.0
H703 H 0.41049 0.30999 0.02748 0.0
H704 H 0.43046 0.37698 0.00985 0.0
H705 H 0.37484 0.36939 0.98762 0.0
C706 C 0.29853 0.33151 0.96856 0.0
C707 C 0.28651 0.29092 0.97914 0.0
C708 C 0.3195 0.29597 0.99204 0.0
C709 C 0.30814 0.25729 0.00218 0.0
C710 C 0.34164 0.26318 0.01496 0.0
C711 C 0.38523 0.30607 0.01766 0.0
C712 C 0.39647 0.34381 0.00773 0.0
C713 C 0.36419 0.339 0.99503 0.0
H714 H 0.06522 0.21918 0.35473 0.0
C715 C 0.08954 0.20977 0.34966 0.0
H716 H 0.14439 0.22934 0.33357 0.0
H717 H 0.08151 0.35853 0.29565 0.0
H718 H 0.05217 0.29075 0.27556 0.0
H719 H 0.0549 0.21893 0.28224 0.0
H720 H 0.0868 0.21439 0.30913 0.0
C721 C 0.12053 0.23849 0.33915 0.0
C722 C 0.12238 0.28326 0.33472 0.0
C723 C 0.10472 0.2858 0.31884 0.0
C724 C 0.10385 0.32752 0.3149 0.0
C725 C 0.0842 0.32829 0.29916 0.0
C726 C 0.06694 0.28947 0.28754 0.0
C727 C 0.06842 0.24901 0.29131 0.0
C728 C 0.08687 0.2469 0.30678 0.0
H729 H 0.17386 0.43272 0.30598 0.0
C730 C 0.15059 0.44128 0.31234 0.0
H731 H 0.10022 0.42091 0.33008 0.0
H732 H 0.16332 0.29202 0.36573 0.0
H733 H 0.1936 0.3601 0.38572 0.0
H734 H 0.19134 0.43215 0.37902 0.0
H735 H 0.15896 0.43657 0.35228 0.0
C736 C 0.12118 0.41096 0.32288 0.0
C737 C 0.12153 0.36694 0.32678 0.0
C738 C 0.1399 0.36468 0.34259 0.0
C739 C 0.14071 0.32296 0.34652 0.0
C740 C 0.1607 0.3223 0.36221 0.0
C741 C 0.17853 0.3613 0.37378 0.0
C742 C 0.1773 0.40187 0.37001 0.0
C743 C 0.15845 0.40384 0.3546 0.0
loop_
_geom_bond_atom_site_label_1
_geom_bond_atom_site_label_2
_geom_bond_distance
_geom_bond_site_symmetry_2
_ccdc_geom_bond_type
Zn0 O3 2.031 1_545 S
Zn0 O5 2.049 . S
Zn0 O10 2.067 . S
Zn1 O2 1.962 . S
Zn1 O4 1.986 . S
Zn1 O6 1.996 . S
Zn1 O9 1.943 . S
O2 Zn1 1.962 . S
O2 C7 1.254 . S
O3 Zn0 2.031 1_565 S
O3 C7 1.269 1_565 S
O4 Zn1 1.986 . S
O4 C11 1.262 . S
O5 Zn0 2.049 . S
O5 C13 1.260 . S
O6 Zn1 1.996 . S
O6 C13 1.257 . S
C7 O2 1.254 . S
C7 O3 1.269 1_545 S
C8 O9 1.249 . S
C8 O10 1.270 . S
O9 Zn1 1.943 . S
O9 C8 1.249 . S
O10 Zn0 2.067 . S
O10 C8 1.270 . S
C11 O4 1.262 . S
C11 O12 1.232 . S
O12 C11 1.232 . S
C13 O5 1.260 . S
C13 O6 1.257 . S
Zn14 O17 2.031 . S
Zn14 O19 2.049 . S
Zn14 O24 2.067 . S
Zn15 O16 1.962 . S
Zn15 O18 1.986 1_455 S
Zn15 O20 1.996 . S
Zn15 O23 1.943 . S
O16 Zn15 1.962 . S
O16 C21 1.254 . S
O17 Zn14 2.031 . S
O17 C21 1.269 . S
O18 Zn15 1.986 1_655 S
O18 C25 1.262 . S
O19 Zn14 2.049 . S
O19 C27 1.260 . S
O20 Zn15 1.996 . S
O20 C27 1.257 . S
C21 O16 1.254 . S
C21 O17 1.269 . S
C22 O23 1.249 . S
C22 O24 1.270 . S
O23 Zn15 1.943 . S
O23 C22 1.249 . S
O24 Zn14 2.067 . S
O24 C22 1.270 . S
C25 O18 1.262 . S
C25 O26 1.232 . S
O26 C25 1.232 . S
C27 O19 1.260 . S
C27 O20 1.257 . S
Zn28 O31 2.031 1_565 S
Zn28 O33 2.049 . S
Zn28 O38 2.067 1_565 S
Zn29 O30 1.962 . S
Zn29 O32 1.986 1_455 S
Zn29 O34 1.996 1_445 S
Zn29 O37 1.943 . S
O30 Zn29 1.962 . S
O30 C35 1.254 . S
O31 Zn28 2.031 1_545 S
O31 C35 1.269 . S
O32 Zn29 1.986 1_655 S
O32 C39 1.262 . S
O33 Zn28 2.049 . S
O33 C41 1.260 1_455 S
O34 Zn29 1.996 1_665 S
O34 C41 1.257 . S
C35 O30 1.254 . S
C35 O31 1.269 . S
C36 O37 1.249 . S
C36 O38 1.270 . S
O37 Zn29 1.943 . S
O37 C36 1.249 . S
O38 Zn28 2.067 1_545 S
O38 C36 1.270 . S
C39 O32 1.262 . S
C39 O40 1.232 1_655 S
O40 C39 1.232 1_455 S
C41 O33 1.260 1_655 S
C41 O34 1.257 . S
C42 C43 1.560 1_655 S
C42 H103 0.959 . S
C42 H104 0.959 . S
C42 H105 0.960 . S
C43 C42 1.560 1_455 S
C43 O98 1.426 1_455 S
C43 H102 0.980 . S
C44 C45 1.407 . S
C44 C49 1.418 1_455 S
C44 O98 1.334 1_455 S
C45 C44 1.407 . S
C45 C46 1.360 . S
C45 H106 0.929 . S
C46 C45 1.360 . S
C46 C47 1.401 . S
C46 C50 1.527 . S
C47 C46 1.401 . S
C47 C48 1.405 1_455 S
C47 C80 1.587 . S
C48 C47 1.405 1_655 S
C48 C49 1.332 . S
C48 C51 1.496 . S
C49 C44 1.418 1_655 S
C49 C48 1.332 . S
C49 H107 0.929 . S
C50 C46 1.527 . S
C50 H108 0.959 . S
C50 H109 0.961 . S
C50 H110 0.961 . S
C51 C48 1.496 . S
C51 H111 0.960 . S
C51 H112 0.960 . S
C51 H113 0.961 . S
C52 C53 1.517 . S
C52 H115 0.961 . S
C52 H116 0.960 . S
C52 H117 0.959 . S
C53 C52 1.517 . S
C53 O101 1.468 . S
C53 H114 0.980 . S
C54 C55 1.349 . S
C54 C59 1.367 . S
C54 O101 1.408 . S
C55 C54 1.349 . S
C55 C56 1.407 . S
C55 H118 0.930 . S
C56 C55 1.407 . S
C56 C57 1.449 . S
C56 C60 1.535 1_455 S
C57 C56 1.449 . S
C57 C58 1.384 . S
C57 C82 1.553 . S
C58 C57 1.384 . S
C58 C59 1.364 . S
C58 C61 1.450 . S
C59 C54 1.367 . S
C59 C58 1.364 . S
C59 H119 0.931 . S
C60 C56 1.535 1_655 S
C60 H120 0.959 . S
C60 H121 0.961 . S
C60 H122 0.959 . S
C61 C58 1.450 . S
C61 H123 0.960 . S
C61 H124 0.960 . S
C61 H125 0.960 . S
C62 C63 1.309 . S
C62 C67 1.304 . S
C62 O100 1.435 . S
C63 C62 1.309 . S
C63 C64 1.476 . S
C63 H127 0.930 . S
C64 C63 1.476 . S
C64 C65 1.400 . S
C64 C68 1.567 1_455 S
C65 C64 1.400 . S
C65 C66 1.373 . S
C65 C87 1.432 . S
C66 C65 1.373 . S
C66 C67 1.339 . S
C66 C69 1.530 . S
C67 C62 1.304 . S
C67 C66 1.339 . S
C67 H128 0.930 . S
C68 C64 1.567 1_655 S
C68 H129 0.961 . S
C68 H130 0.960 . S
C68 H131 0.958 . S
C69 C66 1.530 . S
C69 H132 0.961 . S
C69 H133 0.960 . S
C69 H134 0.960 . S
C70 C71 1.530 . S
C70 H136 0.961 . S
C70 H137 0.961 1_455 S
C70 H138 0.959 1_455 S
C71 C70 1.530 . S
C71 O99 1.412 . S
C71 H135 0.980 . S
C72 C73 1.288 1_455 S
C72 C77 1.377 . S
C72 O99 1.393 . S
C73 C72 1.288 1_655 S
C73 C74 1.369 1_655 S
C73 H139 0.932 . S
C74 C73 1.369 1_455 S
C74 C75 1.398 . S
C74 C78 1.527 1_455 S
C75 C74 1.398 . S
C75 C76 1.380 . S
C75 C89 1.497 . S
C76 C75 1.380 . S
C76 C77 1.383 . S
C76 C79 1.603 . S
C77 C72 1.377 . S
C77 C76 1.383 . S
C77 H140 0.929 . S
C78 C74 1.527 1_655 S
C78 H141 0.961 . S
C78 H142 0.959 . S
C78 H143 0.959 . S
C79 C76 1.603 . S
C79 H144 0.960 . S
C79 H145 0.962 . S
C79 H146 0.961 . S
C80 C47 1.587 . S
C80 C81 1.360 . S
C80 C93 1.412 . S
C81 C80 1.360 . S
C81 C82 1.365 . S
C81 H147 0.929 . S
C82 C57 1.553 . S
C82 C81 1.365 . S
C82 C83 1.404 . S
C83 C82 1.404 . S
C83 C84 1.395 . S
C83 C94 1.451 . S
C84 C83 1.395 . S
C84 C85 1.322 . S
C84 H148 0.930 . S
C85 C84 1.322 . S
C85 C86 1.459 . S
C85 H149 0.929 . S
C86 C85 1.459 . S
C86 C87 1.445 . S
C86 C95 1.395 . S
C87 C65 1.432 . S
C87 C86 1.445 . S
C87 C88 1.370 . S
C88 C87 1.370 . S
C88 C89 1.438 . S
C88 H150 0.930 . S
C89 C75 1.497 . S
C89 C88 1.438 . S
C89 C90 1.360 . S
C90 C89 1.360 . S
C90 C91 1.401 . S
C90 C95 1.446 . S
C91 C90 1.401 . S
C91 C92 1.347 . S
C91 H151 0.929 . S
C92 C91 1.347 . S
C92 C93 1.455 . S
C92 H152 0.930 . S
C93 C80 1.412 . S
C93 C92 1.455 . S
C93 C94 1.331 . S
C94 C83 1.451 . S
C94 C93 1.331 . S
C94 C95 1.497 . S
C95 C86 1.395 . S
C95 C90 1.446 . S
C95 C94 1.497 . S
C96 C97 1.582 . S
C96 H153 0.962 . S
C96 H154 0.959 . S
C96 H155 0.958 . S
C97 C96 1.582 . S
C97 O100 1.458 . S
C97 H126 0.980 . S
O98 C43 1.426 1_655 S
O98 C44 1.334 1_655 S
O99 C71 1.412 . S
O99 C72 1.393 . S
O100 C62 1.435 . S
O100 C97 1.458 . S
O101 C53 1.468 . S
O101 C54 1.408 . S
H102 C43 0.980 . S
H103 C42 0.959 . S
H104 C42 0.959 . S
H105 C42 0.960 . S
H106 C45 0.929 . S
H107 C49 0.929 . S
H108 C50 0.959 . S
H109 C50 0.961 . S
H110 C50 0.961 . S
H111 C51 0.960 . S
H112 C51 0.960 . S
H113 C51 0.961 . S
H114 C53 0.980 . S
H115 C52 0.961 . S
H116 C52 0.960 . S
H117 C52 0.959 . S
H118 C55 0.930 . S
H119 C59 0.931 . S
H120 C60 0.959 . S
H121 C60 0.961 . S
H122 C60 0.959 . S
H123 C61 0.960 . S
H124 C61 0.960 . S
H125 C61 0.960 . S
H126 C97 0.980 . S
H127 C63 0.930 . S
H128 C67 0.930 . S
H129 C68 0.961 . S
H130 C68 0.960 . S
H131 C68 0.958 . S
H132 C69 0.961 . S
H133 C69 0.960 . S
H134 C69 0.960 . S
H135 C71 0.980 . S
H136 C70 0.961 . S
H137 C70 0.961 1_655 S
H138 C70 0.959 1_655 S
H139 C73 0.932 . S
H140 C77 0.929 . S
H141 C78 0.961 . S
H142 C78 0.959 . S
H143 C78 0.959 . S
H144 C79 0.960 . S
H145 C79 0.962 . S
H146 C79 0.961 . S
H147 C81 0.929 . S
H148 C84 0.930 . S
H149 C85 0.929 . S
H150 C88 0.930 . S
H151 C91 0.929 . S
H152 C92 0.930 . S
H153 C96 0.962 . S
H154 C96 0.959 . S
H155 C96 0.958 . S
C156 C157 1.560 1_565 S
C156 H217 0.959 . S
C156 H218 0.959 . S
C156 H219 0.960 . S
C157 C156 1.560 1_545 S
C157 O212 1.426 1_545 S
C157 H216 0.980 . S
C158 C159 1.407 . S
C158 C163 1.418 1_545 S
C158 O212 1.334 1_545 S
C159 C158 1.407 . S
C159 C160 1.360 . S
C159 H220 0.929 . S
C160 C159 1.360 . S
C160 C161 1.401 . S
C160 C164 1.527 . S
C161 C160 1.401 . S
C161 C162 1.405 . S
C161 C194 1.587 . S
C162 C161 1.405 . S
C162 C163 1.332 1_545 S
C162 C165 1.496 1_545 S
C163 C158 1.418 1_565 S
C163 C162 1.332 1_565 S
C163 H221 0.929 . S
C164 C160 1.527 . S
C164 H222 0.959 . S
C164 H223 0.961 . S
C164 H224 0.961 . S
C165 C162 1.496 1_565 S
C165 H225 0.960 . S
C165 H226 0.960 . S
C165 H227 0.961 . S
C166 C167 1.517 . S
C166 H229 0.961 . S
C166 H230 0.960 . S
C166 H231 0.959 . S
C167 C166 1.517 . S
C167 O215 1.468 . S
C167 H228 0.980 . S
C168 C169 1.349 . S
C168 C173 1.367 . S
C168 O215 1.408 . S
C169 C168 1.349 . S
C169 C170 1.407 . S
C169 H232 0.930 . S
C170 C169 1.407 . S
C170 C171 1.449 . S
C170 C174 1.535 . S
C171 C170 1.449 . S
C171 C172 1.384 . S
C171 C196 1.553 . S
C172 C171 1.384 . S
C172 C173 1.364 . S
C172 C175 1.450 . S
C173 C168 1.367 . S
C173 C172 1.364 . S
C173 H233 0.931 . S
C174 C170 1.535 . S
C174 H234 0.959 . S
C174 H235 0.961 1_545 S
C174 H236 0.959 1_545 S
C175 C172 1.450 . S
C175 H237 0.960 . S
C175 H238 0.960 . S
C175 H239 0.960 . S
C176 C177 1.309 . S
C176 C181 1.304 . S
C176 O214 1.435 . S
C177 C176 1.309 . S
C177 C178 1.476 . S
C177 H241 0.930 . S
C178 C177 1.476 . S
C178 C179 1.400 . S
C178 C182 1.567 . S
C179 C178 1.400 . S
C179 C180 1.373 . S
C179 C201 1.432 . S
C180 C179 1.373 . S
C180 C181 1.339 . S
C180 C183 1.530 . S
C181 C176 1.304 . S
C181 C180 1.339 . S
C181 H242 0.930 . S
C182 C178 1.567 . S
C182 H243 0.961 . S
C182 H244 0.960 1_545 S
C182 H245 0.958 1_545 S
C183 C180 1.530 . S
C183 H246 0.961 . S
C183 H247 0.960 . S
C183 H248 0.960 . S
C184 C185 1.530 . S
C184 H250 0.961 . S
C184 H251 0.961 . S
C184 H252 0.959 . S
C185 C184 1.530 . S
C185 O213 1.412 . S
C185 H249 0.980 . S
C186 C187 1.288 . S
C186 C191 1.377 . S
C186 O213 1.393 . S
C187 C186 1.288 . S
C187 C188 1.369 . S
C187 H253 0.932 1_545 S
C188 C187 1.369 . S
C188 C189 1.398 . S
C188 C192 1.527 1_545 S
C189 C188 1.398 . S
C189 C190 1.380 . S
C189 C203 1.497 . S
C190 C189 1.380 . S
C190 C191 1.383 . S
C190 C193 1.603 . S
C191 C186 1.377 . S
C191 C190 1.383 . S
C191 H254 0.929 . S
C192 C188 1.527 1_565 S
C192 H255 0.961 . S
C192 H256 0.959 . S
C192 H257 0.959 . S
C193 C190 1.603 . S
C193 H258 0.960 . S
C193 H259 0.962 . S
C193 H260 0.961 . S
C194 C161 1.587 . S
C194 C195 1.360 . S
C194 C207 1.412 . S
C195 C194 1.360 . S
C195 C196 1.365 . S
C195 H261 0.929 . S
C196 C171 1.553 . S
C196 C195 1.365 . S
C196 C197 1.404 . S
C197 C196 1.404 . S
C197 C198 1.395 . S
C197 C208 1.451 . S
C198 C197 1.395 . S
C198 C199 1.322 . S
C198 H262 0.930 . S
C199 C198 1.322 . S
C199 C200 1.459 . S
C199 H263 0.929 . S
C200 C199 1.459 . S
C200 C201 1.445 . S
C200 C209 1.395 . S
C201 C179 1.432 . S
C201 C200 1.445 . S
C201 C202 1.370 . S
C202 C201 1.370 . S
C202 C203 1.438 . S
C202 H264 0.930 . S
C203 C189 1.497 . S
C203 C202 1.438 . S
C203 C204 1.360 . S
C204 C203 1.360 . S
C204 C205 1.401 . S
C204 C209 1.446 . S
C205 C204 1.401 . S
C205 C206 1.347 . S
C205 H265 0.929 . S
C206 C205 1.347 . S
C206 C207 1.455 . S
C206 H266 0.930 . S
C207 C194 1.412 . S
C207 C206 1.455 . S
C207 C208 1.331 . S
C208 C197 1.451 . S
C208 C207 1.331 . S
C208 C209 1.497 . S
C209 C200 1.395 . S
C209 C204 1.446 . S
C209 C208 1.497 . S
C210 C211 1.582 . S
C210 H267 0.962 . S
C210 H268 0.959 . S
C210 H269 0.958 . S
C211 C210 1.582 . S
C211 O214 1.458 . S
C211 H240 0.980 . S
O212 C157 1.426 1_565 S
O212 C158 1.334 1_565 S
O213 C185 1.412 . S
O213 C186 1.393 . S
O214 C176 1.435 . S
O214 C211 1.458 . S
O215 C167 1.468 . S
O215 C168 1.408 . S
H216 C157 0.980 . S
H217 C156 0.959 . S
H218 C156 0.959 . S
H219 C156 0.960 . S
H220 C159 0.929 . S
H221 C163 0.929 . S
H222 C164 0.959 . S
H223 C164 0.961 . S
H224 C164 0.961 . S
H225 C165 0.960 . S
H226 C165 0.960 . S
H227 C165 0.961 . S
H228 C167 0.980 . S
H229 C166 0.961 . S
H230 C166 0.960 . S
H231 C166 0.959 . S
H232 C169 0.930 . S
H233 C173 0.931 . S
H234 C174 0.959 . S
H235 C174 0.961 1_565 S
H236 C174 0.959 1_565 S
H237 C175 0.960 . S
H238 C175 0.960 . S
H239 C175 0.960 . S
H240 C211 0.980 . S
H241 C177 0.930 . S
H242 C181 0.930 . S
H243 C182 0.961 . S
H244 C182 0.960 1_565 S
H245 C182 0.958 1_565 S
H246 C183 0.961 . S
H247 C183 0.960 . S
H248 C183 0.960 . S
H249 C185 0.980 . S
H250 C184 0.961 . S
H251 C184 0.961 . S
H252 C184 0.959 . S
H253 C187 0.932 1_565 S
H254 C191 0.929 . S
H255 C192 0.961 . S
H256 C192 0.959 . S
H257 C192 0.959 . S
H258 C193 0.960 . S
H259 C193 0.962 . S
H260 C193 0.961 . S
H261 C195 0.929 . S
H262 C198 0.930 . S
H263 C199 0.929 . S
H264 C202 0.930 . S
H265 C205 0.929 . S
H266 C206 0.930 . S
H267 C210 0.962 . S
H268 C210 0.959 . S
H269 C210 0.958 . S
C270 C271 1.560 . S
C270 H331 0.959 . S
C270 H332 0.959 . S
C270 H333 0.960 . S
C271 C270 1.560 . S
C271 O326 1.426 . S
C271 H330 0.980 . S
C272 C273 1.407 . S
C272 C277 1.418 . S
C272 O326 1.334 . S
C273 C272 1.407 . S
C273 C274 1.360 . S
C273 H334 0.929 . S
C274 C273 1.360 . S
C274 C275 1.401 . S
C274 C278 1.527 . S
C275 C274 1.401 . S
C275 C276 1.405 . S
C275 C308 1.587 . S
C276 C275 1.405 . S
C276 C277 1.332 . S
C276 C279 1.496 . S
C277 C272 1.418 . S
C277 C276 1.332 . S
C277 H335 0.929 . S
C278 C274 1.527 . S
C278 H336 0.959 . S
C278 H337 0.961 . S
C278 H338 0.961 . S
C279 C276 1.496 . S
C279 H339 0.960 . S
C279 H340 0.960 . S
C279 H341 0.961 . S
C280 C281 1.517 . S
C280 H343 0.961 . S
C280 H344 0.960 . S
C280 H345 0.959 . S
C281 C280 1.517 . S
C281 O329 1.468 . S
C281 H342 0.980 . S
C282 C283 1.349 . S
C282 C287 1.367 . S
C282 O329 1.408 . S
C283 C282 1.349 . S
C283 C284 1.407 . S
C283 H346 0.930 . S
C284 C283 1.407 . S
C284 C285 1.449 . S
C284 C288 1.535 . S
C285 C284 1.449 . S
C285 C286 1.384 . S
C285 C310 1.553 . S
C286 C285 1.384 . S
C286 C287 1.364 . S
C286 C289 1.450 . S
C287 C282 1.367 . S
C287 C286 1.364 . S
C287 H347 0.931 . S
C288 C284 1.535 . S
C288 H348 0.959 . S
C288 H349 0.961 . S
C288 H350 0.959 . S
C289 C286 1.450 . S
C289 H351 0.960 . S
C289 H352 0.960 . S
C289 H353 0.960 . S
C290 C291 1.309 . S
C290 C295 1.304 . S
C290 O328 1.435 . S
C291 C290 1.309 . S
C291 C292 1.476 . S
C291 H355 0.930 . S
C292 C291 1.476 . S
C292 C293 1.400 . S
C292 C296 1.567 . S
C293 C292 1.400 . S
C293 C294 1.373 . S
C293 C315 1.432 . S
C294 C293 1.373 . S
C294 C295 1.339 . S
C294 C297 1.530 . S
C295 C290 1.304 . S
C295 C294 1.339 . S
C295 H356 0.930 . S
C296 C292 1.567 . S
C296 H357 0.961 . S
C296 H358 0.960 . S
C296 H359 0.958 . S
C297 C294 1.530 . S
C297 H360 0.961 . S
C297 H361 0.960 . S
C297 H362 0.960 . S
C298 C299 1.530 . S
C298 H364 0.961 . S
C298 H365 0.961 . S
C298 H366 0.959 . S
C299 C298 1.530 . S
C299 O327 1.412 . S
C299 H363 0.980 . S
C300 C301 1.288 . S
C300 C305 1.377 . S
C300 O327 1.393 . S
C301 C300 1.288 . S
C301 C302 1.369 . S
C301 H367 0.932 . S
C302 C301 1.369 . S
C302 C303 1.398 . S
C302 C306 1.527 . S
C303 C302 1.398 . S
C303 C304 1.380 . S
C303 C317 1.497 . S
C304 C303 1.380 . S
C304 C305 1.383 . S
C304 C307 1.603 . S
C305 C300 1.377 . S
C305 C304 1.383 . S
C305 H368 0.929 . S
C306 C302 1.527 . S
C306 H369 0.961 . S
C306 H370 0.959 . S
C306 H371 0.959 . S
C307 C304 1.603 . S
C307 H372 0.960 . S
C307 H373 0.962 . S
C307 H374 0.961 . S
C308 C275 1.587 . S
C308 C309 1.360 . S
C308 C321 1.412 . S
C309 C308 1.360 . S
C309 C310 1.365 . S
C309 H375 0.929 . S
C310 C285 1.553 . S
C310 C309 1.365 . S
C310 C311 1.404 . S
C311 C310 1.404 . S
C311 C312 1.395 . S
C311 C322 1.451 . S
C312 C311 1.395 . S
C312 C313 1.322 . S
C312 H376 0.930 . S
C313 C312 1.322 . S
C313 C314 1.459 . S
C313 H377 0.929 . S
C314 C313 1.459 . S
C314 C315 1.445 . S
C314 C323 1.395 . S
C315 C293 1.432 . S
C315 C314 1.445 . S
C315 C316 1.370 . S
C316 C315 1.370 . S
C316 C317 1.438 . S
C316 H378 0.930 . S
C317 C303 1.497 . S
C317 C316 1.438 . S
C317 C318 1.360 . S
C318 C317 1.360 . S
C318 C319 1.401 . S
C318 C323 1.446 . S
C319 C318 1.401 . S
C319 C320 1.347 . S
C319 H379 0.929 . S
C320 C319 1.347 . S
C320 C321 1.455 . S
C320 H380 0.930 . S
C321 C308 1.412 . S
C321 C320 1.455 . S
C321 C322 1.331 . S
C322 C311 1.451 . S
C322 C321 1.331 . S
C322 C323 1.497 . S
C323 C314 1.395 . S
C323 C318 1.446 . S
C323 C322 1.497 . S
C324 C325 1.582 . S
C324 H381 0.962 . S
C324 H382 0.959 . S
C324 H383 0.958 . S
C325 C324 1.582 . S
C325 O328 1.458 . S
C325 H354 0.980 . S
O326 C271 1.426 . S
O326 C272 1.334 . S
O327 C299 1.412 . S
O327 C300 1.393 . S
O328 C290 1.435 . S
O328 C325 1.458 . S
O329 C281 1.468 . S
O329 C282 1.408 . S
H330 C271 0.980 . S
H331 C270 0.959 . S
H332 C270 0.959 . S
H333 C270 0.960 . S
H334 C273 0.929 . S
H335 C277 0.929 . S
H336 C278 0.959 . S
H337 C278 0.961 . S
H338 C278 0.961 . S
H339 C279 0.960 . S
H340 C279 0.960 . S
H341 C279 0.961 . S
H342 C281 0.980 . S
H343 C280 0.961 . S
H344 C280 0.960 . S
H345 C280 0.959 . S
H346 C283 0.930 . S
H347 C287 0.931 . S
H348 C288 0.959 . S
H349 C288 0.961 . S
H350 C288 0.959 . S
H351 C289 0.960 . S
H352 C289 0.960 . S
H353 C289 0.960 . S
H354 C325 0.980 . S
H355 C291 0.930 . S
H356 C295 0.930 . S
H357 C296 0.961 . S
H358 C296 0.960 . S
H359 C296 0.958 . S
H360 C297 0.961 . S
H361 C297 0.960 . S
H362 C297 0.960 . S
H363 C299 0.980 . S
H364 C298 0.961 . S
H365 C298 0.961 . S
H366 C298 0.959 . S
H367 C301 0.932 . S
H368 C305 0.929 . S
H369 C306 0.961 . S
H370 C306 0.959 . S
H371 C306 0.959 . S
H372 C307 0.960 . S
H373 C307 0.962 . S
H374 C307 0.961 . S
H375 C309 0.929 . S
H376 C312 0.930 . S
H377 C313 0.929 . S
H378 C316 0.930 . S
H379 C319 0.929 . S
H380 C320 0.930 . S
H381 C324 0.962 . S
H382 C324 0.959 . S
H383 C324 0.958 . S
H384 C385 0.951 . S
C385 H384 0.951 . S
C385 C391 1.265 . S
H386 C391 0.950 . S
H387 C395 0.949 . S
H388 C396 0.950 . S
H389 C397 0.951 . S
H390 C398 0.951 . S
C391 C385 1.265 . S
C391 H386 0.950 . S
C391 C392 1.478 . S
C392 C391 1.478 . S
C392 C393 1.397 . S
C392 C409 1.394 . S
C393 C392 1.397 . S
C393 C394 1.438 . S
C393 C398 1.429 . S
C394 C393 1.438 . S
C394 C395 1.428 . S
C394 C407 1.394 . S
C395 H387 0.949 . S
C395 C394 1.428 . S
C395 C396 1.345 . S
C396 H388 0.950 . S
C396 C395 1.345 . S
C396 C397 1.424 . S
C397 H389 0.951 . S
C397 C396 1.424 . S
C397 C398 1.347 . S
C398 H390 0.951 . S
C398 C393 1.429 . S
C398 C397 1.347 . S
H399 C400 0.951 . S
C400 H399 0.951 . S
C400 C406 1.265 . S
H401 C406 0.950 . S
H402 C410 0.949 . S
H403 C411 0.950 . S
H404 C412 0.951 . S
H405 C413 0.951 . S
C406 C400 1.265 . S
C406 H401 0.950 . S
C406 C407 1.478 . S
C407 C394 1.394 . S
C407 C406 1.478 . S
C407 C408 1.397 . S
C408 C407 1.397 . S
C408 C409 1.438 . S
C408 C413 1.429 1_455 S
C409 C392 1.394 . S
C409 C408 1.438 . S
C409 C410 1.428 1_455 S
C410 H402 0.949 . S
C410 C409 1.428 1_655 S
C410 C411 1.345 . S
C411 H403 0.950 . S
C411 C410 1.345 . S
C411 C412 1.424 . S
C412 H404 0.951 . S
C412 C411 1.424 . S
C412 C413 1.347 . S
C413 H405 0.951 . S
C413 C408 1.429 1_655 S
C413 C412 1.347 . S
H414 C415 0.951 . S
C415 H414 0.951 . S
C415 C421 1.265 . S
H416 C421 0.950 . S
H417 C425 0.949 . S
H418 C426 0.950 . S
H419 C427 0.951 . S
H420 C428 0.951 . S
C421 C415 1.265 . S
C421 H416 0.950 . S
C421 C422 1.478 . S
C422 C421 1.478 . S
C422 C423 1.397 . S
C422 C439 1.394 . S
C423 C422 1.397 . S
C423 C424 1.438 . S
C423 C428 1.429 . S
C424 C423 1.438 . S
C424 C425 1.428 . S
C424 C437 1.394 . S
C425 H417 0.949 . S
C425 C424 1.428 . S
C425 C426 1.345 . S
C426 H418 0.950 . S
C426 C425 1.345 . S
C426 C427 1.424 . S
C427 H419 0.951 . S
C427 C426 1.424 . S
C427 C428 1.347 . S
C428 H420 0.951 . S
C428 C423 1.429 . S
C428 C427 1.347 . S
H429 C430 0.951 . S
C430 H429 0.951 . S
C430 C436 1.265 . S
H431 C436 0.950 . S
H432 C440 0.949 . S
H433 C441 0.950 . S
H434 C442 0.951 . S
H435 C443 0.951 . S
C436 C430 1.265 . S
C436 H431 0.950 . S
C436 C437 1.478 . S
C437 C424 1.394 . S
C437 C436 1.478 . S
C437 C438 1.397 . S
C438 C437 1.397 . S
C438 C439 1.438 . S
C438 C443 1.429 1_545 S
C439 C422 1.394 . S
C439 C438 1.438 . S
C439 C440 1.428 1_545 S
C440 H432 0.949 . S
C440 C439 1.428 1_565 S
C440 C441 1.345 . S
C441 H433 0.950 . S
C441 C440 1.345 . S
C441 C442 1.424 . S
C442 H434 0.951 . S
C442 C441 1.424 . S
C442 C443 1.347 . S
C443 H435 0.951 . S
C443 C438 1.429 1_565 S
C443 C442 1.347 . S
H444 C445 0.951 . S
C445 H444 0.951 . S
C445 C451 1.265 . S
H446 C451 0.950 . S
H447 C455 0.949 . S
H448 C456 0.950 . S
H449 C457 0.951 . S
H450 C458 0.951 . S
C451 C445 1.265 . S
C451 H446 0.950 . S
C451 C452 1.478 . S
C452 C451 1.478 . S
C452 C453 1.397 . S
C452 C469 1.394 . S
C453 C452 1.397 . S
C453 C454 1.438 . S
C453 C458 1.429 . S
C454 C453 1.438 . S
C454 C455 1.428 . S
C454 C467 1.394 . S
C455 H447 0.949 . S
C455 C454 1.428 . S
C455 C456 1.345 . S
C456 H448 0.950 . S
C456 C455 1.345 . S
C456 C457 1.424 . S
C457 H449 0.951 . S
C457 C456 1.424 . S
C457 C458 1.347 . S
C458 H450 0.951 . S
C458 C453 1.429 . S
C458 C457 1.347 . S
H459 C460 0.951 . S
C460 H459 0.951 . S
C460 C466 1.265 . S
H461 C466 0.950 . S
H462 C470 0.949 . S
H463 C471 0.950 . S
H464 C472 0.951 . S
H465 C473 0.951 . S
C466 C460 1.265 . S
C466 H461 0.950 . S
C466 C467 1.478 . S
C467 C454 1.394 . S
C467 C466 1.478 . S
C467 C468 1.397 . S
C468 C467 1.397 . S
C468 C469 1.438 . S
C468 C473 1.429 . S
C469 C452 1.394 . S
C469 C468 1.438 . S
C469 C470 1.428 . S
C470 H462 0.949 . S
C470 C469 1.428 . S
C470 C471 1.345 . S
C471 H463 0.950 . S
C471 C470 1.345 . S
C471 C472 1.424 . S
C472 H464 0.951 . S
C472 C471 1.424 . S
C472 C473 1.347 . S
C473 H465 0.951 . S
C473 C468 1.429 . S
C473 C472 1.347 . S
H474 C475 0.951 . S
C475 H474 0.951 . S
C475 C481 1.265 . S
H476 C481 0.950 . S
H477 C485 0.949 1_655 S
H478 C486 0.950 . S
H479 C487 0.951 . S
H480 C488 0.951 . S
C481 C475 1.265 . S
C481 H476 0.950 . S
C481 C482 1.478 . S
C482 C481 1.478 . S
C482 C483 1.397 . S
C482 C499 1.394 . S
C483 C482 1.397 . S
C483 C484 1.438 . S
C483 C488 1.429 . S
C484 C483 1.438 . S
C484 C485 1.428 . S
C484 C497 1.394 . S
C485 H477 0.949 1_455 S
C485 C484 1.428 . S
C485 C486 1.345 1_455 S
C486 H478 0.950 . S
C486 C485 1.345 1_655 S
C486 C487 1.424 . S
C487 H479 0.951 . S
C487 C486 1.424 . S
C487 C488 1.347 1_655 S
C488 H480 0.951 . S
C488 C483 1.429 . S
C488 C487 1.347 1_455 S
H489 C490 0.951 . S
C490 H489 0.951 . S
C490 C496 1.265 . S
H491 C496 0.950 . S
H492 C500 0.949 . S
H493 C501 0.950 . S
H494 C502 0.951 . S
H495 C503 0.951 . S
C496 C490 1.265 . S
C496 H491 0.950 . S
C496 C497 1.478 . S
C497 C484 1.394 . S
C497 C496 1.478 . S
C497 C498 1.397 . S
C498 C497 1.397 . S
C498 C499 1.438 . S
C498 C503 1.429 . S
C499 C482 1.394 . S
C499 C498 1.438 . S
C499 C500 1.428 . S
C500 H492 0.949 . S
C500 C499 1.428 . S
C500 C501 1.345 . S
C501 H493 0.950 . S
C501 C500 1.345 . S
C501 C502 1.424 . S
C502 H494 0.951 . S
C502 C501 1.424 . S
C502 C503 1.347 . S
C503 H495 0.951 . S
C503 C498 1.429 . S
C503 C502 1.347 . S
H504 C505 0.951 . S
C505 H504 0.951 . S
C505 C511 1.265 . S
H506 C511 0.950 . S
H507 C515 0.949 . S
H508 C516 0.950 . S
H509 C517 0.951 . S
H510 C518 0.951 . S
C511 C505 1.265 . S
C511 H506 0.950 . S
C511 C512 1.478 . S
C512 C511 1.478 . S
C512 C513 1.397 . S
C512 C529 1.394 . S
C513 C512 1.397 . S
C513 C514 1.438 . S
C513 C518 1.429 . S
C514 C513 1.438 . S
C514 C515 1.428 . S
C514 C527 1.394 . S
C515 H507 0.949 . S
C515 C514 1.428 . S
C515 C516 1.345 . S
C516 H508 0.950 . S
C516 C515 1.345 . S
C516 C517 1.424 . S
C517 H509 0.951 . S
C517 C516 1.424 . S
C517 C518 1.347 . S
C518 H510 0.951 . S
C518 C513 1.429 . S
C518 C517 1.347 . S
H519 C520 0.951 . S
C520 H519 0.951 . S
C520 C526 1.265 . S
H521 C526 0.950 . S
H522 C530 0.949 . S
H523 C531 0.950 . S
H524 C532 0.951 . S
H525 C533 0.952 . S
C526 C520 1.265 . S
C526 H521 0.950 . S
C526 C527 1.478 . S
C527 C514 1.394 . S
C527 C526 1.478 . S
C527 C528 1.397 . S
C528 C527 1.397 . S
C528 C529 1.438 . S
C528 C533 1.429 . S
C529 C512 1.394 . S
C529 C528 1.438 . S
C529 C530 1.428 . S
C530 H522 0.949 . S
C530 C529 1.428 . S
C530 C531 1.345 1_545 S
C531 H523 0.950 . S
C531 C530 1.345 1_565 S
C531 C532 1.424 . S
C532 H524 0.951 . S
C532 C531 1.424 . S
C532 C533 1.347 1_565 S
C533 H525 0.952 . S
C533 C528 1.429 . S
C533 C532 1.347 1_545 S
H534 C535 0.951 . S
C535 H534 0.951 . S
C535 C541 1.265 . S
H536 C541 0.950 . S
H537 C545 0.949 . S
H538 C546 0.950 . S
H539 C547 0.951 . S
H540 C548 0.951 . S
C541 C535 1.265 . S
C541 H536 0.950 . S
C541 C542 1.478 . S
C542 C541 1.478 . S
C542 C543 1.397 . S
C542 C559 1.394 . S
C543 C542 1.397 . S
C543 C544 1.438 . S
C543 C548 1.429 . S
C544 C543 1.438 . S
C544 C545 1.428 . S
C544 C557 1.394 . S
C545 H537 0.949 . S
C545 C544 1.428 . S
C545 C546 1.345 . S
C546 H538 0.950 . S
C546 C545 1.345 . S
C546 C547 1.424 . S
C547 H539 0.951 . S
C547 C546 1.424 . S
C547 C548 1.347 . S
C548 H540 0.951 . S
C548 C543 1.429 . S
C548 C547 1.347 . S
H549 C550 0.951 . S
C550 H549 0.951 . S
C550 C556 1.265 . S
H551 C556 0.950 . S
H552 C560 0.949 . S
H553 C561 0.950 . S
H554 C562 0.951 . S
H555 C563 0.951 . S
C556 C550 1.265 . S
C556 H551 0.950 . S
C556 C557 1.478 . S
C557 C544 1.394 . S
C557 C556 1.478 . S
C557 C558 1.397 . S
C558 C557 1.397 . S
C558 C559 1.438 . S
C558 C563 1.429 . S
C559 C542 1.394 . S
C559 C558 1.438 . S
C559 C560 1.428 . S
C560 H552 0.949 . S
C560 C559 1.428 . S
C560 C561 1.345 . S
C561 H553 0.950 . S
C561 C560 1.345 . S
C561 C562 1.424 . S
C562 H554 0.951 . S
C562 C561 1.424 . S
C562 C563 1.347 . S
C563 H555 0.951 . S
C563 C558 1.429 . S
C563 C562 1.347 . S
H564 C565 0.951 . S
C565 H564 0.951 . S
C565 C571 1.265 . S
H566 C571 0.950 . S
H567 C575 0.949 . S
H568 C576 0.950 . S
H569 C577 0.951 . S
H570 C578 0.951 . S
C571 C565 1.265 . S
C571 H566 0.950 . S
C571 C572 1.478 . S
C572 C571 1.478 . S
C572 C573 1.397 . S
C572 C589 1.394 . S
C573 C572 1.397 . S
C573 C574 1.438 . S
C573 C578 1.429 . S
C574 C573 1.438 . S
C574 C575 1.428 . S
C574 C587 1.394 . S
C575 H567 0.949 . S
C575 C574 1.428 . S
C575 C576 1.345 . S
C576 H568 0.950 . S
C576 C575 1.345 . S
C576 C577 1.424 . S
C577 H569 0.951 . S
C577 C576 1.424 . S
C577 C578 1.347 . S
C578 H570 0.951 . S
C578 C573 1.429 . S
C578 C577 1.347 . S
H579 C580 0.951 . S
C580 H579 0.951 . S
C580 C586 1.265 . S
H581 C586 0.950 . S
H582 C590 0.949 . S
H583 C591 0.950 . S
H584 C592 0.951 . S
H585 C593 0.951 . S
C586 C580 1.265 . S
C586 H581 0.950 . S
C586 C587 1.478 . S
C587 C574 1.394 . S
C587 C586 1.478 . S
C587 C588 1.397 . S
C588 C587 1.397 . S
C588 C589 1.438 . S
C588 C593 1.429 1_545 S
C589 C572 1.394 . S
C589 C588 1.438 . S
C589 C590 1.428 1_545 S
C590 H582 0.949 . S
C590 C589 1.428 1_565 S
C590 C591 1.345 . S
C591 H583 0.950 . S
C591 C590 1.345 . S
C591 C592 1.424 . S
C592 H584 0.951 . S
C592 C591 1.424 . S
C592 C593 1.347 . S
C593 H585 0.951 . S
C593 C588 1.429 1_565 S
C593 C592 1.347 . S
H594 C595 0.951 . S
C595 H594 0.951 . S
C595 C601 1.265 . S
H596 C601 0.950 . S
H597 C605 0.949 1_556 S
H598 C606 0.950 . S
H599 C607 0.951 . S
H600 C608 0.951 . S
C601 C595 1.265 . S
C601 H596 0.950 . S
C601 C602 1.478 . S
C602 C601 1.478 . S
C602 C603 1.397 . S
C602 C619 1.394 1_554 S
C603 C602 1.397 . S
C603 C604 1.458 . S
C603 C608 1.429 . S
C604 C603 1.458 . S
C604 C605 1.442 . S
C604 C617 1.361 1_554 S
C605 H597 0.949 1_554 S
C605 C604 1.442 . S
C605 C606 1.345 . S
C606 H598 0.950 . S
C606 C605 1.345 . S
C606 C607 1.424 . S
C607 H599 0.951 . S
C607 C606 1.424 . S
C607 C608 1.347 . S
C608 H600 0.951 . S
C608 C603 1.429 . S
C608 C607 1.347 . S
H609 C610 0.951 . S
C610 H609 0.951 . S
C610 C616 1.265 . S
H611 C616 0.950 . S
H612 C620 0.949 . S
H613 C621 0.950 . S
H614 C622 0.951 . S
H615 C623 0.951 . S
C616 C610 1.265 . S
C616 H611 0.950 . S
C616 C617 1.478 . S
C617 C604 1.361 1_556 S
C617 C616 1.478 . S
C617 C618 1.397 . S
C618 C617 1.397 . S
C618 C619 1.438 . S
C618 C623 1.429 . S
C619 C602 1.394 1_556 S
C619 C618 1.438 . S
C619 C620 1.428 . S
C620 H612 0.949 . S
C620 C619 1.428 . S
C620 C621 1.345 . S
C621 H613 0.950 . S
C621 C620 1.345 . S
C621 C622 1.424 . S
C622 H614 0.951 . S
C622 C621 1.424 . S
C622 C623 1.347 . S
C623 H615 0.951 . S
C623 C618 1.429 . S
C623 C622 1.347 . S
H624 C625 0.951 1_655 S
C625 H624 0.951 1_455 S
C625 C631 1.265 . S
H626 C631 0.950 . S
H627 C635 0.949 . S
H628 C636 0.950 . S
H629 C637 0.951 . S
H630 C638 0.951 . S
C631 C625 1.265 . S
C631 H626 0.950 . S
C631 C632 1.478 . S
C632 C631 1.478 . S
C632 C633 1.397 . S
C632 C649 1.394 . S
C633 C632 1.397 . S
C633 C634 1.438 . S
C633 C638 1.429 . S
C634 C633 1.438 . S
C634 C635 1.428 . S
C634 C647 1.394 . S
C635 H627 0.949 . S
C635 C634 1.428 . S
C635 C636 1.345 . S
C636 H628 0.950 . S
C636 C635 1.345 . S
C636 C637 1.424 . S
C637 H629 0.951 . S
C637 C636 1.424 . S
C637 C638 1.347 . S
C638 H630 0.951 . S
C638 C633 1.429 . S
C638 C637 1.347 . S
H639 C640 0.951 . S
C640 H639 0.951 . S
C640 C646 1.265 . S
H641 C646 0.950 1_655 S
H642 C650 0.953 1_455 S
H643 C651 0.950 . S
H644 C652 0.951 . S
H645 C653 0.951 . S
C646 C640 1.265 . S
C646 H641 0.950 1_455 S
C646 C647 1.478 . S
C647 C634 1.394 . S
C647 C646 1.478 . S
C647 C648 1.397 . S
C648 C647 1.397 . S
C648 C649 1.438 . S
C648 C653 1.429 1_455 S
C649 C632 1.394 . S
C649 C648 1.438 . S
C649 C650 1.418 1_455 S
C650 H642 0.953 1_655 S
C650 C649 1.418 1_655 S
C650 C651 1.351 . S
C651 H643 0.950 . S
C651 C650 1.351 . S
C651 C652 1.424 . S
C652 H644 0.951 . S
C652 C651 1.424 . S
C652 C653 1.347 . S
C653 H645 0.951 . S
C653 C648 1.429 1_655 S
C653 C652 1.347 . S
H654 C655 0.951 . S
C655 H654 0.951 . S
C655 C661 1.265 . S
H656 C661 0.950 . S
H657 C665 0.949 . S
H658 C666 0.950 . S
H659 C667 0.951 . S
H660 C668 0.951 . S
C661 C655 1.265 . S
C661 H656 0.950 . S
C661 C662 1.478 . S
C662 C661 1.478 . S
C662 C663 1.397 . S
C662 C679 1.394 1_545 S
C663 C662 1.397 . S
C663 C664 1.438 . S
C663 C668 1.429 . S
C664 C663 1.438 . S
C664 C665 1.428 . S
C664 C677 1.394 . S
C665 H657 0.949 . S
C665 C664 1.428 . S
C665 C666 1.345 . S
C666 H658 0.950 . S
C666 C665 1.345 . S
C666 C667 1.424 . S
C667 H659 0.951 . S
C667 C666 1.424 . S
C667 C668 1.347 . S
C668 H660 0.951 . S
C668 C663 1.429 . S
C668 C667 1.347 . S
H669 C670 0.951 . S
C670 H669 0.951 . S
C670 C676 1.265 . S
H671 C676 0.950 . S
H672 C680 0.949 . S
H673 C681 0.950 . S
H674 C682 0.951 . S
H675 C683 0.951 . S
C676 C670 1.265 . S
C676 H671 0.950 . S
C676 C677 1.478 . S
C677 C664 1.394 . S
C677 C676 1.478 . S
C677 C678 1.397 1_545 S
C678 C677 1.397 1_565 S
C678 C679 1.438 . S
C678 C683 1.429 . S
C679 C662 1.394 1_565 S
C679 C678 1.438 . S
C679 C680 1.428 . S
C680 H672 0.949 . S
C680 C679 1.428 . S
C680 C681 1.345 . S
C681 H673 0.950 . S
C681 C680 1.345 . S
C681 C682 1.424 . S
C682 H674 0.951 . S
C682 C681 1.424 . S
C682 C683 1.347 . S
C683 H675 0.951 . S
C683 C678 1.429 . S
C683 C682 1.347 . S
H684 C685 0.951 . S
C685 H684 0.951 . S
C685 C691 1.265 . S
H686 C691 0.950 . S
H687 C695 0.949 . S
H688 C696 0.950 . S
H689 C697 0.951 . S
H690 C698 0.951 . S
C691 C685 1.265 . S
C691 H686 0.950 . S
C691 C692 1.478 . S
C692 C691 1.478 . S
C692 C693 1.397 1_554 S
C692 C709 1.394 . S
C693 C692 1.397 1_556 S
C693 C694 1.438 . S
C693 C698 1.429 . S
C694 C693 1.438 . S
C694 C695 1.428 . S
C694 C707 1.394 . S
C695 H687 0.949 . S
C695 C694 1.428 . S
C695 C696 1.345 . S
C696 H688 0.950 . S
C696 C695 1.345 . S
C696 C697 1.424 . S
C697 H689 0.951 . S
C697 C696 1.424 . S
C697 C698 1.347 . S
C698 H690 0.951 . S
C698 C693 1.429 . S
C698 C697 1.347 . S
H699 C700 0.951 . S
C700 H699 0.951 . S
C700 C706 1.265 . S
H701 C706 0.950 . S
H702 C710 0.949 . S
H703 C711 0.950 . S
H704 C712 0.951 . S
H705 C713 0.951 1_556 S
C706 C700 1.265 . S
C706 H701 0.950 . S
C706 C707 1.478 . S
C707 C694 1.394 . S
C707 C706 1.478 . S
C707 C708 1.397 . S
C708 C707 1.397 . S
C708 C709 1.438 1_556 S
C708 C713 1.429 1_556 S
C709 C692 1.394 . S
C709 C708 1.438 1_554 S
C709 C710 1.428 . S
C710 H702 0.949 . S
C710 C709 1.428 . S
C710 C711 1.345 . S
C711 H703 0.950 . S
C711 C710 1.345 . S
C711 C712 1.424 . S
C712 H704 0.951 . S
C712 C711 1.424 . S
C712 C713 1.347 . S
C713 H705 0.951 1_554 S
C713 C708 1.429 1_554 S
C713 C712 1.347 . S
H714 C715 0.951 . S
C715 H714 0.951 . S
C715 C721 1.265 . S
H716 C721 0.950 . S
H717 C725 0.949 . S
H718 C726 0.950 . S
H719 C727 0.951 . S
H720 C728 0.956 . S
C721 C715 1.265 . S
C721 H716 0.950 . S
C721 C722 1.478 . S
C722 C721 1.478 . S
C722 C723 1.397 . S
C722 C739 1.394 . S
C723 C722 1.397 . S
C723 C724 1.438 . S
C723 C728 1.429 . S
C724 C723 1.438 . S
C724 C725 1.428 1_455 S
C724 C737 1.394 . S
C725 H717 0.949 . S
C725 C724 1.428 1_655 S
C725 C726 1.345 . S
C726 H718 0.950 . S
C726 C725 1.345 . S
C726 C727 1.424 . S
C727 H719 0.951 . S
C727 C726 1.424 . S
C727 C728 1.342 1_655 S
C728 H720 0.956 . S
C728 C723 1.429 . S
C728 C727 1.342 1_455 S
H729 C730 0.951 . S
C730 H729 0.951 . S
C730 C736 1.265 . S
H731 C736 0.950 . S
H732 C740 0.949 . S
H733 C741 0.950 . S
H734 C742 0.951 . S
H735 C743 0.951 . S
C736 C730 1.265 . S
C736 H731 0.950 . S
C736 C737 1.478 . S
C737 C724 1.394 . S
C737 C736 1.478 . S
C737 C738 1.397 . S
C738 C737 1.397 . S
C738 C739 1.438 . S
C738 C743 1.429 . S
C739 C722 1.394 . S
C739 C738 1.438 . S
C739 C740 1.428 . S
C740 H732 0.949 . S
C740 C739 1.428 . S
C740 C741 1.345 . S
C741 H733 0.950 . S
C741 C740 1.345 . S
C741 C742 1.424 . S
C742 H734 0.951 . S
C742 C741 1.424 . S
C742 C743 1.347 . S
C743 H735 0.951 . S
C743 C738 1.429 . S
C743 C742 1.347 . S
C400 C97 0.956 . S
C385 C11 1.380 . S
C415 C25 1.456 . S
C430 C211 0.994 . S
C445 C41 1.262 . S
C460 C271 0.991 . S
C475 C7 1.249 1_565 S
C490 C71 0.985 . S
C520 C185 1.170 . S
C505 C21 1.349 . S
C535 C36 1.340 . S
C550 C281 0.804 . S
C580 C167 0.692 . S
C565 C39 1.306 . S
C595 C8 1.338 1_665 S
C610 C299 1.099 . S
C640 C43 1.124 . S
C625 C22 1.320 1_565 S
C670 C157 1.102 . S
C655 C35 1.233 . S
C700 C325 1.155 . S
C685 C13 1.456 . S
C715 C27 1.421 . S
C730 C53 0.940 . S
