# Generated by pormake.
# Topology ptr, (4,4)-cn, num edge types: 1
# Building blocks:
#     Node 0, Type 0, BuildingBlock: QUQFOY_clean_sbu_1, # of connection points: 4
#     Node 1, Type 0, BuildingBlock: QUQFOY_clean_sbu_1, # of connection points: 4
#     Node 2, Type 0, BuildingBlock: QUQFOY_clean_sbu_1, # of connection points: 4
#     Node 3, Type 0, BuildingBlock: QUQFOY_clean_sbu_1, # of connection points: 4
#     Node 4, Type 0, BuildingBlock: QUQFOY_clean_sbu_1, # of connection points: 4
#     Node 5, Type 0, BuildingBlock: QUQFOY_clean_sbu_1, # of connection points: 4
#     Node 6, Type 0, BuildingBlock: QUQFOY_clean_sbu_1, # of connection points: 4
#     Node 7, Type 0, BuildingBlock: QUQFOY_clean_sbu_1, # of connection points: 4
#     Node 8, Type 0, BuildingBlock: QUQFOY_clean_sbu_1, # of connection points: 4
#     Node 9, Type 0, BuildingBlock: QUQFOY_clean_sbu_1, # of connection points: 4
#     Node 10, Type 0, BuildingBlock: QUQFOY_clean_sbu_1, # of connection points: 4
#     Node 11, Type 0, BuildingBlock: QUQFOY_clean_sbu_1, # of connection points: 4
#     Node 12, Type 0, BuildingBlock: QUQFOY_clean_sbu_1, # of connection points: 4
#     Node 13, Type 0, BuildingBlock: QUQFOY_clean_sbu_1, # of connection points: 4
#     Node 14, Type 0, BuildingBlock: QUQFOY_clean_sbu_1, # of connection points: 4
#     Node 15, Type 0, BuildingBlock: QUQFOY_clean_sbu_1, # of connection points: 4
#     Node 16, Type 0, BuildingBlock: QUQFOY_clean_sbu_1, # of connection points: 4
#     Node 17, Type 0, BuildingBlock: QUQFOY_clean_sbu_1, # of connection points: 4
#     Node 18, Type 1, BuildingBlock: GIZVER_clean_linker_0, # of connection points: 4
#     Node 19, Type 1, BuildingBlock: GIZVER_clean_linker_0, # of connection points: 4
#     Node 20, Type 1, BuildingBlock: GIZVER_clean_linker_0, # of connection points: 4
#     Node 21, Type 1, BuildingBlock: GIZVER_clean_linker_0, # of connection points: 4
#     Node 22, Type 1, BuildingBlock: GIZVER_clean_linker_0, # of connection points: 4
#     Node 23, Type 1, BuildingBlock: GIZVER_clean_linker_0, # of connection points: 4
#     Node 24, Type 1, BuildingBlock: GIZVER_clean_linker_0, # of connection points: 4
#     Node 25, Type 1, BuildingBlock: GIZVER_clean_linker_0, # of connection points: 4
#     Node 26, Type 1, BuildingBlock: GIZVER_clean_linker_0, # of connection points: 4
#     Node 27, Type 1, BuildingBlock: GIZVER_clean_linker_0, # of connection points: 4
#     Node 28, Type 1, BuildingBlock: GIZVER_clean_linker_0, # of connection points: 4
#     Node 29, Type 1, BuildingBlock: GIZVER_clean_linker_0, # of connection points: 4
#     Node 30, Type 1, BuildingBlock: GIZVER_clean_linker_0, # of connection points: 4
#     Node 31, Type 1, BuildingBlock: GIZVER_clean_linker_0, # of connection points: 4
#     Node 32, Type 1, BuildingBlock: GIZVER_clean_linker_0, # of connection points: 4
#     Node 33, Type 1, BuildingBlock: GIZVER_clean_linker_0, # of connection points: 4
#     Node 34, Type 1, BuildingBlock: GIZVER_clean_linker_0, # of connection points: 4
#     Node 35, Type 1, BuildingBlock: GIZVER_clean_linker_0, # of connection points: 4
#     Edge 36, Type (0, 1), BuildingBlock: KIFKEQ_clean_linker_1, # of connection points: 2
#     Edge 37, Type (0, 1), BuildingBlock: KIFKEQ_clean_linker_1, # of connection points: 2
#     Edge 38, Type (0, 1), BuildingBlock: KIFKEQ_clean_linker_1, # of connection points: 2
#     Edge 39, Type (0, 1), BuildingBlock: KIFKEQ_clean_linker_1, # of connection points: 2
#     Edge 40, Type (0, 1), BuildingBlock: KIFKEQ_clean_linker_1, # of connection points: 2
#     Edge 41, Type (0, 1), BuildingBlock: KIFKEQ_clean_linker_1, # of connection points: 2
#     Edge 42, Type (0, 1), BuildingBlock: KIFKEQ_clean_linker_1, # of connection points: 2
#     Edge 43, Type (0, 1), BuildingBlock: KIFKEQ_clean_linker_1, # of connection points: 2
#     Edge 44, Type (0, 1), BuildingBlock: KIFKEQ_clean_linker_1, # of connection points: 2
#     Edge 45, Type (0, 1), BuildingBlock: KIFKEQ_clean_linker_1, # of connection points: 2
#     Edge 46, Type (0, 1), BuildingBlock: KIFKEQ_clean_linker_1, # of connection points: 2
#     Edge 47, Type (0, 1), BuildingBlock: KIFKEQ_clean_linker_1, # of connection points: 2
#     Edge 48, Type (0, 1), BuildingBlock: KIFKEQ_clean_linker_1, # of connection points: 2
#     Edge 49, Type (0, 1), BuildingBlock: KIFKEQ_clean_linker_1, # of connection points: 2
#     Edge 50, Type (0, 1), BuildingBlock: KIFKEQ_clean_linker_1, # of connection points: 2
#     Edge 51, Type (0, 1), BuildingBlock: KIFKEQ_clean_linker_1, # of connection points: 2
#     Edge 52, Type (0, 1), BuildingBlock: KIFKEQ_clean_linker_1, # of connection points: 2
#     Edge 53, Type (0, 1), BuildingBlock: KIFKEQ_clean_linker_1, # of connection points: 2
#     Edge 54, Type (0, 1), BuildingBlock: KIFKEQ_clean_linker_1, # of connection points: 2
#     Edge 55, Type (0, 1), BuildingBlock: KIFKEQ_clean_linker_1, # of connection points: 2
#     Edge 56, Type (0, 1), BuildingBlock: KIFKEQ_clean_linker_1, # of connection points: 2
#     Edge 57, Type (0, 1), BuildingBlock: KIFKEQ_clean_linker_1, # of connection points: 2
#     Edge 58, Type (0, 1), BuildingBlock: KIFKEQ_clean_linker_1, # of connection points: 2
#     Edge 59, Type (0, 1), BuildingBlock: KIFKEQ_clean_linker_1, # of connection points: 2
#     Edge 60, Type (0, 1), BuildingBlock: KIFKEQ_clean_linker_1, # of connection points: 2
#     Edge 61, Type (0, 1), BuildingBlock: KIFKEQ_clean_linker_1, # of connection points: 2
#     Edge 62, Type (0, 1), BuildingBlock: KIFKEQ_clean_linker_1, # of connection points: 2
#     Edge 63, Type (0, 1), BuildingBlock: KIFKEQ_clean_linker_1, # of connection points: 2
#     Edge 64, Type (0, 1), BuildingBlock: KIFKEQ_clean_linker_1, # of connection points: 2
#     Edge 65, Type (0, 1), BuildingBlock: KIFKEQ_clean_linker_1, # of connection points: 2
#     Edge 66, Type (0, 1), BuildingBlock: KIFKEQ_clean_linker_1, # of connection points: 2
#     Edge 67, Type (0, 1), BuildingBlock: KIFKEQ_clean_linker_1, # of connection points: 2
#     Edge 68, Type (0, 1), BuildingBlock: KIFKEQ_clean_linker_1, # of connection points: 2
#     Edge 69, Type (0, 1), BuildingBlock: KIFKEQ_clean_linker_1, # of connection points: 2
#     Edge 70, Type (0, 1), BuildingBlock: KIFKEQ_clean_linker_1, # of connection points: 2
#     Edge 71, Type (0, 1), BuildingBlock: KIFKEQ_clean_linker_1, # of connection points: 2
#     Edge 72, Type (0, 1), BuildingBlock: KIFKEQ_clean_linker_1, # of connection points: 2
#     Edge 73, Type (0, 1), BuildingBlock: KIFKEQ_clean_linker_1, # of connection points: 2
#     Edge 74, Type (0, 1), BuildingBlock: KIFKEQ_clean_linker_1, # of connection points: 2
#     Edge 75, Type (0, 1), BuildingBlock: KIFKEQ_clean_linker_1, # of connection points: 2
#     Edge 76, Type (0, 1), BuildingBlock: KIFKEQ_clean_linker_1, # of connection points: 2
#     Edge 77, Type (0, 1), BuildingBlock: KIFKEQ_clean_linker_1, # of connection points: 2
#     Edge 78, Type (0, 1), BuildingBlock: KIFKEQ_clean_linker_1, # of connection points: 2
#     Edge 79, Type (0, 1), BuildingBlock: KIFKEQ_clean_linker_1, # of connection points: 2
#     Edge 80, Type (0, 1), BuildingBlock: KIFKEQ_clean_linker_1, # of connection points: 2
#     Edge 81, Type (0, 1), BuildingBlock: KIFKEQ_clean_linker_1, # of connection points: 2
#     Edge 82, Type (0, 1), BuildingBlock: KIFKEQ_clean_linker_1, # of connection points: 2
#     Edge 83, Type (0, 1), BuildingBlock: KIFKEQ_clean_linker_1, # of connection points: 2
#     Edge 84, Type (0, 1), BuildingBlock: KIFKEQ_clean_linker_1, # of connection points: 2
#     Edge 85, Type (0, 1), BuildingBlock: KIFKEQ_clean_linker_1, # of connection points: 2
#     Edge 86, Type (0, 1), BuildingBlock: KIFKEQ_clean_linker_1, # of connection points: 2
#     Edge 87, Type (0, 1), BuildingBlock: KIFKEQ_clean_linker_1, # of connection points: 2
#     Edge 88, Type (0, 1), BuildingBlock: KIFKEQ_clean_linker_1, # of connection points: 2
#     Edge 89, Type (0, 1), BuildingBlock: KIFKEQ_clean_linker_1, # of connection points: 2
#     Edge 90, Type (0, 1), BuildingBlock: KIFKEQ_clean_linker_1, # of connection points: 2
#     Edge 91, Type (0, 1), BuildingBlock: KIFKEQ_clean_linker_1, # of connection points: 2
#     Edge 92, Type (0, 1), BuildingBlock: KIFKEQ_clean_linker_1, # of connection points: 2
#     Edge 93, Type (0, 1), BuildingBlock: KIFKEQ_clean_linker_1, # of connection points: 2
#     Edge 94, Type (0, 1), BuildingBlock: KIFKEQ_clean_linker_1, # of connection points: 2
#     Edge 95, Type (0, 1), BuildingBlock: KIFKEQ_clean_linker_1, # of connection points: 2
#     Edge 96, Type (0, 1), BuildingBlock: KIFKEQ_clean_linker_1, # of connection points: 2
#     Edge 97, Type (0, 1), BuildingBlock: KIFKEQ_clean_linker_1, # of connection points: 2
#     Edge 98, Type (0, 1), BuildingBlock: KIFKEQ_clean_linker_1, # of connection points: 2
#     Edge 99, Type (0, 1), BuildingBlock: KIFKEQ_clean_linker_1, # of connection points: 2
#     Edge 100, Type (0, 1), BuildingBlock: KIFKEQ_clean_linker_1, # of connection points: 2
#     Edge 101, Type (0, 1), BuildingBlock: KIFKEQ_clean_linker_1, # of connection points: 2
#     Edge 102, Type (0, 1), BuildingBlock: KIFKEQ_clean_linker_1, # of connection points: 2
#     Edge 103, Type (0, 1), BuildingBlock: KIFKEQ_clean_linker_1, # of connection points: 2
#     Edge 104, Type (0, 1), BuildingBlock: KIFKEQ_clean_linker_1, # of connection points: 2
#     Edge 105, Type (0, 1), BuildingBlock: KIFKEQ_clean_linker_1, # of connection points: 2
#     Edge 106, Type (0, 1), BuildingBlock: KIFKEQ_clean_linker_1, # of connection points: 2
#     Edge 107, Type (0, 1), BuildingBlock: KIFKEQ_clean_linker_1, # of connection points: 2
# Relax obj value: 0.020
# Max RMSD: 0.064
# Mean RMSD: 0.054
data_MOF--net-ptr--node1-QUQFOY_clean_sbu_1--node2-GIZVER_clean_linker_0--edge1-KIFKEQ_clean_linker_1
_symmetry_space_group_name_H-M    P1
_symmetry_Int_Tables_number       1
_symmetry_cell_setting            triclinic
loop_
_symmetry_equiv_pos_as_xyz
'x, y, z'
_cell_length_a     81.944169
_cell_length_b     81.917559
_cell_length_c     51.377234
_cell_angle_alpha  90.184056
_cell_angle_beta   90.265255
_cell_angle_gamma 119.92508
loop_
_atom_site_label
_atom_site_type_symbol
_atom_site_fract_x
_atom_site_fract_y
_atom_site_fract_z
_atom_type_partial_charge
O0 O 0.03581 0.41553 0.04014 0.0
Cd1 Cd 0.04071 0.40437 0.00684 0.0
Cd2 Cd 1.00125 0.38436 0.00727 0.0
O3 O 1.00479 0.39845 0.04205 0.0
O4 O 0.0683 0.4131 0.00852 0.0
O5 O 0.04643 0.38308 0.00989 0.0
C6 C 0.06407 0.39576 0.01066 0.0
C7 C 0.98002 0.35186 0.00408 0.0
C8 C 1.02039 0.41127 0.05138 0.0
C9 C 0.02073 0.41123 0.96265 0.0
O10 O 1.00545 0.40013 0.97414 0.0
O11 O 0.03644 0.41408 0.97166 0.0
O12 O 0.97426 0.36389 0.00517 0.0
O13 O 0.99797 0.35826 0.00538 0.0
O14 O 0.61689 0.62773 0.04188 0.0
Cd15 Cd 0.62873 0.64418 0.00945 0.0
Cd16 Cd 0.64929 0.62525 0.01047 0.0
O17 O 0.63456 0.61441 0.04467 0.0
O18 O 0.62052 0.66341 0.01076 0.0
O19 O 0.65036 0.67084 0.0133 0.0
C20 C 0.63796 0.6762 0.01342 0.0
C21 C 0.68146 0.63459 0.00879 0.0
C22 C 0.6213 0.61671 0.05331 0.0
C23 C 0.62306 0.61853 0.96447 0.0
O24 O 0.63434 0.61453 0.9761 0.0
O25 O 0.61945 0.63072 0.97399 0.0
O26 O 0.66857 0.6171 0.00929 0.0
O27 O 0.67614 0.64701 0.00998 0.0
O28 O 0.42508 0.03423 0.98114 0.0
Cd29 Cd 0.41164 0.0366 0.0136 0.0
Cd30 Cd 0.39242 0.99837 0.01017 0.0
O31 O 0.40707 1.00354 0.9756 0.0
O32 O 0.41584 0.0628 0.01411 0.0
O33 O 0.38775 0.0375 0.00878 0.0
C34 C 0.398 0.05564 0.01006 0.0
C35 C 0.35997 0.97706 0.01144 0.0
C36 C 0.42062 0.0193 0.96822 0.0
C37 C 0.4178 0.01616 0.05698 0.0
O38 O 0.40736 1.00118 0.04407 0.0
O39 O 0.42057 0.03199 0.04892 0.0
O40 O 0.37196 0.97139 0.00839 0.0
O41 O 0.36637 0.99499 0.01312 0.0
O42 O 1.00958 0.61418 0.96755 0.0
Cd43 Cd 1.00533 0.62557 0.00103 0.0
Cd44 Cd 0.04358 0.64703 -0.00085 0.0
O45 O 0.04018 0.6334 0.96411 0.0
O46 O 0.97807 0.61792 0.00021 0.0
O47 O 1.00084 0.64767 -0.00063 0.0
C48 C 0.98304 0.63552 -0.00113 0.0
C49 C 0.06311 0.6797 0.00223 0.0
C50 C 0.02494 0.61961 0.9555 0.0
C51 C 0.02665 0.62009 0.04416 0.0
O52 O 0.04143 0.6318 0.03217 0.0
O53 O 1.01048 0.61617 0.03569 0.0
O54 O 0.06995 0.66865 -0.00078 0.0
O55 O 0.04501 0.67219 0.00281 0.0
O56 O 0.42108 0.39917 0.97562 0.0
Cd57 Cd 0.41007 0.38392 0.00916 0.0
Cd58 Cd 0.39054 0.40335 0.00938 0.0
O59 O 0.4051 0.41432 0.97512 0.0
O60 O 0.41715 0.36385 0.00888 0.0
O61 O 0.38765 0.35766 0.00653 0.0
C62 C 0.3995 0.3516 0.00681 0.0
C63 C 0.35804 0.39199 0.01084 0.0
C64 C 0.41725 0.4109 0.96508 0.0
C65 C 0.41727 0.41022 0.05418 0.0
O66 O 0.40544 0.414 0.04376 0.0
O67 O 0.42084 0.39827 0.04375 0.0
O68 O 0.37002 0.40979 0.01049 0.0
O69 O 0.36452 0.38049 0.00976 0.0
O70 O 0.6203 0.99759 0.04014 0.0
Cd71 Cd 0.63361 0.99532 0.0074 0.0
Cd72 Cd 0.65238 0.03363 0.01267 0.0
O73 O 0.63844 0.02804 0.04786 0.0
O74 O 0.6281 0.96862 0.0068 0.0
O75 O 0.6569 0.99299 0.01062 0.0
C76 C 0.64591 0.97493 0.00968 0.0
C77 C 0.68484 0.05478 0.01015 0.0
C78 C 0.62475 1.01206 0.05417 0.0
C79 C 0.62649 0.01623 0.96587 0.0
O80 O 0.63653 0.03085 0.97966 0.0
O81 O 0.6245 1.00039 0.97248 0.0
O82 O 0.67295 0.06061 0.01301 0.0
O83 O 0.67832 0.0368 0.00948 0.0
O84 O 0.70804 0.74857 0.37368 0.0
Cd85 Cd 0.71289 0.73795 0.34 0.0
Cd86 Cd 0.67366 0.71792 0.33907 0.0
O87 O 0.67694 0.73257 0.37344 0.0
O88 O 0.74018 0.74571 0.34169 0.0
O89 O 0.71751 0.71594 0.34171 0.0
C90 C 0.73529 0.72814 0.3428 0.0
C91 C 0.65214 0.68545 0.33716 0.0
C92 C 0.69242 0.74473 0.3839 0.0
C93 C 0.69378 0.74484 0.29479 0.0
O94 O 0.67823 0.73281 0.30486 0.0
O95 O 0.70934 0.74872 0.30551 0.0
O96 O 0.64661 0.69768 0.33724 0.0
O97 O 0.67004 0.69165 0.33867 0.0
O98 O 0.28295 0.95922 0.37816 0.0
Cd99 Cd 0.2942 0.9758 0.34552 0.0
Cd100 Cd 0.31626 0.95862 0.34524 0.0
O101 O 0.30184 0.94725 0.37939 0.0
O102 O 0.28583 0.9949 0.34641 0.0
O103 O 0.31574 1.00252 0.34896 0.0
C104 C 0.30327 1.00779 0.34865 0.0
C105 C 0.34864 0.96928 0.34329 0.0
C106 C 0.28825 0.94863 0.38884 0.0
C107 C 0.28977 0.95096 0.29974 0.0
O108 O 0.30156 0.94748 0.31097 0.0
O109 O 0.28537 0.9624 0.30987 0.0
O110 O 0.33641 0.95164 0.34512 0.0
O111 O 0.34255 0.98111 0.34327 0.0
O112 O 0.08359 0.35938 0.30375 0.0
Cd113 Cd 0.0737 0.36466 0.33784 0.0
Cd114 Cd 0.05421 0.32547 0.3385 0.0
O115 O 0.06839 0.32827 0.30421 0.0
O116 O 0.08204 0.39202 0.33546 0.0
O117 O 0.05208 0.36997 0.33722 0.0
C118 C 0.06458 0.38759 0.33526 0.0
C119 C 0.02204 0.30326 0.34125 0.0
C120 C 0.08003 0.34375 0.29361 0.0
C121 C 0.08168 0.34616 0.38258 0.0
O122 O 0.06972 0.33056 0.37227 0.0
O123 O 0.08517 0.36165 0.37222 0.0
O124 O 0.03469 0.29829 0.34096 0.0
O125 O 0.02761 0.321 0.33929 0.0
O126 O 0.66808 0.93933 0.31112 0.0
Cd127 Cd 0.66382 0.95135 0.34387 0.0
Cd128 Cd 0.70227 0.97116 0.34376 0.0
O129 O 0.69904 0.95656 0.30945 0.0
O130 O 0.63698 0.94482 0.34143 0.0
O131 O 0.66062 0.97418 0.34122 0.0
C132 C 0.6427 0.96258 0.33993 0.0
C133 C 0.72411 1.00348 0.34571 0.0
C134 C 0.68355 0.94354 0.30014 0.0
C135 C 0.68272 0.94505 0.38917 0.0
O136 O 0.69807 0.95643 0.37804 0.0
O137 O 0.66703 0.94137 0.37915 0.0
O138 O 0.72935 0.99104 0.34558 0.0
O139 O 0.70628 0.9976 0.3441 0.0
O140 O 0.08642 0.7376 0.30293 0.0
Cd141 Cd 0.07573 0.72138 0.336 0.0
Cd142 Cd 0.05807 0.74224 0.33919 0.0
O143 O 0.07178 0.75403 0.30492 0.0
O144 O 0.08335 0.70182 0.33231 0.0
O145 O 0.05363 0.69473 0.33417 0.0
C146 C 0.06578 0.68915 0.33192 0.0
C147 C 0.02551 0.72942 0.34232 0.0
C148 C 0.08327 0.75019 0.29374 0.0
C149 C 0.08512 0.74723 0.38234 0.0
O150 O 0.07401 0.75228 0.37276 0.0
O151 O 0.0873 0.73459 0.37111 0.0
O152 O 0.03681 0.74739 0.34258 0.0
O153 O 0.03275 0.71863 0.33977 0.0
O154 O 0.28722 0.33335 0.36842 0.0
Cd155 Cd 0.30002 0.32992 0.33597 0.0
Cd156 Cd 0.31976 0.36902 0.34007 0.0
O157 O 0.30661 0.36364 0.37586 0.0
O158 O 0.29183 0.30246 0.33551 0.0
O159 O 0.32155 0.32468 0.34033 0.0
C160 C 0.30915 0.30696 0.33921 0.0
C161 C 0.35177 0.39197 0.33671 0.0
C162 C 0.29252 0.348 0.3824 0.0
C163 C 0.2931 0.3509 0.29407 0.0
O164 O 0.30313 0.36565 0.30764 0.0
O165 O 0.29135 0.33517 0.30079 0.0
O166 O 0.33898 0.39649 0.3405 0.0
O167 O 0.34645 0.37425 0.33544 0.0
O168 O 0.3692 0.08189 0.70057 0.0
Cd169 Cd 0.37292 0.06866 0.66869 0.0
Cd170 Cd 0.33438 0.04846 0.67202 0.0
O171 O 0.33885 0.06258 0.70698 0.0
O172 O 0.39997 0.07534 0.67011 0.0
O173 O 0.37636 0.0461 0.67309 0.0
C174 C 0.39431 0.0577 0.67322 0.0
C175 C 0.31274 0.01605 0.66974 0.0
C176 C 0.35436 0.07688 0.71375 0.0
C177 C 0.35213 0.0745 0.62578 0.0
O178 O 0.33744 0.06411 0.63892 0.0
O179 O 0.36809 0.07707 0.63311 0.0
O180 O 0.30727 0.02828 0.67139 0.0
O181 O 0.33066 0.0222 0.66987 0.0
O182 O 0.95083 0.28977 0.70755 0.0
Cd183 Cd 0.96123 0.3059 0.67444 0.0
Cd184 Cd 0.98204 0.2879 0.67218 0.0
O185 O 0.96833 0.27623 0.70668 0.0
O186 O 0.95529 0.32668 0.67757 0.0
O187 O 0.98438 0.33162 0.67589 0.0
C188 C 0.97316 0.33839 0.67784 0.0
C189 C 1.01418 0.29763 0.66864 0.0
C190 C 0.95561 0.27851 0.71733 0.0
C191 C 0.95414 0.28092 0.62843 0.0
O192 O 0.96638 0.27753 0.63836 0.0
O193 O 0.95015 0.29238 0.63947 0.0
O194 O 1.00145 0.28008 0.66877 0.0
O195 O 1.00874 0.30988 0.67122 0.0
O196 O 0.75615 0.69163 0.64073 0.0
Cd197 Cd 0.74558 0.69722 0.67389 0.0
Cd198 Cd 0.72289 0.65856 0.67291 0.0
O199 O 0.73653 0.66099 0.63823 0.0
O200 O 0.75342 0.72448 0.67191 0.0
O201 O 0.72359 0.70182 0.67189 0.0
C202 C 0.73583 0.71958 0.6707 0.0
C203 C 0.69052 0.63692 0.67558 0.0
C204 C 0.75035 0.6759 0.62923 0.0
C205 C 0.75046 0.67672 0.71816 0.0
O206 O 0.73811 0.66186 0.70663 0.0
O207 O 0.75523 0.69285 0.70888 0.0
O208 O 0.70283 0.63154 0.67453 0.0
O209 O 0.69652 0.65478 0.6744 0.0
O210 O 0.33502 0.27606 0.64484 0.0
Cd211 Cd 0.33234 0.28965 0.67704 0.0
Cd212 Cd 0.37063 0.3089 0.67461 0.0
O213 O 0.36577 0.29388 0.64019 0.0
O214 O 0.30597 0.28487 0.67707 0.0
O215 O 0.33081 0.3132 0.67165 0.0
C216 C 0.31273 0.30261 0.67293 0.0
C217 C 0.39291 0.34112 0.67631 0.0
C218 C 0.35001 0.28035 0.63242 0.0
C219 C 0.35244 0.28398 0.7214 0.0
O220 O 0.36742 0.29441 0.70885 0.0
O221 O 0.3366 0.2809 0.71273 0.0
O222 O 0.39787 0.32849 0.675 0.0
O223 O 0.37511 0.3355 0.67574 0.0
O224 O 0.75198 0.06635 0.64078 0.0
Cd225 Cd 0.74079 0.05098 0.67431 0.0
Cd226 Cd 0.72341 0.07269 0.6754 0.0
O227 O 0.73702 0.08253 0.64034 0.0
O228 O 0.74795 0.03094 0.67343 0.0
O229 O 0.71842 0.02459 0.67143 0.0
C230 C 0.73033 0.01862 0.67139 0.0
C231 C 0.6911 0.06192 0.67886 0.0
C232 C 0.74862 0.07839 0.63014 0.0
C233 C 0.75037 0.07824 0.71916 0.0
O234 O 0.73976 0.08356 0.70859 0.0
O235 O 0.75196 0.06488 0.70917 0.0
O236 O 0.70329 0.07966 0.67785 0.0
O237 O 0.69725 0.05016 0.67735 0.0
O238 O 0.95043 0.66077 0.7071 0.0
Cd239 Cd 0.96311 0.65709 0.67463 0.0
Cd240 Cd 0.9832 0.69607 0.67847 0.0
O241 O 0.96939 0.69128 0.71367 0.0
O242 O 0.95503 0.62964 0.67422 0.0
O243 O 0.98474 0.65199 0.67844 0.0
C244 C 0.97242 0.63425 0.67733 0.0
C245 C 1.01569 0.71733 0.67564 0.0
C246 C 0.95541 0.67563 0.7205 0.0
C247 C 0.95692 0.67821 0.63213 0.0
O248 O 0.96729 0.69301 0.64541 0.0
O249 O 0.95451 0.66233 0.63939 0.0
O250 O 1.00373 0.72309 0.67816 0.0
O251 O 1.00925 0.69936 0.67546 0.0
H252 H 0.16628 0.33438 0.14016 0.0
H253 H 0.1686 0.35361 0.06144 0.0
H254 H 0.14034 0.36702 0.12096 0.0
H255 H 0.17331 0.31959 0.10171 0.0
H256 H 0.1779 0.33055 0.07064 0.0
H257 H 0.19695 0.34197 0.14041 0.0
H258 H 0.25366 0.36211 0.11561 0.0
H259 H 0.20978 0.34519 0.05845 0.0
C260 C 0.16377 0.3427 0.12608 0.0
C261 C 0.15351 0.35141 0.13361 0.0
C262 C 0.17012 0.34415 0.10028 0.0
C263 C 0.16485 0.35339 0.08168 0.0
C264 C 0.15406 0.36168 0.08904 0.0
C265 C 0.14904 0.3611 0.11519 0.0
C266 C 0.18 0.33351 0.09192 0.0
C267 C 0.2009 0.34355 0.09858 0.0
C268 C 0.20701 0.34606 0.12481 0.0
C269 C 0.22612 0.3532 0.13106 0.0
C270 C 0.23903 0.35739 0.11094 0.0
C271 C 0.23325 0.35436 0.08488 0.0
C272 C 0.21427 0.34788 0.07864 0.0
H273 H 0.70449 0.84072 0.14069 0.0
H274 H 0.68348 0.82385 0.06229 0.0
H275 H 0.6699 0.78226 0.12177 0.0
H276 H 0.71871 0.8624 0.10224 0.0
H277 H 0.70729 0.85598 0.07122 0.0
H278 H 0.69579 0.86294 0.14098 0.0
H279 H 0.67682 0.9008 0.11726 0.0
H280 H 0.69387 0.87458 0.0594 0.0
C281 C 0.69567 0.82993 0.12671 0.0
C282 C 0.68651 0.81101 0.13433 0.0
C283 C 0.6939 0.83485 0.10098 0.0
C284 C 0.68396 0.82035 0.0825 0.0
C285 C 0.67532 0.80132 0.08989 0.0
C286 C 0.67616 0.79689 0.116 0.0
C287 C 0.70466 0.85529 0.09252 0.0
C288 C 0.69491 0.8664 0.09927 0.0
C289 C 0.69214 0.86948 0.12553 0.0
C290 C 0.6852 0.88154 0.1321 0.0
C291 C 0.68148 0.89091 0.11227 0.0
C292 C 0.68472 0.88865 0.08615 0.0
C293 C 0.69102 0.87605 0.07958 0.0
H294 H 0.18506 0.83087 0.14631 0.0
H295 H 0.17705 0.80878 0.06836 0.0
H296 H 0.12944 0.79527 0.11688 0.0
H297 H 0.20977 0.82544 0.11857 0.0
H298 H 0.208 0.82656 0.08427 0.0
H299 H 0.2139 0.8533 0.14678 0.0
H300 H 0.25069 0.90659 0.11194 0.0
H301 H 0.22411 0.85672 0.06434 0.0
C302 C 0.17594 0.82357 0.13004 0.0
C303 C 0.15643 0.81364 0.13416 0.0
C304 C 0.18359 0.82283 0.10583 0.0
C305 C 0.17126 0.81094 0.08609 0.0
C306 C 0.15168 0.80044 0.09027 0.0
C307 C 0.14449 0.8031 0.11364 0.0
C308 C 0.20476 0.83126 0.10292 0.0
C309 C 0.21609 0.85263 0.10495 0.0
C310 C 0.21967 0.86159 0.12946 0.0
C311 C 0.23169 0.88112 0.13208 0.0
C312 C 0.24046 0.89172 0.10988 0.0
C313 C 0.23804 0.88302 0.08554 0.0
C314 C 0.22559 0.86352 0.08303 0.0
H315 H 0.37598 0.20515 0.86788 0.0
H316 H 0.38643 0.21714 0.94988 0.0
H317 H 0.36031 0.24209 0.90514 0.0
H318 H 0.40289 0.20372 0.89511 0.0
H319 H 0.39934 0.20033 0.92921 0.0
H320 H 0.37788 0.17969 0.86359 0.0
H321 H 0.35187 0.123 0.89032 0.0
H322 H 0.38333 0.16889 0.94398 0.0
C323 C 0.3743 0.21132 0.88551 0.0
C324 C 0.36648 0.22315 0.88383 0.0
C325 C 0.38096 0.20842 0.90942 0.0
C326 C 0.38022 0.21813 0.9317 0.0
C327 C 0.37254 0.2301 0.93021 0.0
C328 C 0.36527 0.23207 0.90646 0.0
C329 C 0.39179 0.19781 0.91026 0.0
C330 C 0.37972 0.17678 0.90522 0.0
C331 C 0.37376 0.17002 0.87971 0.0
C332 C 0.36359 0.15066 0.87445 0.0
C333 C 0.35961 0.13794 0.89475 0.0
C334 C 0.36773 0.1442 0.91955 0.0
C335 C 0.37698 0.16371 0.92501 0.0
H336 H 0.87443 0.18545 0.87596 0.0
H337 H 0.8779 0.20354 0.95591 0.0
H338 H 0.91056 0.24321 0.89673 0.0
H339 H 0.86887 0.16401 0.9165 0.0
H340 H 0.86373 0.17091 0.94668 0.0
H341 H 0.84641 0.16016 0.87631 0.0
H342 H 0.78944 0.12452 0.89988 0.0
H343 H 0.83166 0.15627 0.95763 0.0
C344 C 0.87907 0.19648 0.89046 0.0
C345 C 0.89236 0.21491 0.88331 0.0
C346 C 0.87327 0.19214 0.91661 0.0
C347 C 0.88129 0.20674 0.93553 0.0
C348 C 0.89504 0.2251 0.92844 0.0
C349 C 0.89999 0.22906 0.90227 0.0
C350 C 0.86224 0.1717 0.92526 0.0
C351 C 0.84148 0.16103 0.91767 0.0
C352 C 0.83601 0.15553 0.89151 0.0
C353 C 0.81725 0.14243 0.88514 0.0
C354 C 0.80386 0.13493 0.90484 0.0
C355 C 0.80891 0.13968 0.93095 0.0
C356 C 0.82763 0.15311 0.93733 0.0
H357 H 0.85391 0.65543 0.87037 0.0
H358 H 0.86389 0.65419 0.95253 0.0
H359 H 0.90989 0.67581 0.89844 0.0
H360 H 0.82938 0.63144 0.9027 0.0
H361 H 0.83273 0.63669 0.93648 0.0
H362 H 0.82606 0.65466 0.87187 0.0
H363 H 0.78904 0.67168 0.9047 0.0
H364 H 0.8183 0.65279 0.955 0.0
C365 C 0.86349 0.65932 0.88675 0.0
C366 C 0.88283 0.66747 0.882 0.0
C367 C 0.8565 0.65502 0.91231 0.0
C368 C 0.86924 0.65841 0.933 0.0
C369 C 0.88861 0.66577 0.92829 0.0
C370 C 0.89523 0.67089 0.90277 0.0
C371 C 0.83545 0.64332 0.91693 0.0
C372 C 0.82477 0.65396 0.91399 0.0
C373 C 0.82062 0.65801 0.88897 0.0
C374 C 0.80781 0.66448 0.88572 0.0
C375 C 0.7995 0.66742 0.90761 0.0
C376 C 0.80301 0.66318 0.93272 0.0
C377 C 0.81592 0.65669 0.93581 0.0
H378 H 0.83172 0.6619 0.47404 0.0
H379 H 0.8367 0.68188 0.39519 0.0
H380 H 0.80385 0.69208 0.45097 0.0
H381 H 0.84052 0.64774 0.43699 0.0
H382 H 0.84528 0.65832 0.40566 0.0
H383 H 0.86304 0.66959 0.47573 0.0
H384 H 0.92053 0.69241 0.45242 0.0
H385 H 0.87733 0.67535 0.39418 0.0
C386 C 0.82918 0.66992 0.45949 0.0
C387 C 0.81738 0.67721 0.46549 0.0
C388 C 0.83656 0.67179 0.43422 0.0
C389 C 0.8318 0.68101 0.41496 0.0
C390 C 0.82013 0.68852 0.42106 0.0
C391 C 0.81324 0.68673 0.44637 0.0
C392 C 0.847 0.66154 0.42689 0.0
C393 C 0.86775 0.67222 0.43411 0.0
C394 C 0.87344 0.67439 0.46048 0.0
C395 C 0.89254 0.68207 0.46724 0.0
C396 C 0.90586 0.68724 0.44742 0.0
C397 C 0.9005 0.68472 0.42118 0.0
C398 C 0.88151 0.67766 0.41451 0.0
H399 H 0.3601 0.17029 0.47464 0.0
H400 H 0.34657 0.15633 0.39336 0.0
H401 H 0.32993 0.11253 0.44992 0.0
H402 H 0.37804 0.19334 0.43774 0.0
H403 H 0.36822 0.1884 0.40573 0.0
H404 H 0.35887 0.19732 0.47489 0.0
H405 H 0.33186 0.22807 0.45037 0.0
H406 H 0.34868 0.20111 0.39326 0.0
C407 C 0.35311 0.15995 0.45935 0.0
C408 C 0.34419 0.14071 0.46553 0.0
C409 C 0.35353 0.16583 0.43344 0.0
C410 C 0.34557 0.15207 0.4135 0.0
C411 C 0.33686 0.13281 0.41953 0.0
C412 C 0.33598 0.12737 0.4455 0.0
C413 C 0.36449 0.18661 0.42673 0.0
C414 C 0.35411 0.19708 0.43341 0.0
C415 C 0.35289 0.20172 0.45951 0.0
C416 C 0.34455 0.21259 0.46584 0.0
C417 C 0.33751 0.21893 0.44576 0.0
C418 C 0.339 0.21497 0.41963 0.0
C419 C 0.34723 0.20394 0.41348 0.0
H420 H 0.84652 0.15526 0.4777 0.0
H421 H 0.84009 0.14213 0.39581 0.0
H422 H 0.79215 0.11693 0.44639 0.0
H423 H 0.87266 0.15554 0.44852 0.0
H424 H 0.87061 0.15684 0.41431 0.0
H425 H 0.87332 0.18207 0.47732 0.0
H426 H 0.91119 0.23588 0.44513 0.0
H427 H 0.88511 0.18705 0.39528 0.0
C428 C 0.83762 0.14872 0.4609 0.0
C429 C 0.81819 0.13693 0.46455 0.0
C430 C 0.84567 0.15105 0.43606 0.0
C431 C 0.83391 0.14108 0.41477 0.0
C432 C 0.8145 0.12869 0.41824 0.0
C433 C 0.80683 0.12716 0.44311 0.0
C434 C 0.86692 0.16086 0.43316 0.0
C435 C 0.87693 0.18217 0.43568 0.0
C436 C 0.87961 0.19067 0.46038 0.0
C437 C 0.89152 0.21015 0.46374 0.0
C438 C 0.90089 0.22115 0.4421 0.0
C439 C 0.8989 0.21305 0.41731 0.0
C440 C 0.88649 0.19355 0.41416 0.0
H441 H 0.04687 0.54285 0.19857 0.0
H442 H 0.04556 0.55072 0.2814 0.0
H443 H 0.0295 0.58059 0.22787 0.0
H444 H 0.06782 0.53815 0.2309 0.0
H445 H 0.06306 0.53699 0.26472 0.0
H446 H 0.03994 0.51259 0.20088 0.0
H447 H 0.02356 0.45826 0.23209 0.0
H448 H 0.04781 0.50672 0.28254 0.0
C449 C 0.04291 0.54835 0.21504 0.0
C450 C 0.03678 0.5613 0.21058 0.0
C451 C 0.04578 0.54408 0.24063 0.0
C452 C 0.04245 0.55313 0.26173 0.0
C453 C 0.0365 0.56634 0.25737 0.0
C454 C 0.0333 0.56989 0.23172 0.0
C455 C 0.05618 0.53332 0.24519 0.0
C456 C 0.04416 0.51208 0.24237 0.0
C457 C 0.03781 0.5038 0.2176 0.0
C458 C 0.02989 0.48428 0.21393 0.0
C459 C 0.02829 0.47304 0.23535 0.0
C460 C 0.03475 0.48088 0.26019 0.0
C461 C 0.04233 0.50042 0.26363 0.0
H462 H 0.53832 0.52308 0.20933 0.0
H463 H 0.54841 0.53652 0.29133 0.0
H464 H 0.57596 0.57975 0.23424 0.0
H465 H 0.53605 0.4992 0.2475 0.0
H466 H 0.5307 0.50435 0.27887 0.0
H467 H 0.51408 0.49345 0.20929 0.0
H468 H 0.45604 0.46937 0.22954 0.0
H469 H 0.49869 0.49569 0.2889 0.0
C470 C 0.54454 0.53324 0.22496 0.0
C471 C 0.55679 0.55221 0.21876 0.0
C472 C 0.5409 0.52738 0.25117 0.0
C473 C 0.55027 0.54085 0.27115 0.0
C474 C 0.56309 0.5597 0.26495 0.0
C475 C 0.56586 0.56523 0.23889 0.0
C476 C 0.52959 0.50655 0.25772 0.0
C477 C 0.50899 0.49716 0.24968 0.0
C478 C 0.5036 0.49126 0.2237 0.0
C479 C 0.48455 0.48175 0.21638 0.0
C480 C 0.47077 0.47758 0.23516 0.0
C481 C 0.47566 0.48215 0.26142 0.0
C482 C 0.49484 0.49227 0.26858 0.0
H483 H 0.52065 0.98643 0.20145 0.0
H484 H 0.52786 0.98508 0.28433 0.0
H485 H 0.57566 1.00656 0.23325 0.0
H486 H 0.49452 0.96383 0.23105 0.0
H487 H 0.49729 0.96657 0.26543 0.0
H488 H 0.49675 0.99294 0.20522 0.0
H489 H 0.45899 1.00857 0.2401 0.0
H490 H 0.48094 0.97999 0.28554 0.0
C491 C 0.52971 0.99018 0.21843 0.0
C492 C 0.5492 0.99839 0.21498 0.0
C493 C 0.52191 0.98584 0.24354 0.0
C494 C 0.53391 0.9892 0.26512 0.0
C495 C 0.55339 0.99645 0.26173 0.0
C496 C 0.56088 1.00163 0.23659 0.0
C497 C 0.50072 0.97456 0.24688 0.0
C498 C 0.49117 0.98635 0.24598 0.0
C499 C 0.48977 0.99416 0.22229 0.0
C500 C 0.47829 1.00235 0.21997 0.0
C501 C 0.46869 1.00325 0.24197 0.0
C502 C 0.46955 0.99524 0.26561 0.0
C503 C 0.48089 0.98688 0.26759 0.0
H504 H 0.50508 1.01002 0.81349 0.0
H505 H 0.49663 0.01406 0.73129 0.0
H506 H 0.46951 0.0312 0.78748 0.0
H507 H 0.50735 0.98838 0.77718 0.0
H508 H 0.51145 0.99691 0.74479 0.0
H509 H 0.53132 1.00881 0.81336 0.0
H510 H 0.58798 0.03175 0.7867 0.0
H511 H 0.54322 0.01531 0.73106 0.0
C512 C 0.49961 0.01458 0.7977 0.0
C513 C 0.48778 0.02193 0.80356 0.0
C514 C 0.5035 1.01223 0.77164 0.0
C515 C 0.49476 0.01682 0.75138 0.0
C516 C 0.48226 0.02338 0.75717 0.0
C517 C 0.47938 0.0264 0.78314 0.0
C518 C 0.51379 1.00153 0.76552 0.0
C519 C 0.53478 1.01218 0.77157 0.0
C520 C 0.54124 0.01399 0.79753 0.0
C521 C 0.56049 0.02157 0.80317 0.0
C522 C 0.57324 0.02683 0.78261 0.0
C523 C 0.56713 0.0244 0.7567 0.0
C524 C 0.54798 0.01759 0.75115 0.0
H525 H 0.02925 0.50361 0.80446 0.0
H526 H 0.02311 0.48783 0.72314 0.0
H527 H 1.00798 0.44596 0.78221 0.0
H528 H 0.05035 0.52585 0.76497 0.0
H529 H 0.03927 0.52022 0.7339 0.0
H530 H 0.03609 0.53419 0.80247 0.0
H531 H 1.00576 0.56189 0.77958 0.0
H532 H 1.01596 0.52913 0.72334 0.0
C533 C 0.02458 0.49297 0.78936 0.0
C534 C 1.01754 0.47406 0.79647 0.0
C535 C 0.02622 0.49813 0.76287 0.0
C536 C 0.0211 0.48405 0.74354 0.0
C537 C 1.01477 0.46529 0.7506 0.0
C538 C 1.01264 0.46044 0.77692 0.0
C539 C 0.03634 0.51875 0.75515 0.0
C540 C 0.02609 0.52922 0.76249 0.0
C541 C 0.02793 0.53656 0.7879 0.0
C542 C 0.02058 0.5483 0.79399 0.0
C543 C 1.01103 0.55242 0.77489 0.0
C544 C 1.00927 0.54562 0.74944 0.0
C545 C 1.01678 0.53394 0.74322 0.0
H546 H 0.5156 0.49063 0.81444 0.0
H547 H 0.50968 0.47782 0.73247 0.0
H548 H 0.46142 0.45221 0.78244 0.0
H549 H 0.54183 0.4909 0.78591 0.0
H550 H 0.54007 0.49208 0.75163 0.0
H551 H 0.54299 0.51763 0.81436 0.0
H552 H 0.58064 0.57123 0.78126 0.0
H553 H 0.55381 0.5221 0.73204 0.0
C554 C 0.50678 0.48405 0.79756 0.0
C555 C 0.48734 0.47215 0.80098 0.0
C556 C 0.51498 0.48645 0.77283 0.0
C557 C 0.50337 0.47662 0.75136 0.0
C558 C 0.48391 0.46424 0.75455 0.0
C559 C 0.47611 0.46249 0.77937 0.0
C560 C 0.53623 0.49618 0.77031 0.0
C561 C 0.54625 0.5175 0.77265 0.0
C562 C 0.54919 0.52615 0.7973 0.0
C563 C 0.56113 0.54566 0.80035 0.0
C564 C 0.57029 0.55649 0.77847 0.0
C565 C 0.56796 0.54824 0.75373 0.0
C566 C 0.55549 0.52874 0.75089 0.0
H567 H 0.70482 0.86701 0.53898 0.0
H568 H 0.7179 0.88391 0.61929 0.0
H569 H 0.68905 0.90502 0.57267 0.0
H570 H 0.73408 0.86969 0.56562 0.0
H571 H 0.73151 0.86745 0.59987 0.0
H572 H 0.71017 0.84324 0.53603 0.0
H573 H 0.69398 0.7889 0.56685 0.0
H574 H 0.71531 0.83679 0.61829 0.0
C575 C 0.70347 0.87402 0.55597 0.0
C576 C 0.69522 0.88541 0.5532 0.0
C577 C 0.71126 0.87286 0.57993 0.0
C578 C 0.71085 0.88357 0.60123 0.0
C579 C 0.70256 0.89494 0.59874 0.0
C580 C 0.69436 0.89534 0.57494 0.0
C581 C 0.72338 0.86364 0.58129 0.0
C582 C 0.71272 0.84236 0.57784 0.0
C583 C 0.70755 0.83432 0.55274 0.0
C584 C 0.70013 0.8149 0.54883 0.0
C585 C 0.69826 0.80356 0.57025 0.0
C586 C 0.70386 0.81123 0.59536 0.0
C587 C 0.71064 0.83063 0.5991 0.0
H588 H 0.20522 0.85104 0.54322 0.0
H589 H 0.2088 0.86747 0.62401 0.0
H590 H 0.24034 0.90858 0.56582 0.0
H591 H 0.20041 0.82901 0.58312 0.0
H592 H 0.19496 0.83512 0.61367 0.0
H593 H 0.17788 0.825 0.54333 0.0
H594 H 0.12097 0.78831 0.5662 0.0
H595 H 0.16273 0.81994 0.62457 0.0
C596 C 0.20964 0.86176 0.55813 0.0
C597 C 0.22253 0.88045 0.55149 0.0
C598 C 0.20404 0.85684 0.58427 0.0
C599 C 0.21192 0.87109 0.60367 0.0
C600 C 0.22528 0.88969 0.59705 0.0
C601 C 0.22995 0.89425 0.57093 0.0
C602 C 0.19345 0.83624 0.59232 0.0
C603 C 0.17271 0.82526 0.58469 0.0
C604 C 0.16741 0.82001 0.55845 0.0
C605 C 0.14878 0.80675 0.55182 0.0
C606 C 0.13531 0.7988 0.57138 0.0
C607 C 0.14018 0.80332 0.59759 0.0
C608 C 0.1588 0.81692 0.60422 0.0
H609 H 0.19063 0.32474 0.52969 0.0
H610 H 0.19561 0.31932 0.61224 0.0
H611 H 0.24502 0.34515 0.56446 0.0
H612 H 0.1641 0.29993 0.5576 0.0
H613 H 0.16551 0.30237 0.59203 0.0
H614 H 0.16403 0.32673 0.53041 0.0
H615 H 0.12525 0.34155 0.5632 0.0
H616 H 0.15042 0.31737 0.61181 0.0
C617 C 0.19923 0.32802 0.54708 0.0
C618 C 0.21885 0.33669 0.54458 0.0
C619 C 0.19067 0.3224 0.57163 0.0
C620 C 0.20209 0.32485 0.59357 0.0
C621 C 0.22173 0.33303 0.59111 0.0
C622 C 0.23001 0.33962 0.56674 0.0
C623 C 0.16943 0.31055 0.57363 0.0
C624 C 0.1593 0.32176 0.57167 0.0
C625 C 0.1572 0.32839 0.54734 0.0
C626 C 0.1453 0.33602 0.54435 0.0
C627 C 0.1355 0.33702 0.56602 0.0
C628 C 0.13707 0.33027 0.59045 0.0
C629 C 0.14935 0.32299 0.59323 0.0
H630 H 0.9904 0.41073 0.07568 0.0
H631 H 0.051 0.43663 0.07965 0.0
H632 H 0.99115 0.42997 0.11249 0.0
H633 H 0.05169 0.45538 0.11683 0.0
H634 H 0.05108 0.49799 0.16986 0.0
H635 H 0.0475 0.48115 0.12917 0.0
H636 H 0.99677 0.43342 0.15827 0.0
H637 H 0.99982 0.45068 0.19834 0.0
C638 C 1.00386 0.42039 0.08455 0.0
C639 C 0.02064 0.42211 0.0747 0.0
C640 C 1.00429 0.43143 0.10568 0.0
C641 C 0.02149 0.44437 0.11756 0.0
C642 C 0.03822 0.44591 0.10784 0.0
C643 C 0.03781 0.43498 0.08664 0.0
C644 C 0.03883 0.48416 0.16725 0.0
C645 C 0.02581 0.47563 0.18745 0.0
C646 C 0.03695 0.47434 0.14407 0.0
C647 C 0.02207 0.45575 0.14061 0.0
C648 C 1.00839 0.44771 0.16016 0.0
C649 C 1.01021 0.45756 0.18325 0.0
H650 H 0.58902 0.61415 0.07224 0.0
H651 H 0.62842 0.59451 0.086 0.0
H652 H 0.57051 0.59609 0.10922 0.0
H653 H 0.61017 0.57687 0.12363 0.0
H654 H 0.56709 0.53627 0.17984 0.0
H655 H 0.5809 0.55028 0.13788 0.0
H656 H 0.57291 0.59747 0.15533 0.0
H657 H 0.55853 0.58312 0.19652 0.0
C658 C 0.59383 0.60608 0.08326 0.0
C659 C 0.61031 0.60592 0.07623 0.0
C660 C 0.5832 0.59572 0.10453 0.0
C661 C 0.58883 0.58502 0.1195 0.0
C662 C 0.60523 0.5847 0.11232 0.0
C663 C 0.61581 0.59499 0.09089 0.0
C664 C 0.5678 0.54935 0.17429 0.0
C665 C 0.56182 0.55865 0.19148 0.0
C666 C 0.57597 0.55753 0.15045 0.0
C667 C 0.57827 0.57515 0.14333 0.0
C668 C 0.57128 0.58386 0.15998 0.0
C669 C 0.56312 0.57569 0.1837 0.0
H670 H 0.41226 0.98473 0.08287 0.0
H671 H 0.44573 0.04549 0.08471 0.0
H672 H 0.42922 0.98308 0.12079 0.0
H673 H 0.46315 0.04381 0.12222 0.0
H674 H 0.47364 0.03231 0.20731 0.0
H675 H 0.45981 0.03636 0.16752 0.0
H676 H 0.45919 0.98764 0.13383 0.0
H677 H 0.47192 0.98294 0.17409 0.0
C678 C 0.42329 0.99775 0.09131 0.0
C679 C 0.4276 0.01524 0.08076 0.0
C680 C 0.43317 0.9968 0.11292 0.0
C681 C 0.44773 0.01331 0.12443 0.0
C682 C 0.45194 0.03083 0.114 0.0
C683 C 0.44195 0.03178 0.09246 0.0
C684 C 0.47068 0.02255 0.19132 0.0
C685 C 0.47372 1.00719 0.19405 0.0
C686 C 0.46288 0.02496 0.1684 0.0
C687 C 0.45807 1.01213 0.14759 0.0
C688 C 0.46229 0.99752 0.1497 0.0
C689 C 0.46995 0.99503 0.17267 0.0
H690 H 0.4139 0.99088 0.93394 0.0
H691 H 0.45296 0.04957 0.95048 0.0
H692 H 0.43263 0.99227 0.89644 0.0
H693 H 0.47197 0.0508 0.91346 0.0
H694 H 0.48564 0.05092 0.82623 0.0
H695 H 0.47054 0.05047 0.86708 0.0
H696 H 0.46215 0.99507 0.88332 0.0
H697 H 0.47663 0.99527 0.84176 0.0
C698 C 0.42653 1.00407 0.92966 0.0
C699 C 0.43183 0.02015 0.94514 0.0
C700 C 0.43739 1.00481 0.9083 0.0
C701 C 0.45389 0.02163 0.90195 0.0
C702 C 0.45925 0.03767 0.91757 0.0
C703 C 0.44834 0.03696 0.93885 0.0
C704 C 0.48078 0.03874 0.8387 0.0
C705 C 0.48219 0.02307 0.83068 0.0
C706 C 0.47221 0.03852 0.86222 0.0
C707 C 0.4649 0.02263 0.87841 0.0
C708 C 0.4673 1.00739 0.87109 0.0
C709 C 0.47587 1.00761 0.84747 0.0
H710 H 0.99087 0.41398 0.94438 0.0
H711 H 0.04932 0.43257 0.92876 0.0
H712 H 0.98985 0.43183 0.90739 0.0
H713 H 0.04811 0.44993 0.89098 0.0
H714 H 0.04504 0.49008 0.83406 0.0
H715 H 0.04575 0.47647 0.87612 0.0
H716 H 0.98945 0.43026 0.86167 0.0
H717 H 0.98854 0.44427 0.82052 0.0
C718 C 1.00348 0.42173 0.93289 0.0
C719 C 1.02014 0.42169 0.93945 0.0
C720 C 1.00289 0.43199 0.9116 0.0
C721 C 1.01887 0.44233 0.89605 0.0
C722 C 0.0356 0.4424 0.90272 0.0
C723 C 0.03625 0.43226 0.92423 0.0
C724 C 0.03263 0.47734 0.84034 0.0
C725 C 1.01676 0.46819 0.82398 0.0
C726 C 0.03314 0.46936 0.86423 0.0
C727 C 1.01776 0.45209 0.8722 0.0
C728 C 1.00151 0.4436 0.8564 0.0
C729 C 1.001 0.45159 0.83268 0.0
H730 H 0.62949 0.59391 0.9364 0.0
H731 H 0.59399 0.61903 0.93856 0.0
H732 H 0.61234 0.57546 0.89837 0.0
H733 H 0.57645 0.60011 0.90091 0.0
H734 H 0.56531 0.57965 0.81515 0.0
H735 H 0.57951 0.59708 0.85519 0.0
H736 H 0.58258 0.54946 0.88522 0.0
H737 H 0.56926 0.5324 0.8446 0.0
C738 C 0.618 0.59548 0.9288 0.0
C739 C 0.61317 0.60801 0.94052 0.0
C740 C 0.60801 0.58472 0.90712 0.0
C741 C 0.59285 0.58612 0.89668 0.0
C742 C 0.58813 0.59878 0.90828 0.0
C743 C 0.59819 0.60962 0.9299 0.0
C744 C 0.56888 0.57285 0.83041 0.0
C745 C 0.5663 0.5547 0.82656 0.0
C746 C 0.5769 0.5828 0.85347 0.0
C747 C 0.58246 0.5748 0.87334 0.0
C748 C 0.57885 0.55621 0.8701 0.0
C749 C 0.5709 0.54629 0.84696 0.0
H750 H 0.05496 0.62766 0.92423 0.0
H751 H 0.99586 0.58744 0.93437 0.0
H752 H 0.05583 0.60955 0.88704 0.0
H753 H 0.99676 0.56949 0.89702 0.0
H754 H 0.04039 0.5858 0.80245 0.0
H755 H 0.04253 0.60276 0.84258 0.0
H756 H 1.01068 0.5498 0.88263 0.0
H757 H 1.00852 0.53282 0.84205 0.0
C758 C 0.04213 0.61501 0.91849 0.0
C759 C 0.0253 0.60908 0.93221 0.0
C760 C 0.04266 0.60464 0.8972 0.0
C761 C 0.0264 0.58805 0.88921 0.0
C762 C 1.0096 0.58205 0.90297 0.0
C763 C 1.00903 0.59247 0.9242 0.0
C764 C 0.03417 0.57784 0.82 0.0
C765 C 0.02429 0.55808 0.81934 0.0
C766 C 0.03543 0.58752 0.84296 0.0
C767 C 0.02668 0.57761 0.86571 0.0
C768 C 1.01739 0.55778 0.86529 0.0
C769 C 1.0163 0.54807 0.84226 0.0
H770 H 0.44194 0.40509 0.93652 0.0
H771 H 0.41642 0.44018 0.94053 0.0
H772 H 0.45985 0.42242 0.89876 0.0
H773 H 0.43479 0.45792 0.903 0.0
H774 H 0.45356 0.46803 0.81637 0.0
H775 H 0.437 0.45444 0.85684 0.0
H776 H 0.4855 0.45242 0.88605 0.0
H777 H 0.50166 0.46512 0.8451 0.0
C778 C 0.44019 0.41656 0.92942 0.0
C779 C 0.42769 0.4212 0.94156 0.0
C780 C 0.45063 0.42665 0.90788 0.0
C781 C 0.44894 0.44172 0.89796 0.0
C782 C 0.43636 0.44632 0.91001 0.0
C783 C 0.42583 0.43615 0.93155 0.0
C784 C 0.46074 0.46484 0.83156 0.0
C785 C 0.47886 0.46749 0.82738 0.0
C786 C 0.4513 0.45718 0.85485 0.0
C787 C 0.4598 0.45205 0.87458 0.0
C788 C 0.47838 0.45582 0.87103 0.0
C789 C 0.48778 0.46341 0.84769 0.0
H790 H 0.60549 0.98863 0.9301 0.0
H791 H 0.62386 0.04663 0.94974 0.0
H792 H 0.58788 0.99057 0.89305 0.0
H793 H 0.60583 0.0484 0.91318 0.0
H794 H 0.59142 0.05037 0.82661 0.0
H795 H 0.60662 0.04925 0.86681 0.0
H796 H 0.56068 0.99299 0.88102 0.0
H797 H 0.54585 0.99389 0.84008 0.0
C798 C 0.60574 1.00179 0.92658 0.0
C799 C 0.61621 0.01751 0.94283 0.0
C800 C 0.59546 1.00284 0.90547 0.0
C801 C 0.59532 0.01961 0.90017 0.0
C802 C 0.60576 0.03531 0.91649 0.0
C803 C 0.61611 0.03429 0.9375 0.0
C804 C 0.58446 0.03785 0.83851 0.0
C805 C 0.56752 0.02217 0.83008 0.0
C806 C 0.59312 0.03724 0.86166 0.0
C807 C 0.58501 0.02094 0.87705 0.0
C808 C 0.56749 1.00564 0.86938 0.0
C809 C 0.55883 1.00625 0.84613 0.0
H810 H 0.63508 0.0344 0.09777 0.0
H811 H 0.58796 0.98606 0.06186 0.0
H812 H 0.61564 0.03141 0.13522 0.0
H813 H 0.56813 0.98373 0.09824 0.0
H814 H 0.54343 0.97124 0.17999 0.0
H815 H 0.56142 0.9747 0.14079 0.0
H816 H 0.59164 0.03522 0.15186 0.0
H817 H 0.57434 0.03132 0.19211 0.0
C818 C 0.6205 0.02324 0.09782 0.0
C819 C 0.61311 1.01036 0.07704 0.0
C820 C 0.60923 0.02161 0.11917 0.0
C821 C 0.59016 1.00731 0.11996 0.0
C822 C 0.58278 0.99466 0.09881 0.0
C823 C 0.59416 0.99603 0.07781 0.0
C824 C 0.55368 0.98527 0.17363 0.0
C825 C 0.55744 1.00103 0.18877 0.0
C826 C 0.56403 0.98733 0.15112 0.0
C827 C 0.5782 1.00528 0.14299 0.0
C828 C 0.58124 0.02113 0.15769 0.0
C829 C 0.57115 0.01899 0.18053 0.0
H830 H 0.05895 0.62532 0.06747 0.0
H831 H 0.99832 0.59291 0.07365 0.0
H832 H 0.06201 0.60946 0.10557 0.0
H833 H 1.00147 0.5772 0.11211 0.0
H834 H 0.0583 0.59684 0.19354 0.0
H835 H 0.05603 0.61004 0.15217 0.0
H836 H 1.01242 0.55493 0.12679 0.0
H837 H 1.01472 0.54172 0.16871 0.0
C838 C 0.04626 0.61485 0.07697 0.0
C839 C 0.02838 0.61052 0.06759 0.0
C840 C 0.04803 0.60576 0.09883 0.0
C841 C 0.03199 0.59209 0.11186 0.0
C842 C 1.01409 0.58751 0.1023 0.0
C843 C 1.0123 0.59666 0.08042 0.0
C844 C 0.0484 0.58753 0.17895 0.0
C845 C 0.03665 0.56832 0.18417 0.0
C846 C 0.04715 0.59505 0.15524 0.0
C847 C 0.03401 0.58354 0.13623 0.0
C848 C 0.02255 0.56416 0.14119 0.0
C849 C 0.02396 0.55657 0.16497 0.0
H850 H 0.45105 0.41556 0.07193 0.0
H851 H 0.40751 0.4289 0.08931 0.0
H852 H 0.46956 0.43472 0.10875 0.0
H853 H 0.42543 0.44722 0.127 0.0
H854 H 0.46655 0.49166 0.18077 0.0
H855 H 0.45158 0.47524 0.14024 0.0
H856 H 0.472 0.43639 0.15388 0.0
H857 H 0.48782 0.45369 0.19348 0.0
C858 C 0.4453 0.42236 0.08389 0.0
C859 C 0.42781 0.42072 0.07772 0.0
C860 C 0.4559 0.43334 0.1051 0.0
C861 C 0.44913 0.44271 0.12093 0.0
C862 C 0.43142 0.44069 0.11495 0.0
C863 C 0.42099 0.42999 0.09348 0.0
C864 C 0.46819 0.47992 0.17456 0.0
C865 C 0.47844 0.474 0.1899 0.0
C866 C 0.45939 0.47028 0.1516 0.0
C867 C 0.46024 0.45421 0.14385 0.0
C868 C 0.47116 0.44879 0.1589 0.0
C869 C 0.48026 0.45867 0.18161 0.0
H870 H 0.72269 0.76931 0.41333 0.0
H871 H 0.66221 0.7441 0.40776 0.0
H872 H 0.72305 0.7873 0.4512 0.0
H873 H 0.66264 0.76256 0.44541 0.0
H874 H 0.67056 0.78129 0.53232 0.0
H875 H 0.66789 0.76476 0.49164 0.0
H876 H 0.71881 0.81307 0.46419 0.0
H877 H 0.72196 0.8292 0.5054 0.0
C878 C 0.70945 0.76765 0.42011 0.0
C879 C 0.69241 0.7552 0.4075 0.0
C880 C 0.70968 0.77814 0.44172 0.0
C881 C 0.69289 0.77656 0.45125 0.0
C882 C 0.67582 0.76404 0.43872 0.0
C883 C 0.67557 0.75346 0.41711 0.0
C884 C 0.68109 0.78844 0.51748 0.0
C885 C 0.69658 0.80649 0.52224 0.0
C886 C 0.67948 0.77901 0.49405 0.0
C887 C 0.69329 0.78745 0.47475 0.0
C888 C 0.70814 0.80598 0.47886 0.0
C889 C 0.70979 0.81538 0.50235 0.0
H890 H 0.25848 0.94769 0.41441 0.0
H891 H 0.29436 0.92297 0.41466 0.0
H892 H 0.24127 0.92821 0.45142 0.0
H893 H 0.27691 0.90327 0.45126 0.0
H894 H 0.20466 0.8809 0.50657 0.0
H895 H 0.21972 0.89568 0.46525 0.0
H896 H 0.27363 0.90784 0.49693 0.0
H897 H 0.25852 0.89293 0.53763 0.0
C898 C 0.26268 0.93808 0.42228 0.0
C899 C 0.27794 0.93705 0.41166 0.0
C900 C 0.25266 0.92675 0.44333 0.0
C901 C 0.25766 0.91412 0.45427 0.0
C902 C 0.2728 0.91297 0.44348 0.0
C903 C 0.28282 0.9243 0.42247 0.0
C904 C 0.21962 0.88631 0.50426 0.0
C905 C 0.23047 0.88577 0.52507 0.0
C906 C 0.22829 0.89496 0.48082 0.0
C907 C 0.24792 0.90309 0.47785 0.0
C908 C 0.2585 0.90159 0.49837 0.0
C909 C 0.24987 0.89307 0.5217 0.0
H910 H 0.11131 0.37632 0.40709 0.0
H911 H 0.07627 0.31577 0.41092 0.0
H912 H 0.12983 0.37563 0.44405 0.0
H913 H 0.09443 0.31516 0.44798 0.0
H914 H 0.13826 0.31559 0.49931 0.0
H915 H 0.12501 0.31958 0.45892 0.0
H916 H 0.12718 0.36959 0.49047 0.0
H917 H 0.14125 0.36606 0.53045 0.0
C918 C 0.10746 0.36289 0.41591 0.0
C919 C 0.0923 0.3461 0.406 0.0
C920 C 0.11808 0.3625 0.4371 0.0
C921 C 0.11377 0.34532 0.44881 0.0
C922 C 0.09845 0.3286 0.43907 0.0
C923 C 0.08789 0.32898 0.41794 0.0
C924 C 0.13648 0.32777 0.49735 0.0
C925 C 0.14068 0.34043 0.51819 0.0
C926 C 0.1286 0.3299 0.47433 0.0
C927 C 0.12466 0.34468 0.47165 0.0
C928 C 0.13002 0.35805 0.49184 0.0
C929 C 0.13797 0.35595 0.51483 0.0
H930 H 0.08572 0.31549 0.27563 0.0
H931 H 0.09832 0.37223 0.25895 0.0
H932 H 0.10531 0.31672 0.23926 0.0
H933 H 0.1171 0.3732 0.22194 0.0
H934 H 0.16286 0.37824 0.17078 0.0
H935 H 0.1458 0.37565 0.2108 0.0
H936 H 0.10755 0.31676 0.1937 0.0
H937 H 0.12544 0.31936 0.15449 0.0
C938 C 0.09244 0.32812 0.26393 0.0
C939 C 0.09051 0.34378 0.2702 0.0
C940 C 0.10368 0.32883 0.24303 0.0
C941 C 0.11303 0.34514 0.22771 0.0
C942 C 0.11062 0.36059 0.23367 0.0
C943 C 0.09964 0.35997 0.25475 0.0
C944 C 0.15112 0.36467 0.17612 0.0
C945 C 0.1455 0.34896 0.15989 0.0
C946 C 0.14113 0.3632 0.19878 0.0
C947 C 0.12501 0.34606 0.20534 0.0
C948 C 0.11995 0.33014 0.18952 0.0
C949 C 0.13017 0.33157 0.16706 0.0
H950 H 0.66494 0.73509 0.2602 0.0
H951 H 0.72224 0.77832 0.27661 0.0
H952 H 0.66406 0.7529 0.22301 0.0
H953 H 0.72112 0.79667 0.24013 0.0
H954 H 0.71836 0.81412 0.15543 0.0
H955 H 0.72077 0.79865 0.19465 0.0
H956 H 0.66226 0.77945 0.21136 0.0
H957 H 0.65983 0.79411 0.17134 0.0
C958 C 0.67734 0.74847 0.25592 0.0
C959 C 0.69366 0.75526 0.27134 0.0
C960 C 0.67678 0.75883 0.23472 0.0
C961 C 0.69244 0.77643 0.22863 0.0
C962 C 0.70885 0.78312 0.24397 0.0
C963 C 0.70949 0.7726 0.26495 0.0
C964 C 0.7062 0.80693 0.16791 0.0
C965 C 0.68896 0.80534 0.16063 0.0
C966 C 0.70752 0.79802 0.19038 0.0
C967 C 0.69163 0.7875 0.20612 0.0
C968 C 0.67466 0.78694 0.19942 0.0
C969 C 0.6733 0.79558 0.17676 0.0
H970 H 0.29751 0.92752 0.27108 0.0
H971 H 0.2611 0.95162 0.27292 0.0
H972 H 0.2818 0.91022 0.23165 0.0
H973 H 0.24503 0.93388 0.2337 0.0
H974 H 0.23653 0.91543 0.14688 0.0
H975 H 0.24997 0.93233 0.18762 0.0
H976 H 0.25226 0.88421 0.21728 0.0
H977 H 0.23976 0.86773 0.17618 0.0
C978 C 0.28611 0.9291 0.26313 0.0
C979 C 0.28058 0.94097 0.2752 0.0
C980 C 0.27698 0.91903 0.24061 0.0
C981 C 0.26201 0.9205 0.22964 0.0
C982 C 0.25659 0.93253 0.24154 0.0
C983 C 0.26578 0.94267 0.26406 0.0
C984 C 0.23984 0.90845 0.16217 0.0
C985 C 0.23716 0.89027 0.15819 0.0
C986 C 0.24739 0.91807 0.1856 0.0
C987 C 0.2524 0.90971 0.20563 0.0
C988 C 0.2489 0.8912 0.20208 0.0
C989 C 0.24142 0.88162 0.17863 0.0
H990 H 0.65386 0.9117 0.2796 0.0
H991 H 0.71312 0.95068 0.26831 0.0
H992 H 0.65365 0.89361 0.24183 0.0
H993 H 0.71277 0.93289 0.22997 0.0
H994 H 0.7107 0.89075 0.17195 0.0
H995 H 0.70994 0.90372 0.21457 0.0
H996 H 0.65534 0.89679 0.1958 0.0
H997 H 0.65584 0.88319 0.1539 0.0
C998 C 0.66684 0.91649 0.26897 0.0
C999 C 0.68348 0.93274 0.2769 0.0
C1000 C 0.66671 0.90611 0.24726 0.0
C1001 C 0.68318 0.91178 0.23279 0.0
C1002 C 0.69989 0.92793 0.24089 0.0
C1003 C 0.70005 0.93825 0.26273 0.0
C1004 C 0.69832 0.8915 0.17732 0.0
C1005 C 0.68338 0.88607 0.15956 0.0
C1006 C 0.69799 0.89919 0.20156 0.0
C1007 C 0.6827 0.90157 0.20851 0.0
C1008 C 0.6673 0.89509 0.19126 0.0
C1009 C 0.66763 0.8874 0.16714 0.0
H1010 H 0.10743 0.74451 0.26378 0.0
H1011 H 0.08386 0.7811 0.27219 0.0
H1012 H 0.12655 0.7635 0.22787 0.0
H1013 H 0.10342 0.80045 0.23644 0.0
H1014 H 0.12413 0.8131 0.14977 0.0
H1015 H 0.10679 0.79934 0.18972 0.0
H1016 H 0.15334 0.7939 0.21904 0.0
H1017 H 0.17021 0.80669 0.17868 0.0
C1018 C 0.10634 0.75664 0.25801 0.0
C1019 C 0.09408 0.76125 0.27089 0.0
C1020 C 0.11749 0.76768 0.23757 0.0
C1021 C 0.11676 0.7837 0.22951 0.0
C1022 C 0.1043 0.78819 0.24212 0.0
C1023 C 0.09308 0.77708 0.2626 0.0
C1024 C 0.13079 0.80928 0.16497 0.0
C1025 C 0.14844 0.81075 0.16083 0.0
C1026 C 0.12089 0.80146 0.18793 0.0
C1027 C 0.12849 0.79507 0.20732 0.0
C1028 C 0.14687 0.79821 0.20418 0.0
C1029 C 0.15671 0.8059 0.18118 0.0
H1030 H 0.29026 0.38108 0.2773 0.0
H1031 H 0.27155 0.32277 0.25925 0.0
H1032 H 0.27171 0.38228 0.24097 0.0
H1033 H 0.25341 0.32414 0.22248 0.0
H1034 H 0.21114 0.32656 0.16926 0.0
H1035 H 0.22607 0.32646 0.21057 0.0
H1036 H 0.27204 0.38235 0.1945 0.0
H1037 H 0.25679 0.38263 0.15389 0.0
C1038 C 0.28232 0.36855 0.26547 0.0
C1039 C 0.2825 0.35185 0.27116 0.0
C1040 C 0.27166 0.36924 0.2446 0.0
C1041 C 0.26097 0.35329 0.22881 0.0
C1042 C 0.26117 0.33659 0.2345 0.0
C1043 C 0.27177 0.33588 0.25544 0.0
C1044 C 0.22413 0.33902 0.17501 0.0
C1045 C 0.23286 0.35456 0.15831 0.0
C1046 C 0.23285 0.33887 0.19846 0.0
C1047 C 0.25044 0.35427 0.20569 0.0
C1048 C 0.25849 0.37027 0.1897 0.0
C1049 C 0.2498 0.37042 0.16634 0.0
H1050 H 0.30471 0.36927 0.42696 0.0
H1051 H 0.2551 0.32466 0.38965 0.0
H1052 H 0.28612 0.36716 0.46505 0.0
H1053 H 0.23618 0.32338 0.42661 0.0
H1054 H 0.21117 0.31019 0.50765 0.0
H1055 H 0.22884 0.31327 0.46838 0.0
H1056 H 0.26402 0.373 0.4837 0.0
H1057 H 0.24693 0.36935 0.5241 0.0
C1058 C 0.28977 0.35915 0.42685 0.0
C1059 C 0.28139 0.34698 0.40552 0.0
C1060 C 0.279 0.35804 0.44857 0.0
C1061 C 0.2595 0.34505 0.44917 0.0
C1062 C 0.25116 0.33322 0.42739 0.0
C1063 C 0.26201 0.334 0.40604 0.0
C1064 C 0.22248 0.32401 0.50228 0.0
C1065 C 0.22763 0.33956 0.51867 0.0
C1066 C 0.23266 0.32585 0.47968 0.0
C1067 C 0.24802 0.34341 0.47261 0.0
C1068 C 0.25261 0.35915 0.48864 0.0
C1069 C 0.24268 0.35718 0.51161 0.0
H1070 H 0.71363 0.95134 0.41744 0.0
H1071 H 0.653 0.91653 0.41506 0.0
H1072 H 0.71482 0.93444 0.4555 0.0
H1073 H 0.65426 0.89925 0.45293 0.0
H1074 H 0.66507 0.88952 0.53936 0.0
H1075 H 0.66109 0.90298 0.49918 0.0
H1076 H 0.71044 0.9042 0.46751 0.0
H1077 H 0.71498 0.89172 0.50803 0.0
C1078 C 0.70053 0.94005 0.425 0.0
C1079 C 0.68322 0.9353 0.41315 0.0
C1080 C 0.70123 0.93021 0.4467 0.0
C1081 C 0.68465 0.9153 0.45709 0.0
C1082 C 0.66729 0.91071 0.4455 0.0
C1083 C 0.66657 0.92061 0.42378 0.0
C1084 C 0.67495 0.89249 0.5237 0.0
C1085 C 0.69043 0.88969 0.52705 0.0
C1086 C 0.6726 0.90009 0.50059 0.0
C1087 C 0.68564 0.90499 0.48028 0.0
C1088 C 0.70038 0.90099 0.483 0.0
C1089 C 0.70279 0.8935 0.50611 0.0
H1090 H 0.08627 0.77673 0.40914 0.0
H1091 H 0.10923 0.73931 0.40927 0.0
H1092 H 0.10456 0.79234 0.44815 0.0
H1093 H 0.12765 0.7551 0.44814 0.0
H1094 H 0.13375 0.77049 0.5363 0.0
H1095 H 0.12017 0.75693 0.49396 0.0
H1096 H 0.13753 0.81256 0.46452 0.0
H1097 H 0.15109 0.82614 0.50737 0.0
C1098 C 0.09524 0.77185 0.41742 0.0
C1099 C 0.09614 0.75664 0.40617 0.0
C1100 C 0.10588 0.78095 0.43963 0.0
C1101 C 0.1176 0.775 0.45116 0.0
C1102 C 0.11865 0.75992 0.43979 0.0
C1103 C 0.10808 0.75087 0.41752 0.0
C1104 C 0.1349 0.77983 0.52063 0.0
C1105 C 0.14333 0.79931 0.52501 0.0
C1106 C 0.12722 0.77209 0.49636 0.0
C1107 C 0.12767 0.78366 0.47594 0.0
C1108 C 0.1368 0.80329 0.48001 0.0
C1109 C 0.14469 0.81108 0.50436 0.0
H1110 H 0.37761 0.1145 0.72033 0.0
H1111 H 0.3321 0.06582 0.75694 0.0
H1112 H 0.37806 0.13435 0.75586 0.0
H1113 H 0.33334 0.08536 0.79361 0.0
H1114 H 0.33065 0.12478 0.85097 0.0
H1115 H 0.32732 0.10816 0.80996 0.0
H1116 H 0.38746 0.1421 0.79822 0.0
H1117 H 0.39031 0.15926 0.8381 0.0
C1118 C 0.36789 0.108 0.73627 0.0
C1119 C 0.35494 0.0886 0.73602 0.0
C1120 C 0.36816 0.11939 0.75675 0.0
C1121 C 0.35582 0.11157 0.77789 0.0
C1122 C 0.34282 0.09207 0.77753 0.0
C1123 C 0.34224 0.08076 0.75667 0.0
C1124 C 0.34297 0.12899 0.83903 0.0
C1125 C 0.36069 0.14339 0.84744 0.0
C1126 C 0.34117 0.11929 0.81576 0.0
C1127 C 0.35715 0.12349 0.80077 0.0
C1128 C 0.37473 0.13855 0.8088 0.0
C1129 C 0.37643 0.14847 0.83172 0.0
H1130 H 0.96229 0.25348 0.74401 0.0
H1131 H 0.92621 0.27798 0.74315 0.0
H1132 H 0.94552 0.23473 0.78178 0.0
H1133 H 0.90965 0.2594 0.78107 0.0
H1134 H 0.87392 0.21323 0.838 0.0
H1135 H 0.88841 0.22663 0.79586 0.0
H1136 H 0.94299 0.24129 0.82768 0.0
H1137 H 0.92847 0.22784 0.86934 0.0
C1138 C 0.95082 0.25492 0.75188 0.0
C1139 C 0.9457 0.26736 0.74062 0.0
C1140 C 0.94121 0.24415 0.77352 0.0
C1141 C 0.9262 0.24551 0.78436 0.0
C1142 C 0.92094 0.25779 0.77294 0.0
C1143 C 0.93059 0.26861 0.75136 0.0
C1144 C 0.88892 0.21891 0.83561 0.0
C1145 C 0.90013 0.21956 0.85673 0.0
C1146 C 0.89725 0.22675 0.81168 0.0
C1147 C 0.91688 0.23517 0.80851 0.0
C1148 C 0.92784 0.2348 0.82936 0.0
C1149 C 0.91956 0.22715 0.85322 0.0
H1150 H 0.74276 0.64449 0.74355 0.0
H1151 H 0.77937 0.70491 0.74654 0.0
H1152 H 0.75806 0.64124 0.78223 0.0
H1153 H 0.79456 0.70157 0.7857 0.0
H1154 H 0.82781 0.68507 0.8434 0.0
H1155 H 0.81485 0.68817 0.80156 0.0
H1156 H 0.75868 0.6494 0.82835 0.0
H1157 H 0.77157 0.64624 0.86952 0.0
C1158 C 0.75404 0.65711 0.75248 0.0
C1159 C 0.75972 0.67498 0.74202 0.0
C1160 C 0.7628 0.65523 0.77469 0.0
C1161 C 0.77748 0.67115 0.78704 0.0
C1162 C 0.78341 0.68903 0.77643 0.0
C1163 C 0.77458 0.69094 0.75417 0.0
C1164 C 0.81275 0.67712 0.84006 0.0
C1165 C 0.80066 0.66553 0.85963 0.0
C1166 C 0.80532 0.67899 0.81631 0.0
C1167 C 0.78574 0.66904 0.81172 0.0
C1168 C 0.77382 0.65711 0.83115 0.0
C1169 C 0.78118 0.65539 0.85479 0.0
H1170 H 0.78326 0.70372 0.60879 0.0
H1171 H 0.74024 0.64557 0.597 0.0
H1172 H 0.80001 0.70188 0.57082 0.0
H1173 H 0.75712 0.64378 0.55905 0.0
H1174 H 0.83364 0.68759 0.5138 0.0
H1175 H 0.81768 0.68593 0.55493 0.0
H1176 H 0.76398 0.65806 0.51491 0.0
H1177 H 0.77989 0.65973 0.47417 0.0
C1178 C 0.77737 0.69055 0.59813 0.0
C1179 C 0.76032 0.67483 0.60586 0.0
C1180 C 0.78709 0.68944 0.57654 0.0
C1181 C 0.77993 0.67266 0.56206 0.0
C1182 C 0.76293 0.65693 0.56979 0.0
C1183 C 0.75327 0.65798 0.59152 0.0
C1184 C 0.81841 0.68082 0.51406 0.0
C1185 C 0.80795 0.67387 0.49096 0.0
C1186 C 0.8093 0.67999 0.53744 0.0
C1187 C 0.78959 0.67196 0.53807 0.0
C1188 C 0.77914 0.6642 0.51511 0.0
C1189 C 0.78824 0.66522 0.4918 0.0
H1190 H 0.32256 0.07916 0.61186 0.0
H1191 H 0.37877 0.09365 0.58855 0.0
H1192 H 0.32075 0.09759 0.57619 0.0
H1193 H 0.37668 0.1115 0.55205 0.0
H1194 H 0.37418 0.15396 0.4994 0.0
H1195 H 0.37607 0.13924 0.53973 0.0
H1196 H 0.31747 0.09663 0.53085 0.0
H1197 H 0.31541 0.11192 0.49161 0.0
C1198 C 0.33445 0.08607 0.59889 0.0
C1199 C 0.35076 0.08481 0.60297 0.0
C1200 C 0.33342 0.09666 0.57837 0.0
C1201 C 0.34856 0.10608 0.56113 0.0
C1202 C 0.36486 0.10475 0.56517 0.0
C1203 C 0.36599 0.09432 0.58593 0.0
C1204 C 0.36159 0.14179 0.50655 0.0
C1205 C 0.34468 0.13402 0.49223 0.0
C1206 C 0.36274 0.13314 0.52942 0.0
C1207 C 0.34701 0.11653 0.53841 0.0
C1208 C 0.32987 0.10943 0.52475 0.0
C1209 C 0.3287 0.11813 0.50208 0.0
H1210 H 0.96041 0.25694 0.59868 0.0
H1211 H 0.92442 0.28139 0.60434 0.0
H1212 H 0.94284 0.23898 0.56064 0.0
H1213 H 0.90651 0.26299 0.56645 0.0
H1214 H 0.89568 0.244 0.47936 0.0
H1215 H 0.90973 0.2609 0.51989 0.0
H1216 H 0.91256 0.21282 0.54848 0.0
H1217 H 0.89935 0.1963 0.50754 0.0
C1218 C 0.94871 0.25847 0.59186 0.0
C1219 C 0.94385 0.27064 0.60458 0.0
C1220 C 0.9385 0.248 0.57017 0.0
C1221 C 0.92311 0.24936 0.56066 0.0
C1222 C 0.91835 0.26168 0.57319 0.0
C1223 C 0.92861 0.27222 0.59492 0.0
C1224 C 0.89914 0.23699 0.49443 0.0
C1225 C 0.89654 0.21887 0.49012 0.0
C1226 C 0.90707 0.24662 0.51774 0.0
C1227 C 0.91254 0.23832 0.53728 0.0
C1228 C 0.90887 0.21976 0.53359 0.0
C1229 C 0.901 0.21016 0.51026 0.0
H1230 H 0.37785 0.28791 0.59712 0.0
H1231 H 0.32022 0.24712 0.61544 0.0
H1232 H 0.37616 0.2694 0.55892 0.0
H1233 H 0.31873 0.2283 0.57783 0.0
H1234 H 0.31583 0.21379 0.4908 0.0
H1235 H 0.31727 0.2292 0.53191 0.0
H1236 H 0.37433 0.2408 0.54395 0.0
H1237 H 0.37316 0.22615 0.50198 0.0
C1238 C 0.36486 0.27492 0.59311 0.0
C1239 C 0.34912 0.26909 0.60923 0.0
C1240 C 0.36395 0.2642 0.57132 0.0
C1241 C 0.34731 0.24731 0.56524 0.0
C1242 C 0.33168 0.24136 0.58164 0.0
C1243 C 0.33254 0.25215 0.60328 0.0
C1244 C 0.32865 0.21953 0.50231 0.0
C1245 C 0.34444 0.21892 0.49298 0.0
C1246 C 0.32943 0.22824 0.52604 0.0
C1247 C 0.34599 0.23645 0.54122 0.0
C1248 C 0.36147 0.23495 0.53254 0.0
C1249 C 0.36071 0.22629 0.50867 0.0
H1250 H 0.77257 0.07145 0.60158 0.0
H1251 H 0.74839 0.10775 0.60493 0.0
H1252 H 0.7904 0.08806 0.56336 0.0
H1253 H 0.76667 0.12473 0.56693 0.0
H1254 H 0.78472 0.13347 0.48007 0.0
H1255 H 0.76831 0.12047 0.52082 0.0
H1256 H 0.81643 0.11769 0.5499 0.0
H1257 H 0.83245 0.12985 0.50869 0.0
C1258 C 0.7711 0.08302 0.59423 0.0
C1259 C 0.75899 0.08822 0.60633 0.0
C1260 C 0.78149 0.0927 0.57242 0.0
C1261 C 0.78014 0.10788 0.56218 0.0
C1262 C 0.76795 0.11303 0.57419 0.0
C1263 C 0.75749 0.1033 0.596 0.0
C1264 C 0.79186 0.13024 0.49528 0.0
C1265 C 0.80983 0.13254 0.49102 0.0
C1266 C 0.7825 0.12292 0.51873 0.0
C1267 C 0.79093 0.11777 0.53853 0.0
C1268 C 0.80937 0.12114 0.53485 0.0
C1269 C 0.8187 0.1284 0.51136 0.0
H1270 H 0.93597 0.65034 0.59668 0.0
H1271 H 0.95429 0.70848 0.61533 0.0
H1272 H 0.91847 0.652 0.55931 0.0
H1273 H 0.93631 0.70996 0.57848 0.0
H1274 H 0.92266 0.71133 0.49137 0.0
H1275 H 0.93728 0.71061 0.53229 0.0
H1276 H 0.89144 0.65424 0.54625 0.0
H1277 H 0.87722 0.65475 0.50454 0.0
C1278 C 0.93622 0.66347 0.59288 0.0
C1279 C 0.94667 0.67932 0.60892 0.0
C1280 C 0.92599 0.66435 0.5716 0.0
C1281 C 0.92585 0.68108 0.56591 0.0
C1282 C 0.93625 0.6969 0.58206 0.0
C1283 C 0.94657 0.69605 0.60324 0.0
C1284 C 0.91557 0.69889 0.50338 0.0
C1285 C 0.8989 0.68304 0.49462 0.0
C1286 C 0.9239 0.69849 0.52695 0.0
C1287 C 0.9157 0.68226 0.54247 0.0
C1288 C 0.89835 0.66683 0.53452 0.0
C1289 C 0.89002 0.66722 0.51082 0.0
H1290 H 0.9666 0.69882 0.76327 0.0
H1291 H 0.91834 0.65082 0.72875 0.0
H1292 H 0.94762 0.6973 0.80053 0.0
H1293 H 0.89898 0.64997 0.76493 0.0
H1294 H 0.87514 0.63959 0.84733 0.0
H1295 H 0.89224 0.6418 0.8077 0.0
H1296 H 0.92441 0.70242 0.81695 0.0
H1297 H 0.90798 0.69976 0.85765 0.0
C1298 C 0.95187 0.68805 0.76357 0.0
C1299 C 0.94402 0.67482 0.74326 0.0
C1300 C 0.94086 0.68728 0.78481 0.0
C1301 C 0.92161 0.67352 0.78595 0.0
C1302 C 0.91377 0.66052 0.76524 0.0
C1303 C 0.92488 0.66103 0.74435 0.0
C1304 C 0.88558 0.65338 0.84045 0.0
C1305 C 0.89017 0.66952 0.85527 0.0
C1306 C 0.89545 0.65472 0.81769 0.0
C1307 C 0.90995 0.67231 0.80898 0.0
C1308 C 0.91374 0.68858 0.82325 0.0
C1309 C 0.90413 0.68715 0.84633 0.0
H1310 H 0.32326 0.25603 0.74871 0.0
H1311 H 0.38393 0.2903 0.74823 0.0
H1312 H 0.32522 0.239 0.78636 0.0
H1313 H 0.38586 0.27372 0.78621 0.0
H1314 H 0.38644 0.23076 0.83854 0.0
H1315 H 0.38178 0.24389 0.79871 0.0
H1316 H 0.3327 0.24241 0.8319 0.0
H1317 H 0.33675 0.22824 0.87124 0.0
C1318 C 0.337 0.26008 0.7568 0.0
C1319 C 0.35344 0.27451 0.7454 0.0
C1320 C 0.33812 0.25032 0.77842 0.0
C1321 C 0.35571 0.25483 0.78921 0.0
C1322 C 0.3721 0.26953 0.77807 0.0
C1323 C 0.37099 0.27919 0.7564 0.0
C1324 C 0.37432 0.23269 0.8371 0.0
C1325 C 0.36201 0.22849 0.85819 0.0
C1326 C 0.37184 0.24056 0.81439 0.0
C1327 C 0.35708 0.24457 0.81224 0.0
C1328 C 0.34421 0.2395 0.83281 0.0
C1329 C 0.34662 0.2315 0.85547 0.0
H1330 H 0.75173 0.10831 0.74476 0.0
H1331 H 0.775 0.07117 0.74629 0.0
H1332 H 0.77073 0.12505 0.7828 0.0
H1333 H 0.79417 0.08811 0.78403 0.0
H1334 H 0.81805 0.16064 0.84008 0.0
H1335 H 0.80354 0.14589 0.79811 0.0
H1336 H 0.78837 0.0913 0.8296 0.0
H1337 H 0.80295 0.10605 0.87098 0.0
C1338 C 0.76091 0.10373 0.75314 0.0
C1339 C 0.76169 0.08827 0.74256 0.0
C1340 C 0.77197 0.11348 0.77479 0.0
C1341 C 0.78402 0.10797 0.7864 0.0
C1342 C 0.78492 0.09262 0.77568 0.0
C1343 C 0.7739 0.0829 0.75403 0.0
C1344 C 0.81196 0.14556 0.83766 0.0
C1345 C 0.81154 0.13443 0.85861 0.0
C1346 C 0.8035 0.13709 0.81383 0.0
C1347 C 0.79468 0.11739 0.81058 0.0
C1348 C 0.79516 0.10649 0.83129 0.0
C1349 C 0.80345 0.1149 0.85502 0.0
H1350 H 0.10213 0.41953 0.01189 0.0
H1351 H 0.05991 0.36097 0.02059 0.0
H1352 H 0.12654 0.41234 0.02451 0.0
H1353 H 0.08434 0.35381 0.03368 0.0
H1354 H 0.13269 0.34349 0.04626 0.0
H1355 H 0.11236 0.35203 0.02168 0.0
H1356 H 0.1352 0.40409 0.06539 0.0
H1357 H 0.15555 0.39563 0.08946 0.0
C1358 C 0.09806 0.40507 0.01625 0.0
C1359 C 0.07901 0.39085 0.01546 0.0
C1360 C 0.11208 0.40096 0.02358 0.0
C1361 C 0.10744 0.38253 0.03033 0.0
C1362 C 0.08848 0.36814 0.02836 0.0
C1363 C 0.07443 0.37225 0.02101 0.0
C1364 C 0.13381 0.35705 0.04988 0.0
C1365 C 0.14571 0.36892 0.06972 0.0
C1366 C 0.12198 0.36182 0.03609 0.0
C1367 C 0.12195 0.37864 0.04175 0.0
C1368 C 0.1349 0.3911 0.06032 0.0
C1369 C 0.14658 0.38627 0.07416 0.0
H1370 H 0.67305 0.70633 0.02355 0.0
H1371 H 0.6148 0.69125 0.01365 0.0
H1372 H 0.68092 0.73826 0.03588 0.0
H1373 H 0.62271 0.7232 0.02554 0.0
H1374 H 0.6409 0.76955 0.09038 0.0
H1375 H 0.63154 0.74042 0.0665 0.0
H1376 H 0.68321 0.7682 0.02274 0.0
H1377 H 0.69265 0.79737 0.04709 0.0
C1378 C 0.66199 0.7099 0.02356 0.0
C1379 C 0.64327 0.69616 0.0179 0.0
C1380 C 0.66651 0.72826 0.03045 0.0
C1381 C 0.65242 0.73329 0.03185 0.0
C1382 C 0.63386 0.71975 0.02501 0.0
C1383 C 0.62935 0.70143 0.01811 0.0
C1384 C 0.64997 0.76956 0.07508 0.0
C1385 C 0.66748 0.78569 0.07058 0.0
C1386 C 0.64462 0.75287 0.06136 0.0
C1387 C 0.65673 0.75189 0.04289 0.0
C1388 C 0.67369 0.76842 0.03709 0.0
C1389 C 0.67897 0.7852 0.05074 0.0
H1390 H 0.34086 0.94045 -0.00502 0.0
H1391 H 0.33342 0.9824 0.0357 0.0
H1392 H 0.30854 0.9167 0.00481 0.0
H1393 H 0.30156 0.95858 0.04707 0.0
H1394 H 0.26394 0.87633 0.06307 0.0
H1395 H 0.29178 0.89887 0.03969 0.0
H1396 H 0.27038 0.93765 0.03782 0.0
H1397 H 0.24306 0.91529 0.0628 0.0
C1398 C 0.33225 0.9446 0.00597 0.0
C1399 C 0.33971 0.96326 0.01473 0.0
C1400 C 0.31372 0.93094 0.01181 0.0
C1401 C 0.3023 0.93548 0.02714 0.0
C1402 C 0.30963 0.95441 0.03491 0.0
C1403 C 0.32803 0.96815 0.02856 0.0
C1404 C 0.26493 0.88942 0.05685 0.0
C1405 C 0.25137 0.89407 0.06465 0.0
C1406 C 0.28096 0.90246 0.04341 0.0
C1407 C 0.28368 0.92039 0.0371 0.0
C1408 C 0.26916 0.92428 0.04294 0.0
C1409 C 0.25331 0.91136 0.05687 0.0
H1410 H 0.41429 0.09357 0.01888 0.0
H1411 H 0.36376 0.04572 0.98839 0.0
H1412 H 0.40368 0.11471 0.00219 0.0
H1413 H 0.35341 0.06694 0.97143 0.0
H1414 H 0.3715 0.11391 0.90599 0.0
H1415 H 0.37463 0.09197 0.93363 0.0
H1416 H 0.37329 0.12215 0.00169 0.0
H1417 H 0.36859 0.14387 0.97381 0.0
C1418 C 0.40073 0.08753 0.00918 0.0
C1419 C 0.38998 0.06799 0.00462 0.0
C1420 C 0.39461 0.09963 -0.00014 0.0
C1421 C 0.37777 0.09242 0.98554 0.0
C1422 C 0.36643 0.07281 0.98251 0.0
C1423 C 0.37239 0.06069 -0.00783 0.0
C1424 C 0.37098 0.11565 0.9268 0.0
C1425 C 0.36914 0.13054 0.93748 0.0
C1426 C 0.373 0.10305 0.94266 0.0
C1427 C 0.37388 0.10519 0.96974 0.0
C1428 C 0.37244 0.12014 0.98078 0.0
C1429 C 0.36988 0.13261 0.96479 0.0
H1430 H 0.98652 0.32219 0.00775 0.0
H1431 H 0.94278 0.33547 0.99101 0.0
H1432 H 0.96486 0.28921 -0.00298 0.0
H1433 H 0.9214 0.30279 0.97914 0.0
H1434 H 0.88279 0.24138 0.96465 0.0
H1435 H 0.90254 0.27044 0.98951 0.0
H1436 H 0.95235 0.27208 0.95863 0.0
H1437 H 0.93271 0.24301 0.93503 0.0
C1438 C 0.97225 0.31805 0.00188 0.0
C1439 C 0.96646 0.33151 -3e-05 0.0
C1440 C 0.95982 0.29913 -0.0044 0.0
C1441 C 0.94135 0.29323 0.98685 0.0
C1442 C 0.93536 0.30662 0.98608 0.0
C1443 C 0.94772 0.32547 -0.00732 0.0
C1444 C 0.89797 0.24773 0.96398 0.0
C1445 C 0.90625 0.24007 0.94786 0.0
C1446 C 0.90932 0.26449 0.9779 0.0
C1447 C 0.92914 0.27386 0.97591 0.0
C1448 C 0.93725 0.26533 0.96105 0.0
C1449 C 0.92597 0.24867 0.94732 0.0
H1450 H 0.71291 0.66969 0.01359 0.0
H1451 H 0.69535 0.61167 -0.00423 0.0
H1452 H 0.74546 0.67854 0.004 0.0
H1453 H 0.72737 0.62046 0.98487 0.0
H1454 H 0.7853 0.6358 0.9696 0.0
H1455 H 0.75835 0.63042 -0.00434 0.0
H1456 H 0.7641 0.68287 0.96815 0.0
H1457 H 0.79183 0.68885 0.94394 0.0
C1458 C 0.71602 0.65882 0.00773 0.0
C1459 C 0.7015 0.64 0.00528 0.0
C1460 C 0.73469 0.66389 0.00207 0.0
C1461 C 0.73925 0.6503 -0.00657 0.0
C1462 C 0.72471 0.63138 0.99192 0.0
C1463 C 0.70617 0.6263 -0.00205 0.0
C1464 C 0.78131 0.64657 0.97002 0.0
C1465 C 0.79052 0.66257 0.9542 0.0
C1466 C 0.76556 0.64331 0.98459 0.0
C1467 C 0.75847 0.65584 0.98339 0.0
C1468 C 0.76891 0.67277 0.96967 0.0
C1469 C 0.78482 0.67617 0.95551 0.0
H1470 H 0.98757 0.67104 0.00272 0.0
H1471 H 0.94595 0.61307 0.9869 0.0
H1472 H 0.96411 0.68043 -0.0062 0.0
H1473 H 0.92292 0.62237 0.97666 0.0
H1474 H 0.88048 0.63845 0.96495 0.0
H1475 H 0.90278 0.63295 0.98909 0.0
H1476 H 0.94865 0.68466 0.95884 0.0
H1477 H 0.9262 0.69097 0.9367 0.0
C1478 C 0.9734 0.6603 -0.00259 0.0
C1479 C 0.96867 0.64132 -0.00459 0.0
C1480 C 0.95993 0.66568 -0.00785 0.0
C1481 C 0.94148 0.65223 0.98437 0.0
C1482 C 0.93674 0.63318 0.98312 0.0
C1483 C 0.95008 0.62781 0.98875 0.0
C1484 C 0.89524 0.64908 0.9643 0.0
C1485 C 0.9015 0.66497 0.9483 0.0
C1486 C 0.90814 0.64571 0.97777 0.0
C1487 C 0.92768 0.65795 0.97524 0.0
C1488 C 0.9338 0.67476 0.96129 0.0
C1489 C 0.92087 0.67831 0.94827 0.0
H1490 H 0.36726 0.32442 0.98352 0.0
H1491 H 0.41804 0.33326 0.02176 0.0
H1492 H 0.35963 0.29262 0.97163 0.0
H1493 H 0.40994 0.30104 0.01145 0.0
H1494 H 0.40543 0.25672 0.95157 0.0
H1495 H 0.41063 0.28445 0.97571 0.0
H1496 H 0.35038 0.2616 0.98063 0.0
H1497 H 0.34546 0.23436 0.95493 0.0
C1498 C 0.37653 0.31935 0.99001 0.0
C1499 C 0.39336 0.3314 0.00325 0.0
C1500 C 0.37211 0.301 0.98337 0.0
C1501 C 0.38424 0.29411 0.99028 0.0
C1502 C 0.40047 0.30589 0.00509 0.0
C1503 C 0.40508 0.32436 0.01121 0.0
C1504 C 0.39333 0.25737 0.95862 0.0
C1505 C 0.37507 0.24343 0.95146 0.0
C1506 C 0.39625 0.27334 0.9725 0.0
C1507 C 0.38094 0.2756 0.97989 0.0
C1508 C 0.36257 0.26072 0.97468 0.0
C1509 C 0.35969 0.24492 0.96034 0.0
H1510 H 0.71436 0.04798 0.01124 0.0
H1511 H 0.70119 0.09232 -0.00042 0.0
H1512 H 0.74706 0.06961 -0.00017 0.0
H1513 H 0.73354 0.11367 0.98694 0.0
H1514 H 0.79432 0.15192 0.96959 0.0
H1515 H 0.76622 0.13218 -0.00435 0.0
H1516 H 0.76286 0.08235 0.9611 0.0
H1517 H 0.79101 0.10197 0.93634 0.0
C1518 C 0.71847 0.06238 0.00637 0.0
C1519 C 0.70512 0.06835 0.00603 0.0
C1520 C 0.73723 0.0748 -0.00032 0.0
C1521 C 0.74303 0.09342 0.99203 0.0
C1522 C 0.72979 0.09958 -0.00703 0.0
C1523 C 0.71112 0.08724 2e-05 0.0
C1524 C 0.78783 0.13673 0.96836 0.0
C1525 C 0.79471 0.12844 0.9509 0.0
C1526 C 0.7716 0.1254 0.98298 0.0
C1527 C 0.76201 0.10558 0.98033 0.0
C1528 C 0.76982 0.09744 0.96407 0.0
C1529 C 0.78595 0.10871 0.94966 0.0
H1530 H 0.68271 0.98325 0.01218 0.0
H1531 H 0.62564 0.93679 0.01587 0.0
H1532 H 0.69448 0.962 0.02317 0.0
H1533 H 0.63727 0.91573 0.02782 0.0
H1534 H 0.66123 0.87843 0.04352 0.0
H1535 H 0.65354 0.89911 0.01818 0.0
H1536 H 0.69555 0.94715 0.06175 0.0
H1537 H 0.70342 0.92664 0.08604 0.0
C1538 C 0.67268 0.96848 0.01514 0.0
C1539 C 0.65323 0.96178 0.01345 0.0
C1540 C 0.67941 0.95628 0.02156 0.0
C1541 C 0.66686 0.93711 0.02672 0.0
C1542 C 0.64743 0.93029 0.02371 0.0
C1543 C 0.64072 0.94245 0.01706 0.0
C1544 C 0.66917 0.89349 0.04692 0.0
C1545 C 0.68283 0.90097 0.06674 0.0
C1546 C 0.66464 0.90533 0.0327 0.0
C1547 C 0.67374 0.92484 0.03808 0.0
C1548 C 0.68834 0.93232 0.05672 0.0
C1549 C 0.69282 0.92055 0.07081 0.0
H1550 H 0.05391 0.70486 0.02263 0.0
H1551 H 0.10103 0.70044 -0.00616 0.0
H1552 H 0.07568 0.73653 0.03905 0.0
H1553 H 0.12271 0.7323 0.00995 0.0
H1554 H 0.15165 0.79794 0.03625 0.0
H1555 H 0.13013 0.77077 0.00886 0.0
H1556 H 0.10131 0.74002 0.07757 0.0
H1557 H 0.12305 0.766 0.10471 0.0
C1558 C 0.06884 0.71084 0.01909 0.0
C1559 C 0.07578 0.70005 0.00729 0.0
C1560 C 0.08126 0.72897 0.02844 0.0
C1561 C 0.10081 0.73677 0.0257 0.0
C1562 C 0.10768 0.72663 0.01204 0.0
C1563 C 0.09527 0.70837 0.00303 0.0
C1564 C 0.14076 0.78536 0.04546 0.0
C1565 C 0.13884 0.7845 0.07274 0.0
C1566 C 0.12842 0.76991 0.02979 0.0
C1567 C 0.11383 0.75358 0.04119 0.0
C1568 C 0.11209 0.75267 0.06829 0.0
C1569 C 0.12454 0.76773 0.08382 0.0
H1570 H 0.3287 0.35557 0.00905 0.0
H1571 H 0.34121 0.41298 0.01997 0.0
H1572 H 0.29569 0.34438 0.01903 0.0
H1573 H 0.30854 0.40187 0.03089 0.0
H1574 H 0.24764 0.37955 0.04472 0.0
H1575 H 0.27598 0.38723 0.01961 0.0
H1576 H 0.27931 0.34198 0.05774 0.0
H1577 H 0.25095 0.33418 0.08183 0.0
C1578 C 0.32438 0.36581 0.01338 0.0
C1579 C 0.33764 0.38515 0.01401 0.0
C1580 C 0.30546 0.35941 0.01921 0.0
C1581 C 0.29938 0.37218 0.02607 0.0
C1582 C 0.31253 0.39158 0.0254 0.0
C1583 C 0.33139 0.39797 0.01936 0.0
C1584 C 0.25414 0.37092 0.0469 0.0
C1585 C 0.24721 0.35632 0.06514 0.0
C1586 C 0.27049 0.37542 0.03282 0.0
C1587 C 0.28016 0.3654 0.03684 0.0
C1588 C 0.27227 0.34992 0.05379 0.0
C1589 C 0.25602 0.34546 0.06773 0.0
H1590 H 0.77352 0.75071 0.34342 0.0
H1591 H 0.72969 0.69269 0.35154 0.0
H1592 H 0.7971 0.74216 0.35527 0.0
H1593 H 0.75328 0.68419 0.3639 0.0
H1594 H 0.79964 0.67133 0.37732 0.0
H1595 H 0.78072 0.68127 0.35193 0.0
H1596 H 0.80475 0.73312 0.39634 0.0
H1597 H 0.82363 0.72322 0.42123 0.0
C1598 C 0.76891 0.73608 0.34746 0.0
C1599 C 0.74967 0.72241 0.34683 0.0
C1600 C 0.78245 0.73119 0.35432 0.0
C1601 C 0.7771 0.71253 0.36078 0.0
C1602 C 0.75794 0.69867 0.3588 0.0
C1603 C 0.74438 0.70356 0.35189 0.0
C1604 C 0.80136 0.68515 0.38085 0.0
C1605 C 0.81312 0.69657 0.4011 0.0
C1606 C 0.79035 0.69074 0.36661 0.0
C1607 C 0.79103 0.7079 0.37228 0.0
C1608 C 0.80395 0.7199 0.39123 0.0
C1609 C 0.8148 0.71427 0.40552 0.0
H1610 H 0.3378 0.03785 0.36149 0.0
H1611 H 0.28059 0.02315 0.34296 0.0
H1612 H 0.3453 0.07001 0.37146 0.0
H1613 H 0.28819 0.05537 0.35218 0.0
H1614 H 0.30203 0.10222 0.41442 0.0
H1615 H 0.29399 0.07316 0.39138 0.0
H1616 H 0.34937 0.09997 0.35705 0.0
H1617 H 0.35745 0.12907 0.3808 0.0
C1618 C 0.32692 0.04156 0.35907 0.0
C1619 C 0.30854 0.02785 0.3518 0.0
C1620 C 0.33125 0.06007 0.36458 0.0
C1621 C 0.31732 0.06532 0.36281 0.0
C1622 C 0.29919 0.05179 0.3542 0.0
C1623 C 0.29485 0.03329 0.34885 0.0
C1624 C 0.31222 0.10208 0.40119 0.0
C1625 C 0.33033 0.11786 0.39933 0.0
C1626 C 0.30765 0.0854 0.38796 0.0
C1627 C 0.32112 0.08409 0.37258 0.0
C1628 C 0.33877 0.1004 0.36907 0.0
C1629 C 0.34332 0.11716 0.3823 0.0
H1630 H 1.00781 0.26695 0.35651 0.0
H1631 H 0.99091 0.30736 0.33542 0.0
H1632 H 0.97571 0.24442 0.36791 0.0
H1633 H 0.95826 0.28432 0.3455 0.0
H1634 H 0.91109 0.24998 0.40516 0.0
H1635 H 0.93934 0.27103 0.38146 0.0
H1636 H 0.94484 0.22348 0.35682 0.0
H1637 H 0.91751 0.20268 0.38253 0.0
C1638 C 0.99712 0.27088 0.35374 0.0
C1639 C 1.00197 0.28903 0.34529 0.0
C1640 C 0.97854 0.25782 0.36005 0.0
C1641 C 0.96416 0.26239 0.3577 0.0
C1642 C 0.96892 0.28032 0.34806 0.0
C1643 C 0.98764 0.29354 0.34212 0.0
C1644 C 0.91822 0.24398 0.39448 0.0
C1645 C 0.91228 0.22467 0.39647 0.0
C1646 C 0.9344 0.25608 0.38054 0.0
C1647 C 0.94485 0.24914 0.3677 0.0
C1648 C 0.93762 0.22951 0.36722 0.0
C1649 C 0.92164 0.21744 0.3816 0.0
H1650 H 0.02987 0.38463 0.34112 0.0
H1651 H 0.08737 0.42379 0.32021 0.0
H1652 H 0.02114 0.40844 0.3312 0.0
H1653 H 0.07865 0.44707 0.30898 0.0
H1654 H 0.0638 0.4902 0.29482 0.0
H1655 H 0.06965 0.46868 0.32027 0.0
H1656 H 1.01588 0.4223 0.29536 0.0
H1657 H 1.00938 0.44408 0.27192 0.0
C1658 C 0.04065 0.39834 0.33449 0.0
C1659 C 0.05928 0.40227 0.33133 0.0
C1660 C 0.03565 0.412 0.32865 0.0
C1661 C 0.04912 0.42981 0.31911 0.0
C1662 C 0.06787 0.43379 0.31676 0.0
C1663 C 0.07289 0.42029 0.32298 0.0
C1664 C 0.05287 0.47555 0.29562 0.0
C1665 C 0.03627 0.46886 0.28078 0.0
C1666 C 0.05639 0.46307 0.30986 0.0
C1667 C 0.04357 0.44354 0.30923 0.0
C1668 C 0.02621 0.43715 0.29638 0.0
C1669 C 0.02254 0.44968 0.2826 0.0
H1670 H 0.65852 0.65563 0.33983 0.0
H1671 H 0.61447 0.66913 0.32714 0.0
H1672 H 0.63626 0.62255 0.33035 0.0
H1673 H 0.59247 0.63637 0.3167 0.0
H1674 H 0.55286 0.57547 0.30422 0.0
H1675 H 0.57401 0.60422 0.32874 0.0
H1676 H 0.62191 0.60515 0.29222 0.0
H1677 H 0.60085 0.57637 0.26876 0.0
C1678 C 0.64406 0.65153 0.33519 0.0
C1679 C 0.63835 0.66507 0.33397 0.0
C1680 C 0.63128 0.63255 0.32964 0.0
C1681 C 0.61252 0.6267 0.32249 0.0
C1682 C 0.60666 0.64018 0.32246 0.0
C1683 C 0.61938 0.65909 0.32822 0.0
C1684 C 0.56795 0.58153 0.30232 0.0
C1685 C 0.57529 0.57378 0.2847 0.0
C1686 C 0.58008 0.59812 0.31604 0.0
C1687 C 0.59974 0.60725 0.31224 0.0
C1688 C 0.60697 0.59855 0.29598 0.0
C1689 C 0.59489 0.58204 0.28242 0.0
H1690 H 0.37545 1.00137 0.31995 0.0
H1691 H 0.36716 0.95077 0.35747 0.0
H1692 H 0.40693 1.00872 0.30715 0.0
H1693 H 0.39907 0.9586 0.34622 0.0
H1694 H 0.44236 0.96241 0.2859 0.0
H1695 H 0.41485 0.95753 0.30993 0.0
H1696 H 0.43809 0.01787 0.31539 0.0
H1697 H 0.46513 0.02249 0.28986 0.0
C1698 C 0.38059 0.9921 0.3261 0.0
C1699 C 0.36877 0.97539 0.33942 0.0
C1700 C 0.39875 0.99635 0.31891 0.0
C1701 C 0.40567 0.98417 0.32532 0.0
C1702 C 0.39417 0.96809 0.34022 0.0
C1703 C 0.37589 0.96365 0.3469 0.0
C1704 C 0.44181 0.97461 0.29295 0.0
C1705 C 0.45584 0.99281 0.28608 0.0
C1706 C 0.42599 0.97186 0.30679 0.0
C1707 C 0.42394 0.98729 0.31445 0.0
C1708 C 0.43882 1.00559 0.30928 0.0
C1709 C 0.45448 1.0083 0.29499 0.0
H1710 H 0.6058 0.94125 0.32652 0.0
H1711 H 0.64867 0.99868 0.34291 0.0
H1712 H 0.58394 0.95169 0.31464 0.0
H1713 H 0.62632 1.00925 0.33229 0.0
H1714 H 0.59095 0.02102 0.27191 0.0
H1715 H 0.61215 0.01402 0.29613 0.0
H1716 H 0.56449 0.96338 0.32565 0.0
H1717 H 0.54347 0.96941 0.29937 0.0
C1718 C 0.61044 0.95613 0.32815 0.0
C1719 C 0.62904 0.96914 0.33545 0.0
C1720 C 0.59777 0.96216 0.32157 0.0
C1721 C 0.6032 0.9814 0.3225 0.0
C1722 C 0.62165 0.99437 0.3309 0.0
C1723 C 0.63446 0.98832 0.33713 0.0
C1724 C 0.58495 1.00843 0.2837 0.0
C1725 C 0.56548 0.99548 0.28285 0.0
C1726 C 0.59717 1.00451 0.29796 0.0
C1727 C 0.59017 0.98776 0.31229 0.0
C1728 C 0.57051 0.97604 0.31403 0.0
C1729 C 0.55833 0.97973 0.2993 0.0
H1730 H 0.03031 0.65816 0.33511 0.0
H1731 H 0.08822 0.67459 0.31951 0.0
H1732 H 0.02095 0.62538 0.32552 0.0
H1733 H 0.07894 0.64231 0.30885 0.0
H1734 H 0.06285 0.58385 0.29603 0.0
H1735 H 0.06815 0.61128 0.32131 0.0
H1736 H 1.01706 0.6065 0.28922 0.0
H1737 H 1.01115 0.57836 0.26557 0.0
C1738 C 0.04104 0.65477 0.32973 0.0
C1739 C 0.05999 0.66902 0.32791 0.0
C1740 C 0.03569 0.63597 0.32412 0.0
C1741 C 0.04914 0.63102 0.31631 0.0
C1742 C 0.06815 0.64531 0.3153 0.0
C1743 C 0.07349 0.66399 0.32116 0.0
C1744 C 0.05233 0.58816 0.29526 0.0
C1745 C 0.03676 0.57911 0.27833 0.0
C1746 C 0.05555 0.60415 0.3094 0.0
C1747 C 0.04341 0.61162 0.30668 0.0
C1748 C 0.02683 0.60136 0.29186 0.0
C1749 C 0.02347 0.58523 0.27806 0.0
H1750 H 0.36673 0.43013 0.33919 0.0
H1751 H 0.38183 0.38742 0.32444 0.0
H1752 H 0.39845 0.45453 0.32771 0.0
H1753 H 0.41352 0.41185 0.31252 0.0
H1754 H 0.47241 0.45957 0.3023 0.0
H1755 H 0.44362 0.43905 0.32637 0.0
H1756 H 0.41512 0.46428 0.28676 0.0
H1757 H 0.44387 0.48482 0.26317 0.0
C1758 C 0.37687 0.42593 0.33374 0.0
C1759 C 0.37166 0.40678 0.33249 0.0
C1760 C 0.39506 0.43995 0.32708 0.0
C1761 C 0.40854 0.43519 0.319 0.0
C1762 C 0.40359 0.41607 0.31892 0.0
C1763 C 0.38536 0.40202 0.32559 0.0
C1764 C 0.46017 0.46118 0.29954 0.0
C1765 C 0.46036 0.4738 0.28093 0.0
C1766 C 0.44361 0.44924 0.31301 0.0
C1767 C 0.42696 0.44982 0.30827 0.0
C1768 C 0.42766 0.4635 0.29109 0.0
C1769 C 0.44414 0.4753 0.27754 0.0
H1770 H 0.34334 0.31141 0.35426 0.0
H1771 H 0.28636 0.26887 0.33471 0.0
H1772 H 0.35021 0.28683 0.36741 0.0
H1773 H 0.29332 0.24434 0.3473 0.0
H1774 H 0.3051 0.21296 0.414 0.0
H1775 H 0.29825 0.23405 0.38901 0.0
H1776 H 0.35384 0.2598 0.35551 0.0
H1777 H 0.36071 0.23867 0.38106 0.0
C1778 C 0.33239 0.29681 0.35226 0.0
C1779 C 0.31424 0.29214 0.34375 0.0
C1780 C 0.33636 0.28269 0.35965 0.0
C1781 C 0.32226 0.26356 0.35865 0.0
C1782 C 0.30442 0.25891 0.34876 0.0
C1783 C 0.30045 0.273 0.34144 0.0
C1784 C 0.31563 0.22276 0.40069 0.0
C1785 C 0.33341 0.22417 0.39942 0.0
C1786 C 0.31173 0.23486 0.38631 0.0
C1787 C 0.32556 0.24879 0.37038 0.0
C1788 C 0.34296 0.2494 0.36784 0.0
C1789 C 0.34682 0.23714 0.38216 0.0
H1790 H 0.7608 0.01859 0.36017 0.0
H1791 H 0.71928 0.03411 0.33925 0.0
H1792 H 0.78318 0.05108 0.37054 0.0
H1793 H 0.74216 0.06713 0.34828 0.0
H1794 H 0.77727 0.11588 0.40662 0.0
H1795 H 0.75602 0.08702 0.38362 0.0
H1796 H 0.80349 0.08174 0.35849 0.0
H1797 H 0.82453 0.10968 0.38356 0.0
C1798 C 0.75658 0.02906 0.35721 0.0
C1799 C 0.73818 0.02372 0.34912 0.0
C1800 C 0.76956 0.04785 0.36292 0.0
C1801 C 0.76464 0.06197 0.36031 0.0
C1802 C 0.74643 0.0567 0.35102 0.0
C1803 C 0.73331 0.03777 0.34569 0.0
C1804 C 0.78321 0.10865 0.39599 0.0
C1805 C 0.80259 0.11485 0.39769 0.0
C1806 C 0.77098 0.09212 0.38245 0.0
C1807 C 0.77787 0.08157 0.36972 0.0
C1808 C 0.79752 0.08904 0.36886 0.0
C1809 C 0.80971 0.10537 0.38286 0.0
H1810 H 1.00705 0.74869 0.35274 0.0
H1811 H 0.99762 0.69236 0.34126 0.0
H1812 H 0.97434 0.73585 0.36513 0.0
H1813 H 0.96461 0.67945 0.35289 0.0
H1814 H 0.92105 0.66736 0.4184 0.0
H1815 H 0.94936 0.6768 0.39323 0.0
H1816 H 0.94124 0.71906 0.35456 0.0
H1817 H 0.91288 0.70969 0.38062 0.0
C1818 C 0.99789 0.73354 0.35235 0.0
C1819 C 1.00504 0.72154 0.3464 0.0
C1820 C 0.97903 0.72616 0.35924 0.0
C1821 C 0.96679 0.70658 0.36023 0.0
C1822 C 0.9737 0.6946 0.35278 0.0
C1823 C 0.99262 0.70199 0.34603 0.0
C1824 C 0.9251 0.67837 0.40405 0.0
C1825 C 0.91493 0.68791 0.40153 0.0
C1826 C 0.94128 0.68374 0.38947 0.0
C1827 C 0.94774 0.69883 0.37195 0.0
C1828 C 0.93681 0.70756 0.36816 0.0
C1829 C 0.92049 0.70211 0.38282 0.0
H1830 H 0.3876 0.02144 0.67607 0.0
H1831 H 0.43212 0.07939 0.68226 0.0
H1832 H 0.40961 1.01106 0.68919 0.0
H1833 H 0.45391 0.06912 0.69635 0.0
H1834 H 0.49281 0.04734 0.71537 0.0
H1835 H 0.47203 0.05414 0.68854 0.0
H1836 H 0.42374 1.01069 0.72894 0.0
H1837 H 0.44438 1.00373 0.7547 0.0
C1838 C 0.40211 0.03196 0.68006 0.0
C1839 C 0.40803 0.05124 0.6784 0.0
C1840 C 0.41475 0.02603 0.6877 0.0
C1841 C 0.43356 0.03923 0.69419 0.0
C1842 C 0.43965 0.0585 0.69126 0.0
C1843 C 0.42706 0.06441 0.68337 0.0
C1844 C 0.47771 0.03893 0.71778 0.0
C1845 C 0.47016 0.02508 0.73708 0.0
C1846 C 0.46579 0.04293 0.70269 0.0
C1847 C 0.44614 0.03312 0.70669 0.0
C1848 C 0.43868 0.01843 0.72494 0.0
C1849 C 0.45053 0.01448 0.73987 0.0
H1850 H 1.00977 0.36722 0.6758 0.0
H1851 H 0.95296 0.35589 0.68815 0.0
H1852 H 0.02173 0.40046 0.68573 0.0
H1853 H 0.96487 0.38884 0.69895 0.0
H1854 H 0.98868 0.45036 0.71109 0.0
H1855 H 0.97987 0.42127 0.68666 0.0
H1856 H 0.02515 0.41756 0.72451 0.0
H1857 H 0.03405 0.44664 0.74795 0.0
C1858 C 0.99983 0.37184 0.68048 0.0
C1859 C 0.98043 0.35886 0.68148 0.0
C1860 C 1.00667 0.3909 0.68625 0.0
C1861 C 0.99431 0.39739 0.69339 0.0
C1862 C 0.97484 0.3845 0.69322 0.0
C1863 C 0.968 0.3655 0.68726 0.0
C1864 C 0.99705 0.44357 0.71337 0.0
C1865 C 1.01197 0.45061 0.73137 0.0
C1866 C 0.99191 0.42682 0.69969 0.0
C1867 C 1.00164 0.41687 0.70382 0.0
C1868 C 1.01742 0.42481 0.72051 0.0
C1869 C 0.0225 0.44146 0.73408 0.0
H1870 H 0.67571 0.60037 0.68989 0.0
H1871 H 0.65983 0.64189 0.6709 0.0
H1872 H 0.64361 0.57827 0.70166 0.0
H1873 H 0.62711 0.61926 0.68129 0.0
H1874 H 0.58038 0.58524 0.74161 0.0
H1875 H 0.60836 0.60597 0.71722 0.0
H1876 H 0.61258 0.5579 0.69144 0.0
H1877 H 0.58564 0.53743 0.71793 0.0
C1878 C 0.66522 0.60464 0.68763 0.0
C1879 C 0.67038 0.62297 0.6797 0.0
C1880 C 0.64663 0.59182 0.69415 0.0
C1881 C 0.63251 0.59681 0.69251 0.0
C1882 C 0.63756 0.61493 0.68332 0.0
C1883 C 0.65632 0.62792 0.67721 0.0
C1884 C 0.58719 0.57906 0.73057 0.0
C1885 C 0.58104 0.5597 0.73251 0.0
C1886 C 0.60321 0.59098 0.71622 0.0
C1887 C 0.61326 0.5838 0.70286 0.0
C1888 C 0.60571 0.56412 0.70226 0.0
C1889 C 0.58994 0.55224 0.71711 0.0
H1890 H 0.70062 0.71554 0.67544 0.0
H1891 H 0.75812 0.75611 0.65652 0.0
H1892 H 0.69118 0.73881 0.6655 0.0
H1893 H 0.74872 0.77891 0.64524 0.0
H1894 H 0.73238 0.82103 0.63103 0.0
H1895 H 0.73867 0.79976 0.65642 0.0
H1896 H 0.68598 0.75267 0.62966 0.0
H1897 H 0.67904 0.77414 0.60621 0.0
C1898 C 0.71124 0.72945 0.66922 0.0
C1899 C 0.73009 0.73393 0.66663 0.0
C1900 C 0.70584 0.7428 0.66337 0.0
C1901 C 0.71911 0.76086 0.65437 0.0
C1902 C 0.73807 0.7654 0.65259 0.0
C1903 C 0.74348 0.75219 0.65883 0.0
C1904 C 0.72177 0.80625 0.63142 0.0
C1905 C 0.70538 0.79928 0.61606 0.0
C1906 C 0.72555 0.79393 0.64562 0.0
C1907 C 0.71319 0.77431 0.64447 0.0
C1908 C 0.69596 0.7676 0.63111 0.0
C1909 C 0.69203 0.77995 0.61734 0.0
H1910 H 0.27545 1.00017 0.65752 0.0
H1911 H 0.31854 0.986 0.67433 0.0
H1912 H 0.25342 0.96745 0.64685 0.0
H1913 H 0.29621 0.95295 0.66495 0.0
H1914 H 0.26274 0.90614 0.60419 0.0
H1915 H 0.28306 0.93513 0.62749 0.0
H1916 H 0.23408 0.93552 0.6578 0.0
H1917 H 0.21368 0.90657 0.63313 0.0
C1918 C 0.28011 0.98997 0.65949 0.0
C1919 C 0.29884 0.99574 0.66639 0.0
C1920 C 0.26737 0.97109 0.65359 0.0
C1921 C 0.27296 0.95741 0.65477 0.0
C1922 C 0.29145 0.96308 0.6632 0.0
C1923 C 0.30428 0.98204 0.66871 0.0
C1924 C 0.25634 0.91219 0.61638 0.0
C1925 C 0.23669 0.90423 0.61678 0.0
C1926 C 0.268 0.92883 0.62992 0.0
C1927 C 0.26032 0.93795 0.64443 0.0
C1928 C 0.24053 0.92913 0.64642 0.0
C1929 C 0.2288 0.91242 0.63264 0.0
H1930 H 0.02799 0.2754 0.65193 0.0
H1931 H 0.04556 0.33262 0.67475 0.0
H1932 H 0.05992 0.28473 0.63977 0.0
H1933 H 0.07806 0.34197 0.66391 0.0
H1934 H 0.12496 0.35497 0.60372 0.0
H1935 H 0.09678 0.34775 0.62771 0.0
H1936 H 0.09078 0.2942 0.65015 0.0
H1937 H 0.11803 0.30076 0.62413 0.0
C1938 C 0.0388 0.28996 0.65491 0.0
C1939 C 0.03417 0.3033 0.66408 0.0
C1940 C 0.05729 0.29533 0.64816 0.0
C1941 C 0.07181 0.31418 0.65078 0.0
C1942 C 0.06728 0.32739 0.66112 0.0
C1943 C 0.04865 0.32204 0.66749 0.0
C1944 C 0.11771 0.34169 0.61394 0.0
C1945 C 0.12352 0.32824 0.61127 0.0
C1946 C 0.10158 0.33761 0.62805 0.0
C1947 C 0.09102 0.32011 0.64041 0.0
C1948 C 0.09808 0.30755 0.64015 0.0
C1949 C 0.11402 0.31148 0.62558 0.0
H1950 H 0.31974 0.33367 0.64489 0.0
H1951 H 0.27672 0.28837 0.68982 0.0
H1952 H 0.29711 0.34294 0.63108 0.0
H1953 H 0.25426 0.29828 0.67755 0.0
H1954 H 0.21448 0.30123 0.61657 0.0
H1955 H 0.23656 0.29593 0.64149 0.0
H1956 H 0.27753 0.35538 0.63761 0.0
H1957 H 0.25549 0.36033 0.61126 0.0
C1958 C 0.30555 0.32603 0.65241 0.0
C1959 C 0.29992 0.31015 0.66812 0.0
C1960 C 0.29252 0.33141 0.64464 0.0
C1961 C 0.27362 0.32125 0.65286 0.0
C1962 C 0.26846 0.30615 0.67013 0.0
C1963 C 0.28137 0.30053 0.67737 0.0
C1964 C 0.22799 0.31325 0.62175 0.0
C1965 C 0.23327 0.33118 0.61198 0.0
C1966 C 0.24076 0.31025 0.63612 0.0
C1967 C 0.25909 0.32517 0.64143 0.0
C1968 C 0.26378 0.34342 0.63338 0.0
C1969 C 0.25108 0.34635 0.61857 0.0
H1970 H 0.74917 1.00048 0.68585 0.0
H1971 H 0.69804 0.99128 0.64829 0.0
H1972 H 0.74109 0.96824 0.67578 0.0
H1973 H 0.69042 0.95941 0.63664 0.0
H1974 H 0.67589 0.90044 0.62247 0.0
H1975 H 0.68119 0.92849 0.64642 0.0
H1976 H 0.74134 0.95105 0.64052 0.0
H1977 H 0.7358 0.92258 0.6181 0.0
C1978 C 0.73614 0.9915 0.67546 0.0
C1979 C 0.7243 0.99844 0.66769 0.0
C1980 C 0.73155 0.97301 0.66947 0.0
C1981 C 0.7152 0.96109 0.65498 0.0
C1982 C 0.70299 0.96791 0.64813 0.0
C1983 C 0.7074 0.98629 0.65464 0.0
C1984 C 0.6902 0.91117 0.62721 0.0
C1985 C 0.70544 0.90932 0.61863 0.0
C1986 C 0.69329 0.92742 0.64057 0.0
C1987 C 0.71173 0.94238 0.6451 0.0
C1988 C 0.72692 0.93988 0.63784 0.0
C1989 C 0.7238 0.92349 0.62494 0.0
H1990 H 0.03192 0.75488 0.66513 0.0
H1991 H 0.04533 0.71067 0.67643 0.0
H1992 H 0.06428 0.7764 0.65265 0.0
H1993 H 0.07802 0.73245 0.66512 0.0
H1994 H 0.1224 0.76554 0.60234 0.0
H1995 H 0.09407 0.74559 0.62661 0.0
H1996 H 0.09691 0.79498 0.66183 0.0
H1997 H 0.12519 0.81506 0.6363 0.0
C1998 C 0.0419 0.74986 0.66551 0.0
C1999 C 0.03596 0.73096 0.67142 0.0
C2000 C 0.06057 0.76229 0.65855 0.0
C2001 C 0.07389 0.75623 0.65757 0.0
C2002 C 0.06814 0.73758 0.66503 0.0
C2003 C 0.04938 0.72507 0.67166 0.0
C2004 C 0.11718 0.77212 0.61572 0.0
C2005 C 0.12587 0.79183 0.61731 0.0
C2006 C 0.10094 0.76065 0.62983 0.0
C2007 C 0.09294 0.76857 0.64613 0.0
C2008 C 0.10244 0.78836 0.64912 0.0
C2009 C 0.11877 0.7999 0.63481 0.0
H2010 H 0.94951 0.59606 0.67459 0.0
H2011 H 1.00736 0.63901 0.68822 0.0
H2012 H 0.9574 0.57176 0.68473 0.0
H2013 H 1.01519 0.61468 0.69884 0.0
H2014 H 0.02747 0.56769 0.70785 0.0
H2015 H 1.01828 0.58783 0.68419 0.0
H2016 H 0.96522 0.56178 0.72484 0.0
H2017 H 0.97441 0.5417 0.74802 0.0
C2018 C 0.96397 0.60033 0.67952 0.0
C2019 C 0.97777 0.61952 0.68085 0.0
C2020 C 0.96847 0.58637 0.6854 0.0
C2021 C 0.9869 0.59122 0.69278 0.0
C2022 C 1.0009 0.61039 0.69294 0.0
C2023 C 0.99638 0.62437 0.68704 0.0
C2024 C 1.01354 0.56578 0.7108 0.0
C2025 C 1.00157 0.55307 0.72957 0.0
C2026 C 1.00838 0.5775 0.69761 0.0
C2027 C 0.99111 0.57663 0.70285 0.0
C2028 C 0.97855 0.56278 0.72009 0.0
C2029 C 0.98376 0.5512 0.73336 0.0
H2030 H 0.38865 0.37222 0.67183 0.0
H2031 H 0.42961 0.35543 0.6902 0.0
H2032 H 0.4118 0.40485 0.68247 0.0
H2033 H 0.45226 0.3875 0.70227 0.0
H2034 H 0.49393 0.44565 0.71905 0.0
H2035 H 0.47293 0.41845 0.69268 0.0
H2036 H 0.42555 0.42363 0.71855 0.0
H2037 H 0.44678 0.4518 0.74282 0.0
C2038 C 0.40262 0.37552 0.67804 0.0
C2039 C 0.40725 0.36122 0.6803 0.0
C2040 C 0.41591 0.39423 0.68432 0.0
C2041 C 0.43402 0.39902 0.69349 0.0
C2042 C 0.43871 0.38468 0.69483 0.0
C2043 C 0.42559 0.36611 0.68812 0.0
C2044 C 0.47915 0.44148 0.71828 0.0
C2045 C 0.47204 0.45074 0.73362 0.0
C2046 C 0.46697 0.42556 0.70351 0.0
C2047 C 0.44734 0.41826 0.70409 0.0
C2048 C 0.44049 0.4286 0.71752 0.0
C2049 C 0.45271 0.44473 0.73181 0.0
H2050 H 0.67525 0.08335 0.6913 0.0
H2051 H 0.66114 0.02589 0.67606 0.0
H2052 H 0.64286 0.07266 0.70336 0.0
H2053 H 0.6284 0.01516 0.68705 0.0
H2054 H 0.58369 1.00342 0.75021 0.0
H2055 H 0.61194 1.01153 0.72568 0.0
H2056 H 0.61048 0.05943 0.69313 0.0
H2057 H 0.5823 0.05143 0.71884 0.0
C2058 C 0.66513 0.06843 0.68999 0.0
C2059 C 0.67086 0.05545 0.68306 0.0
C2060 C 0.64643 0.06229 0.6967 0.0
C2061 C 0.63288 0.04298 0.69641 0.0
C2062 C 0.63846 0.0301 0.68805 0.0
C2063 C 0.65724 0.03624 0.68163 0.0
C2064 C 0.58913 0.01537 0.7372 0.0
C2065 C 0.58089 0.02682 0.73637 0.0
C2066 C 0.60534 0.02003 0.72301 0.0
C2067 C 0.61375 0.03629 0.70752 0.0
C2068 C 0.60463 0.047 0.70522 0.0
C2069 C 0.58835 0.04232 0.7196 0.0
loop_
_geom_bond_atom_site_label_1
_geom_bond_atom_site_label_2
_geom_bond_distance
_geom_bond_site_symmetry_2
_ccdc_geom_bond_type
O0 Cd1 2.223 . S
O0 C8 1.315 . S
Cd1 O0 2.223 . S
Cd1 O4 2.297 . S
Cd1 O5 2.439 . S
Cd1 O11 2.240 1_554 S
Cd2 O3 2.240 . S
Cd2 O10 2.223 1_554 S
Cd2 O12 2.297 1_554 S
Cd2 O13 2.439 1_554 S
O3 Cd2 2.240 . S
O3 C8 1.279 1_655 S
O4 Cd1 2.297 . S
O4 C6 1.247 . S
O5 Cd1 2.439 . S
O5 C6 1.208 . S
C6 O4 1.247 . S
C6 O5 1.208 . S
C7 O12 1.247 . S
C7 O13 1.208 . S
C8 O0 1.315 . S
C8 O3 1.279 1_455 S
C9 O10 1.315 . S
C9 O11 1.279 1_655 S
O10 Cd2 2.223 1_556 S
O10 C9 1.315 . S
O11 Cd1 2.240 1_556 S
O11 C9 1.279 1_455 S
O12 Cd2 2.297 1_556 S
O12 C7 1.247 . S
O13 Cd2 2.439 1_556 S
O13 C7 1.208 . S
O14 Cd15 2.223 . S
O14 C22 1.315 . S
Cd15 O14 2.223 . S
Cd15 O18 2.297 . S
Cd15 O19 2.439 . S
Cd15 O25 2.240 1_554 S
Cd16 O17 2.240 . S
Cd16 O24 2.223 1_554 S
Cd16 O26 2.297 1_554 S
Cd16 O27 2.439 1_554 S
O17 Cd16 2.240 . S
O17 C22 1.279 . S
O18 Cd15 2.297 . S
O18 C20 1.247 . S
O19 Cd15 2.439 . S
O19 C20 1.208 . S
C20 O18 1.247 . S
C20 O19 1.208 . S
C21 O26 1.247 . S
C21 O27 1.208 . S
C22 O14 1.315 . S
C22 O17 1.279 . S
C23 O24 1.315 . S
C23 O25 1.279 . S
O24 Cd16 2.223 1_556 S
O24 C23 1.315 . S
O25 Cd15 2.240 1_556 S
O25 C23 1.279 . S
O26 Cd16 2.297 1_556 S
O26 C21 1.247 . S
O27 Cd16 2.439 1_556 S
O27 C21 1.208 . S
O28 Cd29 2.223 1_556 S
O28 C36 1.315 . S
Cd29 O28 2.223 1_554 S
Cd29 O32 2.297 1_554 S
Cd29 O33 2.439 1_554 S
Cd29 O39 2.240 . S
Cd30 O31 2.240 1_554 S
Cd30 O38 2.223 . S
Cd30 O40 2.297 . S
Cd30 O41 2.439 . S
O31 Cd30 2.240 1_556 S
O31 C36 1.279 1_565 S
O32 Cd29 2.297 1_556 S
O32 C34 1.247 . S
O33 Cd29 2.439 1_556 S
O33 C34 1.208 . S
C34 O32 1.247 . S
C34 O33 1.208 . S
C35 O40 1.247 . S
C35 O41 1.208 . S
C36 O28 1.315 . S
C36 O31 1.279 1_545 S
C37 O38 1.315 . S
C37 O39 1.279 1_565 S
O38 Cd30 2.223 . S
O38 C37 1.315 . S
O39 Cd29 2.240 . S
O39 C37 1.279 1_545 S
O40 Cd30 2.297 . S
O40 C35 1.247 . S
O41 Cd30 2.439 . S
O41 C35 1.208 . S
O42 Cd43 2.223 1_556 S
O42 C50 1.315 . S
Cd43 O42 2.223 1_554 S
Cd43 O46 2.297 1_554 S
Cd43 O47 2.439 1_554 S
Cd43 O53 2.240 . S
Cd44 O45 2.240 1_554 S
Cd44 O52 2.223 . S
Cd44 O54 2.297 . S
Cd44 O55 2.439 . S
O45 Cd44 2.240 1_556 S
O45 C50 1.279 1_455 S
O46 Cd43 2.297 1_556 S
O46 C48 1.247 . S
O47 Cd43 2.439 1_556 S
O47 C48 1.208 . S
C48 O46 1.247 . S
C48 O47 1.208 . S
C49 O54 1.247 . S
C49 O55 1.208 . S
C50 O42 1.315 . S
C50 O45 1.279 1_655 S
C51 O52 1.315 . S
C51 O53 1.279 1_455 S
O52 Cd44 2.223 . S
O52 C51 1.315 . S
O53 Cd43 2.240 . S
O53 C51 1.279 1_655 S
O54 Cd44 2.297 . S
O54 C49 1.247 . S
O55 Cd44 2.439 . S
O55 C49 1.208 . S
O56 Cd57 2.223 1_556 S
O56 C64 1.315 . S
Cd57 O56 2.223 1_554 S
Cd57 O60 2.297 1_554 S
Cd57 O61 2.439 1_554 S
Cd57 O67 2.240 . S
Cd58 O59 2.240 1_554 S
Cd58 O66 2.223 . S
Cd58 O68 2.297 . S
Cd58 O69 2.439 . S
O59 Cd58 2.240 1_556 S
O59 C64 1.279 . S
O60 Cd57 2.297 1_556 S
O60 C62 1.247 . S
O61 Cd57 2.439 1_556 S
O61 C62 1.208 . S
C62 O60 1.247 . S
C62 O61 1.208 . S
C63 O68 1.247 . S
C63 O69 1.208 . S
C64 O56 1.315 . S
C64 O59 1.279 . S
C65 O66 1.315 . S
C65 O67 1.279 . S
O66 Cd58 2.223 . S
O66 C65 1.315 . S
O67 Cd57 2.240 . S
O67 C65 1.279 . S
O68 Cd58 2.297 . S
O68 C63 1.247 . S
O69 Cd58 2.439 . S
O69 C63 1.208 . S
O70 Cd71 2.223 . S
O70 C78 1.315 . S
Cd71 O70 2.223 . S
Cd71 O74 2.297 . S
Cd71 O75 2.439 . S
Cd71 O81 2.240 1_554 S
Cd72 O73 2.240 . S
Cd72 O80 2.223 1_554 S
Cd72 O82 2.297 1_554 S
Cd72 O83 2.439 1_554 S
O73 Cd72 2.240 . S
O73 C78 1.279 1_545 S
O74 Cd71 2.297 . S
O74 C76 1.247 . S
O75 Cd71 2.439 . S
O75 C76 1.208 . S
C76 O74 1.247 . S
C76 O75 1.208 . S
C77 O82 1.247 . S
C77 O83 1.208 . S
C78 O70 1.315 . S
C78 O73 1.279 1_565 S
C79 O80 1.315 . S
C79 O81 1.279 1_545 S
O80 Cd72 2.223 1_556 S
O80 C79 1.315 . S
O81 Cd71 2.240 1_556 S
O81 C79 1.279 1_565 S
O82 Cd72 2.297 1_556 S
O82 C77 1.247 . S
O83 Cd72 2.439 1_556 S
O83 C77 1.208 . S
O84 Cd85 2.223 . S
O84 C92 1.315 . S
Cd85 O84 2.223 . S
Cd85 O88 2.297 . S
Cd85 O89 2.439 . S
Cd85 O95 2.240 . S
Cd86 O87 2.240 . S
Cd86 O94 2.223 . S
Cd86 O96 2.297 . S
Cd86 O97 2.439 . S
O87 Cd86 2.240 . S
O87 C92 1.279 . S
O88 Cd85 2.297 . S
O88 C90 1.247 . S
O89 Cd85 2.439 . S
O89 C90 1.208 . S
C90 O88 1.247 . S
C90 O89 1.208 . S
C91 O96 1.247 . S
C91 O97 1.208 . S
C92 O84 1.315 . S
C92 O87 1.279 . S
C93 O94 1.315 . S
C93 O95 1.279 . S
O94 Cd86 2.223 . S
O94 C93 1.315 . S
O95 Cd85 2.240 . S
O95 C93 1.279 . S
O96 Cd86 2.297 . S
O96 C91 1.247 . S
O97 Cd86 2.439 . S
O97 C91 1.208 . S
O98 Cd99 2.223 . S
O98 C106 1.315 . S
Cd99 O98 2.223 . S
Cd99 O102 2.297 1_565 S
Cd99 O103 2.439 1_565 S
Cd99 O109 2.240 . S
Cd100 O101 2.240 . S
Cd100 O108 2.223 . S
Cd100 O110 2.297 . S
Cd100 O111 2.439 . S
O101 Cd100 2.240 . S
O101 C106 1.279 . S
O102 Cd99 2.297 1_545 S
O102 C104 1.247 . S
O103 Cd99 2.439 1_545 S
O103 C104 1.208 . S
C104 O102 1.247 . S
C104 O103 1.208 . S
C105 O110 1.247 . S
C105 O111 1.208 . S
C106 O98 1.315 . S
C106 O101 1.279 . S
C107 O108 1.315 . S
C107 O109 1.279 . S
O108 Cd100 2.223 . S
O108 C107 1.315 . S
O109 Cd99 2.240 . S
O109 C107 1.279 . S
O110 Cd100 2.297 . S
O110 C105 1.247 . S
O111 Cd100 2.439 . S
O111 C105 1.208 . S
O112 Cd113 2.223 . S
O112 C120 1.315 . S
Cd113 O112 2.223 . S
Cd113 O116 2.297 . S
Cd113 O117 2.439 . S
Cd113 O123 2.240 . S
Cd114 O115 2.240 . S
Cd114 O122 2.223 . S
Cd114 O124 2.297 1_455 S
Cd114 O125 2.439 1_455 S
O115 Cd114 2.240 . S
O115 C120 1.279 . S
O116 Cd113 2.297 . S
O116 C118 1.247 . S
O117 Cd113 2.439 . S
O117 C118 1.208 . S
C118 O116 1.247 . S
C118 O117 1.208 . S
C119 O124 1.247 . S
C119 O125 1.208 . S
C120 O112 1.315 . S
C120 O115 1.279 . S
C121 O122 1.315 . S
C121 O123 1.279 . S
O122 Cd114 2.223 . S
O122 C121 1.315 . S
O123 Cd113 2.240 . S
O123 C121 1.279 . S
O124 Cd114 2.297 1_655 S
O124 C119 1.247 . S
O125 Cd114 2.439 1_655 S
O125 C119 1.208 . S
O126 Cd127 2.223 . S
O126 C134 1.315 . S
Cd127 O126 2.223 . S
Cd127 O130 2.297 . S
Cd127 O131 2.439 . S
Cd127 O137 2.240 . S
Cd128 O129 2.240 . S
Cd128 O136 2.223 . S
Cd128 O138 2.297 1_565 S
Cd128 O139 2.439 1_565 S
O129 Cd128 2.240 . S
O129 C134 1.279 . S
O130 Cd127 2.297 . S
O130 C132 1.247 . S
O131 Cd127 2.439 . S
O131 C132 1.208 . S
C132 O130 1.247 . S
C132 O131 1.208 . S
C133 O138 1.247 . S
C133 O139 1.208 . S
C134 O126 1.315 . S
C134 O129 1.279 . S
C135 O136 1.315 . S
C135 O137 1.279 . S
O136 Cd128 2.223 . S
O136 C135 1.315 . S
O137 Cd127 2.240 . S
O137 C135 1.279 . S
O138 Cd128 2.297 1_545 S
O138 C133 1.247 . S
O139 Cd128 2.439 1_545 S
O139 C133 1.208 . S
O140 Cd141 2.223 . S
O140 C148 1.315 . S
Cd141 O140 2.223 . S
Cd141 O144 2.297 . S
Cd141 O145 2.439 . S
Cd141 O151 2.240 . S
Cd142 O143 2.240 . S
Cd142 O150 2.223 . S
Cd142 O152 2.297 1_455 S
Cd142 O153 2.439 1_455 S
O143 Cd142 2.240 . S
O143 C148 1.279 . S
O144 Cd141 2.297 . S
O144 C146 1.247 . S
O145 Cd141 2.439 . S
O145 C146 1.208 . S
C146 O144 1.247 . S
C146 O145 1.208 . S
C147 O152 1.247 . S
C147 O153 1.208 . S
C148 O140 1.315 . S
C148 O143 1.279 . S
C149 O150 1.315 . S
C149 O151 1.279 . S
O150 Cd142 2.223 . S
O150 C149 1.315 . S
O151 Cd141 2.240 . S
O151 C149 1.279 . S
O152 Cd142 2.297 1_655 S
O152 C147 1.247 . S
O153 Cd142 2.439 1_655 S
O153 C147 1.208 . S
O154 Cd155 2.223 . S
O154 C162 1.315 . S
Cd155 O154 2.223 . S
Cd155 O158 2.297 . S
Cd155 O159 2.439 . S
Cd155 O165 2.240 . S
Cd156 O157 2.240 . S
Cd156 O164 2.223 . S
Cd156 O166 2.297 . S
Cd156 O167 2.439 . S
O157 Cd156 2.240 . S
O157 C162 1.279 . S
O158 Cd155 2.297 . S
O158 C160 1.247 . S
O159 Cd155 2.439 . S
O159 C160 1.208 . S
C160 O158 1.247 . S
C160 O159 1.208 . S
C161 O166 1.247 . S
C161 O167 1.208 . S
C162 O154 1.315 . S
C162 O157 1.279 . S
C163 O164 1.315 . S
C163 O165 1.279 . S
O164 Cd156 2.223 . S
O164 C163 1.315 . S
O165 Cd155 2.240 . S
O165 C163 1.279 . S
O166 Cd156 2.297 . S
O166 C161 1.247 . S
O167 Cd156 2.439 . S
O167 C161 1.208 . S
O168 Cd169 2.223 . S
O168 C176 1.315 . S
Cd169 O168 2.223 . S
Cd169 O172 2.297 . S
Cd169 O173 2.439 . S
Cd169 O179 2.240 . S
Cd170 O171 2.240 . S
Cd170 O178 2.223 . S
Cd170 O180 2.297 1_545 S
Cd170 O181 2.439 1_545 S
O171 Cd170 2.240 . S
O171 C176 1.279 . S
O172 Cd169 2.297 . S
O172 C174 1.247 . S
O173 Cd169 2.439 . S
O173 C174 1.208 . S
C174 O172 1.247 . S
C174 O173 1.208 . S
C175 O180 1.247 . S
C175 O181 1.208 . S
C176 O168 1.315 . S
C176 O171 1.279 . S
C177 O178 1.315 . S
C177 O179 1.279 . S
O178 Cd170 2.223 . S
O178 C177 1.315 . S
O179 Cd169 2.240 . S
O179 C177 1.279 . S
O180 Cd170 2.297 1_565 S
O180 C175 1.247 . S
O181 Cd170 2.439 1_565 S
O181 C175 1.208 . S
O182 Cd183 2.223 . S
O182 C190 1.315 . S
Cd183 O182 2.223 . S
Cd183 O186 2.297 . S
Cd183 O187 2.439 . S
Cd183 O193 2.240 . S
Cd184 O185 2.240 . S
Cd184 O192 2.223 . S
Cd184 O194 2.297 1_655 S
Cd184 O195 2.439 1_655 S
O185 Cd184 2.240 . S
O185 C190 1.279 . S
O186 Cd183 2.297 . S
O186 C188 1.247 . S
O187 Cd183 2.439 . S
O187 C188 1.208 . S
C188 O186 1.247 . S
C188 O187 1.208 . S
C189 O194 1.247 . S
C189 O195 1.208 . S
C190 O182 1.315 . S
C190 O185 1.279 . S
C191 O192 1.315 . S
C191 O193 1.279 . S
O192 Cd184 2.223 . S
O192 C191 1.315 . S
O193 Cd183 2.240 . S
O193 C191 1.279 . S
O194 Cd184 2.297 1_455 S
O194 C189 1.247 . S
O195 Cd184 2.439 1_455 S
O195 C189 1.208 . S
O196 Cd197 2.223 . S
O196 C204 1.315 . S
Cd197 O196 2.223 . S
Cd197 O200 2.297 . S
Cd197 O201 2.439 . S
Cd197 O207 2.240 . S
Cd198 O199 2.240 . S
Cd198 O206 2.223 . S
Cd198 O208 2.297 . S
Cd198 O209 2.439 . S
O199 Cd198 2.240 . S
O199 C204 1.279 . S
O200 Cd197 2.297 . S
O200 C202 1.247 . S
O201 Cd197 2.439 . S
O201 C202 1.208 . S
C202 O200 1.247 . S
C202 O201 1.208 . S
C203 O208 1.247 . S
C203 O209 1.208 . S
C204 O196 1.315 . S
C204 O199 1.279 . S
C205 O206 1.315 . S
C205 O207 1.279 . S
O206 Cd198 2.223 . S
O206 C205 1.315 . S
O207 Cd197 2.240 . S
O207 C205 1.279 . S
O208 Cd198 2.297 . S
O208 C203 1.247 . S
O209 Cd198 2.439 . S
O209 C203 1.208 . S
O210 Cd211 2.223 . S
O210 C218 1.315 . S
Cd211 O210 2.223 . S
Cd211 O214 2.297 . S
Cd211 O215 2.439 . S
Cd211 O221 2.240 . S
Cd212 O213 2.240 . S
Cd212 O220 2.223 . S
Cd212 O222 2.297 . S
Cd212 O223 2.439 . S
O213 Cd212 2.240 . S
O213 C218 1.279 . S
O214 Cd211 2.297 . S
O214 C216 1.247 . S
O215 Cd211 2.439 . S
O215 C216 1.208 . S
C216 O214 1.247 . S
C216 O215 1.208 . S
C217 O222 1.247 . S
C217 O223 1.208 . S
C218 O210 1.315 . S
C218 O213 1.279 . S
C219 O220 1.315 . S
C219 O221 1.279 . S
O220 Cd212 2.223 . S
O220 C219 1.315 . S
O221 Cd211 2.240 . S
O221 C219 1.279 . S
O222 Cd212 2.297 . S
O222 C217 1.247 . S
O223 Cd212 2.439 . S
O223 C217 1.208 . S
O224 Cd225 2.223 . S
O224 C232 1.315 . S
Cd225 O224 2.223 . S
Cd225 O228 2.297 1_545 S
Cd225 O229 2.439 1_545 S
Cd225 O235 2.240 . S
Cd226 O227 2.240 . S
Cd226 O234 2.223 . S
Cd226 O236 2.297 . S
Cd226 O237 2.439 . S
O227 Cd226 2.240 . S
O227 C232 1.279 . S
O228 Cd225 2.297 1_565 S
O228 C230 1.247 . S
O229 Cd225 2.439 1_565 S
O229 C230 1.208 . S
C230 O228 1.247 . S
C230 O229 1.208 . S
C231 O236 1.247 . S
C231 O237 1.208 . S
C232 O224 1.315 . S
C232 O227 1.279 . S
C233 O234 1.315 . S
C233 O235 1.279 . S
O234 Cd226 2.223 . S
O234 C233 1.315 . S
O235 Cd225 2.240 . S
O235 C233 1.279 . S
O236 Cd226 2.297 . S
O236 C231 1.247 . S
O237 Cd226 2.439 . S
O237 C231 1.208 . S
O238 Cd239 2.223 . S
O238 C246 1.315 . S
Cd239 O238 2.223 . S
Cd239 O242 2.297 . S
Cd239 O243 2.439 . S
Cd239 O249 2.240 . S
Cd240 O241 2.240 . S
Cd240 O248 2.223 . S
Cd240 O250 2.297 1_655 S
Cd240 O251 2.439 1_655 S
O241 Cd240 2.240 . S
O241 C246 1.279 . S
O242 Cd239 2.297 . S
O242 C244 1.247 . S
O243 Cd239 2.439 . S
O243 C244 1.208 . S
C244 O242 1.247 . S
C244 O243 1.208 . S
C245 O250 1.247 . S
C245 O251 1.208 . S
C246 O238 1.315 . S
C246 O241 1.279 . S
C247 O248 1.315 . S
C247 O249 1.279 . S
O248 Cd240 2.223 . S
O248 C247 1.315 . S
O249 Cd239 2.240 . S
O249 C247 1.279 . S
O250 Cd240 2.297 1_455 S
O250 C245 1.247 . S
O251 Cd240 2.439 1_455 S
O251 C245 1.208 . S
H252 C260 0.930 . S
H253 C263 0.930 . S
H254 C265 0.930 . S
H255 C266 0.970 . S
H256 C266 0.970 . S
H257 C268 0.930 . S
H258 C270 0.930 . S
H259 C272 0.930 . S
C260 H252 0.930 . S
C260 C261 1.382 . S
C260 C262 1.426 . S
C261 C260 1.382 . S
C261 C265 1.389 . S
C262 C260 1.426 . S
C262 C263 1.375 . S
C262 C266 1.532 . S
C263 H253 0.930 . S
C263 C262 1.375 . S
C263 C264 1.416 . S
C264 C263 1.416 . S
C264 C265 1.371 . S
C265 H254 0.930 . S
C265 C261 1.389 . S
C265 C264 1.371 . S
C266 H255 0.970 . S
C266 H256 0.970 . S
C266 C262 1.532 . S
C266 C267 1.499 . S
C267 C266 1.499 . S
C267 C268 1.370 . S
C267 C272 1.415 . S
C268 H257 0.930 . S
C268 C267 1.370 . S
C268 C269 1.407 . S
C269 C268 1.407 . S
C269 C270 1.365 . S
C270 H258 0.930 . S
C270 C269 1.365 . S
C270 C271 1.393 . S
C271 C270 1.393 . S
C271 C272 1.387 . S
C272 H259 0.930 . S
C272 C267 1.415 . S
C272 C271 1.387 . S
H273 C281 0.930 . S
H274 C284 0.930 . S
H275 C286 0.930 . S
H276 C287 0.970 . S
H277 C287 0.970 . S
H278 C289 0.930 . S
H279 C291 0.930 . S
H280 C293 0.930 . S
C281 H273 0.930 . S
C281 C282 1.382 . S
C281 C283 1.426 . S
C282 C281 1.382 . S
C282 C286 1.389 . S
C283 C281 1.426 . S
C283 C284 1.375 . S
C283 C287 1.532 . S
C284 H274 0.930 . S
C284 C283 1.375 . S
C284 C285 1.416 . S
C285 C284 1.416 . S
C285 C286 1.371 . S
C286 H275 0.930 . S
C286 C282 1.389 . S
C286 C285 1.371 . S
C287 H276 0.970 . S
C287 H277 0.970 . S
C287 C283 1.532 . S
C287 C288 1.499 . S
C288 C287 1.499 . S
C288 C289 1.370 . S
C288 C293 1.415 . S
C289 H278 0.930 . S
C289 C288 1.370 . S
C289 C290 1.407 . S
C290 C289 1.407 . S
C290 C291 1.365 . S
C291 H279 0.930 . S
C291 C290 1.365 . S
C291 C292 1.393 . S
C292 C291 1.393 . S
C292 C293 1.387 . S
C293 H280 0.930 . S
C293 C288 1.415 . S
C293 C292 1.387 . S
H294 C302 0.930 . S
H295 C305 0.930 . S
H296 C307 0.930 . S
H297 C308 0.970 . S
H298 C308 0.970 . S
H299 C310 0.930 . S
H300 C312 0.930 . S
H301 C314 0.930 . S
C302 H294 0.930 . S
C302 C303 1.382 . S
C302 C304 1.426 . S
C303 C302 1.382 . S
C303 C307 1.389 . S
C304 C302 1.426 . S
C304 C305 1.375 . S
C304 C308 1.532 . S
C305 H295 0.930 . S
C305 C304 1.375 . S
C305 C306 1.416 . S
C306 C305 1.416 . S
C306 C307 1.371 . S
C307 H296 0.930 . S
C307 C303 1.389 . S
C307 C306 1.371 . S
C308 H297 0.970 . S
C308 H298 0.970 . S
C308 C304 1.532 . S
C308 C309 1.499 . S
C309 C308 1.499 . S
C309 C310 1.370 . S
C309 C314 1.415 . S
C310 H299 0.930 . S
C310 C309 1.370 . S
C310 C311 1.407 . S
C311 C310 1.407 . S
C311 C312 1.365 . S
C312 H300 0.930 . S
C312 C311 1.365 . S
C312 C313 1.393 . S
C313 C312 1.393 . S
C313 C314 1.387 . S
C314 H301 0.930 . S
C314 C309 1.415 . S
C314 C313 1.387 . S
H315 C323 0.930 . S
H316 C326 0.930 . S
H317 C328 0.930 . S
H318 C329 0.970 . S
H319 C329 0.970 . S
H320 C331 0.930 . S
H321 C333 0.930 . S
H322 C335 0.930 . S
C323 H315 0.930 . S
C323 C324 1.382 . S
C323 C325 1.426 . S
C324 C323 1.382 . S
C324 C328 1.389 . S
C325 C323 1.426 . S
C325 C326 1.375 . S
C325 C329 1.532 . S
C326 H316 0.930 . S
C326 C325 1.375 . S
C326 C327 1.416 . S
C327 C326 1.416 . S
C327 C328 1.371 . S
C328 H317 0.930 . S
C328 C324 1.389 . S
C328 C327 1.371 . S
C329 H318 0.970 . S
C329 H319 0.970 . S
C329 C325 1.532 . S
C329 C330 1.499 . S
C330 C329 1.499 . S
C330 C331 1.370 . S
C330 C335 1.415 . S
C331 H320 0.930 . S
C331 C330 1.370 . S
C331 C332 1.407 . S
C332 C331 1.407 . S
C332 C333 1.365 . S
C333 H321 0.930 . S
C333 C332 1.365 . S
C333 C334 1.393 . S
C334 C333 1.393 . S
C334 C335 1.387 . S
C335 H322 0.930 . S
C335 C330 1.415 . S
C335 C334 1.387 . S
H336 C344 0.930 . S
H337 C347 0.930 . S
H338 C349 0.930 . S
H339 C350 0.970 . S
H340 C350 0.970 . S
H341 C352 0.930 . S
H342 C354 0.930 . S
H343 C356 0.930 . S
C344 H336 0.930 . S
C344 C345 1.382 . S
C344 C346 1.426 . S
C345 C344 1.382 . S
C345 C349 1.389 . S
C346 C344 1.426 . S
C346 C347 1.375 . S
C346 C350 1.532 . S
C347 H337 0.930 . S
C347 C346 1.375 . S
C347 C348 1.416 . S
C348 C347 1.416 . S
C348 C349 1.371 . S
C349 H338 0.930 . S
C349 C345 1.389 . S
C349 C348 1.371 . S
C350 H339 0.970 . S
C350 H340 0.970 . S
C350 C346 1.532 . S
C350 C351 1.499 . S
C351 C350 1.499 . S
C351 C352 1.370 . S
C351 C356 1.415 . S
C352 H341 0.930 . S
C352 C351 1.370 . S
C352 C353 1.407 . S
C353 C352 1.407 . S
C353 C354 1.365 . S
C354 H342 0.930 . S
C354 C353 1.365 . S
C354 C355 1.393 . S
C355 C354 1.393 . S
C355 C356 1.387 . S
C356 H343 0.930 . S
C356 C351 1.415 . S
C356 C355 1.387 . S
H357 C365 0.930 . S
H358 C368 0.930 . S
H359 C370 0.930 . S
H360 C371 0.970 . S
H361 C371 0.970 . S
H362 C373 0.930 . S
H363 C375 0.930 . S
H364 C377 0.930 . S
C365 H357 0.930 . S
C365 C366 1.382 . S
C365 C367 1.426 . S
C366 C365 1.382 . S
C366 C370 1.389 . S
C367 C365 1.426 . S
C367 C368 1.375 . S
C367 C371 1.532 . S
C368 H358 0.930 . S
C368 C367 1.375 . S
C368 C369 1.416 . S
C369 C368 1.416 . S
C369 C370 1.371 . S
C370 H359 0.930 . S
C370 C366 1.389 . S
C370 C369 1.371 . S
C371 H360 0.970 . S
C371 H361 0.970 . S
C371 C367 1.532 . S
C371 C372 1.499 . S
C372 C371 1.499 . S
C372 C373 1.370 . S
C372 C377 1.415 . S
C373 H362 0.930 . S
C373 C372 1.370 . S
C373 C374 1.407 . S
C374 C373 1.407 . S
C374 C375 1.365 . S
C375 H363 0.930 . S
C375 C374 1.365 . S
C375 C376 1.393 . S
C376 C375 1.393 . S
C376 C377 1.387 . S
C377 H364 0.930 . S
C377 C372 1.415 . S
C377 C376 1.387 . S
H378 C386 0.930 . S
H379 C389 0.930 . S
H380 C391 0.930 . S
H381 C392 0.970 . S
H382 C392 0.970 . S
H383 C394 0.930 . S
H384 C396 0.930 . S
H385 C398 0.930 . S
C386 H378 0.930 . S
C386 C387 1.382 . S
C386 C388 1.426 . S
C387 C386 1.382 . S
C387 C391 1.389 . S
C388 C386 1.426 . S
C388 C389 1.375 . S
C388 C392 1.532 . S
C389 H379 0.930 . S
C389 C388 1.375 . S
C389 C390 1.416 . S
C390 C389 1.416 . S
C390 C391 1.371 . S
C391 H380 0.930 . S
C391 C387 1.389 . S
C391 C390 1.371 . S
C392 H381 0.970 . S
C392 H382 0.970 . S
C392 C388 1.532 . S
C392 C393 1.499 . S
C393 C392 1.499 . S
C393 C394 1.370 . S
C393 C398 1.415 . S
C394 H383 0.930 . S
C394 C393 1.370 . S
C394 C395 1.407 . S
C395 C394 1.407 . S
C395 C396 1.365 . S
C396 H384 0.930 . S
C396 C395 1.365 . S
C396 C397 1.393 . S
C397 C396 1.393 . S
C397 C398 1.387 . S
C398 H385 0.930 . S
C398 C393 1.415 . S
C398 C397 1.387 . S
H399 C407 0.930 . S
H400 C410 0.930 . S
H401 C412 0.930 . S
H402 C413 0.970 . S
H403 C413 0.970 . S
H404 C415 0.930 . S
H405 C417 0.930 . S
H406 C419 0.930 . S
C407 H399 0.930 . S
C407 C408 1.382 . S
C407 C409 1.426 . S
C408 C407 1.382 . S
C408 C412 1.389 . S
C409 C407 1.426 . S
C409 C410 1.375 . S
C409 C413 1.532 . S
C410 H400 0.930 . S
C410 C409 1.375 . S
C410 C411 1.416 . S
C411 C410 1.416 . S
C411 C412 1.371 . S
C412 H401 0.930 . S
C412 C408 1.389 . S
C412 C411 1.371 . S
C413 H402 0.970 . S
C413 H403 0.970 . S
C413 C409 1.532 . S
C413 C414 1.499 . S
C414 C413 1.499 . S
C414 C415 1.370 . S
C414 C419 1.415 . S
C415 H404 0.930 . S
C415 C414 1.370 . S
C415 C416 1.407 . S
C416 C415 1.407 . S
C416 C417 1.365 . S
C417 H405 0.930 . S
C417 C416 1.365 . S
C417 C418 1.393 . S
C418 C417 1.393 . S
C418 C419 1.387 . S
C419 H406 0.930 . S
C419 C414 1.415 . S
C419 C418 1.387 . S
H420 C428 0.930 . S
H421 C431 0.930 . S
H422 C433 0.930 . S
H423 C434 0.970 . S
H424 C434 0.970 . S
H425 C436 0.930 . S
H426 C438 0.930 . S
H427 C440 0.930 . S
C428 H420 0.930 . S
C428 C429 1.382 . S
C428 C430 1.426 . S
C429 C428 1.382 . S
C429 C433 1.389 . S
C430 C428 1.426 . S
C430 C431 1.375 . S
C430 C434 1.532 . S
C431 H421 0.930 . S
C431 C430 1.375 . S
C431 C432 1.416 . S
C432 C431 1.416 . S
C432 C433 1.371 . S
C433 H422 0.930 . S
C433 C429 1.389 . S
C433 C432 1.371 . S
C434 H423 0.970 . S
C434 H424 0.970 . S
C434 C430 1.532 . S
C434 C435 1.499 . S
C435 C434 1.499 . S
C435 C436 1.370 . S
C435 C440 1.415 . S
C436 H425 0.930 . S
C436 C435 1.370 . S
C436 C437 1.407 . S
C437 C436 1.407 . S
C437 C438 1.365 . S
C438 H426 0.930 . S
C438 C437 1.365 . S
C438 C439 1.393 . S
C439 C438 1.393 . S
C439 C440 1.387 . S
C440 H427 0.930 . S
C440 C435 1.415 . S
C440 C439 1.387 . S
H441 C449 0.930 . S
H442 C452 0.930 . S
H443 C454 0.930 . S
H444 C455 0.970 . S
H445 C455 0.970 . S
H446 C457 0.930 . S
H447 C459 0.930 . S
H448 C461 0.930 . S
C449 H441 0.930 . S
C449 C450 1.382 . S
C449 C451 1.426 . S
C450 C449 1.382 . S
C450 C454 1.389 1_455 S
C451 C449 1.426 . S
C451 C452 1.375 . S
C451 C455 1.532 . S
C452 H442 0.930 . S
C452 C451 1.375 . S
C452 C453 1.416 . S
C453 C452 1.416 . S
C453 C454 1.371 1_455 S
C454 H443 0.930 . S
C454 C450 1.389 1_655 S
C454 C453 1.371 1_655 S
C455 H444 0.970 . S
C455 H445 0.970 . S
C455 C451 1.532 . S
C455 C456 1.499 . S
C456 C455 1.499 . S
C456 C457 1.370 . S
C456 C461 1.415 . S
C457 H446 0.930 . S
C457 C456 1.370 . S
C457 C458 1.411 . S
C458 C457 1.411 . S
C458 C459 1.369 1_455 S
C459 H447 0.930 . S
C459 C458 1.369 1_655 S
C459 C460 1.393 1_655 S
C460 C459 1.393 1_455 S
C460 C461 1.387 . S
C461 H448 0.930 . S
C461 C456 1.415 . S
C461 C460 1.387 . S
H462 C470 0.930 . S
H463 C473 0.930 . S
H464 C475 0.930 . S
H465 C476 0.970 . S
H466 C476 0.970 . S
H467 C478 0.930 . S
H468 C480 0.930 . S
H469 C482 0.930 . S
C470 H462 0.930 . S
C470 C471 1.382 . S
C470 C472 1.426 . S
C471 C470 1.382 . S
C471 C475 1.389 . S
C472 C470 1.426 . S
C472 C473 1.375 . S
C472 C476 1.532 . S
C473 H463 0.930 . S
C473 C472 1.375 . S
C473 C474 1.416 . S
C474 C473 1.416 . S
C474 C475 1.371 . S
C475 H464 0.930 . S
C475 C471 1.389 . S
C475 C474 1.371 . S
C476 H465 0.970 . S
C476 H466 0.970 . S
C476 C472 1.532 . S
C476 C477 1.499 . S
C477 C476 1.499 . S
C477 C478 1.370 . S
C477 C482 1.415 . S
C478 H467 0.930 . S
C478 C477 1.370 . S
C478 C479 1.407 . S
C479 C478 1.407 . S
C479 C480 1.365 . S
C480 H468 0.930 . S
C480 C479 1.365 . S
C480 C481 1.393 . S
C481 C480 1.393 . S
C481 C482 1.387 . S
C482 H469 0.930 . S
C482 C477 1.415 . S
C482 C481 1.387 . S
H483 C491 0.930 . S
H484 C494 0.930 . S
H485 C496 0.930 . S
H486 C497 0.970 . S
H487 C497 0.970 . S
H488 C499 0.930 . S
H489 C501 0.930 . S
H490 C503 0.930 . S
C491 H483 0.930 . S
C491 C492 1.382 . S
C491 C493 1.426 . S
C492 C491 1.382 . S
C492 C496 1.389 1_565 S
C493 C491 1.426 . S
C493 C494 1.375 . S
C493 C497 1.532 . S
C494 H484 0.930 . S
C494 C493 1.375 . S
C494 C495 1.416 . S
C495 C494 1.416 . S
C495 C496 1.371 1_565 S
C496 H485 0.930 . S
C496 C492 1.389 1_545 S
C496 C495 1.371 1_545 S
C497 H486 0.970 . S
C497 H487 0.970 . S
C497 C493 1.532 . S
C497 C498 1.499 . S
C498 C497 1.499 . S
C498 C499 1.370 . S
C498 C503 1.415 . S
C499 H488 0.930 . S
C499 C498 1.370 . S
C499 C500 1.452 . S
C500 C499 1.452 . S
C500 C501 1.347 1_565 S
C501 H489 0.930 . S
C501 C500 1.347 1_545 S
C501 C502 1.393 1_545 S
C502 C501 1.393 1_565 S
C502 C503 1.387 . S
C503 H490 0.930 . S
C503 C498 1.415 . S
C503 C502 1.387 . S
H504 C512 0.930 . S
H505 C515 0.930 . S
H506 C517 0.930 . S
H507 C518 0.970 . S
H508 C518 0.970 . S
H509 C520 0.930 . S
H510 C522 0.930 . S
H511 C524 0.930 . S
C512 H504 0.930 . S
C512 C513 1.382 . S
C512 C514 1.426 . S
C513 C512 1.382 . S
C513 C517 1.389 1_565 S
C514 C512 1.426 . S
C514 C515 1.375 . S
C514 C518 1.532 . S
C515 H505 0.930 . S
C515 C514 1.375 . S
C515 C516 1.416 . S
C516 C515 1.416 . S
C516 C517 1.371 1_565 S
C517 H506 0.930 . S
C517 C513 1.389 1_545 S
C517 C516 1.371 1_545 S
C518 H507 0.970 . S
C518 H508 0.970 . S
C518 C514 1.532 . S
C518 C519 1.499 . S
C519 C518 1.499 . S
C519 C520 1.370 . S
C519 C524 1.415 . S
C520 H509 0.930 . S
C520 C519 1.370 . S
C520 C521 1.407 . S
C521 C520 1.407 . S
C521 C522 1.365 1_565 S
C522 H510 0.930 . S
C522 C521 1.365 1_545 S
C522 C523 1.393 1_545 S
C523 C522 1.393 1_565 S
C523 C524 1.387 . S
C524 H511 0.930 . S
C524 C519 1.415 . S
C524 C523 1.387 . S
H525 C533 0.930 . S
H526 C536 0.930 . S
H527 C538 0.930 . S
H528 C539 0.970 . S
H529 C539 0.970 . S
H530 C541 0.930 . S
H531 C543 0.930 . S
H532 C545 0.930 . S
C533 H525 0.930 . S
C533 C534 1.382 . S
C533 C535 1.426 . S
C534 C533 1.382 . S
C534 C538 1.389 1_455 S
C535 C533 1.426 . S
C535 C536 1.375 . S
C535 C539 1.532 . S
C536 H526 0.930 . S
C536 C535 1.375 . S
C536 C537 1.416 . S
C537 C536 1.416 . S
C537 C538 1.371 1_455 S
C538 H527 0.930 . S
C538 C534 1.389 1_655 S
C538 C537 1.371 1_655 S
C539 H528 0.970 . S
C539 H529 0.970 . S
C539 C535 1.532 . S
C539 C540 1.499 . S
C540 C539 1.499 . S
C540 C541 1.370 . S
C540 C545 1.415 . S
C541 H530 0.930 . S
C541 C540 1.370 . S
C541 C542 1.407 . S
C542 C541 1.407 . S
C542 C543 1.365 1_455 S
C543 H531 0.930 . S
C543 C542 1.365 1_655 S
C543 C544 1.393 1_655 S
C544 C543 1.393 1_455 S
C544 C545 1.387 . S
C545 H532 0.930 . S
C545 C540 1.415 . S
C545 C544 1.387 . S
H546 C554 0.930 . S
H547 C557 0.930 . S
H548 C559 0.930 . S
H549 C560 0.970 . S
H550 C560 0.970 . S
H551 C562 0.930 . S
H552 C564 0.930 . S
H553 C566 0.930 . S
C554 H546 0.930 . S
C554 C555 1.382 . S
C554 C556 1.426 . S
C555 C554 1.382 . S
C555 C559 1.389 . S
C556 C554 1.426 . S
C556 C557 1.375 . S
C556 C560 1.532 . S
C557 H547 0.930 . S
C557 C556 1.375 . S
C557 C558 1.416 . S
C558 C557 1.416 . S
C558 C559 1.371 . S
C559 H548 0.930 . S
C559 C555 1.389 . S
C559 C558 1.371 . S
C560 H549 0.970 . S
C560 H550 0.970 . S
C560 C556 1.532 . S
C560 C561 1.499 . S
C561 C560 1.499 . S
C561 C562 1.370 . S
C561 C566 1.415 . S
C562 H551 0.930 . S
C562 C561 1.370 . S
C562 C563 1.407 . S
C563 C562 1.407 . S
C563 C564 1.365 . S
C564 H552 0.930 . S
C564 C563 1.365 . S
C564 C565 1.393 . S
C565 C564 1.393 . S
C565 C566 1.387 . S
C566 H553 0.930 . S
C566 C561 1.415 . S
C566 C565 1.387 . S
H567 C575 0.930 . S
H568 C578 0.930 . S
H569 C580 0.930 . S
H570 C581 0.970 . S
H571 C581 0.970 . S
H572 C583 0.930 . S
H573 C585 0.930 . S
H574 C587 0.930 . S
C575 H567 0.930 . S
C575 C576 1.382 . S
C575 C577 1.426 . S
C576 C575 1.382 . S
C576 C580 1.389 . S
C577 C575 1.426 . S
C577 C578 1.375 . S
C577 C581 1.532 . S
C578 H568 0.930 . S
C578 C577 1.375 . S
C578 C579 1.416 . S
C579 C578 1.416 . S
C579 C580 1.371 . S
C580 H569 0.930 . S
C580 C576 1.389 . S
C580 C579 1.371 . S
C581 H570 0.970 . S
C581 H571 0.970 . S
C581 C577 1.532 . S
C581 C582 1.499 . S
C582 C581 1.499 . S
C582 C583 1.370 . S
C582 C587 1.415 . S
C583 H572 0.930 . S
C583 C582 1.370 . S
C583 C584 1.407 . S
C584 C583 1.407 . S
C584 C585 1.365 . S
C585 H573 0.930 . S
C585 C584 1.365 . S
C585 C586 1.393 . S
C586 C585 1.393 . S
C586 C587 1.387 . S
C587 H574 0.930 . S
C587 C582 1.415 . S
C587 C586 1.387 . S
H588 C596 0.930 . S
H589 C599 0.930 . S
H590 C601 0.930 . S
H591 C602 0.970 . S
H592 C602 0.970 . S
H593 C604 0.930 . S
H594 C606 0.930 . S
H595 C608 0.930 . S
C596 H588 0.930 . S
C596 C597 1.382 . S
C596 C598 1.426 . S
C597 C596 1.382 . S
C597 C601 1.389 . S
C598 C596 1.426 . S
C598 C599 1.375 . S
C598 C602 1.532 . S
C599 H589 0.930 . S
C599 C598 1.375 . S
C599 C600 1.416 . S
C600 C599 1.416 . S
C600 C601 1.371 . S
C601 H590 0.930 . S
C601 C597 1.389 . S
C601 C600 1.371 . S
C602 H591 0.970 . S
C602 H592 0.970 . S
C602 C598 1.532 . S
C602 C603 1.499 . S
C603 C602 1.499 . S
C603 C604 1.370 . S
C603 C608 1.415 . S
C604 H593 0.930 . S
C604 C603 1.370 . S
C604 C605 1.407 . S
C605 C604 1.407 . S
C605 C606 1.365 . S
C606 H594 0.930 . S
C606 C605 1.365 . S
C606 C607 1.393 . S
C607 C606 1.393 . S
C607 C608 1.387 . S
C608 H595 0.930 . S
C608 C603 1.415 . S
C608 C607 1.387 . S
H609 C617 0.930 . S
H610 C620 0.930 . S
H611 C622 0.930 . S
H612 C623 0.970 . S
H613 C623 0.970 . S
H614 C625 0.930 . S
H615 C627 0.930 . S
H616 C629 0.930 . S
C617 H609 0.930 . S
C617 C618 1.382 . S
C617 C619 1.426 . S
C618 C617 1.382 . S
C618 C622 1.389 . S
C619 C617 1.426 . S
C619 C620 1.375 . S
C619 C623 1.532 . S
C620 H610 0.930 . S
C620 C619 1.375 . S
C620 C621 1.416 . S
C621 C620 1.416 . S
C621 C622 1.371 . S
C622 H611 0.930 . S
C622 C618 1.389 . S
C622 C621 1.371 . S
C623 H612 0.970 . S
C623 H613 0.970 . S
C623 C619 1.532 . S
C623 C624 1.499 . S
C624 C623 1.499 . S
C624 C625 1.370 . S
C624 C629 1.415 . S
C625 H614 0.930 . S
C625 C624 1.370 . S
C625 C626 1.407 . S
C626 C625 1.407 . S
C626 C627 1.365 . S
C627 H615 0.930 . S
C627 C626 1.365 . S
C627 C628 1.393 . S
C628 C627 1.393 . S
C628 C629 1.387 . S
C629 H616 0.930 . S
C629 C624 1.415 . S
C629 C628 1.387 . S
H630 C638 0.950 . S
H631 C643 0.950 . S
H632 C640 0.950 . S
H633 C642 0.950 . S
H634 C644 0.950 . S
H635 C646 0.950 . S
H636 C648 0.950 . S
H637 C649 0.950 . S
C638 H630 0.950 . S
C638 C639 1.386 1_655 S
C638 C640 1.391 . S
C639 C638 1.386 1_455 S
C639 C643 1.393 . S
C640 H632 0.950 . S
C640 C638 1.391 . S
C640 C641 1.413 . S
C641 C640 1.413 . S
C641 C642 1.369 1_655 S
C641 C647 1.507 . S
C642 H633 0.950 . S
C642 C641 1.369 1_455 S
C642 C643 1.391 . S
C643 H631 0.950 . S
C643 C639 1.393 . S
C643 C642 1.391 . S
C644 H634 0.950 . S
C644 C645 1.386 1_455 S
C644 C646 1.391 . S
C645 C644 1.386 1_655 S
C645 C649 1.393 . S
C646 H635 0.950 . S
C646 C644 1.391 . S
C646 C647 1.400 1_455 S
C647 C641 1.507 . S
C647 C646 1.400 1_655 S
C647 C648 1.398 . S
C648 H636 0.950 . S
C648 C647 1.398 . S
C648 C649 1.391 . S
C649 H637 0.950 . S
C649 C645 1.393 . S
C649 C648 1.391 . S
H650 C658 0.950 . S
H651 C663 0.950 . S
H652 C660 0.950 . S
H653 C662 0.950 . S
H654 C664 0.950 . S
H655 C666 0.950 . S
H656 C668 0.950 . S
H657 C669 0.950 . S
C658 H650 0.950 . S
C658 C659 1.386 . S
C658 C660 1.391 . S
C659 C658 1.386 . S
C659 C663 1.393 . S
C660 H652 0.950 . S
C660 C658 1.391 . S
C660 C661 1.400 . S
C661 C660 1.400 . S
C661 C662 1.398 . S
C661 C667 1.491 . S
C662 H653 0.950 . S
C662 C661 1.398 . S
C662 C663 1.391 . S
C663 H651 0.950 . S
C663 C659 1.393 . S
C663 C662 1.391 . S
C664 H654 0.950 . S
C664 C665 1.386 . S
C664 C666 1.391 . S
C665 C664 1.386 . S
C665 C669 1.393 . S
C666 H655 0.950 . S
C666 C664 1.391 . S
C666 C667 1.400 . S
C667 C661 1.491 . S
C667 C666 1.400 . S
C667 C668 1.398 . S
C668 H656 0.950 . S
C668 C667 1.398 . S
C668 C669 1.391 . S
C669 H657 0.950 . S
C669 C665 1.393 . S
C669 C668 1.391 . S
H670 C678 0.950 . S
H671 C683 0.950 . S
H672 C680 0.950 . S
H673 C682 0.950 . S
H674 C684 0.950 . S
H675 C686 0.950 . S
H676 C688 0.950 . S
H677 C689 0.950 . S
C678 H670 0.950 . S
C678 C679 1.386 . S
C678 C680 1.391 . S
C679 C678 1.386 . S
C679 C683 1.393 1_565 S
C680 H672 0.950 . S
C680 C678 1.391 . S
C680 C681 1.396 1_565 S
C681 C680 1.396 1_545 S
C681 C682 1.415 . S
C681 C687 1.479 . S
C682 H673 0.950 . S
C682 C681 1.415 . S
C682 C683 1.391 . S
C683 H671 0.950 . S
C683 C679 1.393 1_545 S
C683 C682 1.391 . S
C684 H674 0.950 . S
C684 C685 1.386 . S
C684 C686 1.391 . S
C685 C684 1.386 . S
C685 C689 1.393 1_545 S
C686 H675 0.950 . S
C686 C684 1.391 . S
C686 C687 1.400 . S
C687 C681 1.479 . S
C687 C686 1.400 . S
C687 C688 1.398 1_545 S
C688 H676 0.950 . S
C688 C687 1.398 1_565 S
C688 C689 1.391 . S
C689 H677 0.950 . S
C689 C685 1.393 1_565 S
C689 C688 1.391 . S
H690 C698 0.950 . S
H691 C703 0.950 . S
H692 C700 0.950 . S
H693 C702 0.950 . S
H694 C704 0.950 . S
H695 C706 0.950 . S
H696 C708 0.950 . S
H697 C709 0.950 . S
C698 H690 0.950 . S
C698 C699 1.386 1_565 S
C698 C700 1.391 . S
C699 C698 1.386 1_545 S
C699 C703 1.393 . S
C700 H692 0.950 . S
C700 C698 1.391 . S
C700 C701 1.409 . S
C701 C700 1.409 . S
C701 C702 1.371 1_565 S
C701 C707 1.509 . S
C702 H693 0.950 . S
C702 C701 1.371 1_545 S
C702 C703 1.391 . S
C703 H691 0.950 . S
C703 C699 1.393 . S
C703 C702 1.391 . S
C704 H694 0.950 . S
C704 C705 1.386 1_545 S
C704 C706 1.391 . S
C705 C704 1.386 1_565 S
C705 C709 1.393 . S
C706 H695 0.950 . S
C706 C704 1.391 . S
C706 C707 1.400 1_545 S
C707 C701 1.509 . S
C707 C706 1.400 1_565 S
C707 C708 1.398 . S
C708 H696 0.950 . S
C708 C707 1.398 . S
C708 C709 1.391 . S
C709 H697 0.950 . S
C709 C705 1.393 . S
C709 C708 1.391 . S
H710 C718 0.950 . S
H711 C723 0.950 . S
H712 C720 0.950 . S
H713 C722 0.950 . S
H714 C724 0.950 . S
H715 C726 0.950 . S
H716 C728 0.950 . S
H717 C729 0.950 . S
C718 H710 0.950 . S
C718 C719 1.388 1_655 S
C718 C720 1.391 . S
C719 C718 1.388 1_455 S
C719 C723 1.391 . S
C720 H712 0.950 . S
C720 C718 1.391 . S
C720 C721 1.400 1_655 S
C721 C720 1.400 1_455 S
C721 C722 1.398 . S
C721 C727 1.491 . S
C722 H713 0.950 . S
C722 C721 1.398 . S
C722 C723 1.391 . S
C723 H711 0.950 . S
C723 C719 1.391 . S
C723 C722 1.391 . S
C724 H714 0.950 . S
C724 C725 1.386 . S
C724 C726 1.391 . S
C725 C724 1.386 . S
C725 C729 1.393 1_455 S
C726 H715 0.950 . S
C726 C724 1.391 . S
C726 C727 1.400 . S
C727 C721 1.491 . S
C727 C726 1.400 . S
C727 C728 1.398 1_455 S
C728 H716 0.950 . S
C728 C727 1.398 1_655 S
C728 C729 1.391 . S
C729 H717 0.950 . S
C729 C725 1.393 1_655 S
C729 C728 1.391 . S
H730 C738 0.950 . S
H731 C743 0.950 . S
H732 C740 0.950 . S
H733 C742 0.950 . S
H734 C744 0.950 . S
H735 C746 0.950 . S
H736 C748 0.950 . S
H737 C749 0.950 . S
C738 H730 0.950 . S
C738 C739 1.386 . S
C738 C740 1.391 . S
C739 C738 1.386 . S
C739 C743 1.393 . S
C740 H732 0.950 . S
C740 C738 1.391 . S
C740 C741 1.400 . S
C741 C740 1.400 . S
C741 C742 1.398 . S
C741 C747 1.491 . S
C742 H733 0.950 . S
C742 C741 1.398 . S
C742 C743 1.391 . S
C743 H731 0.950 . S
C743 C739 1.393 . S
C743 C742 1.391 . S
C744 H734 0.950 . S
C744 C745 1.386 . S
C744 C746 1.391 . S
C745 C744 1.386 . S
C745 C749 1.393 . S
C746 H735 0.950 . S
C746 C744 1.391 . S
C746 C747 1.400 . S
C747 C741 1.491 . S
C747 C746 1.400 . S
C747 C748 1.398 . S
C748 H736 0.950 . S
C748 C747 1.398 . S
C748 C749 1.391 . S
C749 H737 0.950 . S
C749 C745 1.393 . S
C749 C748 1.391 . S
H750 C758 0.950 . S
H751 C763 0.950 . S
H752 C760 0.950 . S
H753 C762 0.950 . S
H754 C764 0.950 . S
H755 C766 0.950 . S
H756 C768 0.950 . S
H757 C769 0.950 . S
C758 H750 0.950 . S
C758 C759 1.386 1_455 S
C758 C760 1.391 . S
C759 C758 1.386 1_655 S
C759 C763 1.393 . S
C760 H752 0.950 . S
C760 C758 1.391 . S
C760 C761 1.384 1_455 S
C761 C760 1.384 1_655 S
C761 C762 1.440 . S
C761 C767 1.465 1_655 S
C762 H753 0.950 . S
C762 C761 1.440 . S
C762 C763 1.391 . S
C763 H751 0.950 . S
C763 C759 1.393 . S
C763 C762 1.391 . S
C764 H754 0.950 . S
C764 C765 1.330 1_655 S
C764 C766 1.391 . S
C765 C764 1.330 1_455 S
C765 C769 1.420 . S
C766 H755 0.950 . S
C766 C764 1.391 . S
C766 C767 1.398 1_655 S
C767 C761 1.465 1_455 S
C767 C766 1.398 1_455 S
C767 C768 1.404 . S
C768 H756 0.950 . S
C768 C767 1.404 . S
C768 C769 1.391 . S
C769 H757 0.950 . S
C769 C765 1.420 . S
C769 C768 1.391 . S
H770 C778 0.950 . S
H771 C783 0.950 . S
H772 C780 0.950 . S
H773 C782 0.950 . S
H774 C784 0.950 . S
H775 C786 0.950 . S
H776 C788 0.950 . S
H777 C789 0.950 . S
C778 H770 0.950 . S
C778 C779 1.386 . S
C778 C780 1.391 . S
C779 C778 1.386 . S
C779 C783 1.393 . S
C780 H772 0.950 . S
C780 C778 1.391 . S
C780 C781 1.400 . S
C781 C780 1.400 . S
C781 C782 1.398 . S
C781 C787 1.491 . S
C782 H773 0.950 . S
C782 C781 1.398 . S
C782 C783 1.391 . S
C783 H771 0.950 . S
C783 C779 1.393 . S
C783 C782 1.391 . S
C784 H774 0.950 . S
C784 C785 1.386 . S
C784 C786 1.391 . S
C785 C784 1.386 . S
C785 C789 1.393 . S
C786 H775 0.950 . S
C786 C784 1.391 . S
C786 C787 1.400 . S
C787 C781 1.491 . S
C787 C786 1.400 . S
C787 C788 1.398 . S
C788 H776 0.950 . S
C788 C787 1.398 . S
C788 C789 1.391 . S
C789 H777 0.950 . S
C789 C785 1.393 . S
C789 C788 1.391 . S
H790 C798 0.950 . S
H791 C803 0.950 . S
H792 C800 0.950 . S
H793 C802 0.950 . S
H794 C804 0.950 . S
H795 C806 0.950 . S
H796 C808 0.950 . S
H797 C809 0.950 . S
C798 H790 0.950 . S
C798 C799 1.369 1_565 S
C798 C800 1.391 . S
C799 C798 1.369 1_545 S
C799 C803 1.422 . S
C800 H792 0.950 . S
C800 C798 1.391 . S
C800 C801 1.388 1_565 S
C801 C800 1.388 1_545 S
C801 C802 1.405 . S
C801 C807 1.483 . S
C802 H793 0.950 . S
C802 C801 1.405 . S
C802 C803 1.391 . S
C803 H791 0.950 . S
C803 C799 1.422 . S
C803 C802 1.391 . S
C804 H794 0.950 . S
C804 C805 1.392 . S
C804 C806 1.391 . S
C805 C804 1.392 . S
C805 C809 1.382 1_545 S
C806 H795 0.950 . S
C806 C804 1.391 . S
C806 C807 1.429 . S
C807 C801 1.483 . S
C807 C806 1.429 . S
C807 C808 1.383 1_545 S
C808 H796 0.950 . S
C808 C807 1.383 1_565 S
C808 C809 1.391 . S
C809 H797 0.950 . S
C809 C805 1.382 1_565 S
C809 C808 1.391 . S
H810 C818 0.950 . S
H811 C823 0.950 . S
H812 C820 0.950 . S
H813 C822 0.950 . S
H814 C824 0.950 . S
H815 C826 0.950 . S
H816 C828 0.950 . S
H817 C829 0.950 . S
C818 H810 0.950 . S
C818 C819 1.354 1_545 S
C818 C820 1.391 . S
C819 C818 1.354 1_565 S
C819 C823 1.409 . S
C820 H812 0.950 . S
C820 C818 1.391 . S
C820 C821 1.398 1_545 S
C821 C820 1.398 1_565 S
C821 C822 1.402 . S
C821 C827 1.487 . S
C822 H813 0.950 . S
C822 C821 1.402 . S
C822 C823 1.391 . S
C823 H811 0.950 . S
C823 C819 1.409 . S
C823 C822 1.391 . S
C824 H814 0.950 . S
C824 C825 1.368 1_565 S
C824 C826 1.391 . S
C825 C824 1.368 1_545 S
C825 C829 1.402 . S
C826 H815 0.950 . S
C826 C824 1.391 . S
C826 C827 1.398 . S
C827 C821 1.487 . S
C827 C826 1.398 . S
C827 C828 1.402 1_565 S
C828 H816 0.950 . S
C828 C827 1.402 1_545 S
C828 C829 1.391 . S
C829 H817 0.950 . S
C829 C825 1.402 . S
C829 C828 1.391 . S
H830 C838 0.950 . S
H831 C843 0.928 . S
H832 C840 0.950 . S
H833 C842 0.949 . S
H834 C844 0.950 . S
H835 C846 0.950 . S
H836 C848 0.949 . S
H837 C849 0.928 . S
C838 H830 0.950 . S
C838 C839 1.386 . S
C838 C840 1.391 . S
C839 C838 1.386 . S
C839 C843 1.401 . S
C840 H832 0.950 . S
C840 C838 1.391 . S
C840 C841 1.410 . S
C841 C840 1.410 . S
C841 C842 1.392 . S
C841 C847 1.514 1_455 S
C842 H833 0.949 . S
C842 C841 1.392 . S
C842 C843 1.394 . S
C843 H831 0.928 . S
C843 C839 1.401 . S
C843 C842 1.394 . S
C844 H834 0.950 . S
C844 C845 1.420 . S
C844 C846 1.391 . S
C845 C844 1.420 . S
C845 C849 1.388 1_655 S
C846 H835 0.950 . S
C846 C844 1.391 . S
C846 C847 1.400 . S
C847 C841 1.514 1_655 S
C847 C846 1.400 . S
C847 C848 1.400 1_655 S
C848 H836 0.949 . S
C848 C847 1.400 1_455 S
C848 C849 1.394 . S
C849 H837 0.928 . S
C849 C845 1.388 1_455 S
C849 C848 1.394 . S
H850 C858 0.950 . S
H851 C863 0.950 . S
H852 C860 0.950 . S
H853 C862 0.950 . S
H854 C864 0.950 . S
H855 C866 0.950 . S
H856 C868 0.950 . S
H857 C869 0.950 . S
C858 H850 0.950 . S
C858 C859 1.386 . S
C858 C860 1.391 . S
C859 C858 1.386 . S
C859 C863 1.393 . S
C860 H852 0.950 . S
C860 C858 1.391 . S
C860 C861 1.400 . S
C861 C860 1.400 . S
C861 C862 1.398 . S
C861 C867 1.491 . S
C862 H853 0.950 . S
C862 C861 1.398 . S
C862 C863 1.391 . S
C863 H851 0.950 . S
C863 C859 1.393 . S
C863 C862 1.391 . S
C864 H854 0.950 . S
C864 C865 1.386 . S
C864 C866 1.391 . S
C865 C864 1.386 . S
C865 C869 1.393 . S
C866 H855 0.950 . S
C866 C864 1.391 . S
C866 C867 1.400 . S
C867 C861 1.491 . S
C867 C866 1.400 . S
C867 C868 1.398 . S
C868 H856 0.950 . S
C868 C867 1.398 . S
C868 C869 1.391 . S
C869 H857 0.950 . S
C869 C865 1.393 . S
C869 C868 1.391 . S
H870 C878 0.950 . S
H871 C883 0.950 . S
H872 C880 0.950 . S
H873 C882 0.950 . S
H874 C884 0.950 . S
H875 C886 0.950 . S
H876 C888 0.950 . S
H877 C889 0.950 . S
C878 H870 0.950 . S
C878 C879 1.386 . S
C878 C880 1.391 . S
C879 C878 1.386 . S
C879 C883 1.393 . S
C880 H872 0.950 . S
C880 C878 1.391 . S
C880 C881 1.400 . S
C881 C880 1.400 . S
C881 C882 1.398 . S
C881 C887 1.491 . S
C882 H873 0.950 . S
C882 C881 1.398 . S
C882 C883 1.391 . S
C883 H871 0.950 . S
C883 C879 1.393 . S
C883 C882 1.391 . S
C884 H874 0.950 . S
C884 C885 1.386 . S
C884 C886 1.391 . S
C885 C884 1.386 . S
C885 C889 1.393 . S
C886 H875 0.950 . S
C886 C884 1.391 . S
C886 C887 1.400 . S
C887 C881 1.491 . S
C887 C886 1.400 . S
C887 C888 1.398 . S
C888 H876 0.950 . S
C888 C887 1.398 . S
C888 C889 1.391 . S
C889 H877 0.950 . S
C889 C885 1.393 . S
C889 C888 1.391 . S
H890 C898 0.950 . S
H891 C903 0.950 . S
H892 C900 0.950 . S
H893 C902 0.950 . S
H894 C904 0.950 . S
H895 C906 0.950 . S
H896 C908 0.950 . S
H897 C909 0.950 . S
C898 H890 0.950 . S
C898 C899 1.386 . S
C898 C900 1.391 . S
C899 C898 1.386 . S
C899 C903 1.393 . S
C900 H892 0.950 . S
C900 C898 1.391 . S
C900 C901 1.400 . S
C901 C900 1.400 . S
C901 C902 1.398 . S
C901 C907 1.491 . S
C902 H893 0.950 . S
C902 C901 1.398 . S
C902 C903 1.391 . S
C903 H891 0.950 . S
C903 C899 1.393 . S
C903 C902 1.391 . S
C904 H894 0.950 . S
C904 C905 1.386 . S
C904 C906 1.391 . S
C905 C904 1.386 . S
C905 C909 1.393 . S
C906 H895 0.950 . S
C906 C904 1.391 . S
C906 C907 1.400 . S
C907 C901 1.491 . S
C907 C906 1.400 . S
C907 C908 1.398 . S
C908 H896 0.950 . S
C908 C907 1.398 . S
C908 C909 1.391 . S
C909 H897 0.950 . S
C909 C905 1.393 . S
C909 C908 1.391 . S
H910 C918 0.950 . S
H911 C923 0.950 . S
H912 C920 0.950 . S
H913 C922 0.950 . S
H914 C924 0.950 . S
H915 C926 0.950 . S
H916 C928 0.950 . S
H917 C929 0.950 . S
C918 H910 0.950 . S
C918 C919 1.386 . S
C918 C920 1.391 . S
C919 C918 1.386 . S
C919 C923 1.393 . S
C920 H912 0.950 . S
C920 C918 1.391 . S
C920 C921 1.400 . S
C921 C920 1.400 . S
C921 C922 1.398 . S
C921 C927 1.491 . S
C922 H913 0.950 . S
C922 C921 1.398 . S
C922 C923 1.391 . S
C923 H911 0.950 . S
C923 C919 1.393 . S
C923 C922 1.391 . S
C924 H914 0.950 . S
C924 C925 1.386 . S
C924 C926 1.391 . S
C925 C924 1.386 . S
C925 C929 1.393 . S
C926 H915 0.950 . S
C926 C924 1.391 . S
C926 C927 1.400 . S
C927 C921 1.491 . S
C927 C926 1.400 . S
C927 C928 1.398 . S
C928 H916 0.950 . S
C928 C927 1.398 . S
C928 C929 1.391 . S
C929 H917 0.950 . S
C929 C925 1.393 . S
C929 C928 1.391 . S
H930 C938 0.950 . S
H931 C943 0.950 . S
H932 C940 0.950 . S
H933 C942 0.950 . S
H934 C944 0.950 . S
H935 C946 0.950 . S
H936 C948 0.950 . S
H937 C949 0.950 . S
C938 H930 0.950 . S
C938 C939 1.386 . S
C938 C940 1.391 . S
C939 C938 1.386 . S
C939 C943 1.393 . S
C940 H932 0.950 . S
C940 C938 1.391 . S
C940 C941 1.400 . S
C941 C940 1.400 . S
C941 C942 1.398 . S
C941 C947 1.491 . S
C942 H933 0.950 . S
C942 C941 1.398 . S
C942 C943 1.391 . S
C943 H931 0.950 . S
C943 C939 1.393 . S
C943 C942 1.391 . S
C944 H934 0.950 . S
C944 C945 1.386 . S
C944 C946 1.391 . S
C945 C944 1.386 . S
C945 C949 1.393 . S
C946 H935 0.950 . S
C946 C944 1.391 . S
C946 C947 1.400 . S
C947 C941 1.491 . S
C947 C946 1.400 . S
C947 C948 1.398 . S
C948 H936 0.950 . S
C948 C947 1.398 . S
C948 C949 1.391 . S
C949 H937 0.950 . S
C949 C945 1.393 . S
C949 C948 1.391 . S
H950 C958 0.950 . S
H951 C963 0.950 . S
H952 C960 0.950 . S
H953 C962 0.950 . S
H954 C964 0.950 . S
H955 C966 0.950 . S
H956 C968 0.950 . S
H957 C969 0.950 . S
C958 H950 0.950 . S
C958 C959 1.386 . S
C958 C960 1.391 . S
C959 C958 1.386 . S
C959 C963 1.393 . S
C960 H952 0.950 . S
C960 C958 1.391 . S
C960 C961 1.400 . S
C961 C960 1.400 . S
C961 C962 1.398 . S
C961 C967 1.491 . S
C962 H953 0.950 . S
C962 C961 1.398 . S
C962 C963 1.391 . S
C963 H951 0.950 . S
C963 C959 1.393 . S
C963 C962 1.391 . S
C964 H954 0.950 . S
C964 C965 1.386 . S
C964 C966 1.391 . S
C965 C964 1.386 . S
C965 C969 1.393 . S
C966 H955 0.950 . S
C966 C964 1.391 . S
C966 C967 1.400 . S
C967 C961 1.491 . S
C967 C966 1.400 . S
C967 C968 1.398 . S
C968 H956 0.950 . S
C968 C967 1.398 . S
C968 C969 1.391 . S
C969 H957 0.950 . S
C969 C965 1.393 . S
C969 C968 1.391 . S
H970 C978 0.950 . S
H971 C983 0.950 . S
H972 C980 0.950 . S
H973 C982 0.950 . S
H974 C984 0.950 . S
H975 C986 0.950 . S
H976 C988 0.950 . S
H977 C989 0.950 . S
C978 H970 0.950 . S
C978 C979 1.386 . S
C978 C980 1.391 . S
C979 C978 1.386 . S
C979 C983 1.393 . S
C980 H972 0.950 . S
C980 C978 1.391 . S
C980 C981 1.400 . S
C981 C980 1.400 . S
C981 C982 1.398 . S
C981 C987 1.491 . S
C982 H973 0.950 . S
C982 C981 1.398 . S
C982 C983 1.391 . S
C983 H971 0.950 . S
C983 C979 1.393 . S
C983 C982 1.391 . S
C984 H974 0.950 . S
C984 C985 1.386 . S
C984 C986 1.391 . S
C985 C984 1.386 . S
C985 C989 1.393 . S
C986 H975 0.950 . S
C986 C984 1.391 . S
C986 C987 1.400 . S
C987 C981 1.491 . S
C987 C986 1.400 . S
C987 C988 1.398 . S
C988 H976 0.950 . S
C988 C987 1.398 . S
C988 C989 1.391 . S
C989 H977 0.950 . S
C989 C985 1.393 . S
C989 C988 1.391 . S
H990 C998 0.950 . S
H991 C1003 0.950 . S
H992 C1000 0.950 . S
H993 C1002 0.950 . S
H994 C1004 0.950 . S
H995 C1006 0.950 . S
H996 C1008 0.950 . S
H997 C1009 0.950 . S
C998 H990 0.950 . S
C998 C999 1.386 . S
C998 C1000 1.391 . S
C999 C998 1.386 . S
C999 C1003 1.393 . S
C1000 H992 0.950 . S
C1000 C998 1.391 . S
C1000 C1001 1.400 . S
C1001 C1000 1.400 . S
C1001 C1002 1.398 . S
C1001 C1007 1.491 . S
C1002 H993 0.950 . S
C1002 C1001 1.398 . S
C1002 C1003 1.391 . S
C1003 H991 0.950 . S
C1003 C999 1.393 . S
C1003 C1002 1.391 . S
C1004 H994 0.950 . S
C1004 C1005 1.386 . S
C1004 C1006 1.391 . S
C1005 C1004 1.386 . S
C1005 C1009 1.393 . S
C1006 H995 0.950 . S
C1006 C1004 1.391 . S
C1006 C1007 1.400 . S
C1007 C1001 1.491 . S
C1007 C1006 1.400 . S
C1007 C1008 1.398 . S
C1008 H996 0.950 . S
C1008 C1007 1.398 . S
C1008 C1009 1.391 . S
C1009 H997 0.950 . S
C1009 C1005 1.393 . S
C1009 C1008 1.391 . S
H1010 C1018 0.950 . S
H1011 C1023 0.950 . S
H1012 C1020 0.950 . S
H1013 C1022 0.950 . S
H1014 C1024 0.950 . S
H1015 C1026 0.950 . S
H1016 C1028 0.950 . S
H1017 C1029 0.950 . S
C1018 H1010 0.950 . S
C1018 C1019 1.386 . S
C1018 C1020 1.391 . S
C1019 C1018 1.386 . S
C1019 C1023 1.393 . S
C1020 H1012 0.950 . S
C1020 C1018 1.391 . S
C1020 C1021 1.400 . S
C1021 C1020 1.400 . S
C1021 C1022 1.398 . S
C1021 C1027 1.491 . S
C1022 H1013 0.950 . S
C1022 C1021 1.398 . S
C1022 C1023 1.391 . S
C1023 H1011 0.950 . S
C1023 C1019 1.393 . S
C1023 C1022 1.391 . S
C1024 H1014 0.950 . S
C1024 C1025 1.386 . S
C1024 C1026 1.391 . S
C1025 C1024 1.386 . S
C1025 C1029 1.393 . S
C1026 H1015 0.950 . S
C1026 C1024 1.391 . S
C1026 C1027 1.400 . S
C1027 C1021 1.491 . S
C1027 C1026 1.400 . S
C1027 C1028 1.398 . S
C1028 H1016 0.950 . S
C1028 C1027 1.398 . S
C1028 C1029 1.391 . S
C1029 H1017 0.950 . S
C1029 C1025 1.393 . S
C1029 C1028 1.391 . S
H1030 C1038 0.950 . S
H1031 C1043 0.950 . S
H1032 C1040 0.950 . S
H1033 C1042 0.950 . S
H1034 C1044 0.950 . S
H1035 C1046 0.950 . S
H1036 C1048 0.950 . S
H1037 C1049 0.950 . S
C1038 H1030 0.950 . S
C1038 C1039 1.386 . S
C1038 C1040 1.391 . S
C1039 C1038 1.386 . S
C1039 C1043 1.393 . S
C1040 H1032 0.950 . S
C1040 C1038 1.391 . S
C1040 C1041 1.400 . S
C1041 C1040 1.400 . S
C1041 C1042 1.398 . S
C1041 C1047 1.491 . S
C1042 H1033 0.950 . S
C1042 C1041 1.398 . S
C1042 C1043 1.391 . S
C1043 H1031 0.950 . S
C1043 C1039 1.393 . S
C1043 C1042 1.391 . S
C1044 H1034 0.950 . S
C1044 C1045 1.386 . S
C1044 C1046 1.391 . S
C1045 C1044 1.386 . S
C1045 C1049 1.393 . S
C1046 H1035 0.950 . S
C1046 C1044 1.391 . S
C1046 C1047 1.400 . S
C1047 C1041 1.491 . S
C1047 C1046 1.400 . S
C1047 C1048 1.398 . S
C1048 H1036 0.950 . S
C1048 C1047 1.398 . S
C1048 C1049 1.391 . S
C1049 H1037 0.950 . S
C1049 C1045 1.393 . S
C1049 C1048 1.391 . S
H1050 C1058 0.950 . S
H1051 C1063 0.950 . S
H1052 C1060 0.950 . S
H1053 C1062 0.950 . S
H1054 C1064 0.950 . S
H1055 C1066 0.950 . S
H1056 C1068 0.950 . S
H1057 C1069 0.950 . S
C1058 H1050 0.950 . S
C1058 C1059 1.386 . S
C1058 C1060 1.391 . S
C1059 C1058 1.386 . S
C1059 C1063 1.393 . S
C1060 H1052 0.950 . S
C1060 C1058 1.391 . S
C1060 C1061 1.400 . S
C1061 C1060 1.400 . S
C1061 C1062 1.398 . S
C1061 C1067 1.491 . S
C1062 H1053 0.950 . S
C1062 C1061 1.398 . S
C1062 C1063 1.391 . S
C1063 H1051 0.950 . S
C1063 C1059 1.393 . S
C1063 C1062 1.391 . S
C1064 H1054 0.950 . S
C1064 C1065 1.386 . S
C1064 C1066 1.391 . S
C1065 C1064 1.386 . S
C1065 C1069 1.393 . S
C1066 H1055 0.950 . S
C1066 C1064 1.391 . S
C1066 C1067 1.400 . S
C1067 C1061 1.491 . S
C1067 C1066 1.400 . S
C1067 C1068 1.398 . S
C1068 H1056 0.950 . S
C1068 C1067 1.398 . S
C1068 C1069 1.391 . S
C1069 H1057 0.950 . S
C1069 C1065 1.393 . S
C1069 C1068 1.391 . S
H1070 C1078 0.950 . S
H1071 C1083 0.950 . S
H1072 C1080 0.950 . S
H1073 C1082 0.950 . S
H1074 C1084 0.950 . S
H1075 C1086 0.950 . S
H1076 C1088 0.950 . S
H1077 C1089 0.950 . S
C1078 H1070 0.950 . S
C1078 C1079 1.386 . S
C1078 C1080 1.391 . S
C1079 C1078 1.386 . S
C1079 C1083 1.393 . S
C1080 H1072 0.950 . S
C1080 C1078 1.391 . S
C1080 C1081 1.400 . S
C1081 C1080 1.400 . S
C1081 C1082 1.398 . S
C1081 C1087 1.491 . S
C1082 H1073 0.950 . S
C1082 C1081 1.398 . S
C1082 C1083 1.391 . S
C1083 H1071 0.950 . S
C1083 C1079 1.393 . S
C1083 C1082 1.391 . S
C1084 H1074 0.950 . S
C1084 C1085 1.386 . S
C1084 C1086 1.391 . S
C1085 C1084 1.386 . S
C1085 C1089 1.393 . S
C1086 H1075 0.950 . S
C1086 C1084 1.391 . S
C1086 C1087 1.400 . S
C1087 C1081 1.491 . S
C1087 C1086 1.400 . S
C1087 C1088 1.398 . S
C1088 H1076 0.950 . S
C1088 C1087 1.398 . S
C1088 C1089 1.391 . S
C1089 H1077 0.950 . S
C1089 C1085 1.393 . S
C1089 C1088 1.391 . S
H1090 C1098 0.950 . S
H1091 C1103 0.950 . S
H1092 C1100 0.950 . S
H1093 C1102 0.950 . S
H1094 C1104 0.950 . S
H1095 C1106 0.950 . S
H1096 C1108 0.950 . S
H1097 C1109 0.950 . S
C1098 H1090 0.950 . S
C1098 C1099 1.386 . S
C1098 C1100 1.391 . S
C1099 C1098 1.386 . S
C1099 C1103 1.393 . S
C1100 H1092 0.950 . S
C1100 C1098 1.391 . S
C1100 C1101 1.400 . S
C1101 C1100 1.400 . S
C1101 C1102 1.398 . S
C1101 C1107 1.491 . S
C1102 H1093 0.950 . S
C1102 C1101 1.398 . S
C1102 C1103 1.391 . S
C1103 H1091 0.950 . S
C1103 C1099 1.393 . S
C1103 C1102 1.391 . S
C1104 H1094 0.950 . S
C1104 C1105 1.386 . S
C1104 C1106 1.391 . S
C1105 C1104 1.386 . S
C1105 C1109 1.393 . S
C1106 H1095 0.950 . S
C1106 C1104 1.391 . S
C1106 C1107 1.400 . S
C1107 C1101 1.491 . S
C1107 C1106 1.400 . S
C1107 C1108 1.398 . S
C1108 H1096 0.950 . S
C1108 C1107 1.398 . S
C1108 C1109 1.391 . S
C1109 H1097 0.950 . S
C1109 C1105 1.393 . S
C1109 C1108 1.391 . S
H1110 C1118 0.950 . S
H1111 C1123 0.950 . S
H1112 C1120 0.950 . S
H1113 C1122 0.950 . S
H1114 C1124 0.950 . S
H1115 C1126 0.950 . S
H1116 C1128 0.950 . S
H1117 C1129 0.950 . S
C1118 H1110 0.950 . S
C1118 C1119 1.386 . S
C1118 C1120 1.391 . S
C1119 C1118 1.386 . S
C1119 C1123 1.393 . S
C1120 H1112 0.950 . S
C1120 C1118 1.391 . S
C1120 C1121 1.400 . S
C1121 C1120 1.400 . S
C1121 C1122 1.398 . S
C1121 C1127 1.491 . S
C1122 H1113 0.950 . S
C1122 C1121 1.398 . S
C1122 C1123 1.391 . S
C1123 H1111 0.950 . S
C1123 C1119 1.393 . S
C1123 C1122 1.391 . S
C1124 H1114 0.950 . S
C1124 C1125 1.386 . S
C1124 C1126 1.391 . S
C1125 C1124 1.386 . S
C1125 C1129 1.393 . S
C1126 H1115 0.950 . S
C1126 C1124 1.391 . S
C1126 C1127 1.400 . S
C1127 C1121 1.491 . S
C1127 C1126 1.400 . S
C1127 C1128 1.398 . S
C1128 H1116 0.950 . S
C1128 C1127 1.398 . S
C1128 C1129 1.391 . S
C1129 H1117 0.950 . S
C1129 C1125 1.393 . S
C1129 C1128 1.391 . S
H1130 C1138 0.950 . S
H1131 C1143 0.950 . S
H1132 C1140 0.950 . S
H1133 C1142 0.950 . S
H1134 C1144 0.950 . S
H1135 C1146 0.950 . S
H1136 C1148 0.950 . S
H1137 C1149 0.950 . S
C1138 H1130 0.950 . S
C1138 C1139 1.386 . S
C1138 C1140 1.391 . S
C1139 C1138 1.386 . S
C1139 C1143 1.393 . S
C1140 H1132 0.950 . S
C1140 C1138 1.391 . S
C1140 C1141 1.400 . S
C1141 C1140 1.400 . S
C1141 C1142 1.398 . S
C1141 C1147 1.491 . S
C1142 H1133 0.950 . S
C1142 C1141 1.398 . S
C1142 C1143 1.391 . S
C1143 H1131 0.950 . S
C1143 C1139 1.393 . S
C1143 C1142 1.391 . S
C1144 H1134 0.950 . S
C1144 C1145 1.386 . S
C1144 C1146 1.391 . S
C1145 C1144 1.386 . S
C1145 C1149 1.393 . S
C1146 H1135 0.950 . S
C1146 C1144 1.391 . S
C1146 C1147 1.400 . S
C1147 C1141 1.491 . S
C1147 C1146 1.400 . S
C1147 C1148 1.398 . S
C1148 H1136 0.950 . S
C1148 C1147 1.398 . S
C1148 C1149 1.391 . S
C1149 H1137 0.950 . S
C1149 C1145 1.393 . S
C1149 C1148 1.391 . S
H1150 C1158 0.950 . S
H1151 C1163 0.950 . S
H1152 C1160 0.950 . S
H1153 C1162 0.950 . S
H1154 C1164 0.950 . S
H1155 C1166 0.950 . S
H1156 C1168 0.950 . S
H1157 C1169 0.950 . S
C1158 H1150 0.950 . S
C1158 C1159 1.386 . S
C1158 C1160 1.391 . S
C1159 C1158 1.386 . S
C1159 C1163 1.393 . S
C1160 H1152 0.950 . S
C1160 C1158 1.391 . S
C1160 C1161 1.400 . S
C1161 C1160 1.400 . S
C1161 C1162 1.398 . S
C1161 C1167 1.491 . S
C1162 H1153 0.950 . S
C1162 C1161 1.398 . S
C1162 C1163 1.391 . S
C1163 H1151 0.950 . S
C1163 C1159 1.393 . S
C1163 C1162 1.391 . S
C1164 H1154 0.950 . S
C1164 C1165 1.386 . S
C1164 C1166 1.391 . S
C1165 C1164 1.386 . S
C1165 C1169 1.393 . S
C1166 H1155 0.950 . S
C1166 C1164 1.391 . S
C1166 C1167 1.400 . S
C1167 C1161 1.491 . S
C1167 C1166 1.400 . S
C1167 C1168 1.398 . S
C1168 H1156 0.950 . S
C1168 C1167 1.398 . S
C1168 C1169 1.391 . S
C1169 H1157 0.950 . S
C1169 C1165 1.393 . S
C1169 C1168 1.391 . S
H1170 C1178 0.950 . S
H1171 C1183 0.950 . S
H1172 C1180 0.950 . S
H1173 C1182 0.950 . S
H1174 C1184 0.950 . S
H1175 C1186 0.950 . S
H1176 C1188 0.950 . S
H1177 C1189 0.950 . S
C1178 H1170 0.950 . S
C1178 C1179 1.386 . S
C1178 C1180 1.391 . S
C1179 C1178 1.386 . S
C1179 C1183 1.393 . S
C1180 H1172 0.950 . S
C1180 C1178 1.391 . S
C1180 C1181 1.400 . S
C1181 C1180 1.400 . S
C1181 C1182 1.398 . S
C1181 C1187 1.491 . S
C1182 H1173 0.950 . S
C1182 C1181 1.398 . S
C1182 C1183 1.391 . S
C1183 H1171 0.950 . S
C1183 C1179 1.393 . S
C1183 C1182 1.391 . S
C1184 H1174 0.950 . S
C1184 C1185 1.386 . S
C1184 C1186 1.391 . S
C1185 C1184 1.386 . S
C1185 C1189 1.393 . S
C1186 H1175 0.950 . S
C1186 C1184 1.391 . S
C1186 C1187 1.400 . S
C1187 C1181 1.491 . S
C1187 C1186 1.400 . S
C1187 C1188 1.398 . S
C1188 H1176 0.950 . S
C1188 C1187 1.398 . S
C1188 C1189 1.391 . S
C1189 H1177 0.950 . S
C1189 C1185 1.393 . S
C1189 C1188 1.391 . S
H1190 C1198 0.950 . S
H1191 C1203 0.950 . S
H1192 C1200 0.950 . S
H1193 C1202 0.950 . S
H1194 C1204 0.950 . S
H1195 C1206 0.950 . S
H1196 C1208 0.950 . S
H1197 C1209 0.950 . S
C1198 H1190 0.950 . S
C1198 C1199 1.386 . S
C1198 C1200 1.391 . S
C1199 C1198 1.386 . S
C1199 C1203 1.393 . S
C1200 H1192 0.950 . S
C1200 C1198 1.391 . S
C1200 C1201 1.400 . S
C1201 C1200 1.400 . S
C1201 C1202 1.398 . S
C1201 C1207 1.491 . S
C1202 H1193 0.950 . S
C1202 C1201 1.398 . S
C1202 C1203 1.391 . S
C1203 H1191 0.950 . S
C1203 C1199 1.393 . S
C1203 C1202 1.391 . S
C1204 H1194 0.950 . S
C1204 C1205 1.386 . S
C1204 C1206 1.391 . S
C1205 C1204 1.386 . S
C1205 C1209 1.393 . S
C1206 H1195 0.950 . S
C1206 C1204 1.391 . S
C1206 C1207 1.400 . S
C1207 C1201 1.491 . S
C1207 C1206 1.400 . S
C1207 C1208 1.398 . S
C1208 H1196 0.950 . S
C1208 C1207 1.398 . S
C1208 C1209 1.391 . S
C1209 H1197 0.950 . S
C1209 C1205 1.393 . S
C1209 C1208 1.391 . S
H1210 C1218 0.950 . S
H1211 C1223 0.950 . S
H1212 C1220 0.950 . S
H1213 C1222 0.950 . S
H1214 C1224 0.950 . S
H1215 C1226 0.950 . S
H1216 C1228 0.950 . S
H1217 C1229 0.950 . S
C1218 H1210 0.950 . S
C1218 C1219 1.386 . S
C1218 C1220 1.391 . S
C1219 C1218 1.386 . S
C1219 C1223 1.393 . S
C1220 H1212 0.950 . S
C1220 C1218 1.391 . S
C1220 C1221 1.400 . S
C1221 C1220 1.400 . S
C1221 C1222 1.398 . S
C1221 C1227 1.491 . S
C1222 H1213 0.950 . S
C1222 C1221 1.398 . S
C1222 C1223 1.391 . S
C1223 H1211 0.950 . S
C1223 C1219 1.393 . S
C1223 C1222 1.391 . S
C1224 H1214 0.950 . S
C1224 C1225 1.386 . S
C1224 C1226 1.391 . S
C1225 C1224 1.386 . S
C1225 C1229 1.393 . S
C1226 H1215 0.950 . S
C1226 C1224 1.391 . S
C1226 C1227 1.400 . S
C1227 C1221 1.491 . S
C1227 C1226 1.400 . S
C1227 C1228 1.398 . S
C1228 H1216 0.950 . S
C1228 C1227 1.398 . S
C1228 C1229 1.391 . S
C1229 H1217 0.950 . S
C1229 C1225 1.393 . S
C1229 C1228 1.391 . S
H1230 C1238 0.950 . S
H1231 C1243 0.950 . S
H1232 C1240 0.950 . S
H1233 C1242 0.950 . S
H1234 C1244 0.950 . S
H1235 C1246 0.950 . S
H1236 C1248 0.950 . S
H1237 C1249 0.950 . S
C1238 H1230 0.950 . S
C1238 C1239 1.386 . S
C1238 C1240 1.391 . S
C1239 C1238 1.386 . S
C1239 C1243 1.393 . S
C1240 H1232 0.950 . S
C1240 C1238 1.391 . S
C1240 C1241 1.400 . S
C1241 C1240 1.400 . S
C1241 C1242 1.398 . S
C1241 C1247 1.491 . S
C1242 H1233 0.950 . S
C1242 C1241 1.398 . S
C1242 C1243 1.391 . S
C1243 H1231 0.950 . S
C1243 C1239 1.393 . S
C1243 C1242 1.391 . S
C1244 H1234 0.950 . S
C1244 C1245 1.386 . S
C1244 C1246 1.391 . S
C1245 C1244 1.386 . S
C1245 C1249 1.393 . S
C1246 H1235 0.950 . S
C1246 C1244 1.391 . S
C1246 C1247 1.400 . S
C1247 C1241 1.491 . S
C1247 C1246 1.400 . S
C1247 C1248 1.398 . S
C1248 H1236 0.950 . S
C1248 C1247 1.398 . S
C1248 C1249 1.391 . S
C1249 H1237 0.950 . S
C1249 C1245 1.393 . S
C1249 C1248 1.391 . S
H1250 C1258 0.950 . S
H1251 C1263 0.950 . S
H1252 C1260 0.950 . S
H1253 C1262 0.950 . S
H1254 C1264 0.950 . S
H1255 C1266 0.950 . S
H1256 C1268 0.950 . S
H1257 C1269 0.950 . S
C1258 H1250 0.950 . S
C1258 C1259 1.386 . S
C1258 C1260 1.391 . S
C1259 C1258 1.386 . S
C1259 C1263 1.393 . S
C1260 H1252 0.950 . S
C1260 C1258 1.391 . S
C1260 C1261 1.400 . S
C1261 C1260 1.400 . S
C1261 C1262 1.398 . S
C1261 C1267 1.491 . S
C1262 H1253 0.950 . S
C1262 C1261 1.398 . S
C1262 C1263 1.391 . S
C1263 H1251 0.950 . S
C1263 C1259 1.393 . S
C1263 C1262 1.391 . S
C1264 H1254 0.950 . S
C1264 C1265 1.386 . S
C1264 C1266 1.391 . S
C1265 C1264 1.386 . S
C1265 C1269 1.393 . S
C1266 H1255 0.950 . S
C1266 C1264 1.391 . S
C1266 C1267 1.400 . S
C1267 C1261 1.491 . S
C1267 C1266 1.400 . S
C1267 C1268 1.398 . S
C1268 H1256 0.950 . S
C1268 C1267 1.398 . S
C1268 C1269 1.391 . S
C1269 H1257 0.950 . S
C1269 C1265 1.393 . S
C1269 C1268 1.391 . S
H1270 C1278 0.950 . S
H1271 C1283 0.950 . S
H1272 C1280 0.950 . S
H1273 C1282 0.950 . S
H1274 C1284 0.950 . S
H1275 C1286 0.950 . S
H1276 C1288 0.950 . S
H1277 C1289 0.950 . S
C1278 H1270 0.950 . S
C1278 C1279 1.386 . S
C1278 C1280 1.391 . S
C1279 C1278 1.386 . S
C1279 C1283 1.393 . S
C1280 H1272 0.950 . S
C1280 C1278 1.391 . S
C1280 C1281 1.400 . S
C1281 C1280 1.400 . S
C1281 C1282 1.398 . S
C1281 C1287 1.491 . S
C1282 H1273 0.950 . S
C1282 C1281 1.398 . S
C1282 C1283 1.391 . S
C1283 H1271 0.950 . S
C1283 C1279 1.393 . S
C1283 C1282 1.391 . S
C1284 H1274 0.950 . S
C1284 C1285 1.386 . S
C1284 C1286 1.391 . S
C1285 C1284 1.386 . S
C1285 C1289 1.393 . S
C1286 H1275 0.950 . S
C1286 C1284 1.391 . S
C1286 C1287 1.400 . S
C1287 C1281 1.491 . S
C1287 C1286 1.400 . S
C1287 C1288 1.398 . S
C1288 H1276 0.950 . S
C1288 C1287 1.398 . S
C1288 C1289 1.391 . S
C1289 H1277 0.950 . S
C1289 C1285 1.393 . S
C1289 C1288 1.391 . S
H1290 C1298 0.950 . S
H1291 C1303 0.950 . S
H1292 C1300 0.950 . S
H1293 C1302 0.950 . S
H1294 C1304 0.950 . S
H1295 C1306 0.950 . S
H1296 C1308 0.950 . S
H1297 C1309 0.950 . S
C1298 H1290 0.950 . S
C1298 C1299 1.386 . S
C1298 C1300 1.391 . S
C1299 C1298 1.386 . S
C1299 C1303 1.393 . S
C1300 H1292 0.950 . S
C1300 C1298 1.391 . S
C1300 C1301 1.400 . S
C1301 C1300 1.400 . S
C1301 C1302 1.398 . S
C1301 C1307 1.491 . S
C1302 H1293 0.950 . S
C1302 C1301 1.398 . S
C1302 C1303 1.391 . S
C1303 H1291 0.950 . S
C1303 C1299 1.393 . S
C1303 C1302 1.391 . S
C1304 H1294 0.950 . S
C1304 C1305 1.386 . S
C1304 C1306 1.391 . S
C1305 C1304 1.386 . S
C1305 C1309 1.393 . S
C1306 H1295 0.950 . S
C1306 C1304 1.391 . S
C1306 C1307 1.400 . S
C1307 C1301 1.491 . S
C1307 C1306 1.400 . S
C1307 C1308 1.398 . S
C1308 H1296 0.950 . S
C1308 C1307 1.398 . S
C1308 C1309 1.391 . S
C1309 H1297 0.950 . S
C1309 C1305 1.393 . S
C1309 C1308 1.391 . S
H1310 C1318 0.950 . S
H1311 C1323 0.950 . S
H1312 C1320 0.950 . S
H1313 C1322 0.950 . S
H1314 C1324 0.950 . S
H1315 C1326 0.950 . S
H1316 C1328 0.950 . S
H1317 C1329 0.950 . S
C1318 H1310 0.950 . S
C1318 C1319 1.386 . S
C1318 C1320 1.391 . S
C1319 C1318 1.386 . S
C1319 C1323 1.393 . S
C1320 H1312 0.950 . S
C1320 C1318 1.391 . S
C1320 C1321 1.400 . S
C1321 C1320 1.400 . S
C1321 C1322 1.398 . S
C1321 C1327 1.491 . S
C1322 H1313 0.950 . S
C1322 C1321 1.398 . S
C1322 C1323 1.391 . S
C1323 H1311 0.950 . S
C1323 C1319 1.393 . S
C1323 C1322 1.391 . S
C1324 H1314 0.950 . S
C1324 C1325 1.386 . S
C1324 C1326 1.391 . S
C1325 C1324 1.386 . S
C1325 C1329 1.393 . S
C1326 H1315 0.950 . S
C1326 C1324 1.391 . S
C1326 C1327 1.400 . S
C1327 C1321 1.491 . S
C1327 C1326 1.400 . S
C1327 C1328 1.398 . S
C1328 H1316 0.950 . S
C1328 C1327 1.398 . S
C1328 C1329 1.391 . S
C1329 H1317 0.950 . S
C1329 C1325 1.393 . S
C1329 C1328 1.391 . S
H1330 C1338 0.950 . S
H1331 C1343 0.950 . S
H1332 C1340 0.950 . S
H1333 C1342 0.950 . S
H1334 C1344 0.950 . S
H1335 C1346 0.950 . S
H1336 C1348 0.950 . S
H1337 C1349 0.950 . S
C1338 H1330 0.950 . S
C1338 C1339 1.386 . S
C1338 C1340 1.391 . S
C1339 C1338 1.386 . S
C1339 C1343 1.393 . S
C1340 H1332 0.950 . S
C1340 C1338 1.391 . S
C1340 C1341 1.400 . S
C1341 C1340 1.400 . S
C1341 C1342 1.398 . S
C1341 C1347 1.491 . S
C1342 H1333 0.950 . S
C1342 C1341 1.398 . S
C1342 C1343 1.391 . S
C1343 H1331 0.950 . S
C1343 C1339 1.393 . S
C1343 C1342 1.391 . S
C1344 H1334 0.950 . S
C1344 C1345 1.386 . S
C1344 C1346 1.391 . S
C1345 C1344 1.386 . S
C1345 C1349 1.393 . S
C1346 H1335 0.950 . S
C1346 C1344 1.391 . S
C1346 C1347 1.400 . S
C1347 C1341 1.491 . S
C1347 C1346 1.400 . S
C1347 C1348 1.398 . S
C1348 H1336 0.950 . S
C1348 C1347 1.398 . S
C1348 C1349 1.391 . S
C1349 H1337 0.950 . S
C1349 C1345 1.393 . S
C1349 C1348 1.391 . S
H1350 C1358 0.950 . S
H1351 C1363 0.950 . S
H1352 C1360 0.950 . S
H1353 C1362 0.950 . S
H1354 C1364 0.950 . S
H1355 C1366 0.950 . S
H1356 C1368 0.950 . S
H1357 C1369 0.950 . S
C1358 H1350 0.950 . S
C1358 C1359 1.386 . S
C1358 C1360 1.391 . S
C1359 C1358 1.386 . S
C1359 C1363 1.393 . S
C1360 H1352 0.950 . S
C1360 C1358 1.391 . S
C1360 C1361 1.400 . S
C1361 C1360 1.400 . S
C1361 C1362 1.398 . S
C1361 C1367 1.491 . S
C1362 H1353 0.950 . S
C1362 C1361 1.398 . S
C1362 C1363 1.391 . S
C1363 H1351 0.950 . S
C1363 C1359 1.393 . S
C1363 C1362 1.391 . S
C1364 H1354 0.950 . S
C1364 C1365 1.386 . S
C1364 C1366 1.391 . S
C1365 C1364 1.386 . S
C1365 C1369 1.393 . S
C1366 H1355 0.950 . S
C1366 C1364 1.391 . S
C1366 C1367 1.400 . S
C1367 C1361 1.491 . S
C1367 C1366 1.400 . S
C1367 C1368 1.398 . S
C1368 H1356 0.950 . S
C1368 C1367 1.398 . S
C1368 C1369 1.391 . S
C1369 H1357 0.950 . S
C1369 C1365 1.393 . S
C1369 C1368 1.391 . S
H1370 C1378 0.950 . S
H1371 C1383 0.950 . S
H1372 C1380 0.950 . S
H1373 C1382 0.950 . S
H1374 C1384 0.950 . S
H1375 C1386 0.950 . S
H1376 C1388 0.950 . S
H1377 C1389 0.950 . S
C1378 H1370 0.950 . S
C1378 C1379 1.386 . S
C1378 C1380 1.391 . S
C1379 C1378 1.386 . S
C1379 C1383 1.393 . S
C1380 H1372 0.950 . S
C1380 C1378 1.391 . S
C1380 C1381 1.400 . S
C1381 C1380 1.400 . S
C1381 C1382 1.398 . S
C1381 C1387 1.491 . S
C1382 H1373 0.950 . S
C1382 C1381 1.398 . S
C1382 C1383 1.391 . S
C1383 H1371 0.950 . S
C1383 C1379 1.393 . S
C1383 C1382 1.391 . S
C1384 H1374 0.950 . S
C1384 C1385 1.386 . S
C1384 C1386 1.391 . S
C1385 C1384 1.386 . S
C1385 C1389 1.393 . S
C1386 H1375 0.950 . S
C1386 C1384 1.391 . S
C1386 C1387 1.400 . S
C1387 C1381 1.491 . S
C1387 C1386 1.400 . S
C1387 C1388 1.398 . S
C1388 H1376 0.950 . S
C1388 C1387 1.398 . S
C1388 C1389 1.391 . S
C1389 H1377 0.950 . S
C1389 C1385 1.393 . S
C1389 C1388 1.391 . S
H1390 C1398 0.950 . S
H1391 C1403 0.950 . S
H1392 C1400 0.950 . S
H1393 C1402 0.950 . S
H1394 C1404 0.950 . S
H1395 C1406 0.950 . S
H1396 C1408 0.950 . S
H1397 C1409 0.950 . S
C1398 H1390 0.950 . S
C1398 C1399 1.386 . S
C1398 C1400 1.391 . S
C1399 C1398 1.386 . S
C1399 C1403 1.393 . S
C1400 H1392 0.950 . S
C1400 C1398 1.391 . S
C1400 C1401 1.400 . S
C1401 C1400 1.400 . S
C1401 C1402 1.398 . S
C1401 C1407 1.491 . S
C1402 H1393 0.950 . S
C1402 C1401 1.398 . S
C1402 C1403 1.391 . S
C1403 H1391 0.950 . S
C1403 C1399 1.393 . S
C1403 C1402 1.391 . S
C1404 H1394 0.950 . S
C1404 C1405 1.386 . S
C1404 C1406 1.391 . S
C1405 C1404 1.386 . S
C1405 C1409 1.393 . S
C1406 H1395 0.950 . S
C1406 C1404 1.391 . S
C1406 C1407 1.400 . S
C1407 C1401 1.491 . S
C1407 C1406 1.400 . S
C1407 C1408 1.398 . S
C1408 H1396 0.950 . S
C1408 C1407 1.398 . S
C1408 C1409 1.391 . S
C1409 H1397 0.950 . S
C1409 C1405 1.393 . S
C1409 C1408 1.391 . S
H1410 C1418 0.950 1_554 S
H1411 C1423 0.950 . S
H1412 C1420 0.950 . S
H1413 C1422 0.950 . S
H1414 C1424 0.950 . S
H1415 C1426 0.950 . S
H1416 C1428 0.950 . S
H1417 C1429 0.950 . S
C1418 H1410 0.950 1_556 S
C1418 C1419 1.386 . S
C1418 C1420 1.391 . S
C1419 C1418 1.386 . S
C1419 C1423 1.393 . S
C1420 H1412 0.950 . S
C1420 C1418 1.391 . S
C1420 C1421 1.400 . S
C1421 C1420 1.400 . S
C1421 C1422 1.398 . S
C1421 C1427 1.491 . S
C1422 H1413 0.950 . S
C1422 C1421 1.398 . S
C1422 C1423 1.391 . S
C1423 H1411 0.950 . S
C1423 C1419 1.393 . S
C1423 C1422 1.391 . S
C1424 H1414 0.950 . S
C1424 C1425 1.386 . S
C1424 C1426 1.391 . S
C1425 C1424 1.386 . S
C1425 C1429 1.393 . S
C1426 H1415 0.950 . S
C1426 C1424 1.391 . S
C1426 C1427 1.400 . S
C1427 C1421 1.491 . S
C1427 C1426 1.400 . S
C1427 C1428 1.398 . S
C1428 H1416 0.950 . S
C1428 C1427 1.398 . S
C1428 C1429 1.391 . S
C1429 H1417 0.950 . S
C1429 C1425 1.393 . S
C1429 C1428 1.391 . S
H1430 C1438 0.950 . S
H1431 C1443 0.950 . S
H1432 C1440 0.950 . S
H1433 C1442 0.950 . S
H1434 C1444 0.950 . S
H1435 C1446 0.950 . S
H1436 C1448 0.950 . S
H1437 C1449 0.950 . S
C1438 H1430 0.950 . S
C1438 C1439 1.386 . S
C1438 C1440 1.391 . S
C1439 C1438 1.386 . S
C1439 C1443 1.393 . S
C1440 H1432 0.950 . S
C1440 C1438 1.391 . S
C1440 C1441 1.400 . S
C1441 C1440 1.400 . S
C1441 C1442 1.398 . S
C1441 C1447 1.491 . S
C1442 H1433 0.950 . S
C1442 C1441 1.398 . S
C1442 C1443 1.391 . S
C1443 H1431 0.950 . S
C1443 C1439 1.393 . S
C1443 C1442 1.391 . S
C1444 H1434 0.950 . S
C1444 C1445 1.386 . S
C1444 C1446 1.391 . S
C1445 C1444 1.386 . S
C1445 C1449 1.393 . S
C1446 H1435 0.950 . S
C1446 C1444 1.391 . S
C1446 C1447 1.400 . S
C1447 C1441 1.491 . S
C1447 C1446 1.400 . S
C1447 C1448 1.398 . S
C1448 H1436 0.950 . S
C1448 C1447 1.398 . S
C1448 C1449 1.391 . S
C1449 H1437 0.950 . S
C1449 C1445 1.393 . S
C1449 C1448 1.391 . S
H1450 C1458 0.950 1_554 S
H1451 C1463 0.950 . S
H1452 C1460 0.950 . S
H1453 C1462 0.950 . S
H1454 C1464 0.950 . S
H1455 C1466 0.950 . S
H1456 C1468 0.950 . S
H1457 C1469 0.950 . S
C1458 H1450 0.950 1_556 S
C1458 C1459 1.386 . S
C1458 C1460 1.391 . S
C1459 C1458 1.386 . S
C1459 C1463 1.393 . S
C1460 H1452 0.950 . S
C1460 C1458 1.391 . S
C1460 C1461 1.400 . S
C1461 C1460 1.400 . S
C1461 C1462 1.398 . S
C1461 C1467 1.491 . S
C1462 H1453 0.950 . S
C1462 C1461 1.398 . S
C1462 C1463 1.391 . S
C1463 H1451 0.950 . S
C1463 C1459 1.393 . S
C1463 C1462 1.391 . S
C1464 H1454 0.950 . S
C1464 C1465 1.386 . S
C1464 C1466 1.391 . S
C1465 C1464 1.386 . S
C1465 C1469 1.393 . S
C1466 H1455 0.950 . S
C1466 C1464 1.391 . S
C1466 C1467 1.400 . S
C1467 C1461 1.491 . S
C1467 C1466 1.400 . S
C1467 C1468 1.398 . S
C1468 H1456 0.950 . S
C1468 C1467 1.398 . S
C1468 C1469 1.391 . S
C1469 H1457 0.950 . S
C1469 C1465 1.393 . S
C1469 C1468 1.391 . S
H1470 C1478 0.950 . S
H1471 C1483 0.950 . S
H1472 C1480 0.950 . S
H1473 C1482 0.950 . S
H1474 C1484 0.950 . S
H1475 C1486 0.950 . S
H1476 C1488 0.950 . S
H1477 C1489 0.950 . S
C1478 H1470 0.950 . S
C1478 C1479 1.386 . S
C1478 C1480 1.391 . S
C1479 C1478 1.386 . S
C1479 C1483 1.393 . S
C1480 H1472 0.950 . S
C1480 C1478 1.391 . S
C1480 C1481 1.400 . S
C1481 C1480 1.400 . S
C1481 C1482 1.398 . S
C1481 C1487 1.491 . S
C1482 H1473 0.950 . S
C1482 C1481 1.398 . S
C1482 C1483 1.391 . S
C1483 H1471 0.950 . S
C1483 C1479 1.393 . S
C1483 C1482 1.391 . S
C1484 H1474 0.950 . S
C1484 C1485 1.386 . S
C1484 C1486 1.391 . S
C1485 C1484 1.386 . S
C1485 C1489 1.393 . S
C1486 H1475 0.950 . S
C1486 C1484 1.391 . S
C1486 C1487 1.400 . S
C1487 C1481 1.491 . S
C1487 C1486 1.400 . S
C1487 C1488 1.398 . S
C1488 H1476 0.950 . S
C1488 C1487 1.398 . S
C1488 C1489 1.391 . S
C1489 H1477 0.950 . S
C1489 C1485 1.393 . S
C1489 C1488 1.391 . S
H1490 C1498 0.950 . S
H1491 C1503 0.950 . S
H1492 C1500 0.950 . S
H1493 C1502 0.950 . S
H1494 C1504 0.950 . S
H1495 C1506 0.950 . S
H1496 C1508 0.950 . S
H1497 C1509 0.950 . S
C1498 H1490 0.950 . S
C1498 C1499 1.386 . S
C1498 C1500 1.391 . S
C1499 C1498 1.386 . S
C1499 C1503 1.393 . S
C1500 H1492 0.950 . S
C1500 C1498 1.391 . S
C1500 C1501 1.400 . S
C1501 C1500 1.400 . S
C1501 C1502 1.398 . S
C1501 C1507 1.491 . S
C1502 H1493 0.950 . S
C1502 C1501 1.398 . S
C1502 C1503 1.391 . S
C1503 H1491 0.950 . S
C1503 C1499 1.393 . S
C1503 C1502 1.391 . S
C1504 H1494 0.950 . S
C1504 C1505 1.386 . S
C1504 C1506 1.391 . S
C1505 C1504 1.386 . S
C1505 C1509 1.393 . S
C1506 H1495 0.950 . S
C1506 C1504 1.391 . S
C1506 C1507 1.400 . S
C1507 C1501 1.491 . S
C1507 C1506 1.400 . S
C1507 C1508 1.398 . S
C1508 H1496 0.950 . S
C1508 C1507 1.398 . S
C1508 C1509 1.391 . S
C1509 H1497 0.950 . S
C1509 C1505 1.393 . S
C1509 C1508 1.391 . S
H1510 C1518 0.950 . S
H1511 C1523 0.950 . S
H1512 C1520 0.950 . S
H1513 C1522 0.950 . S
H1514 C1524 0.950 . S
H1515 C1526 0.950 . S
H1516 C1528 0.950 . S
H1517 C1529 0.950 . S
C1518 H1510 0.950 . S
C1518 C1519 1.386 . S
C1518 C1520 1.391 . S
C1519 C1518 1.386 . S
C1519 C1523 1.393 . S
C1520 H1512 0.950 . S
C1520 C1518 1.391 . S
C1520 C1521 1.400 . S
C1521 C1520 1.400 . S
C1521 C1522 1.398 . S
C1521 C1527 1.491 . S
C1522 H1513 0.950 . S
C1522 C1521 1.398 . S
C1522 C1523 1.391 . S
C1523 H1511 0.950 . S
C1523 C1519 1.393 . S
C1523 C1522 1.391 . S
C1524 H1514 0.950 . S
C1524 C1525 1.386 . S
C1524 C1526 1.391 . S
C1525 C1524 1.386 . S
C1525 C1529 1.393 . S
C1526 H1515 0.950 . S
C1526 C1524 1.391 . S
C1526 C1527 1.400 . S
C1527 C1521 1.491 . S
C1527 C1526 1.400 . S
C1527 C1528 1.398 . S
C1528 H1516 0.950 . S
C1528 C1527 1.398 . S
C1528 C1529 1.391 . S
C1529 H1517 0.950 . S
C1529 C1525 1.393 . S
C1529 C1528 1.391 . S
H1530 C1538 0.950 . S
H1531 C1543 0.950 . S
H1532 C1540 0.950 . S
H1533 C1542 0.950 . S
H1534 C1544 0.950 . S
H1535 C1546 0.950 . S
H1536 C1548 0.950 . S
H1537 C1549 0.950 . S
C1538 H1530 0.950 . S
C1538 C1539 1.386 . S
C1538 C1540 1.391 . S
C1539 C1538 1.386 . S
C1539 C1543 1.393 . S
C1540 H1532 0.950 . S
C1540 C1538 1.391 . S
C1540 C1541 1.400 . S
C1541 C1540 1.400 . S
C1541 C1542 1.398 . S
C1541 C1547 1.491 . S
C1542 H1533 0.950 . S
C1542 C1541 1.398 . S
C1542 C1543 1.391 . S
C1543 H1531 0.950 . S
C1543 C1539 1.393 . S
C1543 C1542 1.391 . S
C1544 H1534 0.950 . S
C1544 C1545 1.386 . S
C1544 C1546 1.391 . S
C1545 C1544 1.386 . S
C1545 C1549 1.393 . S
C1546 H1535 0.950 . S
C1546 C1544 1.391 . S
C1546 C1547 1.400 . S
C1547 C1541 1.491 . S
C1547 C1546 1.400 . S
C1547 C1548 1.398 . S
C1548 H1536 0.950 . S
C1548 C1547 1.398 . S
C1548 C1549 1.391 . S
C1549 H1537 0.950 . S
C1549 C1545 1.393 . S
C1549 C1548 1.391 . S
H1550 C1558 0.950 . S
H1551 C1563 0.950 . S
H1552 C1560 0.950 . S
H1553 C1562 0.950 . S
H1554 C1564 0.950 . S
H1555 C1566 0.950 . S
H1556 C1568 0.950 . S
H1557 C1569 0.950 . S
C1558 H1550 0.950 . S
C1558 C1559 1.386 . S
C1558 C1560 1.391 . S
C1559 C1558 1.386 . S
C1559 C1563 1.393 . S
C1560 H1552 0.950 . S
C1560 C1558 1.391 . S
C1560 C1561 1.400 . S
C1561 C1560 1.400 . S
C1561 C1562 1.398 . S
C1561 C1567 1.491 . S
C1562 H1553 0.950 . S
C1562 C1561 1.398 . S
C1562 C1563 1.391 . S
C1563 H1551 0.950 . S
C1563 C1559 1.393 . S
C1563 C1562 1.391 . S
C1564 H1554 0.950 . S
C1564 C1565 1.386 . S
C1564 C1566 1.391 . S
C1565 C1564 1.386 . S
C1565 C1569 1.393 . S
C1566 H1555 0.950 . S
C1566 C1564 1.391 . S
C1566 C1567 1.400 . S
C1567 C1561 1.491 . S
C1567 C1566 1.400 . S
C1567 C1568 1.398 . S
C1568 H1556 0.950 . S
C1568 C1567 1.398 . S
C1568 C1569 1.391 . S
C1569 H1557 0.950 . S
C1569 C1565 1.393 . S
C1569 C1568 1.391 . S
H1570 C1578 0.950 . S
H1571 C1583 0.950 . S
H1572 C1580 0.950 . S
H1573 C1582 0.950 . S
H1574 C1584 0.950 . S
H1575 C1586 0.950 . S
H1576 C1588 0.950 . S
H1577 C1589 0.950 . S
C1578 H1570 0.950 . S
C1578 C1579 1.386 . S
C1578 C1580 1.391 . S
C1579 C1578 1.386 . S
C1579 C1583 1.393 . S
C1580 H1572 0.950 . S
C1580 C1578 1.391 . S
C1580 C1581 1.400 . S
C1581 C1580 1.400 . S
C1581 C1582 1.398 . S
C1581 C1587 1.491 . S
C1582 H1573 0.950 . S
C1582 C1581 1.398 . S
C1582 C1583 1.391 . S
C1583 H1571 0.950 . S
C1583 C1579 1.393 . S
C1583 C1582 1.391 . S
C1584 H1574 0.950 . S
C1584 C1585 1.386 . S
C1584 C1586 1.391 . S
C1585 C1584 1.386 . S
C1585 C1589 1.393 . S
C1586 H1575 0.950 . S
C1586 C1584 1.391 . S
C1586 C1587 1.400 . S
C1587 C1581 1.491 . S
C1587 C1586 1.400 . S
C1587 C1588 1.398 . S
C1588 H1576 0.950 . S
C1588 C1587 1.398 . S
C1588 C1589 1.391 . S
C1589 H1577 0.950 . S
C1589 C1585 1.393 . S
C1589 C1588 1.391 . S
H1590 C1598 0.950 . S
H1591 C1603 0.950 . S
H1592 C1600 0.950 . S
H1593 C1602 0.950 . S
H1594 C1604 0.950 . S
H1595 C1606 0.950 . S
H1596 C1608 0.950 . S
H1597 C1609 0.950 . S
C1598 H1590 0.950 . S
C1598 C1599 1.386 . S
C1598 C1600 1.391 . S
C1599 C1598 1.386 . S
C1599 C1603 1.393 . S
C1600 H1592 0.950 . S
C1600 C1598 1.391 . S
C1600 C1601 1.400 . S
C1601 C1600 1.400 . S
C1601 C1602 1.398 . S
C1601 C1607 1.491 . S
C1602 H1593 0.950 . S
C1602 C1601 1.398 . S
C1602 C1603 1.391 . S
C1603 H1591 0.950 . S
C1603 C1599 1.393 . S
C1603 C1602 1.391 . S
C1604 H1594 0.950 . S
C1604 C1605 1.386 . S
C1604 C1606 1.391 . S
C1605 C1604 1.386 . S
C1605 C1609 1.393 . S
C1606 H1595 0.950 . S
C1606 C1604 1.391 . S
C1606 C1607 1.400 . S
C1607 C1601 1.491 . S
C1607 C1606 1.400 . S
C1607 C1608 1.398 . S
C1608 H1596 0.950 . S
C1608 C1607 1.398 . S
C1608 C1609 1.391 . S
C1609 H1597 0.950 . S
C1609 C1605 1.393 . S
C1609 C1608 1.391 . S
H1610 C1618 0.950 . S
H1611 C1623 0.950 . S
H1612 C1620 0.950 . S
H1613 C1622 0.950 . S
H1614 C1624 0.950 . S
H1615 C1626 0.950 . S
H1616 C1628 0.950 . S
H1617 C1629 0.950 . S
C1618 H1610 0.950 . S
C1618 C1619 1.386 . S
C1618 C1620 1.391 . S
C1619 C1618 1.386 . S
C1619 C1623 1.393 . S
C1620 H1612 0.950 . S
C1620 C1618 1.391 . S
C1620 C1621 1.400 . S
C1621 C1620 1.400 . S
C1621 C1622 1.398 . S
C1621 C1627 1.491 . S
C1622 H1613 0.950 . S
C1622 C1621 1.398 . S
C1622 C1623 1.391 . S
C1623 H1611 0.950 . S
C1623 C1619 1.393 . S
C1623 C1622 1.391 . S
C1624 H1614 0.950 . S
C1624 C1625 1.386 . S
C1624 C1626 1.391 . S
C1625 C1624 1.386 . S
C1625 C1629 1.393 . S
C1626 H1615 0.950 . S
C1626 C1624 1.391 . S
C1626 C1627 1.400 . S
C1627 C1621 1.491 . S
C1627 C1626 1.400 . S
C1627 C1628 1.398 . S
C1628 H1616 0.950 . S
C1628 C1627 1.398 . S
C1628 C1629 1.391 . S
C1629 H1617 0.950 . S
C1629 C1625 1.393 . S
C1629 C1628 1.391 . S
H1630 C1638 0.950 . S
H1631 C1643 0.950 . S
H1632 C1640 0.950 . S
H1633 C1642 0.950 . S
H1634 C1644 0.950 . S
H1635 C1646 0.950 . S
H1636 C1648 0.950 . S
H1637 C1649 0.950 . S
C1638 H1630 0.950 . S
C1638 C1639 1.386 . S
C1638 C1640 1.391 . S
C1639 C1638 1.386 . S
C1639 C1643 1.393 . S
C1640 H1632 0.950 . S
C1640 C1638 1.391 . S
C1640 C1641 1.400 . S
C1641 C1640 1.400 . S
C1641 C1642 1.398 . S
C1641 C1647 1.491 . S
C1642 H1633 0.950 . S
C1642 C1641 1.398 . S
C1642 C1643 1.391 . S
C1643 H1631 0.950 . S
C1643 C1639 1.393 . S
C1643 C1642 1.391 . S
C1644 H1634 0.950 . S
C1644 C1645 1.386 . S
C1644 C1646 1.391 . S
C1645 C1644 1.386 . S
C1645 C1649 1.393 . S
C1646 H1635 0.950 . S
C1646 C1644 1.391 . S
C1646 C1647 1.400 . S
C1647 C1641 1.491 . S
C1647 C1646 1.400 . S
C1647 C1648 1.398 . S
C1648 H1636 0.950 . S
C1648 C1647 1.398 . S
C1648 C1649 1.391 . S
C1649 H1637 0.950 . S
C1649 C1645 1.393 . S
C1649 C1648 1.391 . S
H1650 C1658 0.950 . S
H1651 C1663 0.950 . S
H1652 C1660 0.950 . S
H1653 C1662 0.950 . S
H1654 C1664 0.950 . S
H1655 C1666 0.950 . S
H1656 C1668 0.950 . S
H1657 C1669 0.950 . S
C1658 H1650 0.950 . S
C1658 C1659 1.386 1_655 S
C1658 C1660 1.391 . S
C1659 C1658 1.386 1_455 S
C1659 C1663 1.393 . S
C1660 H1652 0.950 . S
C1660 C1658 1.391 . S
C1660 C1661 1.400 1_655 S
C1661 C1660 1.400 1_455 S
C1661 C1662 1.398 . S
C1661 C1667 1.491 . S
C1662 H1653 0.950 . S
C1662 C1661 1.398 . S
C1662 C1663 1.391 . S
C1663 H1651 0.950 . S
C1663 C1659 1.393 . S
C1663 C1662 1.391 . S
C1664 H1654 0.950 . S
C1664 C1665 1.386 . S
C1664 C1666 1.391 . S
C1665 C1664 1.386 . S
C1665 C1669 1.393 1_455 S
C1666 H1655 0.950 . S
C1666 C1664 1.391 . S
C1666 C1667 1.400 . S
C1667 C1661 1.491 . S
C1667 C1666 1.400 . S
C1667 C1668 1.398 1_455 S
C1668 H1656 0.950 . S
C1668 C1667 1.398 1_655 S
C1668 C1669 1.391 . S
C1669 H1657 0.950 . S
C1669 C1665 1.393 1_655 S
C1669 C1668 1.391 . S
H1670 C1678 0.950 . S
H1671 C1683 0.950 . S
H1672 C1680 0.950 . S
H1673 C1682 0.950 . S
H1674 C1684 0.950 . S
H1675 C1686 0.950 . S
H1676 C1688 0.950 . S
H1677 C1689 0.950 . S
C1678 H1670 0.950 . S
C1678 C1679 1.386 . S
C1678 C1680 1.391 . S
C1679 C1678 1.386 . S
C1679 C1683 1.393 . S
C1680 H1672 0.950 . S
C1680 C1678 1.391 . S
C1680 C1681 1.400 . S
C1681 C1680 1.400 . S
C1681 C1682 1.398 . S
C1681 C1687 1.491 . S
C1682 H1673 0.950 . S
C1682 C1681 1.398 . S
C1682 C1683 1.391 . S
C1683 H1671 0.950 . S
C1683 C1679 1.393 . S
C1683 C1682 1.391 . S
C1684 H1674 0.950 . S
C1684 C1685 1.386 . S
C1684 C1686 1.391 . S
C1685 C1684 1.386 . S
C1685 C1689 1.393 . S
C1686 H1675 0.950 . S
C1686 C1684 1.391 . S
C1686 C1687 1.400 . S
C1687 C1681 1.491 . S
C1687 C1686 1.400 . S
C1687 C1688 1.398 . S
C1688 H1676 0.950 . S
C1688 C1687 1.398 . S
C1688 C1689 1.391 . S
C1689 H1677 0.950 . S
C1689 C1685 1.393 . S
C1689 C1688 1.391 . S
H1690 C1698 0.950 . S
H1691 C1703 0.950 . S
H1692 C1700 0.950 . S
H1693 C1702 0.950 . S
H1694 C1704 0.950 . S
H1695 C1706 0.950 . S
H1696 C1708 0.950 . S
H1697 C1709 0.950 . S
C1698 H1690 0.950 . S
C1698 C1699 1.386 1_545 S
C1698 C1700 1.391 . S
C1699 C1698 1.386 1_565 S
C1699 C1703 1.393 . S
C1700 H1692 0.950 . S
C1700 C1698 1.391 . S
C1700 C1701 1.400 1_545 S
C1701 C1700 1.400 1_565 S
C1701 C1702 1.398 . S
C1701 C1707 1.491 . S
C1702 H1693 0.950 . S
C1702 C1701 1.398 . S
C1702 C1703 1.391 . S
C1703 H1691 0.950 . S
C1703 C1699 1.393 . S
C1703 C1702 1.391 . S
C1704 H1694 0.950 . S
C1704 C1705 1.386 . S
C1704 C1706 1.391 . S
C1705 C1704 1.386 . S
C1705 C1709 1.393 1_565 S
C1706 H1695 0.950 . S
C1706 C1704 1.391 . S
C1706 C1707 1.400 . S
C1707 C1701 1.491 . S
C1707 C1706 1.400 . S
C1707 C1708 1.398 1_565 S
C1708 H1696 0.950 . S
C1708 C1707 1.398 1_545 S
C1708 C1709 1.391 . S
C1709 H1697 0.950 . S
C1709 C1705 1.393 1_545 S
C1709 C1708 1.391 . S
H1710 C1718 0.950 . S
H1711 C1723 0.950 . S
H1712 C1720 0.950 . S
H1713 C1722 0.950 . S
H1714 C1724 0.950 . S
H1715 C1726 0.950 . S
H1716 C1728 0.950 . S
H1717 C1729 0.950 . S
C1718 H1710 0.950 . S
C1718 C1719 1.386 . S
C1718 C1720 1.391 . S
C1719 C1718 1.386 . S
C1719 C1723 1.393 1_565 S
C1720 H1712 0.950 . S
C1720 C1718 1.391 . S
C1720 C1721 1.400 . S
C1721 C1720 1.400 . S
C1721 C1722 1.398 1_565 S
C1721 C1727 1.491 . S
C1722 H1713 0.950 . S
C1722 C1721 1.398 1_545 S
C1722 C1723 1.391 . S
C1723 H1711 0.950 . S
C1723 C1719 1.393 1_545 S
C1723 C1722 1.391 . S
C1724 H1714 0.950 . S
C1724 C1725 1.366 1_545 S
C1724 C1726 1.391 . S
C1725 C1724 1.366 1_565 S
C1725 C1729 1.446 . S
C1726 H1715 0.950 . S
C1726 C1724 1.391 . S
C1726 C1727 1.400 1_545 S
C1727 C1721 1.491 . S
C1727 C1726 1.400 1_565 S
C1727 C1728 1.398 . S
C1728 H1716 0.950 . S
C1728 C1727 1.398 . S
C1728 C1729 1.391 . S
C1729 H1717 0.950 . S
C1729 C1725 1.446 . S
C1729 C1728 1.391 . S
H1730 C1738 0.950 . S
H1731 C1743 0.950 . S
H1732 C1740 0.950 . S
H1733 C1742 0.950 . S
H1734 C1744 0.950 . S
H1735 C1746 0.950 . S
H1736 C1748 0.950 . S
H1737 C1749 0.950 . S
C1738 H1730 0.950 . S
C1738 C1739 1.386 1_655 S
C1738 C1740 1.391 . S
C1739 C1738 1.386 1_455 S
C1739 C1743 1.393 . S
C1740 H1732 0.950 . S
C1740 C1738 1.391 . S
C1740 C1741 1.400 1_655 S
C1741 C1740 1.400 1_455 S
C1741 C1742 1.398 . S
C1741 C1747 1.491 . S
C1742 H1733 0.950 . S
C1742 C1741 1.398 . S
C1742 C1743 1.391 . S
C1743 H1731 0.950 . S
C1743 C1739 1.393 . S
C1743 C1742 1.391 . S
C1744 H1734 0.950 . S
C1744 C1745 1.386 . S
C1744 C1746 1.391 . S
C1745 C1744 1.386 . S
C1745 C1749 1.393 1_455 S
C1746 H1735 0.950 . S
C1746 C1744 1.391 . S
C1746 C1747 1.400 . S
C1747 C1741 1.491 . S
C1747 C1746 1.400 . S
C1747 C1748 1.398 1_455 S
C1748 H1736 0.950 . S
C1748 C1747 1.398 1_655 S
C1748 C1749 1.391 . S
C1749 H1737 0.950 . S
C1749 C1745 1.393 1_655 S
C1749 C1748 1.391 . S
H1750 C1758 0.950 . S
H1751 C1763 0.950 . S
H1752 C1760 0.950 . S
H1753 C1762 0.950 . S
H1754 C1764 0.950 . S
H1755 C1766 0.950 . S
H1756 C1768 0.950 . S
H1757 C1769 0.950 . S
C1758 H1750 0.950 . S
C1758 C1759 1.386 . S
C1758 C1760 1.391 . S
C1759 C1758 1.386 . S
C1759 C1763 1.393 . S
C1760 H1752 0.950 . S
C1760 C1758 1.391 . S
C1760 C1761 1.400 . S
C1761 C1760 1.400 . S
C1761 C1762 1.398 . S
C1761 C1767 1.491 . S
C1762 H1753 0.950 . S
C1762 C1761 1.398 . S
C1762 C1763 1.391 . S
C1763 H1751 0.950 . S
C1763 C1759 1.393 . S
C1763 C1762 1.391 . S
C1764 H1754 0.950 . S
C1764 C1765 1.386 . S
C1764 C1766 1.391 . S
C1765 C1764 1.386 . S
C1765 C1769 1.393 . S
C1766 H1755 0.950 . S
C1766 C1764 1.391 . S
C1766 C1767 1.400 . S
C1767 C1761 1.491 . S
C1767 C1766 1.400 . S
C1767 C1768 1.398 . S
C1768 H1756 0.950 . S
C1768 C1767 1.398 . S
C1768 C1769 1.391 . S
C1769 H1757 0.950 . S
C1769 C1765 1.393 . S
C1769 C1768 1.391 . S
H1770 C1778 0.950 . S
H1771 C1783 0.950 . S
H1772 C1780 0.950 . S
H1773 C1782 0.950 . S
H1774 C1784 0.950 . S
H1775 C1786 0.950 . S
H1776 C1788 0.950 . S
H1777 C1789 0.950 . S
C1778 H1770 0.950 . S
C1778 C1779 1.386 . S
C1778 C1780 1.391 . S
C1779 C1778 1.386 . S
C1779 C1783 1.393 . S
C1780 H1772 0.950 . S
C1780 C1778 1.391 . S
C1780 C1781 1.400 . S
C1781 C1780 1.400 . S
C1781 C1782 1.398 . S
C1781 C1787 1.491 . S
C1782 H1773 0.950 . S
C1782 C1781 1.398 . S
C1782 C1783 1.391 . S
C1783 H1771 0.950 . S
C1783 C1779 1.393 . S
C1783 C1782 1.391 . S
C1784 H1774 0.950 . S
C1784 C1785 1.386 . S
C1784 C1786 1.391 . S
C1785 C1784 1.386 . S
C1785 C1789 1.393 . S
C1786 H1775 0.950 . S
C1786 C1784 1.391 . S
C1786 C1787 1.400 . S
C1787 C1781 1.491 . S
C1787 C1786 1.400 . S
C1787 C1788 1.398 . S
C1788 H1776 0.950 . S
C1788 C1787 1.398 . S
C1788 C1789 1.391 . S
C1789 H1777 0.950 . S
C1789 C1785 1.393 . S
C1789 C1788 1.391 . S
H1790 C1798 0.950 . S
H1791 C1803 0.950 . S
H1792 C1800 0.950 . S
H1793 C1802 0.950 . S
H1794 C1804 0.950 . S
H1795 C1806 0.950 . S
H1796 C1808 0.950 . S
H1797 C1809 0.950 . S
C1798 H1790 0.950 . S
C1798 C1799 1.386 . S
C1798 C1800 1.391 . S
C1799 C1798 1.386 . S
C1799 C1803 1.393 . S
C1800 H1792 0.950 . S
C1800 C1798 1.391 . S
C1800 C1801 1.400 . S
C1801 C1800 1.400 . S
C1801 C1802 1.398 . S
C1801 C1807 1.491 . S
C1802 H1793 0.950 . S
C1802 C1801 1.398 . S
C1802 C1803 1.391 . S
C1803 H1791 0.950 . S
C1803 C1799 1.393 . S
C1803 C1802 1.391 . S
C1804 H1794 0.950 . S
C1804 C1805 1.386 . S
C1804 C1806 1.391 . S
C1805 C1804 1.386 . S
C1805 C1809 1.393 . S
C1806 H1795 0.950 . S
C1806 C1804 1.391 . S
C1806 C1807 1.400 . S
C1807 C1801 1.491 . S
C1807 C1806 1.400 . S
C1807 C1808 1.398 . S
C1808 H1796 0.950 . S
C1808 C1807 1.398 . S
C1808 C1809 1.391 . S
C1809 H1797 0.950 . S
C1809 C1805 1.393 . S
C1809 C1808 1.391 . S
H1810 C1818 0.950 . S
H1811 C1823 0.950 . S
H1812 C1820 0.950 . S
H1813 C1822 0.950 . S
H1814 C1824 0.950 . S
H1815 C1826 0.950 . S
H1816 C1828 0.950 . S
H1817 C1829 0.950 . S
C1818 H1810 0.950 . S
C1818 C1819 1.386 . S
C1818 C1820 1.391 . S
C1819 C1818 1.386 . S
C1819 C1823 1.393 . S
C1820 H1812 0.950 . S
C1820 C1818 1.391 . S
C1820 C1821 1.400 . S
C1821 C1820 1.400 . S
C1821 C1822 1.398 . S
C1821 C1827 1.491 . S
C1822 H1813 0.950 . S
C1822 C1821 1.398 . S
C1822 C1823 1.391 . S
C1823 H1811 0.950 . S
C1823 C1819 1.393 . S
C1823 C1822 1.391 . S
C1824 H1814 0.950 . S
C1824 C1825 1.386 . S
C1824 C1826 1.391 . S
C1825 C1824 1.386 . S
C1825 C1829 1.393 . S
C1826 H1815 0.950 . S
C1826 C1824 1.391 . S
C1826 C1827 1.400 . S
C1827 C1821 1.491 . S
C1827 C1826 1.400 . S
C1827 C1828 1.398 . S
C1828 H1816 0.950 . S
C1828 C1827 1.398 . S
C1828 C1829 1.391 . S
C1829 H1817 0.950 . S
C1829 C1825 1.393 . S
C1829 C1828 1.391 . S
H1830 C1838 0.940 1_565 S
H1831 C1843 0.950 . S
H1832 C1840 0.994 . S
H1833 C1842 0.950 . S
H1834 C1844 0.950 . S
H1835 C1846 0.950 . S
H1836 C1848 0.950 . S
H1837 C1849 0.950 . S
C1838 H1830 0.940 1_545 S
C1838 C1839 1.414 . S
C1838 C1840 1.348 1_545 S
C1839 C1838 1.414 . S
C1839 C1843 1.393 . S
C1840 H1832 0.994 . S
C1840 C1838 1.348 1_565 S
C1840 C1841 1.386 1_565 S
C1841 C1840 1.386 1_545 S
C1841 C1842 1.398 . S
C1841 C1847 1.491 . S
C1842 H1833 0.950 . S
C1842 C1841 1.398 . S
C1842 C1843 1.391 . S
C1843 H1831 0.950 . S
C1843 C1839 1.393 . S
C1843 C1842 1.391 . S
C1844 H1834 0.950 . S
C1844 C1845 1.386 . S
C1844 C1846 1.391 . S
C1845 C1844 1.386 . S
C1845 C1849 1.393 1_545 S
C1846 H1835 0.950 . S
C1846 C1844 1.391 . S
C1846 C1847 1.400 . S
C1847 C1841 1.491 . S
C1847 C1846 1.400 . S
C1847 C1848 1.398 1_545 S
C1848 H1836 0.950 . S
C1848 C1847 1.398 1_565 S
C1848 C1849 1.391 . S
C1849 H1837 0.950 . S
C1849 C1845 1.393 1_565 S
C1849 C1848 1.391 . S
H1850 C1858 0.950 1_455 S
H1851 C1863 0.950 . S
H1852 C1860 0.950 1_455 S
H1853 C1862 0.950 . S
H1854 C1864 0.950 . S
H1855 C1866 0.950 . S
H1856 C1868 0.950 . S
H1857 C1869 0.950 . S
C1858 H1850 0.950 1_655 S
C1858 C1859 1.386 . S
C1858 C1860 1.391 . S
C1859 C1858 1.386 . S
C1859 C1863 1.393 . S
C1860 H1852 0.950 1_655 S
C1860 C1858 1.391 . S
C1860 C1861 1.400 . S
C1861 C1860 1.400 . S
C1861 C1862 1.398 . S
C1861 C1867 1.491 . S
C1862 H1853 0.950 . S
C1862 C1861 1.398 . S
C1862 C1863 1.391 . S
C1863 H1851 0.950 . S
C1863 C1859 1.393 . S
C1863 C1862 1.391 . S
C1864 H1854 0.950 . S
C1864 C1865 1.386 . S
C1864 C1866 1.391 . S
C1865 C1864 1.386 . S
C1865 C1869 1.393 1_655 S
C1866 H1855 0.950 . S
C1866 C1864 1.391 . S
C1866 C1867 1.400 . S
C1867 C1861 1.491 . S
C1867 C1866 1.400 . S
C1867 C1868 1.398 1_655 S
C1868 H1856 0.950 . S
C1868 C1867 1.398 1_455 S
C1868 C1869 1.391 . S
C1869 H1857 0.950 . S
C1869 C1865 1.393 1_455 S
C1869 C1868 1.391 . S
H1870 C1878 0.950 . S
H1871 C1883 0.950 . S
H1872 C1880 0.950 . S
H1873 C1882 0.950 . S
H1874 C1884 0.950 . S
H1875 C1886 0.950 . S
H1876 C1888 0.950 . S
H1877 C1889 0.950 . S
C1878 H1870 0.950 . S
C1878 C1879 1.386 . S
C1878 C1880 1.391 . S
C1879 C1878 1.386 . S
C1879 C1883 1.393 . S
C1880 H1872 0.950 . S
C1880 C1878 1.391 . S
C1880 C1881 1.400 . S
C1881 C1880 1.400 . S
C1881 C1882 1.398 . S
C1881 C1887 1.491 . S
C1882 H1873 0.950 . S
C1882 C1881 1.398 . S
C1882 C1883 1.391 . S
C1883 H1871 0.950 . S
C1883 C1879 1.393 . S
C1883 C1882 1.391 . S
C1884 H1874 0.950 . S
C1884 C1885 1.386 . S
C1884 C1886 1.391 . S
C1885 C1884 1.386 . S
C1885 C1889 1.393 . S
C1886 H1875 0.950 . S
C1886 C1884 1.391 . S
C1886 C1887 1.400 . S
C1887 C1881 1.491 . S
C1887 C1886 1.400 . S
C1887 C1888 1.398 . S
C1888 H1876 0.950 . S
C1888 C1887 1.398 . S
C1888 C1889 1.391 . S
C1889 H1877 0.950 . S
C1889 C1885 1.393 . S
C1889 C1888 1.391 . S
H1890 C1898 0.950 . S
H1891 C1903 0.950 . S
H1892 C1900 0.950 . S
H1893 C1902 0.950 . S
H1894 C1904 0.950 . S
H1895 C1906 0.950 . S
H1896 C1908 0.950 . S
H1897 C1909 0.950 . S
C1898 H1890 0.950 . S
C1898 C1899 1.386 . S
C1898 C1900 1.391 . S
C1899 C1898 1.386 . S
C1899 C1903 1.393 . S
C1900 H1892 0.950 . S
C1900 C1898 1.391 . S
C1900 C1901 1.400 . S
C1901 C1900 1.400 . S
C1901 C1902 1.398 . S
C1901 C1907 1.491 . S
C1902 H1893 0.950 . S
C1902 C1901 1.398 . S
C1902 C1903 1.391 . S
C1903 H1891 0.950 . S
C1903 C1899 1.393 . S
C1903 C1902 1.391 . S
C1904 H1894 0.950 . S
C1904 C1905 1.386 . S
C1904 C1906 1.391 . S
C1905 C1904 1.386 . S
C1905 C1909 1.393 . S
C1906 H1895 0.950 . S
C1906 C1904 1.391 . S
C1906 C1907 1.400 . S
C1907 C1901 1.491 . S
C1907 C1906 1.400 . S
C1907 C1908 1.398 . S
C1908 H1896 0.950 . S
C1908 C1907 1.398 . S
C1908 C1909 1.391 . S
C1909 H1897 0.950 . S
C1909 C1905 1.393 . S
C1909 C1908 1.391 . S
H1910 C1918 0.950 . S
H1911 C1923 0.950 . S
H1912 C1920 0.950 . S
H1913 C1922 0.950 . S
H1914 C1924 0.950 . S
H1915 C1926 0.950 . S
H1916 C1928 0.950 . S
H1917 C1929 0.950 . S
C1918 H1910 0.950 . S
C1918 C1919 1.386 . S
C1918 C1920 1.391 . S
C1919 C1918 1.386 . S
C1919 C1923 1.393 . S
C1920 H1912 0.950 . S
C1920 C1918 1.391 . S
C1920 C1921 1.400 . S
C1921 C1920 1.400 . S
C1921 C1922 1.398 . S
C1921 C1927 1.491 . S
C1922 H1913 0.950 . S
C1922 C1921 1.398 . S
C1922 C1923 1.391 . S
C1923 H1911 0.950 . S
C1923 C1919 1.393 . S
C1923 C1922 1.391 . S
C1924 H1914 0.950 . S
C1924 C1925 1.386 . S
C1924 C1926 1.391 . S
C1925 C1924 1.386 . S
C1925 C1929 1.393 . S
C1926 H1915 0.950 . S
C1926 C1924 1.391 . S
C1926 C1927 1.400 . S
C1927 C1921 1.491 . S
C1927 C1926 1.400 . S
C1927 C1928 1.398 . S
C1928 H1916 0.950 . S
C1928 C1927 1.398 . S
C1928 C1929 1.391 . S
C1929 H1917 0.950 . S
C1929 C1925 1.393 . S
C1929 C1928 1.391 . S
H1930 C1938 0.950 . S
H1931 C1943 0.950 . S
H1932 C1940 0.950 . S
H1933 C1942 0.950 . S
H1934 C1944 0.950 . S
H1935 C1946 0.950 . S
H1936 C1948 0.950 . S
H1937 C1949 0.950 . S
C1938 H1930 0.950 . S
C1938 C1939 1.386 . S
C1938 C1940 1.391 . S
C1939 C1938 1.386 . S
C1939 C1943 1.393 . S
C1940 H1932 0.950 . S
C1940 C1938 1.391 . S
C1940 C1941 1.400 . S
C1941 C1940 1.400 . S
C1941 C1942 1.398 . S
C1941 C1947 1.491 . S
C1942 H1933 0.950 . S
C1942 C1941 1.398 . S
C1942 C1943 1.391 . S
C1943 H1931 0.950 . S
C1943 C1939 1.393 . S
C1943 C1942 1.391 . S
C1944 H1934 0.950 . S
C1944 C1945 1.386 . S
C1944 C1946 1.391 . S
C1945 C1944 1.386 . S
C1945 C1949 1.393 . S
C1946 H1935 0.950 . S
C1946 C1944 1.391 . S
C1946 C1947 1.400 . S
C1947 C1941 1.491 . S
C1947 C1946 1.400 . S
C1947 C1948 1.398 . S
C1948 H1936 0.950 . S
C1948 C1947 1.398 . S
C1948 C1949 1.391 . S
C1949 H1937 0.950 . S
C1949 C1945 1.393 . S
C1949 C1948 1.391 . S
H1950 C1958 0.950 . S
H1951 C1963 0.950 . S
H1952 C1960 0.950 . S
H1953 C1962 0.950 . S
H1954 C1964 0.950 . S
H1955 C1966 0.950 . S
H1956 C1968 0.950 . S
H1957 C1969 0.950 . S
C1958 H1950 0.950 . S
C1958 C1959 1.386 . S
C1958 C1960 1.391 . S
C1959 C1958 1.386 . S
C1959 C1963 1.393 . S
C1960 H1952 0.950 . S
C1960 C1958 1.391 . S
C1960 C1961 1.400 . S
C1961 C1960 1.400 . S
C1961 C1962 1.398 . S
C1961 C1967 1.491 . S
C1962 H1953 0.950 . S
C1962 C1961 1.398 . S
C1962 C1963 1.391 . S
C1963 H1951 0.950 . S
C1963 C1959 1.393 . S
C1963 C1962 1.391 . S
C1964 H1954 0.950 . S
C1964 C1965 1.386 . S
C1964 C1966 1.391 . S
C1965 C1964 1.386 . S
C1965 C1969 1.393 . S
C1966 H1955 0.950 . S
C1966 C1964 1.391 . S
C1966 C1967 1.400 . S
C1967 C1961 1.491 . S
C1967 C1966 1.400 . S
C1967 C1968 1.398 . S
C1968 H1956 0.950 . S
C1968 C1967 1.398 . S
C1968 C1969 1.391 . S
C1969 H1957 0.950 . S
C1969 C1965 1.393 . S
C1969 C1968 1.391 . S
H1970 C1978 0.950 . S
H1971 C1983 0.950 . S
H1972 C1980 0.950 . S
H1973 C1982 0.950 . S
H1974 C1984 0.950 . S
H1975 C1986 0.950 . S
H1976 C1988 0.950 . S
H1977 C1989 0.950 . S
C1978 H1970 0.950 . S
C1978 C1979 1.386 . S
C1978 C1980 1.391 . S
C1979 C1978 1.386 . S
C1979 C1983 1.393 . S
C1980 H1972 0.950 . S
C1980 C1978 1.391 . S
C1980 C1981 1.400 . S
C1981 C1980 1.400 . S
C1981 C1982 1.398 . S
C1981 C1987 1.491 . S
C1982 H1973 0.950 . S
C1982 C1981 1.398 . S
C1982 C1983 1.391 . S
C1983 H1971 0.950 . S
C1983 C1979 1.393 . S
C1983 C1982 1.391 . S
C1984 H1974 0.950 . S
C1984 C1985 1.386 . S
C1984 C1986 1.391 . S
C1985 C1984 1.386 . S
C1985 C1989 1.393 . S
C1986 H1975 0.950 . S
C1986 C1984 1.391 . S
C1986 C1987 1.400 . S
C1987 C1981 1.491 . S
C1987 C1986 1.400 . S
C1987 C1988 1.398 . S
C1988 H1976 0.950 . S
C1988 C1987 1.398 . S
C1988 C1989 1.391 . S
C1989 H1977 0.950 . S
C1989 C1985 1.393 . S
C1989 C1988 1.391 . S
H1990 C1998 0.950 . S
H1991 C2003 0.950 . S
H1992 C2000 0.950 . S
H1993 C2002 0.950 . S
H1994 C2004 0.950 . S
H1995 C2006 0.950 . S
H1996 C2008 0.950 . S
H1997 C2009 0.950 . S
C1998 H1990 0.950 . S
C1998 C1999 1.386 . S
C1998 C2000 1.391 . S
C1999 C1998 1.386 . S
C1999 C2003 1.393 . S
C2000 H1992 0.950 . S
C2000 C1998 1.391 . S
C2000 C2001 1.400 . S
C2001 C2000 1.400 . S
C2001 C2002 1.398 . S
C2001 C2007 1.491 . S
C2002 H1993 0.950 . S
C2002 C2001 1.398 . S
C2002 C2003 1.391 . S
C2003 H1991 0.950 . S
C2003 C1999 1.393 . S
C2003 C2002 1.391 . S
C2004 H1994 0.950 . S
C2004 C2005 1.386 . S
C2004 C2006 1.391 . S
C2005 C2004 1.386 . S
C2005 C2009 1.393 . S
C2006 H1995 0.950 . S
C2006 C2004 1.391 . S
C2006 C2007 1.400 . S
C2007 C2001 1.491 . S
C2007 C2006 1.400 . S
C2007 C2008 1.398 . S
C2008 H1996 0.950 . S
C2008 C2007 1.398 . S
C2008 C2009 1.391 . S
C2009 H1997 0.950 . S
C2009 C2005 1.393 . S
C2009 C2008 1.391 . S
H2010 C2018 0.950 . S
H2011 C2023 0.950 . S
H2012 C2020 0.950 . S
H2013 C2022 0.950 . S
H2014 C2024 0.950 . S
H2015 C2026 0.950 . S
H2016 C2028 0.950 . S
H2017 C2029 0.950 . S
C2018 H2010 0.950 . S
C2018 C2019 1.386 . S
C2018 C2020 1.391 . S
C2019 C2018 1.386 . S
C2019 C2023 1.393 1_655 S
C2020 H2012 0.950 . S
C2020 C2018 1.391 . S
C2020 C2021 1.400 . S
C2021 C2020 1.400 . S
C2021 C2022 1.398 1_655 S
C2021 C2027 1.491 . S
C2022 H2013 0.950 . S
C2022 C2021 1.398 1_455 S
C2022 C2023 1.391 . S
C2023 H2011 0.950 . S
C2023 C2019 1.393 1_455 S
C2023 C2022 1.391 . S
C2024 H2014 0.950 . S
C2024 C2025 1.386 1_455 S
C2024 C2026 1.391 . S
C2025 C2024 1.386 1_655 S
C2025 C2029 1.393 . S
C2026 H2015 0.950 . S
C2026 C2024 1.391 . S
C2026 C2027 1.400 1_455 S
C2027 C2021 1.491 . S
C2027 C2026 1.400 1_655 S
C2027 C2028 1.398 . S
C2028 H2016 0.950 . S
C2028 C2027 1.398 . S
C2028 C2029 1.391 . S
C2029 H2017 0.950 . S
C2029 C2025 1.393 . S
C2029 C2028 1.391 . S
H2030 C2038 0.950 . S
H2031 C2043 0.950 . S
H2032 C2040 0.950 . S
H2033 C2042 0.950 . S
H2034 C2044 0.950 . S
H2035 C2046 0.950 . S
H2036 C2048 0.950 . S
H2037 C2049 0.950 . S
C2038 H2030 0.950 . S
C2038 C2039 1.386 . S
C2038 C2040 1.391 . S
C2039 C2038 1.386 . S
C2039 C2043 1.393 . S
C2040 H2032 0.950 . S
C2040 C2038 1.391 . S
C2040 C2041 1.400 . S
C2041 C2040 1.400 . S
C2041 C2042 1.398 . S
C2041 C2047 1.491 . S
C2042 H2033 0.950 . S
C2042 C2041 1.398 . S
C2042 C2043 1.391 . S
C2043 H2031 0.950 . S
C2043 C2039 1.393 . S
C2043 C2042 1.391 . S
C2044 H2034 0.950 . S
C2044 C2045 1.386 . S
C2044 C2046 1.391 . S
C2045 C2044 1.386 . S
C2045 C2049 1.393 . S
C2046 H2035 0.950 . S
C2046 C2044 1.391 . S
C2046 C2047 1.400 . S
C2047 C2041 1.491 . S
C2047 C2046 1.400 . S
C2047 C2048 1.398 . S
C2048 H2036 0.950 . S
C2048 C2047 1.398 . S
C2048 C2049 1.391 . S
C2049 H2037 0.950 . S
C2049 C2045 1.393 . S
C2049 C2048 1.391 . S
H2050 C2058 0.950 . S
H2051 C2063 0.950 . S
H2052 C2060 0.950 . S
H2053 C2062 0.950 . S
H2054 C2064 0.950 . S
H2055 C2066 0.950 . S
H2056 C2068 0.950 . S
H2057 C2069 0.950 . S
C2058 H2050 0.950 . S
C2058 C2059 1.386 . S
C2058 C2060 1.391 . S
C2059 C2058 1.386 . S
C2059 C2063 1.393 1_545 S
C2060 H2052 0.950 . S
C2060 C2058 1.391 . S
C2060 C2061 1.400 . S
C2061 C2060 1.400 . S
C2061 C2062 1.398 1_545 S
C2061 C2067 1.491 . S
C2062 H2053 0.950 . S
C2062 C2061 1.398 1_565 S
C2062 C2063 1.391 . S
C2063 H2051 0.950 . S
C2063 C2059 1.393 1_565 S
C2063 C2062 1.391 . S
C2064 H2054 0.950 . S
C2064 C2065 1.386 1_565 S
C2064 C2066 1.391 . S
C2065 C2064 1.386 1_545 S
C2065 C2069 1.393 . S
C2066 H2055 0.950 . S
C2066 C2064 1.391 . S
C2066 C2067 1.400 1_565 S
C2067 C2061 1.491 . S
C2067 C2066 1.400 1_545 S
C2067 C2068 1.398 . S
C2068 H2056 0.950 . S
C2068 C2067 1.398 . S
C2068 C2069 1.391 . S
C2069 H2057 0.950 . S
C2069 C2065 1.393 . S
C2069 C2068 1.391 . S
C639 C8 1.554 . S
C645 C458 1.511 1_655 S
C659 C22 1.553 . S
C665 C471 1.513 . S
C685 C500 1.455 1_545 S
C679 C37 1.543 . S
C699 C36 1.537 . S
C705 C513 1.513 . S
C719 C9 1.556 1_455 S
C725 C534 1.521 . S
C739 C23 1.542 . S
C745 C563 1.485 . S
C759 C50 1.536 . S
C765 C542 1.518 . S
C785 C555 1.502 . S
C779 C64 1.539 . S
C805 C521 1.489 1_545 S
C799 C79 1.531 . S
C819 C78 1.548 . S
C825 C492 1.474 1_545 S
C845 C450 1.475 1_655 S
C839 C51 1.534 . S
C859 C65 1.530 . S
C865 C479 1.485 . S
C879 C92 1.551 . S
C885 C584 1.485 . S
C899 C106 1.542 . S
C905 C597 1.507 . S
C925 C626 1.485 . S
C919 C121 1.552 . S
C939 C120 1.547 . S
C945 C261 1.521 . S
C959 C93 1.559 . S
C965 C282 1.527 . S
C979 C107 1.544 . S
C985 C311 1.480 . S
C999 C134 1.539 . S
C1005 C290 1.502 . S
C1019 C148 1.545 . S
C1025 C303 1.491 . S
C1045 C269 1.499 . S
C1039 C163 1.532 . S
C1065 C618 1.472 . S
C1059 C162 1.534 . S
C1085 C576 1.501 . S
C1079 C135 1.546 . S
C1105 C605 1.507 . S
C1099 C149 1.547 . S
C1119 C176 1.558 . S
C1125 C332 1.475 . S
C1139 C190 1.550 . S
C1145 C345 1.527 . S
C1159 C205 1.538 . S
C1165 C374 1.487 . S
C1179 C204 1.534 . S
C1185 C387 1.503 . S
C1205 C408 1.515 . S
C1199 C177 1.556 . S
C1225 C437 1.475 . S
C1219 C191 1.547 . S
C1245 C416 1.490 . S
C1239 C218 1.543 . S
C1265 C429 1.502 . S
C1259 C232 1.541 . S
C1279 C247 1.537 . S
C1285 C395 1.485 . S
C1305 C366 1.472 . S
C1299 C246 1.535 . S
C1319 C219 1.533 . S
C1325 C324 1.499 . S
C1345 C353 1.503 . S
C1339 C233 1.546 . S
C1365 C264 1.422 . S
C1359 C6 1.484 . S
C1379 C20 1.484 . S
C1385 C285 1.402 . S
C1405 C313 1.429 . S
C1399 C35 1.466 . S
C1425 C334 1.428 . S
C1419 C34 1.452 . S
C1445 C348 1.385 . S
C1439 C7 1.474 . S
C1465 C376 1.430 . S
C1459 C21 1.466 . S
C1479 C48 1.502 . S
C1485 C369 1.414 . S
C1499 C62 1.481 . S
C1505 C327 1.411 . S
C1519 C77 1.487 . S
C1525 C355 1.449 . S
C1539 C76 1.481 . S
C1545 C292 1.450 . S
C1565 C306 1.408 . S
C1559 C49 1.477 . S
C1579 C63 1.494 . S
C1585 C271 1.452 . S
C1605 C390 1.408 . S
C1599 C90 1.480 . S
C1619 C104 1.472 . S
C1625 C411 1.385 . S
C1639 C119 1.483 . S
C1645 C439 1.438 . S
C1665 C460 1.412 . S
C1659 C118 1.452 . S
C1679 C91 1.474 . S
C1685 C474 1.386 . S
C1699 C105 1.479 . S
C1705 C502 1.414 . S
C1719 C132 1.484 . S
C1725 C495 1.381 . S
C1739 C146 1.489 . S
C1745 C453 1.410 . S
C1765 C481 1.444 . S
C1759 C161 1.493 . S
C1779 C160 1.473 . S
C1785 C418 1.437 . S
C1799 C133 1.487 . S
C1805 C432 1.376 . S
C1825 C397 1.422 . S
C1819 C147 1.478 . S
C1845 C516 1.393 1_545 S
C1839 C174 1.470 . S
C1859 C188 1.465 . S
C1865 C537 1.386 1_655 S
C1879 C203 1.486 . S
C1885 C565 1.426 . S
C1905 C586 1.418 . S
C1899 C202 1.456 . S
C1925 C600 1.418 . S
C1919 C175 1.483 . S
C1939 C189 1.481 . S
C1945 C628 1.443 . S
C1959 C216 1.490 . S
C1965 C621 1.420 . S
C1979 C230 1.487 . S
C1985 C579 1.373 . S
C2005 C607 1.422 . S
C1999 C245 1.480 . S
C2025 C544 1.426 1_655 S
C2019 C244 1.476 . S
C2045 C558 1.403 . S
C2039 C217 1.496 . S
C2059 C231 1.480 . S
C2065 C523 1.424 1_545 S
