# Generated by pormake.
# Topology eea, (3,6)-cn, num edge types: 1
# Building blocks:
#     Node 0, Type 0, BuildingBlock: BETDIP_clean_linker_0, # of connection points: 3
#     Node 1, Type 0, BuildingBlock: BETDIP_clean_linker_0, # of connection points: 3
#     Node 2, Type 0, BuildingBlock: BETDIP_clean_linker_0, # of connection points: 3
#     Node 3, Type 0, BuildingBlock: BETDIP_clean_linker_0, # of connection points: 3
#     Node 4, Type 0, BuildingBlock: BETDIP_clean_linker_0, # of connection points: 3
#     Node 5, Type 0, BuildingBlock: BETDIP_clean_linker_0, # of connection points: 3
#     Node 6, Type 0, BuildingBlock: BETDIP_clean_linker_0, # of connection points: 3
#     Node 7, Type 0, BuildingBlock: BETDIP_clean_linker_0, # of connection points: 3
#     Node 8, Type 0, BuildingBlock: BETDIP_clean_linker_0, # of connection points: 3
#     Node 9, Type 0, BuildingBlock: BETDIP_clean_linker_0, # of connection points: 3
#     Node 10, Type 0, BuildingBlock: BETDIP_clean_linker_0, # of connection points: 3
#     Node 11, Type 0, BuildingBlock: BETDIP_clean_linker_0, # of connection points: 3
#     Node 12, Type 0, BuildingBlock: BETDIP_clean_linker_0, # of connection points: 3
#     Node 13, Type 0, BuildingBlock: BETDIP_clean_linker_0, # of connection points: 3
#     Node 14, Type 0, BuildingBlock: BETDIP_clean_linker_0, # of connection points: 3
#     Node 15, Type 0, BuildingBlock: BETDIP_clean_linker_0, # of connection points: 3
#     Node 16, Type 0, BuildingBlock: BETDIP_clean_linker_0, # of connection points: 3
#     Node 17, Type 0, BuildingBlock: BETDIP_clean_linker_0, # of connection points: 3
#     Node 18, Type 1, BuildingBlock: HISSIN_clean_sbu_0, # of connection points: 6
#     Node 19, Type 1, BuildingBlock: HISSIN_clean_sbu_0, # of connection points: 6
#     Node 20, Type 1, BuildingBlock: HISSIN_clean_sbu_0, # of connection points: 6
#     Node 21, Type 1, BuildingBlock: HISSIN_clean_sbu_0, # of connection points: 6
#     Node 22, Type 1, BuildingBlock: HISSIN_clean_sbu_0, # of connection points: 6
#     Node 23, Type 1, BuildingBlock: HISSIN_clean_sbu_0, # of connection points: 6
#     Node 24, Type 1, BuildingBlock: HISSIN_clean_sbu_0, # of connection points: 6
#     Node 25, Type 1, BuildingBlock: HISSIN_clean_sbu_0, # of connection points: 6
#     Node 26, Type 1, BuildingBlock: HISSIN_clean_sbu_0, # of connection points: 6
#     Edge 27, Type (0, 1), BuildingBlock: ZUJKAS_clean_linker_0, # of connection points: 2
#     Edge 28, Type (0, 1), BuildingBlock: ZUJKAS_clean_linker_0, # of connection points: 2
#     Edge 29, Type (0, 1), BuildingBlock: ZUJKAS_clean_linker_0, # of connection points: 2
#     Edge 30, Type (0, 1), BuildingBlock: ZUJKAS_clean_linker_0, # of connection points: 2
#     Edge 31, Type (0, 1), BuildingBlock: ZUJKAS_clean_linker_0, # of connection points: 2
#     Edge 32, Type (0, 1), BuildingBlock: ZUJKAS_clean_linker_0, # of connection points: 2
#     Edge 33, Type (0, 1), BuildingBlock: ZUJKAS_clean_linker_0, # of connection points: 2
#     Edge 34, Type (0, 1), BuildingBlock: ZUJKAS_clean_linker_0, # of connection points: 2
#     Edge 35, Type (0, 1), BuildingBlock: ZUJKAS_clean_linker_0, # of connection points: 2
#     Edge 36, Type (0, 1), BuildingBlock: ZUJKAS_clean_linker_0, # of connection points: 2
#     Edge 37, Type (0, 1), BuildingBlock: ZUJKAS_clean_linker_0, # of connection points: 2
#     Edge 38, Type (0, 1), BuildingBlock: ZUJKAS_clean_linker_0, # of connection points: 2
#     Edge 39, Type (0, 1), BuildingBlock: ZUJKAS_clean_linker_0, # of connection points: 2
#     Edge 40, Type (0, 1), BuildingBlock: ZUJKAS_clean_linker_0, # of connection points: 2
#     Edge 41, Type (0, 1), BuildingBlock: ZUJKAS_clean_linker_0, # of connection points: 2
#     Edge 42, Type (0, 1), BuildingBlock: ZUJKAS_clean_linker_0, # of connection points: 2
#     Edge 43, Type (0, 1), BuildingBlock: ZUJKAS_clean_linker_0, # of connection points: 2
#     Edge 44, Type (0, 1), BuildingBlock: ZUJKAS_clean_linker_0, # of connection points: 2
#     Edge 45, Type (0, 1), BuildingBlock: ZUJKAS_clean_linker_0, # of connection points: 2
#     Edge 46, Type (0, 1), BuildingBlock: ZUJKAS_clean_linker_0, # of connection points: 2
#     Edge 47, Type (0, 1), BuildingBlock: ZUJKAS_clean_linker_0, # of connection points: 2
#     Edge 48, Type (0, 1), BuildingBlock: ZUJKAS_clean_linker_0, # of connection points: 2
#     Edge 49, Type (0, 1), BuildingBlock: ZUJKAS_clean_linker_0, # of connection points: 2
#     Edge 50, Type (0, 1), BuildingBlock: ZUJKAS_clean_linker_0, # of connection points: 2
#     Edge 51, Type (0, 1), BuildingBlock: ZUJKAS_clean_linker_0, # of connection points: 2
#     Edge 52, Type (0, 1), BuildingBlock: ZUJKAS_clean_linker_0, # of connection points: 2
#     Edge 53, Type (0, 1), BuildingBlock: ZUJKAS_clean_linker_0, # of connection points: 2
#     Edge 54, Type (0, 1), BuildingBlock: ZUJKAS_clean_linker_0, # of connection points: 2
#     Edge 55, Type (0, 1), BuildingBlock: ZUJKAS_clean_linker_0, # of connection points: 2
#     Edge 56, Type (0, 1), BuildingBlock: ZUJKAS_clean_linker_0, # of connection points: 2
#     Edge 57, Type (0, 1), BuildingBlock: ZUJKAS_clean_linker_0, # of connection points: 2
#     Edge 58, Type (0, 1), BuildingBlock: ZUJKAS_clean_linker_0, # of connection points: 2
#     Edge 59, Type (0, 1), BuildingBlock: ZUJKAS_clean_linker_0, # of connection points: 2
#     Edge 60, Type (0, 1), BuildingBlock: ZUJKAS_clean_linker_0, # of connection points: 2
#     Edge 61, Type (0, 1), BuildingBlock: ZUJKAS_clean_linker_0, # of connection points: 2
#     Edge 62, Type (0, 1), BuildingBlock: ZUJKAS_clean_linker_0, # of connection points: 2
#     Edge 63, Type (0, 1), BuildingBlock: ZUJKAS_clean_linker_0, # of connection points: 2
#     Edge 64, Type (0, 1), BuildingBlock: ZUJKAS_clean_linker_0, # of connection points: 2
#     Edge 65, Type (0, 1), BuildingBlock: ZUJKAS_clean_linker_0, # of connection points: 2
#     Edge 66, Type (0, 1), BuildingBlock: ZUJKAS_clean_linker_0, # of connection points: 2
#     Edge 67, Type (0, 1), BuildingBlock: ZUJKAS_clean_linker_0, # of connection points: 2
#     Edge 68, Type (0, 1), BuildingBlock: ZUJKAS_clean_linker_0, # of connection points: 2
#     Edge 69, Type (0, 1), BuildingBlock: ZUJKAS_clean_linker_0, # of connection points: 2
#     Edge 70, Type (0, 1), BuildingBlock: ZUJKAS_clean_linker_0, # of connection points: 2
#     Edge 71, Type (0, 1), BuildingBlock: ZUJKAS_clean_linker_0, # of connection points: 2
#     Edge 72, Type (0, 1), BuildingBlock: ZUJKAS_clean_linker_0, # of connection points: 2
#     Edge 73, Type (0, 1), BuildingBlock: ZUJKAS_clean_linker_0, # of connection points: 2
#     Edge 74, Type (0, 1), BuildingBlock: ZUJKAS_clean_linker_0, # of connection points: 2
#     Edge 75, Type (0, 1), BuildingBlock: ZUJKAS_clean_linker_0, # of connection points: 2
#     Edge 76, Type (0, 1), BuildingBlock: ZUJKAS_clean_linker_0, # of connection points: 2
#     Edge 77, Type (0, 1), BuildingBlock: ZUJKAS_clean_linker_0, # of connection points: 2
#     Edge 78, Type (0, 1), BuildingBlock: ZUJKAS_clean_linker_0, # of connection points: 2
#     Edge 79, Type (0, 1), BuildingBlock: ZUJKAS_clean_linker_0, # of connection points: 2
#     Edge 80, Type (0, 1), BuildingBlock: ZUJKAS_clean_linker_0, # of connection points: 2
# Relax obj value: 0.059
# Max RMSD: 0.198
# Mean RMSD: 0.138
data_MOF--net-eea--node1-HISSIN_clean_sbu_0--node2-BETDIP_clean_linker_0--edge1-ZUJKAS_clean_linker_0
_symmetry_space_group_name_H-M    P1
_symmetry_Int_Tables_number       1
_symmetry_cell_setting            triclinic
loop_
_symmetry_equiv_pos_as_xyz
'x, y, z'
_cell_length_a     71.45423
_cell_length_b     71.953812
_cell_length_c     85.116719
_cell_angle_alpha  93.316587
_cell_angle_beta   93.612527
_cell_angle_gamma 119.74145
loop_
_atom_site_label
_atom_site_type_symbol
_atom_site_fract_x
_atom_site_fract_y
_atom_site_fract_z
_atom_type_partial_charge
H0 H 0.24556 0.12367 0.38894 0.0
H1 H 0.2779 0.17432 0.42705 0.0
H2 H 0.26918 0.11172 0.43272 0.0
H3 H 0.28124 0.19579 0.40856 0.0
C4 C 0.26688 0.18662 0.40019 0.0
C5 C 0.25405 0.12932 0.40075 0.0
C6 C 0.2567 0.11514 0.41005 0.0
C7 C 0.26175 0.1507 0.40667 0.0
C8 C 0.27219 0.15798 0.42219 0.0
C9 C 0.27504 0.14404 0.43169 0.0
C10 C 0.26726 0.12267 0.42547 0.0
N11 N 0.25747 0.16397 0.39705 0.0
H12 H 0.8988 0.12242 0.391 0.0
H13 H 0.85759 0.10458 0.42853 0.0
H14 H 0.91842 0.164 0.43458 0.0
H15 H 0.83145 0.09037 0.40524 0.0
C16 C 0.83864 0.08162 0.39993 0.0
C17 C 0.89566 0.12611 0.40273 0.0
C18 C 0.91095 0.14517 0.412 0.0
C19 C 0.87626 0.11165 0.40849 0.0
C20 C 0.87234 0.11596 0.42387 0.0
C21 C 0.88754 0.13476 0.43338 0.0
C22 C 0.9067 0.14939 0.42731 0.0
N23 N 0.86134 0.09237 0.39892 0.0
H24 H 0.89401 0.78765 0.40823 0.0
H25 H 0.91709 0.7695 0.44923 0.0
H26 H 0.85394 0.76292 0.44607 0.0
H27 H 0.93916 0.76697 0.43342 0.0
C28 C 0.94259 0.77865 0.42493 0.0
C29 C 0.8915 0.78144 0.41967 0.0
C30 C 0.87194 0.77555 0.42617 0.0
C31 C 0.9077 0.77882 0.42764 0.0
C32 C 0.90448 0.77079 0.44255 0.0
C33 C 0.88512 0.76507 0.44927 0.0
C34 C 0.86895 0.76741 0.44096 0.0
N35 N 0.92709 0.78482 0.42043 0.0
H36 H 0.09697 0.20608 0.63053 0.0
H37 H 0.13496 0.22681 0.59128 0.0
H38 H 0.08183 0.23826 0.59497 0.0
H39 H 0.13836 0.19742 0.59555 0.0
C40 C 0.14151 0.19957 0.60837 0.0
C41 C 0.10013 0.21369 0.61963 0.0
C42 C 0.08733 0.22214 0.61383 0.0
C43 C 0.11698 0.21483 0.6114 0.0
C44 C 0.12143 0.22504 0.59741 0.0
C45 C 0.10893 0.23369 0.5915 0.0
C46 C 0.09193 0.23219 0.59977 0.0
N47 N 0.12958 0.20616 0.61767 0.0
H48 H 0.7687 0.88097 0.65725 0.0
H49 H 0.74536 0.89969 0.61685 0.0
H50 H 0.75333 0.8444 0.61179 0.0
H51 H 0.73215 0.91243 0.63629 0.0
C52 C 0.74662 0.92017 0.6447 0.0
C53 C 0.76274 0.87807 0.64481 0.0
C54 C 0.76203 0.86111 0.63525 0.0
C55 C 0.75616 0.89165 0.63838 0.0
C56 C 0.74929 0.88855 0.62211 0.0
C57 C 0.74848 0.87168 0.61237 0.0
C58 C 0.75459 0.85789 0.61911 0.0
N59 N 0.758 0.90917 0.6483 0.0
H60 H 0.11747 0.88802 0.64049 0.0
H61 H 0.09339 0.84348 0.59828 0.0
H62 H 0.15339 0.90292 0.59987 0.0
H63 H 0.07377 0.81956 0.61443 0.0
C64 C 0.07037 0.82829 0.62358 0.0
C65 C 0.11942 0.88366 0.62855 0.0
C66 C 0.13733 0.89802 0.62111 0.0
C67 C 0.10367 0.86378 0.6206 0.0
C68 C 0.10576 0.85832 0.60489 0.0
C69 C 0.12356 0.87257 0.59731 0.0
C70 C 0.13931 0.8922 0.60557 0.0
N71 N 0.08548 0.85029 0.62853 0.0
H72 H 0.92715 0.46242 0.71649 0.0
H73 H 0.94514 0.50545 0.75893 0.0
H74 H 0.94725 0.44697 0.76021 0.0
H75 H 0.95363 0.53024 0.74099 0.0
C76 C 0.93959 0.52146 0.73226 0.0
C77 C 0.93288 0.46642 0.72899 0.0
C78 C 0.93688 0.45232 0.73742 0.0
C79 C 0.93641 0.48587 0.73652 0.0
C80 C 0.9435 0.49103 0.7528 0.0
C81 C 0.94745 0.47707 0.76145 0.0
C82 C 0.94429 0.45786 0.75361 0.0
N83 N 0.93146 0.49929 0.72766 0.0
H84 H 0.57466 0.45783 0.73117 0.0
H85 H 0.5341 0.44321 0.76904 0.0
H86 H 0.59058 0.50577 0.77028 0.0
H87 H 0.53108 0.41025 0.76282 0.0
C88 C 0.52772 0.40881 0.75004 0.0
C89 C 0.57102 0.46286 0.74226 0.0
C90 C 0.58495 0.48363 0.74992 0.0
C91 C 0.55296 0.44808 0.74925 0.0
C92 C 0.54824 0.45444 0.76369 0.0
C93 C 0.5618 0.47517 0.77142 0.0
C94 C 0.58016 0.48965 0.76447 0.0
N95 N 0.5398 0.42687 0.74162 0.0
H96 H 0.56583 0.12684 0.744 0.0
H97 H 0.58838 0.10432 0.7826 0.0
H98 H 0.52908 0.10548 0.78386 0.0
H99 H 0.60665 0.09846 0.76455 0.0
C100 C 0.61115 0.11132 0.75695 0.0
C101 C 0.56364 0.12032 0.75533 0.0
C102 C 0.54571 0.117 0.76323 0.0
C103 C 0.57896 0.11547 0.76203 0.0
C104 C 0.57636 0.1074 0.77693 0.0
C105 C 0.55848 0.10397 0.78492 0.0
C106 C 0.54325 0.10873 0.77795 0.0
N107 N 0.59716 0.11972 0.75377 0.0
H108 H 0.76169 0.54133 0.96325 0.0
H109 H 0.80156 0.563 0.9251 0.0
H110 H 0.74718 0.57289 0.92685 0.0
H111 H 0.8041 0.53296 0.92934 0.0
C112 C 0.80717 0.53524 0.94217 0.0
C113 C 0.7652 0.54897 0.95237 0.0
C114 C 0.75236 0.55713 0.9461 0.0
C115 C 0.78257 0.55047 0.94463 0.0
C116 C 0.78755 0.56084 0.93073 0.0
C117 C 0.77496 0.56912 0.92428 0.0
C118 C 0.75737 0.56714 0.93203 0.0
N119 N 0.79515 0.54195 0.95126 0.0
H120 H 0.43476 0.21494 0.99346 0.0
H121 H 0.40957 0.23353 0.95402 0.0
H122 H 0.41596 0.17731 0.94816 0.0
H123 H 0.39629 0.24515 0.97615 0.0
C124 C 0.41249 0.25417 0.98241 0.0
C125 C 0.42801 0.21184 0.9812 0.0
C126 C 0.42612 0.19436 0.97155 0.0
C127 C 0.42154 0.22566 0.97506 0.0
C128 C 0.41355 0.22225 0.95901 0.0
C129 C 0.41189 0.20506 0.94914 0.0
C130 C 0.41788 0.19102 0.95559 0.0
N131 N 0.4248 0.24383 0.9849 0.0
H132 H 0.78501 0.21771 0.97212 0.0
H133 H 0.76323 0.16813 0.93339 0.0
H134 H 0.82259 0.22771 0.93266 0.0
H135 H 0.7443 0.14659 0.95102 0.0
C136 C 0.73966 0.15605 0.95849 0.0
C137 C 0.78756 0.21191 0.96088 0.0
C138 C 0.8058 0.22524 0.95327 0.0
C139 C 0.77227 0.19119 0.95397 0.0
C140 C 0.77513 0.18384 0.9391 0.0
C141 C 0.79333 0.19689 0.93137 0.0
C142 C 0.80857 0.2175 0.93859 0.0
N143 N 0.75378 0.17861 0.96195 0.0
H144 H 0.59485 0.79735 0.05148 0.0
H145 H 0.61814 0.8437 0.09236 0.0
H146 H 0.62132 0.78578 0.09418 0.0
H147 H 0.62537 0.86682 0.0716 0.0
C148 C 0.60913 0.85729 0.06547 0.0
C149 C 0.60234 0.80241 0.06358 0.0
C150 C 0.6078 0.78917 0.0719 0.0
C151 C 0.60662 0.82232 0.07072 0.0
C152 C 0.61594 0.82888 0.08652 0.0
C153 C 0.62117 0.81571 0.09512 0.0
C154 C 0.61735 0.79605 0.08762 0.0
N155 N 0.59987 0.8347 0.06218 0.0
H156 H 0.2421 0.78954 0.06415 0.0
H157 H 0.20087 0.77328 0.10167 0.0
H158 H 0.25617 0.83674 0.10339 0.0
H159 H 0.19967 0.74087 0.09546 0.0
C160 C 0.19606 0.73943 0.0827 0.0
C161 C 0.23811 0.79421 0.07521 0.0
C162 C 0.25148 0.81504 0.08298 0.0
C163 C 0.22016 0.77895 0.08206 0.0
C164 C 0.21495 0.78488 0.09645 0.0
C165 C 0.22792 0.80565 0.10427 0.0
C166 C 0.24622 0.8206 0.09749 0.0
N167 N 0.20755 0.75771 0.07433 0.0
H168 H 0.23002 0.45948 0.07723 0.0
H169 H 0.2515 0.43372 0.11406 0.0
H170 H 0.18781 0.42582 0.11216 0.0
H171 H 0.28418 0.4594 0.1099 0.0
C172 C 0.28341 0.46093 0.0973 0.0
C173 C 0.22699 0.45096 0.08772 0.0
C174 C 0.20667 0.44251 0.09359 0.0
C175 C 0.2435 0.44843 0.09524 0.0
C176 C 0.23938 0.4368 0.10859 0.0
C177 C 0.21929 0.42851 0.11475 0.0
C178 C 0.20311 0.43154 0.10719 0.0
N179 N 0.26384 0.45728 0.08888 0.0
H180 H 0.43165 0.88146 0.30003 0.0
H181 H 0.47089 0.90365 0.26148 0.0
H182 H 0.41434 0.9099 0.26276 0.0
H183 H 0.49734 0.91012 0.28057 0.0
C184 C 0.48981 0.89571 0.28668 0.0
C185 C 0.43477 0.88878 0.28901 0.0
C186 C 0.42082 0.89541 0.28231 0.0
C187 C 0.45325 0.8923 0.28186 0.0
C188 C 0.45711 0.90151 0.26743 0.0
C189 C 0.44325 0.90805 0.26054 0.0
C190 C 0.42528 0.90516 0.26814 0.0
N191 N 0.46759 0.8863 0.28929 0.0
H192 H 0.09448 0.54365 0.32426 0.0
H193 H 0.07004 0.56027 0.28322 0.0
H194 H 0.07503 0.50319 0.28016 0.0
H195 H 0.05982 0.57634 0.30249 0.0
C196 C 0.07495 0.58421 0.31021 0.0
C197 C 0.08771 0.53986 0.31197 0.0
C198 C 0.08528 0.52156 0.30311 0.0
C199 C 0.08188 0.55367 0.305 0.0
C200 C 0.07396 0.54936 0.28888 0.0
C201 C 0.07146 0.53118 0.27985 0.0
C202 C 0.07692 0.51725 0.2871 0.0
N203 N 0.0855 0.57252 0.31415 0.0
H204 H 0.44762 0.54777 0.30641 0.0
H205 H 0.42722 0.49957 0.26686 0.0
H206 H 0.48634 0.55977 0.26746 0.0
H207 H 0.40756 0.47724 0.28382 0.0
C208 C 0.40266 0.48642 0.29134 0.0
C209 C 0.45054 0.54245 0.29512 0.0
C210 C 0.46894 0.55625 0.28787 0.0
C211 C 0.43552 0.5219 0.28778 0.0
C212 C 0.43888 0.51517 0.27287 0.0
C213 C 0.45727 0.5287 0.2655 0.0
C214 C 0.4722 0.54917 0.27312 0.0
N215 N 0.41676 0.50889 0.29536 0.0
Eu216 Eu 0.48231 0.99392 1.00194 0.0
Eu217 Eu 0.49673 0.01428 0.03931 0.0
C218 C 0.47892 0.03497 0.01474 0.0
C219 C 0.4788 0.98856 0.95726 0.0
C220 C 0.49159 0.01096 0.95745 0.0
C221 C 0.48027 0.98468 0.92894 0.0
C222 C 0.49874 0.02018 0.94347 0.0
C223 C 0.4731 0.97547 0.94295 0.0
C224 C 0.49327 0.00713 0.92907 0.0
C225 C 0.4725 0.97879 0.97207 0.0
O226 O 0.46046 0.99217 0.03682 0.0
O227 O 0.45696 0.96935 0.01546 0.0
C228 C 0.44938 0.9737 0.02795 0.0
O229 O 0.50346 0.9821 0.01295 0.0
O230 O 0.4917 0.02919 0.06048 0.0
O231 O 0.51861 0.02319 0.06091 0.0
O232 O 0.4947 0.98207 0.03824 0.0
C233 C 0.50229 0.97533 0.02702 0.0
O234 O 0.51284 0.0256 1.0017 0.0
O235 O 0.5274 0.02854 0.02713 0.0
O236 O 0.49373 0.0391 0.02641 0.0
O237 O 0.48813 0.97923 0.98112 0.0
O238 O 0.46058 0.9841 0.98006 0.0
O239 O 0.4693 0.01654 1.00576 0.0
C240 C 0.50169 0.01979 0.08426 0.0
C241 C 0.49366 0.99774 0.08516 0.0
C242 C 0.49861 0.02433 0.11226 0.0
C243 C 0.48832 0.98907 0.09957 0.0
C244 C 0.50405 0.033 0.09785 0.0
C245 C 0.49076 0.00227 0.11331 0.0
C246 C 0.50732 0.02907 0.06919 0.0
C247 C 0.52953 0.03379 0.01254 0.0
H248 H 0.4963 0.02127 0.96846 0.0
H249 H 0.47557 0.97423 0.91801 0.0
H250 H 0.50895 0.03749 0.944 0.0
H251 H 0.46332 0.95814 0.94264 0.0
H252 H 0.49162 0.98727 0.07473 0.0
H253 H 0.50034 0.03488 0.12253 0.0
H254 H 0.48259 0.97208 0.09998 0.0
H255 H 0.51005 0.05002 0.09731 0.0
Eu256 Eu 0.01038 0.48316 1.00079 0.0
Eu257 Eu 0.99345 0.48148 0.03612 0.0
C258 C 0.97244 0.44035 0.01133 0.0
C259 C 0.01978 0.49063 0.95721 0.0
C260 C 0.00464 0.49742 0.95451 0.0
C261 C 0.02708 0.49391 0.92979 0.0
C262 C 1.00052 0.50216 0.93941 0.0
C263 C 0.03115 0.48917 0.94486 0.0
C264 C 0.01152 0.50019 0.92683 0.0
C265 C 0.02298 0.48379 0.97254 0.0
O266 O 0.01699 0.46917 0.03855 0.0
O267 O 0.03581 0.48229 0.01706 0.0
C268 C 0.03371 0.47385 0.03056 0.0
O269 O 0.02295 0.51741 0.01101 0.0
O270 O 0.97853 0.4631 0.05575 0.0
O271 O 0.98689 0.49655 0.05632 0.0
O272 O 0.02555 0.51192 0.03704 0.0
C273 C 0.03131 0.52477 0.02575 0.0
O274 O 0.97989 0.48484 0.99648 0.0
O275 O 0.97748 0.49613 0.02172 0.0
O276 O 0.96796 0.4525 0.02055 0.0
O277 O 0.03412 0.49894 0.98404 0.0
O278 O 0.00589 0.46759 0.97708 0.0
O279 O 0.99133 0.44848 1.00577 0.0
C280 C 0.98837 0.48317 0.08068 0.0
C281 C 0.01077 0.49464 0.08524 0.0
C282 C 0.98177 0.47849 0.10814 0.0
C283 C 0.01863 0.49818 0.10123 0.0
C284 C 0.97394 0.47505 0.09218 0.0
C285 C 0.00419 0.49015 0.11285 0.0
C286 C 0.97973 0.47955 0.06403 0.0
C287 C 0.97171 0.49285 1.00639 0.0
H288 H 0.99573 0.49863 0.96398 0.0
H289 H 0.03557 0.49189 0.92034 0.0
H290 H 0.98859 0.50714 0.93754 0.0
H291 H 0.0428 0.48383 0.94676 0.0
H292 H 0.02212 0.5009 0.07644 0.0
H293 H 0.97024 0.47235 0.11683 0.0
H294 H 0.03599 0.50703 0.1045 0.0
H295 H 0.9566 0.46617 0.08883 0.0
Eu296 Eu 0.53065 0.52564 0.03803 0.0
Eu297 Eu 0.51157 0.5255 1.00181 0.0
C298 C 0.53775 0.56834 0.02469 0.0
C299 C 0.5344 0.51944 0.082 0.0
C300 C 0.51493 0.51908 0.08419 0.0
C301 C 0.53592 0.5097 0.10867 0.0
C302 C 0.50625 0.51451 0.09866 0.0
C303 C 0.54467 0.51444 0.09422 0.0
C304 C 0.51677 0.51001 0.11115 0.0
C305 C 0.54438 0.52558 0.0672 0.0
O306 O 0.54676 0.53597 1.00023 0.0
O307 O 0.55437 0.52371 0.02277 0.0
C308 C 0.55926 0.53108 0.00895 0.0
O309 O 0.50539 0.49157 0.02905 0.0
O310 O 0.51284 0.54286 0.98141 0.0
O311 O 0.48825 0.50927 0.98093 0.0
O312 O 0.51171 0.49445 1.00316 0.0
C313 C 0.50461 0.48268 0.01495 0.0
O314 O 0.50026 0.52716 0.04082 0.0
O315 O 0.48272 0.51322 0.01582 0.0
O316 O 0.51939 0.55643 0.01577 0.0
O317 O 0.53912 0.50995 0.05617 0.0
O318 O 0.54455 0.54216 0.06161 0.0
O319 O 0.54806 0.55947 0.03123 0.0
C320 C 0.50231 0.52169 0.95702 0.0
C321 C 0.5179 0.51553 0.95515 0.0
C322 C 0.49652 0.52071 0.92855 0.0
C323 C 0.52278 0.51197 0.94002 0.0
C324 C 0.49165 0.52425 0.94368 0.0
C325 C 0.51216 0.51455 0.92654 0.0
C326 C 0.4974 0.52586 0.97285 0.0
C327 C 0.48257 0.51841 0.03085 0.0
H328 H 0.5067 0.52281 0.07484 0.0
H329 H 0.54424 0.50595 0.11793 0.0
H330 H 0.49165 0.51517 0.10018 0.0
H331 H 0.55963 0.51448 0.09266 0.0
H332 H 0.52629 0.51351 0.96538 0.0
H333 H 0.48827 0.52312 0.91844 0.0
H334 H 0.53471 0.507 0.93887 0.0
H335 H 0.47967 0.52913 0.94498 0.0
Eu336 Eu 0.14282 0.32513 0.33312 0.0
Eu337 Eu 0.15932 0.34397 0.37075 0.0
C338 C 0.1391 0.36449 0.34852 0.0
C339 C 0.14037 0.31881 0.28825 0.0
C340 C 0.15703 0.3401 0.28783 0.0
C341 C 0.14126 0.31166 0.26018 0.0
C342 C 0.16559 0.34721 0.27363 0.0
C343 C 0.13266 0.30459 0.2744 0.0
C344 C 0.1577 0.33312 0.25959 0.0
C345 C 0.13084 0.31143 0.30303 0.0
O346 O 0.12316 0.32161 0.36939 0.0
O347 O 0.11761 0.30022 0.34649 0.0
C348 C 0.1112 0.30385 0.35987 0.0
O349 O 0.16517 0.31349 0.34211 0.0
O350 O 0.15561 0.35835 0.39278 0.0
O351 O 0.18205 0.3518 0.39168 0.0
O352 O 0.15746 0.31189 0.36776 0.0
C353 C 0.16472 0.30595 0.35584 0.0
O354 O 0.1743 0.35592 0.33263 0.0
O355 O 0.18939 0.35897 0.35799 0.0
O356 O 0.15558 0.36904 0.3588 0.0
O357 O 0.14066 0.30449 0.31236 0.0
O358 O 0.12535 0.32382 0.31078 0.0
O359 O 0.1284 0.3457 0.34007 0.0
C360 C 0.16644 0.34796 0.41602 0.0
C361 C 0.17362 0.3339 0.42065 0.0
C362 C 0.14982 0.34435 0.44058 0.0
C363 C 0.16893 0.32516 0.4351 0.0
C364 C 0.15462 0.35318 0.42617 0.0
C365 C 0.15691 0.33022 0.44522 0.0
C366 C 0.17126 0.35739 0.40079 0.0
C367 C 0.19115 0.36409 0.34335 0.0
H368 H 0.1632 0.35131 0.29844 0.0
H369 H 0.13504 0.3003 0.24965 0.0
H370 H 0.17801 0.3639 0.27359 0.0
H371 H 0.1199 0.28806 0.27455 0.0
H372 H 0.1829 0.32963 0.41316 0.0
H373 H 0.1403 0.34838 0.44798 0.0
H374 H 0.17497 0.31463 0.43841 0.0
H375 H 0.14897 0.36405 0.42293 0.0
Eu376 Eu 0.67307 0.81293 0.33305 0.0
Eu377 Eu 0.65883 0.8125 0.36922 0.0
C378 C 0.63602 0.77058 0.34503 0.0
C379 C 0.68315 0.82184 0.28958 0.0
C380 C 0.66885 0.82962 0.28675 0.0
C381 C 0.69385 0.82848 0.26311 0.0
C382 C 0.66681 0.83649 0.27202 0.0
C383 C 0.69582 0.82159 0.27779 0.0
C384 C 0.67911 0.83574 0.25997 0.0
C385 C 0.68448 0.8131 0.30447 0.0
O386 O 0.6819 0.79967 0.37068 0.0
O387 O 0.69926 0.81213 0.34854 0.0
C388 C 0.69797 0.80398 0.3621 0.0
O389 O 0.68534 0.84728 0.34279 0.0
O390 O 0.64657 0.79554 0.39001 0.0
O391 O 0.65318 0.82837 0.38937 0.0
O392 O 0.69085 0.84271 0.36863 0.0
C393 C 0.69509 0.85518 0.35715 0.0
O394 O 0.64289 0.8154 0.32977 0.0
O395 O 0.64147 0.82623 0.35543 0.0
O396 O 0.63237 0.78298 0.35469 0.0
O397 O 0.69717 0.82695 0.31629 0.0
O398 O 0.66618 0.79829 0.30876 0.0
O399 O 0.65423 0.77843 0.33849 0.0
C400 C 0.65811 0.81759 0.41429 0.0
C401 C 0.67853 0.83593 0.41869 0.0
C402 C 0.65604 0.80918 0.44154 0.0
C403 C 0.68748 0.84102 0.43449 0.0
C404 C 0.64703 0.8042 0.42579 0.0
C405 C 0.67627 0.82773 0.44607 0.0
C406 C 0.64788 0.81232 0.39791 0.0
C407 C 0.63509 0.82316 0.34022 0.0
H408 H 0.65901 0.83 0.2958 0.0
H409 H 0.7033 0.82736 0.25402 0.0
H410 H 0.65546 0.84217 0.27 0.0
H411 H 0.70691 0.81558 0.27981 0.0
H412 H 0.68747 0.8464 0.40997 0.0
H413 H 0.64696 0.79877 0.45024 0.0
H414 H 0.7032 0.85528 0.43764 0.0
H415 H 0.63126 0.79 0.4226 0.0
Eu416 Eu 0.19384 0.85323 0.36922 0.0
Eu417 Eu 0.17606 0.85717 0.33363 0.0
C418 C 0.19645 0.89673 0.36068 0.0
C419 C 0.19944 0.85091 0.41341 0.0
C420 C 0.18445 0.85785 0.41537 0.0
C421 C 0.19924 0.84422 0.44101 0.0
C422 C 0.17694 0.85804 0.4301 0.0
C423 C 0.20681 0.84412 0.42628 0.0
C424 C 0.18419 0.85115 0.44307 0.0
C425 C 0.20653 0.8497 0.39779 0.0
O426 O 0.2054 0.85383 0.33078 0.0
O427 O 0.22297 0.86857 0.35556 0.0
C428 C 0.22318 0.86297 0.34064 0.0
O429 O 0.18799 0.82391 0.35396 0.0
O430 O 0.18139 0.87565 0.31335 0.0
O431 O 0.15197 0.84494 0.31292 0.0
O432 O 0.16152 0.82181 0.33616 0.0
C433 C 0.17125 0.81276 0.34333 0.0
O434 O 0.15778 0.83931 0.36902 0.0
O435 O 0.15174 0.85688 0.34939 0.0
O436 O 0.19652 0.89074 0.34586 0.0
O437 O 0.19253 0.83336 0.38795 0.0
O438 O 0.21554 0.86759 0.3911 0.0
O439 O 0.19111 0.88306 0.37138 0.0
C440 C 0.16728 0.85468 0.28892 0.0
C441 C 0.18072 0.84586 0.28696 0.0
C442 C 0.16176 0.85397 0.26043 0.0
C443 C 0.18484 0.8413 0.27181 0.0
C444 C 0.15771 0.85858 0.27561 0.0
C445 C 0.17554 0.84546 0.25838 0.0
C446 C 0.16398 0.86072 0.30482 0.0
C447 C 0.14563 0.84579 0.36168 0.0
H448 H 0.17841 0.8629 0.40547 0.0
H449 H 0.20529 0.83905 0.45082 0.0
H450 H 0.16517 0.86321 0.43128 0.0
H451 H 0.21829 0.83861 0.4249 0.0
H452 H 0.18823 0.84275 0.29716 0.0
H453 H 0.15455 0.85757 0.25034 0.0
H454 H 0.19528 0.8345 0.27061 0.0
H455 H 0.14738 0.86549 0.27696 0.0
Eu456 Eu 0.81589 0.65984 0.66891 0.0
Eu457 Eu 0.8306 0.68188 0.70597 0.0
C458 C 0.81252 0.7009 0.68 0.0
C459 C 0.81252 0.65396 0.62429 0.0
C460 C 0.825 0.67636 0.62426 0.0
C461 C 0.81423 0.64967 0.59603 0.0
C462 C 0.83195 0.68538 0.61017 0.0
C463 C 0.8072 0.64066 0.61013 0.0
C464 C 0.82664 0.67213 0.59589 0.0
C465 C 0.80551 0.64447 0.63913 0.0
O466 O 0.80098 0.64942 0.70645 0.0
O467 O 0.78549 0.64578 0.68125 0.0
C468 C 0.78402 0.64053 0.69582 0.0
O469 O 0.82067 0.63627 0.6824 0.0
O470 O 0.82287 0.69387 0.72724 0.0
O471 O 0.85376 0.69515 0.72721 0.0
O472 O 0.84481 0.66036 0.70261 0.0
C473 C 0.83603 0.64172 0.69399 0.0
O474 O 0.8521 0.68134 0.67138 0.0
O475 O 0.85639 0.70549 0.69207 0.0
O476 O 0.81103 0.69494 0.69434 0.0
O477 O 0.82024 0.64346 0.64829 0.0
O478 O 0.79458 0.65126 0.647 0.0
O479 O 0.819 0.69252 0.66903 0.0
C480 C 0.83702 0.68803 0.7508 0.0
C481 C 0.82555 0.66561 0.75097 0.0
C482 C 0.84057 0.69228 0.7795 0.0
C483 C 0.8215 0.65656 0.76533 0.0
C484 C 0.8446 0.70131 0.76511 0.0
C485 C 0.82886 0.66979 0.77977 0.0
C486 C 0.84042 0.69757 0.73573 0.0
C487 C 0.86369 0.70005 0.67987 0.0
H488 H 0.82944 0.68686 0.63515 0.0
H489 H 0.80971 0.63906 0.58519 0.0
H490 H 0.84172 0.70271 0.61049 0.0
H491 H 0.79763 0.62333 0.60999 0.0
H492 H 0.81949 0.65513 0.73998 0.0
H493 H 0.84669 0.7029 0.79041 0.0
H494 H 0.81218 0.63921 0.76509 0.0
H495 H 0.85348 0.71866 0.76516 0.0
Eu496 Eu 0.34578 0.15111 0.67064 0.0
Eu497 Eu 0.32908 0.15062 0.70603 0.0
C498 C 0.30857 0.10843 0.68225 0.0
C499 C 0.35268 0.15556 0.62659 0.0
C500 C 0.33109 0.14894 0.62123 0.0
C501 C 0.36363 0.16888 0.60124 0.0
C502 C 0.32576 0.15185 0.60585 0.0
C503 C 0.36892 0.16575 0.61658 0.0
C504 C 0.34196 0.16167 0.59567 0.0
C505 C 0.35842 0.15157 0.64243 0.0
O506 O 0.3533 0.13916 0.70885 0.0
O507 O 0.37202 0.15248 0.68737 0.0
C508 C 0.37023 0.14439 0.70099 0.0
O509 O 0.35708 0.18539 0.6801 0.0
O510 O 0.31533 0.13358 0.72646 0.0
O511 O 0.32173 0.16626 0.72539 0.0
O512 O 0.36068 0.18135 0.70632 0.0
C513 C 0.36575 0.19356 0.69466 0.0
O514 O 0.31425 0.15061 0.66588 0.0
O515 O 0.31209 0.16345 0.69066 0.0
O516 O 0.30398 0.12059 0.69135 0.0
O517 O 0.36778 0.16808 0.65312 0.0
O518 O 0.34385 0.1343 0.64799 0.0
O519 O 0.32716 0.11662 0.67621 0.0
C520 C 0.32417 0.15531 0.75057 0.0
C521 C 0.34658 0.16632 0.75507 0.0
C522 C 0.31765 0.15446 0.77818 0.0
C523 C 0.35449 0.17146 0.7711 0.0
C524 C 0.30978 0.14936 0.76218 0.0
C525 C 0.34009 0.16565 0.78284 0.0
C526 C 0.31548 0.15005 0.73387 0.0
C527 C 0.30586 0.15884 0.67539 0.0
H528 H 0.31831 0.14127 0.62884 0.0
H529 H 0.37639 0.17637 0.5936 0.0
H530 H 0.30896 0.14638 0.6019 0.0
H531 H 0.38567 0.17102 0.62055 0.0
H532 H 0.35789 0.17102 0.74619 0.0
H533 H 0.30613 0.14942 0.78691 0.0
H534 H 0.37186 0.18025 0.7743 0.0
H535 H 0.29243 0.14077 0.75886 0.0
Eu536 Eu 0.86439 0.1907 0.70332 0.0
Eu537 Eu 0.84581 0.19012 0.66664 0.0
C538 C 0.87123 0.23303 0.68943 0.0
C539 C 0.8681 0.18551 0.74753 0.0
C540 C 0.8489 0.18565 0.74985 0.0
C541 C 0.86941 0.17545 0.77412 0.0
C542 C 0.84023 0.18113 0.76432 0.0
C543 C 0.87813 0.18012 0.75966 0.0
C544 C 0.85052 0.17622 0.77672 0.0
C545 C 0.87805 0.19151 0.73269 0.0
O546 O 0.88106 0.20035 0.66564 0.0
O547 O 0.88812 0.18824 0.68846 0.0
C548 C 0.89331 0.19544 0.67464 0.0
O549 O 0.83965 0.15644 0.69454 0.0
O550 O 0.84848 0.20714 0.64573 0.0
O551 O 0.82236 0.17425 0.64581 0.0
O552 O 0.84509 0.15872 0.66841 0.0
C553 C 0.83842 0.14729 0.68043 0.0
O554 O 0.83339 0.19116 0.70565 0.0
O555 O 0.81667 0.17831 0.68028 0.0
O556 O 0.85303 0.22097 0.68038 0.0
O557 O 0.87317 0.17575 0.72188 0.0
O558 O 0.87785 0.20776 0.7268 0.0
O559 O 0.88163 0.22435 0.69614 0.0
C560 C 0.8367 0.18512 0.62155 0.0
C561 C 0.84278 0.16952 0.61882 0.0
C562 C 0.83937 0.19176 0.59393 0.0
C563 C 0.84693 0.16492 0.60367 0.0
C564 C 0.83509 0.19623 0.60905 0.0
C565 C 0.84527 0.17599 0.59103 0.0
C566 C 0.83245 0.19033 0.6374 0.0
C567 C 0.81604 0.18282 0.69536 0.0
H568 H 0.84087 0.1897 0.74058 0.0
H569 H 0.87754 0.17137 0.7833 0.0
H570 H 0.82584 0.18214 0.76594 0.0
H571 H 0.89288 0.17978 0.75801 0.0
H572 H 0.84427 0.16086 0.62837 0.0
H573 H 0.83832 0.20088 0.58457 0.0
H574 H 0.85119 0.15252 0.60185 0.0
H575 H 0.83063 0.20848 0.611 0.0
H576 H 0.2917 0.84141 0.0986 0.0
H577 H 0.32428 0.86794 0.08777 0.0
H578 H 0.28899 0.85063 0.04133 0.0
H579 H 0.25612 0.82424 0.05215 0.0
H580 H 0.34565 0.86043 0.06284 0.0
H581 H 0.31681 0.91725 0.04899 0.0
H582 H 0.30407 0.89685 0.06229 0.0
H583 H 0.2992 0.88959 0.04129 0.0
C584 C 0.2908 0.84339 0.08611 0.0
C585 C 0.27129 0.83085 0.07625 0.0
C586 C 0.30945 0.85845 0.07993 0.0
C587 C 0.30895 0.86139 0.0638 0.0
C588 C 0.28961 0.84877 0.05386 0.0
H589 H 0.4229 0.93269 0.01376 0.0
H590 H 0.38843 0.90515 0.02175 0.0
C591 C 0.27092 0.8336 0.06002 0.0
C592 C 0.32884 0.87755 0.05747 0.0
H593 H 0.35128 0.92563 0.04164 0.0
C594 C 0.34689 0.87465 0.05813 0.0
C595 C 0.33039 0.89614 0.0515 0.0
C596 C 0.31168 0.90035 0.05104 0.0
C597 C 0.36651 0.8899 0.05298 0.0
C598 C 0.36801 0.90841 0.04688 0.0
C599 C 0.34998 0.91132 0.04623 0.0
C600 C 0.38846 0.92528 0.04165 0.0
C601 C 0.38566 0.88638 0.05444 0.0
C602 C 0.39962 0.94584 0.04999 0.0
C603 C 0.41932 0.96164 0.04547 0.0
C604 C 0.42814 0.95719 0.03242 0.0
C605 C 0.41664 0.93666 0.02389 0.0
C606 C 0.39697 0.92086 0.02847 0.0
H607 H 0.38314 0.87365 0.06225 0.0
H608 H 0.38818 0.88137 0.04256 0.0
H609 H 0.40065 0.9015 0.0592 0.0
H610 H 0.39324 0.94955 0.06018 0.0
H611 H 0.42769 0.97727 0.05229 0.0
H612 H 0.20992 0.47884 0.08227 0.0
H613 H 0.18039 0.48375 0.07108 0.0
H614 H 0.13427 0.41769 0.07662 0.0
H615 H 0.16368 0.41249 0.08742 0.0
H616 H 0.1276 0.4305 0.04738 0.0
H617 H 0.13602 0.48826 0.09733 0.0
H618 H 0.16044 0.49565 0.0882 0.0
H619 H 0.14868 0.47195 0.09851 0.0
C620 C 0.19352 0.4653 0.08092 0.0
C621 C 0.18911 0.44532 0.08585 0.0
C622 C 0.17665 0.46819 0.0747 0.0
C623 C 0.1551 0.45119 0.07331 0.0
C624 C 0.15075 0.43107 0.07773 0.0
H625 H 0.0373 0.45884 0.05892 0.0
H626 H 0.06627 0.45255 0.06925 0.0
C627 C 0.16757 0.42817 0.08397 0.0
C628 C 0.137 0.45428 0.06731 0.0
H629 H 0.11115 0.4824 0.07522 0.0
C630 C 0.12398 0.44183 0.05346 0.0
C631 C 0.13211 0.46881 0.07542 0.0
C632 C 0.14489 0.48181 0.09077 0.0
C633 C 0.10641 0.44381 0.04734 0.0
C634 C 0.10193 0.45883 0.05519 0.0
C635 C 0.11471 0.471 0.06918 0.0
C636 C 0.08427 0.4624 0.04889 0.0
C637 C 0.0926 0.4296 0.03266 0.0
C638 C 0.08495 0.47024 0.03411 0.0
C639 C 0.06848 0.47383 0.02818 0.0
C640 C 0.05099 0.46976 0.03694 0.0
C641 C 0.05044 0.46204 0.05183 0.0
C642 C 0.067 0.45848 0.05777 0.0
H643 H 0.09453 0.41528 0.03057 0.0
H644 H 0.0752 0.42407 0.03349 0.0
H645 H 0.09759 0.43889 0.02224 0.0
H646 H 0.09835 0.47377 0.02721 0.0
H647 H 0.06954 0.47988 0.01672 0.0
H648 H 0.57067 0.75918 0.05378 0.0
H649 H 0.56091 0.72256 0.04381 0.0
H650 H 0.62306 0.73379 0.06376 0.0
H651 H 0.63313 0.77055 0.07357 0.0
H652 H 0.58342 0.70677 0.02371 0.0
H653 H 0.57661 0.68105 0.0845 0.0
H654 H 0.57668 0.70528 0.07992 0.0
H655 H 0.60156 0.70471 0.08156 0.0
C656 C 0.58243 0.75401 0.05579 0.0
C657 C 0.60261 0.7677 0.06458 0.0
C658 C 0.57678 0.73307 0.05014 0.0
C659 C 0.59116 0.72547 0.05326 0.0
C660 C 0.61163 0.73932 0.06147 0.0
H661 H 0.57641 0.59816 0.04111 0.0
H662 H 0.59039 0.63674 0.04689 0.0
C663 C 0.61732 0.76026 0.06709 0.0
C664 C 0.58438 0.70274 0.04855 0.0
H665 H 0.57165 0.65548 0.06367 0.0
C666 C 0.58084 0.69551 0.03241 0.0
C667 C 0.58107 0.6882 0.05997 0.0
C668 C 0.58399 0.69506 0.07747 0.0
C669 C 0.57429 0.67403 0.02736 0.0
C670 C 0.57077 0.65942 0.03879 0.0
C671 C 0.57443 0.66674 0.05494 0.0
C672 C 0.56285 0.63632 0.03435 0.0
C673 C 0.57157 0.66729 0.00987 0.0
C674 C 0.54271 0.6233 0.02543 0.0
C675 C 0.5347 0.60126 0.02207 0.0
C676 C 0.5466 0.5918 0.02772 0.0
C677 C 0.56683 0.60492 0.03659 0.0
C678 C 0.57485 0.62697 0.03989 0.0
H679 H 0.58077 0.68131 1.00313 0.0
H680 H 0.57704 0.6555 1.00749 0.0
H681 H 0.55418 0.6596 1.00536 0.0
H682 H 0.53294 0.63009 0.02137 0.0
H683 H 0.51901 0.59159 0.01528 0.0
H684 H 0.82505 0.26196 0.93845 0.0
H685 H 0.85333 0.29782 0.94973 0.0
H686 H 0.85076 0.2748 0.99566 0.0
H687 H 0.82294 0.23855 0.98431 0.0
H688 H 0.85273 0.32503 0.97332 0.0
H689 H 0.91516 0.30298 0.9897 0.0
H690 H 0.89074 0.28532 0.97683 0.0
H691 H 0.88994 0.28758 0.99789 0.0
C692 C 0.83064 0.26444 0.95092 0.0
C693 C 0.82195 0.24733 0.96044 0.0
C694 C 0.8467 0.28499 0.95737 0.0
C695 C 0.85441 0.28888 0.97346 0.0
C696 C 0.84535 0.27203 0.98314 0.0
H697 H 0.93315 0.41766 0.02268 0.0
H698 H 0.90468 0.38069 0.01419 0.0
C699 C 0.82928 0.2514 0.97668 0.0
C700 C 0.87188 0.31068 0.98 0.0
H701 H 0.92399 0.33875 0.99756 0.0
C702 C 0.8683 0.32804 0.97866 0.0
C703 C 0.89227 0.31457 0.98674 0.0
C704 C 0.89742 0.29669 0.98778 0.0
C705 C 0.88454 0.34921 0.98389 0.0
C706 C 0.90477 0.35305 0.99096 0.0
C707 C 0.9084 0.33571 0.99226 0.0
C708 C 0.92252 0.37505 0.99673 0.0
C709 C 0.88007 0.36731 0.98142 0.0
C710 C 0.94233 0.38388 0.99014 0.0
C711 C 0.95877 0.40499 0.99507 0.0
C712 C 0.95566 0.41761 1.0067 0.0
C713 C 0.93601 0.40847 0.01358 0.0
C714 C 0.91965 0.38736 0.0087 0.0
H715 H 0.86619 0.36232 0.97228 0.0
H716 H 0.876 0.3723 0.99268 0.0
H717 H 0.89452 0.38149 0.97779 0.0
H718 H 0.9449 0.37458 0.98095 0.0
H719 H 0.97372 0.41152 0.98956 0.0
H720 H 0.72188 0.52178 0.95885 0.0
H721 H 0.68962 0.51743 0.97047 0.0
H722 H 0.70724 0.58242 0.96224 0.0
H723 H 0.73982 0.58711 0.95099 0.0
H724 H 0.69351 0.57137 0.99245 0.0
H725 H 0.63563 0.51066 0.94427 0.0
H726 H 0.65472 0.50425 0.95355 0.0
H727 H 0.6642 0.52717 0.94243 0.0
C728 C 0.71904 0.53524 0.9597 0.0
C729 C 0.73335 0.55476 0.95391 0.0
C730 C 0.70048 0.53265 0.96618 0.0
C731 C 0.69587 0.54949 0.96697 0.0
C732 C 0.71043 0.56917 0.96163 0.0
H733 H 0.57381 0.5435 0.98022 0.0
H734 H 0.60725 0.5483 0.97048 0.0
C735 C 0.72895 0.57178 0.95512 0.0
C736 C 0.67577 0.54657 0.9732 0.0
H737 H 0.62055 0.51778 0.96622 0.0
C738 C 0.67754 0.55965 0.98675 0.0
C739 C 0.655 0.53147 0.96558 0.0
C740 C 0.65216 0.51769 0.95057 0.0
C741 C 0.65905 0.55787 0.993 0.0
C742 C 0.63827 0.54241 0.98559 0.0
C743 C 0.63651 0.5295 0.97194 0.0
C744 C 0.61812 0.53961 0.99166 0.0
C745 C 0.66191 0.57282 1.00728 0.0
C746 C 0.61304 0.53289 1.00673 0.0
C747 C 0.59394 0.53013 0.01236 0.0
C748 C 0.5795 0.53397 1.00298 0.0
C749 C 0.58459 0.54051 0.98781 0.0
C750 C 0.60367 0.54323 0.9822 0.0
H751 H 0.67856 0.58701 0.00916 0.0
H752 H 0.6501 0.57855 1.00607 0.0
H753 H 0.65904 0.56404 0.01797 0.0
H754 H 0.62377 0.52961 0.01411 0.0
H755 H 0.59052 0.52497 0.02406 0.0
H756 H 0.41833 0.17699 0.99987 0.0
H757 H 0.42837 0.1514 0.00969 0.0
H758 H 0.45855 0.15236 0.96719 0.0
H759 H 0.44923 0.17835 0.95756 0.0
H760 H 0.41578 0.11063 0.9955 0.0
H761 H 0.50522 0.16198 1.00202 0.0
H762 H 0.48733 0.17286 0.99987 0.0
H763 H 0.49301 0.16135 0.98277 0.0
C764 C 0.42744 0.17202 0.99277 0.0
C765 C 0.43297 0.17965 0.97794 0.0
C766 C 0.43303 0.15733 0.99833 0.0
C767 C 0.44442 0.15021 0.98924 0.0
C768 C 0.45011 0.15795 0.97452 0.0
H769 H 0.45223 0.0345 0.98995 0.0
H770 H 0.4433 0.06243 0.98477 0.0
C771 C 0.44454 0.1726 0.96896 0.0
C772 C 0.44948 0.13389 0.9947 0.0
H773 H 0.49112 0.12407 1.00194 0.0
C774 C 0.43226 0.11361 0.99708 0.0
C775 C 0.471 0.13793 0.99692 0.0
C776 C 0.49022 0.15978 0.99542 0.0
C777 C 0.43595 0.09697 1.00111 0.0
C778 C 0.45739 0.10068 1.00251 0.0
C779 C 0.47466 0.12119 1.00066 0.0
C780 C 0.46233 0.0835 1.00581 0.0
C781 C 0.41688 0.07565 1.00392 0.0
C782 C 0.47639 0.08632 0.01914 0.0
C783 C 0.4817 0.07052 0.02205 0.0
C784 C 0.47308 0.05158 0.01164 0.0
C785 C 0.45902 0.04881 0.99826 0.0
C786 C 0.45378 0.06469 0.99533 0.0
H787 H 0.40283 0.07734 1.00686 0.0
H788 H 0.41173 0.06438 0.99299 0.0
H789 H 0.42123 0.06843 0.01367 0.0
H790 H 0.48325 0.10078 0.02732 0.0
H791 H 0.49257 0.07318 0.03247 0.0
H792 H 0.70919 0.114 0.95253 0.0
H793 H 0.6738 0.09506 0.96271 0.0
H794 H 0.68752 0.15376 0.98985 0.0
H795 H 0.72274 0.17288 0.97944 0.0
H796 H 0.66384 0.08887 0.99311 0.0
H797 H 0.62865 0.13462 0.96603 0.0
H798 H 0.65326 0.13617 0.96036 0.0
H799 H 0.65381 0.15105 0.97826 0.0
C800 C 0.7046 0.12285 0.96064 0.0
C801 C 0.71862 0.14489 0.96512 0.0
C802 C 0.68443 0.11203 0.96646 0.0
C803 C 0.67789 0.12307 0.97685 0.0
C804 C 0.69203 0.14504 0.98157 0.0
H805 H 0.56778 0.05626 0.03178 0.0
H806 H 0.60403 0.07905 0.02386 0.0
C807 C 0.71221 0.15591 0.97569 0.0
C808 C 0.65637 0.11137 0.98286 0.0
H809 H 0.60778 0.10963 0.98356 0.0
C810 C 0.65159 0.09342 0.99106 0.0
C811 C 0.64033 0.11721 0.97999 0.0
C812 C 0.64413 0.13569 0.97056 0.0
C813 C 0.63119 0.08108 0.99644 0.0
C814 C 0.6153 0.08717 0.99385 0.0
C815 C 0.62008 0.10515 0.98567 0.0
C816 C 0.59328 0.07447 0.99888 0.0
C817 C 0.62665 0.06127 1.00441 0.0
C818 C 0.57513 0.06502 0.98753 0.0
C819 C 0.55437 0.05218 0.99202 0.0
C820 C 0.55137 0.04855 0.00797 0.0
C821 C 0.56954 0.05856 0.01938 0.0
C822 C 0.59029 0.0715 0.01487 0.0
H823 H 0.6384 0.0559 1.00192 0.0
H824 H 0.62797 0.06495 0.01741 0.0
H825 H 0.61002 0.04778 1.0005 0.0
H826 H 0.57706 0.06719 0.97513 0.0
H827 H 0.54076 0.04477 0.98292 0.0
H828 H 0.8307 0.52105 0.92735 0.0
H829 H 0.85852 0.51415 0.93917 0.0
H830 H 0.84882 0.53294 0.98563 0.0
H831 H 0.82074 0.53959 0.97388 0.0
H832 H 0.89695 0.54315 0.95754 0.0
H833 H 0.84464 0.47481 0.9908 0.0
H834 H 0.83371 0.48415 0.97546 0.0
H835 H 0.8429 0.49866 0.99485 0.0
C836 C 0.83441 0.52355 0.9401 0.0
C837 C 0.82351 0.53072 0.94969 0.0
C838 C 0.85031 0.51964 0.94682 0.0
C839 C 0.85555 0.52277 0.96329 0.0
C840 C 0.84472 0.53002 0.97293 0.0
H841 H 0.94982 0.50817 0.02315 0.0
H842 H 0.9223 0.51633 0.01282 0.0
C843 C 0.82876 0.5339 0.96619 0.0
C844 C 0.8728 0.51902 0.97022 0.0
H845 H 0.88244 0.48824 0.99491 0.0
C846 C 0.89378 0.53113 0.96569 0.0
C847 C 0.86862 0.50337 0.98089 0.0
C848 C 0.84622 0.48934 0.98572 0.0
C849 C 0.91075 0.5281 0.97161 0.0
C850 C 0.90652 0.51229 0.98215 0.0
C851 C 0.88561 0.50034 0.98682 0.0
C852 C 0.92352 0.5077 0.98829 0.0
C853 C 0.93313 0.54205 0.96672 0.0
C854 C 0.9332 0.49997 0.97792 0.0
C855 C 0.94897 0.49529 0.98377 0.0
C856 C 0.95526 0.49815 1.00013 0.0
C857 C 0.94544 0.50583 0.01049 0.0
C858 C 0.92967 0.51048 1.00462 0.0
H859 H 0.9349 0.5569 0.96208 0.0
H860 H 0.94575 0.54671 0.97682 0.0
H861 H 0.9361 0.53291 0.95721 0.0
H862 H 0.92839 0.49732 0.9653 0.0
H863 H 0.9561 0.48932 0.97546 0.0
H864 H 0.39116 0.27646 0.98322 0.0
H865 H 0.40653 0.3152 0.98999 0.0
H866 H 0.47015 0.32272 0.99901 0.0
H867 H 0.45474 0.28396 0.99288 0.0
H868 H 0.46402 0.34662 0.02077 0.0
H869 H 0.43979 0.36006 0.96127 0.0
H870 H 0.41712 0.34109 0.97062 0.0
H871 H 0.43758 0.33482 0.96549 0.0
C872 C 0.40839 0.28641 0.98678 0.0
C873 C 0.42176 0.27728 0.98749 0.0
C874 C 0.41718 0.30853 0.9905 0.0
C875 C 0.43957 0.32193 0.99463 0.0
C876 C 0.45285 0.3127 0.99576 0.0
H877 H 0.50926 0.45996 0.99021 0.0
H878 H 0.49421 0.42105 0.98592 0.0
C879 C 0.44402 0.29055 0.99226 0.0
C880 C 0.44925 0.34558 0.99764 0.0
H881 H 0.45369 0.38956 0.98118 0.0
C882 C 0.46183 0.35604 0.0121 0.0
C883 C 0.44671 0.3579 0.98619 0.0
C884 C 0.43476 0.34794 0.96997 0.0
C885 C 0.47177 0.37843 0.0155 0.0
C886 C 0.46846 0.39062 1.00432 0.0
C887 C 0.45604 0.38019 0.98981 0.0
C888 C 0.47799 0.41427 1.00727 0.0
C889 C 0.48617 0.38881 0.03085 0.0
C890 C 0.47374 0.42341 0.02062 0.0
C891 C 0.4826 0.44567 0.02322 0.0
C892 C 0.49546 0.45917 0.01231 0.0
C893 C 0.49939 0.44998 0.99881 0.0
C894 C 0.4908 0.42774 0.99635 0.0
H895 H 0.49229 0.37852 0.03558 0.0
H896 H 0.50026 0.40474 0.02934 0.0
H897 H 0.47669 0.39114 0.03981 0.0
H898 H 0.46338 0.41331 0.02896 0.0
H899 H 0.47907 0.45227 0.03364 0.0
H900 H 0.17287 0.70303 0.09636 0.0
H901 H 0.14441 0.66792 0.08377 0.0
H902 H 0.15277 0.69306 0.03835 0.0
H903 H 0.1815 0.7283 0.05091 0.0
H904 H 0.10538 0.65913 0.06601 0.0
H905 H 0.15587 0.63728 0.03061 0.0
H906 H 0.1675 0.65827 0.0469 0.0
H907 H 0.15823 0.66303 0.0283 0.0
C908 C 0.16874 0.70102 0.08367 0.0
C909 C 0.17941 0.71831 0.07461 0.0
C910 C 0.15248 0.681 0.07651 0.0
C911 C 0.14663 0.67785 0.06013 0.0
C912 C 0.15729 0.69509 0.05098 0.0
H913 H 0.04912 0.55624 1.00565 0.0
H914 H 0.07619 0.59432 0.01269 0.0
C915 C 0.17361 0.7152 0.05817 0.0
C916 C 0.12894 0.65659 0.05289 0.0
H917 H 0.11852 0.61212 0.02886 0.0
C918 C 0.1082 0.64891 0.0578 0.0
C919 C 0.13267 0.64338 0.04209 0.0
C920 C 0.15478 0.65074 0.03669 0.0
C921 C 0.09117 0.62815 0.05248 0.0
C922 C 0.0951 0.6146 0.0422 0.0
C923 C 0.11561 0.62255 0.03678 0.0
C924 C 0.07856 0.5917 0.03783 0.0
C925 C 0.06914 0.62083 0.05801 0.0
C926 C 0.07119 0.57761 0.04962 0.0
C927 C 0.0558 0.55593 0.04567 0.0
C928 C 0.04753 0.54784 0.02981 0.0
C929 C 0.05508 0.56197 0.01798 0.0
C930 C 0.07056 0.58371 0.02196 0.0
H931 H 0.06713 0.63471 0.06184 0.0
H932 H 0.056 0.61035 0.04853 0.0
H933 H 0.06729 0.61147 0.06829 0.0
H934 H 0.07749 0.58337 0.06191 0.0
H935 H 0.05046 0.54552 0.05509 0.0
H936 H 0.29067 0.47132 0.06674 0.0
H937 H 0.32405 0.48165 0.0542 0.0
H938 H 0.35416 0.47517 0.09742 0.0
H939 H 0.32099 0.46505 0.11009 0.0
H940 H 0.37046 0.51831 0.06822 0.0
H941 H 0.35812 0.43556 0.05895 0.0
H942 H 0.33587 0.44056 0.06065 0.0
H943 H 0.35333 0.44384 0.07794 0.0
C944 C 0.30441 0.47211 0.07357 0.0
C945 C 0.30328 0.46734 0.08939 0.0
C946 C 0.32343 0.47804 0.0664 0.0
C947 C 0.34143 0.47902 0.07489 0.0
C948 C 0.34035 0.47436 0.09068 0.0
H949 H 0.47608 0.53044 0.06024 0.0
H950 H 0.44152 0.52159 0.0702 0.0
C951 C 0.32145 0.46863 0.09788 0.0
C952 C 0.36146 0.48493 0.06734 0.0
H953 H 0.39185 0.46421 0.05351 0.0
C954 C 0.37513 0.50652 0.06491 0.0
C955 C 0.36736 0.46942 0.06301 0.0
C956 C 0.35291 0.44598 0.06514 0.0
C957 C 0.39489 0.51309 0.05854 0.0
C958 C 0.40104 0.49766 0.05457 0.0
C959 C 0.3871 0.47599 0.05666 0.0
C960 C 0.42199 0.5037 0.04835 0.0
C961 C 0.40906 0.53645 0.05606 0.0
C962 C 0.42239 0.49641 0.03281 0.0
C963 C 0.44209 0.50148 0.02705 0.0
C964 C 0.46177 0.51373 0.0368 0.0
C965 C 0.46127 0.52101 0.05239 0.0
C966 C 0.44155 0.51605 0.0581 0.0
H967 H 0.40017 0.54545 0.05677 0.0
H968 H 0.42308 0.54407 0.06532 0.0
H969 H 0.41549 0.53797 0.04437 0.0
H970 H 0.40743 0.48675 0.02515 0.0
H971 H 0.44185 0.49552 0.01501 0.0
H972 H 0.62482 0.9001 0.06545 0.0
H973 H 0.60469 0.91839 0.05865 0.0
H974 H 0.54575 0.85698 0.04886 0.0
H975 H 0.56595 0.83864 0.05503 0.0
H976 H 0.54839 0.8825 0.02697 0.0
H977 H 0.56579 0.92769 0.08591 0.0
H978 H 0.59017 0.93329 0.07744 0.0
H979 H 0.57203 0.90651 0.0823 0.0
C980 C 0.60758 0.89056 0.06178 0.0
C981 C 0.59694 0.86803 0.06078 0.0
C982 C 0.59606 0.901 0.05805 0.0
C983 C 0.57361 0.88907 0.05361 0.0
C984 C 0.56303 0.8665 0.05234 0.0
H985 H 0.49541 0.95141 0.0521 0.0
H986 H 0.5106 0.92842 0.05816 0.0
C987 C 0.5746 0.85605 0.05586 0.0
C988 C 0.56121 0.9001 0.05007 0.0
H989 H 0.55122 0.93902 0.06493 0.0
C990 C 0.54885 0.89474 0.03532 0.0
C991 C 0.56141 0.91571 0.0611 0.0
C992 C 0.57287 0.92097 0.07763 0.0
C993 C 0.53723 0.90502 0.03111 0.0
C994 C 0.53858 0.9216 0.04175 0.0
C995 C 0.5504 0.9265 0.05669 0.0
C996 C 0.52833 0.93446 0.03756 0.0
C997 C 0.52342 0.89776 0.01539 0.0
C998 C 0.53329 0.94554 0.024 0.0
C999 C 0.5244 0.9584 0.0204 0.0
C1000 C 0.51075 0.96084 0.03048 0.0
C1001 C 0.50588 0.94985 0.04411 0.0
C1002 C 0.51454 0.93672 0.04758 0.0
H1003 H 0.51828 0.88079 0.01135 0.0
H1004 H 0.50872 0.89921 0.01602 0.0
H1005 H 0.53302 0.90791 1.00634 0.0
H1006 H 0.54441 0.94461 0.01636 0.0
H1007 H 0.52868 0.96688 0.00992 0.0
H1008 H 0.91604 0.15945 0.38262 0.0
H1009 H 0.94973 0.1855 0.37257 0.0
H1010 H 0.98546 0.1923 0.41733 0.0
H1011 H 0.95197 0.16599 0.42736 0.0
H1012 H 0.97856 0.22891 0.38566 0.0
H1013 H 0.01888 0.17987 0.38415 0.0
H1014 H 0.99012 0.16827 0.38532 0.0
H1015 H 0.00893 0.18186 0.40269 0.0
C1016 C 0.93112 0.1663 0.39025 0.0
C1017 C 0.93137 0.16065 0.40577 0.0
C1018 C 0.9503 0.18125 0.38452 0.0
C1019 C 0.97007 0.19062 0.39416 0.0
C1020 C 0.97039 0.18501 0.40964 0.0
H1021 H 0.0916 0.306 0.38601 0.0
H1022 H 0.05688 0.27852 0.39366 0.0
C1023 C 0.95123 0.17014 0.4154 0.0
C1024 C 0.9903 0.20676 0.38821 0.0
H1025 H 0.04057 0.21682 0.38033 0.0
C1026 C 0.99209 0.22626 0.38441 0.0
C1027 C 0.0078 0.20311 0.38645 0.0
C1028 C 0.00636 0.18208 0.38972 0.0
C1029 C 0.01118 0.24246 0.37924 0.0
C1030 C 0.02895 0.2391 0.378 0.0
C1031 C 0.02696 0.2194 0.38143 0.0
C1032 C 0.0498 0.25588 0.37322 0.0
C1033 C 0.01214 0.26298 0.37503 0.0
C1034 C 0.05747 0.25208 0.35933 0.0
C1035 C 0.07734 0.26772 0.35493 0.0
C1036 C 0.08999 0.2874 0.36442 0.0
C1037 C 0.08226 0.29108 0.37839 0.0
C1038 C 0.06236 0.27544 0.38275 0.0
H1039 H 0.9957 0.26096 0.37291 0.0
H1040 H 0.02126 0.27577 0.38495 0.0
H1041 H 0.02066 0.26848 0.3643 0.0
H1042 H 0.04804 0.23701 0.35187 0.0
H1043 H 0.0828 0.2643 0.34412 0.0
H1044 H 0.87592 0.80994 0.41135 0.0
H1045 H 0.84663 0.81455 0.39915 0.0
H1046 H 0.7995 0.75126 0.40999 0.0
H1047 H 0.82862 0.74637 0.4219 0.0
H1048 H 0.79226 0.76083 0.37888 0.0
H1049 H 0.80485 0.82444 0.42561 0.0
H1050 H 0.82844 0.82925 0.41615 0.0
H1051 H 0.81628 0.80721 0.42804 0.0
C1052 C 0.85933 0.79692 0.41093 0.0
C1053 C 0.85453 0.77788 0.4177 0.0
C1054 C 0.84263 0.79965 0.4041 0.0
C1055 C 0.82091 0.78337 0.40392 0.0
C1056 C 0.81615 0.76406 0.41013 0.0
H1057 H 0.70359 0.79078 0.39073 0.0
H1058 H 0.73321 0.78519 0.40049 0.0
C1059 C 0.83279 0.76136 0.417 0.0
C1060 C 0.80303 0.78652 0.39757 0.0
H1061 H 0.77835 0.81608 0.40417 0.0
C1062 C 0.78922 0.77294 0.38436 0.0
C1063 C 0.79896 0.80212 0.40492 0.0
C1064 C 0.81276 0.81651 0.41955 0.0
C1065 C 0.77152 0.77468 0.3782 0.0
C1066 C 0.76771 0.79056 0.38537 0.0
C1067 C 0.78141 0.80401 0.39866 0.0
C1068 C 0.74956 0.79346 0.37927 0.0
C1069 C 0.75681 0.75928 0.36425 0.0
C1070 C 0.74906 0.80009 0.36417 0.0
C1071 C 0.7322 0.80331 0.35855 0.0
C1072 C 0.71552 0.80002 0.36797 0.0
C1073 C 0.71609 0.79336 0.38313 0.0
C1074 C 0.73302 0.79021 0.38875 0.0
H1075 H 0.75887 0.74499 0.36254 0.0
H1076 H 0.73956 0.75374 0.36577 0.0
H1077 H 0.76072 0.76763 0.35335 0.0
H1078 H 0.76187 0.80303 0.35678 0.0
H1079 H 0.73235 0.8085 0.34685 0.0
H1080 H 0.25931 0.09965 0.3806 0.0
H1081 H 0.24704 0.06225 0.37092 0.0
H1082 H 0.22397 0.04209 0.41598 0.0
H1083 H 0.23537 0.07919 0.42551 0.0
H1084 H 0.26114 0.03631 0.38316 0.0
H1085 H 0.1725 -0.00049 0.38525 0.0
H1086 H 0.19044 0.02825 0.38645 0.0
H1087 H 0.18791 0.01412 0.40367 0.0
C1088 C 0.25123 0.08718 0.38833 0.0
C1089 C 0.24835 0.09239 0.40383 0.0
C1090 C 0.24436 0.06586 0.38282 0.0
C1091 C 0.23435 0.04937 0.39267 0.0
C1092 C 0.23126 0.05449 0.40808 0.0
H1093 H 0.19544 0.91461 0.3897 0.0
H1094 H 0.2049 0.95188 0.39706 0.0
C1095 C 0.23806 0.07576 0.41358 0.0
C1096 C 0.22831 0.027 0.38721 0.0
H1097 H 0.18608 0.97524 0.38238 0.0
C1098 C 0.24469 0.02298 0.38283 0.0
C1099 C 0.20684 0.00964 0.38684 0.0
C1100 C 0.18837 0.01308 0.39065 0.0
C1101 C 0.24029 0.00198 0.37849 0.0
C1102 C 0.21891 0.98462 0.37838 0.0
C1103 C 0.20248 0.98862 0.38259 0.0
C1104 C 0.21328 0.96216 0.37388 0.0
C1105 C 0.25863 0.99844 0.37445 0.0
C1106 C 0.2147 0.95564 0.35837 0.0
C1107 C 0.2093 0.9344 0.35411 0.0
C1108 C 0.20233 0.91927 0.36529 0.0
C1109 C 0.20083 0.92586 0.38082 0.0
C1110 C 0.20617 0.94712 0.38505 0.0
H1111 H 0.27473 0.01278 0.3784 0.0
H1112 H 0.25758 0.98437 0.37995 0.0
H1113 H 0.25749 0.9951 0.36143 0.0
H1114 H 0.21985 0.96697 0.34954 0.0
H1115 H 0.21056 0.92986 0.34204 0.0
H1116 H 0.48586 0.56832 0.31898 0.0
H1117 H 0.51309 0.6044 0.33112 0.0
H1118 H 0.51539 0.62943 0.28601 0.0
H1119 H 0.48784 0.5937 0.27393 0.0
H1120 H 0.55516 0.62994 0.32308 0.0
H1121 H 0.50746 0.67104 0.31575 0.0
H1122 H 0.49509 0.6421 0.3138 0.0
H1123 H 0.50776 0.65713 0.29765 0.0
C1124 C 0.49193 0.5816 0.31172 0.0
C1125 C 0.48472 0.57817 0.2955 0.0
C1126 C 0.50756 0.60214 0.31865 0.0
C1127 C 0.51606 0.61961 0.3095 0.0
C1128 C 0.50878 0.61625 0.29334 0.0
H1129 H 0.63594 0.74082 0.3234 0.0
H1130 H 0.60698 0.70362 0.31611 0.0
C1131 C 0.49321 0.59577 0.28642 0.0
C1132 C 0.53319 0.64123 0.3166 0.0
H1133 H 0.54578 0.6937 0.32171 0.0
C1134 C 0.55307 0.64387 0.32294 0.0
C1135 C 0.53031 0.65931 0.31657 0.0
C1136 C 0.50893 0.65728 0.31073 0.0
C1137 C 0.57043 0.66427 0.32878 0.0
C1138 C 0.5679 0.68249 0.32799 0.0
C1139 C 0.54777 0.67973 0.32214 0.0
C1140 C 0.58595 0.70464 0.33296 0.0
C1141 C 0.59128 0.66609 0.33578 0.0
C1142 C 0.58361 0.71767 0.34466 0.0
C1143 C 0.60003 0.73897 0.34874 0.0
C1144 C 0.61911 0.74771 0.34115 0.0
C1145 C 0.62152 0.73456 0.32954 0.0
C1146 C 0.60503 0.71324 0.32542 0.0
H1147 H 0.58859 0.65056 0.33968 0.0
H1148 H 0.60283 0.67067 0.32667 0.0
H1149 H 0.59886 0.67861 0.34604 0.0
H1150 H 0.56897 0.71137 0.35056 0.0
H1151 H 0.59764 0.74864 0.35775 0.0
H1152 H 0.38986 0.85863 0.29313 0.0
H1153 H 0.35623 0.85256 0.30351 0.0
H1154 H 0.37486 0.91887 0.29933 0.0
H1155 H 0.40815 0.92482 0.2886 0.0
H1156 H 0.34758 0.86992 0.32899 0.0
H1157 H 0.31596 0.88797 0.2744 0.0
H1158 H 0.33931 0.88449 0.27523 0.0
H1159 H 0.34199 0.9098 0.28249 0.0
C1160 C 0.3868 0.87191 0.29455 0.0
C1161 C 0.40144 0.89212 0.2899 0.0
C1162 C 0.36759 0.86843 0.30043 0.0
C1163 C 0.36278 0.88513 0.30183 0.0
C1164 C 0.3779 0.90558 0.29789 0.0
H1165 H 0.26427 0.88721 0.35567 0.0
H1166 H 0.29797 0.89218 0.34638 0.0
C1167 C 0.39695 0.90899 0.29184 0.0
C1168 C 0.3419 0.88116 0.30728 0.0
H1169 H 0.29724 0.88531 0.29709 0.0
C1170 C 0.33651 0.87318 0.32199 0.0
C1171 C 0.32726 0.88502 0.298 0.0
C1172 C 0.33129 0.89207 0.28158 0.0
C1173 C 0.31709 0.86938 0.32782 0.0
C1174 C 0.30297 0.87425 0.31888 0.0
C1175 C 0.30818 0.88183 0.30403 0.0
C1176 C 0.28255 0.87138 0.32455 0.0
C1177 C 0.31173 0.85976 0.34334 0.0
C1178 C 0.26274 0.85871 0.31512 0.0
C1179 C 0.24349 0.85618 0.32026 0.0
C1180 C 0.24366 0.86621 0.33499 0.0
C1181 C 0.26355 0.87908 0.34434 0.0
C1182 C 0.28282 0.8818 0.3391 0.0
H1183 H 0.32048 0.851 0.34612 0.0
H1184 H 0.31678 0.87286 0.35301 0.0
H1185 H 0.29406 0.84848 0.34321 0.0
H1186 H 0.26214 0.85063 0.3038 0.0
H1187 H 0.22846 0.84615 0.31275 0.0
H1188 H 0.07793 0.50664 0.33231 0.0
H1189 H 0.08806 0.48191 0.34368 0.0
H1190 H 0.1169 0.47867 0.30134 0.0
H1191 H 0.10759 0.50386 0.29018 0.0
H1192 H 0.07516 0.44037 0.33206 0.0
H1193 H 0.16444 0.49077 0.33592 0.0
H1194 H 0.14669 0.50167 0.33291 0.0
H1195 H 0.15179 0.4885 0.31648 0.0
C1196 C 0.08676 0.50093 0.32555 0.0
C1197 C 0.09193 0.50717 0.31034 0.0
C1198 C 0.09241 0.48672 0.33202 0.0
C1199 C 0.10349 0.47871 0.32344 0.0
C1200 C 0.10874 0.485 0.3083 0.0
H1201 H 0.10934 0.36304 0.32589 0.0
H1202 H 0.10003 0.3909 0.32168 0.0
C1203 C 0.10314 0.49917 0.30185 0.0
C1204 C 0.10868 0.46292 0.32985 0.0
H1205 H 0.15016 0.45281 0.33675 0.0
C1206 C 0.09159 0.44317 0.33331 0.0
C1207 C 0.13015 0.46675 0.33172 0.0
C1208 C 0.14934 0.48817 0.32922 0.0
C1209 C 0.0953 0.42674 0.33786 0.0
C1210 C 0.11659 0.43005 0.33865 0.0
C1211 C 0.1338 0.45017 0.33592 0.0
C1212 C 0.12137 0.4127 0.34174 0.0
C1213 C 0.07637 0.406 0.34174 0.0
C1214 C 0.13681 0.41589 0.3542 0.0
C1215 C 0.14238 0.40012 0.35651 0.0
C1216 C 0.13264 0.38085 0.34637 0.0
C1217 C 0.11703 0.37762 0.33398 0.0
C1218 C 0.11157 0.39347 0.33162 0.0
H1219 H 0.06308 0.40847 0.34549 0.0
H1220 H 0.06983 0.39423 0.33103 0.0
H1221 H 0.08134 0.39895 0.35129 0.0
H1222 H 0.14466 0.43067 0.36208 0.0
H1223 H 0.15444 0.40311 0.36619 0.0
H1224 H 0.37219 0.44452 0.28437 0.0
H1225 H 0.33623 0.42522 0.29366 0.0
H1226 H 0.34911 0.48312 0.32154 0.0
H1227 H 0.3849 0.5026 0.31204 0.0
H1228 H 0.32515 0.41807 0.32378 0.0
H1229 H 0.29099 0.46467 0.29671 0.0
H1230 H 0.31581 0.46637 0.2914 0.0
H1231 H 0.31582 0.48085 0.30934 0.0
C1232 C 0.36729 0.45311 0.29245 0.0
C1233 C 0.38125 0.47503 0.29741 0.0
C1234 C 0.34679 0.4421 0.29775 0.0
C1235 C 0.33987 0.45282 0.30809 0.0
C1236 C 0.35394 0.47466 0.31328 0.0
H1237 H 0.22955 0.38662 0.36237 0.0
H1238 H 0.2657 0.40904 0.35426 0.0
C1239 C 0.37444 0.48573 0.30792 0.0
C1240 C 0.31809 0.44093 0.31365 0.0
H1241 H 0.26962 0.43949 0.31401 0.0
C1242 C 0.313 0.42274 0.32165 0.0
C1243 C 0.30219 0.44692 0.31068 0.0
C1244 C 0.30634 0.46564 0.30144 0.0
C1245 C 0.29247 0.41042 0.32682 0.0
C1246 C 0.27676 0.41673 0.32421 0.0
C1247 C 0.28179 0.43484 0.31614 0.0
C1248 C 0.25475 0.40427 0.3293 0.0
C1249 C 0.28763 0.39043 0.33466 0.0
C1250 C 0.23652 0.39484 0.31802 0.0
C1251 C 0.2158 0.38218 0.32263 0.0
C1252 C 0.21292 0.37873 0.33862 0.0
C1253 C 0.23118 0.38876 0.34994 0.0
C1254 C 0.25189 0.4015 0.34532 0.0
H1255 H 0.29923 0.38489 0.33211 0.0
H1256 H 0.28894 0.39399 0.34767 0.0
H1257 H 0.27093 0.37711 0.33068 0.0
H1258 H 0.23838 0.39688 0.3056 0.0
H1259 H 0.20212 0.37475 0.31359 0.0
H1260 H 0.47845 0.86095 0.30383 0.0
H1261 H 0.50204 0.84743 0.3136 0.0
H1262 H 0.55526 0.89702 0.29237 0.0
H1263 H 0.53192 0.91077 0.28282 0.0
H1264 H 0.52508 0.83231 0.29676 0.0
H1265 H 0.58064 0.90432 0.33816 0.0
H1266 H 0.55472 0.89959 0.32956 0.0
H1267 H 0.57771 0.91043 0.31832 0.0
C1268 C 0.4952 0.86901 0.30132 0.0
C1269 C 0.50347 0.88703 0.29269 0.0
C1270 C 0.50863 0.86124 0.30687 0.0
C1271 C 0.53047 0.87144 0.30392 0.0
C1272 C 0.53858 0.8892 0.29507 0.0
H1273 H 0.62099 0.82411 0.30968 0.0
H1274 H 0.59467 0.83472 0.30096 0.0
C1275 C 0.52523 0.89697 0.28957 0.0
C1276 C 0.54483 0.86345 0.3099 0.0
H1277 H 0.59217 0.87894 0.33273 0.0
C1278 C 0.53968 0.84242 0.30471 0.0
C1279 C 0.56371 0.87661 0.32041 0.0
C1280 C 0.56945 0.89892 0.32708 0.0
C1281 C 0.55324 0.83437 0.30948 0.0
C1282 C 0.57259 0.84786 0.31947 0.0
C1283 C 0.57745 0.86871 0.32493 0.0
C1284 C 0.58798 0.84067 0.32461 0.0
C1285 C 0.54658 0.81142 0.30393 0.0
C1286 C 0.5933 0.84092 0.34079 0.0
C1287 C 0.60848 0.8351 0.34582 0.0
C1288 C 0.61871 0.82893 0.33475 0.0
C1289 C 0.61331 0.82862 0.31852 0.0
C1290 C 0.59816 0.83456 0.3135 0.0
H1291 H 0.52892 0.80165 0.3001 0.0
H1292 H 0.55536 0.81129 0.29367 0.0
H1293 H 0.55069 0.80368 0.31342 0.0
H1294 H 0.5857 0.84567 0.34956 0.0
H1295 H 0.61219 0.83549 0.35841 0.0
H1296 H 0.06009 0.61069 0.30217 0.0
H1297 H 0.07762 0.64967 0.30888 0.0
H1298 H 0.12986 0.64892 0.3366 0.0
H1299 H 0.1126 0.61001 0.32971 0.0
H1300 H 0.08926 0.67386 0.33811 0.0
H1301 H 0.16159 0.69402 0.30636 0.0
H1302 H 0.13755 0.66775 0.30357 0.0
H1303 H 0.15662 0.67533 0.32083 0.0
C1304 C 0.07528 0.61887 0.30974 0.0
C1305 C 0.08506 0.60741 0.31532 0.0
C1306 C 0.08526 0.64108 0.31356 0.0
C1307 C 0.10521 0.6522 0.323 0.0
C1308 C 0.11471 0.64069 0.329 0.0
H1309 H 0.18753 0.7885 0.35526 0.0
H1310 H 0.17176 0.74945 0.35073 0.0
C1311 C 0.10475 0.61845 0.32514 0.0
C1312 C 0.11601 0.67586 0.32648 0.0
H1313 H 0.16142 0.72287 0.32104 0.0
C1314 C 0.10503 0.68458 0.33439 0.0
C1315 C 0.1366 0.68977 0.3216 0.0
C1316 C 0.14875 0.68132 0.3125 0.0
C1317 C 0.11412 0.7069 0.33758 0.0
C1318 C 0.13458 0.72079 0.33255 0.0
C1319 C 0.14572 0.7121 0.32486 0.0
C1320 C 0.14444 0.74443 0.33487 0.0
C1321 C 0.10187 0.71546 0.34643 0.0
C1322 C 0.13451 0.75449 0.32715 0.0
C1323 C 0.14347 0.77676 0.32964 0.0
C1324 C 0.16257 0.78937 0.33991 0.0
C1325 C 0.17277 0.77926 0.34732 0.0
C1326 C 0.1638 0.75697 0.34477 0.0
H1327 H 0.0891 0.70289 0.35271 0.0
H1328 H 0.11304 0.72928 0.35519 0.0
H1329 H 0.09391 0.72115 0.33791 0.0
H1330 H 0.11974 0.74507 0.31924 0.0
H1331 H 0.13524 0.78402 0.32369 0.0
H1332 H 0.79483 0.05936 0.39612 0.0
H1333 H 0.77092 0.02101 0.38758 0.0
H1334 H 0.82672 0.01377 0.38238 0.0
H1335 H 0.85066 0.05227 0.39036 0.0
H1336 H 0.79562 0.99145 0.35835 0.0
H1337 H 0.75951 0.97376 0.41515 0.0
H1338 H 0.75603 0.9938 0.40597 0.0
H1339 H 0.78286 -0.00074 0.41263 0.0
C1340 C 0.80194 0.04957 0.39305 0.0
C1341 C 0.82453 0.05871 0.39395 0.0
C1342 C 0.7883 0.02766 0.3883 0.0
C1343 C 0.79704 0.01442 0.38471 0.0
C1344 C 0.81963 0.02366 0.38519 0.0
H1345 H 0.72449 0.87545 0.38316 0.0
H1346 H 0.75014 0.91391 0.3891 0.0
C1347 C 0.83329 0.04566 0.38976 0.0
C1348 C 0.78264 0.99091 0.38059 0.0
H1349 H 0.74251 0.94583 0.39395 0.0
C1350 C 0.78406 0.98143 0.36615 0.0
C1351 C 0.76785 0.97779 0.39091 0.0
C1352 C 0.7666 0.98661 0.4071 0.0
C1353 C 0.77085 0.95926 0.36165 0.0
C1354 C 0.75538 0.94632 0.37166 0.0
C1355 C 0.7542 0.95577 0.38619 0.0
C1356 C 0.74046 0.92289 0.36752 0.0
C1357 C 0.77399 0.94989 0.34639 0.0
C1358 C 0.72641 0.91509 0.35343 0.0
C1359 C 0.7119 0.89304 0.3499 0.0
C1360 C 0.71087 0.87843 0.36057 0.0
C1361 C 0.72484 0.88629 0.37471 0.0
C1362 C 0.73952 0.90828 0.37812 0.0
H1363 H 0.79041 0.96028 0.34274 0.0
H1364 H 0.77163 0.93357 0.34746 0.0
H1365 H 0.76198 0.94862 0.33684 0.0
H1366 H 0.72638 0.92608 0.34527 0.0
H1367 H 0.7012 0.8875 0.33898 0.0
H1368 H 0.97451 0.76962 0.43155 0.0
H1369 H 0.00854 0.78265 0.41958 0.0
H1370 H 0.99071 0.81876 0.38943 0.0
H1371 H 0.95679 0.80608 0.40157 0.0
H1372 H 0.01402 0.77679 0.38818 0.0
H1373 H 0.05185 0.86386 0.4085 0.0
H1374 H 0.02863 0.84345 0.41679 0.0
H1375 H 0.02532 0.85197 0.3979 0.0
C1376 C 0.97792 0.78043 0.42243 0.0
C1377 C 0.96307 0.78688 0.41754 0.0
C1378 C 0.99733 0.78784 0.41559 0.0
C1379 C 0.00229 0.80189 0.40376 0.0
C1380 C 0.98741 0.80828 0.39877 0.0
H1381 H 0.11575 0.85651 0.35029 0.0
H1382 H 0.08039 0.84609 0.3596 0.0
C1383 C 0.96798 0.80091 0.40565 0.0
C1384 C 0.02277 0.80923 0.3964 0.0
H1385 H 0.07091 0.85377 0.39146 0.0
C1386 C 0.02644 0.79362 0.38887 0.0
C1387 C 0.0389 0.83122 0.39725 0.0
C1388 C 0.03615 0.84863 0.40565 0.0
C1389 C 0.04587 0.79938 0.3823 0.0
C1390 C 0.06217 0.82129 0.38345 0.0
C1391 C 0.05834 0.83698 0.39061 0.0
C1392 C 0.08368 0.82805 0.37797 0.0
C1393 C 0.04883 0.78195 0.37416 0.0
C1394 C 0.09733 0.82166 0.38543 0.0
C1395 C 0.11749 0.82759 0.38019 0.0
C1396 C 0.12444 0.84008 0.36739 0.0
C1397 C 0.11086 0.8468 0.36012 0.0
C1398 C 0.09068 0.84089 0.36543 0.0
H1399 H 0.03308 0.76694 0.37074 0.0
H1400 H 0.05731 0.78735 0.36341 0.0
H1401 H 0.05887 0.77813 0.38236 0.0
H1402 H 0.09237 0.81205 0.39531 0.0
H1403 H 0.12754 0.82225 0.38617 0.0
H1404 H 0.2331 0.17062 0.37657 0.0
H1405 H 0.21548 0.18945 0.36554 0.0
H1406 H 0.25941 0.24657 0.39658 0.0
H1407 H 0.27745 0.22799 0.40732 0.0
H1408 H 0.19417 0.2057 0.38054 0.0
H1409 H 0.26266 0.27132 0.35498 0.0
H1410 H 0.26348 0.24817 0.36123 0.0
H1411 H 0.26941 0.27041 0.37545 0.0
C1412 C 0.23917 0.18728 0.3809 0.0
C1413 C 0.25669 0.19794 0.39277 0.0
C1414 C 0.22908 0.198 0.37459 0.0
C1415 C 0.23635 0.21952 0.38004 0.0
C1416 C 0.2539 0.23016 0.39187 0.0
H1417 H 0.16769 0.28851 0.38291 0.0
H1418 H 0.18374 0.26594 0.38716 0.0
C1419 C 0.2641 0.21951 0.39808 0.0
C1420 C 0.22475 0.23046 0.37414 0.0
H1421 H 0.23257 0.27655 0.35927 0.0
C1422 C 0.20251 0.22106 0.3757 0.0
C1423 C 0.23554 0.25032 0.36757 0.0
C1424 C 0.25904 0.26052 0.36454 0.0
C1425 C 0.19099 0.23145 0.37152 0.0
C1426 C 0.20212 0.25197 0.36597 0.0
C1427 C 0.22412 0.26093 0.36374 0.0
C1428 C 0.19152 0.26485 0.36308 0.0
C1429 C 0.16701 0.22036 0.37313 0.0
C1430 C 0.19093 0.27207 0.3482 0.0
C1431 C 0.1819 0.28515 0.34574 0.0
C1432 C 0.17342 0.29134 0.35818 0.0
C1433 C 0.17395 0.28396 0.37305 0.0
C1434 C 0.183 0.27092 0.37548 0.0
H1435 H 0.15982 0.20263 0.37267 0.0
H1436 H 0.16442 0.2261 0.38473 0.0
H1437 H 0.15824 0.22398 0.36365 0.0
H1438 H 0.19757 0.26768 0.3385 0.0
H1439 H 0.18179 0.29059 0.33415 0.0
H1440 H 0.58965 0.49254 0.71906 0.0
H1441 H 0.62292 0.5178 0.70804 0.0
H1442 H 0.65835 0.53442 0.75439 0.0
H1443 H 0.62542 0.50899 0.7654 0.0
H1444 H 0.64966 0.56306 0.71741 0.0
H1445 H 0.69455 0.5192 0.72593 0.0
H1446 H 0.66557 0.50656 0.72638 0.0
H1447 H 0.68363 0.52335 0.74337 0.0
C1448 C 0.6046 0.50143 0.72685 0.0
C1449 C 0.60494 0.4988 0.74309 0.0
C1450 C 0.62352 0.51589 0.72056 0.0
C1451 C 0.64309 0.52773 0.73038 0.0
C1452 C 0.64346 0.52517 0.74658 0.0
H1453 H 0.77453 0.62629 0.72496 0.0
H1454 H 0.73968 0.59877 0.73234 0.0
C1455 C 0.62459 0.51082 0.75287 0.0
C1456 C 0.66311 0.54328 0.72388 0.0
H1457 H 0.71509 0.55547 0.71991 0.0
C1458 C 0.66392 0.56133 0.71777 0.0
C1459 C 0.68162 0.54091 0.72441 0.0
C1460 C 0.68132 0.52137 0.73024 0.0
C1461 C 0.6831 0.57756 0.71272 0.0
C1462 C 0.70176 0.57541 0.71357 0.0
C1463 C 0.70077 0.5571 0.71935 0.0
C1464 C 0.72269 0.59224 0.70894 0.0
C1465 C 0.68346 0.59722 0.70707 0.0
C1466 C 0.72469 0.59754 0.6933 0.0
C1467 C 0.74459 0.61332 0.68903 0.0
C1468 C 0.76287 0.62395 0.70032 0.0
C1469 C 0.7608 0.61846 0.71597 0.0
C1470 C 0.7409 0.60271 0.72021 0.0
H1471 H 0.66949 0.59868 0.71059 0.0
H1472 H 0.69869 0.61209 0.71184 0.0
H1473 H 0.68261 0.59607 0.69396 0.0
H1474 H 0.71092 0.58934 0.68436 0.0
H1475 H 0.74565 0.61707 0.67687 0.0
H1476 H 0.52777 0.13812 0.77793 0.0
H1477 H 0.49803 0.14291 0.76724 0.0
H1478 H 0.49665 0.11165 0.72204 0.0
H1479 H 0.52624 0.10644 0.73277 0.0
H1480 H 0.4951 0.16403 0.74078 0.0
H1481 H 0.43368 0.07682 0.73409 0.0
H1482 H 0.45943 0.08776 0.74595 0.0
H1483 H 0.45793 0.08394 0.72478 0.0
C1484 C 0.52113 0.13226 0.76571 0.0
C1485 C 0.52918 0.12173 0.75622 0.0
C1486 C 0.50422 0.13508 0.75961 0.0
C1487 C 0.49494 0.12731 0.74395 0.0
C1488 C 0.50339 0.11744 0.73425 0.0
H1489 H 0.40829 0.1553 0.68866 0.0
H1490 H 0.43821 0.15118 0.6996 0.0
C1491 C 0.52041 0.11468 0.74033 0.0
C1492 C 0.47628 0.12943 0.7379 0.0
H1493 H 0.42253 0.10033 0.72424 0.0
C1494 C 0.47923 0.15012 0.73715 0.0
C1495 C 0.45554 0.11123 0.73345 0.0
C1496 C 0.45129 0.08865 0.7347 0.0
C1497 C 0.46204 0.15312 0.73178 0.0
C1498 C 0.44145 0.13492 0.7269 0.0
C1499 C 0.43838 0.11422 0.72792 0.0
C1500 C 0.42305 0.1371 0.72033 0.0
C1501 C 0.46596 0.17572 0.7315 0.0
C1502 C 0.40438 0.13009 0.72823 0.0
C1503 C 0.38711 0.13239 0.72199 0.0
C1504 C 0.3882 0.14156 0.70768 0.0
C1505 C 0.40687 0.14824 0.69973 0.0
C1506 C 0.42408 0.146 0.70599 0.0
H1507 H 0.48089 0.18758 0.73914 0.0
H1508 H 0.46789 0.18021 0.71921 0.0
H1509 H 0.45201 0.17683 0.73548 0.0
H1510 H 0.40327 0.12306 0.73929 0.0
H1511 H 0.37298 0.12702 0.7284 0.0
H1512 H 0.96185 0.43347 0.7406 0.0
H1513 H 0.95269 0.39726 0.73008 0.0
H1514 H 0.89304 0.38759 0.70617 0.0
H1515 H 0.90192 0.42368 0.71681 0.0
H1516 H 0.91456 0.3598 0.73658 0.0
H1517 H 0.91861 0.36604 0.67198 0.0
H1518 H 0.93164 0.38932 0.68648 0.0
H1519 H 0.90292 0.37615 0.68102 0.0
C1520 C 0.94684 0.42369 0.73302 0.0
C1521 C 0.93254 0.43138 0.72961 0.0
C1522 C 0.94171 0.40308 0.72695 0.0
C1523 C 0.9223 0.38987 0.71725 0.0
C1524 C 0.9083 0.39771 0.71339 0.0
H1525 H 0.85203 0.25584 0.67992 0.0
H1526 H 0.86524 0.29419 0.68637 0.0
C1527 C 0.9134 0.41833 0.71948 0.0
C1528 C 0.91581 0.36725 0.7124 0.0
H1529 H 0.90329 0.33091 0.6803 0.0
C1530 C 0.91226 0.35349 0.72429 0.0
C1531 C 0.91265 0.35912 0.69636 0.0
C1532 C 0.9168 0.37342 0.68319 0.0
C1533 C 0.90522 0.33164 0.72055 0.0
C1534 C 0.90215 0.32348 0.7045 0.0
C1535 C 0.90574 0.33726 0.69259 0.0
C1536 C 0.89486 0.30058 0.69988 0.0
C1537 C 0.90055 0.31737 0.73381 0.0
C1538 C 0.90738 0.29162 0.70507 0.0
C1539 C 0.89983 0.2697 0.70151 0.0
C1540 C 0.87971 0.25641 0.69254 0.0
C1541 C 0.86755 0.26561 0.6869 0.0
C1542 C 0.87508 0.28752 0.69054 0.0
H1543 H 0.89828 0.32477 0.74482 0.0
H1544 H 0.8858 0.30144 0.73041 0.0
H1545 H 0.91443 0.31476 0.73647 0.0
H1546 H 0.92292 0.30154 0.71201 0.0
H1547 H 0.9097 0.26317 0.70589 0.0
H1548 H 0.15622 0.93669 0.6089 0.0
H1549 H 0.18547 0.97118 0.62155 0.0
H1550 H 0.18476 0.94232 0.6647 0.0
H1551 H 0.15592 0.90737 0.65187 0.0
H1552 H 0.18667 0.9957 0.64768 0.0
H1553 H 0.24845 0.9707 0.6565 0.0
H1554 H 0.22332 0.95463 0.64395 0.0
H1555 H 0.22369 0.95468 0.66508 0.0
C1556 C 0.16241 0.9376 0.62104 0.0
C1557 C 0.15396 0.91924 0.62932 0.0
C1558 C 0.17902 0.95735 0.62828 0.0
C1559 C 0.18754 0.95921 0.64396 0.0
C1560 C 0.17871 0.94111 0.65247 0.0
H1561 H 0.27176 0.08502 0.69633 0.0
H1562 H 0.24278 0.04814 0.68829 0.0
C1563 C 0.16207 0.92124 0.6452 0.0
C1564 C 0.20558 0.98024 0.65123 0.0
H1565 H 0.25875 0.00621 0.66647 0.0
C1566 C 0.20241 0.998 0.65186 0.0
C1567 C 0.22616 0.98319 0.65646 0.0
C1568 C 0.23077 0.96486 0.65537 0.0
C1569 C 0.2193 0.0187 0.65746 0.0
C1570 C 0.23979 0.02161 0.66292 0.0
C1571 C 0.24296 0.00385 0.66238 0.0
C1572 C 0.25828 0.04315 0.66874 0.0
C1573 C 0.21522 0.03735 0.65696 0.0
C1574 C 0.27705 0.05221 0.66086 0.0
C1575 C 0.29381 0.07325 0.66553 0.0
C1576 C 0.29198 0.08555 0.67815 0.0
C1577 C 0.27354 0.07607 0.68642 0.0
C1578 C 0.25691 0.05503 0.68182 0.0
H1579 H 0.20065 0.03324 0.64879 0.0
H1580 H 0.2125 0.04173 0.66897 0.0
H1581 H 0.22936 0.05166 0.65316 0.0
H1582 H 0.27844 0.04322 0.65078 0.0
H1583 H 0.30783 0.08007 0.65896 0.0
H1584 H 0.07517 0.25228 0.6195 0.0
H1585 H 0.04286 0.24753 0.6312 0.0
H1586 H 0.02509 0.18224 0.63856 0.0
H1587 H 0.05707 0.18667 0.62648 0.0
H1588 H 0.99142 0.18619 0.62371 0.0
H1589 H 0.03028 0.24391 0.67767 0.0
H1590 H 0.04023 0.25515 0.65964 0.0
H1591 H 0.04467 0.23421 0.66617 0.0
C1592 C 0.06441 0.23693 0.62365 0.0
C1593 C 0.06868 0.21985 0.62206 0.0
C1594 C 0.04608 0.23431 0.63048 0.0
C1595 C 0.03174 0.21462 0.63592 0.0
C1596 C 0.03606 0.19761 0.63453 0.0
H1597 H 0.92391 0.18898 0.69036 0.0
H1598 H 0.95727 0.19312 0.68095 0.0
C1599 C 0.05441 0.20022 0.62772 0.0
C1600 C 0.01159 0.21137 0.64223 0.0
H1601 H 0.99247 0.23014 0.67124 0.0
C1602 C 0.99163 0.19571 0.63415 0.0
C1603 C 0.01194 0.22369 0.65593 0.0
C1604 C 0.03291 0.24005 0.66546 0.0
C1605 C 0.97196 0.19232 0.63922 0.0
C1606 C 0.97232 0.20515 0.6526 0.0
C1607 C 0.99228 0.22049 0.66089 0.0
C1608 C 0.95213 0.20278 0.65823 0.0
C1609 C 0.95096 0.1749 0.63032 0.0
C1610 C 0.93833 0.20709 0.64862 0.0
C1611 C 0.91924 0.20474 0.65394 0.0
C1612 C 0.91363 0.19811 0.66901 0.0
C1613 C 0.92766 0.19404 0.67867 0.0
C1614 C 0.94676 0.19643 0.67333 0.0
H1615 H 0.95336 0.16314 0.62296 0.0
H1616 H 0.93882 0.16612 0.6386 0.0
H1617 H 0.94426 0.18233 0.62234 0.0
H1618 H 0.94239 0.21237 0.63702 0.0
H1619 H 0.90888 0.2081 0.64621 0.0
H1620 H 0.75329 0.84309 0.6633 0.0
H1621 H 0.76358 0.81776 0.6733 0.0
H1622 H 0.79632 0.82082 0.63182 0.0
H1623 H 0.78683 0.8466 0.62207 0.0
H1624 H 0.75193 0.7778 0.65873 0.0
H1625 H 0.84135 0.82892 0.6671 0.0
H1626 H 0.82364 0.83995 0.66458 0.0
H1627 H 0.83006 0.82883 0.64765 0.0
C1628 C 0.76306 0.83868 0.65649 0.0
C1629 C 0.7692 0.84678 0.64189 0.0
C1630 C 0.76881 0.82414 0.66216 0.0
C1631 C 0.78094 0.81765 0.6534 0.0
C1632 C 0.78733 0.82594 0.63893 0.0
H1633 H 0.81774 0.7206 0.65276 0.0
H1634 H 0.80963 0.74898 0.64706 0.0
C1635 C 0.78164 0.84046 0.63328 0.0
C1636 C 0.78578 0.80114 0.65876 0.0
H1637 H 0.82708 0.79084 0.66631 0.0
C1638 C 0.76836 0.78071 0.6606 0.0
C1639 C 0.80725 0.80501 0.66116 0.0
C1640 C 0.82665 0.82693 0.66018 0.0
C1641 C 0.77181 0.76381 0.66424 0.0
C1642 C 0.79323 0.76755 0.66619 0.0
C1643 C 0.81067 0.78805 0.66467 0.0
C1644 C 0.79785 0.75027 0.66966 0.0
C1645 C 0.75254 0.74189 0.66548 0.0
C1646 C 0.79399 0.74178 0.68428 0.0
C1647 C 0.79864 0.72564 0.6876 0.0
C1648 C 0.80724 0.71772 0.67633 0.0
C1649 C 0.81106 0.72629 0.66167 0.0
C1650 C 0.8065 0.74252 0.6584 0.0
H1651 H 0.73706 0.74069 0.66081 0.0
H1652 H 0.75434 0.72916 0.65894 0.0
H1653 H 0.75157 0.73873 0.6781 0.0
H1654 H 0.78755 0.74778 0.69317 0.0
H1655 H 0.79554 0.71943 0.69902 0.0
H1656 H 0.03871 0.78685 0.61626 0.0
H1657 H 0.00451 0.76735 0.62798 0.0
H1658 H 0.02219 0.82393 0.65958 0.0
H1659 H 0.05623 0.8436 0.64776 0.0
H1660 H 0.99813 0.75914 0.65945 0.0
H1661 H 0.96174 0.80757 0.63937 0.0
H1662 H 0.98505 0.80882 0.63128 0.0
H1663 H 0.98808 0.82264 0.65035 0.0
C1664 C 0.03525 0.79511 0.62569 0.0
C1665 C 0.05004 0.81671 0.63104 0.0
C1666 C 0.01576 0.78398 0.63237 0.0
C1667 C 0.0107 0.79429 0.64449 0.0
C1668 C 0.0256 0.81581 0.65003 0.0
H1669 H 0.89275 0.74099 0.69349 0.0
H1670 H 0.92931 0.76501 0.68633 0.0
C1671 C 0.0451 0.82698 0.64332 0.0
C1672 C 0.98993 0.78229 0.65141 0.0
H1673 H 0.94155 0.78001 0.65531 0.0
C1674 C 0.98579 0.76375 0.65861 0.0
C1675 C 0.97393 0.78844 0.65037 0.0
C1676 C 0.97726 0.80785 0.64232 0.0
C1677 C 0.96595 0.75099 0.66459 0.0
C1678 C 0.94975 0.7568 0.66315 0.0
C1679 C 0.95408 0.77568 0.6564 0.0
C1680 C 0.9277 0.74258 0.66751 0.0
C1681 C 0.9624 0.7313 0.67232 0.0
C1682 C 0.91466 0.72226 0.65909 0.0
C1683 C 0.89386 0.7086 0.66307 0.0
C1684 C 0.88563 0.71499 0.67557 0.0
C1685 C 0.89863 0.73554 0.68386 0.0
C1686 C 0.91949 0.74928 0.67979 0.0
H1687 H 0.97799 0.73222 0.67626 0.0
H1688 H 0.95307 0.72915 0.68267 0.0
H1689 H 0.95298 0.71685 0.66366 0.0
H1690 H 0.92058 0.71698 0.64938 0.0
H1691 H 0.8843 0.69296 0.65635 0.0
H1692 H 0.15494 0.20341 0.64002 0.0
H1693 H 0.18308 0.19677 0.65163 0.0
H1694 H 0.19298 0.17867 0.60502 0.0
H1695 H 0.16509 0.18557 0.59333 0.0
H1696 H 0.1853 0.15891 0.64944 0.0
H1697 H 0.25415 0.22452 0.6237 0.0
H1698 H 0.22818 0.22297 0.62404 0.0
H1699 H 0.23195 0.20648 0.60935 0.0
C1700 C 0.16312 0.19803 0.63225 0.0
C1701 C 0.15793 0.19507 0.61575 0.0
C1702 C 0.17918 0.19425 0.6389 0.0
C1703 C 0.19035 0.18758 0.62916 0.0
C1704 C 0.18489 0.18426 0.61272 0.0
H1705 H 0.29007 0.15355 0.64428 0.0
H1706 H 0.26169 0.16021 0.63341 0.0
C1707 C 0.16888 0.18806 0.60607 0.0
C1708 C 0.20751 0.18379 0.63619 0.0
H1709 H 0.26115 0.19957 0.63619 0.0
C1710 C 0.20192 0.16788 0.64663 0.0
C1711 C 0.22916 0.19552 0.63248 0.0
C1712 C 0.23632 0.21347 0.6219 0.0
C1713 C 0.21733 0.16305 0.65322 0.0
C1714 C 0.23892 0.17468 0.64941 0.0
C1715 C 0.24454 0.19065 0.63902 0.0
C1716 C 0.25598 0.17054 0.65609 0.0
C1717 C 0.21028 0.14523 0.6639 0.0
C1718 C 0.26234 0.17442 0.67243 0.0
C1719 C 0.27857 0.17066 0.67869 0.0
C1720 C 0.2888 0.16302 0.66872 0.0
C1721 C 0.2825 0.15935 0.65232 0.0
C1722 C 0.26629 0.16316 0.64607 0.0
H1723 H 0.19238 0.1346 0.66263 0.0
H1724 H 0.21784 0.13528 0.66134 0.0
H1725 H 0.21554 0.15237 0.67639 0.0
H1726 H 0.25484 0.18049 0.68032 0.0
H1727 H 0.28305 0.17374 0.69136 0.0
H1728 H 0.78212 0.94528 0.66628 0.0
H1729 H 0.79737 0.98348 0.67508 0.0
H1730 H 0.74621 0.98431 0.64593 0.0
H1731 H 0.73066 0.94601 0.63732 0.0
H1732 H 0.81273 0.01629 0.65638 0.0
H1733 H 0.74636 0.01479 0.68759 0.0
H1734 H 0.74773 0.99083 0.68245 0.0
H1735 H 0.7373 0.00145 0.66787 0.0
C1736 C 0.77395 0.95353 0.66192 0.0
C1737 C 0.75518 0.94273 0.65113 0.0
C1738 C 0.78269 0.97534 0.66695 0.0
C1739 C 0.77276 0.98665 0.66132 0.0
C1740 C 0.75384 0.97578 0.65071 0.0
H1741 H 0.83077 0.12236 0.65265 0.0
H1742 H 0.81548 0.08341 0.64882 0.0
C1743 C 0.74506 0.95397 0.64573 0.0
C1744 C 0.78301 0.01013 0.66562 0.0
H1745 H 0.77326 0.04913 0.68072 0.0
C1746 C 0.80419 0.02347 0.66184 0.0
C1747 C 0.77193 0.01943 0.67292 0.0
C1748 C 0.74966 0.00587 0.6781 0.0
C1749 C 0.81435 0.04593 0.66473 0.0
C1750 C 0.80284 0.05526 0.67126 0.0
C1751 C 0.78194 0.04192 0.67552 0.0
C1752 C 0.81212 0.07886 0.67361 0.0
C1753 C 0.83736 0.05943 0.66083 0.0
C1754 C 0.81475 0.08913 0.68877 0.0
C1755 C 0.82331 0.11137 0.69099 0.0
C1756 C 0.82932 0.12373 0.67807 0.0
C1757 C 0.82647 0.11335 0.66287 0.0
C1758 C 0.81785 0.0911 0.66067 0.0
H1759 H 0.8458 0.04998 0.66031 0.0
H1760 H 0.83718 0.06524 0.64906 0.0
H1761 H 0.84679 0.07364 0.6697 0.0
H1762 H 0.81031 0.07993 0.6989 0.0
H1763 H 0.82526 0.11885 0.70285 0.0
H1764 H 0.51459 0.39743 0.71808 0.0
H1765 H 0.48557 0.36239 0.7054 0.0
H1766 H 0.47388 0.33818 0.75108 0.0
H1767 H 0.50266 0.37303 0.76378 0.0
H1768 H 0.48179 0.32096 0.70704 0.0
H1769 H 0.41363 0.3248 0.73154 0.0
H1770 H 0.44001 0.34832 0.73124 0.0
H1771 H 0.43531 0.33047 0.74635 0.0
C1772 C 0.50579 0.38462 0.72539 0.0
C1773 C 0.51074 0.38788 0.74192 0.0
C1774 C 0.48925 0.36467 0.71814 0.0
C1775 C 0.47737 0.34788 0.72735 0.0
C1776 C 0.48256 0.35109 0.74381 0.0
H1777 H 0.385 0.21589 0.72353 0.0
H1778 H 0.41155 0.25407 0.72932 0.0
C1779 C 0.49907 0.37092 0.75103 0.0
C1780 C 0.45985 0.3267 0.71991 0.0
H1781 H 0.40654 0.28987 0.72143 0.0
C1782 C 0.46523 0.31424 0.70992 0.0
C1783 C 0.43829 0.3181 0.72366 0.0
C1784 C 0.43138 0.33119 0.73366 0.0
C1785 C 0.44982 0.29286 0.70435 0.0
C1786 C 0.42853 0.28395 0.70876 0.0
C1787 C 0.42294 0.29675 0.71815 0.0
C1788 C 0.41229 0.2609 0.70488 0.0
C1789 C 0.45668 0.27961 0.69448 0.0
C1790 C 0.40377 0.25218 0.6892 0.0
C1791 C 0.38852 0.23027 0.68582 0.0
C1792 C 0.38156 0.21681 0.69809 0.0
C1793 C 0.39002 0.22575 0.71379 0.0
C1794 C 0.40518 0.24758 0.71714 0.0
H1795 H 0.47453 0.28788 0.69419 0.0
H1796 H 0.45123 0.26381 0.69915 0.0
H1797 H 0.44897 0.27649 0.68216 0.0
H1798 H 0.40887 0.26231 0.67961 0.0
H1799 H 0.38228 0.2239 0.67361 0.0
H1800 H 0.62809 0.14241 0.73635 0.0
H1801 H 0.66232 0.15526 0.72463 0.0
H1802 H 0.67491 0.11145 0.7496 0.0
H1803 H 0.64054 0.0983 0.76115 0.0
H1804 H 0.70413 0.17451 0.73958 0.0
H1805 H 0.68316 0.09838 0.70412 0.0
H1806 H 0.66305 0.10282 0.71269 0.0
H1807 H 0.67945 0.09536 0.72467 0.0
C1808 C 0.63808 0.13542 0.73926 0.0
C1809 C 0.63163 0.11924 0.74959 0.0
C1810 C 0.65765 0.14281 0.73258 0.0
C1811 C 0.67099 0.13408 0.73606 0.0
C1812 C 0.66464 0.11808 0.74648 0.0
H1813 H 0.80725 0.1866 0.72589 0.0
H1814 H 0.77203 0.17585 0.73526 0.0
C1815 C 0.64508 0.11066 0.75313 0.0
C1816 C 0.69184 0.14208 0.72912 0.0
H1817 H 0.72036 0.12584 0.70701 0.0
C1818 C 0.70765 0.16392 0.73237 0.0
C1819 C 0.69628 0.12829 0.71953 0.0
C1820 C 0.67952 0.10496 0.7149 0.0
C1821 C 0.728 0.17223 0.72662 0.0
C1822 C 0.73277 0.15823 0.71763 0.0
C1823 C 0.71676 0.13651 0.71404 0.0
C1824 C 0.75431 0.16566 0.7119 0.0
C1825 C 0.74412 0.19595 0.73012 0.0
C1826 C 0.75603 0.16317 0.69568 0.0
C1827 C 0.77613 0.16911 0.69028 0.0
C1828 C 0.79493 0.17759 0.70102 0.0
C1829 C 0.79317 0.18024 0.71727 0.0
C1830 C 0.77304 0.17423 0.72265 0.0
H1831 H 0.73601 0.20529 0.73305 0.0
H1832 H 0.75568 0.19847 0.74047 0.0
H1833 H 0.75351 0.20245 0.71991 0.0
H1834 H 0.74176 0.1565 0.68718 0.0
H1835 H 0.77685 0.16681 0.67769 0.0
H1836 H 0.90417 0.5055 0.71003 0.0
H1837 H 0.88559 0.52432 0.70071 0.0
H1838 H 0.93146 0.58126 0.73113 0.0
H1839 H 0.9503 0.56266 0.74029 0.0
H1840 H 0.86604 0.54161 0.71864 0.0
H1841 H 0.93134 0.60509 0.68901 0.0
H1842 H 0.93197 0.58148 0.69439 0.0
H1843 H 0.94017 0.60399 0.70897 0.0
C1844 C 0.91044 0.52211 0.71459 0.0
C1845 C 0.92874 0.53273 0.72583 0.0
C1846 C 0.89979 0.53281 0.70927 0.0
C1847 C 0.90735 0.55427 0.71505 0.0
C1848 C 0.92567 0.56486 0.72624 0.0
H1849 H 0.86872 0.64853 0.7161 0.0
H1850 H 0.88435 0.62556 0.7201 0.0
C1851 C 0.93634 0.55421 0.73152 0.0
C1852 C 0.89549 0.56531 0.7101 0.0
H1853 H 0.90235 0.61107 0.69523 0.0
C1854 C 0.87384 0.55663 0.7133 0.0
C1855 C 0.90572 0.58484 0.70307 0.0
C1856 C 0.92851 0.59429 0.69851 0.0
C1857 C 0.86246 0.56754 0.71034 0.0
C1858 C 0.87301 0.58748 0.70393 0.0
C1859 C 0.8944 0.5958 0.70025 0.0
C1860 C 0.86261 0.60061 0.70176 0.0
C1861 C 0.83957 0.55816 0.71467 0.0
C1862 C 0.84512 0.59406 0.69015 0.0
C1863 C 0.83611 0.60719 0.68779 0.0
C1864 C 0.84451 0.62707 0.697 0.0
C1865 C 0.86183 0.63334 0.70878 0.0
C1866 C 0.87084 0.62027 0.71108 0.0
H1867 H 0.83487 0.5442 0.72165 0.0
H1868 H 0.83768 0.57057 0.72161 0.0
H1869 H 0.8282 0.5527 0.7037 0.0
H1870 H 0.83872 0.57901 0.68274 0.0
H1871 H 0.82282 0.60191 0.67859 0.0
H1872 H 0.45373 0.89416 0.23375 0.0
H1873 H 0.46157 0.91083 0.20895 0.0
H1874 H 0.45047 0.96083 0.22835 0.0
H1875 H 0.44239 0.94409 0.25316 0.0
H1876 H 0.43091 0.94515 0.19819 0.0
H1877 H 0.5167 0.96502 0.20158 0.0
H1878 H 0.4981 0.93703 0.20279 0.0
H1879 H 0.50091 0.95674 0.21819 0.0
C1880 C 0.45312 0.9088 0.23276 0.0
C1881 C 0.44761 0.91792 0.24541 0.0
C1882 C 0.45765 0.91832 0.21861 0.0
C1883 C 0.45701 0.93729 0.21693 0.0
C1884 C 0.45115 0.94625 0.22945 0.0
H1885 H 0.51265 0.02029 0.14268 0.0
H1886 H 0.50365 0.00518 0.16794 0.0
C1887 C 0.44648 0.93664 0.24357 0.0
C1888 C 0.46219 0.94765 0.20204 0.0
H1889 H 0.50163 0.96891 0.17709 0.0
C1890 C 0.4464 0.95046 0.1936 0.0
C1891 C 0.48254 0.95484 0.19622 0.0
C1892 C 0.50062 0.95347 0.20524 0.0
C1893 C 0.45026 0.95989 0.17931 0.0
C1894 C 0.47028 0.96625 0.17315 0.0
C1895 C 0.48621 0.96382 0.18175 0.0
C1896 C 0.47514 0.9756 0.15786 0.0
C1897 C 0.43301 0.96327 0.17108 0.0
C1898 C 0.46217 0.96392 0.1438 0.0
C1899 C 0.46711 0.97263 0.12936 0.0
C1900 C 0.48528 0.9931 0.12868 0.0
C1901 C 0.49833 0.00466 0.1428 0.0
C1902 C 0.49331 0.99598 0.15723 0.0
H1903 H 0.42169 0.9634 0.1794 0.0
H1904 H 0.4403 0.97863 0.16557 0.0
H1905 H 0.4234 0.9499 0.16162 0.0
H1906 H 0.44834 0.94797 0.14396 0.0
H1907 H 0.4566 0.96336 0.11875 0.0
H1908 H 0.08466 0.5601 0.25783 0.0
H1909 H 0.07299 0.55316 0.22939 0.0
H1910 H 0.03026 0.48613 0.23465 0.0
H1911 H 0.0415 0.49301 0.26315 0.0
H1912 H 0.07636 0.52344 0.20751 0.0
H1913 H 0.99121 0.50447 0.21006 0.0
H1914 H 0.01186 0.51836 0.22655 0.0
H1915 H 0.99951 0.48972 0.22226 0.0
C1916 C 0.07253 0.54395 0.25296 0.0
C1917 C 0.0639 0.52711 0.26272 0.0
C1918 C 0.06601 0.54 0.23673 0.0
C1919 C 0.05062 0.5192 0.23 0.0
C1920 C 0.04193 0.50235 0.23968 0.0
H1921 H 0.99036 0.4617 0.1352 0.0
H1922 H 0.00256 0.46885 0.16353 0.0
C1923 C 0.04849 0.50627 0.25591 0.0
C1924 C 0.04416 0.51499 0.21275 0.0
H1925 H 0.00093 0.49828 0.18501 0.0
C1926 C 0.0599 0.51803 0.20255 0.0
C1927 C 0.02267 0.50788 0.2064 0.0
C1928 C 0.00533 0.50506 0.21684 0.0
C1929 C 0.05461 0.51376 0.18609 0.0
C1930 C 0.03311 0.50667 0.17972 0.0
C1931 C 0.01739 0.50368 0.18994 0.0
C1932 C 0.02651 0.50227 0.16247 0.0
C1933 C 0.07195 0.51638 0.1757 0.0
C1934 C 0.03591 0.51873 0.15252 0.0
C1935 C 0.02898 0.51469 0.13633 0.0
C1936 C 0.01235 0.49418 0.12987 0.0
C1937 C 0.00305 0.47772 0.13987 0.0
C1938 C 0.01004 0.48175 0.15603 0.0
H1939 H 0.08569 0.51627 0.18248 0.0
H1940 H 0.06528 0.5034 0.16575 0.0
H1941 H 0.0784 0.53203 0.17065 0.0
H1942 H 0.0483 0.53481 0.15732 0.0
H1943 H 0.0362 0.52778 0.12897 0.0
H1944 H 0.49526 0.53466 0.25535 0.0
H1945 H 0.50164 0.52641 0.22866 0.0
H1946 H 0.43352 0.49804 0.21327 0.0
H1947 H 0.42715 0.50719 0.23977 0.0
H1948 H 0.4857 0.48851 0.20957 0.0
H1949 H 0.46125 0.54279 0.18248 0.0
H1950 H 0.46567 0.54307 0.20361 0.0
H1951 H 0.4409 0.52234 0.19271 0.0
C1952 C 0.48165 0.52681 0.24626 0.0
C1953 C 0.46075 0.52187 0.24965 0.0
C1954 C 0.48529 0.52193 0.23105 0.0
C1955 C 0.46812 0.51197 0.21892 0.0
C1956 C 0.44707 0.50614 0.22239 0.0
H1957 H 0.47438 0.4884 0.11778 0.0
H1958 H 0.46087 0.48599 0.14376 0.0
C1959 C 0.44342 0.51115 0.2376 0.0
C1960 C 0.47256 0.50838 0.20259 0.0
H1961 H 0.47138 0.52322 0.16531 0.0
C1962 C 0.48246 0.49599 0.19986 0.0
C1963 C 0.46832 0.5182 0.18996 0.0
C1964 C 0.45863 0.5325 0.1923 0.0
C1965 C 0.48849 0.49337 0.18488 0.0
C1966 C 0.48465 0.50354 0.17238 0.0
C1967 C 0.47419 0.51539 0.17496 0.0
C1968 C 0.49271 0.5034 0.15682 0.0
C1969 C 0.49907 0.4799 0.18255 0.0
C1970 C 0.51507 0.51404 0.15563 0.0
C1971 C 0.52285 0.51572 0.14084 0.0
C1972 C 0.5084 0.50677 0.12692 0.0
C1973 C 0.48596 0.49572 0.12822 0.0
C1974 C 0.4782 0.49418 0.14304 0.0
H1975 H 0.49588 0.46888 0.19193 0.0
H1976 H 0.49324 0.47022 0.17082 0.0
H1977 H 0.51687 0.49066 0.18301 0.0
H1978 H 0.52652 0.52166 0.16612 0.0
H1979 H 0.5402 0.52471 0.1403 0.0
H1980 H 0.97698 0.51611 0.77751 0.0
H1981 H 0.98892 0.52409 0.80596 0.0
H1982 H 0.94566 0.45777 0.81279 0.0
H1983 H 0.93326 0.4497 0.78452 0.0
H1984 H 0.96186 0.5154 0.83316 0.0
H1985 H 0.00852 0.47248 0.8307 0.0
H1986 H 1.00072 0.48144 0.81337 0.0
H1987 H 0.98112 0.45769 0.82137 0.0
C1988 C 0.96983 0.50328 0.7851 0.0
C1989 C 0.95433 0.48221 0.77873 0.0
C1990 C 0.97671 0.50786 0.80131 0.0
C1991 C 0.96832 0.49145 0.81136 0.0
C1992 C 0.95252 0.47056 0.80513 0.0
H1993 H 0.9712 0.4866 0.91184 0.0
H1994 H 0.96176 0.48782 0.88397 0.0
C1995 C 0.94557 0.46597 0.78897 0.0
C1996 C 0.97637 0.49592 0.82833 0.0
H1997 H 0.00384 0.48364 0.85617 0.0
C1998 C 0.97118 0.50863 0.83822 0.0
C1999 C 0.98869 0.48722 0.83478 0.0
C2000 C 0.99529 0.47407 0.82453 0.0
C2001 C 0.97749 0.51231 0.85459 0.0
C2002 C 0.98913 0.50292 0.86112 0.0
C2003 C 0.99485 0.49076 0.85112 0.0
C2004 C 0.99496 0.50476 0.87835 0.0
C2005 C 0.97166 0.52616 0.86476 0.0
C2006 C 0.01675 0.51398 0.88443 0.0
C2007 C 0.02221 0.51335 0.90035 0.0
C2008 C 0.00594 0.5033 0.91046 0.0
C2009 C 0.98414 0.49474 0.90444 0.0
C2010 C 0.9787 0.49542 0.88851 0.0
H2011 H 0.96787 0.53657 0.85763 0.0
H2012 H 0.9571 0.51566 0.87063 0.0
H2013 H 0.98506 0.5365 0.87412 0.0
H2014 H 0.02951 0.52121 0.87674 0.0
H2015 H 0.03915 0.52033 0.90468 0.0
H2016 H 0.52254 0.46697 0.78045 0.0
H2017 H 0.51456 0.47506 0.80668 0.0
H2018 H 0.58231 0.50525 0.82383 0.0
H2019 H 0.59042 0.49703 0.79769 0.0
H2020 H 0.52327 0.46076 0.83505 0.0
H2021 H 0.56533 0.55 0.8385 0.0
H2022 H 0.55858 0.53325 0.82004 0.0
H2023 H 0.58159 0.53838 0.83329 0.0
C2024 C 0.53575 0.47536 0.7898 0.0
C2025 C 0.55712 0.48135 0.78701 0.0
C2026 C 0.53117 0.48005 0.80474 0.0
C2027 C 0.54788 0.49095 0.81711 0.0
C2028 C 0.56926 0.4972 0.81434 0.0
H2029 H 0.55214 0.52678 0.91688 0.0
H2030 H 0.56062 0.52047 0.89037 0.0
C2031 C 0.57386 0.49251 0.7994 0.0
C2032 C 0.54275 0.49472 0.83314 0.0
H2033 H 0.55206 0.53417 0.862 0.0
C2034 C 0.52945 0.4768 0.84093 0.0
C2035 C 0.55098 0.51567 0.84076 0.0
C2036 C 0.56477 0.53547 0.8327 0.0
C2037 C 0.52439 0.47925 0.85629 0.0
C2038 C 0.53252 0.5002 0.86389 0.0
C2039 C 0.54586 0.51813 0.85611 0.0
C2040 C 0.52728 0.50384 0.87992 0.0
C2041 C 0.51078 0.45939 0.86436 0.0
C2042 C 0.50575 0.49675 0.88275 0.0
C2043 C 0.50083 0.50016 0.89789 0.0
C2044 C 0.51739 0.51088 0.91045 0.0
C2045 C 0.53898 0.51817 0.90751 0.0
C2046 C 0.54388 0.51473 0.89237 0.0
H2047 H 0.51069 0.44503 0.85872 0.0
H2048 H 0.51676 0.46175 0.87708 0.0
H2049 H 0.4938 0.45604 0.86351 0.0
H2050 H 0.49275 0.48863 0.87323 0.0
H2051 H 0.48403 0.4942 0.89977 0.0
H2052 H 0.56243 0.06996 0.79376 0.0
H2053 H 0.55317 0.05316 0.81855 0.0
H2054 H 0.53802 0.10118 0.8358 0.0
H2055 H 0.54723 0.11802 0.81116 0.0
H2056 H 0.56869 0.07005 0.85118 0.0
H2057 H 0.48153 0.04336 0.83726 0.0
H2058 H 0.50053 0.05241 0.82258 0.0
H2059 H 0.49942 0.07162 0.83639 0.0
C2060 C 0.55744 0.0771 0.80295 0.0
C2061 C 0.55527 0.09512 0.80047 0.0
C2062 C 0.55209 0.06746 0.81705 0.0
C2063 C 0.5445 0.0757 0.82882 0.0
C2064 C 0.54338 0.09431 0.82669 0.0
H2065 H 0.49507 0.04325 0.91885 0.0
H2066 H 0.50858 0.05957 0.89458 0.0
C2067 C 0.54865 0.1039 0.81263 0.0
C2068 C 0.53701 0.06453 0.84314 0.0
H2069 H 0.49251 0.0397 0.86327 0.0
C2070 C 0.55202 0.06326 0.85381 0.0
C2071 C 0.51521 0.05562 0.84643 0.0
C2072 C 0.49817 0.0556 0.835 0.0
C2073 C 0.54593 0.05392 0.86802 0.0
C2074 C 0.52422 0.04541 0.87144 0.0
C2075 C 0.50916 0.04637 0.86063 0.0
C2076 C 0.51678 0.03576 0.88631 0.0
C2077 C 0.56286 0.05378 0.87945 0.0
C2078 C 0.51676 0.01688 0.8896 0.0
C2079 C 0.50911 0.00755 0.90348 0.0
C2080 C 0.50129 0.01693 0.91428 0.0
C2081 C 0.50126 0.03581 0.91088 0.0
C2082 C 0.50886 0.04509 0.897 0.0
H2083 H 0.57956 0.06507 0.87671 0.0
H2084 H 0.56116 0.05815 0.8918 0.0
H2085 H 0.56064 0.03735 0.87874 0.0
H2086 H 0.52247 0.00925 0.88136 0.0
H2087 H 0.50951 0.99311 0.90582 0.0
H2088 H 0.11165 0.27184 0.58551 0.0
H2089 H 0.1192 0.28879 0.5607 0.0
H2090 H 0.12411 0.2359 0.53908 0.0
H2091 H 0.11647 0.21881 0.56377 0.0
H2092 H 0.15833 0.29886 0.54323 0.0
H2093 H 0.07853 0.24283 0.50907 0.0
H2094 H 0.08219 0.24649 0.53045 0.0
H2095 H 0.09151 0.23083 0.51993 0.0
C2096 C 0.11419 0.26378 0.57542 0.0
C2097 C 0.11346 0.24401 0.57654 0.0
C2098 C 0.11858 0.2735 0.56133 0.0
C2099 C 0.12202 0.26346 0.5481 0.0
C2100 C 0.12131 0.24376 0.54917 0.0
H2101 H 0.14542 0.28915 0.45137 0.0
H2102 H 0.13771 0.27386 0.47666 0.0
C2103 C 0.1171 0.23412 0.56328 0.0
C2104 C 0.12672 0.27373 0.53321 0.0
H2105 H 0.1058 0.26818 0.49497 0.0
C2106 C 0.14685 0.29229 0.53268 0.0
C2107 C 0.11169 0.26495 0.51952 0.0
C2108 C 0.08968 0.24525 0.51968 0.0
C2109 C 0.1526 0.30209 0.51862 0.0
C2110 C 0.13753 0.29335 0.50489 0.0
C2111 C 0.11731 0.27485 0.50551 0.0
C2112 C 0.14253 0.30291 0.48967 0.0
C2113 C 0.17498 0.32129 0.51849 0.0
C2114 C 0.14759 0.32425 0.48855 0.0
C2115 C 0.15232 0.33315 0.47416 0.0
C2116 C 0.15181 0.32077 0.46054 0.0
C2117 C 0.14637 0.29927 0.46167 0.0
C2118 C 0.14177 0.29044 0.47609 0.0
H2119 H 0.18635 0.32221 0.52844 0.0
H2120 H 0.18176 0.32075 0.5072 0.0
H2121 H 0.17405 0.33623 0.51977 0.0
H2122 H 0.1478 0.33402 0.4988 0.0
H2123 H 0.1566 0.3498 0.47376 0.0
H2124 H 0.71561 0.87554 0.5974 0.0
H2125 H 0.7043 0.8699 0.56898 0.0
H2126 H 0.75412 0.8546 0.56001 0.0
H2127 H 0.76621 0.8612 0.58827 0.0
H2128 H 0.75187 0.88105 0.53933 0.0
H2129 H 0.67002 0.81143 0.54346 0.0
H2130 H 0.67576 0.83542 0.5554 0.0
H2131 H 0.69112 0.82238 0.55978 0.0
C2132 C 0.72431 0.8712 0.58937 0.0
C2133 C 0.74168 0.86861 0.59513 0.0
C2134 C 0.71766 0.86774 0.57315 0.0
C2135 C 0.7281 0.86141 0.56244 0.0
C2136 C 0.74573 0.85929 0.56811 0.0
H2137 H 0.6785 0.80117 0.46679 0.0
H2138 H 0.6921 0.81017 0.49489 0.0
C2139 C 0.75247 0.86288 0.58428 0.0
C2140 C 0.72071 0.85692 0.5453 0.0
H2141 H 0.67721 0.82458 0.51837 0.0
C2142 C 0.73555 0.8687 0.53472 0.0
C2143 C 0.69951 0.84059 0.53934 0.0
C2144 C 0.68322 0.82657 0.55006 0.0
C2145 C 0.72974 0.86465 0.51831 0.0
C2146 C 0.70836 0.84871 0.51238 0.0
C2147 C 0.69355 0.83689 0.52296 0.0
C2148 C 0.70104 0.84369 0.49523 0.0
C2149 C 0.7467 0.87708 0.50749 0.0
C2150 C 0.70156 0.85955 0.48612 0.0
C2151 C 0.69393 0.85447 0.47005 0.0
C2152 C 0.68536 0.83337 0.46289 0.0
C2153 C 0.68487 0.81752 0.47204 0.0
C2154 C 0.69266 0.82265 0.48806 0.0
H2155 H 0.76337 0.8841 0.51353 0.0
H2156 H 0.74507 0.86667 0.49674 0.0
H2157 H 0.74464 0.89052 0.50372 0.0
H2158 H 0.70746 0.87575 0.4915 0.0
H2159 H 0.69417 0.86691 0.46333 0.0
H2160 H 0.11948 0.83509 0.58375 0.0
H2161 H 0.12778 0.82853 0.5571 0.0
H2162 H 0.14114 0.89177 0.54699 0.0
H2163 H 0.13303 0.89843 0.57349 0.0
H2164 H 0.11111 0.83039 0.52603 0.0
H2165 H 0.1979 0.89209 0.54046 0.0
H2166 H 0.17955 0.88143 0.55544 0.0
H2167 H 0.17977 0.90195 0.54421 0.0
C2168 C 0.12389 0.84743 0.57573 0.0
C2169 C 0.12595 0.86738 0.58073 0.0
C2170 C 0.12868 0.8437 0.56057 0.0
C2171 C 0.13554 0.85987 0.55026 0.0
C2172 C 0.13639 0.8793 0.55493 0.0
H2173 H 0.17897 0.88263 0.45803 0.0
H2174 H 0.16602 0.88297 0.48392 0.0
C2175 C 0.13173 0.88306 0.57004 0.0
C2176 C 0.14262 0.85694 0.53481 0.0
H2177 H 0.18598 0.87899 0.51328 0.0
C2178 C 0.12751 0.84084 0.52325 0.0
C2179 C 0.16409 0.87055 0.53131 0.0
C2180 C 0.18134 0.88735 0.54355 0.0
C2181 C 0.13312 0.83856 0.50802 0.0
C2182 C 0.15441 0.85263 0.50442 0.0
C2183 C 0.16962 0.86836 0.51609 0.0
C2184 C 0.1612 0.85171 0.48848 0.0
C2185 C 0.11614 0.82163 0.49575 0.0
C2186 C 0.16286 0.83405 0.48257 0.0
C2187 C 0.17026 0.8338 0.46778 0.0
C2188 C 0.17611 0.85123 0.45869 0.0
C2189 C 0.17433 0.86886 0.46466 0.0
C2190 C 0.16704 0.86912 0.47946 0.0
H2191 H 0.09958 0.81475 0.49953 0.0
H2192 H 0.11645 0.82846 0.48433 0.0
H2193 H 0.11966 0.80836 0.49368 0.0
H2194 H 0.15871 0.8206 0.48948 0.0
H2195 H 0.1713 0.81993 0.46343 0.0
H2196 H 0.65113 0.85567 0.10982 0.0
H2197 H 0.6645 0.86539 0.13804 0.0
H2198 H 0.62354 0.79947 0.14703 0.0
H2199 H 0.60967 0.7897 0.11908 0.0
H2200 H 0.63776 0.85703 0.16562 0.0
H2201 H 0.6876 0.81747 0.16476 0.0
H2202 H 0.67908 0.82529 0.14711 0.0
H2203 H 0.66035 0.80133 0.15536 0.0
C2204 C 0.64485 0.84328 0.11783 0.0
C2205 C 0.6295 0.82185 0.11216 0.0
C2206 C 0.65256 0.84886 0.1339 0.0
C2207 C 0.64516 0.83308 0.14449 0.0
C2208 C 0.62966 0.81179 0.13894 0.0
H2209 H 0.64057 0.82447 0.24307 0.0
H2210 H 0.63448 0.82856 0.21525 0.0
C2211 C 0.62187 0.80623 0.12295 0.0
C2212 C 0.6535 0.83858 0.16141 0.0
H2213 H 0.68064 0.82709 0.19005 0.0
C2214 C 0.6474 0.85079 0.17098 0.0
C2215 C 0.66626 0.83059 0.16826 0.0
C2216 C 0.67391 0.81808 0.15836 0.0
C2217 C 0.65289 0.85433 0.18745 0.0
C2218 C 0.66459 0.84525 0.19441 0.0
C2219 C 0.67158 0.83396 0.1847 0.0
C2220 C 0.66852 0.84586 0.21176 0.0
C2221 C 0.6459 0.86749 0.19726 0.0
C2222 C 0.68969 0.85433 0.21905 0.0
C2223 C 0.69322 0.852 0.23496 0.0
C2224 C 0.67562 0.84099 0.24382 0.0
C2225 C 0.65448 0.83331 0.23665 0.0
C2226 C 0.65097 0.83566 0.22074 0.0
H2227 H 0.64316 0.8785 0.19008 0.0
H2228 H 0.63042 0.85651 0.20194 0.0
H2229 H 0.65817 0.87714 0.20745 0.0
H2230 H 0.70344 0.86219 0.21229 0.0
H2231 H 0.70971 0.85832 0.2402 0.0
H2232 H 0.18813 0.7967 0.11255 0.0
H2233 H 0.17915 0.80467 0.13843 0.0
H2234 H 0.24653 0.83532 0.1568 0.0
H2235 H 0.25563 0.82742 0.13096 0.0
H2236 H 0.18572 0.7908 0.16681 0.0
H2237 H 0.23005 0.88001 0.17078 0.0
H2238 H 0.2245 0.86341 0.15243 0.0
H2239 H 0.24653 0.86829 0.16669 0.0
C2240 C 0.20104 0.80518 0.1221 0.0
C2241 C 0.2226 0.81146 0.11972 0.0
C2242 C 0.19589 0.80979 0.13685 0.0
C2243 C 0.2122 0.82083 0.14947 0.0
C2244 C 0.23376 0.82723 0.14712 0.0
H2245 H 0.21492 0.85458 0.24913 0.0
H2246 H 0.22325 0.84802 0.22263 0.0
C2247 C 0.23893 0.82268 0.13235 0.0
C2248 C 0.2065 0.82469 0.16529 0.0
H2249 H 0.21631 0.8642 0.19429 0.0
C2250 C 0.19227 0.80685 0.17278 0.0
C2251 C 0.21514 0.84565 0.17304 0.0
C2252 C 0.22975 0.86546 0.16528 0.0
C2253 C 0.18678 0.80937 0.18798 0.0
C2254 C 0.19552 0.83031 0.19577 0.0
C2255 C 0.20968 0.84817 0.18827 0.0
C2256 C 0.19028 0.83401 0.21178 0.0
C2257 C 0.17207 0.7896 0.19574 0.0
C2258 C 0.16901 0.82843 0.2144 0.0
C2259 C 0.16418 0.83206 0.22953 0.0
C2260 C 0.18056 0.84138 0.24231 0.0
C2261 C 0.20188 0.84706 0.23959 0.0
C2262 C 0.2067 0.84348 0.22445 0.0
H2263 H 0.17082 0.7748 0.1898 0.0
H2264 H 0.17796 0.79129 0.20842 0.0
H2265 H 0.15557 0.78752 0.19508 0.0
H2266 H 0.15618 0.82138 0.20471 0.0
H2267 H 0.14759 0.8274 0.23126 0.0
H2268 H 0.18221 0.39255 0.12086 0.0
H2269 H 0.17463 0.37569 0.14556 0.0
H2270 H 0.23983 0.42096 0.16596 0.0
H2271 H 0.24725 0.43859 0.14157 0.0
H2272 H 0.19337 0.3564 0.16228 0.0
H2273 H 0.20364 0.42875 0.19777 0.0
H2274 H 0.20184 0.42641 0.17644 0.0
H2275 H 0.2268 0.43323 0.18792 0.0
C2276 C 0.1949 0.39905 0.13064 0.0
C2277 C 0.21525 0.41712 0.12929 0.0
C2278 C 0.19059 0.38927 0.1447 0.0
C2279 C 0.20653 0.39732 0.15769 0.0
C2280 C 0.22714 0.41478 0.15619 0.0
H2281 H 0.19964 0.36108 0.2542 0.0
H2282 H 0.21278 0.37583 0.22938 0.0
C2283 C 0.23144 0.42467 0.14216 0.0
C2284 C 0.20131 0.3877 0.17287 0.0
H2285 H 0.19711 0.39893 0.21159 0.0
C2286 C 0.19423 0.36569 0.17307 0.0
C2287 C 0.20242 0.39987 0.18693 0.0
C2288 C 0.20889 0.42332 0.1873 0.0
C2289 C 0.18819 0.35553 0.18697 0.0
C2290 C 0.1891 0.36767 0.20095 0.0
C2291 C 0.19655 0.38973 0.20083 0.0
C2292 C 0.18143 0.35766 0.21567 0.0
C2293 C 0.18095 0.33192 0.18662 0.0
C2294 C 0.15945 0.34263 0.21616 0.0
C2295 C 0.15183 0.33436 0.23033 0.0
C2296 C 0.16607 0.341 0.24433 0.0
C2297 C 0.18818 0.35583 0.24371 0.0
C2298 C 0.19576 0.36417 0.22953 0.0
H2299 H 0.18627 0.32627 0.17631 0.0
H2300 H 0.18736 0.32852 0.19764 0.0
H2301 H 0.16298 0.32249 0.18573 0.0
H2302 H 0.14806 0.33776 0.20565 0.0
H2303 H 0.13466 0.32329 0.23042 0.0
H2304 H 0.775 0.60583 0.91726 0.0
H2305 H 0.78349 0.62299 0.89264 0.0
H2306 H 0.79582 0.57385 0.87329 0.0
H2307 H 0.7867 0.55623 0.89761 0.0
H2308 H 0.82223 0.63919 0.8785 0.0
H2309 H 0.75341 0.57401 0.83878 0.0
H2310 H 0.75414 0.57531 0.86008 0.0
H2311 H 0.76915 0.5652 0.85001 0.0
C2312 C 0.77923 0.59852 0.90768 0.0
C2313 C 0.7801 0.57962 0.90937 0.0
C2314 C 0.78421 0.60842 0.89367 0.0
C2315 C 0.78999 0.59952 0.88108 0.0
C2316 C 0.79103 0.58076 0.88276 0.0
H2317 H 0.83008 0.63423 0.78828 0.0
H2318 H 0.82098 0.61782 0.81312 0.0
C2319 C 0.78605 0.57086 0.89674 0.0
C2320 C 0.79549 0.61013 0.8663 0.0
H2321 H 0.78118 0.60203 0.82641 0.0
C2322 C 0.81319 0.63115 0.86712 0.0
C2323 C 0.78365 0.59956 0.85149 0.0
C2324 C 0.7639 0.57735 0.84999 0.0
C2325 C 0.81969 0.64171 0.85343 0.0
C2326 C 0.80796 0.63106 0.8386 0.0
C2327 C 0.79018 0.6101 0.83781 0.0
C2328 C 0.81385 0.64135 0.82374 0.0
C2329 C 0.83936 0.66396 0.85489 0.0
C2330 C 0.81267 0.65991 0.82145 0.0
C2331 C 0.81775 0.66926 0.80725 0.0
C2332 C 0.82399 0.66015 0.79503 0.0
C2333 C 0.82511 0.64152 0.79738 0.0
C2334 C 0.82002 0.63218 0.81158 0.0
H2335 H 0.84951 0.66771 0.86634 0.0
H2336 H 0.84949 0.66572 0.84509 0.0
H2337 H 0.83402 0.67601 0.85422 0.0
H2338 H 0.8075 0.66697 0.83056 0.0
H2339 H 0.81633 0.68337 0.80572 0.0
H2340 H 0.42911 0.19491 0.92459 0.0
H2341 H 0.41699 0.18943 0.89636 0.0
H2342 H 0.36661 0.20339 0.90654 0.0
H2343 H 0.37849 0.20868 0.9349 0.0
H2344 H 0.37506 0.15908 0.88142 0.0
H2345 H 0.3976 0.24326 0.87224 0.0
H2346 H 0.40832 0.23651 0.88938 0.0
H2347 H 0.38125 0.23221 0.88814 0.0
C2348 C 0.41536 0.19669 0.92085 0.0
C2349 C 0.40469 0.20215 0.93199 0.0
C2350 C 0.40856 0.19368 0.90472 0.0
C2351 C 0.39109 0.19623 0.89939 0.0
C2352 C 0.3804 0.20173 0.91043 0.0
H2353 H 0.32508 0.18047 0.80644 0.0
H2354 H 0.33744 0.18766 0.83473 0.0
C2355 C 0.38718 0.20474 0.9266 0.0
C2356 C 0.38365 0.19237 0.8823 0.0
H2357 H 0.37818 0.2168 0.85055 0.0
C2358 C 0.37578 0.17169 0.87464 0.0
C2359 C 0.38459 0.20887 0.87357 0.0
C2360 C 0.39355 0.23153 0.88118 0.0
C2361 C 0.36855 0.16697 0.85844 0.0
C2362 C 0.36966 0.18352 0.84965 0.0
C2363 C 0.37743 0.20418 0.85734 0.0
C2364 C 0.36264 0.17962 0.83248 0.0
C2365 C 0.35937 0.14422 0.85095 0.0
C2366 C 0.373 0.17309 0.82183 0.0
C2367 C 0.36586 0.16877 0.80568 0.0
C2368 C 0.34831 0.17106 0.79989 0.0
C2369 C 0.33837 0.17817 0.81056 0.0
C2370 C 0.3455 0.18244 0.8267 0.0
H2371 H 0.35449 0.1325 0.85995 0.0
H2372 H 0.34508 0.1395 0.8423 0.0
H2373 H 0.3719 0.14311 0.84456 0.0
H2374 H 0.38653 0.17121 0.82604 0.0
H2375 H 0.37379 0.16323 0.79779 0.0
H2376 H 0.8308 0.20185 0.9209 0.0
H2377 H 0.83646 0.19291 0.89416 0.0
H2378 H 0.76824 0.16518 0.87947 0.0
H2379 H 0.76259 0.17501 0.90603 0.0
H2380 H 0.81975 0.15473 0.87521 0.0
H2381 H 0.79584 0.20955 0.84836 0.0
H2382 H 0.80062 0.20998 0.86947 0.0
H2383 H 0.77559 0.18935 0.85881 0.0
C2384 C 0.81701 0.19397 0.91197 0.0
C2385 C 0.7963 0.18944 0.91555 0.0
C2386 C 0.82024 0.18869 0.89673 0.0
C2387 C 0.80285 0.17874 0.88477 0.0
C2388 C 0.78197 0.17326 0.88845 0.0
H2389 H 0.80813 0.15525 0.78339 0.0
H2390 H 0.79472 0.15287 0.8094 0.0
C2391 C 0.77873 0.17866 0.90369 0.0
C2392 C 0.80691 0.17491 0.86836 0.0
H2393 H 0.80564 0.18981 0.83112 0.0
C2394 C 0.81654 0.16228 0.86554 0.0
C2395 C 0.80272 0.1848 0.85577 0.0
C2396 C 0.7933 0.19934 0.85821 0.0
C2397 C 0.82237 0.15954 0.8505 0.0
C2398 C 0.81862 0.16983 0.83805 0.0
C2399 C 0.8084 0.18189 0.84072 0.0
C2400 C 0.82659 0.16965 0.82245 0.0
C2401 C 0.83266 0.14581 0.84807 0.0
C2402 C 0.84893 0.17992 0.82122 0.0
C2403 C 0.85666 0.18158 0.80641 0.0
C2404 C 0.84217 0.17299 0.7925 0.0
C2405 C 0.81974 0.16229 0.79383 0.0
C2406 C 0.81203 0.16077 0.80867 0.0
H2407 H 0.82925 0.13465 0.85737 0.0
H2408 H 0.82679 0.13626 0.83629 0.0
H2409 H 0.85049 0.15638 0.8486 0.0
H2410 H 0.86043 0.18729 0.83171 0.0
H2411 H 0.87402 0.19029 0.80585 0.0
H2412 H 0.27042 0.17063 0.45362 0.0
H2413 H 0.28545 0.18058 0.48134 0.0
H2414 H 0.31639 0.14254 0.47547 0.0
H2415 H 0.30284 0.13386 0.44752 0.0
H2416 H 0.27655 0.15531 0.50349 0.0
H2417 H 0.36475 0.19446 0.50035 0.0
H2418 H 0.34596 0.18902 0.48318 0.0
H2419 H 0.35132 0.16841 0.48938 0.0
C2420 C 0.28099 0.16492 0.45807 0.0
C2421 C 0.28538 0.1514 0.44829 0.0
C2422 C 0.28942 0.17049 0.47399 0.0
C2423 C 0.30232 0.16257 0.48048 0.0
C2424 C 0.30698 0.14934 0.47069 0.0
H2425 H 0.31005 0.13046 0.57463 0.0
H2426 H 0.30084 0.13305 0.54704 0.0
C2427 C 0.29885 0.14404 0.45474 0.0
C2428 C 0.30916 0.16639 0.49774 0.0
H2429 H 0.35215 0.17956 0.52493 0.0
C2430 C 0.29317 0.16097 0.50818 0.0
C2431 C 0.3309 0.17416 0.50396 0.0
C2432 C 0.34921 0.18207 0.49361 0.0
C2433 C 0.29809 0.16209 0.52453 0.0
C2434 C 0.31945 0.16808 0.53057 0.0
C2435 C 0.33568 0.17457 0.52027 0.0
C2436 C 0.32503 0.16674 0.54739 0.0
C2437 C 0.2803 0.15681 0.53512 0.0
C2438 C 0.34223 0.18459 0.55661 0.0
C2439 C 0.34777 0.18302 0.57234 0.0
C2440 C 0.3361 0.1636 0.57909 0.0
C2441 C 0.31901 0.14574 0.56981 0.0
C2442 C 0.31367 0.14724 0.55407 0.0
H2443 H 0.2678 0.16013 0.52976 0.0
H2444 H 0.27217 0.13942 0.53673 0.0
H2445 H 0.28678 0.16619 0.54693 0.0
H2446 H 0.35132 0.19974 0.55166 0.0
H2447 H 0.36101 0.19702 0.57927 0.0
H2448 H 0.89231 0.17207 0.44773 0.0
H2449 H 0.88561 0.17872 0.47478 0.0
H2450 H 0.86738 0.11356 0.48306 0.0
H2451 H 0.87372 0.10673 0.45596 0.0
H2452 H 0.8392 0.12451 0.49366 0.0
H2453 H 0.92301 0.18833 0.51539 0.0
H2454 H 0.91227 0.19446 0.49809 0.0
H2455 H 0.91652 0.17179 0.49688 0.0
C2456 C 0.88705 0.15924 0.45538 0.0
C2457 C 0.88358 0.1389 0.44977 0.0
C2458 C 0.8833 0.16307 0.47084 0.0
C2459 C 0.87637 0.14675 0.48103 0.0
C2460 C 0.87279 0.1264 0.47541 0.0
H2461 H 0.87679 0.16714 0.58288 0.0
H2462 H 0.88368 0.15888 0.55633 0.0
C2463 C 0.87635 0.1225 0.45992 0.0
C2464 C 0.87222 0.15065 0.49741 0.0
H2465 H 0.89554 0.18336 0.53197 0.0
C2466 C 0.85155 0.13731 0.50207 0.0
C2467 C 0.88845 0.16713 0.50845 0.0
C2468 C 0.91137 0.1811 0.50453 0.0
C2469 C 0.84653 0.14024 0.51735 0.0
C2470 C 0.86247 0.15734 0.52816 0.0
C2471 C 0.88327 0.17042 0.52361 0.0
C2472 C 0.85792 0.16193 0.54424 0.0
C2473 C 0.82432 0.12476 0.52185 0.0
C2474 C 0.84128 0.16656 0.54626 0.0
C2475 C 0.83708 0.17097 0.56142 0.0
C2476 C 0.84966 0.17114 0.57489 0.0
C2477 C 0.86653 0.16677 0.5728 0.0
C2478 C 0.87062 0.16222 0.55763 0.0
H2479 H 0.81662 0.10924 0.51419 0.0
H2480 H 0.8251 0.12143 0.53438 0.0
H2481 H 0.81374 0.13188 0.52034 0.0
H2482 H 0.83158 0.1669 0.53609 0.0
H2483 H 0.82383 0.17406 0.56256 0.0
H2484 H 0.89306 0.73422 0.45997 0.0
H2485 H 0.88435 0.71822 0.48507 0.0
H2486 H 0.86057 0.76068 0.49893 0.0
H2487 H 0.8691 0.77662 0.47391 0.0
H2488 H 0.89765 0.73619 0.51661 0.0
H2489 H 0.80899 0.70116 0.50263 0.0
H2490 H 0.82773 0.71158 0.48788 0.0
H2491 H 0.82422 0.72961 0.50128 0.0
C2492 C 0.88617 0.74026 0.46845 0.0
C2493 C 0.88151 0.75648 0.46491 0.0
C2494 C 0.88115 0.73107 0.48274 0.0
C2495 C 0.87138 0.73795 0.49368 0.0
C2496 C 0.86756 0.75475 0.49045 0.0
H2497 H 0.82596 0.70691 0.58524 0.0
H2498 H 0.83784 0.72273 0.56051 0.0
C2499 C 0.87247 0.76386 0.47618 0.0
C2500 C 0.86492 0.72744 0.50842 0.0
H2501 H 0.82131 0.70045 0.52909 0.0
C2502 C 0.88095 0.72823 0.51931 0.0
C2503 C 0.84308 0.71698 0.51185 0.0
C2504 C 0.82497 0.71456 0.50023 0.0
C2505 C 0.87581 0.71938 0.53378 0.0
C2506 C 0.85406 0.70934 0.53732 0.0
C2507 C 0.838 0.70829 0.52635 0.0
C2508 C 0.84758 0.70004 0.55245 0.0
C2509 C 0.89371 0.72132 0.54536 0.0
C2510 C 0.84899 0.68195 0.55601 0.0
C2511 C 0.84222 0.67288 0.57013 0.0
C2512 C 0.83393 0.68176 0.58092 0.0
C2513 C 0.83254 0.69988 0.57727 0.0
C2514 C 0.83921 0.70887 0.56313 0.0
H2515 H 0.91001 0.7332 0.54225 0.0
H2516 H 0.89191 0.72616 0.55755 0.0
H2517 H 0.89276 0.70545 0.54535 0.0
H2518 H 0.85513 0.67474 0.54779 0.0
H2519 H 0.84363 0.65901 0.57265 0.0
loop_
_geom_bond_atom_site_label_1
_geom_bond_atom_site_label_2
_geom_bond_distance
_geom_bond_site_symmetry_2
_ccdc_geom_bond_type
H0 C5 0.930 . S
H1 C8 0.930 . S
H2 C10 0.930 . S
H3 C4 1.016 . S
C4 H3 1.016 . S
C4 N11 1.286 . S
C5 H0 0.930 . S
C5 C6 1.397 . S
C5 C7 1.361 . S
C6 C5 1.397 . S
C6 C10 1.390 . S
C7 C5 1.361 . S
C7 C8 1.393 . S
C7 N11 1.413 . S
C8 H1 0.930 . S
C8 C7 1.393 . S
C8 C9 1.399 . S
C9 C8 1.399 . S
C9 C10 1.381 . S
C10 H2 0.930 . S
C10 C6 1.390 . S
C10 C9 1.381 . S
N11 C4 1.286 . S
N11 C7 1.413 . S
H12 C17 0.930 . S
H13 C20 0.930 . S
H14 C22 0.930 . S
H15 C16 1.016 . S
C16 H15 1.016 . S
C16 N23 1.286 . S
C17 H12 0.930 . S
C17 C18 1.397 . S
C17 C19 1.361 . S
C18 C17 1.397 . S
C18 C22 1.390 . S
C19 C17 1.361 . S
C19 C20 1.393 . S
C19 N23 1.413 . S
C20 H13 0.930 . S
C20 C19 1.393 . S
C20 C21 1.399 . S
C21 C20 1.399 . S
C21 C22 1.381 . S
C22 H14 0.930 . S
C22 C18 1.390 . S
C22 C21 1.381 . S
N23 C16 1.286 . S
N23 C19 1.413 . S
H24 C29 0.930 . S
H25 C32 0.930 . S
H26 C34 0.930 . S
H27 C28 1.016 . S
C28 H27 1.016 . S
C28 N35 1.286 . S
C29 H24 0.930 . S
C29 C30 1.397 . S
C29 C31 1.361 . S
C30 C29 1.397 . S
C30 C34 1.390 . S
C31 C29 1.361 . S
C31 C32 1.393 . S
C31 N35 1.413 . S
C32 H25 0.930 . S
C32 C31 1.393 . S
C32 C33 1.399 . S
C33 C32 1.399 . S
C33 C34 1.381 . S
C34 H26 0.930 . S
C34 C30 1.390 . S
C34 C33 1.381 . S
N35 C28 1.286 . S
N35 C31 1.413 . S
H36 C41 0.930 . S
H37 C44 0.930 . S
H38 C46 0.930 . S
H39 C40 1.016 . S
C40 H39 1.016 . S
C40 N47 1.286 . S
C41 H36 0.930 . S
C41 C42 1.397 . S
C41 C43 1.361 . S
C42 C41 1.397 . S
C42 C46 1.390 . S
C43 C41 1.361 . S
C43 C44 1.393 . S
C43 N47 1.413 . S
C44 H37 0.930 . S
C44 C43 1.393 . S
C44 C45 1.399 . S
C45 C44 1.399 . S
C45 C46 1.381 . S
C46 H38 0.930 . S
C46 C42 1.390 . S
C46 C45 1.381 . S
N47 C40 1.286 . S
N47 C43 1.413 . S
H48 C53 0.930 . S
H49 C56 0.930 . S
H50 C58 0.930 . S
H51 C52 1.016 . S
C52 H51 1.016 . S
C52 N59 1.286 . S
C53 H48 0.930 . S
C53 C54 1.397 . S
C53 C55 1.361 . S
C54 C53 1.397 . S
C54 C58 1.390 . S
C55 C53 1.361 . S
C55 C56 1.393 . S
C55 N59 1.413 . S
C56 H49 0.930 . S
C56 C55 1.393 . S
C56 C57 1.399 . S
C57 C56 1.399 . S
C57 C58 1.381 . S
C58 H50 0.930 . S
C58 C54 1.390 . S
C58 C57 1.381 . S
N59 C52 1.286 . S
N59 C55 1.413 . S
H60 C65 0.930 . S
H61 C68 0.930 . S
H62 C70 0.930 . S
H63 C64 1.016 . S
C64 H63 1.016 . S
C64 N71 1.286 . S
C65 H60 0.930 . S
C65 C66 1.397 . S
C65 C67 1.361 . S
C66 C65 1.397 . S
C66 C70 1.390 . S
C67 C65 1.361 . S
C67 C68 1.393 . S
C67 N71 1.413 . S
C68 H61 0.930 . S
C68 C67 1.393 . S
C68 C69 1.399 . S
C69 C68 1.399 . S
C69 C70 1.381 . S
C70 H62 0.930 . S
C70 C66 1.390 . S
C70 C69 1.381 . S
N71 C64 1.286 . S
N71 C67 1.413 . S
H72 C77 0.930 . S
H73 C80 0.930 . S
H74 C82 0.930 . S
H75 C76 1.016 . S
C76 H75 1.016 . S
C76 N83 1.286 . S
C77 H72 0.930 . S
C77 C78 1.397 . S
C77 C79 1.361 . S
C78 C77 1.397 . S
C78 C82 1.390 . S
C79 C77 1.361 . S
C79 C80 1.393 . S
C79 N83 1.413 . S
C80 H73 0.930 . S
C80 C79 1.393 . S
C80 C81 1.399 . S
C81 C80 1.399 . S
C81 C82 1.381 . S
C82 H74 0.930 . S
C82 C78 1.390 . S
C82 C81 1.381 . S
N83 C76 1.286 . S
N83 C79 1.413 . S
H84 C89 0.930 . S
H85 C92 0.930 . S
H86 C94 0.930 . S
H87 C88 1.016 . S
C88 H87 1.016 . S
C88 N95 1.286 . S
C89 H84 0.930 . S
C89 C90 1.397 . S
C89 C91 1.361 . S
C90 C89 1.397 . S
C90 C94 1.390 . S
C91 C89 1.361 . S
C91 C92 1.393 . S
C91 N95 1.413 . S
C92 H85 0.930 . S
C92 C91 1.393 . S
C92 C93 1.399 . S
C93 C92 1.399 . S
C93 C94 1.381 . S
C94 H86 0.930 . S
C94 C90 1.390 . S
C94 C93 1.381 . S
N95 C88 1.286 . S
N95 C91 1.413 . S
H96 C101 0.930 . S
H97 C104 0.930 . S
H98 C106 0.930 . S
H99 C100 1.016 . S
C100 H99 1.016 . S
C100 N107 1.286 . S
C101 H96 0.930 . S
C101 C102 1.397 . S
C101 C103 1.361 . S
C102 C101 1.397 . S
C102 C106 1.390 . S
C103 C101 1.361 . S
C103 C104 1.393 . S
C103 N107 1.413 . S
C104 H97 0.930 . S
C104 C103 1.393 . S
C104 C105 1.399 . S
C105 C104 1.399 . S
C105 C106 1.381 . S
C106 H98 0.930 . S
C106 C102 1.390 . S
C106 C105 1.381 . S
N107 C100 1.286 . S
N107 C103 1.413 . S
H108 C113 0.930 . S
H109 C116 0.930 . S
H110 C118 0.930 . S
H111 C112 1.016 . S
C112 H111 1.016 . S
C112 N119 1.286 . S
C113 H108 0.930 . S
C113 C114 1.397 . S
C113 C115 1.361 . S
C114 C113 1.397 . S
C114 C118 1.390 . S
C115 C113 1.361 . S
C115 C116 1.393 . S
C115 N119 1.413 . S
C116 H109 0.930 . S
C116 C115 1.393 . S
C116 C117 1.399 . S
C117 C116 1.399 . S
C117 C118 1.381 . S
C118 H110 0.930 . S
C118 C114 1.390 . S
C118 C117 1.381 . S
N119 C112 1.286 . S
N119 C115 1.413 . S
H120 C125 0.930 . S
H121 C128 0.930 . S
H122 C130 0.930 . S
H123 C124 1.016 . S
C124 H123 1.016 . S
C124 N131 1.286 . S
C125 H120 0.930 . S
C125 C126 1.397 . S
C125 C127 1.361 . S
C126 C125 1.397 . S
C126 C130 1.390 . S
C127 C125 1.361 . S
C127 C128 1.393 . S
C127 N131 1.413 . S
C128 H121 0.930 . S
C128 C127 1.393 . S
C128 C129 1.399 . S
C129 C128 1.399 . S
C129 C130 1.381 . S
C130 H122 0.930 . S
C130 C126 1.390 . S
C130 C129 1.381 . S
N131 C124 1.286 . S
N131 C127 1.413 . S
H132 C137 0.930 . S
H133 C140 0.930 . S
H134 C142 0.930 . S
H135 C136 1.016 . S
C136 H135 1.016 . S
C136 N143 1.286 . S
C137 H132 0.930 . S
C137 C138 1.397 . S
C137 C139 1.361 . S
C138 C137 1.397 . S
C138 C142 1.390 . S
C139 C137 1.361 . S
C139 C140 1.393 . S
C139 N143 1.413 . S
C140 H133 0.930 . S
C140 C139 1.393 . S
C140 C141 1.399 . S
C141 C140 1.399 . S
C141 C142 1.381 . S
C142 H134 0.930 . S
C142 C138 1.390 . S
C142 C141 1.381 . S
N143 C136 1.286 . S
N143 C139 1.413 . S
H144 C149 0.930 . S
H145 C152 0.930 . S
H146 C154 0.930 . S
H147 C148 1.016 . S
C148 H147 1.016 . S
C148 N155 1.286 . S
C149 H144 0.930 . S
C149 C150 1.397 . S
C149 C151 1.361 . S
C150 C149 1.397 . S
C150 C154 1.390 . S
C151 C149 1.361 . S
C151 C152 1.393 . S
C151 N155 1.413 . S
C152 H145 0.930 . S
C152 C151 1.393 . S
C152 C153 1.399 . S
C153 C152 1.399 . S
C153 C154 1.381 . S
C154 H146 0.930 . S
C154 C150 1.390 . S
C154 C153 1.381 . S
N155 C148 1.286 . S
N155 C151 1.413 . S
H156 C161 0.930 . S
H157 C164 0.930 . S
H158 C166 0.930 . S
H159 C160 1.016 . S
C160 H159 1.016 . S
C160 N167 1.286 . S
C161 H156 0.930 . S
C161 C162 1.397 . S
C161 C163 1.361 . S
C162 C161 1.397 . S
C162 C166 1.390 . S
C163 C161 1.361 . S
C163 C164 1.393 . S
C163 N167 1.413 . S
C164 H157 0.930 . S
C164 C163 1.393 . S
C164 C165 1.399 . S
C165 C164 1.399 . S
C165 C166 1.381 . S
C166 H158 0.930 . S
C166 C162 1.390 . S
C166 C165 1.381 . S
N167 C160 1.286 . S
N167 C163 1.413 . S
H168 C173 0.930 . S
H169 C176 0.930 . S
H170 C178 0.930 . S
H171 C172 1.016 . S
C172 H171 1.016 . S
C172 N179 1.286 . S
C173 H168 0.930 . S
C173 C174 1.397 . S
C173 C175 1.361 . S
C174 C173 1.397 . S
C174 C178 1.390 . S
C175 C173 1.361 . S
C175 C176 1.393 . S
C175 N179 1.413 . S
C176 H169 0.930 . S
C176 C175 1.393 . S
C176 C177 1.399 . S
C177 C176 1.399 . S
C177 C178 1.381 . S
C178 H170 0.930 . S
C178 C174 1.390 . S
C178 C177 1.381 . S
N179 C172 1.286 . S
N179 C175 1.413 . S
H180 C185 0.930 . S
H181 C188 0.930 . S
H182 C190 0.930 . S
H183 C184 1.016 . S
C184 H183 1.016 . S
C184 N191 1.286 . S
C185 H180 0.930 . S
C185 C186 1.397 . S
C185 C187 1.361 . S
C186 C185 1.397 . S
C186 C190 1.390 . S
C187 C185 1.361 . S
C187 C188 1.393 . S
C187 N191 1.413 . S
C188 H181 0.930 . S
C188 C187 1.393 . S
C188 C189 1.399 . S
C189 C188 1.399 . S
C189 C190 1.381 . S
C190 H182 0.930 . S
C190 C186 1.390 . S
C190 C189 1.381 . S
N191 C184 1.286 . S
N191 C187 1.413 . S
H192 C197 0.930 . S
H193 C200 0.930 . S
H194 C202 0.930 . S
H195 C196 1.016 . S
C196 H195 1.016 . S
C196 N203 1.286 . S
C197 H192 0.930 . S
C197 C198 1.397 . S
C197 C199 1.361 . S
C198 C197 1.397 . S
C198 C202 1.390 . S
C199 C197 1.361 . S
C199 C200 1.393 . S
C199 N203 1.413 . S
C200 H193 0.930 . S
C200 C199 1.393 . S
C200 C201 1.399 . S
C201 C200 1.399 . S
C201 C202 1.381 . S
C202 H194 0.930 . S
C202 C198 1.390 . S
C202 C201 1.381 . S
N203 C196 1.286 . S
N203 C199 1.413 . S
H204 C209 0.930 . S
H205 C212 0.930 . S
H206 C214 0.930 . S
H207 C208 1.016 . S
C208 H207 1.016 . S
C208 N215 1.286 . S
C209 H204 0.930 . S
C209 C210 1.397 . S
C209 C211 1.361 . S
C210 C209 1.397 . S
C210 C214 1.390 . S
C211 C209 1.361 . S
C211 C212 1.393 . S
C211 N215 1.413 . S
C212 H205 0.930 . S
C212 C211 1.393 . S
C212 C213 1.399 . S
C213 C212 1.399 . S
C213 C214 1.381 . S
C214 H206 0.930 . S
C214 C210 1.390 . S
C214 C213 1.381 . S
N215 C208 1.286 . S
N215 C211 1.413 . S
Eu216 C225 2.828 1_565 S
Eu216 O227 2.392 1_556 S
Eu216 O229 2.418 . S
Eu216 O234 2.373 1_565 S
Eu216 O237 2.488 . S
Eu216 O238 2.471 1_565 S
Eu216 O239 2.349 1_566 S
Eu217 O226 2.373 1_545 S
Eu217 O230 2.488 . S
Eu217 O231 2.471 1_545 S
Eu217 O232 2.349 1_545 S
Eu217 O235 2.392 . S
Eu217 O236 2.418 . S
Eu217 C246 2.828 . S
C218 O236 1.244 . S
C218 O239 1.265 . S
C219 C220 1.379 . S
C219 C223 1.373 . S
C219 C225 1.505 . S
C220 C219 1.379 . S
C220 C222 1.369 . S
C220 H248 0.930 . S
C221 C223 1.383 . S
C221 C224 1.382 . S
C221 H249 0.933 1_545 S
C222 C220 1.369 . S
C222 C224 1.392 . S
C222 H250 0.930 . S
C223 C219 1.373 . S
C223 C221 1.383 . S
C223 H251 0.931 1_545 S
C224 C221 1.382 . S
C224 C222 1.392 . S
C225 Eu216 2.828 1_545 S
C225 C219 1.505 . S
C225 O237 1.249 1_545 S
C225 O238 1.244 . S
O226 Eu217 2.373 1_565 S
O226 C228 1.258 . S
O227 Eu216 2.392 1_554 S
O227 C228 1.242 . S
C228 O226 1.258 . S
C228 O227 1.242 . S
O229 Eu216 2.418 . S
O229 C233 1.244 1_556 S
O230 Eu217 2.488 . S
O230 C246 1.249 . S
O231 Eu217 2.471 1_565 S
O231 C246 1.244 1_565 S
O232 Eu217 2.349 1_565 S
O232 C233 1.265 . S
C233 O229 1.244 1_554 S
C233 O232 1.265 . S
O234 Eu216 2.373 1_545 S
O234 C247 1.258 1_556 S
O235 Eu217 2.392 . S
O235 C247 1.242 . S
O236 Eu217 2.418 . S
O236 C218 1.244 . S
O237 Eu216 2.488 . S
O237 C225 1.249 1_565 S
O238 Eu216 2.471 1_545 S
O238 C225 1.244 . S
O239 Eu216 2.349 1_544 S
O239 C218 1.265 . S
C240 C241 1.379 . S
C240 C244 1.373 1_565 S
C240 C246 1.505 1_565 S
C241 C240 1.379 . S
C241 C243 1.369 . S
C241 H252 0.930 . S
C242 C244 1.383 . S
C242 C245 1.382 1_545 S
C242 H253 0.930 . S
C243 C241 1.369 . S
C243 C245 1.392 . S
C243 H254 0.930 . S
C244 C240 1.373 1_545 S
C244 C242 1.383 . S
C244 H255 0.931 . S
C245 C242 1.382 1_565 S
C245 C243 1.392 . S
C246 Eu217 2.828 . S
C246 O230 1.249 . S
C246 O231 1.244 1_545 S
C246 C240 1.505 1_545 S
C247 O234 1.258 1_554 S
C247 O235 1.242 . S
H248 C220 0.930 . S
H249 C221 0.933 1_565 S
H250 C222 0.930 . S
H251 C223 0.931 1_565 S
H252 C241 0.930 . S
H253 C242 0.930 . S
H254 C243 0.930 . S
H255 C244 0.931 . S
Eu256 C265 2.828 . S
Eu256 O267 2.392 1_556 S
Eu256 O269 2.427 . S
Eu256 O274 2.373 1_455 S
Eu256 O277 2.488 . S
Eu256 O278 2.471 1_455 S
Eu256 O279 2.349 1_456 S
Eu257 O266 2.373 1_655 S
Eu257 O270 2.488 . S
Eu257 O271 2.471 1_655 S
Eu257 O272 2.349 1_655 S
Eu257 O275 2.392 . S
Eu257 O276 2.418 . S
Eu257 C286 2.828 1_655 S
C258 O276 1.244 . S
C258 O279 1.265 . S
C259 C260 1.379 . S
C259 C263 1.373 1_655 S
C259 C265 1.505 1_655 S
C260 C259 1.379 . S
C260 C262 1.369 . S
C260 H288 0.930 . S
C261 C263 1.383 1_655 S
C261 C264 1.382 . S
C261 H289 0.930 1_655 S
C262 C260 1.369 . S
C262 C264 1.392 . S
C262 H290 0.930 . S
C263 C259 1.373 1_455 S
C263 C261 1.383 1_455 S
C263 H291 0.931 . S
C264 C261 1.382 . S
C264 C262 1.392 . S
C265 Eu256 2.828 . S
C265 C259 1.505 1_455 S
C265 O277 1.249 . S
C265 O278 1.244 1_455 S
O266 Eu257 2.373 1_455 S
O266 C268 1.258 . S
O267 Eu256 2.392 1_554 S
O267 C268 1.242 . S
C268 O266 1.258 . S
C268 O267 1.242 . S
O269 Eu256 2.427 . S
O269 C273 1.209 1_556 S
O270 Eu257 2.488 . S
O270 C286 1.249 1_655 S
O271 Eu257 2.471 1_455 S
O271 C286 1.244 . S
O272 Eu257 2.349 1_455 S
O272 C273 1.265 . S
C273 O269 1.209 1_554 S
C273 O272 1.265 . S
O274 Eu256 2.373 1_655 S
O274 C287 1.258 . S
O275 Eu257 2.392 . S
O275 C287 1.242 1_554 S
O276 Eu257 2.418 . S
O276 C258 1.244 . S
O277 Eu256 2.488 . S
O277 C265 1.249 . S
O278 Eu256 2.471 1_655 S
O278 C265 1.244 1_655 S
O279 Eu256 2.349 1_654 S
O279 C258 1.265 . S
C280 C281 1.379 . S
C280 C284 1.373 . S
C280 C286 1.505 . S
C281 C280 1.379 . S
C281 C283 1.369 . S
C281 H292 0.930 . S
C282 C284 1.383 . S
C282 C285 1.382 . S
C282 H293 0.930 . S
C283 C281 1.369 . S
C283 C285 1.392 . S
C283 H294 0.930 . S
C284 C280 1.373 . S
C284 C282 1.383 . S
C284 H295 0.931 1_455 S
C285 C282 1.382 . S
C285 C283 1.392 . S
C286 Eu257 2.828 1_455 S
C286 O270 1.249 1_455 S
C286 O271 1.244 . S
C286 C280 1.505 . S
C287 O274 1.258 . S
C287 O275 1.242 1_556 S
H288 C260 0.930 . S
H289 C261 0.930 1_455 S
H290 C262 0.930 . S
H291 C263 0.931 . S
H292 C281 0.930 . S
H293 C282 0.930 . S
H294 C283 0.930 . S
H295 C284 0.931 1_655 S
Eu296 C305 2.828 . S
Eu296 O307 2.392 . S
Eu296 O309 2.418 . S
Eu296 O314 2.373 . S
Eu296 O317 2.488 . S
Eu296 O318 2.471 . S
Eu296 O319 2.349 . S
Eu297 O306 2.373 . S
Eu297 O310 2.488 . S
Eu297 O311 2.471 . S
Eu297 O312 2.349 1_556 S
Eu297 O315 2.392 1_556 S
Eu297 O316 2.418 1_556 S
Eu297 C326 2.828 . S
C298 O316 1.244 . S
C298 O319 1.265 . S
C299 C300 1.379 . S
C299 C303 1.373 . S
C299 C305 1.505 . S
C300 C299 1.379 . S
C300 C302 1.369 . S
C300 H328 0.930 . S
C301 C303 1.383 . S
C301 C304 1.382 . S
C301 H329 0.930 . S
C302 C300 1.369 . S
C302 C304 1.392 . S
C302 H330 0.930 . S
C303 C299 1.373 . S
C303 C301 1.383 . S
C303 H331 0.931 . S
C304 C301 1.382 . S
C304 C302 1.392 . S
C305 Eu296 2.828 . S
C305 C299 1.505 . S
C305 O317 1.249 . S
C305 O318 1.244 . S
O306 Eu297 2.373 . S
O306 C308 1.258 1_556 S
O307 Eu296 2.392 . S
O307 C308 1.242 . S
C308 O306 1.258 1_554 S
C308 O307 1.242 . S
O309 Eu296 2.418 . S
O309 C313 1.244 . S
O310 Eu297 2.488 . S
O310 C326 1.249 . S
O311 Eu297 2.471 . S
O311 C326 1.244 . S
O312 Eu297 2.349 1_554 S
O312 C313 1.265 . S
C313 O309 1.244 . S
C313 O312 1.265 . S
O314 Eu296 2.373 . S
O314 C327 1.258 . S
O315 Eu297 2.392 1_554 S
O315 C327 1.242 . S
O316 Eu297 2.418 1_554 S
O316 C298 1.244 . S
O317 Eu296 2.488 . S
O317 C305 1.249 . S
O318 Eu296 2.471 . S
O318 C305 1.244 . S
O319 Eu296 2.349 . S
O319 C298 1.265 . S
C320 C321 1.379 . S
C320 C324 1.373 . S
C320 C326 1.505 . S
C321 C320 1.379 . S
C321 C323 1.369 . S
C321 H332 0.930 . S
C322 C324 1.383 . S
C322 C325 1.382 . S
C322 H333 0.930 . S
C323 C321 1.369 . S
C323 C325 1.392 . S
C323 H334 0.930 . S
C324 C320 1.373 . S
C324 C322 1.383 . S
C324 H335 0.931 . S
C325 C322 1.382 . S
C325 C323 1.392 . S
C326 Eu297 2.828 . S
C326 O310 1.249 . S
C326 O311 1.244 . S
C326 C320 1.505 . S
C327 O314 1.258 . S
C327 O315 1.242 . S
H328 C300 0.930 . S
H329 C301 0.930 . S
H330 C302 0.930 . S
H331 C303 0.931 . S
H332 C321 0.930 . S
H333 C322 0.930 . S
H334 C323 0.930 . S
H335 C324 0.931 . S
Eu336 C345 2.828 . S
Eu336 O347 2.392 . S
Eu336 O349 2.418 . S
Eu336 O354 2.373 . S
Eu336 O357 2.488 . S
Eu336 O358 2.471 . S
Eu336 O359 2.349 . S
Eu337 O346 2.373 . S
Eu337 O350 2.488 . S
Eu337 O351 2.471 . S
Eu337 O352 2.349 . S
Eu337 O355 2.392 . S
Eu337 O356 2.418 . S
Eu337 C366 2.828 . S
C338 O356 1.244 . S
C338 O359 1.265 . S
C339 C340 1.379 . S
C339 C343 1.373 . S
C339 C345 1.505 . S
C340 C339 1.379 . S
C340 C342 1.369 . S
C340 H368 0.930 . S
C341 C343 1.383 . S
C341 C344 1.382 . S
C341 H369 0.930 . S
C342 C340 1.369 . S
C342 C344 1.392 . S
C342 H370 0.930 . S
C343 C339 1.373 . S
C343 C341 1.383 . S
C343 H371 0.931 . S
C344 C341 1.382 . S
C344 C342 1.392 . S
C345 Eu336 2.828 . S
C345 C339 1.505 . S
C345 O357 1.249 . S
C345 O358 1.244 . S
O346 Eu337 2.373 . S
O346 C348 1.258 . S
O347 Eu336 2.392 . S
O347 C348 1.242 . S
C348 O346 1.258 . S
C348 O347 1.242 . S
O349 Eu336 2.418 . S
O349 C353 1.244 . S
O350 Eu337 2.488 . S
O350 C366 1.249 . S
O351 Eu337 2.471 . S
O351 C366 1.244 . S
O352 Eu337 2.349 . S
O352 C353 1.265 . S
C353 O349 1.244 . S
C353 O352 1.265 . S
O354 Eu336 2.373 . S
O354 C367 1.258 . S
O355 Eu337 2.392 . S
O355 C367 1.242 . S
O356 Eu337 2.418 . S
O356 C338 1.244 . S
O357 Eu336 2.488 . S
O357 C345 1.249 . S
O358 Eu336 2.471 . S
O358 C345 1.244 . S
O359 Eu336 2.349 . S
O359 C338 1.265 . S
C360 C361 1.379 . S
C360 C364 1.373 . S
C360 C366 1.505 . S
C361 C360 1.379 . S
C361 C363 1.369 . S
C361 H372 0.930 . S
C362 C364 1.383 . S
C362 C365 1.382 . S
C362 H373 0.930 . S
C363 C361 1.369 . S
C363 C365 1.392 . S
C363 H374 0.930 . S
C364 C360 1.373 . S
C364 C362 1.383 . S
C364 H375 0.931 . S
C365 C362 1.382 . S
C365 C363 1.392 . S
C366 Eu337 2.828 . S
C366 O350 1.249 . S
C366 O351 1.244 . S
C366 C360 1.505 . S
C367 O354 1.258 . S
C367 O355 1.242 . S
H368 C340 0.930 . S
H369 C341 0.930 . S
H370 C342 0.930 . S
H371 C343 0.931 . S
H372 C361 0.930 . S
H373 C362 0.930 . S
H374 C363 0.930 . S
H375 C364 0.931 . S
Eu376 C385 2.828 . S
Eu376 O387 2.392 . S
Eu376 O389 2.418 . S
Eu376 O394 2.373 . S
Eu376 O397 2.488 . S
Eu376 O398 2.471 . S
Eu376 O399 2.349 . S
Eu377 O386 2.373 . S
Eu377 O390 2.488 . S
Eu377 O391 2.471 . S
Eu377 O392 2.349 . S
Eu377 O395 2.392 . S
Eu377 O396 2.418 . S
Eu377 C406 2.828 . S
C378 O396 1.244 . S
C378 O399 1.265 . S
C379 C380 1.379 . S
C379 C383 1.373 . S
C379 C385 1.505 . S
C380 C379 1.379 . S
C380 C382 1.369 . S
C380 H408 0.930 . S
C381 C383 1.383 . S
C381 C384 1.382 . S
C381 H409 0.930 . S
C382 C380 1.369 . S
C382 C384 1.392 . S
C382 H410 0.930 . S
C383 C379 1.373 . S
C383 C381 1.383 . S
C383 H411 0.931 . S
C384 C381 1.382 . S
C384 C382 1.392 . S
C385 Eu376 2.828 . S
C385 C379 1.505 . S
C385 O397 1.249 . S
C385 O398 1.244 . S
O386 Eu377 2.373 . S
O386 C388 1.258 . S
O387 Eu376 2.392 . S
O387 C388 1.242 . S
C388 O386 1.258 . S
C388 O387 1.242 . S
O389 Eu376 2.418 . S
O389 C393 1.244 . S
O390 Eu377 2.488 . S
O390 C406 1.249 . S
O391 Eu377 2.471 . S
O391 C406 1.244 . S
O392 Eu377 2.349 . S
O392 C393 1.265 . S
C393 O389 1.244 . S
C393 O392 1.265 . S
O394 Eu376 2.373 . S
O394 C407 1.258 . S
O395 Eu377 2.392 . S
O395 C407 1.242 . S
O396 Eu377 2.418 . S
O396 C378 1.244 . S
O397 Eu376 2.488 . S
O397 C385 1.249 . S
O398 Eu376 2.471 . S
O398 C385 1.244 . S
O399 Eu376 2.349 . S
O399 C378 1.265 . S
C400 C401 1.379 . S
C400 C404 1.373 . S
C400 C406 1.505 . S
C401 C400 1.379 . S
C401 C403 1.369 . S
C401 H412 0.930 . S
C402 C404 1.383 . S
C402 C405 1.382 . S
C402 H413 0.930 . S
C403 C401 1.369 . S
C403 C405 1.392 . S
C403 H414 0.930 . S
C404 C400 1.373 . S
C404 C402 1.383 . S
C404 H415 0.931 . S
C405 C402 1.382 . S
C405 C403 1.392 . S
C406 Eu377 2.828 . S
C406 O390 1.249 . S
C406 O391 1.244 . S
C406 C400 1.505 . S
C407 O394 1.258 . S
C407 O395 1.242 . S
H408 C380 0.930 . S
H409 C381 0.930 . S
H410 C382 0.930 . S
H411 C383 0.931 . S
H412 C401 0.930 . S
H413 C402 0.930 . S
H414 C403 0.930 . S
H415 C404 0.931 . S
Eu416 C425 2.828 . S
Eu416 O427 2.392 . S
Eu416 O429 2.418 . S
Eu416 O434 2.373 . S
Eu416 O437 2.488 . S
Eu416 O438 2.471 . S
Eu416 O439 2.349 . S
Eu417 O426 2.373 . S
Eu417 O430 2.488 . S
Eu417 O431 2.471 . S
Eu417 O432 2.349 . S
Eu417 O435 2.392 . S
Eu417 O436 2.418 . S
Eu417 C446 2.828 . S
C418 O436 1.244 . S
C418 O439 1.265 . S
C419 C420 1.379 . S
C419 C423 1.373 . S
C419 C425 1.505 . S
C420 C419 1.379 . S
C420 C422 1.369 . S
C420 H448 0.930 . S
C421 C423 1.383 . S
C421 C424 1.382 . S
C421 H449 0.930 . S
C422 C420 1.369 . S
C422 C424 1.392 . S
C422 H450 0.930 . S
C423 C419 1.373 . S
C423 C421 1.383 . S
C423 H451 0.931 . S
C424 C421 1.382 . S
C424 C422 1.392 . S
C425 Eu416 2.828 . S
C425 C419 1.505 . S
C425 O437 1.249 . S
C425 O438 1.244 . S
O426 Eu417 2.373 . S
O426 C428 1.258 . S
O427 Eu416 2.392 . S
O427 C428 1.242 . S
C428 O426 1.258 . S
C428 O427 1.242 . S
O429 Eu416 2.418 . S
O429 C433 1.244 . S
O430 Eu417 2.488 . S
O430 C446 1.249 . S
O431 Eu417 2.471 . S
O431 C446 1.244 . S
O432 Eu417 2.349 . S
O432 C433 1.265 . S
C433 O429 1.244 . S
C433 O432 1.265 . S
O434 Eu416 2.373 . S
O434 C447 1.258 . S
O435 Eu417 2.392 . S
O435 C447 1.242 . S
O436 Eu417 2.418 . S
O436 C418 1.244 . S
O437 Eu416 2.488 . S
O437 C425 1.249 . S
O438 Eu416 2.471 . S
O438 C425 1.244 . S
O439 Eu416 2.349 . S
O439 C418 1.265 . S
C440 C441 1.379 . S
C440 C444 1.373 . S
C440 C446 1.505 . S
C441 C440 1.379 . S
C441 C443 1.369 . S
C441 H452 0.930 . S
C442 C444 1.383 . S
C442 C445 1.382 . S
C442 H453 0.930 . S
C443 C441 1.369 . S
C443 C445 1.392 . S
C443 H454 0.930 . S
C444 C440 1.373 . S
C444 C442 1.383 . S
C444 H455 0.931 . S
C445 C442 1.382 . S
C445 C443 1.392 . S
C446 Eu417 2.828 . S
C446 O430 1.249 . S
C446 O431 1.244 . S
C446 C440 1.505 . S
C447 O434 1.258 . S
C447 O435 1.242 . S
H448 C420 0.930 . S
H449 C421 0.930 . S
H450 C422 0.930 . S
H451 C423 0.931 . S
H452 C441 0.930 . S
H453 C442 0.930 . S
H454 C443 0.930 . S
H455 C444 0.931 . S
Eu456 C465 2.828 . S
Eu456 O467 2.392 . S
Eu456 O469 2.418 . S
Eu456 O474 2.373 . S
Eu456 O477 2.488 . S
Eu456 O478 2.471 . S
Eu456 O479 2.349 . S
Eu457 O466 2.373 . S
Eu457 O470 2.488 . S
Eu457 O471 2.471 . S
Eu457 O472 2.349 . S
Eu457 O475 2.392 . S
Eu457 O476 2.418 . S
Eu457 C486 2.828 . S
C458 O476 1.244 . S
C458 O479 1.265 . S
C459 C460 1.379 . S
C459 C463 1.373 . S
C459 C465 1.505 . S
C460 C459 1.379 . S
C460 C462 1.369 . S
C460 H488 0.930 . S
C461 C463 1.383 . S
C461 C464 1.382 . S
C461 H489 0.930 . S
C462 C460 1.369 . S
C462 C464 1.392 . S
C462 H490 0.930 . S
C463 C459 1.373 . S
C463 C461 1.383 . S
C463 H491 0.931 . S
C464 C461 1.382 . S
C464 C462 1.392 . S
C465 Eu456 2.828 . S
C465 C459 1.505 . S
C465 O477 1.249 . S
C465 O478 1.244 . S
O466 Eu457 2.373 . S
O466 C468 1.258 . S
O467 Eu456 2.392 . S
O467 C468 1.242 . S
C468 O466 1.258 . S
C468 O467 1.242 . S
O469 Eu456 2.418 . S
O469 C473 1.244 . S
O470 Eu457 2.488 . S
O470 C486 1.249 . S
O471 Eu457 2.471 . S
O471 C486 1.244 . S
O472 Eu457 2.349 . S
O472 C473 1.265 . S
C473 O469 1.244 . S
C473 O472 1.265 . S
O474 Eu456 2.373 . S
O474 C487 1.258 . S
O475 Eu457 2.392 . S
O475 C487 1.242 . S
O476 Eu457 2.418 . S
O476 C458 1.244 . S
O477 Eu456 2.488 . S
O477 C465 1.249 . S
O478 Eu456 2.471 . S
O478 C465 1.244 . S
O479 Eu456 2.349 . S
O479 C458 1.265 . S
C480 C481 1.379 . S
C480 C484 1.373 . S
C480 C486 1.505 . S
C481 C480 1.379 . S
C481 C483 1.369 . S
C481 H492 0.930 . S
C482 C484 1.383 . S
C482 C485 1.382 . S
C482 H493 0.930 . S
C483 C481 1.369 . S
C483 C485 1.392 . S
C483 H494 0.930 . S
C484 C480 1.373 . S
C484 C482 1.383 . S
C484 H495 0.931 . S
C485 C482 1.382 . S
C485 C483 1.392 . S
C486 Eu457 2.828 . S
C486 O470 1.249 . S
C486 O471 1.244 . S
C486 C480 1.505 . S
C487 O474 1.258 . S
C487 O475 1.242 . S
H488 C460 0.930 . S
H489 C461 0.930 . S
H490 C462 0.930 . S
H491 C463 0.931 . S
H492 C481 0.930 . S
H493 C482 0.930 . S
H494 C483 0.930 . S
H495 C484 0.931 . S
Eu496 C505 2.828 . S
Eu496 O507 2.392 . S
Eu496 O509 2.418 . S
Eu496 O514 2.373 . S
Eu496 O517 2.488 . S
Eu496 O518 2.471 . S
Eu496 O519 2.349 . S
Eu497 O506 2.373 . S
Eu497 O510 2.488 . S
Eu497 O511 2.471 . S
Eu497 O512 2.349 . S
Eu497 O515 2.392 . S
Eu497 O516 2.418 . S
Eu497 C526 2.828 . S
C498 O516 1.244 . S
C498 O519 1.265 . S
C499 C500 1.379 . S
C499 C503 1.373 . S
C499 C505 1.505 . S
C500 C499 1.379 . S
C500 C502 1.369 . S
C500 H528 0.930 . S
C501 C503 1.383 . S
C501 C504 1.382 . S
C501 H529 0.930 . S
C502 C500 1.369 . S
C502 C504 1.392 . S
C502 H530 0.930 . S
C503 C499 1.373 . S
C503 C501 1.383 . S
C503 H531 0.931 . S
C504 C501 1.382 . S
C504 C502 1.392 . S
C505 Eu496 2.828 . S
C505 C499 1.505 . S
C505 O517 1.249 . S
C505 O518 1.244 . S
O506 Eu497 2.373 . S
O506 C508 1.258 . S
O507 Eu496 2.392 . S
O507 C508 1.242 . S
C508 O506 1.258 . S
C508 O507 1.242 . S
O509 Eu496 2.418 . S
O509 C513 1.244 . S
O510 Eu497 2.488 . S
O510 C526 1.249 . S
O511 Eu497 2.471 . S
O511 C526 1.244 . S
O512 Eu497 2.349 . S
O512 C513 1.265 . S
C513 O509 1.244 . S
C513 O512 1.265 . S
O514 Eu496 2.373 . S
O514 C527 1.258 . S
O515 Eu497 2.392 . S
O515 C527 1.242 . S
O516 Eu497 2.418 . S
O516 C498 1.244 . S
O517 Eu496 2.488 . S
O517 C505 1.249 . S
O518 Eu496 2.471 . S
O518 C505 1.244 . S
O519 Eu496 2.349 . S
O519 C498 1.265 . S
C520 C521 1.379 . S
C520 C524 1.373 . S
C520 C526 1.505 . S
C521 C520 1.379 . S
C521 C523 1.369 . S
C521 H532 0.930 . S
C522 C524 1.383 . S
C522 C525 1.382 . S
C522 H533 0.930 . S
C523 C521 1.369 . S
C523 C525 1.392 . S
C523 H534 0.930 . S
C524 C520 1.373 . S
C524 C522 1.383 . S
C524 H535 0.931 . S
C525 C522 1.382 . S
C525 C523 1.392 . S
C526 Eu497 2.828 . S
C526 O510 1.249 . S
C526 O511 1.244 . S
C526 C520 1.505 . S
C527 O514 1.258 . S
C527 O515 1.242 . S
H528 C500 0.930 . S
H529 C501 0.930 . S
H530 C502 0.930 . S
H531 C503 0.931 . S
H532 C521 0.930 . S
H533 C522 0.930 . S
H534 C523 0.930 . S
H535 C524 0.931 . S
Eu536 C545 2.828 . S
Eu536 O547 2.392 . S
Eu536 O549 2.418 . S
Eu536 O554 2.373 . S
Eu536 O557 2.488 . S
Eu536 O558 2.471 . S
Eu536 O559 2.349 . S
Eu537 O546 2.373 . S
Eu537 O550 2.488 . S
Eu537 O551 2.471 . S
Eu537 O552 2.349 . S
Eu537 O555 2.392 . S
Eu537 O556 2.418 . S
Eu537 C566 2.828 . S
C538 O556 1.244 . S
C538 O559 1.265 . S
C539 C540 1.379 . S
C539 C543 1.373 . S
C539 C545 1.505 . S
C540 C539 1.379 . S
C540 C542 1.369 . S
C540 H568 0.930 . S
C541 C543 1.383 . S
C541 C544 1.382 . S
C541 H569 0.930 . S
C542 C540 1.369 . S
C542 C544 1.392 . S
C542 H570 0.930 . S
C543 C539 1.373 . S
C543 C541 1.383 . S
C543 H571 0.931 . S
C544 C541 1.382 . S
C544 C542 1.392 . S
C545 Eu536 2.828 . S
C545 C539 1.505 . S
C545 O557 1.249 . S
C545 O558 1.244 . S
O546 Eu537 2.373 . S
O546 C548 1.258 . S
O547 Eu536 2.392 . S
O547 C548 1.242 . S
C548 O546 1.258 . S
C548 O547 1.242 . S
O549 Eu536 2.418 . S
O549 C553 1.244 . S
O550 Eu537 2.488 . S
O550 C566 1.249 . S
O551 Eu537 2.471 . S
O551 C566 1.244 . S
O552 Eu537 2.349 . S
O552 C553 1.265 . S
C553 O549 1.244 . S
C553 O552 1.265 . S
O554 Eu536 2.373 . S
O554 C567 1.258 . S
O555 Eu537 2.392 . S
O555 C567 1.242 . S
O556 Eu537 2.418 . S
O556 C538 1.244 . S
O557 Eu536 2.488 . S
O557 C545 1.249 . S
O558 Eu536 2.471 . S
O558 C545 1.244 . S
O559 Eu536 2.349 . S
O559 C538 1.265 . S
C560 C561 1.379 . S
C560 C564 1.373 . S
C560 C566 1.505 . S
C561 C560 1.379 . S
C561 C563 1.369 . S
C561 H572 0.930 . S
C562 C564 1.383 . S
C562 C565 1.382 . S
C562 H573 0.930 . S
C563 C561 1.369 . S
C563 C565 1.392 . S
C563 H574 0.930 . S
C564 C560 1.373 . S
C564 C562 1.383 . S
C564 H575 0.931 . S
C565 C562 1.382 . S
C565 C563 1.392 . S
C566 Eu537 2.828 . S
C566 O550 1.249 . S
C566 O551 1.244 . S
C566 C560 1.505 . S
C567 O554 1.258 . S
C567 O555 1.242 . S
H568 C540 0.930 . S
H569 C541 0.930 . S
H570 C542 0.930 . S
H571 C543 0.931 . S
H572 C561 0.930 . S
H573 C562 0.930 . S
H574 C563 0.930 . S
H575 C564 0.931 . S
H576 C584 0.929 . S
H577 C586 0.930 . S
H578 C588 0.930 . S
H579 C591 0.929 . S
H580 C594 0.930 . S
H581 C596 0.960 . S
H582 C596 0.960 . S
H583 C596 0.960 . S
C584 H576 0.929 . S
C584 C585 1.377 . S
C584 C586 1.384 . S
C585 C584 1.377 . S
C585 C591 1.390 . S
C586 H577 0.930 . S
C586 C584 1.384 . S
C586 C587 1.372 . S
C587 C586 1.372 . S
C587 C588 1.400 . S
C587 C592 1.490 . S
C588 H578 0.930 . S
C588 C587 1.400 . S
C588 C591 1.386 . S
H589 C605 0.930 . S
H590 C606 0.931 . S
C591 H579 0.929 . S
C591 C585 1.390 . S
C591 C588 1.386 . S
C592 C587 1.490 . S
C592 C594 1.395 . S
C592 C595 1.403 . S
H593 C599 0.930 . S
C594 H580 0.930 . S
C594 C592 1.395 . S
C594 C597 1.403 . S
C595 C592 1.403 . S
C595 C596 1.524 . S
C595 C599 1.400 . S
C596 H581 0.960 . S
C596 H582 0.960 . S
C596 H583 0.960 . S
C596 C595 1.524 . S
C597 C594 1.403 . S
C597 C598 1.392 . S
C597 C601 1.495 . S
C598 C597 1.392 . S
C598 C599 1.385 . S
C598 C600 1.478 . S
C599 H593 0.930 . S
C599 C595 1.400 . S
C599 C598 1.385 . S
C600 C598 1.478 . S
C600 C602 1.381 . S
C600 C606 1.383 . S
C601 C597 1.495 . S
C601 H607 0.959 . S
C601 H608 0.961 . S
C601 H609 0.960 . S
C602 C600 1.381 . S
C602 C603 1.394 . S
C602 H610 0.930 . S
C603 C602 1.394 . S
C603 C604 1.383 . S
C603 H611 0.929 . S
C604 C603 1.383 . S
C604 C605 1.377 . S
C605 H589 0.930 . S
C605 C604 1.377 . S
C605 C606 1.379 . S
C606 H590 0.931 . S
C606 C600 1.383 . S
C606 C605 1.379 . S
H607 C601 0.959 . S
H608 C601 0.961 . S
H609 C601 0.960 . S
H610 C602 0.930 . S
H611 C603 0.929 . S
H612 C620 0.929 . S
H613 C622 0.930 . S
H614 C624 0.930 . S
H615 C627 0.929 . S
H616 C630 0.930 . S
H617 C632 0.960 . S
H618 C632 0.960 . S
H619 C632 0.960 . S
C620 H612 0.929 . S
C620 C621 1.377 . S
C620 C622 1.384 . S
C621 C620 1.377 . S
C621 C627 1.390 . S
C622 H613 0.930 . S
C622 C620 1.384 . S
C622 C623 1.372 . S
C623 C622 1.372 . S
C623 C624 1.400 . S
C623 C628 1.490 . S
C624 H614 0.930 . S
C624 C623 1.400 . S
C624 C627 1.386 . S
H625 C641 0.930 . S
H626 C642 0.931 . S
C627 H615 0.929 . S
C627 C621 1.390 . S
C627 C624 1.386 . S
C628 C623 1.490 . S
C628 C630 1.395 . S
C628 C631 1.403 . S
H629 C635 0.930 . S
C630 H616 0.930 . S
C630 C628 1.395 . S
C630 C633 1.403 . S
C631 C628 1.403 . S
C631 C632 1.524 . S
C631 C635 1.400 . S
C632 H617 0.960 . S
C632 H618 0.960 . S
C632 H619 0.960 . S
C632 C631 1.524 . S
C633 C630 1.403 . S
C633 C634 1.392 . S
C633 C637 1.495 . S
C634 C633 1.392 . S
C634 C635 1.385 . S
C634 C636 1.478 . S
C635 H629 0.930 . S
C635 C631 1.400 . S
C635 C634 1.385 . S
C636 C634 1.478 . S
C636 C638 1.381 . S
C636 C642 1.383 . S
C637 C633 1.495 . S
C637 H643 0.959 . S
C637 H644 0.961 . S
C637 H645 0.960 . S
C638 C636 1.381 . S
C638 C639 1.394 . S
C638 H646 0.930 . S
C639 C638 1.394 . S
C639 C640 1.383 . S
C639 H647 0.929 . S
C640 C639 1.383 . S
C640 C641 1.377 . S
C641 H625 0.930 . S
C641 C640 1.377 . S
C641 C642 1.379 . S
C642 H626 0.931 . S
C642 C636 1.383 . S
C642 C641 1.379 . S
H643 C637 0.959 . S
H644 C637 0.961 . S
H645 C637 0.960 . S
H646 C638 0.930 . S
H647 C639 0.929 . S
H648 C656 0.929 . S
H649 C658 0.930 . S
H650 C660 0.930 . S
H651 C663 0.929 . S
H652 C666 0.930 . S
H653 C668 0.960 . S
H654 C668 0.960 . S
H655 C668 0.960 . S
C656 H648 0.929 . S
C656 C657 1.377 . S
C656 C658 1.384 . S
C657 C656 1.377 . S
C657 C663 1.390 . S
C658 H649 0.930 . S
C658 C656 1.384 . S
C658 C659 1.372 . S
C659 C658 1.372 . S
C659 C660 1.400 . S
C659 C664 1.490 . S
C660 H650 0.930 . S
C660 C659 1.400 . S
C660 C663 1.386 . S
H661 C677 0.930 . S
H662 C678 0.931 . S
C663 H651 0.929 . S
C663 C657 1.390 . S
C663 C660 1.386 . S
C664 C659 1.490 . S
C664 C666 1.395 . S
C664 C667 1.403 . S
H665 C671 0.930 . S
C666 H652 0.930 . S
C666 C664 1.395 . S
C666 C669 1.403 . S
C667 C664 1.403 . S
C667 C668 1.524 . S
C667 C671 1.400 . S
C668 H653 0.960 . S
C668 H654 0.960 . S
C668 H655 0.960 . S
C668 C667 1.524 . S
C669 C666 1.403 . S
C669 C670 1.392 . S
C669 C673 1.495 . S
C670 C669 1.392 . S
C670 C671 1.385 . S
C670 C672 1.478 . S
C671 H665 0.930 . S
C671 C667 1.400 . S
C671 C670 1.385 . S
C672 C670 1.478 . S
C672 C674 1.381 . S
C672 C678 1.383 . S
C673 C669 1.495 . S
C673 H679 0.959 . S
C673 H680 1.006 . S
C673 H681 0.960 . S
C674 C672 1.381 . S
C674 C675 1.394 . S
C674 H682 0.930 . S
C675 C674 1.394 . S
C675 C676 1.383 . S
C675 H683 0.929 . S
C676 C675 1.383 . S
C676 C677 1.377 . S
C677 H661 0.930 . S
C677 C676 1.377 . S
C677 C678 1.379 . S
C678 H662 0.931 . S
C678 C672 1.383 . S
C678 C677 1.379 . S
H679 C673 0.959 . S
H680 C673 1.006 . S
H681 C673 0.960 . S
H682 C674 0.930 . S
H683 C675 0.929 . S
H684 C692 0.929 . S
H685 C694 0.930 . S
H686 C696 0.930 . S
H687 C699 0.929 . S
H688 C702 0.930 . S
H689 C704 0.960 . S
H690 C704 0.960 . S
H691 C704 0.960 . S
C692 H684 0.929 . S
C692 C693 1.377 . S
C692 C694 1.384 . S
C693 C692 1.377 . S
C693 C699 1.390 . S
C694 H685 0.930 . S
C694 C692 1.384 . S
C694 C695 1.372 . S
C695 C694 1.372 . S
C695 C696 1.400 . S
C695 C700 1.490 . S
C696 H686 0.930 . S
C696 C695 1.400 . S
C696 C699 1.386 . S
H697 C713 0.930 . S
H698 C714 0.931 . S
C699 H687 0.929 . S
C699 C693 1.390 . S
C699 C696 1.386 . S
C700 C695 1.490 . S
C700 C702 1.395 . S
C700 C703 1.403 . S
H701 C707 0.930 . S
C702 H688 0.930 . S
C702 C700 1.395 . S
C702 C705 1.403 . S
C703 C700 1.403 . S
C703 C704 1.524 . S
C703 C707 1.400 . S
C704 H689 0.960 . S
C704 H690 0.960 . S
C704 H691 0.960 . S
C704 C703 1.524 . S
C705 C702 1.403 . S
C705 C706 1.392 . S
C705 C709 1.495 . S
C706 C705 1.392 . S
C706 C707 1.385 . S
C706 C708 1.478 . S
C707 H701 0.930 . S
C707 C703 1.400 . S
C707 C706 1.385 . S
C708 C706 1.478 . S
C708 C710 1.381 . S
C708 C714 1.383 1_556 S
C709 C705 1.495 . S
C709 H715 0.959 . S
C709 H716 0.961 1_556 S
C709 H717 0.960 . S
C710 C708 1.381 . S
C710 C711 1.394 . S
C710 H718 0.930 . S
C711 C710 1.394 . S
C711 C712 1.328 1_556 S
C711 H719 0.929 . S
C712 C711 1.328 1_554 S
C712 C713 1.425 . S
C713 H697 0.930 . S
C713 C712 1.425 . S
C713 C714 1.379 . S
C714 H698 0.931 . S
C714 C708 1.383 1_554 S
C714 C713 1.379 . S
H715 C709 0.959 . S
H716 C709 0.961 1_554 S
H717 C709 0.960 . S
H718 C710 0.930 . S
H719 C711 0.929 . S
H720 C728 0.929 . S
H721 C730 0.930 . S
H722 C732 0.930 . S
H723 C735 0.929 . S
H724 C738 0.930 . S
H725 C740 0.960 . S
H726 C740 0.960 . S
H727 C740 0.960 . S
C728 H720 0.929 . S
C728 C729 1.377 . S
C728 C730 1.384 . S
C729 C728 1.377 . S
C729 C735 1.390 . S
C730 H721 0.930 . S
C730 C728 1.384 . S
C730 C731 1.372 . S
C731 C730 1.372 . S
C731 C732 1.400 . S
C731 C736 1.490 . S
C732 H722 0.930 . S
C732 C731 1.400 . S
C732 C735 1.386 . S
H733 C749 0.930 . S
H734 C750 0.931 . S
C735 H723 0.929 . S
C735 C729 1.390 . S
C735 C732 1.386 . S
C736 C731 1.490 . S
C736 C738 1.395 . S
C736 C739 1.403 . S
H737 C743 0.930 . S
C738 H724 0.930 . S
C738 C736 1.395 . S
C738 C741 1.403 . S
C739 C736 1.403 . S
C739 C740 1.524 . S
C739 C743 1.400 . S
C740 H725 0.960 . S
C740 H726 0.960 . S
C740 H727 0.960 . S
C740 C739 1.524 . S
C741 C738 1.403 . S
C741 C742 1.392 . S
C741 C745 1.495 1_556 S
C742 C741 1.392 . S
C742 C743 1.385 . S
C742 C744 1.478 . S
C743 H737 0.930 . S
C743 C739 1.400 . S
C743 C742 1.385 . S
C744 C742 1.478 . S
C744 C746 1.381 . S
C744 C750 1.383 . S
C745 C741 1.495 1_554 S
C745 H751 0.959 . S
C745 H752 0.961 . S
C745 H753 0.960 . S
C746 C744 1.381 . S
C746 C747 1.394 . S
C746 H754 0.930 . S
C747 C746 1.394 . S
C747 C748 1.396 . S
C747 H755 0.929 . S
C748 C747 1.396 . S
C748 C749 1.398 . S
C749 H733 0.930 . S
C749 C748 1.398 . S
C749 C750 1.379 . S
C750 H734 0.931 . S
C750 C744 1.383 . S
C750 C749 1.379 . S
H751 C745 0.959 . S
H752 C745 0.961 . S
H753 C745 0.960 . S
H754 C746 0.930 . S
H755 C747 0.929 . S
H756 C764 0.929 1_554 S
H757 C766 0.867 1_554 S
H758 C768 0.930 . S
H759 C771 0.929 . S
H760 C774 0.924 1_554 S
H761 C776 0.960 . S
H762 C776 0.960 . S
H763 C776 0.960 . S
C764 H756 0.929 1_556 S
C764 C765 1.377 . S
C764 C766 1.401 . S
C765 C764 1.377 . S
C765 C771 1.390 . S
C766 H757 0.867 1_556 S
C766 C764 1.401 . S
C766 C767 1.419 . S
C767 C766 1.419 . S
C767 C768 1.400 . S
C767 C772 1.490 . S
C768 H758 0.930 . S
C768 C767 1.400 . S
C768 C771 1.386 . S
H769 C785 0.930 . S
H770 C786 0.931 . S
C771 H759 0.929 . S
C771 C765 1.390 . S
C771 C768 1.386 . S
C772 C767 1.490 . S
C772 C774 1.404 . S
C772 C775 1.403 . S
H773 C779 0.930 . S
C774 H760 0.924 1_556 S
C774 C772 1.404 . S
C774 C777 1.400 1_556 S
C775 C772 1.403 . S
C775 C776 1.524 . S
C775 C779 1.400 . S
C776 H761 0.960 . S
C776 H762 0.960 . S
C776 H763 0.960 . S
C776 C775 1.524 . S
C777 C774 1.400 1_554 S
C777 C778 1.392 1_554 S
C777 C781 1.495 . S
C778 C777 1.392 1_556 S
C778 C779 1.385 . S
C778 C780 1.464 1_556 S
C779 H773 0.930 . S
C779 C775 1.400 . S
C779 C778 1.385 . S
C780 C778 1.464 1_554 S
C780 C782 1.450 . S
C780 C786 1.329 1_554 S
C781 C777 1.495 . S
C781 H787 0.959 . S
C781 H788 0.961 . S
C781 H789 0.960 . S
C782 C780 1.450 . S
C782 C783 1.394 . S
C782 H790 0.930 . S
C783 C782 1.394 . S
C783 C784 1.383 . S
C783 H791 0.929 . S
C784 C783 1.383 . S
C784 C785 1.377 1_554 S
C785 H769 0.930 . S
C785 C784 1.377 1_556 S
C785 C786 1.379 . S
C786 H770 0.931 . S
C786 C780 1.329 1_556 S
C786 C785 1.379 . S
H787 C781 0.959 . S
H788 C781 0.961 . S
H789 C781 0.960 . S
H790 C782 0.930 . S
H791 C783 0.929 . S
H792 C800 0.929 . S
H793 C802 0.930 . S
H794 C804 0.930 . S
H795 C807 0.929 . S
H796 C810 0.930 . S
H797 C812 0.960 . S
H798 C812 0.960 . S
H799 C812 0.960 . S
C800 H792 0.929 . S
C800 C801 1.377 . S
C800 C802 1.384 . S
C801 C800 1.377 . S
C801 C807 1.390 . S
C802 H793 0.930 . S
C802 C800 1.384 . S
C802 C803 1.372 . S
C803 C802 1.372 . S
C803 C804 1.400 . S
C803 C808 1.490 . S
C804 H794 0.930 . S
C804 C803 1.400 . S
C804 C807 1.386 . S
H805 C821 0.930 . S
H806 C822 0.931 . S
C807 H795 0.929 . S
C807 C801 1.390 . S
C807 C804 1.386 . S
C808 C803 1.490 . S
C808 C810 1.395 . S
C808 C811 1.403 . S
H809 C815 0.930 . S
C810 H796 0.930 . S
C810 C808 1.395 . S
C810 C813 1.403 . S
C811 C808 1.403 . S
C811 C812 1.524 . S
C811 C815 1.400 . S
C812 H797 0.960 . S
C812 H798 0.960 . S
C812 H799 0.960 . S
C812 C811 1.524 . S
C813 C810 1.403 . S
C813 C814 1.392 . S
C813 C817 1.495 1_556 S
C814 C813 1.392 . S
C814 C815 1.385 . S
C814 C816 1.478 . S
C815 H809 0.930 . S
C815 C811 1.400 . S
C815 C814 1.385 . S
C816 C814 1.478 . S
C816 C818 1.381 . S
C816 C822 1.383 1_556 S
C817 C813 1.495 1_554 S
C817 H823 0.959 . S
C817 H824 0.961 . S
C817 H825 0.960 . S
C818 C816 1.381 . S
C818 C819 1.394 . S
C818 H826 0.930 . S
C819 C818 1.394 . S
C819 C820 1.383 . S
C819 H827 0.929 . S
C820 C819 1.383 . S
C820 C821 1.377 1_556 S
C821 H805 0.930 . S
C821 C820 1.377 1_554 S
C821 C822 1.379 . S
C822 H806 0.931 . S
C822 C816 1.383 1_554 S
C822 C821 1.379 . S
H823 C817 0.959 . S
H824 C817 0.961 . S
H825 C817 0.960 . S
H826 C818 0.930 . S
H827 C819 0.929 . S
H828 C836 0.929 . S
H829 C838 0.930 . S
H830 C840 0.930 . S
H831 C843 0.929 . S
H832 C846 0.930 . S
H833 C848 0.901 1_554 S
H834 C848 0.960 . S
H835 C848 0.961 . S
C836 H828 0.929 . S
C836 C837 1.377 . S
C836 C838 1.384 . S
C837 C836 1.377 . S
C837 C843 1.390 . S
C838 H829 0.930 . S
C838 C836 1.384 . S
C838 C839 1.372 . S
C839 C838 1.372 . S
C839 C840 1.400 . S
C839 C844 1.490 . S
C840 H830 0.930 . S
C840 C839 1.400 . S
C840 C843 1.386 . S
H841 C857 0.930 . S
H842 C858 0.931 . S
C843 H831 0.929 . S
C843 C837 1.390 . S
C843 C840 1.386 . S
C844 C839 1.490 . S
C844 C846 1.395 . S
C844 C847 1.403 . S
H845 C851 0.930 . S
C846 H832 0.930 . S
C846 C844 1.395 . S
C846 C849 1.403 . S
C847 C844 1.403 . S
C847 C848 1.582 . S
C847 C851 1.400 . S
C848 H833 0.901 1_556 S
C848 H834 0.960 . S
C848 H835 0.961 . S
C848 C847 1.582 . S
C849 C846 1.403 . S
C849 C850 1.392 . S
C849 C853 1.495 . S
C850 C849 1.392 . S
C850 C851 1.385 . S
C850 C852 1.478 . S
C851 H845 0.930 . S
C851 C847 1.400 . S
C851 C850 1.385 . S
C852 C850 1.478 . S
C852 C854 1.381 . S
C852 C858 1.383 . S
C853 C849 1.495 . S
C853 H859 0.959 . S
C853 H860 0.961 . S
C853 H861 0.960 . S
C854 C852 1.381 . S
C854 C855 1.394 . S
C854 H862 0.930 . S
C855 C854 1.394 . S
C855 C856 1.383 . S
C855 H863 0.929 . S
C856 C855 1.383 . S
C856 C857 1.377 . S
C857 H841 0.930 . S
C857 C856 1.377 . S
C857 C858 1.379 . S
C858 H842 0.931 . S
C858 C852 1.383 . S
C858 C857 1.379 . S
H859 C853 0.959 . S
H860 C853 0.961 . S
H861 C853 0.960 . S
H862 C854 0.930 . S
H863 C855 0.929 . S
H864 C872 0.929 1_554 S
H865 C874 0.936 . S
H866 C876 0.930 . S
H867 C879 0.929 . S
H868 C882 0.930 . S
H869 C884 0.960 . S
H870 C884 0.960 . S
H871 C884 0.960 . S
C872 H864 0.929 1_556 S
C872 C873 1.377 . S
C872 C874 1.383 1_556 S
C873 C872 1.377 . S
C873 C879 1.390 . S
C874 H865 0.936 . S
C874 C872 1.383 1_554 S
C874 C875 1.366 1_554 S
C875 C874 1.366 1_556 S
C875 C876 1.400 . S
C875 C880 1.490 . S
C876 H866 0.930 . S
C876 C875 1.400 . S
C876 C879 1.386 . S
H877 C893 0.918 1_556 S
H878 C894 0.931 1_556 S
C879 H867 0.929 . S
C879 C873 1.390 . S
C879 C876 1.386 . S
C880 C875 1.490 . S
C880 C882 1.395 1_556 S
C880 C883 1.403 . S
H881 C887 0.930 . S
C882 H868 0.930 . S
C882 C880 1.395 1_554 S
C882 C885 1.403 . S
C883 C880 1.403 . S
C883 C884 1.524 . S
C883 C887 1.400 . S
C884 H869 0.960 . S
C884 H870 0.960 . S
C884 H871 0.960 . S
C884 C883 1.524 . S
C885 C882 1.403 . S
C885 C886 1.392 . S
C885 C889 1.495 . S
C886 C885 1.392 . S
C886 C887 1.385 1_554 S
C886 C888 1.478 . S
C887 H881 0.930 . S
C887 C883 1.400 . S
C887 C886 1.385 1_556 S
C888 C886 1.478 . S
C888 C890 1.381 . S
C888 C894 1.383 . S
C889 C885 1.495 . S
C889 H895 0.959 . S
C889 H896 0.961 . S
C889 H897 0.960 . S
C890 C888 1.381 . S
C890 C891 1.394 . S
C890 H898 0.930 . S
C891 C890 1.394 . S
C891 C892 1.383 . S
C891 H899 0.929 . S
C892 C891 1.383 . S
C892 C893 1.377 . S
C893 H877 0.918 1_554 S
C893 C892 1.377 . S
C893 C894 1.379 . S
C894 H878 0.931 1_554 S
C894 C888 1.383 . S
C894 C893 1.379 . S
H895 C889 0.959 . S
H896 C889 0.961 . S
H897 C889 0.960 . S
H898 C890 0.930 . S
H899 C891 0.929 . S
H900 C908 0.929 . S
H901 C910 0.930 . S
H902 C912 0.930 . S
H903 C915 0.929 . S
H904 C918 0.930 . S
H905 C920 0.960 1_556 S
H906 C920 0.960 . S
H907 C920 0.960 . S
C908 H900 0.929 . S
C908 C909 1.377 . S
C908 C910 1.384 . S
C909 C908 1.377 . S
C909 C915 1.390 . S
C910 H901 0.930 . S
C910 C908 1.384 . S
C910 C911 1.372 . S
C911 C910 1.372 . S
C911 C912 1.400 . S
C911 C916 1.490 . S
C912 H902 0.930 . S
C912 C911 1.400 . S
C912 C915 1.386 . S
H913 C929 0.930 . S
H914 C930 0.931 . S
C915 H903 0.929 . S
C915 C909 1.390 . S
C915 C912 1.386 . S
C916 C911 1.490 . S
C916 C918 1.395 . S
C916 C919 1.403 . S
H917 C923 0.930 . S
C918 H904 0.930 . S
C918 C916 1.395 . S
C918 C921 1.403 . S
C919 C916 1.403 . S
C919 C920 1.524 . S
C919 C923 1.400 . S
C920 H905 0.960 1_554 S
C920 H906 0.960 . S
C920 H907 0.960 . S
C920 C919 1.524 . S
C921 C918 1.403 . S
C921 C922 1.392 . S
C921 C925 1.495 . S
C922 C921 1.392 . S
C922 C923 1.385 . S
C922 C924 1.478 . S
C923 H917 0.930 . S
C923 C919 1.400 . S
C923 C922 1.385 . S
C924 C922 1.478 . S
C924 C926 1.381 . S
C924 C930 1.383 . S
C925 C921 1.495 . S
C925 H931 0.959 . S
C925 H932 0.961 . S
C925 H933 0.960 . S
C926 C924 1.381 . S
C926 C927 1.394 . S
C926 H934 0.930 . S
C927 C926 1.394 . S
C927 C928 1.383 . S
C927 H935 0.929 . S
C928 C927 1.383 . S
C928 C929 1.377 . S
C929 H913 0.930 . S
C929 C928 1.377 . S
C929 C930 1.379 . S
C930 H914 0.931 . S
C930 C924 1.383 . S
C930 C929 1.379 . S
H931 C925 0.959 . S
H932 C925 0.961 . S
H933 C925 0.960 . S
H934 C926 0.930 . S
H935 C927 0.929 . S
H936 C944 0.929 . S
H937 C946 0.930 . S
H938 C948 0.930 . S
H939 C951 0.929 . S
H940 C954 0.930 . S
H941 C956 0.960 . S
H942 C956 0.960 . S
H943 C956 0.960 . S
C944 H936 0.929 . S
C944 C945 1.377 . S
C944 C946 1.384 . S
C945 C944 1.377 . S
C945 C951 1.390 . S
C946 H937 0.930 . S
C946 C944 1.384 . S
C946 C947 1.372 . S
C947 C946 1.372 . S
C947 C948 1.400 . S
C947 C952 1.490 . S
C948 H938 0.930 . S
C948 C947 1.400 . S
C948 C951 1.386 . S
H949 C965 0.930 . S
H950 C966 0.931 . S
C951 H939 0.929 . S
C951 C945 1.390 . S
C951 C948 1.386 . S
C952 C947 1.490 . S
C952 C954 1.395 . S
C952 C955 1.403 . S
H953 C959 0.930 . S
C954 H940 0.930 . S
C954 C952 1.395 . S
C954 C957 1.403 . S
C955 C952 1.403 . S
C955 C956 1.524 . S
C955 C959 1.400 . S
C956 H941 0.960 . S
C956 H942 0.960 . S
C956 H943 0.960 . S
C956 C955 1.524 . S
C957 C954 1.403 . S
C957 C958 1.392 . S
C957 C961 1.495 . S
C958 C957 1.392 . S
C958 C959 1.385 . S
C958 C960 1.478 . S
C959 H953 0.930 . S
C959 C955 1.400 . S
C959 C958 1.385 . S
C960 C958 1.478 . S
C960 C962 1.381 . S
C960 C966 1.383 . S
C961 C957 1.495 . S
C961 H967 0.959 . S
C961 H968 0.961 . S
C961 H969 0.960 . S
C962 C960 1.381 . S
C962 C963 1.394 . S
C962 H970 0.930 . S
C963 C962 1.394 . S
C963 C964 1.383 . S
C963 H971 0.929 . S
C964 C963 1.383 . S
C964 C965 1.377 . S
C965 H949 0.930 . S
C965 C964 1.377 . S
C965 C966 1.379 . S
C966 H950 0.931 . S
C966 C960 1.383 . S
C966 C965 1.379 . S
H967 C961 0.959 . S
H968 C961 0.961 . S
H969 C961 0.960 . S
H970 C962 0.930 . S
H971 C963 0.929 . S
H972 C980 0.929 . S
H973 C982 0.930 . S
H974 C984 0.930 . S
H975 C987 0.929 . S
H976 C990 0.930 . S
H977 C992 0.960 . S
H978 C992 0.960 . S
H979 C992 0.960 . S
C980 H972 0.929 . S
C980 C981 1.377 . S
C980 C982 1.384 . S
C981 C980 1.377 . S
C981 C987 1.390 . S
C982 H973 0.930 . S
C982 C980 1.384 . S
C982 C983 1.372 . S
C983 C982 1.372 . S
C983 C984 1.400 . S
C983 C988 1.490 . S
C984 H974 0.930 . S
C984 C983 1.400 . S
C984 C987 1.386 . S
H985 C1001 0.930 . S
H986 C1002 0.931 . S
C987 H975 0.929 . S
C987 C981 1.390 . S
C987 C984 1.386 . S
C988 C983 1.490 . S
C988 C990 1.395 . S
C988 C991 1.403 . S
H989 C995 0.930 . S
C990 H976 0.930 . S
C990 C988 1.395 . S
C990 C993 1.403 . S
C991 C988 1.403 . S
C991 C992 1.524 . S
C991 C995 1.400 . S
C992 H977 0.960 . S
C992 H978 0.960 . S
C992 H979 0.960 . S
C992 C991 1.524 . S
C993 C990 1.403 . S
C993 C994 1.392 . S
C993 C997 1.495 1_554 S
C994 C993 1.392 . S
C994 C995 1.385 . S
C994 C996 1.478 . S
C995 H989 0.930 . S
C995 C991 1.400 . S
C995 C994 1.385 . S
C996 C994 1.478 . S
C996 C998 1.381 . S
C996 C1002 1.383 . S
C997 C993 1.495 1_556 S
C997 H1003 0.959 . S
C997 H1004 0.961 . S
C997 H1005 0.960 . S
C998 C996 1.381 . S
C998 C999 1.394 . S
C998 H1006 0.930 . S
C999 C998 1.394 . S
C999 C1000 1.383 . S
C999 H1007 0.929 . S
C1000 C999 1.383 . S
C1000 C1001 1.377 . S
C1001 H985 0.930 . S
C1001 C1000 1.377 . S
C1001 C1002 1.379 . S
C1002 H986 0.931 . S
C1002 C996 1.383 . S
C1002 C1001 1.379 . S
H1003 C997 0.959 . S
H1004 C997 0.961 . S
H1005 C997 0.960 . S
H1006 C998 0.930 . S
H1007 C999 0.929 . S
H1008 C1016 0.929 . S
H1009 C1018 0.930 . S
H1010 C1020 0.930 . S
H1011 C1023 0.929 . S
H1012 C1026 0.930 . S
H1013 C1028 0.960 . S
H1014 C1028 0.960 . S
H1015 C1028 0.960 . S
C1016 H1008 0.929 . S
C1016 C1017 1.377 . S
C1016 C1018 1.384 . S
C1017 C1016 1.377 . S
C1017 C1023 1.390 . S
C1018 H1009 0.930 . S
C1018 C1016 1.384 . S
C1018 C1019 1.372 . S
C1019 C1018 1.372 . S
C1019 C1020 1.400 . S
C1019 C1024 1.490 . S
C1020 H1010 0.930 . S
C1020 C1019 1.400 . S
C1020 C1023 1.386 . S
H1021 C1037 0.930 . S
H1022 C1038 0.931 . S
C1023 H1011 0.929 . S
C1023 C1017 1.390 . S
C1023 C1020 1.386 . S
C1024 C1019 1.490 . S
C1024 C1026 1.395 . S
C1024 C1027 1.403 . S
H1025 C1031 0.930 . S
C1026 H1012 0.930 . S
C1026 C1024 1.395 . S
C1026 C1029 1.386 1_655 S
C1027 C1024 1.403 . S
C1027 C1028 1.524 . S
C1027 C1031 1.400 1_655 S
C1028 H1013 0.960 . S
C1028 H1014 0.960 . S
C1028 H1015 0.960 . S
C1028 C1027 1.524 . S
C1029 C1026 1.386 1_455 S
C1029 C1030 1.419 . S
C1029 C1033 1.486 . S
C1030 C1029 1.419 . S
C1030 C1031 1.385 . S
C1030 C1032 1.478 . S
C1031 H1025 0.930 . S
C1031 C1027 1.400 1_455 S
C1031 C1030 1.385 . S
C1032 C1030 1.478 . S
C1032 C1034 1.381 . S
C1032 C1038 1.383 . S
C1033 C1029 1.486 . S
C1033 H1039 0.959 1_455 S
C1033 H1040 0.961 . S
C1033 H1041 0.960 . S
C1034 C1032 1.381 . S
C1034 C1035 1.394 . S
C1034 H1042 0.930 . S
C1035 C1034 1.394 . S
C1035 C1036 1.383 . S
C1035 H1043 0.929 . S
C1036 C1035 1.383 . S
C1036 C1037 1.377 . S
C1037 H1021 0.930 . S
C1037 C1036 1.377 . S
C1037 C1038 1.379 . S
C1038 H1022 0.931 . S
C1038 C1032 1.383 . S
C1038 C1037 1.379 . S
H1039 C1033 0.959 1_655 S
H1040 C1033 0.961 . S
H1041 C1033 0.960 . S
H1042 C1034 0.930 . S
H1043 C1035 0.929 . S
H1044 C1052 0.929 . S
H1045 C1054 0.930 . S
H1046 C1056 0.930 . S
H1047 C1059 0.929 . S
H1048 C1062 0.930 . S
H1049 C1064 0.960 . S
H1050 C1064 0.960 . S
H1051 C1064 0.960 . S
C1052 H1044 0.929 . S
C1052 C1053 1.377 . S
C1052 C1054 1.384 . S
C1053 C1052 1.377 . S
C1053 C1059 1.390 . S
C1054 H1045 0.930 . S
C1054 C1052 1.384 . S
C1054 C1055 1.372 . S
C1055 C1054 1.372 . S
C1055 C1056 1.400 . S
C1055 C1060 1.490 . S
C1056 H1046 0.930 . S
C1056 C1055 1.400 . S
C1056 C1059 1.386 . S
H1057 C1073 0.930 . S
H1058 C1074 0.931 . S
C1059 H1047 0.929 . S
C1059 C1053 1.390 . S
C1059 C1056 1.386 . S
C1060 C1055 1.490 . S
C1060 C1062 1.395 . S
C1060 C1063 1.403 . S
H1061 C1067 0.930 . S
C1062 H1048 0.930 . S
C1062 C1060 1.395 . S
C1062 C1065 1.403 . S
C1063 C1060 1.403 . S
C1063 C1064 1.524 . S
C1063 C1067 1.400 . S
C1064 H1049 0.960 . S
C1064 H1050 0.960 . S
C1064 H1051 0.960 . S
C1064 C1063 1.524 . S
C1065 C1062 1.403 . S
C1065 C1066 1.392 . S
C1065 C1069 1.495 . S
C1066 C1065 1.392 . S
C1066 C1067 1.385 . S
C1066 C1068 1.478 . S
C1067 H1061 0.930 . S
C1067 C1063 1.400 . S
C1067 C1066 1.385 . S
C1068 C1066 1.478 . S
C1068 C1070 1.381 . S
C1068 C1074 1.383 . S
C1069 C1065 1.495 . S
C1069 H1075 0.959 . S
C1069 H1076 0.961 . S
C1069 H1077 0.960 . S
C1070 C1068 1.381 . S
C1070 C1071 1.394 . S
C1070 H1078 0.930 . S
C1071 C1070 1.394 . S
C1071 C1072 1.383 . S
C1071 H1079 0.929 . S
C1072 C1071 1.383 . S
C1072 C1073 1.377 . S
C1073 H1057 0.930 . S
C1073 C1072 1.377 . S
C1073 C1074 1.379 . S
C1074 H1058 0.931 . S
C1074 C1068 1.383 . S
C1074 C1073 1.379 . S
H1075 C1069 0.959 . S
H1076 C1069 0.961 . S
H1077 C1069 0.960 . S
H1078 C1070 0.930 . S
H1079 C1071 0.929 . S
H1080 C1088 0.929 . S
H1081 C1090 0.930 . S
H1082 C1092 0.930 . S
H1083 C1095 0.929 . S
H1084 C1098 0.930 . S
H1085 C1100 0.960 . S
H1086 C1100 0.960 . S
H1087 C1100 0.960 . S
C1088 H1080 0.929 . S
C1088 C1089 1.377 . S
C1088 C1090 1.384 . S
C1089 C1088 1.377 . S
C1089 C1095 1.390 . S
C1090 H1081 0.930 . S
C1090 C1088 1.384 . S
C1090 C1091 1.372 . S
C1091 C1090 1.372 . S
C1091 C1092 1.400 . S
C1091 C1096 1.490 . S
C1092 H1082 0.930 . S
C1092 C1091 1.400 . S
C1092 C1095 1.386 . S
H1093 C1109 0.930 . S
H1094 C1110 0.931 . S
C1095 H1083 0.929 . S
C1095 C1089 1.390 . S
C1095 C1092 1.386 . S
C1096 C1091 1.490 . S
C1096 C1098 1.395 . S
C1096 C1099 1.403 . S
H1097 C1103 0.930 1_565 S
C1098 H1084 0.930 . S
C1098 C1096 1.395 . S
C1098 C1101 1.403 . S
C1099 C1096 1.403 . S
C1099 C1100 1.524 . S
C1099 C1103 1.400 . S
C1100 H1085 0.960 . S
C1100 H1086 0.960 . S
C1100 H1087 0.960 . S
C1100 C1099 1.524 . S
C1101 C1098 1.403 . S
C1101 C1102 1.377 1_545 S
C1101 C1105 1.495 . S
C1102 C1101 1.377 1_565 S
C1102 C1103 1.349 1_565 S
C1102 C1104 1.530 . S
C1103 H1097 0.930 1_545 S
C1103 C1099 1.400 . S
C1103 C1102 1.349 1_545 S
C1104 C1102 1.530 . S
C1104 C1106 1.381 . S
C1104 C1110 1.383 . S
C1105 C1101 1.495 . S
C1105 H1111 0.959 . S
C1105 H1112 0.961 . S
C1105 H1113 0.960 . S
C1106 C1104 1.381 . S
C1106 C1107 1.394 . S
C1106 H1114 0.930 . S
C1107 C1106 1.394 . S
C1107 C1108 1.383 . S
C1107 H1115 0.929 . S
C1108 C1107 1.383 . S
C1108 C1109 1.377 . S
C1109 H1093 0.930 . S
C1109 C1108 1.377 . S
C1109 C1110 1.379 . S
C1110 H1094 0.931 . S
C1110 C1104 1.383 . S
C1110 C1109 1.379 . S
H1111 C1105 0.959 . S
H1112 C1105 0.961 . S
H1113 C1105 0.960 . S
H1114 C1106 0.930 . S
H1115 C1107 0.929 . S
H1116 C1124 0.929 . S
H1117 C1126 0.930 . S
H1118 C1128 0.930 . S
H1119 C1131 0.929 . S
H1120 C1134 0.930 . S
H1121 C1136 0.960 . S
H1122 C1136 0.960 . S
H1123 C1136 0.960 . S
C1124 H1116 0.929 . S
C1124 C1125 1.377 . S
C1124 C1126 1.384 . S
C1125 C1124 1.377 . S
C1125 C1131 1.390 . S
C1126 H1117 0.930 . S
C1126 C1124 1.384 . S
C1126 C1127 1.372 . S
C1127 C1126 1.372 . S
C1127 C1128 1.400 . S
C1127 C1132 1.490 . S
C1128 H1118 0.930 . S
C1128 C1127 1.400 . S
C1128 C1131 1.386 . S
H1129 C1145 0.930 . S
H1130 C1146 0.931 . S
C1131 H1119 0.929 . S
C1131 C1125 1.390 . S
C1131 C1128 1.386 . S
C1132 C1127 1.490 . S
C1132 C1134 1.395 . S
C1132 C1135 1.403 . S
H1133 C1139 0.930 . S
C1134 H1120 0.930 . S
C1134 C1132 1.395 . S
C1134 C1137 1.403 . S
C1135 C1132 1.403 . S
C1135 C1136 1.524 . S
C1135 C1139 1.400 . S
C1136 H1121 0.960 . S
C1136 H1122 0.960 . S
C1136 H1123 0.960 . S
C1136 C1135 1.524 . S
C1137 C1134 1.403 . S
C1137 C1138 1.392 . S
C1137 C1141 1.495 . S
C1138 C1137 1.392 . S
C1138 C1139 1.385 . S
C1138 C1140 1.478 . S
C1139 H1133 0.930 . S
C1139 C1135 1.400 . S
C1139 C1138 1.385 . S
C1140 C1138 1.478 . S
C1140 C1142 1.381 . S
C1140 C1146 1.383 . S
C1141 C1137 1.495 . S
C1141 H1147 0.959 . S
C1141 H1148 0.961 . S
C1141 H1149 0.960 . S
C1142 C1140 1.381 . S
C1142 C1143 1.394 . S
C1142 H1150 0.930 . S
C1143 C1142 1.394 . S
C1143 C1144 1.383 . S
C1143 H1151 0.929 . S
C1144 C1143 1.383 . S
C1144 C1145 1.377 . S
C1145 H1129 0.930 . S
C1145 C1144 1.377 . S
C1145 C1146 1.379 . S
C1146 H1130 0.931 . S
C1146 C1140 1.383 . S
C1146 C1145 1.379 . S
H1147 C1141 0.959 . S
H1148 C1141 0.961 . S
H1149 C1141 0.960 . S
H1150 C1142 0.930 . S
H1151 C1143 0.929 . S
H1152 C1160 0.929 . S
H1153 C1162 0.930 . S
H1154 C1164 0.930 . S
H1155 C1167 0.929 . S
H1156 C1170 0.930 . S
H1157 C1172 0.960 . S
H1158 C1172 0.960 . S
H1159 C1172 0.960 . S
C1160 H1152 0.929 . S
C1160 C1161 1.377 . S
C1160 C1162 1.384 . S
C1161 C1160 1.377 . S
C1161 C1167 1.390 . S
C1162 H1153 0.930 . S
C1162 C1160 1.384 . S
C1162 C1163 1.372 . S
C1163 C1162 1.372 . S
C1163 C1164 1.400 . S
C1163 C1168 1.490 . S
C1164 H1154 0.930 . S
C1164 C1163 1.400 . S
C1164 C1167 1.386 . S
H1165 C1181 0.930 . S
H1166 C1182 0.931 . S
C1167 H1155 0.929 . S
C1167 C1161 1.390 . S
C1167 C1164 1.386 . S
C1168 C1163 1.490 . S
C1168 C1170 1.395 . S
C1168 C1171 1.403 . S
H1169 C1175 0.930 . S
C1170 H1156 0.930 . S
C1170 C1168 1.395 . S
C1170 C1173 1.403 . S
C1171 C1168 1.403 . S
C1171 C1172 1.524 . S
C1171 C1175 1.400 . S
C1172 H1157 0.960 . S
C1172 H1158 0.960 . S
C1172 H1159 0.960 . S
C1172 C1171 1.524 . S
C1173 C1170 1.403 . S
C1173 C1174 1.392 . S
C1173 C1177 1.495 . S
C1174 C1173 1.392 . S
C1174 C1175 1.385 . S
C1174 C1176 1.478 . S
C1175 H1169 0.930 . S
C1175 C1171 1.400 . S
C1175 C1174 1.385 . S
C1176 C1174 1.478 . S
C1176 C1178 1.381 . S
C1176 C1182 1.383 . S
C1177 C1173 1.495 . S
C1177 H1183 0.959 . S
C1177 H1184 0.961 . S
C1177 H1185 0.960 . S
C1178 C1176 1.381 . S
C1178 C1179 1.394 . S
C1178 H1186 0.930 . S
C1179 C1178 1.394 . S
C1179 C1180 1.383 . S
C1179 H1187 0.929 . S
C1180 C1179 1.383 . S
C1180 C1181 1.377 . S
C1181 H1165 0.930 . S
C1181 C1180 1.377 . S
C1181 C1182 1.379 . S
C1182 H1166 0.931 . S
C1182 C1176 1.383 . S
C1182 C1181 1.379 . S
H1183 C1177 0.959 . S
H1184 C1177 0.961 . S
H1185 C1177 0.960 . S
H1186 C1178 0.930 . S
H1187 C1179 0.929 . S
H1188 C1196 0.929 . S
H1189 C1198 0.930 . S
H1190 C1200 0.930 . S
H1191 C1203 0.929 . S
H1192 C1206 0.930 . S
H1193 C1208 0.960 . S
H1194 C1208 0.960 . S
H1195 C1208 0.960 . S
C1196 H1188 0.929 . S
C1196 C1197 1.377 . S
C1196 C1198 1.384 . S
C1197 C1196 1.377 . S
C1197 C1203 1.390 . S
C1198 H1189 0.930 . S
C1198 C1196 1.384 . S
C1198 C1199 1.372 . S
C1199 C1198 1.372 . S
C1199 C1200 1.400 . S
C1199 C1204 1.490 . S
C1200 H1190 0.930 . S
C1200 C1199 1.400 . S
C1200 C1203 1.386 . S
H1201 C1217 0.930 . S
H1202 C1218 0.931 . S
C1203 H1191 0.929 . S
C1203 C1197 1.390 . S
C1203 C1200 1.386 . S
C1204 C1199 1.490 . S
C1204 C1206 1.395 . S
C1204 C1207 1.403 . S
H1205 C1211 0.930 . S
C1206 H1192 0.930 . S
C1206 C1204 1.395 . S
C1206 C1209 1.403 . S
C1207 C1204 1.403 . S
C1207 C1208 1.524 . S
C1207 C1211 1.400 . S
C1208 H1193 0.960 . S
C1208 H1194 0.960 . S
C1208 H1195 0.960 . S
C1208 C1207 1.524 . S
C1209 C1206 1.403 . S
C1209 C1210 1.392 . S
C1209 C1213 1.495 . S
C1210 C1209 1.392 . S
C1210 C1211 1.385 . S
C1210 C1212 1.478 . S
C1211 H1205 0.930 . S
C1211 C1207 1.400 . S
C1211 C1210 1.385 . S
C1212 C1210 1.478 . S
C1212 C1214 1.381 . S
C1212 C1218 1.383 . S
C1213 C1209 1.495 . S
C1213 H1219 0.959 . S
C1213 H1220 0.961 . S
C1213 H1221 0.960 . S
C1214 C1212 1.381 . S
C1214 C1215 1.394 . S
C1214 H1222 0.930 . S
C1215 C1214 1.394 . S
C1215 C1216 1.383 . S
C1215 H1223 0.929 . S
C1216 C1215 1.383 . S
C1216 C1217 1.377 . S
C1217 H1201 0.930 . S
C1217 C1216 1.377 . S
C1217 C1218 1.379 . S
C1218 H1202 0.931 . S
C1218 C1212 1.383 . S
C1218 C1217 1.379 . S
H1219 C1213 0.959 . S
H1220 C1213 0.961 . S
H1221 C1213 0.960 . S
H1222 C1214 0.930 . S
H1223 C1215 0.929 . S
H1224 C1232 0.929 . S
H1225 C1234 0.930 . S
H1226 C1236 0.930 . S
H1227 C1239 0.929 . S
H1228 C1242 0.930 . S
H1229 C1244 0.960 . S
H1230 C1244 0.960 . S
H1231 C1244 0.960 . S
C1232 H1224 0.929 . S
C1232 C1233 1.377 . S
C1232 C1234 1.384 . S
C1233 C1232 1.377 . S
C1233 C1239 1.390 . S
C1234 H1225 0.930 . S
C1234 C1232 1.384 . S
C1234 C1235 1.372 . S
C1235 C1234 1.372 . S
C1235 C1236 1.400 . S
C1235 C1240 1.490 . S
C1236 H1226 0.930 . S
C1236 C1235 1.400 . S
C1236 C1239 1.386 . S
H1237 C1253 0.930 . S
H1238 C1254 0.931 . S
C1239 H1227 0.929 . S
C1239 C1233 1.390 . S
C1239 C1236 1.386 . S
C1240 C1235 1.490 . S
C1240 C1242 1.395 . S
C1240 C1243 1.403 . S
H1241 C1247 0.930 . S
C1242 H1228 0.930 . S
C1242 C1240 1.395 . S
C1242 C1245 1.403 . S
C1243 C1240 1.403 . S
C1243 C1244 1.524 . S
C1243 C1247 1.400 . S
C1244 H1229 0.960 . S
C1244 H1230 0.960 . S
C1244 H1231 0.960 . S
C1244 C1243 1.524 . S
C1245 C1242 1.403 . S
C1245 C1246 1.392 . S
C1245 C1249 1.495 . S
C1246 C1245 1.392 . S
C1246 C1247 1.385 . S
C1246 C1248 1.478 . S
C1247 H1241 0.930 . S
C1247 C1243 1.400 . S
C1247 C1246 1.385 . S
C1248 C1246 1.478 . S
C1248 C1250 1.381 . S
C1248 C1254 1.383 . S
C1249 C1245 1.495 . S
C1249 H1255 0.959 . S
C1249 H1256 0.961 . S
C1249 H1257 0.960 . S
C1250 C1248 1.381 . S
C1250 C1251 1.394 . S
C1250 H1258 0.930 . S
C1251 C1250 1.394 . S
C1251 C1252 1.383 . S
C1251 H1259 0.929 . S
C1252 C1251 1.383 . S
C1252 C1253 1.377 . S
C1253 H1237 0.930 . S
C1253 C1252 1.377 . S
C1253 C1254 1.379 . S
C1254 H1238 0.931 . S
C1254 C1248 1.383 . S
C1254 C1253 1.379 . S
H1255 C1249 0.959 . S
H1256 C1249 0.961 . S
H1257 C1249 0.960 . S
H1258 C1250 0.930 . S
H1259 C1251 0.929 . S
H1260 C1268 0.929 . S
H1261 C1270 0.930 . S
H1262 C1272 0.930 . S
H1263 C1275 0.929 . S
H1264 C1278 0.930 . S
H1265 C1280 0.960 . S
H1266 C1280 0.960 . S
H1267 C1280 0.960 . S
C1268 H1260 0.929 . S
C1268 C1269 1.377 . S
C1268 C1270 1.384 . S
C1269 C1268 1.377 . S
C1269 C1275 1.390 . S
C1270 H1261 0.930 . S
C1270 C1268 1.384 . S
C1270 C1271 1.372 . S
C1271 C1270 1.372 . S
C1271 C1272 1.400 . S
C1271 C1276 1.490 . S
C1272 H1262 0.930 . S
C1272 C1271 1.400 . S
C1272 C1275 1.386 . S
H1273 C1289 0.930 . S
H1274 C1290 0.931 . S
C1275 H1263 0.929 . S
C1275 C1269 1.390 . S
C1275 C1272 1.386 . S
C1276 C1271 1.490 . S
C1276 C1278 1.395 . S
C1276 C1279 1.403 . S
H1277 C1283 0.930 . S
C1278 H1264 0.930 . S
C1278 C1276 1.395 . S
C1278 C1281 1.403 . S
C1279 C1276 1.403 . S
C1279 C1280 1.524 . S
C1279 C1283 1.400 . S
C1280 H1265 0.960 . S
C1280 H1266 0.960 . S
C1280 H1267 0.960 . S
C1280 C1279 1.524 . S
C1281 C1278 1.403 . S
C1281 C1282 1.392 . S
C1281 C1285 1.495 . S
C1282 C1281 1.392 . S
C1282 C1283 1.385 . S
C1282 C1284 1.478 . S
C1283 H1277 0.930 . S
C1283 C1279 1.400 . S
C1283 C1282 1.385 . S
C1284 C1282 1.478 . S
C1284 C1286 1.381 . S
C1284 C1290 1.383 . S
C1285 C1281 1.495 . S
C1285 H1291 0.959 . S
C1285 H1292 0.961 . S
C1285 H1293 0.960 . S
C1286 C1284 1.381 . S
C1286 C1287 1.394 . S
C1286 H1294 0.930 . S
C1287 C1286 1.394 . S
C1287 C1288 1.383 . S
C1287 H1295 0.929 . S
C1288 C1287 1.383 . S
C1288 C1289 1.377 . S
C1289 H1273 0.930 . S
C1289 C1288 1.377 . S
C1289 C1290 1.379 . S
C1290 H1274 0.931 . S
C1290 C1284 1.383 . S
C1290 C1289 1.379 . S
H1291 C1285 0.959 . S
H1292 C1285 0.961 . S
H1293 C1285 0.960 . S
H1294 C1286 0.930 . S
H1295 C1287 0.929 . S
H1296 C1304 0.929 . S
H1297 C1306 0.930 . S
H1298 C1308 0.930 . S
H1299 C1311 0.929 . S
H1300 C1314 0.930 . S
H1301 C1316 0.960 . S
H1302 C1316 0.960 . S
H1303 C1316 0.960 . S
C1304 H1296 0.929 . S
C1304 C1305 1.377 . S
C1304 C1306 1.384 . S
C1305 C1304 1.377 . S
C1305 C1311 1.390 . S
C1306 H1297 0.930 . S
C1306 C1304 1.384 . S
C1306 C1307 1.372 . S
C1307 C1306 1.372 . S
C1307 C1308 1.400 . S
C1307 C1312 1.490 . S
C1308 H1298 0.930 . S
C1308 C1307 1.400 . S
C1308 C1311 1.386 . S
H1309 C1325 0.930 . S
H1310 C1326 0.931 . S
C1311 H1299 0.929 . S
C1311 C1305 1.390 . S
C1311 C1308 1.386 . S
C1312 C1307 1.490 . S
C1312 C1314 1.395 . S
C1312 C1315 1.403 . S
H1313 C1319 0.930 . S
C1314 H1300 0.930 . S
C1314 C1312 1.395 . S
C1314 C1317 1.403 . S
C1315 C1312 1.403 . S
C1315 C1316 1.524 . S
C1315 C1319 1.400 . S
C1316 H1301 0.960 . S
C1316 H1302 0.960 . S
C1316 H1303 0.960 . S
C1316 C1315 1.524 . S
C1317 C1314 1.403 . S
C1317 C1318 1.392 . S
C1317 C1321 1.495 . S
C1318 C1317 1.392 . S
C1318 C1319 1.385 . S
C1318 C1320 1.478 . S
C1319 H1313 0.930 . S
C1319 C1315 1.400 . S
C1319 C1318 1.385 . S
C1320 C1318 1.478 . S
C1320 C1322 1.381 . S
C1320 C1326 1.383 . S
C1321 C1317 1.495 . S
C1321 H1327 0.959 . S
C1321 H1328 0.961 . S
C1321 H1329 0.960 . S
C1322 C1320 1.381 . S
C1322 C1323 1.394 . S
C1322 H1330 0.930 . S
C1323 C1322 1.394 . S
C1323 C1324 1.383 . S
C1323 H1331 0.929 . S
C1324 C1323 1.383 . S
C1324 C1325 1.377 . S
C1325 H1309 0.930 . S
C1325 C1324 1.377 . S
C1325 C1326 1.379 . S
C1326 H1310 0.931 . S
C1326 C1320 1.383 . S
C1326 C1325 1.379 . S
H1327 C1321 0.959 . S
H1328 C1321 0.961 . S
H1329 C1321 0.960 . S
H1330 C1322 0.930 . S
H1331 C1323 0.929 . S
H1332 C1340 0.929 . S
H1333 C1342 0.930 . S
H1334 C1344 0.930 . S
H1335 C1347 0.929 . S
H1336 C1350 0.930 . S
H1337 C1352 0.960 . S
H1338 C1352 0.960 . S
H1339 C1352 0.960 . S
C1340 H1332 0.929 . S
C1340 C1341 1.377 . S
C1340 C1342 1.384 . S
C1341 C1340 1.377 . S
C1341 C1347 1.390 . S
C1342 H1333 0.930 . S
C1342 C1340 1.384 . S
C1342 C1343 1.372 . S
C1343 C1342 1.372 . S
C1343 C1344 1.400 . S
C1343 C1348 1.490 1_545 S
C1344 H1334 0.930 . S
C1344 C1343 1.400 . S
C1344 C1347 1.386 . S
H1345 C1361 0.930 . S
H1346 C1362 0.931 . S
C1347 H1335 0.929 . S
C1347 C1341 1.390 . S
C1347 C1344 1.386 . S
C1348 C1343 1.490 1_565 S
C1348 C1350 1.395 . S
C1348 C1351 1.403 . S
H1349 C1355 0.930 . S
C1350 H1336 0.930 . S
C1350 C1348 1.395 . S
C1350 C1353 1.403 . S
C1351 C1348 1.403 . S
C1351 C1352 1.524 . S
C1351 C1355 1.400 . S
C1352 H1337 0.960 . S
C1352 H1338 0.960 . S
C1352 H1339 0.960 . S
C1352 C1351 1.524 . S
C1353 C1350 1.403 . S
C1353 C1354 1.392 . S
C1353 C1357 1.495 . S
C1354 C1353 1.392 . S
C1354 C1355 1.385 . S
C1354 C1356 1.478 . S
C1355 H1349 0.930 . S
C1355 C1351 1.400 . S
C1355 C1354 1.385 . S
C1356 C1354 1.478 . S
C1356 C1358 1.381 . S
C1356 C1362 1.383 . S
C1357 C1353 1.495 . S
C1357 H1363 0.959 . S
C1357 H1364 0.961 . S
C1357 H1365 0.960 . S
C1358 C1356 1.381 . S
C1358 C1359 1.394 . S
C1358 H1366 0.930 . S
C1359 C1358 1.394 . S
C1359 C1360 1.383 . S
C1359 H1367 0.929 . S
C1360 C1359 1.383 . S
C1360 C1361 1.377 . S
C1361 H1345 0.930 . S
C1361 C1360 1.377 . S
C1361 C1362 1.379 . S
C1362 H1346 0.931 . S
C1362 C1356 1.383 . S
C1362 C1361 1.379 . S
H1363 C1357 0.959 . S
H1364 C1357 0.961 . S
H1365 C1357 0.960 . S
H1366 C1358 0.930 . S
H1367 C1359 0.929 . S
H1368 C1376 0.929 . S
H1369 C1378 0.930 . S
H1370 C1380 0.930 . S
H1371 C1383 0.929 . S
H1372 C1386 0.930 . S
H1373 C1388 0.960 . S
H1374 C1388 0.960 . S
H1375 C1388 0.960 . S
C1376 H1368 0.929 . S
C1376 C1377 1.377 . S
C1376 C1378 1.384 1_655 S
C1377 C1376 1.377 . S
C1377 C1383 1.390 . S
C1378 H1369 0.930 . S
C1378 C1376 1.384 1_455 S
C1378 C1379 1.372 . S
C1379 C1378 1.372 . S
C1379 C1380 1.400 . S
C1379 C1384 1.490 . S
C1380 H1370 0.930 . S
C1380 C1379 1.400 . S
C1380 C1383 1.386 1_455 S
H1381 C1397 0.930 . S
H1382 C1398 0.931 . S
C1383 H1371 0.929 . S
C1383 C1377 1.390 . S
C1383 C1380 1.386 1_655 S
C1384 C1379 1.490 . S
C1384 C1386 1.395 . S
C1384 C1387 1.403 . S
H1385 C1391 0.930 . S
C1386 H1372 0.930 . S
C1386 C1384 1.395 . S
C1386 C1389 1.403 . S
C1387 C1384 1.403 . S
C1387 C1388 1.524 . S
C1387 C1391 1.400 . S
C1388 H1373 0.960 . S
C1388 H1374 0.960 . S
C1388 H1375 0.960 . S
C1388 C1387 1.524 . S
C1389 C1386 1.403 . S
C1389 C1390 1.392 . S
C1389 C1393 1.495 . S
C1390 C1389 1.392 . S
C1390 C1391 1.385 . S
C1390 C1392 1.478 . S
C1391 H1385 0.930 . S
C1391 C1387 1.400 . S
C1391 C1390 1.385 . S
C1392 C1390 1.478 . S
C1392 C1394 1.381 . S
C1392 C1398 1.383 . S
C1393 C1389 1.495 . S
C1393 H1399 0.959 . S
C1393 H1400 0.961 . S
C1393 H1401 0.960 . S
C1394 C1392 1.381 . S
C1394 C1395 1.394 . S
C1394 H1402 0.930 . S
C1395 C1394 1.394 . S
C1395 C1396 1.383 . S
C1395 H1403 0.929 . S
C1396 C1395 1.383 . S
C1396 C1397 1.377 . S
C1397 H1381 0.930 . S
C1397 C1396 1.377 . S
C1397 C1398 1.379 . S
C1398 H1382 0.931 . S
C1398 C1392 1.383 . S
C1398 C1397 1.379 . S
H1399 C1393 0.959 . S
H1400 C1393 0.961 . S
H1401 C1393 0.960 . S
H1402 C1394 0.930 . S
H1403 C1395 0.929 . S
H1404 C1412 0.929 . S
H1405 C1414 0.930 . S
H1406 C1416 0.930 . S
H1407 C1419 0.929 . S
H1408 C1422 0.930 . S
H1409 C1424 0.960 . S
H1410 C1424 0.960 . S
H1411 C1424 0.960 . S
C1412 H1404 0.929 . S
C1412 C1413 1.377 . S
C1412 C1414 1.384 . S
C1413 C1412 1.377 . S
C1413 C1419 1.390 . S
C1414 H1405 0.930 . S
C1414 C1412 1.384 . S
C1414 C1415 1.372 . S
C1415 C1414 1.372 . S
C1415 C1416 1.400 . S
C1415 C1420 1.490 . S
C1416 H1406 0.930 . S
C1416 C1415 1.400 . S
C1416 C1419 1.386 . S
H1417 C1433 0.930 . S
H1418 C1434 0.931 . S
C1419 H1407 0.929 . S
C1419 C1413 1.390 . S
C1419 C1416 1.386 . S
C1420 C1415 1.490 . S
C1420 C1422 1.395 . S
C1420 C1423 1.403 . S
H1421 C1427 0.930 . S
C1422 H1408 0.930 . S
C1422 C1420 1.395 . S
C1422 C1425 1.403 . S
C1423 C1420 1.403 . S
C1423 C1424 1.524 . S
C1423 C1427 1.400 . S
C1424 H1409 0.960 . S
C1424 H1410 0.960 . S
C1424 H1411 0.960 . S
C1424 C1423 1.524 . S
C1425 C1422 1.403 . S
C1425 C1426 1.392 . S
C1425 C1429 1.495 . S
C1426 C1425 1.392 . S
C1426 C1427 1.385 . S
C1426 C1428 1.478 . S
C1427 H1421 0.930 . S
C1427 C1423 1.400 . S
C1427 C1426 1.385 . S
C1428 C1426 1.478 . S
C1428 C1430 1.381 . S
C1428 C1434 1.383 . S
C1429 C1425 1.495 . S
C1429 H1435 0.959 . S
C1429 H1436 0.961 . S
C1429 H1437 0.960 . S
C1430 C1428 1.381 . S
C1430 C1431 1.394 . S
C1430 H1438 0.930 . S
C1431 C1430 1.394 . S
C1431 C1432 1.383 . S
C1431 H1439 0.929 . S
C1432 C1431 1.383 . S
C1432 C1433 1.377 . S
C1433 H1417 0.930 . S
C1433 C1432 1.377 . S
C1433 C1434 1.379 . S
C1434 H1418 0.931 . S
C1434 C1428 1.383 . S
C1434 C1433 1.379 . S
H1435 C1429 0.959 . S
H1436 C1429 0.961 . S
H1437 C1429 0.960 . S
H1438 C1430 0.930 . S
H1439 C1431 0.929 . S
H1440 C1448 0.929 . S
H1441 C1450 0.930 . S
H1442 C1452 0.930 . S
H1443 C1455 0.929 . S
H1444 C1458 0.930 . S
H1445 C1460 0.960 . S
H1446 C1460 0.960 . S
H1447 C1460 0.960 . S
C1448 H1440 0.929 . S
C1448 C1449 1.377 . S
C1448 C1450 1.384 . S
C1449 C1448 1.377 . S
C1449 C1455 1.390 . S
C1450 H1441 0.930 . S
C1450 C1448 1.384 . S
C1450 C1451 1.372 . S
C1451 C1450 1.372 . S
C1451 C1452 1.400 . S
C1451 C1456 1.490 . S
C1452 H1442 0.930 . S
C1452 C1451 1.400 . S
C1452 C1455 1.386 . S
H1453 C1469 0.930 . S
H1454 C1470 0.931 . S
C1455 H1443 0.929 . S
C1455 C1449 1.390 . S
C1455 C1452 1.386 . S
C1456 C1451 1.490 . S
C1456 C1458 1.395 . S
C1456 C1459 1.403 . S
H1457 C1463 0.930 . S
C1458 H1444 0.930 . S
C1458 C1456 1.395 . S
C1458 C1461 1.403 . S
C1459 C1456 1.403 . S
C1459 C1460 1.524 . S
C1459 C1463 1.400 . S
C1460 H1445 0.960 . S
C1460 H1446 0.960 . S
C1460 H1447 0.960 . S
C1460 C1459 1.524 . S
C1461 C1458 1.403 . S
C1461 C1462 1.392 . S
C1461 C1465 1.495 . S
C1462 C1461 1.392 . S
C1462 C1463 1.385 . S
C1462 C1464 1.478 . S
C1463 H1457 0.930 . S
C1463 C1459 1.400 . S
C1463 C1462 1.385 . S
C1464 C1462 1.478 . S
C1464 C1466 1.381 . S
C1464 C1470 1.383 . S
C1465 C1461 1.495 . S
C1465 H1471 0.959 . S
C1465 H1472 0.961 . S
C1465 H1473 0.960 . S
C1466 C1464 1.381 . S
C1466 C1467 1.394 . S
C1466 H1474 0.930 . S
C1467 C1466 1.394 . S
C1467 C1468 1.383 . S
C1467 H1475 0.929 . S
C1468 C1467 1.383 . S
C1468 C1469 1.377 . S
C1469 H1453 0.930 . S
C1469 C1468 1.377 . S
C1469 C1470 1.379 . S
C1470 H1454 0.931 . S
C1470 C1464 1.383 . S
C1470 C1469 1.379 . S
H1471 C1465 0.959 . S
H1472 C1465 0.961 . S
H1473 C1465 0.960 . S
H1474 C1466 0.930 . S
H1475 C1467 0.929 . S
H1476 C1484 0.929 . S
H1477 C1486 0.930 . S
H1478 C1488 0.930 . S
H1479 C1491 0.929 . S
H1480 C1494 0.930 . S
H1481 C1496 0.960 . S
H1482 C1496 0.960 . S
H1483 C1496 0.960 . S
C1484 H1476 0.929 . S
C1484 C1485 1.377 . S
C1484 C1486 1.384 . S
C1485 C1484 1.377 . S
C1485 C1491 1.390 . S
C1486 H1477 0.930 . S
C1486 C1484 1.384 . S
C1486 C1487 1.372 . S
C1487 C1486 1.372 . S
C1487 C1488 1.400 . S
C1487 C1492 1.490 . S
C1488 H1478 0.930 . S
C1488 C1487 1.400 . S
C1488 C1491 1.386 . S
H1489 C1505 0.930 . S
H1490 C1506 0.931 . S
C1491 H1479 0.929 . S
C1491 C1485 1.390 . S
C1491 C1488 1.386 . S
C1492 C1487 1.490 . S
C1492 C1494 1.395 . S
C1492 C1495 1.403 . S
H1493 C1499 0.930 . S
C1494 H1480 0.930 . S
C1494 C1492 1.395 . S
C1494 C1497 1.403 . S
C1495 C1492 1.403 . S
C1495 C1496 1.524 . S
C1495 C1499 1.400 . S
C1496 H1481 0.960 . S
C1496 H1482 0.960 . S
C1496 H1483 0.960 . S
C1496 C1495 1.524 . S
C1497 C1494 1.403 . S
C1497 C1498 1.392 . S
C1497 C1501 1.495 . S
C1498 C1497 1.392 . S
C1498 C1499 1.385 . S
C1498 C1500 1.478 . S
C1499 H1493 0.930 . S
C1499 C1495 1.400 . S
C1499 C1498 1.385 . S
C1500 C1498 1.478 . S
C1500 C1502 1.381 . S
C1500 C1506 1.383 . S
C1501 C1497 1.495 . S
C1501 H1507 0.959 . S
C1501 H1508 0.961 . S
C1501 H1509 0.960 . S
C1502 C1500 1.381 . S
C1502 C1503 1.394 . S
C1502 H1510 0.930 . S
C1503 C1502 1.394 . S
C1503 C1504 1.383 . S
C1503 H1511 0.929 . S
C1504 C1503 1.383 . S
C1504 C1505 1.377 . S
C1505 H1489 0.930 . S
C1505 C1504 1.377 . S
C1505 C1506 1.379 . S
C1506 H1490 0.931 . S
C1506 C1500 1.383 . S
C1506 C1505 1.379 . S
H1507 C1501 0.959 . S
H1508 C1501 0.961 . S
H1509 C1501 0.960 . S
H1510 C1502 0.930 . S
H1511 C1503 0.929 . S
H1512 C1520 0.929 . S
H1513 C1522 0.930 . S
H1514 C1524 0.930 . S
H1515 C1527 0.929 . S
H1516 C1530 0.930 . S
H1517 C1532 0.960 . S
H1518 C1532 0.960 . S
H1519 C1532 0.960 . S
C1520 H1512 0.929 . S
C1520 C1521 1.377 . S
C1520 C1522 1.384 . S
C1521 C1520 1.377 . S
C1521 C1527 1.390 . S
C1522 H1513 0.930 . S
C1522 C1520 1.384 . S
C1522 C1523 1.372 . S
C1523 C1522 1.372 . S
C1523 C1524 1.400 . S
C1523 C1528 1.490 . S
C1524 H1514 0.930 . S
C1524 C1523 1.400 . S
C1524 C1527 1.386 . S
H1525 C1541 0.930 . S
H1526 C1542 0.931 . S
C1527 H1515 0.929 . S
C1527 C1521 1.390 . S
C1527 C1524 1.386 . S
C1528 C1523 1.490 . S
C1528 C1530 1.395 . S
C1528 C1531 1.403 . S
H1529 C1535 0.930 . S
C1530 H1516 0.930 . S
C1530 C1528 1.395 . S
C1530 C1533 1.403 . S
C1531 C1528 1.403 . S
C1531 C1532 1.524 . S
C1531 C1535 1.400 . S
C1532 H1517 0.960 . S
C1532 H1518 0.960 . S
C1532 H1519 0.960 . S
C1532 C1531 1.524 . S
C1533 C1530 1.403 . S
C1533 C1534 1.392 . S
C1533 C1537 1.495 . S
C1534 C1533 1.392 . S
C1534 C1535 1.385 . S
C1534 C1536 1.478 . S
C1535 H1529 0.930 . S
C1535 C1531 1.400 . S
C1535 C1534 1.385 . S
C1536 C1534 1.478 . S
C1536 C1538 1.381 . S
C1536 C1542 1.383 . S
C1537 C1533 1.495 . S
C1537 H1543 0.959 . S
C1537 H1544 0.961 . S
C1537 H1545 0.960 . S
C1538 C1536 1.381 . S
C1538 C1539 1.394 . S
C1538 H1546 0.930 . S
C1539 C1538 1.394 . S
C1539 C1540 1.383 . S
C1539 H1547 0.929 . S
C1540 C1539 1.383 . S
C1540 C1541 1.377 . S
C1541 H1525 0.930 . S
C1541 C1540 1.377 . S
C1541 C1542 1.379 . S
C1542 H1526 0.931 . S
C1542 C1536 1.383 . S
C1542 C1541 1.379 . S
H1543 C1537 0.959 . S
H1544 C1537 0.961 . S
H1545 C1537 0.960 . S
H1546 C1538 0.930 . S
H1547 C1539 0.929 . S
H1548 C1556 0.929 . S
H1549 C1558 0.930 . S
H1550 C1560 0.930 . S
H1551 C1563 0.929 . S
H1552 C1566 0.930 . S
H1553 C1568 0.960 . S
H1554 C1568 0.960 . S
H1555 C1568 0.960 . S
C1556 H1548 0.929 . S
C1556 C1557 1.377 . S
C1556 C1558 1.384 . S
C1557 C1556 1.377 . S
C1557 C1563 1.390 . S
C1558 H1549 0.930 . S
C1558 C1556 1.384 . S
C1558 C1559 1.372 . S
C1559 C1558 1.372 . S
C1559 C1560 1.400 . S
C1559 C1564 1.490 . S
C1560 H1550 0.930 . S
C1560 C1559 1.400 . S
C1560 C1563 1.386 . S
H1561 C1577 0.930 . S
H1562 C1578 0.931 . S
C1563 H1551 0.929 . S
C1563 C1557 1.390 . S
C1563 C1560 1.386 . S
C1564 C1559 1.490 . S
C1564 C1566 1.395 . S
C1564 C1567 1.403 . S
H1565 C1571 0.930 . S
C1566 H1552 0.930 . S
C1566 C1564 1.395 . S
C1566 C1569 1.403 1_565 S
C1567 C1564 1.403 . S
C1567 C1568 1.524 . S
C1567 C1571 1.400 1_565 S
C1568 H1553 0.960 . S
C1568 H1554 0.960 . S
C1568 H1555 0.960 . S
C1568 C1567 1.524 . S
C1569 C1566 1.403 1_545 S
C1569 C1570 1.392 . S
C1569 C1573 1.495 . S
C1570 C1569 1.392 . S
C1570 C1571 1.385 . S
C1570 C1572 1.478 . S
C1571 H1565 0.930 . S
C1571 C1567 1.400 1_545 S
C1571 C1570 1.385 . S
C1572 C1570 1.478 . S
C1572 C1574 1.381 . S
C1572 C1578 1.383 . S
C1573 C1569 1.495 . S
C1573 H1579 0.959 . S
C1573 H1580 0.961 . S
C1573 H1581 0.960 . S
C1574 C1572 1.381 . S
C1574 C1575 1.394 . S
C1574 H1582 0.930 . S
C1575 C1574 1.394 . S
C1575 C1576 1.383 . S
C1575 H1583 0.929 . S
C1576 C1575 1.383 . S
C1576 C1577 1.377 . S
C1577 H1561 0.930 . S
C1577 C1576 1.377 . S
C1577 C1578 1.379 . S
C1578 H1562 0.931 . S
C1578 C1572 1.383 . S
C1578 C1577 1.379 . S
H1579 C1573 0.959 . S
H1580 C1573 0.961 . S
H1581 C1573 0.960 . S
H1582 C1574 0.930 . S
H1583 C1575 0.929 . S
H1584 C1592 0.929 . S
H1585 C1594 0.930 . S
H1586 C1596 0.930 . S
H1587 C1599 0.929 . S
H1588 C1602 0.930 . S
H1589 C1604 0.960 . S
H1590 C1604 0.960 . S
H1591 C1604 0.960 . S
C1592 H1584 0.929 . S
C1592 C1593 1.377 . S
C1592 C1594 1.384 . S
C1593 C1592 1.377 . S
C1593 C1599 1.390 . S
C1594 H1585 0.930 . S
C1594 C1592 1.384 . S
C1594 C1595 1.372 . S
C1595 C1594 1.372 . S
C1595 C1596 1.400 . S
C1595 C1600 1.490 . S
C1596 H1586 0.930 . S
C1596 C1595 1.400 . S
C1596 C1599 1.386 . S
H1597 C1613 0.930 . S
H1598 C1614 0.931 . S
C1599 H1587 0.929 . S
C1599 C1593 1.390 . S
C1599 C1596 1.386 . S
C1600 C1595 1.490 . S
C1600 C1602 1.395 . S
C1600 C1603 1.403 . S
H1601 C1607 0.930 . S
C1602 H1588 0.930 . S
C1602 C1600 1.395 . S
C1602 C1605 1.403 1_455 S
C1603 C1600 1.403 . S
C1603 C1604 1.524 . S
C1603 C1607 1.400 1_455 S
C1604 H1589 0.960 . S
C1604 H1590 0.960 . S
C1604 H1591 0.960 . S
C1604 C1603 1.524 . S
C1605 C1602 1.403 1_655 S
C1605 C1606 1.392 . S
C1605 C1609 1.495 . S
C1606 C1605 1.392 . S
C1606 C1607 1.385 . S
C1606 C1608 1.478 . S
C1607 H1601 0.930 . S
C1607 C1603 1.400 1_655 S
C1607 C1606 1.385 . S
C1608 C1606 1.478 . S
C1608 C1610 1.381 . S
C1608 C1614 1.383 . S
C1609 C1605 1.495 . S
C1609 H1615 0.959 . S
C1609 H1616 0.961 . S
C1609 H1617 0.960 . S
C1610 C1608 1.381 . S
C1610 C1611 1.394 . S
C1610 H1618 0.930 . S
C1611 C1610 1.394 . S
C1611 C1612 1.383 . S
C1611 H1619 0.929 . S
C1612 C1611 1.383 . S
C1612 C1613 1.377 . S
C1613 H1597 0.930 . S
C1613 C1612 1.377 . S
C1613 C1614 1.379 . S
C1614 H1598 0.931 . S
C1614 C1608 1.383 . S
C1614 C1613 1.379 . S
H1615 C1609 0.959 . S
H1616 C1609 0.961 . S
H1617 C1609 0.960 . S
H1618 C1610 0.930 . S
H1619 C1611 0.929 . S
H1620 C1628 0.929 . S
H1621 C1630 0.930 . S
H1622 C1632 0.930 . S
H1623 C1635 0.929 . S
H1624 C1638 0.930 . S
H1625 C1640 0.960 . S
H1626 C1640 0.960 . S
H1627 C1640 0.960 . S
C1628 H1620 0.929 . S
C1628 C1629 1.377 . S
C1628 C1630 1.384 . S
C1629 C1628 1.377 . S
C1629 C1635 1.390 . S
C1630 H1621 0.930 . S
C1630 C1628 1.384 . S
C1630 C1631 1.372 . S
C1631 C1630 1.372 . S
C1631 C1632 1.400 . S
C1631 C1636 1.490 . S
C1632 H1622 0.930 . S
C1632 C1631 1.400 . S
C1632 C1635 1.386 . S
H1633 C1649 0.930 . S
H1634 C1650 0.931 . S
C1635 H1623 0.929 . S
C1635 C1629 1.390 . S
C1635 C1632 1.386 . S
C1636 C1631 1.490 . S
C1636 C1638 1.395 . S
C1636 C1639 1.403 . S
H1637 C1643 0.930 . S
C1638 H1624 0.930 . S
C1638 C1636 1.395 . S
C1638 C1641 1.403 . S
C1639 C1636 1.403 . S
C1639 C1640 1.524 . S
C1639 C1643 1.400 . S
C1640 H1625 0.960 . S
C1640 H1626 0.960 . S
C1640 H1627 0.960 . S
C1640 C1639 1.524 . S
C1641 C1638 1.403 . S
C1641 C1642 1.392 . S
C1641 C1645 1.495 . S
C1642 C1641 1.392 . S
C1642 C1643 1.385 . S
C1642 C1644 1.478 . S
C1643 H1637 0.930 . S
C1643 C1639 1.400 . S
C1643 C1642 1.385 . S
C1644 C1642 1.478 . S
C1644 C1646 1.381 . S
C1644 C1650 1.383 . S
C1645 C1641 1.495 . S
C1645 H1651 0.959 . S
C1645 H1652 0.961 . S
C1645 H1653 0.960 . S
C1646 C1644 1.381 . S
C1646 C1647 1.394 . S
C1646 H1654 0.930 . S
C1647 C1646 1.394 . S
C1647 C1648 1.383 . S
C1647 H1655 0.929 . S
C1648 C1647 1.383 . S
C1648 C1649 1.377 . S
C1649 H1633 0.930 . S
C1649 C1648 1.377 . S
C1649 C1650 1.379 . S
C1650 H1634 0.931 . S
C1650 C1644 1.383 . S
C1650 C1649 1.379 . S
H1651 C1645 0.959 . S
H1652 C1645 0.961 . S
H1653 C1645 0.960 . S
H1654 C1646 0.930 . S
H1655 C1647 0.929 . S
H1656 C1664 0.929 . S
H1657 C1666 0.930 . S
H1658 C1668 0.930 . S
H1659 C1671 0.929 . S
H1660 C1674 0.930 . S
H1661 C1676 0.960 . S
H1662 C1676 0.960 . S
H1663 C1676 0.960 . S
C1664 H1656 0.929 . S
C1664 C1665 1.377 . S
C1664 C1666 1.384 . S
C1665 C1664 1.377 . S
C1665 C1671 1.390 . S
C1666 H1657 0.930 . S
C1666 C1664 1.384 . S
C1666 C1667 1.372 . S
C1667 C1666 1.372 . S
C1667 C1668 1.400 . S
C1667 C1672 1.490 1_455 S
C1668 H1658 0.930 . S
C1668 C1667 1.400 . S
C1668 C1671 1.386 . S
H1669 C1685 0.930 . S
H1670 C1686 0.931 . S
C1671 H1659 0.929 . S
C1671 C1665 1.390 . S
C1671 C1668 1.386 . S
C1672 C1667 1.490 1_655 S
C1672 C1674 1.395 . S
C1672 C1675 1.403 . S
H1673 C1679 0.930 . S
C1674 H1660 0.930 . S
C1674 C1672 1.395 . S
C1674 C1677 1.403 . S
C1675 C1672 1.403 . S
C1675 C1676 1.524 . S
C1675 C1679 1.400 . S
C1676 H1661 0.960 . S
C1676 H1662 0.960 . S
C1676 H1663 0.960 . S
C1676 C1675 1.524 . S
C1677 C1674 1.403 . S
C1677 C1678 1.392 . S
C1677 C1681 1.495 . S
C1678 C1677 1.392 . S
C1678 C1679 1.385 . S
C1678 C1680 1.478 . S
C1679 H1673 0.930 . S
C1679 C1675 1.400 . S
C1679 C1678 1.385 . S
C1680 C1678 1.478 . S
C1680 C1682 1.381 . S
C1680 C1686 1.383 . S
C1681 C1677 1.495 . S
C1681 H1687 0.959 . S
C1681 H1688 0.961 . S
C1681 H1689 0.960 . S
C1682 C1680 1.381 . S
C1682 C1683 1.394 . S
C1682 H1690 0.930 . S
C1683 C1682 1.394 . S
C1683 C1684 1.383 . S
C1683 H1691 0.929 . S
C1684 C1683 1.383 . S
C1684 C1685 1.377 . S
C1685 H1669 0.930 . S
C1685 C1684 1.377 . S
C1685 C1686 1.379 . S
C1686 H1670 0.931 . S
C1686 C1680 1.383 . S
C1686 C1685 1.379 . S
H1687 C1681 0.959 . S
H1688 C1681 0.961 . S
H1689 C1681 0.960 . S
H1690 C1682 0.930 . S
H1691 C1683 0.929 . S
H1692 C1700 0.929 . S
H1693 C1702 0.930 . S
H1694 C1704 0.930 . S
H1695 C1707 0.929 . S
H1696 C1710 0.930 . S
H1697 C1712 0.960 . S
H1698 C1712 0.960 . S
H1699 C1712 0.960 . S
C1700 H1692 0.929 . S
C1700 C1701 1.377 . S
C1700 C1702 1.384 . S
C1701 C1700 1.377 . S
C1701 C1707 1.390 . S
C1702 H1693 0.930 . S
C1702 C1700 1.384 . S
C1702 C1703 1.372 . S
C1703 C1702 1.372 . S
C1703 C1704 1.400 . S
C1703 C1708 1.490 . S
C1704 H1694 0.930 . S
C1704 C1703 1.400 . S
C1704 C1707 1.386 . S
H1705 C1721 0.930 . S
H1706 C1722 0.931 . S
C1707 H1695 0.929 . S
C1707 C1701 1.390 . S
C1707 C1704 1.386 . S
C1708 C1703 1.490 . S
C1708 C1710 1.395 . S
C1708 C1711 1.403 . S
H1709 C1715 0.930 . S
C1710 H1696 0.930 . S
C1710 C1708 1.395 . S
C1710 C1713 1.403 . S
C1711 C1708 1.403 . S
C1711 C1712 1.524 . S
C1711 C1715 1.400 . S
C1712 H1697 0.960 . S
C1712 H1698 0.960 . S
C1712 H1699 0.960 . S
C1712 C1711 1.524 . S
C1713 C1710 1.403 . S
C1713 C1714 1.392 . S
C1713 C1717 1.495 . S
C1714 C1713 1.392 . S
C1714 C1715 1.385 . S
C1714 C1716 1.478 . S
C1715 H1709 0.930 . S
C1715 C1711 1.400 . S
C1715 C1714 1.385 . S
C1716 C1714 1.478 . S
C1716 C1718 1.381 . S
C1716 C1722 1.383 . S
C1717 C1713 1.495 . S
C1717 H1723 0.959 . S
C1717 H1724 0.961 . S
C1717 H1725 0.960 . S
C1718 C1716 1.381 . S
C1718 C1719 1.394 . S
C1718 H1726 0.930 . S
C1719 C1718 1.394 . S
C1719 C1720 1.383 . S
C1719 H1727 0.929 . S
C1720 C1719 1.383 . S
C1720 C1721 1.377 . S
C1721 H1705 0.930 . S
C1721 C1720 1.377 . S
C1721 C1722 1.379 . S
C1722 H1706 0.931 . S
C1722 C1716 1.383 . S
C1722 C1721 1.379 . S
H1723 C1717 0.959 . S
H1724 C1717 0.961 . S
H1725 C1717 0.960 . S
H1726 C1718 0.930 . S
H1727 C1719 0.929 . S
H1728 C1736 0.929 . S
H1729 C1738 0.930 . S
H1730 C1740 0.930 . S
H1731 C1743 0.929 . S
H1732 C1746 0.930 . S
H1733 C1748 0.960 . S
H1734 C1748 0.960 . S
H1735 C1748 0.960 . S
C1736 H1728 0.929 . S
C1736 C1737 1.377 . S
C1736 C1738 1.384 . S
C1737 C1736 1.377 . S
C1737 C1743 1.390 . S
C1738 H1729 0.930 . S
C1738 C1736 1.384 . S
C1738 C1739 1.372 . S
C1739 C1738 1.372 . S
C1739 C1740 1.400 . S
C1739 C1744 1.490 1_565 S
C1740 H1730 0.930 . S
C1740 C1739 1.400 . S
C1740 C1743 1.386 . S
H1741 C1757 0.930 . S
H1742 C1758 0.931 . S
C1743 H1731 0.929 . S
C1743 C1737 1.390 . S
C1743 C1740 1.386 . S
C1744 C1739 1.490 1_545 S
C1744 C1746 1.395 . S
C1744 C1747 1.403 . S
H1745 C1751 0.930 . S
C1746 H1732 0.930 . S
C1746 C1744 1.395 . S
C1746 C1749 1.403 . S
C1747 C1744 1.403 . S
C1747 C1748 1.524 . S
C1747 C1751 1.400 . S
C1748 H1733 0.960 . S
C1748 H1734 0.960 . S
C1748 H1735 0.960 . S
C1748 C1747 1.524 . S
C1749 C1746 1.403 . S
C1749 C1750 1.392 . S
C1749 C1753 1.495 . S
C1750 C1749 1.392 . S
C1750 C1751 1.385 . S
C1750 C1752 1.478 . S
C1751 H1745 0.930 . S
C1751 C1747 1.400 . S
C1751 C1750 1.385 . S
C1752 C1750 1.478 . S
C1752 C1754 1.381 . S
C1752 C1758 1.383 . S
C1753 C1749 1.495 . S
C1753 H1759 0.959 . S
C1753 H1760 0.961 . S
C1753 H1761 0.960 . S
C1754 C1752 1.381 . S
C1754 C1755 1.394 . S
C1754 H1762 0.930 . S
C1755 C1754 1.394 . S
C1755 C1756 1.383 . S
C1755 H1763 0.929 . S
C1756 C1755 1.383 . S
C1756 C1757 1.377 . S
C1757 H1741 0.930 . S
C1757 C1756 1.377 . S
C1757 C1758 1.379 . S
C1758 H1742 0.931 . S
C1758 C1752 1.383 . S
C1758 C1757 1.379 . S
H1759 C1753 0.959 . S
H1760 C1753 0.961 . S
H1761 C1753 0.960 . S
H1762 C1754 0.930 . S
H1763 C1755 0.929 . S
H1764 C1772 0.929 . S
H1765 C1774 0.930 . S
H1766 C1776 0.930 . S
H1767 C1779 0.929 . S
H1768 C1782 0.930 . S
H1769 C1784 0.960 . S
H1770 C1784 0.960 . S
H1771 C1784 0.960 . S
C1772 H1764 0.929 . S
C1772 C1773 1.377 . S
C1772 C1774 1.384 . S
C1773 C1772 1.377 . S
C1773 C1779 1.390 . S
C1774 H1765 0.930 . S
C1774 C1772 1.384 . S
C1774 C1775 1.372 . S
C1775 C1774 1.372 . S
C1775 C1776 1.400 . S
C1775 C1780 1.490 . S
C1776 H1766 0.930 . S
C1776 C1775 1.400 . S
C1776 C1779 1.386 . S
H1777 C1793 0.930 . S
H1778 C1794 0.931 . S
C1779 H1767 0.929 . S
C1779 C1773 1.390 . S
C1779 C1776 1.386 . S
C1780 C1775 1.490 . S
C1780 C1782 1.395 . S
C1780 C1783 1.403 . S
H1781 C1787 0.930 . S
C1782 H1768 0.930 . S
C1782 C1780 1.395 . S
C1782 C1785 1.403 . S
C1783 C1780 1.403 . S
C1783 C1784 1.524 . S
C1783 C1787 1.400 . S
C1784 H1769 0.960 . S
C1784 H1770 0.960 . S
C1784 H1771 0.960 . S
C1784 C1783 1.524 . S
C1785 C1782 1.403 . S
C1785 C1786 1.392 . S
C1785 C1789 1.495 . S
C1786 C1785 1.392 . S
C1786 C1787 1.385 . S
C1786 C1788 1.478 . S
C1787 H1781 0.930 . S
C1787 C1783 1.400 . S
C1787 C1786 1.385 . S
C1788 C1786 1.478 . S
C1788 C1790 1.381 . S
C1788 C1794 1.383 . S
C1789 C1785 1.495 . S
C1789 H1795 0.959 . S
C1789 H1796 0.961 . S
C1789 H1797 0.960 . S
C1790 C1788 1.381 . S
C1790 C1791 1.394 . S
C1790 H1798 0.930 . S
C1791 C1790 1.394 . S
C1791 C1792 1.383 . S
C1791 H1799 0.929 . S
C1792 C1791 1.383 . S
C1792 C1793 1.377 . S
C1793 H1777 0.930 . S
C1793 C1792 1.377 . S
C1793 C1794 1.379 . S
C1794 H1778 0.931 . S
C1794 C1788 1.383 . S
C1794 C1793 1.379 . S
H1795 C1789 0.959 . S
H1796 C1789 0.961 . S
H1797 C1789 0.960 . S
H1798 C1790 0.930 . S
H1799 C1791 0.929 . S
H1800 C1808 0.929 . S
H1801 C1810 0.930 . S
H1802 C1812 0.930 . S
H1803 C1815 0.929 . S
H1804 C1818 0.930 . S
H1805 C1820 0.960 . S
H1806 C1820 0.960 . S
H1807 C1820 0.960 . S
C1808 H1800 0.929 . S
C1808 C1809 1.377 . S
C1808 C1810 1.384 . S
C1809 C1808 1.377 . S
C1809 C1815 1.390 . S
C1810 H1801 0.930 . S
C1810 C1808 1.384 . S
C1810 C1811 1.372 . S
C1811 C1810 1.372 . S
C1811 C1812 1.400 . S
C1811 C1816 1.490 . S
C1812 H1802 0.930 . S
C1812 C1811 1.400 . S
C1812 C1815 1.386 . S
H1813 C1829 0.930 . S
H1814 C1830 0.931 . S
C1815 H1803 0.929 . S
C1815 C1809 1.390 . S
C1815 C1812 1.386 . S
C1816 C1811 1.490 . S
C1816 C1818 1.395 . S
C1816 C1819 1.403 . S
H1817 C1823 0.930 . S
C1818 H1804 0.930 . S
C1818 C1816 1.395 . S
C1818 C1821 1.403 . S
C1819 C1816 1.403 . S
C1819 C1820 1.524 . S
C1819 C1823 1.400 . S
C1820 H1805 0.960 . S
C1820 H1806 0.960 . S
C1820 H1807 0.960 . S
C1820 C1819 1.524 . S
C1821 C1818 1.403 . S
C1821 C1822 1.392 . S
C1821 C1825 1.495 . S
C1822 C1821 1.392 . S
C1822 C1823 1.385 . S
C1822 C1824 1.478 . S
C1823 H1817 0.930 . S
C1823 C1819 1.400 . S
C1823 C1822 1.385 . S
C1824 C1822 1.478 . S
C1824 C1826 1.381 . S
C1824 C1830 1.383 . S
C1825 C1821 1.495 . S
C1825 H1831 0.959 . S
C1825 H1832 0.961 . S
C1825 H1833 0.960 . S
C1826 C1824 1.381 . S
C1826 C1827 1.394 . S
C1826 H1834 0.930 . S
C1827 C1826 1.394 . S
C1827 C1828 1.383 . S
C1827 H1835 0.929 . S
C1828 C1827 1.383 . S
C1828 C1829 1.377 . S
C1829 H1813 0.930 . S
C1829 C1828 1.377 . S
C1829 C1830 1.379 . S
C1830 H1814 0.931 . S
C1830 C1824 1.383 . S
C1830 C1829 1.379 . S
H1831 C1825 0.959 . S
H1832 C1825 0.961 . S
H1833 C1825 0.960 . S
H1834 C1826 0.930 . S
H1835 C1827 0.929 . S
H1836 C1844 0.929 . S
H1837 C1846 0.930 . S
H1838 C1848 0.930 . S
H1839 C1851 0.929 . S
H1840 C1854 0.930 . S
H1841 C1856 0.960 . S
H1842 C1856 0.960 . S
H1843 C1856 0.960 . S
C1844 H1836 0.929 . S
C1844 C1845 1.377 . S
C1844 C1846 1.384 . S
C1845 C1844 1.377 . S
C1845 C1851 1.390 . S
C1846 H1837 0.930 . S
C1846 C1844 1.384 . S
C1846 C1847 1.372 . S
C1847 C1846 1.372 . S
C1847 C1848 1.400 . S
C1847 C1852 1.490 . S
C1848 H1838 0.930 . S
C1848 C1847 1.400 . S
C1848 C1851 1.386 . S
H1849 C1865 0.930 . S
H1850 C1866 0.931 . S
C1851 H1839 0.929 . S
C1851 C1845 1.390 . S
C1851 C1848 1.386 . S
C1852 C1847 1.490 . S
C1852 C1854 1.395 . S
C1852 C1855 1.403 . S
H1853 C1859 0.930 . S
C1854 H1840 0.930 . S
C1854 C1852 1.395 . S
C1854 C1857 1.403 . S
C1855 C1852 1.403 . S
C1855 C1856 1.524 . S
C1855 C1859 1.400 . S
C1856 H1841 0.960 . S
C1856 H1842 0.960 . S
C1856 H1843 0.960 . S
C1856 C1855 1.524 . S
C1857 C1854 1.403 . S
C1857 C1858 1.392 . S
C1857 C1861 1.495 . S
C1858 C1857 1.392 . S
C1858 C1859 1.385 . S
C1858 C1860 1.478 . S
C1859 H1853 0.930 . S
C1859 C1855 1.400 . S
C1859 C1858 1.385 . S
C1860 C1858 1.478 . S
C1860 C1862 1.381 . S
C1860 C1866 1.383 . S
C1861 C1857 1.495 . S
C1861 H1867 0.959 . S
C1861 H1868 0.961 . S
C1861 H1869 0.960 . S
C1862 C1860 1.381 . S
C1862 C1863 1.394 . S
C1862 H1870 0.930 . S
C1863 C1862 1.394 . S
C1863 C1864 1.383 . S
C1863 H1871 0.929 . S
C1864 C1863 1.383 . S
C1864 C1865 1.377 . S
C1865 H1849 0.930 . S
C1865 C1864 1.377 . S
C1865 C1866 1.379 . S
C1866 H1850 0.931 . S
C1866 C1860 1.383 . S
C1866 C1865 1.379 . S
H1867 C1861 0.959 . S
H1868 C1861 0.961 . S
H1869 C1861 0.960 . S
H1870 C1862 0.930 . S
H1871 C1863 0.929 . S
H1872 C1880 0.929 . S
H1873 C1882 0.930 . S
H1874 C1884 0.930 . S
H1875 C1887 0.929 . S
H1876 C1890 0.930 . S
H1877 C1892 0.960 . S
H1878 C1892 0.960 . S
H1879 C1892 0.960 . S
C1880 H1872 0.929 . S
C1880 C1881 1.377 . S
C1880 C1882 1.384 . S
C1881 C1880 1.377 . S
C1881 C1887 1.390 . S
C1882 H1873 0.930 . S
C1882 C1880 1.384 . S
C1882 C1883 1.372 . S
C1883 C1882 1.372 . S
C1883 C1884 1.400 . S
C1883 C1888 1.490 . S
C1884 H1874 0.930 . S
C1884 C1883 1.400 . S
C1884 C1887 1.386 . S
H1885 C1901 0.930 1_545 S
H1886 C1902 0.931 . S
C1887 H1875 0.929 . S
C1887 C1881 1.390 . S
C1887 C1884 1.386 . S
C1888 C1883 1.490 . S
C1888 C1890 1.395 . S
C1888 C1891 1.403 . S
H1889 C1895 0.930 . S
C1890 H1876 0.930 . S
C1890 C1888 1.395 . S
C1890 C1893 1.403 . S
C1891 C1888 1.403 . S
C1891 C1892 1.524 . S
C1891 C1895 1.400 . S
C1892 H1877 0.960 . S
C1892 H1878 0.960 . S
C1892 H1879 0.960 . S
C1892 C1891 1.524 . S
C1893 C1890 1.403 . S
C1893 C1894 1.392 . S
C1893 C1897 1.495 . S
C1894 C1893 1.392 . S
C1894 C1895 1.385 . S
C1894 C1896 1.478 . S
C1895 H1889 0.930 . S
C1895 C1891 1.400 . S
C1895 C1894 1.385 . S
C1896 C1894 1.478 . S
C1896 C1898 1.381 . S
C1896 C1902 1.383 . S
C1897 C1893 1.495 . S
C1897 H1903 0.959 . S
C1897 H1904 0.961 . S
C1897 H1905 0.960 . S
C1898 C1896 1.381 . S
C1898 C1899 1.394 . S
C1898 H1906 0.930 . S
C1899 C1898 1.394 . S
C1899 C1900 1.383 . S
C1899 H1907 0.929 . S
C1900 C1899 1.383 . S
C1900 C1901 1.377 . S
C1901 H1885 0.930 1_565 S
C1901 C1900 1.377 . S
C1901 C1902 1.379 . S
C1902 H1886 0.931 . S
C1902 C1896 1.383 . S
C1902 C1901 1.379 . S
H1903 C1897 0.959 . S
H1904 C1897 0.961 . S
H1905 C1897 0.960 . S
H1906 C1898 0.930 . S
H1907 C1899 0.929 . S
H1908 C1916 0.929 . S
H1909 C1918 0.930 . S
H1910 C1920 0.930 . S
H1911 C1923 0.929 . S
H1912 C1926 0.930 . S
H1913 C1928 0.960 . S
H1914 C1928 0.960 . S
H1915 C1928 0.960 . S
C1916 H1908 0.929 . S
C1916 C1917 1.377 . S
C1916 C1918 1.384 . S
C1917 C1916 1.377 . S
C1917 C1923 1.390 . S
C1918 H1909 0.930 . S
C1918 C1916 1.384 . S
C1918 C1919 1.372 . S
C1919 C1918 1.372 . S
C1919 C1920 1.400 . S
C1919 C1924 1.490 . S
C1920 H1910 0.930 . S
C1920 C1919 1.400 . S
C1920 C1923 1.386 . S
H1921 C1937 0.930 . S
H1922 C1938 0.931 . S
C1923 H1911 0.929 . S
C1923 C1917 1.390 . S
C1923 C1920 1.386 . S
C1924 C1919 1.490 . S
C1924 C1926 1.395 . S
C1924 C1927 1.403 . S
H1925 C1931 0.930 . S
C1926 H1912 0.930 . S
C1926 C1924 1.395 . S
C1926 C1929 1.403 . S
C1927 C1924 1.403 . S
C1927 C1928 1.524 . S
C1927 C1931 1.400 . S
C1928 H1913 0.960 . S
C1928 H1914 0.960 . S
C1928 H1915 0.960 . S
C1928 C1927 1.524 . S
C1929 C1926 1.403 . S
C1929 C1930 1.392 . S
C1929 C1933 1.495 . S
C1930 C1929 1.392 . S
C1930 C1931 1.385 . S
C1930 C1932 1.478 . S
C1931 H1925 0.930 . S
C1931 C1927 1.400 . S
C1931 C1930 1.385 . S
C1932 C1930 1.478 . S
C1932 C1934 1.381 . S
C1932 C1938 1.383 . S
C1933 C1929 1.495 . S
C1933 H1939 0.959 . S
C1933 H1940 0.961 . S
C1933 H1941 0.960 . S
C1934 C1932 1.381 . S
C1934 C1935 1.394 . S
C1934 H1942 0.930 . S
C1935 C1934 1.394 . S
C1935 C1936 1.383 . S
C1935 H1943 0.929 . S
C1936 C1935 1.383 . S
C1936 C1937 1.377 . S
C1937 H1921 0.930 . S
C1937 C1936 1.377 . S
C1937 C1938 1.379 . S
C1938 H1922 0.931 . S
C1938 C1932 1.383 . S
C1938 C1937 1.379 . S
H1939 C1933 0.959 . S
H1940 C1933 0.961 . S
H1941 C1933 0.960 . S
H1942 C1934 0.930 . S
H1943 C1935 0.929 . S
H1944 C1952 0.929 . S
H1945 C1954 0.930 . S
H1946 C1956 0.930 . S
H1947 C1959 0.929 . S
H1948 C1962 0.930 . S
H1949 C1964 0.960 . S
H1950 C1964 0.960 . S
H1951 C1964 0.960 . S
C1952 H1944 0.929 . S
C1952 C1953 1.377 . S
C1952 C1954 1.384 . S
C1953 C1952 1.377 . S
C1953 C1959 1.390 . S
C1954 H1945 0.930 . S
C1954 C1952 1.384 . S
C1954 C1955 1.372 . S
C1955 C1954 1.372 . S
C1955 C1956 1.400 . S
C1955 C1960 1.490 . S
C1956 H1946 0.930 . S
C1956 C1955 1.400 . S
C1956 C1959 1.386 . S
H1957 C1973 0.930 . S
H1958 C1974 0.931 . S
C1959 H1947 0.929 . S
C1959 C1953 1.390 . S
C1959 C1956 1.386 . S
C1960 C1955 1.490 . S
C1960 C1962 1.395 . S
C1960 C1963 1.403 . S
H1961 C1967 0.930 . S
C1962 H1948 0.930 . S
C1962 C1960 1.395 . S
C1962 C1965 1.403 . S
C1963 C1960 1.403 . S
C1963 C1964 1.524 . S
C1963 C1967 1.400 . S
C1964 H1949 0.960 . S
C1964 H1950 0.960 . S
C1964 H1951 0.960 . S
C1964 C1963 1.524 . S
C1965 C1962 1.403 . S
C1965 C1966 1.392 . S
C1965 C1969 1.495 . S
C1966 C1965 1.392 . S
C1966 C1967 1.385 . S
C1966 C1968 1.478 . S
C1967 H1961 0.930 . S
C1967 C1963 1.400 . S
C1967 C1966 1.385 . S
C1968 C1966 1.478 . S
C1968 C1970 1.381 . S
C1968 C1974 1.383 . S
C1969 C1965 1.495 . S
C1969 H1975 0.959 . S
C1969 H1976 0.961 . S
C1969 H1977 0.960 . S
C1970 C1968 1.381 . S
C1970 C1971 1.394 . S
C1970 H1978 0.930 . S
C1971 C1970 1.394 . S
C1971 C1972 1.383 . S
C1971 H1979 0.929 . S
C1972 C1971 1.383 . S
C1972 C1973 1.377 . S
C1973 H1957 0.930 . S
C1973 C1972 1.377 . S
C1973 C1974 1.379 . S
C1974 H1958 0.931 . S
C1974 C1968 1.383 . S
C1974 C1973 1.379 . S
H1975 C1969 0.959 . S
H1976 C1969 0.961 . S
H1977 C1969 0.960 . S
H1978 C1970 0.930 . S
H1979 C1971 0.929 . S
H1980 C1988 0.929 . S
H1981 C1990 0.930 . S
H1982 C1992 0.930 . S
H1983 C1995 0.929 . S
H1984 C1998 0.930 . S
H1985 C2000 0.960 . S
H1986 C2000 0.960 . S
H1987 C2000 0.960 . S
C1988 H1980 0.929 . S
C1988 C1989 1.377 . S
C1988 C1990 1.384 . S
C1989 C1988 1.377 . S
C1989 C1995 1.390 . S
C1990 H1981 0.930 . S
C1990 C1988 1.384 . S
C1990 C1991 1.372 . S
C1991 C1990 1.372 . S
C1991 C1992 1.400 . S
C1991 C1996 1.490 . S
C1992 H1982 0.930 . S
C1992 C1991 1.400 . S
C1992 C1995 1.386 . S
H1993 C2009 0.930 . S
H1994 C2010 0.931 . S
C1995 H1983 0.929 . S
C1995 C1989 1.390 . S
C1995 C1992 1.386 . S
C1996 C1991 1.490 . S
C1996 C1998 1.395 . S
C1996 C1999 1.403 . S
H1997 C2003 0.930 . S
C1998 H1984 0.930 . S
C1998 C1996 1.395 . S
C1998 C2001 1.403 . S
C1999 C1996 1.403 . S
C1999 C2000 1.524 . S
C1999 C2003 1.400 . S
C2000 H1985 0.960 . S
C2000 H1986 0.960 . S
C2000 H1987 0.960 . S
C2000 C1999 1.524 . S
C2001 C1998 1.403 . S
C2001 C2002 1.392 . S
C2001 C2005 1.495 . S
C2002 C2001 1.392 . S
C2002 C2003 1.385 . S
C2002 C2004 1.478 . S
C2003 H1997 0.930 . S
C2003 C1999 1.400 . S
C2003 C2002 1.385 . S
C2004 C2002 1.478 . S
C2004 C2006 1.381 . S
C2004 C2010 1.383 . S
C2005 C2001 1.495 . S
C2005 H2011 0.959 . S
C2005 H2012 0.961 . S
C2005 H2013 0.960 . S
C2006 C2004 1.381 . S
C2006 C2007 1.394 . S
C2006 H2014 0.930 . S
C2007 C2006 1.394 . S
C2007 C2008 1.383 . S
C2007 H2015 0.929 . S
C2008 C2007 1.383 . S
C2008 C2009 1.377 . S
C2009 H1993 0.930 . S
C2009 C2008 1.377 . S
C2009 C2010 1.379 . S
C2010 H1994 0.931 . S
C2010 C2004 1.383 . S
C2010 C2009 1.379 . S
H2011 C2005 0.959 . S
H2012 C2005 0.961 . S
H2013 C2005 0.960 . S
H2014 C2006 0.930 . S
H2015 C2007 0.929 . S
H2016 C2024 0.929 . S
H2017 C2026 0.930 . S
H2018 C2028 0.930 . S
H2019 C2031 0.929 . S
H2020 C2034 0.930 . S
H2021 C2036 0.960 . S
H2022 C2036 0.960 . S
H2023 C2036 0.960 . S
C2024 H2016 0.929 . S
C2024 C2025 1.377 . S
C2024 C2026 1.384 . S
C2025 C2024 1.377 . S
C2025 C2031 1.390 . S
C2026 H2017 0.930 . S
C2026 C2024 1.384 . S
C2026 C2027 1.372 . S
C2027 C2026 1.372 . S
C2027 C2028 1.400 . S
C2027 C2032 1.490 . S
C2028 H2018 0.930 . S
C2028 C2027 1.400 . S
C2028 C2031 1.386 . S
H2029 C2045 0.930 . S
H2030 C2046 0.931 . S
C2031 H2019 0.929 . S
C2031 C2025 1.390 . S
C2031 C2028 1.386 . S
C2032 C2027 1.490 . S
C2032 C2034 1.395 . S
C2032 C2035 1.403 . S
H2033 C2039 0.930 . S
C2034 H2020 0.930 . S
C2034 C2032 1.395 . S
C2034 C2037 1.403 . S
C2035 C2032 1.403 . S
C2035 C2036 1.524 . S
C2035 C2039 1.400 . S
C2036 H2021 0.960 . S
C2036 H2022 0.960 . S
C2036 H2023 0.960 . S
C2036 C2035 1.524 . S
C2037 C2034 1.403 . S
C2037 C2038 1.392 . S
C2037 C2041 1.495 . S
C2038 C2037 1.392 . S
C2038 C2039 1.385 . S
C2038 C2040 1.478 . S
C2039 H2033 0.930 . S
C2039 C2035 1.400 . S
C2039 C2038 1.385 . S
C2040 C2038 1.478 . S
C2040 C2042 1.381 . S
C2040 C2046 1.383 . S
C2041 C2037 1.495 . S
C2041 H2047 0.959 . S
C2041 H2048 0.961 . S
C2041 H2049 0.960 . S
C2042 C2040 1.381 . S
C2042 C2043 1.394 . S
C2042 H2050 0.930 . S
C2043 C2042 1.394 . S
C2043 C2044 1.383 . S
C2043 H2051 0.929 . S
C2044 C2043 1.383 . S
C2044 C2045 1.377 . S
C2045 H2029 0.930 . S
C2045 C2044 1.377 . S
C2045 C2046 1.379 . S
C2046 H2030 0.931 . S
C2046 C2040 1.383 . S
C2046 C2045 1.379 . S
H2047 C2041 0.959 . S
H2048 C2041 0.961 . S
H2049 C2041 0.960 . S
H2050 C2042 0.930 . S
H2051 C2043 0.929 . S
H2052 C2060 0.929 . S
H2053 C2062 0.930 . S
H2054 C2064 0.930 . S
H2055 C2067 0.929 . S
H2056 C2070 0.930 . S
H2057 C2072 0.960 . S
H2058 C2072 0.960 . S
H2059 C2072 0.960 . S
C2060 H2052 0.929 . S
C2060 C2061 1.377 . S
C2060 C2062 1.384 . S
C2061 C2060 1.377 . S
C2061 C2067 1.390 . S
C2062 H2053 0.930 . S
C2062 C2060 1.384 . S
C2062 C2063 1.372 . S
C2063 C2062 1.372 . S
C2063 C2064 1.400 . S
C2063 C2068 1.490 . S
C2064 H2054 0.930 . S
C2064 C2063 1.400 . S
C2064 C2067 1.386 . S
H2065 C2081 0.930 . S
H2066 C2082 0.931 . S
C2067 H2055 0.929 . S
C2067 C2061 1.390 . S
C2067 C2064 1.386 . S
C2068 C2063 1.490 . S
C2068 C2070 1.395 . S
C2068 C2071 1.403 . S
H2069 C2075 0.930 . S
C2070 H2056 0.930 . S
C2070 C2068 1.395 . S
C2070 C2073 1.403 . S
C2071 C2068 1.403 . S
C2071 C2072 1.524 . S
C2071 C2075 1.400 . S
C2072 H2057 0.960 . S
C2072 H2058 0.960 . S
C2072 H2059 0.960 . S
C2072 C2071 1.524 . S
C2073 C2070 1.403 . S
C2073 C2074 1.392 . S
C2073 C2077 1.495 . S
C2074 C2073 1.392 . S
C2074 C2075 1.385 . S
C2074 C2076 1.478 . S
C2075 H2069 0.930 . S
C2075 C2071 1.400 . S
C2075 C2074 1.385 . S
C2076 C2074 1.478 . S
C2076 C2078 1.381 . S
C2076 C2082 1.383 . S
C2077 C2073 1.495 . S
C2077 H2083 0.959 . S
C2077 H2084 0.961 . S
C2077 H2085 0.960 . S
C2078 C2076 1.381 . S
C2078 C2079 1.394 . S
C2078 H2086 0.930 . S
C2079 C2078 1.394 . S
C2079 C2080 1.383 . S
C2079 H2087 0.929 . S
C2080 C2079 1.383 . S
C2080 C2081 1.377 . S
C2081 H2065 0.930 . S
C2081 C2080 1.377 . S
C2081 C2082 1.379 . S
C2082 H2066 0.931 . S
C2082 C2076 1.383 . S
C2082 C2081 1.379 . S
H2083 C2077 0.959 . S
H2084 C2077 0.961 . S
H2085 C2077 0.960 . S
H2086 C2078 0.930 . S
H2087 C2079 0.929 . S
H2088 C2096 0.929 . S
H2089 C2098 0.930 . S
H2090 C2100 0.930 . S
H2091 C2103 0.929 . S
H2092 C2106 0.930 . S
H2093 C2108 0.960 . S
H2094 C2108 0.960 . S
H2095 C2108 0.960 . S
C2096 H2088 0.929 . S
C2096 C2097 1.377 . S
C2096 C2098 1.384 . S
C2097 C2096 1.377 . S
C2097 C2103 1.390 . S
C2098 H2089 0.930 . S
C2098 C2096 1.384 . S
C2098 C2099 1.372 . S
C2099 C2098 1.372 . S
C2099 C2100 1.400 . S
C2099 C2104 1.490 . S
C2100 H2090 0.930 . S
C2100 C2099 1.400 . S
C2100 C2103 1.386 . S
H2101 C2117 0.930 . S
H2102 C2118 0.931 . S
C2103 H2091 0.929 . S
C2103 C2097 1.390 . S
C2103 C2100 1.386 . S
C2104 C2099 1.490 . S
C2104 C2106 1.395 . S
C2104 C2107 1.403 . S
H2105 C2111 0.930 . S
C2106 H2092 0.930 . S
C2106 C2104 1.395 . S
C2106 C2109 1.403 . S
C2107 C2104 1.403 . S
C2107 C2108 1.524 . S
C2107 C2111 1.400 . S
C2108 H2093 0.960 . S
C2108 H2094 0.960 . S
C2108 H2095 0.960 . S
C2108 C2107 1.524 . S
C2109 C2106 1.403 . S
C2109 C2110 1.392 . S
C2109 C2113 1.495 . S
C2110 C2109 1.392 . S
C2110 C2111 1.385 . S
C2110 C2112 1.478 . S
C2111 H2105 0.930 . S
C2111 C2107 1.400 . S
C2111 C2110 1.385 . S
C2112 C2110 1.478 . S
C2112 C2114 1.381 . S
C2112 C2118 1.383 . S
C2113 C2109 1.495 . S
C2113 H2119 0.959 . S
C2113 H2120 0.961 . S
C2113 H2121 0.960 . S
C2114 C2112 1.381 . S
C2114 C2115 1.394 . S
C2114 H2122 0.930 . S
C2115 C2114 1.394 . S
C2115 C2116 1.383 . S
C2115 H2123 0.929 . S
C2116 C2115 1.383 . S
C2116 C2117 1.377 . S
C2117 H2101 0.930 . S
C2117 C2116 1.377 . S
C2117 C2118 1.379 . S
C2118 H2102 0.931 . S
C2118 C2112 1.383 . S
C2118 C2117 1.379 . S
H2119 C2113 0.959 . S
H2120 C2113 0.961 . S
H2121 C2113 0.960 . S
H2122 C2114 0.930 . S
H2123 C2115 0.929 . S
H2124 C2132 0.929 . S
H2125 C2134 0.930 . S
H2126 C2136 0.930 . S
H2127 C2139 0.929 . S
H2128 C2142 0.930 . S
H2129 C2144 0.960 . S
H2130 C2144 0.960 . S
H2131 C2144 0.960 . S
C2132 H2124 0.929 . S
C2132 C2133 1.377 . S
C2132 C2134 1.384 . S
C2133 C2132 1.377 . S
C2133 C2139 1.390 . S
C2134 H2125 0.930 . S
C2134 C2132 1.384 . S
C2134 C2135 1.372 . S
C2135 C2134 1.372 . S
C2135 C2136 1.400 . S
C2135 C2140 1.490 . S
C2136 H2126 0.930 . S
C2136 C2135 1.400 . S
C2136 C2139 1.386 . S
H2137 C2153 0.930 . S
H2138 C2154 0.931 . S
C2139 H2127 0.929 . S
C2139 C2133 1.390 . S
C2139 C2136 1.386 . S
C2140 C2135 1.490 . S
C2140 C2142 1.395 . S
C2140 C2143 1.403 . S
H2141 C2147 0.930 . S
C2142 H2128 0.930 . S
C2142 C2140 1.395 . S
C2142 C2145 1.403 . S
C2143 C2140 1.403 . S
C2143 C2144 1.524 . S
C2143 C2147 1.400 . S
C2144 H2129 0.960 . S
C2144 H2130 0.960 . S
C2144 H2131 0.960 . S
C2144 C2143 1.524 . S
C2145 C2142 1.403 . S
C2145 C2146 1.392 . S
C2145 C2149 1.495 . S
C2146 C2145 1.392 . S
C2146 C2147 1.385 . S
C2146 C2148 1.478 . S
C2147 H2141 0.930 . S
C2147 C2143 1.400 . S
C2147 C2146 1.385 . S
C2148 C2146 1.478 . S
C2148 C2150 1.381 . S
C2148 C2154 1.383 . S
C2149 C2145 1.495 . S
C2149 H2155 0.959 . S
C2149 H2156 0.961 . S
C2149 H2157 0.960 . S
C2150 C2148 1.381 . S
C2150 C2151 1.394 . S
C2150 H2158 0.930 . S
C2151 C2150 1.394 . S
C2151 C2152 1.383 . S
C2151 H2159 0.929 . S
C2152 C2151 1.383 . S
C2152 C2153 1.377 . S
C2153 H2137 0.930 . S
C2153 C2152 1.377 . S
C2153 C2154 1.379 . S
C2154 H2138 0.931 . S
C2154 C2148 1.383 . S
C2154 C2153 1.379 . S
H2155 C2149 0.959 . S
H2156 C2149 0.961 . S
H2157 C2149 0.960 . S
H2158 C2150 0.930 . S
H2159 C2151 0.929 . S
H2160 C2168 0.929 . S
H2161 C2170 0.930 . S
H2162 C2172 0.930 . S
H2163 C2175 0.929 . S
H2164 C2178 0.930 . S
H2165 C2180 0.960 . S
H2166 C2180 0.960 . S
H2167 C2180 0.960 . S
C2168 H2160 0.929 . S
C2168 C2169 1.377 . S
C2168 C2170 1.384 . S
C2169 C2168 1.377 . S
C2169 C2175 1.390 . S
C2170 H2161 0.930 . S
C2170 C2168 1.384 . S
C2170 C2171 1.372 . S
C2171 C2170 1.372 . S
C2171 C2172 1.400 . S
C2171 C2176 1.490 . S
C2172 H2162 0.930 . S
C2172 C2171 1.400 . S
C2172 C2175 1.386 . S
H2173 C2189 0.930 . S
H2174 C2190 0.931 . S
C2175 H2163 0.929 . S
C2175 C2169 1.390 . S
C2175 C2172 1.386 . S
C2176 C2171 1.490 . S
C2176 C2178 1.395 . S
C2176 C2179 1.403 . S
H2177 C2183 0.930 . S
C2178 H2164 0.930 . S
C2178 C2176 1.395 . S
C2178 C2181 1.403 . S
C2179 C2176 1.403 . S
C2179 C2180 1.524 . S
C2179 C2183 1.400 . S
C2180 H2165 0.960 . S
C2180 H2166 0.960 . S
C2180 H2167 0.960 . S
C2180 C2179 1.524 . S
C2181 C2178 1.403 . S
C2181 C2182 1.392 . S
C2181 C2185 1.495 . S
C2182 C2181 1.392 . S
C2182 C2183 1.385 . S
C2182 C2184 1.478 . S
C2183 H2177 0.930 . S
C2183 C2179 1.400 . S
C2183 C2182 1.385 . S
C2184 C2182 1.478 . S
C2184 C2186 1.381 . S
C2184 C2190 1.383 . S
C2185 C2181 1.495 . S
C2185 H2191 0.959 . S
C2185 H2192 0.961 . S
C2185 H2193 0.960 . S
C2186 C2184 1.381 . S
C2186 C2187 1.394 . S
C2186 H2194 0.930 . S
C2187 C2186 1.394 . S
C2187 C2188 1.383 . S
C2187 H2195 0.929 . S
C2188 C2187 1.383 . S
C2188 C2189 1.377 . S
C2189 H2173 0.930 . S
C2189 C2188 1.377 . S
C2189 C2190 1.379 . S
C2190 H2174 0.931 . S
C2190 C2184 1.383 . S
C2190 C2189 1.379 . S
H2191 C2185 0.959 . S
H2192 C2185 0.961 . S
H2193 C2185 0.960 . S
H2194 C2186 0.930 . S
H2195 C2187 0.929 . S
H2196 C2204 0.929 . S
H2197 C2206 0.930 . S
H2198 C2208 0.930 . S
H2199 C2211 0.929 . S
H2200 C2214 0.930 . S
H2201 C2216 0.960 . S
H2202 C2216 0.960 . S
H2203 C2216 0.960 . S
C2204 H2196 0.929 . S
C2204 C2205 1.377 . S
C2204 C2206 1.384 . S
C2205 C2204 1.377 . S
C2205 C2211 1.390 . S
C2206 H2197 0.930 . S
C2206 C2204 1.384 . S
C2206 C2207 1.372 . S
C2207 C2206 1.372 . S
C2207 C2208 1.400 . S
C2207 C2212 1.490 . S
C2208 H2198 0.930 . S
C2208 C2207 1.400 . S
C2208 C2211 1.386 . S
H2209 C2225 0.930 . S
H2210 C2226 0.931 . S
C2211 H2199 0.929 . S
C2211 C2205 1.390 . S
C2211 C2208 1.386 . S
C2212 C2207 1.490 . S
C2212 C2214 1.395 . S
C2212 C2215 1.403 . S
H2213 C2219 0.930 . S
C2214 H2200 0.930 . S
C2214 C2212 1.395 . S
C2214 C2217 1.403 . S
C2215 C2212 1.403 . S
C2215 C2216 1.524 . S
C2215 C2219 1.400 . S
C2216 H2201 0.960 . S
C2216 H2202 0.960 . S
C2216 H2203 0.960 . S
C2216 C2215 1.524 . S
C2217 C2214 1.403 . S
C2217 C2218 1.392 . S
C2217 C2221 1.495 . S
C2218 C2217 1.392 . S
C2218 C2219 1.385 . S
C2218 C2220 1.478 . S
C2219 H2213 0.930 . S
C2219 C2215 1.400 . S
C2219 C2218 1.385 . S
C2220 C2218 1.478 . S
C2220 C2222 1.381 . S
C2220 C2226 1.383 . S
C2221 C2217 1.495 . S
C2221 H2227 0.959 . S
C2221 H2228 0.961 . S
C2221 H2229 0.960 . S
C2222 C2220 1.381 . S
C2222 C2223 1.394 . S
C2222 H2230 0.930 . S
C2223 C2222 1.394 . S
C2223 C2224 1.383 . S
C2223 H2231 0.929 . S
C2224 C2223 1.383 . S
C2224 C2225 1.377 . S
C2225 H2209 0.930 . S
C2225 C2224 1.377 . S
C2225 C2226 1.379 . S
C2226 H2210 0.931 . S
C2226 C2220 1.383 . S
C2226 C2225 1.379 . S
H2227 C2221 0.959 . S
H2228 C2221 0.961 . S
H2229 C2221 0.960 . S
H2230 C2222 0.930 . S
H2231 C2223 0.929 . S
H2232 C2240 0.929 . S
H2233 C2242 0.930 . S
H2234 C2244 0.930 . S
H2235 C2247 0.929 . S
H2236 C2250 0.930 . S
H2237 C2252 0.960 . S
H2238 C2252 0.960 . S
H2239 C2252 0.960 . S
C2240 H2232 0.929 . S
C2240 C2241 1.377 . S
C2240 C2242 1.384 . S
C2241 C2240 1.377 . S
C2241 C2247 1.390 . S
C2242 H2233 0.930 . S
C2242 C2240 1.384 . S
C2242 C2243 1.372 . S
C2243 C2242 1.372 . S
C2243 C2244 1.400 . S
C2243 C2248 1.490 . S
C2244 H2234 0.930 . S
C2244 C2243 1.400 . S
C2244 C2247 1.386 . S
H2245 C2261 0.930 . S
H2246 C2262 0.931 . S
C2247 H2235 0.929 . S
C2247 C2241 1.390 . S
C2247 C2244 1.386 . S
C2248 C2243 1.490 . S
C2248 C2250 1.395 . S
C2248 C2251 1.403 . S
H2249 C2255 0.930 . S
C2250 H2236 0.930 . S
C2250 C2248 1.395 . S
C2250 C2253 1.403 . S
C2251 C2248 1.403 . S
C2251 C2252 1.524 . S
C2251 C2255 1.400 . S
C2252 H2237 0.960 . S
C2252 H2238 0.960 . S
C2252 H2239 0.960 . S
C2252 C2251 1.524 . S
C2253 C2250 1.403 . S
C2253 C2254 1.392 . S
C2253 C2257 1.495 . S
C2254 C2253 1.392 . S
C2254 C2255 1.385 . S
C2254 C2256 1.478 . S
C2255 H2249 0.930 . S
C2255 C2251 1.400 . S
C2255 C2254 1.385 . S
C2256 C2254 1.478 . S
C2256 C2258 1.381 . S
C2256 C2262 1.383 . S
C2257 C2253 1.495 . S
C2257 H2263 0.959 . S
C2257 H2264 0.961 . S
C2257 H2265 0.960 . S
C2258 C2256 1.381 . S
C2258 C2259 1.394 . S
C2258 H2266 0.930 . S
C2259 C2258 1.394 . S
C2259 C2260 1.383 . S
C2259 H2267 0.929 . S
C2260 C2259 1.383 . S
C2260 C2261 1.377 . S
C2261 H2245 0.930 . S
C2261 C2260 1.377 . S
C2261 C2262 1.379 . S
C2262 H2246 0.931 . S
C2262 C2256 1.383 . S
C2262 C2261 1.379 . S
H2263 C2257 0.959 . S
H2264 C2257 0.961 . S
H2265 C2257 0.960 . S
H2266 C2258 0.930 . S
H2267 C2259 0.929 . S
H2268 C2276 0.929 . S
H2269 C2278 0.930 . S
H2270 C2280 0.930 . S
H2271 C2283 0.929 . S
H2272 C2286 0.930 . S
H2273 C2288 0.960 . S
H2274 C2288 0.960 . S
H2275 C2288 0.960 . S
C2276 H2268 0.929 . S
C2276 C2277 1.377 . S
C2276 C2278 1.384 . S
C2277 C2276 1.377 . S
C2277 C2283 1.390 . S
C2278 H2269 0.930 . S
C2278 C2276 1.384 . S
C2278 C2279 1.372 . S
C2279 C2278 1.372 . S
C2279 C2280 1.400 . S
C2279 C2284 1.490 . S
C2280 H2270 0.930 . S
C2280 C2279 1.400 . S
C2280 C2283 1.386 . S
H2281 C2297 0.930 . S
H2282 C2298 0.931 . S
C2283 H2271 0.929 . S
C2283 C2277 1.390 . S
C2283 C2280 1.386 . S
C2284 C2279 1.490 . S
C2284 C2286 1.395 . S
C2284 C2287 1.403 . S
H2285 C2291 0.930 . S
C2286 H2272 0.930 . S
C2286 C2284 1.395 . S
C2286 C2289 1.403 . S
C2287 C2284 1.403 . S
C2287 C2288 1.524 . S
C2287 C2291 1.400 . S
C2288 H2273 0.960 . S
C2288 H2274 0.960 . S
C2288 H2275 0.960 . S
C2288 C2287 1.524 . S
C2289 C2286 1.403 . S
C2289 C2290 1.392 . S
C2289 C2293 1.495 . S
C2290 C2289 1.392 . S
C2290 C2291 1.385 . S
C2290 C2292 1.478 . S
C2291 H2285 0.930 . S
C2291 C2287 1.400 . S
C2291 C2290 1.385 . S
C2292 C2290 1.478 . S
C2292 C2294 1.381 . S
C2292 C2298 1.383 . S
C2293 C2289 1.495 . S
C2293 H2299 0.959 . S
C2293 H2300 0.961 . S
C2293 H2301 0.960 . S
C2294 C2292 1.381 . S
C2294 C2295 1.394 . S
C2294 H2302 0.930 . S
C2295 C2294 1.394 . S
C2295 C2296 1.383 . S
C2295 H2303 0.929 . S
C2296 C2295 1.383 . S
C2296 C2297 1.377 . S
C2297 H2281 0.930 . S
C2297 C2296 1.377 . S
C2297 C2298 1.379 . S
C2298 H2282 0.931 . S
C2298 C2292 1.383 . S
C2298 C2297 1.379 . S
H2299 C2293 0.959 . S
H2300 C2293 0.961 . S
H2301 C2293 0.960 . S
H2302 C2294 0.930 . S
H2303 C2295 0.929 . S
H2304 C2312 0.929 . S
H2305 C2314 0.930 . S
H2306 C2316 0.930 . S
H2307 C2319 0.929 . S
H2308 C2322 0.930 . S
H2309 C2324 0.960 . S
H2310 C2324 0.960 . S
H2311 C2324 0.960 . S
C2312 H2304 0.929 . S
C2312 C2313 1.377 . S
C2312 C2314 1.384 . S
C2313 C2312 1.377 . S
C2313 C2319 1.390 . S
C2314 H2305 0.930 . S
C2314 C2312 1.384 . S
C2314 C2315 1.372 . S
C2315 C2314 1.372 . S
C2315 C2316 1.400 . S
C2315 C2320 1.490 . S
C2316 H2306 0.930 . S
C2316 C2315 1.400 . S
C2316 C2319 1.386 . S
H2317 C2333 0.930 . S
H2318 C2334 0.931 . S
C2319 H2307 0.929 . S
C2319 C2313 1.390 . S
C2319 C2316 1.386 . S
C2320 C2315 1.490 . S
C2320 C2322 1.395 . S
C2320 C2323 1.403 . S
H2321 C2327 0.930 . S
C2322 H2308 0.930 . S
C2322 C2320 1.395 . S
C2322 C2325 1.403 . S
C2323 C2320 1.403 . S
C2323 C2324 1.524 . S
C2323 C2327 1.400 . S
C2324 H2309 0.960 . S
C2324 H2310 0.960 . S
C2324 H2311 0.960 . S
C2324 C2323 1.524 . S
C2325 C2322 1.403 . S
C2325 C2326 1.392 . S
C2325 C2329 1.495 . S
C2326 C2325 1.392 . S
C2326 C2327 1.385 . S
C2326 C2328 1.478 . S
C2327 H2321 0.930 . S
C2327 C2323 1.400 . S
C2327 C2326 1.385 . S
C2328 C2326 1.478 . S
C2328 C2330 1.381 . S
C2328 C2334 1.383 . S
C2329 C2325 1.495 . S
C2329 H2335 0.959 . S
C2329 H2336 0.961 . S
C2329 H2337 0.960 . S
C2330 C2328 1.381 . S
C2330 C2331 1.394 . S
C2330 H2338 0.930 . S
C2331 C2330 1.394 . S
C2331 C2332 1.383 . S
C2331 H2339 0.929 . S
C2332 C2331 1.383 . S
C2332 C2333 1.377 . S
C2333 H2317 0.930 . S
C2333 C2332 1.377 . S
C2333 C2334 1.379 . S
C2334 H2318 0.931 . S
C2334 C2328 1.383 . S
C2334 C2333 1.379 . S
H2335 C2329 0.959 . S
H2336 C2329 0.961 . S
H2337 C2329 0.960 . S
H2338 C2330 0.930 . S
H2339 C2331 0.929 . S
H2340 C2348 0.929 . S
H2341 C2350 0.930 . S
H2342 C2352 0.930 . S
H2343 C2355 0.929 . S
H2344 C2358 0.930 . S
H2345 C2360 0.960 . S
H2346 C2360 0.960 . S
H2347 C2360 0.960 . S
C2348 H2340 0.929 . S
C2348 C2349 1.377 . S
C2348 C2350 1.384 . S
C2349 C2348 1.377 . S
C2349 C2355 1.390 . S
C2350 H2341 0.930 . S
C2350 C2348 1.384 . S
C2350 C2351 1.372 . S
C2351 C2350 1.372 . S
C2351 C2352 1.400 . S
C2351 C2356 1.490 . S
C2352 H2342 0.930 . S
C2352 C2351 1.400 . S
C2352 C2355 1.386 . S
H2353 C2369 0.930 . S
H2354 C2370 0.931 . S
C2355 H2343 0.929 . S
C2355 C2349 1.390 . S
C2355 C2352 1.386 . S
C2356 C2351 1.490 . S
C2356 C2358 1.395 . S
C2356 C2359 1.403 . S
H2357 C2363 0.930 . S
C2358 H2344 0.930 . S
C2358 C2356 1.395 . S
C2358 C2361 1.403 . S
C2359 C2356 1.403 . S
C2359 C2360 1.524 . S
C2359 C2363 1.400 . S
C2360 H2345 0.960 . S
C2360 H2346 0.960 . S
C2360 H2347 0.960 . S
C2360 C2359 1.524 . S
C2361 C2358 1.403 . S
C2361 C2362 1.392 . S
C2361 C2365 1.495 . S
C2362 C2361 1.392 . S
C2362 C2363 1.385 . S
C2362 C2364 1.478 . S
C2363 H2357 0.930 . S
C2363 C2359 1.400 . S
C2363 C2362 1.385 . S
C2364 C2362 1.478 . S
C2364 C2366 1.381 . S
C2364 C2370 1.383 . S
C2365 C2361 1.495 . S
C2365 H2371 0.959 . S
C2365 H2372 0.961 . S
C2365 H2373 0.960 . S
C2366 C2364 1.381 . S
C2366 C2367 1.394 . S
C2366 H2374 0.930 . S
C2367 C2366 1.394 . S
C2367 C2368 1.383 . S
C2367 H2375 0.929 . S
C2368 C2367 1.383 . S
C2368 C2369 1.377 . S
C2369 H2353 0.930 . S
C2369 C2368 1.377 . S
C2369 C2370 1.379 . S
C2370 H2354 0.931 . S
C2370 C2364 1.383 . S
C2370 C2369 1.379 . S
H2371 C2365 0.959 . S
H2372 C2365 0.961 . S
H2373 C2365 0.960 . S
H2374 C2366 0.930 . S
H2375 C2367 0.929 . S
H2376 C2384 0.929 . S
H2377 C2386 0.930 . S
H2378 C2388 0.930 . S
H2379 C2391 0.929 . S
H2380 C2394 0.930 . S
H2381 C2396 0.960 . S
H2382 C2396 0.960 . S
H2383 C2396 0.960 . S
C2384 H2376 0.929 . S
C2384 C2385 1.377 . S
C2384 C2386 1.384 . S
C2385 C2384 1.377 . S
C2385 C2391 1.390 . S
C2386 H2377 0.930 . S
C2386 C2384 1.384 . S
C2386 C2387 1.372 . S
C2387 C2386 1.372 . S
C2387 C2388 1.400 . S
C2387 C2392 1.490 . S
C2388 H2378 0.930 . S
C2388 C2387 1.400 . S
C2388 C2391 1.386 . S
H2389 C2405 0.930 . S
H2390 C2406 0.931 . S
C2391 H2379 0.929 . S
C2391 C2385 1.390 . S
C2391 C2388 1.386 . S
C2392 C2387 1.490 . S
C2392 C2394 1.395 . S
C2392 C2395 1.403 . S
H2393 C2399 0.930 . S
C2394 H2380 0.930 . S
C2394 C2392 1.395 . S
C2394 C2397 1.403 . S
C2395 C2392 1.403 . S
C2395 C2396 1.524 . S
C2395 C2399 1.400 . S
C2396 H2381 0.960 . S
C2396 H2382 0.960 . S
C2396 H2383 0.960 . S
C2396 C2395 1.524 . S
C2397 C2394 1.403 . S
C2397 C2398 1.392 . S
C2397 C2401 1.495 . S
C2398 C2397 1.392 . S
C2398 C2399 1.385 . S
C2398 C2400 1.478 . S
C2399 H2393 0.930 . S
C2399 C2395 1.400 . S
C2399 C2398 1.385 . S
C2400 C2398 1.478 . S
C2400 C2402 1.381 . S
C2400 C2406 1.383 . S
C2401 C2397 1.495 . S
C2401 H2407 0.959 . S
C2401 H2408 0.961 . S
C2401 H2409 0.960 . S
C2402 C2400 1.381 . S
C2402 C2403 1.394 . S
C2402 H2410 0.930 . S
C2403 C2402 1.394 . S
C2403 C2404 1.383 . S
C2403 H2411 0.929 . S
C2404 C2403 1.383 . S
C2404 C2405 1.377 . S
C2405 H2389 0.930 . S
C2405 C2404 1.377 . S
C2405 C2406 1.379 . S
C2406 H2390 0.931 . S
C2406 C2400 1.383 . S
C2406 C2405 1.379 . S
H2407 C2401 0.959 . S
H2408 C2401 0.961 . S
H2409 C2401 0.960 . S
H2410 C2402 0.930 . S
H2411 C2403 0.929 . S
H2412 C2420 0.929 . S
H2413 C2422 0.930 . S
H2414 C2424 0.930 . S
H2415 C2427 0.929 . S
H2416 C2430 0.930 . S
H2417 C2432 0.960 . S
H2418 C2432 0.960 . S
H2419 C2432 0.960 . S
C2420 H2412 0.929 . S
C2420 C2421 1.377 . S
C2420 C2422 1.384 . S
C2421 C2420 1.377 . S
C2421 C2427 1.390 . S
C2422 H2413 0.930 . S
C2422 C2420 1.384 . S
C2422 C2423 1.372 . S
C2423 C2422 1.372 . S
C2423 C2424 1.400 . S
C2423 C2428 1.490 . S
C2424 H2414 0.930 . S
C2424 C2423 1.400 . S
C2424 C2427 1.386 . S
H2425 C2441 0.930 . S
H2426 C2442 0.931 . S
C2427 H2415 0.929 . S
C2427 C2421 1.390 . S
C2427 C2424 1.386 . S
C2428 C2423 1.490 . S
C2428 C2430 1.395 . S
C2428 C2431 1.403 . S
H2429 C2435 0.930 . S
C2430 H2416 0.930 . S
C2430 C2428 1.395 . S
C2430 C2433 1.403 . S
C2431 C2428 1.403 . S
C2431 C2432 1.524 . S
C2431 C2435 1.400 . S
C2432 H2417 0.960 . S
C2432 H2418 0.960 . S
C2432 H2419 0.960 . S
C2432 C2431 1.524 . S
C2433 C2430 1.403 . S
C2433 C2434 1.392 . S
C2433 C2437 1.495 . S
C2434 C2433 1.392 . S
C2434 C2435 1.385 . S
C2434 C2436 1.478 . S
C2435 H2429 0.930 . S
C2435 C2431 1.400 . S
C2435 C2434 1.385 . S
C2436 C2434 1.478 . S
C2436 C2438 1.381 . S
C2436 C2442 1.383 . S
C2437 C2433 1.495 . S
C2437 H2443 0.959 . S
C2437 H2444 0.961 . S
C2437 H2445 0.960 . S
C2438 C2436 1.381 . S
C2438 C2439 1.394 . S
C2438 H2446 0.930 . S
C2439 C2438 1.394 . S
C2439 C2440 1.383 . S
C2439 H2447 0.929 . S
C2440 C2439 1.383 . S
C2440 C2441 1.377 . S
C2441 H2425 0.930 . S
C2441 C2440 1.377 . S
C2441 C2442 1.379 . S
C2442 H2426 0.931 . S
C2442 C2436 1.383 . S
C2442 C2441 1.379 . S
H2443 C2437 0.959 . S
H2444 C2437 0.961 . S
H2445 C2437 0.960 . S
H2446 C2438 0.930 . S
H2447 C2439 0.929 . S
H2448 C2456 0.929 . S
H2449 C2458 0.930 . S
H2450 C2460 0.930 . S
H2451 C2463 0.929 . S
H2452 C2466 0.930 . S
H2453 C2468 0.960 . S
H2454 C2468 0.960 . S
H2455 C2468 0.960 . S
C2456 H2448 0.929 . S
C2456 C2457 1.377 . S
C2456 C2458 1.384 . S
C2457 C2456 1.377 . S
C2457 C2463 1.390 . S
C2458 H2449 0.930 . S
C2458 C2456 1.384 . S
C2458 C2459 1.372 . S
C2459 C2458 1.372 . S
C2459 C2460 1.400 . S
C2459 C2464 1.490 . S
C2460 H2450 0.930 . S
C2460 C2459 1.400 . S
C2460 C2463 1.386 . S
H2461 C2477 0.930 . S
H2462 C2478 0.931 . S
C2463 H2451 0.929 . S
C2463 C2457 1.390 . S
C2463 C2460 1.386 . S
C2464 C2459 1.490 . S
C2464 C2466 1.395 . S
C2464 C2467 1.403 . S
H2465 C2471 0.930 . S
C2466 H2452 0.930 . S
C2466 C2464 1.395 . S
C2466 C2469 1.403 . S
C2467 C2464 1.403 . S
C2467 C2468 1.524 . S
C2467 C2471 1.400 . S
C2468 H2453 0.960 . S
C2468 H2454 0.960 . S
C2468 H2455 0.960 . S
C2468 C2467 1.524 . S
C2469 C2466 1.403 . S
C2469 C2470 1.392 . S
C2469 C2473 1.495 . S
C2470 C2469 1.392 . S
C2470 C2471 1.385 . S
C2470 C2472 1.478 . S
C2471 H2465 0.930 . S
C2471 C2467 1.400 . S
C2471 C2470 1.385 . S
C2472 C2470 1.478 . S
C2472 C2474 1.381 . S
C2472 C2478 1.383 . S
C2473 C2469 1.495 . S
C2473 H2479 0.959 . S
C2473 H2480 0.961 . S
C2473 H2481 0.960 . S
C2474 C2472 1.381 . S
C2474 C2475 1.394 . S
C2474 H2482 0.930 . S
C2475 C2474 1.394 . S
C2475 C2476 1.383 . S
C2475 H2483 0.929 . S
C2476 C2475 1.383 . S
C2476 C2477 1.377 . S
C2477 H2461 0.930 . S
C2477 C2476 1.377 . S
C2477 C2478 1.379 . S
C2478 H2462 0.931 . S
C2478 C2472 1.383 . S
C2478 C2477 1.379 . S
H2479 C2473 0.959 . S
H2480 C2473 0.961 . S
H2481 C2473 0.960 . S
H2482 C2474 0.930 . S
H2483 C2475 0.929 . S
H2484 C2492 0.929 . S
H2485 C2494 0.930 . S
H2486 C2496 0.930 . S
H2487 C2499 0.929 . S
H2488 C2502 0.930 . S
H2489 C2504 0.960 . S
H2490 C2504 0.960 . S
H2491 C2504 0.960 . S
C2492 H2484 0.929 . S
C2492 C2493 1.377 . S
C2492 C2494 1.384 . S
C2493 C2492 1.377 . S
C2493 C2499 1.390 . S
C2494 H2485 0.930 . S
C2494 C2492 1.384 . S
C2494 C2495 1.372 . S
C2495 C2494 1.372 . S
C2495 C2496 1.400 . S
C2495 C2500 1.490 . S
C2496 H2486 0.930 . S
C2496 C2495 1.400 . S
C2496 C2499 1.386 . S
H2497 C2513 0.930 . S
H2498 C2514 0.931 . S
C2499 H2487 0.929 . S
C2499 C2493 1.390 . S
C2499 C2496 1.386 . S
C2500 C2495 1.490 . S
C2500 C2502 1.395 . S
C2500 C2503 1.403 . S
H2501 C2507 0.930 . S
C2502 H2488 0.930 . S
C2502 C2500 1.395 . S
C2502 C2505 1.403 . S
C2503 C2500 1.403 . S
C2503 C2504 1.524 . S
C2503 C2507 1.400 . S
C2504 H2489 0.960 . S
C2504 H2490 0.960 . S
C2504 H2491 0.960 . S
C2504 C2503 1.524 . S
C2505 C2502 1.403 . S
C2505 C2506 1.392 . S
C2505 C2509 1.495 . S
C2506 C2505 1.392 . S
C2506 C2507 1.385 . S
C2506 C2508 1.478 . S
C2507 H2501 0.930 . S
C2507 C2503 1.400 . S
C2507 C2506 1.385 . S
C2508 C2506 1.478 . S
C2508 C2510 1.381 . S
C2508 C2514 1.383 . S
C2509 C2505 1.495 . S
C2509 H2515 0.959 . S
C2509 H2516 0.961 . S
C2509 H2517 0.960 . S
C2510 C2508 1.381 . S
C2510 C2511 1.394 . S
C2510 H2518 0.930 . S
C2511 C2510 1.394 . S
C2511 C2512 1.383 . S
C2511 H2519 0.929 . S
C2512 C2511 1.383 . S
C2512 C2513 1.377 . S
C2513 H2497 0.930 . S
C2513 C2512 1.377 . S
C2513 C2514 1.379 . S
C2514 H2498 0.931 . S
C2514 C2508 1.383 . S
C2514 C2513 1.379 . S
H2515 C2509 0.959 . S
H2516 C2509 0.961 . S
H2517 C2509 0.960 . S
H2518 C2510 0.930 . S
H2519 C2511 0.929 . S
C585 C162 1.690 . S
C604 C228 1.691 . S
C621 C174 1.851 . S
C640 C268 1.839 . S
C657 C150 1.607 . S
C676 C298 1.568 . S
C693 C138 1.464 . S
C712 C258 1.444 . S
C748 C308 1.458 1_556 S
C729 C114 1.494 . S
C765 C126 1.312 . S
C784 C218 1.299 . S
C820 C247 1.669 1_556 S
C801 C136 1.655 . S
C856 C287 1.712 . S
C837 C112 1.692 . S
C873 C124 1.663 . S
C892 C313 1.670 . S
C909 C160 1.484 . S
C928 C273 1.512 . S
C945 C172 1.434 . S
C964 C327 1.444 . S
C1000 C233 1.413 . S
C981 C148 1.410 . S
C1036 C348 1.694 . S
C1017 C18 1.692 . S
C1053 C30 1.851 . S
C1072 C388 1.839 . S
C1089 C6 1.613 . S
C1108 C418 1.602 . S
C1125 C210 1.467 . S
C1144 C378 1.440 . S
C1161 C186 1.494 . S
C1180 C428 1.485 . S
C1197 C198 1.314 . S
C1216 C338 1.312 . S
C1233 C208 1.654 . S
C1252 C367 1.668 . S
C1269 C184 1.694 . S
C1288 C407 1.710 . S
C1324 C433 1.679 . S
C1305 C196 1.658 . S
C1341 C16 1.481 . S
C1360 C393 1.473 . S
C1396 C447 1.429 . S
C1377 C28 1.430 . S
C1413 C4 1.410 . S
C1432 C353 1.413 . S
C1468 C468 1.694 . S
C1449 C90 1.693 . S
C1485 C102 1.851 . S
C1504 C508 1.839 . S
C1540 C538 1.608 . S
C1521 C78 1.613 . S
C1576 C498 1.425 . S
C1557 C66 1.464 . S
C1612 C548 1.490 . S
C1593 C42 1.494 . S
C1629 C54 1.314 . S
C1648 C458 1.312 . S
C1665 C64 1.655 . S
C1684 C487 1.669 . S
C1701 C40 1.692 . S
C1720 C527 1.699 . S
C1756 C553 1.693 . S
C1737 C52 1.668 . S
C1773 C88 1.483 . S
C1792 C513 1.472 . S
C1809 C100 1.433 . S
C1828 C567 1.445 . S
C1845 C76 1.414 . S
C1864 C473 1.428 . S
C1881 C189 1.427 . S
C1900 C245 1.421 . S
C1936 C285 1.987 . S
C1917 C201 2.011 . S
C1953 C213 1.573 . S
C1972 C304 1.577 . S
C1989 C81 1.849 . S
C2008 C264 1.852 . S
C2025 C93 1.706 . S
C2044 C325 1.673 . S
C2080 C224 1.256 . S
C2061 C105 1.247 . S
C2097 C45 1.422 . S
C2116 C365 1.378 . S
C2133 C57 2.011 . S
C2152 C405 1.968 . S
C2169 C69 1.575 . S
C2188 C424 1.584 . S
C2205 C153 1.848 . S
C2224 C384 1.851 . S
C2260 C445 1.666 . S
C2241 C165 1.705 . S
C2277 C177 1.244 . S
C2296 C344 1.248 . S
C2313 C117 1.422 . S
C2332 C485 1.380 . S
C2349 C129 2.008 . S
C2368 C525 1.984 . S
C2404 C544 1.574 . S
C2385 C141 1.571 . S
C2421 C9 1.849 . S
C2440 C504 1.855 . S
C2457 C21 1.704 . S
C2476 C565 1.665 . S
C2493 C33 1.248 . S
C2512 C464 1.257 . S
