# Generated by pormake.
# Topology ptr, (4,4)-cn, num edge types: 1
# Building blocks:
#     Node 0, Type 0, BuildingBlock: GALJAG_clean_sbu_0, # of connection points: 4
#     Node 1, Type 0, BuildingBlock: GALJAG_clean_sbu_0, # of connection points: 4
#     Node 2, Type 0, BuildingBlock: GALJAG_clean_sbu_0, # of connection points: 4
#     Node 3, Type 0, BuildingBlock: GALJAG_clean_sbu_0, # of connection points: 4
#     Node 4, Type 0, BuildingBlock: GALJAG_clean_sbu_0, # of connection points: 4
#     Node 5, Type 0, BuildingBlock: GALJAG_clean_sbu_0, # of connection points: 4
#     Node 6, Type 0, BuildingBlock: GALJAG_clean_sbu_0, # of connection points: 4
#     Node 7, Type 0, BuildingBlock: GALJAG_clean_sbu_0, # of connection points: 4
#     Node 8, Type 0, BuildingBlock: GALJAG_clean_sbu_0, # of connection points: 4
#     Node 9, Type 0, BuildingBlock: GALJAG_clean_sbu_0, # of connection points: 4
#     Node 10, Type 0, BuildingBlock: GALJAG_clean_sbu_0, # of connection points: 4
#     Node 11, Type 0, BuildingBlock: GALJAG_clean_sbu_0, # of connection points: 4
#     Node 12, Type 0, BuildingBlock: GALJAG_clean_sbu_0, # of connection points: 4
#     Node 13, Type 0, BuildingBlock: GALJAG_clean_sbu_0, # of connection points: 4
#     Node 14, Type 0, BuildingBlock: GALJAG_clean_sbu_0, # of connection points: 4
#     Node 15, Type 0, BuildingBlock: GALJAG_clean_sbu_0, # of connection points: 4
#     Node 16, Type 0, BuildingBlock: GALJAG_clean_sbu_0, # of connection points: 4
#     Node 17, Type 0, BuildingBlock: GALJAG_clean_sbu_0, # of connection points: 4
#     Node 18, Type 1, BuildingBlock: AZAVOO_clean_linker_0, # of connection points: 4
#     Node 19, Type 1, BuildingBlock: AZAVOO_clean_linker_0, # of connection points: 4
#     Node 20, Type 1, BuildingBlock: AZAVOO_clean_linker_0, # of connection points: 4
#     Node 21, Type 1, BuildingBlock: AZAVOO_clean_linker_0, # of connection points: 4
#     Node 22, Type 1, BuildingBlock: AZAVOO_clean_linker_0, # of connection points: 4
#     Node 23, Type 1, BuildingBlock: AZAVOO_clean_linker_0, # of connection points: 4
#     Node 24, Type 1, BuildingBlock: AZAVOO_clean_linker_0, # of connection points: 4
#     Node 25, Type 1, BuildingBlock: AZAVOO_clean_linker_0, # of connection points: 4
#     Node 26, Type 1, BuildingBlock: AZAVOO_clean_linker_0, # of connection points: 4
#     Node 27, Type 1, BuildingBlock: AZAVOO_clean_linker_0, # of connection points: 4
#     Node 28, Type 1, BuildingBlock: AZAVOO_clean_linker_0, # of connection points: 4
#     Node 29, Type 1, BuildingBlock: AZAVOO_clean_linker_0, # of connection points: 4
#     Node 30, Type 1, BuildingBlock: AZAVOO_clean_linker_0, # of connection points: 4
#     Node 31, Type 1, BuildingBlock: AZAVOO_clean_linker_0, # of connection points: 4
#     Node 32, Type 1, BuildingBlock: AZAVOO_clean_linker_0, # of connection points: 4
#     Node 33, Type 1, BuildingBlock: AZAVOO_clean_linker_0, # of connection points: 4
#     Node 34, Type 1, BuildingBlock: AZAVOO_clean_linker_0, # of connection points: 4
#     Node 35, Type 1, BuildingBlock: AZAVOO_clean_linker_0, # of connection points: 4
#     Edge 36, Type (0, 1), BuildingBlock: AJUNOK_clean_linker_0, # of connection points: 2
#     Edge 37, Type (0, 1), BuildingBlock: AJUNOK_clean_linker_0, # of connection points: 2
#     Edge 38, Type (0, 1), BuildingBlock: AJUNOK_clean_linker_0, # of connection points: 2
#     Edge 39, Type (0, 1), BuildingBlock: AJUNOK_clean_linker_0, # of connection points: 2
#     Edge 40, Type (0, 1), BuildingBlock: AJUNOK_clean_linker_0, # of connection points: 2
#     Edge 41, Type (0, 1), BuildingBlock: AJUNOK_clean_linker_0, # of connection points: 2
#     Edge 42, Type (0, 1), BuildingBlock: AJUNOK_clean_linker_0, # of connection points: 2
#     Edge 43, Type (0, 1), BuildingBlock: AJUNOK_clean_linker_0, # of connection points: 2
#     Edge 44, Type (0, 1), BuildingBlock: AJUNOK_clean_linker_0, # of connection points: 2
#     Edge 45, Type (0, 1), BuildingBlock: AJUNOK_clean_linker_0, # of connection points: 2
#     Edge 46, Type (0, 1), BuildingBlock: AJUNOK_clean_linker_0, # of connection points: 2
#     Edge 47, Type (0, 1), BuildingBlock: AJUNOK_clean_linker_0, # of connection points: 2
#     Edge 48, Type (0, 1), BuildingBlock: AJUNOK_clean_linker_0, # of connection points: 2
#     Edge 49, Type (0, 1), BuildingBlock: AJUNOK_clean_linker_0, # of connection points: 2
#     Edge 50, Type (0, 1), BuildingBlock: AJUNOK_clean_linker_0, # of connection points: 2
#     Edge 51, Type (0, 1), BuildingBlock: AJUNOK_clean_linker_0, # of connection points: 2
#     Edge 52, Type (0, 1), BuildingBlock: AJUNOK_clean_linker_0, # of connection points: 2
#     Edge 53, Type (0, 1), BuildingBlock: AJUNOK_clean_linker_0, # of connection points: 2
#     Edge 54, Type (0, 1), BuildingBlock: AJUNOK_clean_linker_0, # of connection points: 2
#     Edge 55, Type (0, 1), BuildingBlock: AJUNOK_clean_linker_0, # of connection points: 2
#     Edge 56, Type (0, 1), BuildingBlock: AJUNOK_clean_linker_0, # of connection points: 2
#     Edge 57, Type (0, 1), BuildingBlock: AJUNOK_clean_linker_0, # of connection points: 2
#     Edge 58, Type (0, 1), BuildingBlock: AJUNOK_clean_linker_0, # of connection points: 2
#     Edge 59, Type (0, 1), BuildingBlock: AJUNOK_clean_linker_0, # of connection points: 2
#     Edge 60, Type (0, 1), BuildingBlock: AJUNOK_clean_linker_0, # of connection points: 2
#     Edge 61, Type (0, 1), BuildingBlock: AJUNOK_clean_linker_0, # of connection points: 2
#     Edge 62, Type (0, 1), BuildingBlock: AJUNOK_clean_linker_0, # of connection points: 2
#     Edge 63, Type (0, 1), BuildingBlock: AJUNOK_clean_linker_0, # of connection points: 2
#     Edge 64, Type (0, 1), BuildingBlock: AJUNOK_clean_linker_0, # of connection points: 2
#     Edge 65, Type (0, 1), BuildingBlock: AJUNOK_clean_linker_0, # of connection points: 2
#     Edge 66, Type (0, 1), BuildingBlock: AJUNOK_clean_linker_0, # of connection points: 2
#     Edge 67, Type (0, 1), BuildingBlock: AJUNOK_clean_linker_0, # of connection points: 2
#     Edge 68, Type (0, 1), BuildingBlock: AJUNOK_clean_linker_0, # of connection points: 2
#     Edge 69, Type (0, 1), BuildingBlock: AJUNOK_clean_linker_0, # of connection points: 2
#     Edge 70, Type (0, 1), BuildingBlock: AJUNOK_clean_linker_0, # of connection points: 2
#     Edge 71, Type (0, 1), BuildingBlock: AJUNOK_clean_linker_0, # of connection points: 2
#     Edge 72, Type (0, 1), BuildingBlock: AJUNOK_clean_linker_0, # of connection points: 2
#     Edge 73, Type (0, 1), BuildingBlock: AJUNOK_clean_linker_0, # of connection points: 2
#     Edge 74, Type (0, 1), BuildingBlock: AJUNOK_clean_linker_0, # of connection points: 2
#     Edge 75, Type (0, 1), BuildingBlock: AJUNOK_clean_linker_0, # of connection points: 2
#     Edge 76, Type (0, 1), BuildingBlock: AJUNOK_clean_linker_0, # of connection points: 2
#     Edge 77, Type (0, 1), BuildingBlock: AJUNOK_clean_linker_0, # of connection points: 2
#     Edge 78, Type (0, 1), BuildingBlock: AJUNOK_clean_linker_0, # of connection points: 2
#     Edge 79, Type (0, 1), BuildingBlock: AJUNOK_clean_linker_0, # of connection points: 2
#     Edge 80, Type (0, 1), BuildingBlock: AJUNOK_clean_linker_0, # of connection points: 2
#     Edge 81, Type (0, 1), BuildingBlock: AJUNOK_clean_linker_0, # of connection points: 2
#     Edge 82, Type (0, 1), BuildingBlock: AJUNOK_clean_linker_0, # of connection points: 2
#     Edge 83, Type (0, 1), BuildingBlock: AJUNOK_clean_linker_0, # of connection points: 2
#     Edge 84, Type (0, 1), BuildingBlock: AJUNOK_clean_linker_0, # of connection points: 2
#     Edge 85, Type (0, 1), BuildingBlock: AJUNOK_clean_linker_0, # of connection points: 2
#     Edge 86, Type (0, 1), BuildingBlock: AJUNOK_clean_linker_0, # of connection points: 2
#     Edge 87, Type (0, 1), BuildingBlock: AJUNOK_clean_linker_0, # of connection points: 2
#     Edge 88, Type (0, 1), BuildingBlock: AJUNOK_clean_linker_0, # of connection points: 2
#     Edge 89, Type (0, 1), BuildingBlock: AJUNOK_clean_linker_0, # of connection points: 2
#     Edge 90, Type (0, 1), BuildingBlock: AJUNOK_clean_linker_0, # of connection points: 2
#     Edge 91, Type (0, 1), BuildingBlock: AJUNOK_clean_linker_0, # of connection points: 2
#     Edge 92, Type (0, 1), BuildingBlock: AJUNOK_clean_linker_0, # of connection points: 2
#     Edge 93, Type (0, 1), BuildingBlock: AJUNOK_clean_linker_0, # of connection points: 2
#     Edge 94, Type (0, 1), BuildingBlock: AJUNOK_clean_linker_0, # of connection points: 2
#     Edge 95, Type (0, 1), BuildingBlock: AJUNOK_clean_linker_0, # of connection points: 2
#     Edge 96, Type (0, 1), BuildingBlock: AJUNOK_clean_linker_0, # of connection points: 2
#     Edge 97, Type (0, 1), BuildingBlock: AJUNOK_clean_linker_0, # of connection points: 2
#     Edge 98, Type (0, 1), BuildingBlock: AJUNOK_clean_linker_0, # of connection points: 2
#     Edge 99, Type (0, 1), BuildingBlock: AJUNOK_clean_linker_0, # of connection points: 2
#     Edge 100, Type (0, 1), BuildingBlock: AJUNOK_clean_linker_0, # of connection points: 2
#     Edge 101, Type (0, 1), BuildingBlock: AJUNOK_clean_linker_0, # of connection points: 2
#     Edge 102, Type (0, 1), BuildingBlock: AJUNOK_clean_linker_0, # of connection points: 2
#     Edge 103, Type (0, 1), BuildingBlock: AJUNOK_clean_linker_0, # of connection points: 2
#     Edge 104, Type (0, 1), BuildingBlock: AJUNOK_clean_linker_0, # of connection points: 2
#     Edge 105, Type (0, 1), BuildingBlock: AJUNOK_clean_linker_0, # of connection points: 2
#     Edge 106, Type (0, 1), BuildingBlock: AJUNOK_clean_linker_0, # of connection points: 2
#     Edge 107, Type (0, 1), BuildingBlock: AJUNOK_clean_linker_0, # of connection points: 2
# Relax obj value: 0.036
# Max RMSD: 0.161
# Mean RMSD: 0.100
data_MOF--net-ptr--node1-GALJAG_clean_sbu_0--node2-AZAVOO_clean_linker_0--edge1-AJUNOK_clean_linker_0
_symmetry_space_group_name_H-M    P1
_symmetry_Int_Tables_number       1
_symmetry_cell_setting            triclinic
loop_
_symmetry_equiv_pos_as_xyz
'x, y, z'
_cell_length_a     63.071246
_cell_length_b     61.911899
_cell_length_c     56.193626
_cell_angle_alpha  93.000221
_cell_angle_beta   92.6375
_cell_angle_gamma 120.1673
loop_
_atom_site_label
_atom_site_type_symbol
_atom_site_fract_x
_atom_site_fract_y
_atom_site_fract_z
_atom_type_partial_charge
In0 In 0.00955 0.36731 0.01933 0.0
O1 O 0.98282 0.3739 0.04095 0.0
O2 O 0.0207 0.39219 0.05361 0.0
C3 C 0.9722 0.32372 0.99824 0.0
C4 C 0.04019 0.35611 0.04337 0.0
C5 C 0.02574 0.39935 0.98448 0.0
O6 O 0.96992 0.34261 0.00281 0.0
O7 O 0.99305 0.32685 0.00448 0.0
O8 O 0.02131 0.40502 0.00472 0.0
O9 O 0.02307 0.37775 0.98201 0.0
C10 C 0.9995 0.38825 0.057 0.0
O11 O 0.0474 0.37138 0.02736 0.0
O12 O 0.01761 0.3462 0.04648 0.0
In13 In 0.62653 0.61441 0.05842 0.0
O14 O 0.62244 0.58809 0.08757 0.0
O15 O 0.59236 0.59322 0.07788 0.0
C16 C 0.66864 0.62671 0.03812 0.0
C17 C 0.63866 0.65788 0.0834 0.0
C18 C 0.59662 0.59206 0.01824 0.0
O19 O 0.66 0.60978 0.05253 0.0
O20 O 0.6563 0.6373 0.03465 0.0
O21 O 0.60133 0.61326 0.02739 0.0
O22 O 0.60667 0.58206 0.02968 0.0
C23 C 0.60069 0.58281 0.09098 0.0
O24 O 0.62257 0.64864 0.06582 0.0
O25 O 0.64857 0.64513 0.08827 0.0
In26 In 0.38439 0.99813 0.01997 0.0
O27 O 0.38831 0.03686 0.01978 0.0
O28 O 0.35956 0.00667 0.99701 0.0
C29 C 0.41746 0.00436 0.05597 0.0
C30 C 0.40441 0.99375 0.97983 0.0
C31 C 0.3426 0.96771 0.04024 0.0
O32 O 0.41252 0.02125 0.05159 0.0
O33 O 0.40653 0.98494 0.04155 0.0
O34 O 0.34844 0.96033 0.02153 0.0
O35 O 0.35777 0.98994 0.04828 0.0
C36 C 0.37028 0.02965 0.00433 0.0
O37 O 0.38875 0.97465 0.98939 0.0
O38 O 0.4103 0.01451 0.99084 0.0
In39 In 0.99392 0.63057 0.04254 0.0
O40 O 0.0202 0.62345 0.02133 0.0
O41 O 0.98207 0.59578 0.01775 0.0
C42 C 0.02448 0.67732 0.06262 0.0
C43 C 0.96313 0.6394 0.01539 0.0
C44 C 0.98768 0.60364 0.08046 0.0
O45 O 0.0301 0.66787 0.04527 0.0
O46 O 0.00337 0.66333 0.06943 0.0
O47 O 0.96949 0.6011 0.06748 0.0
O48 O 0.00843 0.61953 0.07421 0.0
C49 C 0.00337 0.60244 0.01167 0.0
O50 O 0.95793 0.63088 0.03562 0.0
O51 O 0.98362 0.64335 0.00911 0.0
In52 In 0.37523 0.38394 0.0076 0.0
O53 O 0.3818 0.41307 0.98058 0.0
O54 O 0.40463 0.3968 0.98168 0.0
C55 C 0.33395 0.37317 0.02923 0.0
C56 C 0.35892 0.3396 0.98279 0.0
C57 C 0.40882 0.40496 0.04562 0.0
O58 O 0.34403 0.39172 0.01675 0.0
O59 O 0.34461 0.36067 0.03031 0.0
O60 O 0.40023 0.38253 0.03732 0.0
O61 O 0.40092 0.41698 0.03441 0.0
C62 C 0.39917 0.41142 0.97184 0.0
O63 O 0.37396 0.34687 1.00115 0.0
O64 O 0.35201 0.3547 0.97698 0.0
In65 In 0.62003 0.00502 0.04822 0.0
O66 O 0.62024 0.02725 0.0823 0.0
O67 O 0.58692 0.99406 0.0694 0.0
C68 C 0.66217 0.03345 0.02814 0.0
C69 C 0.63165 0.97295 0.06702 0.0
C70 C 0.59196 0.00166 0.00924 0.0
O71 O 0.65379 0.04298 0.04279 0.0
O72 O 0.64962 0.00988 0.02442 0.0
O73 O 0.5911 0.98238 0.01695 0.0
O74 O 0.60587 0.02193 0.02189 0.0
C75 C 0.59798 0.01201 0.08543 0.0
O76 O 0.61487 0.96583 0.05018 0.0
O77 O 0.64204 0.99591 0.07417 0.0
In78 In 0.6722 0.70211 0.3571 0.0
O79 O 0.64609 0.70598 0.38137 0.0
O80 O 0.67937 0.739 0.37545 0.0
C81 C 0.63934 0.65528 0.33837 0.0
C82 C 0.70377 0.69552 0.38587 0.0
C83 C 0.68195 0.72877 0.31853 0.0
O84 O 0.63367 0.66795 0.35225 0.0
O85 O 0.66175 0.66613 0.33427 0.0
O86 O 0.69848 0.73337 0.33487 0.0
O87 O 0.66096 0.71068 0.32156 0.0
C88 C 0.6597 0.72943 0.38578 0.0
O89 O 0.68469 0.69468 0.39273 0.0
O90 O 0.7071 0.6996 0.36418 0.0
In91 In 0.28895 0.94681 0.38894 0.0
O92 O 0.28519 0.92103 0.41859 0.0
O93 O 0.25571 0.92741 0.4101 0.0
C94 C 0.32866 0.95516 0.36575 0.0
C95 C 0.3041 0.99225 0.41167 0.0
C96 C 0.2562 0.92435 0.35062 0.0
O97 O 0.32117 0.94015 0.38197 0.0
O98 O 0.31665 0.96606 0.36218 0.0
O99 O 0.26224 0.94595 0.3598 0.0
O100 O 0.26633 0.91392 0.36116 0.0
C101 C 0.2639 0.91663 0.42285 0.0
O102 O 0.28774 0.98276 0.39439 0.0
O103 O 0.31273 0.97865 0.41771 0.0
In104 In 0.04969 0.32877 0.3514 0.0
O105 O 0.0677 0.36815 0.33841 0.0
O106 O 0.03268 0.35362 0.35191 0.0
C107 C 0.07932 0.34274 0.39255 0.0
C108 C 0.06254 0.31606 0.30967 0.0
C109 C 0.007 0.28862 0.3624 0.0
O110 O 0.05981 0.34368 0.39075 0.0
O111 O 0.0845 0.33577 0.37329 0.0
O112 O 0.0278 0.29118 0.36781 0.0
O113 O 0.00771 0.30525 0.34995 0.0
C114 C 0.04984 0.37128 0.34227 0.0
O115 O 0.07231 0.31628 0.32984 0.0
O116 O 0.0453 0.3207 0.31066 0.0
In117 In 0.66447 0.96694 0.37616 0.0
O118 O 0.69072 0.96481 0.35089 0.0
O119 O 0.65589 0.93185 0.35328 0.0
C120 C 0.69534 0.01126 0.40142 0.0
C121 C 0.63323 0.97437 0.34777 0.0
C122 C 0.6553 0.9351 0.41017 0.0
O123 O 0.70135 0.00352 0.3832 0.0
O124 O 0.67368 0.99692 0.40662 0.0
O125 O 0.63981 0.94126 0.40335 0.0
O126 O 0.67515 0.94525 0.40016 0.0
C127 C 0.67627 0.94191 0.3441 0.0
O128 O 0.62686 0.96344 0.36672 0.0
O129 O 0.65517 0.98183 0.34362 0.0
In130 In 0.03916 0.71907 0.33789 0.0
O131 O 0.04025 0.74209 0.30645 0.0
O132 O 0.07364 0.74528 0.32059 0.0
C133 C 0.9978 0.70886 0.35927 0.0
C134 C 0.02928 0.67667 0.312 0.0
C135 C 0.06965 0.73743 0.37809 0.0
O136 O 0.00942 0.72837 0.34835 0.0
O137 O 0.0067 0.69465 0.35859 0.0
O138 O 0.06049 0.71499 0.36948 0.0
O139 O 0.06351 0.75057 0.36638 0.0
C140 C 0.06324 0.75188 0.30534 0.0
O141 O 0.04703 0.68781 0.3279 0.0
O142 O 0.01662 0.68705 0.3091 0.0
In143 In 0.28361 0.33113 0.37765 0.0
O144 O 0.28074 0.29315 0.37981 0.0
O145 O 0.31194 0.32505 0.398 0.0
C146 C 0.24916 0.31874 0.34121 0.0
C147 C 0.26258 0.33631 0.41676 0.0
C148 C 0.32271 0.36482 0.35599 0.0
O149 O 0.2584 0.30531 0.34586 0.0
O150 O 0.25633 0.3378 0.35578 0.0
O151 O 0.31916 0.36954 0.37715 0.0
O152 O 0.3067 0.34363 0.34628 0.0
C153 C 0.30064 0.30164 0.39278 0.0
O154 O 0.27775 0.35506 0.40649 0.0
O155 O 0.25803 0.31542 0.40709 0.0
In156 In 0.33721 0.03235 0.69017 0.0
O157 O 0.37392 0.03323 0.69634 0.0
O158 O 0.34946 0.02149 0.72384 0.0
C159 C 0.34326 0.06095 0.65369 0.0
C160 C 0.32814 0.05992 0.72199 0.0
C161 C 0.30466 0.98606 0.66966 0.0
O162 O 0.36066 0.05845 0.66253 0.0
O163 O 0.32317 0.0487 0.66295 0.0
O164 O 0.29961 0.99675 0.68631 0.0
O165 O 0.32631 0.99862 0.66358 0.0
C166 C 0.3698 0.02565 0.71699 0.0
O167 O 0.31301 0.03692 0.71632 0.0
O168 O 0.34789 0.06884 0.71174 0.0
In169 In 0.96385 0.27905 0.727 0.0
O170 O 0.95132 0.3063 0.73957 0.0
O171 O 0.98891 0.31693 0.74709 0.0
C172 C 0.93547 0.26128 0.68525 0.0
C173 C 0.94334 0.24908 0.7625 0.0
C174 C 0.00544 0.2862 0.70881 0.0
O175 O 0.94277 0.28311 0.69471 0.0
O176 O 0.94231 0.24875 0.69699 0.0
O177 O 0.9906 0.26576 0.71698 0.0
O178 O 0.99959 0.30286 0.71044 0.0
C179 C 0.97246 0.32265 0.74885 0.0
O180 O 0.96628 0.26376 0.76288 0.0
O181 O 0.93118 0.24908 0.74412 0.0
In182 In 0.71848 0.66837 0.68765 0.0
O183 O 0.72498 0.70758 0.68312 0.0
O184 O 0.68951 0.67625 0.67182 0.0
C185 C 0.75298 0.67778 0.72347 0.0
C186 C 0.73575 0.66222 0.64608 0.0
C187 C 0.67845 0.63698 0.70969 0.0
O188 O 0.74634 0.6933 0.71867 0.0
O189 O 0.74315 0.6581 0.70935 0.0
O190 O 0.68291 0.63034 0.68969 0.0
O191 O 0.69403 0.65901 0.71798 0.0
C192 C 0.7034 0.69977 0.67399 0.0
O193 O 0.72169 0.64365 0.65722 0.0
O194 O 0.74127 0.68321 0.65618 0.0
In195 In 0.32766 0.29689 0.70797 0.0
O196 O 0.35404 0.29426 0.68336 0.0
O197 O 0.3189 0.26153 0.68528 0.0
C198 C 0.35839 0.34154 0.73267 0.0
C199 C 0.29737 0.30478 0.6786 0.0
C200 C 0.31901 0.26643 0.7433 0.0
O201 O 0.36463 0.33332 0.71495 0.0
O202 O 0.33656 0.32753 0.73762 0.0
O203 O 0.30321 0.27192 0.73578 0.0
O204 O 0.33869 0.27617 0.73297 0.0
C205 C 0.33944 0.27144 0.67639 0.0
O206 O 0.29032 0.29372 0.69742 0.0
O207 O 0.31941 0.31202 0.67509 0.0
In208 In 0.70826 0.05039 0.67167 0.0
O209 O 0.71775 0.08273 0.6478 0.0
O210 O 0.73619 0.0621 0.64397 0.0
C211 C 0.67096 0.04617 0.69688 0.0
C212 C 0.68831 0.0039 0.64954 0.0
C213 C 0.74278 0.06939 0.70877 0.0
O214 O 0.67467 0.05554 0.67692 0.0
O215 O 0.68544 0.0388 0.70324 0.0
O216 O 0.73263 0.04681 0.70027 0.0
O217 O 0.73657 0.08284 0.69766 0.0
C218 C 0.73343 0.07968 0.63712 0.0
O219 O 0.70553 0.0125 0.66597 0.0
O220 O 0.68114 0.01885 0.64402 0.0
In221 In 0.94826 0.66595 0.71152 0.0
O222 O 0.94275 0.62679 0.7129 0.0
O223 O 0.97517 0.65741 0.73102 0.0
C224 C 0.91332 0.65654 0.67647 0.0
C225 C 0.92933 0.67191 0.75188 0.0
C226 C 0.98806 0.69783 0.68952 0.0
O227 O 0.92095 0.64156 0.68016 0.0
O228 O 0.92264 0.67583 0.69111 0.0
O229 O 0.9848 0.70329 0.71055 0.0
O230 O 0.97142 0.67677 0.68009 0.0
C231 C 0.96251 0.63402 0.72573 0.0
O232 O 0.94483 0.69053 0.74165 0.0
O233 O 0.92338 0.65086 0.74151 0.0
H234 H 0.17251 0.38448 0.01129 0.0
H235 H 0.303 0.30423 0.19297 0.0
H236 H 0.16 0.37703 0.14212 0.0
H237 H 0.12989 0.38201 0.11762 0.0
H238 H 0.08302 0.30151 0.10732 0.0
H239 H 0.11319 0.29667 0.13219 0.0
H240 H 0.20139 0.38184 0.11108 0.0
H241 H 0.19466 0.39037 0.07019 0.0
H242 H 0.1387 0.31237 0.05425 0.0
H243 H 0.14581 0.30409 0.09509 0.0
H244 H 0.24462 0.37762 0.13979 0.0
H245 H 0.27598 0.38636 0.11152 0.0
H246 H 0.22645 0.3159 0.07069 0.0
H247 H 0.1955 0.30699 0.09934 0.0
H248 H 0.24099 0.36545 0.19242 0.0
H249 H 0.27686 0.36291 0.20671 0.0
H250 H 0.24807 0.29226 0.16399 0.0
H251 H 0.21215 0.29491 0.15009 0.0
H252 H 0.20021 0.36097 0.21738 0.0
H253 H 0.21213 0.35546 0.25768 0.0
H254 H 0.1869 0.27775 0.23587 0.0
H255 H 0.17641 0.28393 0.19523 0.0
H256 H 0.1518 0.36273 0.19026 0.0
H257 H 0.12433 0.35719 0.22182 0.0
H258 H 0.10491 0.27972 0.22254 0.0
H259 H 0.1321 0.28524 0.19065 0.0
O260 O 0.17509 0.38066 0.02726 0.0
O261 O 0.1462 0.34045 0.02013 0.0
O262 O 0.30286 0.34193 0.20948 0.0
O263 O 0.2891 0.3058 0.18748 0.0
C264 C 0.15977 0.33379 0.14723 0.0
C265 C 0.17758 0.33739 0.13102 0.0
C266 C 0.19874 0.33653 0.1386 0.0
C267 C 0.20184 0.3315 0.16232 0.0
C268 C 0.18377 0.32737 0.1784 0.0
C269 C 0.16263 0.32845 0.17089 0.0
C270 C 0.1387 0.3365 0.13891 0.0
C271 C 0.14283 0.3605 0.13527 0.0
C272 C 0.12586 0.3633 0.12098 0.0
C273 C 0.10454 0.34211 0.11008 0.0
C274 C 0.09944 0.31811 0.11541 0.0
C275 C 0.11648 0.31532 0.12976 0.0
C276 C 0.17407 0.34237 0.10599 0.0
C277 C 0.18781 0.36662 0.09865 0.0
C278 C 0.18388 0.37143 0.07533 0.0
C279 C 0.16613 0.35205 0.05896 0.0
C280 C 0.1525 0.32773 0.0664 0.0
C281 C 0.1565 0.32294 0.0897 0.0
C282 C 0.2179 0.34155 0.12175 0.0
C283 C 0.24065 0.364 0.12483 0.0
C284 C 0.25841 0.36908 0.10858 0.0
C285 C 0.2537 0.35175 0.08901 0.0
C286 C 0.23073 0.32943 0.08581 0.0
C287 C 0.21303 0.32434 0.10209 0.0
C288 C 0.22396 0.3303 0.17034 0.0
C289 C 0.24245 0.34942 0.18624 0.0
C290 C 0.26293 0.34793 0.19432 0.0
C291 C 0.2653 0.32733 0.18653 0.0
C292 C 0.24681 0.30835 0.17038 0.0
C293 C 0.2263 0.30983 0.16236 0.0
C294 C 0.18772 0.32292 0.20344 0.0
C295 C 0.19708 0.34272 0.22143 0.0
C296 C 0.20375 0.33949 0.24444 0.0
C297 C 0.20089 0.31628 0.24987 0.0
C298 C 0.19004 0.29605 0.23208 0.0
C299 C 0.18381 0.29945 0.20895 0.0
C300 C 0.14392 0.32438 0.18806 0.0
C301 C 0.14118 0.34441 0.19681 0.0
C302 C 0.1255 0.34122 0.21483 0.0
C303 C 0.1124 0.31797 0.22452 0.0
C304 C 0.1148 0.29782 0.21539 0.0
C305 C 0.13027 0.30095 0.19719 0.0
C306 C 0.16182 0.35726 0.03427 0.0
C307 C 0.28692 0.32556 0.19523 0.0
H308 H 0.62864 0.78219 0.01898 0.0
H309 H 0.70656 0.00204 0.20594 0.0
H310 H 0.63456 0.78253 0.15634 0.0
H311 H 0.62532 0.74126 0.13907 0.0
H312 H 0.70291 0.76989 0.13355 0.0
H313 H 0.71201 0.81115 0.15115 0.0
H314 H 0.6314 0.81356 0.11967 0.0
H315 H 0.62279 0.79744 0.0775 0.0
H316 H 0.70069 0.82778 0.07162 0.0
H317 H 0.70898 0.84389 0.11379 0.0
H318 H 0.63209 0.85439 0.14056 0.0
H319 H 0.62135 0.88021 0.1169 0.0
H320 H 0.69752 0.92609 0.1028 0.0
H321 H 0.70814 0.90005 0.12649 0.0
H322 H 0.64628 0.87685 0.19469 0.0
H323 H 0.64728 0.91602 0.20647 0.0
H324 H 0.72209 0.95813 0.18674 0.0
H325 H 0.7209 0.91879 0.17532 0.0
H326 H 0.64938 0.84066 0.22376 0.0
H327 H 0.65047 0.85975 0.26316 0.0
H328 H 0.72822 0.91204 0.26095 0.0
H329 H 0.7267 0.8931 0.22092 0.0
H330 H 0.64586 0.79736 0.20791 0.0
H331 H 0.64791 0.77225 0.23916 0.0
H332 H 0.72692 0.80953 0.23722 0.0
H333 H 0.72469 0.83532 0.20652 0.0
O334 O 0.63245 0.78881 0.03558 0.0
O335 O 0.67266 0.80462 0.03355 0.0
O336 O 0.66763 0.96376 0.21245 0.0
O337 O 0.70575 0.98628 0.20164 0.0
C338 C 0.67879 0.82504 0.16252 0.0
C339 C 0.67597 0.83935 0.14524 0.0
C340 C 0.67748 0.86222 0.15245 0.0
C341 C 0.68273 0.8713 0.17679 0.0
C342 C 0.68571 0.85707 0.19405 0.0
C343 C 0.68368 0.83388 0.18692 0.0
C344 C 0.67393 0.79963 0.15504 0.0
C345 C 0.64956 0.7797 0.15182 0.0
C346 C 0.64433 0.75628 0.14187 0.0
C347 C 0.66342 0.75245 0.13505 0.0
C348 C 0.68792 0.77229 0.139 0.0
C349 C 0.69314 0.79578 0.14897 0.0
C350 C 0.6708 0.83001 0.11962 0.0
C351 C 0.64656 0.81682 0.10916 0.0
C352 C 0.64171 0.80759 0.08511 0.0
C353 C 0.66106 0.81135 0.07117 0.0
C354 C 0.68537 0.82459 0.08182 0.0
C355 C 0.69017 0.83383 0.10587 0.0
C356 C 0.67085 0.87543 0.13512 0.0
C357 C 0.64633 0.86965 0.13185 0.0
C358 C 0.64023 0.88434 0.11839 0.0
C359 C 0.65866 0.90516 0.10827 0.0
C360 C 0.68307 0.91021 0.11065 0.0
C361 C 0.68912 0.89537 0.124 0.0
C362 C 0.68356 0.89507 0.18429 0.0
C363 C 0.6629 0.89458 0.19309 0.0
C364 C 0.66351 0.91696 0.19974 0.0
C365 C 0.68478 0.94022 0.19754 0.0
C366 C 0.70543 0.94056 0.18868 0.0
C367 C 0.70483 0.91815 0.18215 0.0
C368 C 0.68801 0.86533 0.21969 0.0
C369 C 0.66682 0.85566 0.23214 0.0
C370 C 0.66752 0.86657 0.2547 0.0
C371 C 0.68952 0.88724 0.2653 0.0
C372 C 0.71104 0.89612 0.25321 0.0
C373 C 0.71026 0.88526 0.2305 0.0
C374 C 0.68513 0.81817 0.20515 0.0
C375 C 0.66359 0.8001 0.2143 0.0
C376 C 0.66482 0.78573 0.23203 0.0
C377 C 0.68761 0.78905 0.24079 0.0
C378 C 0.70916 0.80692 0.23121 0.0
C379 C 0.70792 0.82149 0.21359 0.0
C380 C 0.65585 0.80144 0.04564 0.0
C381 C 0.68544 0.96406 0.20436 0.0
H382 H 0.14439 0.81636 0.99845 0.0
H383 H 0.32723 0.99952 0.186 0.0
H384 H 0.12149 0.834 0.1187 0.0
H385 H 0.08667 0.7956 0.09822 0.0
H386 H 0.10851 0.75101 0.13762 0.0
H387 H 0.14392 0.78937 0.15732 0.0
H388 H 0.16727 0.8709 0.09298 0.0
H389 H 0.15753 0.85412 0.051 0.0
H390 H 0.16279 0.7901 0.07009 0.0
H391 H 0.17284 0.80727 0.11194 0.0
H392 H 0.21344 0.91759 0.12089 0.0
H393 H 0.24654 0.93935 0.09459 0.0
H394 H 0.25904 0.8768 0.09165 0.0
H395 H 0.2258 0.8551 0.11769 0.0
H396 H 0.20567 0.9242 0.18026 0.0
H397 H 0.24207 0.96542 0.1911 0.0
H398 H 0.28865 0.93524 0.17339 0.0
H399 H 0.25204 0.89389 0.16314 0.0
H400 H 0.16836 0.88705 0.21208 0.0
H401 H 0.18078 0.89829 0.25517 0.0
H402 H 0.23557 0.87654 0.24825 0.0
H403 H 0.22299 0.86518 0.20551 0.0
H404 H 0.12138 0.84271 0.18279 0.0
H405 H 0.09601 0.82156 0.21545 0.0
H406 H 0.14534 0.79485 0.23485 0.0
H407 H 0.17073 0.81636 0.20269 0.0
O408 O 0.14846 0.82275 0.01512 0.0
O409 O 0.15237 0.79075 0.02573 0.0
O410 O 0.28844 0.99621 0.19735 0.0
O411 O 0.3127 0.98308 0.18302 0.0
C412 C 0.15883 0.83742 0.14785 0.0
C413 C 0.17606 0.85025 0.13104 0.0
C414 C 0.19854 0.8723 0.13857 0.0
C415 C 0.20379 0.8816 0.16293 0.0
C416 C 0.1873 0.8679 0.17988 0.0
C417 C 0.16473 0.84586 0.17238 0.0
C418 C 0.1352 0.81446 0.13951 0.0
C419 C 0.11847 0.81594 0.12327 0.0
C420 C 0.09872 0.79413 0.11159 0.0
C421 C 0.09519 0.77063 0.11646 0.0
C422 C 0.11095 0.76906 0.13381 0.0
C423 C 0.13099 0.79088 0.14515 0.0
C424 C 0.17072 0.84029 0.10548 0.0
C425 C 0.16646 0.85334 0.08801 0.0
C426 C 0.16082 0.84366 0.06408 0.0
C427 C 0.15935 0.82074 0.05719 0.0
C428 C 0.16378 0.80779 0.07478 0.0
C429 C 0.16948 0.81753 0.09869 0.0
C430 C 0.21724 0.8848 0.12119 0.0
C431 C 0.22314 0.9085 0.11431 0.0
C432 C 0.24203 0.92087 0.09935 0.0
C433 C 0.25525 0.90968 0.09093 0.0
C434 C 0.24886 0.88566 0.09742 0.0
C435 C 0.22999 0.87332 0.11239 0.0
C436 C 0.2262 0.90612 0.1707 0.0
C437 C 0.22375 0.92646 0.17896 0.0
C438 C 0.24457 0.94999 0.18509 0.0
C439 C 0.26826 0.95366 0.1829 0.0
C440 C 0.27066 0.93309 0.17508 0.0
C441 C 0.2498 0.90947 0.16918 0.0
C442 C 0.19483 0.87535 0.20576 0.0
C443 C 0.18297 0.88467 0.21996 0.0
C444 C 0.19003 0.89103 0.24445 0.0
C445 C 0.20883 0.88788 0.255 0.0
C446 C 0.22066 0.87861 0.24065 0.0
C447 C 0.2137 0.8724 0.21625 0.0
C448 C 0.14797 0.8312 0.19051 0.0
C449 C 0.12654 0.83213 0.19403 0.0
C450 C 0.11213 0.82009 0.21266 0.0
C451 C 0.119 0.80702 0.22802 0.0
C452 C 0.13997 0.80538 0.22377 0.0
C453 C 0.15436 0.81744 0.20528 0.0
C454 C 0.1532 0.81043 0.03177 0.0
C455 C 0.29035 0.97892 0.18832 0.0
H456 H 0.32595 0.19106 0.05353 0.0
H457 H 0.34273 0.02351 0.85777 0.0
H458 H 0.2891 0.18184 0.92916 0.0
H459 H 0.29551 0.2221 0.94675 0.0
H460 H 0.36329 0.26121 0.91281 0.0
H461 H 0.35759 0.22106 0.89636 0.0
H462 H 0.29351 0.14015 0.95706 0.0
H463 H 0.30054 0.15576 0.99927 0.0
H464 H 0.37179 0.2175 0.98597 0.0
H465 H 0.36465 0.20149 0.94389 0.0
H466 H 0.29168 0.0931 0.93154 0.0
H467 H 0.30205 0.06796 0.95669 0.0
H468 H 0.37847 0.12669 0.96254 0.0
H469 H 0.3678 0.1519 0.93804 0.0
H470 H 0.28095 0.08384 0.87434 0.0
H471 H 0.28105 0.04541 0.8618 0.0
H472 H 0.35994 0.08426 0.87822 0.0
H473 H 0.35957 0.12259 0.89043 0.0
H474 H 0.27818 0.11662 0.84036 0.0
H475 H 0.27835 0.09899 0.80013 0.0
H476 H 0.35761 0.13511 0.80963 0.0
H477 H 0.35726 0.15278 0.84938 0.0
H478 H 0.27766 0.16633 0.86087 0.0
H479 H 0.27533 0.18934 0.8275 0.0
H480 H 0.35377 0.22283 0.82311 0.0
H481 H 0.35558 0.19882 0.85548 0.0
O482 O 0.3236 0.18514 0.03681 0.0
O483 O 0.35997 0.21664 0.02897 0.0
O484 O 0.30162 0.01938 0.85422 0.0
O485 O 0.34215 0.03844 0.8626 0.0
C486 C 0.32109 0.17434 0.90402 0.0
C487 C 0.32402 0.16038 0.92177 0.0
C488 C 0.32354 0.13785 0.91503 0.0
C489 C 0.32008 0.12923 0.89065 0.0
C490 C 0.31774 0.14344 0.87299 0.0
C491 C 0.31812 0.16591 0.87958 0.0
C492 C 0.3227 0.19854 0.9112 0.0
C493 C 0.30508 0.19913 0.92516 0.0
C494 C 0.30872 0.22199 0.93516 0.0
C495 C 0.32973 0.24451 0.93082 0.0
C496 C 0.34676 0.244 0.91598 0.0
C497 C 0.34341 0.22114 0.90645 0.0
C498 C 0.32851 0.16976 0.94743 0.0
C499 C 0.31065 0.15698 0.96334 0.0
C500 C 0.3147 0.16598 0.98742 0.0
C501 C 0.33671 0.18792 0.99599 0.0
C502 C 0.35462 0.20059 0.97996 0.0
C503 C 0.35058 0.19152 0.95591 0.0
C504 C 0.32898 0.12433 0.93313 0.0
C505 C 0.31053 0.10074 0.93881 0.0
C506 C 0.31651 0.0864 0.95302 0.0
C507 C 0.34106 0.0954 0.96168 0.0
C508 C 0.35933 0.11947 0.95664 0.0
C509 C 0.3533 0.13385 0.94257 0.0
C510 C 0.32022 0.10589 0.88339 0.0
C511 C 0.29821 0.08397 0.8752 0.0
C512 C 0.29833 0.06207 0.86807 0.0
C513 C 0.32051 0.06175 0.86905 0.0
C514 C 0.34254 0.08383 0.87728 0.0
C515 C 0.34239 0.10573 0.88433 0.0
C516 C 0.31772 0.13597 0.84757 0.0
C517 C 0.29555 0.12118 0.83339 0.0
C518 C 0.29568 0.1111 0.81058 0.0
C519 C 0.31801 0.1159 0.80173 0.0
C520 C 0.3402 0.13159 0.81573 0.0
C521 C 0.34004 0.14157 0.83846 0.0
C522 C 0.31682 0.18114 0.86068 0.0
C523 C 0.29431 0.17882 0.85276 0.0
C524 C 0.29306 0.19211 0.83383 0.0
C525 C 0.31441 0.20811 0.82276 0.0
C526 C 0.33695 0.21053 0.83108 0.0
C527 C 0.33809 0.19701 0.84969 0.0
C528 C 0.34089 0.19751 0.02155 0.0
C529 C 0.32075 0.03854 0.8615 0.0
H530 H 0.82175 0.18551 0.05823 0.0
H531 H 0.68831 0.99241 0.84193 0.0
H532 H 0.83343 0.20187 0.9319 0.0
H533 H 0.8668 0.24069 0.95249 0.0
H534 H 0.91862 0.21709 0.93526 0.0
H535 H 0.88467 0.17731 0.9162 0.0
H536 H 0.79272 0.16297 0.95556 0.0
H537 H 0.79935 0.17402 0.99877 0.0
H538 H 0.85874 0.15808 0.00215 0.0
H539 H 0.85164 0.1467 0.95898 0.0
H540 H 0.75184 0.12288 0.92012 0.0
H541 H 0.72078 0.10182 0.94846 0.0
H542 H 0.76517 0.07427 0.98053 0.0
H543 H 0.79606 0.09516 0.95189 0.0
H544 H 0.75502 0.11667 0.86572 0.0
H545 H 0.71858 0.07967 0.84578 0.0
H546 H 0.74175 0.03205 0.87779 0.0
H547 H 0.77826 0.06926 0.89744 0.0
H548 H 0.79964 0.15526 0.84402 0.0
H549 H 0.78673 0.14017 0.80179 0.0
H550 H 0.80046 0.07943 0.81211 0.0
H551 H 0.81233 0.09409 0.85459 0.0
H552 H 0.84901 0.20251 0.87647 0.0
H553 H 0.87953 0.22558 0.84812 0.0
H554 H 0.88945 0.16216 0.83446 0.0
H555 H 0.85985 0.13953 0.86362 0.0
O556 O 0.8194 0.18099 0.04118 0.0
O557 O 0.84994 0.1728 0.0419 0.0
O558 O 0.69093 0.03263 0.83443 0.0
O559 O 0.70218 0.00732 0.85015 0.0
C560 C 0.83557 0.16211 0.91278 0.0
C561 C 0.8175 0.14693 0.92793 0.0
C562 C 0.79577 0.12512 0.9182 0.0
C563 C 0.79234 0.11816 0.89342 0.0
C564 C 0.8109 0.13269 0.87844 0.0
C565 C 0.83266 0.15457 0.88809 0.0
C566 C 0.85658 0.18663 0.92287 0.0
C567 C 0.85199 0.20504 0.93268 0.0
C568 C 0.8711 0.22729 0.94427 0.0
C569 C 0.8953 0.2318 0.94589 0.0
C570 C 0.90005 0.21383 0.93498 0.0
C571 C 0.88078 0.19127 0.92378 0.0
C572 C 0.82157 0.15384 0.95418 0.0
C573 C 0.80702 0.16169 0.9657 0.0
C574 C 0.81092 0.16809 0.99037 0.0
C575 C 0.82955 0.1669 0.00393 0.0
C576 C 0.8442 0.15917 0.99226 0.0
C577 C 0.84022 0.15269 0.96761 0.0
C578 C 0.77611 0.11045 0.93394 0.0
C579 C 0.75471 0.11207 0.9331 0.0
C580 C 0.73721 0.10037 0.94947 0.0
C581 C 0.74087 0.08685 0.96692 0.0
C582 C 0.76202 0.08471 0.96732 0.0
C583 C 0.77957 0.0965 0.95098 0.0
C584 C 0.76927 0.0956 0.88296 0.0
C585 C 0.75211 0.09821 0.86849 0.0
C586 C 0.73134 0.07706 0.85711 0.0
C587 C 0.72731 0.05289 0.8601 0.0
C588 C 0.74432 0.05037 0.87505 0.0
C589 C 0.76513 0.07157 0.88639 0.0
C590 C 0.80666 0.1256 0.85231 0.0
C591 C 0.80016 0.13889 0.83704 0.0
C592 C 0.79287 0.13029 0.81295 0.0
C593 C 0.79216 0.10835 0.80374 0.0
C594 C 0.80019 0.09599 0.81884 0.0
C595 C 0.80716 0.10443 0.843 0.0
C596 C 0.8522 0.16932 0.87215 0.0
C597 C 0.85817 0.1938 0.86779 0.0
C598 C 0.87552 0.20692 0.85166 0.0
C599 C 0.88676 0.19556 0.83936 0.0
C600 C 0.88103 0.17124 0.84389 0.0
C601 C 0.8641 0.15833 0.8604 0.0
C602 C 0.83366 0.17372 0.03013 0.0
C603 C 0.70566 0.03041 0.84746 0.0
H604 H 0.85201 0.6633 0.06865 0.0
H605 H 0.67729 0.66106 0.8914 0.0
H606 H 0.88274 0.7035 0.94821 0.0
H607 H 0.9134 0.69745 0.97053 0.0
H608 H 0.88485 0.62516 0.9314 0.0
H609 H 0.8538 0.63105 0.90939 0.0
H610 H 0.83949 0.69719 0.97659 0.0
H611 H 0.8462 0.68989 0.01793 0.0
H612 H 0.8308 0.61548 0.99402 0.0
H613 H 0.82392 0.62296 0.95279 0.0
H614 H 0.79528 0.69885 0.95329 0.0
H615 H 0.76453 0.69037 0.98213 0.0
H616 H 0.74265 0.61189 0.97529 0.0
H617 H 0.77388 0.6207 0.94707 0.0
H618 H 0.79883 0.71051 0.89446 0.0
H619 H 0.76255 0.71463 0.88677 0.0
H620 H 0.71557 0.63626 0.89742 0.0
H621 H 0.75194 0.63224 0.90448 0.0
H622 H 0.8409 0.71164 0.86255 0.0
H623 H 0.82991 0.71527 0.82102 0.0
H624 H 0.76694 0.64035 0.81781 0.0
H625 H 0.77836 0.63662 0.85894 0.0
H626 H 0.88515 0.70762 0.88932 0.0
H627 H 0.90974 0.7095 0.85594 0.0
H628 H 0.85041 0.6374 0.82552 0.0
H629 H 0.8266 0.63522 0.85927 0.0
O630 O 0.84942 0.66585 0.05218 0.0
O631 O 0.83967 0.62716 0.03916 0.0
O632 O 0.71608 0.69789 0.88193 0.0
O633 O 0.69182 0.65955 0.89295 0.0
C634 C 0.84342 0.66814 0.91954 0.0
C635 C 0.82658 0.66492 0.93675 0.0
C636 C 0.80492 0.66525 0.93023 0.0
C637 C 0.80014 0.66926 0.90656 0.0
C638 C 0.8165 0.67168 0.8891 0.0
C639 C 0.83807 0.67082 0.89552 0.0
C640 C 0.86602 0.66769 0.92722 0.0
C641 C 0.88361 0.68671 0.9439 0.0
C642 C 0.90088 0.68314 0.95679 0.0
C643 C 0.90106 0.66066 0.95291 0.0
C644 C 0.88493 0.6426 0.9347 0.0
C645 C 0.86739 0.64604 0.92199 0.0
C646 C 0.83128 0.66063 0.96174 0.0
C647 C 0.83759 0.67934 0.98035 0.0
C648 C 0.84143 0.67512 0.00392 0.0
C649 C 0.83895 0.65207 0.00929 0.0
C650 C 0.83278 0.63342 0.99051 0.0
C651 C 0.82893 0.63766 0.96695 0.0
C652 C 0.78675 0.66039 0.94813 0.0
C653 C 0.78397 0.6799 0.95823 0.0
C654 C 0.76643 0.67501 0.97465 0.0
C655 C 0.75134 0.6505 0.98118 0.0
C656 C 0.75439 0.63106 0.97113 0.0
C657 C 0.77203 0.636 0.95485 0.0
C658 C 0.77802 0.67114 0.90023 0.0
C659 C 0.78067 0.69419 0.89484 0.0
C660 C 0.75994 0.69651 0.89053 0.0
C661 C 0.73617 0.67582 0.89172 0.0
C662 C 0.7336 0.6526 0.89658 0.0
C663 C 0.75434 0.65026 0.90063 0.0
C664 C 0.81031 0.67394 0.86382 0.0
C665 C 0.82483 0.696 0.85279 0.0
C666 C 0.81846 0.69809 0.82917 0.0
C667 C 0.79746 0.67816 0.81627 0.0
C668 C 0.78329 0.65595 0.82727 0.0
C669 C 0.78966 0.65387 0.8508 0.0
C670 C 0.85406 0.67131 0.87668 0.0
C671 C 0.87768 0.69211 0.87559 0.0
C672 C 0.89153 0.69331 0.85636 0.0
C673 C 0.88187 0.67376 0.83789 0.0
C674 C 0.85844 0.65272 0.83947 0.0
C675 C 0.84477 0.65146 0.8587 0.0
C676 C 0.84267 0.64751 0.03439 0.0
C677 C 0.71415 0.67848 0.88844 0.0
H678 H 0.8295 0.71539 0.34517 0.0
H679 H 0.96896 0.63912 0.5259 0.0
H680 H 0.81857 0.70752 0.48767 0.0
H681 H 0.78749 0.71388 0.46648 0.0
H682 H 0.75336 0.63872 0.4321 0.0
H683 H 0.78414 0.63226 0.45374 0.0
H684 H 0.85567 0.71523 0.44639 0.0
H685 H 0.84813 0.72293 0.4054 0.0
H686 H 0.81251 0.64338 0.38449 0.0
H687 H 0.82021 0.63602 0.42556 0.0
H688 H 0.90724 0.71397 0.4694 0.0
H689 H 0.93846 0.72361 0.4409 0.0
H690 H 0.89438 0.64877 0.40591 0.0
H691 H 0.86362 0.63905 0.43501 0.0
H692 H 0.91032 0.70357 0.51997 0.0
H693 H 0.94655 0.70131 0.53351 0.0
H694 H 0.91201 0.62536 0.50054 0.0
H695 H 0.87578 0.62782 0.48738 0.0
H696 H 0.87663 0.70115 0.54747 0.0
H697 H 0.88713 0.69681 0.58867 0.0
H698 H 0.84615 0.61614 0.57446 0.0
H699 H 0.83642 0.62079 0.53285 0.0
H700 H 0.83488 0.70291 0.53494 0.0
H701 H 0.8099 0.70062 0.56774 0.0
H702 H 0.76147 0.62145 0.54797 0.0
H703 H 0.78719 0.62383 0.5154 0.0
O704 O 0.83244 0.71197 0.3612 0.0
O705 O 0.81407 0.67088 0.35144 0.0
O706 O 0.97113 0.67903 0.5387 0.0
O707 O 0.95494 0.64059 0.52064 0.0
C708 C 0.82524 0.66771 0.48046 0.0
C709 C 0.84247 0.67051 0.46383 0.0
C710 C 0.86409 0.67043 0.47127 0.0
C711 C 0.86821 0.66691 0.49527 0.0
C712 C 0.85108 0.66423 0.51193 0.0
C713 C 0.82968 0.66486 0.50462 0.0
C714 C 0.80347 0.66938 0.47234 0.0
C715 C 0.80385 0.69213 0.47626 0.0
C716 C 0.78624 0.69579 0.46405 0.0
C717 C 0.76822 0.67681 0.44762 0.0
C718 C 0.76718 0.65363 0.44462 0.0
C719 C 0.78456 0.64987 0.45708 0.0
C720 C 0.83854 0.67512 0.43882 0.0
C721 C 0.84635 0.69955 0.43287 0.0
C722 C 0.84197 0.70386 0.40948 0.0
C723 C 0.8297 0.68376 0.39167 0.0
C724 C 0.82202 0.65928 0.39776 0.0
C725 C 0.82643 0.65502 0.42115 0.0
C726 C 0.88318 0.67583 0.45425 0.0
C727 C 0.90439 0.69966 0.4556 0.0
C728 C 0.92202 0.70523 0.43913 0.0
C729 C 0.91867 0.68709 0.42087 0.0
C730 C 0.89744 0.66315 0.41972 0.0
C731 C 0.87986 0.65757 0.43627 0.0
C732 C 0.8904 0.66578 0.50293 0.0
C733 C 0.9106 0.68644 0.51581 0.0
C734 C 0.93127 0.6851 0.52346 0.0
C735 C 0.93214 0.6631 0.51819 0.0
C736 C 0.91193 0.64255 0.50496 0.0
C737 C 0.89123 0.6439 0.49741 0.0
C738 C 0.85589 0.66129 0.53726 0.0
C739 C 0.86976 0.68256 0.55335 0.0
C740 C 0.87547 0.68001 0.57693 0.0
C741 C 0.86713 0.6561 0.58492 0.0
C742 C 0.85278 0.63478 0.56881 0.0
C743 C 0.8472 0.63738 0.54513 0.0
C744 C 0.81269 0.66361 0.52266 0.0
C745 C 0.81868 0.68515 0.53747 0.0
C746 C 0.8043 0.68381 0.55613 0.0
C747 C 0.78345 0.66091 0.56024 0.0
C748 C 0.77737 0.63934 0.54521 0.0
C749 C 0.79188 0.6407 0.52652 0.0
C750 C 0.82489 0.68837 0.36688 0.0
C751 C 0.95396 0.6615 0.52648 0.0
H752 H 0.30208 0.11878 0.35151 0.0
H753 H 0.38298 0.33686 0.54874 0.0
H754 H 0.30504 0.12015 0.48157 0.0
H755 H 0.2949 0.07944 0.46218 0.0
H756 H 0.37177 0.10143 0.46913 0.0
H757 H 0.38184 0.14235 0.48887 0.0
H758 H 0.30542 0.15577 0.45031 0.0
H759 H 0.29697 0.13906 0.40837 0.0
H760 H 0.37278 0.15779 0.40638 0.0
H761 H 0.381 0.17463 0.44831 0.0
H762 H 0.30651 0.1947 0.47838 0.0
H763 H 0.2955 0.21875 0.45255 0.0
H764 H 0.36944 0.25715 0.43038 0.0
H765 H 0.3804 0.23283 0.45649 0.0
H766 H 0.31935 0.21199 0.53004 0.0
H767 H 0.32172 0.25109 0.54484 0.0
H768 H 0.39604 0.29296 0.52378 0.0
H769 H 0.39347 0.25364 0.5093 0.0
H770 H 0.31907 0.17178 0.55537 0.0
H771 H 0.31738 0.18957 0.59444 0.0
H772 H 0.39505 0.24405 0.59618 0.0
H773 H 0.3962 0.22671 0.55631 0.0
H774 H 0.31512 0.12381 0.53008 0.0
H775 H 0.3135 0.09755 0.56174 0.0
H776 H 0.39073 0.14829 0.58231 0.0
H777 H 0.39247 0.17403 0.54979 0.0
O778 O 0.30595 0.126 0.36792 0.0
O779 O 0.34522 0.13647 0.36768 0.0
O780 O 0.34337 0.29869 0.55368 0.0
O781 O 0.38151 0.32113 0.54294 0.0
C782 C 0.35007 0.15975 0.49489 0.0
C783 C 0.34861 0.17525 0.47807 0.0
C784 C 0.35055 0.19819 0.48597 0.0
C785 C 0.35508 0.20622 0.51054 0.0
C786 C 0.35687 0.19091 0.52735 0.0
C787 C 0.35427 0.16758 0.51956 0.0
C788 C 0.34415 0.13413 0.48647 0.0
C789 C 0.31965 0.11604 0.47923 0.0
C790 C 0.31392 0.09295 0.46803 0.0
C791 C 0.33264 0.08761 0.46378 0.0
C792 C 0.35708 0.10524 0.47216 0.0
C793 C 0.36282 0.12847 0.48342 0.0
C794 C 0.3439 0.16671 0.4522 0.0
C795 C 0.32026 0.15663 0.44066 0.0
C796 C 0.31545 0.14692 0.41675 0.0
C797 C 0.3342 0.14708 0.40401 0.0
C798 C 0.35793 0.15741 0.41565 0.0
C799 C 0.36271 0.16712 0.43956 0.0
C800 C 0.34416 0.21199 0.46911 0.0
C801 C 0.32024 0.20808 0.4677 0.0
C802 C 0.31396 0.22168 0.45288 0.0
C803 C 0.33155 0.23949 0.43925 0.0
C804 C 0.35556 0.24337 0.44063 0.0
C805 C 0.3618 0.22955 0.45541 0.0
C806 C 0.35631 0.23004 0.51881 0.0
C807 C 0.33613 0.22964 0.52872 0.0
C808 C 0.33753 0.25199 0.53711 0.0
C809 C 0.35911 0.27517 0.53556 0.0
C810 C 0.37918 0.27546 0.5253 0.0
C811 C 0.37777 0.25305 0.51698 0.0
C812 C 0.35776 0.19792 0.55313 0.0
C813 C 0.33588 0.18702 0.56455 0.0
C814 C 0.33501 0.19717 0.58696 0.0
C815 C 0.35615 0.21815 0.59854 0.0
C816 C 0.37845 0.22797 0.58765 0.0
C817 C 0.37922 0.218 0.56503 0.0
C818 C 0.35397 0.15067 0.53747 0.0
C819 C 0.33183 0.12896 0.54103 0.0
C820 C 0.33086 0.11419 0.55932 0.0
C821 C 0.35191 0.12114 0.57469 0.0
C822 C 0.37426 0.14251 0.57069 0.0
C823 C 0.37526 0.15722 0.55222 0.0
C824 C 0.3289 0.13625 0.37878 0.0
C825 C 0.36075 0.29897 0.54462 0.0
H826 H 0.80617 0.14259 0.33582 0.0
H827 H 0.01234 0.31654 0.50972 0.0
H828 H 0.79463 0.16643 0.45723 0.0
H829 H 0.75849 0.12796 0.43864 0.0
H830 H 0.7803 0.08359 0.47846 0.0
H831 H 0.81702 0.12201 0.49625 0.0
H832 H 0.83934 0.2011 0.42884 0.0
H833 H 0.82541 0.18271 0.38752 0.0
H834 H 0.82721 0.11678 0.4064 0.0
H835 H 0.84152 0.13557 0.44755 0.0
H836 H 0.88956 0.24665 0.45336 0.0
H837 H 0.91999 0.26462 0.42385 0.0
H838 H 0.92524 0.19764 0.41897 0.0
H839 H 0.89522 0.18003 0.44893 0.0
H840 H 0.89029 0.25879 0.51165 0.0
H841 H 0.93062 0.29705 0.5189 0.0
H842 H 0.96574 0.25446 0.50067 0.0
H843 H 0.92535 0.21631 0.4939 0.0
H844 H 0.8485 0.22368 0.54589 0.0
H845 H 0.86336 0.23812 0.58824 0.0
H846 H 0.91602 0.21347 0.58171 0.0
H847 H 0.90102 0.1989 0.53977 0.0
H848 H 0.79568 0.17322 0.51689 0.0
H849 H 0.76866 0.14968 0.54747 0.0
H850 H 0.8237 0.1334 0.57515 0.0
H851 H 0.84983 0.15559 0.54376 0.0
O852 O 0.81194 0.14962 0.35219 0.0
O853 O 0.81286 0.11601 0.3629 0.0
O854 O 0.9777 0.32201 0.52065 0.0
O855 O 0.99624 0.30153 0.50808 0.0
C856 C 0.833 0.16965 0.48459 0.0
C857 C 0.84912 0.18058 0.46642 0.0
C858 C 0.87278 0.20164 0.47221 0.0
C859 C 0.88032 0.21206 0.49617 0.0
C860 C 0.86454 0.20076 0.51447 0.0
C861 C 0.84085 0.17939 0.50875 0.0
C862 C 0.80851 0.14701 0.47801 0.0
C863 C 0.79132 0.14843 0.46236 0.0
C864 C 0.7708 0.12656 0.45175 0.0
C865 C 0.76685 0.10305 0.4572 0.0
C866 C 0.78301 0.10163 0.4742 0.0
C867 C 0.80384 0.1235 0.48444 0.0
C868 C 0.84136 0.16963 0.44118 0.0
C869 C 0.83688 0.18276 0.42396 0.0
C870 C 0.82884 0.17217 0.4004 0.0
C871 C 0.82512 0.14823 0.39367 0.0
C872 C 0.82984 0.13523 0.41098 0.0
C873 C 0.83799 0.14589 0.4345 0.0
C874 C 0.89016 0.21204 0.45326 0.0
C875 C 0.89715 0.2358 0.44577 0.0
C876 C 0.91434 0.24592 0.42878 0.0
C877 C 0.92475 0.23237 0.41887 0.0
C878 C 0.91749 0.20845 0.42626 0.0
C879 C 0.9003 0.19836 0.44326 0.0
C880 C 0.9049 0.23484 0.50208 0.0
C881 C 0.90673 0.25774 0.50948 0.0
C882 C 0.92978 0.27956 0.51353 0.0
C883 C 0.9514 0.27884 0.51015 0.0
C884 C 0.94947 0.25572 0.50326 0.0
C885 C 0.92643 0.2339 0.49937 0.0
C886 C 0.87369 0.21024 0.53981 0.0
C887 C 0.86325 0.22144 0.55367 0.0
C888 C 0.87175 0.22971 0.57772 0.0
C889 C 0.89059 0.22659 0.58819 0.0
C890 C 0.90119 0.2157 0.57413 0.0
C891 C 0.8928 0.20757 0.55019 0.0
C892 C 0.82487 0.16634 0.52813 0.0
C893 C 0.8019 0.1646 0.52961 0.0
C894 C 0.78659 0.15137 0.54726 0.0
C895 C 0.79411 0.13986 0.56396 0.0
C896 C 0.81727 0.14192 0.56253 0.0
C897 C 0.83237 0.15483 0.54474 0.0
C898 C 0.81629 0.13691 0.3687 0.0
C899 C 0.97585 0.30213 0.51338 0.0
H900 H 0.00622 0.53224 0.38592 0.0
H901 H 0.03674 0.37245 0.18912 0.0
H902 H 0.96706 0.52037 0.25987 0.0
H903 H 0.97314 0.56095 0.27583 0.0
H904 H 0.04266 0.59889 0.24446 0.0
H905 H 0.03656 0.5583 0.22871 0.0
H906 H 0.974 0.47949 0.29018 0.0
H907 H 0.98099 0.49585 0.33216 0.0
H908 H 0.05144 0.55826 0.31792 0.0
H909 H 0.04433 0.54151 0.27607 0.0
H910 H 0.97625 0.43198 0.26496 0.0
H911 H 0.98948 0.40968 0.29102 0.0
H912 H 0.06312 0.47398 0.29906 0.0
H913 H 0.04988 0.49592 0.27244 0.0
H914 H 0.96451 0.42015 0.21069 0.0
H915 H 0.96895 0.38436 0.19768 0.0
H916 H 0.04807 0.43131 0.20949 0.0
H917 H 0.04334 0.46698 0.22218 0.0
H918 H 0.95452 0.44786 0.17802 0.0
H919 H 0.95266 0.42459 0.14033 0.0
H920 H 0.03175 0.46913 0.14081 0.0
H921 H 0.03354 0.49147 0.17866 0.0
H922 H 0.95612 0.50831 0.20156 0.0
H923 H 0.95185 0.53295 0.17074 0.0
H924 H 0.0241 0.553 0.14966 0.0
H925 H 0.02865 0.52955 0.1811 0.0
O926 O 0.00386 0.52606 0.36927 0.0
O927 O 0.03985 0.55785 0.36097 0.0
O928 O 0.99369 0.36307 0.18788 0.0
O929 O 0.03443 0.38623 0.19434 0.0
C930 C 0.99963 0.51212 0.23658 0.0
C931 C 0.00411 0.49944 0.25463 0.0
C932 C 0.005 0.47756 0.2484 0.0
C933 C 0.00095 0.46808 0.22422 0.0
C934 C 0.99618 0.48056 0.20624 0.0
C935 C 0.99566 0.50268 0.21233 0.0
C936 C 0.00132 0.53647 0.24308 0.0
C937 C 0.98331 0.53749 0.25603 0.0
C938 C 0.98678 0.5606 0.26505 0.0
C939 C 0.00834 0.58296 0.26127 0.0
C940 C 0.02591 0.58189 0.24759 0.0
C941 C 0.02238 0.55881 0.23848 0.0
C942 C 0.00856 0.50942 0.28009 0.0
C943 C 0.99093 0.49667 0.2962 0.0
C944 C 0.99497 0.50608 0.32015 0.0
C945 C 0.01675 0.52841 0.32839 0.0
C946 C 0.03444 0.54106 0.31215 0.0
C947 C 0.0304 0.53159 0.28823 0.0
C948 C 0.01211 0.46551 0.26681 0.0
C949 C 0.99514 0.44135 0.27262 0.0
C950 C 0.00271 0.42871 0.28753 0.0
C951 C 0.02739 0.44004 0.29683 0.0
C952 C 0.0441 0.46469 0.29182 0.0
C953 C 0.03651 0.4773 0.27686 0.0
C954 C 0.00359 0.44609 0.21739 0.0
C955 C 0.98276 0.42262 0.21048 0.0
C956 C 0.98536 0.40223 0.20306 0.0
C957 C 0.00889 0.40498 0.20253 0.0
C958 C 0.0297 0.42853 0.20969 0.0
C959 C 0.02707 0.44891 0.21703 0.0
C960 C 0.99416 0.47134 0.18094 0.0
C961 C 0.97132 0.45304 0.16954 0.0
C962 C 0.97028 0.43976 0.14815 0.0
C963 C 0.99212 0.44477 0.13808 0.0
C964 C 0.01472 0.46459 0.14854 0.0
C965 C 0.01575 0.47758 0.16993 0.0
C966 C 0.99252 0.5168 0.19327 0.0
C967 C 0.97093 0.51798 0.19017 0.0
C968 C 0.96845 0.53187 0.17248 0.0
C969 C 0.98753 0.54468 0.15759 0.0
C970 C 0.0091 0.5434 0.16087 0.0
C971 C 0.01163 0.52977 0.17862 0.0
C972 C 0.02094 0.5384 0.35382 0.0
C973 C 0.01177 0.38345 0.19448 0.0
H974 H 0.49789 0.54613 0.38676 0.0
H975 H 0.35067 0.32492 0.1964 0.0
H976 H 0.50662 0.5417 0.25839 0.0
H977 H 0.54056 0.5795 0.28021 0.0
H978 H 0.5848 0.54431 0.28171 0.0
H979 H 0.55067 0.50644 0.25952 0.0
H980 H 0.46398 0.50614 0.28707 0.0
H981 H 0.47264 0.52454 0.32848 0.0
H982 H 0.52709 0.5024 0.33994 0.0
H983 H 0.51805 0.48385 0.29856 0.0
H984 H 0.41972 0.45974 0.25345 0.0
H985 H 0.38622 0.43858 0.27936 0.0
H986 H 0.43018 0.41615 0.32071 0.0
H987 H 0.46354 0.43689 0.29433 0.0
H988 H 0.4214 0.4496 0.20335 0.0
H989 H 0.38326 0.41137 0.18832 0.0
H990 H 0.40814 0.36712 0.22447 0.0
H991 H 0.44637 0.40552 0.23912 0.0
H992 H 0.46208 0.48753 0.18283 0.0
H993 H 0.44935 0.47373 0.14053 0.0
H994 H 0.46959 0.41697 0.14694 0.0
H995 H 0.48103 0.43017 0.1898 0.0
H996 H 0.50882 0.53318 0.20841 0.0
H997 H 0.5343 0.55531 0.17643 0.0
H998 H 0.55618 0.49969 0.16831 0.0
H999 H 0.53079 0.47772 0.20064 0.0
O1000 O 0.49438 0.53827 0.37062 0.0
O1001 O 0.52201 0.52626 0.37564 0.0
O1002 O 0.35386 0.36391 0.18346 0.0
O1003 O 0.3656 0.34034 0.20208 0.0
C1004 C 0.50418 0.49735 0.24846 0.0
C1005 C 0.48617 0.48389 0.26434 0.0
C1006 C 0.4639 0.46213 0.25567 0.0
C1007 C 0.45993 0.45348 0.23118 0.0
C1008 C 0.47792 0.46707 0.21534 0.0
C1009 C 0.50011 0.48896 0.22398 0.0
C1010 C 0.52626 0.52142 0.2575 0.0
C1011 C 0.52382 0.54236 0.263 0.0
C1012 C 0.54305 0.56375 0.27566 0.0
C1013 C 0.56498 0.56448 0.28309 0.0
C1014 C 0.56797 0.54406 0.27628 0.0
C1015 C 0.54864 0.52257 0.26356 0.0
C1016 C 0.49031 0.49358 0.28989 0.0
C1017 C 0.47755 0.50503 0.29865 0.0
C1018 C 0.48263 0.51563 0.32227 0.0
C1019 C 0.50061 0.515 0.3375 0.0
C1020 C 0.51315 0.50323 0.32868 0.0
C1021 C 0.50801 0.49259 0.30509 0.0
C1022 C 0.44393 0.44957 0.27182 0.0
C1023 C 0.42209 0.45015 0.26801 0.0
C1024 C 0.40309 0.43826 0.28288 0.0
C1025 C 0.40578 0.42596 0.30208 0.0
C1026 C 0.42786 0.42584 0.30622 0.0
C1027 C 0.44679 0.4375 0.29112 0.0
C1028 C 0.43675 0.43028 0.22207 0.0
C1029 C 0.41868 0.43161 0.20779 0.0
C1030 C 0.39686 0.40976 0.19934 0.0
C1031 C 0.39267 0.38616 0.20514 0.0
C1032 C 0.41079 0.38496 0.21962 0.0
C1033 C 0.43263 0.40685 0.22801 0.0
C1034 C 0.4724 0.4598 0.18928 0.0
C1035 C 0.46402 0.4723 0.175 0.0
C1036 C 0.45705 0.46457 0.15075 0.0
C1037 C 0.45886 0.4445 0.1402 0.0
C1038 C 0.46795 0.43246 0.15453 0.0
C1039 C 0.47455 0.43997 0.17894 0.0
C1040 C 0.51807 0.50394 0.2069 0.0
C1041 C 0.51951 0.52606 0.20009 0.0
C1042 C 0.53384 0.5385 0.1817 0.0
C1043 C 0.54689 0.52896 0.16974 0.0
C1044 C 0.54628 0.50739 0.17727 0.0
C1045 C 0.53185 0.49488 0.19567 0.0
C1046 C 0.50636 0.52679 0.36241 0.0
C1047 C 0.36952 0.36287 0.19621 0.0
H1048 H 0.52248 0.99277 0.40031 0.0
H1049 H 0.33099 0.95882 0.20987 0.0
H1050 H 0.54395 0.02921 0.28273 0.0
H1051 H 0.57632 0.02545 0.30466 0.0
H1052 H 0.55394 0.95601 0.26254 0.0
H1053 H 0.52093 0.9593 0.24122 0.0
H1054 H 0.49876 0.0201 0.30893 0.0
H1055 H 0.50905 0.01508 0.35002 0.0
H1056 H 0.50145 0.94372 0.32641 0.0
H1057 H 0.49081 0.94881 0.28547 0.0
H1058 H 0.45492 0.02071 0.28084 0.0
H1059 H 0.42264 0.01306 0.30749 0.0
H1060 H 0.40498 0.93617 0.30932 0.0
H1061 H 0.43765 0.94408 0.28282 0.0
H1062 H 0.45362 0.02741 0.22529 0.0
H1063 H 0.41406 0.02446 0.21492 0.0
H1064 H 0.37656 0.94512 0.22428 0.0
H1065 H 0.41622 0.94829 0.23434 0.0
H1066 H 0.49872 0.03687 0.19738 0.0
H1067 H 0.48804 0.04087 0.15589 0.0
H1068 H 0.43485 0.96153 0.14726 0.0
H1069 H 0.44611 0.9576 0.18841 0.0
H1070 H 0.54214 0.03944 0.21869 0.0
H1071 H 0.56696 0.04583 0.18451 0.0
H1072 H 0.52446 0.96634 0.16307 0.0
H1073 H 0.49925 0.96039 0.19665 0.0
O1074 O 0.51798 0.99418 0.38402 0.0
O1075 O 0.51414 0.95777 0.37089 0.0
O1076 O 0.36708 0.00137 0.20894 0.0
O1077 O 0.34694 0.96045 0.21326 0.0
C1078 C 0.50668 0.99322 0.25235 0.0
C1079 C 0.48907 0.98854 0.26915 0.0
C1080 C 0.46668 0.9872 0.26205 0.0
C1081 C 0.46161 0.99012 0.23805 0.0
C1082 C 0.47903 0.99457 0.2212 0.0
C1083 C 0.50156 0.99604 0.22834 0.0
C1084 C 0.5301 0.99454 0.26036 0.0
C1085 C 0.54647 0.01355 0.27775 0.0
C1086 C 0.56476 0.01131 0.29037 0.0
C1087 C 0.56735 0.99037 0.28531 0.0
C1088 C 0.55226 0.97235 0.26662 0.0
C1089 C 0.53362 0.97435 0.25429 0.0
C1090 C 0.49405 0.98483 0.29426 0.0
C1091 C 0.49908 0.00329 0.31274 0.0
C1092 C 0.50507 0.00042 0.33616 0.0
C1093 C 0.50615 0.97903 0.34149 0.0
C1094 C 0.50081 0.96043 0.32292 0.0
C1095 C 0.49473 0.96328 0.29954 0.0
C1096 C 0.44845 0.9829 0.27976 0.0
C1097 C 0.44422 0.00228 0.28715 0.0
C1098 C 0.42575 0.99785 0.30226 0.0
C1099 C 0.41107 0.9739 0.31012 0.0
C1100 C 0.41603 0.95478 0.30351 0.0
C1101 C 0.43459 0.95925 0.28838 0.0
C1102 C 0.43774 0.98808 0.23057 0.0
C1103 C 0.43684 0.00938 0.22486 0.0
C1104 C 0.41423 0.00765 0.21905 0.0
C1105 C 0.39213 0.98455 0.21888 0.0
C1106 C 0.39319 0.96319 0.2243 0.0
C1107 C 0.41581 0.96494 0.23005 0.0
C1108 C 0.47326 0.99692 0.19584 0.0
C1109 C 0.48503 0.02032 0.18637 0.0
C1110 C 0.47885 0.02259 0.16276 0.0
C1111 C 0.46084 0.00146 0.14823 0.0
C1112 C 0.44923 0.97803 0.15779 0.0
C1113 C 0.45544 0.97578 0.18135 0.0
C1114 C 0.51906 0.99944 0.21017 0.0
C1115 C 0.53858 0.0234 0.20683 0.0
C1116 C 0.55274 0.02698 0.18734 0.0
C1117 C 0.5477 0.00657 0.17109 0.0
C1118 C 0.52865 0.98247 0.17512 0.0
C1119 C 0.51439 0.97898 0.1944 0.0
C1120 C 0.51297 0.97625 0.36631 0.0
C1121 C 0.36802 0.98273 0.21334 0.0
H1122 H 0.50158 0.05774 0.6795 0.0
H1123 H 0.64847 0.99103 0.85512 0.0
H1124 H 0.48758 0.04528 0.81794 0.0
H1125 H 0.4553 0.04908 0.79576 0.0
H1126 H 0.42225 0.97221 0.76641 0.0
H1127 H 0.45405 0.96818 0.78929 0.0
H1128 H 0.52783 0.05535 0.78019 0.0
H1129 H 0.52078 0.06401 0.73944 0.0
H1130 H 0.48171 0.98446 0.7178 0.0
H1131 H 0.4889 0.97613 0.75862 0.0
H1132 H 0.57936 0.05388 0.80592 0.0
H1133 H 0.61221 0.06443 0.77908 0.0
H1134 H 0.56691 0.99347 0.73752 0.0
H1135 H 0.53433 0.98262 0.76486 0.0
H1136 H 0.5776 0.04259 0.85837 0.0
H1137 H 0.61588 0.04388 0.8711 0.0
H1138 H 0.59168 0.97468 0.82736 0.0
H1139 H 0.55335 0.97346 0.81502 0.0
H1140 H 0.53246 0.03636 0.8833 0.0
H1141 H 0.54581 0.03452 0.92421 0.0
H1142 H 0.5395 0.96313 0.90383 0.0
H1143 H 0.52431 0.96425 0.86318 0.0
H1144 H 0.4966 0.03971 0.86203 0.0
H1145 H 0.47175 0.03609 0.89519 0.0
H1146 H 0.43802 0.9554 0.88646 0.0
H1147 H 0.46436 0.95947 0.8541 0.0
O1148 O 0.50421 0.05392 0.69546 0.0
O1149 O 0.48603 0.01302 0.68482 0.0
O1150 O 0.6459 0.02747 0.87124 0.0
O1151 O 0.63362 0.99114 0.85018 0.0
C1152 C 0.49541 0.00601 0.81363 0.0
C1153 C 0.51299 0.01005 0.79704 0.0
C1154 C 0.53507 0.01085 0.80435 0.0
C1155 C 0.53936 0.00702 0.82825 0.0
C1156 C 0.52178 0.00298 0.84492 0.0
C1157 C 0.49985 0.00272 0.83765 0.0
C1158 C 0.47294 0.00636 0.80544 0.0
C1159 C 0.47278 0.02896 0.80755 0.0
C1160 C 0.45456 0.03119 0.79473 0.0
C1161 C 0.43661 0.01099 0.77932 0.0
C1162 C 0.43603 0.98801 0.77817 0.0
C1163 C 0.45398 0.98564 0.79134 0.0
C1164 C 0.50893 0.01516 0.77224 0.0
C1165 C 0.51781 0.03987 0.76657 0.0
C1166 C 0.51373 0.04473 0.74332 0.0
C1167 C 0.50074 0.02493 0.72535 0.0
C1168 C 0.49185 0.00015 0.73118 0.0
C1169 C 0.49592 0.99533 0.75445 0.0
C1170 C 0.55448 0.01745 0.7874 0.0
C1171 C 0.57651 0.04061 0.79103 0.0
C1172 C 0.59517 0.04665 0.77569 0.0
C1173 C 0.59197 0.02975 0.75628 0.0
C1174 C 0.56966 0.00687 0.75225 0.0
C1175 C 0.55112 0.00067 0.76783 0.0
C1176 C 0.56265 0.00784 0.83591 0.0
C1177 C 0.58055 0.02766 0.85168 0.0
C1178 C 0.60243 0.0284 0.85884 0.0
C1179 C 0.60683 0.00936 0.85026 0.0
C1180 C 0.58887 0.98961 0.83434 0.0
C1181 C 0.56698 0.98888 0.82724 0.0
C1182 C 0.52717 0.00033 0.87029 0.0
C1183 C 0.53311 0.0199 0.88782 0.0
C1184 C 0.54119 0.01904 0.91108 0.0
C1185 C 0.54426 0.99895 0.91707 0.0
C1186 C 0.53731 0.97884 0.89974 0.0
C1187 C 0.52874 0.97949 0.87653 0.0
C1188 C 0.48213 -0.00014 0.8555 0.0
C1189 C 0.48353 0.02122 0.86699 0.0
C1190 C 0.46912 0.01906 0.88588 0.0
C1191 C 0.45241 0.99538 0.89329 0.0
C1192 C 0.45067 0.97391 0.88129 0.0
C1193 C 0.46551 0.97616 0.86265 0.0
C1194 C 0.49652 0.03016 0.70064 0.0
C1195 C 0.63 0.00998 0.85789 0.0
H1196 H 0.96091 0.45909 0.68217 0.0
H1197 H 0.02338 0.65886 0.88252 0.0
H1198 H 0.96359 0.44929 0.80866 0.0
H1199 H 0.95598 0.40948 0.7897 0.0
H1200 H 0.03076 0.42968 0.81167 0.0
H1201 H 0.03887 0.47064 0.82863 0.0
H1202 H 0.96138 0.48733 0.7832 0.0
H1203 H 0.95417 0.47424 0.74038 0.0
H1204 H 0.02843 0.48777 0.73997 0.0
H1205 H 0.03551 0.50119 0.78276 0.0
H1206 H 0.96188 0.52653 0.81557 0.0
H1207 H 0.9523 0.55139 0.78934 0.0
H1208 H 0.02382 0.58144 0.76211 0.0
H1209 H 0.03336 0.55646 0.78858 0.0
H1210 H 0.97435 0.53458 0.8715 0.0
H1211 H 0.97304 0.5715 0.88708 0.0
H1212 H 0.03991 0.61918 0.85414 0.0
H1213 H 0.04121 0.58211 0.839 0.0
H1214 H 0.98427 0.49424 0.89614 0.0
H1215 H 0.98511 0.5113 0.93656 0.0
H1216 H 0.051 0.58026 0.92446 0.0
H1217 H 0.05118 0.56221 0.88491 0.0
H1218 H 0.98056 0.44974 0.8655 0.0
H1219 H 0.98787 0.4267 0.89591 0.0
H1220 H 0.06274 0.48776 0.91026 0.0
H1221 H 0.05551 0.5106 0.8795 0.0
O1222 O 0.96422 0.4645 0.69907 0.0
O1223 O 0.0025 0.47161 0.69985 0.0
O1224 O 0.98923 0.6186 0.89335 0.0
O1225 O 0.02344 0.64393 0.87656 0.0
C1226 C 0.00673 0.48829 0.82842 0.0
C1227 C 0.00342 0.50324 0.81211 0.0
C1228 C 0.00417 0.52544 0.82062 0.0
C1229 C 0.00893 0.5332 0.84527 0.0
C1230 C 0.01375 0.51912 0.86147 0.0
C1231 C 0.01272 0.49664 0.85304 0.0
C1232 C 0.00192 0.46307 0.81959 0.0
C1233 C 0.97841 0.44521 0.80918 0.0
C1234 C 0.97402 0.42234 0.79857 0.0
C1235 C 0.99289 0.41655 0.79871 0.0
C1236 C 0.01607 0.43392 0.81044 0.0
C1237 C 0.02065 0.45716 0.8205 0.0
C1238 C 0.99906 0.49548 0.78602 0.0
C1239 C 0.97615 0.48774 0.77377 0.0
C1240 C 0.97204 0.48013 0.74934 0.0
C1241 C 0.99074 0.48 0.73673 0.0
C1242 C 0.01365 0.48769 0.74912 0.0
C1243 C 0.01775 0.49536 0.77355 0.0
C1244 C 0.99828 0.53978 0.80392 0.0
C1245 C 0.97538 0.53834 0.8038 0.0
C1246 C 0.96989 0.55234 0.78872 0.0
C1247 C 0.98724 0.56803 0.77356 0.0
C1248 C 0.01015 0.56936 0.7736 0.0
C1249 C 0.01558 0.55517 0.78861 0.0
C1250 C 0.00792 0.55569 0.8542 0.0
C1251 C 0.98872 0.55302 0.86773 0.0
C1252 C 0.988 0.57414 0.87656 0.0
C1253 C 0.00639 0.59831 0.87186 0.0
C1254 C 0.02547 0.60086 0.8581 0.0
C1255 C 0.02623 0.57973 0.84937 0.0
C1256 C 0.01756 0.52705 0.88749 0.0
C1257 C 0.99953 0.51256 0.90264 0.0
C1258 C 0.99988 0.52248 0.92562 0.0
C1259 C 0.01796 0.54725 0.93367 0.0
C1260 C 0.03705 0.56099 0.91909 0.0
C1261 C 0.03704 0.55079 0.89634 0.0
C1262 C 0.01752 0.48182 0.87022 0.0
C1263 C 0.99868 0.45794 0.87486 0.0
C1264 C 0.00285 0.44483 0.8922 0.0
C1265 C 0.02582 0.45556 0.90541 0.0
C1266 C 0.04483 0.47922 0.90041 0.0
C1267 C 0.04073 0.49221 0.88289 0.0
C1268 C 0.98628 0.47181 0.71079 0.0
C1269 C 0.00575 0.62081 0.88127 0.0
H1270 H 0.47175 0.48097 0.66722 0.0
H1271 H 0.67352 0.64856 0.84427 0.0
H1272 H 0.45677 0.49691 0.78913 0.0
H1273 H 0.42096 0.45834 0.77017 0.0
H1274 H 0.4442 0.41415 0.8084 0.0
H1275 H 0.48061 0.45267 0.82648 0.0
H1276 H 0.50129 0.53469 0.76254 0.0
H1277 H 0.48861 0.51828 0.72058 0.0
H1278 H 0.49306 0.45289 0.73603 0.0
H1279 H 0.50607 0.4697 0.77785 0.0
H1280 H 0.54895 0.58049 0.79025 0.0
H1281 H 0.58236 0.60433 0.76494 0.0
H1282 H 0.59346 0.54123 0.75466 0.0
H1283 H 0.55994 0.5174 0.78 0.0
H1284 H 0.55151 0.58942 0.84748 0.0
H1285 H 0.59167 0.62787 0.85501 0.0
H1286 H 0.62733 0.58648 0.83429 0.0
H1287 H 0.58714 0.54814 0.82726 0.0
H1288 H 0.50823 0.55064 0.87995 0.0
H1289 H 0.52224 0.56365 0.92255 0.0
H1290 H 0.57737 0.54249 0.91478 0.0
H1291 H 0.56294 0.52901 0.87259 0.0
H1292 H 0.45762 0.50267 0.84992 0.0
H1293 H 0.43095 0.47849 0.8806 0.0
H1294 H 0.48564 0.46048 0.9053 0.0
H1295 H 0.51152 0.48358 0.87411 0.0
O1296 O 0.47701 0.48722 0.68383 0.0
O1297 O 0.47934 0.45386 0.69277 0.0
O1298 O 0.63863 0.65354 0.85537 0.0
O1299 O 0.65754 0.63341 0.84287 0.0
C1300 C 0.49538 0.50055 0.8165 0.0
C1301 C 0.51159 0.51307 0.79881 0.0
C1302 C 0.53478 0.5345 0.80548 0.0
C1303 C 0.54198 0.54336 0.82986 0.0
C1304 C 0.52608 0.53061 0.84759 0.0
C1305 C 0.50271 0.50914 0.84096 0.0
C1306 C 0.47134 0.4776 0.80911 0.0
C1307 C 0.4539 0.47891 0.79375 0.0
C1308 C 0.43355 0.457 0.78296 0.0
C1309 C 0.43005 0.43353 0.78795 0.0
C1310 C 0.44657 0.43216 0.80452 0.0
C1311 C 0.46722 0.45408 0.81491 0.0
C1312 C 0.50453 0.50336 0.77321 0.0
C1313 C 0.49967 0.51691 0.75677 0.0
C1314 C 0.49235 0.50745 0.73285 0.0
C1315 C 0.48976 0.48424 0.72496 0.0
C1316 C 0.49484 0.4708 0.74151 0.0
C1317 C 0.50225 0.48034 0.7654 0.0
C1318 C 0.55217 0.54731 0.7871 0.0
C1319 C 0.55831 0.57167 0.78219 0.0
C1320 C 0.57742 0.58526 0.76787 0.0
C1321 C 0.59069 0.57471 0.75821 0.0
C1322 C 0.5835 0.54976 0.76191 0.0
C1323 C 0.56439 0.53617 0.77632 0.0
C1324 C 0.56643 0.56605 0.83671 0.0
C1325 C 0.56805 0.58865 0.84493 0.0
C1326 C 0.59099 0.61059 0.84909 0.0
C1327 C 0.6127 0.61028 0.84504 0.0
C1328 C 0.61099 0.58742 0.83746 0.0
C1329 C 0.58807 0.56548 0.83345 0.0
C1330 C 0.53461 0.53893 0.87323 0.0
C1331 C 0.52325 0.54874 0.88754 0.0
C1332 C 0.53126 0.55617 0.91176 0.0
C1333 C 0.55063 0.55372 0.92198 0.0
C1334 C 0.56204 0.54405 0.9075 0.0
C1335 C 0.55403 0.53663 0.88337 0.0
C1336 C 0.48654 0.4949 0.85973 0.0
C1337 C 0.46372 0.49335 0.86189 0.0
C1338 C 0.4486 0.47969 0.87948 0.0
C1339 C 0.45604 0.46729 0.89514 0.0
C1340 C 0.4791 0.4693 0.89315 0.0
C1341 C 0.49405 0.48273 0.87551 0.0
C1342 C 0.48174 0.47411 0.69959 0.0
C1343 C 0.63702 0.63374 0.8482 0.0
H1344 H 0.6417 0.84957 0.7178 0.0
H1345 H 0.69025 0.70145 0.52322 0.0
H1346 H 0.61619 0.84549 0.59319 0.0
H1347 H 0.62163 0.88511 0.61156 0.0
H1348 H 0.6911 0.92599 0.58085 0.0
H1349 H 0.68629 0.88651 0.5635 0.0
H1350 H 0.61955 0.80182 0.62019 0.0
H1351 H 0.62234 0.81566 0.66242 0.0
H1352 H 0.69305 0.88111 0.65461 0.0
H1353 H 0.69015 0.86693 0.61251 0.0
H1354 H 0.62524 0.75468 0.58981 0.0
H1355 H 0.63667 0.73051 0.61478 0.0
H1356 H 0.70483 0.79815 0.63958 0.0
H1357 H 0.69433 0.82163 0.6126 0.0
H1358 H 0.61765 0.75035 0.53506 0.0
H1359 H 0.62295 0.71523 0.52161 0.0
H1360 H 0.69977 0.75835 0.54786 0.0
H1361 H 0.69427 0.79342 0.56093 0.0
H1362 H 0.61021 0.78482 0.50582 0.0
H1363 H 0.60987 0.76806 0.46503 0.0
H1364 H 0.68887 0.80161 0.4744 0.0
H1365 H 0.68904 0.81828 0.51488 0.0
H1366 H 0.60943 0.83446 0.52654 0.0
H1367 H 0.60865 0.85786 0.49271 0.0
H1368 H 0.68662 0.88759 0.48869 0.0
H1369 H 0.68703 0.86367 0.52174 0.0
O1370 O 0.64103 0.84437 0.70112 0.0
O1371 O 0.67752 0.87746 0.69625 0.0
O1372 O 0.64791 0.69346 0.5156 0.0
O1373 O 0.68759 0.71496 0.52853 0.0
C1374 C 0.64999 0.8393 0.56971 0.0
C1375 C 0.65256 0.82518 0.58754 0.0
C1376 C 0.654 0.80362 0.58086 0.0
C1377 C 0.6525 0.79602 0.55637 0.0
C1378 C 0.64968 0.80996 0.5387 0.0
C1379 C 0.64867 0.83168 0.5453 0.0
C1380 C 0.65075 0.86312 0.57683 0.0
C1381 C 0.6323 0.86304 0.58997 0.0
C1382 C 0.63536 0.88554 0.60038 0.0
C1383 C 0.65664 0.90834 0.59729 0.0
C1384 C 0.6744 0.90855 0.58307 0.0
C1385 C 0.67157 0.88607 0.57306 0.0
C1386 C 0.65455 0.83344 0.61327 0.0
C1387 C 0.63565 0.8191 0.62767 0.0
C1388 C 0.63728 0.82708 0.65176 0.0
C1389 C 0.65789 0.84954 0.66187 0.0
C1390 C 0.6769 0.86376 0.64738 0.0
C1391 C 0.67526 0.85574 0.62332 0.0
C1392 C 0.65892 0.78994 0.59931 0.0
C1393 C 0.64253 0.76431 0.60082 0.0
C1394 C 0.64897 0.75058 0.61542 0.0
C1395 C 0.67159 0.76241 0.62949 0.0
C1396 C 0.68736 0.78839 0.62887 0.0
C1397 C 0.68123 0.80195 0.61372 0.0
C1398 C 0.65555 0.77438 0.54901 0.0
C1399 C 0.63559 0.75215 0.53788 0.0
C1400 C 0.63867 0.73213 0.53025 0.0
C1401 C 0.6618 0.73399 0.53365 0.0
C1402 C 0.68172 0.75628 0.54495 0.0
C1403 C 0.67862 0.77631 0.55251 0.0
C1404 C 0.64964 0.80267 0.51317 0.0
C1405 C 0.62744 0.78895 0.49878 0.0
C1406 C 0.62727 0.77939 0.47563 0.0
C1407 C 0.64936 0.78377 0.46657 0.0
C1408 C 0.67165 0.79842 0.48076 0.0
C1409 C 0.67178 0.80779 0.50388 0.0
C1410 C 0.64827 0.84736 0.52645 0.0
C1411 C 0.6263 0.84615 0.51835 0.0
C1412 C 0.62589 0.85947 0.49911 0.0
C1413 C 0.64747 0.87409 0.48776 0.0
C1414 C 0.66956 0.87589 0.49659 0.0
C1415 C 0.6699 0.86248 0.5156 0.0
C1416 C 0.6595 0.85805 0.68742 0.0
C1417 C 0.66524 0.71287 0.52537 0.0
H1418 H 0.16644 0.87589 0.72014 0.0
H1419 H 0.01598 0.65545 0.52855 0.0
H1420 H 0.17069 0.87207 0.59232 0.0
H1421 H 0.20492 0.90988 0.61383 0.0
H1422 H 0.25065 0.87647 0.6102 0.0
H1423 H 0.21613 0.83847 0.58851 0.0
H1424 H 0.12933 0.83614 0.62088 0.0
H1425 H 0.13919 0.85426 0.66245 0.0
H1426 H 0.19479 0.83323 0.67063 0.0
H1427 H 0.18454 0.81494 0.62913 0.0
H1428 H 0.08483 0.79055 0.58609 0.0
H1429 H 0.05157 0.76952 0.61226 0.0
H1430 H 0.09582 0.74724 0.65333 0.0
H1431 H 0.12896 0.76784 0.62665 0.0
H1432 H 0.08597 0.7802 0.53549 0.0
H1433 H 0.04811 0.74178 0.52025 0.0
H1434 H 0.07317 0.69799 0.55698 0.0
H1435 H 0.11115 0.73656 0.57178 0.0
H1436 H 0.12794 0.82017 0.51511 0.0
H1437 H 0.11388 0.80632 0.47302 0.0
H1438 H 0.12936 0.74615 0.47884 0.0
H1439 H 0.14245 0.75964 0.52147 0.0
H1440 H 0.17329 0.865 0.54153 0.0
H1441 H 0.1985 0.88798 0.50973 0.0
H1442 H 0.21932 0.83187 0.49829 0.0
H1443 H 0.19421 0.80902 0.53045 0.0
O1444 O 0.16243 0.86809 0.70394 0.0
O1445 O 0.19059 0.85662 0.70728 0.0
O1446 O 0.01946 0.69422 0.5146 0.0
O1447 O 0.03073 0.67096 0.53443 0.0
C1448 C 0.16893 0.82842 0.58021 0.0
C1449 C 0.15134 0.81473 0.59638 0.0
C1450 C 0.12898 0.79296 0.58791 0.0
C1451 C 0.12465 0.7844 0.56338 0.0
C1452 C 0.14226 0.79816 0.54727 0.0
C1453 C 0.16445 0.82018 0.55567 0.0
C1454 C 0.19098 0.85259 0.58905 0.0
C1455 C 0.18823 0.8731 0.59577 0.0
C1456 C 0.20765 0.89451 0.6082 0.0
C1457 C 0.23011 0.89571 0.61406 0.0
C1458 C 0.23339 0.8758 0.60597 0.0
C1459 C 0.21383 0.85426 0.59355 0.0
C1460 C 0.15612 0.82411 0.62207 0.0
C1461 C 0.14339 0.83517 0.6318 0.0
C1462 C 0.14917 0.84563 0.65549 0.0
C1463 C 0.16783 0.84525 0.66985 0.0
C1464 C 0.18033 0.83385 0.66007 0.0
C1465 C 0.17449 0.82335 0.6364 0.0
C1466 C 0.10919 0.78045 0.60427 0.0
C1467 C 0.08732 0.78101 0.60064 0.0
C1468 C 0.06845 0.76918 0.61565 0.0
C1469 C 0.07128 0.75696 0.63484 0.0
C1470 C 0.09338 0.75685 0.63883 0.0
C1471 C 0.11219 0.76844 0.62357 0.0
C1472 C 0.10142 0.76112 0.55449 0.0
C1473 C 0.08334 0.76227 0.54005 0.0
C1474 C 0.06168 0.74031 0.53146 0.0
C1475 C 0.05765 0.71679 0.53732 0.0
C1476 C 0.07571 0.71577 0.55207 0.0
C1477 C 0.09741 0.73776 0.56057 0.0
C1478 C 0.13625 0.79093 0.52123 0.0
C1479 C 0.12866 0.80425 0.50717 0.0
C1480 C 0.12085 0.79642 0.48307 0.0
C1481 C 0.12088 0.77536 0.47246 0.0
C1482 C 0.12912 0.76243 0.48652 0.0
C1483 C 0.13668 0.77012 0.51077 0.0
C1484 C 0.18201 0.83542 0.53836 0.0
C1485 C 0.18366 0.85792 0.5325 0.0
C1486 C 0.19785 0.87086 0.51421 0.0
C1487 C 0.21056 0.86148 0.50141 0.0
C1488 C 0.20969 0.83947 0.50792 0.0
C1489 C 0.19539 0.82644 0.52621 0.0
C1490 C 0.17435 0.85693 0.69482 0.0
C1491 C 0.03477 0.69338 0.52808 0.0
H1492 H 0.20431 0.33884 0.73155 0.0
H1493 H 0.00471 0.31256 0.56147 0.0
H1494 H 0.21737 0.36822 0.61156 0.0
H1495 H 0.24835 0.36196 0.633 0.0
H1496 H 0.21976 0.29034 0.59261 0.0
H1497 H 0.18814 0.2962 0.57176 0.0
H1498 H 0.17389 0.36208 0.64112 0.0
H1499 H 0.18725 0.35892 0.68173 0.0
H1500 H 0.17773 0.28646 0.65927 0.0
H1501 H 0.16403 0.2897 0.61886 0.0
H1502 H 0.12174 0.35698 0.61668 0.0
H1503 H 0.0903 0.34543 0.64507 0.0
H1504 H 0.08623 0.27393 0.64937 0.0
H1505 H 0.11583 0.28468 0.61923 0.0
H1506 H 0.12694 0.37028 0.56173 0.0
H1507 H 0.08875 0.37121 0.55548 0.0
H1508 H 0.04689 0.29269 0.56778 0.0
H1509 H 0.08515 0.29189 0.57354 0.0
H1510 H 0.17131 0.37434 0.52824 0.0
H1511 H 0.15743 0.37907 0.48819 0.0
H1512 H 0.09358 0.30505 0.48677 0.0
H1513 H 0.10791 0.29993 0.52618 0.0
H1514 H 0.21704 0.37156 0.55315 0.0
H1515 H 0.24107 0.3735 0.5193 0.0
H1516 H 0.18098 0.302 0.48863 0.0
H1517 H 0.15765 0.29973 0.52284 0.0
O1518 O 0.1986 0.33952 0.71548 0.0
O1519 O 0.19384 0.30256 0.70291 0.0
O1520 O 0.04193 0.35173 0.55314 0.0
O1521 O 0.01999 0.31242 0.5627 0.0
C1522 C 0.17717 0.33246 0.58393 0.0
C1523 C 0.16115 0.32881 0.60215 0.0
C1524 C 0.1385 0.32762 0.59685 0.0
C1525 C 0.13215 0.33102 0.57344 0.0
C1526 C 0.14794 0.33437 0.55507 0.0
C1527 C 0.17028 0.33456 0.56022 0.0
C1528 C 0.20041 0.33261 0.59018 0.0
C1529 C 0.21833 0.35158 0.6067 0.0
C1530 C 0.2358 0.3479 0.61909 0.0
C1531 C 0.23609 0.32556 0.61458 0.0
C1532 C 0.21979 0.3077 0.59634 0.0
C1533 C 0.20195 0.31116 0.58425 0.0
C1534 C 0.16816 0.32621 0.62704 0.0
C1535 C 0.17454 0.34547 0.64508 0.0
C1536 C 0.18223 0.34364 0.66822 0.0
C1537 C 0.18367 0.32248 0.67372 0.0
C1538 C 0.1769 0.30304 0.65564 0.0
C1539 C 0.16913 0.30486 0.63253 0.0
C1540 C 0.12092 0.32159 0.61565 0.0
C1541 C 0.11386 0.33873 0.62359 0.0
C1542 C 0.09607 0.33217 0.64001 0.0
C1543 C 0.0854 0.30855 0.64926 0.0
C1544 C 0.09339 0.2919 0.64205 0.0
C1545 C 0.11065 0.2982 0.62513 0.0
C1546 C 0.10883 0.33107 0.56823 0.0
C1547 C 0.10949 0.35325 0.56281 0.0
C1548 C 0.08766 0.35374 0.55933 0.0
C1549 C 0.06477 0.33206 0.56132 0.0
C1550 C 0.06419 0.30975 0.56627 0.0
C1551 C 0.08602 0.30923 0.56957 0.0
C1552 C 0.1405 0.33688 0.53027 0.0
C1553 C 0.15452 0.35902 0.51913 0.0
C1554 C 0.14661 0.36173 0.49636 0.0
C1555 C 0.1244 0.34247 0.48465 0.0
C1556 C 0.11067 0.3202 0.49561 0.0
C1557 C 0.1188 0.31731 0.51808 0.0
C1558 C 0.18556 0.33553 0.54045 0.0
C1559 C 0.20921 0.35624 0.53921 0.0
C1560 C 0.22276 0.35747 0.51972 0.0
C1561 C 0.21279 0.33805 0.50112 0.0
C1562 C 0.18922 0.31722 0.50268 0.0
C1563 C 0.17583 0.31593 0.52217 0.0
C1564 C 0.19231 0.32082 0.69821 0.0
C1565 C 0.0416 0.33274 0.55871 0.0
C1566 C 0.97879 0.40897 0.07698 0.0
C1567 C 0.99518 0.39985 0.07835 0.0
C1568 C 0.97723 0.423 0.09662 0.0
C1569 C 0.99191 0.42808 0.11812 0.0
H1570 H 0.96797 0.40622 0.06037 0.0
H1571 H 0.96518 0.43065 0.09471 0.0
S1572 S 0.03421 0.40432 0.13194 0.0
N1573 N 0.0241 0.3943 0.10364 0.0
N1574 N 0.02069 0.41998 0.1406 0.0
C1575 C 0.00707 0.41756 0.1201 0.0
C1576 C 0.00884 0.40362 0.10017 0.0
C1577 C 0.59811 0.56166 0.12858 0.0
C1578 C 0.58637 0.56697 0.10977 0.0
C1579 C 0.58516 0.54881 0.14774 0.0
C1580 C 0.56007 0.54092 0.14872 0.0
H1581 H 0.61759 0.56813 0.12889 0.0
H1582 H 0.59498 0.54568 0.16222 0.0
S1583 S 0.52004 0.54714 0.10252 0.0
N1584 N 0.54759 0.5612 0.09238 0.0
N1585 N 0.52342 0.53704 0.12823 0.0
C1586 C 0.54789 0.54508 0.12953 0.0
C1587 C 0.56099 0.5581 0.11009 0.0
C1588 C 0.43654 0.02333 0.09733 0.0
C1589 C 0.43204 0.00569 0.07806 0.0
C1590 C 0.4468 0.02247 0.11971 0.0
C1591 C 0.45301 0.00398 0.12365 0.0
H1592 H 0.43107 0.03721 0.09547 0.0
H1593 H 0.44884 0.03568 0.13432 0.0
S1594 S 0.44852 0.95595 0.07813 0.0
N1595 N 0.43701 0.97084 0.06376 0.0
N1596 N 0.45661 0.96952 0.1057 0.0
C1597 C 0.45001 0.98722 0.10416 0.0
C1598 C 0.43948 0.98802 0.0814 0.0
C1599 C 0.42379 0.97636 0.95271 0.0
C1600 C 0.41445 0.99243 0.9569 0.0
C1601 C 0.43553 0.97696 0.93184 0.0
C1602 C 0.43788 0.99332 0.91423 0.0
H1603 H 0.42293 0.964 0.96607 0.0
H1604 H 0.44352 0.96511 0.92991 0.0
S1605 S 0.4125 0.03604 0.9153 0.0
N1606 N 0.40617 0.02341 0.94107 0.0
N1607 N 0.42688 0.02363 0.90137 0.0
C1608 C 0.42719 0.00837 0.91774 0.0
C1609 C 0.41581 0.00814 0.93918 0.0
C1610 C 0.02426 0.40422 0.94068 0.0
C1611 C 0.02988 0.41519 0.96439 0.0
C1612 C 0.02374 0.41765 0.92152 0.0
C1613 C 0.02925 0.44263 0.92539 0.0
H1614 H 0.01902 0.38475 0.93696 0.0
H1615 H 0.01841 0.40826 0.90363 0.0
S1616 S 0.04691 0.48055 0.98377 0.0
N1617 N 0.04242 0.45297 0.99046 0.0
N1618 N 0.04165 0.4782 0.95443 0.0
C1619 C 0.03608 0.4542 0.94883 0.0
C1620 C 0.03635 0.44047 0.96834 0.0
C1621 C 0.57707 0.59549 0.98001 0.0
C1622 C 0.58225 0.58083 0.99488 0.0
C1623 C 0.56599 0.58626 0.95671 0.0
C1624 C 0.55967 0.56204 0.94748 0.0
H1625 H 0.58241 0.61458 0.98607 0.0
H1626 H 0.56323 0.59853 0.94554 0.0
S1627 S 0.56616 0.5149 0.98017 0.0
N1628 N 0.57807 0.54001 0.99941 0.0
N1629 N 0.557 0.52264 0.95571 0.0
C1630 C 0.56356 0.54673 0.96255 0.0
C1631 C 0.57489 0.55612 0.98623 0.0
C1632 C 0.98787 0.56992 0.97736 0.0
C1633 C 0.00768 0.58742 0.99332 0.0
C1634 C 0.99136 0.55655 0.95866 0.0
C1635 C 0.01475 0.55982 0.95533 0.0
H1636 H 0.96959 0.5671 0.97879 0.0
H1637 H 0.97567 0.54421 0.9462 0.0
S1638 S 0.07218 0.60137 0.99394 0.0
N1639 N 0.05124 0.60627 0.00563 0.0
N1640 N 0.05771 0.58039 0.97084 0.0
C1641 C 0.03458 0.57654 0.97177 0.0
C1642 C 0.03106 0.59049 0.99068 0.0
C1643 C 0.41525 0.4485 0.94724 0.0
C1644 C 0.412 0.42482 0.95125 0.0
C1645 C 0.42907 0.46199 0.92872 0.0
C1646 C 0.4399 0.45214 0.9135 0.0
H1647 H 0.40774 0.45698 0.95892 0.0
H1648 H 0.43188 0.48054 0.92675 0.0
S1649 S 0.43333 0.38916 0.91423 0.0
N1650 N 0.4186 0.39106 0.93704 0.0
N1651 N 0.4439 0.41602 0.90206 0.0
C1652 C 0.43563 0.42792 0.91664 0.0
C1653 C 0.42186 0.41437 0.93555 0.0
C1654 C 0.55798 0.97939 0.9764 0.0
C1655 C 0.57953 0.00118 0.98611 0.0
C1656 C 0.54646 0.97879 0.95416 0.0
C1657 C 0.55627 -0.00012 0.94079 0.0
H1658 H 0.54988 0.96278 0.98612 0.0
H1659 H 0.52971 0.96175 0.94743 0.0
S1660 S 0.61407 0.06044 0.95712 0.0
N1661 N 0.61109 0.04378 0.98003 0.0
N1662 N 0.59 0.04237 0.93806 0.0
C1663 C 0.57818 0.02153 0.95011 0.0
C1664 C 0.58967 0.02225 0.9728 0.0
C1665 C 0.56011 0.99979 0.10643 0.0
C1666 C 0.58593 0.0135 0.10698 0.0
C1667 C 0.54802 0.99829 0.12709 0.0
C1668 C 0.56124 0.01021 0.14926 0.0
H1669 H 0.54909 0.98977 0.08994 0.0
H1670 H 0.52809 0.98743 0.12571 0.0
S1671 S 0.62921 0.04857 0.16034 0.0
N1672 N 0.62442 0.03972 0.13141 0.0
N1673 N 0.60168 0.03641 0.17045 0.0
C1674 C 0.58708 0.0245 0.14998 0.0
C1675 C 0.59943 0.02624 0.12881 0.0
C1676 C 0.00581 0.59823 0.11827 0.0
C1677 C 0.98559 0.58905 0.10115 0.0
C1678 C 0.0058 0.58409 0.13688 0.0
C1679 C 0.98566 0.56004 0.13903 0.0
H1680 H 0.02203 0.61641 0.11714 0.0
H1681 H 0.02193 0.59195 0.14949 0.0
S1682 S 0.92788 0.52755 0.09906 0.0
N1683 N 0.94449 0.55477 0.0879 0.0
N1684 N 0.94466 0.5278 0.12265 0.0
C1685 C 0.96496 0.55088 0.12244 0.0
C1686 C 0.96489 0.56547 0.10354 0.0
C1687 C 0.42196 0.39925 0.08612 0.0
C1688 C 0.42448 0.41533 0.06833 0.0
C1689 C 0.43392 0.40882 0.10905 0.0
C1690 C 0.44917 0.43481 0.11493 0.0
H1691 H 0.40966 0.37919 0.0827 0.0
H1692 H 0.43026 0.39577 0.12253 0.0
S1693 S 0.46508 0.48442 0.07329 0.0
N1694 N 0.44514 0.45817 0.05721 0.0
N1695 N 0.4686 0.47618 0.10001 0.0
C1696 C 0.45312 0.45095 0.09675 0.0
C1697 C 0.44054 0.4412 0.07352 0.0
C1698 C 0.63688 0.73147 0.42011 0.0
C1699 C 0.65447 0.74404 0.40377 0.0
C1700 C 0.63431 0.74468 0.43969 0.0
C1701 C 0.64917 0.77091 0.44355 0.0
H1702 H 0.62587 0.71118 0.41849 0.0
H1703 H 0.62156 0.73416 0.4526 0.0
S1704 S 0.69491 0.81298 0.40384 0.0
N1705 N 0.68487 0.78446 0.39118 0.0
N1706 N 0.67981 0.80924 0.42796 0.0
C1707 C 0.66556 0.78384 0.42646 0.0
C1708 C 0.66825 0.77041 0.40656 0.0
C1709 C 0.2615 0.89493 0.46006 0.0
C1710 C 0.24976 0.90093 0.44182 0.0
C1711 C 0.24865 0.8817 0.47912 0.0
C1712 C 0.22367 0.8741 0.48057 0.0
H1713 H 0.28087 0.90102 0.45996 0.0
H1714 H 0.25846 0.87796 0.49312 0.0
S1715 S 0.18367 0.88221 0.43589 0.0
N1716 N 0.21109 0.89623 0.42546 0.0
N1717 N 0.18713 0.87136 0.4611 0.0
C1718 C 0.21152 0.87907 0.46197 0.0
C1719 C 0.22451 0.89248 0.44265 0.0
C1720 C 0.08134 0.34488 0.4371 0.0
C1721 C 0.09291 0.34609 0.41596 0.0
C1722 C 0.09202 0.34438 0.45933 0.0
C1723 C 0.11486 0.34557 0.46132 0.0
H1724 H 0.06339 0.34323 0.43641 0.0
H1725 H 0.08211 0.34257 0.47505 0.0
S1726 S 0.15367 0.35082 0.41194 0.0
N1727 N 0.12915 0.3497 0.39871 0.0
N1728 N 0.14939 0.3493 0.44073 0.0
C1729 C 0.12721 0.34795 0.44061 0.0
C1730 C 0.11618 0.34807 0.41786 0.0
C1731 C 0.09001 0.30585 0.28676 0.0
C1732 C 0.07266 0.3138 0.28691 0.0
C1733 C 0.10209 0.3064 0.26623 0.0
C1734 C 0.09756 0.31526 0.24516 0.0
H1735 H 0.09475 0.29968 0.30281 0.0
H1736 H 0.11578 0.30072 0.26715 0.0
S1737 S 0.0529 0.3369 0.2356 0.0
N1738 N 0.05073 0.32969 0.26361 0.0
N1739 N 0.07364 0.3309 0.22521 0.0
C1740 C 0.07976 0.32257 0.2448 0.0
C1741 C 0.06724 0.32175 0.2656 0.0
C1742 C 0.67001 0.73336 0.27714 0.0
C1743 C 0.68599 0.74404 0.29806 0.0
C1744 C 0.67135 0.74789 0.25838 0.0
C1745 C 0.68852 0.77376 0.25992 0.0
H1746 H 0.65603 0.71365 0.27538 0.0
H1747 H 0.6585 0.73884 0.24269 0.0
S1748 S 0.73447 0.8108 0.31107 0.0
N1749 N 0.71986 0.78188 0.31916 0.0
N1750 N 0.72196 0.80946 0.28416 0.0
C1751 C 0.70505 0.78459 0.28054 0.0
C1752 C 0.70387 0.76966 0.29956 0.0
C1753 C 0.23626 0.92878 0.31323 0.0
C1754 C 0.24068 0.9134 0.32781 0.0
C1755 C 0.22476 0.91996 0.29004 0.0
C1756 C 0.21725 0.89546 0.28066 0.0
H1757 H 0.24274 0.94814 0.31933 0.0
H1758 H 0.22284 0.93279 0.27897 0.0
S1759 S 0.22079 0.84645 0.31281 0.0
N1760 N 0.23404 0.87157 0.33212 0.0
N1761 N 0.21223 0.85502 0.28855 0.0
C1762 C 0.22007 0.87939 0.29556 0.0
C1763 C 0.23182 0.88836 0.31914 0.0
C1764 C 0.69631 0.94068 0.30729 0.0
C1765 C 0.68211 0.92813 0.32591 0.0
C1766 C 0.6996 0.9274 0.28826 0.0
C1767 C 0.68912 0.90119 0.28741 0.0
H1768 H 0.70391 0.9607 0.30682 0.0
H1769 H 0.70944 0.93762 0.27357 0.0
S1770 S 0.65408 0.86043 0.33413 0.0
N1771 N 0.65979 0.88864 0.34383 0.0
N1772 N 0.66669 0.86375 0.30846 0.0
C1773 C 0.6763 0.88874 0.3068 0.0
C1774 C 0.67262 0.9022 0.32597 0.0
C1775 C 0.06525 0.76636 0.26416 0.0
C1776 C 0.07704 0.76839 0.28673 0.0
C1777 C 0.0788 0.77948 0.24538 0.0
C1778 C 0.10456 0.79517 0.24859 0.0
H1779 H 0.0456 0.75374 0.26067 0.0
H1780 H 0.06915 0.77659 0.228 0.0
S1781 S 0.14353 0.81007 0.3054 0.0
N1782 N 0.11557 0.78933 0.31192 0.0
N1783 N 0.14082 0.81433 0.27691 0.0
C1784 C 0.11629 0.79848 0.27149 0.0
C1785 C 0.10258 0.78501 0.29048 0.0
C1786 C 0.21909 0.32529 0.31671 0.0
C1787 C 0.23424 0.31474 0.31859 0.0
C1788 C 0.20745 0.32472 0.2946 0.0
C1789 C 0.21085 0.31392 0.27349 0.0
H1790 H 0.21663 0.33454 0.33235 0.0
H1791 H 0.19616 0.33333 0.29395 0.0
S1792 S 0.2495 0.28453 0.26877 0.0
N1793 N 0.25193 0.29302 0.29755 0.0
N1794 N 0.23095 0.29286 0.25594 0.0
C1795 C 0.22565 0.30292 0.27525 0.0
C1796 C 0.23713 0.30312 0.29781 0.0
C1797 C 0.23949 0.31707 0.45192 0.0
C1798 C 0.25105 0.3381 0.43864 0.0
C1799 C 0.22771 0.3175 0.47229 0.0
C1800 C 0.2268 0.33893 0.48021 0.0
H1801 H 0.23951 0.30001 0.44656 0.0
H1802 H 0.21916 0.30083 0.4819 0.0
S1803 S 0.25366 0.3988 0.45151 0.0
N1804 N 0.26086 0.38102 0.43485 0.0
N1805 N 0.23816 0.38167 0.47292 0.0
C1806 C 0.23843 0.36021 0.46724 0.0
C1807 C 0.25065 0.35982 0.44651 0.0
C1808 C 0.63813 0.91731 0.4484 0.0
C1809 C 0.65099 0.91752 0.42856 0.0
C1810 C 0.63637 0.90262 0.46727 0.0
C1811 C 0.6472 0.88751 0.46672 0.0
H1812 H 0.63028 0.92934 0.44982 0.0
H1813 H 0.62725 0.90379 0.48275 0.0
S1814 S 0.67902 0.87823 0.41666 0.0
N1815 N 0.67235 0.89942 0.4082 0.0
N1816 N 0.66837 0.87125 0.44318 0.0
C1817 C 0.65874 0.88644 0.44622 0.0
C1818 C 0.66081 0.9016 0.42726 0.0
C1819 C 0.08112 0.73087 0.41897 0.0
C1820 C 0.08496 0.74713 0.40102 0.0
C1821 C 0.09348 0.74005 0.4418 0.0
C1822 C 0.1104 0.76578 0.44737 0.0
H1823 H 0.06768 0.71105 0.41569 0.0
H1824 H 0.08897 0.72701 0.45543 0.0
S1825 S 0.12983 0.81541 0.40528 0.0
N1826 N 0.10845 0.78968 0.38946 0.0
N1827 N 0.13248 0.80686 0.43209 0.0
C1828 C 0.11546 0.78198 0.42907 0.0
C1829 C 0.10255 0.77268 0.40596 0.0
C1830 C 0.30611 0.06265 0.75671 0.0
C1831 C 0.32374 0.07485 0.74033 0.0
C1832 C 0.30347 0.07624 0.77589 0.0
C1833 C 0.31825 0.10251 0.77924 0.0
H1834 H 0.29499 0.04237 0.75533 0.0
H1835 H 0.29061 0.066 0.78883 0.0
S1836 S 0.36431 0.14361 0.73922 0.0
N1837 N 0.35434 0.11487 0.72723 0.0
N1838 N 0.34906 0.14042 0.76314 0.0
C1839 C 0.33485 0.11504 0.76216 0.0
C1840 C 0.33767 0.1012 0.74272 0.0
C1841 C 0.90829 0.21191 0.77777 0.0
C1842 C 0.93103 0.23433 0.78251 0.0
C1843 C 0.89456 0.19895 0.79639 0.0
C1844 C 0.90285 0.20829 0.82035 0.0
H1845 H 0.90084 0.20455 0.75949 0.0
H1846 H 0.87692 0.18199 0.79201 0.0
S1847 S 0.96122 0.26578 0.84243 0.0
N1848 N 0.96157 0.26483 0.81301 0.0
N1849 N 0.93526 0.24073 0.84804 0.0
C1850 C 0.9257 0.23036 0.82542 0.0
C1851 C 0.93996 0.24331 0.80647 0.0
C1852 C 0.77251 0.66114 0.75106 0.0
C1853 C 0.76804 0.68054 0.74576 0.0
C1854 C 0.78301 0.66106 0.77357 0.0
C1855 C 0.78956 0.68044 0.79166 0.0
H1856 H 0.76699 0.64532 0.73805 0.0
H1857 H 0.7854 0.64534 0.77708 0.0
S1858 S 0.78321 0.73645 0.78656 0.0
N1859 N 0.77237 0.72046 0.76013 0.0
N1860 N 0.79187 0.72013 0.80248 0.0
C1861 C 0.78632 0.70057 0.78627 0.0
C1862 C 0.77562 0.70067 0.76332 0.0
C1863 C 0.75094 0.64128 0.6176 0.0
C1864 C 0.74531 0.66018 0.62297 0.0
C1865 C 0.76258 0.64109 0.59686 0.0
C1866 C 0.76873 0.65965 0.58069 0.0
H1867 H 0.74728 0.62718 0.62997 0.0
H1868 H 0.76761 0.62688 0.59393 0.0
S1869 S 0.75397 0.71062 0.58471 0.0
N1870 N 0.74433 0.69628 0.60926 0.0
N1871 N 0.76544 0.6955 0.57014 0.0
C1872 C 0.76178 0.6777 0.58524 0.0
C1873 C 0.75027 0.67806 0.6064 0.0
C1874 C 0.36502 0.08397 0.61897 0.0
C1875 C 0.34597 0.07712 0.63423 0.0
C1876 C 0.36706 0.09846 0.59985 0.0
C1877 C 0.35018 0.10663 0.59544 0.0
H1878 H 0.37812 0.07768 0.62152 0.0
H1879 H 0.38164 0.10287 0.58816 0.0
S1880 S 0.29901 0.09653 0.63207 0.0
N1881 N 0.31115 0.08134 0.64478 0.0
N1882 N 0.31531 0.10886 0.60922 0.0
C1883 C 0.33165 0.10069 0.61112 0.0
C1884 C 0.32947 0.08586 0.63042 0.0
C1885 C 0.91908 0.26778 0.64642 0.0
C1886 C 0.92146 0.25153 0.66152 0.0
C1887 C 0.90818 0.25939 0.62292 0.0
C1888 C 0.89936 0.2345 0.61376 0.0
H1889 H 0.92643 0.28732 0.65251 0.0
H1890 H 0.9075 0.27267 0.61156 0.0
S1891 S 0.89814 0.18369 0.64682 0.0
N1892 N 0.91191 0.20874 0.66617 0.0
N1893 N 0.89144 0.19314 0.62213 0.0
C1894 C 0.90048 0.2178 0.629 0.0
C1895 C 0.91152 0.22627 0.65286 0.0
C1896 C 0.36059 0.27065 0.64033 0.0
C1897 C 0.34543 0.25773 0.65824 0.0
C1898 C 0.36469 0.25776 0.62156 0.0
C1899 C 0.35413 0.23151 0.62028 0.0
H1900 H 0.36849 0.29075 0.64022 0.0
H1901 H 0.37539 0.26836 0.60745 0.0
S1902 S 0.31606 0.18961 0.66496 0.0
N1903 N 0.32157 0.2177 0.67486 0.0
N1904 N 0.33012 0.1935 0.64012 0.0
C1905 C 0.34007 0.21859 0.63889 0.0
C1906 C 0.33552 0.23169 0.65775 0.0
C1907 C 0.76047 0.0869 0.6038 0.0
C1908 C 0.74776 0.09521 0.61809 0.0
C1909 C 0.77499 0.10128 0.58623 0.0
C1910 C 0.77767 0.12475 0.58224 0.0
H1911 H 0.75922 0.06906 0.60617 0.0
H1912 H 0.7842 0.09387 0.57563 0.0
S1913 S 0.74874 0.15543 0.61518 0.0
N1914 N 0.73878 0.12848 0.62708 0.0
N1915 N 0.76659 0.15585 0.59439 0.0
C1916 C 0.76494 0.13327 0.59629 0.0
C1917 C 0.74991 0.11846 0.61412 0.0
C1918 C 0.8963 0.63806 0.63472 0.0
C1919 C 0.89779 0.65367 0.65462 0.0
C1920 C 0.88532 0.63811 0.61249 0.0
C1921 C 0.87524 0.65362 0.60937 0.0
H1922 H 0.90482 0.62666 0.63594 0.0
H1923 H 0.88586 0.62684 0.59738 0.0
S1924 S 0.87063 0.69469 0.65683 0.0
N1925 N 0.88582 0.68293 0.67047 0.0
N1926 N 0.8646 0.68253 0.62879 0.0
C1927 C 0.87508 0.668 0.62953 0.0
C1928 C 0.88647 0.66812 0.65213 0.0
C1929 C 0.90796 0.65303 0.78791 0.0
C1930 C 0.91891 0.67396 0.77444 0.0
C1931 C 0.89679 0.65351 0.80872 0.0
C1932 C 0.89585 0.67486 0.81688 0.0
H1933 H 0.90789 0.63598 0.78229 0.0
H1934 H 0.88859 0.63686 0.81839 0.0
S1935 S 0.92161 0.73459 0.78799 0.0
N1936 N 0.92845 0.71681 0.77086 0.0
N1937 N 0.90681 0.71753 0.80973 0.0
C1938 C 0.90707 0.69611 0.8038 0.0
C1939 C 0.91872 0.6957 0.78264 0.0
C1940 C 0.3277 0.23644 0.7631 0.0
C1941 C 0.3154 0.25009 0.76279 0.0
C1942 C 0.32657 0.22237 0.78218 0.0
C1943 C 0.31344 0.2217 0.802 0.0
H1944 H 0.33847 0.23676 0.7485 0.0
H1945 H 0.33632 0.21213 0.7815 0.0
S1946 S 0.27832 0.25459 0.80999 0.0
N1947 N 0.28937 0.26189 0.78365 0.0
N1948 N 0.2879 0.23611 0.8201 0.0
C1949 C 0.30068 0.23496 0.80174 0.0
C1950 C 0.30153 0.24902 0.78202 0.0
C1951 C 0.77562 0.10366 0.737 0.0
C1952 C 0.75741 0.0783 0.73209 0.0
C1953 C 0.78755 0.11307 0.76001 0.0
C1954 C 0.78134 0.09752 0.77899 0.0
H1955 H 0.7804 0.11639 0.72305 0.0
H1956 H 0.80138 0.13277 0.76308 0.0
S1957 S 0.73339 0.0301 0.77567 0.0
N1958 N 0.73325 0.03792 0.74805 0.0
N1959 N 0.75489 0.05575 0.79143 0.0
C1960 C 0.76317 0.07208 0.77421 0.0
C1961 C 0.75138 0.06243 0.75072 0.0
C1962 C 0.0475 0.33642 0.07805 0.0
C1963 C 0.05689 0.35156 0.05895 0.0
C1964 C 0.06295 0.33318 0.09434 0.0
C1965 C 0.08838 0.34507 0.09222 0.0
H1966 H 0.02808 0.32731 0.08077 0.0
H1967 H 0.05501 0.32174 0.109 0.0
S1968 S 0.12198 0.38476 0.04429 0.0
N1969 N 0.09313 0.37733 0.0381 0.0
N1970 N 0.12214 0.37104 0.06867 0.0
C1971 C 0.09795 0.35962 0.07283 0.0
C1972 C 0.08222 0.36291 0.0562 0.0
C1973 C 0.6341 0.69545 0.09005 0.0
C1974 C 0.64537 0.68185 0.09705 0.0
C1975 C 0.64003 0.71819 0.10253 0.0
C1976 C 0.65748 0.72824 0.12244 0.0
H1977 H 0.62063 0.68855 0.07475 0.0
H1978 H 0.63108 0.72816 0.09635 0.0
S1979 S 0.69169 0.69977 0.14866 0.0
N1980 N 0.67455 0.67995 0.12558 0.0
N1981 N 0.68552 0.72274 0.14906 0.0
C1982 C 0.66884 0.71488 0.12974 0.0
C1983 C 0.66279 0.69165 0.11706 0.0
C1984 C 0.31581 0.96238 0.07332 0.0
C1985 C 0.3199 0.95213 0.05225 0.0
C1986 C 0.29478 0.94859 0.08542 0.0
C1987 C 0.27688 0.92392 0.07702 0.0
H1988 H 0.32905 0.98127 0.08072 0.0
H1989 H 0.29273 0.95723 0.10176 0.0
S1990 S 0.2781 0.8885 0.02226 0.0
N1991 N 0.3039 0.91584 0.02321 0.0
N1992 N 0.26415 0.88991 0.04596 0.0
C1993 C 0.28054 0.91339 0.0559 0.0
C1994 C 0.30206 0.9275 0.0435 0.0
C1995 C 0.34588 0.03835 0.97421 0.0
C1996 C 0.36259 0.0467 0.99468 0.0
C1997 C 0.33873 0.05409 0.96402 0.0
C1998 C 0.34788 0.0788 0.97395 0.0
H1999 H 0.33855 0.01961 0.96565 0.0
H2000 H 0.32639 0.04701 0.94785 0.0
S2001 S 0.39065 0.10922 0.02856 0.0
N2002 N 0.38731 0.08098 0.02516 0.0
N2003 N 0.37347 0.11047 0.0062 0.0
C2004 C 0.36417 0.08725 0.99474 0.0
C2005 C 0.3716 0.07123 0.00507 0.0
C2006 C 0.93482 0.30029 0.96964 0.0
C2007 C 0.95247 0.30008 0.98564 0.0
C2008 C 0.91666 0.2782 0.95659 0.0
C2009 C 0.91527 0.25505 0.95934 0.0
H2010 H 0.93534 0.31772 0.96678 0.0
H2011 H 0.90372 0.27933 0.94409 0.0
S2012 S 0.95595 0.24429 1.0008 0.0
N2013 N 0.96697 0.27483 0.00437 0.0
N2014 N 0.93223 0.23313 0.98061 0.0
C2015 C 0.93254 0.25456 0.97574 0.0
C2016 C 0.95126 0.27712 0.98872 0.0
C2017 C 0.69593 0.64901 0.0064 0.0
C2018 C 0.69064 0.6331 0.025 0.0
C2019 C 0.71578 0.65477 0.99269 0.0
C2020 C 0.7313 0.64499 0.99704 0.0
H2021 H 0.68437 0.65678 0.00199 0.0
H2022 H 0.7186 0.66653 0.97816 0.0
S2023 S 0.72671 0.60401 0.04483 0.0
N2024 N 0.70325 0.60852 0.04776 0.0
N2025 N 0.74097 0.61978 0.02222 0.0
C2026 C 0.72664 0.62954 0.01596 0.0
C2027 C 0.70626 0.62352 0.02989 0.0
C2028 C 0.94903 0.64491 0.97509 0.0
C2029 C 0.94674 0.64441 0.99991 0.0
C2030 C 0.93406 0.64996 0.9599 0.0
C2031 C 0.91669 0.65525 0.96909 0.0
H2032 H 0.96237 0.64117 0.96727 0.0
H2033 H 0.93629 0.65004 0.9409 0.0
S2034 S 0.90347 0.65644 0.03261 0.0
N2035 N 0.92555 0.64948 0.03288 0.0
N2036 N 0.89776 0.65947 0.00439 0.0
C2037 C 0.91422 0.65488 0.99383 0.0
C2038 C 0.92915 0.64931 0.00924 0.0
C2039 C 0.3485 0.29508 0.98111 0.0
C2040 C 0.3502 0.31524 0.9692 0.0
C2041 C 0.34093 0.27189 0.96858 0.0
C2042 C 0.33532 0.26833 0.94371 0.0
H2043 H 0.35305 0.29724 1.00024 0.0
H2044 H 0.34011 0.25685 0.97829 0.0
S2045 S 0.33714 0.3151 0.90415 0.0
N2046 N 0.34545 0.33006 0.93118 0.0
N2047 N 0.3319 0.28652 0.90754 0.0
C2048 C 0.33688 0.28823 0.93157 0.0
C2049 C 0.34411 0.3117 0.94438 0.0
C2050 C 0.69366 0.03588 0.00152 0.0
C2051 C 0.68388 0.04831 0.01474 0.0
C2052 C 0.71253 0.04865 0.98662 0.0
C2053 C 0.72222 0.07431 0.9842 0.0
H2054 H 0.68635 0.01594 0.00228 0.0
H2055 H 0.71906 0.03818 0.97635 0.0
S2056 S 0.70443 0.11603 0.01608 0.0
N2057 N 0.68627 0.08812 0.02535 0.0
N2058 N 0.72185 0.11216 0.99727 0.0
C2059 C 0.71321 0.0872 0.99783 0.0
C2060 C 0.69406 0.07421 0.01317 0.0
C2061 C 0.62707 0.93048 0.06896 0.0
C2062 C 0.63901 0.95598 0.07747 0.0
C2063 C 0.6337 0.91411 0.07876 0.0
C2064 C 0.65268 0.92277 0.09719 0.0
H2065 H 0.61239 0.92304 0.05473 0.0
H2066 H 0.62395 0.89456 0.07188 0.0
S2067 S 0.68907 0.98741 0.12656 0.0
N2068 N 0.67044 0.98888 0.10594 0.0
N2069 N 0.68272 0.95803 0.12421 0.0
C2070 C 0.66474 0.94813 0.10589 0.0
C2071 C 0.65795 0.96476 0.09607 0.0
C2072 C 0.03883 0.70705 0.09928 0.0
C2073 C 0.04187 0.70201 0.07534 0.0
C2074 C 0.05602 0.7295 0.1125 0.0
C2075 C 0.07645 0.74782 0.10202 0.0
H2076 H 0.02345 0.69324 0.10813 0.0
H2077 H 0.05345 0.73248 0.13107 0.0
S2078 S 0.09239 0.7445 0.03985 0.0
N2079 N 0.06671 0.71758 0.04161 0.0
N2080 N 0.09869 0.76008 0.06643 0.0
C2081 C 0.07941 0.74341 0.078 0.0
C2082 C 0.06218 0.7204 0.06464 0.0
C2083 C 0.30474 0.38451 0.04746 0.0
C2084 C 0.31217 0.36686 0.04276 0.0
C2085 C 0.28564 0.37946 0.06225 0.0
C2086 C 0.27311 0.35647 0.07257 0.0
H2087 H 0.31416 0.40259 0.04022 0.0
H2088 H 0.2807 0.39369 0.06572 0.0
S2089 S 0.28502 0.30371 0.0654 0.0
N2090 N 0.30493 0.32514 0.0492 0.0
N2091 N 0.26938 0.31592 0.07695 0.0
C2092 C 0.28002 0.33851 0.06759 0.0
C2093 C 0.29945 0.34363 0.0527 0.0
C2094 C 0.73624 0.68403 0.39235 0.0
C2095 C 0.72045 0.69145 0.40195 0.0
C2096 C 0.75143 0.67906 0.40729 0.0
C2097 C 0.75165 0.68174 0.43233 0.0
H2098 H 0.7366 0.68166 0.37316 0.0
H2099 H 0.7633 0.67331 0.39921 0.0
S2100 S 0.71439 0.70137 0.46648 0.0
N2101 N 0.70626 0.70157 0.43816 0.0
N2102 N 0.73516 0.69259 0.46612 0.0
C2103 C 0.73628 0.6895 0.44218 0.0
C2104 C 0.72056 0.69423 0.42701 0.0
C2105 C 0.32643 0.02452 0.44624 0.0
C2106 C 0.31223 0.01715 0.42411 0.0
C2107 C 0.33348 0.04762 0.45883 0.0
C2108 C 0.32655 0.06407 0.4497 0.0
H2109 H 0.33175 0.01218 0.45414 0.0
H2110 H 0.34389 0.05236 0.47607 0.0
S2111 S 0.29198 0.05509 0.39135 0.0
N2112 N 0.29315 0.02914 0.39283 0.0
N2113 N 0.30664 0.07256 0.41642 0.0
C2114 C 0.31316 0.05736 0.42724 0.0
C2115 C 0.30593 0.0339 0.41446 0.0
C2116 C 0.98636 0.2575 0.39236 0.0
C2117 C 0.9845 0.27078 0.37355 0.0
C2118 C 0.96661 0.24428 0.40631 0.0
C2119 C 0.94423 0.24384 0.40201 0.0
H2120 H 0.00359 0.25829 0.39713 0.0
H2121 H 0.96929 0.23533 0.42128 0.0
S2122 S 0.92858 0.27238 0.35282 0.0
N2123 N 0.95751 0.28044 0.34987 0.0
N2124 N 0.9204 0.25542 0.376 0.0
C2125 C 0.9416 0.25573 0.38239 0.0
C2126 C 0.9617 0.26918 0.36816 0.0
C2127 C 0.02792 0.39537 0.34021 0.0
C2128 C 0.04725 0.39194 0.33321 0.0
C2129 C 0.02227 0.41179 0.32905 0.0
C2130 C 0.03574 0.4254 0.31048 0.0
H2131 H 0.01648 0.38464 0.35387 0.0
H2132 H 0.00682 0.41333 0.33457 0.0
S2133 S 0.08841 0.4236 0.28571 0.0
N2134 N 0.08037 0.40417 0.30698 0.0
N2135 N 0.06951 0.43476 0.28581 0.0
C2136 C 0.05569 0.42289 0.30389 0.0
C2137 C 0.06152 0.40624 0.31532 0.0
C2138 C 0.62657 0.62109 0.3057 0.0
C2139 C 0.62079 0.63072 0.32607 0.0
C2140 C 0.6086 0.59922 0.29218 0.0
C2141 C 0.58426 0.58627 0.29859 0.0
H2142 H 0.64491 0.63094 0.29967 0.0
H2143 H 0.61357 0.59287 0.27618 0.0
S2144 S 0.56044 0.60154 0.35214 0.0
N2145 N 0.5895 0.62421 0.35319 0.0
N2146 N 0.55586 0.58295 0.32793 0.0
C2147 C 0.57853 0.59495 0.31955 0.0
C2148 C 0.59677 0.61721 0.33326 0.0
C2149 C 0.36646 0.95248 0.35895 0.0
C2150 C 0.34932 0.95942 0.35132 0.0
C2151 C 0.38637 0.95702 0.34552 0.0
C2152 C 0.38976 0.96863 0.32402 0.0
H2153 H 0.36469 0.9438 0.37556 0.0
H2154 H 0.3994 0.95178 0.35218 0.0
S2155 S 0.34852 0.98769 0.29476 0.0
N2156 N 0.33618 0.97684 0.31988 0.0
N2157 N 0.37324 0.98497 0.29471 0.0
C2158 C 0.37235 0.97493 0.31586 0.0
C2159 C 0.35223 0.97043 0.32948 0.0
C2160 C 0.59637 0.97903 0.34026 0.0
C2161 C 0.61647 0.97814 0.33151 0.0
C2162 C 0.58073 0.98332 0.3252 0.0
C2163 C 0.5844 0.98634 0.30081 0.0
H2164 H 0.5929 0.97677 0.35893 0.0
H2165 H 0.56549 0.98402 0.3326 0.0
S2166 S 0.63364 0.98464 0.26884 0.0
N2167 N 0.6389 0.98024 0.29674 0.0
N2168 N 0.60907 0.98769 0.26845 0.0
C2169 C 0.60411 0.98508 0.29174 0.0
C2170 C 0.62029 0.98117 0.30711 0.0
C2171 C 0.04037 0.64441 0.30021 0.0
C2172 C 0.02367 0.65311 0.2982 0.0
C2173 C 0.03541 0.62193 0.28783 0.0
C2174 C 0.01346 0.60718 0.27317 0.0
H2175 H 0.05742 0.65498 0.3115 0.0
H2176 H 0.04865 0.61577 0.29014 0.0
S2177 S 0.96391 0.62172 0.26122 0.0
N2178 N 0.98443 0.64536 0.27989 0.0
N2179 N 0.97515 0.60296 0.25676 0.0
C2180 C 0.99666 0.61566 0.27081 0.0
C2181 C 0.00178 0.63869 0.28326 0.0
C2182 C 0.34213 0.37857 0.31799 0.0
C2183 C 0.34389 0.38209 0.34311 0.0
C2184 C 0.36212 0.39321 0.30495 0.0
C2185 C 0.38479 0.41172 0.31653 0.0
H2186 H 0.32516 0.36421 0.30824 0.0
H2187 H 0.35999 0.38962 0.28565 0.0
S2188 S 0.39901 0.42899 0.38184 0.0
N2189 N 0.36999 0.406 0.37906 0.0
N2190 N 0.40785 0.4334 0.35442 0.0
C2191 C 0.38683 0.41572 0.34159 0.0
C2192 C 0.36629 0.40099 0.35492 0.0
C2193 C 0.3312 0.2962 0.41766 0.0
C2194 C 0.30942 0.28543 0.40234 0.0
C2195 C 0.33888 0.28122 0.42871 0.0
C2196 C 0.32499 0.25495 0.42489 0.0
H2197 H 0.3421 0.31634 0.42171 0.0
H2198 H 0.35524 0.29022 0.44107 0.0
S2199 S 0.26808 0.2175 0.38453 0.0
N2200 N 0.27512 0.24685 0.38254 0.0
N2201 N 0.28966 0.21879 0.40334 0.0
C2202 C 0.30381 0.24397 0.40884 0.0
C2203 C 0.296 0.25919 0.39753 0.0
C2204 C 0.73252 0.05407 0.40533 0.0
C2205 C 0.71258 0.03494 0.41583 0.0
C2206 C 0.74961 0.0764 0.41878 0.0
C2207 C 0.74756 0.08011 0.44325 0.0
H2208 H 0.73496 0.05179 0.3866 0.0
H2209 H 0.76486 0.09065 0.41013 0.0
S2210 S 0.69902 0.03595 0.47933 0.0
N2211 N 0.69169 0.02134 0.45218 0.0
N2212 N 0.72434 0.06318 0.47753 0.0
C2213 C 0.72779 0.06125 0.454 0.0
C2214 C 0.71011 0.03869 0.44024 0.0
C2215 C 0.96509 0.68095 0.38471 0.0
C2216 C 0.97647 0.70334 0.37327 0.0
C2217 C 0.94618 0.67571 0.39962 0.0
C2218 C 0.93782 0.69266 0.40382 0.0
H2219 H 0.97113 0.66744 0.38253 0.0
H2220 H 0.9385 0.65852 0.40845 0.0
S2221 S 0.96001 0.75308 0.37684 0.0
N2222 N 0.97708 0.74207 0.36628 0.0
N2223 N 0.94129 0.73209 0.39417 0.0
C2224 C 0.94851 0.71482 0.392 0.0
C2225 C 0.96783 0.72016 0.37674 0.0
C2226 C 0.38581 0.02256 0.75733 0.0
C2227 C 0.38728 0.0221 0.73238 0.0
C2228 C 0.40194 0.01909 0.7725 0.0
C2229 C 0.41968 0.01449 0.76316 0.0
H2230 H 0.37225 0.02588 0.76526 0.0
H2231 H 0.40039 0.01979 0.79162 0.0
S2232 S 0.43114 0.01127 0.69936 0.0
N2233 N 0.40815 0.01689 0.69914 0.0
N2234 N 0.43807 0.00978 0.7277 0.0
C2235 C 0.42132 0.01386 0.73833 0.0
C2236 C 0.40522 0.01784 0.72291 0.0
C2237 C 0.96051 0.34775 0.77517 0.0
C2238 C 0.97778 0.34666 0.76106 0.0
C2239 C 0.96577 0.37029 0.78769 0.0
C2240 C 0.98828 0.39266 0.78612 0.0
H2241 H 0.94304 0.33097 0.77694 0.0
H2242 H 0.95211 0.37014 0.7988 0.0
S2243 S 0.03859 0.3998 0.74945 0.0
N2244 N 0.01778 0.36965 0.74537 0.0
N2245 N 0.02721 0.41236 0.76777 0.0
C2246 C 0.00546 0.39179 0.77155 0.0
C2247 C 0.0003 0.36871 0.75927 0.0
C2248 C 0.6376 0.59755 0.71152 0.0
C2249 C 0.65647 0.6208 0.72243 0.0
C2250 C 0.61635 0.58255 0.72317 0.0
C2251 C 0.61321 0.59041 0.74603 0.0
H2252 H 0.6391 0.59098 0.69378 0.0
H2253 H 0.60214 0.56489 0.71411 0.0
S2254 S 0.65795 0.64852 0.78325 0.0
N2255 N 0.67105 0.65015 0.75814 0.0
N2256 N 0.63133 0.62196 0.77981 0.0
C2257 C 0.63214 0.61327 0.75733 0.0
C2258 C 0.65371 0.62847 0.74559 0.0
C2259 C 0.71191 0.73754 0.65333 0.0
C2260 C 0.69546 0.71667 0.66485 0.0
C2261 C 0.70413 0.75249 0.6424 0.0
C2262 C 0.67973 0.74743 0.64304 0.0
H2263 H 0.73065 0.74175 0.65186 0.0
H2264 H 0.71718 0.76761 0.63268 0.0
S2265 S 0.63059 0.69675 0.67413 0.0
N2266 N 0.65435 0.69254 0.6779 0.0
N2267 N 0.63995 0.72142 0.65856 0.0
C2268 C 0.66347 0.72725 0.65565 0.0
C2269 C 0.67128 0.71169 0.66627 0.0
C2270 C 0.29128 0.95347 0.63528 0.0
C2271 C 0.28619 0.96168 0.657 0.0
C2272 C 0.27328 0.93165 0.62173 0.0
C2273 C 0.24961 0.91738 0.62943 0.0
H2274 H 0.30906 0.96436 0.62832 0.0
H2275 H 0.27764 0.92636 0.60476 0.0
S2276 S 0.22784 0.92875 0.68633 0.0
N2277 N 0.25634 0.95243 0.68653 0.0
N2278 N 0.22265 0.91137 0.66106 0.0
C2279 C 0.24462 0.92467 0.65159 0.0
C2280 C 0.26288 0.94684 0.66538 0.0
C2281 C 0.04837 0.31359 0.69853 0.0
C2282 C 0.02675 0.29 0.69603 0.0
C2283 C 0.06761 0.31905 0.68401 0.0
C2284 C 0.0657 0.30132 0.66598 0.0
H2285 H 0.05023 0.32811 0.71156 0.0
H2286 H 0.08393 0.33751 0.68663 0.0
S2287 S 0.01203 0.23704 0.65163 0.0
N2288 N 0.0043 0.24873 0.67449 0.0
N2289 N 0.03984 0.25923 0.64623 0.0
C2290 C 0.04415 0.27747 0.66354 0.0
C2291 C 0.02482 0.27177 0.67878 0.0
C2292 C 0.26202 0.31175 0.6702 0.0
C2293 C 0.28142 0.30923 0.66188 0.0
C2294 C 0.24759 0.3173 0.65476 0.0
C2295 C 0.25175 0.31995 0.63041 0.0
H2296 H 0.25829 0.30996 0.68884 0.0
H2297 H 0.23298 0.3194 0.66186 0.0
S2298 S 0.29932 0.31393 0.59949 0.0
N2299 N 0.30361 0.30926 0.62754 0.0
N2300 N 0.27597 0.31899 0.59853 0.0
C2301 C 0.27065 0.31692 0.62176 0.0
C2302 C 0.28564 0.31176 0.63751 0.0
C2303 C 0.66817 0.97376 0.61318 0.0
C2304 C 0.67818 0.97867 0.63709 0.0
C2305 C 0.66053 0.9506 0.60038 0.0
C2306 C 0.66211 0.93154 0.61134 0.0
H2307 H 0.66709 0.98819 0.60404 0.0
H2308 H 0.65378 0.94772 0.58173 0.0
S2309 S 0.68521 0.9342 0.6738 0.0
N2310 N 0.68824 0.96208 0.6714 0.0
N2311 N 0.67328 0.91843 0.64741 0.0
C2312 C 0.67117 0.93584 0.63539 0.0
C2313 C 0.67936 0.95947 0.64828 0.0
C2314 C 0.00764 0.71017 0.65135 0.0
C2315 C 0.00947 0.71427 0.67643 0.0
C2316 C 0.02765 0.72433 0.63814 0.0
C2317 C 0.05042 0.7429 0.6495 0.0
H2318 H 0.99056 0.69583 0.64176 0.0
H2319 H 0.02542 0.72039 0.61888 0.0
S2320 S 0.06495 0.76141 0.71461 0.0
N2321 N 0.03583 0.73867 0.7121 0.0
N2322 N 0.07371 0.76512 0.68713 0.0
C2323 C 0.05259 0.74737 0.67452 0.0
C2324 C 0.03202 0.73315 0.68801 0.0
C2325 C 0.99181 0.62613 0.74977 0.0
C2326 C 0.96953 0.61653 0.73543 0.0
C2327 C 0.99789 0.61019 0.76125 0.0
C2328 C 0.98186 0.58411 0.7589 0.0
H2329 H 0.00439 0.64617 0.75272 0.0
H2330 H 0.0148 0.61842 0.7728 0.0
S2331 S 0.92255 0.54922 0.72161 0.0
N2332 N 0.93226 0.57901 0.71814 0.0
N2333 N 0.94379 0.54913 0.73983 0.0
C2334 C 0.96006 0.57415 0.74386 0.0
C2335 C 0.95388 0.59034 0.73206 0.0
C2336 C 0.39555 0.38434 0.73631 0.0
C2337 C 0.3756 0.36533 0.74691 0.0
C2338 C 0.41269 0.40673 0.74964 0.0
C2339 C 0.41069 0.41059 0.77409 0.0
H2340 H 0.39796 0.3819 0.71759 0.0
H2341 H 0.42796 0.42089 0.74093 0.0
S2342 S 0.36218 0.36676 0.8104 0.0
N2343 N 0.35476 0.352 0.78331 0.0
N2344 N 0.38753 0.39394 0.80846 0.0
C2345 C 0.39091 0.39186 0.78493 0.0
C2346 C 0.37317 0.36925 0.77128 0.0
C2347 C 0.62922 0.04083 0.7021 0.0
C2348 C 0.65148 0.04378 0.71213 0.0
C2349 C 0.60993 0.03632 0.71645 0.0
C2350 C 0.61254 0.03523 0.74131 0.0
H2351 H 0.62644 0.04124 0.683 0.0
H2352 H 0.59285 0.03364 0.70808 0.0
S2353 S 0.6674 0.04273 0.7764 0.0
N2354 N 0.67512 0.04587 0.74858 0.0
N2355 N 0.6391 0.03785 0.77534 0.0
C2356 C 0.63487 0.03876 0.75157 0.0
C2357 C 0.65429 0.04293 0.73702 0.0
loop_
_geom_bond_atom_site_label_1
_geom_bond_atom_site_label_2
_geom_bond_distance
_geom_bond_site_symmetry_2
_ccdc_geom_bond_type
In0 O1 2.286 1_455 S
In0 O2 2.327 . S
In0 O6 2.258 1_455 S
In0 O7 2.328 1_454 S
In0 O8 2.270 1_554 S
In0 O9 2.317 1_454 S
In0 O11 2.306 . S
In0 O12 2.332 . S
O1 In0 2.286 1_655 S
O1 C10 1.251 . S
O2 In0 2.327 . S
O2 C10 1.232 1_455 S
C3 O6 1.252 1_556 S
C3 O7 1.260 . S
C4 O11 1.240 . S
C4 O12 1.252 . S
C5 O8 1.252 . S
C5 O9 1.260 1_455 S
O6 In0 2.258 1_655 S
O6 C3 1.252 1_554 S
O7 In0 2.328 1_656 S
O7 C3 1.260 . S
O8 In0 2.270 1_556 S
O8 C5 1.252 . S
O9 In0 2.317 1_656 S
O9 C5 1.260 1_655 S
C10 O1 1.251 . S
C10 O2 1.232 1_655 S
O11 In0 2.306 . S
O11 C4 1.240 . S
O12 In0 2.332 . S
O12 C4 1.252 . S
In13 O14 2.294 . S
In13 O15 2.326 . S
In13 O19 2.266 . S
In13 O20 2.326 . S
In13 O21 2.266 . S
In13 O22 2.326 . S
In13 O24 2.294 . S
In13 O25 2.326 . S
O14 In13 2.294 . S
O14 C23 1.240 . S
O15 In13 2.326 . S
O15 C23 1.252 . S
C16 O19 1.252 . S
C16 O20 1.260 . S
C17 O24 1.240 . S
C17 O25 1.252 . S
C18 O21 1.252 . S
C18 O22 1.260 . S
O19 In13 2.266 . S
O19 C16 1.252 . S
O20 In13 2.326 . S
O20 C16 1.260 . S
O21 In13 2.266 . S
O21 C18 1.252 . S
O22 In13 2.326 . S
O22 C18 1.260 . S
C23 O14 1.240 . S
C23 O15 1.252 . S
O24 In13 2.294 . S
O24 C17 1.240 . S
O25 In13 2.326 . S
O25 C17 1.252 . S
In26 O27 2.312 . S
In26 O28 2.336 1_554 S
In26 O32 2.270 . S
In26 O33 2.313 1_545 S
In26 O34 2.255 1_545 S
In26 O35 2.329 1_545 S
In26 O37 2.283 1_544 S
In26 O38 2.327 1_554 S
O27 In26 2.312 . S
O27 C36 1.240 1_554 S
O28 In26 2.336 1_556 S
O28 C36 1.252 . S
C29 O32 1.252 . S
C29 O33 1.260 1_545 S
C30 O37 1.240 . S
C30 O38 1.252 1_565 S
C31 O34 1.252 . S
C31 O35 1.260 . S
O32 In26 2.270 . S
O32 C29 1.252 . S
O33 In26 2.313 1_565 S
O33 C29 1.260 1_565 S
O34 In26 2.255 1_565 S
O34 C31 1.252 . S
O35 In26 2.329 1_565 S
O35 C31 1.260 . S
C36 O27 1.240 1_556 S
C36 O28 1.252 . S
O37 In26 2.283 1_566 S
O37 C30 1.240 . S
O38 In26 2.327 1_556 S
O38 C30 1.252 1_545 S
In39 O40 2.292 . S
In39 O41 2.326 1_455 S
In39 O45 2.265 . S
In39 O46 2.326 . S
In39 O47 2.267 1_455 S
In39 O48 2.324 . S
In39 O50 2.296 1_455 S
In39 O51 2.327 1_455 S
O40 In39 2.292 . S
O40 C49 1.268 . S
O41 In39 2.326 1_655 S
O41 C49 1.231 1_655 S
C42 O45 1.252 . S
C42 O46 1.260 . S
C43 O50 1.240 . S
C43 O51 1.252 . S
C44 O47 1.252 . S
C44 O48 1.260 1_655 S
O45 In39 2.265 . S
O45 C42 1.252 . S
O46 In39 2.326 . S
O46 C42 1.260 . S
O47 In39 2.267 1_655 S
O47 C44 1.252 . S
O48 In39 2.324 . S
O48 C44 1.260 1_455 S
C49 O40 1.268 . S
C49 O41 1.231 1_455 S
O50 In39 2.296 1_655 S
O50 C43 1.240 . S
O51 In39 2.327 1_655 S
O51 C43 1.252 . S
In52 O53 2.294 1_554 S
In52 O54 2.326 1_554 S
In52 O58 2.266 . S
In52 O59 2.326 . S
In52 O60 2.266 . S
In52 O61 2.326 . S
In52 O63 2.294 1_554 S
In52 O64 2.326 1_554 S
O53 In52 2.294 1_556 S
O53 C62 1.240 . S
O54 In52 2.326 1_556 S
O54 C62 1.252 . S
C55 O58 1.252 . S
C55 O59 1.260 . S
C56 O63 1.240 . S
C56 O64 1.252 . S
C57 O60 1.252 . S
C57 O61 1.260 . S
O58 In52 2.266 . S
O58 C55 1.252 . S
O59 In52 2.326 . S
O59 C55 1.260 . S
O60 In52 2.266 . S
O60 C57 1.252 . S
O61 In52 2.326 . S
O61 C57 1.260 . S
C62 O53 1.240 . S
C62 O54 1.252 . S
O63 In52 2.294 1_556 S
O63 C56 1.240 . S
O64 In52 2.326 1_556 S
O64 C56 1.252 . S
In65 O66 2.293 . S
In65 O67 2.326 1_545 S
In65 O71 2.265 . S
In65 O72 2.326 . S
In65 O73 2.267 1_545 S
In65 O74 2.324 . S
In65 O76 2.296 1_545 S
In65 O77 2.327 1_545 S
O66 In65 2.293 . S
O66 C75 1.240 . S
O67 In65 2.326 1_565 S
O67 C75 1.252 1_565 S
C68 O71 1.252 . S
C68 O72 1.260 . S
C69 O76 1.240 . S
C69 O77 1.252 . S
C70 O73 1.266 . S
C70 O74 1.283 1_565 S
O71 In65 2.265 . S
O71 C68 1.252 . S
O72 In65 2.326 . S
O72 C68 1.260 . S
O73 In65 2.267 1_565 S
O73 C70 1.266 . S
O74 In65 2.324 . S
O74 C70 1.283 1_545 S
C75 O66 1.240 . S
C75 O67 1.252 1_545 S
O76 In65 2.296 1_565 S
O76 C69 1.240 . S
O77 In65 2.327 1_565 S
O77 C69 1.252 . S
In78 O79 2.294 . S
In78 O80 2.326 . S
In78 O84 2.266 . S
In78 O85 2.326 . S
In78 O86 2.266 . S
In78 O87 2.326 . S
In78 O89 2.294 . S
In78 O90 2.326 . S
O79 In78 2.294 . S
O79 C88 1.240 . S
O80 In78 2.326 . S
O80 C88 1.252 . S
C81 O84 1.252 . S
C81 O85 1.260 . S
C82 O89 1.240 . S
C82 O90 1.252 . S
C83 O86 1.252 . S
C83 O87 1.260 . S
O84 In78 2.266 . S
O84 C81 1.252 . S
O85 In78 2.326 . S
O85 C81 1.260 . S
O86 In78 2.266 . S
O86 C83 1.252 . S
O87 In78 2.326 . S
O87 C83 1.260 . S
C88 O79 1.240 . S
C88 O80 1.252 . S
O89 In78 2.294 . S
O89 C82 1.240 . S
O90 In78 2.326 . S
O90 C82 1.252 . S
In91 O92 2.294 . S
In91 O93 2.326 . S
In91 O97 2.266 . S
In91 O98 2.326 . S
In91 O99 2.266 . S
In91 O100 2.326 . S
In91 O102 2.294 . S
In91 O103 2.326 . S
O92 In91 2.294 . S
O92 C101 1.240 . S
O93 In91 2.326 . S
O93 C101 1.252 . S
C94 O97 1.252 . S
C94 O98 1.260 . S
C95 O102 1.240 . S
C95 O103 1.252 . S
C96 O99 1.252 . S
C96 O100 1.260 . S
O97 In91 2.266 . S
O97 C94 1.252 . S
O98 In91 2.326 . S
O98 C94 1.260 . S
O99 In91 2.266 . S
O99 C96 1.252 . S
O100 In91 2.326 . S
O100 C96 1.260 . S
C101 O92 1.240 . S
C101 O93 1.252 . S
O102 In91 2.294 . S
O102 C95 1.240 . S
O103 In91 2.326 . S
O103 C95 1.252 . S
In104 O105 2.294 . S
In104 O106 2.326 . S
In104 O110 2.266 . S
In104 O111 2.326 . S
In104 O112 2.266 . S
In104 O113 2.326 . S
In104 O115 2.294 . S
In104 O116 2.326 . S
O105 In104 2.294 . S
O105 C114 1.240 . S
O106 In104 2.326 . S
O106 C114 1.252 . S
C107 O110 1.252 . S
C107 O111 1.260 . S
C108 O115 1.240 . S
C108 O116 1.252 . S
C109 O112 1.252 . S
C109 O113 1.260 . S
O110 In104 2.266 . S
O110 C107 1.252 . S
O111 In104 2.326 . S
O111 C107 1.260 . S
O112 In104 2.266 . S
O112 C109 1.252 . S
O113 In104 2.326 . S
O113 C109 1.260 . S
C114 O105 1.240 . S
C114 O106 1.252 . S
O115 In104 2.294 . S
O115 C108 1.240 . S
O116 In104 2.326 . S
O116 C108 1.252 . S
In117 O118 2.294 . S
In117 O119 2.326 . S
In117 O123 2.266 . S
In117 O124 2.326 . S
In117 O125 2.266 . S
In117 O126 2.326 . S
In117 O128 2.294 . S
In117 O129 2.326 . S
O118 In117 2.294 . S
O118 C127 1.240 . S
O119 In117 2.326 . S
O119 C127 1.252 . S
C120 O123 1.252 1_545 S
C120 O124 1.260 1_545 S
C121 O128 1.240 . S
C121 O129 1.252 . S
C122 O125 1.252 . S
C122 O126 1.260 . S
O123 In117 2.266 . S
O123 C120 1.252 1_565 S
O124 In117 2.326 . S
O124 C120 1.260 1_565 S
O125 In117 2.266 . S
O125 C122 1.252 . S
O126 In117 2.326 . S
O126 C122 1.260 . S
C127 O118 1.240 . S
C127 O119 1.252 . S
O128 In117 2.294 . S
O128 C121 1.240 . S
O129 In117 2.326 . S
O129 C121 1.252 . S
In130 O131 2.294 . S
In130 O132 2.326 . S
In130 O136 2.266 . S
In130 O137 2.326 . S
In130 O138 2.266 . S
In130 O139 2.326 . S
In130 O141 2.294 . S
In130 O142 2.326 . S
O131 In130 2.294 . S
O131 C140 1.240 . S
O132 In130 2.326 . S
O132 C140 1.252 . S
C133 O136 1.252 . S
C133 O137 1.260 . S
C134 O141 1.240 . S
C134 O142 1.252 . S
C135 O138 1.252 . S
C135 O139 1.260 . S
O136 In130 2.266 . S
O136 C133 1.252 . S
O137 In130 2.326 . S
O137 C133 1.260 . S
O138 In130 2.266 . S
O138 C135 1.252 . S
O139 In130 2.326 . S
O139 C135 1.260 . S
C140 O131 1.240 . S
C140 O132 1.252 . S
O141 In130 2.294 . S
O141 C134 1.240 . S
O142 In130 2.326 . S
O142 C134 1.252 . S
In143 O144 2.294 . S
In143 O145 2.326 . S
In143 O149 2.266 . S
In143 O150 2.326 . S
In143 O151 2.266 . S
In143 O152 2.326 . S
In143 O154 2.294 . S
In143 O155 2.326 . S
O144 In143 2.294 . S
O144 C153 1.240 . S
O145 In143 2.326 . S
O145 C153 1.252 . S
C146 O149 1.252 . S
C146 O150 1.260 . S
C147 O154 1.240 . S
C147 O155 1.252 . S
C148 O151 1.252 . S
C148 O152 1.260 . S
O149 In143 2.266 . S
O149 C146 1.252 . S
O150 In143 2.326 . S
O150 C146 1.260 . S
O151 In143 2.266 . S
O151 C148 1.252 . S
O152 In143 2.326 . S
O152 C148 1.260 . S
C153 O144 1.240 . S
C153 O145 1.252 . S
O154 In143 2.294 . S
O154 C147 1.240 . S
O155 In143 2.326 . S
O155 C147 1.252 . S
In156 O157 2.294 . S
In156 O158 2.326 . S
In156 O162 2.266 . S
In156 O163 2.326 . S
In156 O164 2.266 . S
In156 O165 2.326 . S
In156 O167 2.294 . S
In156 O168 2.326 . S
O157 In156 2.294 . S
O157 C166 1.240 . S
O158 In156 2.326 . S
O158 C166 1.252 . S
C159 O162 1.252 . S
C159 O163 1.260 . S
C160 O167 1.240 . S
C160 O168 1.252 . S
C161 O164 1.252 1_565 S
C161 O165 1.260 1_565 S
O162 In156 2.266 . S
O162 C159 1.252 . S
O163 In156 2.326 . S
O163 C159 1.260 . S
O164 In156 2.266 . S
O164 C161 1.252 1_545 S
O165 In156 2.326 . S
O165 C161 1.260 1_545 S
C166 O157 1.240 . S
C166 O158 1.252 . S
O167 In156 2.294 . S
O167 C160 1.240 . S
O168 In156 2.326 . S
O168 C160 1.252 . S
In169 O170 2.294 . S
In169 O171 2.326 . S
In169 O175 2.266 . S
In169 O176 2.326 . S
In169 O177 2.266 . S
In169 O178 2.326 . S
In169 O180 2.294 . S
In169 O181 2.326 . S
O170 In169 2.294 . S
O170 C179 1.240 . S
O171 In169 2.326 . S
O171 C179 1.252 . S
C172 O175 1.252 . S
C172 O176 1.260 . S
C173 O180 1.240 . S
C173 O181 1.252 . S
C174 O177 1.252 . S
C174 O178 1.260 . S
O175 In169 2.266 . S
O175 C172 1.252 . S
O176 In169 2.326 . S
O176 C172 1.260 . S
O177 In169 2.266 . S
O177 C174 1.252 . S
O178 In169 2.326 . S
O178 C174 1.260 . S
C179 O170 1.240 . S
C179 O171 1.252 . S
O180 In169 2.294 . S
O180 C173 1.240 . S
O181 In169 2.326 . S
O181 C173 1.252 . S
In182 O183 2.294 . S
In182 O184 2.326 . S
In182 O188 2.266 . S
In182 O189 2.326 . S
In182 O190 2.266 . S
In182 O191 2.326 . S
In182 O193 2.294 . S
In182 O194 2.326 . S
O183 In182 2.294 . S
O183 C192 1.240 . S
O184 In182 2.326 . S
O184 C192 1.252 . S
C185 O188 1.252 . S
C185 O189 1.260 . S
C186 O193 1.240 . S
C186 O194 1.252 . S
C187 O190 1.252 . S
C187 O191 1.260 . S
O188 In182 2.266 . S
O188 C185 1.252 . S
O189 In182 2.326 . S
O189 C185 1.260 . S
O190 In182 2.266 . S
O190 C187 1.252 . S
O191 In182 2.326 . S
O191 C187 1.260 . S
C192 O183 1.240 . S
C192 O184 1.252 . S
O193 In182 2.294 . S
O193 C186 1.240 . S
O194 In182 2.326 . S
O194 C186 1.252 . S
In195 O196 2.294 . S
In195 O197 2.326 . S
In195 O201 2.266 . S
In195 O202 2.326 . S
In195 O203 2.266 . S
In195 O204 2.326 . S
In195 O206 2.294 . S
In195 O207 2.326 . S
O196 In195 2.294 . S
O196 C205 1.240 . S
O197 In195 2.326 . S
O197 C205 1.252 . S
C198 O201 1.252 . S
C198 O202 1.260 . S
C199 O206 1.240 . S
C199 O207 1.252 . S
C200 O203 1.252 . S
C200 O204 1.260 . S
O201 In195 2.266 . S
O201 C198 1.252 . S
O202 In195 2.326 . S
O202 C198 1.260 . S
O203 In195 2.266 . S
O203 C200 1.252 . S
O204 In195 2.326 . S
O204 C200 1.260 . S
C205 O196 1.240 . S
C205 O197 1.252 . S
O206 In195 2.294 . S
O206 C199 1.240 . S
O207 In195 2.326 . S
O207 C199 1.252 . S
In208 O209 2.294 . S
In208 O210 2.326 . S
In208 O214 2.266 . S
In208 O215 2.326 . S
In208 O216 2.266 . S
In208 O217 2.326 . S
In208 O219 2.294 . S
In208 O220 2.326 . S
O209 In208 2.294 . S
O209 C218 1.240 . S
O210 In208 2.326 . S
O210 C218 1.252 . S
C211 O214 1.252 . S
C211 O215 1.260 . S
C212 O219 1.240 . S
C212 O220 1.252 . S
C213 O216 1.252 . S
C213 O217 1.260 . S
O214 In208 2.266 . S
O214 C211 1.252 . S
O215 In208 2.326 . S
O215 C211 1.260 . S
O216 In208 2.266 . S
O216 C213 1.252 . S
O217 In208 2.326 . S
O217 C213 1.260 . S
C218 O209 1.240 . S
C218 O210 1.252 . S
O219 In208 2.294 . S
O219 C212 1.240 . S
O220 In208 2.326 . S
O220 C212 1.252 . S
In221 O222 2.294 . S
In221 O223 2.326 . S
In221 O227 2.266 . S
In221 O228 2.326 . S
In221 O229 2.266 . S
In221 O230 2.326 . S
In221 O232 2.294 . S
In221 O233 2.326 . S
O222 In221 2.294 . S
O222 C231 1.240 . S
O223 In221 2.326 . S
O223 C231 1.252 . S
C224 O227 1.252 . S
C224 O228 1.260 . S
C225 O232 1.240 . S
C225 O233 1.252 . S
C226 O229 1.252 . S
C226 O230 1.260 . S
O227 In221 2.266 . S
O227 C224 1.252 . S
O228 In221 2.326 . S
O228 C224 1.260 . S
O229 In221 2.266 . S
O229 C226 1.252 . S
O230 In221 2.326 . S
O230 C226 1.260 . S
C231 O222 1.240 . S
C231 O223 1.252 . S
O232 In221 2.294 . S
O232 C225 1.240 . S
O233 In221 2.326 . S
O233 C225 1.252 . S
H234 O260 0.901 . S
H235 O263 0.854 . S
H236 C271 0.930 . S
H237 C272 0.930 . S
H238 C274 0.930 . S
H239 C275 0.930 . S
H240 C277 0.931 . S
H241 C278 0.930 . S
H242 C280 0.930 . S
H243 C281 0.929 . S
H244 C283 0.930 . S
H245 C284 0.931 . S
H246 C286 0.930 . S
H247 C287 0.929 . S
H248 C289 0.931 . S
H249 C290 0.930 . S
H250 C292 0.930 . S
H251 C293 0.932 . S
H252 C295 0.930 . S
H253 C296 0.929 . S
H254 C298 0.931 . S
H255 C299 0.930 . S
H256 C301 0.929 . S
H257 C302 0.931 . S
H258 C304 0.930 . S
H259 C305 0.929 . S
O260 H234 0.901 . S
O260 C306 1.300 . S
O261 C306 1.209 . S
O262 C307 1.199 . S
O263 H235 0.854 . S
O263 C307 1.297 . S
C264 C265 1.404 . S
C264 C269 1.397 . S
C264 C270 1.492 . S
C265 C264 1.404 . S
C265 C266 1.396 . S
C265 C276 1.492 . S
C266 C265 1.396 . S
C266 C267 1.397 . S
C266 C282 1.509 . S
C267 C266 1.397 . S
C267 C268 1.412 . S
C267 C288 1.485 . S
C268 C267 1.412 . S
C268 C269 1.388 . S
C268 C294 1.490 . S
C269 C264 1.397 . S
C269 C268 1.388 . S
C269 C300 1.519 . S
C270 C264 1.492 . S
C270 C271 1.363 . S
C270 C275 1.390 . S
C271 H236 0.930 . S
C271 C270 1.363 . S
C271 C272 1.372 . S
C272 H237 0.930 . S
C272 C271 1.372 . S
C272 C273 1.383 . S
C273 C272 1.383 . S
C273 C274 1.395 . S
C274 H238 0.930 . S
C274 C273 1.395 . S
C274 C275 1.362 . S
C275 H239 0.930 . S
C275 C270 1.390 . S
C275 C274 1.362 . S
C276 C265 1.492 . S
C276 C277 1.377 . S
C276 C281 1.397 . S
C277 H240 0.931 . S
C277 C276 1.377 . S
C277 C278 1.376 . S
C278 H241 0.930 . S
C278 C277 1.376 . S
C278 C279 1.376 . S
C279 C278 1.376 . S
C279 C280 1.378 . S
C279 C306 1.486 . S
C280 H242 0.930 . S
C280 C279 1.378 . S
C280 C281 1.376 . S
C281 H243 0.929 . S
C281 C276 1.397 . S
C281 C280 1.376 . S
C282 C266 1.509 . S
C282 C283 1.391 . S
C282 C287 1.386 . S
C283 H244 0.930 . S
C283 C282 1.391 . S
C283 C284 1.375 . S
C284 H245 0.931 . S
C284 C283 1.375 . S
C284 C285 1.375 . S
C285 C284 1.375 . S
C285 C286 1.361 . S
C286 H246 0.930 . S
C286 C285 1.361 . S
C286 C287 1.399 . S
C287 H247 0.929 . S
C287 C282 1.386 . S
C287 C286 1.399 . S
C288 C267 1.485 . S
C288 C289 1.394 . S
C288 C293 1.360 . S
C289 H248 0.931 . S
C289 C288 1.394 . S
C289 C290 1.372 . S
C290 H249 0.930 . S
C290 C289 1.372 . S
C290 C291 1.397 . S
C291 C290 1.397 . S
C291 C292 1.390 . S
C291 C307 1.476 . S
C292 H250 0.930 . S
C292 C291 1.390 . S
C292 C293 1.366 . S
C293 H251 0.932 . S
C293 C288 1.360 . S
C293 C292 1.366 . S
C294 C268 1.490 . S
C294 C295 1.380 . S
C294 C299 1.386 . S
C295 H252 0.930 . S
C295 C294 1.380 . S
C295 C296 1.381 . S
C296 H253 0.929 . S
C296 C295 1.381 . S
C296 C297 1.371 . S
C297 C296 1.371 . S
C297 C298 1.380 . S
C298 H254 0.931 . S
C298 C297 1.380 . S
C298 C299 1.387 . S
C299 H255 0.930 . S
C299 C294 1.386 . S
C299 C298 1.387 . S
C300 C269 1.519 . S
C300 C301 1.377 . S
C300 C305 1.361 . S
C301 H256 0.929 . S
C301 C300 1.377 . S
C301 C302 1.386 . S
C302 H257 0.931 . S
C302 C301 1.386 . S
C302 C303 1.363 . S
C303 C302 1.363 . S
C303 C304 1.385 . S
C304 H258 0.930 . S
C304 C303 1.385 . S
C304 C305 1.396 . S
C305 H259 0.929 . S
C305 C300 1.361 . S
C305 C304 1.396 . S
C306 O260 1.300 . S
C306 O261 1.209 . S
C306 C279 1.486 . S
C307 O262 1.199 . S
C307 O263 1.297 . S
C307 C291 1.476 . S
H308 O334 0.856 . S
H309 O337 0.854 1_545 S
H310 C345 0.930 . S
H311 C346 0.930 . S
H312 C348 0.930 . S
H313 C349 0.930 . S
H314 C351 0.931 . S
H315 C352 0.930 . S
H316 C354 0.930 . S
H317 C355 0.929 . S
H318 C357 0.930 . S
H319 C358 0.931 . S
H320 C360 0.930 . S
H321 C361 0.929 . S
H322 C363 0.931 . S
H323 C364 0.930 . S
H324 C366 0.930 . S
H325 C367 0.932 . S
H326 C369 0.930 . S
H327 C370 0.929 . S
H328 C372 0.931 . S
H329 C373 0.930 . S
H330 C375 0.929 . S
H331 C376 0.931 . S
H332 C378 0.930 . S
H333 C379 0.929 . S
O334 H308 0.856 . S
O334 C380 1.300 . S
O335 C380 1.209 . S
O336 C381 1.199 . S
O337 H309 0.854 1_565 S
O337 C381 1.297 . S
C338 C339 1.404 . S
C338 C343 1.397 . S
C338 C344 1.492 . S
C339 C338 1.404 . S
C339 C340 1.396 . S
C339 C350 1.492 . S
C340 C339 1.396 . S
C340 C341 1.397 . S
C340 C356 1.509 . S
C341 C340 1.397 . S
C341 C342 1.412 . S
C341 C362 1.485 . S
C342 C341 1.412 . S
C342 C343 1.388 . S
C342 C368 1.490 . S
C343 C338 1.397 . S
C343 C342 1.388 . S
C343 C374 1.519 . S
C344 C338 1.492 . S
C344 C345 1.363 . S
C344 C349 1.390 . S
C345 H310 0.930 . S
C345 C344 1.363 . S
C345 C346 1.372 . S
C346 H311 0.930 . S
C346 C345 1.372 . S
C346 C347 1.383 . S
C347 C346 1.383 . S
C347 C348 1.395 . S
C348 H312 0.930 . S
C348 C347 1.395 . S
C348 C349 1.362 . S
C349 H313 0.930 . S
C349 C344 1.390 . S
C349 C348 1.362 . S
C350 C339 1.492 . S
C350 C351 1.377 . S
C350 C355 1.397 . S
C351 H314 0.931 . S
C351 C350 1.377 . S
C351 C352 1.376 . S
C352 H315 0.930 . S
C352 C351 1.376 . S
C352 C353 1.376 . S
C353 C352 1.376 . S
C353 C354 1.378 . S
C353 C380 1.486 . S
C354 H316 0.930 . S
C354 C353 1.378 . S
C354 C355 1.376 . S
C355 H317 0.929 . S
C355 C350 1.397 . S
C355 C354 1.376 . S
C356 C340 1.509 . S
C356 C357 1.391 . S
C356 C361 1.386 . S
C357 H318 0.930 . S
C357 C356 1.391 . S
C357 C358 1.375 . S
C358 H319 0.931 . S
C358 C357 1.375 . S
C358 C359 1.375 . S
C359 C358 1.375 . S
C359 C360 1.361 . S
C360 H320 0.930 . S
C360 C359 1.361 . S
C360 C361 1.399 . S
C361 H321 0.929 . S
C361 C356 1.386 . S
C361 C360 1.399 . S
C362 C341 1.485 . S
C362 C363 1.394 . S
C362 C367 1.360 . S
C363 H322 0.931 . S
C363 C362 1.394 . S
C363 C364 1.372 . S
C364 H323 0.930 . S
C364 C363 1.372 . S
C364 C365 1.397 . S
C365 C364 1.397 . S
C365 C366 1.390 . S
C365 C381 1.476 . S
C366 H324 0.930 . S
C366 C365 1.390 . S
C366 C367 1.366 . S
C367 H325 0.932 . S
C367 C362 1.360 . S
C367 C366 1.366 . S
C368 C342 1.490 . S
C368 C369 1.380 . S
C368 C373 1.386 . S
C369 H326 0.930 . S
C369 C368 1.380 . S
C369 C370 1.381 . S
C370 H327 0.929 . S
C370 C369 1.381 . S
C370 C371 1.371 . S
C371 C370 1.371 . S
C371 C372 1.380 . S
C372 H328 0.931 . S
C372 C371 1.380 . S
C372 C373 1.387 . S
C373 H329 0.930 . S
C373 C368 1.386 . S
C373 C372 1.387 . S
C374 C343 1.519 . S
C374 C375 1.377 . S
C374 C379 1.361 . S
C375 H330 0.929 . S
C375 C374 1.377 . S
C375 C376 1.386 . S
C376 H331 0.931 . S
C376 C375 1.386 . S
C376 C377 1.363 . S
C377 C376 1.363 . S
C377 C378 1.385 . S
C378 H332 0.930 . S
C378 C377 1.385 . S
C378 C379 1.396 . S
C379 H333 0.929 . S
C379 C374 1.361 . S
C379 C378 1.396 . S
C380 O334 1.300 . S
C380 O335 1.209 . S
C380 C353 1.486 . S
C381 O336 1.199 . S
C381 O337 1.297 . S
C381 C365 1.476 . S
H382 O408 0.856 . S
H383 O411 0.854 . S
H384 C419 0.930 . S
H385 C420 0.930 . S
H386 C422 0.930 . S
H387 C423 0.930 . S
H388 C425 0.931 . S
H389 C426 0.930 . S
H390 C428 0.930 . S
H391 C429 0.929 . S
H392 C431 0.930 . S
H393 C432 0.931 . S
H394 C434 0.930 . S
H395 C435 0.929 . S
H396 C437 0.931 . S
H397 C438 0.930 . S
H398 C440 0.930 . S
H399 C441 0.932 . S
H400 C443 0.930 . S
H401 C444 0.929 . S
H402 C446 0.931 . S
H403 C447 0.930 . S
H404 C449 0.929 . S
H405 C450 0.931 . S
H406 C452 0.930 . S
H407 C453 0.929 . S
O408 H382 0.856 . S
O408 C454 1.300 . S
O409 C454 1.209 . S
O410 C455 1.199 . S
O411 H383 0.854 . S
O411 C455 1.297 . S
C412 C413 1.404 . S
C412 C417 1.397 . S
C412 C418 1.492 . S
C413 C412 1.404 . S
C413 C414 1.396 . S
C413 C424 1.492 . S
C414 C413 1.396 . S
C414 C415 1.397 . S
C414 C430 1.509 . S
C415 C414 1.397 . S
C415 C416 1.412 . S
C415 C436 1.485 . S
C416 C415 1.412 . S
C416 C417 1.388 . S
C416 C442 1.490 . S
C417 C412 1.397 . S
C417 C416 1.388 . S
C417 C448 1.519 . S
C418 C412 1.492 . S
C418 C419 1.363 . S
C418 C423 1.390 . S
C419 H384 0.930 . S
C419 C418 1.363 . S
C419 C420 1.372 . S
C420 H385 0.930 . S
C420 C419 1.372 . S
C420 C421 1.383 . S
C421 C420 1.383 . S
C421 C422 1.395 . S
C422 H386 0.930 . S
C422 C421 1.395 . S
C422 C423 1.362 . S
C423 H387 0.930 . S
C423 C418 1.390 . S
C423 C422 1.362 . S
C424 C413 1.492 . S
C424 C425 1.377 . S
C424 C429 1.397 . S
C425 H388 0.931 . S
C425 C424 1.377 . S
C425 C426 1.376 . S
C426 H389 0.930 . S
C426 C425 1.376 . S
C426 C427 1.376 . S
C427 C426 1.376 . S
C427 C428 1.378 . S
C427 C454 1.486 . S
C428 H390 0.930 . S
C428 C427 1.378 . S
C428 C429 1.376 . S
C429 H391 0.929 . S
C429 C424 1.397 . S
C429 C428 1.376 . S
C430 C414 1.509 . S
C430 C431 1.391 . S
C430 C435 1.386 . S
C431 H392 0.930 . S
C431 C430 1.391 . S
C431 C432 1.375 . S
C432 H393 0.931 . S
C432 C431 1.375 . S
C432 C433 1.375 . S
C433 C432 1.375 . S
C433 C434 1.361 . S
C434 H394 0.930 . S
C434 C433 1.361 . S
C434 C435 1.399 . S
C435 H395 0.929 . S
C435 C430 1.386 . S
C435 C434 1.399 . S
C436 C415 1.485 . S
C436 C437 1.394 . S
C436 C441 1.360 . S
C437 H396 0.931 . S
C437 C436 1.394 . S
C437 C438 1.372 . S
C438 H397 0.930 . S
C438 C437 1.372 . S
C438 C439 1.397 . S
C439 C438 1.397 . S
C439 C440 1.390 . S
C439 C455 1.476 . S
C440 H398 0.930 . S
C440 C439 1.390 . S
C440 C441 1.366 . S
C441 H399 0.932 . S
C441 C436 1.360 . S
C441 C440 1.366 . S
C442 C416 1.490 . S
C442 C443 1.380 . S
C442 C447 1.386 . S
C443 H400 0.930 . S
C443 C442 1.380 . S
C443 C444 1.381 . S
C444 H401 0.929 . S
C444 C443 1.381 . S
C444 C445 1.371 . S
C445 C444 1.371 . S
C445 C446 1.380 . S
C446 H402 0.931 . S
C446 C445 1.380 . S
C446 C447 1.387 . S
C447 H403 0.930 . S
C447 C442 1.386 . S
C447 C446 1.387 . S
C448 C417 1.519 . S
C448 C449 1.377 . S
C448 C453 1.361 . S
C449 H404 0.929 . S
C449 C448 1.377 . S
C449 C450 1.386 . S
C450 H405 0.931 . S
C450 C449 1.386 . S
C450 C451 1.363 . S
C451 C450 1.363 . S
C451 C452 1.385 . S
C452 H406 0.930 . S
C452 C451 1.385 . S
C452 C453 1.396 . S
C453 H407 0.929 . S
C453 C448 1.361 . S
C453 C452 1.396 . S
C454 O408 1.300 . S
C454 O409 1.209 . S
C454 C427 1.486 . S
C455 O410 1.199 . S
C455 O411 1.297 . S
C455 C439 1.476 . S
H456 O482 0.856 . S
H457 O485 0.854 . S
H458 C493 0.930 . S
H459 C494 0.930 . S
H460 C496 0.930 . S
H461 C497 0.930 . S
H462 C499 0.931 . S
H463 C500 0.930 . S
H464 C502 0.930 . S
H465 C503 0.929 . S
H466 C505 0.930 . S
H467 C506 0.931 . S
H468 C508 0.930 . S
H469 C509 0.929 . S
H470 C511 0.931 . S
H471 C512 0.930 . S
H472 C514 0.930 . S
H473 C515 0.932 . S
H474 C517 0.930 . S
H475 C518 0.929 . S
H476 C520 0.931 . S
H477 C521 0.930 . S
H478 C523 0.929 . S
H479 C524 0.931 . S
H480 C526 0.930 . S
H481 C527 0.929 . S
O482 H456 0.856 . S
O482 C528 1.300 . S
O483 C528 1.209 . S
O484 C529 1.199 . S
O485 H457 0.854 . S
O485 C529 1.297 . S
C486 C487 1.404 . S
C486 C491 1.397 . S
C486 C492 1.492 . S
C487 C486 1.404 . S
C487 C488 1.396 . S
C487 C498 1.492 . S
C488 C487 1.396 . S
C488 C489 1.397 . S
C488 C504 1.509 . S
C489 C488 1.397 . S
C489 C490 1.412 . S
C489 C510 1.485 . S
C490 C489 1.412 . S
C490 C491 1.388 . S
C490 C516 1.490 . S
C491 C486 1.397 . S
C491 C490 1.388 . S
C491 C522 1.519 . S
C492 C486 1.492 . S
C492 C493 1.363 . S
C492 C497 1.390 . S
C493 H458 0.930 . S
C493 C492 1.363 . S
C493 C494 1.372 . S
C494 H459 0.930 . S
C494 C493 1.372 . S
C494 C495 1.383 . S
C495 C494 1.383 . S
C495 C496 1.395 . S
C496 H460 0.930 . S
C496 C495 1.395 . S
C496 C497 1.362 . S
C497 H461 0.930 . S
C497 C492 1.390 . S
C497 C496 1.362 . S
C498 C487 1.492 . S
C498 C499 1.377 . S
C498 C503 1.397 . S
C499 H462 0.931 . S
C499 C498 1.377 . S
C499 C500 1.376 . S
C500 H463 0.930 . S
C500 C499 1.376 . S
C500 C501 1.376 . S
C501 C500 1.376 . S
C501 C502 1.378 . S
C501 C528 1.486 1_556 S
C502 H464 0.930 . S
C502 C501 1.378 . S
C502 C503 1.376 . S
C503 H465 0.929 . S
C503 C498 1.397 . S
C503 C502 1.376 . S
C504 C488 1.509 . S
C504 C505 1.391 . S
C504 C509 1.386 . S
C505 H466 0.930 . S
C505 C504 1.391 . S
C505 C506 1.375 . S
C506 H467 0.931 . S
C506 C505 1.375 . S
C506 C507 1.375 . S
C507 C506 1.375 . S
C507 C508 1.361 . S
C508 H468 0.930 . S
C508 C507 1.361 . S
C508 C509 1.399 . S
C509 H469 0.929 . S
C509 C504 1.386 . S
C509 C508 1.399 . S
C510 C489 1.485 . S
C510 C511 1.394 . S
C510 C515 1.360 . S
C511 H470 0.931 . S
C511 C510 1.394 . S
C511 C512 1.372 . S
C512 H471 0.930 . S
C512 C511 1.372 . S
C512 C513 1.397 . S
C513 C512 1.397 . S
C513 C514 1.390 . S
C513 C529 1.476 . S
C514 H472 0.930 . S
C514 C513 1.390 . S
C514 C515 1.366 . S
C515 H473 0.932 . S
C515 C510 1.360 . S
C515 C514 1.366 . S
C516 C490 1.490 . S
C516 C517 1.380 . S
C516 C521 1.386 . S
C517 H474 0.930 . S
C517 C516 1.380 . S
C517 C518 1.381 . S
C518 H475 0.929 . S
C518 C517 1.381 . S
C518 C519 1.371 . S
C519 C518 1.371 . S
C519 C520 1.380 . S
C520 H476 0.931 . S
C520 C519 1.380 . S
C520 C521 1.387 . S
C521 H477 0.930 . S
C521 C516 1.386 . S
C521 C520 1.387 . S
C522 C491 1.519 . S
C522 C523 1.377 . S
C522 C527 1.361 . S
C523 H478 0.929 . S
C523 C522 1.377 . S
C523 C524 1.386 . S
C524 H479 0.931 . S
C524 C523 1.386 . S
C524 C525 1.363 . S
C525 C524 1.363 . S
C525 C526 1.385 . S
C526 H480 0.930 . S
C526 C525 1.385 . S
C526 C527 1.396 . S
C527 H481 0.929 . S
C527 C522 1.361 . S
C527 C526 1.396 . S
C528 O482 1.300 . S
C528 O483 1.209 . S
C528 C501 1.486 1_554 S
C529 O484 1.199 . S
C529 O485 1.297 . S
C529 C513 1.476 . S
H530 O556 0.856 . S
H531 O559 0.847 1_565 S
H532 C567 0.930 . S
H533 C568 0.930 . S
H534 C570 0.930 . S
H535 C571 0.930 . S
H536 C573 0.931 . S
H537 C574 0.930 . S
H538 C576 0.930 . S
H539 C577 0.929 . S
H540 C579 0.930 . S
H541 C580 0.931 . S
H542 C582 0.930 . S
H543 C583 0.929 . S
H544 C585 0.931 . S
H545 C586 0.930 . S
H546 C588 0.930 . S
H547 C589 0.932 . S
H548 C591 0.930 . S
H549 C592 0.929 . S
H550 C594 0.931 . S
H551 C595 0.930 . S
H552 C597 0.929 . S
H553 C598 0.931 . S
H554 C600 0.930 . S
H555 C601 0.929 . S
O556 H530 0.856 . S
O556 C602 1.300 . S
O557 C602 1.209 . S
O558 C603 1.199 . S
O559 H531 0.847 1_545 S
O559 C603 1.318 . S
C560 C561 1.404 . S
C560 C565 1.397 . S
C560 C566 1.492 . S
C561 C560 1.404 . S
C561 C562 1.396 . S
C561 C572 1.492 . S
C562 C561 1.396 . S
C562 C563 1.397 . S
C562 C578 1.509 . S
C563 C562 1.397 . S
C563 C564 1.412 . S
C563 C584 1.485 . S
C564 C563 1.412 . S
C564 C565 1.388 . S
C564 C590 1.490 . S
C565 C560 1.397 . S
C565 C564 1.388 . S
C565 C596 1.519 . S
C566 C560 1.492 . S
C566 C567 1.363 . S
C566 C571 1.390 . S
C567 H532 0.930 . S
C567 C566 1.363 . S
C567 C568 1.372 . S
C568 H533 0.930 . S
C568 C567 1.372 . S
C568 C569 1.383 . S
C569 C568 1.383 . S
C569 C570 1.395 . S
C570 H534 0.930 . S
C570 C569 1.395 . S
C570 C571 1.362 . S
C571 H535 0.930 . S
C571 C566 1.390 . S
C571 C570 1.362 . S
C572 C561 1.492 . S
C572 C573 1.377 . S
C572 C577 1.397 . S
C573 H536 0.931 . S
C573 C572 1.377 . S
C573 C574 1.376 . S
C574 H537 0.930 . S
C574 C573 1.376 . S
C574 C575 1.376 1_556 S
C575 C574 1.376 1_554 S
C575 C576 1.378 1_554 S
C575 C602 1.486 . S
C576 H538 0.930 . S
C576 C575 1.378 1_556 S
C576 C577 1.376 . S
C577 H539 0.929 . S
C577 C572 1.397 . S
C577 C576 1.376 . S
C578 C562 1.509 . S
C578 C579 1.391 . S
C578 C583 1.386 . S
C579 H540 0.930 . S
C579 C578 1.391 . S
C579 C580 1.375 . S
C580 H541 0.931 . S
C580 C579 1.375 . S
C580 C581 1.375 . S
C581 C580 1.375 . S
C581 C582 1.361 . S
C582 H542 0.930 . S
C582 C581 1.361 . S
C582 C583 1.399 . S
C583 H543 0.929 . S
C583 C578 1.386 . S
C583 C582 1.399 . S
C584 C563 1.485 . S
C584 C585 1.394 . S
C584 C589 1.360 . S
C585 H544 0.931 . S
C585 C584 1.394 . S
C585 C586 1.372 . S
C586 H545 0.930 . S
C586 C585 1.372 . S
C586 C587 1.397 . S
C587 C586 1.397 . S
C587 C588 1.390 . S
C587 C603 1.476 . S
C588 H546 0.930 . S
C588 C587 1.390 . S
C588 C589 1.366 . S
C589 H547 0.932 . S
C589 C584 1.360 . S
C589 C588 1.366 . S
C590 C564 1.490 . S
C590 C591 1.380 . S
C590 C595 1.386 . S
C591 H548 0.930 . S
C591 C590 1.380 . S
C591 C592 1.381 . S
C592 H549 0.929 . S
C592 C591 1.381 . S
C592 C593 1.371 . S
C593 C592 1.371 . S
C593 C594 1.380 . S
C594 H550 0.931 . S
C594 C593 1.380 . S
C594 C595 1.387 . S
C595 H551 0.930 . S
C595 C590 1.386 . S
C595 C594 1.387 . S
C596 C565 1.519 . S
C596 C597 1.377 . S
C596 C601 1.361 . S
C597 H552 0.929 . S
C597 C596 1.377 . S
C597 C598 1.386 . S
C598 H553 0.931 . S
C598 C597 1.386 . S
C598 C599 1.363 . S
C599 C598 1.363 . S
C599 C600 1.385 . S
C600 H554 0.930 . S
C600 C599 1.385 . S
C600 C601 1.396 . S
C601 H555 0.929 . S
C601 C596 1.361 . S
C601 C600 1.396 . S
C602 O556 1.300 . S
C602 O557 1.209 . S
C602 C575 1.486 . S
C603 O558 1.199 . S
C603 O559 1.318 . S
C603 C587 1.476 . S
H604 O630 0.856 . S
H605 O633 0.854 . S
H606 C641 0.930 . S
H607 C642 0.930 . S
H608 C644 0.930 . S
H609 C645 0.930 . S
H610 C647 0.931 . S
H611 C648 0.930 . S
H612 C650 0.930 . S
H613 C651 0.929 . S
H614 C653 0.930 . S
H615 C654 0.931 . S
H616 C656 0.930 . S
H617 C657 0.929 . S
H618 C659 0.931 . S
H619 C660 0.930 . S
H620 C662 0.930 . S
H621 C663 0.932 . S
H622 C665 0.930 . S
H623 C666 0.929 . S
H624 C668 0.931 . S
H625 C669 0.930 . S
H626 C671 0.929 . S
H627 C672 0.931 . S
H628 C674 0.930 . S
H629 C675 0.929 . S
O630 H604 0.856 . S
O630 C676 1.300 . S
O631 C676 1.209 . S
O632 C677 1.199 . S
O633 H605 0.854 . S
O633 C677 1.297 . S
C634 C635 1.404 . S
C634 C639 1.397 . S
C634 C640 1.492 . S
C635 C634 1.404 . S
C635 C636 1.396 . S
C635 C646 1.492 . S
C636 C635 1.396 . S
C636 C637 1.397 . S
C636 C652 1.509 . S
C637 C636 1.397 . S
C637 C638 1.412 . S
C637 C658 1.485 . S
C638 C637 1.412 . S
C638 C639 1.388 . S
C638 C664 1.490 . S
C639 C634 1.397 . S
C639 C638 1.388 . S
C639 C670 1.519 . S
C640 C634 1.492 . S
C640 C641 1.363 . S
C640 C645 1.390 . S
C641 H606 0.930 . S
C641 C640 1.363 . S
C641 C642 1.372 . S
C642 H607 0.930 . S
C642 C641 1.372 . S
C642 C643 1.383 . S
C643 C642 1.383 . S
C643 C644 1.395 . S
C644 H608 0.930 . S
C644 C643 1.395 . S
C644 C645 1.362 . S
C645 H609 0.930 . S
C645 C640 1.390 . S
C645 C644 1.362 . S
C646 C635 1.492 . S
C646 C647 1.377 . S
C646 C651 1.397 . S
C647 H610 0.931 . S
C647 C646 1.377 . S
C647 C648 1.376 1_556 S
C648 H611 0.930 . S
C648 C647 1.376 1_554 S
C648 C649 1.376 . S
C649 C648 1.376 . S
C649 C650 1.378 1_554 S
C649 C676 1.486 . S
C650 H612 0.930 . S
C650 C649 1.378 1_556 S
C650 C651 1.376 . S
C651 H613 0.929 . S
C651 C646 1.397 . S
C651 C650 1.376 . S
C652 C636 1.509 . S
C652 C653 1.391 . S
C652 C657 1.386 . S
C653 H614 0.930 . S
C653 C652 1.391 . S
C653 C654 1.375 . S
C654 H615 0.931 . S
C654 C653 1.375 . S
C654 C655 1.375 . S
C655 C654 1.375 . S
C655 C656 1.361 . S
C656 H616 0.930 . S
C656 C655 1.361 . S
C656 C657 1.399 . S
C657 H617 0.929 . S
C657 C652 1.386 . S
C657 C656 1.399 . S
C658 C637 1.485 . S
C658 C659 1.394 . S
C658 C663 1.360 . S
C659 H618 0.931 . S
C659 C658 1.394 . S
C659 C660 1.372 . S
C660 H619 0.930 . S
C660 C659 1.372 . S
C660 C661 1.397 . S
C661 C660 1.397 . S
C661 C662 1.390 . S
C661 C677 1.476 . S
C662 H620 0.930 . S
C662 C661 1.390 . S
C662 C663 1.366 . S
C663 H621 0.932 . S
C663 C658 1.360 . S
C663 C662 1.366 . S
C664 C638 1.490 . S
C664 C665 1.380 . S
C664 C669 1.386 . S
C665 H622 0.930 . S
C665 C664 1.380 . S
C665 C666 1.381 . S
C666 H623 0.929 . S
C666 C665 1.381 . S
C666 C667 1.371 . S
C667 C666 1.371 . S
C667 C668 1.380 . S
C668 H624 0.931 . S
C668 C667 1.380 . S
C668 C669 1.387 . S
C669 H625 0.930 . S
C669 C664 1.386 . S
C669 C668 1.387 . S
C670 C639 1.519 . S
C670 C671 1.377 . S
C670 C675 1.361 . S
C671 H626 0.929 . S
C671 C670 1.377 . S
C671 C672 1.386 . S
C672 H627 0.931 . S
C672 C671 1.386 . S
C672 C673 1.363 . S
C673 C672 1.363 . S
C673 C674 1.385 . S
C674 H628 0.930 . S
C674 C673 1.385 . S
C674 C675 1.396 . S
C675 H629 0.929 . S
C675 C670 1.361 . S
C675 C674 1.396 . S
C676 O630 1.300 . S
C676 O631 1.209 . S
C676 C649 1.486 . S
C677 O632 1.199 . S
C677 O633 1.297 . S
C677 C661 1.476 . S
H678 O704 0.856 . S
H679 O707 0.854 . S
H680 C715 0.930 . S
H681 C716 0.930 . S
H682 C718 0.930 . S
H683 C719 0.930 . S
H684 C721 0.931 . S
H685 C722 0.930 . S
H686 C724 0.930 . S
H687 C725 0.929 . S
H688 C727 0.930 . S
H689 C728 0.931 . S
H690 C730 0.930 . S
H691 C731 0.929 . S
H692 C733 0.931 . S
H693 C734 0.930 . S
H694 C736 0.930 . S
H695 C737 0.932 . S
H696 C739 0.930 . S
H697 C740 0.929 . S
H698 C742 0.931 . S
H699 C743 0.930 . S
H700 C745 0.929 . S
H701 C746 0.931 . S
H702 C748 0.930 . S
H703 C749 0.929 . S
O704 H678 0.856 . S
O704 C750 1.300 . S
O705 C750 1.209 . S
O706 C751 1.199 . S
O707 H679 0.854 . S
O707 C751 1.297 . S
C708 C709 1.404 . S
C708 C713 1.397 . S
C708 C714 1.492 . S
C709 C708 1.404 . S
C709 C710 1.396 . S
C709 C720 1.492 . S
C710 C709 1.396 . S
C710 C711 1.397 . S
C710 C726 1.509 . S
C711 C710 1.397 . S
C711 C712 1.412 . S
C711 C732 1.485 . S
C712 C711 1.412 . S
C712 C713 1.388 . S
C712 C738 1.490 . S
C713 C708 1.397 . S
C713 C712 1.388 . S
C713 C744 1.519 . S
C714 C708 1.492 . S
C714 C715 1.363 . S
C714 C719 1.390 . S
C715 H680 0.930 . S
C715 C714 1.363 . S
C715 C716 1.372 . S
C716 H681 0.930 . S
C716 C715 1.372 . S
C716 C717 1.383 . S
C717 C716 1.383 . S
C717 C718 1.395 . S
C718 H682 0.930 . S
C718 C717 1.395 . S
C718 C719 1.362 . S
C719 H683 0.930 . S
C719 C714 1.390 . S
C719 C718 1.362 . S
C720 C709 1.492 . S
C720 C721 1.377 . S
C720 C725 1.397 . S
C721 H684 0.931 . S
C721 C720 1.377 . S
C721 C722 1.376 . S
C722 H685 0.930 . S
C722 C721 1.376 . S
C722 C723 1.376 . S
C723 C722 1.376 . S
C723 C724 1.378 . S
C723 C750 1.486 . S
C724 H686 0.930 . S
C724 C723 1.378 . S
C724 C725 1.376 . S
C725 H687 0.929 . S
C725 C720 1.397 . S
C725 C724 1.376 . S
C726 C710 1.509 . S
C726 C727 1.391 . S
C726 C731 1.386 . S
C727 H688 0.930 . S
C727 C726 1.391 . S
C727 C728 1.375 . S
C728 H689 0.931 . S
C728 C727 1.375 . S
C728 C729 1.375 . S
C729 C728 1.375 . S
C729 C730 1.361 . S
C730 H690 0.930 . S
C730 C729 1.361 . S
C730 C731 1.399 . S
C731 H691 0.929 . S
C731 C726 1.386 . S
C731 C730 1.399 . S
C732 C711 1.485 . S
C732 C733 1.394 . S
C732 C737 1.360 . S
C733 H692 0.931 . S
C733 C732 1.394 . S
C733 C734 1.372 . S
C734 H693 0.930 . S
C734 C733 1.372 . S
C734 C735 1.397 . S
C735 C734 1.397 . S
C735 C736 1.390 . S
C735 C751 1.476 . S
C736 H694 0.930 . S
C736 C735 1.390 . S
C736 C737 1.366 . S
C737 H695 0.932 . S
C737 C732 1.360 . S
C737 C736 1.366 . S
C738 C712 1.490 . S
C738 C739 1.380 . S
C738 C743 1.386 . S
C739 H696 0.930 . S
C739 C738 1.380 . S
C739 C740 1.381 . S
C740 H697 0.929 . S
C740 C739 1.381 . S
C740 C741 1.371 . S
C741 C740 1.371 . S
C741 C742 1.380 . S
C742 H698 0.931 . S
C742 C741 1.380 . S
C742 C743 1.387 . S
C743 H699 0.930 . S
C743 C738 1.386 . S
C743 C742 1.387 . S
C744 C713 1.519 . S
C744 C745 1.377 . S
C744 C749 1.361 . S
C745 H700 0.929 . S
C745 C744 1.377 . S
C745 C746 1.386 . S
C746 H701 0.931 . S
C746 C745 1.386 . S
C746 C747 1.363 . S
C747 C746 1.363 . S
C747 C748 1.385 . S
C748 H702 0.930 . S
C748 C747 1.385 . S
C748 C749 1.396 . S
C749 H703 0.929 . S
C749 C744 1.361 . S
C749 C748 1.396 . S
C750 O704 1.300 . S
C750 O705 1.209 . S
C750 C723 1.486 . S
C751 O706 1.199 . S
C751 O707 1.297 . S
C751 C735 1.476 . S
H752 O778 0.856 . S
H753 O781 0.854 . S
H754 C789 0.930 . S
H755 C790 0.930 . S
H756 C792 0.930 . S
H757 C793 0.930 . S
H758 C795 0.931 . S
H759 C796 0.930 . S
H760 C798 0.930 . S
H761 C799 0.929 . S
H762 C801 0.930 . S
H763 C802 0.931 . S
H764 C804 0.930 . S
H765 C805 0.929 . S
H766 C807 0.931 . S
H767 C808 0.930 . S
H768 C810 0.930 . S
H769 C811 0.932 . S
H770 C813 0.930 . S
H771 C814 0.929 . S
H772 C816 0.931 . S
H773 C817 0.930 . S
H774 C819 0.929 . S
H775 C820 0.931 . S
H776 C822 0.930 . S
H777 C823 0.929 . S
O778 H752 0.856 . S
O778 C824 1.300 . S
O779 C824 1.209 . S
O780 C825 1.199 . S
O781 H753 0.854 . S
O781 C825 1.297 . S
C782 C783 1.404 . S
C782 C787 1.397 . S
C782 C788 1.492 . S
C783 C782 1.404 . S
C783 C784 1.396 . S
C783 C794 1.492 . S
C784 C783 1.396 . S
C784 C785 1.397 . S
C784 C800 1.509 . S
C785 C784 1.397 . S
C785 C786 1.412 . S
C785 C806 1.485 . S
C786 C785 1.412 . S
C786 C787 1.388 . S
C786 C812 1.490 . S
C787 C782 1.397 . S
C787 C786 1.388 . S
C787 C818 1.519 . S
C788 C782 1.492 . S
C788 C789 1.363 . S
C788 C793 1.390 . S
C789 H754 0.930 . S
C789 C788 1.363 . S
C789 C790 1.372 . S
C790 H755 0.930 . S
C790 C789 1.372 . S
C790 C791 1.383 . S
C791 C790 1.383 . S
C791 C792 1.395 . S
C792 H756 0.930 . S
C792 C791 1.395 . S
C792 C793 1.362 . S
C793 H757 0.930 . S
C793 C788 1.390 . S
C793 C792 1.362 . S
C794 C783 1.492 . S
C794 C795 1.377 . S
C794 C799 1.397 . S
C795 H758 0.931 . S
C795 C794 1.377 . S
C795 C796 1.376 . S
C796 H759 0.930 . S
C796 C795 1.376 . S
C796 C797 1.376 . S
C797 C796 1.376 . S
C797 C798 1.378 . S
C797 C824 1.486 . S
C798 H760 0.930 . S
C798 C797 1.378 . S
C798 C799 1.376 . S
C799 H761 0.929 . S
C799 C794 1.397 . S
C799 C798 1.376 . S
C800 C784 1.509 . S
C800 C801 1.391 . S
C800 C805 1.386 . S
C801 H762 0.930 . S
C801 C800 1.391 . S
C801 C802 1.375 . S
C802 H763 0.931 . S
C802 C801 1.375 . S
C802 C803 1.375 . S
C803 C802 1.375 . S
C803 C804 1.361 . S
C804 H764 0.930 . S
C804 C803 1.361 . S
C804 C805 1.399 . S
C805 H765 0.929 . S
C805 C800 1.386 . S
C805 C804 1.399 . S
C806 C785 1.485 . S
C806 C807 1.394 . S
C806 C811 1.360 . S
C807 H766 0.931 . S
C807 C806 1.394 . S
C807 C808 1.372 . S
C808 H767 0.930 . S
C808 C807 1.372 . S
C808 C809 1.397 . S
C809 C808 1.397 . S
C809 C810 1.390 . S
C809 C825 1.476 . S
C810 H768 0.930 . S
C810 C809 1.390 . S
C810 C811 1.366 . S
C811 H769 0.932 . S
C811 C806 1.360 . S
C811 C810 1.366 . S
C812 C786 1.490 . S
C812 C813 1.380 . S
C812 C817 1.386 . S
C813 H770 0.930 . S
C813 C812 1.380 . S
C813 C814 1.381 . S
C814 H771 0.929 . S
C814 C813 1.381 . S
C814 C815 1.371 . S
C815 C814 1.371 . S
C815 C816 1.380 . S
C816 H772 0.931 . S
C816 C815 1.380 . S
C816 C817 1.387 . S
C817 H773 0.930 . S
C817 C812 1.386 . S
C817 C816 1.387 . S
C818 C787 1.519 . S
C818 C819 1.377 . S
C818 C823 1.361 . S
C819 H774 0.929 . S
C819 C818 1.377 . S
C819 C820 1.386 . S
C820 H775 0.931 . S
C820 C819 1.386 . S
C820 C821 1.363 . S
C821 C820 1.363 . S
C821 C822 1.385 . S
C822 H776 0.930 . S
C822 C821 1.385 . S
C822 C823 1.396 . S
C823 H777 0.929 . S
C823 C818 1.361 . S
C823 C822 1.396 . S
C824 O778 1.300 . S
C824 O779 1.209 . S
C824 C797 1.486 . S
C825 O780 1.199 . S
C825 O781 1.297 . S
C825 C809 1.476 . S
H826 O852 0.856 . S
H827 O855 0.854 . S
H828 C863 0.930 . S
H829 C864 0.930 . S
H830 C866 0.930 . S
H831 C867 0.930 . S
H832 C869 0.931 . S
H833 C870 0.930 . S
H834 C872 0.930 . S
H835 C873 0.929 . S
H836 C875 0.930 . S
H837 C876 0.931 . S
H838 C878 0.930 . S
H839 C879 0.929 . S
H840 C881 0.931 . S
H841 C882 0.930 . S
H842 C884 0.930 . S
H843 C885 0.932 . S
H844 C887 0.930 . S
H845 C888 0.929 . S
H846 C890 0.931 . S
H847 C891 0.930 . S
H848 C893 0.929 . S
H849 C894 0.931 . S
H850 C896 0.930 . S
H851 C897 0.929 . S
O852 H826 0.856 . S
O852 C898 1.300 . S
O853 C898 1.209 . S
O854 C899 1.199 . S
O855 H827 0.854 . S
O855 C899 1.297 . S
C856 C857 1.404 . S
C856 C861 1.397 . S
C856 C862 1.492 . S
C857 C856 1.404 . S
C857 C858 1.396 . S
C857 C868 1.492 . S
C858 C857 1.396 . S
C858 C859 1.397 . S
C858 C874 1.509 . S
C859 C858 1.397 . S
C859 C860 1.412 . S
C859 C880 1.485 . S
C860 C859 1.412 . S
C860 C861 1.388 . S
C860 C886 1.490 . S
C861 C856 1.397 . S
C861 C860 1.388 . S
C861 C892 1.519 . S
C862 C856 1.492 . S
C862 C863 1.363 . S
C862 C867 1.390 . S
C863 H828 0.930 . S
C863 C862 1.363 . S
C863 C864 1.372 . S
C864 H829 0.930 . S
C864 C863 1.372 . S
C864 C865 1.383 . S
C865 C864 1.383 . S
C865 C866 1.395 . S
C866 H830 0.930 . S
C866 C865 1.395 . S
C866 C867 1.362 . S
C867 H831 0.930 . S
C867 C862 1.390 . S
C867 C866 1.362 . S
C868 C857 1.492 . S
C868 C869 1.377 . S
C868 C873 1.397 . S
C869 H832 0.931 . S
C869 C868 1.377 . S
C869 C870 1.376 . S
C870 H833 0.930 . S
C870 C869 1.376 . S
C870 C871 1.376 . S
C871 C870 1.376 . S
C871 C872 1.378 . S
C871 C898 1.486 . S
C872 H834 0.930 . S
C872 C871 1.378 . S
C872 C873 1.376 . S
C873 H835 0.929 . S
C873 C868 1.397 . S
C873 C872 1.376 . S
C874 C858 1.509 . S
C874 C875 1.391 . S
C874 C879 1.386 . S
C875 H836 0.930 . S
C875 C874 1.391 . S
C875 C876 1.375 . S
C876 H837 0.931 . S
C876 C875 1.375 . S
C876 C877 1.375 . S
C877 C876 1.375 . S
C877 C878 1.361 . S
C878 H838 0.930 . S
C878 C877 1.361 . S
C878 C879 1.399 . S
C879 H839 0.929 . S
C879 C874 1.386 . S
C879 C878 1.399 . S
C880 C859 1.485 . S
C880 C881 1.394 . S
C880 C885 1.360 . S
C881 H840 0.931 . S
C881 C880 1.394 . S
C881 C882 1.372 . S
C882 H841 0.930 . S
C882 C881 1.372 . S
C882 C883 1.397 . S
C883 C882 1.397 . S
C883 C884 1.390 . S
C883 C899 1.476 . S
C884 H842 0.930 . S
C884 C883 1.390 . S
C884 C885 1.366 . S
C885 H843 0.932 . S
C885 C880 1.360 . S
C885 C884 1.366 . S
C886 C860 1.490 . S
C886 C887 1.380 . S
C886 C891 1.386 . S
C887 H844 0.930 . S
C887 C886 1.380 . S
C887 C888 1.381 . S
C888 H845 0.929 . S
C888 C887 1.381 . S
C888 C889 1.371 . S
C889 C888 1.371 . S
C889 C890 1.380 . S
C890 H846 0.931 . S
C890 C889 1.380 . S
C890 C891 1.387 . S
C891 H847 0.930 . S
C891 C886 1.386 . S
C891 C890 1.387 . S
C892 C861 1.519 . S
C892 C893 1.377 . S
C892 C897 1.361 . S
C893 H848 0.929 . S
C893 C892 1.377 . S
C893 C894 1.386 . S
C894 H849 0.931 . S
C894 C893 1.386 . S
C894 C895 1.363 . S
C895 C894 1.363 . S
C895 C896 1.385 . S
C896 H850 0.930 . S
C896 C895 1.385 . S
C896 C897 1.396 . S
C897 H851 0.929 . S
C897 C892 1.361 . S
C897 C896 1.396 . S
C898 O852 1.300 . S
C898 O853 1.209 . S
C898 C871 1.486 . S
C899 O854 1.199 . S
C899 O855 1.297 . S
C899 C883 1.476 . S
H900 O926 0.856 . S
H901 O929 0.854 . S
H902 C937 0.930 . S
H903 C938 0.930 . S
H904 C940 0.930 . S
H905 C941 0.930 . S
H906 C943 0.931 . S
H907 C944 0.930 1_655 S
H908 C946 0.930 . S
H909 C947 0.929 . S
H910 C949 0.930 . S
H911 C950 0.931 1_655 S
H912 C952 0.930 . S
H913 C953 0.929 . S
H914 C955 0.931 . S
H915 C956 0.930 . S
H916 C958 0.930 . S
H917 C959 0.932 . S
H918 C961 0.930 . S
H919 C962 0.929 . S
H920 C964 0.931 . S
H921 C965 0.930 . S
H922 C967 0.929 . S
H923 C968 0.931 . S
H924 C970 0.930 . S
H925 C971 0.929 . S
O926 H900 0.856 . S
O926 C972 1.300 . S
O927 C972 1.209 . S
O928 C973 1.199 1_655 S
O929 H901 0.854 . S
O929 C973 1.297 . S
C930 C931 1.404 . S
C930 C935 1.394 . S
C930 C936 1.492 . S
C931 C930 1.404 . S
C931 C932 1.396 . S
C931 C942 1.492 . S
C932 C931 1.396 . S
C932 C933 1.397 . S
C932 C948 1.509 . S
C933 C932 1.397 . S
C933 C934 1.418 . S
C933 C954 1.485 . S
C934 C933 1.418 . S
C934 C935 1.409 . S
C934 C960 1.490 1_455 S
C935 C930 1.394 . S
C935 C934 1.409 . S
C935 C966 1.485 1_455 S
C936 C930 1.492 . S
C936 C937 1.363 1_455 S
C936 C941 1.390 . S
C937 H902 0.930 . S
C937 C936 1.363 1_655 S
C937 C938 1.372 . S
C938 H903 0.930 . S
C938 C937 1.372 . S
C938 C939 1.383 . S
C939 C938 1.383 . S
C939 C940 1.395 1_655 S
C940 H904 0.930 . S
C940 C939 1.395 1_455 S
C940 C941 1.362 . S
C941 H905 0.930 . S
C941 C936 1.390 . S
C941 C940 1.362 . S
C942 C931 1.492 . S
C942 C943 1.377 1_455 S
C942 C947 1.397 . S
C943 H906 0.931 . S
C943 C942 1.377 1_655 S
C943 C944 1.376 1_655 S
C944 H907 0.930 1_455 S
C944 C943 1.376 1_455 S
C944 C945 1.376 . S
C945 C944 1.376 . S
C945 C946 1.378 . S
C945 C972 1.486 . S
C946 H908 0.930 . S
C946 C945 1.378 . S
C946 C947 1.376 . S
C947 H909 0.929 . S
C947 C942 1.397 . S
C947 C946 1.376 . S
C948 C932 1.509 . S
C948 C949 1.391 1_455 S
C948 C953 1.386 . S
C949 H910 0.930 . S
C949 C948 1.391 1_655 S
C949 C950 1.375 1_655 S
C950 H911 0.931 1_455 S
C950 C949 1.375 1_455 S
C950 C951 1.375 . S
C951 C950 1.375 . S
C951 C952 1.361 . S
C952 H912 0.930 . S
C952 C951 1.361 . S
C952 C953 1.399 . S
C953 H913 0.929 . S
C953 C948 1.386 . S
C953 C952 1.399 . S
C954 C933 1.485 . S
C954 C955 1.394 1_455 S
C954 C959 1.360 . S
C955 H914 0.931 . S
C955 C954 1.394 1_655 S
C955 C956 1.372 . S
C956 H915 0.930 . S
C956 C955 1.372 . S
C956 C957 1.397 1_655 S
C957 C956 1.397 1_455 S
C957 C958 1.390 . S
C957 C973 1.476 . S
C958 H916 0.930 . S
C958 C957 1.390 . S
C958 C959 1.366 . S
C959 H917 0.932 . S
C959 C954 1.360 . S
C959 C958 1.366 . S
C960 C934 1.490 1_655 S
C960 C961 1.380 . S
C960 C965 1.386 1_655 S
C961 H918 0.930 . S
C961 C960 1.380 . S
C961 C962 1.381 . S
C962 H919 0.929 . S
C962 C961 1.381 . S
C962 C963 1.371 . S
C963 C962 1.371 . S
C963 C964 1.380 1_655 S
C964 H920 0.931 . S
C964 C963 1.380 1_455 S
C964 C965 1.387 . S
C965 H921 0.930 . S
C965 C960 1.386 1_455 S
C965 C964 1.387 . S
C966 C935 1.485 1_655 S
C966 C967 1.419 . S
C966 C971 1.333 1_655 S
C967 H922 0.929 . S
C967 C966 1.419 . S
C967 C968 1.386 . S
C968 H923 0.931 . S
C968 C967 1.386 . S
C968 C969 1.395 . S
C969 C968 1.395 . S
C969 C970 1.337 1_655 S
C970 H924 0.930 . S
C970 C969 1.337 1_455 S
C970 C971 1.396 . S
C971 H925 0.929 . S
C971 C966 1.333 1_455 S
C971 C970 1.396 . S
C972 O926 1.300 . S
C972 O927 1.209 . S
C972 C945 1.486 . S
C973 O928 1.199 1_455 S
C973 O929 1.297 . S
C973 C957 1.476 . S
H974 O1000 0.856 . S
H975 O1003 0.854 . S
H976 C1011 0.930 . S
H977 C1012 0.930 . S
H978 C1014 0.930 . S
H979 C1015 0.930 . S
H980 C1017 0.931 . S
H981 C1018 0.930 . S
H982 C1020 0.930 . S
H983 C1021 0.929 . S
H984 C1023 0.930 . S
H985 C1024 0.931 . S
H986 C1026 0.930 . S
H987 C1027 0.929 . S
H988 C1029 0.931 . S
H989 C1030 0.930 . S
H990 C1032 0.930 . S
H991 C1033 0.932 . S
H992 C1035 0.930 . S
H993 C1036 0.929 . S
H994 C1038 0.931 . S
H995 C1039 0.930 . S
H996 C1041 0.929 . S
H997 C1042 0.931 . S
H998 C1044 0.930 . S
H999 C1045 0.929 . S
O1000 H974 0.856 . S
O1000 C1046 1.300 . S
O1001 C1046 1.209 . S
O1002 C1047 1.199 . S
O1003 H975 0.854 . S
O1003 C1047 1.297 . S
C1004 C1005 1.404 . S
C1004 C1009 1.397 . S
C1004 C1010 1.492 . S
C1005 C1004 1.404 . S
C1005 C1006 1.396 . S
C1005 C1016 1.492 . S
C1006 C1005 1.396 . S
C1006 C1007 1.397 . S
C1006 C1022 1.509 . S
C1007 C1006 1.397 . S
C1007 C1008 1.412 . S
C1007 C1028 1.485 . S
C1008 C1007 1.412 . S
C1008 C1009 1.388 . S
C1008 C1034 1.490 . S
C1009 C1004 1.397 . S
C1009 C1008 1.388 . S
C1009 C1040 1.519 . S
C1010 C1004 1.492 . S
C1010 C1011 1.363 . S
C1010 C1015 1.390 . S
C1011 H976 0.930 . S
C1011 C1010 1.363 . S
C1011 C1012 1.372 . S
C1012 H977 0.930 . S
C1012 C1011 1.372 . S
C1012 C1013 1.383 . S
C1013 C1012 1.383 . S
C1013 C1014 1.395 . S
C1014 H978 0.930 . S
C1014 C1013 1.395 . S
C1014 C1015 1.362 . S
C1015 H979 0.930 . S
C1015 C1010 1.390 . S
C1015 C1014 1.362 . S
C1016 C1005 1.492 . S
C1016 C1017 1.377 . S
C1016 C1021 1.397 . S
C1017 H980 0.931 . S
C1017 C1016 1.377 . S
C1017 C1018 1.376 . S
C1018 H981 0.930 . S
C1018 C1017 1.376 . S
C1018 C1019 1.376 . S
C1019 C1018 1.376 . S
C1019 C1020 1.378 . S
C1019 C1046 1.486 . S
C1020 H982 0.930 . S
C1020 C1019 1.378 . S
C1020 C1021 1.376 . S
C1021 H983 0.929 . S
C1021 C1016 1.397 . S
C1021 C1020 1.376 . S
C1022 C1006 1.509 . S
C1022 C1023 1.391 . S
C1022 C1027 1.386 . S
C1023 H984 0.930 . S
C1023 C1022 1.391 . S
C1023 C1024 1.375 . S
C1024 H985 0.931 . S
C1024 C1023 1.375 . S
C1024 C1025 1.375 . S
C1025 C1024 1.375 . S
C1025 C1026 1.361 . S
C1026 H986 0.930 . S
C1026 C1025 1.361 . S
C1026 C1027 1.399 . S
C1027 H987 0.929 . S
C1027 C1022 1.386 . S
C1027 C1026 1.399 . S
C1028 C1007 1.485 . S
C1028 C1029 1.394 . S
C1028 C1033 1.360 . S
C1029 H988 0.931 . S
C1029 C1028 1.394 . S
C1029 C1030 1.372 . S
C1030 H989 0.930 . S
C1030 C1029 1.372 . S
C1030 C1031 1.397 . S
C1031 C1030 1.397 . S
C1031 C1032 1.390 . S
C1031 C1047 1.476 . S
C1032 H990 0.930 . S
C1032 C1031 1.390 . S
C1032 C1033 1.366 . S
C1033 H991 0.932 . S
C1033 C1028 1.360 . S
C1033 C1032 1.366 . S
C1034 C1008 1.490 . S
C1034 C1035 1.380 . S
C1034 C1039 1.386 . S
C1035 H992 0.930 . S
C1035 C1034 1.380 . S
C1035 C1036 1.381 . S
C1036 H993 0.929 . S
C1036 C1035 1.381 . S
C1036 C1037 1.371 . S
C1037 C1036 1.371 . S
C1037 C1038 1.380 . S
C1038 H994 0.931 . S
C1038 C1037 1.380 . S
C1038 C1039 1.387 . S
C1039 H995 0.930 . S
C1039 C1034 1.386 . S
C1039 C1038 1.387 . S
C1040 C1009 1.519 . S
C1040 C1041 1.377 . S
C1040 C1045 1.361 . S
C1041 H996 0.929 . S
C1041 C1040 1.377 . S
C1041 C1042 1.386 . S
C1042 H997 0.931 . S
C1042 C1041 1.386 . S
C1042 C1043 1.363 . S
C1043 C1042 1.363 . S
C1043 C1044 1.385 . S
C1044 H998 0.930 . S
C1044 C1043 1.385 . S
C1044 C1045 1.396 . S
C1045 H999 0.929 . S
C1045 C1040 1.361 . S
C1045 C1044 1.396 . S
C1046 O1000 1.300 . S
C1046 O1001 1.209 . S
C1046 C1019 1.486 . S
C1047 O1002 1.199 . S
C1047 O1003 1.297 . S
C1047 C1031 1.476 . S
H1048 O1074 0.856 . S
H1049 O1077 0.854 . S
H1050 C1085 0.930 . S
H1051 C1086 0.930 . S
H1052 C1088 0.930 . S
H1053 C1089 0.930 . S
H1054 C1091 0.931 . S
H1055 C1092 0.954 . S
H1056 C1094 0.930 . S
H1057 C1095 0.929 . S
H1058 C1097 0.930 . S
H1059 C1098 0.931 . S
H1060 C1100 0.930 . S
H1061 C1101 0.929 . S
H1062 C1103 0.931 . S
H1063 C1104 0.930 . S
H1064 C1106 0.930 . S
H1065 C1107 0.932 . S
H1066 C1109 0.930 . S
H1067 C1110 0.929 . S
H1068 C1112 0.931 . S
H1069 C1113 0.930 . S
H1070 C1115 0.929 . S
H1071 C1116 0.931 . S
H1072 C1118 0.930 . S
H1073 C1119 0.929 . S
O1074 H1048 0.856 . S
O1074 C1120 1.300 . S
O1075 C1120 1.209 . S
O1076 C1121 1.199 1_545 S
O1077 H1049 0.854 . S
O1077 C1121 1.297 . S
C1078 C1079 1.404 . S
C1078 C1083 1.413 . S
C1078 C1084 1.492 . S
C1079 C1078 1.404 . S
C1079 C1080 1.396 . S
C1079 C1090 1.492 . S
C1080 C1079 1.396 . S
C1080 C1081 1.397 . S
C1080 C1096 1.509 . S
C1081 C1080 1.397 . S
C1081 C1082 1.411 . S
C1081 C1102 1.485 . S
C1082 C1081 1.411 . S
C1082 C1083 1.367 . S
C1082 C1108 1.488 1_565 S
C1083 C1078 1.413 . S
C1083 C1082 1.367 . S
C1083 C1114 1.533 1_565 S
C1084 C1078 1.492 . S
C1084 C1085 1.363 1_565 S
C1084 C1089 1.390 . S
C1085 H1050 0.930 . S
C1085 C1084 1.363 1_545 S
C1085 C1086 1.372 . S
C1086 H1051 0.930 . S
C1086 C1085 1.372 . S
C1086 C1087 1.383 . S
C1087 C1086 1.383 . S
C1087 C1088 1.395 1_545 S
C1088 H1052 0.930 . S
C1088 C1087 1.395 1_565 S
C1088 C1089 1.362 . S
C1089 H1053 0.930 . S
C1089 C1084 1.390 . S
C1089 C1088 1.362 . S
C1090 C1079 1.492 . S
C1090 C1091 1.377 1_565 S
C1090 C1095 1.397 . S
C1091 H1054 0.931 . S
C1091 C1090 1.377 1_545 S
C1091 C1092 1.388 . S
C1092 H1055 0.954 . S
C1092 C1091 1.388 . S
C1092 C1093 1.340 1_545 S
C1093 C1092 1.340 1_565 S
C1093 C1094 1.378 . S
C1093 C1120 1.486 . S
C1094 H1056 0.930 . S
C1094 C1093 1.378 . S
C1094 C1095 1.376 . S
C1095 H1057 0.929 . S
C1095 C1090 1.397 . S
C1095 C1094 1.376 . S
C1096 C1080 1.509 . S
C1096 C1097 1.391 1_565 S
C1096 C1101 1.386 . S
C1097 H1058 0.930 . S
C1097 C1096 1.391 1_545 S
C1097 C1098 1.375 . S
C1098 H1059 0.931 . S
C1098 C1097 1.375 . S
C1098 C1099 1.375 1_545 S
C1099 C1098 1.375 1_565 S
C1099 C1100 1.361 . S
C1100 H1060 0.930 . S
C1100 C1099 1.361 . S
C1100 C1101 1.399 . S
C1101 H1061 0.929 . S
C1101 C1096 1.386 . S
C1101 C1100 1.399 . S
C1102 C1081 1.485 . S
C1102 C1103 1.394 1_565 S
C1102 C1107 1.360 . S
C1103 H1062 0.931 . S
C1103 C1102 1.394 1_545 S
C1103 C1104 1.372 . S
C1104 H1063 0.930 . S
C1104 C1103 1.372 . S
C1104 C1105 1.397 1_545 S
C1105 C1104 1.397 1_565 S
C1105 C1106 1.390 . S
C1105 C1121 1.476 . S
C1106 H1064 0.930 . S
C1106 C1105 1.390 . S
C1106 C1107 1.366 . S
C1107 H1065 0.932 . S
C1107 C1102 1.360 . S
C1107 C1106 1.366 . S
C1108 C1082 1.488 1_545 S
C1108 C1109 1.380 . S
C1108 C1113 1.386 1_545 S
C1109 H1066 0.930 . S
C1109 C1108 1.380 . S
C1109 C1110 1.381 . S
C1110 H1067 0.929 . S
C1110 C1109 1.381 . S
C1110 C1111 1.371 . S
C1111 C1110 1.371 . S
C1111 C1112 1.380 1_545 S
C1112 H1068 0.931 . S
C1112 C1111 1.380 1_565 S
C1112 C1113 1.387 . S
C1113 H1069 0.930 . S
C1113 C1108 1.386 1_565 S
C1113 C1112 1.387 . S
C1114 C1083 1.533 1_545 S
C1114 C1115 1.377 . S
C1114 C1119 1.360 1_545 S
C1115 H1070 0.929 . S
C1115 C1114 1.377 . S
C1115 C1116 1.386 . S
C1116 H1071 0.931 . S
C1116 C1115 1.386 . S
C1116 C1117 1.363 1_545 S
C1117 C1116 1.363 1_565 S
C1117 C1118 1.385 . S
C1118 H1072 0.930 . S
C1118 C1117 1.385 . S
C1118 C1119 1.396 . S
C1119 H1073 0.929 . S
C1119 C1114 1.360 1_565 S
C1119 C1118 1.396 . S
C1120 O1074 1.300 . S
C1120 O1075 1.209 . S
C1120 C1093 1.486 . S
C1121 O1076 1.199 1_565 S
C1121 O1077 1.297 . S
C1121 C1105 1.476 . S
H1122 O1148 0.856 . S
H1123 O1151 0.854 . S
H1124 C1159 0.930 . S
H1125 C1160 0.930 . S
H1126 C1162 0.930 . S
H1127 C1163 0.930 . S
H1128 C1165 0.931 . S
H1129 C1166 0.930 . S
H1130 C1168 0.930 . S
H1131 C1169 0.929 . S
H1132 C1171 0.930 . S
H1133 C1172 0.931 . S
H1134 C1174 0.930 . S
H1135 C1175 0.929 . S
H1136 C1177 0.931 . S
H1137 C1178 0.930 . S
H1138 C1180 0.930 . S
H1139 C1181 0.932 . S
H1140 C1183 0.930 . S
H1141 C1184 0.929 . S
H1142 C1186 0.931 . S
H1143 C1187 0.930 . S
H1144 C1189 0.929 . S
H1145 C1190 0.931 . S
H1146 C1192 0.930 . S
H1147 C1193 0.929 . S
O1148 H1122 0.856 . S
O1148 C1194 1.300 . S
O1149 C1194 1.209 1_565 S
O1150 C1195 1.199 1_545 S
O1151 H1123 0.854 . S
O1151 C1195 1.297 . S
C1152 C1153 1.404 . S
C1152 C1157 1.397 1_545 S
C1152 C1158 1.492 . S
C1153 C1152 1.404 . S
C1153 C1154 1.396 . S
C1153 C1164 1.492 . S
C1154 C1153 1.396 . S
C1154 C1155 1.396 1_545 S
C1154 C1170 1.509 . S
C1155 C1154 1.396 1_565 S
C1155 C1156 1.421 . S
C1155 C1176 1.488 . S
C1156 C1155 1.421 . S
C1156 C1157 1.372 . S
C1156 C1182 1.487 . S
C1157 C1152 1.397 1_565 S
C1157 C1156 1.372 . S
C1157 C1188 1.519 . S
C1158 C1152 1.492 . S
C1158 C1159 1.363 . S
C1158 C1163 1.390 1_545 S
C1159 H1124 0.930 . S
C1159 C1158 1.363 . S
C1159 C1160 1.372 . S
C1160 H1125 0.930 . S
C1160 C1159 1.372 . S
C1160 C1161 1.383 . S
C1161 C1160 1.383 . S
C1161 C1162 1.395 1_545 S
C1162 H1126 0.930 . S
C1162 C1161 1.395 1_565 S
C1162 C1163 1.362 . S
C1163 H1127 0.930 . S
C1163 C1158 1.390 1_565 S
C1163 C1162 1.362 . S
C1164 C1153 1.492 . S
C1164 C1165 1.377 . S
C1164 C1169 1.397 1_545 S
C1165 H1128 0.931 . S
C1165 C1164 1.377 . S
C1165 C1166 1.376 . S
C1166 H1129 0.930 . S
C1166 C1165 1.376 . S
C1166 C1167 1.376 . S
C1167 C1166 1.376 . S
C1167 C1168 1.378 1_545 S
C1167 C1194 1.486 . S
C1168 H1130 0.930 . S
C1168 C1167 1.378 1_565 S
C1168 C1169 1.376 . S
C1169 H1131 0.929 . S
C1169 C1164 1.397 1_565 S
C1169 C1168 1.376 . S
C1170 C1154 1.509 . S
C1170 C1171 1.391 . S
C1170 C1175 1.386 1_545 S
C1171 H1132 0.930 . S
C1171 C1170 1.391 . S
C1171 C1172 1.375 . S
C1172 H1133 0.931 . S
C1172 C1171 1.375 . S
C1172 C1173 1.375 . S
C1173 C1172 1.375 . S
C1173 C1174 1.361 1_545 S
C1174 H1134 0.930 . S
C1174 C1173 1.361 1_565 S
C1174 C1175 1.399 . S
C1175 H1135 0.929 . S
C1175 C1170 1.386 1_565 S
C1175 C1174 1.399 . S
C1176 C1155 1.488 . S
C1176 C1177 1.394 1_565 S
C1176 C1181 1.360 . S
C1177 H1136 0.931 . S
C1177 C1176 1.394 1_545 S
C1177 C1178 1.372 . S
C1178 H1137 0.930 . S
C1178 C1177 1.372 . S
C1178 C1179 1.397 1_545 S
C1179 C1178 1.397 1_565 S
C1179 C1180 1.390 . S
C1179 C1195 1.476 . S
C1180 H1138 0.930 . S
C1180 C1179 1.390 . S
C1180 C1181 1.366 . S
C1181 H1139 0.932 . S
C1181 C1176 1.360 . S
C1181 C1180 1.366 . S
C1182 C1156 1.487 . S
C1182 C1183 1.343 1_565 S
C1182 C1187 1.434 . S
C1183 H1140 0.930 . S
C1183 C1182 1.343 1_545 S
C1183 C1184 1.381 . S
C1184 H1141 0.929 . S
C1184 C1183 1.381 . S
C1184 C1185 1.380 . S
C1185 C1184 1.380 . S
C1185 C1186 1.372 1_545 S
C1186 H1142 0.931 . S
C1186 C1185 1.372 1_565 S
C1186 C1187 1.387 . S
C1187 H1143 0.930 . S
C1187 C1182 1.434 . S
C1187 C1186 1.387 . S
C1188 C1157 1.519 . S
C1188 C1189 1.377 1_565 S
C1188 C1193 1.361 . S
C1189 H1144 0.929 . S
C1189 C1188 1.377 1_545 S
C1189 C1190 1.386 . S
C1190 H1145 0.931 . S
C1190 C1189 1.386 . S
C1190 C1191 1.363 1_545 S
C1191 C1190 1.363 1_565 S
C1191 C1192 1.385 . S
C1192 H1146 0.930 . S
C1192 C1191 1.385 . S
C1192 C1193 1.396 . S
C1193 H1147 0.929 . S
C1193 C1188 1.361 . S
C1193 C1192 1.396 . S
C1194 O1148 1.300 . S
C1194 O1149 1.209 1_545 S
C1194 C1167 1.486 . S
C1195 O1150 1.199 1_565 S
C1195 O1151 1.297 . S
C1195 C1179 1.476 . S
H1196 O1222 0.856 . S
H1197 O1225 0.854 . S
H1198 C1233 0.930 . S
H1199 C1234 0.930 . S
H1200 C1236 0.930 . S
H1201 C1237 0.930 . S
H1202 C1239 0.931 . S
H1203 C1240 0.930 . S
H1204 C1242 0.930 . S
H1205 C1243 0.929 . S
H1206 C1245 0.930 . S
H1207 C1246 0.931 . S
H1208 C1248 0.930 . S
H1209 C1249 0.929 . S
H1210 C1251 0.931 . S
H1211 C1252 0.930 . S
H1212 C1254 0.930 . S
H1213 C1255 0.932 . S
H1214 C1257 0.930 . S
H1215 C1258 0.929 . S
H1216 C1260 0.931 . S
H1217 C1261 0.930 . S
H1218 C1263 0.929 . S
H1219 C1264 0.931 . S
H1220 C1266 0.930 . S
H1221 C1267 0.929 . S
O1222 H1196 0.856 . S
O1222 C1268 1.300 . S
O1223 C1268 1.209 1_455 S
O1224 C1269 1.199 1_655 S
O1225 H1197 0.854 . S
O1225 C1269 1.297 . S
C1226 C1227 1.404 . S
C1226 C1231 1.396 1_655 S
C1226 C1232 1.492 . S
C1227 C1226 1.404 . S
C1227 C1228 1.396 . S
C1227 C1238 1.492 . S
C1228 C1227 1.396 . S
C1228 C1229 1.397 . S
C1228 C1244 1.509 . S
C1229 C1228 1.397 . S
C1229 C1230 1.395 1_655 S
C1229 C1250 1.489 1_655 S
C1230 C1229 1.395 1_455 S
C1230 C1231 1.413 . S
C1230 C1256 1.485 . S
C1231 C1226 1.396 1_455 S
C1231 C1230 1.413 . S
C1231 C1262 1.517 . S
C1232 C1226 1.492 . S
C1232 C1233 1.363 . S
C1232 C1237 1.390 1_655 S
C1233 H1198 0.930 . S
C1233 C1232 1.363 . S
C1233 C1234 1.372 . S
C1234 H1199 0.930 . S
C1234 C1233 1.372 . S
C1234 C1235 1.383 . S
C1235 C1234 1.383 . S
C1235 C1236 1.395 1_655 S
C1236 H1200 0.930 . S
C1236 C1235 1.395 1_455 S
C1236 C1237 1.362 . S
C1237 H1201 0.930 . S
C1237 C1232 1.390 1_455 S
C1237 C1236 1.362 . S
C1238 C1227 1.492 . S
C1238 C1239 1.377 . S
C1238 C1243 1.397 1_655 S
C1239 H1202 0.931 . S
C1239 C1238 1.377 . S
C1239 C1240 1.376 . S
C1240 H1203 0.930 . S
C1240 C1239 1.376 . S
C1240 C1241 1.376 . S
C1241 C1240 1.376 . S
C1241 C1242 1.378 1_655 S
C1241 C1268 1.486 . S
C1242 H1204 0.930 . S
C1242 C1241 1.378 1_455 S
C1242 C1243 1.376 . S
C1243 H1205 0.929 . S
C1243 C1238 1.397 1_455 S
C1243 C1242 1.376 . S
C1244 C1228 1.509 . S
C1244 C1245 1.391 . S
C1244 C1249 1.386 1_655 S
C1245 H1206 0.930 . S
C1245 C1244 1.391 . S
C1245 C1246 1.375 . S
C1246 H1207 0.931 . S
C1246 C1245 1.375 . S
C1246 C1247 1.375 . S
C1247 C1246 1.375 . S
C1247 C1248 1.361 1_655 S
C1248 H1208 0.930 . S
C1248 C1247 1.361 1_455 S
C1248 C1249 1.399 . S
C1249 H1209 0.929 . S
C1249 C1244 1.386 1_455 S
C1249 C1248 1.399 . S
C1250 C1229 1.489 1_455 S
C1250 C1251 1.394 1_455 S
C1250 C1255 1.360 . S
C1251 H1210 0.931 . S
C1251 C1250 1.394 1_655 S
C1251 C1252 1.372 . S
C1252 H1211 0.930 . S
C1252 C1251 1.372 . S
C1252 C1253 1.397 1_655 S
C1253 C1252 1.397 1_455 S
C1253 C1254 1.390 . S
C1253 C1269 1.476 . S
C1254 H1212 0.930 . S
C1254 C1253 1.390 . S
C1254 C1255 1.366 . S
C1255 H1213 0.932 . S
C1255 C1250 1.360 . S
C1255 C1254 1.366 . S
C1256 C1230 1.485 . S
C1256 C1257 1.380 1_455 S
C1256 C1261 1.386 . S
C1257 H1214 0.930 . S
C1257 C1256 1.380 1_655 S
C1257 C1258 1.381 . S
C1258 H1215 0.929 . S
C1258 C1257 1.381 . S
C1258 C1259 1.371 1_655 S
C1259 C1258 1.371 1_455 S
C1259 C1260 1.380 . S
C1260 H1216 0.931 . S
C1260 C1259 1.380 . S
C1260 C1261 1.387 . S
C1261 H1217 0.930 . S
C1261 C1256 1.386 . S
C1261 C1260 1.387 . S
C1262 C1231 1.517 . S
C1262 C1263 1.377 1_455 S
C1262 C1267 1.361 . S
C1263 H1218 0.929 . S
C1263 C1262 1.377 1_655 S
C1263 C1264 1.386 . S
C1264 H1219 0.931 . S
C1264 C1263 1.386 . S
C1264 C1265 1.363 1_655 S
C1265 C1264 1.363 1_455 S
C1265 C1266 1.385 . S
C1266 H1220 0.930 . S
C1266 C1265 1.385 . S
C1266 C1267 1.396 . S
C1267 H1221 0.929 . S
C1267 C1262 1.361 . S
C1267 C1266 1.396 . S
C1268 O1222 1.300 . S
C1268 O1223 1.209 1_655 S
C1268 C1241 1.486 . S
C1269 O1224 1.199 1_455 S
C1269 O1225 1.297 . S
C1269 C1253 1.476 . S
H1270 O1296 0.856 . S
H1271 O1299 0.854 . S
H1272 C1307 0.930 . S
H1273 C1308 0.930 . S
H1274 C1310 0.930 . S
H1275 C1311 0.930 . S
H1276 C1313 0.931 . S
H1277 C1314 0.930 . S
H1278 C1316 0.930 . S
H1279 C1317 0.929 . S
H1280 C1319 0.930 . S
H1281 C1320 0.931 . S
H1282 C1322 0.930 . S
H1283 C1323 0.929 . S
H1284 C1325 0.931 . S
H1285 C1326 0.930 . S
H1286 C1328 0.930 . S
H1287 C1329 0.932 . S
H1288 C1331 0.930 . S
H1289 C1332 0.929 . S
H1290 C1334 0.931 . S
H1291 C1335 0.930 . S
H1292 C1337 0.929 . S
H1293 C1338 0.931 . S
H1294 C1340 0.930 . S
H1295 C1341 0.929 . S
O1296 H1270 0.856 . S
O1296 C1342 1.300 . S
O1297 C1342 1.209 . S
O1298 C1343 1.199 . S
O1299 H1271 0.854 . S
O1299 C1343 1.297 . S
C1300 C1301 1.404 . S
C1300 C1305 1.397 . S
C1300 C1306 1.492 . S
C1301 C1300 1.404 . S
C1301 C1302 1.396 . S
C1301 C1312 1.492 . S
C1302 C1301 1.396 . S
C1302 C1303 1.397 . S
C1302 C1318 1.509 . S
C1303 C1302 1.397 . S
C1303 C1304 1.412 . S
C1303 C1324 1.485 . S
C1304 C1303 1.412 . S
C1304 C1305 1.388 . S
C1304 C1330 1.490 . S
C1305 C1300 1.397 . S
C1305 C1304 1.388 . S
C1305 C1336 1.519 . S
C1306 C1300 1.492 . S
C1306 C1307 1.363 . S
C1306 C1311 1.390 . S
C1307 H1272 0.930 . S
C1307 C1306 1.363 . S
C1307 C1308 1.372 . S
C1308 H1273 0.930 . S
C1308 C1307 1.372 . S
C1308 C1309 1.383 . S
C1309 C1308 1.383 . S
C1309 C1310 1.395 . S
C1310 H1274 0.930 . S
C1310 C1309 1.395 . S
C1310 C1311 1.362 . S
C1311 H1275 0.930 . S
C1311 C1306 1.390 . S
C1311 C1310 1.362 . S
C1312 C1301 1.492 . S
C1312 C1313 1.377 . S
C1312 C1317 1.397 . S
C1313 H1276 0.931 . S
C1313 C1312 1.377 . S
C1313 C1314 1.376 . S
C1314 H1277 0.930 . S
C1314 C1313 1.376 . S
C1314 C1315 1.376 . S
C1315 C1314 1.376 . S
C1315 C1316 1.378 . S
C1315 C1342 1.486 . S
C1316 H1278 0.930 . S
C1316 C1315 1.378 . S
C1316 C1317 1.376 . S
C1317 H1279 0.929 . S
C1317 C1312 1.397 . S
C1317 C1316 1.376 . S
C1318 C1302 1.509 . S
C1318 C1319 1.391 . S
C1318 C1323 1.386 . S
C1319 H1280 0.930 . S
C1319 C1318 1.391 . S
C1319 C1320 1.375 . S
C1320 H1281 0.931 . S
C1320 C1319 1.375 . S
C1320 C1321 1.375 . S
C1321 C1320 1.375 . S
C1321 C1322 1.361 . S
C1322 H1282 0.930 . S
C1322 C1321 1.361 . S
C1322 C1323 1.399 . S
C1323 H1283 0.929 . S
C1323 C1318 1.386 . S
C1323 C1322 1.399 . S
C1324 C1303 1.485 . S
C1324 C1325 1.394 . S
C1324 C1329 1.360 . S
C1325 H1284 0.931 . S
C1325 C1324 1.394 . S
C1325 C1326 1.372 . S
C1326 H1285 0.930 . S
C1326 C1325 1.372 . S
C1326 C1327 1.397 . S
C1327 C1326 1.397 . S
C1327 C1328 1.390 . S
C1327 C1343 1.476 . S
C1328 H1286 0.930 . S
C1328 C1327 1.390 . S
C1328 C1329 1.366 . S
C1329 H1287 0.932 . S
C1329 C1324 1.360 . S
C1329 C1328 1.366 . S
C1330 C1304 1.490 . S
C1330 C1331 1.380 . S
C1330 C1335 1.386 . S
C1331 H1288 0.930 . S
C1331 C1330 1.380 . S
C1331 C1332 1.381 . S
C1332 H1289 0.929 . S
C1332 C1331 1.381 . S
C1332 C1333 1.371 . S
C1333 C1332 1.371 . S
C1333 C1334 1.380 . S
C1334 H1290 0.931 . S
C1334 C1333 1.380 . S
C1334 C1335 1.387 . S
C1335 H1291 0.930 . S
C1335 C1330 1.386 . S
C1335 C1334 1.387 . S
C1336 C1305 1.519 . S
C1336 C1337 1.377 . S
C1336 C1341 1.361 . S
C1337 H1292 0.929 . S
C1337 C1336 1.377 . S
C1337 C1338 1.386 . S
C1338 H1293 0.931 . S
C1338 C1337 1.386 . S
C1338 C1339 1.363 . S
C1339 C1338 1.363 . S
C1339 C1340 1.385 . S
C1340 H1294 0.930 . S
C1340 C1339 1.385 . S
C1340 C1341 1.396 . S
C1341 H1295 0.929 . S
C1341 C1336 1.361 . S
C1341 C1340 1.396 . S
C1342 O1296 1.300 . S
C1342 O1297 1.209 . S
C1342 C1315 1.486 . S
C1343 O1298 1.199 . S
C1343 O1299 1.297 . S
C1343 C1327 1.476 . S
H1344 O1370 0.856 . S
H1345 O1373 0.854 . S
H1346 C1381 0.930 . S
H1347 C1382 0.930 . S
H1348 C1384 0.930 . S
H1349 C1385 0.930 . S
H1350 C1387 0.931 . S
H1351 C1388 0.930 . S
H1352 C1390 0.930 . S
H1353 C1391 0.929 . S
H1354 C1393 0.930 . S
H1355 C1394 0.931 . S
H1356 C1396 0.930 . S
H1357 C1397 0.929 . S
H1358 C1399 0.931 . S
H1359 C1400 0.930 . S
H1360 C1402 0.930 . S
H1361 C1403 0.932 . S
H1362 C1405 0.930 . S
H1363 C1406 0.929 . S
H1364 C1408 0.931 . S
H1365 C1409 0.930 . S
H1366 C1411 0.929 . S
H1367 C1412 0.931 . S
H1368 C1414 0.930 . S
H1369 C1415 0.929 . S
O1370 H1344 0.856 . S
O1370 C1416 1.300 . S
O1371 C1416 1.209 . S
O1372 C1417 1.199 . S
O1373 H1345 0.854 . S
O1373 C1417 1.297 . S
C1374 C1375 1.404 . S
C1374 C1379 1.397 . S
C1374 C1380 1.492 . S
C1375 C1374 1.404 . S
C1375 C1376 1.396 . S
C1375 C1386 1.492 . S
C1376 C1375 1.396 . S
C1376 C1377 1.397 . S
C1376 C1392 1.509 . S
C1377 C1376 1.397 . S
C1377 C1378 1.412 . S
C1377 C1398 1.485 . S
C1378 C1377 1.412 . S
C1378 C1379 1.388 . S
C1378 C1404 1.490 . S
C1379 C1374 1.397 . S
C1379 C1378 1.388 . S
C1379 C1410 1.519 . S
C1380 C1374 1.492 . S
C1380 C1381 1.363 . S
C1380 C1385 1.390 . S
C1381 H1346 0.930 . S
C1381 C1380 1.363 . S
C1381 C1382 1.372 . S
C1382 H1347 0.930 . S
C1382 C1381 1.372 . S
C1382 C1383 1.383 . S
C1383 C1382 1.383 . S
C1383 C1384 1.395 . S
C1384 H1348 0.930 . S
C1384 C1383 1.395 . S
C1384 C1385 1.362 . S
C1385 H1349 0.930 . S
C1385 C1380 1.390 . S
C1385 C1384 1.362 . S
C1386 C1375 1.492 . S
C1386 C1387 1.377 . S
C1386 C1391 1.397 . S
C1387 H1350 0.931 . S
C1387 C1386 1.377 . S
C1387 C1388 1.376 . S
C1388 H1351 0.930 . S
C1388 C1387 1.376 . S
C1388 C1389 1.376 . S
C1389 C1388 1.376 . S
C1389 C1390 1.378 . S
C1389 C1416 1.486 . S
C1390 H1352 0.930 . S
C1390 C1389 1.378 . S
C1390 C1391 1.376 . S
C1391 H1353 0.929 . S
C1391 C1386 1.397 . S
C1391 C1390 1.376 . S
C1392 C1376 1.509 . S
C1392 C1393 1.391 . S
C1392 C1397 1.386 . S
C1393 H1354 0.930 . S
C1393 C1392 1.391 . S
C1393 C1394 1.375 . S
C1394 H1355 0.931 . S
C1394 C1393 1.375 . S
C1394 C1395 1.375 . S
C1395 C1394 1.375 . S
C1395 C1396 1.361 . S
C1396 H1356 0.930 . S
C1396 C1395 1.361 . S
C1396 C1397 1.399 . S
C1397 H1357 0.929 . S
C1397 C1392 1.386 . S
C1397 C1396 1.399 . S
C1398 C1377 1.485 . S
C1398 C1399 1.394 . S
C1398 C1403 1.360 . S
C1399 H1358 0.931 . S
C1399 C1398 1.394 . S
C1399 C1400 1.372 . S
C1400 H1359 0.930 . S
C1400 C1399 1.372 . S
C1400 C1401 1.397 . S
C1401 C1400 1.397 . S
C1401 C1402 1.390 . S
C1401 C1417 1.476 . S
C1402 H1360 0.930 . S
C1402 C1401 1.390 . S
C1402 C1403 1.366 . S
C1403 H1361 0.932 . S
C1403 C1398 1.360 . S
C1403 C1402 1.366 . S
C1404 C1378 1.490 . S
C1404 C1405 1.380 . S
C1404 C1409 1.386 . S
C1405 H1362 0.930 . S
C1405 C1404 1.380 . S
C1405 C1406 1.381 . S
C1406 H1363 0.929 . S
C1406 C1405 1.381 . S
C1406 C1407 1.371 . S
C1407 C1406 1.371 . S
C1407 C1408 1.380 . S
C1408 H1364 0.931 . S
C1408 C1407 1.380 . S
C1408 C1409 1.387 . S
C1409 H1365 0.930 . S
C1409 C1404 1.386 . S
C1409 C1408 1.387 . S
C1410 C1379 1.519 . S
C1410 C1411 1.377 . S
C1410 C1415 1.361 . S
C1411 H1366 0.929 . S
C1411 C1410 1.377 . S
C1411 C1412 1.386 . S
C1412 H1367 0.931 . S
C1412 C1411 1.386 . S
C1412 C1413 1.363 . S
C1413 C1412 1.363 . S
C1413 C1414 1.385 . S
C1414 H1368 0.930 . S
C1414 C1413 1.385 . S
C1414 C1415 1.396 . S
C1415 H1369 0.929 . S
C1415 C1410 1.361 . S
C1415 C1414 1.396 . S
C1416 O1370 1.300 . S
C1416 O1371 1.209 . S
C1416 C1389 1.486 . S
C1417 O1372 1.199 . S
C1417 O1373 1.297 . S
C1417 C1401 1.476 . S
H1418 O1444 0.856 . S
H1419 O1447 0.854 . S
H1420 C1455 0.930 . S
H1421 C1456 0.930 . S
H1422 C1458 0.930 . S
H1423 C1459 0.930 . S
H1424 C1461 0.931 . S
H1425 C1462 0.930 . S
H1426 C1464 0.930 . S
H1427 C1465 0.929 . S
H1428 C1467 0.930 . S
H1429 C1468 0.931 . S
H1430 C1470 0.930 . S
H1431 C1471 0.929 . S
H1432 C1473 0.931 . S
H1433 C1474 0.930 . S
H1434 C1476 0.930 . S
H1435 C1477 0.932 . S
H1436 C1479 0.930 . S
H1437 C1480 0.929 . S
H1438 C1482 0.931 . S
H1439 C1483 0.930 . S
H1440 C1485 0.929 . S
H1441 C1486 0.931 . S
H1442 C1488 0.930 . S
H1443 C1489 0.929 . S
O1444 H1418 0.856 . S
O1444 C1490 1.300 . S
O1445 C1490 1.209 . S
O1446 C1491 1.199 . S
O1447 H1419 0.854 . S
O1447 C1491 1.297 . S
C1448 C1449 1.404 . S
C1448 C1453 1.397 . S
C1448 C1454 1.492 . S
C1449 C1448 1.404 . S
C1449 C1450 1.396 . S
C1449 C1460 1.492 . S
C1450 C1449 1.396 . S
C1450 C1451 1.397 . S
C1450 C1466 1.509 . S
C1451 C1450 1.397 . S
C1451 C1452 1.412 . S
C1451 C1472 1.485 . S
C1452 C1451 1.412 . S
C1452 C1453 1.388 . S
C1452 C1478 1.490 . S
C1453 C1448 1.397 . S
C1453 C1452 1.388 . S
C1453 C1484 1.519 . S
C1454 C1448 1.492 . S
C1454 C1455 1.363 . S
C1454 C1459 1.390 . S
C1455 H1420 0.930 . S
C1455 C1454 1.363 . S
C1455 C1456 1.372 . S
C1456 H1421 0.930 . S
C1456 C1455 1.372 . S
C1456 C1457 1.383 . S
C1457 C1456 1.383 . S
C1457 C1458 1.395 . S
C1458 H1422 0.930 . S
C1458 C1457 1.395 . S
C1458 C1459 1.362 . S
C1459 H1423 0.930 . S
C1459 C1454 1.390 . S
C1459 C1458 1.362 . S
C1460 C1449 1.492 . S
C1460 C1461 1.377 . S
C1460 C1465 1.397 . S
C1461 H1424 0.931 . S
C1461 C1460 1.377 . S
C1461 C1462 1.376 . S
C1462 H1425 0.930 . S
C1462 C1461 1.376 . S
C1462 C1463 1.376 . S
C1463 C1462 1.376 . S
C1463 C1464 1.378 . S
C1463 C1490 1.486 . S
C1464 H1426 0.930 . S
C1464 C1463 1.378 . S
C1464 C1465 1.376 . S
C1465 H1427 0.929 . S
C1465 C1460 1.397 . S
C1465 C1464 1.376 . S
C1466 C1450 1.509 . S
C1466 C1467 1.391 . S
C1466 C1471 1.386 . S
C1467 H1428 0.930 . S
C1467 C1466 1.391 . S
C1467 C1468 1.375 . S
C1468 H1429 0.931 . S
C1468 C1467 1.375 . S
C1468 C1469 1.375 . S
C1469 C1468 1.375 . S
C1469 C1470 1.361 . S
C1470 H1430 0.930 . S
C1470 C1469 1.361 . S
C1470 C1471 1.399 . S
C1471 H1431 0.929 . S
C1471 C1466 1.386 . S
C1471 C1470 1.399 . S
C1472 C1451 1.485 . S
C1472 C1473 1.394 . S
C1472 C1477 1.360 . S
C1473 H1432 0.931 . S
C1473 C1472 1.394 . S
C1473 C1474 1.372 . S
C1474 H1433 0.930 . S
C1474 C1473 1.372 . S
C1474 C1475 1.397 . S
C1475 C1474 1.397 . S
C1475 C1476 1.390 . S
C1475 C1491 1.476 . S
C1476 H1434 0.930 . S
C1476 C1475 1.390 . S
C1476 C1477 1.366 . S
C1477 H1435 0.932 . S
C1477 C1472 1.360 . S
C1477 C1476 1.366 . S
C1478 C1452 1.490 . S
C1478 C1479 1.380 . S
C1478 C1483 1.386 . S
C1479 H1436 0.930 . S
C1479 C1478 1.380 . S
C1479 C1480 1.381 . S
C1480 H1437 0.929 . S
C1480 C1479 1.381 . S
C1480 C1481 1.371 . S
C1481 C1480 1.371 . S
C1481 C1482 1.380 . S
C1482 H1438 0.931 . S
C1482 C1481 1.380 . S
C1482 C1483 1.387 . S
C1483 H1439 0.930 . S
C1483 C1478 1.386 . S
C1483 C1482 1.387 . S
C1484 C1453 1.519 . S
C1484 C1485 1.377 . S
C1484 C1489 1.361 . S
C1485 H1440 0.929 . S
C1485 C1484 1.377 . S
C1485 C1486 1.386 . S
C1486 H1441 0.931 . S
C1486 C1485 1.386 . S
C1486 C1487 1.363 . S
C1487 C1486 1.363 . S
C1487 C1488 1.385 . S
C1488 H1442 0.930 . S
C1488 C1487 1.385 . S
C1488 C1489 1.396 . S
C1489 H1443 0.929 . S
C1489 C1484 1.361 . S
C1489 C1488 1.396 . S
C1490 O1444 1.300 . S
C1490 O1445 1.209 . S
C1490 C1463 1.486 . S
C1491 O1446 1.199 . S
C1491 O1447 1.297 . S
C1491 C1475 1.476 . S
H1492 O1518 0.856 . S
H1493 O1521 0.854 . S
H1494 C1529 0.930 . S
H1495 C1530 0.930 . S
H1496 C1532 0.930 . S
H1497 C1533 0.930 . S
H1498 C1535 0.931 . S
H1499 C1536 0.930 . S
H1500 C1538 0.930 . S
H1501 C1539 0.929 . S
H1502 C1541 0.930 . S
H1503 C1542 0.931 . S
H1504 C1544 0.930 . S
H1505 C1545 0.929 . S
H1506 C1547 0.931 . S
H1507 C1548 0.930 . S
H1508 C1550 0.930 . S
H1509 C1551 0.932 . S
H1510 C1553 0.930 . S
H1511 C1554 0.929 . S
H1512 C1556 0.931 . S
H1513 C1557 0.930 . S
H1514 C1559 0.929 . S
H1515 C1560 0.931 . S
H1516 C1562 0.930 . S
H1517 C1563 0.929 . S
O1518 H1492 0.856 . S
O1518 C1564 1.300 . S
O1519 C1564 1.209 . S
O1520 C1565 1.199 . S
O1521 H1493 0.854 . S
O1521 C1565 1.297 . S
C1522 C1523 1.404 . S
C1522 C1527 1.397 . S
C1522 C1528 1.492 . S
C1523 C1522 1.404 . S
C1523 C1524 1.396 . S
C1523 C1534 1.492 . S
C1524 C1523 1.396 . S
C1524 C1525 1.397 . S
C1524 C1540 1.509 . S
C1525 C1524 1.397 . S
C1525 C1526 1.412 . S
C1525 C1546 1.485 . S
C1526 C1525 1.412 . S
C1526 C1527 1.388 . S
C1526 C1552 1.490 . S
C1527 C1522 1.397 . S
C1527 C1526 1.388 . S
C1527 C1558 1.519 . S
C1528 C1522 1.492 . S
C1528 C1529 1.363 . S
C1528 C1533 1.390 . S
C1529 H1494 0.930 . S
C1529 C1528 1.363 . S
C1529 C1530 1.372 . S
C1530 H1495 0.930 . S
C1530 C1529 1.372 . S
C1530 C1531 1.383 . S
C1531 C1530 1.383 . S
C1531 C1532 1.395 . S
C1532 H1496 0.930 . S
C1532 C1531 1.395 . S
C1532 C1533 1.362 . S
C1533 H1497 0.930 . S
C1533 C1528 1.390 . S
C1533 C1532 1.362 . S
C1534 C1523 1.492 . S
C1534 C1535 1.377 . S
C1534 C1539 1.397 . S
C1535 H1498 0.931 . S
C1535 C1534 1.377 . S
C1535 C1536 1.376 . S
C1536 H1499 0.930 . S
C1536 C1535 1.376 . S
C1536 C1537 1.376 . S
C1537 C1536 1.376 . S
C1537 C1538 1.378 . S
C1537 C1564 1.486 . S
C1538 H1500 0.930 . S
C1538 C1537 1.378 . S
C1538 C1539 1.376 . S
C1539 H1501 0.929 . S
C1539 C1534 1.397 . S
C1539 C1538 1.376 . S
C1540 C1524 1.509 . S
C1540 C1541 1.391 . S
C1540 C1545 1.386 . S
C1541 H1502 0.930 . S
C1541 C1540 1.391 . S
C1541 C1542 1.375 . S
C1542 H1503 0.931 . S
C1542 C1541 1.375 . S
C1542 C1543 1.375 . S
C1543 C1542 1.375 . S
C1543 C1544 1.361 . S
C1544 H1504 0.930 . S
C1544 C1543 1.361 . S
C1544 C1545 1.399 . S
C1545 H1505 0.929 . S
C1545 C1540 1.386 . S
C1545 C1544 1.399 . S
C1546 C1525 1.485 . S
C1546 C1547 1.394 . S
C1546 C1551 1.360 . S
C1547 H1506 0.931 . S
C1547 C1546 1.394 . S
C1547 C1548 1.372 . S
C1548 H1507 0.930 . S
C1548 C1547 1.372 . S
C1548 C1549 1.397 . S
C1549 C1548 1.397 . S
C1549 C1550 1.390 . S
C1549 C1565 1.476 . S
C1550 H1508 0.930 . S
C1550 C1549 1.390 . S
C1550 C1551 1.366 . S
C1551 H1509 0.932 . S
C1551 C1546 1.360 . S
C1551 C1550 1.366 . S
C1552 C1526 1.490 . S
C1552 C1553 1.380 . S
C1552 C1557 1.386 . S
C1553 H1510 0.930 . S
C1553 C1552 1.380 . S
C1553 C1554 1.381 . S
C1554 H1511 0.929 . S
C1554 C1553 1.381 . S
C1554 C1555 1.371 . S
C1555 C1554 1.371 . S
C1555 C1556 1.380 . S
C1556 H1512 0.931 . S
C1556 C1555 1.380 . S
C1556 C1557 1.387 . S
C1557 H1513 0.930 . S
C1557 C1552 1.386 . S
C1557 C1556 1.387 . S
C1558 C1527 1.519 . S
C1558 C1559 1.377 . S
C1558 C1563 1.361 . S
C1559 H1514 0.929 . S
C1559 C1558 1.377 . S
C1559 C1560 1.386 . S
C1560 H1515 0.931 . S
C1560 C1559 1.386 . S
C1560 C1561 1.363 . S
C1561 C1560 1.363 . S
C1561 C1562 1.385 . S
C1562 H1516 0.930 . S
C1562 C1561 1.385 . S
C1562 C1563 1.396 . S
C1563 H1517 0.929 . S
C1563 C1558 1.361 . S
C1563 C1562 1.396 . S
C1564 O1518 1.300 . S
C1564 O1519 1.209 . S
C1564 C1537 1.486 . S
C1565 O1520 1.199 . S
C1565 O1521 1.297 . S
C1565 C1549 1.476 . S
C1566 C1567 1.369 . S
C1566 C1568 1.419 . S
C1566 H1570 0.930 . S
C1567 C1566 1.369 . S
C1567 C1576 1.429 1_655 S
C1568 C1566 1.419 . S
C1568 C1569 1.363 . S
C1568 H1571 0.929 . S
C1569 C1568 1.363 . S
C1569 C1575 1.386 1_655 S
H1570 C1566 0.930 . S
H1571 C1568 0.929 . S
S1572 N1573 1.613 . S
S1572 N1574 1.610 . S
N1573 S1572 1.613 . S
N1573 C1576 1.350 . S
N1574 S1572 1.610 . S
N1574 C1575 1.369 . S
C1575 C1569 1.386 1_455 S
C1575 N1574 1.369 . S
C1575 C1576 1.464 . S
C1576 C1567 1.429 1_455 S
C1576 N1573 1.350 . S
C1576 C1575 1.464 . S
C1577 C1578 1.369 . S
C1577 C1579 1.419 . S
C1577 H1581 0.930 . S
C1578 C1577 1.369 . S
C1578 C1587 1.429 . S
C1579 C1577 1.419 . S
C1579 C1580 1.363 . S
C1579 H1582 0.929 . S
C1580 C1579 1.363 . S
C1580 C1586 1.428 . S
H1581 C1577 0.930 . S
H1582 C1579 0.929 . S
S1583 N1584 1.613 . S
S1583 N1585 1.610 . S
N1584 S1583 1.613 . S
N1584 C1587 1.350 . S
N1585 S1583 1.610 . S
N1585 C1586 1.351 . S
C1586 C1580 1.428 . S
C1586 N1585 1.351 . S
C1586 C1587 1.434 . S
C1587 C1578 1.429 . S
C1587 N1584 1.350 . S
C1587 C1586 1.434 . S
C1588 C1589 1.369 . S
C1588 C1590 1.419 . S
C1588 H1592 0.930 . S
C1589 C1588 1.369 . S
C1589 C1598 1.429 . S
C1590 C1588 1.419 . S
C1590 C1591 1.363 . S
C1590 H1593 0.929 . S
C1591 C1590 1.363 . S
C1591 C1597 1.428 . S
H1592 C1588 0.930 . S
H1593 C1590 0.929 . S
S1594 N1595 1.613 . S
S1594 N1596 1.610 . S
N1595 S1594 1.613 . S
N1595 C1598 1.350 . S
N1596 S1594 1.610 . S
N1596 C1597 1.351 . S
C1597 C1591 1.428 . S
C1597 N1596 1.351 . S
C1597 C1598 1.434 . S
C1598 C1589 1.429 . S
C1598 N1595 1.350 . S
C1598 C1597 1.434 . S
C1599 C1600 1.369 . S
C1599 C1601 1.419 . S
C1599 H1603 0.930 . S
C1600 C1599 1.369 . S
C1600 C1609 1.429 1_565 S
C1601 C1599 1.419 . S
C1601 C1602 1.363 . S
C1601 H1604 0.929 . S
C1602 C1601 1.363 . S
C1602 C1608 1.428 1_565 S
H1603 C1599 0.930 . S
H1604 C1601 0.929 . S
S1605 N1606 1.613 . S
S1605 N1607 1.610 . S
N1606 S1605 1.613 . S
N1606 C1609 1.350 . S
N1607 S1605 1.610 . S
N1607 C1608 1.351 . S
C1608 C1602 1.428 1_545 S
C1608 N1607 1.351 . S
C1608 C1609 1.434 . S
C1609 C1600 1.429 1_545 S
C1609 N1606 1.350 . S
C1609 C1608 1.434 . S
C1610 C1611 1.369 . S
C1610 C1612 1.419 . S
C1610 H1614 0.930 1_455 S
C1611 C1610 1.369 . S
C1611 C1620 1.429 . S
C1612 C1610 1.419 . S
C1612 C1613 1.363 . S
C1612 H1615 0.929 1_455 S
C1613 C1612 1.363 . S
C1613 C1619 1.428 . S
H1614 C1610 0.930 1_655 S
H1615 C1612 0.929 1_655 S
S1616 N1617 1.613 . S
S1616 N1618 1.610 . S
N1617 S1616 1.613 . S
N1617 C1620 1.350 . S
N1618 S1616 1.610 . S
N1618 C1619 1.351 . S
C1619 C1613 1.428 . S
C1619 N1618 1.351 . S
C1619 C1620 1.434 . S
C1620 C1611 1.429 . S
C1620 N1617 1.350 . S
C1620 C1619 1.434 . S
C1621 C1622 1.369 . S
C1621 C1623 1.419 . S
C1621 H1625 0.930 . S
C1622 C1621 1.369 . S
C1622 C1631 1.429 . S
C1623 C1621 1.419 . S
C1623 C1624 1.363 . S
C1623 H1626 0.929 . S
C1624 C1623 1.363 . S
C1624 C1630 1.428 . S
H1625 C1621 0.930 . S
H1626 C1623 0.929 . S
S1627 N1628 1.613 . S
S1627 N1629 1.610 1_554 S
N1628 S1627 1.613 . S
N1628 C1631 1.350 1_554 S
N1629 S1627 1.610 1_556 S
N1629 C1630 1.351 . S
C1630 C1624 1.428 . S
C1630 N1629 1.351 . S
C1630 C1631 1.434 . S
C1631 C1622 1.429 . S
C1631 N1628 1.350 1_556 S
C1631 C1630 1.434 . S
C1632 C1633 1.369 1_655 S
C1632 C1634 1.419 . S
C1632 H1636 0.930 . S
C1633 C1632 1.369 1_455 S
C1633 C1642 1.429 . S
C1634 C1632 1.419 . S
C1634 C1635 1.363 1_655 S
C1634 H1637 0.929 . S
C1635 C1634 1.363 1_455 S
C1635 C1641 1.428 . S
H1636 C1632 0.930 . S
H1637 C1634 0.929 . S
S1638 N1639 1.613 . S
S1638 N1640 1.610 . S
N1639 S1638 1.613 . S
N1639 C1642 1.348 . S
N1640 S1638 1.610 . S
N1640 C1641 1.351 . S
C1641 C1635 1.428 . S
C1641 N1640 1.351 . S
C1641 C1642 1.434 . S
C1642 C1633 1.429 . S
C1642 N1639 1.348 . S
C1642 C1641 1.434 . S
C1643 C1644 1.369 . S
C1643 C1645 1.419 . S
C1643 H1647 0.930 . S
C1644 C1643 1.369 . S
C1644 C1653 1.429 . S
C1645 C1643 1.419 . S
C1645 C1646 1.363 . S
C1645 H1648 0.929 . S
C1646 C1645 1.363 . S
C1646 C1652 1.428 . S
H1647 C1643 0.930 . S
H1648 C1645 0.929 . S
S1649 N1650 1.613 . S
S1649 N1651 1.610 . S
N1650 S1649 1.613 . S
N1650 C1653 1.350 . S
N1651 S1649 1.610 . S
N1651 C1652 1.351 . S
C1652 C1646 1.428 . S
C1652 N1651 1.351 . S
C1652 C1653 1.434 . S
C1653 C1644 1.429 . S
C1653 N1650 1.350 . S
C1653 C1652 1.434 . S
C1654 C1655 1.369 . S
C1654 C1656 1.419 . S
C1654 H1658 0.930 . S
C1655 C1654 1.369 . S
C1655 C1664 1.429 1_565 S
C1656 C1654 1.419 . S
C1656 C1657 1.339 1_565 S
C1656 H1659 0.929 . S
C1657 C1656 1.339 1_545 S
C1657 C1663 1.441 . S
H1658 C1654 0.930 . S
H1659 C1656 0.929 . S
S1660 N1661 1.613 . S
S1660 N1662 1.610 . S
N1661 S1660 1.613 . S
N1661 C1664 1.350 . S
N1662 S1660 1.610 . S
N1662 C1663 1.351 . S
C1663 C1657 1.441 . S
C1663 N1662 1.351 . S
C1663 C1664 1.434 . S
C1664 C1655 1.429 1_545 S
C1664 N1661 1.350 . S
C1664 C1663 1.434 . S
C1665 C1666 1.369 1_565 S
C1665 C1667 1.419 . S
C1665 H1669 0.930 . S
C1666 C1665 1.369 1_545 S
C1666 C1675 1.429 . S
C1667 C1665 1.419 . S
C1667 C1668 1.363 1_565 S
C1667 H1670 0.929 . S
C1668 C1667 1.363 1_545 S
C1668 C1674 1.428 . S
H1669 C1665 0.930 . S
H1670 C1667 0.929 . S
S1671 N1672 1.613 . S
S1671 N1673 1.610 . S
N1672 S1671 1.613 . S
N1672 C1675 1.350 . S
N1673 S1671 1.610 . S
N1673 C1674 1.351 . S
C1674 C1668 1.428 . S
C1674 N1673 1.351 . S
C1674 C1675 1.434 . S
C1675 C1666 1.429 . S
C1675 N1672 1.350 . S
C1675 C1674 1.434 . S
C1676 C1677 1.369 1_455 S
C1676 C1678 1.419 . S
C1676 H1680 0.930 . S
C1677 C1676 1.369 1_655 S
C1677 C1686 1.429 . S
C1678 C1676 1.419 . S
C1678 C1679 1.363 1_455 S
C1678 H1681 0.929 . S
C1679 C1678 1.363 1_655 S
C1679 C1685 1.428 . S
H1680 C1676 0.930 . S
H1681 C1678 0.929 . S
S1682 N1683 1.613 . S
S1682 N1684 1.610 . S
N1683 S1682 1.613 . S
N1683 C1686 1.350 . S
N1684 S1682 1.610 . S
N1684 C1685 1.351 . S
C1685 C1679 1.428 . S
C1685 N1684 1.351 . S
C1685 C1686 1.434 . S
C1686 C1677 1.429 . S
C1686 N1683 1.350 . S
C1686 C1685 1.434 . S
C1687 C1688 1.369 . S
C1687 C1689 1.419 . S
C1687 H1691 0.930 . S
C1688 C1687 1.369 . S
C1688 C1697 1.429 . S
C1689 C1687 1.419 . S
C1689 C1690 1.363 . S
C1689 H1692 0.929 . S
C1690 C1689 1.363 . S
C1690 C1696 1.428 . S
H1691 C1687 0.930 . S
H1692 C1689 0.929 . S
S1693 N1694 1.613 . S
S1693 N1695 1.610 . S
N1694 S1693 1.613 . S
N1694 C1697 1.350 . S
N1695 S1693 1.610 . S
N1695 C1696 1.351 . S
C1696 C1690 1.428 . S
C1696 N1695 1.351 . S
C1696 C1697 1.434 . S
C1697 C1688 1.429 . S
C1697 N1694 1.350 . S
C1697 C1696 1.434 . S
C1698 C1699 1.369 . S
C1698 C1700 1.419 . S
C1698 H1702 0.930 . S
C1699 C1698 1.369 . S
C1699 C1708 1.429 . S
C1700 C1698 1.419 . S
C1700 C1701 1.363 . S
C1700 H1703 0.929 . S
C1701 C1700 1.363 . S
C1701 C1707 1.428 . S
H1702 C1698 0.930 . S
H1703 C1700 0.929 . S
S1704 N1705 1.613 . S
S1704 N1706 1.610 . S
N1705 S1704 1.613 . S
N1705 C1708 1.350 . S
N1706 S1704 1.610 . S
N1706 C1707 1.351 . S
C1707 C1701 1.428 . S
C1707 N1706 1.351 . S
C1707 C1708 1.434 . S
C1708 C1699 1.429 . S
C1708 N1705 1.350 . S
C1708 C1707 1.434 . S
C1709 C1710 1.369 . S
C1709 C1711 1.419 . S
C1709 H1713 0.930 . S
C1710 C1709 1.369 . S
C1710 C1719 1.429 . S
C1711 C1709 1.419 . S
C1711 C1712 1.363 . S
C1711 H1714 0.929 . S
C1712 C1711 1.363 . S
C1712 C1718 1.428 . S
H1713 C1709 0.930 . S
H1714 C1711 0.929 . S
S1715 N1716 1.613 . S
S1715 N1717 1.610 . S
N1716 S1715 1.613 . S
N1716 C1719 1.350 . S
N1717 S1715 1.610 . S
N1717 C1718 1.351 . S
C1718 C1712 1.428 . S
C1718 N1717 1.351 . S
C1718 C1719 1.434 . S
C1719 C1710 1.429 . S
C1719 N1716 1.350 . S
C1719 C1718 1.434 . S
C1720 C1721 1.369 . S
C1720 C1722 1.419 . S
C1720 H1724 0.930 . S
C1721 C1720 1.369 . S
C1721 C1730 1.429 . S
C1722 C1720 1.419 . S
C1722 C1723 1.363 . S
C1722 H1725 0.929 . S
C1723 C1722 1.363 . S
C1723 C1729 1.428 . S
H1724 C1720 0.930 . S
H1725 C1722 0.929 . S
S1726 N1727 1.613 . S
S1726 N1728 1.610 . S
N1727 S1726 1.613 . S
N1727 C1730 1.350 . S
N1728 S1726 1.610 . S
N1728 C1729 1.351 . S
C1729 C1723 1.428 . S
C1729 N1728 1.351 . S
C1729 C1730 1.434 . S
C1730 C1721 1.429 . S
C1730 N1727 1.350 . S
C1730 C1729 1.434 . S
C1731 C1732 1.369 . S
C1731 C1733 1.419 . S
C1731 H1735 0.930 . S
C1732 C1731 1.369 . S
C1732 C1741 1.429 . S
C1733 C1731 1.419 . S
C1733 C1734 1.363 . S
C1733 H1736 0.929 . S
C1734 C1733 1.363 . S
C1734 C1740 1.428 . S
H1735 C1731 0.930 . S
H1736 C1733 0.929 . S
S1737 N1738 1.613 . S
S1737 N1739 1.610 . S
N1738 S1737 1.613 . S
N1738 C1741 1.350 . S
N1739 S1737 1.610 . S
N1739 C1740 1.351 . S
C1740 C1734 1.428 . S
C1740 N1739 1.351 . S
C1740 C1741 1.434 . S
C1741 C1732 1.429 . S
C1741 N1738 1.350 . S
C1741 C1740 1.434 . S
C1742 C1743 1.369 . S
C1742 C1744 1.419 . S
C1742 H1746 0.930 . S
C1743 C1742 1.369 . S
C1743 C1752 1.429 . S
C1744 C1742 1.419 . S
C1744 C1745 1.363 . S
C1744 H1747 0.929 . S
C1745 C1744 1.363 . S
C1745 C1751 1.428 . S
H1746 C1742 0.930 . S
H1747 C1744 0.929 . S
S1748 N1749 1.613 . S
S1748 N1750 1.610 . S
N1749 S1748 1.613 . S
N1749 C1752 1.350 . S
N1750 S1748 1.610 . S
N1750 C1751 1.351 . S
C1751 C1745 1.428 . S
C1751 N1750 1.351 . S
C1751 C1752 1.434 . S
C1752 C1743 1.429 . S
C1752 N1749 1.350 . S
C1752 C1751 1.434 . S
C1753 C1754 1.369 . S
C1753 C1755 1.419 . S
C1753 H1757 0.930 . S
C1754 C1753 1.369 . S
C1754 C1763 1.429 . S
C1755 C1753 1.419 . S
C1755 C1756 1.363 . S
C1755 H1758 0.929 . S
C1756 C1755 1.363 . S
C1756 C1762 1.428 . S
H1757 C1753 0.930 . S
H1758 C1755 0.929 . S
S1759 N1760 1.613 . S
S1759 N1761 1.610 . S
N1760 S1759 1.613 . S
N1760 C1763 1.350 . S
N1761 S1759 1.610 . S
N1761 C1762 1.351 . S
C1762 C1756 1.428 . S
C1762 N1761 1.351 . S
C1762 C1763 1.434 . S
C1763 C1754 1.429 . S
C1763 N1760 1.350 . S
C1763 C1762 1.434 . S
C1764 C1765 1.369 . S
C1764 C1766 1.419 . S
C1764 H1768 0.930 . S
C1765 C1764 1.369 . S
C1765 C1774 1.429 . S
C1766 C1764 1.419 . S
C1766 C1767 1.363 . S
C1766 H1769 0.929 . S
C1767 C1766 1.363 . S
C1767 C1773 1.428 . S
H1768 C1764 0.930 . S
H1769 C1766 0.929 . S
S1770 N1771 1.613 . S
S1770 N1772 1.610 . S
N1771 S1770 1.613 . S
N1771 C1774 1.350 . S
N1772 S1770 1.610 . S
N1772 C1773 1.351 . S
C1773 C1767 1.428 . S
C1773 N1772 1.351 . S
C1773 C1774 1.434 . S
C1774 C1765 1.429 . S
C1774 N1771 1.350 . S
C1774 C1773 1.434 . S
C1775 C1776 1.369 . S
C1775 C1777 1.419 . S
C1775 H1779 0.930 . S
C1776 C1775 1.369 . S
C1776 C1785 1.429 . S
C1777 C1775 1.419 . S
C1777 C1778 1.363 . S
C1777 H1780 0.929 . S
C1778 C1777 1.363 . S
C1778 C1784 1.428 . S
H1779 C1775 0.930 . S
H1780 C1777 0.929 . S
S1781 N1782 1.613 . S
S1781 N1783 1.610 . S
N1782 S1781 1.613 . S
N1782 C1785 1.350 . S
N1783 S1781 1.610 . S
N1783 C1784 1.351 . S
C1784 C1778 1.428 . S
C1784 N1783 1.351 . S
C1784 C1785 1.434 . S
C1785 C1776 1.429 . S
C1785 N1782 1.350 . S
C1785 C1784 1.434 . S
C1786 C1787 1.369 . S
C1786 C1788 1.419 . S
C1786 H1790 0.930 . S
C1787 C1786 1.369 . S
C1787 C1796 1.429 . S
C1788 C1786 1.419 . S
C1788 C1789 1.363 . S
C1788 H1791 0.929 . S
C1789 C1788 1.363 . S
C1789 C1795 1.428 . S
H1790 C1786 0.930 . S
H1791 C1788 0.929 . S
S1792 N1793 1.613 . S
S1792 N1794 1.610 . S
N1793 S1792 1.613 . S
N1793 C1796 1.350 . S
N1794 S1792 1.610 . S
N1794 C1795 1.351 . S
C1795 C1789 1.428 . S
C1795 N1794 1.351 . S
C1795 C1796 1.434 . S
C1796 C1787 1.429 . S
C1796 N1793 1.350 . S
C1796 C1795 1.434 . S
C1797 C1798 1.369 . S
C1797 C1799 1.419 . S
C1797 H1801 0.930 . S
C1798 C1797 1.369 . S
C1798 C1807 1.429 . S
C1799 C1797 1.419 . S
C1799 C1800 1.363 . S
C1799 H1802 0.929 . S
C1800 C1799 1.363 . S
C1800 C1806 1.428 . S
H1801 C1797 0.930 . S
H1802 C1799 0.929 . S
S1803 N1804 1.613 . S
S1803 N1805 1.610 . S
N1804 S1803 1.613 . S
N1804 C1807 1.350 . S
N1805 S1803 1.610 . S
N1805 C1806 1.351 . S
C1806 C1800 1.428 . S
C1806 N1805 1.351 . S
C1806 C1807 1.434 . S
C1807 C1798 1.429 . S
C1807 N1804 1.350 . S
C1807 C1806 1.434 . S
C1808 C1809 1.369 . S
C1808 C1810 1.419 . S
C1808 H1812 0.930 . S
C1809 C1808 1.369 . S
C1809 C1818 1.429 . S
C1810 C1808 1.419 . S
C1810 C1811 1.363 . S
C1810 H1813 0.929 . S
C1811 C1810 1.363 . S
C1811 C1817 1.428 . S
H1812 C1808 0.930 . S
H1813 C1810 0.929 . S
S1814 N1815 1.613 . S
S1814 N1816 1.610 . S
N1815 S1814 1.613 . S
N1815 C1818 1.350 . S
N1816 S1814 1.610 . S
N1816 C1817 1.351 . S
C1817 C1811 1.428 . S
C1817 N1816 1.351 . S
C1817 C1818 1.434 . S
C1818 C1809 1.429 . S
C1818 N1815 1.350 . S
C1818 C1817 1.434 . S
C1819 C1820 1.369 . S
C1819 C1821 1.419 . S
C1819 H1823 0.930 . S
C1820 C1819 1.369 . S
C1820 C1829 1.429 . S
C1821 C1819 1.419 . S
C1821 C1822 1.363 . S
C1821 H1824 0.929 . S
C1822 C1821 1.363 . S
C1822 C1828 1.428 . S
H1823 C1819 0.930 . S
H1824 C1821 0.929 . S
S1825 N1826 1.613 . S
S1825 N1827 1.610 . S
N1826 S1825 1.613 . S
N1826 C1829 1.350 . S
N1827 S1825 1.610 . S
N1827 C1828 1.351 . S
C1828 C1822 1.428 . S
C1828 N1827 1.351 . S
C1828 C1829 1.434 . S
C1829 C1820 1.429 . S
C1829 N1826 1.350 . S
C1829 C1828 1.434 . S
C1830 C1831 1.369 . S
C1830 C1832 1.419 . S
C1830 H1834 0.930 . S
C1831 C1830 1.369 . S
C1831 C1840 1.429 . S
C1832 C1830 1.419 . S
C1832 C1833 1.363 . S
C1832 H1835 0.929 . S
C1833 C1832 1.363 . S
C1833 C1839 1.428 . S
H1834 C1830 0.930 . S
H1835 C1832 0.929 . S
S1836 N1837 1.613 . S
S1836 N1838 1.610 . S
N1837 S1836 1.613 . S
N1837 C1840 1.350 . S
N1838 S1836 1.610 . S
N1838 C1839 1.351 . S
C1839 C1833 1.428 . S
C1839 N1838 1.351 . S
C1839 C1840 1.434 . S
C1840 C1831 1.429 . S
C1840 N1837 1.350 . S
C1840 C1839 1.434 . S
C1841 C1842 1.369 . S
C1841 C1843 1.419 . S
C1841 H1845 0.930 . S
C1842 C1841 1.369 . S
C1842 C1851 1.429 . S
C1843 C1841 1.419 . S
C1843 C1844 1.363 . S
C1843 H1846 0.929 . S
C1844 C1843 1.363 . S
C1844 C1850 1.428 . S
H1845 C1841 0.930 . S
H1846 C1843 0.929 . S
S1847 N1848 1.613 . S
S1847 N1849 1.610 . S
N1848 S1847 1.613 . S
N1848 C1851 1.350 . S
N1849 S1847 1.610 . S
N1849 C1850 1.351 . S
C1850 C1844 1.428 . S
C1850 N1849 1.351 . S
C1850 C1851 1.434 . S
C1851 C1842 1.429 . S
C1851 N1848 1.350 . S
C1851 C1850 1.434 . S
C1852 C1853 1.369 . S
C1852 C1854 1.419 . S
C1852 H1856 0.930 . S
C1853 C1852 1.369 . S
C1853 C1862 1.429 . S
C1854 C1852 1.419 . S
C1854 C1855 1.363 . S
C1854 H1857 0.929 . S
C1855 C1854 1.363 . S
C1855 C1861 1.428 . S
H1856 C1852 0.930 . S
H1857 C1854 0.929 . S
S1858 N1859 1.613 . S
S1858 N1860 1.610 . S
N1859 S1858 1.613 . S
N1859 C1862 1.350 . S
N1860 S1858 1.610 . S
N1860 C1861 1.351 . S
C1861 C1855 1.428 . S
C1861 N1860 1.351 . S
C1861 C1862 1.434 . S
C1862 C1853 1.429 . S
C1862 N1859 1.350 . S
C1862 C1861 1.434 . S
C1863 C1864 1.369 . S
C1863 C1865 1.419 . S
C1863 H1867 0.930 . S
C1864 C1863 1.369 . S
C1864 C1873 1.429 . S
C1865 C1863 1.419 . S
C1865 C1866 1.363 . S
C1865 H1868 0.929 . S
C1866 C1865 1.363 . S
C1866 C1872 1.428 . S
H1867 C1863 0.930 . S
H1868 C1865 0.929 . S
S1869 N1870 1.613 . S
S1869 N1871 1.610 . S
N1870 S1869 1.613 . S
N1870 C1873 1.350 . S
N1871 S1869 1.610 . S
N1871 C1872 1.351 . S
C1872 C1866 1.428 . S
C1872 N1871 1.351 . S
C1872 C1873 1.434 . S
C1873 C1864 1.429 . S
C1873 N1870 1.350 . S
C1873 C1872 1.434 . S
C1874 C1875 1.369 . S
C1874 C1876 1.419 . S
C1874 H1878 0.930 . S
C1875 C1874 1.369 . S
C1875 C1884 1.429 . S
C1876 C1874 1.419 . S
C1876 C1877 1.363 . S
C1876 H1879 0.929 . S
C1877 C1876 1.363 . S
C1877 C1883 1.428 . S
H1878 C1874 0.930 . S
H1879 C1876 0.929 . S
S1880 N1881 1.613 . S
S1880 N1882 1.610 . S
N1881 S1880 1.613 . S
N1881 C1884 1.350 . S
N1882 S1880 1.610 . S
N1882 C1883 1.351 . S
C1883 C1877 1.428 . S
C1883 N1882 1.351 . S
C1883 C1884 1.434 . S
C1884 C1875 1.429 . S
C1884 N1881 1.350 . S
C1884 C1883 1.434 . S
C1885 C1886 1.369 . S
C1885 C1887 1.419 . S
C1885 H1889 0.930 . S
C1886 C1885 1.369 . S
C1886 C1895 1.429 . S
C1887 C1885 1.419 . S
C1887 C1888 1.363 . S
C1887 H1890 0.929 . S
C1888 C1887 1.363 . S
C1888 C1894 1.428 . S
H1889 C1885 0.930 . S
H1890 C1887 0.929 . S
S1891 N1892 1.613 . S
S1891 N1893 1.610 . S
N1892 S1891 1.613 . S
N1892 C1895 1.350 . S
N1893 S1891 1.610 . S
N1893 C1894 1.351 . S
C1894 C1888 1.428 . S
C1894 N1893 1.351 . S
C1894 C1895 1.434 . S
C1895 C1886 1.429 . S
C1895 N1892 1.350 . S
C1895 C1894 1.434 . S
C1896 C1897 1.369 . S
C1896 C1898 1.419 . S
C1896 H1900 0.930 . S
C1897 C1896 1.369 . S
C1897 C1906 1.429 . S
C1898 C1896 1.419 . S
C1898 C1899 1.363 . S
C1898 H1901 0.929 . S
C1899 C1898 1.363 . S
C1899 C1905 1.428 . S
H1900 C1896 0.930 . S
H1901 C1898 0.929 . S
S1902 N1903 1.613 . S
S1902 N1904 1.610 . S
N1903 S1902 1.613 . S
N1903 C1906 1.350 . S
N1904 S1902 1.610 . S
N1904 C1905 1.351 . S
C1905 C1899 1.428 . S
C1905 N1904 1.351 . S
C1905 C1906 1.434 . S
C1906 C1897 1.429 . S
C1906 N1903 1.350 . S
C1906 C1905 1.434 . S
C1907 C1908 1.369 . S
C1907 C1909 1.419 . S
C1907 H1911 0.930 . S
C1908 C1907 1.369 . S
C1908 C1917 1.429 . S
C1909 C1907 1.419 . S
C1909 C1910 1.363 . S
C1909 H1912 0.929 . S
C1910 C1909 1.363 . S
C1910 C1916 1.428 . S
H1911 C1907 0.930 . S
H1912 C1909 0.929 . S
S1913 N1914 1.613 . S
S1913 N1915 1.610 . S
N1914 S1913 1.613 . S
N1914 C1917 1.350 . S
N1915 S1913 1.610 . S
N1915 C1916 1.351 . S
C1916 C1910 1.428 . S
C1916 N1915 1.351 . S
C1916 C1917 1.434 . S
C1917 C1908 1.429 . S
C1917 N1914 1.350 . S
C1917 C1916 1.434 . S
C1918 C1919 1.369 . S
C1918 C1920 1.419 . S
C1918 H1922 0.930 . S
C1919 C1918 1.369 . S
C1919 C1928 1.429 . S
C1920 C1918 1.419 . S
C1920 C1921 1.363 . S
C1920 H1923 0.929 . S
C1921 C1920 1.363 . S
C1921 C1927 1.428 . S
H1922 C1918 0.930 . S
H1923 C1920 0.929 . S
S1924 N1925 1.613 . S
S1924 N1926 1.610 . S
N1925 S1924 1.613 . S
N1925 C1928 1.350 . S
N1926 S1924 1.610 . S
N1926 C1927 1.351 . S
C1927 C1921 1.428 . S
C1927 N1926 1.351 . S
C1927 C1928 1.434 . S
C1928 C1919 1.429 . S
C1928 N1925 1.350 . S
C1928 C1927 1.434 . S
C1929 C1930 1.369 . S
C1929 C1931 1.419 . S
C1929 H1933 0.930 . S
C1930 C1929 1.369 . S
C1930 C1939 1.429 . S
C1931 C1929 1.419 . S
C1931 C1932 1.363 . S
C1931 H1934 0.929 . S
C1932 C1931 1.363 . S
C1932 C1938 1.428 . S
H1933 C1929 0.930 . S
H1934 C1931 0.929 . S
S1935 N1936 1.613 . S
S1935 N1937 1.610 . S
N1936 S1935 1.613 . S
N1936 C1939 1.350 . S
N1937 S1935 1.610 . S
N1937 C1938 1.351 . S
C1938 C1932 1.428 . S
C1938 N1937 1.351 . S
C1938 C1939 1.434 . S
C1939 C1930 1.429 . S
C1939 N1936 1.350 . S
C1939 C1938 1.434 . S
C1940 C1941 1.369 . S
C1940 C1942 1.419 . S
C1940 H1944 0.930 . S
C1941 C1940 1.369 . S
C1941 C1950 1.429 . S
C1942 C1940 1.419 . S
C1942 C1943 1.363 . S
C1942 H1945 0.929 . S
C1943 C1942 1.363 . S
C1943 C1949 1.428 . S
H1944 C1940 0.930 . S
H1945 C1942 0.929 . S
S1946 N1947 1.613 . S
S1946 N1948 1.610 . S
N1947 S1946 1.613 . S
N1947 C1950 1.350 . S
N1948 S1946 1.610 . S
N1948 C1949 1.351 . S
C1949 C1943 1.428 . S
C1949 N1948 1.351 . S
C1949 C1950 1.434 . S
C1950 C1941 1.429 . S
C1950 N1947 1.350 . S
C1950 C1949 1.434 . S
C1951 C1952 1.369 . S
C1951 C1953 1.419 . S
C1951 H1955 0.930 . S
C1952 C1951 1.369 . S
C1952 C1961 1.429 . S
C1953 C1951 1.419 . S
C1953 C1954 1.363 . S
C1953 H1956 0.929 . S
C1954 C1953 1.363 . S
C1954 C1960 1.428 . S
H1955 C1951 0.930 . S
H1956 C1953 0.929 . S
S1957 N1958 1.613 . S
S1957 N1959 1.610 . S
N1958 S1957 1.613 . S
N1958 C1961 1.350 . S
N1959 S1957 1.610 . S
N1959 C1960 1.351 . S
C1960 C1954 1.428 . S
C1960 N1959 1.351 . S
C1960 C1961 1.434 . S
C1961 C1952 1.429 . S
C1961 N1958 1.350 . S
C1961 C1960 1.434 . S
C1962 C1963 1.369 . S
C1962 C1964 1.419 . S
C1962 H1966 0.930 . S
C1963 C1962 1.369 . S
C1963 C1972 1.429 . S
C1964 C1962 1.419 . S
C1964 C1965 1.363 . S
C1964 H1967 0.929 . S
C1965 C1964 1.363 . S
C1965 C1971 1.428 . S
H1966 C1962 0.930 . S
H1967 C1964 0.929 . S
S1968 N1969 1.613 . S
S1968 N1970 1.610 . S
N1969 S1968 1.613 . S
N1969 C1972 1.350 . S
N1970 S1968 1.610 . S
N1970 C1971 1.351 . S
C1971 C1965 1.428 . S
C1971 N1970 1.351 . S
C1971 C1972 1.434 . S
C1972 C1963 1.429 . S
C1972 N1969 1.350 . S
C1972 C1971 1.434 . S
C1973 C1974 1.369 . S
C1973 C1975 1.419 . S
C1973 H1977 0.930 . S
C1974 C1973 1.369 . S
C1974 C1983 1.429 . S
C1975 C1973 1.419 . S
C1975 C1976 1.363 . S
C1975 H1978 0.929 . S
C1976 C1975 1.363 . S
C1976 C1982 1.428 . S
H1977 C1973 0.930 . S
H1978 C1975 0.929 . S
S1979 N1980 1.613 . S
S1979 N1981 1.610 . S
N1980 S1979 1.613 . S
N1980 C1983 1.350 . S
N1981 S1979 1.610 . S
N1981 C1982 1.351 . S
C1982 C1976 1.428 . S
C1982 N1981 1.351 . S
C1982 C1983 1.434 . S
C1983 C1974 1.429 . S
C1983 N1980 1.350 . S
C1983 C1982 1.434 . S
C1984 C1985 1.369 . S
C1984 C1986 1.419 . S
C1984 H1988 0.930 . S
C1985 C1984 1.369 . S
C1985 C1994 1.429 . S
C1986 C1984 1.419 . S
C1986 C1987 1.363 . S
C1986 H1989 0.929 . S
C1987 C1986 1.363 . S
C1987 C1993 1.428 . S
H1988 C1984 0.930 . S
H1989 C1986 0.929 . S
S1990 N1991 1.613 . S
S1990 N1992 1.610 . S
N1991 S1990 1.613 . S
N1991 C1994 1.350 . S
N1992 S1990 1.610 . S
N1992 C1993 1.351 . S
C1993 C1987 1.428 . S
C1993 N1992 1.351 . S
C1993 C1994 1.434 . S
C1994 C1985 1.429 . S
C1994 N1991 1.350 . S
C1994 C1993 1.434 . S
C1995 C1996 1.369 . S
C1995 C1997 1.419 . S
C1995 H1999 0.930 . S
C1996 C1995 1.369 . S
C1996 C2005 1.429 . S
C1997 C1995 1.419 . S
C1997 C1998 1.363 . S
C1997 H2000 0.929 . S
C1998 C1997 1.363 . S
C1998 C2004 1.428 . S
H1999 C1995 0.930 . S
H2000 C1997 0.929 . S
S2001 N2002 1.613 . S
S2001 N2003 1.602 1_554 S
N2002 S2001 1.613 . S
N2002 C2005 1.350 1_554 S
N2003 S2001 1.602 1_556 S
N2003 C2004 1.356 . S
C2004 C1998 1.428 . S
C2004 N2003 1.356 . S
C2004 C2005 1.434 . S
C2005 C1996 1.429 . S
C2005 N2002 1.350 1_556 S
C2005 C2004 1.434 . S
C2006 C2007 1.369 . S
C2006 C2008 1.419 . S
C2006 H2010 0.930 . S
C2007 C2006 1.369 . S
C2007 C2016 1.429 . S
C2008 C2006 1.419 . S
C2008 C2009 1.363 . S
C2008 H2011 0.929 . S
C2009 C2008 1.363 . S
C2009 C2015 1.428 . S
H2010 C2006 0.930 . S
H2011 C2008 0.929 . S
S2012 N2013 1.613 . S
S2012 N2014 1.610 . S
N2013 S2012 1.613 . S
N2013 C2016 1.350 . S
N2014 S2012 1.610 . S
N2014 C2015 1.351 . S
C2015 C2009 1.428 . S
C2015 N2014 1.351 . S
C2015 C2016 1.434 . S
C2016 C2007 1.429 . S
C2016 N2013 1.350 . S
C2016 C2015 1.434 . S
C2017 C2018 1.369 . S
C2017 C2019 1.419 1_554 S
C2017 H2021 0.930 1_554 S
C2018 C2017 1.369 . S
C2018 C2027 1.429 . S
C2019 C2017 1.419 1_556 S
C2019 C2020 1.363 . S
C2019 H2022 0.929 . S
C2020 C2019 1.363 . S
C2020 C2026 1.428 1_556 S
H2021 C2017 0.930 1_556 S
H2022 C2019 0.929 . S
S2023 N2024 1.613 . S
S2023 N2025 1.610 . S
N2024 S2023 1.613 . S
N2024 C2027 1.350 . S
N2025 S2023 1.610 . S
N2025 C2026 1.351 . S
C2026 C2020 1.428 1_554 S
C2026 N2025 1.351 . S
C2026 C2027 1.434 . S
C2027 C2018 1.429 . S
C2027 N2024 1.350 . S
C2027 C2026 1.434 . S
C2028 C2029 1.369 . S
C2028 C2030 1.419 . S
C2028 H2032 0.930 . S
C2029 C2028 1.369 . S
C2029 C2038 1.429 1_556 S
C2030 C2028 1.419 . S
C2030 C2031 1.363 . S
C2030 H2033 0.929 . S
C2031 C2030 1.363 . S
C2031 C2037 1.428 . S
H2032 C2028 0.930 . S
H2033 C2030 0.929 . S
S2034 N2035 1.613 . S
S2034 N2036 1.610 1_554 S
N2035 S2034 1.613 . S
N2035 C2038 1.350 . S
N2036 S2034 1.610 1_556 S
N2036 C2037 1.351 . S
C2037 C2031 1.428 . S
C2037 N2036 1.351 . S
C2037 C2038 1.434 1_556 S
C2038 C2029 1.429 1_554 S
C2038 N2035 1.350 . S
C2038 C2037 1.434 1_554 S
C2039 C2040 1.369 . S
C2039 C2041 1.419 . S
C2039 H2043 0.930 . S
C2040 C2039 1.369 . S
C2040 C2049 1.429 . S
C2041 C2039 1.419 . S
C2041 C2042 1.363 . S
C2041 H2044 0.929 . S
C2042 C2041 1.363 . S
C2042 C2048 1.428 . S
H2043 C2039 0.930 . S
H2044 C2041 0.929 . S
S2045 N2046 1.613 . S
S2045 N2047 1.610 . S
N2046 S2045 1.613 . S
N2046 C2049 1.350 . S
N2047 S2045 1.610 . S
N2047 C2048 1.351 . S
C2048 C2042 1.428 . S
C2048 N2047 1.351 . S
C2048 C2049 1.434 . S
C2049 C2040 1.429 . S
C2049 N2046 1.350 . S
C2049 C2048 1.434 . S
C2050 C2051 1.369 1_556 S
C2050 C2052 1.419 . S
C2050 H2054 0.930 . S
C2051 C2050 1.369 1_554 S
C2051 C2060 1.429 . S
C2052 C2050 1.419 . S
C2052 C2053 1.363 . S
C2052 H2055 0.929 . S
C2053 C2052 1.363 . S
C2053 C2059 1.428 . S
H2054 C2050 0.930 . S
H2055 C2052 0.929 . S
S2056 N2057 1.613 . S
S2056 N2058 1.610 1_554 S
N2057 S2056 1.613 . S
N2057 C2060 1.350 . S
N2058 S2056 1.610 1_556 S
N2058 C2059 1.351 . S
C2059 C2053 1.428 . S
C2059 N2058 1.351 . S
C2059 C2060 1.434 1_556 S
C2060 C2051 1.429 . S
C2060 N2057 1.350 . S
C2060 C2059 1.434 1_554 S
C2061 C2062 1.369 . S
C2061 C2063 1.419 . S
C2061 H2065 0.930 . S
C2062 C2061 1.369 . S
C2062 C2071 1.429 . S
C2063 C2061 1.419 . S
C2063 C2064 1.363 . S
C2063 H2066 0.929 . S
C2064 C2063 1.363 . S
C2064 C2070 1.428 . S
H2065 C2061 0.930 . S
H2066 C2063 0.929 . S
S2067 N2068 1.613 . S
S2067 N2069 1.610 . S
N2068 S2067 1.613 . S
N2068 C2071 1.350 . S
N2069 S2067 1.610 . S
N2069 C2070 1.351 . S
C2070 C2064 1.428 . S
C2070 N2069 1.351 . S
C2070 C2071 1.434 . S
C2071 C2062 1.429 . S
C2071 N2068 1.350 . S
C2071 C2070 1.434 . S
C2072 C2073 1.369 . S
C2072 C2074 1.419 . S
C2072 H2076 0.930 . S
C2073 C2072 1.369 . S
C2073 C2082 1.429 . S
C2074 C2072 1.419 . S
C2074 C2075 1.363 . S
C2074 H2077 0.929 . S
C2075 C2074 1.363 . S
C2075 C2081 1.428 . S
H2076 C2072 0.930 . S
H2077 C2074 0.929 . S
S2078 N2079 1.613 . S
S2078 N2080 1.610 . S
N2079 S2078 1.613 . S
N2079 C2082 1.350 . S
N2080 S2078 1.610 . S
N2080 C2081 1.351 . S
C2081 C2075 1.428 . S
C2081 N2080 1.351 . S
C2081 C2082 1.434 . S
C2082 C2073 1.429 . S
C2082 N2079 1.350 . S
C2082 C2081 1.434 . S
C2083 C2084 1.369 . S
C2083 C2085 1.419 . S
C2083 H2087 0.930 . S
C2084 C2083 1.369 . S
C2084 C2093 1.429 . S
C2085 C2083 1.419 . S
C2085 C2086 1.363 . S
C2085 H2088 0.929 . S
C2086 C2085 1.363 . S
C2086 C2092 1.428 . S
H2087 C2083 0.930 . S
H2088 C2085 0.929 . S
S2089 N2090 1.613 . S
S2089 N2091 1.610 . S
N2090 S2089 1.613 . S
N2090 C2093 1.350 . S
N2091 S2089 1.610 . S
N2091 C2092 1.351 . S
C2092 C2086 1.428 . S
C2092 N2091 1.351 . S
C2092 C2093 1.434 . S
C2093 C2084 1.429 . S
C2093 N2090 1.350 . S
C2093 C2092 1.434 . S
C2094 C2095 1.369 . S
C2094 C2096 1.419 . S
C2094 H2098 0.930 . S
C2095 C2094 1.369 . S
C2095 C2104 1.429 . S
C2096 C2094 1.419 . S
C2096 C2097 1.363 . S
C2096 H2099 0.929 . S
C2097 C2096 1.363 . S
C2097 C2103 1.428 . S
H2098 C2094 0.930 . S
H2099 C2096 0.929 . S
S2100 N2101 1.613 . S
S2100 N2102 1.610 . S
N2101 S2100 1.613 . S
N2101 C2104 1.350 . S
N2102 S2100 1.610 . S
N2102 C2103 1.351 . S
C2103 C2097 1.428 . S
C2103 N2102 1.351 . S
C2103 C2104 1.434 . S
C2104 C2095 1.429 . S
C2104 N2101 1.350 . S
C2104 C2103 1.434 . S
C2105 C2106 1.369 . S
C2105 C2107 1.419 . S
C2105 H2109 0.930 . S
C2106 C2105 1.369 . S
C2106 C2115 1.429 . S
C2107 C2105 1.419 . S
C2107 C2108 1.363 . S
C2107 H2110 0.929 . S
C2108 C2107 1.363 . S
C2108 C2114 1.428 . S
H2109 C2105 0.930 . S
H2110 C2107 0.929 . S
S2111 N2112 1.613 . S
S2111 N2113 1.610 . S
N2112 S2111 1.613 . S
N2112 C2115 1.350 . S
N2113 S2111 1.610 . S
N2113 C2114 1.351 . S
C2114 C2108 1.428 . S
C2114 N2113 1.351 . S
C2114 C2115 1.434 . S
C2115 C2106 1.429 . S
C2115 N2112 1.350 . S
C2115 C2114 1.434 . S
C2116 C2117 1.369 . S
C2116 C2118 1.419 . S
C2116 H2120 0.930 1_655 S
C2117 C2116 1.369 . S
C2117 C2126 1.429 . S
C2118 C2116 1.419 . S
C2118 C2119 1.363 . S
C2118 H2121 0.929 . S
C2119 C2118 1.363 . S
C2119 C2125 1.428 . S
H2120 C2116 0.930 1_455 S
H2121 C2118 0.929 . S
S2122 N2123 1.613 . S
S2122 N2124 1.610 . S
N2123 S2122 1.613 . S
N2123 C2126 1.350 . S
N2124 S2122 1.610 . S
N2124 C2125 1.351 . S
C2125 C2119 1.428 . S
C2125 N2124 1.351 . S
C2125 C2126 1.434 . S
C2126 C2117 1.429 . S
C2126 N2123 1.350 . S
C2126 C2125 1.434 . S
C2127 C2128 1.369 . S
C2127 C2129 1.419 . S
C2127 H2131 0.930 . S
C2128 C2127 1.369 . S
C2128 C2137 1.429 . S
C2129 C2127 1.419 . S
C2129 C2130 1.363 . S
C2129 H2132 0.929 . S
C2130 C2129 1.363 . S
C2130 C2136 1.428 . S
H2131 C2127 0.930 . S
H2132 C2129 0.929 . S
S2133 N2134 1.613 . S
S2133 N2135 1.610 . S
N2134 S2133 1.613 . S
N2134 C2137 1.350 . S
N2135 S2133 1.610 . S
N2135 C2136 1.351 . S
C2136 C2130 1.428 . S
C2136 N2135 1.351 . S
C2136 C2137 1.434 . S
C2137 C2128 1.429 . S
C2137 N2134 1.350 . S
C2137 C2136 1.434 . S
C2138 C2139 1.369 . S
C2138 C2140 1.419 . S
C2138 H2142 0.930 . S
C2139 C2138 1.369 . S
C2139 C2148 1.429 . S
C2140 C2138 1.419 . S
C2140 C2141 1.363 . S
C2140 H2143 0.929 . S
C2141 C2140 1.363 . S
C2141 C2147 1.428 . S
H2142 C2138 0.930 . S
H2143 C2140 0.929 . S
S2144 N2145 1.613 . S
S2144 N2146 1.610 . S
N2145 S2144 1.613 . S
N2145 C2148 1.350 . S
N2146 S2144 1.610 . S
N2146 C2147 1.351 . S
C2147 C2141 1.428 . S
C2147 N2146 1.351 . S
C2147 C2148 1.434 . S
C2148 C2139 1.429 . S
C2148 N2145 1.350 . S
C2148 C2147 1.434 . S
C2149 C2150 1.369 . S
C2149 C2151 1.419 . S
C2149 H2153 0.930 . S
C2150 C2149 1.369 . S
C2150 C2159 1.429 . S
C2151 C2149 1.419 . S
C2151 C2152 1.363 . S
C2151 H2154 0.929 . S
C2152 C2151 1.363 . S
C2152 C2158 1.428 . S
H2153 C2149 0.930 . S
H2154 C2151 0.929 . S
S2155 N2156 1.613 . S
S2155 N2157 1.610 . S
N2156 S2155 1.613 . S
N2156 C2159 1.350 . S
N2157 S2155 1.610 . S
N2157 C2158 1.351 . S
C2158 C2152 1.428 . S
C2158 N2157 1.351 . S
C2158 C2159 1.434 . S
C2159 C2150 1.429 . S
C2159 N2156 1.350 . S
C2159 C2158 1.434 . S
C2160 C2161 1.369 . S
C2160 C2162 1.419 . S
C2160 H2164 0.930 . S
C2161 C2160 1.369 . S
C2161 C2170 1.429 . S
C2162 C2160 1.419 . S
C2162 C2163 1.363 . S
C2162 H2165 0.929 . S
C2163 C2162 1.363 . S
C2163 C2169 1.428 . S
H2164 C2160 0.930 . S
H2165 C2162 0.929 . S
S2166 N2167 1.613 . S
S2166 N2168 1.610 . S
N2167 S2166 1.613 . S
N2167 C2170 1.350 . S
N2168 S2166 1.610 . S
N2168 C2169 1.351 . S
C2169 C2163 1.428 . S
C2169 N2168 1.351 . S
C2169 C2170 1.434 . S
C2170 C2161 1.429 . S
C2170 N2167 1.350 . S
C2170 C2169 1.434 . S
C2171 C2172 1.369 . S
C2171 C2173 1.419 . S
C2171 H2175 0.930 . S
C2172 C2171 1.369 . S
C2172 C2181 1.429 . S
C2173 C2171 1.419 . S
C2173 C2174 1.363 . S
C2173 H2176 0.929 . S
C2174 C2173 1.363 . S
C2174 C2180 1.428 1_455 S
H2175 C2171 0.930 . S
H2176 C2173 0.929 . S
S2177 N2178 1.613 . S
S2177 N2179 1.610 . S
N2178 S2177 1.613 . S
N2178 C2181 1.350 1_655 S
N2179 S2177 1.610 . S
N2179 C2180 1.351 . S
C2180 C2174 1.428 1_655 S
C2180 N2179 1.351 . S
C2180 C2181 1.434 1_655 S
C2181 C2172 1.429 . S
C2181 N2178 1.350 1_455 S
C2181 C2180 1.434 1_455 S
C2182 C2183 1.369 . S
C2182 C2184 1.419 . S
C2182 H2186 0.930 . S
C2183 C2182 1.369 . S
C2183 C2192 1.429 . S
C2184 C2182 1.419 . S
C2184 C2185 1.363 . S
C2184 H2187 0.929 . S
C2185 C2184 1.363 . S
C2185 C2191 1.428 . S
H2186 C2182 0.930 . S
H2187 C2184 0.929 . S
S2188 N2189 1.613 . S
S2188 N2190 1.610 . S
N2189 S2188 1.613 . S
N2189 C2192 1.350 . S
N2190 S2188 1.610 . S
N2190 C2191 1.351 . S
C2191 C2185 1.428 . S
C2191 N2190 1.351 . S
C2191 C2192 1.434 . S
C2192 C2183 1.429 . S
C2192 N2189 1.350 . S
C2192 C2191 1.434 . S
C2193 C2194 1.369 . S
C2193 C2195 1.419 . S
C2193 H2197 0.930 . S
C2194 C2193 1.369 . S
C2194 C2203 1.429 . S
C2195 C2193 1.419 . S
C2195 C2196 1.363 . S
C2195 H2198 0.929 . S
C2196 C2195 1.363 . S
C2196 C2202 1.428 . S
H2197 C2193 0.930 . S
H2198 C2195 0.929 . S
S2199 N2200 1.613 . S
S2199 N2201 1.610 . S
N2200 S2199 1.613 . S
N2200 C2203 1.350 . S
N2201 S2199 1.610 . S
N2201 C2202 1.351 . S
C2202 C2196 1.428 . S
C2202 N2201 1.351 . S
C2202 C2203 1.434 . S
C2203 C2194 1.429 . S
C2203 N2200 1.350 . S
C2203 C2202 1.434 . S
C2204 C2205 1.369 . S
C2204 C2206 1.419 . S
C2204 H2208 0.930 . S
C2205 C2204 1.369 . S
C2205 C2214 1.429 . S
C2206 C2204 1.419 . S
C2206 C2207 1.363 . S
C2206 H2209 0.929 . S
C2207 C2206 1.363 . S
C2207 C2213 1.428 . S
H2208 C2204 0.930 . S
H2209 C2206 0.929 . S
S2210 N2211 1.613 . S
S2210 N2212 1.610 . S
N2211 S2210 1.613 . S
N2211 C2214 1.350 . S
N2212 S2210 1.610 . S
N2212 C2213 1.351 . S
C2213 C2207 1.428 . S
C2213 N2212 1.351 . S
C2213 C2214 1.434 . S
C2214 C2205 1.429 . S
C2214 N2211 1.350 . S
C2214 C2213 1.434 . S
C2215 C2216 1.369 . S
C2215 C2217 1.419 . S
C2215 H2219 0.930 . S
C2216 C2215 1.369 . S
C2216 C2225 1.429 . S
C2217 C2215 1.419 . S
C2217 C2218 1.363 . S
C2217 H2220 0.929 . S
C2218 C2217 1.363 . S
C2218 C2224 1.428 . S
H2219 C2215 0.930 . S
H2220 C2217 0.929 . S
S2221 N2222 1.613 . S
S2221 N2223 1.610 . S
N2222 S2221 1.613 . S
N2222 C2225 1.350 . S
N2223 S2221 1.610 . S
N2223 C2224 1.351 . S
C2224 C2218 1.428 . S
C2224 N2223 1.351 . S
C2224 C2225 1.434 . S
C2225 C2216 1.429 . S
C2225 N2222 1.350 . S
C2225 C2224 1.434 . S
C2226 C2227 1.369 . S
C2226 C2228 1.419 . S
C2226 H2230 0.930 . S
C2227 C2226 1.369 . S
C2227 C2236 1.429 . S
C2228 C2226 1.419 . S
C2228 C2229 1.363 . S
C2228 H2231 0.929 . S
C2229 C2228 1.363 . S
C2229 C2235 1.428 . S
H2230 C2226 0.930 . S
H2231 C2228 0.929 . S
S2232 N2233 1.613 . S
S2232 N2234 1.610 . S
N2233 S2232 1.613 . S
N2233 C2236 1.350 1_565 S
N2234 S2232 1.610 . S
N2234 C2235 1.351 1_565 S
C2235 C2229 1.428 . S
C2235 N2234 1.351 1_545 S
C2235 C2236 1.434 . S
C2236 C2227 1.429 . S
C2236 N2233 1.350 1_545 S
C2236 C2235 1.434 . S
C2237 C2238 1.369 . S
C2237 C2239 1.419 . S
C2237 H2241 0.930 . S
C2238 C2237 1.369 . S
C2238 C2247 1.429 . S
C2239 C2237 1.419 . S
C2239 C2240 1.363 . S
C2239 H2242 0.929 . S
C2240 C2239 1.363 . S
C2240 C2246 1.433 1_655 S
H2241 C2237 0.930 . S
H2242 C2239 0.929 . S
S2243 N2244 1.613 . S
S2243 N2245 1.610 . S
N2244 S2243 1.613 . S
N2244 C2247 1.350 1_455 S
N2245 S2243 1.610 . S
N2245 C2246 1.348 . S
C2246 C2240 1.433 1_455 S
C2246 N2245 1.348 . S
C2246 C2247 1.432 1_455 S
C2247 C2238 1.429 . S
C2247 N2244 1.350 1_655 S
C2247 C2246 1.432 1_655 S
C2248 C2249 1.369 . S
C2248 C2250 1.419 . S
C2248 H2252 0.930 . S
C2249 C2248 1.369 . S
C2249 C2258 1.429 . S
C2250 C2248 1.419 . S
C2250 C2251 1.363 . S
C2250 H2253 0.929 . S
C2251 C2250 1.363 . S
C2251 C2257 1.428 . S
H2252 C2248 0.930 . S
H2253 C2250 0.929 . S
S2254 N2255 1.613 . S
S2254 N2256 1.610 . S
N2255 S2254 1.613 . S
N2255 C2258 1.350 . S
N2256 S2254 1.610 . S
N2256 C2257 1.351 . S
C2257 C2251 1.428 . S
C2257 N2256 1.351 . S
C2257 C2258 1.434 . S
C2258 C2249 1.429 . S
C2258 N2255 1.350 . S
C2258 C2257 1.434 . S
C2259 C2260 1.369 . S
C2259 C2261 1.419 . S
C2259 H2263 0.930 . S
C2260 C2259 1.369 . S
C2260 C2269 1.429 . S
C2261 C2259 1.419 . S
C2261 C2262 1.363 . S
C2261 H2264 0.929 . S
C2262 C2261 1.363 . S
C2262 C2268 1.428 . S
H2263 C2259 0.930 . S
H2264 C2261 0.929 . S
S2265 N2266 1.613 . S
S2265 N2267 1.610 . S
N2266 S2265 1.613 . S
N2266 C2269 1.350 . S
N2267 S2265 1.610 . S
N2267 C2268 1.351 . S
C2268 C2262 1.428 . S
C2268 N2267 1.351 . S
C2268 C2269 1.434 . S
C2269 C2260 1.429 . S
C2269 N2266 1.350 . S
C2269 C2268 1.434 . S
C2270 C2271 1.369 . S
C2270 C2272 1.419 . S
C2270 H2274 0.930 . S
C2271 C2270 1.369 . S
C2271 C2280 1.429 . S
C2272 C2270 1.419 . S
C2272 C2273 1.363 . S
C2272 H2275 0.929 . S
C2273 C2272 1.363 . S
C2273 C2279 1.428 . S
H2274 C2270 0.930 . S
H2275 C2272 0.929 . S
S2276 N2277 1.613 . S
S2276 N2278 1.610 . S
N2277 S2276 1.613 . S
N2277 C2280 1.350 . S
N2278 S2276 1.610 . S
N2278 C2279 1.351 . S
C2279 C2273 1.428 . S
C2279 N2278 1.351 . S
C2279 C2280 1.434 . S
C2280 C2271 1.429 . S
C2280 N2277 1.350 . S
C2280 C2279 1.434 . S
C2281 C2282 1.369 . S
C2281 C2283 1.419 . S
C2281 H2285 0.930 . S
C2282 C2281 1.369 . S
C2282 C2291 1.429 . S
C2283 C2281 1.419 . S
C2283 C2284 1.363 . S
C2283 H2286 0.929 . S
C2284 C2283 1.363 . S
C2284 C2290 1.428 . S
H2285 C2281 0.930 . S
H2286 C2283 0.929 . S
S2287 N2288 1.629 . S
S2287 N2289 1.610 . S
N2288 S2287 1.629 . S
N2288 C2291 1.368 . S
N2289 S2287 1.610 . S
N2289 C2290 1.351 . S
C2290 C2284 1.428 . S
C2290 N2289 1.351 . S
C2290 C2291 1.434 . S
C2291 C2282 1.429 . S
C2291 N2288 1.368 . S
C2291 C2290 1.434 . S
C2292 C2293 1.369 . S
C2292 C2294 1.419 . S
C2292 H2296 0.930 . S
C2293 C2292 1.369 . S
C2293 C2302 1.429 . S
C2294 C2292 1.419 . S
C2294 C2295 1.363 . S
C2294 H2297 0.929 . S
C2295 C2294 1.363 . S
C2295 C2301 1.428 . S
H2296 C2292 0.930 . S
H2297 C2294 0.929 . S
S2298 N2299 1.613 . S
S2298 N2300 1.610 . S
N2299 S2298 1.613 . S
N2299 C2302 1.350 . S
N2300 S2298 1.610 . S
N2300 C2301 1.351 . S
C2301 C2295 1.428 . S
C2301 N2300 1.351 . S
C2301 C2302 1.434 . S
C2302 C2293 1.429 . S
C2302 N2299 1.350 . S
C2302 C2301 1.434 . S
C2303 C2304 1.369 . S
C2303 C2305 1.419 . S
C2303 H2307 0.930 . S
C2304 C2303 1.369 . S
C2304 C2313 1.429 . S
C2305 C2303 1.419 . S
C2305 C2306 1.363 . S
C2305 H2308 0.929 . S
C2306 C2305 1.363 . S
C2306 C2312 1.428 . S
H2307 C2303 0.930 . S
H2308 C2305 0.929 . S
S2309 N2310 1.613 . S
S2309 N2311 1.610 . S
N2310 S2309 1.613 . S
N2310 C2313 1.350 . S
N2311 S2309 1.610 . S
N2311 C2312 1.351 . S
C2312 C2306 1.428 . S
C2312 N2311 1.351 . S
C2312 C2313 1.434 . S
C2313 C2304 1.429 . S
C2313 N2310 1.350 . S
C2313 C2312 1.434 . S
C2314 C2315 1.369 . S
C2314 C2316 1.419 . S
C2314 H2318 0.930 . S
C2315 C2314 1.369 . S
C2315 C2324 1.429 . S
C2316 C2314 1.419 . S
C2316 C2317 1.363 . S
C2316 H2319 0.929 . S
C2317 C2316 1.363 . S
C2317 C2323 1.428 . S
H2318 C2314 0.930 . S
H2319 C2316 0.929 . S
S2320 N2321 1.613 . S
S2320 N2322 1.610 . S
N2321 S2320 1.613 . S
N2321 C2324 1.350 . S
N2322 S2320 1.610 . S
N2322 C2323 1.351 . S
C2323 C2317 1.428 . S
C2323 N2322 1.351 . S
C2323 C2324 1.434 . S
C2324 C2315 1.429 . S
C2324 N2321 1.350 . S
C2324 C2323 1.434 . S
C2325 C2326 1.369 . S
C2325 C2327 1.419 . S
C2325 H2329 0.930 . S
C2326 C2325 1.369 . S
C2326 C2335 1.429 . S
C2327 C2325 1.419 . S
C2327 C2328 1.363 . S
C2327 H2330 0.929 . S
C2328 C2327 1.363 . S
C2328 C2334 1.428 . S
H2329 C2325 0.930 . S
H2330 C2327 0.929 . S
S2331 N2332 1.604 1_455 S
S2331 N2333 1.614 . S
N2332 S2331 1.604 1_655 S
N2332 C2335 1.350 . S
N2333 S2331 1.614 . S
N2333 C2334 1.351 1_455 S
C2334 C2328 1.428 . S
C2334 N2333 1.351 1_655 S
C2334 C2335 1.434 . S
C2335 C2326 1.429 . S
C2335 N2332 1.350 . S
C2335 C2334 1.434 . S
C2336 C2337 1.369 . S
C2336 C2338 1.419 . S
C2336 H2340 0.930 . S
C2337 C2336 1.369 . S
C2337 C2346 1.429 . S
C2338 C2336 1.419 . S
C2338 C2339 1.363 . S
C2338 H2341 0.929 . S
C2339 C2338 1.363 . S
C2339 C2345 1.428 . S
H2340 C2336 0.930 . S
H2341 C2338 0.929 . S
S2342 N2343 1.613 . S
S2342 N2344 1.610 . S
N2343 S2342 1.613 . S
N2343 C2346 1.350 . S
N2344 S2342 1.610 . S
N2344 C2345 1.351 . S
C2345 C2339 1.428 . S
C2345 N2344 1.351 . S
C2345 C2346 1.434 . S
C2346 C2337 1.429 . S
C2346 N2343 1.350 . S
C2346 C2345 1.434 . S
C2347 C2348 1.369 . S
C2347 C2349 1.419 . S
C2347 H2351 0.930 . S
C2348 C2347 1.369 . S
C2348 C2357 1.429 . S
C2349 C2347 1.419 . S
C2349 C2350 1.363 . S
C2349 H2352 0.929 . S
C2350 C2349 1.363 . S
C2350 C2356 1.428 . S
H2351 C2347 0.930 . S
H2352 C2349 0.929 . S
S2353 N2354 1.613 . S
S2353 N2355 1.610 . S
N2354 S2353 1.613 . S
N2354 C2357 1.350 . S
N2355 S2353 1.610 . S
N2355 C2356 1.351 . S
C2356 C2350 1.428 . S
C2356 N2355 1.351 . S
C2356 C2357 1.434 . S
C2357 C2348 1.429 . S
C2357 N2354 1.350 . S
C2357 C2356 1.434 . S
C1567 C10 1.392 . S
C1569 C963 1.268 . S
C1578 C23 1.645 . S
C1580 C1043 1.584 . S
C1591 C1111 1.420 . S
C1589 C29 1.477 . S
C1600 C30 1.825 . S
C1602 C1191 1.777 . S
C1611 C5 1.632 . S
C1613 C1265 1.592 . S
C1622 C18 1.673 1_556 S
C1624 C1333 1.578 . S
C1633 C49 1.251 1_556 S
C1635 C1259 1.194 . S
C1646 C1339 1.503 . S
C1644 C62 1.506 . S
C1657 C1185 1.374 . S
C1655 C70 1.347 1_556 S
C1666 C75 1.758 . S
C1668 C1117 1.744 1_545 S
C1679 C969 1.550 . S
C1677 C44 1.538 . S
C1688 C57 1.478 . S
C1690 C1037 1.460 . S
C1699 C88 1.522 . S
C1701 C1407 1.385 . S
C1710 C101 1.683 . S
C1712 C1487 1.613 . S
C1723 C1555 1.527 . S
C1721 C107 1.618 . S
C1732 C108 1.939 . S
C1734 C303 1.862 . S
C1743 C83 1.747 . S
C1745 C377 1.677 . S
C1754 C96 1.693 . S
C1756 C445 1.598 . S
C1765 C127 1.260 . S
C1767 C371 1.219 . S
C1776 C140 1.528 . S
C1778 C451 1.520 . S
C1789 C297 1.403 . S
C1787 C146 1.421 . S
C1800 C1561 1.814 . S
C1798 C147 1.836 . S
C1811 C1413 1.573 . S
C1809 C122 1.584 . S
C1822 C1481 1.492 . S
C1820 C135 1.508 . S
C1831 C160 1.471 . S
C1833 C519 1.347 . S
C1842 C173 1.678 . S
C1844 C599 1.615 . S
C1853 C185 1.613 . S
C1855 C667 1.526 . S
C1864 C186 1.978 . S
C1866 C747 1.897 . S
C1877 C821 1.677 . S
C1875 C159 1.753 . S
C1888 C889 1.617 . S
C1886 C172 1.721 . S
C1899 C815 1.261 . S
C1897 C205 1.306 . S
C1910 C895 1.522 . S
C1908 C218 1.529 . S
C1919 C224 1.416 . S
C1921 C741 1.401 . S
C1932 C673 1.781 . S
C1930 C225 1.799 . S
C1941 C200 1.587 . S
C1943 C525 1.579 . S
C1954 C593 1.467 . S
C1952 C213 1.484 . S
C1965 C273 1.862 . S
C1963 C4 1.918 . S
C1974 C17 1.476 . S
C1976 C347 1.458 . S
C1987 C433 1.487 . S
C1985 C31 1.490 . S
C1998 C507 1.307 . S
C1996 C36 1.342 . S
C2009 C569 1.580 . S
C2007 C3 1.598 . S
C2020 C655 1.540 . S
C2018 C16 1.547 . S
C2029 C43 2.064 1_556 S
C2031 C643 1.950 . S
C2040 C56 1.654 . S
C2042 C495 1.574 . S
C2051 C68 1.697 . S
C2053 C581 1.643 . S
C2062 C69 1.582 . S
C2064 C359 1.493 . S
C2075 C421 1.694 . S
C2073 C42 1.782 . S
C2084 C55 1.747 . S
C2086 C285 1.698 . S
C2097 C717 1.851 . S
C2095 C82 1.905 . S
C2106 C95 1.536 1_545 S
C2108 C791 1.517 . S
C2117 C109 1.515 1_655 S
C2119 C877 1.506 . S
C2130 C951 1.248 . S
C2128 C114 1.280 . S
C2139 C81 1.581 . S
C2141 C1013 1.558 . S
C2150 C94 1.504 . S
C2152 C1099 1.499 . S
C2161 C121 1.923 . S
C2163 C1087 1.837 1_565 S
C2172 C134 1.544 . S
C2174 C939 1.493 1_455 S
C2185 C1025 1.620 . S
C2183 C148 1.665 . S
C2194 C153 1.592 . S
C2196 C803 1.489 . S
C2205 C120 1.801 . S
C2207 C865 1.711 . S
C2218 C729 1.724 . S
C2216 C133 1.786 1_655 S
C2229 C1161 1.796 . S
C2227 C166 1.848 . S
C2238 C179 1.435 . S
C2240 C1235 1.420 . S
C2249 C187 1.478 . S
C2251 C1321 1.469 . S
C2262 C1395 1.314 . S
C2260 C192 1.351 . S
C2273 C1457 1.603 . S
C2271 C161 1.623 . S
C2282 C174 1.586 1_455 S
C2284 C1543 1.574 . S
C2293 C199 2.048 . S
C2295 C1531 1.937 . S
C2304 C212 1.710 1_565 S
C2306 C1383 1.625 . S
C2317 C1469 1.657 . S
C2315 C226 1.711 1_455 S
C2328 C1247 1.368 . S
C2326 C231 1.426 . S
C2339 C1309 1.666 . S
C2337 C198 1.753 . S
C2348 C211 1.611 . S
C2350 C1173 1.583 . S
