# Generated by pormake.
# Topology eea, (3,6)-cn, num edge types: 1
# Building blocks:
#     Node 0, Type 0, BuildingBlock: QEWDON_clean_linker_0, # of connection points: 3
#     Node 1, Type 0, BuildingBlock: QEWDON_clean_linker_0, # of connection points: 3
#     Node 2, Type 0, BuildingBlock: QEWDON_clean_linker_0, # of connection points: 3
#     Node 3, Type 0, BuildingBlock: QEWDON_clean_linker_0, # of connection points: 3
#     Node 4, Type 0, BuildingBlock: QEWDON_clean_linker_0, # of connection points: 3
#     Node 5, Type 0, BuildingBlock: QEWDON_clean_linker_0, # of connection points: 3
#     Node 6, Type 0, BuildingBlock: QEWDON_clean_linker_0, # of connection points: 3
#     Node 7, Type 0, BuildingBlock: QEWDON_clean_linker_0, # of connection points: 3
#     Node 8, Type 0, BuildingBlock: QEWDON_clean_linker_0, # of connection points: 3
#     Node 9, Type 0, BuildingBlock: QEWDON_clean_linker_0, # of connection points: 3
#     Node 10, Type 0, BuildingBlock: QEWDON_clean_linker_0, # of connection points: 3
#     Node 11, Type 0, BuildingBlock: QEWDON_clean_linker_0, # of connection points: 3
#     Node 12, Type 0, BuildingBlock: QEWDON_clean_linker_0, # of connection points: 3
#     Node 13, Type 0, BuildingBlock: QEWDON_clean_linker_0, # of connection points: 3
#     Node 14, Type 0, BuildingBlock: QEWDON_clean_linker_0, # of connection points: 3
#     Node 15, Type 0, BuildingBlock: QEWDON_clean_linker_0, # of connection points: 3
#     Node 16, Type 0, BuildingBlock: QEWDON_clean_linker_0, # of connection points: 3
#     Node 17, Type 0, BuildingBlock: QEWDON_clean_linker_0, # of connection points: 3
#     Node 18, Type 1, BuildingBlock: NUHQIS_clean_sbu_0, # of connection points: 6
#     Node 19, Type 1, BuildingBlock: NUHQIS_clean_sbu_0, # of connection points: 6
#     Node 20, Type 1, BuildingBlock: NUHQIS_clean_sbu_0, # of connection points: 6
#     Node 21, Type 1, BuildingBlock: NUHQIS_clean_sbu_0, # of connection points: 6
#     Node 22, Type 1, BuildingBlock: NUHQIS_clean_sbu_0, # of connection points: 6
#     Node 23, Type 1, BuildingBlock: NUHQIS_clean_sbu_0, # of connection points: 6
#     Node 24, Type 1, BuildingBlock: NUHQIS_clean_sbu_0, # of connection points: 6
#     Node 25, Type 1, BuildingBlock: NUHQIS_clean_sbu_0, # of connection points: 6
#     Node 26, Type 1, BuildingBlock: NUHQIS_clean_sbu_0, # of connection points: 6
#     Edge 27, Type (0, 1), BuildingBlock: AJUNOK_clean_linker_0, # of connection points: 2
#     Edge 28, Type (0, 1), BuildingBlock: AJUNOK_clean_linker_0, # of connection points: 2
#     Edge 29, Type (0, 1), BuildingBlock: AJUNOK_clean_linker_0, # of connection points: 2
#     Edge 30, Type (0, 1), BuildingBlock: AJUNOK_clean_linker_0, # of connection points: 2
#     Edge 31, Type (0, 1), BuildingBlock: AJUNOK_clean_linker_0, # of connection points: 2
#     Edge 32, Type (0, 1), BuildingBlock: AJUNOK_clean_linker_0, # of connection points: 2
#     Edge 33, Type (0, 1), BuildingBlock: AJUNOK_clean_linker_0, # of connection points: 2
#     Edge 34, Type (0, 1), BuildingBlock: AJUNOK_clean_linker_0, # of connection points: 2
#     Edge 35, Type (0, 1), BuildingBlock: AJUNOK_clean_linker_0, # of connection points: 2
#     Edge 36, Type (0, 1), BuildingBlock: AJUNOK_clean_linker_0, # of connection points: 2
#     Edge 37, Type (0, 1), BuildingBlock: AJUNOK_clean_linker_0, # of connection points: 2
#     Edge 38, Type (0, 1), BuildingBlock: AJUNOK_clean_linker_0, # of connection points: 2
#     Edge 39, Type (0, 1), BuildingBlock: AJUNOK_clean_linker_0, # of connection points: 2
#     Edge 40, Type (0, 1), BuildingBlock: AJUNOK_clean_linker_0, # of connection points: 2
#     Edge 41, Type (0, 1), BuildingBlock: AJUNOK_clean_linker_0, # of connection points: 2
#     Edge 42, Type (0, 1), BuildingBlock: AJUNOK_clean_linker_0, # of connection points: 2
#     Edge 43, Type (0, 1), BuildingBlock: AJUNOK_clean_linker_0, # of connection points: 2
#     Edge 44, Type (0, 1), BuildingBlock: AJUNOK_clean_linker_0, # of connection points: 2
#     Edge 45, Type (0, 1), BuildingBlock: AJUNOK_clean_linker_0, # of connection points: 2
#     Edge 46, Type (0, 1), BuildingBlock: AJUNOK_clean_linker_0, # of connection points: 2
#     Edge 47, Type (0, 1), BuildingBlock: AJUNOK_clean_linker_0, # of connection points: 2
#     Edge 48, Type (0, 1), BuildingBlock: AJUNOK_clean_linker_0, # of connection points: 2
#     Edge 49, Type (0, 1), BuildingBlock: AJUNOK_clean_linker_0, # of connection points: 2
#     Edge 50, Type (0, 1), BuildingBlock: AJUNOK_clean_linker_0, # of connection points: 2
#     Edge 51, Type (0, 1), BuildingBlock: AJUNOK_clean_linker_0, # of connection points: 2
#     Edge 52, Type (0, 1), BuildingBlock: AJUNOK_clean_linker_0, # of connection points: 2
#     Edge 53, Type (0, 1), BuildingBlock: AJUNOK_clean_linker_0, # of connection points: 2
#     Edge 54, Type (0, 1), BuildingBlock: AJUNOK_clean_linker_0, # of connection points: 2
#     Edge 55, Type (0, 1), BuildingBlock: AJUNOK_clean_linker_0, # of connection points: 2
#     Edge 56, Type (0, 1), BuildingBlock: AJUNOK_clean_linker_0, # of connection points: 2
#     Edge 57, Type (0, 1), BuildingBlock: AJUNOK_clean_linker_0, # of connection points: 2
#     Edge 58, Type (0, 1), BuildingBlock: AJUNOK_clean_linker_0, # of connection points: 2
#     Edge 59, Type (0, 1), BuildingBlock: AJUNOK_clean_linker_0, # of connection points: 2
#     Edge 60, Type (0, 1), BuildingBlock: AJUNOK_clean_linker_0, # of connection points: 2
#     Edge 61, Type (0, 1), BuildingBlock: AJUNOK_clean_linker_0, # of connection points: 2
#     Edge 62, Type (0, 1), BuildingBlock: AJUNOK_clean_linker_0, # of connection points: 2
#     Edge 63, Type (0, 1), BuildingBlock: AJUNOK_clean_linker_0, # of connection points: 2
#     Edge 64, Type (0, 1), BuildingBlock: AJUNOK_clean_linker_0, # of connection points: 2
#     Edge 65, Type (0, 1), BuildingBlock: AJUNOK_clean_linker_0, # of connection points: 2
#     Edge 66, Type (0, 1), BuildingBlock: AJUNOK_clean_linker_0, # of connection points: 2
#     Edge 67, Type (0, 1), BuildingBlock: AJUNOK_clean_linker_0, # of connection points: 2
#     Edge 68, Type (0, 1), BuildingBlock: AJUNOK_clean_linker_0, # of connection points: 2
#     Edge 69, Type (0, 1), BuildingBlock: AJUNOK_clean_linker_0, # of connection points: 2
#     Edge 70, Type (0, 1), BuildingBlock: AJUNOK_clean_linker_0, # of connection points: 2
#     Edge 71, Type (0, 1), BuildingBlock: AJUNOK_clean_linker_0, # of connection points: 2
#     Edge 72, Type (0, 1), BuildingBlock: AJUNOK_clean_linker_0, # of connection points: 2
#     Edge 73, Type (0, 1), BuildingBlock: AJUNOK_clean_linker_0, # of connection points: 2
#     Edge 74, Type (0, 1), BuildingBlock: AJUNOK_clean_linker_0, # of connection points: 2
#     Edge 75, Type (0, 1), BuildingBlock: AJUNOK_clean_linker_0, # of connection points: 2
#     Edge 76, Type (0, 1), BuildingBlock: AJUNOK_clean_linker_0, # of connection points: 2
#     Edge 77, Type (0, 1), BuildingBlock: AJUNOK_clean_linker_0, # of connection points: 2
#     Edge 78, Type (0, 1), BuildingBlock: AJUNOK_clean_linker_0, # of connection points: 2
#     Edge 79, Type (0, 1), BuildingBlock: AJUNOK_clean_linker_0, # of connection points: 2
#     Edge 80, Type (0, 1), BuildingBlock: AJUNOK_clean_linker_0, # of connection points: 2
# Relax obj value: 0.090
# Max RMSD: 0.275
# Mean RMSD: 0.193
data_MOF--net-eea--node1-NUHQIS_clean_sbu_0--node2-QEWDON_clean_linker_0--edge1-AJUNOK_clean_linker_0
_symmetry_space_group_name_H-M    P1
_symmetry_Int_Tables_number       1
_symmetry_cell_setting            triclinic
loop_
_symmetry_equiv_pos_as_xyz
'x, y, z'
_cell_length_a     42.63995
_cell_length_b     43.381891
_cell_length_c     53.15856
_cell_angle_alpha  92.75868
_cell_angle_beta   92.745938
_cell_angle_gamma 120.01567
loop_
_atom_site_label
_atom_site_type_symbol
_atom_site_fract_x
_atom_site_fract_y
_atom_site_fract_z
_atom_type_partial_charge
H0 H 0.24727 0.14381 0.44303 0.0
C1 C 0.24816 0.12282 0.43173 0.0
C2 C 0.26925 0.10853 0.44089 0.0
C3 C 0.22554 0.1077 0.4092 0.0
H4 H 0.2852 0.06917 0.43375 0.0
C5 C 0.26904 0.08031 0.42664 0.0
C6 C 0.24667 0.065 0.40408 0.0
C7 C 0.22517 0.07901 0.39541 0.0
C8 C 0.19854 0.11824 0.40175 0.0
H9 H 0.20656 0.06632 0.37863 0.0
C10 C 0.20911 0.15392 0.39783 0.0
C11 C 0.18287 0.16261 0.38953 0.0
C12 C 0.16156 0.09184 0.39815 0.0
H13 H 0.15278 0.0643 0.40134 0.0
C14 C 0.13554 0.10069 0.39049 0.0
H15 H 0.23757 0.17444 0.40028 0.0
C16 C 0.14611 0.13582 0.38604 0.0
H17 H 0.12561 0.14213 0.37965 0.0
H18 H 0.10714 0.08018 0.38775 0.0
H19 H 0.90583 0.11014 0.43791 0.0
C20 C 0.92532 0.13229 0.42812 0.0
C21 C 0.93615 0.16741 0.43719 0.0
C22 C 0.94081 0.12559 0.40736 0.0
H23 H 0.97132 0.22323 0.43213 0.0
C24 C 0.96217 0.19606 0.42479 0.0
C25 C 0.97801 0.18985 0.40388 0.0
C26 C 0.96701 0.15447 0.39532 0.0
C27 C 0.93214 0.08862 0.39985 0.0
H28 H 0.98002 0.14936 0.37994 0.0
C29 C 0.89589 0.06029 0.39684 0.0
C30 C 0.88808 0.0251 0.39095 0.0
C31 C 0.9604 0.0813 0.39667 0.0
H32 H 0.98855 0.10253 0.39919 0.0
C33 C 0.95265 0.04634 0.39092 0.0
H34 H 0.87383 0.06556 0.39914 0.0
C35 C 0.91671 0.01832 0.38819 0.0
H36 H 0.91119 0.99136 0.38362 0.0
H37 H 0.97459 0.04093 0.38868 0.0
H38 H 0.93608 0.79328 0.45776 0.0
C39 C 0.91452 0.79411 0.44672 0.0
C40 C 0.87903 0.77746 0.45465 0.0
C41 C 0.9227 0.81311 0.42506 0.0
H42 H 0.82477 0.76825 0.44692 0.0
C43 C 0.85174 0.77983 0.44034 0.0
C44 C 0.85943 0.79859 0.41842 0.0
C45 C 0.89497 0.81444 0.41072 0.0
C46 C 0.96096 0.83736 0.42009 0.0
H47 H 0.90162 0.82884 0.39388 0.0
C48 C 0.98205 0.82515 0.40813 0.0
C49 C 1.01784 0.84989 0.40282 0.0
C50 C 0.97607 0.874 0.42694 0.0
H51 H 0.96022 0.88383 0.4361 0.0
C52 C 1.01158 0.89828 0.422 0.0
H53 H 0.97052 0.79697 0.40253 0.0
C54 C 0.03232 0.88637 0.40994 0.0
H55 H 0.05976 0.9057 0.406 0.0
H56 H 0.02297 0.92647 0.42736 0.0
H57 H 0.14893 0.22605 0.59068 0.0
C58 C 0.12754 0.22713 0.60021 0.0
C59 C 0.11476 0.24964 0.59221 0.0
C60 C 0.11094 0.20392 0.61909 0.0
H61 H 0.07579 0.2667 0.59784 0.0
C62 C 0.08553 0.24921 0.60381 0.0
C63 C 0.06858 0.22613 0.62278 0.0
C64 C 0.08177 0.20386 0.63039 0.0
C65 C 0.12101 0.1767 0.62498 0.0
H66 H 0.0684 0.18538 0.64454 0.0
C67 C 0.15745 0.18606 0.63108 0.0
C68 C 0.16611 0.15943 0.63611 0.0
C69 C 0.09358 0.14059 0.62397 0.0
H70 H 0.06544 0.13264 0.61908 0.0
C71 C 0.10218 0.11427 0.62876 0.0
H72 H 0.17885 0.2138 0.63197 0.0
C73 C 0.13818 0.12355 0.63473 0.0
H74 H 0.14421 0.10267 0.63859 0.0
H75 H 0.08086 0.08654 0.62783 0.0
H76 H 0.82862 0.92294 0.59551 0.0
C77 C 0.82765 0.90156 0.60583 0.0
C78 C 0.80678 0.86604 0.59533 0.0
C79 C 0.84855 0.90968 0.62897 0.0
H80 H 0.7908 0.81115 0.60016 0.0
C81 C 0.80667 0.83853 0.60831 0.0
C82 C 0.82729 0.84618 0.63152 0.0
C83 C 0.84749 0.88176 0.64193 0.0
C84 C 0.87306 0.9473 0.63915 0.0
H85 H 0.86255 0.88783 0.66023 0.0
C86 C 0.86116 0.97232 0.63967 0.0
C87 C 0.88446 0.00743 0.65025 0.0
C88 C 0.90877 0.95825 0.64873 0.0
H89 H 0.91886 0.93975 0.64818 0.0
C90 C 0.93196 0.99324 0.65894 0.0
H91 H 0.83365 0.96431 0.63261 0.0
C92 C 0.91983 0.01769 0.65988 0.0
H93 H 0.93803 0.04468 0.66813 0.0
H94 H 0.95934 1.00136 0.66629 0.0
H95 H 0.09944 0.87445 0.58972 0.0
C96 C 0.12399 0.89649 0.59941 0.0
C97 C 0.15712 0.91018 0.58813 0.0
C98 C 0.12229 0.91306 0.62235 0.0
H99 H 0.21401 0.94974 0.59151 0.0
C100 C 0.18859 0.93963 0.60025 0.0
C101 C 0.18724 0.95678 0.6229 0.0
C102 C 0.15411 0.94286 0.63396 0.0
C103 C 0.08719 0.9025 0.6333 0.0
H104 H 0.15267 0.95622 0.65126 0.0
C105 C 0.06299 0.86697 0.63853 0.0
C106 C 0.03211 0.85905 0.65163 0.0
C107 C 0.07901 0.9293 0.64013 0.0
H108 H 0.09672 0.95666 0.63593 0.0
C109 C 0.04836 0.92136 0.65279 0.0
H110 H 0.06883 0.846 0.63336 0.0
C111 C 0.02535 0.88661 0.65883 0.0
H112 H 1.00197 0.88119 0.66899 0.0
H113 H 0.04262 0.9423 0.65818 0.0
H114 H 0.8995 0.4687 0.7762 0.0
C115 C 0.9013 0.44772 0.76561 0.0
C116 C 0.92368 0.43524 0.77551 0.0
C117 C 0.87904 0.4311 0.74307 0.0
H118 H 0.94303 0.3984 0.76946 0.0
C119 C 0.92529 0.40755 0.76195 0.0
C120 C 0.90323 0.39064 0.73946 0.0
C121 C 0.8801 0.40256 0.73026 0.0
C122 C 0.85229 0.44109 0.73368 0.0
H123 H 0.86182 0.38882 0.7135 0.0
C124 C 0.86287 0.47679 0.72984 0.0
C125 C 0.83754 0.48515 0.71897 0.0
C126 C 0.81593 0.41421 0.72739 0.0
H127 H 0.80699 0.38661 0.73046 0.0
C128 C 0.79075 0.42258 0.71701 0.0
H129 H 0.89086 0.49772 0.73442 0.0
C130 C 0.8015 0.45778 0.71262 0.0
H131 H 0.78157 0.46375 0.70442 0.0
H132 H 0.76285 0.40168 0.71219 0.0
H133 H 0.5755 0.43631 0.77634 0.0
C134 C 0.59614 0.45803 0.76686 0.0
C135 C 0.6098 0.49351 0.77662 0.0
C136 C 0.60991 0.45032 0.74552 0.0
H137 H 0.64982 0.54852 0.77332 0.0
C138 C 0.63767 0.52144 0.76477 0.0
C139 C 0.65103 0.51434 0.7428 0.0
C140 C 0.63657 0.47859 0.73328 0.0
C141 C 0.59889 0.41284 0.73727 0.0
H142 H 0.6464 0.47253 0.71638 0.0
C143 C 0.56206 0.38563 0.73481 0.0
C144 C 0.55241 0.35002 0.728 0.0
C145 C 0.62576 0.40397 0.73271 0.0
H146 H 0.6543 0.42426 0.73478 0.0
C147 C 0.6162 0.36868 0.72609 0.0
H148 H 0.54104 0.39207 0.73817 0.0
C149 C 0.57978 0.34181 0.72384 0.0
H150 H 0.5729 0.31459 0.7185 0.0
H151 H 0.63712 0.36212 0.72276 0.0
H152 H 0.60705 0.12778 0.78622 0.0
C153 C 0.58394 0.12642 0.77564 0.0
C154 C 0.54906 0.10707 0.78431 0.0
C155 C 0.58944 0.14649 0.75458 0.0
H156 H 0.49253 0.09079 0.77718 0.0
C157 C 0.51951 0.10648 0.77088 0.0
C158 C 0.52464 0.12697 0.75014 0.0
C159 C 0.55968 0.14653 0.74198 0.0
C160 C 0.62662 0.17187 0.74785 0.0
H161 H 0.56423 0.16325 0.72647 0.0
C162 C 0.65029 0.1603 0.73957 0.0
C163 C 0.68468 0.18535 0.73214 0.0
C164 C 0.63801 0.20846 0.74904 0.0
H165 H 0.62032 0.21794 0.75543 0.0
C166 C 0.67222 0.23318 0.74204 0.0
H167 H 0.64176 0.13214 0.73837 0.0
C168 C 0.6954 0.22172 0.73356 0.0
H169 H 0.72178 0.24128 0.72797 0.0
H170 H 0.6807 0.26129 0.74304 0.0
H171 H 0.80989 0.55563 0.92192 0.0
C172 C 0.78819 0.55549 0.93183 0.0
C173 C 0.77249 0.5756 0.92374 0.0
C174 C 0.77496 0.53395 0.95199 0.0
H175 H 0.72941 0.58722 0.92915 0.0
C176 C 0.74302 0.57351 0.93614 0.0
C177 C 0.72983 0.55235 0.95667 0.0
C178 C 0.74692 0.53368 0.96484 0.0
C179 C 0.78651 0.50786 0.95765 0.0
H180 H 0.73786 0.51794 0.98097 0.0
C181 C 0.82315 0.5185 0.96414 0.0
C182 C 0.83284 0.49266 0.96931 0.0
C183 C 0.75996 0.47142 0.95638 0.0
H184 H 0.73164 0.46265 0.95132 0.0
C185 C 0.76966 0.4459 0.96127 0.0
H186 H 0.84383 0.54652 0.96529 0.0
C187 C 0.80588 0.45639 0.96765 0.0
H188 H 0.81287 0.43618 0.97156 0.0
H189 H 0.74903 0.4179 0.96014 0.0
H190 H 0.42452 0.22944 0.94962 0.0
C191 C 0.43238 0.21104 0.95668 0.0
C192 C 0.42786 0.1821 0.94067 0.0
C193 C 0.44603 0.21581 0.98197 0.0
H194 H 0.4346 0.13597 0.93788 0.0
C195 C 0.43837 0.15855 0.95005 0.0
C196 C 0.45244 0.16321 0.97532 0.0
C197 C 0.45634 0.19202 0.99105 0.0
C198 C 0.44776 0.24439 0.99945 0.0
H199 H 0.46784 0.19626 1.01039 0.0
C200 C 0.4634 0.27991 0.99285 0.0
C201 C 0.46599 0.30673 1.01023 0.0
C202 C 0.4338 0.23595 0.02317 0.0
H203 H 0.42118 0.20876 0.02853 0.0
C204 C 0.43563 0.26241 0.04014 0.0
H205 H 0.47463 0.28689 0.97474 0.0
C206 C 0.45173 0.2976 0.03379 0.0
H207 H 0.45317 0.31785 0.04733 0.0
H208 H 0.42471 0.25564 0.05833 0.0
H209 H 0.77547 0.20328 0.91976 0.0
C210 C 0.7983 0.22663 0.9299 0.0
C211 C 0.83351 0.23991 0.92188 0.0
C212 C 0.79228 0.24455 0.95019 0.0
H213 H 0.8897 0.2813 0.92857 0.0
C214 C 0.86266 0.27089 0.93478 0.0
C215 C 0.85704 0.28958 0.95472 0.0
C216 C 0.82178 0.27589 0.96246 0.0
C217 C 0.75489 0.23353 0.95686 0.0
H218 H 0.81691 0.2904 0.97748 0.0
C219 C 0.73145 0.19933 0.96482 0.0
C220 C 0.69724 0.19108 0.97291 0.0
C221 C 0.74316 0.25857 0.95622 0.0
H222 H 0.76055 0.28487 0.94999 0.0
C223 C 0.70905 0.25008 0.96365 0.0
H224 H 0.74028 0.17989 0.96565 0.0
C225 C 0.68634 0.2167 0.97213 0.0
H226 H 0.66011 0.21081 0.97816 0.0
H227 H 0.70034 0.2696 0.96311 0.0
H228 H 0.57025 0.80631 0.1089 0.0
C229 C 0.57105 0.7846 0.09856 0.0
C230 C 0.59313 0.77174 0.10834 0.0
C231 C 0.54788 0.7677 0.07645 0.0
H232 H 0.6107 0.73352 0.10244 0.0
C233 C 0.59289 0.74275 0.09523 0.0
C234 C 0.56889 0.72463 0.07372 0.0
C235 C 0.54689 0.73768 0.0642 0.0
C236 C 0.52227 0.77922 0.0673 0.0
H237 H 0.52809 0.72379 0.04768 0.0
C238 C 0.53443 0.81531 0.06356 0.0
C239 C 0.50992 0.82526 0.05364 0.0
C240 C 0.48527 0.75364 0.06183 0.0
H241 H 0.47517 0.72582 0.06489 0.0
C242 C 0.46089 0.7637 0.0525 0.0
H243 H 0.56293 0.83527 0.06744 0.0
C244 C 0.47313 0.79925 0.04826 0.0
H245 H 0.4539 0.80651 0.04063 0.0
H246 H 0.43246 0.74382 0.04834 0.0
H247 H 0.23493 0.77545 0.1021 0.0
C248 C 0.25469 0.79749 0.09237 0.0
C249 C 0.26651 0.83269 0.10188 0.0
C250 C 0.27046 0.79063 0.07177 0.0
H251 H 0.30205 0.8884 0.097 0.0
C252 C 0.29333 0.86124 0.08989 0.0
C253 C 0.31016 0.85505 0.06966 0.0
C254 C 0.29793 0.81964 0.0604 0.0
C255 C 0.2615 0.75341 0.06422 0.0
H256 H 0.31106 0.81464 0.04505 0.0
C257 C 0.22534 0.7246 0.0625 0.0
C258 C 0.21777 0.68934 0.05694 0.0
C259 C 0.28971 0.74633 0.05993 0.0
H260 H 0.31781 0.76767 0.06161 0.0
C261 C 0.28215 0.71148 0.05414 0.0
H262 H 0.20323 0.72949 0.06568 0.0
C263 C 0.24647 0.68313 0.05271 0.0
H264 H 0.2412 0.65626 0.04811 0.0
H265 H 0.3041 0.70639 0.05094 0.0
H266 H 0.27113 0.45996 0.11988 0.0
C267 C 0.24856 0.45981 0.10948 0.0
C268 C 0.21319 0.44027 0.11746 0.0
C269 C 0.25515 0.48054 0.08876 0.0
H270 H 0.15806 0.42947 0.11154 0.0
C271 C 0.18465 0.44205 0.10434 0.0
C272 C 0.19059 0.46149 0.08288 0.0
C273 C 0.22603 0.48044 0.07526 0.0
C274 C 0.29265 0.50625 0.08294 0.0
H275 H 0.23136 0.49608 0.05904 0.0
C276 C 0.3164 0.49505 0.07432 0.0
C277 C 0.35093 0.52051 0.0674 0.0
C278 C 0.30407 0.54286 0.08506 0.0
H279 H 0.28621 0.552 0.09166 0.0
C280 C 0.33847 0.56799 0.07862 0.0
H281 H 0.30779 0.46687 0.07237 0.0
C282 C 0.36174 0.55691 0.06973 0.0
H283 H 0.38825 0.57677 0.06454 0.0
H284 H 0.34699 0.59611 0.08031 0.0
H285 H 0.48232 0.89925 0.25915 0.0
C286 C 0.4613 0.90026 0.26922 0.0
C287 C 0.44744 0.92211 0.2615 0.0
C288 C 0.44629 0.87755 0.28861 0.0
H289 H 0.40692 0.93726 0.26782 0.0
C290 C 0.41845 0.92127 0.27389 0.0
C291 C 0.40329 0.89868 0.29341 0.0
C292 C 0.41752 0.87717 0.30064 0.0
C293 C 0.45776 0.8514 0.29472 0.0
H294 H 0.40548 0.85933 0.31539 0.0
C295 C 0.49464 0.86196 0.30036 0.0
C296 C 0.50427 0.83652 0.30692 0.0
C297 C 0.43109 0.8152 0.29521 0.0
H298 H 0.40264 0.8063 0.29066 0.0
C299 C 0.4408 0.79004 0.30137 0.0
H300 H 0.51552 0.88976 0.30021 0.0
C301 C 0.47715 0.80062 0.30729 0.0
H302 H 0.48418 0.78076 0.31226 0.0
H303 H 0.42004 0.76227 0.30167 0.0
H304 H 0.13391 0.58051 0.26797 0.0
C305 C 0.13257 0.55959 0.27902 0.0
C306 C 0.10813 0.52365 0.27084 0.0
C307 C 0.15757 0.56877 0.30011 0.0
H308 H 0.08986 0.469 0.2781 0.0
C309 C 0.10841 0.4968 0.28446 0.0
C310 C 0.1335 0.50547 0.30553 0.0
C311 C 0.15788 0.5416 0.31329 0.0
C312 C 0.18578 0.60667 0.30653 0.0
H313 H 0.17828 0.54865 0.32884 0.0
C314 C 0.17628 0.63339 0.30848 0.0
C315 C 0.20338 0.66947 0.313 0.0
C316 C 0.22265 0.61649 0.30946 0.0
H317 H 0.23069 0.59647 0.30775 0.0
C318 C 0.24957 0.65239 0.31386 0.0
H319 H 0.14794 0.62618 0.30651 0.0
C320 C 0.24005 0.67882 0.31551 0.0
H321 H 0.26125 0.70654 0.31913 0.0
H322 H 0.27791 0.65974 0.31592 0.0
H323 H 0.44174 0.54378 0.25458 0.0
C324 C 0.46453 0.56654 0.26528 0.0
C325 C 0.49905 0.58266 0.25592 0.0
C326 C 0.45885 0.58169 0.28729 0.0
H327 H 0.55401 0.62663 0.26107 0.0
C328 C 0.52794 0.61347 0.26903 0.0
C329 C 0.52309 0.62813 0.29163 0.0
C330 C 0.48832 0.61193 0.30059 0.0
C331 C 0.42161 0.56972 0.29452 0.0
H332 H 0.48379 0.62339 0.31764 0.0
C333 C 0.39879 0.53496 0.30169 0.0
C334 C 0.36428 0.5255 0.30966 0.0
C335 C 0.40919 0.59425 0.29475 0.0
H336 H 0.42625 0.62102 0.28917 0.0
C337 C 0.37474 0.58454 0.30211 0.0
H338 H 0.40823 0.51595 0.30188 0.0
C339 C 0.35246 0.55044 0.30966 0.0
H340 H 0.32599 0.54354 0.31576 0.0
H341 H 0.36543 0.60362 0.30222 0.0
Tb342 Tb 0.50194 0.99854 0.99185 0.0
Eu343 Eu 0.5238 0.02957 0.05251 0.0
C344 C 0.52803 0.96109 0.03026 0.0
C345 C 0.4465 0.96406 0.0339 0.0
C346 C 0.50019 0.99904 0.92216 0.0
C347 C 0.50117 0.99845 0.87641 0.0
C348 C 0.49068 0.98014 0.89828 0.0
C349 C 0.52111 0.0365 0.92397 0.0
C350 C 0.53148 0.05482 0.90213 0.0
C351 C 0.52113 0.036 0.87807 0.0
C352 C 0.48774 0.97966 0.94501 0.0
O353 O 0.50889 0.05137 0.99387 0.0
O354 O 0.49231 0.05307 0.03379 0.0
O355 O 0.56912 0.07035 0.03184 0.0
O356 O 0.56101 0.03457 0.99587 0.0
C357 C 0.49606 0.06386 1.01087 0.0
O358 O 0.50705 0.04703 0.08583 0.0
O359 O 0.55693 0.04519 0.08866 0.0
O360 O 0.54261 0.98946 0.04662 0.0
O361 O 0.50644 0.95752 1.01047 0.0
O362 O 0.45054 0.97396 1.01059 0.0
O363 O 0.47447 0.97587 0.0504 0.0
C364 C 0.58037 0.06453 1.01046 0.0
O365 O 0.51223 0.97717 0.95899 0.0
O366 O 0.46821 0.98822 0.95871 0.0
C367 C 0.52155 0.0307 0.12472 0.0
C368 C 0.49846 0.9967 0.17003 0.0
C369 C 0.485 0.01808 0.16091 0.0
C370 C 0.49657 0.03503 0.13864 0.0
C371 C 0.53483 0.00905 0.13371 0.0
C372 C 0.52343 0.99228 0.15612 0.0
C373 C 0.53297 0.04878 0.10099 0.0
H374 H 0.49278 0.98328 0.85814 0.0
H375 H 0.47469 0.95123 0.89651 0.0
H376 H 0.52906 0.05159 0.94226 0.0
H377 H 0.54741 0.08372 0.90403 0.0
H378 H 0.46579 0.02204 0.17119 0.0
H379 H 0.48587 0.05156 0.13224 0.0
H380 H 0.55391 1.0049 0.12343 0.0
H381 H 0.53381 0.97546 0.16243 0.0
Tb382 Tb 0.04016 0.50301 0.99228 0.0
Eu383 Eu 1.00767 0.48684 0.04854 0.0
C384 C 0.07678 0.56064 0.03805 0.0
C385 C 0.07461 0.47743 0.03409 0.0
C386 C 0.04105 0.5053 0.92319 0.0
C387 C 0.04047 0.50358 0.87738 0.0
C388 C 0.05974 0.51366 0.90126 0.0
C389 C 1.00293 0.48722 0.921 0.0
C390 C 0.98369 0.47705 0.89721 0.0
C391 C 1.00225 0.48478 0.87516 0.0
C392 C 0.0611 0.51593 0.94833 0.0
O393 O 1.00335 0.44533 0.99061 0.0
O394 O 0.96633 0.44035 0.02223 0.0
O395 O 0.98115 0.5133 0.02785 0.0
O396 O 0.98635 0.49643 0.98759 0.0
C397 C 0.97292 0.42734 1.0016 0.0
O398 O 0.98653 0.45261 0.07962 0.0
O399 O 0.99274 0.50544 0.08221 0.0
O400 O 0.06337 0.53576 0.05389 0.0
O401 O 0.06291 0.55424 1.01452 0.0
O402 O 0.08111 0.49938 0.01623 0.0
O403 O 0.04401 0.4633 0.04503 0.0
C404 C 0.97098 0.5076 1.00357 0.0
O405 O 0.05494 0.53701 0.9629 0.0
O406 O 0.06048 0.49026 0.96053 0.0
C407 C 1.00254 0.48378 0.1204 0.0
C408 C 0.03276 0.49492 0.17076 0.0
C409 C 1.00883 0.46018 0.15979 0.0
C410 C 0.99367 0.45469 0.1349 0.0
C411 C 0.02676 0.51856 0.13135 0.0
C412 C 0.04166 0.52404 0.15629 0.0
C413 C 0.98596 0.47742 0.09417 0.0
H414 H 0.05537 0.5098 0.86064 0.0
H415 H 0.08918 0.52783 0.9026 0.0
H416 H 0.98803 0.4809 0.93771 0.0
H417 H 0.95427 0.46306 0.89605 0.0
H418 H 1.00159 0.4373 0.17055 0.0
H419 H 0.97499 0.42765 0.12696 0.0
H420 H 0.03433 0.54159 0.1207 0.0
H421 H 0.06059 0.55105 0.16415 0.0
Tb422 Tb 0.54819 0.51995 0.04499 0.0
Eu423 Eu 0.52572 0.5279 0.98598 0.0
C424 C 0.51659 0.45542 1.00448 0.0
C425 C 0.60312 0.53898 1.00347 0.0
C426 C 0.5525 0.52209 0.11453 0.0
C427 C 0.55579 0.52496 0.1604 0.0
C428 C 0.5664 0.51728 0.1375 0.0
C429 C 0.52766 0.53434 0.11468 0.0
C430 C 0.51725 0.54224 0.1375 0.0
C431 C 0.5312 0.53761 0.16057 0.0
C432 C 0.56295 0.51338 0.09042 0.0
O433 O 0.56841 0.5765 0.04188 0.0
O434 O 0.53017 0.57497 1.00923 0.0
O435 O 0.474 0.50574 1.00598 0.0
O436 O 0.49878 0.52246 0.04723 0.0
C437 C 0.55221 0.59105 0.02969 0.0
O438 O 0.53621 0.56029 0.95387 0.0
O439 O 0.49272 0.50508 0.95008 0.0
O440 O 0.52708 0.47639 0.98595 0.0
O441 O 0.51357 0.46682 0.02694 0.0
O442 O 0.58869 0.51865 0.02202 0.0
O443 O 0.58648 0.55315 0.99157 0.0
C444 C 0.47108 0.51103 0.03017 0.0
O445 O 0.53627 0.48826 0.07564 0.0
O446 O 0.58413 0.54037 0.07796 0.0
C447 C 0.52616 0.52803 0.9141 0.0
C448 C 0.55319 0.51847 0.86851 0.0
C449 C 0.5656 0.55292 0.87998 0.0
C450 C 0.55208 0.55764 0.90243 0.0
C451 C 0.51355 0.49356 0.9025 0.0
C452 C 0.52699 0.48887 0.88001 0.0
C453 C 0.51284 0.5334 0.9383 0.0
H454 H 0.56729 0.52164 0.17797 0.0
H455 H 0.58547 0.50767 0.13771 0.0
H456 H 0.51638 0.53787 0.09714 0.0
H457 H 0.49823 0.55191 0.13714 0.0
H458 H 0.58625 0.57624 0.87185 0.0
H459 H 0.56225 0.58454 0.91083 0.0
H460 H 0.49343 0.47013 0.91083 0.0
H461 H 0.51674 0.46201 0.87153 0.0
Tb462 Tb 0.16952 0.33328 0.32624 0.0
Eu463 Eu 0.19037 0.36444 0.38717 0.0
C464 C 0.19444 0.29573 0.36512 0.0
C465 C 0.11274 0.29916 0.36762 0.0
C466 C 0.16643 0.33234 0.25601 0.0
C467 C 0.17295 0.3297 0.21085 0.0
C468 C 0.16404 0.31295 0.23343 0.0
C469 C 0.17876 0.36901 0.25583 0.0
C470 C 0.18724 0.3857 0.23322 0.0
C471 C 0.18393 0.36615 0.21034 0.0
C472 C 0.15541 0.31395 0.27944 0.0
O473 O 0.17589 0.3858 0.32815 0.0
O474 O 0.16091 0.38999 0.36841 0.0
O475 O 0.23566 0.40488 0.36657 0.0
O476 O 0.22856 0.36937 0.33063 0.0
C477 C 0.16351 0.39905 0.34499 0.0
O478 O 0.17468 0.38117 0.42133 0.0
O479 O 0.2253 0.38082 0.42252 0.0
O480 O 0.2091 0.32429 0.38127 0.0
O481 O 0.17291 0.29201 0.34528 0.0
O482 O 0.11784 0.30899 0.34434 0.0
O483 O 0.13969 0.31169 0.38512 0.0
C484 C 0.24773 0.39892 0.34568 0.0
O485 O 0.18072 0.31268 0.29334 0.0
O486 O 0.13545 0.32188 0.29314 0.0
C487 C 0.19189 0.36457 0.45873 0.0
C488 C 0.16964 0.3282 0.50301 0.0
C489 C 0.19427 0.36523 0.50461 0.0
C490 C 0.20525 0.38324 0.48265 0.0
C491 C 0.1677 0.32754 0.45704 0.0
C492 C 0.15655 0.30956 0.47896 0.0
C493 C 0.20181 0.38396 0.43569 0.0
H494 H 0.17125 0.31407 0.19381 0.0
H495 H 0.15507 0.28474 0.23321 0.0
H496 H 0.18139 0.38465 0.27312 0.0
H497 H 0.1957 0.4138 0.23358 0.0
H498 H 0.20436 0.38041 0.52283 0.0
H499 H 0.22374 0.41185 0.48434 0.0
H500 H 0.15708 0.31261 0.43875 0.0
H501 H 0.13766 0.28103 0.47712 0.0
Tb502 Tb 0.70795 0.83794 0.326 0.0
Eu503 Eu 0.67817 0.82549 0.38257 0.0
C504 C 0.74645 0.89821 0.37014 0.0
C505 C 0.74437 0.81519 0.3682 0.0
C506 C 0.7087 0.83724 0.25654 0.0
C507 C 0.70888 0.84213 0.21124 0.0
C508 C 0.72758 0.85107 0.23522 0.0
C509 C 0.67088 0.81447 0.25372 0.0
C510 C 0.65217 0.80554 0.22978 0.0
C511 C 0.67096 0.81934 0.2083 0.0
C512 C 0.72825 0.84783 0.28175 0.0
O513 O 0.6713 0.78044 0.32682 0.0
O514 O 0.6343 0.78067 0.35669 0.0
O515 O 0.65207 0.85257 0.36224 0.0
O516 O 0.65522 0.83437 0.32177 0.0
C517 C 0.64044 0.76481 0.33753 0.0
O518 O 0.65565 0.79129 0.41333 0.0
O519 O 0.66791 0.84626 0.41744 0.0
O520 O 0.73384 0.87424 0.38664 0.0
O521 O 0.73229 0.89041 0.34666 0.0
O522 O 0.75011 0.83633 0.34991 0.0
O523 O 0.71366 0.80084 0.37901 0.0
C524 C 0.6413 0.84697 0.33802 0.0
O525 O 0.72312 0.87021 0.29563 0.0
O526 O 0.72621 0.82208 0.29456 0.0
C527 C 0.6804 0.82302 0.45295 0.0
C528 C 0.72144 0.83492 0.49913 0.0
C529 C 0.68396 0.82258 0.49858 0.0
C530 C 0.66356 0.81662 0.47561 0.0
C531 C 0.71778 0.83536 0.45339 0.0
C532 C 0.73817 0.84137 0.4763 0.0
C533 C 0.65936 0.81739 0.42882 0.0
H534 H 0.72412 0.85256 0.19496 0.0
H535 H 0.75678 0.86879 0.23712 0.0
H536 H 0.65584 0.80376 0.27005 0.0
H537 H 0.62295 0.78797 0.22805 0.0
H538 H 0.67044 0.81741 0.51592 0.0
H539 H 0.63473 0.80713 0.47555 0.0
H540 H 0.73122 0.84062 0.436 0.0
H541 H 0.76712 0.85162 0.4762 0.0
Tb542 Tb 0.21254 0.85627 0.37483 0.0
Eu543 Eu 0.19186 0.86493 0.31517 0.0
C544 C 0.18922 0.79311 0.33289 0.0
C545 C 0.26913 0.87571 0.33308 0.0
C546 C 0.2123 0.85809 0.44465 0.0
C547 C 0.21513 0.86226 0.49055 0.0
C548 C 0.2279 0.85655 0.46802 0.0
C549 C 0.18334 0.86484 0.44404 0.0
C550 C 0.17046 0.87042 0.46656 0.0
C551 C 0.18654 0.86968 0.49012 0.0
C552 C 0.22655 0.85291 0.42107 0.0
O553 O 0.20386 0.90113 0.37534 0.0
O554 O 0.22184 0.91984 0.33655 0.0
O555 O 0.14545 0.85907 0.3369 0.0
O556 O 0.15331 0.83172 0.37067 0.0
C557 C 0.21721 0.92656 0.36002 0.0
O558 O 0.20688 0.89751 0.28312 0.0
O559 O 0.15704 0.84627 0.2797 0.0
O560 O 0.17615 0.80699 0.31692 0.0
O561 O 0.20861 0.81029 0.35408 0.0
O562 O 0.26421 0.88225 0.35665 0.0
O563 O 0.24261 0.86206 0.31519 0.0
C564 C 0.13357 0.84144 0.35702 0.0
O565 O 0.20385 0.82537 0.40578 0.0
O566 O 0.24454 0.88132 0.40895 0.0
C567 C 0.19024 0.86465 0.24355 0.0
C568 C 0.21405 0.85346 0.19712 0.0
C569 C 0.18835 0.86472 0.19775 0.0
C570 C 0.17668 0.87043 0.22081 0.0
C571 C 0.21507 0.85237 0.24294 0.0
C572 C 0.22686 0.84682 0.21993 0.0
C573 C 0.17999 0.87323 0.26787 0.0
H574 H 0.22824 0.86173 0.50836 0.0
H575 H 0.25025 0.85134 0.46886 0.0
H576 H 0.17088 0.86604 0.42614 0.0
H577 H 0.14798 0.87542 0.46555 0.0
H578 H 0.17802 0.87 0.18046 0.0
H579 H 0.15755 0.87996 0.22092 0.0
H580 H 0.22575 0.84762 0.26031 0.0
H581 H 0.24611 0.83744 0.21999 0.0
Tb582 Tb 0.83261 0.66106 0.65942 0.0
Eu583 Eu 0.85389 0.69282 0.71999 0.0
C584 C 0.85593 0.62297 0.69935 0.0
C585 C 0.77579 0.62813 0.69941 0.0
C586 C 0.82547 0.6622 0.58983 0.0
C587 C 0.83323 0.6648 0.54481 0.0
C588 C 0.8247 0.64563 0.56633 0.0
C589 C 0.83467 0.69822 0.59152 0.0
C590 C 0.84301 0.71736 0.56997 0.0
C591 C 0.84282 0.70099 0.54638 0.0
C592 C 0.81851 0.64226 0.61259 0.0
O593 O 0.81311 0.69846 0.66604 0.0
O594 O 0.85426 0.73599 0.69827 0.0
O595 O 0.90697 0.71873 0.70149 0.0
O596 O 0.88388 0.71094 0.66019 0.0
C597 C 0.83173 0.73007 0.67855 0.0
O598 O 0.84259 0.7156 0.75347 0.0
O599 O 0.88553 0.70269 0.75604 0.0
O600 O 0.84871 0.63877 0.71794 0.0
O601 O 0.85748 0.63255 0.6761 0.0
O602 O 0.79009 0.62103 0.6802 0.0
O603 O 0.79292 0.65909 0.7128 0.0
C604 C 0.91114 0.72623 0.67771 0.0
O605 O 0.84738 0.64673 0.62558 0.0
O606 O 0.79544 0.6436 0.62724 0.0
C607 C 0.85092 0.6929 0.79116 0.0
C608 C 0.82411 0.65598 0.8347 0.0
C609 C 0.85439 0.69084 0.83681 0.0
C610 C 0.86759 0.70914 0.81523 0.0
C611 C 0.82086 0.65804 0.78889 0.0
C612 C 0.80758 0.63977 0.81045 0.0
C613 C 0.86549 0.71199 0.76849 0.0
H614 H 0.83298 0.65145 0.52699 0.0
H615 H 0.81796 0.61796 0.56468 0.0
H616 H 0.83562 0.71159 0.60954 0.0
H617 H 0.84944 0.74492 0.57178 0.0
H618 H 0.86835 0.70376 0.8551 0.0
H619 H 0.89104 0.73586 0.81734 0.0
H620 H 0.80774 0.64493 0.77043 0.0
H621 H 0.78425 0.61298 0.80816 0.0
Tb622 Tb 0.3738 0.16825 0.66005 0.0
Eu623 Eu 0.33969 0.15277 0.71597 0.0
C624 C 0.40926 0.22577 0.70591 0.0
C625 C 0.40759 0.14348 0.70357 0.0
C626 C 0.37869 0.17261 0.59107 0.0
C627 C 0.38161 0.17169 0.54552 0.0
C628 C 0.3991 0.18097 0.56996 0.0
C629 C 0.34066 0.15534 0.58753 0.0
C630 C 0.32319 0.14588 0.56318 0.0
C631 C 0.34348 0.15365 0.54195 0.0
C632 C 0.39696 0.18229 0.61675 0.0
O633 O 0.33606 0.11085 0.65745 0.0
O634 O 0.2996 0.10553 0.68966 0.0
O635 O 0.31423 0.17942 0.69438 0.0
O636 O 0.31984 0.16163 0.65446 0.0
C637 C 0.30612 0.09273 0.66889 0.0
O638 O 0.31551 0.11814 0.74637 0.0
O639 O 0.32615 0.17263 0.74974 0.0
O640 O 0.39571 0.20095 0.72173 0.0
O641 O 0.39566 0.21929 0.68233 0.0
O642 O 0.41372 0.16293 0.68412 0.0
O643 O 0.37722 0.13067 0.71471 0.0
C644 C 0.30424 0.17312 0.67006 0.0
O645 O 0.38993 0.20293 0.63108 0.0
O646 O 0.39538 0.15612 0.62879 0.0
C647 C 0.33326 0.14853 0.78706 0.0
C648 C 0.36395 0.15811 0.83702 0.0
C649 C 0.32712 0.13279 0.83049 0.0
C650 C 0.3119 0.12815 0.80573 0.0
C651 C 0.37027 0.17322 0.79332 0.0
C652 C 0.38549 0.17796 0.81811 0.0
C653 C 0.31666 0.14362 0.76118 0.0
H654 H 0.39778 0.17793 0.52941 0.0
H655 H 0.4285 0.19452 0.57237 0.0
H656 H 0.32449 0.14915 0.60361 0.0
H657 H 0.29379 0.13248 0.5609 0.0
H658 H 0.31007 0.1165 0.84452 0.0
H659 H 0.2834 0.10867 0.80118 0.0
H660 H 0.38733 0.18899 0.77909 0.0
H661 H 0.41396 0.19758 0.82259 0.0
Tb662 Tb 0.88222 0.18521 0.70821 0.0
Eu663 Eu 0.85812 0.19511 0.64992 0.0
C664 C 0.85785 0.12497 0.66477 0.0
C665 C 0.93783 0.20926 0.66597 0.0
C666 C 0.88696 0.18399 0.77812 0.0
C667 C 0.8762 0.17063 0.82185 0.0
C668 C 0.88603 0.164 0.79831 0.0
C669 C 0.87763 0.21058 0.7817 0.0
C670 C 0.86809 0.21745 0.8053 0.0
C671 C 0.86739 0.19765 0.82571 0.0
C672 C 0.89547 0.17533 0.75311 0.0
O673 O 0.90054 0.24183 0.70771 0.0
O674 O 0.86463 0.24231 0.67397 0.0
O675 O 0.80685 0.16938 0.67041 0.0
O676 O 0.83301 0.18799 0.71109 0.0
C677 C 0.8863 0.25759 0.69471 0.0
O678 O 0.86615 0.22781 0.6182 0.0
O679 O 0.82393 0.17201 0.61454 0.0
O680 O 0.86693 0.1482 0.64779 0.0
O681 O 0.85212 0.13274 0.6876 0.0
O682 O 0.92617 0.19039 0.68568 0.0
O683 O 0.91885 0.22114 0.65409 0.0
C684 C 0.80458 0.1754 0.69458 0.0
O685 O 0.86749 0.15216 0.73822 0.0
O686 O 0.91819 0.20209 0.74106 0.0
C687 C 0.85594 0.1961 0.57821 0.0
C688 C 0.88207 0.18851 0.53164 0.0
C689 C 0.88982 0.22232 0.54188 0.0
C690 C 0.87671 0.22602 0.56481 0.0
C691 C 0.84838 0.1623 0.56806 0.0
C692 C 0.86128 0.15858 0.54507 0.0
C693 C 0.84291 0.20066 0.60275 0.0
H694 H 0.87497 0.15423 0.83692 0.0
H695 H 0.89246 0.1429 0.79578 0.0
H696 H 0.87752 0.22585 0.76622 0.0
H697 H 0.86149 0.23845 0.80762 0.0
H698 H 0.90652 0.24604 0.53238 0.0
H699 H 0.88312 0.25242 0.57221 0.0
H700 H 0.83257 0.13864 0.57787 0.0
H701 H 0.85476 0.13214 0.53769 0.0
C702 C 0.34829 0.88768 0.0343 0.0
C703 C 0.34349 0.88506 0.06037 0.0
C704 C 0.38104 0.9141 0.02556 0.0
C705 C 0.41031 0.93862 0.0426 0.0
H706 H 0.32674 0.86884 0.02056 0.0
H707 H 0.38383 0.91453 1.00542 0.0
S708 S 0.41126 0.94386 0.11283 0.0
N709 N 0.37097 0.90961 0.10301 0.0
N710 N 0.43135 0.95965 0.08692 0.0
C711 C 0.4053 0.93689 0.06871 0.0
C712 C 0.37226 0.91005 0.0775 0.0
C713 C 0.16725 0.4973 0.06115 0.0
C714 C 0.16059 0.46423 0.06935 0.0
C715 C 0.13962 0.50094 0.04878 0.0
C716 C 0.10399 0.47189 0.04461 0.0
H717 H 0.19388 0.52093 0.06482 0.0
H718 H 0.14595 0.52705 0.0433 0.0
S719 S 0.07223 0.37906 0.06044 0.0
N720 N 0.11579 0.40118 0.07045 0.0
N721 N 0.06352 0.4087 0.04851 0.0
C722 C 0.09683 0.43864 0.05237 0.0
C723 C 0.12515 0.43465 0.06444 0.0
C724 C 0.56216 0.68336 0.0361 0.0
C725 C 0.5648 0.69052 0.06252 0.0
C726 C 0.55797 0.65108 0.02543 0.0
C727 C 0.55693 0.62516 0.04082 0.0
H728 H 0.5636 0.70294 0.0236 0.0
H729 H 0.55605 0.64659 1.00505 0.0
S730 S 0.55856 0.62898 0.1108 0.0
N731 N 0.56237 0.66718 0.10356 0.0
N732 N 0.5565 0.60774 0.08363 0.0
C733 C 0.55904 0.63178 0.06717 0.0
C734 C 0.56247 0.66412 0.07798 0.0
C735 C 0.89193 0.33251 0.99284 0.0
C736 C 0.88746 0.32456 0.96644 0.0
C737 C 0.91971 0.36567 1.00414 0.0
C738 C 0.94447 0.39199 0.98952 0.0
H739 H 0.87384 0.31292 1.00492 0.0
H740 H 0.92195 0.37061 0.0245 0.0
S741 S 0.94316 0.38582 0.91958 0.0
N742 N 0.90888 0.34707 0.92593 0.0
N743 N 0.96188 0.4084 0.9472 0.0
C744 C 0.94034 0.38443 0.96315 0.0
C745 C 0.9117 0.35101 0.95161 0.0
C746 C 0.69341 0.57846 0.97419 0.0
C747 C 0.69742 0.54849 0.96906 0.0
C748 C 0.66316 0.57536 0.98581 0.0
C749 C 0.63624 0.54238 0.99328 0.0
H750 H 0.71384 0.60456 0.96927 0.0
H751 H 0.66084 0.59897 0.98904 0.0
S752 S 0.63152 0.45517 0.98222 0.0
N753 N 0.66961 0.48399 0.97054 0.0
N754 N 0.61421 0.47894 0.99365 0.0
C755 C 0.63973 0.51226 0.98832 0.0
C756 C 0.66993 0.51511 0.9759 0.0
C757 C 0.48538 0.12924 0.97139 0.0
C758 C 0.46338 0.13815 0.98523 0.0
C759 C 0.49622 0.10582 0.98018 0.0
C760 C 0.48552 0.09018 1.00321 0.0
H761 H 0.49453 0.14067 0.95367 0.0
H762 H 0.51315 0.09992 0.96865 0.0
S763 S 0.4268 0.10395 0.04625 0.0
N764 N 0.43043 0.12894 0.02285 0.0
N765 N 0.45114 0.08512 0.03954 0.0
C766 C 0.46363 0.09901 0.01736 0.0
C767 C 0.4525 0.1229 1.00832 0.0
C768 C 0.66367 0.1565 1.00824 0.0
C769 C 0.67258 0.15656 0.98313 0.0
C770 C 0.63527 0.12593 0.01727 0.0
C771 C 0.61422 0.09417 1.00147 0.0
H772 H 0.67787 0.18081 0.02072 0.0
H773 H 0.62886 0.12785 0.03655 0.0
S774 S 0.62823 0.08033 0.93425 0.0
N775 N 0.65972 0.12216 0.94285 0.0
N776 N 0.60611 0.0645 0.95953 0.0
C777 C 0.62415 0.09347 0.97655 0.0
C778 C 0.65333 0.12471 0.96745 0.0
C779 C 0.88781 0.4887 0.96166 0.0
C780 C 0.8708 0.50255 0.97666 0.0
C781 C 0.92107 0.49211 0.9701 0.0
C782 C 0.93839 0.50901 0.9941 0.0
H783 H 0.87462 0.47398 0.94361 0.0
H784 H 0.93234 0.47988 0.95806 0.0
S785 S 0.90581 0.55206 0.03977 0.0
N786 N 0.87427 0.53567 0.0158 0.0
N787 N 0.93685 0.54195 0.032 0.0
C788 C 0.92231 0.52437 1.00883 0.0
C789 C 0.88851 0.5212 1.00002 0.0
C790 C 0.46958 0.35623 0.98558 0.0
C791 C 0.48437 0.34468 1.00469 0.0
C792 C 0.48218 0.39286 0.98395 0.0
C793 C 0.50976 0.41862 1.00143 0.0
H794 H 0.44667 0.33683 0.97296 0.0
H795 H 0.46861 0.40083 0.97019 0.0
S796 S 0.5612 0.40225 0.05204 0.0
N797 N 0.531 0.36201 0.03913 0.0
N798 N 0.55438 0.4305 0.03621 0.0
C799 C 0.52655 0.40742 0.01921 0.0
C800 C 0.51393 0.37048 0.0208 0.0
C801 C 0.15421 0.65623 0.03644 0.0
C802 C 0.18006 0.65862 0.05502 0.0
C803 C 0.12021 0.62488 0.03171 0.0
C804 C 0.11064 0.59505 0.0457 0.0
H805 H 0.16096 0.67808 0.02467 0.0
H806 H 0.10166 0.62371 0.01653 0.0
S807 S 0.16813 0.58929 0.09791 0.0
N808 N 0.19338 0.62961 0.08842 0.0
N809 N 0.12943 0.57101 0.08 0.0
C810 C 0.1357 0.59795 0.06525 0.0
C811 C 0.17044 0.62963 0.06976 0.0
C812 C 0.40198 0.50862 0.07384 0.0
C813 C 0.37633 0.5102 0.05727 0.0
C814 C 0.43152 0.50705 0.06471 0.0
C815 C 0.43663 0.50723 0.03866 0.0
H816 H 0.40018 0.51041 0.09407 0.0
H817 H 0.45118 0.50699 0.07835 0.0
S818 S 0.37504 0.50881 0.98753 0.0
N819 N 0.35636 0.51004 1.01379 0.0
N820 N 0.41166 0.5069 0.99638 0.0
C821 C 0.4099 0.50695 0.02183 0.0
C822 C 0.37988 0.50862 0.03122 0.0
C823 C 0.53085 0.88931 0.0668 0.0
C824 C 0.52218 0.86227 0.04754 0.0
C825 C 0.53542 0.92256 0.06105 0.0
C826 C 0.53128 0.92959 0.03586 0.0
H827 H 0.53205 0.884 0.08642 0.0
H828 H 0.53992 0.94192 0.07649 0.0
S829 S 0.51419 0.86904 0.97863 0.0
N830 N 0.51359 0.84577 1.00247 0.0
N831 N 0.52248 0.90807 0.99148 0.0
C832 C 0.52526 0.9035 0.01645 0.0
C833 C 0.52058 0.86984 0.02234 0.0
C834 C 0.03853 0.24564 0.41017 0.0
C835 C 1.00974 0.22 0.39342 0.0
C836 C 0.0709 0.27164 0.40136 0.0
C837 C 0.07618 0.27329 0.37535 0.0
H838 H 0.03673 0.24478 0.4304 0.0
H839 H 0.09233 0.29017 0.4153 0.0
S840 S 1.0078 0.21445 0.32337 0.0
N841 N 0.98731 0.19946 0.34938 0.0
N842 N 0.04867 0.24834 0.33277 0.0
C843 C 0.04703 0.24887 0.35823 0.0
C844 C 1.01381 0.22218 0.36727 0.0
C845 C 0.7947 0.77428 0.40055 0.0
C846 C 0.83077 0.80304 0.40442 0.0
C847 C 0.76702 0.77819 0.38842 0.0
C848 C 0.7744 0.81075 0.37911 0.0
H849 H 0.78769 0.74848 0.40704 0.0
H850 H 0.73959 0.7555 0.3863 0.0
S851 S 0.86331 0.89506 0.38555 0.0
N852 N 0.87145 0.86612 0.39923 0.0
N853 N 0.81995 0.87256 0.3751 0.0
C854 C 0.81025 0.8396 0.38251 0.0
C855 C 0.83827 0.83598 0.39546 0.0
C856 C 0.23393 1.00276 0.407 0.0
C857 C 0.24149 0.03102 0.39195 0.0
C858 C 0.22657 0.96953 0.39636 0.0
C859 C 0.22645 0.96293 0.37011 0.0
H860 H 0.2328 1.00603 0.42723 0.0
H861 H 0.22067 0.94878 0.40901 0.0
S862 S 0.24608 0.0287 0.32243 0.0
N863 N 0.24956 0.05089 0.34955 0.0
N864 N 0.23561 0.98808 0.32934 0.0
C865 C 0.23461 0.99117 0.3548 0.0
C866 C 0.24201 0.02521 0.36573 0.0
C867 C 0.54681 0.68919 0.31361 0.0
C868 C 0.55345 0.66205 0.30461 0.0
C869 C 0.57505 0.72203 0.32474 0.0
C870 C 0.61113 0.72933 0.32685 0.0
H871 H 0.51971 0.68545 0.31151 0.0
H872 H 0.56871 0.74227 0.33105 0.0
S873 S 0.64305 0.66684 0.30842 0.0
N874 N 0.59882 0.64403 0.3006 0.0
N875 N 0.65204 0.70655 0.32035 0.0
C876 C 0.61828 0.70252 0.3183 0.0
C877 C 0.58942 0.66872 0.30747 0.0
C878 C 0.3384 0.8601 0.30199 0.0
C879 C 0.36999 0.89402 0.30456 0.0
C880 C 0.30635 0.85438 0.31213 0.0
C881 C 0.30483 0.88209 0.32583 0.0
H882 H 0.33827 0.83793 0.29159 0.0
H883 H 0.28235 0.82805 0.309 0.0
S884 S 0.3801 0.97566 0.33835 0.0
N885 N 0.39787 0.95573 0.32188 0.0
N886 N 0.33761 0.94466 0.34154 0.0
C887 C 0.33635 0.91597 0.32904 0.0
C888 C 0.36892 0.92203 0.31821 0.0
C889 C 0.1397 0.45143 0.30073 0.0
C890 C 0.13785 0.47696 0.31686 0.0
C891 C 0.147 0.42606 0.31027 0.0
C892 C 0.15302 0.425 0.33644 0.0
H893 H 0.13663 0.45167 0.2804 0.0
H894 H 0.14834 0.40733 0.29679 0.0
S895 S 0.14852 0.48434 0.38698 0.0
N896 N 0.14042 0.49846 0.36046 0.0
N897 N 0.1547 0.45073 0.3785 0.0
C898 C 0.15008 0.4496 0.35295 0.0
C899 C 0.14256 0.47566 0.34314 0.0
C900 C 0.3169 0.46082 0.30264 0.0
C901 C 0.34047 0.49054 0.31938 0.0
C902 C 0.28827 0.43008 0.3115 0.0
C903 C 0.2821 0.42827 0.33738 0.0
H904 H 0.31932 0.46216 0.28248 0.0
H905 H 0.26958 0.40856 0.29777 0.0
S906 S 0.33948 0.49793 0.38897 0.0
N907 N 0.35813 0.5154 0.36293 0.0
N908 N 0.30474 0.45786 0.37979 0.0
C909 C 0.30714 0.45713 0.35438 0.0
C910 C 0.33619 0.48824 0.34532 0.0
C911 C 0.55474 0.85182 0.33966 0.0
C912 C 0.54231 0.84651 0.31401 0.0
C913 C 0.58782 0.85394 0.34721 0.0
C914 C 0.60945 0.85032 0.32936 0.0
H915 H 0.53796 0.8527 0.35403 0.0
H916 H 0.59551 0.85669 0.36726 0.0
S917 S 0.58965 0.83891 0.25955 0.0
N918 N 0.55461 0.83987 0.27068 0.0
N919 N 0.61686 0.84396 0.28453 0.0
C920 C 0.59793 0.84677 0.30349 0.0
C921 C 0.5643 0.84476 0.29591 0.0
C922 C 0.20257 0.72299 0.29843 0.0
C923 C 0.19379 0.69763 0.31631 0.0
C924 C 0.19825 0.75275 0.30302 0.0
C925 C 0.18584 0.7583 0.32588 0.0
H926 H 0.21395 0.72039 0.2812 0.0
H927 H 0.20679 0.7726 0.28934 0.0
S928 S 0.15758 0.69868 0.37806 0.0
N929 N 0.17022 0.6788 0.35689 0.0
N930 N 0.16323 0.73532 0.36594 0.0
C931 C 0.17583 0.73247 0.34345 0.0
C932 C 0.17951 0.70191 0.33855 0.0
C933 C 0.83863 0.96618 0.40233 0.0
C934 C 0.85014 0.99513 0.38732 0.0
C935 C 0.80409 0.93576 0.39754 0.0
C936 C 0.78016 0.93284 0.37714 0.0
H937 H 0.85681 0.96676 0.41755 0.0
H938 H 0.79689 0.91371 0.40918 0.0
S939 S 0.79683 1.00265 0.33332 0.0
N940 N 0.83448 0.02023 0.35236 0.0
N941 N 0.76971 0.96276 0.34288 0.0
C942 C 0.79094 0.96228 0.36258 0.0
C943 C 0.82591 0.9935 0.36778 0.0
C944 C 0.06245 0.82849 0.40263 0.0
C945 C 0.04077 0.83911 0.3892 0.0
C946 C 0.09093 0.82693 0.39148 0.0
C947 C 0.09905 0.83639 0.36657 0.0
H948 H 0.05873 0.8234 0.42233 0.0
H949 H 0.10791 0.82021 0.40304 0.0
S950 S 0.04701 0.86206 0.32274 0.0
N951 N 0.02693 0.85624 0.34931 0.0
N952 N 0.08005 0.85322 0.32812 0.0
C953 C 0.07582 0.8448 0.3525 0.0
C954 C 0.04686 0.84628 0.36389 0.0
C955 C 0.20217 0.22645 0.40188 0.0
C956 C 0.19313 0.19896 0.38292 0.0
C957 C 0.20488 0.25889 0.39588 0.0
C958 C 0.19843 0.26463 0.37074 0.0
H959 H 0.20522 0.22212 0.42153 0.0
H960 H 0.20999 0.27867 0.41117 0.0
S961 S 0.17893 0.20229 0.31408 0.0
N962 N 0.18132 0.18056 0.33808 0.0
N963 N 0.18672 0.24132 0.32658 0.0
C964 C 0.19178 0.23803 0.35154 0.0
C965 C 0.18901 0.20521 0.35769 0.0
C966 C 0.70938 0.5384 0.72159 0.0
C967 C 0.68169 0.54368 0.73066 0.0
C968 C 0.73889 0.56543 0.71055 0.0
C969 C 0.74245 0.59918 0.70864 0.0
H970 H 0.70883 0.51341 0.72355 0.0
H971 H 0.75981 0.56029 0.70435 0.0
S972 S 0.67706 0.62676 0.7277 0.0
N973 N 0.65889 0.58501 0.73507 0.0
N974 N 0.71569 0.63644 0.71574 0.0
C975 C 0.71515 0.60501 0.71737 0.0
C976 C 0.6845 0.57717 0.72805 0.0
C977 C 0.48869 0.12936 0.71186 0.0
C978 C 0.49418 0.13047 0.73836 0.0
C979 C 0.46079 0.13376 0.70057 0.0
C980 C 0.43705 0.13889 0.71536 0.0
H981 H 0.50601 0.12493 0.69975 0.0
H982 H 0.45748 0.13267 0.68016 0.0
S983 S 0.44214 0.14794 0.78547 0.0
N984 N 0.47531 0.14044 0.77898 0.0
N985 N 0.42233 0.14726 0.75785 0.0
C986 C 0.44253 0.14055 0.74182 0.0
C987 C 0.47117 0.13667 0.75329 0.0
C988 C 0.90021 0.33181 0.74238 0.0
C989 C 0.90144 0.3581 0.72725 0.0
C990 C 0.8963 0.2999 0.7316 0.0
C991 C 0.89275 0.2926 0.70525 0.0
H992 H 0.90127 0.33539 0.76277 0.0
H993 H 0.89489 0.28032 0.74407 0.0
S994 S 0.89727 0.35346 0.65713 0.0
N995 N 0.90164 0.37569 0.68441 0.0
N996 N 0.89262 0.31479 0.66418 0.0
C997 C 0.89448 0.31871 0.68982 0.0
C998 C 0.8992 0.35163 0.7008 0.0
C999 C 0.22788 0.99682 0.66053 0.0
C1000 C 0.21942 0.9908 0.63413 0.0
C1001 C 0.25619 0.02972 0.67168 0.0
C1002 C 0.27761 0.05759 0.65684 0.0
H1003 H 0.21226 0.97605 0.67272 0.0
H1004 H 0.26138 0.03335 0.69206 0.0
S1005 S 0.26576 0.0566 0.58717 0.0
N1006 N 0.23385 0.0166 0.59367 0.0
N1007 N 0.28803 0.07755 0.61455 0.0
C1008 C 0.26986 0.05188 0.63047 0.0
C1009 C 0.24059 0.01871 0.61914 0.0
C1010 C 0.03236 0.22215 0.65991 0.0
C1011 C 0.03566 0.22334 0.63364 0.0
C1012 C 1.00077 0.21765 0.67037 0.0
C1013 C 0.97143 0.21458 0.65499 0.0
H1014 H 0.0544 0.22468 0.67251 0.0
H1015 H 0.99944 0.21683 0.69065 0.0
S1016 S 0.9647 0.21239 0.58486 0.0
N1017 N 1.00549 0.21837 0.5924 0.0
N1018 N 0.94678 0.21082 0.61194 0.0
C1019 C 0.97423 0.2154 0.62867 0.0
C1020 C 1.00615 0.2196 0.61804 0.0
C1021 C 0.79663 0.78429 0.64632 0.0
C1022 C 0.82865 0.81717 0.64448 0.0
C1023 C 0.79761 0.75625 0.65775 0.0
C1024 C 0.83051 0.7604 0.6682 0.0
H1025 H 0.77061 0.78015 0.63883 0.0
H1026 H 0.77246 0.7312 0.65845 0.0
S1027 S 0.9222 0.83954 0.66638 0.0
N1028 N 0.89453 0.85094 0.65242 0.0
N1029 N 0.89597 0.79888 0.67492 0.0
C1030 C 0.86265 0.79298 0.66654 0.0
C1031 C 0.86182 0.82122 0.65445 0.0
C1032 C 0.9992 0.81561 0.68334 0.0
C1033 C 1.00609 0.82235 0.65797 0.0
C1034 C 0.96988 0.78336 0.68971 0.0
C1035 C 0.9459 0.75685 0.6709 0.0
H1036 H 1.01574 0.83611 0.69833 0.0
H1037 H 0.96483 0.78017 0.70945 0.0
S1038 S 0.95382 0.76082 0.6016 0.0
N1039 N 0.98814 0.79937 0.61403 0.0
N1040 N 0.9329 0.73878 0.62571 0.0
C1041 C 0.95371 0.76267 0.64545 0.0
C1042 C 0.98381 0.7954 0.63906 0.0
C1043 C 0.21918 0.15145 0.62913 0.0
C1044 C 0.20392 0.16817 0.64318 0.0
C1045 C 0.25249 0.1547 0.63741 0.0
C1046 C 0.2716 0.17432 0.66035 0.0
H1047 H 0.20469 0.13483 0.61193 0.0
H1048 H 0.26242 0.14034 0.62621 0.0
S1049 S 0.24413 0.22513 0.70328 0.0
N1050 N 0.21111 0.20667 0.6803 0.0
N1051 N 0.27363 0.21262 0.69617 0.0
C1052 C 0.25724 0.19234 0.6741 0.0
C1053 C 0.22346 0.18935 0.66543 0.0
C1054 C 0.86545 0.04334 0.67626 0.0
C1055 C 0.87199 0.03352 0.65242 0.0
C1056 C 0.85874 0.07165 0.67972 0.0
C1057 C 0.85892 0.0916 0.65949 0.0
H1058 H 0.86672 0.02974 0.69252 0.0
H1059 H 0.85507 0.0789 0.69868 0.0
S1060 S 0.87241 0.07444 0.59283 0.0
N1061 N 0.87626 0.04398 0.608 0.0
N1062 N 0.86404 0.09764 0.61428 0.0
C1063 C 0.86394 0.08089 0.63526 0.0
C1064 C 0.87043 0.05175 0.63178 0.0
C1065 C 0.5023 0.2907 0.73831 0.0
C1066 C 0.51391 0.32103 0.72467 0.0
C1067 C 0.46749 0.26076 0.73309 0.0
C1068 C 0.44326 0.2598 0.7137 0.0
H1069 H 0.52068 0.28976 0.75264 0.0
H1070 H 0.46028 0.23756 0.7435 0.0
S1071 S 0.45994 0.33352 0.67369 0.0
N1072 N 0.49797 0.34931 0.6921 0.0
N1073 N 0.43261 0.29285 0.68194 0.0
C1074 C 0.45408 0.29058 0.70061 0.0
C1075 C 0.48938 0.32126 0.70621 0.0
C1076 C 0.73768 0.17646 0.739 0.0
C1077 C 0.7101 0.17468 0.72245 0.0
C1078 C 0.76711 0.17476 0.72975 0.0
C1079 C 0.77024 0.17151 0.70355 0.0
H1080 H 0.73743 0.18099 0.75919 0.0
H1081 H 0.78828 0.17746 0.74334 0.0
S1082 S 0.70332 0.16369 0.65255 0.0
N1083 N 0.68634 0.1678 0.67895 0.0
N1084 N 0.7414 0.16441 0.66131 0.0
C1085 C 0.74166 0.16791 0.68687 0.0
C1086 C 0.71172 0.16966 0.69638 0.0
C1087 C 0.84217 0.52983 0.68929 0.0
C1088 C 0.84805 0.5222 0.7139 0.0
C1089 C 0.84703 0.56336 0.68446 0.0
C1090 C 0.85733 0.59028 0.70418 0.0
H1091 H 0.83268 0.5093 0.67377 0.0
H1092 H 0.84082 0.56748 0.66535 0.0
S1093 S 0.87842 0.58424 0.77176 0.0
N1094 N 0.86678 0.54464 0.75793 0.0
N1095 N 0.87561 0.60767 0.74909 0.0
C1096 C 0.86479 0.5834 0.72874 0.0
C1097 C 0.86026 0.54936 0.73355 0.0
C1098 C 0.4366 0.94134 0.21952 0.0
C1099 C 0.46119 0.9432 0.23906 0.0
C1100 C 0.44884 0.95888 0.19742 0.0
C1101 C 0.48616 0.97888 0.19387 0.0
H1102 H 0.40759 0.92542 0.221 0.0
H1103 H 0.42885 0.95611 0.18275 0.0
S1104 S 0.56183 0.9952 0.24022 0.0
N1105 N 0.52477 0.9689 0.25404 0.0
N1106 N 0.54764 1.00148 0.21251 0.0
C1107 C 0.51104 0.98166 0.21347 0.0
C1108 C 0.49861 0.96396 0.23602 0.0
C1109 C 0.08552 0.4894 0.22829 0.0
C1110 C 0.08567 0.51435 0.24635 0.0
C1111 C 0.06759 0.48265 0.20412 0.0
C1112 C 0.04937 0.50077 0.19701 0.0
H1113 H 0.10042 0.47585 0.23254 0.0
H1114 H 0.06901 0.46394 0.19063 0.0
S1115 S 0.03824 0.5657 0.23799 0.0
N1116 N 0.06338 0.55499 0.25604 0.0
N1117 N 0.03017 0.54266 0.21045 0.0
C1118 C 0.04829 0.5249 0.21508 0.0
C1119 C 0.06631 0.5316 0.23976 0.0
C1120 C 0.51843 0.59292 0.21209 0.0
C1121 C 0.50484 0.56953 0.23132 0.0
C1122 C 0.52628 0.5821 0.18914 0.0
C1123 C 0.52131 0.54766 0.18473 0.0
H1124 H 0.52322 0.61989 0.21489 0.0
H1125 H 0.53706 0.6011 0.17494 0.0
S1126 S 0.48544 0.47606 0.22874 0.0
N1127 N 0.48587 0.5102 0.24429 0.0
N1128 N 0.50096 0.48985 0.20113 0.0
C1129 C 0.50734 0.52387 0.20367 0.0
C1130 C 0.49891 0.53477 0.22696 0.0
C1131 C 0.96862 0.48439 0.80731 0.0
C1132 C 0.94266 0.44816 0.80119 0.0
C1133 C 0.98806 0.49616 0.83125 0.0
C1134 C 0.98164 0.47216 0.84992 0.0
H1135 H 0.97442 0.50355 0.79335 0.0
H1136 H 1.00807 0.52422 0.83524 0.0
S1137 S 0.91578 0.37474 0.84336 0.0
N1138 N 0.911 0.3886 0.81582 0.0
N1139 N 0.94746 0.41063 0.86056 0.0
C1140 C 0.95538 0.43601 0.84405 0.0
C1141 C 0.9359 0.42404 0.81975 0.0
C1142 C 0.59308 0.48185 0.82119 0.0
C1143 C 0.59602 0.50106 0.79997 0.0
C1144 C 0.57938 0.48779 0.84321 0.0
C1145 C 0.56805 0.51317 0.84494 0.0
H1146 H 0.60169 0.4622 0.82083 0.0
H1147 H 0.57793 0.47255 0.85912 0.0
S1148 S 0.56845 0.56924 0.79424 0.0
N1149 N 0.58551 0.54576 0.78179 0.0
N1150 N 0.55962 0.55686 0.82317 0.0
C1151 C 0.57081 0.53256 0.82386 0.0
C1152 C 0.58483 0.52652 0.80141 0.0
C1153 C 0.55346 0.06437 0.81286 0.0
C1154 C 0.54355 0.09027 0.80872 0.0
C1155 C 0.54633 0.047 0.83536 0.0
C1156 C 0.52968 0.05543 0.85471 0.0
H1157 H 0.56603 0.05692 0.79837 0.0
H1158 H 0.55392 0.02685 0.83767 0.0
S1159 S 0.49967 0.12227 0.85343 0.0
N1160 N 0.51722 0.12422 0.82612 0.0
N1161 N 0.50381 0.09168 0.86818 0.0
C1162 C 0.52034 0.08179 0.85093 0.0
C1163 C 0.52727 0.09917 0.82802 0.0
C1164 C 0.10584 0.26855 0.54983 0.0
C1165 C 0.12965 0.27113 0.57019 0.0
C1166 C 0.11902 0.28699 0.52826 0.0
C1167 C 0.15655 0.30911 0.52624 0.0
H1168 H 0.07674 0.25155 0.55036 0.0
H1169 H 0.09963 0.28404 0.51305 0.0
S1170 S 0.2303 0.32548 0.57441 0.0
N1171 N 0.19257 0.29795 0.58709 0.0
N1172 N 0.21735 0.33254 0.54654 0.0
C1173 C 0.18065 0.31225 0.54657 0.0
C1174 C 0.16722 0.29323 0.56848 0.0
C1175 C 0.76143 0.87071 0.56661 0.0
C1176 C 0.78544 0.85774 0.5706 0.0
C1177 C 0.74057 0.86286 0.54354 0.0
C1178 C 0.74322 0.84204 0.52354 0.0
H1179 H 0.75851 0.88679 0.58153 0.0
H1180 H 0.72256 0.87357 0.54122 0.0
S1181 S 0.80247 0.80204 0.52433 0.0
N1182 N 0.81117 0.82354 0.55257 0.0
N1183 N 0.77156 0.80833 0.50932 0.0
C1184 C 0.76722 0.82897 0.52727 0.0
C1185 C 0.78837 0.83688 0.55079 0.0
C1186 C 0.16095 0.86584 0.55824 0.0
C1187 C 0.15903 0.89705 0.56233 0.0
C1188 C 0.1688 0.85654 0.5346 0.0
C1189 C 0.17483 0.87808 0.51425 0.0
H1190 H 0.15773 0.8493 0.57365 0.0
H1191 H 0.17084 0.83267 0.53235 0.0
S1192 S 0.17179 0.96218 0.51559 0.0
N1193 N 0.16275 0.94895 0.5443 0.0
N1194 N 0.17762 0.9318 0.5 0.0
C1195 C 0.17184 0.90881 0.51807 0.0
C1196 C 0.16398 0.91823 0.54209 0.0
C1197 C 0.60881 0.76068 0.1515 0.0
C1198 C 0.61321 0.78526 0.1337 0.0
C1199 C 0.62733 0.77205 0.17557 0.0
C1200 C 0.65112 0.80847 0.18281 0.0
H1201 H 0.5907 0.7323 0.14684 0.0
H1202 H 0.62336 0.75206 0.1885 0.0
S1203 S 0.67139 0.88375 0.14356 0.0
N1204 N 0.64266 0.84774 0.12507 0.0
N1205 N 0.67732 0.86928 0.17057 0.0
C1206 C 0.65554 0.83344 0.16533 0.0
C1207 C 0.63651 0.82182 0.14076 0.0
C1208 C 0.2161 0.82342 0.12891 0.0
C1209 C 0.25353 0.83945 0.12591 0.0
C1210 C 0.20351 0.82846 0.15184 0.0
C1211 C 0.22789 0.84919 0.17276 0.0
H1212 H 0.19642 0.80689 0.11339 0.0
H1213 H 0.17447 0.81551 0.15337 0.0
S1214 S 0.32859 0.89674 0.17475 0.0
N1215 N 0.31481 0.87671 0.1459 0.0
N1216 N 0.29123 0.88635 0.1888 0.0
C1217 C 0.26537 0.86542 0.16997 0.0
C1218 C 0.27816 0.86053 0.1466 0.0
C1219 C 0.22959 0.43559 0.16276 0.0
C1220 C 0.20628 0.41998 0.14048 0.0
C1221 C 0.22241 0.41792 0.18507 0.0
C1222 C 0.19163 0.38381 0.18609 0.0
H1223 H 0.25319 0.4621 0.16316 0.0
H1224 H 0.24115 0.43115 0.20168 0.0
S1225 S 0.12239 0.33082 0.13282 0.0
N1226 N 0.15183 0.36771 0.12064 0.0
N1227 N 0.13757 0.33518 0.16269 0.0
C1228 C 0.16831 0.36772 0.16386 0.0
C1229 C 0.17577 0.38562 0.14111 0.0
C1230 C 0.79098 0.58143 0.8792 0.0
C1231 C 0.78539 0.59674 0.90128 0.0
C1232 C 0.80316 0.60063 0.85781 0.0
C1233 C 0.81045 0.63605 0.85758 0.0
H1234 H 0.7856 0.5542 0.87834 0.0
H1235 H 0.80736 0.58773 0.84141 0.0
S1236 S 0.79969 0.6884 0.91033 0.0
N1237 N 0.78813 0.64959 0.92153 0.0
N1238 N 0.81022 0.68536 0.88118 0.0
C1239 C 0.80474 0.65164 0.87945 0.0
C1240 C 0.79232 0.63206 0.90126 0.0
C1241 C 0.42788 0.17003 0.89396 0.0
C1242 C 0.41108 0.17581 0.91438 0.0
C1243 C 0.41262 0.1645 0.869 0.0
C1244 C 0.37978 0.16414 0.86357 0.0
H1245 H 0.45322 0.17019 0.89729 0.0
H1246 H 0.42644 0.16013 0.85385 0.0
S1247 S 0.32479 0.17744 0.91028 0.0
N1248 N 0.35944 0.18009 0.92751 0.0
N1249 N 0.33121 0.17042 0.88066 0.0
C1250 C 0.36268 0.16974 0.88382 0.0
C1251 C 0.37822 0.17544 0.90918 0.0
C1252 C 0.81856 0.21946 0.8757 0.0
C1253 C 0.83973 0.22441 0.8983 0.0
C1254 C 0.82726 0.21015 0.85246 0.0
C1255 C 0.85742 0.20529 0.85086 0.0
H1256 H 0.79594 0.22423 0.8758 0.0
H1257 H 0.81047 0.2072 0.83553 0.0
S1258 S 0.92035 0.21308 0.90477 0.0
N1259 N 0.89088 0.22166 0.91784 0.0
N1260 N 0.90787 0.20519 0.87418 0.0
C1261 C 0.8781 0.20902 0.87345 0.0
C1262 C 0.86915 0.21837 0.89712 0.0
C1263 C 0.31395 0.156 0.47367 0.0
C1264 C 0.28812 0.11995 0.46667 0.0
C1265 C 0.33223 0.16678 0.49799 0.0
C1266 C 0.3247 0.14195 0.51617 0.0
H1267 H 0.32033 0.17585 0.46019 0.0
H1268 H 0.35202 0.19475 0.50271 0.0
S1269 S 0.25906 0.04464 0.50734 0.0
N1270 N 0.25565 0.05961 0.47996 0.0
N1271 N 0.28997 0.07989 0.52548 0.0
C1272 C 0.2988 0.10595 0.50941 0.0
C1273 C 0.2805 0.09494 0.48471 0.0
C1274 C 0.92502 0.1576 0.48271 0.0
C1275 C 0.92262 0.17391 0.46101 0.0
C1276 C 0.91216 0.16274 0.5054 0.0
C1277 C 0.89618 0.18429 0.50734 0.0
H1278 H 0.93724 0.14091 0.48219 0.0
H1279 H 0.91501 0.14991 0.52164 0.0
S1280 S 0.88194 0.23165 0.45558 0.0
N1281 N 0.90249 0.21188 0.44265 0.0
N1282 N 0.8777 0.22117 0.48518 0.0
C1283 C 0.89358 0.20074 0.48573 0.0
C1284 C 0.90693 0.19565 0.46263 0.0
C1285 C 0.83954 0.7245 0.47841 0.0
C1286 C 0.87048 0.75868 0.47837 0.0
C1287 C 0.83082 0.70618 0.50041 0.0
C1288 C 0.85251 0.72135 0.52338 0.0
H1289 H 0.82208 0.7116 0.46119 0.0
H1290 H 0.80668 0.67997 0.49945 0.0
S1291 S 0.93613 0.81052 0.5336 0.0
N1292 N 0.92233 0.80742 0.50354 0.0
N1293 N 0.90653 0.77265 0.54462 0.0
C1294 C 0.88343 0.75561 0.52365 0.0
C1295 C 0.8923 0.77429 0.50124 0.0
loop_
_geom_bond_atom_site_label_1
_geom_bond_atom_site_label_2
_geom_bond_distance
_geom_bond_site_symmetry_2
_ccdc_geom_bond_type
H0 C1 0.949 . S
C1 H0 0.949 . S
C1 C2 1.395 . S
C1 C3 1.391 . S
C2 C1 1.395 . S
C2 C5 1.390 . S
C3 C1 1.391 . S
C3 C7 1.387 . S
C3 C8 1.491 . S
H4 C5 0.950 . S
C5 C2 1.390 . S
C5 H4 0.950 . S
C5 C6 1.378 . S
C6 C5 1.378 . S
C6 C7 1.409 . S
C7 C3 1.387 . S
C7 C6 1.409 . S
C7 H9 0.951 . S
C8 C3 1.491 . S
C8 C10 1.382 . S
C8 C12 1.404 . S
H9 C7 0.951 . S
C10 C8 1.382 . S
C10 C11 1.390 . S
C10 H15 0.949 . S
C11 C10 1.390 . S
C11 C16 1.399 . S
C12 C8 1.404 . S
C12 H13 0.950 . S
C12 C14 1.375 . S
H13 C12 0.950 . S
C14 C12 1.375 . S
C14 C16 1.382 . S
C14 H18 0.950 . S
H15 C10 0.949 . S
C16 C11 1.399 . S
C16 C14 1.382 . S
C16 H17 0.952 . S
H17 C16 0.952 . S
H18 C14 0.950 . S
H19 C20 0.949 . S
C20 H19 0.949 . S
C20 C21 1.395 . S
C20 C22 1.391 . S
C21 C20 1.395 . S
C21 C24 1.390 . S
C22 C20 1.391 . S
C22 C26 1.387 . S
C22 C27 1.491 . S
H23 C24 0.950 . S
C24 C21 1.390 . S
C24 H23 0.950 . S
C24 C25 1.378 . S
C25 C24 1.378 . S
C25 C26 1.409 . S
C26 C22 1.387 . S
C26 C25 1.409 . S
C26 H28 0.951 . S
C27 C22 1.491 . S
C27 C29 1.382 . S
C27 C31 1.404 . S
H28 C26 0.951 . S
C29 C27 1.382 . S
C29 C30 1.390 . S
C29 H34 0.949 . S
C30 C29 1.390 . S
C30 C35 1.399 1_545 S
C31 C27 1.404 . S
C31 H32 0.950 . S
C31 C33 1.375 . S
H32 C31 0.950 . S
C33 C31 1.375 . S
C33 C35 1.382 1_545 S
C33 H37 0.950 . S
H34 C29 0.949 . S
C35 C30 1.399 1_565 S
C35 C33 1.382 1_565 S
C35 H36 0.952 . S
H36 C35 0.952 . S
H37 C33 0.950 . S
H38 C39 0.949 . S
C39 H38 0.949 . S
C39 C40 1.395 . S
C39 C41 1.391 . S
C40 C39 1.395 . S
C40 C43 1.390 . S
C41 C39 1.391 . S
C41 C45 1.387 . S
C41 C46 1.491 . S
H42 C43 0.950 . S
C43 C40 1.390 . S
C43 H42 0.950 . S
C43 C44 1.378 . S
C44 C43 1.378 . S
C44 C45 1.409 . S
C45 C41 1.387 . S
C45 C44 1.409 . S
C45 H47 0.951 . S
C46 C41 1.491 . S
C46 C48 1.382 . S
C46 C50 1.404 . S
H47 C45 0.951 . S
C48 C46 1.382 . S
C48 C49 1.390 1_655 S
C48 H53 0.949 . S
C49 C48 1.390 1_455 S
C49 C54 1.399 . S
C50 C46 1.404 . S
C50 H51 0.950 . S
C50 C52 1.375 1_655 S
H51 C50 0.950 . S
C52 C50 1.375 1_455 S
C52 C54 1.382 . S
C52 H56 0.950 . S
H53 C48 0.949 . S
C54 C49 1.399 . S
C54 C52 1.382 . S
C54 H55 0.952 . S
H55 C54 0.952 . S
H56 C52 0.950 . S
H57 C58 0.949 . S
C58 H57 0.949 . S
C58 C59 1.395 . S
C58 C60 1.391 . S
C59 C58 1.395 . S
C59 C62 1.390 . S
C60 C58 1.391 . S
C60 C64 1.387 . S
C60 C65 1.491 . S
H61 C62 0.950 . S
C62 C59 1.390 . S
C62 H61 0.950 . S
C62 C63 1.378 . S
C63 C62 1.378 . S
C63 C64 1.409 . S
C64 C60 1.387 . S
C64 C63 1.409 . S
C64 H66 0.951 . S
C65 C60 1.491 . S
C65 C67 1.382 . S
C65 C69 1.404 . S
H66 C64 0.951 . S
C67 C65 1.382 . S
C67 C68 1.390 . S
C67 H72 0.949 . S
C68 C67 1.390 . S
C68 C73 1.399 . S
C69 C65 1.404 . S
C69 H70 0.950 . S
C69 C71 1.375 . S
H70 C69 0.950 . S
C71 C69 1.375 . S
C71 C73 1.382 . S
C71 H75 0.950 . S
H72 C67 0.949 . S
C73 C68 1.399 . S
C73 C71 1.382 . S
C73 H74 0.952 . S
H74 C73 0.952 . S
H75 C71 0.950 . S
H76 C77 0.949 . S
C77 H76 0.949 . S
C77 C78 1.395 . S
C77 C79 1.391 . S
C78 C77 1.395 . S
C78 C81 1.390 . S
C79 C77 1.391 . S
C79 C83 1.387 . S
C79 C84 1.491 . S
H80 C81 0.950 . S
C81 C78 1.390 . S
C81 H80 0.950 . S
C81 C82 1.378 . S
C82 C81 1.378 . S
C82 C83 1.409 . S
C83 C79 1.387 . S
C83 C82 1.409 . S
C83 H85 0.951 . S
C84 C79 1.491 . S
C84 C86 1.382 . S
C84 C88 1.404 . S
H85 C83 0.951 . S
C86 C84 1.382 . S
C86 C87 1.390 . S
C86 H91 0.949 . S
C87 C86 1.390 . S
C87 C92 1.400 1_565 S
C88 C84 1.404 . S
C88 H89 0.950 . S
C88 C90 1.375 . S
H89 C88 0.950 . S
C90 C88 1.375 . S
C90 C92 1.381 1_565 S
C90 H94 0.950 . S
H91 C86 0.949 . S
C92 C87 1.400 1_545 S
C92 C90 1.381 1_545 S
C92 H93 0.953 . S
H93 C92 0.953 . S
H94 C90 0.950 . S
H95 C96 0.949 . S
C96 H95 0.949 . S
C96 C97 1.395 . S
C96 C98 1.391 . S
C97 C96 1.395 . S
C97 C100 1.390 . S
C98 C96 1.391 . S
C98 C102 1.387 . S
C98 C103 1.491 . S
H99 C100 0.950 . S
C100 C97 1.390 . S
C100 H99 0.950 . S
C100 C101 1.378 . S
C101 C100 1.378 . S
C101 C102 1.409 . S
C102 C98 1.387 . S
C102 C101 1.409 . S
C102 H104 0.951 . S
C103 C98 1.491 . S
C103 C105 1.382 . S
C103 C107 1.404 . S
H104 C102 0.951 . S
C105 C103 1.382 . S
C105 C106 1.390 . S
C105 H110 0.949 . S
C106 C105 1.390 . S
C106 C111 1.399 . S
C107 C103 1.404 . S
C107 H108 0.950 . S
C107 C109 1.375 . S
H108 C107 0.950 . S
C109 C107 1.375 . S
C109 C111 1.382 . S
C109 H113 0.950 . S
H110 C105 0.949 . S
C111 C106 1.399 . S
C111 C109 1.382 . S
C111 H112 0.952 1_455 S
H112 C111 0.952 1_655 S
H113 C109 0.950 . S
H114 C115 0.949 . S
C115 H114 0.949 . S
C115 C116 1.395 . S
C115 C117 1.391 . S
C116 C115 1.395 . S
C116 C119 1.390 . S
C117 C115 1.391 . S
C117 C121 1.387 . S
C117 C122 1.491 . S
H118 C119 0.950 . S
C119 C116 1.390 . S
C119 H118 0.950 . S
C119 C120 1.378 . S
C120 C119 1.378 . S
C120 C121 1.409 . S
C121 C117 1.387 . S
C121 C120 1.409 . S
C121 H123 0.951 . S
C122 C117 1.491 . S
C122 C124 1.382 . S
C122 C126 1.404 . S
H123 C121 0.951 . S
C124 C122 1.382 . S
C124 C125 1.390 . S
C124 H129 0.949 . S
C125 C124 1.390 . S
C125 C130 1.399 . S
C126 C122 1.404 . S
C126 H127 0.950 . S
C126 C128 1.375 . S
H127 C126 0.950 . S
C128 C126 1.375 . S
C128 C130 1.382 . S
C128 H132 0.950 . S
H129 C124 0.949 . S
C130 C125 1.399 . S
C130 C128 1.382 . S
C130 H131 0.952 . S
H131 C130 0.952 . S
H132 C128 0.950 . S
H133 C134 0.949 . S
C134 H133 0.949 . S
C134 C135 1.395 . S
C134 C136 1.391 . S
C135 C134 1.395 . S
C135 C138 1.390 . S
C136 C134 1.391 . S
C136 C140 1.387 . S
C136 C141 1.491 . S
H137 C138 0.950 . S
C138 C135 1.390 . S
C138 H137 0.950 . S
C138 C139 1.378 . S
C139 C138 1.378 . S
C139 C140 1.409 . S
C140 C136 1.387 . S
C140 C139 1.409 . S
C140 H142 0.951 . S
C141 C136 1.491 . S
C141 C143 1.382 . S
C141 C145 1.404 . S
H142 C140 0.951 . S
C143 C141 1.382 . S
C143 C144 1.390 . S
C143 H148 0.949 . S
C144 C143 1.390 . S
C144 C149 1.399 . S
C145 C141 1.404 . S
C145 H146 0.950 . S
C145 C147 1.375 . S
H146 C145 0.950 . S
C147 C145 1.375 . S
C147 C149 1.382 . S
C147 H151 0.950 . S
H148 C143 0.949 . S
C149 C144 1.399 . S
C149 C147 1.382 . S
C149 H150 0.952 . S
H150 C149 0.952 . S
H151 C147 0.950 . S
H152 C153 0.949 . S
C153 H152 0.949 . S
C153 C154 1.395 . S
C153 C155 1.391 . S
C154 C153 1.395 . S
C154 C157 1.390 . S
C155 C153 1.391 . S
C155 C159 1.387 . S
C155 C160 1.491 . S
H156 C157 0.950 . S
C157 C154 1.390 . S
C157 H156 0.950 . S
C157 C158 1.378 . S
C158 C157 1.378 . S
C158 C159 1.409 . S
C159 C155 1.387 . S
C159 C158 1.409 . S
C159 H161 0.951 . S
C160 C155 1.491 . S
C160 C162 1.382 . S
C160 C164 1.404 . S
H161 C159 0.951 . S
C162 C160 1.382 . S
C162 C163 1.390 . S
C162 H167 0.949 . S
C163 C162 1.390 . S
C163 C168 1.399 . S
C164 C160 1.404 . S
C164 H165 0.950 . S
C164 C166 1.375 . S
H165 C164 0.950 . S
C166 C164 1.375 . S
C166 C168 1.382 . S
C166 H170 0.950 . S
H167 C162 0.949 . S
C168 C163 1.399 . S
C168 C166 1.382 . S
C168 H169 0.952 . S
H169 C168 0.952 . S
H170 C166 0.950 . S
H171 C172 0.949 . S
C172 H171 0.949 . S
C172 C173 1.395 . S
C172 C174 1.391 . S
C173 C172 1.395 . S
C173 C176 1.390 . S
C174 C172 1.391 . S
C174 C178 1.387 . S
C174 C179 1.491 . S
H175 C176 0.950 . S
C176 C173 1.390 . S
C176 H175 0.950 . S
C176 C177 1.378 . S
C177 C176 1.378 . S
C177 C178 1.409 . S
C178 C174 1.387 . S
C178 C177 1.409 . S
C178 H180 0.951 . S
C179 C174 1.491 . S
C179 C181 1.382 . S
C179 C183 1.404 . S
H180 C178 0.951 . S
C181 C179 1.382 . S
C181 C182 1.390 . S
C181 H186 0.949 . S
C182 C181 1.390 . S
C182 C187 1.399 . S
C183 C179 1.404 . S
C183 H184 0.950 . S
C183 C185 1.375 . S
H184 C183 0.950 . S
C185 C183 1.375 . S
C185 C187 1.382 . S
C185 H189 0.950 . S
H186 C181 0.949 . S
C187 C182 1.399 . S
C187 C185 1.382 . S
C187 H188 0.952 . S
H188 C187 0.952 . S
H189 C185 0.950 . S
H190 C191 0.949 . S
C191 H190 0.949 . S
C191 C192 1.395 . S
C191 C193 1.391 . S
C192 C191 1.395 . S
C192 C195 1.390 . S
C193 C191 1.391 . S
C193 C197 1.387 . S
C193 C198 1.491 . S
H194 C195 0.950 . S
C195 C192 1.390 . S
C195 H194 0.950 . S
C195 C196 1.378 . S
C196 C195 1.378 . S
C196 C197 1.409 . S
C197 C193 1.387 . S
C197 C196 1.409 . S
C197 H199 0.951 1_556 S
C198 C193 1.491 . S
C198 C200 1.382 . S
C198 C202 1.404 1_556 S
H199 C197 0.951 1_554 S
C200 C198 1.382 . S
C200 C201 1.390 1_556 S
C200 H205 0.949 . S
C201 C200 1.390 1_554 S
C201 C206 1.399 . S
C202 C198 1.404 1_554 S
C202 H203 0.950 . S
C202 C204 1.375 . S
H203 C202 0.950 . S
C204 C202 1.375 . S
C204 C206 1.382 . S
C204 H208 0.950 . S
H205 C200 0.949 . S
C206 C201 1.399 . S
C206 C204 1.382 . S
C206 H207 0.952 . S
H207 C206 0.952 . S
H208 C204 0.950 . S
H209 C210 0.949 . S
C210 H209 0.949 . S
C210 C211 1.395 . S
C210 C212 1.391 . S
C211 C210 1.395 . S
C211 C214 1.390 . S
C212 C210 1.391 . S
C212 C216 1.387 . S
C212 C217 1.491 . S
H213 C214 0.950 . S
C214 C211 1.390 . S
C214 H213 0.950 . S
C214 C215 1.378 . S
C215 C214 1.378 . S
C215 C216 1.409 . S
C216 C212 1.387 . S
C216 C215 1.409 . S
C216 H218 0.951 . S
C217 C212 1.491 . S
C217 C219 1.382 . S
C217 C221 1.404 . S
H218 C216 0.951 . S
C219 C217 1.382 . S
C219 C220 1.390 . S
C219 H224 0.949 . S
C220 C219 1.390 . S
C220 C225 1.399 . S
C221 C217 1.404 . S
C221 H222 0.950 . S
C221 C223 1.379 . S
H222 C221 0.950 . S
C223 C221 1.379 . S
C223 C225 1.383 . S
C223 H227 0.945 1_556 S
H224 C219 0.949 . S
C225 C220 1.399 . S
C225 C223 1.383 . S
C225 H226 0.952 1_556 S
H226 C225 0.952 1_554 S
H227 C223 0.945 1_554 S
H228 C229 0.949 . S
C229 H228 0.949 . S
C229 C230 1.395 . S
C229 C231 1.391 . S
C230 C229 1.395 . S
C230 C233 1.390 . S
C231 C229 1.391 . S
C231 C235 1.387 . S
C231 C236 1.491 . S
H232 C233 0.950 . S
C233 C230 1.390 . S
C233 H232 0.950 . S
C233 C234 1.378 . S
C234 C233 1.378 . S
C234 C235 1.409 . S
C235 C231 1.387 . S
C235 C234 1.409 . S
C235 H237 0.947 1_554 S
C236 C231 1.491 . S
C236 C238 1.382 . S
C236 C240 1.394 1_554 S
H237 C235 0.947 1_556 S
C238 C236 1.382 . S
C238 C239 1.390 . S
C238 H243 0.949 . S
C239 C238 1.390 . S
C239 C244 1.399 1_554 S
C240 C236 1.394 1_556 S
C240 H241 0.951 . S
C240 C242 1.384 . S
H241 C240 0.951 . S
C242 C240 1.384 . S
C242 C244 1.382 . S
C242 H246 0.950 . S
H243 C238 0.949 . S
C244 C239 1.399 1_556 S
C244 C242 1.382 . S
C244 H245 0.952 . S
H245 C244 0.952 . S
H246 C242 0.950 . S
H247 C248 0.949 . S
C248 H247 0.949 . S
C248 C249 1.395 . S
C248 C250 1.391 . S
C249 C248 1.395 . S
C249 C252 1.390 . S
C250 C248 1.391 . S
C250 C254 1.387 . S
C250 C255 1.491 . S
H251 C252 0.950 . S
C252 C249 1.390 . S
C252 H251 0.950 . S
C252 C253 1.378 . S
C253 C252 1.378 . S
C253 C254 1.409 . S
C254 C250 1.387 . S
C254 C253 1.409 . S
C254 H256 0.951 . S
C255 C250 1.491 . S
C255 C257 1.382 . S
C255 C259 1.404 . S
H256 C254 0.951 . S
C257 C255 1.382 . S
C257 C258 1.390 . S
C257 H262 0.949 . S
C258 C257 1.390 . S
C258 C263 1.412 . S
C259 C255 1.404 . S
C259 H260 0.950 . S
C259 C261 1.374 1_554 S
H260 C259 0.950 . S
C261 C259 1.374 1_556 S
C261 C263 1.379 1_556 S
C261 H265 0.951 . S
H262 C257 0.949 . S
C263 C258 1.412 . S
C263 C261 1.379 1_554 S
C263 H264 0.943 1_554 S
H264 C263 0.943 1_556 S
H265 C261 0.951 . S
H266 C267 0.949 . S
C267 H266 0.949 . S
C267 C268 1.395 . S
C267 C269 1.391 . S
C268 C267 1.395 . S
C268 C271 1.390 . S
C269 C267 1.391 . S
C269 C273 1.387 . S
C269 C274 1.491 . S
H270 C271 0.950 . S
C271 C268 1.390 . S
C271 H270 0.950 . S
C271 C272 1.378 . S
C272 C271 1.378 . S
C272 C273 1.409 . S
C273 C269 1.387 . S
C273 C272 1.409 . S
C273 H275 0.951 . S
C274 C269 1.491 . S
C274 C276 1.382 . S
C274 C278 1.404 . S
H275 C273 0.951 . S
C276 C274 1.382 . S
C276 C277 1.390 . S
C276 H281 0.949 . S
C277 C276 1.390 . S
C277 C282 1.399 . S
C278 C274 1.404 . S
C278 H279 0.950 . S
C278 C280 1.375 . S
H279 C278 0.950 . S
C280 C278 1.375 . S
C280 C282 1.382 . S
C280 H284 0.950 . S
H281 C276 0.949 . S
C282 C277 1.399 . S
C282 C280 1.382 . S
C282 H283 0.952 . S
H283 C282 0.952 . S
H284 C280 0.950 . S
H285 C286 0.949 . S
C286 H285 0.949 . S
C286 C287 1.395 . S
C286 C288 1.391 . S
C287 C286 1.395 . S
C287 C290 1.390 . S
C288 C286 1.391 . S
C288 C292 1.387 . S
C288 C293 1.491 . S
H289 C290 0.950 . S
C290 C287 1.390 . S
C290 H289 0.950 . S
C290 C291 1.378 . S
C291 C290 1.378 . S
C291 C292 1.409 . S
C292 C288 1.387 . S
C292 C291 1.409 . S
C292 H294 0.951 . S
C293 C288 1.491 . S
C293 C295 1.382 . S
C293 C297 1.404 . S
H294 C292 0.951 . S
C295 C293 1.382 . S
C295 C296 1.390 . S
C295 H300 0.949 . S
C296 C295 1.390 . S
C296 C301 1.399 . S
C297 C293 1.404 . S
C297 H298 0.950 . S
C297 C299 1.375 . S
H298 C297 0.950 . S
C299 C297 1.375 . S
C299 C301 1.382 . S
C299 H303 0.950 . S
H300 C295 0.949 . S
C301 C296 1.399 . S
C301 C299 1.382 . S
C301 H302 0.952 . S
H302 C301 0.952 . S
H303 C299 0.950 . S
H304 C305 0.949 . S
C305 H304 0.949 . S
C305 C306 1.395 . S
C305 C307 1.391 . S
C306 C305 1.395 . S
C306 C309 1.390 . S
C307 C305 1.391 . S
C307 C311 1.387 . S
C307 C312 1.491 . S
H308 C309 0.950 . S
C309 C306 1.390 . S
C309 H308 0.950 . S
C309 C310 1.378 . S
C310 C309 1.378 . S
C310 C311 1.409 . S
C311 C307 1.387 . S
C311 C310 1.409 . S
C311 H313 0.951 . S
C312 C307 1.491 . S
C312 C314 1.382 . S
C312 C316 1.404 . S
H313 C311 0.951 . S
C314 C312 1.382 . S
C314 C315 1.390 . S
C314 H319 0.949 . S
C315 C314 1.390 . S
C315 C320 1.399 . S
C316 C312 1.404 . S
C316 H317 0.950 . S
C316 C318 1.375 . S
H317 C316 0.950 . S
C318 C316 1.375 . S
C318 C320 1.382 . S
C318 H322 0.950 . S
H319 C314 0.949 . S
C320 C315 1.399 . S
C320 C318 1.382 . S
C320 H321 0.952 . S
H321 C320 0.952 . S
H322 C318 0.950 . S
H323 C324 0.949 . S
C324 H323 0.949 . S
C324 C325 1.395 . S
C324 C326 1.391 . S
C325 C324 1.395 . S
C325 C328 1.390 . S
C326 C324 1.391 . S
C326 C330 1.387 . S
C326 C331 1.491 . S
H327 C328 0.950 . S
C328 C325 1.390 . S
C328 H327 0.950 . S
C328 C329 1.378 . S
C329 C328 1.378 . S
C329 C330 1.409 . S
C330 C326 1.387 . S
C330 C329 1.409 . S
C330 H332 0.951 . S
C331 C326 1.491 . S
C331 C333 1.382 . S
C331 C335 1.404 . S
H332 C330 0.951 . S
C333 C331 1.382 . S
C333 C334 1.390 . S
C333 H338 0.949 . S
C334 C333 1.390 . S
C334 C339 1.399 . S
C335 C331 1.404 . S
C335 H336 0.950 . S
C335 C337 1.375 . S
H336 C335 0.950 . S
C337 C335 1.375 . S
C337 C339 1.382 . S
C337 H341 0.950 . S
H338 C333 0.949 . S
C339 C334 1.399 . S
C339 C337 1.382 . S
C339 H340 0.952 . S
H340 C339 0.952 . S
H341 C337 0.950 . S
Tb342 C352 2.825 1_565 S
Tb342 O353 2.347 1_565 S
Tb342 O356 2.366 1_565 S
Tb342 O361 2.418 . S
Tb342 O362 2.384 . S
Tb342 O365 2.479 . S
Tb342 O366 2.471 1_565 S
Eu343 O354 2.418 . S
Eu343 O355 2.384 . S
Eu343 O358 2.479 . S
Eu343 O359 2.471 1_545 S
Eu343 O360 2.347 1_545 S
Eu343 O363 2.366 1_545 S
Eu343 C373 2.825 1_545 S
C344 O360 1.253 1_556 S
C344 O361 1.277 . S
C345 O362 1.255 1_554 S
C345 O363 1.265 . S
C346 C348 1.380 . S
C346 C349 1.374 . S
C346 C352 1.507 . S
C347 C348 1.384 . S
C347 C351 1.387 . S
C347 H374 0.930 . S
C348 C346 1.380 . S
C348 C347 1.384 . S
C348 H375 0.931 1_545 S
C349 C346 1.374 . S
C349 C350 1.390 . S
C349 H376 0.930 . S
C350 C349 1.390 . S
C350 C351 1.391 . S
C350 H377 0.930 . S
C351 C347 1.387 . S
C351 C350 1.391 . S
C352 Tb342 2.825 1_545 S
C352 C346 1.507 . S
C352 O365 1.238 1_545 S
C352 O366 1.247 . S
O353 Tb342 2.347 1_545 S
O353 C357 1.259 1_556 S
O354 Eu343 2.418 . S
O354 C357 1.265 . S
O355 Eu343 2.384 . S
O355 C364 1.255 1_554 S
O356 Tb342 2.366 1_545 S
O356 C364 1.265 . S
C357 O353 1.259 1_554 S
C357 O354 1.265 . S
O358 Eu343 2.479 . S
O358 C373 1.238 1_545 S
O359 Eu343 2.471 1_565 S
O359 C373 1.247 . S
O360 Eu343 2.347 1_565 S
O360 C344 1.253 1_554 S
O361 Tb342 2.418 . S
O361 C344 1.277 . S
O362 Tb342 2.384 . S
O362 C345 1.255 1_556 S
O363 Eu343 2.366 1_565 S
O363 C345 1.265 . S
C364 O355 1.255 1_556 S
C364 O356 1.265 . S
O365 Tb342 2.479 . S
O365 C352 1.238 1_565 S
O366 Tb342 2.471 1_545 S
O366 C352 1.247 . S
C367 C370 1.380 1_565 S
C367 C371 1.374 . S
C367 C373 1.507 . S
C368 C369 1.387 . S
C368 C372 1.391 . S
C369 C368 1.387 . S
C369 C370 1.384 1_565 S
C369 H378 0.930 1_565 S
C370 C367 1.380 1_545 S
C370 C369 1.384 1_545 S
C370 H379 0.931 . S
C371 C367 1.374 . S
C371 C372 1.390 . S
C371 H380 0.930 . S
C372 C368 1.391 . S
C372 C371 1.390 . S
C372 H381 0.930 . S
C373 Eu343 2.825 1_565 S
C373 O358 1.238 1_565 S
C373 O359 1.247 . S
C373 C367 1.507 . S
H374 C347 0.930 . S
H375 C348 0.931 1_565 S
H376 C349 0.930 . S
H377 C350 0.930 . S
H378 C369 0.930 1_545 S
H379 C370 0.931 . S
H380 C371 0.930 . S
H381 C372 0.930 . S
Tb382 C392 2.825 1_455 S
Tb382 O393 2.347 1_455 S
Tb382 O396 2.366 1_455 S
Tb382 O401 2.418 . S
Tb382 O402 2.385 . S
Tb382 O405 2.479 . S
Tb382 O406 2.471 1_455 S
Eu383 O394 2.418 . S
Eu383 O395 2.384 . S
Eu383 O398 2.479 . S
Eu383 O399 2.471 1_655 S
Eu383 O400 2.347 1_655 S
Eu383 O403 2.366 1_655 S
Eu383 C413 2.825 1_655 S
C384 O400 1.259 . S
C384 O401 1.265 1_554 S
C385 O402 1.253 1_554 S
C385 O403 1.265 . S
C386 C388 1.380 . S
C386 C389 1.374 . S
C386 C392 1.507 . S
C387 C388 1.384 . S
C387 C391 1.387 . S
C387 H414 0.930 . S
C388 C386 1.380 . S
C388 C387 1.384 . S
C388 H415 0.931 1_655 S
C389 C386 1.374 . S
C389 C390 1.390 . S
C389 H416 0.930 . S
C390 C389 1.390 . S
C390 C391 1.391 . S
C390 H417 0.930 . S
C391 C387 1.387 . S
C391 C390 1.391 . S
C392 Tb382 2.825 1_655 S
C392 C386 1.507 . S
C392 O405 1.238 1_655 S
C392 O406 1.247 . S
O393 Tb382 2.347 1_655 S
O393 C397 1.259 . S
O394 Eu383 2.418 . S
O394 C397 1.265 1_554 S
O395 Eu383 2.384 . S
O395 C404 1.255 1_554 S
O396 Tb382 2.366 1_655 S
O396 C404 1.265 . S
C397 O393 1.259 . S
C397 O394 1.265 1_556 S
O398 Eu383 2.479 . S
O398 C413 1.238 1_655 S
O399 Eu383 2.471 1_455 S
O399 C413 1.247 . S
O400 Eu383 2.347 1_455 S
O400 C384 1.259 . S
O401 Tb382 2.418 . S
O401 C384 1.265 1_556 S
O402 Tb382 2.385 . S
O402 C385 1.253 1_556 S
O403 Eu383 2.366 1_455 S
O403 C385 1.265 . S
C404 O395 1.255 1_556 S
C404 O396 1.265 . S
O405 Tb382 2.479 . S
O405 C392 1.238 1_455 S
O406 Tb382 2.471 1_655 S
O406 C392 1.247 . S
C407 C410 1.380 . S
C407 C411 1.374 . S
C407 C413 1.507 . S
C408 C409 1.387 . S
C408 C412 1.391 . S
C409 C408 1.387 . S
C409 C410 1.384 . S
C409 H418 0.930 . S
C410 C407 1.380 . S
C410 C409 1.384 . S
C410 H419 0.931 1_455 S
C411 C407 1.374 . S
C411 C412 1.390 . S
C411 H420 0.930 . S
C412 C408 1.391 . S
C412 C411 1.390 . S
C412 H421 0.930 . S
C413 Eu383 2.825 1_455 S
C413 O398 1.238 1_455 S
C413 O399 1.247 . S
C413 C407 1.507 . S
H414 C387 0.930 . S
H415 C388 0.931 1_455 S
H416 C389 0.930 . S
H417 C390 0.930 . S
H418 C409 0.930 . S
H419 C410 0.931 1_655 S
H420 C411 0.930 . S
H421 C412 0.930 . S
Tb422 C432 2.825 . S
Tb422 O433 2.347 . S
Tb422 O436 2.366 . S
Tb422 O441 2.418 . S
Tb422 O442 2.384 . S
Tb422 O445 2.479 . S
Tb422 O446 2.471 . S
Eu423 O434 2.418 . S
Eu423 O435 2.384 1_556 S
Eu423 O438 2.479 . S
Eu423 O439 2.471 . S
Eu423 O440 2.347 . S
Eu423 O443 2.366 . S
Eu423 C453 2.825 . S
C424 O440 1.259 1_554 S
C424 O441 1.265 . S
C425 O442 1.255 1_556 S
C425 O443 1.265 . S
C426 C428 1.380 . S
C426 C429 1.374 . S
C426 C432 1.507 . S
C427 C428 1.384 . S
C427 C431 1.387 . S
C427 H454 0.930 . S
C428 C426 1.380 . S
C428 C427 1.384 . S
C428 H455 0.931 . S
C429 C426 1.374 . S
C429 C430 1.390 . S
C429 H456 0.930 . S
C430 C429 1.390 . S
C430 C431 1.391 . S
C430 H457 0.930 . S
C431 C427 1.387 . S
C431 C430 1.391 . S
C432 Tb422 2.825 . S
C432 C426 1.507 . S
C432 O445 1.238 . S
C432 O446 1.247 . S
O433 Tb422 2.347 . S
O433 C437 1.259 . S
O434 Eu423 2.418 . S
O434 C437 1.265 1_556 S
O435 Eu423 2.384 1_554 S
O435 C444 1.255 . S
O436 Tb422 2.366 . S
O436 C444 1.265 . S
C437 O433 1.259 . S
C437 O434 1.265 1_554 S
O438 Eu423 2.479 . S
O438 C453 1.238 . S
O439 Eu423 2.471 . S
O439 C453 1.247 . S
O440 Eu423 2.347 . S
O440 C424 1.259 1_556 S
O441 Tb422 2.418 . S
O441 C424 1.265 . S
O442 Tb422 2.384 . S
O442 C425 1.255 1_554 S
O443 Eu423 2.366 . S
O443 C425 1.265 . S
C444 O435 1.255 . S
C444 O436 1.265 . S
O445 Tb422 2.479 . S
O445 C432 1.238 . S
O446 Tb422 2.471 . S
O446 C432 1.247 . S
C447 C450 1.380 . S
C447 C451 1.374 . S
C447 C453 1.507 . S
C448 C449 1.387 . S
C448 C452 1.391 . S
C449 C448 1.387 . S
C449 C450 1.384 . S
C449 H458 0.930 . S
C450 C447 1.380 . S
C450 C449 1.384 . S
C450 H459 0.931 . S
C451 C447 1.374 . S
C451 C452 1.390 . S
C451 H460 0.930 . S
C452 C448 1.391 . S
C452 C451 1.390 . S
C452 H461 0.930 . S
C453 Eu423 2.825 . S
C453 O438 1.238 . S
C453 O439 1.247 . S
C453 C447 1.507 . S
H454 C427 0.930 . S
H455 C428 0.931 . S
H456 C429 0.930 . S
H457 C430 0.930 . S
H458 C449 0.930 . S
H459 C450 0.931 . S
H460 C451 0.930 . S
H461 C452 0.930 . S
Tb462 C472 2.825 . S
Tb462 O473 2.347 . S
Tb462 O476 2.366 . S
Tb462 O481 2.418 . S
Tb462 O482 2.384 . S
Tb462 O485 2.479 . S
Tb462 O486 2.471 . S
Eu463 O474 2.418 . S
Eu463 O475 2.384 . S
Eu463 O478 2.479 . S
Eu463 O479 2.471 . S
Eu463 O480 2.347 . S
Eu463 O483 2.366 . S
Eu463 C493 2.825 . S
C464 O480 1.259 . S
C464 O481 1.265 . S
C465 O482 1.255 . S
C465 O483 1.265 . S
C466 C468 1.380 . S
C466 C469 1.374 . S
C466 C472 1.507 . S
C467 C468 1.384 . S
C467 C471 1.387 . S
C467 H494 0.930 . S
C468 C466 1.380 . S
C468 C467 1.384 . S
C468 H495 0.931 . S
C469 C466 1.374 . S
C469 C470 1.390 . S
C469 H496 0.930 . S
C470 C469 1.390 . S
C470 C471 1.391 . S
C470 H497 0.930 . S
C471 C467 1.387 . S
C471 C470 1.391 . S
C472 Tb462 2.825 . S
C472 C466 1.507 . S
C472 O485 1.238 . S
C472 O486 1.247 . S
O473 Tb462 2.347 . S
O473 C477 1.259 . S
O474 Eu463 2.418 . S
O474 C477 1.265 . S
O475 Eu463 2.384 . S
O475 C484 1.255 . S
O476 Tb462 2.366 . S
O476 C484 1.265 . S
C477 O473 1.259 . S
C477 O474 1.265 . S
O478 Eu463 2.479 . S
O478 C493 1.238 . S
O479 Eu463 2.471 . S
O479 C493 1.247 . S
O480 Eu463 2.347 . S
O480 C464 1.259 . S
O481 Tb462 2.418 . S
O481 C464 1.265 . S
O482 Tb462 2.384 . S
O482 C465 1.255 . S
O483 Eu463 2.366 . S
O483 C465 1.265 . S
C484 O475 1.255 . S
C484 O476 1.265 . S
O485 Tb462 2.479 . S
O485 C472 1.238 . S
O486 Tb462 2.471 . S
O486 C472 1.247 . S
C487 C490 1.380 . S
C487 C491 1.374 . S
C487 C493 1.507 . S
C488 C489 1.387 . S
C488 C492 1.391 . S
C489 C488 1.387 . S
C489 C490 1.384 . S
C489 H498 0.930 . S
C490 C487 1.380 . S
C490 C489 1.384 . S
C490 H499 0.931 . S
C491 C487 1.374 . S
C491 C492 1.390 . S
C491 H500 0.930 . S
C492 C488 1.391 . S
C492 C491 1.390 . S
C492 H501 0.930 . S
C493 Eu463 2.825 . S
C493 O478 1.238 . S
C493 O479 1.247 . S
C493 C487 1.507 . S
H494 C467 0.930 . S
H495 C468 0.931 . S
H496 C469 0.930 . S
H497 C470 0.930 . S
H498 C489 0.930 . S
H499 C490 0.931 . S
H500 C491 0.930 . S
H501 C492 0.930 . S
Tb502 C512 2.825 . S
Tb502 O513 2.347 . S
Tb502 O516 2.366 . S
Tb502 O521 2.418 . S
Tb502 O522 2.384 . S
Tb502 O525 2.479 . S
Tb502 O526 2.471 . S
Eu503 O514 2.418 . S
Eu503 O515 2.384 . S
Eu503 O518 2.479 . S
Eu503 O519 2.471 . S
Eu503 O520 2.347 . S
Eu503 O523 2.366 . S
Eu503 C533 2.825 . S
C504 O520 1.259 . S
C504 O521 1.265 . S
C505 O522 1.255 . S
C505 O523 1.265 . S
C506 C508 1.380 . S
C506 C509 1.374 . S
C506 C512 1.507 . S
C507 C508 1.384 . S
C507 C511 1.387 . S
C507 H534 0.930 . S
C508 C506 1.380 . S
C508 C507 1.384 . S
C508 H535 0.931 . S
C509 C506 1.374 . S
C509 C510 1.390 . S
C509 H536 0.930 . S
C510 C509 1.390 . S
C510 C511 1.391 . S
C510 H537 0.930 . S
C511 C507 1.387 . S
C511 C510 1.391 . S
C512 Tb502 2.825 . S
C512 C506 1.507 . S
C512 O525 1.238 . S
C512 O526 1.247 . S
O513 Tb502 2.347 . S
O513 C517 1.259 . S
O514 Eu503 2.418 . S
O514 C517 1.265 . S
O515 Eu503 2.384 . S
O515 C524 1.255 . S
O516 Tb502 2.366 . S
O516 C524 1.265 . S
C517 O513 1.259 . S
C517 O514 1.265 . S
O518 Eu503 2.479 . S
O518 C533 1.238 . S
O519 Eu503 2.471 . S
O519 C533 1.247 . S
O520 Eu503 2.347 . S
O520 C504 1.259 . S
O521 Tb502 2.418 . S
O521 C504 1.265 . S
O522 Tb502 2.384 . S
O522 C505 1.255 . S
O523 Eu503 2.366 . S
O523 C505 1.265 . S
C524 O515 1.255 . S
C524 O516 1.265 . S
O525 Tb502 2.479 . S
O525 C512 1.238 . S
O526 Tb502 2.471 . S
O526 C512 1.247 . S
C527 C530 1.380 . S
C527 C531 1.374 . S
C527 C533 1.507 . S
C528 C529 1.387 . S
C528 C532 1.391 . S
C529 C528 1.387 . S
C529 C530 1.384 . S
C529 H538 0.930 . S
C530 C527 1.380 . S
C530 C529 1.384 . S
C530 H539 0.931 . S
C531 C527 1.374 . S
C531 C532 1.390 . S
C531 H540 0.930 . S
C532 C528 1.391 . S
C532 C531 1.390 . S
C532 H541 0.930 . S
C533 Eu503 2.825 . S
C533 O518 1.238 . S
C533 O519 1.247 . S
C533 C527 1.507 . S
H534 C507 0.930 . S
H535 C508 0.931 . S
H536 C509 0.930 . S
H537 C510 0.930 . S
H538 C529 0.930 . S
H539 C530 0.931 . S
H540 C531 0.930 . S
H541 C532 0.930 . S
Tb542 C552 2.825 . S
Tb542 O553 2.347 . S
Tb542 O556 2.366 . S
Tb542 O561 2.418 . S
Tb542 O562 2.384 . S
Tb542 O565 2.479 . S
Tb542 O566 2.471 . S
Eu543 O554 2.418 . S
Eu543 O555 2.384 . S
Eu543 O558 2.479 . S
Eu543 O559 2.471 . S
Eu543 O560 2.347 . S
Eu543 O563 2.366 . S
Eu543 C573 2.825 . S
C544 O560 1.259 . S
C544 O561 1.265 . S
C545 O562 1.255 . S
C545 O563 1.265 . S
C546 C548 1.380 . S
C546 C549 1.374 . S
C546 C552 1.507 . S
C547 C548 1.384 . S
C547 C551 1.387 . S
C547 H574 0.930 . S
C548 C546 1.380 . S
C548 C547 1.384 . S
C548 H575 0.931 . S
C549 C546 1.374 . S
C549 C550 1.390 . S
C549 H576 0.930 . S
C550 C549 1.390 . S
C550 C551 1.391 . S
C550 H577 0.930 . S
C551 C547 1.387 . S
C551 C550 1.391 . S
C552 Tb542 2.825 . S
C552 C546 1.507 . S
C552 O565 1.238 . S
C552 O566 1.247 . S
O553 Tb542 2.347 . S
O553 C557 1.259 . S
O554 Eu543 2.418 . S
O554 C557 1.265 . S
O555 Eu543 2.384 . S
O555 C564 1.255 . S
O556 Tb542 2.366 . S
O556 C564 1.265 . S
C557 O553 1.259 . S
C557 O554 1.265 . S
O558 Eu543 2.479 . S
O558 C573 1.238 . S
O559 Eu543 2.471 . S
O559 C573 1.247 . S
O560 Eu543 2.347 . S
O560 C544 1.259 . S
O561 Tb542 2.418 . S
O561 C544 1.265 . S
O562 Tb542 2.384 . S
O562 C545 1.255 . S
O563 Eu543 2.366 . S
O563 C545 1.265 . S
C564 O555 1.255 . S
C564 O556 1.265 . S
O565 Tb542 2.479 . S
O565 C552 1.238 . S
O566 Tb542 2.471 . S
O566 C552 1.247 . S
C567 C570 1.380 . S
C567 C571 1.374 . S
C567 C573 1.507 . S
C568 C569 1.387 . S
C568 C572 1.391 . S
C569 C568 1.387 . S
C569 C570 1.384 . S
C569 H578 0.930 . S
C570 C567 1.380 . S
C570 C569 1.384 . S
C570 H579 0.931 . S
C571 C567 1.374 . S
C571 C572 1.390 . S
C571 H580 0.930 . S
C572 C568 1.391 . S
C572 C571 1.390 . S
C572 H581 0.930 . S
C573 Eu543 2.825 . S
C573 O558 1.238 . S
C573 O559 1.247 . S
C573 C567 1.507 . S
H574 C547 0.930 . S
H575 C548 0.931 . S
H576 C549 0.930 . S
H577 C550 0.930 . S
H578 C569 0.930 . S
H579 C570 0.931 . S
H580 C571 0.930 . S
H581 C572 0.930 . S
Tb582 C592 2.825 . S
Tb582 O593 2.347 . S
Tb582 O596 2.366 . S
Tb582 O601 2.418 . S
Tb582 O602 2.384 . S
Tb582 O605 2.479 . S
Tb582 O606 2.471 . S
Eu583 O594 2.418 . S
Eu583 O595 2.384 . S
Eu583 O598 2.479 . S
Eu583 O599 2.471 . S
Eu583 O600 2.347 . S
Eu583 O603 2.366 . S
Eu583 C613 2.825 . S
C584 O600 1.259 . S
C584 O601 1.265 . S
C585 O602 1.255 . S
C585 O603 1.265 . S
C586 C588 1.380 . S
C586 C589 1.374 . S
C586 C592 1.507 . S
C587 C588 1.384 . S
C587 C591 1.387 . S
C587 H614 0.930 . S
C588 C586 1.380 . S
C588 C587 1.384 . S
C588 H615 0.931 . S
C589 C586 1.374 . S
C589 C590 1.390 . S
C589 H616 0.930 . S
C590 C589 1.390 . S
C590 C591 1.391 . S
C590 H617 0.930 . S
C591 C587 1.387 . S
C591 C590 1.391 . S
C592 Tb582 2.825 . S
C592 C586 1.507 . S
C592 O605 1.238 . S
C592 O606 1.247 . S
O593 Tb582 2.347 . S
O593 C597 1.259 . S
O594 Eu583 2.418 . S
O594 C597 1.265 . S
O595 Eu583 2.384 . S
O595 C604 1.255 . S
O596 Tb582 2.366 . S
O596 C604 1.265 . S
C597 O593 1.259 . S
C597 O594 1.265 . S
O598 Eu583 2.479 . S
O598 C613 1.238 . S
O599 Eu583 2.471 . S
O599 C613 1.247 . S
O600 Eu583 2.347 . S
O600 C584 1.259 . S
O601 Tb582 2.418 . S
O601 C584 1.265 . S
O602 Tb582 2.384 . S
O602 C585 1.255 . S
O603 Eu583 2.366 . S
O603 C585 1.265 . S
C604 O595 1.255 . S
C604 O596 1.265 . S
O605 Tb582 2.479 . S
O605 C592 1.238 . S
O606 Tb582 2.471 . S
O606 C592 1.247 . S
C607 C610 1.380 . S
C607 C611 1.374 . S
C607 C613 1.507 . S
C608 C609 1.387 . S
C608 C612 1.391 . S
C609 C608 1.387 . S
C609 C610 1.384 . S
C609 H618 0.930 . S
C610 C607 1.380 . S
C610 C609 1.384 . S
C610 H619 0.931 . S
C611 C607 1.374 . S
C611 C612 1.390 . S
C611 H620 0.930 . S
C612 C608 1.391 . S
C612 C611 1.390 . S
C612 H621 0.930 . S
C613 Eu583 2.825 . S
C613 O598 1.238 . S
C613 O599 1.247 . S
C613 C607 1.507 . S
H614 C587 0.930 . S
H615 C588 0.931 . S
H616 C589 0.930 . S
H617 C590 0.930 . S
H618 C609 0.930 . S
H619 C610 0.931 . S
H620 C611 0.930 . S
H621 C612 0.930 . S
Tb622 C632 2.825 . S
Tb622 O633 2.347 . S
Tb622 O636 2.366 . S
Tb622 O641 2.418 . S
Tb622 O642 2.384 . S
Tb622 O645 2.479 . S
Tb622 O646 2.471 . S
Eu623 O634 2.418 . S
Eu623 O635 2.384 . S
Eu623 O638 2.479 . S
Eu623 O639 2.471 . S
Eu623 O640 2.347 . S
Eu623 O643 2.366 . S
Eu623 C653 2.825 . S
C624 O640 1.259 . S
C624 O641 1.265 . S
C625 O642 1.255 . S
C625 O643 1.265 . S
C626 C628 1.380 . S
C626 C629 1.374 . S
C626 C632 1.507 . S
C627 C628 1.384 . S
C627 C631 1.387 . S
C627 H654 0.930 . S
C628 C626 1.380 . S
C628 C627 1.384 . S
C628 H655 0.931 . S
C629 C626 1.374 . S
C629 C630 1.390 . S
C629 H656 0.930 . S
C630 C629 1.390 . S
C630 C631 1.391 . S
C630 H657 0.930 . S
C631 C627 1.387 . S
C631 C630 1.391 . S
C632 Tb622 2.825 . S
C632 C626 1.507 . S
C632 O645 1.238 . S
C632 O646 1.247 . S
O633 Tb622 2.347 . S
O633 C637 1.259 . S
O634 Eu623 2.418 . S
O634 C637 1.265 . S
O635 Eu623 2.384 . S
O635 C644 1.255 . S
O636 Tb622 2.366 . S
O636 C644 1.265 . S
C637 O633 1.259 . S
C637 O634 1.265 . S
O638 Eu623 2.479 . S
O638 C653 1.238 . S
O639 Eu623 2.471 . S
O639 C653 1.247 . S
O640 Eu623 2.347 . S
O640 C624 1.259 . S
O641 Tb622 2.418 . S
O641 C624 1.265 . S
O642 Tb622 2.384 . S
O642 C625 1.255 . S
O643 Eu623 2.366 . S
O643 C625 1.265 . S
C644 O635 1.255 . S
C644 O636 1.265 . S
O645 Tb622 2.479 . S
O645 C632 1.238 . S
O646 Tb622 2.471 . S
O646 C632 1.247 . S
C647 C650 1.380 . S
C647 C651 1.374 . S
C647 C653 1.507 . S
C648 C649 1.387 . S
C648 C652 1.391 . S
C649 C648 1.387 . S
C649 C650 1.384 . S
C649 H658 0.930 . S
C650 C647 1.380 . S
C650 C649 1.384 . S
C650 H659 0.931 . S
C651 C647 1.374 . S
C651 C652 1.390 . S
C651 H660 0.930 . S
C652 C648 1.391 . S
C652 C651 1.390 . S
C652 H661 0.930 . S
C653 Eu623 2.825 . S
C653 O638 1.238 . S
C653 O639 1.247 . S
C653 C647 1.507 . S
H654 C627 0.930 . S
H655 C628 0.931 . S
H656 C629 0.930 . S
H657 C630 0.930 . S
H658 C649 0.930 . S
H659 C650 0.931 . S
H660 C651 0.930 . S
H661 C652 0.930 . S
Tb662 C672 2.825 . S
Tb662 O673 2.347 . S
Tb662 O676 2.366 . S
Tb662 O681 2.418 . S
Tb662 O682 2.384 . S
Tb662 O685 2.479 . S
Tb662 O686 2.471 . S
Eu663 O674 2.418 . S
Eu663 O675 2.384 . S
Eu663 O678 2.479 . S
Eu663 O679 2.471 . S
Eu663 O680 2.347 . S
Eu663 O683 2.366 . S
Eu663 C693 2.825 . S
C664 O680 1.259 . S
C664 O681 1.265 . S
C665 O682 1.255 . S
C665 O683 1.265 . S
C666 C668 1.380 . S
C666 C669 1.374 . S
C666 C672 1.507 . S
C667 C668 1.384 . S
C667 C671 1.387 . S
C667 H694 0.930 . S
C668 C666 1.380 . S
C668 C667 1.384 . S
C668 H695 0.931 . S
C669 C666 1.374 . S
C669 C670 1.390 . S
C669 H696 0.930 . S
C670 C669 1.390 . S
C670 C671 1.391 . S
C670 H697 0.930 . S
C671 C667 1.387 . S
C671 C670 1.391 . S
C672 Tb662 2.825 . S
C672 C666 1.507 . S
C672 O685 1.238 . S
C672 O686 1.247 . S
O673 Tb662 2.347 . S
O673 C677 1.259 . S
O674 Eu663 2.418 . S
O674 C677 1.265 . S
O675 Eu663 2.384 . S
O675 C684 1.255 . S
O676 Tb662 2.366 . S
O676 C684 1.265 . S
C677 O673 1.259 . S
C677 O674 1.265 . S
O678 Eu663 2.479 . S
O678 C693 1.238 . S
O679 Eu663 2.471 . S
O679 C693 1.247 . S
O680 Eu663 2.347 . S
O680 C664 1.259 . S
O681 Tb662 2.418 . S
O681 C664 1.265 . S
O682 Tb662 2.384 . S
O682 C665 1.255 . S
O683 Eu663 2.366 . S
O683 C665 1.265 . S
C684 O675 1.255 . S
C684 O676 1.265 . S
O685 Tb662 2.479 . S
O685 C672 1.238 . S
O686 Tb662 2.471 . S
O686 C672 1.247 . S
C687 C690 1.380 . S
C687 C691 1.374 . S
C687 C693 1.507 . S
C688 C689 1.387 . S
C688 C692 1.391 . S
C689 C688 1.387 . S
C689 C690 1.384 . S
C689 H698 0.930 . S
C690 C687 1.380 . S
C690 C689 1.384 . S
C690 H699 0.931 . S
C691 C687 1.374 . S
C691 C692 1.390 . S
C691 H700 0.930 . S
C692 C688 1.391 . S
C692 C691 1.390 . S
C692 H701 0.930 . S
C693 Eu663 2.825 . S
C693 O678 1.238 . S
C693 O679 1.247 . S
C693 C687 1.507 . S
H694 C667 0.930 . S
H695 C668 0.931 . S
H696 C669 0.930 . S
H697 C670 0.930 . S
H698 C689 0.930 . S
H699 C690 0.931 . S
H700 C691 0.930 . S
H701 C692 0.930 . S
C702 C703 1.369 . S
C702 C704 1.419 . S
C702 H706 0.930 . S
C703 C702 1.369 . S
C703 C712 1.429 . S
C704 C702 1.419 . S
C704 C705 1.363 . S
C704 H707 0.929 . S
C705 C704 1.363 . S
C705 C711 1.428 . S
H706 C702 0.930 . S
H707 C704 0.929 . S
S708 N709 1.613 . S
S708 N710 1.610 . S
N709 S708 1.613 . S
N709 C712 1.350 . S
N710 S708 1.610 . S
N710 C711 1.351 . S
C711 C705 1.428 . S
C711 N710 1.351 . S
C711 C712 1.434 . S
C712 C703 1.429 . S
C712 N709 1.350 . S
C712 C711 1.434 . S
C713 C714 1.369 . S
C713 C715 1.419 . S
C713 H717 0.930 . S
C714 C713 1.369 . S
C714 C723 1.429 . S
C715 C713 1.419 . S
C715 C716 1.363 . S
C715 H718 0.929 . S
C716 C715 1.363 . S
C716 C722 1.428 . S
H717 C713 0.930 . S
H718 C715 0.929 . S
S719 N720 1.613 . S
S719 N721 1.610 . S
N720 S719 1.613 . S
N720 C723 1.350 . S
N721 S719 1.610 . S
N721 C722 1.351 . S
C722 C716 1.428 . S
C722 N721 1.351 . S
C722 C723 1.434 . S
C723 C714 1.429 . S
C723 N720 1.350 . S
C723 C722 1.434 . S
C724 C725 1.359 1_556 S
C724 C726 1.419 . S
C724 H728 0.941 . S
C725 C724 1.359 1_554 S
C725 C734 1.429 . S
C726 C724 1.419 . S
C726 C727 1.363 1_556 S
C726 H729 0.929 . S
C727 C726 1.363 1_554 S
C727 C733 1.428 . S
H728 C724 0.941 . S
H729 C726 0.929 . S
S730 N731 1.613 . S
S730 N732 1.610 . S
N731 S730 1.613 . S
N731 C734 1.350 . S
N732 S730 1.610 . S
N732 C733 1.351 . S
C733 C727 1.428 . S
C733 N732 1.351 . S
C733 C734 1.434 . S
C734 C725 1.429 . S
C734 N731 1.350 . S
C734 C733 1.434 . S
C735 C736 1.369 . S
C735 C737 1.423 . S
C735 H739 0.930 1_556 S
C736 C735 1.369 . S
C736 C745 1.429 . S
C737 C735 1.423 . S
C737 C738 1.385 . S
C737 H740 0.904 1_556 S
C738 C737 1.385 . S
C738 C744 1.428 . S
H739 C735 0.930 1_554 S
H740 C737 0.904 1_554 S
S741 N742 1.613 . S
S741 N743 1.610 . S
N742 S741 1.613 . S
N742 C745 1.350 . S
N743 S741 1.610 . S
N743 C744 1.351 . S
C744 C738 1.428 . S
C744 N743 1.351 . S
C744 C745 1.434 . S
C745 C736 1.429 . S
C745 N742 1.350 . S
C745 C744 1.434 . S
C746 C747 1.369 . S
C746 C748 1.419 . S
C746 H750 0.930 . S
C747 C746 1.369 . S
C747 C756 1.429 . S
C748 C746 1.419 . S
C748 C749 1.363 . S
C748 H751 0.929 . S
C749 C748 1.363 . S
C749 C755 1.428 . S
H750 C746 0.930 . S
H751 C748 0.929 . S
S752 N753 1.613 1_554 S
S752 N754 1.610 . S
N753 S752 1.613 1_556 S
N753 C756 1.350 . S
N754 S752 1.610 . S
N754 C755 1.351 1_554 S
C755 C749 1.428 . S
C755 N754 1.351 1_556 S
C755 C756 1.434 . S
C756 C747 1.429 . S
C756 N753 1.350 . S
C756 C755 1.434 . S
C757 C758 1.369 . S
C757 C759 1.419 . S
C757 H761 0.930 . S
C758 C757 1.369 . S
C758 C767 1.429 1_556 S
C759 C757 1.419 . S
C759 C760 1.363 . S
C759 H762 0.929 . S
C760 C759 1.363 . S
C760 C766 1.428 1_556 S
H761 C757 0.930 . S
H762 C759 0.929 . S
S763 N764 1.613 . S
S763 N765 1.610 . S
N764 S763 1.613 . S
N764 C767 1.350 . S
N765 S763 1.610 . S
N765 C766 1.351 . S
C766 C760 1.428 1_554 S
C766 N765 1.351 . S
C766 C767 1.434 . S
C767 C758 1.429 1_554 S
C767 N764 1.350 . S
C767 C766 1.434 . S
C768 C769 1.369 . S
C768 C770 1.419 . S
C768 H772 0.930 . S
C769 C768 1.369 . S
C769 C778 1.429 . S
C770 C768 1.419 . S
C770 C771 1.363 . S
C770 H773 0.929 . S
C771 C770 1.363 . S
C771 C777 1.428 . S
H772 C768 0.930 . S
H773 C770 0.929 . S
S774 N775 1.613 . S
S774 N776 1.610 . S
N775 S774 1.613 . S
N775 C778 1.350 1_554 S
N776 S774 1.610 . S
N776 C777 1.351 1_554 S
C777 C771 1.428 . S
C777 N776 1.351 1_556 S
C777 C778 1.434 . S
C778 C769 1.429 . S
C778 N775 1.350 1_556 S
C778 C777 1.434 . S
C779 C780 1.369 . S
C779 C781 1.419 . S
C779 H783 0.930 . S
C780 C779 1.369 . S
C780 C789 1.429 . S
C781 C779 1.419 . S
C781 C782 1.363 . S
C781 H784 0.929 . S
C782 C781 1.363 . S
C782 C788 1.428 . S
H783 C779 0.930 . S
H784 C781 0.929 . S
S785 N786 1.613 . S
S785 N787 1.610 . S
N786 S785 1.613 . S
N786 C789 1.350 1_554 S
N787 S785 1.610 . S
N787 C788 1.351 1_554 S
C788 C782 1.428 . S
C788 N787 1.351 1_556 S
C788 C789 1.434 . S
C789 C780 1.429 . S
C789 N786 1.350 1_556 S
C789 C788 1.434 . S
C790 C791 1.369 1_556 S
C790 C792 1.419 . S
C790 H794 0.930 . S
C791 C790 1.369 1_554 S
C791 C800 1.429 . S
C792 C790 1.419 . S
C792 C793 1.363 1_556 S
C792 H795 0.929 . S
C793 C792 1.363 1_554 S
C793 C799 1.428 . S
H794 C790 0.930 . S
H795 C792 0.929 . S
S796 N797 1.613 . S
S796 N798 1.610 . S
N797 S796 1.613 . S
N797 C800 1.350 . S
N798 S796 1.610 . S
N798 C799 1.351 . S
C799 C793 1.428 . S
C799 N798 1.351 . S
C799 C800 1.434 . S
C800 C791 1.429 . S
C800 N797 1.350 . S
C800 C799 1.434 . S
C801 C802 1.369 . S
C801 C803 1.419 . S
C801 H805 0.930 . S
C802 C801 1.369 . S
C802 C811 1.429 . S
C803 C801 1.419 . S
C803 C804 1.363 . S
C803 H806 0.929 . S
C804 C803 1.363 . S
C804 C810 1.428 . S
H805 C801 0.930 . S
H806 C803 0.929 . S
S807 N808 1.613 . S
S807 N809 1.610 . S
N808 S807 1.613 . S
N808 C811 1.350 . S
N809 S807 1.610 . S
N809 C810 1.351 . S
C810 C804 1.428 . S
C810 N809 1.351 . S
C810 C811 1.434 . S
C811 C802 1.429 . S
C811 N808 1.350 . S
C811 C810 1.434 . S
C812 C813 1.369 . S
C812 C814 1.419 . S
C812 H816 0.930 . S
C813 C812 1.369 . S
C813 C822 1.429 . S
C814 C812 1.419 . S
C814 C815 1.363 . S
C814 H817 0.929 . S
C815 C814 1.363 . S
C815 C821 1.428 . S
H816 C812 0.930 . S
H817 C814 0.929 . S
S818 N819 1.613 . S
S818 N820 1.610 . S
N819 S818 1.613 . S
N819 C822 1.350 . S
N820 S818 1.610 . S
N820 C821 1.351 . S
C821 C815 1.428 . S
C821 N820 1.351 . S
C821 C822 1.434 . S
C822 C813 1.429 . S
C822 N819 1.350 . S
C822 C821 1.434 . S
C823 C824 1.372 . S
C823 C825 1.418 1_554 S
C823 H827 0.928 1_554 S
C824 C823 1.372 . S
C824 C833 1.429 . S
C825 C823 1.418 1_556 S
C825 C826 1.357 1_556 S
C825 H828 0.937 . S
C826 C825 1.357 1_554 S
C826 C832 1.428 . S
H827 C823 0.928 1_556 S
H828 C825 0.937 . S
S829 N830 1.613 1_545 S
S829 N831 1.610 1_545 S
N830 S829 1.613 1_565 S
N830 C833 1.350 . S
N831 S829 1.610 1_565 S
N831 C832 1.351 . S
C832 C826 1.428 . S
C832 N831 1.351 . S
C832 C833 1.434 . S
C833 C824 1.429 . S
C833 N830 1.350 . S
C833 C832 1.434 . S
C834 C835 1.369 . S
C834 C836 1.419 1_655 S
C834 H838 0.930 . S
C835 C834 1.369 . S
C835 C844 1.429 . S
C836 C834 1.419 1_455 S
C836 C837 1.363 . S
C836 H839 0.929 . S
C837 C836 1.363 . S
C837 C843 1.428 1_455 S
H838 C834 0.930 . S
H839 C836 0.929 . S
S840 N841 1.613 . S
S840 N842 1.610 . S
N841 S840 1.613 . S
N841 C844 1.350 . S
N842 S840 1.610 . S
N842 C843 1.351 . S
C843 C837 1.428 1_655 S
C843 N842 1.351 . S
C843 C844 1.434 . S
C844 C835 1.429 . S
C844 N841 1.350 . S
C844 C843 1.434 . S
C845 C846 1.369 . S
C845 C847 1.419 . S
C845 H849 0.930 . S
C846 C845 1.369 . S
C846 C855 1.429 . S
C847 C845 1.419 . S
C847 C848 1.363 . S
C847 H850 0.929 . S
C848 C847 1.363 . S
C848 C854 1.428 . S
H849 C845 0.930 . S
H850 C847 0.929 . S
S851 N852 1.613 . S
S851 N853 1.610 . S
N852 S851 1.613 . S
N852 C855 1.350 . S
N853 S851 1.610 . S
N853 C854 1.351 . S
C854 C848 1.428 . S
C854 N853 1.351 . S
C854 C855 1.434 . S
C855 C846 1.429 . S
C855 N852 1.350 . S
C855 C854 1.434 . S
C856 C857 1.369 . S
C856 C858 1.433 . S
C856 H860 0.930 . S
C857 C856 1.369 . S
C857 C866 1.429 . S
C858 C856 1.433 . S
C858 C859 1.355 1_545 S
C858 H861 0.923 1_545 S
C859 C858 1.355 1_565 S
C859 C865 1.428 1_565 S
H860 C856 0.930 . S
H861 C858 0.923 1_565 S
S862 N863 1.613 . S
S862 N864 1.610 . S
N863 S862 1.613 . S
N863 C866 1.350 . S
N864 S862 1.610 . S
N864 C865 1.351 . S
C865 C859 1.428 1_545 S
C865 N864 1.351 . S
C865 C866 1.434 . S
C866 C857 1.429 . S
C866 N863 1.350 . S
C866 C865 1.434 . S
C867 C868 1.369 . S
C867 C869 1.419 . S
C867 H871 0.930 . S
C868 C867 1.369 . S
C868 C877 1.429 . S
C869 C867 1.419 . S
C869 C870 1.363 . S
C869 H872 0.929 . S
C870 C869 1.363 . S
C870 C876 1.428 . S
H871 C867 0.930 . S
H872 C869 0.929 . S
S873 N874 1.613 . S
S873 N875 1.610 . S
N874 S873 1.613 . S
N874 C877 1.350 . S
N875 S873 1.610 . S
N875 C876 1.351 . S
C876 C870 1.428 . S
C876 N875 1.351 . S
C876 C877 1.434 . S
C877 C868 1.429 . S
C877 N874 1.350 . S
C877 C876 1.434 . S
C878 C879 1.369 . S
C878 C880 1.419 . S
C878 H882 0.930 . S
C879 C878 1.369 . S
C879 C888 1.429 . S
C880 C878 1.419 . S
C880 C881 1.363 . S
C880 H883 0.929 . S
C881 C880 1.363 . S
C881 C887 1.428 . S
H882 C878 0.930 . S
H883 C880 0.929 . S
S884 N885 1.613 . S
S884 N886 1.610 . S
N885 S884 1.613 . S
N885 C888 1.350 . S
N886 S884 1.610 . S
N886 C887 1.351 . S
C887 C881 1.428 . S
C887 N886 1.351 . S
C887 C888 1.434 . S
C888 C879 1.429 . S
C888 N885 1.350 . S
C888 C887 1.434 . S
C889 C890 1.369 . S
C889 C891 1.419 . S
C889 H893 0.930 . S
C890 C889 1.369 . S
C890 C899 1.429 . S
C891 C889 1.419 . S
C891 C892 1.363 . S
C891 H894 0.929 . S
C892 C891 1.363 . S
C892 C898 1.428 . S
H893 C889 0.930 . S
H894 C891 0.929 . S
S895 N896 1.613 . S
S895 N897 1.610 . S
N896 S895 1.613 . S
N896 C899 1.350 . S
N897 S895 1.610 . S
N897 C898 1.351 . S
C898 C892 1.428 . S
C898 N897 1.351 . S
C898 C899 1.434 . S
C899 C890 1.429 . S
C899 N896 1.350 . S
C899 C898 1.434 . S
C900 C901 1.369 . S
C900 C902 1.419 . S
C900 H904 0.930 . S
C901 C900 1.369 . S
C901 C910 1.429 . S
C902 C900 1.419 . S
C902 C903 1.363 . S
C902 H905 0.929 . S
C903 C902 1.363 . S
C903 C909 1.428 . S
H904 C900 0.930 . S
H905 C902 0.929 . S
S906 N907 1.613 . S
S906 N908 1.610 . S
N907 S906 1.613 . S
N907 C910 1.350 . S
N908 S906 1.610 . S
N908 C909 1.351 . S
C909 C903 1.428 . S
C909 N908 1.351 . S
C909 C910 1.434 . S
C910 C901 1.429 . S
C910 N907 1.350 . S
C910 C909 1.434 . S
C911 C912 1.369 . S
C911 C913 1.419 . S
C911 H915 0.930 . S
C912 C911 1.369 . S
C912 C921 1.429 . S
C913 C911 1.419 . S
C913 C914 1.363 . S
C913 H916 0.929 . S
C914 C913 1.363 . S
C914 C920 1.428 . S
H915 C911 0.930 . S
H916 C913 0.929 . S
S917 N918 1.613 . S
S917 N919 1.610 . S
N918 S917 1.613 . S
N918 C921 1.350 . S
N919 S917 1.610 . S
N919 C920 1.351 . S
C920 C914 1.428 . S
C920 N919 1.351 . S
C920 C921 1.434 . S
C921 C912 1.429 . S
C921 N918 1.350 . S
C921 C920 1.434 . S
C922 C923 1.369 . S
C922 C924 1.419 . S
C922 H926 0.930 . S
C923 C922 1.369 . S
C923 C932 1.429 . S
C924 C922 1.419 . S
C924 C925 1.363 . S
C924 H927 0.929 . S
C925 C924 1.363 . S
C925 C931 1.428 . S
H926 C922 0.930 . S
H927 C924 0.929 . S
S928 N929 1.613 . S
S928 N930 1.610 . S
N929 S928 1.613 . S
N929 C932 1.350 . S
N930 S928 1.610 . S
N930 C931 1.351 . S
C931 C925 1.428 . S
C931 N930 1.351 . S
C931 C932 1.434 . S
C932 C923 1.429 . S
C932 N929 1.350 . S
C932 C931 1.434 . S
C933 C934 1.369 . S
C933 C935 1.419 . S
C933 H937 0.930 . S
C934 C933 1.369 . S
C934 C943 1.429 . S
C935 C933 1.419 . S
C935 C936 1.363 . S
C935 H938 0.929 . S
C936 C935 1.363 . S
C936 C942 1.428 . S
H937 C933 0.930 . S
H938 C935 0.929 . S
S939 N940 1.613 . S
S939 N941 1.610 . S
N940 S939 1.613 . S
N940 C943 1.350 . S
N941 S939 1.610 . S
N941 C942 1.351 . S
C942 C936 1.428 . S
C942 N941 1.351 . S
C942 C943 1.434 . S
C943 C934 1.429 . S
C943 N940 1.350 . S
C943 C942 1.434 . S
C944 C945 1.369 . S
C944 C946 1.419 . S
C944 H948 0.930 . S
C945 C944 1.369 . S
C945 C954 1.429 . S
C946 C944 1.419 . S
C946 C947 1.363 . S
C946 H949 0.929 . S
C947 C946 1.363 . S
C947 C953 1.428 . S
H948 C944 0.930 . S
H949 C946 0.929 . S
S950 N951 1.613 . S
S950 N952 1.610 . S
N951 S950 1.613 . S
N951 C954 1.350 . S
N952 S950 1.610 . S
N952 C953 1.351 . S
C953 C947 1.428 . S
C953 N952 1.351 . S
C953 C954 1.434 . S
C954 C945 1.429 . S
C954 N951 1.350 . S
C954 C953 1.434 . S
C955 C956 1.369 . S
C955 C957 1.419 . S
C955 H959 0.930 . S
C956 C955 1.369 . S
C956 C965 1.429 . S
C957 C955 1.419 . S
C957 C958 1.363 . S
C957 H960 0.929 . S
C958 C957 1.363 . S
C958 C964 1.428 . S
H959 C955 0.930 . S
H960 C957 0.929 . S
S961 N962 1.613 . S
S961 N963 1.610 . S
N962 S961 1.613 . S
N962 C965 1.350 . S
N963 S961 1.610 . S
N963 C964 1.351 . S
C964 C958 1.428 . S
C964 N963 1.351 . S
C964 C965 1.434 . S
C965 C956 1.429 . S
C965 N962 1.350 . S
C965 C964 1.434 . S
C966 C967 1.369 . S
C966 C968 1.419 . S
C966 H970 0.930 . S
C967 C966 1.369 . S
C967 C976 1.429 . S
C968 C966 1.419 . S
C968 C969 1.363 . S
C968 H971 0.929 . S
C969 C968 1.363 . S
C969 C975 1.428 . S
H970 C966 0.930 . S
H971 C968 0.929 . S
S972 N973 1.613 . S
S972 N974 1.610 . S
N973 S972 1.613 . S
N973 C976 1.350 . S
N974 S972 1.610 . S
N974 C975 1.351 . S
C975 C969 1.428 . S
C975 N974 1.351 . S
C975 C976 1.434 . S
C976 C967 1.429 . S
C976 N973 1.350 . S
C976 C975 1.434 . S
C977 C978 1.369 . S
C977 C979 1.419 . S
C977 H981 0.930 . S
C978 C977 1.369 . S
C978 C987 1.429 . S
C979 C977 1.419 . S
C979 C980 1.363 . S
C979 H982 0.929 . S
C980 C979 1.363 . S
C980 C986 1.428 . S
H981 C977 0.930 . S
H982 C979 0.929 . S
S983 N984 1.613 . S
S983 N985 1.610 . S
N984 S983 1.613 . S
N984 C987 1.350 . S
N985 S983 1.610 . S
N985 C986 1.351 . S
C986 C980 1.428 . S
C986 N985 1.351 . S
C986 C987 1.434 . S
C987 C978 1.429 . S
C987 N984 1.350 . S
C987 C986 1.434 . S
C988 C989 1.369 . S
C988 C990 1.419 . S
C988 H992 0.930 . S
C989 C988 1.369 . S
C989 C998 1.429 . S
C990 C988 1.419 . S
C990 C991 1.363 . S
C990 H993 0.929 . S
C991 C990 1.363 . S
C991 C997 1.428 . S
H992 C988 0.930 . S
H993 C990 0.929 . S
S994 N995 1.613 . S
S994 N996 1.610 . S
N995 S994 1.613 . S
N995 C998 1.350 . S
N996 S994 1.610 . S
N996 C997 1.351 . S
C997 C991 1.428 . S
C997 N996 1.351 . S
C997 C998 1.434 . S
C998 C989 1.429 . S
C998 N995 1.350 . S
C998 C997 1.434 . S
C999 C1000 1.369 . S
C999 C1001 1.419 . S
C999 H1003 0.930 . S
C1000 C999 1.369 . S
C1000 C1009 1.429 . S
C1001 C999 1.419 . S
C1001 C1002 1.363 1_565 S
C1001 H1004 0.929 . S
C1002 C1001 1.363 1_545 S
C1002 C1008 1.428 . S
H1003 C999 0.930 . S
H1004 C1001 0.929 . S
S1005 N1006 1.613 1_545 S
S1005 N1007 1.610 . S
N1006 S1005 1.613 1_565 S
N1006 C1009 1.350 . S
N1007 S1005 1.610 . S
N1007 C1008 1.351 . S
C1008 C1002 1.428 . S
C1008 N1007 1.351 . S
C1008 C1009 1.434 1_545 S
C1009 C1000 1.429 . S
C1009 N1006 1.350 . S
C1009 C1008 1.434 1_565 S
C1010 C1011 1.369 . S
C1010 C1012 1.419 . S
C1010 H1014 0.930 . S
C1011 C1010 1.369 . S
C1011 C1020 1.429 . S
C1012 C1010 1.419 . S
C1012 C1013 1.363 1_455 S
C1012 H1015 0.929 . S
C1013 C1012 1.363 1_655 S
C1013 C1019 1.428 . S
H1014 C1010 0.930 . S
H1015 C1012 0.929 . S
S1016 N1017 1.613 1_655 S
S1016 N1018 1.610 . S
N1017 S1016 1.613 1_455 S
N1017 C1020 1.350 . S
N1018 S1016 1.610 . S
N1018 C1019 1.351 . S
C1019 C1013 1.428 . S
C1019 N1018 1.351 . S
C1019 C1020 1.434 1_655 S
C1020 C1011 1.429 . S
C1020 N1017 1.350 . S
C1020 C1019 1.434 1_455 S
C1021 C1022 1.369 . S
C1021 C1023 1.419 . S
C1021 H1025 0.930 . S
C1022 C1021 1.369 . S
C1022 C1031 1.429 . S
C1023 C1021 1.419 . S
C1023 C1024 1.363 . S
C1023 H1026 0.929 . S
C1024 C1023 1.363 . S
C1024 C1030 1.428 . S
H1025 C1021 0.930 . S
H1026 C1023 0.929 . S
S1027 N1028 1.613 . S
S1027 N1029 1.610 . S
N1028 S1027 1.613 . S
N1028 C1031 1.350 . S
N1029 S1027 1.610 . S
N1029 C1030 1.351 . S
C1030 C1024 1.428 . S
C1030 N1029 1.351 . S
C1030 C1031 1.434 . S
C1031 C1022 1.429 . S
C1031 N1028 1.350 . S
C1031 C1030 1.434 . S
C1032 C1033 1.369 . S
C1032 C1034 1.419 . S
C1032 H1036 0.930 . S
C1033 C1032 1.369 . S
C1033 C1042 1.429 . S
C1034 C1032 1.419 . S
C1034 C1035 1.363 . S
C1034 H1037 0.929 . S
C1035 C1034 1.363 . S
C1035 C1041 1.428 . S
H1036 C1032 0.930 . S
H1037 C1034 0.929 . S
S1038 N1039 1.613 . S
S1038 N1040 1.610 . S
N1039 S1038 1.613 . S
N1039 C1042 1.350 . S
N1040 S1038 1.610 . S
N1040 C1041 1.351 . S
C1041 C1035 1.428 . S
C1041 N1040 1.351 . S
C1041 C1042 1.434 . S
C1042 C1033 1.429 . S
C1042 N1039 1.350 . S
C1042 C1041 1.434 . S
C1043 C1044 1.369 . S
C1043 C1045 1.419 . S
C1043 H1047 0.930 . S
C1044 C1043 1.369 . S
C1044 C1053 1.429 . S
C1045 C1043 1.419 . S
C1045 C1046 1.363 . S
C1045 H1048 0.929 . S
C1046 C1045 1.363 . S
C1046 C1052 1.428 . S
H1047 C1043 0.930 . S
H1048 C1045 0.929 . S
S1049 N1050 1.613 . S
S1049 N1051 1.610 . S
N1050 S1049 1.613 . S
N1050 C1053 1.350 . S
N1051 S1049 1.610 . S
N1051 C1052 1.351 . S
C1052 C1046 1.428 . S
C1052 N1051 1.351 . S
C1052 C1053 1.434 . S
C1053 C1044 1.429 . S
C1053 N1050 1.350 . S
C1053 C1052 1.434 . S
C1054 C1055 1.369 . S
C1054 C1056 1.419 . S
C1054 H1058 0.930 . S
C1055 C1054 1.369 . S
C1055 C1064 1.429 . S
C1056 C1054 1.419 . S
C1056 C1057 1.363 . S
C1056 H1059 0.929 . S
C1057 C1056 1.363 . S
C1057 C1063 1.428 . S
H1058 C1054 0.930 . S
H1059 C1056 0.929 . S
S1060 N1061 1.613 . S
S1060 N1062 1.610 . S
N1061 S1060 1.613 . S
N1061 C1064 1.350 . S
N1062 S1060 1.610 . S
N1062 C1063 1.351 . S
C1063 C1057 1.428 . S
C1063 N1062 1.351 . S
C1063 C1064 1.434 . S
C1064 C1055 1.429 . S
C1064 N1061 1.350 . S
C1064 C1063 1.434 . S
C1065 C1066 1.369 . S
C1065 C1067 1.419 . S
C1065 H1069 0.930 . S
C1066 C1065 1.369 . S
C1066 C1075 1.429 . S
C1067 C1065 1.419 . S
C1067 C1068 1.363 . S
C1067 H1070 0.929 . S
C1068 C1067 1.363 . S
C1068 C1074 1.428 . S
H1069 C1065 0.930 . S
H1070 C1067 0.929 . S
S1071 N1072 1.613 . S
S1071 N1073 1.610 . S
N1072 S1071 1.613 . S
N1072 C1075 1.350 . S
N1073 S1071 1.610 . S
N1073 C1074 1.351 . S
C1074 C1068 1.428 . S
C1074 N1073 1.351 . S
C1074 C1075 1.434 . S
C1075 C1066 1.429 . S
C1075 N1072 1.350 . S
C1075 C1074 1.434 . S
C1076 C1077 1.369 . S
C1076 C1078 1.419 . S
C1076 H1080 0.930 . S
C1077 C1076 1.369 . S
C1077 C1086 1.429 . S
C1078 C1076 1.419 . S
C1078 C1079 1.363 . S
C1078 H1081 0.929 . S
C1079 C1078 1.363 . S
C1079 C1085 1.428 . S
H1080 C1076 0.930 . S
H1081 C1078 0.929 . S
S1082 N1083 1.613 . S
S1082 N1084 1.610 . S
N1083 S1082 1.613 . S
N1083 C1086 1.350 . S
N1084 S1082 1.610 . S
N1084 C1085 1.351 . S
C1085 C1079 1.428 . S
C1085 N1084 1.351 . S
C1085 C1086 1.434 . S
C1086 C1077 1.429 . S
C1086 N1083 1.350 . S
C1086 C1085 1.434 . S
C1087 C1088 1.369 . S
C1087 C1089 1.419 . S
C1087 H1091 0.930 . S
C1088 C1087 1.369 . S
C1088 C1097 1.429 . S
C1089 C1087 1.419 . S
C1089 C1090 1.363 . S
C1089 H1092 0.929 . S
C1090 C1089 1.363 . S
C1090 C1096 1.428 . S
H1091 C1087 0.930 . S
H1092 C1089 0.929 . S
S1093 N1094 1.613 . S
S1093 N1095 1.610 . S
N1094 S1093 1.613 . S
N1094 C1097 1.350 . S
N1095 S1093 1.610 . S
N1095 C1096 1.351 . S
C1096 C1090 1.428 . S
C1096 N1095 1.351 . S
C1096 C1097 1.434 . S
C1097 C1088 1.429 . S
C1097 N1094 1.350 . S
C1097 C1096 1.434 . S
C1098 C1099 1.369 . S
C1098 C1100 1.419 . S
C1098 H1102 0.930 . S
C1099 C1098 1.369 . S
C1099 C1108 1.429 . S
C1100 C1098 1.419 . S
C1100 C1101 1.363 . S
C1100 H1103 0.929 . S
C1101 C1100 1.363 . S
C1101 C1107 1.428 . S
H1102 C1098 0.930 . S
H1103 C1100 0.929 . S
S1104 N1105 1.613 . S
S1104 N1106 1.610 . S
N1105 S1104 1.613 . S
N1105 C1108 1.350 . S
N1106 S1104 1.610 . S
N1106 C1107 1.351 . S
C1107 C1101 1.428 . S
C1107 N1106 1.351 . S
C1107 C1108 1.434 . S
C1108 C1099 1.429 . S
C1108 N1105 1.350 . S
C1108 C1107 1.434 . S
C1109 C1110 1.369 . S
C1109 C1111 1.419 . S
C1109 H1113 0.930 . S
C1110 C1109 1.369 . S
C1110 C1119 1.429 . S
C1111 C1109 1.419 . S
C1111 C1112 1.363 . S
C1111 H1114 0.929 . S
C1112 C1111 1.363 . S
C1112 C1118 1.428 . S
H1113 C1109 0.930 . S
H1114 C1111 0.929 . S
S1115 N1116 1.613 . S
S1115 N1117 1.610 . S
N1116 S1115 1.613 . S
N1116 C1119 1.350 . S
N1117 S1115 1.610 . S
N1117 C1118 1.351 . S
C1118 C1112 1.428 . S
C1118 N1117 1.351 . S
C1118 C1119 1.434 . S
C1119 C1110 1.429 . S
C1119 N1116 1.350 . S
C1119 C1118 1.434 . S
C1120 C1121 1.369 . S
C1120 C1122 1.419 . S
C1120 H1124 0.930 . S
C1121 C1120 1.369 . S
C1121 C1130 1.429 . S
C1122 C1120 1.419 . S
C1122 C1123 1.363 . S
C1122 H1125 0.929 . S
C1123 C1122 1.363 . S
C1123 C1129 1.428 . S
H1124 C1120 0.930 . S
H1125 C1122 0.929 . S
S1126 N1127 1.613 . S
S1126 N1128 1.610 . S
N1127 S1126 1.613 . S
N1127 C1130 1.350 . S
N1128 S1126 1.610 . S
N1128 C1129 1.351 . S
C1129 C1123 1.428 . S
C1129 N1128 1.351 . S
C1129 C1130 1.434 . S
C1130 C1121 1.429 . S
C1130 N1127 1.350 . S
C1130 C1129 1.434 . S
C1131 C1132 1.369 . S
C1131 C1133 1.419 . S
C1131 H1135 0.930 . S
C1132 C1131 1.369 . S
C1132 C1141 1.429 . S
C1133 C1131 1.419 . S
C1133 C1134 1.363 . S
C1133 H1136 0.929 . S
C1134 C1133 1.363 . S
C1134 C1140 1.428 . S
H1135 C1131 0.930 . S
H1136 C1133 0.929 . S
S1137 N1138 1.613 . S
S1137 N1139 1.610 . S
N1138 S1137 1.613 . S
N1138 C1141 1.350 . S
N1139 S1137 1.610 . S
N1139 C1140 1.351 . S
C1140 C1134 1.428 . S
C1140 N1139 1.351 . S
C1140 C1141 1.434 . S
C1141 C1132 1.429 . S
C1141 N1138 1.350 . S
C1141 C1140 1.434 . S
C1142 C1143 1.369 . S
C1142 C1144 1.419 . S
C1142 H1146 0.930 . S
C1143 C1142 1.369 . S
C1143 C1152 1.429 . S
C1144 C1142 1.419 . S
C1144 C1145 1.363 . S
C1144 H1147 0.929 . S
C1145 C1144 1.363 . S
C1145 C1151 1.428 . S
H1146 C1142 0.930 . S
H1147 C1144 0.929 . S
S1148 N1149 1.613 . S
S1148 N1150 1.610 . S
N1149 S1148 1.613 . S
N1149 C1152 1.350 . S
N1150 S1148 1.610 . S
N1150 C1151 1.351 . S
C1151 C1145 1.428 . S
C1151 N1150 1.351 . S
C1151 C1152 1.434 . S
C1152 C1143 1.429 . S
C1152 N1149 1.350 . S
C1152 C1151 1.434 . S
C1153 C1154 1.369 . S
C1153 C1155 1.419 . S
C1153 H1157 0.930 . S
C1154 C1153 1.369 . S
C1154 C1163 1.429 . S
C1155 C1153 1.419 . S
C1155 C1156 1.363 . S
C1155 H1158 0.929 . S
C1156 C1155 1.363 . S
C1156 C1162 1.428 . S
H1157 C1153 0.930 . S
H1158 C1155 0.929 . S
S1159 N1160 1.613 . S
S1159 N1161 1.610 . S
N1160 S1159 1.613 . S
N1160 C1163 1.350 . S
N1161 S1159 1.610 . S
N1161 C1162 1.351 . S
C1162 C1156 1.428 . S
C1162 N1161 1.351 . S
C1162 C1163 1.434 . S
C1163 C1154 1.429 . S
C1163 N1160 1.350 . S
C1163 C1162 1.434 . S
C1164 C1165 1.369 . S
C1164 C1166 1.419 . S
C1164 H1168 0.930 . S
C1165 C1164 1.369 . S
C1165 C1174 1.429 . S
C1166 C1164 1.419 . S
C1166 C1167 1.363 . S
C1166 H1169 0.929 . S
C1167 C1166 1.363 . S
C1167 C1173 1.428 . S
H1168 C1164 0.930 . S
H1169 C1166 0.929 . S
S1170 N1171 1.613 . S
S1170 N1172 1.610 . S
N1171 S1170 1.613 . S
N1171 C1174 1.350 . S
N1172 S1170 1.610 . S
N1172 C1173 1.351 . S
C1173 C1167 1.428 . S
C1173 N1172 1.351 . S
C1173 C1174 1.434 . S
C1174 C1165 1.429 . S
C1174 N1171 1.350 . S
C1174 C1173 1.434 . S
C1175 C1176 1.369 . S
C1175 C1177 1.419 . S
C1175 H1179 0.930 . S
C1176 C1175 1.369 . S
C1176 C1185 1.429 . S
C1177 C1175 1.419 . S
C1177 C1178 1.363 . S
C1177 H1180 0.929 . S
C1178 C1177 1.363 . S
C1178 C1184 1.428 . S
H1179 C1175 0.930 . S
H1180 C1177 0.929 . S
S1181 N1182 1.613 . S
S1181 N1183 1.610 . S
N1182 S1181 1.613 . S
N1182 C1185 1.350 . S
N1183 S1181 1.610 . S
N1183 C1184 1.351 . S
C1184 C1178 1.428 . S
C1184 N1183 1.351 . S
C1184 C1185 1.434 . S
C1185 C1176 1.429 . S
C1185 N1182 1.350 . S
C1185 C1184 1.434 . S
C1186 C1187 1.369 . S
C1186 C1188 1.419 . S
C1186 H1190 0.930 . S
C1187 C1186 1.369 . S
C1187 C1196 1.429 . S
C1188 C1186 1.419 . S
C1188 C1189 1.363 . S
C1188 H1191 0.929 . S
C1189 C1188 1.363 . S
C1189 C1195 1.428 . S
H1190 C1186 0.930 . S
H1191 C1188 0.929 . S
S1192 N1193 1.613 . S
S1192 N1194 1.610 . S
N1193 S1192 1.613 . S
N1193 C1196 1.350 . S
N1194 S1192 1.610 . S
N1194 C1195 1.351 . S
C1195 C1189 1.428 . S
C1195 N1194 1.351 . S
C1195 C1196 1.434 . S
C1196 C1187 1.429 . S
C1196 N1193 1.350 . S
C1196 C1195 1.434 . S
C1197 C1198 1.369 . S
C1197 C1199 1.419 . S
C1197 H1201 0.930 . S
C1198 C1197 1.369 . S
C1198 C1207 1.429 . S
C1199 C1197 1.419 . S
C1199 C1200 1.363 . S
C1199 H1202 0.929 . S
C1200 C1199 1.363 . S
C1200 C1206 1.428 . S
H1201 C1197 0.930 . S
H1202 C1199 0.929 . S
S1203 N1204 1.613 . S
S1203 N1205 1.610 . S
N1204 S1203 1.613 . S
N1204 C1207 1.350 . S
N1205 S1203 1.610 . S
N1205 C1206 1.351 . S
C1206 C1200 1.428 . S
C1206 N1205 1.351 . S
C1206 C1207 1.434 . S
C1207 C1198 1.429 . S
C1207 N1204 1.350 . S
C1207 C1206 1.434 . S
C1208 C1209 1.369 . S
C1208 C1210 1.419 . S
C1208 H1212 0.930 . S
C1209 C1208 1.369 . S
C1209 C1218 1.429 . S
C1210 C1208 1.419 . S
C1210 C1211 1.363 . S
C1210 H1213 0.929 . S
C1211 C1210 1.363 . S
C1211 C1217 1.428 . S
H1212 C1208 0.930 . S
H1213 C1210 0.929 . S
S1214 N1215 1.613 . S
S1214 N1216 1.610 . S
N1215 S1214 1.613 . S
N1215 C1218 1.350 . S
N1216 S1214 1.610 . S
N1216 C1217 1.351 . S
C1217 C1211 1.428 . S
C1217 N1216 1.351 . S
C1217 C1218 1.434 . S
C1218 C1209 1.429 . S
C1218 N1215 1.350 . S
C1218 C1217 1.434 . S
C1219 C1220 1.369 . S
C1219 C1221 1.419 . S
C1219 H1223 0.930 . S
C1220 C1219 1.369 . S
C1220 C1229 1.429 . S
C1221 C1219 1.419 . S
C1221 C1222 1.363 . S
C1221 H1224 0.929 . S
C1222 C1221 1.363 . S
C1222 C1228 1.428 . S
H1223 C1219 0.930 . S
H1224 C1221 0.929 . S
S1225 N1226 1.613 . S
S1225 N1227 1.610 . S
N1226 S1225 1.613 . S
N1226 C1229 1.350 . S
N1227 S1225 1.610 . S
N1227 C1228 1.351 . S
C1228 C1222 1.428 . S
C1228 N1227 1.351 . S
C1228 C1229 1.434 . S
C1229 C1220 1.429 . S
C1229 N1226 1.350 . S
C1229 C1228 1.434 . S
C1230 C1231 1.369 . S
C1230 C1232 1.419 . S
C1230 H1234 0.930 . S
C1231 C1230 1.369 . S
C1231 C1240 1.429 . S
C1232 C1230 1.419 . S
C1232 C1233 1.363 . S
C1232 H1235 0.929 . S
C1233 C1232 1.363 . S
C1233 C1239 1.428 . S
H1234 C1230 0.930 . S
H1235 C1232 0.929 . S
S1236 N1237 1.613 . S
S1236 N1238 1.610 . S
N1237 S1236 1.613 . S
N1237 C1240 1.350 . S
N1238 S1236 1.610 . S
N1238 C1239 1.351 . S
C1239 C1233 1.428 . S
C1239 N1238 1.351 . S
C1239 C1240 1.434 . S
C1240 C1231 1.429 . S
C1240 N1237 1.350 . S
C1240 C1239 1.434 . S
C1241 C1242 1.369 . S
C1241 C1243 1.419 . S
C1241 H1245 0.930 . S
C1242 C1241 1.369 . S
C1242 C1251 1.429 . S
C1243 C1241 1.419 . S
C1243 C1244 1.363 . S
C1243 H1246 0.929 . S
C1244 C1243 1.363 . S
C1244 C1250 1.428 . S
H1245 C1241 0.930 . S
H1246 C1243 0.929 . S
S1247 N1248 1.613 . S
S1247 N1249 1.610 . S
N1248 S1247 1.613 . S
N1248 C1251 1.350 . S
N1249 S1247 1.610 . S
N1249 C1250 1.351 . S
C1250 C1244 1.428 . S
C1250 N1249 1.351 . S
C1250 C1251 1.434 . S
C1251 C1242 1.429 . S
C1251 N1248 1.350 . S
C1251 C1250 1.434 . S
C1252 C1253 1.369 . S
C1252 C1254 1.419 . S
C1252 H1256 0.930 . S
C1253 C1252 1.369 . S
C1253 C1262 1.429 . S
C1254 C1252 1.419 . S
C1254 C1255 1.363 . S
C1254 H1257 0.929 . S
C1255 C1254 1.363 . S
C1255 C1261 1.428 . S
H1256 C1252 0.930 . S
H1257 C1254 0.929 . S
S1258 N1259 1.613 . S
S1258 N1260 1.610 . S
N1259 S1258 1.613 . S
N1259 C1262 1.350 . S
N1260 S1258 1.610 . S
N1260 C1261 1.351 . S
C1261 C1255 1.428 . S
C1261 N1260 1.351 . S
C1261 C1262 1.434 . S
C1262 C1253 1.429 . S
C1262 N1259 1.350 . S
C1262 C1261 1.434 . S
C1263 C1264 1.369 . S
C1263 C1265 1.419 . S
C1263 H1267 0.930 . S
C1264 C1263 1.369 . S
C1264 C1273 1.429 . S
C1265 C1263 1.419 . S
C1265 C1266 1.363 . S
C1265 H1268 0.929 . S
C1266 C1265 1.363 . S
C1266 C1272 1.428 . S
H1267 C1263 0.930 . S
H1268 C1265 0.929 . S
S1269 N1270 1.613 . S
S1269 N1271 1.610 . S
N1270 S1269 1.613 . S
N1270 C1273 1.350 . S
N1271 S1269 1.610 . S
N1271 C1272 1.351 . S
C1272 C1266 1.428 . S
C1272 N1271 1.351 . S
C1272 C1273 1.434 . S
C1273 C1264 1.429 . S
C1273 N1270 1.350 . S
C1273 C1272 1.434 . S
C1274 C1275 1.369 . S
C1274 C1276 1.419 . S
C1274 H1278 0.930 . S
C1275 C1274 1.369 . S
C1275 C1284 1.429 . S
C1276 C1274 1.419 . S
C1276 C1277 1.363 . S
C1276 H1279 0.929 . S
C1277 C1276 1.363 . S
C1277 C1283 1.428 . S
H1278 C1274 0.930 . S
H1279 C1276 0.929 . S
S1280 N1281 1.613 . S
S1280 N1282 1.610 . S
N1281 S1280 1.613 . S
N1281 C1284 1.350 . S
N1282 S1280 1.610 . S
N1282 C1283 1.351 . S
C1283 C1277 1.428 . S
C1283 N1282 1.351 . S
C1283 C1284 1.434 . S
C1284 C1275 1.429 . S
C1284 N1281 1.350 . S
C1284 C1283 1.434 . S
C1285 C1286 1.369 . S
C1285 C1287 1.419 . S
C1285 H1289 0.930 . S
C1286 C1285 1.369 . S
C1286 C1295 1.429 . S
C1287 C1285 1.419 . S
C1287 C1288 1.363 . S
C1287 H1290 0.929 . S
C1288 C1287 1.363 . S
C1288 C1294 1.428 . S
H1289 C1285 0.930 . S
H1290 C1287 0.929 . S
S1291 N1292 1.613 . S
S1291 N1293 1.610 . S
N1292 S1291 1.613 . S
N1292 C1295 1.350 . S
N1293 S1291 1.610 . S
N1293 C1294 1.351 . S
C1294 C1288 1.428 . S
C1294 N1293 1.351 . S
C1294 C1295 1.434 . S
C1295 C1286 1.429 . S
C1295 N1292 1.350 . S
C1295 C1294 1.434 . S
C703 C253 1.706 . S
C705 C345 1.720 . S
C714 C272 1.807 . S
C716 C385 1.795 . S
C725 C234 1.602 . S
C727 C437 1.593 . S
C736 C215 1.497 . S
C738 C397 1.469 . S
C749 C425 1.575 . S
C747 C177 1.593 . S
C758 C196 1.437 . S
C760 C357 1.427 1_556 S
C771 C364 1.697 . S
C769 C220 1.507 . S
C782 C404 1.632 . S
C780 C182 1.543 . S
C791 C201 1.609 . S
C793 C424 1.723 . S
C802 C258 1.443 . S
C804 C384 1.557 . S
C813 C277 1.335 . S
C815 C444 1.478 . S
C826 C344 1.570 1_554 S
C824 C239 1.418 . S
C837 C465 1.720 . S
C835 C25 1.709 . S
C846 C44 1.807 . S
C848 C505 1.793 . S
C857 C6 1.608 . S
C859 C557 1.590 . S
C868 C329 1.502 . S
C870 C517 1.468 . S
C879 C291 1.592 . S
C881 C545 1.578 . S
C890 C310 1.437 . S
C892 C477 1.428 . S
C901 C334 1.521 . S
C903 C484 1.695 . S
C912 C296 1.535 . S
C914 C524 1.636 . S
C925 C544 1.726 . S
C923 C315 1.618 . S
C934 C30 1.448 1_565 S
C936 C504 1.554 . S
C947 C564 1.479 . S
C945 C49 1.336 . S
C956 C11 1.419 . S
C958 C464 1.570 . S
C969 C585 1.721 . S
C967 C139 1.709 . S
C978 C158 1.805 . S
C980 C625 1.795 . S
C991 C677 1.588 . S
C989 C120 1.608 . S
C1002 C637 1.470 . S
C1000 C101 1.497 . S
C1013 C665 1.577 . S
C1011 C63 1.592 . S
C1022 C82 1.431 . S
C1024 C597 1.428 . S
C1033 C106 1.511 1_655 S
C1035 C604 1.698 . S
C1044 C68 1.543 . S
C1046 C644 1.632 . S
C1057 C664 1.723 . S
C1055 C87 1.608 1_545 S
C1066 C144 1.451 . S
C1068 C624 1.554 . S
C1077 C163 1.335 . S
C1079 C684 1.478 . S
C1088 C125 1.404 . S
C1090 C584 1.574 . S
C1099 C287 1.687 . S
C1101 C368 1.644 . S
C1112 C408 2.002 . S
C1110 C306 2.056 . S
C1121 C325 1.631 . S
C1123 C431 1.663 . S
C1132 C116 1.802 . S
C1134 C391 1.819 . S
C1143 C135 1.797 . S
C1145 C448 1.771 . S
C1156 C351 1.398 . S
C1154 C154 1.369 . S
C1165 C59 1.683 . S
C1167 C488 1.647 . S
C1176 C78 2.050 . S
C1178 C528 2.007 . S
C1187 C97 1.623 . S
C1189 C551 1.667 . S
C1198 C230 1.808 . S
C1200 C511 1.814 . S
C1211 C568 1.774 . S
C1209 C249 1.794 . S
C1220 C268 1.366 . S
C1222 C471 1.397 . S
C1231 C173 1.679 . S
C1233 C608 1.651 . S
C1242 C192 2.053 . S
C1244 C648 2.004 . S
C1255 C671 1.666 . S
C1253 C211 1.623 . S
C1264 C2 1.802 . S
C1266 C631 1.817 . S
C1275 C21 1.796 . S
C1277 C688 1.771 . S
C1286 C40 1.373 . S
C1288 C591 1.396 . S
