# Generated by pormake.
# Topology rtl, (3,6)-cn, num edge types: 1
# Building blocks:
#     Node 0, Type 0, BuildingBlock: PAMTOO_clean_linker_0, # of connection points: 3
#     Node 1, Type 0, BuildingBlock: PAMTOO_clean_linker_0, # of connection points: 3
#     Node 2, Type 0, BuildingBlock: PAMTOO_clean_linker_0, # of connection points: 3
#     Node 3, Type 0, BuildingBlock: PAMTOO_clean_linker_0, # of connection points: 3
#     Node 4, Type 1, BuildingBlock: VOLQOD_clean_sbu_1, # of connection points: 6
#     Node 5, Type 1, BuildingBlock: VOLQOD_clean_sbu_1, # of connection points: 6
#     Edge 6, Type (0, 1), BuildingBlock: CIFDUS_clean_linker_0, # of connection points: 2
#     Edge 7, Type (0, 1), BuildingBlock: CIFDUS_clean_linker_0, # of connection points: 2
#     Edge 8, Type (0, 1), BuildingBlock: CIFDUS_clean_linker_0, # of connection points: 2
#     Edge 9, Type (0, 1), BuildingBlock: CIFDUS_clean_linker_0, # of connection points: 2
#     Edge 10, Type (0, 1), BuildingBlock: CIFDUS_clean_linker_0, # of connection points: 2
#     Edge 11, Type (0, 1), BuildingBlock: CIFDUS_clean_linker_0, # of connection points: 2
#     Edge 12, Type (0, 1), BuildingBlock: CIFDUS_clean_linker_0, # of connection points: 2
#     Edge 13, Type (0, 1), BuildingBlock: CIFDUS_clean_linker_0, # of connection points: 2
#     Edge 14, Type (0, 1), BuildingBlock: CIFDUS_clean_linker_0, # of connection points: 2
#     Edge 15, Type (0, 1), BuildingBlock: CIFDUS_clean_linker_0, # of connection points: 2
#     Edge 16, Type (0, 1), BuildingBlock: CIFDUS_clean_linker_0, # of connection points: 2
#     Edge 17, Type (0, 1), BuildingBlock: CIFDUS_clean_linker_0, # of connection points: 2
# Relax obj value: 0.042
# Max RMSD: 0.144
# Mean RMSD: 0.094
data_MOF--net-rtl--node1-VOLQOD_clean_sbu_1--node2-PAMTOO_clean_linker_0--edge1-CIFDUS_clean_linker_0
_symmetry_space_group_name_H-M    P1
_symmetry_Int_Tables_number       1
_symmetry_cell_setting            triclinic
loop_
_symmetry_equiv_pos_as_xyz
'x, y, z'
_cell_length_a     33.204699
_cell_length_b     33.522826
_cell_length_c     19.354415
_cell_angle_alpha  92.223153
_cell_angle_beta   90.616793
_cell_angle_gamma 90.394338
loop_
_atom_site_label
_atom_site_type_symbol
_atom_site_fract_x
_atom_site_fract_y
_atom_site_fract_z
_atom_type_partial_charge
H0 H 0.16941 0.90686 0.00579 0.0
H1 H 0.22865 0.81438 0.11553 0.0
H2 H 0.22985 0.81217 0.89313 0.0
H3 H 0.22261 0.7323 0.95484 0.0
C4 C 0.23928 0.73887 0.0042 0.0
O5 O 0.25536 0.77686 0.00422 0.0
H6 H 0.21766 0.7364 0.04745 0.0
C7 C 0.18758 0.88006 0.00542 0.0
C8 C 0.19866 0.8619 0.94219 0.0
C9 C 0.19783 0.86302 0.06805 0.0
C10 C 0.22026 0.82775 0.0674 0.0
C11 C 0.23218 0.80974 0.00436 0.0
C12 C 0.22093 0.82647 0.94169 0.0
H13 H 0.65709 0.60437 0.49095 0.0
H14 H 0.73689 0.68447 0.38955 0.0
H15 H 0.74016 0.67863 0.61102 0.0
H16 H 0.74641 0.75768 0.56534 0.0
C17 C 0.76043 0.75299 0.51375 0.0
O18 O 0.77071 0.71328 0.5041 0.0
H19 H 0.7382 0.76106 0.47321 0.0
C20 C 0.68079 0.62682 0.49373 0.0
C21 C 0.69655 0.63958 0.55854 0.0
C22 C 0.69482 0.6428 0.43244 0.0
C23 C 0.72607 0.67127 0.43616 0.0
C24 C 0.74235 0.6841 0.50056 0.0
C25 C 0.72799 0.66787 0.56152 0.0
H26 H 0.86747 0.12669 0.01849 0.0
H27 H 0.79965 0.21398 0.91015 0.0
H28 H 0.79614 0.21295 0.13199 0.0
H29 H 0.71637 0.22319 0.0561 0.0
C30 C 0.72761 0.24112 0.01296 0.0
O31 O 0.76851 0.24719 0.02154 0.0
H32 H 0.72145 0.2243 0.96324 0.0
C33 C 0.84756 0.15221 0.01926 0.0
C34 C 0.83418 0.16825 0.08294 0.0
C35 C 0.83577 0.16854 0.95662 0.0
C36 C 0.80896 0.2007 0.95786 0.0
C37 C 0.79434 0.21625 0.02101 0.0
C38 C 0.80689 0.20008 0.08347 0.0
H39 H 0.32344 0.42231 0.4787 0.0
H40 H 0.26458 0.32616 0.57929 0.0
H41 H 0.26084 0.33068 0.35755 0.0
H42 H 0.18345 0.31058 0.42223 0.0
C43 C 0.19493 0.29365 0.46664 0.0
O44 O 0.23635 0.29175 0.46457 0.0
H45 H 0.1854 0.3098 0.51505 0.0
C46 C 0.30461 0.3957 0.47574 0.0
C47 C 0.29288 0.3793 0.41096 0.0
C48 C 0.29489 0.37672 0.53656 0.0
C49 C 0.2723 0.3412 0.53262 0.0
C50 C 0.25929 0.32518 0.4681 0.0
C51 C 0.27015 0.34381 0.40727 0.0
O52 O 0.9163 0.96839 0.50898 0.0
Zn53 Zn 0.9516 0.01808 0.51241 0.0
O54 O 0.00873 0.00274 0.51186 0.0
Zn55 Zn 0.03658 0.02457 0.59384 0.0
Zn56 Zn 0.01376 0.94441 0.50822 0.0
Zn57 Zn 0.03503 0.02446 0.4326 0.0
O58 O 0.07522 0.06901 0.57302 0.0
O59 O 0.0738 0.06887 0.45876 0.0
O60 O 0.93865 0.05023 0.60071 0.0
O61 O 0.99674 0.04908 0.6587 0.0
O62 O 0.06696 0.98204 0.64218 0.0
O63 O 0.0459 0.92551 0.58966 0.0
O64 O 0.04507 0.92539 0.42449 0.0
O65 O 0.93721 0.05063 0.4287 0.0
O66 O 0.06479 0.98206 0.37916 0.0
O67 O 0.99458 0.04894 0.37083 0.0
C68 C 0.92318 0.93095 0.50711 0.0
C69 C 0.08664 0.0834 0.51657 0.0
C70 C 0.06684 0.94407 0.63629 0.0
C71 C 0.95984 0.05889 0.6547 0.0
C72 C 0.0652 0.94412 0.38024 0.0
C73 C 0.95785 0.05912 0.37593 0.0
O74 O 0.95906 0.91762 0.50673 0.0
O75 O 0.58391 0.45471 -0.00552 0.0
Zn76 Zn 0.55633 0.50913 0.98816 0.0
O77 O 0.49689 0.5028 0.98506 0.0
Zn78 Zn 0.475 0.52541 0.90217 0.0
Zn79 Zn 0.48272 0.44625 0.98315 0.0
Zn80 Zn 0.47148 0.52955 0.06491 0.0
O81 O 0.43711 0.57029 0.92299 0.0
O82 O 0.4334 0.57321 0.03722 0.0
O83 O 0.57654 0.53711 0.90247 0.0
O84 O 0.51924 0.54665 0.84536 0.0
O85 O 0.44328 0.48495 0.84494 0.0
O86 O 0.45285 0.42793 0.89684 0.0
O87 O 0.44647 0.43334 0.06063 0.0
O88 O 0.57266 0.54234 0.07459 0.0
O89 O 0.43804 0.49098 0.11854 0.0
O90 O 0.51444 0.55393 0.12741 0.0
C91 C 0.5692 0.41953 -0.00229 0.0
C92 C 0.42288 0.58572 0.97847 0.0
C93 C 0.43762 0.44751 0.8482 0.0
C94 C 0.55736 0.55004 0.85041 0.0
C95 C 0.43088 0.45372 0.10999 0.0
C96 C 0.55268 0.55736 0.12516 0.0
O97 O 0.53144 0.41319 -0.00607 0.0
H98 H 0.18112 0.24563 0.57415 0.0
H99 H 0.17112 0.2488 0.35234 0.0
H100 H 0.13956 0.18247 0.34759 0.0
H101 H 0.11103 0.12584 0.40727 0.0
H102 H 0.11994 0.12307 0.62985 0.0
H103 H 0.156 0.18681 0.63356 0.0
C104 C 0.17202 0.23161 0.52493 0.0
C105 C 0.1774 0.25218 0.46382 0.0
C106 C 0.15373 0.19367 0.52278 0.0
C107 C 0.16645 0.23363 0.40004 0.0
C108 C 0.14851 0.19579 0.39737 0.0
C109 C 0.12118 0.1389 0.45663 0.0
C110 C 0.11245 0.11972 0.51821 0.0
C111 C 0.1414 0.17584 0.45853 0.0
C112 C 0.12602 0.13717 0.58161 0.0
C113 C 0.14659 0.17371 0.58385 0.0
H114 H 0.2894 0.71088 0.90429 0.0
H115 H 0.26529 0.70323 0.12158 0.0
H116 H 0.32119 0.65659 0.13388 0.0
H117 H 0.37585 0.61683 0.0818 0.0
H118 H 0.39954 0.62472 0.86371 0.0
H119 H 0.34514 0.67253 0.85284 0.0
C120 C 0.29639 0.6987 0.9541 0.0
C121 C 0.27294 0.70957 0.01161 0.0
C122 C 0.32856 0.67214 0.96068 0.0
C123 C 0.28259 0.69453 0.0764 0.0
C124 C 0.31459 0.66806 0.08344 0.0
C125 C 0.36935 0.62923 0.032 0.0
C126 C 0.39178 0.61704 0.9737 0.0
C127 C 0.33767 0.65649 0.02582 0.0
C128 C 0.38276 0.63339 0.9095 0.0
C129 C 0.35158 0.66073 0.9031 0.0
H130 H 0.75972 0.83265 0.50041 0.0
H131 H 0.84218 0.73507 0.52324 0.0
H132 H 0.8992 0.78141 0.52168 0.0
H133 H 0.9257 0.84984 0.51541 0.0
H134 H 0.84291 0.94772 0.49607 0.0
H135 H 0.78616 0.90113 0.49474 0.0
C136 C 0.79025 0.82158 0.50441 0.0
C137 C 0.79662 0.78044 0.51032 0.0
C138 C 0.82289 0.84847 0.50442 0.0
C139 C 0.83628 0.76647 0.51718 0.0
C140 C 0.86897 0.79301 0.5166 0.0
C141 C 0.89528 0.86105 0.51069 0.0
C142 C 0.88875 0.90235 0.50576 0.0
C143 C 0.86263 0.83409 0.51036 0.0
C144 C 0.84899 0.91619 0.50003 0.0
C145 C 0.81643 0.88954 0.4992 0.0
H146 H 0.65143 0.2549 0.053 0.0
H147 H 0.75331 0.31372 0.96452 0.0
H148 H 0.71421 0.37505 0.95522 0.0
H149 H 0.64961 0.41119 0.96859 0.0
H150 H 0.54748 0.3495 0.05193 0.0
H151 H 0.58805 0.29044 0.06717 0.0
C152 C 0.6652 0.28138 0.03267 0.0
C153 C 0.70543 0.28018 0.01149 0.0
C154 C 0.64237 0.31605 0.02613 0.0
C155 C 0.72264 0.31424 0.98301 0.0
C156 C 0.70023 0.34923 0.9773 0.0
C157 C 0.63643 0.3849 -0.00949 0.0
C158 C 0.59551 0.3848 0.00872 0.0
C159 C 0.65989 0.35043 -0.00169 0.0
C160 C 0.57877 0.35036 0.03673 0.0
C161 C 0.60196 0.3165 0.0457 0.0
H162 H 0.15202 0.82859 0.16449 0.0
H163 H 0.20876 0.93965 0.11423 0.0
H164 H 0.1738 0.97431 0.20915 0.0
H165 H 0.12295 0.97407 0.29899 0.0
H166 H 0.06429 0.86364 0.34868 0.0
H167 H 0.10419 0.82757 0.26136 0.0
C168 C 0.15734 0.86016 0.17565 0.0
C169 C 0.18279 0.88169 0.13291 0.0
C170 C 0.13633 0.88005 0.22918 0.0
C171 C 0.1892 0.92267 0.14677 0.0
C172 C 0.16908 0.94246 0.20063 0.0
C173 C 0.11885 0.94209 0.29092 0.0
C174 C 0.09026 0.92169 0.3296 0.0
C175 C 0.14176 0.92166 0.24083 0.0
C176 C 0.08589 0.88013 0.31921 0.0
C177 C 0.10872 0.85948 0.26937 0.0
H178 H 0.6173 0.63404 0.58451 0.0
H179 H 0.73375 0.61257 0.67564 0.0
H180 H 0.7013 0.58378 0.77599 0.0
H181 H 0.6391 0.56173 0.83472 0.0
H182 H 0.5236 0.58326 0.73821 0.0
H183 H 0.55652 0.61435 0.64297 0.0
C184 C 0.63566 0.62286 0.62616 0.0
C185 C 0.67782 0.62485 0.62222 0.0
C186 C 0.61693 0.60604 0.68264 0.0
C187 C 0.70117 0.61131 0.67749 0.0
C188 C 0.68262 0.59465 0.7346 0.0
C189 C 0.62119 0.57331 0.79293 0.0
C190 C 0.57884 0.56974 0.79386 0.0
C191 C 0.64042 0.59136 0.73731 0.0
C192 C 0.55618 0.58517 0.73919 0.0
C193 C 0.57495 0.60312 0.68442 0.0
H194 H 0.91184 0.15265 0.11108 0.0
H195 H 0.79355 0.14791 0.20003 0.0
H196 H 0.82136 0.11473 0.30083 0.0
H197 H 0.87929 0.08327 0.35969 0.0
H198 H 0.99647 0.08722 0.26469 0.0
H199 H 0.96884 0.1238 0.16987 0.0
C200 C 0.89205 0.14427 0.15245 0.0
C201 C 0.85066 0.15215 0.14772 0.0
C202 C 0.90801 0.12463 0.20887 0.0
C203 C 0.82558 0.14213 0.20255 0.0
C204 C 0.84143 0.12291 0.25984 0.0
C205 C 0.89874 0.09222 0.31831 0.0
C206 C 0.93989 0.08207 0.3194 0.0
C207 C 0.88258 0.11335 0.26297 0.0
C208 C 0.96466 0.09416 0.26534 0.0
C209 C 0.94895 0.11526 0.21092 0.0
H210 H 0.34127 0.33884 0.62912 0.0
H211 H 0.28705 0.45225 0.58925 0.0
H212 H 0.32611 0.48411 0.68408 0.0
H213 H 0.37989 0.48086 0.77056 0.0
H214 H 0.43493 0.36784 0.81146 0.0
H215 H 0.39141 0.33454 0.72373 0.0
C216 C 0.33732 0.37026 0.64264 0.0
C217 C 0.31151 0.39331 0.60264 0.0
C218 C 0.36058 0.38852 0.69618 0.0
C219 C 0.30688 0.43411 0.61964 0.0
C220 C 0.32937 0.45232 0.67337 0.0
C221 C 0.38243 0.44893 0.76023 0.0
C222 C 0.41104 0.42694 0.79643 0.0
C223 C 0.35717 0.43006 0.71049 0.0
C224 C 0.41334 0.38546 0.78371 0.0
C225 C 0.38843 0.36641 0.73373 0.0
H226 H 0.61502 0.63923 0.40527 0.0
H227 H 0.73025 0.61901 0.31026 0.0
H228 H 0.69652 0.59233 0.20464 0.0
H229 H 0.63396 0.57069 0.14273 0.0
H230 H 0.51926 0.59107 0.24111 0.0
H231 H 0.55318 0.62145 0.34195 0.0
C232 C 0.63276 0.62901 0.36135 0.0
C233 C 0.67502 0.63056 0.36574 0.0
C234 C 0.61325 0.61346 0.30157 0.0
C235 C 0.69765 0.6181 0.30801 0.0
C236 C 0.67837 0.60264 0.24788 0.0
C237 C 0.61637 0.58198 0.18602 0.0
C238 C 0.57403 0.57815 0.18421 0.0
C239 C 0.63613 0.59952 0.24453 0.0
C240 C 0.55182 0.59327 0.24084 0.0
C241 C 0.57118 0.61072 0.29877 0.0
H242 H 0.91337 0.15012 0.9325 0.0
H243 H 0.79641 0.15031 0.83363 0.0
H244 H 0.82454 0.11732 0.72972 0.0
H245 H 0.88208 0.08498 0.66998 0.0
H246 H 0.99804 0.08392 0.77371 0.0
H247 H 0.97029 0.12 0.87302 0.0
C248 C 0.89394 0.14281 0.8883 0.0
C249 C 0.85281 0.15213 0.891 0.0
C250 C 0.91006 0.1233 0.82982 0.0
C251 C 0.82824 0.14348 0.83269 0.0
C252 C 0.84425 0.12436 0.77356 0.0
C253 C 0.90125 0.09269 0.71427 0.0
C254 C 0.94206 0.08138 0.71423 0.0
C255 C 0.88505 0.11353 0.77198 0.0
C256 C 0.96649 0.09188 0.77209 0.0
C257 C 0.95071 0.11266 0.8291 0.0
H258 H 0.33331 0.34326 0.30564 0.0
H259 H 0.28833 0.45742 0.37872 0.0
H260 H 0.32636 0.49081 0.28992 0.0
H261 H 0.37733 0.488 0.19905 0.0
H262 H 0.42294 0.37368 0.12684 0.0
H263 H 0.37979 0.33993 0.20769 0.0
C264 C 0.33102 0.3753 0.30072 0.0
C265 C 0.30824 0.39793 0.34843 0.0
C266 C 0.35369 0.39434 0.25069 0.0
C267 C 0.30587 0.4395 0.34242 0.0
C268 C 0.32777 0.45859 0.29206 0.0
C269 C 0.37778 0.4557 0.20094 0.0
C270 C 0.40372 0.43348 0.15769 0.0
C271 C 0.35276 0.43642 0.24735 0.0
C272 C 0.40343 0.39157 0.15991 0.0
C273 C 0.37872 0.37219 0.20605 0.0
H274 H 0.15138 0.82768 0.84112 0.0
H275 H 0.21335 0.937 0.90221 0.0
H276 H 0.17924 0.97182 0.8099 0.0
H277 H 0.12716 0.97267 0.72001 0.0
H278 H 0.06335 0.864 0.65965 0.0
H279 H 0.10277 0.82737 0.74341 0.0
C280 C 0.15808 0.85883 0.83275 0.0
C281 C 0.18476 0.87988 0.87786 0.0
C282 C 0.13748 0.87889 0.78077 0.0
C283 C 0.19291 0.92037 0.86768 0.0
C284 C 0.17323 0.94028 0.81537 0.0
C285 C 0.12188 0.94094 0.72495 0.0
C286 C 0.09192 0.92126 0.68437 0.0
C287 C 0.14457 0.92014 0.77306 0.0
C288 C 0.08603 0.87997 0.69064 0.0
C289 C 0.10858 0.85898 0.73848 0.0
loop_
_geom_bond_atom_site_label_1
_geom_bond_atom_site_label_2
_geom_bond_distance
_geom_bond_site_symmetry_2
_ccdc_geom_bond_type
H0 C7 0.929 . S
H1 C10 0.930 . S
H2 C12 0.929 . S
H3 C4 0.969 . S
C4 H3 0.969 . S
C4 O5 1.550 1_554 S
C4 H6 0.973 . S
O5 C4 1.550 1_556 S
O5 C11 1.412 . S
H6 C4 0.973 . S
C7 H0 0.929 . S
C7 C8 1.400 1_554 S
C7 C9 1.364 . S
C8 C7 1.400 1_556 S
C8 C12 1.377 . S
C9 C7 1.364 . S
C9 C10 1.374 . S
C10 H1 0.930 . S
C10 C9 1.374 . S
C10 C11 1.383 1_554 S
C11 O5 1.412 . S
C11 C10 1.383 1_556 S
C11 C12 1.394 . S
C12 H2 0.929 . S
C12 C8 1.377 . S
C12 C11 1.394 . S
H13 C20 0.929 . S
H14 C23 0.930 . S
H15 C25 0.929 . S
H16 C17 0.969 . S
C17 H16 0.969 . S
C17 O18 1.550 . S
C17 H19 0.973 . S
O18 C17 1.550 . S
O18 C24 1.412 . S
H19 C17 0.973 . S
C20 H13 0.929 . S
C20 C21 1.400 . S
C20 C22 1.364 . S
C21 C20 1.400 . S
C21 C25 1.377 . S
C22 C20 1.364 . S
C22 C23 1.374 . S
C23 H14 0.930 . S
C23 C22 1.374 . S
C23 C24 1.383 . S
C24 O18 1.412 . S
C24 C23 1.383 . S
C24 C25 1.394 . S
C25 H15 0.929 . S
C25 C21 1.377 . S
C25 C24 1.394 . S
H26 C33 0.929 . S
H27 C36 0.930 . S
H28 C38 0.929 . S
H29 C30 0.969 . S
C30 H29 0.969 . S
C30 O31 1.550 1_556 S
C30 H32 0.973 . S
O31 C30 1.550 1_554 S
O31 C37 1.412 . S
H32 C30 0.973 . S
C33 H26 0.929 . S
C33 C34 1.400 . S
C33 C35 1.364 1_554 S
C34 C33 1.400 . S
C34 C38 1.377 . S
C35 C33 1.364 1_556 S
C35 C36 1.374 . S
C36 H27 0.930 . S
C36 C35 1.374 . S
C36 C37 1.383 1_556 S
C37 O31 1.412 . S
C37 C36 1.383 1_554 S
C37 C38 1.394 . S
C38 H28 0.929 . S
C38 C34 1.377 . S
C38 C37 1.394 . S
H39 C46 0.929 . S
H40 C49 0.930 . S
H41 C51 0.929 . S
H42 C43 0.969 . S
C43 H42 0.969 . S
C43 O44 1.550 . S
C43 H45 0.973 . S
O44 C43 1.550 . S
O44 C50 1.412 . S
H45 C43 0.973 . S
C46 H39 0.929 . S
C46 C47 1.400 . S
C46 C48 1.364 . S
C47 C46 1.400 . S
C47 C51 1.377 . S
C48 C46 1.364 . S
C48 C49 1.374 . S
C49 H40 0.930 . S
C49 C48 1.374 . S
C49 C50 1.383 . S
C50 O44 1.412 . S
C50 C49 1.383 . S
C50 C51 1.394 . S
C51 H41 0.929 . S
C51 C47 1.377 . S
C51 C50 1.394 . S
O52 Zn53 1.953 1_565 S
O52 C68 1.225 . S
Zn53 O52 1.953 1_545 S
Zn53 O54 1.949 1_655 S
Zn53 O60 1.919 . S
Zn53 O65 1.924 . S
O54 Zn53 1.949 1_455 S
O54 Zn55 1.923 . S
O54 Zn56 1.950 1_545 S
O54 Zn57 1.945 . S
Zn55 O54 1.923 . S
Zn55 O58 1.933 . S
Zn55 O61 1.941 1_455 S
Zn55 O62 1.965 1_545 S
Zn56 O54 1.950 1_565 S
Zn56 O63 1.938 . S
Zn56 O64 1.906 . S
Zn56 O74 1.953 1_455 S
Zn57 O54 1.945 . S
Zn57 O59 1.932 . S
Zn57 O66 1.977 1_545 S
Zn57 O67 1.910 1_455 S
O58 Zn55 1.933 . S
O58 C69 1.226 . S
O59 Zn57 1.932 . S
O59 C69 1.307 . S
O60 Zn53 1.919 . S
O60 C71 1.253 . S
O61 Zn55 1.941 1_655 S
O61 C71 1.283 . S
O62 Zn55 1.965 1_565 S
O62 C70 1.303 . S
O63 Zn56 1.938 . S
O63 C70 1.247 . S
O64 Zn56 1.906 . S
O64 C72 1.304 . S
O65 Zn53 1.924 . S
O65 C73 1.311 . S
O66 Zn57 1.977 1_565 S
O66 C72 1.272 . S
O67 Zn57 1.910 1_655 S
O67 C73 1.231 . S
C68 O52 1.225 . S
C68 O74 1.298 . S
C69 O58 1.226 . S
C69 O59 1.307 . S
C70 O62 1.303 . S
C70 O63 1.247 . S
C71 O60 1.253 . S
C71 O61 1.283 . S
C72 O64 1.304 . S
C72 O66 1.272 . S
C73 O65 1.311 . S
C73 O67 1.231 . S
O74 Zn56 1.953 1_655 S
O74 C68 1.298 . S
O75 Zn76 1.953 . S
O75 C91 1.225 1_556 S
Zn76 O75 1.953 . S
Zn76 O77 1.949 1_556 S
Zn76 O83 1.919 . S
Zn76 O88 1.924 1_556 S
O77 Zn76 1.949 1_554 S
O77 Zn78 1.923 1_554 S
O77 Zn79 1.950 . S
O77 Zn80 1.945 . S
Zn78 O77 1.923 1_556 S
Zn78 O81 1.933 . S
Zn78 O84 1.941 . S
Zn78 O85 1.965 . S
Zn79 O77 1.950 . S
Zn79 O86 1.938 1_554 S
Zn79 O87 1.906 . S
Zn79 O97 1.953 . S
Zn80 O77 1.945 . S
Zn80 O82 1.932 . S
Zn80 O89 1.977 . S
Zn80 O90 1.910 . S
O81 Zn78 1.933 . S
O81 C92 1.226 1_556 S
O82 Zn80 1.932 . S
O82 C92 1.307 . S
O83 Zn76 1.919 . S
O83 C94 1.253 . S
O84 Zn78 1.941 . S
O84 C94 1.283 . S
O85 Zn78 1.965 . S
O85 C93 1.303 . S
O86 Zn79 1.938 1_556 S
O86 C93 1.247 . S
O87 Zn79 1.906 . S
O87 C95 1.304 . S
O88 Zn76 1.924 1_554 S
O88 C96 1.311 . S
O89 Zn80 1.977 . S
O89 C95 1.272 . S
O90 Zn80 1.910 . S
O90 C96 1.231 . S
C91 O75 1.225 1_554 S
C91 O97 1.298 . S
C92 O81 1.226 1_554 S
C92 O82 1.307 . S
C93 O85 1.303 . S
C93 O86 1.247 . S
C94 O83 1.253 . S
C94 O84 1.283 . S
C95 O87 1.304 . S
C95 O89 1.272 . S
C96 O88 1.311 . S
C96 O90 1.231 . S
O97 Zn79 1.953 . S
O97 C91 1.298 . S
H98 C104 0.930 . S
H99 C107 0.930 . S
H100 C108 0.930 . S
H101 C109 0.930 . S
H102 C112 0.930 . S
H103 C113 0.930 . S
C104 H98 0.930 . S
C104 C105 1.355 . S
C104 C106 1.415 . S
C105 C104 1.355 . S
C105 C107 1.419 . S
C106 C104 1.415 . S
C106 C111 1.425 . S
C106 C113 1.409 . S
C107 H99 0.930 . S
C107 C105 1.419 . S
C107 C108 1.362 . S
C108 H100 0.930 . S
C108 C107 1.362 . S
C108 C111 1.409 . S
C109 H101 0.930 . S
C109 C110 1.355 . S
C109 C111 1.415 . S
C110 C109 1.355 . S
C110 C112 1.419 . S
C111 C106 1.425 . S
C111 C108 1.409 . S
C111 C109 1.415 . S
C112 H102 0.930 . S
C112 C110 1.419 . S
C112 C113 1.362 . S
C113 H103 0.930 . S
C113 C106 1.409 . S
C113 C112 1.362 . S
H114 C120 0.930 . S
H115 C123 0.930 . S
H116 C124 0.930 . S
H117 C125 0.930 . S
H118 C128 0.930 . S
H119 C129 0.930 . S
C120 H114 0.930 . S
C120 C121 1.355 1_556 S
C120 C122 1.415 . S
C121 C120 1.355 1_554 S
C121 C123 1.419 . S
C122 C120 1.415 . S
C122 C127 1.425 1_556 S
C122 C129 1.409 . S
C123 H115 0.930 . S
C123 C121 1.419 . S
C123 C124 1.362 . S
C124 H116 0.930 . S
C124 C123 1.362 . S
C124 C127 1.409 . S
C125 H117 0.930 . S
C125 C126 1.355 . S
C125 C127 1.415 . S
C126 C125 1.355 . S
C126 C128 1.419 1_554 S
C127 C122 1.425 1_554 S
C127 C124 1.409 . S
C127 C125 1.415 . S
C128 H118 0.930 . S
C128 C126 1.419 1_556 S
C128 C129 1.362 . S
C129 H119 0.930 . S
C129 C122 1.409 . S
C129 C128 1.362 . S
H130 C136 0.930 . S
H131 C139 0.930 . S
H132 C140 0.930 . S
H133 C141 0.930 . S
H134 C144 0.930 . S
H135 C145 0.930 . S
C136 H130 0.930 . S
C136 C137 1.355 . S
C136 C138 1.415 . S
C137 C136 1.355 . S
C137 C139 1.419 . S
C138 C136 1.415 . S
C138 C143 1.425 . S
C138 C145 1.409 . S
C139 H131 0.930 . S
C139 C137 1.419 . S
C139 C140 1.362 . S
C140 H132 0.930 . S
C140 C139 1.362 . S
C140 C143 1.409 . S
C141 H133 0.930 . S
C141 C142 1.355 . S
C141 C143 1.415 . S
C142 C141 1.355 . S
C142 C144 1.419 . S
C143 C138 1.425 . S
C143 C140 1.409 . S
C143 C141 1.415 . S
C144 H134 0.930 . S
C144 C142 1.419 . S
C144 C145 1.362 . S
C145 H135 0.930 . S
C145 C138 1.409 . S
C145 C144 1.362 . S
H146 C152 0.930 . S
H147 C155 0.930 . S
H148 C156 0.930 . S
H149 C157 0.929 1_556 S
H150 C160 0.930 . S
H151 C161 0.930 . S
C152 H146 0.930 . S
C152 C153 1.355 1_554 S
C152 C154 1.415 . S
C153 C152 1.355 1_556 S
C153 C155 1.419 . S
C154 C152 1.415 . S
C154 C159 1.425 1_554 S
C154 C161 1.409 . S
C155 H147 0.930 . S
C155 C153 1.419 . S
C155 C156 1.362 . S
C156 H148 0.930 . S
C156 C155 1.362 . S
C156 C159 1.409 . S
C157 H149 0.929 1_554 S
C157 C158 1.355 . S
C157 C159 1.415 1_554 S
C158 C157 1.355 . S
C158 C160 1.419 . S
C159 C154 1.425 1_556 S
C159 C156 1.409 . S
C159 C157 1.415 1_556 S
C160 H150 0.930 . S
C160 C158 1.419 . S
C160 C161 1.362 . S
C161 H151 0.930 . S
C161 C154 1.409 . S
C161 C160 1.362 . S
H162 C168 0.930 . S
H163 C171 0.930 . S
H164 C172 0.930 . S
H165 C173 0.930 . S
H166 C176 0.930 . S
H167 C177 0.930 . S
C168 H162 0.930 . S
C168 C169 1.355 . S
C168 C170 1.415 . S
C169 C168 1.355 . S
C169 C171 1.419 . S
C170 C168 1.415 . S
C170 C175 1.425 . S
C170 C177 1.409 . S
C171 H163 0.930 . S
C171 C169 1.419 . S
C171 C172 1.362 . S
C172 H164 0.930 . S
C172 C171 1.362 . S
C172 C175 1.409 . S
C173 H165 0.930 . S
C173 C174 1.355 . S
C173 C175 1.415 . S
C174 C173 1.355 . S
C174 C176 1.419 . S
C175 C170 1.425 . S
C175 C172 1.409 . S
C175 C173 1.415 . S
C176 H166 0.930 . S
C176 C174 1.419 . S
C176 C177 1.362 . S
C177 H167 0.930 . S
C177 C170 1.409 . S
C177 C176 1.362 . S
H178 C184 0.930 . S
H179 C187 0.930 . S
H180 C188 0.930 . S
H181 C189 0.930 . S
H182 C192 0.930 . S
H183 C193 0.930 . S
C184 H178 0.930 . S
C184 C185 1.355 . S
C184 C186 1.415 . S
C185 C184 1.355 . S
C185 C187 1.419 . S
C186 C184 1.415 . S
C186 C191 1.425 . S
C186 C193 1.409 . S
C187 H179 0.930 . S
C187 C185 1.419 . S
C187 C188 1.362 . S
C188 H180 0.930 . S
C188 C187 1.362 . S
C188 C191 1.409 . S
C189 H181 0.930 . S
C189 C190 1.355 . S
C189 C191 1.415 . S
C190 C189 1.355 . S
C190 C192 1.419 . S
C191 C186 1.425 . S
C191 C188 1.409 . S
C191 C189 1.415 . S
C192 H182 0.930 . S
C192 C190 1.419 . S
C192 C193 1.362 . S
C193 H183 0.930 . S
C193 C186 1.409 . S
C193 C192 1.362 . S
H194 C200 0.930 . S
H195 C203 0.930 . S
H196 C204 0.930 . S
H197 C205 0.930 . S
H198 C208 0.930 . S
H199 C209 0.930 . S
C200 H194 0.930 . S
C200 C201 1.355 . S
C200 C202 1.415 . S
C201 C200 1.355 . S
C201 C203 1.419 . S
C202 C200 1.415 . S
C202 C207 1.425 . S
C202 C209 1.409 . S
C203 H195 0.930 . S
C203 C201 1.419 . S
C203 C204 1.362 . S
C204 H196 0.930 . S
C204 C203 1.362 . S
C204 C207 1.409 . S
C205 H197 0.930 . S
C205 C206 1.355 . S
C205 C207 1.415 . S
C206 C205 1.355 . S
C206 C208 1.419 . S
C207 C202 1.425 . S
C207 C204 1.409 . S
C207 C205 1.415 . S
C208 H198 0.930 . S
C208 C206 1.419 . S
C208 C209 1.362 . S
C209 H199 0.930 . S
C209 C202 1.409 . S
C209 C208 1.362 . S
H210 C216 0.930 . S
H211 C219 0.930 . S
H212 C220 0.930 . S
H213 C221 0.930 . S
H214 C224 0.930 . S
H215 C225 0.930 . S
C216 H210 0.930 . S
C216 C217 1.355 . S
C216 C218 1.415 . S
C217 C216 1.355 . S
C217 C219 1.419 . S
C218 C216 1.415 . S
C218 C223 1.425 . S
C218 C225 1.409 . S
C219 H211 0.930 . S
C219 C217 1.419 . S
C219 C220 1.362 . S
C220 H212 0.930 . S
C220 C219 1.362 . S
C220 C223 1.409 . S
C221 H213 0.930 . S
C221 C222 1.355 . S
C221 C223 1.415 . S
C222 C221 1.355 . S
C222 C224 1.419 . S
C223 C218 1.425 . S
C223 C220 1.409 . S
C223 C221 1.415 . S
C224 H214 0.930 . S
C224 C222 1.419 . S
C224 C225 1.362 . S
C225 H215 0.930 . S
C225 C218 1.409 . S
C225 C224 1.362 . S
H226 C232 0.930 . S
H227 C235 0.930 . S
H228 C236 0.930 . S
H229 C237 0.930 . S
H230 C240 0.930 . S
H231 C241 0.930 . S
C232 H226 0.930 . S
C232 C233 1.355 . S
C232 C234 1.415 . S
C233 C232 1.355 . S
C233 C235 1.419 . S
C234 C232 1.415 . S
C234 C239 1.425 . S
C234 C241 1.409 . S
C235 H227 0.930 . S
C235 C233 1.419 . S
C235 C236 1.362 . S
C236 H228 0.930 . S
C236 C235 1.362 . S
C236 C239 1.409 . S
C237 H229 0.930 . S
C237 C238 1.355 . S
C237 C239 1.415 . S
C238 C237 1.355 . S
C238 C240 1.419 . S
C239 C234 1.425 . S
C239 C236 1.409 . S
C239 C237 1.415 . S
C240 H230 0.930 . S
C240 C238 1.419 . S
C240 C241 1.362 . S
C241 H231 0.930 . S
C241 C234 1.409 . S
C241 C240 1.362 . S
H242 C248 0.930 . S
H243 C251 0.930 . S
H244 C252 0.930 . S
H245 C253 0.930 . S
H246 C256 0.930 . S
H247 C257 0.930 . S
C248 H242 0.930 . S
C248 C249 1.355 . S
C248 C250 1.415 . S
C249 C248 1.355 . S
C249 C251 1.419 . S
C250 C248 1.415 . S
C250 C255 1.425 . S
C250 C257 1.409 . S
C251 H243 0.930 . S
C251 C249 1.419 . S
C251 C252 1.362 . S
C252 H244 0.930 . S
C252 C251 1.362 . S
C252 C255 1.409 . S
C253 H245 0.930 . S
C253 C254 1.355 . S
C253 C255 1.415 . S
C254 C253 1.355 . S
C254 C256 1.419 . S
C255 C250 1.425 . S
C255 C252 1.409 . S
C255 C253 1.415 . S
C256 H246 0.930 . S
C256 C254 1.419 . S
C256 C257 1.362 . S
C257 H247 0.930 . S
C257 C250 1.409 . S
C257 C256 1.362 . S
H258 C264 0.930 . S
H259 C267 0.930 . S
H260 C268 0.930 . S
H261 C269 0.930 . S
H262 C272 0.930 . S
H263 C273 0.930 . S
C264 H258 0.930 . S
C264 C265 1.355 . S
C264 C266 1.415 . S
C265 C264 1.355 . S
C265 C267 1.419 . S
C266 C264 1.415 . S
C266 C271 1.425 . S
C266 C273 1.409 . S
C267 H259 0.930 . S
C267 C265 1.419 . S
C267 C268 1.362 . S
C268 H260 0.930 . S
C268 C267 1.362 . S
C268 C271 1.409 . S
C269 H261 0.930 . S
C269 C270 1.355 . S
C269 C271 1.415 . S
C270 C269 1.355 . S
C270 C272 1.419 . S
C271 C266 1.425 . S
C271 C268 1.409 . S
C271 C269 1.415 . S
C272 H262 0.930 . S
C272 C270 1.419 . S
C272 C273 1.362 . S
C273 H263 0.930 . S
C273 C266 1.409 . S
C273 C272 1.362 . S
H274 C280 0.930 . S
H275 C283 0.930 . S
H276 C284 0.930 . S
H277 C285 0.930 . S
H278 C288 0.930 . S
H279 C289 0.930 . S
C280 H274 0.930 . S
C280 C281 1.355 . S
C280 C282 1.415 . S
C281 C280 1.355 . S
C281 C283 1.419 . S
C282 C280 1.415 . S
C282 C287 1.425 . S
C282 C289 1.409 . S
C283 H275 0.930 . S
C283 C281 1.419 . S
C283 C284 1.362 . S
C284 H276 0.930 . S
C284 C283 1.362 . S
C284 C287 1.409 . S
C285 H277 0.930 . S
C285 C286 1.355 . S
C285 C287 1.415 . S
C286 C285 1.355 . S
C286 C288 1.419 . S
C287 C282 1.425 . S
C287 C284 1.409 . S
C287 C285 1.415 . S
C288 H278 0.930 . S
C288 C286 1.419 . S
C288 C289 1.362 . S
C289 H279 0.930 . S
C289 C282 1.409 . S
C289 C288 1.362 . S
C110 C69 1.484 . S
C105 C43 1.458 . S
C121 C4 1.430 . S
C126 C92 1.478 . S
C137 C17 1.453 . S
C142 C68 1.511 . S
C153 C30 1.468 . S
C158 C91 1.512 . S
C174 C72 1.407 . S
C169 C9 1.445 . S
C190 C94 1.442 . S
C185 C21 1.521 . S
C201 C34 1.489 . S
C206 C73 1.411 . S
C217 C48 1.522 . S
C222 C93 1.501 . S
C238 C96 1.422 . S
C233 C22 1.482 . S
C254 C71 1.497 . S
C249 C35 1.530 . S
C270 C95 1.436 . S
C265 C47 1.468 . S
C281 C8 1.519 . S
C286 C70 1.492 . S
