# Generated by pormake.
# Topology pth, (4,4)-cn, num edge types: 1
# Building blocks:
#     Node 0, Type 0, BuildingBlock: KUFVIS_clean_sbu_0, # of connection points: 4
#     Node 1, Type 0, BuildingBlock: KUFVIS_clean_sbu_0, # of connection points: 4
#     Node 2, Type 0, BuildingBlock: KUFVIS_clean_sbu_0, # of connection points: 4
#     Node 3, Type 1, BuildingBlock: MUDLON_clean_linker_0, # of connection points: 4
#     Node 4, Type 1, BuildingBlock: MUDLON_clean_linker_0, # of connection points: 4
#     Node 5, Type 1, BuildingBlock: MUDLON_clean_linker_0, # of connection points: 4
#     Edge 6, Type (0, 1), BuildingBlock: KIFKEQ_clean_linker_1, # of connection points: 2
#     Edge 7, Type (0, 1), BuildingBlock: KIFKEQ_clean_linker_1, # of connection points: 2
#     Edge 8, Type (0, 1), BuildingBlock: KIFKEQ_clean_linker_1, # of connection points: 2
#     Edge 9, Type (0, 1), BuildingBlock: KIFKEQ_clean_linker_1, # of connection points: 2
#     Edge 10, Type (0, 1), BuildingBlock: KIFKEQ_clean_linker_1, # of connection points: 2
#     Edge 11, Type (0, 1), BuildingBlock: KIFKEQ_clean_linker_1, # of connection points: 2
#     Edge 12, Type (0, 1), BuildingBlock: KIFKEQ_clean_linker_1, # of connection points: 2
#     Edge 13, Type (0, 1), BuildingBlock: KIFKEQ_clean_linker_1, # of connection points: 2
#     Edge 14, Type (0, 1), BuildingBlock: KIFKEQ_clean_linker_1, # of connection points: 2
#     Edge 15, Type (0, 1), BuildingBlock: KIFKEQ_clean_linker_1, # of connection points: 2
#     Edge 16, Type (0, 1), BuildingBlock: KIFKEQ_clean_linker_1, # of connection points: 2
#     Edge 17, Type (0, 1), BuildingBlock: KIFKEQ_clean_linker_1, # of connection points: 2
# Relax obj value: 0.037
# Max RMSD: 0.104
# Mean RMSD: 0.093
data_MOF--net-pth--node1-KUFVIS_clean_sbu_0--node2-MUDLON_clean_linker_0--edge1-KIFKEQ_clean_linker_1
_symmetry_space_group_name_H-M    P1
_symmetry_Int_Tables_number       1
_symmetry_cell_setting            triclinic
loop_
_symmetry_equiv_pos_as_xyz
'x, y, z'
_cell_length_a     33.676638
_cell_length_b     33.735089
_cell_length_c     69.849866
_cell_angle_alpha  90.372495
_cell_angle_beta   91.736462
_cell_angle_gamma 120.1463
loop_
_atom_site_label
_atom_site_type_symbol
_atom_site_fract_x
_atom_site_fract_y
_atom_site_fract_z
_atom_type_partial_charge
Mn0 Mn 0.0299 0.03685 0.046 0.0
Mn1 Mn 0.95876 0.06274 0.02116 0.0
C2 C 0.98554 0.99033 0.02043 0.0
C3 C 0.04243 1.00053 0.0718 0.0
C4 C 0.0623 0.11295 0.01683 0.0
O5 O 0.02659 0.08374 0.06343 0.0
O6 O 0.97289 0.09254 0.04709 0.0
C7 C 0.87626 0.01305 0.04425 0.0
N8 N 0.89654 0.02053 0.02705 0.0
C9 C 0.8257 0.9639 0.01127 0.0
C10 C 0.80397 0.9558 0.0288 0.0
C11 C 0.8294 0.98041 0.04536 0.0
C12 C 0.87245 0.99691 0.01104 0.0
H13 H 0.89576 0.03179 0.05702 0.0
C14 C 1.00011 0.10053 0.06169 0.0
O15 O 0.07656 0.03414 0.06344 0.0
O16 O 1.00133 0.98904 0.06556 0.0
N17 N 0.94195 0.03612 0.99584 0.0
C18 C 0.96838 0.04704 0.98019 0.0
C19 C 0.94826 0.02507 0.96247 0.0
C20 C 0.90117 0.99242 0.961 0.0
C21 C 0.87456 0.98217 0.97724 0.0
C22 C 0.8964 0.0055 0.99447 0.0
H23 H 0.00456 0.07221 0.98122 0.0
O24 O 0.02153 0.98912 0.02669 0.0
O25 O 0.97601 0.01803 0.02959 0.0
O26 O 0.07087 0.08806 0.02798 0.0
O27 O 0.02201 0.10711 0.01387 0.0
C28 C 0.82736 0.94927 0.97707 0.0
C29 C 0.80298 0.94005 0.99409 0.0
H30 H 0.76787 0.93053 0.02974 0.0
H31 H 0.81292 0.97419 0.05896 0.0
H32 H 0.96902 0.0332 0.95 0.0
H33 H 0.88584 0.97534 0.94734 0.0
H34 H 0.80962 0.93046 0.96399 0.0
H35 H 0.76683 0.91429 0.99384 0.0
Mn36 Mn 0.02327 0.04494 0.37965 0.0
Mn37 Mn 0.07782 0.1446 0.40528 0.0
C38 C 0.07176 0.05295 0.4054 0.0
C39 C 0.02167 0.99947 0.35398 0.0
C40 C 0.9773 0.07345 0.40967 0.0
O41 O 0.01648 0.08925 0.36213 0.0
O42 O 0.05635 0.15455 0.37982 0.0
C43 C 0.15838 0.19468 0.38116 0.0
N44 N 0.14071 0.17852 0.39856 0.0
C45 C 0.21635 0.21231 0.41353 0.0
C46 C 0.23536 0.22965 0.39581 0.0
C47 C 0.20624 0.22062 0.37954 0.0
C48 C 0.16841 0.18672 0.41427 0.0
H49 H 0.13612 0.1878 0.36862 0.0
C50 C 0.03316 0.13231 0.36467 0.0
O51 O 0.98398 0.99184 0.36178 0.0
O52 O 0.05961 0.03429 0.36064 0.0
N53 N 0.10106 0.14071 0.43012 0.0
C54 C 0.07738 0.11879 0.44582 0.0
C55 C 0.10154 0.12276 0.46313 0.0
C56 C 0.14971 0.14965 0.46419 0.0
C57 C 0.1733 0.17224 0.4479 0.0
C58 C 0.14739 0.16696 0.43103 0.0
H59 H 0.04037 0.0981 0.44508 0.0
O60 O 0.04036 0.0126 0.39912 0.0
O61 O 0.0742 0.08764 0.39632 0.0
O62 O 0.97519 0.04439 0.39727 0.0
O63 O 0.01377 0.11177 0.41355 0.0
C64 C 0.22155 0.19912 0.44763 0.0
C65 C 0.24308 0.21891 0.43044 0.0
H66 H 0.27227 0.24959 0.39449 0.0
H67 H 0.22066 0.23366 0.36578 0.0
H68 H 0.08309 0.10511 0.47563 0.0
H69 H 0.16825 0.15241 0.47755 0.0
H70 H 0.24248 0.20428 0.46051 0.0
H71 H 0.28023 0.2388 0.43034 0.0
Mn72 Mn 0.03225 0.04386 0.71346 0.0
Mn73 Mn 0.98473 0.09534 0.73785 0.0
C74 C 0.07138 0.09077 0.73977 0.0
C75 C 0.07686 0.04333 0.68863 0.0
C76 C 0.95503 0.99465 0.74145 0.0
O77 O 0.98142 0.03793 0.69496 0.0
O78 O 0.95585 0.07758 0.7116 0.0
C79 C 0.01792 0.17943 0.71529 0.0
N80 N 0.01485 0.15915 0.73239 0.0
C81 C 0.05605 0.23236 0.74896 0.0
C82 C 0.05944 0.25407 0.73154 0.0
C83 C 0.04043 0.22748 0.71462 0.0
C84 C 0.03321 0.18439 0.74874 0.0
H85 H 1.00327 0.15909 0.70226 0.0
C86 C 0.95544 0.05516 0.69663 0.0
O87 O 0.04658 0.00556 0.69629 0.0
O88 O 0.08003 0.08109 0.69496 0.0
N89 N 0.00964 0.11469 0.76341 0.0
C90 C 0.00606 0.08857 0.77877 0.0
C91 C 0.02491 0.11001 0.7967 0.0
C92 C 0.04671 0.15796 0.79868 0.0
C93 C 0.04955 0.18407 0.78269 0.0
C94 C 0.03023 0.16082 0.76519 0.0
H95 H 0.98916 0.05168 0.77735 0.0
O96 O 0.08125 0.06036 0.73381 0.0
O97 O 0.03913 0.09318 0.73003 0.0
O98 O 0.98446 0.9946 0.73038 0.0
O99 O 0.95171 0.03012 0.74481 0.0
C100 C 0.07141 0.23229 0.78337 0.0
C101 C 0.07492 0.25644 0.7665 0.0
H102 H 0.07685 0.29111 0.73096 0.0
H103 H 0.04307 0.24398 0.7011 0.0
H104 H 0.02262 0.08962 0.80896 0.0
H105 H 0.0614 0.17439 0.8125 0.0
H106 H 0.08623 0.25117 0.79675 0.0
H107 H 0.09256 0.29356 0.76715 0.0
H108 H 0.98801 0.70878 0.22199 0.0
N109 N 0.07007 0.71331 0.21602 0.0
H110 H 0.974 0.75212 0.24661 0.0
H111 H 0.12485 0.75936 0.246 0.0
H112 H 0.11135 0.80325 0.27048 0.0
H113 H 0.13624 0.79527 0.20612 0.0
H114 H 0.13386 0.8421 0.18036 0.0
H115 H 1.00302 0.68443 0.18749 0.0
H116 H 1.00165 0.72937 0.16049 0.0
H117 H 0.99633 0.6415 0.23368 0.0
H118 H 0.10523 0.67344 0.19482 0.0
H119 H 0.97407 0.56142 0.23189 0.0
H120 H 0.08112 0.59227 0.19207 0.0
H121 H 0.91128 0.29741 0.223 0.0
H122 H 0.91948 0.25677 0.25023 0.0
H123 H 0.05199 0.3751 0.26514 0.0
H124 H 0.04457 0.41414 0.2374 0.0
H125 H 0.05164 0.37554 0.2044 0.0
H126 H 0.06411 0.3358 0.17786 0.0
H127 H 0.93199 0.3017 0.15229 0.0
H128 H 0.91979 0.34146 0.17894 0.0
H129 H 0.91825 0.41331 0.21342 0.0
H130 H 0.93921 0.49396 0.21349 0.0
H131 H 0.08193 0.53284 0.20842 0.0
N132 N 0.97308 0.37848 0.21028 0.0
H133 H 0.05999 0.45217 0.20717 0.0
C134 C 0.0575 0.73063 0.23232 0.0
C135 C 0.01456 0.72825 0.23287 0.0
C136 C 0.00663 0.75303 0.2469 0.0
C137 C 0.04175 0.78126 0.26031 0.0
C138 C 0.08383 0.78197 0.26021 0.0
C139 C 0.09147 0.75669 0.24639 0.0
C140 C 0.07017 0.73638 0.19867 0.0
C141 C 0.1071 0.78058 0.196 0.0
C142 C 0.10566 0.80723 0.1811 0.0
C143 C 0.06749 0.78992 0.16812 0.0
C144 C 0.03124 0.74456 0.17034 0.0
C145 C 0.03222 0.71833 0.18562 0.0
C146 C 0.05285 0.66436 0.21428 0.0
C147 C 0.01521 0.63163 0.22445 0.0
C148 C 1.0021 0.58517 0.22332 0.0
C149 C 0.0257 0.56989 0.21185 0.0
C150 C 0.06257 0.60252 0.20138 0.0
C151 C 0.07613 0.64904 0.20275 0.0
C152 C 0.97687 0.3589 0.22811 0.0
C153 C 0.94176 0.31472 0.23235 0.0
C154 C 0.94652 0.29162 0.24799 0.0
C155 C 0.98656 0.31245 0.25995 0.0
C156 C 0.02106 0.35752 0.25608 0.0
C157 C 0.01653 0.38032 0.24026 0.0
C158 C 0.9845 0.36121 0.19365 0.0
C159 C 0.0257 0.36018 0.19294 0.0
C160 C 0.03266 0.33718 0.17783 0.0
C161 C 0.99888 0.31533 0.16306 0.0
C162 C 0.95881 0.31847 0.16336 0.0
C163 C 0.95172 0.34109 0.17855 0.0
C164 C 0.98739 0.42663 0.21049 0.0
C165 C 0.954 0.4394 0.21227 0.0
C166 C 0.96621 0.48562 0.21245 0.0
C167 C 0.01243 0.52038 0.21109 0.0
C168 C 0.04591 0.50732 0.20921 0.0
C169 C 0.03349 0.461 0.20872 0.0
H170 H 0.71172 0.05986 0.55027 0.0
N171 N 0.63049 0.98029 0.54258 0.0
H172 H 0.76633 0.07421 0.57689 0.0
H173 H 0.61897 0.92651 0.57202 0.0
H174 H 0.6731 0.94083 0.599 0.0
H175 H 0.65589 0.92364 0.52848 0.0
H176 H 0.70572 0.9363 0.50188 0.0
H177 H 0.65732 0.0495 0.51619 0.0
H178 H 0.70447 0.0609 0.48901 0.0
H179 H 0.6445 0.06725 0.54768 0.0
H180 H 0.53997 0.92504 0.54078 0.0
H181 H 0.58583 0.0887 0.54938 0.0
H182 H 0.48042 0.94556 0.54397 0.0
H183 H 0.38647 0.14339 0.56706 0.0
H184 H 0.3363 0.13473 0.59321 0.0
H185 H 0.2955 0.9914 0.59637 0.0
H186 H 0.34589 1.00054 0.57007 0.0
H187 H 0.30967 0.00436 0.53907 0.0
H188 H 0.25974 0.99977 0.51243 0.0
H189 H 0.3675 0.12974 0.4925 0.0
H190 H 0.41613 0.13551 0.52035 0.0
H191 H 0.47504 0.11529 0.56801 0.0
H192 H 0.53162 0.09044 0.56779 0.0
H193 H 0.44112 0.97723 0.52944 0.0
N194 N 0.39409 0.078 0.54929 0.0
H195 H 0.38361 1.00023 0.53108 0.0
C196 C 0.66114 0.99195 0.5592 0.0
C197 C 0.70269 0.03401 0.561 0.0
C198 C 0.73392 0.04217 0.57626 0.0
C199 C 0.72428 0.00851 0.59002 0.0
C200 C 0.68198 0.96715 0.58849 0.0
C201 C 0.65081 0.95904 0.57322 0.0
C202 C 0.65267 0.98535 0.52459 0.0
C203 C 0.66578 0.95328 0.51969 0.0
C204 C 0.6942 0.96055 0.50436 0.0
C205 C 0.70977 0.99998 0.49328 0.0
C206 C 0.69427 0.03074 0.49747 0.0
C207 C 0.66655 0.02388 0.51305 0.0
C208 C 0.5966 0.99441 0.5437 0.0
C209 C 0.60882 0.04051 0.54659 0.0
C210 C 0.57492 0.05267 0.54786 0.0
C211 C 0.52789 0.01898 0.54688 0.0
C212 C 0.51599 0.97276 0.54437 0.0
C213 C 0.54998 0.9608 0.54267 0.0
C214 C 0.36992 0.07281 0.56664 0.0
C215 C 0.36747 0.11041 0.57372 0.0
C216 C 0.33879 0.10533 0.58866 0.0
C217 C 0.31169 0.06228 0.59681 0.0
C218 C 0.31555 0.02487 0.59023 0.0
C219 C 0.34458 0.03011 0.57533 0.0
C220 C 0.36649 0.07096 0.53198 0.0
C221 C 0.32265 0.03197 0.52904 0.0
C222 C 0.29417 0.02911 0.51352 0.0
C223 C 0.30913 0.06463 0.50026 0.0
C224 C 0.35415 0.10226 0.50263 0.0
C225 C 0.38231 0.10546 0.51841 0.0
C226 C 0.42532 0.06032 0.54941 0.0
C227 C 0.46733 0.0848 0.55975 0.0
C228 C 0.49991 0.07075 0.55938 0.0
C229 C 0.49169 0.03213 0.5483 0.0
C230 C 0.44888 0.00687 0.53831 0.0
C231 C 0.41585 0.02038 0.53905 0.0
H232 H 0.70443 0.73771 0.88416 0.0
N233 N 0.7005 0.65583 0.8763 0.0
H234 H 0.74901 0.79213 0.91002 0.0
H235 H 0.74633 0.64397 0.90535 0.0
H236 H 0.79112 0.69868 0.93161 0.0
H237 H 0.76983 0.65934 0.85779 0.0
H238 H 0.80708 0.70494 0.82996 0.0
H239 H 0.66825 0.70107 0.85415 0.0
H240 H 0.70678 0.74927 0.82714 0.0
H241 H 0.63357 0.66664 0.8937 0.0
H242 H 0.6562 0.57255 0.86007 0.0
H243 H 0.55344 0.60927 0.89588 0.0
H244 H 0.57459 0.51564 0.86088 0.0
H245 H 0.29126 0.41774 0.89803 0.0
H246 H 0.24978 0.37329 0.92546 0.0
H247 H 0.3543 0.33667 0.93596 0.0
H248 H 0.39486 0.38028 0.90833 0.0
H249 H 0.35194 0.33632 0.87745 0.0
H250 H 0.30691 0.28256 0.85151 0.0
H251 H 0.29029 0.38826 0.82403 0.0
H252 H 0.33238 0.44061 0.85103 0.0
H253 H 0.40202 0.51282 0.88308 0.0
H254 H 0.48283 0.57058 0.8804 0.0
H255 H 0.51736 0.46307 0.87949 0.0
N256 N 0.36469 0.42256 0.88292 0.0
H257 H 0.43598 0.4058 0.88053 0.0
C258 C 0.72239 0.68665 0.89265 0.0
C259 C 0.72306 0.72862 0.89438 0.0
C260 C 0.74865 0.75986 0.90921 0.0
C261 C 0.77393 0.74987 0.92272 0.0
C262 C 0.77178 0.70721 0.92145 0.0
C263 C 0.74634 0.676 0.90649 0.0
C264 C 0.71679 0.67726 0.85817 0.0
C265 C 0.75538 0.67809 0.85082 0.0
C266 C 0.77692 0.70469 0.83506 0.0
C267 C 0.76071 0.7318 0.82648 0.0
C268 C 0.72029 0.72882 0.83323 0.0
C269 C 0.69831 0.7015 0.84882 0.0
C270 C 0.65163 0.62386 0.87689 0.0
C271 C 0.62149 0.63385 0.88657 0.0
C272 C 0.57499 0.60079 0.88763 0.0
C273 C 0.55697 0.55731 0.87863 0.0
C274 C 0.58702 0.54808 0.86845 0.0
C275 C 0.63372 0.5808 0.86776 0.0
C276 C 0.34614 0.40261 0.90105 0.0
C277 C 0.30569 0.40095 0.90654 0.0
C278 C 0.28212 0.37557 0.92225 0.0
C279 C 0.29857 0.35114 0.93289 0.0
C280 C 0.34035 0.35456 0.92793 0.0
C281 C 0.36391 0.37999 0.91217 0.0
C282 C 0.34449 0.39226 0.8664 0.0
C283 C 0.3386 0.34795 0.86587 0.0
C284 C 0.31311 0.31724 0.85081 0.0
C285 C 0.29402 0.33053 0.83568 0.0
C286 C 0.30297 0.37607 0.83567 0.0
C287 C 0.32754 0.40635 0.85096 0.0
C288 C 0.41309 0.45526 0.88241 0.0
C289 C 0.42725 0.50197 0.88236 0.0
C290 C 0.47362 0.53493 0.88096 0.0
C291 C 0.50724 0.5219 0.87989 0.0
C292 C 0.49276 0.47473 0.88002 0.0
C293 C 0.44614 0.44174 0.88099 0.0
H294 H 0.9391 0.13031 0.06658 0.0
H295 H 0.06345 0.14158 0.0916 0.0
H296 H 0.94157 0.18325 0.09092 0.0
H297 H 0.06662 0.19582 0.11575 0.0
H298 H 0.0275 0.25307 0.16768 0.0
H299 H 0.02927 0.20163 0.14347 0.0
H300 H 0.98358 0.26237 0.10016 0.0
H301 H 0.98097 0.31309 0.12449 0.0
C302 C 0.96718 0.14426 0.07722 0.0
C303 C 1.00117 0.1317 0.07706 0.0
C304 C 0.96877 0.17498 0.09113 0.0
C305 C 0.00457 0.1943 0.10522 0.0
C306 C 0.03833 0.18135 0.10522 0.0
C307 C 0.03658 0.15031 0.09134 0.0
C308 C 0.01847 0.25584 0.15293 0.0
C309 C 1.00392 0.28701 0.148 0.0
C310 C 0.01949 0.22634 0.13904 0.0
C311 C 0.00619 0.22749 0.11985 0.0
C312 C 0.99305 0.25976 0.11486 0.0
C313 C 0.99173 0.289 0.12877 0.0
H314 H 0.97356 0.11474 0.4427 0.0
H315 H 0.88742 0.00688 0.40155 0.0
H316 H 0.90722 0.09646 0.46123 0.0
H317 H 0.82004 0.98978 0.41976 0.0
H318 H 0.71933 0.94016 0.46929 0.0
H319 H 0.78236 0.95753 0.44845 0.0
H320 H 0.84109 0.10197 0.46186 0.0
H321 H 0.7806 0.08443 0.48385 0.0
C322 C 0.94031 0.08739 0.43745 0.0
C323 C 0.93594 0.0623 0.42059 0.0
C324 C 0.90198 0.07711 0.44804 0.0
C325 C 0.85791 0.04189 0.44196 0.0
C326 C 0.85342 0.01681 0.42503 0.0
C327 C 0.89205 0.02675 0.41452 0.0
C328 C 0.74587 0.97562 0.46793 0.0
C329 C 0.74483 0.01073 0.47853 0.0
C330 C 0.78178 0.98567 0.45571 0.0
C331 C 0.81735 0.03117 0.45358 0.0
C332 C 0.81502 0.0664 0.46344 0.0
C333 C 0.7796 0.05633 0.47585 0.0
H334 H 0.96486 0.91969 0.74739 0.0
H335 H 0.87477 0.97325 0.75835 0.0
H336 H 0.91606 0.85211 0.76595 0.0
H337 H 0.82613 0.90571 0.77675 0.0
H338 H 0.72867 0.7585 0.79517 0.0
H339 H 0.77373 0.81891 0.77282 0.0
H340 H 0.89892 0.84133 0.80146 0.0
H341 H 0.85443 0.78261 0.82422 0.0
C342 C 0.93443 0.91685 0.75355 0.0
C343 C 0.92388 0.95203 0.75146 0.0
C344 C 0.90663 0.87825 0.76423 0.0
C345 C 0.86734 0.8737 0.77279 0.0
C346 C 0.85596 0.90809 0.77017 0.0
C347 C 0.88405 0.94694 0.75974 0.0
C348 C 0.76578 0.77635 0.79678 0.0
C349 C 0.78771 0.76548 0.81161 0.0
C350 C 0.79154 0.8108 0.78391 0.0
C351 C 0.8398 0.83473 0.7854 0.0
C352 C 0.86178 0.82299 0.79978 0.0
C353 C 0.83611 0.78906 0.8128 0.0
H354 H 0.98802 0.95864 0.10164 0.0
H355 H 0.11188 0.98156 0.07546 0.0
H356 H 0.99564 0.90958 0.12502 0.0
H357 H 0.11792 0.92945 0.09772 0.0
H358 H 0.13821 0.86032 0.14908 0.0
H359 H 0.13422 0.9141 0.12757 0.0
H360 H 0.98592 0.83882 0.12954 0.0
H361 H 0.99032 0.78861 0.15289 0.0
C362 C 0.01686 0.95293 0.1009 0.0
C363 C 0.04947 0.97396 0.08685 0.0
C364 C 0.02099 0.92422 0.11415 0.0
C365 C 0.05705 0.91453 0.11326 0.0
C366 C 0.09005 0.93634 0.09923 0.0
C367 C 0.08661 0.96619 0.08635 0.0
C368 C 0.1047 0.85563 0.1453 0.0
C369 C 0.06467 0.82002 0.15312 0.0
C370 C 0.10233 0.88623 0.13255 0.0
C371 C 0.05974 0.88148 0.12673 0.0
C372 C 0.01959 0.84477 0.13396 0.0
C373 C 0.02204 0.81497 0.14713 0.0
H374 H 0.16429 0.10393 0.40234 0.0
H375 H 0.05923 0.00744 0.43852 0.0
H376 H 0.22384 0.10787 0.4247 0.0
H377 H 0.11861 0.00993 0.46056 0.0
H378 H 0.2405 0.98947 0.48019 0.0
H379 H 0.1833 0.98738 0.45732 0.0
H380 H 0.24849 0.13464 0.46134 0.0
H381 H 0.30405 0.13714 0.48512 0.0
C382 C 0.15411 0.08431 0.41529 0.0
C383 C 0.10747 0.057 0.41925 0.0
C384 C 0.18803 0.08615 0.42793 0.0
C385 C 0.17569 0.05934 0.44435 0.0
C386 C 0.12894 0.0309 0.44797 0.0
C387 C 0.09509 0.02965 0.43548 0.0
C388 C 0.24251 0.0215 0.47645 0.0
C389 C 0.27696 0.06346 0.48477 0.0
C390 C 0.20982 0.0202 0.46325 0.0
C391 C 0.21141 0.06086 0.45771 0.0
C392 C 0.24666 0.10288 0.46535 0.0
C393 C 0.27877 0.10419 0.47887 0.0
H394 H 0.11315 0.18301 0.73643 0.0
H395 H 0.10264 0.07765 0.77404 0.0
H396 H 0.16798 0.24207 0.75922 0.0
H397 H 0.15834 0.13659 0.79674 0.0
H398 H 0.2979 0.25716 0.82009 0.0
H399 H 0.24355 0.19897 0.79713 0.0
H400 H 0.16671 0.26953 0.79324 0.0
H401 H 0.21874 0.326 0.81701 0.0
C402 C 0.122 0.17265 0.74978 0.0
C403 C 0.10241 0.12606 0.75396 0.0
C404 C 0.15362 0.20632 0.76271 0.0
C405 C 0.16722 0.19387 0.77978 0.0
C406 C 0.14854 0.14712 0.78367 0.0
C407 C 0.11655 0.11349 0.7708 0.0
C408 C 0.26909 0.26007 0.81461 0.0
C409 C 0.26294 0.29653 0.82059 0.0
C410 C 0.23807 0.22675 0.80137 0.0
C411 C 0.20071 0.22957 0.79352 0.0
C412 C 0.19519 0.26651 0.79904 0.0
C413 C 0.22552 0.29924 0.81255 0.0
H414 H 0.94071 0.00863 0.66226 0.0
H415 H 0.89586 0.08796 0.69451 0.0
H416 H 0.88618 0.99842 0.6362 0.0
H417 H 0.84099 0.07687 0.66873 0.0
H418 H 0.7796 0.08707 0.61129 0.0
H419 H 0.8372 0.09929 0.63622 0.0
H420 H 0.80373 0.95838 0.62916 0.0
H421 H 0.74749 0.94669 0.60372 0.0
C422 C 0.91925 0.02382 0.66384 0.0
C423 C 0.92276 0.04905 0.68055 0.0
C424 C 0.88779 0.01774 0.64893 0.0
C425 C 0.85916 0.0368 0.65037 0.0
C426 C 0.86291 0.06224 0.66701 0.0
C427 C 0.89426 0.06831 0.68189 0.0
C428 C 0.78482 0.05881 0.61494 0.0
C429 C 0.75879 0.01586 0.60553 0.0
C430 C 0.81753 0.06568 0.62936 0.0
C431 C 0.82506 0.02978 0.63473 0.0
C432 C 0.79917 0.9869 0.62526 0.0
C433 C 0.76645 0.98003 0.61085 0.0
H434 H 0.00557 0.97409 0.98502 0.0
H435 H 0.89594 0.92692 0.02459 0.0
H436 H 0.95374 0.91478 0.96158 0.0
H437 H 0.84379 0.86748 0.00123 0.0
H438 H 0.78295 0.73793 0.96105 0.0
H439 H 0.83411 0.79589 0.98505 0.0
H440 H 0.88388 0.89848 0.94154 0.0
H441 H 0.83325 0.84071 0.9176 0.0
C442 C 0.9702 0.95111 0.98856 0.0
C443 C 0.95399 0.95584 0.00617 0.0
C444 C 0.94058 0.91731 0.97522 0.0
C445 C 0.8946 0.88682 0.97952 0.0
C446 C 0.87903 0.89046 0.99753 0.0
C447 C 0.90857 0.9247 0.01077 0.0
C448 C 0.80492 0.77286 0.95665 0.0
C449 C 0.80406 0.78483 0.93747 0.0
C450 C 0.8339 0.80606 0.97039 0.0
C451 C 0.86301 0.85167 0.96514 0.0
C452 C 0.86209 0.86356 0.94597 0.0
C453 C 0.83281 0.83056 0.93231 0.0
H454 H 0.09653 0.99891 0.34108 0.0
H455 H 0.94872 0.92918 0.33365 0.0
H456 H 0.09918 0.94577 0.31844 0.0
H457 H 0.95138 0.87668 0.31005 0.0
H458 H 0.97172 0.76137 0.28446 0.0
H459 H 0.96493 0.81431 0.30646 0.0
H460 H 0.0915 0.92607 0.28606 0.0
H461 H 0.09898 0.87285 0.26494 0.0
C462 C 0.06454 0.9726 0.33434 0.0
C463 C 0.02241 0.9684 0.33912 0.0
C464 C 0.06606 0.94214 0.32121 0.0
C465 C 0.02553 0.90694 0.3122 0.0
C466 C 0.98327 0.90298 0.31684 0.0
C467 C 0.98172 0.93328 0.33024 0.0
C468 C 0.99797 0.7973 0.28479 0.0
C469 C 0.03626 0.81296 0.27328 0.0
C470 C 0.99399 0.82774 0.29727 0.0
C471 C 0.02792 0.87456 0.29825 0.0
C472 C 0.06534 0.89016 0.28617 0.0
C473 C 0.06964 0.85971 0.27399 0.0
H474 H 0.0845 0.9711 0.67515 0.0
H475 H 0.14162 0.11716 0.66988 0.0
H476 H 0.1415 0.97375 0.65358 0.0
H477 H 0.19776 0.11966 0.64805 0.0
H478 H 0.32342 0.1189 0.62734 0.0
H479 H 0.26566 0.11266 0.64924 0.0
H480 H 0.16468 0.98627 0.62056 0.0
H481 H 0.22266 0.99241 0.59874 0.0
C482 C 0.10886 0.00366 0.66921 0.0
C483 C 0.10863 0.04394 0.67428 0.0
C484 C 0.14148 0.00517 0.65682 0.0
C485 C 0.17455 0.047 0.64922 0.0
C486 C 0.17346 0.08702 0.65395 0.0
C487 C 0.14096 0.08552 0.66634 0.0
C488 C 0.28891 0.08974 0.62574 0.0
C489 C 0.27762 0.05626 0.61125 0.0
C490 C 0.25573 0.08623 0.63823 0.0
C491 C 0.21034 0.04922 0.63653 0.0
C492 C 0.19937 0.01502 0.62239 0.0
C493 C 0.23264 0.01848 0.6099 0.0
H494 H 0.0598 0.17921 0.99541 0.0
H495 H 0.15149 0.13146 0.01463 0.0
H496 H 0.12093 0.23873 0.9774 0.0
H497 H 0.21307 0.19178 0.99659 0.0
H498 H 0.28357 0.26508 0.94016 0.0
H499 H 0.23035 0.20998 0.96239 0.0
H500 H 0.19534 0.30994 0.98187 0.0
H501 H 0.24891 0.36532 0.95975 0.0
C502 C 0.09308 0.18151 0.99593 0.0
C503 C 0.10055 0.1503 0.00648 0.0
C504 C 0.1283 0.21599 0.98569 0.0
C505 C 0.17194 0.22014 0.98562 0.0
C506 C 0.17971 0.18927 0.99628 0.0
C507 C 0.14446 0.15484 0.00667 0.0
C508 C 0.26537 0.27575 0.94949 0.0
C509 C 0.27032 0.31959 0.94805 0.0
C510 C 0.23477 0.24407 0.96222 0.0
C511 C 0.20828 0.25542 0.97376 0.0
C512 C 0.21465 0.29988 0.97291 0.0
C513 C 0.24533 0.33159 0.96023 0.0
H514 H 0.08213 0.22466 0.35928 0.0
H515 H 0.96776 0.09923 0.33532 0.0
H516 H 0.07037 0.26804 0.33418 0.0
H517 H 0.9559 0.14304 0.31025 0.0
H518 H 0.92161 0.24973 0.28354 0.0
H519 H 0.93234 0.20523 0.30848 0.0
H520 H 0.07709 0.27262 0.29769 0.0
H521 H 0.06643 0.31576 0.27225 0.0
C522 C 0.05439 0.20631 0.3487 0.0
C523 C 0.02587 0.15842 0.34932 0.0
C524 C 0.04785 0.2312 0.33428 0.0
C525 C 0.01223 0.2089 0.3203 0.0
C526 C 0.98343 0.16111 0.32095 0.0
C527 C 0.99041 0.13604 0.33522 0.0
C528 C 0.95568 0.25478 0.28628 0.0
C529 C 0.99314 0.28657 0.2758 0.0
C530 C 0.96177 0.22932 0.30062 0.0
C531 C 0.00553 0.23553 0.30501 0.0
C532 C 0.04305 0.26754 0.29475 0.0
C533 C 0.0369 0.2925 0.28024 0.0
loop_
_geom_bond_atom_site_label_1
_geom_bond_atom_site_label_2
_geom_bond_distance
_geom_bond_site_symmetry_2
_ccdc_geom_bond_type
Mn0 O5 2.095 . S
Mn0 O15 2.142 1_545 S
Mn0 O16 2.297 1_545 S
Mn0 O24 2.385 1_545 S
Mn0 O25 2.209 1_455 S
Mn0 O26 2.094 . S
Mn1 O6 2.121 . S
Mn1 N8 2.257 . S
Mn1 N17 2.282 1_554 S
Mn1 O25 2.215 . S
Mn1 O27 2.117 1_655 S
C2 O24 1.234 1_655 S
C2 O25 1.283 1_565 S
C3 O15 1.286 . S
C3 O16 1.236 . S
C4 O26 1.240 . S
C4 O27 1.264 . S
O5 Mn0 2.095 . S
O5 C14 1.250 . S
O6 Mn1 2.121 . S
O6 C14 1.258 1_655 S
C7 N8 1.326 . S
C7 C11 1.460 . S
C7 H13 0.929 . S
N8 Mn1 2.257 . S
N8 C7 1.326 . S
N8 C12 1.362 . S
C9 C10 1.258 1_556 S
C9 C12 1.431 1_556 S
C9 C29 1.449 . S
C10 C9 1.258 1_554 S
C10 C11 1.477 . S
C10 H30 0.931 . S
C11 C7 1.460 . S
C11 C10 1.477 . S
C11 H31 0.930 . S
C12 N8 1.362 . S
C12 C9 1.431 1_554 S
C12 C22 1.476 1_554 S
H13 C7 0.929 . S
C14 O5 1.250 . S
C14 O6 1.258 1_455 S
O15 Mn0 2.142 1_565 S
O15 C3 1.286 . S
O16 Mn0 2.297 1_565 S
O16 C3 1.236 . S
N17 Mn1 2.282 1_556 S
N17 C18 1.328 . S
N17 C22 1.318 . S
C18 N17 1.328 . S
C18 C19 1.457 . S
C18 H23 0.929 1_655 S
C19 C18 1.457 . S
C19 C20 1.291 . S
C19 H32 0.931 . S
C20 C19 1.291 . S
C20 C21 1.373 . S
C20 H33 0.929 . S
C21 C20 1.373 . S
C21 C22 1.396 . S
C21 C28 1.403 . S
C22 C12 1.476 1_556 S
C22 N17 1.318 . S
C22 C21 1.396 . S
H23 C18 0.929 1_455 S
O24 Mn0 2.385 1_565 S
O24 C2 1.234 1_455 S
O25 Mn0 2.209 1_655 S
O25 Mn1 2.215 . S
O25 C2 1.283 1_545 S
O26 Mn0 2.094 . S
O26 C4 1.240 . S
O27 Mn1 2.117 1_455 S
O27 C4 1.264 . S
C28 C21 1.403 . S
C28 C29 1.399 . S
C28 H34 0.926 1_545 S
C29 C9 1.449 . S
C29 C28 1.399 . S
C29 H35 0.930 . S
H30 C10 0.931 . S
H31 C11 0.930 . S
H32 C19 0.931 . S
H33 C20 0.929 . S
H34 C28 0.926 1_565 S
H35 C29 0.930 . S
Mn36 O41 2.095 . S
Mn36 O51 2.162 1_545 S
Mn36 O52 2.297 1_645 S
Mn36 O60 2.385 1_645 S
Mn36 O61 2.209 1_655 S
Mn36 O62 2.101 1_545 S
Mn37 O42 2.121 . S
Mn37 N44 2.257 . S
Mn37 N53 2.282 . S
Mn37 O61 2.215 . S
Mn37 O63 2.117 1_455 S
C38 O60 1.234 1_545 S
C38 O61 1.283 . S
C39 O51 1.281 1_455 S
C39 O52 1.236 . S
C40 O62 1.219 1_545 S
C40 O63 1.264 . S
O41 Mn36 2.095 . S
O41 C50 1.250 1_655 S
O42 Mn37 2.121 . S
O42 C50 1.258 . S
C43 N44 1.326 . S
C43 C47 1.460 . S
C43 H49 0.929 . S
N44 Mn37 2.257 . S
N44 C43 1.326 . S
N44 C48 1.362 . S
C45 C46 1.258 . S
C45 C48 1.431 . S
C45 C65 1.449 . S
C46 C45 1.258 . S
C46 C47 1.477 . S
C46 H66 0.931 . S
C47 C43 1.460 . S
C47 C46 1.477 . S
C47 H67 0.930 . S
C48 N44 1.362 . S
C48 C45 1.431 . S
C48 C58 1.476 . S
H49 C43 0.929 . S
C50 O41 1.250 1_455 S
C50 O42 1.258 . S
O51 Mn36 2.162 1_565 S
O51 C39 1.281 1_655 S
O52 Mn36 2.297 1_465 S
O52 C39 1.236 . S
N53 Mn37 2.282 . S
N53 C54 1.328 . S
N53 C58 1.318 . S
C54 N53 1.328 . S
C54 C55 1.457 . S
C54 H59 0.929 . S
C55 C54 1.457 . S
C55 C56 1.291 . S
C55 H68 0.931 . S
C56 C55 1.291 . S
C56 C57 1.373 . S
C56 H69 0.929 . S
C57 C56 1.373 . S
C57 C58 1.396 . S
C57 C64 1.403 . S
C58 C48 1.476 . S
C58 N53 1.318 . S
C58 C57 1.396 . S
H59 C54 0.929 . S
O60 Mn36 2.385 1_465 S
O60 C38 1.234 1_565 S
O61 Mn36 2.209 1_455 S
O61 Mn37 2.215 . S
O61 C38 1.283 . S
O62 Mn36 2.101 1_565 S
O62 C40 1.219 1_565 S
O63 Mn37 2.117 1_655 S
O63 C40 1.264 . S
C64 C57 1.403 . S
C64 C65 1.399 . S
C64 H70 0.929 . S
C65 C45 1.449 . S
C65 C64 1.399 . S
C65 H71 0.930 . S
H66 C46 0.931 . S
H67 C47 0.930 . S
H68 C55 0.931 . S
H69 C56 0.929 . S
H70 C64 0.929 . S
H71 C65 0.930 . S
Mn72 O77 2.095 1_455 S
Mn72 O87 2.162 1_545 S
Mn72 O88 2.297 . S
Mn72 O96 2.385 . S
Mn72 O97 2.209 . S
Mn72 O98 2.094 1_445 S
Mn73 O78 2.121 . S
Mn73 N80 2.257 . S
Mn73 N89 2.284 . S
Mn73 O97 2.215 1_655 S
Mn73 O99 2.117 . S
C74 O96 1.234 . S
C74 O97 1.283 . S
C75 O87 1.281 1_545 S
C75 O88 1.236 . S
C76 O98 1.240 . S
C76 O99 1.264 1_565 S
O77 Mn72 2.095 1_655 S
O77 C86 1.250 . S
O78 Mn73 2.121 . S
O78 C86 1.258 . S
C79 N80 1.326 . S
C79 C83 1.452 . S
C79 H85 0.929 . S
N80 Mn73 2.257 . S
N80 C79 1.326 . S
N80 C84 1.362 1_655 S
C81 C82 1.258 . S
C81 C84 1.431 . S
C81 C101 1.449 . S
C82 C81 1.258 . S
C82 C83 1.474 1_455 S
C82 H102 0.931 . S
C83 C79 1.452 . S
C83 C82 1.474 1_655 S
C83 H103 0.941 . S
C84 N80 1.362 1_455 S
C84 C81 1.431 . S
C84 C94 1.476 . S
H85 C79 0.929 . S
C86 O77 1.250 . S
C86 O78 1.258 . S
O87 Mn72 2.162 1_565 S
O87 C75 1.281 1_565 S
O88 Mn72 2.297 . S
O88 C75 1.236 . S
N89 Mn73 2.284 . S
N89 C90 1.323 1_655 S
N89 C94 1.320 1_655 S
C90 N89 1.323 1_455 S
C90 C91 1.457 . S
C90 H95 0.929 1_455 S
C91 C90 1.457 . S
C91 C92 1.291 . S
C91 H104 0.931 . S
C92 C91 1.291 . S
C92 C93 1.373 . S
C92 H105 0.929 . S
C93 C92 1.373 . S
C93 C94 1.396 . S
C93 C100 1.403 . S
C94 C84 1.476 . S
C94 N89 1.320 1_455 S
C94 C93 1.396 . S
H95 C90 0.929 1_655 S
O96 Mn72 2.385 . S
O96 C74 1.234 . S
O97 Mn72 2.209 . S
O97 Mn73 2.215 1_455 S
O97 C74 1.283 . S
O98 Mn72 2.094 1_665 S
O98 C76 1.240 . S
O99 Mn73 2.117 . S
O99 C76 1.264 1_545 S
C100 C93 1.403 . S
C100 C101 1.399 . S
C100 H106 0.929 . S
C101 C81 1.449 . S
C101 C100 1.399 . S
C101 H107 0.930 . S
H102 C82 0.931 . S
H103 C83 0.941 . S
H104 C91 0.931 . S
H105 C92 0.929 . S
H106 C100 0.929 . S
H107 C101 0.930 . S
H108 C135 0.929 . S
N109 C134 1.433 . S
N109 C140 1.435 . S
N109 C146 1.423 1_455 S
H110 C136 0.930 . S
H111 C139 0.931 . S
H112 C138 0.929 . S
H113 C141 0.930 . S
H114 C142 0.932 . S
H115 C145 0.929 . S
H116 C144 0.931 . S
H117 C147 0.929 . S
H118 C151 0.932 . S
H119 C148 0.931 . S
H120 C150 0.929 . S
H121 C153 0.929 . S
H122 C154 0.930 . S
H123 C156 0.929 . S
H124 C157 0.931 . S
H125 C159 0.930 . S
H126 C160 0.932 . S
H127 C162 0.931 . S
H128 C163 0.929 . S
H129 C165 0.929 . S
H130 C166 0.931 . S
H131 C168 0.929 . S
N132 C152 1.433 . S
N132 C158 1.434 . S
N132 C164 1.424 1_455 S
H133 C169 0.932 . S
C134 N109 1.433 . S
C134 C135 1.363 1_455 S
C134 C139 1.370 . S
C135 H108 0.929 . S
C135 C134 1.363 1_655 S
C135 C136 1.385 . S
C136 H110 0.930 . S
C136 C135 1.385 . S
C136 C137 1.357 1_655 S
C137 C136 1.357 1_455 S
C137 C138 1.406 . S
C138 H112 0.929 . S
C138 C137 1.406 . S
C138 C139 1.391 . S
C139 H111 0.931 . S
C139 C134 1.370 . S
C139 C138 1.391 . S
C140 N109 1.435 . S
C140 C141 1.358 . S
C140 C145 1.371 1_455 S
C141 H113 0.930 . S
C141 C140 1.358 . S
C141 C142 1.405 . S
C142 H114 0.932 . S
C142 C141 1.405 . S
C142 C143 1.383 . S
C143 C142 1.383 . S
C143 C144 1.393 1_455 S
C144 H116 0.931 . S
C144 C143 1.393 1_655 S
C144 C145 1.382 . S
C145 H115 0.929 . S
C145 C140 1.371 1_655 S
C145 C144 1.382 . S
C146 N109 1.423 1_655 S
C146 C147 1.362 . S
C146 C151 1.388 1_655 S
C147 H117 0.929 . S
C147 C146 1.362 . S
C147 C148 1.376 . S
C148 H119 0.931 . S
C148 C147 1.376 . S
C148 C149 1.396 . S
C149 C148 1.396 . S
C149 C150 1.348 1_655 S
C149 C167 1.472 . S
C150 H120 0.929 . S
C150 C149 1.348 1_455 S
C150 C151 1.443 . S
C151 H118 0.932 . S
C151 C146 1.388 1_455 S
C151 C150 1.443 . S
C152 N132 1.433 . S
C152 C153 1.363 1_455 S
C152 C157 1.370 . S
C153 H121 0.929 . S
C153 C152 1.363 1_655 S
C153 C154 1.385 . S
C154 H122 0.930 . S
C154 C153 1.385 . S
C154 C155 1.357 1_655 S
C155 C154 1.357 1_455 S
C155 C156 1.406 . S
C156 H123 0.929 . S
C156 C155 1.406 . S
C156 C157 1.391 . S
C157 H124 0.931 . S
C157 C152 1.370 . S
C157 C156 1.391 . S
C158 N132 1.434 . S
C158 C159 1.358 . S
C158 C163 1.371 1_455 S
C159 H125 0.930 . S
C159 C158 1.358 . S
C159 C160 1.405 . S
C160 H126 0.932 . S
C160 C159 1.405 . S
C160 C161 1.383 . S
C161 C160 1.383 . S
C161 C162 1.393 1_455 S
C162 H127 0.931 . S
C162 C161 1.393 1_655 S
C162 C163 1.382 . S
C163 H128 0.929 . S
C163 C158 1.371 1_655 S
C163 C162 1.382 . S
C164 N132 1.424 1_655 S
C164 C165 1.362 . S
C164 C169 1.388 1_655 S
C165 H129 0.929 . S
C165 C164 1.362 . S
C165 C166 1.376 . S
C166 H130 0.931 . S
C166 C165 1.376 . S
C166 C167 1.396 . S
C167 C149 1.472 . S
C167 C166 1.396 . S
C167 C168 1.348 1_655 S
C168 H131 0.929 . S
C168 C167 1.348 1_455 S
C168 C169 1.443 . S
C169 H133 0.932 . S
C169 C164 1.388 1_455 S
C169 C168 1.443 . S
H170 C197 0.929 . S
N171 C196 1.433 . S
N171 C202 1.435 . S
N171 C208 1.423 . S
H172 C198 0.930 . S
H173 C201 0.931 . S
H174 C200 0.929 . S
H175 C203 0.930 . S
H176 C204 0.932 . S
H177 C207 0.929 . S
H178 C206 0.931 . S
H179 C209 0.929 . S
H180 C213 0.932 . S
H181 C210 0.931 . S
H182 C212 0.929 . S
H183 C215 0.929 . S
H184 C216 0.930 . S
H185 C218 0.929 . S
H186 C219 0.931 . S
H187 C221 0.930 . S
H188 C222 0.932 . S
H189 C224 0.931 . S
H190 C225 0.929 . S
H191 C227 0.929 . S
H192 C228 0.931 . S
H193 C230 0.929 . S
N194 C214 1.433 . S
N194 C220 1.435 . S
N194 C226 1.423 . S
H195 C231 0.932 . S
C196 N171 1.433 . S
C196 C197 1.363 . S
C196 C201 1.370 . S
C197 H170 0.929 . S
C197 C196 1.363 . S
C197 C198 1.385 . S
C198 H172 0.930 . S
C198 C197 1.385 . S
C198 C199 1.357 . S
C199 C198 1.357 . S
C199 C200 1.406 . S
C200 H174 0.929 . S
C200 C199 1.406 . S
C200 C201 1.391 . S
C201 H173 0.931 . S
C201 C196 1.370 . S
C201 C200 1.391 . S
C202 N171 1.435 . S
C202 C203 1.358 . S
C202 C207 1.371 . S
C203 H175 0.930 . S
C203 C202 1.358 . S
C203 C204 1.405 . S
C204 H176 0.932 . S
C204 C203 1.405 . S
C204 C205 1.383 . S
C205 C204 1.383 . S
C205 C206 1.393 . S
C206 H178 0.931 . S
C206 C205 1.393 . S
C206 C207 1.382 . S
C207 H177 0.929 . S
C207 C202 1.371 . S
C207 C206 1.382 . S
C208 N171 1.423 . S
C208 C209 1.362 . S
C208 C213 1.388 . S
C209 H179 0.929 . S
C209 C208 1.362 . S
C209 C210 1.376 . S
C210 H181 0.931 . S
C210 C209 1.376 . S
C210 C211 1.396 . S
C211 C210 1.396 . S
C211 C212 1.348 . S
C211 C229 1.472 . S
C212 H182 0.929 . S
C212 C211 1.348 . S
C212 C213 1.443 . S
C213 H180 0.932 . S
C213 C208 1.388 . S
C213 C212 1.443 . S
C214 N194 1.433 . S
C214 C215 1.363 . S
C214 C219 1.370 . S
C215 H183 0.929 . S
C215 C214 1.363 . S
C215 C216 1.385 . S
C216 H184 0.930 . S
C216 C215 1.385 . S
C216 C217 1.357 . S
C217 C216 1.357 . S
C217 C218 1.406 . S
C218 H185 0.929 . S
C218 C217 1.406 . S
C218 C219 1.391 . S
C219 H186 0.931 . S
C219 C214 1.370 . S
C219 C218 1.391 . S
C220 N194 1.435 . S
C220 C221 1.358 . S
C220 C225 1.371 . S
C221 H187 0.930 . S
C221 C220 1.358 . S
C221 C222 1.405 . S
C222 H188 0.932 . S
C222 C221 1.405 . S
C222 C223 1.383 . S
C223 C222 1.383 . S
C223 C224 1.393 . S
C224 H189 0.931 . S
C224 C223 1.393 . S
C224 C225 1.382 . S
C225 H190 0.929 . S
C225 C220 1.371 . S
C225 C224 1.382 . S
C226 N194 1.423 . S
C226 C227 1.362 . S
C226 C231 1.388 . S
C227 H191 0.929 . S
C227 C226 1.362 . S
C227 C228 1.376 . S
C228 H192 0.931 . S
C228 C227 1.376 . S
C228 C229 1.396 . S
C229 C211 1.472 . S
C229 C228 1.396 . S
C229 C230 1.348 . S
C230 H193 0.929 . S
C230 C229 1.348 . S
C230 C231 1.443 . S
C231 H195 0.932 . S
C231 C226 1.388 . S
C231 C230 1.443 . S
H232 C259 0.929 . S
N233 C258 1.433 . S
N233 C264 1.435 . S
N233 C270 1.423 . S
H234 C260 0.930 . S
H235 C263 0.931 . S
H236 C262 0.929 . S
H237 C265 0.930 . S
H238 C266 0.932 . S
H239 C269 0.929 . S
H240 C268 0.931 . S
H241 C271 0.929 . S
H242 C275 0.932 . S
H243 C272 0.931 . S
H244 C274 0.929 . S
H245 C277 0.929 . S
H246 C278 0.930 . S
H247 C280 0.929 . S
H248 C281 0.931 . S
H249 C283 0.930 . S
H250 C284 0.932 . S
H251 C286 0.931 . S
H252 C287 0.929 . S
H253 C289 0.929 . S
H254 C290 0.931 . S
H255 C292 0.929 . S
N256 C276 1.433 . S
N256 C282 1.435 . S
N256 C288 1.423 . S
H257 C293 0.932 . S
C258 N233 1.433 . S
C258 C259 1.363 . S
C258 C263 1.370 . S
C259 H232 0.929 . S
C259 C258 1.363 . S
C259 C260 1.385 . S
C260 H234 0.930 . S
C260 C259 1.385 . S
C260 C261 1.357 . S
C261 C260 1.357 . S
C261 C262 1.406 . S
C262 H236 0.929 . S
C262 C261 1.406 . S
C262 C263 1.391 . S
C263 H235 0.931 . S
C263 C258 1.370 . S
C263 C262 1.391 . S
C264 N233 1.435 . S
C264 C265 1.358 . S
C264 C269 1.371 . S
C265 H237 0.930 . S
C265 C264 1.358 . S
C265 C266 1.405 . S
C266 H238 0.932 . S
C266 C265 1.405 . S
C266 C267 1.383 . S
C267 C266 1.383 . S
C267 C268 1.393 . S
C268 H240 0.931 . S
C268 C267 1.393 . S
C268 C269 1.382 . S
C269 H239 0.929 . S
C269 C264 1.371 . S
C269 C268 1.382 . S
C270 N233 1.423 . S
C270 C271 1.362 . S
C270 C275 1.388 . S
C271 H241 0.929 . S
C271 C270 1.362 . S
C271 C272 1.376 . S
C272 H243 0.931 . S
C272 C271 1.376 . S
C272 C273 1.396 . S
C273 C272 1.396 . S
C273 C274 1.348 . S
C273 C291 1.472 . S
C274 H244 0.929 . S
C274 C273 1.348 . S
C274 C275 1.443 . S
C275 H242 0.932 . S
C275 C270 1.388 . S
C275 C274 1.443 . S
C276 N256 1.433 . S
C276 C277 1.363 . S
C276 C281 1.370 . S
C277 H245 0.929 . S
C277 C276 1.363 . S
C277 C278 1.385 . S
C278 H246 0.930 . S
C278 C277 1.385 . S
C278 C279 1.357 . S
C279 C278 1.357 . S
C279 C280 1.406 . S
C280 H247 0.929 . S
C280 C279 1.406 . S
C280 C281 1.391 . S
C281 H248 0.931 . S
C281 C276 1.370 . S
C281 C280 1.391 . S
C282 N256 1.435 . S
C282 C283 1.358 . S
C282 C287 1.371 . S
C283 H249 0.930 . S
C283 C282 1.358 . S
C283 C284 1.405 . S
C284 H250 0.932 . S
C284 C283 1.405 . S
C284 C285 1.383 . S
C285 C284 1.383 . S
C285 C286 1.393 . S
C286 H251 0.931 . S
C286 C285 1.393 . S
C286 C287 1.382 . S
C287 H252 0.929 . S
C287 C282 1.371 . S
C287 C286 1.382 . S
C288 N256 1.423 . S
C288 C289 1.362 . S
C288 C293 1.388 . S
C289 H253 0.929 . S
C289 C288 1.362 . S
C289 C290 1.376 . S
C290 H254 0.931 . S
C290 C289 1.376 . S
C290 C291 1.396 . S
C291 C273 1.472 . S
C291 C290 1.396 . S
C291 C292 1.348 . S
C292 H255 0.929 . S
C292 C291 1.348 . S
C292 C293 1.443 . S
C293 H257 0.932 . S
C293 C288 1.388 . S
C293 C292 1.443 . S
H294 C302 0.950 1_655 S
H295 C307 0.950 . S
H296 C304 0.962 . S
H297 C306 0.950 . S
H298 C308 0.950 . S
H299 C310 0.950 . S
H300 C312 0.950 . S
H301 C313 0.950 . S
C302 H294 0.950 1_455 S
C302 C303 1.386 . S
C302 C304 1.391 . S
C303 C302 1.386 . S
C303 C307 1.393 . S
C304 H296 0.962 . S
C304 C302 1.391 . S
C304 C305 1.400 . S
C305 C304 1.400 . S
C305 C306 1.398 . S
C305 C311 1.491 . S
C306 H297 0.950 . S
C306 C305 1.398 . S
C306 C307 1.391 . S
C307 H295 0.950 . S
C307 C303 1.393 . S
C307 C306 1.391 . S
C308 H298 0.950 . S
C308 C309 1.386 . S
C308 C310 1.391 . S
C309 C308 1.386 . S
C309 C313 1.393 . S
C310 H299 0.950 . S
C310 C308 1.391 . S
C310 C311 1.400 . S
C311 C305 1.491 . S
C311 C310 1.400 . S
C311 C312 1.398 . S
C312 H300 0.950 . S
C312 C311 1.398 . S
C312 C313 1.391 . S
C313 H301 0.950 . S
C313 C309 1.393 . S
C313 C312 1.391 . S
H314 C322 0.950 . S
H315 C327 0.950 . S
H316 C324 0.950 . S
H317 C326 0.950 . S
H318 C328 0.950 . S
H319 C330 0.950 . S
H320 C332 0.950 . S
H321 C333 0.950 . S
C322 H314 0.950 . S
C322 C323 1.386 . S
C322 C324 1.391 . S
C323 C322 1.386 . S
C323 C327 1.393 . S
C324 H316 0.950 . S
C324 C322 1.391 . S
C324 C325 1.400 . S
C325 C324 1.400 . S
C325 C326 1.398 . S
C325 C331 1.491 . S
C326 H317 0.950 . S
C326 C325 1.398 . S
C326 C327 1.391 . S
C327 H315 0.950 . S
C327 C323 1.393 . S
C327 C326 1.391 . S
C328 H318 0.950 . S
C328 C329 1.386 . S
C328 C330 1.391 . S
C329 C328 1.386 . S
C329 C333 1.393 . S
C330 H319 0.950 . S
C330 C328 1.391 . S
C330 C331 1.400 . S
C331 C325 1.491 . S
C331 C330 1.400 . S
C331 C332 1.398 . S
C332 H320 0.950 . S
C332 C331 1.398 . S
C332 C333 1.391 . S
C333 H321 0.950 . S
C333 C329 1.393 . S
C333 C332 1.391 . S
H334 C342 0.950 . S
H335 C347 0.950 . S
H336 C344 0.950 . S
H337 C346 0.950 . S
H338 C348 0.950 . S
H339 C350 0.950 . S
H340 C352 0.950 . S
H341 C353 0.950 . S
C342 H334 0.950 . S
C342 C343 1.386 . S
C342 C344 1.391 . S
C343 C342 1.386 . S
C343 C347 1.393 . S
C344 H336 0.950 . S
C344 C342 1.391 . S
C344 C345 1.400 . S
C345 C344 1.400 . S
C345 C346 1.398 . S
C345 C351 1.491 . S
C346 H337 0.950 . S
C346 C345 1.398 . S
C346 C347 1.391 . S
C347 H335 0.950 . S
C347 C343 1.393 . S
C347 C346 1.391 . S
C348 H338 0.950 . S
C348 C349 1.386 . S
C348 C350 1.391 . S
C349 C348 1.386 . S
C349 C353 1.393 . S
C350 H339 0.950 . S
C350 C348 1.391 . S
C350 C351 1.400 . S
C351 C345 1.491 . S
C351 C350 1.400 . S
C351 C352 1.398 . S
C352 H340 0.950 . S
C352 C351 1.398 . S
C352 C353 1.391 . S
C353 H341 0.950 . S
C353 C349 1.393 . S
C353 C352 1.391 . S
H354 C362 0.975 . S
H355 C367 0.950 . S
H356 C364 0.950 . S
H357 C366 0.950 . S
H358 C368 0.950 . S
H359 C370 0.950 . S
H360 C372 0.950 . S
H361 C373 0.950 . S
C362 H354 0.975 . S
C362 C363 1.369 1_655 S
C362 C364 1.383 . S
C363 C362 1.369 1_455 S
C363 C367 1.393 . S
C364 H356 0.950 . S
C364 C362 1.383 . S
C364 C365 1.400 1_655 S
C365 C364 1.400 1_455 S
C365 C366 1.398 . S
C365 C371 1.491 . S
C366 H357 0.950 . S
C366 C365 1.398 . S
C366 C367 1.391 . S
C367 H355 0.950 . S
C367 C363 1.393 . S
C367 C366 1.391 . S
C368 H358 0.950 . S
C368 C369 1.386 . S
C368 C370 1.391 . S
C369 C368 1.386 . S
C369 C373 1.393 1_455 S
C370 H359 0.950 . S
C370 C368 1.391 . S
C370 C371 1.400 . S
C371 C365 1.491 . S
C371 C370 1.400 . S
C371 C372 1.398 1_455 S
C372 H360 0.950 . S
C372 C371 1.398 1_655 S
C372 C373 1.391 . S
C373 H361 0.950 . S
C373 C369 1.393 1_655 S
C373 C372 1.391 . S
H374 C382 0.950 . S
H375 C387 0.950 1_565 S
H376 C384 0.950 . S
H377 C386 0.950 1_565 S
H378 C388 0.950 1_565 S
H379 C390 0.950 1_565 S
H380 C392 0.950 . S
H381 C393 0.950 . S
C382 H374 0.950 . S
C382 C383 1.386 . S
C382 C384 1.391 . S
C383 C382 1.386 . S
C383 C387 1.393 . S
C384 H376 0.950 . S
C384 C382 1.391 . S
C384 C385 1.400 . S
C385 C384 1.400 . S
C385 C386 1.398 . S
C385 C391 1.491 . S
C386 H377 0.950 1_545 S
C386 C385 1.398 . S
C386 C387 1.391 . S
C387 H375 0.950 1_545 S
C387 C383 1.393 . S
C387 C386 1.391 . S
C388 H378 0.950 1_545 S
C388 C389 1.386 . S
C388 C390 1.391 . S
C389 C388 1.386 . S
C389 C393 1.393 . S
C390 H379 0.950 1_545 S
C390 C388 1.391 . S
C390 C391 1.400 . S
C391 C385 1.491 . S
C391 C390 1.400 . S
C391 C392 1.398 . S
C392 H380 0.950 . S
C392 C391 1.398 . S
C392 C393 1.391 . S
C393 H381 0.950 . S
C393 C389 1.393 . S
C393 C392 1.391 . S
H394 C402 0.950 . S
H395 C407 0.950 . S
H396 C404 0.950 . S
H397 C406 0.950 . S
H398 C408 0.950 . S
H399 C410 0.950 . S
H400 C412 0.950 . S
H401 C413 0.950 . S
C402 H394 0.950 . S
C402 C403 1.386 . S
C402 C404 1.391 . S
C403 C402 1.386 . S
C403 C407 1.393 . S
C404 H396 0.950 . S
C404 C402 1.391 . S
C404 C405 1.400 . S
C405 C404 1.400 . S
C405 C406 1.398 . S
C405 C411 1.491 . S
C406 H397 0.950 . S
C406 C405 1.398 . S
C406 C407 1.391 . S
C407 H395 0.950 . S
C407 C403 1.393 . S
C407 C406 1.391 . S
C408 H398 0.950 . S
C408 C409 1.386 . S
C408 C410 1.391 . S
C409 C408 1.386 . S
C409 C413 1.393 . S
C410 H399 0.950 . S
C410 C408 1.391 . S
C410 C411 1.400 . S
C411 C405 1.491 . S
C411 C410 1.400 . S
C411 C412 1.398 . S
C412 H400 0.950 . S
C412 C411 1.398 . S
C412 C413 1.391 . S
C413 H401 0.950 . S
C413 C409 1.393 . S
C413 C412 1.391 . S
H414 C422 0.950 . S
H415 C427 0.950 . S
H416 C424 0.950 . S
H417 C426 0.950 . S
H418 C428 0.950 . S
H419 C430 0.950 . S
H420 C432 0.950 . S
H421 C433 0.950 . S
C422 H414 0.950 . S
C422 C423 1.386 . S
C422 C424 1.391 . S
C423 C422 1.386 . S
C423 C427 1.393 . S
C424 H416 0.950 . S
C424 C422 1.391 . S
C424 C425 1.400 . S
C425 C424 1.400 . S
C425 C426 1.398 . S
C425 C431 1.491 . S
C426 H417 0.950 . S
C426 C425 1.398 . S
C426 C427 1.391 . S
C427 H415 0.950 . S
C427 C423 1.393 . S
C427 C426 1.391 . S
C428 H418 0.950 . S
C428 C429 1.386 . S
C428 C430 1.391 . S
C429 C428 1.386 . S
C429 C433 1.393 . S
C430 H419 0.950 . S
C430 C428 1.391 . S
C430 C431 1.400 . S
C431 C425 1.491 . S
C431 C430 1.400 . S
C431 C432 1.398 . S
C432 H420 0.950 . S
C432 C431 1.398 . S
C432 C433 1.391 . S
C433 H421 0.950 . S
C433 C429 1.393 . S
C433 C432 1.391 . S
H434 C442 0.950 . S
H435 C447 0.950 . S
H436 C444 0.950 . S
H437 C446 0.950 . S
H438 C448 0.950 . S
H439 C450 0.950 . S
H440 C452 0.950 . S
H441 C453 0.950 . S
C442 H434 0.950 . S
C442 C443 1.386 1_556 S
C442 C444 1.391 . S
C443 C442 1.386 1_554 S
C443 C447 1.393 . S
C444 H436 0.950 . S
C444 C442 1.391 . S
C444 C445 1.400 . S
C445 C444 1.400 . S
C445 C446 1.398 1_556 S
C445 C451 1.491 . S
C446 H437 0.950 . S
C446 C445 1.398 1_554 S
C446 C447 1.391 . S
C447 H435 0.950 . S
C447 C443 1.393 . S
C447 C446 1.391 . S
C448 H438 0.950 . S
C448 C449 1.386 . S
C448 C450 1.391 . S
C449 C448 1.386 . S
C449 C453 1.393 . S
C450 H439 0.950 . S
C450 C448 1.391 . S
C450 C451 1.400 . S
C451 C445 1.491 . S
C451 C450 1.400 . S
C451 C452 1.398 . S
C452 H440 0.950 . S
C452 C451 1.398 . S
C452 C453 1.391 . S
C453 H441 0.950 . S
C453 C449 1.393 . S
C453 C452 1.391 . S
H454 C462 0.950 . S
H455 C467 0.950 . S
H456 C464 0.950 . S
H457 C466 0.950 . S
H458 C468 0.950 . S
H459 C470 0.950 . S
H460 C472 0.950 . S
H461 C473 0.950 . S
C462 H454 0.950 . S
C462 C463 1.386 . S
C462 C464 1.391 . S
C463 C462 1.386 . S
C463 C467 1.393 1_455 S
C464 H456 0.950 . S
C464 C462 1.391 . S
C464 C465 1.400 . S
C465 C464 1.400 . S
C465 C466 1.398 1_455 S
C465 C471 1.491 . S
C466 H457 0.950 . S
C466 C465 1.398 1_655 S
C466 C467 1.391 . S
C467 H455 0.950 . S
C467 C463 1.393 1_655 S
C467 C466 1.391 . S
C468 H458 0.950 . S
C468 C469 1.386 1_655 S
C468 C470 1.391 . S
C469 C468 1.386 1_455 S
C469 C473 1.393 . S
C470 H459 0.950 . S
C470 C468 1.391 . S
C470 C471 1.400 1_655 S
C471 C465 1.491 . S
C471 C470 1.400 1_455 S
C471 C472 1.398 . S
C472 H460 0.950 . S
C472 C471 1.398 . S
C472 C473 1.391 . S
C473 H461 0.950 . S
C473 C469 1.393 . S
C473 C472 1.391 . S
H474 C482 0.950 . S
H475 C487 0.950 . S
H476 C484 0.950 . S
H477 C486 0.950 . S
H478 C488 0.950 . S
H479 C490 0.950 . S
H480 C492 0.950 1_565 S
H481 C493 0.950 1_565 S
C482 H474 0.950 . S
C482 C483 1.386 1_565 S
C482 C484 1.391 . S
C483 C482 1.386 1_545 S
C483 C487 1.393 . S
C484 H476 0.950 . S
C484 C482 1.391 . S
C484 C485 1.400 1_565 S
C485 C484 1.400 1_545 S
C485 C486 1.398 . S
C485 C491 1.491 . S
C486 H477 0.950 . S
C486 C485 1.398 . S
C486 C487 1.391 . S
C487 H475 0.950 . S
C487 C483 1.393 . S
C487 C486 1.391 . S
C488 H478 0.950 . S
C488 C489 1.386 . S
C488 C490 1.391 . S
C489 C488 1.386 . S
C489 C493 1.393 . S
C490 H479 0.950 . S
C490 C488 1.391 . S
C490 C491 1.400 . S
C491 C485 1.491 . S
C491 C490 1.400 . S
C491 C492 1.398 . S
C492 H480 0.950 1_545 S
C492 C491 1.398 . S
C492 C493 1.391 . S
C493 H481 0.950 1_545 S
C493 C489 1.393 . S
C493 C492 1.391 . S
H494 C502 0.950 . S
H495 C507 0.950 . S
H496 C504 0.950 . S
H497 C506 0.950 . S
H498 C508 0.950 . S
H499 C510 0.950 . S
H500 C512 0.950 . S
H501 C513 0.950 . S
C502 H494 0.950 . S
C502 C503 1.386 . S
C502 C504 1.390 1_554 S
C503 C502 1.386 . S
C503 C507 1.393 . S
C504 H496 0.950 . S
C504 C502 1.390 1_556 S
C504 C505 1.400 . S
C505 C504 1.400 . S
C505 C506 1.398 . S
C505 C511 1.491 . S
C506 H497 0.950 . S
C506 C505 1.398 . S
C506 C507 1.391 1_556 S
C507 H495 0.950 . S
C507 C503 1.393 . S
C507 C506 1.391 1_554 S
C508 H498 0.950 . S
C508 C509 1.386 . S
C508 C510 1.391 . S
C509 C508 1.386 . S
C509 C513 1.393 . S
C510 H499 0.950 . S
C510 C508 1.391 . S
C510 C511 1.400 . S
C511 C505 1.491 . S
C511 C510 1.400 . S
C511 C512 1.398 . S
C512 H500 0.950 . S
C512 C511 1.398 . S
C512 C513 1.391 . S
C513 H501 0.950 . S
C513 C509 1.393 . S
C513 C512 1.391 . S
H514 C522 0.950 . S
H515 C527 0.950 . S
H516 C524 0.950 . S
H517 C526 0.950 . S
H518 C528 0.950 . S
H519 C530 0.950 . S
H520 C532 0.950 . S
H521 C533 0.950 . S
C522 H514 0.950 . S
C522 C523 1.386 . S
C522 C524 1.391 . S
C523 C522 1.386 . S
C523 C527 1.393 1_455 S
C524 H516 0.950 . S
C524 C522 1.391 . S
C524 C525 1.400 . S
C525 C524 1.400 . S
C525 C526 1.398 1_455 S
C525 C531 1.491 . S
C526 H517 0.950 . S
C526 C525 1.398 1_655 S
C526 C527 1.391 . S
C527 H515 0.950 . S
C527 C523 1.393 1_655 S
C527 C526 1.391 . S
C528 H518 0.950 . S
C528 C529 1.386 1_655 S
C528 C530 1.391 . S
C529 C528 1.386 1_455 S
C529 C533 1.393 . S
C530 H519 0.950 . S
C530 C528 1.391 . S
C530 C531 1.400 1_655 S
C531 C525 1.491 . S
C531 C530 1.400 1_455 S
C531 C532 1.398 . S
C532 H520 0.950 . S
C532 C531 1.398 . S
C532 C533 1.391 . S
C533 H521 0.950 . S
C533 C529 1.393 . S
C533 C532 1.391 . S
C309 C161 1.377 . S
C303 C14 1.353 . S
C323 C40 1.394 . S
C329 C205 1.408 . S
C343 C76 1.377 . S
C349 C267 1.394 . S
C363 C3 1.375 . S
C369 C143 1.360 . S
C389 C223 1.409 . S
C383 C38 1.395 . S
C403 C74 1.361 . S
C409 C285 1.380 . S
C429 C199 1.567 . S
C423 C86 1.597 . S
C443 C2 1.678 . S
C449 C261 1.600 . S
C469 C137 1.582 . S
C463 C39 1.696 . S
C489 C217 1.607 . S
C483 C75 1.690 . S
C509 C279 1.596 . S
C503 C4 1.697 . S
C523 C50 1.630 . S
C529 C155 1.605 . S
