# Generated by pormake.
# Topology cml, (3,6)-cn, num edge types: 1
# Building blocks:
#     Node 0, Type 0, BuildingBlock: BETDAH_clean_linker_0, # of connection points: 3
#     Node 1, Type 0, BuildingBlock: BETDAH_clean_linker_0, # of connection points: 3
#     Node 2, Type 0, BuildingBlock: BETDAH_clean_linker_0, # of connection points: 3
#     Node 3, Type 0, BuildingBlock: BETDAH_clean_linker_0, # of connection points: 3
#     Node 4, Type 0, BuildingBlock: BETDAH_clean_linker_0, # of connection points: 3
#     Node 5, Type 0, BuildingBlock: BETDAH_clean_linker_0, # of connection points: 3
#     Node 6, Type 0, BuildingBlock: BETDAH_clean_linker_0, # of connection points: 3
#     Node 7, Type 0, BuildingBlock: BETDAH_clean_linker_0, # of connection points: 3
#     Node 8, Type 1, BuildingBlock: OJICUG_clean_sbu_0, # of connection points: 6
#     Node 9, Type 1, BuildingBlock: OJICUG_clean_sbu_0, # of connection points: 6
#     Node 10, Type 1, BuildingBlock: OJICUG_clean_sbu_0, # of connection points: 6
#     Node 11, Type 1, BuildingBlock: OJICUG_clean_sbu_0, # of connection points: 6
#     Edge 12, Type (0, 1), BuildingBlock: AJUNOK_clean_linker_0, # of connection points: 2
#     Edge 13, Type (0, 1), BuildingBlock: AJUNOK_clean_linker_0, # of connection points: 2
#     Edge 14, Type (0, 1), BuildingBlock: AJUNOK_clean_linker_0, # of connection points: 2
#     Edge 15, Type (0, 1), BuildingBlock: AJUNOK_clean_linker_0, # of connection points: 2
#     Edge 16, Type (0, 1), BuildingBlock: AJUNOK_clean_linker_0, # of connection points: 2
#     Edge 17, Type (0, 1), BuildingBlock: AJUNOK_clean_linker_0, # of connection points: 2
#     Edge 18, Type (0, 1), BuildingBlock: AJUNOK_clean_linker_0, # of connection points: 2
#     Edge 19, Type (0, 1), BuildingBlock: AJUNOK_clean_linker_0, # of connection points: 2
#     Edge 20, Type (0, 1), BuildingBlock: AJUNOK_clean_linker_0, # of connection points: 2
#     Edge 21, Type (0, 1), BuildingBlock: AJUNOK_clean_linker_0, # of connection points: 2
#     Edge 22, Type (0, 1), BuildingBlock: AJUNOK_clean_linker_0, # of connection points: 2
#     Edge 23, Type (0, 1), BuildingBlock: AJUNOK_clean_linker_0, # of connection points: 2
#     Edge 24, Type (0, 1), BuildingBlock: AJUNOK_clean_linker_0, # of connection points: 2
#     Edge 25, Type (0, 1), BuildingBlock: AJUNOK_clean_linker_0, # of connection points: 2
#     Edge 26, Type (0, 1), BuildingBlock: AJUNOK_clean_linker_0, # of connection points: 2
#     Edge 27, Type (0, 1), BuildingBlock: AJUNOK_clean_linker_0, # of connection points: 2
#     Edge 28, Type (0, 1), BuildingBlock: AJUNOK_clean_linker_0, # of connection points: 2
#     Edge 29, Type (0, 1), BuildingBlock: AJUNOK_clean_linker_0, # of connection points: 2
#     Edge 30, Type (0, 1), BuildingBlock: AJUNOK_clean_linker_0, # of connection points: 2
#     Edge 31, Type (0, 1), BuildingBlock: AJUNOK_clean_linker_0, # of connection points: 2
#     Edge 32, Type (0, 1), BuildingBlock: AJUNOK_clean_linker_0, # of connection points: 2
#     Edge 33, Type (0, 1), BuildingBlock: AJUNOK_clean_linker_0, # of connection points: 2
#     Edge 34, Type (0, 1), BuildingBlock: AJUNOK_clean_linker_0, # of connection points: 2
#     Edge 35, Type (0, 1), BuildingBlock: AJUNOK_clean_linker_0, # of connection points: 2
# Relax obj value: 0.007
# Max RMSD: 0.047
# Mean RMSD: 0.041
data_MOF--net-cml--node1-OJICUG_clean_sbu_0--node2-BETDAH_clean_linker_0--edge1-AJUNOK_clean_linker_0
_symmetry_space_group_name_H-M    P1
_symmetry_Int_Tables_number       1
_symmetry_cell_setting            triclinic
loop_
_symmetry_equiv_pos_as_xyz
'x, y, z'
_cell_length_a     30.275757
_cell_length_b     29.425917
_cell_length_c     26.041429
_cell_angle_alpha  89.373498
_cell_angle_beta   90.7405
_cell_angle_gamma 91.492333
loop_
_atom_site_label
_atom_site_type_symbol
_atom_site_fract_x
_atom_site_fract_y
_atom_site_fract_z
_atom_type_partial_charge
H0 H 0.37943 0.40579 0.02634 0.0
H1 H 0.25132 0.43323 0.96189 0.0
H2 H 0.26326 0.34122 0.0905 0.0
C3 C 0.34407 0.39877 0.0249 0.0
C4 C 0.32469 0.36981 0.06175 0.0
C5 C 0.31785 0.42185 0.98901 0.0
C6 C 0.2719 0.41463 0.98873 0.0
C7 C 0.25235 0.38428 0.02419 0.0
C8 C 0.27868 0.3625 0.06124 0.0
N9 N 0.20583 0.37988 0.02635 0.0
C10 C 0.18287 0.34403 0.00315 0.0
H11 H 0.64509 0.56228 0.5557 0.0
H12 H 0.69849 0.61244 0.41301 0.0
H13 H 0.70865 0.69442 0.54795 0.0
C14 C 0.66373 0.58785 0.53424 0.0
C15 C 0.67624 0.62868 0.55839 0.0
C16 C 0.67107 0.5813 0.48169 0.0
C17 C 0.6942 0.61546 0.45404 0.0
C18 C 0.7095 0.65528 0.47845 0.0
C19 C 0.69981 0.66219 0.53034 0.0
N20 N 0.72781 0.69128 0.44843 0.0
C21 C 0.77257 0.70306 0.44937 0.0
H22 H 0.63317 0.41769 0.03724 0.0
H23 H 0.74465 0.466 0.95013 0.0
H24 H 0.76196 0.36398 0.06788 0.0
C25 C 0.66792 0.41575 0.02801 0.0
C26 C 0.69527 0.38718 0.05685 0.0
C27 C 0.68559 0.44426 0.98979 0.0
C28 C 0.73075 0.4436 0.97941 0.0
C29 C 0.75801 0.41355 0.00612 0.0
C30 C 0.74042 0.38553 0.04537 0.0
N31 N 0.80346 0.41363 0.99456 0.0
C32 C 0.8238 0.37457 0.97891 0.0
H33 H 0.37321 0.54838 0.53851 0.0
H34 H 0.30259 0.673 0.52328 0.0
H35 H 0.31831 0.58806 0.39233 0.0
C36 C 0.35284 0.57094 0.51575 0.0
C37 C 0.34579 0.5621 0.46343 0.0
C38 C 0.3372 0.61071 0.53788 0.0
C39 C 0.31383 0.64161 0.50713 0.0
C40 C 0.30723 0.63313 0.45467 0.0
C41 C 0.32319 0.59372 0.43309 0.0
N42 N 0.28763 0.66554 0.42198 0.0
C43 C 0.24603 0.68167 0.43114 0.0
H44 H 0.8643 0.93931 0.04784 0.0
H45 H 0.77248 0.88406 0.93555 0.0
H46 H 0.82111 0.79967 0.05838 0.0
C47 C 0.84347 0.9115 0.03377 0.0
C48 C 0.84487 0.86935 0.05901 0.0
C49 C 0.81853 0.91716 0.98843 0.0
C50 C 0.79168 0.88058 0.9707 0.0
C51 C 0.79242 0.83829 0.99649 0.0
C52 C 0.8193 0.83285 0.04006 0.0
N53 N 0.77074 0.79916 0.97627 0.0
C54 C 0.72778 0.79834 0.9572 0.0
H55 H 0.14593 0.05283 0.55975 0.0
H56 H 0.23989 0.09956 0.44681 0.0
H57 H 0.20055 0.18857 0.56693 0.0
C58 C 0.16887 0.07871 0.54537 0.0
C59 C 0.171 0.1212 0.56914 0.0
C60 C 0.19324 0.07042 0.50107 0.0
C61 C 0.22195 0.1049 0.48187 0.0
C62 C 0.22508 0.14735 0.50639 0.0
C63 C 0.19939 0.15523 0.54957 0.0
N64 N 0.24995 0.18457 0.48583 0.0
C65 C 0.28998 0.18151 0.46084 0.0
H66 H 0.11725 0.90065 0.0411 0.0
H67 H 0.21957 0.94261 0.93676 0.0
H68 H 0.24573 0.84186 0.05343 0.0
C69 C 0.15046 0.89722 0.02671 0.0
C70 C 0.17941 0.86753 0.05165 0.0
C71 C 0.1647 0.92474 0.98563 0.0
C72 C 0.20788 0.92086 0.96787 0.0
C73 C 0.23675 0.89012 0.99107 0.0
C74 C 0.22271 0.86368 0.03352 0.0
N75 N 0.28105 0.89026 0.97442 0.0
C76 C 0.30312 0.85116 0.96217 0.0
H77 H 0.8868 0.07271 0.5385 0.0
H78 H 0.81114 0.19345 0.51616 0.0
H79 H 0.84092 0.11002 0.38744 0.0
C80 C 0.86759 0.0947 0.51365 0.0
C81 C 0.86455 0.08556 0.46099 0.0
C82 C 0.84874 0.13362 0.53402 0.0
C83 C 0.82555 0.16308 0.50114 0.0
C84 C 0.8229 0.1543 0.44823 0.0
C85 C 0.8428 0.11608 0.42841 0.0
N86 N 0.80291 0.18498 0.41358 0.0
C87 C 0.76013 0.19934 0.41964 0.0
Sc88 Sc 0.01474 0.78707 0.30877 0.0
Sc89 Sc 0.03534 0.90486 0.30279 0.0
Sc90 Sc 0.02245 0.85057 0.42285 0.0
O91 O 0.02411 0.84754 0.34492 0.0
C92 C 0.94648 0.77552 0.40132 0.0
C93 C 0.96279 0.85091 0.23422 0.0
C94 C 0.9684 0.93757 0.38731 0.0
C95 C 0.09 0.8358 0.23971 0.0
C96 C 0.07924 0.76296 0.40199 0.0
C97 C 0.09838 0.92522 0.39965 0.0
O98 O 0.96247 0.76382 0.35878 0.0
O99 O 0.98753 0.88519 0.24476 0.0
O100 O 0.97952 0.90774 0.42048 0.0
O101 O 0.06474 0.80215 0.25161 0.0
O102 O 0.06619 0.79425 0.43113 0.0
O103 O 0.08505 0.93248 0.35398 0.0
O104 O 0.0643 0.75677 0.35664 0.0
O105 O 0.08691 0.87474 0.25976 0.0
O106 O 0.08012 0.89541 0.42866 0.0
O107 O 0.96481 0.8131 0.25796 0.0
O108 O 0.96377 0.80726 0.42816 0.0
O109 O 0.98476 0.94023 0.34251 0.0
Sc110 Sc 0.99396 0.20624 0.80886 0.0
Sc111 Sc 0.98375 0.08671 0.80502 0.0
Sc112 Sc 0.98285 0.14225 0.92371 0.0
O113 O 0.98687 0.14517 0.8458 0.0
C114 C 0.05746 0.21996 0.90696 0.0
C115 C 0.05461 0.14492 0.74074 0.0
C116 C 0.04391 0.05774 0.90037 0.0
C117 C 0.92574 0.15239 0.73498 0.0
C118 C 0.92718 0.23034 0.89852 0.0
C119 C 0.91272 0.06436 0.8921 0.0
O120 O 0.04502 0.22971 0.8614 0.0
O121 O 0.03522 0.108 0.75394 0.0
O122 O 0.02796 0.08722 0.92967 0.0
O123 O 0.94411 0.18894 0.75147 0.0
O124 O 0.93778 0.19708 0.92712 0.0
O125 O 0.93099 0.05751 0.84946 0.0
O126 O 0.94386 0.2373 0.85439 0.0
O127 O 0.93533 0.11325 0.75244 0.0
O128 O 0.92664 0.09509 0.92279 0.0
O129 O 0.04501 0.18339 0.75857 0.0
O130 O 0.03842 0.18912 0.93402 0.0
O131 O 0.03247 0.0542 0.85334 0.0
Sc132 Sc 0.51811 0.27998 0.29166 0.0
Sc133 Sc 0.51939 0.39976 0.29003 0.0
Sc134 Sc 0.51484 0.34153 0.4073 0.0
O135 O 0.51739 0.34031 0.3295 0.0
C136 C 0.45284 0.25438 0.38264 0.0
C137 C 0.4527 0.33865 0.22239 0.0
C138 C 0.44965 0.41915 0.37871 0.0
C139 C 0.58539 0.34028 0.22542 0.0
C140 C 0.58627 0.26753 0.38612 0.0
C141 C 0.57833 0.42839 0.38462 0.0
O142 O 0.4645 0.25068 0.33622 0.0
O143 O 0.46652 0.37665 0.24002 0.0
O144 O 0.45857 0.38469 0.40655 0.0
O145 O 0.57106 0.30173 0.24128 0.0
O146 O 0.57159 0.29965 0.41279 0.0
O147 O 0.57208 0.42917 0.33635 0.0
O148 O 0.56818 0.25453 0.34403 0.0
O149 O 0.56907 0.37757 0.23875 0.0
O150 O 0.55788 0.40078 0.41431 0.0
O151 O 0.46904 0.30074 0.23549 0.0
O152 O 0.47025 0.28361 0.41268 0.0
O153 O 0.47061 0.42928 0.33794 0.0
Sc154 Sc 0.49481 0.70249 0.79626 0.0
Sc155 Sc 0.49627 0.58259 0.7988 0.0
Sc156 Sc 0.49143 0.64252 0.91448 0.0
O157 O 0.494 0.64256 0.83648 0.0
C158 C 0.55937 0.7251 0.89095 0.0
C159 C 0.56344 0.64469 0.73315 0.0
C160 C 0.55937 0.56359 0.89459 0.0
C161 C 0.43063 0.63991 0.72775 0.0
C162 C 0.42647 0.72267 0.88605 0.0
C163 C 0.42784 0.55733 0.8875 0.0
O164 O 0.5462 0.73166 0.84492 0.0
O165 O 0.54903 0.6065 0.75001 0.0
O166 O 0.54315 0.59396 0.9225 0.0
O167 O 0.44417 0.67892 0.74282 0.0
O168 O 0.43996 0.69151 0.91605 0.0
O169 O 0.44436 0.55116 0.8436 0.0
O170 O 0.44341 0.73061 0.84227 0.0
O171 O 0.44693 0.60307 0.74415 0.0
O172 O 0.44097 0.58928 0.91701 0.0
O173 O 0.5464 0.68211 0.74518 0.0
O174 O 0.542 0.69496 0.92023 0.0
O175 O 0.5456 0.55528 0.84935 0.0
C176 C 0.12681 0.28203 0.00828 0.0
C177 C 0.15549 0.30946 0.97872 0.0
C178 C 0.09648 0.25167 0.9848 0.0
C179 C 0.09353 0.24813 0.93087 0.0
H180 H 0.12695 0.28495 0.04973 0.0
H181 H 0.07405 0.23219 0.0091 0.0
S182 S 0.16492 0.31045 0.83721 0.0
N183 N 0.18169 0.32964 0.89375 0.0
N184 N 0.12483 0.27279 0.84908 0.0
C185 C 0.12355 0.27441 0.90117 0.0
C186 C 0.1545 0.30508 0.92526 0.0
C187 C 0.83427 0.75821 0.46451 0.0
C188 C 0.81819 0.71756 0.44268 0.0
C189 C 0.87665 0.77573 0.45275 0.0
C190 C 0.90414 0.7534 0.41823 0.0
H191 H 0.8135 0.77732 0.48955 0.0
H192 H 0.88711 0.80796 0.46922 0.0
S193 S 0.87744 0.64358 0.35416 0.0
N194 N 0.83298 0.654 0.38773 0.0
N195 N 0.91248 0.68642 0.36526 0.0
C196 C 0.88861 0.71165 0.39777 0.0
C197 C 0.84562 0.69387 0.41006 0.0
C198 C 0.85721 0.3354 0.90692 0.0
C199 C 0.84634 0.33621 0.95902 0.0
C200 C 0.88201 0.30014 0.88726 0.0
C201 C 0.89679 0.26445 0.91917 0.0
H202 H 0.84727 0.36271 0.88136 0.0
H203 H 0.89039 0.30148 0.84696 0.0
S204 S 0.87446 0.25117 0.05891 0.0
N205 N 0.85012 0.29874 0.0421 0.0
N206 N 0.89668 0.23205 0.00601 0.0
C207 C 0.88464 0.26455 0.97144 0.0
C208 C 0.85946 0.30062 0.9912 0.0
C209 C 0.1922 0.73801 0.45649 0.0
C210 C 0.20156 0.69712 0.43242 0.0
C211 C 0.15074 0.75748 0.44992 0.0
C212 C 0.11792 0.73677 0.41845 0.0
H213 H 0.21764 0.75612 0.47833 0.0
H214 H 0.14554 0.79042 0.46669 0.0
S215 S 0.12561 0.626 0.35288 0.0
N216 N 0.17447 0.63405 0.38072 0.0
N217 N 0.09643 0.67052 0.36784 0.0
C218 C 0.12632 0.69419 0.39715 0.0
C219 C 0.16834 0.67438 0.40422 0.0
C220 C 0.66942 0.79041 0.89067 0.0
C221 C 0.68279 0.78766 0.94228 0.0
C222 C 0.62814 0.7724 0.87472 0.0
C223 C 0.59929 0.75056 0.9099 0.0
H224 H 0.69165 0.8048 0.86217 0.0
H225 H 0.61987 0.77363 0.83414 0.0
S226 S 0.61894 0.73858 0.05059 0.0
N227 N 0.66404 0.76471 0.02906 0.0
N228 N 0.58649 0.73083 -0.00018 0.0
C229 C 0.61191 0.74985 0.96224 0.0
C230 C 0.65375 0.76837 0.97823 0.0
C231 C 0.33919 0.19686 0.38735 0.0
C232 C 0.33354 0.18963 0.44024 0.0
C233 C 0.37931 0.21485 0.36829 0.0
C234 C 0.41457 0.22689 0.40178 0.0
H235 H 0.31179 0.19087 0.36088 0.0
H236 H 0.38164 0.22209 0.32752 0.0
S237 S 0.4169 0.20956 0.54323 0.0
N238 N 0.3669 0.19184 0.52527 0.0
N239 N 0.44213 0.22587 0.49002 0.0
C240 C 0.40981 0.21709 0.45451 0.0
C241 C 0.36924 0.19844 0.47362 0.0
C242 C 0.35316 0.78714 0.97632 0.0
C243 C 0.32984 0.81549 0.94265 0.0
C244 C 0.38322 0.75601 0.95749 0.0
C245 C 0.39129 0.75268 0.90438 0.0
H246 H 0.34906 0.78986 0.01744 0.0
H247 H 0.40137 0.7356 0.98499 0.0
S248 S 0.33529 0.81809 0.80073 0.0
N249 N 0.31435 0.83725 0.85435 0.0
N250 N 0.37075 0.77904 0.81852 0.0
C251 C 0.36676 0.78014 0.87042 0.0
C252 C 0.33605 0.81152 0.88971 0.0
C253 C 0.68406 0.18964 0.38792 0.0
C254 C 0.71508 0.21356 0.4183 0.0
C255 C 0.64157 0.20619 0.37978 0.0
C256 C 0.62877 0.24724 0.40185 0.0
H257 H 0.6932 0.1588 0.36877 0.0
H258 H 0.6191 0.18736 0.35468 0.0
S259 S 0.69867 0.32098 0.48699 0.0
N260 N 0.73077 0.27861 0.47234 0.0
N261 N 0.6509 0.31025 0.45765 0.0
C262 C 0.65938 0.27034 0.43436 0.0
C263 C 0.70267 0.25339 0.44234 0.0
C264 C 0.33991 0.50251 0.97236 0.0
C265 C 0.33897 0.45713 0.95629 0.0
C266 C 0.36724 0.53528 0.94829 0.0
C267 C 0.39441 0.5238 0.9071 0.0
H268 H 0.32109 0.51221 0.00543 0.0
H269 H 0.36816 0.56952 0.96322 0.0
S270 S 0.40107 0.40936 0.84897 0.0
N271 N 0.36531 0.40232 0.89592 0.0
N272 N 0.41626 0.46367 0.84962 0.0
C273 C 0.39177 0.47873 0.88906 0.0
C274 C 0.36425 0.4454 0.91405 0.0
C275 C 0.60589 0.52826 0.46942 0.0
C276 C 0.64922 0.54159 0.45546 0.0
C277 C 0.58411 0.49095 0.44696 0.0
C278 C 0.60404 0.466 0.4084 0.0
H279 H 0.58812 0.54715 0.49762 0.0
H280 H 0.55077 0.48226 0.45901 0.0
S281 S 0.71646 0.48582 0.35708 0.0
N282 N 0.71157 0.52556 0.40086 0.0
N283 N 0.66905 0.4567 0.35643 0.0
C284 C 0.64681 0.47904 0.39296 0.0
C285 C 0.66971 0.51657 0.41691 0.0
C286 C 0.62621 0.45979 0.92583 0.0
C287 C 0.65669 0.47614 0.96263 0.0
C288 C 0.59572 0.48881 0.90272 0.0
C289 C 0.59419 0.53486 0.91661 0.0
H290 H 0.62554 0.4242 0.91549 0.0
H291 H 0.57222 0.47471 0.87511 0.0
S292 S 0.66865 0.59409 0.00986 0.0
N293 N 0.68512 0.54099 0.01071 0.0
N294 N 0.62718 0.59572 0.96806 0.0
C295 C 0.62518 0.55167 0.95283 0.0
C296 C 0.65665 0.52222 0.97567 0.0
C297 C 0.39162 0.53023 0.3945 0.0
C298 C 0.36689 0.523 0.43922 0.0
C299 C 0.41617 0.49556 0.37377 0.0
C300 C 0.41742 0.45218 0.39717 0.0
H301 H 0.3937 0.56358 0.37649 0.0
H302 H 0.43591 0.50374 0.3404 0.0
S303 S 0.3532 0.41417 0.51112 0.0
N304 N 0.341 0.46819 0.50328 0.0
N305 N 0.3879 0.40275 0.46486 0.0
C306 C 0.39085 0.44376 0.44043 0.0
C307 C 0.36553 0.47921 0.46141 0.0
C308 C 0.83313 0.00102 0.98029 0.0
C309 C 0.82821 0.95838 0.9565 0.0
C310 C 0.85759 0.03672 0.95735 0.0
C311 C 0.87766 0.03133 0.9094 0.0
H312 H 0.82116 0.00557 0.01888 0.0
H313 H 0.86319 0.06759 0.97901 0.0
S314 S 0.86603 0.92962 0.82615 0.0
N315 N 0.83957 0.91511 0.87906 0.0
N316 N 0.8838 0.98248 0.83481 0.0
C317 C 0.86811 0.99076 0.88242 0.0
C318 C 0.8437 0.95424 0.90618 0.0
C319 C 0.16616 0.0339 0.42024 0.0
C320 C 0.1816 0.029 0.47105 0.0
C321 C 0.14222 0.99864 0.39595 0.0
C322 C 0.13248 0.95715 0.42163 0.0
H323 H 0.16937 0.06641 0.40054 0.0
H324 H 0.12861 0.00539 0.35803 0.0
S325 S 0.17448 0.92401 0.55093 0.0
N326 N 0.19237 0.97709 0.54302 0.0
N327 N 0.147 0.91082 0.49773 0.0
C328 C 0.15172 0.95029 0.47055 0.0
C329 C 0.17635 0.98619 0.49511 0.0
C330 C 0.12614 0.962 0.91117 0.0
C331 C 0.13536 0.95987 0.96413 0.0
C332 C 0.09693 0.994 0.89078 0.0
C333 C 0.07618 0.02534 0.92257 0.0
H334 H 0.14093 0.93818 0.88549 0.0
H335 H 0.09039 0.99384 0.84979 0.0
S336 S 0.09244 0.03531 0.064 0.0
N337 N 0.1238 0.99292 0.04772 0.0
N338 N 0.06889 0.05286 0.0101 0.0
C339 C 0.08624 0.02406 0.97567 0.0
C340 C 0.11578 0.9914 0.99624 0.0
C341 C 0.91534 0.05215 0.39756 0.0
C342 C 0.88711 0.04603 0.43965 0.0
C343 C 0.94011 0.0163 0.3795 0.0
C344 C 0.93777 0.97305 0.40308 0.0
H345 H 0.91959 0.08533 0.3796 0.0
H346 H 0.96259 0.02312 0.34815 0.0
S347 S 0.8642 0.938 0.51019 0.0
N348 N 0.85472 0.99253 0.50111 0.0
N349 N 0.90174 0.92507 0.46767 0.0
C350 C 0.90812 0.96597 0.44376 0.0
C351 C 0.88273 0.00247 0.46194 0.0
C352 C 0.34841 0.37388 0.15318 0.0
C353 C 0.35239 0.35364 0.10492 0.0
C354 C 0.38024 0.36728 0.19188 0.0
C355 C 0.41655 0.33947 0.18392 0.0
H356 H 0.32198 0.39713 0.15997 0.0
H357 H 0.37717 0.38518 0.22776 0.0
S358 S 0.44027 0.27663 0.06529 0.0
N359 N 0.39425 0.30352 0.05169 0.0
N360 N 0.45343 0.28971 0.12522 0.0
C361 C 0.41953 0.317 0.13683 0.0
C362 C 0.38761 0.32453 0.09703 0.0
C363 C 0.62999 0.67601 0.61472 0.0
C364 C 0.65713 0.63828 0.60934 0.0
C365 C 0.60171 0.6794 0.65676 0.0
C366 C 0.5993 0.64496 0.6947 0.0
H367 H 0.62816 0.70143 0.58441 0.0
H368 H 0.57955 0.70769 0.65765 0.0
S369 S 0.6701 0.54396 0.70344 0.0
N370 N 0.68478 0.56952 0.64929 0.0
N371 N 0.63142 0.57545 0.72797 0.0
C372 C 0.62905 0.6091 0.69194 0.0
C373 C 0.65802 0.6059 0.64939 0.0
C374 C 0.64263 0.33191 0.09839 0.0
C375 C 0.67668 0.3651 0.1032 0.0
C376 C 0.61542 0.32046 0.14011 0.0
C377 C 0.62086 0.34283 0.18727 0.0
H378 H 0.63519 0.31701 0.06131 0.0
H379 H 0.58778 0.29688 0.13415 0.0
S380 S 0.70762 0.42904 0.22052 0.0
N381 N 0.71677 0.41705 0.15981 0.0
N382 N 0.6649 0.39656 0.23776 0.0
C383 C 0.65653 0.37383 0.19338 0.0
C384 C 0.68469 0.38472 0.15138 0.0
C385 C 0.37424 0.66353 0.60033 0.0
C386 C 0.35117 0.62226 0.59096 0.0
C387 C 0.39716 0.67071 0.64678 0.0
C388 C 0.39796 0.63669 0.68515 0.0
H389 H 0.3773 0.68911 0.57025 0.0
H390 H 0.41697 0.70167 0.65099 0.0
S391 S 0.33504 0.52673 0.68327 0.0
N392 N 0.32463 0.55016 0.62664 0.0
N393 N 0.36795 0.56331 0.71384 0.0
C394 C 0.37162 0.59709 0.67799 0.0
C395 C 0.34818 0.58994 0.63088 0.0
C396 C 0.86069 0.84276 0.14896 0.0
C397 C 0.87568 0.86288 0.10288 0.0
C398 C 0.88917 0.8383 0.19154 0.0
C399 C 0.93321 0.85437 0.18933 0.0
H400 H 0.82658 0.8312 0.15237 0.0
H401 H 0.87646 0.82319 0.22667 0.0
S402 S 0.99025 0.90339 0.07559 0.0
N403 N 0.93875 0.89413 0.05596 0.0
N404 N 0.99171 0.88701 0.13641 0.0
C405 C 0.94895 0.87309 0.14306 0.0
C406 C 0.9203 0.87703 0.09967 0.0
C407 C 0.15716 0.14884 0.65845 0.0
C408 C 0.14078 0.13082 0.61181 0.0
C409 C 0.12902 0.155 0.70024 0.0
C410 C 0.0839 0.14307 0.69637 0.0
H411 H 0.19208 0.15695 0.66309 0.0
H412 H 0.14276 0.1677 0.73608 0.0
S413 S 0.02361 0.10114 0.58082 0.0
N414 N 0.07562 0.10624 0.56282 0.0
N415 N 0.02328 0.11673 0.64152 0.0
C416 C 0.06689 0.12702 0.64942 0.0
C417 C 0.0952 0.12116 0.60703 0.0
C418 C 0.18188 0.86463 0.14701 0.0
C419 C 0.16494 0.84668 0.10077 0.0
C420 C 0.15923 0.85786 0.19328 0.0
C421 C 0.11932 0.83227 0.19493 0.0
H422 H 0.21062 0.88737 0.14663 0.0
H423 H 0.17156 0.87509 0.22733 0.0
S424 S 0.06385 0.77439 0.08489 0.0
N425 N 0.10807 0.7996 0.05987 0.0
N426 N 0.06594 0.78581 0.14684 0.0
C427 C 0.1042 0.81091 0.14967 0.0
C428 C 0.12691 0.81843 0.10253 0.0
C429 C 0.85149 0.11099 0.62656 0.0
C430 C 0.85798 0.14471 0.58858 0.0
C431 C 0.87036 0.11562 0.67564 0.0
C432 C 0.89664 0.15413 0.68863 0.0
H433 H 0.83395 0.07952 0.61725 0.0
H434 H 0.86651 0.0875 0.70255 0.0
S435 S 0.91912 0.25455 0.60436 0.0
N436 N 0.88877 0.21969 0.56835 0.0
N437 N 0.92409 0.22883 0.66072 0.0
C438 C 0.9001 0.18989 0.6523 0.0
C439 C 0.88084 0.18505 0.60219 0.0
loop_
_geom_bond_atom_site_label_1
_geom_bond_atom_site_label_2
_geom_bond_distance
_geom_bond_site_symmetry_2
_ccdc_geom_bond_type
H0 C3 0.929 . S
H1 C6 0.929 . S
H2 C8 0.930 . S
C3 H0 0.929 . S
C3 C4 1.398 . S
C3 C5 1.396 1_554 S
C4 C3 1.398 . S
C4 C8 1.407 . S
C5 C3 1.396 1_556 S
C5 C6 1.394 . S
C6 H1 0.929 . S
C6 C5 1.394 . S
C6 C7 1.382 1_556 S
C7 C6 1.382 1_554 S
C7 C8 1.392 . S
C7 N9 1.420 1_554 S
C8 H2 0.930 . S
C8 C4 1.407 . S
C8 C7 1.392 . S
N9 C7 1.420 1_556 S
N9 C10 1.244 . S
C10 N9 1.244 . S
H11 C14 0.929 . S
H12 C17 0.929 . S
H13 C19 0.930 . S
C14 H11 0.929 . S
C14 C15 1.398 . S
C14 C16 1.396 . S
C15 C14 1.398 . S
C15 C19 1.407 . S
C16 C14 1.396 . S
C16 C17 1.394 . S
C17 H12 0.929 . S
C17 C16 1.394 . S
C17 C18 1.382 . S
C18 C17 1.382 . S
C18 C19 1.392 . S
C18 N20 1.420 . S
C19 H13 0.930 . S
C19 C15 1.407 . S
C19 C18 1.392 . S
N20 C18 1.420 . S
N20 C21 1.244 . S
C21 N20 1.244 . S
H22 C25 0.929 . S
H23 C28 0.929 . S
H24 C30 0.930 . S
C25 H22 0.929 . S
C25 C26 1.398 . S
C25 C27 1.396 1_554 S
C26 C25 1.398 . S
C26 C30 1.407 . S
C27 C25 1.396 1_556 S
C27 C28 1.394 . S
C28 H23 0.929 . S
C28 C27 1.394 . S
C28 C29 1.382 1_556 S
C29 C28 1.382 1_554 S
C29 C30 1.392 . S
C29 N31 1.420 . S
C30 H24 0.930 . S
C30 C26 1.407 . S
C30 C29 1.392 . S
N31 C29 1.420 . S
N31 C32 1.244 1_554 S
C32 N31 1.244 1_556 S
H33 C36 0.929 . S
H34 C39 0.929 . S
H35 C41 0.930 . S
C36 H33 0.929 . S
C36 C37 1.398 . S
C36 C38 1.396 . S
C37 C36 1.398 . S
C37 C41 1.407 . S
C38 C36 1.396 . S
C38 C39 1.394 . S
C39 H34 0.929 . S
C39 C38 1.394 . S
C39 C40 1.382 . S
C40 C39 1.382 . S
C40 C41 1.392 . S
C40 N42 1.420 . S
C41 H35 0.930 . S
C41 C37 1.407 . S
C41 C40 1.392 . S
N42 C40 1.420 . S
N42 C43 1.244 . S
C43 N42 1.244 . S
H44 C47 0.929 . S
H45 C50 0.929 . S
H46 C52 0.930 . S
C47 H44 0.929 . S
C47 C48 1.398 . S
C47 C49 1.396 1_554 S
C48 C47 1.398 . S
C48 C52 1.407 . S
C49 C47 1.396 1_556 S
C49 C50 1.394 . S
C50 H45 0.929 . S
C50 C49 1.394 . S
C50 C51 1.382 1_556 S
C51 C50 1.382 1_554 S
C51 C52 1.392 . S
C51 N53 1.420 1_554 S
C52 H46 0.930 . S
C52 C48 1.407 . S
C52 C51 1.392 . S
N53 C51 1.420 1_556 S
N53 C54 1.244 . S
C54 N53 1.244 . S
H55 C58 0.929 . S
H56 C61 0.929 . S
H57 C63 0.930 . S
C58 H55 0.929 . S
C58 C59 1.398 . S
C58 C60 1.396 . S
C59 C58 1.398 . S
C59 C63 1.407 . S
C60 C58 1.396 . S
C60 C61 1.394 . S
C61 H56 0.929 . S
C61 C60 1.394 . S
C61 C62 1.382 . S
C62 C61 1.382 . S
C62 C63 1.392 . S
C62 N64 1.420 . S
C63 H57 0.930 . S
C63 C59 1.407 . S
C63 C62 1.392 . S
N64 C62 1.420 . S
N64 C65 1.244 . S
C65 N64 1.244 . S
H66 C69 0.929 . S
H67 C72 0.929 . S
H68 C74 0.930 . S
C69 H66 0.929 . S
C69 C70 1.398 . S
C69 C71 1.396 1_554 S
C70 C69 1.398 . S
C70 C74 1.407 . S
C71 C69 1.396 1_556 S
C71 C72 1.394 . S
C72 H67 0.929 . S
C72 C71 1.394 . S
C72 C73 1.382 1_556 S
C73 C72 1.382 1_554 S
C73 C74 1.392 . S
C73 N75 1.420 . S
C74 H68 0.930 . S
C74 C70 1.407 . S
C74 C73 1.392 . S
N75 C73 1.420 . S
N75 C76 1.244 1_554 S
C76 N75 1.244 1_556 S
H77 C80 0.929 . S
H78 C83 0.929 . S
H79 C85 0.930 . S
C80 H77 0.929 . S
C80 C81 1.398 . S
C80 C82 1.396 . S
C81 C80 1.398 . S
C81 C85 1.407 . S
C82 C80 1.396 . S
C82 C83 1.394 . S
C83 H78 0.929 . S
C83 C82 1.394 . S
C83 C84 1.382 . S
C84 C83 1.382 . S
C84 C85 1.392 . S
C84 N86 1.420 . S
C85 H79 0.930 . S
C85 C81 1.407 . S
C85 C84 1.392 . S
N86 C84 1.420 . S
N86 C87 1.244 . S
C87 N86 1.244 . S
Sc88 O91 2.025 . S
Sc88 O98 2.105 1_455 S
Sc88 O101 2.105 . S
Sc88 O104 2.105 . S
Sc88 O107 2.105 1_455 S
Sc89 O91 2.025 . S
Sc89 O99 2.105 1_455 S
Sc89 O103 2.105 . S
Sc89 O105 2.105 . S
Sc89 O109 2.105 1_455 S
Sc90 O91 2.025 . S
Sc90 O100 2.105 1_455 S
Sc90 O102 2.105 . S
Sc90 O106 2.105 . S
Sc90 O108 2.105 1_455 S
O91 Sc88 2.025 . S
O91 Sc89 2.025 . S
O91 Sc90 2.025 . S
C92 O98 1.268 . S
C92 O108 1.268 . S
C93 O99 1.268 . S
C93 O107 1.268 . S
C94 O100 1.268 . S
C94 O109 1.268 . S
C95 O101 1.268 . S
C95 O105 1.268 . S
C96 O102 1.268 . S
C96 O104 1.268 . S
C97 O103 1.268 . S
C97 O106 1.268 . S
O98 Sc88 2.105 1_655 S
O98 C92 1.268 . S
O99 Sc89 2.105 1_655 S
O99 C93 1.268 . S
O100 Sc90 2.105 1_655 S
O100 C94 1.268 . S
O101 Sc88 2.105 . S
O101 C95 1.268 . S
O102 Sc90 2.105 . S
O102 C96 1.268 . S
O103 Sc89 2.105 . S
O103 C97 1.268 . S
O104 Sc88 2.105 . S
O104 C96 1.268 . S
O105 Sc89 2.105 . S
O105 C95 1.268 . S
O106 Sc90 2.105 . S
O106 C97 1.268 . S
O107 Sc88 2.105 1_655 S
O107 C93 1.268 . S
O108 Sc90 2.105 1_655 S
O108 C92 1.268 . S
O109 Sc89 2.105 1_655 S
O109 C94 1.268 . S
Sc110 O113 2.025 . S
Sc110 O120 2.105 . S
Sc110 O123 2.105 1_455 S
Sc110 O126 2.105 1_455 S
Sc110 O129 2.105 . S
Sc111 O113 2.025 . S
Sc111 O121 2.105 . S
Sc111 O125 2.105 1_455 S
Sc111 O127 2.105 1_455 S
Sc111 O131 2.105 . S
Sc112 O113 2.025 . S
Sc112 O122 2.105 . S
Sc112 O124 2.105 1_455 S
Sc112 O128 2.105 1_455 S
Sc112 O130 2.105 . S
O113 Sc110 2.025 . S
O113 Sc111 2.025 . S
O113 Sc112 2.025 . S
C114 O120 1.268 . S
C114 O130 1.268 . S
C115 O121 1.268 . S
C115 O129 1.268 . S
C116 O122 1.268 . S
C116 O131 1.268 . S
C117 O123 1.268 . S
C117 O127 1.268 . S
C118 O124 1.268 . S
C118 O126 1.268 . S
C119 O125 1.268 . S
C119 O128 1.268 . S
O120 Sc110 2.105 . S
O120 C114 1.268 . S
O121 Sc111 2.105 . S
O121 C115 1.268 . S
O122 Sc112 2.105 . S
O122 C116 1.268 . S
O123 Sc110 2.105 1_655 S
O123 C117 1.268 . S
O124 Sc112 2.105 1_655 S
O124 C118 1.268 . S
O125 Sc111 2.105 1_655 S
O125 C119 1.268 . S
O126 Sc110 2.105 1_655 S
O126 C118 1.268 . S
O127 Sc111 2.105 1_655 S
O127 C117 1.268 . S
O128 Sc112 2.105 1_655 S
O128 C119 1.268 . S
O129 Sc110 2.105 . S
O129 C115 1.268 . S
O130 Sc112 2.105 . S
O130 C114 1.268 . S
O131 Sc111 2.105 . S
O131 C116 1.268 . S
Sc132 O135 2.025 . S
Sc132 O142 2.105 . S
Sc132 O145 2.105 . S
Sc132 O148 2.105 . S
Sc132 O151 2.105 . S
Sc133 O135 2.025 . S
Sc133 O143 2.105 . S
Sc133 O147 2.105 . S
Sc133 O149 2.105 . S
Sc133 O153 2.105 . S
Sc134 O135 2.025 . S
Sc134 O144 2.105 . S
Sc134 O146 2.105 . S
Sc134 O150 2.105 . S
Sc134 O152 2.105 . S
O135 Sc132 2.025 . S
O135 Sc133 2.025 . S
O135 Sc134 2.025 . S
C136 O142 1.268 . S
C136 O152 1.268 . S
C137 O143 1.268 . S
C137 O151 1.268 . S
C138 O144 1.268 . S
C138 O153 1.268 . S
C139 O145 1.268 . S
C139 O149 1.268 . S
C140 O146 1.268 . S
C140 O148 1.268 . S
C141 O147 1.268 . S
C141 O150 1.268 . S
O142 Sc132 2.105 . S
O142 C136 1.268 . S
O143 Sc133 2.105 . S
O143 C137 1.268 . S
O144 Sc134 2.105 . S
O144 C138 1.268 . S
O145 Sc132 2.105 . S
O145 C139 1.268 . S
O146 Sc134 2.105 . S
O146 C140 1.268 . S
O147 Sc133 2.105 . S
O147 C141 1.268 . S
O148 Sc132 2.105 . S
O148 C140 1.268 . S
O149 Sc133 2.105 . S
O149 C139 1.268 . S
O150 Sc134 2.105 . S
O150 C141 1.268 . S
O151 Sc132 2.105 . S
O151 C137 1.268 . S
O152 Sc134 2.105 . S
O152 C136 1.268 . S
O153 Sc133 2.105 . S
O153 C138 1.268 . S
Sc154 O157 2.025 . S
Sc154 O164 2.105 . S
Sc154 O167 2.105 . S
Sc154 O170 2.105 . S
Sc154 O173 2.105 . S
Sc155 O157 2.025 . S
Sc155 O165 2.105 . S
Sc155 O169 2.105 . S
Sc155 O171 2.105 . S
Sc155 O175 2.105 . S
Sc156 O157 2.025 . S
Sc156 O166 2.105 . S
Sc156 O168 2.105 . S
Sc156 O172 2.105 . S
Sc156 O174 2.105 . S
O157 Sc154 2.025 . S
O157 Sc155 2.025 . S
O157 Sc156 2.025 . S
C158 O164 1.268 . S
C158 O174 1.268 . S
C159 O165 1.268 . S
C159 O173 1.268 . S
C160 O166 1.268 . S
C160 O175 1.268 . S
C161 O167 1.268 . S
C161 O171 1.268 . S
C162 O168 1.268 . S
C162 O170 1.268 . S
C163 O169 1.268 . S
C163 O172 1.268 . S
O164 Sc154 2.105 . S
O164 C158 1.268 . S
O165 Sc155 2.105 . S
O165 C159 1.268 . S
O166 Sc156 2.105 . S
O166 C160 1.268 . S
O167 Sc154 2.105 . S
O167 C161 1.268 . S
O168 Sc156 2.105 . S
O168 C162 1.268 . S
O169 Sc155 2.105 . S
O169 C163 1.268 . S
O170 Sc154 2.105 . S
O170 C162 1.268 . S
O171 Sc155 2.105 . S
O171 C161 1.268 . S
O172 Sc156 2.105 . S
O172 C163 1.268 . S
O173 Sc154 2.105 . S
O173 C159 1.268 . S
O174 Sc156 2.105 . S
O174 C158 1.268 . S
O175 Sc155 2.105 . S
O175 C160 1.268 . S
C176 C177 1.369 . S
C176 C178 1.419 . S
C176 H180 0.930 . S
C177 C176 1.369 . S
C177 C186 1.429 . S
C178 C176 1.419 . S
C178 C179 1.363 . S
C178 H181 0.929 . S
C179 C178 1.363 . S
C179 C185 1.428 . S
H180 C176 0.930 . S
H181 C178 0.929 . S
S182 N183 1.613 . S
S182 N184 1.610 . S
N183 S182 1.613 . S
N183 C186 1.350 . S
N184 S182 1.610 . S
N184 C185 1.351 . S
C185 C179 1.428 . S
C185 N184 1.351 . S
C185 C186 1.434 . S
C186 C177 1.429 . S
C186 N183 1.350 . S
C186 C185 1.434 . S
C187 C188 1.369 . S
C187 C189 1.419 . S
C187 H191 0.930 . S
C188 C187 1.369 . S
C188 C197 1.429 . S
C189 C187 1.419 . S
C189 C190 1.363 . S
C189 H192 0.929 . S
C190 C189 1.363 . S
C190 C196 1.428 . S
H191 C187 0.930 . S
H192 C189 0.929 . S
S193 N194 1.613 . S
S193 N195 1.610 . S
N194 S193 1.613 . S
N194 C197 1.350 . S
N195 S193 1.610 . S
N195 C196 1.351 . S
C196 C190 1.428 . S
C196 N195 1.351 . S
C196 C197 1.434 . S
C197 C188 1.429 . S
C197 N194 1.350 . S
C197 C196 1.434 . S
C198 C199 1.369 . S
C198 C200 1.419 . S
C198 H202 0.930 . S
C199 C198 1.369 . S
C199 C208 1.429 . S
C200 C198 1.419 . S
C200 C201 1.363 . S
C200 H203 0.929 . S
C201 C200 1.363 . S
C201 C207 1.428 . S
H202 C198 0.930 . S
H203 C200 0.929 . S
S204 N205 1.613 . S
S204 N206 1.610 1_554 S
N205 S204 1.613 . S
N205 C208 1.350 1_554 S
N206 S204 1.610 1_556 S
N206 C207 1.351 . S
C207 C201 1.428 . S
C207 N206 1.351 . S
C207 C208 1.434 . S
C208 C199 1.429 . S
C208 N205 1.350 1_556 S
C208 C207 1.434 . S
C209 C210 1.369 . S
C209 C211 1.419 . S
C209 H213 0.930 . S
C210 C209 1.369 . S
C210 C219 1.429 . S
C211 C209 1.419 . S
C211 C212 1.363 . S
C211 H214 0.929 . S
C212 C211 1.363 . S
C212 C218 1.428 . S
H213 C209 0.930 . S
H214 C211 0.929 . S
S215 N216 1.613 . S
S215 N217 1.610 . S
N216 S215 1.613 . S
N216 C219 1.350 . S
N217 S215 1.610 . S
N217 C218 1.351 . S
C218 C212 1.428 . S
C218 N217 1.351 . S
C218 C219 1.434 . S
C219 C210 1.429 . S
C219 N216 1.350 . S
C219 C218 1.434 . S
C220 C221 1.369 . S
C220 C222 1.419 . S
C220 H224 0.930 . S
C221 C220 1.369 . S
C221 C230 1.429 . S
C222 C220 1.419 . S
C222 C223 1.363 . S
C222 H225 0.929 . S
C223 C222 1.363 . S
C223 C229 1.428 . S
H224 C220 0.930 . S
H225 C222 0.929 . S
S226 N227 1.613 . S
S226 N228 1.610 1_554 S
N227 S226 1.613 . S
N227 C230 1.350 1_554 S
N228 S226 1.610 1_556 S
N228 C229 1.351 . S
C229 C223 1.428 . S
C229 N228 1.351 . S
C229 C230 1.434 . S
C230 C221 1.429 . S
C230 N227 1.350 1_556 S
C230 C229 1.434 . S
C231 C232 1.369 . S
C231 C233 1.419 . S
C231 H235 0.930 . S
C232 C231 1.369 . S
C232 C241 1.429 . S
C233 C231 1.419 . S
C233 C234 1.363 . S
C233 H236 0.929 . S
C234 C233 1.363 . S
C234 C240 1.428 . S
H235 C231 0.930 . S
H236 C233 0.929 . S
S237 N238 1.613 . S
S237 N239 1.610 . S
N238 S237 1.613 . S
N238 C241 1.350 . S
N239 S237 1.610 . S
N239 C240 1.351 . S
C240 C234 1.428 . S
C240 N239 1.351 . S
C240 C241 1.434 . S
C241 C232 1.429 . S
C241 N238 1.350 . S
C241 C240 1.434 . S
C242 C243 1.369 . S
C242 C244 1.419 . S
C242 H246 0.930 . S
C243 C242 1.369 . S
C243 C252 1.429 . S
C244 C242 1.419 . S
C244 C245 1.363 . S
C244 H247 0.929 . S
C245 C244 1.363 . S
C245 C251 1.428 . S
H246 C242 0.930 . S
H247 C244 0.929 . S
S248 N249 1.613 . S
S248 N250 1.610 . S
N249 S248 1.613 . S
N249 C252 1.350 . S
N250 S248 1.610 . S
N250 C251 1.351 . S
C251 C245 1.428 . S
C251 N250 1.351 . S
C251 C252 1.434 . S
C252 C243 1.429 . S
C252 N249 1.350 . S
C252 C251 1.434 . S
C253 C254 1.369 . S
C253 C255 1.419 . S
C253 H257 0.930 . S
C254 C253 1.369 . S
C254 C263 1.429 . S
C255 C253 1.419 . S
C255 C256 1.363 . S
C255 H258 0.929 . S
C256 C255 1.363 . S
C256 C262 1.428 . S
H257 C253 0.930 . S
H258 C255 0.929 . S
S259 N260 1.613 . S
S259 N261 1.610 . S
N260 S259 1.613 . S
N260 C263 1.350 . S
N261 S259 1.610 . S
N261 C262 1.351 . S
C262 C256 1.428 . S
C262 N261 1.351 . S
C262 C263 1.434 . S
C263 C254 1.429 . S
C263 N260 1.350 . S
C263 C262 1.434 . S
C264 C265 1.369 . S
C264 C266 1.419 . S
C264 H268 0.930 . S
C265 C264 1.369 . S
C265 C274 1.429 . S
C266 C264 1.419 . S
C266 C267 1.363 . S
C266 H269 0.929 . S
C267 C266 1.363 . S
C267 C273 1.428 . S
H268 C264 0.930 . S
H269 C266 0.929 . S
S270 N271 1.613 . S
S270 N272 1.610 . S
N271 S270 1.613 . S
N271 C274 1.350 . S
N272 S270 1.610 . S
N272 C273 1.351 . S
C273 C267 1.428 . S
C273 N272 1.351 . S
C273 C274 1.434 . S
C274 C265 1.429 . S
C274 N271 1.350 . S
C274 C273 1.434 . S
C275 C276 1.369 . S
C275 C277 1.419 . S
C275 H279 0.930 . S
C276 C275 1.369 . S
C276 C285 1.429 . S
C277 C275 1.419 . S
C277 C278 1.363 . S
C277 H280 0.929 . S
C278 C277 1.363 . S
C278 C284 1.428 . S
H279 C275 0.930 . S
H280 C277 0.929 . S
S281 N282 1.613 . S
S281 N283 1.610 . S
N282 S281 1.613 . S
N282 C285 1.350 . S
N283 S281 1.610 . S
N283 C284 1.351 . S
C284 C278 1.428 . S
C284 N283 1.351 . S
C284 C285 1.434 . S
C285 C276 1.429 . S
C285 N282 1.350 . S
C285 C284 1.434 . S
C286 C287 1.369 . S
C286 C288 1.419 . S
C286 H290 0.930 . S
C287 C286 1.369 . S
C287 C296 1.429 . S
C288 C286 1.419 . S
C288 C289 1.363 . S
C288 H291 0.929 . S
C289 C288 1.363 . S
C289 C295 1.428 . S
H290 C286 0.930 . S
H291 C288 0.929 . S
S292 N293 1.613 . S
S292 N294 1.610 . S
N293 S292 1.613 . S
N293 C296 1.350 . S
N294 S292 1.610 . S
N294 C295 1.351 . S
C295 C289 1.428 . S
C295 N294 1.351 . S
C295 C296 1.434 . S
C296 C287 1.429 . S
C296 N293 1.350 . S
C296 C295 1.434 . S
C297 C298 1.369 . S
C297 C299 1.419 . S
C297 H301 0.930 . S
C298 C297 1.369 . S
C298 C307 1.429 . S
C299 C297 1.419 . S
C299 C300 1.363 . S
C299 H302 0.929 . S
C300 C299 1.363 . S
C300 C306 1.428 . S
H301 C297 0.930 . S
H302 C299 0.929 . S
S303 N304 1.613 . S
S303 N305 1.610 . S
N304 S303 1.613 . S
N304 C307 1.350 . S
N305 S303 1.610 . S
N305 C306 1.351 . S
C306 C300 1.428 . S
C306 N305 1.351 . S
C306 C307 1.434 . S
C307 C298 1.429 . S
C307 N304 1.350 . S
C307 C306 1.434 . S
C308 C309 1.369 1_545 S
C308 C310 1.419 . S
C308 H312 0.930 . S
C309 C308 1.369 1_565 S
C309 C318 1.429 . S
C310 C308 1.419 . S
C310 C311 1.363 . S
C310 H313 0.929 . S
C311 C310 1.363 . S
C311 C317 1.428 1_545 S
H312 C308 0.930 . S
H313 C310 0.929 . S
S314 N315 1.613 . S
S314 N316 1.610 . S
N315 S314 1.613 . S
N315 C318 1.350 . S
N316 S314 1.610 . S
N316 C317 1.351 . S
C317 C311 1.428 1_565 S
C317 N316 1.351 . S
C317 C318 1.434 . S
C318 C309 1.429 . S
C318 N315 1.350 . S
C318 C317 1.434 . S
C319 C320 1.369 . S
C319 C321 1.419 . S
C319 H323 0.930 . S
C320 C319 1.369 . S
C320 C329 1.429 . S
C321 C319 1.419 . S
C321 C322 1.363 1_545 S
C321 H324 0.929 . S
C322 C321 1.363 1_565 S
C322 C328 1.428 . S
H323 C319 0.930 . S
H324 C321 0.929 . S
S325 N326 1.613 1_565 S
S325 N327 1.610 . S
N326 S325 1.613 1_545 S
N326 C329 1.350 . S
N327 S325 1.610 . S
N327 C328 1.351 . S
C328 C322 1.428 . S
C328 N327 1.351 . S
C328 C329 1.434 1_565 S
C329 C320 1.429 . S
C329 N326 1.350 . S
C329 C328 1.434 1_545 S
C330 C331 1.369 . S
C330 C332 1.419 1_565 S
C330 H334 0.930 . S
C331 C330 1.369 . S
C331 C340 1.429 . S
C332 C330 1.419 1_545 S
C332 C333 1.363 . S
C332 H335 0.929 . S
C333 C332 1.363 . S
C333 C339 1.428 . S
H334 C330 0.930 . S
H335 C332 0.929 . S
S336 N337 1.613 . S
S336 N338 1.610 1_564 S
N337 S336 1.613 . S
N337 C340 1.350 1_554 S
N338 S336 1.610 1_546 S
N338 C339 1.351 . S
C339 C333 1.428 . S
C339 N338 1.351 . S
C339 C340 1.434 1_545 S
C340 C331 1.429 . S
C340 N337 1.350 1_556 S
C340 C339 1.434 1_565 S
C341 C342 1.369 . S
C341 C343 1.419 . S
C341 H345 0.930 . S
C342 C341 1.369 . S
C342 C351 1.429 1_545 S
C343 C341 1.419 . S
C343 C344 1.363 1_545 S
C343 H346 0.929 . S
C344 C343 1.363 1_565 S
C344 C350 1.428 . S
H345 C341 0.930 . S
H346 C343 0.929 . S
S347 N348 1.613 . S
S347 N349 1.610 . S
N348 S347 1.613 . S
N348 C351 1.350 . S
N349 S347 1.610 . S
N349 C350 1.351 . S
C350 C344 1.428 . S
C350 N349 1.351 . S
C350 C351 1.434 . S
C351 C342 1.429 1_565 S
C351 N348 1.350 . S
C351 C350 1.434 . S
C352 C353 1.369 . S
C352 C354 1.419 . S
C352 H356 0.930 . S
C353 C352 1.369 . S
C353 C362 1.429 . S
C354 C352 1.419 . S
C354 C355 1.363 . S
C354 H357 0.929 . S
C355 C354 1.363 . S
C355 C361 1.428 . S
H356 C352 0.930 . S
H357 C354 0.929 . S
S358 N359 1.613 . S
S358 N360 1.610 . S
N359 S358 1.613 . S
N359 C362 1.350 . S
N360 S358 1.610 . S
N360 C361 1.351 . S
C361 C355 1.428 . S
C361 N360 1.351 . S
C361 C362 1.434 . S
C362 C353 1.429 . S
C362 N359 1.350 . S
C362 C361 1.434 . S
C363 C364 1.369 . S
C363 C365 1.419 . S
C363 H367 0.930 . S
C364 C363 1.369 . S
C364 C373 1.429 . S
C365 C363 1.419 . S
C365 C366 1.363 . S
C365 H368 0.929 . S
C366 C365 1.363 . S
C366 C372 1.428 . S
H367 C363 0.930 . S
H368 C365 0.929 . S
S369 N370 1.613 . S
S369 N371 1.610 . S
N370 S369 1.613 . S
N370 C373 1.350 . S
N371 S369 1.610 . S
N371 C372 1.351 . S
C372 C366 1.428 . S
C372 N371 1.351 . S
C372 C373 1.434 . S
C373 C364 1.429 . S
C373 N370 1.350 . S
C373 C372 1.434 . S
C374 C375 1.369 . S
C374 C376 1.419 . S
C374 H378 0.930 . S
C375 C374 1.369 . S
C375 C384 1.429 . S
C376 C374 1.419 . S
C376 C377 1.363 . S
C376 H379 0.929 . S
C377 C376 1.363 . S
C377 C383 1.428 . S
H378 C374 0.930 . S
H379 C376 0.929 . S
S380 N381 1.613 . S
S380 N382 1.610 . S
N381 S380 1.613 . S
N381 C384 1.350 . S
N382 S380 1.610 . S
N382 C383 1.351 . S
C383 C377 1.428 . S
C383 N382 1.351 . S
C383 C384 1.434 . S
C384 C375 1.429 . S
C384 N381 1.350 . S
C384 C383 1.434 . S
C385 C386 1.369 . S
C385 C387 1.419 . S
C385 H389 0.930 . S
C386 C385 1.369 . S
C386 C395 1.429 . S
C387 C385 1.419 . S
C387 C388 1.363 . S
C387 H390 0.929 . S
C388 C387 1.363 . S
C388 C394 1.428 . S
H389 C385 0.930 . S
H390 C387 0.929 . S
S391 N392 1.613 . S
S391 N393 1.610 . S
N392 S391 1.613 . S
N392 C395 1.350 . S
N393 S391 1.610 . S
N393 C394 1.351 . S
C394 C388 1.428 . S
C394 N393 1.351 . S
C394 C395 1.434 . S
C395 C386 1.429 . S
C395 N392 1.350 . S
C395 C394 1.434 . S
C396 C397 1.369 . S
C396 C398 1.419 . S
C396 H400 0.930 . S
C397 C396 1.369 . S
C397 C406 1.429 . S
C398 C396 1.419 . S
C398 C399 1.363 . S
C398 H401 0.929 . S
C399 C398 1.363 . S
C399 C405 1.428 . S
H400 C396 0.930 . S
H401 C398 0.929 . S
S402 N403 1.613 . S
S402 N404 1.610 . S
N403 S402 1.613 . S
N403 C406 1.350 . S
N404 S402 1.610 . S
N404 C405 1.351 . S
C405 C399 1.428 . S
C405 N404 1.351 . S
C405 C406 1.434 . S
C406 C397 1.429 . S
C406 N403 1.350 . S
C406 C405 1.434 . S
C407 C408 1.369 . S
C407 C409 1.419 . S
C407 H411 0.930 . S
C408 C407 1.369 . S
C408 C417 1.429 . S
C409 C407 1.419 . S
C409 C410 1.363 . S
C409 H412 0.929 . S
C410 C409 1.363 . S
C410 C416 1.428 . S
H411 C407 0.930 . S
H412 C409 0.929 . S
S413 N414 1.613 . S
S413 N415 1.610 . S
N414 S413 1.613 . S
N414 C417 1.350 . S
N415 S413 1.610 . S
N415 C416 1.351 . S
C416 C410 1.428 . S
C416 N415 1.351 . S
C416 C417 1.434 . S
C417 C408 1.429 . S
C417 N414 1.350 . S
C417 C416 1.434 . S
C418 C419 1.369 . S
C418 C420 1.419 . S
C418 H422 0.930 . S
C419 C418 1.369 . S
C419 C428 1.429 . S
C420 C418 1.419 . S
C420 C421 1.363 . S
C420 H423 0.929 . S
C421 C420 1.363 . S
C421 C427 1.428 . S
H422 C418 0.930 . S
H423 C420 0.929 . S
S424 N425 1.613 . S
S424 N426 1.610 . S
N425 S424 1.613 . S
N425 C428 1.350 . S
N426 S424 1.610 . S
N426 C427 1.351 . S
C427 C421 1.428 . S
C427 N426 1.351 . S
C427 C428 1.434 . S
C428 C419 1.429 . S
C428 N425 1.350 . S
C428 C427 1.434 . S
C429 C430 1.369 . S
C429 C431 1.419 . S
C429 H433 0.930 . S
C430 C429 1.369 . S
C430 C439 1.429 . S
C431 C429 1.419 . S
C431 C432 1.363 . S
C431 H434 0.929 . S
C432 C431 1.363 . S
C432 C438 1.428 . S
H433 C429 0.930 . S
H434 C431 0.929 . S
S435 N436 1.613 . S
S435 N437 1.610 . S
N436 S435 1.613 . S
N436 C439 1.350 . S
N437 S435 1.610 . S
N437 C438 1.351 . S
C438 C432 1.428 . S
C438 N437 1.351 . S
C438 C439 1.434 . S
C439 C430 1.429 . S
C439 N436 1.350 . S
C439 C438 1.434 . S
C177 C10 1.532 . S
C179 C114 1.512 . S
C190 C92 1.511 . S
C188 C21 1.536 . S
C201 C118 1.563 . S
C199 C32 1.588 . S
C212 C96 1.469 . S
C210 C43 1.496 . S
C223 C158 1.508 . S
C221 C54 1.535 . S
C234 C136 1.512 . S
C232 C65 1.536 . S
C243 C76 1.583 . S
C245 C162 1.568 . S
C256 C140 1.471 . S
C254 C87 1.494 . S
C265 C5 1.499 . S
C267 C163 1.529 . S
C278 C141 1.509 . S
C276 C16 1.484 . S
C287 C27 1.551 . S
C289 C160 1.581 . S
C298 C37 1.436 . S
C300 C138 1.450 . S
C311 C119 1.530 . S
C309 C49 1.500 . S
C320 C60 1.484 . S
C322 C97 1.509 . S
C333 C116 1.578 . S
C331 C71 1.545 . S
C344 C94 1.452 . S
C342 C81 1.440 . S
C355 C137 1.490 . S
C353 C4 1.483 . S
C366 C159 1.494 . S
C364 C15 1.483 . S
C375 C26 1.497 . S
C377 C139 1.488 . S
C388 C161 1.493 . S
C386 C38 1.472 . S
C399 C93 1.490 . S
C397 C48 1.484 . S
C408 C59 1.478 . S
C410 C115 1.492 . S
C419 C70 1.496 . S
C421 C95 1.487 . S
C430 C82 1.468 . S
C432 C117 1.492 . S
