# Generated by pormake.
# Topology rtl, (3,6)-cn, num edge types: 1
# Building blocks:
#     Node 0, Type 0, BuildingBlock: ESEHIV_clean_linker_0, # of connection points: 3
#     Node 1, Type 0, BuildingBlock: ESEHIV_clean_linker_0, # of connection points: 3
#     Node 2, Type 0, BuildingBlock: ESEHIV_clean_linker_0, # of connection points: 3
#     Node 3, Type 0, BuildingBlock: ESEHIV_clean_linker_0, # of connection points: 3
#     Node 4, Type 1, BuildingBlock: VOLQOD_clean_sbu_1, # of connection points: 6
#     Node 5, Type 1, BuildingBlock: VOLQOD_clean_sbu_1, # of connection points: 6
#     Edge 6, Type (0, 1), BuildingBlock: EZIPEK_clean_linker_0, # of connection points: 2
#     Edge 7, Type (0, 1), BuildingBlock: EZIPEK_clean_linker_0, # of connection points: 2
#     Edge 8, Type (0, 1), BuildingBlock: EZIPEK_clean_linker_0, # of connection points: 2
#     Edge 9, Type (0, 1), BuildingBlock: EZIPEK_clean_linker_0, # of connection points: 2
#     Edge 10, Type (0, 1), BuildingBlock: EZIPEK_clean_linker_0, # of connection points: 2
#     Edge 11, Type (0, 1), BuildingBlock: EZIPEK_clean_linker_0, # of connection points: 2
#     Edge 12, Type (0, 1), BuildingBlock: EZIPEK_clean_linker_0, # of connection points: 2
#     Edge 13, Type (0, 1), BuildingBlock: EZIPEK_clean_linker_0, # of connection points: 2
#     Edge 14, Type (0, 1), BuildingBlock: EZIPEK_clean_linker_0, # of connection points: 2
#     Edge 15, Type (0, 1), BuildingBlock: EZIPEK_clean_linker_0, # of connection points: 2
#     Edge 16, Type (0, 1), BuildingBlock: EZIPEK_clean_linker_0, # of connection points: 2
#     Edge 17, Type (0, 1), BuildingBlock: EZIPEK_clean_linker_0, # of connection points: 2
# Relax obj value: 0.079
# Max RMSD: 0.156
# Mean RMSD: 0.089
data_MOF--net-rtl--node1-VOLQOD_clean_sbu_1--node2-ESEHIV_clean_linker_0--edge1-EZIPEK_clean_linker_0
_symmetry_space_group_name_H-M    P1
_symmetry_Int_Tables_number       1
_symmetry_cell_setting            triclinic
loop_
_symmetry_equiv_pos_as_xyz
'x, y, z'
_cell_length_a     25.407087
_cell_length_b     21.903846
_cell_length_c     16.664502
_cell_angle_alpha  90.068335
_cell_angle_beta   90.602725
_cell_angle_gamma 89.996313
loop_
_atom_site_label
_atom_site_type_symbol
_atom_site_fract_x
_atom_site_fract_y
_atom_site_fract_z
_atom_type_partial_charge
H0 H 0.04882 0.80371 0.06209 0.0
H1 H 0.16732 0.68752 0.16682 0.0
H2 H 0.16502 0.71935 0.9124 0.0
C3 C 0.08148 0.77234 0.05501 0.0
C4 C 0.10295 0.76315 0.97867 0.0
C5 C 0.10549 0.74664 0.12316 0.0
C6 C 0.14808 0.70661 0.11416 0.0
C7 C 0.16933 0.69656 0.03802 0.0
C8 C 0.14686 0.72491 0.97057 0.0
H9 H 0.54988 0.70307 0.51863 0.0
H10 H 0.65347 0.81333 0.37737 0.0
H11 H 0.66609 0.81526 0.63532 0.0
C12 C 0.57964 0.73848 0.51515 0.0
C13 C 0.60409 0.75959 0.58537 0.0
C14 C 0.59778 0.75718 0.44021 0.0
C15 C 0.63829 0.80045 0.43551 0.0
C16 C 0.66329 0.82159 0.50593 0.0
C17 C 0.64549 0.80155 0.5809 0.0
H18 H 0.94761 0.2026 0.01878 0.0
H19 H 0.84628 0.31578 0.16024 0.0
H20 H 0.83419 0.31837 0.90219 0.0
C21 C 0.91851 0.23875 0.02234 0.0
C22 C 0.89482 0.26078 0.95213 0.0
C23 C 0.90083 0.25809 0.09731 0.0
C24 C 0.86129 0.30255 0.10208 0.0
C25 C 0.83665 0.32418 0.03169 0.0
C26 C 0.85437 0.304 0.95664 0.0
H27 H 0.4528 0.30049 0.47317 0.0
H28 H 0.33547 0.21834 0.62254 0.0
H29 H 0.33337 0.18539 0.3683 0.0
C30 C 0.4199 0.26947 0.48015 0.0
C31 C 0.3957 0.24392 0.41193 0.0
C32 C 0.39794 0.26117 0.55633 0.0
C33 C 0.3538 0.22338 0.56443 0.0
C34 C 0.33127 0.19492 0.49705 0.0
C35 C 0.35275 0.20438 0.42096 0.0
O36 O 0.87028 0.0034 0.51418 0.0
Zn37 Zn 0.93531 0.0551 0.52455 0.0
O38 O -0.00126 0.00509 0.5318 0.0
Zn39 Zn 0.04158 0.02948 0.62371 0.0
Zn40 Zn 0.97908 0.91943 0.54458 0.0
Zn41 Zn 0.03906 0.01647 0.43469 0.0
O42 O 0.11056 0.06523 0.59067 0.0
O43 O 0.11017 0.05211 0.4583 0.0
O44 O 0.92826 0.10752 0.62171 0.0
O45 O 0.00313 0.09189 0.68943 0.0
O46 O 0.05667 0.95817 0.69579 0.0
O47 O 0.00145 0.88658 0.65254 0.0
O48 O 0.01224 0.86708 0.4585 0.0
O49 O 0.9357 0.10931 0.42837 0.0
O50 O 0.04892 0.93664 0.37943 0.0
O51 O 0.00384 0.07497 0.35883 0.0
C52 C 0.86299 0.94623 0.52119 0.0
C53 C 0.1325 0.06996 0.52275 0.0
C54 C 0.03532 0.90595 0.70329 0.0
C55 C 0.95857 0.11786 0.68136 0.0
C56 C 0.03725 0.88152 0.39544 0.0
C57 C 0.96459 0.11037 0.36668 0.0
O58 O 0.90102 0.9096 0.53422 0.0
O59 O 0.62857 0.50523 0.02309 0.0
Zn60 Zn 0.56248 0.55539 0.01257 0.0
O61 O 0.50023 0.50367 0.00491 0.0
Zn62 Zn 0.45733 0.52671 0.91279 0.0
Zn63 Zn 0.52124 0.41858 -0.00873 0.0
Zn64 Zn 0.4598 0.51426 0.10205 0.0
O65 O 0.38888 0.56377 0.94587 0.0
O66 O 0.38887 0.55052 0.07824 0.0
O67 O 0.5685 0.60839 0.91631 0.0
O68 O 0.49614 0.58737 0.84493 0.0
O69 O 0.44146 0.45463 0.84248 0.0
O70 O 0.50022 0.38585 0.88223 0.0
O71 O 0.48833 0.36522 0.07662 0.0
O72 O 0.5609 0.60963 0.10836 0.0
O73 O 0.45007 0.43386 0.1556 0.0
O74 O 0.495 0.5719 0.17963 0.0
C75 C 0.63676 0.44819 0.01612 0.0
C76 C 0.36687 0.56876 0.01373 0.0
C77 C 0.46485 0.40379 0.833 0.0
C78 C 0.53948 0.61577 0.8545 0.0
C79 C 0.46262 0.379 0.13936 0.0
C80 C 0.53314 0.60884 0.17123 0.0
O81 O 0.59934 0.41076 0.00276 0.0
C82 C 0.27937 0.09765 0.50205 0.0
C83 C 0.28056 0.16234 0.50469 0.0
C84 C 0.18534 0.16573 0.52591 0.0
C85 C 0.18362 0.1013 0.51769 0.0
N86 N 0.22665 0.00561 0.48962 0.0
N87 N 0.2349 0.25901 0.50744 0.0
C88 C 0.22999 0.06711 0.50313 0.0
C89 C 0.23361 0.19672 0.51373 0.0
N90 N 0.32556 0.06559 0.50117 0.0
N91 N 0.14081 0.19729 0.54573 0.0
H92 H 0.26954 0.28377 0.50007 0.0
H93 H 0.20139 0.2862 0.50353 0.0
H94 H 0.10384 0.17697 0.5503 0.0
H95 H 0.14082 0.24304 0.56267 0.0
H96 H 0.32784 0.01842 0.50772 0.0
H97 H 0.36236 0.08666 0.49974 0.0
H98 H 0.25792 0.97913 0.46967 0.0
H99 H 0.19148 0.98128 0.4937 0.0
C100 C 0.26705 0.69699 0.02203 0.0
C101 C 0.2197 0.66327 0.03044 0.0
C102 C 0.26927 0.56733 0.03247 0.0
C103 C 0.31608 0.60086 0.01862 0.0
N104 N 0.36005 0.69621 -0.00866 0.0
N105 N 0.17368 0.56718 0.03329 0.0
C106 C 0.31507 0.6653 0.01048 0.0
C107 C 0.22021 0.59858 0.03298 0.0
N108 N 0.26635 0.75929 0.02833 0.0
N109 N 0.27191 0.5058 0.04586 0.0
H110 H 0.13709 0.58879 0.0343 0.0
H111 H 0.17092 0.52004 0.02667 0.0
H112 H 0.30686 0.48098 0.04225 0.0
H113 H 0.24025 0.47975 0.06527 0.0
H114 H 0.30011 0.78603 0.0327 0.0
H115 H 0.23191 0.78454 0.03521 0.0
H116 H 0.36061 0.74194 0.97444 0.0
H117 H 0.39684 0.67538 0.98732 0.0
C118 C 0.7576 0.8334 0.46359 0.0
C119 C 0.71259 0.85791 0.5019 0.0
C120 C 0.76604 0.9426 0.55368 0.0
C121 C 0.80964 0.92041 0.5096 0.0
N122 N 0.84052 0.85673 0.40151 0.0
N123 N 0.67112 0.94387 0.56624 0.0
C124 C 0.80333 0.86967 0.45768 0.0
C125 C 0.71587 0.91528 0.54135 0.0
N126 N 0.75831 0.77429 0.43736 0.0
N127 N 0.77279 0.98703 0.61051 0.0
H128 H 0.63365 0.92552 0.55675 0.0
H129 H 0.67089 0.98826 0.58878 0.0
H130 H 0.80912 0.00685 0.62384 0.0
H131 H 0.74318 8e-05 0.64977 0.0
H132 H 0.79222 0.75325 0.41604 0.0
H133 H 0.72715 0.74417 0.44526 0.0
H134 H 0.83541 0.82301 0.35791 0.0
H135 H 0.87336 0.8844 0.39255 0.0
C136 C 0.7842 0.41815 -0.00311 0.0
C137 C 0.78742 0.36067 0.03589 0.0
C138 C 0.69671 0.37249 0.08027 0.0
C139 C 0.69037 0.42324 0.02854 0.0
N140 N 0.72736 0.49035 0.92854 0.0
N141 N 0.74152 0.27693 0.09967 0.0
C142 C 0.73403 0.44562 0.98482 0.0
C143 C 0.74238 0.33615 0.07405 0.0
N144 N 0.82899 0.44667 0.97213 0.0
N145 N 0.6595 0.35948 0.13633 0.0
H146 H 0.77253 0.24667 0.09125 0.0
H147 H 0.70757 0.25596 0.12089 0.0
H148 H 0.62663 0.38713 0.14536 0.0
H149 H 0.66461 0.32571 0.17977 0.0
H150 H 0.82929 0.49112 0.94992 0.0
H151 H 0.86641 0.42816 0.98137 0.0
H152 H 0.75696 0.50351 0.88937 0.0
H153 H 0.69111 0.51051 0.91571 0.0
C154 C 0.03958 0.75912 0.23303 0.0
C155 C 0.0909 0.76993 0.20358 0.0
C156 C 0.11017 0.83431 0.32013 0.0
C157 C 0.05618 0.83387 0.33983 0.0
N158 N 0.96792 0.79731 0.31366 0.0
N159 N 0.17333 0.82531 0.21405 0.0
C160 C 0.02042 0.79575 0.29696 0.0
C161 C 0.12618 0.80877 0.24635 0.0
N162 N 0.00933 0.71403 0.19962 0.0
N163 N 0.14607 0.85963 0.37198 0.0
H164 H 0.18621 0.81029 0.15836 0.0
H165 H 0.19753 0.85883 0.23912 0.0
H166 H 0.13537 0.87789 0.42738 0.0
H167 H 0.1866 0.85644 0.36397 0.0
H168 H 0.97339 0.70025 0.22301 0.0
H169 H 0.02264 0.68652 0.15283 0.0
H170 H 0.93934 0.77618 0.27801 0.0
H171 H 0.95236 0.82297 0.36038 0.0
C172 C 0.62133 0.67543 0.68264 0.0
C173 C 0.59229 0.72855 0.66174 0.0
C174 C 0.52994 0.70963 0.76994 0.0
C175 C 0.55836 0.65576 0.78984 0.0
N176 N 0.63334 0.58931 0.77212 0.0
N177 N 0.52514 0.80252 0.69006 0.0
C178 C 0.605 0.63952 0.74862 0.0
C179 C 0.54836 0.74759 0.70695 0.0
N180 N 0.66311 0.65794 0.63674 0.0
N181 N 0.48525 0.72399 0.81107 0.0
H182 H 0.53819 0.83108 0.6443 0.0
H183 H 0.4954 0.82209 0.72387 0.0
H184 H 0.47261 0.69954 0.86096 0.0
H185 H 0.45941 0.75876 0.79485 0.0
H186 H 0.68167 0.61574 0.64092 0.0
H187 H 0.67866 0.68509 0.59152 0.0
H188 H 0.67116 0.57953 0.75261 0.0
H189 H 0.62005 0.55772 0.814 0.0
C190 C 0.89367 0.16324 0.17906 0.0
C191 C 0.91601 0.22219 0.16901 0.0
C192 C 0.96765 0.20968 0.29282 0.0
C193 C 0.94852 0.14904 0.29877 0.0
N194 N 0.89911 0.06449 0.2438 0.0
N195 N 0.97767 0.30002 0.20986 0.0
C196 C 0.91311 0.1248 0.24084 0.0
C197 C 0.95386 0.24521 0.22434 0.0
N198 N 0.85283 0.14464 0.13074 0.0
N199 N -0.00171 0.23333 0.35324 0.0
H200 H 0.96764 0.32752 0.16095 0.0
H201 H 0.00954 0.31659 0.24302 0.0
H202 H 0.01028 0.20779 0.403 0.0
H203 H 0.00912 0.27907 0.35689 0.0
H204 H 0.83073 0.10549 0.14116 0.0
H205 H 0.83799 0.17069 0.08342 0.0
H206 H 0.87871 0.0422 0.19788 0.0
H207 H 0.91126 0.0351 0.28961 0.0
C208 C 0.4182 0.36201 0.62338 0.0
C209 C 0.41736 0.29717 0.62641 0.0
C210 C 0.44448 0.30171 0.76788 0.0
C211 C 0.45127 0.36603 0.76146 0.0
N212 N 0.45551 0.45477 0.67449 0.0
N213 N 0.44282 0.2053 0.69687 0.0
C214 C 0.44193 0.39513 0.6865 0.0
C215 C 0.43462 0.26694 0.69725 0.0
N216 N 0.39556 0.39418 0.56218 0.0
N217 N 0.44389 0.27398 0.84128 0.0
H218 H 0.43749 0.17843 0.64569 0.0
H219 H 0.46016 0.18214 0.74494 0.0
H220 H 0.44698 0.29774 0.89529 0.0
H221 H 0.43409 0.22815 0.84876 0.0
H222 H 0.37356 0.37475 0.5155 0.0
H223 H 0.37356 0.37475 0.5155 0.0
H224 H 0.44834 0.47704 0.62008 0.0
H225 H 0.47798 0.47993 0.7155 0.0
C226 C 0.53904 0.74025 0.32021 0.0
C227 C 0.58223 0.72129 0.36855 0.0
C228 C 0.59476 0.63086 0.28423 0.0
C229 C 0.54937 0.64754 0.23927 0.0
N230 N 0.47511 0.71393 0.21622 0.0
N231 N 0.64735 0.64532 0.4044 0.0
C232 C 0.52048 0.7011 0.25779 0.0
C233 C 0.6092 0.66582 0.3525 0.0
N234 N 0.51651 0.79601 0.33347 0.0
N235 N 0.62436 0.58172 0.26126 0.0
H236 H 0.66061 0.67028 0.45375 0.0
H237 H 0.66351 0.6017 0.40221 0.0
H238 H 0.61333 0.55207 0.21505 0.0
H239 H 0.66162 0.57216 0.28461 0.0
H240 H 0.48818 0.8155 0.29597 0.0
H241 H 0.52874 0.82499 0.37978 0.0
H242 H 0.44918 0.74867 0.23168 0.0
H243 H 0.46155 0.68736 0.16828 0.0
C244 C 0.87709 0.17775 0.85336 0.0
C245 C 0.90681 0.23004 0.87557 0.0
C246 C 0.9657 0.21384 0.76221 0.0
C247 C 0.93972 0.15776 0.74608 0.0
N248 N 0.8753 0.08163 0.78165 0.0
N249 N 0.98061 0.29716 0.85595 0.0
C250 C 0.89626 0.13867 0.79251 0.0
C251 C 0.95137 0.24815 0.83104 0.0
N252 N 0.83058 0.16537 0.89067 0.0
N253 N 0.00301 0.23486 0.71051 0.0
H254 H 0.96965 0.32492 0.9039 0.0
H255 H 0.017 0.30853 0.83205 0.0
H256 H 0.01434 0.21075 0.65948 0.0
H257 H 0.0198 0.27811 0.71438 0.0
H258 H 0.80427 0.13199 0.87097 0.0
H259 H 0.81585 0.19173 0.93743 0.0
H260 H 0.84778 0.06233 0.81989 0.0
H261 H 0.88854 0.05101 0.73836 0.0
C262 C 0.37459 0.30572 0.2887 0.0
C263 C 0.41016 0.26729 0.3315 0.0
C264 C 0.4803 0.29345 0.23771 0.0
C265 C 0.44418 0.33094 0.19467 0.0
N266 N 0.35402 0.35539 0.16267 0.0
N267 N 0.49214 0.21216 0.33525 0.0
C268 C 0.39023 0.33083 0.21457 0.0
C269 C 0.46151 0.25685 0.30185 0.0
N270 N 0.32757 0.32242 0.32131 0.0
N271 N 0.5328 0.29559 0.22103 0.0
H272 H 0.47909 0.18468 0.38216 0.0
H273 H 0.52813 0.19865 0.31172 0.0
H274 H 0.54815 0.32125 0.17423 0.0
H275 H 0.56155 0.27497 0.25681 0.0
H276 H 0.30316 0.3556 0.29601 0.0
H277 H 0.31511 0.30812 0.3775 0.0
H278 H 0.31354 0.35179 0.17095 0.0
H279 H 0.36448 0.37338 0.10706 0.0
C280 C 0.0819 0.86367 0.91258 0.0
C281 C 0.08333 0.79895 0.90863 0.0
C282 C 0.05814 0.80405 0.76663 0.0
C283 C 0.04955 0.86799 0.77417 0.0
N284 N 0.03753 0.95375 0.86415 0.0
N285 N 0.0599 0.70716 0.8361 0.0
C286 C 0.05662 0.89644 0.85013 0.0
C287 C 0.06734 0.76891 0.83694 0.0
N288 N 0.1067 0.89438 0.97356 0.0
N289 N 0.0607 0.77711 0.69279 0.0
H290 H 0.06456 0.6801 0.88715 0.0
H291 H 0.04375 0.6841 0.78692 0.0
H292 H 0.05825 0.80141 0.63919 0.0
H293 H 0.07152 0.7316 0.68496 0.0
H294 H 0.11004 0.94183 0.97447 0.0
H295 H 0.12919 0.87268 0.01777 0.0
H296 H 0.03849 0.97388 0.9209 0.0
H297 H 0.01492 0.97779 0.82222 0.0
loop_
_geom_bond_atom_site_label_1
_geom_bond_atom_site_label_2
_geom_bond_distance
_geom_bond_site_symmetry_2
_ccdc_geom_bond_type
H0 C3 0.931 . S
H1 C6 0.928 . S
H2 C8 0.930 . S
C3 H0 0.931 . S
C3 C4 1.413 1_554 S
C3 C5 1.360 . S
C4 C3 1.413 1_556 S
C4 C8 1.429 . S
C5 C3 1.360 . S
C5 C6 1.372 . S
C6 H1 0.928 . S
C6 C5 1.372 . S
C6 C7 1.404 . S
C7 C6 1.404 . S
C7 C8 1.391 1_554 S
C8 H2 0.930 . S
C8 C4 1.429 . S
C8 C7 1.391 1_556 S
H9 C12 0.931 . S
H10 C15 0.928 . S
H11 C17 0.930 . S
C12 H9 0.931 . S
C12 C13 1.413 . S
C12 C14 1.360 . S
C13 C12 1.413 . S
C13 C17 1.429 . S
C14 C12 1.360 . S
C14 C15 1.372 . S
C15 H10 0.928 . S
C15 C14 1.372 . S
C15 C16 1.404 . S
C16 C15 1.404 . S
C16 C17 1.391 . S
C17 H11 0.930 . S
C17 C13 1.429 . S
C17 C16 1.391 . S
H18 C21 0.931 . S
H19 C24 0.928 . S
H20 C26 0.930 . S
C21 H18 0.931 . S
C21 C22 1.413 1_554 S
C21 C23 1.360 . S
C22 C21 1.413 1_556 S
C22 C26 1.429 . S
C23 C21 1.360 . S
C23 C24 1.372 . S
C24 H19 0.928 . S
C24 C23 1.372 . S
C24 C25 1.404 . S
C25 C24 1.404 . S
C25 C26 1.391 1_554 S
C26 H20 0.930 . S
C26 C22 1.429 . S
C26 C25 1.391 1_556 S
H27 C30 0.931 . S
H28 C33 0.928 . S
H29 C35 0.930 . S
C30 H27 0.931 . S
C30 C31 1.413 . S
C30 C32 1.360 . S
C31 C30 1.413 . S
C31 C35 1.429 . S
C32 C30 1.360 . S
C32 C33 1.372 . S
C33 H28 0.928 . S
C33 C32 1.372 . S
C33 C34 1.404 . S
C34 C33 1.404 . S
C34 C35 1.391 . S
C35 H29 0.930 . S
C35 C31 1.429 . S
C35 C34 1.391 . S
O36 Zn37 1.953 1_565 S
O36 C52 1.225 . S
Zn37 O36 1.953 1_545 S
Zn37 O38 1.949 1_655 S
Zn37 O44 1.919 . S
Zn37 O49 1.924 . S
O38 Zn37 1.949 1_455 S
O38 Zn39 1.923 . S
O38 Zn40 1.950 1_445 S
O38 Zn41 1.945 . S
Zn39 O38 1.923 . S
Zn39 O42 1.933 . S
Zn39 O45 1.941 . S
Zn39 O46 1.965 1_545 S
Zn40 O38 1.950 1_665 S
Zn40 O47 1.938 1_655 S
Zn40 O48 1.906 1_655 S
Zn40 O58 1.953 . S
Zn41 O38 1.945 . S
Zn41 O43 1.932 . S
Zn41 O50 1.977 1_545 S
Zn41 O51 1.910 1_455 S
O42 Zn39 1.933 . S
O42 C53 1.226 . S
O43 Zn41 1.932 . S
O43 C53 1.307 . S
O44 Zn37 1.919 . S
O44 C55 1.253 . S
O45 Zn39 1.941 . S
O45 C55 1.283 1_455 S
O46 Zn39 1.965 1_565 S
O46 C54 1.303 . S
O47 Zn40 1.938 1_455 S
O47 C54 1.247 . S
O48 Zn40 1.906 1_455 S
O48 C56 1.304 . S
O49 Zn37 1.924 . S
O49 C57 1.311 . S
O50 Zn41 1.977 1_565 S
O50 C56 1.272 . S
O51 Zn41 1.910 1_655 S
O51 C57 1.231 . S
C52 O36 1.225 . S
C52 O58 1.298 . S
C53 O42 1.226 . S
C53 O43 1.307 . S
C54 O46 1.303 . S
C54 O47 1.247 . S
C55 O44 1.253 . S
C55 O45 1.283 1_655 S
C56 O48 1.304 . S
C56 O50 1.272 . S
C57 O49 1.311 . S
C57 O51 1.231 . S
O58 Zn40 1.953 . S
O58 C52 1.298 . S
O59 Zn60 1.953 . S
O59 C75 1.225 . S
Zn60 O59 1.953 . S
Zn60 O61 1.949 . S
Zn60 O67 1.919 1_554 S
Zn60 O72 1.924 . S
O61 Zn60 1.949 . S
O61 Zn62 1.923 1_554 S
O61 Zn63 1.950 . S
O61 Zn64 1.945 . S
Zn62 O61 1.923 1_556 S
Zn62 O65 1.933 . S
Zn62 O68 1.941 . S
Zn62 O69 1.965 . S
Zn63 O61 1.950 . S
Zn63 O70 1.938 1_554 S
Zn63 O71 1.906 . S
Zn63 O81 1.953 . S
Zn64 O61 1.945 . S
Zn64 O66 1.932 . S
Zn64 O73 1.977 . S
Zn64 O74 1.910 . S
O65 Zn62 1.933 . S
O65 C76 1.226 1_556 S
O66 Zn64 1.932 . S
O66 C76 1.307 . S
O67 Zn60 1.919 1_556 S
O67 C78 1.253 . S
O68 Zn62 1.941 . S
O68 C78 1.283 . S
O69 Zn62 1.965 . S
O69 C77 1.303 . S
O70 Zn63 1.938 1_556 S
O70 C77 1.247 . S
O71 Zn63 1.906 . S
O71 C79 1.304 . S
O72 Zn60 1.924 . S
O72 C80 1.311 . S
O73 Zn64 1.977 . S
O73 C79 1.272 . S
O74 Zn64 1.910 . S
O74 C80 1.231 . S
C75 O59 1.225 . S
C75 O81 1.298 . S
C76 O65 1.226 1_554 S
C76 O66 1.307 . S
C77 O69 1.303 . S
C77 O70 1.247 . S
C78 O67 1.253 . S
C78 O68 1.283 . S
C79 O71 1.304 . S
C79 O73 1.272 . S
C80 O72 1.311 . S
C80 O74 1.231 . S
O81 Zn63 1.953 . S
O81 C75 1.298 . S
C82 C83 1.363 . S
C82 C88 1.379 . S
C82 N90 1.356 . S
C83 C82 1.363 . S
C83 C89 1.363 . S
C84 C85 1.363 . S
C84 C89 1.379 . S
C84 N91 1.356 . S
C85 C84 1.363 . S
C85 C88 1.363 . S
N86 C88 1.356 . S
N86 H98 0.984 . S
N86 H99 0.985 . S
N87 C89 1.356 . S
N87 H92 0.984 . S
N87 H93 0.985 . S
C88 C82 1.379 . S
C88 C85 1.363 . S
C88 N86 1.356 . S
C89 C83 1.363 . S
C89 C84 1.379 . S
C89 N87 1.356 . S
N90 C82 1.356 . S
N90 H96 0.984 . S
N90 H97 0.984 . S
N91 C84 1.356 . S
N91 H94 0.984 . S
N91 H95 0.985 . S
H92 N87 0.984 . S
H93 N87 0.985 . S
H94 N91 0.984 . S
H95 N91 0.985 . S
H96 N90 0.984 . S
H97 N90 0.984 . S
H98 N86 0.984 . S
H99 N86 0.985 . S
C100 C101 1.363 . S
C100 C106 1.379 . S
C100 N108 1.356 . S
C101 C100 1.363 . S
C101 C107 1.363 1_554 S
C102 C103 1.363 1_556 S
C102 C107 1.379 . S
C102 N109 1.356 . S
C103 C102 1.363 1_554 S
C103 C106 1.363 . S
N104 C106 1.356 . S
N104 H116 0.984 . S
N104 H117 0.985 . S
N105 C107 1.356 . S
N105 H110 0.984 . S
N105 H111 0.985 . S
C106 C100 1.379 . S
C106 C103 1.363 . S
C106 N104 1.356 . S
C107 C101 1.363 1_556 S
C107 C102 1.379 . S
C107 N105 1.356 . S
N108 C100 1.356 . S
N108 H114 0.984 . S
N108 H115 0.984 . S
N109 C102 1.356 . S
N109 H112 0.984 . S
N109 H113 0.985 . S
H110 N105 0.984 . S
H111 N105 0.985 . S
H112 N109 0.984 . S
H113 N109 0.985 . S
H114 N108 0.984 . S
H115 N108 0.984 . S
H116 N104 0.984 . S
H117 N104 0.985 . S
C118 C119 1.363 . S
C118 C124 1.379 . S
C118 N126 1.356 . S
C119 C118 1.363 . S
C119 C125 1.363 . S
C120 C121 1.363 . S
C120 C125 1.379 . S
C120 N127 1.356 . S
C121 C120 1.363 . S
C121 C124 1.363 . S
N122 C124 1.356 . S
N122 H134 0.984 . S
N122 H135 0.985 . S
N123 C125 1.356 . S
N123 H128 0.984 . S
N123 H129 0.985 . S
C124 C118 1.379 . S
C124 C121 1.363 . S
C124 N122 1.356 . S
C125 C119 1.363 . S
C125 C120 1.379 . S
C125 N123 1.356 . S
N126 C118 1.356 . S
N126 H132 0.984 . S
N126 H133 0.984 . S
N127 C120 1.356 . S
N127 H130 0.984 . S
N127 H131 0.985 . S
H128 N123 0.984 . S
H129 N123 0.985 . S
H130 N127 0.984 . S
H131 N127 0.985 . S
H132 N126 0.984 . S
H133 N126 0.984 . S
H134 N122 0.984 . S
H135 N122 0.985 . S
C136 C137 1.363 1_556 S
C136 C142 1.379 . S
C136 N144 1.356 . S
C137 C136 1.363 1_554 S
C137 C143 1.363 . S
C138 C139 1.363 . S
C138 C143 1.379 . S
C138 N145 1.356 . S
C139 C138 1.363 . S
C139 C142 1.363 1_554 S
N140 C142 1.356 . S
N140 H152 0.984 . S
N140 H153 0.985 . S
N141 C143 1.356 . S
N141 H146 0.984 . S
N141 H147 0.985 . S
C142 C136 1.379 . S
C142 C139 1.363 1_556 S
C142 N140 1.356 . S
C143 C137 1.363 . S
C143 C138 1.379 . S
C143 N141 1.356 . S
N144 C136 1.356 . S
N144 H150 0.984 . S
N144 H151 0.984 . S
N145 C138 1.356 . S
N145 H148 0.984 . S
N145 H149 0.985 . S
H146 N141 0.984 . S
H147 N141 0.985 . S
H148 N145 0.984 . S
H149 N145 0.985 . S
H150 N144 0.984 . S
H151 N144 0.984 . S
H152 N140 0.984 . S
H153 N140 0.985 . S
C154 C155 1.363 . S
C154 C160 1.379 . S
C154 N162 1.356 . S
C155 C154 1.363 . S
C155 C161 1.363 . S
C156 C157 1.363 . S
C156 C161 1.379 . S
C156 N163 1.356 . S
C157 C156 1.363 . S
C157 C160 1.363 . S
N158 C160 1.356 . S
N158 H170 0.984 1_455 S
N158 H171 0.985 . S
N159 C161 1.356 . S
N159 H164 0.984 . S
N159 H165 0.985 . S
C160 C154 1.379 . S
C160 C157 1.363 . S
C160 N158 1.356 . S
C161 C155 1.363 . S
C161 C156 1.379 . S
C161 N159 1.356 . S
N162 C154 1.356 . S
N162 H168 0.984 1_455 S
N162 H169 0.984 . S
N163 C156 1.356 . S
N163 H166 0.984 . S
N163 H167 0.985 . S
H164 N159 0.984 . S
H165 N159 0.985 . S
H166 N163 0.984 . S
H167 N163 0.985 . S
H168 N162 0.984 1_655 S
H169 N162 0.984 . S
H170 N158 0.984 1_655 S
H171 N158 0.985 . S
C172 C173 1.363 . S
C172 C178 1.379 . S
C172 N180 1.356 . S
C173 C172 1.363 . S
C173 C179 1.363 . S
C174 C175 1.363 . S
C174 C179 1.379 . S
C174 N181 1.356 . S
C175 C174 1.363 . S
C175 C178 1.363 . S
N176 C178 1.356 . S
N176 H188 0.984 . S
N176 H189 0.985 . S
N177 C179 1.356 . S
N177 H182 0.984 . S
N177 H183 0.985 . S
C178 C172 1.379 . S
C178 C175 1.363 . S
C178 N176 1.356 . S
C179 C173 1.363 . S
C179 C174 1.379 . S
C179 N177 1.356 . S
N180 C172 1.356 . S
N180 H186 0.984 . S
N180 H187 0.984 . S
N181 C174 1.356 . S
N181 H184 0.984 . S
N181 H185 0.985 . S
H182 N177 0.984 . S
H183 N177 0.985 . S
H184 N181 0.984 . S
H185 N181 0.985 . S
H186 N180 0.984 . S
H187 N180 0.984 . S
H188 N176 0.984 . S
H189 N176 0.985 . S
C190 C191 1.363 . S
C190 C196 1.379 . S
C190 N198 1.356 . S
C191 C190 1.363 . S
C191 C197 1.363 . S
C192 C193 1.363 . S
C192 C197 1.379 . S
C192 N199 1.356 . S
C193 C192 1.363 . S
C193 C196 1.363 . S
N194 C196 1.356 . S
N194 H206 0.984 . S
N194 H207 0.985 . S
N195 C197 1.356 . S
N195 H200 0.984 . S
N195 H201 0.985 . S
C196 C190 1.379 . S
C196 C193 1.363 . S
C196 N194 1.356 . S
C197 C191 1.363 . S
C197 C192 1.379 . S
C197 N195 1.356 . S
N198 C190 1.356 . S
N198 H204 0.984 . S
N198 H205 0.984 . S
N199 C192 1.356 . S
N199 H202 0.984 . S
N199 H203 0.985 1_655 S
H200 N195 0.984 . S
H201 N195 0.985 . S
H202 N199 0.984 . S
H203 N199 0.985 1_455 S
H204 N198 0.984 . S
H205 N198 0.984 . S
H206 N194 0.984 . S
H207 N194 0.985 . S
C208 C209 1.363 . S
C208 C214 1.379 . S
C208 N216 1.356 . S
C209 C208 1.363 . S
C209 C215 1.363 . S
C210 C211 1.363 . S
C210 C215 1.379 . S
C210 N217 1.356 . S
C211 C210 1.363 . S
C211 C214 1.363 . S
N212 C214 1.356 . S
N212 H224 0.984 . S
N212 H225 0.985 . S
N213 C215 1.356 . S
N213 H218 0.984 . S
N213 H219 0.985 . S
C214 C208 1.379 . S
C214 C211 1.363 . S
C214 N212 1.356 . S
C215 C209 1.363 . S
C215 C210 1.379 . S
C215 N213 1.356 . S
N216 C208 1.356 . S
N216 H222 0.984 . S
N216 H223 0.984 . S
N217 C210 1.356 . S
N217 H220 0.984 . S
N217 H221 0.985 . S
H218 N213 0.984 . S
H219 N213 0.985 . S
H220 N217 0.984 . S
H221 N217 0.985 . S
H222 N216 0.984 . S
H223 N216 0.984 . S
H224 N212 0.984 . S
H225 N212 0.985 . S
C226 C227 1.363 . S
C226 C232 1.379 . S
C226 N234 1.356 . S
C227 C226 1.363 . S
C227 C233 1.363 . S
C228 C229 1.363 . S
C228 C233 1.379 . S
C228 N235 1.356 . S
C229 C228 1.363 . S
C229 C232 1.363 . S
N230 C232 1.356 . S
N230 H242 0.984 . S
N230 H243 0.985 . S
N231 C233 1.356 . S
N231 H236 0.984 . S
N231 H237 0.985 . S
C232 C226 1.379 . S
C232 C229 1.363 . S
C232 N230 1.356 . S
C233 C227 1.363 . S
C233 C228 1.379 . S
C233 N231 1.356 . S
N234 C226 1.356 . S
N234 H240 0.984 . S
N234 H241 0.984 . S
N235 C228 1.356 . S
N235 H238 0.984 . S
N235 H239 0.985 . S
H236 N231 0.984 . S
H237 N231 0.985 . S
H238 N235 0.984 . S
H239 N235 0.985 . S
H240 N234 0.984 . S
H241 N234 0.984 . S
H242 N230 0.984 . S
H243 N230 0.985 . S
C244 C245 1.363 . S
C244 C250 1.379 . S
C244 N252 1.356 . S
C245 C244 1.363 . S
C245 C251 1.363 . S
C246 C247 1.363 . S
C246 C251 1.379 . S
C246 N253 1.356 . S
C247 C246 1.363 . S
C247 C250 1.363 . S
N248 C250 1.356 1_455 S
N248 H260 0.984 . S
N248 H261 0.985 . S
N249 C251 1.356 . S
N249 H254 0.984 . S
N249 H255 0.985 . S
C250 C244 1.379 . S
C250 C247 1.363 . S
C250 N248 1.356 1_655 S
C251 C245 1.363 . S
C251 C246 1.379 . S
C251 N249 1.356 . S
N252 C244 1.356 . S
N252 H258 0.984 1_556 S
N252 H259 0.984 1_556 S
N253 C246 1.356 . S
N253 H256 0.984 . S
N253 H257 0.985 . S
H254 N249 0.984 . S
H255 N249 0.985 . S
H256 N253 0.984 . S
H257 N253 0.985 . S
H258 N252 0.984 1_554 S
H259 N252 0.984 1_554 S
H260 N248 0.984 . S
H261 N248 0.985 . S
C262 C263 1.363 . S
C262 C268 1.379 . S
C262 N270 1.356 . S
C263 C262 1.363 . S
C263 C269 1.363 . S
C264 C265 1.363 . S
C264 C269 1.379 . S
C264 N271 1.356 . S
C265 C264 1.363 . S
C265 C268 1.363 . S
N266 C268 1.356 . S
N266 H278 0.984 . S
N266 H279 0.985 . S
N267 C269 1.356 . S
N267 H272 0.984 . S
N267 H273 0.985 . S
C268 C262 1.379 . S
C268 C265 1.363 . S
C268 N266 1.356 . S
C269 C263 1.363 . S
C269 C264 1.379 . S
C269 N267 1.356 . S
N270 C262 1.356 . S
N270 H276 0.984 . S
N270 H277 0.984 . S
N271 C264 1.356 . S
N271 H274 0.984 . S
N271 H275 0.985 . S
H272 N267 0.984 . S
H273 N267 0.985 . S
H274 N271 0.984 . S
H275 N271 0.985 . S
H276 N270 0.984 . S
H277 N270 0.984 . S
H278 N266 0.984 . S
H279 N266 0.985 . S
C280 C281 1.363 . S
C280 C286 1.379 . S
C280 N288 1.356 . S
C281 C280 1.363 . S
C281 C287 1.363 . S
C282 C283 1.363 . S
C282 C287 1.379 . S
C282 N289 1.356 . S
C283 C282 1.363 . S
C283 C286 1.363 . S
N284 C286 1.356 1_655 S
N284 H296 0.984 . S
N284 H297 0.985 . S
N285 C287 1.356 . S
N285 H290 0.984 . S
N285 H291 0.985 . S
C286 C280 1.379 . S
C286 C283 1.363 . S
C286 N284 1.356 1_455 S
C287 C281 1.363 . S
C287 C282 1.379 . S
C287 N285 1.356 . S
N288 C280 1.356 . S
N288 H294 0.984 1_556 S
N288 H295 0.984 1_556 S
N289 C282 1.356 . S
N289 H292 0.984 . S
N289 H293 0.985 . S
H290 N285 0.984 . S
H291 N285 0.985 . S
H292 N289 0.984 . S
H293 N289 0.985 . S
H294 N288 0.984 1_554 S
H295 N288 0.984 1_554 S
H296 N284 0.984 . S
H297 N284 0.985 . S
C85 C53 1.537 . S
C83 C34 1.520 . S
C101 C7 1.515 . S
C103 C76 1.537 . S
C119 C16 1.525 . S
C121 C52 1.548 . S
C137 C25 1.525 . S
C139 C75 1.548 . S
C157 C56 1.511 . S
C155 C5 1.549 . S
C175 C78 1.513 . S
C173 C13 1.559 . S
C191 C23 1.560 . S
C193 C57 1.521 . S
C209 C32 1.552 . S
C211 C77 1.510 . S
C229 C80 1.519 . S
C227 C14 1.558 . S
C247 C55 1.512 . S
C245 C22 1.558 . S
C265 C79 1.510 . S
C263 C31 1.555 . S
C281 C4 1.547 . S
C283 C54 1.508 . S
