# Generated by pormake.
# Topology the, (3,8)-cn, num edge types: 1
# Building blocks:
#     Node 0, Type 0, BuildingBlock: VETTIZ_charged_linker_0, # of connection points: 3
#     Node 1, Type 0, BuildingBlock: VETTIZ_charged_linker_0, # of connection points: 3
#     Node 2, Type 0, BuildingBlock: VETTIZ_charged_linker_0, # of connection points: 3
#     Node 3, Type 0, BuildingBlock: VETTIZ_charged_linker_0, # of connection points: 3
#     Node 4, Type 0, BuildingBlock: VETTIZ_charged_linker_0, # of connection points: 3
#     Node 5, Type 0, BuildingBlock: VETTIZ_charged_linker_0, # of connection points: 3
#     Node 6, Type 0, BuildingBlock: VETTIZ_charged_linker_0, # of connection points: 3
#     Node 7, Type 0, BuildingBlock: VETTIZ_charged_linker_0, # of connection points: 3
#     Node 8, Type 1, BuildingBlock: GIZVER_clean_sbu_0, # of connection points: 8
#     Node 9, Type 1, BuildingBlock: GIZVER_clean_sbu_0, # of connection points: 8
#     Node 10, Type 1, BuildingBlock: GIZVER_clean_sbu_0, # of connection points: 8
#     Edge 11, Type (0, 1), BuildingBlock: AJUNOK_clean_linker_0, # of connection points: 2
#     Edge 12, Type (0, 1), BuildingBlock: AJUNOK_clean_linker_0, # of connection points: 2
#     Edge 13, Type (0, 1), BuildingBlock: AJUNOK_clean_linker_0, # of connection points: 2
#     Edge 14, Type (0, 1), BuildingBlock: AJUNOK_clean_linker_0, # of connection points: 2
#     Edge 15, Type (0, 1), BuildingBlock: AJUNOK_clean_linker_0, # of connection points: 2
#     Edge 16, Type (0, 1), BuildingBlock: AJUNOK_clean_linker_0, # of connection points: 2
#     Edge 17, Type (0, 1), BuildingBlock: AJUNOK_clean_linker_0, # of connection points: 2
#     Edge 18, Type (0, 1), BuildingBlock: AJUNOK_clean_linker_0, # of connection points: 2
#     Edge 19, Type (0, 1), BuildingBlock: AJUNOK_clean_linker_0, # of connection points: 2
#     Edge 20, Type (0, 1), BuildingBlock: AJUNOK_clean_linker_0, # of connection points: 2
#     Edge 21, Type (0, 1), BuildingBlock: AJUNOK_clean_linker_0, # of connection points: 2
#     Edge 22, Type (0, 1), BuildingBlock: AJUNOK_clean_linker_0, # of connection points: 2
#     Edge 23, Type (0, 1), BuildingBlock: AJUNOK_clean_linker_0, # of connection points: 2
#     Edge 24, Type (0, 1), BuildingBlock: AJUNOK_clean_linker_0, # of connection points: 2
#     Edge 25, Type (0, 1), BuildingBlock: AJUNOK_clean_linker_0, # of connection points: 2
#     Edge 26, Type (0, 1), BuildingBlock: AJUNOK_clean_linker_0, # of connection points: 2
#     Edge 27, Type (0, 1), BuildingBlock: AJUNOK_clean_linker_0, # of connection points: 2
#     Edge 28, Type (0, 1), BuildingBlock: AJUNOK_clean_linker_0, # of connection points: 2
#     Edge 29, Type (0, 1), BuildingBlock: AJUNOK_clean_linker_0, # of connection points: 2
#     Edge 30, Type (0, 1), BuildingBlock: AJUNOK_clean_linker_0, # of connection points: 2
#     Edge 31, Type (0, 1), BuildingBlock: AJUNOK_clean_linker_0, # of connection points: 2
#     Edge 32, Type (0, 1), BuildingBlock: AJUNOK_clean_linker_0, # of connection points: 2
#     Edge 33, Type (0, 1), BuildingBlock: AJUNOK_clean_linker_0, # of connection points: 2
#     Edge 34, Type (0, 1), BuildingBlock: AJUNOK_clean_linker_0, # of connection points: 2
# Relax obj value: 0.049
# Max RMSD: 0.137
# Mean RMSD: 0.074
data_MOF--net-the--node1-GIZVER_clean_sbu_0--node2-VETTIZ_charged_linker_0--edge1-AJUNOK_clean_linker_0
_symmetry_space_group_name_H-M    P1
_symmetry_Int_Tables_number       1
_symmetry_cell_setting            triclinic
loop_
_symmetry_equiv_pos_as_xyz
'x, y, z'
_cell_length_a     39.382894
_cell_length_b     37.298057
_cell_length_c     34.638129
_cell_angle_alpha  86.580622
_cell_angle_beta   95.599129
_cell_angle_gamma 104.08926
loop_
_atom_site_label
_atom_site_type_symbol
_atom_site_fract_x
_atom_site_fract_y
_atom_site_fract_z
_atom_type_partial_charge
C0 C 0.36485 0.24241 0.46448 0.0
C1 C 0.3937 0.23331 0.4499 0.0
C2 C 0.41204 0.25677 0.42155 0.0
C3 C 0.37126 0.2958 0.41979 0.0
C4 C 0.35419 0.274 0.44908 0.0
C5 C 0.32364 0.28789 0.46002 0.0
H6 H 0.22089 0.41012 0.42275 0.0
C7 C 0.35237 0.32459 0.40762 0.0
C8 C 0.32461 0.32059 0.43128 0.0
H9 H 0.21227 0.32492 0.51368 0.0
H10 H 0.26254 0.3065 0.4924 0.0
H11 H 0.23272 0.36148 0.35764 0.0
H12 H 0.30509 0.43874 0.43188 0.0
H13 H 0.31884 0.44701 0.38464 0.0
H14 H 0.2761 0.45241 0.39367 0.0
H15 H 0.24024 0.41051 0.34859 0.0
H16 H 0.26683 0.38377 0.32935 0.0
C17 C 0.28971 0.25699 0.45294 0.0
C18 C 0.33156 0.30016 0.50255 0.0
C19 C 0.38634 0.40528 0.28796 0.0
C20 C 0.37157 0.43172 0.26661 0.0
C21 C 0.34314 0.44233 0.28041 0.0
C22 C 0.32913 0.42606 0.31478 0.0
C23 C 0.34357 0.39872 0.33526 0.0
C24 C 0.37187 0.38905 0.32185 0.0
C25 C 0.3831 0.35866 0.34626 0.0
C26 C 0.3567 0.35143 0.3766 0.0
C27 C 0.33371 0.37489 0.37003 0.0
C28 C 0.37839 0.32507 0.32016 0.0
C29 C 0.42121 0.37403 0.36423 0.0
C30 C 0.23006 0.38764 0.43819 0.0
C31 C 0.21329 0.36908 0.46999 0.0
C32 C 0.22519 0.33952 0.48912 0.0
C33 C 0.2543 0.32908 0.47678 0.0
C34 C 0.27107 0.34826 0.44485 0.0
C35 C 0.25867 0.37694 0.42619 0.0
C36 C 0.27883 0.39406 0.39251 0.0
C37 C 0.30617 0.37166 0.39438 0.0
C38 C 0.30157 0.34473 0.42491 0.0
C39 C 0.25354 0.38749 0.35496 0.0
C40 C 0.29552 0.4353 0.4007 0.0
H41 H 0.41578 0.30415 0.38446 0.0
H42 H 0.35072 0.22511 0.4868 0.0
H43 H 0.36001 0.31306 0.50892 0.0
H44 H 0.31799 0.32152 0.50884 0.0
H45 H 0.3244 0.27618 0.52328 0.0
H46 H 0.28968 0.24339 0.4252 0.0
H47 H 0.28757 0.23537 0.47667 0.0
H48 H 0.26565 0.26741 0.45011 0.0
H49 H 0.40799 0.39637 0.27769 0.0
H50 H 0.33165 0.46297 0.26444 0.0
H51 H 0.3073 0.43502 0.32375 0.0
H52 H 0.35435 0.3223 0.29972 0.0
H53 H 0.40112 0.3283 0.30254 0.0
H54 H 0.37462 0.29831 0.3365 0.0
H55 H 0.42697 0.40446 0.36757 0.0
H56 H 0.42588 0.36262 0.39398 0.0
H57 H 0.44079 0.36859 0.34575 0.0
H58 H 0.43426 0.2502 0.40988 0.0
C59 C 0.40108 0.28796 0.40657 0.0
C60 C 0.65515 0.20642 0.37332 0.0
C61 C 0.61985 0.18768 0.36332 0.0
C62 C 0.6003 0.20349 0.33369 0.0
C63 C 0.64979 0.25586 0.32586 0.0
C64 C 0.66931 0.24066 0.35469 0.0
C65 C 0.70529 0.26584 0.36358 0.0
H66 H 0.82059 0.43132 0.33336 0.0
C67 C 0.67145 0.29204 0.31304 0.0
C68 C 0.70406 0.29833 0.33499 0.0
H69 H 0.83349 0.34283 0.41562 0.0
H70 H 0.77757 0.30521 0.39086 0.0
H71 H 0.73881 0.42512 0.34486 0.0
H72 H 0.78443 0.37607 0.25886 0.0
H73 H 0.75094 0.39605 0.23641 0.0
H74 H 0.78964 0.4252 0.26032 0.0
H75 H 0.76407 0.45269 0.30845 0.0
H76 H 0.71812 0.43143 0.29832 0.0
C77 C 0.70811 0.27725 0.40626 0.0
C78 C 0.73319 0.24531 0.35462 0.0
C79 C 0.61782 0.36593 0.2074 0.0
C80 C 0.62866 0.40127 0.18995 0.0
C81 C 0.66295 0.42241 0.20041 0.0
C82 C 0.68541 0.40885 0.22888 0.0
C83 C 0.67348 0.37375 0.24705 0.0
C84 C 0.64017 0.35306 0.23579 0.0
C85 C 0.6308 0.31699 0.25825 0.0
C86 C 0.66411 0.31875 0.28465 0.0
C87 C 0.68927 0.35198 0.27833 0.0
C88 C 0.59897 0.31734 0.28136 0.0
C89 C 0.62421 0.28544 0.22919 0.0
C90 C 0.81149 0.40367 0.34575 0.0
C91 C 0.83188 0.39 0.37634 0.0
C92 C 0.81892 0.35386 0.39158 0.0
C93 C 0.7861 0.3322 0.37749 0.0
C94 C 0.76561 0.34671 0.34787 0.0
C95 C 0.77864 0.3817 0.33201 0.0
C96 C 0.75309 0.39261 0.30076 0.0
C97 C 0.72237 0.35873 0.30095 0.0
C98 C 0.72983 0.33191 0.32885 0.0
C99 C 0.74298 0.42744 0.3134 0.0
C100 C 0.7703 0.39806 0.26192 0.0
H101 H 0.59842 0.24728 0.29279 0.0
H102 H 0.67139 0.19501 0.39535 0.0
H103 H 0.72418 0.2286 0.32838 0.0
H104 H 0.7583 0.26431 0.34786 0.0
H105 H 0.73825 0.2262 0.37916 0.0
H106 H 0.68271 0.28185 0.41381 0.0
H107 H 0.71486 0.25537 0.42661 0.0
H108 H 0.72745 0.30363 0.41199 0.0
H109 H 0.59197 0.34862 0.19954 0.0
H110 H 0.67201 0.44975 0.18729 0.0
H111 H 0.71096 0.42638 0.23609 0.0
H112 H 0.59824 0.34601 0.28783 0.0
H113 H 0.57368 0.30475 0.26482 0.0
H114 H 0.60014 0.30312 0.31024 0.0
H115 H 0.6426 0.29278 0.20595 0.0
H116 H 0.62896 0.25933 0.24269 0.0
H117 H 0.59703 0.28006 0.21494 0.0
H118 H 0.57302 0.19039 0.32564 0.0
C119 C 0.61505 0.23704 0.31484 0.0
C120 C 0.81472 0.70557 0.39105 0.0
C121 C 0.83204 0.68151 0.37581 0.0
C122 C 0.82148 0.66873 0.3381 0.0
C123 C 0.77476 0.70113 0.33251 0.0
C124 C 0.78647 0.71541 0.36868 0.0
C125 C 0.76493 0.74072 0.3801 0.0
H126 H 0.62525 0.8169 0.34042 0.0
C127 C 0.7433 0.71445 0.318 0.0
C128 C 0.73773 0.73821 0.34541 0.0
H129 H 0.70102 0.83272 0.44068 0.0
H130 H 0.73244 0.79292 0.41432 0.0
H131 H 0.6176 0.72902 0.33925 0.0
H132 H 0.67967 0.82039 0.27539 0.0
H133 H 0.66166 0.78476 0.24296 0.0
H134 H 0.63277 0.80575 0.26638 0.0
H135 H 0.59837 0.75503 0.3017 0.0
H136 H 0.61516 0.71625 0.29091 0.0
C137 C 0.74808 0.72456 0.41794 0.0
C138 C 0.78917 0.78012 0.38351 0.0
C139 C 0.66935 0.6588 0.19788 0.0
C140 C 0.63748 0.66348 0.17874 0.0
C141 C 0.62248 0.69111 0.19098 0.0
C142 C 0.63826 0.71271 0.22273 0.0
C143 C 0.66932 0.70654 0.24269 0.0
C144 C 0.68477 0.68054 0.22954 0.0
C145 C 0.71787 0.67788 0.25395 0.0
C146 C 0.71914 0.70567 0.28473 0.0
C147 C 0.69049 0.72216 0.27824 0.0
C148 C 0.71263 0.6379 0.27146 0.0
C149 C 0.74918 0.68997 0.22831 0.0
C150 C 0.64857 0.81171 0.35672 0.0
C151 C 0.66056 0.82775 0.39284 0.0
C152 C 0.6914 0.82084 0.41275 0.0
C153 C 0.70949 0.79759 0.39744 0.0
C154 C 0.69668 0.78104 0.36175 0.0
C155 C 0.66676 0.78834 0.34196 0.0
C156 C 0.65632 0.76747 0.30506 0.0
C157 C 0.68536 0.74707 0.30546 0.0
C158 C 0.70884 0.75502 0.33885 0.0
C159 C 0.61988 0.74062 0.309 0.0
C160 C 0.65734 0.79585 0.27045 0.0
H161 H 0.78548 0.66689 0.28829 0.0
H162 H 0.82242 0.71563 0.42008 0.0
H163 H 0.809 0.78541 0.36176 0.0
H164 H 0.77482 0.80212 0.37732 0.0
H165 H 0.80363 0.78386 0.41273 0.0
H166 H 0.74003 0.69382 0.41779 0.0
H167 H 0.76692 0.73233 0.44379 0.0
H168 H 0.72381 0.7333 0.42169 0.0
H169 H 0.68153 0.63787 0.18899 0.0
H170 H 0.59768 0.6949 0.17705 0.0
H171 H 0.62518 0.73275 0.23114 0.0
H172 H 0.68629 0.62845 0.28275 0.0
H173 H 0.71443 0.61837 0.24918 0.0
H174 H 0.73169 0.63519 0.2963 0.0
H175 H 0.74334 0.70835 0.20334 0.0
H176 H 0.77302 0.70656 0.24427 0.0
H177 H 0.75561 0.6657 0.2163 0.0
H178 H 0.83437 0.64985 0.32617 0.0
C179 C 0.79292 0.67837 0.31638 0.0
C180 C 0.39212 0.81494 0.36501 0.0
C181 C 0.38055 0.83325 0.39359 0.0
C182 C 0.34635 0.81954 0.40515 0.0
C183 C 0.33654 0.76853 0.3616 0.0
C184 C 0.36974 0.78284 0.34935 0.0
C185 C 0.37854 0.75908 0.31992 0.0
H186 H 0.33304 0.60265 0.21693 0.0
C187 C 0.32093 0.73341 0.3416 0.0
C188 C 0.34541 0.72798 0.31682 0.0
H189 H 0.4287 0.68888 0.21531 0.0
H190 H 0.40758 0.72313 0.26106 0.0
H191 H 0.32937 0.60086 0.30927 0.0
H192 H 0.28124 0.6548 0.21368 0.0
H193 H 0.2496 0.64178 0.24741 0.0
H194 H 0.26539 0.6066 0.22597 0.0
H195 H 0.29466 0.57653 0.27619 0.0
H196 H 0.28563 0.59652 0.31905 0.0
C197 C 0.41098 0.74502 0.33702 0.0
C198 C 0.38391 0.78218 0.28139 0.0
C199 C 0.20196 0.65233 0.37501 0.0
C200 C 0.18174 0.61807 0.36141 0.0
C201 C 0.19424 0.60118 0.33226 0.0
C202 C 0.22625 0.61774 0.31707 0.0
C203 C 0.24638 0.65163 0.3312 0.0
C204 C 0.23404 0.66866 0.35937 0.0
C205 C 0.25914 0.70483 0.37045 0.0
C206 C 0.28863 0.70636 0.34454 0.0
C207 C 0.28101 0.67486 0.32197 0.0
C208 C 0.27163 0.70164 0.41401 0.0
C209 C 0.24025 0.73642 0.35994 0.0
C210 C 0.3494 0.62894 0.22641 0.0
C211 C 0.38237 0.64326 0.21211 0.0
C212 C 0.40285 0.67761 0.22521 0.0
C213 C 0.39064 0.69733 0.25202 0.0
C214 C 0.35757 0.68258 0.26609 0.0
C215 C 0.33757 0.64897 0.25308 0.0
C216 C 0.30316 0.63735 0.271 0.0
C217 C 0.30561 0.66955 0.2968 0.0
C218 C 0.33759 0.69593 0.2941 0.0
C219 C 0.30278 0.6008 0.29499 0.0
C220 C 0.2731 0.63465 0.23803 0.0
H221 H 0.29874 0.7779 0.3998 0.0
H222 H 0.41859 0.82454 0.35627 0.0
H223 H 0.36566 0.80091 0.27697 0.0
H224 H 0.37799 0.76497 0.2556 0.0
H225 H 0.41114 0.79962 0.28133 0.0
H226 H 0.40941 0.73778 0.36854 0.0
H227 H 0.43569 0.76652 0.33371 0.0
H228 H 0.41299 0.71947 0.32388 0.0
H229 H 0.19311 0.66593 0.39752 0.0
H230 H 0.17974 0.57443 0.32198 0.0
H231 H 0.23432 0.60309 0.29528 0.0
H232 H 0.27737 0.67413 0.42131 0.0
H233 H 0.25111 0.70469 0.43257 0.0
H234 H 0.29624 0.72206 0.42238 0.0
H235 H 0.22195 0.7303 0.3333 0.0
H236 H 0.25858 0.76302 0.35301 0.0
H237 H 0.22462 0.74022 0.38374 0.0
H238 H 0.3373 0.8329 0.42773 0.0
C239 C 0.32423 0.7874 0.38922 0.0
C240 C 0.41581 0.64866 0.81451 0.0
C241 C 0.40482 0.61268 0.83032 0.0
C242 C 0.37149 0.59108 0.81684 0.0
C243 C 0.36197 0.64124 0.77152 0.0
C244 C 0.39453 0.66203 0.78532 0.0
C245 C 0.40448 0.699 0.7648 0.0
H246 H 0.36748 0.82807 0.63414 0.0
C247 C 0.34676 0.66444 0.74108 0.0
C248 C 0.37186 0.69832 0.73763 0.0
H249 H 0.46487 0.8275 0.70355 0.0
H250 H 0.43848 0.76935 0.7332 0.0
H251 H 0.31654 0.79889 0.69535 0.0
H252 H 0.35085 0.73703 0.61243 0.0
H253 H 0.30439 0.72579 0.61121 0.0
H254 H 0.32732 0.77252 0.60091 0.0
H255 H 0.29336 0.7907 0.64836 0.0
H256 H 0.2829 0.75842 0.68898 0.0
C257 C 0.41024 0.72917 0.79534 0.0
C258 C 0.43706 0.69981 0.74243 0.0
C259 C 0.22688 0.61728 0.66456 0.0
C260 C 0.20599 0.6352 0.63806 0.0
C261 C 0.21739 0.67394 0.63221 0.0
C262 C 0.25001 0.69362 0.64859 0.0
C263 C 0.27151 0.67498 0.67245 0.0
C264 C 0.25919 0.63787 0.68194 0.0
C265 C 0.28393 0.62452 0.71268 0.0
C266 C 0.31405 0.65902 0.71759 0.0
C267 C 0.30668 0.68824 0.69303 0.0
C268 C 0.26466 0.61394 0.74999 0.0
C269 C 0.29598 0.59228 0.69682 0.0
C270 C 0.38303 0.8153 0.65576 0.0
C271 C 0.41813 0.83337 0.66735 0.0
C272 C 0.43743 0.81539 0.69521 0.0
C273 C 0.42217 0.78097 0.71197 0.0
C274 C 0.38725 0.76331 0.70031 0.0
C275 C 0.36825 0.78024 0.67244 0.0
C276 C 0.33175 0.75638 0.66303 0.0
C277 C 0.33251 0.7222 0.68942 0.0
C278 C 0.36499 0.7268 0.71127 0.0
C279 C 0.30459 0.77706 0.67421 0.0
C280 C 0.32809 0.7474 0.61957 0.0
H281 H 0.32536 0.58721 0.77769 0.0
H282 H 0.44094 0.66627 0.82447 0.0
H283 H 0.43902 0.67148 0.7362 0.0
H284 H 0.43582 0.7139 0.71346 0.0
H285 H 0.46187 0.71326 0.75934 0.0
H286 H 0.39049 0.72118 0.81714 0.0
H287 H 0.43673 0.73321 0.8112 0.0
H288 H 0.40691 0.75611 0.78274 0.0
H289 H 0.21864 0.58789 0.67117 0.0
H290 H 0.20109 0.68936 0.61476 0.0
H291 H 0.2573 0.72277 0.64206 0.0
H292 H 0.24943 0.63449 0.75504 0.0
H293 H 0.24596 0.58638 0.74772 0.0
H294 H 0.28282 0.61375 0.77627 0.0
H295 H 0.3046 0.59958 0.66712 0.0
H296 H 0.31855 0.58564 0.71471 0.0
H297 H 0.27422 0.56693 0.6952 0.0
H298 H 0.3624 0.56313 0.82846 0.0
C299 C 0.35007 0.60511 0.78741 0.0
C300 C 0.21889 0.33048 0.63285 0.0
C301 C 0.20252 0.35399 0.65071 0.0
C302 C 0.2123 0.36208 0.69001 0.0
C303 C 0.25752 0.32834 0.69166 0.0
C304 C 0.24622 0.31771 0.65409 0.0
C305 C 0.26716 0.29273 0.64035 0.0
H306 H 0.40753 0.21612 0.67118 0.0
C307 C 0.28858 0.31397 0.70453 0.0
C308 C 0.29409 0.29236 0.67506 0.0
H309 H 0.32698 0.19872 0.57562 0.0
H310 H 0.29686 0.23869 0.60437 0.0
H311 H 0.41391 0.30368 0.67588 0.0
H312 H 0.355 0.21002 0.73981 0.0
H313 H 0.37547 0.2447 0.77261 0.0
H314 H 0.40213 0.22417 0.74542 0.0
H315 H 0.43482 0.27765 0.7119 0.0
H316 H 0.41724 0.31527 0.72473 0.0
C317 C 0.28466 0.31105 0.60364 0.0
C318 C 0.24223 0.25402 0.63382 0.0
C319 C 0.36217 0.36361 0.8268 0.0
C320 C 0.39548 0.36102 0.8434 0.0
C321 C 0.41199 0.33604 0.82817 0.0
C322 C 0.39635 0.31553 0.79553 0.0
C323 C 0.36389 0.32018 0.77781 0.0
C324 C 0.34721 0.34352 0.79397 0.0
C325 C 0.31372 0.3465 0.77078 0.0
C326 C 0.31305 0.32133 0.73769 0.0
C327 C 0.34244 0.30595 0.7418 0.0
C328 C 0.318 0.38749 0.75657 0.0
C329 C 0.28279 0.3314 0.79646 0.0
C330 C 0.38328 0.22084 0.65666 0.0
C331 C 0.36944 0.2044 0.62121 0.0
C332 C 0.33782 0.21093 0.60311 0.0
C333 C 0.32052 0.23418 0.61978 0.0
C334 C 0.33491 0.25082 0.65505 0.0
C335 C 0.3656 0.24371 0.6731 0.0
C336 C 0.37694 0.26353 0.71054 0.0
C337 C 0.34746 0.28286 0.71264 0.0
C338 C 0.32323 0.27581 0.67968 0.0
C339 C 0.4127 0.2914 0.70594 0.0
C340 C 0.37773 0.2343 0.74404 0.0
H341 H 0.24632 0.35746 0.73997 0.0
H342 H 0.21169 0.32356 0.60275 0.0
H343 H 0.21949 0.24907 0.6518 0.0
H344 H 0.25523 0.2313 0.64276 0.0
H345 H 0.23153 0.25097 0.60299 0.0
H346 H 0.29709 0.34081 0.60816 0.0
H347 H 0.26497 0.30927 0.57813 0.0
H348 H 0.30579 0.29863 0.59623 0.0
H349 H 0.34858 0.38211 0.83825 0.0
H350 H 0.43773 0.33358 0.84047 0.0
H351 H 0.41056 0.29763 0.78472 0.0
H352 H 0.34462 0.39901 0.74653 0.0
H353 H 0.31475 0.40479 0.78033 0.0
H354 H 0.29959 0.39143 0.73156 0.0
H355 H 0.2895 0.312 0.81999 0.0
H356 H 0.25926 0.31493 0.77988 0.0
H357 H 0.2755 0.35416 0.81048 0.0
H358 H 0.19955 0.3795 0.70455 0.0
C359 C 0.23956 0.34936 0.71053 0.0
C360 C 0.65018 0.21329 0.67241 0.0
C361 C 0.65408 0.19822 0.63718 0.0
C362 C 0.68191 0.21727 0.61525 0.0
C363 C 0.69881 0.26625 0.66176 0.0
C364 C 0.67155 0.24772 0.6831 0.0
C365 C 0.66578 0.27044 0.71523 0.0
H366 H 0.70603 0.43403 0.8047 0.0
C367 C 0.71515 0.30206 0.68022 0.0
C368 C 0.69526 0.30488 0.71108 0.0
H369 H 0.62054 0.33937 0.82394 0.0
H370 H 0.64163 0.30459 0.77848 0.0
H371 H 0.70778 0.42953 0.71026 0.0
H372 H 0.76233 0.38934 0.8103 0.0
H373 H 0.78981 0.39108 0.77283 0.0
H374 H 0.78045 0.43318 0.78738 0.0
H375 H 0.73732 0.45744 0.74576 0.0
H376 H 0.75356 0.44107 0.70531 0.0
C377 C 0.62895 0.27872 0.70649 0.0
C378 C 0.67064 0.24926 0.75437 0.0
C379 C 0.82839 0.38652 0.63457 0.0
C380 C 0.85108 0.41906 0.64969 0.0
C381 C 0.84192 0.43362 0.68285 0.0
C382 C 0.8108 0.4172 0.69981 0.0
C383 C 0.78844 0.38519 0.68426 0.0
C384 C 0.79768 0.3697 0.6528 0.0
C385 C 0.77142 0.33405 0.6422 0.0
C386 C 0.74549 0.33067 0.67296 0.0
C387 C 0.75522 0.36144 0.69668 0.0
C388 C 0.75413 0.33928 0.60084 0.0
C389 C 0.79083 0.30248 0.64642 0.0
C390 C 0.69194 0.40584 0.79887 0.0
C391 C 0.66146 0.38941 0.81737 0.0
C392 C 0.64407 0.35247 0.80987 0.0
C393 C 0.65621 0.33249 0.78329 0.0
C394 C 0.68615 0.34961 0.76402 0.0
C395 C 0.704 0.38536 0.77272 0.0
C396 C 0.73666 0.39813 0.75149 0.0
C397 C 0.73378 0.36535 0.72615 0.0
C398 C 0.70415 0.33706 0.73357 0.0
C399 C 0.73397 0.43353 0.72691 0.0
C400 C 0.76906 0.40345 0.78186 0.0
H401 H 0.72462 0.26419 0.60921 0.0
H402 H 0.63015 0.19934 0.69104 0.0
H403 H 0.69368 0.23685 0.75497 0.0
H404 H 0.67597 0.26737 0.77944 0.0
H405 H 0.64713 0.22649 0.759 0.0
H406 H 0.62105 0.27912 0.67475 0.0
H407 H 0.60847 0.25744 0.72047 0.0
H408 H 0.62811 0.30637 0.71554 0.0
H409 H 0.83394 0.37463 0.60885 0.0
H410 H 0.85893 0.45798 0.69591 0.0
H411 H 0.80533 0.43023 0.72442 0.0
H412 H 0.75103 0.36808 0.59556 0.0
H413 H 0.77034 0.33374 0.57841 0.0
H414 H 0.72726 0.3216 0.59621 0.0
H415 H 0.80774 0.30429 0.67425 0.0
H416 H 0.7729 0.27475 0.64701 0.0
H417 H 0.80797 0.30423 0.62239 0.0
H418 H 0.68563 0.20693 0.58781 0.0
C419 C 0.7044 0.25087 0.62751 0.0
C420 C 0.6741 0.61044 0.7455 0.0
C421 C 0.64448 0.61564 0.76159 0.0
C422 C 0.625 0.63949 0.74243 0.0
C423 C 0.66642 0.65481 0.69327 0.0
C424 C 0.68453 0.63022 0.71146 0.0
C425 C 0.716 0.62859 0.6912 0.0
H426 H 0.81969 0.68555 0.545 0.0
C427 C 0.68544 0.67232 0.65973 0.0
C428 C 0.71427 0.65689 0.65824 0.0
H429 H 0.82734 0.60408 0.63768 0.0
H430 H 0.77703 0.61492 0.66405 0.0
H431 H 0.80583 0.74467 0.59978 0.0
H432 H 0.73181 0.66451 0.52943 0.0
H433 H 0.72308 0.70881 0.52099 0.0
H434 H 0.76461 0.7017 0.51012 0.0
H435 H 0.79741 0.75285 0.54859 0.0
H436 H 0.77071 0.76444 0.58324 0.0
C437 C 0.74915 0.64096 0.71989 0.0
C438 C 0.71006 0.58887 0.67636 0.0
C439 C 0.64775 0.778 0.58423 0.0
C440 C 0.66265 0.80312 0.5553 0.0
C441 C 0.69194 0.79768 0.53822 0.0
C442 C 0.70675 0.76785 0.55083 0.0
C443 C 0.69232 0.74382 0.58113 0.0
C444 C 0.66306 0.74901 0.59695 0.0
C445 C 0.65234 0.72262 0.63042 0.0
C446 C 0.68021 0.70083 0.63259 0.0
C447 C 0.70349 0.71311 0.60358 0.0
C448 C 0.65504 0.74545 0.6671 0.0
C449 C 0.6152 0.69822 0.61921 0.0
C450 C 0.81049 0.67041 0.57114 0.0
C451 C 0.82712 0.64367 0.58919 0.0
C452 C 0.81452 0.62437 0.62304 0.0
C453 C 0.78531 0.63077 0.63838 0.0
C454 C 0.76851 0.65699 0.61991 0.0
C455 C 0.78118 0.67668 0.58713 0.0
C456 C 0.76019 0.70436 0.57266 0.0
C457 C 0.73228 0.69685 0.6015 0.0
C458 C 0.7375 0.66904 0.62888 0.0
C459 C 0.78462 0.7437 0.57588 0.0
C460 C 0.74407 0.69465 0.53097 0.0
H461 H 0.62036 0.67747 0.69535 0.0
H462 H 0.68911 0.59171 0.75941 0.0
H463 H 0.68163 0.5763 0.66921 0.0
H464 H 0.72216 0.58819 0.64901 0.0
H465 H 0.7201 0.57041 0.6986 0.0
H466 H 0.74569 0.66199 0.73971 0.0
H467 H 0.75464 0.61722 0.73822 0.0
H468 H 0.77285 0.65475 0.70524 0.0
H469 H 0.62562 0.78202 0.59831 0.0
H470 H 0.70368 0.81685 0.51576 0.0
H471 H 0.72929 0.76515 0.53723 0.0
H472 H 0.67778 0.76995 0.66695 0.0
H473 H 0.63098 0.75569 0.66851 0.0
H474 H 0.6598 0.73 0.69442 0.0
H475 H 0.61148 0.69288 0.58762 0.0
H476 H 0.61062 0.67046 0.63371 0.0
H477 H 0.59444 0.71188 0.62581 0.0
H478 H 0.60197 0.6437 0.75454 0.0
C479 C 0.63582 0.65914 0.70828 0.0
Co480 Co 0.08268 0.47368 0.54075 0.0
Co481 Co 0.05136 0.45767 0.47004 0.0
Co482 Co 0.01771 0.5152 0.50623 0.0
O483 O 0.03571 0.46964 0.51643 0.0
H484 H 0.01851 0.449 0.5267 0.0
O485 O 1.00039 0.56121 0.49584 0.0
Co486 Co 0.95267 0.5597 0.47676 0.0
Co487 Co 0.98969 0.57323 0.5446 0.0
H488 H 1.01729 0.58131 0.48461 0.0
O489 O 0.06354 0.41242 0.46393 0.0
O490 O 0.09752 0.46321 0.49097 0.0
O491 O 0.05425 0.49411 0.42718 0.0
O492 O 0.05379 0.53768 0.46799 0.0
O493 O 0.98294 0.48904 0.46374 0.0
O494 O 0.90983 0.56268 0.45905 0.0
O495 O 0.9587 0.60896 0.46393 0.0
O496 O 0.93989 0.50814 0.48559 0.0
O497 O 0.98173 0.49276 0.54445 0.0
O498 O 0.98846 0.5365 0.58676 0.0
O499 O 0.94259 0.56738 0.52955 0.0
O500 O 0.97916 0.61825 0.55435 0.0
C501 C 0.10948 0.43865 0.57029 0.0
C502 C 0.08456 0.54524 0.54917 0.0
C503 C 0.06234 0.52774 0.4363 0.0
C504 C 0.094 0.43017 0.479 0.0
C505 C 0.92502 0.59745 0.45422 0.0
C506 C 0.95003 0.48739 0.46368 0.0
C507 C 0.97573 0.50338 0.57694 0.0
C508 C 0.94755 0.59955 0.54423 0.0
O509 O 0.12404 0.47341 0.56417 0.0
O510 O 0.07682 0.42538 0.55706 0.0
O511 O 0.05154 0.54166 0.54921 0.0
O512 O 0.09576 0.52455 0.52847 0.0
Co513 Co 0.55278 0.9441 0.49216 0.0
Co514 Co 0.57252 0.96946 0.56276 0.0
Co515 Co 0.51874 1.01251 0.51833 0.0
O516 O 0.56026 0.99123 0.51489 0.0
H517 H 0.58026 1.00913 0.50578 0.0
O518 O 0.47751 0.0345 0.52092 0.0
Co519 Co 0.48303 0.08372 0.53917 0.0
Co520 Co 0.46683 0.05291 0.46984 0.0
H521 H 0.45736 0.01694 0.53014 0.0
O522 O 0.61651 0.9573 0.57311 0.0
O523 O 0.56774 0.92354 0.54236 0.0
O524 O 0.53813 0.96105 0.60077 0.0
O525 O 0.49614 0.97424 0.55831 0.0
O526 O 0.5469 0.0448 0.56059 0.0
O527 O 0.48401 0.12771 0.55544 0.0
O528 O 0.43712 0.07968 0.54819 0.0
O529 O 0.53171 0.09469 0.5347 0.0
O530 O 0.5417 0.05124 0.4792 0.0
O531 O 0.50103 0.05658 0.43187 0.0
O532 O 0.47447 0.101 0.48539 0.0
O533 O 0.42492 0.06837 0.45504 0.0
C534 C 0.58135 0.91659 0.46322 0.0
C535 C 0.48539 0.94401 0.48184 0.0
C536 C 0.50594 0.95917 0.59026 0.0
C537 C 0.60025 0.92735 0.55563 0.0
C538 C 0.45082 0.11375 0.55848 0.0
C539 C 0.55099 0.07984 0.55896 0.0
C540 C 0.53298 0.06296 0.4452 0.0
C541 C 0.44318 0.09935 0.46897 0.0
O542 O 0.54906 0.90178 0.47026 0.0
O543 O 0.59625 0.94983 0.47525 0.0
O544 O 0.48995 0.97907 0.47652 0.0
O545 O 0.50691 0.93198 0.50554 0.0
Co546 Co 0.47719 0.53528 0.08814 0.0
Co547 Co 0.46002 0.46544 0.07142 0.0
Co548 Co 0.51517 0.50944 0.01413 0.0
O549 O 0.47246 0.50863 0.04128 0.0
H550 H 0.45282 0.51195 0.02363 0.0
O551 O 0.55808 0.51072 0.98739 0.0
Co552 Co 0.55536 0.48652 0.93968 0.0
Co553 Co 0.57006 0.55547 0.95949 0.0
H554 H 0.57765 0.50744 1.0052 0.0
O555 O 0.41552 0.44913 0.08956 0.0
O556 O 0.4626 0.48836 0.11802 0.0
O557 O 0.49415 0.43607 0.08048 0.0
O558 O 0.53699 0.4797 0.05671 0.0
O559 O 0.48893 0.46321 0.98697 0.0
O560 O 0.55683 0.46387 0.89629 0.0
O561 O 0.60053 0.48227 0.94323 0.0
O562 O 0.50761 0.48619 0.93043 0.0
O563 O 0.49315 0.53865 0.97122 0.0
O564 O 0.53561 0.58473 0.9513 0.0
O565 O 0.56766 0.5348 0.9118 0.0
O566 O 0.6142 0.57386 0.94142 0.0
C567 C 0.44601 0.56016 0.11605 0.0
C568 C 0.54577 0.55586 0.07784 0.0
C569 C 0.52657 0.45074 0.07824 0.0
C570 C 0.43078 0.46822 0.11923 0.0
C571 C 0.58899 0.46588 0.91056 0.0
C572 C 0.48574 0.4633 0.94988 0.0
C573 C 0.50333 0.56842 0.9509 0.0
C574 C 0.59865 0.5568 0.9106 0.0
O575 O 0.47787 0.56061 0.1302 0.0
O576 O 0.43298 0.54247 0.08446 0.0
O577 O 0.54161 0.55583 0.04083 0.0
O578 O 0.52432 0.53286 0.09758 0.0
C579 C 0.14901 0.36009 0.4739 0.0
C580 C 0.18331 0.38151 0.48188 0.0
C581 C 0.12003 0.37571 0.47423 0.0
C582 C 0.12457 0.41323 0.48242 0.0
H583 H 0.14471 0.33187 0.46499 0.0
H584 H 0.09405 0.35858 0.46672 0.0
S585 S 0.20972 0.47954 0.5089 0.0
N586 N 0.22045 0.44056 0.50153 0.0
N587 N 0.16652 0.47053 0.50123 0.0
C588 C 0.1589 0.43421 0.49258 0.0
C589 C 0.18814 0.41813 0.49264 0.0
C590 C 0.57729 0.12499 0.36427 0.0
C591 C 0.6021 0.15302 0.38452 0.0
C592 C 0.55604 0.09505 0.3839 0.0
C593 C 0.55935 0.0912 0.42461 0.0
H594 H 0.57341 0.12674 0.33289 0.0
H595 H 0.5363 0.07521 0.3671 0.0
S596 S 0.62111 0.15581 0.49158 0.0
N597 N 0.6287 0.17443 0.44794 0.0
N598 N 0.59065 0.11714 0.4845 0.0
C599 C 0.58543 0.11779 0.44515 0.0
C600 C 0.60637 0.14885 0.42523 0.0
C601 C 0.89281 0.67202 0.39231 0.0
C602 C 0.85748 0.66517 0.4006 0.0
C603 C 0.91556 0.6517 0.41173 0.0
C604 C 0.90317 0.6231 0.43892 0.0
H605 H 0.90254 0.69235 0.36984 0.0
H606 H 0.94229 0.65689 0.40377 0.0
S607 S 0.81313 0.59584 0.47176 0.0
N608 N 0.81183 0.62985 0.43932 0.0
N609 N 0.85363 0.59032 0.47422 0.0
C610 C 0.86813 0.61696 0.44816 0.0
C611 C 0.84549 0.63833 0.42936 0.0
C612 C 0.41032 0.90006 0.40723 0.0
C613 C 0.40609 0.86199 0.41629 0.0
C614 C 0.43546 0.92681 0.42882 0.0
C615 C 0.45711 0.91627 0.46017 0.0
H616 H 0.39437 0.90912 0.38311 0.0
H617 H 0.4383 0.95578 0.42057 0.0
S618 S 0.45441 0.81931 0.49588 0.0
N619 N 0.42441 0.81502 0.45866 0.0
N620 N 0.47097 0.86419 0.49952 0.0
C621 C 0.45223 0.87795 0.46965 0.0
C622 C 0.42695 0.85116 0.44762 0.0
C623 C 0.14991 0.58374 0.63348 0.0
C624 C 0.17291 0.61412 0.61598 0.0
C625 C 0.11964 0.56298 0.61253 0.0
C626 C 0.11077 0.57212 0.57346 0.0
H627 H 0.15551 0.57553 0.66348 0.0
H628 H 0.10383 0.53875 0.62656 0.0
S629 S 0.16096 0.64862 0.51355 0.0
N630 N 0.18423 0.65115 0.55601 0.0
N631 N 0.12627 0.61404 0.51852 0.0
C632 C 0.13262 0.60292 0.55601 0.0
C633 C 0.16384 0.62345 0.57675 0.0
C634 C 0.37425 0.14462 0.5947 0.0
C635 C 0.38914 0.18204 0.60249 0.0
C636 C 0.39401 0.12266 0.57978 0.0
C637 C 0.42925 0.13748 0.57202 0.0
H638 H 0.3475 0.13204 0.6012 0.0
H639 H 0.3818 0.09377 0.57505 0.0
S640 S 0.47839 0.2357 0.58277 0.0
N641 N 0.43968 0.23386 0.59823 0.0
N642 N 0.47682 0.19337 0.57005 0.0
C643 C 0.4437 0.1755 0.57811 0.0
C644 C 0.42365 0.19755 0.59339 0.0
C645 C 0.89262 0.4782 0.62944 0.0
C646 C 0.88356 0.43917 0.63101 0.0
C647 C 0.92323 0.49839 0.61358 0.0
C648 C 0.94597 0.48065 0.59756 0.0
H649 H 0.87562 0.49359 0.64005 0.0
H650 H 0.92837 0.52831 0.61264 0.0
S651 S 0.9353 0.37931 0.59421 0.0
N652 N 0.90106 0.3836 0.61596 0.0
N653 N 0.95757 0.42185 0.58399 0.0
C654 C 0.93731 0.44175 0.59836 0.0
C655 C 0.90639 0.42099 0.61546 0.0
C656 C 0.6126 0.8323 0.53858 0.0
C657 C 0.64894 0.83644 0.54666 0.0
C658 C 0.59736 0.86215 0.54065 0.0
C659 C 0.6179 0.89734 0.55077 0.0
H660 H 0.59561 0.80528 0.53267 0.0
H661 H 0.56904 0.85714 0.53565 0.0
S662 S 0.71498 0.92347 0.56965 0.0
N663 N 0.70559 0.87874 0.56179 0.0
N664 N 0.67702 0.93541 0.56487 0.0
C665 C 0.6546 0.9024 0.55633 0.0
C666 C 0.67013 0.87183 0.55425 0.0
C667 C 0.43976 0.19958 0.47147 0.0
C668 C 0.40412 0.19852 0.46152 0.0
C669 C 0.45185 0.16724 0.47439 0.0
C670 C 0.42874 0.13252 0.4676 0.0
H671 H 0.45869 0.22583 0.47554 0.0
H672 H 0.47977 0.16971 0.481 0.0
S673 S 0.3322 0.1146 0.44478 0.0
N674 N 0.34534 0.16 0.44754 0.0
N675 N 0.36795 0.09876 0.45388 0.0
C676 C 0.39268 0.13086 0.45974 0.0
C677 C 0.38037 0.16397 0.45671 0.0
C678 C 0.86278 0.4503 0.4054 0.0
C679 C 0.86423 0.41483 0.3953 0.0
C680 C 0.891 0.47335 0.42647 0.0
C681 C 0.92248 0.46255 0.43819 0.0
H682 H 0.83903 0.45995 0.39824 0.0
H683 H 0.88766 0.49982 0.43412 0.0
S684 S 0.94087 0.37309 0.4174 0.0
N685 N 0.90048 0.37027 0.39739 0.0
N686 N 0.95385 0.41415 0.43679 0.0
C687 C 0.92494 0.42763 0.42723 0.0
C688 C 0.89578 0.40367 0.40603 0.0
C689 C 0.65688 0.88499 0.42573 0.0
C690 C 0.64013 0.85033 0.41044 0.0
C691 C 0.63775 0.90662 0.44219 0.0
C692 C 0.60119 0.8943 0.44419 0.0
H693 H 0.68495 0.8956 0.42466 0.0
H694 H 0.65181 0.93299 0.45376 0.0
S695 S 0.54538 0.80419 0.41048 0.0
N696 N 0.58532 0.80382 0.40022 0.0
N697 N 0.54925 0.84428 0.43029 0.0
C698 C 0.58426 0.85936 0.42935 0.0
C699 C 0.60377 0.8375 0.41272 0.0
C700 C 0.15024 0.59295 0.42014 0.0
C701 C 0.14927 0.59824 0.37957 0.0
C702 C 0.12151 0.57079 0.43795 0.0
C703 C 0.09045 0.55352 0.41615 0.0
H704 H 0.17399 0.60458 0.43817 0.0
H705 H 0.12434 0.5655 0.46893 0.0
S706 S 0.07361 0.55975 0.30923 0.0
N707 N 0.11398 0.58531 0.31803 0.0
N708 N 0.06004 0.54355 0.35196 0.0
C709 C 0.08879 0.55892 0.37567 0.0
C710 C 0.11811 0.58145 0.35734 0.0
C711 C 0.43209 0.87523 0.60832 0.0
C712 C 0.43593 0.86946 0.64891 0.0
C713 C 0.45317 0.90605 0.58977 0.0
C714 C 0.4793 0.9319 0.61103 0.0
H715 H 0.4141 0.85479 0.59047 0.0
H716 H 0.45048 0.9083 0.55836 0.0
S717 S 0.49565 0.93347 0.71806 0.0
N718 N 0.46408 0.89577 0.71005 0.0
N719 N 0.50503 0.95225 0.67482 0.0
C720 C 0.48192 0.92782 0.65162 0.0
C721 C 0.45989 0.89701 0.67062 0.0
C722 C 0.18503 0.41239 0.63127 0.0
C723 C 0.17823 0.37386 0.62837 0.0
C724 C 0.16224 0.43255 0.61278 0.0
C725 C 0.13148 0.41513 0.59053 0.0
H726 H 0.20834 0.42724 0.64809 0.0
H727 H 0.1689 0.4622 0.61619 0.0
S728 S 0.10249 0.3149 0.57191 0.0
N729 N 0.1393 0.31891 0.60043 0.0
N730 N 0.096 0.35706 0.56531 0.0
C731 C 0.12446 0.3766 0.58676 0.0
C732 C 0.14804 0.35594 0.60557 0.0
C733 C 0.63836 0.1385 0.60056 0.0
C734 C 0.62781 0.16464 0.62174 0.0
C735 C 0.61361 0.10899 0.58254 0.0
C736 C 0.57743 0.10434 0.58529 0.0
H737 H 0.6659 0.14137 0.59696 0.0
H738 H 0.62271 0.09095 0.56469 0.0
S739 S 0.5356 0.16125 0.64079 0.0
N740 N 0.57778 0.18193 0.64532 0.0
N741 N 0.53257 0.12475 0.61488 0.0
C742 C 0.56674 0.12833 0.60859 0.0
C743 C 0.59153 0.15888 0.62596 0.0
C744 C 0.85628 0.59688 0.56925 0.0
C745 C 0.85699 0.63433 0.57306 0.0
C746 C 0.88562 0.58623 0.55909 0.0
C747 C 0.91678 0.61263 0.55228 0.0
H748 H 0.833 0.57552 0.57491 0.0
H749 H 0.88401 0.55692 0.55747 0.0
S750 S 0.93139 0.7144 0.55579 0.0
N751 N 0.89068 0.69809 0.56758 0.0
N752 N 0.94618 0.67792 0.54778 0.0
C753 C 0.91757 0.65029 0.5546 0.0
C754 C 0.88748 0.6612 0.56495 0.0
C755 C 0.42138 0.46044 0.22709 0.0
C756 C 0.38509 0.44629 0.22905 0.0
C757 C 0.43569 0.46892 0.19134 0.0
C758 C 0.41424 0.46317 0.15624 0.0
H759 H 0.43895 0.46388 0.25341 0.0
H760 H 0.46395 0.47866 0.1913 0.0
S761 S 0.31723 0.42937 0.14585 0.0
N762 N 0.32772 0.4289 0.19319 0.0
N763 N 0.35463 0.44494 0.12571 0.0
C764 C 0.37772 0.45056 0.15783 0.0
C765 C 0.36312 0.44219 0.19434 0.0
C766 C 0.418 0.5828 0.89599 0.0
C767 C 0.42913 0.59846 0.85996 0.0
C768 C 0.44202 0.57337 0.92555 0.0
C769 C 0.47813 0.57979 0.92036 0.0
H770 H 0.39074 0.57865 0.90174 0.0
H771 H 0.43235 0.56148 0.95284 0.0
S772 S 0.51953 0.61476 0.82916 0.0
N773 N 0.47791 0.6157 0.81931 0.0
N774 N 0.52285 0.59919 0.87463 0.0
C775 C 0.48919 0.59413 0.88387 0.0
C776 C 0.46478 0.6031 0.85379 0.0
C777 C 0.43095 0.37418 0.90783 0.0
C778 C 0.41441 0.38703 0.87369 0.0
C779 C 0.45179 0.39902 0.93472 0.0
C780 C 0.45708 0.43743 0.92792 0.0
H781 H 0.4285 0.34479 0.91325 0.0
H782 H 0.46553 0.3882 0.95963 0.0
S783 S 0.41858 0.48533 0.84421 0.0
N784 N 0.40383 0.44091 0.83567 0.0
N785 N 0.44287 0.48717 0.88598 0.0
C786 C 0.43957 0.45052 0.89482 0.0
C787 C 0.41827 0.42544 0.86773 0.0
C788 C 0.63266 0.44064 0.82688 0.0
C789 C 0.64661 0.41118 0.84288 0.0
C790 C 0.61509 0.45918 0.84946 0.0
C791 C 0.61178 0.4496 0.88905 0.0
H792 H 0.63415 0.4484 0.79633 0.0
H793 H 0.60343 0.48072 0.83571 0.0
S794 S 0.64514 0.37569 0.94507 0.0
N795 N 0.65665 0.37383 0.90074 0.0
N796 N 0.62474 0.40965 0.94355 0.0
C797 C 0.62684 0.42125 0.90575 0.0
C798 C 0.64396 0.40175 0.88253 0.0
C799 C 0.60038 0.57613 0.80253 0.0
C800 C 0.63464 0.59747 0.79915 0.0
C801 C 0.58967 0.56114 0.83855 0.0
C802 C 0.61268 0.56765 0.87255 0.0
H803 H 0.58156 0.57157 0.77726 0.0
H804 H 0.56264 0.54574 0.83986 0.0
S805 S 0.7061 0.61956 0.87825 0.0
N806 N 0.69229 0.62261 0.83188 0.0
N807 N 0.67208 0.59468 0.89993 0.0
C808 C 0.64751 0.58767 0.8692 0.0
C809 C 0.6585 0.60257 0.83238 0.0
C810 C 0.61105 0.59864 0.15931 0.0
C811 C 0.61788 0.63671 0.14951 0.0
C812 C 0.58909 0.57262 0.13476 0.0
C813 C 0.57356 0.5835 0.09909 0.0
H814 H 0.62141 0.58897 0.18705 0.0
H815 H 0.58335 0.54374 0.14435 0.0
S816 S 0.58534 0.67945 0.05835 0.0
N817 N 0.60902 0.68389 0.10066 0.0
N818 N 0.56803 0.63467 0.0541 0.0
C819 C 0.58157 0.62124 0.0879 0.0
C820 C 0.60356 0.64793 0.11328 0.0
C821 C 0.39518 0.58407 0.19389 0.0
C822 C 0.3959 0.6216 0.18497 0.0
C823 C 0.40994 0.56365 0.17026 0.0
C824 C 0.42531 0.57978 0.13653 0.0
H825 H 0.38431 0.57076 0.22012 0.0
H826 H 0.41023 0.53542 0.1791 0.0
S827 S 0.43217 0.67602 0.09879 0.0
N828 N 0.41196 0.67339 0.13886 0.0
N829 N 0.43963 0.63477 0.09458 0.0
C830 C 0.42528 0.61675 0.12655 0.0
C831 C 0.41057 0.63772 0.15073 0.0
C832 C 0.61249 0.43085 0.12526 0.0
C833 C 0.60329 0.41582 0.16217 0.0
C834 C 0.5876 0.44186 0.09797 0.0
C835 C 0.55254 0.43782 0.10645 0.0
H836 H 0.63887 0.43342 0.11714 0.0
H837 H 0.59575 0.45318 0.06988 0.0
S838 S 0.51664 0.40515 0.20106 0.0
N839 N 0.55773 0.4014 0.2071 0.0
N840 N 0.5111 0.42112 0.15603 0.0
C841 C 0.54346 0.42396 0.14375 0.0
C842 C 0.56876 0.41325 0.17151 0.0
loop_
_geom_bond_atom_site_label_1
_geom_bond_atom_site_label_2
_geom_bond_distance
_geom_bond_site_symmetry_2
_ccdc_geom_bond_type
C0 C1 1.391 . S
C0 C4 1.391 . S
C0 H42 0.948 . S
C1 C0 1.391 . S
C1 C2 1.391 . S
C2 C1 1.391 . S
C2 H58 0.947 . S
C2 C59 1.392 . S
C3 C4 1.391 . S
C3 C7 1.397 . S
C3 C59 1.419 . S
C4 C0 1.391 . S
C4 C3 1.391 . S
C4 C5 1.399 . S
C5 C4 1.399 . S
C5 C8 1.396 . S
C5 C17 1.453 . S
C5 C18 1.684 . S
H6 C30 0.948 . S
C7 C3 1.397 . S
C7 C8 1.394 . S
C7 C26 1.723 . S
C8 C5 1.396 . S
C8 C7 1.394 . S
C8 C38 1.723 . S
H9 C32 0.947 . S
H10 C33 0.948 . S
H11 C39 0.982 . S
H12 C40 0.979 . S
H13 C40 0.980 . S
H14 C40 0.983 . S
H15 C39 0.979 . S
H16 C39 0.977 . S
C17 C5 1.453 . S
C17 H46 0.982 . S
C17 H47 0.979 . S
C17 H48 0.977 . S
C18 C5 1.684 . S
C18 H43 0.979 . S
C18 H44 0.980 . S
C18 H45 0.983 . S
C19 C20 1.391 . S
C19 C24 1.391 . S
C19 H49 0.948 . S
C20 C19 1.391 . S
C20 C21 1.391 . S
C21 C20 1.391 . S
C21 C22 1.392 . S
C21 H50 0.947 . S
C22 C21 1.392 . S
C22 C23 1.419 . S
C22 H51 0.948 . S
C23 C22 1.419 . S
C23 C24 1.391 . S
C23 C27 1.397 . S
C24 C19 1.391 . S
C24 C23 1.391 . S
C24 C25 1.399 . S
C25 C24 1.399 . S
C25 C26 1.396 . S
C25 C28 1.453 . S
C25 C29 1.684 . S
C26 C7 1.723 . S
C26 C25 1.396 . S
C26 C27 1.394 . S
C27 C23 1.397 . S
C27 C26 1.394 . S
C27 C37 1.723 . S
C28 C25 1.453 . S
C28 H52 0.982 . S
C28 H53 0.979 . S
C28 H54 0.977 . S
C29 C25 1.684 . S
C29 H55 0.979 . S
C29 H56 0.980 . S
C29 H57 0.983 . S
C30 H6 0.948 . S
C30 C31 1.391 . S
C30 C35 1.391 . S
C31 C30 1.391 . S
C31 C32 1.391 . S
C32 H9 0.947 . S
C32 C31 1.391 . S
C32 C33 1.392 . S
C33 H10 0.948 . S
C33 C32 1.392 . S
C33 C34 1.419 . S
C34 C33 1.419 . S
C34 C35 1.391 . S
C34 C38 1.397 . S
C35 C30 1.391 . S
C35 C34 1.391 . S
C35 C36 1.399 . S
C36 C35 1.399 . S
C36 C37 1.396 . S
C36 C39 1.453 . S
C36 C40 1.684 . S
C37 C27 1.723 . S
C37 C36 1.396 . S
C37 C38 1.394 . S
C38 C8 1.723 . S
C38 C34 1.397 . S
C38 C37 1.394 . S
C39 H11 0.982 . S
C39 H15 0.979 . S
C39 H16 0.977 . S
C39 C36 1.453 . S
C40 H12 0.979 . S
C40 H13 0.980 . S
C40 H14 0.983 . S
C40 C36 1.684 . S
H41 C59 0.948 . S
H42 C0 0.948 . S
H43 C18 0.979 . S
H44 C18 0.980 . S
H45 C18 0.983 . S
H46 C17 0.982 . S
H47 C17 0.979 . S
H48 C17 0.977 . S
H49 C19 0.948 . S
H50 C21 0.947 . S
H51 C22 0.948 . S
H52 C28 0.982 . S
H53 C28 0.979 . S
H54 C28 0.977 . S
H55 C29 0.979 . S
H56 C29 0.980 . S
H57 C29 0.983 . S
H58 C2 0.947 . S
C59 C2 1.392 . S
C59 C3 1.419 . S
C59 H41 0.948 . S
C60 C61 1.391 . S
C60 C64 1.391 . S
C60 H102 0.948 . S
C61 C60 1.391 . S
C61 C62 1.391 . S
C62 C61 1.391 . S
C62 H118 0.947 . S
C62 C119 1.392 . S
C63 C64 1.391 . S
C63 C67 1.397 . S
C63 C119 1.419 . S
C64 C60 1.391 . S
C64 C63 1.391 . S
C64 C65 1.399 . S
C65 C64 1.399 . S
C65 C68 1.396 . S
C65 C77 1.453 . S
C65 C78 1.684 . S
H66 C90 0.948 . S
C67 C63 1.397 . S
C67 C68 1.394 . S
C67 C86 1.723 . S
C68 C65 1.396 . S
C68 C67 1.394 . S
C68 C98 1.723 . S
H69 C92 0.947 . S
H70 C93 0.948 . S
H71 C99 0.982 . S
H72 C100 0.979 . S
H73 C100 0.980 . S
H74 C100 0.983 . S
H75 C99 0.979 . S
H76 C99 0.977 . S
C77 C65 1.453 . S
C77 H106 0.982 . S
C77 H107 0.979 . S
C77 H108 0.977 . S
C78 C65 1.684 . S
C78 H103 0.979 . S
C78 H104 0.980 . S
C78 H105 0.983 . S
C79 C80 1.391 . S
C79 C84 1.391 . S
C79 H109 0.948 . S
C80 C79 1.391 . S
C80 C81 1.391 . S
C81 C80 1.391 . S
C81 C82 1.392 . S
C81 H110 0.947 . S
C82 C81 1.392 . S
C82 C83 1.419 . S
C82 H111 0.948 . S
C83 C82 1.419 . S
C83 C84 1.391 . S
C83 C87 1.397 . S
C84 C79 1.391 . S
C84 C83 1.391 . S
C84 C85 1.399 . S
C85 C84 1.399 . S
C85 C86 1.396 . S
C85 C88 1.453 . S
C85 C89 1.684 . S
C86 C67 1.723 . S
C86 C85 1.396 . S
C86 C87 1.394 . S
C87 C83 1.397 . S
C87 C86 1.394 . S
C87 C97 1.723 . S
C88 C85 1.453 . S
C88 H112 0.982 . S
C88 H113 0.979 . S
C88 H114 0.977 . S
C89 C85 1.684 . S
C89 H115 0.979 . S
C89 H116 0.980 . S
C89 H117 0.983 . S
C90 H66 0.948 . S
C90 C91 1.391 . S
C90 C95 1.391 . S
C91 C90 1.391 . S
C91 C92 1.391 . S
C92 H69 0.947 . S
C92 C91 1.391 . S
C92 C93 1.392 . S
C93 H70 0.948 . S
C93 C92 1.392 . S
C93 C94 1.419 . S
C94 C93 1.419 . S
C94 C95 1.391 . S
C94 C98 1.397 . S
C95 C90 1.391 . S
C95 C94 1.391 . S
C95 C96 1.399 . S
C96 C95 1.399 . S
C96 C97 1.396 . S
C96 C99 1.453 . S
C96 C100 1.684 . S
C97 C87 1.723 . S
C97 C96 1.396 . S
C97 C98 1.394 . S
C98 C68 1.723 . S
C98 C94 1.397 . S
C98 C97 1.394 . S
C99 H71 0.982 . S
C99 H75 0.979 . S
C99 H76 0.977 . S
C99 C96 1.453 . S
C100 H72 0.979 . S
C100 H73 0.980 . S
C100 H74 0.983 . S
C100 C96 1.684 . S
H101 C119 0.948 . S
H102 C60 0.948 . S
H103 C78 0.979 . S
H104 C78 0.980 . S
H105 C78 0.983 . S
H106 C77 0.982 . S
H107 C77 0.979 . S
H108 C77 0.977 . S
H109 C79 0.948 . S
H110 C81 0.947 . S
H111 C82 0.948 . S
H112 C88 0.982 . S
H113 C88 0.979 . S
H114 C88 0.977 . S
H115 C89 0.979 . S
H116 C89 0.980 . S
H117 C89 0.983 . S
H118 C62 0.947 . S
C119 C62 1.392 . S
C119 C63 1.419 . S
C119 H101 0.948 . S
C120 C121 1.391 . S
C120 C124 1.391 . S
C120 H162 0.948 . S
C121 C120 1.391 . S
C121 C122 1.391 . S
C122 C121 1.391 . S
C122 H178 0.947 . S
C122 C179 1.392 . S
C123 C124 1.391 . S
C123 C127 1.397 . S
C123 C179 1.419 . S
C124 C120 1.391 . S
C124 C123 1.391 . S
C124 C125 1.399 . S
C125 C124 1.399 . S
C125 C128 1.396 . S
C125 C137 1.453 . S
C125 C138 1.684 . S
H126 C150 0.948 . S
C127 C123 1.397 . S
C127 C128 1.394 . S
C127 C146 1.723 . S
C128 C125 1.396 . S
C128 C127 1.394 . S
C128 C158 1.723 . S
H129 C152 0.947 . S
H130 C153 0.948 . S
H131 C159 0.982 . S
H132 C160 0.979 . S
H133 C160 0.980 . S
H134 C160 0.983 . S
H135 C159 0.979 . S
H136 C159 0.977 . S
C137 C125 1.453 . S
C137 H166 0.982 . S
C137 H167 0.979 . S
C137 H168 0.977 . S
C138 C125 1.684 . S
C138 H163 0.979 . S
C138 H164 0.980 . S
C138 H165 0.983 . S
C139 C140 1.391 . S
C139 C144 1.391 . S
C139 H169 0.948 . S
C140 C139 1.391 . S
C140 C141 1.391 . S
C141 C140 1.391 . S
C141 C142 1.392 . S
C141 H170 0.947 . S
C142 C141 1.392 . S
C142 C143 1.419 . S
C142 H171 0.948 . S
C143 C142 1.419 . S
C143 C144 1.391 . S
C143 C147 1.397 . S
C144 C139 1.391 . S
C144 C143 1.391 . S
C144 C145 1.399 . S
C145 C144 1.399 . S
C145 C146 1.396 . S
C145 C148 1.453 . S
C145 C149 1.684 . S
C146 C127 1.723 . S
C146 C145 1.396 . S
C146 C147 1.394 . S
C147 C143 1.397 . S
C147 C146 1.394 . S
C147 C157 1.723 . S
C148 C145 1.453 . S
C148 H172 0.982 . S
C148 H173 0.979 . S
C148 H174 0.977 . S
C149 C145 1.684 . S
C149 H175 0.979 . S
C149 H176 0.980 . S
C149 H177 0.983 . S
C150 H126 0.948 . S
C150 C151 1.391 . S
C150 C155 1.391 . S
C151 C150 1.391 . S
C151 C152 1.391 . S
C152 H129 0.947 . S
C152 C151 1.391 . S
C152 C153 1.392 . S
C153 H130 0.948 . S
C153 C152 1.392 . S
C153 C154 1.419 . S
C154 C153 1.419 . S
C154 C155 1.391 . S
C154 C158 1.397 . S
C155 C150 1.391 . S
C155 C154 1.391 . S
C155 C156 1.399 . S
C156 C155 1.399 . S
C156 C157 1.396 . S
C156 C159 1.453 . S
C156 C160 1.684 . S
C157 C147 1.723 . S
C157 C156 1.396 . S
C157 C158 1.394 . S
C158 C128 1.723 . S
C158 C154 1.397 . S
C158 C157 1.394 . S
C159 H131 0.982 . S
C159 H135 0.979 . S
C159 H136 0.977 . S
C159 C156 1.453 . S
C160 H132 0.979 . S
C160 H133 0.980 . S
C160 H134 0.983 . S
C160 C156 1.684 . S
H161 C179 0.948 . S
H162 C120 0.948 . S
H163 C138 0.979 . S
H164 C138 0.980 . S
H165 C138 0.983 . S
H166 C137 0.982 . S
H167 C137 0.979 . S
H168 C137 0.977 . S
H169 C139 0.948 . S
H170 C141 0.947 . S
H171 C142 0.948 . S
H172 C148 0.982 . S
H173 C148 0.979 . S
H174 C148 0.977 . S
H175 C149 0.979 . S
H176 C149 0.980 . S
H177 C149 0.983 . S
H178 C122 0.947 . S
C179 C122 1.392 . S
C179 C123 1.419 . S
C179 H161 0.948 . S
C180 C181 1.391 . S
C180 C184 1.391 . S
C180 H222 0.948 . S
C181 C180 1.391 . S
C181 C182 1.391 . S
C182 C181 1.391 . S
C182 H238 0.947 . S
C182 C239 1.392 . S
C183 C184 1.391 . S
C183 C187 1.397 . S
C183 C239 1.419 . S
C184 C180 1.391 . S
C184 C183 1.391 . S
C184 C185 1.399 . S
C185 C184 1.399 . S
C185 C188 1.396 . S
C185 C197 1.453 . S
C185 C198 1.684 . S
H186 C210 0.948 . S
C187 C183 1.397 . S
C187 C188 1.394 . S
C187 C206 1.723 . S
C188 C185 1.396 . S
C188 C187 1.394 . S
C188 C218 1.723 . S
H189 C212 0.947 . S
H190 C213 0.948 . S
H191 C219 0.982 . S
H192 C220 0.979 . S
H193 C220 0.980 . S
H194 C220 0.983 . S
H195 C219 0.979 . S
H196 C219 0.977 . S
C197 C185 1.453 . S
C197 H226 0.982 . S
C197 H227 0.979 . S
C197 H228 0.977 . S
C198 C185 1.684 . S
C198 H223 0.979 . S
C198 H224 0.980 . S
C198 H225 0.983 . S
C199 C200 1.391 . S
C199 C204 1.391 . S
C199 H229 0.948 . S
C200 C199 1.391 . S
C200 C201 1.391 . S
C201 C200 1.391 . S
C201 C202 1.392 . S
C201 H230 0.947 . S
C202 C201 1.392 . S
C202 C203 1.419 . S
C202 H231 0.948 . S
C203 C202 1.419 . S
C203 C204 1.391 . S
C203 C207 1.397 . S
C204 C199 1.391 . S
C204 C203 1.391 . S
C204 C205 1.399 . S
C205 C204 1.399 . S
C205 C206 1.396 . S
C205 C208 1.453 . S
C205 C209 1.684 . S
C206 C187 1.723 . S
C206 C205 1.396 . S
C206 C207 1.394 . S
C207 C203 1.397 . S
C207 C206 1.394 . S
C207 C217 1.723 . S
C208 C205 1.453 . S
C208 H232 0.982 . S
C208 H233 0.979 . S
C208 H234 0.977 . S
C209 C205 1.684 . S
C209 H235 0.979 . S
C209 H236 0.980 . S
C209 H237 0.983 . S
C210 H186 0.948 . S
C210 C211 1.391 . S
C210 C215 1.391 . S
C211 C210 1.391 . S
C211 C212 1.391 . S
C212 H189 0.947 . S
C212 C211 1.391 . S
C212 C213 1.392 . S
C213 H190 0.948 . S
C213 C212 1.392 . S
C213 C214 1.419 . S
C214 C213 1.419 . S
C214 C215 1.391 . S
C214 C218 1.397 . S
C215 C210 1.391 . S
C215 C214 1.391 . S
C215 C216 1.399 . S
C216 C215 1.399 . S
C216 C217 1.396 . S
C216 C219 1.453 . S
C216 C220 1.684 . S
C217 C207 1.723 . S
C217 C216 1.396 . S
C217 C218 1.394 . S
C218 C188 1.723 . S
C218 C214 1.397 . S
C218 C217 1.394 . S
C219 H191 0.982 . S
C219 H195 0.979 . S
C219 H196 0.977 . S
C219 C216 1.453 . S
C220 H192 0.979 . S
C220 H193 0.980 . S
C220 H194 0.983 . S
C220 C216 1.684 . S
H221 C239 0.948 . S
H222 C180 0.948 . S
H223 C198 0.979 . S
H224 C198 0.980 . S
H225 C198 0.983 . S
H226 C197 0.982 . S
H227 C197 0.979 . S
H228 C197 0.977 . S
H229 C199 0.948 . S
H230 C201 0.947 . S
H231 C202 0.948 . S
H232 C208 0.982 . S
H233 C208 0.979 . S
H234 C208 0.977 . S
H235 C209 0.979 . S
H236 C209 0.980 . S
H237 C209 0.983 . S
H238 C182 0.947 . S
C239 C182 1.392 . S
C239 C183 1.419 . S
C239 H221 0.948 . S
C240 C241 1.391 . S
C240 C244 1.391 . S
C240 H282 0.948 . S
C241 C240 1.391 . S
C241 C242 1.391 . S
C242 C241 1.391 . S
C242 H298 0.947 . S
C242 C299 1.392 . S
C243 C244 1.391 . S
C243 C247 1.397 . S
C243 C299 1.419 . S
C244 C240 1.391 . S
C244 C243 1.391 . S
C244 C245 1.399 . S
C245 C244 1.399 . S
C245 C248 1.396 . S
C245 C257 1.453 . S
C245 C258 1.684 . S
H246 C270 0.948 . S
C247 C243 1.397 . S
C247 C248 1.394 . S
C247 C266 1.723 . S
C248 C245 1.396 . S
C248 C247 1.394 . S
C248 C278 1.723 . S
H249 C272 0.947 . S
H250 C273 0.948 . S
H251 C279 0.982 . S
H252 C280 0.979 . S
H253 C280 0.980 . S
H254 C280 0.983 . S
H255 C279 0.979 . S
H256 C279 0.977 . S
C257 C245 1.453 . S
C257 H286 0.982 . S
C257 H287 0.979 . S
C257 H288 0.977 . S
C258 C245 1.684 . S
C258 H283 0.979 . S
C258 H284 0.980 . S
C258 H285 0.983 . S
C259 C260 1.391 . S
C259 C264 1.391 . S
C259 H289 0.948 . S
C260 C259 1.391 . S
C260 C261 1.391 . S
C261 C260 1.391 . S
C261 C262 1.392 . S
C261 H290 0.947 . S
C262 C261 1.392 . S
C262 C263 1.419 . S
C262 H291 0.948 . S
C263 C262 1.419 . S
C263 C264 1.391 . S
C263 C267 1.397 . S
C264 C259 1.391 . S
C264 C263 1.391 . S
C264 C265 1.399 . S
C265 C264 1.399 . S
C265 C266 1.396 . S
C265 C268 1.453 . S
C265 C269 1.684 . S
C266 C247 1.723 . S
C266 C265 1.396 . S
C266 C267 1.394 . S
C267 C263 1.397 . S
C267 C266 1.394 . S
C267 C277 1.723 . S
C268 C265 1.453 . S
C268 H292 0.982 . S
C268 H293 0.979 . S
C268 H294 0.977 . S
C269 C265 1.684 . S
C269 H295 0.979 . S
C269 H296 0.980 . S
C269 H297 0.983 . S
C270 H246 0.948 . S
C270 C271 1.391 . S
C270 C275 1.391 . S
C271 C270 1.391 . S
C271 C272 1.391 . S
C272 H249 0.947 . S
C272 C271 1.391 . S
C272 C273 1.392 . S
C273 H250 0.948 . S
C273 C272 1.392 . S
C273 C274 1.419 . S
C274 C273 1.419 . S
C274 C275 1.391 . S
C274 C278 1.397 . S
C275 C270 1.391 . S
C275 C274 1.391 . S
C275 C276 1.399 . S
C276 C275 1.399 . S
C276 C277 1.396 . S
C276 C279 1.453 . S
C276 C280 1.684 . S
C277 C267 1.723 . S
C277 C276 1.396 . S
C277 C278 1.394 . S
C278 C248 1.723 . S
C278 C274 1.397 . S
C278 C277 1.394 . S
C279 H251 0.982 . S
C279 H255 0.979 . S
C279 H256 0.977 . S
C279 C276 1.453 . S
C280 H252 0.979 . S
C280 H253 0.980 . S
C280 H254 0.983 . S
C280 C276 1.684 . S
H281 C299 0.948 . S
H282 C240 0.948 . S
H283 C258 0.979 . S
H284 C258 0.980 . S
H285 C258 0.983 . S
H286 C257 0.982 . S
H287 C257 0.979 . S
H288 C257 0.977 . S
H289 C259 0.948 . S
H290 C261 0.947 . S
H291 C262 0.948 . S
H292 C268 0.982 . S
H293 C268 0.979 . S
H294 C268 0.977 . S
H295 C269 0.979 . S
H296 C269 0.980 . S
H297 C269 0.983 . S
H298 C242 0.947 . S
C299 C242 1.392 . S
C299 C243 1.419 . S
C299 H281 0.948 . S
C300 C301 1.391 . S
C300 C304 1.391 . S
C300 H342 0.948 . S
C301 C300 1.391 . S
C301 C302 1.391 . S
C302 C301 1.391 . S
C302 H358 0.947 . S
C302 C359 1.392 . S
C303 C304 1.391 . S
C303 C307 1.397 . S
C303 C359 1.419 . S
C304 C300 1.391 . S
C304 C303 1.391 . S
C304 C305 1.399 . S
C305 C304 1.399 . S
C305 C308 1.396 . S
C305 C317 1.453 . S
C305 C318 1.684 . S
H306 C330 0.948 . S
C307 C303 1.397 . S
C307 C308 1.394 . S
C307 C326 1.723 . S
C308 C305 1.396 . S
C308 C307 1.394 . S
C308 C338 1.723 . S
H309 C332 0.947 . S
H310 C333 0.948 . S
H311 C339 0.982 . S
H312 C340 0.979 . S
H313 C340 0.980 . S
H314 C340 0.983 . S
H315 C339 0.979 . S
H316 C339 0.977 . S
C317 C305 1.453 . S
C317 H346 0.982 . S
C317 H347 0.979 . S
C317 H348 0.977 . S
C318 C305 1.684 . S
C318 H343 0.979 . S
C318 H344 0.980 . S
C318 H345 0.983 . S
C319 C320 1.391 . S
C319 C324 1.391 . S
C319 H349 0.948 . S
C320 C319 1.391 . S
C320 C321 1.391 . S
C321 C320 1.391 . S
C321 C322 1.392 . S
C321 H350 0.947 . S
C322 C321 1.392 . S
C322 C323 1.419 . S
C322 H351 0.948 . S
C323 C322 1.419 . S
C323 C324 1.391 . S
C323 C327 1.397 . S
C324 C319 1.391 . S
C324 C323 1.391 . S
C324 C325 1.399 . S
C325 C324 1.399 . S
C325 C326 1.396 . S
C325 C328 1.453 . S
C325 C329 1.684 . S
C326 C307 1.723 . S
C326 C325 1.396 . S
C326 C327 1.394 . S
C327 C323 1.397 . S
C327 C326 1.394 . S
C327 C337 1.723 . S
C328 C325 1.453 . S
C328 H352 0.982 . S
C328 H353 0.979 . S
C328 H354 0.977 . S
C329 C325 1.684 . S
C329 H355 0.979 . S
C329 H356 0.980 . S
C329 H357 0.983 . S
C330 H306 0.948 . S
C330 C331 1.391 . S
C330 C335 1.391 . S
C331 C330 1.391 . S
C331 C332 1.391 . S
C332 H309 0.947 . S
C332 C331 1.391 . S
C332 C333 1.392 . S
C333 H310 0.948 . S
C333 C332 1.392 . S
C333 C334 1.419 . S
C334 C333 1.419 . S
C334 C335 1.391 . S
C334 C338 1.397 . S
C335 C330 1.391 . S
C335 C334 1.391 . S
C335 C336 1.399 . S
C336 C335 1.399 . S
C336 C337 1.396 . S
C336 C339 1.453 . S
C336 C340 1.684 . S
C337 C327 1.723 . S
C337 C336 1.396 . S
C337 C338 1.394 . S
C338 C308 1.723 . S
C338 C334 1.397 . S
C338 C337 1.394 . S
C339 H311 0.982 . S
C339 H315 0.979 . S
C339 H316 0.977 . S
C339 C336 1.453 . S
C340 H312 0.979 . S
C340 H313 0.980 . S
C340 H314 0.983 . S
C340 C336 1.684 . S
H341 C359 0.948 . S
H342 C300 0.948 . S
H343 C318 0.979 . S
H344 C318 0.980 . S
H345 C318 0.983 . S
H346 C317 0.982 . S
H347 C317 0.979 . S
H348 C317 0.977 . S
H349 C319 0.948 . S
H350 C321 0.947 . S
H351 C322 0.948 . S
H352 C328 0.982 . S
H353 C328 0.979 . S
H354 C328 0.977 . S
H355 C329 0.979 . S
H356 C329 0.980 . S
H357 C329 0.983 . S
H358 C302 0.947 . S
C359 C302 1.392 . S
C359 C303 1.419 . S
C359 H341 0.948 . S
C360 C361 1.391 . S
C360 C364 1.391 . S
C360 H402 0.948 . S
C361 C360 1.391 . S
C361 C362 1.391 . S
C362 C361 1.391 . S
C362 H418 0.947 . S
C362 C419 1.392 . S
C363 C364 1.391 . S
C363 C367 1.397 . S
C363 C419 1.419 . S
C364 C360 1.391 . S
C364 C363 1.391 . S
C364 C365 1.399 . S
C365 C364 1.399 . S
C365 C368 1.396 . S
C365 C377 1.453 . S
C365 C378 1.684 . S
H366 C390 0.948 . S
C367 C363 1.397 . S
C367 C368 1.394 . S
C367 C386 1.723 . S
C368 C365 1.396 . S
C368 C367 1.394 . S
C368 C398 1.723 . S
H369 C392 0.947 . S
H370 C393 0.948 . S
H371 C399 0.982 . S
H372 C400 0.979 . S
H373 C400 0.980 . S
H374 C400 0.983 . S
H375 C399 0.979 . S
H376 C399 0.977 . S
C377 C365 1.453 . S
C377 H406 0.982 . S
C377 H407 0.979 . S
C377 H408 0.977 . S
C378 C365 1.684 . S
C378 H403 0.979 . S
C378 H404 0.980 . S
C378 H405 0.983 . S
C379 C380 1.391 . S
C379 C384 1.391 . S
C379 H409 0.948 . S
C380 C379 1.391 . S
C380 C381 1.391 . S
C381 C380 1.391 . S
C381 C382 1.392 . S
C381 H410 0.947 . S
C382 C381 1.392 . S
C382 C383 1.419 . S
C382 H411 0.948 . S
C383 C382 1.419 . S
C383 C384 1.391 . S
C383 C387 1.397 . S
C384 C379 1.391 . S
C384 C383 1.391 . S
C384 C385 1.399 . S
C385 C384 1.399 . S
C385 C386 1.396 . S
C385 C388 1.453 . S
C385 C389 1.684 . S
C386 C367 1.723 . S
C386 C385 1.396 . S
C386 C387 1.394 . S
C387 C383 1.397 . S
C387 C386 1.394 . S
C387 C397 1.723 . S
C388 C385 1.453 . S
C388 H412 0.982 . S
C388 H413 0.979 . S
C388 H414 0.977 . S
C389 C385 1.684 . S
C389 H415 0.979 . S
C389 H416 0.980 . S
C389 H417 0.983 . S
C390 H366 0.948 . S
C390 C391 1.391 . S
C390 C395 1.391 . S
C391 C390 1.391 . S
C391 C392 1.391 . S
C392 H369 0.947 . S
C392 C391 1.391 . S
C392 C393 1.392 . S
C393 H370 0.948 . S
C393 C392 1.392 . S
C393 C394 1.419 . S
C394 C393 1.419 . S
C394 C395 1.391 . S
C394 C398 1.397 . S
C395 C390 1.391 . S
C395 C394 1.391 . S
C395 C396 1.399 . S
C396 C395 1.399 . S
C396 C397 1.396 . S
C396 C399 1.453 . S
C396 C400 1.684 . S
C397 C387 1.723 . S
C397 C396 1.396 . S
C397 C398 1.394 . S
C398 C368 1.723 . S
C398 C394 1.397 . S
C398 C397 1.394 . S
C399 H371 0.982 . S
C399 H375 0.979 . S
C399 H376 0.977 . S
C399 C396 1.453 . S
C400 H372 0.979 . S
C400 H373 0.980 . S
C400 H374 0.983 . S
C400 C396 1.684 . S
H401 C419 0.948 . S
H402 C360 0.948 . S
H403 C378 0.979 . S
H404 C378 0.980 . S
H405 C378 0.983 . S
H406 C377 0.982 . S
H407 C377 0.979 . S
H408 C377 0.977 . S
H409 C379 0.948 . S
H410 C381 0.947 . S
H411 C382 0.948 . S
H412 C388 0.982 . S
H413 C388 0.979 . S
H414 C388 0.977 . S
H415 C389 0.979 . S
H416 C389 0.980 . S
H417 C389 0.983 . S
H418 C362 0.947 . S
C419 C362 1.392 . S
C419 C363 1.419 . S
C419 H401 0.948 . S
C420 C421 1.391 . S
C420 C424 1.391 . S
C420 H462 0.948 . S
C421 C420 1.391 . S
C421 C422 1.391 . S
C422 C421 1.391 . S
C422 H478 0.947 . S
C422 C479 1.392 . S
C423 C424 1.391 . S
C423 C427 1.397 . S
C423 C479 1.419 . S
C424 C420 1.391 . S
C424 C423 1.391 . S
C424 C425 1.399 . S
C425 C424 1.399 . S
C425 C428 1.396 . S
C425 C437 1.453 . S
C425 C438 1.684 . S
H426 C450 0.948 . S
C427 C423 1.397 . S
C427 C428 1.394 . S
C427 C446 1.723 . S
C428 C425 1.396 . S
C428 C427 1.394 . S
C428 C458 1.723 . S
H429 C452 0.947 . S
H430 C453 0.948 . S
H431 C459 0.982 . S
H432 C460 0.979 . S
H433 C460 0.980 . S
H434 C460 0.983 . S
H435 C459 0.979 . S
H436 C459 0.977 . S
C437 C425 1.453 . S
C437 H466 0.982 . S
C437 H467 0.979 . S
C437 H468 0.977 . S
C438 C425 1.684 . S
C438 H463 0.979 . S
C438 H464 0.980 . S
C438 H465 0.983 . S
C439 C440 1.391 . S
C439 C444 1.391 . S
C439 H469 0.948 . S
C440 C439 1.391 . S
C440 C441 1.391 . S
C441 C440 1.391 . S
C441 C442 1.392 . S
C441 H470 0.947 . S
C442 C441 1.392 . S
C442 C443 1.419 . S
C442 H471 0.948 . S
C443 C442 1.419 . S
C443 C444 1.391 . S
C443 C447 1.397 . S
C444 C439 1.391 . S
C444 C443 1.391 . S
C444 C445 1.399 . S
C445 C444 1.399 . S
C445 C446 1.396 . S
C445 C448 1.453 . S
C445 C449 1.684 . S
C446 C427 1.723 . S
C446 C445 1.396 . S
C446 C447 1.394 . S
C447 C443 1.397 . S
C447 C446 1.394 . S
C447 C457 1.723 . S
C448 C445 1.453 . S
C448 H472 0.982 . S
C448 H473 0.979 . S
C448 H474 0.977 . S
C449 C445 1.684 . S
C449 H475 0.979 . S
C449 H476 0.980 . S
C449 H477 0.983 . S
C450 H426 0.948 . S
C450 C451 1.391 . S
C450 C455 1.391 . S
C451 C450 1.391 . S
C451 C452 1.391 . S
C452 H429 0.947 . S
C452 C451 1.391 . S
C452 C453 1.392 . S
C453 H430 0.948 . S
C453 C452 1.392 . S
C453 C454 1.419 . S
C454 C453 1.419 . S
C454 C455 1.391 . S
C454 C458 1.397 . S
C455 C450 1.391 . S
C455 C454 1.391 . S
C455 C456 1.399 . S
C456 C455 1.399 . S
C456 C457 1.396 . S
C456 C459 1.453 . S
C456 C460 1.684 . S
C457 C447 1.723 . S
C457 C456 1.396 . S
C457 C458 1.394 . S
C458 C428 1.723 . S
C458 C454 1.397 . S
C458 C457 1.394 . S
C459 H431 0.982 . S
C459 H435 0.979 . S
C459 H436 0.977 . S
C459 C456 1.453 . S
C460 H432 0.979 . S
C460 H433 0.980 . S
C460 H434 0.983 . S
C460 C456 1.684 . S
H461 C479 0.948 . S
H462 C420 0.948 . S
H463 C438 0.979 . S
H464 C438 0.980 . S
H465 C438 0.983 . S
H466 C437 0.982 . S
H467 C437 0.979 . S
H468 C437 0.977 . S
H469 C439 0.948 . S
H470 C441 0.947 . S
H471 C442 0.948 . S
H472 C448 0.982 . S
H473 C448 0.979 . S
H474 C448 0.977 . S
H475 C449 0.979 . S
H476 C449 0.980 . S
H477 C449 0.983 . S
H478 C422 0.947 . S
C479 C422 1.392 . S
C479 C423 1.419 . S
C479 H461 0.948 . S
Co480 O483 2.042 . S
Co480 O490 2.264 . S
Co480 O509 2.286 . S
Co480 O510 2.069 . S
Co480 O512 2.015 . S
Co481 O483 2.122 . S
Co481 O489 2.073 . S
Co481 O490 2.327 . S
Co481 O491 1.976 . S
Co482 O483 2.106 . S
Co482 O485 2.068 1_455 S
Co482 O492 2.121 . S
Co482 O493 2.130 1_455 S
Co482 O497 2.102 1_455 S
Co482 O511 2.157 . S
O483 Co480 2.042 . S
O483 Co481 2.122 . S
O483 Co482 2.106 . S
O483 H484 0.980 . S
H484 O483 0.980 . S
O485 Co482 2.068 1_655 S
O485 Co486 2.042 . S
O485 Co487 2.122 . S
O485 H488 0.980 . S
Co486 O485 2.042 . S
Co486 O494 2.286 . S
Co486 O495 2.069 . S
Co486 O496 2.015 . S
Co486 O499 2.264 . S
Co487 O485 2.122 . S
Co487 O498 1.976 . S
Co487 O499 2.327 . S
Co487 O500 2.073 . S
H488 O485 0.980 . S
O489 Co481 2.073 . S
O489 C504 1.245 . S
O490 Co480 2.264 . S
O490 Co481 2.327 . S
O490 C504 1.257 . S
O491 Co481 1.976 . S
O491 C503 1.251 . S
O492 Co482 2.121 . S
O492 C503 1.274 . S
O493 Co482 2.130 1_655 S
O493 C506 1.246 . S
O494 Co486 2.286 . S
O494 C505 1.259 . S
O495 Co486 2.069 . S
O495 C505 1.289 . S
O496 Co486 2.015 . S
O496 C506 1.257 . S
O497 Co482 2.102 1_655 S
O497 C507 1.274 . S
O498 Co487 1.976 . S
O498 C507 1.251 . S
O499 Co486 2.264 . S
O499 Co487 2.327 . S
O499 C508 1.257 . S
O500 Co487 2.073 . S
O500 C508 1.245 . S
C501 O509 1.259 . S
C501 O510 1.289 . S
C502 O511 1.246 . S
C502 O512 1.257 . S
C503 O491 1.251 . S
C503 O492 1.274 . S
C504 O489 1.245 . S
C504 O490 1.257 . S
C505 O494 1.259 . S
C505 O495 1.289 . S
C506 O493 1.246 . S
C506 O496 1.257 . S
C507 O497 1.274 . S
C507 O498 1.251 . S
C508 O499 1.257 . S
C508 O500 1.245 . S
O509 Co480 2.286 . S
O509 C501 1.259 . S
O510 Co480 2.069 . S
O510 C501 1.289 . S
O511 Co482 2.157 . S
O511 C502 1.246 . S
O512 Co480 2.015 . S
O512 C502 1.257 . S
Co513 O516 2.042 . S
Co513 O523 2.264 . S
Co513 O542 2.286 . S
Co513 O543 2.069 . S
Co513 O545 2.015 . S
Co514 O516 2.122 . S
Co514 O522 2.073 . S
Co514 O523 2.327 . S
Co514 O524 1.976 . S
Co515 O516 2.063 1_545 S
Co515 O518 2.111 . S
Co515 O525 2.101 1_545 S
Co515 O526 2.161 . S
Co515 O530 2.122 . S
Co515 O544 2.126 1_545 S
O516 Co513 2.042 . S
O516 Co514 2.122 . S
O516 Co515 2.063 1_565 S
O516 H517 0.980 . S
H517 O516 0.980 . S
O518 Co515 2.111 . S
O518 Co519 2.042 . S
O518 Co520 2.122 . S
O518 H521 0.980 . S
Co519 O518 2.042 . S
Co519 O527 2.286 . S
Co519 O528 2.069 . S
Co519 O529 2.015 . S
Co519 O532 2.264 . S
Co520 O518 2.122 . S
Co520 O531 1.976 . S
Co520 O532 2.327 . S
Co520 O533 2.073 . S
H521 O518 0.980 . S
O522 Co514 2.073 . S
O522 C537 1.245 . S
O523 Co513 2.264 . S
O523 Co514 2.327 . S
O523 C537 1.257 . S
O524 Co514 1.976 . S
O524 C536 1.251 . S
O525 Co515 2.101 1_565 S
O525 C536 1.274 . S
O526 Co515 2.161 . S
O526 C539 1.246 . S
O527 Co519 2.286 . S
O527 C538 1.259 . S
O528 Co519 2.069 . S
O528 C538 1.289 . S
O529 Co519 2.015 . S
O529 C539 1.257 . S
O530 Co515 2.122 . S
O530 C540 1.274 . S
O531 Co520 1.976 . S
O531 C540 1.251 . S
O532 Co519 2.264 . S
O532 Co520 2.327 . S
O532 C541 1.257 . S
O533 Co520 2.073 . S
O533 C541 1.245 . S
C534 O542 1.259 . S
C534 O543 1.289 . S
C535 O544 1.246 . S
C535 O545 1.257 . S
C536 O524 1.251 . S
C536 O525 1.274 . S
C537 O522 1.245 . S
C537 O523 1.257 . S
C538 O527 1.259 . S
C538 O528 1.289 . S
C539 O526 1.246 . S
C539 O529 1.257 . S
C540 O530 1.274 . S
C540 O531 1.251 . S
C541 O532 1.257 . S
C541 O533 1.245 . S
O542 Co513 2.286 . S
O542 C534 1.259 . S
O543 Co513 2.069 . S
O543 C534 1.289 . S
O544 Co515 2.126 1_565 S
O544 C535 1.246 . S
O545 Co513 2.015 . S
O545 C535 1.257 . S
Co546 O549 2.042 . S
Co546 O556 2.264 . S
Co546 O575 2.286 . S
Co546 O576 2.069 . S
Co546 O578 2.015 . S
Co547 O549 2.122 . S
Co547 O555 2.073 . S
Co547 O556 2.327 . S
Co547 O557 1.976 . S
Co548 O549 2.098 . S
Co548 O551 2.076 1_554 S
Co548 O558 2.116 . S
Co548 O559 2.135 1_554 S
Co548 O563 2.106 1_554 S
Co548 O577 2.152 . S
O549 Co546 2.042 . S
O549 Co547 2.122 . S
O549 Co548 2.098 . S
O549 H550 0.980 . S
H550 O549 0.980 . S
O551 Co548 2.076 1_556 S
O551 Co552 2.042 . S
O551 Co553 2.122 . S
O551 H554 0.980 . S
Co552 O551 2.042 . S
Co552 O560 2.286 . S
Co552 O561 2.069 . S
Co552 O562 2.015 . S
Co552 O565 2.264 . S
Co553 O551 2.122 . S
Co553 O564 1.976 . S
Co553 O565 2.327 . S
Co553 O566 2.073 . S
H554 O551 0.980 . S
O555 Co547 2.073 . S
O555 C570 1.245 . S
O556 Co546 2.264 . S
O556 Co547 2.327 . S
O556 C570 1.257 . S
O557 Co547 1.976 . S
O557 C569 1.251 . S
O558 Co548 2.116 . S
O558 C569 1.274 . S
O559 Co548 2.135 1_556 S
O559 C572 1.246 . S
O560 Co552 2.286 . S
O560 C571 1.259 . S
O561 Co552 2.069 . S
O561 C571 1.289 . S
O562 Co552 2.015 . S
O562 C572 1.257 . S
O563 Co548 2.106 1_556 S
O563 C573 1.274 . S
O564 Co553 1.976 . S
O564 C573 1.251 . S
O565 Co552 2.264 . S
O565 Co553 2.327 . S
O565 C574 1.257 . S
O566 Co553 2.073 . S
O566 C574 1.245 . S
C567 O575 1.259 . S
C567 O576 1.289 . S
C568 O577 1.246 . S
C568 O578 1.257 . S
C569 O557 1.251 . S
C569 O558 1.274 . S
C570 O555 1.245 . S
C570 O556 1.257 . S
C571 O560 1.259 . S
C571 O561 1.289 . S
C572 O559 1.246 . S
C572 O562 1.257 . S
C573 O563 1.274 . S
C573 O564 1.251 . S
C574 O565 1.257 . S
C574 O566 1.245 . S
O575 Co546 2.286 . S
O575 C567 1.259 . S
O576 Co546 2.069 . S
O576 C567 1.289 . S
O577 Co548 2.152 . S
O577 C568 1.246 . S
O578 Co546 2.015 . S
O578 C568 1.257 . S
C579 C580 1.369 . S
C579 C581 1.419 . S
C579 H583 0.930 . S
C580 C579 1.369 . S
C580 C589 1.429 . S
C581 C579 1.419 . S
C581 C582 1.363 . S
C581 H584 0.929 . S
C582 C581 1.363 . S
C582 C588 1.428 . S
H583 C579 0.930 . S
H584 C581 0.929 . S
S585 N586 1.613 . S
S585 N587 1.610 . S
N586 S585 1.613 . S
N586 C589 1.350 . S
N587 S585 1.610 . S
N587 C588 1.351 . S
C588 C582 1.428 . S
C588 N587 1.351 . S
C588 C589 1.434 . S
C589 C580 1.429 . S
C589 N586 1.350 . S
C589 C588 1.434 . S
C590 C591 1.369 . S
C590 C592 1.419 . S
C590 H594 0.930 . S
C591 C590 1.369 . S
C591 C600 1.429 . S
C592 C590 1.419 . S
C592 C593 1.363 . S
C592 H595 0.929 . S
C593 C592 1.363 . S
C593 C599 1.428 . S
H594 C590 0.930 . S
H595 C592 0.929 . S
S596 N597 1.613 . S
S596 N598 1.610 . S
N597 S596 1.613 . S
N597 C600 1.350 . S
N598 S596 1.610 . S
N598 C599 1.351 . S
C599 C593 1.428 . S
C599 N598 1.351 . S
C599 C600 1.434 . S
C600 C591 1.429 . S
C600 N597 1.350 . S
C600 C599 1.434 . S
C601 C602 1.369 . S
C601 C603 1.419 . S
C601 H605 0.930 . S
C602 C601 1.369 . S
C602 C611 1.429 . S
C603 C601 1.419 . S
C603 C604 1.363 . S
C603 H606 0.929 . S
C604 C603 1.363 . S
C604 C610 1.428 . S
H605 C601 0.930 . S
H606 C603 0.929 . S
S607 N608 1.613 . S
S607 N609 1.610 . S
N608 S607 1.613 . S
N608 C611 1.350 . S
N609 S607 1.610 . S
N609 C610 1.351 . S
C610 C604 1.428 . S
C610 N609 1.351 . S
C610 C611 1.434 . S
C611 C602 1.429 . S
C611 N608 1.350 . S
C611 C610 1.434 . S
C612 C613 1.369 . S
C612 C614 1.419 . S
C612 H616 0.930 . S
C613 C612 1.369 . S
C613 C622 1.429 . S
C614 C612 1.419 . S
C614 C615 1.363 . S
C614 H617 0.929 . S
C615 C614 1.363 . S
C615 C621 1.428 . S
H616 C612 0.930 . S
H617 C614 0.929 . S
S618 N619 1.613 . S
S618 N620 1.610 . S
N619 S618 1.613 . S
N619 C622 1.350 . S
N620 S618 1.610 . S
N620 C621 1.351 . S
C621 C615 1.428 . S
C621 N620 1.351 . S
C621 C622 1.434 . S
C622 C613 1.429 . S
C622 N619 1.350 . S
C622 C621 1.434 . S
C623 C624 1.369 . S
C623 C625 1.419 . S
C623 H627 0.930 . S
C624 C623 1.369 . S
C624 C633 1.429 . S
C625 C623 1.419 . S
C625 C626 1.363 . S
C625 H628 0.929 . S
C626 C625 1.363 . S
C626 C632 1.428 . S
H627 C623 0.930 . S
H628 C625 0.929 . S
S629 N630 1.613 . S
S629 N631 1.610 . S
N630 S629 1.613 . S
N630 C633 1.350 . S
N631 S629 1.610 . S
N631 C632 1.351 . S
C632 C626 1.428 . S
C632 N631 1.351 . S
C632 C633 1.434 . S
C633 C624 1.429 . S
C633 N630 1.350 . S
C633 C632 1.434 . S
C634 C635 1.369 . S
C634 C636 1.419 . S
C634 H638 0.930 . S
C635 C634 1.369 . S
C635 C644 1.429 . S
C636 C634 1.419 . S
C636 C637 1.363 . S
C636 H639 0.929 . S
C637 C636 1.363 . S
C637 C643 1.428 . S
H638 C634 0.930 . S
H639 C636 0.929 . S
S640 N641 1.613 . S
S640 N642 1.610 . S
N641 S640 1.613 . S
N641 C644 1.350 . S
N642 S640 1.610 . S
N642 C643 1.351 . S
C643 C637 1.428 . S
C643 N642 1.351 . S
C643 C644 1.434 . S
C644 C635 1.429 . S
C644 N641 1.350 . S
C644 C643 1.434 . S
C645 C646 1.369 . S
C645 C647 1.419 . S
C645 H649 0.930 . S
C646 C645 1.369 . S
C646 C655 1.429 . S
C647 C645 1.419 . S
C647 C648 1.363 . S
C647 H650 0.929 . S
C648 C647 1.363 . S
C648 C654 1.428 . S
H649 C645 0.930 . S
H650 C647 0.929 . S
S651 N652 1.613 . S
S651 N653 1.610 . S
N652 S651 1.613 . S
N652 C655 1.350 . S
N653 S651 1.610 . S
N653 C654 1.351 . S
C654 C648 1.428 . S
C654 N653 1.351 . S
C654 C655 1.434 . S
C655 C646 1.429 . S
C655 N652 1.350 . S
C655 C654 1.434 . S
C656 C657 1.369 . S
C656 C658 1.419 . S
C656 H660 0.930 . S
C657 C656 1.369 . S
C657 C666 1.429 . S
C658 C656 1.419 . S
C658 C659 1.363 . S
C658 H661 0.929 . S
C659 C658 1.363 . S
C659 C665 1.428 . S
H660 C656 0.930 . S
H661 C658 0.929 . S
S662 N663 1.613 . S
S662 N664 1.610 . S
N663 S662 1.613 . S
N663 C666 1.350 . S
N664 S662 1.610 . S
N664 C665 1.351 . S
C665 C659 1.428 . S
C665 N664 1.351 . S
C665 C666 1.434 . S
C666 C657 1.429 . S
C666 N663 1.350 . S
C666 C665 1.434 . S
C667 C668 1.369 . S
C667 C669 1.419 . S
C667 H671 0.930 . S
C668 C667 1.369 . S
C668 C677 1.429 . S
C669 C667 1.419 . S
C669 C670 1.363 . S
C669 H672 0.929 . S
C670 C669 1.363 . S
C670 C676 1.428 . S
H671 C667 0.930 . S
H672 C669 0.929 . S
S673 N674 1.613 . S
S673 N675 1.610 . S
N674 S673 1.613 . S
N674 C677 1.350 . S
N675 S673 1.610 . S
N675 C676 1.351 . S
C676 C670 1.428 . S
C676 N675 1.351 . S
C676 C677 1.434 . S
C677 C668 1.429 . S
C677 N674 1.350 . S
C677 C676 1.434 . S
C678 C679 1.369 . S
C678 C680 1.419 . S
C678 H682 0.930 . S
C679 C678 1.369 . S
C679 C688 1.429 . S
C680 C678 1.419 . S
C680 C681 1.363 . S
C680 H683 0.929 . S
C681 C680 1.363 . S
C681 C687 1.428 . S
H682 C678 0.930 . S
H683 C680 0.929 . S
S684 N685 1.613 . S
S684 N686 1.610 . S
N685 S684 1.613 . S
N685 C688 1.350 . S
N686 S684 1.610 . S
N686 C687 1.351 . S
C687 C681 1.428 . S
C687 N686 1.351 . S
C687 C688 1.434 . S
C688 C679 1.429 . S
C688 N685 1.350 . S
C688 C687 1.434 . S
C689 C690 1.369 . S
C689 C691 1.419 . S
C689 H693 0.930 . S
C690 C689 1.369 . S
C690 C699 1.429 . S
C691 C689 1.419 . S
C691 C692 1.363 . S
C691 H694 0.929 . S
C692 C691 1.363 . S
C692 C698 1.428 . S
H693 C689 0.930 . S
H694 C691 0.929 . S
S695 N696 1.613 . S
S695 N697 1.610 . S
N696 S695 1.613 . S
N696 C699 1.350 . S
N697 S695 1.610 . S
N697 C698 1.351 . S
C698 C692 1.428 . S
C698 N697 1.351 . S
C698 C699 1.434 . S
C699 C690 1.429 . S
C699 N696 1.350 . S
C699 C698 1.434 . S
C700 C701 1.369 . S
C700 C702 1.419 . S
C700 H704 0.930 . S
C701 C700 1.369 . S
C701 C710 1.429 . S
C702 C700 1.419 . S
C702 C703 1.363 . S
C702 H705 0.929 . S
C703 C702 1.363 . S
C703 C709 1.428 . S
H704 C700 0.930 . S
H705 C702 0.929 . S
S706 N707 1.613 . S
S706 N708 1.610 . S
N707 S706 1.613 . S
N707 C710 1.350 . S
N708 S706 1.610 . S
N708 C709 1.351 . S
C709 C703 1.428 . S
C709 N708 1.351 . S
C709 C710 1.434 . S
C710 C701 1.429 . S
C710 N707 1.350 . S
C710 C709 1.434 . S
C711 C712 1.369 . S
C711 C713 1.419 . S
C711 H715 0.930 . S
C712 C711 1.369 . S
C712 C721 1.429 . S
C713 C711 1.419 . S
C713 C714 1.363 . S
C713 H716 0.929 . S
C714 C713 1.363 . S
C714 C720 1.428 . S
H715 C711 0.930 . S
H716 C713 0.929 . S
S717 N718 1.613 . S
S717 N719 1.610 . S
N718 S717 1.613 . S
N718 C721 1.350 . S
N719 S717 1.610 . S
N719 C720 1.351 . S
C720 C714 1.428 . S
C720 N719 1.351 . S
C720 C721 1.434 . S
C721 C712 1.429 . S
C721 N718 1.350 . S
C721 C720 1.434 . S
C722 C723 1.369 . S
C722 C724 1.419 . S
C722 H726 0.930 . S
C723 C722 1.369 . S
C723 C732 1.429 . S
C724 C722 1.419 . S
C724 C725 1.363 . S
C724 H727 0.929 . S
C725 C724 1.363 . S
C725 C731 1.428 . S
H726 C722 0.930 . S
H727 C724 0.929 . S
S728 N729 1.613 . S
S728 N730 1.610 . S
N729 S728 1.613 . S
N729 C732 1.350 . S
N730 S728 1.610 . S
N730 C731 1.351 . S
C731 C725 1.428 . S
C731 N730 1.351 . S
C731 C732 1.434 . S
C732 C723 1.429 . S
C732 N729 1.350 . S
C732 C731 1.434 . S
C733 C734 1.369 . S
C733 C735 1.419 . S
C733 H737 0.930 . S
C734 C733 1.369 . S
C734 C743 1.429 . S
C735 C733 1.419 . S
C735 C736 1.363 . S
C735 H738 0.929 . S
C736 C735 1.363 . S
C736 C742 1.428 . S
H737 C733 0.930 . S
H738 C735 0.929 . S
S739 N740 1.613 . S
S739 N741 1.610 . S
N740 S739 1.613 . S
N740 C743 1.350 . S
N741 S739 1.610 . S
N741 C742 1.351 . S
C742 C736 1.428 . S
C742 N741 1.351 . S
C742 C743 1.434 . S
C743 C734 1.429 . S
C743 N740 1.350 . S
C743 C742 1.434 . S
C744 C745 1.369 . S
C744 C746 1.419 . S
C744 H748 0.930 . S
C745 C744 1.369 . S
C745 C754 1.429 . S
C746 C744 1.419 . S
C746 C747 1.363 . S
C746 H749 0.929 . S
C747 C746 1.363 . S
C747 C753 1.428 . S
H748 C744 0.930 . S
H749 C746 0.929 . S
S750 N751 1.613 . S
S750 N752 1.610 . S
N751 S750 1.613 . S
N751 C754 1.350 . S
N752 S750 1.610 . S
N752 C753 1.351 . S
C753 C747 1.428 . S
C753 N752 1.351 . S
C753 C754 1.434 . S
C754 C745 1.429 . S
C754 N751 1.350 . S
C754 C753 1.434 . S
C755 C756 1.369 . S
C755 C757 1.419 . S
C755 H759 0.930 . S
C756 C755 1.369 . S
C756 C765 1.429 . S
C757 C755 1.419 . S
C757 C758 1.363 . S
C757 H760 0.929 . S
C758 C757 1.363 . S
C758 C764 1.428 . S
H759 C755 0.930 . S
H760 C757 0.929 . S
S761 N762 1.613 . S
S761 N763 1.610 . S
N762 S761 1.613 . S
N762 C765 1.350 . S
N763 S761 1.610 . S
N763 C764 1.351 . S
C764 C758 1.428 . S
C764 N763 1.351 . S
C764 C765 1.434 . S
C765 C756 1.429 . S
C765 N762 1.350 . S
C765 C764 1.434 . S
C766 C767 1.369 . S
C766 C768 1.419 . S
C766 H770 0.930 . S
C767 C766 1.369 . S
C767 C776 1.429 . S
C768 C766 1.419 . S
C768 C769 1.363 . S
C768 H771 0.929 . S
C769 C768 1.363 . S
C769 C775 1.428 . S
H770 C766 0.930 . S
H771 C768 0.929 . S
S772 N773 1.613 . S
S772 N774 1.610 . S
N773 S772 1.613 . S
N773 C776 1.350 . S
N774 S772 1.610 . S
N774 C775 1.351 . S
C775 C769 1.428 . S
C775 N774 1.351 . S
C775 C776 1.434 . S
C776 C767 1.429 . S
C776 N773 1.350 . S
C776 C775 1.434 . S
C777 C778 1.369 . S
C777 C779 1.419 . S
C777 H781 0.930 . S
C778 C777 1.369 . S
C778 C787 1.429 . S
C779 C777 1.419 . S
C779 C780 1.363 . S
C779 H782 0.929 . S
C780 C779 1.363 . S
C780 C786 1.428 . S
H781 C777 0.930 . S
H782 C779 0.929 . S
S783 N784 1.613 . S
S783 N785 1.610 . S
N784 S783 1.613 . S
N784 C787 1.350 . S
N785 S783 1.610 . S
N785 C786 1.351 . S
C786 C780 1.428 . S
C786 N785 1.351 . S
C786 C787 1.434 . S
C787 C778 1.429 . S
C787 N784 1.350 . S
C787 C786 1.434 . S
C788 C789 1.369 . S
C788 C790 1.419 . S
C788 H792 0.930 . S
C789 C788 1.369 . S
C789 C798 1.429 . S
C790 C788 1.419 . S
C790 C791 1.363 . S
C790 H793 0.929 . S
C791 C790 1.363 . S
C791 C797 1.428 . S
H792 C788 0.930 . S
H793 C790 0.929 . S
S794 N795 1.613 . S
S794 N796 1.610 . S
N795 S794 1.613 . S
N795 C798 1.350 . S
N796 S794 1.610 . S
N796 C797 1.351 . S
C797 C791 1.428 . S
C797 N796 1.351 . S
C797 C798 1.434 . S
C798 C789 1.429 . S
C798 N795 1.350 . S
C798 C797 1.434 . S
C799 C800 1.369 . S
C799 C801 1.419 . S
C799 H803 0.930 . S
C800 C799 1.369 . S
C800 C809 1.429 . S
C801 C799 1.419 . S
C801 C802 1.363 . S
C801 H804 0.929 . S
C802 C801 1.363 . S
C802 C808 1.428 . S
H803 C799 0.930 . S
H804 C801 0.929 . S
S805 N806 1.613 . S
S805 N807 1.610 . S
N806 S805 1.613 . S
N806 C809 1.350 . S
N807 S805 1.610 . S
N807 C808 1.351 . S
C808 C802 1.428 . S
C808 N807 1.351 . S
C808 C809 1.434 . S
C809 C800 1.429 . S
C809 N806 1.350 . S
C809 C808 1.434 . S
C810 C811 1.369 . S
C810 C812 1.419 . S
C810 H814 0.930 . S
C811 C810 1.369 . S
C811 C820 1.429 . S
C812 C810 1.419 . S
C812 C813 1.363 . S
C812 H815 0.929 . S
C813 C812 1.363 . S
C813 C819 1.428 . S
H814 C810 0.930 . S
H815 C812 0.929 . S
S816 N817 1.613 . S
S816 N818 1.610 . S
N817 S816 1.613 . S
N817 C820 1.350 . S
N818 S816 1.610 . S
N818 C819 1.351 . S
C819 C813 1.428 . S
C819 N818 1.351 . S
C819 C820 1.434 . S
C820 C811 1.429 . S
C820 N817 1.350 . S
C820 C819 1.434 . S
C821 C822 1.369 . S
C821 C823 1.419 . S
C821 H825 0.930 . S
C822 C821 1.369 . S
C822 C831 1.429 . S
C823 C821 1.419 . S
C823 C824 1.363 . S
C823 H826 0.929 . S
C824 C823 1.363 . S
C824 C830 1.428 . S
H825 C821 0.930 . S
H826 C823 0.929 . S
S827 N828 1.613 . S
S827 N829 1.610 . S
N828 S827 1.613 . S
N828 C831 1.350 . S
N829 S827 1.610 . S
N829 C830 1.351 . S
C830 C824 1.428 . S
C830 N829 1.351 . S
C830 C831 1.434 . S
C831 C822 1.429 . S
C831 N828 1.350 . S
C831 C830 1.434 . S
C832 C833 1.369 . S
C832 C834 1.419 . S
C832 H836 0.930 . S
C833 C832 1.369 . S
C833 C842 1.429 . S
C834 C832 1.419 . S
C834 C835 1.363 . S
C834 H837 0.929 . S
C835 C834 1.363 . S
C835 C841 1.428 . S
H836 C832 0.930 . S
H837 C834 0.929 . S
S838 N839 1.613 . S
S838 N840 1.610 . S
N839 S838 1.613 . S
N839 C842 1.350 . S
N840 S838 1.610 . S
N840 C841 1.351 . S
C841 C835 1.428 . S
C841 N840 1.351 . S
C841 C842 1.434 . S
C842 C833 1.429 . S
C842 N839 1.350 . S
C842 C841 1.434 . S
C582 C504 1.184 . S
C580 C31 1.211 . S
C593 C540 1.685 . S
C591 C61 1.781 . S
C604 C505 1.451 . S
C602 C121 1.426 . S
C615 C535 1.576 . S
C613 C181 1.606 . S
C626 C502 1.548 . S
C624 C260 1.508 . S
C635 C331 1.711 . S
C637 C538 1.732 . S
C646 C380 1.320 . S
C648 C507 1.196 . S
C659 C537 1.529 . S
C657 C440 1.528 . S
C670 C541 1.533 . S
C668 C1 1.414 . S
C681 C506 1.548 . S
C679 C91 1.572 . S
C692 C534 1.730 . S
C690 C151 1.716 . S
C703 C503 1.191 . S
C701 C200 1.319 . S
C714 C536 1.678 . S
C712 C271 1.720 . S
C723 C301 1.431 . S
C725 C501 1.453 . S
C734 C361 1.609 . S
C736 C539 1.575 . S
C747 C508 1.180 . S
C745 C451 1.187 . S
C758 C570 1.586 . S
C756 C20 1.661 . S
C767 C241 1.961 . S
C769 C573 1.911 . S
C780 C572 1.731 . S
C778 C320 1.771 . S
C789 C391 2.019 . S
C791 C571 2.013 . S
C802 C574 1.585 . S
C800 C421 1.655 . S
C811 C140 1.770 . S
C813 C568 1.725 . S
C824 C567 2.013 . S
C822 C211 2.021 . S
C833 C80 2.032 . S
C835 C569 1.908 . S
