# Generated by pormake.
# Topology zzz, (3,6)-cn, num edge types: 1
# Building blocks:
#     Node 0, Type 0, BuildingBlock: BETDAH_clean_linker_0, # of connection points: 3
#     Node 1, Type 0, BuildingBlock: BETDAH_clean_linker_0, # of connection points: 3
#     Node 2, Type 0, BuildingBlock: BETDAH_clean_linker_0, # of connection points: 3
#     Node 3, Type 0, BuildingBlock: BETDAH_clean_linker_0, # of connection points: 3
#     Node 4, Type 0, BuildingBlock: BETDAH_clean_linker_0, # of connection points: 3
#     Node 5, Type 0, BuildingBlock: BETDAH_clean_linker_0, # of connection points: 3
#     Node 6, Type 0, BuildingBlock: BETDAH_clean_linker_0, # of connection points: 3
#     Node 7, Type 0, BuildingBlock: BETDAH_clean_linker_0, # of connection points: 3
#     Node 8, Type 1, BuildingBlock: BETGAK_clean_sbu_0, # of connection points: 6
#     Node 9, Type 1, BuildingBlock: BETGAK_clean_sbu_0, # of connection points: 6
#     Node 10, Type 1, BuildingBlock: BETGAK_clean_sbu_0, # of connection points: 6
#     Node 11, Type 1, BuildingBlock: BETGAK_clean_sbu_0, # of connection points: 6
#     Edge 12, Type (0, 1), BuildingBlock: KIFKEQ_clean_linker_1, # of connection points: 2
#     Edge 13, Type (0, 1), BuildingBlock: KIFKEQ_clean_linker_1, # of connection points: 2
#     Edge 14, Type (0, 1), BuildingBlock: KIFKEQ_clean_linker_1, # of connection points: 2
#     Edge 15, Type (0, 1), BuildingBlock: KIFKEQ_clean_linker_1, # of connection points: 2
#     Edge 16, Type (0, 1), BuildingBlock: KIFKEQ_clean_linker_1, # of connection points: 2
#     Edge 17, Type (0, 1), BuildingBlock: KIFKEQ_clean_linker_1, # of connection points: 2
#     Edge 18, Type (0, 1), BuildingBlock: KIFKEQ_clean_linker_1, # of connection points: 2
#     Edge 19, Type (0, 1), BuildingBlock: KIFKEQ_clean_linker_1, # of connection points: 2
#     Edge 20, Type (0, 1), BuildingBlock: KIFKEQ_clean_linker_1, # of connection points: 2
#     Edge 21, Type (0, 1), BuildingBlock: KIFKEQ_clean_linker_1, # of connection points: 2
#     Edge 22, Type (0, 1), BuildingBlock: KIFKEQ_clean_linker_1, # of connection points: 2
#     Edge 23, Type (0, 1), BuildingBlock: KIFKEQ_clean_linker_1, # of connection points: 2
#     Edge 24, Type (0, 1), BuildingBlock: KIFKEQ_clean_linker_1, # of connection points: 2
#     Edge 25, Type (0, 1), BuildingBlock: KIFKEQ_clean_linker_1, # of connection points: 2
#     Edge 26, Type (0, 1), BuildingBlock: KIFKEQ_clean_linker_1, # of connection points: 2
#     Edge 27, Type (0, 1), BuildingBlock: KIFKEQ_clean_linker_1, # of connection points: 2
#     Edge 28, Type (0, 1), BuildingBlock: KIFKEQ_clean_linker_1, # of connection points: 2
#     Edge 29, Type (0, 1), BuildingBlock: KIFKEQ_clean_linker_1, # of connection points: 2
#     Edge 30, Type (0, 1), BuildingBlock: KIFKEQ_clean_linker_1, # of connection points: 2
#     Edge 31, Type (0, 1), BuildingBlock: KIFKEQ_clean_linker_1, # of connection points: 2
#     Edge 32, Type (0, 1), BuildingBlock: KIFKEQ_clean_linker_1, # of connection points: 2
#     Edge 33, Type (0, 1), BuildingBlock: KIFKEQ_clean_linker_1, # of connection points: 2
#     Edge 34, Type (0, 1), BuildingBlock: KIFKEQ_clean_linker_1, # of connection points: 2
#     Edge 35, Type (0, 1), BuildingBlock: KIFKEQ_clean_linker_1, # of connection points: 2
# Relax obj value: 0.279
# Max RMSD: 0.193
# Mean RMSD: 0.162
data_MOF--net-zzz--node1-BETGAK_clean_sbu_0--node2-BETDAH_clean_linker_0--edge1-KIFKEQ_clean_linker_1
_symmetry_space_group_name_H-M    P1
_symmetry_Int_Tables_number       1
_symmetry_cell_setting            triclinic
loop_
_symmetry_equiv_pos_as_xyz
'x, y, z'
_cell_length_a     52.986094
_cell_length_b     52.884273
_cell_length_c     13.678647
_cell_angle_alpha  89.910335
_cell_angle_beta   89.893445
_cell_angle_gamma 90.013917
loop_
_atom_site_label
_atom_site_type_symbol
_atom_site_fract_x
_atom_site_fract_y
_atom_site_fract_z
_atom_type_partial_charge
H0 H 0.81271 0.47915 0.3707 0.0
H1 H 0.74193 0.49783 0.2391 0.0
H2 H 0.771 0.54346 0.47515 0.0
C3 C 0.79575 0.49067 0.37031 0.0
C4 C 0.79413 0.51149 0.43313 0.0
C5 C 0.77712 0.48588 0.30024 0.0
C6 C 0.75583 0.50144 0.29507 0.0
C7 C 0.75304 0.52195 0.35969 0.0
C8 C 0.77258 0.52721 0.42742 0.0
N9 N 0.73128 0.53789 0.35612 0.0
C10 C 0.71087 0.53451 0.29239 0.0
H11 H 0.0662 0.81046 0.36502 0.0
H12 H 0.05014 0.73528 0.26726 0.0
H13 H 1.00719 0.76791 0.50419 0.0
C14 C 0.05612 0.79277 0.37434 0.0
C15 C 0.03685 0.79155 0.44436 0.0
C16 C 0.06084 0.77269 0.30981 0.0
C17 C 0.04667 0.75045 0.31831 0.0
C18 C 0.02745 0.74829 0.38903 0.0
C19 C 0.02237 0.76914 0.45124 0.0
N20 N 1.01258 0.72579 0.39644 0.0
C21 C 1.01512 0.70481 0.33454 0.0
H22 H 0.73014 0.05652 0.36573 0.0
H23 H 0.80165 0.04444 0.22574 0.0
H24 H 0.77404 0.99117 0.44089 0.0
C25 C 0.74749 0.0457 0.35921 0.0
C26 C 0.74994 0.02329 0.41239 0.0
C27 C 0.76587 0.05332 0.29162 0.0
C28 C 0.78774 0.03869 0.27935 0.0
C29 C 0.7912 1.01649 0.33521 0.0
C30 C 0.7719 1.00862 0.40013 0.0
N31 N 0.81343 1.00142 0.32654 0.0
C32 C 0.8341 1.007 0.26649 0.0
H33 H 0.48376 0.73526 0.34632 0.0
H34 H 0.49819 0.8108 0.24804 0.0
H35 H 0.54552 0.77704 0.47019 0.0
C36 C 0.49447 0.75268 0.35307 0.0
C37 C 0.51529 0.75339 0.4158 0.0
C38 C 0.48832 0.77323 0.29302 0.0
C39 C 0.50267 0.79538 0.29725 0.0
C40 C 0.52306 0.79724 0.36289 0.0
C41 C 0.52927 0.7761 0.42235 0.0
N42 N 0.53815 0.8196 0.36738 0.0
C43 C 0.53488 0.84078 0.30694 0.0
H44 H 0.23058 0.57314 0.14798 0.0
H45 H 0.30372 0.55847 0.27133 0.0
H46 H 0.26963 0.50497 0.07339 0.0
C47 C 0.24763 0.56185 0.15129 0.0
C48 C 0.24802 0.53891 0.10056 0.0
C49 C 0.26736 0.56898 0.21428 0.0
C50 C 0.28859 0.55319 0.22229 0.0
C51 C 0.2897 0.53013 0.17099 0.0
C52 C 0.26919 0.52298 0.11093 0.0
N53 N 0.31064 0.51336 0.18131 0.0
C54 C 0.33049 0.51656 0.24759 0.0
H55 H 0.97657 0.23207 0.12704 0.0
H56 H 0.99379 0.30228 0.2684 0.0
H57 H 0.04253 0.27366 0.0403 0.0
C58 C 0.98804 0.24905 0.13116 0.0
C59 C 1.00977 0.25073 0.07341 0.0
C60 C 0.98237 0.26734 0.20194 0.0
C61 C 0.998 0.28856 0.21199 0.0
C62 C 1.01943 0.29142 0.15181 0.0
C63 C 0.02553 0.2721 0.084 0.0
N64 N 0.03557 0.31295 0.16021 0.0
C65 C 0.03198 0.33288 0.22614 0.0
H66 H 0.31928 0.98861 0.11277 0.0
H67 H 0.24964 1.00268 0.26403 0.0
H68 H 0.27767 0.05638 0.05138 0.0
C69 C 0.30246 1.00006 0.12264 0.0
C70 C 0.30056 0.023 0.07237 0.0
C71 C 0.28439 0.99273 0.19204 0.0
C72 C 0.26331 1.0082 0.20902 0.0
C73 C 0.26038 0.03098 0.15635 0.0
C74 C 0.2794 0.03851 0.08963 0.0
N75 N 0.23901 0.04699 0.17025 0.0
C76 C 0.21869 0.04189 0.23264 0.0
H77 H 0.5551 0.31702 0.22341 0.0
H78 H 0.54201 0.23815 0.26849 0.0
H79 H 0.52042 0.27314 0.99531 0.0
C80 C 0.54916 0.29895 0.19395 0.0
C81 C 0.53847 0.29803 0.10015 0.0
C82 C 0.55054 0.27747 0.25407 0.0
C83 C 0.54125 0.25441 0.22036 0.0
C84 C 0.53048 0.25251 0.12678 0.0
C85 C 0.52895 0.27447 0.06701 0.0
N86 N 0.52065 0.22891 0.09301 0.0
C87 C 0.521 0.20661 0.14872 0.0
La88 La 0.03958 1.01696 0.83305 0.0
La89 La 1.01207 0.0304 0.64387 0.0
C90 C 0.05511 0.99523 0.98486 0.0
C91 C 0.05828 0.96811 1.00452 0.0
C92 C 0.08094 0.95924 0.04457 0.0
C93 C 0.08613 0.93332 0.04656 0.0
C94 C 0.06886 0.91585 1.00713 0.0
C95 C 0.04582 0.92491 0.97008 0.0
C96 C 0.04051 0.95069 0.96954 0.0
C97 C 0.06832 0.03333 0.68791 0.0
C98 C 0.0244 0.97303 0.67881 0.0
C99 C 1.00235 0.05 0.4817 0.0
C100 C 0.98562 0.07151 0.46173 0.0
C101 C 0.96917 0.08012 0.53512 0.0
C102 C 0.95539 0.10232 0.52239 0.0
C103 C 0.95805 0.1166 0.43644 0.0
C104 C 0.97396 0.10746 0.36157 0.0
C105 C 0.98763 0.08506 0.37421 0.0
C106 C 0.97818 0.02439 0.78683 0.0
C107 C 0.02392 0.07315 0.80614 0.0
O108 O 0.07007 1.00402 0.9168 0.0
O109 O 0.03191 1.00339 0.97445 0.0
O110 O 0.0715 0.03901 0.77925 0.0
O111 O 0.04958 1.01865 0.68052 0.0
O112 O 0.03235 0.97953 0.76737 0.0
O113 O 1.01722 0.99016 0.61375 0.0
O114 O 0.99113 0.02948 0.51397 0.0
O115 O 0.02249 0.05571 0.53282 0.0
O116 O 0.97284 0.02951 0.69697 0.0
O117 O 1.00182 1.02236 0.791 0.0
O118 O 1.01916 0.06747 0.71331 0.0
O119 O 0.02953 0.05551 0.87133 0.0
H120 H 0.09496 0.97241 0.07148 0.0
H121 H 0.10373 0.92708 0.07854 0.0
H122 H 0.03212 0.91226 0.93777 0.0
H123 H 0.02293 0.957 0.93748 0.0
H124 H 0.96761 0.0702 0.60394 0.0
H125 H 0.9432 0.10866 0.58108 0.0
H126 H 0.97687 0.11822 0.29509 0.0
H127 H 1.00048 0.07888 0.31735 0.0
La128 La 0.53374 0.04071 0.80692 0.0
La129 La 0.51505 1.0079 0.6569 0.0
C130 C 0.54755 0.06645 0.95246 0.0
C131 C 0.5718 0.07891 0.97192 0.0
C132 C 0.5745 0.09588 0.04973 0.0
C133 C 0.59809 0.10669 0.06958 0.0
C134 C 0.61938 0.10048 0.01228 0.0
C135 C 0.61614 0.08417 0.9321 0.0
C136 C 0.5926 0.0737 0.91184 0.0
C137 C 0.53414 0.06199 0.63055 0.0
C138 C 0.57424 1.01412 0.68182 0.0
C139 C 0.50151 0.98207 0.51127 0.0
C140 C 0.47762 0.96879 0.49313 0.0
C141 C 0.4752 0.95175 0.41543 0.0
C142 C 0.45194 0.94005 0.3972 0.0
C143 C 0.43072 0.94542 0.45612 0.0
C144 C 0.43372 0.96184 0.53613 0.0
C145 C 0.45693 0.97321 0.5547 0.0
C146 C 0.51495 0.98654 0.83327 0.0
C147 C 0.47452 0.03407 0.78379 0.0
O148 O 0.53483 0.07575 0.87915 0.0
O149 O 0.54825 0.04173 0.9497 0.0
O150 O 0.55176 0.06406 0.69506 0.0
O151 O 0.51676 0.04832 0.66575 0.0
O152 O 0.56942 0.02302 0.76974 0.0
O153 O 0.55557 1.01008 0.61957 0.0
O154 O 0.51487 0.97304 0.58335 0.0
O155 O 0.49996 1.00674 0.51503 0.0
O156 O 0.49729 0.98436 0.76894 0.0
O157 O 0.53218 1.00028 0.79754 0.0
O158 O 0.47913 0.02495 0.69598 0.0
O159 O 0.49332 0.03858 0.84488 0.0
H160 H 0.55851 0.10044 0.09595 0.0
H161 H 0.59974 0.11948 0.13098 0.0
H162 H 0.63197 0.07846 0.88716 0.0
H163 H 0.59084 0.06099 0.85043 0.0
H164 H 0.49113 0.94779 0.36808 0.0
H165 H 0.45047 0.92724 0.3358 0.0
H166 H 0.41789 0.96693 0.58221 0.0
H167 H 0.4585 0.98599 0.616 0.0
La168 La 0.50824 0.53531 0.8677 0.0
La169 La 0.53104 0.51823 0.67173 0.0
C170 C 0.49663 0.55863 0.02072 0.0
C171 C 0.48167 0.58177 0.03069 0.0
C172 C 0.46775 0.59085 0.95067 0.0
C173 C 0.45502 0.6139 0.95668 0.0
C174 C 0.45606 0.62828 0.04282 0.0
C175 C 0.46957 0.61871 0.12361 0.0
C176 C 0.48226 0.59563 0.11749 0.0
C177 C 0.4755 0.52331 0.72904 0.0
C178 C 0.52558 0.57674 0.70333 0.0
C179 C 0.53124 0.49493 0.51368 0.0
C180 C 0.53335 0.46714 0.50513 0.0
C181 C 0.55714 0.45552 0.50003 0.0
C182 C 0.55963 0.42962 0.51798 0.0
C183 C 0.53841 0.41483 0.54222 0.0
C184 C 0.51448 0.42628 0.54146 0.0
C185 C 0.51195 0.45199 0.52193 0.0
C186 C 0.56706 0.52096 0.80802 0.0
C187 C 0.52045 0.4781 0.84246 0.0
O188 O 0.48416 0.539 0.98851 0.0
O189 O 0.51834 0.56149 0.97605 0.0
O190 O 0.47203 0.51923 0.82134 0.0
O191 O 0.49617 0.53479 0.7184 0.0
O192 O 0.51554 0.57169 0.79085 0.0
O193 O 0.53272 0.55862 0.6421 0.0
O194 O 0.55123 0.50688 0.54655 0.0
O195 O 0.51049 0.50283 0.55595 0.0
O196 O 0.57107 0.51528 0.71704 0.0
O197 O 0.54376 0.52495 0.81555 0.0
O198 O 0.52061 0.48276 0.74712 0.0
O199 O 0.51987 0.49683 0.9069 0.0
H200 H 0.46718 0.58033 0.88276 0.0
H201 H 0.44474 0.62066 0.89346 0.0
H202 H 0.47126 0.62954 0.19039 0.0
H203 H 0.49308 0.58895 0.17953 0.0
H204 H 0.57399 0.46661 0.48658 0.0
H205 H 0.57827 0.42131 0.51375 0.0
H206 H 0.49765 0.41571 0.56005 0.0
H207 H 0.49326 0.46023 0.52624 0.0
La208 La 1.01333 0.50538 0.8655 0.0
La209 La 0.02853 0.53337 0.67864 0.0
C210 C 0.99156 0.4893 0.01639 0.0
C211 C 0.96853 0.47416 0.02564 0.0
C212 C 0.95875 0.46148 0.94385 0.0
C213 C 0.93566 0.44884 0.94999 0.0
C214 C 0.92193 0.44879 0.03796 0.0
C215 C 0.93227 0.46097 0.1204 0.0
C216 C 0.95539 0.47352 0.1142 0.0
C217 C 0.02669 0.47629 0.71631 0.0
C218 C 0.97043 0.52351 0.71158 0.0
C219 C 0.04908 0.54104 0.51653 0.0
C220 C 0.07487 0.55048 0.4976 0.0
C221 C 0.07895 0.57289 0.44465 0.0
C222 C 0.10331 0.58318 0.43712 0.0
C223 C 0.12388 0.57135 0.48364 0.0
C224 C 0.11951 0.54895 0.53641 0.0
C225 C 0.09553 0.53846 0.54177 0.0
C226 C 0.02553 0.56631 0.82646 0.0
C227 C 0.06974 0.52014 0.84261 0.0
O228 O 1.0106 0.47778 0.97502 0.0
O229 O 0.98828 0.51215 0.98171 0.0
O230 O 0.03131 0.47142 0.80717 0.0
O231 O 1.01398 0.49646 0.71202 0.0
O232 O 0.97635 0.51229 0.79566 0.0
O233 O 0.98792 0.53267 0.65161 0.0
O234 O 0.03352 0.55727 0.55685 0.0
O235 O 0.04768 0.51863 0.55762 0.0
O236 O 0.03109 0.57219 0.7371 0.0
O237 O 0.02178 0.54282 0.82732 0.0
O238 O 0.06475 0.52333 0.74821 0.0
O239 O 0.05139 0.51671 0.90719 0.0
H240 H 0.9687 0.46188 0.87457 0.0
H241 H 0.92833 0.43959 0.88543 0.0
H242 H 0.92198 0.46186 0.18877 0.0
H243 H 0.96262 0.48338 0.17766 0.0
H244 H 0.06329 0.58259 0.4103 0.0
H245 H 0.10598 0.60022 0.39443 0.0
H246 H 0.13459 0.5395 0.57528 0.0
H247 H 0.09319 0.52116 0.58324 0.0
H248 H 0.16979 0.04101 0.17695 0.0
H249 H 0.21811 0.03678 0.42933 0.0
H250 H 0.13246 0.03935 0.28307 0.0
H251 H 0.181 0.03465 0.53607 0.0
H252 H 0.11185 0.06012 0.70545 0.0
H253 H 0.14765 0.06153 0.59368 0.0
H254 H 0.10772 1.01298 0.39277 0.0
H255 H 0.07155 1.01198 0.50484 0.0
C256 C 0.17234 0.03942 0.2553 0.0
C257 C 0.1967 0.03898 0.29531 0.0
C258 C 0.15099 0.03839 0.31618 0.0
C259 C 0.15357 0.03704 0.41858 0.0
C260 C 0.17816 0.03614 0.45789 0.0
C261 C 0.19947 0.03713 0.39691 0.0
C262 C 0.1106 0.04989 0.63706 0.0
C263 C 0.08887 0.03586 0.61427 0.0
C264 C 0.13128 0.0505 0.5732 0.0
C265 C 0.13088 0.03708 0.48442 0.0
C266 C 0.10876 0.02364 0.46016 0.0
C267 C 0.088 0.02303 0.52439 0.0
H268 H 0.55759 0.17088 0.15232 0.0
H269 H 0.48639 0.19137 0.28244 0.0
H270 H 0.55999 0.13369 0.25902 0.0
H271 H 0.48875 0.1544 0.39062 0.0
H272 H 0.49157 0.07463 0.52466 0.0
H273 H 0.48759 0.10809 0.4008 0.0
H274 H 0.56705 0.1246 0.42958 0.0
H275 H 0.57093 0.09129 0.55168 0.0
C276 C 0.54241 0.16731 0.20371 0.0
C277 C 0.52183 0.18393 0.20938 0.0
C278 C 0.5438 0.14607 0.2653 0.0
C279 C 0.5246 0.14093 0.3342 0.0
C280 C 0.50374 0.15746 0.338 0.0
C281 C 0.50243 0.17874 0.27648 0.0
C282 C 0.50819 0.08523 0.50341 0.0
C283 C 0.53155 0.08032 0.54824 0.0
C284 C 0.50591 0.10457 0.43298 0.0
C285 C 0.52698 0.11925 0.40492 0.0
C286 C 0.55043 0.11365 0.44798 0.0
C287 C 0.55265 0.09456 0.51862 0.0
H288 H 0.36208 0.55611 0.28047 0.0
H289 H 0.34638 0.47938 0.36733 0.0
H290 H 0.3978 0.55747 0.39446 0.0
H291 H 0.3822 0.48031 0.47987 0.0
H292 H 0.43008 0.4998 0.7478 0.0
H293 H 0.39533 0.49847 0.63139 0.0
H294 H 0.43992 0.54122 0.4244 0.0
H295 H 0.47457 0.54298 0.54265 0.0
C296 C 0.36636 0.53954 0.32406 0.0
C297 C 0.3515 0.51769 0.31581 0.0
C298 C 0.38693 0.5402 0.38885 0.0
C299 C 0.39303 0.519 0.44697 0.0
C300 C 0.37798 0.49714 0.4378 0.0
C301 C 0.35749 0.49652 0.37302 0.0
C302 C 0.43253 0.50881 0.67724 0.0
C303 C 0.45515 0.5214 0.65446 0.0
C304 C 0.4126 0.50795 0.61003 0.0
C305 C 0.41466 0.5197 0.51787 0.0
C306 C 0.43745 0.53218 0.49485 0.0
C307 C 0.45745 0.53299 0.56226 0.0
H308 H 0.02508 0.33056 0.42186 0.0
H309 H 0.03438 0.38282 0.18264 0.0
H310 H 0.02351 0.36594 0.537 0.0
H311 H 0.03328 0.41842 0.29738 0.0
H312 H 1.00682 0.47717 0.52979 0.0
H313 H 1.00714 0.44284 0.40913 0.0
H314 H 0.05097 0.39688 0.60735 0.0
H315 H 0.05025 0.43081 0.72723 0.0
C316 C 0.02674 0.3497 0.39412 0.0
C317 C 0.02985 0.35403 0.29372 0.0
C318 C 0.02604 0.37002 0.46 0.0
C319 C 0.02848 0.39522 0.42706 0.0
C320 C 0.03112 0.39942 0.32574 0.0
C321 C 0.03186 0.37903 0.25992 0.0
C322 C 1.01666 0.45977 0.54698 0.0
C323 C 0.02841 0.45671 0.63834 0.0
C324 C 1.0169 0.44007 0.4778 0.0
C325 C 0.02883 0.4168 0.49851 0.0
C326 C 0.04108 0.41417 0.58918 0.0
C327 C 0.04087 0.43378 0.65786 0.0
H328 H 0.84315 0.04577 0.14151 0.0
H329 H 0.87511 0.97681 0.25489 0.0
H330 H 0.87974 0.05113 0.03408 0.0
H331 H 0.91172 0.9818 0.14629 0.0
H332 H 0.98356 1.01032 0.9822 0.0
H333 H 0.94985 1.00725 0.10581 0.0
H334 H 0.89534 0.03049 0.88922 0.0
H335 H 0.9286 0.03373 0.76822 0.0
C336 C 0.85808 0.0318 0.14347 0.0
C337 C 0.85632 1.01082 0.20573 0.0
C338 C 0.87904 0.03477 0.08173 0.0
C339 C 0.89871 1.01678 0.08072 0.0
C340 C 0.89713 0.99613 0.14552 0.0
C341 C 0.8761 0.99316 0.20719 0.0
C342 C 0.96441 1.01482 0.9616 0.0
C343 C 0.95884 1.02228 0.86539 0.0
C344 C 0.94504 1.01299 0.03215 0.0
C345 C 0.9198 1.01884 0.00791 0.0
C346 C 0.9145 0.02631 0.91154 0.0
C347 C 0.93365 0.02797 0.84166 0.0
H348 H 0.49575 0.87373 0.3013 0.0
H349 H 0.56832 0.85796 0.17275 0.0
H350 H 0.49137 0.91106 0.19621 0.0
H351 H 0.56396 0.89496 0.06592 0.0
H352 H 0.55777 0.97498 0.93899 0.0
H353 H 0.56294 0.94096 0.05967 0.0
H354 H 0.48426 0.92134 0.02719 0.0
H355 H 0.47918 0.95531 0.90846 0.0
C356 C 0.51073 0.87829 0.2502 0.0
C357 C 0.53231 0.86299 0.24461 0.0
C358 C 0.50823 0.89962 0.18961 0.0
C359 C 0.52729 0.90616 0.12189 0.0
C360 C 0.54903 0.89083 0.11771 0.0
C361 C 0.55148 0.86949 0.1783 0.0
C362 C 0.54156 0.96357 0.95875 0.0
C363 C 0.51809 0.96782 0.91389 0.0
C364 C 0.54453 0.94391 0.02733 0.0
C365 C 0.52405 0.92817 0.05331 0.0
C366 C 0.50044 0.93309 0.01032 0.0
C367 C 0.49753 0.95256 0.94163 0.0
H368 H 0.70357 0.49903 0.15211 0.0
H369 H 0.66936 0.56433 0.28583 0.0
H370 H 0.66785 0.4954 0.04054 0.0
H371 H 0.63355 0.5611 0.17289 0.0
H372 H 0.56242 0.53307 1.00418 0.0
H373 H 0.59649 0.53597 0.1256 0.0
H374 H 0.65089 0.51711 0.90175 0.0
H375 H 0.61713 0.51396 0.78249 0.0
C376 C 0.68838 0.51264 0.15753 0.0
C377 C 0.68927 0.53202 0.22725 0.0
C378 C 0.66789 0.51067 0.09317 0.0
C379 C 0.64773 0.52806 0.09679 0.0
C380 C 0.64852 0.54722 0.16822 0.0
C381 C 0.6691 0.5492 0.23255 0.0
C382 C 0.58168 0.52963 0.98135 0.0
C383 C 0.58706 0.52331 0.88373 0.0
C384 C 0.60125 0.53135 0.05073 0.0
C385 C 0.62657 0.52661 0.02401 0.0
C386 C 0.63171 0.52043 0.92598 0.0
C387 C 0.61229 0.5188 0.85715 0.0
H388 H 0.05458 0.69303 0.21667 0.0
H389 H 0.98077 0.66749 0.30562 0.0
H390 H 0.05755 0.65801 0.10098 0.0
H391 H 0.98366 0.63214 0.18952 0.0
H392 H 1.00931 0.55938 0.01811 0.0
H393 H 1.00713 0.59165 0.14781 0.0
H394 H 0.03673 0.64726 0.94664 0.0
H395 H 0.03879 0.61546 0.81906 0.0
C396 C 0.03897 0.6799 0.21147 0.0
C397 C 1.01733 0.68313 0.26926 0.0
C398 C 0.04065 0.65978 0.14506 0.0
C399 C 1.02076 0.64225 0.13512 0.0
C400 C 0.99939 0.64511 0.19552 0.0
C401 C 0.99766 0.66543 0.26157 0.0
C402 C 1.01534 0.5785 1.00212 0.0
C403 C 0.0242 0.58483 0.90825 0.0
C404 C 1.01402 0.59702 0.07615 0.0
C405 C 0.02191 0.62211 0.05805 0.0
C406 C 0.03086 0.62816 0.96409 0.0
C407 C 0.0319 0.60987 0.89052 0.0
H408 H 0.99083 0.26013 0.39419 0.0
H409 H 0.9322 0.25723 0.17665 0.0
H410 H 0.97066 0.22636 0.48376 0.0
H411 H 0.91098 0.22392 0.26877 0.0
H412 H 0.93678 0.13877 0.27563 0.0
H413 H 0.92871 0.18334 0.25209 0.0
H414 H 0.94365 0.19701 0.55832 0.0
H415 H 0.95336 0.15245 0.58013 0.0
C416 C 0.97259 0.2535 0.3693 0.0
C417 C 0.96353 0.26048 0.27695 0.0
C418 C 0.96091 0.2339 0.42066 0.0
C419 C 0.9399 0.22136 0.38034 0.0
C420 C 0.9278 0.23242 0.29937 0.0
C421 C 0.93972 0.25177 0.2472 0.0
C422 C 0.93797 0.15121 0.33829 0.0
C423 C 0.94657 0.14216 0.42871 0.0
C424 C 0.93283 0.17686 0.32545 0.0
C425 C 0.93604 0.19407 0.40305 0.0
C426 C 0.94152 0.18443 0.49648 0.0
C427 C 0.94694 0.15877 0.50907 0.0
H428 H 0.29377 0.94402 0.13853 0.0
H429 H 0.29162 0.99373 0.38781 0.0
H430 H 0.32517 0.91776 0.22032 0.0
H431 H 0.3231 0.96785 0.46926 0.0
H432 H 0.39115 0.93175 0.57674 0.0
H433 H 0.34662 0.93017 0.53132 0.0
H434 H 0.36751 0.93749 0.22726 0.0
H435 H 0.41144 0.94001 0.27201 0.0
C436 C 0.29887 0.94842 0.21328 0.0
C437 C 0.29086 0.97118 0.25613 0.0
C438 C 0.31701 0.93352 0.25979 0.0
C439 C 0.3273 0.9413 0.34947 0.0
C440 C 0.31574 0.96142 0.39978 0.0
C441 C 0.29755 0.97629 0.35324 0.0
C442 C 0.38625 0.93255 0.49999 0.0
C443 C 0.40493 0.9368 0.42831 0.0
C444 C 0.36073 0.93139 0.47411 0.0
C445 C 0.35348 0.93398 0.37594 0.0
C446 C 0.37237 0.93515 0.30363 0.0
C447 C 0.39777 0.93665 0.32947 0.0
H448 H 0.59361 0.29884 0.32461 0.0
H449 H 0.52364 0.26444 0.41617 0.0
H450 H 0.59394 0.32437 0.47132 0.0
H451 H 0.52414 0.2897 0.56472 0.0
H452 H 0.50517 0.37693 0.49809 0.0
H453 H 0.51269 0.33233 0.50132 0.0
H454 H 0.5857 0.34464 0.63329 0.0
H455 H 0.57745 0.3901 0.63561 0.0
C456 C 0.57915 0.29559 0.37936 0.0
C457 C 0.55793 0.28082 0.35728 0.0
C458 C 0.57939 0.31009 0.46432 0.0
C459 C 0.55817 0.31012 0.52626 0.0
C460 C 0.54027 0.29066 0.51602 0.0
C461 C 0.53995 0.2762 0.43068 0.0
C462 C 0.52235 0.37038 0.53241 0.0
C463 C 0.54107 0.38736 0.56335 0.0
C464 C 0.52665 0.34447 0.53499 0.0
C465 C 0.55005 0.33486 0.56616 0.0
C466 C 0.56761 0.35154 0.60786 0.0
C467 C 0.56307 0.3776 0.60711 0.0
H468 H 0.27754 0.56892 0.41076 0.0
H469 H 0.24513 0.61555 0.18433 0.0
H470 H 0.24619 0.58417 0.52494 0.0
H471 H 0.21245 0.62914 0.29702 0.0
H472 H 0.1402 0.62117 0.47311 0.0
H473 H 0.18368 0.63611 0.44811 0.0
H474 H 0.20969 0.55871 0.45272 0.0
H475 H 0.16728 0.54398 0.47091 0.0
C476 C 0.26477 0.58361 0.38633 0.0
C477 C 0.26233 0.58941 0.28647 0.0
C478 C 0.24665 0.59237 0.45229 0.0
C479 C 0.22576 0.60603 0.41718 0.0
C480 C 0.22772 0.61764 0.32512 0.0
C481 C 0.24641 0.6096 0.26 0.0
C482 C 0.1553 0.60743 0.46913 0.0
C483 C 0.15009 0.58131 0.47477 0.0
C484 C 0.18018 0.61604 0.4566 0.0
C485 C 0.20024 0.5987 0.4517 0.0
C486 C 0.19494 0.57276 0.46041 0.0
C487 C 0.17035 0.56422 0.47052 0.0
H488 H 0.10761 0.79479 0.30171 0.0
H489 H 0.04954 0.76263 0.1193 0.0
H490 H 0.11858 0.82415 0.17207 0.0
H491 H 0.06129 0.79123 0.98807 0.0
H492 H 0.03535 0.87694 0.0295 0.0
H493 H 0.04413 0.83274 0.04788 0.0
H494 H 0.12386 0.84689 0.01019 0.0
H495 H 0.11489 0.89183 0.98539 0.0
C496 C 0.09831 0.79287 0.23161 0.0
C497 C 0.07669 0.77766 0.2225 0.0
C498 C 0.10474 0.80961 0.15667 0.0
C499 C 0.08966 0.81092 0.07245 0.0
C500 C 0.07255 0.79117 0.05412 0.0
C501 C 0.06585 0.77468 0.12958 0.0
C502 C 0.0547 0.8708 0.02055 0.0
C503 C 0.07439 0.88825 1.00719 0.0
C504 C 0.05977 0.84517 0.03064 0.0
C505 C 0.08474 0.8362 0.02984 0.0
C506 C 0.10443 0.85328 0.01075 0.0
C507 C 0.09928 0.87906 0.99849 0.0
H508 H 0.75549 0.1021 0.34006 0.0
H509 H 0.75905 0.05081 0.09589 0.0
H510 H 0.72399 0.1274 0.25435 0.0
H511 H 0.72744 0.07573 0.01051 0.0
H512 H 0.66001 0.11245 0.89423 0.0
H513 H 0.70432 0.11326 0.94316 0.0
H514 H 0.6817 0.10738 0.2458 0.0
H515 H 0.63796 0.10556 0.19767 0.0
C516 C 0.75066 0.09715 0.26554 0.0
C517 C 0.75919 0.07428 0.22514 0.0
C518 C 0.73245 0.11148 0.21684 0.0
C519 C 0.72258 0.10303 0.12736 0.0
C520 C 0.7345 0.08269 0.07968 0.0
C521 C 0.75277 0.06839 0.12842 0.0
C522 C 0.66449 0.11174 0.97139 0.0
C523 C 0.64533 0.10822 0.04177 0.0
C524 C 0.68989 0.11247 0.99925 0.0
C525 C 0.69657 0.11018 0.09814 0.0
C526 C 0.67728 0.10951 0.16894 0.0
C527 C 0.652 0.10843 0.14114 0.0
H528 H 0.4374 0.76707 0.30961 0.0
H529 H 0.49859 0.76705 0.10205 0.0
H530 H 0.41409 0.73746 0.20744 0.0
H531 H 0.47659 0.73641 1.00342 0.0
H532 H 0.43105 0.65075 0.1942 0.0
H533 H 0.42567 0.69553 0.21886 0.0
H534 H 0.44962 0.70966 0.921 0.0
H535 H 0.45678 0.6646 0.89921 0.0
C536 C 0.44521 0.76177 0.23931 0.0
C537 C 0.46996 0.76866 0.21443 0.0
C538 C 0.43209 0.74447 0.18136 0.0
C539 C 0.44411 0.73318 0.1005 0.0
C540 C 0.46675 0.74408 0.06607 0.0
C541 C 0.47952 0.76185 0.12271 0.0
C542 C 0.43478 0.66338 0.13344 0.0
C543 C 0.44539 0.65422 0.04644 0.0
C544 C 0.43123 0.68925 0.14673 0.0
C545 C 0.43803 0.70659 0.07281 0.0
C546 C 0.445 0.697 0.98068 0.0
C547 C 0.44891 0.67106 0.96789 0.0
H548 H 0.78399 0.43487 0.31657 0.0
H549 H 0.78531 0.49651 0.11039 0.0
H550 H 0.81258 0.41082 0.21227 0.0
H551 H 0.81506 0.47381 0.00993 0.0
H552 H 0.89955 0.42266 0.18726 0.0
H553 H 0.85487 0.41921 0.21666 0.0
H554 H 0.83995 0.4464 0.92367 0.0
H555 H 0.88498 0.45189 0.89782 0.0
C556 C 0.78954 0.44274 0.24657 0.0
C557 C 0.78311 0.46768 0.22218 0.0
C558 C 0.80622 0.42917 0.18732 0.0
C559 C 0.8175 0.44091 0.10562 0.0
C560 C 0.80735 0.46407 0.07287 0.0
C561 C 0.79016 0.4773 0.13071 0.0
C562 C 0.88674 0.42756 0.12856 0.0
C563 C 0.89579 0.4387 0.04224 0.0
C564 C 0.86088 0.42513 0.14455 0.0
C565 C 0.84344 0.43353 0.07385 0.0
C566 C 0.85272 0.44072 0.98137 0.0
C567 C 0.87866 0.44363 0.96609 0.0
H568 H 0.0522 0.22106 0.0801 0.0
H569 H 0.98089 0.22884 0.93217 0.0
H570 H 0.05751 0.17888 0.00846 0.0
H571 H 0.98591 0.18682 0.86131 0.0
H572 H 1.00887 0.11482 0.70028 0.0
H573 H 1.00864 0.15909 0.75095 0.0
H574 H 0.0379 0.13751 0.03336 0.0
H575 H 0.0384 0.09334 0.98251 0.0
C576 C 0.03806 0.21409 0.02977 0.0
C577 C 1.01625 0.22843 0.01108 0.0
C578 C 0.04086 0.18972 0.98992 0.0
C579 C 0.022 0.17915 0.92975 0.0
C580 C 1.00094 0.19423 0.90652 0.0
C581 C 0.99807 0.21842 0.94698 0.0
C582 C 1.01535 0.11947 0.77314 0.0
C583 C 0.02361 0.1003 0.83718 0.0
C584 C 1.01514 0.14495 0.80238 0.0
C585 C 0.02337 0.15209 0.89633 0.0
C586 C 0.03182 0.13292 0.95996 0.0
C587 C 0.03187 0.10745 0.931 0.0
H588 H 0.33068 0.06497 0.08751 0.0
H589 H 0.32026 0.99699 0.91901 0.0
H590 H 0.37196 0.07146 0.00962 0.0
H591 H 0.36134 1.00308 0.84232 0.0
H592 H 0.43135 0.0255 0.67853 0.0
H593 H 0.38776 0.02741 0.73492 0.0
H594 H 0.41322 0.05113 0.02015 0.0
H595 H 0.45689 0.04964 0.96316 0.0
C596 C 0.33687 0.05188 0.03154 0.0
C597 C 0.32215 0.03059 0.00871 0.0
C598 C 0.3607 0.05534 0.98801 0.0
C599 C 0.37023 0.03768 0.92013 0.0
C600 C 0.35469 1.01725 0.8933 0.0
C601 C 0.33106 1.01373 0.93718 0.0
C602 C 0.42771 0.03139 0.7531 0.0
C603 C 0.44779 0.03728 0.81638 0.0
C604 C 0.40262 0.03237 0.78559 0.0
C605 C 0.3968 0.0393 0.88242 0.0
C606 C 0.41684 0.04601 0.94478 0.0
C607 C 0.44199 0.04499 0.91226 0.0
H608 H 0.49872 0.3163 0.98785 0.0
H609 H 0.57385 0.33566 0.08356 0.0
H610 H 0.49376 0.3592 0.92068 0.0
H611 H 0.5685 0.37833 0.02028 0.0
H612 H 0.53666 0.45974 0.01993 0.0
H613 H 0.54102 0.41556 0.07109 0.0
H614 H 0.51185 0.39095 0.79278 0.0
H615 H 0.50748 0.43519 0.74183 0.0
C616 C 0.51433 0.32944 0.99324 0.0
C617 C 0.53654 0.3224 0.04294 0.0
C618 C 0.51142 0.35414 0.95532 0.0
C619 C 0.53052 0.37249 0.96707 0.0
C620 C 0.55314 0.36499 0.01201 0.0
C621 C 0.55619 0.34038 0.04826 0.0
C622 C 0.53102 0.44495 0.96979 0.0
C623 C 0.52186 0.45115 0.87632 0.0
C624 C 0.53368 0.41956 0.99885 0.0
C625 C 0.5269 0.39956 0.93599 0.0
C626 C 0.51717 0.40576 0.84335 0.0
C627 C 0.51486 0.43116 0.8138 0.0
H628 H 0.22464 0.56563 0.95679 0.0
H629 H 0.21799 0.49693 0.12468 0.0
H630 H 0.18227 0.55948 0.8924 0.0
H631 H 0.17537 0.49036 0.05903 0.0
H632 H 0.08926 0.5074 0.02325 0.0
H633 H 0.13333 0.50898 0.07629 0.0
H634 H 0.15537 0.53518 0.78942 0.0
H635 H 0.1115 0.53434 0.7383 0.0
C636 C 0.21432 0.54877 0.9777 0.0
C637 C 0.22482 0.53165 0.04507 0.0
C638 C 0.18992 0.54522 0.94087 0.0
C639 C 0.1751 0.52447 0.9707 0.0
C640 C 0.18602 0.50674 0.03521 0.0
C641 C 0.21062 0.51024 0.07164 0.0
C642 C 0.10351 0.51348 0.97147 0.0
C643 C 0.09666 0.52065 0.87591 0.0
C644 C 0.1289 0.51415 1.00165 0.0
C645 C 0.14816 0.52215 0.93731 0.0
C646 C 0.14122 0.52913 0.84168 0.0
C647 C 0.11594 0.52842 0.81175 0.0
H648 H 0.99279 0.81902 0.45764 0.0
H649 H 0.06998 0.81808 0.55601 0.0
H650 H 0.98797 0.8622 0.52087 0.0
H651 H 0.06561 0.86104 0.61676 0.0
H652 H 0.0489 0.93413 0.77024 0.0
H653 H 0.04854 0.88931 0.73106 0.0
H654 H 1.00117 0.9046 0.48115 0.0
H655 H 1.00047 0.94948 0.52442 0.0
C656 C 1.0085 0.82776 0.49526 0.0
C657 C 0.03169 0.81497 0.50265 0.0
C658 C 1.00593 0.85273 0.53002 0.0
C659 C 0.02646 0.8655 0.57346 0.0
C660 C 0.04921 0.85204 0.58507 0.0
C661 C 0.05176 0.82726 0.5502 0.0
C662 C 0.03791 0.92792 0.70833 0.0
C663 C 0.02439 0.94555 0.65182 0.0
C664 C 0.038 0.90211 0.68465 0.0
C665 C 0.02482 0.89297 0.60253 0.0
C666 C 1.01123 0.91064 0.54583 0.0
C667 C 1.01105 0.93653 0.57003 0.0
H668 H 0.71935 0.98203 0.38959 0.0
H669 H 0.73017 0.04823 0.5678 0.0
H670 H 0.67737 0.97588 0.46218 0.0
H671 H 0.68844 0.04248 0.63954 0.0
H672 H 0.6168 1.02044 0.79247 0.0
H673 H 0.66068 1.01779 0.74067 0.0
H674 H 0.63674 0.99755 0.44951 0.0
H675 H 0.59268 0.99979 0.5019 0.0
C676 C 0.71309 0.99472 0.44681 0.0
C677 C 0.72815 1.01539 0.47412 0.0
C678 C 0.68888 0.99149 0.48724 0.0
C679 C 0.67929 1.0088 0.55628 0.0
C680 C 0.69513 0.02857 0.58758 0.0
C681 C 0.71915 0.03187 0.54675 0.0
C682 C 0.62081 1.01518 0.7175 0.0
C683 C 0.60105 1.01049 0.65125 0.0
C684 C 0.64608 1.01375 0.68768 0.0
C685 C 0.65242 1.00759 0.59063 0.0
C686 C 0.63268 1.00206 0.52512 0.0
C687 C 0.60733 1.00351 0.55499 0.0
H688 H 0.52186 0.74321 0.61309 0.0
H689 H 0.52456 0.70843 0.32857 0.0
H690 H 0.52715 0.70139 0.68973 0.0
H691 H 0.52893 0.66709 0.40324 0.0
H692 H 0.55245 0.59549 0.54803 0.0
H693 H 0.55437 0.63868 0.48764 0.0
H694 H 0.50459 0.66265 0.72019 0.0
H695 H 0.50346 0.61933 0.78293 0.0
C696 C 0.52407 0.72672 0.567 0.0
C697 C 0.52287 0.72919 0.46474 0.0
C698 C 0.52674 0.70266 0.61076 0.0
C699 C 0.52841 0.68053 0.55317 0.0
C700 C 0.52815 0.68341 0.45081 0.0
C701 C 0.52551 0.70725 0.40759 0.0
C702 C 0.54198 0.60993 0.58685 0.0
C703 C 0.52761 0.60368 0.67005 0.0
C704 C 0.54297 0.63485 0.55176 0.0
C705 C 0.52937 0.65444 0.59776 0.0
C706 C 0.51554 0.64832 0.68286 0.0
C707 C 0.51475 0.62333 0.71865 0.0
H708 H 0.8176 0.47945 0.56008 0.0
H709 H 0.82193 0.5553 0.44557 0.0
H710 H 0.85904 0.48433 0.63449 0.0
H711 H 0.86351 0.56054 0.52171 0.0
H712 H 0.94988 0.54525 0.54685 0.0
H713 H 0.90596 0.54499 0.49388 0.0
H714 H 0.88511 0.504 0.75511 0.0
H715 H 0.92907 0.50387 0.80731 0.0
C716 C 0.82716 0.49748 0.55318 0.0
C717 C 0.81636 0.51701 0.49712 0.0
C718 C 0.85101 0.50032 0.59599 0.0
C719 C 0.86497 0.52277 0.5837 0.0
C720 C 0.85358 0.54282 0.5317 0.0
C721 C 0.82954 0.54001 0.48927 0.0
C722 C 0.93596 0.53627 0.59342 0.0
C723 C 0.94327 0.52447 0.68132 0.0
C724 C 0.91061 0.53631 0.5633 0.0
C725 C 0.89173 0.52448 0.61991 0.0
C726 C 0.89901 0.51307 0.70872 0.0
C727 C 0.92434 0.51309 0.73898 0.0
loop_
_geom_bond_atom_site_label_1
_geom_bond_atom_site_label_2
_geom_bond_distance
_geom_bond_site_symmetry_2
_ccdc_geom_bond_type
H0 C3 0.929 . S
H1 C6 0.929 . S
H2 C8 0.930 . S
C3 H0 0.929 . S
C3 C4 1.398 . S
C3 C5 1.396 . S
C4 C3 1.398 . S
C4 C8 1.407 . S
C5 C3 1.396 . S
C5 C6 1.394 . S
C6 H1 0.929 . S
C6 C5 1.394 . S
C6 C7 1.382 . S
C7 C6 1.382 . S
C7 C8 1.392 . S
C7 N9 1.420 . S
C8 H2 0.930 . S
C8 C4 1.407 . S
C8 C7 1.392 . S
N9 C7 1.420 . S
N9 C10 1.244 . S
C10 N9 1.244 . S
H11 C14 0.929 . S
H12 C17 0.929 . S
H13 C19 0.930 . S
C14 H11 0.929 . S
C14 C15 1.395 1_655 S
C14 C16 1.395 1_655 S
C15 C14 1.395 1_455 S
C15 C19 1.413 . S
C16 C14 1.395 1_455 S
C16 C17 1.396 . S
C17 H12 0.929 . S
C17 C16 1.396 . S
C17 C18 1.382 . S
C18 C17 1.382 . S
C18 C19 1.392 . S
C18 N20 1.420 . S
C19 H13 0.930 . S
C19 C15 1.413 . S
C19 C18 1.392 . S
N20 C18 1.420 . S
N20 C21 1.232 1_455 S
C21 N20 1.232 1_655 S
H22 C25 0.929 . S
H23 C28 0.929 . S
H24 C30 0.930 . S
C25 H22 0.929 . S
C25 C26 1.395 1_565 S
C25 C27 1.395 1_565 S
C26 C25 1.395 1_545 S
C26 C30 1.413 . S
C27 C25 1.395 1_545 S
C27 C28 1.397 . S
C28 H23 0.929 . S
C28 C27 1.397 . S
C28 C29 1.382 . S
C29 C28 1.382 . S
C29 C30 1.392 . S
C29 N31 1.420 . S
C30 H24 0.930 . S
C30 C26 1.413 . S
C30 C29 1.392 . S
N31 C29 1.420 . S
N31 C32 1.232 1_545 S
C32 N31 1.232 1_565 S
H33 C36 0.929 . S
H34 C39 0.929 . S
H35 C41 0.930 . S
C36 H33 0.929 . S
C36 C37 1.398 . S
C36 C38 1.396 . S
C37 C36 1.398 . S
C37 C41 1.407 . S
C38 C36 1.396 . S
C38 C39 1.394 . S
C39 H34 0.929 . S
C39 C38 1.394 . S
C39 C40 1.382 . S
C40 C39 1.382 . S
C40 C41 1.392 . S
C40 N42 1.420 . S
C41 H35 0.930 . S
C41 C37 1.407 . S
C41 C40 1.392 . S
N42 C40 1.420 . S
N42 C43 1.244 . S
C43 N42 1.244 . S
H44 C47 0.929 . S
H45 C50 0.929 . S
H46 C52 0.930 . S
C47 H44 0.929 . S
C47 C48 1.398 1_554 S
C47 C49 1.396 . S
C48 C47 1.398 1_556 S
C48 C52 1.407 . S
C49 C47 1.396 . S
C49 C50 1.394 . S
C50 H45 0.929 . S
C50 C49 1.394 . S
C50 C51 1.382 . S
C51 C50 1.382 . S
C51 C52 1.392 1_554 S
C51 N53 1.420 . S
C52 H46 0.930 . S
C52 C48 1.407 . S
C52 C51 1.392 1_556 S
N53 C51 1.420 . S
N53 C54 1.244 . S
C54 N53 1.244 . S
H55 C58 0.929 . S
H56 C61 0.929 . S
H57 C63 0.930 . S
C58 H55 0.929 . S
C58 C59 1.395 1_654 S
C58 C60 1.394 1_655 S
C59 C58 1.395 1_456 S
C59 C63 1.416 . S
C60 C58 1.394 1_455 S
C60 C61 1.398 . S
C61 H56 0.929 . S
C61 C60 1.398 . S
C61 C62 1.382 . S
C62 C61 1.382 . S
C62 C63 1.392 1_554 S
C62 N64 1.420 . S
C63 H57 0.930 . S
C63 C59 1.416 . S
C63 C62 1.392 1_556 S
N64 C62 1.420 . S
N64 C65 1.237 1_455 S
C65 N64 1.237 1_655 S
H66 C69 0.929 . S
H67 C72 0.929 . S
H68 C74 0.930 . S
C69 H66 0.929 . S
C69 C70 1.395 1_564 S
C69 C71 1.394 1_565 S
C70 C69 1.395 1_546 S
C70 C74 1.416 . S
C71 C69 1.394 1_545 S
C71 C72 1.398 . S
C72 H67 0.929 . S
C72 C71 1.398 . S
C72 C73 1.382 . S
C73 C72 1.382 . S
C73 C74 1.392 1_554 S
C73 N75 1.420 . S
C74 H68 0.930 . S
C74 C70 1.416 . S
C74 C73 1.392 1_556 S
N75 C73 1.420 . S
N75 C76 1.237 1_545 S
C76 N75 1.237 1_565 S
H77 C80 0.929 . S
H78 C83 0.929 . S
H79 C85 0.930 . S
C80 H77 0.929 . S
C80 C81 1.398 1_554 S
C80 C82 1.396 . S
C81 C80 1.398 1_556 S
C81 C85 1.407 . S
C82 C80 1.396 . S
C82 C83 1.394 . S
C83 H78 0.929 . S
C83 C82 1.394 . S
C83 C84 1.382 . S
C84 C83 1.382 . S
C84 C85 1.392 1_554 S
C84 N86 1.420 . S
C85 H79 0.930 . S
C85 C81 1.407 . S
C85 C84 1.392 1_556 S
N86 C84 1.420 . S
N86 C87 1.244 . S
C87 N86 1.244 . S
La88 C90 2.928 . S
La88 O108 2.521 . S
La88 O109 2.628 . S
La88 O110 2.554 . S
La88 O111 2.757 1_565 S
La88 O112 2.470 . S
La88 O117 2.482 1_455 S
La88 O119 2.503 1_565 S
La89 C99 2.928 . S
La89 O111 2.482 1_655 S
La89 O113 2.503 1_545 S
La89 O114 2.521 . S
La89 O115 2.628 . S
La89 O116 2.554 . S
La89 O117 2.757 1_545 S
La89 O118 2.470 . S
C90 La88 2.928 . S
C90 C91 1.503 1_556 S
C90 O108 1.261 . S
C90 O109 1.243 . S
C91 C90 1.503 1_554 S
C91 C92 1.394 . S
C91 C96 1.373 . S
C92 C91 1.394 . S
C92 C93 1.380 . S
C92 H120 0.930 . S
C93 C92 1.380 . S
C93 C94 1.376 . S
C93 H121 0.930 . S
C94 C93 1.376 . S
C94 C95 1.370 . S
C95 C94 1.370 . S
C95 C96 1.396 . S
C95 H122 0.929 1_455 S
C96 C91 1.373 . S
C96 C95 1.396 . S
C96 H123 0.929 1_455 S
C97 O110 1.240 . S
C97 O111 1.289 1_565 S
C98 O112 1.258 1_655 S
C98 O113 1.256 . S
C99 La89 2.928 . S
C99 C100 1.503 . S
C99 O114 1.261 . S
C99 O115 1.243 . S
C100 C99 1.503 . S
C100 C101 1.394 . S
C100 C105 1.373 . S
C101 C100 1.394 . S
C101 C102 1.380 . S
C101 H124 0.930 . S
C102 C101 1.380 . S
C102 C103 1.376 . S
C102 H125 0.930 . S
C103 C102 1.376 . S
C103 C104 1.370 . S
C104 C103 1.370 . S
C104 C105 1.396 . S
C104 H126 0.929 1_655 S
C105 C100 1.373 . S
C105 C104 1.396 . S
C105 H127 0.929 1_655 S
C106 O116 1.240 . S
C106 O117 1.289 1_545 S
C107 O118 1.258 1_455 S
C107 O119 1.256 . S
O108 La88 2.521 . S
O108 C90 1.261 . S
O109 La88 2.628 . S
O109 C90 1.243 . S
O110 La88 2.554 . S
O110 C97 1.240 . S
O111 La88 2.757 1_545 S
O111 La89 2.482 1_455 S
O111 C97 1.289 1_545 S
O112 La88 2.470 . S
O112 C98 1.258 1_455 S
O113 La89 2.503 1_565 S
O113 C98 1.256 . S
O114 La89 2.521 . S
O114 C99 1.261 . S
O115 La89 2.628 . S
O115 C99 1.243 . S
O116 La89 2.554 . S
O116 C106 1.240 . S
O117 La88 2.482 1_655 S
O117 La89 2.757 1_565 S
O117 C106 1.289 1_565 S
O118 La89 2.470 . S
O118 C107 1.258 1_655 S
O119 La88 2.503 1_545 S
O119 C107 1.256 . S
H120 C92 0.930 . S
H121 C93 0.930 . S
H122 C95 0.929 1_655 S
H123 C96 0.929 1_655 S
H124 C101 0.930 . S
H125 C102 0.930 . S
H126 C104 0.929 1_455 S
H127 C105 0.929 1_455 S
La128 C130 2.928 . S
La128 O148 2.521 . S
La128 O149 2.628 . S
La128 O150 2.554 . S
La128 O151 2.757 . S
La128 O152 2.470 . S
La128 O157 2.482 1_545 S
La128 O159 2.503 . S
La129 C139 2.928 . S
La129 O151 2.482 1_565 S
La129 O153 2.503 . S
La129 O154 2.521 . S
La129 O155 2.628 . S
La129 O156 2.554 . S
La129 O157 2.757 . S
La129 O158 2.470 . S
C130 La128 2.928 . S
C130 C131 1.503 1_556 S
C130 O148 1.261 . S
C130 O149 1.243 . S
C131 C130 1.503 1_554 S
C131 C132 1.394 . S
C131 C136 1.373 . S
C132 C131 1.394 . S
C132 C133 1.380 . S
C132 H160 0.930 . S
C133 C132 1.380 . S
C133 C134 1.376 . S
C133 H161 0.930 . S
C134 C133 1.376 . S
C134 C135 1.370 . S
C135 C134 1.370 . S
C135 C136 1.396 . S
C135 H162 0.929 1_545 S
C136 C131 1.373 . S
C136 C135 1.396 . S
C136 H163 0.929 1_545 S
C137 O150 1.240 . S
C137 O151 1.289 . S
C138 O152 1.258 1_565 S
C138 O153 1.256 . S
C139 La129 2.928 . S
C139 C140 1.503 . S
C139 O154 1.261 . S
C139 O155 1.243 . S
C140 C139 1.503 . S
C140 C141 1.394 . S
C140 C145 1.373 . S
C141 C140 1.394 . S
C141 C142 1.380 . S
C141 H164 0.930 . S
C142 C141 1.380 . S
C142 C143 1.376 . S
C142 H165 0.930 . S
C143 C142 1.376 . S
C143 C144 1.370 . S
C144 C143 1.370 . S
C144 C145 1.396 . S
C144 H166 0.929 1_565 S
C145 C140 1.373 . S
C145 C144 1.396 . S
C145 H167 0.929 1_565 S
C146 O156 1.240 . S
C146 O157 1.289 . S
C147 O158 1.258 1_545 S
C147 O159 1.256 . S
O148 La128 2.521 . S
O148 C130 1.261 . S
O149 La128 2.628 . S
O149 C130 1.243 . S
O150 La128 2.554 . S
O150 C137 1.240 . S
O151 La128 2.757 . S
O151 La129 2.482 1_545 S
O151 C137 1.289 . S
O152 La128 2.470 . S
O152 C138 1.258 1_545 S
O153 La129 2.503 . S
O153 C138 1.256 . S
O154 La129 2.521 . S
O154 C139 1.261 . S
O155 La129 2.628 . S
O155 C139 1.243 . S
O156 La129 2.554 . S
O156 C146 1.240 . S
O157 La128 2.482 1_565 S
O157 La129 2.757 . S
O157 C146 1.289 . S
O158 La129 2.470 . S
O158 C147 1.258 1_565 S
O159 La128 2.503 . S
O159 C147 1.256 . S
H160 C132 0.930 . S
H161 C133 0.930 . S
H162 C135 0.929 1_565 S
H163 C136 0.929 1_565 S
H164 C141 0.930 . S
H165 C142 0.930 . S
H166 C144 0.929 1_545 S
H167 C145 0.929 1_545 S
La168 C170 2.928 . S
La168 O188 2.521 . S
La168 O189 2.628 . S
La168 O190 2.554 . S
La168 O191 2.757 . S
La168 O192 2.470 . S
La168 O197 2.482 . S
La168 O199 2.503 . S
La169 C179 2.928 . S
La169 O191 2.482 . S
La169 O193 2.503 . S
La169 O194 2.521 . S
La169 O195 2.628 . S
La169 O196 2.554 . S
La169 O197 2.757 . S
La169 O198 2.470 . S
C170 La168 2.928 . S
C170 C171 1.503 1_556 S
C170 O188 1.261 . S
C170 O189 1.243 . S
C171 C170 1.503 1_554 S
C171 C172 1.394 . S
C171 C176 1.373 . S
C172 C171 1.394 . S
C172 C173 1.380 . S
C172 H200 0.930 . S
C173 C172 1.380 . S
C173 C174 1.376 . S
C173 H201 0.930 . S
C174 C173 1.376 . S
C174 C175 1.370 . S
C175 C174 1.370 . S
C175 C176 1.396 . S
C175 H202 0.929 . S
C176 C171 1.373 . S
C176 C175 1.396 . S
C176 H203 0.929 . S
C177 O190 1.240 . S
C177 O191 1.289 . S
C178 O192 1.258 . S
C178 O193 1.256 . S
C179 La169 2.928 . S
C179 C180 1.503 . S
C179 O194 1.261 . S
C179 O195 1.243 . S
C180 C179 1.503 . S
C180 C181 1.394 . S
C180 C185 1.373 . S
C181 C180 1.394 . S
C181 C182 1.380 . S
C181 H204 0.930 . S
C182 C181 1.380 . S
C182 C183 1.376 . S
C182 H205 0.930 . S
C183 C182 1.376 . S
C183 C184 1.370 . S
C184 C183 1.370 . S
C184 C185 1.396 . S
C184 H206 0.929 . S
C185 C180 1.373 . S
C185 C184 1.396 . S
C185 H207 0.929 . S
C186 O196 1.240 . S
C186 O197 1.289 . S
C187 O198 1.258 . S
C187 O199 1.256 . S
O188 La168 2.521 . S
O188 C170 1.261 . S
O189 La168 2.628 . S
O189 C170 1.243 . S
O190 La168 2.554 . S
O190 C177 1.240 . S
O191 La168 2.757 . S
O191 La169 2.482 . S
O191 C177 1.289 . S
O192 La168 2.470 . S
O192 C178 1.258 . S
O193 La169 2.503 . S
O193 C178 1.256 . S
O194 La169 2.521 . S
O194 C179 1.261 . S
O195 La169 2.628 . S
O195 C179 1.243 . S
O196 La169 2.554 . S
O196 C186 1.240 . S
O197 La168 2.482 . S
O197 La169 2.757 . S
O197 C186 1.289 . S
O198 La169 2.470 . S
O198 C187 1.258 . S
O199 La168 2.503 . S
O199 C187 1.256 . S
H200 C172 0.930 . S
H201 C173 0.930 . S
H202 C175 0.929 . S
H203 C176 0.929 . S
H204 C181 0.930 . S
H205 C182 0.930 . S
H206 C184 0.929 . S
H207 C185 0.929 . S
La208 C210 2.928 . S
La208 O228 2.521 . S
La208 O229 2.628 . S
La208 O230 2.554 . S
La208 O231 2.757 1_655 S
La208 O232 2.470 . S
La208 O237 2.482 . S
La208 O239 2.503 1_655 S
La209 C219 2.928 . S
La209 O231 2.482 . S
La209 O233 2.503 1_455 S
La209 O234 2.521 . S
La209 O235 2.628 . S
La209 O236 2.554 . S
La209 O237 2.757 1_455 S
La209 O238 2.470 . S
C210 La208 2.928 . S
C210 C211 1.503 1_556 S
C210 O228 1.261 . S
C210 O229 1.243 . S
C211 C210 1.503 1_554 S
C211 C212 1.394 . S
C211 C216 1.373 . S
C212 C211 1.394 . S
C212 C213 1.380 . S
C212 H240 0.930 . S
C213 C212 1.380 . S
C213 C214 1.376 . S
C213 H241 0.930 . S
C214 C213 1.376 . S
C214 C215 1.370 . S
C215 C214 1.370 . S
C215 C216 1.396 . S
C215 H242 0.929 . S
C216 C211 1.373 . S
C216 C215 1.396 . S
C216 H243 0.929 . S
C217 O230 1.257 . S
C217 O231 1.279 1_655 S
C218 O232 1.258 . S
C218 O233 1.256 . S
C219 La209 2.928 . S
C219 C220 1.503 . S
C219 O234 1.261 . S
C219 O235 1.243 . S
C220 C219 1.503 . S
C220 C221 1.394 . S
C220 C225 1.373 . S
C221 C220 1.394 . S
C221 C222 1.380 . S
C221 H244 0.930 . S
C222 C221 1.380 . S
C222 C223 1.376 . S
C222 H245 0.930 . S
C223 C222 1.376 . S
C223 C224 1.370 . S
C224 C223 1.370 . S
C224 C225 1.396 . S
C224 H246 0.929 . S
C225 C220 1.373 . S
C225 C224 1.396 . S
C225 H247 0.929 . S
C226 O236 1.263 . S
C226 O237 1.276 1_455 S
C227 O238 1.258 . S
C227 O239 1.256 . S
O228 La208 2.521 . S
O228 C210 1.261 . S
O229 La208 2.628 . S
O229 C210 1.243 . S
O230 La208 2.554 . S
O230 C217 1.257 . S
O231 La208 2.757 1_455 S
O231 La209 2.482 . S
O231 C217 1.279 1_455 S
O232 La208 2.470 . S
O232 C218 1.258 . S
O233 La209 2.503 1_655 S
O233 C218 1.256 . S
O234 La209 2.521 . S
O234 C219 1.261 . S
O235 La209 2.628 . S
O235 C219 1.243 . S
O236 La209 2.554 . S
O236 C226 1.263 . S
O237 La208 2.482 . S
O237 La209 2.757 1_655 S
O237 C226 1.276 1_655 S
O238 La209 2.470 . S
O238 C227 1.258 . S
O239 La208 2.503 1_455 S
O239 C227 1.256 . S
H240 C212 0.930 . S
H241 C213 0.930 . S
H242 C215 0.929 . S
H243 C216 0.929 . S
H244 C221 0.930 . S
H245 C222 0.930 . S
H246 C224 0.929 . S
H247 C225 0.929 . S
H248 C256 0.950 . S
H249 C261 0.950 . S
H250 C258 0.950 . S
H251 C260 0.950 . S
H252 C262 0.950 . S
H253 C264 0.950 . S
H254 C266 0.950 . S
H255 C267 0.950 . S
C256 H248 0.950 . S
C256 C257 1.393 . S
C256 C258 1.391 . S
C257 C256 1.393 . S
C257 C261 1.386 1_565 S
C258 H250 0.950 . S
C258 C256 1.391 . S
C258 C259 1.399 1_565 S
C259 C258 1.399 1_545 S
C259 C260 1.400 . S
C259 C265 1.491 . S
C260 H251 0.950 . S
C260 C259 1.400 . S
C260 C261 1.391 . S
C261 H249 0.950 . S
C261 C257 1.386 1_545 S
C261 C260 1.391 . S
C262 H252 0.950 . S
C262 C263 1.386 . S
C262 C264 1.391 . S
C263 C262 1.386 . S
C263 C267 1.393 1_545 S
C264 H253 0.950 . S
C264 C262 1.391 . S
C264 C265 1.400 . S
C265 C259 1.491 . S
C265 C264 1.400 . S
C265 C266 1.398 1_545 S
C266 H254 0.950 . S
C266 C265 1.398 1_565 S
C266 C267 1.391 . S
C267 H255 0.950 . S
C267 C263 1.393 1_565 S
C267 C266 1.391 . S
H268 C276 0.950 . S
H269 C281 0.950 . S
H270 C278 0.950 . S
H271 C280 0.950 . S
H272 C282 0.950 . S
H273 C284 0.950 . S
H274 C286 0.950 . S
H275 C287 0.950 . S
C276 H268 0.950 . S
C276 C277 1.386 . S
C276 C278 1.391 . S
C277 C276 1.386 . S
C277 C281 1.393 . S
C278 H270 0.950 . S
C278 C276 1.391 . S
C278 C279 1.400 . S
C279 C278 1.400 . S
C279 C280 1.398 . S
C279 C285 1.491 . S
C280 H271 0.950 . S
C280 C279 1.398 . S
C280 C281 1.391 . S
C281 H269 0.950 . S
C281 C277 1.393 . S
C281 C280 1.391 . S
C282 H272 0.950 . S
C282 C283 1.386 . S
C282 C284 1.391 . S
C283 C282 1.386 . S
C283 C287 1.393 . S
C284 H273 0.950 . S
C284 C282 1.391 . S
C284 C285 1.400 . S
C285 C279 1.491 . S
C285 C284 1.400 . S
C285 C286 1.398 . S
C286 H274 0.950 . S
C286 C285 1.398 . S
C286 C287 1.391 . S
C287 H275 0.950 . S
C287 C283 1.393 . S
C287 C286 1.391 . S
H288 C296 0.950 . S
H289 C301 0.950 . S
H290 C298 0.950 . S
H291 C300 0.950 . S
H292 C302 0.950 . S
H293 C304 0.950 . S
H294 C306 0.950 . S
H295 C307 0.950 . S
C296 H288 0.950 . S
C296 C297 1.386 . S
C296 C298 1.391 . S
C297 C296 1.386 . S
C297 C301 1.393 . S
C298 H290 0.950 . S
C298 C296 1.391 . S
C298 C299 1.400 . S
C299 C298 1.400 . S
C299 C300 1.398 . S
C299 C305 1.491 . S
C300 H291 0.950 . S
C300 C299 1.398 . S
C300 C301 1.391 . S
C301 H289 0.950 . S
C301 C297 1.393 . S
C301 C300 1.391 . S
C302 H292 0.950 . S
C302 C303 1.386 . S
C302 C304 1.391 . S
C303 C302 1.386 . S
C303 C307 1.393 . S
C304 H293 0.950 . S
C304 C302 1.391 . S
C304 C305 1.400 . S
C305 C299 1.491 . S
C305 C304 1.400 . S
C305 C306 1.398 . S
C306 H294 0.950 . S
C306 C305 1.398 . S
C306 C307 1.391 . S
C307 H295 0.950 . S
C307 C303 1.393 . S
C307 C306 1.391 . S
H308 C316 0.950 . S
H309 C321 0.950 . S
H310 C318 0.950 . S
H311 C320 0.950 . S
H312 C322 0.950 . S
H313 C324 0.950 . S
H314 C326 0.950 . S
H315 C327 0.950 . S
C316 H308 0.950 . S
C316 C317 1.386 . S
C316 C318 1.391 . S
C317 C316 1.386 . S
C317 C321 1.393 1_455 S
C318 H310 0.950 . S
C318 C316 1.391 . S
C318 C319 1.400 . S
C319 C318 1.400 . S
C319 C320 1.398 1_455 S
C319 C325 1.492 . S
C320 H311 0.950 . S
C320 C319 1.398 1_655 S
C320 C321 1.391 . S
C321 H309 0.950 . S
C321 C317 1.393 1_655 S
C321 C320 1.391 . S
C322 H312 0.950 . S
C322 C323 1.367 1_655 S
C322 C324 1.391 . S
C323 C322 1.367 1_455 S
C323 C327 1.411 . S
C324 H313 0.950 . S
C324 C322 1.391 . S
C324 C325 1.386 1_655 S
C325 C319 1.492 . S
C325 C324 1.386 1_455 S
C325 C326 1.412 . S
C326 H314 0.950 . S
C326 C325 1.412 . S
C326 C327 1.391 . S
C327 H315 0.950 . S
C327 C323 1.411 . S
C327 C326 1.391 . S
H328 C336 0.950 . S
H329 C341 0.950 . S
H330 C338 0.950 . S
H331 C340 0.950 . S
H332 C342 0.950 . S
H333 C344 0.950 . S
H334 C346 0.950 . S
H335 C347 0.950 . S
C336 H328 0.950 . S
C336 C337 1.399 . S
C336 C338 1.391 . S
C337 C336 1.399 . S
C337 C341 1.379 1_545 S
C338 H330 0.950 . S
C338 C336 1.391 . S
C338 C339 1.400 1_545 S
C339 C338 1.400 1_565 S
C339 C340 1.398 . S
C339 C345 1.490 . S
C340 H331 0.950 . S
C340 C339 1.398 . S
C340 C341 1.391 . S
C341 H329 0.950 . S
C341 C337 1.379 1_565 S
C341 C340 1.391 . S
C342 H332 0.950 . S
C342 C343 1.386 1_554 S
C342 C344 1.391 . S
C343 C342 1.386 1_556 S
C343 C347 1.393 1_565 S
C344 H333 0.950 . S
C344 C342 1.391 . S
C344 C345 1.427 . S
C345 C339 1.490 . S
C345 C344 1.427 . S
C345 C346 1.371 1_564 S
C346 H334 0.950 . S
C346 C345 1.371 1_546 S
C346 C347 1.394 . S
C347 H335 0.950 . S
C347 C343 1.393 1_545 S
C347 C346 1.394 . S
H348 C356 0.950 . S
H349 C361 0.950 . S
H350 C358 0.950 . S
H351 C360 0.950 . S
H352 C362 0.950 . S
H353 C364 0.950 . S
H354 C366 0.950 . S
H355 C367 0.950 . S
C356 H348 0.950 . S
C356 C357 1.386 . S
C356 C358 1.391 . S
C357 C356 1.386 . S
C357 C361 1.393 . S
C358 H350 0.950 . S
C358 C356 1.391 . S
C358 C359 1.400 . S
C359 C358 1.400 . S
C359 C360 1.398 . S
C359 C365 1.491 . S
C360 H351 0.950 . S
C360 C359 1.398 . S
C360 C361 1.391 . S
C361 H349 0.950 . S
C361 C357 1.393 . S
C361 C360 1.391 . S
C362 H352 0.950 . S
C362 C363 1.386 . S
C362 C364 1.391 1_556 S
C363 C362 1.386 . S
C363 C367 1.393 . S
C364 H353 0.950 . S
C364 C362 1.391 1_554 S
C364 C365 1.400 . S
C365 C359 1.491 . S
C365 C364 1.400 . S
C365 C366 1.398 . S
C366 H354 0.950 . S
C366 C365 1.398 . S
C366 C367 1.391 1_554 S
C367 H355 0.950 . S
C367 C363 1.393 . S
C367 C366 1.391 1_556 S
H368 C376 0.950 . S
H369 C381 0.950 . S
H370 C378 0.950 . S
H371 C380 0.950 . S
H372 C382 0.950 . S
H373 C384 0.950 . S
H374 C386 0.950 . S
H375 C387 0.950 . S
C376 H368 0.950 . S
C376 C377 1.386 . S
C376 C378 1.391 . S
C377 C376 1.386 . S
C377 C381 1.393 . S
C378 H370 0.950 . S
C378 C376 1.391 . S
C378 C379 1.400 . S
C379 C378 1.400 . S
C379 C380 1.398 . S
C379 C385 1.491 . S
C380 H371 0.950 . S
C380 C379 1.398 . S
C380 C381 1.391 . S
C381 H369 0.950 . S
C381 C377 1.393 . S
C381 C380 1.391 . S
C382 H372 0.950 . S
C382 C383 1.386 . S
C382 C384 1.391 1_556 S
C383 C382 1.386 . S
C383 C387 1.393 . S
C384 H373 0.950 . S
C384 C382 1.391 1_554 S
C384 C385 1.400 . S
C385 C379 1.491 . S
C385 C384 1.400 . S
C385 C386 1.398 . S
C386 H374 0.950 . S
C386 C385 1.398 . S
C386 C387 1.391 1_554 S
C387 H375 0.950 . S
C387 C383 1.393 . S
C387 C386 1.391 1_556 S
H388 C396 0.950 . S
H389 C401 0.950 . S
H390 C398 0.950 . S
H391 C400 0.950 . S
H392 C402 0.950 . S
H393 C404 0.950 . S
H394 C406 0.950 . S
H395 C407 0.950 . S
C396 H388 0.950 . S
C396 C397 1.386 . S
C396 C398 1.391 . S
C397 C396 1.386 . S
C397 C401 1.392 1_455 S
C398 H390 0.950 . S
C398 C396 1.391 . S
C398 C399 1.382 1_455 S
C399 C398 1.382 1_655 S
C399 C400 1.416 . S
C399 C405 1.492 . S
C400 H391 0.950 . S
C400 C399 1.416 . S
C400 C401 1.391 . S
C401 H389 0.950 . S
C401 C397 1.392 1_655 S
C401 C400 1.391 . S
C402 H392 0.950 . S
C402 C403 1.386 . S
C402 C404 1.391 1_556 S
C403 C402 1.386 . S
C403 C407 1.393 1_655 S
C404 H393 0.950 . S
C404 C402 1.391 1_554 S
C404 C405 1.400 . S
C405 C399 1.492 . S
C405 C404 1.400 . S
C405 C406 1.398 1_655 S
C406 H394 0.950 . S
C406 C405 1.398 1_455 S
C406 C407 1.391 1_554 S
C407 H395 0.950 . S
C407 C403 1.393 1_455 S
C407 C406 1.391 1_556 S
H408 C416 0.950 . S
H409 C421 0.950 . S
H410 C418 0.950 . S
H411 C420 0.950 . S
H412 C422 0.950 . S
H413 C424 0.950 . S
H414 C426 0.950 1_455 S
H415 C427 0.983 . S
C416 H408 0.950 . S
C416 C417 1.386 . S
C416 C418 1.391 . S
C417 C416 1.386 . S
C417 C421 1.393 1_455 S
C418 H410 0.950 . S
C418 C416 1.391 . S
C418 C419 1.400 1_455 S
C419 C418 1.400 1_655 S
C419 C420 1.398 . S
C419 C425 1.491 . S
C420 H411 0.950 . S
C420 C419 1.398 . S
C420 C421 1.391 . S
C421 H409 0.950 . S
C421 C417 1.393 1_655 S
C421 C420 1.391 . S
C422 H412 0.950 . S
C422 C423 1.386 . S
C422 C424 1.391 . S
C423 C422 1.386 . S
C423 C427 1.393 . S
C424 H413 0.950 . S
C424 C422 1.391 . S
C424 C425 1.400 . S
C425 C419 1.491 . S
C425 C424 1.400 . S
C425 C426 1.398 . S
C426 H414 0.950 1_655 S
C426 C425 1.398 . S
C426 C427 1.391 . S
C427 H415 0.983 . S
C427 C423 1.393 . S
C427 C426 1.391 . S
H428 C436 0.950 . S
H429 C441 0.950 . S
H430 C438 0.950 . S
H431 C440 0.950 . S
H432 C442 0.950 . S
H433 C444 0.950 . S
H434 C446 0.950 . S
H435 C447 0.950 . S
C436 H428 0.950 . S
C436 C437 1.386 1_565 S
C436 C438 1.391 . S
C437 C436 1.386 1_545 S
C437 C441 1.393 . S
C438 H430 0.950 . S
C438 C436 1.391 . S
C438 C439 1.400 . S
C439 C438 1.400 . S
C439 C440 1.398 1_565 S
C439 C445 1.491 . S
C440 H431 0.950 . S
C440 C439 1.398 1_545 S
C440 C441 1.391 . S
C441 H429 0.950 . S
C441 C437 1.393 . S
C441 C440 1.391 . S
C442 H432 0.950 . S
C442 C443 1.386 . S
C442 C444 1.391 . S
C443 C442 1.386 . S
C443 C447 1.393 . S
C444 H433 0.950 . S
C444 C442 1.391 . S
C444 C445 1.400 . S
C445 C439 1.491 . S
C445 C444 1.400 . S
C445 C446 1.398 . S
C446 H434 0.950 . S
C446 C445 1.398 . S
C446 C447 1.391 . S
C447 H435 0.950 . S
C447 C443 1.393 . S
C447 C446 1.391 . S
H448 C456 0.950 . S
H449 C461 0.950 . S
H450 C458 0.950 . S
H451 C460 0.950 . S
H452 C462 0.950 . S
H453 C464 0.950 . S
H454 C466 0.950 . S
H455 C467 0.950 . S
C456 H448 0.950 . S
C456 C457 1.386 . S
C456 C458 1.391 . S
C457 C456 1.386 . S
C457 C461 1.393 . S
C458 H450 0.950 . S
C458 C456 1.391 . S
C458 C459 1.400 . S
C459 C458 1.400 . S
C459 C460 1.398 . S
C459 C465 1.491 . S
C460 H451 0.950 . S
C460 C459 1.398 . S
C460 C461 1.391 . S
C461 H449 0.950 . S
C461 C457 1.393 . S
C461 C460 1.391 . S
C462 H452 0.950 . S
C462 C463 1.386 . S
C462 C464 1.391 . S
C463 C462 1.386 . S
C463 C467 1.393 . S
C464 H453 0.950 . S
C464 C462 1.391 . S
C464 C465 1.400 . S
C465 C459 1.491 . S
C465 C464 1.400 . S
C465 C466 1.398 . S
C466 H454 0.950 . S
C466 C465 1.398 . S
C466 C467 1.391 . S
C467 H455 0.950 . S
C467 C463 1.393 . S
C467 C466 1.391 . S
H468 C476 0.950 . S
H469 C481 0.950 . S
H470 C478 0.950 . S
H471 C480 0.950 . S
H472 C482 0.950 . S
H473 C484 0.950 . S
H474 C486 0.950 . S
H475 C487 0.950 . S
C476 H468 0.950 . S
C476 C477 1.386 . S
C476 C478 1.391 . S
C477 C476 1.386 . S
C477 C481 1.393 . S
C478 H470 0.950 . S
C478 C476 1.391 . S
C478 C479 1.400 . S
C479 C478 1.400 . S
C479 C480 1.398 . S
C479 C485 1.491 . S
C480 H471 0.950 . S
C480 C479 1.398 . S
C480 C481 1.391 . S
C481 H469 0.950 . S
C481 C477 1.393 . S
C481 C480 1.391 . S
C482 H472 0.950 . S
C482 C483 1.386 . S
C482 C484 1.391 . S
C483 C482 1.386 . S
C483 C487 1.393 . S
C484 H473 0.950 . S
C484 C482 1.391 . S
C484 C485 1.400 . S
C485 C479 1.491 . S
C485 C484 1.400 . S
C485 C486 1.398 . S
C486 H474 0.950 . S
C486 C485 1.398 . S
C486 C487 1.391 . S
C487 H475 0.950 . S
C487 C483 1.393 . S
C487 C486 1.391 . S
H488 C496 0.950 . S
H489 C501 0.950 . S
H490 C498 0.950 . S
H491 C500 0.950 . S
H492 C502 0.950 . S
H493 C504 0.957 . S
H494 C506 0.950 . S
H495 C507 0.950 . S
C496 H488 0.950 . S
C496 C497 1.386 1_455 S
C496 C498 1.391 . S
C497 C496 1.386 1_655 S
C497 C501 1.393 . S
C498 H490 0.950 . S
C498 C496 1.391 . S
C498 C499 1.400 . S
C499 C498 1.400 . S
C499 C500 1.398 1_455 S
C499 C505 1.491 . S
C500 H491 0.950 . S
C500 C499 1.398 1_655 S
C500 C501 1.391 . S
C501 H489 0.950 . S
C501 C497 1.393 . S
C501 C500 1.391 . S
C502 H492 0.950 . S
C502 C503 1.386 . S
C502 C504 1.391 . S
C503 C502 1.386 . S
C503 C507 1.393 . S
C504 H493 0.957 . S
C504 C502 1.391 . S
C504 C505 1.400 . S
C505 C499 1.491 . S
C505 C504 1.400 . S
C505 C506 1.398 . S
C506 H494 0.950 . S
C506 C505 1.398 . S
C506 C507 1.391 . S
C507 H495 0.950 . S
C507 C503 1.393 . S
C507 C506 1.391 . S
H508 C516 0.950 . S
H509 C521 0.950 . S
H510 C518 0.950 . S
H511 C520 0.950 . S
H512 C522 0.950 . S
H513 C524 0.950 1_565 S
H514 C526 0.950 . S
H515 C527 0.950 . S
C516 H508 0.950 . S
C516 C517 1.386 1_545 S
C516 C518 1.391 . S
C517 C516 1.386 1_565 S
C517 C521 1.393 . S
C518 H510 0.950 . S
C518 C516 1.391 . S
C518 C519 1.400 . S
C519 C518 1.400 . S
C519 C520 1.398 1_545 S
C519 C525 1.491 . S
C520 H511 0.950 . S
C520 C519 1.398 1_565 S
C520 C521 1.391 . S
C521 H509 0.950 . S
C521 C517 1.393 . S
C521 C520 1.391 . S
C522 H512 0.950 . S
C522 C523 1.386 . S
C522 C524 1.391 . S
C523 C522 1.386 . S
C523 C527 1.393 . S
C524 H513 0.950 1_545 S
C524 C522 1.391 . S
C524 C525 1.400 . S
C525 C519 1.491 . S
C525 C524 1.400 . S
C525 C526 1.398 . S
C526 H514 0.950 . S
C526 C525 1.398 . S
C526 C527 1.391 . S
C527 H515 0.950 . S
C527 C523 1.393 . S
C527 C526 1.391 . S
H528 C536 0.950 . S
H529 C541 0.950 . S
H530 C538 0.950 . S
H531 C540 0.950 . S
H532 C542 0.950 . S
H533 C544 0.950 . S
H534 C546 0.950 . S
H535 C547 0.950 . S
C536 H528 0.950 . S
C536 C537 1.386 . S
C536 C538 1.391 . S
C537 C536 1.386 . S
C537 C541 1.393 . S
C538 H530 0.950 . S
C538 C536 1.391 . S
C538 C539 1.400 . S
C539 C538 1.400 . S
C539 C540 1.398 . S
C539 C545 1.491 . S
C540 H531 0.950 . S
C540 C539 1.398 . S
C540 C541 1.391 . S
C541 H529 0.950 . S
C541 C537 1.393 . S
C541 C540 1.391 . S
C542 H532 0.950 . S
C542 C543 1.386 . S
C542 C544 1.391 . S
C543 C542 1.386 . S
C543 C547 1.393 . S
C544 H533 0.950 . S
C544 C542 1.391 . S
C544 C545 1.400 . S
C545 C539 1.491 . S
C545 C544 1.400 . S
C545 C546 1.398 . S
C546 H534 0.950 . S
C546 C545 1.398 . S
C546 C547 1.391 . S
C547 H535 0.950 . S
C547 C543 1.393 . S
C547 C546 1.391 . S
H548 C556 0.950 . S
H549 C561 0.950 . S
H550 C558 0.950 . S
H551 C560 0.950 . S
H552 C562 0.950 . S
H553 C564 0.950 . S
H554 C566 0.950 . S
H555 C567 0.950 . S
C556 H548 0.950 . S
C556 C557 1.386 . S
C556 C558 1.391 . S
C557 C556 1.386 . S
C557 C561 1.393 . S
C558 H550 0.950 . S
C558 C556 1.391 . S
C558 C559 1.400 . S
C559 C558 1.400 . S
C559 C560 1.398 . S
C559 C565 1.491 . S
C560 H551 0.950 . S
C560 C559 1.398 . S
C560 C561 1.391 . S
C561 H549 0.950 . S
C561 C557 1.393 . S
C561 C560 1.391 . S
C562 H552 0.950 . S
C562 C563 1.386 . S
C562 C564 1.391 . S
C563 C562 1.386 . S
C563 C567 1.393 . S
C564 H553 0.950 . S
C564 C562 1.391 . S
C564 C565 1.400 . S
C565 C559 1.491 . S
C565 C564 1.400 . S
C565 C566 1.398 . S
C566 H554 0.950 . S
C566 C565 1.398 . S
C566 C567 1.391 . S
C567 H555 0.950 . S
C567 C563 1.393 . S
C567 C566 1.391 . S
H568 C576 0.950 . S
H569 C581 0.950 . S
H570 C578 0.950 . S
H571 C580 0.950 . S
H572 C582 0.950 . S
H573 C584 0.950 . S
H574 C586 0.950 . S
H575 C587 0.950 . S
C576 H568 0.950 . S
C576 C577 1.386 . S
C576 C578 1.391 . S
C577 C576 1.386 . S
C577 C581 1.393 1_455 S
C578 H570 0.950 . S
C578 C576 1.391 . S
C578 C579 1.400 . S
C579 C578 1.400 . S
C579 C580 1.398 1_455 S
C579 C585 1.491 . S
C580 H571 0.950 . S
C580 C579 1.398 1_655 S
C580 C581 1.391 . S
C581 H569 0.950 . S
C581 C577 1.393 1_655 S
C581 C580 1.391 . S
C582 H572 0.950 . S
C582 C583 1.386 1_655 S
C582 C584 1.391 . S
C583 C582 1.386 1_455 S
C583 C587 1.393 . S
C584 H573 0.950 . S
C584 C582 1.391 . S
C584 C585 1.400 1_655 S
C585 C579 1.491 . S
C585 C584 1.400 1_455 S
C585 C586 1.398 . S
C586 H574 0.950 . S
C586 C585 1.398 . S
C586 C587 1.391 . S
C587 H575 0.950 . S
C587 C583 1.393 . S
C587 C586 1.391 . S
H588 C596 0.950 . S
H589 C601 0.950 . S
H590 C598 0.950 . S
H591 C600 0.950 . S
H592 C602 0.950 . S
H593 C604 0.950 . S
H594 C606 0.950 . S
H595 C607 0.950 . S
C596 H588 0.950 . S
C596 C597 1.386 . S
C596 C598 1.391 . S
C597 C596 1.386 . S
C597 C601 1.393 1_545 S
C598 H590 0.950 . S
C598 C596 1.391 . S
C598 C599 1.400 . S
C599 C598 1.400 . S
C599 C600 1.398 1_545 S
C599 C605 1.491 . S
C600 H591 0.950 . S
C600 C599 1.398 1_565 S
C600 C601 1.391 . S
C601 H589 0.950 . S
C601 C597 1.393 1_565 S
C601 C600 1.391 . S
C602 H592 0.950 . S
C602 C603 1.386 1_565 S
C602 C604 1.391 . S
C603 C602 1.386 1_545 S
C603 C607 1.393 . S
C604 H593 0.950 . S
C604 C602 1.391 . S
C604 C605 1.400 1_565 S
C605 C599 1.491 . S
C605 C604 1.400 1_545 S
C605 C606 1.398 . S
C606 H594 0.950 . S
C606 C605 1.398 . S
C606 C607 1.391 . S
C607 H595 0.950 . S
C607 C603 1.393 . S
C607 C606 1.391 . S
H608 C616 0.950 . S
H609 C621 0.950 . S
H610 C618 0.950 . S
H611 C620 0.950 . S
H612 C622 0.950 . S
H613 C624 0.950 . S
H614 C626 0.950 . S
H615 C627 0.950 . S
C616 H608 0.950 . S
C616 C617 1.386 . S
C616 C618 1.391 . S
C617 C616 1.386 . S
C617 C621 1.393 . S
C618 H610 0.950 . S
C618 C616 1.391 . S
C618 C619 1.400 . S
C619 C618 1.400 . S
C619 C620 1.398 . S
C619 C625 1.491 . S
C620 H611 0.950 . S
C620 C619 1.398 . S
C620 C621 1.391 . S
C621 H609 0.950 . S
C621 C617 1.393 . S
C621 C620 1.391 . S
C622 H612 0.950 . S
C622 C623 1.386 . S
C622 C624 1.391 . S
C623 C622 1.386 . S
C623 C627 1.393 . S
C624 H613 0.950 . S
C624 C622 1.391 . S
C624 C625 1.400 . S
C625 C619 1.491 . S
C625 C624 1.400 . S
C625 C626 1.398 . S
C626 H614 0.950 . S
C626 C625 1.398 . S
C626 C627 1.391 . S
C627 H615 0.950 . S
C627 C623 1.393 . S
C627 C626 1.391 . S
H628 C636 0.950 . S
H629 C641 0.950 . S
H630 C638 0.950 . S
H631 C640 0.950 . S
H632 C642 0.950 . S
H633 C644 0.950 . S
H634 C646 0.950 . S
H635 C647 0.950 . S
C636 H628 0.950 . S
C636 C637 1.386 . S
C636 C638 1.391 . S
C637 C636 1.386 . S
C637 C641 1.393 . S
C638 H630 0.950 . S
C638 C636 1.391 . S
C638 C639 1.400 . S
C639 C638 1.400 . S
C639 C640 1.398 . S
C639 C645 1.491 . S
C640 H631 0.950 . S
C640 C639 1.398 . S
C640 C641 1.391 . S
C641 H629 0.950 . S
C641 C637 1.393 . S
C641 C640 1.391 . S
C642 H632 0.950 . S
C642 C643 1.386 . S
C642 C644 1.391 . S
C643 C642 1.386 . S
C643 C647 1.393 . S
C644 H633 0.950 . S
C644 C642 1.391 . S
C644 C645 1.400 . S
C645 C639 1.491 . S
C645 C644 1.400 . S
C645 C646 1.398 . S
C646 H634 0.950 . S
C646 C645 1.398 . S
C646 C647 1.391 . S
C647 H635 0.950 . S
C647 C643 1.393 . S
C647 C646 1.391 . S
H648 C656 0.950 . S
H649 C661 0.950 . S
H650 C658 0.950 . S
H651 C660 0.950 . S
H652 C662 0.942 1_455 S
H653 C664 0.950 1_455 S
H654 C666 0.950 . S
H655 C667 0.950 . S
C656 H648 0.950 . S
C656 C657 1.386 . S
C656 C658 1.391 . S
C657 C656 1.386 . S
C657 C661 1.393 1_655 S
C658 H650 0.950 . S
C658 C656 1.391 . S
C658 C659 1.400 . S
C659 C658 1.400 . S
C659 C660 1.398 1_655 S
C659 C665 1.491 . S
C660 H651 0.950 . S
C660 C659 1.398 1_455 S
C660 C661 1.391 . S
C661 H649 0.950 . S
C661 C657 1.393 1_455 S
C661 C660 1.391 . S
C662 H652 0.942 1_655 S
C662 C663 1.386 . S
C662 C664 1.391 . S
C663 C662 1.386 . S
C663 C667 1.393 . S
C664 H653 0.950 1_655 S
C664 C662 1.391 . S
C664 C665 1.400 . S
C665 C659 1.491 . S
C665 C664 1.400 . S
C665 C666 1.398 . S
C666 H654 0.950 . S
C666 C665 1.398 . S
C666 C667 1.391 . S
C667 H655 0.950 . S
C667 C663 1.393 . S
C667 C666 1.391 . S
H668 C676 0.950 . S
H669 C681 0.950 . S
H670 C678 0.950 . S
H671 C680 0.950 . S
H672 C682 0.950 . S
H673 C684 0.950 . S
H674 C686 0.950 . S
H675 C687 0.950 . S
C676 H668 0.950 . S
C676 C677 1.386 . S
C676 C678 1.391 . S
C677 C676 1.386 . S
C677 C681 1.393 1_565 S
C678 H670 0.950 . S
C678 C676 1.391 . S
C678 C679 1.400 . S
C679 C678 1.400 . S
C679 C680 1.398 1_565 S
C679 C685 1.491 . S
C680 H671 0.950 . S
C680 C679 1.398 1_545 S
C680 C681 1.391 . S
C681 H669 0.950 . S
C681 C677 1.393 1_545 S
C681 C680 1.391 . S
C682 H672 0.950 . S
C682 C683 1.386 1_545 S
C682 C684 1.391 . S
C683 C682 1.386 1_565 S
C683 C687 1.393 . S
C684 H673 0.950 . S
C684 C682 1.391 . S
C684 C685 1.400 1_545 S
C685 C679 1.491 . S
C685 C684 1.400 1_565 S
C685 C686 1.398 . S
C686 H674 0.950 . S
C686 C685 1.398 . S
C686 C687 1.391 . S
C687 H675 0.950 . S
C687 C683 1.393 . S
C687 C686 1.391 . S
H688 C696 0.950 . S
H689 C701 0.950 . S
H690 C698 0.950 . S
H691 C700 0.950 . S
H692 C702 0.950 . S
H693 C704 0.950 . S
H694 C706 0.950 . S
H695 C707 0.950 . S
C696 H688 0.950 . S
C696 C697 1.386 . S
C696 C698 1.391 . S
C697 C696 1.386 . S
C697 C701 1.393 . S
C698 H690 0.950 . S
C698 C696 1.391 . S
C698 C699 1.400 . S
C699 C698 1.400 . S
C699 C700 1.398 . S
C699 C705 1.491 . S
C700 H691 0.950 . S
C700 C699 1.398 . S
C700 C701 1.391 . S
C701 H689 0.950 . S
C701 C697 1.393 . S
C701 C700 1.391 . S
C702 H692 0.950 . S
C702 C703 1.386 . S
C702 C704 1.391 . S
C703 C702 1.386 . S
C703 C707 1.393 . S
C704 H693 0.950 . S
C704 C702 1.391 . S
C704 C705 1.400 . S
C705 C699 1.491 . S
C705 C704 1.400 . S
C705 C706 1.398 . S
C706 H694 0.950 . S
C706 C705 1.398 . S
C706 C707 1.391 . S
C707 H695 0.950 . S
C707 C703 1.393 . S
C707 C706 1.391 . S
H708 C716 0.950 . S
H709 C721 0.950 . S
H710 C718 0.950 . S
H711 C720 0.950 . S
H712 C722 0.950 . S
H713 C724 0.950 . S
H714 C726 0.950 . S
H715 C727 0.950 . S
C716 H708 0.950 . S
C716 C717 1.386 . S
C716 C718 1.391 . S
C717 C716 1.386 . S
C717 C721 1.393 . S
C718 H710 0.950 . S
C718 C716 1.391 . S
C718 C719 1.400 . S
C719 C718 1.400 . S
C719 C720 1.398 . S
C719 C725 1.491 . S
C720 H711 0.950 . S
C720 C719 1.398 . S
C720 C721 1.391 . S
C721 H709 0.950 . S
C721 C717 1.393 . S
C721 C720 1.391 . S
C722 H712 0.950 . S
C722 C723 1.386 . S
C722 C724 1.391 . S
C723 C722 1.386 . S
C723 C727 1.393 . S
C724 H713 0.950 . S
C724 C722 1.391 . S
C724 C725 1.400 . S
C725 C719 1.491 . S
C725 C724 1.400 . S
C725 C726 1.398 . S
C726 H714 0.950 . S
C726 C725 1.398 . S
C726 C727 1.391 . S
C727 H715 0.950 . S
C727 C723 1.393 . S
C727 C726 1.391 . S
C257 C76 1.818 . S
C263 C97 1.956 1_545 S
C283 C137 1.966 . S
C277 C87 1.816 . S
C303 C177 1.973 . S
C297 C54 1.829 . S
C323 C217 1.954 1_455 S
C317 C65 1.839 1_455 S
C343 C106 1.957 1_565 S
C337 C32 1.841 1_545 S
C357 C43 1.844 . S
C363 C146 1.962 . S
C377 C10 1.851 . S
C383 C186 1.966 . S
C397 C21 1.844 1_455 S
C403 C226 1.960 1_655 S
C423 C103 0.490 . S
C417 C60 0.533 . S
C443 C143 0.530 . S
C437 C71 0.521 . S
C463 C183 0.490 . S
C457 C82 0.478 . S
C477 C49 0.542 . S
C483 C223 0.512 . S
C497 C16 0.546 1_655 S
C503 C94 0.524 . S
C523 C134 0.501 . S
C517 C27 0.544 1_565 S
C543 C174 0.533 . S
C537 C38 0.553 . S
C557 C5 0.542 . S
C563 C214 0.534 . S
C577 C59 2.025 . S
C583 C107 2.268 . S
C597 C70 2.006 . S
C603 C147 2.254 . S
C623 C187 2.239 . S
C617 C81 1.997 . S
C643 C227 2.256 . S
C637 C48 2.034 . S
C657 C15 2.048 1_655 S
C663 C98 2.272 . S
C683 C138 2.253 . S
C677 C26 2.037 1_565 S
C703 C178 2.238 . S
C697 C37 2.003 . S
C717 C4 2.019 . S
C723 C218 2.268 . S
