# Generated by pormake.
# Topology rtl, (3,6)-cn, num edge types: 1
# Building blocks:
#     Node 0, Type 0, BuildingBlock: KAKCAD_clean_linker_0, # of connection points: 3
#     Node 1, Type 0, BuildingBlock: KAKCAD_clean_linker_0, # of connection points: 3
#     Node 2, Type 0, BuildingBlock: KAKCAD_clean_linker_0, # of connection points: 3
#     Node 3, Type 0, BuildingBlock: KAKCAD_clean_linker_0, # of connection points: 3
#     Node 4, Type 1, BuildingBlock: CIFDUS_clean_sbu_1, # of connection points: 6
#     Node 5, Type 1, BuildingBlock: CIFDUS_clean_sbu_1, # of connection points: 6
#     Edge 6, Type (0, 1), BuildingBlock: CIFDUS_clean_linker_0, # of connection points: 2
#     Edge 7, Type (0, 1), BuildingBlock: CIFDUS_clean_linker_0, # of connection points: 2
#     Edge 8, Type (0, 1), BuildingBlock: CIFDUS_clean_linker_0, # of connection points: 2
#     Edge 9, Type (0, 1), BuildingBlock: CIFDUS_clean_linker_0, # of connection points: 2
#     Edge 10, Type (0, 1), BuildingBlock: CIFDUS_clean_linker_0, # of connection points: 2
#     Edge 11, Type (0, 1), BuildingBlock: CIFDUS_clean_linker_0, # of connection points: 2
#     Edge 12, Type (0, 1), BuildingBlock: CIFDUS_clean_linker_0, # of connection points: 2
#     Edge 13, Type (0, 1), BuildingBlock: CIFDUS_clean_linker_0, # of connection points: 2
#     Edge 14, Type (0, 1), BuildingBlock: CIFDUS_clean_linker_0, # of connection points: 2
#     Edge 15, Type (0, 1), BuildingBlock: CIFDUS_clean_linker_0, # of connection points: 2
#     Edge 16, Type (0, 1), BuildingBlock: CIFDUS_clean_linker_0, # of connection points: 2
#     Edge 17, Type (0, 1), BuildingBlock: CIFDUS_clean_linker_0, # of connection points: 2
# Relax obj value: 0.028
# Max RMSD: 0.063
# Mean RMSD: 0.048
data_MOF--net-rtl--node1-CIFDUS_clean_sbu_1--node2-KAKCAD_clean_linker_0--edge1-CIFDUS_clean_linker_0
_symmetry_space_group_name_H-M    P1
_symmetry_Int_Tables_number       1
_symmetry_cell_setting            triclinic
loop_
_symmetry_equiv_pos_as_xyz
'x, y, z'
_cell_length_a     33.564801
_cell_length_b     38.127872
_cell_length_c     26.423642
_cell_angle_alpha  89.613563
_cell_angle_beta   97.694013
_cell_angle_gamma 90.216931
loop_
_atom_site_label
_atom_site_type_symbol
_atom_site_fract_x
_atom_site_fract_y
_atom_site_fract_z
_atom_type_partial_charge
C0 C 0.19355 0.88415 0.90662 0.0
C1 C 0.19562 0.92028 0.89602 0.0
C2 C 0.20689 0.87103 0.95568 0.0
C3 C 0.22255 0.89373 0.99534 0.0
C4 C 0.22489 0.92976 0.98448 0.0
C5 C 0.21145 0.94284 0.93574 0.0
C6 C 0.23574 0.8803 0.04814 0.0
C7 C 0.25637 0.8483 0.05634 0.0
C8 C 0.26877 0.83564 0.10617 0.0
C9 C 0.26073 0.85569 0.14809 0.0
C10 C 0.23998 0.88767 0.1408 0.0
C11 C 0.22752 0.8996 0.09071 0.0
C12 C 0.22941 0.90792 0.18517 0.0
C13 C 0.21578 0.89056 0.22677 0.0
C14 C 0.23063 0.94482 0.18499 0.0
C15 C 0.21668 0.96387 0.2241 0.0
C16 C 0.20141 0.94647 0.26448 0.0
C17 C 0.28939 0.80114 0.1143 0.0
C18 C 0.27596 0.77238 0.08364 0.0
C19 C 0.32253 0.7966 0.15244 0.0
C20 C 0.34232 0.76426 0.15887 0.0
C21 C 0.32929 0.73568 0.12746 0.0
C22 C 0.29564 0.74015 0.09007 0.0
C23 C 0.20203 0.9096 0.26598 0.0
H24 H 0.1818 0.86597 0.87697 0.0
H25 H 0.20427 0.84316 0.96274 0.0
H26 H 0.23722 0.94802 0.01374 0.0
H27 H 0.21292 0.97088 0.92951 0.0
H28 H 0.26352 0.83351 0.02388 0.0
H29 H 0.21014 0.92351 0.08482 0.0
H30 H 0.27014 0.8461 0.1865 0.0
H31 H 0.21392 0.86221 0.22795 0.0
H32 H 0.24171 0.95904 0.15408 0.0
H33 H 0.21701 0.99226 0.22216 0.0
H34 H 0.25019 0.77478 0.05442 0.0
H35 H 0.33378 0.81829 0.17657 0.0
H36 H 0.18988 0.89537 0.29609 0.0
H37 H 0.28514 0.71901 0.06447 0.0
H38 H 0.36805 0.76174 0.18811 0.0
C39 C 0.70035 0.6349 0.76346 0.0
C40 C 0.69578 0.5982 0.76155 0.0
C41 C 0.71584 0.65308 0.72417 0.0
C42 C 0.72697 0.63494 0.68213 0.0
C43 C 0.72444 0.59811 0.68169 0.0
C44 C 0.70904 0.57997 0.72091 0.0
C45 C 0.73905 0.65423 0.63747 0.0
C46 C 0.76582 0.68276 0.64402 0.0
C47 C 0.77791 0.70022 0.60151 0.0
C48 C 0.76232 0.68912 0.55195 0.0
C49 C 0.73541 0.66069 0.5447 0.0
C50 C 0.72376 0.64372 0.58777 0.0
C51 C 0.72057 0.64748 0.49255 0.0
C52 C 0.70834 0.67052 0.45158 0.0
C53 C 0.71823 0.61119 0.48368 0.0
C54 C 0.70373 0.5982 0.43549 0.0
C55 C 0.6914 0.62106 0.39441 0.0
C56 C 0.80843 0.72881 0.60881 0.0
C57 C 0.80652 0.75509 0.64559 0.0
C58 C 0.84013 0.72968 0.57914 0.0
C59 C 0.869 0.75627 0.58563 0.0
C60 C 0.86707 0.78277 0.62204 0.0
C61 C 0.83543 0.78193 0.65194 0.0
C62 C 0.69372 0.65744 0.40303 0.0
H63 H 0.69001 0.64978 0.79392 0.0
H64 H 0.7173 0.68145 0.72552 0.0
H65 H 0.73366 0.58331 0.65041 0.0
H66 H 0.70654 0.55167 0.71874 0.0
H67 H 0.77844 0.69049 0.68224 0.0
H68 H 0.70222 0.62237 0.58259 0.0
H69 H 0.77174 0.70221 0.519 0.0
H70 H 0.70951 0.69863 0.45721 0.0
H71 H 0.72785 0.59264 0.51406 0.0
H72 H 0.70177 0.57004 0.43064 0.0
H73 H 0.78234 0.7552 0.66892 0.0
H74 H 0.84282 0.70962 0.55097 0.0
H75 H 0.68462 0.67577 0.3722 0.0
H76 H 0.83308 0.80195 0.68026 0.0
H77 H 0.89247 0.75641 0.5612 0.0
C78 C 0.82046 0.10209 0.15731 0.0
C79 C 0.83331 0.1234 0.19975 0.0
C80 C 0.80698 0.11687 0.10957 0.0
C81 C 0.80618 0.15345 0.1026 0.0
C82 C 0.81918 0.17485 0.14493 0.0
C83 C 0.83262 0.16001 0.19289 0.0
C84 C 0.79243 0.16904 0.0512 0.0
C85 C 0.76909 0.19985 0.04632 0.0
C86 C 0.75732 0.21527 0.99813 0.0
C87 C 0.76875 0.1995 0.95454 0.0
C88 C 0.7914 0.16851 0.95833 0.0
C89 C 0.80305 0.15338 1.00668 0.0
C90 C 0.80377 0.15282 0.91158 0.0
C91 C 0.82075 0.17416 0.87662 0.0
C92 C 0.79809 0.11694 0.90095 0.0
C93 C 0.80863 0.10283 0.85568 0.0
C94 C 0.82548 0.12429 0.82041 0.0
C95 C 0.73328 0.24803 0.99296 0.0
C96 C 0.69836 0.25105 0.01648 0.0
C97 C 0.74498 0.27641 0.96394 0.0
C98 C 0.72268 0.30747 0.95949 0.0
C99 C 0.68783 0.31055 0.9832 0.0
C100 C 0.6757 0.2819 0.01135 0.0
C101 C 0.83172 0.16008 0.83192 0.0
H102 H 0.82117 0.07377 0.16075 0.0
H103 H 0.79689 0.09952 0.07813 0.0
H104 H 0.8195 0.20313 0.14091 0.0
H105 H 0.84206 0.17725 0.22468 0.0
H106 H 0.76023 0.21202 0.08001 0.0
H107 H 0.82161 0.13007 0.00964 0.0
H108 H 0.75934 0.21109 0.91728 0.0
H109 H 0.82608 0.20179 0.88421 0.0
H110 H 0.78479 0.09995 0.92717 0.0
H111 H 0.80314 0.07524 0.84813 0.0
H112 H 0.68849 0.22948 0.03869 0.0
H113 H 0.77187 0.27481 0.94553 0.0
H114 H 0.84579 0.17733 0.80679 0.0
H115 H 0.64929 0.28372 0.03069 0.0
H116 H 0.73277 0.32918 0.93774 0.0
C117 C 0.27008 0.42085 0.32026 0.0
C118 C 0.30725 0.43787 0.32067 0.0
C119 C 0.25877 0.40697 0.36537 0.0
C120 C 0.28483 0.40904 0.41175 0.0
C121 C 0.32129 0.42755 0.41229 0.0
C122 C 0.33219 0.44201 0.36732 0.0
C123 C 0.2753 0.38998 0.4583 0.0
C124 C 0.25604 0.35709 0.45356 0.0
C125 C 0.24811 0.338 0.49674 0.0
C126 C 0.26012 0.35203 0.54556 0.0
C127 C 0.27999 0.38461 0.55154 0.0
C128 C 0.28708 0.40348 0.50755 0.0
C129 C 0.29373 0.39877 0.60361 0.0
C130 C 0.29136 0.43485 0.61329 0.0
C131 C 0.30997 0.3765 0.64387 0.0
C132 C 0.32355 0.39 0.69238 0.0
C133 C 0.32136 0.42616 0.70189 0.0
C134 C 0.2281 0.30302 0.4907 0.0
C135 C 0.19596 0.29707 0.45164 0.0
C136 C 0.24121 0.2752 0.52382 0.0
C137 C 0.22236 0.24246 0.51857 0.0
C138 C 0.18995 0.23651 0.4799 0.0
C139 C 0.17709 0.26422 0.44632 0.0
C140 C 0.30515 0.44835 0.66153 0.0
H141 H 0.25028 0.41743 0.28473 0.0
H142 H 0.22999 0.3938 0.36355 0.0
H143 H 0.34247 0.4294 0.44686 0.0
H144 H 0.36131 0.45458 0.36849 0.0
H145 H 0.24849 0.34558 0.41614 0.0
H146 H 0.3023 0.42858 0.51169 0.0
H147 H 0.25335 0.33779 0.579 0.0
H148 H 0.27863 0.45282 0.58361 0.0
H149 H 0.31277 0.34861 0.63777 0.0
H150 H 0.33553 0.37204 0.72248 0.0
H151 H 0.18487 0.318 0.42566 0.0
H152 H 0.26619 0.27866 0.55386 0.0
H153 H 0.30357 0.47641 0.66688 0.0
H154 H 0.15233 0.26058 0.41604 0.0
H155 H 0.23265 0.22203 0.54583 0.0
O156 O 0.97678 0.04582 0.48738 0.0
Mn157 Mn 0.01146 0.02038 0.54965 0.0
O158 O 0.94995 1.00349 0.43431 0.0
Mn159 Mn 0.98329 0.96827 0.46316 0.0
O160 O 0.04609 0.99506 0.61171 0.0
O161 O 0.03699 0.06695 0.56929 0.0
Mn162 Mn 0.03987 0.07313 0.63554 0.0
O163 O 0.96537 0.02919 0.59479 0.0
O164 O 0.07242 0.03749 0.66507 0.0
O165 O 0.05785 0.01146 0.50526 0.0
O166 O 0.03542 0.9699 0.448 0.0
O167 O 0.06204 0.11282 0.61061 0.0
O168 O 0.98738 0.07258 0.64929 0.0
C169 C 0.9697 0.94312 0.53118 0.0
C170 C 0.9533 0.03555 0.44753 0.0
C171 C 0.06932 0.00545 0.65165 0.0
C172 C 0.05415 0.09718 0.56711 0.0
C173 C 0.96037 0.05112 0.63024 0.0
C174 C 0.06265 0.99064 0.46848 0.0
O175 O 0.98618 0.97372 0.52972 0.0
O176 O 0.96227 0.92784 0.48733 0.0
O177 O 0.54022 0.5487 0.11114 0.0
Mn178 Mn 0.50534 0.52421 0.04906 0.0
O179 O 0.56256 0.50564 0.16645 0.0
Mn180 Mn 0.53079 0.47024 0.13473 0.0
O181 O 0.47035 0.49949 0.98684 0.0
O182 O 0.48075 0.57095 0.02925 0.0
Mn183 Mn 0.47671 0.57742 0.96281 0.0
O184 O 0.55158 0.53359 1.00442 0.0
O185 O 0.44265 0.5424 0.93484 0.0
O186 O 0.45881 0.51551 0.09373 0.0
O187 O 0.47761 0.46973 0.1456 0.0
O188 O 0.45655 0.61747 0.98872 0.0
O189 O 0.52868 0.57545 0.94701 0.0
C190 C 0.54783 0.44719 0.06772 0.0
C191 C 0.56154 0.53771 0.15233 0.0
C192 C 0.44626 0.51019 0.94768 0.0
C193 C 0.46476 0.60142 0.03213 0.0
C194 C 0.55601 0.55468 0.96734 0.0
C195 C 0.45184 0.4924 0.12716 0.0
O196 O 0.53039 0.47729 0.06877 0.0
O197 O 0.55409 0.43109 0.1113 0.0
H198 H 0.10891 0.22498 0.46049 0.0
H199 H 0.22208 0.17065 0.49387 0.0
H200 H 0.18669 0.11661 0.51012 0.0
H201 H 0.1252 0.08936 0.53354 0.0
H202 H 0.01288 0.14453 0.50448 0.0
H203 H 0.04579 0.19291 0.46498 0.0
C204 C 0.12586 0.20109 0.46958 0.0
C205 C 0.16821 0.20224 0.47754 0.0
C206 C 0.1053 0.17009 0.47942 0.0
C207 C 0.18952 0.17087 0.48925 0.0
C208 C 0.1693 0.13984 0.49824 0.0
C209 C 0.10766 0.1111 0.51581 0.0
C210 C 0.0668 0.11349 0.52152 0.0
C211 C 0.12735 0.13966 0.49607 0.0
C212 C 0.0443 0.14202 0.49967 0.0
C213 C 0.06334 0.17001 0.47811 0.0
H214 H 0.41075 0.7272 0.14128 0.0
H215 H 0.29959 0.6686 0.11923 0.0
H216 H 0.33603 0.61583 0.10138 0.0
H217 H 0.39662 0.591 0.07251 0.0
H218 H 0.50653 0.65069 0.08985 0.0
H219 H 0.47417 0.69764 0.13179 0.0
C220 C 0.39459 0.70265 0.1344 0.0
C221 C 0.3523 0.70219 0.13001 0.0
C222 C 0.4157 0.67246 0.12339 0.0
C223 C 0.33199 0.67 0.12113 0.0
C224 C 0.35284 0.63972 0.11116 0.0
C225 C 0.41393 0.61345 0.08817 0.0
C226 C 0.45377 0.61754 0.07843 0.0
C227 C 0.39436 0.64118 0.10938 0.0
C228 C 0.47591 0.64693 0.09768 0.0
C229 C 0.45715 0.67407 0.12071 0.0
H230 H 0.85365 0.85309 0.63137 0.0
H231 H 0.94811 0.77792 0.62175 0.0
H232 H 0.99424 0.82514 0.6065 0.0
H233 H 1.00222 0.8853 0.57627 0.0
H234 H 0.90771 0.96038 0.58224 0.0
H235 H 0.86778 0.91628 0.62105 0.0
C236 C 0.88468 0.84713 0.62767 0.0
C237 C 0.89702 0.8119 0.626 0.0
C238 C 0.91106 0.87452 0.61827 0.0
C239 C 0.93746 0.80471 0.62147 0.0
C240 C 0.96395 0.83173 0.613 0.0
C241 C 0.97383 0.89243 0.58878 0.0
C242 C 0.95776 0.9258 0.57653 0.0
C243 C 0.9504 0.86646 0.60852 0.0
C244 C 0.92079 0.93487 0.592 0.0
C245 C 0.89763 0.9094 0.61317 0.0
H246 H 0.60712 0.32145 0.96157 0.0
H247 H 0.71963 0.37543 1.0039 0.0
H248 H 0.68365 0.42892 0.01996 0.0
H249 H 0.62097 0.45548 0.03983 0.0
H250 H 0.50886 0.40057 1.00227 0.0
H251 H 0.54337 0.35297 0.96444 0.0
C252 C 0.62365 0.34519 0.97326 0.0
C253 C 0.66591 0.34436 0.98251 0.0
C254 C 0.60271 0.37576 0.98303 0.0
C255 C 0.68709 0.37539 0.99675 0.0
C256 C 0.66651 0.40596 1.00613 0.0
C257 C 0.60394 0.43401 0.02065 0.0
C258 C 0.56254 0.43148 0.02335 0.0
C259 C 0.6244 0.40594 1.00164 0.0
C260 C 0.54069 0.40324 0.99971 0.0
C261 C 0.56059 0.37568 0.97912 0.0
H262 H 0.20711 0.93678 0.36786 0.0
H263 H 0.1484 1.0002 0.24412 0.0
H264 H 0.10487 0.02546 0.30095 0.0
H265 H 0.07578 0.02174 0.38128 0.0
H266 H 0.13168 0.95663 0.50412 0.0
H267 H 0.18436 0.94017 0.45282 0.0
C268 C 0.18519 0.95654 0.35363 0.0
C269 C 0.1807 0.96623 0.30165 0.0
C270 C 0.15966 0.97056 0.38641 0.0
C271 C 0.15265 0.99232 0.28393 0.0
C272 C 0.12749 0.00663 0.31634 0.0
C273 C 0.10051 0.00508 0.39736 0.0
C274 C 0.10042 0.99064 0.4463 0.0
C275 C 0.12972 0.99496 0.36705 0.0
C276 C 0.13181 0.96847 0.46675 0.0
C277 C 0.16153 0.95872 0.43715 0.0
H278 H 0.70183 0.60684 0.8652 0.0
H279 H 0.63824 0.54806 0.74035 0.0
H280 H 0.5938 0.5235 0.79708 0.0
H281 H 0.56632 0.52597 0.87832 0.0
H282 H 0.62688 0.58639 1.00264 0.0
H283 H 0.67953 0.60267 0.9506 0.0
C284 C 0.67855 0.58832 0.85066 0.0
C285 C 0.67321 0.57959 0.79846 0.0
C286 C 0.65253 0.57462 0.88347 0.0
C287 C 0.64329 0.55511 0.78035 0.0
C288 C 0.61761 0.54118 0.81271 0.0
C289 C 0.59196 0.54158 0.89447 0.0
C290 C 0.5933 0.55469 0.9441 0.0
C291 C 0.62113 0.55163 0.86383 0.0
C292 C 0.62591 0.57553 0.9647 0.0
C293 C 0.6556 0.58521 0.9347 0.0
H294 H 0.89647 0.14337 0.27144 0.0
H295 H 0.80112 0.06671 0.24322 0.0
H296 H 0.82758 0.03522 0.32074 0.0
H297 H 0.88098 0.02605 0.39176 0.0
H298 H 0.97641 0.10202 0.42244 0.0
H299 H 0.94595 0.13785 0.34991 0.0
C300 C 0.88104 0.12016 0.28272 0.0
C301 C 0.8473 0.10705 0.25058 0.0
C302 C 0.89636 0.10208 0.32791 0.0
C303 C 0.82779 0.07688 0.26611 0.0
C304 C 0.84272 0.05894 0.31075 0.0
C305 C 0.89476 0.05079 0.38314 0.0
C306 C 0.93106 0.06123 0.41211 0.0
C307 C 0.87751 0.07077 0.34115 0.0
C308 C 0.94834 0.0935 0.40089 0.0
C309 C 0.93114 0.11377 0.35907 0.0
H310 H 0.38753 0.40655 0.76919 0.0
H311 H 0.2882 0.47933 0.75095 0.0
H312 H 0.31617 0.50923 0.82873 0.0
H313 H 0.37188 0.51856 0.89693 0.0
H314 H 0.4706 0.44567 0.91826 0.0
H315 H 0.43905 0.41117 0.84544 0.0
C316 C 0.37151 0.42848 0.7827 0.0
C317 C 0.33622 0.44113 0.75315 0.0
C318 C 0.3876 0.44551 0.82817 0.0
C319 C 0.31605 0.46965 0.77166 0.0
C320 C 0.33184 0.48665 0.8165 0.0
C321 C 0.3861 0.4947 0.88624 0.0
C322 C 0.42363 0.48482 0.91254 0.0
C323 C 0.3681 0.47542 0.84422 0.0
C324 C 0.44159 0.45371 0.89873 0.0
C325 C 0.42374 0.43423 0.85675 0.0
H326 H 0.62695 0.6431 0.3263 0.0
H327 H 0.72163 0.56587 0.34711 0.0
H328 H 0.69163 0.53544 0.2707 0.0
H329 H 0.63502 0.52692 0.20369 0.0
H330 H 0.54055 0.60381 0.17965 0.0
H331 H 0.57447 0.63879 0.25062 0.0
C332 C 0.64146 0.62005 0.31351 0.0
C333 C 0.67599 0.60632 0.34333 0.0
C334 C 0.62404 0.60256 0.26902 0.0
C335 C 0.69441 0.57645 0.32593 0.0
C336 C 0.67741 0.55909 0.282 0.0
C337 C 0.62223 0.55168 0.21344 0.0
C338 C 0.58522 0.56265 0.18701 0.0
C339 C 0.64164 0.57128 0.25423 0.0
C340 C 0.56912 0.59493 0.19945 0.0
C341 C 0.58835 0.61472 0.2403 0.0
H342 H 0.85833 0.05977 0.80601 0.0
H343 H 0.82056 0.1558 0.7263 0.0
H344 H 0.85331 0.13789 0.65394 0.0
H345 H 0.9025 0.09995 0.62025 0.0
H346 H 0.93896 1.00342 0.69789 0.0
H347 H 0.89544 0.01571 0.76305 0.0
C348 C 0.85613 0.07638 0.77232 0.0
C349 C 0.83818 0.10976 0.77269 0.0
C350 C 0.87472 0.06573 0.73025 0.0
C351 C 0.83561 0.13066 0.72822 0.0
C352 C 0.85404 0.12032 0.68647 0.0
C353 C 0.89932 0.08089 0.65015 0.0
C354 C 0.92345 0.05078 0.65434 0.0
C355 C 0.87512 0.08863 0.688 0.0
C356 C 0.91998 0.02648 0.69362 0.0
C357 C 0.89564 0.03382 0.7313 0.0
H358 H 0.3371 0.50066 0.29201 0.0
H359 H 0.31278 0.39448 0.2415 0.0
H360 H 0.35017 0.40425 0.16953 0.0
H361 H 0.39913 0.43966 0.13025 0.0
H362 H 0.423 0.54618 0.17846 0.0
H363 H 0.37567 0.54015 0.2412 0.0
C364 C 0.3393 0.48003 0.26446 0.0
C365 C 0.32269 0.44679 0.27221 0.0
C366 C 0.36082 0.4859 0.22295 0.0
C367 C 0.3253 0.42028 0.23618 0.0
C368 C 0.34685 0.42578 0.19521 0.0
C369 C 0.39267 0.46191 0.1532 0.0
C370 C 0.41433 0.49323 0.15013 0.0
C371 C 0.36597 0.45802 0.18939 0.0
C372 C 0.40621 0.52195 0.18002 0.0
C373 C 0.37961 0.51831 0.21633 0.0
H374 H 0.12911 0.90057 0.82965 0.0
H375 H 0.22922 0.97302 0.84537 0.0
H376 H 0.20076 1.00333 0.76768 0.0
H377 H 0.1442 0.01337 0.70079 0.0
H378 H 0.0447 0.9408 0.68178 0.0
H379 H 0.07681 0.90569 0.75416 0.0
C380 C 0.14518 0.92249 0.81554 0.0
C381 C 0.18081 0.935 0.8444 0.0
C382 C 0.12875 0.9398 0.77019 0.0
C383 C 0.20112 0.96347 0.82515 0.0
C384 C 0.18502 0.98072 0.78041 0.0
C385 C 0.12994 0.98945 0.71188 0.0
C386 C 0.09204 0.97982 0.68647 0.0
C387 C 0.14832 0.96978 0.75355 0.0
C388 C 0.07399 0.94863 0.70072 0.0
C389 C 0.09218 0.92879 0.74241 0.0
loop_
_geom_bond_atom_site_label_1
_geom_bond_atom_site_label_2
_geom_bond_distance
_geom_bond_site_symmetry_2
_ccdc_geom_bond_type
C0 C1 1.386 . S
C0 C2 1.397 . S
C0 H24 0.931 . S
C1 C0 1.386 . S
C1 C5 1.397 . S
C2 C0 1.397 . S
C2 C3 1.384 . S
C2 H25 0.930 . S
C3 C2 1.384 . S
C3 C4 1.377 . S
C3 C6 1.481 1_556 S
C4 C3 1.377 . S
C4 C5 1.389 . S
C4 H26 0.929 1_556 S
C5 C1 1.397 . S
C5 C4 1.389 . S
C5 H27 0.931 . S
C6 C3 1.481 1_554 S
C6 C7 1.387 . S
C6 C11 1.390 . S
C7 C6 1.387 . S
C7 C8 1.401 . S
C7 H28 0.930 . S
C8 C7 1.401 . S
C8 C9 1.376 . S
C8 C17 1.511 . S
C9 C8 1.376 . S
C9 C10 1.392 . S
C9 H30 0.931 . S
C10 C9 1.392 . S
C10 C11 1.361 . S
C10 C12 1.500 . S
C11 C6 1.390 . S
C11 C10 1.361 . S
C11 H29 0.931 . S
C12 C10 1.500 . S
C12 C13 1.371 . S
C12 C14 1.365 . S
C13 C12 1.371 . S
C13 C23 1.386 . S
C13 H31 0.931 . S
C14 C12 1.365 . S
C14 C15 1.409 . S
C14 H32 0.929 . S
C15 C14 1.409 . S
C15 C16 1.380 . S
C15 H33 0.930 . S
C16 C15 1.380 . S
C16 C23 1.357 . S
C17 C8 1.511 . S
C17 C18 1.341 . S
C17 C19 1.371 . S
C18 C17 1.341 . S
C18 C22 1.394 . S
C18 H34 0.930 . S
C19 C17 1.371 . S
C19 C20 1.392 . S
C19 H35 0.931 . S
C20 C19 1.392 . S
C20 C21 1.331 . S
C20 H38 0.932 . S
C21 C20 1.331 . S
C21 C22 1.336 . S
C22 C18 1.394 . S
C22 C21 1.336 . S
C22 H37 0.929 . S
C23 C13 1.386 . S
C23 C16 1.357 . S
C23 H36 0.928 . S
H24 C0 0.931 . S
H25 C2 0.930 . S
H26 C4 0.929 1_554 S
H27 C5 0.931 . S
H28 C7 0.930 . S
H29 C11 0.931 . S
H30 C9 0.931 . S
H31 C13 0.931 . S
H32 C14 0.929 . S
H33 C15 0.930 . S
H34 C18 0.930 . S
H35 C19 0.931 . S
H36 C23 0.928 . S
H37 C22 0.929 . S
H38 C20 0.932 . S
C39 C40 1.386 . S
C39 C41 1.397 . S
C39 H63 0.931 . S
C40 C39 1.386 . S
C40 C44 1.397 . S
C41 C39 1.397 . S
C41 C42 1.384 . S
C41 H64 0.930 . S
C42 C41 1.384 . S
C42 C43 1.377 . S
C42 C45 1.481 . S
C43 C42 1.377 . S
C43 C44 1.389 . S
C43 H65 0.929 . S
C44 C40 1.397 . S
C44 C43 1.389 . S
C44 H66 0.931 . S
C45 C42 1.481 . S
C45 C46 1.387 . S
C45 C50 1.390 . S
C46 C45 1.387 . S
C46 C47 1.401 . S
C46 H67 0.930 . S
C47 C46 1.401 . S
C47 C48 1.376 . S
C47 C56 1.511 . S
C48 C47 1.376 . S
C48 C49 1.392 . S
C48 H69 0.931 . S
C49 C48 1.392 . S
C49 C50 1.361 . S
C49 C51 1.500 . S
C50 C45 1.390 . S
C50 C49 1.361 . S
C50 H68 0.931 . S
C51 C49 1.500 . S
C51 C52 1.371 . S
C51 C53 1.365 . S
C52 C51 1.371 . S
C52 C62 1.386 . S
C52 H70 0.931 . S
C53 C51 1.365 . S
C53 C54 1.409 . S
C53 H71 0.929 . S
C54 C53 1.409 . S
C54 C55 1.380 . S
C54 H72 0.930 . S
C55 C54 1.380 . S
C55 C62 1.357 . S
C56 C47 1.511 . S
C56 C57 1.341 . S
C56 C58 1.371 . S
C57 C56 1.341 . S
C57 C61 1.394 . S
C57 H73 0.930 . S
C58 C56 1.371 . S
C58 C59 1.392 . S
C58 H74 0.931 . S
C59 C58 1.392 . S
C59 C60 1.331 . S
C59 H77 0.932 . S
C60 C59 1.331 . S
C60 C61 1.336 . S
C61 C57 1.394 . S
C61 C60 1.336 . S
C61 H76 0.929 . S
C62 C52 1.386 . S
C62 C55 1.357 . S
C62 H75 0.928 . S
H63 C39 0.931 . S
H64 C41 0.930 . S
H65 C43 0.929 . S
H66 C44 0.931 . S
H67 C46 0.930 . S
H68 C50 0.931 . S
H69 C48 0.931 . S
H70 C52 0.931 . S
H71 C53 0.929 . S
H72 C54 0.930 . S
H73 C57 0.930 . S
H74 C58 0.931 . S
H75 C62 0.928 . S
H76 C61 0.929 . S
H77 C59 0.932 . S
C78 C79 1.386 . S
C78 C80 1.397 . S
C78 H102 0.931 . S
C79 C78 1.386 . S
C79 C83 1.397 . S
C80 C78 1.397 . S
C80 C81 1.384 . S
C80 H103 0.930 . S
C81 C80 1.384 . S
C81 C82 1.377 . S
C81 C84 1.481 . S
C82 C81 1.377 . S
C82 C83 1.389 . S
C82 H104 0.929 . S
C83 C79 1.397 . S
C83 C82 1.389 . S
C83 H105 0.931 . S
C84 C81 1.481 . S
C84 C85 1.387 . S
C84 C89 1.390 . S
C85 C84 1.387 . S
C85 C86 1.401 1_554 S
C85 H106 0.930 . S
C86 C85 1.401 1_556 S
C86 C87 1.376 . S
C86 C95 1.511 . S
C87 C86 1.376 . S
C87 C88 1.392 . S
C87 H108 0.931 . S
C88 C87 1.392 . S
C88 C89 1.361 1_556 S
C88 C90 1.500 . S
C89 C84 1.390 . S
C89 C88 1.361 1_554 S
C89 H107 0.931 . S
C90 C88 1.500 . S
C90 C91 1.371 . S
C90 C92 1.365 . S
C91 C90 1.371 . S
C91 C101 1.386 . S
C91 H109 0.931 . S
C92 C90 1.365 . S
C92 C93 1.409 . S
C92 H110 0.929 . S
C93 C92 1.409 . S
C93 C94 1.380 . S
C93 H111 0.930 . S
C94 C93 1.380 . S
C94 C101 1.357 . S
C95 C86 1.511 . S
C95 C96 1.341 1_556 S
C95 C97 1.371 . S
C96 C95 1.341 1_554 S
C96 C100 1.394 . S
C96 H112 0.930 . S
C97 C95 1.371 . S
C97 C98 1.392 . S
C97 H113 0.931 . S
C98 C97 1.392 . S
C98 C99 1.331 . S
C98 H116 0.932 . S
C99 C98 1.331 . S
C99 C100 1.336 1_556 S
C100 C96 1.394 . S
C100 C99 1.336 1_554 S
C100 H115 0.929 . S
C101 C91 1.386 . S
C101 C94 1.357 . S
C101 H114 0.928 . S
H102 C78 0.931 . S
H103 C80 0.930 . S
H104 C82 0.929 . S
H105 C83 0.931 . S
H106 C85 0.930 . S
H107 C89 0.931 . S
H108 C87 0.931 . S
H109 C91 0.931 . S
H110 C92 0.929 . S
H111 C93 0.930 . S
H112 C96 0.930 . S
H113 C97 0.931 . S
H114 C101 0.928 . S
H115 C100 0.929 . S
H116 C98 0.932 . S
C117 C118 1.386 . S
C117 C119 1.397 . S
C117 H141 0.931 . S
C118 C117 1.386 . S
C118 C122 1.397 . S
C119 C117 1.397 . S
C119 C120 1.384 . S
C119 H142 0.930 . S
C120 C119 1.384 . S
C120 C121 1.377 . S
C120 C123 1.481 . S
C121 C120 1.377 . S
C121 C122 1.389 . S
C121 H143 0.929 . S
C122 C118 1.397 . S
C122 C121 1.389 . S
C122 H144 0.931 . S
C123 C120 1.481 . S
C123 C124 1.387 . S
C123 C128 1.390 . S
C124 C123 1.387 . S
C124 C125 1.401 . S
C124 H145 0.930 . S
C125 C124 1.401 . S
C125 C126 1.376 . S
C125 C134 1.511 . S
C126 C125 1.376 . S
C126 C127 1.392 . S
C126 H147 0.931 . S
C127 C126 1.392 . S
C127 C128 1.361 . S
C127 C129 1.500 . S
C128 C123 1.390 . S
C128 C127 1.361 . S
C128 H146 0.931 . S
C129 C127 1.500 . S
C129 C130 1.371 . S
C129 C131 1.365 . S
C130 C129 1.371 . S
C130 C140 1.386 . S
C130 H148 0.931 . S
C131 C129 1.365 . S
C131 C132 1.409 . S
C131 H149 0.929 . S
C132 C131 1.409 . S
C132 C133 1.380 . S
C132 H150 0.930 . S
C133 C132 1.380 . S
C133 C140 1.357 . S
C134 C125 1.511 . S
C134 C135 1.341 . S
C134 C136 1.371 . S
C135 C134 1.341 . S
C135 C139 1.394 . S
C135 H151 0.930 . S
C136 C134 1.371 . S
C136 C137 1.392 . S
C136 H152 0.931 . S
C137 C136 1.392 . S
C137 C138 1.331 . S
C137 H155 0.932 . S
C138 C137 1.331 . S
C138 C139 1.336 . S
C139 C135 1.394 . S
C139 C138 1.336 . S
C139 H154 0.929 . S
C140 C130 1.386 . S
C140 C133 1.357 . S
C140 H153 0.928 . S
H141 C117 0.931 . S
H142 C119 0.930 . S
H143 C121 0.929 . S
H144 C122 0.931 . S
H145 C124 0.930 . S
H146 C128 0.931 . S
H147 C126 0.931 . S
H148 C130 0.931 . S
H149 C131 0.929 . S
H150 C132 0.930 . S
H151 C135 0.930 . S
H152 C136 0.931 . S
H153 C140 0.928 . S
H154 C139 0.929 . S
H155 C137 0.932 . S
O156 Mn157 2.163 1_655 S
O156 C170 1.244 . S
Mn157 O156 2.163 1_455 S
Mn157 O160 2.160 1_545 S
Mn157 O161 2.221 . S
Mn157 O163 2.163 1_455 S
Mn157 O165 2.160 1_545 S
Mn157 O175 2.221 1_445 S
O158 Mn159 2.087 1_545 S
O158 C170 1.256 . S
Mn159 O158 2.087 1_565 S
Mn159 O166 2.089 1_655 S
Mn159 O175 2.290 . S
Mn159 O176 2.251 . S
O160 Mn157 2.160 1_565 S
O160 C171 1.239 . S
O161 Mn157 2.221 . S
O161 Mn162 2.290 . S
O161 C172 1.278 . S
Mn162 O161 2.290 . S
Mn162 O164 2.089 . S
Mn162 O167 2.251 . S
Mn162 O168 2.087 1_455 S
O163 Mn157 2.163 1_655 S
O163 C173 1.244 . S
O164 Mn162 2.089 . S
O164 C171 1.256 1_545 S
O165 Mn157 2.160 1_565 S
O165 C174 1.239 . S
O166 Mn159 2.089 1_455 S
O166 C174 1.256 . S
O167 Mn162 2.251 . S
O167 C172 1.241 . S
O168 Mn162 2.087 1_655 S
O168 C173 1.256 . S
C169 O175 1.278 . S
C169 O176 1.241 . S
C170 O156 1.244 . S
C170 O158 1.256 . S
C171 O160 1.239 . S
C171 O164 1.256 1_565 S
C172 O161 1.278 . S
C172 O167 1.241 . S
C173 O163 1.244 . S
C173 O168 1.256 . S
C174 O165 1.239 . S
C174 O166 1.256 . S
O175 Mn157 2.221 1_665 S
O175 Mn159 2.290 . S
O175 C169 1.278 . S
O176 Mn159 2.251 . S
O176 C169 1.241 . S
O177 Mn178 2.163 . S
O177 C191 1.244 . S
Mn178 O177 2.163 . S
Mn178 O181 2.160 1_554 S
Mn178 O182 2.221 . S
Mn178 O184 2.163 1_554 S
Mn178 O186 2.160 . S
Mn178 O196 2.221 . S
O179 Mn180 2.087 . S
O179 C191 1.256 . S
Mn180 O179 2.087 . S
Mn180 O187 2.089 . S
Mn180 O196 2.290 . S
Mn180 O197 2.251 . S
O181 Mn178 2.160 1_556 S
O181 C192 1.239 . S
O182 Mn178 2.221 . S
O182 Mn183 2.290 1_554 S
O182 C193 1.278 . S
Mn183 O182 2.290 1_556 S
Mn183 O185 2.089 . S
Mn183 O188 2.251 . S
Mn183 O189 2.087 . S
O184 Mn178 2.163 1_556 S
O184 C194 1.244 . S
O185 Mn183 2.089 . S
O185 C192 1.256 . S
O186 Mn178 2.160 . S
O186 C195 1.239 . S
O187 Mn180 2.089 . S
O187 C195 1.256 . S
O188 Mn183 2.251 . S
O188 C193 1.241 1_556 S
O189 Mn183 2.087 . S
O189 C194 1.256 . S
C190 O196 1.278 . S
C190 O197 1.241 . S
C191 O177 1.244 . S
C191 O179 1.256 . S
C192 O181 1.239 . S
C192 O185 1.256 . S
C193 O182 1.278 . S
C193 O188 1.241 1_554 S
C194 O184 1.244 . S
C194 O189 1.256 . S
C195 O186 1.239 . S
C195 O187 1.256 . S
O196 Mn178 2.221 . S
O196 Mn180 2.290 . S
O196 C190 1.278 . S
O197 Mn180 2.251 . S
O197 C190 1.241 . S
H198 C204 0.930 . S
H199 C207 0.930 . S
H200 C208 0.930 . S
H201 C209 0.930 . S
H202 C212 0.930 . S
H203 C213 0.930 . S
C204 H198 0.930 . S
C204 C205 1.355 . S
C204 C206 1.415 . S
C205 C204 1.355 . S
C205 C207 1.419 . S
C206 C204 1.415 . S
C206 C211 1.425 . S
C206 C213 1.409 . S
C207 H199 0.930 . S
C207 C205 1.419 . S
C207 C208 1.362 . S
C208 H200 0.930 . S
C208 C207 1.362 . S
C208 C211 1.409 . S
C209 H201 0.930 . S
C209 C210 1.355 . S
C209 C211 1.415 . S
C210 C209 1.355 . S
C210 C212 1.419 . S
C211 C206 1.425 . S
C211 C208 1.409 . S
C211 C209 1.415 . S
C212 H202 0.930 . S
C212 C210 1.419 . S
C212 C213 1.362 . S
C213 H203 0.930 . S
C213 C206 1.409 . S
C213 C212 1.362 . S
H214 C220 0.930 . S
H215 C223 0.930 . S
H216 C224 0.930 . S
H217 C225 0.930 . S
H218 C228 0.930 . S
H219 C229 0.930 . S
C220 H214 0.930 . S
C220 C221 1.355 . S
C220 C222 1.415 . S
C221 C220 1.355 . S
C221 C223 1.419 . S
C222 C220 1.415 . S
C222 C227 1.425 . S
C222 C229 1.409 . S
C223 H215 0.930 . S
C223 C221 1.419 . S
C223 C224 1.362 . S
C224 H216 0.930 . S
C224 C223 1.362 . S
C224 C227 1.409 . S
C225 H217 0.930 . S
C225 C226 1.355 . S
C225 C227 1.415 . S
C226 C225 1.355 . S
C226 C228 1.419 . S
C227 C222 1.425 . S
C227 C224 1.409 . S
C227 C225 1.415 . S
C228 H218 0.930 . S
C228 C226 1.419 . S
C228 C229 1.362 . S
C229 H219 0.930 . S
C229 C222 1.409 . S
C229 C228 1.362 . S
H230 C236 0.930 . S
H231 C239 0.930 . S
H232 C240 0.930 . S
H233 C241 0.930 . S
H234 C244 0.930 . S
H235 C245 0.930 . S
C236 H230 0.930 . S
C236 C237 1.355 . S
C236 C238 1.415 . S
C237 C236 1.355 . S
C237 C239 1.419 . S
C238 C236 1.415 . S
C238 C243 1.425 . S
C238 C245 1.409 . S
C239 H231 0.930 . S
C239 C237 1.419 . S
C239 C240 1.362 . S
C240 H232 0.930 . S
C240 C239 1.362 . S
C240 C243 1.409 . S
C241 H233 0.930 . S
C241 C242 1.355 . S
C241 C243 1.415 . S
C242 C241 1.355 . S
C242 C244 1.419 . S
C243 C238 1.425 . S
C243 C240 1.409 . S
C243 C241 1.415 . S
C244 H234 0.930 . S
C244 C242 1.419 . S
C244 C245 1.362 . S
C245 H235 0.930 . S
C245 C238 1.409 . S
C245 C244 1.362 . S
H246 C252 0.930 . S
H247 C255 0.930 . S
H248 C256 0.930 . S
H249 C257 0.930 . S
H250 C260 0.930 . S
H251 C261 0.930 . S
C252 H246 0.930 . S
C252 C253 1.355 . S
C252 C254 1.415 . S
C253 C252 1.355 . S
C253 C255 1.419 1_556 S
C254 C252 1.415 . S
C254 C259 1.425 1_556 S
C254 C261 1.409 . S
C255 H247 0.930 . S
C255 C253 1.419 1_554 S
C255 C256 1.362 . S
C256 H248 0.930 . S
C256 C255 1.362 . S
C256 C259 1.409 . S
C257 H249 0.930 . S
C257 C258 1.355 . S
C257 C259 1.415 . S
C258 C257 1.355 . S
C258 C260 1.419 1_554 S
C259 C254 1.425 1_554 S
C259 C256 1.409 . S
C259 C257 1.415 . S
C260 H250 0.930 . S
C260 C258 1.419 1_556 S
C260 C261 1.362 . S
C261 H251 0.930 . S
C261 C254 1.409 . S
C261 C260 1.362 . S
H262 C268 0.930 . S
H263 C271 0.930 . S
H264 C272 0.930 . S
H265 C273 0.930 . S
H266 C276 0.930 . S
H267 C277 0.930 . S
C268 H262 0.930 . S
C268 C269 1.355 . S
C268 C270 1.415 . S
C269 C268 1.355 . S
C269 C271 1.419 . S
C270 C268 1.415 . S
C270 C275 1.425 . S
C270 C277 1.409 . S
C271 H263 0.930 . S
C271 C269 1.419 . S
C271 C272 1.362 . S
C272 H264 0.930 . S
C272 C271 1.362 . S
C272 C275 1.409 . S
C273 H265 0.930 . S
C273 C274 1.355 . S
C273 C275 1.415 . S
C274 C273 1.355 . S
C274 C276 1.419 . S
C275 C270 1.425 . S
C275 C272 1.409 . S
C275 C273 1.415 . S
C276 H266 0.930 . S
C276 C274 1.419 . S
C276 C277 1.362 . S
C277 H267 0.930 . S
C277 C270 1.409 . S
C277 C276 1.362 . S
H278 C284 0.930 . S
H279 C287 0.930 . S
H280 C288 0.930 . S
H281 C289 0.930 . S
H282 C292 0.930 . S
H283 C293 0.930 . S
C284 H278 0.930 . S
C284 C285 1.355 . S
C284 C286 1.415 . S
C285 C284 1.355 . S
C285 C287 1.419 . S
C286 C284 1.415 . S
C286 C291 1.425 . S
C286 C293 1.409 . S
C287 H279 0.930 . S
C287 C285 1.419 . S
C287 C288 1.362 . S
C288 H280 0.930 . S
C288 C287 1.362 . S
C288 C291 1.409 . S
C289 H281 0.930 . S
C289 C290 1.355 . S
C289 C291 1.415 . S
C290 C289 1.355 . S
C290 C292 1.419 . S
C291 C286 1.425 . S
C291 C288 1.409 . S
C291 C289 1.415 . S
C292 H282 0.930 . S
C292 C290 1.419 . S
C292 C293 1.362 . S
C293 H283 0.930 . S
C293 C286 1.409 . S
C293 C292 1.362 . S
H294 C300 0.930 . S
H295 C303 0.930 . S
H296 C304 0.930 . S
H297 C305 0.930 . S
H298 C308 0.930 . S
H299 C309 0.930 . S
C300 H294 0.930 . S
C300 C301 1.355 . S
C300 C302 1.415 . S
C301 C300 1.355 . S
C301 C303 1.419 . S
C302 C300 1.415 . S
C302 C307 1.425 . S
C302 C309 1.409 . S
C303 H295 0.930 . S
C303 C301 1.419 . S
C303 C304 1.362 . S
C304 H296 0.930 . S
C304 C303 1.362 . S
C304 C307 1.409 . S
C305 H297 0.930 . S
C305 C306 1.355 . S
C305 C307 1.415 . S
C306 C305 1.355 . S
C306 C308 1.419 . S
C307 C302 1.425 . S
C307 C304 1.409 . S
C307 C305 1.415 . S
C308 H298 0.930 . S
C308 C306 1.419 . S
C308 C309 1.362 . S
C309 H299 0.930 . S
C309 C302 1.409 . S
C309 C308 1.362 . S
H310 C316 0.930 . S
H311 C319 0.930 . S
H312 C320 0.930 . S
H313 C321 0.930 . S
H314 C324 0.930 . S
H315 C325 0.930 . S
C316 H310 0.930 . S
C316 C317 1.355 . S
C316 C318 1.415 . S
C317 C316 1.355 . S
C317 C319 1.419 . S
C318 C316 1.415 . S
C318 C323 1.425 . S
C318 C325 1.409 . S
C319 H311 0.930 . S
C319 C317 1.419 . S
C319 C320 1.362 . S
C320 H312 0.930 . S
C320 C319 1.362 . S
C320 C323 1.409 . S
C321 H313 0.930 . S
C321 C322 1.355 . S
C321 C323 1.415 . S
C322 C321 1.355 . S
C322 C324 1.419 . S
C323 C318 1.425 . S
C323 C320 1.409 . S
C323 C321 1.415 . S
C324 H314 0.930 . S
C324 C322 1.419 . S
C324 C325 1.362 . S
C325 H315 0.930 . S
C325 C318 1.409 . S
C325 C324 1.362 . S
H326 C332 0.930 . S
H327 C335 0.930 . S
H328 C336 0.930 . S
H329 C337 0.930 . S
H330 C340 0.930 . S
H331 C341 0.930 . S
C332 H326 0.930 . S
C332 C333 1.355 . S
C332 C334 1.415 . S
C333 C332 1.355 . S
C333 C335 1.419 . S
C334 C332 1.415 . S
C334 C339 1.425 . S
C334 C341 1.409 . S
C335 H327 0.930 . S
C335 C333 1.419 . S
C335 C336 1.362 . S
C336 H328 0.930 . S
C336 C335 1.362 . S
C336 C339 1.409 . S
C337 H329 0.930 . S
C337 C338 1.355 . S
C337 C339 1.415 . S
C338 C337 1.355 . S
C338 C340 1.419 . S
C339 C334 1.425 . S
C339 C336 1.409 . S
C339 C337 1.415 . S
C340 H330 0.930 . S
C340 C338 1.419 . S
C340 C341 1.362 . S
C341 H331 0.930 . S
C341 C334 1.409 . S
C341 C340 1.362 . S
H342 C348 0.930 . S
H343 C351 0.930 . S
H344 C352 0.930 . S
H345 C353 0.930 . S
H346 C356 0.930 . S
H347 C357 0.930 . S
C348 H342 0.930 . S
C348 C349 1.355 . S
C348 C350 1.415 . S
C349 C348 1.355 . S
C349 C351 1.419 . S
C350 C348 1.415 . S
C350 C355 1.425 . S
C350 C357 1.409 . S
C351 H343 0.930 . S
C351 C349 1.419 . S
C351 C352 1.362 . S
C352 H344 0.930 . S
C352 C351 1.362 . S
C352 C355 1.409 . S
C353 H345 0.930 . S
C353 C354 1.355 . S
C353 C355 1.415 . S
C354 C353 1.355 . S
C354 C356 1.419 . S
C355 C350 1.425 . S
C355 C352 1.409 . S
C355 C353 1.415 . S
C356 H346 0.930 . S
C356 C354 1.419 . S
C356 C357 1.362 . S
C357 H347 0.930 . S
C357 C350 1.409 . S
C357 C356 1.362 . S
H358 C364 0.930 . S
H359 C367 0.930 . S
H360 C368 0.930 . S
H361 C369 0.930 . S
H362 C372 0.930 . S
H363 C373 0.930 . S
C364 H358 0.930 . S
C364 C365 1.355 . S
C364 C366 1.415 . S
C365 C364 1.355 . S
C365 C367 1.419 . S
C366 C364 1.415 . S
C366 C371 1.425 . S
C366 C373 1.409 . S
C367 H359 0.930 . S
C367 C365 1.419 . S
C367 C368 1.362 . S
C368 H360 0.930 . S
C368 C367 1.362 . S
C368 C371 1.409 . S
C369 H361 0.930 . S
C369 C370 1.355 . S
C369 C371 1.415 . S
C370 C369 1.355 . S
C370 C372 1.419 . S
C371 C366 1.425 . S
C371 C368 1.409 . S
C371 C369 1.415 . S
C372 H362 0.930 . S
C372 C370 1.419 . S
C372 C373 1.362 . S
C373 H363 0.930 . S
C373 C366 1.409 . S
C373 C372 1.362 . S
H374 C380 0.930 . S
H375 C383 0.930 . S
H376 C384 0.930 . S
H377 C385 0.930 . S
H378 C388 0.930 . S
H379 C389 0.930 . S
C380 H374 0.930 . S
C380 C381 1.355 . S
C380 C382 1.415 . S
C381 C380 1.355 . S
C381 C383 1.419 . S
C382 C380 1.415 . S
C382 C387 1.425 . S
C382 C389 1.409 . S
C383 H375 0.930 . S
C383 C381 1.419 . S
C383 C384 1.362 . S
C384 H376 0.930 . S
C384 C383 1.362 . S
C384 C387 1.409 . S
C385 H377 0.930 . S
C385 C386 1.355 . S
C385 C387 1.415 . S
C386 C385 1.355 . S
C386 C388 1.419 . S
C387 C382 1.425 . S
C387 C384 1.409 . S
C387 C385 1.415 . S
C388 H378 0.930 . S
C388 C386 1.419 . S
C388 C389 1.362 . S
C389 H379 0.930 . S
C389 C382 1.409 . S
C389 C388 1.362 . S
C210 C172 1.358 . S
C205 C138 1.517 . S
C221 C21 1.496 . S
C226 C193 1.391 . S
C237 C60 1.688 . S
C242 C169 1.489 . S
C253 C99 1.658 . S
C258 C190 1.507 . S
C274 C174 1.674 . S
C269 C16 1.605 . S
C290 C194 1.591 . S
C285 C40 1.586 . S
C301 C79 1.599 . S
C306 C170 1.532 . S
C317 C133 1.608 . S
C322 C192 1.516 . S
C338 C191 1.552 . S
C333 C55 1.592 . S
C354 C173 1.584 . S
C349 C94 1.621 . S
C370 C195 1.640 . S
C365 C118 1.662 . S
C381 C1 1.617 . S
C386 C171 1.528 . S
