# Generated by pormake.
# Topology tsx, (6,3)-cn, num edge types: 1
# Building blocks:
#     Node 0, Type 0, BuildingBlock: MIDCAF_clean_sbu_0, # of connection points: 6
#     Node 1, Type 0, BuildingBlock: MIDCAF_clean_sbu_0, # of connection points: 6
#     Node 2, Type 1, BuildingBlock: INOVEN_clean_linker_0, # of connection points: 3
#     Node 3, Type 1, BuildingBlock: INOVEN_clean_linker_0, # of connection points: 3
#     Node 4, Type 1, BuildingBlock: INOVEN_clean_linker_0, # of connection points: 3
#     Node 5, Type 1, BuildingBlock: INOVEN_clean_linker_0, # of connection points: 3
#     Edge 6, Type (0, 1), BuildingBlock: TEMPAE_clean_linker_10, # of connection points: 2
#     Edge 7, Type (0, 1), BuildingBlock: TEMPAE_clean_linker_10, # of connection points: 2
#     Edge 8, Type (0, 1), BuildingBlock: TEMPAE_clean_linker_10, # of connection points: 2
#     Edge 9, Type (0, 1), BuildingBlock: TEMPAE_clean_linker_10, # of connection points: 2
#     Edge 10, Type (0, 1), BuildingBlock: TEMPAE_clean_linker_10, # of connection points: 2
#     Edge 11, Type (0, 1), BuildingBlock: TEMPAE_clean_linker_10, # of connection points: 2
#     Edge 12, Type (0, 1), BuildingBlock: TEMPAE_clean_linker_10, # of connection points: 2
#     Edge 13, Type (0, 1), BuildingBlock: TEMPAE_clean_linker_10, # of connection points: 2
#     Edge 14, Type (0, 1), BuildingBlock: TEMPAE_clean_linker_10, # of connection points: 2
#     Edge 15, Type (0, 1), BuildingBlock: TEMPAE_clean_linker_10, # of connection points: 2
#     Edge 16, Type (0, 1), BuildingBlock: TEMPAE_clean_linker_10, # of connection points: 2
#     Edge 17, Type (0, 1), BuildingBlock: TEMPAE_clean_linker_10, # of connection points: 2
# Relax obj value: 0.076
# Max RMSD: 0.148
# Mean RMSD: 0.105
data_MOF--net-tsx--node1-MIDCAF_clean_sbu_0--node2-INOVEN_clean_linker_0--edge1-TEMPAE_clean_linker_10
_symmetry_space_group_name_H-M    P1
_symmetry_Int_Tables_number       1
_symmetry_cell_setting            triclinic
loop_
_symmetry_equiv_pos_as_xyz
'x, y, z'
_cell_length_a     20.357294
_cell_length_b     20.957536
_cell_length_c     35.758773
_cell_angle_alpha  90.444433
_cell_angle_beta   103.5391
_cell_angle_gamma 90.044361
loop_
_atom_site_label
_atom_site_type_symbol
_atom_site_fract_x
_atom_site_fract_y
_atom_site_fract_z
_atom_type_partial_charge
Zn0 Zn 0.92239 0.02741 0.95026 0.0
Zn1 Zn 0.14367 0.02345 0.06335 0.0
Zn2 Zn 0.0346 0.02809 0.00573 0.0
C3 C 0.11629 0.15223 0.04615 0.0
C4 C 0.17667 0.96178 0.00142 0.0
O5 O 0.95287 0.97669 0.02443 0.0
O6 O 0.86066 0.98431 0.97745 0.0
C7 C 0.95756 0.15517 0.96843 0.0
O8 O 0.06959 0.12736 0.01933 0.0
O9 O 0.15302 0.11717 0.07113 0.0
O10 O 0.20412 0.98065 0.03504 0.0
O11 O 0.11418 0.97452 0.98631 0.0
O12 O 0.91629 0.12119 0.94458 0.0
O13 O 0.00519 0.12889 0.99371 0.0
O14 O 0.05765 0.98021 0.95498 0.0
O15 O 0.95901 0.97735 0.91281 0.0
C16 C 0.02126 0.96438 0.92164 0.0
O17 O 0.00921 0.9811 0.0557 0.0
O18 O 0.10569 0.97184 0.0993 0.0
C19 C 0.88974 0.96455 0.0104 0.0
C20 C 0.0429 0.96206 0.08881 0.0
Zn21 Zn 0.67335 0.5344 0.55734 0.0
Zn22 Zn 0.43996 0.53344 0.45651 0.0
Zn23 Zn 0.55627 0.53591 0.50701 0.0
C24 C 0.53034 0.47035 0.42225 0.0
C25 C 0.47246 0.66163 0.47163 0.0
O26 O 0.54085 0.49144 0.56043 0.0
O27 O 0.64324 0.49015 0.59874 0.0
C28 C 0.69292 0.46441 0.49567 0.0
O29 O 0.5707 0.48619 0.45447 0.0
O30 O 0.46839 0.48395 0.41609 0.0
O31 O 0.42925 0.62638 0.44994 0.0
O32 O 0.52374 0.63679 0.49511 0.0
O33 O 0.7267 0.48521 0.5276 0.0
O34 O 0.62997 0.4791 0.48376 0.0
O35 O 0.59092 0.6367 0.51712 0.0
O36 O 0.68625 0.62758 0.5617 0.0
C37 C 0.6432 0.66207 0.53981 0.0
O38 O 0.48119 0.48382 0.53132 0.0
O39 O 0.38495 0.4894 0.48715 0.0
C40 C 0.581 0.47769 0.59292 0.0
C41 C 0.41779 0.47046 0.51954 0.0
H42 H 0.09554 0.02325 0.46046 0.0
H43 H 0.12384 0.90442 0.36664 0.0
H44 H 0.95719 0.03409 0.349 0.0
N45 N 0.98637 0.08405 0.4207 0.0
N46 N 0.94585 0.11846 0.39792 0.0
C47 C 0.07894 0.00684 0.43094 0.0
C48 C 0.11554 0.95929 0.41669 0.0
C49 C 0.02144 0.03402 0.4067 0.0
C50 C 1.00059 0.01279 0.36827 0.0
C51 C 0.0373 0.96614 0.35392 0.0
C52 C 0.09443 0.93941 0.37816 0.0
H53 H 0.01587 0.02957 0.55528 0.0
H54 H 0.99574 0.90723 0.64835 0.0
H55 H 0.14645 0.05409 0.66829 0.0
N56 N 0.11909 0.09834 0.59574 0.0
N57 N 0.1573 0.13527 0.61849 0.0
C58 C 0.03267 0.0146 0.58492 0.0
C59 C 1.00009 0.96366 0.59865 0.0
C60 C 0.08632 0.04695 0.60974 0.0
C61 C 0.10647 0.0285 0.64849 0.0
C62 C 0.0745 0.9778 0.66225 0.0
C63 C 0.0222 0.9449 0.63719 0.0
H64 H 0.60519 0.53941 0.96564 0.0
H65 H 0.62481 0.41963 0.87034 0.0
H66 H 0.47403 0.56575 0.85323 0.0
N67 N 0.50124 0.60784 0.92657 0.0
N68 N 0.4635 0.64534 0.9045 0.0
C69 C 0.58837 0.5253 0.93569 0.0
C70 C 0.62076 0.47511 0.92091 0.0
C71 C 0.53468 0.5578 0.91152 0.0
C72 C 0.51441 0.54027 0.87244 0.0
C73 C 0.54623 0.4902 0.85767 0.0
C74 C 0.59863 0.45713 0.88207 0.0
H75 H 0.48536 0.52231 0.05117 0.0
H76 H 0.47865 0.3997 0.14645 0.0
H77 H 0.62529 0.55001 0.16088 0.0
N78 N 0.58904 0.5937 0.08845 0.0
N79 N 0.62504 0.63339 0.11025 0.0
C80 C 0.50553 0.5077 0.08062 0.0
C81 C 0.47632 0.45609 0.09582 0.0
C82 C 0.55989 0.54141 0.10382 0.0
C83 C 0.58443 0.52347 0.14238 0.0
C84 C 0.55581 0.4721 0.15766 0.0
C85 C 0.50264 0.43787 0.13414 0.0
C86 C 0.16436 0.25171 0.07911 0.0
C87 C 0.13716 0.2193 0.0446 0.0
C88 C 0.20854 0.30332 0.08019 0.0
C89 C 0.22678 0.32194 0.04597 0.0
C90 C 0.19239 0.29484 0.01033 0.0
C91 C 0.1473 0.24382 0.01002 0.0
C92 C 0.24209 0.33235 0.11871 0.0
C93 C 0.20912 0.31419 0.97309 0.0
C94 C 0.35402 0.45793 0.06219 0.0
C95 C 0.41455 0.42387 0.07371 0.0
C96 C 0.29192 0.42572 0.04997 0.0
C97 C 0.29092 0.35814 0.04922 0.0
C98 C 0.35278 0.32409 0.0575 0.0
C99 C 0.41376 0.35741 0.06995 0.0
C100 C 0.22747 0.46395 0.04107 0.0
C101 C 0.35441 0.25204 0.05634 0.0
H102 H 0.15591 0.23305 0.10581 0.0
H103 H 0.12621 0.21877 0.98324 0.0
H104 H 0.29449 0.31401 0.12795 0.0
H105 H 0.24503 0.385 0.11668 0.0
H106 H 0.21468 0.32037 0.14121 0.0
H107 H 0.16764 0.30145 0.94792 0.0
H108 H 0.21912 0.36619 0.97271 0.0
H109 H 0.25549 0.28889 0.97006 0.0
H110 H 0.35469 0.50945 0.06536 0.0
H111 H 0.46074 0.33127 0.07876 0.0
H112 H 0.20649 0.46609 0.06703 0.0
H113 H 0.18883 0.4415 0.01756 0.0
H114 H 0.23663 0.51362 0.03286 0.0
H115 H 0.33415 0.23276 0.08022 0.0
H116 H 0.40642 0.23338 0.05926 0.0
H117 H 0.32207 0.23376 0.02897 0.0
C118 C 0.18743 0.86673 0.96112 0.0
C119 C 0.21633 0.92138 0.9811 0.0
C120 C 0.22729 0.82305 0.94638 0.0
C121 C 0.29743 0.83485 0.95165 0.0
C122 C 0.32604 0.89167 0.97016 0.0
C123 C 0.2852 0.93395 0.98509 0.0
C124 C 0.19499 0.76294 0.92681 0.0
C125 C 0.40022 0.90674 0.97539 0.0
C126 C 0.41591 0.69407 0.95521 0.0
C127 C 0.42549 0.69359 0.91765 0.0
C128 C 0.37383 0.73967 0.96654 0.0
C129 C 0.34167 0.78614 0.93984 0.0
C130 C 0.35215 0.78616 0.90211 0.0
C131 C 0.39362 0.7394 0.89145 0.0
C132 C 0.36292 0.73753 0.00686 0.0
C133 C 0.31985 0.83563 0.87312 0.0
H134 H 0.13427 0.85676 0.95851 0.0
H135 H 0.30736 0.97643 0.00052 0.0
H136 H 0.20655 0.75724 0.89817 0.0
H137 H 0.21616 0.72089 0.94418 0.0
H138 H 0.13923 0.76284 0.92302 0.0
H139 H 0.41319 0.95544 0.98736 0.0
H140 H 0.43086 0.87174 0.9952 0.0
H141 H 0.41489 0.90267 0.94748 0.0
H142 H 0.43997 0.65804 0.97539 0.0
H143 H 0.40124 0.73829 0.86244 0.0
H144 H 0.30824 0.73222 0.00573 0.0
H145 H 0.37997 0.78296 0.0222 0.0
H146 H 0.39056 0.69756 0.02382 0.0
H147 H 0.26439 0.83642 0.87013 0.0
H148 H 0.33003 0.82683 0.84433 0.0
H149 H 0.3394 0.88365 0.88336 0.0
C150 C 0.88369 0.86974 0.05089 0.0
C151 C 0.85204 0.92282 0.03097 0.0
C152 C 0.84644 0.82456 0.06606 0.0
C153 C 0.77588 0.8329 0.06107 0.0
C154 C 0.74424 0.88797 0.04243 0.0
C155 C 0.78268 0.93203 0.02723 0.0
C156 C 0.88204 0.76639 0.08568 0.0
C157 C 0.66942 0.89924 0.03739 0.0
C158 C 0.6669 0.6852 0.05874 0.0
C159 C 0.65871 0.68422 0.09657 0.0
C160 C 0.70508 0.73347 0.04684 0.0
C161 C 0.73457 0.78217 0.07323 0.0
C162 C 0.72521 0.78184 0.1112 0.0
C163 C 0.6878 0.73235 0.12245 0.0
C164 C 0.71507 0.73157 0.0063 0.0
C165 C 0.75482 0.83357 0.13989 0.0
H166 H 0.93698 0.86173 0.05288 0.0
H167 H 0.75825 0.97317 0.01176 0.0
H168 H 0.87102 0.76038 0.11439 0.0
H169 H 0.8631 0.72313 0.0684 0.0
H170 H 0.93771 0.76921 0.08938 0.0
H171 H 0.65387 0.94715 0.02545 0.0
H172 H 0.64052 0.86262 0.01764 0.0
H173 H 0.65521 0.89459 0.06537 0.0
H174 H 0.64504 0.64745 0.03881 0.0
H175 H 0.6813 0.73086 0.15167 0.0
H176 H 0.76981 0.72894 0.00704 0.0
H177 H 0.69549 0.776 0.99104 0.0
H178 H 0.6892 0.69016 0.9895 0.0
H179 H 0.81045 0.83582 0.14373 0.0
H180 H 0.74344 0.82589 0.16843 0.0
H181 H 0.73445 0.88066 0.12889 0.0
C182 C 0.93802 0.25184 0.00514 0.0
C183 C 0.94217 0.22366 0.9701 0.0
C184 C 0.8976 0.30614 0.00572 0.0
C185 C 0.86149 0.33237 0.97048 0.0
C186 C 0.87403 0.30943 0.93543 0.0
C187 C 0.91398 0.25504 0.93569 0.0
C188 C 0.88746 0.33041 0.04376 0.0
C189 C 0.83835 0.33702 0.89717 0.0
C190 C 0.67762 0.37741 0.95076 0.0
C191 C 0.68064 0.44291 0.94437 0.0
C192 C 0.73678 0.34181 0.96328 0.0
C193 C 0.80054 0.3725 0.96887 0.0
C194 C 0.80353 0.43974 0.96587 0.0
C195 C 0.74322 0.47433 0.95356 0.0
C196 C 0.73091 0.27037 0.96683 0.0
C197 C 0.87011 0.47457 0.97212 0.0
H198 H 0.96002 0.22767 0.03184 0.0
H199 H 0.91793 0.23352 0.90862 0.0
H200 H 0.88047 0.38291 0.04341 0.0
H201 H 0.84131 0.30823 0.04948 0.0
H202 H 0.93089 0.31788 0.06773 0.0
H203 H 0.86104 0.32039 0.87344 0.0
H204 H 0.78444 0.32226 0.89037 0.0
H205 H 0.84 0.38989 0.89827 0.0
H206 H 0.62901 0.35339 0.94353 0.0
H207 H 0.74535 0.5251 0.9483 0.0
H208 H 0.76445 0.2536 0.99402 0.0
H209 H 0.74708 0.24643 0.94268 0.0
H210 H 0.67834 0.25516 0.96614 0.0
H211 H 0.90915 0.4521 0.99513 0.0
H212 H 0.8648 0.52551 0.97972 0.0
H213 H 0.88824 0.47283 0.94519 0.0
C214 C 0.68377 0.76366 0.57208 0.0
C215 C 0.66057 0.72984 0.53763 0.0
C216 C 0.72815 0.81538 0.5741 0.0
C217 C 0.75065 0.83267 0.54094 0.0
C218 C 0.71994 0.80428 0.50499 0.0
C219 C 0.67473 0.753 0.50372 0.0
C220 C 0.75779 0.84557 0.61286 0.0
C221 C 0.74101 0.82239 0.46878 0.0
C222 C 0.88005 0.96702 0.5608 0.0
C223 C 0.93949 0.93221 0.57456 0.0
C224 C 0.81797 0.93555 0.54658 0.0
C225 C 0.81586 0.86797 0.54619 0.0
C226 C 0.87704 0.83311 0.55679 0.0
C227 C 0.93796 0.86569 0.57106 0.0
C228 C 0.7544 0.97468 0.53511 0.0
C229 C 0.87766 0.76101 0.5562 0.0
H230 H 0.67264 0.74561 0.59828 0.0
H231 H 0.657 0.72655 0.47706 0.0
H232 H 0.80974 0.82721 0.62412 0.0
H233 H 0.76121 0.89811 0.61035 0.0
H234 H 0.72736 0.83458 0.63407 0.0
H235 H 0.70179 0.80893 0.44268 0.0
H236 H 0.75112 0.87435 0.46819 0.0
H237 H 0.78833 0.79692 0.46773 0.0
H238 H 0.88122 0.01857 0.5637 0.0
H239 H 0.98411 0.83895 0.58157 0.0
H240 H 0.73069 0.97881 0.55997 0.0
H241 H 0.7172 0.95184 0.51105 0.0
H242 H 0.7655 0.02364 0.52653 0.0
H243 H 0.85373 0.7427 0.57888 0.0
H244 H 0.92973 0.74155 0.56133 0.0
H245 H 0.84807 0.74254 0.52814 0.0
C246 C 0.79377 0.42572 0.47439 0.0
C247 C 0.72532 0.41861 0.47426 0.0
C248 C 0.82823 0.37816 0.45896 0.0
C249 C 0.79366 0.32157 0.4439 0.0
C250 C 0.72378 0.31526 0.44236 0.0
C251 C 0.6903 0.36411 0.45749 0.0
C252 C 0.90224 0.38747 0.46011 0.0
C253 C 0.68518 0.25564 0.42652 0.0
C254 C 0.87489 0.21168 0.38294 0.0
C255 C 0.90842 0.16817 0.41024 0.0
C256 C 0.83696 0.26181 0.39333 0.0
C257 C 0.83173 0.26764 0.43196 0.0
C258 C 0.86456 0.22284 0.45962 0.0
C259 C 0.90311 0.17379 0.4485 0.0
C260 C 0.80382 0.30925 0.36319 0.0
C261 C 0.85903 0.22678 0.50096 0.0
H262 H 0.82071 0.46806 0.48732 0.0
H263 H 0.63752 0.35835 0.45784 0.0
H264 H 0.93276 0.35282 0.48024 0.0
H265 H 0.91189 0.37825 0.43127 0.0
H266 H 0.92003 0.43641 0.46956 0.0
H267 H 0.63022 0.26012 0.42494 0.0
H268 H 0.69222 0.24461 0.39733 0.0
H269 H 0.70511 0.21456 0.44513 0.0
H270 H 0.87926 0.20671 0.35342 0.0
H271 H 0.92841 0.13959 0.46957 0.0
H272 H 0.8287 0.35646 0.36986 0.0
H273 H 0.74984 0.31556 0.36342 0.0
H274 H 0.80722 0.29451 0.3338 0.0
H275 H 0.88157 0.27219 0.51418 0.0
H276 H 0.88494 0.18654 0.51843 0.0
H277 H 0.80508 0.2267 0.50223 0.0
C278 C 0.41687 0.37407 0.55968 0.0
C279 C 0.38364 0.428 0.54163 0.0
C280 C 0.38157 0.32768 0.5753 0.0
C281 C 0.31161 0.33587 0.57285 0.0
C282 C 0.27889 0.39213 0.55661 0.0
C283 C 0.3152 0.43726 0.54079 0.0
C284 C 0.41827 0.26838 0.59247 0.0
C285 C 0.20482 0.40338 0.55439 0.0
C286 C 0.20028 0.1892 0.56802 0.0
C287 C 0.19363 0.18545 0.60608 0.0
C288 C 0.23934 0.23763 0.557 0.0
C289 C 0.27148 0.28364 0.58455 0.0
C290 C 0.26442 0.28009 0.62291 0.0
C291 C 0.22587 0.23058 0.63321 0.0
C292 C 0.24666 0.23927 0.51595 0.0
C293 C 0.29688 0.32889 0.65288 0.0
H294 H 0.46966 0.36662 0.55989 0.0
H295 H 0.28965 0.47917 0.52688 0.0
H296 H 0.40927 0.25953 0.62141 0.0
H297 H 0.39844 0.22647 0.57411 0.0
H298 H 0.47362 0.27176 0.59503 0.0
H299 H 0.18877 0.45227 0.54447 0.0
H300 H 0.17404 0.3685 0.53412 0.0
H301 H 0.19358 0.39598 0.58294 0.0
H302 H 0.17596 0.15377 0.54709 0.0
H303 H 0.22053 0.22702 0.66258 0.0
H304 H 0.30092 0.2375 0.51543 0.0
H305 H 0.22601 0.28462 0.50229 0.0
H306 H 0.22008 0.1989 0.4984 0.0
H307 H 0.35152 0.33356 0.65385 0.0
H308 H 0.29093 0.31653 0.68206 0.0
H309 H 0.27369 0.37629 0.64506 0.0
C310 C 0.42902 0.76069 0.43818 0.0
C311 C 0.45583 0.72984 0.47296 0.0
C312 C 0.38536 0.81275 0.43661 0.0
C313 C 0.36751 0.83371 0.47068 0.0
C314 C 0.40219 0.8086 0.50657 0.0
C315 C 0.4464 0.75671 0.50732 0.0
C316 C 0.35137 0.83926 0.39776 0.0
C317 C 0.38646 0.83096 0.54367 0.0
C318 C 0.23749 0.96679 0.45093 0.0
C319 C 0.17773 0.93094 0.44052 0.0
C320 C 0.30028 0.93651 0.4643 0.0
C321 C 0.30277 0.86909 0.46704 0.0
C322 C 0.24159 0.83369 0.45988 0.0
C323 C 0.17993 0.86507 0.44649 0.0
C324 C 0.36384 0.97631 0.47228 0.0
C325 C 0.24137 0.76183 0.46298 0.0
H326 H 0.43666 0.73996 0.41163 0.0
H327 H 0.46707 0.73278 0.53429 0.0
H328 H 0.29879 0.82084 0.38911 0.0
H329 H 0.34884 0.89205 0.39899 0.0
H330 H 0.37819 0.82532 0.37524 0.0
H331 H 0.42853 0.82005 0.56876 0.0
H332 H 0.37643 0.88302 0.54316 0.0
H333 H 0.34044 0.80612 0.54763 0.0
H334 H 0.23568 0.01783 0.44605 0.0
H335 H 0.13353 0.83758 0.43838 0.0
H336 H 0.38391 0.97781 0.44601 0.0
H337 H 0.4035 0.95573 0.49575 0.0
H338 H 0.35368 0.02614 0.48012 0.0
H339 H 0.26236 0.74044 0.43979 0.0
H340 H 0.1897 0.74237 0.46039 0.0
H341 H 0.27372 0.74655 0.49089 0.0
C342 C 0.95946 0.97555 0.12849 0.0
C343 C 0.00843 0.93771 0.11752 0.0
C344 C 0.94599 0.96838 0.16497 0.0
C345 C 0.98152 0.9215 0.19011 0.0
C346 C 0.0212 0.87597 0.17601 0.0
C347 C 0.03564 0.88557 0.14004 0.0
C348 C 0.90187 0.0169 0.17851 0.0
C349 C 0.05614 0.82258 0.20096 0.0
C350 C 0.06458 0.97782 0.29075 0.0
C351 C 0.02207 0.95251 0.31235 0.0
C352 C 0.05088 0.96861 0.25094 0.0
C353 C 0.9939 0.93168 0.23236 0.0
C354 C 0.95122 0.90494 0.25427 0.0
C355 C 0.96524 0.91673 0.29418 0.0
C356 C 0.09762 0.99872 0.22883 0.0
C357 C 0.89076 0.86451 0.23584 0.0
H358 H 0.93794 0.01551 0.11069 0.0
H359 H 0.07255 0.85554 0.131 0.0
H360 H 0.86991 0.99387 0.19575 0.0
H361 H 0.93438 0.05272 0.19721 0.0
H362 H 0.86874 0.04224 0.15403 0.0
H363 H 0.07044 0.78335 0.18337 0.0
H364 H 0.10289 0.84123 0.22054 0.0
H365 H 0.02328 0.80304 0.21891 0.0
H366 H 0.10814 0.00588 0.30511 0.0
H367 H 0.93234 0.89755 0.31121 0.0
H368 H 0.06833 0.02856 0.20524 0.0
H369 H 0.12321 0.96097 0.21562 0.0
H370 H 0.13704 0.02911 0.24742 0.0
H371 H 0.84764 0.89602 0.22327 0.0
H372 H 0.87509 0.83336 0.25723 0.0
H373 H 0.90119 0.83419 0.21232 0.0
C374 C 0.01073 0.90487 0.86043 0.0
C375 C 0.05179 0.93863 0.89114 0.0
C376 C 0.02947 0.89797 0.82539 0.0
C377 C 0.09131 0.92461 0.82138 0.0
C378 C 0.13746 0.94973 0.8541 0.0
C379 C 0.11653 0.95783 0.88856 0.0
C380 C 0.97923 0.86949 0.79148 0.0
C381 C 0.20586 0.97449 0.8517 0.0
C382 C 0.11501 0.90781 0.71951 0.0
C383 C 0.08823 0.96592 0.70389 0.0
C384 C 0.12197 0.89517 0.75881 0.0
C385 C 0.09867 0.9407 0.78219 0.0
C386 C 0.07368 0.00031 0.76648 0.0
C387 C 0.06971 0.0124 0.72763 0.0
C388 C 0.15165 0.83222 0.77453 0.0
C389 C 0.04715 0.05006 0.79001 0.0
H390 H 0.96115 0.88878 0.86265 0.0
H391 H 0.14856 0.9841 0.91212 0.0
H392 H 0.95822 0.90782 0.77087 0.0
H393 H 0.00436 0.83443 0.77615 0.0
H394 H 0.93667 0.84533 0.80025 0.0
H395 H 0.24209 0.97305 0.88025 0.0
H396 H 0.22663 0.94633 0.8307 0.0
H397 H 0.20115 0.02481 0.84206 0.0
H398 H 0.12972 0.87211 0.70094 0.0
H399 H 0.04883 0.05717 0.71522 0.0
H400 H 0.11143 0.79526 0.76896 0.0
H401 H 0.17384 0.83467 0.80596 0.0
H402 H 0.19135 0.81656 0.75982 0.0
H403 H 1.00428 0.03009 0.80049 0.0
H404 H 0.02951 0.09378 0.7733 0.0
H405 H 0.08713 0.06392 0.81556 0.0
C406 C 0.60044 0.42308 0.65577 0.0
C407 C 0.55544 0.45362 0.62556 0.0
C408 C 0.58526 0.41623 0.6917 0.0
C409 C 0.52279 0.43913 0.69716 0.0
C410 C 0.47329 0.46116 0.66521 0.0
C411 C 0.49087 0.46993 0.6299 0.0
C412 C 0.63918 0.39128 0.72479 0.0
C413 C 0.40411 0.48118 0.66914 0.0
C414 C 0.50742 0.41879 0.80018 0.0
C415 C 0.53101 0.47828 0.81585 0.0
C416 C 0.49865 0.40651 0.7606 0.0
C417 C 0.51686 0.45404 0.73689 0.0
C418 C 0.53851 0.51492 0.75268 0.0
C419 C 0.54438 0.52645 0.79188 0.0
C420 C 0.47261 0.34193 0.74492 0.0
C421 C 0.55962 0.56684 0.72875 0.0
H422 H 0.64996 0.40914 0.65226 0.0
H423 H 0.45589 0.49397 0.60686 0.0
H424 H 0.65806 0.43077 0.74539 0.0
H425 H 0.61796 0.3541 0.74047 0.0
H426 H 0.68271 0.37066 0.71509 0.0
H427 H 0.3665 0.47736 0.64113 0.0
H428 H 0.38692 0.45152 0.69064 0.0
H429 H 0.40587 0.53165 0.67892 0.0
H430 H 0.49656 0.38177 0.81889 0.0
H431 H 0.5628 0.57233 0.80429 0.0
H432 H 0.51512 0.30755 0.74988 0.0
H433 H 0.44915 0.34316 0.71363 0.0
H434 H 0.43483 0.32369 0.76017 0.0
H435 H 0.60267 0.55014 0.71712 0.0
H436 H 0.57509 0.6114 0.74555 0.0
H437 H 0.51742 0.57826 0.70395 0.0
C438 C 0.62029 0.45746 0.38548 0.0
C439 C 0.55552 0.44279 0.39015 0.0
C440 C 0.63726 0.44625 0.35013 0.0
C441 C 0.587 0.42347 0.3185 0.0
C442 C 0.52452 0.40159 0.32448 0.0
C443 C 0.5099 0.41085 0.36045 0.0
C444 C 0.70654 0.4649 0.34571 0.0
C445 C 0.46988 0.3756 0.29179 0.0
C446 C 0.56293 0.50958 0.22413 0.0
C447 C 0.57402 0.46084 0.19947 0.0
C448 C 0.57059 0.49864 0.26342 0.0
C449 C 0.5918 0.43773 0.27861 0.0
C450 C 0.60795 0.38963 0.25419 0.0
C451 C 0.59735 0.40134 0.21455 0.0
C452 C 0.55156 0.55121 0.28808 0.0
C453 C 0.63364 0.32502 0.26917 0.0
H454 H 0.65586 0.48234 0.40816 0.0
H455 H 0.46028 0.39802 0.36427 0.0
H456 H 0.72268 0.43404 0.32413 0.0
H457 H 0.70558 0.51499 0.3358 0.0
H458 H 0.74448 0.46156 0.37359 0.0
H459 H 0.42642 0.35595 0.30191 0.0
H460 H 0.45107 0.41426 0.27099 0.0
H461 H 0.4904 0.3374 0.27622 0.0
H462 H 0.54458 0.55543 0.21223 0.0
H463 H 0.60643 0.36384 0.19533 0.0
H464 H 0.59492 0.5628 0.31234 0.0
H465 H 0.50926 0.53514 0.30048 0.0
H466 H 0.53585 0.59558 0.27162 0.0
H467 H 0.65718 0.32608 0.30047 0.0
H468 H 0.6713 0.30695 0.25367 0.0
H469 H 0.59098 0.29059 0.26377 0.0
loop_
_geom_bond_atom_site_label_1
_geom_bond_atom_site_label_2
_geom_bond_distance
_geom_bond_site_symmetry_2
_ccdc_geom_bond_type
Zn0 O6 1.920 1_545 S
Zn0 O12 1.898 . S
Zn0 O15 1.905 1_545 S
Zn1 O9 1.905 . S
Zn1 O10 1.898 1_545 S
Zn1 O18 1.920 1_545 S
Zn2 O5 2.080 1_445 S
Zn2 O8 2.114 . S
Zn2 O11 2.120 1_545 S
Zn2 O13 2.120 1_455 S
Zn2 O14 2.114 1_554 S
Zn2 O17 2.080 . S
C3 O8 1.166 . S
C3 O9 1.182 . S
C4 O10 1.167 . S
C4 O11 1.299 . S
O5 Zn2 2.080 1_665 S
O5 C19 1.305 . S
O6 Zn0 1.920 1_565 S
O6 C19 1.234 1_556 S
C7 O12 1.167 . S
C7 O13 1.299 1_556 S
O8 Zn2 2.114 . S
O8 C3 1.166 . S
O9 Zn1 1.905 . S
O9 C3 1.182 . S
O10 Zn1 1.898 1_565 S
O10 C4 1.167 . S
O11 Zn2 2.120 1_565 S
O11 C4 1.299 . S
O12 Zn0 1.898 . S
O12 C7 1.167 . S
O13 Zn2 2.120 1_655 S
O13 C7 1.299 1_554 S
O14 Zn2 2.114 1_556 S
O14 C16 1.163 1_445 S
O15 Zn0 1.905 1_565 S
O15 C16 1.190 . S
C16 O14 1.163 1_665 S
C16 O15 1.190 . S
O17 Zn2 2.080 . S
O17 C20 1.305 1_545 S
O18 Zn1 1.920 1_565 S
O18 C20 1.234 . S
C19 O5 1.305 . S
C19 O6 1.234 1_554 S
C20 O17 1.305 1_565 S
C20 O18 1.234 . S
Zn21 O27 1.920 . S
Zn21 O33 1.898 . S
Zn21 O36 1.905 . S
Zn22 O30 1.905 . S
Zn22 O31 1.898 . S
Zn22 O39 1.920 . S
Zn23 O26 2.080 . S
Zn23 O29 2.114 . S
Zn23 O32 2.120 . S
Zn23 O34 2.120 . S
Zn23 O35 2.114 . S
Zn23 O38 2.080 . S
C24 O29 1.166 . S
C24 O30 1.182 . S
C25 O31 1.167 . S
C25 O32 1.299 . S
O26 Zn23 2.080 . S
O26 C40 1.305 . S
O27 Zn21 1.920 . S
O27 C40 1.234 . S
C28 O33 1.167 . S
C28 O34 1.299 . S
O29 Zn23 2.114 . S
O29 C24 1.166 . S
O30 Zn22 1.905 . S
O30 C24 1.182 . S
O31 Zn22 1.898 . S
O31 C25 1.167 . S
O32 Zn23 2.120 . S
O32 C25 1.299 . S
O33 Zn21 1.898 . S
O33 C28 1.167 . S
O34 Zn23 2.120 . S
O34 C28 1.299 . S
O35 Zn23 2.114 . S
O35 C37 1.166 . S
O36 Zn21 1.905 . S
O36 C37 1.182 . S
C37 O35 1.166 . S
C37 O36 1.182 . S
O38 Zn23 2.080 . S
O38 C41 1.305 . S
O39 Zn22 1.920 . S
O39 C41 1.234 . S
C40 O26 1.305 . S
C40 O27 1.234 . S
C41 O38 1.305 . S
C41 O39 1.234 . S
H42 C47 0.929 1_565 S
H43 C52 0.931 . S
H44 C50 0.930 . S
N45 N46 1.234 . S
N45 C49 1.453 . S
N46 N45 1.234 . S
C47 H42 0.929 1_545 S
C47 C48 1.373 1_545 S
C47 C49 1.368 . S
C48 C47 1.373 1_565 S
C48 C52 1.397 . S
C49 N45 1.453 . S
C49 C47 1.368 . S
C49 C50 1.373 . S
C50 H44 0.930 . S
C50 C49 1.373 . S
C50 C51 1.371 . S
C51 C50 1.371 . S
C51 C52 1.383 1_545 S
C52 H43 0.931 . S
C52 C48 1.397 . S
C52 C51 1.383 1_565 S
H53 C58 0.926 1_565 S
H54 C63 0.931 . S
H55 C61 0.930 . S
N56 N57 1.234 . S
N56 C60 1.453 . S
N57 N56 1.234 . S
C58 H53 0.926 1_545 S
C58 C59 1.365 1_545 S
C58 C60 1.380 1_655 S
C59 C58 1.365 1_565 S
C59 C63 1.397 . S
C60 N56 1.453 . S
C60 C58 1.380 1_455 S
C60 C61 1.373 . S
C61 H55 0.930 . S
C61 C60 1.373 . S
C61 C62 1.371 1_455 S
C62 C61 1.371 1_655 S
C62 C63 1.383 1_545 S
C63 H54 0.931 . S
C63 C59 1.397 . S
C63 C62 1.383 1_565 S
H64 C69 0.929 . S
H65 C74 0.931 . S
H66 C72 0.930 . S
N67 N68 1.234 . S
N67 C71 1.453 . S
N68 N67 1.234 . S
C69 H64 0.929 . S
C69 C70 1.373 . S
C69 C71 1.368 . S
C70 C69 1.373 . S
C70 C74 1.397 . S
C71 N67 1.453 . S
C71 C69 1.368 . S
C71 C72 1.373 . S
C72 H66 0.930 . S
C72 C71 1.373 . S
C72 C73 1.371 . S
C73 C72 1.371 . S
C73 C74 1.383 . S
C74 H65 0.931 . S
C74 C70 1.397 . S
C74 C73 1.383 . S
H75 C80 0.929 . S
H76 C85 0.931 . S
H77 C83 0.930 . S
N78 N79 1.234 . S
N78 C82 1.453 . S
N79 N78 1.234 . S
C80 H75 0.929 . S
C80 C81 1.373 . S
C80 C82 1.368 . S
C81 C80 1.373 . S
C81 C85 1.397 . S
C82 N78 1.453 . S
C82 C80 1.368 . S
C82 C83 1.373 . S
C83 H77 0.930 . S
C83 C82 1.373 . S
C83 C84 1.371 . S
C84 C83 1.371 . S
C84 C85 1.383 . S
C85 H76 0.931 . S
C85 C81 1.397 . S
C85 C84 1.383 . S
C86 C87 1.391 . S
C86 C88 1.394 . S
C86 H102 0.931 . S
C87 C86 1.391 . S
C87 C91 1.376 . S
C88 C86 1.394 . S
C88 C89 1.369 . S
C88 C92 1.531 . S
C89 C88 1.369 . S
C89 C90 1.410 . S
C89 C97 1.503 . S
C90 C89 1.410 . S
C90 C91 1.392 . S
C90 C93 1.511 . S
C91 C87 1.376 . S
C91 C90 1.392 . S
C91 H103 0.923 1_554 S
C92 C88 1.531 . S
C92 H104 0.960 . S
C92 H105 0.962 . S
C92 H106 0.960 . S
C93 C90 1.511 . S
C93 H107 0.961 1_554 S
C93 H108 0.961 . S
C93 H109 0.961 . S
C94 C95 1.370 . S
C94 C96 1.363 . S
C94 H110 0.931 . S
C95 C94 1.370 . S
C95 C99 1.408 . S
C96 C94 1.363 . S
C96 C97 1.370 . S
C96 C100 1.524 . S
C97 C89 1.503 . S
C97 C96 1.370 . S
C97 C98 1.403 . S
C98 C97 1.403 . S
C98 C99 1.404 . S
C98 C101 1.539 . S
C99 C95 1.408 . S
C99 C98 1.404 . S
C99 H111 0.930 . S
C100 C96 1.524 . S
C100 H112 0.956 . S
C100 H113 0.961 1_554 S
C100 H114 0.961 1_554 S
C101 C98 1.539 . S
C101 H115 0.958 . S
C101 H116 0.961 . S
C101 H117 0.960 . S
H102 C86 0.931 . S
H103 C91 0.923 1_556 S
H104 C92 0.960 . S
H105 C92 0.962 . S
H106 C92 0.960 . S
H107 C93 0.961 1_556 S
H108 C93 0.961 . S
H109 C93 0.961 . S
H110 C94 0.931 . S
H111 C99 0.930 . S
H112 C100 0.956 . S
H113 C100 0.961 1_556 S
H114 C100 0.961 1_556 S
H115 C101 0.958 . S
H116 C101 0.961 . S
H117 C101 0.960 . S
C118 C119 1.391 . S
C118 C120 1.394 . S
C118 H134 0.931 . S
C119 C118 1.391 . S
C119 C123 1.376 1_556 S
C120 C118 1.394 . S
C120 C121 1.369 . S
C120 C124 1.531 . S
C121 C120 1.369 . S
C121 C122 1.410 1_556 S
C121 C129 1.503 . S
C122 C121 1.410 1_554 S
C122 C123 1.392 . S
C122 C125 1.511 . S
C123 C119 1.376 1_554 S
C123 C122 1.392 . S
C123 H135 0.929 . S
C124 C120 1.531 . S
C124 H136 0.960 . S
C124 H137 0.962 . S
C124 H138 0.960 . S
C125 C122 1.511 . S
C125 H139 0.961 . S
C125 H140 0.961 . S
C125 H141 0.961 . S
C126 C127 1.370 . S
C126 C128 1.363 . S
C126 H142 0.931 . S
C127 C126 1.370 . S
C127 C131 1.408 . S
C128 C126 1.363 . S
C128 C129 1.370 . S
C128 C132 1.524 1_556 S
C129 C121 1.503 . S
C129 C128 1.370 . S
C129 C130 1.403 . S
C130 C129 1.403 . S
C130 C131 1.404 . S
C130 C133 1.539 . S
C131 C127 1.408 . S
C131 C130 1.404 . S
C131 H143 0.930 . S
C132 C128 1.524 1_554 S
C132 H144 0.956 1_554 S
C132 H145 0.961 . S
C132 H146 0.961 . S
C133 C130 1.539 . S
C133 H147 0.958 . S
C133 H148 0.961 . S
C133 H149 0.960 . S
H134 C118 0.931 . S
H135 C123 0.929 . S
H136 C124 0.960 . S
H137 C124 0.962 . S
H138 C124 0.960 . S
H139 C125 0.961 . S
H140 C125 0.961 . S
H141 C125 0.961 . S
H142 C126 0.931 . S
H143 C131 0.930 . S
H144 C132 0.956 1_556 S
H145 C132 0.961 . S
H146 C132 0.961 . S
H147 C133 0.958 . S
H148 C133 0.961 . S
H149 C133 0.960 . S
C150 C151 1.391 . S
C150 C152 1.394 . S
C150 H166 0.931 . S
C151 C150 1.391 . S
C151 C155 1.376 . S
C152 C150 1.394 . S
C152 C153 1.369 . S
C152 C156 1.531 . S
C153 C152 1.369 . S
C153 C154 1.410 . S
C153 C161 1.503 . S
C154 C153 1.410 . S
C154 C155 1.392 . S
C154 C157 1.511 1_554 S
C155 C151 1.376 . S
C155 C154 1.392 . S
C155 H167 0.929 1_554 S
C156 C152 1.531 . S
C156 H168 0.960 . S
C156 H169 0.962 . S
C156 H170 0.960 . S
C157 C154 1.511 1_556 S
C157 H171 0.961 . S
C157 H172 0.961 . S
C157 H173 0.961 . S
C158 C159 1.370 . S
C158 C160 1.363 . S
C158 H174 0.931 . S
C159 C158 1.370 . S
C159 C163 1.408 . S
C160 C158 1.363 . S
C160 C161 1.370 . S
C160 C164 1.524 . S
C161 C153 1.503 . S
C161 C160 1.370 . S
C161 C162 1.403 . S
C162 C161 1.403 . S
C162 C163 1.404 . S
C162 C165 1.539 . S
C163 C159 1.408 . S
C163 C162 1.404 . S
C163 H175 0.930 . S
C164 C160 1.524 . S
C164 H176 0.956 . S
C164 H177 0.961 1_554 S
C164 H178 0.961 1_554 S
C165 C162 1.539 . S
C165 H179 0.958 . S
C165 H180 0.961 . S
C165 H181 0.960 . S
H166 C150 0.931 . S
H167 C155 0.929 1_556 S
H168 C156 0.960 . S
H169 C156 0.962 . S
H170 C156 0.960 . S
H171 C157 0.961 . S
H172 C157 0.961 . S
H173 C157 0.961 . S
H174 C158 0.931 . S
H175 C163 0.930 . S
H176 C164 0.956 . S
H177 C164 0.961 1_556 S
H178 C164 0.961 1_556 S
H179 C165 0.958 . S
H180 C165 0.961 . S
H181 C165 0.960 . S
C182 C183 1.391 . S
C182 C184 1.394 . S
C182 H198 0.931 1_556 S
C183 C182 1.391 . S
C183 C187 1.376 . S
C184 C182 1.394 . S
C184 C185 1.369 . S
C184 C188 1.531 . S
C185 C184 1.369 . S
C185 C186 1.410 . S
C185 C193 1.503 . S
C186 C185 1.410 . S
C186 C187 1.392 . S
C186 C189 1.511 . S
C187 C183 1.376 . S
C187 C186 1.392 . S
C187 H199 0.929 . S
C188 C184 1.531 . S
C188 H200 0.960 . S
C188 H201 0.962 1_556 S
C188 H202 0.960 . S
C189 C186 1.511 . S
C189 H203 0.961 . S
C189 H204 0.961 . S
C189 H205 0.961 . S
C190 C191 1.370 . S
C190 C192 1.363 . S
C190 H206 0.931 . S
C191 C190 1.370 . S
C191 C195 1.408 . S
C192 C190 1.363 . S
C192 C193 1.370 . S
C192 C196 1.524 1_556 S
C193 C185 1.503 . S
C193 C192 1.370 . S
C193 C194 1.403 . S
C194 C193 1.403 . S
C194 C195 1.404 . S
C194 C197 1.539 . S
C195 C191 1.408 . S
C195 C194 1.404 . S
C195 H207 0.930 . S
C196 C192 1.524 1_554 S
C196 H208 0.956 . S
C196 H209 0.961 . S
C196 H210 0.961 . S
C197 C194 1.539 . S
C197 H211 0.958 . S
C197 H212 0.961 . S
C197 H213 0.960 . S
H198 C182 0.931 1_554 S
H199 C187 0.929 . S
H200 C188 0.960 . S
H201 C188 0.962 1_554 S
H202 C188 0.960 . S
H203 C189 0.961 . S
H204 C189 0.961 . S
H205 C189 0.961 . S
H206 C190 0.931 . S
H207 C195 0.930 . S
H208 C196 0.956 . S
H209 C196 0.961 . S
H210 C196 0.961 . S
H211 C197 0.958 . S
H212 C197 0.961 . S
H213 C197 0.960 . S
C214 C215 1.391 . S
C214 C216 1.394 . S
C214 H230 0.931 . S
C215 C214 1.391 . S
C215 C219 1.376 . S
C216 C214 1.394 . S
C216 C217 1.369 . S
C216 C220 1.531 . S
C217 C216 1.369 . S
C217 C218 1.410 . S
C217 C225 1.503 . S
C218 C217 1.410 . S
C218 C219 1.392 . S
C218 C221 1.511 . S
C219 C215 1.376 . S
C219 C218 1.392 . S
C219 H231 0.929 . S
C220 C216 1.531 . S
C220 H232 0.960 . S
C220 H233 0.962 . S
C220 H234 0.960 . S
C221 C218 1.511 . S
C221 H235 0.961 . S
C221 H236 0.961 . S
C221 H237 0.961 . S
C222 C223 1.370 . S
C222 C224 1.363 . S
C222 H238 0.931 . S
C223 C222 1.370 . S
C223 C227 1.408 . S
C224 C222 1.363 . S
C224 C225 1.370 . S
C224 C228 1.524 . S
C225 C217 1.503 . S
C225 C224 1.370 . S
C225 C226 1.403 . S
C226 C225 1.403 . S
C226 C227 1.404 . S
C226 C229 1.539 . S
C227 C223 1.408 . S
C227 C226 1.404 . S
C227 H239 0.930 . S
C228 C224 1.524 . S
C228 H240 0.956 . S
C228 H241 0.961 . S
C228 H242 0.961 . S
C229 C226 1.539 . S
C229 H243 0.958 . S
C229 H244 0.961 . S
C229 H245 0.960 . S
H230 C214 0.931 . S
H231 C219 0.929 . S
H232 C220 0.960 . S
H233 C220 0.962 . S
H234 C220 0.960 . S
H235 C221 0.961 . S
H236 C221 0.961 . S
H237 C221 0.961 . S
H238 C222 0.931 . S
H239 C227 0.930 . S
H240 C228 0.956 . S
H241 C228 0.961 . S
H242 C228 0.961 . S
H243 C229 0.958 . S
H244 C229 0.961 . S
H245 C229 0.960 . S
C246 C247 1.391 . S
C246 C248 1.394 . S
C246 H262 0.931 . S
C247 C246 1.391 . S
C247 C251 1.376 . S
C248 C246 1.394 . S
C248 C249 1.369 . S
C248 C252 1.531 . S
C249 C248 1.369 . S
C249 C250 1.410 . S
C249 C257 1.503 . S
C250 C249 1.410 . S
C250 C251 1.392 . S
C250 C253 1.511 . S
C251 C247 1.376 . S
C251 C250 1.392 . S
C251 H263 0.929 . S
C252 C248 1.531 . S
C252 H264 0.960 . S
C252 H265 0.962 . S
C252 H266 0.960 . S
C253 C250 1.511 . S
C253 H267 0.961 . S
C253 H268 0.961 . S
C253 H269 0.961 . S
C254 C255 1.370 . S
C254 C256 1.363 . S
C254 H270 0.931 . S
C255 C254 1.370 . S
C255 C259 1.408 . S
C256 C254 1.363 . S
C256 C257 1.370 . S
C256 C260 1.524 . S
C257 C249 1.503 . S
C257 C256 1.370 . S
C257 C258 1.403 . S
C258 C257 1.403 . S
C258 C259 1.404 . S
C258 C261 1.539 . S
C259 C255 1.408 . S
C259 C258 1.404 . S
C259 H271 0.930 . S
C260 C256 1.524 . S
C260 H272 0.956 . S
C260 H273 0.961 . S
C260 H274 0.961 . S
C261 C258 1.539 . S
C261 H275 0.958 . S
C261 H276 0.961 . S
C261 H277 0.960 . S
H262 C246 0.931 . S
H263 C251 0.929 . S
H264 C252 0.960 . S
H265 C252 0.962 . S
H266 C252 0.960 . S
H267 C253 0.961 . S
H268 C253 0.961 . S
H269 C253 0.961 . S
H270 C254 0.931 . S
H271 C259 0.930 . S
H272 C260 0.956 . S
H273 C260 0.961 . S
H274 C260 0.961 . S
H275 C261 0.958 . S
H276 C261 0.961 . S
H277 C261 0.960 . S
C278 C279 1.391 . S
C278 C280 1.394 . S
C278 H294 0.931 . S
C279 C278 1.391 . S
C279 C283 1.376 . S
C280 C278 1.394 . S
C280 C281 1.369 . S
C280 C284 1.531 . S
C281 C280 1.369 . S
C281 C282 1.410 . S
C281 C289 1.503 . S
C282 C281 1.410 . S
C282 C283 1.392 . S
C282 C285 1.511 . S
C283 C279 1.376 . S
C283 C282 1.392 . S
C283 H295 0.929 . S
C284 C280 1.531 . S
C284 H296 0.960 . S
C284 H297 0.962 . S
C284 H298 0.960 . S
C285 C282 1.511 . S
C285 H299 0.961 . S
C285 H300 0.961 . S
C285 H301 0.961 . S
C286 C287 1.370 . S
C286 C288 1.363 . S
C286 H302 0.931 . S
C287 C286 1.370 . S
C287 C291 1.408 . S
C288 C286 1.363 . S
C288 C289 1.370 . S
C288 C292 1.524 . S
C289 C281 1.503 . S
C289 C288 1.370 . S
C289 C290 1.403 . S
C290 C289 1.403 . S
C290 C291 1.404 . S
C290 C293 1.539 . S
C291 C287 1.408 . S
C291 C290 1.404 . S
C291 H303 0.930 . S
C292 C288 1.524 . S
C292 H304 0.956 . S
C292 H305 0.961 . S
C292 H306 0.961 . S
C293 C290 1.539 . S
C293 H307 0.958 . S
C293 H308 0.961 . S
C293 H309 0.960 . S
H294 C278 0.931 . S
H295 C283 0.929 . S
H296 C284 0.960 . S
H297 C284 0.962 . S
H298 C284 0.960 . S
H299 C285 0.961 . S
H300 C285 0.961 . S
H301 C285 0.961 . S
H302 C286 0.931 . S
H303 C291 0.930 . S
H304 C292 0.956 . S
H305 C292 0.961 . S
H306 C292 0.961 . S
H307 C293 0.958 . S
H308 C293 0.961 . S
H309 C293 0.960 . S
C310 C311 1.391 . S
C310 C312 1.394 . S
C310 H326 0.931 . S
C311 C310 1.391 . S
C311 C315 1.376 . S
C312 C310 1.394 . S
C312 C313 1.369 . S
C312 C316 1.531 . S
C313 C312 1.369 . S
C313 C314 1.410 . S
C313 C321 1.503 . S
C314 C313 1.410 . S
C314 C315 1.392 . S
C314 C317 1.511 . S
C315 C311 1.376 . S
C315 C314 1.392 . S
C315 H327 0.929 . S
C316 C312 1.531 . S
C316 H328 0.960 . S
C316 H329 0.962 . S
C316 H330 0.960 . S
C317 C314 1.511 . S
C317 H331 0.961 . S
C317 H332 0.961 . S
C317 H333 0.961 . S
C318 C319 1.370 . S
C318 C320 1.363 . S
C318 H334 0.931 . S
C319 C318 1.370 . S
C319 C323 1.408 . S
C320 C318 1.363 . S
C320 C321 1.370 . S
C320 C324 1.524 . S
C321 C313 1.503 . S
C321 C320 1.370 . S
C321 C322 1.403 . S
C322 C321 1.403 . S
C322 C323 1.404 . S
C322 C325 1.539 . S
C323 C319 1.408 . S
C323 C322 1.404 . S
C323 H335 0.930 . S
C324 C320 1.524 . S
C324 H336 0.956 . S
C324 H337 0.961 . S
C324 H338 0.961 . S
C325 C322 1.539 . S
C325 H339 0.958 . S
C325 H340 0.961 . S
C325 H341 0.960 . S
H326 C310 0.931 . S
H327 C315 0.929 . S
H328 C316 0.960 . S
H329 C316 0.962 . S
H330 C316 0.960 . S
H331 C317 0.961 . S
H332 C317 0.961 . S
H333 C317 0.961 . S
H334 C318 0.931 . S
H335 C323 0.930 . S
H336 C324 0.956 . S
H337 C324 0.961 . S
H338 C324 0.961 . S
H339 C325 0.958 . S
H340 C325 0.961 . S
H341 C325 0.960 . S
C342 C343 1.391 1_545 S
C342 C344 1.394 . S
C342 H358 0.931 . S
C343 C342 1.391 1_565 S
C343 C347 1.376 . S
C344 C342 1.394 . S
C344 C345 1.369 . S
C344 C348 1.531 . S
C345 C344 1.369 . S
C345 C346 1.410 1_545 S
C345 C353 1.503 . S
C346 C345 1.410 1_565 S
C346 C347 1.392 . S
C346 C349 1.511 . S
C347 C343 1.376 . S
C347 C346 1.392 . S
C347 H359 0.929 . S
C348 C344 1.531 . S
C348 H360 0.960 . S
C348 H361 0.962 . S
C348 H362 0.960 . S
C349 C346 1.511 . S
C349 H363 0.961 . S
C349 H364 0.961 . S
C349 H365 0.961 1_455 S
C350 C351 1.370 . S
C350 C352 1.363 1_545 S
C350 H366 0.931 1_545 S
C351 C350 1.370 . S
C351 C355 1.408 . S
C352 C350 1.363 1_565 S
C352 C353 1.370 1_565 S
C352 C356 1.524 . S
C353 C345 1.503 . S
C353 C352 1.370 1_545 S
C353 C354 1.403 . S
C354 C353 1.403 . S
C354 C355 1.404 . S
C354 C357 1.539 1_455 S
C355 C351 1.408 . S
C355 C354 1.404 . S
C355 H367 0.930 . S
C356 C352 1.524 . S
C356 H368 0.956 . S
C356 H369 0.961 . S
C356 H370 0.961 . S
C357 C354 1.539 1_655 S
C357 H371 0.958 . S
C357 H372 0.961 . S
C357 H373 0.960 . S
H358 C342 0.931 . S
H359 C347 0.929 . S
H360 C348 0.960 . S
H361 C348 0.962 . S
H362 C348 0.960 . S
H363 C349 0.961 . S
H364 C349 0.961 . S
H365 C349 0.961 1_655 S
H366 C350 0.931 1_565 S
H367 C355 0.930 . S
H368 C356 0.956 . S
H369 C356 0.961 . S
H370 C356 0.961 . S
H371 C357 0.958 . S
H372 C357 0.961 . S
H373 C357 0.960 . S
C374 C375 1.391 1_645 S
C374 C376 1.394 . S
C374 H390 0.931 . S
C375 C374 1.391 1_465 S
C375 C379 1.376 . S
C376 C374 1.394 . S
C376 C377 1.369 1_655 S
C376 C380 1.531 . S
C377 C376 1.369 1_455 S
C377 C378 1.410 1_545 S
C377 C385 1.503 . S
C378 C377 1.410 1_565 S
C378 C379 1.392 . S
C378 C381 1.511 . S
C379 C375 1.376 . S
C379 C378 1.392 . S
C379 H391 0.929 . S
C380 C376 1.531 . S
C380 H392 0.960 . S
C380 H393 0.962 . S
C380 H394 0.960 . S
C381 C378 1.511 . S
C381 H395 0.961 . S
C381 H396 0.961 . S
C381 H397 0.961 1_565 S
C382 C383 1.370 1_565 S
C382 C384 1.363 . S
C382 H398 0.931 . S
C383 C382 1.370 1_545 S
C383 C387 1.409 1_655 S
C384 C382 1.363 . S
C384 C385 1.370 1_665 S
C384 C388 1.524 . S
C385 C377 1.503 . S
C385 C384 1.370 1_445 S
C385 C386 1.403 . S
C386 C385 1.403 . S
C386 C387 1.404 . S
C386 C389 1.539 . S
C387 C383 1.409 1_455 S
C387 C386 1.404 . S
C387 H399 0.930 . S
C388 C384 1.524 . S
C388 H400 0.956 . S
C388 H401 0.960 1_655 S
C388 H402 0.961 . S
C389 C386 1.539 . S
C389 H403 0.958 . S
C389 H404 0.961 . S
C389 H405 0.960 . S
H390 C374 0.931 . S
H391 C379 0.929 . S
H392 C380 0.960 . S
H393 C380 0.962 . S
H394 C380 0.960 . S
H395 C381 0.961 . S
H396 C381 0.961 . S
H397 C381 0.961 1_545 S
H398 C382 0.931 . S
H399 C387 0.930 . S
H400 C388 0.956 . S
H401 C388 0.960 1_455 S
H402 C388 0.961 . S
H403 C389 0.958 . S
H404 C389 0.961 . S
H405 C389 0.960 . S
C406 C407 1.391 . S
C406 C408 1.394 . S
C406 H422 0.931 . S
C407 C406 1.391 . S
C407 C411 1.376 . S
C408 C406 1.394 . S
C408 C409 1.369 . S
C408 C412 1.531 . S
C409 C408 1.369 . S
C409 C410 1.410 . S
C409 C417 1.503 . S
C410 C409 1.410 . S
C410 C411 1.392 . S
C410 C413 1.511 . S
C411 C407 1.376 . S
C411 C410 1.392 . S
C411 H423 0.929 . S
C412 C408 1.531 . S
C412 H424 0.960 . S
C412 H425 0.962 . S
C412 H426 0.960 . S
C413 C410 1.511 . S
C413 H427 0.961 . S
C413 H428 0.961 . S
C413 H429 0.961 . S
C414 C415 1.370 . S
C414 C416 1.363 . S
C414 H430 0.931 . S
C415 C414 1.370 . S
C415 C419 1.408 . S
C416 C414 1.363 . S
C416 C417 1.370 . S
C416 C420 1.524 . S
C417 C409 1.503 . S
C417 C416 1.370 . S
C417 C418 1.403 . S
C418 C417 1.403 . S
C418 C419 1.404 . S
C418 C421 1.539 . S
C419 C415 1.408 . S
C419 C418 1.404 . S
C419 H431 0.930 . S
C420 C416 1.524 . S
C420 H432 0.956 . S
C420 H433 0.961 . S
C420 H434 0.961 . S
C421 C418 1.539 . S
C421 H435 0.958 . S
C421 H436 0.961 . S
C421 H437 0.960 . S
H422 C406 0.931 . S
H423 C411 0.929 . S
H424 C412 0.960 . S
H425 C412 0.962 . S
H426 C412 0.960 . S
H427 C413 0.961 . S
H428 C413 0.961 . S
H429 C413 0.961 . S
H430 C414 0.931 . S
H431 C419 0.930 . S
H432 C420 0.956 . S
H433 C420 0.961 . S
H434 C420 0.961 . S
H435 C421 0.958 . S
H436 C421 0.961 . S
H437 C421 0.960 . S
C438 C439 1.391 . S
C438 C440 1.394 . S
C438 H454 0.931 . S
C439 C438 1.391 . S
C439 C443 1.376 . S
C440 C438 1.394 . S
C440 C441 1.369 . S
C440 C444 1.531 . S
C441 C440 1.369 . S
C441 C442 1.410 . S
C441 C449 1.503 . S
C442 C441 1.410 . S
C442 C443 1.392 . S
C442 C445 1.511 . S
C443 C439 1.376 . S
C443 C442 1.392 . S
C443 H455 0.929 . S
C444 C440 1.531 . S
C444 H456 0.960 . S
C444 H457 0.962 . S
C444 H458 0.960 . S
C445 C442 1.511 . S
C445 H459 0.961 . S
C445 H460 0.961 . S
C445 H461 0.961 . S
C446 C447 1.370 . S
C446 C448 1.363 . S
C446 H462 0.931 . S
C447 C446 1.370 . S
C447 C451 1.408 . S
C448 C446 1.363 . S
C448 C449 1.370 . S
C448 C452 1.524 . S
C449 C441 1.503 . S
C449 C448 1.370 . S
C449 C450 1.403 . S
C450 C449 1.403 . S
C450 C451 1.404 . S
C450 C453 1.539 . S
C451 C447 1.408 . S
C451 C450 1.404 . S
C451 H463 0.930 . S
C452 C448 1.524 . S
C452 H464 0.956 . S
C452 H465 0.961 . S
C452 H466 0.961 . S
C453 C450 1.539 . S
C453 H467 0.958 . S
C453 H468 0.961 . S
C453 H469 0.960 . S
H454 C438 0.931 . S
H455 C443 0.929 . S
H456 C444 0.960 . S
H457 C444 0.962 . S
H458 C444 0.960 . S
H459 C445 0.961 . S
H460 C445 0.961 . S
H461 C445 0.961 . S
H462 C446 0.931 . S
H463 C451 0.930 . S
H464 C452 0.956 . S
H465 C452 0.961 . S
H466 C452 0.961 . S
H467 C453 0.958 . S
H468 C453 0.961 . S
H469 C453 0.960 . S
C95 C81 1.320 . S
C87 C3 1.157 . S
C119 C4 1.436 1_556 S
C127 N68 1.515 . S
C151 C19 1.463 . S
C159 N79 1.532 . S
C183 C7 1.199 . S
C191 C70 1.327 . S
C215 C37 1.171 . S
C223 C59 1.319 . S
C247 C28 1.434 . S
C255 N46 1.525 1_655 S
C287 N57 1.533 . S
C279 C41 1.459 . S
C319 C48 1.326 . S
C311 C25 1.167 . S
C343 C20 1.382 . S
C351 C51 1.489 . S
C375 C16 1.386 1_455 S
C383 C62 1.535 . S
C415 C73 1.492 . S
C407 C40 1.353 . S
C439 C24 1.386 . S
C447 C84 1.522 . S
