# Generated by pormake.
# Topology zzz, (3,6)-cn, num edge types: 1
# Building blocks:
#     Node 0, Type 0, BuildingBlock: BETDIP_clean_linker_0, # of connection points: 3
#     Node 1, Type 0, BuildingBlock: BETDIP_clean_linker_0, # of connection points: 3
#     Node 2, Type 0, BuildingBlock: BETDIP_clean_linker_0, # of connection points: 3
#     Node 3, Type 0, BuildingBlock: BETDIP_clean_linker_0, # of connection points: 3
#     Node 4, Type 0, BuildingBlock: BETDIP_clean_linker_0, # of connection points: 3
#     Node 5, Type 0, BuildingBlock: BETDIP_clean_linker_0, # of connection points: 3
#     Node 6, Type 0, BuildingBlock: BETDIP_clean_linker_0, # of connection points: 3
#     Node 7, Type 0, BuildingBlock: BETDIP_clean_linker_0, # of connection points: 3
#     Node 8, Type 1, BuildingBlock: KUMBUR_clean_sbu_1, # of connection points: 6
#     Node 9, Type 1, BuildingBlock: KUMBUR_clean_sbu_1, # of connection points: 6
#     Node 10, Type 1, BuildingBlock: KUMBUR_clean_sbu_1, # of connection points: 6
#     Node 11, Type 1, BuildingBlock: KUMBUR_clean_sbu_1, # of connection points: 6
#     Edge 12, Type (0, 1), BuildingBlock: EZIPEK_clean_linker_0, # of connection points: 2
#     Edge 13, Type (0, 1), BuildingBlock: EZIPEK_clean_linker_0, # of connection points: 2
#     Edge 14, Type (0, 1), BuildingBlock: EZIPEK_clean_linker_0, # of connection points: 2
#     Edge 15, Type (0, 1), BuildingBlock: EZIPEK_clean_linker_0, # of connection points: 2
#     Edge 16, Type (0, 1), BuildingBlock: EZIPEK_clean_linker_0, # of connection points: 2
#     Edge 17, Type (0, 1), BuildingBlock: EZIPEK_clean_linker_0, # of connection points: 2
#     Edge 18, Type (0, 1), BuildingBlock: EZIPEK_clean_linker_0, # of connection points: 2
#     Edge 19, Type (0, 1), BuildingBlock: EZIPEK_clean_linker_0, # of connection points: 2
#     Edge 20, Type (0, 1), BuildingBlock: EZIPEK_clean_linker_0, # of connection points: 2
#     Edge 21, Type (0, 1), BuildingBlock: EZIPEK_clean_linker_0, # of connection points: 2
#     Edge 22, Type (0, 1), BuildingBlock: EZIPEK_clean_linker_0, # of connection points: 2
#     Edge 23, Type (0, 1), BuildingBlock: EZIPEK_clean_linker_0, # of connection points: 2
#     Edge 24, Type (0, 1), BuildingBlock: EZIPEK_clean_linker_0, # of connection points: 2
#     Edge 25, Type (0, 1), BuildingBlock: EZIPEK_clean_linker_0, # of connection points: 2
#     Edge 26, Type (0, 1), BuildingBlock: EZIPEK_clean_linker_0, # of connection points: 2
#     Edge 27, Type (0, 1), BuildingBlock: EZIPEK_clean_linker_0, # of connection points: 2
#     Edge 28, Type (0, 1), BuildingBlock: EZIPEK_clean_linker_0, # of connection points: 2
#     Edge 29, Type (0, 1), BuildingBlock: EZIPEK_clean_linker_0, # of connection points: 2
#     Edge 30, Type (0, 1), BuildingBlock: EZIPEK_clean_linker_0, # of connection points: 2
#     Edge 31, Type (0, 1), BuildingBlock: EZIPEK_clean_linker_0, # of connection points: 2
#     Edge 32, Type (0, 1), BuildingBlock: EZIPEK_clean_linker_0, # of connection points: 2
#     Edge 33, Type (0, 1), BuildingBlock: EZIPEK_clean_linker_0, # of connection points: 2
#     Edge 34, Type (0, 1), BuildingBlock: EZIPEK_clean_linker_0, # of connection points: 2
#     Edge 35, Type (0, 1), BuildingBlock: EZIPEK_clean_linker_0, # of connection points: 2
# Relax obj value: 0.246
# Max RMSD: 0.125
# Mean RMSD: 0.085
data_MOF--net-zzz--node1-KUMBUR_clean_sbu_1--node2-BETDIP_clean_linker_0--edge1-EZIPEK_clean_linker_0
_symmetry_space_group_name_H-M    P1
_symmetry_Int_Tables_number       1
_symmetry_cell_setting            triclinic
loop_
_symmetry_equiv_pos_as_xyz
'x, y, z'
_cell_length_a     37.029374
_cell_length_b     37.323515
_cell_length_c     11.755912
_cell_angle_alpha  90.032644
_cell_angle_beta   90.438022
_cell_angle_gamma 90.268236
loop_
_atom_site_label
_atom_site_type_symbol
_atom_site_fract_x
_atom_site_fract_y
_atom_site_fract_z
_atom_type_partial_charge
H0 H 0.78353 0.54526 0.48904 0.0
H1 H 0.76755 0.48873 0.17058 0.0
H2 H 0.87031 0.48503 0.33514 0.0
H3 H 0.73846 0.54614 0.1252 0.0
C4 C 0.71895 0.5392 0.19029 0.0
C5 C 0.79396 0.52901 0.42061 0.0
C6 C 0.83105 0.51575 0.42749 0.0
C7 C 0.77075 0.52076 0.3227 0.0
C8 C 0.78453 0.49765 0.2407 0.0
C9 C 0.81981 0.4854 0.24618 0.0
C10 C 0.84286 0.49514 0.33546 0.0
N11 N 0.73373 0.53337 0.30484 0.0
H12 H 0.03808 0.77848 0.43995 0.0
H13 H 0.95992 0.74443 0.18834 0.0
H14 H 0.94702 0.84517 0.35886 0.0
H15 H 0.97313 0.68625 0.29404 0.0
C16 C 0.99891 0.68972 0.25288 0.0
C17 C 1.01304 0.78292 0.39417 0.0
C18 C 0.99324 0.81603 0.4127 0.0
C19 C 0.99963 0.75555 0.31558 0.0
C20 C 0.96867 0.76343 0.25224 0.0
C21 C 0.95235 0.79708 0.25605 0.0
C22 C 0.96188 0.82061 0.34668 0.0
N23 N 0.01834 0.7224 0.28622 0.0
H24 H 0.75115 0.0477 0.41306 0.0
H25 H 0.7818 0.96522 0.17741 0.0
H26 H 0.67797 0.96059 0.33878 0.0
H27 H 0.83822 0.97793 0.26048 0.0
C28 C 0.83752 1.00541 0.23051 0.0
C29 C 0.74524 0.02279 0.36947 0.0
C30 C 0.71125 1.00473 0.39009 0.0
C31 C 0.77163 1.00795 0.29289 0.0
C32 C 0.76269 0.97592 0.23712 0.0
C33 C 0.72852 0.95963 0.24609 0.0
C34 C 0.70404 0.97332 0.32734 0.0
N35 N 0.80555 0.02559 0.26263 0.0
H36 H 0.51332 0.77249 0.43718 0.0
H37 H 0.58931 0.80671 0.18251 0.0
H38 H 0.60334 0.70583 0.34946 0.0
H39 H 0.57581 0.8626 0.24361 0.0
C40 C 0.54692 0.85945 0.23068 0.0
C41 C 0.53794 0.76828 0.39011 0.0
C42 C 0.55827 0.73554 0.40777 0.0
C43 C 0.54997 0.79541 0.30996 0.0
C44 C 0.58071 0.78779 0.24592 0.0
C45 C 0.59734 0.75425 0.24876 0.0
C46 C 0.58869 0.73066 0.33927 0.0
N47 N 0.52988 0.82788 0.28117 0.0
H48 H 0.29037 0.50596 1.00198 0.0
H49 H 0.31113 0.51858 0.3615 0.0
H50 H 0.2048 0.53608 0.23273 0.0
H51 H 0.35815 0.45446 0.25604 0.0
C52 C 0.36479 0.48271 0.25842 0.0
C53 C 0.28034 0.51062 0.08692 0.0
C54 C 0.24224 0.51913 0.1027 0.0
C55 C 0.30535 0.50862 0.18336 0.0
C56 C 0.29238 0.51688 0.29022 0.0
C57 C 0.25747 0.52891 0.30451 0.0
C58 C 0.23217 0.52762 0.21516 0.0
N59 N 0.34415 0.50381 0.17625 0.0
H60 H 0.05573 0.27701 1.00635 0.0
H61 H 1.00374 0.29669 0.32905 0.0
H62 H 0.99158 0.19473 0.17059 0.0
H63 H 0.06411 0.32563 0.36281 0.0
C64 C 0.05513 0.3441 0.29715 0.0
C65 C 0.03971 0.26772 0.07713 0.0
C66 C 0.02466 0.2314 0.07476 0.0
C67 C 0.03341 0.2917 0.17344 0.0
C68 C 1.01086 0.27925 0.25907 0.0
C69 C 0.99609 0.2451 0.25619 0.0
C70 C 1.00368 0.22127 0.16824 0.0
N71 N 0.04676 0.32849 0.18548 0.0
H72 H 0.26328 0.03437 0.05256 0.0
H73 H 0.24656 0.10879 0.32687 0.0
H74 H 0.35062 0.10182 0.17031 0.0
H75 H 0.21501 0.06519 0.40763 0.0
C76 C 0.19775 0.05732 0.3368 0.0
C77 C 0.27356 0.05491 0.10936 0.0
C78 C 0.3103 0.068 0.09563 0.0
C79 C 0.25051 0.06825 0.19903 0.0
C80 C 0.26415 0.09629 0.26626 0.0
C81 C 0.30044 0.10714 0.26302 0.0
C82 C 0.32261 0.09356 0.17531 0.0
N83 N 0.21446 0.05401 0.22461 0.0
H84 H 0.48698 0.28579 0.05769 0.0
H85 H 0.56158 0.24928 0.31683 0.0
H86 H 0.57436 0.35412 0.17576 0.0
H87 H 0.4763 0.23706 0.36454 0.0
C88 C 0.49254 0.21717 0.32182 0.0
C89 C 0.51076 0.29024 0.10991 0.0
C90 C 0.53023 0.32409 0.10132 0.0
C91 C 0.52196 0.26287 0.19078 0.0
C92 C 0.55258 0.26946 0.25672 0.0
C93 C 0.57015 0.30249 0.25428 0.0
C94 C 0.55981 0.32882 0.17568 0.0
N95 N 0.50389 0.22873 0.20929 0.0
Tb96 Tb 0.97337 0.03781 0.64092 0.0
C97 C 0.11728 0.0518 0.93241 0.0
N98 N 0.10686 0.02667 0.85495 0.0
C99 C 0.16805 0.02279 0.78855 0.0
C100 C 0.15339 0.06393 0.93951 0.0
C101 C 0.13206 1.01126 0.78583 0.0
C102 C 0.17873 0.04944 0.86511 0.0
C103 C 0.10156 0.08991 0.09143 0.0
C104 C 0.09183 0.06466 1.00712 0.0
C105 C 0.13731 0.10249 0.09777 0.0
C106 C 0.16314 0.08964 0.02164 0.0
Tb107 Tb 0.04685 1.01011 0.85676 0.0
N108 N 0.0573 0.05254 0.99624 0.0
C109 C 0.07508 0.10173 0.16679 0.0
C110 C 0.03185 0.06261 0.07394 0.0
C111 C 0.0401 0.08788 0.15829 0.0
H112 H 0.12475 0.98934 0.7302 0.0
H113 H 0.01956 0.09631 0.21745 0.0
H114 H 0.90699 0.99732 0.78069 0.0
H115 H 0.02768 1.01333 0.22015 0.0
H116 H 1.00504 0.0514 0.06922 0.0
H117 H 0.08147 0.12114 0.23259 0.0
H118 H 0.02356 0.04672 0.39725 0.0
H119 H 0.18765 1.01069 0.7327 0.0
H120 H 0.14527 0.12208 0.16129 0.0
H121 H 0.19068 0.09943 0.0279 0.0
H122 H 0.85981 0.95243 0.74139 0.0
H123 H 0.20672 0.05805 0.86788 0.0
H124 H 0.9771 0.97489 0.15718 0.0
N125 N 0.93176 0.99285 0.61977 0.0
C126 C 0.92789 0.9805 0.5117 0.0
C127 C 0.87916 0.95949 0.67648 0.0
C128 C 0.89978 0.95646 0.48276 0.0
C129 C 0.9068 0.98398 0.70035 0.0
C130 C 0.8757 0.9455 0.56707 0.0
N131 N 0.97884 0.01581 0.45981 0.0
C132 C 1.00381 0.02614 0.3808 0.0
C133 C 0.94973 0.9784 0.31863 0.0
C134 C 0.95245 0.99185 0.4302 0.0
C135 C 0.97698 0.98656 0.24154 0.0
C136 C 1.00495 1.00923 0.27506 0.0
H137 H 0.8538 0.92706 0.54779 0.0
H138 H 0.87414 0.92697 0.34593 0.0
H139 H 0.91794 0.94669 0.20232 0.0
O140 O 0.95145 0.07338 0.51819 0.0
O141 O 0.9809 0.97838 0.6714 0.0
O142 O 0.04016 0.96964 0.71439 0.0
O143 O 0.92063 0.05543 0.6608 0.0
O144 O 0.03046 0.05196 0.58939 0.0
O145 O 0.06536 1.00991 0.67894 0.0
O146 O 0.03006 0.97718 0.98966 0.0
O147 O 0.03598 0.0693 0.85634 0.0
O148 O 0.99701 0.08796 0.71434 0.0
O149 O 0.08463 0.97447 0.93032 0.0
O150 O 0.98914 1.00083 0.9068 0.0
O151 O 0.95818 0.04574 0.82087 0.0
C152 C 1.01014 0.95824 0.663 0.0
C153 C 0.90606 0.11206 0.59512 0.0
C154 C 0.90609 0.17604 0.56227 0.0
C155 C 0.87852 0.18059 0.6417 0.0
C156 C 0.87776 0.11652 0.67345 0.0
C157 C 0.86421 0.15065 0.69673 0.0
C158 C 0.91962 0.14195 0.53884 0.0
C159 C 0.06154 0.03407 0.59827 0.0
C160 C 0.92111 0.07629 0.57333 0.0
C161 C 0.89602 0.94482 0.3703 0.0
C162 C 0.92062 0.9563 0.28841 0.0
C163 C 0.01798 0.0951 0.80355 0.0
C164 C 0.05801 0.92059 0.99612 0.0
C165 C 0.02076 0.86709 0.01831 0.0
C166 C 0.05214 0.84674 0.03608 0.0
C167 C 0.08912 0.89995 0.01363 0.0
C168 C 0.02414 0.90357 0.99289 0.0
C169 C 0.08616 0.86304 0.03146 0.0
C170 C 0.96111 0.02275 0.90473 0.0
C171 C 0.06048 0.95999 0.99516 0.0
H172 H 0.86829 0.20704 0.66073 0.0
H173 H 0.86632 0.09369 0.71747 0.0
H174 H 0.84278 0.15388 0.75791 0.0
H175 H 0.94116 0.13898 0.4775 0.0
H176 H 0.05028 0.81855 0.05727 0.0
H177 H 0.11555 0.9125 0.01676 0.0
H178 H 0.99983 0.91923 0.98201 0.0
H179 H 0.11019 0.84728 0.04642 0.0
Tb180 Tb 0.52806 0.06504 0.8669 0.0
C181 C 0.54289 0.93052 0.56387 0.0
N182 N 0.53697 0.96497 0.53146 0.0
C183 C 0.58032 0.95825 0.38149 0.0
C184 C 0.56878 0.90906 0.50896 0.0
C185 C 0.55307 0.97763 0.43437 0.0
C186 C 0.58865 0.92397 0.42007 0.0
C187 C 0.52423 0.87942 0.67668 0.0
C188 C 0.52117 0.91592 0.647 0.0
C189 C 0.55079 0.85829 0.62517 0.0
C190 C 0.57317 0.87314 0.54185 0.0
Tb191 Tb 0.49568 0.99626 0.64005 0.0
N192 N 0.49616 0.93728 0.69629 0.0
C193 C 0.50003 0.86511 0.75563 0.0
C194 C 0.47123 0.92288 0.76889 0.0
C195 C 0.47313 0.88685 0.80086 0.0
H196 H 0.54625 1.00362 0.40048 0.0
H197 H 0.45388 0.8759 0.86041 0.0
H198 H 0.46983 0.05334 0.07803 0.0
H199 H 0.59309 0.18679 0.72056 0.0
H200 H 0.45019 0.93941 0.80326 0.0
H201 H 0.50151 0.83722 0.78071 0.0
H202 H 0.58725 0.12124 0.74869 0.0
H203 H 0.59472 0.96995 0.31098 0.0
H204 H 0.55379 0.83029 0.64759 0.0
H205 H 0.59298 0.85633 0.50078 0.0
H206 H 0.42262 0.08906 0.1717 0.0
H207 H 0.60945 0.90875 0.37816 0.0
H208 H 0.54728 0.22763 0.80034 0.0
N209 N 0.48808 0.09644 0.97517 0.0
C210 C 0.48735 0.13232 0.95718 0.0
C211 C 0.44073 0.10167 0.11196 0.0
C212 C 0.46188 0.15418 0.01163 0.0
C213 C 0.46737 0.08142 0.05863 0.0
C214 C 0.43748 0.13811 0.08653 0.0
N215 N 0.53811 0.12516 0.84066 0.0
C216 C 0.56711 0.139 0.78346 0.0
C217 C 0.51589 0.18474 0.87539 0.0
C218 C 0.51368 0.1473 0.88916 0.0
C219 C 0.54461 0.19898 0.81287 0.0
C220 C 0.57052 0.17601 0.76764 0.0
H221 H 0.41693 0.15382 0.12776 0.0
H222 H 0.44295 0.20864 0.03307 0.0
H223 H 0.49045 0.23542 0.91395 0.0
O224 O 0.55231 0.03806 1.00353 0.0
O225 O 0.52984 0.08529 0.68938 0.0
O226 O 0.48404 0.05429 0.60102 0.0
O227 O 0.56508 0.09314 0.97187 0.0
O228 O 0.57357 0.04115 0.76587 0.0
O229 O 0.54761 0.02317 0.59734 0.0
O230 O 0.44775 0.96946 0.59597 0.0
O231 O 0.52422 0.97444 0.7929 0.0
O232 O 0.50894 1.01239 0.93475 0.0
O233 O 0.47825 0.99681 0.46913 0.0
O234 O 0.4529 1.00898 0.76843 0.0
O235 O 0.46795 0.06446 0.84174 0.0
C236 C 0.50473 0.08336 0.60932 0.0
C237 C 0.61306 0.05561 0.02711 0.0
C238 C 0.66142 1.0114 0.01671 0.0
C239 C 0.68652 0.03908 0.0403 0.0
C240 C 0.63859 0.08263 0.04893 0.0
C241 C 0.67521 0.07441 0.05366 0.0
C242 C 0.62476 0.02033 1.00719 0.0
C243 C 0.57675 0.02956 0.65954 0.0
C244 C 0.57433 0.06432 0.0258 0.0
C245 C 0.4625 0.19136 0.99272 0.0
C246 C 0.48963 0.20664 0.92536 0.0
C247 C 0.51815 0.97976 0.90232 0.0
C248 C 0.41539 0.99506 0.44875 0.0
C249 C 0.37248 0.04387 0.44564 0.0
C250 C 0.35002 0.02341 0.3731 0.0
C251 C 0.3931 0.97508 0.37574 0.0
C252 C 0.40457 0.02901 0.48627 0.0
C253 C 0.36013 0.98903 0.3398 0.0
C254 C 0.44421 0.03808 0.82716 0.0
C255 C 0.44876 0.97934 0.4908 0.0
H256 H 0.71494 0.03336 0.05237 0.0
H257 H 0.63016 0.11 0.0635 0.0
H258 H 0.69481 0.09526 0.0721 0.0
H259 H 0.60518 0.99986 0.98542 0.0
H260 H 0.32465 0.03407 0.34203 0.0
H261 H 0.4009 0.9485 0.34842 0.0
H262 H 0.42086 0.04378 0.54681 0.0
H263 H 0.34243 0.97316 0.28616 0.0
Tb264 Tb 0.57337 0.51175 0.65009 0.0
C265 C 0.41615 0.51666 0.79762 0.0
N266 N 0.43648 0.54519 0.7667 0.0
C267 C 0.38797 0.56581 0.64666 0.0
C268 C 0.3815 0.5105 0.75102 0.0
C269 C 0.42189 0.57105 0.6979 0.0
C270 C 0.36806 0.53487 0.67103 0.0
C271 C 0.40586 0.4709 0.93856 0.0
C272 C 0.42815 0.49706 0.88847 0.0
C273 C 0.37277 0.46196 0.88614 0.0
C274 C 0.36059 0.48176 0.79191 0.0
Tb275 Tb 0.49488 0.54697 0.83713 0.0
N276 N 0.45932 0.50795 0.93859 0.0
C277 C 0.41614 0.45702 0.04448 0.0
C278 C 0.4656 0.49952 0.04986 0.0
C279 C 0.44538 0.47253 0.10266 0.0
H280 H 0.43711 0.59509 0.67913 0.0
H281 H 0.45199 0.46415 0.18838 0.0
H282 H 0.63955 0.55362 0.79528 0.0
H283 H 0.53177 0.51877 0.20984 0.0
H284 H 0.48724 0.51262 0.09467 0.0
H285 H 0.4001 0.43654 0.08576 0.0
H286 H 0.53184 0.49314 0.40042 0.0
H287 H 0.37723 0.58563 0.58858 0.0
H288 H 0.35543 0.44149 0.92205 0.0
H289 H 0.33411 0.47613 0.75614 0.0
H290 H 0.6851 0.60017 0.75788 0.0
H291 H 0.34162 0.5311 0.63255 0.0
H292 H 0.57222 0.56872 0.1618 0.0
N293 N 0.61566 0.55622 0.63062 0.0
C294 C 0.61903 0.56895 0.52286 0.0
C295 C 0.66639 0.59203 0.69143 0.0
C296 C 0.64564 0.5947 0.49647 0.0
C297 C 0.63994 0.56622 0.71346 0.0
C298 C 0.66912 0.60654 0.58255 0.0
N299 N 0.5698 0.53128 0.46723 0.0
C300 C 0.54874 0.51613 0.38401 0.0
C301 C 0.59735 0.56995 0.32841 0.0
C302 C 0.59501 0.55657 0.43975 0.0
C303 C 0.5728 0.55758 0.24661 0.0
C304 C 0.54918 0.5299 0.27391 0.0
H305 H 0.68987 0.62633 0.56527 0.0
H306 H 0.66875 0.62694 0.3623 0.0
H307 H 0.62653 0.60473 0.21633 0.0
O308 O 0.58813 0.46793 0.54501 0.0
O309 O 0.56756 0.5722 0.67564 0.0
O310 O 0.5083 0.58581 0.69813 0.0
O311 O 0.62726 0.49603 0.64535 0.0
O312 O 0.51681 0.49667 0.59289 0.0
O313 O 0.48769 0.54632 0.6503 0.0
O314 O 0.51486 0.58089 0.96381 0.0
O315 O 0.50522 0.48859 0.86803 0.0
O316 O 0.5539 0.46769 0.7639 0.0
O317 O 0.45895 0.58317 0.91616 0.0
O318 O 0.55123 0.54662 0.91986 0.0
O319 O 0.59002 0.50795 0.82788 0.0
C320 C 0.54031 0.59462 0.65754 0.0
C321 C 0.63951 0.43546 0.6139 0.0
C322 C 0.65275 0.37306 0.57405 0.0
C323 C 0.67771 0.37226 0.66404 0.0
C324 C 0.66439 0.43442 0.70539 0.0
C325 C 0.68333 0.40296 0.72993 0.0
C326 C 0.63402 0.40464 0.54887 0.0
C327 C 0.48823 0.51792 0.58484 0.0
C328 C 0.62163 0.46904 0.57929 0.0
C329 C 0.64825 0.60746 0.38502 0.0
C330 C 0.62427 0.59489 0.30174 0.0
C331 C 0.52772 0.46256 0.83906 0.0
C332 C 0.48747 0.63768 0.97195 0.0
C333 C 0.52624 0.68998 0.99738 0.0
C334 C 0.49565 0.71088 0.01997 0.0
C335 C 0.4571 0.65876 0.99455 0.0
C336 C 0.52152 0.65419 0.96533 0.0
C337 C 0.46116 0.69546 0.01556 0.0
C338 C 0.58248 0.52844 0.91499 0.0
C339 C 0.48476 0.59826 0.97402 0.0
H340 H 0.69227 0.34793 0.68391 0.0
H341 H 0.66965 0.45792 0.7571 0.0
H342 H 0.70246 0.40244 0.8 0.0
H343 H 0.61508 0.40512 0.47795 0.0
H344 H 0.49853 0.73865 0.04548 0.0
H345 H 0.43052 0.64667 1.00013 0.0
H346 H 0.54524 0.63826 0.94976 0.0
H347 H 0.43774 0.71156 0.03459 0.0
Tb348 Tb 0.04869 0.56183 0.63798 0.0
C349 C 0.1005 0.45358 0.97319 0.0
N350 N 0.08229 0.4508 0.87272 0.0
C351 C 0.12122 0.40274 0.81544 0.0
C352 C 0.13092 0.43208 0.99635 0.0
C353 C 0.09169 0.42508 0.79513 0.0
C354 C 0.14102 0.40633 0.91627 0.0
C355 C 0.10967 0.48486 0.15151 0.0
C356 C 0.08938 0.47915 0.05064 0.0
C357 C 0.14038 0.46406 0.17393 0.0
C358 C 0.15068 0.43737 0.09736 0.0
Tb359 Tb 0.03172 0.48577 0.85328 0.0
N360 N 0.05905 0.4985 0.02702 0.0
C361 C 0.09885 0.5117 0.22625 0.0
C362 C 0.04649 0.52192 0.10726 0.0
C363 C 0.06738 0.53058 0.20307 0.0
H364 H 0.07639 0.42182 0.71732 0.0
H365 H 0.05913 0.5518 0.25948 0.0
H366 H 0.04339 0.64091 0.7801 0.0
H367 H 0.97922 0.51695 0.25495 0.0
H368 H 0.02053 0.53451 0.0995 0.0
H369 H 0.11435 0.5178 0.30249 0.0
H370 H 0.02576 0.5148 0.40391 0.0
H371 H 0.12871 0.3828 0.75316 0.0
H372 H 0.15622 0.46824 0.25076 0.0
H373 H 0.17431 0.42135 0.11617 0.0
H374 H 1.00452 0.69339 0.78068 0.0
H375 H 0.16414 0.38924 0.93121 0.0
H376 H 0.93747 0.56825 0.2442 0.0
N377 N 1.01524 0.61402 0.64554 0.0
C378 C 0.98992 0.61804 0.5618 0.0
C379 C 0.9997 0.67214 0.71963 0.0
C380 C 0.96755 0.64858 0.55703 0.0
C381 C 0.0213 0.64154 0.72069 0.0
C382 C 0.97239 0.6755 0.63835 0.0
N383 N 1.0088 0.56266 0.48631 0.0
C384 C 1.00722 0.53682 0.40368 0.0
C385 C 0.96053 0.59465 0.39194 0.0
C386 C 0.9868 0.59176 0.47904 0.0
C387 C 0.9576 0.56721 0.31146 0.0
C388 C 0.98108 0.53822 0.31736 0.0
H389 H 0.9558 0.69935 0.63744 0.0
H390 H 0.92358 0.67449 0.46691 0.0
H391 H 0.91724 0.62707 0.32292 0.0
O392 O 0.09653 0.55837 0.54294 0.0
O393 O 0.99282 0.53843 0.62913 0.0
O394 O 0.97844 0.50668 0.79134 0.0
O395 O 0.06784 0.60807 0.55574 0.0
O396 O 0.06233 0.50688 0.57263 0.0
O397 O 0.02438 0.46967 0.67201 0.0
O398 O 1.00205 0.45888 0.982 0.0
O399 O 0.08758 0.49744 0.79288 0.0
O400 O 0.08959 0.55716 0.78158 0.0
O401 O 0.01748 0.43246 0.82863 0.0
O402 O 1.01197 0.54076 0.90877 0.0
O403 O 0.0494 0.57956 0.81638 0.0
C404 C 0.96872 0.52236 0.69443 0.0
C405 C 0.13027 0.60991 0.58865 0.0
C406 C 0.19485 0.60838 0.62227 0.0
C407 C 0.19161 0.63215 0.71358 0.0
C408 C 0.12704 0.63436 0.67952 0.0
C409 C 0.15757 0.6453 0.74163 0.0
C410 C 0.16429 0.5975 0.56022 0.0
C411 C 0.04521 0.47562 0.58312 0.0
C412 C 0.09849 0.59316 0.53415 0.0
C413 C 0.94119 0.65141 0.47113 0.0
C414 C 0.93769 0.62451 0.38876 0.0
C415 C 0.10558 0.52713 0.81408 0.0
C416 C 0.9658 0.40981 0.91086 0.0
C417 C 0.90206 0.40303 0.95 0.0
C418 C 0.90015 0.37283 0.87945 0.0
C419 C 0.964 0.37892 0.84191 0.0
C420 C 0.93475 0.42146 0.96546 0.0
C421 C 0.93129 0.36069 0.82599 0.0
C422 C 0.02707 0.57336 0.9002 0.0
C423 C 1.00025 0.4293 0.92295 0.0
H424 H 0.21521 0.64066 0.76161 0.0
H425 H 0.101 0.64445 0.7044 0.0
H426 H 0.15474 0.66373 0.81208 0.0
H427 H 0.16702 0.57857 0.49062 0.0
H428 H 0.8748 0.35876 0.8666 0.0
H429 H 0.98785 0.36908 0.79943 0.0
H430 H 0.93571 0.44504 0.01947 0.0
H431 H 0.9301 0.33721 0.77198 0.0
C432 C 0.13896 0.08163 0.42237 0.0
C433 C 0.15778 0.05251 0.37126 0.0
C434 C 0.11425 1.01129 0.46583 0.0
C435 C 0.09379 0.04047 0.51434 0.0
N436 N 0.08666 0.1049 0.52202 0.0
N437 N 0.15655 0.99052 0.32153 0.0
C438 C 0.10589 0.07598 0.48577 0.0
C439 C 0.14294 0.01782 0.38527 0.0
N440 N 0.15377 0.11514 0.41451 0.0
N441 N 0.10824 0.97686 0.50011 0.0
H442 H 0.17749 0.99447 0.26393 0.0
H443 H 0.14454 0.96526 0.31633 0.0
H444 H 0.0885 0.96919 0.55691 0.0
H445 H 0.12531 0.95573 0.47993 0.0
H446 H 0.14522 0.137 0.46206 0.0
H447 H 0.17608 0.12067 0.36357 0.0
H448 H 0.09042 0.13066 0.49017 0.0
H449 H 0.06586 0.10334 0.58067 0.0
C450 C 0.50951 0.1476 0.34076 0.0
C451 C 0.4989 0.18137 0.38873 0.0
C452 C 0.48676 0.14872 0.57062 0.0
C453 C 0.49992 0.11581 0.52775 0.0
N454 N 0.52362 0.0838 0.36814 0.0
N455 N 0.49053 0.21325 0.56618 0.0
C456 C 0.51118 0.11534 0.41128 0.0
C457 C 0.49118 0.18149 0.50819 0.0
N458 N 0.51831 0.14608 0.22846 0.0
N459 N 0.46841 0.14877 0.67066 0.0
H460 H 0.49855 0.23757 0.53071 0.0
H461 H 0.48711 0.21485 0.65389 0.0
H462 H 0.46446 0.12559 0.71821 0.0
H463 H 0.45417 0.17093 0.69994 0.0
H464 H 0.5238 0.12262 0.18452 0.0
H465 H 0.51989 0.16855 0.17694 0.0
H466 H 0.53554 0.08082 0.289 0.0
H467 H 0.52299 0.06017 0.41496 0.0
C468 C 0.4169 0.52579 0.3325 0.0
C469 C 0.39516 0.49437 0.34423 0.0
C470 C 0.43574 0.47763 0.50926 0.0
C471 C 0.45591 0.51012 0.50165 0.0
N472 N 0.45179 0.57102 0.43109 0.0
N473 N 0.38187 0.44426 0.47143 0.0
C474 C 0.44254 0.53587 0.42053 0.0
C475 C 0.40407 0.4716 0.43951 0.0
N476 N 0.4146 0.54591 0.23592 0.0
N477 N 0.44466 0.45299 0.5905 0.0
H478 H 0.35652 0.43899 0.43589 0.0
H479 H 0.35652 0.43899 0.43589 0.0
H480 H 0.46549 0.45685 0.64938 0.0
H481 H 0.43088 0.42869 0.59924 0.0
H482 H 0.43257 0.56678 0.21866 0.0
H483 H 0.39802 0.53927 0.16734 0.0
H484 H 0.44051 0.59111 0.38067 0.0
H485 H 0.46596 0.58084 0.50071 0.0
C486 C 0.0178 0.39815 0.3709 0.0
C487 C 0.05165 0.38333 0.33905 0.0
C488 C 0.08199 0.43181 0.45348 0.0
C489 C 0.04797 0.44602 0.48933 0.0
N490 N 0.98395 0.44767 0.45304 0.0
N491 N 0.11492 0.38864 0.33343 0.0
C492 C 0.01607 0.43047 0.4394 0.0
C493 C 0.0834 0.40151 0.37573 0.0
N494 N 0.98699 0.38045 0.33932 0.0
N495 N 0.11297 0.44614 0.49813 0.0
H496 H 0.14035 0.39997 0.34706 0.0
H497 H 0.14035 0.39997 0.34706 0.0
H498 H 0.11303 0.46868 0.54981 0.0
H499 H 0.13855 0.43525 0.48901 0.0
H500 H 0.96155 0.38635 0.37125 0.0
H501 H 0.98728 0.35862 0.28397 0.0
H502 H 0.96024 0.44049 0.41055 0.0
H503 H 0.98183 0.47152 0.49843 0.0
C504 C 0.87594 0.98605 0.06459 0.0
C505 C 0.86626 0.01416 0.13944 0.0
C506 C 0.91748 0.04941 0.05769 0.0
C507 C 0.9295 0.01939 0.99124 0.0
N508 N 0.92243 0.9559 0.957 0.0
N509 N 0.88215 0.07136 0.21867 0.0
C510 C 0.90938 0.98679 1.00264 0.0
C511 C 0.88809 0.04568 0.13845 0.0
N512 N 0.85194 0.95847 0.05339 0.0
N513 N 0.93447 0.08165 0.04539 0.0
H514 H 0.86113 0.06947 0.2769 0.0
H515 H 0.89944 0.09302 0.23281 0.0
H516 H 0.95737 0.08491 0.99563 0.0
H517 H 0.92484 0.10543 0.07988 0.0
H518 H 0.85437 0.9376 0.99498 0.0
H519 H 0.85437 0.9376 0.99498 0.0
H520 H 0.9123 0.93058 0.97653 0.0
H521 H 0.94523 0.95528 0.90668 0.0
C522 C 0.51148 0.91672 0.17705 0.0
C523 C 0.53104 0.88594 0.14304 0.0
C524 C 0.54581 0.91807 0.9637 0.0
C525 C 0.52303 0.94807 0.98995 0.0
N526 N 0.47943 0.97092 0.12616 0.0
N527 N 0.55809 0.85457 0.98824 0.0
C528 C 0.50455 0.94592 0.09802 0.0
C529 C 0.54509 0.88588 0.03118 0.0
N530 N 0.50011 0.91864 0.28701 0.0
N531 N 0.57096 0.92086 0.87998 0.0
H532 H 0.55637 0.83056 0.03322 0.0
H533 H 0.56608 0.85165 0.90393 0.0
H534 H 0.57605 0.94445 0.83667 0.0
H535 H 0.59034 0.90131 0.86478 0.0
H536 H 0.48997 0.94186 0.32345 0.0
H537 H 0.50292 0.89736 0.34391 0.0
H538 H 0.46206 0.96822 0.19491 0.0
H539 H 0.47333 0.99293 0.07668 0.0
C540 C 0.6669 0.56707 0.07772 0.0
C541 C 0.67931 0.53818 0.14616 0.0
C542 C 0.62797 0.50224 0.06598 0.0
C543 C 0.61327 0.53254 1.00596 0.0
N544 N 0.61713 0.59633 0.97807 0.0
N545 N 0.66675 0.47944 0.21895 0.0
C546 C 0.63222 0.56577 0.01986 0.0
C547 C 0.65795 0.50636 0.1456 0.0
N548 N 0.68952 0.59575 0.06779 0.0
N549 N 0.61489 0.4688 0.04254 0.0
H550 H 0.68868 0.48131 0.2748 0.0
H551 H 0.65042 0.45702 0.23175 0.0
H552 H 0.59452 0.46409 0.98302 0.0
H553 H 0.62659 0.44543 0.0737 0.0
H554 H 0.68504 0.61745 0.01379 0.0
H555 H 0.68504 0.61745 0.01379 0.0
H556 H 0.62706 0.62193 0.99503 0.0
H557 H 0.59242 0.59625 0.93592 0.0
C558 C 0.04277 0.65201 0.12542 0.0
C559 C 1.00737 0.662 0.15725 0.0
C560 C 0.98485 0.6122 0.02967 0.0
C561 C 0.02034 0.60442 0.98873 0.0
N562 N 0.0807 0.63165 0.97417 0.0
N563 N 0.94412 0.65675 0.10746 0.0
C564 C 0.04855 0.62856 0.02929 0.0
C565 C 0.97832 0.64331 0.10074 0.0
N566 N 0.07156 0.66373 0.18843 0.0
N567 N 0.95641 0.59104 0.99728 0.0
H568 H 0.93801 0.68055 0.14927 0.0
H569 H 0.92248 0.64692 0.05949 0.0
H570 H 0.9579 0.57153 0.9344 0.0
H571 H 0.93134 0.59204 0.03685 0.0
H572 H 0.09768 0.65418 0.17592 0.0
H573 H 0.06882 0.67965 0.26058 0.0
H574 H 0.09956 0.65157 0.99428 0.0
H575 H 0.08776 0.61761 0.90192 0.0
C576 C 0.98347 0.22672 0.45558 0.0
C577 C 0.97049 0.23492 0.34509 0.0
C578 C 0.90948 0.21653 0.3959 0.0
C579 C 0.92304 0.20635 0.50371 0.0
N580 N 0.96813 0.21197 0.64982 0.0
N581 N 0.92037 0.24843 0.21994 0.0
C582 C 0.95847 0.21549 0.53831 0.0
C583 C 0.93308 0.23353 0.31854 0.0
N584 N 0.0197 0.22747 0.4791 0.0
N585 N 0.87485 0.20783 0.36559 0.0
H586 H 0.93717 0.26118 0.16155 0.0
H587 H 0.89301 0.25092 0.20066 0.0
H588 H 0.85663 0.19668 0.42302 0.0
H589 H 0.86466 0.21036 0.28321 0.0
H590 H 0.03092 0.21799 0.5547 0.0
H591 H 0.03902 0.23526 0.41987 0.0
H592 H 0.99277 0.22064 0.68342 0.0
H593 H 0.94956 0.20339 0.7101 0.0
C594 C 0.35344 0.13476 0.35995 0.0
C595 C 0.31634 0.12671 0.36458 0.0
C596 C 0.32742 0.08625 0.52038 0.0
C597 C 0.36203 0.08107 0.47341 0.0
N598 N 0.41375 0.11081 0.39187 0.0
N599 N 0.27454 0.12484 0.51983 0.0
C600 C 0.37752 0.10955 0.4099 0.0
C601 C 0.3054 0.11302 0.47089 0.0
N602 N 0.36458 0.16391 0.30046 0.0
N603 N 0.3152 0.06395 0.60326 0.0
H604 H 0.25935 0.14513 0.48162 0.0
H605 H 0.26611 0.11644 0.59995 0.0
H606 H 0.33204 0.04454 0.63918 0.0
H607 H 0.2888 0.06457 0.63329 0.0
H608 H 0.3913 0.17269 0.2991 0.0
H609 H 0.34576 0.18038 0.25966 0.0
H610 H 0.42624 0.13035 0.34259 0.0
H611 H 0.43122 0.09238 0.4291 0.0
C612 C 0.63277 0.32177 0.31065 0.0
C613 C 0.59748 0.31102 0.34289 0.0
C614 C 0.61355 0.32115 0.54194 0.0
C615 C 0.6437 0.34107 0.50624 0.0
N616 N 0.68525 0.35798 0.35996 0.0
N617 N 0.55285 0.30397 0.49202 0.0
C618 C 0.65484 0.33987 0.39159 0.0
C619 C 0.58764 0.31065 0.45974 0.0
N620 N 0.64477 0.31494 0.20329 0.0
N621 N 0.60875 0.3143 0.65472 0.0
H622 H 0.53159 0.29982 0.43502 0.0
H623 H 0.5442 0.30634 0.57569 0.0
H624 H 0.62724 0.32291 0.71644 0.0
H625 H 0.58909 0.29657 0.68407 0.0
H626 H 0.67116 0.31997 0.17752 0.0
H627 H 0.62912 0.30118 0.14318 0.0
H628 H 0.69265 0.36195 0.27559 0.0
H629 H 0.70235 0.37013 0.41978 0.0
C630 C 0.25542 0.58912 0.39512 0.0
C631 C 0.25093 0.55134 0.40498 0.0
C632 C 0.23579 0.55822 0.60462 0.0
C633 C 0.22966 0.59476 0.58343 0.0
N634 N 0.24117 0.64749 0.47446 0.0
N635 N 0.24222 0.49903 0.52241 0.0
C636 C 0.24334 0.61114 0.48491 0.0
C637 C 0.2436 0.53545 0.51177 0.0
N638 N 0.27094 0.60362 0.30039 0.0
N639 N 0.23217 0.54567 0.71263 0.0
H640 H 0.24786 0.48173 0.45516 0.0
H641 H 0.23388 0.486 0.59599 0.0
H642 H 0.2254 0.56286 0.77928 0.0
H643 H 0.23928 0.51982 0.73678 0.0
H644 H 0.27743 0.63065 0.29238 0.0
H645 H 0.27984 0.58825 0.23216 0.0
H646 H 0.24631 0.66147 0.39973 0.0
H647 H 0.23318 0.66355 0.5425 0.0
C648 C 0.94619 0.7977 0.04581 0.0
C649 C 0.93312 0.81083 0.15054 0.0
C650 C 0.96071 0.86719 0.12062 0.0
C651 C 0.98452 0.85124 0.04026 0.0
N652 N 0.992 0.80463 0.89904 0.0
N653 N 0.90013 0.86325 0.19742 0.0
C654 C 0.97435 0.81755 0.99163 0.0
C655 C 0.92927 0.84784 0.14906 0.0
N656 N 0.93196 0.76693 1.00224 0.0
N657 N 0.97116 0.89501 0.18824 0.0
H658 H 0.87896 0.84763 0.22897 0.0
H659 H 0.89661 0.89083 0.19562 0.0
H660 H 0.99599 0.908 0.18316 0.0
H661 H 0.95734 0.90024 0.26304 0.0
H662 H 0.93915 0.75627 0.92379 0.0
H663 H 0.91148 0.75332 0.04537 0.0
H664 H 0.98752 0.77916 0.86547 0.0
H665 H 1.01116 0.81996 0.85591 0.0
C666 C 0.72971 0.94067 0.0461 0.0
C667 C 0.71663 0.93294 0.1558 0.0
C668 C 0.65682 0.94771 0.09025 0.0
C669 C 0.67389 0.9733 0.01825 0.0
N670 N 0.72342 0.98253 0.8889 0.0
N671 N 0.66858 0.89555 0.21477 0.0
C672 C 0.70925 0.96517 0.98012 0.0
C673 C 0.67979 0.92432 0.15379 0.0
N674 N 0.76142 0.92643 0.01088 0.0
N675 N 0.62035 0.94778 0.1001 0.0
H676 H 0.64218 0.88575 0.21379 0.0
H677 H 0.64218 0.88575 0.21379 0.0
H678 H 0.60587 0.93055 0.15264 0.0
H679 H 0.60587 0.93055 0.15264 0.0
H680 H 0.77163 0.93042 0.92947 0.0
H681 H 0.77595 0.90913 0.06382 0.0
H682 H 0.75019 0.97962 0.86386 0.0
H683 H 0.7079 1.00038 0.84095 0.0
C684 C 0.6039 0.75546 0.03852 0.0
C685 C 0.61597 0.74066 0.14271 0.0
C686 C 0.58599 0.68586 0.1035 0.0
C687 C 0.56308 0.70392 0.02379 0.0
N688 N 0.5578 0.75276 0.8892 0.0
N689 N 0.64638 0.68624 0.18574 0.0
C690 C 0.57484 0.73772 0.98044 0.0
C691 C 0.61804 0.70351 0.13752 0.0
N692 N 0.61991 0.78579 0.99899 0.0
N693 N 0.57464 0.65693 0.16415 0.0
H694 H 0.66815 0.70054 0.22049 0.0
H695 H 0.64862 0.65851 0.18168 0.0
H696 H 0.54979 0.64427 0.1535 0.0
H697 H 0.58791 0.64996 0.23907 0.0
H698 H 0.64079 0.79804 0.0453 0.0
H699 H 0.61379 0.79725 0.92049 0.0
H700 H 0.56344 0.77848 0.85985 0.0
H701 H 0.53787 0.73899 0.84329 0.0
C702 C 0.83933 0.42446 0.18854 0.0
C703 C 0.83269 0.46062 0.15848 0.0
C704 C 0.85614 0.44992 0.96891 0.0
C705 C 0.87016 0.41701 1.00809 0.0
N706 N 0.87504 0.37152 0.15269 0.0
N707 N 0.83505 0.50878 0.02115 0.0
C708 C 0.86105 0.40338 0.11641 0.0
C709 C 0.8404 0.47354 0.04794 0.0
N710 N 0.82496 0.41057 0.28584 0.0
N711 N 0.85904 0.45868 0.85671 0.0
H712 H 0.82394 0.52721 0.07744 0.0
H713 H 0.84402 0.52043 0.94594 0.0
H714 H 0.87065 0.4412 0.79845 0.0
H715 H 0.84696 0.4811 0.82028 0.0
H716 H 0.8264 0.38355 0.30738 0.0
H717 H 0.8086 0.42551 0.33985 0.0
H718 H 0.87316 0.3624 0.23614 0.0
H719 H 0.89011 0.35489 0.10006 0.0
C720 C 0.05704 0.18129 0.95715 0.0
C721 C 0.02591 0.20268 0.97799 0.0
C722 C 0.98929 0.15533 0.87625 0.0
C723 C 0.0207 0.13412 0.85306 0.0
N724 N 0.08564 0.13416 0.84577 0.0
N725 N 0.96334 0.21266 0.93572 0.0
C726 C 0.05485 0.14938 0.88619 0.0
C727 C 0.99251 0.19041 0.92932 0.0
N728 N 0.08876 0.19046 1.0095 0.0
N729 N 0.95582 0.14148 0.85292 0.0
H730 H 0.96534 0.23861 0.96841 0.0
H731 H 0.938 0.20712 0.90123 0.0
H732 H 0.95155 0.11671 0.81486 0.0
H733 H 0.93182 0.15302 0.8795 0.0
H734 H 0.11141 0.17404 0.01028 0.0
H735 H 0.09158 0.21369 0.05821 0.0
H736 H 0.11121 0.14538 0.85711 0.0
H737 H 0.08519 0.11217 0.79098 0.0
C738 C 0.35359 0.08196 0.92788 0.0
C739 C 0.33851 0.05617 1.00475 0.0
C740 C 0.39007 0.01589 0.95391 0.0
C741 C 0.40568 0.04216 0.87956 0.0
N742 N 0.394 0.09509 0.76993 0.0
N743 N 0.33885 0.99488 0.06626 0.0
C744 C 0.38497 0.07375 0.8597 0.0
C745 C 0.35563 0.02199 1.00931 0.0
N746 N 0.33793 0.11492 0.92036 0.0
N747 N 0.4089 0.98541 0.97674 0.0
H748 H 0.31479 0.99845 0.10996 0.0
H749 H 0.34692 0.96824 0.06238 0.0
H750 H 0.43302 0.9793 0.937 0.0
H751 H 0.40217 0.9674 0.04081 0.0
H752 H 0.34998 0.13671 0.88009 0.0
H753 H 0.31341 0.12087 0.95909 0.0
H754 H 0.37857 0.11671 0.74246 0.0
H755 H 0.41463 0.08838 0.71406 0.0
C756 C 0.51582 0.39103 0.08183 0.0
C757 C 0.52074 0.35736 0.02673 0.0
C758 C 0.52397 0.39205 0.84363 0.0
C759 C 0.52484 0.42581 0.90234 0.0
N760 N 0.53123 0.45398 0.08613 0.0
N761 N 0.53197 0.32692 0.85083 0.0
C762 C 0.523 0.42424 0.02371 0.0
C763 C 0.52523 0.35826 0.90607 0.0
N764 N 0.50432 0.39139 0.19189 0.0
N765 N 0.52107 0.39206 0.72781 0.0
H766 H 0.53237 0.30224 0.89232 0.0
H767 H 0.53899 0.32567 0.7656 0.0
H768 H 0.51981 0.41561 0.68031 0.0
H769 H 0.51672 0.369 0.67967 0.0
H770 H 0.4973 0.41484 0.23436 0.0
H771 H 0.49811 0.3679 0.23597 0.0
H772 H 0.53468 0.45339 0.17419 0.0
H773 H 0.53842 0.47828 0.04912 0.0
C774 C 0.20164 0.49537 0.93058 0.0
C775 C 0.21181 0.52298 1.00938 0.0
C776 C 0.152 0.55085 0.9663 0.0
C777 C 0.14323 0.52623 0.87765 0.0
N778 N 0.16698 0.47896 0.76065 0.0
N779 N 0.19931 0.58417 0.06274 0.0
C780 C 0.17032 0.49966 0.85552 0.0
C781 C 0.18791 0.553 0.01344 0.0
N782 N 0.22085 0.46432 0.92899 0.0
N783 N 0.12522 0.56978 0.01615 0.0
H784 H 0.22576 0.5877 0.09203 0.0
H785 H 0.18364 0.60734 0.06181 0.0
H786 H 0.09823 0.56503 0.99593 0.0
H787 H 0.12959 0.58569 0.08801 0.0
H788 H 0.21295 0.44198 0.88172 0.0
H789 H 0.24299 0.45991 0.98225 0.0
H790 H 0.18682 0.4612 0.7341 0.0
H791 H 0.14602 0.48254 0.70256 0.0
C792 C 0.98594 0.85593 0.59425 0.0
C793 C 1.00407 0.84902 0.48923 0.0
C794 C 0.02388 0.91372 0.49385 0.0
C795 C 1.00825 0.92013 0.60332 0.0
N796 N 0.97522 0.89476 0.7584 0.0
N797 N 0.04418 0.8719 0.34721 0.0
C798 C 0.98957 0.89029 0.65311 0.0
C799 C 0.02433 0.87815 0.44257 0.0
N800 N 0.96406 0.82965 0.63655 0.0
N801 N 0.03602 0.94242 0.43359 0.0
H802 H 0.04456 0.84699 0.30692 0.0
H803 H 0.06254 0.89022 0.31376 0.0
H804 H 0.03522 0.96826 0.46639 0.0
H805 H 0.04376 0.94124 0.34875 0.0
H806 H 0.94623 0.83329 0.70346 0.0
H807 H 0.96263 0.8041 0.60063 0.0
H808 H 0.96374 0.87437 0.80642 0.0
H809 H 0.97678 0.91914 0.80061 0.0
C810 C 0.6743 0.99717 0.57433 0.0
C811 C 0.68119 0.01711 0.47276 0.0
C812 C 0.62302 0.04942 0.506 0.0
C813 C 0.61448 0.02744 0.60177 0.0
N814 N 0.63473 0.98291 0.73438 0.0
N815 N 0.65963 0.06028 0.33754 0.0
C816 C 0.64117 1.00217 0.63803 0.0
C817 C 0.65492 0.0429 0.43845 0.0
N818 N 0.69959 0.97276 0.60853 0.0
N819 N 0.60148 0.07812 0.48287 0.0
H820 H 0.68309 0.05774 0.28983 0.0
H821 H 0.63971 0.07556 0.29819 0.0
H822 H 0.57939 0.08458 0.53293 0.0
H823 H 0.6074 0.09756 0.42231 0.0
H824 H 0.69676 0.95518 0.67628 0.0
H825 H 0.72443 0.97011 0.56815 0.0
H826 H 0.6514 0.96317 0.76758 0.0
H827 H 0.61229 0.98755 0.78457 0.0
C828 C 0.56617 0.69627 0.58988 0.0
C829 C 0.54807 0.70273 0.48369 0.0
C830 C 0.5308 0.63773 0.48391 0.0
C831 C 0.54537 0.63174 0.5954 0.0
N832 N 0.57951 0.65658 0.75073 0.0
N833 N 0.50909 0.67895 0.33788 0.0
C834 C 0.56372 0.66159 0.64701 0.0
C835 C 0.52904 0.67321 0.43429 0.0
N836 N 0.58684 0.7233 0.63459 0.0
N837 N 0.52165 0.60877 0.41951 0.0
H838 H 0.50764 0.70394 0.29842 0.0
H839 H 0.49155 0.6599 0.30309 0.0
H840 H 0.52376 0.58284 0.45086 0.0
H841 H 0.5154 0.61013 0.33308 0.0
H842 H 0.60412 0.72048 0.70406 0.0
H843 H 0.58746 0.7489 0.59889 0.0
H844 H 0.59047 0.67691 0.80077 0.0
H845 H 0.58089 0.63138 0.78796 0.0
C846 C 0.87687 0.55241 0.55452 0.0
C847 C 0.85947 0.51936 0.52606 0.0
C848 C 0.91075 0.48778 0.62547 0.0
C849 C 0.9288 0.52088 0.65036 0.0
N850 N 0.92102 0.58425 0.67315 0.0
N851 N 0.85569 0.45631 0.56479 0.0
C852 C 0.90934 0.55302 0.62493 0.0
C853 C 0.87523 0.4874 0.57216 0.0
N854 N 0.86322 0.5834 0.51085 0.0
N855 N 0.92796 0.45636 0.64928 0.0
H856 H 0.82944 0.45566 0.53186 0.0
H857 H 0.86371 0.432 0.59969 0.0
H858 H 0.95286 0.45526 0.69075 0.0
H859 H 0.91888 0.43136 0.62194 0.0
H860 H 0.87587 0.60821 0.51959 0.0
H861 H 0.83981 0.58399 0.46112 0.0
H862 H 0.90647 0.60803 0.66954 0.0
H863 H 0.94354 0.58532 0.72696 0.0
loop_
_geom_bond_atom_site_label_1
_geom_bond_atom_site_label_2
_geom_bond_distance
_geom_bond_site_symmetry_2
_ccdc_geom_bond_type
H0 C5 0.930 . S
H1 C8 0.930 . S
H2 C10 0.930 . S
H3 C4 1.016 . S
C4 H3 1.016 . S
C4 N11 1.286 . S
C5 H0 0.930 . S
C5 C6 1.397 . S
C5 C7 1.361 . S
C6 C5 1.397 . S
C6 C10 1.390 . S
C7 C5 1.361 . S
C7 C8 1.393 . S
C7 N11 1.413 . S
C8 H1 0.930 . S
C8 C7 1.393 . S
C8 C9 1.399 . S
C9 C8 1.399 . S
C9 C10 1.381 . S
C10 H2 0.930 . S
C10 C6 1.390 . S
C10 C9 1.381 . S
N11 C4 1.286 . S
N11 C7 1.413 . S
H12 C17 0.930 . S
H13 C20 0.930 . S
H14 C22 0.930 . S
H15 C16 1.016 . S
C16 H15 1.016 . S
C16 N23 1.286 1_655 S
C17 H12 0.930 . S
C17 C18 1.397 . S
C17 C19 1.361 . S
C18 C17 1.397 . S
C18 C22 1.390 . S
C19 C17 1.361 . S
C19 C20 1.393 . S
C19 N23 1.413 1_655 S
C20 H13 0.930 . S
C20 C19 1.393 . S
C20 C21 1.399 . S
C21 C20 1.399 . S
C21 C22 1.381 . S
C22 H14 0.930 . S
C22 C18 1.390 . S
C22 C21 1.381 . S
N23 C16 1.286 1_455 S
N23 C19 1.413 1_455 S
H24 C29 0.930 1_545 S
H25 C32 0.930 . S
H26 C34 0.930 . S
H27 C28 1.016 . S
C28 H27 1.016 . S
C28 N35 1.286 1_565 S
C29 H24 0.930 1_565 S
C29 C30 1.397 . S
C29 C31 1.361 . S
C30 C29 1.397 . S
C30 C34 1.390 . S
C31 C29 1.361 . S
C31 C32 1.393 . S
C31 N35 1.413 1_565 S
C32 H25 0.930 . S
C32 C31 1.393 . S
C32 C33 1.399 . S
C33 C32 1.399 . S
C33 C34 1.381 . S
C34 H26 0.930 . S
C34 C30 1.390 . S
C34 C33 1.381 . S
N35 C28 1.286 1_545 S
N35 C31 1.413 1_545 S
H36 C41 0.930 . S
H37 C44 0.930 . S
H38 C46 0.930 . S
H39 C40 1.016 . S
C40 H39 1.016 . S
C40 N47 1.286 . S
C41 H36 0.930 . S
C41 C42 1.397 . S
C41 C43 1.361 . S
C42 C41 1.397 . S
C42 C46 1.390 . S
C43 C41 1.361 . S
C43 C44 1.393 . S
C43 N47 1.413 . S
C44 H37 0.930 . S
C44 C43 1.393 . S
C44 C45 1.399 . S
C45 C44 1.399 . S
C45 C46 1.381 . S
C46 H38 0.930 . S
C46 C42 1.390 . S
C46 C45 1.381 . S
N47 C40 1.286 . S
N47 C43 1.413 . S
H48 C53 0.930 . S
H49 C56 0.930 . S
H50 C58 0.930 . S
H51 C52 1.016 . S
C52 H51 1.016 . S
C52 N59 1.286 . S
C53 H48 0.930 . S
C53 C54 1.397 . S
C53 C55 1.361 1_556 S
C54 C53 1.397 . S
C54 C58 1.390 1_556 S
C55 C53 1.361 1_554 S
C55 C56 1.393 . S
C55 N59 1.413 . S
C56 H49 0.930 . S
C56 C55 1.393 . S
C56 C57 1.399 . S
C57 C56 1.399 . S
C57 C58 1.381 . S
C58 H50 0.930 . S
C58 C54 1.390 1_554 S
C58 C57 1.381 . S
N59 C52 1.286 . S
N59 C55 1.413 . S
H60 C65 0.930 . S
H61 C68 0.930 . S
H62 C70 0.930 . S
H63 C64 1.016 . S
C64 H63 1.016 . S
C64 N71 1.286 . S
C65 H60 0.930 . S
C65 C66 1.397 . S
C65 C67 1.361 1_556 S
C66 C65 1.397 . S
C66 C70 1.390 1_556 S
C67 C65 1.361 1_554 S
C67 C68 1.393 . S
C67 N71 1.413 . S
C68 H61 0.930 . S
C68 C67 1.393 . S
C68 C69 1.399 . S
C69 C68 1.399 . S
C69 C70 1.381 . S
C70 H62 0.930 . S
C70 C66 1.390 1_554 S
C70 C69 1.381 . S
N71 C64 1.286 . S
N71 C67 1.413 . S
H72 C77 0.930 . S
H73 C80 0.930 . S
H74 C82 0.930 . S
H75 C76 1.016 . S
C76 H75 1.016 . S
C76 N83 1.286 . S
C77 H72 0.930 . S
C77 C78 1.397 . S
C77 C79 1.361 1_556 S
C78 C77 1.397 . S
C78 C82 1.390 1_556 S
C79 C77 1.361 1_554 S
C79 C80 1.393 . S
C79 N83 1.413 . S
C80 H73 0.930 . S
C80 C79 1.393 . S
C80 C81 1.399 . S
C81 C80 1.399 . S
C81 C82 1.381 . S
C82 H74 0.930 . S
C82 C78 1.390 1_554 S
C82 C81 1.381 . S
N83 C76 1.286 . S
N83 C79 1.413 . S
H84 C89 0.930 . S
H85 C92 0.930 . S
H86 C94 0.930 . S
H87 C88 1.016 . S
C88 H87 1.016 . S
C88 N95 1.286 . S
C89 H84 0.930 . S
C89 C90 1.397 . S
C89 C91 1.361 1_556 S
C90 C89 1.397 . S
C90 C94 1.390 1_556 S
C91 C89 1.361 1_554 S
C91 C92 1.393 . S
C91 N95 1.413 . S
C92 H85 0.930 . S
C92 C91 1.393 . S
C92 C93 1.399 . S
C93 C92 1.399 . S
C93 C94 1.381 . S
C94 H86 0.930 . S
C94 C90 1.390 1_554 S
C94 C93 1.381 . S
N95 C88 1.286 . S
N95 C91 1.413 . S
Tb96 N125 2.617 . S
Tb96 N131 2.572 . S
Tb96 O140 2.465 . S
Tb96 O141 2.387 1_545 S
Tb96 O143 2.428 . S
Tb96 O144 2.308 1_655 S
Tb96 O148 2.349 1_655 S
Tb96 O151 2.393 . S
Tb96 C160 2.802 . S
C97 N98 1.379 1_554 S
C97 C100 1.416 . S
C97 C104 1.424 . S
N98 C97 1.379 1_556 S
N98 C101 1.334 . S
N98 Tb107 2.617 1_545 S
C99 C101 1.390 . S
C99 C102 1.339 . S
C99 H119 0.930 . S
C100 C97 1.416 . S
C100 C102 1.416 1_554 S
C100 C106 1.448 . S
C101 N98 1.334 . S
C101 C99 1.390 . S
C101 H112 0.930 1_545 S
C102 C99 1.339 . S
C102 C100 1.416 1_556 S
C102 H123 0.930 . S
C103 C104 1.413 . S
C103 C105 1.427 . S
C103 C109 1.416 . S
C104 C97 1.424 . S
C104 C103 1.413 . S
C104 N108 1.361 . S
C105 C103 1.427 . S
C105 C106 1.328 . S
C105 H120 0.929 . S
C106 C100 1.448 . S
C106 C105 1.328 . S
C106 H121 0.930 . S
Tb107 N98 2.617 1_565 S
Tb107 N108 2.572 1_566 S
Tb107 O142 2.349 . S
Tb107 O145 2.393 . S
Tb107 O146 2.465 . S
Tb107 O147 2.387 1_565 S
Tb107 O149 2.428 . S
Tb107 O150 2.308 1_465 S
Tb107 C171 2.802 . S
N108 C104 1.361 . S
N108 Tb107 2.572 1_544 S
N108 C110 1.340 . S
C109 C103 1.416 . S
C109 C111 1.332 . S
C109 H117 0.931 . S
C110 N108 1.340 . S
C110 C111 1.407 . S
C110 H116 0.930 . S
C111 C109 1.332 . S
C111 C110 1.407 . S
C111 H113 0.929 . S
H112 C101 0.930 1_565 S
H113 C111 0.929 . S
H114 C129 0.930 . S
H115 C136 0.929 1_455 S
H116 C110 0.930 . S
H117 C109 0.931 . S
H118 C132 0.930 1_455 S
H119 C99 0.930 . S
H120 C105 0.929 . S
H121 C106 0.930 . S
H122 C127 0.930 . S
H123 C102 0.930 . S
H124 C135 0.931 . S
N125 Tb96 2.617 . S
N125 C126 1.379 1_545 S
N125 C129 1.334 . S
C126 N125 1.379 1_565 S
C126 C128 1.416 . S
C126 C134 1.424 . S
C127 H122 0.930 . S
C127 C129 1.390 . S
C127 C130 1.339 1_545 S
C128 C126 1.416 . S
C128 C130 1.416 . S
C128 C161 1.448 . S
C129 H114 0.930 . S
C129 N125 1.334 . S
C129 C127 1.390 . S
C130 C127 1.339 1_565 S
C130 C128 1.416 . S
C130 H137 0.930 . S
N131 Tb96 2.572 . S
N131 C132 1.340 . S
N131 C134 1.361 1_545 S
C132 H118 0.930 1_655 S
C132 N131 1.340 . S
C132 C136 1.407 1_545 S
C133 C134 1.413 . S
C133 C135 1.416 . S
C133 C162 1.427 . S
C134 C126 1.424 . S
C134 N131 1.361 1_565 S
C134 C133 1.413 . S
C135 H124 0.931 . S
C135 C133 1.416 . S
C135 C136 1.332 . S
C136 H115 0.929 1_655 S
C136 C132 1.407 1_565 S
C136 C135 1.332 . S
H137 C130 0.930 . S
H138 C161 0.930 . S
H139 C162 0.929 . S
O140 Tb96 2.465 . S
O140 C160 1.264 . S
O141 Tb96 2.387 1_565 S
O141 C152 1.264 . S
O142 Tb107 2.349 . S
O142 C152 1.243 1_455 S
O143 Tb96 2.428 . S
O143 C160 1.256 . S
O144 Tb96 2.308 1_455 S
O144 C159 1.266 . S
O145 Tb107 2.393 . S
O145 C159 1.248 1_565 S
O146 Tb107 2.465 . S
O146 C171 1.264 . S
O147 Tb107 2.387 1_545 S
O147 C163 1.264 . S
O148 Tb96 2.349 1_455 S
O148 C163 1.243 . S
O149 Tb107 2.428 . S
O149 C171 1.256 . S
O150 Tb107 2.308 1_645 S
O150 C170 1.266 . S
O151 Tb96 2.393 . S
O151 C170 1.248 . S
C152 O141 1.264 . S
C152 O142 1.243 1_655 S
C153 C156 1.399 . S
C153 C158 1.383 . S
C153 C160 1.496 . S
C154 C155 1.399 . S
C154 C158 1.389 . S
C155 C154 1.399 . S
C155 C157 1.380 . S
C155 H172 0.929 . S
C156 C153 1.399 . S
C156 C157 1.392 . S
C156 H173 0.929 . S
C157 C155 1.380 . S
C157 C156 1.392 . S
C157 H174 0.929 . S
C158 C153 1.383 . S
C158 C154 1.389 . S
C158 H175 0.931 1_655 S
C159 O144 1.266 . S
C159 O145 1.248 1_545 S
C160 Tb96 2.802 . S
C160 O140 1.264 . S
C160 O143 1.256 . S
C160 C153 1.496 . S
C161 C128 1.448 . S
C161 H138 0.930 . S
C161 C162 1.328 . S
C162 C133 1.427 . S
C162 H139 0.929 . S
C162 C161 1.328 . S
C163 O147 1.264 . S
C163 O148 1.243 . S
C164 C167 1.399 . S
C164 C168 1.383 . S
C164 C171 1.496 1_554 S
C165 C166 1.399 . S
C165 C168 1.389 . S
C166 C165 1.399 . S
C166 C169 1.380 . S
C166 H176 0.929 . S
C167 C164 1.399 . S
C167 C169 1.392 . S
C167 H177 0.929 1_554 S
C168 C164 1.383 . S
C168 C165 1.389 . S
C168 H178 0.931 . S
C169 C166 1.380 . S
C169 C167 1.392 . S
C169 H179 0.929 . S
C170 O150 1.266 . S
C170 O151 1.248 . S
C171 Tb107 2.802 . S
C171 O146 1.264 . S
C171 O149 1.256 . S
C171 C164 1.496 1_556 S
H172 C155 0.929 . S
H173 C156 0.929 . S
H174 C157 0.929 . S
H175 C158 0.931 1_455 S
H176 C166 0.929 . S
H177 C167 0.929 1_556 S
H178 C168 0.931 . S
H179 C169 0.929 . S
Tb180 N209 2.617 . S
Tb180 N215 2.572 . S
Tb180 O224 2.465 . S
Tb180 O225 2.387 . S
Tb180 O227 2.428 1_556 S
Tb180 O228 2.308 . S
Tb180 O232 2.349 1_545 S
Tb180 O235 2.393 . S
Tb180 C244 2.802 1_556 S
C181 N182 1.379 . S
C181 C184 1.416 . S
C181 C188 1.424 . S
N182 C181 1.379 . S
N182 C185 1.334 . S
N182 Tb191 2.617 . S
C183 C185 1.390 . S
C183 C186 1.339 . S
C183 H203 0.930 . S
C184 C181 1.416 . S
C184 C186 1.416 . S
C184 C190 1.448 . S
C185 N182 1.334 . S
C185 C183 1.390 . S
C185 H196 0.930 . S
C186 C183 1.339 . S
C186 C184 1.416 . S
C186 H207 0.930 . S
C187 C188 1.413 . S
C187 C189 1.427 . S
C187 C193 1.416 . S
C188 C181 1.424 . S
C188 C187 1.413 . S
C188 N192 1.361 . S
C189 C187 1.427 . S
C189 C190 1.328 . S
C189 H204 0.929 . S
C190 C184 1.448 . S
C190 C189 1.328 . S
C190 H205 0.930 . S
Tb191 N182 2.617 . S
Tb191 N192 2.572 . S
Tb191 O226 2.349 1_565 S
Tb191 O229 2.393 . S
Tb191 O230 2.465 . S
Tb191 O231 2.387 . S
Tb191 O233 2.428 . S
Tb191 O234 2.308 1_565 S
Tb191 C255 2.802 . S
N192 C188 1.361 . S
N192 Tb191 2.572 . S
N192 C194 1.340 . S
C193 C187 1.416 . S
C193 C195 1.332 . S
C193 H201 0.931 . S
C194 N192 1.340 . S
C194 C195 1.407 . S
C194 H200 0.930 . S
C195 C193 1.332 . S
C195 C194 1.407 . S
C195 H197 0.929 . S
H196 C185 0.930 . S
H197 C195 0.929 . S
H198 C213 0.930 . S
H199 C220 0.929 . S
H200 C194 0.930 . S
H201 C193 0.931 . S
H202 C216 0.930 . S
H203 C183 0.930 . S
H204 C189 0.929 . S
H205 C190 0.930 . S
H206 C211 0.930 . S
H207 C186 0.930 . S
H208 C219 0.931 . S
N209 Tb180 2.617 . S
N209 C210 1.379 . S
N209 C213 1.334 1_556 S
C210 N209 1.379 . S
C210 C212 1.416 . S
C210 C218 1.424 . S
C211 H206 0.930 . S
C211 C213 1.390 . S
C211 C214 1.339 1_554 S
C212 C210 1.416 . S
C212 C214 1.416 . S
C212 C245 1.448 . S
C213 H198 0.930 . S
C213 N209 1.334 1_554 S
C213 C211 1.390 . S
C214 C211 1.339 1_556 S
C214 C212 1.416 . S
C214 H221 0.930 1_556 S
N215 Tb180 2.572 . S
N215 C216 1.340 . S
N215 C218 1.361 . S
C216 H202 0.930 . S
C216 N215 1.340 . S
C216 C220 1.407 . S
C217 C218 1.413 . S
C217 C219 1.416 . S
C217 C246 1.427 . S
C218 C210 1.424 . S
C218 N215 1.361 . S
C218 C217 1.413 . S
C219 H208 0.931 . S
C219 C217 1.416 . S
C219 C220 1.332 . S
C220 H199 0.929 . S
C220 C216 1.407 . S
C220 C219 1.332 . S
H221 C214 0.930 1_554 S
H222 C245 0.930 . S
H223 C246 0.929 . S
O224 Tb180 2.465 . S
O224 C244 1.264 1_556 S
O225 Tb180 2.387 . S
O225 C236 1.264 . S
O226 Tb191 2.349 1_545 S
O226 C236 1.243 . S
O227 Tb180 2.428 1_554 S
O227 C244 1.256 . S
O228 Tb180 2.308 . S
O228 C243 1.275 . S
O229 Tb191 2.393 . S
O229 C243 1.242 1_565 S
O230 Tb191 2.465 . S
O230 C255 1.264 . S
O231 Tb191 2.387 . S
O231 C247 1.264 . S
O232 Tb180 2.349 1_565 S
O232 C247 1.243 . S
O233 Tb191 2.428 . S
O233 C255 1.256 . S
O234 Tb191 2.308 1_545 S
O234 C254 1.266 . S
O235 Tb180 2.393 . S
O235 C254 1.248 . S
C236 O225 1.264 . S
C236 O226 1.243 . S
C237 C240 1.399 . S
C237 C242 1.383 . S
C237 C244 1.496 . S
C238 C239 1.399 . S
C238 C242 1.389 . S
C239 C238 1.399 . S
C239 C241 1.380 . S
C239 H256 0.929 . S
C240 C237 1.399 . S
C240 C241 1.392 . S
C240 H257 0.929 . S
C241 C239 1.380 . S
C241 C240 1.392 . S
C241 H258 0.929 . S
C242 C237 1.383 . S
C242 C238 1.389 . S
C242 H259 0.931 . S
C243 O228 1.275 . S
C243 O229 1.242 1_545 S
C244 Tb180 2.802 1_554 S
C244 O224 1.264 1_554 S
C244 O227 1.256 . S
C244 C237 1.496 . S
C245 C212 1.448 . S
C245 H222 0.930 . S
C245 C246 1.328 . S
C246 C217 1.427 . S
C246 H223 0.929 . S
C246 C245 1.328 . S
C247 O231 1.264 . S
C247 O232 1.243 . S
C248 C251 1.399 . S
C248 C252 1.383 . S
C248 C255 1.496 . S
C249 C250 1.399 . S
C249 C252 1.389 . S
C250 C249 1.399 . S
C250 C253 1.380 . S
C250 H260 0.929 . S
C251 C248 1.399 . S
C251 C253 1.392 . S
C251 H261 0.929 . S
C252 C248 1.383 . S
C252 C249 1.389 . S
C252 H262 0.931 1_565 S
C253 C250 1.380 . S
C253 C251 1.392 . S
C253 H263 0.929 . S
C254 O234 1.266 . S
C254 O235 1.248 . S
C255 Tb191 2.802 . S
C255 O230 1.264 . S
C255 O233 1.256 . S
C255 C248 1.496 . S
H256 C239 0.929 . S
H257 C240 0.929 . S
H258 C241 0.929 . S
H259 C242 0.931 . S
H260 C250 0.929 . S
H261 C251 0.929 . S
H262 C252 0.931 1_545 S
H263 C253 0.929 . S
Tb264 N293 2.617 . S
Tb264 N299 2.572 . S
Tb264 O308 2.465 . S
Tb264 O309 2.387 . S
Tb264 O311 2.428 . S
Tb264 O312 2.308 . S
Tb264 O316 2.349 . S
Tb264 O319 2.393 . S
Tb264 C328 2.802 . S
C265 N266 1.379 1_554 S
C265 C268 1.416 . S
C265 C272 1.424 . S
N266 C265 1.379 1_556 S
N266 C269 1.334 . S
N266 Tb275 2.617 . S
C267 C269 1.390 . S
C267 C270 1.339 . S
C267 H287 0.930 . S
C268 C265 1.416 . S
C268 C270 1.416 1_554 S
C268 C274 1.448 . S
C269 N266 1.334 . S
C269 C267 1.390 . S
C269 H280 0.930 . S
C270 C267 1.339 . S
C270 C268 1.416 1_556 S
C270 H291 0.930 . S
C271 C272 1.413 . S
C271 C273 1.427 . S
C271 C277 1.416 . S
C272 C265 1.424 . S
C272 C271 1.413 . S
C272 N276 1.361 . S
C273 C271 1.427 . S
C273 C274 1.328 . S
C273 H288 0.929 . S
C274 C268 1.448 . S
C274 C273 1.328 . S
C274 H289 0.930 . S
Tb275 N266 2.617 . S
Tb275 N276 2.572 1_556 S
Tb275 O310 2.349 . S
Tb275 O313 2.393 . S
Tb275 O314 2.465 . S
Tb275 O315 2.387 . S
Tb275 O317 2.428 . S
Tb275 O318 2.308 . S
Tb275 C339 2.802 . S
N276 C272 1.361 . S
N276 Tb275 2.572 1_554 S
N276 C278 1.340 . S
C277 C271 1.416 . S
C277 C279 1.332 . S
C277 H285 0.931 . S
C278 N276 1.340 . S
C278 C279 1.407 . S
C278 H284 0.930 . S
C279 C277 1.332 . S
C279 C278 1.407 . S
C279 H281 0.929 . S
H280 C269 0.930 . S
H281 C279 0.929 . S
H282 C297 0.930 . S
H283 C304 0.929 . S
H284 C278 0.930 . S
H285 C277 0.931 . S
H286 C300 0.930 . S
H287 C267 0.930 . S
H288 C273 0.929 . S
H289 C274 0.930 . S
H290 C295 0.930 . S
H291 C270 0.930 . S
H292 C303 0.931 . S
N293 Tb264 2.617 . S
N293 C294 1.379 . S
N293 C297 1.334 . S
C294 N293 1.379 . S
C294 C296 1.416 . S
C294 C302 1.424 . S
C295 H290 0.930 . S
C295 C297 1.390 . S
C295 C298 1.339 . S
C296 C294 1.416 . S
C296 C298 1.416 . S
C296 C329 1.448 . S
C297 H282 0.930 . S
C297 N293 1.334 . S
C297 C295 1.390 . S
C298 C295 1.339 . S
C298 C296 1.416 . S
C298 H305 0.930 . S
N299 Tb264 2.572 . S
N299 C300 1.340 . S
N299 C302 1.361 . S
C300 H286 0.930 . S
C300 N299 1.340 . S
C300 C304 1.407 . S
C301 C302 1.413 . S
C301 C303 1.416 . S
C301 C330 1.427 . S
C302 C294 1.424 . S
C302 N299 1.361 . S
C302 C301 1.413 . S
C303 H292 0.931 . S
C303 C301 1.416 . S
C303 C304 1.332 . S
C304 H283 0.929 . S
C304 C300 1.407 . S
C304 C303 1.332 . S
H305 C298 0.930 . S
H306 C329 0.930 . S
H307 C330 0.929 . S
O308 Tb264 2.465 . S
O308 C328 1.264 . S
O309 Tb264 2.387 . S
O309 C320 1.264 . S
O310 Tb275 2.349 . S
O310 C320 1.243 . S
O311 Tb264 2.428 . S
O311 C328 1.256 . S
O312 Tb264 2.308 . S
O312 C327 1.266 . S
O313 Tb275 2.393 . S
O313 C327 1.248 . S
O314 Tb275 2.465 . S
O314 C339 1.264 . S
O315 Tb275 2.387 . S
O315 C331 1.264 . S
O316 Tb264 2.349 . S
O316 C331 1.243 . S
O317 Tb275 2.428 . S
O317 C339 1.256 . S
O318 Tb275 2.308 . S
O318 C338 1.266 . S
O319 Tb264 2.393 . S
O319 C338 1.248 . S
C320 O309 1.264 . S
C320 O310 1.243 . S
C321 C324 1.399 . S
C321 C326 1.383 . S
C321 C328 1.496 . S
C322 C323 1.399 . S
C322 C326 1.389 . S
C323 C322 1.399 . S
C323 C325 1.380 . S
C323 H340 0.929 . S
C324 C321 1.399 . S
C324 C325 1.392 . S
C324 H341 0.929 . S
C325 C323 1.380 . S
C325 C324 1.392 . S
C325 H342 0.929 . S
C326 C321 1.383 . S
C326 C322 1.389 . S
C326 H343 0.931 . S
C327 O312 1.266 . S
C327 O313 1.248 . S
C328 Tb264 2.802 . S
C328 O308 1.264 . S
C328 O311 1.256 . S
C328 C321 1.496 . S
C329 C296 1.448 . S
C329 H306 0.930 . S
C329 C330 1.328 . S
C330 C301 1.427 . S
C330 H307 0.929 . S
C330 C329 1.328 . S
C331 O315 1.264 . S
C331 O316 1.243 . S
C332 C335 1.399 . S
C332 C336 1.383 . S
C332 C339 1.496 1_554 S
C333 C334 1.399 . S
C333 C336 1.389 . S
C334 C333 1.399 . S
C334 C337 1.380 . S
C334 H344 0.929 . S
C335 C332 1.399 . S
C335 C337 1.392 . S
C335 H345 0.929 1_554 S
C336 C332 1.383 . S
C336 C333 1.389 . S
C336 H346 0.931 . S
C337 C334 1.380 . S
C337 C335 1.392 . S
C337 H347 0.929 . S
C338 O318 1.266 . S
C338 O319 1.248 . S
C339 Tb275 2.802 . S
C339 O314 1.264 . S
C339 O317 1.256 . S
C339 C332 1.496 1_556 S
H340 C323 0.929 . S
H341 C324 0.929 . S
H342 C325 0.929 . S
H343 C326 0.931 . S
H344 C334 0.929 . S
H345 C335 0.929 1_556 S
H346 C336 0.931 . S
H347 C337 0.929 . S
Tb348 N377 2.617 . S
Tb348 N383 2.572 . S
Tb348 O392 2.465 . S
Tb348 O393 2.387 1_455 S
Tb348 O395 2.428 . S
Tb348 O396 2.308 . S
Tb348 O400 2.349 . S
Tb348 O403 2.393 . S
Tb348 C412 2.802 . S
C349 N350 1.379 1_554 S
C349 C352 1.416 . S
C349 C356 1.424 . S
N350 C349 1.379 1_556 S
N350 C353 1.337 . S
N350 Tb359 2.617 1_455 S
C351 C353 1.399 . S
C351 C354 1.339 . S
C351 H371 0.930 . S
C352 C349 1.416 . S
C352 C354 1.416 1_554 S
C352 C358 1.448 . S
C353 N350 1.337 . S
C353 C351 1.399 . S
C353 H364 0.919 1_455 S
C354 C351 1.339 . S
C354 C352 1.416 1_556 S
C354 H375 0.930 . S
C355 C356 1.413 . S
C355 C357 1.427 . S
C355 C361 1.416 . S
C356 C349 1.424 . S
C356 C355 1.413 . S
C356 N360 1.361 . S
C357 C355 1.427 . S
C357 C358 1.328 . S
C357 H372 0.929 . S
C358 C352 1.448 . S
C358 C357 1.328 . S
C358 H373 0.930 . S
Tb359 N350 2.617 1_655 S
Tb359 N360 2.572 1_656 S
Tb359 O394 2.349 . S
Tb359 O397 2.393 . S
Tb359 O398 2.465 . S
Tb359 O399 2.387 1_655 S
Tb359 O401 2.428 . S
Tb359 O402 2.308 1_655 S
Tb359 C423 2.802 . S
N360 C356 1.361 . S
N360 Tb359 2.572 1_454 S
N360 C362 1.340 . S
C361 C355 1.416 . S
C361 C363 1.332 . S
C361 H369 0.931 . S
C362 N360 1.340 . S
C362 C363 1.407 . S
C362 H368 0.930 . S
C363 C361 1.332 . S
C363 C362 1.407 . S
C363 H365 0.929 . S
H364 C353 0.919 1_655 S
H365 C363 0.929 . S
H366 C381 0.930 . S
H367 C388 0.929 . S
H368 C362 0.930 . S
H369 C361 0.931 . S
H370 C384 0.930 . S
H371 C351 0.930 . S
H372 C357 0.929 . S
H373 C358 0.930 . S
H374 C379 0.930 . S
H375 C354 0.930 . S
H376 C387 0.931 . S
N377 Tb348 2.617 . S
N377 C378 1.379 1_455 S
N377 C381 1.334 . S
C378 N377 1.379 1_655 S
C378 C380 1.416 . S
C378 C386 1.424 . S
C379 H374 0.930 . S
C379 C381 1.390 . S
C379 C382 1.339 1_455 S
C380 C378 1.416 . S
C380 C382 1.416 . S
C380 C413 1.448 . S
C381 H366 0.930 . S
C381 N377 1.334 . S
C381 C379 1.390 . S
C382 C379 1.339 1_655 S
C382 C380 1.416 . S
C382 H389 0.930 . S
N383 Tb348 2.572 . S
N383 C384 1.340 . S
N383 C386 1.361 1_455 S
C384 H370 0.930 . S
C384 N383 1.340 . S
C384 C388 1.407 1_455 S
C385 C386 1.413 . S
C385 C387 1.416 . S
C385 C414 1.427 . S
C386 C378 1.424 . S
C386 N383 1.361 1_655 S
C386 C385 1.413 . S
C387 H376 0.931 . S
C387 C385 1.416 . S
C387 C388 1.332 . S
C388 H367 0.929 . S
C388 C384 1.407 1_655 S
C388 C387 1.332 . S
H389 C382 0.930 . S
H390 C413 0.930 . S
H391 C414 0.929 . S
O392 Tb348 2.465 . S
O392 C412 1.264 . S
O393 Tb348 2.387 1_655 S
O393 C404 1.264 . S
O394 Tb359 2.349 . S
O394 C404 1.243 . S
O395 Tb348 2.428 . S
O395 C412 1.256 . S
O396 Tb348 2.308 . S
O396 C411 1.266 . S
O397 Tb359 2.393 . S
O397 C411 1.248 1_655 S
O398 Tb359 2.465 . S
O398 C423 1.264 . S
O399 Tb359 2.387 1_455 S
O399 C415 1.264 . S
O400 Tb348 2.349 . S
O400 C415 1.243 . S
O401 Tb359 2.428 . S
O401 C423 1.256 . S
O402 Tb359 2.308 1_455 S
O402 C422 1.266 . S
O403 Tb348 2.393 . S
O403 C422 1.248 . S
C404 O393 1.264 . S
C404 O394 1.243 . S
C405 C408 1.399 . S
C405 C410 1.383 . S
C405 C412 1.496 . S
C406 C407 1.399 . S
C406 C410 1.389 . S
C407 C406 1.399 . S
C407 C409 1.380 . S
C407 H424 0.929 . S
C408 C405 1.399 . S
C408 C409 1.392 . S
C408 H425 0.929 . S
C409 C407 1.380 . S
C409 C408 1.392 . S
C409 H426 0.929 . S
C410 C405 1.383 . S
C410 C406 1.389 . S
C410 H427 0.931 . S
C411 O396 1.266 . S
C411 O397 1.248 1_455 S
C412 Tb348 2.802 . S
C412 O392 1.264 . S
C412 O395 1.256 . S
C412 C405 1.496 . S
C413 C380 1.448 . S
C413 H390 0.930 . S
C413 C414 1.328 . S
C414 C385 1.427 . S
C414 H391 0.929 . S
C414 C413 1.328 . S
C415 O399 1.264 . S
C415 O400 1.243 . S
C416 C419 1.399 . S
C416 C420 1.383 . S
C416 C423 1.496 1_554 S
C417 C418 1.399 . S
C417 C420 1.389 . S
C418 C417 1.399 . S
C418 C421 1.380 . S
C418 H428 0.929 . S
C419 C416 1.399 . S
C419 C421 1.392 . S
C419 H429 0.929 1_554 S
C420 C416 1.383 . S
C420 C417 1.389 . S
C420 H430 0.931 . S
C421 C418 1.380 . S
C421 C419 1.392 . S
C421 H431 0.929 . S
C422 O402 1.266 . S
C422 O403 1.248 . S
C423 Tb359 2.802 . S
C423 O398 1.264 . S
C423 O401 1.256 . S
C423 C416 1.496 1_556 S
H424 C407 0.929 . S
H425 C408 0.929 . S
H426 C409 0.929 . S
H427 C410 0.931 . S
H428 C418 0.929 . S
H429 C419 0.929 1_556 S
H430 C420 0.931 . S
H431 C421 0.929 . S
C432 C433 1.363 . S
C432 C438 1.379 . S
C432 N440 1.356 . S
C433 C432 1.363 . S
C433 C439 1.363 . S
C434 C435 1.363 . S
C434 C439 1.379 . S
C434 N441 1.356 1_545 S
C435 C434 1.363 . S
C435 C438 1.363 . S
N436 C438 1.356 . S
N436 H448 0.984 . S
N436 H449 0.985 . S
N437 C439 1.356 1_565 S
N437 H442 0.978 1_565 S
N437 H443 0.985 . S
C438 C432 1.379 . S
C438 C435 1.363 . S
C438 N436 1.356 . S
C439 C433 1.363 . S
C439 C434 1.379 . S
C439 N437 1.356 1_545 S
N440 C432 1.356 . S
N440 H446 0.984 . S
N440 H447 0.984 . S
N441 C434 1.356 1_565 S
N441 H444 0.984 . S
N441 H445 0.985 . S
H442 N437 0.978 1_545 S
H443 N437 0.985 . S
H444 N441 0.984 . S
H445 N441 0.985 . S
H446 N440 0.984 . S
H447 N440 0.984 . S
H448 N436 0.984 . S
H449 N436 0.985 . S
C450 C451 1.363 . S
C450 C456 1.379 . S
C450 N458 1.356 . S
C451 C450 1.363 . S
C451 C457 1.363 . S
C452 C453 1.363 . S
C452 C457 1.379 . S
C452 N459 1.356 . S
C453 C452 1.363 . S
C453 C456 1.363 . S
N454 C456 1.356 . S
N454 H466 0.984 . S
N454 H467 0.985 . S
N455 C457 1.356 . S
N455 H460 0.984 . S
N455 H461 0.985 . S
C456 C450 1.379 . S
C456 C453 1.363 . S
C456 N454 1.356 . S
C457 C451 1.363 . S
C457 C452 1.379 . S
C457 N455 1.356 . S
N458 C450 1.356 . S
N458 H464 0.984 . S
N458 H465 0.984 . S
N459 C452 1.356 . S
N459 H462 0.984 . S
N459 H463 0.985 . S
H460 N455 0.984 . S
H461 N455 0.985 . S
H462 N459 0.984 . S
H463 N459 0.985 . S
H464 N458 0.984 . S
H465 N458 0.984 . S
H466 N454 0.984 . S
H467 N454 0.985 . S
C468 C469 1.363 . S
C468 C474 1.379 . S
C468 N476 1.356 . S
C469 C468 1.363 . S
C469 C475 1.363 . S
C470 C471 1.363 . S
C470 C475 1.379 . S
C470 N477 1.356 . S
C471 C470 1.363 . S
C471 C474 1.363 . S
N472 C474 1.356 . S
N472 H484 0.984 . S
N472 H485 0.985 . S
N473 C475 1.356 . S
N473 H478 0.984 . S
N473 H479 0.985 . S
C474 C468 1.379 . S
C474 C471 1.363 . S
C474 N472 1.356 . S
C475 C469 1.363 . S
C475 C470 1.379 . S
C475 N473 1.356 . S
N476 C468 1.356 . S
N476 H482 0.984 . S
N476 H483 0.984 . S
N477 C470 1.356 . S
N477 H480 0.984 . S
N477 H481 0.985 . S
H478 N473 0.984 . S
H479 N473 0.985 . S
H480 N477 0.984 . S
H481 N477 0.985 . S
H482 N476 0.984 . S
H483 N476 0.984 . S
H484 N472 0.984 . S
H485 N472 0.985 . S
C486 C487 1.363 . S
C486 C492 1.379 . S
C486 N494 1.356 1_455 S
C487 C486 1.363 . S
C487 C493 1.363 . S
C488 C489 1.363 . S
C488 C493 1.379 . S
C488 N495 1.356 . S
C489 C488 1.363 . S
C489 C492 1.363 . S
N490 C492 1.356 1_655 S
N490 H502 0.984 . S
N490 H503 0.985 . S
N491 C493 1.356 . S
N491 H496 0.984 . S
N491 H497 0.985 . S
C492 C486 1.379 . S
C492 C489 1.363 . S
C492 N490 1.356 1_455 S
C493 C487 1.363 . S
C493 C488 1.379 . S
C493 N491 1.356 . S
N494 C486 1.356 1_655 S
N494 H500 0.984 . S
N494 H501 0.984 1_655 S
N495 C488 1.356 . S
N495 H498 0.984 . S
N495 H499 0.985 . S
H496 N491 0.984 . S
H497 N491 0.985 . S
H498 N495 0.984 . S
H499 N495 0.985 . S
H500 N494 0.984 . S
H501 N494 0.984 1_455 S
H502 N490 0.984 . S
H503 N490 0.985 . S
C504 C505 1.363 . S
C504 C510 1.379 . S
C504 N512 1.356 . S
C505 C504 1.363 . S
C505 C511 1.363 1_565 S
C506 C507 1.357 1_545 S
C506 C511 1.379 . S
C506 N513 1.356 1_554 S
C507 C506 1.357 1_565 S
C507 C510 1.369 . S
N508 C510 1.356 . S
N508 H520 0.984 . S
N508 H521 0.985 1_554 S
N509 C511 1.356 . S
N509 H514 0.984 . S
N509 H515 0.985 . S
C510 C504 1.379 . S
C510 C507 1.369 . S
C510 N508 1.356 . S
C511 C505 1.363 1_545 S
C511 C506 1.379 . S
C511 N509 1.356 . S
N512 C504 1.356 . S
N512 H518 0.984 . S
N512 H519 0.984 . S
N513 C506 1.356 1_556 S
N513 H516 0.984 . S
N513 H517 0.985 . S
H514 N509 0.984 . S
H515 N509 0.985 . S
H516 N513 0.984 . S
H517 N513 0.985 . S
H518 N512 0.984 . S
H519 N512 0.984 . S
H520 N508 0.984 . S
H521 N508 0.985 1_556 S
C522 C523 1.363 . S
C522 C528 1.379 . S
C522 N530 1.356 . S
C523 C522 1.363 . S
C523 C529 1.363 . S
C524 C525 1.363 . S
C524 C529 1.379 . S
C524 N531 1.356 1_554 S
C525 C524 1.363 . S
C525 C528 1.363 . S
N526 C528 1.356 . S
N526 H538 0.984 . S
N526 H539 0.985 1_554 S
N527 C529 1.356 . S
N527 H532 0.984 . S
N527 H533 0.985 . S
C528 C522 1.379 . S
C528 C525 1.363 . S
C528 N526 1.356 . S
C529 C523 1.363 . S
C529 C524 1.379 . S
C529 N527 1.356 . S
N530 C522 1.356 . S
N530 H536 0.984 . S
N530 H537 0.984 . S
N531 C524 1.356 1_556 S
N531 H534 0.984 . S
N531 H535 0.985 . S
H532 N527 0.984 . S
H533 N527 0.985 . S
H534 N531 0.984 . S
H535 N531 0.985 . S
H536 N530 0.984 . S
H537 N530 0.984 . S
H538 N526 0.984 . S
H539 N526 0.985 1_556 S
C540 C541 1.363 . S
C540 C546 1.379 . S
C540 N548 1.356 . S
C541 C540 1.363 . S
C541 C547 1.363 . S
C542 C543 1.363 . S
C542 C547 1.379 . S
C542 N549 1.356 1_554 S
C543 C542 1.363 . S
C543 C546 1.363 . S
N544 C546 1.356 . S
N544 H556 0.984 . S
N544 H557 0.985 1_554 S
N545 C547 1.356 . S
N545 H550 0.984 . S
N545 H551 0.985 . S
C546 C540 1.379 . S
C546 C543 1.363 . S
C546 N544 1.356 . S
C547 C541 1.363 . S
C547 C542 1.379 . S
C547 N545 1.356 . S
N548 C540 1.356 . S
N548 H554 0.984 . S
N548 H555 0.984 . S
N549 C542 1.356 1_556 S
N549 H552 0.984 . S
N549 H553 0.985 . S
H550 N545 0.984 . S
H551 N545 0.985 . S
H552 N549 0.984 . S
H553 N549 0.985 . S
H554 N548 0.984 . S
H555 N548 0.984 . S
H556 N544 0.984 . S
H557 N544 0.985 1_556 S
C558 C559 1.363 1_455 S
C558 C564 1.379 . S
C558 N566 1.356 . S
C559 C558 1.363 1_655 S
C559 C565 1.363 . S
C560 C561 1.363 . S
C560 C565 1.379 . S
C560 N567 1.356 1_554 S
C561 C560 1.363 . S
C561 C564 1.363 1_655 S
N562 C564 1.356 . S
N562 H574 0.984 . S
N562 H575 0.985 1_554 S
N563 C565 1.356 . S
N563 H568 0.984 . S
N563 H569 0.985 . S
C564 C558 1.379 . S
C564 C561 1.363 1_455 S
C564 N562 1.356 . S
C565 C559 1.363 . S
C565 C560 1.379 . S
C565 N563 1.356 . S
N566 C558 1.356 . S
N566 H572 0.984 . S
N566 H573 0.984 . S
N567 C560 1.356 1_556 S
N567 H570 0.984 . S
N567 H571 0.985 . S
H568 N563 0.984 . S
H569 N563 0.985 . S
H570 N567 0.984 . S
H571 N567 0.985 . S
H572 N566 0.984 . S
H573 N566 0.984 . S
H574 N562 0.984 . S
H575 N562 0.985 1_556 S
C576 C577 1.363 . S
C576 C582 1.379 . S
C576 N584 1.356 . S
C577 C576 1.363 . S
C577 C583 1.363 . S
C578 C579 1.363 . S
C578 C583 1.379 1_655 S
C578 N585 1.356 . S
C579 C578 1.363 . S
C579 C582 1.363 1_655 S
N580 C582 1.356 . S
N580 H592 0.984 . S
N580 H593 0.985 . S
N581 C583 1.356 . S
N581 H586 0.984 . S
N581 H587 0.985 1_454 S
C582 C576 1.379 . S
C582 C579 1.363 1_455 S
C582 N580 1.356 . S
C583 C577 1.363 . S
C583 C578 1.379 1_455 S
C583 N581 1.356 . S
N584 C576 1.356 . S
N584 H590 0.984 . S
N584 H591 0.984 . S
N585 C578 1.356 . S
N585 H588 0.984 . S
N585 H589 0.985 . S
H586 N581 0.984 . S
H587 N581 0.985 1_656 S
H588 N585 0.984 . S
H589 N585 0.985 . S
H590 N584 0.984 . S
H591 N584 0.984 . S
H592 N580 0.984 . S
H593 N580 0.985 . S
C594 C595 1.363 . S
C594 C600 1.379 . S
C594 N602 1.356 . S
C595 C594 1.363 . S
C595 C601 1.363 . S
C596 C597 1.363 1_565 S
C596 C601 1.379 1_565 S
C596 N603 1.356 . S
C597 C596 1.363 1_545 S
C597 C600 1.363 . S
N598 C600 1.356 . S
N598 H610 0.984 . S
N598 H611 0.985 . S
N599 C601 1.356 . S
N599 H604 0.984 . S
N599 H605 0.985 1_545 S
C600 C594 1.379 . S
C600 C597 1.363 . S
C600 N598 1.356 . S
C601 C595 1.363 . S
C601 C596 1.379 1_545 S
C601 N599 1.356 . S
N602 C594 1.356 . S
N602 H608 0.984 . S
N602 H609 0.984 . S
N603 C596 1.356 . S
N603 H606 0.984 . S
N603 H607 0.985 . S
H604 N599 0.984 . S
H605 N599 0.985 1_565 S
H606 N603 0.984 . S
H607 N603 0.985 . S
H608 N602 0.984 . S
H609 N602 0.984 . S
H610 N598 0.984 . S
H611 N598 0.985 . S
C612 C613 1.363 . S
C612 C618 1.379 . S
C612 N620 1.356 . S
C613 C612 1.363 . S
C613 C619 1.363 . S
C614 C615 1.363 . S
C614 C619 1.379 . S
C614 N621 1.356 . S
C615 C614 1.363 . S
C615 C618 1.363 . S
N616 C618 1.356 . S
N616 H628 0.984 . S
N616 H629 0.985 . S
N617 C619 1.356 . S
N617 H622 0.984 . S
N617 H623 0.985 . S
C618 C612 1.379 . S
C618 C615 1.363 . S
C618 N616 1.356 . S
C619 C613 1.363 . S
C619 C614 1.379 . S
C619 N617 1.356 . S
N620 C612 1.356 . S
N620 H626 0.984 . S
N620 H627 0.984 . S
N621 C614 1.356 . S
N621 H624 0.984 . S
N621 H625 0.985 . S
H622 N617 0.984 . S
H623 N617 0.985 . S
H624 N621 0.984 . S
H625 N621 0.985 . S
H626 N620 0.984 . S
H627 N620 0.984 . S
H628 N616 0.984 . S
H629 N616 0.985 . S
C630 C631 1.363 . S
C630 C636 1.379 . S
C630 N638 1.356 . S
C631 C630 1.363 . S
C631 C637 1.363 . S
C632 C633 1.363 . S
C632 C637 1.379 . S
C632 N639 1.356 . S
C633 C632 1.363 . S
C633 C636 1.363 . S
N634 C636 1.356 . S
N634 H646 0.984 . S
N634 H647 0.985 . S
N635 C637 1.356 . S
N635 H640 0.984 . S
N635 H641 0.985 . S
C636 C630 1.379 . S
C636 C633 1.363 . S
C636 N634 1.356 . S
C637 C631 1.363 . S
C637 C632 1.379 . S
C637 N635 1.356 . S
N638 C630 1.356 . S
N638 H644 0.984 . S
N638 H645 0.984 . S
N639 C632 1.356 . S
N639 H642 0.984 . S
N639 H643 0.985 . S
H640 N635 0.984 . S
H641 N635 0.985 . S
H642 N639 0.984 . S
H643 N639 0.985 . S
H644 N638 0.984 . S
H645 N638 0.984 . S
H646 N634 0.984 . S
H647 N634 0.985 . S
C648 C649 1.363 1_455 S
C648 C654 1.379 . S
C648 N656 1.356 . S
C649 C648 1.363 1_655 S
C649 C655 1.363 . S
C650 C651 1.363 1_655 S
C650 C655 1.379 . S
C650 N657 1.356 1_655 S
C651 C650 1.363 1_455 S
C651 C654 1.363 . S
N652 C654 1.356 . S
N652 H664 0.984 . S
N652 H665 0.985 . S
N653 C655 1.356 . S
N653 H658 0.984 . S
N653 H659 0.985 . S
C654 C648 1.379 . S
C654 C651 1.363 . S
C654 N652 1.356 . S
C655 C649 1.363 . S
C655 C650 1.379 . S
C655 N653 1.356 . S
N656 C648 1.356 . S
N656 H662 0.984 . S
N656 H663 0.984 1_455 S
N657 C650 1.356 1_455 S
N657 H660 0.988 . S
N657 H661 0.981 1_455 S
H658 N653 0.984 . S
H659 N653 0.985 . S
H660 N657 0.988 . S
H661 N657 0.981 1_655 S
H662 N656 0.984 . S
H663 N656 0.984 1_655 S
H664 N652 0.984 . S
H665 N652 0.985 . S
C666 C667 1.363 . S
C666 C672 1.379 1_565 S
C666 N674 1.356 . S
C667 C666 1.363 . S
C667 C673 1.363 1_565 S
C668 C669 1.363 . S
C668 C673 1.379 . S
C668 N675 1.356 . S
C669 C668 1.363 . S
C669 C672 1.363 . S
N670 C672 1.356 . S
N670 H682 0.984 1_554 S
N670 H683 0.985 . S
N671 C673 1.356 1_565 S
N671 H676 0.984 . S
N671 H677 0.985 . S
C672 C666 1.379 1_545 S
C672 C669 1.363 . S
C672 N670 1.356 . S
C673 C667 1.363 1_545 S
C673 C668 1.379 . S
C673 N671 1.356 1_545 S
N674 C666 1.356 . S
N674 H680 0.984 . S
N674 H681 0.984 . S
N675 C668 1.356 . S
N675 H678 0.984 . S
N675 H679 0.985 . S
H676 N671 0.984 . S
H677 N671 0.985 . S
H678 N675 0.984 . S
H679 N675 0.985 . S
H680 N674 0.984 . S
H681 N674 0.984 . S
H682 N670 0.984 1_556 S
H683 N670 0.985 . S
C684 C685 1.363 . S
C684 C690 1.379 . S
C684 N692 1.356 . S
C685 C684 1.363 . S
C685 C691 1.363 . S
C686 C687 1.363 . S
C686 C691 1.379 . S
C686 N693 1.356 . S
C687 C686 1.363 . S
C687 C690 1.363 . S
N688 C690 1.356 . S
N688 H700 0.984 . S
N688 H701 0.985 . S
N689 C691 1.356 . S
N689 H694 0.984 . S
N689 H695 0.985 . S
C690 C684 1.379 . S
C690 C687 1.363 . S
C690 N688 1.356 . S
C691 C685 1.363 . S
C691 C686 1.379 . S
C691 N689 1.356 . S
N692 C684 1.356 . S
N692 H698 0.984 . S
N692 H699 0.984 . S
N693 C686 1.356 . S
N693 H696 0.984 . S
N693 H697 0.985 . S
H694 N689 0.984 . S
H695 N689 0.985 . S
H696 N693 0.984 . S
H697 N693 0.985 . S
H698 N692 0.984 . S
H699 N692 0.984 . S
H700 N688 0.984 . S
H701 N688 0.985 . S
C702 C703 1.363 . S
C702 C708 1.379 . S
C702 N710 1.356 . S
C703 C702 1.363 . S
C703 C709 1.363 . S
C704 C705 1.363 . S
C704 C709 1.379 . S
C704 N711 1.356 . S
C705 C704 1.363 . S
C705 C708 1.363 . S
N706 C708 1.356 . S
N706 H718 0.984 . S
N706 H719 0.985 . S
N707 C709 1.356 . S
N707 H712 0.984 . S
N707 H713 0.985 . S
C708 C702 1.379 . S
C708 C705 1.363 . S
C708 N706 1.356 . S
C709 C703 1.363 . S
C709 C704 1.379 . S
C709 N707 1.356 . S
N710 C702 1.356 . S
N710 H716 0.984 . S
N710 H717 0.984 . S
N711 C704 1.356 . S
N711 H714 0.984 . S
N711 H715 0.985 1_554 S
H712 N707 0.984 . S
H713 N707 0.985 . S
H714 N711 0.984 . S
H715 N711 0.985 1_556 S
H716 N710 0.984 . S
H717 N710 0.984 . S
H718 N706 0.984 . S
H719 N706 0.985 . S
C720 C721 1.363 . S
C720 C726 1.379 . S
C720 N728 1.356 1_556 S
C721 C720 1.363 . S
C721 C727 1.363 . S
C722 C723 1.363 . S
C722 C727 1.379 . S
C722 N729 1.356 1_455 S
C723 C722 1.363 . S
C723 C726 1.363 . S
N724 C726 1.356 . S
N724 H736 0.984 1_556 S
N724 H737 0.985 . S
N725 C727 1.349 1_655 S
N725 H730 0.980 1_655 S
N725 H731 0.996 . S
C726 C720 1.379 . S
C726 C723 1.363 . S
C726 N724 1.356 . S
C727 C721 1.363 . S
C727 C722 1.379 . S
C727 N725 1.349 1_455 S
N728 C720 1.356 1_554 S
N728 H734 0.984 . S
N728 H735 0.984 1_554 S
N729 C722 1.356 1_655 S
N729 H732 0.987 . S
N729 H733 0.985 . S
H730 N725 0.980 1_455 S
H731 N725 0.996 . S
H732 N729 0.987 . S
H733 N729 0.985 . S
H734 N728 0.984 . S
H735 N728 0.984 1_556 S
H736 N724 0.984 1_554 S
H737 N724 0.985 . S
C738 C739 1.363 . S
C738 C744 1.379 . S
C738 N746 1.356 . S
C739 C738 1.363 . S
C739 C745 1.363 . S
C740 C741 1.363 . S
C740 C745 1.379 . S
C740 N747 1.356 1_556 S
C741 C740 1.363 . S
C741 C744 1.363 . S
N742 C744 1.356 . S
N742 H754 0.984 . S
N742 H755 0.985 . S
N743 C745 1.356 1_554 S
N743 H748 0.984 . S
N743 H749 0.985 . S
C744 C738 1.379 . S
C744 C741 1.363 . S
C744 N742 1.356 . S
C745 C739 1.363 . S
C745 C740 1.379 . S
C745 N743 1.356 1_556 S
N746 C738 1.356 . S
N746 H752 0.984 . S
N746 H753 0.984 . S
N747 C740 1.356 1_554 S
N747 H750 0.984 1_554 S
N747 H751 0.985 . S
H748 N743 0.984 . S
H749 N743 0.985 . S
H750 N747 0.984 1_556 S
H751 N747 0.985 . S
H752 N746 0.984 . S
H753 N746 0.984 . S
H754 N742 0.984 . S
H755 N742 0.985 . S
C756 C757 1.363 . S
C756 C762 1.379 . S
C756 N764 1.354 1_556 S
C757 C756 1.363 . S
C757 C763 1.363 . S
C758 C759 1.363 . S
C758 C763 1.379 . S
C758 N765 1.356 . S
C759 C758 1.363 . S
C759 C762 1.363 . S
N760 C762 1.356 . S
N760 H772 0.984 1_556 S
N760 H773 0.985 . S
N761 C763 1.356 . S
N761 H766 0.984 . S
N761 H767 0.985 . S
C762 C756 1.379 . S
C762 C759 1.363 . S
C762 N760 1.356 . S
C763 C757 1.363 . S
C763 C758 1.379 . S
C763 N761 1.356 . S
N764 C756 1.354 1_554 S
N764 H770 0.987 . S
N764 H771 0.984 1_554 S
N765 C758 1.356 . S
N765 H768 0.984 . S
N765 H769 0.985 . S
H766 N761 0.984 . S
H767 N761 0.985 . S
H768 N765 0.984 . S
H769 N765 0.985 . S
H770 N764 0.987 . S
H771 N764 0.984 1_556 S
H772 N760 0.984 1_554 S
H773 N760 0.985 . S
C774 C775 1.363 . S
C774 C780 1.379 . S
C774 N782 1.356 . S
C775 C774 1.363 . S
C775 C781 1.363 . S
C776 C777 1.363 . S
C776 C781 1.379 . S
C776 N783 1.356 1_556 S
C777 C776 1.363 . S
C777 C780 1.363 . S
N778 C780 1.356 . S
N778 H790 0.984 . S
N778 H791 0.985 . S
N779 C781 1.356 1_554 S
N779 H784 0.984 . S
N779 H785 0.985 . S
C780 C774 1.379 . S
C780 C777 1.363 . S
C780 N778 1.356 . S
C781 C775 1.363 . S
C781 C776 1.379 . S
C781 N779 1.356 1_556 S
N782 C774 1.356 . S
N782 H788 0.984 . S
N782 H789 0.984 . S
N783 C776 1.356 1_554 S
N783 H786 0.984 1_554 S
N783 H787 0.985 . S
H784 N779 0.984 . S
H785 N779 0.985 . S
H786 N783 0.984 1_556 S
H787 N783 0.985 . S
H788 N782 0.984 . S
H789 N782 0.984 . S
H790 N778 0.984 . S
H791 N778 0.985 . S
C792 C793 1.363 . S
C792 C798 1.379 . S
C792 N800 1.356 . S
C793 C792 1.363 . S
C793 C799 1.363 1_655 S
C794 C795 1.363 1_455 S
C794 C799 1.379 . S
C794 N801 1.356 . S
C795 C794 1.363 1_655 S
C795 C798 1.363 . S
N796 C798 1.356 . S
N796 H808 0.984 . S
N796 H809 0.985 . S
N797 C799 1.356 . S
N797 H802 0.984 . S
N797 H803 0.985 . S
C798 C792 1.379 . S
C798 C795 1.363 . S
C798 N796 1.356 . S
C799 C793 1.363 1_455 S
C799 C794 1.379 . S
C799 N797 1.356 . S
N800 C792 1.356 . S
N800 H806 0.984 . S
N800 H807 0.984 . S
N801 C794 1.356 . S
N801 H804 0.984 . S
N801 H805 0.985 . S
H802 N797 0.984 . S
H803 N797 0.985 . S
H804 N801 0.984 . S
H805 N801 0.985 . S
H806 N800 0.984 . S
H807 N800 0.984 . S
H808 N796 0.984 . S
H809 N796 0.985 . S
C810 C811 1.363 . S
C810 C816 1.379 . S
C810 N818 1.356 . S
C811 C810 1.363 . S
C811 C817 1.363 1_565 S
C812 C813 1.363 1_545 S
C812 C817 1.379 . S
C812 N819 1.356 . S
C813 C812 1.363 1_565 S
C813 C816 1.363 . S
N814 C816 1.356 . S
N814 H826 0.984 . S
N814 H827 0.985 . S
N815 C817 1.356 . S
N815 H820 0.984 . S
N815 H821 0.985 . S
C816 C810 1.379 . S
C816 C813 1.363 . S
C816 N814 1.356 . S
C817 C811 1.363 1_545 S
C817 C812 1.379 . S
C817 N815 1.356 . S
N818 C810 1.356 . S
N818 H824 0.984 . S
N818 H825 0.984 . S
N819 C812 1.356 . S
N819 H822 0.984 . S
N819 H823 0.985 . S
H820 N815 0.984 . S
H821 N815 0.985 . S
H822 N819 0.984 . S
H823 N819 0.985 . S
H824 N818 0.984 . S
H825 N818 0.984 . S
H826 N814 0.984 . S
H827 N814 0.985 . S
C828 C829 1.363 . S
C828 C834 1.379 . S
C828 N836 1.356 . S
C829 C828 1.363 . S
C829 C835 1.363 . S
C830 C831 1.363 . S
C830 C835 1.379 . S
C830 N837 1.356 . S
C831 C830 1.363 . S
C831 C834 1.363 . S
N832 C834 1.356 . S
N832 H844 0.984 . S
N832 H845 0.985 . S
N833 C835 1.356 . S
N833 H838 0.984 . S
N833 H839 0.985 . S
C834 C828 1.379 . S
C834 C831 1.363 . S
C834 N832 1.356 . S
C835 C829 1.363 . S
C835 C830 1.379 . S
C835 N833 1.356 . S
N836 C828 1.356 . S
N836 H842 0.984 . S
N836 H843 0.984 . S
N837 C830 1.356 . S
N837 H840 0.984 . S
N837 H841 0.985 . S
H838 N833 0.984 . S
H839 N833 0.985 . S
H840 N837 0.984 . S
H841 N837 0.985 . S
H842 N836 0.984 . S
H843 N836 0.984 . S
H844 N832 0.984 . S
H845 N832 0.985 . S
C846 C847 1.363 . S
C846 C852 1.379 . S
C846 N854 1.356 . S
C847 C846 1.363 . S
C847 C853 1.363 . S
C848 C849 1.363 . S
C848 C853 1.379 . S
C848 N855 1.356 . S
C849 C848 1.363 . S
C849 C852 1.363 . S
N850 C852 1.356 . S
N850 H862 0.984 . S
N850 H863 0.985 . S
N851 C853 1.356 . S
N851 H856 0.984 . S
N851 H857 0.985 . S
C852 C846 1.379 . S
C852 C849 1.363 . S
C852 N850 1.356 . S
C853 C847 1.363 . S
C853 C848 1.379 . S
C853 N851 1.356 . S
N854 C846 1.356 . S
N854 H860 0.984 . S
N854 H861 0.984 . S
N855 C848 1.356 . S
N855 H858 0.984 . S
N855 H859 0.985 . S
H856 N851 0.984 . S
H857 N851 0.985 . S
H858 N855 0.984 . S
H859 N855 0.985 . S
H860 N854 0.984 . S
H861 N854 0.984 . S
H862 N850 0.984 . S
H863 N850 0.985 . S
C433 C76 1.954 . S
C435 C159 2.194 . S
C453 C236 2.197 . S
C451 C88 1.954 . S
C471 C327 2.195 . S
C469 C52 1.953 . S
C489 C411 2.181 . S
C487 C64 1.943 . S
C507 C170 2.192 1_564 S
C505 C28 1.961 . S
C523 C40 1.960 . S
C525 C247 2.196 1_554 S
C541 C4 1.958 . S
C543 C338 2.194 1_554 S
C559 C16 1.950 . S
C561 C422 2.182 1_654 S
C579 C154 0.757 . S
C577 C69 0.757 . S
C597 C249 0.745 1_545 S
C595 C81 0.745 . S
C615 C322 0.763 . S
C613 C93 0.762 . S
C631 C57 0.745 . S
C633 C406 0.745 . S
C649 C21 0.757 . S
C651 C165 0.757 . S
C669 C238 0.745 . S
C667 C33 0.745 . S
C687 C333 0.764 . S
C685 C45 0.763 . S
C703 C9 0.745 . S
C705 C417 0.745 . S
C721 C66 2.044 . S
C723 C163 2.301 . S
C739 C78 2.050 . S
C741 C254 2.350 . S
C759 C331 2.317 . S
C757 C90 2.057 . S
C777 C415 2.320 . S
C775 C54 2.062 . S
C793 C18 2.040 . S
C795 C152 2.302 . S
C813 C243 2.347 1_565 S
C811 C30 2.044 . S
C831 C320 2.317 . S
C829 C42 2.053 . S
C847 C6 2.058 . S
C849 C404 2.320 . S
