# Generated by pormake.
# Topology pyr, (3,6)-cn, num edge types: 1
# Building blocks:
#     Node 0, Type 0, BuildingBlock: VETTIZ_charged_linker_0, # of connection points: 3
#     Node 1, Type 0, BuildingBlock: VETTIZ_charged_linker_0, # of connection points: 3
#     Node 2, Type 0, BuildingBlock: VETTIZ_charged_linker_0, # of connection points: 3
#     Node 3, Type 0, BuildingBlock: VETTIZ_charged_linker_0, # of connection points: 3
#     Node 4, Type 0, BuildingBlock: VETTIZ_charged_linker_0, # of connection points: 3
#     Node 5, Type 0, BuildingBlock: VETTIZ_charged_linker_0, # of connection points: 3
#     Node 6, Type 0, BuildingBlock: VETTIZ_charged_linker_0, # of connection points: 3
#     Node 7, Type 0, BuildingBlock: VETTIZ_charged_linker_0, # of connection points: 3
#     Node 8, Type 1, BuildingBlock: BETDEL_clean_sbu_0, # of connection points: 6
#     Node 9, Type 1, BuildingBlock: BETDEL_clean_sbu_0, # of connection points: 6
#     Node 10, Type 1, BuildingBlock: BETDEL_clean_sbu_0, # of connection points: 6
#     Node 11, Type 1, BuildingBlock: BETDEL_clean_sbu_0, # of connection points: 6
#     Edge 12, Type (0, 1), BuildingBlock: CIFDUS_clean_linker_0, # of connection points: 2
#     Edge 13, Type (0, 1), BuildingBlock: CIFDUS_clean_linker_0, # of connection points: 2
#     Edge 14, Type (0, 1), BuildingBlock: CIFDUS_clean_linker_0, # of connection points: 2
#     Edge 15, Type (0, 1), BuildingBlock: CIFDUS_clean_linker_0, # of connection points: 2
#     Edge 16, Type (0, 1), BuildingBlock: CIFDUS_clean_linker_0, # of connection points: 2
#     Edge 17, Type (0, 1), BuildingBlock: CIFDUS_clean_linker_0, # of connection points: 2
#     Edge 18, Type (0, 1), BuildingBlock: CIFDUS_clean_linker_0, # of connection points: 2
#     Edge 19, Type (0, 1), BuildingBlock: CIFDUS_clean_linker_0, # of connection points: 2
#     Edge 20, Type (0, 1), BuildingBlock: CIFDUS_clean_linker_0, # of connection points: 2
#     Edge 21, Type (0, 1), BuildingBlock: CIFDUS_clean_linker_0, # of connection points: 2
#     Edge 22, Type (0, 1), BuildingBlock: CIFDUS_clean_linker_0, # of connection points: 2
#     Edge 23, Type (0, 1), BuildingBlock: CIFDUS_clean_linker_0, # of connection points: 2
#     Edge 24, Type (0, 1), BuildingBlock: CIFDUS_clean_linker_0, # of connection points: 2
#     Edge 25, Type (0, 1), BuildingBlock: CIFDUS_clean_linker_0, # of connection points: 2
#     Edge 26, Type (0, 1), BuildingBlock: CIFDUS_clean_linker_0, # of connection points: 2
#     Edge 27, Type (0, 1), BuildingBlock: CIFDUS_clean_linker_0, # of connection points: 2
#     Edge 28, Type (0, 1), BuildingBlock: CIFDUS_clean_linker_0, # of connection points: 2
#     Edge 29, Type (0, 1), BuildingBlock: CIFDUS_clean_linker_0, # of connection points: 2
#     Edge 30, Type (0, 1), BuildingBlock: CIFDUS_clean_linker_0, # of connection points: 2
#     Edge 31, Type (0, 1), BuildingBlock: CIFDUS_clean_linker_0, # of connection points: 2
#     Edge 32, Type (0, 1), BuildingBlock: CIFDUS_clean_linker_0, # of connection points: 2
#     Edge 33, Type (0, 1), BuildingBlock: CIFDUS_clean_linker_0, # of connection points: 2
#     Edge 34, Type (0, 1), BuildingBlock: CIFDUS_clean_linker_0, # of connection points: 2
#     Edge 35, Type (0, 1), BuildingBlock: CIFDUS_clean_linker_0, # of connection points: 2
# Relax obj value: 0.030
# Max RMSD: 0.091
# Mean RMSD: 0.039
data_MOF--net-pyr--node1-BETDEL_clean_sbu_0--node2-VETTIZ_charged_linker_0--edge1-CIFDUS_clean_linker_0
_symmetry_space_group_name_H-M    P1
_symmetry_Int_Tables_number       1
_symmetry_cell_setting            triclinic
loop_
_symmetry_equiv_pos_as_xyz
'x, y, z'
_cell_length_a     40.304882
_cell_length_b     41.863059
_cell_length_c     38.793759
_cell_angle_alpha  91.148575
_cell_angle_beta   88.947876
_cell_angle_gamma 94.942441
loop_
_atom_site_label
_atom_site_type_symbol
_atom_site_fract_x
_atom_site_fract_y
_atom_site_fract_z
_atom_type_partial_charge
C0 C 0.19962 0.16011 0.29569 0.0
C1 C 0.16949 0.16797 0.31096 0.0
C2 C 0.15544 0.19592 0.30091 0.0
C3 C 0.19974 0.20594 0.2586 0.0
C4 C 0.21418 0.17928 0.26957 0.0
C5 C 0.24436 0.17241 0.24837 0.0
H6 H 0.33617 0.19662 0.10277 0.0
C7 C 0.21897 0.21837 0.22837 0.0
C8 C 0.24497 0.19871 0.22202 0.0
H9 H 0.34375 0.1249 0.18025 0.0
H10 H 0.30245 0.14878 0.21548 0.0
H11 H 0.32831 0.2582 0.16189 0.0
H12 H 0.25914 0.19545 0.10292 0.0
H13 H 0.24568 0.2342 0.10263 0.0
H14 H 0.28534 0.22707 0.08313 0.0
H15 H 0.32573 0.26021 0.11582 0.0
H16 H 0.29841 0.28106 0.14403 0.0
C17 C 0.275 0.17693 0.27206 0.0
C18 C 0.23811 0.13835 0.23182 0.0
C19 C 0.1772 0.31002 0.16297 0.0
C20 C 0.18682 0.32447 0.13151 0.0
C21 C 0.21577 0.31515 0.11432 0.0
C22 C 0.23409 0.29131 0.12762 0.0
C23 C 0.2232 0.27613 0.15821 0.0
C24 C 0.1955 0.28597 0.17563 0.0
C25 C 0.18695 0.26674 0.20728 0.0
C26 C 0.21392 0.24356 0.20577 0.0
C27 C 0.23519 0.24906 0.17702 0.0
C28 C 0.19079 0.28965 0.23907 0.0
C29 C 0.15142 0.24956 0.20311 0.0
C30 C 0.32912 0.18635 0.12752 0.0
C31 C 0.3428 0.15839 0.13842 0.0
C32 C 0.33305 0.14587 0.17086 0.0
C33 C 0.30911 0.15987 0.19137 0.0
C34 C 0.29425 0.18656 0.1793 0.0
C35 C 0.30487 0.19998 0.14834 0.0
C36 C 0.28593 0.2284 0.13999 0.0
C37 C 0.26143 0.22888 0.17029 0.0
C38 C 0.26655 0.20423 0.1931 0.0
C39 C 0.31075 0.25869 0.14014 0.0
C40 C 0.26817 0.22127 0.10528 0.0
H41 H 0.15822 0.23559 0.26784 0.0
H42 H 0.21071 0.13848 0.30251 0.0
H43 H 0.21105 0.13143 0.22858 0.0
H44 H 0.24869 0.1366 0.20546 0.0
H45 H 0.24815 0.11995 0.24801 0.0
H46 H 0.27314 0.1979 0.28986 0.0
H47 H 0.27685 0.15548 0.28809 0.0
H48 H 0.29866 0.18213 0.25761 0.0
H49 H 0.1555 0.31682 0.17729 0.0
H50 H 0.22376 0.32553 0.0899 0.0
H51 H 0.25557 0.28505 0.1131 0.0
H52 H 0.21387 0.30611 0.2366 0.0
H53 H 0.16938 0.3046 0.24163 0.0
H54 H 0.19329 0.27695 0.26344 0.0
H55 H 0.14411 0.2473 0.17559 0.0
H56 H 0.14954 0.22456 0.21215 0.0
H57 H 0.13239 0.26288 0.21695 0.0
H58 H 0.13243 0.20264 0.31273 0.0
C59 C 0.17049 0.21503 0.27487 0.0
C60 C 0.23353 0.8843 0.56226 0.0
C61 C 0.21618 0.90927 0.57675 0.0
C62 C 0.22977 0.92687 0.60531 0.0
C63 C 0.27647 0.89472 0.60482 0.0
C64 C 0.26338 0.87722 0.577 0.0
C65 C 0.28354 0.84968 0.56724 0.0
H66 H 0.41565 0.76721 0.59991 0.0
C67 C 0.30664 0.8806 0.61525 0.0
C68 C 0.31122 0.85426 0.59342 0.0
H69 H 0.33575 0.74298 0.52743 0.0
H70 H 0.31321 0.79223 0.54132 0.0
H71 H 0.42653 0.84137 0.59049 0.0
H72 H 0.36328 0.78292 0.65916 0.0
H73 H 0.38027 0.81599 0.68334 0.0
H74 H 0.40762 0.7887 0.66384 0.0
H75 H 0.4425 0.82208 0.62683 0.0
H76 H 0.42718 0.86128 0.63085 0.0
C77 C 0.2969 0.8545 0.5299 0.0
C78 C 0.26116 0.81808 0.57264 0.0
C79 C 0.36544 0.92474 0.72178 0.0
C80 C 0.39275 0.91552 0.73978 0.0
C81 C 0.41154 0.89139 0.72563 0.0
C82 C 0.4023 0.87575 0.69461 0.0
C83 C 0.37389 0.88425 0.67776 0.0
C84 C 0.35652 0.90887 0.69103 0.0
C85 C 0.32683 0.91452 0.67014 0.0
C86 C 0.32878 0.88875 0.64246 0.0
C87 C 0.35619 0.87102 0.64707 0.0
C88 C 0.33254 0.94868 0.65514 0.0
C89 C 0.29522 0.90871 0.69356 0.0
C90 C 0.39282 0.77123 0.58729 0.0
C91 C 0.37792 0.74962 0.5625 0.0
C92 C 0.34887 0.75836 0.54623 0.0
C93 C 0.33505 0.78707 0.55482 0.0
C94 C 0.34921 0.80686 0.58113 0.0
C95 C 0.37753 0.79872 0.59696 0.0
C96 C 0.38765 0.821 0.62647 0.0
C97 C 0.36113 0.84439 0.62507 0.0
C98 C 0.3387 0.836 0.59844 0.0
C99 C 0.42289 0.83725 0.6186 0.0
C100 C 0.38488 0.80136 0.66007 0.0
H101 H 0.26875 0.93454 0.64054 0.0
H102 H 0.22405 0.8703 0.54026 0.0
H103 H 0.24305 0.82064 0.59431 0.0
H104 H 0.27527 0.79791 0.58009 0.0
H105 H 0.24666 0.81112 0.54918 0.0
H106 H 0.30554 0.88012 0.52569 0.0
H107 H 0.27717 0.84747 0.51091 0.0
H108 H 0.31871 0.84101 0.52391 0.0
H109 H 0.35025 0.94289 0.73219 0.0
H110 H 0.43307 0.88426 0.73888 0.0
H111 H 0.41716 0.85719 0.68538 0.0
H112 H 0.35943 0.95514 0.64947 0.0
H113 H 0.324 0.967 0.6736 0.0
H114 H 0.32022 0.95087 0.63018 0.0
H115 H 0.29886 0.89096 0.71383 0.0
H116 H 0.27322 0.89816 0.67947 0.0
H117 H 0.28894 0.93123 0.70681 0.0
H118 H 0.21673 0.94548 0.61799 0.0
C119 C 0.25999 0.92014 0.6189 0.0
C120 C 0.625 0.23801 0.89898 0.0
C121 C 0.5961 0.21965 0.88817 0.0
C122 C 0.57899 0.23017 0.85956 0.0
C123 C 0.61919 0.27659 0.85369 0.0
C124 C 0.636 0.26606 0.88152 0.0
C125 C 0.66654 0.28765 0.88987 0.0
H126 H 0.76819 0.42118 0.85966 0.0
C127 C 0.63743 0.30684 0.84159 0.0
C128 C 0.66531 0.31312 0.86282 0.0
H129 H 0.7778 0.34918 0.93646 0.0
H130 H 0.72831 0.31922 0.9158 0.0
H131 H 0.68836 0.42358 0.86917 0.0
H132 H 0.74805 0.37186 0.79794 0.0
H133 H 0.71495 0.38469 0.77455 0.0
H134 H 0.74437 0.41409 0.7944 0.0
H135 H 0.71266 0.4429 0.83506 0.0
H136 H 0.67076 0.4254 0.82824 0.0
C137 C 0.66193 0.30156 0.92681 0.0
C138 C 0.69737 0.26815 0.88481 0.0
C139 C 0.59609 0.36824 0.73984 0.0
C140 C 0.60878 0.39664 0.72354 0.0
C141 C 0.63757 0.41371 0.73662 0.0
C142 C 0.65381 0.40273 0.76518 0.0
C143 C 0.64136 0.37412 0.78098 0.0
C144 C 0.61279 0.35742 0.76851 0.0
C145 C 0.60367 0.32724 0.78859 0.0
C146 C 0.63152 0.32858 0.81488 0.0
C147 C 0.65355 0.35619 0.81015 0.0
C148 C 0.56921 0.33019 0.80594 0.0
C149 C 0.60483 0.29815 0.76352 0.0
C150 C 0.75953 0.39906 0.87221 0.0
C151 C 0.77723 0.38767 0.89987 0.0
C152 C 0.76516 0.35843 0.91488 0.0
C153 C 0.73611 0.34112 0.90297 0.0
C154 C 0.71858 0.35299 0.87562 0.0
C155 C 0.73047 0.38141 0.86057 0.0
C156 C 0.70876 0.39004 0.83147 0.0
C157 C 0.68183 0.36223 0.83165 0.0
C158 C 0.6877 0.34074 0.85768 0.0
C159 C 0.69444 0.42226 0.8411 0.0
C160 C 0.72996 0.3905 0.79773 0.0
H161 H 0.5762 0.26502 0.82082 0.0
H162 H 0.63923 0.23046 0.92031 0.0
H163 H 0.69296 0.24897 0.86473 0.0
H164 H 0.71965 0.28288 0.87536 0.0
H165 H 0.70346 0.25643 0.90906 0.0
H166 H 0.63575 0.30736 0.93137 0.0
H167 H 0.66772 0.28408 0.94653 0.0
H168 H 0.67715 0.32436 0.93154 0.0
H169 H 0.57419 0.35447 0.73001 0.0
H170 H 0.64784 0.43545 0.72427 0.0
H171 H 0.67578 0.4168 0.77358 0.0
H172 H 0.56778 0.3546 0.81744 0.0
H173 H 0.549 0.32606 0.78685 0.0
H174 H 0.56401 0.31355 0.8274 0.0
H175 H 0.6267 0.30152 0.74564 0.0
H176 H 0.60779 0.27555 0.7768 0.0
H177 H 0.58206 0.29505 0.74767 0.0
H178 H 0.5565 0.21671 0.85068 0.0
C179 C 0.59034 0.25842 0.84232 0.0
C180 C 0.91644 0.75876 0.37086 0.0
C181 C 0.90524 0.77828 0.39797 0.0
C182 C 0.87688 0.76675 0.41745 0.0
C183 C 0.87139 0.71773 0.38288 0.0
C184 C 0.89917 0.72877 0.36378 0.0
C185 C 0.90698 0.70555 0.33516 0.0
H186 H 0.86178 0.57001 0.2424 0.0
C187 C 0.85841 0.68631 0.3681 0.0
C188 C 0.87904 0.67912 0.33988 0.0
H189 H 0.94632 0.63891 0.22438 0.0
H190 H 0.93241 0.66828 0.27602 0.0
H191 H 0.87168 0.5668 0.32489 0.0
H192 H 0.8099 0.62091 0.26275 0.0
H193 H 0.78564 0.60646 0.29807 0.0
H194 H 0.80223 0.57837 0.26792 0.0
H195 H 0.83534 0.54857 0.30384 0.0
H196 H 0.83286 0.5671 0.34612 0.0
C197 C 0.94144 0.69348 0.34203 0.0
C198 C 0.90471 0.72274 0.30041 0.0
C199 C 0.75501 0.62653 0.42105 0.0
C200 C 0.73641 0.59781 0.41191 0.0
C201 C 0.74631 0.57993 0.38303 0.0
C202 C 0.77466 0.59036 0.3635 0.0
C203 C 0.79307 0.61927 0.37269 0.0
C204 C 0.78309 0.63687 0.401 0.0
C205 C 0.80514 0.66739 0.40633 0.0
C206 C 0.83043 0.66485 0.37704 0.0
C207 C 0.82321 0.63663 0.3574 0.0
C208 C 0.82139 0.66616 0.44209 0.0
C209 C 0.78364 0.69599 0.40195 0.0
C210 C 0.87716 0.59161 0.24924 0.0
C211 C 0.90504 0.60217 0.22869 0.0
C212 C 0.92481 0.62995 0.23953 0.0
C213 C 0.91648 0.64725 0.26944 0.0
C214 C 0.88787 0.637 0.28886 0.0
C215 C 0.8691 0.60926 0.27894 0.0
C216 C 0.83996 0.60149 0.30304 0.0
C217 C 0.84379 0.62954 0.32855 0.0
C218 C 0.8718 0.65043 0.32005 0.0
C219 C 0.84483 0.56922 0.32034 0.0
C220 C 0.8076 0.60152 0.28207 0.0
H221 H 0.83878 0.72959 0.42605 0.0
H222 H 0.93824 0.76653 0.35551 0.0
H223 H 0.88409 0.7388 0.30124 0.0
H224 H 0.8989 0.70608 0.27855 0.0
H225 H 0.92817 0.73767 0.29447 0.0
H226 H 0.94467 0.68991 0.37008 0.0
H227 H 0.9619 0.71104 0.33315 0.0
H228 H 0.94463 0.66989 0.32975 0.0
H229 H 0.74763 0.64076 0.44307 0.0
H230 H 0.73216 0.5577 0.37577 0.0
H231 H 0.78105 0.57554 0.34193 0.0
H232 H 0.82893 0.6417 0.44688 0.0
H233 H 0.80373 0.67222 0.46306 0.0
H234 H 0.84447 0.6822 0.44439 0.0
H235 H 0.76374 0.6901 0.38276 0.0
H236 H 0.79799 0.71749 0.39169 0.0
H237 H 0.77133 0.70238 0.42668 0.0
H238 H 0.86712 0.78125 0.43806 0.0
C239 C 0.86012 0.73671 0.41021 0.0
C240 C 0.80281 0.70005 0.88031 0.0
C241 C 0.83046 0.68463 0.86761 0.0
C242 C 0.84172 0.69038 0.83349 0.0
C243 C 0.80222 0.73009 0.82755 0.0
C244 C 0.78889 0.72249 0.85966 0.0
C245 C 0.76011 0.74204 0.86897 0.0
H246 H 0.67623 0.87214 0.83585 0.0
C247 C 0.78536 0.75711 0.81448 0.0
C248 C 0.76024 0.76417 0.83834 0.0
H249 H 0.65833 0.80666 0.91989 0.0
H250 H 0.70042 0.77357 0.89654 0.0
H251 H 0.68378 0.81422 0.77519 0.0
H252 H 0.74772 0.87878 0.83596 0.0
H253 H 0.77255 0.87068 0.79989 0.0
H254 H 0.73459 0.88985 0.79437 0.0
H255 H 0.68937 0.85691 0.7702 0.0
H256 H 0.71599 0.83055 0.74783 0.0
C257 C 0.72798 0.71906 0.8704 0.0
C258 C 0.7681 0.76061 0.9031 0.0
C259 C 0.83916 0.82038 0.71566 0.0
C260 C 0.83363 0.8505 0.70279 0.0
C261 C 0.80435 0.86473 0.71283 0.0
C262 C 0.78196 0.84999 0.73661 0.0
C263 C 0.78932 0.82126 0.75141 0.0
C264 C 0.81699 0.80646 0.74024 0.0
C265 C 0.82159 0.77677 0.75995 0.0
C266 C 0.79297 0.7772 0.78599 0.0
C267 C 0.7742 0.80325 0.78068 0.0
C268 C 0.81699 0.74769 0.7346 0.0
C269 C 0.85628 0.78142 0.77705 0.0
C270 C 0.68136 0.85057 0.84903 0.0
C271 C 0.66452 0.84199 0.87979 0.0
C272 C 0.67143 0.81368 0.89624 0.0
C273 C 0.69579 0.79461 0.88266 0.0
C274 C 0.71336 0.80403 0.85235 0.0
C275 C 0.70539 0.83123 0.83571 0.0
C276 C 0.72621 0.83769 0.8038 0.0
C277 C 0.74822 0.81007 0.80406 0.0
C278 C 0.74087 0.79044 0.8326 0.0
C279 C 0.70278 0.83497 0.77245 0.0
C280 C 0.74622 0.87094 0.80841 0.0
H281 H 0.83826 0.71689 0.78818 0.0
H282 H 0.79311 0.69582 0.90617 0.0
H283 H 0.79456 0.77067 0.9031 0.0
H284 H 0.75332 0.78133 0.90725 0.0
H285 H 0.76402 0.74459 0.92553 0.0
H286 H 0.72834 0.70032 0.84967 0.0
H287 H 0.72539 0.70673 0.89551 0.0
H288 H 0.70531 0.73132 0.86587 0.0
H289 H 0.861 0.80848 0.70794 0.0
H290 H 0.79939 0.88809 0.70371 0.0
H291 H 0.76059 0.86235 0.74365 0.0
H292 H 0.79903 0.75198 0.71408 0.0
H293 H 0.84092 0.7429 0.72169 0.0
H294 H 0.80612 0.72567 0.74724 0.0
H295 H 0.86151 0.80655 0.78665 0.0
H296 H 0.85854 0.76666 0.79989 0.0
H297 H 0.87641 0.7763 0.75832 0.0
H298 H 0.86196 0.67792 0.82242 0.0
C299 C 0.82775 0.71291 0.81346 0.0
C300 C 0.77193 0.13175 0.44571 0.0
C301 C 0.78868 0.1065 0.4311 0.0
C302 C 0.77437 0.08864 0.40307 0.0
C303 C 0.72865 0.12207 0.40344 0.0
C304 C 0.74216 0.1393 0.43128 0.0
C305 C 0.72228 0.16678 0.44186 0.0
H306 H 0.59059 0.25148 0.41019 0.0
C307 C 0.69906 0.13713 0.39295 0.0
C308 C 0.69496 0.16334 0.41535 0.0
H309 H 0.66236 0.27011 0.49088 0.0
H310 H 0.69103 0.2239 0.47156 0.0
H311 H 0.58062 0.17597 0.41598 0.0
H312 H 0.64169 0.24163 0.35385 0.0
H313 H 0.63403 0.20783 0.32691 0.0
H314 H 0.59955 0.22912 0.34274 0.0
H315 H 0.5651 0.19781 0.38127 0.0
H316 H 0.58027 0.15888 0.37431 0.0
C317 C 0.70854 0.16092 0.47889 0.0
C318 C 0.74485 0.19839 0.43784 0.0
C319 C 0.63659 0.09533 0.28657 0.0
C320 C 0.60949 0.10639 0.26953 0.0
C321 C 0.59469 0.13348 0.28258 0.0
C322 C 0.60627 0.14911 0.3125 0.0
C323 C 0.6332 0.13781 0.32945 0.0
C324 C 0.64804 0.11148 0.31649 0.0
C325 C 0.67724 0.10396 0.3375 0.0
C326 C 0.67726 0.13027 0.36507 0.0
C327 C 0.65129 0.14961 0.36019 0.0
C328 C 0.66921 0.07025 0.35292 0.0
C329 C 0.70889 0.10729 0.31395 0.0
C330 C 0.61215 0.24523 0.42408 0.0
C331 C 0.62395 0.26357 0.45243 0.0
C332 C 0.65278 0.25572 0.46917 0.0
C333 C 0.66928 0.22907 0.45787 0.0
C334 C 0.657 0.21083 0.42922 0.0
C335 C 0.62901 0.21936 0.41286 0.0
C336 C 0.62001 0.19882 0.38199 0.0
C337 C 0.64655 0.1756 0.38293 0.0
C338 C 0.66826 0.1826 0.41042 0.0
C339 C 0.58461 0.18204 0.38833 0.0
C340 C 0.62371 0.22026 0.34962 0.0
H341 H 0.73482 0.08159 0.36818 0.0
H342 H 0.78188 0.14563 0.4676 0.0
H343 H 0.76102 0.19728 0.41436 0.0
H344 H 0.73068 0.21945 0.43438 0.0
H345 H 0.76133 0.20289 0.46038 0.0
H346 H 0.69991 0.13519 0.48226 0.0
H347 H 0.72807 0.16748 0.49824 0.0
H348 H 0.68663 0.17416 0.48509 0.0
H349 H 0.64852 0.07464 0.27693 0.0
H350 H 0.57433 0.14294 0.26934 0.0
H351 H 0.59382 0.1695 0.321 0.0
H352 H 0.64245 0.06647 0.36062 0.0
H353 H 0.67442 0.0511 0.33385 0.0
H354 H 0.68298 0.06679 0.37673 0.0
H355 H 0.70653 0.12506 0.29338 0.0
H356 H 0.73148 0.11654 0.32789 0.0
H357 H 0.71338 0.08409 0.30107 0.0
H358 H 0.78685 0.06944 0.39079 0.0
C359 C 0.74427 0.09602 0.38953 0.0
C360 C 0.40772 0.63752 0.26666 0.0
C361 C 0.39449 0.60832 0.28117 0.0
C362 C 0.3671 0.59124 0.26515 0.0
C363 C 0.36478 0.6328 0.22284 0.0
C364 C 0.39237 0.64936 0.23754 0.0
C365 C 0.40194 0.68044 0.21909 0.0
H366 H 0.36958 0.7804 0.08871 0.0
C367 C 0.3536 0.65166 0.19396 0.0
C368 C 0.37546 0.67968 0.19127 0.0
H369 H 0.44767 0.79585 0.16378 0.0
H370 H 0.42977 0.74503 0.18972 0.0
H371 H 0.31431 0.75944 0.14279 0.0
H372 H 0.37562 0.70673 0.07467 0.0
H373 H 0.33571 0.68639 0.07376 0.0
H374 H 0.34152 0.72741 0.05991 0.0
H375 H 0.30607 0.7545 0.09764 0.0
H376 H 0.28866 0.72599 0.1288 0.0
C377 C 0.39897 0.70852 0.24511 0.0
C378 C 0.43731 0.67883 0.2035 0.0
C379 C 0.24928 0.61118 0.12726 0.0
C380 C 0.23331 0.6235 0.09906 0.0
C381 C 0.2463 0.65266 0.08489 0.0
C382 C 0.27491 0.6694 0.09838 0.0
C383 C 0.29088 0.6569 0.12649 0.0
C384 C 0.27801 0.62831 0.14055 0.0
C385 C 0.29876 0.61866 0.17001 0.0
C386 C 0.32609 0.64617 0.17131 0.0
C387 C 0.32114 0.66842 0.14582 0.0
C388 C 0.27657 0.61789 0.20303 0.0
C389 C 0.31277 0.58628 0.1602 0.0
C390 C 0.38276 0.77335 0.11101 0.0
C391 C 0.4101 0.79267 0.124 0.0
C392 C 0.42675 0.78153 0.15269 0.0
C393 C 0.41614 0.75202 0.16802 0.0
C394 C 0.38833 0.73336 0.15486 0.0
C395 C 0.37224 0.74443 0.12685 0.0
C396 C 0.34257 0.72263 0.11652 0.0
C397 C 0.34343 0.69632 0.14254 0.0
C398 C 0.37036 0.70228 0.16509 0.0
C399 C 0.31117 0.74143 0.12134 0.0
C400 C 0.3488 0.71018 0.07921 0.0
H401 H 0.33145 0.58895 0.22569 0.0
H402 H 0.42873 0.65125 0.27834 0.0
H403 H 0.43967 0.65514 0.1906 0.0
H404 H 0.44341 0.69684 0.18352 0.0
H405 H 0.45637 0.68203 0.2239 0.0
H406 H 0.37557 0.70474 0.2607 0.0
H407 H 0.42019 0.71053 0.26314 0.0
H408 H 0.39776 0.73175 0.23253 0.0
H409 H 0.2399 0.58856 0.13833 0.0
H410 H 0.23445 0.6623 0.06299 0.0
H411 H 0.2836 0.69135 0.08611 0.0
H412 H 0.2614 0.63889 0.20419 0.0
H413 H 0.25915 0.59585 0.20349 0.0
H414 H 0.29096 0.61948 0.227 0.0
H415 H 0.31591 0.58349 0.13176 0.0
H416 H 0.33797 0.58437 0.17038 0.0
H417 H 0.29586 0.56568 0.16922 0.0
H418 H 0.35674 0.56856 0.27535 0.0
C419 C 0.35235 0.60318 0.23624 0.0
C420 C 0.10399 0.25412 0.62331 0.0
C421 C 0.11451 0.2404 0.59165 0.0
C422 C 0.13776 0.2592 0.57104 0.0
C423 C 0.14286 0.3012 0.61485 0.0
C424 C 0.11794 0.28472 0.63391 0.0
C425 C 0.10835 0.30393 0.66541 0.0
H426 H 0.1359 0.43844 0.76665 0.0
C427 C 0.15387 0.33115 0.63374 0.0
C428 C 0.13346 0.33322 0.66334 0.0
H429 H 0.05711 0.36264 0.77747 0.0
H430 H 0.07918 0.33408 0.72824 0.0
H431 H 0.13432 0.44243 0.68327 0.0
H432 H 0.19362 0.39255 0.75203 0.0
H433 H 0.21953 0.40296 0.71655 0.0
H434 H 0.20327 0.4342 0.74308 0.0
H435 H 0.1643 0.46217 0.71203 0.0
H436 H 0.17638 0.4484 0.6698 0.0
C437 C 0.07224 0.31294 0.6608 0.0
C438 C 0.11322 0.28411 0.69784 0.0
C439 C 0.25762 0.39887 0.59223 0.0
C440 C 0.27622 0.42604 0.60629 0.0
C441 C 0.26458 0.43959 0.63744 0.0
C442 C 0.23523 0.42688 0.65381 0.0
C443 C 0.21728 0.39971 0.63961 0.0
C444 C 0.22869 0.38597 0.60948 0.0
C445 C 0.20695 0.35647 0.59884 0.0
C446 C 0.18094 0.35462 0.62788 0.0
C447 C 0.18692 0.38026 0.65144 0.0
C448 C 0.19143 0.3627 0.56355 0.0
C449 C 0.22861 0.32764 0.59864 0.0
C450 C 0.12375 0.41549 0.75856 0.0
C451 C 0.09504 0.40245 0.77603 0.0
C452 C 0.07953 0.3728 0.76459 0.0
C453 C 0.0922 0.35648 0.73582 0.0
C454 C 0.12064 0.37003 0.71814 0.0
C455 C 0.13609 0.39894 0.72985 0.0
C456 C 0.16612 0.40971 0.70808 0.0
C457 C 0.16544 0.38325 0.68063 0.0
C458 C 0.13882 0.35991 0.68662 0.0
C459 C 0.16031 0.4425 0.69251 0.0
C460 C 0.19736 0.41019 0.73093 0.0
H461 H 0.1703 0.30124 0.56591 0.0
H462 H 0.08573 0.24147 0.63993 0.0
H463 H 0.13684 0.27223 0.69565 0.0
H464 H 0.11526 0.29894 0.72166 0.0
H465 H 0.09245 0.26513 0.70117 0.0
H466 H 0.06738 0.31748 0.63325 0.0
H467 H 0.05382 0.29333 0.6694 0.0
H468 H 0.06722 0.33541 0.67454 0.0
H469 H 0.26512 0.38783 0.5682 0.0
H470 H 0.2784 0.45986 0.64975 0.0
H471 H 0.2278 0.43866 0.67714 0.0
H472 H 0.1893 0.38873 0.55983 0.0
H473 H 0.2068 0.35401 0.54183 0.0
H474 H 0.1656 0.35162 0.56138 0.0
H475 H 0.2441 0.32831 0.62213 0.0
H476 H 0.21395 0.30419 0.59882 0.0
H477 H 0.2457 0.32822 0.57582 0.0
H478 H 0.14505 0.25128 0.54555 0.0
C479 C 0.15225 0.28892 0.58264 0.0
Dy480 Dy 0.01984 0.01543 0.47408 0.0
C481 C 0.94416 0.97403 0.58793 0.0
C482 C 0.04994 0.04628 0.41955 0.0
Dy483 Dy 0.98377 1.00214 0.53812 0.0
O484 O 0.06493 0.03096 0.44243 0.0
O485 O 0.01803 0.04371 0.42551 0.0
O486 O 0.05051 0.97497 0.48222 0.0
O487 O 0.03657 1.0032 0.52491 0.0
C488 C 0.05181 0.97932 0.51541 0.0
C489 C 0.95296 0.03802 0.49488 0.0
O490 O 0.01229 0.04469 0.56054 0.0
O491 O 0.02832 0.06179 0.5059 0.0
O492 O 0.93487 0.9928 0.56467 0.0
O493 O 0.9761 0.9717 0.58545 0.0
O494 O 0.95533 0.04405 0.52763 0.0
O495 O 0.96742 0.01343 0.48688 0.0
O496 O 0.99199 0.96991 0.45464 0.0
O497 O 0.97912 0.95462 0.5103 0.0
C498 C 0.02599 0.06689 0.53982 0.0
C499 C 0.97996 0.94801 0.47684 0.0
Dy500 Dy 0.52819 0.01478 0.0316 0.0
C501 C 0.4404 0.96154 0.93179 0.0
C502 C 0.56457 0.04602 0.08116 0.0
Dy503 Dy 0.48191 0.99479 0.976 0.0
O504 O 0.5771 0.02778 0.05764 0.0
O505 O 0.53328 0.04834 0.07599 0.0
O506 O 0.51884 0.97548 0.06957 0.0
O507 O 0.49129 0.97306 0.02474 0.0
C508 C 0.49579 0.95913 0.05267 0.0
C509 C 0.51602 0.0486 0.95295 0.0
O510 O 0.44651 0.01526 0.01383 0.0
O511 O 0.48776 0.04799 0.03962 0.0
O512 O 0.43756 0.99093 0.94189 0.0
O513 O 0.46499 0.95003 0.94704 0.0
O514 O 0.4931 0.03167 0.93632 0.0
O515 O 0.52052 0.03618 0.98188 0.0
O516 O 0.56465 0.99254 0.99631 0.0
O517 O 0.52457 0.96605 0.96188 0.0
C518 C 0.45595 0.0399 0.03414 0.0
C519 C 0.55577 0.9711 0.97191 0.0
Dy520 Dy 0.51362 0.47958 0.48538 0.0
C521 C 0.46699 0.58684 0.54778 0.0
C522 C 0.54892 0.43114 0.46197 0.0
Dy523 Dy 0.49693 0.53555 0.52251 0.0
O524 O 0.51666 0.42986 0.4639 0.0
O525 O 0.56177 0.45927 0.47148 0.0
O526 O 0.46041 0.46195 0.47863 0.0
O527 O 0.47438 0.48631 0.52477 0.0
C528 C 0.44999 0.47355 0.50777 0.0
C529 C 0.55976 0.5408 0.49623 0.0
O530 O 0.50555 0.50633 0.56887 0.0
O531 O 0.53625 0.4722 0.53737 0.0
O532 O 0.49646 0.57985 0.55615 0.0
O533 O 0.45372 0.56551 0.52642 0.0
O534 O 0.55168 0.55215 0.52619 0.0
O535 O 0.53392 0.529 0.48164 0.0
O536 O 0.50161 0.50707 0.43873 0.0
O537 O 0.47278 0.54259 0.47102 0.0
C538 C 0.52625 0.48347 0.56757 0.0
C539 C 0.48132 0.53032 0.44068 0.0
Dy540 Dy 0.0155 0.47484 0.02387 0.0
C541 C 0.9574 0.58237 0.9648 0.0
C542 C 0.0518 0.42892 0.05003 0.0
Dy543 Dy 0.99173 0.53313 0.98564 0.0
O544 O 0.02018 0.43095 0.05563 0.0
O545 O 0.06327 0.4513 0.02928 0.0
O546 O 0.9764 0.48118 0.06506 0.0
O547 O 0.99753 0.52116 0.03991 0.0
C548 C 0.97542 0.51185 0.06173 0.0
C549 C 0.02251 0.4951 0.93973 0.0
O550 O 0.03646 0.55752 0.01258 0.0
O551 O 0.05932 0.5115 0.03086 0.0
O552 O 0.98915 0.58022 0.9598 0.0
O553 O 0.94462 0.55824 0.9827 0.0
O554 O 0.0105 0.52165 0.93175 0.0
O555 O 0.01775 0.49128 0.97158 0.0
O556 O 0.97541 0.45081 0.99043 0.0
O557 O 0.94758 0.49651 0.98472 0.0
C558 C 0.06097 0.54296 0.0264 0.0
C559 C 0.94859 0.465 0.98178 0.0
H560 H 0.1038 0.14837 0.31137 0.0
H561 H 0.19533 0.13708 0.3641 0.0
H562 H 0.16637 0.09691 0.40126 0.0
H563 H 0.11527 0.0651 0.41837 0.0
H564 H 0.02315 0.07774 0.3675 0.0
H565 H 0.05219 0.11762 0.32973 0.0
C566 C 0.11726 0.1375 0.33139 0.0
C567 C 0.15156 0.14566 0.33517 0.0
C568 C 0.10048 0.11456 0.35259 0.0
C569 C 0.16892 0.13095 0.36066 0.0
C570 C 0.15241 0.10805 0.38186 0.0
C571 C 0.10164 0.07635 0.39875 0.0
C572 C 0.06735 0.06834 0.39516 0.0
C573 C 0.11829 0.09954 0.37783 0.0
C574 C 0.04972 0.08342 0.37026 0.0
C575 C 0.06624 0.10626 0.34889 0.0
H576 H 0.40781 0.88363 0.79628 0.0
H577 H 0.39237 0.97822 0.76085 0.0
H578 H 0.40111 1.00024 0.8191 0.0
H579 H 0.4159 0.99279 0.87931 0.0
H580 H 0.43571 0.89891 0.91322 0.0
H581 H 0.42227 0.87618 0.85615 0.0
C582 C 0.40684 0.90914 0.8012 0.0
C583 C 0.39981 0.92933 0.77437 0.0
C584 C 0.41221 0.92159 0.83447 0.0
C585 C 0.39771 0.9622 0.78123 0.0
C586 C 0.40267 0.97479 0.81446 0.0
C587 C 0.41639 0.96723 0.87435 0.0
C588 C 0.42608 0.94726 0.90026 0.0
C589 C 0.41002 0.95468 0.84122 0.0
C590 C 0.42771 0.91443 0.89354 0.0
C591 C 0.42039 0.90156 0.86094 0.0
H592 H 0.55591 0.43278 0.71672 0.0
H593 H 0.63066 0.38646 0.65841 0.0
H594 H 0.61187 0.40887 0.60501 0.0
H595 H 0.57532 0.44301 0.57502 0.0
H596 H 0.50149 0.49105 0.6333 0.0
H597 H 0.51858 0.46677 0.68624 0.0
C598 C 0.56764 0.42729 0.69218 0.0
C599 C 0.5943 0.40762 0.6913 0.0
C600 C 0.55702 0.44083 0.66157 0.0
C601 C 0.6098 0.40116 0.65953 0.0
C602 C 0.59917 0.41413 0.62906 0.0
C603 C 0.56288 0.44818 0.59926 0.0
C604 C 0.53712 0.46899 0.59998 0.0
C605 C 0.57301 0.43425 0.62976 0.0
C606 C 0.5215 0.47537 0.63182 0.0
C607 C 0.5312 0.46136 0.6622 0.0
H608 H 0.96642 0.59136 0.20106 0.0
H609 H 0.86124 0.57413 0.18144 0.0
H610 H 0.87343 0.5453 0.12809 0.0
H611 H 0.9141 0.5238 0.08695 0.0
H612 H 0.01901 0.54363 0.10507 0.0
H613 H 0.0069 0.57284 0.15851 0.0
C614 C 0.9461 0.58167 0.18499 0.0
C615 C 0.91289 0.58481 0.19574 0.0
C616 C 0.95328 0.56554 0.15383 0.0
C617 C 0.88703 0.57158 0.17449 0.0
C618 C 0.89397 0.55525 0.1437 0.0
C619 C 0.93418 0.53489 0.1025 0.0
C620 C 0.96735 0.53189 0.09206 0.0
C621 C 0.92698 0.5519 0.13314 0.0
C622 C 0.99327 0.54611 0.11241 0.0
C623 C 0.98635 0.56261 0.14307 0.0
H624 H 0.34056 0.09455 0.12378 0.0
H625 H 0.39752 0.18409 0.10236 0.0
H626 H 0.43752 0.1555 0.06785 0.0
H627 H 0.45744 0.10445 0.04554 0.0
H628 H 0.39823 0.01559 0.06433 0.0
H629 H 0.35827 0.04433 0.09853 0.0
C630 C 0.3618 0.1078 0.11164 0.0
C631 C 0.36628 0.14139 0.11598 0.0
C632 C 0.38439 0.09125 0.09153 0.0
C633 C 0.3935 0.15827 0.09943 0.0
C634 C 0.41645 0.1419 0.07982 0.0
C635 C 0.43563 0.0915 0.05697 0.0
C636 C 0.43074 0.05795 0.0525 0.0
C637 C 0.41232 0.10834 0.07595 0.0
C638 C 0.40233 0.04142 0.06718 0.0
C639 C 0.37958 0.05784 0.08685 0.0
H640 H 0.19189 0.96766 0.57465 0.0
H641 H 0.16701 0.86771 0.54823 0.0
H642 H 0.11302 0.88054 0.52771 0.0
H643 H 0.07293 0.92047 0.51735 0.0
H644 H 0.09565 0.01843 0.55153 0.0
H645 H 0.15006 1.00558 0.57115 0.0
C646 C 0.1745 0.94835 0.56536 0.0
C647 C 0.18368 0.91673 0.56319 0.0
C648 C 0.14289 0.95543 0.5557 0.0
C649 C 0.16105 0.89242 0.54962 0.0
C650 C 0.12992 0.89961 0.53835 0.0
C651 C 0.08964 0.93865 0.52988 0.0
C652 C 0.08066 0.97011 0.53341 0.0
C653 C 0.12058 0.93101 0.54142 0.0
C654 C 0.10215 0.99388 0.54926 0.0
C655 C 0.1333 0.98666 0.56001 0.0
H656 H 0.83512 0.36539 0.92233 0.0
H657 H 0.78738 0.45269 0.90932 0.0
H658 H 0.83574 0.48389 0.93326 0.0
H659 H 0.8912 0.48663 0.9586 0.0
H660 H 0.93925 0.39961 0.97235 0.0
H661 H 0.89101 0.36818 0.94794 0.0
C662 C 0.83516 0.39122 0.92492 0.0
C663 C 0.80745 0.40656 0.91383 0.0
C664 C 0.86309 0.40914 0.93905 0.0
C665 C 0.80837 0.44016 0.91702 0.0
C666 C 0.83599 0.45806 0.93101 0.0
C667 C 0.89122 0.46077 0.95641 0.0
C668 C 0.91899 0.4456 0.96753 0.0
C669 C 0.86344 0.44283 0.94219 0.0
C670 C 0.91834 0.41203 0.96418 0.0
C671 C 0.89071 0.394 0.95015 0.0
H672 H 0.672 0.59948 0.39468 0.0
H673 H 0.73494 0.57002 0.47449 0.0
H674 H 0.68578 0.54946 0.50817 0.0
H675 H 0.62441 0.54035 0.51493 0.0
H676 H 0.56196 0.56858 0.43389 0.0
H677 H 0.61102 0.58972 0.40095 0.0
C678 C 0.67475 0.58863 0.41952 0.0
C679 C 0.70672 0.58632 0.43241 0.0
C680 C 0.64643 0.57693 0.43857 0.0
C681 C 0.71035 0.57221 0.46445 0.0
C682 C 0.68231 0.56045 0.48358 0.0
C683 C 0.62174 0.55118 0.49008 0.0
C684 C 0.58981 0.55302 0.47677 0.0
C685 C 0.65018 0.56278 0.47098 0.0
C686 C 0.58642 0.56677 0.44444 0.0
C687 C 0.61442 0.57891 0.42565 0.0
H688 H 0.11886 0.32393 0.13233 0.0
H689 H 0.20795 0.37828 0.09539 0.0
H690 H 0.17412 0.41455 0.06605 0.0
H691 H 0.11919 0.43047 0.04999 0.0
H692 H 0.03026 0.37819 0.08971 0.0
H693 H 0.0641 0.34183 0.1194 0.0
C694 C 0.131 0.344 0.1184 0.0
C695 C 0.16607 0.34803 0.11587 0.0
C696 C 0.11138 0.3651 0.10194 0.0
C697 C 0.1811 0.37404 0.09721 0.0
C698 C 0.16175 0.39496 0.08055 0.0
C699 C 0.10726 0.41099 0.06502 0.0
C700 C 0.07231 0.40665 0.06729 0.0
C701 C 0.12689 0.39052 0.08241 0.0
C702 C 0.05714 0.38174 0.0873 0.0
C703 C 0.07648 0.36103 0.10434 0.0
H704 H 0.57122 0.16299 0.85953 0.0
H705 H 0.59477 0.20821 0.9579 0.0
H706 H 0.57504 0.15878 0.98734 0.0
H707 H 0.54805 0.10255 0.98513 0.0
H708 H 0.52381 0.0597 0.88562 0.0
H709 H 0.54656 0.10794 0.85708 0.0
C710 C 0.57179 0.16222 0.88744 0.0
C711 C 0.58424 0.18948 0.90633 0.0
C712 C 0.56022 0.13384 0.90421 0.0
C713 C 0.58548 0.18758 0.94253 0.0
C714 C 0.57406 0.15929 0.95947 0.0
C715 C 0.54827 0.10373 0.95723 0.0
C716 C 0.53414 0.07746 0.93759 0.0
C717 C 0.5611 0.13218 0.9406 0.0
C718 C 0.53433 0.07954 0.90144 0.0
C719 C 0.54731 0.1072 0.88497 0.0
H720 H 0.916 0.80582 0.46126 0.0
H721 H 0.93401 0.82352 0.35312 0.0
H722 H 0.95995 0.87718 0.36718 0.0
H723 H 0.97544 0.92048 0.41088 0.0
H724 H 0.9544 0.90072 0.51849 0.0
H725 H 0.93119 0.84737 0.50368 0.0
C726 C 0.92518 0.82143 0.44058 0.0
C727 C 0.9226 0.81053 0.40615 0.0
C728 C 0.93944 0.85235 0.44875 0.0
C729 C 0.93575 0.83102 0.37995 0.0
C730 C 0.9504 0.8619 0.38796 0.0
C731 C 0.96588 0.90444 0.43101 0.0
C732 C 0.96683 0.91506 0.4658 0.0
C733 C 0.95212 0.87306 0.42236 0.0
C734 C 0.95423 0.8937 0.49147 0.0
C735 C 0.94081 0.86289 0.48311 0.0
H736 H 0.42261 0.71836 0.60063 0.0
H737 H 0.36492 0.70708 0.50696 0.0
H738 H 0.38412 0.65478 0.49757 0.0
H739 H 0.41906 0.61284 0.51379 0.0
H740 H 0.48441 0.62846 0.6004 0.0
H741 H 0.46168 0.67988 0.61326 0.0
C742 C 0.41465 0.70567 0.57734 0.0
C743 C 0.39164 0.71788 0.55496 0.0
C744 C 0.42756 0.67622 0.57045 0.0
C745 C 0.3815 0.69898 0.5258 0.0
C746 C 0.39289 0.66882 0.51989 0.0
C747 C 0.42805 0.62742 0.53568 0.0
C748 C 0.45274 0.6169 0.55663 0.0
C749 C 0.41594 0.6573 0.54198 0.0
C750 C 0.46499 0.63613 0.58432 0.0
C751 C 0.45209 0.66544 0.59155 0.0
H752 H 0.82354 0.88938 0.64992 0.0
H753 H 0.90167 0.85214 0.70793 0.0
H754 H 0.9434 0.88646 0.67665 0.0
H755 H 0.95728 0.92999 0.63537 0.0
H756 H 0.87753 0.97054 0.58305 0.0
H757 H 0.83677 0.93298 0.6108 0.0
C758 C 0.84963 0.88897 0.65611 0.0
C759 C 0.85931 0.86844 0.68141 0.0
C760 C 0.87322 0.90992 0.6396 0.0
C761 C 0.89343 0.86743 0.68819 0.0
C762 C 0.91734 0.88739 0.6707 0.0
C763 C 0.93094 0.93072 0.6305 0.0
C764 C 0.9203 0.95312 0.6077 0.0
C765 C 0.90743 0.90925 0.64688 0.0
C766 C 0.88623 0.95373 0.60099 0.0
C767 C 0.8629 0.93212 0.61657 0.0
H768 H 0.64525 0.08545 0.21464 0.0
H769 H 0.54486 0.09212 0.25349 0.0
H770 H 0.52269 0.07462 0.19777 0.0
H771 H 0.53173 0.06103 0.13803 0.0
H772 H 0.63073 0.04994 0.09808 0.0
H773 H 0.65392 0.06542 0.15488 0.0
C774 C 0.61854 0.08238 0.21102 0.0
C775 C 0.59666 0.09068 0.23772 0.0
C776 C 0.6059 0.07206 0.17893 0.0
C777 C 0.56211 0.08661 0.23291 0.0
C778 C 0.54943 0.07659 0.20118 0.0
C779 C 0.55847 0.06222 0.14157 0.0
C780 C 0.57979 0.05551 0.11398 0.0
C781 C 0.57114 0.07012 0.17392 0.0
C782 C 0.61414 0.0559 0.11907 0.0
C783 C 0.62724 0.0645 0.15143 0.0
H784 H 0.45877 0.59738 0.29824 0.0
H785 H 0.35779 0.59051 0.33779 0.0
H786 H 0.37535 0.56611 0.39025 0.0
H787 H 0.41922 0.54587 0.42521 0.0
H788 H 0.51953 0.54853 0.38463 0.0
H789 H 0.50282 0.57557 0.33298 0.0
C790 C 0.44077 0.59086 0.31856 0.0
C791 C 0.40697 0.59594 0.31404 0.0
C792 C 0.45097 0.57595 0.34862 0.0
C793 C 0.3839 0.58687 0.34049 0.0
C794 C 0.39392 0.57286 0.37056 0.0
C795 C 0.43734 0.55229 0.40495 0.0
C796 C 0.47053 0.54513 0.40867 0.0
C797 C 0.42732 0.56707 0.3749 0.0
C798 C 0.49374 0.55346 0.38218 0.0
C799 C 0.4842 0.56908 0.3527 0.0
H800 H 0.10237 0.40019 0.84612 0.0
H801 H 0.05189 0.44695 0.76696 0.0
H802 H 0.02462 0.47905 0.81069 0.0
H803 H 0.01575 0.49452 0.87104 0.0
H804 H 0.06449 0.44785 0.95152 0.0
H805 H 0.092 0.41511 0.90797 0.0
C806 C 0.08537 0.41745 0.83868 0.0
C807 C 0.07911 0.42141 0.80345 0.0
C808 C 0.06963 0.43583 0.86416 0.0
C809 C 0.05707 0.4437 0.79392 0.0
C810 C 0.0415 0.46199 0.8189 0.0
C811 C 0.03235 0.47712 0.87911 0.0
C812 C 0.0382 0.47368 0.91443 0.0
C813 C 0.04768 0.45837 0.85403 0.0
C814 C 0.05952 0.45085 0.92449 0.0
C815 C 0.07529 0.43223 0.89956 0.0
H816 H 0.67749 0.89629 0.91787 0.0
H817 H 0.59737 0.83449 0.87449 0.0
H818 H 0.55664 0.86976 0.89808 0.0
H819 H 0.54401 0.91758 0.93161 0.0
H820 H 0.62388 0.97873 0.97712 0.0
H821 H 0.6646 0.94434 0.95223 0.0
C822 C 0.65105 0.89066 0.91382 0.0
C823 C 0.64015 0.86292 0.89481 0.0
C824 C 0.62788 0.91089 0.92777 0.0
C825 C 0.60604 0.85567 0.88935 0.0
C826 C 0.58288 0.87584 0.90274 0.0
C827 C 0.57033 0.92359 0.936 0.0
C828 C 0.58082 0.9509 0.95614 0.0
C829 C 0.59352 0.90346 0.92206 0.0
C830 C 0.61505 0.95796 0.96174 0.0
C831 C 0.63837 0.93827 0.94752 0.0
H832 H 0.81205 0.04796 0.43591 0.0
H833 H 0.83909 0.14882 0.45517 0.0
H834 H 0.89326 0.13652 0.47569 0.0
H835 H 0.93265 0.09681 0.48876 0.0
H836 H 0.90741 0.99707 0.46326 0.0
H837 H 0.85304 0.00942 0.44298 0.0
C838 C 0.82993 0.06742 0.44387 0.0
C839 C 0.82138 0.09923 0.44408 0.0
C840 C 0.86147 0.06042 0.45399 0.0
C841 C 0.84467 0.12399 0.45546 0.0
C842 C 0.87583 0.11707 0.46677 0.0
C843 C 0.91537 0.07806 0.47801 0.0
C844 C 0.92366 0.04632 0.47703 0.0
C845 C 0.88445 0.08538 0.46613 0.0
C846 C 0.90143 0.02183 0.46352 0.0
C847 C 0.87032 0.0288 0.45235 0.0
H848 H 0.16763 0.62692 0.11473 0.0
H849 H 0.23453 0.581 0.04583 0.0
H850 H 0.18715 0.55265 0.01618 0.0
H851 H 0.12641 0.54004 0.01066 0.0
H852 H 0.05927 0.58831 0.07715 0.0
H853 H 0.1066 0.61627 0.1073 0.0
C854 C 0.17162 0.61047 0.0934 0.0
C855 C 0.20433 0.60541 0.08277 0.0
C856 C 0.14419 0.59473 0.07611 0.0
C857 C 0.20947 0.58465 0.05472 0.0
C858 C 0.18242 0.56862 0.03771 0.0
C859 C 0.12231 0.55703 0.03147 0.0
C860 C 0.08957 0.56243 0.04156 0.0
C861 C 0.14966 0.57338 0.04822 0.0
C862 C 0.08434 0.58426 0.06865 0.0
C863 C 0.11138 0.60005 0.08601 0.0
H864 H 0.32176 0.39511 0.56709 0.0
H865 H 0.30215 0.48921 0.60612 0.0
H866 H 0.35482 0.51163 0.58172 0.0
H867 H 0.40694 0.50497 0.54846 0.0
H868 H 0.4226 0.41238 0.50354 0.0
H869 H 0.37095 0.38927 0.53035 0.0
C870 C 0.32846 0.42064 0.56986 0.0
C871 C 0.30774 0.44008 0.58917 0.0
C872 C 0.35835 0.43383 0.55453 0.0
C873 C 0.3177 0.47313 0.59253 0.0
C874 C 0.34785 0.4862 0.57821 0.0
C875 C 0.39891 0.47977 0.54464 0.0
C876 C 0.41851 0.46036 0.5242 0.0
C877 C 0.3685 0.46679 0.55927 0.0
C878 C 0.4078 0.42781 0.51909 0.0
C879 C 0.37829 0.41456 0.53445 0.0
H880 H 0.89736 0.68229 0.87035 0.0
H881 H 0.8053 0.64101 0.91567 0.0
H882 H 0.83647 0.60691 0.95147 0.0
H883 H 0.8902 0.5873 0.96814 0.0
H884 H 0.9814 0.62836 0.92082 0.0
H885 H 0.95014 0.6635 0.88696 0.0
C886 C 0.88394 0.66555 0.88768 0.0
C887 C 0.84894 0.66398 0.88994 0.0
C888 C 0.90194 0.64588 0.90781 0.0
C889 C 0.83221 0.64283 0.91344 0.0
C890 C 0.85003 0.6232 0.93381 0.0
C891 C 0.90317 0.60427 0.95073 0.0
C892 C 0.9381 0.60548 0.94722 0.0
C893 C 0.88494 0.62439 0.93107 0.0
C894 C 0.9546 0.62723 0.92428 0.0
C895 C 0.93673 0.64724 0.90477 0.0
H896 H 0.47324 0.8218 0.1164 0.0
H897 H 0.37077 0.83508 0.09438 0.0
H898 H 0.388 0.88546 0.0663 0.0
H899 H 0.43238 0.92809 0.05049 0.0
H900 H 0.53369 0.91597 0.07774 0.0
H901 H 0.51671 0.86356 0.10136 0.0
C902 C 0.45451 0.83578 0.10592 0.0
C903 C 0.42072 0.82417 0.10761 0.0
C904 C 0.46445 0.86531 0.09051 0.0
C905 C 0.39709 0.84274 0.09306 0.0
C906 C 0.40688 0.87186 0.07709 0.0
C907 C 0.45067 0.91362 0.06103 0.0
C908 C 0.4843 0.92578 0.06206 0.0
C909 C 0.44053 0.88359 0.07577 0.0
C910 C 0.50767 0.90709 0.0765 0.0
C911 C 0.49799 0.87712 0.09018 0.0
H912 H 0.05648 0.20316 0.61075 0.0
H913 H 0.14528 0.19973 0.54652 0.0
H914 H 0.12448 0.14827 0.52349 0.0
H915 H 0.08171 0.10316 0.52106 0.0
H916 H 0.99785 0.10119 0.59161 0.0
H917 H 0.01689 0.15494 0.61352 0.0
C918 C 0.07182 0.19129 0.59218 0.0
C919 C 0.10211 0.20695 0.57977 0.0
C920 C 0.06073 0.16015 0.58024 0.0
C921 C 0.12104 0.19009 0.55558 0.0
C922 C 0.10946 0.15997 0.54259 0.0
C923 C 0.06766 0.11454 0.54126 0.0
C924 C 0.03829 0.09852 0.55442 0.0
C925 C 0.07931 0.14486 0.5545 0.0
C926 C 0.02058 0.11317 0.58105 0.0
C927 C 0.03141 0.14392 0.59349 0.0
H928 H 0.64997 0.32501 0.45391 0.0
H929 H 0.55895 0.26484 0.46995 0.0
H930 H 0.52708 0.31192 0.47248 0.0
H931 H 0.52489 0.36962 0.46666 0.0
H932 H 0.61566 0.43046 0.45149 0.0
H933 H 0.64806 0.38358 0.45143 0.0
C934 C 0.62331 0.32248 0.45896 0.0
C935 C 0.60668 0.29188 0.46212 0.0
C936 C 0.60514 0.34953 0.45952 0.0
C937 C 0.57207 0.28845 0.46785 0.0
C938 C 0.55388 0.31522 0.46888 0.0
C939 C 0.55173 0.37251 0.46294 0.0
C940 C 0.56797 0.40309 0.45838 0.0
C941 C 0.57008 0.34575 0.46389 0.0
C942 C 0.60275 0.40686 0.45446 0.0
C943 C 0.62124 0.3802 0.45475 0.0
loop_
_geom_bond_atom_site_label_1
_geom_bond_atom_site_label_2
_geom_bond_distance
_geom_bond_site_symmetry_2
_ccdc_geom_bond_type
C0 C1 1.391 . S
C0 C4 1.391 . S
C0 H42 0.948 . S
C1 C0 1.391 . S
C1 C2 1.391 . S
C2 C1 1.391 . S
C2 H58 0.947 . S
C2 C59 1.392 . S
C3 C4 1.391 . S
C3 C7 1.397 . S
C3 C59 1.419 . S
C4 C0 1.391 . S
C4 C3 1.391 . S
C4 C5 1.399 . S
C5 C4 1.399 . S
C5 C8 1.396 . S
C5 C17 1.453 . S
C5 C18 1.684 . S
H6 C30 0.948 . S
C7 C3 1.397 . S
C7 C8 1.394 . S
C7 C26 1.723 . S
C8 C5 1.396 . S
C8 C7 1.394 . S
C8 C38 1.723 . S
H9 C32 0.947 . S
H10 C33 0.948 . S
H11 C39 0.982 . S
H12 C40 0.979 . S
H13 C40 0.980 . S
H14 C40 0.983 . S
H15 C39 0.979 . S
H16 C39 0.977 . S
C17 C5 1.453 . S
C17 H46 0.982 . S
C17 H47 0.979 . S
C17 H48 0.977 . S
C18 C5 1.684 . S
C18 H43 0.979 . S
C18 H44 0.980 . S
C18 H45 0.983 . S
C19 C20 1.391 . S
C19 C24 1.391 . S
C19 H49 0.948 . S
C20 C19 1.391 . S
C20 C21 1.391 . S
C21 C20 1.391 . S
C21 C22 1.392 . S
C21 H50 0.947 . S
C22 C21 1.392 . S
C22 C23 1.419 . S
C22 H51 0.948 . S
C23 C22 1.419 . S
C23 C24 1.391 . S
C23 C27 1.397 . S
C24 C19 1.391 . S
C24 C23 1.391 . S
C24 C25 1.399 . S
C25 C24 1.399 . S
C25 C26 1.396 . S
C25 C28 1.453 . S
C25 C29 1.684 . S
C26 C7 1.723 . S
C26 C25 1.396 . S
C26 C27 1.394 . S
C27 C23 1.397 . S
C27 C26 1.394 . S
C27 C37 1.723 . S
C28 C25 1.453 . S
C28 H52 0.982 . S
C28 H53 0.979 . S
C28 H54 0.977 . S
C29 C25 1.684 . S
C29 H55 0.979 . S
C29 H56 0.980 . S
C29 H57 0.983 . S
C30 H6 0.948 . S
C30 C31 1.391 . S
C30 C35 1.391 . S
C31 C30 1.391 . S
C31 C32 1.391 . S
C32 H9 0.947 . S
C32 C31 1.391 . S
C32 C33 1.392 . S
C33 H10 0.948 . S
C33 C32 1.392 . S
C33 C34 1.419 . S
C34 C33 1.419 . S
C34 C35 1.391 . S
C34 C38 1.397 . S
C35 C30 1.391 . S
C35 C34 1.391 . S
C35 C36 1.399 . S
C36 C35 1.399 . S
C36 C37 1.396 . S
C36 C39 1.453 . S
C36 C40 1.684 . S
C37 C27 1.723 . S
C37 C36 1.396 . S
C37 C38 1.394 . S
C38 C8 1.723 . S
C38 C34 1.397 . S
C38 C37 1.394 . S
C39 H11 0.982 . S
C39 H15 0.979 . S
C39 H16 0.977 . S
C39 C36 1.453 . S
C40 H12 0.979 . S
C40 H13 0.980 . S
C40 H14 0.983 . S
C40 C36 1.684 . S
H41 C59 0.948 . S
H42 C0 0.948 . S
H43 C18 0.979 . S
H44 C18 0.980 . S
H45 C18 0.983 . S
H46 C17 0.982 . S
H47 C17 0.979 . S
H48 C17 0.977 . S
H49 C19 0.948 . S
H50 C21 0.947 . S
H51 C22 0.948 . S
H52 C28 0.982 . S
H53 C28 0.979 . S
H54 C28 0.977 . S
H55 C29 0.979 . S
H56 C29 0.980 . S
H57 C29 0.983 . S
H58 C2 0.947 . S
C59 C2 1.392 . S
C59 C3 1.419 . S
C59 H41 0.948 . S
C60 C61 1.391 . S
C60 C64 1.391 . S
C60 H102 0.948 . S
C61 C60 1.391 . S
C61 C62 1.391 . S
C62 C61 1.391 . S
C62 H118 0.947 . S
C62 C119 1.392 . S
C63 C64 1.391 . S
C63 C67 1.397 . S
C63 C119 1.419 . S
C64 C60 1.391 . S
C64 C63 1.391 . S
C64 C65 1.399 . S
C65 C64 1.399 . S
C65 C68 1.396 . S
C65 C77 1.453 . S
C65 C78 1.684 . S
H66 C90 0.948 . S
C67 C63 1.397 . S
C67 C68 1.394 . S
C67 C86 1.723 . S
C68 C65 1.396 . S
C68 C67 1.394 . S
C68 C98 1.723 . S
H69 C92 0.947 . S
H70 C93 0.948 . S
H71 C99 0.982 . S
H72 C100 0.979 . S
H73 C100 0.980 . S
H74 C100 0.983 . S
H75 C99 0.979 . S
H76 C99 0.977 . S
C77 C65 1.453 . S
C77 H106 0.982 . S
C77 H107 0.979 . S
C77 H108 0.977 . S
C78 C65 1.684 . S
C78 H103 0.979 . S
C78 H104 0.980 . S
C78 H105 0.983 . S
C79 C80 1.391 . S
C79 C84 1.391 . S
C79 H109 0.948 . S
C80 C79 1.391 . S
C80 C81 1.391 . S
C81 C80 1.391 . S
C81 C82 1.392 . S
C81 H110 0.947 . S
C82 C81 1.392 . S
C82 C83 1.419 . S
C82 H111 0.948 . S
C83 C82 1.419 . S
C83 C84 1.391 . S
C83 C87 1.397 . S
C84 C79 1.391 . S
C84 C83 1.391 . S
C84 C85 1.399 . S
C85 C84 1.399 . S
C85 C86 1.396 . S
C85 C88 1.453 . S
C85 C89 1.684 . S
C86 C67 1.723 . S
C86 C85 1.396 . S
C86 C87 1.394 . S
C87 C83 1.397 . S
C87 C86 1.394 . S
C87 C97 1.723 . S
C88 C85 1.453 . S
C88 H112 0.982 . S
C88 H113 0.979 . S
C88 H114 0.977 . S
C89 C85 1.684 . S
C89 H115 0.979 . S
C89 H116 0.980 . S
C89 H117 0.983 . S
C90 H66 0.948 . S
C90 C91 1.391 . S
C90 C95 1.391 . S
C91 C90 1.391 . S
C91 C92 1.391 . S
C92 H69 0.947 . S
C92 C91 1.391 . S
C92 C93 1.392 . S
C93 H70 0.948 . S
C93 C92 1.392 . S
C93 C94 1.419 . S
C94 C93 1.419 . S
C94 C95 1.391 . S
C94 C98 1.397 . S
C95 C90 1.391 . S
C95 C94 1.391 . S
C95 C96 1.399 . S
C96 C95 1.399 . S
C96 C97 1.396 . S
C96 C99 1.453 . S
C96 C100 1.684 . S
C97 C87 1.723 . S
C97 C96 1.396 . S
C97 C98 1.394 . S
C98 C68 1.723 . S
C98 C94 1.397 . S
C98 C97 1.394 . S
C99 H71 0.982 . S
C99 H75 0.979 . S
C99 H76 0.977 . S
C99 C96 1.453 . S
C100 H72 0.979 . S
C100 H73 0.980 . S
C100 H74 0.983 . S
C100 C96 1.684 . S
H101 C119 0.948 . S
H102 C60 0.948 . S
H103 C78 0.979 . S
H104 C78 0.980 . S
H105 C78 0.983 . S
H106 C77 0.982 . S
H107 C77 0.979 . S
H108 C77 0.977 . S
H109 C79 0.948 . S
H110 C81 0.947 . S
H111 C82 0.948 . S
H112 C88 0.982 . S
H113 C88 0.979 . S
H114 C88 0.977 . S
H115 C89 0.979 . S
H116 C89 0.980 . S
H117 C89 0.983 . S
H118 C62 0.947 . S
C119 C62 1.392 . S
C119 C63 1.419 . S
C119 H101 0.948 . S
C120 C121 1.391 . S
C120 C124 1.391 . S
C120 H162 0.948 . S
C121 C120 1.391 . S
C121 C122 1.391 . S
C122 C121 1.391 . S
C122 H178 0.947 . S
C122 C179 1.392 . S
C123 C124 1.391 . S
C123 C127 1.397 . S
C123 C179 1.419 . S
C124 C120 1.391 . S
C124 C123 1.391 . S
C124 C125 1.399 . S
C125 C124 1.399 . S
C125 C128 1.396 . S
C125 C137 1.453 . S
C125 C138 1.684 . S
H126 C150 0.948 . S
C127 C123 1.397 . S
C127 C128 1.394 . S
C127 C146 1.723 . S
C128 C125 1.396 . S
C128 C127 1.394 . S
C128 C158 1.723 . S
H129 C152 0.947 . S
H130 C153 0.948 . S
H131 C159 0.982 . S
H132 C160 0.979 . S
H133 C160 0.980 . S
H134 C160 0.983 . S
H135 C159 0.979 . S
H136 C159 0.977 . S
C137 C125 1.453 . S
C137 H166 0.982 . S
C137 H167 0.979 . S
C137 H168 0.977 . S
C138 C125 1.684 . S
C138 H163 0.979 . S
C138 H164 0.980 . S
C138 H165 0.983 . S
C139 C140 1.391 . S
C139 C144 1.391 . S
C139 H169 0.948 . S
C140 C139 1.391 . S
C140 C141 1.391 . S
C141 C140 1.391 . S
C141 C142 1.392 . S
C141 H170 0.947 . S
C142 C141 1.392 . S
C142 C143 1.419 . S
C142 H171 0.948 . S
C143 C142 1.419 . S
C143 C144 1.391 . S
C143 C147 1.397 . S
C144 C139 1.391 . S
C144 C143 1.391 . S
C144 C145 1.399 . S
C145 C144 1.399 . S
C145 C146 1.396 . S
C145 C148 1.453 . S
C145 C149 1.684 . S
C146 C127 1.723 . S
C146 C145 1.396 . S
C146 C147 1.394 . S
C147 C143 1.397 . S
C147 C146 1.394 . S
C147 C157 1.723 . S
C148 C145 1.453 . S
C148 H172 0.982 . S
C148 H173 0.979 . S
C148 H174 0.977 . S
C149 C145 1.684 . S
C149 H175 0.979 . S
C149 H176 0.980 . S
C149 H177 0.983 . S
C150 H126 0.948 . S
C150 C151 1.391 . S
C150 C155 1.391 . S
C151 C150 1.391 . S
C151 C152 1.391 . S
C152 H129 0.947 . S
C152 C151 1.391 . S
C152 C153 1.392 . S
C153 H130 0.948 . S
C153 C152 1.392 . S
C153 C154 1.419 . S
C154 C153 1.419 . S
C154 C155 1.391 . S
C154 C158 1.397 . S
C155 C150 1.391 . S
C155 C154 1.391 . S
C155 C156 1.399 . S
C156 C155 1.399 . S
C156 C157 1.396 . S
C156 C159 1.453 . S
C156 C160 1.684 . S
C157 C147 1.723 . S
C157 C156 1.396 . S
C157 C158 1.394 . S
C158 C128 1.723 . S
C158 C154 1.397 . S
C158 C157 1.394 . S
C159 H131 0.982 . S
C159 H135 0.979 . S
C159 H136 0.977 . S
C159 C156 1.453 . S
C160 H132 0.979 . S
C160 H133 0.980 . S
C160 H134 0.983 . S
C160 C156 1.684 . S
H161 C179 0.948 . S
H162 C120 0.948 . S
H163 C138 0.979 . S
H164 C138 0.980 . S
H165 C138 0.983 . S
H166 C137 0.982 . S
H167 C137 0.979 . S
H168 C137 0.977 . S
H169 C139 0.948 . S
H170 C141 0.947 . S
H171 C142 0.948 . S
H172 C148 0.982 . S
H173 C148 0.979 . S
H174 C148 0.977 . S
H175 C149 0.979 . S
H176 C149 0.980 . S
H177 C149 0.983 . S
H178 C122 0.947 . S
C179 C122 1.392 . S
C179 C123 1.419 . S
C179 H161 0.948 . S
C180 C181 1.391 . S
C180 C184 1.391 . S
C180 H222 0.948 . S
C181 C180 1.391 . S
C181 C182 1.391 . S
C182 C181 1.391 . S
C182 H238 0.947 . S
C182 C239 1.392 . S
C183 C184 1.391 . S
C183 C187 1.397 . S
C183 C239 1.419 . S
C184 C180 1.391 . S
C184 C183 1.391 . S
C184 C185 1.399 . S
C185 C184 1.399 . S
C185 C188 1.396 . S
C185 C197 1.453 . S
C185 C198 1.684 . S
H186 C210 0.948 . S
C187 C183 1.397 . S
C187 C188 1.394 . S
C187 C206 1.723 . S
C188 C185 1.396 . S
C188 C187 1.394 . S
C188 C218 1.723 . S
H189 C212 0.947 . S
H190 C213 0.948 . S
H191 C219 0.982 . S
H192 C220 0.979 . S
H193 C220 0.980 . S
H194 C220 0.983 . S
H195 C219 0.979 . S
H196 C219 0.977 . S
C197 C185 1.453 . S
C197 H226 0.982 . S
C197 H227 0.979 . S
C197 H228 0.977 . S
C198 C185 1.684 . S
C198 H223 0.979 . S
C198 H224 0.980 . S
C198 H225 0.983 . S
C199 C200 1.391 . S
C199 C204 1.391 . S
C199 H229 0.948 . S
C200 C199 1.391 . S
C200 C201 1.391 . S
C201 C200 1.391 . S
C201 C202 1.392 . S
C201 H230 0.947 . S
C202 C201 1.392 . S
C202 C203 1.419 . S
C202 H231 0.948 . S
C203 C202 1.419 . S
C203 C204 1.391 . S
C203 C207 1.397 . S
C204 C199 1.391 . S
C204 C203 1.391 . S
C204 C205 1.399 . S
C205 C204 1.399 . S
C205 C206 1.396 . S
C205 C208 1.453 . S
C205 C209 1.684 . S
C206 C187 1.723 . S
C206 C205 1.396 . S
C206 C207 1.394 . S
C207 C203 1.397 . S
C207 C206 1.394 . S
C207 C217 1.723 . S
C208 C205 1.453 . S
C208 H232 0.982 . S
C208 H233 0.979 . S
C208 H234 0.977 . S
C209 C205 1.684 . S
C209 H235 0.979 . S
C209 H236 0.980 . S
C209 H237 0.983 . S
C210 H186 0.948 . S
C210 C211 1.391 . S
C210 C215 1.391 . S
C211 C210 1.391 . S
C211 C212 1.391 . S
C212 H189 0.947 . S
C212 C211 1.391 . S
C212 C213 1.392 . S
C213 H190 0.948 . S
C213 C212 1.392 . S
C213 C214 1.419 . S
C214 C213 1.419 . S
C214 C215 1.391 . S
C214 C218 1.397 . S
C215 C210 1.391 . S
C215 C214 1.391 . S
C215 C216 1.399 . S
C216 C215 1.399 . S
C216 C217 1.396 . S
C216 C219 1.453 . S
C216 C220 1.684 . S
C217 C207 1.723 . S
C217 C216 1.396 . S
C217 C218 1.394 . S
C218 C188 1.723 . S
C218 C214 1.397 . S
C218 C217 1.394 . S
C219 H191 0.982 . S
C219 H195 0.979 . S
C219 H196 0.977 . S
C219 C216 1.453 . S
C220 H192 0.979 . S
C220 H193 0.980 . S
C220 H194 0.983 . S
C220 C216 1.684 . S
H221 C239 0.948 . S
H222 C180 0.948 . S
H223 C198 0.979 . S
H224 C198 0.980 . S
H225 C198 0.983 . S
H226 C197 0.982 . S
H227 C197 0.979 . S
H228 C197 0.977 . S
H229 C199 0.948 . S
H230 C201 0.947 . S
H231 C202 0.948 . S
H232 C208 0.982 . S
H233 C208 0.979 . S
H234 C208 0.977 . S
H235 C209 0.979 . S
H236 C209 0.980 . S
H237 C209 0.983 . S
H238 C182 0.947 . S
C239 C182 1.392 . S
C239 C183 1.419 . S
C239 H221 0.948 . S
C240 C241 1.391 . S
C240 C244 1.391 . S
C240 H282 0.948 . S
C241 C240 1.391 . S
C241 C242 1.391 . S
C242 C241 1.391 . S
C242 H298 0.947 . S
C242 C299 1.392 . S
C243 C244 1.391 . S
C243 C247 1.397 . S
C243 C299 1.419 . S
C244 C240 1.391 . S
C244 C243 1.391 . S
C244 C245 1.399 . S
C245 C244 1.399 . S
C245 C248 1.396 . S
C245 C257 1.453 . S
C245 C258 1.684 . S
H246 C270 0.948 . S
C247 C243 1.397 . S
C247 C248 1.394 . S
C247 C266 1.723 . S
C248 C245 1.396 . S
C248 C247 1.394 . S
C248 C278 1.723 . S
H249 C272 0.947 . S
H250 C273 0.948 . S
H251 C279 0.982 . S
H252 C280 0.979 . S
H253 C280 0.980 . S
H254 C280 0.983 . S
H255 C279 0.979 . S
H256 C279 0.977 . S
C257 C245 1.453 . S
C257 H286 0.982 . S
C257 H287 0.979 . S
C257 H288 0.977 . S
C258 C245 1.684 . S
C258 H283 0.979 . S
C258 H284 0.980 . S
C258 H285 0.983 . S
C259 C260 1.391 . S
C259 C264 1.391 . S
C259 H289 0.948 . S
C260 C259 1.391 . S
C260 C261 1.391 . S
C261 C260 1.391 . S
C261 C262 1.392 . S
C261 H290 0.947 . S
C262 C261 1.392 . S
C262 C263 1.419 . S
C262 H291 0.948 . S
C263 C262 1.419 . S
C263 C264 1.391 . S
C263 C267 1.397 . S
C264 C259 1.391 . S
C264 C263 1.391 . S
C264 C265 1.399 . S
C265 C264 1.399 . S
C265 C266 1.396 . S
C265 C268 1.453 . S
C265 C269 1.684 . S
C266 C247 1.723 . S
C266 C265 1.396 . S
C266 C267 1.394 . S
C267 C263 1.397 . S
C267 C266 1.394 . S
C267 C277 1.723 . S
C268 C265 1.453 . S
C268 H292 0.982 . S
C268 H293 0.979 . S
C268 H294 0.977 . S
C269 C265 1.684 . S
C269 H295 0.979 . S
C269 H296 0.980 . S
C269 H297 0.983 . S
C270 H246 0.948 . S
C270 C271 1.391 . S
C270 C275 1.391 . S
C271 C270 1.391 . S
C271 C272 1.391 . S
C272 H249 0.947 . S
C272 C271 1.391 . S
C272 C273 1.392 . S
C273 H250 0.948 . S
C273 C272 1.392 . S
C273 C274 1.419 . S
C274 C273 1.419 . S
C274 C275 1.391 . S
C274 C278 1.397 . S
C275 C270 1.391 . S
C275 C274 1.391 . S
C275 C276 1.399 . S
C276 C275 1.399 . S
C276 C277 1.396 . S
C276 C279 1.453 . S
C276 C280 1.684 . S
C277 C267 1.723 . S
C277 C276 1.396 . S
C277 C278 1.394 . S
C278 C248 1.723 . S
C278 C274 1.397 . S
C278 C277 1.394 . S
C279 H251 0.982 . S
C279 H255 0.979 . S
C279 H256 0.977 . S
C279 C276 1.453 . S
C280 H252 0.979 . S
C280 H253 0.980 . S
C280 H254 0.983 . S
C280 C276 1.684 . S
H281 C299 0.948 . S
H282 C240 0.948 . S
H283 C258 0.979 . S
H284 C258 0.980 . S
H285 C258 0.983 . S
H286 C257 0.982 . S
H287 C257 0.979 . S
H288 C257 0.977 . S
H289 C259 0.948 . S
H290 C261 0.947 . S
H291 C262 0.948 . S
H292 C268 0.982 . S
H293 C268 0.979 . S
H294 C268 0.977 . S
H295 C269 0.979 . S
H296 C269 0.980 . S
H297 C269 0.983 . S
H298 C242 0.947 . S
C299 C242 1.392 . S
C299 C243 1.419 . S
C299 H281 0.948 . S
C300 C301 1.391 . S
C300 C304 1.391 . S
C300 H342 0.948 . S
C301 C300 1.391 . S
C301 C302 1.391 . S
C302 C301 1.391 . S
C302 H358 0.947 . S
C302 C359 1.392 . S
C303 C304 1.391 . S
C303 C307 1.397 . S
C303 C359 1.419 . S
C304 C300 1.391 . S
C304 C303 1.391 . S
C304 C305 1.399 . S
C305 C304 1.399 . S
C305 C308 1.396 . S
C305 C317 1.453 . S
C305 C318 1.684 . S
H306 C330 0.948 . S
C307 C303 1.397 . S
C307 C308 1.394 . S
C307 C326 1.723 . S
C308 C305 1.396 . S
C308 C307 1.394 . S
C308 C338 1.723 . S
H309 C332 0.947 . S
H310 C333 0.948 . S
H311 C339 0.982 . S
H312 C340 0.979 . S
H313 C340 0.980 . S
H314 C340 0.983 . S
H315 C339 0.979 . S
H316 C339 0.977 . S
C317 C305 1.453 . S
C317 H346 0.982 . S
C317 H347 0.979 . S
C317 H348 0.977 . S
C318 C305 1.684 . S
C318 H343 0.979 . S
C318 H344 0.980 . S
C318 H345 0.983 . S
C319 C320 1.391 . S
C319 C324 1.391 . S
C319 H349 0.948 . S
C320 C319 1.391 . S
C320 C321 1.391 . S
C321 C320 1.391 . S
C321 C322 1.392 . S
C321 H350 0.947 . S
C322 C321 1.392 . S
C322 C323 1.419 . S
C322 H351 0.948 . S
C323 C322 1.419 . S
C323 C324 1.391 . S
C323 C327 1.397 . S
C324 C319 1.391 . S
C324 C323 1.391 . S
C324 C325 1.399 . S
C325 C324 1.399 . S
C325 C326 1.396 . S
C325 C328 1.453 . S
C325 C329 1.684 . S
C326 C307 1.723 . S
C326 C325 1.396 . S
C326 C327 1.394 . S
C327 C323 1.397 . S
C327 C326 1.394 . S
C327 C337 1.723 . S
C328 C325 1.453 . S
C328 H352 0.982 . S
C328 H353 0.979 . S
C328 H354 0.977 . S
C329 C325 1.684 . S
C329 H355 0.979 . S
C329 H356 0.980 . S
C329 H357 0.983 . S
C330 H306 0.948 . S
C330 C331 1.391 . S
C330 C335 1.391 . S
C331 C330 1.391 . S
C331 C332 1.391 . S
C332 H309 0.947 . S
C332 C331 1.391 . S
C332 C333 1.392 . S
C333 H310 0.948 . S
C333 C332 1.392 . S
C333 C334 1.419 . S
C334 C333 1.419 . S
C334 C335 1.391 . S
C334 C338 1.397 . S
C335 C330 1.391 . S
C335 C334 1.391 . S
C335 C336 1.399 . S
C336 C335 1.399 . S
C336 C337 1.396 . S
C336 C339 1.453 . S
C336 C340 1.684 . S
C337 C327 1.723 . S
C337 C336 1.396 . S
C337 C338 1.394 . S
C338 C308 1.723 . S
C338 C334 1.397 . S
C338 C337 1.394 . S
C339 H311 0.982 . S
C339 H315 0.979 . S
C339 H316 0.977 . S
C339 C336 1.453 . S
C340 H312 0.979 . S
C340 H313 0.980 . S
C340 H314 0.983 . S
C340 C336 1.684 . S
H341 C359 0.948 . S
H342 C300 0.948 . S
H343 C318 0.979 . S
H344 C318 0.980 . S
H345 C318 0.983 . S
H346 C317 0.982 . S
H347 C317 0.979 . S
H348 C317 0.977 . S
H349 C319 0.948 . S
H350 C321 0.947 . S
H351 C322 0.948 . S
H352 C328 0.982 . S
H353 C328 0.979 . S
H354 C328 0.977 . S
H355 C329 0.979 . S
H356 C329 0.980 . S
H357 C329 0.983 . S
H358 C302 0.947 . S
C359 C302 1.392 . S
C359 C303 1.419 . S
C359 H341 0.948 . S
C360 C361 1.391 . S
C360 C364 1.391 . S
C360 H402 0.948 . S
C361 C360 1.391 . S
C361 C362 1.391 . S
C362 C361 1.391 . S
C362 H418 0.947 . S
C362 C419 1.392 . S
C363 C364 1.391 . S
C363 C367 1.397 . S
C363 C419 1.419 . S
C364 C360 1.391 . S
C364 C363 1.391 . S
C364 C365 1.399 . S
C365 C364 1.399 . S
C365 C368 1.396 . S
C365 C377 1.453 . S
C365 C378 1.684 . S
H366 C390 0.948 . S
C367 C363 1.397 . S
C367 C368 1.394 . S
C367 C386 1.723 . S
C368 C365 1.396 . S
C368 C367 1.394 . S
C368 C398 1.723 . S
H369 C392 0.947 . S
H370 C393 0.948 . S
H371 C399 0.982 . S
H372 C400 0.979 . S
H373 C400 0.980 . S
H374 C400 0.983 . S
H375 C399 0.979 . S
H376 C399 0.977 . S
C377 C365 1.453 . S
C377 H406 0.982 . S
C377 H407 0.979 . S
C377 H408 0.977 . S
C378 C365 1.684 . S
C378 H403 0.979 . S
C378 H404 0.980 . S
C378 H405 0.983 . S
C379 C380 1.391 . S
C379 C384 1.391 . S
C379 H409 0.948 . S
C380 C379 1.391 . S
C380 C381 1.391 . S
C381 C380 1.391 . S
C381 C382 1.392 . S
C381 H410 0.947 . S
C382 C381 1.392 . S
C382 C383 1.419 . S
C382 H411 0.948 . S
C383 C382 1.419 . S
C383 C384 1.391 . S
C383 C387 1.397 . S
C384 C379 1.391 . S
C384 C383 1.391 . S
C384 C385 1.399 . S
C385 C384 1.399 . S
C385 C386 1.396 . S
C385 C388 1.453 . S
C385 C389 1.684 . S
C386 C367 1.723 . S
C386 C385 1.396 . S
C386 C387 1.394 . S
C387 C383 1.397 . S
C387 C386 1.394 . S
C387 C397 1.723 . S
C388 C385 1.453 . S
C388 H412 0.982 . S
C388 H413 0.979 . S
C388 H414 0.977 . S
C389 C385 1.684 . S
C389 H415 0.979 . S
C389 H416 0.980 . S
C389 H417 0.983 . S
C390 H366 0.948 . S
C390 C391 1.391 . S
C390 C395 1.391 . S
C391 C390 1.391 . S
C391 C392 1.391 . S
C392 H369 0.947 . S
C392 C391 1.391 . S
C392 C393 1.392 . S
C393 H370 0.948 . S
C393 C392 1.392 . S
C393 C394 1.419 . S
C394 C393 1.419 . S
C394 C395 1.391 . S
C394 C398 1.397 . S
C395 C390 1.391 . S
C395 C394 1.391 . S
C395 C396 1.399 . S
C396 C395 1.399 . S
C396 C397 1.396 . S
C396 C399 1.453 . S
C396 C400 1.684 . S
C397 C387 1.723 . S
C397 C396 1.396 . S
C397 C398 1.394 . S
C398 C368 1.723 . S
C398 C394 1.397 . S
C398 C397 1.394 . S
C399 H371 0.982 . S
C399 H375 0.979 . S
C399 H376 0.977 . S
C399 C396 1.453 . S
C400 H372 0.979 . S
C400 H373 0.980 . S
C400 H374 0.983 . S
C400 C396 1.684 . S
H401 C419 0.948 . S
H402 C360 0.948 . S
H403 C378 0.979 . S
H404 C378 0.980 . S
H405 C378 0.983 . S
H406 C377 0.982 . S
H407 C377 0.979 . S
H408 C377 0.977 . S
H409 C379 0.948 . S
H410 C381 0.947 . S
H411 C382 0.948 . S
H412 C388 0.982 . S
H413 C388 0.979 . S
H414 C388 0.977 . S
H415 C389 0.979 . S
H416 C389 0.980 . S
H417 C389 0.983 . S
H418 C362 0.947 . S
C419 C362 1.392 . S
C419 C363 1.419 . S
C419 H401 0.948 . S
C420 C421 1.391 . S
C420 C424 1.391 . S
C420 H462 0.948 . S
C421 C420 1.391 . S
C421 C422 1.391 . S
C422 C421 1.391 . S
C422 H478 0.947 . S
C422 C479 1.392 . S
C423 C424 1.391 . S
C423 C427 1.397 . S
C423 C479 1.419 . S
C424 C420 1.391 . S
C424 C423 1.391 . S
C424 C425 1.399 . S
C425 C424 1.399 . S
C425 C428 1.396 . S
C425 C437 1.453 . S
C425 C438 1.684 . S
H426 C450 0.948 . S
C427 C423 1.397 . S
C427 C428 1.394 . S
C427 C446 1.723 . S
C428 C425 1.396 . S
C428 C427 1.394 . S
C428 C458 1.723 . S
H429 C452 0.947 . S
H430 C453 0.948 . S
H431 C459 0.982 . S
H432 C460 0.979 . S
H433 C460 0.980 . S
H434 C460 0.983 . S
H435 C459 0.979 . S
H436 C459 0.977 . S
C437 C425 1.453 . S
C437 H466 0.982 . S
C437 H467 0.979 . S
C437 H468 0.977 . S
C438 C425 1.684 . S
C438 H463 0.979 . S
C438 H464 0.980 . S
C438 H465 0.983 . S
C439 C440 1.391 . S
C439 C444 1.391 . S
C439 H469 0.948 . S
C440 C439 1.391 . S
C440 C441 1.391 . S
C441 C440 1.391 . S
C441 C442 1.392 . S
C441 H470 0.947 . S
C442 C441 1.392 . S
C442 C443 1.419 . S
C442 H471 0.948 . S
C443 C442 1.419 . S
C443 C444 1.391 . S
C443 C447 1.397 . S
C444 C439 1.391 . S
C444 C443 1.391 . S
C444 C445 1.399 . S
C445 C444 1.399 . S
C445 C446 1.396 . S
C445 C448 1.453 . S
C445 C449 1.684 . S
C446 C427 1.723 . S
C446 C445 1.396 . S
C446 C447 1.394 . S
C447 C443 1.397 . S
C447 C446 1.394 . S
C447 C457 1.723 . S
C448 C445 1.453 . S
C448 H472 0.982 . S
C448 H473 0.979 . S
C448 H474 0.977 . S
C449 C445 1.684 . S
C449 H475 0.979 . S
C449 H476 0.980 . S
C449 H477 0.983 . S
C450 H426 0.948 . S
C450 C451 1.391 . S
C450 C455 1.391 . S
C451 C450 1.391 . S
C451 C452 1.391 . S
C452 H429 0.947 . S
C452 C451 1.391 . S
C452 C453 1.392 . S
C453 H430 0.948 . S
C453 C452 1.392 . S
C453 C454 1.419 . S
C454 C453 1.419 . S
C454 C455 1.391 . S
C454 C458 1.397 . S
C455 C450 1.391 . S
C455 C454 1.391 . S
C455 C456 1.399 . S
C456 C455 1.399 . S
C456 C457 1.396 . S
C456 C459 1.453 . S
C456 C460 1.684 . S
C457 C447 1.723 . S
C457 C456 1.396 . S
C457 C458 1.394 . S
C458 C428 1.723 . S
C458 C454 1.397 . S
C458 C457 1.394 . S
C459 H431 0.982 . S
C459 H435 0.979 . S
C459 H436 0.977 . S
C459 C456 1.453 . S
C460 H432 0.979 . S
C460 H433 0.980 . S
C460 H434 0.983 . S
C460 C456 1.684 . S
H461 C479 0.948 . S
H462 C420 0.948 . S
H463 C438 0.979 . S
H464 C438 0.980 . S
H465 C438 0.983 . S
H466 C437 0.982 . S
H467 C437 0.979 . S
H468 C437 0.977 . S
H469 C439 0.948 . S
H470 C441 0.947 . S
H471 C442 0.948 . S
H472 C448 0.982 . S
H473 C448 0.979 . S
H474 C448 0.977 . S
H475 C449 0.979 . S
H476 C449 0.980 . S
H477 C449 0.983 . S
H478 C422 0.947 . S
C479 C422 1.392 . S
C479 C423 1.419 . S
C479 H461 0.948 . S
Dy480 O484 2.398 . S
Dy480 O485 2.491 . S
Dy480 O486 2.403 1_545 S
Dy480 O487 2.664 1_545 S
Dy480 O491 2.326 . S
Dy480 O495 2.310 1_455 S
Dy480 O496 2.351 1_445 S
C481 O492 1.185 . S
C481 O493 1.355 . S
C482 O484 1.185 . S
C482 O485 1.355 . S
Dy483 O487 2.310 1_655 S
Dy483 O490 2.351 1_665 S
Dy483 O492 2.398 . S
Dy483 O493 2.491 . S
Dy483 O494 2.403 1_565 S
Dy483 O495 2.664 1_565 S
Dy483 O497 2.326 . S
O484 Dy480 2.398 . S
O484 C482 1.185 . S
O485 Dy480 2.491 . S
O485 C482 1.355 . S
O486 Dy480 2.403 1_565 S
O486 C488 1.254 . S
O487 Dy480 2.664 1_565 S
O487 Dy483 2.310 1_455 S
O487 C488 1.268 . S
C488 O486 1.254 . S
C488 O487 1.268 . S
C489 O494 1.254 . S
C489 O495 1.268 . S
O490 Dy483 2.351 1_445 S
O490 C498 1.249 . S
O491 Dy480 2.326 . S
O491 C498 1.267 . S
O492 C481 1.185 . S
O492 Dy483 2.398 . S
O493 C481 1.355 . S
O493 Dy483 2.491 . S
O494 Dy483 2.403 1_545 S
O494 C489 1.254 . S
O495 Dy480 2.310 1_655 S
O495 Dy483 2.664 1_545 S
O495 C489 1.268 . S
O496 Dy480 2.351 1_665 S
O496 C499 1.249 . S
O497 Dy483 2.326 . S
O497 C499 1.267 . S
C498 O490 1.249 . S
C498 O491 1.267 . S
C499 O496 1.249 . S
C499 O497 1.267 . S
Dy500 O504 2.398 . S
Dy500 O505 2.491 . S
Dy500 O506 2.403 1_545 S
Dy500 O507 2.664 1_545 S
Dy500 O511 2.326 . S
Dy500 O515 2.310 1_554 S
Dy500 O516 2.351 1_544 S
C501 O512 1.185 . S
C501 O513 1.355 . S
C502 O504 1.185 . S
C502 O505 1.355 . S
Dy503 O507 2.333 1_556 S
Dy503 O510 2.332 1_566 S
Dy503 O512 2.402 . S
Dy503 O513 2.523 . S
Dy503 O514 2.375 1_565 S
Dy503 O515 2.648 1_565 S
Dy503 O517 2.341 . S
O504 Dy500 2.398 . S
O504 C502 1.185 . S
O505 Dy500 2.491 . S
O505 C502 1.355 . S
O506 Dy500 2.403 1_565 S
O506 C508 1.254 . S
O507 Dy500 2.664 1_565 S
O507 Dy503 2.333 1_554 S
O507 C508 1.268 . S
C508 O506 1.254 . S
C508 O507 1.268 . S
C509 O514 1.254 . S
C509 O515 1.268 . S
O510 Dy503 2.332 1_544 S
O510 C518 1.249 . S
O511 Dy500 2.326 . S
O511 C518 1.267 . S
O512 C501 1.185 . S
O512 Dy503 2.402 . S
O513 C501 1.355 . S
O513 Dy503 2.523 . S
O514 Dy503 2.375 1_545 S
O514 C509 1.254 . S
O515 Dy500 2.310 1_556 S
O515 Dy503 2.648 1_545 S
O515 C509 1.268 . S
O516 Dy500 2.351 1_566 S
O516 C519 1.249 . S
O517 Dy503 2.341 . S
O517 C519 1.267 . S
C518 O510 1.249 . S
C518 O511 1.267 . S
C519 O516 1.249 . S
C519 O517 1.267 . S
Dy520 O524 2.398 . S
Dy520 O525 2.491 . S
Dy520 O526 2.403 . S
Dy520 O527 2.664 . S
Dy520 O531 2.326 . S
Dy520 O535 2.310 . S
Dy520 O536 2.351 . S
C521 O532 1.185 . S
C521 O533 1.355 . S
C522 O524 1.185 . S
C522 O525 1.355 . S
Dy523 O527 2.310 . S
Dy523 O530 2.351 . S
Dy523 O532 2.398 . S
Dy523 O533 2.491 . S
Dy523 O534 2.403 . S
Dy523 O535 2.664 . S
Dy523 O537 2.326 . S
O524 Dy520 2.398 . S
O524 C522 1.185 . S
O525 Dy520 2.491 . S
O525 C522 1.355 . S
O526 Dy520 2.403 . S
O526 C528 1.254 . S
O527 Dy520 2.664 . S
O527 Dy523 2.310 . S
O527 C528 1.268 . S
C528 O526 1.254 . S
C528 O527 1.268 . S
C529 O534 1.254 . S
C529 O535 1.268 . S
O530 Dy523 2.351 . S
O530 C538 1.249 . S
O531 Dy520 2.326 . S
O531 C538 1.267 . S
O532 C521 1.185 . S
O532 Dy523 2.398 . S
O533 C521 1.355 . S
O533 Dy523 2.491 . S
O534 Dy523 2.403 . S
O534 C529 1.254 . S
O535 Dy520 2.310 . S
O535 Dy523 2.664 . S
O535 C529 1.268 . S
O536 Dy520 2.351 . S
O536 C539 1.249 . S
O537 Dy523 2.326 . S
O537 C539 1.267 . S
C538 O530 1.249 . S
C538 O531 1.267 . S
C539 O536 1.249 . S
C539 O537 1.267 . S
Dy540 O544 2.398 . S
Dy540 O545 2.491 . S
Dy540 O546 2.403 1_455 S
Dy540 O547 2.664 1_455 S
Dy540 O551 2.326 . S
Dy540 O555 2.310 1_554 S
Dy540 O556 2.351 1_454 S
C541 O552 1.185 . S
C541 O553 1.355 . S
C542 O544 1.185 . S
C542 O545 1.355 . S
Dy543 O547 2.310 1_556 S
Dy543 O550 2.351 1_656 S
Dy543 O552 2.398 . S
Dy543 O553 2.491 . S
Dy543 O554 2.403 1_655 S
Dy543 O555 2.664 1_655 S
Dy543 O557 2.326 . S
O544 Dy540 2.398 . S
O544 C542 1.185 . S
O545 Dy540 2.491 . S
O545 C542 1.355 . S
O546 Dy540 2.403 1_655 S
O546 C548 1.254 . S
O547 Dy540 2.664 1_655 S
O547 Dy543 2.310 1_554 S
O547 C548 1.268 . S
C548 O546 1.254 . S
C548 O547 1.268 . S
C549 O554 1.254 . S
C549 O555 1.268 . S
O550 Dy543 2.351 1_454 S
O550 C558 1.249 . S
O551 Dy540 2.326 . S
O551 C558 1.267 . S
O552 C541 1.185 . S
O552 Dy543 2.398 . S
O553 C541 1.355 . S
O553 Dy543 2.491 . S
O554 Dy543 2.403 1_455 S
O554 C549 1.254 . S
O555 Dy540 2.310 1_556 S
O555 Dy543 2.664 1_455 S
O555 C549 1.268 . S
O556 Dy540 2.351 1_656 S
O556 C559 1.249 . S
O557 Dy543 2.326 . S
O557 C559 1.267 . S
C558 O550 1.249 . S
C558 O551 1.267 . S
C559 O556 1.249 . S
C559 O557 1.267 . S
H560 C566 0.930 . S
H561 C569 0.930 . S
H562 C570 0.930 . S
H563 C571 0.930 . S
H564 C574 0.930 . S
H565 C575 0.930 . S
C566 H560 0.930 . S
C566 C567 1.355 . S
C566 C568 1.415 . S
C567 C566 1.355 . S
C567 C569 1.419 . S
C568 C566 1.415 . S
C568 C573 1.425 . S
C568 C575 1.409 . S
C569 H561 0.930 . S
C569 C567 1.419 . S
C569 C570 1.362 . S
C570 H562 0.930 . S
C570 C569 1.362 . S
C570 C573 1.409 . S
C571 H563 0.930 . S
C571 C572 1.355 . S
C571 C573 1.415 . S
C572 C571 1.355 . S
C572 C574 1.419 . S
C573 C568 1.425 . S
C573 C570 1.409 . S
C573 C571 1.415 . S
C574 H564 0.930 . S
C574 C572 1.419 . S
C574 C575 1.362 . S
C575 H565 0.930 . S
C575 C568 1.409 . S
C575 C574 1.362 . S
H576 C582 0.930 . S
H577 C585 0.930 . S
H578 C586 0.930 . S
H579 C587 0.930 . S
H580 C590 0.930 . S
H581 C591 0.930 . S
C582 H576 0.930 . S
C582 C583 1.355 . S
C582 C584 1.415 . S
C583 C582 1.355 . S
C583 C585 1.419 . S
C584 C582 1.415 . S
C584 C589 1.425 . S
C584 C591 1.409 . S
C585 H577 0.930 . S
C585 C583 1.419 . S
C585 C586 1.362 . S
C586 H578 0.930 . S
C586 C585 1.362 . S
C586 C589 1.409 . S
C587 H579 0.930 . S
C587 C588 1.355 . S
C587 C589 1.415 . S
C588 C587 1.355 . S
C588 C590 1.419 . S
C589 C584 1.425 . S
C589 C586 1.409 . S
C589 C587 1.415 . S
C590 H580 0.930 . S
C590 C588 1.419 . S
C590 C591 1.362 . S
C591 H581 0.930 . S
C591 C584 1.409 . S
C591 C590 1.362 . S
H592 C598 0.930 . S
H593 C601 0.930 . S
H594 C602 0.930 . S
H595 C603 0.930 . S
H596 C606 0.930 . S
H597 C607 0.930 . S
C598 H592 0.930 . S
C598 C599 1.355 . S
C598 C600 1.415 . S
C599 C598 1.355 . S
C599 C601 1.419 . S
C600 C598 1.415 . S
C600 C605 1.425 . S
C600 C607 1.409 . S
C601 H593 0.930 . S
C601 C599 1.419 . S
C601 C602 1.362 . S
C602 H594 0.930 . S
C602 C601 1.362 . S
C602 C605 1.409 . S
C603 H595 0.930 . S
C603 C604 1.355 . S
C603 C605 1.415 . S
C604 C603 1.355 . S
C604 C606 1.419 . S
C605 C600 1.425 . S
C605 C602 1.409 . S
C605 C603 1.415 . S
C606 H596 0.930 . S
C606 C604 1.419 . S
C606 C607 1.362 . S
C607 H597 0.930 . S
C607 C600 1.409 . S
C607 C606 1.362 . S
H608 C614 0.930 . S
H609 C617 0.930 . S
H610 C618 0.930 . S
H611 C619 0.930 . S
H612 C622 0.930 . S
H613 C623 0.930 . S
C614 H608 0.930 . S
C614 C615 1.355 . S
C614 C616 1.415 . S
C615 C614 1.355 . S
C615 C617 1.419 . S
C616 C614 1.415 . S
C616 C621 1.425 . S
C616 C623 1.409 . S
C617 H609 0.930 . S
C617 C615 1.419 . S
C617 C618 1.362 . S
C618 H610 0.930 . S
C618 C617 1.362 . S
C618 C621 1.409 . S
C619 H611 0.930 . S
C619 C620 1.355 . S
C619 C621 1.415 . S
C620 C619 1.355 . S
C620 C622 1.419 . S
C621 C616 1.425 . S
C621 C618 1.409 . S
C621 C619 1.415 . S
C622 H612 0.930 . S
C622 C620 1.419 . S
C622 C623 1.362 . S
C623 H613 0.930 . S
C623 C616 1.409 . S
C623 C622 1.362 . S
H624 C630 0.930 . S
H625 C633 0.930 . S
H626 C634 0.930 . S
H627 C635 0.930 . S
H628 C638 0.930 . S
H629 C639 0.930 . S
C630 H624 0.930 . S
C630 C631 1.355 . S
C630 C632 1.415 . S
C631 C630 1.355 . S
C631 C633 1.419 . S
C632 C630 1.415 . S
C632 C637 1.425 . S
C632 C639 1.409 . S
C633 H625 0.930 . S
C633 C631 1.419 . S
C633 C634 1.362 . S
C634 H626 0.930 . S
C634 C633 1.362 . S
C634 C637 1.409 . S
C635 H627 0.930 . S
C635 C636 1.355 . S
C635 C637 1.415 . S
C636 C635 1.355 . S
C636 C638 1.419 . S
C637 C632 1.425 . S
C637 C634 1.409 . S
C637 C635 1.415 . S
C638 H628 0.930 . S
C638 C636 1.419 . S
C638 C639 1.362 . S
C639 H629 0.930 . S
C639 C632 1.409 . S
C639 C638 1.362 . S
H640 C646 0.930 . S
H641 C649 0.930 . S
H642 C650 0.930 . S
H643 C651 0.930 . S
H644 C654 0.930 1_545 S
H645 C655 0.930 . S
C646 H640 0.930 . S
C646 C647 1.355 . S
C646 C648 1.415 . S
C647 C646 1.355 . S
C647 C649 1.419 . S
C648 C646 1.415 . S
C648 C653 1.425 . S
C648 C655 1.409 . S
C649 H641 0.930 . S
C649 C647 1.419 . S
C649 C650 1.362 . S
C650 H642 0.930 . S
C650 C649 1.362 . S
C650 C653 1.409 . S
C651 H643 0.930 . S
C651 C652 1.355 . S
C651 C653 1.415 . S
C652 C651 1.355 . S
C652 C654 1.419 . S
C653 C648 1.425 . S
C653 C650 1.409 . S
C653 C651 1.415 . S
C654 H644 0.930 1_565 S
C654 C652 1.419 . S
C654 C655 1.362 . S
C655 H645 0.930 . S
C655 C648 1.409 . S
C655 C654 1.362 . S
H656 C662 0.930 . S
H657 C665 0.930 . S
H658 C666 0.930 . S
H659 C667 0.930 . S
H660 C670 0.930 . S
H661 C671 0.930 . S
C662 H656 0.930 . S
C662 C663 1.355 . S
C662 C664 1.415 . S
C663 C662 1.355 . S
C663 C665 1.419 . S
C664 C662 1.415 . S
C664 C669 1.425 . S
C664 C671 1.409 . S
C665 H657 0.930 . S
C665 C663 1.419 . S
C665 C666 1.362 . S
C666 H658 0.930 . S
C666 C665 1.362 . S
C666 C669 1.409 . S
C667 H659 0.930 . S
C667 C668 1.355 . S
C667 C669 1.415 . S
C668 C667 1.355 . S
C668 C670 1.419 . S
C669 C664 1.425 . S
C669 C666 1.409 . S
C669 C667 1.415 . S
C670 H660 0.930 . S
C670 C668 1.419 . S
C670 C671 1.362 . S
C671 H661 0.930 . S
C671 C664 1.409 . S
C671 C670 1.362 . S
H672 C678 0.930 . S
H673 C681 0.930 . S
H674 C682 0.930 . S
H675 C683 0.930 . S
H676 C686 0.930 . S
H677 C687 0.930 . S
C678 H672 0.930 . S
C678 C679 1.355 . S
C678 C680 1.415 . S
C679 C678 1.355 . S
C679 C681 1.419 . S
C680 C678 1.415 . S
C680 C685 1.425 . S
C680 C687 1.409 . S
C681 H673 0.930 . S
C681 C679 1.419 . S
C681 C682 1.362 . S
C682 H674 0.930 . S
C682 C681 1.362 . S
C682 C685 1.409 . S
C683 H675 0.930 . S
C683 C684 1.355 . S
C683 C685 1.415 . S
C684 C683 1.355 . S
C684 C686 1.419 . S
C685 C680 1.425 . S
C685 C682 1.409 . S
C685 C683 1.415 . S
C686 H676 0.930 . S
C686 C684 1.419 . S
C686 C687 1.362 . S
C687 H677 0.930 . S
C687 C680 1.409 . S
C687 C686 1.362 . S
H688 C694 0.930 . S
H689 C697 0.930 . S
H690 C698 0.930 . S
H691 C699 0.930 . S
H692 C702 0.930 . S
H693 C703 0.930 . S
C694 H688 0.930 . S
C694 C695 1.355 . S
C694 C696 1.415 . S
C695 C694 1.355 . S
C695 C697 1.419 . S
C696 C694 1.415 . S
C696 C701 1.425 . S
C696 C703 1.409 . S
C697 H689 0.930 . S
C697 C695 1.419 . S
C697 C698 1.362 . S
C698 H690 0.930 . S
C698 C697 1.362 . S
C698 C701 1.409 . S
C699 H691 0.930 . S
C699 C700 1.355 . S
C699 C701 1.415 . S
C700 C699 1.355 . S
C700 C702 1.419 . S
C701 C696 1.425 . S
C701 C698 1.409 . S
C701 C699 1.415 . S
C702 H692 0.930 . S
C702 C700 1.419 . S
C702 C703 1.362 . S
C703 H693 0.930 . S
C703 C696 1.409 . S
C703 C702 1.362 . S
H704 C710 0.930 . S
H705 C713 0.930 . S
H706 C714 0.930 . S
H707 C715 0.930 . S
H708 C718 0.930 . S
H709 C719 0.930 . S
C710 H704 0.930 . S
C710 C711 1.355 . S
C710 C712 1.415 . S
C711 C710 1.355 . S
C711 C713 1.419 . S
C712 C710 1.415 . S
C712 C717 1.425 . S
C712 C719 1.409 . S
C713 H705 0.930 . S
C713 C711 1.419 . S
C713 C714 1.362 . S
C714 H706 0.930 . S
C714 C713 1.362 . S
C714 C717 1.409 . S
C715 H707 0.930 . S
C715 C716 1.355 . S
C715 C717 1.415 . S
C716 C715 1.355 . S
C716 C718 1.419 . S
C717 C712 1.425 . S
C717 C714 1.409 . S
C717 C715 1.415 . S
C718 H708 0.930 . S
C718 C716 1.419 . S
C718 C719 1.362 . S
C719 H709 0.930 . S
C719 C712 1.409 . S
C719 C718 1.362 . S
H720 C726 0.930 . S
H721 C729 0.930 . S
H722 C730 0.930 . S
H723 C731 0.930 . S
H724 C734 0.930 . S
H725 C735 0.930 . S
C726 H720 0.930 . S
C726 C727 1.355 . S
C726 C728 1.415 . S
C727 C726 1.355 . S
C727 C729 1.419 . S
C728 C726 1.415 . S
C728 C733 1.425 . S
C728 C735 1.409 . S
C729 H721 0.930 . S
C729 C727 1.419 . S
C729 C730 1.362 . S
C730 H722 0.930 . S
C730 C729 1.362 . S
C730 C733 1.409 . S
C731 H723 0.930 . S
C731 C732 1.355 . S
C731 C733 1.415 . S
C732 C731 1.355 . S
C732 C734 1.419 . S
C733 C728 1.425 . S
C733 C730 1.409 . S
C733 C731 1.415 . S
C734 H724 0.930 . S
C734 C732 1.419 . S
C734 C735 1.362 . S
C735 H725 0.930 . S
C735 C728 1.409 . S
C735 C734 1.362 . S
H736 C742 0.930 . S
H737 C745 0.930 . S
H738 C746 0.930 . S
H739 C747 0.930 . S
H740 C750 0.930 . S
H741 C751 0.930 . S
C742 H736 0.930 . S
C742 C743 1.355 . S
C742 C744 1.415 . S
C743 C742 1.355 . S
C743 C745 1.419 . S
C744 C742 1.415 . S
C744 C749 1.425 . S
C744 C751 1.409 . S
C745 H737 0.930 . S
C745 C743 1.419 . S
C745 C746 1.362 . S
C746 H738 0.930 . S
C746 C745 1.362 . S
C746 C749 1.409 . S
C747 H739 0.930 . S
C747 C748 1.355 . S
C747 C749 1.415 . S
C748 C747 1.355 . S
C748 C750 1.419 . S
C749 C744 1.425 . S
C749 C746 1.409 . S
C749 C747 1.415 . S
C750 H740 0.930 . S
C750 C748 1.419 . S
C750 C751 1.362 . S
C751 H741 0.930 . S
C751 C744 1.409 . S
C751 C750 1.362 . S
H752 C758 0.930 . S
H753 C761 0.930 . S
H754 C762 0.930 . S
H755 C763 0.930 . S
H756 C766 0.930 . S
H757 C767 0.930 . S
C758 H752 0.930 . S
C758 C759 1.355 . S
C758 C760 1.415 . S
C759 C758 1.355 . S
C759 C761 1.419 . S
C760 C758 1.415 . S
C760 C765 1.425 . S
C760 C767 1.409 . S
C761 H753 0.930 . S
C761 C759 1.419 . S
C761 C762 1.362 . S
C762 H754 0.930 . S
C762 C761 1.362 . S
C762 C765 1.409 . S
C763 H755 0.930 . S
C763 C764 1.355 . S
C763 C765 1.415 . S
C764 C763 1.355 . S
C764 C766 1.419 . S
C765 C760 1.425 . S
C765 C762 1.409 . S
C765 C763 1.415 . S
C766 H756 0.930 . S
C766 C764 1.419 . S
C766 C767 1.362 . S
C767 H757 0.930 . S
C767 C760 1.409 . S
C767 C766 1.362 . S
H768 C774 0.930 . S
H769 C777 0.930 . S
H770 C778 0.930 . S
H771 C779 0.930 . S
H772 C782 0.930 . S
H773 C783 0.930 . S
C774 H768 0.930 . S
C774 C775 1.355 . S
C774 C776 1.415 . S
C775 C774 1.355 . S
C775 C777 1.419 . S
C776 C774 1.415 . S
C776 C781 1.425 . S
C776 C783 1.409 . S
C777 H769 0.930 . S
C777 C775 1.419 . S
C777 C778 1.362 . S
C778 H770 0.930 . S
C778 C777 1.362 . S
C778 C781 1.409 . S
C779 H771 0.930 . S
C779 C780 1.355 . S
C779 C781 1.415 . S
C780 C779 1.355 . S
C780 C782 1.419 . S
C781 C776 1.425 . S
C781 C778 1.409 . S
C781 C779 1.415 . S
C782 H772 0.930 . S
C782 C780 1.419 . S
C782 C783 1.362 . S
C783 H773 0.930 . S
C783 C776 1.409 . S
C783 C782 1.362 . S
H784 C790 0.930 . S
H785 C793 0.930 . S
H786 C794 0.930 . S
H787 C795 0.930 . S
H788 C798 0.930 . S
H789 C799 0.930 . S
C790 H784 0.930 . S
C790 C791 1.355 . S
C790 C792 1.415 . S
C791 C790 1.355 . S
C791 C793 1.419 . S
C792 C790 1.415 . S
C792 C797 1.425 . S
C792 C799 1.409 . S
C793 H785 0.930 . S
C793 C791 1.419 . S
C793 C794 1.362 . S
C794 H786 0.930 . S
C794 C793 1.362 . S
C794 C797 1.409 . S
C795 H787 0.930 . S
C795 C796 1.355 . S
C795 C797 1.415 . S
C796 C795 1.355 . S
C796 C798 1.419 . S
C797 C792 1.425 . S
C797 C794 1.409 . S
C797 C795 1.415 . S
C798 H788 0.930 . S
C798 C796 1.419 . S
C798 C799 1.362 . S
C799 H789 0.930 . S
C799 C792 1.409 . S
C799 C798 1.362 . S
H800 C806 0.930 . S
H801 C809 0.930 . S
H802 C810 0.930 . S
H803 C811 0.930 . S
H804 C814 0.930 . S
H805 C815 0.930 . S
C806 H800 0.930 . S
C806 C807 1.355 . S
C806 C808 1.415 . S
C807 C806 1.355 . S
C807 C809 1.419 . S
C808 C806 1.415 . S
C808 C813 1.425 . S
C808 C815 1.409 . S
C809 H801 0.930 . S
C809 C807 1.419 . S
C809 C810 1.362 . S
C810 H802 0.930 . S
C810 C809 1.362 . S
C810 C813 1.409 . S
C811 H803 0.930 . S
C811 C812 1.355 . S
C811 C813 1.415 . S
C812 C811 1.355 . S
C812 C814 1.419 . S
C813 C808 1.425 . S
C813 C810 1.409 . S
C813 C811 1.415 . S
C814 H804 0.930 . S
C814 C812 1.419 . S
C814 C815 1.362 . S
C815 H805 0.930 . S
C815 C808 1.409 . S
C815 C814 1.362 . S
H816 C822 0.930 . S
H817 C825 0.930 . S
H818 C826 0.930 . S
H819 C827 0.930 . S
H820 C830 0.930 . S
H821 C831 0.930 . S
C822 H816 0.930 . S
C822 C823 1.355 . S
C822 C824 1.415 . S
C823 C822 1.355 . S
C823 C825 1.419 . S
C824 C822 1.415 . S
C824 C829 1.425 . S
C824 C831 1.409 . S
C825 H817 0.930 . S
C825 C823 1.419 . S
C825 C826 1.362 . S
C826 H818 0.930 . S
C826 C825 1.362 . S
C826 C829 1.409 . S
C827 H819 0.930 . S
C827 C828 1.355 . S
C827 C829 1.415 . S
C828 C827 1.355 . S
C828 C830 1.419 . S
C829 C824 1.425 . S
C829 C826 1.409 . S
C829 C827 1.415 . S
C830 H820 0.930 . S
C830 C828 1.419 . S
C830 C831 1.362 . S
C831 H821 0.930 . S
C831 C824 1.409 . S
C831 C830 1.362 . S
H832 C838 0.930 . S
H833 C841 0.930 . S
H834 C842 0.930 . S
H835 C843 0.930 . S
H836 C846 0.930 1_565 S
H837 C847 0.930 . S
C838 H832 0.930 . S
C838 C839 1.355 . S
C838 C840 1.415 . S
C839 C838 1.355 . S
C839 C841 1.419 . S
C840 C838 1.415 . S
C840 C845 1.425 . S
C840 C847 1.409 . S
C841 H833 0.930 . S
C841 C839 1.419 . S
C841 C842 1.362 . S
C842 H834 0.930 . S
C842 C841 1.362 . S
C842 C845 1.409 . S
C843 H835 0.930 . S
C843 C844 1.355 . S
C843 C845 1.415 . S
C844 C843 1.355 . S
C844 C846 1.419 . S
C845 C840 1.425 . S
C845 C842 1.409 . S
C845 C843 1.415 . S
C846 H836 0.930 1_545 S
C846 C844 1.419 . S
C846 C847 1.362 . S
C847 H837 0.930 . S
C847 C840 1.409 . S
C847 C846 1.362 . S
H848 C854 0.930 . S
H849 C857 0.930 . S
H850 C858 0.930 . S
H851 C859 0.930 . S
H852 C862 0.930 . S
H853 C863 0.930 . S
C854 H848 0.930 . S
C854 C855 1.355 . S
C854 C856 1.415 . S
C855 C854 1.355 . S
C855 C857 1.419 . S
C856 C854 1.415 . S
C856 C861 1.425 . S
C856 C863 1.409 . S
C857 H849 0.930 . S
C857 C855 1.419 . S
C857 C858 1.362 . S
C858 H850 0.930 . S
C858 C857 1.362 . S
C858 C861 1.409 . S
C859 H851 0.930 . S
C859 C860 1.355 . S
C859 C861 1.415 . S
C860 C859 1.355 . S
C860 C862 1.419 . S
C861 C856 1.425 . S
C861 C858 1.409 . S
C861 C859 1.415 . S
C862 H852 0.930 . S
C862 C860 1.419 . S
C862 C863 1.362 . S
C863 H853 0.930 . S
C863 C856 1.409 . S
C863 C862 1.362 . S
H864 C870 0.930 . S
H865 C873 0.930 . S
H866 C874 0.930 . S
H867 C875 0.930 . S
H868 C878 0.930 . S
H869 C879 0.930 . S
C870 H864 0.930 . S
C870 C871 1.355 . S
C870 C872 1.415 . S
C871 C870 1.355 . S
C871 C873 1.419 . S
C872 C870 1.415 . S
C872 C877 1.425 . S
C872 C879 1.409 . S
C873 H865 0.930 . S
C873 C871 1.419 . S
C873 C874 1.362 . S
C874 H866 0.930 . S
C874 C873 1.362 . S
C874 C877 1.409 . S
C875 H867 0.930 . S
C875 C876 1.355 . S
C875 C877 1.415 . S
C876 C875 1.355 . S
C876 C878 1.419 . S
C877 C872 1.425 . S
C877 C874 1.409 . S
C877 C875 1.415 . S
C878 H868 0.930 . S
C878 C876 1.419 . S
C878 C879 1.362 . S
C879 H869 0.930 . S
C879 C872 1.409 . S
C879 C878 1.362 . S
H880 C886 0.930 . S
H881 C889 0.930 . S
H882 C890 0.930 . S
H883 C891 0.930 . S
H884 C894 0.930 . S
H885 C895 0.930 . S
C886 H880 0.930 . S
C886 C887 1.355 . S
C886 C888 1.415 . S
C887 C886 1.355 . S
C887 C889 1.419 . S
C888 C886 1.415 . S
C888 C893 1.425 . S
C888 C895 1.409 . S
C889 H881 0.930 . S
C889 C887 1.419 . S
C889 C890 1.362 . S
C890 H882 0.930 . S
C890 C889 1.362 . S
C890 C893 1.409 . S
C891 H883 0.930 . S
C891 C892 1.355 . S
C891 C893 1.415 . S
C892 C891 1.355 . S
C892 C894 1.419 . S
C893 C888 1.425 . S
C893 C890 1.409 . S
C893 C891 1.415 . S
C894 H884 0.930 . S
C894 C892 1.419 . S
C894 C895 1.362 . S
C895 H885 0.930 . S
C895 C888 1.409 . S
C895 C894 1.362 . S
H896 C902 0.930 . S
H897 C905 0.930 . S
H898 C906 0.930 . S
H899 C907 0.930 . S
H900 C910 0.930 . S
H901 C911 0.930 . S
C902 H896 0.930 . S
C902 C903 1.355 . S
C902 C904 1.415 . S
C903 C902 1.355 . S
C903 C905 1.419 . S
C904 C902 1.415 . S
C904 C909 1.425 . S
C904 C911 1.409 . S
C905 H897 0.930 . S
C905 C903 1.419 . S
C905 C906 1.362 . S
C906 H898 0.930 . S
C906 C905 1.362 . S
C906 C909 1.409 . S
C907 H899 0.930 . S
C907 C908 1.355 . S
C907 C909 1.415 . S
C908 C907 1.355 . S
C908 C910 1.419 . S
C909 C904 1.425 . S
C909 C906 1.409 . S
C909 C907 1.415 . S
C910 H900 0.930 . S
C910 C908 1.419 . S
C910 C911 1.362 . S
C911 H901 0.930 . S
C911 C904 1.409 . S
C911 C910 1.362 . S
H912 C918 0.930 . S
H913 C921 0.930 . S
H914 C922 0.930 . S
H915 C923 0.930 . S
H916 C926 0.930 1_655 S
H917 C927 0.930 . S
C918 H912 0.930 . S
C918 C919 1.355 . S
C918 C920 1.415 . S
C919 C918 1.355 . S
C919 C921 1.419 . S
C920 C918 1.415 . S
C920 C925 1.425 . S
C920 C927 1.409 . S
C921 H913 0.930 . S
C921 C919 1.419 . S
C921 C922 1.362 . S
C922 H914 0.930 . S
C922 C921 1.362 . S
C922 C925 1.409 . S
C923 H915 0.930 . S
C923 C924 1.355 . S
C923 C925 1.415 . S
C924 C923 1.355 . S
C924 C926 1.419 . S
C925 C920 1.425 . S
C925 C922 1.409 . S
C925 C923 1.415 . S
C926 H916 0.930 1_455 S
C926 C924 1.419 . S
C926 C927 1.362 . S
C927 H917 0.930 . S
C927 C920 1.409 . S
C927 C926 1.362 . S
H928 C934 0.930 . S
H929 C937 0.930 . S
H930 C938 0.930 . S
H931 C939 0.930 . S
H932 C942 0.930 . S
H933 C943 0.930 . S
C934 H928 0.930 . S
C934 C935 1.355 . S
C934 C936 1.415 . S
C935 C934 1.355 . S
C935 C937 1.419 . S
C936 C934 1.415 . S
C936 C941 1.425 . S
C936 C943 1.409 . S
C937 H929 0.930 . S
C937 C935 1.419 . S
C937 C938 1.362 . S
C938 H930 0.930 . S
C938 C937 1.362 . S
C938 C941 1.409 . S
C939 H931 0.930 . S
C939 C940 1.355 . S
C939 C941 1.415 . S
C940 C939 1.355 . S
C940 C942 1.419 . S
C941 C936 1.425 . S
C941 C938 1.409 . S
C941 C939 1.415 . S
C942 H932 0.930 . S
C942 C940 1.419 . S
C942 C943 1.362 . S
C943 H933 0.930 . S
C943 C936 1.409 . S
C943 C942 1.362 . S
C567 C1 1.502 . S
C572 C482 1.559 . S
C583 C80 1.335 . S
C588 C501 1.359 . S
C604 C538 1.726 . S
C599 C140 1.714 . S
C615 C211 1.663 . S
C620 C548 1.638 . S
C636 C518 1.996 . S
C631 C31 1.872 . S
C652 C488 1.360 . S
C647 C61 1.381 . S
C668 C559 1.485 . S
C663 C151 1.531 . S
C684 C529 1.432 . S
C679 C200 1.447 . S
C695 C20 1.666 . S
C700 C542 1.751 . S
C716 C509 1.686 . S
C711 C121 1.749 . S
C727 C181 1.699 . S
C732 C499 1.752 . S
C743 C91 1.251 . S
C748 C521 1.233 . S
C764 C481 1.537 . S
C759 C260 1.468 . S
C775 C320 1.264 . S
C780 C502 1.282 . S
C791 C361 1.721 . S
C796 C539 1.739 . S
C807 C451 1.692 . S
C812 C549 1.688 . S
C823 C271 1.915 . S
C828 C519 2.000 . S
C844 C489 1.376 . S
C839 C301 1.401 . S
C860 C558 1.485 . S
C855 C380 1.490 . S
C876 C528 1.402 . S
C871 C440 1.403 . S
C887 C241 1.670 . S
C892 C541 1.756 . S
C908 C508 1.670 . S
C903 C391 1.754 . S
C924 C498 1.746 . S
C919 C421 1.677 . S
C935 C331 1.269 . S
C940 C522 1.252 . S
