# Generated by pormake.
# Topology rtl, (3,6)-cn, num edge types: 1
# Building blocks:
#     Node 0, Type 0, BuildingBlock: KAKCAD_clean_linker_0, # of connection points: 3
#     Node 1, Type 0, BuildingBlock: KAKCAD_clean_linker_0, # of connection points: 3
#     Node 2, Type 0, BuildingBlock: KAKCAD_clean_linker_0, # of connection points: 3
#     Node 3, Type 0, BuildingBlock: KAKCAD_clean_linker_0, # of connection points: 3
#     Node 4, Type 1, BuildingBlock: KUMBUR_clean_sbu_1, # of connection points: 6
#     Node 5, Type 1, BuildingBlock: KUMBUR_clean_sbu_1, # of connection points: 6
#     Edge 6, Type (0, 1), BuildingBlock: CIFDUS_clean_linker_0, # of connection points: 2
#     Edge 7, Type (0, 1), BuildingBlock: CIFDUS_clean_linker_0, # of connection points: 2
#     Edge 8, Type (0, 1), BuildingBlock: CIFDUS_clean_linker_0, # of connection points: 2
#     Edge 9, Type (0, 1), BuildingBlock: CIFDUS_clean_linker_0, # of connection points: 2
#     Edge 10, Type (0, 1), BuildingBlock: CIFDUS_clean_linker_0, # of connection points: 2
#     Edge 11, Type (0, 1), BuildingBlock: CIFDUS_clean_linker_0, # of connection points: 2
#     Edge 12, Type (0, 1), BuildingBlock: CIFDUS_clean_linker_0, # of connection points: 2
#     Edge 13, Type (0, 1), BuildingBlock: CIFDUS_clean_linker_0, # of connection points: 2
#     Edge 14, Type (0, 1), BuildingBlock: CIFDUS_clean_linker_0, # of connection points: 2
#     Edge 15, Type (0, 1), BuildingBlock: CIFDUS_clean_linker_0, # of connection points: 2
#     Edge 16, Type (0, 1), BuildingBlock: CIFDUS_clean_linker_0, # of connection points: 2
#     Edge 17, Type (0, 1), BuildingBlock: CIFDUS_clean_linker_0, # of connection points: 2
# Relax obj value: 0.018
# Max RMSD: 0.103
# Mean RMSD: 0.062
data_MOF--net-rtl--node1-KUMBUR_clean_sbu_1--node2-KAKCAD_clean_linker_0--edge1-CIFDUS_clean_linker_0
_symmetry_space_group_name_H-M    P1
_symmetry_Int_Tables_number       1
_symmetry_cell_setting            triclinic
loop_
_symmetry_equiv_pos_as_xyz
'x, y, z'
_cell_length_a     35.87835
_cell_length_b     36.54422
_cell_length_c     31.954074
_cell_angle_alpha  78.945728
_cell_angle_beta   99.386577
_cell_angle_gamma 90.980891
loop_
_atom_site_label
_atom_site_type_symbol
_atom_site_fract_x
_atom_site_fract_y
_atom_site_fract_z
_atom_type_partial_charge
C0 C 0.16966 0.87949 0.86199 0.0
C1 C 0.16171 0.91802 0.85179 0.0
C2 C 0.18533 0.86236 0.90391 0.0
C3 C 0.19386 0.88336 0.93671 0.0
C4 C 0.18685 0.92207 0.92628 0.0
C5 C 0.17089 0.93919 0.88433 0.0
C6 C 0.20891 0.86465 0.9818 0.0
C7 C 0.23479 0.83474 0.98986 0.0
C8 C 0.24756 0.81563 0.03215 0.0
C9 C 0.23466 0.82702 0.06694 0.0
C10 C 0.20878 0.85696 0.05954 0.0
C11 C 0.19616 0.87556 0.01692 0.0
C12 C 0.19307 0.86782 0.09571 0.0
C13 C 0.17998 0.84063 0.12719 0.0
C14 C 0.18869 0.90565 0.09729 0.0
C15 C 0.17042 0.91611 0.12868 0.0
C16 C 0.15594 0.88899 0.15915 0.0
C17 C 0.27366 0.78318 0.03939 0.0
C18 C 0.26574 0.75518 0.0148 0.0
C19 C 0.30698 0.78046 0.06977 0.0
C20 C 0.33246 0.75078 0.07457 0.0
C21 C 0.32488 0.72295 0.04944 0.0
C22 C 0.2909 0.72531 0.01994 0.0
C23 C 0.16155 0.85109 0.15852 0.0
H24 H 0.16355 0.8624 0.83757 0.0
H25 H 0.18991 0.83244 0.91077 0.0
H26 H 0.19354 0.93918 0.9506 0.0
H27 H 0.16492 0.96888 0.8777 0.0
H28 H 0.24537 0.82639 0.96315 0.0
H29 H 0.17505 0.89762 0.01099 0.0
H30 H 0.24431 0.81223 0.09963 0.0
H31 H 0.18257 0.81127 0.12652 0.0
H32 H 0.19899 0.92722 0.07383 0.0
H33 H 0.16729 0.94552 0.12877 0.0
H34 H 0.23994 0.75632 0.9916 0.0
H35 H 0.31384 0.80185 0.08891 0.0
H36 H 0.1504 0.82947 0.18117 0.0
H37 H 0.28356 0.704 1.00082 0.0
H38 H 0.35851 0.75018 0.09723 0.0
C39 C 0.62065 0.68345 0.75861 0.0
C40 C 0.63032 0.64768 0.78356 0.0
C41 C 0.63643 0.69672 0.72129 0.0
C42 C 0.6618 0.67434 0.70793 0.0
C43 C 0.67229 0.63917 0.73317 0.0
C44 C 0.65711 0.62616 0.77078 0.0
C45 C 0.67505 0.68589 0.66594 0.0
C46 C 0.70093 0.71488 0.65962 0.0
C47 C 0.71469 0.72402 0.62021 0.0
C48 C 0.70287 0.70323 0.58777 0.0
C49 C 0.67583 0.67494 0.59272 0.0
C50 C 0.66204 0.66679 0.63232 0.0
C51 C 0.66233 0.65412 0.55681 0.0
C52 C 0.665 0.66978 0.51353 0.0
C53 C 0.64674 0.6183 0.56514 0.0
C54 C 0.63397 0.59925 0.53161 0.0
C55 C 0.63803 0.61431 0.48853 0.0
C56 C 0.74138 0.7552 0.61192 0.0
C57 C 0.73554 0.7803 0.57211 0.0
C58 C 0.77371 0.75899 0.64211 0.0
C59 C 0.80044 0.78633 0.63183 0.0
C60 C 0.79525 0.81048 0.59122 0.0
C61 C 0.76204 0.80758 0.56194 0.0
C62 C 0.65412 0.64992 0.48037 0.0
H63 H 0.59989 0.70075 0.76696 0.0
H64 H 0.62773 0.72384 0.70197 0.0
H65 H 0.69194 0.62152 0.72342 0.0
H66 H 0.66617 0.59897 0.78957 0.0
H67 H 0.7103 0.73016 0.68525 0.0
H68 H 0.64074 0.64585 0.63749 0.0
H69 H 0.7157 0.70904 0.55889 0.0
H70 H 0.67547 0.69761 0.50457 0.0
H71 H 0.64451 0.60431 0.59763 0.0
H72 H 0.6209 0.5726 0.54011 0.0
H73 H 0.71054 0.77855 0.5485 0.0
H74 H 0.77905 0.73994 0.67296 0.0
H75 H 0.659 0.6629 0.44844 0.0
H76 H 0.75661 0.82628 0.53084 0.0
H77 H 0.82578 0.78766 0.65507 0.0
C78 C 0.83043 0.11024 0.21607 0.0
C79 C 0.86987 0.10749 0.2288 0.0
C80 C 0.81471 0.12426 0.17321 0.0
C81 C 0.83796 0.13539 0.14188 0.0
C82 C 0.8773 0.13124 0.15392 0.0
C83 C 0.89314 0.11759 0.19705 0.0
C84 C 0.82089 0.15323 0.09742 0.0
C85 C 0.79528 0.18305 0.09138 0.0
C86 C 0.7771 0.19983 0.04989 0.0
C87 C 0.78591 0.18641 0.01409 0.0
C88 C 0.81271 0.15741 0.01935 0.0
C89 C 0.82988 0.14082 0.06136 0.0
C90 C 0.82382 0.14574 0.98081 0.0
C91 C 0.79696 0.14474 0.94365 0.0
C92 C 0.86189 0.13776 0.97989 0.0
C93 C 0.87302 0.13063 0.94225 0.0
C94 C 0.84643 0.13164 0.90454 0.0
C95 C 0.74965 0.2316 0.04431 0.0
C96 C 0.72905 0.23501 0.07735 0.0
C97 C 0.74425 0.25932 0.00651 0.0
C98 C 0.71911 0.28922 1.00193 0.0
C99 C 0.69959 0.29332 0.03567 0.0
C100 C 0.70524 0.26569 0.07355 0.0
C101 C 0.80818 0.13802 0.90587 0.0
H102 H 0.81158 0.10181 0.2393 0.0
H103 H 0.78424 0.12672 0.16457 0.0
H104 H 0.8958 0.13985 0.13032 0.0
H105 H 0.92361 0.11615 0.20571 0.0
H106 H 0.79041 0.19358 0.1195 0.0
H107 H 0.84975 0.1178 0.06615 0.0
H108 H 0.77237 0.19884 0.98185 0.0
H109 H 0.76728 0.14984 0.94344 0.0
H110 H 0.88345 0.1387 0.00763 0.0
H111 H 0.90277 0.12624 0.94202 0.0
H112 H 0.73116 0.21404 0.10658 0.0
H113 H 0.75975 0.25853 0.98037 0.0
H114 H 0.78704 0.13855 0.87738 0.0
H115 H 0.69178 0.26763 0.10096 0.0
H116 H 0.7152 0.30902 0.97168 0.0
C117 C 0.34138 0.36225 0.29791 0.0
C118 C 0.37861 0.37523 0.29854 0.0
C119 C 0.32818 0.34714 0.33642 0.0
C120 C 0.35186 0.34465 0.37657 0.0
C121 C 0.38942 0.35655 0.37706 0.0
C122 C 0.40258 0.37169 0.33864 0.0
C123 C 0.33708 0.33159 0.41787 0.0
C124 C 0.31208 0.30134 0.42255 0.0
C125 C 0.298 0.28963 0.46156 0.0
C126 C 0.30825 0.30919 0.49544 0.0
C127 C 0.33304 0.33916 0.49138 0.0
C128 C 0.34758 0.35005 0.45281 0.0
C129 C 0.34333 0.35932 0.52752 0.0
C130 C 0.31512 0.37606 0.54356 0.0
C131 C 0.38125 0.36143 0.5466 0.0
C132 C 0.39075 0.3797 0.5815 0.0
C133 C 0.36257 0.39688 0.59714 0.0
C134 C 0.27278 0.25694 0.46793 0.0
C135 C 0.24132 0.25265 0.43672 0.0
C136 C 0.27881 0.23095 0.50705 0.0
C137 C 0.25306 0.20261 0.51583 0.0
C138 C 0.2205 0.19941 0.48574 0.0
C139 C 0.21539 0.22413 0.44556 0.0
C140 C 0.32471 0.39507 0.57775 0.0
H141 H 0.32225 0.36404 0.26761 0.0
H142 H 0.29904 0.33846 0.33477 0.0
H143 H 0.40866 0.35456 0.40731 0.0
H144 H 0.43129 0.38165 0.34056 0.0
H145 H 0.3044 0.28631 0.39636 0.0
H146 H 0.36613 0.3738 0.44964 0.0
H147 H 0.29697 0.30102 0.5253 0.0
H148 H 0.28571 0.37478 0.52926 0.0
H149 H 0.4034 0.34853 0.53484 0.0
H150 H 0.42016 0.38097 0.59584 0.0
H151 H 0.23589 0.27229 0.40631 0.0
H152 H 0.30322 0.23297 0.53137 0.0
H153 H 0.30253 0.40812 0.58933 0.0
H154 H 0.19054 0.22244 0.42174 0.0
H155 H 0.25833 0.1835 0.54665 0.0
Tb156 Tb 0.03375 0.95926 0.52174 0.0
C157 C 0.93972 0.10671 0.49605 0.0
N158 N 0.97688 0.09847 0.51112 0.0
C159 C 0.99446 0.15484 0.46709 0.0
C160 C 0.92854 0.13898 0.4647 0.0
C161 C 1.0042 0.12251 0.49814 0.0
C162 C 0.95649 0.16298 0.45003 0.0
C163 C 0.87411 0.08985 0.49648 0.0
C164 C 0.91293 0.08204 0.51142 0.0
C165 C 0.86285 0.12175 0.46487 0.0
C166 C 0.88999 0.14622 0.449 0.0
Tb167 Tb 0.98914 0.04539 0.56221 0.0
N168 N 0.9248 0.05112 0.54171 0.0
C169 C 0.84769 0.06585 0.51448 0.0
C170 C 0.89889 0.02987 0.56219 0.0
C171 C 0.86016 0.03614 0.54805 0.0
H172 H 0.03339 0.11692 0.51211 0.0
H173 H 0.83993 0.01858 0.56381 0.0
H174 H 0.98336 0.88631 0.55562 0.0
H175 H 0.18222 0.99096 0.56376 0.0
H176 H 0.90755 0.00876 0.59049 0.0
H177 H 0.81765 0.07087 0.5039 0.0
H178 H 0.11964 0.9991 0.51935 0.0
H179 H 0.01622 0.1736 0.45656 0.0
H180 H 0.83318 0.12798 0.45283 0.0
H181 H 0.88084 0.17078 0.42475 0.0
H182 H 0.99281 0.82834 0.61083 0.0
H183 H 0.94903 0.18805 0.42594 0.0
H184 H 0.19554 0.9374 0.62461 0.0
N185 N 0.03961 0.90457 0.57076 0.0
C186 C 0.07439 0.8967 0.59491 0.0
C187 C 0.01593 0.84741 0.6068 0.0
C188 C 0.08105 0.86408 0.62689 0.0
C189 C 0.01056 0.88035 0.5758 0.0
C190 C 0.05128 0.83929 0.63258 0.0
N191 N 0.0948 0.95431 0.55834 0.0
C192 C 0.12358 0.97738 0.54761 0.0
C193 C 0.13887 0.91591 0.61424 0.0
C194 C 0.1027 0.92267 0.58899 0.0
C195 C 0.16735 0.94158 0.606 0.0
C196 C 0.15984 0.97203 0.57195 0.0
H197 H 0.05526 0.81391 0.65683 0.0
H198 H 0.12247 0.83286 0.67754 0.0
H199 H 0.17321 0.87803 0.66619 0.0
O200 O 0.06428 0.95423 0.47201 0.0
O201 O 0.03082 0.95597 0.59024 0.0
O202 O 0.03966 0.01584 0.60105 0.0
O203 O 0.02419 0.91298 0.4914 0.0
O204 O 0.05445 0.01581 0.50014 0.0
O205 O 0.04881 0.04614 0.55587 0.0
O206 O 0.96945 0.05067 0.6204 0.0
O207 O 0.98365 0.04877 0.49176 0.0
O208 O 0.98509 0.98828 0.47924 0.0
O209 O 1.00359 0.09321 0.58775 0.0
O210 O 0.96639 0.989 0.57928 0.0
O211 O 0.97282 0.958 0.52365 0.0
C212 C 0.04303 0.97973 0.61502 0.0
C213 C 0.03128 0.92476 0.41803 0.0
C214 C 0.0419 0.91761 0.34639 0.0
C215 C 1.00341 0.92581 0.33054 0.0
C216 C 0.9929 0.9325 0.40166 0.0
C217 C 0.97918 0.93321 0.35805 0.0
C218 C 0.0556 0.91733 0.39034 0.0
C219 C 0.06271 0.04355 0.52095 0.0
C220 C 0.04655 0.92449 0.46373 0.0
C221 C 0.11683 0.85767 0.65263 0.0
C222 C 0.14566 0.88351 0.64631 0.0
C223 C 0.9781 0.02418 0.46622 0.0
C224 C 0.98441 0.10657 0.65238 0.0
C225 C 0.96039 0.12126 0.71452 0.0
C226 C 0.9802 0.15488 0.71003 0.0
C227 C 1.00424 0.14029 0.64879 0.0
C228 C 0.96281 0.09685 0.68587 0.0
C229 C 1.00219 0.16415 0.67753 0.0
C230 C 0.95583 0.96336 0.55575 0.0
C231 C 0.98536 0.08303 0.61977 0.0
H232 H 0.99186 0.92587 0.29703 0.0
H233 H 0.97363 0.93832 0.42243 0.0
H234 H 0.9496 0.93939 0.34556 0.0
H235 H 0.08528 0.91166 0.40304 0.0
H236 H 0.9788 0.1739 0.73192 0.0
H237 H 0.02113 0.14851 0.62345 0.0
H238 H 0.94722 0.07107 0.68899 0.0
H239 H 0.01746 0.19008 0.67438 0.0
Tb240 Tb 0.46535 0.47934 1.00004 0.0
C241 C 0.61894 0.54987 0.03961 0.0
N242 N 0.60457 0.51915 0.06258 0.0
C243 C 0.6627 0.48571 0.06747 0.0
C244 C 0.65509 0.54909 0.02786 0.0
C245 C 0.627 0.48814 0.07908 0.0
C246 C 0.6765 0.51605 0.04099 0.0
C247 C 0.61334 0.61622 0.0098 0.0
C248 C 0.59844 0.58302 0.0306 0.0
C249 C 0.64851 0.61519 0.99613 0.0
C250 C 0.66929 0.58165 1.00501 0.0
Tb251 Tb 0.54475 0.52677 0.07668 0.0
N252 N 0.56404 0.5828 0.04315 0.0
C253 C 0.59256 0.64945 1.00383 0.0
C254 C 0.54446 0.6153 0.03944 0.0
C255 C 0.55818 0.64904 0.01919 0.0
H256 H 0.61791 0.46523 0.10169 0.0
H257 H 0.54229 0.67468 0.01548 0.0
H258 H 0.38792 0.52026 0.01186 0.0
H259 H 0.50252 0.3328 0.02261 0.0
H260 H 0.51811 0.61506 0.05171 0.0
H261 H 0.60305 0.67558 0.98801 0.0
H262 H 0.50622 0.3995 0.99172 0.0
H263 H 0.67981 0.46064 0.07959 0.0
H264 H 0.66021 0.64028 0.97944 0.0
H265 H 0.69682 0.58147 0.99528 0.0
H266 H 0.33122 0.50282 0.04587 0.0
H267 H 0.70437 0.51424 0.03256 0.0
H268 H 0.45371 0.3105 0.06763 0.0
N269 N 0.41213 0.46572 0.03004 0.0
C270 C 0.40735 0.42948 0.04767 0.0
C271 C 0.35257 0.48197 0.04688 0.0
C272 C 0.37571 0.41819 0.06759 0.0
C273 C 0.38468 0.4918 0.02779 0.0
C274 C 0.34829 0.44508 0.06738 0.0
N275 N 0.46289 0.41594 0.02311 0.0
C276 C 0.48598 0.39065 0.01305 0.0
C277 C 0.43002 0.36567 0.06191 0.0
C278 C 0.43414 0.40379 0.0449 0.0
C279 C 0.45584 0.34006 0.05508 0.0
C280 C 0.48345 0.35255 0.02976 0.0
H281 H 0.32352 0.43756 0.08235 0.0
H282 H 0.34854 0.3713 0.10254 0.0
H283 H 0.39611 0.32518 0.09746 0.0
O284 O 0.44404 0.45286 0.94794 0.0
O285 O 0.45963 0.48244 0.06701 0.0
O286 O 0.51983 0.47457 0.10447 0.0
O287 O 0.43064 0.51012 0.946 0.0
O288 O 0.52409 0.45893 0.00834 0.0
O289 O 0.55208 0.46703 0.07668 0.0
O290 O 0.5291 0.54527 0.13018 0.0
O291 O 0.53052 0.55035 0.00685 0.0
O292 O 0.51702 0.49918 0.97586 0.0
O293 O 0.5873 0.53767 0.12584 0.0
O294 O 0.48722 0.54991 0.06631 0.0
O295 O 0.458 0.53895 0.99932 0.0
C296 C 0.48343 0.46861 0.10205 0.0
C297 C 0.43994 0.49382 0.88042 0.0
C298 C 0.43667 0.48243 0.80702 0.0
C299 C 0.4586 0.51418 0.79714 0.0
C300 C 0.46207 0.52535 0.86983 0.0
C301 C 0.47141 0.5353 0.8285 0.0
C302 C 0.42765 0.47218 0.84894 0.0
C303 C 0.54898 0.4495 0.0439 0.0
C304 C 0.42938 0.48359 0.92394 0.0
C305 C 0.37236 0.38053 0.08649 0.0
C306 C 0.39952 0.3543 0.08372 0.0
C307 C 0.53169 0.53238 0.97519 0.0
C308 C 0.57143 0.52487 0.19517 0.0
C309 C 0.58807 0.52756 0.27215 0.0
C310 C 0.59642 0.4889 0.28047 0.0
C311 C 0.57888 0.48642 0.20468 0.0
C312 C 0.57478 0.545 0.22883 0.0
C313 C 0.59108 0.46857 0.24719 0.0
C314 C 0.4612 0.55743 0.03139 0.0
C315 C 0.56375 0.54484 0.15006 0.0
H316 H 0.46614 0.52241 0.76521 0.0
H317 H 0.47202 0.54248 0.89339 0.0
H318 H 0.48853 0.55957 0.82071 0.0
H319 H 0.41055 0.44785 0.85679 0.0
H320 H 0.60804 0.47401 0.31238 0.0
H321 H 0.57638 0.47047 0.17908 0.0
H322 H 0.5675 0.57437 0.22053 0.0
H323 H 0.59756 0.43898 0.25426 0.0
H324 H 0.18118 0.1528 0.43693 0.0
H325 H 0.19351 0.18445 0.5618 0.0
H326 H 0.14658 0.13896 0.58363 0.0
H327 H 0.10221 0.09019 0.56785 0.0
H328 H 0.08847 0.05799 0.44327 0.0
H329 H 0.13569 0.10355 0.42083 0.0
C330 C 0.1734 0.14983 0.4688 0.0
C331 C 0.19116 0.17182 0.49779 0.0
C332 C 0.14621 0.12344 0.48129 0.0
C333 C 0.18087 0.16746 0.53909 0.0
C334 C 0.15385 0.14157 0.55157 0.0
C335 C 0.10945 0.09311 0.53573 0.0
C336 C 0.09176 0.07069 0.5073 0.0
C337 C 0.13646 0.11934 0.52305 0.0
C338 C 0.10174 0.07478 0.46589 0.0
C339 C 0.12866 0.10093 0.45298 0.0
H340 H 0.3429 0.69063 0.98499 0.0
H341 H 0.36908 0.68519 0.12287 0.0
H342 H 0.41439 0.63462 0.1291 0.0
H343 H 0.4457 0.59106 0.0957 0.0
H344 H 0.41677 0.59442 0.95843 0.0
H345 H 0.37278 0.64614 0.95196 0.0
C346 C 0.35806 0.67812 0.01656 0.0
C347 C 0.35241 0.69187 0.05338 0.0
C348 C 0.38353 0.64853 0.02009 0.0
C349 C 0.37313 0.67569 0.09382 0.0
C350 C 0.3989 0.64653 0.0975 0.0
C351 C 0.42989 0.60319 0.06432 0.0
C352 C 0.43465 0.58891 0.0276 0.0
C353 C 0.40428 0.63269 0.06086 0.0
C354 C 0.41362 0.60475 0.98727 0.0
C355 C 0.38848 0.6344 0.98351 0.0
H356 H 0.8377 0.85473 0.64035 0.0
H357 H 0.81945 0.82723 0.51316 0.0
H358 H 0.86654 0.87241 0.4908 0.0
H359 H 0.91309 0.9198 0.50706 0.0
H360 H 0.9331 0.94612 0.63474 0.0
H361 H 0.88539 0.90143 0.65708 0.0
C362 C 0.84424 0.8584 0.60786 0.0
C363 C 0.82472 0.83773 0.57845 0.0
C364 C 0.87164 0.88439 0.59516 0.0
C365 C 0.83342 0.84319 0.5363 0.0
C366 C 0.86056 0.8689 0.5235 0.0
C367 C 0.90701 0.91576 0.53978 0.0
C368 C 0.92639 0.93661 0.56898 0.0
C369 C 0.87977 0.88974 0.55258 0.0
C370 C 0.91821 0.93092 0.61132 0.0
C371 C 0.89105 0.90518 0.62424 0.0
H372 H 0.63798 0.29801 0.07602 0.0
H373 H 0.70281 0.36416 0.98658 0.0
H374 H 0.66039 0.41685 0.97896 0.0
H375 H 0.60531 0.44517 0.99865 0.0
H376 H 0.54847 0.38287 0.09766 0.0
H377 H 0.58824 0.32797 0.10174 0.0
C378 C 0.64381 0.32397 0.05556 0.0
C379 C 0.67387 0.32624 0.03166 0.0
C380 C 0.62068 0.35513 0.0532 0.0
C381 C 0.67949 0.36049 1.0045 0.0
C382 C 0.65545 0.39109 1.00045 0.0
C383 C 0.60191 0.41947 0.02111 0.0
C384 C 0.57402 0.41745 0.04746 0.0
C385 C 0.62597 0.38874 0.02463 0.0
C386 C 0.5699 0.38461 0.07707 0.0
C387 C 0.59252 0.35336 0.07929 0.0
H388 H 0.15745 0.85789 0.24433 0.0
H389 H 0.10334 0.94526 0.14306 0.0
H390 H 0.06461 0.96269 0.1923 0.0
H391 H 0.04466 0.95212 0.26346 0.0
H392 H 0.09673 0.86316 0.36399 0.0
H393 H 0.13763 0.84748 0.31576 0.0
C394 C 0.13706 0.88062 0.23296 0.0
C395 C 0.13345 0.90022 0.19 0.0
C396 C 0.11444 0.89025 0.26132 0.0
C397 C 0.10722 0.93 0.17608 0.0
C398 C 0.08479 0.93984 0.20414 0.0
C399 C 0.06478 0.92913 0.27475 0.0
C400 C 0.0675 0.90882 0.31728 0.0
C401 C 0.08795 0.91999 0.24671 0.0
C402 C 0.09427 0.87956 0.33159 0.0
C403 C 0.11754 0.8704 0.30393 0.0
H404 H 0.61033 0.57556 0.81022 0.0
H405 H 0.60754 0.68473 0.84283 0.0
H406 H 0.57535 0.65925 0.90353 0.0
H407 H 0.54732 0.60574 0.94709 0.0
H408 H 0.55643 0.49609 0.91802 0.0
H409 H 0.58644 0.5221 0.85603 0.0
C410 C 0.60345 0.59385 0.83094 0.0
C411 C 0.6116 0.63215 0.82162 0.0
C412 C 0.5858 0.5789 0.86645 0.0
C413 C 0.60127 0.65528 0.84853 0.0
C414 C 0.58303 0.64068 0.88354 0.0
C415 C 0.55682 0.58746 0.92792 0.0
C416 C 0.55029 0.54894 0.93789 0.0
C417 C 0.57515 0.6025 0.89283 0.0
C418 C 0.56121 0.52584 0.91137 0.0
C419 C 0.57851 0.54066 0.8759 0.0
H420 H 0.9324 0.06319 0.26352 0.0
H421 H 0.84461 0.12493 0.29884 0.0
H422 H 0.86982 0.10406 0.37499 0.0
H423 H 0.91605 0.06744 0.43169 0.0
H424 H 0.00661 0.00957 0.39768 0.0
H425 H 0.98097 0.0293 0.32078 0.0
C426 C 0.91904 0.07248 0.28781 0.0
C427 C 0.88635 0.09532 0.27523 0.0
C428 C 0.93411 0.06092 0.33177 0.0
C429 C 0.86924 0.10667 0.30739 0.0
C430 C 0.88383 0.09504 0.35106 0.0
C431 C 0.93068 0.06006 0.40751 0.0
C432 C 0.96314 0.03734 0.42015 0.0
C433 C 0.91617 0.07214 0.36361 0.0
C434 C 0.98111 0.02661 0.38846 0.0
C435 C 0.96665 0.03814 0.34459 0.0
H436 H 0.39969 0.37025 0.67819 0.0
H437 H 0.34767 0.46962 0.59576 0.0
H438 H 0.36561 0.5049 0.65364 0.0
H439 H 0.39733 0.50773 0.72722 0.0
H440 H 0.44634 0.40785 0.81141 0.0
H441 H 0.42812 0.37228 0.75369 0.0
C442 C 0.39236 0.39963 0.67312 0.0
C443 C 0.3727 0.41752 0.63287 0.0
C444 C 0.40212 0.41949 0.70685 0.0
C445 C 0.3628 0.45541 0.62658 0.0
C446 C 0.37309 0.47553 0.65959 0.0
C447 C 0.40387 0.47814 0.73284 0.0
C448 C 0.42332 0.46038 0.77324 0.0
C449 C 0.39291 0.45792 0.69976 0.0
C450 C 0.43127 0.42198 0.78052 0.0
C451 C 0.42102 0.40174 0.7475 0.0
H452 H 0.62045 0.64127 0.40024 0.0
H453 H 0.62886 0.53783 0.49424 0.0
H454 H 0.60933 0.50379 0.43688 0.0
H455 H 0.59194 0.50242 0.36035 0.0
H456 H 0.60033 0.60367 0.2664 0.0
H457 H 0.6111 0.63885 0.32377 0.0
C458 C 0.6192 0.61124 0.40889 0.0
C459 C 0.62622 0.59293 0.45269 0.0
C460 C 0.61062 0.59101 0.37538 0.0
C461 C 0.62269 0.55374 0.46169 0.0
C462 C 0.61195 0.5338 0.42857 0.0
C463 C 0.59702 0.53195 0.35174 0.0
C464 C 0.59477 0.54964 0.30794 0.0
C465 C 0.60621 0.5521 0.38526 0.0
C466 C 0.60034 0.58856 0.29894 0.0
C467 C 0.6072 0.60901 0.33207 0.0
H468 H 0.89529 0.08137 0.88863 0.0
H469 H 0.82653 0.17869 0.82757 0.0
H470 H 0.8531 0.18173 0.76143 0.0
H471 H 0.9006 0.16073 0.72363 0.0
H472 H 0.9692 0.06329 0.7833 0.0
H473 H 0.93787 0.05591 0.8472 0.0
C474 C 0.88591 0.10294 0.86062 0.0
C475 C 0.85919 0.12991 0.86305 0.0
C476 C 0.9014 0.10457 0.8226 0.0
C477 C 0.84687 0.15748 0.82642 0.0
C478 C 0.86223 0.15939 0.78867 0.0
C479 C 0.90809 0.13751 0.75039 0.0
C480 C 0.93713 0.11267 0.74919 0.0
C481 C 0.89012 0.13365 0.78678 0.0
C482 C 0.94672 0.08258 0.7837 0.0
C483 C 0.92903 0.07857 0.82025 0.0
H484 H 0.44802 0.36889 0.27531 0.0
H485 H 0.3394 0.42396 0.23027 0.0
H486 H 0.3619 0.45697 0.16545 0.0
H487 H 0.41342 0.47281 0.12328 0.0
H488 H 0.52197 0.41798 0.16803 0.0
H489 H 0.49901 0.38349 0.23203 0.0
C490 C 0.42928 0.38824 0.25147 0.0
C491 C 0.39201 0.39384 0.25793 0.0
C492 C 0.44255 0.4076 0.21442 0.0
C493 C 0.36802 0.4186 0.2261 0.0
C494 C 0.38097 0.4378 0.1891 0.0
C495 C 0.43178 0.45277 0.14659 0.0
C496 C 0.46915 0.44762 0.14055 0.0
C497 C 0.41826 0.43276 0.1831 0.0
C498 C 0.49305 0.42249 0.17187 0.0
C499 C 0.47989 0.40263 0.20841 0.0
H500 H 0.10478 0.88978 0.80097 0.0
H501 H 0.17575 0.98612 0.80369 0.0
H502 H 0.14403 0.01478 0.73142 0.0
H503 H 0.09699 0.0116 0.66642 0.0
H504 H 0.02795 0.91395 0.6641 0.0
H505 H 0.05866 0.88634 0.7368 0.0
C506 C 0.11373 0.91684 0.78562 0.0
C507 C 0.14276 0.93563 0.80774 0.0
C508 C 0.09577 0.93289 0.744 0.0
C509 C 0.15325 0.97113 0.78763 0.0
C510 C 0.13526 0.98748 0.74619 0.0
C511 C 0.08851 0.98447 0.68213 0.0
C512 C 0.06042 0.96475 0.65998 0.0
C513 C 0.1065 0.96858 0.72402 0.0
C514 C 0.04982 0.92948 0.6804 0.0
C515 C 0.06728 0.9137 0.722 0.0
loop_
_geom_bond_atom_site_label_1
_geom_bond_atom_site_label_2
_geom_bond_distance
_geom_bond_site_symmetry_2
_ccdc_geom_bond_type
C0 C1 1.386 . S
C0 C2 1.397 . S
C0 H24 0.931 . S
C1 C0 1.386 . S
C1 C5 1.397 . S
C2 C0 1.397 . S
C2 C3 1.384 . S
C2 H25 0.930 . S
C3 C2 1.384 . S
C3 C4 1.377 . S
C3 C6 1.481 . S
C4 C3 1.377 . S
C4 C5 1.389 . S
C4 H26 0.929 . S
C5 C1 1.397 . S
C5 C4 1.389 . S
C5 H27 0.931 . S
C6 C3 1.481 . S
C6 C7 1.387 . S
C6 C11 1.390 1_556 S
C7 C6 1.387 . S
C7 C8 1.401 1_556 S
C7 H28 0.930 . S
C8 C7 1.401 1_554 S
C8 C9 1.376 . S
C8 C17 1.511 . S
C9 C8 1.376 . S
C9 C10 1.392 . S
C9 H30 0.931 . S
C10 C9 1.392 . S
C10 C11 1.361 . S
C10 C12 1.500 . S
C11 C6 1.390 1_554 S
C11 C10 1.361 . S
C11 H29 0.931 . S
C12 C10 1.500 . S
C12 C13 1.371 . S
C12 C14 1.365 . S
C13 C12 1.371 . S
C13 C23 1.386 . S
C13 H31 0.931 . S
C14 C12 1.365 . S
C14 C15 1.409 . S
C14 H32 0.929 . S
C15 C14 1.409 . S
C15 C16 1.380 . S
C15 H33 0.930 . S
C16 C15 1.380 . S
C16 C23 1.357 . S
C17 C8 1.511 . S
C17 C18 1.341 1_554 S
C17 C19 1.371 . S
C18 C17 1.341 1_556 S
C18 C22 1.394 1_556 S
C18 H34 0.930 . S
C19 C17 1.371 . S
C19 C20 1.392 . S
C19 H35 0.931 . S
C20 C19 1.392 . S
C20 C21 1.331 . S
C20 H38 0.932 . S
C21 C20 1.331 . S
C21 C22 1.336 . S
C22 C18 1.394 1_554 S
C22 C21 1.336 . S
C22 H37 0.929 1_554 S
C23 C13 1.386 . S
C23 C16 1.357 . S
C23 H36 0.928 . S
H24 C0 0.931 . S
H25 C2 0.930 . S
H26 C4 0.929 . S
H27 C5 0.931 . S
H28 C7 0.930 . S
H29 C11 0.931 . S
H30 C9 0.931 . S
H31 C13 0.931 . S
H32 C14 0.929 . S
H33 C15 0.930 . S
H34 C18 0.930 . S
H35 C19 0.931 . S
H36 C23 0.928 . S
H37 C22 0.929 1_556 S
H38 C20 0.932 . S
C39 C40 1.386 . S
C39 C41 1.397 . S
C39 H63 0.931 . S
C40 C39 1.386 . S
C40 C44 1.397 . S
C41 C39 1.397 . S
C41 C42 1.384 . S
C41 H64 0.930 . S
C42 C41 1.384 . S
C42 C43 1.377 . S
C42 C45 1.481 . S
C43 C42 1.377 . S
C43 C44 1.389 . S
C43 H65 0.929 . S
C44 C40 1.397 . S
C44 C43 1.389 . S
C44 H66 0.931 . S
C45 C42 1.481 . S
C45 C46 1.387 . S
C45 C50 1.390 . S
C46 C45 1.387 . S
C46 C47 1.401 . S
C46 H67 0.930 . S
C47 C46 1.401 . S
C47 C48 1.376 . S
C47 C56 1.511 . S
C48 C47 1.376 . S
C48 C49 1.392 . S
C48 H69 0.931 . S
C49 C48 1.392 . S
C49 C50 1.361 . S
C49 C51 1.500 . S
C50 C45 1.390 . S
C50 C49 1.361 . S
C50 H68 0.931 . S
C51 C49 1.500 . S
C51 C52 1.371 . S
C51 C53 1.365 . S
C52 C51 1.371 . S
C52 C62 1.386 . S
C52 H70 0.931 . S
C53 C51 1.365 . S
C53 C54 1.409 . S
C53 H71 0.929 . S
C54 C53 1.409 . S
C54 C55 1.380 . S
C54 H72 0.930 . S
C55 C54 1.380 . S
C55 C62 1.357 . S
C56 C47 1.511 . S
C56 C57 1.341 . S
C56 C58 1.371 . S
C57 C56 1.341 . S
C57 C61 1.394 . S
C57 H73 0.930 . S
C58 C56 1.371 . S
C58 C59 1.392 . S
C58 H74 0.931 . S
C59 C58 1.392 . S
C59 C60 1.331 . S
C59 H77 0.932 . S
C60 C59 1.331 . S
C60 C61 1.336 . S
C61 C57 1.394 . S
C61 C60 1.336 . S
C61 H76 0.929 . S
C62 C52 1.386 . S
C62 C55 1.357 . S
C62 H75 0.928 . S
H63 C39 0.931 . S
H64 C41 0.930 . S
H65 C43 0.929 . S
H66 C44 0.931 . S
H67 C46 0.930 . S
H68 C50 0.931 . S
H69 C48 0.931 . S
H70 C52 0.931 . S
H71 C53 0.929 . S
H72 C54 0.930 . S
H73 C57 0.930 . S
H74 C58 0.931 . S
H75 C62 0.928 . S
H76 C61 0.929 . S
H77 C59 0.932 . S
C78 C79 1.386 . S
C78 C80 1.397 . S
C78 H102 0.931 . S
C79 C78 1.386 . S
C79 C83 1.397 . S
C80 C78 1.397 . S
C80 C81 1.384 . S
C80 H103 0.930 . S
C81 C80 1.384 . S
C81 C82 1.377 . S
C81 C84 1.481 . S
C82 C81 1.377 . S
C82 C83 1.389 . S
C82 H104 0.929 . S
C83 C79 1.397 . S
C83 C82 1.389 . S
C83 H105 0.931 . S
C84 C81 1.481 . S
C84 C85 1.387 . S
C84 C89 1.390 . S
C85 C84 1.387 . S
C85 C86 1.401 . S
C85 H106 0.930 . S
C86 C85 1.401 . S
C86 C87 1.376 . S
C86 C95 1.511 . S
C87 C86 1.376 . S
C87 C88 1.392 . S
C87 H108 0.931 1_554 S
C88 C87 1.392 . S
C88 C89 1.361 . S
C88 C90 1.500 1_554 S
C89 C84 1.390 . S
C89 C88 1.361 . S
C89 H107 0.931 . S
C90 C88 1.500 1_556 S
C90 C91 1.371 . S
C90 C92 1.365 . S
C91 C90 1.371 . S
C91 C101 1.386 . S
C91 H109 0.931 . S
C92 C90 1.365 . S
C92 C93 1.409 . S
C92 H110 0.929 1_556 S
C93 C92 1.409 . S
C93 C94 1.380 . S
C93 H111 0.930 . S
C94 C93 1.380 . S
C94 C101 1.357 . S
C95 C86 1.511 . S
C95 C96 1.341 . S
C95 C97 1.385 . S
C96 C95 1.341 . S
C96 C100 1.394 . S
C96 H112 0.930 . S
C97 C95 1.385 . S
C97 C98 1.395 1_554 S
C97 H113 0.915 1_554 S
C98 C97 1.395 1_556 S
C98 C99 1.331 1_556 S
C98 H116 0.932 . S
C99 C98 1.331 1_554 S
C99 C100 1.336 . S
C100 C96 1.394 . S
C100 C99 1.336 . S
C100 H115 0.929 . S
C101 C91 1.386 . S
C101 C94 1.357 . S
C101 H114 0.928 . S
H102 C78 0.931 . S
H103 C80 0.930 . S
H104 C82 0.929 . S
H105 C83 0.931 . S
H106 C85 0.930 . S
H107 C89 0.931 . S
H108 C87 0.931 1_556 S
H109 C91 0.931 . S
H110 C92 0.929 1_554 S
H111 C93 0.930 . S
H112 C96 0.930 . S
H113 C97 0.915 1_556 S
H114 C101 0.928 . S
H115 C100 0.929 . S
H116 C98 0.932 . S
C117 C118 1.386 . S
C117 C119 1.397 . S
C117 H141 0.931 . S
C118 C117 1.386 . S
C118 C122 1.397 . S
C119 C117 1.397 . S
C119 C120 1.384 . S
C119 H142 0.930 . S
C120 C119 1.384 . S
C120 C121 1.377 . S
C120 C123 1.481 . S
C121 C120 1.377 . S
C121 C122 1.389 . S
C121 H143 0.929 . S
C122 C118 1.397 . S
C122 C121 1.389 . S
C122 H144 0.931 . S
C123 C120 1.481 . S
C123 C124 1.387 . S
C123 C128 1.390 . S
C124 C123 1.387 . S
C124 C125 1.401 . S
C124 H145 0.930 . S
C125 C124 1.401 . S
C125 C126 1.376 . S
C125 C134 1.511 . S
C126 C125 1.376 . S
C126 C127 1.392 . S
C126 H147 0.931 . S
C127 C126 1.392 . S
C127 C128 1.361 . S
C127 C129 1.500 . S
C128 C123 1.390 . S
C128 C127 1.361 . S
C128 H146 0.931 . S
C129 C127 1.500 . S
C129 C130 1.371 . S
C129 C131 1.365 . S
C130 C129 1.371 . S
C130 C140 1.386 . S
C130 H148 0.931 . S
C131 C129 1.365 . S
C131 C132 1.409 . S
C131 H149 0.929 . S
C132 C131 1.409 . S
C132 C133 1.380 . S
C132 H150 0.930 . S
C133 C132 1.380 . S
C133 C140 1.357 . S
C134 C125 1.511 . S
C134 C135 1.341 . S
C134 C136 1.371 . S
C135 C134 1.341 . S
C135 C139 1.394 . S
C135 H151 0.930 . S
C136 C134 1.371 . S
C136 C137 1.392 . S
C136 H152 0.931 . S
C137 C136 1.392 . S
C137 C138 1.331 . S
C137 H155 0.932 . S
C138 C137 1.331 . S
C138 C139 1.336 . S
C139 C135 1.394 . S
C139 C138 1.336 . S
C139 H154 0.929 . S
C140 C130 1.386 . S
C140 C133 1.357 . S
C140 H153 0.928 . S
H141 C117 0.931 . S
H142 C119 0.930 . S
H143 C121 0.929 . S
H144 C122 0.931 . S
H145 C124 0.930 . S
H146 C128 0.931 . S
H147 C126 0.931 . S
H148 C130 0.931 . S
H149 C131 0.929 . S
H150 C132 0.930 . S
H151 C135 0.930 . S
H152 C136 0.931 . S
H153 C140 0.928 . S
H154 C139 0.929 . S
H155 C137 0.932 . S
Tb156 N185 2.617 . S
Tb156 N191 2.572 . S
Tb156 O200 2.465 . S
Tb156 O201 2.387 . S
Tb156 O203 2.428 . S
Tb156 O204 2.308 1_565 S
Tb156 O208 2.352 1_455 S
Tb156 O211 2.393 1_455 S
Tb156 C220 2.802 . S
C157 N158 1.379 . S
C157 C160 1.416 . S
C157 C164 1.424 . S
N158 C157 1.379 . S
N158 C161 1.323 1_655 S
N158 Tb167 2.617 . S
C159 C161 1.390 1_655 S
C159 C162 1.339 . S
C159 H179 0.930 1_655 S
C160 C157 1.416 . S
C160 C162 1.416 . S
C160 C166 1.448 . S
C161 N158 1.323 1_455 S
C161 C159 1.390 1_455 S
C161 H172 0.943 . S
C162 C159 1.339 . S
C162 C160 1.416 . S
C162 H183 0.930 . S
C163 C164 1.413 . S
C163 C165 1.427 . S
C163 C169 1.416 . S
C164 C157 1.424 . S
C164 C163 1.413 . S
C164 N168 1.361 . S
C165 C163 1.427 . S
C165 C166 1.328 . S
C165 H180 0.929 . S
C166 C160 1.448 . S
C166 C165 1.328 . S
C166 H181 0.930 . S
Tb167 N158 2.617 . S
Tb167 N168 2.572 . S
Tb167 O202 2.349 1_655 S
Tb167 O205 2.393 1_655 S
Tb167 O206 2.465 . S
Tb167 O207 2.387 . S
Tb167 O209 2.428 . S
Tb167 O210 2.308 1_545 S
Tb167 C231 2.802 . S
N168 C164 1.361 . S
N168 Tb167 2.572 . S
N168 C170 1.340 . S
C169 C163 1.416 . S
C169 C171 1.332 . S
C169 H177 0.931 . S
C170 N168 1.340 . S
C170 C171 1.407 . S
C170 H176 0.930 . S
C171 C169 1.332 . S
C171 C170 1.407 . S
C171 H173 0.929 . S
H172 C161 0.943 . S
H173 C171 0.929 . S
H174 C189 0.930 1_655 S
H175 C196 0.929 . S
H176 C170 0.930 . S
H177 C169 0.931 . S
H178 C192 0.930 . S
H179 C159 0.930 1_455 S
H180 C165 0.929 . S
H181 C166 0.930 . S
H182 C187 0.930 1_655 S
H183 C162 0.930 . S
H184 C195 0.931 . S
N185 Tb156 2.617 . S
N185 C186 1.379 . S
N185 C189 1.334 . S
C186 N185 1.379 . S
C186 C188 1.416 . S
C186 C194 1.424 . S
C187 H182 0.930 1_455 S
C187 C189 1.390 . S
C187 C190 1.339 . S
C188 C186 1.416 . S
C188 C190 1.416 . S
C188 C221 1.448 . S
C189 H174 0.930 1_455 S
C189 N185 1.334 . S
C189 C187 1.390 . S
C190 C187 1.339 . S
C190 C188 1.416 . S
C190 H197 0.930 . S
N191 Tb156 2.572 . S
N191 C192 1.340 . S
N191 C194 1.361 . S
C192 H178 0.930 . S
C192 N191 1.340 . S
C192 C196 1.407 . S
C193 C194 1.413 . S
C193 C195 1.416 . S
C193 C222 1.427 . S
C194 C186 1.424 . S
C194 N191 1.361 . S
C194 C193 1.413 . S
C195 H184 0.931 . S
C195 C193 1.416 . S
C195 C196 1.332 . S
C196 H175 0.929 . S
C196 C192 1.407 . S
C196 C195 1.332 . S
H197 C190 0.930 . S
H198 C221 0.930 . S
H199 C222 0.929 . S
O200 Tb156 2.465 . S
O200 C220 1.264 . S
O201 Tb156 2.387 . S
O201 C212 1.264 . S
O202 Tb167 2.349 1_455 S
O202 C212 1.243 1_545 S
O203 Tb156 2.428 . S
O203 C220 1.256 . S
O204 Tb156 2.308 1_545 S
O204 C219 1.266 . S
O205 Tb167 2.393 1_455 S
O205 C219 1.248 . S
O206 Tb167 2.465 . S
O206 C231 1.264 . S
O207 Tb167 2.387 . S
O207 C223 1.264 . S
O208 Tb156 2.352 1_655 S
O208 C223 1.238 1_565 S
O209 Tb167 2.428 . S
O209 C231 1.256 . S
O210 Tb167 2.308 1_565 S
O210 C230 1.266 . S
O211 Tb156 2.393 1_655 S
O211 C230 1.248 . S
C212 O201 1.264 . S
C212 O202 1.243 1_565 S
C213 C216 1.399 . S
C213 C218 1.383 . S
C213 C220 1.496 . S
C214 C215 1.399 . S
C214 C218 1.389 . S
C215 C214 1.399 . S
C215 C217 1.380 . S
C215 H232 0.929 . S
C216 C213 1.399 . S
C216 C217 1.392 . S
C216 H233 0.929 . S
C217 C215 1.380 . S
C217 C216 1.392 . S
C217 H234 0.929 . S
C218 C213 1.383 . S
C218 C214 1.389 . S
C218 H235 0.931 . S
C219 O204 1.266 . S
C219 O205 1.248 . S
C220 Tb156 2.802 . S
C220 O200 1.264 . S
C220 O203 1.256 . S
C220 C213 1.496 . S
C221 C188 1.448 . S
C221 H198 0.930 . S
C221 C222 1.328 . S
C222 C193 1.427 . S
C222 H199 0.929 . S
C222 C221 1.328 . S
C223 O207 1.264 . S
C223 O208 1.238 1_545 S
C224 C227 1.399 . S
C224 C228 1.383 . S
C224 C231 1.496 . S
C225 C226 1.399 . S
C225 C228 1.389 . S
C226 C225 1.399 . S
C226 C229 1.380 . S
C226 H236 0.929 . S
C227 C224 1.399 . S
C227 C229 1.392 . S
C227 H237 0.929 . S
C228 C224 1.383 . S
C228 C225 1.389 . S
C228 H238 0.931 . S
C229 C226 1.380 . S
C229 C227 1.392 . S
C229 H239 0.929 . S
C230 O210 1.266 . S
C230 O211 1.248 . S
C231 Tb167 2.802 . S
C231 O206 1.264 . S
C231 O209 1.256 . S
C231 C224 1.496 . S
H232 C215 0.929 . S
H233 C216 0.929 . S
H234 C217 0.929 . S
H235 C218 0.931 . S
H236 C226 0.929 . S
H237 C227 0.929 . S
H238 C228 0.931 . S
H239 C229 0.929 . S
Tb240 N269 2.617 . S
Tb240 N275 2.572 1_556 S
Tb240 O284 2.465 . S
Tb240 O285 2.387 1_556 S
Tb240 O287 2.428 . S
Tb240 O288 2.308 1_556 S
Tb240 O292 2.349 . S
Tb240 O295 2.392 1_556 S
Tb240 C304 2.802 . S
C241 N242 1.379 . S
C241 C244 1.416 . S
C241 C248 1.424 . S
N242 C241 1.379 . S
N242 C245 1.334 . S
N242 Tb251 2.617 . S
C243 C245 1.390 . S
C243 C246 1.339 . S
C243 H263 0.930 . S
C244 C241 1.416 . S
C244 C246 1.416 . S
C244 C250 1.448 . S
C245 N242 1.334 . S
C245 C243 1.390 . S
C245 H256 0.930 . S
C246 C243 1.339 . S
C246 C244 1.416 . S
C246 H267 0.930 . S
C247 C248 1.413 . S
C247 C249 1.427 . S
C247 C253 1.416 . S
C248 C241 1.424 . S
C248 C247 1.413 . S
C248 N252 1.361 . S
C249 C247 1.427 . S
C249 C250 1.328 . S
C249 H264 0.929 . S
C250 C244 1.448 . S
C250 C249 1.328 . S
C250 H265 0.930 . S
Tb251 N242 2.617 . S
Tb251 N252 2.572 . S
Tb251 O286 2.349 . S
Tb251 O289 2.393 . S
Tb251 O290 2.465 . S
Tb251 O291 2.377 1_554 S
Tb251 O293 2.428 . S
Tb251 O294 2.308 . S
Tb251 C315 2.802 . S
N252 C248 1.361 . S
N252 Tb251 2.572 . S
N252 C254 1.340 . S
C253 C247 1.416 . S
C253 C255 1.332 . S
C253 H261 0.931 . S
C254 N252 1.340 . S
C254 C255 1.407 . S
C254 H260 0.930 . S
C255 C253 1.332 . S
C255 C254 1.407 . S
C255 H257 0.929 . S
H256 C245 0.930 . S
H257 C255 0.929 . S
H258 C273 0.930 . S
H259 C280 0.929 . S
H260 C254 0.930 . S
H261 C253 0.931 . S
H262 C276 0.930 . S
H263 C243 0.930 . S
H264 C249 0.929 . S
H265 C250 0.930 . S
H266 C271 0.930 . S
H267 C246 0.930 . S
H268 C279 0.931 . S
N269 Tb240 2.617 . S
N269 C270 1.379 1_556 S
N269 C273 1.334 . S
C270 N269 1.379 1_554 S
C270 C272 1.416 . S
C270 C278 1.424 . S
C271 H266 0.930 . S
C271 C273 1.390 . S
C271 C274 1.339 1_556 S
C272 C270 1.416 . S
C272 C274 1.416 . S
C272 C305 1.448 . S
C273 H258 0.930 . S
C273 N269 1.334 . S
C273 C271 1.390 . S
C274 C271 1.339 1_554 S
C274 C272 1.416 . S
C274 H281 0.930 . S
N275 Tb240 2.572 1_554 S
N275 C276 1.340 . S
N275 C278 1.361 . S
C276 H262 0.930 . S
C276 N275 1.340 . S
C276 C280 1.407 . S
C277 C278 1.413 . S
C277 C279 1.416 . S
C277 C306 1.427 . S
C278 C270 1.424 . S
C278 N275 1.361 . S
C278 C277 1.413 . S
C279 H268 0.931 . S
C279 C277 1.416 . S
C279 C280 1.332 . S
C280 H259 0.929 . S
C280 C276 1.407 . S
C280 C279 1.332 . S
H281 C274 0.930 . S
H282 C305 0.930 . S
H283 C306 0.929 . S
O284 Tb240 2.465 . S
O284 C304 1.264 . S
O285 Tb240 2.387 1_554 S
O285 C296 1.264 . S
O286 Tb251 2.349 . S
O286 C296 1.243 . S
O287 Tb240 2.428 . S
O287 C304 1.256 . S
O288 Tb240 2.308 1_554 S
O288 C303 1.266 . S
O289 Tb251 2.393 . S
O289 C303 1.248 . S
O290 Tb251 2.465 . S
O290 C315 1.264 . S
O291 Tb251 2.377 1_556 S
O291 C307 1.271 . S
O292 Tb240 2.349 . S
O292 C307 1.243 . S
O293 Tb251 2.428 . S
O293 C315 1.256 . S
O294 Tb251 2.308 . S
O294 C314 1.266 . S
O295 Tb240 2.392 1_554 S
O295 C314 1.250 . S
C296 O285 1.264 . S
C296 O286 1.243 . S
C297 C300 1.399 . S
C297 C302 1.383 . S
C297 C304 1.496 . S
C298 C299 1.399 . S
C298 C302 1.389 . S
C299 C298 1.399 . S
C299 C301 1.380 . S
C299 H316 0.929 . S
C300 C297 1.399 . S
C300 C301 1.392 . S
C300 H317 0.929 . S
C301 C299 1.380 . S
C301 C300 1.392 . S
C301 H318 0.929 . S
C302 C297 1.383 . S
C302 C298 1.389 . S
C302 H319 0.931 . S
C303 O288 1.266 . S
C303 O289 1.248 . S
C304 Tb240 2.802 . S
C304 O284 1.264 . S
C304 O287 1.256 . S
C304 C297 1.496 . S
C305 C272 1.448 . S
C305 H282 0.930 . S
C305 C306 1.328 . S
C306 C277 1.427 . S
C306 H283 0.929 . S
C306 C305 1.328 . S
C307 O291 1.271 . S
C307 O292 1.243 . S
C308 C311 1.399 . S
C308 C312 1.383 . S
C308 C315 1.496 . S
C309 C310 1.399 . S
C309 C312 1.389 . S
C310 C309 1.399 . S
C310 C313 1.380 . S
C310 H320 0.929 . S
C311 C308 1.399 . S
C311 C313 1.392 . S
C311 H321 0.929 . S
C312 C308 1.383 . S
C312 C309 1.389 . S
C312 H322 0.931 . S
C313 C310 1.380 . S
C313 C311 1.392 . S
C313 H323 0.929 . S
C314 O294 1.266 . S
C314 O295 1.250 . S
C315 Tb251 2.802 . S
C315 O290 1.264 . S
C315 O293 1.256 . S
C315 C308 1.496 . S
H316 C299 0.929 . S
H317 C300 0.929 . S
H318 C301 0.929 . S
H319 C302 0.931 . S
H320 C310 0.929 . S
H321 C311 0.929 . S
H322 C312 0.931 . S
H323 C313 0.929 . S
H324 C330 0.930 . S
H325 C333 0.930 . S
H326 C334 0.930 . S
H327 C335 0.930 . S
H328 C338 0.930 . S
H329 C339 0.930 . S
C330 H324 0.930 . S
C330 C331 1.355 . S
C330 C332 1.415 . S
C331 C330 1.355 . S
C331 C333 1.419 . S
C332 C330 1.415 . S
C332 C337 1.425 . S
C332 C339 1.409 . S
C333 H325 0.930 . S
C333 C331 1.419 . S
C333 C334 1.362 . S
C334 H326 0.930 . S
C334 C333 1.362 . S
C334 C337 1.409 . S
C335 H327 0.930 . S
C335 C336 1.355 . S
C335 C337 1.415 . S
C336 C335 1.355 . S
C336 C338 1.419 . S
C337 C332 1.425 . S
C337 C334 1.409 . S
C337 C335 1.415 . S
C338 H328 0.930 . S
C338 C336 1.419 . S
C338 C339 1.362 . S
C339 H329 0.930 . S
C339 C332 1.409 . S
C339 C338 1.362 . S
H340 C346 0.930 . S
H341 C349 0.930 . S
H342 C350 0.930 . S
H343 C351 0.930 . S
H344 C354 0.930 . S
H345 C355 0.930 . S
C346 H340 0.930 . S
C346 C347 1.355 . S
C346 C348 1.415 . S
C347 C346 1.355 . S
C347 C349 1.419 . S
C348 C346 1.415 . S
C348 C353 1.425 . S
C348 C355 1.409 . S
C349 H341 0.930 . S
C349 C347 1.419 . S
C349 C350 1.362 . S
C350 H342 0.930 . S
C350 C349 1.362 . S
C350 C353 1.409 . S
C351 H343 0.930 . S
C351 C352 1.355 . S
C351 C353 1.415 . S
C352 C351 1.355 . S
C352 C354 1.419 . S
C353 C348 1.425 . S
C353 C350 1.409 . S
C353 C351 1.415 . S
C354 H344 0.930 . S
C354 C352 1.419 . S
C354 C355 1.362 . S
C355 H345 0.930 . S
C355 C348 1.409 . S
C355 C354 1.362 . S
H356 C362 0.930 . S
H357 C365 0.930 . S
H358 C366 0.930 . S
H359 C367 0.930 . S
H360 C370 0.930 . S
H361 C371 0.930 . S
C362 H356 0.930 . S
C362 C363 1.355 . S
C362 C364 1.415 . S
C363 C362 1.355 . S
C363 C365 1.419 . S
C364 C362 1.415 . S
C364 C369 1.425 . S
C364 C371 1.409 . S
C365 H357 0.930 . S
C365 C363 1.419 . S
C365 C366 1.362 . S
C366 H358 0.930 . S
C366 C365 1.362 . S
C366 C369 1.409 . S
C367 H359 0.930 . S
C367 C368 1.355 . S
C367 C369 1.415 . S
C368 C367 1.355 . S
C368 C370 1.419 . S
C369 C364 1.425 . S
C369 C366 1.409 . S
C369 C367 1.415 . S
C370 H360 0.930 . S
C370 C368 1.419 . S
C370 C371 1.362 . S
C371 H361 0.930 . S
C371 C364 1.409 . S
C371 C370 1.362 . S
H372 C378 0.930 . S
H373 C381 0.924 1_556 S
H374 C382 0.930 1_556 S
H375 C383 0.930 . S
H376 C386 0.930 . S
H377 C387 0.930 . S
C378 H372 0.930 . S
C378 C379 1.355 . S
C378 C380 1.415 . S
C379 C378 1.355 . S
C379 C381 1.419 . S
C380 C378 1.415 . S
C380 C385 1.425 . S
C380 C387 1.409 . S
C381 H373 0.924 1_554 S
C381 C379 1.419 . S
C381 C382 1.362 . S
C382 H374 0.930 1_554 S
C382 C381 1.362 . S
C382 C385 1.409 . S
C383 H375 0.930 . S
C383 C384 1.355 . S
C383 C385 1.415 . S
C384 C383 1.355 . S
C384 C386 1.419 . S
C385 C380 1.425 . S
C385 C382 1.409 . S
C385 C383 1.415 . S
C386 H376 0.930 . S
C386 C384 1.419 . S
C386 C387 1.362 . S
C387 H377 0.930 . S
C387 C380 1.409 . S
C387 C386 1.362 . S
H388 C394 0.930 . S
H389 C397 0.930 . S
H390 C398 0.930 . S
H391 C399 0.930 . S
H392 C402 0.930 . S
H393 C403 0.930 . S
C394 H388 0.930 . S
C394 C395 1.355 . S
C394 C396 1.415 . S
C395 C394 1.355 . S
C395 C397 1.419 . S
C396 C394 1.415 . S
C396 C401 1.425 . S
C396 C403 1.409 . S
C397 H389 0.930 . S
C397 C395 1.419 . S
C397 C398 1.362 . S
C398 H390 0.930 . S
C398 C397 1.362 . S
C398 C401 1.409 . S
C399 H391 0.930 . S
C399 C400 1.355 . S
C399 C401 1.415 . S
C400 C399 1.355 . S
C400 C402 1.419 . S
C401 C396 1.425 . S
C401 C398 1.409 . S
C401 C399 1.415 . S
C402 H392 0.930 . S
C402 C400 1.419 . S
C402 C403 1.362 . S
C403 H393 0.930 . S
C403 C396 1.409 . S
C403 C402 1.362 . S
H404 C410 0.930 . S
H405 C413 0.930 . S
H406 C414 0.930 . S
H407 C415 0.930 . S
H408 C418 0.930 . S
H409 C419 0.930 . S
C410 H404 0.930 . S
C410 C411 1.355 . S
C410 C412 1.415 . S
C411 C410 1.355 . S
C411 C413 1.419 . S
C412 C410 1.415 . S
C412 C417 1.425 . S
C412 C419 1.409 . S
C413 H405 0.930 . S
C413 C411 1.419 . S
C413 C414 1.362 . S
C414 H406 0.930 . S
C414 C413 1.362 . S
C414 C417 1.409 . S
C415 H407 0.930 . S
C415 C416 1.355 . S
C415 C417 1.415 . S
C416 C415 1.355 . S
C416 C418 1.419 . S
C417 C412 1.425 . S
C417 C414 1.409 . S
C417 C415 1.415 . S
C418 H408 0.930 . S
C418 C416 1.419 . S
C418 C419 1.362 . S
C419 H409 0.930 . S
C419 C412 1.409 . S
C419 C418 1.362 . S
H420 C426 0.930 . S
H421 C429 0.930 . S
H422 C430 0.930 . S
H423 C431 0.930 . S
H424 C434 0.930 . S
H425 C435 0.930 . S
C426 H420 0.930 . S
C426 C427 1.355 . S
C426 C428 1.415 . S
C427 C426 1.355 . S
C427 C429 1.419 . S
C428 C426 1.415 . S
C428 C433 1.425 . S
C428 C435 1.409 . S
C429 H421 0.930 . S
C429 C427 1.419 . S
C429 C430 1.362 . S
C430 H422 0.930 . S
C430 C429 1.362 . S
C430 C433 1.409 . S
C431 H423 0.930 . S
C431 C432 1.355 . S
C431 C433 1.415 . S
C432 C431 1.355 . S
C432 C434 1.419 . S
C433 C428 1.425 . S
C433 C430 1.409 . S
C433 C431 1.415 . S
C434 H424 0.930 . S
C434 C432 1.419 . S
C434 C435 1.362 . S
C435 H425 0.930 . S
C435 C428 1.409 . S
C435 C434 1.362 . S
H436 C442 0.930 . S
H437 C445 0.930 . S
H438 C446 0.930 . S
H439 C447 0.930 . S
H440 C450 0.930 . S
H441 C451 0.930 . S
C442 H436 0.930 . S
C442 C443 1.355 . S
C442 C444 1.415 . S
C443 C442 1.355 . S
C443 C445 1.419 . S
C444 C442 1.415 . S
C444 C449 1.425 . S
C444 C451 1.409 . S
C445 H437 0.930 . S
C445 C443 1.419 . S
C445 C446 1.362 . S
C446 H438 0.930 . S
C446 C445 1.362 . S
C446 C449 1.409 . S
C447 H439 0.930 . S
C447 C448 1.355 . S
C447 C449 1.415 . S
C448 C447 1.355 . S
C448 C450 1.419 . S
C449 C444 1.425 . S
C449 C446 1.409 . S
C449 C447 1.415 . S
C450 H440 0.930 . S
C450 C448 1.419 . S
C450 C451 1.362 . S
C451 H441 0.930 . S
C451 C444 1.409 . S
C451 C450 1.362 . S
H452 C458 0.930 . S
H453 C461 0.930 . S
H454 C462 0.930 . S
H455 C463 0.930 . S
H456 C466 0.930 . S
H457 C467 0.930 . S
C458 H452 0.930 . S
C458 C459 1.355 . S
C458 C460 1.415 . S
C459 C458 1.355 . S
C459 C461 1.419 . S
C460 C458 1.415 . S
C460 C465 1.425 . S
C460 C467 1.409 . S
C461 H453 0.930 . S
C461 C459 1.419 . S
C461 C462 1.362 . S
C462 H454 0.930 . S
C462 C461 1.362 . S
C462 C465 1.409 . S
C463 H455 0.930 . S
C463 C464 1.355 . S
C463 C465 1.415 . S
C464 C463 1.355 . S
C464 C466 1.419 . S
C465 C460 1.425 . S
C465 C462 1.409 . S
C465 C463 1.415 . S
C466 H456 0.930 . S
C466 C464 1.419 . S
C466 C467 1.362 . S
C467 H457 0.930 . S
C467 C460 1.409 . S
C467 C466 1.362 . S
H468 C474 0.930 . S
H469 C477 0.930 . S
H470 C478 0.930 . S
H471 C479 0.930 . S
H472 C482 0.930 . S
H473 C483 0.930 . S
C474 H468 0.930 . S
C474 C475 1.355 . S
C474 C476 1.415 . S
C475 C474 1.355 . S
C475 C477 1.419 . S
C476 C474 1.415 . S
C476 C481 1.425 . S
C476 C483 1.409 . S
C477 H469 0.930 . S
C477 C475 1.419 . S
C477 C478 1.362 . S
C478 H470 0.930 . S
C478 C477 1.362 . S
C478 C481 1.409 . S
C479 H471 0.930 . S
C479 C480 1.355 . S
C479 C481 1.415 . S
C480 C479 1.355 . S
C480 C482 1.419 . S
C481 C476 1.425 . S
C481 C478 1.409 . S
C481 C479 1.415 . S
C482 H472 0.930 . S
C482 C480 1.419 . S
C482 C483 1.362 . S
C483 H473 0.930 . S
C483 C476 1.409 . S
C483 C482 1.362 . S
H484 C490 0.930 . S
H485 C493 0.930 . S
H486 C494 0.930 . S
H487 C495 0.930 . S
H488 C498 0.930 . S
H489 C499 0.930 . S
C490 H484 0.930 . S
C490 C491 1.355 . S
C490 C492 1.415 . S
C491 C490 1.355 . S
C491 C493 1.419 . S
C492 C490 1.415 . S
C492 C497 1.425 . S
C492 C499 1.409 . S
C493 H485 0.930 . S
C493 C491 1.419 . S
C493 C494 1.362 . S
C494 H486 0.930 . S
C494 C493 1.362 . S
C494 C497 1.409 . S
C495 H487 0.930 . S
C495 C496 1.355 . S
C495 C497 1.415 . S
C496 C495 1.355 . S
C496 C498 1.419 . S
C497 C492 1.425 . S
C497 C494 1.409 . S
C497 C495 1.415 . S
C498 H488 0.930 . S
C498 C496 1.419 . S
C498 C499 1.362 . S
C499 H489 0.930 . S
C499 C492 1.409 . S
C499 C498 1.362 . S
H500 C506 0.930 . S
H501 C509 0.930 . S
H502 C510 0.930 . S
H503 C511 0.930 . S
H504 C514 0.930 . S
H505 C515 0.930 . S
C506 H500 0.930 . S
C506 C507 1.355 . S
C506 C508 1.415 . S
C507 C506 1.355 . S
C507 C509 1.419 . S
C508 C506 1.415 . S
C508 C513 1.425 . S
C508 C515 1.409 . S
C509 H501 0.930 . S
C509 C507 1.419 . S
C509 C510 1.362 . S
C510 H502 0.930 . S
C510 C509 1.362 . S
C510 C513 1.409 . S
C511 H503 0.930 . S
C511 C512 1.355 . S
C511 C513 1.415 . S
C512 C511 1.355 . S
C512 C514 1.419 . S
C513 C508 1.425 . S
C513 C510 1.409 . S
C513 C511 1.415 . S
C514 H504 0.930 . S
C514 C512 1.419 . S
C514 C515 1.362 . S
C515 H505 0.930 . S
C515 C508 1.409 . S
C515 C514 1.362 . S
C336 C219 1.662 . S
C331 C138 1.611 . S
C347 C21 1.594 . S
C352 C314 1.625 . S
C363 C60 1.646 . S
C368 C230 1.646 . S
C379 C99 1.620 . S
C384 C303 1.615 . S
C400 C214 1.442 . S
C395 C16 1.536 . S
C416 C307 1.615 . S
C411 C40 1.618 . S
C427 C79 1.623 . S
C432 C223 1.634 . S
C443 C133 1.521 . S
C448 C298 1.450 . S
C464 C309 1.430 . S
C459 C55 1.534 . S
C480 C225 1.424 . S
C475 C94 1.550 . S
C496 C296 1.613 . S
C491 C118 1.582 . S
C507 C1 1.614 . S
C512 C212 1.632 . S
