# Generated by pormake.
# Topology zzz, (3,6)-cn, num edge types: 1
# Building blocks:
#     Node 0, Type 0, BuildingBlock: MIDCAF_clean_linker_0, # of connection points: 3
#     Node 1, Type 0, BuildingBlock: MIDCAF_clean_linker_0, # of connection points: 3
#     Node 2, Type 0, BuildingBlock: MIDCAF_clean_linker_0, # of connection points: 3
#     Node 3, Type 0, BuildingBlock: MIDCAF_clean_linker_0, # of connection points: 3
#     Node 4, Type 0, BuildingBlock: MIDCAF_clean_linker_0, # of connection points: 3
#     Node 5, Type 0, BuildingBlock: MIDCAF_clean_linker_0, # of connection points: 3
#     Node 6, Type 0, BuildingBlock: MIDCAF_clean_linker_0, # of connection points: 3
#     Node 7, Type 0, BuildingBlock: MIDCAF_clean_linker_0, # of connection points: 3
#     Node 8, Type 1, BuildingBlock: BETGAK_clean_sbu_0, # of connection points: 6
#     Node 9, Type 1, BuildingBlock: BETGAK_clean_sbu_0, # of connection points: 6
#     Node 10, Type 1, BuildingBlock: BETGAK_clean_sbu_0, # of connection points: 6
#     Node 11, Type 1, BuildingBlock: BETGAK_clean_sbu_0, # of connection points: 6
#     Edge 12, Type (0, 1), BuildingBlock: UVAHIK_clean_linker_0, # of connection points: 2
#     Edge 13, Type (0, 1), BuildingBlock: UVAHIK_clean_linker_0, # of connection points: 2
#     Edge 14, Type (0, 1), BuildingBlock: UVAHIK_clean_linker_0, # of connection points: 2
#     Edge 15, Type (0, 1), BuildingBlock: UVAHIK_clean_linker_0, # of connection points: 2
#     Edge 16, Type (0, 1), BuildingBlock: UVAHIK_clean_linker_0, # of connection points: 2
#     Edge 17, Type (0, 1), BuildingBlock: UVAHIK_clean_linker_0, # of connection points: 2
#     Edge 18, Type (0, 1), BuildingBlock: UVAHIK_clean_linker_0, # of connection points: 2
#     Edge 19, Type (0, 1), BuildingBlock: UVAHIK_clean_linker_0, # of connection points: 2
#     Edge 20, Type (0, 1), BuildingBlock: UVAHIK_clean_linker_0, # of connection points: 2
#     Edge 21, Type (0, 1), BuildingBlock: UVAHIK_clean_linker_0, # of connection points: 2
#     Edge 22, Type (0, 1), BuildingBlock: UVAHIK_clean_linker_0, # of connection points: 2
#     Edge 23, Type (0, 1), BuildingBlock: UVAHIK_clean_linker_0, # of connection points: 2
#     Edge 24, Type (0, 1), BuildingBlock: UVAHIK_clean_linker_0, # of connection points: 2
#     Edge 25, Type (0, 1), BuildingBlock: UVAHIK_clean_linker_0, # of connection points: 2
#     Edge 26, Type (0, 1), BuildingBlock: UVAHIK_clean_linker_0, # of connection points: 2
#     Edge 27, Type (0, 1), BuildingBlock: UVAHIK_clean_linker_0, # of connection points: 2
#     Edge 28, Type (0, 1), BuildingBlock: UVAHIK_clean_linker_0, # of connection points: 2
#     Edge 29, Type (0, 1), BuildingBlock: UVAHIK_clean_linker_0, # of connection points: 2
#     Edge 30, Type (0, 1), BuildingBlock: UVAHIK_clean_linker_0, # of connection points: 2
#     Edge 31, Type (0, 1), BuildingBlock: UVAHIK_clean_linker_0, # of connection points: 2
#     Edge 32, Type (0, 1), BuildingBlock: UVAHIK_clean_linker_0, # of connection points: 2
#     Edge 33, Type (0, 1), BuildingBlock: UVAHIK_clean_linker_0, # of connection points: 2
#     Edge 34, Type (0, 1), BuildingBlock: UVAHIK_clean_linker_0, # of connection points: 2
#     Edge 35, Type (0, 1), BuildingBlock: UVAHIK_clean_linker_0, # of connection points: 2
# Relax obj value: 0.421
# Max RMSD: 0.273
# Mean RMSD: 0.252
data_MOF--net-zzz--node1-BETGAK_clean_sbu_0--node2-MIDCAF_clean_linker_0--edge1-UVAHIK_clean_linker_0
_symmetry_space_group_name_H-M    P1
_symmetry_Int_Tables_number       1
_symmetry_cell_setting            triclinic
loop_
_symmetry_equiv_pos_as_xyz
'x, y, z'
_cell_length_a     74.453225
_cell_length_b     74.407615
_cell_length_c     22.740264
_cell_angle_alpha  90.018477
_cell_angle_beta   89.949463
_cell_angle_gamma 90.084208
loop_
_atom_site_label
_atom_site_type_symbol
_atom_site_fract_x
_atom_site_fract_y
_atom_site_fract_z
_atom_type_partial_charge
C0 C 0.78976 0.53941 0.32559 0.0
C1 C 0.78858 0.52597 0.36883 0.0
C2 C 0.77332 0.51475 0.36947 0.0
C3 C 0.75988 0.51654 0.32647 0.0
H4 H 0.69377 0.5414 0.2363 0.0
H5 H 0.66208 0.53878 0.20755 0.0
H6 H 0.67567 0.49405 0.09459 0.0
H7 H 0.70679 0.49652 0.12444 0.0
H8 H 0.73053 0.53143 0.01844 0.0
H9 H 0.74458 0.52938 0.92201 0.0
H10 H 0.79693 0.53222 0.00337 0.0
H11 H 0.78298 0.53463 0.09955 0.0
H12 H 0.77834 0.55099 0.24814 0.0
H13 H 0.80138 0.54817 0.32337 0.0
H14 H 0.77198 0.50433 0.40242 0.0
H15 H 0.74865 0.50728 0.32662 0.0
N16 N 0.73188 0.52491 0.2331 0.0
N17 N 0.72961 0.52699 0.13014 0.0
N18 N 0.75718 0.53232 0.17552 0.0
C19 C 0.72181 0.52394 0.18303 0.0
C20 C 0.74721 0.53125 0.12579 0.0
C21 C 0.74972 0.52921 0.22922 0.0
C22 C 0.70262 0.51906 0.18291 0.0
C23 C 0.6897 0.53053 0.20753 0.0
C24 C 0.67163 0.52919 0.1902 0.0
C25 C 0.66625 0.51635 0.14801 0.0
C26 C 0.67909 0.50397 0.12757 0.0
C27 C 0.69701 0.50536 0.14469 0.0
C28 C 0.75564 0.53289 0.06699 0.0
C29 C 0.74505 0.53193 0.01579 0.0
C30 C 0.75308 0.53072 0.96041 0.0
C31 C 0.77186 0.53046 0.95496 0.0
C32 C 0.78241 0.53259 0.00582 0.0
C33 C 0.7744 0.53383 0.06119 0.0
C34 C 0.76167 0.52935 0.2814 0.0
C35 C 0.77657 0.54098 0.28227 0.0
C36 C 0.01689 0.78949 0.38962 0.0
C37 C 0.99899 0.7938 0.40313 0.0
C38 C 0.98524 0.78253 0.38158 0.0
C39 C 0.98933 0.7677 0.34555 0.0
H40 H 0.02284 0.69241 0.26335 0.0
H41 H 0.01643 0.66306 0.21974 0.0
H42 H 0.97058 0.68558 0.13013 0.0
H43 H 0.97706 0.71494 0.17439 0.0
H44 H 0.03158 0.73383 0.08304 0.0
H45 H 0.04809 0.74847 0.00343 0.0
H46 H 0.07094 0.78588 0.12788 0.0
H47 H 0.05443 0.77141 0.20729 0.0
H48 H 0.03484 0.77255 0.34162 0.0
H49 H 0.02782 0.79792 0.40478 0.0
H50 H 0.97131 0.78541 0.39151 0.0
H51 H 0.97848 0.75971 0.32756 0.0
N52 N 1.00329 0.73494 0.27628 0.0
N53 N 0.02063 0.72914 0.19155 0.0
N54 N 0.02453 0.75605 0.24275 0.0
C55 C 0.00799 0.72383 0.23092 0.0
C56 C 0.02894 0.74523 0.19712 0.0
C57 C 0.01177 0.75115 0.28236 0.0
C58 C 1.00023 0.70579 0.22306 0.0
C59 C 0.0109 0.69083 0.2366 0.0
C60 C 0.00736 0.67411 0.21094 0.0
C61 C 0.99315 0.67204 0.17077 0.0
C62 C 0.98155 0.68668 0.16119 0.0
C63 C 0.98515 0.70346 0.18681 0.0
C64 C 0.04147 0.75168 0.15128 0.0
C65 C 0.04049 0.74487 0.09367 0.0
C66 C 0.04993 0.75323 0.04806 0.0
C67 C 0.06072 0.76833 0.0595 0.0
C68 C 0.06286 0.77416 0.11784 0.0
C69 C 0.05324 0.76599 0.16324 0.0
C70 C 0.00721 0.76412 0.32963 0.0
C71 C 0.02092 0.77495 0.35316 0.0
C72 C 0.7101 0.96834 0.38954 0.0
C73 C 0.70733 0.98612 0.40847 0.0
C74 C 0.71962 0.99943 0.38995 0.0
C75 C 0.7336 0.99522 0.35062 0.0
H76 H 0.80331 0.97697 0.27242 0.0
H77 H 0.83302 0.98458 0.23188 0.0
H78 H 0.80754 0.00631 0.07691 0.0
H79 H 0.77821 0.99861 0.11715 0.0
H80 H 0.76017 0.95133 0.07228 0.0
H81 H 0.74252 0.93953 0.99068 0.0
H82 H 0.69707 0.933 0.10752 0.0
H83 H 0.71478 0.9438 0.18853 0.0
H84 H 0.72494 0.95052 0.33431 0.0
H85 H 0.7009 0.95771 0.40199 0.0
H86 H 0.71807 0.01323 0.40424 0.0
H87 H 0.74216 0.00591 0.33439 0.0
N88 N 0.76261 0.98198 0.26524 0.0
N89 N 0.76379 0.96765 0.17277 0.0
N90 N 0.73948 0.96249 0.23517 0.0
C91 C 0.77132 0.97873 0.21335 0.0
C92 C 0.74793 0.95937 0.18347 0.0
C93 C 0.74656 0.97368 0.2762 0.0
C94 C 0.78855 0.98737 0.19804 0.0
C95 C 0.80415 0.98396 0.23072 0.0
C96 C 0.82111 0.98811 0.20717 0.0
C97 C 0.82266 0.99597 0.15099 0.0
C98 C 0.80689 1.00047 0.12047 0.0
C99 C 0.79006 0.99607 0.1435 0.0
C100 C 0.73876 0.94897 0.13672 0.0
C101 C 0.74654 0.94692 0.08072 0.0
C102 C 0.73638 0.94022 0.0338 0.0
C103 C 0.7182 0.9356 0.04185 0.0
C104 C 0.71102 0.9362 0.09911 0.0
C105 C 0.72119 0.94267 0.14591 0.0
C106 C 0.73542 0.97765 0.32876 0.0
C107 C 0.7239 0.9642 0.35033 0.0
C108 C 0.55768 0.735 0.04825 0.0
C109 C 0.55593 0.74453 0.99509 0.0
C110 C 0.55203 0.763 0.99749 0.0
C111 C 0.54828 0.7713 0.05131 0.0
H112 H 0.4939 0.79855 0.14382 0.0
H113 H 0.48558 0.82784 0.105 0.0
H114 H 0.52637 0.85278 0.21297 0.0
H115 H 0.53483 0.82312 0.25081 0.0
H116 H 0.55596 0.74174 0.29739 0.0
H117 H 0.55178 0.71552 0.35965 0.0
H118 H 0.49623 0.73004 0.38615 0.0
H119 H 0.50059 0.75674 0.32396 0.0
H120 H 0.55458 0.7352 0.14143 0.0
H121 H 0.56047 0.72073 0.04852 0.0
H122 H 0.55095 0.77085 0.95755 0.0
H123 H 0.54432 0.7853 0.05122 0.0
N124 N 0.53266 0.78503 0.15844 0.0
N125 N 0.52213 0.78047 0.25511 0.0
N126 N 0.53956 0.75845 0.20758 0.0
C127 C 0.52359 0.79107 0.20623 0.0
C128 C 0.5304 0.76407 0.25586 0.0
C129 C 0.54073 0.76876 0.15869 0.0
C130 C 0.51474 0.80867 0.20109 0.0
C131 C 0.50049 0.81041 0.16121 0.0
C132 C 0.49581 0.82725 0.13877 0.0
C133 C 0.50542 0.84276 0.15526 0.0
C134 C 0.51884 0.84112 0.19865 0.0
C135 C 0.52349 0.8242 0.22121 0.0
C136 C 0.52857 0.75124 0.30542 0.0
C137 C 0.54295 0.73962 0.31767 0.0
C138 C 0.54051 0.72448 0.35299 0.0
C139 C 0.52355 0.7204 0.3767 0.0
C140 C 0.50946 0.73278 0.36845 0.0
C141 C 0.51196 0.74812 0.33308 0.0
C142 C 0.54846 0.7613 0.10383 0.0
C143 C 0.55409 0.7433 0.10191 0.0
C144 C 0.21729 0.5262 0.9726 0.0
C145 C 0.21168 0.50828 0.96572 0.0
C146 C 0.22173 0.49463 0.9933 0.0
C147 C 0.23645 0.49893 0.02937 0.0
H148 H 0.30643 0.50422 0.08636 0.0
H149 H 0.33511 0.49301 0.12567 0.0
H150 H 0.31339 0.4959 0.30168 0.0
H151 H 0.28516 0.50688 0.26264 0.0
H152 H 0.27082 0.54992 0.27907 0.0
H153 H 0.25601 0.56896 0.35148 0.0
H154 H 0.21627 0.58386 0.22224 0.0
H155 H 0.23109 0.56507 0.14963 0.0
H156 H 0.2351 0.54451 0.01562 0.0
H157 H 0.20984 0.5371 0.95268 0.0
H158 H 0.21787 0.48067 0.98844 0.0
H159 H 0.24334 0.48825 0.05249 0.0
N160 N 0.26807 0.51211 0.10303 0.0
N161 N 0.27282 0.53119 0.18422 0.0
N162 N 0.24888 0.53665 0.12075 0.0
C163 C 0.27788 0.51681 0.15144 0.0
C164 C 0.25844 0.54126 0.16908 0.0
C165 C 0.25347 0.52219 0.08754 0.0
C166 C 0.29363 0.5064 0.17151 0.0
C167 C 0.30772 0.5019 0.13318 0.0
C168 C 0.32416 0.49568 0.15578 0.0
C169 C 0.3266 0.49362 0.21691 0.0
C170 C 0.31201 0.49709 0.25444 0.0
C171 C 0.29581 0.50347 0.23207 0.0
C172 C 0.25188 0.5556 0.20885 0.0
C173 C 0.2592 0.5576 0.26553 0.0
C174 C 0.25072 0.56851 0.30713 0.0
C175 C 0.23486 0.57771 0.29278 0.0
C176 C 0.22854 0.57703 0.23461 0.0
C177 C 0.23695 0.56608 0.19309 0.0
C178 C 0.2412 0.51697 0.03912 0.0
C179 C 0.23178 0.53047 0.00894 0.0
C180 C 0.04212 0.22569 0.96522 0.0
C181 C 0.02426 0.22351 0.94648 0.0
C182 C 0.01151 0.23653 0.9636 0.0
C183 C 0.0164 0.25088 1.0007 0.0
H184 H 0.00363 0.3061 0.12006 0.0
H185 H 0.99457 0.3356 0.15892 0.0
H186 H 0.05046 0.34948 0.18342 0.0
H187 H 0.05924 0.32048 0.14434 0.0
H188 H 0.05853 0.28116 0.27224 0.0
H189 H 0.0675 0.26396 0.35859 0.0
H190 H 0.08144 0.21913 0.24677 0.0
H191 H 0.07279 0.23627 0.16087 0.0
H192 H 0.06066 0.24053 0.01787 0.0
H193 H 0.0523 0.21591 0.95387 0.0
H194 H 0.99766 0.23537 0.94957 0.0
H195 H 0.00619 0.26021 0.01544 0.0
N196 N 0.03256 0.28176 0.07528 0.0
N197 N 0.04881 0.2853 0.16354 0.0
N198 N 0.04995 0.25805 0.11321 0.0
C199 C 0.03789 0.29225 0.12155 0.0
C200 C 0.05481 0.2682 0.15993 0.0
C201 C 0.03897 0.26459 0.0707 0.0
C202 C 0.03212 0.31111 0.12899 0.0
C203 C 0.01388 0.3158 0.13174 0.0
C204 C 0.00873 0.33258 0.15476 0.0
C205 C 0.02177 0.34494 0.17481 0.0
C206 C 0.04001 0.34053 0.16788 0.0
C207 C 0.04508 0.32385 0.14553 0.0
C208 C 0.06447 0.25988 0.20979 0.0
C209 C 0.06405 0.26784 0.26591 0.0
C210 C 0.06917 0.25799 0.31548 0.0
C211 C 0.07488 0.24009 0.30969 0.0
C212 C 0.07717 0.23291 0.25296 0.0
C213 C 0.072 0.24269 0.20356 0.0
C214 C 0.03407 0.2523 0.02185 0.0
C215 C 0.04691 0.23982 1.00234 0.0
C216 C 0.27203 0.99153 0.95167 0.0
C217 C 0.27862 0.00921 0.95551 0.0
C218 C 0.27014 0.02122 0.99466 0.0
C219 C 0.25622 0.01531 0.03177 0.0
H220 H 0.18994 0.00968 0.10638 0.0
H221 H 0.16277 0.02011 0.15787 0.0
H222 H 0.185 1.00178 0.32256 0.0
H223 H 0.21174 0.99144 0.27172 0.0
H224 H 0.23153 0.95291 0.26197 0.0
H225 H 0.25005 0.93185 0.31714 0.0
H226 H 0.28389 0.92447 0.1646 0.0
H227 H 0.26528 0.94506 0.10924 0.0
H228 H 0.25444 0.9716 0.98748 0.0
H229 H 0.27828 0.98184 0.92263 0.0
H230 H 0.27475 0.03498 0.99829 0.0
H231 H 0.25074 0.0245 0.06405 0.0
N232 N 0.22616 0.99812 0.10587 0.0
N233 N 0.22475 0.97537 0.17781 0.0
N234 N 0.24631 0.97381 0.10356 0.0
C235 C 0.21822 0.99089 0.15471 0.0
C236 C 0.23871 0.96669 0.15236 0.0
C237 C 0.24026 0.98942 0.08002 0.0
C238 C 0.20292 0.99969 0.18497 0.0
C239 C 0.18908 0.00824 0.15369 0.0
C240 C 0.17351 0.01406 0.18308 0.0
C241 C 0.17172 0.01176 0.24433 0.0
C242 C 0.18597 0.00395 0.27556 0.0
C243 C 0.20129 0.99791 0.24628 0.0
C244 C 0.2472 0.95106 0.18159 0.0
C245 C 0.24262 0.94642 0.23966 0.0
C246 C 0.25326 0.93437 0.2714 0.0
C247 C 0.26863 0.92671 0.24565 0.0
C248 C 0.27212 0.93002 0.18586 0.0
C249 C 0.26152 0.94204 0.15419 0.0
C250 C 0.25072 0.99725 0.03083 0.0
C251 C 0.25835 0.98563 0.989 0.0
C252 C 0.46483 0.28332 0.31602 0.0
C253 C 0.46808 0.27243 0.36542 0.0
C254 C 0.47015 0.25384 0.3575 0.0
C255 C 0.4698 0.24642 0.30109 0.0
H256 H 0.45 0.20037 0.15076 0.0
H257 H 0.45516 0.16997 0.18541 0.0
H258 H 0.51153 0.17522 0.14287 0.0
H259 H 0.50617 0.20607 0.10933 0.0
H260 H 0.49887 0.25523 0.99854 0.0
H261 H 0.50296 0.27973 0.9269 0.0
H262 H 0.45657 0.30675 0.9986 0.0
H263 H 0.45273 0.28266 0.0699 0.0
H264 H 0.46272 0.28483 0.22244 0.0
H265 H 0.46341 0.29774 0.32057 0.0
H266 H 0.47255 0.24512 0.3948 0.0
H267 H 0.47202 0.2321 0.2965 0.0
N268 N 0.47193 0.2321 0.1839 0.0
N269 N 0.47709 0.23617 0.0826 0.0
N270 N 0.47079 0.26093 0.14394 0.0
C271 C 0.4755 0.22508 0.1302 0.0
C272 C 0.47442 0.25424 0.08955 0.0
C273 C 0.46969 0.24997 0.1914 0.0
C274 C 0.47764 0.20544 0.12681 0.0
C275 C 0.46332 0.19469 0.14616 0.0
C276 C 0.46635 0.17722 0.16629 0.0
C277 C 0.48385 0.17013 0.16801 0.0
C278 C 0.49793 0.18035 0.1432 0.0
C279 C 0.49485 0.19789 0.1229 0.0
C280 C 0.47549 0.26705 0.03973 0.0
C281 C 0.48937 0.26624 0.99792 0.0
C282 C 0.49178 0.28031 0.95735 0.0
C283 C 0.48008 0.29519 0.95711 0.0
C284 C 0.46571 0.29544 0.99712 0.0
C285 C 0.46354 0.28165 0.03816 0.0
C286 C 0.46755 0.25746 0.25135 0.0
C287 C 0.46459 0.27593 0.25962 0.0
La288 La 0.00588 1.00179 0.74311 0.0
La289 La 0.98558 0.01396 0.63843 0.0
C290 C 0.01589 0.98535 0.83393 0.0
C291 C 0.02439 0.96773 0.84329 0.0
C292 C 0.03947 0.96642 0.87993 0.0
C293 C 0.0486 0.95011 0.88541 0.0
C294 C 0.04289 0.93491 0.85377 0.0
C295 C 0.02767 0.93621 0.81763 0.0
C296 C 0.01843 0.95244 0.81277 0.0
C297 C 0.02637 0.01186 0.6543 0.0
C298 C 0.99172 0.97285 0.64676 0.0
C299 C 0.97775 0.03206 0.54929 0.0
C300 C 0.98634 0.04905 0.53184 0.0
C301 C 0.97622 0.06319 0.50829 0.0
C302 C 0.98412 0.08012 0.5001 0.0
C303 C 1.00212 0.08309 0.51637 0.0
C304 C 0.01226 0.06877 0.53859 0.0
C305 C 0.00447 0.05194 0.54608 0.0
C306 C 0.96534 0.00406 0.72799 0.0
C307 C 1.00061 0.0424 0.73103 0.0
O308 O 0.02585 0.99713 0.80631 0.0
O309 O 0.99929 0.98526 0.81473 0.0
O310 O 0.0306 0.01388 0.70911 0.0
O311 O 0.01182 1.00327 0.65108 0.0
O312 O 0.99957 0.97617 0.69812 0.0
O313 O 0.98559 0.98592 0.61302 0.0
O314 O 0.96857 0.03287 0.59832 0.0
O315 O 0.98816 0.01789 0.54746 0.0
O316 O 0.96093 1.00184 0.67324 0.0
O317 O 0.97984 0.01274 0.73047 0.0
O318 O 0.99775 0.03858 0.67501 0.0
O319 O 1.00132 0.02939 0.77039 0.0
H320 H 0.04434 0.97809 0.90361 0.0
H321 H 0.06031 0.94945 0.91356 0.0
H322 H 0.02278 0.92461 0.79364 0.0
H323 H 0.0067 0.95303 0.78479 0.0
H324 H 0.96216 0.06129 0.49785 0.0
H325 H 0.97607 0.091 0.48274 0.0
H326 H 0.02623 0.07062 0.55056 0.0
H327 H 0.01254 0.04133 0.56494 0.0
La328 La 0.49868 0.01811 0.72405 0.0
La329 La 0.48516 0.99966 0.61714 0.0
C330 C 0.50916 0.02423 0.82663 0.0
C331 C 0.52605 0.01751 0.85295 0.0
C332 C 0.54228 0.02672 0.84305 0.0
C333 C 0.55869 0.018 0.85065 0.0
C334 C 0.55923 0.99988 0.86819 0.0
C335 C 0.54309 0.99133 0.88406 0.0
C336 C 0.52669 1.00014 0.87717 0.0
C337 C 0.49703 0.03899 0.63058 0.0
C338 C 0.527 0.00499 0.63559 0.0
C339 C 0.47718 0.98713 0.51768 0.0
C340 C 0.4623 0.97579 0.49758 0.0
C341 C 0.46224 0.96893 0.44026 0.0
C342 C 0.44829 0.95767 0.42173 0.0
C343 C 0.43425 0.95308 0.46046 0.0
C344 C 0.43448 0.95998 0.51804 0.0
C345 C 0.44839 0.97124 0.53642 0.0
C346 C 0.48706 0.97949 0.71226 0.0
C347 C 0.45617 0.01448 0.70416 0.0
O348 O 0.51103 0.03581 0.78363 0.0
O349 O 0.4972 0.01188 0.81392 0.0
O350 O 0.50868 0.04078 0.67242 0.0
O351 O 0.48584 0.02701 0.64455 0.0
O352 O 0.52359 0.0066 0.69223 0.0
O353 O 0.51369 0.00484 0.59696 0.0
O354 O 0.48823 0.97931 0.55423 0.0
O355 O 0.47282 1.00334 0.53503 0.0
O356 O 0.47445 0.9783 0.67339 0.0
O357 O 0.4984 0.99095 0.69563 0.0
O358 O 0.45905 0.0078 0.65102 0.0
O359 O 0.46958 0.019 0.73961 0.0
H360 H 0.5423 0.04025 0.8255 0.0
H361 H 0.57092 0.02522 0.84023 0.0
H362 H 0.54295 0.97743 0.89813 0.0
H363 H 0.51444 0.99278 0.88643 0.0
H364 H 0.47299 0.97221 0.40997 0.0
H365 H 0.44855 0.95246 0.37726 0.0
H366 H 0.42372 0.95695 0.54859 0.0
H367 H 0.44828 0.97641 0.58096 0.0
La368 La 0.48941 0.51331 0.71059 0.0
La369 La 0.51235 0.50043 0.61276 0.0
C370 C 0.47868 0.53284 0.79295 0.0
C371 C 0.48418 0.55161 0.80348 0.0
C372 C 0.4712 0.56521 0.80704 0.0
C373 C 0.47635 0.5833 0.80481 0.0
C374 C 0.49455 0.58801 0.79857 0.0
C375 C 0.50755 0.57438 0.7976 0.0
C376 C 0.50244 0.55639 0.79998 0.0
C377 C 0.47148 0.50103 0.61966 0.0
C378 C 0.50579 0.54096 0.61573 0.0
C379 C 0.52472 0.48137 0.53145 0.0
C380 C 0.5275 0.46178 0.5323 0.0
C381 C 0.53537 0.45347 0.58154 0.0
C382 C 0.53368 0.43498 0.59004 0.0
C383 C 0.52389 0.42454 0.54988 0.0
C384 C 0.51729 0.43263 0.49835 0.0
C385 C 0.5191 0.45111 0.48962 0.0
C386 C 0.53013 0.51219 0.70551 0.0
C387 C 0.49592 0.47238 0.70774 0.0
O388 O 0.46943 0.53033 0.74473 0.0
O389 O 0.49124 0.52069 0.79945 0.0
O390 O 0.46627 0.49926 0.67386 0.0
O391 O 0.48561 0.5104 0.61782 0.0
O392 O 0.5007 0.53797 0.67074 0.0
O393 O 0.50911 0.52748 0.57963 0.0
O394 O 0.53487 0.49086 0.56674 0.0
O395 O 0.50787 0.48628 0.53424 0.0
O396 O 0.53553 0.5142 0.6517 0.0
O397 O 0.51592 0.50302 0.70551 0.0
O398 O 0.50337 0.47534 0.65559 0.0
O399 O 0.49052 0.48577 0.7416 0.0
H400 H 0.45705 0.56184 0.80883 0.0
H401 H 0.46604 0.59356 0.80557 0.0
H402 H 0.5217 0.57762 0.79392 0.0
H403 H 0.51281 0.54625 0.79636 0.0
H404 H 0.54175 0.46138 0.61567 0.0
H405 H 0.53883 0.42911 0.63022 0.0
H406 H 0.50998 0.42479 0.46611 0.0
H407 H 0.51287 0.45723 0.45154 0.0
La408 La 0.99231 0.49453 0.72273 0.0
La409 La 0.00382 0.51862 0.62903 0.0
C410 C 0.97417 0.47879 0.80011 0.0
C411 C 0.95591 0.47154 0.79345 0.0
C412 C 0.95035 0.46464 0.73882 0.0
C413 C 0.93222 0.46132 0.7279 0.0
C414 C 0.91927 0.46502 0.77114 0.0
C415 C 0.92502 0.47097 0.82692 0.0
C416 C 0.9432 0.47421 0.83792 0.0
C417 C 0.00356 0.47807 0.62629 0.0
C418 C 0.96337 0.50972 0.63118 0.0
C419 C 0.02022 0.53287 0.5438 0.0
C420 C 0.03814 0.54087 0.53611 0.0
C421 C 0.04028 0.55615 0.50084 0.0
C422 C 0.05708 0.56444 0.49583 0.0
C423 C 0.07202 0.55777 0.52696 0.0
C424 C 0.0697 0.5424 0.56229 0.0
C425 C 0.05303 0.53391 0.566 0.0
C426 C 0.99179 0.53555 0.7234 0.0
C427 C 0.0324 0.50433 0.72526 0.0
O428 O 0.98663 0.47081 0.76917 0.0
O429 O 0.97527 0.4963 0.79622 0.0
O430 O 0.00677 0.47262 0.67918 0.0
O431 O 0.99389 0.49187 0.6288 0.0
O432 O 0.96657 0.50348 0.68459 0.0
O433 O 0.97677 0.51416 0.59604 0.0
O434 O 0.00943 0.54166 0.57881 0.0
O435 O 0.01966 0.51552 0.55332 0.0
O436 O 0.98936 0.54081 0.66975 0.0
O437 O 1.00158 0.52171 0.723 0.0
O438 O 0.02947 0.51116 0.67215 0.0
O439 O 0.01892 0.49884 0.75841 0.0
H440 H 0.95989 0.46271 0.70337 0.0
H441 H 0.92827 0.45658 0.68475 0.0
H442 H 0.9154 0.47427 0.86098 0.0
H443 H 0.94719 0.4798 0.87994 0.0
H444 H 0.02893 0.56169 0.4772 0.0
H445 H 0.05835 0.57596 0.46706 0.0
H446 H 0.0807 0.53693 0.5877 0.0
H447 H 0.05177 0.52194 0.59251 0.0
C448 C 0.1554 0.02467 0.33139 0.0
C449 C 0.15478 0.01631 0.27594 0.0
C450 C 0.1398 0.0267 0.36508 0.0
C451 C 0.09551 0.00578 0.38701 0.0
H452 H 0.08728 0.04693 0.48807 0.0
C453 C 0.03517 0.00841 0.54818 0.0
C454 C 0.03898 0.01486 0.60489 0.0
C455 C 0.04772 0.01042 0.50261 0.0
C456 C 0.08942 0.03527 0.46041 0.0
H457 H 0.13711 0.00415 0.21152 0.0
H458 H 0.10979 0.00784 0.2702 0.0
H459 H 0.11197 0.04751 0.41751 0.0
H460 H 0.05865 0.02887 0.65804 0.0
H461 H 0.08059 0.03215 0.57923 0.0
H462 H 0.0733 0.99333 0.43093 0.0
C463 C 0.12241 0.01267 0.28781 0.0
C464 C 0.10358 0.03563 0.41984 0.0
C465 C 0.13803 0.01075 0.25388 0.0
C466 C 0.05535 0.02373 0.61479 0.0
C467 C 0.06788 0.02574 0.56937 0.0
C468 C 0.08138 0.0054 0.42771 0.0
C469 C 0.12316 0.02036 0.34435 0.0
C470 C 0.107 0.02077 0.38328 0.0
C471 C 0.06434 0.01893 0.51278 0.0
C472 C 0.07833 0.02002 0.4657 0.0
H473 H 0.16807 0.02922 0.34946 0.0
H474 H 0.14095 0.03256 0.40852 0.0
H475 H 0.09788 0.99399 0.36016 0.0
H476 H 0.02263 1.00155 0.53925 0.0
H477 H 0.04442 0.00522 0.45947 0.0
C478 C 0.47504 0.13939 0.20586 0.0
C479 C 0.48755 0.1536 0.20335 0.0
C480 C 0.47695 0.12552 0.24711 0.0
C481 C 0.49796 0.11747 0.39206 0.0
H482 H 0.48411 0.06786 0.36575 0.0
C483 C 0.50992 0.06324 0.56778 0.0
C484 C 0.49615 0.05072 0.57811 0.0
C485 C 0.50919 0.07479 0.5194 0.0
C486 C 0.48787 0.0817 0.37391 0.0
H487 H 0.51242 0.16366 0.24081 0.0
H488 H 0.51605 0.13928 0.31069 0.0
H489 H 0.48299 0.08934 0.28436 0.0
H490 H 0.47088 0.04031 0.54551 0.0
H491 H 0.46952 0.0606 0.46063 0.0
H492 H 0.50276 0.10996 0.4814 0.0
C493 C 0.5045 0.13906 0.28177 0.0
C494 C 0.48725 0.09402 0.32723 0.0
C495 C 0.50257 0.15294 0.24079 0.0
C496 C 0.48172 0.04978 0.53844 0.0
C497 C 0.48099 0.06136 0.48977 0.0
C498 C 0.49861 0.10519 0.4385 0.0
C499 C 0.49143 0.12547 0.28682 0.0
C500 C 0.49236 0.11207 0.33567 0.0
C501 C 0.49465 0.07415 0.48002 0.0
C502 C 0.49365 0.08713 0.4301 0.0
H503 H 0.46343 0.13928 0.17725 0.0
H504 H 0.4666 0.11531 0.2496 0.0
H505 H 0.50154 0.13132 0.4008 0.0
H506 H 0.5213 0.06417 0.5973 0.0
H507 H 0.5201 0.08422 0.51277 0.0
C508 C 0.34595 0.47843 0.29266 0.0
C509 C 0.34454 0.48956 0.2429 0.0
C510 C 0.3621 0.47716 0.32371 0.0
C511 C 0.4032 0.50364 0.35205 0.0
H512 H 0.41706 0.46129 0.44021 0.0
C513 C 0.46365 0.50412 0.51271 0.0
C514 C 0.45992 0.4969 0.5685 0.0
C515 C 0.45168 0.50143 0.4659 0.0
C516 C 0.41336 0.47324 0.4159 0.0
H517 H 0.35943 0.50726 0.18485 0.0
H518 H 0.38778 0.50464 0.23804 0.0
H519 H 0.39261 0.45935 0.36906 0.0
H520 H 0.44122 0.48063 0.61853 0.0
H521 H 0.42044 0.47587 0.53712 0.0
H522 H 0.42378 0.51757 0.39963 0.0
C523 C 0.37624 0.49719 0.25385 0.0
C524 C 0.39931 0.47215 0.37515 0.0
C525 C 0.36004 0.49849 0.2228 0.0
C526 C 0.44441 0.4864 0.57603 0.0
C527 C 0.43256 0.48358 0.52924 0.0
C528 C 0.41732 0.5047 0.39254 0.0
C529 C 0.37735 0.48692 0.30574 0.0
C530 C 0.39375 0.48744 0.3436 0.0
C531 C 0.43588 0.4913 0.47383 0.0
C532 C 0.42231 0.48961 0.42593 0.0
H533 H 0.33434 0.47119 0.30896 0.0
H534 H 0.36231 0.4692 0.36355 0.0
H535 H 0.39919 0.51578 0.32937 0.0
H536 H 0.47554 0.51223 0.50563 0.0
H537 H 0.45472 0.50742 0.42364 0.0
C538 C 0.02706 0.37726 0.20334 0.0
C539 C 0.01676 0.36145 0.20848 0.0
C540 C 0.02459 0.39159 0.24233 0.0
C541 C 0.99393 0.4115 0.35267 0.0
H542 H 0.03795 0.42852 0.42513 0.0
C543 C 0.99593 0.47018 0.52194 0.0
C544 C 0.00571 0.46664 0.57348 0.0
C545 C 0.99699 0.45851 0.47366 0.0
C546 C 0.02555 0.42393 0.40526 0.0
H547 H 0.99499 0.34891 0.25701 0.0
H548 H 0.99042 0.37411 0.32411 0.0
H549 H 0.03939 0.40636 0.34607 0.0
H550 H 0.02461 0.44845 0.61444 0.0
H551 H 0.02676 0.42827 0.52984 0.0
H552 H 0.98011 0.42899 0.41257 0.0
C553 C 1.00049 0.37533 0.28993 0.0
C554 C 0.02636 0.41135 0.3596 0.0
C555 C 1.00307 0.36089 0.2512 0.0
C556 C 0.01693 0.4515 0.57526 0.0
C557 C 0.0182 0.43999 0.52676 0.0
C558 C 0.99313 0.42429 0.39789 0.0
C559 C 0.0116 0.3906 0.28711 0.0
C560 C 0.01057 0.40484 0.33312 0.0
C561 C 0.00809 0.44323 0.47563 0.0
C562 C 0.00893 0.43048 0.42519 0.0
H563 H 0.03748 0.37835 0.17024 0.0
H564 H 0.03313 0.40332 0.23825 0.0
H565 H 0.98154 0.4068 0.33302 0.0
H566 H 0.98715 0.48175 0.51938 0.0
H567 H 0.98916 0.46144 0.43472 0.0
C568 C 0.85263 0.98342 0.12095 0.0
C569 C 0.84039 0.9978 0.12102 0.0
C570 C 0.86798 0.98392 0.08532 0.0
C571 C 0.89736 0.01408 0.99729 0.0
H572 H 0.90601 0.97129 0.90407 0.0
C573 C 0.95699 0.00874 0.83376 0.0
C574 C 0.95281 1.00173 0.77801 0.0
C575 C 0.94456 0.00763 0.87994 0.0
C576 C 0.90378 0.98335 0.92973 0.0
H577 H 0.83525 0.0244 0.08618 0.0
H578 H 0.86201 0.0253 0.02416 0.0
H579 H 0.88233 0.97118 0.97832 0.0
H580 H 0.93261 0.98763 0.72729 0.0
H581 H 0.91096 0.98561 0.80781 0.0
H582 H 0.91854 0.02639 0.94761 0.0
C583 C 0.85976 0.01361 0.05158 0.0
C584 C 0.89033 0.98323 0.97278 0.0
C585 C 0.84435 0.01306 0.08687 0.0
C586 C 0.93619 0.99316 0.76979 0.0
C587 C 0.92382 0.99193 0.81603 0.0
C588 C 0.91092 0.01416 0.9545 0.0
C589 C 0.87154 0.99886 0.04923 0.0
C590 C 0.88679 0.99866 0.00663 0.0
C591 C 0.92776 0.99933 0.87151 0.0
C592 C 0.91414 0.99887 0.91964 0.0
H593 H 0.84991 0.97139 0.14626 0.0
H594 H 0.87689 0.97242 0.08512 0.0
H595 H 0.89509 0.02615 0.02286 0.0
H596 H 0.96973 0.01537 0.84144 0.0
H597 H 0.94811 0.01328 0.92227 0.0
C598 C 0.4857 0.86501 0.10202 0.0
C599 C 0.50282 0.85991 0.1221 0.0
C600 C 0.48365 0.87953 0.06346 0.0
C601 C 0.5062 0.91987 1.00138 0.0
H602 H 0.47595 0.91008 0.86647 0.0
C603 C 0.50513 0.96572 0.79387 0.0
C604 C 0.48874 0.96758 0.76401 0.0
C605 C 0.50671 0.95364 0.84096 0.0
C606 C 0.48422 0.91325 0.90422 0.0
H607 H 0.53117 0.86673 0.11864 0.0
H608 H 0.52753 0.89217 0.0523 0.0
H609 H 0.47851 0.88784 0.94412 0.0
H610 H 0.46103 0.95882 0.76095 0.0
H611 H 0.46353 0.93823 0.8437 0.0
H612 H 0.51187 0.94535 0.96136 0.0
C613 C 0.51566 0.88494 0.06659 0.0
C614 C 0.4857 0.90042 0.94886 0.0
C615 C 0.51773 0.87036 0.10494 0.0
C616 C 0.47388 0.95751 0.78286 0.0
C617 C 0.47537 0.94561 0.83013 0.0
C618 C 0.50461 0.93281 0.9568 0.0
C619 C 0.49866 0.88941 0.04415 0.0
C620 C 0.49671 0.90353 0.998 0.0
C621 C 0.49187 0.94326 0.85938 0.0
C622 C 0.49359 0.92967 0.90752 0.0
H623 H 0.47387 0.85751 0.11505 0.0
H624 H 0.47031 0.88283 0.04793 0.0
H625 H 0.51471 0.92274 0.03882 0.0
H626 H 0.51683 0.97328 0.77998 0.0
H627 H 0.51967 0.95211 0.86184 0.0
C628 C 0.6397 0.50127 0.09973 0.0
C629 C 0.64818 0.51708 0.11942 0.0
C630 C 0.62464 0.50207 0.06305 0.0
C631 C 0.60272 0.5333 0.95776 0.0
H632 H 0.56742 0.49509 0.94923 0.0
C633 C 0.55885 0.52253 0.75152 0.0
C634 C 0.54157 0.51523 0.75781 0.0
C635 C 0.57024 0.52417 0.80016 0.0
C636 C 0.57696 0.50607 0.95131 0.0
H637 H 0.6465 0.5462 0.1187 0.0
H638 H 0.61978 0.54757 0.05754 0.0
H639 H 0.58894 0.4955 0.02945 0.0
H640 H 0.52248 0.5043 0.82023 0.0
H641 H 0.54197 0.50786 0.90556 0.0
H642 H 0.59045 0.54415 0.8806 0.0
C643 C 0.62516 0.5345 0.06868 0.0
C644 C 0.58954 0.50615 0.99707 0.0
C645 C 0.64036 0.5337 0.10484 0.0
C646 C 0.5357 0.51006 0.81404 0.0
C647 C 0.547 0.51191 0.86289 0.0
C648 C 0.59002 0.53334 0.91244 0.0
C649 C 0.61744 0.51872 0.04558 0.0
C650 C 0.60284 0.51958 1.0004 0.0
C651 C 0.56456 0.51874 0.85657 0.0
C652 C 0.57716 0.51954 0.90781 0.0
H653 H 0.6451 0.4882 0.11083 0.0
H654 H 0.61923 0.48958 0.04621 0.0
H655 H 0.61282 0.54379 0.95807 0.0
H656 H 0.56378 0.52656 0.70866 0.0
H657 H 0.58371 0.5292 0.79301 0.0
C658 C 0.00769 0.649 0.10609 0.0
C659 C 0.99205 0.65566 0.13311 0.0
C660 C 0.00679 0.63479 0.06604 0.0
C661 C 0.9805 0.59617 0.01568 0.0
H662 H 0.0035 0.6053 0.86544 0.0
C663 C 0.99416 0.54232 0.83174 0.0
C664 C 0.98942 0.54767 0.77453 0.0
C665 C 0.99316 0.55456 0.8787 0.0
C666 C 0.997 0.60255 0.90714 0.0
H667 H 0.96323 0.65218 0.14039 0.0
H668 H 0.96172 0.62695 0.07071 0.0
H669 H 0.00448 0.62818 0.94235 0.0
H670 H 0.97934 0.5698 0.72208 0.0
H671 H 0.978 0.59112 0.8034 0.0
H672 H 0.97328 0.57033 0.98021 0.0
C673 C 0.97466 0.63288 0.08071 0.0
C674 C 0.99765 0.6156 0.95127 0.0
C675 C 0.97551 0.64736 0.12029 0.0
C676 C 0.98319 0.56528 0.76555 0.0
C677 C 0.98246 0.57752 0.81207 0.0
C678 C 0.98014 0.58291 0.9717 0.0
C679 C 0.99027 0.6267 0.05232 0.0
C680 C 0.98938 0.61261 0.00596 0.0
C681 C 0.98768 0.5724 0.86898 0.0
C682 C 0.98829 0.58604 0.9168 0.0
H683 H 0.02061 0.65523 0.11421 0.0
H684 H 0.01905 0.63025 0.04507 0.0
H685 H 0.97408 0.59349 0.05753 0.0
H686 H 0.99896 0.52881 0.83994 0.0
H687 H 0.9973 0.55027 0.92213 0.0
C688 C 0.0602 0.22794 0.39988 0.0
C689 C 0.07489 0.22777 0.36098 0.0
C690 C 0.05665 0.21312 0.43563 0.0
C691 C 0.06148 0.16535 0.41731 0.0
H692 H 0.03386 0.16297 0.5618 0.0
C693 C 0.0097 0.11009 0.45612 0.0
C694 C 0.01061 0.10092 0.50987 0.0
C695 C 0.01949 0.12589 0.4478 0.0
C696 C 0.04171 0.16341 0.5217 0.0
H697 H 0.09886 0.21321 0.33561 0.0
H698 H 0.09267 0.18728 0.3983 0.0
H699 H 0.05042 0.19049 0.53743 0.0
H700 H 0.02154 0.10149 0.59824 0.0
H701 H 0.03855 0.12934 0.58377 0.0
H702 H 0.05235 0.1386 0.40046 0.0
C703 C 0.08367 0.19869 0.40002 0.0
C704 C 0.05116 0.17912 0.50776 0.0
C705 C 0.08723 0.21353 0.36421 0.0
C706 C 0.02079 0.10827 0.55613 0.0
C707 C 0.03043 0.12419 0.54801 0.0
C708 C 0.05197 0.14978 0.43098 0.0
C709 C 0.06772 0.19788 0.43311 0.0
C710 C 0.06079 0.18039 0.45467 0.0
C711 C 0.03021 0.13288 0.49328 0.0
C712 C 0.0416 0.14884 0.48241 0.0
H713 H 0.05037 0.23864 0.39841 0.0
H714 H 0.04424 0.21293 0.46051 0.0
H715 H 0.06852 0.16593 0.37564 0.0
H716 H 1.00198 0.10467 0.41982 0.0
H717 H 0.01887 0.13252 0.40545 0.0
C718 C 0.28774 0.92635 0.33568 0.0
C719 C 0.28268 0.91816 0.28253 0.0
C720 C 0.30383 0.92172 0.36304 0.0
C721 C 0.34814 0.90708 0.31599 0.0
H722 H 0.35913 0.91703 0.47936 0.0
C723 C 0.41111 0.94495 0.38522 0.0
C724 C 0.41898 0.94183 0.44035 0.0
C725 C 0.39568 0.93564 0.36837 0.0
C726 C 0.35641 0.91381 0.43378 0.0
H727 H 0.28942 0.89713 0.22034 0.0
H728 H 0.31755 0.8889 0.26854 0.0
H729 H 0.32836 0.91022 0.45089 0.0
H730 H 0.41745 0.92571 0.51965 0.0
H731 H 0.39043 0.90937 0.49009 0.0
H732 H 0.3761 0.91104 0.29868 0.0
C733 C 0.30927 0.89924 0.2882 0.0
C734 C 0.33871 0.91008 0.41737 0.0
C735 C 0.29315 0.90392 0.26066 0.0
C736 C 0.4115 0.92862 0.47726 0.0
C737 C 0.39606 0.91924 0.46032 0.0
C738 C 0.36584 0.91067 0.33246 0.0
C739 C 0.31523 0.90875 0.338 0.0
C740 C 0.33423 0.9076 0.35785 0.0
C741 C 0.38776 0.92291 0.40613 0.0
C742 C 0.37002 0.91498 0.39104 0.0
H743 H 0.28014 0.93748 0.35354 0.0
H744 H 0.30799 0.92948 0.40094 0.0
H745 H 0.34526 0.90529 0.2697 0.0
H746 H 0.4164 0.9552 0.35611 0.0
H747 H 0.38948 0.93909 0.32684 0.0
C748 C 0.46077 0.29542 0.4421 0.0
C749 C 0.47131 0.28087 0.42351 0.0
C750 C 0.46633 0.30613 0.48907 0.0
C751 C 0.48064 0.32812 0.58998 0.0
H752 H 0.52887 0.34234 0.54533 0.0
C753 C 0.50112 0.40007 0.55644 0.0
C754 C 0.51892 0.4058 0.56446 0.0
C755 C 0.49621 0.3824 0.56854 0.0
C756 C 0.51562 0.33835 0.56015 0.0
H757 H 0.49492 0.26493 0.44339 0.0
H758 H 0.50453 0.28355 0.52587 0.0
H759 H 0.5175 0.31331 0.51516 0.0
H760 H 0.54534 0.39784 0.59457 0.0
H761 H 0.53679 0.36659 0.61464 0.0
H762 H 0.47841 0.35393 0.63106 0.0
C763 C 0.49209 0.28682 0.50367 0.0
C764 C 0.50905 0.32161 0.54281 0.0
C765 C 0.48652 0.2761 0.45662 0.0
C766 C 0.53156 0.3937 0.58746 0.0
C767 C 0.52667 0.37588 0.5991 0.0
C768 C 0.48722 0.34488 0.60741 0.0
C769 C 0.48257 0.30249 0.51833 0.0
C770 C 0.4911 0.31683 0.55414 0.0
C771 C 0.509 0.36998 0.58863 0.0
C772 C 0.50435 0.35061 0.58913 0.0
H773 H 0.44883 0.29922 0.41797 0.0
H774 H 0.45869 0.31814 0.49885 0.0
H775 H 0.46688 0.32461 0.60054 0.0
H776 H 0.49097 0.40925 0.54036 0.0
H777 H 0.48255 0.37828 0.55917 0.0
C778 C 0.21348 0.60112 0.33079 0.0
C779 C 0.2232 0.58518 0.33963 0.0
C780 C 0.19929 0.60564 0.36834 0.0
C781 C 0.17418 0.58967 0.50252 0.0
H782 H 0.13267 0.60048 0.40601 0.0
C783 C 0.10573 0.55595 0.52353 0.0
C784 C 0.09001 0.56643 0.52146 0.0
C785 C 0.12257 0.56384 0.5162 0.0
C786 C 0.14414 0.59786 0.43399 0.0
H787 H 0.22659 0.56223 0.39728 0.0
H788 H 0.20186 0.56971 0.46126 0.0
H789 H 0.16259 0.60539 0.36672 0.0
H790 H 0.08 0.59372 0.51201 0.0
H791 H 0.10953 0.60724 0.49549 0.0
H792 H 0.15541 0.58041 0.56743 0.0
C793 C 0.20523 0.57908 0.42654 0.0
C794 C 0.16137 0.60075 0.41166 0.0
C795 C 0.21949 0.57471 0.38953 0.0
C796 C 0.0917 0.58511 0.51265 0.0
C797 C 0.1086 0.59294 0.50395 0.0
C798 C 0.15693 0.58645 0.52435 0.0
C799 C 0.19439 0.59414 0.41486 0.0
C800 C 0.17663 0.59586 0.44454 0.0
C801 C 0.12413 0.58233 0.50541 0.0
C802 C 0.14183 0.58982 0.48922 0.0
H803 H 0.21624 0.60959 0.29308 0.0
H804 H 0.19153 0.61759 0.35888 0.0
H805 H 0.18559 0.58623 0.52977 0.0
H806 H 0.10509 0.54151 0.52877 0.0
H807 H 0.13436 0.55532 0.51621 0.0
C808 C 0.05477 0.7858 0.96851 0.0
C809 C 0.0671 0.77993 0.01093 0.0
C810 C 0.05884 0.80039 0.93245 0.0
C811 C 0.08628 0.84122 0.94404 0.0
H812 H 0.05813 0.85362 0.80679 0.0
C813 C 0.05654 0.91087 0.91573 0.0
C814 C 0.05239 0.91756 0.85977 0.0
C815 C 0.06403 0.89382 0.92203 0.0
C816 C 0.06647 0.85045 0.84432 0.0
H817 H 0.09413 0.7832 0.04424 0.0
H818 H 0.10164 0.80827 0.97935 0.0
H819 H 0.06234 0.82226 0.83228 0.0
H820 H 0.05369 0.91218 0.76622 0.0
H821 H 0.06723 0.88246 0.77698 0.0
H822 H 0.09056 0.86937 0.95576 0.0
C823 C 0.08852 0.8021 0.97545 0.0
C824 C 0.06868 0.83239 0.85947 0.0
C825 C 0.08431 0.78766 0.01233 0.0
C826 C 0.05657 0.90719 0.80997 0.0
C827 C 0.06429 0.89018 0.81619 0.0
C828 C 0.08439 0.85923 0.92821 0.0
C829 C 0.07545 0.80933 0.93751 0.0
C830 C 0.07767 0.8276 0.91156 0.0
C831 C 0.06777 0.88311 0.87241 0.0
C832 C 0.07355 0.86412 0.88026 0.0
H833 H 0.04133 0.7802 0.96677 0.0
H834 H 0.04828 0.80554 0.90446 0.0
H835 H 0.09335 0.83823 0.98442 0.0
H836 H 0.05327 0.91851 0.95487 0.0
H837 H 0.06609 0.88875 0.96613 0.0
C838 C 0.70785 0.94408 0.94058 0.0
C839 C 0.70588 0.93322 0.99083 0.0
C840 C 0.69354 0.94636 0.90163 0.0
C841 C 0.6446 0.93468 0.88008 0.0
H842 H 0.64124 0.98618 0.85643 0.0
C843 C 0.58017 0.97629 0.90782 0.0
C844 C 0.57635 0.98963 0.86589 0.0
C845 C 0.59614 0.96652 0.90471 0.0
C846 C 0.64204 0.97173 0.86165 0.0
H847 H 0.68848 0.91371 0.03319 0.0
H848 H 0.66323 0.91871 0.96869 0.0
H849 H 0.67004 0.97291 0.87888 0.0
H850 H 0.58608 1.00255 0.78624 0.0
H851 H 0.61433 0.98603 0.78276 0.0
H852 H 0.61602 0.93409 0.8679 0.0
C853 C 0.67572 0.92548 0.95852 0.0
C854 C 0.65864 0.964 0.87411 0.0
C855 C 0.6902 0.9228 0.99645 0.0
C856 C 0.58878 0.99275 0.82028 0.0
C857 C 0.60485 0.98315 0.81771 0.0
C858 C 0.62789 0.94251 0.86879 0.0
C859 C 0.67681 0.93824 0.91298 0.0
C860 C 0.66008 0.94544 0.88573 0.0
C861 C 0.60869 0.97002 0.86005 0.0
C862 C 0.62644 0.96118 0.8614 0.0
H863 H 0.71977 0.95218 0.93393 0.0
H864 H 0.69519 0.95566 0.86541 0.0
H865 H 0.64519 0.9203 0.88713 0.0
H866 H 0.57101 0.97363 0.9438 0.0
H867 H 0.59896 0.95666 0.93851 0.0
C868 C 0.56544 0.71879 0.93081 0.0
C869 C 0.55521 0.73447 0.93856 0.0
C870 C 0.56072 0.70625 0.88786 0.0
C871 C 0.51854 0.69222 0.81883 0.0
H872 H 0.54825 0.65196 0.77232 0.0
C873 C 0.49296 0.62026 0.82941 0.0
C874 C 0.50012 0.60703 0.79228 0.0
C875 C 0.49928 0.6379 0.82662 0.0
C876 C 0.53968 0.66318 0.78364 0.0
H877 H 0.53377 0.75055 0.90083 0.0
H878 H 0.52634 0.72926 0.82389 0.0
H879 H 0.56228 0.68051 0.79648 0.0
H880 H 0.51876 0.60207 0.72076 0.0
H881 H 0.52957 0.63297 0.7151 0.0
H882 H 0.49597 0.67492 0.80607 0.0
C883 C 0.5374 0.72617 0.85303 0.0
C884 C 0.54778 0.67954 0.79825 0.0
C885 C 0.54188 0.73855 0.8968 0.0
C886 C 0.51318 0.61196 0.75055 0.0
C887 C 0.51938 0.62965 0.74733 0.0
C888 C 0.51045 0.67599 0.80335 0.0
C889 C 0.54588 0.7093 0.85085 0.0
C890 C 0.53738 0.69395 0.81921 0.0
C891 C 0.51277 0.64277 0.78616 0.0
C892 C 0.52097 0.66098 0.78877 0.0
H893 H 0.57619 0.7155 0.96097 0.0
H894 H 0.56774 0.69352 0.88761 0.0
H895 H 0.50997 0.7029 0.83479 0.0
H896 H 0.48301 0.61681 0.86234 0.0
H897 H 0.49412 0.64751 0.85813 0.0
C898 C 0.79697 0.53365 0.88213 0.0
C899 C 0.78052 0.5258 0.89814 0.0
C900 C 0.80721 0.52633 0.83667 0.0
C901 C 0.82782 0.50875 0.73852 0.0
H902 H 0.83132 0.45792 0.77423 0.0
C903 C 0.8939 0.47226 0.70266 0.0
C904 C 0.89985 0.46499 0.75636 0.0
C905 C 0.87575 0.47625 0.69412 0.0
C906 C 0.83039 0.47203 0.76289 0.0
H907 H 0.76102 0.5053 0.87472 0.0
H908 H 0.7787 0.49282 0.7945 0.0
H909 H 0.80487 0.47452 0.80451 0.0
H910 H 0.89116 0.45396 0.83985 0.0
H911 H 0.85966 0.46102 0.82555 0.0
H912 H 0.85419 0.50656 0.70211 0.0
C913 C 0.78387 0.5044 0.81793 0.0
C914 C 0.81511 0.48157 0.7797 0.0
C915 C 0.77366 0.51167 0.86366 0.0
C916 C 0.88705 0.45997 0.79862 0.0
C917 C 0.86893 0.46382 0.78997 0.0
C918 C 0.84317 0.49922 0.72198 0.0
C919 C 0.80118 0.51103 0.80604 0.0
C920 C 0.81418 0.50027 0.77111 0.0
C921 C 0.8632 0.47278 0.73882 0.0
C922 C 0.84507 0.48102 0.73757 0.0
H923 H 0.80244 0.54479 0.90708 0.0
H924 H 0.8205 0.53179 0.82906 0.0
H925 H 0.8273 0.52306 0.72995 0.0
H926 H 0.90337 0.47606 0.66879 0.0
H927 H 0.87172 0.48294 0.65395 0.0
C928 C 1.00326 0.19745 0.92766 0.0
C929 C 0.01906 0.2069 0.91346 0.0
C930 C 0.99978 0.18051 0.90307 0.0
C931 C 0.01467 0.14852 0.78511 0.0
H932 H 0.99496 0.11276 0.891 0.0
C933 C 0.99953 0.07552 0.7091 0.0
C934 C 1.00249 0.0615 0.74948 0.0
C935 C 1.00078 0.09352 0.72669 0.0
C936 C 1.00064 0.1225 0.86088 0.0
H937 H 0.04298 0.2063 0.85894 0.0
H938 H 0.03722 0.17674 0.81757 0.0
H939 H 0.99817 0.14364 0.92405 0.0
H940 H 0.00942 0.05553 0.83993 0.0
H941 H 0.01203 0.08683 0.87031 0.0
H942 H 0.01785 0.12718 0.72279 0.0
C943 C 0.02738 0.18238 0.84738 0.0
C944 C 1.00221 0.14037 0.87957 0.0
C945 C 0.0308 0.19933 0.87171 0.0
C946 C 0.00694 0.06596 0.80773 0.0
C947 C 0.0083 0.08397 0.82526 0.0
C948 C 0.01321 0.13061 0.76651 0.0
C949 C 0.01202 0.17251 0.86368 0.0
C950 C 0.00936 0.15365 0.84216 0.0
C951 C 0.00512 0.09804 0.78514 0.0
C952 C 0.0063 0.11728 0.80429 0.0
H953 H 0.99394 0.20276 0.95984 0.0
H954 H 0.98762 0.17353 0.91587 0.0
H955 H 0.02003 0.15834 0.75464 0.0
H956 H 0.99597 0.07262 0.66391 0.0
H957 H 0.99801 0.10389 0.69458 0.0
C958 C 0.30916 0.02378 0.95235 0.0
C959 C 0.29543 0.01423 0.92346 0.0
C960 C 0.326 0.0261 0.92587 0.0
C961 C 0.35082 0.02283 0.78373 0.0
H962 H 0.39169 0.01386 0.88497 0.0
C963 C 0.42276 0.01003 0.6931 0.0
C964 C 0.4374 0.01674 0.72553 0.0
C965 C 0.40521 0.01124 0.71524 0.0
C966 C 0.38049 0.01669 0.85609 0.0
H967 H 0.28843 1.0006 0.84234 0.0
H968 H 0.3178 0.00449 0.79645 0.0
H969 H 0.36158 0.01396 0.92642 0.0
H970 H 0.44487 0.03044 0.80616 0.0
H971 H 0.41441 0.03279 0.84406 0.0
H972 H 0.3698 0.0254 0.71324 0.0
C973 C 0.31556 0.01022 0.83961 0.0
C974 C 0.36316 0.01675 0.87997 0.0
C975 C 0.29873 0.00786 0.86616 0.0
C976 C 0.43398 0.02502 0.78002 0.0
C977 C 0.41647 0.02626 0.80203 0.0
C978 C 0.36819 0.02281 0.7598 0.0
C979 C 0.32957 0.01898 0.8697 0.0
C980 C 0.34807 0.01976 0.84415 0.0
C981 C 0.40184 0.0192 0.77035 0.0
C982 C 0.38328 0.01967 0.79564 0.0
H983 H 0.3072 0.02874 0.99667 0.0
H984 H 0.33636 0.03318 0.94999 0.0
H985 H 0.33954 0.02539 0.7549 0.0
H986 H 0.42486 1.00349 0.6511 0.0
H987 H 0.39435 0.00546 0.68982 0.0
C988 C 0.50042 0.3192 0.91629 0.0
C989 C 0.48335 0.31112 0.91873 0.0
C990 C 0.50289 0.33567 0.88742 0.0
C991 C 0.48261 0.36729 0.78015 0.0
H992 H 0.50765 0.40379 0.87029 0.0
C993 C 0.49654 0.43906 0.68964 0.0
C994 C 0.49433 0.45352 0.72887 0.0
C995 C 0.49583 0.42127 0.70965 0.0
C996 C 0.50055 0.39379 0.84461 0.0
H997 H 0.45573 0.31351 0.88991 0.0
H998 H 0.46006 0.34211 0.83898 0.0
H999 H 0.50576 0.37315 0.90797 0.0
H1000 H 0.4893 0.46051 0.81995 0.0
H1001 H 0.48786 0.42949 0.85474 0.0
H1002 H 0.47718 0.38801 0.71713 0.0
C1003 C 0.47153 0.33578 0.8596 0.0
C1004 C 0.49966 0.37616 0.86588 0.0
C1005 C 0.46902 0.31944 0.88907 0.0
C1006 C 0.49109 0.44973 0.7885 0.0
C1007 C 0.49043 0.43192 0.80854 0.0
C1008 C 0.48364 0.38492 0.75856 0.0
C1009 C 0.48839 0.34433 0.85966 0.0
C1010 C 0.49049 0.36272 0.83434 0.0
C1011 C 0.49289 0.41745 0.76942 0.0
C1012 C 0.4924 0.39847 0.79097 0.0
H1013 H 0.5117 0.31321 0.93906 0.0
H1014 H 0.51609 0.34181 0.88777 0.0
H1015 H 0.47556 0.35724 0.75454 0.0
H1016 H 0.49881 0.44147 0.64328 0.0
H1017 H 0.49789 0.41049 0.67845 0.0
C1018 C 0.18981 0.51386 0.88313 0.0
C1019 C 0.19453 0.5043 0.93421 0.0
C1020 C 0.17273 0.51199 0.85815 0.0
C1021 C 0.1263 0.4991 0.89836 0.0
H1022 H 0.11828 0.50126 0.7301 0.0
C1023 C 0.05519 0.49214 0.7963 0.0
C1024 C 0.05103 0.50342 0.74864 0.0
C1025 C 0.07279 0.4911 0.81792 0.0
C1026 C 0.12026 0.50081 0.77725 0.0
H1027 H 0.18502 0.48475 0.99774 0.0
H1028 H 0.15538 0.48117 0.95345 0.0
H1029 H 0.1489 0.50076 0.76808 0.0
H1030 H 0.06206 0.52303 0.68819 0.0
H1031 H 0.09265 0.52119 0.72533 0.0
H1032 H 0.09767 0.49934 0.90759 0.0
C1033 C 0.16483 0.49036 0.93321 0.0
C1034 C 0.13785 0.50049 0.79906 0.0
C1035 C 0.18194 0.49222 0.95816 0.0
C1036 C 0.06485 0.51381 0.72367 0.0
C1037 C 0.08243 0.51277 0.74519 0.0
C1038 C 0.10871 0.49941 0.87655 0.0
C1039 C 0.15986 0.50049 0.88355 0.0
C1040 C 0.14113 0.49977 0.85995 0.0
C1041 C 0.08667 0.50137 0.79254 0.0
C1042 C 0.10544 0.50041 0.81571 0.0
H1043 H 0.19922 0.52315 0.86315 0.0
H1044 H 0.16941 0.5201 0.82017 0.0
H1045 H 0.12826 0.49885 0.94553 0.0
H1046 H 0.04489 0.48392 0.81658 0.0
H1047 H 0.07555 0.48205 0.85406 0.0
C1048 C 0.98152 0.82254 0.41592 0.0
C1049 C 0.99495 0.81074 0.43584 0.0
C1050 C 0.97936 0.83952 0.44176 0.0
C1051 C 0.99094 0.86687 0.5737 0.0
H1052 H 0.98563 0.90718 0.46719 0.0
C1053 C 1.00148 0.94048 0.64978 0.0
C1054 C 0.99062 0.95398 0.62522 0.0
C1055 C 1.00078 0.92282 0.62856 0.0
C1056 C 0.98683 0.8961 0.4978 0.0
H1057 H 0.01598 0.80724 0.50066 0.0
H1058 H 0.01225 0.83677 0.54552 0.0
H1059 H 0.98595 0.87668 0.4283 0.0
H1060 H 0.97037 0.95934 0.5591 0.0
H1061 H 0.96892 0.92854 0.52268 0.0
H1062 H 0.99188 0.88628 0.64322 0.0
C1063 C 1.00337 0.83296 0.50993 0.0
C1064 C 0.98701 0.87856 0.4754 0.0
C1065 C 0.00561 0.81605 0.48389 0.0
C1066 C 0.97898 0.94932 0.57895 0.0
C1067 C 0.97822 0.93163 0.55785 0.0
C1068 C 0.99068 0.88442 0.59616 0.0
C1069 C 0.99046 0.84508 0.48847 0.0
C1070 C 0.98922 0.8637 0.51295 0.0
C1071 C 0.98917 0.91812 0.58215 0.0
C1072 C 0.98877 0.89932 0.5585 0.0
H1073 H 0.97317 0.81897 0.37872 0.0
H1074 H 0.96912 0.84841 0.42458 0.0
H1075 H 0.99242 0.85576 0.60405 0.0
H1076 H 0.01089 0.94363 0.68453 0.0
H1077 H 0.00968 0.91293 0.64774 0.0
C1078 C 0.68361 0.97858 0.48403 0.0
C1079 C 0.69074 0.9907 0.44255 0.0
C1080 C 0.66668 0.98146 0.5092 0.0
C1081 C 0.62408 0.00603 0.4806 0.0
H1082 H 0.61182 0.98899 0.63661 0.0
C1083 C 0.5602 0.00633 0.65529 0.0
C1084 C 0.54597 1.00369 0.61547 0.0
C1085 C 0.57809 0.00553 0.63635 0.0
C1086 C 0.61498 0.99403 0.59315 0.0
H1087 H 0.68579 0.01592 0.39761 0.0
H1088 H 0.65671 0.02133 0.44331 0.0
H1089 H 0.64281 0.98753 0.60307 0.0
H1090 H 0.5395 0.99785 0.52454 0.0
H1091 H 0.57061 0.99593 0.49181 0.0
H1092 H 0.59638 0.01304 0.47127 0.0
C1093 C 0.66398 0.00927 0.45512 0.0
C1094 C 0.63281 0.99297 0.57353 0.0
C1095 C 0.68087 0.00632 0.42957 0.0
C1096 C 0.5501 1.00006 0.55635 0.0
C1097 C 0.568 0.9991 0.53749 0.0
C1098 C 0.6063 0.00723 0.50037 0.0
C1099 C 0.65641 0.99665 0.49416 0.0
C1100 C 0.63761 0.99879 0.51672 0.0
C1101 C 0.58229 1.00192 0.57711 0.0
C1102 C 0.60142 1.00109 0.55673 0.0
H1103 H 0.6909 0.96654 0.49597 0.0
H1104 H 0.66139 0.97134 0.53872 0.0
H1105 H 0.62709 0.01044 0.43632 0.0
H1106 H 0.55755 0.00925 0.70117 0.0
H1107 H 0.58861 0.00805 0.66814 0.0
C1108 C 0.51031 0.70057 0.45655 0.0
C1109 C 0.52045 0.7025 0.40467 0.0
C1110 C 0.50772 0.68353 0.48192 0.0
C1111 C 0.50849 0.63502 0.44431 0.0
H1112 H 0.51496 0.62725 0.61144 0.0
C1113 C 0.51523 0.56356 0.53953 0.0
C1114 C 0.50729 0.55979 0.59423 0.0
C1115 C 0.51614 0.58122 0.51845 0.0
C1116 C 0.51287 0.6292 0.56479 0.0
H1117 H 0.53532 0.68786 0.33801 0.0
H1118 H 0.53094 0.65846 0.38205 0.0
H1119 H 0.51719 0.65768 0.57137 0.0
H1120 H 0.494 0.57175 0.66961 0.0
H1121 H 0.49523 0.60246 0.63229 0.0
H1122 H 0.50413 0.6067 0.43734 0.0
C1123 C 0.52498 0.67003 0.40338 0.0
C1124 C 0.51415 0.64667 0.54182 0.0
C1125 C 0.52768 0.68697 0.37847 0.0
C1126 C 0.50036 0.57416 0.6275 0.0
C1127 C 0.50114 0.59182 0.60617 0.0
C1128 C 0.50715 0.61763 0.4672 0.0
C1129 C 0.51497 0.66803 0.45538 0.0
C1130 C 0.51225 0.64975 0.48111 0.0
C1131 C 0.50898 0.59561 0.5512 0.0
C1132 C 0.5096 0.61439 0.52763 0.0
H1133 H 0.50457 0.71225 0.47786 0.0
H1134 H 0.49984 0.68244 0.52183 0.0
H1135 H 0.50658 0.63693 0.39752 0.0
H1136 H 0.52079 0.55287 0.51286 0.0
H1137 H 0.52259 0.58359 0.47647 0.0
C1138 C 0.81291 0.5376 0.43579 0.0
C1139 C 0.80398 0.52297 0.40959 0.0
C1140 C 0.8288 0.53503 0.46758 0.0
C1141 C 0.86731 0.50448 0.47365 0.0
H1142 H 0.87985 0.53102 0.6146 0.0
C1143 C 0.94084 0.51257 0.54956 0.0
C1144 C 0.94454 0.51085 0.60987 0.0
C1145 C 0.92309 0.51322 0.52934 0.0
C1146 C 0.87653 0.5234 0.57549 0.0
H1147 H 0.80452 0.49407 0.39802 0.0
H1148 H 0.83227 0.48957 0.45351 0.0
H1149 H 0.84937 0.53306 0.57495 0.0
H1150 H 0.93241 0.50877 0.69641 0.0
H1151 H 0.90146 0.5105 0.66119 0.0
H1152 H 0.89443 0.49494 0.47371 0.0
C1153 C 0.82698 0.50305 0.44927 0.0
C1154 C 0.8591 0.52468 0.55254 0.0
C1155 C 0.81097 0.50561 0.41798 0.0
C1156 C 0.93005 0.51008 0.6496 0.0
C1157 C 0.91229 0.51112 0.62944 0.0
C1158 C 0.88475 0.50333 0.49626 0.0
C1159 C 0.83629 0.51778 0.47347 0.0
C1160 C 0.85433 0.51538 0.50094 0.0
C1161 C 0.90857 0.51243 0.56897 0.0
C1162 C 0.88968 0.51297 0.54699 0.0
H1163 H 0.80781 0.55113 0.43047 0.0
H1164 H 0.83566 0.54668 0.48531 0.0
H1165 H 0.86416 0.49725 0.43362 0.0
H1166 H 0.95166 0.5132 0.51774 0.0
H1167 H 0.92074 0.51455 0.48255 0.0
loop_
_geom_bond_atom_site_label_1
_geom_bond_atom_site_label_2
_geom_bond_distance
_geom_bond_site_symmetry_2
_ccdc_geom_bond_type
C0 C1 1.384 . S
C0 H13 0.947 . S
C0 C35 1.382 . S
C1 C0 1.384 . S
C1 C2 1.378 . S
C2 C1 1.378 . S
C2 C3 1.378 . S
C2 H14 0.952 . S
C3 C2 1.378 . S
C3 H15 0.950 . S
C3 C34 1.383 . S
H4 C23 0.947 . S
H5 C24 0.946 . S
H6 C26 0.953 . S
H7 C27 0.945 . S
H8 C29 0.952 . S
H9 C30 0.949 . S
H10 C32 0.950 . S
H11 C33 0.948 . S
H12 C35 0.951 . S
H13 C0 0.947 . S
H14 C2 0.952 . S
H15 C3 0.950 . S
N16 C19 1.382 . S
N16 C21 1.363 . S
N17 C19 1.371 . S
N17 C20 1.372 . S
N18 C20 1.361 . S
N18 C21 1.377 . S
C19 N16 1.382 . S
C19 N17 1.371 . S
C19 C22 1.480 . S
C20 N17 1.372 . S
C20 N18 1.361 . S
C20 C28 1.457 . S
C21 N16 1.363 . S
C21 N18 1.377 . S
C21 C34 1.479 . S
C22 C19 1.480 . S
C22 C23 1.383 . S
C22 C27 1.385 . S
C23 H4 0.947 . S
C23 C22 1.383 . S
C23 C24 1.388 . S
C24 H5 0.946 . S
C24 C23 1.388 . S
C24 C25 1.384 . S
C25 C24 1.384 . S
C25 C26 1.377 . S
C26 H6 0.953 . S
C26 C25 1.377 . S
C26 C27 1.369 . S
C27 H7 0.945 . S
C27 C22 1.385 . S
C27 C26 1.369 . S
C28 C20 1.457 . S
C28 C29 1.372 . S
C28 C33 1.364 . S
C29 H8 0.952 . S
C29 C28 1.372 . S
C29 C30 1.389 . S
C30 H9 0.949 . S
C30 C29 1.389 . S
C30 C31 1.387 . S
C31 C30 1.387 . S
C31 C32 1.372 . S
C32 H10 0.950 . S
C32 C31 1.372 . S
C32 C33 1.379 . S
C33 H11 0.948 . S
C33 C28 1.364 . S
C33 C32 1.379 . S
C34 C3 1.383 . S
C34 C21 1.479 . S
C34 C35 1.398 . S
C35 C0 1.382 . S
C35 H12 0.951 . S
C35 C34 1.398 . S
C36 C37 1.381 1_655 S
C36 H49 0.948 . S
C36 C71 1.382 1_655 S
C37 C36 1.381 1_455 S
C37 C38 1.388 . S
C38 C37 1.388 . S
C38 C39 1.378 . S
C38 H50 0.952 . S
C39 C38 1.378 . S
C39 H51 0.950 . S
C39 C70 1.383 . S
H40 C59 0.947 . S
H41 C60 0.952 . S
H42 C62 0.953 . S
H43 C63 0.945 . S
H44 C65 0.949 1_655 S
H45 C66 0.956 . S
H46 C68 0.950 . S
H47 C69 0.948 . S
H48 C71 0.952 1_655 S
H49 C36 0.948 . S
H50 C38 0.952 . S
H51 C39 0.950 . S
N52 C55 1.382 . S
N52 C57 1.363 . S
N53 C55 1.371 . S
N53 C56 1.372 . S
N54 C56 1.361 . S
N54 C57 1.377 . S
C55 N52 1.382 . S
C55 N53 1.371 . S
C55 C58 1.480 . S
C56 N53 1.372 . S
C56 N54 1.361 . S
C56 C64 1.457 . S
C57 N52 1.363 . S
C57 N54 1.377 . S
C57 C70 1.479 . S
C58 C55 1.480 . S
C58 C59 1.383 . S
C58 C63 1.385 . S
C59 H40 0.947 . S
C59 C58 1.383 . S
C59 C60 1.386 1_455 S
C60 H41 0.952 . S
C60 C59 1.386 1_655 S
C60 C61 1.381 1_655 S
C61 C60 1.381 1_455 S
C61 C62 1.377 . S
C62 H42 0.953 . S
C62 C61 1.377 . S
C62 C63 1.369 . S
C63 H43 0.945 . S
C63 C58 1.385 . S
C63 C62 1.369 . S
C64 C56 1.457 . S
C64 C65 1.375 . S
C64 C69 1.364 . S
C65 H44 0.949 1_455 S
C65 C64 1.375 . S
C65 C66 1.386 1_455 S
C66 H45 0.956 . S
C66 C65 1.386 1_655 S
C66 C67 1.383 1_655 S
C67 C66 1.383 1_455 S
C67 C68 1.372 . S
C68 H46 0.950 . S
C68 C67 1.372 . S
C68 C69 1.379 . S
C69 H47 0.948 . S
C69 C64 1.364 . S
C69 C68 1.379 . S
C70 C39 1.383 . S
C70 C57 1.479 . S
C70 C71 1.397 . S
C71 C36 1.382 1_455 S
C71 H48 0.952 1_455 S
C71 C70 1.397 . S
C72 C73 1.384 . S
C72 H85 0.947 . S
C72 C107 1.382 . S
C73 C72 1.384 . S
C73 C74 1.380 . S
C74 C73 1.380 . S
C74 C75 1.377 1_565 S
C74 H86 0.952 1_565 S
C75 C74 1.377 1_545 S
C75 H87 0.950 . S
C75 C106 1.383 1_545 S
H76 C95 0.947 . S
H77 C96 0.946 . S
H78 C98 0.953 1_545 S
H79 C99 0.945 . S
H80 C101 0.952 . S
H81 C102 0.949 . S
H82 C104 0.957 . S
H83 C105 0.948 . S
H84 C107 0.951 . S
H85 C72 0.947 . S
H86 C74 0.952 1_545 S
H87 C75 0.950 . S
N88 C91 1.382 1_565 S
N88 C93 1.362 1_565 S
N89 C91 1.370 1_565 S
N89 C92 1.372 1_565 S
N90 C92 1.361 . S
N90 C93 1.376 . S
C91 N88 1.382 1_545 S
C91 N89 1.370 1_545 S
C91 C94 1.479 1_545 S
C92 N89 1.372 1_545 S
C92 N90 1.361 . S
C92 C100 1.459 . S
C93 N88 1.362 1_545 S
C93 N90 1.376 . S
C93 C106 1.475 1_545 S
C94 C91 1.479 1_565 S
C94 C95 1.384 . S
C94 C99 1.384 1_565 S
C95 H76 0.947 . S
C95 C94 1.384 . S
C95 C96 1.388 . S
C96 H77 0.946 . S
C96 C95 1.388 . S
C96 C97 1.384 . S
C97 C96 1.384 . S
C97 C98 1.377 . S
C98 H78 0.953 1_565 S
C98 C97 1.377 . S
C98 C99 1.369 1_565 S
C99 H79 0.945 . S
C99 C94 1.384 1_545 S
C99 C98 1.369 1_545 S
C100 C92 1.459 . S
C100 C101 1.363 1_545 S
C100 C105 1.369 . S
C101 H80 0.952 . S
C101 C100 1.363 1_565 S
C101 C102 1.389 . S
C102 H81 0.949 . S
C102 C101 1.389 . S
C102 C103 1.387 . S
C103 C102 1.387 . S
C103 C104 1.364 1_565 S
C104 H82 0.957 . S
C104 C103 1.364 1_545 S
C104 C105 1.384 . S
C105 H83 0.948 . S
C105 C100 1.369 . S
C105 C104 1.384 . S
C106 C75 1.383 1_565 S
C106 C93 1.475 1_565 S
C106 C107 1.398 . S
C107 C72 1.382 . S
C107 H84 0.951 . S
C107 C106 1.398 . S
C108 C109 1.384 . S
C108 H121 0.947 . S
C108 C143 1.382 . S
C109 C108 1.384 . S
C109 C110 1.378 . S
C110 C109 1.378 . S
C110 C111 1.378 . S
C110 H122 0.952 . S
C111 C110 1.378 . S
C111 H123 0.950 . S
C111 C142 1.383 . S
H112 C131 0.947 . S
H113 C132 0.946 . S
H114 C134 0.953 . S
H115 C135 0.945 . S
H116 C137 0.952 . S
H117 C138 0.949 . S
H118 C140 0.950 . S
H119 C141 0.948 . S
H120 C143 0.951 . S
H121 C108 0.947 . S
H122 C110 0.952 . S
H123 C111 0.950 . S
N124 C127 1.382 . S
N124 C129 1.363 . S
N125 C127 1.371 . S
N125 C128 1.372 . S
N126 C128 1.361 . S
N126 C129 1.377 . S
C127 N124 1.382 . S
C127 N125 1.371 . S
C127 C130 1.480 . S
C128 N125 1.372 . S
C128 N126 1.361 . S
C128 C136 1.457 . S
C129 N124 1.363 . S
C129 N126 1.377 . S
C129 C142 1.479 . S
C130 C127 1.480 . S
C130 C131 1.383 . S
C130 C135 1.385 . S
C131 H112 0.947 . S
C131 C130 1.383 . S
C131 C132 1.388 . S
C132 H113 0.946 . S
C132 C131 1.388 . S
C132 C133 1.384 . S
C133 C132 1.384 . S
C133 C134 1.377 . S
C134 H114 0.953 . S
C134 C133 1.377 . S
C134 C135 1.369 . S
C135 H115 0.945 . S
C135 C130 1.385 . S
C135 C134 1.369 . S
C136 C128 1.457 . S
C136 C137 1.372 . S
C136 C141 1.364 . S
C137 H116 0.952 . S
C137 C136 1.372 . S
C137 C138 1.389 . S
C138 H117 0.949 . S
C138 C137 1.389 . S
C138 C139 1.387 . S
C139 C138 1.387 . S
C139 C140 1.372 . S
C140 H118 0.950 . S
C140 C139 1.372 . S
C140 C141 1.379 . S
C141 H119 0.948 . S
C141 C136 1.364 . S
C141 C140 1.379 . S
C142 C111 1.383 . S
C142 C129 1.479 . S
C142 C143 1.398 . S
C143 C108 1.382 . S
C143 H120 0.951 . S
C143 C142 1.398 . S
C144 C145 1.384 . S
C144 H157 0.947 . S
C144 C179 1.382 . S
C145 C144 1.384 . S
C145 C146 1.378 . S
C146 C145 1.378 . S
C146 C147 1.378 . S
C146 H158 0.952 . S
C147 C146 1.378 . S
C147 H159 0.950 . S
C147 C178 1.383 . S
H148 C167 0.947 1_556 S
H149 C168 0.946 . S
H150 C170 0.953 . S
H151 C171 0.945 . S
H152 C173 0.952 . S
H153 C174 0.949 . S
H154 C176 0.950 . S
H155 C177 0.948 . S
H156 C179 0.951 . S
H157 C144 0.947 . S
H158 C146 0.952 . S
H159 C147 0.950 . S
N160 C163 1.382 1_556 S
N160 C165 1.363 . S
N161 C163 1.371 . S
N161 C164 1.372 . S
N162 C164 1.361 . S
N162 C165 1.377 1_554 S
C163 N160 1.382 1_554 S
C163 N161 1.371 . S
C163 C166 1.480 . S
C164 N161 1.372 . S
C164 N162 1.361 . S
C164 C172 1.457 . S
C165 N160 1.363 . S
C165 N162 1.377 1_556 S
C165 C178 1.479 . S
C166 C163 1.480 . S
C166 C167 1.383 . S
C166 C171 1.385 . S
C167 H148 0.947 1_554 S
C167 C166 1.383 . S
C167 C168 1.388 . S
C168 H149 0.946 . S
C168 C167 1.388 . S
C168 C169 1.384 . S
C169 C168 1.384 . S
C169 C170 1.377 . S
C170 H150 0.953 . S
C170 C169 1.377 . S
C170 C171 1.369 . S
C171 H151 0.945 . S
C171 C166 1.385 . S
C171 C170 1.369 . S
C172 C164 1.457 . S
C172 C173 1.372 . S
C172 C177 1.364 . S
C173 H152 0.952 . S
C173 C172 1.372 . S
C173 C174 1.389 . S
C174 H153 0.949 . S
C174 C173 1.389 . S
C174 C175 1.387 . S
C175 C174 1.387 . S
C175 C176 1.372 . S
C176 H154 0.950 . S
C176 C175 1.372 . S
C176 C177 1.379 . S
C177 H155 0.948 . S
C177 C172 1.364 . S
C177 C176 1.379 . S
C178 C147 1.383 . S
C178 C165 1.479 . S
C178 C179 1.398 . S
C179 C144 1.382 . S
C179 H156 0.951 . S
C179 C178 1.398 . S
C180 C181 1.384 . S
C180 H193 0.948 1_455 S
C180 C215 1.382 . S
C181 C180 1.384 . S
C181 C182 1.378 . S
C182 C181 1.378 . S
C182 C183 1.378 . S
C182 H194 0.952 . S
C183 C182 1.378 . S
C183 H195 0.950 . S
C183 C214 1.383 . S
H184 C203 0.947 1_556 S
H185 C204 0.948 . S
H186 C206 0.953 . S
H187 C207 0.945 . S
H188 C209 0.947 1_655 S
H189 C210 0.954 . S
H190 C212 0.950 . S
H191 C213 0.948 . S
H192 C215 0.950 1_655 S
H193 C180 0.948 1_655 S
H194 C182 0.952 . S
H195 C183 0.950 . S
N196 C199 1.382 1_556 S
N196 C201 1.363 . S
N197 C199 1.371 . S
N197 C200 1.372 . S
N198 C200 1.361 . S
N198 C201 1.377 1_554 S
C199 N196 1.382 1_554 S
C199 N197 1.371 . S
C199 C202 1.480 . S
C200 N197 1.372 . S
C200 N198 1.361 . S
C200 C208 1.457 . S
C201 N196 1.363 . S
C201 N198 1.377 1_556 S
C201 C214 1.479 . S
C202 C199 1.480 . S
C202 C203 1.383 . S
C202 C207 1.385 . S
C203 H184 0.947 1_554 S
C203 C202 1.383 . S
C203 C204 1.387 1_455 S
C204 H185 0.948 . S
C204 C203 1.387 1_655 S
C204 C205 1.383 1_655 S
C205 C204 1.383 1_455 S
C205 C206 1.377 . S
C206 H186 0.953 . S
C206 C205 1.377 . S
C206 C207 1.369 . S
C207 H187 0.945 . S
C207 C202 1.385 . S
C207 C206 1.369 . S
C208 C200 1.457 . S
C208 C209 1.379 . S
C208 C213 1.364 . S
C209 H188 0.947 1_455 S
C209 C208 1.379 . S
C209 C210 1.387 1_455 S
C210 H189 0.954 . S
C210 C209 1.387 1_655 S
C210 C211 1.384 1_655 S
C211 C210 1.384 1_455 S
C211 C212 1.372 . S
C212 H190 0.950 . S
C212 C211 1.372 . S
C212 C213 1.379 . S
C213 H191 0.948 . S
C213 C208 1.364 . S
C213 C212 1.379 . S
C214 C183 1.383 . S
C214 C201 1.479 . S
C214 C215 1.399 . S
C215 C180 1.382 . S
C215 H192 0.950 1_455 S
C215 C214 1.399 . S
C216 C217 1.384 . S
C216 H229 0.947 . S
C216 C251 1.382 . S
C217 C216 1.384 . S
C217 C218 1.378 . S
C218 C217 1.378 . S
C218 C219 1.378 . S
C218 H230 0.952 . S
C219 C218 1.378 . S
C219 H231 0.950 . S
C219 C250 1.383 . S
H220 C239 0.947 1_556 S
H221 C240 0.946 . S
H222 C242 0.953 . S
H223 C243 0.945 . S
H224 C245 0.952 . S
H225 C246 0.949 . S
H226 C248 0.950 . S
H227 C249 0.948 . S
H228 C251 0.951 . S
H229 C216 0.947 . S
H230 C218 0.952 . S
H231 C219 0.950 . S
N232 C235 1.382 1_556 S
N232 C237 1.363 . S
N233 C235 1.371 . S
N233 C236 1.372 . S
N234 C236 1.361 . S
N234 C237 1.377 1_554 S
C235 N232 1.382 1_554 S
C235 N233 1.371 . S
C235 C238 1.480 . S
C236 N233 1.372 . S
C236 N234 1.361 . S
C236 C244 1.457 . S
C237 N232 1.363 . S
C237 N234 1.377 1_556 S
C237 C250 1.479 . S
C238 C235 1.480 . S
C238 C239 1.383 . S
C238 C243 1.385 . S
C239 H220 0.947 1_554 S
C239 C238 1.383 . S
C239 C240 1.388 . S
C240 H221 0.946 . S
C240 C239 1.388 . S
C240 C241 1.384 . S
C241 C240 1.384 . S
C241 C242 1.377 . S
C242 H222 0.953 . S
C242 C241 1.377 . S
C242 C243 1.369 . S
C243 H223 0.945 . S
C243 C238 1.385 . S
C243 C242 1.369 . S
C244 C236 1.457 . S
C244 C245 1.372 . S
C244 C249 1.364 . S
C245 H224 0.952 . S
C245 C244 1.372 . S
C245 C246 1.389 . S
C246 H225 0.949 . S
C246 C245 1.389 . S
C246 C247 1.387 . S
C247 C246 1.387 . S
C247 C248 1.372 . S
C248 H226 0.950 . S
C248 C247 1.372 . S
C248 C249 1.379 . S
C249 H227 0.948 . S
C249 C244 1.364 . S
C249 C248 1.379 . S
C250 C219 1.383 . S
C250 C237 1.479 . S
C250 C251 1.398 . S
C251 C216 1.382 . S
C251 H228 0.951 . S
C251 C250 1.398 . S
C252 C253 1.384 . S
C252 H265 0.947 . S
C252 C287 1.382 . S
C253 C252 1.384 . S
C253 C254 1.378 . S
C254 C253 1.378 . S
C254 C255 1.378 . S
C254 H266 0.952 . S
C255 C254 1.378 . S
C255 H267 0.950 . S
C255 C286 1.383 . S
H256 C275 0.947 . S
H257 C276 0.946 . S
H258 C278 0.953 . S
H259 C279 0.945 1_556 S
H260 C281 0.952 . S
H261 C282 0.949 . S
H262 C284 0.950 . S
H263 C285 0.948 . S
H264 C287 0.951 . S
H265 C252 0.947 . S
H266 C254 0.952 . S
H267 C255 0.950 . S
N268 C271 1.382 . S
N268 C273 1.363 . S
N269 C271 1.371 1_556 S
N269 C272 1.372 . S
N270 C272 1.361 1_554 S
N270 C273 1.377 . S
C271 N268 1.382 . S
C271 N269 1.371 1_554 S
C271 C274 1.480 . S
C272 N269 1.372 . S
C272 N270 1.361 1_556 S
C272 C280 1.457 . S
C273 N268 1.363 . S
C273 N270 1.377 . S
C273 C286 1.479 . S
C274 C271 1.480 . S
C274 C275 1.383 . S
C274 C279 1.385 . S
C275 H256 0.947 . S
C275 C274 1.383 . S
C275 C276 1.388 . S
C276 H257 0.946 . S
C276 C275 1.388 . S
C276 C277 1.384 . S
C277 C276 1.384 . S
C277 C278 1.377 . S
C278 H258 0.953 . S
C278 C277 1.377 . S
C278 C279 1.369 . S
C279 H259 0.945 1_554 S
C279 C274 1.385 . S
C279 C278 1.369 . S
C280 C272 1.457 . S
C280 C281 1.372 . S
C280 C285 1.364 . S
C281 H260 0.952 . S
C281 C280 1.372 . S
C281 C282 1.389 . S
C282 H261 0.949 . S
C282 C281 1.389 . S
C282 C283 1.387 . S
C283 C282 1.387 . S
C283 C284 1.372 . S
C284 H262 0.950 . S
C284 C283 1.372 . S
C284 C285 1.379 . S
C285 H263 0.948 . S
C285 C280 1.364 . S
C285 C284 1.379 . S
C286 C255 1.383 . S
C286 C273 1.479 . S
C286 C287 1.398 . S
C287 C252 1.382 . S
C287 H264 0.951 . S
C287 C286 1.398 . S
La288 C290 2.928 . S
La288 O308 2.521 . S
La288 O309 2.628 . S
La288 O310 2.554 . S
La288 O311 2.757 1_565 S
La288 O312 2.470 . S
La288 O317 2.482 1_455 S
La288 O319 2.503 1_565 S
La289 C299 2.928 . S
La289 O311 2.482 1_655 S
La289 O313 2.503 1_545 S
La289 O314 2.521 . S
La289 O315 2.628 . S
La289 O316 2.554 . S
La289 O317 2.757 1_545 S
La289 O318 2.470 . S
C290 La288 2.928 . S
C290 C291 1.503 . S
C290 O308 1.261 . S
C290 O309 1.243 . S
C291 C290 1.503 . S
C291 C292 1.394 . S
C291 C296 1.373 . S
C292 C291 1.394 . S
C292 C293 1.380 . S
C292 H320 0.930 . S
C293 C292 1.380 . S
C293 C294 1.376 . S
C293 H321 0.930 . S
C294 C293 1.376 . S
C294 C295 1.370 . S
C295 C294 1.370 . S
C295 C296 1.396 . S
C295 H322 0.929 1_455 S
C296 C291 1.373 . S
C296 C295 1.396 . S
C296 H323 0.929 1_455 S
C297 O310 1.238 1_545 S
C297 O311 1.291 . S
C298 O312 1.258 1_655 S
C298 O313 1.256 . S
C299 La289 2.928 . S
C299 C300 1.503 . S
C299 O314 1.261 . S
C299 O315 1.243 . S
C300 C299 1.503 . S
C300 C301 1.394 . S
C300 C305 1.373 . S
C301 C300 1.394 . S
C301 C302 1.380 . S
C301 H324 0.930 . S
C302 C301 1.380 . S
C302 C303 1.376 . S
C302 H325 0.930 . S
C303 C302 1.376 . S
C303 C304 1.370 . S
C304 C303 1.370 . S
C304 C305 1.396 . S
C304 H326 0.929 1_655 S
C305 C300 1.373 . S
C305 C304 1.396 . S
C305 H327 0.929 1_655 S
C306 O316 1.240 . S
C306 O317 1.289 1_545 S
C307 O318 1.258 1_455 S
C307 O319 1.256 . S
O308 La288 2.521 . S
O308 C290 1.261 . S
O309 La288 2.628 . S
O309 C290 1.243 . S
O310 La288 2.554 . S
O310 C297 1.238 1_565 S
O311 La288 2.757 1_545 S
O311 La289 2.482 1_455 S
O311 C297 1.291 . S
O312 La288 2.470 . S
O312 C298 1.258 1_455 S
O313 La289 2.503 1_565 S
O313 C298 1.256 . S
O314 La289 2.521 . S
O314 C299 1.261 . S
O315 La289 2.628 . S
O315 C299 1.243 . S
O316 La289 2.554 . S
O316 C306 1.240 . S
O317 La288 2.482 1_655 S
O317 La289 2.757 1_565 S
O317 C306 1.289 1_565 S
O318 La289 2.470 . S
O318 C307 1.258 1_655 S
O319 La288 2.503 1_545 S
O319 C307 1.256 . S
H320 C292 0.930 . S
H321 C293 0.930 . S
H322 C295 0.929 1_655 S
H323 C296 0.929 1_655 S
H324 C301 0.930 . S
H325 C302 0.930 . S
H326 C304 0.929 1_455 S
H327 C305 0.929 1_455 S
La328 C330 2.928 . S
La328 O348 2.521 . S
La328 O349 2.628 . S
La328 O350 2.554 . S
La328 O351 2.757 . S
La328 O352 2.470 . S
La328 O357 2.482 1_545 S
La328 O359 2.503 . S
La329 C339 2.928 . S
La329 O351 2.482 1_565 S
La329 O353 2.503 . S
La329 O354 2.521 . S
La329 O355 2.634 . S
La329 O356 2.554 . S
La329 O357 2.757 . S
La329 O358 2.470 . S
C330 La328 2.928 . S
C330 C331 1.503 . S
C330 O348 1.261 . S
C330 O349 1.243 . S
C331 C330 1.503 . S
C331 C332 1.394 . S
C331 C336 1.373 . S
C332 C331 1.394 . S
C332 C333 1.380 . S
C332 H360 0.930 . S
C333 C332 1.380 . S
C333 C334 1.376 . S
C333 H361 0.930 . S
C334 C333 1.376 . S
C334 C335 1.370 . S
C335 C334 1.370 . S
C335 C336 1.396 . S
C335 H362 0.929 1_545 S
C336 C331 1.373 . S
C336 C335 1.396 . S
C336 H363 0.929 1_545 S
C337 O350 1.240 . S
C337 O351 1.289 . S
C338 O352 1.258 1_565 S
C338 O353 1.256 . S
C339 La329 2.928 . S
C339 C340 1.503 . S
C339 O354 1.261 . S
C339 O355 1.258 . S
C340 C339 1.503 . S
C340 C341 1.394 . S
C340 C345 1.373 . S
C341 C340 1.394 . S
C341 C342 1.380 . S
C341 H364 0.930 . S
C342 C341 1.380 . S
C342 C343 1.376 . S
C342 H365 0.930 . S
C343 C342 1.376 . S
C343 C344 1.370 . S
C344 C343 1.370 . S
C344 C345 1.396 . S
C344 H366 0.929 1_565 S
C345 C340 1.373 . S
C345 C344 1.396 . S
C345 H367 0.929 1_565 S
C346 O356 1.240 . S
C346 O357 1.289 . S
C347 O358 1.258 1_545 S
C347 O359 1.256 . S
O348 La328 2.521 . S
O348 C330 1.261 . S
O349 La328 2.628 . S
O349 C330 1.243 . S
O350 La328 2.554 . S
O350 C337 1.240 . S
O351 La328 2.757 . S
O351 La329 2.482 1_545 S
O351 C337 1.289 . S
O352 La328 2.470 . S
O352 C338 1.258 1_545 S
O353 La329 2.503 . S
O353 C338 1.256 . S
O354 La329 2.521 . S
O354 C339 1.261 . S
O355 La329 2.634 . S
O355 C339 1.258 . S
O356 La329 2.554 . S
O356 C346 1.240 . S
O357 La328 2.482 1_565 S
O357 La329 2.757 . S
O357 C346 1.289 . S
O358 La329 2.470 . S
O358 C347 1.258 1_565 S
O359 La328 2.503 . S
O359 C347 1.256 . S
H360 C332 0.930 . S
H361 C333 0.930 . S
H362 C335 0.929 1_565 S
H363 C336 0.929 1_565 S
H364 C341 0.930 . S
H365 C342 0.930 . S
H366 C344 0.929 1_545 S
H367 C345 0.929 1_545 S
La368 C370 2.928 . S
La368 O388 2.521 . S
La368 O389 2.628 . S
La368 O390 2.554 . S
La368 O391 2.757 . S
La368 O392 2.470 . S
La368 O397 2.482 . S
La368 O399 2.503 . S
La369 C379 2.928 . S
La369 O391 2.482 . S
La369 O393 2.503 . S
La369 O394 2.521 . S
La369 O395 2.628 . S
La369 O396 2.554 . S
La369 O397 2.757 . S
La369 O398 2.470 . S
C370 La368 2.928 . S
C370 C371 1.503 . S
C370 O388 1.261 . S
C370 O389 1.243 . S
C371 C370 1.503 . S
C371 C372 1.394 . S
C371 C376 1.373 . S
C372 C371 1.394 . S
C372 C373 1.380 . S
C372 H400 0.930 . S
C373 C372 1.380 . S
C373 C374 1.376 . S
C373 H401 0.930 . S
C374 C373 1.376 . S
C374 C375 1.370 . S
C375 C374 1.370 . S
C375 C376 1.396 . S
C375 H402 0.929 . S
C376 C371 1.373 . S
C376 C375 1.396 . S
C376 H403 0.929 . S
C377 O390 1.240 . S
C377 O391 1.289 . S
C378 O392 1.258 . S
C378 O393 1.256 . S
C379 La369 2.928 . S
C379 C380 1.503 . S
C379 O394 1.261 . S
C379 O395 1.243 . S
C380 C379 1.503 . S
C380 C381 1.394 . S
C380 C385 1.373 . S
C381 C380 1.394 . S
C381 C382 1.380 . S
C381 H404 0.930 . S
C382 C381 1.380 . S
C382 C383 1.376 . S
C382 H405 0.930 . S
C383 C382 1.376 . S
C383 C384 1.370 . S
C384 C383 1.370 . S
C384 C385 1.396 . S
C384 H406 0.929 . S
C385 C380 1.373 . S
C385 C384 1.396 . S
C385 H407 0.929 . S
C386 O396 1.240 . S
C386 O397 1.289 . S
C387 O398 1.258 . S
C387 O399 1.256 . S
O388 La368 2.521 . S
O388 C370 1.261 . S
O389 La368 2.628 . S
O389 C370 1.243 . S
O390 La368 2.554 . S
O390 C377 1.240 . S
O391 La368 2.757 . S
O391 La369 2.482 . S
O391 C377 1.289 . S
O392 La368 2.470 . S
O392 C378 1.258 . S
O393 La369 2.503 . S
O393 C378 1.256 . S
O394 La369 2.521 . S
O394 C379 1.261 . S
O395 La369 2.628 . S
O395 C379 1.243 . S
O396 La369 2.554 . S
O396 C386 1.240 . S
O397 La368 2.482 . S
O397 La369 2.757 . S
O397 C386 1.289 . S
O398 La369 2.470 . S
O398 C387 1.258 . S
O399 La368 2.503 . S
O399 C387 1.256 . S
H400 C372 0.930 . S
H401 C373 0.930 . S
H402 C375 0.929 . S
H403 C376 0.929 . S
H404 C381 0.930 . S
H405 C382 0.930 . S
H406 C384 0.929 . S
H407 C385 0.929 . S
La408 C410 2.928 . S
La408 O428 2.521 . S
La408 O429 2.628 . S
La408 O430 2.554 . S
La408 O431 2.757 1_655 S
La408 O432 2.470 . S
La408 O437 2.482 . S
La408 O439 2.503 1_655 S
La409 C419 2.928 . S
La409 O431 2.482 . S
La409 O433 2.503 1_455 S
La409 O434 2.521 . S
La409 O435 2.628 . S
La409 O436 2.554 . S
La409 O437 2.757 1_455 S
La409 O438 2.470 . S
C410 La408 2.928 . S
C410 C411 1.503 . S
C410 O428 1.261 . S
C410 O429 1.243 . S
C411 C410 1.503 . S
C411 C412 1.394 . S
C411 C416 1.373 . S
C412 C411 1.394 . S
C412 C413 1.380 . S
C412 H440 0.930 . S
C413 C412 1.380 . S
C413 C414 1.376 . S
C413 H441 0.930 . S
C414 C413 1.376 . S
C414 C415 1.370 . S
C415 C414 1.370 . S
C415 C416 1.396 . S
C415 H442 0.929 . S
C416 C411 1.373 . S
C416 C415 1.396 . S
C416 H443 0.929 . S
C417 O430 1.277 . S
C417 O431 1.268 1_655 S
C418 O432 1.258 . S
C418 O433 1.256 . S
C419 La409 2.928 . S
C419 C420 1.503 . S
C419 O434 1.261 . S
C419 O435 1.243 . S
C420 C419 1.503 . S
C420 C421 1.394 . S
C420 C425 1.373 . S
C421 C420 1.394 . S
C421 C422 1.380 . S
C421 H444 0.930 . S
C422 C421 1.380 . S
C422 C423 1.376 . S
C422 H445 0.930 . S
C423 C422 1.376 . S
C423 C424 1.370 . S
C424 C423 1.370 . S
C424 C425 1.396 . S
C424 H446 0.929 . S
C425 C420 1.373 . S
C425 C424 1.396 . S
C425 H447 0.929 . S
C426 O436 1.240 . S
C426 O437 1.289 1_455 S
C427 O438 1.258 . S
C427 O439 1.256 . S
O428 La408 2.521 . S
O428 C410 1.261 . S
O429 La408 2.628 . S
O429 C410 1.243 . S
O430 La408 2.554 . S
O430 C417 1.277 . S
O431 La408 2.757 1_455 S
O431 La409 2.482 . S
O431 C417 1.268 1_455 S
O432 La408 2.470 . S
O432 C418 1.258 . S
O433 La409 2.503 1_655 S
O433 C418 1.256 . S
O434 La409 2.521 . S
O434 C419 1.261 . S
O435 La409 2.628 . S
O435 C419 1.243 . S
O436 La409 2.554 . S
O436 C426 1.240 . S
O437 La408 2.482 . S
O437 La409 2.757 1_655 S
O437 C426 1.289 1_655 S
O438 La409 2.470 . S
O438 C427 1.258 . S
O439 La408 2.503 1_455 S
O439 C427 1.256 . S
H440 C412 0.930 . S
H441 C413 0.930 . S
H442 C415 0.929 . S
H443 C416 0.929 . S
H444 C421 0.930 . S
H445 C422 0.930 . S
H446 C424 0.929 . S
H447 C425 0.929 . S
C448 C449 1.349 . S
C448 C450 1.327 . S
C448 H473 0.950 . S
C449 C448 1.349 . S
C449 C465 1.349 1_545 S
C450 C448 1.327 . S
C450 C469 1.429 . S
C450 H474 0.950 . S
C451 C468 1.574 . S
C451 C470 1.368 1_565 S
C451 H475 0.949 . S
H452 C456 0.949 . S
C453 C454 1.349 1_565 S
C453 C455 1.327 . S
C453 H476 0.950 . S
C454 C453 1.349 1_545 S
C454 C466 1.349 . S
C455 C453 1.327 . S
C455 C471 1.429 1_565 S
C455 H477 0.950 . S
C456 H452 0.949 . S
C456 C464 1.574 . S
C456 C472 1.368 . S
H457 C465 0.950 . S
H458 C463 0.950 . S
H459 C464 0.949 . S
H460 C466 0.950 . S
H461 C467 0.950 . S
H462 C468 0.949 . S
C463 H458 0.950 . S
C463 C465 1.327 . S
C463 C469 1.429 1_565 S
C464 C456 1.574 . S
C464 H459 0.949 . S
C464 C470 1.368 . S
C465 C449 1.349 1_565 S
C465 H457 0.950 . S
C465 C463 1.327 . S
C466 C454 1.349 . S
C466 H460 0.950 . S
C466 C467 1.327 . S
C467 H461 0.950 . S
C467 C466 1.327 . S
C467 C471 1.429 . S
C468 C451 1.574 . S
C468 H462 0.949 . S
C468 C472 1.368 1_565 S
C469 C450 1.429 . S
C469 C463 1.429 1_545 S
C469 C470 1.523 . S
C470 C451 1.368 1_545 S
C470 C464 1.368 . S
C470 C469 1.523 . S
C471 C455 1.429 1_545 S
C471 C467 1.429 . S
C471 C472 1.523 . S
C472 C456 1.368 . S
C472 C468 1.368 1_545 S
C472 C471 1.523 . S
H473 C448 0.950 . S
H474 C450 0.950 . S
H475 C451 0.949 . S
H476 C453 0.950 . S
H477 C455 0.950 . S
C478 C479 1.349 . S
C478 C480 1.327 . S
C478 H503 0.950 . S
C479 C478 1.349 . S
C479 C495 1.349 . S
C480 C478 1.327 . S
C480 C499 1.429 . S
C480 H504 0.950 . S
C481 C498 1.574 . S
C481 C500 1.368 . S
C481 H505 0.949 . S
H482 C486 0.949 . S
C483 C484 1.349 . S
C483 C485 1.327 . S
C483 H506 0.950 . S
C484 C483 1.349 . S
C484 C496 1.349 . S
C485 C483 1.327 . S
C485 C501 1.429 . S
C485 H507 0.950 . S
C486 H482 0.949 . S
C486 C494 1.574 . S
C486 C502 1.368 . S
H487 C495 0.950 . S
H488 C493 0.950 . S
H489 C494 0.949 . S
H490 C496 0.950 . S
H491 C497 0.950 . S
H492 C498 0.949 . S
C493 H488 0.950 . S
C493 C495 1.327 . S
C493 C499 1.429 . S
C494 C486 1.574 . S
C494 H489 0.949 . S
C494 C500 1.368 . S
C495 C479 1.349 . S
C495 H487 0.950 . S
C495 C493 1.327 . S
C496 C484 1.349 . S
C496 H490 0.950 . S
C496 C497 1.327 . S
C497 H491 0.950 . S
C497 C496 1.327 . S
C497 C501 1.429 . S
C498 C481 1.574 . S
C498 H492 0.949 . S
C498 C502 1.368 . S
C499 C480 1.429 . S
C499 C493 1.429 . S
C499 C500 1.523 . S
C500 C481 1.368 . S
C500 C494 1.368 . S
C500 C499 1.523 . S
C501 C485 1.429 . S
C501 C497 1.429 . S
C501 C502 1.523 . S
C502 C486 1.368 . S
C502 C498 1.368 . S
C502 C501 1.523 . S
H503 C478 0.950 . S
H504 C480 0.950 . S
H505 C481 0.949 . S
H506 C483 0.950 . S
H507 C485 0.950 . S
C508 C509 1.349 . S
C508 C510 1.327 . S
C508 H533 0.950 . S
C509 C508 1.349 . S
C509 C525 1.349 . S
C510 C508 1.327 . S
C510 C529 1.429 . S
C510 H534 0.950 . S
C511 C528 1.574 . S
C511 C530 1.368 . S
C511 H535 0.949 . S
H512 C516 0.949 . S
C513 C514 1.349 . S
C513 C515 1.327 . S
C513 H536 0.950 . S
C514 C513 1.349 . S
C514 C526 1.349 . S
C515 C513 1.327 . S
C515 C531 1.429 . S
C515 H537 0.950 . S
C516 H512 0.949 . S
C516 C524 1.574 . S
C516 C532 1.368 . S
H517 C525 0.950 . S
H518 C523 0.950 . S
H519 C524 0.949 . S
H520 C526 0.950 . S
H521 C527 0.950 . S
H522 C528 0.949 . S
C523 H518 0.950 . S
C523 C525 1.327 . S
C523 C529 1.429 . S
C524 C516 1.574 . S
C524 H519 0.949 . S
C524 C530 1.368 . S
C525 C509 1.349 . S
C525 H517 0.950 . S
C525 C523 1.327 . S
C526 C514 1.349 . S
C526 H520 0.950 . S
C526 C527 1.327 . S
C527 H521 0.950 . S
C527 C526 1.327 . S
C527 C531 1.429 . S
C528 C511 1.574 . S
C528 H522 0.949 . S
C528 C532 1.368 . S
C529 C510 1.429 . S
C529 C523 1.429 . S
C529 C530 1.523 . S
C530 C511 1.368 . S
C530 C524 1.368 . S
C530 C529 1.523 . S
C531 C515 1.429 . S
C531 C527 1.429 . S
C531 C532 1.523 . S
C532 C516 1.368 . S
C532 C528 1.368 . S
C532 C531 1.523 . S
H533 C508 0.950 . S
H534 C510 0.950 . S
H535 C511 0.949 . S
H536 C513 0.950 . S
H537 C515 0.950 . S
C538 C539 1.353 . S
C538 C540 1.327 . S
C538 H563 0.950 . S
C539 C538 1.353 . S
C539 C555 1.344 1_455 S
C540 C538 1.327 . S
C540 C559 1.444 . S
C540 H564 0.950 . S
C541 C558 1.574 . S
C541 C560 1.346 1_655 S
C541 H565 0.949 . S
H542 C546 0.949 . S
C543 C544 1.300 1_655 S
C543 C545 1.327 . S
C543 H566 0.950 . S
C544 C543 1.300 1_455 S
C544 C556 1.399 . S
C545 C543 1.327 . S
C545 C561 1.392 1_655 S
C545 H567 0.950 . S
C546 H542 0.949 . S
C546 C554 1.574 . S
C546 C562 1.403 . S
H547 C555 0.950 . S
H548 C553 0.950 . S
H549 C554 0.949 . S
H550 C556 0.950 . S
H551 C557 0.950 . S
H552 C558 0.949 . S
C553 H548 0.950 . S
C553 C555 1.327 . S
C553 C559 1.414 1_655 S
C554 C546 1.574 . S
C554 H549 0.949 . S
C554 C560 1.391 . S
C555 C539 1.344 1_655 S
C555 H547 0.950 . S
C555 C553 1.327 . S
C556 C544 1.399 . S
C556 H550 0.950 . S
C556 C557 1.327 . S
C557 H551 0.950 . S
C557 C556 1.327 . S
C557 C561 1.466 . S
C558 C541 1.574 . S
C558 H552 0.949 . S
C558 C562 1.334 1_655 S
C559 C540 1.444 . S
C559 C553 1.414 1_455 S
C559 C560 1.523 . S
C560 C541 1.346 1_455 S
C560 C554 1.391 . S
C560 C559 1.523 . S
C561 C545 1.392 1_455 S
C561 C557 1.466 . S
C561 C562 1.523 . S
C562 C546 1.403 . S
C562 C558 1.334 1_455 S
C562 C561 1.523 . S
H563 C538 0.950 . S
H564 C540 0.950 . S
H565 C541 0.949 . S
H566 C543 0.950 . S
H567 C545 0.950 . S
C568 C569 1.349 . S
C568 C570 1.327 . S
C568 H593 0.950 . S
C569 C568 1.349 . S
C569 C585 1.349 1_565 S
C570 C568 1.327 . S
C570 C589 1.429 . S
C570 H594 0.950 . S
C571 C588 1.574 1_554 S
C571 C590 1.368 1_545 S
C571 H595 0.949 . S
H572 C576 0.949 . S
C573 C574 1.349 1_545 S
C573 C575 1.327 . S
C573 H596 0.950 . S
C574 C573 1.349 1_565 S
C574 C586 1.349 . S
C575 C573 1.327 . S
C575 C591 1.429 1_545 S
C575 H597 0.950 . S
C576 H572 0.949 . S
C576 C584 1.574 . S
C576 C592 1.368 . S
H577 C585 0.950 . S
H578 C583 0.950 . S
H579 C584 0.949 1_554 S
H580 C586 0.950 . S
H581 C587 0.950 . S
H582 C588 0.949 . S
C583 H578 0.950 . S
C583 C585 1.327 . S
C583 C589 1.429 1_545 S
C584 C576 1.574 . S
C584 H579 0.949 1_556 S
C584 C590 1.368 1_556 S
C585 C569 1.349 1_545 S
C585 H577 0.950 . S
C585 C583 1.327 . S
C586 C574 1.349 . S
C586 H580 0.950 . S
C586 C587 1.327 . S
C587 H581 0.950 . S
C587 C586 1.327 . S
C587 C591 1.429 . S
C588 C571 1.574 1_556 S
C588 H582 0.949 . S
C588 C592 1.368 1_545 S
C589 C570 1.429 . S
C589 C583 1.429 1_565 S
C589 C590 1.523 . S
C590 C571 1.368 1_565 S
C590 C584 1.368 1_554 S
C590 C589 1.523 . S
C591 C575 1.429 1_565 S
C591 C587 1.429 . S
C591 C592 1.523 . S
C592 C576 1.368 . S
C592 C588 1.368 1_565 S
C592 C591 1.523 . S
H593 C568 0.950 . S
H594 C570 0.950 . S
H595 C571 0.949 . S
H596 C573 0.950 . S
H597 C575 0.950 . S
C598 C599 1.349 . S
C598 C600 1.327 . S
C598 H623 0.950 . S
C599 C598 1.349 . S
C599 C615 1.349 . S
C600 C598 1.327 . S
C600 C619 1.429 . S
C600 H624 0.950 . S
C601 C618 1.574 1_554 S
C601 C620 1.368 . S
C601 H625 0.949 . S
H602 C606 0.949 . S
C603 C604 1.349 . S
C603 C605 1.327 . S
C603 H626 0.950 . S
C604 C603 1.349 . S
C604 C616 1.349 . S
C605 C603 1.327 . S
C605 C621 1.429 . S
C605 H627 0.950 . S
C606 H602 0.949 . S
C606 C614 1.574 . S
C606 C622 1.368 . S
H607 C615 0.950 . S
H608 C613 0.950 . S
H609 C614 0.949 . S
H610 C616 0.950 . S
H611 C617 0.950 . S
H612 C618 0.949 . S
C613 H608 0.950 . S
C613 C615 1.327 . S
C613 C619 1.429 . S
C614 C606 1.574 . S
C614 H609 0.949 . S
C614 C620 1.368 1_556 S
C615 C599 1.349 . S
C615 H607 0.950 . S
C615 C613 1.327 . S
C616 C604 1.349 . S
C616 H610 0.950 . S
C616 C617 1.327 . S
C617 H611 0.950 . S
C617 C616 1.327 . S
C617 C621 1.429 . S
C618 C601 1.574 1_556 S
C618 H612 0.949 . S
C618 C622 1.368 . S
C619 C600 1.429 . S
C619 C613 1.429 . S
C619 C620 1.523 . S
C620 C601 1.368 . S
C620 C614 1.368 1_554 S
C620 C619 1.523 . S
C621 C605 1.429 . S
C621 C617 1.429 . S
C621 C622 1.523 . S
C622 C606 1.368 . S
C622 C618 1.368 . S
C622 C621 1.523 . S
H623 C598 0.950 . S
H624 C600 0.950 . S
H625 C601 0.949 . S
H626 C603 0.950 . S
H627 C605 0.950 . S
C628 C629 1.349 . S
C628 C630 1.327 . S
C628 H653 0.950 . S
C629 C628 1.349 . S
C629 C645 1.349 . S
C630 C628 1.327 . S
C630 C649 1.429 . S
C630 H654 0.950 . S
C631 C648 1.574 . S
C631 C650 1.368 1_556 S
C631 H655 0.949 1_556 S
H632 C636 0.949 . S
C633 C634 1.349 . S
C633 C635 1.327 . S
C633 H656 0.950 . S
C634 C633 1.349 . S
C634 C646 1.349 . S
C635 C633 1.327 . S
C635 C651 1.429 . S
C635 H657 0.950 . S
C636 H632 0.949 . S
C636 C644 1.574 1_556 S
C636 C652 1.368 . S
H637 C645 0.950 . S
H638 C643 0.950 . S
H639 C644 0.949 . S
H640 C646 0.950 . S
H641 C647 0.950 . S
H642 C648 0.949 . S
C643 H638 0.950 . S
C643 C645 1.327 . S
C643 C649 1.429 . S
C644 C636 1.574 1_554 S
C644 H639 0.949 . S
C644 C650 1.368 . S
C645 C629 1.349 . S
C645 H637 0.950 . S
C645 C643 1.327 . S
C646 C634 1.349 . S
C646 H640 0.950 . S
C646 C647 1.327 . S
C647 H641 0.950 . S
C647 C646 1.327 . S
C647 C651 1.429 . S
C648 C631 1.574 . S
C648 H642 0.949 . S
C648 C652 1.368 . S
C649 C630 1.429 . S
C649 C643 1.429 . S
C649 C650 1.523 . S
C650 C631 1.368 1_554 S
C650 C644 1.368 . S
C650 C649 1.523 . S
C651 C635 1.429 . S
C651 C647 1.429 . S
C651 C652 1.523 . S
C652 C636 1.368 . S
C652 C648 1.368 . S
C652 C651 1.523 . S
H653 C628 0.950 . S
H654 C630 0.950 . S
H655 C631 0.949 1_554 S
H656 C633 0.950 . S
H657 C635 0.950 . S
C658 C659 1.347 1_455 S
C658 C660 1.327 . S
C658 H683 0.950 . S
C659 C658 1.347 1_655 S
C659 C675 1.350 . S
C660 C658 1.327 . S
C660 C679 1.424 1_455 S
C660 H684 0.950 . S
C661 C678 1.574 1_554 S
C661 C680 1.376 . S
C661 H685 0.949 . S
H662 C666 0.949 . S
C663 C664 1.365 . S
C663 C665 1.327 . S
C663 H686 0.950 . S
C664 C663 1.365 . S
C664 C676 1.335 1_655 S
C665 C663 1.327 . S
C665 C681 1.441 . S
C665 H687 0.950 . S
C666 H662 0.949 . S
C666 C674 1.574 . S
C666 C682 1.359 1_455 S
H667 C675 0.950 . S
H668 C673 0.950 . S
H669 C674 0.949 . S
H670 C676 0.950 . S
H671 C677 0.950 . S
H672 C678 0.949 . S
C673 H668 0.950 . S
C673 C675 1.327 . S
C673 C679 1.433 . S
C674 C666 1.574 . S
C674 H669 0.949 . S
C674 C680 1.362 1_456 S
C675 C659 1.350 . S
C675 H667 0.950 . S
C675 C673 1.327 . S
C676 C664 1.335 1_455 S
C676 H670 0.950 . S
C676 C677 1.327 . S
C677 H671 0.950 . S
C677 C676 1.327 . S
C677 C681 1.418 1_455 S
C678 C661 1.574 1_556 S
C678 H672 0.949 . S
C678 C682 1.379 . S
C679 C660 1.424 1_655 S
C679 C673 1.433 . S
C679 C680 1.523 . S
C680 C661 1.376 . S
C680 C674 1.362 1_654 S
C680 C679 1.523 . S
C681 C665 1.441 . S
C681 C677 1.418 1_655 S
C681 C682 1.523 . S
C682 C666 1.359 1_655 S
C682 C678 1.379 . S
C682 C681 1.523 . S
H683 C658 0.950 . S
H684 C660 0.950 . S
H685 C661 0.949 . S
H686 C663 0.950 . S
H687 C665 0.950 . S
C688 C689 1.349 1_655 S
C688 C690 1.327 . S
C688 H713 0.950 . S
C689 C688 1.349 1_455 S
C689 C705 1.349 . S
C690 C688 1.327 . S
C690 C709 1.429 . S
C690 H714 0.950 . S
C691 C708 1.574 1_455 S
C691 C710 1.368 1_455 S
C691 H715 0.949 . S
H692 C696 0.949 . S
C693 C694 1.349 . S
C693 C695 1.327 . S
C693 H716 0.950 . S
C694 C693 1.349 . S
C694 C706 1.349 . S
C695 C693 1.327 . S
C695 C711 1.429 . S
C695 H717 0.950 . S
C696 H692 0.949 . S
C696 C704 1.574 . S
C696 C712 1.368 . S
H697 C705 0.950 . S
H698 C703 0.950 . S
H699 C704 0.949 . S
H700 C706 0.950 . S
H701 C707 0.950 . S
H702 C708 0.949 1_455 S
C703 H698 0.950 . S
C703 C705 1.327 . S
C703 C709 1.429 1_455 S
C704 C696 1.574 . S
C704 H699 0.949 . S
C704 C710 1.368 . S
C705 C689 1.349 . S
C705 H697 0.950 . S
C705 C703 1.327 . S
C706 C694 1.349 . S
C706 H700 0.950 . S
C706 C707 1.327 . S
C707 H701 0.950 . S
C707 C706 1.327 . S
C707 C711 1.429 . S
C708 C691 1.574 1_655 S
C708 H702 0.949 1_655 S
C708 C712 1.368 . S
C709 C690 1.429 . S
C709 C703 1.429 1_655 S
C709 C710 1.523 . S
C710 C691 1.368 1_655 S
C710 C704 1.368 . S
C710 C709 1.523 . S
C711 C695 1.429 . S
C711 C707 1.429 . S
C711 C712 1.523 . S
C712 C696 1.368 . S
C712 C708 1.368 . S
C712 C711 1.523 . S
H713 C688 0.950 . S
H714 C690 0.950 . S
H715 C691 0.949 . S
H716 C693 0.950 . S
H717 C695 0.950 . S
C718 C719 1.349 . S
C718 C720 1.327 . S
C718 H743 0.950 . S
C719 C718 1.349 . S
C719 C735 1.349 1_545 S
C720 C718 1.327 . S
C720 C739 1.429 1_545 S
C720 H744 0.950 . S
C721 C738 1.574 . S
C721 C740 1.368 . S
C721 H745 0.949 . S
H722 C726 0.949 . S
C723 C724 1.349 . S
C723 C725 1.327 . S
C723 H746 0.950 . S
C724 C723 1.349 . S
C724 C736 1.349 . S
C725 C723 1.327 . S
C725 C741 1.429 . S
C725 H747 0.950 . S
C726 H722 0.949 . S
C726 C734 1.574 . S
C726 C742 1.368 1_545 S
H727 C735 0.950 . S
H728 C733 0.950 . S
H729 C734 0.949 . S
H730 C736 0.950 . S
H731 C737 0.950 1_545 S
H732 C738 0.949 . S
C733 H728 0.950 . S
C733 C735 1.327 . S
C733 C739 1.429 . S
C734 C726 1.574 . S
C734 H729 0.949 . S
C734 C740 1.368 1_545 S
C735 C719 1.349 1_565 S
C735 H727 0.950 . S
C735 C733 1.327 . S
C736 C724 1.349 . S
C736 H730 0.950 . S
C736 C737 1.327 . S
C737 H731 0.950 1_565 S
C737 C736 1.327 . S
C737 C741 1.429 . S
C738 C721 1.574 . S
C738 H732 0.949 . S
C738 C742 1.368 . S
C739 C720 1.429 1_565 S
C739 C733 1.429 . S
C739 C740 1.523 . S
C740 C721 1.368 . S
C740 C734 1.368 1_565 S
C740 C739 1.523 . S
C741 C725 1.429 . S
C741 C737 1.429 . S
C741 C742 1.523 . S
C742 C726 1.368 1_565 S
C742 C738 1.368 . S
C742 C741 1.523 . S
H743 C718 0.950 . S
H744 C720 0.950 . S
H745 C721 0.949 . S
H746 C723 0.950 . S
H747 C725 0.950 . S
C748 C749 1.349 . S
C748 C750 1.327 . S
C748 H773 0.950 . S
C749 C748 1.349 . S
C749 C765 1.349 . S
C750 C748 1.327 . S
C750 C769 1.429 . S
C750 H774 0.950 . S
C751 C768 1.574 . S
C751 C770 1.368 . S
C751 H775 0.949 . S
H752 C756 0.949 . S
C753 C754 1.349 . S
C753 C755 1.327 . S
C753 H776 0.950 . S
C754 C753 1.349 . S
C754 C766 1.349 . S
C755 C753 1.327 . S
C755 C771 1.429 . S
C755 H777 0.950 . S
C756 H752 0.949 . S
C756 C764 1.574 . S
C756 C772 1.368 . S
H757 C765 0.950 . S
H758 C763 0.950 . S
H759 C764 0.949 . S
H760 C766 0.950 . S
H761 C767 0.950 . S
H762 C768 0.949 . S
C763 H758 0.950 . S
C763 C765 1.327 . S
C763 C769 1.429 . S
C764 C756 1.574 . S
C764 H759 0.949 . S
C764 C770 1.368 . S
C765 C749 1.349 . S
C765 H757 0.950 . S
C765 C763 1.327 . S
C766 C754 1.349 . S
C766 H760 0.950 . S
C766 C767 1.327 . S
C767 H761 0.950 . S
C767 C766 1.327 . S
C767 C771 1.429 . S
C768 C751 1.574 . S
C768 H762 0.949 . S
C768 C772 1.368 . S
C769 C750 1.429 . S
C769 C763 1.429 . S
C769 C770 1.523 . S
C770 C751 1.368 . S
C770 C764 1.368 . S
C770 C769 1.523 . S
C771 C755 1.429 . S
C771 C767 1.429 . S
C771 C772 1.523 . S
C772 C756 1.368 . S
C772 C768 1.368 . S
C772 C771 1.523 . S
H773 C748 0.950 . S
H774 C750 0.950 . S
H775 C751 0.949 . S
H776 C753 0.950 . S
H777 C755 0.950 . S
C778 C779 1.349 . S
C778 C780 1.327 . S
C778 H803 0.950 . S
C779 C778 1.349 . S
C779 C795 1.349 . S
C780 C778 1.327 . S
C780 C799 1.429 . S
C780 H804 0.950 . S
C781 C798 1.574 . S
C781 C800 1.368 . S
C781 H805 0.949 . S
H782 C786 0.949 . S
C783 C784 1.349 . S
C783 C785 1.327 . S
C783 H806 0.950 . S
C784 C783 1.349 . S
C784 C796 1.349 . S
C785 C783 1.327 . S
C785 C801 1.429 . S
C785 H807 0.950 . S
C786 H782 0.949 . S
C786 C794 1.574 . S
C786 C802 1.368 . S
H787 C795 0.950 . S
H788 C793 0.950 . S
H789 C794 0.949 . S
H790 C796 0.950 . S
H791 C797 0.950 . S
H792 C798 0.949 . S
C793 H788 0.950 . S
C793 C795 1.327 . S
C793 C799 1.429 . S
C794 C786 1.574 . S
C794 H789 0.949 . S
C794 C800 1.368 . S
C795 C779 1.349 . S
C795 H787 0.950 . S
C795 C793 1.327 . S
C796 C784 1.349 . S
C796 H790 0.950 . S
C796 C797 1.327 . S
C797 H791 0.950 . S
C797 C796 1.327 . S
C797 C801 1.429 . S
C798 C781 1.574 . S
C798 H792 0.949 . S
C798 C802 1.368 . S
C799 C780 1.429 . S
C799 C793 1.429 . S
C799 C800 1.523 . S
C800 C781 1.368 . S
C800 C794 1.368 . S
C800 C799 1.523 . S
C801 C785 1.429 . S
C801 C797 1.429 . S
C801 C802 1.523 . S
C802 C786 1.368 . S
C802 C798 1.368 . S
C802 C801 1.523 . S
H803 C778 0.950 . S
H804 C780 0.950 . S
H805 C781 0.949 . S
H806 C783 0.950 . S
H807 C785 0.950 . S
C808 C809 1.349 . S
C808 C810 1.327 . S
C808 H833 0.950 . S
C809 C808 1.349 . S
C809 C825 1.349 1_655 S
C810 C808 1.327 . S
C810 C829 1.429 1_655 S
C810 H834 0.950 1_554 S
C811 C828 1.574 . S
C811 C830 1.368 . S
C811 H835 0.949 . S
H812 C816 0.949 . S
C813 C814 1.349 . S
C813 C815 1.327 . S
C813 H836 0.950 . S
C814 C813 1.349 . S
C814 C826 1.349 . S
C815 C813 1.327 . S
C815 C831 1.429 . S
C815 H837 0.950 . S
C816 H812 0.949 . S
C816 C824 1.574 . S
C816 C832 1.368 . S
H817 C825 0.950 . S
H818 C823 0.950 . S
H819 C824 0.949 1_655 S
H820 C826 0.950 . S
H821 C827 0.950 . S
H822 C828 0.949 . S
C823 H818 0.950 . S
C823 C825 1.327 . S
C823 C829 1.429 . S
C824 C816 1.574 . S
C824 H819 0.949 1_455 S
C824 C830 1.368 1_556 S
C825 C809 1.349 1_455 S
C825 H817 0.950 . S
C825 C823 1.327 . S
C826 C814 1.349 . S
C826 H820 0.950 . S
C826 C827 1.327 . S
C827 H821 0.950 . S
C827 C826 1.327 . S
C827 C831 1.429 . S
C828 C811 1.574 . S
C828 H822 0.949 . S
C828 C832 1.368 1_554 S
C829 C810 1.429 1_455 S
C829 C823 1.429 . S
C829 C830 1.523 . S
C830 C811 1.368 . S
C830 C824 1.368 1_554 S
C830 C829 1.523 . S
C831 C815 1.429 . S
C831 C827 1.429 . S
C831 C832 1.523 . S
C832 C816 1.368 . S
C832 C828 1.368 1_556 S
C832 C831 1.523 . S
H833 C808 0.950 . S
H834 C810 0.950 1_556 S
H835 C811 0.949 . S
H836 C813 0.950 . S
H837 C815 0.950 . S
C838 C839 1.349 1_545 S
C838 C840 1.327 . S
C838 H863 0.950 . S
C839 C838 1.349 1_565 S
C839 C855 1.349 . S
C840 C838 1.327 . S
C840 C859 1.429 . S
C840 H864 0.950 . S
C841 C858 1.574 1_554 S
C841 C860 1.368 1_565 S
C841 H865 0.949 . S
H842 C846 0.949 . S
C843 C844 1.349 . S
C843 C845 1.327 . S
C843 H866 0.950 . S
C844 C843 1.349 . S
C844 C856 1.349 . S
C845 C843 1.327 . S
C845 C861 1.429 . S
C845 H867 0.950 1_545 S
C846 H842 0.949 . S
C846 C854 1.574 . S
C846 C862 1.368 . S
H847 C855 0.950 . S
H848 C853 0.950 . S
H849 C854 0.949 1_554 S
H850 C856 0.950 . S
H851 C857 0.950 . S
H852 C858 0.949 . S
C853 H848 0.950 . S
C853 C855 1.327 . S
C853 C859 1.429 1_565 S
C854 C846 1.574 . S
C854 H849 0.949 1_556 S
C854 C860 1.368 1_556 S
C855 C839 1.349 . S
C855 H847 0.950 . S
C855 C853 1.327 . S
C856 C844 1.349 . S
C856 H850 0.950 . S
C856 C857 1.327 . S
C857 H851 0.950 . S
C857 C856 1.327 . S
C857 C861 1.429 . S
C858 C841 1.574 1_556 S
C858 H852 0.949 . S
C858 C862 1.368 1_565 S
C859 C840 1.429 . S
C859 C853 1.429 1_545 S
C859 C860 1.523 . S
C860 C841 1.368 1_545 S
C860 C854 1.368 1_554 S
C860 C859 1.523 . S
C861 C845 1.429 . S
C861 C857 1.429 . S
C861 C862 1.523 . S
C862 C846 1.368 . S
C862 C858 1.368 1_545 S
C862 C861 1.523 . S
H863 C838 0.950 . S
H864 C840 0.950 . S
H865 C841 0.949 . S
H866 C843 0.950 . S
H867 C845 0.950 1_565 S
C868 C869 1.349 . S
C868 C870 1.327 . S
C868 H893 0.950 . S
C869 C868 1.349 . S
C869 C885 1.349 . S
C870 C868 1.327 . S
C870 C889 1.429 . S
C870 H894 0.950 1_554 S
C871 C888 1.574 . S
C871 C890 1.368 . S
C871 H895 0.949 . S
H872 C876 0.949 . S
C873 C874 1.349 . S
C873 C875 1.327 . S
C873 H896 0.950 . S
C874 C873 1.349 . S
C874 C886 1.349 . S
C875 C873 1.327 . S
C875 C891 1.429 . S
C875 H897 0.950 . S
C876 H872 0.949 . S
C876 C884 1.574 . S
C876 C892 1.368 . S
H877 C885 0.950 . S
H878 C883 0.950 . S
H879 C884 0.949 . S
H880 C886 0.950 . S
H881 C887 0.950 . S
H882 C888 0.949 . S
C883 H878 0.950 . S
C883 C885 1.327 . S
C883 C889 1.429 . S
C884 C876 1.574 . S
C884 H879 0.949 . S
C884 C890 1.368 1_556 S
C885 C869 1.349 . S
C885 H877 0.950 . S
C885 C883 1.327 . S
C886 C874 1.349 . S
C886 H880 0.950 . S
C886 C887 1.327 . S
C887 H881 0.950 . S
C887 C886 1.327 . S
C887 C891 1.429 . S
C888 C871 1.574 . S
C888 H882 0.949 . S
C888 C892 1.368 1_554 S
C889 C870 1.429 . S
C889 C883 1.429 . S
C889 C890 1.523 . S
C890 C871 1.368 . S
C890 C884 1.368 1_554 S
C890 C889 1.523 . S
C891 C875 1.429 . S
C891 C887 1.429 . S
C891 C892 1.523 . S
C892 C876 1.368 . S
C892 C888 1.368 1_556 S
C892 C891 1.523 . S
H893 C868 0.950 . S
H894 C870 0.950 1_556 S
H895 C871 0.949 . S
H896 C873 0.950 . S
H897 C875 0.950 . S
C898 C899 1.349 . S
C898 C900 1.327 . S
C898 H923 0.950 . S
C899 C898 1.349 . S
C899 C915 1.349 . S
C900 C898 1.327 . S
C900 C919 1.429 . S
C900 H924 0.950 . S
C901 C918 1.574 . S
C901 C920 1.368 1_556 S
C901 H925 0.949 . S
H902 C906 0.949 . S
C903 C904 1.349 . S
C903 C905 1.327 . S
C903 H926 0.950 . S
C904 C903 1.349 . S
C904 C916 1.349 . S
C905 C903 1.327 . S
C905 C921 1.429 . S
C905 H927 0.950 . S
C906 H902 0.949 . S
C906 C914 1.574 . S
C906 C922 1.368 1_554 S
H907 C915 0.950 . S
H908 C913 0.950 1_556 S
H909 C914 0.949 . S
H910 C916 0.950 . S
H911 C917 0.950 . S
H912 C918 0.949 . S
C913 H908 0.950 1_554 S
C913 C915 1.327 . S
C913 C919 1.429 . S
C914 C906 1.574 . S
C914 H909 0.949 . S
C914 C920 1.368 . S
C915 C899 1.349 . S
C915 H907 0.950 . S
C915 C913 1.327 . S
C916 C904 1.349 . S
C916 H910 0.950 . S
C916 C917 1.327 . S
C917 H911 0.950 . S
C917 C916 1.327 . S
C917 C921 1.429 . S
C918 C901 1.574 . S
C918 H912 0.949 . S
C918 C922 1.368 . S
C919 C900 1.429 . S
C919 C913 1.429 . S
C919 C920 1.523 . S
C920 C901 1.368 1_554 S
C920 C914 1.368 . S
C920 C919 1.523 . S
C921 C905 1.429 . S
C921 C917 1.429 . S
C921 C922 1.523 . S
C922 C906 1.368 1_556 S
C922 C918 1.368 . S
C922 C921 1.523 . S
H923 C898 0.950 . S
H924 C900 0.950 . S
H925 C901 0.949 . S
H926 C903 0.950 . S
H927 C905 0.950 . S
C928 C929 1.349 1_655 S
C928 C930 1.327 . S
C928 H953 0.950 . S
C929 C928 1.349 1_455 S
C929 C945 1.349 . S
C930 C928 1.327 . S
C930 C949 1.429 1_655 S
C930 H954 0.950 . S
C931 C948 1.574 . S
C931 C950 1.368 . S
C931 H955 0.949 . S
H932 C936 0.949 . S
C933 C934 1.349 . S
C933 C935 1.327 . S
C933 H956 0.950 . S
C934 C933 1.349 . S
C934 C946 1.365 . S
C935 C933 1.327 . S
C935 C951 1.429 . S
C935 H957 0.950 . S
C936 H932 0.949 . S
C936 C944 1.574 . S
C936 C952 1.368 1_655 S
H937 C945 0.950 . S
H938 C943 0.950 . S
H939 C944 0.949 . S
H940 C946 0.937 1_655 S
H941 C947 0.961 . S
H942 C948 0.949 . S
C943 H938 0.950 . S
C943 C945 1.327 . S
C943 C949 1.429 . S
C944 C936 1.574 . S
C944 H939 0.949 . S
C944 C950 1.368 1_655 S
C945 C929 1.349 . S
C945 H937 0.950 . S
C945 C943 1.327 . S
C946 C934 1.365 . S
C946 H940 0.937 1_455 S
C946 C947 1.325 1_455 S
C947 H941 0.961 . S
C947 C946 1.325 1_655 S
C947 C951 1.419 1_655 S
C948 C931 1.574 . S
C948 H942 0.949 . S
C948 C952 1.368 . S
C949 C930 1.429 1_455 S
C949 C943 1.429 . S
C949 C950 1.523 . S
C950 C931 1.368 . S
C950 C944 1.368 1_455 S
C950 C949 1.523 . S
C951 C935 1.429 . S
C951 C947 1.419 1_455 S
C951 C952 1.523 . S
C952 C936 1.368 1_455 S
C952 C948 1.368 . S
C952 C951 1.523 . S
H953 C928 0.950 . S
H954 C930 0.950 . S
H955 C931 0.949 . S
H956 C933 0.950 . S
H957 C935 0.950 . S
C958 C959 1.349 . S
C958 C960 1.327 . S
C958 H983 0.950 . S
C959 C958 1.349 . S
C959 C975 1.349 1_545 S
C960 C958 1.327 . S
C960 C979 1.429 . S
C960 H984 0.950 . S
C961 C978 1.577 . S
C961 C980 1.368 1_565 S
C961 H985 0.949 . S
H962 C966 0.949 . S
C963 C964 1.349 . S
C963 C965 1.329 . S
C963 H986 0.950 1_545 S
C964 C963 1.349 . S
C964 C976 1.349 . S
C965 C963 1.329 . S
C965 C981 1.446 . S
C965 H987 0.931 1_545 S
C966 H962 0.949 . S
C966 C974 1.574 . S
C966 C982 1.368 . S
H967 C975 0.950 . S
H968 C973 0.950 . S
H969 C974 0.949 . S
H970 C976 0.950 . S
H971 C977 0.950 . S
H972 C978 0.979 . S
C973 H968 0.950 . S
C973 C975 1.327 . S
C973 C979 1.429 1_565 S
C974 C966 1.574 . S
C974 H969 0.949 . S
C974 C980 1.368 . S
C975 C959 1.349 1_565 S
C975 H967 0.950 . S
C975 C973 1.327 . S
C976 C964 1.349 . S
C976 H970 0.950 . S
C976 C977 1.327 . S
C977 H971 0.950 . S
C977 C976 1.327 . S
C977 C981 1.429 . S
C978 C961 1.577 . S
C978 H972 0.979 . S
C978 C982 1.337 1_565 S
C979 C960 1.429 . S
C979 C973 1.429 1_545 S
C979 C980 1.523 . S
C980 C961 1.368 1_545 S
C980 C974 1.368 . S
C980 C979 1.523 . S
C981 C965 1.446 . S
C981 C977 1.429 . S
C981 C982 1.523 . S
C982 C966 1.368 . S
C982 C978 1.337 1_545 S
C982 C981 1.523 . S
H983 C958 0.950 . S
H984 C960 0.950 . S
H985 C961 0.949 . S
H986 C963 0.950 1_565 S
H987 C965 0.931 1_565 S
C988 C989 1.349 . S
C988 C990 1.327 . S
C988 H1013 0.950 . S
C989 C988 1.349 . S
C989 C1005 1.349 . S
C990 C988 1.327 . S
C990 C1009 1.429 . S
C990 H1014 0.950 . S
C991 C1008 1.574 . S
C991 C1010 1.368 . S
C991 H1015 0.949 . S
H992 C996 0.949 . S
C993 C994 1.349 . S
C993 C995 1.327 . S
C993 H1016 0.950 . S
C994 C993 1.349 . S
C994 C1006 1.349 . S
C995 C993 1.327 . S
C995 C1011 1.429 . S
C995 H1017 0.950 . S
C996 H992 0.949 . S
C996 C1004 1.574 . S
C996 C1012 1.368 . S
H997 C1005 0.950 . S
H998 C1003 0.950 . S
H999 C1004 0.949 . S
H1000 C1006 0.950 . S
H1001 C1007 0.950 . S
H1002 C1008 0.949 . S
C1003 H998 0.950 . S
C1003 C1005 1.327 . S
C1003 C1009 1.429 . S
C1004 C996 1.574 . S
C1004 H999 0.949 . S
C1004 C1010 1.368 . S
C1005 C989 1.349 . S
C1005 H997 0.950 . S
C1005 C1003 1.327 . S
C1006 C994 1.349 . S
C1006 H1000 0.950 . S
C1006 C1007 1.327 . S
C1007 H1001 0.950 . S
C1007 C1006 1.327 . S
C1007 C1011 1.429 . S
C1008 C991 1.574 . S
C1008 H1002 0.949 . S
C1008 C1012 1.368 . S
C1009 C990 1.429 . S
C1009 C1003 1.429 . S
C1009 C1010 1.523 . S
C1010 C991 1.368 . S
C1010 C1004 1.368 . S
C1010 C1009 1.523 . S
C1011 C995 1.429 . S
C1011 C1007 1.429 . S
C1011 C1012 1.523 . S
C1012 C996 1.368 . S
C1012 C1008 1.368 . S
C1012 C1011 1.523 . S
H1013 C988 0.950 . S
H1014 C990 0.950 . S
H1015 C991 0.949 . S
H1016 C993 0.950 . S
H1017 C995 0.950 . S
C1018 C1019 1.349 . S
C1018 C1020 1.327 . S
C1018 H1043 0.950 . S
C1019 C1018 1.349 . S
C1019 C1035 1.349 . S
C1020 C1018 1.327 . S
C1020 C1039 1.429 . S
C1020 H1044 0.950 . S
C1021 C1038 1.574 . S
C1021 C1040 1.368 . S
C1021 H1045 0.949 . S
H1022 C1026 0.949 . S
C1023 C1024 1.349 . S
C1023 C1025 1.327 . S
C1023 H1046 0.950 . S
C1024 C1023 1.349 . S
C1024 C1036 1.349 . S
C1025 C1023 1.327 . S
C1025 C1041 1.429 . S
C1025 H1047 0.950 . S
C1026 H1022 0.949 . S
C1026 C1034 1.574 . S
C1026 C1042 1.368 . S
H1027 C1035 0.950 . S
H1028 C1033 0.950 . S
H1029 C1034 0.949 . S
H1030 C1036 0.950 . S
H1031 C1037 0.950 . S
H1032 C1038 0.949 . S
C1033 H1028 0.950 . S
C1033 C1035 1.327 . S
C1033 C1039 1.429 . S
C1034 C1026 1.574 . S
C1034 H1029 0.949 . S
C1034 C1040 1.368 . S
C1035 C1019 1.349 . S
C1035 H1027 0.950 . S
C1035 C1033 1.327 . S
C1036 C1024 1.349 . S
C1036 H1030 0.950 . S
C1036 C1037 1.327 . S
C1037 H1031 0.950 . S
C1037 C1036 1.327 . S
C1037 C1041 1.429 . S
C1038 C1021 1.574 . S
C1038 H1032 0.949 . S
C1038 C1042 1.368 . S
C1039 C1020 1.429 . S
C1039 C1033 1.429 . S
C1039 C1040 1.523 . S
C1040 C1021 1.368 . S
C1040 C1034 1.368 . S
C1040 C1039 1.523 . S
C1041 C1025 1.429 . S
C1041 C1037 1.429 . S
C1041 C1042 1.523 . S
C1042 C1026 1.368 . S
C1042 C1038 1.368 . S
C1042 C1041 1.523 . S
H1043 C1018 0.950 . S
H1044 C1020 0.950 . S
H1045 C1021 0.949 . S
H1046 C1023 0.950 . S
H1047 C1025 0.950 . S
C1048 C1049 1.349 . S
C1048 C1050 1.327 . S
C1048 H1073 0.950 . S
C1049 C1048 1.349 . S
C1049 C1065 1.349 1_655 S
C1050 C1048 1.327 . S
C1050 C1069 1.429 . S
C1050 H1074 0.950 . S
C1051 C1068 1.574 . S
C1051 C1070 1.368 1_455 S
C1051 H1075 0.949 . S
H1052 C1056 0.949 . S
C1053 C1054 1.334 1_455 S
C1053 C1055 1.329 . S
C1053 H1076 0.963 . S
C1054 C1053 1.334 1_655 S
C1054 C1066 1.349 . S
C1055 C1053 1.329 . S
C1055 C1071 1.429 1_455 S
C1055 H1077 0.950 . S
C1056 H1052 0.949 . S
C1056 C1064 1.574 . S
C1056 C1072 1.368 . S
H1057 C1065 0.950 . S
H1058 C1063 0.950 . S
H1059 C1064 0.949 . S
H1060 C1066 0.950 . S
H1061 C1067 0.950 . S
H1062 C1068 0.949 . S
C1063 H1058 0.950 . S
C1063 C1065 1.327 . S
C1063 C1069 1.429 1_455 S
C1064 C1056 1.574 . S
C1064 H1059 0.949 . S
C1064 C1070 1.368 . S
C1065 C1049 1.349 1_455 S
C1065 H1057 0.950 . S
C1065 C1063 1.327 . S
C1066 C1054 1.349 . S
C1066 H1060 0.950 . S
C1066 C1067 1.327 . S
C1067 H1061 0.950 . S
C1067 C1066 1.327 . S
C1067 C1071 1.429 . S
C1068 C1051 1.574 . S
C1068 H1062 0.949 . S
C1068 C1072 1.368 1_455 S
C1069 C1050 1.429 . S
C1069 C1063 1.429 1_655 S
C1069 C1070 1.523 . S
C1070 C1051 1.368 1_655 S
C1070 C1064 1.368 . S
C1070 C1069 1.523 . S
C1071 C1055 1.429 1_655 S
C1071 C1067 1.429 . S
C1071 C1072 1.523 . S
C1072 C1056 1.368 . S
C1072 C1068 1.368 1_655 S
C1072 C1071 1.523 . S
H1073 C1048 0.950 . S
H1074 C1050 0.950 . S
H1075 C1051 0.949 . S
H1076 C1053 0.963 . S
H1077 C1055 0.950 . S
C1078 C1079 1.349 . S
C1078 C1080 1.327 . S
C1078 H1103 0.950 . S
C1079 C1078 1.349 . S
C1079 C1095 1.349 1_565 S
C1080 C1078 1.327 . S
C1080 C1099 1.429 . S
C1080 H1104 0.950 . S
C1081 C1098 1.574 . S
C1081 C1100 1.368 1_545 S
C1081 H1105 0.949 . S
H1082 C1086 0.949 . S
C1083 C1084 1.349 1_545 S
C1083 C1085 1.327 . S
C1083 H1106 0.950 . S
C1084 C1083 1.349 1_565 S
C1084 C1096 1.349 . S
C1085 C1083 1.327 . S
C1085 C1101 1.429 1_545 S
C1085 H1107 0.950 . S
C1086 H1082 0.949 . S
C1086 C1094 1.574 . S
C1086 C1102 1.368 . S
H1087 C1095 0.950 . S
H1088 C1093 0.950 . S
H1089 C1094 0.949 . S
H1090 C1096 0.950 . S
H1091 C1097 0.950 . S
H1092 C1098 0.949 . S
C1093 H1088 0.950 . S
C1093 C1095 1.327 . S
C1093 C1099 1.429 1_545 S
C1094 C1086 1.574 . S
C1094 H1089 0.949 . S
C1094 C1100 1.368 . S
C1095 C1079 1.349 1_545 S
C1095 H1087 0.950 . S
C1095 C1093 1.327 . S
C1096 C1084 1.349 . S
C1096 H1090 0.950 . S
C1096 C1097 1.327 . S
C1097 H1091 0.950 . S
C1097 C1096 1.327 . S
C1097 C1101 1.429 . S
C1098 C1081 1.574 . S
C1098 H1092 0.949 . S
C1098 C1102 1.368 1_545 S
C1099 C1080 1.429 . S
C1099 C1093 1.429 1_565 S
C1099 C1100 1.523 . S
C1100 C1081 1.368 1_565 S
C1100 C1094 1.368 . S
C1100 C1099 1.523 . S
C1101 C1085 1.429 1_565 S
C1101 C1097 1.429 . S
C1101 C1102 1.523 . S
C1102 C1086 1.368 . S
C1102 C1098 1.368 1_565 S
C1102 C1101 1.523 . S
H1103 C1078 0.950 . S
H1104 C1080 0.950 . S
H1105 C1081 0.949 . S
H1106 C1083 0.950 . S
H1107 C1085 0.950 . S
C1108 C1109 1.349 . S
C1108 C1110 1.327 . S
C1108 H1133 0.950 . S
C1109 C1108 1.349 . S
C1109 C1125 1.349 . S
C1110 C1108 1.327 . S
C1110 C1129 1.429 . S
C1110 H1134 0.950 . S
C1111 C1128 1.574 . S
C1111 C1130 1.368 . S
C1111 H1135 0.949 . S
H1112 C1116 0.949 . S
C1113 C1114 1.349 . S
C1113 C1115 1.327 . S
C1113 H1136 0.950 . S
C1114 C1113 1.349 . S
C1114 C1126 1.349 . S
C1115 C1113 1.327 . S
C1115 C1131 1.429 . S
C1115 H1137 0.950 . S
C1116 H1112 0.949 . S
C1116 C1124 1.574 . S
C1116 C1132 1.368 . S
H1117 C1125 0.950 . S
H1118 C1123 0.950 . S
H1119 C1124 0.949 . S
H1120 C1126 0.950 . S
H1121 C1127 0.950 . S
H1122 C1128 0.949 . S
C1123 H1118 0.950 . S
C1123 C1125 1.327 . S
C1123 C1129 1.429 . S
C1124 C1116 1.574 . S
C1124 H1119 0.949 . S
C1124 C1130 1.368 . S
C1125 C1109 1.349 . S
C1125 H1117 0.950 . S
C1125 C1123 1.327 . S
C1126 C1114 1.349 . S
C1126 H1120 0.950 . S
C1126 C1127 1.327 . S
C1127 H1121 0.950 . S
C1127 C1126 1.327 . S
C1127 C1131 1.429 . S
C1128 C1111 1.574 . S
C1128 H1122 0.949 . S
C1128 C1132 1.368 . S
C1129 C1110 1.429 . S
C1129 C1123 1.429 . S
C1129 C1130 1.523 . S
C1130 C1111 1.368 . S
C1130 C1124 1.368 . S
C1130 C1129 1.523 . S
C1131 C1115 1.429 . S
C1131 C1127 1.429 . S
C1131 C1132 1.523 . S
C1132 C1116 1.368 . S
C1132 C1128 1.368 . S
C1132 C1131 1.523 . S
H1133 C1108 0.950 . S
H1134 C1110 0.950 . S
H1135 C1111 0.949 . S
H1136 C1113 0.950 . S
H1137 C1115 0.950 . S
C1138 C1139 1.349 . S
C1138 C1140 1.327 . S
C1138 H1163 0.950 . S
C1139 C1138 1.349 . S
C1139 C1155 1.349 . S
C1140 C1138 1.327 . S
C1140 C1159 1.429 . S
C1140 H1164 0.950 . S
C1141 C1158 1.574 . S
C1141 C1160 1.368 . S
C1141 H1165 0.949 . S
H1142 C1146 0.949 . S
C1143 C1144 1.349 . S
C1143 C1145 1.327 . S
C1143 H1166 0.950 . S
C1144 C1143 1.349 . S
C1144 C1156 1.349 . S
C1145 C1143 1.327 . S
C1145 C1161 1.429 . S
C1145 H1167 0.950 . S
C1146 H1142 0.949 . S
C1146 C1154 1.574 . S
C1146 C1162 1.368 . S
H1147 C1155 0.950 . S
H1148 C1153 0.950 . S
H1149 C1154 0.949 . S
H1150 C1156 0.950 . S
H1151 C1157 0.950 . S
H1152 C1158 0.949 . S
C1153 H1148 0.950 . S
C1153 C1155 1.327 . S
C1153 C1159 1.429 . S
C1154 C1146 1.574 . S
C1154 H1149 0.949 . S
C1154 C1160 1.368 . S
C1155 C1139 1.349 . S
C1155 H1147 0.950 . S
C1155 C1153 1.327 . S
C1156 C1144 1.349 . S
C1156 H1150 0.950 . S
C1156 C1157 1.327 . S
C1157 H1151 0.950 . S
C1157 C1156 1.327 . S
C1157 C1161 1.429 . S
C1158 C1141 1.574 . S
C1158 H1152 0.949 . S
C1158 C1162 1.368 . S
C1159 C1140 1.429 . S
C1159 C1153 1.429 . S
C1159 C1160 1.523 . S
C1160 C1141 1.368 . S
C1160 C1154 1.368 . S
C1160 C1159 1.523 . S
C1161 C1145 1.429 . S
C1161 C1157 1.429 . S
C1161 C1162 1.523 . S
C1162 C1146 1.368 . S
C1162 C1158 1.368 . S
C1162 C1161 1.523 . S
H1163 C1138 0.950 . S
H1164 C1140 0.950 . S
H1165 C1141 0.949 . S
H1166 C1143 0.950 . S
H1167 C1145 0.950 . S
C449 C241 1.877 . S
C454 C297 2.024 . S
C484 C337 2.039 . S
C479 C277 1.935 . S
C514 C377 2.029 . S
C509 C169 1.878 . S
C544 C417 2.032 1_455 S
C539 C205 1.886 . S
C574 C306 2.028 1_565 S
C569 C97 1.881 . S
C599 C133 1.933 . S
C604 C346 2.039 . S
C629 C25 1.876 . S
C634 C386 2.028 . S
C659 C61 1.886 1_655 S
C664 C426 2.034 1_655 S
C694 C303 0.277 . S
C689 C211 0.266 . S
C724 C343 0.281 . S
C719 C247 0.269 . S
C754 C383 0.275 . S
C749 C253 0.282 . S
C779 C175 0.269 . S
C784 C423 0.280 . S
C809 C67 0.355 1_655 S
C814 C294 0.263 . S
C844 C334 0.281 . S
C839 C103 0.362 . S
C874 C374 0.275 . S
C869 C109 0.192 . S
C899 C31 0.362 . S
C904 C414 0.285 . S
C929 C181 2.547 . S
C934 C307 2.816 . S
C959 C217 2.533 . S
C964 C347 2.800 . S
C994 C387 2.811 . S
C989 C283 2.480 . S
C1024 C427 2.804 . S
C1019 C145 2.531 . S
C1049 C37 2.549 1_655 S
C1054 C298 2.816 . S
C1084 C338 2.801 . S
C1079 C73 2.537 . S
C1114 C378 2.811 . S
C1109 C139 2.472 . S
C1139 C1 2.541 . S
C1144 C418 2.811 . S
