# Generated by pormake.
# Topology pyr, (3,6)-cn, num edge types: 1
# Building blocks:
#     Node 0, Type 0, BuildingBlock: QEWDON_clean_linker_0, # of connection points: 3
#     Node 1, Type 0, BuildingBlock: QEWDON_clean_linker_0, # of connection points: 3
#     Node 2, Type 0, BuildingBlock: QEWDON_clean_linker_0, # of connection points: 3
#     Node 3, Type 0, BuildingBlock: QEWDON_clean_linker_0, # of connection points: 3
#     Node 4, Type 0, BuildingBlock: QEWDON_clean_linker_0, # of connection points: 3
#     Node 5, Type 0, BuildingBlock: QEWDON_clean_linker_0, # of connection points: 3
#     Node 6, Type 0, BuildingBlock: QEWDON_clean_linker_0, # of connection points: 3
#     Node 7, Type 0, BuildingBlock: QEWDON_clean_linker_0, # of connection points: 3
#     Node 8, Type 1, BuildingBlock: CIFDUS_clean_sbu_1, # of connection points: 6
#     Node 9, Type 1, BuildingBlock: CIFDUS_clean_sbu_1, # of connection points: 6
#     Node 10, Type 1, BuildingBlock: CIFDUS_clean_sbu_1, # of connection points: 6
#     Node 11, Type 1, BuildingBlock: CIFDUS_clean_sbu_1, # of connection points: 6
#     Edge 12, Type (0, 1), BuildingBlock: TEMPAE_clean_linker_10, # of connection points: 2
#     Edge 13, Type (0, 1), BuildingBlock: TEMPAE_clean_linker_10, # of connection points: 2
#     Edge 14, Type (0, 1), BuildingBlock: TEMPAE_clean_linker_10, # of connection points: 2
#     Edge 15, Type (0, 1), BuildingBlock: TEMPAE_clean_linker_10, # of connection points: 2
#     Edge 16, Type (0, 1), BuildingBlock: TEMPAE_clean_linker_10, # of connection points: 2
#     Edge 17, Type (0, 1), BuildingBlock: TEMPAE_clean_linker_10, # of connection points: 2
#     Edge 18, Type (0, 1), BuildingBlock: TEMPAE_clean_linker_10, # of connection points: 2
#     Edge 19, Type (0, 1), BuildingBlock: TEMPAE_clean_linker_10, # of connection points: 2
#     Edge 20, Type (0, 1), BuildingBlock: TEMPAE_clean_linker_10, # of connection points: 2
#     Edge 21, Type (0, 1), BuildingBlock: TEMPAE_clean_linker_10, # of connection points: 2
#     Edge 22, Type (0, 1), BuildingBlock: TEMPAE_clean_linker_10, # of connection points: 2
#     Edge 23, Type (0, 1), BuildingBlock: TEMPAE_clean_linker_10, # of connection points: 2
#     Edge 24, Type (0, 1), BuildingBlock: TEMPAE_clean_linker_10, # of connection points: 2
#     Edge 25, Type (0, 1), BuildingBlock: TEMPAE_clean_linker_10, # of connection points: 2
#     Edge 26, Type (0, 1), BuildingBlock: TEMPAE_clean_linker_10, # of connection points: 2
#     Edge 27, Type (0, 1), BuildingBlock: TEMPAE_clean_linker_10, # of connection points: 2
#     Edge 28, Type (0, 1), BuildingBlock: TEMPAE_clean_linker_10, # of connection points: 2
#     Edge 29, Type (0, 1), BuildingBlock: TEMPAE_clean_linker_10, # of connection points: 2
#     Edge 30, Type (0, 1), BuildingBlock: TEMPAE_clean_linker_10, # of connection points: 2
#     Edge 31, Type (0, 1), BuildingBlock: TEMPAE_clean_linker_10, # of connection points: 2
#     Edge 32, Type (0, 1), BuildingBlock: TEMPAE_clean_linker_10, # of connection points: 2
#     Edge 33, Type (0, 1), BuildingBlock: TEMPAE_clean_linker_10, # of connection points: 2
#     Edge 34, Type (0, 1), BuildingBlock: TEMPAE_clean_linker_10, # of connection points: 2
#     Edge 35, Type (0, 1), BuildingBlock: TEMPAE_clean_linker_10, # of connection points: 2
# Relax obj value: 0.136
# Max RMSD: 0.252
# Mean RMSD: 0.191
data_MOF--net-pry--node1-CIFDUS_clean_sbu_1--node2-QEWDON_clean_linker_0--edge1-TEMPAE_clean_linker_10
_symmetry_space_group_name_H-M    P1
_symmetry_Int_Tables_number       1
_symmetry_cell_setting            triclinic
loop_
_symmetry_equiv_pos_as_xyz
'x, y, z'
_cell_length_a     37.298101
_cell_length_b     36.17993
_cell_length_c     38.363923
_cell_angle_alpha  92.164811
_cell_angle_beta   91.724991
_cell_angle_gamma 103.53885
loop_
_atom_site_label
_atom_site_type_symbol
_atom_site_fract_x
_atom_site_fract_y
_atom_site_fract_z
_atom_type_partial_charge
H0 H 0.20264 0.21675 0.13752 0.0
C1 C 0.18746 0.20094 0.15799 0.0
C2 C 0.19936 0.16926 0.1715 0.0
C3 C 0.15802 0.21401 0.17311 0.0
H4 H 0.19162 0.12874 0.21234 0.0
C5 C 0.18192 0.15184 0.20114 0.0
C6 C 0.15204 0.16359 0.2163 0.0
C7 C 0.13941 0.19303 0.2005 0.0
C8 C 0.15225 0.25417 0.16967 0.0
H9 H 0.11722 0.20301 0.2124 0.0
C10 C 0.14193 0.27136 0.13864 0.0
C11 C 0.1326 0.30798 0.14142 0.0
C12 C 0.15459 0.27518 0.20167 0.0
H13 H 0.16374 0.26445 0.22553 0.0
C14 C 0.1433 0.30889 0.20446 0.0
H15 H 0.1411 0.25679 0.11335 0.0
C16 C 0.13163 0.32446 0.1751 0.0
H17 H 0.12273 0.35074 0.17886 0.0
H18 H 0.14356 0.32315 0.22981 0.0
H19 H 0.36051 0.95688 0.73018 0.0
C20 C 0.37896 0.9413 0.71845 0.0
C21 C 0.41166 0.93875 0.73695 0.0
C22 C 0.36883 0.92121 0.68607 0.0
H23 H 0.4579 0.91214 0.7376 0.0
C24 C 0.43374 0.91546 0.72281 0.0
C25 C 0.42428 0.896 0.69001 0.0
C26 C 0.39252 0.90033 0.67175 0.0
C27 C 0.33091 0.91421 0.66968 0.0
H28 H 0.38401 0.8843 0.64724 0.0
C29 C 0.31484 0.94337 0.65752 0.0
C30 C 0.28045 0.93344 0.63862 0.0
C31 C 0.31172 0.87593 0.66332 0.0
H32 H 0.32316 0.85297 0.67249 0.0
C33 C 0.27828 0.86651 0.64438 0.0
H34 H 0.32901 0.97299 0.66208 0.0
C35 C 0.26283 0.895 0.63198 0.0
H36 H 0.23661 0.88703 0.61737 0.0
H37 H 0.26431 0.83695 0.63923 0.0
H38 H 0.65702 0.48334 0.92158 0.0
C39 C 0.64746 0.45497 0.93087 0.0
C40 C 0.6705 0.43941 0.95262 0.0
C41 C 0.61219 0.43336 0.92015 0.0
H42 H 0.67301 0.39156 0.98365 0.0
C43 C 0.6569 0.40284 0.96461 0.0
C44 C 0.62355 0.37982 0.95105 0.0
C45 C 0.60114 0.39543 0.92905 0.0
C46 C 0.58756 0.44887 0.89737 0.0
H47 H 0.57555 0.37782 0.91775 0.0
C48 C 0.60149 0.46857 0.86822 0.0
C49 C 0.57772 0.48019 0.84443 0.0
C50 C 0.54961 0.44169 0.90333 0.0
H51 H 0.53838 0.42658 0.92589 0.0
C52 C 0.52581 0.45355 0.87995 0.0
H53 H 0.63076 0.47407 0.86367 0.0
C54 C 0.53963 0.4724 0.85045 0.0
H55 H 0.52037 0.4802 0.83208 0.0
H56 H 0.49654 0.44761 0.88441 0.0
H57 H 0.9005 0.69577 0.39551 0.0
C58 C 0.88806 0.67753 0.41574 0.0
C59 C 0.89282 0.691 0.45106 0.0
C60 C 0.86496 0.64135 0.40643 0.0
H61 H 0.87868 0.67707 0.50334 0.0
C62 C 0.87391 0.66766 0.47634 0.0
C63 C 0.8463 0.63502 0.46692 0.0
C64 C 0.84587 0.61975 0.43282 0.0
C65 C 0.85619 0.62768 0.36918 0.0
H66 H 0.82867 0.59173 0.42636 0.0
C67 C 0.8824 0.63636 0.34307 0.0
C68 C 0.87255 0.62316 0.30831 0.0
C69 C 0.82034 0.60596 0.35938 0.0
H70 H 0.7986 0.60022 0.37786 0.0
C71 C 0.81142 0.59165 0.3253 0.0
H72 H 0.90993 0.65346 0.34945 0.0
C73 C 0.83736 0.60008 0.2999 0.0
H74 H 0.82971 0.58924 0.27331 0.0
H75 H 0.78403 0.57455 0.31841 0.0
H76 H 0.86587 0.89264 0.93109 0.0
C77 C 0.87823 0.90409 0.90741 0.0
C78 C 0.90713 0.8897 0.89294 0.0
C79 C 0.86284 0.93065 0.88987 0.0
H80 H 0.94036 0.88993 0.84753 0.0
C81 C 0.91952 0.90195 0.85947 0.0
C82 C 0.9046 0.92877 0.8411 0.0
C83 C 0.87783 0.94411 0.85812 0.0
C84 C 0.82502 0.93603 0.89768 0.0
H85 H 0.86626 0.96529 0.84571 0.0
C86 C 0.81575 0.95567 0.92792 0.0
C87 C 0.77919 0.96131 0.93062 0.0
C88 C 0.79732 0.9218 0.87168 0.0
H89 H 0.8033 0.90655 0.84853 0.0
C90 C 0.7619 0.92726 0.87454 0.0
H91 H 0.83655 0.96704 0.94831 0.0
C92 C 0.75296 0.94687 0.90352 0.0
H93 H 0.72509 0.95083 0.90485 0.0
H94 H 0.7412 0.91637 0.85396 0.0
H95 H 0.69142 0.20187 0.47373 0.0
C96 C 0.68294 0.1928 0.44688 0.0
C97 C 0.70131 0.16848 0.42845 0.0
C98 C 0.65148 0.20233 0.43176 0.0
H99 H 0.70035 0.13382 0.38091 0.0
C100 C 0.68735 0.15347 0.39485 0.0
C101 C 0.65685 0.16389 0.37901 0.0
C102 C 0.63998 0.18909 0.39727 0.0
C103 C 0.62362 0.21464 0.45367 0.0
H104 H 0.61532 0.19553 0.3858 0.0
C105 C 0.6265 0.25246 0.46726 0.0
C106 C 0.59587 0.26204 0.48384 0.0
C107 C 0.59088 0.18695 0.45771 0.0
H108 H 0.5881 0.15789 0.44782 0.0
C109 C 0.56073 0.19641 0.47265 0.0
H110 H 0.65181 0.27388 0.4646 0.0
C111 C 0.56283 0.23347 0.48476 0.0
H112 H 0.53788 0.2396 0.49467 0.0
H113 H 0.53523 0.17497 0.47425 0.0
H114 H 0.42231 0.73435 0.22809 0.0
C115 C 0.39616 0.72316 0.21397 0.0
C116 C 0.38017 0.74722 0.19407 0.0
C117 C 0.37926 0.68406 0.2138 0.0
H118 H 0.33421 0.75088 0.15998 0.0
C119 C 0.34667 0.73245 0.17561 0.0
C120 C 0.33006 0.69377 0.17564 0.0
C121 C 0.34626 0.66947 0.19448 0.0
C122 C 0.39562 0.65811 0.23382 0.0
H123 H 0.33312 0.63933 0.1942 0.0
C124 C 0.40258 0.6654 0.26965 0.0
C125 C 0.41585 0.63957 0.28944 0.0
C126 C 0.40193 0.62478 0.21777 0.0
H127 H 0.39618 0.61859 0.19004 0.0
C128 C 0.41564 0.59918 0.23755 0.0
H129 H 0.39695 0.69069 0.28227 0.0
C130 C 0.42272 0.60656 0.27335 0.0
H131 H 0.43284 0.58625 0.28861 0.0
H132 H 0.42045 0.57348 0.22519 0.0
H133 H 0.16827 0.47387 0.6741 0.0
C134 C 0.15344 0.45724 0.65184 0.0
C135 C 0.17242 0.45344 0.62126 0.0
C136 C 0.11672 0.43625 0.65482 0.0
H137 H 0.16939 0.42355 0.57102 0.0
C138 C 0.15434 0.42868 0.59375 0.0
C139 C 0.11819 0.40741 0.59671 0.0
C140 C 0.09882 0.41332 0.62613 0.0
C141 C 0.09865 0.43326 0.68898 0.0
H142 H 0.07078 0.39669 0.62804 0.0
C143 C 0.10469 0.46442 0.71323 0.0
C144 C 0.08767 0.46042 0.74533 0.0
C145 C 0.07598 0.39812 0.69808 0.0
H146 H 0.07207 0.37283 0.68108 0.0
C147 C 0.05851 0.39469 0.72975 0.0
H148 H 0.12235 0.4916 0.70733 0.0
C149 C 0.0642 0.42576 0.75329 0.0
H150 H 0.05108 0.42255 0.7782 0.0
H151 H 0.04106 0.36769 0.73629 0.0
O152 O 0.95247 0.0759 0.51406 0.0
Mn153 Mn 1.00087 0.05339 0.52156 0.0
O154 O 0.93062 0.05238 0.46171 0.0
Mn155 Mn 0.96376 0.02284 0.45947 0.0
O156 O 0.05007 0.03258 0.53001 0.0
O157 O 0.02424 0.10628 0.54521 0.0
Mn158 Mn 0.04358 0.09198 0.58345 0.0
O159 O 0.97812 0.02907 0.57073 0.0
O160 O 0.08043 0.06928 0.57471 0.0
O161 O 0.02729 0.078 0.47398 0.0
O162 O 1.00119 0.03819 0.43074 0.0
O163 O 0.0579 0.1418 0.58967 0.0
O164 O 0.00974 0.06823 0.61302 0.0
C165 C 0.95563 0.97056 0.47721 0.0
C166 C 0.92905 0.07343 0.48812 0.0
C167 C 0.07884 0.04395 0.55093 0.0
C168 C 0.03914 0.13989 0.5603 0.0
C169 C 0.98462 0.03931 0.60384 0.0
C170 C 0.0264 0.06597 0.44147 0.0
O171 O 0.97501 0.99938 0.49764 0.0
O172 O 0.94077 0.97669 0.44767 0.0
O173 O 0.48445 0.0525 0.01076 0.0
Mn174 Mn 0.49796 0.05631 0.06649 0.0
O175 O 0.46396 0.99011 0.99578 0.0
Mn176 Mn 0.48849 0.97518 0.03265 0.0
O177 O 0.51469 0.05944 0.12202 0.0
O178 O 0.52 0.11344 0.0646 0.0
Mn179 Mn 0.5 0.12662 0.10406 0.0
O180 O 0.44236 0.06322 0.07523 0.0
O181 O 0.53267 0.12145 0.13788 0.0
O182 O 0.55152 0.0472 0.05433 0.0
O183 O 0.53948 0.98735 0.03034 0.0
O184 O 0.50181 0.16609 0.07731 0.0
O185 O 0.45201 0.109 0.11607 0.0
C186 C 0.4654 0.96809 0.08255 0.0
C187 C 0.46999 0.02478 0.98816 0.0
C188 C 0.53156 0.08708 0.14389 0.0
C189 C 0.516 0.14645 0.05498 0.0
C190 C 0.42974 0.08437 0.09734 0.0
C191 C 0.56212 0.01882 0.03944 0.0
O192 O 0.47856 1.00039 0.06942 0.0
O193 O 0.46539 0.93887 0.06199 0.0
O194 O 0.57763 0.61456 0.57149 0.0
Mn195 Mn 0.5221 0.58931 0.57714 0.0
O196 O 0.59066 0.60192 0.51644 0.0
Mn197 Mn 0.5439 0.57671 0.50116 0.0
O198 O 0.46637 0.56384 0.58629 0.0
O199 O 0.53512 0.58938 0.62708 0.0
Mn200 Mn 0.50502 0.60501 0.65486 0.0
O201 O 0.51061 0.64393 0.58485 0.0
O202 O 0.46079 0.57026 0.6447 0.0
O203 O 0.53363 0.53424 0.56784 0.0
O204 O 0.53326 0.52559 0.50892 0.0
O205 O 0.54264 0.59514 0.68278 0.0
O206 O 0.50627 0.65387 0.64294 0.0
C207 C 0.50346 0.61036 0.50177 0.0
C208 C 0.60012 0.61631 0.54684 0.0
C209 C 0.4476 0.55781 0.61422 0.0
C210 C 0.55542 0.58612 0.65354 0.0
C211 C 0.50663 0.66491 0.61188 0.0
C212 C 0.53445 0.51322 0.53962 0.0
O213 O 0.50938 0.58924 0.52635 0.0
O214 O 0.52107 0.60576 0.47402 0.0
O215 O 0.95953 0.56969 0.01015 0.0
Mn216 Mn 0.0154 0.59457 0.01993 0.0
O217 O 0.94783 0.58699 0.95568 0.0
Mn218 Mn 0.9945 0.61232 0.94522 0.0
O219 O 0.07204 0.61927 0.02876 0.0
O220 O 0.0076 0.59985 0.07187 0.0
Mn221 Mn 0.04511 0.58556 0.09272 0.0
O222 O 0.02627 0.53854 0.02412 0.0
O223 O 0.08036 0.62917 0.08675 0.0
O224 O 1.00362 0.65066 0.01446 0.0
O225 O 0.00795 0.66301 0.95771 0.0
O226 O 0.0068 0.57369 0.12154 0.0
O227 O 0.05643 0.54152 0.07562 0.0
C228 C 0.03548 0.58197 0.9393 0.0
C229 C 0.93785 0.56967 0.98337 0.0
C230 C 0.09202 0.63402 0.05602 0.0
C231 C 0.98791 0.58568 0.09752 0.0
C232 C 0.04428 0.52378 0.04712 0.0
C233 C 1.00458 0.67373 0.98893 0.0
O234 O 0.02352 0.59013 0.96899 0.0
O235 O 0.01983 0.59286 0.91218 0.0
C236 C 0.09795 0.14406 0.25654 0.0
C237 C 0.1357 0.14799 0.25028 0.0
C238 C 0.08282 0.13267 0.28901 0.0
C239 C 0.10561 0.12467 0.31672 0.0
C240 C 0.14358 0.12782 0.31043 0.0
C241 C 0.15804 0.13937 0.27767 0.0
C242 C 0.04215 0.12919 0.29361 0.0
C243 C 0.16908 0.11886 0.33844 0.0
C244 C 0.06804 0.12189 0.4106 0.0
C245 C 0.05281 0.08277 0.4137 0.0
C246 C 0.08626 0.13591 0.37981 0.0
C247 C 0.08917 0.11052 0.35114 0.0
C248 C 0.07491 0.0711 0.35491 0.0
C249 C 0.05756 0.058 0.38575 0.0
C250 C 0.10126 0.17813 0.37732 0.0
C251 C 0.07628 0.04243 0.3256 0.0
H252 H 0.07988 0.14979 0.23584 0.0
H253 H 0.18724 0.1425 0.27387 0.0
H254 H 0.02871 0.09992 0.30077 0.0
H255 H 0.03826 0.14888 0.31528 0.0
H256 H 0.0279 0.13581 0.26961 0.0
H257 H 0.19815 0.12433 0.33041 0.0
H258 H 0.1679 0.13618 0.36269 0.0
H259 H 0.15994 0.0885 0.34478 0.0
H260 H 0.06435 0.14164 0.43138 0.0
H261 H 0.04618 0.02768 0.38738 0.0
H262 H 0.08546 0.18887 0.35662 0.0
H263 H 0.13047 0.18408 0.36972 0.0
H264 H 0.0996 0.19406 0.40231 0.0
H265 H 0.05809 0.04642 0.30335 0.0
H266 H 0.0671 0.01262 0.33366 0.0
H267 H 0.10467 0.04671 0.31607 0.0
C268 C 0.44179 0.99476 0.77738 0.0
C269 C 0.42096 0.95714 0.77265 0.0
C270 C 0.45142 0.01191 0.81118 0.0
C271 C 0.44012 0.99092 0.84113 0.0
C272 C 0.41897 0.95281 0.8362 0.0
C273 C 0.40974 0.93648 0.80216 0.0
C274 C 0.47408 0.05237 0.81481 0.0
C275 C 0.40635 0.92896 0.86695 0.0
C276 C 0.49271 0.0154 0.92944 0.0
C277 C 0.46782 0.02976 0.94979 0.0
C278 C 0.4848 0.00412 0.89391 0.0
C279 C 0.45136 0.00797 0.87758 0.0
C280 C 0.42743 0.02527 0.89725 0.0
C281 C 0.43555 0.03526 0.93322 0.0
C282 C 0.51093 0.98516 0.87471 0.0
C283 C 0.39222 0.03132 0.88067 0.0
H284 H 0.45079 0.01069 0.75458 0.0
H285 H 0.39384 0.90731 0.79853 0.0
H286 H 0.46123 0.06945 0.83312 0.0
H287 H 0.50198 0.05277 0.82589 0.0
H288 H 0.47715 0.06621 0.78936 0.0
H289 H 0.39032 0.89984 0.85878 0.0
H290 H 0.4306 0.92662 0.88346 0.0
H291 H 0.38886 0.94287 0.88338 0.0
H292 H 0.51709 0.00977 0.94225 0.0
H293 H 0.41556 0.04508 0.9488 0.0
H294 H 0.51831 0.99895 0.84975 0.0
H295 H 0.49717 0.95491 0.8682 0.0
H296 H 0.53673 0.98617 0.89036 0.0
H297 H 0.39839 0.04743 0.85665 0.0
H298 H 0.37759 0.04707 0.89859 0.0
H299 H 0.3735 0.00345 0.87277 0.0
C300 C 0.57701 0.52809 0.80023 0.0
C301 C 0.59233 0.49931 0.81278 0.0
C302 C 0.58551 0.54225 0.76752 0.0
C303 C 0.61128 0.52831 0.74739 0.0
C304 C 0.63034 0.50276 0.76179 0.0
C305 C 0.62004 0.48775 0.79413 0.0
C306 C 0.56386 0.56917 0.75352 0.0
C307 C 0.66004 0.4898 0.74224 0.0
C308 C 0.57475 0.52823 0.65684 0.0
C309 C 0.58592 0.56743 0.65326 0.0
C310 C 0.58685 0.51237 0.68639 0.0
C311 C 0.61326 0.53608 0.70988 0.0
C312 C 0.63238 0.57232 0.6997 0.0
C313 C 0.61837 0.58776 0.67082 0.0
C314 C 0.56571 0.47334 0.69585 0.0
C315 C 0.66238 0.59761 0.72278 0.0
H316 H 0.55685 0.53827 0.81532 0.0
H317 H 0.63249 0.46576 0.80386 0.0
H318 H 0.58224 0.59354 0.74153 0.0
H319 H 0.54341 0.5534 0.73343 0.0
H320 H 0.54853 0.58063 0.77409 0.0
H321 H 0.67645 0.47528 0.75936 0.0
H322 H 0.64741 0.46974 0.72027 0.0
H323 H 0.67893 0.5144 0.73091 0.0
H324 H 0.55049 0.51225 0.64195 0.0
H325 H 0.62808 0.61791 0.66673 0.0
H326 H 0.54466 0.47646 0.71491 0.0
H327 H 0.58417 0.45726 0.70819 0.0
H328 H 0.55126 0.45644 0.67261 0.0
H329 H 0.64987 0.61516 0.74096 0.0
H330 H 0.68213 0.61729 0.70692 0.0
H331 H 0.67763 0.58074 0.73853 0.0
C332 C 0.8857 0.65456 0.25284 0.0
C333 C 0.89727 0.63401 0.2794 0.0
C334 C 0.90017 0.65447 0.21966 0.0
C335 C 0.92714 0.63369 0.21324 0.0
C336 C 0.9418 0.61627 0.2411 0.0
C337 C 0.92639 0.61641 0.27406 0.0
C338 C 0.8836 0.67301 0.19067 0.0
C339 C 0.97154 0.59489 0.23541 0.0
C340 C 0.93005 0.58171 0.12642 0.0
C341 C 0.96126 0.60476 0.1125 0.0
C342 C 0.91702 0.59219 0.15832 0.0
C343 C 0.93636 0.62604 0.17677 0.0
C344 C 0.96543 0.65127 0.16094 0.0
C345 C 0.97655 0.64094 0.12815 0.0
C346 C 0.88495 0.56515 0.17383 0.0
C347 C 0.98749 0.68694 0.1802 0.0
H348 H 0.86295 0.66793 0.25721 0.0
H349 H 0.93502 0.60031 0.29468 0.0
H350 H 0.90529 0.6887 0.17401 0.0
H351 H 0.86486 0.6506 0.17381 0.0
H352 H 0.86749 0.69298 0.20092 0.0
H353 H 0.98305 0.58717 0.26042 0.0
H354 H 0.95997 0.56833 0.21941 0.0
H355 H 0.99432 0.6122 0.22087 0.0
H356 H 0.91866 0.55352 0.11459 0.0
H357 H 1.00128 0.65836 0.1177 0.0
H358 H 0.86528 0.58089 0.18466 0.0
H359 H 0.89524 0.55059 0.1956 0.0
H360 H 0.86988 0.54313 0.15425 0.0
H361 H 0.96897 0.70412 0.19084 0.0
H362 H 0.00747 0.70488 0.16325 0.0
H363 H 1.00308 0.67898 0.20269 0.0
C364 C 0.26109 0.15119 0.17878 0.0
C365 C 0.23152 0.15533 0.15675 0.0
C366 C 0.29065 0.13663 0.16612 0.0
C367 C 0.29083 0.12458 0.13041 0.0
C368 C 0.2607 0.12814 0.10812 0.0
C369 C 0.23191 0.14382 0.12133 0.0
C370 C 0.3222 0.13481 0.19104 0.0
C371 C 0.25851 0.11468 0.07027 0.0
C372 C 0.38589 0.12648 0.09299 0.0
C373 C 0.39056 0.08933 0.0971 0.0
C374 C 0.35365 0.13775 0.10267 0.0
C375 C 0.32379 0.11113 0.11624 0.0
C376 C 0.32709 0.0727 0.11831 0.0
C377 C 0.36051 0.06239 0.10935 0.0
C378 C 0.35278 0.17912 0.10051 0.0
C379 C 0.29593 0.04279 0.13163 0.0
H380 H 0.26136 0.1599 0.20616 0.0
H381 H 0.2091 0.14613 0.10405 0.0
H382 H 0.32585 0.10528 0.19144 0.0
H383 H 0.34824 0.15296 0.18204 0.0
H384 H 0.31786 0.14446 0.21809 0.0
H385 H 0.23358 0.11929 0.05617 0.0
H386 H 0.28334 0.12974 0.05692 0.0
H387 H 0.25799 0.08387 0.06846 0.0
H388 H 0.40894 0.14784 0.08416 0.0
H389 H 0.36368 0.03386 0.11363 0.0
H390 H 0.35113 0.19157 0.12713 0.0
H391 H 0.32794 0.18183 0.08515 0.0
H392 H 0.37761 0.1961 0.08834 0.0
H393 H 0.29506 0.04682 0.16037 0.0
H394 H 0.29934 0.01358 0.12552 0.0
H395 H 0.26901 0.04548 0.12019 0.0
C396 C 0.26506 0.97371 0.59189 0.0
C397 C 0.26043 0.96135 0.626 0.0
C398 C 0.23766 0.98795 0.57454 0.0
C399 C 0.20481 0.98933 0.59167 0.0
C400 C 0.20123 0.97907 0.62691 0.0
C401 C 0.22907 0.96519 0.64358 0.0
C402 C 0.24289 0.99947 0.53728 0.0
C403 C 0.16725 0.98108 0.64663 0.0
C404 C 0.14589 0.0549 0.56188 0.0
C405 C 0.1128 0.02924 0.55003 0.0
C406 C 0.17609 0.04234 0.57495 0.0
C407 C 0.17472 0.00306 0.57355 0.0
C408 C 0.14318 0.97712 0.55776 0.0
C409 C 0.11205 0.99043 0.54684 0.0
C410 C 0.20783 0.07094 0.59334 0.0
C411 C 0.14165 0.93515 0.55412 0.0
H412 H 0.2889 0.9698 0.57801 0.0
H413 H 0.22514 0.95468 0.66963 0.0
H414 H 0.22133 0.98056 0.51997 0.0
H415 H 0.23958 0.02892 0.53459 0.0
H416 H 0.27047 0.99795 0.52806 0.0
H417 H 0.17008 0.97486 0.67459 0.0
H418 H 0.16156 0.00974 0.64501 0.0
H419 H 0.14297 0.96018 0.63469 0.0
H420 H 0.1469 0.08512 0.56418 0.0
H421 H 0.08669 0.97043 0.53799 0.0
H422 H 0.23457 0.0682 0.58306 0.0
H423 H 0.20856 0.06531 0.62157 0.0
H424 H 0.20544 0.10075 0.59067 0.0
H425 H 0.16666 0.93061 0.54129 0.0
H426 H 0.11678 0.91927 0.53864 0.0
H427 H 0.1414 0.92316 0.58032 0.0
C428 C 0.73618 0.43734 0.96385 0.0
C429 C 0.7097 0.4591 0.96044 0.0
C430 C 0.77323 0.45445 0.97139 0.0
C431 C 0.78461 0.49447 0.9736 0.0
C432 C 0.75864 0.51695 0.96903 0.0
C433 C 0.72123 0.49897 0.9632 0.0
C434 C 0.8003 0.42962 0.97613 0.0
C435 C 0.77065 0.55984 0.9691 0.0
C436 C 0.87947 0.54141 0.01282 0.0
C437 C 0.89953 0.5477 0.98255 0.0
C438 C 0.84168 0.52379 0.01042 0.0
C439 C 0.82426 0.5126 0.97709 0.0
C440 C 0.84481 0.51799 0.94666 0.0
C441 C 0.88227 0.53501 0.94986 0.0
C442 C 0.82024 0.51773 0.04327 0.0
C443 C 0.82732 0.50621 0.91062 0.0
H444 H 0.72824 0.40666 0.96002 0.0
H445 H 0.70124 0.51621 0.96059 0.0
H446 H 0.82015 0.43384 0.95487 0.0
H447 H 0.81647 0.43774 1.00113 0.0
H448 H 0.78639 0.3989 0.97608 0.0
H449 H 0.74694 0.57331 0.96597 0.0
H450 H 0.78627 0.57119 0.99379 0.0
H451 H 0.78952 0.56838 0.94746 0.0
H452 H 0.89295 0.5512 0.03805 0.0
H453 H 0.89803 0.53901 0.92642 0.0
H454 H 0.80622 0.48721 0.04471 0.0
H455 H 0.79845 0.53399 0.0427 0.0
H456 H 0.83814 0.52684 0.0672 0.0
H457 H 0.81844 0.47474 0.9078 0.0
H458 H 0.84659 0.51628 0.88959 0.0
H459 H 0.80241 0.51757 0.90666 0.0
C460 C 0.77826 0.60622 0.47343 0.0
C461 C 0.81317 0.62365 0.48911 0.0
C462 C 0.74564 0.60496 0.49102 0.0
C463 C 0.74752 0.62334 0.52443 0.0
C464 C 0.78214 0.63889 0.54133 0.0
C465 C 0.81441 0.63706 0.52423 0.0
C466 C 0.70901 0.58641 0.47268 0.0
C467 C 0.78519 0.65994 0.57644 0.0
C468 C 0.66051 0.65746 0.53544 0.0
C469 C 0.63978 0.62818 0.55431 0.0
C470 C 0.6974 0.65852 0.52863 0.0
C471 C 0.71313 0.62878 0.54004 0.0
C472 C 0.69325 0.60124 0.56193 0.0
C473 C 0.65679 0.6017 0.56933 0.0
C474 C 0.71801 0.68899 0.50593 0.0
C475 C 0.70838 0.56831 0.57359 0.0
H476 H 0.77562 0.59554 0.44655 0.0
H477 H 0.8405 0.64836 0.53813 0.0
H478 H 0.69028 0.5688 0.49081 0.0
H479 H 0.6954 0.6087 0.46361 0.0
H480 H 0.71232 0.5681 0.44967 0.0
H481 H 0.81431 0.67156 0.58567 0.0
H482 H 0.77139 0.68392 0.57479 0.0
H483 H 0.77087 0.64078 0.59616 0.0
H484 H 0.64691 0.67741 0.52331 0.0
H485 H 0.64022 0.57847 0.58312 0.0
H486 H 0.71767 0.67711 0.47879 0.0
H487 H 0.74727 0.69898 0.51522 0.0
H488 H 0.70521 0.71379 0.50539 0.0
H489 H 0.70561 0.547 0.55149 0.0
H490 H 0.69313 0.55414 0.59575 0.0
H491 H 0.73808 0.57763 0.58139 0.0
C492 C 0.14178 0.37178 0.11479 0.0
C493 C 0.12477 0.33251 0.11192 0.0
C494 C 0.12716 0.39927 0.09778 0.0
C495 C 0.09612 0.38782 0.07426 0.0
C496 C 0.0816 0.34792 0.06757 0.0
C497 C 0.09528 0.32084 0.08708 0.0
C498 C 0.14308 0.44081 0.10782 0.0
C499 C 0.05086 0.33395 0.04044 0.0
C500 C 0.03384 0.45889 0.07054 0.0
C501 C 0.04923 0.4836 0.04459 0.0
C502 C 0.04727 0.42665 0.07885 0.0
C503 C 0.07688 0.41768 0.06047 0.0
C504 C 0.09084 0.441 0.0324 0.0
C505 C 0.0774 0.47384 0.02526 0.0
C506 C 0.03185 0.40427 0.10968 0.0
C507 C 0.12156 0.4328 0.01102 0.0
H508 H 0.16483 0.38148 0.13342 0.0
H509 H 0.0817 0.29089 0.08411 0.0
H510 H 0.15133 0.45713 0.08436 0.0
H511 H 0.12175 0.45294 0.12051 0.0
H512 H 0.16751 0.44518 0.12612 0.0
H513 H 0.04485 0.30259 0.03567 0.0
H514 H 0.02533 0.34182 0.04878 0.0
H515 H 0.0584 0.34787 0.01551 0.0
H516 H 0.01295 0.46661 0.08647 0.0
H517 H 0.0906 0.49314 1.006 0.0
H518 H 0.05377 0.40729 0.13053 0.0
H519 H 0.02256 0.37358 0.10208 0.0
H520 H 0.00818 0.41393 0.12065 0.0
H521 H 0.14855 0.44658 0.0241 0.0
H522 H 0.12103 0.44444 0.98467 0.0
H523 H 0.11974 0.40177 1.00815 0.0
C524 C 0.64061 0.31854 0.96204 0.0
C525 C 0.61321 0.3391 0.95862 0.0
C526 C 0.63191 0.28104 0.97246 0.0
C527 C 0.59478 0.26345 0.97825 0.0
C528 C 0.56657 0.28298 0.97205 0.0
C529 C 0.57623 0.32082 0.96275 0.0
C530 C 0.6626 0.26105 0.97896 0.0
C531 C 0.52654 0.26521 0.97848 0.0
C532 C 0.54779 0.16411 0.99948 0.0
C533 C 0.54505 0.16993 0.03535 0.0
C534 C 0.56906 0.19316 0.98039 0.0
C535 C 0.58577 0.22853 0.99778 0.0
C536 C 0.58636 0.23253 0.03457 0.0
C537 C 0.56711 0.20239 0.05295 0.0
C538 C 0.57061 0.18749 0.94141 0.0
C539 C 0.60335 0.2699 0.05438 0.0
H540 H 0.66911 0.33204 0.95744 0.0
H541 H 0.5549 0.33651 0.96035 0.0
H542 H 0.665 0.25564 1.00708 0.0
H543 H 0.65625 0.23301 0.96453 0.0
H544 H 0.68972 0.27799 0.97102 0.0
H545 H 0.50783 0.28299 0.96942 0.0
H546 H 0.51777 0.23676 0.96494 0.0
H547 H 0.52307 0.26131 1.00685 0.0
H548 H 0.53159 0.13835 0.98621 0.0
H549 H 0.56621 0.20582 0.08112 0.0
H550 H 0.59844 0.20109 0.93247 0.0
H551 H 0.55047 0.2011 0.92826 0.0
H552 H 0.56381 0.1568 0.93317 0.0
H553 H 0.63366 0.27721 0.05177 0.0
H554 H 0.59769 0.2689 0.08264 0.0
H555 H 0.59253 0.29339 0.04364 0.0
C556 C 0.89953 0.74958 0.4905 0.0
C557 C 0.91214 0.73128 0.46184 0.0
C558 C 0.91512 0.78749 0.50064 0.0
C559 C 0.94194 0.80937 0.47992 0.0
C560 C 0.95593 0.79146 0.45159 0.0
C561 C 0.94133 0.7524 0.44323 0.0
C562 C 0.89947 0.80508 0.53127 0.0
C563 C 0.98386 0.81433 0.42829 0.0
C564 C 0.92062 0.90449 0.4673 0.0
C565 C 0.95045 0.93005 0.48487 0.0
C566 C 0.9189 0.86572 0.46433 0.0
C567 C 0.9463 0.85125 0.48165 0.0
C568 C 0.97507 0.87636 0.5019 0.0
C569 C 0.97718 0.91588 0.50285 0.0
C570 C 0.88798 0.84044 0.44183 0.0
C571 C 1.00348 0.86159 0.52234 0.0
H572 H 0.8758 0.73528 0.50438 0.0
H573 H 0.95179 0.73896 0.42132 0.0
H574 H 0.92115 0.82699 0.54575 0.0
H575 H 0.87781 0.81905 0.52166 0.0
H576 H 0.88666 0.78325 0.54965 0.0
H577 H 0.99484 0.79593 0.40961 0.0
H578 H 0.97076 0.8336 0.41321 0.0
H579 H 0.0072 0.83246 0.44418 0.0
H580 H 0.89932 0.91513 0.45391 0.0
H581 H 1.00023 0.93557 0.51639 0.0
H582 H 0.86899 0.82093 0.45836 0.0
H583 H 0.89928 0.8227 0.42282 0.0
H584 H 0.87155 0.85701 0.42704 0.0
H585 H 0.98997 0.84468 0.5439 0.0
H586 H 0.02613 0.88499 0.53369 0.0
H587 H 0.01549 0.84236 0.50554 0.0
C588 C 0.45527 0.84157 0.69739 0.0
C589 C 0.44407 0.86751 0.67567 0.0
C590 C 0.4677 0.81048 0.68325 0.0
C591 C 0.46841 0.80476 0.6465 0.0
C592 C 0.45848 0.83156 0.62456 0.0
C593 C 0.44712 0.86283 0.63937 0.0
C594 C 0.47877 0.78294 0.70765 0.0
C595 C 0.45822 0.82631 0.58531 0.0
C596 C 0.52415 0.73554 0.6134 0.0
C597 C 0.49678 0.70171 0.60856 0.0
C598 C 0.5151 0.76982 0.62412 0.0
C599 C 0.47797 0.7699 0.63099 0.0
C600 C 0.45007 0.73607 0.62444 0.0
C601 C 0.45985 0.7025 0.6132 0.0
C602 C 0.54555 0.80535 0.63032 0.0
C603 C 0.41018 0.73453 0.63166 0.0
H604 H 0.45271 0.84447 0.72536 0.0
H605 H 0.43927 0.88301 0.62226 0.0
H606 H 0.45955 0.75453 0.70356 0.0
H607 H 0.50682 0.77953 0.70191 0.0
H608 H 0.4786 0.79244 0.73551 0.0
H609 H 0.45206 0.85091 0.57188 0.0
H610 H 0.48526 0.82215 0.57691 0.0
H611 H 0.43703 0.80033 0.5766 0.0
H612 H 0.55284 0.73465 0.61115 0.0
H613 H 0.43889 0.67599 0.61085 0.0
H614 H 0.54885 0.81329 0.65865 0.0
H615 H 0.53839 0.82949 0.61697 0.0
H616 H 0.57238 0.8015 0.62092 0.0
H617 H 0.40709 0.73782 0.66021 0.0
H618 H 0.39152 0.70719 0.62196 0.0
H619 H 0.40117 0.75825 0.61931 0.0
C620 C 0.94872 0.93714 0.78962 0.0
C621 C 0.91469 0.9395 0.80365 0.0
C622 C 0.95799 0.94801 0.75513 0.0
C623 C 0.93339 0.96294 0.73371 0.0
C624 C 0.89895 0.96485 0.74741 0.0
C625 C 0.88979 0.95237 0.78124 0.0
C626 C 0.99489 0.94464 0.74213 0.0
C627 C 0.87192 0.98137 0.72663 0.0
C628 C 0.97249 0.03784 0.66796 0.0
C629 C 0.96624 0.01821 0.63484 0.0
C630 C 0.96318 0.02001 0.6995 0.0
C631 C 0.94508 0.98104 0.6992 0.0
C632 C 0.93704 0.96082 0.66607 0.0
C633 C 0.94805 0.97935 0.63439 0.0
C634 C 0.97333 0.04326 0.73346 0.0
C635 C 0.91766 0.91925 0.66428 0.0
H636 H 0.96876 0.92754 0.80572 0.0
H637 H 0.86261 0.95293 0.78989 0.0
H638 H 0.99237 0.93437 0.71434 0.0
H639 H 0.01433 0.97306 0.74399 0.0
H640 H 0.00696 0.92498 0.75777 0.0
H641 H 0.846 0.98047 0.74043 0.0
H642 H 0.88469 0.01145 0.72133 0.0
H643 H 0.86497 0.96559 0.70104 0.0
H644 H 0.98604 0.06785 0.66965 0.0
H645 H 0.94323 0.96323 0.60963 0.0
H646 H 0.99145 0.03031 0.75013 0.0
H647 H 0.94812 0.04343 0.74801 0.0
H648 H 0.98798 0.07317 0.72942 0.0
H649 H 0.93522 0.90278 0.67762 0.0
H650 H 0.91143 0.9077 0.63697 0.0
H651 H 0.89149 0.91487 0.67828 0.0
C652 C 0.62064 0.10866 0.34091 0.0
C653 C 0.64042 0.1468 0.34441 0.0
C654 C 0.60174 0.09337 0.30918 0.0
C655 C 0.60312 0.11653 0.27997 0.0
C656 C 0.62366 0.15498 0.28343 0.0
C657 C 0.64159 0.16967 0.31563 0.0
C658 C 0.57971 0.05262 0.30707 0.0
C659 C 0.626 0.18103 0.25336 0.0
C660 C 0.58032 0.0757 0.18582 0.0
C661 C 0.54475 0.08133 0.17976 0.0
C662 C 0.59891 0.08507 0.21885 0.0
C663 C 0.58194 0.10129 0.24629 0.0
C664 C 0.54532 0.10525 0.24064 0.0
C665 C 0.52724 0.09499 0.20771 0.0
C666 C 0.63767 0.07992 0.22375 0.0
C667 C 0.52591 0.12251 0.2687 0.0
H668 H 0.61903 0.0911 0.36336 0.0
H669 H 0.6564 0.19929 0.31845 0.0
H670 H 0.55037 0.05146 0.30009 0.0
H671 H 0.59013 0.03638 0.28614 0.0
H672 H 0.58105 0.03835 0.33206 0.0
H673 H 0.64488 0.20933 0.25958 0.0
H674 H 0.63584 0.16798 0.22999 0.0
H675 H 0.59816 0.18523 0.24649 0.0
H676 H 0.59461 0.06656 0.16411 0.0
H677 H 0.50023 0.1006 0.2029 0.0
H678 H 0.64007 0.06409 0.24759 0.0
H679 H 0.65725 0.10817 0.22745 0.0
H680 H 0.64606 0.06437 0.20105 0.0
H681 H 0.52293 0.10467 0.2918 0.0
H682 H 0.49807 0.12518 0.2597 0.0
H683 H 0.54255 0.15118 0.27733 0.0
C684 C 0.3914 0.64714 0.34795 0.0
C685 C 0.42145 0.64643 0.32717 0.0
C686 C 0.3957 0.64863 0.38437 0.0
C687 C 0.43071 0.64915 0.39977 0.0
C688 C 0.46174 0.65171 0.3786 0.0
C689 C 0.45656 0.65018 0.34237 0.0
C690 C 0.36244 0.64741 0.40613 0.0
C691 C 0.4998 0.65236 0.39371 0.0
C692 C 0.4695 0.65853 0.49105 0.0
C693 C 0.46826 0.62022 0.49609 0.0
C694 C 0.45143 0.66882 0.46171 0.0
C695 C 0.43409 0.63999 0.43668 0.0
C696 C 0.4277 0.60123 0.44503 0.0
C697 C 0.44259 0.59212 0.47652 0.0
C698 C 0.45563 0.71039 0.45505 0.0
C699 C 0.41079 0.56929 0.41859 0.0
H700 H 0.36429 0.64465 0.33572 0.0
H701 H 0.47966 0.65035 0.3258 0.0
H702 H 0.35078 0.61781 0.41349 0.0
H703 H 0.37011 0.66532 0.43056 0.0
H704 H 0.34046 0.65713 0.39149 0.0
H705 H 0.52126 0.65886 0.3739 0.0
H706 H 0.50766 0.67383 0.41562 0.0
H707 H 0.49988 0.62412 0.40401 0.0
H708 H 0.48875 0.68032 0.50684 0.0
H709 H 0.44134 0.56245 0.48122 0.0
H710 H 0.431 0.71503 0.4405 0.0
H711 H 0.48002 0.72055 0.43913 0.0
H712 H 0.45983 0.72783 0.47995 0.0
H713 H 0.38216 0.57042 0.41125 0.0
H714 H 0.41023 0.54075 0.42859 0.0
H715 H 0.42671 0.57233 0.39443 0.0
C716 C 0.06767 0.50933 0.78069 0.0
C717 C 0.09551 0.49105 0.77226 0.0
C718 C 0.06865 0.52831 0.81319 0.0
C719 C 0.09789 0.52801 0.8376 0.0
C720 C 0.12794 0.51299 0.82768 0.0
C721 C 0.12644 0.49461 0.79476 0.0
C722 C 0.03663 0.54531 0.82245 0.0
C723 C 0.15942 0.51229 0.85309 0.0
C724 C 0.09564 0.58799 0.91887 0.0
C725 C 0.06596 0.56426 0.93435 0.0
C726 C 0.10825 0.57622 0.88743 0.0
C727 C 0.09404 0.53839 0.87453 0.0
C728 C 0.07074 0.51188 0.89518 0.0
C729 C 0.05644 0.52541 0.92508 0.0
C730 C 0.13138 0.60594 0.86563 0.0
C731 C 0.05676 0.47063 0.88313 0.0
H732 H 0.04378 0.50612 0.763 0.0
H733 H 0.14768 0.47993 0.78797 0.0
H734 H 0.01832 0.52624 0.83988 0.0
H735 H 0.04657 0.57334 0.83661 0.0
H736 H 0.01993 0.549 0.79891 0.0
H737 H 0.18401 0.50787 0.83941 0.0
H738 H 0.16748 0.539 0.86956 0.0
H739 H 0.15049 0.48856 0.87077 0.0
H740 H 0.10296 0.61805 0.92672 0.0
H741 H 0.03366 0.507 0.93756 0.0
H742 H 0.11288 0.61593 0.84682 0.0
H743 H 0.1513 0.59428 0.85036 0.0
H744 H 0.14667 0.63096 0.88203 0.0
H745 H 0.03447 0.46809 0.86273 0.0
H746 H 0.04541 0.45272 0.90496 0.0
H747 H 0.07917 0.45935 0.87154 0.0
C748 C 0.74822 0.96144 0.98769 0.0
C749 C 0.76564 0.98208 0.96013 0.0
C750 C 0.72087 0.97386 1.00666 0.0
C751 C 0.70992 0.00745 0.99757 0.0
C752 C 0.73031 0.03038 0.97229 0.0
C753 C 0.75776 0.01748 0.954 0.0
C754 C 0.70108 0.94882 0.034 0.0
C755 C 0.72054 0.0667 0.9619 0.0
C756 C 0.60601 1.00035 0.99812 0.0
C757 C 0.60124 0.02131 0.02861 0.0
C758 C 0.64083 0.99627 0.98799 0.0
C759 C 0.67294 0.01391 0.00844 0.0
C760 C 0.66891 0.03655 0.03866 0.0
C761 C 0.63315 0.04003 0.04844 0.0
C762 C 0.64291 0.97198 0.95551 0.0
C763 C 0.70212 0.05574 0.06153 0.0
H764 H 0.7534 0.93371 0.99224 0.0
H765 H 0.77046 0.03333 0.93234 0.0
H766 H 0.69534 0.96625 0.05664 0.0
H767 H 0.67423 0.93192 0.02271 0.0
H768 H 0.71735 0.92879 0.04335 0.0
H769 H 0.74162 0.08365 0.94528 0.0
H770 H 0.69358 0.05976 0.94713 0.0
H771 H 0.71764 0.08441 0.98541 0.0
H772 H 0.58192 0.98617 0.98207 0.0
H773 H 0.63019 0.05611 0.07215 0.0
H774 H 0.65398 0.9472 0.96252 0.0
H775 H 0.66199 0.98859 0.93707 0.0
H776 H 0.61555 0.96116 0.94185 0.0
H777 H 0.71031 0.03427 0.07798 0.0
H778 H 0.6962 0.07859 0.07899 0.0
H779 H 0.726 0.06806 0.04563 0.0
C780 C 0.73347 0.11814 0.44729 0.0
C781 C 0.73381 0.15681 0.44467 0.0
C782 C 0.76485 0.10638 0.45971 0.0
C783 C 0.79797 0.13388 0.46913 0.0
C784 C 0.79808 0.17306 0.46743 0.0
C785 C 0.76596 0.18402 0.45565 0.0
C786 C 0.7629 0.06436 0.46135 0.0
C787 C 0.83281 0.20342 0.47612 0.0
C788 C 0.87847 0.10136 0.51483 0.0
C789 C 0.899 0.09463 0.4862 0.0
C790 C 0.84588 0.11488 0.51 0.0
C791 C 0.83352 0.12169 0.47585 0.0
C792 C 0.85505 0.11615 0.44726 0.0
C793 C 0.88724 0.10309 0.45281 0.0
C794 C 0.82393 0.12063 0.54124 0.0
C795 C 0.84345 0.12271 0.41034 0.0
H796 H 0.70863 0.09696 0.43914 0.0
H797 H 0.76653 0.21394 0.45351 0.0
H798 H 0.78084 0.05577 0.44156 0.0
H799 H 0.77323 0.05798 0.48732 0.0
H800 H 0.73435 0.04682 0.45642 0.0
H801 H 0.8275 0.23237 0.47769 0.0
H802 H 0.8457 0.19807 0.5013 0.0
H803 H 0.85307 0.2026 0.45567 0.0
H804 H 0.88684 0.09452 0.54062 0.0
H805 H 0.90283 0.09824 0.43037 0.0
H806 H 0.79665 0.10008 0.53917 0.0
H807 H 0.81877 0.14963 0.54188 0.0
H808 H 0.83821 0.11668 0.56617 0.0
H809 H 0.8169 0.10241 0.40272 0.0
H810 H 0.86421 0.11897 0.39117 0.0
H811 H 0.839 0.15185 0.40861 0.0
C812 C 0.30059 0.66416 0.12004 0.0
C813 C 0.2971 0.67884 0.15362 0.0
C814 C 0.27023 0.65528 0.09644 0.0
C815 C 0.23592 0.66078 0.10731 0.0
C816 C 0.23216 0.67428 0.14188 0.0
C817 C 0.26315 0.68361 0.16463 0.0
C818 C 0.27526 0.64194 0.05956 0.0
C819 C 0.19562 0.67941 0.1547 0.0
C820 C 0.15514 0.6754 0.05371 0.0
C821 C 0.13176 0.63921 0.05467 0.0
C822 C 0.19175 0.68173 0.06667 0.0
C823 C 0.2034 0.65186 0.08312 0.0
C824 C 0.18056 0.6147 0.08158 0.0
C825 C 0.14547 0.60858 0.06577 0.0
C826 C 0.21661 0.72113 0.0661 0.0
C827 C 0.19105 0.58255 0.10045 0.0
H828 H 0.32742 0.66118 0.11191 0.0
H829 H 0.26114 0.69533 0.19075 0.0
H830 H 0.25474 0.61506 0.05226 0.0
H831 H 0.27048 0.6635 0.04127 0.0
H832 H 0.30336 0.63736 0.05592 0.0
H833 H 0.1971 0.68769 0.18299 0.0
H834 H 0.18675 0.70182 0.14009 0.0
H835 H 0.17404 0.65264 0.14996 0.0
H836 H 0.14423 0.69901 0.04528 0.0
H837 H 0.12688 0.58066 0.0665 0.0
H838 H 0.24547 0.71967 0.06134 0.0
H839 H 0.21658 0.73628 0.09178 0.0
H840 H 0.20717 0.73807 0.04568 0.0
H841 H 0.21664 0.57672 0.09002 0.0
H842 H 0.16902 0.55582 0.09801 0.0
H843 H 0.19662 0.5907 0.12864 0.0
C844 C 0.22868 0.50808 0.62808 0.0
C845 C 0.21277 0.4695 0.6199 0.0
C846 C 0.26693 0.52283 0.62538 0.0
C847 C 0.2895 0.4983 0.61446 0.0
C848 C 0.27345 0.45932 0.60673 0.0
C849 C 0.23546 0.44544 0.60975 0.0
C850 C 0.28323 0.56454 0.63413 0.0
C851 C 0.29648 0.432 0.59574 0.0
C852 C 0.38579 0.53922 0.58197 0.0
C853 C 0.40782 0.53847 0.61207 0.0
C854 C 0.3471 0.52643 0.58232 0.0
C855 C 0.33026 0.5125 0.6134 0.0
C856 C 0.3525 0.51072 0.64348 0.0
C857 C 0.39087 0.5235 0.64238 0.0
C858 C 0.32415 0.52866 0.54975 0.0
C859 C 0.33573 0.4962 0.67719 0.0
H860 H 0.2112 0.5267 0.63608 0.0
H861 H 0.22341 0.41538 0.60437 0.0
H862 H 0.30554 0.568 0.65463 0.0
H863 H 0.29587 0.57845 0.61071 0.0
H864 H 0.26226 0.57956 0.64335 0.0
H865 H 0.27937 0.40303 0.58869 0.0
H866 H 0.31284 0.44271 0.573 0.0
H867 H 0.31625 0.42987 0.61734 0.0
H868 H 0.39861 0.55117 0.55863 0.0
H869 H 0.40764 0.52264 0.66578 0.0
H870 H 0.30565 0.54802 0.55494 0.0
H871 H 0.30635 0.50019 0.5422 0.0
H872 H 0.34142 0.53916 0.52745 0.0
H873 H 0.31776 0.51459 0.68674 0.0
H874 H 0.35698 0.49568 0.69797 0.0
H875 H 0.31811 0.46702 0.67275 0.0
C876 C 0.9266 0.86104 0.94843 0.0
C877 C 0.92231 0.85988 0.9117 0.0
C878 C 0.94015 0.83307 0.96622 0.0
C879 C 0.94981 0.80262 0.9472 0.0
C880 C 0.94559 0.80129 0.91018 0.0
C881 C 0.93202 0.82959 0.89309 0.0
C882 C 0.94446 0.83632 1.00551 0.0
C883 C 0.95507 0.76954 0.88843 0.0
C884 C 0.01611 0.74434 0.98291 0.0
C885 C 0.99199 0.71011 0.99157 0.0
C886 C 1.00284 0.77544 0.97078 0.0
C887 C 0.9643 0.77213 0.96562 0.0
C888 C 0.93982 0.73818 0.97564 0.0
C889 C 0.95389 0.70798 0.98863 0.0
C890 C 0.03026 0.81103 0.96137 0.0
C891 C 0.89861 0.73267 0.97054 0.0
H892 H 0.91976 0.88423 0.96346 0.0
H893 H 0.9283 0.8274 0.86492 0.0
H894 H 0.9287 0.8099 0.01681 0.0
H895 H 0.9739 0.83964 0.01359 0.0
H896 H 0.93484 0.86087 0.01678 0.0
H897 H 0.95103 0.77274 0.86 0.0
H898 H 0.98424 0.76869 0.8939 0.0
H899 H 0.93759 0.7418 0.89551 0.0
H900 H 0.04551 0.74593 0.98349 0.0
H901 H 0.9349 0.68119 0.99351 0.0
H902 H 0.02286 0.8366 0.97315 0.0
H903 H 0.02953 0.81354 0.93263 0.0
H904 H 0.05888 0.81101 0.97024 0.0
H905 H 0.88937 0.7554 0.98543 0.0
H906 H 0.88319 0.7046 0.97914 0.0
H907 H 0.89131 0.73497 0.94258 0.0
C908 C 0.40664 0.79715 0.15423 0.0
C909 C 0.39967 0.78666 0.18849 0.0
C910 C 0.42002 0.83515 0.14665 0.0
C911 C 0.42683 0.86341 0.17423 0.0
C912 C 0.42129 0.85282 0.20916 0.0
C913 C 0.40776 0.81422 0.21598 0.0
C914 C 0.42554 0.84496 0.10889 0.0
C915 C 0.42792 0.88233 0.23893 0.0
C916 C 0.48622 0.94949 0.13777 0.0
C917 C 0.45889 0.96226 0.11932 0.0
C918 C 0.47648 0.91952 0.16027 0.0
C919 C 0.43866 0.90384 0.1654 0.0
C920 C 0.41177 0.9223 0.15244 0.0
C921 C 0.42225 0.95127 0.12895 0.0
C922 C 0.50604 0.90042 0.17291 0.0
C923 C 0.37125 0.90718 0.15822 0.0
H924 H 0.40046 0.7755 0.13313 0.0
H925 H 0.40202 0.80581 0.24244 0.0
H926 H 0.4064 0.86263 0.10076 0.0
H927 H 0.45409 0.86177 0.10563 0.0
H928 H 0.42044 0.81925 0.09098 0.0
H929 H 0.42579 0.86926 0.26475 0.0
H930 H 0.45558 0.90184 0.23757 0.0
H931 H 0.40729 0.89988 0.23685 0.0
H932 H 0.51459 0.95806 0.12994 0.0
H933 H 0.40116 0.96119 0.11447 0.0
H934 H 0.50649 0.87589 0.15477 0.0
H935 H 0.50042 0.88936 0.19924 0.0
H936 H 0.5338 0.92019 0.17363 0.0
H937 H 0.35976 0.8836 0.13872 0.0
H938 H 0.35572 0.92963 0.15497 0.0
H939 H 0.36679 0.89585 0.1846 0.0
C940 C 0.06906 0.36193 0.56013 0.0
C941 C 0.10479 0.3717 0.57544 0.0
C942 C 0.05371 0.32459 0.54702 0.0
C943 C 0.07394 0.29632 0.55101 0.0
C944 C 0.11066 0.3066 0.5651 0.0
C945 C 0.12579 0.34433 0.57654 0.0
C946 C 0.01494 0.31474 0.53119 0.0
C947 C 0.13275 0.27725 0.5716 0.0
C948 C 0.02295 0.1989 0.5753 0.0
C949 C 0.03283 0.17596 0.54884 0.0
C950 C 0.03534 0.23835 0.57587 0.0
C951 C 0.05475 0.25546 0.54727 0.0
C952 C 0.05962 0.23257 0.51775 0.0
C953 C 0.04959 0.19263 0.51929 0.0
C954 C 0.03193 0.26088 0.60916 0.0
C955 C 0.07793 0.25022 0.48589 0.0
H956 H 0.05267 0.38302 0.55976 0.0
H957 H 0.15306 0.35171 0.58926 0.0
H958 H 0.01293 0.29495 0.50801 0.0
H959 H 0.9955 0.30014 0.5504 0.0
H960 H 1.00595 0.34052 0.5234 0.0
H961 H 0.16134 0.29035 0.58165 0.0
H962 H 0.11893 0.25724 0.59099 0.0
H963 H 0.13428 0.26033 0.54726 0.0
H964 H 0.01033 0.18566 0.59828 0.0
H965 H 0.05766 0.17485 0.49903 0.0
H966 H 0.01876 0.28458 0.60368 0.0
H967 H 0.05985 0.27354 0.62101 0.0
H968 H 0.01557 0.24301 0.62876 0.0
H969 H 0.06577 0.27405 0.47809 0.0
H970 H 0.075 0.22915 0.46354 0.0
H971 H 0.10775 0.26224 0.49186 0.0
C972 C 0.61473 0.33501 0.48532 0.0
C973 C 0.59593 0.30098 0.49967 0.0
C974 C 0.60854 0.37061 0.49695 0.0
C975 C 0.58186 0.37212 0.52235 0.0
C976 C 0.56465 0.33826 0.5382 0.0
C977 C 0.57313 0.3038 0.52784 0.0
C978 C 0.6292 0.40645 0.4809 0.0
C979 C 0.53486 0.33764 0.56415 0.0
C980 C 0.56886 0.46664 0.56333 0.0
C981 C 0.54157 0.47444 0.54073 0.0
C982 C 0.5824 0.43353 0.55787 0.0
C983 C 0.56826 0.40762 0.52918 0.0
C984 C 0.53955 0.41474 0.50735 0.0
C985 C 0.5267 0.44783 0.51338 0.0
C986 C 0.61303 0.42724 0.58179 0.0
C987 C 0.523 0.38792 0.47683 0.0
H988 H 0.63299 0.33384 0.46409 0.0
H989 H 0.56002 0.2784 0.54086 0.0
H990 H 0.61008 0.4175 0.46368 0.0
H991 H 0.64032 0.42882 0.5016 0.0
H992 H 0.65236 0.4015 0.46526 0.0
H993 H 0.52624 0.30964 0.57618 0.0
H994 H 0.54429 0.35998 0.58517 0.0
H995 H 0.51028 0.34379 0.55067 0.0
H996 H 0.5812 0.48747 0.58393 0.0
H997 H 0.50582 0.45377 0.49557 0.0
H998 H 0.63851 0.42979 0.56695 0.0
H999 H 0.60591 0.39813 0.5917 0.0
H1000 H 0.61895 0.44816 0.60441 0.0
H1001 H 0.54436 0.38721 0.45746 0.0
H1002 H 0.49953 0.39645 0.46352 0.0
H1003 H 0.51317 0.35856 0.48572 0.0
loop_
_geom_bond_atom_site_label_1
_geom_bond_atom_site_label_2
_geom_bond_distance
_geom_bond_site_symmetry_2
_ccdc_geom_bond_type
H0 C1 0.949 . S
C1 H0 0.949 . S
C1 C2 1.395 . S
C1 C3 1.391 . S
C2 C1 1.395 . S
C2 C5 1.390 . S
C3 C1 1.391 . S
C3 C7 1.387 . S
C3 C8 1.491 . S
H4 C5 0.950 . S
C5 C2 1.390 . S
C5 H4 0.950 . S
C5 C6 1.378 . S
C6 C5 1.378 . S
C6 C7 1.409 . S
C7 C3 1.387 . S
C7 C6 1.409 . S
C7 H9 0.951 . S
C8 C3 1.491 . S
C8 C10 1.382 . S
C8 C12 1.404 . S
H9 C7 0.951 . S
C10 C8 1.382 . S
C10 C11 1.390 . S
C10 H15 0.949 . S
C11 C10 1.390 . S
C11 C16 1.399 . S
C12 C8 1.404 . S
C12 H13 0.950 . S
C12 C14 1.375 . S
H13 C12 0.950 . S
C14 C12 1.375 . S
C14 C16 1.382 . S
C14 H18 0.950 . S
H15 C10 0.949 . S
C16 C11 1.399 . S
C16 C14 1.382 . S
C16 H17 0.952 . S
H17 C16 0.952 . S
H18 C14 0.950 . S
H19 C20 0.949 . S
C20 H19 0.949 . S
C20 C21 1.395 . S
C20 C22 1.391 . S
C21 C20 1.395 . S
C21 C24 1.390 . S
C22 C20 1.391 . S
C22 C26 1.387 . S
C22 C27 1.491 . S
H23 C24 0.950 . S
C24 C21 1.390 . S
C24 H23 0.950 . S
C24 C25 1.378 . S
C25 C24 1.378 . S
C25 C26 1.409 . S
C26 C22 1.387 . S
C26 C25 1.409 . S
C26 H28 0.951 . S
C27 C22 1.491 . S
C27 C29 1.382 . S
C27 C31 1.404 . S
H28 C26 0.951 . S
C29 C27 1.382 . S
C29 C30 1.390 . S
C29 H34 0.949 . S
C30 C29 1.390 . S
C30 C35 1.399 . S
C31 C27 1.404 . S
C31 H32 0.950 . S
C31 C33 1.375 . S
H32 C31 0.950 . S
C33 C31 1.375 . S
C33 C35 1.382 . S
C33 H37 0.950 . S
H34 C29 0.949 . S
C35 C30 1.399 . S
C35 C33 1.382 . S
C35 H36 0.952 . S
H36 C35 0.952 . S
H37 C33 0.950 . S
H38 C39 0.949 . S
C39 H38 0.949 . S
C39 C40 1.395 . S
C39 C41 1.391 . S
C40 C39 1.395 . S
C40 C43 1.390 . S
C41 C39 1.391 . S
C41 C45 1.387 . S
C41 C46 1.491 . S
H42 C43 0.950 . S
C43 C40 1.390 . S
C43 H42 0.950 . S
C43 C44 1.378 . S
C44 C43 1.378 . S
C44 C45 1.409 . S
C45 C41 1.387 . S
C45 C44 1.409 . S
C45 H47 0.951 . S
C46 C41 1.491 . S
C46 C48 1.382 . S
C46 C50 1.404 . S
H47 C45 0.951 . S
C48 C46 1.382 . S
C48 C49 1.390 . S
C48 H53 0.949 . S
C49 C48 1.390 . S
C49 C54 1.399 . S
C50 C46 1.404 . S
C50 H51 0.950 . S
C50 C52 1.375 . S
H51 C50 0.950 . S
C52 C50 1.375 . S
C52 C54 1.382 . S
C52 H56 0.950 . S
H53 C48 0.949 . S
C54 C49 1.399 . S
C54 C52 1.382 . S
C54 H55 0.952 . S
H55 C54 0.952 . S
H56 C52 0.950 . S
H57 C58 0.949 . S
C58 H57 0.949 . S
C58 C59 1.395 . S
C58 C60 1.391 . S
C59 C58 1.395 . S
C59 C62 1.390 . S
C60 C58 1.391 . S
C60 C64 1.387 . S
C60 C65 1.491 . S
H61 C62 0.950 . S
C62 C59 1.390 . S
C62 H61 0.950 . S
C62 C63 1.378 . S
C63 C62 1.378 . S
C63 C64 1.409 . S
C64 C60 1.387 . S
C64 C63 1.409 . S
C64 H66 0.951 . S
C65 C60 1.491 . S
C65 C67 1.382 . S
C65 C69 1.404 . S
H66 C64 0.951 . S
C67 C65 1.382 . S
C67 C68 1.390 . S
C67 H72 0.949 . S
C68 C67 1.390 . S
C68 C73 1.399 . S
C69 C65 1.404 . S
C69 H70 0.950 . S
C69 C71 1.375 . S
H70 C69 0.950 . S
C71 C69 1.375 . S
C71 C73 1.382 . S
C71 H75 0.950 . S
H72 C67 0.949 . S
C73 C68 1.399 . S
C73 C71 1.382 . S
C73 H74 0.952 . S
H74 C73 0.952 . S
H75 C71 0.950 . S
H76 C77 0.949 . S
C77 H76 0.949 . S
C77 C78 1.395 . S
C77 C79 1.391 . S
C78 C77 1.395 . S
C78 C81 1.390 . S
C79 C77 1.391 . S
C79 C83 1.387 . S
C79 C84 1.491 . S
H80 C81 0.950 . S
C81 C78 1.390 . S
C81 H80 0.950 . S
C81 C82 1.378 . S
C82 C81 1.378 . S
C82 C83 1.409 . S
C83 C79 1.387 . S
C83 C82 1.409 . S
C83 H85 0.951 . S
C84 C79 1.491 . S
C84 C86 1.382 . S
C84 C88 1.404 . S
H85 C83 0.951 . S
C86 C84 1.382 . S
C86 C87 1.390 . S
C86 H91 0.949 . S
C87 C86 1.390 . S
C87 C92 1.399 . S
C88 C84 1.404 . S
C88 H89 0.950 . S
C88 C90 1.375 . S
H89 C88 0.950 . S
C90 C88 1.375 . S
C90 C92 1.382 . S
C90 H94 0.950 . S
H91 C86 0.949 . S
C92 C87 1.399 . S
C92 C90 1.382 . S
C92 H93 0.952 . S
H93 C92 0.952 . S
H94 C90 0.950 . S
H95 C96 0.949 . S
C96 H95 0.949 . S
C96 C97 1.395 . S
C96 C98 1.391 . S
C97 C96 1.395 . S
C97 C100 1.390 . S
C98 C96 1.391 . S
C98 C102 1.387 . S
C98 C103 1.491 . S
H99 C100 0.950 . S
C100 C97 1.390 . S
C100 H99 0.950 . S
C100 C101 1.378 . S
C101 C100 1.378 . S
C101 C102 1.409 . S
C102 C98 1.387 . S
C102 C101 1.409 . S
C102 H104 0.951 . S
C103 C98 1.491 . S
C103 C105 1.382 . S
C103 C107 1.404 . S
H104 C102 0.951 . S
C105 C103 1.382 . S
C105 C106 1.390 . S
C105 H110 0.949 . S
C106 C105 1.390 . S
C106 C111 1.399 . S
C107 C103 1.404 . S
C107 H108 0.950 . S
C107 C109 1.375 . S
H108 C107 0.950 . S
C109 C107 1.375 . S
C109 C111 1.382 . S
C109 H113 0.950 . S
H110 C105 0.949 . S
C111 C106 1.399 . S
C111 C109 1.382 . S
C111 H112 0.952 . S
H112 C111 0.952 . S
H113 C109 0.950 . S
H114 C115 0.949 . S
C115 H114 0.949 . S
C115 C116 1.395 . S
C115 C117 1.391 . S
C116 C115 1.395 . S
C116 C119 1.390 . S
C117 C115 1.391 . S
C117 C121 1.387 . S
C117 C122 1.491 . S
H118 C119 0.950 . S
C119 C116 1.390 . S
C119 H118 0.950 . S
C119 C120 1.378 . S
C120 C119 1.378 . S
C120 C121 1.409 . S
C121 C117 1.387 . S
C121 C120 1.409 . S
C121 H123 0.951 . S
C122 C117 1.491 . S
C122 C124 1.382 . S
C122 C126 1.404 . S
H123 C121 0.951 . S
C124 C122 1.382 . S
C124 C125 1.390 . S
C124 H129 0.949 . S
C125 C124 1.390 . S
C125 C130 1.399 . S
C126 C122 1.404 . S
C126 H127 0.950 . S
C126 C128 1.375 . S
H127 C126 0.950 . S
C128 C126 1.375 . S
C128 C130 1.382 . S
C128 H132 0.950 . S
H129 C124 0.949 . S
C130 C125 1.399 . S
C130 C128 1.382 . S
C130 H131 0.952 . S
H131 C130 0.952 . S
H132 C128 0.950 . S
H133 C134 0.949 . S
C134 H133 0.949 . S
C134 C135 1.395 . S
C134 C136 1.391 . S
C135 C134 1.395 . S
C135 C138 1.390 . S
C136 C134 1.391 . S
C136 C140 1.387 . S
C136 C141 1.491 . S
H137 C138 0.950 . S
C138 C135 1.390 . S
C138 H137 0.950 . S
C138 C139 1.378 . S
C139 C138 1.378 . S
C139 C140 1.409 . S
C140 C136 1.387 . S
C140 C139 1.409 . S
C140 H142 0.951 . S
C141 C136 1.491 . S
C141 C143 1.382 . S
C141 C145 1.404 . S
H142 C140 0.951 . S
C143 C141 1.382 . S
C143 C144 1.390 . S
C143 H148 0.949 . S
C144 C143 1.390 . S
C144 C149 1.399 . S
C145 C141 1.404 . S
C145 H146 0.950 . S
C145 C147 1.375 . S
H146 C145 0.950 . S
C147 C145 1.375 . S
C147 C149 1.382 . S
C147 H151 0.950 . S
H148 C143 0.949 . S
C149 C144 1.399 . S
C149 C147 1.382 . S
C149 H150 0.952 . S
H150 C149 0.952 . S
H151 C147 0.950 . S
O152 Mn153 2.163 1_655 S
O152 C166 1.244 . S
Mn153 O152 2.163 1_455 S
Mn153 O156 2.160 . S
Mn153 O157 2.221 . S
Mn153 O159 2.163 1_455 S
Mn153 O161 2.160 . S
Mn153 O171 2.221 1_445 S
O154 Mn155 2.087 . S
O154 C166 1.256 . S
Mn155 O154 2.087 . S
Mn155 O162 2.089 . S
Mn155 O171 2.290 1_545 S
Mn155 O172 2.251 1_545 S
O156 Mn153 2.160 . S
O156 C167 1.239 . S
O157 Mn153 2.221 . S
O157 Mn158 2.290 . S
O157 C168 1.278 . S
Mn158 O157 2.290 . S
Mn158 O160 2.089 . S
Mn158 O163 2.251 . S
Mn158 O164 2.087 . S
O159 Mn153 2.163 1_655 S
O159 C169 1.244 . S
O160 Mn158 2.089 . S
O160 C167 1.256 . S
O161 Mn153 2.160 . S
O161 C170 1.239 . S
O162 Mn155 2.089 . S
O162 C170 1.256 1_655 S
O163 Mn158 2.251 . S
O163 C168 1.241 . S
O164 Mn158 2.087 . S
O164 C169 1.256 1_455 S
C165 O171 1.278 . S
C165 O172 1.241 . S
C166 O152 1.244 . S
C166 O154 1.256 . S
C167 O156 1.239 . S
C167 O160 1.256 . S
C168 O157 1.278 . S
C168 O163 1.241 . S
C169 O159 1.244 . S
C169 O164 1.256 1_655 S
C170 O161 1.239 . S
C170 O162 1.256 1_455 S
O171 Mn153 2.221 1_665 S
O171 Mn155 2.290 1_565 S
O171 C165 1.278 . S
O172 Mn155 2.251 1_565 S
O172 C165 1.241 . S
O173 Mn174 2.163 . S
O173 C187 1.244 1_554 S
Mn174 O173 2.163 . S
Mn174 O177 2.160 . S
Mn174 O178 2.221 . S
Mn174 O180 2.163 . S
Mn174 O182 2.160 . S
Mn174 O192 2.221 1_545 S
O175 Mn176 2.087 1_556 S
O175 C187 1.256 1_565 S
Mn176 O175 2.087 1_554 S
Mn176 O183 2.089 . S
Mn176 O192 2.290 . S
Mn176 O193 2.251 . S
O177 Mn174 2.160 . S
O177 C188 1.239 . S
O178 Mn174 2.221 . S
O178 Mn179 2.290 . S
O178 C189 1.278 . S
Mn179 O178 2.290 . S
Mn179 O181 2.089 . S
Mn179 O184 2.251 . S
Mn179 O185 2.087 . S
O180 Mn174 2.163 . S
O180 C190 1.244 . S
O181 Mn179 2.089 . S
O181 C188 1.256 . S
O182 Mn174 2.160 . S
O182 C191 1.239 . S
O183 Mn176 2.089 . S
O183 C191 1.256 1_565 S
O184 Mn179 2.251 . S
O184 C189 1.241 . S
O185 Mn179 2.087 . S
O185 C190 1.256 . S
C186 O192 1.278 . S
C186 O193 1.241 . S
C187 O173 1.244 1_556 S
C187 O175 1.256 1_545 S
C188 O177 1.239 . S
C188 O181 1.256 . S
C189 O178 1.278 . S
C189 O184 1.241 . S
C190 O180 1.244 . S
C190 O185 1.256 . S
C191 O182 1.239 . S
C191 O183 1.256 1_545 S
O192 Mn174 2.221 1_565 S
O192 Mn176 2.290 . S
O192 C186 1.278 . S
O193 Mn176 2.251 . S
O193 C186 1.241 . S
O194 Mn195 2.163 . S
O194 C208 1.244 . S
Mn195 O194 2.163 . S
Mn195 O198 2.160 . S
Mn195 O199 2.221 . S
Mn195 O201 2.163 . S
Mn195 O203 2.160 . S
Mn195 O213 2.221 . S
O196 Mn197 2.087 . S
O196 C208 1.256 . S
Mn197 O196 2.087 . S
Mn197 O204 2.089 . S
Mn197 O213 2.290 . S
Mn197 O214 2.251 . S
O198 Mn195 2.160 . S
O198 C209 1.239 . S
O199 Mn195 2.221 . S
O199 Mn200 2.290 . S
O199 C210 1.278 . S
Mn200 O199 2.290 . S
Mn200 O202 2.089 . S
Mn200 O205 2.251 . S
Mn200 O206 2.087 . S
O201 Mn195 2.163 . S
O201 C211 1.244 . S
O202 Mn200 2.089 . S
O202 C209 1.256 . S
O203 Mn195 2.160 . S
O203 C212 1.239 . S
O204 Mn197 2.089 . S
O204 C212 1.256 . S
O205 Mn200 2.251 . S
O205 C210 1.241 . S
O206 Mn200 2.087 . S
O206 C211 1.256 . S
C207 O213 1.278 . S
C207 O214 1.241 . S
C208 O194 1.244 . S
C208 O196 1.256 . S
C209 O198 1.239 . S
C209 O202 1.256 . S
C210 O199 1.278 . S
C210 O205 1.241 . S
C211 O201 1.244 . S
C211 O206 1.256 . S
C212 O203 1.239 . S
C212 O204 1.256 . S
O213 Mn195 2.221 . S
O213 Mn197 2.290 . S
O213 C207 1.278 . S
O214 Mn197 2.251 . S
O214 C207 1.241 . S
O215 Mn216 2.163 1_655 S
O215 C229 1.244 1_554 S
Mn216 O215 2.163 1_455 S
Mn216 O219 2.160 . S
Mn216 O220 2.221 . S
Mn216 O222 2.163 . S
Mn216 O224 2.160 . S
Mn216 O234 2.221 1_554 S
O217 Mn218 2.087 . S
O217 C229 1.256 . S
Mn218 O217 2.087 . S
Mn218 O225 2.089 . S
Mn218 O234 2.290 1_655 S
Mn218 O235 2.251 1_655 S
O219 Mn216 2.160 . S
O219 C230 1.239 . S
O220 Mn216 2.221 . S
O220 Mn221 2.290 . S
O220 C231 1.278 1_455 S
Mn221 O220 2.290 . S
Mn221 O223 2.089 . S
Mn221 O226 2.251 1_455 S
Mn221 O227 2.087 . S
O222 Mn216 2.163 . S
O222 C232 1.244 . S
O223 Mn221 2.089 . S
O223 C230 1.256 . S
O224 Mn216 2.160 . S
O224 C233 1.239 1_454 S
O225 Mn218 2.089 . S
O225 C233 1.256 . S
O226 Mn221 2.251 1_655 S
O226 C231 1.241 . S
O227 Mn221 2.087 . S
O227 C232 1.256 . S
C228 O234 1.278 . S
C228 O235 1.241 . S
C229 O215 1.244 1_556 S
C229 O217 1.256 . S
C230 O219 1.239 . S
C230 O223 1.256 . S
C231 O220 1.278 1_655 S
C231 O226 1.241 . S
C232 O222 1.244 . S
C232 O227 1.256 . S
C233 O224 1.239 1_656 S
C233 O225 1.256 . S
O234 Mn216 2.221 1_556 S
O234 Mn218 2.290 1_455 S
O234 C228 1.278 . S
O235 Mn218 2.251 1_455 S
O235 C228 1.241 . S
C236 C237 1.391 . S
C236 C238 1.394 . S
C236 H252 0.931 . S
C237 C236 1.391 . S
C237 C241 1.376 . S
C238 C236 1.394 . S
C238 C239 1.369 . S
C238 C242 1.531 . S
C239 C238 1.369 . S
C239 C240 1.410 . S
C239 C247 1.503 . S
C240 C239 1.410 . S
C240 C241 1.392 . S
C240 C243 1.511 . S
C241 C237 1.376 . S
C241 C240 1.392 . S
C241 H253 0.929 . S
C242 C238 1.531 . S
C242 H254 0.960 . S
C242 H255 0.962 . S
C242 H256 0.960 . S
C243 C240 1.511 . S
C243 H257 0.961 . S
C243 H258 0.961 . S
C243 H259 0.961 . S
C244 C245 1.370 . S
C244 C246 1.363 . S
C244 H260 0.931 . S
C245 C244 1.370 . S
C245 C249 1.408 . S
C246 C244 1.363 . S
C246 C247 1.370 . S
C246 C250 1.524 . S
C247 C239 1.503 . S
C247 C246 1.370 . S
C247 C248 1.403 . S
C248 C247 1.403 . S
C248 C249 1.404 . S
C248 C251 1.539 . S
C249 C245 1.408 . S
C249 C248 1.404 . S
C249 H261 0.930 . S
C250 C246 1.524 . S
C250 H262 0.956 . S
C250 H263 0.961 . S
C250 H264 0.961 . S
C251 C248 1.539 . S
C251 H265 0.958 . S
C251 H266 0.961 . S
C251 H267 0.960 . S
H252 C236 0.931 . S
H253 C241 0.929 . S
H254 C242 0.960 . S
H255 C242 0.962 . S
H256 C242 0.960 . S
H257 C243 0.961 . S
H258 C243 0.961 . S
H259 C243 0.961 . S
H260 C244 0.931 . S
H261 C249 0.930 . S
H262 C250 0.956 . S
H263 C250 0.961 . S
H264 C250 0.961 . S
H265 C251 0.958 . S
H266 C251 0.961 . S
H267 C251 0.960 . S
C268 C269 1.389 . S
C268 C270 1.394 1_565 S
C268 H284 0.932 1_565 S
C269 C268 1.389 . S
C269 C273 1.376 . S
C270 C268 1.394 1_545 S
C270 C271 1.369 1_545 S
C270 C274 1.531 . S
C271 C270 1.369 1_565 S
C271 C272 1.410 . S
C271 C279 1.503 . S
C272 C271 1.410 . S
C272 C273 1.392 . S
C272 C275 1.511 . S
C273 C269 1.376 . S
C273 C272 1.392 . S
C273 H285 0.929 . S
C274 C270 1.531 . S
C274 H286 0.960 . S
C274 H287 0.962 . S
C274 H288 0.960 . S
C275 C272 1.511 . S
C275 H289 0.961 . S
C275 H290 0.961 . S
C275 H291 0.961 . S
C276 C277 1.370 1_565 S
C276 C278 1.363 . S
C276 H292 0.931 . S
C277 C276 1.370 1_545 S
C277 C281 1.408 . S
C278 C276 1.363 . S
C278 C279 1.370 . S
C278 C282 1.524 . S
C279 C271 1.503 . S
C279 C278 1.370 . S
C279 C280 1.403 1_565 S
C280 C279 1.403 1_545 S
C280 C281 1.404 . S
C280 C283 1.539 . S
C281 C277 1.408 . S
C281 C280 1.404 . S
C281 H293 0.930 . S
C282 C278 1.524 . S
C282 H294 0.956 . S
C282 H295 0.961 . S
C282 H296 0.961 . S
C283 C280 1.539 . S
C283 H297 0.958 . S
C283 H298 0.961 . S
C283 H299 0.960 . S
H284 C268 0.932 1_545 S
H285 C273 0.929 . S
H286 C274 0.960 . S
H287 C274 0.962 . S
H288 C274 0.960 . S
H289 C275 0.961 . S
H290 C275 0.961 . S
H291 C275 0.961 . S
H292 C276 0.931 . S
H293 C281 0.930 . S
H294 C282 0.956 . S
H295 C282 0.961 . S
H296 C282 0.961 . S
H297 C283 0.958 . S
H298 C283 0.961 . S
H299 C283 0.960 . S
C300 C301 1.391 . S
C300 C302 1.394 . S
C300 H316 0.931 . S
C301 C300 1.391 . S
C301 C305 1.376 . S
C302 C300 1.394 . S
C302 C303 1.369 . S
C302 C306 1.531 . S
C303 C302 1.369 . S
C303 C304 1.410 . S
C303 C311 1.503 . S
C304 C303 1.410 . S
C304 C305 1.392 . S
C304 C307 1.511 . S
C305 C301 1.376 . S
C305 C304 1.392 . S
C305 H317 0.929 . S
C306 C302 1.531 . S
C306 H318 0.960 . S
C306 H319 0.962 . S
C306 H320 0.960 . S
C307 C304 1.511 . S
C307 H321 0.961 . S
C307 H322 0.961 . S
C307 H323 0.961 . S
C308 C309 1.370 . S
C308 C310 1.363 . S
C308 H324 0.931 . S
C309 C308 1.370 . S
C309 C313 1.408 . S
C310 C308 1.363 . S
C310 C311 1.370 . S
C310 C314 1.524 . S
C311 C303 1.503 . S
C311 C310 1.370 . S
C311 C312 1.403 . S
C312 C311 1.403 . S
C312 C313 1.404 . S
C312 C315 1.539 . S
C313 C309 1.408 . S
C313 C312 1.404 . S
C313 H325 0.930 . S
C314 C310 1.524 . S
C314 H326 0.956 . S
C314 H327 0.961 . S
C314 H328 0.961 . S
C315 C312 1.539 . S
C315 H329 0.958 . S
C315 H330 0.961 . S
C315 H331 0.960 . S
H316 C300 0.931 . S
H317 C305 0.929 . S
H318 C306 0.960 . S
H319 C306 0.962 . S
H320 C306 0.960 . S
H321 C307 0.961 . S
H322 C307 0.961 . S
H323 C307 0.961 . S
H324 C308 0.931 . S
H325 C313 0.930 . S
H326 C314 0.956 . S
H327 C314 0.961 . S
H328 C314 0.961 . S
H329 C315 0.958 . S
H330 C315 0.961 . S
H331 C315 0.960 . S
C332 C333 1.391 . S
C332 C334 1.394 . S
C332 H348 0.931 . S
C333 C332 1.391 . S
C333 C337 1.376 . S
C334 C332 1.394 . S
C334 C335 1.369 . S
C334 C338 1.531 . S
C335 C334 1.369 . S
C335 C336 1.410 . S
C335 C343 1.503 . S
C336 C335 1.410 . S
C336 C337 1.392 . S
C336 C339 1.511 . S
C337 C333 1.376 . S
C337 C336 1.392 . S
C337 H349 0.929 . S
C338 C334 1.531 . S
C338 H350 0.960 . S
C338 H351 0.962 . S
C338 H352 0.960 . S
C339 C336 1.511 . S
C339 H353 0.961 . S
C339 H354 0.961 . S
C339 H355 0.961 1_655 S
C340 C341 1.370 . S
C340 C342 1.363 . S
C340 H356 0.931 . S
C341 C340 1.370 . S
C341 C345 1.408 . S
C342 C340 1.363 . S
C342 C343 1.370 . S
C342 C346 1.524 . S
C343 C335 1.503 . S
C343 C342 1.370 . S
C343 C344 1.403 . S
C344 C343 1.403 . S
C344 C345 1.404 . S
C344 C347 1.539 . S
C345 C341 1.408 . S
C345 C344 1.404 . S
C345 H357 0.930 . S
C346 C342 1.524 . S
C346 H358 0.956 . S
C346 H359 0.961 . S
C346 H360 0.961 . S
C347 C344 1.539 . S
C347 H361 0.958 . S
C347 H362 0.961 1_655 S
C347 H363 0.960 . S
H348 C332 0.931 . S
H349 C337 0.929 . S
H350 C338 0.960 . S
H351 C338 0.962 . S
H352 C338 0.960 . S
H353 C339 0.961 . S
H354 C339 0.961 . S
H355 C339 0.961 1_455 S
H356 C340 0.931 . S
H357 C345 0.930 . S
H358 C346 0.956 . S
H359 C346 0.961 . S
H360 C346 0.961 . S
H361 C347 0.958 . S
H362 C347 0.961 1_455 S
H363 C347 0.960 . S
C364 C365 1.391 . S
C364 C366 1.394 . S
C364 H380 0.931 . S
C365 C364 1.391 . S
C365 C369 1.376 . S
C366 C364 1.394 . S
C366 C367 1.369 . S
C366 C370 1.531 . S
C367 C366 1.369 . S
C367 C368 1.410 . S
C367 C375 1.503 . S
C368 C367 1.410 . S
C368 C369 1.392 . S
C368 C371 1.511 . S
C369 C365 1.376 . S
C369 C368 1.392 . S
C369 H381 0.929 . S
C370 C366 1.531 . S
C370 H382 0.960 . S
C370 H383 0.962 . S
C370 H384 0.960 . S
C371 C368 1.511 . S
C371 H385 0.961 . S
C371 H386 0.961 . S
C371 H387 0.961 . S
C372 C373 1.370 . S
C372 C374 1.363 . S
C372 H388 0.931 . S
C373 C372 1.370 . S
C373 C377 1.408 . S
C374 C372 1.363 . S
C374 C375 1.370 . S
C374 C378 1.524 . S
C375 C367 1.503 . S
C375 C374 1.370 . S
C375 C376 1.403 . S
C376 C375 1.403 . S
C376 C377 1.404 . S
C376 C379 1.539 . S
C377 C373 1.408 . S
C377 C376 1.404 . S
C377 H389 0.930 . S
C378 C374 1.524 . S
C378 H390 0.956 . S
C378 H391 0.961 . S
C378 H392 0.961 . S
C379 C376 1.539 . S
C379 H393 0.958 . S
C379 H394 0.961 . S
C379 H395 0.960 . S
H380 C364 0.931 . S
H381 C369 0.929 . S
H382 C370 0.960 . S
H383 C370 0.962 . S
H384 C370 0.960 . S
H385 C371 0.961 . S
H386 C371 0.961 . S
H387 C371 0.961 . S
H388 C372 0.931 . S
H389 C377 0.930 . S
H390 C378 0.956 . S
H391 C378 0.961 . S
H392 C378 0.961 . S
H393 C379 0.958 . S
H394 C379 0.961 . S
H395 C379 0.960 . S
C396 C397 1.391 . S
C396 C398 1.397 . S
C396 H412 0.931 1_565 S
C397 C396 1.391 . S
C397 C401 1.376 . S
C398 C396 1.397 . S
C398 C399 1.370 . S
C398 C402 1.526 1_565 S
C399 C398 1.370 . S
C399 C400 1.410 . S
C399 C407 1.503 . S
C400 C399 1.410 . S
C400 C401 1.392 . S
C400 C403 1.511 . S
C401 C397 1.376 . S
C401 C400 1.392 . S
C401 H413 0.929 . S
C402 C398 1.526 1_545 S
C402 H414 0.960 . S
C402 H415 0.962 . S
C402 H416 0.960 . S
C403 C400 1.511 . S
C403 H417 0.961 . S
C403 H418 0.961 . S
C403 H419 0.961 . S
C404 C405 1.370 . S
C404 C406 1.363 . S
C404 H420 0.931 . S
C405 C404 1.370 . S
C405 C409 1.408 1_545 S
C406 C404 1.363 . S
C406 C407 1.370 1_545 S
C406 C410 1.524 . S
C407 C399 1.503 . S
C407 C406 1.370 1_565 S
C407 C408 1.403 . S
C408 C407 1.403 . S
C408 C409 1.404 . S
C408 C411 1.539 . S
C409 C405 1.408 1_565 S
C409 C408 1.404 . S
C409 H421 0.930 . S
C410 C406 1.524 . S
C410 H422 0.956 . S
C410 H423 0.961 . S
C410 H424 0.961 . S
C411 C408 1.539 . S
C411 H425 0.958 . S
C411 H426 0.961 . S
C411 H427 0.960 . S
H412 C396 0.931 1_545 S
H413 C401 0.929 . S
H414 C402 0.960 . S
H415 C402 0.962 . S
H416 C402 0.960 . S
H417 C403 0.961 . S
H418 C403 0.961 . S
H419 C403 0.961 . S
H420 C404 0.931 . S
H421 C409 0.930 . S
H422 C410 0.956 . S
H423 C410 0.961 . S
H424 C410 0.961 . S
H425 C411 0.958 . S
H426 C411 0.961 . S
H427 C411 0.960 . S
C428 C429 1.391 . S
C428 C430 1.394 . S
C428 H444 0.931 . S
C429 C428 1.391 . S
C429 C433 1.376 . S
C430 C428 1.394 . S
C430 C431 1.369 . S
C430 C434 1.531 . S
C431 C430 1.369 . S
C431 C432 1.410 . S
C431 C439 1.503 . S
C432 C431 1.410 . S
C432 C433 1.392 . S
C432 C435 1.511 . S
C433 C429 1.376 . S
C433 C432 1.392 . S
C433 H445 0.929 . S
C434 C430 1.531 . S
C434 H446 0.960 . S
C434 H447 0.962 . S
C434 H448 0.960 . S
C435 C432 1.511 . S
C435 H449 0.961 . S
C435 H450 0.961 . S
C435 H451 0.961 . S
C436 C437 1.370 1_554 S
C436 C438 1.363 1_554 S
C436 H452 0.931 . S
C437 C436 1.370 1_556 S
C437 C441 1.408 . S
C438 C436 1.363 1_556 S
C438 C439 1.370 . S
C438 C442 1.524 1_556 S
C439 C431 1.503 . S
C439 C438 1.370 . S
C439 C440 1.403 . S
C440 C439 1.403 . S
C440 C441 1.404 . S
C440 C443 1.539 . S
C441 C437 1.408 . S
C441 C440 1.404 . S
C441 H453 0.930 . S
C442 C438 1.524 1_554 S
C442 H454 0.956 . S
C442 H455 0.961 . S
C442 H456 0.961 . S
C443 C440 1.539 . S
C443 H457 0.958 . S
C443 H458 0.961 . S
C443 H459 0.960 . S
H444 C428 0.931 . S
H445 C433 0.929 . S
H446 C434 0.960 . S
H447 C434 0.962 . S
H448 C434 0.960 . S
H449 C435 0.961 . S
H450 C435 0.961 . S
H451 C435 0.961 . S
H452 C436 0.931 . S
H453 C441 0.930 . S
H454 C442 0.956 . S
H455 C442 0.961 . S
H456 C442 0.961 . S
H457 C443 0.958 . S
H458 C443 0.961 . S
H459 C443 0.960 . S
C460 C461 1.391 . S
C460 C462 1.394 . S
C460 H476 0.931 . S
C461 C460 1.391 . S
C461 C465 1.376 . S
C462 C460 1.394 . S
C462 C463 1.369 . S
C462 C466 1.531 . S
C463 C462 1.369 . S
C463 C464 1.410 . S
C463 C471 1.503 . S
C464 C463 1.410 . S
C464 C465 1.392 . S
C464 C467 1.511 . S
C465 C461 1.376 . S
C465 C464 1.392 . S
C465 H477 0.929 . S
C466 C462 1.531 . S
C466 H478 0.960 . S
C466 H479 0.962 . S
C466 H480 0.960 . S
C467 C464 1.511 . S
C467 H481 0.961 . S
C467 H482 0.961 . S
C467 H483 0.961 . S
C468 C469 1.370 . S
C468 C470 1.363 . S
C468 H484 0.931 . S
C469 C468 1.370 . S
C469 C473 1.408 . S
C470 C468 1.363 . S
C470 C471 1.370 . S
C470 C474 1.524 . S
C471 C463 1.503 . S
C471 C470 1.370 . S
C471 C472 1.403 . S
C472 C471 1.403 . S
C472 C473 1.404 . S
C472 C475 1.539 . S
C473 C469 1.408 . S
C473 C472 1.404 . S
C473 H485 0.930 . S
C474 C470 1.524 . S
C474 H486 0.956 . S
C474 H487 0.961 . S
C474 H488 0.961 . S
C475 C472 1.539 . S
C475 H489 0.958 . S
C475 H490 0.961 . S
C475 H491 0.960 . S
H476 C460 0.931 . S
H477 C465 0.929 . S
H478 C466 0.960 . S
H479 C466 0.962 . S
H480 C466 0.960 . S
H481 C467 0.961 . S
H482 C467 0.961 . S
H483 C467 0.961 . S
H484 C468 0.931 . S
H485 C473 0.930 . S
H486 C474 0.956 . S
H487 C474 0.961 . S
H488 C474 0.961 . S
H489 C475 0.958 . S
H490 C475 0.961 . S
H491 C475 0.960 . S
C492 C493 1.391 . S
C492 C494 1.394 . S
C492 H508 0.931 . S
C493 C492 1.391 . S
C493 C497 1.376 . S
C494 C492 1.394 . S
C494 C495 1.369 . S
C494 C498 1.531 . S
C495 C494 1.369 . S
C495 C496 1.410 . S
C495 C503 1.503 . S
C496 C495 1.410 . S
C496 C497 1.392 . S
C496 C499 1.511 . S
C497 C493 1.376 . S
C497 C496 1.392 . S
C497 H509 0.929 . S
C498 C494 1.531 . S
C498 H510 0.960 . S
C498 H511 0.962 . S
C498 H512 0.960 . S
C499 C496 1.511 . S
C499 H513 0.961 . S
C499 H514 0.961 . S
C499 H515 0.961 1_554 S
C500 C501 1.370 . S
C500 C502 1.363 . S
C500 H516 0.931 . S
C501 C500 1.370 . S
C501 C505 1.408 . S
C502 C500 1.363 . S
C502 C503 1.370 . S
C502 C506 1.524 . S
C503 C495 1.503 . S
C503 C502 1.370 . S
C503 C504 1.403 . S
C504 C503 1.403 . S
C504 C505 1.404 . S
C504 C507 1.539 . S
C505 C501 1.408 . S
C505 C504 1.404 . S
C505 H517 0.930 . S
C506 C502 1.524 . S
C506 H518 0.956 . S
C506 H519 0.961 . S
C506 H520 0.961 1_455 S
C507 C504 1.539 . S
C507 H521 0.958 . S
C507 H522 0.961 1_554 S
C507 H523 0.960 . S
H508 C492 0.931 . S
H509 C497 0.929 . S
H510 C498 0.960 . S
H511 C498 0.962 . S
H512 C498 0.960 . S
H513 C499 0.961 . S
H514 C499 0.961 . S
H515 C499 0.961 1_556 S
H516 C500 0.931 . S
H517 C505 0.930 . S
H518 C506 0.956 . S
H519 C506 0.961 . S
H520 C506 0.961 1_655 S
H521 C507 0.958 . S
H522 C507 0.961 1_556 S
H523 C507 0.960 . S
C524 C525 1.391 . S
C524 C526 1.394 . S
C524 H540 0.931 . S
C525 C524 1.391 . S
C525 C529 1.376 . S
C526 C524 1.394 . S
C526 C527 1.369 . S
C526 C530 1.531 1_556 S
C527 C526 1.369 . S
C527 C528 1.410 . S
C527 C535 1.503 . S
C528 C527 1.410 . S
C528 C529 1.392 . S
C528 C531 1.511 . S
C529 C525 1.376 . S
C529 C528 1.392 . S
C529 H541 0.929 . S
C530 C526 1.531 1_554 S
C530 H542 0.960 . S
C530 H543 0.955 1_554 S
C530 H544 0.960 . S
C531 C528 1.511 . S
C531 H545 0.961 . S
C531 H546 0.961 . S
C531 H547 0.961 . S
C532 C533 1.370 1_556 S
C532 C534 1.363 . S
C532 H548 0.931 . S
C533 C532 1.370 1_554 S
C533 C537 1.408 . S
C534 C532 1.363 . S
C534 C535 1.370 . S
C534 C538 1.524 . S
C535 C527 1.503 . S
C535 C534 1.370 . S
C535 C536 1.403 1_556 S
C536 C535 1.403 1_554 S
C536 C537 1.404 . S
C536 C539 1.539 . S
C537 C533 1.408 . S
C537 C536 1.404 . S
C537 H549 0.930 . S
C538 C534 1.524 . S
C538 H550 0.956 . S
C538 H551 0.961 . S
C538 H552 0.961 . S
C539 C536 1.539 . S
C539 H553 0.958 . S
C539 H554 0.961 . S
C539 H555 0.960 . S
H540 C524 0.931 . S
H541 C529 0.929 . S
H542 C530 0.960 . S
H543 C530 0.955 1_556 S
H544 C530 0.960 . S
H545 C531 0.961 . S
H546 C531 0.961 . S
H547 C531 0.961 . S
H548 C532 0.931 . S
H549 C537 0.930 . S
H550 C538 0.956 . S
H551 C538 0.961 . S
H552 C538 0.961 . S
H553 C539 0.958 . S
H554 C539 0.961 . S
H555 C539 0.960 . S
C556 C557 1.391 . S
C556 C558 1.394 . S
C556 H572 0.931 . S
C557 C556 1.391 . S
C557 C561 1.376 . S
C558 C556 1.394 . S
C558 C559 1.369 . S
C558 C562 1.531 . S
C559 C558 1.369 . S
C559 C560 1.410 . S
C559 C567 1.503 . S
C560 C559 1.410 . S
C560 C561 1.392 . S
C560 C563 1.511 . S
C561 C557 1.376 . S
C561 C560 1.392 . S
C561 H573 0.929 . S
C562 C558 1.531 . S
C562 H574 0.960 . S
C562 H575 0.962 . S
C562 H576 0.960 . S
C563 C560 1.511 . S
C563 H577 0.961 . S
C563 H578 0.961 . S
C563 H579 0.961 . S
C564 C565 1.370 . S
C564 C566 1.363 . S
C564 H580 0.931 . S
C565 C564 1.370 . S
C565 C569 1.408 . S
C566 C564 1.363 . S
C566 C567 1.370 . S
C566 C570 1.524 . S
C567 C559 1.503 . S
C567 C566 1.370 . S
C567 C568 1.403 . S
C568 C567 1.403 . S
C568 C569 1.404 . S
C568 C571 1.539 . S
C569 C565 1.408 . S
C569 C568 1.404 . S
C569 H581 0.930 . S
C570 C566 1.524 . S
C570 H582 0.956 . S
C570 H583 0.961 . S
C570 H584 0.961 . S
C571 C568 1.539 . S
C571 H585 0.958 . S
C571 H586 0.961 1_655 S
C571 H587 0.960 . S
H572 C556 0.931 . S
H573 C561 0.929 . S
H574 C562 0.960 . S
H575 C562 0.962 . S
H576 C562 0.960 . S
H577 C563 0.961 . S
H578 C563 0.961 . S
H579 C563 0.961 . S
H580 C564 0.931 . S
H581 C569 0.930 . S
H582 C570 0.956 . S
H583 C570 0.961 . S
H584 C570 0.961 . S
H585 C571 0.958 . S
H586 C571 0.961 1_455 S
H587 C571 0.960 . S
C588 C589 1.391 . S
C588 C590 1.394 . S
C588 H604 0.931 . S
C589 C588 1.391 . S
C589 C593 1.376 . S
C590 C588 1.394 . S
C590 C591 1.369 . S
C590 C594 1.531 . S
C591 C590 1.369 . S
C591 C592 1.410 . S
C591 C599 1.503 . S
C592 C591 1.410 . S
C592 C593 1.392 . S
C592 C595 1.511 . S
C593 C589 1.376 . S
C593 C592 1.392 . S
C593 H605 0.929 . S
C594 C590 1.531 . S
C594 H606 0.960 . S
C594 H607 0.962 . S
C594 H608 0.960 . S
C595 C592 1.511 . S
C595 H609 0.961 . S
C595 H610 0.961 . S
C595 H611 0.961 . S
C596 C597 1.370 . S
C596 C598 1.363 . S
C596 H612 0.931 . S
C597 C596 1.370 . S
C597 C601 1.408 . S
C598 C596 1.363 . S
C598 C599 1.370 . S
C598 C602 1.524 . S
C599 C591 1.503 . S
C599 C598 1.370 . S
C599 C600 1.403 . S
C600 C599 1.403 . S
C600 C601 1.404 . S
C600 C603 1.539 . S
C601 C597 1.408 . S
C601 C600 1.404 . S
C601 H613 0.930 . S
C602 C598 1.524 . S
C602 H614 0.956 . S
C602 H615 0.961 . S
C602 H616 0.961 . S
C603 C600 1.539 . S
C603 H617 0.958 . S
C603 H618 0.961 . S
C603 H619 0.960 . S
H604 C588 0.931 . S
H605 C593 0.929 . S
H606 C594 0.960 . S
H607 C594 0.962 . S
H608 C594 0.960 . S
H609 C595 0.961 . S
H610 C595 0.961 . S
H611 C595 0.961 . S
H612 C596 0.931 . S
H613 C601 0.930 . S
H614 C602 0.956 . S
H615 C602 0.961 . S
H616 C602 0.961 . S
H617 C603 0.958 . S
H618 C603 0.961 . S
H619 C603 0.960 . S
C620 C621 1.391 . S
C620 C622 1.394 . S
C620 H636 0.931 . S
C621 C620 1.391 . S
C621 C625 1.376 . S
C622 C620 1.394 . S
C622 C623 1.369 . S
C622 C626 1.534 . S
C623 C622 1.369 . S
C623 C624 1.410 . S
C623 C631 1.503 . S
C624 C623 1.410 . S
C624 C625 1.392 . S
C624 C627 1.511 . S
C625 C621 1.376 . S
C625 C624 1.392 . S
C625 H637 0.929 . S
C626 C622 1.534 . S
C626 H638 0.961 . S
C626 H639 0.959 1_655 S
C626 H640 0.959 1_655 S
C627 C624 1.511 . S
C627 H641 0.961 1_565 S
C627 H642 0.961 1_565 S
C627 H643 0.961 . S
C628 C629 1.370 1_545 S
C628 C630 1.363 . S
C628 H644 0.931 . S
C629 C628 1.370 1_565 S
C629 C633 1.408 . S
C630 C628 1.363 . S
C630 C631 1.370 1_545 S
C630 C634 1.524 . S
C631 C623 1.503 . S
C631 C630 1.370 1_565 S
C631 C632 1.403 . S
C632 C631 1.403 . S
C632 C633 1.404 . S
C632 C635 1.539 . S
C633 C629 1.408 . S
C633 C632 1.404 . S
C633 H645 0.930 . S
C634 C630 1.524 . S
C634 H646 0.956 1_655 S
C634 H647 0.961 . S
C634 H648 0.961 1_655 S
C635 C632 1.539 . S
C635 H649 0.958 . S
C635 H650 0.961 . S
C635 H651 0.960 . S
H636 C620 0.931 . S
H637 C625 0.929 . S
H638 C626 0.961 . S
H639 C626 0.959 1_455 S
H640 C626 0.959 1_455 S
H641 C627 0.961 1_545 S
H642 C627 0.961 1_545 S
H643 C627 0.961 . S
H644 C628 0.931 . S
H645 C633 0.930 . S
H646 C634 0.956 1_455 S
H647 C634 0.961 . S
H648 C634 0.961 1_455 S
H649 C635 0.958 . S
H650 C635 0.961 . S
H651 C635 0.960 . S
C652 C653 1.391 . S
C652 C654 1.394 . S
C652 H668 0.931 . S
C653 C652 1.391 . S
C653 C657 1.376 . S
C654 C652 1.394 . S
C654 C655 1.369 . S
C654 C658 1.531 . S
C655 C654 1.369 . S
C655 C656 1.410 . S
C655 C663 1.503 . S
C656 C655 1.410 . S
C656 C657 1.392 . S
C656 C659 1.511 . S
C657 C653 1.376 . S
C657 C656 1.392 . S
C657 H669 0.929 . S
C658 C654 1.531 . S
C658 H670 0.960 . S
C658 H671 0.962 . S
C658 H672 0.960 . S
C659 C656 1.511 . S
C659 H673 0.961 . S
C659 H674 0.961 . S
C659 H675 0.961 . S
C660 C661 1.370 . S
C660 C662 1.363 . S
C660 H676 0.931 . S
C661 C660 1.370 . S
C661 C665 1.408 . S
C662 C660 1.363 . S
C662 C663 1.370 . S
C662 C666 1.524 . S
C663 C655 1.503 . S
C663 C662 1.370 . S
C663 C664 1.403 . S
C664 C663 1.403 . S
C664 C665 1.404 . S
C664 C667 1.539 . S
C665 C661 1.408 . S
C665 C664 1.404 . S
C665 H677 0.930 . S
C666 C662 1.524 . S
C666 H678 0.956 . S
C666 H679 0.961 . S
C666 H680 0.961 . S
C667 C664 1.539 . S
C667 H681 0.958 . S
C667 H682 0.961 . S
C667 H683 0.960 . S
H668 C652 0.931 . S
H669 C657 0.929 . S
H670 C658 0.960 . S
H671 C658 0.962 . S
H672 C658 0.960 . S
H673 C659 0.961 . S
H674 C659 0.961 . S
H675 C659 0.961 . S
H676 C660 0.931 . S
H677 C665 0.930 . S
H678 C666 0.956 . S
H679 C666 0.961 . S
H680 C666 0.961 . S
H681 C667 0.958 . S
H682 C667 0.961 . S
H683 C667 0.960 . S
C684 C685 1.391 . S
C684 C686 1.394 . S
C684 H700 0.931 . S
C685 C684 1.391 . S
C685 C689 1.376 . S
C686 C684 1.394 . S
C686 C687 1.369 . S
C686 C690 1.531 . S
C687 C686 1.369 . S
C687 C688 1.410 . S
C687 C695 1.503 . S
C688 C687 1.410 . S
C688 C689 1.392 . S
C688 C691 1.511 . S
C689 C685 1.376 . S
C689 C688 1.392 . S
C689 H701 0.929 . S
C690 C686 1.531 . S
C690 H702 0.960 . S
C690 H703 0.962 . S
C690 H704 0.960 . S
C691 C688 1.511 . S
C691 H705 0.961 . S
C691 H706 0.961 . S
C691 H707 0.961 . S
C692 C693 1.370 . S
C692 C694 1.363 . S
C692 H708 0.931 . S
C693 C692 1.370 . S
C693 C697 1.408 . S
C694 C692 1.363 . S
C694 C695 1.370 . S
C694 C698 1.524 . S
C695 C687 1.503 . S
C695 C694 1.370 . S
C695 C696 1.403 . S
C696 C695 1.403 . S
C696 C697 1.404 . S
C696 C699 1.539 . S
C697 C693 1.408 . S
C697 C696 1.404 . S
C697 H709 0.930 . S
C698 C694 1.524 . S
C698 H710 0.956 . S
C698 H711 0.961 . S
C698 H712 0.961 . S
C699 C696 1.539 . S
C699 H713 0.958 . S
C699 H714 0.961 . S
C699 H715 0.960 . S
H700 C684 0.931 . S
H701 C689 0.929 . S
H702 C690 0.960 . S
H703 C690 0.962 . S
H704 C690 0.960 . S
H705 C691 0.961 . S
H706 C691 0.961 . S
H707 C691 0.961 . S
H708 C692 0.931 . S
H709 C697 0.930 . S
H710 C698 0.956 . S
H711 C698 0.961 . S
H712 C698 0.961 . S
H713 C699 0.958 . S
H714 C699 0.961 . S
H715 C699 0.960 . S
C716 C717 1.391 . S
C716 C718 1.394 . S
C716 H732 0.931 . S
C717 C716 1.391 . S
C717 C721 1.376 . S
C718 C716 1.394 . S
C718 C719 1.369 . S
C718 C722 1.531 . S
C719 C718 1.369 . S
C719 C720 1.410 . S
C719 C727 1.503 . S
C720 C719 1.410 . S
C720 C721 1.392 . S
C720 C723 1.511 . S
C721 C717 1.376 . S
C721 C720 1.392 . S
C721 H733 0.929 . S
C722 C718 1.531 . S
C722 H734 0.960 1_455 S
C722 H735 0.962 . S
C722 H736 0.960 1_455 S
C723 C720 1.511 . S
C723 H737 0.961 . S
C723 H738 0.961 . S
C723 H739 0.961 . S
C724 C725 1.370 . S
C724 C726 1.363 . S
C724 H740 0.931 . S
C725 C724 1.370 . S
C725 C729 1.408 . S
C726 C724 1.363 . S
C726 C727 1.370 . S
C726 C730 1.524 . S
C727 C719 1.503 . S
C727 C726 1.370 . S
C727 C728 1.403 . S
C728 C727 1.403 . S
C728 C729 1.404 . S
C728 C731 1.539 . S
C729 C725 1.408 . S
C729 C728 1.404 . S
C729 H741 0.930 . S
C730 C726 1.524 . S
C730 H742 0.956 . S
C730 H743 0.961 . S
C730 H744 0.961 . S
C731 C728 1.539 . S
C731 H745 0.958 . S
C731 H746 0.961 . S
C731 H747 0.960 . S
H732 C716 0.931 . S
H733 C721 0.929 . S
H734 C722 0.960 1_655 S
H735 C722 0.962 . S
H736 C722 0.960 1_655 S
H737 C723 0.961 . S
H738 C723 0.961 . S
H739 C723 0.961 . S
H740 C724 0.931 . S
H741 C729 0.930 . S
H742 C730 0.956 . S
H743 C730 0.961 . S
H744 C730 0.961 . S
H745 C731 0.958 . S
H746 C731 0.961 . S
H747 C731 0.960 . S
C748 C749 1.391 . S
C748 C750 1.394 1_556 S
C748 H764 0.931 1_556 S
C749 C748 1.391 . S
C749 C753 1.376 1_565 S
C750 C748 1.394 1_554 S
C750 C751 1.346 1_564 S
C750 C754 1.531 . S
C751 C750 1.346 1_546 S
C751 C752 1.421 . S
C751 C759 1.514 1_556 S
C752 C751 1.421 . S
C752 C753 1.392 . S
C752 C755 1.511 . S
C753 C749 1.376 1_545 S
C753 C752 1.392 . S
C753 H765 0.929 . S
C754 C750 1.531 . S
C754 H766 0.960 . S
C754 H767 0.962 . S
C754 H768 0.960 . S
C755 C752 1.511 . S
C755 H769 0.961 . S
C755 H770 0.961 . S
C755 H771 0.961 . S
C756 C757 1.370 1_566 S
C756 C758 1.363 . S
C756 H772 0.931 . S
C757 C756 1.370 1_544 S
C757 C761 1.408 . S
C758 C756 1.363 . S
C758 C759 1.370 1_566 S
C758 C762 1.524 . S
C759 C751 1.514 1_554 S
C759 C758 1.370 1_544 S
C759 C760 1.403 . S
C760 C759 1.403 . S
C760 C761 1.404 . S
C760 C763 1.539 . S
C761 C757 1.408 . S
C761 C760 1.404 . S
C761 H773 0.930 . S
C762 C758 1.524 . S
C762 H774 0.956 . S
C762 H775 0.961 . S
C762 H776 0.961 . S
C763 C760 1.539 . S
C763 H777 0.958 . S
C763 H778 0.961 . S
C763 H779 0.960 . S
H764 C748 0.931 1_554 S
H765 C753 0.929 . S
H766 C754 0.960 . S
H767 C754 0.962 . S
H768 C754 0.960 . S
H769 C755 0.961 . S
H770 C755 0.961 . S
H771 C755 0.961 . S
H772 C756 0.931 . S
H773 C761 0.930 . S
H774 C762 0.956 . S
H775 C762 0.961 . S
H776 C762 0.961 . S
H777 C763 0.958 . S
H778 C763 0.961 . S
H779 C763 0.960 . S
C780 C781 1.391 . S
C780 C782 1.394 . S
C780 H796 0.931 . S
C781 C780 1.391 . S
C781 C785 1.376 . S
C782 C780 1.394 . S
C782 C783 1.369 . S
C782 C786 1.531 . S
C783 C782 1.369 . S
C783 C784 1.410 . S
C783 C791 1.503 . S
C784 C783 1.410 . S
C784 C785 1.392 . S
C784 C787 1.511 . S
C785 C781 1.376 . S
C785 C784 1.392 . S
C785 H797 0.929 . S
C786 C782 1.531 . S
C786 H798 0.960 . S
C786 H799 0.962 . S
C786 H800 0.960 . S
C787 C784 1.511 . S
C787 H801 0.961 . S
C787 H802 0.961 . S
C787 H803 0.961 . S
C788 C789 1.370 . S
C788 C790 1.363 . S
C788 H804 0.931 . S
C789 C788 1.370 . S
C789 C793 1.408 . S
C790 C788 1.363 . S
C790 C791 1.370 . S
C790 C794 1.524 . S
C791 C783 1.503 . S
C791 C790 1.370 . S
C791 C792 1.403 . S
C792 C791 1.403 . S
C792 C793 1.404 . S
C792 C795 1.539 . S
C793 C789 1.408 . S
C793 C792 1.404 . S
C793 H805 0.930 . S
C794 C790 1.524 . S
C794 H806 0.956 . S
C794 H807 0.961 . S
C794 H808 0.961 . S
C795 C792 1.539 . S
C795 H809 0.958 . S
C795 H810 0.961 . S
C795 H811 0.960 . S
H796 C780 0.931 . S
H797 C785 0.929 . S
H798 C786 0.960 . S
H799 C786 0.962 . S
H800 C786 0.960 . S
H801 C787 0.961 . S
H802 C787 0.961 . S
H803 C787 0.961 . S
H804 C788 0.931 . S
H805 C793 0.930 . S
H806 C794 0.956 . S
H807 C794 0.961 . S
H808 C794 0.961 . S
H809 C795 0.958 . S
H810 C795 0.961 . S
H811 C795 0.960 . S
C812 C813 1.391 . S
C812 C814 1.394 . S
C812 H828 0.931 . S
C813 C812 1.391 . S
C813 C817 1.376 . S
C814 C812 1.394 . S
C814 C815 1.369 . S
C814 C818 1.531 . S
C815 C814 1.369 . S
C815 C816 1.410 . S
C815 C823 1.503 . S
C816 C815 1.410 . S
C816 C817 1.392 . S
C816 C819 1.511 . S
C817 C813 1.376 . S
C817 C816 1.392 . S
C817 H829 0.929 . S
C818 C814 1.531 . S
C818 H830 0.960 . S
C818 H831 0.962 . S
C818 H832 0.960 . S
C819 C816 1.511 . S
C819 H833 0.961 . S
C819 H834 0.961 . S
C819 H835 0.961 . S
C820 C821 1.370 . S
C820 C822 1.363 . S
C820 H836 0.931 . S
C821 C820 1.370 . S
C821 C825 1.408 . S
C822 C820 1.363 . S
C822 C823 1.370 . S
C822 C826 1.524 . S
C823 C815 1.503 . S
C823 C822 1.370 . S
C823 C824 1.403 . S
C824 C823 1.403 . S
C824 C825 1.404 . S
C824 C827 1.539 . S
C825 C821 1.408 . S
C825 C824 1.404 . S
C825 H837 0.930 . S
C826 C822 1.524 . S
C826 H838 0.956 . S
C826 H839 0.961 . S
C826 H840 0.961 . S
C827 C824 1.539 . S
C827 H841 0.958 . S
C827 H842 0.961 . S
C827 H843 0.960 . S
H828 C812 0.931 . S
H829 C817 0.929 . S
H830 C818 0.960 . S
H831 C818 0.962 . S
H832 C818 0.960 . S
H833 C819 0.961 . S
H834 C819 0.961 . S
H835 C819 0.961 . S
H836 C820 0.931 . S
H837 C825 0.930 . S
H838 C826 0.956 . S
H839 C826 0.961 . S
H840 C826 0.961 . S
H841 C827 0.958 . S
H842 C827 0.961 . S
H843 C827 0.960 . S
C844 C845 1.391 . S
C844 C846 1.394 . S
C844 H860 0.931 . S
C845 C844 1.391 . S
C845 C849 1.376 . S
C846 C844 1.394 . S
C846 C847 1.369 . S
C846 C850 1.531 . S
C847 C846 1.369 . S
C847 C848 1.410 . S
C847 C855 1.503 . S
C848 C847 1.410 . S
C848 C849 1.392 . S
C848 C851 1.511 . S
C849 C845 1.376 . S
C849 C848 1.392 . S
C849 H861 0.929 . S
C850 C846 1.531 . S
C850 H862 0.960 . S
C850 H863 0.962 . S
C850 H864 0.960 . S
C851 C848 1.511 . S
C851 H865 0.961 . S
C851 H866 0.961 . S
C851 H867 0.961 . S
C852 C853 1.370 . S
C852 C854 1.363 . S
C852 H868 0.931 . S
C853 C852 1.370 . S
C853 C857 1.408 . S
C854 C852 1.363 . S
C854 C855 1.370 . S
C854 C858 1.524 . S
C855 C847 1.503 . S
C855 C854 1.370 . S
C855 C856 1.403 . S
C856 C855 1.403 . S
C856 C857 1.404 . S
C856 C859 1.539 . S
C857 C853 1.408 . S
C857 C856 1.404 . S
C857 H869 0.930 . S
C858 C854 1.524 . S
C858 H870 0.956 . S
C858 H871 0.961 . S
C858 H872 0.961 . S
C859 C856 1.539 . S
C859 H873 0.958 . S
C859 H874 0.961 . S
C859 H875 0.960 . S
H860 C844 0.931 . S
H861 C849 0.929 . S
H862 C850 0.960 . S
H863 C850 0.962 . S
H864 C850 0.960 . S
H865 C851 0.961 . S
H866 C851 0.961 . S
H867 C851 0.961 . S
H868 C852 0.931 . S
H869 C857 0.930 . S
H870 C858 0.956 . S
H871 C858 0.961 . S
H872 C858 0.961 . S
H873 C859 0.958 . S
H874 C859 0.961 . S
H875 C859 0.960 . S
C876 C877 1.391 . S
C876 C878 1.394 . S
C876 H892 0.931 . S
C877 C876 1.391 . S
C877 C881 1.376 . S
C878 C876 1.394 . S
C878 C879 1.369 . S
C878 C882 1.531 1_556 S
C879 C878 1.369 . S
C879 C880 1.410 . S
C879 C887 1.503 . S
C880 C879 1.410 . S
C880 C881 1.392 . S
C880 C883 1.511 . S
C881 C877 1.376 . S
C881 C880 1.392 . S
C881 H893 0.929 . S
C882 C878 1.531 1_554 S
C882 H894 0.960 . S
C882 H895 0.962 . S
C882 H896 0.960 . S
C883 C880 1.511 . S
C883 H897 0.961 . S
C883 H898 0.961 . S
C883 H899 0.961 . S
C884 C885 1.370 1_455 S
C884 C886 1.363 1_455 S
C884 H900 0.931 . S
C885 C884 1.370 1_655 S
C885 C889 1.408 . S
C886 C884 1.363 1_655 S
C886 C887 1.370 . S
C886 C890 1.524 1_655 S
C887 C879 1.503 . S
C887 C886 1.370 . S
C887 C888 1.403 . S
C888 C887 1.403 . S
C888 C889 1.404 . S
C888 C891 1.539 . S
C889 C885 1.408 . S
C889 C888 1.404 . S
C889 H901 0.930 . S
C890 C886 1.524 1_455 S
C890 H902 0.956 . S
C890 H903 0.961 . S
C890 H904 0.961 . S
C891 C888 1.539 . S
C891 H905 0.958 . S
C891 H906 0.961 . S
C891 H907 0.960 . S
H892 C876 0.931 . S
H893 C881 0.929 . S
H894 C882 0.960 . S
H895 C882 0.962 . S
H896 C882 0.960 . S
H897 C883 0.961 . S
H898 C883 0.961 . S
H899 C883 0.961 . S
H900 C884 0.931 . S
H901 C889 0.930 . S
H902 C890 0.956 . S
H903 C890 0.961 . S
H904 C890 0.961 . S
H905 C891 0.958 . S
H906 C891 0.961 . S
H907 C891 0.960 . S
C908 C909 1.391 . S
C908 C910 1.394 . S
C908 H924 0.931 . S
C909 C908 1.391 . S
C909 C913 1.376 . S
C910 C908 1.394 . S
C910 C911 1.369 . S
C910 C914 1.531 . S
C911 C910 1.369 . S
C911 C912 1.410 . S
C911 C919 1.503 . S
C912 C911 1.410 . S
C912 C913 1.392 . S
C912 C915 1.511 . S
C913 C909 1.376 . S
C913 C912 1.392 . S
C913 H925 0.929 . S
C914 C910 1.531 . S
C914 H926 0.960 . S
C914 H927 0.962 . S
C914 H928 0.960 . S
C915 C912 1.511 . S
C915 H929 0.961 . S
C915 H930 0.961 . S
C915 H931 0.961 . S
C916 C917 1.370 . S
C916 C918 1.363 . S
C916 H932 0.931 . S
C917 C916 1.370 . S
C917 C921 1.408 . S
C918 C916 1.363 . S
C918 C919 1.370 . S
C918 C922 1.524 . S
C919 C911 1.503 . S
C919 C918 1.370 . S
C919 C920 1.403 . S
C920 C919 1.403 . S
C920 C921 1.404 . S
C920 C923 1.539 . S
C921 C917 1.408 . S
C921 C920 1.404 . S
C921 H933 0.930 . S
C922 C918 1.524 . S
C922 H934 0.956 . S
C922 H935 0.961 . S
C922 H936 0.961 . S
C923 C920 1.539 . S
C923 H937 0.958 . S
C923 H938 0.961 . S
C923 H939 0.960 . S
H924 C908 0.931 . S
H925 C913 0.929 . S
H926 C914 0.960 . S
H927 C914 0.962 . S
H928 C914 0.960 . S
H929 C915 0.961 . S
H930 C915 0.961 . S
H931 C915 0.961 . S
H932 C916 0.931 . S
H933 C921 0.930 . S
H934 C922 0.956 . S
H935 C922 0.961 . S
H936 C922 0.961 . S
H937 C923 0.958 . S
H938 C923 0.961 . S
H939 C923 0.960 . S
C940 C941 1.391 . S
C940 C942 1.394 . S
C940 H956 0.931 . S
C941 C940 1.391 . S
C941 C945 1.376 . S
C942 C940 1.394 . S
C942 C943 1.369 . S
C942 C946 1.531 . S
C943 C942 1.369 . S
C943 C944 1.410 . S
C943 C951 1.503 . S
C944 C943 1.410 . S
C944 C945 1.392 . S
C944 C947 1.511 . S
C945 C941 1.376 . S
C945 C944 1.392 . S
C945 H957 0.929 . S
C946 C942 1.531 . S
C946 H958 0.960 . S
C946 H959 0.977 . S
C946 H960 0.960 . S
C947 C944 1.511 . S
C947 H961 0.961 . S
C947 H962 0.961 . S
C947 H963 0.961 . S
C948 C949 1.370 . S
C948 C950 1.363 . S
C948 H964 0.931 . S
C949 C948 1.370 . S
C949 C953 1.408 . S
C950 C948 1.363 . S
C950 C951 1.370 . S
C950 C954 1.524 . S
C951 C943 1.503 . S
C951 C950 1.370 . S
C951 C952 1.403 . S
C952 C951 1.403 . S
C952 C953 1.404 . S
C952 C955 1.539 . S
C953 C949 1.408 . S
C953 C952 1.404 . S
C953 H965 0.930 . S
C954 C950 1.524 . S
C954 H966 0.956 . S
C954 H967 0.961 . S
C954 H968 0.961 . S
C955 C952 1.539 . S
C955 H969 0.958 . S
C955 H970 0.961 . S
C955 H971 0.960 . S
H956 C940 0.931 . S
H957 C945 0.929 . S
H958 C946 0.960 . S
H959 C946 0.977 . S
H960 C946 0.960 . S
H961 C947 0.961 . S
H962 C947 0.961 . S
H963 C947 0.961 . S
H964 C948 0.931 . S
H965 C953 0.930 . S
H966 C954 0.956 . S
H967 C954 0.961 . S
H968 C954 0.961 . S
H969 C955 0.958 . S
H970 C955 0.961 . S
H971 C955 0.960 . S
C972 C973 1.391 . S
C972 C974 1.394 . S
C972 H988 0.931 . S
C973 C972 1.391 . S
C973 C977 1.376 . S
C974 C972 1.394 . S
C974 C975 1.369 . S
C974 C978 1.531 . S
C975 C974 1.369 . S
C975 C976 1.410 . S
C975 C983 1.503 . S
C976 C975 1.410 . S
C976 C977 1.392 . S
C976 C979 1.511 . S
C977 C973 1.376 . S
C977 C976 1.392 . S
C977 H989 0.929 . S
C978 C974 1.531 . S
C978 H990 0.960 . S
C978 H991 0.962 . S
C978 H992 0.960 . S
C979 C976 1.511 . S
C979 H993 0.961 . S
C979 H994 0.961 . S
C979 H995 0.961 . S
C980 C981 1.370 . S
C980 C982 1.363 . S
C980 H996 0.931 . S
C981 C980 1.370 . S
C981 C985 1.408 . S
C982 C980 1.363 . S
C982 C983 1.370 . S
C982 C986 1.524 . S
C983 C975 1.503 . S
C983 C982 1.370 . S
C983 C984 1.403 . S
C984 C983 1.403 . S
C984 C985 1.404 . S
C984 C987 1.539 . S
C985 C981 1.408 . S
C985 C984 1.404 . S
C985 H997 0.930 . S
C986 C982 1.524 . S
C986 H998 0.956 . S
C986 H999 0.961 . S
C986 H1000 0.961 . S
C987 C984 1.539 . S
C987 H1001 0.958 . S
C987 H1002 0.961 . S
C987 H1003 0.960 . S
H988 C972 0.931 . S
H989 C977 0.929 . S
H990 C978 0.960 . S
H991 C978 0.962 . S
H992 C978 0.960 . S
H993 C979 0.961 . S
H994 C979 0.961 . S
H995 C979 0.961 . S
H996 C980 0.931 . S
H997 C985 0.930 . S
H998 C986 0.956 . S
H999 C986 0.961 . S
H1000 C986 0.961 . S
H1001 C987 0.958 . S
H1002 C987 0.961 . S
H1003 C987 0.960 . S
C237 C6 1.880 . S
C245 C170 1.817 . S
C269 C21 1.990 . S
C277 C187 1.962 . S
C309 C210 0.828 . S
C301 C49 0.906 . S
C333 C68 1.431 . S
C341 C231 1.252 . S
C373 C190 2.384 . S
C365 C2 2.440 . S
C405 C167 1.368 . S
C397 C30 1.202 . S
C437 C229 1.094 . S
C429 C40 1.122 . S
C469 C208 1.199 . S
C461 C63 1.282 . S
C493 C11 1.556 . S
C501 C232 1.700 . S
C533 C189 1.412 . S
C525 C44 1.738 . S
C557 C59 1.380 . S
C565 C165 1.233 . S
C589 C25 1.699 . S
C597 C211 1.676 . S
C629 C169 2.003 1_565 S
C621 C82 2.071 . S
C653 C101 1.585 . S
C661 C188 1.563 . S
C685 C125 1.198 . S
C693 C207 1.077 . S
C717 C144 0.998 . S
C725 C228 1.006 . S
C749 C87 1.371 . S
C757 C191 1.468 . S
C789 C166 2.370 . S
C781 C97 2.367 . S
C821 C230 0.992 . S
C813 C120 1.094 . S
C853 C209 1.356 . S
C845 C135 1.354 . S
C877 C78 1.886 . S
C885 C233 1.827 . S
C917 C186 0.988 . S
C909 C116 1.070 . S
C949 C168 1.410 . S
C941 C139 1.592 . S
C973 C106 1.347 . S
C981 C212 1.496 . S
