# Generated by pormake.
# Topology zzz, (3,6)-cn, num edge types: 1
# Building blocks:
#     Node 0, Type 0, BuildingBlock: QEWDON_clean_linker_0, # of connection points: 3
#     Node 1, Type 0, BuildingBlock: QEWDON_clean_linker_0, # of connection points: 3
#     Node 2, Type 0, BuildingBlock: QEWDON_clean_linker_0, # of connection points: 3
#     Node 3, Type 0, BuildingBlock: QEWDON_clean_linker_0, # of connection points: 3
#     Node 4, Type 0, BuildingBlock: QEWDON_clean_linker_0, # of connection points: 3
#     Node 5, Type 0, BuildingBlock: QEWDON_clean_linker_0, # of connection points: 3
#     Node 6, Type 0, BuildingBlock: QEWDON_clean_linker_0, # of connection points: 3
#     Node 7, Type 0, BuildingBlock: QEWDON_clean_linker_0, # of connection points: 3
#     Node 8, Type 1, BuildingBlock: KUMJIN_clean_sbu_0, # of connection points: 6
#     Node 9, Type 1, BuildingBlock: KUMJIN_clean_sbu_0, # of connection points: 6
#     Node 10, Type 1, BuildingBlock: KUMJIN_clean_sbu_0, # of connection points: 6
#     Node 11, Type 1, BuildingBlock: KUMJIN_clean_sbu_0, # of connection points: 6
#     Edge 12, Type (0, 1), BuildingBlock: TEMPAE_clean_linker_10, # of connection points: 2
#     Edge 13, Type (0, 1), BuildingBlock: TEMPAE_clean_linker_10, # of connection points: 2
#     Edge 14, Type (0, 1), BuildingBlock: TEMPAE_clean_linker_10, # of connection points: 2
#     Edge 15, Type (0, 1), BuildingBlock: TEMPAE_clean_linker_10, # of connection points: 2
#     Edge 16, Type (0, 1), BuildingBlock: TEMPAE_clean_linker_10, # of connection points: 2
#     Edge 17, Type (0, 1), BuildingBlock: TEMPAE_clean_linker_10, # of connection points: 2
#     Edge 18, Type (0, 1), BuildingBlock: TEMPAE_clean_linker_10, # of connection points: 2
#     Edge 19, Type (0, 1), BuildingBlock: TEMPAE_clean_linker_10, # of connection points: 2
#     Edge 20, Type (0, 1), BuildingBlock: TEMPAE_clean_linker_10, # of connection points: 2
#     Edge 21, Type (0, 1), BuildingBlock: TEMPAE_clean_linker_10, # of connection points: 2
#     Edge 22, Type (0, 1), BuildingBlock: TEMPAE_clean_linker_10, # of connection points: 2
#     Edge 23, Type (0, 1), BuildingBlock: TEMPAE_clean_linker_10, # of connection points: 2
#     Edge 24, Type (0, 1), BuildingBlock: TEMPAE_clean_linker_10, # of connection points: 2
#     Edge 25, Type (0, 1), BuildingBlock: TEMPAE_clean_linker_10, # of connection points: 2
#     Edge 26, Type (0, 1), BuildingBlock: TEMPAE_clean_linker_10, # of connection points: 2
#     Edge 27, Type (0, 1), BuildingBlock: TEMPAE_clean_linker_10, # of connection points: 2
#     Edge 28, Type (0, 1), BuildingBlock: TEMPAE_clean_linker_10, # of connection points: 2
#     Edge 29, Type (0, 1), BuildingBlock: TEMPAE_clean_linker_10, # of connection points: 2
#     Edge 30, Type (0, 1), BuildingBlock: TEMPAE_clean_linker_10, # of connection points: 2
#     Edge 31, Type (0, 1), BuildingBlock: TEMPAE_clean_linker_10, # of connection points: 2
#     Edge 32, Type (0, 1), BuildingBlock: TEMPAE_clean_linker_10, # of connection points: 2
#     Edge 33, Type (0, 1), BuildingBlock: TEMPAE_clean_linker_10, # of connection points: 2
#     Edge 34, Type (0, 1), BuildingBlock: TEMPAE_clean_linker_10, # of connection points: 2
#     Edge 35, Type (0, 1), BuildingBlock: TEMPAE_clean_linker_10, # of connection points: 2
# Relax obj value: 0.113
# Max RMSD: 0.151
# Mean RMSD: 0.075
data_MOF--net-zzz--node1-KUMJIN_clean_sbu_0--node2-QEWDON_clean_linker_0--edge1-TEMPAE_clean_linker_10
_symmetry_space_group_name_H-M    P1
_symmetry_Int_Tables_number       1
_symmetry_cell_setting            triclinic
loop_
_symmetry_equiv_pos_as_xyz
'x, y, z'
_cell_length_a     54.656811
_cell_length_b     54.535374
_cell_length_c     14.488169
_cell_angle_alpha  90.791249
_cell_angle_beta   89.998166
_cell_angle_gamma 89.830885
loop_
_atom_site_label
_atom_site_type_symbol
_atom_site_fract_x
_atom_site_fract_y
_atom_site_fract_z
_atom_type_partial_charge
H0 H 0.7583 0.54784 0.11733 0.0
C1 C 0.76995 0.54263 0.17436 0.0
C2 C 0.79483 0.53891 0.15756 0.0
C3 C 0.7604 0.54101 0.26442 0.0
H4 H 0.83001 0.53132 0.21639 0.0
C5 C 0.81063 0.53343 0.23043 0.0
C6 C 0.80253 0.5327 0.32171 0.0
C7 C 0.77715 0.53658 0.33896 0.0
C8 C 0.73356 0.54675 0.27889 0.0
H9 H 0.77061 0.53606 0.40939 0.0
C10 C 0.71536 0.54088 0.21099 0.0
C11 C 0.69073 0.54954 0.21895 0.0
C12 C 0.72634 0.56042 0.357 0.0
H13 H 0.73946 0.56568 0.40952 0.0
C14 C 0.70236 0.56879 0.36624 0.0
H15 H 0.72054 0.52958 0.15227 0.0
C16 C 0.68498 0.56392 0.29791 0.0
H17 H 0.66715 0.57216 0.30728 0.0
H18 H 0.69731 0.57984 0.42597 0.0
H19 H 0.97274 0.77045 0.11535 0.0
C20 C 0.97859 0.78419 0.16502 0.0
C21 C 0.96945 0.8081 0.15617 0.0
C22 C 0.99508 0.77805 0.23613 0.0
H23 H 0.96808 0.8441 0.2196 0.0
C24 C 0.97552 0.82576 0.22421 0.0
C25 C 0.99321 0.82154 0.29221 0.0
C26 C 1.00276 0.7973 0.29875 0.0
C27 C 1.0035 0.75152 0.24497 0.0
H28 H 1.01656 0.79375 0.35043 0.0
C29 C 1.00387 0.73428 0.16885 0.0
C30 C 1.00907 0.70893 0.18236 0.0
C31 C 1.00951 0.74266 0.33289 0.0
H32 H 1.00898 0.75454 0.39327 0.0
C33 C 1.0154 0.71805 0.34576 0.0
H34 H 0.99973 0.74021 0.09967 0.0
C35 C 1.01502 0.70139 0.27197 0.0
H36 H 0.01946 0.68239 0.28523 0.0
H37 H 0.01986 0.7117 0.41422 0.0
H38 H 0.78214 1.00612 0.12025 0.0
C39 C 0.76922 1.00754 0.17646 0.0
C40 C 0.74486 1.01281 0.15425 0.0
C41 C 0.77648 1.00355 0.2686 0.0
H42 H 0.70829 1.01819 0.20593 0.0
C43 C 0.72708 1.01377 0.2236 0.0
C44 C 0.73302 1.00979 0.31566 0.0
C45 C 0.75782 1.00493 0.33864 0.0
C46 C 0.8031 0.99709 0.2893 0.0
H47 H 0.76227 1.00261 0.41065 0.0
C48 C 0.82281 1.0019 0.22643 0.0
C49 C 0.84712 0.99368 0.24385 0.0
C50 C 0.80896 0.98467 0.37105 0.0
H51 H 0.79506 0.97972 0.42032 0.0
C52 C 0.83294 0.97761 0.39039 0.0
H53 H 0.8195 1.01162 0.16322 0.0
C54 C 0.85174 0.98196 0.32784 0.0
H55 H 0.87006 0.97605 0.34559 0.0
H56 H 0.83695 0.96825 0.45406 0.0
H57 H 0.53184 0.79217 0.17686 0.0
C58 C 0.53136 0.78129 0.23858 0.0
C59 C 0.52056 0.75812 0.23234 0.0
C60 C 0.54178 0.78988 0.32232 0.0
H61 H 0.5136 0.72424 0.30152 0.0
C62 C 0.52104 0.7426 0.30831 0.0
C63 C 0.53218 0.74943 0.39106 0.0
C64 C 0.54235 0.77329 0.39876 0.0
C65 C 0.55246 0.81564 0.32736 0.0
H66 H 0.55023 0.77868 0.46431 0.0
C67 C 0.54594 0.83435 0.2632 0.0
C68 C 0.55655 0.85808 0.26773 0.0
C69 C 0.56988 0.82174 0.39559 0.0
H70 H 0.57636 0.80838 0.44424 0.0
C71 C 0.57988 0.84524 0.40153 0.0
H72 H 0.53234 0.831 0.21048 0.0
C73 C 0.57331 0.86322 0.33865 0.0
H74 H 0.58184 0.88109 0.34421 0.0
H75 H 0.59319 0.84946 0.45474 0.0
H76 H 0.29494 0.53861 0.12205 0.0
C77 C 0.28203 0.53409 0.06792 0.0
C78 C 0.25773 0.5413 0.08069 0.0
C79 C 0.28966 0.52217 0.98577 0.0
H80 H 0.22154 0.54214 0.02192 0.0
C81 C 0.2405 0.5369 0.01084 0.0
C82 C 0.24676 0.5253 0.92786 0.0
C83 C 0.27147 0.5175 0.9156 0.0
C84 C 0.31676 0.51653 0.97307 0.0
H85 H 0.27634 0.50818 0.85184 0.0
C86 C 0.33327 0.51384 0.04944 0.0
C87 C 0.35906 0.51168 0.03653 0.0
C88 C 0.32682 0.51592 0.88376 0.0
H89 H 0.31549 0.51844 0.82343 0.0
C90 C 0.35195 0.5132 0.87029 0.0
H91 H 0.32622 0.51328 0.11905 0.0
C92 C 0.36787 0.51142 0.94516 0.0
H93 H 0.38728 0.51052 0.93072 0.0
H94 H 0.35928 0.51319 0.80087 0.0
H95 H 0.05998 0.28871 0.18875 0.0
C96 C 0.05539 0.27467 0.13842 0.0
C97 C 0.05843 0.25038 0.16471 0.0
C98 C 0.04584 0.28074 0.05161 0.0
H99 H 0.05637 0.21256 0.12246 0.0
C100 C 0.05455 0.2314 0.10038 0.0
C101 C 0.04658 0.23598 0.01027 0.0
C102 C 0.04141 0.26088 0.9868 0.0
C103 C 0.04125 0.3078 0.03177 0.0
H104 H 0.0341 0.26453 0.91902 0.0
C105 C 0.03843 0.32605 0.10397 0.0
C106 C 0.03698 0.35158 0.08494 0.0
C107 C 0.04112 0.31601 0.94025 0.0
H108 H 0.04357 0.30337 0.88284 0.0
C109 C 0.03854 0.34089 0.92076 0.0
H110 H 0.03769 0.32072 0.17537 0.0
C111 C 0.03664 0.35841 0.99164 0.0
H112 H 0.03472 0.37746 0.97275 0.0
H113 H 0.03842 0.34675 0.84965 0.0
H114 H 0.26353 0.06818 0.17198 0.0
C115 C 0.27726 0.06442 0.12 0.0
C116 C 0.30166 0.0651 0.14801 0.0
C117 C 0.27067 0.05828 0.02868 0.0
H118 H 0.33924 0.06237 0.10478 0.0
C119 C 0.32029 0.06223 0.08247 0.0
C120 C 0.31508 0.05732 0.98956 0.0
C121 C 0.29011 0.0546 0.96291 0.0
C122 C 0.24361 0.05598 1.00531 0.0
H123 H 0.28613 0.04964 0.892 0.0
C124 C 0.22538 0.0518 0.07459 0.0
C125 C 0.20002 0.0516 0.05363 0.0
C126 C 0.23545 0.05905 0.91409 0.0
H127 H 0.24816 0.0628 0.8589 0.0
C128 C 0.21054 0.05808 0.89248 0.0
H129 H 0.23056 0.04828 0.14513 0.0
C130 C 0.19303 0.05451 0.96118 0.0
H131 H 0.17388 0.05456 0.94203 0.0
H132 H 0.20471 0.06061 0.82184 0.0
H133 H 0.54015 0.25582 0.08435 0.0
C134 C 0.53619 0.26778 0.02751 0.0
C135 C 0.54481 0.29179 0.03432 0.0
C136 C 0.52319 0.2595 0.94869 0.0
H137 H 0.54787 0.32657 0.96791 0.0
C138 C 0.54133 0.30788 0.9613 0.0
C139 C 0.52845 0.30111 0.8821 0.0
C140 C 0.51882 0.27693 0.87647 0.0
C141 C 0.51515 0.23275 0.9423 0.0
H142 H 0.50823 0.27201 0.8161 0.0
C143 C 0.51404 0.21713 0.02115 0.0
C144 C 0.5081 0.19186 0.01269 0.0
C145 C 0.5097 0.22204 0.85566 0.0
H146 H 0.51093 0.23236 0.79276 0.0
C147 C 0.5032 0.19736 0.84743 0.0
H148 H 0.51736 0.22427 0.08985 0.0
C149 C 0.50245 0.18243 0.92468 0.0
H150 H 0.49798 0.16321 0.91507 0.0
H151 H 0.49916 0.1896 0.77998 0.0
Eu152 Eu 0.05167 1.01939 0.75418 0.0
C153 C 0.96525 0.99797 0.4765 0.0
C154 C 0.98562 0.97849 0.34615 0.0
C155 C 0.94192 0.97316 0.36647 0.0
C156 C 0.98654 0.99327 0.42719 0.0
C157 C 0.94274 0.98783 0.44669 0.0
C158 C 0.96327 0.96863 0.31609 0.0
C159 C 0.92285 1.00868 0.57406 0.0
N160 N 0.96633 1.01277 0.55253 0.0
C161 C 0.94533 1.0188 0.59962 0.0
C162 C 0.92155 0.99306 0.49738 0.0
Eu163 Eu 1.00468 0.03172 0.58515 0.0
N164 N 1.00812 1.00263 0.45883 0.0
C165 C 0.02948 0.99615 0.41468 0.0
C166 C 1.00723 0.97378 0.29772 0.0
C167 C 0.02929 0.98209 0.33363 0.0
H168 H 0.94585 0.03195 0.65618 0.0
H169 H 0.04631 0.97755 0.29948 0.0
H170 H 0.96238 0.95723 0.25437 0.0
H171 H 0.90646 1.01335 0.61248 0.0
H172 H 0.04718 1.00075 0.44174 0.0
H173 H 0.03398 0.08561 0.03317 0.0
H174 H 1.00719 0.96302 0.23427 0.0
H175 H 0.10667 0.99971 0.68306 0.0
H176 H 0.02417 0.05224 0.92381 0.0
H177 H 0.14959 1.01409 0.68083 0.0
H178 H 0.92481 0.96537 0.3424 0.0
H179 H 0.07446 0.10546 0.02836 0.0
H180 H 0.1163 0.10762 0.95854 0.0
H181 H 0.90401 0.98554 0.4768 0.0
H182 H 0.14771 0.08866 0.85917 0.0
N183 N 0.05833 0.0538 0.85328 0.0
C184 C 0.04179 0.06098 0.91928 0.0
C185 C 0.07012 0.09108 0.97868 0.0
C186 C 0.08744 0.08299 0.9139 0.0
C187 C 0.04731 0.07985 0.98199 0.0
C188 C 0.08111 0.06371 0.8524 0.0
H189 H 0.16042 0.05352 0.75638 0.0
N190 N 0.09314 0.03199 0.74957 0.0
C191 C 0.13551 0.02528 0.71301 0.0
C192 C 0.09897 0.05264 0.79801 0.0
C193 C 0.11125 1.01728 0.71385 0.0
C194 C 0.14153 0.04758 0.75546 0.0
C195 C 0.12337 0.06109 0.80176 0.0
O196 O 0.06842 0.98509 0.79937 0.0
O197 O 0.02412 1.00149 0.65842 0.0
O198 O 0.9852 1.01507 0.70852 0.0
O199 O 1.01403 1.01706 0.82644 0.0
O200 O 0.0589 0.98654 0.65981 0.0
O201 O 0.05534 1.01159 0.90029 0.0
O202 O 0.97541 0.05213 0.51808 0.0
O203 O 0.02993 0.04949 0.68876 0.0
O204 O 0.07198 0.03368 0.62851 0.0
O205 O 0.04185 0.03735 0.51488 0.0
O206 O 0.99345 0.05906 0.69823 0.0
O207 O 1.01242 0.06527 0.50913 0.0
C208 C 0.03727 0.98419 0.62518 0.0
C209 C 0.05724 0.9709 0.94774 0.0
C210 C 0.03616 0.93268 0.97772 0.0
C211 C 0.04305 0.95107 0.91606 0.0
C212 C 0.04311 0.93488 0.07128 0.0
C213 C 0.06423 0.97252 0.04068 0.0
C214 C 0.05718 0.95454 0.1021 0.0
C215 C 0.99129 1.01353 0.79672 0.0
C216 C 0.06538 0.99028 0.8866 0.0
C217 C 0.12915 0.08174 0.85635 0.0
C218 C 0.11126 0.09255 0.91292 0.0
C219 C 1.01506 0.06411 0.72904 0.0
C220 C 0.98142 0.09473 0.53586 0.0
C221 C 0.99456 0.11562 0.51173 0.0
C222 C 0.98882 0.13849 0.55149 0.0
C223 C 0.96975 0.14053 0.61571 0.0
C224 C 0.9621 0.09699 0.59992 0.0
C225 C 0.95643 0.11978 0.63978 0.0
C226 C 0.06504 0.0378 0.54247 0.0
C227 C 0.98932 0.07061 0.49928 0.0
H228 H 0.03792 0.9497 0.84391 0.0
H229 H 0.03783 0.92126 0.12092 0.0
H230 H 0.07524 0.98772 0.06567 0.0
H231 H 0.06283 0.95568 0.17352 0.0
H232 H 1.00951 0.11407 0.46269 0.0
H233 H 0.96483 0.1582 0.64537 0.0
H234 H 0.95164 0.08115 0.62057 0.0
H235 H 0.94165 0.12137 0.68925 0.0
Eu236 Eu 0.5348 0.05102 0.73544 0.0
C237 C 0.55907 0.96682 0.5227 0.0
C238 C 0.57423 0.98 0.37454 0.0
C239 C 0.59418 0.94627 0.4518 0.0
C240 C 0.55798 0.98278 0.44993 0.0
C241 C 0.57663 0.94771 0.52244 0.0
C242 C 0.59284 0.9623 0.37747 0.0
C243 C 0.55464 0.92925 0.64726 0.0
N244 N 0.54092 0.96788 0.58661 0.0
C245 C 0.53728 0.94805 0.64237 0.0
C246 C 0.57486 0.92948 0.58884 0.0
Eu247 Eu 0.5145 1.00334 0.58247 0.0
N248 N 0.53932 0.99923 0.44778 0.0
C249 C 0.53391 1.01065 0.36699 0.0
C250 C 0.57059 0.99437 0.29666 0.0
C251 C 0.55009 1.00952 0.29265 0.0
H252 H 0.52089 0.94632 0.68334 0.0
H253 H 0.54656 0.02031 0.2325 0.0
H254 H 0.60556 0.96012 0.32056 0.0
H255 H 0.55206 0.91427 0.6945 0.0
H256 H 0.51701 0.02066 0.35877 0.0
H257 H 0.54826 1.01318 0.08129 0.0
H258 H 0.58278 0.99304 0.2378 0.0
H259 H 0.49341 0.09478 0.6736 0.0
H260 H 0.56093 0.02614 0.92919 0.0
H261 H 0.45863 0.11696 0.7379 0.0
H262 H 0.60794 0.93192 0.45118 0.0
H263 H 0.50817 0.02677 0.14542 0.0
H264 H 0.47139 0.05367 0.12937 0.0
H265 H 0.58797 0.91454 0.59102 0.0
H266 H 0.44816 0.08338 0.03835 0.0
N267 N 0.52632 0.04212 0.89434 0.0
C268 C 0.54266 0.03083 0.952 0.0
C269 C 0.51326 0.0315 0.07563 0.0
C270 C 0.49827 0.04651 0.02231 0.0
C271 C 0.53582 0.024 0.04055 0.0
C272 C 0.50535 0.05153 0.93054 0.0
H273 H 0.44467 0.10857 0.8959 0.0
N274 N 0.49935 0.07247 0.79101 0.0
C275 C 0.46765 0.10298 0.77799 0.0
C276 C 0.49197 0.06782 0.87862 0.0
C277 C 0.48756 0.09006 0.74124 0.0
C278 C 0.45965 0.09802 0.86683 0.0
C279 C 0.47156 0.08007 0.91802 0.0
O280 O 0.54624 0.08925 0.75225 0.0
O281 O 0.54854 0.02086 0.63923 0.0
O282 O 0.5169 0.98717 0.72491 0.0
O283 O 0.54649 1.01247 0.78524 0.0
O284 O 0.56287 0.05537 0.62206 0.0
O285 O 0.56781 0.06039 0.81227 0.0
O286 O 0.49582 0.97099 0.52762 0.0
O287 O 0.50057 0.03506 0.6722 0.0
O288 O 0.52364 0.07152 0.60664 0.0
O289 O 0.51469 0.03997 0.50256 0.0
O290 O 0.48591 1.00054 0.69476 0.0
O291 O 0.48175 1.00702 0.49716 0.0
C292 C 0.56397 0.03306 0.59284 0.0
C293 C 0.5896 0.09293 0.74721 0.0
C294 C 0.63417 0.09193 0.74001 0.0
C295 C 0.61221 0.08651 0.78547 0.0
C296 C 0.63344 0.10441 0.65602 0.0
C297 C 0.58912 0.10589 0.66387 0.0
C298 C 0.61098 0.11162 0.61888 0.0
C299 C 0.53322 0.99219 0.7887 0.0
C300 C 0.56705 0.08341 0.79 0.0
C301 C 0.46397 0.07443 0.00774 0.0
C302 C 0.47714 0.05745 0.05942 0.0
C303 C 0.48433 0.02343 0.71754 0.0
C304 C 0.45302 0.97686 0.53661 0.0
C305 C 0.43213 0.98892 0.50464 0.0
C306 C 0.40939 0.98547 0.54738 0.0
C307 C 0.40751 0.96958 0.62228 0.0
C308 C 0.45085 0.96068 0.61115 0.0
C309 C 0.42819 0.95711 0.6535 0.0
C310 C 0.51771 0.06363 0.52301 0.0
C311 C 0.47713 0.98359 0.49893 0.0
H312 H 0.61268 0.07614 0.84884 0.0
H313 H 0.65018 0.10857 0.61949 0.0
H314 H 0.57193 0.11094 0.63203 0.0
H315 H 0.61047 0.12128 0.55414 0.0
H316 H 0.43373 1.00172 0.44829 0.0
H317 H 0.39007 0.96666 0.65576 0.0
H318 H 0.46672 0.9513 0.63846 0.0
H319 H 0.42672 0.94484 0.71133 0.0
Eu320 Eu 0.54903 0.52213 0.54701 0.0
C321 C 0.4452 0.5075 0.6891 0.0
C322 C 0.42233 0.5371 0.60013 0.0
C323 C 0.40184 0.50103 0.658 0.0
C324 C 0.44454 0.5291 0.63998 0.0
C325 C 0.42367 0.49347 0.69987 0.0
C326 C 0.40112 0.52288 0.60896 0.0
C327 C 0.44572 0.46736 0.80394 0.0
N328 N 0.46637 0.50097 0.73127 0.0
C329 C 0.46635 0.48207 0.7929 0.0
C330 C 0.42436 0.47286 0.75608 0.0
Eu331 Eu 0.50026 0.52813 0.71497 0.0
N332 N 0.46528 0.54268 0.63331 0.0
C333 C 0.46468 0.56476 0.58942 0.0
C334 C 0.42191 0.55944 0.55415 0.0
C335 C 0.44318 0.57328 0.54864 0.0
H336 H 0.48238 0.47824 0.83405 0.0
H337 H 0.44303 0.59063 0.51323 0.0
H338 H 0.38392 0.52885 0.57959 0.0
H339 H 0.44618 0.45209 0.85089 0.0
H340 H 0.4807 0.57591 0.58326 0.0
H341 H 0.60727 0.45859 0.74016 0.0
H342 H 0.40519 0.56633 0.52378 0.0
H343 H 0.56704 0.57195 0.42789 0.0
H344 H 0.56963 0.47296 0.66969 0.0
H345 H 0.60283 0.59889 0.41518 0.0
H346 H 0.38521 0.49047 0.66552 0.0
H347 H 0.64427 0.48429 0.73829 0.0
H348 H 0.6648 0.52273 0.68876 0.0
H349 H 0.40823 0.4617 0.76605 0.0
H350 H 0.6631 0.56169 0.6067 0.0
N351 N 0.58407 0.50749 0.62809 0.0
C352 C 0.58519 0.48483 0.66761 0.0
C353 C 0.62752 0.49106 0.70771 0.0
C354 C 0.62664 0.51394 0.66567 0.0
C355 C 0.60674 0.47642 0.70834 0.0
C356 C 0.60442 0.52179 0.62551 0.0
H357 H 0.64019 0.59021 0.50501 0.0
N358 N 0.58262 0.54976 0.53324 0.0
C359 C 0.6032 0.58368 0.46237 0.0
C360 C 0.60356 0.54365 0.57791 0.0
C361 C 0.58284 0.56848 0.47082 0.0
C362 C 0.62421 0.57873 0.51321 0.0
C363 C 0.62487 0.55812 0.56947 0.0
O364 O 0.5546 0.52574 0.39859 0.0
O365 O 0.50813 0.51767 0.56657 0.0
O366 O 0.50728 0.48728 0.69957 0.0
O367 O 0.53572 0.48296 0.58066 0.0
O368 O 0.51996 0.53676 0.45174 0.0
O369 O 0.56724 0.49321 0.46833 0.0
O370 O 0.4938 0.52476 0.86289 0.0
O371 O 0.54098 0.53241 0.69467 0.0
O372 O 0.54266 0.56296 0.56544 0.0
O373 O 0.51351 0.56733 0.68175 0.0
O374 O 0.52959 0.51339 0.8099 0.0
O375 O 0.48369 0.55815 0.79334 0.0
C376 C 0.50101 0.52831 0.49338 0.0
C377 C 0.55633 0.48905 0.31024 0.0
C378 C 0.54909 0.44869 0.24136 0.0
C379 C 0.55281 0.46374 0.31937 0.0
C380 C 0.54774 0.45966 0.1538 0.0
C381 C 0.55448 0.49965 0.22285 0.0
C382 C 0.55001 0.48501 0.14511 0.0
C383 C 0.52111 0.47362 0.64463 0.0
C384 C 0.56436 0.50408 0.38942 0.0
C385 C 0.64662 0.55083 0.61263 0.0
C386 C 0.64756 0.52867 0.65966 0.0
C387 C 0.5484 0.52173 0.76708 0.0
C388 C 0.49498 0.56141 0.95147 0.0
C389 C 0.4999 0.58652 0.94321 0.0
C390 C 0.50544 0.60098 0.02137 0.0
C391 C 0.50725 0.58948 0.10783 0.0
C392 C 0.49709 0.55033 0.03797 0.0
C393 C 0.50357 0.56428 0.11541 0.0
C394 C 0.5287 0.57663 0.61972 0.0
C395 C 0.4857 0.54708 0.87224 0.0
H396 H 0.55351 0.45571 0.38724 0.0
H397 H 0.54559 0.44871 0.09147 0.0
H398 H 0.55701 0.51919 0.21455 0.0
H399 H 0.54904 0.49323 0.07759 0.0
H400 H 0.49895 0.59487 0.87597 0.0
H401 H 0.51082 0.59991 0.17042 0.0
H402 H 0.49327 0.53099 0.04602 0.0
H403 H 0.50495 0.55568 0.18213 0.0
Eu404 Eu 0.02821 0.55082 0.5506 0.0
C405 C 0.03954 0.45185 0.74242 0.0
C406 C 1.01429 0.42489 0.64918 0.0
C407 C 0.04968 0.40841 0.72835 0.0
C408 C 0.01983 0.44858 0.68416 0.0
C409 C 0.05432 0.43164 0.76714 0.0
C410 C 0.02965 0.40503 0.6696 0.0
C411 C 0.07524 0.45799 0.87611 0.0
N412 N 0.04319 0.47436 0.78056 0.0
C413 C 0.05995 0.47729 0.8504 0.0
C414 C 0.07268 0.43512 0.83319 0.0
Eu415 Eu 1.01718 0.50704 0.73125 0.0
N416 N 1.00525 0.46817 0.66585 0.0
C417 C 0.98393 0.46466 0.6175 0.0
C418 C 0.99301 0.42164 0.59726 0.0
C419 C 0.97771 0.44157 0.5819 0.0
H420 H 0.06179 0.49481 0.88559 0.0
H421 H 0.96101 0.43919 0.54269 0.0
H422 H 0.0258 0.38684 0.64237 0.0
H423 H 0.08881 0.46072 0.92963 0.0
H424 H 0.97151 0.47939 0.60346 0.0
H425 H 0.08862 0.61227 0.74916 0.0
H426 H 0.98785 0.4037 0.57113 0.0
H427 H 0.98599 0.56695 0.39557 0.0
H428 H 0.0747 0.57313 0.68562 0.0
H429 H 0.96165 0.60323 0.35232 0.0
H430 H 0.06095 0.39277 0.74588 0.0
H431 H 0.06508 0.65007 0.72067 0.0
H432 H 0.02921 0.67046 0.64644 0.0
H433 H 0.08435 0.42008 0.85399 0.0
H434 H 0.99374 0.66778 0.54314 0.0
N435 N 0.04258 0.58772 0.62244 0.0
C436 C 0.06388 0.58912 0.67203 0.0
C437 C 0.05848 0.63272 0.6935 0.0
C438 C 0.03713 0.63149 0.64062 0.0
C439 C 0.07194 0.61147 0.70898 0.0
C440 C 0.0296 0.60846 0.60494 0.0
H441 H 0.96843 0.64288 0.433 0.0
N442 N 1.00403 0.58501 0.50725 0.0
C443 C 0.97472 0.6045 0.40832 0.0
C444 C 1.00958 0.607 0.5466 0.0
C445 C 0.98828 0.58393 0.43386 0.0
C446 C 0.9786 0.62681 0.454 0.0
C447 C 0.99677 0.62848 0.52182 0.0
O448 O 0.02908 0.54878 0.40009 0.0
O449 O 0.02966 0.51032 0.58395 0.0
O450 O 0.05846 0.51257 0.72787 0.0
O451 O 0.06607 0.53707 0.60086 0.0
O452 O 1.0115 0.52035 0.46434 0.0
O453 O 0.05888 0.56595 0.47511 0.0
O454 O 1.01381 0.50032 0.87888 0.0
O455 O 1.01621 0.54736 0.698 0.0
O456 O 0.98665 0.55043 0.56645 0.0
O457 O 0.98041 0.51707 0.66219 0.0
O458 O 0.03332 0.53762 0.81944 0.0
O459 O 0.98137 0.50607 0.79774 0.0
C460 C 0.01876 0.50199 0.51236 0.0
C461 C 0.0681 0.54668 0.33147 0.0
C462 C 0.11002 0.53523 0.29285 0.0
C463 C 0.09254 0.54315 0.35763 0.0
C464 C 0.10222 0.52942 0.20221 0.0
C465 C 0.06069 0.54065 0.2413 0.0
C466 C 0.07767 0.53173 0.17739 0.0
C467 C 0.07367 0.52393 0.67214 0.0
C468 C 0.05067 0.55858 0.39486 0.0
C469 C 1.00345 0.65115 0.561 0.0
C470 C 0.02367 0.65267 0.61982 0.0
C471 C 0.02638 0.55593 0.77064 0.0
C472 C 0.98271 0.52498 0.94532 0.0
C473 C 0.95926 0.53513 0.93647 0.0
C474 C 0.95151 0.55444 0.99448 0.0
C475 C 0.96747 0.56336 0.06308 0.0
C476 C 0.99858 0.53439 0.01359 0.0
C477 C 0.99094 0.55351 0.07191 0.0
C478 C 0.97207 0.53422 0.60574 0.0
C479 C 0.99061 0.50538 0.88054 0.0
H480 H 0.09806 0.54728 0.42785 0.0
H481 H 0.1151 0.52394 0.14904 0.0
H482 H 0.04189 0.54332 0.21979 0.0
H483 H 0.07195 0.5274 0.1075 0.0
H484 H 0.94677 0.52752 0.88554 0.0
H485 H 0.96169 0.57776 0.11043 0.0
H486 H 1.01687 0.52706 0.02194 0.0
H487 H 1.00317 0.56058 0.12459 0.0
C488 C 0.18182 0.06283 0.21014 0.0
C489 C 0.18061 0.04915 0.12729 0.0
C490 C 0.16284 0.06204 0.27656 0.0
C491 C 0.14211 0.04684 0.26148 0.0
C492 C 0.14094 0.03273 0.17849 0.0
C493 C 0.15995 0.03422 0.11257 0.0
C494 C 0.16483 0.07778 0.36271 0.0
C495 C 0.11963 1.01586 0.15935 0.0
C496 C 0.10575 0.02607 0.47331 0.0
C497 C 0.0847 0.04088 0.47106 0.0
C498 C 0.12435 0.02783 0.40615 0.0
C499 C 0.12218 0.04497 0.33382 0.0
C500 C 0.10085 0.05995 0.33065 0.0
C501 C 0.08229 0.05753 0.39841 0.0
C502 C 0.14618 1.01089 0.41181 0.0
C503 C 0.09765 0.07866 0.25579 0.0
H504 H 0.19738 0.07474 0.22202 0.0
H505 H 0.15873 0.02345 0.04933 0.0
H506 H 0.1486 0.08997 0.36871 0.0
H507 H 0.16506 0.06603 0.4246 0.0
H508 H 0.18159 0.08926 0.36315 0.0
H509 H 0.1217 1.00558 0.09306 0.0
H510 H 0.11776 1.0025 0.21599 0.0
H511 H 0.10238 0.02659 0.15687 0.0
H512 H 0.10735 1.01236 0.52608 0.0
H513 H 0.06602 0.06889 0.39518 0.0
H514 H 0.16329 0.02173 0.4163 0.0
H515 H 0.14733 0.99938 0.34819 0.0
H516 H 0.14527 0.99867 0.47243 0.0
H517 H 0.11357 0.09125 0.25522 0.0
H518 H 0.08068 0.08968 0.26494 0.0
H519 H 0.09698 0.06935 0.18729 0.0
C520 C 0.48948 0.15767 0.10602 0.0
C521 C 0.50845 0.17472 0.09359 0.0
C522 C 0.4905 0.13985 0.1758 0.0
C523 C 0.51117 0.13855 0.23482 0.0
C524 C 0.53028 0.15586 0.22326 0.0
C525 C 0.5286 0.17378 0.15369 0.0
C526 C 0.46934 0.12241 0.18649 0.0
C527 C 0.55286 0.15507 0.28305 0.0
C528 C 0.50588 0.10595 0.4676 0.0
C529 C 0.51536 0.08244 0.44809 0.0
C530 C 0.50417 0.12413 0.39925 0.0
C531 C 0.51271 0.11916 0.30846 0.0
C532 C 0.52262 0.09558 0.28833 0.0
C533 C 0.52375 0.07763 0.35789 0.0
C534 C 0.4931 0.14871 0.42443 0.0
C535 C 0.53238 0.08938 0.19336 0.0
H536 H 0.47374 0.15824 0.06061 0.0
H537 H 0.54353 0.18654 0.14414 0.0
H538 H 0.47595 0.10317 0.18476 0.0
H539 H 0.46054 0.12557 0.25465 0.0
H540 H 0.45532 0.1247 0.13175 0.0
H541 H 0.56611 0.16973 0.26589 0.0
H542 H 0.54773 0.15705 0.35684 0.0
H543 H 0.56207 0.13701 0.27452 0.0
H544 H 0.49953 0.11028 0.5364 0.0
H545 H 0.53206 0.06011 0.34209 0.0
H546 H 0.47734 0.1526 0.37855 0.0
H547 H 0.50673 0.16344 0.41397 0.0
H548 H 0.48673 0.14959 0.49723 0.0
H549 H 0.53989 0.07045 0.18881 0.0
H550 H 0.54703 0.10246 0.17479 0.0
H551 H 0.51762 0.09125 0.14136 0.0
C552 C 0.37327 0.52432 0.19863 0.0
C553 C 0.37721 0.51093 0.11617 0.0
C554 C 0.39141 0.52593 0.26844 0.0
C555 C 0.41448 0.51418 0.25641 0.0
C556 C 0.41828 0.5 0.17481 0.0
C557 C 0.39968 0.49828 0.10712 0.0
C558 C 0.38614 0.54097 0.35403 0.0
C559 C 0.44249 0.48742 0.15684 0.0
C560 C 0.47192 0.5416 0.36999 0.0
C561 C 0.47738 0.52508 0.4409 0.0
C562 C 0.45137 0.53859 0.31201 0.0
C563 C 0.43539 0.51845 0.32404 0.0
C564 C 0.44045 0.50191 0.39696 0.0
C565 C 0.46155 0.50514 0.45321 0.0
C566 C 0.44727 0.55668 0.23554 0.0
C567 C 0.42376 0.48055 0.41485 0.0
H568 H 0.35631 0.5344 0.20752 0.0
H569 H 0.40307 0.48723 0.04574 0.0
H570 H 0.39075 0.5302 0.41587 0.0
H571 H 0.39779 0.55759 0.35487 0.0
H572 H 0.36667 0.54676 0.35847 0.0
H573 H 0.44233 0.47617 0.09231 0.0
H574 H 0.45714 0.50137 0.15126 0.0
H575 H 0.4473 0.47542 0.21534 0.0
H576 H 0.48409 0.55695 0.35885 0.0
H577 H 0.46578 0.49193 0.50612 0.0
H578 H 0.42826 0.56381 0.23747 0.0
H579 H 0.44988 0.54731 0.16775 0.0
H580 H 0.46001 0.57249 0.24002 0.0
H581 H 0.4045 0.48694 0.41968 0.0
H582 H 0.42858 0.47095 0.47953 0.0
H583 H 0.42486 0.46725 0.3564 0.0
C584 C 0.02324 0.36846 0.24322 0.0
C585 C 0.0362 0.37143 0.1601 0.0
C586 C 0.02116 0.38777 0.30972 0.0
C587 C 0.03224 0.41093 0.29402 0.0
C588 C 0.04599 0.41374 0.21176 0.0
C589 C 0.0479 0.39416 0.14696 0.0
C590 C 1.00659 0.38352 0.39621 0.0
C591 C 0.0582 0.43782 0.19056 0.0
C592 C 1.00494 0.47052 0.39587 0.0
C593 C 0.02145 0.4771 0.46643 0.0
C594 C 1.0078 0.44884 0.34241 0.0
C595 C 0.02783 0.43285 0.35846 0.0
C596 C 0.04427 0.43901 0.43152 0.0
C597 C 0.04108 0.4611 0.4837 0.0
C598 C 0.98965 0.44349 0.26625 0.0
C599 C 0.06569 0.42261 0.45308 0.0
H600 H 1.01401 0.35125 0.25532 0.0
H601 H 0.05859 0.39684 0.08499 0.0
H602 H 1.01825 0.38707 0.45754 0.0
H603 H 0.99095 0.39652 0.39962 0.0
H604 H 0.99941 0.36452 0.39976 0.0
H605 H 0.06914 0.4369 0.12595 0.0
H606 H 0.04413 0.45238 0.18339 0.0
H607 H 0.07039 0.44338 0.24832 0.0
H608 H 0.98977 0.48271 0.38123 0.0
H609 H 0.05423 0.46607 0.53667 0.0
H610 H 0.98194 0.42484 0.27409 0.0
H611 H 0.99906 0.44393 0.19842 0.0
H612 H 0.97434 0.45693 0.26551 0.0
H613 H 0.05963 0.40329 0.45851 0.0
H614 H 0.07491 0.4281 0.51849 0.0
H615 H 0.07921 0.42339 0.39607 0.0
C616 C 0.88508 0.97733 0.16289 0.0
C617 C 0.86788 0.99642 0.17547 0.0
C618 C 0.90549 0.97966 0.10395 0.0
C619 C 0.90909 1.00161 0.05451 0.0
C620 C 0.89172 0.02089 0.06581 0.0
C621 C 0.87139 1.01807 0.12559 0.0
C622 C 0.92304 0.95833 0.09375 0.0
C623 C 0.89471 0.04465 0.01503 0.0
C624 C 0.97335 1.01562 0.95876 0.0
C625 C 0.97105 1.00903 0.86496 0.0
C626 C 0.95352 1.01324 0.02104 0.0
C627 C 0.93063 1.00408 0.98942 0.0
C628 C 0.92848 0.99679 0.89542 0.0
C629 C 0.94858 0.99922 0.83507 0.0
C630 C 0.95699 0.02081 0.12073 0.0
C631 C 0.90481 0.98646 0.85811 0.0
H632 H 0.88252 0.96026 0.19903 0.0
H633 H 0.85854 0.03306 0.13478 0.0
H634 H 0.92072 0.9497 0.02454 0.0
H635 H 0.94227 0.96465 0.09887 0.0
H636 H 0.91993 0.94414 0.14672 0.0
H637 H 0.87985 0.05797 0.03119 0.0
H638 H 0.91253 0.05312 0.03336 0.0
H639 H 0.89489 0.04103 0.93947 0.0
H640 H 0.99053 0.02313 0.98335 0.0
H641 H 0.94663 0.99331 0.76387 0.0
H642 H 0.95217 1.00543 0.16656 0.0
H643 H 0.9445 0.03627 0.13807 0.0
H644 H 0.97609 0.02653 0.13583 0.0
H645 H 0.90002 0.96951 0.89544 0.0
H646 H 0.90587 0.98207 0.78309 0.0
H647 H 0.88971 0.99979 0.86979 0.0
C648 C 0.5538 0.87285 0.10305 0.0
C649 C 0.5511 0.87758 0.19805 0.0
C650 C 0.55147 0.89178 0.03773 0.0
C651 C 0.54577 0.91608 0.06736 0.0
C652 C 0.54244 0.9208 0.16313 0.0
C653 C 0.54538 0.90166 0.22696 0.0
C654 C 0.55559 0.88585 0.93686 0.0
C655 C 0.53546 0.94604 0.19833 0.0
C656 C 0.55942 0.97017 0.90689 0.0
C657 C 0.53678 0.9737 0.86324 0.0
C658 C 0.56263 0.95163 0.97343 0.0
C659 C 0.54268 0.93636 0.99808 0.0
C660 C 0.51967 0.94036 0.95568 0.0
C661 C 0.51709 0.95871 0.88879 0.0
C662 C 0.58748 0.94819 0.01666 0.0
C663 C 0.49767 0.92516 0.98078 0.0
H664 H 0.55858 0.85447 0.07999 0.0
H665 H 0.54319 0.90555 0.30009 0.0
H666 H 0.53888 0.89014 0.89667 0.0
H667 H 0.57055 0.89742 0.90962 0.0
H668 H 0.56041 0.86627 0.92481 0.0
H669 H 0.53615 0.94744 0.27487 0.0
H670 H 0.5477 0.96009 0.16893 0.0
H671 H 0.51659 0.95045 0.17553 0.0
H672 H 0.57478 0.98152 0.88752 0.0
H673 H 0.49942 0.96139 0.85637 0.0
H674 H 0.59399 0.92914 1.00395 0.0
H675 H 0.58622 0.95094 0.09254 0.0
H676 H 0.60125 0.96112 0.98914 0.0
H677 H 0.50113 0.9056 0.96324 0.0
H678 H 0.48083 0.93115 0.94437 0.0
H679 H 0.49437 0.92638 0.05627 0.0
C680 C 0.67707 0.53896 0.05312 0.0
C681 C 0.6711 0.5446 0.14572 0.0
C682 C 0.65882 0.53495 0.98499 0.0
C683 C 0.63362 0.5377 0.00726 0.0
C684 C 0.62742 0.54379 0.09979 0.0
C685 C 0.6459 0.54634 0.16745 0.0
C686 C 0.6667 0.52782 0.88886 0.0
C687 C 0.6011 0.54816 0.12734 0.0
C688 C 0.58495 0.5477 0.81696 0.0
C689 C 0.57209 0.52545 0.81803 0.0
C690 C 0.60523 0.5519 0.87638 0.0
C691 C 0.61354 0.53313 0.9364 0.0
C692 C 0.6012 0.51026 0.93381 0.0
C693 C 0.58035 0.50706 0.87752 0.0
C694 C 0.61731 0.57671 0.87623 0.0
C695 C 0.6098 0.4891 0.99171 0.0
H696 H 0.69608 0.53784 0.03266 0.0
H697 H 0.64021 0.54969 0.23794 0.0
H698 H 0.65491 0.51296 0.86116 0.0
H699 H 0.66485 0.54391 0.84352 0.0
H700 H 0.68604 0.52154 0.88645 0.0
H701 H 0.59906 0.55264 0.20201 0.0
H702 H 0.59348 0.56354 0.08683 0.0
H703 H 0.58991 0.53177 0.11101 0.0
H704 H 0.57853 0.56219 0.77246 0.0
H705 H 0.57047 0.48985 0.87945 0.0
H706 H 0.63512 0.57527 0.8399 0.0
H707 H 0.62092 0.58328 0.94778 0.0
H708 H 0.60598 0.59059 0.84042 0.0
H709 H 0.62986 0.48656 0.98404 0.0
H710 H 0.60055 0.47166 0.97231 0.0
H711 H 0.60602 0.49305 0.06565 0.0
C712 C 0.99574 0.66729 0.12208 0.0
C713 C 1.00797 0.68954 0.10646 0.0
C714 C 0.99727 0.64722 0.05951 0.0
C715 C 1.01156 0.64887 0.97806 0.0
C716 C 0.02314 0.67168 0.95991 0.0
C717 C 0.02112 0.69166 0.02361 0.0
C718 C 0.98442 0.62374 0.08317 0.0
C719 C 0.03858 0.67468 0.87496 0.0
C720 C 0.03876 0.58777 0.88848 0.0
C721 C 0.02305 0.5809 0.81575 0.0
C722 C 0.03564 0.60993 0.939 0.0
C723 C 1.0161 0.62611 0.91781 0.0
C724 C 1.00023 0.61941 0.84358 0.0
C725 C 1.00369 0.59688 0.79443 0.0
C726 C 0.05307 0.61568 0.01708 0.0
C727 C 0.97919 0.6358 0.81726 0.0
H728 H 0.98535 0.66532 0.18528 0.0
H729 H 0.03084 0.70856 0.0106 0.0
H730 H 0.97341 0.61715 0.02354 0.0
H731 H 0.99824 0.60942 0.09847 0.0
H732 H 0.97221 0.6259 0.14406 0.0
H733 H 0.04405 0.69404 0.86443 0.0
H734 H 0.05536 0.66332 0.8811 0.0
H735 H 0.0284 0.66811 0.81343 0.0
H736 H 0.05362 0.57554 0.90668 0.0
H737 H 0.99104 0.59163 0.7401 0.0
H738 H 0.04297 0.61607 0.08351 0.0
H739 H 0.06122 0.63409 0.00784 0.0
H740 H 0.0681 0.602 0.02195 0.0
H741 H 0.96525 0.63579 0.87291 0.0
H742 H 0.97039 0.62972 0.75174 0.0
H743 H 0.98556 0.65496 0.80957 0.0
C744 C 0.07444 0.22428 0.29139 0.0
C745 C 0.06039 0.24438 0.2636 0.0
C746 C 0.06778 0.2112 0.36993 0.0
C747 C 0.04646 0.21838 0.41879 0.0
C748 C 0.03583 0.24157 0.40269 0.0
C749 C 0.04303 0.25447 0.32463 0.0
C750 C 0.08064 0.18735 0.38961 0.0
C751 C 1.01367 0.2504 0.45573 0.0
C752 C 1.00149 0.1663 0.42812 0.0
C753 C 1.00216 0.16024 0.52122 0.0
C754 C 1.01548 0.18559 0.39491 0.0
C755 C 0.03077 0.19895 0.45676 0.0
C756 C 0.03106 0.19327 0.55164 0.0
C757 C 1.01662 0.17384 0.58282 0.0
C758 C 1.0142 0.1912 0.29299 0.0
C759 C 0.04727 0.20686 0.6193 0.0
H760 H 0.08856 0.21703 0.24593 0.0
H761 H 0.03248 0.27043 0.30477 0.0
H762 H 0.08061 0.18354 0.46463 0.0
H763 H 0.0709 0.17214 0.35369 0.0
H764 H 0.09982 0.18756 0.36428 0.0
H765 H 1.012 0.2707 0.45362 0.0
H766 H 0.99699 0.2424 0.42379 0.0
H767 H 1.01434 0.24462 0.52874 0.0
H768 H 0.99015 0.15565 0.38104 0.0
H769 H 1.01733 0.16868 0.65437 0.0
H770 H 0.03222 0.18758 0.26023 0.0
H771 H 1.00963 0.21081 0.28282 0.0
H772 H 1.00028 0.17992 0.25622 0.0
H773 H 0.04815 0.2267 0.604 0.0
H774 H 0.06614 0.19945 0.61399 0.0
H775 H 0.0409 0.20463 0.69148 0.0
C776 C 0.29688 0.04536 0.29973 0.0
C777 C 0.30791 0.06366 0.24704 0.0
C778 C 0.30893 0.03578 0.37642 0.0
C779 C 0.33231 0.04491 0.39984 0.0
C780 C 0.34101 0.06655 0.35831 0.0
C781 C 0.32866 0.0757 0.28144 0.0
C782 C 0.29862 1.01317 0.42079 0.0
C783 C 0.36543 0.07748 0.38425 0.0
C784 C 0.37381 1.01369 0.57193 0.0
C785 C 0.38786 0.99877 0.51286 0.0
C786 C 0.35487 0.02833 0.53733 0.0
C787 C 0.3503 0.02807 0.44137 0.0
C788 C 0.36393 1.01228 0.38192 0.0
C789 C 0.38252 0.99781 0.41865 0.0
C790 C 0.3405 0.0447 0.60253 0.0
C791 C 0.35946 1.01117 0.27888 0.0
H792 H 0.28056 0.03622 0.27439 0.0
H793 H 0.33675 0.09041 0.24224 0.0
H794 H 0.30577 0.99666 0.38401 0.0
H795 H 0.30405 1.01195 0.4943 0.0
H796 H 0.27833 1.01288 0.41605 0.0
H797 H 0.3667 0.09694 0.36313 0.0
H798 H 0.3687 0.07638 0.45962 0.0
H799 H 0.3802 0.06702 0.3486 0.0
H800 H 0.37845 1.01484 0.64419 0.0
H801 H 0.39333 0.98606 0.37334 0.0
H802 H 0.34391 0.04015 0.67588 0.0
H803 H 0.3206 0.04327 0.58865 0.0
H804 H 0.34571 0.06409 0.59175 0.0
H805 H 0.34001 1.00682 0.2645 0.0
H806 H 0.37105 0.99716 0.24351 0.0
H807 H 0.36342 0.02926 0.24815 0.0
C808 C 0.57556 0.31692 0.11597 0.0
C809 C 0.55476 0.3021 0.12116 0.0
C810 C 0.57719 0.33825 0.17024 0.0
C811 C 0.55807 0.34383 0.2331 0.0
C812 C 0.54073 0.32559 0.25468 0.0
C813 C 0.53896 0.30482 0.1968 0.0
C814 C 0.59675 0.35671 0.14781 0.0
C815 C 0.52161 0.32995 0.32807 0.0
C816 C 0.56247 0.40952 0.3173 0.0
C817 C 0.54825 0.42156 0.25055 0.0
C818 C 0.5639 0.38386 0.31922 0.0
C819 C 0.55187 0.36999 0.24996 0.0
C820 C 0.53627 0.38194 0.18622 0.0
C821 C 0.53427 0.40749 0.18885 0.0
C822 C 0.57935 0.37199 0.39257 0.0
C823 C 0.52317 0.36812 0.10981 0.0
H824 H 0.5882 0.3142 0.05898 0.0
H825 H 0.52322 0.29288 0.20276 0.0
H826 H 0.58856 0.37188 0.10771 0.0
H827 H 0.60459 0.36472 0.21189 0.0
H828 H 0.61181 0.3484 0.10632 0.0
H829 H 0.51425 0.31234 0.35373 0.0
H830 H 0.52927 0.34068 0.38694 0.0
H831 H 0.50619 0.34059 0.29873 0.0
H832 H 0.57343 0.41998 0.36596 0.0
H833 H 0.52245 0.41647 0.13965 0.0
H834 H 0.59884 0.37234 0.3714 0.0
H835 H 0.57398 0.35268 0.40453 0.0
H836 H 0.57789 0.38241 0.45879 0.0
H837 H 0.53687 0.36053 0.06074 0.0
H838 H 0.51044 0.38001 0.07066 0.0
H839 H 0.51254 0.35263 0.13777 0.0
C840 C 0.23178 0.57071 0.16698 0.0
C841 C 0.24894 0.55165 0.16945 0.0
C842 C 0.21248 0.57131 0.23013 0.0
C843 C 0.21168 0.55331 0.2998 0.0
C844 C 0.23287 0.53923 0.3178 0.0
C845 C 0.25121 0.53786 0.25002 0.0
C846 C 0.19112 0.58817 0.21155 0.0
C847 C 0.23443 0.52287 0.40052 0.0
C848 C 0.1463 0.55323 0.37743 0.0
C849 C 0.13653 0.53545 0.31642 0.0
C850 C 0.17163 0.55677 0.38446 0.0
C851 C 0.18734 0.54343 0.32474 0.0
C852 C 0.17777 0.52368 0.27084 0.0
C853 C 0.15257 0.51948 0.27024 0.0
C854 C 0.18106 0.57599 0.45123 0.0
C855 C 0.19351 0.5085 0.20577 0.0
H856 H 0.23105 0.58231 0.1068 0.0
H857 H 0.26528 0.52389 0.25479 0.0
H858 H 0.17458 0.57729 0.19399 0.0
H859 H 0.18702 0.59937 0.27396 0.0
H860 H 0.19479 0.60085 0.15382 0.0
H861 H 0.25318 0.52352 0.42995 0.0
H862 H 0.22106 0.52836 0.45481 0.0
H863 H 0.23088 0.50358 0.37939 0.0
H864 H 0.13437 0.56549 0.41602 0.0
H865 H 0.14532 0.50469 0.22782 0.0
H866 H 0.17599 0.5945 0.42681 0.0
H867 H 0.20118 0.57496 0.46071 0.0
H868 H 0.17208 0.57384 0.51935 0.0
H869 H 0.20281 0.52053 0.15584 0.0
H870 H 0.18277 0.49472 0.16584 0.0
H871 H 0.20772 0.49857 0.24498 0.0
C872 C 0.96992 0.80958 0.98347 0.0
C873 C 0.95867 0.81676 0.06708 0.0
C874 C 0.97507 0.82732 0.91661 0.0
C875 C 0.97058 0.85223 0.93918 0.0
C876 C 0.9528 0.85766 0.00784 0.0
C877 C 0.94562 0.83898 0.06764 0.0
C878 C 0.98907 0.82005 0.83096 0.0
C879 C 0.94458 0.8836 0.02871 0.0
C880 C 0.02826 0.88814 0.98447 0.0
C881 C 0.0223 0.91075 0.9466 0.0
C882 C 1.01246 0.86823 0.97693 0.0
C883 C 0.99053 0.87044 0.92436 0.0
C884 C 0.98657 0.89209 0.87302 0.0
C885 C 1.00222 0.9123 0.88653 0.0
C886 C 0.01864 0.84592 0.03325 0.0
C887 C 0.96548 0.89472 0.80688 0.0
H888 H 0.97811 0.79156 0.97588 0.0
H889 H 0.93417 0.84356 0.12656 0.0
H890 H 0.99077 0.83553 0.78237 0.0
H891 H 1.00759 0.81336 0.84951 0.0
H892 H 0.97957 0.8046 0.79553 0.0
H893 H 0.93129 0.88459 0.08669 0.0
H894 H 0.96052 0.89527 0.04696 0.0
H895 H 0.93569 0.89138 0.96693 0.0
H896 H 0.04469 0.8865 0.02594 0.0
H897 H 0.99798 0.92954 0.85369 0.0
H898 H 0.02171 0.82979 0.98755 0.0
H899 H 1.00344 0.84191 0.08065 0.0
H900 H 0.03537 0.84841 0.07587 0.0
H901 H 0.97239 0.90128 0.73955 0.0
H902 H 0.95266 0.90901 0.83319 0.0
H903 H 0.95543 0.8773 0.79518 0.0
C904 C 0.71636 1.00873 0.02173 0.0
C905 C 0.73753 1.01918 0.05949 0.0
C906 C 0.70413 0.01999 0.9489 0.0
C907 C 0.7136 0.04201 0.91273 0.0
C908 C 0.73684 0.05053 0.94164 0.0
C909 C 0.74856 0.03902 0.01561 0.0
C910 C 0.67956 1.01003 0.91909 0.0
C911 C 0.74795 0.07342 0.90242 0.0
C912 C 0.67323 0.06824 0.72627 0.0
C913 C 0.65745 0.08302 0.7792 0.0
C914 C 0.69305 0.05611 0.76709 0.0
C915 C 0.6967 0.05858 0.86336 0.0
C916 C 0.68168 0.07475 0.91602 0.0
C917 C 0.66231 0.08688 0.87301 0.0
C918 C 0.70921 0.03971 0.70838 0.0
C919 C 0.68485 0.07787 0.01918 0.0
H920 H 0.70818 0.99303 0.05485 0.0
H921 H 0.76509 0.04698 0.04441 0.0
H922 H 0.67849 1.0088 0.84284 0.0
H923 H 0.67596 0.99158 0.94757 0.0
H924 H 0.66484 0.02266 0.94304 0.0
H925 H 0.76812 0.07363 0.91185 0.0
H926 H 0.74371 0.07512 0.8279 0.0
H927 H 0.74023 0.08972 0.93883 0.0
H928 H 0.66917 0.06494 0.6544 0.0
H929 H 0.65018 0.09851 0.91368 0.0
H930 H 0.72875 0.044 0.72132 0.0
H931 H 0.70539 0.04166 0.63353 0.0
H932 H 0.7064 0.02028 0.7271 0.0
H933 H 0.68096 0.06025 0.05367 0.0
H934 H 0.67249 0.09215 0.04874 0.0
H935 H 0.704 0.08295 0.03577 0.0
C936 C 0.527 0.74342 0.07126 0.0
C937 C 0.51089 0.74789 0.14484 0.0
C938 C 0.52344 0.72298 0.01285 0.0
C939 C 0.50426 0.70652 0.03287 0.0
C940 C 0.48541 0.71395 0.09428 0.0
C941 C 0.48868 0.73519 0.1479 0.0
C942 C 0.54218 0.71696 0.93964 0.0
C943 C 0.46407 0.69746 0.11567 0.0
C944 C 0.49413 0.64133 0.94891 0.0
C945 C 0.5079 0.6281 0.01375 0.0
C946 C 0.49456 0.66704 0.94773 0.0
C947 C 0.508 0.67987 0.01615 0.0
C948 C 0.5228 0.66665 0.07898 0.0
C949 C 0.52309 0.64103 0.075 0.0
C950 C 0.47977 0.68012 0.87539 0.0
C951 C 0.53709 0.67933 0.1552 0.0
H952 H 0.54385 0.75376 0.06667 0.0
H953 H 0.47585 0.73938 0.20308 0.0
H954 H 0.5562 0.7044 0.96803 0.0
H955 H 0.53345 0.7076 0.87964 0.0
H956 H 0.55157 0.73377 0.91584 0.0
H957 H 0.45489 0.69149 0.05112 0.0
H958 H 0.47075 0.6808 0.15111 0.0
H959 H 0.45032 0.70669 0.16078 0.0
H960 H 0.48219 0.63183 0.90081 0.0
H961 H 0.53461 0.63114 0.12268 0.0
H962 H 0.48628 0.6991 0.86416 0.0
H963 H 0.4603 0.68081 0.89672 0.0
H964 H 0.48048 0.66984 0.80871 0.0
H965 H 0.5503 0.69248 0.12586 0.0
H966 H 0.54744 0.66623 0.19845 0.0
H967 H 0.52438 0.68979 0.20071 0.0
C968 C 0.82153 0.52661 0.02836 0.0
C969 C 0.8061 0.54435 0.06786 0.0
C970 C 0.84291 0.53366 0.98299 0.0
C971 C 0.84842 0.55896 0.97672 0.0
C972 C 0.83006 0.57654 0.99712 0.0
C973 C 0.80893 0.56899 0.04385 0.0
C974 C 0.86142 0.51414 0.95728 0.0
C975 C 0.83463 0.60353 0.98523 0.0
C976 C 0.91205 0.56516 0.06997 0.0
C977 C 0.92584 0.563 0.98906 0.0
C978 C 0.88657 0.56689 0.06641 0.0
C979 C 0.87458 0.56615 0.97942 0.0
C980 C 0.88858 0.56705 0.89751 0.0
C981 C 0.91418 0.5655 0.90328 0.0
C982 C 0.87281 0.56637 0.1568 0.0
C983 C 0.87657 0.56831 0.80402 0.0
H984 H 0.81893 0.5075 0.04555 0.0
H985 H 0.79668 0.5827 0.07312 0.0
H986 H 0.87046 0.51845 0.89103 0.0
H987 H 0.87577 0.51338 0.01143 0.0
H988 H 0.85287 0.49573 0.95106 0.0
H989 H 0.81715 0.6139 0.98054 0.0
H990 H 0.84496 0.61071 0.04572 0.0
H991 H 0.84569 0.60686 0.92247 0.0
H992 H 0.92091 0.56334 0.13651 0.0
H993 H 0.92498 0.56479 0.84051 0.0
H994 H 0.86934 0.547 0.17507 0.0
H995 H 0.85509 0.57616 0.15373 0.0
H996 H 0.88374 0.57489 0.21319 0.0
H997 H 0.8619 0.55441 0.7971 0.0
H998 H 0.88989 0.56559 0.74687 0.0
H999 H 0.86786 0.58657 0.79635 0.0
C1000 C 0.02121 0.20837 0.9018 0.0
C1001 C 0.04332 0.21369 0.94702 0.0
C1002 C 1.01676 0.18501 0.85983 0.0
C1003 C 0.03482 0.16584 0.8628 0.0
C1004 C 0.05755 0.17179 0.90601 0.0
C1005 C 0.06147 0.19533 0.94534 0.0
C1006 C 0.99217 0.18146 0.81462 0.0
C1007 C 0.07813 0.15352 0.91562 0.0
C1008 C 1.00677 0.10069 0.83428 0.0
C1009 C 0.02078 0.08983 0.76333 0.0
C1010 C 1.01181 0.12458 0.86931 0.0
C1011 C 0.02969 0.13967 0.82629 0.0
C1012 C 0.04312 0.12893 0.75087 0.0
C1013 C 0.03898 0.10421 0.72263 0.0
C1014 C 0.99805 0.13302 0.95438 0.0
C1015 C 0.06241 0.14288 0.69908 0.0
H1016 H 1.00683 0.2221 0.90262 0.0
H1017 H 0.07879 0.19902 0.97929 0.0
H1018 H 0.98989 0.16321 0.78169 0.0
H1019 H 0.97751 0.18418 0.86685 0.0
H1020 H 0.98946 0.19569 0.76144 0.0
H1021 H 0.08457 0.15323 0.98833 0.0
H1022 H 0.07311 0.13471 0.89473 0.0
H1023 H 0.09384 0.15943 0.8728 0.0
H1024 H 0.99251 0.08991 0.86608 0.0
H1025 H 0.04966 0.09636 0.66643 0.0
H1026 H 0.98032 0.14118 0.93343 0.0
H1027 H 1.00841 0.14678 0.9956 0.0
H1028 H 0.99384 0.11727 0.99953 0.0
H1029 H 0.06241 0.16275 0.71545 0.0
H1030 H 0.05974 0.14035 0.62353 0.0
H1031 H 0.08069 0.1352 0.71576 0.0
C1032 C 0.34384 0.03137 0.89072 0.0
C1033 C 0.3368 0.05442 0.92601 0.0
C1034 C 0.36756 0.02722 0.85341 0.0
C1035 C 0.38499 0.0467 0.84997 0.0
C1036 C 0.37755 0.0701 0.88438 0.0
C1037 C 0.35379 0.07364 0.92071 0.0
C1038 C 0.37378 1.00134 0.82364 0.0
C1039 C 0.39547 0.09093 0.89217 0.0
C1040 C 0.45209 0.02442 0.84085 0.0
C1041 C 0.46048 0.03288 0.75545 0.0
C1042 C 0.42829 0.02986 0.8738 0.0
C1043 C 0.41127 0.04249 0.81715 0.0
C1044 C 0.41976 0.05097 0.72991 0.0
C1045 C 0.44416 0.04629 0.70099 0.0
C1046 C 0.42151 0.02182 0.96966 0.0
C1047 C 0.40352 0.06492 0.66476 0.0
H1048 H 0.33134 1.0161 0.89743 0.0
H1049 H 0.34892 0.0913 0.95086 0.0
H1050 H 0.39185 0.99958 0.78957 0.0
H1051 H 0.37358 0.98935 0.88494 0.0
H1052 H 0.35945 0.99425 0.77598 0.0
H1053 H 0.38684 0.10817 0.91803 0.0
H1054 H 0.41014 0.08564 0.94094 0.0
H1055 H 0.40403 0.09458 0.8245 0.0
H1056 H 0.46437 1.01355 0.88271 0.0
H1057 H 0.45012 0.05231 0.63362 0.0
H1058 H 0.41091 1.00455 0.9651 0.0
H1059 H 0.41004 0.03586 1.00532 0.0
H1060 H 0.43798 1.01831 0.01249 0.0
H1061 H 0.38415 0.06566 0.68682 0.0
H1062 H 0.40457 0.05658 0.5945 0.0
H1063 H 0.41043 0.08396 0.65902 0.0
C1064 C 0.54654 0.33305 0.77955 0.0
C1065 C 0.52551 0.32076 0.81053 0.0
C1066 C 0.54528 0.3565 0.73967 0.0
C1067 C 0.5223 0.36819 0.72795 0.0
C1068 C 0.5008 0.35492 0.75114 0.0
C1069 C 0.50265 0.33157 0.79294 0.0
C1070 C 0.56881 0.36964 0.71796 0.0
C1071 C 0.47583 0.3661 0.73752 0.0
C1072 C 0.52059 0.43836 0.75414 0.0
C1073 C 0.52133 0.44651 0.66255 0.0
C1074 C 0.52088 0.4132 0.77564 0.0
C1075 C 0.52117 0.3952 0.70389 0.0
C1076 C 0.52162 0.40328 0.61081 0.0
C1077 C 0.52213 0.42876 0.59133 0.0
C1078 C 0.52134 0.40593 0.8759 0.0
C1079 C 0.5211 0.38501 0.53173 0.0
H1080 H 0.56433 0.32507 0.79364 0.0
H1081 H 0.48628 0.32261 0.81767 0.0
H1082 H 0.56811 0.37751 0.64786 0.0
H1083 H 0.57133 0.3851 0.76769 0.0
H1084 H 0.585 0.35734 0.72225 0.0
H1085 H 0.46109 0.35221 0.74264 0.0
H1086 H 0.4726 0.38047 0.79109 0.0
H1087 H 0.47464 0.37499 0.66921 0.0
H1088 H 0.52039 0.45183 0.80987 0.0
H1089 H 0.52258 0.43477 0.52035 0.0
H1090 H 0.53763 0.39432 0.88953 0.0
H1091 H 0.50494 0.39487 0.89212 0.0
H1092 H 0.52181 0.42205 0.9236 0.0
H1093 H 0.52261 0.39399 0.4636 0.0
H1094 H 0.5037 0.37458 0.53366 0.0
H1095 H 0.53618 0.37152 0.53845 0.0
C1096 C 0.21478 0.5438 0.82509 0.0
C1097 C 0.22632 0.52253 0.85816 0.0
C1098 C 0.19116 0.54321 0.78508 0.0
C1099 C 0.17823 0.52073 0.777 0.0
C1100 C 0.19041 0.49892 0.80491 0.0
C1101 C 0.21407 0.50009 0.84565 0.0
C1102 C 0.1793 0.56708 0.75815 0.0
C1103 C 0.17783 0.47441 0.79702 0.0
C1104 C 0.10778 0.52381 0.78954 0.0
C1105 C 0.10055 0.52295 0.69633 0.0
C1106 C 0.13269 0.523 0.81614 0.0
C1107 C 0.15137 0.5206 0.74837 0.0
C1108 C 0.14418 0.51919 0.65395 0.0
C1109 C 0.11904 0.52084 0.62904 0.0
C1110 C 0.13899 0.5251 0.91743 0.0
C1111 C 0.1631 0.51561 0.57921 0.0
H1112 H 0.22365 0.56134 0.83648 0.0
H1113 H 0.2223 0.48363 0.87312 0.0
H1114 H 0.1705 0.56533 0.68945 0.0
H1115 H 0.16475 0.57184 0.80879 0.0
H1116 H 0.19264 0.58239 0.75645 0.0
H1117 H 0.19079 0.45894 0.80699 0.0
H1118 H 0.1633 0.4733 0.85023 0.0
H1119 H 0.16892 0.47227 0.72858 0.0
H1120 H 0.09384 0.52573 0.84236 0.0
H1121 H 0.11382 0.51987 0.55694 0.0
H1122 H 0.15088 0.54128 0.92969 0.0
H1123 H 0.14939 0.50868 0.93925 0.0
H1124 H 0.12247 0.52698 0.96172 0.0
H1125 H 0.15474 0.5138 0.50963 0.0
H1126 H 0.17403 0.49887 0.59278 0.0
H1127 H 0.176 0.53126 0.57962 0.0
C1128 C 1.00495 0.84399 0.44445 0.0
C1129 C 1.00208 0.84381 0.3478 0.0
C1130 C 1.00995 0.86615 0.49469 0.0
C1131 C 1.0116 0.889 0.44818 0.0
C1132 C 1.00906 0.88863 0.35087 0.0
C1133 C 1.00509 0.86636 0.30261 0.0
C1134 C 1.01297 0.86516 0.59798 0.0
C1135 C 1.00967 0.91203 0.29708 0.0
C1136 C 1.00509 0.95216 0.57486 0.0
C1137 C 0.02946 0.96029 0.57928 0.0
C1138 C 0.99892 0.92905 0.53397 0.0
C1139 C 1.01755 0.91309 0.4986 0.0
C1140 C 0.04215 0.92116 0.50503 0.0
C1141 C 0.04768 0.94439 0.54424 0.0
C1142 C 0.97237 0.92193 0.52705 0.0
C1143 C 0.06285 0.90527 0.46946 0.0
H1144 H 1.00267 0.82697 0.48115 0.0
H1145 H 1.00363 0.86682 0.22808 0.0
H1146 H 0.02975 0.87508 0.61975 0.0
H1147 H 0.99721 0.87444 0.63183 0.0
H1148 H 1.014 0.84602 0.62302 0.0
H1149 H 1.00567 0.90902 0.22264 0.0
H1150 H 0.99576 0.92483 0.32558 0.0
H1151 H 0.02783 0.92088 0.30423 0.0
H1152 H 0.99082 0.96384 0.60323 0.0
H1153 H 0.06663 0.95015 0.54753 0.0
H1154 H 0.96955 0.90345 0.55619 0.0
H1155 H 0.96688 0.92099 0.45336 0.0
H1156 H 0.9602 0.93523 0.56353 0.0
H1157 H 0.06169 0.8867 0.49952 0.0
H1158 H 0.08109 0.91313 0.48601 0.0
H1159 H 0.06137 0.90309 0.39342 0.0
C1160 C 0.69825 0.99025 0.40124 0.0
C1161 C 0.71223 1.0112 0.38345 0.0
C1162 C 0.67445 0.99196 0.4397 0.0
C1163 C 0.664 1.01529 0.46135 0.0
C1164 C 0.67857 0.03651 0.44622 0.0
C1165 C 0.70224 0.03415 0.40754 0.0
C1166 C 0.65972 0.96883 0.44936 0.0
C1167 C 0.66921 0.06217 0.46472 0.0
C1168 C 0.59499 0.03004 0.46563 0.0
C1169 C 0.58798 0.02407 0.55567 0.0
C1170 C 0.61901 0.02568 0.43284 0.0
C1171 C 0.63758 1.01748 0.49406 0.0
C1172 C 0.6307 1.01234 0.58674 0.0
C1173 C 0.60601 1.01503 0.6153 0.0
C1174 C 0.6245 0.03031 0.33251 0.0
C1175 C 0.64913 1.005 0.65881 0.0
H1176 H 0.70533 0.97252 0.37919 0.0
H1177 H 0.71244 0.05054 0.39094 0.0
H1178 H 0.65232 0.96736 0.52026 0.0
H1179 H 0.644 0.9695 0.40123 0.0
H1180 H 0.67063 0.95208 0.4334 0.0
H1181 H 0.68333 0.07301 0.50221 0.0
H1182 H 0.66624 0.07148 0.398 0.0
H1183 H 0.65191 0.06278 0.5046 0.0
H1184 H 0.58154 0.0382 0.42036 0.0
H1185 H 0.60117 1.01158 0.68655 0.0
H1186 H 0.63567 1.01511 0.30272 0.0
H1187 H 0.63507 0.04749 0.32612 0.0
H1188 H 0.60757 0.0323 0.29093 0.0
H1189 H 0.64513 0.98607 0.68154 0.0
H1190 H 0.64719 1.01719 0.72045 0.0
H1191 H 0.66833 1.00579 0.63466 0.0
C1192 C 0.51146 0.71918 0.49373 0.0
C1193 C 0.53337 0.72996 0.46361 0.0
C1194 C 0.51106 0.69562 0.53305 0.0
C1195 C 0.53314 0.68219 0.54346 0.0
C1196 C 0.55553 0.69386 0.52059 0.0
C1197 C 0.55538 0.71745 0.48051 0.0
C1198 C 0.48669 0.68427 0.5558 0.0
C1199 C 0.57962 0.68068 0.53188 0.0
C1200 C 0.53024 0.62113 0.67604 0.0
C1201 C 0.52929 0.60376 0.60361 0.0
C1202 C 0.53219 0.6466 0.65809 0.0
C1203 C 0.53234 0.65508 0.56559 0.0
C1204 C 0.53089 0.63748 0.49268 0.0
C1205 C 0.52975 0.61227 0.51252 0.0
C1206 C 0.53477 0.66439 0.73802 0.0
C1207 C 0.53038 0.64528 0.39302 0.0
H1208 H 0.49431 0.72842 0.47945 0.0
H1209 H 0.57234 0.72523 0.45578 0.0
H1210 H 0.48268 0.66936 0.50517 0.0
H1211 H 0.48718 0.67598 0.62524 0.0
H1212 H 0.47152 0.69786 0.55382 0.0
H1213 H 0.59539 0.6934 0.52686 0.0
H1214 H 0.58037 0.67134 0.59937 0.0
H1215 H 0.58151 0.6664 0.47705 0.0
H1216 H 0.53019 0.61478 0.74661 0.0
H1217 H 0.52879 0.59905 0.45603 0.0
H1218 H 0.52107 0.67935 0.73281 0.0
H1219 H 0.5531 0.67305 0.73562 0.0
H1220 H 0.53269 0.65531 0.80567 0.0
H1221 H 0.51481 0.65798 0.38146 0.0
H1222 H 0.52866 0.62946 0.34432 0.0
H1223 H 0.54738 0.65534 0.37633 0.0
C1224 C 0.83879 0.51003 0.38626 0.0
C1225 C 0.82211 0.52967 0.3944 0.0
C1226 C 0.86161 0.51017 0.43231 0.0
C1227 C 0.86842 0.5305 0.48888 0.0
C1228 C 0.85099 0.54975 0.5019 0.0
C1229 C 0.82813 0.54902 0.45516 0.0
C1230 C 0.87923 0.48928 0.41444 0.0
C1231 C 0.85638 0.57169 0.56298 0.0
C1232 C 0.92725 0.52322 0.63597 0.0
C1233 C 0.94514 0.53438 0.58061 0.0
C1234 C 0.9022 0.52248 0.60924 0.0
C1235 C 0.8946 0.5327 0.52403 0.0
C1236 C 0.91257 0.54417 0.46885 0.0
C1237 C 0.93724 0.54485 0.49759 0.0
C1238 C 0.88397 0.51032 0.67163 0.0
C1239 C 0.9058 0.55541 0.37774 0.0
H1240 H 0.83461 0.49514 0.33855 0.0
H1241 H 0.8157 0.56447 0.46135 0.0
H1242 H 0.89493 0.49594 0.37323 0.0
H1243 H 0.88664 0.48235 0.48042 0.0
H1244 H 0.87053 0.47381 0.37625 0.0
H1245 H 0.84758 0.58848 0.53565 0.0
H1246 H 0.84848 0.56839 0.6322 0.0
H1247 H 0.87624 0.57518 0.57117 0.0
H1248 H 0.93279 0.51498 0.70034 0.0
H1249 H 0.95051 0.55296 0.4526 0.0
H1250 H 0.87906 0.49211 0.64223 0.0
H1251 H 0.86691 0.52134 0.67666 0.0
H1252 H 0.89147 0.50766 0.74204 0.0
H1253 H 0.89834 0.54107 0.33059 0.0
H1254 H 0.92164 0.56419 0.34348 0.0
H1255 H 0.89128 0.56943 0.38853 0.0
loop_
_geom_bond_atom_site_label_1
_geom_bond_atom_site_label_2
_geom_bond_distance
_geom_bond_site_symmetry_2
_ccdc_geom_bond_type
H0 C1 0.949 . S
C1 H0 0.949 . S
C1 C2 1.395 . S
C1 C3 1.391 . S
C2 C1 1.395 . S
C2 C5 1.390 . S
C3 C1 1.391 . S
C3 C7 1.387 . S
C3 C8 1.491 . S
H4 C5 0.950 . S
C5 C2 1.390 . S
C5 H4 0.950 . S
C5 C6 1.378 . S
C6 C5 1.378 . S
C6 C7 1.409 . S
C7 C3 1.387 . S
C7 C6 1.409 . S
C7 H9 0.951 . S
C8 C3 1.491 . S
C8 C10 1.382 . S
C8 C12 1.404 . S
H9 C7 0.951 . S
C10 C8 1.382 . S
C10 C11 1.390 . S
C10 H15 0.949 . S
C11 C10 1.390 . S
C11 C16 1.399 . S
C12 C8 1.404 . S
C12 H13 0.950 . S
C12 C14 1.375 . S
H13 C12 0.950 . S
C14 C12 1.375 . S
C14 C16 1.382 . S
C14 H18 0.950 . S
H15 C10 0.949 . S
C16 C11 1.399 . S
C16 C14 1.382 . S
C16 H17 0.952 . S
H17 C16 0.952 . S
H18 C14 0.950 . S
H19 C20 0.949 . S
C20 H19 0.949 . S
C20 C21 1.395 . S
C20 C22 1.391 . S
C21 C20 1.395 . S
C21 C24 1.390 . S
C22 C20 1.391 . S
C22 C26 1.387 . S
C22 C27 1.491 . S
H23 C24 0.950 . S
C24 C21 1.390 . S
C24 H23 0.950 . S
C24 C25 1.378 . S
C25 C24 1.378 . S
C25 C26 1.409 . S
C26 C22 1.387 . S
C26 C25 1.409 . S
C26 H28 0.951 . S
C27 C22 1.491 . S
C27 C29 1.382 . S
C27 C31 1.404 . S
H28 C26 0.951 . S
C29 C27 1.382 . S
C29 C30 1.390 . S
C29 H34 0.949 . S
C30 C29 1.390 . S
C30 C35 1.399 . S
C31 C27 1.404 . S
C31 H32 0.950 . S
C31 C33 1.375 . S
H32 C31 0.950 . S
C33 C31 1.375 . S
C33 C35 1.382 . S
C33 H37 0.950 . S
H34 C29 0.949 . S
C35 C30 1.399 . S
C35 C33 1.382 . S
C35 H36 0.952 . S
H36 C35 0.952 . S
H37 C33 0.950 . S
H38 C39 0.949 . S
C39 H38 0.949 . S
C39 C40 1.395 . S
C39 C41 1.391 . S
C40 C39 1.395 . S
C40 C43 1.390 . S
C41 C39 1.391 . S
C41 C45 1.387 . S
C41 C46 1.491 . S
H42 C43 0.950 . S
C43 C40 1.390 . S
C43 H42 0.950 . S
C43 C44 1.378 . S
C44 C43 1.378 . S
C44 C45 1.409 . S
C45 C41 1.387 . S
C45 C44 1.409 . S
C45 H47 0.951 . S
C46 C41 1.491 . S
C46 C48 1.382 . S
C46 C50 1.404 . S
H47 C45 0.951 . S
C48 C46 1.382 . S
C48 C49 1.390 . S
C48 H53 0.949 . S
C49 C48 1.390 . S
C49 C54 1.399 . S
C50 C46 1.404 . S
C50 H51 0.950 . S
C50 C52 1.375 . S
H51 C50 0.950 . S
C52 C50 1.375 . S
C52 C54 1.382 . S
C52 H56 0.950 . S
H53 C48 0.949 . S
C54 C49 1.399 . S
C54 C52 1.382 . S
C54 H55 0.952 . S
H55 C54 0.952 . S
H56 C52 0.950 . S
H57 C58 0.949 . S
C58 H57 0.949 . S
C58 C59 1.395 . S
C58 C60 1.391 . S
C59 C58 1.395 . S
C59 C62 1.390 . S
C60 C58 1.391 . S
C60 C64 1.387 . S
C60 C65 1.491 . S
H61 C62 0.950 . S
C62 C59 1.390 . S
C62 H61 0.950 . S
C62 C63 1.378 . S
C63 C62 1.378 . S
C63 C64 1.409 . S
C64 C60 1.387 . S
C64 C63 1.409 . S
C64 H66 0.951 . S
C65 C60 1.491 . S
C65 C67 1.382 . S
C65 C69 1.404 . S
H66 C64 0.951 . S
C67 C65 1.382 . S
C67 C68 1.390 . S
C67 H72 0.949 . S
C68 C67 1.390 . S
C68 C73 1.399 . S
C69 C65 1.404 . S
C69 H70 0.950 . S
C69 C71 1.375 . S
H70 C69 0.950 . S
C71 C69 1.375 . S
C71 C73 1.382 . S
C71 H75 0.950 . S
H72 C67 0.949 . S
C73 C68 1.399 . S
C73 C71 1.382 . S
C73 H74 0.952 . S
H74 C73 0.952 . S
H75 C71 0.950 . S
H76 C77 0.949 . S
C77 H76 0.949 . S
C77 C78 1.395 . S
C77 C79 1.391 1_554 S
C78 C77 1.395 . S
C78 C81 1.390 1_554 S
C79 C77 1.391 1_556 S
C79 C83 1.387 . S
C79 C84 1.491 . S
H80 C81 0.950 . S
C81 C78 1.390 1_556 S
C81 H80 0.950 . S
C81 C82 1.378 . S
C82 C81 1.378 . S
C82 C83 1.409 . S
C83 C79 1.387 . S
C83 C82 1.409 . S
C83 H85 0.951 . S
C84 C79 1.491 . S
C84 C86 1.382 1_556 S
C84 C88 1.404 . S
H85 C83 0.951 . S
C86 C84 1.382 1_554 S
C86 C87 1.390 . S
C86 H91 0.949 . S
C87 C86 1.390 . S
C87 C92 1.399 1_554 S
C88 C84 1.404 . S
C88 H89 0.950 . S
C88 C90 1.375 . S
H89 C88 0.950 . S
C90 C88 1.375 . S
C90 C92 1.382 . S
C90 H94 0.950 . S
H91 C86 0.949 . S
C92 C87 1.399 1_556 S
C92 C90 1.382 . S
C92 H93 0.952 . S
H93 C92 0.952 . S
H94 C90 0.950 . S
H95 C96 0.949 . S
C96 H95 0.949 . S
C96 C97 1.395 . S
C96 C98 1.391 1_554 S
C97 C96 1.395 . S
C97 C100 1.390 1_554 S
C98 C96 1.391 1_556 S
C98 C102 1.387 . S
C98 C103 1.491 . S
H99 C100 0.950 . S
C100 C97 1.390 1_556 S
C100 H99 0.950 . S
C100 C101 1.378 . S
C101 C100 1.378 . S
C101 C102 1.409 . S
C102 C98 1.387 . S
C102 C101 1.409 . S
C102 H104 0.951 . S
C103 C98 1.491 . S
C103 C105 1.382 1_556 S
C103 C107 1.404 . S
H104 C102 0.951 . S
C105 C103 1.382 1_554 S
C105 C106 1.390 . S
C105 H110 0.949 . S
C106 C105 1.390 . S
C106 C111 1.399 1_554 S
C107 C103 1.404 . S
C107 H108 0.950 . S
C107 C109 1.375 . S
H108 C107 0.950 . S
C109 C107 1.375 . S
C109 C111 1.382 . S
C109 H113 0.950 . S
H110 C105 0.949 . S
C111 C106 1.399 1_556 S
C111 C109 1.382 . S
C111 H112 0.952 . S
H112 C111 0.952 . S
H113 C109 0.950 . S
H114 C115 0.949 . S
C115 H114 0.949 . S
C115 C116 1.395 . S
C115 C117 1.391 1_554 S
C116 C115 1.395 . S
C116 C119 1.390 1_554 S
C117 C115 1.391 1_556 S
C117 C121 1.387 . S
C117 C122 1.491 . S
H118 C119 0.950 . S
C119 C116 1.390 1_556 S
C119 H118 0.950 . S
C119 C120 1.378 . S
C120 C119 1.378 . S
C120 C121 1.409 . S
C121 C117 1.387 . S
C121 C120 1.409 . S
C121 H123 0.951 . S
C122 C117 1.491 . S
C122 C124 1.382 1_556 S
C122 C126 1.404 . S
H123 C121 0.951 . S
C124 C122 1.382 1_554 S
C124 C125 1.390 . S
C124 H129 0.949 . S
C125 C124 1.390 . S
C125 C130 1.399 1_554 S
C126 C122 1.404 . S
C126 H127 0.950 . S
C126 C128 1.375 . S
H127 C126 0.950 . S
C128 C126 1.375 . S
C128 C130 1.382 . S
C128 H132 0.950 . S
H129 C124 0.949 . S
C130 C125 1.399 1_556 S
C130 C128 1.382 . S
C130 H131 0.952 . S
H131 C130 0.952 . S
H132 C128 0.950 . S
H133 C134 0.949 . S
C134 H133 0.949 . S
C134 C135 1.395 . S
C134 C136 1.391 1_554 S
C135 C134 1.395 . S
C135 C138 1.390 1_554 S
C136 C134 1.391 1_556 S
C136 C140 1.387 . S
C136 C141 1.491 . S
H137 C138 0.950 . S
C138 C135 1.390 1_556 S
C138 H137 0.950 . S
C138 C139 1.378 . S
C139 C138 1.378 . S
C139 C140 1.409 . S
C140 C136 1.387 . S
C140 C139 1.409 . S
C140 H142 0.951 . S
C141 C136 1.491 . S
C141 C143 1.382 1_556 S
C141 C145 1.404 . S
H142 C140 0.951 . S
C143 C141 1.382 1_554 S
C143 C144 1.390 . S
C143 H148 0.949 . S
C144 C143 1.390 . S
C144 C149 1.399 1_554 S
C145 C141 1.404 . S
C145 H146 0.950 . S
C145 C147 1.375 . S
H146 C145 0.950 . S
C147 C145 1.375 . S
C147 C149 1.382 . S
C147 H151 0.950 . S
H148 C143 0.949 . S
C149 C144 1.399 1_556 S
C149 C147 1.382 . S
C149 H150 0.952 . S
H150 C149 0.952 . S
H151 C147 0.950 . S
Eu152 N183 2.657 1_565 S
Eu152 N190 2.609 1_565 S
Eu152 O196 2.558 . S
Eu152 O197 2.612 1_455 S
Eu152 O199 2.339 1_465 S
Eu152 O200 2.563 . S
Eu152 O201 2.419 . S
Eu152 O203 2.380 1_565 S
Eu152 O204 2.439 . S
Eu152 C216 2.848 . S
C153 C156 1.429 1_545 S
C153 C157 1.411 . S
C153 N160 1.377 . S
C154 C156 1.420 . S
C154 C158 1.423 . S
C154 C166 1.392 . S
C155 C157 1.420 1_565 S
C155 C158 1.351 . S
C155 H178 0.931 . S
C156 C153 1.429 1_565 S
C156 C154 1.420 . S
C156 N164 1.362 1_565 S
C157 C153 1.411 . S
C157 C155 1.420 1_545 S
C157 C162 1.395 . S
C158 C154 1.423 . S
C158 C155 1.351 . S
C158 H170 0.930 . S
C159 C161 1.400 . S
C159 C162 1.386 . S
C159 H171 0.930 . S
N160 C153 1.377 . S
N160 C161 1.321 . S
N160 Eu163 2.609 . S
C161 C159 1.400 . S
C161 N160 1.321 . S
C161 H168 0.930 . S
C162 C157 1.395 . S
C162 C159 1.386 . S
C162 H181 0.930 . S
Eu163 N160 2.609 . S
Eu163 N164 2.657 . S
Eu163 O197 2.380 1_545 S
Eu163 O198 2.432 . S
Eu163 O202 2.558 . S
Eu163 O203 2.612 1_655 S
Eu163 O205 2.339 1_655 S
Eu163 O206 2.563 1_655 S
Eu163 O207 2.421 . S
Eu163 C227 2.848 . S
N164 C156 1.362 1_545 S
N164 Eu163 2.657 . S
N164 C165 1.334 1_645 S
C165 N164 1.334 1_465 S
C165 C167 1.413 . S
C165 H172 0.929 . S
C166 C154 1.392 . S
C166 C167 1.367 1_655 S
C166 H174 0.930 . S
C167 C165 1.413 . S
C167 C166 1.367 1_455 S
C167 H169 0.930 . S
H168 C161 0.930 . S
H169 C167 0.930 . S
H170 C158 0.930 . S
H171 C159 0.930 . S
H172 C165 0.929 . S
H173 C187 0.930 1_655 S
H174 C166 0.930 . S
H175 C193 0.930 . S
H176 C184 0.929 1_655 S
H177 C191 0.930 . S
H178 C155 0.931 . S
H179 C185 0.930 . S
H180 C218 0.930 . S
H181 C162 0.930 . S
H182 C217 0.931 . S
N183 Eu152 2.657 1_545 S
N183 C184 1.334 . S
N183 C188 1.362 . S
C184 H176 0.929 1_455 S
C184 N183 1.334 . S
C184 C187 1.413 1_556 S
C185 H179 0.930 . S
C185 C186 1.392 . S
C185 C187 1.367 . S
C186 C185 1.392 . S
C186 C188 1.420 1_554 S
C186 C218 1.423 . S
C187 H173 0.930 1_455 S
C187 C184 1.413 1_554 S
C187 C185 1.367 . S
C188 N183 1.362 . S
C188 C186 1.420 1_556 S
C188 C192 1.429 . S
H189 C194 0.930 . S
N190 Eu152 2.609 1_545 S
N190 C192 1.377 . S
N190 C193 1.321 1_545 S
C191 H177 0.930 . S
C191 C193 1.400 . S
C191 C194 1.386 1_565 S
C192 C188 1.429 . S
C192 N190 1.377 . S
C192 C195 1.411 . S
C193 H175 0.930 . S
C193 N190 1.321 1_565 S
C193 C191 1.400 . S
C194 H189 0.930 . S
C194 C191 1.386 1_545 S
C194 C195 1.395 . S
C195 C192 1.411 . S
C195 C194 1.395 . S
C195 C217 1.420 1_556 S
O196 Eu152 2.558 . S
O196 C216 1.257 . S
O197 Eu152 2.612 1_655 S
O197 Eu163 2.380 1_565 S
O197 C208 1.276 . S
O198 Eu163 2.432 . S
O198 C215 1.264 . S
O199 Eu152 2.339 1_645 S
O199 C215 1.252 . S
O200 Eu152 2.563 . S
O200 C208 1.235 1_455 S
O201 Eu152 2.419 . S
O201 C216 1.249 . S
O202 Eu163 2.558 . S
O202 C227 1.257 . S
O203 Eu152 2.380 1_545 S
O203 Eu163 2.612 1_455 S
O203 C219 1.276 . S
O204 Eu152 2.439 . S
O204 C226 1.235 1_565 S
O205 Eu163 2.339 1_455 S
O205 C226 1.254 . S
O206 Eu163 2.563 1_455 S
O206 C219 1.235 . S
O207 Eu163 2.421 . S
O207 C227 1.257 . S
C208 O197 1.276 . S
C208 O200 1.235 1_655 S
C209 C211 1.393 . S
C209 C213 1.395 . S
C209 C216 1.492 . S
C210 C211 1.392 . S
C210 C212 1.386 1_556 S
C211 C209 1.393 . S
C211 C210 1.392 . S
C211 H228 0.892 1_455 S
C212 C210 1.386 1_554 S
C212 C214 1.395 1_554 S
C212 H229 0.930 . S
C213 C209 1.395 . S
C213 C214 1.379 . S
C213 H230 0.930 . S
C214 C212 1.395 1_556 S
C214 C213 1.379 . S
C214 H231 0.930 . S
C215 O198 1.264 . S
C215 O199 1.252 . S
C216 Eu152 2.848 . S
C216 O196 1.257 . S
C216 O201 1.249 . S
C216 C209 1.492 . S
C217 H182 0.931 . S
C217 C195 1.420 1_554 S
C217 C218 1.351 . S
C218 H180 0.930 . S
C218 C186 1.423 . S
C218 C217 1.351 . S
C219 O203 1.276 . S
C219 O206 1.235 . S
C220 C221 1.391 . S
C220 C224 1.395 . S
C220 C227 1.492 . S
C221 C220 1.391 . S
C221 C222 1.392 . S
C221 H232 0.932 1_655 S
C222 C221 1.392 . S
C222 C223 1.386 . S
C223 C222 1.386 . S
C223 C225 1.395 . S
C223 H233 0.930 . S
C224 C220 1.395 . S
C224 C225 1.379 . S
C224 H234 0.930 . S
C225 C223 1.395 . S
C225 C224 1.379 . S
C225 H235 0.930 . S
C226 O204 1.235 1_545 S
C226 O205 1.254 . S
C227 Eu163 2.848 . S
C227 O202 1.257 . S
C227 O207 1.257 . S
C227 C220 1.492 . S
H228 C211 0.892 1_655 S
H229 C212 0.930 . S
H230 C213 0.930 . S
H231 C214 0.930 . S
H232 C221 0.932 1_455 S
H233 C223 0.930 . S
H234 C224 0.930 . S
H235 C225 0.930 . S
Eu236 N267 2.657 . S
Eu236 N274 2.609 . S
Eu236 O280 2.558 . S
Eu236 O281 2.626 . S
Eu236 O283 2.339 1_545 S
Eu236 O284 2.563 . S
Eu236 O285 2.419 . S
Eu236 O287 2.380 . S
Eu236 O288 2.432 . S
Eu236 C300 2.848 . S
C237 C240 1.429 . S
C237 C241 1.411 . S
C237 N244 1.377 . S
C238 C240 1.420 . S
C238 C242 1.423 . S
C238 C250 1.392 . S
C239 C241 1.420 . S
C239 C242 1.351 . S
C239 H262 0.931 . S
C240 C237 1.429 . S
C240 C238 1.420 . S
C240 N248 1.362 . S
C241 C237 1.411 . S
C241 C239 1.420 . S
C241 C246 1.395 . S
C242 C238 1.423 . S
C242 C239 1.351 . S
C242 H254 0.930 . S
C243 C245 1.400 . S
C243 C246 1.386 . S
C243 H255 0.930 . S
N244 C237 1.377 . S
N244 C245 1.321 . S
N244 Eu247 2.609 . S
C245 C243 1.400 . S
C245 N244 1.321 . S
C245 H252 0.930 . S
C246 C241 1.395 . S
C246 C243 1.386 . S
C246 H265 0.930 . S
Eu247 N244 2.609 . S
Eu247 N248 2.657 . S
Eu247 O281 2.377 1_565 S
Eu247 O282 2.432 . S
Eu247 O286 2.558 . S
Eu247 O287 2.612 1_565 S
Eu247 O289 2.339 1_565 S
Eu247 O290 2.563 1_565 S
Eu247 O291 2.419 1_565 S
Eu247 C311 2.848 . S
N248 C240 1.362 . S
N248 Eu247 2.657 . S
N248 C249 1.334 1_565 S
C249 N248 1.334 1_545 S
C249 C251 1.413 . S
C249 H256 0.929 . S
C250 C238 1.392 . S
C250 C251 1.367 1_565 S
C250 H258 0.930 . S
C251 C249 1.413 . S
C251 C250 1.367 1_545 S
C251 H253 0.930 . S
H252 C245 0.930 . S
H253 C251 0.930 . S
H254 C242 0.930 . S
H255 C243 0.930 . S
H256 C249 0.929 . S
H257 C271 0.930 1_565 S
H258 C250 0.930 . S
H259 C277 0.930 . S
H260 C268 0.929 1_565 S
H261 C275 0.930 . S
H262 C239 0.931 . S
H263 C269 0.930 . S
H264 C302 0.930 . S
H265 C246 0.930 . S
H266 C301 0.931 . S
N267 Eu236 2.657 . S
N267 C268 1.334 . S
N267 C272 1.362 . S
C268 H260 0.929 1_545 S
C268 N267 1.334 . S
C268 C271 1.413 1_556 S
C269 H263 0.930 . S
C269 C270 1.392 . S
C269 C271 1.367 . S
C270 C269 1.392 . S
C270 C272 1.420 1_554 S
C270 C302 1.423 . S
C271 H257 0.930 1_545 S
C271 C268 1.413 1_554 S
C271 C269 1.367 . S
C272 N267 1.362 . S
C272 C270 1.420 1_556 S
C272 C276 1.429 . S
H273 C278 0.930 . S
N274 Eu236 2.609 . S
N274 C276 1.377 . S
N274 C277 1.321 . S
C275 H261 0.930 . S
C275 C277 1.400 . S
C275 C278 1.386 . S
C276 C272 1.429 . S
C276 N274 1.377 . S
C276 C279 1.411 . S
C277 H259 0.930 . S
C277 N274 1.321 . S
C277 C275 1.400 . S
C278 H273 0.930 . S
C278 C275 1.386 . S
C278 C279 1.395 . S
C279 C276 1.411 . S
C279 C278 1.395 . S
C279 C301 1.420 1_556 S
O280 Eu236 2.558 . S
O280 C300 1.257 . S
O281 Eu236 2.626 . S
O281 Eu247 2.377 1_545 S
O281 C292 1.277 . S
O282 Eu247 2.432 . S
O282 C299 1.264 . S
O283 Eu236 2.339 1_565 S
O283 C299 1.254 . S
O284 Eu236 2.563 . S
O284 C292 1.235 . S
O285 Eu236 2.419 . S
O285 C300 1.249 . S
O286 Eu247 2.558 . S
O286 C311 1.257 . S
O287 Eu236 2.380 . S
O287 Eu247 2.612 1_545 S
O287 C303 1.276 . S
O288 Eu236 2.432 . S
O288 C310 1.264 . S
O289 Eu247 2.339 1_545 S
O289 C310 1.254 . S
O290 Eu247 2.563 1_545 S
O290 C303 1.235 . S
O291 Eu247 2.419 1_545 S
O291 C311 1.249 1_545 S
C292 O281 1.277 . S
C292 O284 1.235 . S
C293 C295 1.393 . S
C293 C297 1.395 . S
C293 C300 1.492 . S
C294 C295 1.392 . S
C294 C296 1.386 1_556 S
C295 C293 1.393 . S
C295 C294 1.392 . S
C295 H312 0.930 . S
C296 C294 1.386 1_554 S
C296 C298 1.395 1_554 S
C296 H313 0.930 . S
C297 C293 1.395 . S
C297 C298 1.379 . S
C297 H314 0.930 . S
C298 C296 1.395 1_556 S
C298 C297 1.379 . S
C298 H315 0.930 . S
C299 O282 1.264 . S
C299 O283 1.254 . S
C300 Eu236 2.848 . S
C300 O280 1.257 . S
C300 O285 1.249 . S
C300 C293 1.492 . S
C301 H266 0.931 . S
C301 C279 1.420 1_554 S
C301 C302 1.351 . S
C302 H264 0.930 . S
C302 C270 1.423 . S
C302 C301 1.351 . S
C303 O287 1.276 . S
C303 O290 1.235 . S
C304 C305 1.393 1_565 S
C304 C308 1.395 . S
C304 C311 1.492 . S
C305 C304 1.393 1_545 S
C305 C306 1.395 . S
C305 H316 0.930 . S
C306 C305 1.395 . S
C306 C307 1.355 1_545 S
C307 C306 1.355 1_565 S
C307 C309 1.395 . S
C307 H317 0.930 . S
C308 C304 1.395 . S
C308 C309 1.379 . S
C308 H318 0.930 . S
C309 C307 1.395 . S
C309 C308 1.379 . S
C309 H319 0.930 . S
C310 O288 1.264 . S
C310 O289 1.254 . S
C311 Eu247 2.848 . S
C311 O286 1.257 . S
C311 O291 1.249 1_565 S
C311 C304 1.492 . S
H312 C295 0.930 . S
H313 C296 0.930 . S
H314 C297 0.930 . S
H315 C298 0.930 . S
H316 C305 0.930 . S
H317 C307 0.930 . S
H318 C308 0.930 . S
H319 C309 0.930 . S
Eu320 N351 2.657 . S
Eu320 N358 2.609 . S
Eu320 O364 2.558 . S
Eu320 O365 2.612 . S
Eu320 O367 2.339 . S
Eu320 O368 2.563 . S
Eu320 O369 2.419 . S
Eu320 O371 2.380 . S
Eu320 O372 2.432 . S
Eu320 C384 2.848 . S
C321 C324 1.429 . S
C321 C325 1.411 . S
C321 N328 1.377 . S
C322 C324 1.420 . S
C322 C326 1.423 . S
C322 C334 1.392 . S
C323 C325 1.420 . S
C323 C326 1.351 . S
C323 H346 0.931 . S
C324 C321 1.429 . S
C324 C322 1.420 . S
C324 N332 1.362 . S
C325 C321 1.411 . S
C325 C323 1.420 . S
C325 C330 1.395 . S
C326 C322 1.423 . S
C326 C323 1.351 . S
C326 H338 0.930 . S
C327 C329 1.400 . S
C327 C330 1.386 . S
C327 H339 0.930 . S
N328 C321 1.377 . S
N328 C329 1.321 . S
N328 Eu331 2.609 . S
C329 C327 1.400 . S
C329 N328 1.321 . S
C329 H336 0.930 . S
C330 C325 1.395 . S
C330 C327 1.386 . S
C330 H349 0.930 . S
Eu331 N328 2.609 . S
Eu331 N332 2.657 . S
Eu331 O365 2.380 . S
Eu331 O366 2.432 . S
Eu331 O370 2.558 . S
Eu331 O371 2.612 . S
Eu331 O373 2.339 . S
Eu331 O374 2.563 . S
Eu331 O375 2.419 . S
Eu331 C395 2.848 . S
N332 C324 1.362 . S
N332 Eu331 2.657 . S
N332 C333 1.334 . S
C333 N332 1.334 . S
C333 C335 1.413 . S
C333 H340 0.929 . S
C334 C322 1.392 . S
C334 C335 1.367 . S
C334 H342 0.930 . S
C335 C333 1.413 . S
C335 C334 1.367 . S
C335 H337 0.930 . S
H336 C329 0.930 . S
H337 C335 0.930 . S
H338 C326 0.930 . S
H339 C327 0.930 . S
H340 C333 0.929 . S
H341 C355 0.930 . S
H342 C334 0.930 . S
H343 C361 0.930 . S
H344 C352 0.929 . S
H345 C359 0.930 . S
H346 C323 0.931 . S
H347 C353 0.930 . S
H348 C386 0.930 . S
H349 C330 0.930 . S
H350 C385 0.931 . S
N351 Eu320 2.657 . S
N351 C352 1.334 . S
N351 C356 1.362 . S
C352 H344 0.929 . S
C352 N351 1.334 . S
C352 C355 1.413 . S
C353 H347 0.930 . S
C353 C354 1.392 . S
C353 C355 1.367 . S
C354 C353 1.392 . S
C354 C356 1.420 . S
C354 C386 1.423 . S
C355 H341 0.930 . S
C355 C352 1.413 . S
C355 C353 1.367 . S
C356 N351 1.362 . S
C356 C354 1.420 . S
C356 C360 1.429 . S
H357 C362 0.930 . S
N358 Eu320 2.609 . S
N358 C360 1.377 . S
N358 C361 1.321 . S
C359 H345 0.930 . S
C359 C361 1.400 . S
C359 C362 1.386 . S
C360 C356 1.429 . S
C360 N358 1.377 . S
C360 C363 1.411 . S
C361 H343 0.930 . S
C361 N358 1.321 . S
C361 C359 1.400 . S
C362 H357 0.930 . S
C362 C359 1.386 . S
C362 C363 1.395 . S
C363 C360 1.411 . S
C363 C362 1.395 . S
C363 C385 1.420 . S
O364 Eu320 2.558 . S
O364 C384 1.257 . S
O365 Eu320 2.612 . S
O365 Eu331 2.380 . S
O365 C376 1.276 . S
O366 Eu331 2.432 . S
O366 C383 1.264 . S
O367 Eu320 2.339 . S
O367 C383 1.254 . S
O368 Eu320 2.563 . S
O368 C376 1.235 . S
O369 Eu320 2.419 . S
O369 C384 1.249 . S
O370 Eu331 2.558 . S
O370 C395 1.257 . S
O371 Eu320 2.380 . S
O371 Eu331 2.612 . S
O371 C387 1.276 . S
O372 Eu320 2.432 . S
O372 C394 1.264 . S
O373 Eu331 2.339 . S
O373 C394 1.254 . S
O374 Eu331 2.563 . S
O374 C387 1.235 . S
O375 Eu331 2.419 . S
O375 C395 1.249 . S
C376 O365 1.276 . S
C376 O368 1.235 . S
C377 C379 1.393 . S
C377 C381 1.395 . S
C377 C384 1.492 . S
C378 C379 1.392 . S
C378 C380 1.386 . S
C379 C377 1.393 . S
C379 C378 1.392 . S
C379 H396 0.930 . S
C380 C378 1.386 . S
C380 C382 1.395 . S
C380 H397 0.930 . S
C381 C377 1.395 . S
C381 C382 1.379 . S
C381 H398 0.930 . S
C382 C380 1.395 . S
C382 C381 1.379 . S
C382 H399 0.930 . S
C383 O366 1.264 . S
C383 O367 1.254 . S
C384 Eu320 2.848 . S
C384 O364 1.257 . S
C384 O369 1.249 . S
C384 C377 1.492 . S
C385 H350 0.931 . S
C385 C363 1.420 . S
C385 C386 1.351 . S
C386 H348 0.930 . S
C386 C354 1.423 . S
C386 C385 1.351 . S
C387 O371 1.276 . S
C387 O374 1.235 . S
C388 C389 1.393 . S
C388 C392 1.395 1_556 S
C388 C395 1.492 . S
C389 C388 1.393 . S
C389 C390 1.392 1_556 S
C389 H400 0.930 . S
C390 C389 1.392 1_554 S
C390 C391 1.386 . S
C391 C390 1.386 . S
C391 C393 1.395 . S
C391 H401 0.930 . S
C392 C388 1.395 1_554 S
C392 C393 1.379 . S
C392 H402 0.930 . S
C393 C391 1.395 . S
C393 C392 1.379 . S
C393 H403 0.930 . S
C394 O372 1.264 . S
C394 O373 1.254 . S
C395 Eu331 2.848 . S
C395 O370 1.257 . S
C395 O375 1.249 . S
C395 C388 1.492 . S
H396 C379 0.930 . S
H397 C380 0.930 . S
H398 C381 0.930 . S
H399 C382 0.930 . S
H400 C389 0.930 . S
H401 C391 0.930 . S
H402 C392 0.930 . S
H403 C393 0.930 . S
Eu404 N435 2.657 . S
Eu404 N442 2.609 . S
Eu404 O448 2.558 . S
Eu404 O449 2.612 . S
Eu404 O451 2.339 . S
Eu404 O452 2.563 . S
Eu404 O453 2.419 . S
Eu404 O455 2.380 . S
Eu404 O456 2.432 1_455 S
Eu404 C468 2.848 . S
C405 C408 1.429 . S
C405 C409 1.411 . S
C405 N412 1.377 . S
C406 C408 1.420 . S
C406 C410 1.423 . S
C406 C418 1.392 . S
C407 C409 1.420 . S
C407 C410 1.351 . S
C407 H430 0.931 . S
C408 C405 1.429 . S
C408 C406 1.420 . S
C408 N416 1.362 . S
C409 C405 1.411 . S
C409 C407 1.420 . S
C409 C414 1.395 1_655 S
C410 C406 1.423 . S
C410 C407 1.351 . S
C410 H422 0.930 . S
C411 C413 1.400 . S
C411 C414 1.386 . S
C411 H423 0.930 . S
N412 C405 1.377 . S
N412 C413 1.321 1_655 S
N412 Eu415 2.609 . S
C413 C411 1.400 . S
C413 N412 1.321 1_455 S
C413 H420 0.930 . S
C414 C409 1.395 1_455 S
C414 C411 1.386 . S
C414 H433 0.930 . S
Eu415 N412 2.609 . S
Eu415 N416 2.657 . S
Eu415 O449 2.380 1_655 S
Eu415 O450 2.432 1_655 S
Eu415 O454 2.558 . S
Eu415 O455 2.612 1_655 S
Eu415 O457 2.339 . S
Eu415 O458 2.563 . S
Eu415 O459 2.419 . S
Eu415 C479 2.848 . S
N416 C408 1.362 . S
N416 Eu415 2.657 . S
N416 C417 1.334 . S
C417 N416 1.334 . S
C417 C419 1.413 . S
C417 H424 0.929 . S
C418 C406 1.392 . S
C418 C419 1.367 . S
C418 H426 0.930 . S
C419 C417 1.413 . S
C419 C418 1.367 . S
C419 H421 0.930 . S
H420 C413 0.930 . S
H421 C419 0.930 . S
H422 C410 0.930 . S
H423 C411 0.930 . S
H424 C417 0.929 . S
H425 C439 0.930 . S
H426 C418 0.930 . S
H427 C445 0.930 1_655 S
H428 C436 0.929 . S
H429 C443 0.930 . S
H430 C407 0.931 . S
H431 C437 0.930 . S
H432 C470 0.930 . S
H433 C414 0.930 . S
H434 C469 0.931 . S
N435 Eu404 2.657 . S
N435 C436 1.334 . S
N435 C440 1.362 . S
C436 H428 0.929 . S
C436 N435 1.334 . S
C436 C439 1.413 . S
C437 H431 0.930 . S
C437 C438 1.392 . S
C437 C439 1.367 . S
C438 C437 1.392 . S
C438 C440 1.420 . S
C438 C470 1.423 . S
C439 H425 0.930 . S
C439 C436 1.413 . S
C439 C437 1.367 . S
C440 N435 1.362 . S
C440 C438 1.420 . S
C440 C444 1.429 . S
H441 C446 0.930 . S
N442 Eu404 2.609 . S
N442 C444 1.377 . S
N442 C445 1.321 . S
C443 H429 0.930 . S
C443 C445 1.400 1_655 S
C443 C446 1.386 1_655 S
C444 C440 1.429 . S
C444 N442 1.377 . S
C444 C447 1.411 . S
C445 H427 0.930 1_455 S
C445 N442 1.321 . S
C445 C443 1.400 1_455 S
C446 H441 0.930 . S
C446 C443 1.386 1_455 S
C446 C447 1.395 . S
C447 C444 1.411 . S
C447 C446 1.395 . S
C447 C469 1.420 . S
O448 Eu404 2.558 . S
O448 C468 1.257 . S
O449 Eu404 2.612 . S
O449 Eu415 2.380 1_455 S
O449 C460 1.276 . S
O450 Eu415 2.432 1_455 S
O450 C467 1.264 . S
O451 Eu404 2.339 . S
O451 C467 1.254 . S
O452 Eu404 2.563 . S
O452 C460 1.235 . S
O453 Eu404 2.419 . S
O453 C468 1.249 . S
O454 Eu415 2.558 . S
O454 C479 1.257 . S
O455 Eu404 2.380 . S
O455 Eu415 2.612 1_455 S
O455 C471 1.276 1_455 S
O456 Eu404 2.432 1_655 S
O456 C478 1.264 . S
O457 Eu415 2.339 . S
O457 C478 1.254 . S
O458 Eu415 2.563 . S
O458 C471 1.235 . S
O459 Eu415 2.419 . S
O459 C479 1.249 . S
C460 O449 1.276 . S
C460 O452 1.235 . S
C461 C463 1.393 . S
C461 C465 1.395 . S
C461 C468 1.492 . S
C462 C463 1.392 . S
C462 C464 1.386 . S
C463 C461 1.393 . S
C463 C462 1.392 . S
C463 H480 0.930 . S
C464 C462 1.386 . S
C464 C466 1.395 . S
C464 H481 0.930 . S
C465 C461 1.395 . S
C465 C466 1.379 . S
C465 H482 0.930 . S
C466 C464 1.395 . S
C466 C465 1.379 . S
C466 H483 0.930 . S
C467 O450 1.264 . S
C467 O451 1.254 . S
C468 Eu404 2.848 . S
C468 O448 1.257 . S
C468 O453 1.249 . S
C468 C461 1.492 . S
C469 H434 0.931 . S
C469 C447 1.420 . S
C469 C470 1.351 . S
C470 H432 0.930 . S
C470 C438 1.423 . S
C470 C469 1.351 . S
C471 O455 1.276 1_655 S
C471 O458 1.235 . S
C472 C473 1.393 . S
C472 C476 1.395 1_556 S
C472 C479 1.492 . S
C473 C472 1.393 . S
C473 C474 1.392 1_556 S
C473 H484 0.930 . S
C474 C473 1.392 1_554 S
C474 C475 1.386 . S
C475 C474 1.386 . S
C475 C477 1.395 . S
C475 H485 0.930 . S
C476 C472 1.395 1_554 S
C476 C477 1.379 . S
C476 H486 0.930 . S
C477 C475 1.395 . S
C477 C476 1.379 . S
C477 H487 0.930 . S
C478 O456 1.264 . S
C478 O457 1.254 . S
C479 Eu415 2.848 . S
C479 O454 1.257 . S
C479 O459 1.249 . S
C479 C472 1.492 . S
H480 C463 0.930 . S
H481 C464 0.930 . S
H482 C465 0.930 . S
H483 C466 0.930 . S
H484 C473 0.930 . S
H485 C475 0.930 . S
H486 C476 0.930 . S
H487 C477 0.930 . S
C488 C489 1.391 . S
C488 C490 1.394 . S
C488 H504 0.931 . S
C489 C488 1.391 . S
C489 C493 1.376 . S
C490 C488 1.394 . S
C490 C491 1.369 . S
C490 C494 1.531 . S
C491 C490 1.369 . S
C491 C492 1.410 . S
C491 C499 1.503 . S
C492 C491 1.410 . S
C492 C493 1.392 . S
C492 C495 1.511 . S
C493 C489 1.376 . S
C493 C492 1.392 . S
C493 H505 0.929 . S
C494 C490 1.531 . S
C494 H506 0.960 . S
C494 H507 0.962 . S
C494 H508 0.960 . S
C495 C492 1.511 . S
C495 H509 0.961 1_545 S
C495 H510 0.961 . S
C495 H511 0.961 . S
C496 C497 1.370 . S
C496 C498 1.363 . S
C496 H512 0.931 . S
C497 C496 1.370 . S
C497 C501 1.408 . S
C498 C496 1.363 . S
C498 C499 1.370 . S
C498 C502 1.524 . S
C499 C491 1.503 . S
C499 C498 1.370 . S
C499 C500 1.403 . S
C500 C499 1.403 . S
C500 C501 1.404 . S
C500 C503 1.539 . S
C501 C497 1.408 . S
C501 C500 1.404 . S
C501 H513 0.930 . S
C502 C498 1.524 . S
C502 H514 0.956 . S
C502 H515 0.961 . S
C502 H516 0.961 . S
C503 C500 1.539 . S
C503 H517 0.958 . S
C503 H518 0.961 . S
C503 H519 0.960 . S
H504 C488 0.931 . S
H505 C493 0.929 . S
H506 C494 0.960 . S
H507 C494 0.962 . S
H508 C494 0.960 . S
H509 C495 0.961 1_565 S
H510 C495 0.961 . S
H511 C495 0.961 . S
H512 C496 0.931 . S
H513 C501 0.930 . S
H514 C502 0.956 . S
H515 C502 0.961 . S
H516 C502 0.961 . S
H517 C503 0.958 . S
H518 C503 0.961 . S
H519 C503 0.960 . S
C520 C521 1.391 . S
C520 C522 1.394 . S
C520 H536 0.931 . S
C521 C520 1.391 . S
C521 C525 1.376 . S
C522 C520 1.394 . S
C522 C523 1.369 . S
C522 C526 1.531 . S
C523 C522 1.369 . S
C523 C524 1.410 . S
C523 C531 1.503 . S
C524 C523 1.410 . S
C524 C525 1.392 . S
C524 C527 1.511 . S
C525 C521 1.376 . S
C525 C524 1.392 . S
C525 H537 0.929 . S
C526 C522 1.531 . S
C526 H538 0.960 . S
C526 H539 0.962 . S
C526 H540 0.960 . S
C527 C524 1.511 . S
C527 H541 0.961 . S
C527 H542 0.961 . S
C527 H543 0.961 . S
C528 C529 1.370 . S
C528 C530 1.363 . S
C528 H544 0.931 . S
C529 C528 1.370 . S
C529 C533 1.408 . S
C530 C528 1.363 . S
C530 C531 1.370 . S
C530 C534 1.524 . S
C531 C523 1.503 . S
C531 C530 1.370 . S
C531 C532 1.403 . S
C532 C531 1.403 . S
C532 C533 1.404 . S
C532 C535 1.539 . S
C533 C529 1.408 . S
C533 C532 1.404 . S
C533 H545 0.930 . S
C534 C530 1.524 . S
C534 H546 0.956 . S
C534 H547 0.961 . S
C534 H548 0.961 . S
C535 C532 1.539 . S
C535 H549 0.958 . S
C535 H550 0.961 . S
C535 H551 0.960 . S
H536 C520 0.931 . S
H537 C525 0.929 . S
H538 C526 0.960 . S
H539 C526 0.962 . S
H540 C526 0.960 . S
H541 C527 0.961 . S
H542 C527 0.961 . S
H543 C527 0.961 . S
H544 C528 0.931 . S
H545 C533 0.930 . S
H546 C534 0.956 . S
H547 C534 0.961 . S
H548 C534 0.961 . S
H549 C535 0.958 . S
H550 C535 0.961 . S
H551 C535 0.960 . S
C552 C553 1.391 . S
C552 C554 1.394 . S
C552 H568 0.931 . S
C553 C552 1.391 . S
C553 C557 1.376 . S
C554 C552 1.394 . S
C554 C555 1.369 . S
C554 C558 1.531 . S
C555 C554 1.369 . S
C555 C556 1.410 . S
C555 C563 1.503 . S
C556 C555 1.410 . S
C556 C557 1.392 . S
C556 C559 1.511 . S
C557 C553 1.376 . S
C557 C556 1.392 . S
C557 H569 0.929 . S
C558 C554 1.531 . S
C558 H570 0.960 . S
C558 H571 0.962 . S
C558 H572 0.960 . S
C559 C556 1.511 . S
C559 H573 0.961 . S
C559 H574 0.961 . S
C559 H575 0.961 . S
C560 C561 1.370 . S
C560 C562 1.363 . S
C560 H576 0.931 . S
C561 C560 1.370 . S
C561 C565 1.408 . S
C562 C560 1.363 . S
C562 C563 1.370 . S
C562 C566 1.524 . S
C563 C555 1.503 . S
C563 C562 1.370 . S
C563 C564 1.403 . S
C564 C563 1.403 . S
C564 C565 1.404 . S
C564 C567 1.539 . S
C565 C561 1.408 . S
C565 C564 1.404 . S
C565 H577 0.930 . S
C566 C562 1.524 . S
C566 H578 0.956 . S
C566 H579 0.961 . S
C566 H580 0.961 . S
C567 C564 1.539 . S
C567 H581 0.958 . S
C567 H582 0.961 . S
C567 H583 0.960 . S
H568 C552 0.931 . S
H569 C557 0.929 . S
H570 C558 0.960 . S
H571 C558 0.962 . S
H572 C558 0.960 . S
H573 C559 0.961 . S
H574 C559 0.961 . S
H575 C559 0.961 . S
H576 C560 0.931 . S
H577 C565 0.930 . S
H578 C566 0.956 . S
H579 C566 0.961 . S
H580 C566 0.961 . S
H581 C567 0.958 . S
H582 C567 0.961 . S
H583 C567 0.960 . S
C584 C585 1.391 . S
C584 C586 1.394 . S
C584 H600 0.931 . S
C585 C584 1.391 . S
C585 C589 1.376 . S
C586 C584 1.394 . S
C586 C587 1.369 . S
C586 C590 1.531 1_455 S
C587 C586 1.369 . S
C587 C588 1.410 . S
C587 C595 1.503 . S
C588 C587 1.410 . S
C588 C589 1.392 . S
C588 C591 1.511 . S
C589 C585 1.376 . S
C589 C588 1.392 . S
C589 H601 0.929 . S
C590 C586 1.531 1_655 S
C590 H602 0.960 . S
C590 H603 0.962 . S
C590 H604 0.960 . S
C591 C588 1.511 . S
C591 H605 0.961 . S
C591 H606 0.961 . S
C591 H607 0.961 . S
C592 C593 1.370 . S
C592 C594 1.363 . S
C592 H608 0.931 . S
C593 C592 1.370 . S
C593 C597 1.408 . S
C594 C592 1.363 . S
C594 C595 1.370 . S
C594 C598 1.524 . S
C595 C587 1.503 . S
C595 C594 1.370 . S
C595 C596 1.403 . S
C596 C595 1.403 . S
C596 C597 1.404 . S
C596 C599 1.539 . S
C597 C593 1.408 . S
C597 C596 1.404 . S
C597 H609 0.930 . S
C598 C594 1.524 . S
C598 H610 0.956 . S
C598 H611 0.961 . S
C598 H612 0.961 . S
C599 C596 1.539 . S
C599 H613 0.958 . S
C599 H614 0.961 . S
C599 H615 0.960 . S
H600 C584 0.931 . S
H601 C589 0.929 . S
H602 C590 0.960 . S
H603 C590 0.962 . S
H604 C590 0.960 . S
H605 C591 0.961 . S
H606 C591 0.961 . S
H607 C591 0.961 . S
H608 C592 0.931 . S
H609 C597 0.930 . S
H610 C598 0.956 . S
H611 C598 0.961 . S
H612 C598 0.961 . S
H613 C599 0.958 . S
H614 C599 0.961 . S
H615 C599 0.960 . S
C616 C617 1.391 . S
C616 C618 1.394 . S
C616 H632 0.931 . S
C617 C616 1.391 . S
C617 C621 1.376 . S
C618 C616 1.394 . S
C618 C619 1.369 . S
C618 C622 1.531 . S
C619 C618 1.369 . S
C619 C620 1.410 1_554 S
C619 C627 1.503 1_554 S
C620 C619 1.410 1_556 S
C620 C621 1.392 1_556 S
C620 C623 1.511 . S
C621 C617 1.376 . S
C621 C620 1.392 1_554 S
C621 H633 0.929 . S
C622 C618 1.531 . S
C622 H634 0.960 . S
C622 H635 0.962 . S
C622 H636 0.960 . S
C623 C620 1.511 . S
C623 H637 0.961 . S
C623 H638 0.961 . S
C623 H639 0.961 . S
C624 C625 1.370 1_545 S
C624 C626 1.363 . S
C624 H640 0.931 . S
C625 C624 1.370 1_565 S
C625 C629 1.408 . S
C626 C624 1.363 . S
C626 C627 1.370 1_545 S
C626 C630 1.524 . S
C627 C619 1.503 1_556 S
C627 C626 1.370 1_565 S
C627 C628 1.403 . S
C628 C627 1.403 . S
C628 C629 1.404 . S
C628 C631 1.539 . S
C629 C625 1.408 . S
C629 C628 1.404 . S
C629 H641 0.930 . S
C630 C626 1.524 . S
C630 H642 0.956 1_556 S
C630 H643 0.961 . S
C630 H644 0.961 . S
C631 C628 1.539 . S
C631 H645 0.958 . S
C631 H646 0.961 . S
C631 H647 0.960 . S
H632 C616 0.931 . S
H633 C621 0.929 . S
H634 C622 0.960 . S
H635 C622 0.962 . S
H636 C622 0.960 . S
H637 C623 0.961 . S
H638 C623 0.961 . S
H639 C623 0.961 . S
H640 C624 0.931 . S
H641 C629 0.930 . S
H642 C630 0.956 1_554 S
H643 C630 0.961 . S
H644 C630 0.961 . S
H645 C631 0.958 . S
H646 C631 0.961 . S
H647 C631 0.960 . S
C648 C649 1.391 . S
C648 C650 1.394 1_554 S
C648 H664 0.931 . S
C649 C648 1.391 . S
C649 C653 1.376 . S
C650 C648 1.394 1_556 S
C650 C651 1.369 . S
C650 C654 1.531 . S
C651 C650 1.369 . S
C651 C652 1.410 1_556 S
C651 C659 1.503 . S
C652 C651 1.410 1_554 S
C652 C653 1.392 . S
C652 C655 1.511 . S
C653 C649 1.376 . S
C653 C652 1.392 . S
C653 H665 0.929 . S
C654 C650 1.531 . S
C654 H666 0.960 . S
C654 H667 0.962 . S
C654 H668 0.960 . S
C655 C652 1.511 . S
C655 H669 0.961 . S
C655 H670 0.961 . S
C655 H671 0.961 . S
C656 C657 1.370 . S
C656 C658 1.363 . S
C656 H672 0.931 . S
C657 C656 1.370 . S
C657 C661 1.408 . S
C658 C656 1.363 . S
C658 C659 1.370 . S
C658 C662 1.524 1_556 S
C659 C651 1.503 . S
C659 C658 1.370 . S
C659 C660 1.403 . S
C660 C659 1.403 . S
C660 C661 1.404 . S
C660 C663 1.539 . S
C661 C657 1.408 . S
C661 C660 1.404 . S
C661 H673 0.930 . S
C662 C658 1.524 1_554 S
C662 H674 0.956 . S
C662 H675 0.961 . S
C662 H676 0.961 . S
C663 C660 1.539 . S
C663 H677 0.958 . S
C663 H678 0.961 . S
C663 H679 0.960 . S
H664 C648 0.931 . S
H665 C653 0.929 . S
H666 C654 0.960 . S
H667 C654 0.962 . S
H668 C654 0.960 . S
H669 C655 0.961 . S
H670 C655 0.961 . S
H671 C655 0.961 . S
H672 C656 0.931 . S
H673 C661 0.930 . S
H674 C662 0.956 . S
H675 C662 0.961 . S
H676 C662 0.961 . S
H677 C663 0.958 . S
H678 C663 0.961 . S
H679 C663 0.960 . S
C680 C681 1.391 . S
C680 C682 1.394 1_554 S
C680 H696 0.931 . S
C681 C680 1.391 . S
C681 C685 1.376 . S
C682 C680 1.394 1_556 S
C682 C683 1.369 1_556 S
C682 C686 1.531 . S
C683 C682 1.369 1_554 S
C683 C684 1.410 . S
C683 C691 1.503 1_554 S
C684 C683 1.410 . S
C684 C685 1.392 . S
C684 C687 1.511 . S
C685 C681 1.376 . S
C685 C684 1.392 . S
C685 H697 0.929 . S
C686 C682 1.531 . S
C686 H698 0.960 . S
C686 H699 0.962 . S
C686 H700 0.960 . S
C687 C684 1.511 . S
C687 H701 0.961 . S
C687 H702 0.961 . S
C687 H703 0.961 . S
C688 C689 1.370 . S
C688 C690 1.363 . S
C688 H704 0.931 . S
C689 C688 1.370 . S
C689 C693 1.408 . S
C690 C688 1.363 . S
C690 C691 1.370 . S
C690 C694 1.524 . S
C691 C683 1.503 1_556 S
C691 C690 1.370 . S
C691 C692 1.403 . S
C692 C691 1.403 . S
C692 C693 1.404 . S
C692 C695 1.539 . S
C693 C689 1.408 . S
C693 C692 1.404 . S
C693 H705 0.930 . S
C694 C690 1.524 . S
C694 H706 0.956 . S
C694 H707 0.961 . S
C694 H708 0.961 . S
C695 C692 1.539 . S
C695 H709 0.958 . S
C695 H710 0.961 . S
C695 H711 0.960 1_556 S
H696 C680 0.931 . S
H697 C685 0.929 . S
H698 C686 0.960 . S
H699 C686 0.962 . S
H700 C686 0.960 . S
H701 C687 0.961 . S
H702 C687 0.961 . S
H703 C687 0.961 . S
H704 C688 0.931 . S
H705 C693 0.930 . S
H706 C694 0.956 . S
H707 C694 0.961 . S
H708 C694 0.961 . S
H709 C695 0.958 . S
H710 C695 0.961 . S
H711 C695 0.960 1_554 S
C712 C713 1.391 . S
C712 C714 1.394 . S
C712 H728 0.931 . S
C713 C712 1.391 . S
C713 C717 1.376 . S
C714 C712 1.394 . S
C714 C715 1.369 . S
C714 C718 1.531 1_554 S
C715 C714 1.369 . S
C715 C716 1.409 . S
C715 C723 1.504 1_554 S
C716 C715 1.409 . S
C716 C717 1.392 . S
C716 C719 1.511 1_655 S
C717 C713 1.376 . S
C717 C716 1.392 . S
C717 H729 0.929 . S
C718 C714 1.531 1_556 S
C718 H730 0.960 . S
C718 H731 0.962 . S
C718 H732 0.960 . S
C719 C716 1.511 1_455 S
C719 H733 0.961 . S
C719 H734 0.961 . S
C719 H735 0.961 . S
C720 C721 1.370 . S
C720 C722 1.363 . S
C720 H736 0.931 . S
C721 C720 1.370 . S
C721 C725 1.408 . S
C722 C720 1.363 . S
C722 C723 1.370 . S
C722 C726 1.524 1_556 S
C723 C715 1.504 1_556 S
C723 C722 1.370 . S
C723 C724 1.403 . S
C724 C723 1.403 . S
C724 C725 1.404 . S
C724 C727 1.539 . S
C725 C721 1.408 . S
C725 C724 1.404 . S
C725 H737 0.930 1_655 S
C726 C722 1.524 1_554 S
C726 H738 0.956 . S
C726 H739 0.961 . S
C726 H740 0.961 . S
C727 C724 1.539 . S
C727 H741 0.958 . S
C727 H742 0.961 1_655 S
C727 H743 0.959 . S
H728 C712 0.931 . S
H729 C717 0.929 . S
H730 C718 0.960 . S
H731 C718 0.962 . S
H732 C718 0.960 . S
H733 C719 0.961 . S
H734 C719 0.961 . S
H735 C719 0.961 . S
H736 C720 0.931 . S
H737 C725 0.930 1_455 S
H738 C726 0.956 . S
H739 C726 0.961 . S
H740 C726 0.961 . S
H741 C727 0.958 . S
H742 C727 0.961 1_455 S
H743 C727 0.959 . S
C744 C745 1.391 . S
C744 C746 1.394 . S
C744 H760 0.931 . S
C745 C744 1.391 . S
C745 C749 1.376 . S
C746 C744 1.394 . S
C746 C747 1.369 . S
C746 C750 1.531 . S
C747 C746 1.369 . S
C747 C748 1.410 . S
C747 C755 1.503 . S
C748 C747 1.410 . S
C748 C749 1.392 . S
C748 C751 1.514 1_455 S
C749 C745 1.376 . S
C749 C748 1.392 . S
C749 H761 0.929 . S
C750 C746 1.531 . S
C750 H762 0.960 . S
C750 H763 0.962 . S
C750 H764 0.960 . S
C751 C748 1.514 1_655 S
C751 H765 0.960 . S
C751 H766 0.961 . S
C751 H767 0.958 . S
C752 C753 1.370 . S
C752 C754 1.363 . S
C752 H768 0.931 . S
C753 C752 1.370 . S
C753 C757 1.408 . S
C754 C752 1.363 . S
C754 C755 1.370 . S
C754 C758 1.524 . S
C755 C747 1.503 . S
C755 C754 1.370 . S
C755 C756 1.403 . S
C756 C755 1.403 . S
C756 C757 1.404 . S
C756 C759 1.539 . S
C757 C753 1.408 . S
C757 C756 1.404 . S
C757 H769 0.930 1_455 S
C758 C754 1.524 . S
C758 H770 0.956 . S
C758 H771 0.961 . S
C758 H772 0.961 . S
C759 C756 1.539 . S
C759 H773 0.958 . S
C759 H774 0.961 1_455 S
C759 H775 0.960 . S
H760 C744 0.931 . S
H761 C749 0.929 . S
H762 C750 0.960 . S
H763 C750 0.962 . S
H764 C750 0.960 . S
H765 C751 0.960 . S
H766 C751 0.961 . S
H767 C751 0.958 . S
H768 C752 0.931 . S
H769 C757 0.930 1_655 S
H770 C758 0.956 . S
H771 C758 0.961 . S
H772 C758 0.961 . S
H773 C759 0.958 . S
H774 C759 0.961 1_655 S
H775 C759 0.960 . S
C776 C777 1.391 . S
C776 C778 1.394 . S
C776 H792 0.931 . S
C777 C776 1.391 . S
C777 C781 1.376 . S
C778 C776 1.394 . S
C778 C779 1.369 . S
C778 C782 1.531 . S
C779 C778 1.369 . S
C779 C780 1.410 . S
C779 C787 1.503 . S
C780 C779 1.410 . S
C780 C781 1.392 . S
C780 C783 1.511 . S
C781 C777 1.376 . S
C781 C780 1.392 . S
C781 H793 0.929 1_554 S
C782 C778 1.531 . S
C782 H794 0.960 . S
C782 H795 0.962 . S
C782 H796 0.960 . S
C783 C780 1.511 . S
C783 H797 0.961 . S
C783 H798 0.961 . S
C783 H799 0.961 1_554 S
C784 C785 1.370 . S
C784 C786 1.363 . S
C784 H800 0.931 . S
C785 C784 1.370 . S
C785 C789 1.408 1_545 S
C786 C784 1.363 . S
C786 C787 1.370 . S
C786 C790 1.524 . S
C787 C779 1.503 . S
C787 C786 1.370 . S
C787 C788 1.403 . S
C788 C787 1.403 . S
C788 C789 1.404 1_545 S
C788 C791 1.539 1_545 S
C789 C785 1.408 1_565 S
C789 C788 1.404 1_565 S
C789 H801 0.930 . S
C790 C786 1.524 . S
C790 H802 0.956 . S
C790 H803 0.961 . S
C790 H804 0.961 . S
C791 C788 1.539 1_565 S
C791 H805 0.958 . S
C791 H806 0.961 . S
C791 H807 0.960 . S
H792 C776 0.931 . S
H793 C781 0.929 1_556 S
H794 C782 0.960 . S
H795 C782 0.962 . S
H796 C782 0.960 . S
H797 C783 0.961 . S
H798 C783 0.961 . S
H799 C783 0.961 1_556 S
H800 C784 0.931 . S
H801 C789 0.930 . S
H802 C790 0.956 . S
H803 C790 0.961 . S
H804 C790 0.961 . S
H805 C791 0.958 . S
H806 C791 0.961 . S
H807 C791 0.960 . S
C808 C809 1.391 . S
C808 C810 1.394 . S
C808 H824 0.931 . S
C809 C808 1.391 . S
C809 C813 1.376 . S
C810 C808 1.394 . S
C810 C811 1.369 . S
C810 C814 1.531 . S
C811 C810 1.369 . S
C811 C812 1.410 . S
C811 C819 1.503 . S
C812 C811 1.410 . S
C812 C813 1.392 . S
C812 C815 1.511 . S
C813 C809 1.376 . S
C813 C812 1.392 . S
C813 H825 0.929 . S
C814 C810 1.531 . S
C814 H826 0.960 . S
C814 H827 0.962 . S
C814 H828 0.960 1_554 S
C815 C812 1.511 . S
C815 H829 0.961 . S
C815 H830 0.961 . S
C815 H831 0.961 . S
C816 C817 1.370 . S
C816 C818 1.363 . S
C816 H832 0.931 . S
C817 C816 1.370 . S
C817 C821 1.408 . S
C818 C816 1.363 . S
C818 C819 1.370 . S
C818 C822 1.524 . S
C819 C811 1.503 . S
C819 C818 1.370 . S
C819 C820 1.403 . S
C820 C819 1.403 . S
C820 C821 1.404 . S
C820 C823 1.539 . S
C821 C817 1.408 . S
C821 C820 1.404 . S
C821 H833 0.930 . S
C822 C818 1.524 . S
C822 H834 0.956 . S
C822 H835 0.961 . S
C822 H836 0.961 . S
C823 C820 1.539 . S
C823 H837 0.958 . S
C823 H838 0.961 . S
C823 H839 0.960 . S
H824 C808 0.931 . S
H825 C813 0.929 . S
H826 C814 0.960 . S
H827 C814 0.962 . S
H828 C814 0.960 1_556 S
H829 C815 0.961 . S
H830 C815 0.961 . S
H831 C815 0.961 . S
H832 C816 0.931 . S
H833 C821 0.930 . S
H834 C822 0.956 . S
H835 C822 0.961 . S
H836 C822 0.961 . S
H837 C823 0.958 . S
H838 C823 0.961 . S
H839 C823 0.960 . S
C840 C841 1.391 . S
C840 C842 1.394 . S
C840 H856 0.931 . S
C841 C840 1.391 . S
C841 C845 1.376 . S
C842 C840 1.394 . S
C842 C843 1.369 . S
C842 C846 1.531 . S
C843 C842 1.369 . S
C843 C844 1.410 . S
C843 C851 1.503 . S
C844 C843 1.410 . S
C844 C845 1.392 . S
C844 C847 1.511 . S
C845 C841 1.376 . S
C845 C844 1.392 . S
C845 H857 0.929 . S
C846 C842 1.531 . S
C846 H858 0.960 . S
C846 H859 0.962 . S
C846 H860 0.960 1_554 S
C847 C844 1.511 . S
C847 H861 0.961 . S
C847 H862 0.961 . S
C847 H863 0.961 . S
C848 C849 1.370 . S
C848 C850 1.363 . S
C848 H864 0.931 . S
C849 C848 1.370 . S
C849 C853 1.408 . S
C850 C848 1.363 . S
C850 C851 1.370 . S
C850 C854 1.524 . S
C851 C843 1.503 . S
C851 C850 1.370 . S
C851 C852 1.403 . S
C852 C851 1.403 . S
C852 C853 1.404 . S
C852 C855 1.539 . S
C853 C849 1.408 . S
C853 C852 1.404 . S
C853 H865 0.930 . S
C854 C850 1.524 . S
C854 H866 0.956 . S
C854 H867 0.961 . S
C854 H868 0.961 . S
C855 C852 1.539 . S
C855 H869 0.958 . S
C855 H870 0.961 . S
C855 H871 0.960 . S
H856 C840 0.931 . S
H857 C845 0.929 . S
H858 C846 0.960 . S
H859 C846 0.962 . S
H860 C846 0.960 1_556 S
H861 C847 0.961 . S
H862 C847 0.961 . S
H863 C847 0.961 . S
H864 C848 0.931 . S
H865 C853 0.930 . S
H866 C854 0.956 . S
H867 C854 0.961 . S
H868 C854 0.961 . S
H869 C855 0.958 . S
H870 C855 0.961 . S
H871 C855 0.960 . S
C872 C873 1.391 . S
C872 C874 1.394 . S
C872 H888 0.931 . S
C873 C872 1.391 . S
C873 C877 1.376 . S
C874 C872 1.394 . S
C874 C875 1.369 . S
C874 C878 1.531 1_554 S
C875 C874 1.369 . S
C875 C876 1.410 . S
C875 C883 1.503 . S
C876 C875 1.410 . S
C876 C877 1.392 . S
C876 C879 1.511 . S
C877 C873 1.376 . S
C877 C876 1.392 . S
C877 H889 0.929 . S
C878 C874 1.531 1_556 S
C878 H890 0.960 . S
C878 H891 0.962 . S
C878 H892 0.960 . S
C879 C876 1.511 . S
C879 H893 0.961 . S
C879 H894 0.961 . S
C879 H895 0.961 . S
C880 C881 1.370 1_554 S
C880 C882 1.363 . S
C880 H896 0.931 . S
C881 C880 1.370 1_556 S
C881 C885 1.408 1_456 S
C882 C880 1.363 . S
C882 C883 1.370 1_455 S
C882 C886 1.524 . S
C883 C875 1.503 . S
C883 C882 1.370 1_655 S
C883 C884 1.403 . S
C884 C883 1.403 . S
C884 C885 1.404 . S
C884 C887 1.539 . S
C885 C881 1.408 1_654 S
C885 C884 1.404 . S
C885 H897 0.930 1_554 S
C886 C882 1.524 . S
C886 H898 0.956 . S
C886 H899 0.961 . S
C886 H900 0.961 . S
C887 C884 1.539 . S
C887 H901 0.958 . S
C887 H902 0.961 . S
C887 H903 0.960 . S
H888 C872 0.931 . S
H889 C877 0.929 . S
H890 C878 0.960 . S
H891 C878 0.962 . S
H892 C878 0.960 . S
H893 C879 0.961 . S
H894 C879 0.961 . S
H895 C879 0.961 . S
H896 C880 0.931 . S
H897 C885 0.930 1_556 S
H898 C886 0.956 . S
H899 C886 0.961 . S
H900 C886 0.961 . S
H901 C887 0.958 . S
H902 C887 0.961 . S
H903 C887 0.960 . S
C904 C905 1.391 . S
C904 C906 1.394 . S
C904 H920 0.931 . S
C905 C904 1.391 . S
C905 C909 1.376 . S
C906 C904 1.394 . S
C906 C907 1.369 . S
C906 C910 1.531 . S
C907 C906 1.369 . S
C907 C908 1.410 . S
C907 C915 1.503 . S
C908 C907 1.410 . S
C908 C909 1.392 . S
C908 C911 1.491 1_564 S
C909 C905 1.376 . S
C909 C908 1.392 . S
C909 H921 0.929 . S
C910 C906 1.531 . S
C910 H922 0.960 . S
C910 H923 0.962 . S
C910 H924 0.960 . S
C911 C908 1.491 1_546 S
C911 H925 0.944 1_545 S
C911 H926 0.958 1_545 S
C911 H927 1.002 1_556 S
C912 C913 1.370 1_565 S
C912 C914 1.363 1_556 S
C912 H928 0.931 . S
C913 C912 1.370 1_545 S
C913 C917 1.408 1_556 S
C914 C912 1.363 1_554 S
C914 C915 1.370 . S
C914 C918 1.524 . S
C915 C907 1.503 . S
C915 C914 1.370 . S
C915 C916 1.403 1_565 S
C916 C915 1.403 1_545 S
C916 C917 1.404 . S
C916 C919 1.539 . S
C917 C913 1.408 1_554 S
C917 C916 1.404 . S
C917 H929 0.930 . S
C918 C914 1.524 . S
C918 H930 0.956 . S
C918 H931 0.961 1_554 S
C918 H932 0.961 1_554 S
C919 C916 1.539 . S
C919 H933 0.958 . S
C919 H934 0.961 . S
C919 H935 0.960 . S
H920 C904 0.931 . S
H921 C909 0.929 . S
H922 C910 0.960 . S
H923 C910 0.962 . S
H924 C910 0.960 . S
H925 C911 0.944 1_565 S
H926 C911 0.958 1_565 S
H927 C911 1.002 1_554 S
H928 C912 0.931 . S
H929 C917 0.930 . S
H930 C918 0.956 . S
H931 C918 0.961 1_556 S
H932 C918 0.961 1_556 S
H933 C919 0.958 . S
H934 C919 0.961 . S
H935 C919 0.960 . S
C936 C937 1.391 . S
C936 C938 1.394 . S
C936 H952 0.931 . S
C937 C936 1.391 . S
C937 C941 1.376 . S
C938 C936 1.394 . S
C938 C939 1.369 . S
C938 C942 1.531 1_554 S
C939 C938 1.369 . S
C939 C940 1.410 . S
C939 C947 1.503 . S
C940 C939 1.410 . S
C940 C941 1.392 . S
C940 C943 1.511 . S
C941 C937 1.376 . S
C941 C940 1.392 . S
C941 H953 0.929 . S
C942 C938 1.531 1_556 S
C942 H954 0.960 . S
C942 H955 0.962 . S
C942 H956 0.960 . S
C943 C940 1.511 . S
C943 H957 0.961 . S
C943 H958 0.961 . S
C943 H959 0.961 . S
C944 C945 1.370 . S
C944 C946 1.363 . S
C944 H960 0.931 . S
C945 C944 1.370 . S
C945 C949 1.408 . S
C946 C944 1.363 . S
C946 C947 1.370 . S
C946 C950 1.524 . S
C947 C939 1.503 . S
C947 C946 1.370 . S
C947 C948 1.403 . S
C948 C947 1.403 . S
C948 C949 1.404 . S
C948 C951 1.539 . S
C949 C945 1.408 . S
C949 C948 1.404 . S
C949 H961 0.930 . S
C950 C946 1.524 . S
C950 H962 0.956 . S
C950 H963 0.961 . S
C950 H964 0.961 . S
C951 C948 1.539 . S
C951 H965 0.958 . S
C951 H966 0.961 . S
C951 H967 0.960 . S
H952 C936 0.931 . S
H953 C941 0.929 . S
H954 C942 0.960 . S
H955 C942 0.962 . S
H956 C942 0.960 . S
H957 C943 0.961 . S
H958 C943 0.961 . S
H959 C943 0.961 . S
H960 C944 0.931 . S
H961 C949 0.930 . S
H962 C950 0.956 . S
H963 C950 0.961 . S
H964 C950 0.961 . S
H965 C951 0.958 . S
H966 C951 0.961 . S
H967 C951 0.960 . S
C968 C969 1.391 . S
C968 C970 1.394 . S
C968 H984 0.931 . S
C969 C968 1.391 . S
C969 C973 1.376 . S
C970 C968 1.394 . S
C970 C971 1.369 . S
C970 C974 1.531 . S
C971 C970 1.369 . S
C971 C972 1.410 . S
C971 C979 1.503 . S
C972 C971 1.410 . S
C972 C973 1.392 . S
C972 C975 1.511 . S
C973 C969 1.376 . S
C973 C972 1.392 . S
C973 H985 0.929 . S
C974 C970 1.531 . S
C974 H986 0.960 1_554 S
C974 H987 0.962 . S
C974 H988 0.960 1_554 S
C975 C972 1.511 . S
C975 H989 0.961 . S
C975 H990 0.961 . S
C975 H991 0.961 . S
C976 C977 1.370 . S
C976 C978 1.363 . S
C976 H992 0.931 . S
C977 C976 1.370 . S
C977 C981 1.408 1_554 S
C978 C976 1.363 . S
C978 C979 1.370 . S
C978 C982 1.524 . S
C979 C971 1.503 . S
C979 C978 1.370 . S
C979 C980 1.403 1_554 S
C980 C979 1.403 1_556 S
C980 C981 1.404 . S
C980 C983 1.539 . S
C981 C977 1.408 1_556 S
C981 C980 1.404 . S
C981 H993 0.930 . S
C982 C978 1.524 . S
C982 H994 0.956 . S
C982 H995 0.961 . S
C982 H996 0.961 . S
C983 C980 1.539 . S
C983 H997 0.958 . S
C983 H998 0.961 . S
C983 H999 0.960 . S
H984 C968 0.931 . S
H985 C973 0.929 . S
H986 C974 0.960 1_556 S
H987 C974 0.962 . S
H988 C974 0.960 1_556 S
H989 C975 0.961 . S
H990 C975 0.961 . S
H991 C975 0.961 . S
H992 C976 0.931 . S
H993 C981 0.930 . S
H994 C982 0.956 . S
H995 C982 0.961 . S
H996 C982 0.961 . S
H997 C983 0.958 . S
H998 C983 0.961 . S
H999 C983 0.960 . S
C1000 C1001 1.391 . S
C1000 C1002 1.394 . S
C1000 H1016 0.931 . S
C1001 C1000 1.391 . S
C1001 C1005 1.376 . S
C1002 C1000 1.394 . S
C1002 C1003 1.369 . S
C1002 C1006 1.522 1_455 S
C1003 C1002 1.369 . S
C1003 C1004 1.410 . S
C1003 C1011 1.503 . S
C1004 C1003 1.410 . S
C1004 C1005 1.392 . S
C1004 C1007 1.511 . S
C1005 C1001 1.376 . S
C1005 C1004 1.392 . S
C1005 H1017 0.929 . S
C1006 C1002 1.522 1_655 S
C1006 H1018 0.962 . S
C1006 H1019 0.963 . S
C1006 H1020 0.966 . S
C1007 C1004 1.511 . S
C1007 H1021 0.961 . S
C1007 H1022 0.961 . S
C1007 H1023 0.961 . S
C1008 C1009 1.370 . S
C1008 C1010 1.363 . S
C1008 H1024 0.931 . S
C1009 C1008 1.370 . S
C1009 C1013 1.408 . S
C1010 C1008 1.363 . S
C1010 C1011 1.370 . S
C1010 C1014 1.524 . S
C1011 C1003 1.503 . S
C1011 C1010 1.370 . S
C1011 C1012 1.403 . S
C1012 C1011 1.403 . S
C1012 C1013 1.404 . S
C1012 C1015 1.539 . S
C1013 C1009 1.408 . S
C1013 C1012 1.404 . S
C1013 H1025 0.930 . S
C1014 C1010 1.524 . S
C1014 H1026 0.956 . S
C1014 H1027 0.961 . S
C1014 H1028 0.961 . S
C1015 C1012 1.539 . S
C1015 H1029 0.958 . S
C1015 H1030 0.961 . S
C1015 H1031 0.960 . S
H1016 C1000 0.931 . S
H1017 C1005 0.929 . S
H1018 C1006 0.962 . S
H1019 C1006 0.963 . S
H1020 C1006 0.966 . S
H1021 C1007 0.961 . S
H1022 C1007 0.961 . S
H1023 C1007 0.961 . S
H1024 C1008 0.931 . S
H1025 C1013 0.930 . S
H1026 C1014 0.956 . S
H1027 C1014 0.961 . S
H1028 C1014 0.961 . S
H1029 C1015 0.958 . S
H1030 C1015 0.961 . S
H1031 C1015 0.960 . S
C1032 C1033 1.391 . S
C1032 C1034 1.394 . S
C1032 H1048 0.931 . S
C1033 C1032 1.391 . S
C1033 C1037 1.376 . S
C1034 C1032 1.394 . S
C1034 C1035 1.369 . S
C1034 C1038 1.531 . S
C1035 C1034 1.369 . S
C1035 C1036 1.410 . S
C1035 C1043 1.503 . S
C1036 C1035 1.410 . S
C1036 C1037 1.392 . S
C1036 C1039 1.511 . S
C1037 C1033 1.376 . S
C1037 C1036 1.392 . S
C1037 H1049 0.929 . S
C1038 C1034 1.531 . S
C1038 H1050 0.960 . S
C1038 H1051 0.964 . S
C1038 H1052 0.960 . S
C1039 C1036 1.511 . S
C1039 H1053 0.961 . S
C1039 H1054 0.961 . S
C1039 H1055 0.961 . S
C1040 C1041 1.370 . S
C1040 C1042 1.363 . S
C1040 H1056 0.931 . S
C1041 C1040 1.370 . S
C1041 C1045 1.408 . S
C1042 C1040 1.363 . S
C1042 C1043 1.370 . S
C1042 C1046 1.524 . S
C1043 C1035 1.503 . S
C1043 C1042 1.370 . S
C1043 C1044 1.403 . S
C1044 C1043 1.403 . S
C1044 C1045 1.404 . S
C1044 C1047 1.539 . S
C1045 C1041 1.408 . S
C1045 C1044 1.404 . S
C1045 H1057 0.930 . S
C1046 C1042 1.524 . S
C1046 H1058 0.956 . S
C1046 H1059 0.961 . S
C1046 H1060 0.961 . S
C1047 C1044 1.539 . S
C1047 H1061 0.958 . S
C1047 H1062 0.961 . S
C1047 H1063 0.960 . S
H1048 C1032 0.931 . S
H1049 C1037 0.929 . S
H1050 C1038 0.960 . S
H1051 C1038 0.964 . S
H1052 C1038 0.960 . S
H1053 C1039 0.961 . S
H1054 C1039 0.961 . S
H1055 C1039 0.961 . S
H1056 C1040 0.931 . S
H1057 C1045 0.930 . S
H1058 C1046 0.956 . S
H1059 C1046 0.961 . S
H1060 C1046 0.961 . S
H1061 C1047 0.958 . S
H1062 C1047 0.961 . S
H1063 C1047 0.960 . S
C1064 C1065 1.391 . S
C1064 C1066 1.394 . S
C1064 H1080 0.931 . S
C1065 C1064 1.391 . S
C1065 C1069 1.376 . S
C1066 C1064 1.394 . S
C1066 C1067 1.369 . S
C1066 C1070 1.531 . S
C1067 C1066 1.369 . S
C1067 C1068 1.410 . S
C1067 C1075 1.503 . S
C1068 C1067 1.410 . S
C1068 C1069 1.392 . S
C1068 C1071 1.511 . S
C1069 C1065 1.376 . S
C1069 C1068 1.392 . S
C1069 H1081 0.929 . S
C1070 C1066 1.531 . S
C1070 H1082 0.960 . S
C1070 H1083 0.962 . S
C1070 H1084 0.960 . S
C1071 C1068 1.511 . S
C1071 H1085 0.961 . S
C1071 H1086 0.961 . S
C1071 H1087 0.961 . S
C1072 C1073 1.370 . S
C1072 C1074 1.363 . S
C1072 H1088 0.931 . S
C1073 C1072 1.370 . S
C1073 C1077 1.408 . S
C1074 C1072 1.363 . S
C1074 C1075 1.370 . S
C1074 C1078 1.524 . S
C1075 C1067 1.503 . S
C1075 C1074 1.370 . S
C1075 C1076 1.403 . S
C1076 C1075 1.403 . S
C1076 C1077 1.404 . S
C1076 C1079 1.539 . S
C1077 C1073 1.408 . S
C1077 C1076 1.404 . S
C1077 H1089 0.930 . S
C1078 C1074 1.524 . S
C1078 H1090 0.956 . S
C1078 H1091 0.961 . S
C1078 H1092 0.961 . S
C1079 C1076 1.539 . S
C1079 H1093 0.958 . S
C1079 H1094 0.961 . S
C1079 H1095 0.960 . S
H1080 C1064 0.931 . S
H1081 C1069 0.929 . S
H1082 C1070 0.960 . S
H1083 C1070 0.962 . S
H1084 C1070 0.960 . S
H1085 C1071 0.961 . S
H1086 C1071 0.961 . S
H1087 C1071 0.961 . S
H1088 C1072 0.931 . S
H1089 C1077 0.930 . S
H1090 C1078 0.956 . S
H1091 C1078 0.961 . S
H1092 C1078 0.961 . S
H1093 C1079 0.958 . S
H1094 C1079 0.961 . S
H1095 C1079 0.960 . S
C1096 C1097 1.391 . S
C1096 C1098 1.394 . S
C1096 H1112 0.931 . S
C1097 C1096 1.391 . S
C1097 C1101 1.376 . S
C1098 C1096 1.394 . S
C1098 C1099 1.369 . S
C1098 C1102 1.531 . S
C1099 C1098 1.369 . S
C1099 C1100 1.410 . S
C1099 C1107 1.503 . S
C1100 C1099 1.410 . S
C1100 C1101 1.392 . S
C1100 C1103 1.511 . S
C1101 C1097 1.376 . S
C1101 C1100 1.392 . S
C1101 H1113 0.929 . S
C1102 C1098 1.531 . S
C1102 H1114 0.960 . S
C1102 H1115 0.962 . S
C1102 H1116 0.960 . S
C1103 C1100 1.511 . S
C1103 H1117 0.961 . S
C1103 H1118 0.961 . S
C1103 H1119 0.961 . S
C1104 C1105 1.370 . S
C1104 C1106 1.363 . S
C1104 H1120 0.931 . S
C1105 C1104 1.370 . S
C1105 C1109 1.408 . S
C1106 C1104 1.363 . S
C1106 C1107 1.370 . S
C1106 C1110 1.524 . S
C1107 C1099 1.503 . S
C1107 C1106 1.370 . S
C1107 C1108 1.403 . S
C1108 C1107 1.403 . S
C1108 C1109 1.404 . S
C1108 C1111 1.539 . S
C1109 C1105 1.408 . S
C1109 C1108 1.404 . S
C1109 H1121 0.930 . S
C1110 C1106 1.524 . S
C1110 H1122 0.956 . S
C1110 H1123 0.961 . S
C1110 H1124 0.961 . S
C1111 C1108 1.539 . S
C1111 H1125 0.958 . S
C1111 H1126 0.961 . S
C1111 H1127 0.960 . S
H1112 C1096 0.931 . S
H1113 C1101 0.929 . S
H1114 C1102 0.960 . S
H1115 C1102 0.962 . S
H1116 C1102 0.960 . S
H1117 C1103 0.961 . S
H1118 C1103 0.961 . S
H1119 C1103 0.961 . S
H1120 C1104 0.931 . S
H1121 C1109 0.930 . S
H1122 C1110 0.956 . S
H1123 C1110 0.961 . S
H1124 C1110 0.961 . S
H1125 C1111 0.958 . S
H1126 C1111 0.961 . S
H1127 C1111 0.960 . S
C1128 C1129 1.391 . S
C1128 C1130 1.394 . S
C1128 H1144 0.931 . S
C1129 C1128 1.391 . S
C1129 C1133 1.376 . S
C1130 C1128 1.394 . S
C1130 C1131 1.369 . S
C1130 C1134 1.531 . S
C1131 C1130 1.369 . S
C1131 C1132 1.410 . S
C1131 C1139 1.503 . S
C1132 C1131 1.410 . S
C1132 C1133 1.392 . S
C1132 C1135 1.511 1_655 S
C1133 C1129 1.376 . S
C1133 C1132 1.392 . S
C1133 H1145 0.929 . S
C1134 C1130 1.531 . S
C1134 H1146 0.960 . S
C1134 H1147 0.962 . S
C1134 H1148 0.960 . S
C1135 C1132 1.511 1_455 S
C1135 H1149 0.961 . S
C1135 H1150 0.964 . S
C1135 H1151 0.961 . S
C1136 C1137 1.370 . S
C1136 C1138 1.363 . S
C1136 H1152 0.931 . S
C1137 C1136 1.370 . S
C1137 C1141 1.432 . S
C1138 C1136 1.363 . S
C1138 C1139 1.370 . S
C1138 C1142 1.524 . S
C1139 C1131 1.503 . S
C1139 C1138 1.370 . S
C1139 C1140 1.403 . S
C1140 C1139 1.403 . S
C1140 C1141 1.411 . S
C1140 C1143 1.539 1_655 S
C1141 C1137 1.432 . S
C1141 C1140 1.411 . S
C1141 H1153 0.901 1_655 S
C1142 C1138 1.524 . S
C1142 H1154 0.956 . S
C1142 H1155 0.961 . S
C1142 H1156 0.961 . S
C1143 C1140 1.539 1_455 S
C1143 H1157 0.958 . S
C1143 H1158 0.961 . S
C1143 H1159 0.960 . S
H1144 C1128 0.931 . S
H1145 C1133 0.929 . S
H1146 C1134 0.960 . S
H1147 C1134 0.962 . S
H1148 C1134 0.960 . S
H1149 C1135 0.961 . S
H1150 C1135 0.964 . S
H1151 C1135 0.961 . S
H1152 C1136 0.931 . S
H1153 C1141 0.901 1_455 S
H1154 C1142 0.956 . S
H1155 C1142 0.961 . S
H1156 C1142 0.961 . S
H1157 C1143 0.958 . S
H1158 C1143 0.961 . S
H1159 C1143 0.960 . S
C1160 C1161 1.391 . S
C1160 C1162 1.394 . S
C1160 H1176 0.931 . S
C1161 C1160 1.391 . S
C1161 C1165 1.376 . S
C1162 C1160 1.394 . S
C1162 C1163 1.369 . S
C1162 C1166 1.531 . S
C1163 C1162 1.369 . S
C1163 C1164 1.410 . S
C1163 C1171 1.503 . S
C1164 C1163 1.410 . S
C1164 C1165 1.392 . S
C1164 C1167 1.511 1_565 S
C1165 C1161 1.376 . S
C1165 C1164 1.392 . S
C1165 H1177 0.929 . S
C1166 C1162 1.531 . S
C1166 H1178 0.960 . S
C1166 H1179 0.962 . S
C1166 H1180 0.960 . S
C1167 C1164 1.511 1_545 S
C1167 H1181 0.961 . S
C1167 H1182 0.961 . S
C1167 H1183 0.961 1_545 S
C1168 C1169 1.380 . S
C1168 C1170 1.368 . S
C1168 H1184 0.916 1_565 S
C1169 C1168 1.380 . S
C1169 C1173 1.408 . S
C1170 C1168 1.368 . S
C1170 C1171 1.370 . S
C1170 C1174 1.524 1_565 S
C1171 C1163 1.503 . S
C1171 C1170 1.370 . S
C1171 C1172 1.403 . S
C1172 C1171 1.403 . S
C1172 C1173 1.404 . S
C1172 C1175 1.539 . S
C1173 C1169 1.408 . S
C1173 C1172 1.404 . S
C1173 H1185 0.930 . S
C1174 C1170 1.524 1_545 S
C1174 H1186 0.956 1_545 S
C1174 H1187 0.961 . S
C1174 H1188 0.961 . S
C1175 C1172 1.539 . S
C1175 H1189 0.958 . S
C1175 H1190 0.961 . S
C1175 H1191 0.960 . S
H1176 C1160 0.931 . S
H1177 C1165 0.929 . S
H1178 C1166 0.960 . S
H1179 C1166 0.962 . S
H1180 C1166 0.960 . S
H1181 C1167 0.961 . S
H1182 C1167 0.961 . S
H1183 C1167 0.961 1_565 S
H1184 C1168 0.916 1_545 S
H1185 C1173 0.930 . S
H1186 C1174 0.956 1_565 S
H1187 C1174 0.961 . S
H1188 C1174 0.961 . S
H1189 C1175 0.958 . S
H1190 C1175 0.961 . S
H1191 C1175 0.960 . S
C1192 C1193 1.391 . S
C1192 C1194 1.394 . S
C1192 H1208 0.931 . S
C1193 C1192 1.391 . S
C1193 C1197 1.376 . S
C1194 C1192 1.394 . S
C1194 C1195 1.369 . S
C1194 C1198 1.531 . S
C1195 C1194 1.369 . S
C1195 C1196 1.410 . S
C1195 C1203 1.503 . S
C1196 C1195 1.410 . S
C1196 C1197 1.392 . S
C1196 C1199 1.511 . S
C1197 C1193 1.376 . S
C1197 C1196 1.392 . S
C1197 H1209 0.929 . S
C1198 C1194 1.531 . S
C1198 H1210 0.960 . S
C1198 H1211 0.962 . S
C1198 H1212 0.960 . S
C1199 C1196 1.511 . S
C1199 H1213 0.961 . S
C1199 H1214 0.961 . S
C1199 H1215 0.961 . S
C1200 C1201 1.370 . S
C1200 C1202 1.363 . S
C1200 H1216 0.931 . S
C1201 C1200 1.370 . S
C1201 C1205 1.408 . S
C1202 C1200 1.363 . S
C1202 C1203 1.370 . S
C1202 C1206 1.524 . S
C1203 C1195 1.503 . S
C1203 C1202 1.370 . S
C1203 C1204 1.403 . S
C1204 C1203 1.403 . S
C1204 C1205 1.404 . S
C1204 C1207 1.539 . S
C1205 C1201 1.408 . S
C1205 C1204 1.404 . S
C1205 H1217 0.930 . S
C1206 C1202 1.524 . S
C1206 H1218 0.956 . S
C1206 H1219 0.961 . S
C1206 H1220 0.961 . S
C1207 C1204 1.539 . S
C1207 H1221 0.958 . S
C1207 H1222 0.961 . S
C1207 H1223 0.960 . S
H1208 C1192 0.931 . S
H1209 C1197 0.929 . S
H1210 C1198 0.960 . S
H1211 C1198 0.962 . S
H1212 C1198 0.960 . S
H1213 C1199 0.961 . S
H1214 C1199 0.961 . S
H1215 C1199 0.961 . S
H1216 C1200 0.931 . S
H1217 C1205 0.930 . S
H1218 C1206 0.956 . S
H1219 C1206 0.961 . S
H1220 C1206 0.961 . S
H1221 C1207 0.958 . S
H1222 C1207 0.961 . S
H1223 C1207 0.960 . S
C1224 C1225 1.391 . S
C1224 C1226 1.394 . S
C1224 H1240 0.931 . S
C1225 C1224 1.391 . S
C1225 C1229 1.376 . S
C1226 C1224 1.394 . S
C1226 C1227 1.369 . S
C1226 C1230 1.531 . S
C1227 C1226 1.369 . S
C1227 C1228 1.410 . S
C1227 C1235 1.503 . S
C1228 C1227 1.410 . S
C1228 C1229 1.392 . S
C1228 C1231 1.511 . S
C1229 C1225 1.376 . S
C1229 C1228 1.392 . S
C1229 H1241 0.929 . S
C1230 C1226 1.531 . S
C1230 H1242 0.960 . S
C1230 H1243 0.962 . S
C1230 H1244 0.960 . S
C1231 C1228 1.511 . S
C1231 H1245 0.961 . S
C1231 H1246 0.961 . S
C1231 H1247 0.961 . S
C1232 C1233 1.370 . S
C1232 C1234 1.363 . S
C1232 H1248 0.931 . S
C1233 C1232 1.370 . S
C1233 C1237 1.408 . S
C1234 C1232 1.363 . S
C1234 C1235 1.370 . S
C1234 C1238 1.524 . S
C1235 C1227 1.503 . S
C1235 C1234 1.370 . S
C1235 C1236 1.403 . S
C1236 C1235 1.403 . S
C1236 C1237 1.404 . S
C1236 C1239 1.539 . S
C1237 C1233 1.408 . S
C1237 C1236 1.404 . S
C1237 H1249 0.930 . S
C1238 C1234 1.524 . S
C1238 H1250 0.956 . S
C1238 H1251 0.961 . S
C1238 H1252 0.961 . S
C1239 C1236 1.539 . S
C1239 H1253 0.958 . S
C1239 H1254 0.961 . S
C1239 H1255 0.960 . S
H1240 C1224 0.931 . S
H1241 C1229 0.929 . S
H1242 C1230 0.960 . S
H1243 C1230 0.962 . S
H1244 C1230 0.960 . S
H1245 C1231 0.961 . S
H1246 C1231 0.961 . S
H1247 C1231 0.961 . S
H1248 C1232 0.931 . S
H1249 C1237 0.930 . S
H1250 C1238 0.956 . S
H1251 C1238 0.961 . S
H1252 C1238 0.961 . S
H1253 C1239 0.958 . S
H1254 C1239 0.961 . S
H1255 C1239 0.960 . S
C489 C125 1.911 . S
C497 C226 1.932 . S
C529 C310 1.949 . S
C521 C144 1.891 . S
C561 C376 1.954 . S
C553 C87 2.019 . S
C593 C460 1.942 . S
C585 C106 1.986 . S
C625 C215 1.946 1_565 S
C617 C49 1.978 . S
C649 C68 2.018 . S
C657 C299 1.960 . S
C681 C11 2.120 . S
C689 C387 1.947 . S
C713 C30 2.098 . S
C721 C471 1.942 . S
C753 C222 0.673 1_455 S
C745 C97 0.728 . S
C785 C306 0.664 . S
C777 C116 0.595 . S
C817 C378 0.629 . S
C809 C135 0.610 . S
C841 C78 0.642 . S
C849 C462 0.660 . S
C873 C21 0.731 . S
C881 C210 0.717 . S
C913 C294 0.629 . S
C905 C40 0.603 . S
C945 C390 0.645 . S
C937 C59 0.681 . S
C969 C2 0.756 . S
C977 C474 0.695 . S
C1001 C101 2.058 . S
C1009 C219 2.068 . S
C1033 C120 2.025 . S
C1041 C303 2.046 . S
C1073 C383 2.089 . S
C1065 C139 1.938 . S
C1105 C467 2.121 . S
C1097 C82 1.963 . S
C1129 C25 2.052 . S
C1137 C208 2.067 . S
C1169 C292 2.042 1_565 S
C1161 C44 2.027 . S
C1201 C394 2.082 . S
C1193 C63 1.876 . S
C1225 C6 1.909 . S
C1233 C478 2.116 . S
