# Generated by pormake.
# Topology cml, (3,6)-cn, num edge types: 1
# Building blocks:
#     Node 0, Type 0, BuildingBlock: MIDCAF_clean_linker_0, # of connection points: 3
#     Node 1, Type 0, BuildingBlock: MIDCAF_clean_linker_0, # of connection points: 3
#     Node 2, Type 0, BuildingBlock: MIDCAF_clean_linker_0, # of connection points: 3
#     Node 3, Type 0, BuildingBlock: MIDCAF_clean_linker_0, # of connection points: 3
#     Node 4, Type 0, BuildingBlock: MIDCAF_clean_linker_0, # of connection points: 3
#     Node 5, Type 0, BuildingBlock: MIDCAF_clean_linker_0, # of connection points: 3
#     Node 6, Type 0, BuildingBlock: MIDCAF_clean_linker_0, # of connection points: 3
#     Node 7, Type 0, BuildingBlock: MIDCAF_clean_linker_0, # of connection points: 3
#     Node 8, Type 1, BuildingBlock: OJICUG_clean_sbu_0, # of connection points: 6
#     Node 9, Type 1, BuildingBlock: OJICUG_clean_sbu_0, # of connection points: 6
#     Node 10, Type 1, BuildingBlock: OJICUG_clean_sbu_0, # of connection points: 6
#     Node 11, Type 1, BuildingBlock: OJICUG_clean_sbu_0, # of connection points: 6
#     Edge 12, Type (0, 1), BuildingBlock: UVAHIK_clean_linker_0, # of connection points: 2
#     Edge 13, Type (0, 1), BuildingBlock: UVAHIK_clean_linker_0, # of connection points: 2
#     Edge 14, Type (0, 1), BuildingBlock: UVAHIK_clean_linker_0, # of connection points: 2
#     Edge 15, Type (0, 1), BuildingBlock: UVAHIK_clean_linker_0, # of connection points: 2
#     Edge 16, Type (0, 1), BuildingBlock: UVAHIK_clean_linker_0, # of connection points: 2
#     Edge 17, Type (0, 1), BuildingBlock: UVAHIK_clean_linker_0, # of connection points: 2
#     Edge 18, Type (0, 1), BuildingBlock: UVAHIK_clean_linker_0, # of connection points: 2
#     Edge 19, Type (0, 1), BuildingBlock: UVAHIK_clean_linker_0, # of connection points: 2
#     Edge 20, Type (0, 1), BuildingBlock: UVAHIK_clean_linker_0, # of connection points: 2
#     Edge 21, Type (0, 1), BuildingBlock: UVAHIK_clean_linker_0, # of connection points: 2
#     Edge 22, Type (0, 1), BuildingBlock: UVAHIK_clean_linker_0, # of connection points: 2
#     Edge 23, Type (0, 1), BuildingBlock: UVAHIK_clean_linker_0, # of connection points: 2
#     Edge 24, Type (0, 1), BuildingBlock: UVAHIK_clean_linker_0, # of connection points: 2
#     Edge 25, Type (0, 1), BuildingBlock: UVAHIK_clean_linker_0, # of connection points: 2
#     Edge 26, Type (0, 1), BuildingBlock: UVAHIK_clean_linker_0, # of connection points: 2
#     Edge 27, Type (0, 1), BuildingBlock: UVAHIK_clean_linker_0, # of connection points: 2
#     Edge 28, Type (0, 1), BuildingBlock: UVAHIK_clean_linker_0, # of connection points: 2
#     Edge 29, Type (0, 1), BuildingBlock: UVAHIK_clean_linker_0, # of connection points: 2
#     Edge 30, Type (0, 1), BuildingBlock: UVAHIK_clean_linker_0, # of connection points: 2
#     Edge 31, Type (0, 1), BuildingBlock: UVAHIK_clean_linker_0, # of connection points: 2
#     Edge 32, Type (0, 1), BuildingBlock: UVAHIK_clean_linker_0, # of connection points: 2
#     Edge 33, Type (0, 1), BuildingBlock: UVAHIK_clean_linker_0, # of connection points: 2
#     Edge 34, Type (0, 1), BuildingBlock: UVAHIK_clean_linker_0, # of connection points: 2
#     Edge 35, Type (0, 1), BuildingBlock: UVAHIK_clean_linker_0, # of connection points: 2
# Relax obj value: 0.074
# Max RMSD: 0.086
# Mean RMSD: 0.082
data_MOF--net-cml--node1-OJICUG_clean_sbu_0--node2-MIDCAF_clean_linker_0--edge1-UVAHIK_clean_linker_0
_symmetry_space_group_name_H-M    P1
_symmetry_Int_Tables_number       1
_symmetry_cell_setting            triclinic
loop_
_symmetry_equiv_pos_as_xyz
'x, y, z'
_cell_length_a     58.250959
_cell_length_b     58.681807
_cell_length_c     55.539124
_cell_angle_alpha  89.971372
_cell_angle_beta   90.021974
_cell_angle_gamma 89.959422
loop_
_atom_site_label
_atom_site_type_symbol
_atom_site_fract_x
_atom_site_fract_y
_atom_site_fract_z
_atom_type_partial_charge
C0 C 0.29103 0.40412 0.09432 0.0
C1 C 0.28548 0.38233 0.10305 0.0
C2 C 0.26869 0.3695 0.09096 0.0
C3 C 0.25813 0.37805 0.07021 0.0
H4 H 0.20525 0.36685 0.02086 0.0
H5 H 0.17859 0.34312 0.99832 0.0
H6 H 0.19079 0.38362 0.9346 0.0
H7 H 0.21692 0.40776 0.95721 0.0
H8 H 0.24996 0.44882 0.95891 0.0
H9 H 0.27156 0.47808 0.93758 0.0
H10 H 0.31204 0.49033 0.00145 0.0
H11 H 0.29032 0.46143 0.02295 0.0
H12 H 0.2857 0.42928 0.06713 0.0
H13 H 0.30409 0.41435 0.10303 0.0
H14 H 0.26389 0.35275 0.09741 0.0
H15 H 0.24561 0.36753 0.06105 0.0
N16 N 0.23816 0.39601 0.02615 0.0
N17 N 0.24026 0.42137 0.99358 0.0
N18 N 0.26419 0.42642 0.027 0.0
C19 C 0.23067 0.40277 0.00408 0.0
C20 C 0.25697 0.43335 0.00495 0.0
C21 C 0.25489 0.40781 0.03777 0.0
C22 C 0.21338 0.38915 0.99085 0.0
C23 C 0.20215 0.37082 0.00209 0.0
C24 C 0.18696 0.35712 0.98913 0.0
C25 C 0.18272 0.36134 0.96459 0.0
C26 C 0.19348 0.38002 0.95352 0.0
C27 C 0.20858 0.3938 0.96651 0.0
C28 C 0.26851 0.45259 0.99263 0.0
C29 C 0.26328 0.45792 0.96853 0.0
C30 C 0.27573 0.4746 0.95624 0.0
C31 C 0.29358 0.4864 0.96778 0.0
C32 C 0.29823 0.48169 0.99211 0.0
C33 C 0.28585 0.46499 0.00439 0.0
C34 C 0.26427 0.39956 0.06102 0.0
C35 C 0.28057 0.41263 0.07358 0.0
C36 C 0.7034 0.59228 0.59697 0.0
C37 C 0.70922 0.61401 0.60561 0.0
C38 C 0.72595 0.62674 0.59327 0.0
C39 C 0.73624 0.61808 0.5724 0.0
H40 H 0.79172 0.62553 0.52381 0.0
H41 H 0.8202 0.64717 0.50113 0.0
H42 H 0.80796 0.60487 0.43887 0.0
H43 H 0.7795 0.58327 0.46127 0.0
H44 H 0.74914 0.53526 0.47057 0.0
H45 H 0.7256 0.50895 0.44673 0.0
H46 H 0.66612 0.52724 0.48872 0.0
H47 H 0.68949 0.55304 0.51293 0.0
H48 H 0.70817 0.56709 0.56978 0.0
H49 H 0.69036 0.58216 0.60584 0.0
H50 H 0.7309 0.64348 0.59962 0.0
H51 H 0.74871 0.62847 0.563 0.0
N52 N 0.75698 0.5982 0.52913 0.0
N53 N 0.753 0.57351 0.49614 0.0
N54 N 0.72756 0.57095 0.5286 0.0
C55 C 0.7643 0.59086 0.50718 0.0
C56 C 0.73464 0.5635 0.50673 0.0
C57 C 0.7387 0.58814 0.54003 0.0
C58 C 0.78312 0.60276 0.49436 0.0
C59 C 0.79522 0.62068 0.50537 0.0
C60 C 0.81162 0.63302 0.49242 0.0
C61 C 0.81613 0.62779 0.46819 0.0
C62 C 0.80459 0.60946 0.45742 0.0
C63 C 0.78834 0.59703 0.47037 0.0
C64 C 0.72114 0.54623 0.49359 0.0
C65 C 0.7311 0.53346 0.47488 0.0
C66 C 0.71773 0.51841 0.4613 0.0
C67 C 0.69416 0.51633 0.46593 0.0
C68 C 0.68428 0.52873 0.48485 0.0
C69 C 0.6977 0.54337 0.49873 0.0
C70 C 0.72977 0.59663 0.56334 0.0
C71 C 0.71351 0.58372 0.57612 0.0
C72 C 0.7011 0.4099 0.09086 0.0
C73 C 0.70432 0.38765 0.09959 0.0
C74 C 0.7202 0.37336 0.08795 0.0
C75 C 0.73222 0.38104 0.06768 0.0
H76 H 0.7776 0.36077 0.0145 0.0
H77 H 0.80376 0.33621 0.99231 0.0
H78 H 0.81664 0.39064 0.94166 0.0
H79 H 0.79005 0.41503 0.9634 0.0
H80 H 0.75124 0.45302 0.95864 0.0
H81 H 0.73262 0.48424 0.93722 0.0
H82 H 0.69219 0.49932 0.00043 0.0
H83 H 0.71095 0.4685 0.02198 0.0
H84 H 0.70968 0.43467 0.06427 0.0
H85 H 0.68875 0.42125 0.09915 0.0
H86 H 0.7232 0.35619 0.09438 0.0
H87 H 0.74402 0.36948 0.05887 0.0
N88 N 0.75556 0.39778 0.02477 0.0
N89 N 0.75764 0.4243 0.9932 0.0
N90 N 0.73267 0.43061 0.02549 0.0
C91 C 0.7648 0.40449 0.00343 0.0
C92 C 0.7416 0.43748 0.00414 0.0
C93 C 0.73955 0.41085 0.03599 0.0
C94 C 0.78162 0.38987 0.99072 0.0
C95 C 0.78606 0.36756 0.9987 0.0
C96 C 0.80115 0.35349 0.98602 0.0
C97 C 0.81225 0.36144 0.96516 0.0
C98 C 0.80807 0.38385 0.9574 0.0
C99 C 0.79291 0.39789 0.97 0.0
C100 C 0.73242 0.45804 0.99198 0.0
C101 C 0.73863 0.46319 0.96811 0.0
C102 C 0.72789 0.48101 0.95577 0.0
C103 C 0.71083 0.49412 0.96707 0.0
C104 C 0.70543 0.48968 0.99127 0.0
C105 C 0.71609 0.47185 0.00358 0.0
C106 C 0.72847 0.40312 0.05858 0.0
C107 C 0.71301 0.41754 0.07066 0.0
C108 C 0.29308 0.58362 0.59409 0.0
C109 C 0.28993 0.60596 0.60256 0.0
C110 C 0.27446 0.62035 0.59043 0.0
C111 C 0.26276 0.61266 0.56996 0.0
H112 H 0.21868 0.63306 0.51557 0.0
H113 H 0.1929 0.65762 0.49288 0.0
H114 H 0.17911 0.60251 0.44336 0.0
H115 H 0.20539 0.57811 0.4656 0.0
H116 H 0.24173 0.53791 0.46289 0.0
H117 H 0.26056 0.50701 0.44125 0.0
H118 H 0.30685 0.49716 0.50117 0.0
H119 H 0.28781 0.52752 0.52303 0.0
H120 H 0.28474 0.55877 0.56751 0.0
H121 H 0.30512 0.57219 0.60277 0.0
H122 H 0.27153 0.6376 0.59665 0.0
H123 H 0.25126 0.62429 0.56079 0.0
N124 N 0.2398 0.59576 0.52688 0.0
N125 N 0.23806 0.56912 0.49542 0.0
N126 N 0.2627 0.56293 0.52806 0.0
C127 C 0.2308 0.58897 0.50544 0.0
C128 C 0.254 0.55598 0.50662 0.0
C129 C 0.25567 0.58271 0.53838 0.0
C130 C 0.21419 0.6036 0.49241 0.0
C131 C 0.2101 0.62611 0.49991 0.0
C132 C 0.19522 0.64019 0.48693 0.0
C133 C 0.18396 0.63206 0.46625 0.0
C134 C 0.18781 0.60945 0.45895 0.0
C135 C 0.20279 0.59541 0.47183 0.0
C136 C 0.26342 0.53545 0.49462 0.0
C137 C 0.2557 0.52894 0.47162 0.0
C138 C 0.26656 0.51129 0.45914 0.0
C139 C 0.28534 0.49976 0.46937 0.0
C140 C 0.29229 0.50551 0.49283 0.0
C141 C 0.28143 0.5231 0.50532 0.0
C142 C 0.26644 0.59048 0.56113 0.0
C143 C 0.28149 0.57598 0.57367 0.0
C144 C 0.7922 0.90418 0.09703 0.0
C145 C 0.78728 0.88208 0.10526 0.0
C146 C 0.77076 0.86907 0.09296 0.0
C147 C 0.75983 0.87781 0.0725 0.0
H148 H 0.70431 0.8688 0.02452 0.0
H149 H 0.67703 0.84564 0.00214 0.0
H150 H 0.69162 0.88434 0.9377 0.0
H151 H 0.71829 0.90796 0.96019 0.0
H152 H 0.74909 0.95098 0.96314 0.0
H153 H 0.77015 0.98086 0.94219 0.0
H154 H 0.8117 0.99179 0.00558 0.0
H155 H 0.79051 0.96228 0.02671 0.0
H156 H 0.78603 0.92979 0.07053 0.0
H157 H 0.80504 0.91455 0.1059 0.0
H158 H 0.76645 0.85206 0.09903 0.0
H159 H 0.74753 0.86717 0.06316 0.0
N160 N 0.73883 0.8965 0.02923 0.0
N161 N 0.74031 0.9225 0.99717 0.0
N162 N 0.76459 0.92713 0.03038 0.0
C163 C 0.73102 0.90362 0.0074 0.0
C164 C 0.75703 0.93442 0.00858 0.0
C165 C 0.7556 0.90823 0.04086 0.0
C166 C 0.71359 0.89019 0.99416 0.0
C167 C 0.70162 0.87246 0.00561 0.0
C168 C 0.68606 0.85909 0.99273 0.0
C169 C 0.68226 0.863 0.96805 0.0
C170 C 0.6939 0.88102 0.95673 0.0
C171 C 0.70932 0.89451 0.96965 0.0
C172 C 0.76822 0.95404 0.99658 0.0
C173 C 0.76252 0.95992 0.97275 0.0
C174 C 0.77466 0.97697 0.96067 0.0
C175 C 0.79267 0.98856 0.97217 0.0
C176 C 0.79776 0.98332 0.99628 0.0
C177 C 0.78568 0.96626 0.00834 0.0
C178 C 0.76534 0.89967 0.06382 0.0
C179 C 0.78138 0.91286 0.07658 0.0
C180 C 0.19913 0.08856 0.5909 0.0
C181 C 0.20398 0.11029 0.60019 0.0
C182 C 0.22076 0.1237 0.58879 0.0
C183 C 0.23207 0.11571 0.56823 0.0
H184 H 0.2755 0.13569 0.51368 0.0
H185 H 0.3019 0.15983 0.49144 0.0
H186 H 0.31519 0.10468 0.44177 0.0
H187 H 0.28818 0.08072 0.46358 0.0
H188 H 0.2459 0.04521 0.45736 0.0
H189 H 0.22584 0.01497 0.43584 0.0
H190 H 0.18634 7e-05 0.49973 0.0
H191 H 0.20651 0.02989 0.52138 0.0
H192 H 0.20579 0.06392 0.56357 0.0
H193 H 0.18607 0.07791 0.59903 0.0
H194 H 0.22504 0.14044 0.59567 0.0
H195 H 0.24463 0.12663 0.55966 0.0
N196 N 0.25368 0.09881 0.52458 0.0
N197 N 0.25435 0.07277 0.49253 0.0
N198 N 0.22941 0.06702 0.52501 0.0
C199 C 0.26243 0.09207 0.50303 0.0
C200 C 0.23784 0.06012 0.50343 0.0
C201 C 0.23723 0.08628 0.53575 0.0
C202 C 0.27962 0.10628 0.49039 0.0
C203 C 0.28414 0.12863 0.49812 0.0
C204 C 0.29939 0.14246 0.4854 0.0
C205 C 0.31066 0.13422 0.46477 0.0
C206 C 0.3065 0.11171 0.45733 0.0
C207 C 0.2911 0.09792 0.46994 0.0
C208 C 0.22767 0.04017 0.49107 0.0
C209 C 0.23318 0.03528 0.46695 0.0
C210 C 0.22161 0.01804 0.45455 0.0
C211 C 0.20442 0.00524 0.46603 0.0
C212 C 0.19966 0.00946 0.49042 0.0
C213 C 0.21113 0.02671 0.50279 0.0
C214 C 0.22673 0.09418 0.55859 0.0
C215 C 0.21035 0.0806 0.57039 0.0
C216 C 0.20981 0.9133 0.09935 0.0
C217 C 0.20538 0.89011 0.1039 0.0
C218 C 0.21477 0.87373 0.08821 0.0
C219 C 0.22736 0.88043 0.06797 0.0
H220 H 0.28807 0.86642 0.02312 0.0
H221 H 0.31355 0.84116 0.00058 0.0
H222 H 0.30183 0.88081 0.93624 0.0
H223 H 0.2764 0.90604 0.95854 0.0
H224 H 0.25334 0.95358 0.96277 0.0
H225 H 0.23413 0.98359 0.94018 0.0
H226 H 0.1883 0.99516 8e-05 0.0
H227 H 0.20771 0.96553 0.02292 0.0
H228 H 0.2244 0.93801 0.07551 0.0
H229 H 0.20351 0.92642 0.11137 0.0
H230 H 0.21158 0.85574 0.09092 0.0
H231 H 0.23363 0.86745 0.05576 0.0
N232 N 0.25598 0.89725 0.02796 0.0
N233 N 0.25677 0.92299 0.99566 0.0
N234 N 0.23365 0.93054 0.02916 0.0
C235 C 0.2642 0.90334 0.00597 0.0
C236 C 0.24154 0.93671 0.00711 0.0
C237 C 0.24081 0.91089 0.03971 0.0
C238 C 0.28015 0.88825 0.99266 0.0
C239 C 0.29094 0.86979 0.00418 0.0
C240 C 0.30561 0.85539 0.99133 0.0
C241 C 0.30957 0.85902 0.96667 0.0
C242 C 0.29888 0.87749 0.95518 0.0
C243 C 0.28442 0.89202 0.96804 0.0
C244 C 0.2319 0.95689 0.9946 0.0
C245 C 0.23937 0.96271 0.97131 0.0
C246 C 0.22831 0.97985 0.95827 0.0
C247 C 0.20954 0.99158 0.96822 0.0
C248 C 0.20283 0.98658 0.99195 0.0
C249 C 0.2139 0.96946 0.00501 0.0
C250 C 0.23048 0.90365 0.06276 0.0
C251 C 0.22196 0.91999 0.07889 0.0
C252 C 0.78886 0.08541 0.59601 0.0
C253 C 0.78589 0.1077 0.6047 0.0
C254 C 0.77105 0.12252 0.59228 0.0
C255 C 0.75994 0.11536 0.57124 0.0
H256 H 0.70727 0.1309 0.52148 0.0
H257 H 0.68177 0.15606 0.49906 0.0
H258 H 0.69285 0.11592 0.43488 0.0
H259 H 0.71771 0.09041 0.45734 0.0
H260 H 0.74674 0.04649 0.45916 0.0
H261 H 0.7664 0.01595 0.43775 0.0
H262 H 0.80533 0.00027 0.50186 0.0
H263 H 0.78552 0.03042 0.52343 0.0
H264 H 0.78107 0.06115 0.56862 0.0
H265 H 0.8004 0.07364 0.60493 0.0
H266 H 0.76824 0.13973 0.59867 0.0
H267 H 0.74903 0.12736 0.5618 0.0
N268 N 0.73843 0.09957 0.52683 0.0
N269 N 0.73901 0.0745 0.49392 0.0
N270 N 0.7619 0.06711 0.52765 0.0
C271 C 0.73078 0.0937 0.50453 0.0
C272 C 0.75452 0.06107 0.50538 0.0
C273 C 0.75397 0.08627 0.53854 0.0
C274 C 0.71462 0.10863 0.49125 0.0
C275 C 0.70419 0.12736 0.50262 0.0
C276 C 0.68966 0.14188 0.48971 0.0
C277 C 0.68533 0.13808 0.46512 0.0
C278 C 0.69553 0.11918 0.45386 0.0
C279 C 0.70993 0.1046 0.46677 0.0
C280 C 0.76468 0.0411 0.493 0.0
C281 C 0.75928 0.03637 0.46882 0.0
C282 C 0.77062 0.01893 0.45647 0.0
C283 C 0.78752 0.0058 0.46806 0.0
C284 C 0.79224 0.00993 0.49248 0.0
C285 C 0.78096 0.02736 0.50481 0.0
C286 C 0.76362 0.0933 0.5621 0.0
C287 C 0.77788 0.0783 0.57501 0.0
Sc288 Sc -0.00227 0.80207 0.30487 0.0
Sc289 Sc 0.99467 0.86209 0.31129 0.0
Sc290 Sc 0.99533 0.8272 0.36251 0.0
O291 O 0.99594 0.83041 0.32617 0.0
C292 C 0.96293 0.78638 0.34623 0.0
C293 C 0.96136 0.83356 0.27707 0.0
C294 C 0.95993 0.86805 0.35518 0.0
C295 C 0.03049 0.83669 0.27683 0.0
C296 C 0.03118 0.78828 0.34786 0.0
C297 C 0.02914 0.8694 0.35527 0.0
O298 O 0.97179 0.78408 0.32541 0.0
O299 O 0.96823 0.85204 0.28658 0.0
O300 O 0.96828 0.85161 0.36716 0.0
O301 O 0.02416 0.81656 0.28216 0.0
O302 O 0.02199 0.80207 0.36259 0.0
O303 O 0.02113 0.87509 0.3348 0.0
O304 O 0.02472 0.78653 0.32605 0.0
O305 O 0.02115 0.85434 0.28573 0.0
O306 O 0.02141 0.85265 0.3673 0.0
O307 O 0.97061 0.81431 0.28147 0.0
O308 O 0.96938 0.80146 0.36116 0.0
O309 O 0.96776 0.87397 0.33478 0.0
Sc310 Sc 0.99674 0.19002 0.8036 0.0
Sc311 Sc -0.00165 0.13002 0.81059 0.0
Sc312 Sc 0.0005 0.16526 0.86139 0.0
O313 O -0.0015 0.16181 0.82515 0.0
C314 C 0.03333 0.20504 0.84355 0.0
C315 C 0.03093 0.15758 0.7745 0.0
C316 C 0.03487 0.1237 0.8527 0.0
C317 C 0.96165 0.15595 0.77778 0.0
C318 C 0.96509 0.20492 0.8475 0.0
C319 C 0.96575 0.12374 0.85638 0.0
O320 O 0.02347 0.20777 0.82328 0.0
O321 O 0.02334 0.1393 0.78387 0.0
O322 O 0.02678 0.13988 0.86525 0.0
O323 O 0.96964 0.17582 0.78152 0.0
O324 O 0.97479 0.19138 0.86216 0.0
O325 O 0.9733 0.11743 0.83595 0.0
O326 O 0.97051 0.20601 0.82533 0.0
O327 O 0.97022 0.13814 0.7872 0.0
O328 O 0.97372 0.14086 0.8676 0.0
O329 O 0.02305 0.17719 0.77975 0.0
O330 O 0.02732 0.18995 0.85866 0.0
O331 O 0.0266 0.1182 0.83235 0.0
Sc332 Sc 0.49641 0.30346 0.30197 0.0
Sc333 Sc 0.49341 0.36355 0.30692 0.0
Sc334 Sc 0.49842 0.33015 0.35895 0.0
O335 O 0.49608 0.33234 0.32258 0.0
C336 C 0.46528 0.28836 0.34638 0.0
C337 C 0.459 0.33402 0.27485 0.0
C338 C 0.46072 0.36922 0.3525 0.0
C339 C 0.52827 0.3375 0.27197 0.0
C340 C 0.53359 0.29165 0.3425 0.0
C341 C 0.52963 0.37358 0.34857 0.0
O342 O 0.47129 0.28657 0.32442 0.0
O343 O 0.46633 0.35268 0.28347 0.0
O344 O 0.47047 0.3536 0.36466 0.0
O345 O 0.52173 0.31746 0.27753 0.0
O346 O 0.52637 0.30653 0.35724 0.0
O347 O 0.52012 0.37842 0.32864 0.0
O348 O 0.5243 0.28814 0.32209 0.0
O349 O 0.51938 0.35538 0.28094 0.0
O350 O 0.52363 0.35671 0.36141 0.0
O351 O 0.4683 0.3149 0.27951 0.0
O352 O 0.47384 0.30304 0.36059 0.0
O353 O 0.46718 0.37477 0.33145 0.0
Sc354 Sc 0.49775 0.69247 0.8036 0.0
Sc355 Sc 0.50045 0.63242 0.81043 0.0
Sc356 Sc 0.49873 0.66742 0.86142 0.0
O357 O 0.49896 0.66415 0.8251 0.0
C358 C 0.5313 0.70851 0.8457 0.0
C359 C 0.53405 0.66085 0.77621 0.0
C360 C 0.53522 0.62747 0.85449 0.0
C361 C 0.46471 0.65779 0.77589 0.0
C362 C 0.46269 0.70555 0.84552 0.0
C363 C 0.46606 0.6244 0.85429 0.0
O364 O 0.52348 0.71041 0.8244 0.0
O365 O 0.5268 0.64241 0.78551 0.0
O366 O 0.52645 0.64378 0.86637 0.0
O367 O 0.47168 0.67788 0.78048 0.0
O368 O 0.47109 0.69148 0.86051 0.0
O369 O 0.47419 0.61889 0.83385 0.0
O370 O 0.47051 0.70814 0.8243 0.0
O371 O 0.47362 0.64011 0.78524 0.0
O372 O 0.4734 0.64134 0.86622 0.0
O373 O 0.52511 0.68018 0.78073 0.0
O374 O 0.52396 0.69385 0.86064 0.0
O375 O 0.52755 0.6212 0.83412 0.0
C376 C 0.16892 0.32217 0.9541 0.0
C377 C 0.16779 0.34584 0.95043 0.0
C378 C 0.15507 0.30746 0.94078 0.0
C379 C 0.12199 0.30242 0.88478 0.0
H380 H 0.09081 0.25416 0.91945 0.0
C381 C 0.05235 0.24339 0.84268 0.0
C382 C 0.05182 0.22075 0.85091 0.0
C383 C 0.06772 0.25903 0.85282 0.0
C384 C 0.09965 0.26732 0.9094 0.0
H385 H 0.15118 0.3726 0.9298 0.0
H386 H 0.12706 0.34676 0.90633 0.0
H387 H 0.11478 0.28092 0.94136 0.0
H388 H 0.06814 0.19622 0.87461 0.0
H389 H 0.09525 0.22318 0.89169 0.0
H390 H 0.10687 0.28861 0.85274 0.0
C391 C 0.13883 0.33967 0.91945 0.0
C392 C 0.11332 0.2827 0.922 0.0
C393 C 0.15263 0.35444 0.9329 0.0
C394 C 0.06789 0.21367 0.86822 0.0
C395 C 0.08333 0.22916 0.87811 0.0
C396 C 0.10834 0.28689 0.8721 0.0
C397 C 0.13983 0.31605 0.92339 0.0
C398 C 0.12478 0.30029 0.90983 0.0
C399 C 0.08289 0.25218 0.87118 0.0
C400 C 0.09721 0.26903 0.88428 0.0
H401 H 0.18077 0.31493 0.96704 0.0
H402 H 0.15647 0.28929 0.94392 0.0
H403 H 0.13075 0.31576 0.87494 0.0
H404 H 0.04011 0.24931 0.82938 0.0
H405 H 0.06693 0.27666 0.84712 0.0
C406 C 0.82558 0.64957 0.43075 0.0
C407 C 0.832 0.64207 0.45382 0.0
C408 C 0.83992 0.66397 0.41758 0.0
C409 C 0.88708 0.70507 0.42614 0.0
H410 H 0.89181 0.7014 0.35658 0.0
C411 C 0.93011 0.77641 0.37294 0.0
C412 C 0.94524 0.77012 0.35441 0.0
C413 C 0.91542 0.7604 0.38321 0.0
C414 C 0.89081 0.70254 0.37601 0.0
H415 H 0.85878 0.64305 0.48086 0.0
H416 H 0.88411 0.66788 0.4577 0.0
H417 H 0.86945 0.67295 0.37844 0.0
H418 H 0.95613 0.74238 0.33132 0.0
H419 H 0.93073 0.71413 0.34968 0.0
H420 H 0.90891 0.73416 0.42391 0.0
C421 C 0.86774 0.66309 0.44999 0.0
C422 C 0.8778 0.68638 0.38853 0.0
C423 C 0.85329 0.64883 0.46325 0.0
C424 C 0.94459 0.74771 0.34554 0.0
C425 C 0.93002 0.73156 0.35605 0.0
C426 C 0.90015 0.72109 0.41368 0.0
C427 C 0.86109 0.67108 0.42712 0.0
C428 C 0.87567 0.68756 0.41374 0.0
C429 C 0.91572 0.73762 0.37544 0.0
C430 C 0.902 0.72018 0.38845 0.0
H431 H 0.80911 0.64486 0.42316 0.0
H432 H 0.83407 0.67008 0.40022 0.0
H433 H 0.8856 0.70671 0.44549 0.0
H434 H 0.92997 0.79366 0.3799 0.0
H435 H 0.90414 0.76582 0.39761 0.0
C436 C 0.82802 0.34647 0.92613 0.0
C437 C 0.82801 0.34636 0.95146 0.0
C438 C 0.8428 0.33219 0.91328 0.0
C439 C 0.896 0.29833 0.92032 0.0
H440 H 0.87412 0.26616 0.86377 0.0
C441 C 0.94337 0.22127 0.8822 0.0
C442 C 0.94769 0.22085 0.85728 0.0
C443 C 0.92849 0.2373 0.89206 0.0
C444 C 0.8805 0.27525 0.87936 0.0
H445 H 0.84373 0.33131 0.98312 0.0
H446 H 0.86895 0.30596 0.96078 0.0
H447 H 0.84878 0.29308 0.88438 0.0
H448 H 0.93895 0.23656 0.82308 0.0
H449 H 0.91257 0.26461 0.8405 0.0
H450 H 0.92747 0.28009 0.91567 0.0
C451 C 0.8578 0.31733 0.9508 0.0
C452 C 0.86605 0.29068 0.89115 0.0
C453 C 0.84311 0.33165 0.96363 0.0
C454 C 0.93608 0.23645 0.84235 0.0
C455 C 0.92095 0.25246 0.85227 0.0
C456 C 0.91033 0.28284 0.90867 0.0
C457 C 0.85787 0.31747 0.92548 0.0
C458 C 0.87354 0.30213 0.91198 0.0
C459 C 0.9174 0.25326 0.87728 0.0
C460 C 0.90261 0.2709 0.88832 0.0
H461 H 0.8164 0.3574 0.9162 0.0
H462 H 0.84254 0.33285 0.8938 0.0
H463 H 0.90251 0.30727 0.93595 0.0
H464 H 0.95185 0.20948 0.89431 0.0
H465 H 0.92573 0.23729 0.91135 0.0
C466 C 0.15363 0.66238 0.46426 0.0
C467 C 0.16832 0.64712 0.45232 0.0
C468 C 0.13908 0.6767 0.45124 0.0
C469 C 0.13038 0.70205 0.3909 0.0
H470 H 0.06979 0.71479 0.41647 0.0
C471 C 0.05974 0.75634 0.34249 0.0
C472 C 0.04907 0.77266 0.35731 0.0
C473 C 0.07502 0.7404 0.35233 0.0
C474 C 0.0867 0.71142 0.40916 0.0
H475 H 0.17932 0.63512 0.4172 0.0
H476 H 0.15334 0.65964 0.39448 0.0
H477 H 0.09448 0.68749 0.43695 0.0
H478 H 0.04694 0.78552 0.39398 0.0
H479 H 0.07326 0.75779 0.41088 0.0
H480 H 0.12228 0.72605 0.36295 0.0
C481 C 0.15334 0.66074 0.41394 0.0
C482 C 0.10089 0.69587 0.42093 0.0
C483 C 0.16802 0.64648 0.42699 0.0
C484 C 0.05463 0.77314 0.38197 0.0
C485 C 0.06964 0.75717 0.39175 0.0
C486 C 0.11604 0.71752 0.37897 0.0
C487 C 0.13868 0.67601 0.42593 0.0
C488 C 0.12308 0.69132 0.41225 0.0
C489 C 0.07965 0.7404 0.37716 0.0
C490 C 0.09426 0.72266 0.3883 0.0
H491 H 0.15322 0.66316 0.48374 0.0
H492 H 0.12828 0.6885 0.46107 0.0
H493 H 0.14744 0.69907 0.38382 0.0
H494 H 0.05591 0.75554 0.32342 0.0
H495 H 0.08259 0.72762 0.34071 0.0
C496 C 0.65244 0.85679 0.93589 0.0
C497 C 0.66676 0.8479 0.95403 0.0
C498 C 0.63813 0.8424 0.92257 0.0
C499 C 0.6092 0.78725 0.92622 0.0
H500 H 0.60616 0.7903 0.85651 0.0
C501 C 0.56365 0.7177 0.87324 0.0
C502 C 0.54921 0.72434 0.85423 0.0
C503 C 0.57879 0.73319 0.88357 0.0
C504 C 0.60663 0.78943 0.87598 0.0
H505 H 0.67766 0.8168 0.97189 0.0
H506 H 0.65238 0.79189 0.94906 0.0
H507 H 0.63052 0.81714 0.87857 0.0
H508 H 0.54004 0.75212 0.83037 0.0
H509 H 0.56633 0.77957 0.84888 0.0
H510 H 0.58521 0.7599 0.92393 0.0
C511 C 0.65209 0.81001 0.94531 0.0
C512 C 0.62057 0.80476 0.88858 0.0
C513 C 0.66649 0.82431 0.95847 0.0
C514 C 0.55101 0.74656 0.84499 0.0
C515 C 0.56607 0.76223 0.85558 0.0
C516 C 0.5952 0.7721 0.91371 0.0
C517 C 0.63774 0.8189 0.92729 0.0
C518 C 0.62219 0.80357 0.9138 0.0
C519 C 0.57969 0.75584 0.8754 0.0
C520 C 0.59401 0.77274 0.88843 0.0
H521 H 0.65202 0.8749 0.93219 0.0
H522 H 0.62706 0.8497 0.90892 0.0
H523 H 0.60978 0.78626 0.94569 0.0
H524 H 0.56294 0.70055 0.88046 0.0
H525 H 0.58954 0.7275 0.89832 0.0
C526 C 0.32655 0.14865 0.42552 0.0
C527 C 0.32633 0.14924 0.45086 0.0
C528 C 0.34068 0.16341 0.41247 0.0
C529 C 0.36934 0.21859 0.41741 0.0
H530 H 0.4086 0.19707 0.3658 0.0
C531 C 0.44295 0.27283 0.38107 0.0
C532 C 0.44785 0.27255 0.35629 0.0
C533 C 0.42691 0.2579 0.39085 0.0
C534 C 0.39744 0.20342 0.37988 0.0
H535 H 0.34143 0.16531 0.48229 0.0
H536 H 0.36568 0.19132 0.45948 0.0
H537 H 0.38299 0.17036 0.38631 0.0
H538 H 0.43951 0.2563 0.3223 0.0
H539 H 0.41108 0.2303 0.33945 0.0
H540 H 0.38356 0.25158 0.41109 0.0
C541 C 0.35473 0.17958 0.44977 0.0
C542 C 0.38286 0.18811 0.39166 0.0
C543 C 0.34079 0.16471 0.46281 0.0
C544 C 0.43619 0.25694 0.34147 0.0
C545 C 0.41998 0.24198 0.3513 0.0
C546 C 0.38372 0.23388 0.40555 0.0
C547 C 0.35468 0.17919 0.42449 0.0
C548 C 0.36902 0.1955 0.41084 0.0
C549 C 0.41516 0.24234 0.37612 0.0
C550 C 0.3983 0.2264 0.38699 0.0
H551 H 0.3154 0.13718 0.41572 0.0
H552 H 0.34021 0.16289 0.39298 0.0
H553 H 0.35848 0.22482 0.43182 0.0
H554 H 0.45168 0.28446 0.39313 0.0
H555 H 0.42401 0.25832 0.4101 0.0
C556 C 0.34611 0.83697 0.96208 0.0
C557 C 0.32465 0.84349 0.95286 0.0
C558 C 0.3603 0.82229 0.94905 0.0
C559 C 0.36965 0.79829 0.88792 0.0
H560 H 0.4043 0.753 0.92345 0.0
C561 C 0.4407 0.74228 0.84475 0.0
C562 C 0.4437 0.72018 0.85394 0.0
C563 C 0.42474 0.75708 0.85526 0.0
C564 C 0.39452 0.76532 0.91316 0.0
H565 H 0.30107 0.83966 0.92295 0.0
H566 H 0.32558 0.81357 0.90041 0.0
H567 H 0.37947 0.77911 0.94501 0.0
H568 H 0.43124 0.69561 0.88001 0.0
H569 H 0.40292 0.72101 0.89768 0.0
H570 H 0.38424 0.7839 0.85597 0.0
C571 C 0.33174 0.82022 0.91741 0.0
C572 C 0.38056 0.78059 0.92561 0.0
C573 C 0.31766 0.83508 0.93035 0.0
C574 C 0.42955 0.7127 0.87281 0.0
C575 C 0.41343 0.72732 0.88305 0.0
C576 C 0.38352 0.78285 0.87542 0.0
C577 C 0.35322 0.81359 0.92663 0.0
C578 C 0.36801 0.79733 0.91319 0.0
C579 C 0.41132 0.74992 0.87494 0.0
C580 C 0.39613 0.76617 0.88791 0.0
H581 H 0.35205 0.84347 0.97924 0.0
H582 H 0.37691 0.81791 0.95649 0.0
H583 H 0.36041 0.81113 0.8778 0.0
H584 H 0.45144 0.74851 0.83026 0.0
H585 H 0.42366 0.77441 0.84864 0.0
C586 C 0.65549 0.14579 0.43339 0.0
C587 C 0.67064 0.15401 0.45111 0.0
C588 C 0.64199 0.16085 0.41997 0.0
C589 C 0.61677 0.2179 0.42246 0.0
H590 H 0.61081 0.21182 0.35318 0.0
C591 C 0.56798 0.2849 0.36821 0.0
C592 C 0.55276 0.277 0.35047 0.0
C593 C 0.58414 0.27028 0.37843 0.0
C594 C 0.61212 0.21361 0.37254 0.0
H595 H 0.68375 0.18459 0.46823 0.0
H596 H 0.65987 0.21077 0.44514 0.0
H597 H 0.63501 0.18511 0.37556 0.0
H598 H 0.54324 0.24788 0.32865 0.0
H599 H 0.57117 0.22206 0.34696 0.0
H600 H 0.5936 0.24595 0.41976 0.0
C601 C 0.65835 0.19265 0.44179 0.0
C602 C 0.62599 0.19834 0.38533 0.0
C603 C 0.67195 0.17763 0.45508 0.0
C604 C 0.55481 0.25445 0.34225 0.0
C605 C 0.57084 0.23968 0.35273 0.0
C606 C 0.60282 0.23302 0.40976 0.0
C607 C 0.64323 0.18442 0.42411 0.0
C608 C 0.6285 0.20042 0.4104 0.0
C609 C 0.58526 0.2473 0.37141 0.0
C610 C 0.60041 0.23117 0.38462 0.0
H611 H 0.65381 0.12768 0.43009 0.0
H612 H 0.63026 0.15403 0.40666 0.0
H613 H 0.61806 0.21966 0.44183 0.0
H614 H 0.56704 0.30231 0.37464 0.0
H615 H 0.59542 0.2769 0.39226 0.0
C616 C 0.31623 0.49697 0.93109 0.0
C617 C 0.30827 0.50257 0.95423 0.0
C618 C 0.3318 0.51114 0.9192 0.0
C619 C 0.37604 0.55386 0.9323 0.0
H620 H 0.37358 0.56576 0.86364 0.0
C621 C 0.43734 0.61713 0.88689 0.0
C622 C 0.44713 0.61075 0.86474 0.0
C623 C 0.41962 0.60438 0.89701 0.0
C624 C 0.3746 0.56238 0.88279 0.0
H625 H 0.30945 0.52797 0.98254 0.0
H626 H 0.33658 0.55277 0.96175 0.0
H627 H 0.34326 0.54329 0.88265 0.0
H628 H 0.44565 0.586 0.83574 0.0
H629 H 0.41478 0.56354 0.85365 0.0
H630 H 0.4074 0.57272 0.9325 0.0
C631 C 0.33112 0.5372 0.953 0.0
C632 C 0.35724 0.54957 0.89367 0.0
C633 C 0.31557 0.52303 0.96488 0.0
C634 C 0.43855 0.59139 0.85284 0.0
C635 C 0.42076 0.5786 0.86301 0.0
C636 C 0.39337 0.56662 0.92145 0.0
C637 C 0.33973 0.5312 0.93022 0.0
C638 C 0.35776 0.54521 0.91856 0.0
C639 C 0.41122 0.5849 0.88529 0.0
C640 C 0.39283 0.57108 0.89659 0.0
H641 H 0.31115 0.48118 0.92253 0.0
H642 H 0.3383 0.50592 0.90178 0.0
H643 H 0.37722 0.55038 0.95142 0.0
H644 H 0.44333 0.63203 0.89652 0.0
H645 H 0.41237 0.6099 0.91399 0.0
C646 C 0.66123 0.51188 0.43787 0.0
C647 C 0.67952 0.502 0.45053 0.0
C648 C 0.64656 0.49836 0.42412 0.0
C649 C 0.6398 0.43997 0.3983 0.0
H650 H 0.57537 0.45674 0.39855 0.0
C651 C 0.56471 0.37963 0.37369 0.0
C652 C 0.5484 0.38826 0.35739 0.0
C653 C 0.58207 0.39364 0.38265 0.0
C654 C 0.59335 0.45201 0.39814 0.0
H655 H 0.69722 0.47055 0.45874 0.0
H656 H 0.67096 0.44656 0.43563 0.0
H657 H 0.60306 0.4808 0.41917 0.0
H658 H 0.53761 0.41824 0.3375 0.0
H659 H 0.56768 0.44294 0.35379 0.0
H660 H 0.62954 0.41046 0.37821 0.0
C661 C 0.66824 0.46481 0.4356 0.0
C662 C 0.6093 0.46584 0.40983 0.0
C663 C 0.68321 0.47845 0.44898 0.0
C664 C 0.54996 0.41112 0.35001 0.0
C665 C 0.56707 0.42525 0.35935 0.0
C666 C 0.62374 0.42591 0.38697 0.0
C667 C 0.64956 0.47458 0.42318 0.0
C668 C 0.63276 0.46003 0.4101 0.0
C669 C 0.58318 0.41663 0.37582 0.0
C670 C 0.6004 0.43184 0.38683 0.0
H671 H 0.6583 0.5301 0.43866 0.0
H672 H 0.6328 0.50661 0.41433 0.0
H673 H 0.65773 0.43512 0.39773 0.0
H674 H 0.56404 0.36203 0.37955 0.0
H675 H 0.59424 0.38669 0.39546 0.0
C676 C 0.69094 0.53195 0.96386 0.0
C677 C 0.69734 0.51115 0.95328 0.0
C678 C 0.67586 0.54667 0.952 0.0
C679 C 0.64872 0.5592 0.89307 0.0
H680 H 0.59899 0.58211 0.93268 0.0
C681 C 0.5649 0.59639 0.8533 0.0
C682 C 0.55531 0.61547 0.86487 0.0
C683 C 0.58371 0.58505 0.86336 0.0
C684 C 0.61292 0.57615 0.9214 0.0
H685 H 0.69352 0.48983 0.92163 0.0
H686 H 0.66723 0.51552 0.90096 0.0
H687 H 0.63002 0.56064 0.95125 0.0
H688 H 0.5584 0.63786 0.89585 0.0
H689 H 0.59122 0.61822 0.91316 0.0
H690 H 0.63135 0.57451 0.86314 0.0
C691 C 0.67407 0.52058 0.91828 0.0
C692 C 0.63074 0.56387 0.93206 0.0
C693 C 0.68915 0.50587 0.93013 0.0
C694 C 0.56517 0.6231 0.88653 0.0
C695 C 0.58396 0.6118 0.89653 0.0
C696 C 0.63087 0.57153 0.88238 0.0
C697 C 0.66684 0.54089 0.92933 0.0
C698 C 0.64877 0.55514 0.91801 0.0
C699 C 0.59335 0.59255 0.88517 0.0
C700 C 0.61271 0.58002 0.89643 0.0
H701 H 0.69726 0.53665 0.98152 0.0
H702 H 0.67093 0.56241 0.96078 0.0
H703 H 0.6625 0.55288 0.88181 0.0
H704 H 0.55776 0.59005 0.83659 0.0
H705 H 0.5904 0.57011 0.8543 0.0
C706 C 0.30432 0.48798 0.43086 0.0
C707 C 0.29896 0.48323 0.45503 0.0
C708 C 0.31946 0.47403 0.41814 0.0
C709 C 0.34887 0.41797 0.41882 0.0
H710 H 0.39544 0.45034 0.38248 0.0
C711 C 0.4329 0.3756 0.38635 0.0
C712 C 0.44086 0.38132 0.36321 0.0
C713 C 0.41418 0.38705 0.39641 0.0
C714 C 0.38238 0.44101 0.39226 0.0
H715 H 0.30428 0.45935 0.48433 0.0
H716 H 0.33113 0.43526 0.46227 0.0
H717 H 0.36456 0.47156 0.40161 0.0
H718 H 0.43507 0.40341 0.3324 0.0
H719 H 0.40243 0.42325 0.34995 0.0
H720 H 0.36704 0.38741 0.40972 0.0
C721 C 0.3235 0.44969 0.45311 0.0
C722 C 0.36465 0.45316 0.4032 0.0
C723 C 0.3083 0.46363 0.46583 0.0
C724 C 0.42953 0.39864 0.35032 0.0
C725 C 0.41085 0.41008 0.3604 0.0
C726 C 0.36667 0.40579 0.40788 0.0
C727 C 0.32966 0.45505 0.4293 0.0
C728 C 0.34775 0.44181 0.4167 0.0
C729 C 0.40303 0.40448 0.38358 0.0
C730 C 0.38368 0.4172 0.39459 0.0
H731 H 0.29761 0.50304 0.42204 0.0
H732 H 0.32359 0.47841 0.3997 0.0
H733 H 0.33597 0.40871 0.42888 0.0
H734 H 0.44117 0.36235 0.3968 0.0
H735 H 0.40873 0.38254 0.41443 0.0
C736 C 0.81471 0.02521 0.96972 0.0
C737 C 0.80713 0.00501 0.95874 0.0
C738 C 0.83012 0.03957 0.95788 0.0
C739 C 0.85535 0.05282 0.89831 0.0
H740 H 0.90665 0.0745 0.93645 0.0
C741 C 0.93712 0.09173 0.85603 0.0
C742 C 0.94669 0.11082 0.86758 0.0
C743 C 0.91909 0.07969 0.86668 0.0
C744 C 0.89229 0.06884 0.92561 0.0
H745 H 0.8094 0.98427 0.9265 0.0
H746 H 0.83628 0.00932 0.90584 0.0
H747 H 0.87627 0.05265 0.95569 0.0
H748 H 0.94453 0.13232 0.89935 0.0
H749 H 0.91309 0.11144 0.91773 0.0
H750 H 0.87158 0.06887 0.86815 0.0
C751 C 0.8301 0.01422 0.92348 0.0
C752 C 0.87486 0.05635 0.93664 0.0
C753 C 0.81468 -0.00013 0.93532 0.0
C754 C 0.93772 0.11763 0.88996 0.0
C755 C 0.91973 0.1056 0.90059 0.0
C756 C 0.87282 0.06534 0.88725 0.0
C757 C 0.8383 0.03401 0.9348 0.0
C758 C 0.85623 0.04813 0.92312 0.0
C759 C 0.91027 0.08646 0.88912 0.0
C760 C 0.89151 0.07342 0.90078 0.0
H761 H 0.80892 0.0298 0.98761 0.0
H762 H 0.83582 0.05492 0.96689 0.0
H763 H 0.84109 0.04692 0.88746 0.0
H764 H 0.94358 0.086 0.83877 0.0
H765 H 0.91232 0.06485 0.85753 0.0
C766 C 0.18371 0.96791 0.46283 0.0
C767 C 0.19028 0.9887 0.45235 0.0
C768 C 0.16818 0.95359 0.45112 0.0
C769 C 0.14028 0.94173 0.39255 0.0
H770 H 0.09112 0.91856 0.43273 0.0
C771 C 0.05726 0.90186 0.35366 0.0
C772 C 0.04852 0.88255 0.36554 0.0
C773 C 0.07558 0.91411 0.36352 0.0
C774 C 0.10487 0.92463 0.42129 0.0
H775 H 0.18628 0.01043 0.42102 0.0
H776 H 0.1592 0.9854 0.40056 0.0
H777 H 0.1221 0.94033 0.45092 0.0
H778 H 0.05252 0.86082 0.39696 0.0
H779 H 0.08444 0.882 0.41389 0.0
H780 H 0.12285 0.92611 0.36287 0.0
C781 C 0.16623 0.98007 0.41772 0.0
C782 C 0.12266 0.93708 0.43173 0.0
C783 C 0.18177 0.99439 0.42944 0.0
C784 C 0.05864 0.8757 0.38737 0.0
C785 C 0.07692 0.8879 0.39717 0.0
C786 C 0.12247 0.92922 0.38209 0.0
C787 C 0.15888 0.95976 0.42868 0.0
C788 C 0.14055 0.94579 0.41749 0.0
C789 C 0.08553 0.9073 0.38544 0.0
C790 C 0.10456 0.92055 0.39637 0.0
H791 H 0.19028 0.96289 0.4803 0.0
H792 H 0.16318 0.93783 0.45981 0.0
H793 H 0.15394 0.94808 0.38115 0.0
H794 H 0.0499 0.90762 0.33681 0.0
H795 H 0.08168 0.92913 0.35418 0.0
C796 C 0.18692 0.02776 0.96333 0.0
C797 C 0.19583 0.00761 0.95335 0.0
C798 C 0.17205 0.04156 0.95002 0.0
C799 C 0.13067 0.03766 0.9004 0.0
H800 H 0.13086 0.10362 0.90427 0.0
C801 C 0.06482 0.09303 0.84902 0.0
C802 C 0.05492 0.11099 0.86219 0.0
C803 C 0.08373 0.08116 0.85816 0.0
C804 C 0.13052 0.0852 0.90313 0.0
H805 H 0.19658 0.9865 0.92128 0.0
H806 H 0.17102 0.01081 0.89792 0.0
H807 H 0.16148 0.08189 0.92365 0.0
H808 H 0.05736 0.13061 0.89527 0.0
H809 H 0.09001 0.10974 0.91122 0.0
H810 H 0.09951 0.04089 0.88032 0.0
C811 C 0.17533 0.01579 0.91615 0.0
C812 C 0.14806 0.07277 0.91421 0.0
C813 C 0.19021 0.00201 0.92945 0.0
C814 C 0.0645 0.11688 0.8846 0.0
C815 C 0.08337 0.10504 0.89369 0.0
C816 C 0.11314 0.05007 0.88934 0.0
C817 C 0.16574 0.03548 0.92644 0.0
C818 C 0.14816 0.04885 0.91321 0.0
C819 C 0.09317 0.08701 0.88062 0.0
C820 C 0.1127 0.07396 0.89085 0.0
H821 H 0.19113 0.03265 0.98161 0.0
H822 H 0.16482 0.05654 0.95852 0.0
H823 H 0.13006 0.01922 0.89962 0.0
H824 H 0.05799 0.08811 0.83165 0.0
H825 H 0.09106 0.06748 0.84756 0.0
C826 C 0.8098 0.99429 0.43143 0.0
C827 C 0.80131 0.98891 0.45443 0.0
C828 C 0.82478 0.97947 0.4196 0.0
C829 C 0.86709 0.935 0.43301 0.0
H830 H 0.86581 0.92458 0.36408 0.0
C831 C 0.9302 0.87347 0.38724 0.0
C832 C 0.94025 0.88071 0.36552 0.0
C833 C 0.91189 0.88548 0.39729 0.0
C834 C 0.86649 0.92749 0.38332 0.0
H835 H 0.80087 0.96319 0.48247 0.0
H836 H 0.82702 0.93726 0.46178 0.0
H837 H 0.8355 0.94718 0.38292 0.0
H838 H 0.93861 0.90616 0.33718 0.0
H839 H 0.90682 0.92731 0.35498 0.0
H840 H 0.89819 0.91569 0.43347 0.0
C841 C 0.8224 0.95315 0.4531 0.0
C842 C 0.84911 0.94038 0.3941 0.0
C843 C 0.80742 0.96797 0.46494 0.0
C844 C 0.93131 0.9001 0.35393 0.0
C845 C 0.91298 0.91215 0.36405 0.0
C846 C 0.88443 0.92216 0.42226 0.0
C847 C 0.8316 0.95895 0.43052 0.0
C848 C 0.84929 0.94434 0.41906 0.0
C849 C 0.90319 0.90506 0.38593 0.0
C850 C 0.88439 0.91832 0.39728 0.0
H851 H 0.80566 0.01043 0.42299 0.0
H852 H 0.83177 0.98455 0.40234 0.0
H853 H 0.86797 0.93812 0.45221 0.0
H854 H 0.93647 0.85849 0.39657 0.0
H855 H 0.90449 0.87935 0.41397 0.0
C856 C 0.30369 0.38654 0.14373 0.0
C857 C 0.2982 0.37273 0.1239 0.0
C858 C 0.31789 0.37837 0.16205 0.0
C859 C 0.36386 0.33661 0.17189 0.0
H860 H 0.35731 0.35568 0.23837 0.0
C861 C 0.43178 0.31589 0.24528 0.0
C862 C 0.43847 0.33484 0.25911 0.0
C863 C 0.41251 0.31714 0.23023 0.0
C864 C 0.35935 0.3502 0.21987 0.0
H865 H 0.30262 0.33916 0.10822 0.0
H866 H 0.3271 0.32473 0.1405 0.0
H867 H 0.32657 0.36357 0.20971 0.0
H868 H 0.42979 0.36979 0.2683 0.0
H869 H 0.39646 0.37189 0.24218 0.0
H870 H 0.3969 0.3237 0.182 0.0
C871 C 0.32064 0.34201 0.14169 0.0
C872 C 0.34177 0.35475 0.20345 0.0
C873 C 0.30641 0.35019 0.12333 0.0
C874 C 0.42526 0.35488 0.25784 0.0
C875 C 0.40597 0.35604 0.24303 0.0
C876 C 0.38142 0.33198 0.18836 0.0
C877 C 0.32692 0.35616 0.16101 0.0
C878 C 0.34408 0.34855 0.17913 0.0
C879 C 0.39944 0.33726 0.22897 0.0
C880 C 0.3796 0.33928 0.21236 0.0
H881 H 0.29741 0.40389 0.14483 0.0
H882 H 0.32254 0.38983 0.17653 0.0
H883 H 0.36633 0.33181 0.15325 0.0
H884 H 0.44155 0.30019 0.24586 0.0
H885 H 0.4078 0.30238 0.21963 0.0
C886 C 0.6914 0.60974 0.64642 0.0
C887 C 0.69672 0.62362 0.62657 0.0
C888 C 0.6769 0.61764 0.66459 0.0
C889 C 0.6299 0.65847 0.67356 0.0
H890 H 0.6353 0.63884 0.74 0.0
C891 C 0.56102 0.67856 0.74614 0.0
C892 C 0.55424 0.65965 0.76002 0.0
C893 C 0.58026 0.67721 0.7311 0.0
C894 C 0.63357 0.64444 0.7215 0.0
H895 H 0.6919 0.65711 0.61084 0.0
H896 H 0.66693 0.67112 0.64291 0.0
H897 H 0.66681 0.63177 0.71206 0.0
H898 H 0.56262 0.6246 0.7691 0.0
H899 H 0.59597 0.62235 0.74297 0.0
H900 H 0.59646 0.67078 0.68299 0.0
C901 C 0.67369 0.65397 0.64418 0.0
C902 C 0.65159 0.64038 0.70549 0.0
C903 C 0.68821 0.64604 0.62596 0.0
C904 C 0.56724 0.63948 0.75863 0.0
C905 C 0.58652 0.63823 0.74381 0.0
C906 C 0.61192 0.66265 0.68963 0.0
C907 C 0.66742 0.63966 0.66341 0.0
C908 C 0.64974 0.64681 0.68118 0.0
C909 C 0.59324 0.65705 0.72987 0.0
C910 C 0.61334 0.65515 0.7136 0.0
H911 H 0.69793 0.59248 0.64756 0.0
H912 H 0.67232 0.60606 0.67899 0.0
H913 H 0.62775 0.66341 0.65491 0.0
H914 H 0.55142 0.69436 0.74679 0.0
H915 H 0.5851 0.692 0.72059 0.0
C916 C 0.67994 0.35754 0.11917 0.0
C917 C 0.69011 0.37928 0.11996 0.0
C918 C 0.66403 0.35098 0.13673 0.0
C919 C 0.62176 0.37698 0.17627 0.0
H920 H 0.61917 0.31848 0.20867 0.0
C921 C 0.55863 0.36166 0.25318 0.0
C922 C 0.5475 0.34047 0.2548 0.0
C923 C 0.57666 0.36492 0.2371 0.0
C924 C 0.6195 0.33477 0.19951 0.0
H925 H 0.69293 0.4104 0.14081 0.0
H926 H 0.66499 0.39906 0.17118 0.0
H927 H 0.65047 0.32649 0.18043 0.0
H928 H 0.54687 0.30594 0.2409 0.0
H929 H 0.57816 0.31184 0.21218 0.0
H930 H 0.59073 0.38526 0.19466 0.0
C931 C 0.66905 0.38727 0.15678 0.0
C932 C 0.63746 0.33937 0.18346 0.0
C933 C 0.68501 0.39376 0.13938 0.0
C934 C 0.55506 0.32248 0.24007 0.0
C935 C 0.57307 0.32583 0.22372 0.0
C936 C 0.60378 0.37234 0.19204 0.0
C937 C 0.65794 0.36609 0.15527 0.0
C938 C 0.63889 0.36065 0.17197 0.0
C939 C 0.58394 0.34718 0.22193 0.0
C940 C 0.60257 0.35133 0.20416 0.0
H941 H 0.68337 0.34605 0.10435 0.0
H942 H 0.65565 0.33458 0.13511 0.0
H943 H 0.62214 0.39333 0.16721 0.0
H944 H 0.55355 0.37581 0.26452 0.0
H945 H 0.58499 0.38141 0.23668 0.0
C946 C 0.30822 0.59998 0.64293 0.0
C947 C 0.3038 0.61432 0.62319 0.0
C948 C 0.32378 0.60647 0.66074 0.0
C949 C 0.35549 0.65459 0.68725 0.0
H950 H 0.40086 0.60811 0.70151 0.0
C951 C 0.4378 0.67204 0.7437 0.0
C952 C 0.4451 0.65455 0.75924 0.0
C953 C 0.41964 0.66838 0.72762 0.0
C954 C 0.38817 0.6212 0.69806 0.0
H955 H 0.31139 0.64726 0.60735 0.0
H956 H 0.33846 0.65872 0.63873 0.0
H957 H 0.3699 0.59976 0.67361 0.0
H958 H 0.43835 0.61982 0.77077 0.0
H959 H 0.4066 0.61369 0.74336 0.0
H960 H 0.37377 0.67599 0.71197 0.0
C961 C 0.32982 0.64245 0.64034 0.0
C962 C 0.37043 0.6164 0.68202 0.0
C963 C 0.31429 0.63589 0.62241 0.0
C964 C 0.43347 0.63357 0.75878 0.0
C965 C 0.41527 0.63 0.74295 0.0
C966 C 0.37322 0.65937 0.70354 0.0
C967 C 0.3352 0.6275 0.6593 0.0
C968 C 0.35382 0.63296 0.67654 0.0
C969 C 0.40832 0.6472 0.72691 0.0
C970 C 0.38969 0.64265 0.70924 0.0
H971 H 0.30003 0.58346 0.64433 0.0
H972 H 0.32726 0.59481 0.67543 0.0
H973 H 0.34288 0.66765 0.68336 0.0
H974 H 0.44639 0.68841 0.74362 0.0
H975 H 0.41483 0.68194 0.71539 0.0
C976 C 0.80919 0.85012 0.12472 0.0
C977 C 0.80035 0.8724 0.12583 0.0
C978 C 0.82374 0.84197 0.14282 0.0
C979 C 0.84468 0.85411 0.20481 0.0
H980 H 0.90048 0.8247 0.18269 0.0
C981 C 0.92797 0.85463 0.25957 0.0
C982 C 0.94128 0.83465 0.2607 0.0
C983 C 0.90889 0.85591 0.24447 0.0
C984 C 0.88483 0.83253 0.18921 0.0
H985 H 0.79876 0.90309 0.14747 0.0
H986 H 0.82442 0.88913 0.17872 0.0
H987 H 0.86969 0.83266 0.15411 0.0
H988 H 0.94486 0.80029 0.24677 0.0
H989 H 0.9115 0.80269 0.22004 0.0
H990 H 0.86024 0.85475 0.23972 0.0
C991 C 0.82004 0.87783 0.16401 0.0
C992 C 0.86715 0.83707 0.17286 0.0
C993 C 0.80553 0.88596 0.14594 0.0
C994 C 0.93499 0.81594 0.24632 0.0
C995 C 0.91595 0.81731 0.23098 0.0
C996 C 0.86239 0.84968 0.2211 0.0
C997 C 0.82969 0.85591 0.16244 0.0
C998 C 0.8471 0.84841 0.18036 0.0
C999 C 0.90268 0.83731 0.22999 0.0
C1000 C 0.88286 0.83935 0.21336 0.0
H1001 H 0.80564 0.83929 0.10938 0.0
H1002 H 0.83067 0.8249 0.14123 0.0
H1003 H 0.82928 0.86245 0.21127 0.0
H1004 H 0.93219 0.86937 0.27043 0.0
H1005 H 0.89922 0.87167 0.24382 0.0
C1006 C 0.1822 0.14159 0.62092 0.0
C1007 C 0.19069 0.11916 0.62099 0.0
C1008 C 0.16757 0.1491 0.63923 0.0
C1009 C 0.14576 0.13433 0.70025 0.0
H1010 H 0.09115 0.16663 0.67934 0.0
C1011 C 0.06248 0.13516 0.75518 0.0
C1012 C 0.05041 0.15582 0.75744 0.0
C1013 C 0.08127 0.13344 0.73974 0.0
C1014 C 0.10647 0.15793 0.68552 0.0
H1015 H 0.19154 0.08745 0.64103 0.0
H1016 H 0.16567 0.10029 0.67258 0.0
H1017 H 0.12182 0.15898 0.65057 0.0
H1018 H 0.04863 0.19086 0.74503 0.0
H1019 H 0.08143 0.18768 0.71772 0.0
H1020 H 0.12995 0.13257 0.73499 0.0
C1021 C 0.17041 0.11221 0.65854 0.0
C1022 C 0.12409 0.15359 0.66907 0.0
C1023 C 0.18503 0.10473 0.64029 0.0
C1024 C 0.05753 0.1747 0.74372 0.0
C1025 C 0.07626 0.17288 0.72804 0.0
C1026 C 0.12809 0.13854 0.71663 0.0
C1027 C 0.16115 0.13434 0.65801 0.0
C1028 C 0.14373 0.14131 0.67613 0.0
C1029 C 0.08838 0.15226 0.72603 0.0
C1030 C 0.10807 0.14997 0.70931 0.0
H1031 H 0.18612 0.15309 0.60622 0.0
H1032 H 0.16097 0.16635 0.63845 0.0
H1033 H 0.16085 0.12524 0.7064 0.0
H1034 H 0.05758 0.12028 0.7655 0.0
H1035 H 0.09006 0.11722 0.73828 0.0
C1036 C 0.17089 0.89696 0.13004 0.0
C1037 C 0.18987 0.88326 0.12399 0.0
C1038 C 0.15589 0.8905 0.14835 0.0
C1039 C 0.13228 0.84163 0.17939 0.0
H1040 H 0.11421 0.88615 0.22735 0.0
C1041 C 0.06503 0.82227 0.25417 0.0
C1042 C 0.04975 0.84006 0.25978 0.0
C1043 C 0.08379 0.82614 0.23892 0.0
C1044 C 0.11887 0.87356 0.21396 0.0
H1045 H 0.20784 0.85189 0.13283 0.0
H1046 H 0.18097 0.84027 0.16439 0.0
H1047 H 0.14415 0.89557 0.19844 0.0
H1048 H 0.04178 0.87565 0.25303 0.0
H1049 H 0.07381 0.88215 0.22613 0.0
H1050 H 0.10633 0.81994 0.19425 0.0
C1051 C 0.17799 0.85612 0.15488 0.0
C1052 C 0.13613 0.87894 0.19752 0.0
C1053 C 0.19329 0.86276 0.13674 0.0
C1054 C 0.05335 0.86161 0.24938 0.0
C1055 C 0.07188 0.8654 0.23405 0.0
C1056 C 0.11477 0.83631 0.19571 0.0
C1057 C 0.15922 0.87 0.16088 0.0
C1058 C 0.1427 0.8632 0.17981 0.0
C1059 C 0.08754 0.84784 0.22885 0.0
C1060 C 0.10752 0.85242 0.21287 0.0
H1061 H 0.16721 0.91251 0.12026 0.0
H1062 H 0.1413 0.90133 0.15236 0.0
H1063 H 0.13699 0.82925 0.16579 0.0
H1064 H 0.06279 0.80549 0.26196 0.0
H1065 H 0.09558 0.81226 0.2354 0.0
C1066 C 0.81046 0.13696 0.62532 0.0
C1067 C 0.79947 0.11563 0.62573 0.0
C1068 C 0.8258 0.14307 0.6436 0.0
C1069 C 0.86488 0.11589 0.68624 0.0
H1070 H 0.8701 0.17587 0.715 0.0
C1071 C 0.92898 0.13261 0.76227 0.0
C1072 C 0.94141 0.15313 0.76188 0.0
C1073 C 0.91038 0.12931 0.74688 0.0
C1074 C 0.86901 0.15911 0.70693 0.0
H1075 H 0.79464 0.08474 0.64656 0.0
H1076 H 0.82147 0.09534 0.67834 0.0
H1077 H 0.83914 0.16807 0.68634 0.0
H1078 H 0.94365 0.18652 0.7453 0.0
H1079 H 0.91137 0.18053 0.71788 0.0
H1080 H 0.89489 0.10693 0.70615 0.0
C1081 C 0.81855 0.10715 0.66366 0.0
C1082 C 0.85124 0.15464 0.69061 0.0
C1083 C 0.8032 0.10109 0.64547 0.0
C1084 C 0.93444 0.17051 0.74604 0.0
C1085 C 0.91587 0.16712 0.73042 0.0
C1086 C 0.88266 0.12037 0.70236 0.0
C1087 C 0.83048 0.12793 0.66258 0.0
C1088 C 0.84894 0.13292 0.68022 0.0
C1089 C 0.9038 0.14635 0.73046 0.0
C1090 C 0.8849 0.14197 0.71305 0.0
H1091 H 0.80812 0.14847 0.61026 0.0
H1092 H 0.83484 0.15914 0.64222 0.0
H1093 H 0.8639 0.09914 0.67811 0.0
H1094 H 0.93361 0.11898 0.77451 0.0
H1095 H 0.90115 0.11333 0.74785 0.0
loop_
_geom_bond_atom_site_label_1
_geom_bond_atom_site_label_2
_geom_bond_distance
_geom_bond_site_symmetry_2
_ccdc_geom_bond_type
C0 C1 1.384 . S
C0 H13 0.947 . S
C0 C35 1.382 . S
C1 C0 1.384 . S
C1 C2 1.378 . S
C2 C1 1.378 . S
C2 C3 1.378 . S
C2 H14 0.952 . S
C3 C2 1.378 . S
C3 H15 0.950 . S
C3 C34 1.383 . S
H4 C23 0.947 . S
H5 C24 0.946 1_554 S
H6 C26 0.953 . S
H7 C27 0.945 . S
H8 C29 0.952 . S
H9 C30 0.949 . S
H10 C32 0.950 . S
H11 C33 0.948 1_554 S
H12 C35 0.951 . S
H13 C0 0.947 . S
H14 C2 0.952 . S
H15 C3 0.950 . S
N16 C19 1.382 1_554 S
N16 C21 1.363 . S
N17 C19 1.371 . S
N17 C20 1.372 . S
N18 C20 1.361 1_554 S
N18 C21 1.377 . S
C19 N16 1.382 1_556 S
C19 N17 1.371 . S
C19 C22 1.480 . S
C20 N17 1.372 . S
C20 N18 1.361 1_556 S
C20 C28 1.457 . S
C21 N16 1.363 . S
C21 N18 1.377 . S
C21 C34 1.479 . S
C22 C19 1.480 . S
C22 C23 1.383 1_556 S
C22 C27 1.385 . S
C23 H4 0.947 . S
C23 C22 1.383 1_554 S
C23 C24 1.388 1_554 S
C24 H5 0.946 1_556 S
C24 C23 1.388 1_556 S
C24 C25 1.384 . S
C25 C24 1.384 . S
C25 C26 1.377 . S
C26 H6 0.953 . S
C26 C25 1.377 . S
C26 C27 1.369 . S
C27 H7 0.945 . S
C27 C22 1.385 . S
C27 C26 1.369 . S
C28 C20 1.457 . S
C28 C29 1.372 . S
C28 C33 1.364 . S
C29 H8 0.952 . S
C29 C28 1.372 . S
C29 C30 1.389 . S
C30 H9 0.949 . S
C30 C29 1.389 . S
C30 C31 1.387 . S
C31 C30 1.387 . S
C31 C32 1.372 . S
C32 H10 0.950 . S
C32 C31 1.372 . S
C32 C33 1.379 . S
C33 H11 0.948 1_556 S
C33 C28 1.364 . S
C33 C32 1.379 . S
C34 C3 1.383 . S
C34 C21 1.479 . S
C34 C35 1.398 . S
C35 C0 1.382 . S
C35 H12 0.951 . S
C35 C34 1.398 . S
C36 C37 1.384 . S
C36 H49 0.947 . S
C36 C71 1.382 . S
C37 C36 1.384 . S
C37 C38 1.378 . S
C38 C37 1.378 . S
C38 C39 1.378 . S
C38 H50 0.952 . S
C39 C38 1.378 . S
C39 H51 0.950 . S
C39 C70 1.383 . S
H40 C59 0.947 . S
H41 C60 0.946 . S
H42 C62 0.953 . S
H43 C63 0.945 . S
H44 C65 0.952 . S
H45 C66 0.949 . S
H46 C68 0.950 . S
H47 C69 0.948 . S
H48 C71 0.951 . S
H49 C36 0.947 . S
H50 C38 0.952 . S
H51 C39 0.950 . S
N52 C55 1.382 . S
N52 C57 1.363 . S
N53 C55 1.371 . S
N53 C56 1.372 . S
N54 C56 1.361 . S
N54 C57 1.377 . S
C55 N52 1.382 . S
C55 N53 1.371 . S
C55 C58 1.480 . S
C56 N53 1.372 . S
C56 N54 1.361 . S
C56 C64 1.457 . S
C57 N52 1.363 . S
C57 N54 1.377 . S
C57 C70 1.479 . S
C58 C55 1.480 . S
C58 C59 1.383 . S
C58 C63 1.385 . S
C59 H40 0.947 . S
C59 C58 1.383 . S
C59 C60 1.388 . S
C60 H41 0.946 . S
C60 C59 1.388 . S
C60 C61 1.384 . S
C61 C60 1.384 . S
C61 C62 1.377 . S
C62 H42 0.953 . S
C62 C61 1.377 . S
C62 C63 1.369 . S
C63 H43 0.945 . S
C63 C58 1.385 . S
C63 C62 1.369 . S
C64 C56 1.457 . S
C64 C65 1.372 . S
C64 C69 1.364 . S
C65 H44 0.952 . S
C65 C64 1.372 . S
C65 C66 1.389 . S
C66 H45 0.949 . S
C66 C65 1.389 . S
C66 C67 1.387 . S
C67 C66 1.387 . S
C67 C68 1.372 . S
C68 H46 0.950 . S
C68 C67 1.372 . S
C68 C69 1.379 . S
C69 H47 0.948 . S
C69 C64 1.364 . S
C69 C68 1.379 . S
C70 C39 1.383 . S
C70 C57 1.479 . S
C70 C71 1.398 . S
C71 C36 1.382 . S
C71 H48 0.951 . S
C71 C70 1.398 . S
C72 C73 1.384 . S
C72 H85 0.947 . S
C72 C107 1.382 . S
C73 C72 1.384 . S
C73 C74 1.378 . S
C74 C73 1.378 . S
C74 C75 1.378 . S
C74 H86 0.952 . S
C75 C74 1.378 . S
C75 H87 0.950 . S
C75 C106 1.383 . S
H76 C95 0.947 . S
H77 C96 0.946 1_554 S
H78 C98 0.953 . S
H79 C99 0.945 . S
H80 C101 0.952 . S
H81 C102 0.949 . S
H82 C104 0.950 . S
H83 C105 0.948 1_554 S
H84 C107 0.951 . S
H85 C72 0.947 . S
H86 C74 0.952 . S
H87 C75 0.950 . S
N88 C91 1.382 . S
N88 C93 1.363 . S
N89 C91 1.371 1_556 S
N89 C92 1.379 . S
N90 C92 1.346 1_554 S
N90 C93 1.377 . S
C91 N88 1.382 . S
C91 N89 1.371 1_554 S
C91 C94 1.480 1_554 S
C92 N89 1.379 . S
C92 N90 1.346 1_556 S
C92 C100 1.466 . S
C93 N88 1.363 . S
C93 N90 1.377 . S
C93 C106 1.479 . S
C94 C91 1.480 1_556 S
C94 C95 1.383 1_556 S
C94 C99 1.385 . S
C95 H76 0.947 . S
C95 C94 1.383 1_554 S
C95 C96 1.388 1_554 S
C96 H77 0.946 1_556 S
C96 C95 1.388 1_556 S
C96 C97 1.384 . S
C97 C96 1.384 . S
C97 C98 1.377 . S
C98 H78 0.953 . S
C98 C97 1.377 . S
C98 C99 1.369 . S
C99 H79 0.945 . S
C99 C94 1.385 . S
C99 C98 1.369 . S
C100 C92 1.466 . S
C100 C101 1.372 . S
C100 C105 1.364 . S
C101 H80 0.952 . S
C101 C100 1.372 . S
C101 C102 1.389 . S
C102 H81 0.949 . S
C102 C101 1.389 . S
C102 C103 1.387 . S
C103 C102 1.387 . S
C103 C104 1.372 . S
C104 H82 0.950 . S
C104 C103 1.372 . S
C104 C105 1.379 . S
C105 H83 0.948 1_556 S
C105 C100 1.364 . S
C105 C104 1.379 . S
C106 C75 1.383 . S
C106 C93 1.479 . S
C106 C107 1.398 . S
C107 C72 1.382 . S
C107 H84 0.951 . S
C107 C106 1.398 . S
C108 C109 1.384 . S
C108 H121 0.947 . S
C108 C143 1.382 . S
C109 C108 1.384 . S
C109 C110 1.378 . S
C110 C109 1.378 . S
C110 C111 1.378 . S
C110 H122 0.952 . S
C111 C110 1.378 . S
C111 H123 0.950 . S
C111 C142 1.383 . S
H112 C131 0.947 . S
H113 C132 0.946 . S
H114 C134 0.953 . S
H115 C135 0.945 . S
H116 C137 0.952 . S
H117 C138 0.949 . S
H118 C140 0.950 . S
H119 C141 0.948 . S
H120 C143 0.951 . S
H121 C108 0.947 . S
H122 C110 0.952 . S
H123 C111 0.950 . S
N124 C127 1.382 . S
N124 C129 1.363 . S
N125 C127 1.371 . S
N125 C128 1.372 . S
N126 C128 1.361 . S
N126 C129 1.377 . S
C127 N124 1.382 . S
C127 N125 1.371 . S
C127 C130 1.480 . S
C128 N125 1.372 . S
C128 N126 1.361 . S
C128 C136 1.457 . S
C129 N124 1.363 . S
C129 N126 1.377 . S
C129 C142 1.479 . S
C130 C127 1.480 . S
C130 C131 1.383 . S
C130 C135 1.385 . S
C131 H112 0.947 . S
C131 C130 1.383 . S
C131 C132 1.388 . S
C132 H113 0.946 . S
C132 C131 1.388 . S
C132 C133 1.384 . S
C133 C132 1.384 . S
C133 C134 1.377 . S
C134 H114 0.953 . S
C134 C133 1.377 . S
C134 C135 1.369 . S
C135 H115 0.945 . S
C135 C130 1.385 . S
C135 C134 1.369 . S
C136 C128 1.457 . S
C136 C137 1.372 . S
C136 C141 1.364 . S
C137 H116 0.952 . S
C137 C136 1.372 . S
C137 C138 1.389 . S
C138 H117 0.949 . S
C138 C137 1.389 . S
C138 C139 1.387 . S
C139 C138 1.387 . S
C139 C140 1.372 . S
C140 H118 0.950 . S
C140 C139 1.372 . S
C140 C141 1.379 . S
C141 H119 0.948 . S
C141 C136 1.364 . S
C141 C140 1.379 . S
C142 C111 1.383 . S
C142 C129 1.479 . S
C142 C143 1.398 . S
C143 C108 1.382 . S
C143 H120 0.951 . S
C143 C142 1.398 . S
C144 C145 1.384 . S
C144 H157 0.947 . S
C144 C179 1.382 . S
C145 C144 1.384 . S
C145 C146 1.378 . S
C146 C145 1.378 . S
C146 C147 1.378 . S
C146 H158 0.952 . S
C147 C146 1.378 . S
C147 H159 0.950 . S
C147 C178 1.383 . S
H148 C167 0.947 . S
H149 C168 0.946 1_554 S
H150 C170 0.953 . S
H151 C171 0.945 . S
H152 C173 0.952 . S
H153 C174 0.949 . S
H154 C176 0.950 . S
H155 C177 0.948 1_554 S
H156 C179 0.951 . S
H157 C144 0.947 . S
H158 C146 0.952 . S
H159 C147 0.950 . S
N160 C163 1.382 1_554 S
N160 C165 1.363 . S
N161 C163 1.371 . S
N161 C164 1.372 . S
N162 C164 1.361 1_554 S
N162 C165 1.377 . S
C163 N160 1.382 1_556 S
C163 N161 1.371 . S
C163 C166 1.480 . S
C164 N161 1.372 . S
C164 N162 1.361 1_556 S
C164 C172 1.457 . S
C165 N160 1.363 . S
C165 N162 1.377 . S
C165 C178 1.479 . S
C166 C163 1.480 . S
C166 C167 1.383 1_556 S
C166 C171 1.385 . S
C167 H148 0.947 . S
C167 C166 1.383 1_554 S
C167 C168 1.388 1_554 S
C168 H149 0.946 1_556 S
C168 C167 1.388 1_556 S
C168 C169 1.384 . S
C169 C168 1.384 . S
C169 C170 1.377 . S
C170 H150 0.953 . S
C170 C169 1.377 . S
C170 C171 1.369 . S
C171 H151 0.945 . S
C171 C166 1.385 . S
C171 C170 1.369 . S
C172 C164 1.457 . S
C172 C173 1.372 . S
C172 C177 1.364 . S
C173 H152 0.952 . S
C173 C172 1.372 . S
C173 C174 1.389 . S
C174 H153 0.949 . S
C174 C173 1.389 . S
C174 C175 1.387 . S
C175 C174 1.387 . S
C175 C176 1.372 . S
C176 H154 0.950 . S
C176 C175 1.372 . S
C176 C177 1.379 . S
C177 H155 0.948 1_556 S
C177 C172 1.364 . S
C177 C176 1.379 . S
C178 C147 1.383 . S
C178 C165 1.479 . S
C178 C179 1.398 . S
C179 C144 1.382 . S
C179 H156 0.951 . S
C179 C178 1.398 . S
C180 C181 1.384 . S
C180 H193 0.947 . S
C180 C215 1.382 . S
C181 C180 1.384 . S
C181 C182 1.378 . S
C182 C181 1.378 . S
C182 C183 1.378 . S
C182 H194 0.952 . S
C183 C182 1.378 . S
C183 H195 0.950 . S
C183 C214 1.383 . S
H184 C203 0.947 . S
H185 C204 0.946 . S
H186 C206 0.953 . S
H187 C207 0.945 . S
H188 C209 0.952 . S
H189 C210 0.949 . S
H190 C212 0.950 . S
H191 C213 0.948 . S
H192 C215 0.951 . S
H193 C180 0.947 . S
H194 C182 0.952 . S
H195 C183 0.950 . S
N196 C199 1.382 . S
N196 C201 1.363 . S
N197 C199 1.371 . S
N197 C200 1.372 . S
N198 C200 1.361 . S
N198 C201 1.377 . S
C199 N196 1.382 . S
C199 N197 1.371 . S
C199 C202 1.480 . S
C200 N197 1.372 . S
C200 N198 1.361 . S
C200 C208 1.457 . S
C201 N196 1.363 . S
C201 N198 1.377 . S
C201 C214 1.479 . S
C202 C199 1.480 . S
C202 C203 1.383 . S
C202 C207 1.385 . S
C203 H184 0.947 . S
C203 C202 1.383 . S
C203 C204 1.388 . S
C204 H185 0.946 . S
C204 C203 1.388 . S
C204 C205 1.384 . S
C205 C204 1.384 . S
C205 C206 1.377 . S
C206 H186 0.953 . S
C206 C205 1.377 . S
C206 C207 1.369 . S
C207 H187 0.945 . S
C207 C202 1.385 . S
C207 C206 1.369 . S
C208 C200 1.457 . S
C208 C209 1.372 . S
C208 C213 1.364 . S
C209 H188 0.952 . S
C209 C208 1.372 . S
C209 C210 1.389 . S
C210 H189 0.949 . S
C210 C209 1.389 . S
C210 C211 1.387 . S
C211 C210 1.387 . S
C211 C212 1.372 . S
C212 H190 0.950 . S
C212 C211 1.372 . S
C212 C213 1.379 . S
C213 H191 0.948 . S
C213 C208 1.364 . S
C213 C212 1.379 . S
C214 C183 1.383 . S
C214 C201 1.479 . S
C214 C215 1.398 . S
C215 C180 1.382 . S
C215 H192 0.951 . S
C215 C214 1.398 . S
C216 C217 1.384 . S
C216 H229 0.947 . S
C216 C251 1.382 . S
C217 C216 1.384 . S
C217 C218 1.378 . S
C218 C217 1.378 . S
C218 C219 1.378 . S
C218 H230 0.952 . S
C219 C218 1.378 . S
C219 H231 0.950 . S
C219 C250 1.383 . S
H220 C239 0.947 . S
H221 C240 0.946 1_554 S
H222 C242 0.953 . S
H223 C243 0.945 . S
H224 C245 0.952 . S
H225 C246 0.949 . S
H226 C248 0.950 . S
H227 C249 0.948 1_554 S
H228 C251 0.951 . S
H229 C216 0.947 . S
H230 C218 0.952 . S
H231 C219 0.950 . S
N232 C235 1.382 . S
N232 C237 1.363 . S
N233 C235 1.371 1_556 S
N233 C236 1.379 . S
N234 C236 1.346 1_554 S
N234 C237 1.377 . S
C235 N232 1.382 . S
C235 N233 1.371 1_554 S
C235 C238 1.480 1_554 S
C236 N233 1.379 . S
C236 N234 1.346 1_556 S
C236 C244 1.466 . S
C237 N232 1.363 . S
C237 N234 1.377 . S
C237 C250 1.479 . S
C238 C235 1.480 1_556 S
C238 C239 1.383 1_556 S
C238 C243 1.385 . S
C239 H220 0.947 . S
C239 C238 1.383 1_554 S
C239 C240 1.388 1_554 S
C240 H221 0.946 1_556 S
C240 C239 1.388 1_556 S
C240 C241 1.384 . S
C241 C240 1.384 . S
C241 C242 1.377 . S
C242 H222 0.953 . S
C242 C241 1.377 . S
C242 C243 1.369 . S
C243 H223 0.945 . S
C243 C238 1.385 . S
C243 C242 1.369 . S
C244 C236 1.466 . S
C244 C245 1.372 . S
C244 C249 1.364 . S
C245 H224 0.952 . S
C245 C244 1.372 . S
C245 C246 1.389 . S
C246 H225 0.949 . S
C246 C245 1.389 . S
C246 C247 1.387 . S
C247 C246 1.387 . S
C247 C248 1.372 . S
C248 H226 0.950 . S
C248 C247 1.372 . S
C248 C249 1.379 . S
C249 H227 0.948 1_556 S
C249 C244 1.364 . S
C249 C248 1.379 . S
C250 C219 1.383 . S
C250 C237 1.479 . S
C250 C251 1.398 . S
C251 C216 1.382 . S
C251 H228 0.951 . S
C251 C250 1.398 . S
C252 C253 1.384 . S
C252 H265 0.947 . S
C252 C287 1.382 . S
C253 C252 1.384 . S
C253 C254 1.378 . S
C254 C253 1.378 . S
C254 C255 1.378 . S
C254 H266 0.952 . S
C255 C254 1.378 . S
C255 H267 0.950 . S
C255 C286 1.383 . S
H256 C275 0.947 . S
H257 C276 0.946 . S
H258 C278 0.953 . S
H259 C279 0.945 . S
H260 C281 0.952 . S
H261 C282 0.949 . S
H262 C284 0.950 . S
H263 C285 0.948 . S
H264 C287 0.951 . S
H265 C252 0.947 . S
H266 C254 0.952 . S
H267 C255 0.950 . S
N268 C271 1.382 . S
N268 C273 1.363 . S
N269 C271 1.371 . S
N269 C272 1.372 . S
N270 C272 1.361 . S
N270 C273 1.377 . S
C271 N268 1.382 . S
C271 N269 1.371 . S
C271 C274 1.480 . S
C272 N269 1.372 . S
C272 N270 1.361 . S
C272 C280 1.457 . S
C273 N268 1.363 . S
C273 N270 1.377 . S
C273 C286 1.479 . S
C274 C271 1.480 . S
C274 C275 1.383 . S
C274 C279 1.385 . S
C275 H256 0.947 . S
C275 C274 1.383 . S
C275 C276 1.388 . S
C276 H257 0.946 . S
C276 C275 1.388 . S
C276 C277 1.384 . S
C277 C276 1.384 . S
C277 C278 1.377 . S
C278 H258 0.953 . S
C278 C277 1.377 . S
C278 C279 1.369 . S
C279 H259 0.945 . S
C279 C274 1.385 . S
C279 C278 1.369 . S
C280 C272 1.457 . S
C280 C281 1.372 . S
C280 C285 1.364 . S
C281 H260 0.952 . S
C281 C280 1.372 . S
C281 C282 1.389 . S
C282 H261 0.949 . S
C282 C281 1.389 . S
C282 C283 1.387 . S
C283 C282 1.387 . S
C283 C284 1.372 . S
C284 H262 0.950 . S
C284 C283 1.372 . S
C284 C285 1.379 . S
C285 H263 0.948 . S
C285 C280 1.364 . S
C285 C284 1.379 . S
C286 C255 1.383 . S
C286 C273 1.479 . S
C286 C287 1.398 . S
C287 C252 1.382 . S
C287 H264 0.951 . S
C287 C286 1.398 . S
Sc288 O291 2.025 . S
Sc288 O298 2.105 1_455 S
Sc288 O301 2.105 . S
Sc288 O304 2.105 . S
Sc288 O307 2.105 1_455 S
Sc289 O291 2.025 . S
Sc289 O299 2.105 1_455 S
Sc289 O303 2.105 . S
Sc289 O305 2.105 . S
Sc289 O309 2.105 1_455 S
Sc290 O291 2.025 . S
Sc290 O300 2.105 1_455 S
Sc290 O302 2.105 . S
Sc290 O306 2.105 . S
Sc290 O308 2.105 1_455 S
O291 Sc288 2.025 . S
O291 Sc289 2.025 . S
O291 Sc290 2.025 . S
C292 O298 1.268 . S
C292 O308 1.268 . S
C293 O299 1.268 . S
C293 O307 1.268 . S
C294 O300 1.268 . S
C294 O309 1.268 . S
C295 O301 1.268 . S
C295 O305 1.268 . S
C296 O302 1.268 . S
C296 O304 1.268 . S
C297 O303 1.268 . S
C297 O306 1.268 . S
O298 Sc288 2.105 1_655 S
O298 C292 1.268 . S
O299 Sc289 2.105 1_655 S
O299 C293 1.268 . S
O300 Sc290 2.105 1_655 S
O300 C294 1.268 . S
O301 Sc288 2.105 . S
O301 C295 1.268 . S
O302 Sc290 2.105 . S
O302 C296 1.268 . S
O303 Sc289 2.105 . S
O303 C297 1.268 . S
O304 Sc288 2.105 . S
O304 C296 1.268 . S
O305 Sc289 2.105 . S
O305 C295 1.268 . S
O306 Sc290 2.105 . S
O306 C297 1.268 . S
O307 Sc288 2.105 1_655 S
O307 C293 1.268 . S
O308 Sc290 2.105 1_655 S
O308 C292 1.268 . S
O309 Sc289 2.105 1_655 S
O309 C294 1.268 . S
Sc310 O313 2.025 . S
Sc310 O320 2.105 . S
Sc310 O323 2.105 1_455 S
Sc310 O326 2.105 1_455 S
Sc310 O329 2.105 . S
Sc311 O313 2.025 . S
Sc311 O321 2.105 . S
Sc311 O325 2.105 1_455 S
Sc311 O327 2.105 1_455 S
Sc311 O331 2.105 . S
Sc312 O313 2.025 . S
Sc312 O322 2.105 . S
Sc312 O324 2.105 1_455 S
Sc312 O328 2.105 1_455 S
Sc312 O330 2.105 . S
O313 Sc310 2.025 . S
O313 Sc311 2.025 . S
O313 Sc312 2.025 . S
C314 O320 1.268 . S
C314 O330 1.268 . S
C315 O321 1.268 . S
C315 O329 1.268 . S
C316 O322 1.268 . S
C316 O331 1.268 . S
C317 O323 1.268 . S
C317 O327 1.268 . S
C318 O324 1.268 . S
C318 O326 1.268 . S
C319 O325 1.268 . S
C319 O328 1.268 . S
O320 Sc310 2.105 . S
O320 C314 1.268 . S
O321 Sc311 2.105 . S
O321 C315 1.268 . S
O322 Sc312 2.105 . S
O322 C316 1.268 . S
O323 Sc310 2.105 1_655 S
O323 C317 1.268 . S
O324 Sc312 2.105 1_655 S
O324 C318 1.268 . S
O325 Sc311 2.105 1_655 S
O325 C319 1.268 . S
O326 Sc310 2.105 1_655 S
O326 C318 1.268 . S
O327 Sc311 2.105 1_655 S
O327 C317 1.268 . S
O328 Sc312 2.105 1_655 S
O328 C319 1.268 . S
O329 Sc310 2.105 . S
O329 C315 1.268 . S
O330 Sc312 2.105 . S
O330 C314 1.268 . S
O331 Sc311 2.105 . S
O331 C316 1.268 . S
Sc332 O335 2.025 . S
Sc332 O342 2.105 . S
Sc332 O345 2.105 . S
Sc332 O348 2.105 . S
Sc332 O351 2.105 . S
Sc333 O335 2.025 . S
Sc333 O343 2.105 . S
Sc333 O347 2.105 . S
Sc333 O349 2.105 . S
Sc333 O353 2.105 . S
Sc334 O335 2.025 . S
Sc334 O344 2.105 . S
Sc334 O346 2.105 . S
Sc334 O350 2.105 . S
Sc334 O352 2.105 . S
O335 Sc332 2.025 . S
O335 Sc333 2.025 . S
O335 Sc334 2.025 . S
C336 O342 1.268 . S
C336 O352 1.268 . S
C337 O343 1.268 . S
C337 O351 1.268 . S
C338 O344 1.268 . S
C338 O353 1.268 . S
C339 O345 1.268 . S
C339 O349 1.268 . S
C340 O346 1.268 . S
C340 O348 1.268 . S
C341 O347 1.268 . S
C341 O350 1.268 . S
O342 Sc332 2.105 . S
O342 C336 1.268 . S
O343 Sc333 2.105 . S
O343 C337 1.268 . S
O344 Sc334 2.105 . S
O344 C338 1.268 . S
O345 Sc332 2.105 . S
O345 C339 1.268 . S
O346 Sc334 2.105 . S
O346 C340 1.268 . S
O347 Sc333 2.105 . S
O347 C341 1.268 . S
O348 Sc332 2.105 . S
O348 C340 1.268 . S
O349 Sc333 2.105 . S
O349 C339 1.268 . S
O350 Sc334 2.105 . S
O350 C341 1.268 . S
O351 Sc332 2.105 . S
O351 C337 1.268 . S
O352 Sc334 2.105 . S
O352 C336 1.268 . S
O353 Sc333 2.105 . S
O353 C338 1.268 . S
Sc354 O357 2.025 . S
Sc354 O364 2.105 . S
Sc354 O367 2.105 . S
Sc354 O370 2.105 . S
Sc354 O373 2.105 . S
Sc355 O357 2.025 . S
Sc355 O365 2.105 . S
Sc355 O369 2.105 . S
Sc355 O371 2.105 . S
Sc355 O375 2.105 . S
Sc356 O357 2.025 . S
Sc356 O366 2.105 . S
Sc356 O368 2.105 . S
Sc356 O372 2.105 . S
Sc356 O374 2.105 . S
O357 Sc354 2.025 . S
O357 Sc355 2.025 . S
O357 Sc356 2.025 . S
C358 O364 1.268 . S
C358 O374 1.268 . S
C359 O365 1.268 . S
C359 O373 1.268 . S
C360 O366 1.268 . S
C360 O375 1.268 . S
C361 O367 1.268 . S
C361 O371 1.268 . S
C362 O368 1.268 . S
C362 O370 1.268 . S
C363 O369 1.268 . S
C363 O372 1.268 . S
O364 Sc354 2.105 . S
O364 C358 1.268 . S
O365 Sc355 2.105 . S
O365 C359 1.268 . S
O366 Sc356 2.105 . S
O366 C360 1.268 . S
O367 Sc354 2.105 . S
O367 C361 1.268 . S
O368 Sc356 2.105 . S
O368 C362 1.268 . S
O369 Sc355 2.105 . S
O369 C363 1.268 . S
O370 Sc354 2.105 . S
O370 C362 1.268 . S
O371 Sc355 2.105 . S
O371 C361 1.268 . S
O372 Sc356 2.105 . S
O372 C363 1.268 . S
O373 Sc354 2.105 . S
O373 C359 1.268 . S
O374 Sc356 2.105 . S
O374 C358 1.268 . S
O375 Sc355 2.105 . S
O375 C360 1.268 . S
C376 C377 1.349 . S
C376 C378 1.327 . S
C376 H401 0.950 . S
C377 C376 1.349 . S
C377 C393 1.349 . S
C378 C376 1.327 . S
C378 C397 1.429 . S
C378 H402 0.950 . S
C379 C396 1.574 . S
C379 C398 1.368 . S
C379 H403 0.949 . S
H380 C384 0.949 . S
C381 C382 1.349 . S
C381 C383 1.327 . S
C381 H404 0.950 . S
C382 C381 1.349 . S
C382 C394 1.349 . S
C383 C381 1.327 . S
C383 C399 1.429 . S
C383 H405 0.950 . S
C384 H380 0.949 . S
C384 C392 1.574 . S
C384 C400 1.368 . S
H385 C393 0.950 . S
H386 C391 0.950 . S
H387 C392 0.949 . S
H388 C394 0.950 . S
H389 C395 0.950 . S
H390 C396 0.949 . S
C391 H386 0.950 . S
C391 C393 1.327 . S
C391 C397 1.429 . S
C392 C384 1.574 . S
C392 H387 0.949 . S
C392 C398 1.368 . S
C393 C377 1.349 . S
C393 H385 0.950 . S
C393 C391 1.327 . S
C394 C382 1.349 . S
C394 H388 0.950 . S
C394 C395 1.327 . S
C395 H389 0.950 . S
C395 C394 1.327 . S
C395 C399 1.429 . S
C396 C379 1.574 . S
C396 H390 0.949 . S
C396 C400 1.368 . S
C397 C378 1.429 . S
C397 C391 1.429 . S
C397 C398 1.523 . S
C398 C379 1.368 . S
C398 C392 1.368 . S
C398 C397 1.523 . S
C399 C383 1.429 . S
C399 C395 1.429 . S
C399 C400 1.523 . S
C400 C384 1.368 . S
C400 C396 1.368 . S
C400 C399 1.523 . S
H401 C376 0.950 . S
H402 C378 0.950 . S
H403 C379 0.949 . S
H404 C381 0.950 . S
H405 C383 0.950 . S
C406 C407 1.349 . S
C406 C408 1.327 . S
C406 H431 0.950 . S
C407 C406 1.349 . S
C407 C423 1.349 . S
C408 C406 1.327 . S
C408 C427 1.429 . S
C408 H432 0.950 . S
C409 C426 1.574 . S
C409 C428 1.368 . S
C409 H433 0.949 . S
H410 C414 0.949 . S
C411 C412 1.349 . S
C411 C413 1.327 . S
C411 H434 0.950 . S
C412 C411 1.349 . S
C412 C424 1.349 . S
C413 C411 1.327 . S
C413 C429 1.429 . S
C413 H435 0.950 . S
C414 H410 0.949 . S
C414 C422 1.574 . S
C414 C430 1.368 . S
H415 C423 0.950 . S
H416 C421 0.950 . S
H417 C422 0.949 . S
H418 C424 0.950 . S
H419 C425 0.950 . S
H420 C426 0.949 . S
C421 H416 0.950 . S
C421 C423 1.327 . S
C421 C427 1.429 . S
C422 C414 1.574 . S
C422 H417 0.949 . S
C422 C428 1.368 . S
C423 C407 1.349 . S
C423 H415 0.950 . S
C423 C421 1.327 . S
C424 C412 1.349 . S
C424 H418 0.950 . S
C424 C425 1.327 . S
C425 H419 0.950 . S
C425 C424 1.327 . S
C425 C429 1.429 . S
C426 C409 1.574 . S
C426 H420 0.949 . S
C426 C430 1.368 . S
C427 C408 1.429 . S
C427 C421 1.429 . S
C427 C428 1.523 . S
C428 C409 1.368 . S
C428 C422 1.368 . S
C428 C427 1.523 . S
C429 C413 1.429 . S
C429 C425 1.429 . S
C429 C430 1.523 . S
C430 C414 1.368 . S
C430 C426 1.368 . S
C430 C429 1.523 . S
H431 C406 0.950 . S
H432 C408 0.950 . S
H433 C409 0.949 . S
H434 C411 0.950 . S
H435 C413 0.950 . S
C436 C437 1.349 . S
C436 C438 1.327 . S
C436 H461 0.950 . S
C437 C436 1.349 . S
C437 C453 1.349 . S
C438 C436 1.327 . S
C438 C457 1.429 . S
C438 H462 0.950 . S
C439 C456 1.574 . S
C439 C458 1.368 . S
C439 H463 0.949 . S
H440 C444 0.949 . S
C441 C442 1.349 . S
C441 C443 1.327 . S
C441 H464 0.950 . S
C442 C441 1.349 . S
C442 C454 1.349 . S
C443 C441 1.327 . S
C443 C459 1.429 . S
C443 H465 0.950 . S
C444 H440 0.949 . S
C444 C452 1.574 . S
C444 C460 1.368 . S
H445 C453 0.950 . S
H446 C451 0.950 . S
H447 C452 0.949 . S
H448 C454 0.950 . S
H449 C455 0.950 . S
H450 C456 0.949 . S
C451 H446 0.950 . S
C451 C453 1.327 . S
C451 C457 1.429 . S
C452 C444 1.574 . S
C452 H447 0.949 . S
C452 C458 1.368 . S
C453 C437 1.349 . S
C453 H445 0.950 . S
C453 C451 1.327 . S
C454 C442 1.349 . S
C454 H448 0.950 . S
C454 C455 1.327 . S
C455 H449 0.950 . S
C455 C454 1.327 . S
C455 C459 1.429 . S
C456 C439 1.574 . S
C456 H450 0.949 . S
C456 C460 1.368 . S
C457 C438 1.429 . S
C457 C451 1.429 . S
C457 C458 1.523 . S
C458 C439 1.368 . S
C458 C452 1.368 . S
C458 C457 1.523 . S
C459 C443 1.429 . S
C459 C455 1.429 . S
C459 C460 1.523 . S
C460 C444 1.368 . S
C460 C456 1.368 . S
C460 C459 1.523 . S
H461 C436 0.950 . S
H462 C438 0.950 . S
H463 C439 0.949 . S
H464 C441 0.950 . S
H465 C443 0.950 . S
C466 C467 1.349 . S
C466 C468 1.327 . S
C466 H491 0.950 . S
C467 C466 1.349 . S
C467 C483 1.349 . S
C468 C466 1.327 . S
C468 C487 1.429 . S
C468 H492 0.950 . S
C469 C486 1.574 . S
C469 C488 1.368 . S
C469 H493 0.949 . S
H470 C474 0.949 . S
C471 C472 1.349 . S
C471 C473 1.327 . S
C471 H494 0.950 . S
C472 C471 1.349 . S
C472 C484 1.349 . S
C473 C471 1.327 . S
C473 C489 1.429 . S
C473 H495 0.950 . S
C474 H470 0.949 . S
C474 C482 1.574 . S
C474 C490 1.368 . S
H475 C483 0.950 . S
H476 C481 0.950 . S
H477 C482 0.949 . S
H478 C484 0.950 . S
H479 C485 0.950 . S
H480 C486 0.949 . S
C481 H476 0.950 . S
C481 C483 1.327 . S
C481 C487 1.429 . S
C482 C474 1.574 . S
C482 H477 0.949 . S
C482 C488 1.368 . S
C483 C467 1.349 . S
C483 H475 0.950 . S
C483 C481 1.327 . S
C484 C472 1.349 . S
C484 H478 0.950 . S
C484 C485 1.327 . S
C485 H479 0.950 . S
C485 C484 1.327 . S
C485 C489 1.429 . S
C486 C469 1.574 . S
C486 H480 0.949 . S
C486 C490 1.368 . S
C487 C468 1.429 . S
C487 C481 1.429 . S
C487 C488 1.523 . S
C488 C469 1.368 . S
C488 C482 1.368 . S
C488 C487 1.523 . S
C489 C473 1.429 . S
C489 C485 1.429 . S
C489 C490 1.523 . S
C490 C474 1.368 . S
C490 C486 1.368 . S
C490 C489 1.523 . S
H491 C466 0.950 . S
H492 C468 0.950 . S
H493 C469 0.949 . S
H494 C471 0.950 . S
H495 C473 0.950 . S
C496 C497 1.349 . S
C496 C498 1.327 . S
C496 H521 0.950 . S
C497 C496 1.349 . S
C497 C513 1.349 . S
C498 C496 1.327 . S
C498 C517 1.429 . S
C498 H522 0.950 . S
C499 C516 1.574 . S
C499 C518 1.368 . S
C499 H523 0.949 . S
H500 C504 0.949 . S
C501 C502 1.349 . S
C501 C503 1.327 . S
C501 H524 0.950 . S
C502 C501 1.349 . S
C502 C514 1.349 . S
C503 C501 1.327 . S
C503 C519 1.429 . S
C503 H525 0.950 . S
C504 H500 0.949 . S
C504 C512 1.574 . S
C504 C520 1.368 . S
H505 C513 0.950 . S
H506 C511 0.950 . S
H507 C512 0.949 . S
H508 C514 0.950 . S
H509 C515 0.950 . S
H510 C516 0.949 . S
C511 H506 0.950 . S
C511 C513 1.327 . S
C511 C517 1.429 . S
C512 C504 1.574 . S
C512 H507 0.949 . S
C512 C518 1.368 . S
C513 C497 1.349 . S
C513 H505 0.950 . S
C513 C511 1.327 . S
C514 C502 1.349 . S
C514 H508 0.950 . S
C514 C515 1.327 . S
C515 H509 0.950 . S
C515 C514 1.327 . S
C515 C519 1.429 . S
C516 C499 1.574 . S
C516 H510 0.949 . S
C516 C520 1.368 . S
C517 C498 1.429 . S
C517 C511 1.429 . S
C517 C518 1.523 . S
C518 C499 1.368 . S
C518 C512 1.368 . S
C518 C517 1.523 . S
C519 C503 1.429 . S
C519 C515 1.429 . S
C519 C520 1.523 . S
C520 C504 1.368 . S
C520 C516 1.368 . S
C520 C519 1.523 . S
H521 C496 0.950 . S
H522 C498 0.950 . S
H523 C499 0.949 . S
H524 C501 0.950 . S
H525 C503 0.950 . S
C526 C527 1.349 . S
C526 C528 1.327 . S
C526 H551 0.950 . S
C527 C526 1.349 . S
C527 C543 1.349 . S
C528 C526 1.327 . S
C528 C547 1.429 . S
C528 H552 0.950 . S
C529 C546 1.574 . S
C529 C548 1.368 . S
C529 H553 0.949 . S
H530 C534 0.949 . S
C531 C532 1.349 . S
C531 C533 1.327 . S
C531 H554 0.950 . S
C532 C531 1.349 . S
C532 C544 1.349 . S
C533 C531 1.327 . S
C533 C549 1.429 . S
C533 H555 0.950 . S
C534 H530 0.949 . S
C534 C542 1.574 . S
C534 C550 1.368 . S
H535 C543 0.950 . S
H536 C541 0.950 . S
H537 C542 0.949 . S
H538 C544 0.950 . S
H539 C545 0.950 . S
H540 C546 0.949 . S
C541 H536 0.950 . S
C541 C543 1.327 . S
C541 C547 1.429 . S
C542 C534 1.574 . S
C542 H537 0.949 . S
C542 C548 1.368 . S
C543 C527 1.349 . S
C543 H535 0.950 . S
C543 C541 1.327 . S
C544 C532 1.349 . S
C544 H538 0.950 . S
C544 C545 1.327 . S
C545 H539 0.950 . S
C545 C544 1.327 . S
C545 C549 1.429 . S
C546 C529 1.574 . S
C546 H540 0.949 . S
C546 C550 1.368 . S
C547 C528 1.429 . S
C547 C541 1.429 . S
C547 C548 1.523 . S
C548 C529 1.368 . S
C548 C542 1.368 . S
C548 C547 1.523 . S
C549 C533 1.429 . S
C549 C545 1.429 . S
C549 C550 1.523 . S
C550 C534 1.368 . S
C550 C546 1.368 . S
C550 C549 1.523 . S
H551 C526 0.950 . S
H552 C528 0.950 . S
H553 C529 0.949 . S
H554 C531 0.950 . S
H555 C533 0.950 . S
C556 C557 1.349 . S
C556 C558 1.327 . S
C556 H581 0.950 . S
C557 C556 1.349 . S
C557 C573 1.349 . S
C558 C556 1.327 . S
C558 C577 1.429 . S
C558 H582 0.950 . S
C559 C576 1.574 . S
C559 C578 1.368 . S
C559 H583 0.949 . S
H560 C564 0.949 . S
C561 C562 1.349 . S
C561 C563 1.327 . S
C561 H584 0.950 . S
C562 C561 1.349 . S
C562 C574 1.349 . S
C563 C561 1.327 . S
C563 C579 1.429 . S
C563 H585 0.950 . S
C564 H560 0.949 . S
C564 C572 1.574 . S
C564 C580 1.368 . S
H565 C573 0.950 . S
H566 C571 0.950 . S
H567 C572 0.949 . S
H568 C574 0.950 . S
H569 C575 0.950 . S
H570 C576 0.949 . S
C571 H566 0.950 . S
C571 C573 1.327 . S
C571 C577 1.429 . S
C572 C564 1.574 . S
C572 H567 0.949 . S
C572 C578 1.368 . S
C573 C557 1.349 . S
C573 H565 0.950 . S
C573 C571 1.327 . S
C574 C562 1.349 . S
C574 H568 0.950 . S
C574 C575 1.327 . S
C575 H569 0.950 . S
C575 C574 1.327 . S
C575 C579 1.429 . S
C576 C559 1.574 . S
C576 H570 0.949 . S
C576 C580 1.368 . S
C577 C558 1.429 . S
C577 C571 1.429 . S
C577 C578 1.523 . S
C578 C559 1.368 . S
C578 C572 1.368 . S
C578 C577 1.523 . S
C579 C563 1.429 . S
C579 C575 1.429 . S
C579 C580 1.523 . S
C580 C564 1.368 . S
C580 C576 1.368 . S
C580 C579 1.523 . S
H581 C556 0.950 . S
H582 C558 0.950 . S
H583 C559 0.949 . S
H584 C561 0.950 . S
H585 C563 0.950 . S
C586 C587 1.349 . S
C586 C588 1.327 . S
C586 H611 0.950 . S
C587 C586 1.349 . S
C587 C603 1.349 . S
C588 C586 1.327 . S
C588 C607 1.429 . S
C588 H612 0.950 . S
C589 C606 1.574 . S
C589 C608 1.368 . S
C589 H613 0.949 . S
H590 C594 0.949 . S
C591 C592 1.349 . S
C591 C593 1.327 . S
C591 H614 0.950 . S
C592 C591 1.349 . S
C592 C604 1.349 . S
C593 C591 1.327 . S
C593 C609 1.429 . S
C593 H615 0.950 . S
C594 H590 0.949 . S
C594 C602 1.574 . S
C594 C610 1.368 . S
H595 C603 0.950 . S
H596 C601 0.950 . S
H597 C602 0.949 . S
H598 C604 0.950 . S
H599 C605 0.950 . S
H600 C606 0.949 . S
C601 H596 0.950 . S
C601 C603 1.327 . S
C601 C607 1.429 . S
C602 C594 1.574 . S
C602 H597 0.949 . S
C602 C608 1.368 . S
C603 C587 1.349 . S
C603 H595 0.950 . S
C603 C601 1.327 . S
C604 C592 1.349 . S
C604 H598 0.950 . S
C604 C605 1.327 . S
C605 H599 0.950 . S
C605 C604 1.327 . S
C605 C609 1.429 . S
C606 C589 1.574 . S
C606 H600 0.949 . S
C606 C610 1.368 . S
C607 C588 1.429 . S
C607 C601 1.429 . S
C607 C608 1.523 . S
C608 C589 1.368 . S
C608 C602 1.368 . S
C608 C607 1.523 . S
C609 C593 1.429 . S
C609 C605 1.429 . S
C609 C610 1.523 . S
C610 C594 1.368 . S
C610 C606 1.368 . S
C610 C609 1.523 . S
H611 C586 0.950 . S
H612 C588 0.950 . S
H613 C589 0.949 . S
H614 C591 0.950 . S
H615 C593 0.950 . S
C616 C617 1.349 . S
C616 C618 1.327 . S
C616 H641 0.950 . S
C617 C616 1.349 . S
C617 C633 1.349 . S
C618 C616 1.327 . S
C618 C637 1.429 . S
C618 H642 0.950 . S
C619 C636 1.574 . S
C619 C638 1.368 . S
C619 H643 0.949 . S
H620 C624 0.949 . S
C621 C622 1.349 . S
C621 C623 1.327 . S
C621 H644 0.950 . S
C622 C621 1.349 . S
C622 C634 1.349 . S
C623 C621 1.327 . S
C623 C639 1.429 . S
C623 H645 0.950 . S
C624 H620 0.949 . S
C624 C632 1.574 . S
C624 C640 1.368 . S
H625 C633 0.950 . S
H626 C631 0.950 . S
H627 C632 0.949 . S
H628 C634 0.950 . S
H629 C635 0.950 . S
H630 C636 0.949 . S
C631 H626 0.950 . S
C631 C633 1.327 . S
C631 C637 1.429 . S
C632 C624 1.574 . S
C632 H627 0.949 . S
C632 C638 1.368 . S
C633 C617 1.349 . S
C633 H625 0.950 . S
C633 C631 1.327 . S
C634 C622 1.349 . S
C634 H628 0.950 . S
C634 C635 1.327 . S
C635 H629 0.950 . S
C635 C634 1.327 . S
C635 C639 1.429 . S
C636 C619 1.574 . S
C636 H630 0.949 . S
C636 C640 1.368 . S
C637 C618 1.429 . S
C637 C631 1.429 . S
C637 C638 1.523 . S
C638 C619 1.368 . S
C638 C632 1.368 . S
C638 C637 1.523 . S
C639 C623 1.429 . S
C639 C635 1.429 . S
C639 C640 1.523 . S
C640 C624 1.368 . S
C640 C636 1.368 . S
C640 C639 1.523 . S
H641 C616 0.950 . S
H642 C618 0.950 . S
H643 C619 0.949 . S
H644 C621 0.950 . S
H645 C623 0.950 . S
C646 C647 1.349 . S
C646 C648 1.327 . S
C646 H671 0.950 . S
C647 C646 1.349 . S
C647 C663 1.349 . S
C648 C646 1.327 . S
C648 C667 1.429 . S
C648 H672 0.950 . S
C649 C666 1.574 . S
C649 C668 1.368 . S
C649 H673 0.949 . S
H650 C654 0.949 . S
C651 C652 1.349 . S
C651 C653 1.327 . S
C651 H674 0.950 . S
C652 C651 1.349 . S
C652 C664 1.349 . S
C653 C651 1.327 . S
C653 C669 1.429 . S
C653 H675 0.950 . S
C654 H650 0.949 . S
C654 C662 1.574 . S
C654 C670 1.368 . S
H655 C663 0.950 . S
H656 C661 0.950 . S
H657 C662 0.949 . S
H658 C664 0.950 . S
H659 C665 0.950 . S
H660 C666 0.949 . S
C661 H656 0.950 . S
C661 C663 1.327 . S
C661 C667 1.429 . S
C662 C654 1.574 . S
C662 H657 0.949 . S
C662 C668 1.368 . S
C663 C647 1.349 . S
C663 H655 0.950 . S
C663 C661 1.327 . S
C664 C652 1.349 . S
C664 H658 0.950 . S
C664 C665 1.327 . S
C665 H659 0.950 . S
C665 C664 1.327 . S
C665 C669 1.429 . S
C666 C649 1.574 . S
C666 H660 0.949 . S
C666 C670 1.368 . S
C667 C648 1.429 . S
C667 C661 1.429 . S
C667 C668 1.523 . S
C668 C649 1.368 . S
C668 C662 1.368 . S
C668 C667 1.523 . S
C669 C653 1.429 . S
C669 C665 1.429 . S
C669 C670 1.523 . S
C670 C654 1.368 . S
C670 C666 1.368 . S
C670 C669 1.523 . S
H671 C646 0.950 . S
H672 C648 0.950 . S
H673 C649 0.949 . S
H674 C651 0.950 . S
H675 C653 0.950 . S
C676 C677 1.349 . S
C676 C678 1.327 . S
C676 H701 0.950 . S
C677 C676 1.349 . S
C677 C693 1.349 . S
C678 C676 1.327 . S
C678 C697 1.429 . S
C678 H702 0.950 . S
C679 C696 1.574 . S
C679 C698 1.368 . S
C679 H703 0.949 . S
H680 C684 0.949 . S
C681 C682 1.349 . S
C681 C683 1.327 . S
C681 H704 0.950 . S
C682 C681 1.349 . S
C682 C694 1.349 . S
C683 C681 1.327 . S
C683 C699 1.429 . S
C683 H705 0.950 . S
C684 H680 0.949 . S
C684 C692 1.574 . S
C684 C700 1.368 . S
H685 C693 0.950 . S
H686 C691 0.950 . S
H687 C692 0.949 . S
H688 C694 0.950 . S
H689 C695 0.950 . S
H690 C696 0.949 . S
C691 H686 0.950 . S
C691 C693 1.327 . S
C691 C697 1.429 . S
C692 C684 1.574 . S
C692 H687 0.949 . S
C692 C698 1.368 . S
C693 C677 1.349 . S
C693 H685 0.950 . S
C693 C691 1.327 . S
C694 C682 1.349 . S
C694 H688 0.950 . S
C694 C695 1.327 . S
C695 H689 0.950 . S
C695 C694 1.327 . S
C695 C699 1.429 . S
C696 C679 1.574 . S
C696 H690 0.949 . S
C696 C700 1.368 . S
C697 C678 1.429 . S
C697 C691 1.429 . S
C697 C698 1.523 . S
C698 C679 1.368 . S
C698 C692 1.368 . S
C698 C697 1.523 . S
C699 C683 1.429 . S
C699 C695 1.429 . S
C699 C700 1.523 . S
C700 C684 1.368 . S
C700 C696 1.368 . S
C700 C699 1.523 . S
H701 C676 0.950 . S
H702 C678 0.950 . S
H703 C679 0.949 . S
H704 C681 0.950 . S
H705 C683 0.950 . S
C706 C707 1.349 . S
C706 C708 1.327 . S
C706 H731 0.950 . S
C707 C706 1.349 . S
C707 C723 1.349 . S
C708 C706 1.327 . S
C708 C727 1.429 . S
C708 H732 0.950 . S
C709 C726 1.574 . S
C709 C728 1.368 . S
C709 H733 0.949 . S
H710 C714 0.949 . S
C711 C712 1.349 . S
C711 C713 1.327 . S
C711 H734 0.950 . S
C712 C711 1.349 . S
C712 C724 1.349 . S
C713 C711 1.327 . S
C713 C729 1.429 . S
C713 H735 0.950 . S
C714 H710 0.949 . S
C714 C722 1.574 . S
C714 C730 1.368 . S
H715 C723 0.950 . S
H716 C721 0.950 . S
H717 C722 0.949 . S
H718 C724 0.950 . S
H719 C725 0.950 . S
H720 C726 0.949 . S
C721 H716 0.950 . S
C721 C723 1.327 . S
C721 C727 1.429 . S
C722 C714 1.574 . S
C722 H717 0.949 . S
C722 C728 1.368 . S
C723 C707 1.349 . S
C723 H715 0.950 . S
C723 C721 1.327 . S
C724 C712 1.349 . S
C724 H718 0.950 . S
C724 C725 1.327 . S
C725 H719 0.950 . S
C725 C724 1.327 . S
C725 C729 1.429 . S
C726 C709 1.574 . S
C726 H720 0.949 . S
C726 C730 1.368 . S
C727 C708 1.429 . S
C727 C721 1.429 . S
C727 C728 1.523 . S
C728 C709 1.368 . S
C728 C722 1.368 . S
C728 C727 1.523 . S
C729 C713 1.429 . S
C729 C725 1.429 . S
C729 C730 1.523 . S
C730 C714 1.368 . S
C730 C726 1.368 . S
C730 C729 1.523 . S
H731 C706 0.950 . S
H732 C708 0.950 . S
H733 C709 0.949 . S
H734 C711 0.950 . S
H735 C713 0.950 . S
C736 C737 1.349 1_545 S
C736 C738 1.327 . S
C736 H761 0.937 1_545 S
C737 C736 1.349 1_565 S
C737 C753 1.349 1_565 S
C738 C736 1.327 . S
C738 C757 1.429 . S
C738 H762 0.950 . S
C739 C756 1.574 . S
C739 C758 1.368 . S
C739 H763 0.949 . S
H740 C744 0.949 . S
C741 C742 1.349 . S
C741 C743 1.327 . S
C741 H764 0.950 . S
C742 C741 1.349 . S
C742 C754 1.349 . S
C743 C741 1.327 . S
C743 C759 1.429 . S
C743 H765 0.950 . S
C744 H740 0.949 . S
C744 C752 1.574 . S
C744 C760 1.368 . S
H745 C753 0.958 . S
H746 C751 0.950 . S
H747 C752 0.949 . S
H748 C754 0.950 . S
H749 C755 0.950 . S
H750 C756 0.949 . S
C751 H746 0.950 . S
C751 C753 1.327 . S
C751 C757 1.429 . S
C752 C744 1.574 . S
C752 H747 0.949 . S
C752 C758 1.368 . S
C753 C737 1.349 1_545 S
C753 H745 0.958 . S
C753 C751 1.327 . S
C754 C742 1.349 . S
C754 H748 0.950 . S
C754 C755 1.327 . S
C755 H749 0.950 . S
C755 C754 1.327 . S
C755 C759 1.429 . S
C756 C739 1.574 . S
C756 H750 0.949 . S
C756 C760 1.368 . S
C757 C738 1.429 . S
C757 C751 1.429 . S
C757 C758 1.523 . S
C758 C739 1.368 . S
C758 C752 1.368 . S
C758 C757 1.523 . S
C759 C743 1.429 . S
C759 C755 1.429 . S
C759 C760 1.523 . S
C760 C744 1.368 . S
C760 C756 1.368 . S
C760 C759 1.523 . S
H761 C736 0.937 1_565 S
H762 C738 0.950 . S
H763 C739 0.949 . S
H764 C741 0.950 . S
H765 C743 0.950 . S
C766 C767 1.349 1_565 S
C766 C768 1.327 . S
C766 H791 0.950 1_565 S
C767 C766 1.349 1_545 S
C767 C783 1.349 1_545 S
C768 C766 1.327 . S
C768 C787 1.429 . S
C768 H792 0.950 . S
C769 C786 1.574 . S
C769 C788 1.368 . S
C769 H793 0.949 . S
H770 C774 0.949 . S
C771 C772 1.349 . S
C771 C773 1.327 . S
C771 H794 0.950 . S
C772 C771 1.349 . S
C772 C784 1.349 . S
C773 C771 1.327 . S
C773 C789 1.429 . S
C773 H795 0.950 . S
C774 H770 0.949 . S
C774 C782 1.574 . S
C774 C790 1.368 . S
H775 C783 0.950 . S
H776 C781 0.950 . S
H777 C782 0.949 . S
H778 C784 0.950 . S
H779 C785 0.950 . S
H780 C786 0.949 . S
C781 H776 0.950 . S
C781 C783 1.327 . S
C781 C787 1.429 . S
C782 C774 1.574 . S
C782 H777 0.949 . S
C782 C788 1.368 . S
C783 C767 1.349 1_565 S
C783 H775 0.950 . S
C783 C781 1.327 . S
C784 C772 1.349 . S
C784 H778 0.950 . S
C784 C785 1.327 . S
C785 H779 0.950 . S
C785 C784 1.327 . S
C785 C789 1.429 . S
C786 C769 1.574 . S
C786 H780 0.949 . S
C786 C790 1.368 . S
C787 C768 1.429 . S
C787 C781 1.429 . S
C787 C788 1.523 . S
C788 C769 1.368 . S
C788 C782 1.368 . S
C788 C787 1.523 . S
C789 C773 1.429 . S
C789 C785 1.429 . S
C789 C790 1.523 . S
C790 C774 1.368 . S
C790 C786 1.368 . S
C790 C789 1.523 . S
H791 C766 0.950 1_545 S
H792 C768 0.950 . S
H793 C769 0.949 . S
H794 C771 0.950 . S
H795 C773 0.950 . S
C796 C797 1.349 1_545 S
C796 C798 1.327 . S
C796 H821 0.950 . S
C797 C796 1.349 1_565 S
C797 C813 1.349 . S
C798 C796 1.327 . S
C798 C817 1.429 . S
C798 H822 0.950 . S
C799 C816 1.574 . S
C799 C818 1.368 . S
C799 H823 0.949 . S
H800 C804 0.949 . S
C801 C802 1.349 . S
C801 C803 1.327 . S
C801 H824 0.950 . S
C802 C801 1.349 . S
C802 C814 1.349 . S
C803 C801 1.327 . S
C803 C819 1.429 . S
C803 H825 0.950 . S
C804 H800 0.949 . S
C804 C812 1.574 . S
C804 C820 1.368 . S
H805 C813 0.950 . S
H806 C811 0.951 . S
H807 C812 0.949 . S
H808 C814 0.950 . S
H809 C815 0.950 . S
H810 C816 0.949 . S
C811 H806 0.951 . S
C811 C813 1.327 1_545 S
C811 C817 1.429 . S
C812 C804 1.574 . S
C812 H807 0.949 . S
C812 C818 1.368 . S
C813 C797 1.349 . S
C813 H805 0.950 . S
C813 C811 1.327 1_565 S
C814 C802 1.349 . S
C814 H808 0.950 . S
C814 C815 1.327 . S
C815 H809 0.950 . S
C815 C814 1.327 . S
C815 C819 1.429 . S
C816 C799 1.574 . S
C816 H810 0.949 . S
C816 C820 1.368 . S
C817 C798 1.429 . S
C817 C811 1.429 . S
C817 C818 1.523 . S
C818 C799 1.368 . S
C818 C812 1.368 . S
C818 C817 1.523 . S
C819 C803 1.429 . S
C819 C815 1.429 . S
C819 C820 1.523 . S
C820 C804 1.368 . S
C820 C816 1.368 . S
C820 C819 1.523 . S
H821 C796 0.950 . S
H822 C798 0.950 . S
H823 C799 0.949 . S
H824 C801 0.950 . S
H825 C803 0.950 . S
C826 C827 1.349 . S
C826 C828 1.327 1_545 S
C826 H851 0.950 . S
C827 C826 1.349 . S
C827 C843 1.349 1_545 S
C828 C826 1.327 1_565 S
C828 C847 1.429 . S
C828 H852 0.950 . S
C829 C846 1.574 . S
C829 C848 1.368 . S
C829 H853 0.949 . S
H830 C834 0.949 . S
C831 C832 1.349 . S
C831 C833 1.327 . S
C831 H854 0.950 . S
C832 C831 1.349 . S
C832 C844 1.349 . S
C833 C831 1.327 . S
C833 C849 1.429 . S
C833 H855 0.950 . S
C834 H830 0.949 . S
C834 C842 1.574 . S
C834 C850 1.368 . S
H835 C843 0.950 . S
H836 C841 0.950 . S
H837 C842 0.949 . S
H838 C844 0.950 . S
H839 C845 0.950 . S
H840 C846 0.949 . S
C841 H836 0.950 . S
C841 C843 1.327 . S
C841 C847 1.429 . S
C842 C834 1.574 . S
C842 H837 0.949 . S
C842 C848 1.368 . S
C843 C827 1.349 1_565 S
C843 H835 0.950 . S
C843 C841 1.327 . S
C844 C832 1.349 . S
C844 H838 0.950 . S
C844 C845 1.327 . S
C845 H839 0.950 . S
C845 C844 1.327 . S
C845 C849 1.429 . S
C846 C829 1.574 . S
C846 H840 0.949 . S
C846 C850 1.368 . S
C847 C828 1.429 . S
C847 C841 1.429 . S
C847 C848 1.523 . S
C848 C829 1.368 . S
C848 C842 1.368 . S
C848 C847 1.523 . S
C849 C833 1.429 . S
C849 C845 1.429 . S
C849 C850 1.523 . S
C850 C834 1.368 . S
C850 C846 1.368 . S
C850 C849 1.523 . S
H851 C826 0.950 . S
H852 C828 0.950 . S
H853 C829 0.949 . S
H854 C831 0.950 . S
H855 C833 0.950 . S
C856 C857 1.349 . S
C856 C858 1.327 . S
C856 H881 0.950 . S
C857 C856 1.349 . S
C857 C873 1.349 . S
C858 C856 1.327 . S
C858 C877 1.429 . S
C858 H882 0.950 . S
C859 C876 1.574 . S
C859 C878 1.368 . S
C859 H883 0.949 . S
H860 C864 0.949 . S
C861 C862 1.349 . S
C861 C863 1.327 . S
C861 H884 0.950 . S
C862 C861 1.349 . S
C862 C874 1.349 . S
C863 C861 1.327 . S
C863 C879 1.429 . S
C863 H885 0.950 . S
C864 H860 0.949 . S
C864 C872 1.574 . S
C864 C880 1.368 . S
H865 C873 0.950 . S
H866 C871 0.950 . S
H867 C872 0.949 . S
H868 C874 0.950 . S
H869 C875 0.950 . S
H870 C876 0.949 . S
C871 H866 0.950 . S
C871 C873 1.327 . S
C871 C877 1.429 . S
C872 C864 1.574 . S
C872 H867 0.949 . S
C872 C878 1.368 . S
C873 C857 1.349 . S
C873 H865 0.950 . S
C873 C871 1.327 . S
C874 C862 1.349 . S
C874 H868 0.950 . S
C874 C875 1.327 . S
C875 H869 0.950 . S
C875 C874 1.327 . S
C875 C879 1.429 . S
C876 C859 1.574 . S
C876 H870 0.949 . S
C876 C880 1.368 . S
C877 C858 1.429 . S
C877 C871 1.429 . S
C877 C878 1.523 . S
C878 C859 1.368 . S
C878 C872 1.368 . S
C878 C877 1.523 . S
C879 C863 1.429 . S
C879 C875 1.429 . S
C879 C880 1.523 . S
C880 C864 1.368 . S
C880 C876 1.368 . S
C880 C879 1.523 . S
H881 C856 0.950 . S
H882 C858 0.950 . S
H883 C859 0.949 . S
H884 C861 0.950 . S
H885 C863 0.950 . S
C886 C887 1.349 . S
C886 C888 1.327 . S
C886 H911 0.950 . S
C887 C886 1.349 . S
C887 C903 1.349 . S
C888 C886 1.327 . S
C888 C907 1.429 . S
C888 H912 0.950 . S
C889 C906 1.574 . S
C889 C908 1.368 . S
C889 H913 0.949 . S
H890 C894 0.949 . S
C891 C892 1.349 . S
C891 C893 1.327 . S
C891 H914 0.950 . S
C892 C891 1.349 . S
C892 C904 1.349 . S
C893 C891 1.327 . S
C893 C909 1.429 . S
C893 H915 0.950 . S
C894 H890 0.949 . S
C894 C902 1.574 . S
C894 C910 1.368 . S
H895 C903 0.950 . S
H896 C901 0.950 . S
H897 C902 0.949 . S
H898 C904 0.950 . S
H899 C905 0.950 . S
H900 C906 0.949 . S
C901 H896 0.950 . S
C901 C903 1.327 . S
C901 C907 1.429 . S
C902 C894 1.574 . S
C902 H897 0.949 . S
C902 C908 1.368 . S
C903 C887 1.349 . S
C903 H895 0.950 . S
C903 C901 1.327 . S
C904 C892 1.349 . S
C904 H898 0.950 . S
C904 C905 1.327 . S
C905 H899 0.950 . S
C905 C904 1.327 . S
C905 C909 1.429 . S
C906 C889 1.574 . S
C906 H900 0.949 . S
C906 C910 1.368 . S
C907 C888 1.429 . S
C907 C901 1.429 . S
C907 C908 1.523 . S
C908 C889 1.368 . S
C908 C902 1.368 . S
C908 C907 1.523 . S
C909 C893 1.429 . S
C909 C905 1.429 . S
C909 C910 1.523 . S
C910 C894 1.368 . S
C910 C906 1.368 . S
C910 C909 1.523 . S
H911 C886 0.950 . S
H912 C888 0.950 . S
H913 C889 0.949 . S
H914 C891 0.950 . S
H915 C893 0.950 . S
C916 C917 1.349 . S
C916 C918 1.327 . S
C916 H941 0.950 . S
C917 C916 1.349 . S
C917 C933 1.349 . S
C918 C916 1.327 . S
C918 C937 1.429 . S
C918 H942 0.950 . S
C919 C936 1.574 . S
C919 C938 1.368 . S
C919 H943 0.949 . S
H920 C924 0.949 . S
C921 C922 1.349 . S
C921 C923 1.327 . S
C921 H944 0.950 . S
C922 C921 1.349 . S
C922 C934 1.349 . S
C923 C921 1.327 . S
C923 C939 1.429 . S
C923 H945 0.950 . S
C924 H920 0.949 . S
C924 C932 1.574 . S
C924 C940 1.368 . S
H925 C933 0.950 . S
H926 C931 0.950 . S
H927 C932 0.949 . S
H928 C934 0.950 . S
H929 C935 0.950 . S
H930 C936 0.949 . S
C931 H926 0.950 . S
C931 C933 1.327 . S
C931 C937 1.429 . S
C932 C924 1.574 . S
C932 H927 0.949 . S
C932 C938 1.368 . S
C933 C917 1.349 . S
C933 H925 0.950 . S
C933 C931 1.327 . S
C934 C922 1.349 . S
C934 H928 0.950 . S
C934 C935 1.327 . S
C935 H929 0.950 . S
C935 C934 1.327 . S
C935 C939 1.429 . S
C936 C919 1.574 . S
C936 H930 0.949 . S
C936 C940 1.368 . S
C937 C918 1.429 . S
C937 C931 1.429 . S
C937 C938 1.523 . S
C938 C919 1.368 . S
C938 C932 1.368 . S
C938 C937 1.523 . S
C939 C923 1.429 . S
C939 C935 1.429 . S
C939 C940 1.523 . S
C940 C924 1.368 . S
C940 C936 1.368 . S
C940 C939 1.523 . S
H941 C916 0.950 . S
H942 C918 0.950 . S
H943 C919 0.949 . S
H944 C921 0.950 . S
H945 C923 0.950 . S
C946 C947 1.349 . S
C946 C948 1.327 . S
C946 H971 0.950 . S
C947 C946 1.349 . S
C947 C963 1.349 . S
C948 C946 1.327 . S
C948 C967 1.429 . S
C948 H972 0.950 . S
C949 C966 1.574 . S
C949 C968 1.368 . S
C949 H973 0.949 . S
H950 C954 0.949 . S
C951 C952 1.349 . S
C951 C953 1.327 . S
C951 H974 0.950 . S
C952 C951 1.349 . S
C952 C964 1.349 . S
C953 C951 1.327 . S
C953 C969 1.429 . S
C953 H975 0.950 . S
C954 H950 0.949 . S
C954 C962 1.574 . S
C954 C970 1.368 . S
H955 C963 0.950 . S
H956 C961 0.950 . S
H957 C962 0.949 . S
H958 C964 0.950 . S
H959 C965 0.950 . S
H960 C966 0.949 . S
C961 H956 0.950 . S
C961 C963 1.327 . S
C961 C967 1.429 . S
C962 C954 1.574 . S
C962 H957 0.949 . S
C962 C968 1.368 . S
C963 C947 1.349 . S
C963 H955 0.950 . S
C963 C961 1.327 . S
C964 C952 1.349 . S
C964 H958 0.950 . S
C964 C965 1.327 . S
C965 H959 0.950 . S
C965 C964 1.327 . S
C965 C969 1.429 . S
C966 C949 1.574 . S
C966 H960 0.949 . S
C966 C970 1.368 . S
C967 C948 1.429 . S
C967 C961 1.429 . S
C967 C968 1.523 . S
C968 C949 1.368 . S
C968 C962 1.368 . S
C968 C967 1.523 . S
C969 C953 1.429 . S
C969 C965 1.429 . S
C969 C970 1.523 . S
C970 C954 1.368 . S
C970 C966 1.368 . S
C970 C969 1.523 . S
H971 C946 0.950 . S
H972 C948 0.950 . S
H973 C949 0.949 . S
H974 C951 0.950 . S
H975 C953 0.950 . S
C976 C977 1.349 . S
C976 C978 1.327 . S
C976 H1001 0.950 . S
C977 C976 1.349 . S
C977 C993 1.349 . S
C978 C976 1.327 . S
C978 C997 1.429 . S
C978 H1002 0.950 . S
C979 C996 1.574 . S
C979 C998 1.368 . S
C979 H1003 0.949 . S
H980 C984 0.949 . S
C981 C982 1.349 . S
C981 C983 1.327 . S
C981 H1004 0.950 . S
C982 C981 1.349 . S
C982 C994 1.349 . S
C983 C981 1.327 . S
C983 C999 1.429 . S
C983 H1005 0.950 . S
C984 H980 0.949 . S
C984 C992 1.574 . S
C984 C1000 1.368 . S
H985 C993 0.950 . S
H986 C991 0.950 . S
H987 C992 0.949 . S
H988 C994 0.950 . S
H989 C995 0.950 . S
H990 C996 0.949 . S
C991 H986 0.950 . S
C991 C993 1.327 . S
C991 C997 1.429 . S
C992 C984 1.574 . S
C992 H987 0.949 . S
C992 C998 1.368 . S
C993 C977 1.349 . S
C993 H985 0.950 . S
C993 C991 1.327 . S
C994 C982 1.349 . S
C994 H988 0.950 . S
C994 C995 1.327 . S
C995 H989 0.950 . S
C995 C994 1.327 . S
C995 C999 1.429 . S
C996 C979 1.574 . S
C996 H990 0.949 . S
C996 C1000 1.368 . S
C997 C978 1.429 . S
C997 C991 1.429 . S
C997 C998 1.523 . S
C998 C979 1.368 . S
C998 C992 1.368 . S
C998 C997 1.523 . S
C999 C983 1.429 . S
C999 C995 1.429 . S
C999 C1000 1.523 . S
C1000 C984 1.368 . S
C1000 C996 1.368 . S
C1000 C999 1.523 . S
H1001 C976 0.950 . S
H1002 C978 0.950 . S
H1003 C979 0.949 . S
H1004 C981 0.950 . S
H1005 C983 0.950 . S
C1006 C1007 1.349 . S
C1006 C1008 1.327 . S
C1006 H1031 0.950 . S
C1007 C1006 1.349 . S
C1007 C1023 1.349 . S
C1008 C1006 1.327 . S
C1008 C1027 1.429 . S
C1008 H1032 0.950 . S
C1009 C1026 1.574 . S
C1009 C1028 1.368 . S
C1009 H1033 0.949 . S
H1010 C1014 0.949 . S
C1011 C1012 1.349 . S
C1011 C1013 1.327 . S
C1011 H1034 0.950 . S
C1012 C1011 1.349 . S
C1012 C1024 1.349 . S
C1013 C1011 1.327 . S
C1013 C1029 1.429 . S
C1013 H1035 0.950 . S
C1014 H1010 0.949 . S
C1014 C1022 1.574 . S
C1014 C1030 1.368 . S
H1015 C1023 0.950 . S
H1016 C1021 0.950 . S
H1017 C1022 0.949 . S
H1018 C1024 0.950 . S
H1019 C1025 0.950 . S
H1020 C1026 0.949 . S
C1021 H1016 0.950 . S
C1021 C1023 1.327 . S
C1021 C1027 1.429 . S
C1022 C1014 1.574 . S
C1022 H1017 0.949 . S
C1022 C1028 1.368 . S
C1023 C1007 1.349 . S
C1023 H1015 0.950 . S
C1023 C1021 1.327 . S
C1024 C1012 1.349 . S
C1024 H1018 0.950 . S
C1024 C1025 1.327 . S
C1025 H1019 0.950 . S
C1025 C1024 1.327 . S
C1025 C1029 1.429 . S
C1026 C1009 1.574 . S
C1026 H1020 0.949 . S
C1026 C1030 1.368 . S
C1027 C1008 1.429 . S
C1027 C1021 1.429 . S
C1027 C1028 1.523 . S
C1028 C1009 1.368 . S
C1028 C1022 1.368 . S
C1028 C1027 1.523 . S
C1029 C1013 1.429 . S
C1029 C1025 1.429 . S
C1029 C1030 1.523 . S
C1030 C1014 1.368 . S
C1030 C1026 1.368 . S
C1030 C1029 1.523 . S
H1031 C1006 0.950 . S
H1032 C1008 0.950 . S
H1033 C1009 0.949 . S
H1034 C1011 0.950 . S
H1035 C1013 0.950 . S
C1036 C1037 1.349 . S
C1036 C1038 1.327 . S
C1036 H1061 0.950 . S
C1037 C1036 1.349 . S
C1037 C1053 1.349 . S
C1038 C1036 1.327 . S
C1038 C1057 1.429 . S
C1038 H1062 0.950 . S
C1039 C1056 1.574 . S
C1039 C1058 1.368 . S
C1039 H1063 0.949 . S
H1040 C1044 0.949 . S
C1041 C1042 1.349 . S
C1041 C1043 1.327 . S
C1041 H1064 0.950 . S
C1042 C1041 1.349 . S
C1042 C1054 1.349 . S
C1043 C1041 1.327 . S
C1043 C1059 1.429 . S
C1043 H1065 0.950 . S
C1044 H1040 0.949 . S
C1044 C1052 1.574 . S
C1044 C1060 1.368 . S
H1045 C1053 0.950 . S
H1046 C1051 0.950 . S
H1047 C1052 0.949 . S
H1048 C1054 0.950 . S
H1049 C1055 0.950 . S
H1050 C1056 0.949 . S
C1051 H1046 0.950 . S
C1051 C1053 1.327 . S
C1051 C1057 1.429 . S
C1052 C1044 1.574 . S
C1052 H1047 0.949 . S
C1052 C1058 1.368 . S
C1053 C1037 1.349 . S
C1053 H1045 0.950 . S
C1053 C1051 1.327 . S
C1054 C1042 1.349 . S
C1054 H1048 0.950 . S
C1054 C1055 1.327 . S
C1055 H1049 0.950 . S
C1055 C1054 1.327 . S
C1055 C1059 1.429 . S
C1056 C1039 1.574 . S
C1056 H1050 0.949 . S
C1056 C1060 1.368 . S
C1057 C1038 1.429 . S
C1057 C1051 1.429 . S
C1057 C1058 1.523 . S
C1058 C1039 1.368 . S
C1058 C1052 1.368 . S
C1058 C1057 1.523 . S
C1059 C1043 1.429 . S
C1059 C1055 1.429 . S
C1059 C1060 1.523 . S
C1060 C1044 1.368 . S
C1060 C1056 1.368 . S
C1060 C1059 1.523 . S
H1061 C1036 0.950 . S
H1062 C1038 0.950 . S
H1063 C1039 0.949 . S
H1064 C1041 0.950 . S
H1065 C1043 0.950 . S
C1066 C1067 1.349 . S
C1066 C1068 1.327 . S
C1066 H1091 0.950 . S
C1067 C1066 1.349 . S
C1067 C1083 1.349 . S
C1068 C1066 1.327 . S
C1068 C1087 1.429 . S
C1068 H1092 0.950 . S
C1069 C1086 1.574 . S
C1069 C1088 1.368 . S
C1069 H1093 0.949 . S
H1070 C1074 0.949 . S
C1071 C1072 1.349 . S
C1071 C1073 1.327 . S
C1071 H1094 0.950 . S
C1072 C1071 1.349 . S
C1072 C1084 1.349 . S
C1073 C1071 1.327 . S
C1073 C1089 1.429 . S
C1073 H1095 0.950 . S
C1074 H1070 0.949 . S
C1074 C1082 1.574 . S
C1074 C1090 1.368 . S
H1075 C1083 0.950 . S
H1076 C1081 0.950 . S
H1077 C1082 0.949 . S
H1078 C1084 0.950 . S
H1079 C1085 0.950 . S
H1080 C1086 0.949 . S
C1081 H1076 0.950 . S
C1081 C1083 1.327 . S
C1081 C1087 1.429 . S
C1082 C1074 1.574 . S
C1082 H1077 0.949 . S
C1082 C1088 1.368 . S
C1083 C1067 1.349 . S
C1083 H1075 0.950 . S
C1083 C1081 1.327 . S
C1084 C1072 1.349 . S
C1084 H1078 0.950 . S
C1084 C1085 1.327 . S
C1085 H1079 0.950 . S
C1085 C1084 1.327 . S
C1085 C1089 1.429 . S
C1086 C1069 1.574 . S
C1086 H1080 0.949 . S
C1086 C1090 1.368 . S
C1087 C1068 1.429 . S
C1087 C1081 1.429 . S
C1087 C1088 1.523 . S
C1088 C1069 1.368 . S
C1088 C1082 1.368 . S
C1088 C1087 1.523 . S
C1089 C1073 1.429 . S
C1089 C1085 1.429 . S
C1089 C1090 1.523 . S
C1090 C1074 1.368 . S
C1090 C1086 1.368 . S
C1090 C1089 1.523 . S
H1091 C1066 0.950 . S
H1092 C1068 0.950 . S
H1093 C1069 0.949 . S
H1094 C1071 0.950 . S
H1095 C1073 0.950 . S
C377 C25 1.512 . S
C382 C314 1.504 . S
C412 C292 1.506 . S
C407 C61 1.514 . S
C442 C318 1.506 . S
C437 C97 1.539 . S
C472 C296 1.506 . S
C467 C133 1.535 . S
C502 C358 1.506 . S
C497 C169 1.512 . S
C532 C336 1.506 . S
C527 C205 1.512 . S
C557 C241 1.538 . S
C562 C362 1.506 . S
C592 C340 1.506 . S
C587 C277 1.537 . S
C617 C31 1.511 . S
C622 C363 1.533 . S
C652 C341 1.533 . S
C647 C67 1.511 . S
C677 C103 1.534 . S
C682 C360 1.533 . S
C707 C139 1.534 . S
C712 C338 1.533 . S
C742 C319 1.533 . S
C737 C175 1.512 . S
C767 C211 1.511 . S
C772 C297 1.531 . S
C802 C316 1.533 . S
C797 C247 1.532 . S
C832 C294 1.533 . S
C827 C283 1.535 . S
C862 C337 1.487 . S
C857 C1 1.480 . S
C892 C359 1.487 . S
C887 C37 1.480 . S
C917 C73 1.500 . S
C922 C339 1.487 . S
C952 C361 1.487 . S
C947 C109 1.500 . S
C982 C293 1.487 . S
C977 C145 1.482 . S
C1007 C181 1.480 . S
C1012 C315 1.484 . S
C1037 C217 1.500 . S
C1042 C295 1.484 . S
C1067 C253 1.500 . S
C1072 C317 1.489 . S
