# Generated by pormake.
# Topology pth, (4,4)-cn, num edge types: 1
# Building blocks:
#     Node 0, Type 0, BuildingBlock: UXUYUI_clean_sbu_0, # of connection points: 4
#     Node 1, Type 0, BuildingBlock: UXUYUI_clean_sbu_0, # of connection points: 4
#     Node 2, Type 0, BuildingBlock: UXUYUI_clean_sbu_0, # of connection points: 4
#     Node 3, Type 1, BuildingBlock: MUDLON_clean_linker_0, # of connection points: 4
#     Node 4, Type 1, BuildingBlock: MUDLON_clean_linker_0, # of connection points: 4
#     Node 5, Type 1, BuildingBlock: MUDLON_clean_linker_0, # of connection points: 4
#     Edge 6, Type (0, 1), BuildingBlock: XUDNAN_clean_linker_2, # of connection points: 2
#     Edge 7, Type (0, 1), BuildingBlock: XUDNAN_clean_linker_2, # of connection points: 2
#     Edge 8, Type (0, 1), BuildingBlock: XUDNAN_clean_linker_2, # of connection points: 2
#     Edge 9, Type (0, 1), BuildingBlock: XUDNAN_clean_linker_2, # of connection points: 2
#     Edge 10, Type (0, 1), BuildingBlock: XUDNAN_clean_linker_2, # of connection points: 2
#     Edge 11, Type (0, 1), BuildingBlock: XUDNAN_clean_linker_2, # of connection points: 2
#     Edge 12, Type (0, 1), BuildingBlock: XUDNAN_clean_linker_2, # of connection points: 2
#     Edge 13, Type (0, 1), BuildingBlock: XUDNAN_clean_linker_2, # of connection points: 2
#     Edge 14, Type (0, 1), BuildingBlock: XUDNAN_clean_linker_2, # of connection points: 2
#     Edge 15, Type (0, 1), BuildingBlock: XUDNAN_clean_linker_2, # of connection points: 2
#     Edge 16, Type (0, 1), BuildingBlock: XUDNAN_clean_linker_2, # of connection points: 2
#     Edge 17, Type (0, 1), BuildingBlock: XUDNAN_clean_linker_2, # of connection points: 2
# Relax obj value: 0.088
# Max RMSD: 0.213
# Mean RMSD: 0.143
data_MOF--net-pth--node1-UXUYUI_clean_sbu_0--node2-MUDLON_clean_linker_0--edge1-XUDNAN_clean_linker_2
_symmetry_space_group_name_H-M    P1
_symmetry_Int_Tables_number       1
_symmetry_cell_setting            triclinic
loop_
_symmetry_equiv_pos_as_xyz
'x, y, z'
_cell_length_a     39.398642
_cell_length_b     39.383943
_cell_length_c     79.35794
_cell_angle_alpha  89.997083
_cell_angle_beta   90.028231
_cell_angle_gamma 120.00354
loop_
_atom_site_label
_atom_site_type_symbol
_atom_site_fract_x
_atom_site_fract_y
_atom_site_fract_z
_atom_type_partial_charge
Li0 Li 0.03267 0.02949 0.02728 0.0
Li1 Li 0.98521 0.02415 0.04809 0.0
Li2 Li 0.00396 0.97306 0.04599 0.0
Li3 Li 0.96228 0.9781 0.02426 0.0
C4 C 0.07536 0.04469 0.05751 0.0
N5 N 0.1529 0.07695 0.06713 0.0
C6 C 0.09302 0.07843 0.06752 0.0
C7 C 0.09716 0.02738 0.05244 0.0
C8 C 0.13225 0.09431 0.07223 0.0
C9 C 0.13628 0.04408 0.05743 0.0
C10 C 0.99875 0.07522 0.02099 0.0
C11 C 1.00025 0.12691 0.00412 0.0
N12 N 0.0255 0.15387 0.01532 0.0
C13 C 0.02476 0.10348 0.03232 0.0
C14 C 0.98641 0.08702 0.00676 0.0
C15 C 0.03792 0.14306 0.02924 0.0
C16 C 0.07949 0.06129 0.99805 0.0
N17 N 0.07738 0.06718 0.01482 0.0
C18 C 0.13357 0.13132 0.01299 0.0
C19 C 0.10395 0.10122 0.02237 0.0
C20 C 0.1358 0.12667 0.99557 0.0
C21 C 0.10879 0.09074 0.98814 0.0
H22 H 0.05755 0.03425 0.99228 0.0
H23 H 0.10121 0.10599 0.03553 0.0
C24 C 0.99037 0.06686 0.07753 0.0
N25 N 0.9709 0.05323 0.06273 0.0
C26 C 0.98505 0.09348 0.08718 0.0
C27 C 0.93755 0.08925 0.06677 0.0
C28 C 0.94446 0.06341 0.05734 0.0
C29 C 0.95879 0.10565 0.0817 0.0
H30 H 0.01116 0.05817 0.08152 0.0
H31 H 0.92973 0.05258 0.04541 0.0
C32 C 0.02521 0.95065 0.01624 0.0
N33 N 0.05606 0.90408 0.00667 0.0
C34 C 0.00049 0.91055 0.01344 0.0
C35 C 0.06555 0.96721 0.01373 0.0
C36 C 0.01665 0.88745 0.00874 0.0
C37 C 0.0806 0.94315 0.00901 0.0
C38 C 0.91428 0.95502 0.05407 0.0
C39 C 0.89975 0.93118 0.06832 0.0
C40 C 0.89089 0.96698 0.04564 0.0
C41 C 0.86193 0.91975 0.07395 0.0
C42 C 0.85325 0.95495 0.05166 0.0
N43 N 0.83966 0.93178 0.06558 0.0
C44 C 0.03242 0.93998 0.07122 0.0
C45 C 0.97726 0.8962 0.05494 0.0
C46 C 0.02927 0.90886 0.0809 0.0
N47 N 0.00669 0.93308 0.05845 0.0
C48 C 0.97282 0.86436 0.06436 0.0
C49 C 0.99876 0.87054 0.07767 0.0
H50 H 0.05437 0.96959 0.0744 0.0
H51 H 0.9563 0.89171 0.04517 0.0
C52 C 0.90702 0.96408 0.99821 0.0
N53 N 0.91915 0.94723 0.00991 0.0
C54 C 0.8739 0.94084 0.98838 0.0
C55 C 0.8669 0.88344 0.00268 0.0
C56 C 0.89971 0.90782 0.0124 0.0
C57 C 0.85356 0.89997 0.99055 0.0
H58 H 0.92278 0.99555 0.99667 0.0
H59 H 0.9094 0.8954 0.02214 0.0
O60 O 0.03717 0.02923 0.05249 0.0
O61 O 0.98565 0.03624 0.02368 0.0
O62 O 0.00985 0.97381 0.02072 0.0
O63 O 0.95114 0.96622 0.04837 0.0
H64 H 0.07688 0.09267 0.07137 0.0
H65 H 0.08378 0.0009 0.04502 0.0
H66 H 0.14632 0.12052 0.07989 0.0
H67 H 0.1534 0.03082 0.05363 0.0
H68 H 0.99094 0.13644 0.99315 0.0
H69 H 0.03494 0.09503 0.04333 0.0
H70 H 0.96646 0.06564 0.99781 0.0
H71 H 0.0581 0.16518 0.0379 0.0
H72 H 0.15396 0.15839 0.01926 0.0
H73 H 0.1092 0.08611 0.9747 0.0
H74 H 0.00256 0.10547 0.09844 0.0
H75 H 0.91631 0.0968 0.06217 0.0
H76 H 0.96915 0.89732 0.01488 0.0
H77 H 0.08511 0.99835 0.01534 0.0
H78 H 0.99785 0.85632 0.00669 0.0
H79 H 0.1118 0.95558 0.00715 0.0
H80 H 0.91751 0.92158 0.07494 0.0
H81 H 0.90172 0.98545 0.03459 0.0
H82 H 0.85027 0.9013 0.08497 0.0
H83 H 0.83484 0.96404 0.04528 0.0
H84 H 0.04932 0.91494 0.0913 0.0
H85 H 0.94887 0.83528 0.06148 0.0
H86 H 0.86449 0.95457 0.9791 0.0
H87 H 0.85161 0.85209 0.00486 0.0
Li88 Li 0.98833 0.95926 0.36003 0.0
Li89 Li 0.03895 0.00696 0.38051 0.0
Li90 Li 0.97167 0.99292 0.38137 0.0
Li91 Li 0.01236 0.03311 0.35905 0.0
C92 C 0.96561 0.93263 0.39686 0.0
N93 N 0.91208 0.8886 0.42148 0.0
C94 C 0.975 0.9418 0.41385 0.0
C95 C 0.92917 0.90102 0.39235 0.0
C96 C 0.94748 0.91919 0.42612 0.0
C97 C 0.90246 0.87912 0.405 0.0
C98 C 0.07697 0.0154 0.34812 0.0
C99 C 0.14214 0.06462 0.3397 0.0
N100 N 0.14819 0.03606 0.33328 0.0
C101 C 0.08368 0.98658 0.34124 0.0
C102 C 0.10629 0.05478 0.34719 0.0
C103 C 0.11993 0.9976 0.33388 0.0
C104 C 0.96878 0.90971 0.33099 0.0
N105 N 0.97885 0.91447 0.34757 0.0
C106 C 0.99456 0.86337 0.34634 0.0
C107 C 0.99034 0.89126 0.35545 0.0
C108 C 0.98655 0.85922 0.32901 0.0
C109 C 0.97205 0.88162 0.32141 0.0
H110 H 0.96067 0.92931 0.325 0.0
H111 H 0.99899 0.8964 0.36856 0.0
C112 C 0.09201 0.03121 0.40829 0.0
N113 N 0.08269 0.01296 0.39306 0.0
C114 C 0.12135 0.03109 0.41819 0.0
C115 C 0.13122 0.99407 0.39638 0.0
C116 C 0.10153 0.99454 0.38704 0.0
C117 C 0.14101 0.0118 0.41236 0.0
H118 H 0.07577 0.04469 0.41299 0.0
H119 H 0.09257 0.97896 0.37522 0.0
C120 C 0.92016 0.97619 0.35465 0.0
N121 N 0.84235 0.95427 0.3501 0.0
C122 C 0.90822 0.00404 0.356 0.0
C123 C 0.89267 0.93727 0.35083 0.0
C124 C 0.86869 0.99234 0.35372 0.0
C125 C 0.85342 0.92676 0.3486 0.0
C126 C 0.04332 0.08341 0.38665 0.0
C127 C 0.02675 0.10566 0.39212 0.0
C128 C 0.08388 0.10139 0.38456 0.0
C129 C 0.05102 0.14574 0.39509 0.0
C130 C 0.10718 0.14153 0.38769 0.0
N131 N 0.0904 0.1627 0.39282 0.0
C132 C 0.94867 0.01348 0.41069 0.0
C133 C 0.89355 0.96713 0.39516 0.0
C134 C 0.92456 0.01785 0.42226 0.0
N135 N 0.93306 0.98945 0.39716 0.0
C136 C 0.86824 0.97108 0.40631 0.0
C137 C 0.88375 0.99756 0.41986 0.0
H138 H 0.9801 0.02989 0.41236 0.0
H139 H 0.88153 0.94694 0.38476 0.0
C140 C 0.0401 0.07942 0.32926 0.0
N141 N 0.02224 0.07527 0.34438 0.0
C142 C 0.04501 0.10912 0.31817 0.0
C143 C 0.01271 0.12938 0.33836 0.0
C144 C 0.00843 0.09934 0.34902 0.0
C145 C 0.03096 0.13443 0.32264 0.0
H146 H 0.04972 0.05913 0.32563 0.0
H147 H 0.99328 0.0947 0.36086 0.0
O148 O 0.99156 0.95517 0.38466 0.0
O149 O 0.04156 0.00506 0.35537 0.0
O150 O 0.95871 0.98704 0.35663 0.0
O151 O 0.01988 0.04409 0.38373 0.0
H152 H 0.00306 0.96637 0.4175 0.0
H153 H 0.92147 0.89378 0.37922 0.0
H154 H 0.9542 0.92604 0.43933 0.0
H155 H 0.87404 0.85468 0.40172 0.0
H156 H 0.16508 0.09498 0.33893 0.0
H157 H 0.06127 0.956 0.34169 0.0
H158 H 0.10127 0.07759 0.35196 0.0
H159 H 0.12559 0.97556 0.32862 0.0
H160 H 0.00595 0.84665 0.35256 0.0
H161 H 0.96611 0.87944 0.30801 0.0
H162 H 0.12738 0.04456 0.43054 0.0
H163 H 0.14578 0.97923 0.39125 0.0
H164 H 0.92915 0.03426 0.35894 0.0
H165 H 0.90154 0.91543 0.34966 0.0
H166 H 0.85895 0.01351 0.35483 0.0
H167 H 0.83177 0.89673 0.34571 0.0
H168 H 0.9954 0.09217 0.39389 0.0
H169 H 0.09733 0.08454 0.38072 0.0
H170 H 0.03854 0.16334 0.3992 0.0
H171 H 0.13862 0.15582 0.38608 0.0
H172 H 0.93794 0.03739 0.43286 0.0
H173 H 0.83701 0.95454 0.40395 0.0
H174 H 0.05856 0.11145 0.30603 0.0
H175 H 0.00162 0.14829 0.34237 0.0
Li176 Li 0.02673 0.99591 0.69476 0.0
Li177 Li 0.02365 0.04102 0.71504 0.0
Li178 Li 0.98008 0.96727 0.71873 0.0
Li179 Li 0.96722 0.00349 0.69687 0.0
C180 C 0.06541 0.99177 0.72543 0.0
N181 N 0.1206 0.97505 0.73835 0.0
C182 C 0.10338 0.02208 0.72894 0.0
C183 C 0.05528 0.95302 0.72887 0.0
C184 C 0.13094 0.01302 0.73534 0.0
C185 C 0.08365 0.94514 0.7353 0.0
C186 C 0.04126 0.08049 0.68472 0.0
C187 C 0.04795 0.14468 0.68302 0.0
N188 N 0.08239 0.15794 0.67462 0.0
C189 C 0.07654 0.09462 0.67594 0.0
C190 C 0.02665 0.10557 0.68818 0.0
C191 C 0.09697 0.13392 0.67099 0.0
C192 C 0.04829 0.96783 0.66599 0.0
N193 N 0.06181 0.99021 0.68012 0.0
C194 C 0.12769 0.0077 0.67337 0.0
C195 C 0.10069 0.01044 0.68381 0.0
C196 C 0.11458 0.98424 0.65884 0.0
C197 C 0.07426 0.96421 0.65517 0.0
H198 H 0.01738 0.95309 0.66301 0.0
H199 H 0.11085 0.02922 0.69474 0.0
C200 C 0.04462 0.09618 0.74159 0.0
N201 N 0.05646 0.08862 0.72667 0.0
C202 C 0.07042 0.1289 0.75113 0.0
C203 C 0.11946 0.14603 0.72945 0.0
C204 C 0.09304 0.11269 0.72052 0.0
C205 C 0.10845 0.15409 0.74508 0.0
H206 H 0.01559 0.07612 0.74633 0.0
H207 H 0.10232 0.10515 0.70901 0.0
C208 C 0.95884 0.91775 0.6889 0.0
N209 N 0.93578 0.84269 0.67794 0.0
C210 C 0.92375 0.89627 0.68002 0.0
C211 C 0.98236 0.90118 0.69208 0.0
C212 C 0.91254 0.85832 0.67463 0.0
C213 C 0.97018 0.86318 0.68645 0.0
C214 C 0.93584 0.01364 0.72557 0.0
C215 C 0.90112 0.98087 0.73095 0.0
C216 C 0.93775 0.04991 0.72419 0.0
C217 C 0.86853 0.9848 0.73451 0.0
C218 C 0.90452 0.05265 0.72788 0.0
N219 N 0.87088 0.02029 0.73289 0.0
C220 C 0.96532 0.93408 0.75112 0.0
C221 C 0.92533 0.89019 0.72979 0.0
C222 C 0.94498 0.90591 0.76352 0.0
N223 N 0.95499 0.92588 0.73465 0.0
C224 C 0.9046 0.86102 0.74171 0.0
C225 C 0.91377 0.86885 0.7589 0.0
H226 H 0.98862 0.96297 0.75465 0.0
H227 H 0.91684 0.88453 0.71672 0.0
C228 C 0.92829 0.02568 0.67219 0.0
N229 N 0.9242 0.00053 0.6848 0.0
C230 C 0.89574 0.01903 0.66256 0.0
C231 C 0.85556 0.96155 0.67944 0.0
C232 C 0.88877 0.96913 0.68861 0.0
C233 C 0.85888 0.98609 0.66595 0.0
H234 H 0.95696 0.05001 0.6692 0.0
H235 H 0.88656 0.94912 0.69844 0.0
O236 O 0.03791 1.00019 0.71936 0.0
O237 O 0.02108 0.0422 0.68979 0.0
O238 O 0.97007 0.95487 0.69434 0.0
O239 O 0.96798 0.01032 0.72195 0.0
H240 H 0.11161 0.05228 0.7266 0.0
H241 H 0.02575 0.92924 0.7268 0.0
H242 H 0.16052 0.03618 0.73796 0.0
H243 H 0.07623 0.91527 0.73795 0.0
H244 H 0.03707 0.16447 0.68568 0.0
H245 H 0.08812 0.07551 0.67307 0.0
H246 H 0.99919 0.09495 0.69477 0.0
H247 H 0.12442 0.14533 0.66428 0.0
H248 H 0.15846 0.02365 0.6767 0.0
H249 H 0.06297 0.94652 0.6439 0.0
H250 H 0.06104 0.13416 0.76319 0.0
H251 H 0.14881 0.16429 0.72457 0.0
H252 H 0.90531 0.90873 0.67734 0.0
H253 H 0.01 0.9177 0.69856 0.0
H254 H 0.88539 0.84132 0.66779 0.0
H255 H 0.98814 0.85003 0.6888 0.0
H256 H 0.89926 0.95263 0.73221 0.0
H257 H 0.96464 0.07571 0.7204 0.0
H258 H 0.84137 0.95962 0.73855 0.0
H259 H 0.90552 0.08051 0.72679 0.0
H260 H 0.95275 0.91367 0.77661 0.0
H261 H 0.8812 0.83283 0.73747 0.0
H262 H 0.89974 0.03843 0.65214 0.0
H263 H 0.82772 0.93612 0.68266 0.0
H264 H 0.97922 0.65812 0.20952 0.0
N265 N 0.03681 0.64031 0.20213 0.0
H266 H 0.97688 0.69387 0.23382 0.0
H267 H 0.08105 0.65862 0.22973 0.0
H268 H 0.07646 0.69072 0.2552 0.0
H269 H 0.08377 0.70938 0.18797 0.0
H270 H 0.06867 0.7403 0.16481 0.0
H271 H 0.97053 0.6055 0.18252 0.0
H272 H 0.95618 0.6348 0.15852 0.0
H273 H 0.97749 0.58271 0.22134 0.0
H274 H 0.06327 0.60306 0.18304 0.0
H275 H 0.95864 0.51411 0.22231 0.0
H276 H 0.04163 0.5334 0.18252 0.0
H277 H 0.91096 0.28663 0.2221 0.0
H278 H 0.93282 0.25683 0.24333 0.0
H279 H 0.04656 0.36194 0.24426 0.0
H280 H 0.02525 0.39076 0.2228 0.0
H281 H 0.01508 0.34633 0.19417 0.0
H282 H 0.01435 0.30998 0.16906 0.0
H283 H 0.89802 0.28737 0.15703 0.0
H284 H 0.89828 0.32277 0.18259 0.0
H285 H 0.90944 0.38522 0.21304 0.0
H286 H 0.9267 0.45374 0.21085 0.0
H287 H 0.04399 0.48389 0.19545 0.0
N288 N 0.95383 0.35397 0.20605 0.0
H289 H 0.02474 0.41499 0.19594 0.0
C290 C 0.0314 0.65694 0.21748 0.0
C291 C 0.0009 0.66549 0.21932 0.0
C292 C 0.9992 0.68554 0.23351 0.0
C293 C 0.02692 0.69616 0.24658 0.0
C294 C 0.05548 0.68468 0.24522 0.0
C295 C 0.05795 0.66583 0.23074 0.0
C296 C 0.02863 0.65516 0.18692 0.0
C297 C 0.05609 0.69287 0.18141 0.0
C298 C 0.04739 0.71036 0.16807 0.0
C299 C 0.01107 0.69019 0.15969 0.0
C300 C 0.98413 0.65164 0.16482 0.0
C301 C 0.99254 0.63449 0.17842 0.0
C302 C 0.02267 0.59856 0.20232 0.0
C303 C 0.99214 0.57245 0.21298 0.0
C304 C 0.98085 0.53268 0.21332 0.0
C305 C 0.99861 0.51756 0.20258 0.0
C306 C 0.02795 0.54363 0.19143 0.0
C307 C 0.04014 0.58358 0.19152 0.0
C308 C 0.96606 0.34089 0.2207 0.0
C309 C 0.94035 0.30349 0.22715 0.0
C310 C 0.95292 0.28656 0.23932 0.0
C311 C 0.99164 0.30685 0.2454 0.0
C312 C 0.0168 0.34517 0.23961 0.0
C313 C 0.00432 0.36195 0.22734 0.0
C314 C 0.95629 0.33667 0.1904 0.0
C315 C 0.98942 0.33372 0.18616 0.0
C316 C 0.98902 0.31294 0.17183 0.0
C317 C 0.95602 0.29572 0.16126 0.0
C318 C 0.92381 0.30046 0.16501 0.0
C319 C 0.9239 0.32056 0.17954 0.0
C320 C 0.9659 0.39505 0.20506 0.0
C321 C 0.9388 0.40682 0.20915 0.0
C322 C 0.94899 0.44622 0.20803 0.0
C323 C 0.98708 0.4751 0.20316 0.0
C324 C 0.01418 0.46294 0.19898 0.0
C325 C 0.00346 0.42335 0.19956 0.0
H326 H 0.67708 0.02581 0.54981 0.0
N327 N 0.60616 0.96775 0.5381 0.0
H328 H 0.71141 0.02217 0.57465 0.0
H329 H 0.57657 0.91448 0.56251 0.0
H330 H 0.60956 0.91168 0.58813 0.0
H331 H 0.62627 0.919 0.52436 0.0
H332 H 0.67528 0.93336 0.50264 0.0
H333 H 0.64495 0.03619 0.5201 0.0
H334 H 0.69193 0.05016 0.49744 0.0
H335 H 0.61028 0.03011 0.55569 0.0
H336 H 0.54291 0.941 0.51885 0.0
H337 H 0.56139 0.05053 0.55576 0.0
H338 H 0.49543 0.96338 0.51769 0.0
H339 H 0.37577 0.09382 0.55327 0.0
H340 H 0.32739 0.07545 0.57575 0.0
H341 H 0.33194 0.96942 0.58424 0.0
H342 H 0.37863 0.98693 0.56158 0.0
H343 H 0.33625 0.98177 0.53237 0.0
H344 H 0.29467 0.96884 0.50779 0.0
H345 H 0.3734 0.08555 0.4892 0.0
H346 H 0.41518 0.09845 0.51412 0.0
H347 H 0.47984 0.09786 0.54428 0.0
H348 H 0.53188 0.08131 0.54244 0.0
H349 H 0.44452 0.96036 0.53272 0.0
N350 N 0.40323 0.05056 0.53995 0.0
H351 H 0.39384 0.97778 0.53333 0.0
C352 C 0.62456 0.96973 0.55409 0.0
C353 C 0.66211 0.00087 0.55814 0.0
C354 C 0.68158 0.99893 0.57252 0.0
C355 C 0.66362 0.96623 0.58331 0.0
C356 C 0.62483 0.93672 0.57986 0.0
C357 C 0.6057 0.93838 0.56533 0.0
C358 C 0.63168 0.97622 0.52376 0.0
C359 C 0.64027 0.94752 0.51835 0.0
C360 C 0.66818 0.95581 0.50582 0.0
C361 C 0.6878 0.99302 0.49816 0.0
C362 C 0.67807 0.02142 0.50321 0.0
C363 C 0.65071 0.01332 0.51604 0.0
C364 C 0.57969 0.98312 0.53754 0.0
C365 C 0.58513 0.01508 0.54748 0.0
C366 C 0.55722 0.02715 0.54733 0.0
C367 C 0.52385 0.00833 0.53691 0.0
C368 C 0.51984 0.97781 0.52633 0.0
C369 C 0.54718 0.96516 0.52681 0.0
C370 C 0.38101 0.04203 0.55546 0.0
C371 C 0.36691 0.06702 0.56023 0.0
C372 C 0.33927 0.05646 0.57312 0.0
C373 C 0.32531 0.02063 0.58167 0.0
C374 C 0.34134 0.99678 0.57765 0.0
C375 C 0.36862 0.00713 0.56464 0.0
C376 C 0.37914 0.04119 0.52504 0.0
C377 C 0.34502 0.00447 0.52294 0.0
C378 C 0.32121 0.99706 0.50883 0.0
C379 C 0.33082 0.02613 0.49653 0.0
C380 C 0.3651 0.06268 0.49854 0.0
C381 C 0.38908 0.07002 0.51267 0.0
C382 C 0.4329 0.03925 0.53912 0.0
C383 C 0.47217 0.06786 0.54168 0.0
C384 C 0.50183 0.0582 0.54074 0.0
C385 C 0.49269 0.01937 0.53744 0.0
C386 C 0.45313 0.99075 0.53489 0.0
C387 C 0.42375 0.00064 0.53545 0.0
H388 H 0.60931 0.70847 0.87561 0.0
N389 N 0.6083 0.64222 0.86884 0.0
H390 H 0.63916 0.75141 0.89984 0.0
H391 H 0.63526 0.62375 0.89731 0.0
H392 H 0.66369 0.66557 0.92194 0.0
H393 H 0.67159 0.63114 0.87046 0.0
H394 H 0.728 0.65969 0.85177 0.0
H395 H 0.61705 0.68249 0.84091 0.0
H396 H 0.67465 0.71387 0.82281 0.0
H397 H 0.53353 0.61637 0.86211 0.0
H398 H 0.61372 0.57657 0.87583 0.0
H399 H 0.47951 0.54848 0.86179 0.0
H400 H 0.56008 0.50908 0.87603 0.0
H401 H 0.32615 0.36912 0.87959 0.0
H402 H 0.28695 0.33785 0.90458 0.0
H403 H 0.3605 0.28845 0.91607 0.0
H404 H 0.40022 0.32048 0.89096 0.0
H405 H 0.36594 0.29676 0.85167 0.0
H406 H 0.32037 0.27053 0.82786 0.0
H407 H 0.31134 0.37536 0.82728 0.0
H408 H 0.35651 0.40124 0.85111 0.0
H409 H 0.38648 0.42796 0.88 0.0
H410 H 0.4405 0.49509 0.88049 0.0
H411 H 0.5157 0.45779 0.8573 0.0
N412 N 0.38866 0.3632 0.86818 0.0
H413 H 0.46137 0.38997 0.85736 0.0
C414 C 0.61984 0.66294 0.88463 0.0
C415 C 0.62043 0.69867 0.88588 0.0
C416 C 0.63742 0.72309 0.89979 0.0
C417 C 0.65407 0.7121 0.91287 0.0
C418 C 0.65175 0.67528 0.91198 0.0
C419 C 0.63505 0.65103 0.89794 0.0
C420 C 0.63959 0.65402 0.85684 0.0
C421 C 0.67126 0.64777 0.8597 0.0
C422 C 0.70403 0.66491 0.84914 0.0
C423 C 0.70633 0.68951 0.83578 0.0
C424 C 0.67393 0.69462 0.83271 0.0
C425 C 0.64092 0.67684 0.84308 0.0
C426 C 0.57762 0.60176 0.86899 0.0
C427 C 0.53939 0.59298 0.86515 0.0
C428 C 0.50858 0.5542 0.86508 0.0
C429 C 0.5154 0.52325 0.86893 0.0
C430 C 0.55384 0.53212 0.8728 0.0
C431 C 0.58467 0.57096 0.8728 0.0
C432 C 0.36658 0.34752 0.88351 0.0
C433 C 0.33445 0.35227 0.8876 0.0
C434 C 0.31196 0.3343 0.90191 0.0
C435 C 0.32074 0.31079 0.91227 0.0
C436 C 0.35298 0.30626 0.90824 0.0
C437 C 0.37578 0.32467 0.89402 0.0
C438 C 0.365 0.35097 0.85311 0.0
C439 C 0.35448 0.31423 0.84625 0.0
C440 C 0.32828 0.29923 0.83277 0.0
C441 C 0.31222 0.32088 0.82579 0.0
C442 C 0.32354 0.35821 0.83234 0.0
C443 C 0.34945 0.37304 0.84597 0.0
C444 C 0.4199 0.40356 0.86874 0.0
C445 C 0.41449 0.43386 0.87513 0.0
C446 C 0.44549 0.47256 0.87526 0.0
C447 C 0.48252 0.48194 0.86893 0.0
C448 C 0.48778 0.45159 0.86251 0.0
C449 C 0.45676 0.41287 0.86243 0.0
H450 H 0.96515 0.12005 0.11601 0.0
H451 H 0.94492 0.16238 0.06858 0.0
H452 H 0.93988 0.21403 0.08381 0.0
H453 H 0.90291 0.14008 0.14213 0.0
H454 H 0.93619 0.15644 0.15978 0.0
H455 H 0.93552 0.12093 0.14528 0.0
H456 H 0.00995 0.16586 0.13997 0.0
H457 H 0.01085 0.20152 0.15444 0.0
H458 H 0.0282 0.2157 0.13316 0.0
H459 H 0.9369 0.26141 0.10426 0.0
H460 H 0.93988 0.30285 0.12838 0.0
H461 H 0.96793 0.23328 0.16181 0.0
C462 C 0.95991 0.14021 0.10872 0.0
C463 C 0.95497 0.13649 0.09102 0.0
C464 C 0.94772 0.16357 0.08216 0.0
C465 C 0.94517 0.19339 0.09069 0.0
C466 C 0.95045 0.19623 0.10807 0.0
C467 C 0.958 0.17059 0.11697 0.0
C468 C 0.9642 0.18101 0.13551 0.0
C469 C 0.93283 0.14763 0.14631 0.0
C470 C 0.00577 0.19166 0.14109 0.0
C471 C 0.95899 0.21656 0.13563 0.0
C472 C 0.95064 0.22464 0.11971 0.0
C473 C 0.94365 0.25553 0.11677 0.0
C474 C 0.94533 0.27882 0.13049 0.0
C475 C 0.9545 0.27136 0.14681 0.0
C476 C 0.96144 0.23988 0.14937 0.0
H477 H 0.80883 0.94505 0.43093 0.0
H478 H 0.89993 0.06748 0.43423 0.0
H479 H 0.85888 0.08002 0.45368 0.0
H480 H 0.72697 0.96445 0.43127 0.0
H481 H 0.69597 0.92117 0.44344 0.0
H482 H 0.73238 0.92175 0.42952 0.0
H483 H 0.76212 0.90276 0.45444 0.0
H484 H 0.72594 0.90225 0.46844 0.0
H485 H 0.77732 0.93266 0.47318 0.0
H486 H 0.81001 0.07856 0.47417 0.0
H487 H 0.75564 0.06365 0.49354 0.0
H488 H 0.69324 0.94392 0.47473 0.0
C489 C 0.82002 0.97465 0.43551 0.0
C490 C 0.85801 0.00509 0.43115 0.0
C491 C 0.87146 0.04331 0.43767 0.0
C492 C 0.84817 0.0509 0.44861 0.0
C493 C 0.81115 0.02018 0.45274 0.0
C494 C 0.79693 0.98293 0.44627 0.0
C495 C 0.75614 0.9551 0.45286 0.0
C496 C 0.72609 0.93972 0.43841 0.0
C497 C 0.75536 0.9212 0.46282 0.0
C498 C 0.7501 0.9824 0.46431 0.0
C499 C 0.78217 0.01979 0.46405 0.0
C500 C 0.78437 0.04956 0.47426 0.0
C501 C 0.75304 0.04081 0.48515 0.0
C502 C 0.71966 0.00263 0.48567 0.0
C503 C 0.71824 0.97333 0.47485 0.0
H504 H 0.83421 0.81806 0.75844 0.0
H505 H 0.93799 0.85329 0.78908 0.0
H506 H 0.89662 0.8078 0.81143 0.0
H507 H 0.77104 0.81018 0.79064 0.0
H508 H 0.72864 0.76748 0.78228 0.0
H509 H 0.7666 0.80087 0.76828 0.0
H510 H 0.77449 0.74383 0.75648 0.0
H511 H 0.7363 0.71013 0.77038 0.0
H512 H 0.78378 0.71382 0.77077 0.0
H513 H 0.84315 0.76287 0.83136 0.0
H514 H 0.78236 0.72104 0.84702 0.0
H515 H 0.71432 0.7107 0.80221 0.0
C516 C 0.84857 0.8156 0.76962 0.0
C517 C 0.88952 0.83941 0.77193 0.0
C518 C 0.90668 0.83585 0.78705 0.0
C519 C 0.88346 0.80982 0.79978 0.0
C520 C 0.84319 0.78715 0.79711 0.0
C521 C 0.82597 0.78949 0.78233 0.0
C522 C 0.78191 0.76302 0.7828 0.0
C523 C 0.76083 0.78682 0.78089 0.0
C524 C 0.76833 0.73078 0.76931 0.0
C525 C 0.77689 0.74616 0.80035 0.0
C526 C 0.81256 0.76031 0.80838 0.0
C527 C 0.8151 0.75093 0.82507 0.0
C528 C 0.78025 0.7268 0.83383 0.0
C529 C 0.74321 0.71203 0.82588 0.0
C530 C 0.7419 0.7215 0.80878 0.0
H531 H 0.05341 0.85254 0.08962 0.0
H532 H 0.92943 0.8149 0.09126 0.0
H533 H 0.91841 0.76198 0.11103 0.0
H534 H 0.04144 0.75407 0.09201 0.0
H535 H 0.0842 0.76991 0.10507 0.0
H536 H 0.08201 0.80349 0.09029 0.0
H537 H 0.09551 0.85286 0.11449 0.0
H538 H 0.09764 0.81942 0.12934 0.0
H539 H 0.064 0.83722 0.13272 0.0
H540 H 0.92174 0.71712 0.13238 0.0
H541 H 0.93858 0.6816 0.15315 0.0
H542 H 0.05984 0.74531 0.13638 0.0
C543 C 0.02393 0.83297 0.09407 0.0
C544 C 0.99223 0.83766 0.08885 0.0
C545 C 0.95404 0.81145 0.0949 0.0
C546 C 0.94751 0.78142 0.10618 0.0
C547 C 0.9794 0.77773 0.11116 0.0
C548 C 0.01681 0.80253 0.10521 0.0
C549 C 0.04608 0.7927 0.11287 0.0
C550 C 0.06451 0.77923 0.09924 0.0
C551 C 0.07766 0.82763 0.12295 0.0
C552 C 0.0194 0.75912 0.12436 0.0
C553 C 0.98108 0.75095 0.12315 0.0
C554 C 0.95151 0.72269 0.13321 0.0
C555 C 0.9614 0.70239 0.14491 0.0
C556 C 0.00054 0.71013 0.1464 0.0
C557 C 0.02968 0.73866 0.13574 0.0
H558 H 0.19604 0.06668 0.434 0.0
H559 H 0.15043 0.94774 0.41562 0.0
H560 H 0.19716 0.94048 0.43366 0.0
H561 H 0.29779 0.09157 0.43808 0.0
H562 H 0.30545 0.11879 0.45732 0.0
H563 H 0.27016 0.11592 0.44209 0.0
H564 H 0.21605 0.08847 0.465 0.0
H565 H 0.25118 0.09143 0.4803 0.0
H566 H 0.20684 0.04545 0.4767 0.0
H567 H 0.24659 0.94468 0.45441 0.0
H568 H 0.29463 0.95973 0.47725 0.0
H569 H 0.3067 0.07487 0.48306 0.0
C570 C 0.19586 0.03911 0.43375 0.0
C571 C 0.1698 0.008 0.42316 0.0
C572 C 0.17069 0.97242 0.42324 0.0
C573 C 0.19699 0.96787 0.43354 0.0
C574 C 0.22221 0.99906 0.44378 0.0
C575 C 0.22184 0.03395 0.44403 0.0
C576 C 0.25093 0.06223 0.45676 0.0
C577 C 0.28298 0.09932 0.44804 0.0
C578 C 0.22999 0.07248 0.4705 0.0
C579 C 0.26731 0.03754 0.46374 0.0
C580 C 0.25051 0.00131 0.45598 0.0
C581 C 0.26006 0.97298 0.46057 0.0
C582 C 0.2872 0.98172 0.47359 0.0
C583 C 0.30437 0.01843 0.48193 0.0
C584 C 0.29453 0.04679 0.47676 0.0
H585 H 0.12772 0.15093 0.7778 0.0
H586 H 0.15626 0.23035 0.73553 0.0
H587 H 0.20953 0.28342 0.75222 0.0
H588 H 0.14968 0.22297 0.81158 0.0
H589 H 0.17057 0.20123 0.825 0.0
H590 H 0.13232 0.17112 0.81032 0.0
H591 H 0.17707 0.14717 0.79737 0.0
H592 H 0.21554 0.17742 0.8119 0.0
H593 H 0.22483 0.18268 0.78954 0.0
H594 H 0.26167 0.32673 0.77318 0.0
H595 H 0.30992 0.35616 0.79637 0.0
H596 H 0.24823 0.24728 0.82436 0.0
C597 C 0.14458 0.17979 0.77224 0.0
C598 C 0.13769 0.18686 0.7555 0.0
C599 C 0.16108 0.22457 0.74839 0.0
C600 C 0.19126 0.25481 0.75778 0.0
C601 C 0.19775 0.2467 0.77418 0.0
C602 C 0.17508 0.21008 0.78134 0.0
C603 C 0.18979 0.20806 0.79872 0.0
C604 C 0.15874 0.2004 0.8122 0.0
C605 C 0.20257 0.177 0.79941 0.0
C606 C 0.22457 0.24909 0.80016 0.0
C607 C 0.22844 0.27113 0.78598 0.0
C608 C 0.2588 0.30981 0.78437 0.0
C609 C 0.28599 0.32629 0.79759 0.0
C610 C 0.28284 0.30391 0.81208 0.0
C611 C 0.25156 0.26492 0.81335 0.0
H612 H 0.83588 0.0352 0.6514 0.0
H613 H 0.80513 0.913 0.6548 0.0
H614 H 0.74927 0.89462 0.63579 0.0
H615 H 0.73567 0.0178 0.64915 0.0
H616 H 0.7479 0.05649 0.63409 0.0
H617 H 0.78421 0.06017 0.64894 0.0
H618 H 0.83133 0.06954 0.62433 0.0
H619 H 0.7952 0.06592 0.60942 0.0
H620 H 0.81498 0.03352 0.60772 0.0
H621 H 0.69982 0.88953 0.61511 0.0
H622 H 0.65958 0.89798 0.59375 0.0
H623 H 0.72043 0.02325 0.60389 0.0
C624 C 0.8173 0.00457 0.64819 0.0
C625 C 0.82468 0.97551 0.65479 0.0
C626 C 0.79962 0.93573 0.65025 0.0
C627 C 0.76789 0.92497 0.63938 0.0
C628 C 0.76147 0.95426 0.63311 0.0
C629 C 0.78534 0.99324 0.63732 0.0
C630 C 0.77263 0.01895 0.62825 0.0
C631 C 0.7593 0.03956 0.64086 0.0
C632 C 0.80549 0.04873 0.61675 0.0
C633 C 0.73838 0.98833 0.61807 0.0
C634 C 0.7324 0.95123 0.62117 0.0
C635 C 0.70374 0.91835 0.61276 0.0
C636 C 0.68074 0.92348 0.60072 0.0
C637 C 0.68628 0.96124 0.59719 0.0
C638 C 0.71535 0.99398 0.60619 0.0
H639 H 0.83839 0.8342 0.97297 0.0
H640 H 0.78999 0.90889 0.98491 0.0
H641 H 0.73119 0.86623 0.96781 0.0
H642 H 0.80694 0.81736 0.93022 0.0
H643 H 0.79678 0.76737 0.92996 0.0
H644 H 0.83357 0.80242 0.94396 0.0
H645 H 0.79781 0.75706 0.96935 0.0
H646 H 0.76073 0.72197 0.95542 0.0
H647 H 0.7469 0.74129 0.97305 0.0
H648 H 0.67802 0.81549 0.94924 0.0
H649 H 0.63692 0.7639 0.92879 0.0
H650 H 0.72235 0.72487 0.9279 0.0
C651 C 0.81518 0.84127 0.97212 0.0
C652 C 0.81844 0.87459 0.9803 0.0
C653 C 0.78795 0.88349 0.97866 0.0
C654 C 0.75442 0.85932 0.96909 0.0
C655 C 0.75207 0.82661 0.96117 0.0
C656 C 0.7818 0.81778 0.96246 0.0
C657 C 0.77317 0.78228 0.95195 0.0
C658 C 0.80447 0.79302 0.9382 0.0
C659 C 0.76942 0.74866 0.96311 0.0
C660 C 0.73402 0.77263 0.94445 0.0
C661 C 0.72211 0.79821 0.95008 0.0
C662 C 0.68712 0.79537 0.9447 0.0
C663 C 0.66408 0.76608 0.933 0.0
C664 C 0.67633 0.74027 0.92663 0.0
C665 C 0.71161 0.7435 0.93268 0.0
H666 H 0.94143 0.7984 0.30736 0.0
H667 H 0.05915 0.86829 0.32724 0.0
H668 H 0.08167 0.83224 0.30927 0.0
H669 H 0.94391 0.70644 0.30503 0.0
H670 H 0.91563 0.69071 0.28586 0.0
H671 H 0.90844 0.72142 0.30057 0.0
H672 H 0.92248 0.772 0.27685 0.0
H673 H 0.92981 0.74153 0.2621 0.0
H674 H 0.96767 0.79178 0.26517 0.0
H675 H 0.09258 0.79313 0.28757 0.0
H676 H 0.09088 0.75037 0.26478 0.0
H677 H 0.96444 0.6999 0.26097 0.0
C678 C 0.97182 0.80576 0.30795 0.0
C679 C 0.99863 0.83591 0.31866 0.0
C680 C 0.0382 0.84496 0.3192 0.0
C681 C 0.05125 0.82476 0.30903 0.0
C682 C 0.0242 0.79519 0.29858 0.0
C683 C 0.98522 0.78528 0.2981 0.0
C684 C 0.96239 0.75218 0.28573 0.0
C685 C 0.93072 0.71551 0.29485 0.0
C686 C 0.94455 0.76517 0.27163 0.0
C687 C 0.99484 0.74578 0.27907 0.0
C688 C 0.03022 0.77103 0.28662 0.0
C689 C 0.06488 0.77251 0.28182 0.0
C690 C 0.06345 0.74761 0.2689 0.0
C691 C 0.02743 0.72088 0.26102 0.0
C692 C 0.99265 0.7199 0.26646 0.0
H693 H 0.18721 0.04316 0.64895 0.0
H694 H 0.10581 0.91858 0.64287 0.0
H695 H 0.15218 0.91388 0.6234 0.0
H696 H 0.22007 0.06256 0.6067 0.0
H697 H 0.27023 0.09736 0.61197 0.0
H698 H 0.23131 0.09067 0.6259 0.0
H699 H 0.26465 0.07522 0.65054 0.0
H700 H 0.30376 0.08195 0.63669 0.0
H701 H 0.27637 0.03671 0.64818 0.0
H702 H 0.20612 0.92323 0.60386 0.0
H703 H 0.26341 0.94594 0.58525 0.0
H704 H 0.31107 0.06403 0.60498 0.0
C705 C 0.17935 0.01474 0.64374 0.0
C706 C 0.14284 0.98121 0.64745 0.0
C707 C 0.13339 0.94475 0.64006 0.0
C708 C 0.15965 0.94173 0.6291 0.0
C709 C 0.1953 0.97539 0.6257 0.0
C710 C 0.20522 0.01119 0.63281 0.0
C711 C 0.24491 0.04309 0.62671 0.0
C712 C 0.24139 0.07531 0.61726 0.0
C713 C 0.27415 0.06024 0.64141 0.0
C714 C 0.25554 0.01972 0.61487 0.0
C715 C 0.22662 0.98071 0.61454 0.0
C716 C 0.2292 0.95362 0.60416 0.0
C717 C 0.26208 0.9668 0.59372 0.0
C718 C 0.29209 0.00676 0.59373 0.0
C719 C 0.2887 0.03336 0.6046 0.0
H720 H 0.18123 0.12565 0.96938 0.0
H721 H 0.1545 0.20324 0.99807 0.0
H722 H 0.20123 0.25916 0.98076 0.0
H723 H 0.28493 0.19485 0.96358 0.0
H724 H 0.28602 0.17887 0.9424 0.0
H725 H 0.25147 0.14491 0.95744 0.0
H726 H 0.19423 0.13019 0.9371 0.0
H727 H 0.2286 0.16397 0.92198 0.0
H728 H 0.18867 0.17012 0.92927 0.0
H729 H 0.24839 0.30611 0.9597 0.0
H730 H 0.29368 0.34125 0.93621 0.0
H731 H 0.29012 0.23362 0.92113 0.0
C732 C 0.18525 0.15441 0.97201 0.0
C733 C 0.16447 0.16012 0.98518 0.0
C734 C 0.17064 0.19826 0.98826 0.0
C735 C 0.19697 0.2302 0.97845 0.0
C736 C 0.21702 0.2236 0.96561 0.0
C737 C 0.21159 0.18672 0.96236 0.0
C738 C 0.23634 0.18762 0.94758 0.0
C739 C 0.26648 0.17587 0.95309 0.0
C740 C 0.21041 0.16143 0.93313 0.0
C741 C 0.25612 0.23065 0.94291 0.0
C742 C 0.24458 0.25086 0.9535 0.0
C743 C 0.25784 0.29068 0.95138 0.0
C744 C 0.28339 0.31034 0.93799 0.0
C745 C 0.29548 0.29018 0.92693 0.0
C746 C 0.28186 0.24989 0.92956 0.0
H747 H 0.97525 0.1549 0.31587 0.0
H748 H 0.09312 0.18257 0.30235 0.0
H749 H 0.09698 0.23183 0.28197 0.0
H750 H 0.9443 0.16247 0.27499 0.0
H751 H 0.91587 0.18432 0.28177 0.0
H752 H 0.92306 0.15251 0.29578 0.0
H753 H 0.95183 0.20729 0.31841 0.0
H754 H 0.94463 0.23928 0.30448 0.0
H755 H 0.99256 0.25476 0.31307 0.0
H756 H 0.08688 0.27611 0.26232 0.0
H757 H 0.06344 0.31153 0.24456 0.0
H758 H 0.95302 0.25662 0.27177 0.0
C759 C 0.00217 0.17176 0.30885 0.0
C760 C 0.03396 0.16495 0.31075 0.0
C761 C 0.06827 0.18703 0.301 0.0
C762 C 0.07084 0.21524 0.28948 0.0
C763 C 0.03889 0.22109 0.2879 0.0
C764 C 0.00524 0.20002 0.29734 0.0
C765 C 0.9746 0.21102 0.29289 0.0
C766 C 0.93726 0.17546 0.28594 0.0
C767 C 0.96538 0.22917 0.30812 0.0
C768 C 0.99608 0.24126 0.2793 0.0
C769 C 0.03318 0.24679 0.27668 0.0
C770 C 0.05806 0.27236 0.2644 0.0
C771 C 0.04454 0.29259 0.25445 0.0
C772 C 0.00645 0.28719 0.25683 0.0
C773 C 0.98218 0.26134 0.26956 0.0
loop_
_geom_bond_atom_site_label_1
_geom_bond_atom_site_label_2
_geom_bond_distance
_geom_bond_site_symmetry_2
_ccdc_geom_bond_type
Li0 N17 1.990 . S
Li0 O60 1.956 . S
Li0 O61 1.970 1_455 S
Li0 O62 1.961 1_545 S
Li1 N25 1.990 . S
Li1 O60 1.970 1_655 S
Li1 O61 1.956 . S
Li1 O63 1.961 1_545 S
Li2 N47 1.990 . S
Li2 O60 1.961 1_565 S
Li2 O62 1.956 . S
Li2 O63 1.970 1_455 S
Li3 N53 1.990 . S
Li3 O61 1.961 1_565 S
Li3 O62 1.970 1_655 S
Li3 O63 1.956 . S
C4 C6 1.348 . S
C4 C7 1.356 . S
C4 O60 1.325 . S
N5 C8 1.314 . S
N5 C9 1.279 . S
C6 C4 1.348 . S
C6 C8 1.353 . S
C6 H64 0.929 . S
C7 C4 1.356 . S
C7 C9 1.358 . S
C7 H65 0.930 . S
C8 N5 1.314 . S
C8 C6 1.353 . S
C8 H66 0.930 . S
C9 N5 1.279 . S
C9 C7 1.358 . S
C9 H67 0.930 . S
C10 C13 1.348 1_655 S
C10 C14 1.356 . S
C10 O61 1.325 . S
C11 N12 1.279 1_554 S
C11 C14 1.358 . S
C11 H68 0.930 . S
N12 C11 1.279 1_556 S
N12 C15 1.323 . S
C13 C10 1.348 1_455 S
C13 C15 1.325 1_454 S
C13 H69 0.929 . S
C14 C10 1.356 . S
C14 C11 1.358 . S
C14 H70 0.930 . S
C15 N12 1.323 . S
C15 C13 1.325 1_656 S
C15 H71 0.955 1_655 S
C16 N17 1.314 1_556 S
C16 C21 1.353 . S
C16 H22 0.930 . S
N17 Li0 1.990 . S
N17 C16 1.314 1_554 S
N17 C19 1.279 . S
C18 C19 1.358 . S
C18 C20 1.356 1_554 S
C18 H72 0.930 . S
C19 N17 1.279 . S
C19 C18 1.358 . S
C19 H23 0.930 . S
C20 C18 1.356 1_556 S
C20 C21 1.348 . S
C21 C16 1.353 . S
C21 C20 1.348 . S
C21 H73 0.929 . S
H22 C16 0.930 . S
H23 C19 0.930 . S
C24 N25 1.314 . S
C24 C26 1.353 . S
C24 H30 0.930 . S
N25 Li1 1.990 . S
N25 C24 1.314 . S
N25 C28 1.279 . S
C26 C24 1.353 . S
C26 C29 1.348 . S
C26 H74 0.929 . S
C27 C28 1.358 . S
C27 C29 1.356 . S
C27 H75 0.930 . S
C28 N25 1.279 . S
C28 C27 1.358 . S
C28 H31 0.930 . S
C29 C26 1.348 . S
C29 C27 1.356 . S
H30 C24 0.930 . S
H31 C28 0.930 . S
C32 C34 1.348 1_455 S
C32 C35 1.356 . S
C32 O62 1.325 . S
N33 C36 1.323 . S
N33 C37 1.279 1_556 S
C34 C32 1.348 1_655 S
C34 C36 1.325 1_654 S
C34 H76 0.929 . S
C35 C32 1.356 . S
C35 C37 1.358 . S
C35 H77 0.930 . S
C36 N33 1.323 . S
C36 C34 1.325 1_456 S
C36 H78 0.955 1_455 S
C37 N33 1.279 1_554 S
C37 C35 1.358 . S
C37 H79 0.930 . S
C38 C39 1.348 . S
C38 C40 1.356 . S
C38 O63 1.325 . S
C39 C38 1.348 . S
C39 C41 1.353 . S
C39 H80 0.929 . S
C40 C38 1.356 . S
C40 C42 1.358 . S
C40 H81 0.930 . S
C41 C39 1.353 . S
C41 N43 1.314 . S
C41 H82 0.930 . S
C42 C40 1.358 . S
C42 N43 1.279 . S
C42 H83 0.930 . S
N43 C41 1.314 . S
N43 C42 1.279 . S
C44 C46 1.353 . S
C44 N47 1.314 . S
C44 H50 0.930 . S
C45 N47 1.279 . S
C45 C48 1.358 . S
C45 H51 0.930 . S
C46 C44 1.353 . S
C46 C49 1.348 . S
C46 H84 0.929 . S
N47 Li2 1.990 . S
N47 C44 1.314 . S
N47 C45 1.279 . S
C48 C45 1.358 . S
C48 C49 1.356 . S
C48 H85 0.930 . S
C49 C46 1.348 . S
C49 C48 1.356 . S
H50 C44 0.930 . S
H51 C45 0.930 . S
C52 N53 1.314 1_556 S
C52 C54 1.353 . S
C52 H58 0.930 . S
N53 Li3 1.990 . S
N53 C52 1.314 1_554 S
N53 C56 1.279 . S
C54 C52 1.353 . S
C54 C57 1.348 . S
C54 H86 0.929 . S
C55 C56 1.358 . S
C55 C57 1.356 1_554 S
C55 H87 0.930 . S
C56 N53 1.279 . S
C56 C55 1.358 . S
C56 H59 0.930 . S
C57 C54 1.348 . S
C57 C55 1.356 1_556 S
H58 C52 0.930 . S
H59 C56 0.930 . S
O60 Li0 1.956 . S
O60 Li1 1.970 1_455 S
O60 Li2 1.961 1_545 S
O60 C4 1.325 . S
O61 Li0 1.970 1_655 S
O61 Li1 1.956 . S
O61 Li3 1.961 1_545 S
O61 C10 1.325 . S
O62 Li0 1.961 1_565 S
O62 Li2 1.956 . S
O62 Li3 1.970 1_455 S
O62 C32 1.325 . S
O63 Li1 1.961 1_565 S
O63 Li2 1.970 1_655 S
O63 Li3 1.956 . S
O63 C38 1.325 . S
H64 C6 0.929 . S
H65 C7 0.930 . S
H66 C8 0.930 . S
H67 C9 0.930 . S
H68 C11 0.930 . S
H69 C13 0.929 . S
H70 C14 0.930 . S
H71 C15 0.955 1_455 S
H72 C18 0.930 . S
H73 C21 0.929 . S
H74 C26 0.929 . S
H75 C27 0.930 . S
H76 C34 0.929 . S
H77 C35 0.930 . S
H78 C36 0.955 1_655 S
H79 C37 0.930 . S
H80 C39 0.929 . S
H81 C40 0.930 . S
H82 C41 0.930 . S
H83 C42 0.930 . S
H84 C46 0.929 . S
H85 C48 0.930 . S
H86 C54 0.929 . S
H87 C55 0.930 . S
Li88 N105 1.990 . S
Li88 O148 1.956 . S
Li88 O149 1.970 1_665 S
Li88 O150 1.961 . S
Li89 N113 1.990 . S
Li89 O148 1.970 1_445 S
Li89 O149 1.956 . S
Li89 O151 1.961 . S
Li90 N135 1.990 . S
Li90 O148 1.961 . S
Li90 O150 1.956 . S
Li90 O151 1.970 1_665 S
Li91 N141 1.990 . S
Li91 O149 1.961 . S
Li91 O150 1.970 1_445 S
Li91 O151 1.956 . S
C92 C94 1.348 1_655 S
C92 C95 1.356 . S
C92 O148 1.325 . S
N93 C96 1.314 . S
N93 C97 1.279 . S
C94 C92 1.348 1_455 S
C94 C96 1.353 1_455 S
C94 H152 0.929 . S
C95 C92 1.356 . S
C95 C97 1.358 . S
C95 H153 0.930 . S
C96 N93 1.314 . S
C96 C94 1.353 1_655 S
C96 H154 0.930 1_655 S
C97 N93 1.279 . S
C97 C95 1.358 . S
C97 H155 0.930 . S
C98 C101 1.348 1_545 S
C98 C102 1.356 . S
C98 O149 1.325 . S
C99 N100 1.279 . S
C99 C102 1.358 . S
C99 H156 0.930 . S
N100 C99 1.279 . S
N100 C103 1.314 . S
C101 C98 1.348 1_565 S
C101 C103 1.353 1_565 S
C101 H157 0.929 . S
C102 C98 1.356 . S
C102 C99 1.358 . S
C102 H158 0.930 . S
C103 N100 1.314 . S
C103 C101 1.353 1_545 S
C103 H159 0.930 1_545 S
C104 N105 1.314 . S
C104 C109 1.353 . S
C104 H110 0.930 . S
N105 Li88 1.990 . S
N105 C104 1.314 . S
N105 C107 1.279 . S
C106 C107 1.358 . S
C106 C108 1.356 . S
C106 H160 0.930 . S
C107 N105 1.279 . S
C107 C106 1.358 . S
C107 H111 0.930 . S
C108 C106 1.356 . S
C108 C109 1.348 . S
C109 C104 1.353 . S
C109 C108 1.348 . S
C109 H161 0.929 . S
H110 C104 0.930 . S
H111 C107 0.930 . S
C112 N113 1.314 . S
C112 C114 1.353 . S
C112 H118 0.930 . S
N113 Li89 1.990 . S
N113 C112 1.314 . S
N113 C116 1.279 . S
C114 C112 1.353 . S
C114 C117 1.348 . S
C114 H162 0.929 . S
C115 C116 1.358 . S
C115 C117 1.356 . S
C115 H163 0.930 . S
C116 N113 1.279 . S
C116 C115 1.358 . S
C116 H119 0.930 . S
C117 C114 1.348 . S
C117 C115 1.356 . S
H118 C112 0.930 . S
H119 C116 0.930 . S
C120 C122 1.348 1_565 S
C120 C123 1.356 . S
C120 O150 1.325 . S
N121 C124 1.314 . S
N121 C125 1.279 . S
C122 C120 1.348 1_545 S
C122 C124 1.353 1_545 S
C122 H164 0.929 . S
C123 C120 1.356 . S
C123 C125 1.358 . S
C123 H165 0.930 . S
C124 N121 1.314 . S
C124 C122 1.353 1_565 S
C124 H166 0.930 1_565 S
C125 N121 1.279 . S
C125 C123 1.358 . S
C125 H167 0.930 . S
C126 C127 1.348 1_455 S
C126 C128 1.356 . S
C126 O151 1.325 . S
C127 C126 1.348 1_655 S
C127 C129 1.353 1_655 S
C127 H168 0.929 . S
C128 C126 1.356 . S
C128 C130 1.358 . S
C128 H169 0.930 . S
C129 C127 1.353 1_455 S
C129 N131 1.314 . S
C129 H170 0.930 1_455 S
C130 C128 1.358 . S
C130 N131 1.279 . S
C130 H171 0.930 . S
N131 C129 1.314 . S
N131 C130 1.279 . S
C132 C134 1.353 . S
C132 N135 1.314 . S
C132 H138 0.930 . S
C133 N135 1.279 . S
C133 C136 1.358 . S
C133 H139 0.930 . S
C134 C132 1.353 . S
C134 C137 1.348 . S
C134 H172 0.929 . S
N135 Li90 1.990 . S
N135 C132 1.314 . S
N135 C133 1.279 . S
C136 C133 1.358 . S
C136 C137 1.356 . S
C136 H173 0.930 . S
C137 C134 1.348 . S
C137 C136 1.356 . S
H138 C132 0.930 . S
H139 C133 0.930 . S
C140 N141 1.314 . S
C140 C142 1.353 . S
C140 H146 0.930 . S
N141 Li91 1.990 . S
N141 C140 1.314 . S
N141 C144 1.279 . S
C142 C140 1.353 . S
C142 C145 1.348 . S
C142 H174 0.929 . S
C143 C144 1.358 . S
C143 C145 1.356 . S
C143 H175 0.930 . S
C144 N141 1.279 . S
C144 C143 1.358 . S
C144 H147 0.930 . S
C145 C142 1.348 . S
C145 C143 1.356 . S
H146 C140 0.930 . S
H147 C144 0.930 . S
O148 Li88 1.956 . S
O148 Li89 1.970 1_665 S
O148 Li90 1.961 . S
O148 C92 1.325 . S
O149 Li88 1.970 1_445 S
O149 Li89 1.956 . S
O149 Li91 1.961 . S
O149 C98 1.325 . S
O150 Li88 1.961 . S
O150 Li90 1.956 . S
O150 Li91 1.970 1_665 S
O150 C120 1.325 . S
O151 Li89 1.961 . S
O151 Li90 1.970 1_445 S
O151 Li91 1.956 . S
O151 C126 1.325 . S
H152 C94 0.929 . S
H153 C95 0.930 . S
H154 C96 0.930 1_455 S
H155 C97 0.930 . S
H156 C99 0.930 . S
H157 C101 0.929 . S
H158 C102 0.930 . S
H159 C103 0.930 1_565 S
H160 C106 0.930 . S
H161 C109 0.929 . S
H162 C114 0.929 . S
H163 C115 0.930 . S
H164 C122 0.929 . S
H165 C123 0.930 . S
H166 C124 0.930 1_545 S
H167 C125 0.930 . S
H168 C127 0.929 . S
H169 C128 0.930 . S
H170 C129 0.930 1_655 S
H171 C130 0.930 . S
H172 C134 0.929 . S
H173 C136 0.930 . S
H174 C142 0.929 . S
H175 C143 0.930 . S
Li176 N193 1.990 . S
Li176 O236 1.956 . S
Li176 O237 1.970 1_565 S
Li176 O238 1.961 1_455 S
Li177 N201 1.990 . S
Li177 O236 1.970 1_545 S
Li177 O237 1.956 . S
Li177 O239 1.961 1_455 S
Li178 N223 1.990 . S
Li178 O236 1.961 1_655 S
Li178 O238 1.956 . S
Li178 O239 1.970 1_565 S
Li179 N229 1.990 . S
Li179 O237 1.961 1_655 S
Li179 O238 1.970 1_545 S
Li179 O239 1.956 . S
C180 C182 1.348 1_565 S
C180 C183 1.356 . S
C180 O236 1.325 . S
N181 C184 1.314 . S
N181 C185 1.279 . S
C182 C180 1.348 1_545 S
C182 C184 1.353 1_545 S
C182 H240 0.929 . S
C183 C180 1.356 . S
C183 C185 1.358 . S
C183 H241 0.930 . S
C184 N181 1.314 . S
C184 C182 1.353 1_565 S
C184 H242 0.930 1_565 S
C185 N181 1.279 . S
C185 C183 1.358 . S
C185 H243 0.930 . S
C186 C189 1.348 . S
C186 C190 1.356 . S
C186 O237 1.325 . S
C187 N188 1.279 . S
C187 C190 1.358 . S
C187 H244 0.930 . S
N188 C187 1.279 . S
N188 C191 1.314 . S
C189 C186 1.348 . S
C189 C191 1.353 . S
C189 H245 0.929 . S
C190 C186 1.356 . S
C190 C187 1.358 . S
C190 H246 0.930 . S
C191 N188 1.314 . S
C191 C189 1.353 . S
C191 H247 0.930 . S
C192 N193 1.314 . S
C192 C197 1.353 . S
C192 H198 0.930 . S
N193 Li176 1.990 . S
N193 C192 1.314 . S
N193 C195 1.279 . S
C194 C195 1.358 . S
C194 C196 1.356 . S
C194 H248 0.930 . S
C195 N193 1.279 . S
C195 C194 1.358 . S
C195 H199 0.930 . S
C196 C194 1.356 . S
C196 C197 1.348 . S
C197 C192 1.353 . S
C197 C196 1.348 . S
C197 H249 0.929 . S
H198 C192 0.930 . S
H199 C195 0.930 . S
C200 N201 1.314 . S
C200 C202 1.353 . S
C200 H206 0.930 . S
N201 Li177 1.990 . S
N201 C200 1.314 . S
N201 C204 1.279 . S
C202 C200 1.353 . S
C202 C205 1.348 . S
C202 H250 0.929 . S
C203 C204 1.358 . S
C203 C205 1.356 . S
C203 H251 0.930 . S
C204 N201 1.279 . S
C204 C203 1.358 . S
C204 H207 0.930 . S
C205 C202 1.348 . S
C205 C203 1.356 . S
H206 C200 0.930 . S
H207 C204 0.930 . S
C208 C210 1.348 . S
C208 C211 1.356 . S
C208 O238 1.325 . S
N209 C212 1.314 . S
N209 C213 1.279 . S
C210 C208 1.348 . S
C210 C212 1.353 . S
C210 H252 0.929 . S
C211 C208 1.356 . S
C211 C213 1.358 . S
C211 H253 0.930 . S
C212 N209 1.314 . S
C212 C210 1.353 . S
C212 H254 0.930 . S
C213 N209 1.279 . S
C213 C211 1.358 . S
C213 H255 0.930 . S
C214 C215 1.348 1_545 S
C214 C216 1.356 . S
C214 O239 1.325 . S
C215 C214 1.348 1_565 S
C215 C217 1.353 1_565 S
C215 H256 0.929 . S
C216 C214 1.356 . S
C216 C218 1.358 . S
C216 H257 0.930 . S
C217 C215 1.353 1_545 S
C217 N219 1.314 . S
C217 H258 0.930 1_545 S
C218 C216 1.358 . S
C218 N219 1.279 . S
C218 H259 0.930 . S
N219 C217 1.314 . S
N219 C218 1.279 . S
C220 C222 1.353 . S
C220 N223 1.314 . S
C220 H226 0.930 . S
C221 N223 1.279 . S
C221 C224 1.358 . S
C221 H227 0.930 . S
C222 C220 1.353 . S
C222 C225 1.348 . S
C222 H260 0.929 . S
N223 Li178 1.990 . S
N223 C220 1.314 . S
N223 C221 1.279 . S
C224 C221 1.358 . S
C224 C225 1.356 . S
C224 H261 0.930 . S
C225 C222 1.348 . S
C225 C224 1.356 . S
H226 C220 0.930 . S
H227 C221 0.930 . S
C228 N229 1.314 . S
C228 C230 1.353 . S
C228 H234 0.930 . S
N229 Li179 1.990 . S
N229 C228 1.314 . S
N229 C232 1.279 . S
C230 C228 1.353 . S
C230 C233 1.348 . S
C230 H262 0.929 . S
C231 C232 1.358 . S
C231 C233 1.356 . S
C231 H263 0.930 . S
C232 N229 1.279 . S
C232 C231 1.358 . S
C232 H235 0.930 . S
C233 C230 1.348 . S
C233 C231 1.356 . S
H234 C228 0.930 . S
H235 C232 0.930 . S
O236 Li176 1.956 . S
O236 Li177 1.970 1_565 S
O236 Li178 1.961 1_455 S
O236 C180 1.325 . S
O237 Li176 1.970 1_545 S
O237 Li177 1.956 . S
O237 Li179 1.961 1_455 S
O237 C186 1.325 . S
O238 Li176 1.961 1_655 S
O238 Li178 1.956 . S
O238 Li179 1.970 1_565 S
O238 C208 1.325 . S
O239 Li177 1.961 1_655 S
O239 Li178 1.970 1_545 S
O239 Li179 1.956 . S
O239 C214 1.325 . S
H240 C182 0.929 . S
H241 C183 0.930 . S
H242 C184 0.930 1_545 S
H243 C185 0.930 . S
H244 C187 0.930 . S
H245 C189 0.929 . S
H246 C190 0.930 . S
H247 C191 0.930 . S
H248 C194 0.930 . S
H249 C197 0.929 . S
H250 C202 0.929 . S
H251 C203 0.930 . S
H252 C210 0.929 . S
H253 C211 0.930 . S
H254 C212 0.930 . S
H255 C213 0.930 . S
H256 C215 0.929 . S
H257 C216 0.930 . S
H258 C217 0.930 1_565 S
H259 C218 0.930 . S
H260 C222 0.929 . S
H261 C224 0.930 . S
H262 C230 0.929 . S
H263 C231 0.930 . S
H264 C291 0.929 . S
N265 C290 1.433 . S
N265 C296 1.435 . S
N265 C302 1.423 . S
H266 C292 0.930 . S
H267 C295 0.931 . S
H268 C294 0.929 . S
H269 C297 0.930 . S
H270 C298 0.932 . S
H271 C301 0.929 . S
H272 C300 0.931 . S
H273 C303 0.929 . S
H274 C307 0.932 1_455 S
H275 C304 0.931 . S
H276 C306 0.929 1_455 S
H277 C309 0.929 . S
H278 C310 0.930 . S
H279 C312 0.929 . S
H280 C313 0.931 . S
H281 C315 0.930 . S
H282 C316 0.932 . S
H283 C318 0.931 . S
H284 C319 0.929 . S
H285 C321 0.929 . S
H286 C322 0.931 . S
H287 C324 0.929 1_455 S
N288 C308 1.433 . S
N288 C314 1.435 . S
N288 C320 1.423 . S
H289 C325 0.932 1_455 S
C290 N265 1.433 . S
C290 C291 1.363 . S
C290 C295 1.370 1_655 S
C291 H264 0.929 . S
C291 C290 1.363 . S
C291 C292 1.385 . S
C292 H266 0.930 . S
C292 C291 1.385 . S
C292 C293 1.357 . S
C293 C292 1.357 . S
C293 C294 1.406 1_655 S
C294 H268 0.929 . S
C294 C293 1.406 1_455 S
C294 C295 1.391 . S
C295 H267 0.931 . S
C295 C290 1.370 1_455 S
C295 C294 1.391 . S
C296 N265 1.435 . S
C296 C297 1.358 1_655 S
C296 C301 1.371 . S
C297 H269 0.930 . S
C297 C296 1.358 1_455 S
C297 C298 1.405 . S
C298 H270 0.932 . S
C298 C297 1.405 . S
C298 C299 1.383 1_455 S
C299 C298 1.383 1_655 S
C299 C300 1.393 . S
C300 H272 0.931 . S
C300 C299 1.393 . S
C300 C301 1.382 . S
C301 H271 0.929 . S
C301 C296 1.371 . S
C301 C300 1.382 . S
C302 N265 1.423 . S
C302 C303 1.362 . S
C302 C307 1.388 . S
C303 H273 0.929 . S
C303 C302 1.362 . S
C303 C304 1.376 . S
C304 H275 0.931 . S
C304 C303 1.376 . S
C304 C305 1.396 . S
C305 C304 1.396 . S
C305 C306 1.348 . S
C305 C323 1.472 . S
C306 H276 0.929 1_655 S
C306 C305 1.348 . S
C306 C307 1.443 . S
C307 H274 0.932 1_655 S
C307 C302 1.388 . S
C307 C306 1.443 . S
C308 N288 1.433 . S
C308 C309 1.363 . S
C308 C313 1.370 1_655 S
C309 H277 0.929 . S
C309 C308 1.363 . S
C309 C310 1.385 . S
C310 H278 0.930 . S
C310 C309 1.385 . S
C310 C311 1.357 . S
C311 C310 1.357 . S
C311 C312 1.406 1_655 S
C312 H279 0.929 . S
C312 C311 1.406 1_455 S
C312 C313 1.391 . S
C313 H280 0.931 . S
C313 C308 1.370 1_455 S
C313 C312 1.391 . S
C314 N288 1.435 . S
C314 C315 1.358 1_655 S
C314 C319 1.371 . S
C315 H281 0.930 . S
C315 C314 1.358 1_455 S
C315 C316 1.405 . S
C316 H282 0.932 . S
C316 C315 1.405 . S
C316 C317 1.383 1_455 S
C317 C316 1.383 1_655 S
C317 C318 1.393 . S
C318 H283 0.931 . S
C318 C317 1.393 . S
C318 C319 1.382 . S
C319 H284 0.929 . S
C319 C314 1.371 . S
C319 C318 1.382 . S
C320 N288 1.423 . S
C320 C321 1.362 . S
C320 C325 1.388 . S
C321 H285 0.929 . S
C321 C320 1.362 . S
C321 C322 1.376 . S
C322 H286 0.931 . S
C322 C321 1.376 . S
C322 C323 1.396 . S
C323 C305 1.472 . S
C323 C322 1.396 . S
C323 C324 1.348 . S
C324 H287 0.929 1_655 S
C324 C323 1.348 . S
C324 C325 1.443 . S
C325 H289 0.932 1_655 S
C325 C320 1.388 . S
C325 C324 1.443 . S
H326 C353 0.929 . S
N327 C352 1.433 . S
N327 C358 1.435 . S
N327 C364 1.423 . S
H328 C354 0.930 . S
H329 C357 0.931 . S
H330 C356 0.929 . S
H331 C359 0.930 . S
H332 C360 0.932 . S
H333 C363 0.929 . S
H334 C362 0.931 . S
H335 C365 0.929 . S
H336 C369 0.932 1_565 S
H337 C366 0.931 . S
H338 C368 0.929 1_565 S
H339 C371 0.929 . S
H340 C372 0.930 . S
H341 C374 0.929 . S
H342 C375 0.931 . S
H343 C377 0.930 . S
H344 C378 0.932 . S
H345 C380 0.931 . S
H346 C381 0.929 . S
H347 C383 0.929 . S
H348 C384 0.931 . S
H349 C386 0.929 1_565 S
N350 C370 1.433 . S
N350 C376 1.435 . S
N350 C382 1.423 . S
H351 C387 0.932 1_565 S
C352 N327 1.433 . S
C352 C353 1.363 . S
C352 C357 1.370 1_545 S
C353 H326 0.929 . S
C353 C352 1.363 . S
C353 C354 1.385 . S
C354 H328 0.930 . S
C354 C353 1.385 . S
C354 C355 1.357 . S
C355 C354 1.357 . S
C355 C356 1.406 1_545 S
C356 H330 0.929 . S
C356 C355 1.406 1_565 S
C356 C357 1.391 . S
C357 H329 0.931 . S
C357 C352 1.370 1_565 S
C357 C356 1.391 . S
C358 N327 1.435 . S
C358 C359 1.358 1_545 S
C358 C363 1.371 . S
C359 H331 0.930 . S
C359 C358 1.358 1_565 S
C359 C360 1.405 . S
C360 H332 0.932 . S
C360 C359 1.405 . S
C360 C361 1.383 1_565 S
C361 C360 1.383 1_545 S
C361 C362 1.393 . S
C362 H334 0.931 . S
C362 C361 1.393 . S
C362 C363 1.382 . S
C363 H333 0.929 . S
C363 C358 1.371 . S
C363 C362 1.382 . S
C364 N327 1.423 . S
C364 C365 1.362 . S
C364 C369 1.388 . S
C365 H335 0.929 . S
C365 C364 1.362 . S
C365 C366 1.376 . S
C366 H337 0.931 . S
C366 C365 1.376 . S
C366 C367 1.396 . S
C367 C366 1.396 . S
C367 C368 1.348 . S
C367 C385 1.472 . S
C368 H338 0.929 1_545 S
C368 C367 1.348 . S
C368 C369 1.443 . S
C369 H336 0.932 1_545 S
C369 C364 1.388 . S
C369 C368 1.443 . S
C370 N350 1.433 . S
C370 C371 1.363 . S
C370 C375 1.370 1_545 S
C371 H339 0.929 . S
C371 C370 1.363 . S
C371 C372 1.385 . S
C372 H340 0.930 . S
C372 C371 1.385 . S
C372 C373 1.357 . S
C373 C372 1.357 . S
C373 C374 1.406 1_545 S
C374 H341 0.929 . S
C374 C373 1.406 1_565 S
C374 C375 1.391 . S
C375 H342 0.931 . S
C375 C370 1.370 1_565 S
C375 C374 1.391 . S
C376 N350 1.435 . S
C376 C377 1.358 1_545 S
C376 C381 1.371 . S
C377 H343 0.930 . S
C377 C376 1.358 1_565 S
C377 C378 1.405 . S
C378 H344 0.932 . S
C378 C377 1.405 . S
C378 C379 1.383 1_565 S
C379 C378 1.383 1_545 S
C379 C380 1.393 . S
C380 H345 0.931 . S
C380 C379 1.393 . S
C380 C381 1.382 . S
C381 H346 0.929 . S
C381 C376 1.371 . S
C381 C380 1.382 . S
C382 N350 1.423 . S
C382 C383 1.362 . S
C382 C387 1.388 . S
C383 H347 0.929 . S
C383 C382 1.362 . S
C383 C384 1.376 . S
C384 H348 0.931 . S
C384 C383 1.376 . S
C384 C385 1.396 . S
C385 C367 1.472 . S
C385 C384 1.396 . S
C385 C386 1.348 . S
C386 H349 0.929 1_545 S
C386 C385 1.348 . S
C386 C387 1.443 . S
C387 H351 0.932 1_545 S
C387 C382 1.388 . S
C387 C386 1.443 . S
H388 C415 0.929 . S
N389 C414 1.433 . S
N389 C420 1.435 . S
N389 C426 1.423 . S
H390 C416 0.930 . S
H391 C419 0.931 . S
H392 C418 0.929 . S
H393 C421 0.930 . S
H394 C422 0.932 . S
H395 C425 0.929 . S
H396 C424 0.931 . S
H397 C427 0.929 . S
H398 C431 0.932 . S
H399 C428 0.931 . S
H400 C430 0.929 . S
H401 C433 0.929 . S
H402 C434 0.930 . S
H403 C436 0.929 . S
H404 C437 0.931 . S
H405 C439 0.930 . S
H406 C440 0.932 . S
H407 C442 0.931 . S
H408 C443 0.929 . S
H409 C445 0.929 . S
H410 C446 0.931 . S
H411 C448 0.929 . S
N412 C432 1.433 . S
N412 C438 1.435 . S
N412 C444 1.423 . S
H413 C449 0.932 . S
C414 N389 1.433 . S
C414 C415 1.363 . S
C414 C419 1.370 . S
C415 H388 0.929 . S
C415 C414 1.363 . S
C415 C416 1.385 . S
C416 H390 0.930 . S
C416 C415 1.385 . S
C416 C417 1.357 . S
C417 C416 1.357 . S
C417 C418 1.406 . S
C418 H392 0.929 . S
C418 C417 1.406 . S
C418 C419 1.391 . S
C419 H391 0.931 . S
C419 C414 1.370 . S
C419 C418 1.391 . S
C420 N389 1.435 . S
C420 C421 1.358 . S
C420 C425 1.371 . S
C421 H393 0.930 . S
C421 C420 1.358 . S
C421 C422 1.405 . S
C422 H394 0.932 . S
C422 C421 1.405 . S
C422 C423 1.383 . S
C423 C422 1.383 . S
C423 C424 1.393 . S
C424 H396 0.931 . S
C424 C423 1.393 . S
C424 C425 1.382 . S
C425 H395 0.929 . S
C425 C420 1.371 . S
C425 C424 1.382 . S
C426 N389 1.423 . S
C426 C427 1.362 . S
C426 C431 1.388 . S
C427 H397 0.929 . S
C427 C426 1.362 . S
C427 C428 1.376 . S
C428 H399 0.931 . S
C428 C427 1.376 . S
C428 C429 1.396 . S
C429 C428 1.396 . S
C429 C430 1.348 . S
C429 C447 1.472 . S
C430 H400 0.929 . S
C430 C429 1.348 . S
C430 C431 1.443 . S
C431 H398 0.932 . S
C431 C426 1.388 . S
C431 C430 1.443 . S
C432 N412 1.433 . S
C432 C433 1.363 . S
C432 C437 1.370 . S
C433 H401 0.929 . S
C433 C432 1.363 . S
C433 C434 1.385 . S
C434 H402 0.930 . S
C434 C433 1.385 . S
C434 C435 1.357 . S
C435 C434 1.357 . S
C435 C436 1.406 . S
C436 H403 0.929 . S
C436 C435 1.406 . S
C436 C437 1.391 . S
C437 H404 0.931 . S
C437 C432 1.370 . S
C437 C436 1.391 . S
C438 N412 1.435 . S
C438 C439 1.358 . S
C438 C443 1.371 . S
C439 H405 0.930 . S
C439 C438 1.358 . S
C439 C440 1.405 . S
C440 H406 0.932 . S
C440 C439 1.405 . S
C440 C441 1.383 . S
C441 C440 1.383 . S
C441 C442 1.393 . S
C442 H407 0.931 . S
C442 C441 1.393 . S
C442 C443 1.382 . S
C443 H408 0.929 . S
C443 C438 1.371 . S
C443 C442 1.382 . S
C444 N412 1.423 . S
C444 C445 1.362 . S
C444 C449 1.388 . S
C445 H409 0.929 . S
C445 C444 1.362 . S
C445 C446 1.376 . S
C446 H410 0.931 . S
C446 C445 1.376 . S
C446 C447 1.396 . S
C447 C429 1.472 . S
C447 C446 1.396 . S
C447 C448 1.348 . S
C448 H411 0.929 . S
C448 C447 1.348 . S
C448 C449 1.443 . S
C449 H413 0.932 . S
C449 C444 1.388 . S
C449 C448 1.443 . S
H450 C462 0.930 . S
H451 C464 0.930 . S
H452 C465 0.930 . S
H453 C469 0.959 . S
H454 C469 0.959 . S
H455 C469 0.961 . S
H456 C470 0.960 1_655 S
H457 C470 0.961 . S
H458 C470 0.959 . S
H459 C473 0.929 . S
H460 C474 0.931 . S
H461 C476 0.930 . S
C462 H450 0.930 . S
C462 C463 1.399 . S
C462 C467 1.399 . S
C463 C462 1.399 . S
C463 C464 1.376 . S
C464 H451 0.930 . S
C464 C463 1.376 . S
C464 C465 1.388 . S
C465 H452 0.930 . S
C465 C464 1.388 . S
C465 C466 1.390 . S
C466 C465 1.390 . S
C466 C467 1.394 . S
C466 C472 1.465 . S
C467 C462 1.399 . S
C467 C466 1.394 . S
C467 C468 1.516 . S
C468 C467 1.516 . S
C468 C469 1.502 . S
C468 C470 1.561 1_655 S
C468 C471 1.526 . S
C469 H453 0.959 . S
C469 H454 0.959 . S
C469 H455 0.961 . S
C469 C468 1.502 . S
C470 H456 0.960 1_455 S
C470 H457 0.961 . S
C470 H458 0.959 . S
C470 C468 1.561 1_455 S
C471 C468 1.526 . S
C471 C472 1.396 . S
C471 C476 1.390 . S
C472 C466 1.465 . S
C472 C471 1.396 . S
C472 C473 1.399 1_655 S
C473 H459 0.929 . S
C473 C472 1.399 1_455 S
C473 C474 1.385 . S
C474 H460 0.931 . S
C474 C473 1.385 . S
C474 C475 1.389 1_455 S
C475 C474 1.389 1_655 S
C475 C476 1.387 . S
C476 H461 0.930 . S
C476 C471 1.390 . S
C476 C475 1.387 . S
H477 C489 0.930 . S
H478 C491 0.930 1_545 S
H479 C492 0.930 . S
H480 C496 0.959 . S
H481 C496 0.959 . S
H482 C496 0.961 . S
H483 C497 0.960 . S
H484 C497 0.961 . S
H485 C497 0.959 . S
H486 C500 0.929 . S
H487 C501 0.931 . S
H488 C503 0.930 . S
C489 H477 0.930 . S
C489 C490 1.399 . S
C489 C494 1.399 . S
C490 C489 1.399 . S
C490 C491 1.378 . S
C491 H478 0.930 1_565 S
C491 C490 1.378 . S
C491 C492 1.387 1_565 S
C492 H479 0.930 . S
C492 C491 1.387 1_545 S
C492 C493 1.390 1_545 S
C493 C492 1.390 1_565 S
C493 C494 1.394 . S
C493 C499 1.467 . S
C494 C489 1.399 . S
C494 C493 1.394 . S
C494 C495 1.516 . S
C495 C494 1.516 . S
C495 C496 1.502 . S
C495 C497 1.561 . S
C495 C498 1.526 . S
C496 H480 0.959 . S
C496 H481 0.959 . S
C496 H482 0.961 . S
C496 C495 1.502 . S
C497 H483 0.960 . S
C497 H484 0.961 . S
C497 H485 0.959 . S
C497 C495 1.561 . S
C498 C495 1.526 . S
C498 C499 1.397 . S
C498 C503 1.390 . S
C499 C493 1.467 . S
C499 C498 1.397 . S
C499 C500 1.396 1_565 S
C500 H486 0.929 . S
C500 C499 1.396 1_545 S
C500 C501 1.385 . S
C501 H487 0.931 . S
C501 C500 1.385 . S
C501 C502 1.399 . S
C502 C501 1.399 . S
C502 C503 1.367 1_545 S
C503 H488 0.930 . S
C503 C498 1.390 . S
C503 C502 1.367 1_565 S
H504 C516 0.930 . S
H505 C518 0.930 . S
H506 C519 0.930 . S
H507 C523 0.959 . S
H508 C523 0.959 . S
H509 C523 0.961 . S
H510 C524 0.960 . S
H511 C524 0.961 . S
H512 C524 0.959 . S
H513 C527 0.929 . S
H514 C528 0.931 . S
H515 C530 0.930 . S
C516 H504 0.930 . S
C516 C517 1.399 . S
C516 C521 1.399 . S
C517 C516 1.399 . S
C517 C518 1.376 . S
C518 H505 0.930 . S
C518 C517 1.376 . S
C518 C519 1.388 . S
C519 H506 0.930 . S
C519 C518 1.388 . S
C519 C520 1.390 . S
C520 C519 1.390 . S
C520 C521 1.394 . S
C520 C526 1.465 . S
C521 C516 1.399 . S
C521 C520 1.394 . S
C521 C522 1.516 . S
C522 C521 1.516 . S
C522 C523 1.502 . S
C522 C524 1.561 . S
C522 C525 1.526 . S
C523 H507 0.959 . S
C523 H508 0.959 . S
C523 H509 0.961 . S
C523 C522 1.502 . S
C524 H510 0.960 . S
C524 H511 0.961 . S
C524 H512 0.959 . S
C524 C522 1.561 . S
C525 C522 1.526 . S
C525 C526 1.396 . S
C525 C530 1.390 . S
C526 C520 1.465 . S
C526 C525 1.396 . S
C526 C527 1.399 . S
C527 H513 0.929 . S
C527 C526 1.399 . S
C527 C528 1.385 . S
C528 H514 0.931 . S
C528 C527 1.385 . S
C528 C529 1.389 . S
C529 C528 1.389 . S
C529 C530 1.387 . S
C530 H515 0.930 . S
C530 C525 1.390 . S
C530 C529 1.387 . S
H531 C543 0.930 . S
H532 C545 0.930 . S
H533 C546 0.930 . S
H534 C550 0.959 . S
H535 C550 0.959 . S
H536 C550 0.961 . S
H537 C551 0.960 . S
H538 C551 0.961 . S
H539 C551 0.959 . S
H540 C554 0.929 . S
H541 C555 0.931 . S
H542 C557 0.930 . S
C543 H531 0.930 . S
C543 C544 1.399 . S
C543 C548 1.399 . S
C544 C543 1.399 . S
C544 C545 1.376 1_455 S
C545 H532 0.930 . S
C545 C544 1.376 1_655 S
C545 C546 1.388 . S
C546 H533 0.930 . S
C546 C545 1.388 . S
C546 C547 1.390 1_655 S
C547 C546 1.390 1_455 S
C547 C548 1.394 . S
C547 C553 1.465 1_455 S
C548 C543 1.399 . S
C548 C547 1.394 . S
C548 C549 1.516 . S
C549 C548 1.516 . S
C549 C550 1.502 . S
C549 C551 1.561 . S
C549 C552 1.526 . S
C550 H534 0.959 . S
C550 H535 0.959 . S
C550 H536 0.961 . S
C550 C549 1.502 . S
C551 H537 0.960 . S
C551 H538 0.961 . S
C551 H539 0.959 . S
C551 C549 1.561 . S
C552 C549 1.526 . S
C552 C553 1.396 1_455 S
C552 C557 1.390 . S
C553 C547 1.465 1_655 S
C553 C552 1.396 1_655 S
C553 C554 1.399 . S
C554 H540 0.929 . S
C554 C553 1.399 . S
C554 C555 1.385 . S
C555 H541 0.931 . S
C555 C554 1.385 . S
C555 C556 1.415 . S
C556 C555 1.415 . S
C556 C557 1.373 1_655 S
C557 H542 0.930 . S
C557 C552 1.390 . S
C557 C556 1.373 1_455 S
H558 C570 0.930 . S
H559 C572 0.930 . S
H560 C573 0.930 . S
H561 C577 0.959 . S
H562 C577 0.959 . S
H563 C577 0.961 . S
H564 C578 0.960 . S
H565 C578 0.961 . S
H566 C578 0.959 . S
H567 C581 0.929 . S
H568 C582 0.931 . S
H569 C584 0.930 . S
C570 H558 0.930 . S
C570 C571 1.399 . S
C570 C575 1.399 . S
C571 C570 1.399 . S
C571 C572 1.376 1_545 S
C572 H559 0.930 . S
C572 C571 1.376 1_565 S
C572 C573 1.388 . S
C573 H560 0.930 . S
C573 C572 1.388 . S
C573 C574 1.390 1_565 S
C574 C573 1.390 1_545 S
C574 C575 1.394 . S
C574 C580 1.465 1_545 S
C575 C570 1.399 . S
C575 C574 1.394 . S
C575 C576 1.516 . S
C576 C575 1.516 . S
C576 C577 1.502 . S
C576 C578 1.561 . S
C576 C579 1.526 . S
C577 H561 0.959 . S
C577 H562 0.959 . S
C577 H563 0.961 . S
C577 C576 1.502 . S
C578 H564 0.960 . S
C578 H565 0.961 . S
C578 H566 0.959 . S
C578 C576 1.561 . S
C579 C576 1.526 . S
C579 C580 1.396 1_545 S
C579 C584 1.390 . S
C580 C574 1.465 1_565 S
C580 C579 1.396 1_565 S
C580 C581 1.399 . S
C581 H567 0.929 . S
C581 C580 1.399 . S
C581 C582 1.385 . S
C582 H568 0.931 . S
C582 C581 1.385 . S
C582 C583 1.406 . S
C583 C582 1.406 . S
C583 C584 1.359 1_565 S
C584 H569 0.930 . S
C584 C579 1.390 . S
C584 C583 1.359 1_545 S
H585 C597 0.930 . S
H586 C599 0.930 . S
H587 C600 0.930 . S
H588 C604 0.959 . S
H589 C604 0.959 . S
H590 C604 0.961 . S
H591 C605 0.960 . S
H592 C605 0.961 . S
H593 C605 0.959 . S
H594 C608 0.929 . S
H595 C609 0.931 . S
H596 C611 0.930 . S
C597 H585 0.930 . S
C597 C598 1.399 . S
C597 C602 1.399 . S
C598 C597 1.399 . S
C598 C599 1.376 . S
C599 H586 0.930 . S
C599 C598 1.376 . S
C599 C600 1.388 . S
C600 H587 0.930 . S
C600 C599 1.388 . S
C600 C601 1.390 . S
C601 C600 1.390 . S
C601 C602 1.394 . S
C601 C607 1.465 . S
C602 C597 1.399 . S
C602 C601 1.394 . S
C602 C603 1.516 . S
C603 C602 1.516 . S
C603 C604 1.502 . S
C603 C605 1.561 . S
C603 C606 1.526 . S
C604 H588 0.959 . S
C604 H589 0.959 . S
C604 H590 0.961 . S
C604 C603 1.502 . S
C605 H591 0.960 . S
C605 H592 0.961 . S
C605 H593 0.959 . S
C605 C603 1.561 . S
C606 C603 1.526 . S
C606 C607 1.396 . S
C606 C611 1.390 . S
C607 C601 1.465 . S
C607 C606 1.396 . S
C607 C608 1.399 . S
C608 H594 0.929 . S
C608 C607 1.399 . S
C608 C609 1.385 . S
C609 H595 0.931 . S
C609 C608 1.385 . S
C609 C610 1.389 . S
C610 C609 1.389 . S
C610 C611 1.387 . S
C611 H596 0.930 . S
C611 C606 1.390 . S
C611 C610 1.387 . S
H612 C624 0.930 . S
H613 C626 0.930 . S
H614 C627 0.930 . S
H615 C631 0.959 . S
H616 C631 0.959 . S
H617 C631 0.961 . S
H618 C632 0.960 . S
H619 C632 0.961 . S
H620 C632 0.959 . S
H621 C635 0.929 . S
H622 C636 0.931 . S
H623 C638 0.930 . S
C624 H612 0.930 . S
C624 C625 1.399 . S
C624 C629 1.399 . S
C625 C624 1.399 . S
C625 C626 1.376 1_545 S
C626 H613 0.930 . S
C626 C625 1.376 1_565 S
C626 C627 1.388 . S
C627 H614 0.930 . S
C627 C626 1.388 . S
C627 C628 1.390 1_565 S
C628 C627 1.390 1_545 S
C628 C629 1.394 . S
C628 C634 1.465 1_545 S
C629 C624 1.399 . S
C629 C628 1.394 . S
C629 C630 1.516 . S
C630 C629 1.516 . S
C630 C631 1.502 . S
C630 C632 1.561 . S
C630 C633 1.526 . S
C631 H615 0.959 . S
C631 H616 0.959 . S
C631 H617 0.961 . S
C631 C630 1.502 . S
C632 H618 0.960 . S
C632 H619 0.961 . S
C632 H620 0.959 . S
C632 C630 1.561 . S
C633 C630 1.526 . S
C633 C634 1.396 1_545 S
C633 C638 1.390 . S
C634 C628 1.465 1_565 S
C634 C633 1.396 1_565 S
C634 C635 1.399 . S
C635 H621 0.929 . S
C635 C634 1.399 . S
C635 C636 1.385 . S
C636 H622 0.931 . S
C636 C635 1.385 . S
C636 C637 1.366 1_565 S
C637 C636 1.366 1_545 S
C637 C638 1.399 . S
C638 H623 0.930 . S
C638 C633 1.390 . S
C638 C637 1.399 . S
H639 C651 0.930 . S
H640 C653 0.930 . S
H641 C654 0.930 . S
H642 C658 0.959 . S
H643 C658 0.959 . S
H644 C658 0.961 . S
H645 C659 0.960 . S
H646 C659 0.961 . S
H647 C659 0.959 . S
H648 C662 0.929 . S
H649 C663 0.931 . S
H650 C665 0.930 . S
C651 H639 0.930 . S
C651 C652 1.399 . S
C651 C656 1.399 . S
C652 C651 1.399 . S
C652 C653 1.376 . S
C653 H640 0.930 . S
C653 C652 1.376 . S
C653 C654 1.388 . S
C654 H641 0.930 . S
C654 C653 1.388 . S
C654 C655 1.390 . S
C655 C654 1.390 . S
C655 C656 1.394 . S
C655 C661 1.465 . S
C656 C651 1.399 . S
C656 C655 1.394 . S
C656 C657 1.516 . S
C657 C656 1.516 . S
C657 C658 1.502 . S
C657 C659 1.561 . S
C657 C660 1.526 . S
C658 H642 0.959 . S
C658 H643 0.959 . S
C658 H644 0.961 . S
C658 C657 1.502 . S
C659 H645 0.960 . S
C659 H646 0.961 . S
C659 H647 0.959 . S
C659 C657 1.561 . S
C660 C657 1.526 . S
C660 C661 1.396 . S
C660 C665 1.390 . S
C661 C655 1.465 . S
C661 C660 1.396 . S
C661 C662 1.399 . S
C662 H648 0.929 . S
C662 C661 1.399 . S
C662 C663 1.385 . S
C663 H649 0.931 . S
C663 C662 1.385 . S
C663 C664 1.389 . S
C664 C663 1.389 . S
C664 C665 1.387 . S
C665 H650 0.930 . S
C665 C660 1.390 . S
C665 C664 1.387 . S
H666 C678 0.930 . S
H667 C680 0.930 . S
H668 C681 0.930 . S
H669 C685 0.959 . S
H670 C685 0.959 . S
H671 C685 0.961 . S
H672 C686 0.960 . S
H673 C686 0.961 . S
H674 C686 0.959 . S
H675 C689 0.929 . S
H676 C690 0.931 . S
H677 C692 0.930 . S
C678 H666 0.930 . S
C678 C679 1.399 . S
C678 C683 1.399 . S
C679 C678 1.399 . S
C679 C680 1.376 1_655 S
C680 H667 0.930 . S
C680 C679 1.376 1_455 S
C680 C681 1.388 . S
C681 H668 0.930 . S
C681 C680 1.388 . S
C681 C682 1.390 1_455 S
C682 C681 1.390 1_655 S
C682 C683 1.394 . S
C682 C688 1.465 1_655 S
C683 C678 1.399 . S
C683 C682 1.394 . S
C683 C684 1.516 . S
C684 C683 1.516 . S
C684 C685 1.502 . S
C684 C686 1.561 . S
C684 C687 1.526 . S
C685 H669 0.959 . S
C685 H670 0.959 . S
C685 H671 0.961 . S
C685 C684 1.502 . S
C686 H672 0.960 . S
C686 H673 0.961 . S
C686 H674 0.959 . S
C686 C684 1.561 . S
C687 C684 1.526 . S
C687 C688 1.396 1_655 S
C687 C692 1.390 . S
C688 C682 1.465 1_455 S
C688 C687 1.396 1_455 S
C688 C689 1.399 . S
C689 H675 0.929 . S
C689 C688 1.399 . S
C689 C690 1.385 . S
C690 H676 0.931 . S
C690 C689 1.385 . S
C690 C691 1.379 1_455 S
C691 C690 1.379 1_655 S
C691 C692 1.404 . S
C692 H677 0.930 . S
C692 C687 1.390 . S
C692 C691 1.404 . S
H693 C705 0.930 1_545 S
H694 C707 0.930 . S
H695 C708 0.930 . S
H696 C712 0.959 . S
H697 C712 0.959 . S
H698 C712 0.961 . S
H699 C713 0.960 . S
H700 C713 0.961 . S
H701 C713 0.959 . S
H702 C716 0.929 . S
H703 C717 0.931 . S
H704 C719 0.930 . S
C705 H693 0.930 1_565 S
C705 C706 1.399 . S
C705 C710 1.399 . S
C706 C705 1.399 . S
C706 C707 1.376 . S
C707 H694 0.930 . S
C707 C706 1.376 . S
C707 C708 1.388 . S
C708 H695 0.930 . S
C708 C707 1.388 . S
C708 C709 1.390 . S
C709 C708 1.390 . S
C709 C710 1.394 . S
C709 C715 1.465 . S
C710 C705 1.399 . S
C710 C709 1.394 . S
C710 C711 1.516 1_565 S
C711 C710 1.516 1_545 S
C711 C712 1.502 . S
C711 C713 1.561 . S
C711 C714 1.526 . S
C712 H696 0.959 . S
C712 H697 0.959 . S
C712 H698 0.961 . S
C712 C711 1.502 . S
C713 H699 0.960 . S
C713 H700 0.961 . S
C713 H701 0.959 . S
C713 C711 1.561 . S
C714 C711 1.526 . S
C714 C715 1.396 1_545 S
C714 C719 1.390 . S
C715 C709 1.465 . S
C715 C714 1.396 1_565 S
C715 C716 1.399 . S
C716 H702 0.929 . S
C716 C715 1.399 . S
C716 C717 1.385 . S
C717 H703 0.931 . S
C717 C716 1.385 . S
C717 C718 1.389 . S
C718 C717 1.389 . S
C718 C719 1.387 1_565 S
C719 H704 0.930 . S
C719 C714 1.390 . S
C719 C718 1.387 1_545 S
H720 C732 0.930 . S
H721 C734 0.930 . S
H722 C735 0.930 . S
H723 C739 0.959 . S
H724 C739 0.959 . S
H725 C739 0.961 . S
H726 C740 0.960 . S
H727 C740 0.961 . S
H728 C740 0.959 . S
H729 C743 0.929 . S
H730 C744 0.931 . S
H731 C746 0.930 . S
C732 H720 0.930 . S
C732 C733 1.399 . S
C732 C737 1.399 . S
C733 C732 1.399 . S
C733 C734 1.376 . S
C734 H721 0.930 . S
C734 C733 1.376 . S
C734 C735 1.388 . S
C735 H722 0.930 . S
C735 C734 1.388 . S
C735 C736 1.390 . S
C736 C735 1.390 . S
C736 C737 1.394 . S
C736 C742 1.465 . S
C737 C732 1.399 . S
C737 C736 1.394 . S
C737 C738 1.516 . S
C738 C737 1.516 . S
C738 C739 1.502 . S
C738 C740 1.561 . S
C738 C741 1.526 . S
C739 H723 0.959 . S
C739 H724 0.959 . S
C739 H725 0.961 . S
C739 C738 1.502 . S
C740 H726 0.960 . S
C740 H727 0.961 . S
C740 H728 0.959 . S
C740 C738 1.561 . S
C741 C738 1.526 . S
C741 C742 1.396 . S
C741 C746 1.390 . S
C742 C736 1.465 . S
C742 C741 1.396 . S
C742 C743 1.399 . S
C743 H729 0.929 . S
C743 C742 1.399 . S
C743 C744 1.385 . S
C744 H730 0.931 . S
C744 C743 1.385 . S
C744 C745 1.389 . S
C745 C744 1.389 . S
C745 C746 1.387 . S
C746 H731 0.930 . S
C746 C741 1.390 . S
C746 C745 1.387 . S
H747 C759 0.930 . S
H748 C761 0.930 . S
H749 C762 0.930 . S
H750 C766 0.959 . S
H751 C766 0.959 . S
H752 C766 0.961 . S
H753 C767 0.960 . S
H754 C767 0.961 . S
H755 C767 0.959 . S
H756 C770 0.929 . S
H757 C771 0.931 . S
H758 C773 0.930 1_655 S
C759 H747 0.930 . S
C759 C760 1.399 . S
C759 C764 1.399 . S
C760 C759 1.399 . S
C760 C761 1.376 . S
C761 H748 0.930 . S
C761 C760 1.376 . S
C761 C762 1.388 . S
C762 H749 0.930 . S
C762 C761 1.388 . S
C762 C763 1.390 . S
C763 C762 1.390 . S
C763 C764 1.394 . S
C763 C769 1.465 . S
C764 C759 1.399 . S
C764 C763 1.394 . S
C764 C765 1.516 . S
C765 C764 1.516 . S
C765 C766 1.502 1_455 S
C765 C767 1.561 . S
C765 C768 1.526 . S
C766 H750 0.959 . S
C766 H751 0.959 . S
C766 H752 0.961 . S
C766 C765 1.502 1_655 S
C767 H753 0.960 . S
C767 H754 0.961 . S
C767 H755 0.959 . S
C767 C765 1.561 . S
C768 C765 1.526 . S
C768 C769 1.396 . S
C768 C773 1.390 . S
C769 C763 1.465 . S
C769 C768 1.396 . S
C769 C770 1.399 . S
C770 H756 0.929 . S
C770 C769 1.399 . S
C770 C771 1.385 . S
C771 H757 0.931 . S
C771 C770 1.385 . S
C771 C772 1.389 . S
C772 C771 1.389 . S
C772 C773 1.387 . S
C773 H758 0.930 1_455 S
C773 C768 1.390 . S
C773 C772 1.387 . S
C475 C317 1.338 . S
C463 C29 1.289 . S
C490 C137 1.286 . S
C502 C361 1.332 . S
C517 C225 1.330 . S
C529 C423 1.303 . S
C544 C49 1.280 . S
C556 C299 1.325 . S
C583 C379 1.337 1_565 S
C571 C117 1.279 . S
C598 C205 1.310 . S
C610 C441 1.324 . S
C637 C355 1.571 . S
C625 C233 1.640 . S
C652 C57 1.677 . S
C664 C417 1.515 . S
C691 C293 1.580 . S
C679 C108 1.634 . S
C718 C373 1.578 1_565 S
C706 C196 1.671 . S
C745 C435 1.600 . S
C733 C20 1.625 . S
C760 C145 1.673 . S
C772 C311 1.535 1_455 S
