# Generated by pormake.
# Topology cml, (3,6)-cn, num edge types: 1
# Building blocks:
#     Node 0, Type 0, BuildingBlock: MIDCAF_clean_linker_0, # of connection points: 3
#     Node 1, Type 0, BuildingBlock: MIDCAF_clean_linker_0, # of connection points: 3
#     Node 2, Type 0, BuildingBlock: MIDCAF_clean_linker_0, # of connection points: 3
#     Node 3, Type 0, BuildingBlock: MIDCAF_clean_linker_0, # of connection points: 3
#     Node 4, Type 0, BuildingBlock: MIDCAF_clean_linker_0, # of connection points: 3
#     Node 5, Type 0, BuildingBlock: MIDCAF_clean_linker_0, # of connection points: 3
#     Node 6, Type 0, BuildingBlock: MIDCAF_clean_linker_0, # of connection points: 3
#     Node 7, Type 0, BuildingBlock: MIDCAF_clean_linker_0, # of connection points: 3
#     Node 8, Type 1, BuildingBlock: OJICUG_clean_sbu_0, # of connection points: 6
#     Node 9, Type 1, BuildingBlock: OJICUG_clean_sbu_0, # of connection points: 6
#     Node 10, Type 1, BuildingBlock: OJICUG_clean_sbu_0, # of connection points: 6
#     Node 11, Type 1, BuildingBlock: OJICUG_clean_sbu_0, # of connection points: 6
#     Edge 12, Type (0, 1), BuildingBlock: CIFDUS_clean_linker_0, # of connection points: 2
#     Edge 13, Type (0, 1), BuildingBlock: CIFDUS_clean_linker_0, # of connection points: 2
#     Edge 14, Type (0, 1), BuildingBlock: CIFDUS_clean_linker_0, # of connection points: 2
#     Edge 15, Type (0, 1), BuildingBlock: CIFDUS_clean_linker_0, # of connection points: 2
#     Edge 16, Type (0, 1), BuildingBlock: CIFDUS_clean_linker_0, # of connection points: 2
#     Edge 17, Type (0, 1), BuildingBlock: CIFDUS_clean_linker_0, # of connection points: 2
#     Edge 18, Type (0, 1), BuildingBlock: CIFDUS_clean_linker_0, # of connection points: 2
#     Edge 19, Type (0, 1), BuildingBlock: CIFDUS_clean_linker_0, # of connection points: 2
#     Edge 20, Type (0, 1), BuildingBlock: CIFDUS_clean_linker_0, # of connection points: 2
#     Edge 21, Type (0, 1), BuildingBlock: CIFDUS_clean_linker_0, # of connection points: 2
#     Edge 22, Type (0, 1), BuildingBlock: CIFDUS_clean_linker_0, # of connection points: 2
#     Edge 23, Type (0, 1), BuildingBlock: CIFDUS_clean_linker_0, # of connection points: 2
#     Edge 24, Type (0, 1), BuildingBlock: CIFDUS_clean_linker_0, # of connection points: 2
#     Edge 25, Type (0, 1), BuildingBlock: CIFDUS_clean_linker_0, # of connection points: 2
#     Edge 26, Type (0, 1), BuildingBlock: CIFDUS_clean_linker_0, # of connection points: 2
#     Edge 27, Type (0, 1), BuildingBlock: CIFDUS_clean_linker_0, # of connection points: 2
#     Edge 28, Type (0, 1), BuildingBlock: CIFDUS_clean_linker_0, # of connection points: 2
#     Edge 29, Type (0, 1), BuildingBlock: CIFDUS_clean_linker_0, # of connection points: 2
#     Edge 30, Type (0, 1), BuildingBlock: CIFDUS_clean_linker_0, # of connection points: 2
#     Edge 31, Type (0, 1), BuildingBlock: CIFDUS_clean_linker_0, # of connection points: 2
#     Edge 32, Type (0, 1), BuildingBlock: CIFDUS_clean_linker_0, # of connection points: 2
#     Edge 33, Type (0, 1), BuildingBlock: CIFDUS_clean_linker_0, # of connection points: 2
#     Edge 34, Type (0, 1), BuildingBlock: CIFDUS_clean_linker_0, # of connection points: 2
#     Edge 35, Type (0, 1), BuildingBlock: CIFDUS_clean_linker_0, # of connection points: 2
# Relax obj value: 0.074
# Max RMSD: 0.086
# Mean RMSD: 0.082
data_MOF--net-cml--node1-OJICUG_clean_sbu_0--node2-MIDCAF_clean_linker_0--edge1-CIFDUS_clean_linker_0
_symmetry_space_group_name_H-M    P1
_symmetry_Int_Tables_number       1
_symmetry_cell_setting            triclinic
loop_
_symmetry_equiv_pos_as_xyz
'x, y, z'
_cell_length_a     42.564276
_cell_length_b     43.029597
_cell_length_c     40.63858
_cell_angle_alpha  89.83697
_cell_angle_beta   89.952603
_cell_angle_gamma 89.659202
loop_
_atom_site_label
_atom_site_type_symbol
_atom_site_fract_x
_atom_site_fract_y
_atom_site_fract_z
_atom_type_partial_charge
C0 C 0.33057 0.37462 0.10296 0.0
C1 C 0.32458 0.34395 0.11299 0.0
C2 C 0.30572 0.325 0.09315 0.0
C3 C 0.29342 0.33648 0.06355 0.0
H4 H 0.21627 0.33162 0.99765 0.0
H5 H 0.17505 0.30504 0.96782 0.0
H6 H 0.19922 0.35558 0.87942 0.0
H7 H 0.24014 0.38291 0.90944 0.0
H8 H 0.28898 0.43664 0.91365 0.0
H9 H 0.32043 0.47636 0.88652 0.0
H10 H 0.37781 0.48437 0.97368 0.0
H11 H 0.34625 0.44529 0.00108 0.0
H12 H 0.32429 0.4095 0.0661 0.0
H13 H 0.34542 0.38963 0.11751 0.0
H14 H 0.30076 0.30128 0.1004 0.0
H15 H 0.27939 0.32123 0.04842 0.0
N16 N 0.26603 0.36457 0.00427 0.0
N17 N 0.27312 0.39857 0.95968 0.0
N18 N 0.30531 0.40241 0.00611 0.0
C19 C 0.25737 0.37468 0.97386 0.0
C20 C 0.2971 0.41258 0.97567 0.0
C21 C 0.28994 0.37844 0.02057 0.0
C22 C 0.23169 0.35924 0.95591 0.0
C23 C 0.21286 0.33716 0.97188 0.0
C24 C 0.18931 0.32179 0.95473 0.0
C25 C 0.1842 0.32795 0.92117 0.0
C26 C 0.20254 0.35048 0.9053 0.0
C27 C 0.22605 0.36601 0.92252 0.0
C28 C 0.31509 0.43768 0.95956 0.0
C29 C 0.30816 0.44701 0.92715 0.0
C30 C 0.32626 0.46963 0.91149 0.0
C31 C 0.35156 0.48342 0.92797 0.0
C32 C 0.35819 0.47444 0.9605 0.0
C33 C 0.34016 0.45187 0.97613 0.0
C34 C 0.30029 0.3669 0.0531 0.0
C35 C 0.31867 0.38592 0.07333 0.0
C36 C 0.67821 0.59031 0.61607 0.0
C37 C 0.67929 0.62161 0.62571 0.0
C38 C 0.69405 0.64325 0.60495 0.0
C39 C 0.70704 0.63379 0.5749 0.0
H40 H 0.74872 0.6655 0.48631 0.0
H41 H 0.78185 0.69935 0.45331 0.0
H42 H 0.81801 0.61939 0.40095 0.0
H43 H 0.78369 0.58579 0.43288 0.0
H44 H 0.72529 0.53237 0.42739 0.0
H45 H 0.69882 0.48803 0.40288 0.0
H46 H 0.65594 0.46694 0.49664 0.0
H47 H 0.68268 0.51069 0.52133 0.0
H48 H 0.68917 0.55665 0.57937 0.0
H49 H 0.66658 0.57312 0.63124 0.0
H50 H 0.69537 0.66751 0.61185 0.0
H51 H 0.71785 0.65108 0.5592 0.0
N52 N 0.73455 0.6116 0.51329 0.0
N53 N 0.73576 0.57404 0.47148 0.0
N54 N 0.70832 0.56433 0.52031 0.0
C55 C 0.74434 0.60235 0.48297 0.0
C56 C 0.71766 0.55492 0.48999 0.0
C57 C 0.7167 0.59252 0.53222 0.0
C58 C 0.76384 0.62298 0.46241 0.0
C59 C 0.76365 0.6552 0.46765 0.0
C60 C 0.78272 0.67457 0.44875 0.0
C61 C 0.80289 0.6621 0.42464 0.0
C62 C 0.80249 0.62989 0.41894 0.0
C63 C 0.783 0.61057 0.43746 0.0
C64 C 0.7057 0.52546 0.47623 0.0
C65 C 0.71069 0.51796 0.44296 0.0
C66 C 0.69544 0.49263 0.42884 0.0
C67 C 0.67504 0.47423 0.44773 0.0
C68 C 0.67169 0.48052 0.48145 0.0
C69 C 0.68685 0.50583 0.49556 0.0
C70 C 0.70518 0.60256 0.56494 0.0
C71 C 0.69095 0.58091 0.5861 0.0
C72 C 0.66663 0.40457 0.11664 0.0
C73 C 0.65551 0.37408 0.1207 0.0
C74 C 0.66838 0.35031 0.10105 0.0
C75 C 0.6903 0.35734 0.07642 0.0
H76 H 0.78968 0.34214 0.03174 0.0
H77 H 0.82947 0.30777 0.00871 0.0
H78 H 0.81106 0.34539 0.91177 0.0
H79 H 0.77237 0.38087 0.9352 0.0
H80 H 0.74093 0.45076 0.93436 0.0
H81 H 0.71808 0.4935 0.90259 0.0
H82 H 0.65878 0.51728 0.98525 0.0
H83 H 0.68203 0.4756 0.01712 0.0
H84 H 0.69489 0.43561 0.08826 0.0
H85 H 0.65803 0.4233 0.13203 0.0
H86 H 0.66032 0.32659 0.10346 0.0
H87 H 0.69864 0.33891 0.06049 0.0
N88 N 0.7392 0.37762 0.02812 0.0
N89 N 0.74577 0.41193 0.98351 0.0
N90 N 0.70974 0.42371 0.02524 0.0
C91 C 0.75385 0.3852 -0.00057 0.0
C92 C 0.72377 0.4314 0.9964 0.0
C93 C 0.71721 0.39696 0.04116 0.0
C94 C 0.77787 0.36419 0.98529 0.0
C95 C 0.79415 0.34307 0.00551 0.0
C96 C 0.81687 0.32322 0.99223 0.0
C97 C 0.82346 0.32359 0.95828 0.0
C98 C 0.80707 0.34476 0.93807 0.0
C99 C 0.78471 0.365 0.95148 0.0
C100 C 0.71308 0.45943 0.9782 0.0
C101 C 0.72342 0.46546 0.94594 0.0
C102 C 0.71021 0.48986 0.92765 0.0
C103 C 0.68646 0.50873 0.94127 0.0
C104 C 0.6773 0.50356 0.97405 0.0
C105 C 0.69049 0.47932 0.99229 0.0
C106 C 0.69931 0.38827 0.07083 0.0
C107 C 0.68796 0.41163 0.09175 0.0
C108 C 0.33894 0.60416 0.61151 0.0
C109 C 0.33331 0.63417 0.62376 0.0
C110 C 0.30865 0.65194 0.61028 0.0
C111 C 0.28987 0.63973 0.58516 0.0
H112 H 0.21665 0.6593 0.52202 0.0
H113 H 0.17358 0.6888 0.49817 0.0
H114 H 0.15355 0.61283 0.43233 0.0
H115 H 0.19728 0.58327 0.45576 0.0
H116 H 0.2594 0.53362 0.44525 0.0
H117 H 0.28589 0.48909 0.41993 0.0
H118 H 0.33014 0.46726 0.51285 0.0
H119 H 0.30357 0.51118 0.53814 0.0
H120 H 0.32566 0.56882 0.57792 0.0
H121 H 0.35817 0.59009 0.62083 0.0
H122 H 0.30372 0.67512 0.61932 0.0
H123 H 0.27106 0.65395 0.57519 0.0
N124 N 0.2528 0.6127 0.53184 0.0
N125 N 0.24495 0.57248 0.49371 0.0
N126 N 0.28452 0.5682 0.53347 0.0
C127 C 0.23662 0.6008 0.50592 0.0
C128 C 0.26883 0.55599 0.50761 0.0
C129 C 0.27683 0.59648 0.54573 0.0
C130 C 0.21044 0.61878 0.49097 0.0
C131 C 0.20317 0.64875 0.50247 0.0
C132 C 0.1783 0.66566 0.4889 0.0
C133 C 0.15996 0.65304 0.46356 0.0
C134 C 0.16739 0.62325 0.45169 0.0
C135 C 0.19237 0.60628 0.46526 0.0
C136 C 0.27981 0.52621 0.49354 0.0
C137 C 0.27417 0.51885 0.46042 0.0
C138 C 0.28946 0.49348 0.44589 0.0
C139 C 0.31034 0.47492 0.46434 0.0
C140 C 0.31407 0.48097 0.49802 0.0
C141 C 0.29903 0.50637 0.51243 0.0
C142 C 0.29558 0.6096 0.57303 0.0
C143 C 0.32032 0.59202 0.58663 0.0
C144 C 0.81384 0.89968 0.13253 0.0
C145 C 0.815 0.8676 0.13924 0.0
C146 C 0.79641 0.8475 0.12034 0.0
C147 C 0.7786 0.85909 0.09401 0.0
H148 H 0.69944 0.84429 0.03291 0.0
H149 H 0.65825 0.81564 0.00502 0.0
H150 H 0.6577 0.88348 0.92646 0.0
H151 H 0.69925 0.91199 0.95391 0.0
H152 H 0.74969 0.9618 0.95046 0.0
H153 H 0.77872 -0.00031 0.91809 0.0
H154 H 0.84494 0.01011 0.99773 0.0
H155 H 0.8158 0.97268 0.0304 0.0
H156 H 0.79708 0.93584 0.10086 0.0
H157 H 0.82714 0.91593 0.14722 0.0
H158 H 0.79682 0.82268 0.12484 0.0
H159 H 0.76559 0.84292 0.07894 0.0
N160 N 0.74061 0.8873 0.04107 0.0
N161 N 0.741 0.92278 0.99717 0.0
N162 N 0.77693 0.92809 0.04024 0.0
C163 C 0.72843 0.89746 0.01201 0.0
C164 C 0.76523 0.93823 0.01105 0.0
C165 C 0.76472 0.90273 0.05544 0.0
C166 C 0.70271 0.88046 0.99571 0.0
C167 C 0.69053 0.85321 0.00976 0.0
C168 C 0.66682 0.83685 0.99385 0.0
C169 C 0.65474 0.8474 0.96359 0.0
C170 C 0.6668 0.87465 0.94957 0.0
C171 C 0.6905 0.89105 0.96547 0.0
C172 C 0.78057 0.96391 0.99297 0.0
C173 C 0.77019 0.97244 0.96131 0.0
C174 C 0.78688 0.99405 0.94264 0.0
C175 C 0.8142 0.00768 0.95527 0.0
C176 C 0.82379 0.00022 0.98743 0.0
C177 C 0.80715 0.97859 0.0061 0.0
C178 C 0.77938 0.89089 0.08598 0.0
C179 C 0.79649 0.91114 0.10605 0.0
C180 C 0.15484 0.10037 0.60577 0.0
C181 C 0.15892 0.1308 0.61737 0.0
C182 C 0.18088 0.15007 0.60155 0.0
C183 C 0.19823 0.13907 0.57459 0.0
H184 H 0.25603 0.16647 0.49645 0.0
H185 H 0.29168 0.19892 0.46475 0.0
H186 H 0.31232 0.12159 0.40055 0.0
H187 H 0.27618 0.08927 0.43163 0.0
H188 H 0.20593 0.04025 0.43188 0.0
H189 H 0.17943 0.99373 0.41351 0.0
H190 H 0.1844 0.95609 0.51235 0.0
H191 H 0.20877 0.00404 0.53093 0.0
H192 H 0.16791 0.06586 0.57098 0.0
H193 H 0.13761 0.08508 0.61674 0.0
H194 H 0.18469 0.17358 0.61002 0.0
H195 H 0.21477 0.15451 0.56272 0.0
N196 N 0.22935 0.11558 0.51511 0.0
N197 N 0.23658 0.07548 0.47665 0.0
N198 N 0.20528 0.06736 0.52319 0.0
C199 C 0.24265 0.10493 0.48676 0.0
C200 C 0.21815 0.05655 0.49497 0.0
C201 C 0.21054 0.09684 0.53343 0.0
C202 C 0.26337 0.12514 0.46682 0.0
C203 C 0.26801 0.15637 0.47549 0.0
C204 C 0.28853 0.17497 0.45737 0.0
C205 C 0.30499 0.16276 0.43027 0.0
C206 C 0.29976 0.13179 0.42108 0.0
C207 C 0.27917 0.1132 0.43911 0.0
C208 C 0.20896 0.02578 0.48282 0.0
C209 C 0.20193 0.0217 0.44945 0.0
C210 C 0.18684 0.9948 0.43895 0.0
C211 C 0.1792 0.97105 0.4615 0.0
C212 C 0.18892 0.97418 0.49443 0.0
C213 C 0.20318 0.00149 0.50507 0.0
C214 C 0.19391 0.10859 0.56301 0.0
C215 C 0.17218 0.08938 0.57918 0.0
C216 C 0.17288 0.88486 0.12348 0.0
C217 C 0.17342 0.8536 0.1335 0.0
C218 C 0.18749 0.83131 0.11296 0.0
C219 C 0.20049 0.84016 0.08273 0.0
H220 H 0.25203 0.80894 0.00217 0.0
H221 H 0.29195 0.7765 0.97655 0.0
H222 H 0.32143 0.85422 0.91666 0.0
H223 H 0.28061 0.88655 0.9416 0.0
H224 H 0.21234 0.93508 0.93095 0.0
H225 H 0.18556 0.97993 0.90648 0.0
H226 H 0.15439 0.0087 0.00294 0.0
H227 H 0.1813 0.96447 0.02739 0.0
H228 H 0.1842 0.91789 0.08613 0.0
H229 H 0.16178 0.90249 0.13859 0.0
H230 H 0.18824 0.80707 0.12018 0.0
H231 H 0.21083 0.82244 0.06717 0.0
N232 N 0.23054 0.86205 0.0223 0.0
N233 N 0.23114 0.89811 0.97877 0.0
N234 N 0.20137 0.90812 0.02616 0.0
C235 C 0.24095 0.87064 0.992 0.0
C236 C 0.21122 0.91695 0.9958 0.0
C237 C 0.21086 0.88077 0.03957 0.0
C238 C 0.2634 0.85043 0.9742 0.0
C239 C 0.26685 0.8191 0.98336 0.0
C240 C 0.28983 0.80051 0.96875 0.0
C241 C 0.31022 0.81288 0.94492 0.0
C242 C 0.30597 0.8439 0.93478 0.0
C243 C 0.28267 0.86247 0.94918 0.0
C244 C 0.19866 0.94597 0.98108 0.0
C245 C 0.20024 0.95128 0.94697 0.0
C246 C 0.18477 0.97684 0.93293 0.0
C247 C 0.16771 -0.0023 0.95277 0.0
C248 C 0.16754 0.99322 0.987 0.0
C249 C 0.18278 0.96765 0.00098 0.0
C250 C 0.19916 0.87137 0.07236 0.0
C251 C 0.18549 0.89363 0.09324 0.0
C252 C 0.82499 0.10172 0.61348 0.0
C253 C 0.81987 0.13022 0.62941 0.0
C254 C 0.80243 0.15353 0.61328 0.0
C255 C 0.79108 0.14867 0.58139 0.0
H256 H 0.71952 0.17136 0.51434 0.0
H257 H 0.67867 0.20348 0.49011 0.0
H258 H 0.70093 0.16684 0.39395 0.0
H259 H 0.74162 0.13386 0.41833 0.0
H260 H 0.79153 0.07575 0.41374 0.0
H261 H 0.82146 0.03628 0.38337 0.0
H262 H 0.87371 0.01431 0.47155 0.0
H263 H 0.844 0.05272 0.50177 0.0
H264 H 0.81912 0.07501 0.5698 0.0
H265 H 0.83869 0.08346 0.6251 0.0
H266 H 0.79807 0.17568 0.62509 0.0
H267 H 0.77837 0.16729 0.5692 0.0
N268 N 0.76622 0.13418 0.51576 0.0
N269 N 0.77464 0.10879 0.46532 0.0
N270 N 0.80401 0.09475 0.51181 0.0
C271 C 0.7589 0.13047 0.48342 0.0
C272 C 0.79732 0.09084 0.47947 0.0
C273 C 0.78869 0.11628 0.53011 0.0
C274 C 0.73401 0.15002 0.4683 0.0
C275 C 0.71586 0.17006 0.488 0.0
C276 C 0.69249 0.18869 0.47408 0.0
C277 C 0.68671 0.18792 0.44006 0.0
C278 C 0.70466 0.16777 0.42029 0.0
C279 C 0.72807 0.14898 0.43427 0.0
C280 C 0.81513 0.06734 0.4603 0.0
C281 C 0.80935 0.0624 0.42661 0.0
C282 C 0.82655 0.03994 0.40917 0.0
C283 C 0.84965 0.02197 0.42519 0.0
C284 C 0.8556 0.02728 0.45866 0.0
C285 C 0.83858 0.04955 0.47597 0.0
C286 C 0.79745 0.12059 0.56498 0.0
C287 C 0.81401 0.097 0.58162 0.0
Sc288 Sc 0.99092 0.78095 0.30754 0.0
Sc289 Sc 0.00669 0.86139 0.3117 0.0
Sc290 Sc -0.00196 0.81867 0.38442 0.0
O291 O -0.00153 0.82025 0.3345 0.0
C292 C 0.94202 0.77295 0.36675 0.0
C293 C 0.95438 0.83163 0.26507 0.0
C294 C 0.96091 0.88197 0.36968 0.0
C295 C 0.04636 0.81438 0.26792 0.0
C296 C 0.03429 0.75586 0.36612 0.0
C297 C 0.0543 0.86529 0.37198 0.0
O298 O 0.95188 0.76624 0.33803 0.0
O299 O 0.97108 0.8538 0.27562 0.0
O300 O 0.96892 0.85939 0.38813 0.0
O301 O 0.02914 0.79089 0.27378 0.0
O302 O 0.02654 0.77757 0.38569 0.0
O303 O 0.04432 0.87382 0.34399 0.0
O304 O 0.02401 0.75405 0.33676 0.0
O305 O 0.04158 0.84087 0.28073 0.0
O306 O 0.0403 0.84536 0.38968 0.0
O307 O 0.95723 0.80377 0.27533 0.0
O308 O 0.9561 0.79181 0.38549 0.0
O309 O 0.97216 0.88589 0.34096 0.0
Sc310 Sc -0.00154 0.20302 0.80523 0.0
Sc311 Sc 0.98626 0.12197 0.81276 0.0
Sc312 Sc -0.00065 0.1665 0.88325 0.0
O313 O 0.99463 0.1639 0.83369 0.0
C314 C 0.05144 0.21403 0.85922 0.0
C315 C 0.03673 0.15243 0.76408 0.0
C316 C 0.03636 0.10367 0.86802 0.0
C317 C 0.94319 0.16669 0.76898 0.0
C318 C 0.95798 0.22677 0.8663 0.0
C319 C 0.94321 0.11823 0.87668 0.0
O320 O 0.03877 0.22012 0.83164 0.0
O321 O 0.02214 0.12949 0.77649 0.0
O322 O 0.0311 0.12746 0.88568 0.0
O323 O 0.9587 0.19121 0.77485 0.0
O324 O 0.96815 0.20582 0.88576 0.0
O325 O 0.9498 0.11016 0.84739 0.0
O326 O 0.96668 0.22904 0.83641 0.0
O327 O 0.95027 0.14042 0.78129 0.0
O328 O 0.95931 0.13786 0.89255 0.0
O329 O 0.03076 0.18057 0.7716 0.0
O330 O 0.03994 0.1951 0.87983 0.0
O331 O 0.02148 0.09835 0.84157 0.0
Sc332 Sc 0.48581 0.28608 0.30382 0.0
Sc333 Sc 0.48663 0.36817 0.30475 0.0
Sc334 Sc 0.49263 0.32696 0.37872 0.0
O335 O 0.48837 0.32697 0.32905 0.0
C336 C 0.44433 0.27143 0.36715 0.0
C337 C 0.43512 0.32896 0.26695 0.0
C338 C 0.44471 0.38286 0.36807 0.0
C339 C 0.52892 0.32659 0.25657 0.0
C340 C 0.53811 0.2714 0.35835 0.0
C341 C 0.53894 0.3819 0.35799 0.0
O342 O 0.45055 0.26748 0.33679 0.0
O343 O 0.44599 0.35431 0.27792 0.0
O344 O 0.45501 0.3602 0.38514 0.0
O345 O 0.52103 0.30036 0.26842 0.0
O346 O 0.53025 0.29376 0.37703 0.0
O347 O 0.52724 0.38611 0.32957 0.0
O348 O 0.52344 0.26485 0.332 0.0
O349 O 0.51742 0.35215 0.26663 0.0
O350 O 0.52786 0.36253 0.37852 0.0
O351 O 0.44786 0.30262 0.27257 0.0
O352 O 0.45846 0.29116 0.38486 0.0
O353 O 0.45524 0.38924 0.33963 0.0
Sc354 Sc 0.5031 0.71207 0.79858 0.0
Sc355 Sc 0.5144 0.63116 0.80962 0.0
Sc356 Sc 0.50701 0.67917 0.8784 0.0
O357 O 0.50827 0.67424 0.82881 0.0
C358 C 0.54514 0.73934 0.85612 0.0
C359 C 0.55585 0.67256 0.76114 0.0
C360 C 0.56226 0.62951 0.87003 0.0
C361 C 0.46195 0.66069 0.76254 0.0
C362 C 0.45318 0.72617 0.85573 0.0
C363 C 0.46907 0.61623 0.86978 0.0
O364 O 0.53679 0.7394 0.82603 0.0
O365 O 0.54907 0.6472 0.77544 0.0
O366 O 0.54873 0.65131 0.88577 0.0
O367 O 0.46855 0.68898 0.7683 0.0
O368 O 0.46559 0.70749 0.87627 0.0
O369 O 0.48024 0.61008 0.84156 0.0
O370 O 0.46445 0.73084 0.82712 0.0
O371 O 0.47703 0.63805 0.77512 0.0
O372 O 0.47713 0.63996 0.88608 0.0
O373 O 0.54095 0.69782 0.76622 0.0
O374 O 0.53587 0.71929 0.87682 0.0
O375 O 0.55223 0.61959 0.84257 0.0
H376 H 0.17293 0.26641 0.92508 0.0
H377 H 0.14167 0.35009 0.87604 0.0
H378 H 0.09957 0.32117 0.84917 0.0
H379 H 0.06891 0.27292 0.84367 0.0
H380 H 0.09868 0.19069 0.8964 0.0
H381 H 0.14407 0.21826 0.91793 0.0
C382 C 0.15681 0.27837 0.90863 0.0
C383 C 0.16009 0.31037 0.90292 0.0
C384 C 0.13236 0.26187 0.89403 0.0
C385 C 0.13963 0.3254 0.8808 0.0
C386 C 0.11547 0.30894 0.86558 0.0
C387 C 0.08566 0.26102 0.85946 0.0
C388 C 0.08049 0.22998 0.86865 0.0
C389 C 0.11125 0.27727 0.87253 0.0
C390 C 0.10211 0.21473 0.8893 0.0
C391 C 0.12802 0.23044 0.90161 0.0
H392 H 0.83536 0.71036 0.45009 0.0
H393 H 0.82247 0.65891 0.36011 0.0
H394 H 0.86368 0.6894 0.33358 0.0
H395 H 0.90511 0.72919 0.33699 0.0
H396 H 0.91564 0.78119 0.42718 0.0
H397 H 0.87291 0.75247 0.45206 0.0
C398 C 0.84091 0.7062 0.42442 0.0
C399 C 0.82582 0.68226 0.40724 0.0
C400 C 0.86429 0.72392 0.40927 0.0
C401 C 0.83403 0.67685 0.37417 0.0
C402 C 0.85749 0.69439 0.3589 0.0
C403 C 0.89789 0.73443 0.36197 0.0
C404 C 0.91395 0.75713 0.38018 0.0
C405 C 0.87311 0.71772 0.37639 0.0
C406 C 0.90402 0.76371 0.41251 0.0
C407 C 0.87954 0.74726 0.42689 0.0
H408 H 0.86493 0.33441 0.90802 0.0
H409 H 0.83504 0.26327 0.9763 0.0
H410 H 0.87457 0.22783 0.95453 0.0
H411 H 0.91726 0.2167 0.91612 0.0
H412 H 0.94503 0.28593 0.84496 0.0
H413 H 0.90602 0.32223 0.86738 0.0
C414 C 0.86669 0.31104 0.91789 0.0
C415 C 0.84711 0.30178 0.94409 0.0
C416 C 0.88901 0.29038 0.90468 0.0
C417 C 0.8502 0.27143 0.95674 0.0
C418 C 0.87265 0.25098 0.94411 0.0
C419 C 0.9149 0.23979 0.90557 0.0
C420 C 0.93419 0.24875 0.87914 0.0
C421 C 0.89222 0.26024 0.9182 0.0
C422 C 0.93044 0.27851 0.86535 0.0
C423 C 0.90821 0.29927 0.8782 0.0
H424 H 0.14257 0.65965 0.39912 0.0
H425 H 0.11668 0.68667 0.49779 0.0
H426 H 0.07482 0.71965 0.47615 0.0
H427 H 0.04728 0.74264 0.42963 0.0
H428 H 0.07182 0.71596 0.33055 0.0
H429 H 0.1121 0.68039 0.35203 0.0
C430 C 0.12747 0.67242 0.41587 0.0
C431 C 0.13305 0.67104 0.45001 0.0
C432 C 0.10326 0.69136 0.40325 0.0
C433 C 0.11336 0.68785 0.47139 0.0
C434 C 0.08929 0.70659 0.45907 0.0
C435 C 0.06135 0.72902 0.41263 0.0
C436 C 0.05679 0.73223 0.37852 0.0
C437 C 0.08439 0.70888 0.42508 0.0
C438 C 0.07488 0.71396 0.35693 0.0
C439 C 0.09799 0.69373 0.3692 0.0
H440 H 0.65062 0.83323 0.89834 0.0
H441 H 0.60261 0.82232 0.9913 0.0
H442 H 0.56335 0.78968 0.96517 0.0
H443 H 0.54464 0.76194 0.9173 0.0
H444 H 0.59148 0.77182 0.82373 0.0
H445 H 0.62896 0.80811 0.84858 0.0
C446 C 0.63128 0.82407 0.91271 0.0
C447 C 0.62973 0.82978 0.9468 0.0
C448 C 0.60872 0.80527 0.8975 0.0
C449 C 0.60466 0.81768 0.96519 0.0
C450 C 0.58213 0.79919 0.95026 0.0
C451 C 0.56301 0.77208 0.90224 0.0
C452 C 0.56573 0.76389 0.86892 0.0
C453 C 0.58433 0.7924 0.91666 0.0
C454 C 0.58908 0.77776 0.8495 0.0
C455 C 0.61053 0.79831 0.86374 0.0
H456 H 0.34786 0.2009 0.4576 0.0
H457 H 0.31597 0.16669 0.36378 0.0
H458 H 0.35669 0.19676 0.33572 0.0
H459 H 0.40139 0.23302 0.33809 0.0
H460 H 0.43172 0.2674 0.43267 0.0
H461 H 0.39127 0.23732 0.45997 0.0
C462 C 0.34946 0.20036 0.43096 0.0
C463 C 0.32881 0.18173 0.41283 0.0
C464 C 0.3727 0.21772 0.41507 0.0
C465 C 0.33175 0.18071 0.37836 0.0
C466 C 0.35494 0.19796 0.3623 0.0
C467 C 0.39919 0.23386 0.36466 0.0
C468 C 0.41966 0.25251 0.38317 0.0
C469 C 0.37564 0.21652 0.38043 0.0
C470 C 0.41632 0.2534 0.41764 0.0
C471 C 0.39317 0.23616 0.43339 0.0
H472 H 0.33315 0.81001 0.882 0.0
H473 H 0.34783 0.77362 0.98001 0.0
H474 H 0.39215 0.74287 0.96059 0.0
H475 H 0.42753 0.72735 0.9167 0.0
H476 H 0.41522 0.76467 0.81875 0.0
H477 H 0.36938 0.79435 0.83745 0.0
C478 C 0.34616 0.79548 0.89912 0.0
C479 C 0.33693 0.79397 0.93237 0.0
C480 C 0.37211 0.77813 0.8879 0.0
C481 C 0.35391 0.77478 0.95416 0.0
C482 C 0.37947 0.75735 0.94315 0.0
C483 C 0.41484 0.74184 0.89926 0.0
C484 C 0.42489 0.74372 0.86634 0.0
C485 C 0.38881 0.75893 0.91016 0.0
C486 C 0.40809 0.7628 0.84426 0.0
C487 C 0.38186 0.77977 0.85493 0.0
H488 H 0.64391 0.17303 0.39273 0.0
H489 H 0.67397 0.24843 0.45489 0.0
H490 H 0.63099 0.28082 0.43462 0.0
H491 H 0.58407 0.28723 0.40092 0.0
H492 H 0.55413 0.21283 0.33741 0.0
H493 H 0.59833 0.18073 0.3561 0.0
C494 C 0.64132 0.19669 0.40147 0.0
C495 C 0.66191 0.20814 0.4256 0.0
C496 C 0.6166 0.21534 0.38954 0.0
C497 C 0.65807 0.2388 0.43685 0.0
C498 C 0.6336 0.25742 0.42515 0.0
C499 C 0.58714 0.26397 0.39113 0.0
C500 C 0.56561 0.25231 0.36809 0.0
C501 C 0.61251 0.24578 0.40187 0.0
C502 C 0.57032 0.22235 0.35523 0.0
C503 C 0.59554 0.20396 0.36597 0.0
H504 H 0.37331 0.53736 0.95317 0.0
H505 H 0.37469 0.48138 0.86526 0.0
H506 H 0.41044 0.51814 0.83897 0.0
H507 H 0.44308 0.56484 0.84202 0.0
H508 H 0.44234 0.61997 0.93077 0.0
H509 H 0.40483 0.58456 0.95576 0.0
C510 C 0.38155 0.53315 0.9283 0.0
C511 C 0.37156 0.50664 0.91126 0.0
C512 C 0.40236 0.55406 0.91357 0.0
C513 C 0.38187 0.50179 0.8788 0.0
C514 C 0.40247 0.52265 0.86385 0.0
C515 C 0.43474 0.56915 0.86682 0.0
C516 C 0.44576 0.59495 0.8845 0.0
C517 C 0.41316 0.54867 0.88117 0.0
C518 C 0.43443 0.60026 0.91656 0.0
C519 C 0.41293 0.58003 0.93093 0.0
H520 H 0.64318 0.48027 0.39037 0.0
H521 H 0.66056 0.416 0.47012 0.0
H522 H 0.62078 0.38094 0.44827 0.0
H523 H 0.5785 0.37064 0.40904 0.0
H524 H 0.56113 0.435 0.32926 0.0
H525 H 0.60401 0.46775 0.34838 0.0
C526 C 0.63883 0.45825 0.40254 0.0
C527 C 0.65467 0.45081 0.43192 0.0
C528 C 0.61577 0.4384 0.39004 0.0
C529 C 0.64839 0.4224 0.44768 0.0
C530 C 0.62568 0.40237 0.43521 0.0
C531 C 0.58412 0.39179 0.39574 0.0
C532 C 0.56631 0.40059 0.36805 0.0
C533 C 0.6087 0.41053 0.40689 0.0
C534 C 0.57432 0.42776 0.35076 0.0
C535 C 0.59881 0.44653 0.36169 0.0
H536 H 0.66563 0.56636 0.95916 0.0
H537 H 0.66744 0.50247 0.87743 0.0
H538 H 0.63179 0.53623 0.84672 0.0
H539 H 0.59545 0.58043 0.84561 0.0
H540 H 0.59095 0.64276 0.92869 0.0
H541 H 0.63206 0.61285 0.95635 0.0
C542 C 0.65833 0.55988 0.93457 0.0
C543 C 0.669 0.53173 0.92082 0.0
C544 C 0.63699 0.57889 0.91742 0.0
C545 C 0.65989 0.52408 0.88859 0.0
C546 C 0.63919 0.54323 0.87111 0.0
C547 C 0.60361 0.58775 0.86964 0.0
C548 C 0.5897 0.6136 0.88518 0.0
C549 C 0.62688 0.57018 0.88568 0.0
C550 C 0.60093 0.6228 0.9162 0.0
C551 C 0.62445 0.60569 0.93209 0.0
H552 H 0.34247 0.4825 0.40755 0.0
H553 H 0.32582 0.41621 0.48535 0.0
H554 H 0.36597 0.38159 0.46233 0.0
H555 H 0.4076 0.37155 0.42159 0.0
H556 H 0.4238 0.43847 0.34402 0.0
H557 H 0.38185 0.47132 0.36543 0.0
C558 C 0.34709 0.46016 0.41906 0.0
C559 C 0.33116 0.45189 0.44805 0.0
C560 C 0.3704 0.44065 0.40597 0.0
C561 C 0.33792 0.42314 0.46307 0.0
C562 C 0.36089 0.4034 0.44997 0.0
C563 C 0.402 0.39333 0.40939 0.0
C564 C 0.41907 0.40257 0.38138 0.0
C565 C 0.37769 0.41219 0.42176 0.0
C566 C 0.41118 0.43074 0.36567 0.0
C567 C 0.38713 0.44959 0.37786 0.0
H568 H 0.84228 0.06165 0.97266 0.0
H569 H 0.8306 -0.00108 0.89101 0.0
H570 H 0.86767 0.02917 0.85832 0.0
H571 H 0.90671 0.07073 0.85471 0.0
H572 H 0.91953 0.13236 0.93734 0.0
H573 H 0.87887 0.1051 0.96783 0.0
C574 C 0.84781 0.05468 0.94768 0.0
C575 C 0.83391 0.028 0.93437 0.0
C576 C 0.86957 0.07179 0.92927 0.0
C577 C 0.8408 0.01953 0.90175 0.0
C578 C 0.86219 0.03666 0.88313 0.0
C579 C 0.90046 0.0784 0.87926 0.0
C580 C 0.91652 0.10331 0.89379 0.0
C581 C 0.87721 0.06245 0.89689 0.0
C582 C 0.90788 0.11303 0.9256 0.0
C583 C 0.88458 0.09748 0.94313 0.0
H584 H 0.1758 0.94217 0.40162 0.0
H585 H 0.13422 0.94186 0.49874 0.0
H586 H 0.09472 0.90539 0.48046 0.0
H587 H 0.06756 0.87898 0.43539 0.0
H588 H 0.10469 0.88516 0.33682 0.0
H589 H 0.1497 0.91453 0.35696 0.0
C590 C 0.15808 0.93431 0.41886 0.0
C591 C 0.15812 0.94521 0.45149 0.0
C592 C 0.13417 0.91469 0.40776 0.0
C593 C 0.13539 0.93375 0.47359 0.0
C594 C 0.11236 0.91311 0.46306 0.0
C595 C 0.08579 0.88638 0.41847 0.0
C596 C 0.08284 0.88015 0.38474 0.0
C597 C 0.11094 0.90421 0.43 0.0
C598 C 0.10639 0.89003 0.36291 0.0
C599 C 0.13211 0.90675 0.3744 0.0
H600 H 0.12916 0.9928 0.89999 0.0
H601 H 0.16123 0.058 0.97291 0.0
H602 H 0.1237 0.0968 0.95273 0.0
H603 H 0.08006 0.11114 0.91624 0.0
H604 H 0.04818 0.04576 0.8432 0.0
H605 H 0.08764 0.00822 0.86141 0.0
C606 C 0.12839 0.01572 0.91103 0.0
C607 C 0.14789 0.02249 0.93795 0.0
C608 C 0.10661 0.03777 0.8995 0.0
C609 C 0.14624 0.05213 0.95235 0.0
C610 C 0.1248 0.0743 0.94083 0.0
C611 C 0.0817 0.08869 0.90427 0.0
C612 C 0.06091 0.08123 0.8786 0.0
C613 C 0.10449 0.06717 0.91481 0.0
C614 C 0.06373 0.05214 0.86312 0.0
C615 C 0.08632 0.03062 0.87349 0.0
H616 H 0.86291 0.96409 0.44701 0.0
H617 H 0.87707 0.02518 0.36411 0.0
H618 H 0.91177 0.98651 0.3385 0.0
H619 H 0.94096 0.93677 0.34187 0.0
H620 H 0.92737 0.87728 0.42656 0.0
H621 H 0.88999 0.91418 0.44942 0.0
C622 C 0.87363 0.96898 0.42334 0.0
C623 C 0.86779 -0.00243 0.40767 0.0
C624 C 0.89394 0.94707 0.40925 0.0
C625 C 0.88116 0.00328 0.37662 0.0
C626 C 0.90118 0.98129 0.36212 0.0
C627 C 0.92974 0.93182 0.36525 0.0
C628 C 0.93734 0.90436 0.38255 0.0
C629 C 0.90822 0.95333 0.37854 0.0
C630 C 0.92236 0.89831 0.41277 0.0
C631 C 0.90084 0.91937 0.42591 0.0
H632 H 0.32719 0.37151 0.17253 0.0
H633 H 0.35685 0.28927 0.12046 0.0
H634 H 0.39095 0.27453 0.16648 0.0
H635 H 0.4181 0.28946 0.21773 0.0
H636 H 0.39003 0.3737 0.26749 0.0
H637 H 0.34957 0.38317 0.22632 0.0
C638 C 0.34082 0.35014 0.1715 0.0
C639 C 0.33994 0.33175 0.14307 0.0
C640 C 0.36098 0.34239 0.19749 0.0
C641 C 0.35716 0.3038 0.14218 0.0
C642 C 0.37687 0.29552 0.16835 0.0
C643 C 0.40266 0.30949 0.21989 0.0
C644 C 0.40739 0.33111 0.24526 0.0
C645 C 0.37984 0.31527 0.19559 0.0
C646 C 0.38721 0.35699 0.24783 0.0
C647 C 0.36404 0.36244 0.22432 0.0
H648 H 0.64137 0.67211 0.63487 0.0
H649 H 0.68113 0.59285 0.68553 0.0
H650 H 0.64815 0.60354 0.73332 0.0
H651 H 0.60436 0.63189 0.75821 0.0
H652 H 0.56415 0.71123 0.70817 0.0
H653 H 0.60155 0.70448 0.66291 0.0
C654 C 0.64335 0.65764 0.65667 0.0
C655 C 0.6633 0.63143 0.65646 0.0
C656 C 0.62411 0.66379 0.68404 0.0
C657 C 0.66548 0.61279 0.68484 0.0
C658 C 0.64669 0.61891 0.71219 0.0
C659 C 0.60396 0.64792 0.73755 0.0
C660 C 0.5812 0.6717 0.73626 0.0
C661 C 0.62525 0.64374 0.71163 0.0
C662 C 0.58138 0.69266 0.70967 0.0
C663 C 0.60265 0.6887 0.68372 0.0
H664 H 0.64619 0.32345 0.161 0.0
H665 H 0.60412 0.41064 0.13088 0.0
H666 H 0.56118 0.40285 0.16926 0.0
H667 H 0.53621 0.37259 0.2123 0.0
H668 H 0.57585 0.28447 0.24222 0.0
H669 H 0.61859 0.29089 0.20224 0.0
C670 C 0.62748 0.34058 0.16263 0.0
C671 C 0.6289 0.36796 0.14355 0.0
C672 C 0.60231 0.33574 0.18453 0.0
C673 C 0.60432 0.38986 0.14598 0.0
C674 C 0.5795 0.3853 0.1677 0.0
C675 C 0.55413 0.35468 0.21007 0.0
C676 C 0.55305 0.32826 0.23042 0.0
C677 C 0.57846 0.35857 0.18731 0.0
C678 C 0.57615 0.30503 0.22679 0.0
C679 C 0.60067 0.3088 0.20408 0.0
H680 H 0.35328 0.60354 0.67796 0.0
H681 H 0.35921 0.6923 0.6289 0.0
H682 H 0.39815 0.70958 0.6692 0.0
H683 H 0.43397 0.69743 0.7156 0.0
H684 H 0.42921 0.60689 0.76155 0.0
H685 H 0.3868 0.59224 0.7249 0.0
C686 C 0.36311 0.62668 0.67603 0.0
C687 C 0.35373 0.64642 0.65024 0.0
C688 C 0.38603 0.63601 0.69851 0.0
C689 C 0.36601 0.67666 0.64861 0.0
C690 C 0.38847 0.68644 0.67146 0.0
C691 C 0.42347 0.67461 0.71769 0.0
C692 C 0.43507 0.65318 0.741 0.0
C693 C 0.3992 0.66602 0.69609 0.0
C694 C 0.42115 0.62369 0.74348 0.0
C695 C 0.39676 0.61528 0.72263 0.0
H696 H 0.87456 0.88641 0.14878 0.0
H697 H 0.80652 0.82062 0.18472 0.0
H698 H 0.84444 0.80173 0.2257 0.0
H699 H 0.89663 0.80592 0.25297 0.0
H700 H 0.96222 0.87446 0.21745 0.0
H701 H 0.9254 0.89047 0.17494 0.0
C702 C 0.86774 0.86823 0.16585 0.0
C703 C 0.83757 0.85534 0.16403 0.0
C704 C 0.88929 0.85798 0.18949 0.0
C705 C 0.82962 0.831 0.18562 0.0
C706 C 0.85125 0.82027 0.20912 0.0
C707 C 0.90281 0.82415 0.23571 0.0
C708 C 0.93199 0.83912 0.23846 0.0
C709 C 0.88113 0.8338 0.21149 0.0
C710 C 0.93975 0.86283 0.21608 0.0
C711 C 0.91876 0.87199 0.1917 0.0
H712 H 0.14289 0.09892 0.6724 0.0
H713 H 0.13085 0.18806 0.62504 0.0
H714 H 0.09354 0.20376 0.66782 0.0
H715 H 0.06082 0.1902 0.71611 0.0
H716 H 0.07063 0.09906 0.75986 0.0
H717 H 0.11172 0.0859 0.7206 0.0
C718 C 0.13203 0.12176 0.67128 0.0
C719 C 0.13936 0.14208 0.64527 0.0
C720 C 0.10981 0.13013 0.6951 0.0
C721 C 0.12578 0.17196 0.64485 0.0
C722 C 0.10419 0.18085 0.66913 0.0
C723 C 0.07212 0.16756 0.71711 0.0
C724 C 0.06242 0.14555 0.74066 0.0
C725 C 0.09548 0.15984 0.69397 0.0
C726 C 0.07728 0.11628 0.74168 0.0
C727 C 0.10091 0.10875 0.71934 0.0
H728 H 0.1325 0.80607 0.14281 0.0
H729 H 0.17834 0.88129 0.19334 0.0
H730 H 0.14503 0.87299 0.24143 0.0
H731 H 0.09889 0.84894 0.26604 0.0
H732 H 0.05172 0.77445 0.21571 0.0
H733 H 0.0901 0.77731 0.17085 0.0
C734 C 0.13569 0.82008 0.16468 0.0
C735 C 0.15748 0.84455 0.16443 0.0
C736 C 0.11609 0.81549 0.19207 0.0
C737 C 0.16133 0.86267 0.19283 0.0
C738 C 0.14233 0.85794 0.22029 0.0
C739 C 0.09721 0.83306 0.24543 0.0
C740 C 0.07222 0.81192 0.24382 0.0
C741 C 0.11893 0.83519 0.21968 0.0
C742 C 0.0707 0.79103 0.21739 0.0
C743 C 0.09251 0.79279 0.19167 0.0
H744 H 0.85305 0.18112 0.64734 0.0
H745 H 0.82171 0.092 0.68302 0.0
H746 H 0.85516 0.09704 0.73149 0.0
H747 H 0.89753 0.12384 0.76011 0.0
H748 H 0.9299 0.21257 0.7241 0.0
H749 H 0.89127 0.2109 0.67971 0.0
C750 C 0.85293 0.1632 0.66617 0.0
C751 C 0.83524 0.13607 0.66148 0.0
C752 C 0.87261 0.16602 0.69369 0.0
C753 C 0.83551 0.11289 0.68591 0.0
C754 C 0.85462 0.11575 0.71358 0.0
C755 C 0.89597 0.143 0.74276 0.0
C756 C 0.91697 0.16802 0.7451 0.0
C757 C 0.87404 0.14172 0.71712 0.0
C758 C 0.91418 0.19291 0.72277 0.0
C759 C 0.89217 0.19193 0.69729 0.0
loop_
_geom_bond_atom_site_label_1
_geom_bond_atom_site_label_2
_geom_bond_distance
_geom_bond_site_symmetry_2
_ccdc_geom_bond_type
C0 C1 1.384 . S
C0 H13 0.947 . S
C0 C35 1.382 . S
C1 C0 1.384 . S
C1 C2 1.378 . S
C2 C1 1.378 . S
C2 C3 1.378 . S
C2 H14 0.952 . S
C3 C2 1.378 . S
C3 H15 0.950 . S
C3 C34 1.383 . S
H4 C23 0.949 . S
H5 C24 0.946 1_554 S
H6 C26 0.953 . S
H7 C27 0.945 . S
H8 C29 0.952 . S
H9 C30 0.949 . S
H10 C32 0.950 . S
H11 C33 0.948 1_554 S
H12 C35 0.951 . S
H13 C0 0.947 . S
H14 C2 0.952 . S
H15 C3 0.950 . S
N16 C19 1.382 1_554 S
N16 C21 1.363 . S
N17 C19 1.371 . S
N17 C20 1.372 . S
N18 C20 1.361 1_554 S
N18 C21 1.377 . S
C19 N16 1.382 1_556 S
C19 N17 1.371 . S
C19 C22 1.480 . S
C20 N17 1.372 . S
C20 N18 1.361 1_556 S
C20 C28 1.457 . S
C21 N16 1.363 . S
C21 N18 1.377 . S
C21 C34 1.479 . S
C22 C19 1.480 . S
C22 C23 1.382 1_556 S
C22 C27 1.385 . S
C23 H4 0.949 . S
C23 C22 1.382 1_554 S
C23 C24 1.388 1_554 S
C24 H5 0.946 1_556 S
C24 C23 1.388 1_556 S
C24 C25 1.384 . S
C25 C24 1.384 . S
C25 C26 1.377 . S
C26 H6 0.953 . S
C26 C25 1.377 . S
C26 C27 1.369 . S
C27 H7 0.945 . S
C27 C22 1.385 . S
C27 C26 1.369 . S
C28 C20 1.457 . S
C28 C29 1.372 . S
C28 C33 1.364 . S
C29 H8 0.952 . S
C29 C28 1.372 . S
C29 C30 1.389 . S
C30 H9 0.949 . S
C30 C29 1.389 . S
C30 C31 1.387 . S
C31 C30 1.387 . S
C31 C32 1.372 . S
C32 H10 0.950 . S
C32 C31 1.372 . S
C32 C33 1.379 . S
C33 H11 0.948 1_556 S
C33 C28 1.364 . S
C33 C32 1.379 . S
C34 C3 1.383 . S
C34 C21 1.479 . S
C34 C35 1.398 . S
C35 C0 1.382 . S
C35 H12 0.951 . S
C35 C34 1.398 . S
C36 C37 1.384 . S
C36 H49 0.947 . S
C36 C71 1.382 . S
C37 C36 1.384 . S
C37 C38 1.378 . S
C38 C37 1.378 . S
C38 C39 1.378 . S
C38 H50 0.952 . S
C39 C38 1.378 . S
C39 H51 0.950 . S
C39 C70 1.383 . S
H40 C59 0.947 . S
H41 C60 0.946 . S
H42 C62 0.953 . S
H43 C63 0.945 . S
H44 C65 0.952 . S
H45 C66 0.949 . S
H46 C68 0.950 . S
H47 C69 0.948 . S
H48 C71 0.951 . S
H49 C36 0.947 . S
H50 C38 0.952 . S
H51 C39 0.950 . S
N52 C55 1.382 . S
N52 C57 1.363 . S
N53 C55 1.371 . S
N53 C56 1.372 . S
N54 C56 1.361 . S
N54 C57 1.377 . S
C55 N52 1.382 . S
C55 N53 1.371 . S
C55 C58 1.480 . S
C56 N53 1.372 . S
C56 N54 1.361 . S
C56 C64 1.457 . S
C57 N52 1.363 . S
C57 N54 1.377 . S
C57 C70 1.479 . S
C58 C55 1.480 . S
C58 C59 1.383 . S
C58 C63 1.385 . S
C59 H40 0.947 . S
C59 C58 1.383 . S
C59 C60 1.388 . S
C60 H41 0.946 . S
C60 C59 1.388 . S
C60 C61 1.384 . S
C61 C60 1.384 . S
C61 C62 1.377 . S
C62 H42 0.953 . S
C62 C61 1.377 . S
C62 C63 1.369 . S
C63 H43 0.945 . S
C63 C58 1.385 . S
C63 C62 1.369 . S
C64 C56 1.457 . S
C64 C65 1.372 . S
C64 C69 1.364 . S
C65 H44 0.952 . S
C65 C64 1.372 . S
C65 C66 1.389 . S
C66 H45 0.949 . S
C66 C65 1.389 . S
C66 C67 1.387 . S
C67 C66 1.387 . S
C67 C68 1.372 . S
C68 H46 0.950 . S
C68 C67 1.372 . S
C68 C69 1.379 . S
C69 H47 0.948 . S
C69 C64 1.364 . S
C69 C68 1.379 . S
C70 C39 1.383 . S
C70 C57 1.479 . S
C70 C71 1.398 . S
C71 C36 1.382 . S
C71 H48 0.951 . S
C71 C70 1.398 . S
C72 C73 1.384 . S
C72 H85 0.947 . S
C72 C107 1.382 . S
C73 C72 1.384 . S
C73 C74 1.378 . S
C74 C73 1.378 . S
C74 C75 1.378 . S
C74 H86 0.952 . S
C75 C74 1.378 . S
C75 H87 0.950 . S
C75 C106 1.383 . S
H76 C95 0.947 . S
H77 C96 0.946 . S
H78 C98 0.953 . S
H79 C99 0.945 . S
H80 C101 0.952 . S
H81 C102 0.949 . S
H82 C104 0.950 . S
H83 C105 0.948 1_554 S
H84 C107 0.951 . S
H85 C72 0.947 . S
H86 C74 0.952 . S
H87 C75 0.950 . S
N88 C91 1.397 . S
N88 C93 1.363 . S
N89 C91 1.361 1_556 S
N89 C92 1.372 . S
N90 C92 1.361 1_554 S
N90 C93 1.377 . S
C91 N88 1.397 . S
C91 N89 1.361 1_554 S
C91 C94 1.473 1_554 S
C92 N89 1.372 . S
C92 N90 1.361 1_556 S
C92 C100 1.457 . S
C93 N88 1.363 . S
C93 N90 1.377 . S
C93 C106 1.479 . S
C94 C91 1.473 1_556 S
C94 C95 1.383 1_556 S
C94 C99 1.385 . S
C95 H76 0.947 . S
C95 C94 1.383 1_554 S
C95 C96 1.388 1_554 S
C96 H77 0.946 . S
C96 C95 1.388 1_556 S
C96 C97 1.384 . S
C97 C96 1.384 . S
C97 C98 1.377 . S
C98 H78 0.953 . S
C98 C97 1.377 . S
C98 C99 1.369 . S
C99 H79 0.945 . S
C99 C94 1.385 . S
C99 C98 1.369 . S
C100 C92 1.457 . S
C100 C101 1.372 . S
C100 C105 1.364 . S
C101 H80 0.952 . S
C101 C100 1.372 . S
C101 C102 1.389 . S
C102 H81 0.949 . S
C102 C101 1.389 . S
C102 C103 1.387 . S
C103 C102 1.387 . S
C103 C104 1.372 . S
C104 H82 0.950 . S
C104 C103 1.372 . S
C104 C105 1.379 . S
C105 H83 0.948 1_556 S
C105 C100 1.364 . S
C105 C104 1.379 . S
C106 C75 1.383 . S
C106 C93 1.479 . S
C106 C107 1.398 . S
C107 C72 1.382 . S
C107 H84 0.951 . S
C107 C106 1.398 . S
C108 C109 1.384 . S
C108 H121 0.947 . S
C108 C143 1.382 . S
C109 C108 1.384 . S
C109 C110 1.378 . S
C110 C109 1.378 . S
C110 C111 1.378 . S
C110 H122 0.952 . S
C111 C110 1.378 . S
C111 H123 0.950 . S
C111 C142 1.383 . S
H112 C131 0.947 . S
H113 C132 0.946 . S
H114 C134 0.953 . S
H115 C135 0.945 . S
H116 C137 0.952 . S
H117 C138 0.949 . S
H118 C140 0.950 . S
H119 C141 0.948 . S
H120 C143 0.951 . S
H121 C108 0.947 . S
H122 C110 0.952 . S
H123 C111 0.950 . S
N124 C127 1.382 . S
N124 C129 1.363 . S
N125 C127 1.371 . S
N125 C128 1.372 . S
N126 C128 1.361 . S
N126 C129 1.377 . S
C127 N124 1.382 . S
C127 N125 1.371 . S
C127 C130 1.480 . S
C128 N125 1.372 . S
C128 N126 1.361 . S
C128 C136 1.457 . S
C129 N124 1.363 . S
C129 N126 1.377 . S
C129 C142 1.479 . S
C130 C127 1.480 . S
C130 C131 1.383 . S
C130 C135 1.385 . S
C131 H112 0.947 . S
C131 C130 1.383 . S
C131 C132 1.388 . S
C132 H113 0.946 . S
C132 C131 1.388 . S
C132 C133 1.384 . S
C133 C132 1.384 . S
C133 C134 1.377 . S
C134 H114 0.953 . S
C134 C133 1.377 . S
C134 C135 1.369 . S
C135 H115 0.945 . S
C135 C130 1.385 . S
C135 C134 1.369 . S
C136 C128 1.457 . S
C136 C137 1.372 . S
C136 C141 1.364 . S
C137 H116 0.952 . S
C137 C136 1.372 . S
C137 C138 1.389 . S
C138 H117 0.949 . S
C138 C137 1.389 . S
C138 C139 1.387 . S
C139 C138 1.387 . S
C139 C140 1.372 . S
C140 H118 0.950 . S
C140 C139 1.372 . S
C140 C141 1.379 . S
C141 H119 0.948 . S
C141 C136 1.364 . S
C141 C140 1.379 . S
C142 C111 1.383 . S
C142 C129 1.479 . S
C142 C143 1.398 . S
C143 C108 1.382 . S
C143 H120 0.951 . S
C143 C142 1.398 . S
C144 C145 1.384 . S
C144 H157 0.947 . S
C144 C179 1.382 . S
C145 C144 1.384 . S
C145 C146 1.378 . S
C146 C145 1.378 . S
C146 C147 1.378 . S
C146 H158 0.952 . S
C147 C146 1.378 . S
C147 H159 0.950 . S
C147 C178 1.383 . S
H148 C167 0.949 . S
H149 C168 0.946 1_554 S
H150 C170 0.953 . S
H151 C171 0.945 . S
H152 C173 0.952 . S
H153 C174 0.949 . S
H154 C176 0.950 1_545 S
H155 C177 0.948 1_554 S
H156 C179 0.951 . S
H157 C144 0.947 . S
H158 C146 0.952 . S
H159 C147 0.950 . S
N160 C163 1.382 1_554 S
N160 C165 1.363 . S
N161 C163 1.371 . S
N161 C164 1.372 . S
N162 C164 1.361 1_554 S
N162 C165 1.377 . S
C163 N160 1.382 1_556 S
C163 N161 1.371 . S
C163 C166 1.480 . S
C164 N161 1.372 . S
C164 N162 1.361 1_556 S
C164 C172 1.457 . S
C165 N160 1.363 . S
C165 N162 1.377 . S
C165 C178 1.479 . S
C166 C163 1.480 . S
C166 C167 1.382 1_556 S
C166 C171 1.385 . S
C167 H148 0.949 . S
C167 C166 1.382 1_554 S
C167 C168 1.388 1_554 S
C168 H149 0.946 1_556 S
C168 C167 1.388 1_556 S
C168 C169 1.384 . S
C169 C168 1.384 . S
C169 C170 1.377 . S
C170 H150 0.953 . S
C170 C169 1.377 . S
C170 C171 1.369 . S
C171 H151 0.945 . S
C171 C166 1.385 . S
C171 C170 1.369 . S
C172 C164 1.457 . S
C172 C173 1.372 . S
C172 C177 1.364 . S
C173 H152 0.952 . S
C173 C172 1.372 . S
C173 C174 1.389 . S
C174 H153 0.949 . S
C174 C173 1.389 . S
C174 C175 1.387 1_565 S
C175 C174 1.387 1_545 S
C175 C176 1.372 1_545 S
C176 H154 0.950 1_565 S
C176 C175 1.372 1_565 S
C176 C177 1.379 . S
C177 H155 0.948 1_556 S
C177 C172 1.364 . S
C177 C176 1.379 . S
C178 C147 1.383 . S
C178 C165 1.479 . S
C178 C179 1.398 . S
C179 C144 1.382 . S
C179 H156 0.951 . S
C179 C178 1.398 . S
C180 C181 1.384 . S
C180 H193 0.947 . S
C180 C215 1.382 . S
C181 C180 1.384 . S
C181 C182 1.378 . S
C182 C181 1.378 . S
C182 C183 1.378 . S
C182 H194 0.952 . S
C183 C182 1.378 . S
C183 H195 0.950 . S
C183 C214 1.383 . S
H184 C203 0.947 . S
H185 C204 0.946 . S
H186 C206 0.953 . S
H187 C207 0.945 . S
H188 C209 0.952 . S
H189 C210 0.949 . S
H190 C212 0.950 1_565 S
H191 C213 0.948 . S
H192 C215 0.951 . S
H193 C180 0.947 . S
H194 C182 0.952 . S
H195 C183 0.950 . S
N196 C199 1.382 . S
N196 C201 1.363 . S
N197 C199 1.371 . S
N197 C200 1.372 . S
N198 C200 1.361 . S
N198 C201 1.377 . S
C199 N196 1.382 . S
C199 N197 1.371 . S
C199 C202 1.480 . S
C200 N197 1.372 . S
C200 N198 1.361 . S
C200 C208 1.457 . S
C201 N196 1.363 . S
C201 N198 1.377 . S
C201 C214 1.479 . S
C202 C199 1.480 . S
C202 C203 1.383 . S
C202 C207 1.385 . S
C203 H184 0.947 . S
C203 C202 1.383 . S
C203 C204 1.388 . S
C204 H185 0.946 . S
C204 C203 1.388 . S
C204 C205 1.384 . S
C205 C204 1.384 . S
C205 C206 1.377 . S
C206 H186 0.953 . S
C206 C205 1.377 . S
C206 C207 1.369 . S
C207 H187 0.945 . S
C207 C202 1.385 . S
C207 C206 1.369 . S
C208 C200 1.457 . S
C208 C209 1.372 . S
C208 C213 1.364 . S
C209 H188 0.952 . S
C209 C208 1.372 . S
C209 C210 1.389 . S
C210 H189 0.949 . S
C210 C209 1.389 . S
C210 C211 1.387 1_545 S
C211 C210 1.387 1_565 S
C211 C212 1.372 1_565 S
C212 H190 0.950 1_545 S
C212 C211 1.372 1_545 S
C212 C213 1.379 . S
C213 H191 0.948 . S
C213 C208 1.364 . S
C213 C212 1.379 . S
C214 C183 1.383 . S
C214 C201 1.479 . S
C214 C215 1.398 . S
C215 C180 1.382 . S
C215 H192 0.951 . S
C215 C214 1.398 . S
C216 C217 1.384 . S
C216 H229 0.947 . S
C216 C251 1.382 . S
C217 C216 1.384 . S
C217 C218 1.378 . S
C218 C217 1.378 . S
C218 C219 1.378 . S
C218 H230 0.952 . S
C219 C218 1.378 . S
C219 H231 0.950 . S
C219 C250 1.383 . S
H220 C239 0.947 . S
H221 C240 0.946 . S
H222 C242 0.953 . S
H223 C243 0.945 . S
H224 C245 0.952 . S
H225 C246 0.949 . S
H226 C248 0.950 . S
H227 C249 0.948 1_554 S
H228 C251 0.951 . S
H229 C216 0.947 . S
H230 C218 0.952 . S
H231 C219 0.950 . S
N232 C235 1.397 . S
N232 C237 1.363 . S
N233 C235 1.361 1_556 S
N233 C236 1.372 . S
N234 C236 1.361 1_554 S
N234 C237 1.377 . S
C235 N232 1.397 . S
C235 N233 1.361 1_554 S
C235 C238 1.473 1_554 S
C236 N233 1.372 . S
C236 N234 1.361 1_556 S
C236 C244 1.457 . S
C237 N232 1.363 . S
C237 N234 1.377 . S
C237 C250 1.479 . S
C238 C235 1.473 1_556 S
C238 C239 1.383 1_556 S
C238 C243 1.385 . S
C239 H220 0.947 . S
C239 C238 1.383 1_554 S
C239 C240 1.388 1_554 S
C240 H221 0.946 . S
C240 C239 1.388 1_556 S
C240 C241 1.384 . S
C241 C240 1.384 . S
C241 C242 1.377 . S
C242 H222 0.953 . S
C242 C241 1.377 . S
C242 C243 1.369 . S
C243 H223 0.945 . S
C243 C238 1.385 . S
C243 C242 1.369 . S
C244 C236 1.457 . S
C244 C245 1.372 . S
C244 C249 1.364 . S
C245 H224 0.952 . S
C245 C244 1.372 . S
C245 C246 1.389 . S
C246 H225 0.949 . S
C246 C245 1.389 . S
C246 C247 1.387 1_565 S
C247 C246 1.387 1_545 S
C247 C248 1.372 . S
C248 H226 0.950 . S
C248 C247 1.372 . S
C248 C249 1.379 1_545 S
C249 H227 0.948 1_556 S
C249 C244 1.364 . S
C249 C248 1.379 1_565 S
C250 C219 1.383 . S
C250 C237 1.479 . S
C250 C251 1.398 . S
C251 C216 1.382 . S
C251 H228 0.951 . S
C251 C250 1.398 . S
C252 C253 1.384 . S
C252 H265 0.947 . S
C252 C287 1.382 . S
C253 C252 1.384 . S
C253 C254 1.378 . S
C254 C253 1.378 . S
C254 C255 1.378 . S
C254 H266 0.952 . S
C255 C254 1.378 . S
C255 H267 0.950 . S
C255 C286 1.383 . S
H256 C275 0.947 . S
H257 C276 0.946 . S
H258 C278 0.953 . S
H259 C279 0.945 . S
H260 C281 0.952 . S
H261 C282 0.949 . S
H262 C284 0.950 . S
H263 C285 0.948 . S
H264 C287 0.951 . S
H265 C252 0.947 . S
H266 C254 0.952 . S
H267 C255 0.950 . S
N268 C271 1.382 . S
N268 C273 1.363 . S
N269 C271 1.371 . S
N269 C272 1.372 . S
N270 C272 1.361 . S
N270 C273 1.377 . S
C271 N268 1.382 . S
C271 N269 1.371 . S
C271 C274 1.480 . S
C272 N269 1.372 . S
C272 N270 1.361 . S
C272 C280 1.457 . S
C273 N268 1.363 . S
C273 N270 1.377 . S
C273 C286 1.479 . S
C274 C271 1.480 . S
C274 C275 1.383 . S
C274 C279 1.385 . S
C275 H256 0.947 . S
C275 C274 1.383 . S
C275 C276 1.388 . S
C276 H257 0.946 . S
C276 C275 1.388 . S
C276 C277 1.384 . S
C277 C276 1.384 . S
C277 C278 1.377 . S
C278 H258 0.953 . S
C278 C277 1.377 . S
C278 C279 1.369 . S
C279 H259 0.945 . S
C279 C274 1.385 . S
C279 C278 1.369 . S
C280 C272 1.457 . S
C280 C281 1.372 . S
C280 C285 1.364 . S
C281 H260 0.952 . S
C281 C280 1.372 . S
C281 C282 1.389 . S
C282 H261 0.949 . S
C282 C281 1.389 . S
C282 C283 1.387 1_545 S
C283 C282 1.387 1_565 S
C283 C284 1.372 . S
C284 H262 0.950 . S
C284 C283 1.372 . S
C284 C285 1.379 1_565 S
C285 H263 0.948 . S
C285 C280 1.364 . S
C285 C284 1.379 1_545 S
C286 C255 1.383 . S
C286 C273 1.479 . S
C286 C287 1.398 . S
C287 C252 1.382 . S
C287 H264 0.951 . S
C287 C286 1.398 . S
Sc288 O291 2.025 . S
Sc288 O298 2.105 1_455 S
Sc288 O301 2.105 . S
Sc288 O304 2.105 . S
Sc288 O307 2.105 1_455 S
Sc289 O291 2.025 . S
Sc289 O299 2.105 1_455 S
Sc289 O303 2.105 . S
Sc289 O305 2.105 . S
Sc289 O309 2.105 1_455 S
Sc290 O291 2.025 . S
Sc290 O300 2.105 1_455 S
Sc290 O302 2.105 . S
Sc290 O306 2.105 . S
Sc290 O308 2.105 1_455 S
O291 Sc288 2.025 . S
O291 Sc289 2.025 . S
O291 Sc290 2.025 . S
C292 O298 1.268 . S
C292 O308 1.268 . S
C293 O299 1.268 . S
C293 O307 1.268 . S
C294 O300 1.268 . S
C294 O309 1.268 . S
C295 O301 1.268 . S
C295 O305 1.268 . S
C296 O302 1.268 . S
C296 O304 1.268 . S
C297 O303 1.268 . S
C297 O306 1.268 . S
O298 Sc288 2.105 1_655 S
O298 C292 1.268 . S
O299 Sc289 2.105 1_655 S
O299 C293 1.268 . S
O300 Sc290 2.105 1_655 S
O300 C294 1.268 . S
O301 Sc288 2.105 . S
O301 C295 1.268 . S
O302 Sc290 2.105 . S
O302 C296 1.268 . S
O303 Sc289 2.105 . S
O303 C297 1.268 . S
O304 Sc288 2.105 . S
O304 C296 1.268 . S
O305 Sc289 2.105 . S
O305 C295 1.268 . S
O306 Sc290 2.105 . S
O306 C297 1.268 . S
O307 Sc288 2.105 1_655 S
O307 C293 1.268 . S
O308 Sc290 2.105 1_655 S
O308 C292 1.268 . S
O309 Sc289 2.105 1_655 S
O309 C294 1.268 . S
Sc310 O313 2.025 . S
Sc310 O320 2.105 . S
Sc310 O323 2.105 1_455 S
Sc310 O326 2.105 1_455 S
Sc310 O329 2.105 . S
Sc311 O313 2.025 . S
Sc311 O321 2.105 . S
Sc311 O325 2.105 1_455 S
Sc311 O327 2.105 1_455 S
Sc311 O331 2.105 . S
Sc312 O313 2.025 . S
Sc312 O322 2.105 . S
Sc312 O324 2.105 1_455 S
Sc312 O328 2.105 1_455 S
Sc312 O330 2.105 . S
O313 Sc310 2.025 . S
O313 Sc311 2.025 . S
O313 Sc312 2.025 . S
C314 O320 1.268 . S
C314 O330 1.268 . S
C315 O321 1.268 . S
C315 O329 1.268 . S
C316 O322 1.268 . S
C316 O331 1.268 . S
C317 O323 1.268 . S
C317 O327 1.268 . S
C318 O324 1.268 . S
C318 O326 1.268 . S
C319 O325 1.268 . S
C319 O328 1.268 . S
O320 Sc310 2.105 . S
O320 C314 1.268 . S
O321 Sc311 2.105 . S
O321 C315 1.268 . S
O322 Sc312 2.105 . S
O322 C316 1.268 . S
O323 Sc310 2.105 1_655 S
O323 C317 1.268 . S
O324 Sc312 2.105 1_655 S
O324 C318 1.268 . S
O325 Sc311 2.105 1_655 S
O325 C319 1.268 . S
O326 Sc310 2.105 1_655 S
O326 C318 1.268 . S
O327 Sc311 2.105 1_655 S
O327 C317 1.268 . S
O328 Sc312 2.105 1_655 S
O328 C319 1.268 . S
O329 Sc310 2.105 . S
O329 C315 1.268 . S
O330 Sc312 2.105 . S
O330 C314 1.268 . S
O331 Sc311 2.105 . S
O331 C316 1.268 . S
Sc332 O335 2.025 . S
Sc332 O342 2.105 . S
Sc332 O345 2.105 . S
Sc332 O348 2.105 . S
Sc332 O351 2.105 . S
Sc333 O335 2.025 . S
Sc333 O343 2.105 . S
Sc333 O347 2.105 . S
Sc333 O349 2.105 . S
Sc333 O353 2.105 . S
Sc334 O335 2.025 . S
Sc334 O344 2.105 . S
Sc334 O346 2.105 . S
Sc334 O350 2.105 . S
Sc334 O352 2.105 . S
O335 Sc332 2.025 . S
O335 Sc333 2.025 . S
O335 Sc334 2.025 . S
C336 O342 1.268 . S
C336 O352 1.268 . S
C337 O343 1.268 . S
C337 O351 1.268 . S
C338 O344 1.268 . S
C338 O353 1.268 . S
C339 O345 1.268 . S
C339 O349 1.268 . S
C340 O346 1.268 . S
C340 O348 1.268 . S
C341 O347 1.268 . S
C341 O350 1.268 . S
O342 Sc332 2.105 . S
O342 C336 1.268 . S
O343 Sc333 2.105 . S
O343 C337 1.268 . S
O344 Sc334 2.105 . S
O344 C338 1.268 . S
O345 Sc332 2.105 . S
O345 C339 1.268 . S
O346 Sc334 2.105 . S
O346 C340 1.268 . S
O347 Sc333 2.105 . S
O347 C341 1.268 . S
O348 Sc332 2.105 . S
O348 C340 1.268 . S
O349 Sc333 2.105 . S
O349 C339 1.268 . S
O350 Sc334 2.105 . S
O350 C341 1.268 . S
O351 Sc332 2.105 . S
O351 C337 1.268 . S
O352 Sc334 2.105 . S
O352 C336 1.268 . S
O353 Sc333 2.105 . S
O353 C338 1.268 . S
Sc354 O357 2.025 . S
Sc354 O364 2.105 . S
Sc354 O367 2.105 . S
Sc354 O370 2.105 . S
Sc354 O373 2.105 . S
Sc355 O357 2.025 . S
Sc355 O365 2.105 . S
Sc355 O369 2.105 . S
Sc355 O371 2.105 . S
Sc355 O375 2.105 . S
Sc356 O357 2.025 . S
Sc356 O366 2.105 . S
Sc356 O368 2.105 . S
Sc356 O372 2.105 . S
Sc356 O374 2.105 . S
O357 Sc354 2.025 . S
O357 Sc355 2.025 . S
O357 Sc356 2.025 . S
C358 O364 1.268 . S
C358 O374 1.268 . S
C359 O365 1.268 . S
C359 O373 1.268 . S
C360 O366 1.268 . S
C360 O375 1.268 . S
C361 O367 1.268 . S
C361 O371 1.268 . S
C362 O368 1.268 . S
C362 O370 1.268 . S
C363 O369 1.268 . S
C363 O372 1.268 . S
O364 Sc354 2.105 . S
O364 C358 1.268 . S
O365 Sc355 2.105 . S
O365 C359 1.268 . S
O366 Sc356 2.105 . S
O366 C360 1.268 . S
O367 Sc354 2.105 . S
O367 C361 1.268 . S
O368 Sc356 2.105 . S
O368 C362 1.268 . S
O369 Sc355 2.105 . S
O369 C363 1.268 . S
O370 Sc354 2.105 . S
O370 C362 1.268 . S
O371 Sc355 2.105 . S
O371 C361 1.268 . S
O372 Sc356 2.105 . S
O372 C363 1.268 . S
O373 Sc354 2.105 . S
O373 C359 1.268 . S
O374 Sc356 2.105 . S
O374 C358 1.268 . S
O375 Sc355 2.105 . S
O375 C360 1.268 . S
H376 C382 0.930 . S
H377 C385 0.930 . S
H378 C386 0.930 . S
H379 C387 0.930 . S
H380 C390 0.930 . S
H381 C391 0.930 . S
C382 H376 0.930 . S
C382 C383 1.355 . S
C382 C384 1.415 . S
C383 C382 1.355 . S
C383 C385 1.419 . S
C384 C382 1.415 . S
C384 C389 1.425 . S
C384 C391 1.409 . S
C385 H377 0.930 . S
C385 C383 1.419 . S
C385 C386 1.362 . S
C386 H378 0.930 . S
C386 C385 1.362 . S
C386 C389 1.409 . S
C387 H379 0.930 . S
C387 C388 1.355 . S
C387 C389 1.415 . S
C388 C387 1.355 . S
C388 C390 1.419 . S
C389 C384 1.425 . S
C389 C386 1.409 . S
C389 C387 1.415 . S
C390 H380 0.930 . S
C390 C388 1.419 . S
C390 C391 1.362 . S
C391 H381 0.930 . S
C391 C384 1.409 . S
C391 C390 1.362 . S
H392 C398 0.930 . S
H393 C401 0.930 . S
H394 C402 0.930 . S
H395 C403 0.930 . S
H396 C406 0.930 . S
H397 C407 0.930 . S
C398 H392 0.930 . S
C398 C399 1.355 . S
C398 C400 1.415 . S
C399 C398 1.355 . S
C399 C401 1.419 . S
C400 C398 1.415 . S
C400 C405 1.425 . S
C400 C407 1.409 . S
C401 H393 0.930 . S
C401 C399 1.419 . S
C401 C402 1.362 . S
C402 H394 0.930 . S
C402 C401 1.362 . S
C402 C405 1.409 . S
C403 H395 0.930 . S
C403 C404 1.355 . S
C403 C405 1.415 . S
C404 C403 1.355 . S
C404 C406 1.419 . S
C405 C400 1.425 . S
C405 C402 1.409 . S
C405 C403 1.415 . S
C406 H396 0.930 . S
C406 C404 1.419 . S
C406 C407 1.362 . S
C407 H397 0.930 . S
C407 C400 1.409 . S
C407 C406 1.362 . S
H408 C414 0.930 . S
H409 C417 0.930 . S
H410 C418 0.930 . S
H411 C419 0.930 . S
H412 C422 0.930 . S
H413 C423 0.930 . S
C414 H408 0.930 . S
C414 C415 1.355 . S
C414 C416 1.415 . S
C415 C414 1.355 . S
C415 C417 1.419 . S
C416 C414 1.415 . S
C416 C421 1.425 . S
C416 C423 1.409 . S
C417 H409 0.930 . S
C417 C415 1.419 . S
C417 C418 1.362 . S
C418 H410 0.930 . S
C418 C417 1.362 . S
C418 C421 1.409 . S
C419 H411 0.930 . S
C419 C420 1.355 . S
C419 C421 1.415 . S
C420 C419 1.355 . S
C420 C422 1.419 . S
C421 C416 1.425 . S
C421 C418 1.409 . S
C421 C419 1.415 . S
C422 H412 0.930 . S
C422 C420 1.419 . S
C422 C423 1.362 . S
C423 H413 0.930 . S
C423 C416 1.409 . S
C423 C422 1.362 . S
H424 C430 0.930 . S
H425 C433 0.930 . S
H426 C434 0.930 . S
H427 C435 0.930 . S
H428 C438 0.930 . S
H429 C439 0.930 . S
C430 H424 0.930 . S
C430 C431 1.355 . S
C430 C432 1.415 . S
C431 C430 1.355 . S
C431 C433 1.419 . S
C432 C430 1.415 . S
C432 C437 1.425 . S
C432 C439 1.409 . S
C433 H425 0.930 . S
C433 C431 1.419 . S
C433 C434 1.362 . S
C434 H426 0.930 . S
C434 C433 1.362 . S
C434 C437 1.409 . S
C435 H427 0.930 . S
C435 C436 1.355 . S
C435 C437 1.415 . S
C436 C435 1.355 . S
C436 C438 1.419 . S
C437 C432 1.425 . S
C437 C434 1.409 . S
C437 C435 1.415 . S
C438 H428 0.930 . S
C438 C436 1.419 . S
C438 C439 1.362 . S
C439 H429 0.930 . S
C439 C432 1.409 . S
C439 C438 1.362 . S
H440 C446 0.930 . S
H441 C449 0.930 . S
H442 C450 0.930 . S
H443 C451 0.930 . S
H444 C454 0.930 . S
H445 C455 0.930 . S
C446 H440 0.930 . S
C446 C447 1.355 . S
C446 C448 1.415 . S
C447 C446 1.355 . S
C447 C449 1.419 . S
C448 C446 1.415 . S
C448 C453 1.425 . S
C448 C455 1.409 . S
C449 H441 0.930 . S
C449 C447 1.419 . S
C449 C450 1.362 . S
C450 H442 0.930 . S
C450 C449 1.362 . S
C450 C453 1.409 . S
C451 H443 0.930 . S
C451 C452 1.355 . S
C451 C453 1.415 . S
C452 C451 1.355 . S
C452 C454 1.419 . S
C453 C448 1.425 . S
C453 C450 1.409 . S
C453 C451 1.415 . S
C454 H444 0.930 . S
C454 C452 1.419 . S
C454 C455 1.362 . S
C455 H445 0.930 . S
C455 C448 1.409 . S
C455 C454 1.362 . S
H456 C462 0.930 . S
H457 C465 0.930 . S
H458 C466 0.930 . S
H459 C467 0.930 . S
H460 C470 0.930 . S
H461 C471 0.930 . S
C462 H456 0.930 . S
C462 C463 1.355 . S
C462 C464 1.415 . S
C463 C462 1.355 . S
C463 C465 1.419 . S
C464 C462 1.415 . S
C464 C469 1.425 . S
C464 C471 1.409 . S
C465 H457 0.930 . S
C465 C463 1.419 . S
C465 C466 1.362 . S
C466 H458 0.930 . S
C466 C465 1.362 . S
C466 C469 1.409 . S
C467 H459 0.930 . S
C467 C468 1.355 . S
C467 C469 1.415 . S
C468 C467 1.355 . S
C468 C470 1.419 . S
C469 C464 1.425 . S
C469 C466 1.409 . S
C469 C467 1.415 . S
C470 H460 0.930 . S
C470 C468 1.419 . S
C470 C471 1.362 . S
C471 H461 0.930 . S
C471 C464 1.409 . S
C471 C470 1.362 . S
H472 C478 0.930 . S
H473 C481 0.930 . S
H474 C482 0.930 . S
H475 C483 0.930 . S
H476 C486 0.930 . S
H477 C487 0.930 . S
C478 H472 0.930 . S
C478 C479 1.355 . S
C478 C480 1.415 . S
C479 C478 1.355 . S
C479 C481 1.419 . S
C480 C478 1.415 . S
C480 C485 1.425 . S
C480 C487 1.409 . S
C481 H473 0.930 . S
C481 C479 1.419 . S
C481 C482 1.362 . S
C482 H474 0.930 . S
C482 C481 1.362 . S
C482 C485 1.409 . S
C483 H475 0.930 . S
C483 C484 1.355 . S
C483 C485 1.415 . S
C484 C483 1.355 . S
C484 C486 1.419 . S
C485 C480 1.425 . S
C485 C482 1.409 . S
C485 C483 1.415 . S
C486 H476 0.930 . S
C486 C484 1.419 . S
C486 C487 1.362 . S
C487 H477 0.930 . S
C487 C480 1.409 . S
C487 C486 1.362 . S
H488 C494 0.930 . S
H489 C497 0.930 . S
H490 C498 0.930 . S
H491 C499 0.930 . S
H492 C502 0.930 . S
H493 C503 0.930 . S
C494 H488 0.930 . S
C494 C495 1.355 . S
C494 C496 1.415 . S
C495 C494 1.355 . S
C495 C497 1.419 . S
C496 C494 1.415 . S
C496 C501 1.425 . S
C496 C503 1.409 . S
C497 H489 0.930 . S
C497 C495 1.419 . S
C497 C498 1.362 . S
C498 H490 0.930 . S
C498 C497 1.362 . S
C498 C501 1.409 . S
C499 H491 0.930 . S
C499 C500 1.355 . S
C499 C501 1.415 . S
C500 C499 1.355 . S
C500 C502 1.419 . S
C501 C496 1.425 . S
C501 C498 1.409 . S
C501 C499 1.415 . S
C502 H492 0.930 . S
C502 C500 1.419 . S
C502 C503 1.362 . S
C503 H493 0.930 . S
C503 C496 1.409 . S
C503 C502 1.362 . S
H504 C510 0.930 . S
H505 C513 0.930 . S
H506 C514 0.930 . S
H507 C515 0.930 . S
H508 C518 0.930 . S
H509 C519 0.930 . S
C510 H504 0.930 . S
C510 C511 1.355 . S
C510 C512 1.415 . S
C511 C510 1.355 . S
C511 C513 1.419 . S
C512 C510 1.415 . S
C512 C517 1.425 . S
C512 C519 1.409 . S
C513 H505 0.930 . S
C513 C511 1.419 . S
C513 C514 1.362 . S
C514 H506 0.930 . S
C514 C513 1.362 . S
C514 C517 1.409 . S
C515 H507 0.930 . S
C515 C516 1.355 . S
C515 C517 1.415 . S
C516 C515 1.355 . S
C516 C518 1.419 . S
C517 C512 1.425 . S
C517 C514 1.409 . S
C517 C515 1.415 . S
C518 H508 0.930 . S
C518 C516 1.419 . S
C518 C519 1.362 . S
C519 H509 0.930 . S
C519 C512 1.409 . S
C519 C518 1.362 . S
H520 C526 0.930 . S
H521 C529 0.930 . S
H522 C530 0.930 . S
H523 C531 0.930 . S
H524 C534 0.930 . S
H525 C535 0.930 . S
C526 H520 0.930 . S
C526 C527 1.355 . S
C526 C528 1.415 . S
C527 C526 1.355 . S
C527 C529 1.419 . S
C528 C526 1.415 . S
C528 C533 1.425 . S
C528 C535 1.409 . S
C529 H521 0.930 . S
C529 C527 1.419 . S
C529 C530 1.362 . S
C530 H522 0.930 . S
C530 C529 1.362 . S
C530 C533 1.409 . S
C531 H523 0.930 . S
C531 C532 1.355 . S
C531 C533 1.415 . S
C532 C531 1.355 . S
C532 C534 1.419 . S
C533 C528 1.425 . S
C533 C530 1.409 . S
C533 C531 1.415 . S
C534 H524 0.930 . S
C534 C532 1.419 . S
C534 C535 1.362 . S
C535 H525 0.930 . S
C535 C528 1.409 . S
C535 C534 1.362 . S
H536 C542 0.930 . S
H537 C545 0.930 . S
H538 C546 0.930 . S
H539 C547 0.930 . S
H540 C550 0.930 . S
H541 C551 0.930 . S
C542 H536 0.930 . S
C542 C543 1.355 . S
C542 C544 1.415 . S
C543 C542 1.355 . S
C543 C545 1.419 . S
C544 C542 1.415 . S
C544 C549 1.425 . S
C544 C551 1.409 . S
C545 H537 0.930 . S
C545 C543 1.419 . S
C545 C546 1.362 . S
C546 H538 0.930 . S
C546 C545 1.362 . S
C546 C549 1.409 . S
C547 H539 0.930 . S
C547 C548 1.355 . S
C547 C549 1.415 . S
C548 C547 1.355 . S
C548 C550 1.419 . S
C549 C544 1.425 . S
C549 C546 1.409 . S
C549 C547 1.415 . S
C550 H540 0.930 . S
C550 C548 1.419 . S
C550 C551 1.362 . S
C551 H541 0.930 . S
C551 C544 1.409 . S
C551 C550 1.362 . S
H552 C558 0.930 . S
H553 C561 0.930 . S
H554 C562 0.930 . S
H555 C563 0.930 . S
H556 C566 0.930 . S
H557 C567 0.930 . S
C558 H552 0.930 . S
C558 C559 1.355 . S
C558 C560 1.415 . S
C559 C558 1.355 . S
C559 C561 1.419 . S
C560 C558 1.415 . S
C560 C565 1.425 . S
C560 C567 1.409 . S
C561 H553 0.930 . S
C561 C559 1.419 . S
C561 C562 1.362 . S
C562 H554 0.930 . S
C562 C561 1.362 . S
C562 C565 1.409 . S
C563 H555 0.930 . S
C563 C564 1.355 . S
C563 C565 1.415 . S
C564 C563 1.355 . S
C564 C566 1.419 . S
C565 C560 1.425 . S
C565 C562 1.409 . S
C565 C563 1.415 . S
C566 H556 0.930 . S
C566 C564 1.419 . S
C566 C567 1.362 . S
C567 H557 0.930 . S
C567 C560 1.409 . S
C567 C566 1.362 . S
H568 C574 0.930 . S
H569 C577 0.930 . S
H570 C578 0.930 . S
H571 C579 0.930 . S
H572 C582 0.930 . S
H573 C583 0.930 . S
C574 H568 0.930 . S
C574 C575 1.355 . S
C574 C576 1.415 . S
C575 C574 1.355 . S
C575 C577 1.419 . S
C576 C574 1.415 . S
C576 C581 1.425 . S
C576 C583 1.409 . S
C577 H569 0.930 . S
C577 C575 1.419 . S
C577 C578 1.362 . S
C578 H570 0.930 . S
C578 C577 1.362 . S
C578 C581 1.409 . S
C579 H571 0.930 . S
C579 C580 1.355 . S
C579 C581 1.415 . S
C580 C579 1.355 . S
C580 C582 1.419 . S
C581 C576 1.425 . S
C581 C578 1.409 . S
C581 C579 1.415 . S
C582 H572 0.930 . S
C582 C580 1.419 . S
C582 C583 1.362 . S
C583 H573 0.930 . S
C583 C576 1.409 . S
C583 C582 1.362 . S
H584 C590 0.930 . S
H585 C593 0.930 . S
H586 C594 0.930 . S
H587 C595 0.930 . S
H588 C598 0.930 . S
H589 C599 0.930 . S
C590 H584 0.930 . S
C590 C591 1.355 . S
C590 C592 1.415 . S
C591 C590 1.355 . S
C591 C593 1.419 . S
C592 C590 1.415 . S
C592 C597 1.425 . S
C592 C599 1.409 . S
C593 H585 0.930 . S
C593 C591 1.419 . S
C593 C594 1.362 . S
C594 H586 0.930 . S
C594 C593 1.362 . S
C594 C597 1.409 . S
C595 H587 0.930 . S
C595 C596 1.355 . S
C595 C597 1.415 . S
C596 C595 1.355 . S
C596 C598 1.419 . S
C597 C592 1.425 . S
C597 C594 1.409 . S
C597 C595 1.415 . S
C598 H588 0.930 . S
C598 C596 1.419 . S
C598 C599 1.362 . S
C599 H589 0.930 . S
C599 C592 1.409 . S
C599 C598 1.362 . S
H600 C606 0.930 . S
H601 C609 0.930 . S
H602 C610 0.930 . S
H603 C611 0.930 . S
H604 C614 0.930 . S
H605 C615 0.930 . S
C606 H600 0.930 . S
C606 C607 1.355 . S
C606 C608 1.415 . S
C607 C606 1.355 . S
C607 C609 1.419 . S
C608 C606 1.415 . S
C608 C613 1.425 . S
C608 C615 1.409 . S
C609 H601 0.930 . S
C609 C607 1.419 . S
C609 C610 1.362 . S
C610 H602 0.930 . S
C610 C609 1.362 . S
C610 C613 1.409 . S
C611 H603 0.930 . S
C611 C612 1.355 . S
C611 C613 1.415 . S
C612 C611 1.355 . S
C612 C614 1.419 . S
C613 C608 1.425 . S
C613 C610 1.409 . S
C613 C611 1.415 . S
C614 H604 0.930 . S
C614 C612 1.419 . S
C614 C615 1.362 . S
C615 H605 0.930 . S
C615 C608 1.409 . S
C615 C614 1.362 . S
H616 C622 0.930 . S
H617 C625 0.930 1_545 S
H618 C626 0.930 . S
H619 C627 0.930 . S
H620 C630 0.930 . S
H621 C631 0.930 . S
C622 H616 0.930 . S
C622 C623 1.355 . S
C622 C624 1.415 . S
C623 C622 1.355 . S
C623 C625 1.419 . S
C624 C622 1.415 . S
C624 C629 1.425 . S
C624 C631 1.409 . S
C625 H617 0.930 1_565 S
C625 C623 1.419 . S
C625 C626 1.362 . S
C626 H618 0.930 . S
C626 C625 1.362 . S
C626 C629 1.409 . S
C627 H619 0.930 . S
C627 C628 1.355 . S
C627 C629 1.415 . S
C628 C627 1.355 . S
C628 C630 1.419 . S
C629 C624 1.425 . S
C629 C626 1.409 . S
C629 C627 1.415 . S
C630 H620 0.930 . S
C630 C628 1.419 . S
C630 C631 1.362 . S
C631 H621 0.930 . S
C631 C624 1.409 . S
C631 C630 1.362 . S
H632 C638 0.930 . S
H633 C641 0.930 . S
H634 C642 0.930 . S
H635 C643 0.930 . S
H636 C646 0.930 . S
H637 C647 0.930 . S
C638 H632 0.930 . S
C638 C639 1.355 . S
C638 C640 1.415 . S
C639 C638 1.355 . S
C639 C641 1.419 . S
C640 C638 1.415 . S
C640 C645 1.425 . S
C640 C647 1.409 . S
C641 H633 0.930 . S
C641 C639 1.419 . S
C641 C642 1.362 . S
C642 H634 0.930 . S
C642 C641 1.362 . S
C642 C645 1.409 . S
C643 H635 0.930 . S
C643 C644 1.355 . S
C643 C645 1.415 . S
C644 C643 1.355 . S
C644 C646 1.419 . S
C645 C640 1.425 . S
C645 C642 1.409 . S
C645 C643 1.415 . S
C646 H636 0.930 . S
C646 C644 1.419 . S
C646 C647 1.362 . S
C647 H637 0.930 . S
C647 C640 1.409 . S
C647 C646 1.362 . S
H648 C654 0.930 . S
H649 C657 0.930 . S
H650 C658 0.930 . S
H651 C659 0.930 . S
H652 C662 0.930 . S
H653 C663 0.930 . S
C654 H648 0.930 . S
C654 C655 1.355 . S
C654 C656 1.415 . S
C655 C654 1.355 . S
C655 C657 1.419 . S
C656 C654 1.415 . S
C656 C661 1.425 . S
C656 C663 1.409 . S
C657 H649 0.930 . S
C657 C655 1.419 . S
C657 C658 1.362 . S
C658 H650 0.930 . S
C658 C657 1.362 . S
C658 C661 1.409 . S
C659 H651 0.930 . S
C659 C660 1.355 . S
C659 C661 1.415 . S
C660 C659 1.355 . S
C660 C662 1.419 . S
C661 C656 1.425 . S
C661 C658 1.409 . S
C661 C659 1.415 . S
C662 H652 0.930 . S
C662 C660 1.419 . S
C662 C663 1.362 . S
C663 H653 0.930 . S
C663 C656 1.409 . S
C663 C662 1.362 . S
H664 C670 0.930 . S
H665 C673 0.930 . S
H666 C674 0.930 . S
H667 C675 0.930 . S
H668 C678 0.930 . S
H669 C679 0.930 . S
C670 H664 0.930 . S
C670 C671 1.355 . S
C670 C672 1.415 . S
C671 C670 1.355 . S
C671 C673 1.419 . S
C672 C670 1.415 . S
C672 C677 1.425 . S
C672 C679 1.409 . S
C673 H665 0.930 . S
C673 C671 1.419 . S
C673 C674 1.362 . S
C674 H666 0.930 . S
C674 C673 1.362 . S
C674 C677 1.409 . S
C675 H667 0.930 . S
C675 C676 1.355 . S
C675 C677 1.415 . S
C676 C675 1.355 . S
C676 C678 1.419 . S
C677 C672 1.425 . S
C677 C674 1.409 . S
C677 C675 1.415 . S
C678 H668 0.930 . S
C678 C676 1.419 . S
C678 C679 1.362 . S
C679 H669 0.930 . S
C679 C672 1.409 . S
C679 C678 1.362 . S
H680 C686 0.930 . S
H681 C689 0.930 . S
H682 C690 0.930 . S
H683 C691 0.930 . S
H684 C694 0.930 . S
H685 C695 0.930 . S
C686 H680 0.930 . S
C686 C687 1.355 . S
C686 C688 1.415 . S
C687 C686 1.355 . S
C687 C689 1.419 . S
C688 C686 1.415 . S
C688 C693 1.425 . S
C688 C695 1.409 . S
C689 H681 0.930 . S
C689 C687 1.419 . S
C689 C690 1.362 . S
C690 H682 0.930 . S
C690 C689 1.362 . S
C690 C693 1.409 . S
C691 H683 0.930 . S
C691 C692 1.355 . S
C691 C693 1.415 . S
C692 C691 1.355 . S
C692 C694 1.419 . S
C693 C688 1.425 . S
C693 C690 1.409 . S
C693 C691 1.415 . S
C694 H684 0.930 . S
C694 C692 1.419 . S
C694 C695 1.362 . S
C695 H685 0.930 . S
C695 C688 1.409 . S
C695 C694 1.362 . S
H696 C702 0.930 . S
H697 C705 0.930 . S
H698 C706 0.930 . S
H699 C707 0.930 . S
H700 C710 0.930 . S
H701 C711 0.930 . S
C702 H696 0.930 . S
C702 C703 1.355 . S
C702 C704 1.415 . S
C703 C702 1.355 . S
C703 C705 1.419 . S
C704 C702 1.415 . S
C704 C709 1.425 . S
C704 C711 1.409 . S
C705 H697 0.930 . S
C705 C703 1.419 . S
C705 C706 1.362 . S
C706 H698 0.930 . S
C706 C705 1.362 . S
C706 C709 1.409 . S
C707 H699 0.930 . S
C707 C708 1.355 . S
C707 C709 1.415 . S
C708 C707 1.355 . S
C708 C710 1.419 . S
C709 C704 1.425 . S
C709 C706 1.409 . S
C709 C707 1.415 . S
C710 H700 0.930 . S
C710 C708 1.419 . S
C710 C711 1.362 . S
C711 H701 0.930 . S
C711 C704 1.409 . S
C711 C710 1.362 . S
H712 C718 0.930 . S
H713 C721 0.930 . S
H714 C722 0.930 . S
H715 C723 0.930 . S
H716 C726 0.930 . S
H717 C727 0.930 . S
C718 H712 0.930 . S
C718 C719 1.355 . S
C718 C720 1.415 . S
C719 C718 1.355 . S
C719 C721 1.419 . S
C720 C718 1.415 . S
C720 C725 1.425 . S
C720 C727 1.409 . S
C721 H713 0.930 . S
C721 C719 1.419 . S
C721 C722 1.362 . S
C722 H714 0.930 . S
C722 C721 1.362 . S
C722 C725 1.409 . S
C723 H715 0.930 . S
C723 C724 1.355 . S
C723 C725 1.415 . S
C724 C723 1.355 . S
C724 C726 1.419 . S
C725 C720 1.425 . S
C725 C722 1.409 . S
C725 C723 1.415 . S
C726 H716 0.930 . S
C726 C724 1.419 . S
C726 C727 1.362 . S
C727 H717 0.930 . S
C727 C720 1.409 . S
C727 C726 1.362 . S
H728 C734 0.930 . S
H729 C737 0.930 . S
H730 C738 0.930 . S
H731 C739 0.930 . S
H732 C742 0.930 . S
H733 C743 0.930 . S
C734 H728 0.930 . S
C734 C735 1.355 . S
C734 C736 1.415 . S
C735 C734 1.355 . S
C735 C737 1.419 . S
C736 C734 1.415 . S
C736 C741 1.425 . S
C736 C743 1.409 . S
C737 H729 0.930 . S
C737 C735 1.419 . S
C737 C738 1.362 . S
C738 H730 0.930 . S
C738 C737 1.362 . S
C738 C741 1.409 . S
C739 H731 0.930 . S
C739 C740 1.355 . S
C739 C741 1.415 . S
C740 C739 1.355 . S
C740 C742 1.419 . S
C741 C736 1.425 . S
C741 C738 1.409 . S
C741 C739 1.415 . S
C742 H732 0.930 . S
C742 C740 1.419 . S
C742 C743 1.362 . S
C743 H733 0.930 . S
C743 C736 1.409 . S
C743 C742 1.362 . S
H744 C750 0.930 . S
H745 C753 0.930 . S
H746 C754 0.930 . S
H747 C755 0.930 . S
H748 C758 0.930 . S
H749 C759 0.930 . S
C750 H744 0.930 . S
C750 C751 1.355 . S
C750 C752 1.415 . S
C751 C750 1.355 . S
C751 C753 1.419 . S
C752 C750 1.415 . S
C752 C757 1.425 . S
C752 C759 1.409 . S
C753 H745 0.930 . S
C753 C751 1.419 . S
C753 C754 1.362 . S
C754 H746 0.930 . S
C754 C753 1.362 . S
C754 C757 1.409 . S
C755 H747 0.930 . S
C755 C756 1.355 . S
C755 C757 1.415 . S
C756 C755 1.355 . S
C756 C758 1.419 . S
C757 C752 1.425 . S
C757 C754 1.409 . S
C757 C755 1.415 . S
C758 H748 0.930 . S
C758 C756 1.419 . S
C758 C759 1.362 . S
C759 H749 0.930 . S
C759 C752 1.409 . S
C759 C758 1.362 . S
C383 C25 1.516 . S
C388 C314 1.506 . S
C404 C292 1.486 . S
C399 C61 1.497 . S
C420 C318 1.492 . S
C415 C97 1.553 . S
C436 C296 1.548 . S
C431 C133 1.572 . S
C452 C358 1.546 . S
C447 C169 1.551 . S
C468 C336 1.485 . S
C463 C205 1.495 . S
C479 C241 1.573 . S
C484 C362 1.540 . S
C500 C340 1.490 . S
C495 C277 1.550 . S
C511 C31 1.509 . S
C516 C363 1.593 . S
C532 C341 1.574 . S
C527 C67 1.551 . S
C543 C103 1.537 . S
C548 C360 1.595 . S
C559 C139 1.571 . S
C564 C338 1.570 . S
C580 C319 1.568 . S
C575 C175 1.567 . S
C591 C211 1.500 . S
C596 C297 1.594 . S
C612 C316 1.567 . S
C607 C247 1.583 . S
C628 C294 1.596 . S
C623 C283 1.539 . S
C644 C337 1.553 . S
C639 C1 1.500 . S
C660 C359 1.537 . S
C655 C37 1.550 . S
C671 C73 1.533 . S
C676 C339 1.571 . S
C692 C361 1.536 . S
C687 C109 1.568 . S
C708 C293 1.537 . S
C703 C145 1.549 . S
C719 C181 1.501 . S
C724 C315 1.550 . S
C735 C217 1.570 . S
C740 C295 1.541 . S
C751 C253 1.565 . S
C756 C317 1.554 . S
