# Generated by pormake.
# Topology ssa, (4,4)-cn, num edge types: 1
# Building blocks:
#     Node 0, Type 0, BuildingBlock: GIZVER_clean_linker_0, # of connection points: 4
#     Node 1, Type 0, BuildingBlock: GIZVER_clean_linker_0, # of connection points: 4
#     Node 2, Type 0, BuildingBlock: GIZVER_clean_linker_0, # of connection points: 4
#     Node 3, Type 0, BuildingBlock: GIZVER_clean_linker_0, # of connection points: 4
#     Node 4, Type 0, BuildingBlock: GIZVER_clean_linker_0, # of connection points: 4
#     Node 5, Type 0, BuildingBlock: GIZVER_clean_linker_0, # of connection points: 4
#     Node 6, Type 1, BuildingBlock: MUDLON_clean_sbu_0, # of connection points: 4
#     Node 7, Type 1, BuildingBlock: MUDLON_clean_sbu_0, # of connection points: 4
#     Node 8, Type 1, BuildingBlock: MUDLON_clean_sbu_0, # of connection points: 4
#     Node 9, Type 1, BuildingBlock: MUDLON_clean_sbu_0, # of connection points: 4
#     Node 10, Type 1, BuildingBlock: MUDLON_clean_sbu_0, # of connection points: 4
#     Node 11, Type 1, BuildingBlock: MUDLON_clean_sbu_0, # of connection points: 4
#     Edge 12, Type (0, 1), BuildingBlock: UVAHIK_clean_linker_0, # of connection points: 2
#     Edge 13, Type (0, 1), BuildingBlock: UVAHIK_clean_linker_0, # of connection points: 2
#     Edge 14, Type (0, 1), BuildingBlock: UVAHIK_clean_linker_0, # of connection points: 2
#     Edge 15, Type (0, 1), BuildingBlock: UVAHIK_clean_linker_0, # of connection points: 2
#     Edge 16, Type (0, 1), BuildingBlock: UVAHIK_clean_linker_0, # of connection points: 2
#     Edge 17, Type (0, 1), BuildingBlock: UVAHIK_clean_linker_0, # of connection points: 2
#     Edge 18, Type (0, 1), BuildingBlock: UVAHIK_clean_linker_0, # of connection points: 2
#     Edge 19, Type (0, 1), BuildingBlock: UVAHIK_clean_linker_0, # of connection points: 2
#     Edge 20, Type (0, 1), BuildingBlock: UVAHIK_clean_linker_0, # of connection points: 2
#     Edge 21, Type (0, 1), BuildingBlock: UVAHIK_clean_linker_0, # of connection points: 2
#     Edge 22, Type (0, 1), BuildingBlock: UVAHIK_clean_linker_0, # of connection points: 2
#     Edge 23, Type (0, 1), BuildingBlock: UVAHIK_clean_linker_0, # of connection points: 2
#     Edge 24, Type (0, 1), BuildingBlock: UVAHIK_clean_linker_0, # of connection points: 2
#     Edge 25, Type (0, 1), BuildingBlock: UVAHIK_clean_linker_0, # of connection points: 2
#     Edge 26, Type (0, 1), BuildingBlock: UVAHIK_clean_linker_0, # of connection points: 2
#     Edge 27, Type (0, 1), BuildingBlock: UVAHIK_clean_linker_0, # of connection points: 2
#     Edge 28, Type (0, 1), BuildingBlock: UVAHIK_clean_linker_0, # of connection points: 2
#     Edge 29, Type (0, 1), BuildingBlock: UVAHIK_clean_linker_0, # of connection points: 2
#     Edge 30, Type (0, 1), BuildingBlock: UVAHIK_clean_linker_0, # of connection points: 2
#     Edge 31, Type (0, 1), BuildingBlock: UVAHIK_clean_linker_0, # of connection points: 2
#     Edge 32, Type (0, 1), BuildingBlock: UVAHIK_clean_linker_0, # of connection points: 2
#     Edge 33, Type (0, 1), BuildingBlock: UVAHIK_clean_linker_0, # of connection points: 2
#     Edge 34, Type (0, 1), BuildingBlock: UVAHIK_clean_linker_0, # of connection points: 2
#     Edge 35, Type (0, 1), BuildingBlock: UVAHIK_clean_linker_0, # of connection points: 2
# Relax obj value: 0.001
# Max RMSD: 0.030
# Mean RMSD: 0.018
data_MOF--net-ssa--node1-MUDLON_clean_sbu_0--node2-GIZVER_clean_linker_0--edge1-UVAHIK_clean_linker_0
_symmetry_space_group_name_H-M    P1
_symmetry_Int_Tables_number       1
_symmetry_cell_setting            triclinic
loop_
_symmetry_equiv_pos_as_xyz
'x, y, z'
_cell_length_a     57.291673
_cell_length_b     57.252335
_cell_length_c     53.622171
_cell_angle_alpha  88.432028
_cell_angle_beta   91.441539
_cell_angle_gamma 120.07388
loop_
_atom_site_label
_atom_site_type_symbol
_atom_site_fract_x
_atom_site_fract_y
_atom_site_fract_z
_atom_type_partial_charge
H0 H 0.04093 0.57256 0.04375 0.0
H1 H 0.03415 0.49432 0.03954 0.0
H2 H 0.05492 0.53601 0.10916 0.0
H3 H 0.0463 0.55506 1.0038 0.0
H4 H 0.04111 0.52185 1.00198 0.0
H5 H 0.00832 0.5635 1.00078 0.0
H6 H 0.93575 0.50081 0.96754 0.0
H7 H 0.99562 0.48281 0.99722 0.0
C8 C 0.04073 0.55535 0.0529 0.0
C9 C 0.04806 0.55673 0.07827 0.0
C10 C 0.03557 0.53282 0.03874 0.0
C11 C 0.03713 0.51127 0.05048 0.0
C12 C 0.04377 0.51214 0.07601 0.0
C13 C 0.04883 0.53478 0.0897 0.0
C14 C 0.03321 0.53393 1.01059 0.0
C15 C 0.00464 0.52395 1.00125 0.0
C16 C 0.99547 0.54237 0.99642 0.0
C17 C 0.97036 0.5338 0.98468 0.0
C18 C 0.95435 0.50677 0.97789 0.0
C19 C 0.96326 0.48816 0.982 0.0
C20 C 0.98826 0.49682 0.99423 0.0
H21 H 0.53831 0.02335 0.55024 0.0
H22 H 0.46495 0.02692 0.54947 0.0
H23 H 0.53931 0.09467 0.57432 0.0
H24 H 0.4946 0.98228 0.54863 0.0
H25 H 0.46434 0.98348 0.55115 0.0
H26 H 0.51131 0.9803 0.50843 0.0
H27 H 0.45779 0.9634 0.44543 0.0
H28 H 0.44255 0.99142 0.5133 0.0
C29 C 0.52809 0.0348 0.55226 0.0
C30 C 0.54244 0.06112 0.56166 0.0
C31 C 0.50016 0.02255 0.5471 0.0
C32 C 0.48668 0.03685 0.55176 0.0
C33 C 0.50077 0.063 0.56146 0.0
C34 C 0.5287 0.0752 0.56539 0.0
C35 C 0.48392 0.99282 0.54125 0.0
C36 C 0.47823 0.98757 0.51365 0.0
C37 C 0.49408 0.98038 0.49968 0.0
C38 C 0.48689 0.97178 0.47495 0.0
C39 C 0.46419 0.97137 0.46403 0.0
C40 C 0.44805 0.97844 0.47756 0.0
C41 C 0.45529 0.98669 0.50241 0.0
H42 H 0.55029 0.5587 0.06442 0.0
H43 H 0.47529 0.48302 0.06315 0.0
H44 H 0.47631 0.55608 0.08149 0.0
H45 H 0.55049 0.51648 0.06436 0.0
H46 H 0.51978 0.48502 0.06678 0.0
H47 H 0.56924 0.53652 0.02344 0.0
H48 H 0.53454 0.48634 0.95948 0.0
H49 H 0.49341 0.46167 0.0293 0.0
C50 C 0.52848 0.54749 0.06549 0.0
C51 C 0.5147 0.56079 0.07237 0.0
C52 C 0.51429 0.51947 0.06145 0.0
C53 C 0.48613 0.50479 0.06485 0.0
C54 C 0.4722 0.51799 0.07176 0.0
C55 C 0.48662 0.54603 0.07468 0.0
C56 C 0.52956 0.50487 0.05674 0.0
C57 C 0.53051 0.50033 0.02926 0.0
C58 C 0.55275 0.51884 1.01485 0.0
C59 C 0.55409 0.51395 0.98954 0.0
C60 C 0.533 0.49079 0.97873 0.0
C61 C 0.51132 0.47182 0.99291 0.0
C62 C 0.50994 0.47663 1.01817 0.0
H63 H 0.01233 0.53171 0.57713 0.0
H64 H 0.02512 0.4638 0.57508 0.0
H65 H 0.95105 0.4534 0.60328 0.0
H66 H 0.05842 0.53777 0.57608 0.0
H67 H 0.06316 0.50962 0.57219 0.0
H68 H 0.06085 0.56456 0.54045 0.0
H69 H 0.06825 0.53959 0.46779 0.0
H70 H 0.04912 0.48484 0.53028 0.0
C71 C 0.00482 0.51029 0.57983 0.0
C72 C 0.97925 0.49374 0.59037 0.0
C73 C 0.02141 0.49961 0.57396 0.0
C74 C 0.01209 0.47199 0.57855 0.0
C75 C 0.98644 0.45518 0.58863 0.0
C76 C 0.97012 0.46613 0.5941 0.0
C77 C 0.05029 0.5183 0.56623 0.0
C78 C 0.053 0.52348 0.53835 0.0
C79 C 0.05912 0.54894 0.52829 0.0
C80 C 0.06429 0.55469 0.50271 0.0
C81 C 0.06282 0.53468 0.48725 0.0
C82 C 0.05758 0.50958 0.49693 0.0
C83 C 0.05246 0.50394 0.52252 0.0
H84 H 0.53808 0.96928 0.03258 0.0
H85 H 0.45779 0.95702 0.03954 0.0
H86 H 0.50251 0.95628 0.10478 0.0
H87 H 0.50436 0.95397 0.9965 0.0
H88 H 0.47361 0.95432 0.99915 0.0
H89 H 0.54794 0.99665 0.99166 0.0
H90 H 0.54282 0.06397 0.96046 0.0
H91 H 0.47237 0.99602 0.9916 0.0
C92 C 0.52162 0.96662 0.0441 0.0
C93 C 0.52337 0.96406 0.07013 0.0
C94 C 0.49823 0.96486 0.0329 0.0
C95 C 0.47629 0.95961 0.04805 0.0
C96 C 0.47778 0.95665 0.07405 0.0
C97 C 0.50161 0.95957 0.08484 0.0
C98 C 0.4953 0.96518 1.00476 0.0
C99 C 0.50886 0.99352 0.99374 0.0
C100 C 0.53638 0.00662 0.98768 0.0
C101 C 0.54883 0.0321 0.97575 0.0
C102 C 0.5336 0.0447 0.97037 0.0
C103 C 0.50604 0.03181 0.97586 0.0
C104 C 0.49374 0.00624 0.98766 0.0
H105 H 0.55739 0.51933 0.53611 0.0
H106 H 0.48299 0.44345 0.53772 0.0
H107 H 0.53024 0.47398 0.60493 0.0
H108 H 0.53894 0.49167 0.49821 0.0
H109 H 0.50711 0.46146 0.4987 0.0
H110 H 0.54226 0.53589 0.49205 0.0
H111 H 0.47246 0.535 0.45977 0.0
H112 H 0.46506 0.46266 0.49375 0.0
C113 C 0.54223 0.50218 0.5466 0.0
C114 C 0.54618 0.49963 0.57234 0.0
C115 C 0.51948 0.482 0.53398 0.0
C116 C 0.5002 0.45931 0.5475 0.0
C117 C 0.50371 0.45638 0.57327 0.0
C118 C 0.52662 0.47682 0.58545 0.0
C119 C 0.51818 0.48247 0.50572 0.0
C120 C 0.50491 0.49784 0.49519 0.0
C121 C 0.5207 0.52533 0.48842 0.0
C122 C 0.50897 0.53889 0.4759 0.0
C123 C 0.48121 0.52485 0.47046 0.0
C124 C 0.4652 0.49729 0.47654 0.0
C125 C 0.47713 0.48402 0.4893 0.0
Mg126 Mg 0.21678 0.43864 0.27287 0.0
C127 C 0.18558 0.41781 0.22434 0.0
O128 O 0.21018 0.43031 0.21558 0.0
C129 C 0.24434 0.43837 0.31873 0.0
O130 O 0.24647 0.46226 0.31638 0.0
C131 C 0.17926 0.4401 0.30567 0.0
O132 O 0.17124 0.41476 0.30091 0.0
O133 O 0.2004 0.45839 0.29495 0.0
O134 O 0.18245 0.41463 0.24788 0.0
O135 O 0.2516 0.46212 0.24893 0.0
C136 C 0.26513 0.45029 0.24593 0.0
O137 O 0.25811 0.42777 0.25849 0.0
O138 O 0.231 0.4209 0.30212 0.0
Mg139 Mg 0.79224 0.22545 0.77895 0.0
C140 C 0.74318 0.18774 0.75051 0.0
O141 O 0.74854 0.17165 0.76431 0.0
C142 C 0.83061 0.27239 0.80793 0.0
O143 O 0.84386 0.25997 0.80261 0.0
C144 C 0.76951 0.19875 0.82721 0.0
O145 O 0.77024 0.222 0.82826 0.0
O146 O 0.77904 0.19392 0.80807 0.0
O147 O 0.75769 0.21314 0.75346 0.0
O148 O 0.82643 0.23326 0.75571 0.0
C149 C 0.82309 0.23072 0.73217 0.0
O150 O 0.79843 0.21902 0.72294 0.0
O151 O 0.80676 0.2631 0.79916 0.0
Mg152 Mg 0.57763 0.7971 0.28417 0.0
C153 C 0.60642 0.85313 0.26078 0.0
O154 O 0.59977 0.85894 0.28205 0.0
C155 C 0.5987 0.76315 0.30974 0.0
O156 O 0.59541 0.75365 0.2871 0.0
C157 C 0.54916 0.80568 0.32657 0.0
O158 O 0.55578 0.78907 0.33772 0.0
O159 O 0.55385 0.81091 0.30342 0.0
O160 O 0.60274 0.82951 0.25797 0.0
O161 O 0.55493 0.76244 0.26059 0.0
C162 C 0.55028 0.76536 0.23775 0.0
O163 O 0.55544 0.78925 0.22942 0.0
O164 O 0.59591 0.78353 0.31317 0.0
Mg165 Mg 0.79234 0.5787 0.77632 0.0
C166 C 0.7793 0.5973 0.72687 0.0
O167 O 0.79606 0.58994 0.71877 0.0
C168 C 0.82058 0.60568 0.8245 0.0
O169 O 0.79553 0.59711 0.83082 0.0
C170 C 0.73613 0.55135 0.79717 0.0
O171 O 0.73154 0.55958 0.77547 0.0
O172 O 0.75915 0.55368 0.80141 0.0
O173 O 0.77648 0.59774 0.7503 0.0
O174 O 0.80765 0.55779 0.75423 0.0
C175 C 0.83245 0.57239 0.74869 0.0
O176 O 0.8458 0.59714 0.75705 0.0
O177 O 0.8255 0.60382 0.80184 0.0
Mg178 Mg 0.22092 0.79575 0.28174 0.0
C179 C 0.1661 0.761 0.25756 0.0
O180 O 0.16161 0.74899 0.27957 0.0
C181 C 0.22438 0.8321 0.32425 0.0
O182 O 0.20399 0.80959 0.33289 0.0
C183 C 0.21967 0.7649 0.33023 0.0
O184 O 0.2422 0.7872 0.33551 0.0
O185 O 0.20848 0.76279 0.30897 0.0
O186 O 0.18828 0.78287 0.25408 0.0
O187 O 0.25575 0.8046 0.25934 0.0
C188 C 0.27846 0.82553 0.26365 0.0
O189 O 0.28145 0.83936 0.2838 0.0
O190 O 0.2328 0.83249 0.30243 0.0
Mg191 Mg 0.43648 0.22411 0.78682 0.0
C192 C 0.44993 0.18856 0.7599 0.0
O193 O 0.42886 0.1719 0.77314 0.0
C194 C 0.45056 0.27716 0.80849 0.0
O195 O 0.43091 0.27315 0.79292 0.0
C196 C 0.42439 0.19544 0.83724 0.0
O197 O 0.4369 0.22067 0.84432 0.0
O198 O 0.41813 0.1905 0.81423 0.0
O199 O 0.46007 0.21383 0.7628 0.0
O200 O 0.41233 0.23358 0.76029 0.0
C201 C 0.41219 0.22946 0.73704 0.0
O202 O 0.42066 0.21329 0.72976 0.0
O203 O 0.45925 0.26059 0.80888 0.0
C204 C 0.06695 0.48472 0.0777 0.0
C205 C 0.04886 0.49139 0.08818 0.0
C206 C 0.07598 0.4695 0.09142 0.0
C207 C 0.08495 0.45421 0.15736 0.0
H208 H 0.10788 0.40789 0.12822 0.0
C209 C 0.13872 0.4104 0.21772 0.0
C210 C 0.16294 0.41439 0.20771 0.0
C211 C 0.12 0.41331 0.20258 0.0
C212 C 0.10158 0.42078 0.13664 0.0
H213 H 0.02449 0.48569 0.12046 0.0
H214 H 0.03947 0.45845 0.14411 0.0
H215 H 0.08351 0.42481 0.1025 0.0
H216 H 0.18535 0.42239 0.17351 0.0
H217 H 0.15283 0.42743 0.14725 0.0
H218 H 0.10344 0.45071 0.1913 0.0
C219 C 0.04742 0.46563 0.12562 0.0
C220 C 0.08765 0.43055 0.12188 0.0
C221 C 0.03863 0.48104 0.112 0.0
C222 C 0.16697 0.41928 0.18188 0.0
C223 C 0.14822 0.42208 0.16676 0.0
C224 C 0.09871 0.44436 0.17211 0.0
C225 C 0.06696 0.46044 0.1159 0.0
C226 C 0.0795 0.44777 0.13194 0.0
C227 C 0.12497 0.42013 0.17708 0.0
C228 C 0.10761 0.42786 0.16188 0.0
H229 H 0.07543 0.49269 0.0595 0.0
H230 H 0.09117 0.46618 0.08333 0.0
H231 H 0.07958 0.46784 0.16576 0.0
H232 H 0.13488 0.40657 0.23751 0.0
H233 H 0.10206 0.41118 0.21106 0.0
C234 C 0.5753 0.05789 0.59112 0.0
C235 C 0.57005 0.07253 0.57258 0.0
C236 C 0.59776 0.07101 0.60707 0.0
C237 C 0.63974 0.13845 0.63346 0.0
H238 H 0.67945 0.10669 0.6643 0.0
C239 C 0.7222 0.19257 0.71021 0.0
C240 C 0.72314 0.17622 0.7298 0.0
C241 C 0.70524 0.18092 0.68941 0.0
C242 C 0.66836 0.11575 0.65602 0.0
H243 H 0.58556 0.11177 0.5546 0.0
H244 H 0.62506 0.13457 0.58204 0.0
H245 H 0.64877 0.08419 0.62937 0.0
H246 H 0.70618 0.13487 0.74332 0.0
H247 H 0.67641 0.11476 0.70755 0.0
H248 H 0.65883 0.16968 0.66043 0.0
C249 C 0.61149 0.11312 0.58472 0.0
C250 C 0.65085 0.10288 0.63593 0.0
C251 C 0.58906 0.1 0.56881 0.0
C252 C 0.70614 0.14809 0.72849 0.0
C253 C 0.68922 0.1365 0.70782 0.0
C254 C 0.65721 0.1513 0.65358 0.0
C255 C 0.61544 0.09905 0.60476 0.0
C256 C 0.63606 0.11389 0.62456 0.0
C257 C 0.68885 0.15267 0.68779 0.0
C258 C 0.67146 0.13992 0.66538 0.0
H259 H 0.56084 0.0368 0.59472 0.0
H260 H 0.60009 0.05953 0.62232 0.0
H261 H 0.62833 0.14729 0.62548 0.0
H262 H 0.73517 0.21429 0.71056 0.0
H263 H 0.70558 0.194 0.67429 0.0
C264 C 0.5212 0.60721 0.07472 0.0
C265 C 0.52907 0.58845 0.08234 0.0
C266 C 0.52766 0.62952 0.08942 0.0
C267 C 0.53349 0.64331 0.15483 0.0
H268 H 0.55811 0.71773 0.1356 0.0
C269 C 0.54858 0.72226 0.22724 0.0
C270 C 0.5446 0.74377 0.21993 0.0
C271 C 0.54724 0.70402 0.20971 0.0
C272 C 0.55075 0.69691 0.14121 0.0
H273 H 0.55156 0.57932 0.11013 0.0
H274 H 0.56279 0.61828 0.13586 0.0
H275 H 0.55826 0.68681 0.10512 0.0
H276 H 0.53473 0.76222 0.18867 0.0
H277 H 0.53109 0.72962 0.15822 0.0
H278 H 0.5247 0.65264 0.1904 0.0
C279 C 0.55167 0.61573 0.11855 0.0
C280 C 0.55115 0.67934 0.12379 0.0
C281 C 0.54554 0.59366 0.10368 0.0
C282 C 0.53801 0.74591 0.19487 0.0
C283 C 0.53625 0.72738 0.17736 0.0
C284 C 0.53264 0.66068 0.17208 0.0
C285 C 0.54174 0.63313 0.11212 0.0
C286 C 0.54273 0.65244 0.13054 0.0
C287 C 0.54141 0.70651 0.18444 0.0
C288 C 0.54142 0.68779 0.16561 0.0
H289 H 0.50829 0.60346 0.05844 0.0
H290 H 0.51973 0.64261 0.08408 0.0
H291 H 0.52624 0.62247 0.16034 0.0
H292 H 0.55395 0.72013 0.24634 0.0
H293 H 0.55176 0.68856 0.21592 0.0
C294 C 0.97648 0.52887 0.61513 0.0
C295 C 0.96347 0.50533 0.60089 0.0
C296 C 0.96151 0.53691 0.62911 0.0
C297 C 0.89237 0.52529 0.63986 0.0
H298 H 0.92078 0.54808 0.7067 0.0
C299 C 0.83164 0.53923 0.7181 0.0
C300 C 0.84614 0.56287 0.73204 0.0
C301 C 0.84503 0.53158 0.70143 0.0
C302 C 0.91264 0.54195 0.68804 0.0
H303 H 0.92441 0.47301 0.58866 0.0
H304 H 0.89832 0.48672 0.6134 0.0
H305 H 0.94607 0.53777 0.67758 0.0
H306 H 0.88609 0.59676 0.73962 0.0
H307 H 0.90918 0.58345 0.71087 0.0
H308 H 0.85873 0.5293 0.65064 0.0
C309 C 0.9201 0.49904 0.61376 0.0
C310 C 0.92723 0.53618 0.67126 0.0
C311 C 0.93508 0.49106 0.5997 0.0
C312 C 0.87425 0.5784 0.72922 0.0
C313 C 0.88757 0.5707 0.7128 0.0
C314 C 0.87768 0.53101 0.65674 0.0
C315 C 0.93315 0.52157 0.62929 0.0
C316 C 0.91745 0.528 0.64686 0.0
C317 C 0.87318 0.54728 0.69862 0.0
C318 C 0.88779 0.53964 0.68097 0.0
H319 H 0.99828 0.54029 0.61666 0.0
H320 H 0.97223 0.55474 0.6404 0.0
H321 H 0.88427 0.51917 0.62119 0.0
H322 H 0.80996 0.52689 0.71978 0.0
H323 H 0.83341 0.5133 0.69089 0.0
C324 C 0.42954 0.92365 0.08422 0.0
C325 C 0.45386 0.94716 0.09016 0.0
C326 C 0.4092 0.91103 0.10201 0.0
C327 C 0.40262 0.90482 0.17035 0.0
H328 H 0.32571 0.86846 0.15661 0.0
C329 C 0.3239 0.861 0.24858 0.0
C330 C 0.29963 0.83681 0.24432 0.0
C331 C 0.34252 0.87365 0.22946 0.0
C332 C 0.34714 0.8782 0.16068 0.0
H333 H 0.47505 0.97712 0.11851 0.0
H334 H 0.43945 0.95549 0.14933 0.0
H335 H 0.35736 0.89367 0.12322 0.0
H336 H 0.27638 0.80641 0.21674 0.0
H337 H 0.30913 0.82832 0.18345 0.0
H338 H 0.39257 0.88933 0.20768 0.0
C339 C 0.43632 0.94634 0.13123 0.0
C340 C 0.36526 0.89275 0.14155 0.0
C341 C 0.45661 0.95888 0.11352 0.0
C342 C 0.29487 0.82505 0.22068 0.0
C343 C 0.31352 0.83774 0.20151 0.0
C344 C 0.38456 0.89028 0.18941 0.0
C345 C 0.41281 0.92172 0.12605 0.0
C346 C 0.39324 0.9064 0.14622 0.0
C347 C 0.33739 0.86243 0.20556 0.0
C348 C 0.35658 0.87691 0.18489 0.0
H349 H 0.42698 0.91401 0.06647 0.0
H350 H 0.39138 0.89208 0.09741 0.0
H351 H 0.42404 0.91451 0.17448 0.0
H352 H 0.32823 0.87069 0.26652 0.0
H353 H 0.36054 0.89276 0.23323 0.0
C354 C 0.47704 0.4056 0.57654 0.0
C355 C 0.48542 0.43085 0.58714 0.0
C356 C 0.46314 0.38176 0.59075 0.0
C357 C 0.42621 0.35277 0.65027 0.0
H358 H 0.4528 0.3029 0.64413 0.0
C359 C 0.41099 0.27185 0.72583 0.0
C360 C 0.40984 0.24792 0.71837 0.0
C361 C 0.4149 0.29204 0.70825 0.0
C362 C 0.44464 0.31623 0.64583 0.0
H363 H 0.48427 0.45057 0.62066 0.0
H364 H 0.46038 0.40909 0.64551 0.0
H365 H 0.46925 0.34192 0.61627 0.0
H366 H 0.40952 0.22555 0.68625 0.0
H367 H 0.4155 0.26027 0.65565 0.0
H368 H 0.40196 0.32721 0.68025 0.0
C369 C 0.46443 0.40766 0.62617 0.0
C370 C 0.45416 0.33873 0.62979 0.0
C371 C 0.47837 0.4315 0.61197 0.0
C372 C 0.41059 0.24382 0.69273 0.0
C373 C 0.4143 0.2639 0.67516 0.0
C374 C 0.41661 0.33016 0.66633 0.0
C375 C 0.45721 0.38251 0.61594 0.0
C376 C 0.44532 0.35749 0.63193 0.0
C377 C 0.41756 0.28872 0.68275 0.0
C378 C 0.42591 0.31171 0.66451 0.0
H379 H 0.48229 0.40429 0.55757 0.0
H380 H 0.45755 0.36274 0.58213 0.0
H381 H 0.4187 0.36661 0.65228 0.0
H382 H 0.41052 0.27576 0.7454 0.0
H383 H 0.41739 0.31086 0.71489 0.0
C384 C 0.50487 0.93994 0.47313 0.0
C385 C 0.50038 0.9596 0.46136 0.0
C386 C 0.51252 0.9246 0.45923 0.0
C387 C 0.53824 0.9199 0.39769 0.0
H388 H 0.49773 0.84291 0.4118 0.0
C389 C 0.53784 0.84248 0.33065 0.0
C390 C 0.54052 0.82133 0.34158 0.0
C391 C 0.53295 0.85931 0.34543 0.0
C392 C 0.50943 0.86437 0.40776 0.0
H393 H 0.50222 0.97988 0.42613 0.0
H394 H 0.51538 0.95305 0.40184 0.0
H395 H 0.49202 0.87374 0.43799 0.0
H396 H 0.53922 0.80073 0.37654 0.0
H397 H 0.53079 0.83006 0.40223 0.0
H398 H 0.55552 0.91047 0.36735 0.0
C399 C 0.51304 0.94945 0.4218 0.0
C400 C 0.50624 0.88208 0.42285 0.0
C401 C 0.50536 0.96474 0.43568 0.0
C402 C 0.53723 0.81679 0.36749 0.0
C403 C 0.53231 0.83359 0.38224 0.0
C404 C 0.54144 0.90218 0.3826 0.0
C405 C 0.51591 0.92863 0.43327 0.0
C406 C 0.52054 0.91006 0.41796 0.0
C407 C 0.53057 0.85534 0.37146 0.0
C408 C 0.527 0.87418 0.3874 0.0
H409 H 0.501 0.93532 0.49284 0.0
H410 H 0.51503 0.90903 0.46871 0.0
H411 H 0.54978 0.94136 0.39357 0.0
H412 H 0.54024 0.84654 0.31075 0.0
H413 H 0.53125 0.87559 0.33647 0.0
C414 C 0.57611 0.53909 0.95052 0.0
C415 C 0.57861 0.53001 0.97449 0.0
C416 C 0.59575 0.54521 0.93264 0.0
C417 C 0.66373 0.5554 0.92065 0.0
H418 H 0.62903 0.51665 0.86014 0.0
C419 C 0.72389 0.54165 0.84253 0.0
C420 C 0.71704 0.54508 0.81786 0.0
C421 C 0.70758 0.53982 0.86239 0.0
C422 C 0.63915 0.52789 0.87673 0.0
H423 H 0.60462 0.52253 0.99929 0.0
H424 H 0.63927 0.53358 0.96806 0.0
H425 H 0.60173 0.51789 0.89344 0.0
H426 H 0.68712 0.54832 0.79473 0.0
H427 H 0.65904 0.54543 0.82912 0.0
H428 H 0.70123 0.56554 0.90374 0.0
C429 C 0.62214 0.53597 0.96309 0.0
C430 C 0.62346 0.52866 0.89584 0.0
C431 C 0.60242 0.52985 0.98104 0.0
C432 C 0.693 0.54558 0.81346 0.0
C433 C 0.6768 0.54384 0.83326 0.0
C434 C 0.67951 0.55482 0.90137 0.0
C435 C 0.61825 0.5423 0.93835 0.0
C436 C 0.63553 0.54255 0.91796 0.0
C437 C 0.68405 0.54137 0.85804 0.0
C438 C 0.6674 0.54113 0.8791 0.0
H439 H 0.55786 0.53927 0.94503 0.0
H440 H 0.59249 0.55063 0.91389 0.0
H441 H 0.6736 0.56624 0.93748 0.0
H442 H 0.74229 0.54123 0.8466 0.0
H443 H 0.71355 0.53745 0.88118 0.0
C444 C 0.06546 0.58615 0.46893 0.0
C445 C 0.07536 0.58236 0.49201 0.0
C446 C 0.08041 0.60982 0.45489 0.0
C447 C 0.15145 0.66134 0.44561 0.0
H448 H 0.12078 0.69099 0.39796 0.0
C449 C 0.21562 0.74762 0.37447 0.0
C450 C 0.20492 0.74444 0.35008 0.0
C451 C 0.20032 0.72989 0.39375 0.0
C452 C 0.12963 0.68282 0.41109 0.0
H453 H 0.10755 0.60125 0.51945 0.0
H454 H 0.13344 0.64306 0.49521 0.0
H455 H 0.09213 0.6586 0.42971 0.0
H456 H 0.16999 0.71953 0.32676 0.0
H457 H 0.14353 0.68867 0.36025 0.0
H458 H 0.18889 0.68536 0.42672 0.0
C459 C 0.11436 0.62747 0.48772 0.0
C460 C 0.11322 0.6643 0.42933 0.0
C461 C 0.09933 0.60372 0.5018 0.0
C462 C 0.17889 0.72267 0.34531 0.0
C463 C 0.16358 0.7051 0.36457 0.0
C464 C 0.1679 0.67999 0.42743 0.0
C465 C 0.10563 0.63031 0.46362 0.0
C466 C 0.12377 0.65286 0.44652 0.0
C467 C 0.17393 0.70872 0.38909 0.0
C468 C 0.15704 0.6905 0.40962 0.0
H469 H 0.04706 0.56996 0.46094 0.0
H470 H 0.07304 0.61113 0.43641 0.0
H471 H 0.16023 0.65267 0.45824 0.0
H472 H 0.23556 0.7642 0.37883 0.0
H473 H 0.20885 0.73325 0.41245 0.0
C474 C 0.47006 0.03229 0.94862 0.0
C475 C 0.49021 0.04458 0.96705 0.0
C476 C 0.45866 0.04651 0.93688 0.0
C477 C 0.47462 0.1176 0.92532 0.0
H478 H 0.40251 0.0837 0.89645 0.0
C479 C 0.43329 0.18121 0.87929 0.0
C480 C 0.42345 0.17431 0.8547 0.0
C481 C 0.43754 0.16348 0.89456 0.0
C482 C 0.42271 0.09339 0.90438 0.0
H483 H 0.51319 0.08062 0.98871 0.0
H484 H 0.49237 0.10491 0.96946 0.0
H485 H 0.41694 0.05651 0.92124 0.0
H486 H 0.4086 0.1424 0.82756 0.0
H487 H 0.41568 0.11115 0.85455 0.0
H488 H 0.48024 0.15447 0.90878 0.0
C489 C 0.48597 0.08475 0.96316 0.0
C490 C 0.43108 0.07782 0.91853 0.0
C491 C 0.49769 0.07073 0.97451 0.0
C492 C 0.41619 0.14838 0.84639 0.0
C493 C 0.42025 0.13047 0.86184 0.0
C494 C 0.46613 0.13314 0.91156 0.0
C495 C 0.46694 0.07324 0.94354 0.0
C496 C 0.45724 0.0897 0.92919 0.0
C497 C 0.43184 0.13823 0.88579 0.0
C498 C 0.44013 0.12128 0.90088 0.0
H499 H 0.46423 0.01226 0.9423 0.0
H500 H 0.44433 0.03692 0.92176 0.0
H501 H 0.49515 0.12753 0.93243 0.0
H502 H 0.43893 0.20088 0.88646 0.0
H503 H 0.44607 0.16986 0.91307 0.0
C504 C 0.41986 0.493 0.46826 0.0
C505 C 0.43697 0.48211 0.4668 0.0
C506 C 0.39488 0.48095 0.45581 0.0
C507 C 0.36158 0.44037 0.40069 0.0
H508 H 0.29849 0.43928 0.42663 0.0
C509 C 0.26837 0.4151 0.33755 0.0
C510 C 0.25936 0.43374 0.33935 0.0
C511 C 0.28624 0.41441 0.35563 0.0
C512 C 0.31593 0.43945 0.41906 0.0
H513 H 0.44082 0.44944 0.45179 0.0
H514 H 0.39708 0.4283 0.4301 0.0
H515 H 0.33718 0.4506 0.4541 0.0
H516 H 0.26068 0.46506 0.36221 0.0
H517 H 0.29147 0.46391 0.39333 0.0
H518 H 0.34084 0.43039 0.36538 0.0
C519 C 0.40308 0.44625 0.44083 0.0
C520 C 0.3381 0.44594 0.43484 0.0
C521 C 0.428 0.45819 0.45348 0.0
C522 C 0.26733 0.45052 0.3602 0.0
C523 C 0.28489 0.44971 0.37823 0.0
C524 C 0.33942 0.434 0.38486 0.0
C525 C 0.38646 0.4578 0.44143 0.0
C526 C 0.36149 0.4472 0.42569 0.0
C527 C 0.29512 0.43212 0.37595 0.0
C528 C 0.31661 0.43423 0.39366 0.0
H529 H 0.42619 0.51137 0.47842 0.0
H530 H 0.38274 0.49055 0.45652 0.0
H531 H 0.37934 0.44138 0.39295 0.0
H532 H 0.26266 0.40199 0.32164 0.0
H533 H 0.29355 0.40044 0.35341 0.0
C534 C 0.91959 0.4471 0.9695 0.0
C535 C 0.94798 0.46114 0.97023 0.0
C536 C 0.90526 0.42456 0.95439 0.0
C537 C 0.91093 0.37334 0.91835 0.0
H538 H 0.85599 0.37478 0.87562 0.0
C539 C 0.87038 0.30722 0.83165 0.0
C540 C 0.84273 0.29497 0.82575 0.0
C541 C 0.88185 0.32665 0.85015 0.0
C542 C 0.87096 0.37379 0.88763 0.0
H543 H 0.98344 0.46144 0.95653 0.0
H544 H 0.95846 0.42183 0.93064 0.0
H545 H 0.87808 0.40857 0.90787 0.0
H546 H 0.80549 0.29397 0.83437 0.0
H547 H 0.82549 0.32782 0.86704 0.0
H548 H 0.90392 0.33865 0.8982 0.0
C549 C 0.94726 0.42831 0.94175 0.0
C550 C 0.88363 0.39318 0.90615 0.0
C551 C 0.96161 0.45097 0.95673 0.0
C552 C 0.8269 0.30317 0.83837 0.0
C553 C 0.83839 0.32257 0.8571 0.0
C554 C 0.89816 0.35388 0.89996 0.0
C555 C 0.91896 0.41532 0.93982 0.0
C556 C 0.90403 0.3934 0.92151 0.0
C557 C 0.86597 0.33425 0.86349 0.0
C558 C 0.87831 0.35409 0.88406 0.0
H559 H 0.90843 0.45412 0.97996 0.0
H560 H 0.88345 0.41468 0.95371 0.0
H561 H 0.92627 0.37271 0.93011 0.0
H562 H 0.88324 0.30158 0.82213 0.0
H563 H 0.90327 0.33567 0.85402 0.0
C564 C 0.97402 0.56946 0.95474 0.0
C565 C 0.96189 0.55315 0.97584 0.0
C566 C 0.96181 0.58233 0.94205 0.0
C567 C 0.8934 0.57349 0.93319 0.0
H568 H 0.93085 0.63709 0.89062 0.0
C569 C 0.83409 0.60782 0.86955 0.0
C570 C 0.8412 0.61086 0.84426 0.0
C571 C 0.85123 0.60693 0.8881 0.0
C572 C 0.92014 0.61933 0.90247 0.0
H573 H 0.92861 0.53874 1.00128 0.0
H574 H 0.90804 0.56247 0.98019 0.0
H575 H 0.95663 0.62491 0.91987 0.0
H576 H 0.873 0.61756 0.81892 0.0
H577 H 0.90301 0.61622 0.8514 0.0
H578 H 0.85701 0.56782 0.91573 0.0
C579 C 0.92645 0.56469 0.97274 0.0
C580 C 0.9349 0.61225 0.91919 0.0
C581 C 0.93841 0.55142 0.98512 0.0
C582 C 0.86683 0.61512 0.83819 0.0
C583 C 0.88408 0.61441 0.85682 0.0
C584 C 0.87871 0.58076 0.91677 0.0
C585 C 0.93729 0.57934 0.95037 0.0
C586 C 0.92175 0.58893 0.93452 0.0
C587 C 0.87601 0.60929 0.88187 0.0
C588 C 0.89189 0.60351 0.90093 0.0
H589 H 0.99187 0.57063 0.947 0.0
H590 H 0.97073 0.59312 0.92483 0.0
H591 H 0.88242 0.55503 0.94407 0.0
H592 H 0.81462 0.60467 0.87498 0.0
H593 H 0.84464 0.60339 0.90729 0.0
C594 C 0.42081 0.98041 0.44105 0.0
C595 C 0.42199 0.97348 0.46622 0.0
C596 C 0.39604 0.97038 0.4285 0.0
C597 C 0.32796 0.91101 0.43124 0.0
H598 H 0.31462 0.94615 0.37432 0.0
C599 C 0.23556 0.85159 0.36718 0.0
C600 C 0.24138 0.85434 0.34158 0.0
C601 C 0.25421 0.86988 0.38428 0.0
C602 C 0.31803 0.93605 0.39016 0.0
H603 H 0.39792 0.95226 0.49847 0.0
H604 H 0.35455 0.93527 0.47675 0.0
H605 H 0.3535 0.97226 0.40168 0.0
H606 H 0.27066 0.87963 0.31377 0.0
H607 H 0.30311 0.91134 0.34351 0.0
H608 H 0.29307 0.87467 0.41936 0.0
C609 C 0.37287 0.94802 0.46654 0.0
C610 C 0.34033 0.95101 0.40586 0.0
C611 C 0.39772 0.95807 0.47911 0.0
C612 C 0.26549 0.87684 0.33334 0.0
C613 C 0.28411 0.89514 0.35043 0.0
C614 C 0.30566 0.8961 0.41561 0.0
C615 C 0.37175 0.95319 0.44083 0.0
C616 C 0.34596 0.93854 0.42628 0.0
C617 C 0.27909 0.8914 0.3762 0.0
C618 C 0.30074 0.90826 0.39453 0.0
H619 H 0.43919 0.99243 0.43066 0.0
H620 H 0.39611 0.97474 0.40871 0.0
H621 H 0.33181 0.90053 0.44647 0.0
H622 H 0.21716 0.83459 0.37422 0.0
H623 H 0.24949 0.86666 0.40395 0.0
C624 C 0.47832 0.44491 0.95985 0.0
C625 C 0.49311 0.44562 0.98134 0.0
C626 C 0.46955 0.42372 0.94318 0.0
C627 C 0.46479 0.35744 0.93183 0.0
H628 H 0.48383 0.38714 0.86468 0.0
C629 C 0.47169 0.29681 0.85002 0.0
C630 C 0.45887 0.29802 0.82772 0.0
C631 C 0.47569 0.31428 0.86955 0.0
C632 C 0.47819 0.37845 0.88326 0.0
H633 H 0.50853 0.42401 1.00341 0.0
H634 H 0.49335 0.38695 0.97426 0.0
H635 H 0.48669 0.41607 0.89828 0.0
H636 H 0.44124 0.31918 0.80802 0.0
H637 H 0.44832 0.34955 0.84179 0.0
H638 H 0.45664 0.31979 0.91657 0.0
C639 C 0.48816 0.40246 0.97033 0.0
C640 C 0.47962 0.39499 0.90255 0.0
C641 C 0.49671 0.42358 0.98715 0.0
C642 C 0.45119 0.31773 0.82495 0.0
C643 C 0.45532 0.33521 0.84431 0.0
C644 C 0.46338 0.34083 0.91245 0.0
C645 C 0.47581 0.40311 0.94751 0.0
C646 C 0.47278 0.3847 0.92705 0.0
C647 C 0.46719 0.33342 0.86699 0.0
C648 C 0.46995 0.35116 0.88793 0.0
H649 H 0.47558 0.46187 0.95493 0.0
H650 H 0.45944 0.42445 0.92608 0.0
H651 H 0.45938 0.34889 0.95048 0.0
H652 H 0.4777 0.28173 0.85276 0.0
H653 H 0.4852 0.31266 0.8867 0.0
C654 C 0.08164 0.4848 0.48689 0.0
C655 C 0.062 0.49182 0.48046 0.0
C656 C 0.09182 0.4753 0.46874 0.0
C657 C 0.08166 0.45048 0.40365 0.0
H658 H 0.15985 0.48675 0.40398 0.0
C659 C 0.14037 0.42511 0.3341 0.0
C660 C 0.16457 0.44623 0.32437 0.0
C661 C 0.12697 0.42976 0.35297 0.0
C662 C 0.13802 0.47666 0.4035 0.0
H663 H 0.03592 0.4922 0.45072 0.0
H664 H 0.0535 0.47555 0.41911 0.0
H665 H 0.13675 0.49352 0.43821 0.0
H666 H 0.19342 0.48902 0.32657 0.0
H667 H 0.1697 0.49732 0.35956 0.0
H668 H 0.08296 0.43425 0.36859 0.0
C669 C 0.06115 0.47736 0.43805 0.0
C670 C 0.12474 0.48014 0.42334 0.0
C671 C 0.05104 0.48689 0.45615 0.0
C672 C 0.17481 0.47234 0.33366 0.0
C673 C 0.16134 0.47702 0.35268 0.0
C674 C 0.09494 0.447 0.38381 0.0
C675 C 0.08247 0.47255 0.44387 0.0
C676 C 0.09639 0.46716 0.42364 0.0
C677 C 0.13734 0.45569 0.36266 0.0
C678 C 0.12329 0.46007 0.38346 0.0
H679 H 0.09061 0.48863 0.50543 0.0
H680 H 0.10786 0.47125 0.47394 0.0
H681 H 0.05983 0.44012 0.4033 0.0
H682 H 0.13186 0.40471 0.32742 0.0
H683 H 0.10878 0.4128 0.3604 0.0
C684 C 0.59493 0.07239 0.96994 0.0
C685 C 0.57693 0.04472 0.96664 0.0
C686 C 0.62002 0.08517 0.95835 0.0
C687 C 0.65197 0.08008 0.90243 0.0
H688 H 0.71672 0.1382 0.93233 0.0
C689 C 0.74451 0.15032 0.84241 0.0
C690 C 0.75469 0.1779 0.84668 0.0
C691 C 0.72686 0.13076 0.85949 0.0
C692 C 0.69882 0.12203 0.92366 0.0
H693 H 0.57149 0.00853 0.94931 0.0
H694 H 0.6154 0.03092 0.92895 0.0
H695 H 0.67779 0.10988 0.95834 0.0
H696 H 0.75574 0.2066 0.87291 0.0
H697 H 0.72511 0.17288 0.90226 0.0
H698 H 0.67237 0.09301 0.86755 0.0
C699 C 0.61005 0.0427 0.94052 0.0
C700 C 0.67654 0.10579 0.9386 0.0
C701 C 0.58503 0.02984 0.95235 0.0
C702 C 0.74815 0.18552 0.86897 0.0
C703 C 0.7307 0.1661 0.88598 0.0
C704 C 0.6742 0.09644 0.88745 0.0
C705 C 0.62759 0.07062 0.94299 0.0
C706 C 0.6526 0.08512 0.92803 0.0
C707 C 0.71923 0.13844 0.88121 0.0
C708 C 0.69762 0.11816 0.89774 0.0
H709 H 0.58924 0.08432 0.98091 0.0
H710 H 0.63293 0.10674 0.96045 0.0
H711 H 0.63375 0.06447 0.89366 0.0
H712 H 0.74917 0.14382 0.82539 0.0
H713 H 0.71865 0.10963 0.85537 0.0
C714 C 0.5195 0.58682 0.47048 0.0
C715 C 0.52575 0.56664 0.46555 0.0
C716 C 0.53246 0.61166 0.45768 0.0
C717 C 0.58855 0.65344 0.41269 0.0
H718 H 0.54285 0.68361 0.39534 0.0
C719 C 0.60391 0.72506 0.3278 0.0
C720 C 0.59926 0.74664 0.33138 0.0
C721 C 0.59964 0.70644 0.34714 0.0
C722 C 0.55603 0.67568 0.40029 0.0
H723 H 0.55076 0.5567 0.44377 0.0
H724 H 0.57262 0.59946 0.42065 0.0
H725 H 0.52625 0.64481 0.42348 0.0
H726 H 0.58783 0.76631 0.35862 0.0
H727 H 0.57995 0.73355 0.39218 0.0
H728 H 0.61767 0.68369 0.38805 0.0
C729 C 0.55844 0.59674 0.43496 0.0
C730 C 0.54657 0.6534 0.41661 0.0
C731 C 0.54586 0.5721 0.44817 0.0
C732 C 0.59163 0.74997 0.35517 0.0
C733 C 0.58694 0.73111 0.37438 0.0
C734 C 0.59781 0.67547 0.39597 0.0
C735 C 0.5515 0.61671 0.43909 0.0
C736 C 0.56257 0.64175 0.42297 0.0
C737 C 0.59024 0.70877 0.37039 0.0
C738 C 0.58157 0.68672 0.38949 0.0
H739 H 0.50409 0.58309 0.48385 0.0
H740 H 0.52702 0.62667 0.46202 0.0
H741 H 0.60177 0.64552 0.41738 0.0
H742 H 0.60982 0.72191 0.30972 0.0
H743 H 0.60225 0.68938 0.34347 0.0
C744 C 0.49712 0.10353 0.57165 0.0
C745 C 0.48649 0.07542 0.57319 0.0
C746 C 0.49023 0.11656 0.58926 0.0
C747 C 0.47323 0.10638 0.65481 0.0
H748 H 0.46399 0.16883 0.64753 0.0
C749 C 0.44744 0.1497 0.73785 0.0
C750 C 0.45807 0.1777 0.73921 0.0
C751 C 0.45147 0.13842 0.71686 0.0
C752 C 0.46697 0.15165 0.64985 0.0
H753 H 0.45795 0.03866 0.59258 0.0
H754 H 0.44545 0.06129 0.62284 0.0
H755 H 0.46597 0.14601 0.6103 0.0
H756 H 0.48214 0.21601 0.71989 0.0
H757 H 0.48977 0.19624 0.68318 0.0
H758 H 0.47491 0.11213 0.69411 0.0
C759 C 0.45958 0.07331 0.60839 0.0
C760 C 0.46786 0.13848 0.62854 0.0
C761 C 0.46644 0.0603 0.5908 0.0
C762 C 0.4738 0.19435 0.71944 0.0
C763 C 0.47787 0.183 0.6983 0.0
C764 C 0.47258 0.11961 0.67599 0.0
C765 C 0.47257 0.10165 0.60866 0.0
C766 C 0.47065 0.11549 0.63086 0.0
C767 C 0.4664 0.15484 0.69665 0.0
C768 C 0.46911 0.1422 0.67384 0.0
H769 H 0.51251 0.11565 0.55815 0.0
H770 H 0.50046 0.13841 0.58891 0.0
H771 H 0.47626 0.08923 0.65721 0.0
H772 H 0.43519 0.13626 0.75273 0.0
H773 H 0.44203 0.11665 0.71616 0.0
C774 C 0.42612 0.51249 0.07463 0.0
C775 C 0.44395 0.50294 0.08063 0.0
C776 C 0.40281 0.50401 0.08852 0.0
C777 C 0.35888 0.455 0.13714 0.0
H778 H 0.35325 0.51572 0.15996 0.0
C779 C 0.30262 0.44751 0.2264 0.0
C780 C 0.28594 0.459 0.2265 0.0
C781 C 0.31996 0.4525 0.20664 0.0
C782 C 0.35423 0.49847 0.15352 0.0
H783 H 0.45012 0.47531 0.1045 0.0
H784 H 0.40934 0.46024 0.12854 0.0
H785 H 0.38487 0.52257 0.12714 0.0
H786 H 0.27509 0.48554 0.20626 0.0
H787 H 0.30558 0.49434 0.17149 0.0
H788 H 0.32863 0.43101 0.16386 0.0
C789 C 0.4133 0.47429 0.11311 0.0
C790 C 0.37231 0.50236 0.13463 0.0
C791 C 0.43665 0.48281 0.09923 0.0
C792 C 0.2878 0.47652 0.20678 0.0
C793 C 0.30521 0.48148 0.18686 0.0
C794 C 0.34078 0.45111 0.15599 0.0
C795 C 0.39678 0.48572 0.10865 0.0
C796 C 0.37521 0.48076 0.12652 0.0
C797 C 0.32107 0.46904 0.18634 0.0
C798 C 0.33865 0.47291 0.16479 0.0
H799 H 0.43116 0.52789 0.06025 0.0
H800 H 0.39018 0.51273 0.08423 0.0
H801 H 0.36032 0.43788 0.13109 0.0
H802 H 0.30191 0.43414 0.24143 0.0
H803 H 0.33242 0.44319 0.20723 0.0
C804 C 0.95178 0.40607 0.59025 0.0
C805 C 0.97758 0.42707 0.5969 0.0
C806 C 0.94085 0.38085 0.60227 0.0
C807 C 0.94223 0.35378 0.6635 0.0
H808 H 0.89689 0.28425 0.63315 0.0
C809 C 0.87263 0.26178 0.72459 0.0
C810 C 0.84621 0.24605 0.71519 0.0
C811 C 0.89337 0.28009 0.70898 0.0
C812 C 0.90935 0.3035 0.64199 0.0
H813 H 0.01269 0.43788 0.62042 0.0
H814 H 0.99342 0.39378 0.64172 0.0
H815 H 0.92474 0.32371 0.60685 0.0
H816 H 0.82136 0.23594 0.68159 0.0
H817 H 0.85691 0.26814 0.65482 0.0
H818 H 0.9257 0.33437 0.69839 0.0
C819 C 0.98177 0.39681 0.62708 0.0
C820 C 0.92543 0.32606 0.62688 0.0
C821 C 0.99288 0.42192 0.61476 0.0
C822 C 0.84143 0.24776 0.68954 0.0
C823 C 0.86202 0.26623 0.67405 0.0
C824 C 0.92588 0.33136 0.67858 0.0
C825 C 0.95533 0.37628 0.62147 0.0
C826 C 0.94157 0.35155 0.63744 0.0
C827 C 0.88811 0.2833 0.68368 0.0
C828 C 0.90864 0.30601 0.668 0.0
H829 H 0.93956 0.40962 0.57663 0.0
H830 H 0.92036 0.36553 0.59767 0.0
H831 H 0.95419 0.37323 0.67218 0.0
H832 H 0.87707 0.26081 0.74422 0.0
H833 H 0.91332 0.29237 0.71699 0.0
C834 C 0.54995 0.94077 0.07803 0.0
C835 C 0.54599 0.96257 0.08258 0.0
C836 C 0.56519 0.93438 0.09481 0.0
C837 C 0.5815 0.94135 0.16188 0.0
H838 H 0.62173 0.90556 0.1474 0.0
C839 C 0.61649 0.89771 0.24198 0.0
C840 C 0.61148 0.8713 0.23877 0.0
C841 C 0.61569 0.91305 0.22157 0.0
C842 C 0.61047 0.91546 0.15176 0.0
H843 H 0.55667 0.99617 0.10678 0.0
H844 H 0.58409 0.98578 0.1355 0.0
H845 H 0.60789 0.92548 0.11328 0.0
H846 H 0.60355 0.84104 0.21123 0.0
H847 H 0.60156 0.8675 0.17576 0.0
H848 H 0.58301 0.93063 0.20004 0.0
C849 C 0.57489 0.97309 0.11946 0.0
C850 C 0.60258 0.92691 0.13219 0.0
C851 C 0.55949 0.97928 0.10286 0.0
C852 C 0.60753 0.86132 0.21441 0.0
C853 C 0.60645 0.87658 0.19399 0.0
C854 C 0.5893 0.92992 0.18133 0.0
C855 C 0.5768 0.94976 0.11637 0.0
C856 C 0.58773 0.93978 0.13699 0.0
C857 C 0.60953 0.90228 0.19743 0.0
C858 C 0.60364 0.91654 0.1766 0.0
H859 H 0.53942 0.92735 0.06272 0.0
H860 H 0.56611 0.91622 0.09184 0.0
H861 H 0.56951 0.95044 0.16634 0.0
H862 H 0.61987 0.90613 0.26045 0.0
H863 H 0.61891 0.93303 0.22488 0.0
C864 C 0.59688 0.52764 0.57355 0.0
C865 C 0.57201 0.51882 0.58516 0.0
C866 C 0.62118 0.54235 0.5868 0.0
C867 C 0.65194 0.58027 0.64538 0.0
H868 H 0.70237 0.55475 0.63691 0.0
C869 C 0.73583 0.59693 0.7177 0.0
C870 C 0.75969 0.59871 0.70912 0.0
C871 C 0.71491 0.59263 0.70098 0.0
C872 C 0.68887 0.56261 0.63924 0.0
H873 H 0.5534 0.52013 0.6194 0.0
H874 H 0.5957 0.54534 0.64263 0.0
H875 H 0.66233 0.53746 0.61053 0.0
H876 H 0.78112 0.59973 0.67598 0.0
H877 H 0.74506 0.593 0.64685 0.0
H878 H 0.67837 0.60499 0.67458 0.0
C879 C 0.59647 0.54102 0.62322 0.0
C880 C 0.66579 0.55262 0.62405 0.0
C881 C 0.57216 0.52632 0.60997 0.0
C882 C 0.76291 0.59814 0.68328 0.0
C883 C 0.7421 0.59404 0.66657 0.0
C884 C 0.67512 0.59032 0.66061 0.0
C885 C 0.62127 0.54861 0.61201 0.0
C886 C 0.64684 0.56107 0.62705 0.0
C887 C 0.71743 0.5902 0.67526 0.0
C888 C 0.69378 0.5814 0.65791 0.0
H889 H 0.59761 0.52209 0.55456 0.0
H890 H 0.63991 0.54824 0.57743 0.0
H891 H 0.63794 0.58746 0.64803 0.0
H892 H 0.73264 0.59729 0.73748 0.0
H893 H 0.69621 0.58969 0.70841 0.0
C894 C 0.04343 0.59558 0.09352 0.0
C895 C 0.05822 0.58212 0.09233 0.0
C896 C 0.05293 0.61874 0.10806 0.0
C897 C 0.07034 0.65479 0.15466 0.0
H898 H 0.14693 0.70694 0.15635 0.0
C899 C 0.1254 0.72077 0.23969 0.0
C900 C 0.14843 0.74628 0.23601 0.0
C901 C 0.11153 0.70445 0.21939 0.0
C902 C 0.12541 0.69292 0.15589 0.0
H903 H 0.09502 0.58298 0.10444 0.0
H904 H 0.11149 0.62307 0.12958 0.0
H905 H 0.1289 0.67189 0.12511 0.0
H906 H 0.17366 0.77543 0.20788 0.0
H907 H 0.14925 0.74708 0.17245 0.0
H908 H 0.06699 0.67555 0.18585 0.0
C909 C 0.09259 0.61589 0.11945 0.0
C910 C 0.11512 0.67261 0.13812 0.0
C911 C 0.083 0.59273 0.10524 0.0
C912 C 0.15612 0.75584 0.21143 0.0
C913 C 0.14224 0.73949 0.19111 0.0
C914 C 0.08067 0.6751 0.17256 0.0
C915 C 0.07762 0.62909 0.12124 0.0
C916 C 0.08761 0.65286 0.1377 0.0
C917 C 0.12031 0.71323 0.19487 0.0
C918 C 0.10846 0.69404 0.17378 0.0
H919 H 0.02428 0.58783 0.08371 0.0
H920 H 0.041 0.62856 0.10899 0.0
H921 H 0.04907 0.63984 0.15489 0.0
H922 H 0.11883 0.71276 0.25834 0.0
H923 H 0.09489 0.68431 0.22307 0.0
loop_
_geom_bond_atom_site_label_1
_geom_bond_atom_site_label_2
_geom_bond_distance
_geom_bond_site_symmetry_2
_ccdc_geom_bond_type
H0 C8 0.930 . S
H1 C11 0.930 . S
H2 C13 0.930 . S
H3 C14 0.970 . S
H4 C14 0.970 . S
H5 C16 0.930 . S
H6 C18 0.930 . S
H7 C20 0.930 . S
C8 H0 0.930 . S
C8 C9 1.382 . S
C8 C10 1.426 . S
C9 C8 1.382 . S
C9 C13 1.389 . S
C10 C8 1.426 . S
C10 C11 1.375 . S
C10 C14 1.532 1_554 S
C11 H1 0.930 . S
C11 C10 1.375 . S
C11 C12 1.416 . S
C12 C11 1.416 . S
C12 C13 1.371 . S
C13 H2 0.930 . S
C13 C9 1.389 . S
C13 C12 1.371 . S
C14 H3 0.970 . S
C14 H4 0.970 . S
C14 C10 1.532 1_556 S
C14 C15 1.499 . S
C15 C14 1.499 . S
C15 C16 1.370 . S
C15 C20 1.415 . S
C16 H5 0.930 . S
C16 C15 1.370 . S
C16 C17 1.407 1_455 S
C17 C16 1.407 1_655 S
C17 C18 1.365 . S
C18 H6 0.930 . S
C18 C17 1.365 . S
C18 C19 1.393 . S
C19 C18 1.393 . S
C19 C20 1.387 1_655 S
C20 H7 0.930 . S
C20 C15 1.415 . S
C20 C19 1.387 1_455 S
H21 C29 0.930 . S
H22 C32 0.930 . S
H23 C34 0.930 . S
H24 C35 0.970 . S
H25 C35 0.970 . S
H26 C37 0.930 . S
H27 C39 0.930 . S
H28 C41 0.930 . S
C29 H21 0.930 . S
C29 C30 1.382 . S
C29 C31 1.426 . S
C30 C29 1.382 . S
C30 C34 1.389 . S
C31 C29 1.426 . S
C31 C32 1.375 . S
C31 C35 1.532 1_545 S
C32 H22 0.930 . S
C32 C31 1.375 . S
C32 C33 1.416 . S
C33 C32 1.416 . S
C33 C34 1.371 . S
C34 H23 0.930 . S
C34 C30 1.389 . S
C34 C33 1.371 . S
C35 H24 0.970 . S
C35 H25 0.970 . S
C35 C31 1.532 1_565 S
C35 C36 1.499 . S
C36 C35 1.499 . S
C36 C37 1.370 . S
C36 C41 1.415 . S
C37 H26 0.930 . S
C37 C36 1.370 . S
C37 C38 1.407 . S
C38 C37 1.407 . S
C38 C39 1.365 . S
C39 H27 0.930 . S
C39 C38 1.365 . S
C39 C40 1.393 . S
C40 C39 1.393 . S
C40 C41 1.387 . S
C41 H28 0.930 . S
C41 C36 1.415 . S
C41 C40 1.387 . S
H42 C50 0.930 . S
H43 C53 0.930 . S
H44 C55 0.930 . S
H45 C56 0.970 . S
H46 C56 0.970 . S
H47 C58 0.930 1_554 S
H48 C60 0.930 . S
H49 C62 0.930 1_554 S
C50 H42 0.930 . S
C50 C51 1.382 . S
C50 C52 1.426 . S
C51 C50 1.382 . S
C51 C55 1.389 . S
C52 C50 1.426 . S
C52 C53 1.375 . S
C52 C56 1.532 . S
C53 H43 0.930 . S
C53 C52 1.375 . S
C53 C54 1.416 . S
C54 C53 1.416 . S
C54 C55 1.371 . S
C55 H44 0.930 . S
C55 C51 1.389 . S
C55 C54 1.371 . S
C56 H45 0.970 . S
C56 H46 0.970 . S
C56 C52 1.532 . S
C56 C57 1.499 . S
C57 C56 1.499 . S
C57 C58 1.370 1_554 S
C57 C62 1.415 1_554 S
C58 H47 0.930 1_556 S
C58 C57 1.370 1_556 S
C58 C59 1.407 . S
C59 C58 1.407 . S
C59 C60 1.365 . S
C60 H48 0.930 . S
C60 C59 1.365 . S
C60 C61 1.393 . S
C61 C60 1.393 . S
C61 C62 1.387 . S
C62 H49 0.930 1_556 S
C62 C57 1.415 1_556 S
C62 C61 1.387 . S
H63 C71 0.930 1_455 S
H64 C74 0.930 1_455 S
H65 C76 0.930 . S
H66 C77 0.970 . S
H67 C77 0.970 . S
H68 C79 0.930 . S
H69 C81 0.930 . S
H70 C83 0.930 . S
C71 H63 0.930 1_655 S
C71 C72 1.382 . S
C71 C73 1.426 1_655 S
C72 C71 1.382 . S
C72 C76 1.389 . S
C73 C71 1.426 1_455 S
C73 C74 1.375 1_455 S
C73 C77 1.532 . S
C74 H64 0.930 1_655 S
C74 C73 1.375 1_655 S
C74 C75 1.416 . S
C75 C74 1.416 . S
C75 C76 1.371 . S
C76 H65 0.930 . S
C76 C72 1.389 . S
C76 C75 1.371 . S
C77 H66 0.970 . S
C77 H67 0.970 . S
C77 C73 1.532 . S
C77 C78 1.499 . S
C78 C77 1.499 . S
C78 C79 1.370 . S
C78 C83 1.415 . S
C79 H68 0.930 . S
C79 C78 1.370 . S
C79 C80 1.407 . S
C80 C79 1.407 . S
C80 C81 1.365 . S
C81 H69 0.930 . S
C81 C80 1.365 . S
C81 C82 1.393 . S
C82 C81 1.393 . S
C82 C83 1.387 . S
C83 H70 0.930 . S
C83 C78 1.415 . S
C83 C82 1.387 . S
H84 C92 0.930 . S
H85 C95 0.930 . S
H86 C97 0.930 . S
H87 C98 0.970 . S
H88 C98 0.970 . S
H89 C100 0.930 . S
H90 C102 0.930 . S
H91 C104 0.930 . S
C92 H84 0.930 . S
C92 C93 1.382 . S
C92 C94 1.426 . S
C93 C92 1.382 . S
C93 C97 1.389 . S
C94 C92 1.426 . S
C94 C95 1.375 . S
C94 C98 1.532 1_554 S
C95 H85 0.930 . S
C95 C94 1.375 . S
C95 C96 1.416 . S
C96 C95 1.416 . S
C96 C97 1.371 . S
C97 H86 0.930 . S
C97 C93 1.389 . S
C97 C96 1.371 . S
C98 H87 0.970 . S
C98 H88 0.970 . S
C98 C94 1.532 1_556 S
C98 C99 1.499 . S
C99 C98 1.499 . S
C99 C100 1.370 1_565 S
C99 C104 1.415 1_565 S
C100 H89 0.930 . S
C100 C99 1.370 1_545 S
C100 C101 1.407 . S
C101 C100 1.407 . S
C101 C102 1.365 . S
C102 H90 0.930 . S
C102 C101 1.365 . S
C102 C103 1.393 . S
C103 C102 1.393 . S
C103 C104 1.387 . S
C104 H91 0.930 . S
C104 C99 1.415 1_545 S
C104 C103 1.387 . S
H105 C113 0.930 . S
H106 C116 0.930 . S
H107 C118 0.930 . S
H108 C119 0.970 . S
H109 C119 0.970 . S
H110 C121 0.930 . S
H111 C123 0.930 . S
H112 C125 0.930 . S
C113 H105 0.930 . S
C113 C114 1.382 . S
C113 C115 1.426 . S
C114 C113 1.382 . S
C114 C118 1.389 . S
C115 C113 1.426 . S
C115 C116 1.375 . S
C115 C119 1.532 . S
C116 H106 0.930 . S
C116 C115 1.375 . S
C116 C117 1.416 . S
C117 C116 1.416 . S
C117 C118 1.371 . S
C118 H107 0.930 . S
C118 C114 1.389 . S
C118 C117 1.371 . S
C119 H108 0.970 . S
C119 H109 0.970 . S
C119 C115 1.532 . S
C119 C120 1.499 . S
C120 C119 1.499 . S
C120 C121 1.370 . S
C120 C125 1.415 . S
C121 H110 0.930 . S
C121 C120 1.370 . S
C121 C122 1.407 . S
C122 C121 1.407 . S
C122 C123 1.365 . S
C123 H111 0.930 . S
C123 C122 1.365 . S
C123 C124 1.393 . S
C124 C123 1.393 . S
C124 C125 1.387 . S
C125 H112 0.930 . S
C125 C120 1.415 . S
C125 C124 1.387 . S
Mg126 O133 2.141 . S
Mg126 O134 2.048 . S
Mg126 O135 2.048 . S
Mg126 O138 2.141 . S
C127 O128 1.313 . S
C127 O134 1.195 . S
O128 C127 1.313 . S
C129 O130 1.245 . S
C129 O138 1.289 . S
O130 C129 1.245 . S
C131 O132 1.245 . S
C131 O133 1.289 . S
O132 C131 1.245 . S
O133 Mg126 2.141 . S
O133 C131 1.289 . S
O134 Mg126 2.048 . S
O134 C127 1.195 . S
O135 Mg126 2.048 . S
O135 C136 1.195 . S
C136 O135 1.195 . S
C136 O137 1.313 . S
O137 C136 1.313 . S
O138 Mg126 2.141 . S
O138 C129 1.289 . S
Mg139 O146 2.141 . S
Mg139 O147 2.048 . S
Mg139 O148 2.048 . S
Mg139 O151 2.141 . S
C140 O141 1.313 . S
C140 O147 1.195 . S
O141 C140 1.313 . S
C142 O143 1.245 . S
C142 O151 1.289 . S
O143 C142 1.245 . S
C144 O145 1.245 . S
C144 O146 1.289 . S
O145 C144 1.245 . S
O146 Mg139 2.141 . S
O146 C144 1.289 . S
O147 Mg139 2.048 . S
O147 C140 1.195 . S
O148 Mg139 2.048 . S
O148 C149 1.195 . S
C149 O148 1.195 . S
C149 O150 1.313 . S
O150 C149 1.313 . S
O151 Mg139 2.141 . S
O151 C142 1.289 . S
Mg152 O159 2.141 . S
Mg152 O160 2.048 . S
Mg152 O161 2.048 . S
Mg152 O164 2.141 . S
C153 O154 1.313 . S
C153 O160 1.195 . S
O154 C153 1.313 . S
C155 O156 1.245 . S
C155 O164 1.289 . S
O156 C155 1.245 . S
C157 O158 1.245 . S
C157 O159 1.289 . S
O158 C157 1.245 . S
O159 Mg152 2.141 . S
O159 C157 1.289 . S
O160 Mg152 2.048 . S
O160 C153 1.195 . S
O161 Mg152 2.048 . S
O161 C162 1.195 . S
C162 O161 1.195 . S
C162 O163 1.313 . S
O163 C162 1.313 . S
O164 Mg152 2.141 . S
O164 C155 1.289 . S
Mg165 O172 2.141 . S
Mg165 O173 2.048 . S
Mg165 O174 2.048 . S
Mg165 O177 2.141 . S
C166 O167 1.313 . S
C166 O173 1.195 . S
O167 C166 1.313 . S
C168 O169 1.245 . S
C168 O177 1.289 . S
O169 C168 1.245 . S
C170 O171 1.245 . S
C170 O172 1.289 . S
O171 C170 1.245 . S
O172 Mg165 2.141 . S
O172 C170 1.289 . S
O173 Mg165 2.048 . S
O173 C166 1.195 . S
O174 Mg165 2.048 . S
O174 C175 1.195 . S
C175 O174 1.195 . S
C175 O176 1.313 . S
O176 C175 1.313 . S
O177 Mg165 2.141 . S
O177 C168 1.289 . S
Mg178 O185 2.141 . S
Mg178 O186 2.048 . S
Mg178 O187 2.048 . S
Mg178 O190 2.141 . S
C179 O180 1.313 . S
C179 O186 1.195 . S
O180 C179 1.313 . S
C181 O182 1.245 . S
C181 O190 1.289 . S
O182 C181 1.245 . S
C183 O184 1.245 . S
C183 O185 1.289 . S
O184 C183 1.245 . S
O185 Mg178 2.141 . S
O185 C183 1.289 . S
O186 Mg178 2.048 . S
O186 C179 1.195 . S
O187 Mg178 2.048 . S
O187 C188 1.195 . S
C188 O187 1.195 . S
C188 O189 1.313 . S
O189 C188 1.313 . S
O190 Mg178 2.141 . S
O190 C181 1.289 . S
Mg191 O198 2.141 . S
Mg191 O199 2.048 . S
Mg191 O200 2.048 . S
Mg191 O203 2.141 . S
C192 O193 1.313 . S
C192 O199 1.195 . S
O193 C192 1.313 . S
C194 O195 1.245 . S
C194 O203 1.289 . S
O195 C194 1.245 . S
C196 O197 1.245 . S
C196 O198 1.289 . S
O197 C196 1.245 . S
O198 Mg191 2.141 . S
O198 C196 1.289 . S
O199 Mg191 2.048 . S
O199 C192 1.195 . S
O200 Mg191 2.048 . S
O200 C201 1.195 . S
C201 O200 1.195 . S
C201 O202 1.313 . S
O202 C201 1.313 . S
O203 Mg191 2.141 . S
O203 C194 1.289 . S
C204 C205 1.349 . S
C204 C206 1.327 . S
C204 H229 0.950 . S
C205 C204 1.349 . S
C205 C221 1.349 . S
C206 C204 1.327 . S
C206 C225 1.429 . S
C206 H230 0.950 . S
C207 C224 1.574 . S
C207 C226 1.368 . S
C207 H231 0.949 . S
H208 C212 0.949 . S
C209 C210 1.349 . S
C209 C211 1.327 . S
C209 H232 0.950 . S
C210 C209 1.349 . S
C210 C222 1.349 . S
C211 C209 1.327 . S
C211 C227 1.429 . S
C211 H233 0.950 . S
C212 H208 0.949 . S
C212 C220 1.574 . S
C212 C228 1.368 . S
H213 C221 0.950 . S
H214 C219 0.950 . S
H215 C220 0.949 . S
H216 C222 0.950 . S
H217 C223 0.950 . S
H218 C224 0.949 . S
C219 H214 0.950 . S
C219 C221 1.327 . S
C219 C225 1.429 . S
C220 C212 1.574 . S
C220 H215 0.949 . S
C220 C226 1.368 . S
C221 C205 1.349 . S
C221 H213 0.950 . S
C221 C219 1.327 . S
C222 C210 1.349 . S
C222 H216 0.950 . S
C222 C223 1.327 . S
C223 H217 0.950 . S
C223 C222 1.327 . S
C223 C227 1.429 . S
C224 C207 1.574 . S
C224 H218 0.949 . S
C224 C228 1.368 . S
C225 C206 1.429 . S
C225 C219 1.429 . S
C225 C226 1.523 . S
C226 C207 1.368 . S
C226 C220 1.368 . S
C226 C225 1.523 . S
C227 C211 1.429 . S
C227 C223 1.429 . S
C227 C228 1.523 . S
C228 C212 1.368 . S
C228 C224 1.368 . S
C228 C227 1.523 . S
H229 C204 0.950 . S
H230 C206 0.950 . S
H231 C207 0.949 . S
H232 C209 0.950 . S
H233 C211 0.950 . S
C234 C235 1.349 . S
C234 C236 1.327 . S
C234 H259 0.950 . S
C235 C234 1.349 . S
C235 C251 1.349 . S
C236 C234 1.327 . S
C236 C255 1.429 . S
C236 H260 0.950 . S
C237 C254 1.574 . S
C237 C256 1.368 . S
C237 H261 0.949 . S
H238 C242 0.949 . S
C239 C240 1.349 . S
C239 C241 1.327 . S
C239 H262 0.950 . S
C240 C239 1.349 . S
C240 C252 1.349 . S
C241 C239 1.327 . S
C241 C257 1.429 . S
C241 H263 0.950 . S
C242 H238 0.949 . S
C242 C250 1.574 . S
C242 C258 1.368 . S
H243 C251 0.950 . S
H244 C249 0.950 . S
H245 C250 0.949 . S
H246 C252 0.950 . S
H247 C253 0.950 . S
H248 C254 0.949 . S
C249 H244 0.950 . S
C249 C251 1.327 . S
C249 C255 1.429 . S
C250 C242 1.574 . S
C250 H245 0.949 . S
C250 C256 1.368 . S
C251 C235 1.349 . S
C251 H243 0.950 . S
C251 C249 1.327 . S
C252 C240 1.349 . S
C252 H246 0.950 . S
C252 C253 1.327 . S
C253 H247 0.950 . S
C253 C252 1.327 . S
C253 C257 1.429 . S
C254 C237 1.574 . S
C254 H248 0.949 . S
C254 C258 1.368 . S
C255 C236 1.429 . S
C255 C249 1.429 . S
C255 C256 1.523 . S
C256 C237 1.368 . S
C256 C250 1.368 . S
C256 C255 1.523 . S
C257 C241 1.429 . S
C257 C253 1.429 . S
C257 C258 1.523 . S
C258 C242 1.368 . S
C258 C254 1.368 . S
C258 C257 1.523 . S
H259 C234 0.950 . S
H260 C236 0.950 . S
H261 C237 0.949 . S
H262 C239 0.950 . S
H263 C241 0.950 . S
C264 C265 1.349 . S
C264 C266 1.327 . S
C264 H289 0.950 . S
C265 C264 1.349 . S
C265 C281 1.349 . S
C266 C264 1.327 . S
C266 C285 1.429 . S
C266 H290 0.950 . S
C267 C284 1.574 . S
C267 C286 1.368 . S
C267 H291 0.949 . S
H268 C272 0.949 . S
C269 C270 1.349 . S
C269 C271 1.327 . S
C269 H292 0.950 . S
C270 C269 1.349 . S
C270 C282 1.349 . S
C271 C269 1.327 . S
C271 C287 1.429 . S
C271 H293 0.950 . S
C272 H268 0.949 . S
C272 C280 1.574 . S
C272 C288 1.368 . S
H273 C281 0.950 . S
H274 C279 0.950 . S
H275 C280 0.949 . S
H276 C282 0.950 . S
H277 C283 0.950 . S
H278 C284 0.949 . S
C279 H274 0.950 . S
C279 C281 1.327 . S
C279 C285 1.429 . S
C280 C272 1.574 . S
C280 H275 0.949 . S
C280 C286 1.368 . S
C281 C265 1.349 . S
C281 H273 0.950 . S
C281 C279 1.327 . S
C282 C270 1.349 . S
C282 H276 0.950 . S
C282 C283 1.327 . S
C283 H277 0.950 . S
C283 C282 1.327 . S
C283 C287 1.429 . S
C284 C267 1.574 . S
C284 H278 0.949 . S
C284 C288 1.368 . S
C285 C266 1.429 . S
C285 C279 1.429 . S
C285 C286 1.523 . S
C286 C267 1.368 . S
C286 C280 1.368 . S
C286 C285 1.523 . S
C287 C271 1.429 . S
C287 C283 1.429 . S
C287 C288 1.523 . S
C288 C272 1.368 . S
C288 C284 1.368 . S
C288 C287 1.523 . S
H289 C264 0.950 . S
H290 C266 0.950 . S
H291 C267 0.949 . S
H292 C269 0.950 . S
H293 C271 0.950 . S
C294 C295 1.349 . S
C294 C296 1.327 . S
C294 H319 0.950 . S
C295 C294 1.349 . S
C295 C311 1.349 . S
C296 C294 1.327 . S
C296 C315 1.429 . S
C296 H320 0.950 . S
C297 C314 1.574 . S
C297 C316 1.368 . S
C297 H321 0.949 . S
H298 C302 0.949 . S
C299 C300 1.349 . S
C299 C301 1.327 . S
C299 H322 0.950 . S
C300 C299 1.349 . S
C300 C312 1.349 . S
C301 C299 1.327 . S
C301 C317 1.429 . S
C301 H323 0.950 . S
C302 H298 0.949 . S
C302 C310 1.574 . S
C302 C318 1.368 . S
H303 C311 0.950 . S
H304 C309 0.950 . S
H305 C310 0.949 . S
H306 C312 0.950 . S
H307 C313 0.950 . S
H308 C314 0.949 . S
C309 H304 0.950 . S
C309 C311 1.327 . S
C309 C315 1.429 . S
C310 C302 1.574 . S
C310 H305 0.949 . S
C310 C316 1.368 . S
C311 C295 1.349 . S
C311 H303 0.950 . S
C311 C309 1.327 . S
C312 C300 1.349 . S
C312 H306 0.950 . S
C312 C313 1.327 . S
C313 H307 0.950 . S
C313 C312 1.327 . S
C313 C317 1.429 . S
C314 C297 1.574 . S
C314 H308 0.949 . S
C314 C318 1.368 . S
C315 C296 1.429 . S
C315 C309 1.429 . S
C315 C316 1.523 . S
C316 C297 1.368 . S
C316 C310 1.368 . S
C316 C315 1.523 . S
C317 C301 1.429 . S
C317 C313 1.429 . S
C317 C318 1.523 . S
C318 C302 1.368 . S
C318 C314 1.368 . S
C318 C317 1.523 . S
H319 C294 0.950 . S
H320 C296 0.950 . S
H321 C297 0.949 . S
H322 C299 0.950 . S
H323 C301 0.950 . S
C324 C325 1.349 . S
C324 C326 1.327 . S
C324 H349 0.950 . S
C325 C324 1.349 . S
C325 C341 1.349 . S
C326 C324 1.327 . S
C326 C345 1.429 . S
C326 H350 0.950 . S
C327 C344 1.574 . S
C327 C346 1.368 . S
C327 H351 0.949 . S
H328 C332 0.949 . S
C329 C330 1.349 . S
C329 C331 1.327 . S
C329 H352 0.950 . S
C330 C329 1.349 . S
C330 C342 1.349 . S
C331 C329 1.327 . S
C331 C347 1.429 . S
C331 H353 0.950 . S
C332 H328 0.949 . S
C332 C340 1.574 . S
C332 C348 1.368 . S
H333 C341 0.950 . S
H334 C339 0.950 . S
H335 C340 0.949 . S
H336 C342 0.950 . S
H337 C343 0.950 . S
H338 C344 0.949 . S
C339 H334 0.950 . S
C339 C341 1.327 . S
C339 C345 1.429 . S
C340 C332 1.574 . S
C340 H335 0.949 . S
C340 C346 1.368 . S
C341 C325 1.349 . S
C341 H333 0.950 . S
C341 C339 1.327 . S
C342 C330 1.349 . S
C342 H336 0.950 . S
C342 C343 1.327 . S
C343 H337 0.950 . S
C343 C342 1.327 . S
C343 C347 1.429 . S
C344 C327 1.574 . S
C344 H338 0.949 . S
C344 C348 1.368 . S
C345 C326 1.429 . S
C345 C339 1.429 . S
C345 C346 1.523 . S
C346 C327 1.368 . S
C346 C340 1.368 . S
C346 C345 1.523 . S
C347 C331 1.429 . S
C347 C343 1.429 . S
C347 C348 1.523 . S
C348 C332 1.368 . S
C348 C344 1.368 . S
C348 C347 1.523 . S
H349 C324 0.950 . S
H350 C326 0.950 . S
H351 C327 0.949 . S
H352 C329 0.950 . S
H353 C331 0.950 . S
C354 C355 1.349 . S
C354 C356 1.327 . S
C354 H379 0.950 . S
C355 C354 1.349 . S
C355 C371 1.349 . S
C356 C354 1.327 . S
C356 C375 1.429 . S
C356 H380 0.950 . S
C357 C374 1.574 . S
C357 C376 1.368 . S
C357 H381 0.949 . S
H358 C362 0.949 . S
C359 C360 1.349 . S
C359 C361 1.327 . S
C359 H382 0.950 . S
C360 C359 1.349 . S
C360 C372 1.349 . S
C361 C359 1.327 . S
C361 C377 1.429 . S
C361 H383 0.950 . S
C362 H358 0.949 . S
C362 C370 1.574 . S
C362 C378 1.368 . S
H363 C371 0.950 . S
H364 C369 0.950 . S
H365 C370 0.949 . S
H366 C372 0.950 . S
H367 C373 0.950 . S
H368 C374 0.949 . S
C369 H364 0.950 . S
C369 C371 1.327 . S
C369 C375 1.429 . S
C370 C362 1.574 . S
C370 H365 0.949 . S
C370 C376 1.368 . S
C371 C355 1.349 . S
C371 H363 0.950 . S
C371 C369 1.327 . S
C372 C360 1.349 . S
C372 H366 0.950 . S
C372 C373 1.327 . S
C373 H367 0.950 . S
C373 C372 1.327 . S
C373 C377 1.429 . S
C374 C357 1.574 . S
C374 H368 0.949 . S
C374 C378 1.368 . S
C375 C356 1.429 . S
C375 C369 1.429 . S
C375 C376 1.523 . S
C376 C357 1.368 . S
C376 C370 1.368 . S
C376 C375 1.523 . S
C377 C361 1.429 . S
C377 C373 1.429 . S
C377 C378 1.523 . S
C378 C362 1.368 . S
C378 C374 1.368 . S
C378 C377 1.523 . S
H379 C354 0.950 . S
H380 C356 0.950 . S
H381 C357 0.949 . S
H382 C359 0.950 . S
H383 C361 0.950 . S
C384 C385 1.349 . S
C384 C386 1.327 . S
C384 H409 0.950 . S
C385 C384 1.349 . S
C385 C401 1.349 . S
C386 C384 1.327 . S
C386 C405 1.429 . S
C386 H410 0.950 . S
C387 C404 1.574 . S
C387 C406 1.368 . S
C387 H411 0.949 . S
H388 C392 0.949 . S
C389 C390 1.349 . S
C389 C391 1.327 . S
C389 H412 0.950 . S
C390 C389 1.349 . S
C390 C402 1.349 . S
C391 C389 1.327 . S
C391 C407 1.429 . S
C391 H413 0.950 . S
C392 H388 0.949 . S
C392 C400 1.574 . S
C392 C408 1.368 . S
H393 C401 0.950 . S
H394 C399 0.950 . S
H395 C400 0.949 . S
H396 C402 0.950 . S
H397 C403 0.950 . S
H398 C404 0.949 . S
C399 H394 0.950 . S
C399 C401 1.327 . S
C399 C405 1.429 . S
C400 C392 1.574 . S
C400 H395 0.949 . S
C400 C406 1.368 . S
C401 C385 1.349 . S
C401 H393 0.950 . S
C401 C399 1.327 . S
C402 C390 1.349 . S
C402 H396 0.950 . S
C402 C403 1.327 . S
C403 H397 0.950 . S
C403 C402 1.327 . S
C403 C407 1.429 . S
C404 C387 1.574 . S
C404 H398 0.949 . S
C404 C408 1.368 . S
C405 C386 1.429 . S
C405 C399 1.429 . S
C405 C406 1.523 . S
C406 C387 1.368 . S
C406 C400 1.368 . S
C406 C405 1.523 . S
C407 C391 1.429 . S
C407 C403 1.429 . S
C407 C408 1.523 . S
C408 C392 1.368 . S
C408 C404 1.368 . S
C408 C407 1.523 . S
H409 C384 0.950 . S
H410 C386 0.950 . S
H411 C387 0.949 . S
H412 C389 0.950 . S
H413 C391 0.950 . S
C414 C415 1.349 . S
C414 C416 1.327 . S
C414 H439 0.950 . S
C415 C414 1.349 . S
C415 C431 1.349 . S
C416 C414 1.327 . S
C416 C435 1.429 . S
C416 H440 0.950 . S
C417 C434 1.574 . S
C417 C436 1.368 . S
C417 H441 0.949 . S
H418 C422 0.949 . S
C419 C420 1.349 . S
C419 C421 1.327 . S
C419 H442 0.950 . S
C420 C419 1.349 . S
C420 C432 1.349 . S
C421 C419 1.327 . S
C421 C437 1.429 . S
C421 H443 0.950 . S
C422 H418 0.949 . S
C422 C430 1.574 . S
C422 C438 1.368 . S
H423 C431 0.950 . S
H424 C429 0.950 . S
H425 C430 0.949 . S
H426 C432 0.950 . S
H427 C433 0.950 . S
H428 C434 0.949 . S
C429 H424 0.950 . S
C429 C431 1.327 . S
C429 C435 1.429 . S
C430 C422 1.574 . S
C430 H425 0.949 . S
C430 C436 1.368 . S
C431 C415 1.349 . S
C431 H423 0.950 . S
C431 C429 1.327 . S
C432 C420 1.349 . S
C432 H426 0.950 . S
C432 C433 1.327 . S
C433 H427 0.950 . S
C433 C432 1.327 . S
C433 C437 1.429 . S
C434 C417 1.574 . S
C434 H428 0.949 . S
C434 C438 1.368 . S
C435 C416 1.429 . S
C435 C429 1.429 . S
C435 C436 1.523 . S
C436 C417 1.368 . S
C436 C430 1.368 . S
C436 C435 1.523 . S
C437 C421 1.429 . S
C437 C433 1.429 . S
C437 C438 1.523 . S
C438 C422 1.368 . S
C438 C434 1.368 . S
C438 C437 1.523 . S
H439 C414 0.950 . S
H440 C416 0.950 . S
H441 C417 0.949 . S
H442 C419 0.950 . S
H443 C421 0.950 . S
C444 C445 1.349 . S
C444 C446 1.327 . S
C444 H469 0.950 . S
C445 C444 1.349 . S
C445 C461 1.349 . S
C446 C444 1.327 . S
C446 C465 1.429 . S
C446 H470 0.950 . S
C447 C464 1.574 . S
C447 C466 1.368 . S
C447 H471 0.949 . S
H448 C452 0.949 . S
C449 C450 1.349 . S
C449 C451 1.327 . S
C449 H472 0.950 . S
C450 C449 1.349 . S
C450 C462 1.349 . S
C451 C449 1.327 . S
C451 C467 1.429 . S
C451 H473 0.950 . S
C452 H448 0.949 . S
C452 C460 1.574 . S
C452 C468 1.368 . S
H453 C461 0.950 . S
H454 C459 0.950 . S
H455 C460 0.949 . S
H456 C462 0.950 . S
H457 C463 0.950 . S
H458 C464 0.949 . S
C459 H454 0.950 . S
C459 C461 1.327 . S
C459 C465 1.429 . S
C460 C452 1.574 . S
C460 H455 0.949 . S
C460 C466 1.368 . S
C461 C445 1.349 . S
C461 H453 0.950 . S
C461 C459 1.327 . S
C462 C450 1.349 . S
C462 H456 0.950 . S
C462 C463 1.327 . S
C463 H457 0.950 . S
C463 C462 1.327 . S
C463 C467 1.429 . S
C464 C447 1.574 . S
C464 H458 0.949 . S
C464 C468 1.368 . S
C465 C446 1.429 . S
C465 C459 1.429 . S
C465 C466 1.523 . S
C466 C447 1.368 . S
C466 C460 1.368 . S
C466 C465 1.523 . S
C467 C451 1.429 . S
C467 C463 1.429 . S
C467 C468 1.523 . S
C468 C452 1.368 . S
C468 C464 1.368 . S
C468 C467 1.523 . S
H469 C444 0.950 . S
H470 C446 0.950 . S
H471 C447 0.949 . S
H472 C449 0.950 . S
H473 C451 0.950 . S
C474 C475 1.349 . S
C474 C476 1.327 . S
C474 H499 0.950 . S
C475 C474 1.349 . S
C475 C491 1.349 . S
C476 C474 1.327 . S
C476 C495 1.429 . S
C476 H500 0.950 . S
C477 C494 1.574 . S
C477 C496 1.368 . S
C477 H501 0.949 . S
H478 C482 0.949 . S
C479 C480 1.349 . S
C479 C481 1.327 . S
C479 H502 0.950 . S
C480 C479 1.349 . S
C480 C492 1.349 . S
C481 C479 1.327 . S
C481 C497 1.429 . S
C481 H503 0.950 . S
C482 H478 0.949 . S
C482 C490 1.574 . S
C482 C498 1.368 . S
H483 C491 0.950 . S
H484 C489 0.950 . S
H485 C490 0.949 . S
H486 C492 0.950 . S
H487 C493 0.950 . S
H488 C494 0.949 . S
C489 H484 0.950 . S
C489 C491 1.327 . S
C489 C495 1.429 . S
C490 C482 1.574 . S
C490 H485 0.949 . S
C490 C496 1.368 . S
C491 C475 1.349 . S
C491 H483 0.950 . S
C491 C489 1.327 . S
C492 C480 1.349 . S
C492 H486 0.950 . S
C492 C493 1.327 . S
C493 H487 0.950 . S
C493 C492 1.327 . S
C493 C497 1.429 . S
C494 C477 1.574 . S
C494 H488 0.949 . S
C494 C498 1.368 . S
C495 C476 1.429 . S
C495 C489 1.429 . S
C495 C496 1.523 . S
C496 C477 1.368 . S
C496 C490 1.368 . S
C496 C495 1.523 . S
C497 C481 1.429 . S
C497 C493 1.429 . S
C497 C498 1.523 . S
C498 C482 1.368 . S
C498 C494 1.368 . S
C498 C497 1.523 . S
H499 C474 0.950 . S
H500 C476 0.950 . S
H501 C477 0.949 . S
H502 C479 0.950 . S
H503 C481 0.950 . S
C504 C505 1.349 . S
C504 C506 1.327 . S
C504 H529 0.950 . S
C505 C504 1.349 . S
C505 C521 1.349 . S
C506 C504 1.327 . S
C506 C525 1.429 . S
C506 H530 0.950 . S
C507 C524 1.574 . S
C507 C526 1.368 . S
C507 H531 0.949 . S
H508 C512 0.949 . S
C509 C510 1.349 . S
C509 C511 1.327 . S
C509 H532 0.950 . S
C510 C509 1.349 . S
C510 C522 1.349 . S
C511 C509 1.327 . S
C511 C527 1.429 . S
C511 H533 0.950 . S
C512 H508 0.949 . S
C512 C520 1.574 . S
C512 C528 1.368 . S
H513 C521 0.950 . S
H514 C519 0.950 . S
H515 C520 0.949 . S
H516 C522 0.950 . S
H517 C523 0.950 . S
H518 C524 0.949 . S
C519 H514 0.950 . S
C519 C521 1.327 . S
C519 C525 1.429 . S
C520 C512 1.574 . S
C520 H515 0.949 . S
C520 C526 1.368 . S
C521 C505 1.349 . S
C521 H513 0.950 . S
C521 C519 1.327 . S
C522 C510 1.349 . S
C522 H516 0.950 . S
C522 C523 1.327 . S
C523 H517 0.950 . S
C523 C522 1.327 . S
C523 C527 1.429 . S
C524 C507 1.574 . S
C524 H518 0.949 . S
C524 C528 1.368 . S
C525 C506 1.429 . S
C525 C519 1.429 . S
C525 C526 1.523 . S
C526 C507 1.368 . S
C526 C520 1.368 . S
C526 C525 1.523 . S
C527 C511 1.429 . S
C527 C523 1.429 . S
C527 C528 1.523 . S
C528 C512 1.368 . S
C528 C524 1.368 . S
C528 C527 1.523 . S
H529 C504 0.950 . S
H530 C506 0.950 . S
H531 C507 0.949 . S
H532 C509 0.950 . S
H533 C511 0.950 . S
C534 C535 1.349 . S
C534 C536 1.327 . S
C534 H559 0.950 . S
C535 C534 1.349 . S
C535 C551 1.349 . S
C536 C534 1.327 . S
C536 C555 1.429 . S
C536 H560 0.950 . S
C537 C554 1.574 . S
C537 C556 1.368 . S
C537 H561 0.949 . S
H538 C542 0.949 . S
C539 C540 1.349 . S
C539 C541 1.327 . S
C539 H562 0.950 . S
C540 C539 1.349 . S
C540 C552 1.349 . S
C541 C539 1.327 . S
C541 C557 1.429 . S
C541 H563 0.950 . S
C542 H538 0.949 . S
C542 C550 1.574 . S
C542 C558 1.368 . S
H543 C551 0.950 . S
H544 C549 0.950 . S
H545 C550 0.949 . S
H546 C552 0.950 . S
H547 C553 0.950 . S
H548 C554 0.949 . S
C549 H544 0.950 . S
C549 C551 1.327 . S
C549 C555 1.429 . S
C550 C542 1.574 . S
C550 H545 0.949 . S
C550 C556 1.368 . S
C551 C535 1.349 . S
C551 H543 0.950 . S
C551 C549 1.327 . S
C552 C540 1.349 . S
C552 H546 0.950 . S
C552 C553 1.327 . S
C553 H547 0.950 . S
C553 C552 1.327 . S
C553 C557 1.429 . S
C554 C537 1.574 . S
C554 H548 0.949 . S
C554 C558 1.368 . S
C555 C536 1.429 . S
C555 C549 1.429 . S
C555 C556 1.523 . S
C556 C537 1.368 . S
C556 C550 1.368 . S
C556 C555 1.523 . S
C557 C541 1.429 . S
C557 C553 1.429 . S
C557 C558 1.523 . S
C558 C542 1.368 . S
C558 C554 1.368 . S
C558 C557 1.523 . S
H559 C534 0.950 . S
H560 C536 0.950 . S
H561 C537 0.949 . S
H562 C539 0.950 . S
H563 C541 0.950 . S
C564 C565 1.349 . S
C564 C566 1.327 . S
C564 H589 0.950 . S
C565 C564 1.349 . S
C565 C581 1.349 . S
C566 C564 1.327 . S
C566 C585 1.429 . S
C566 H590 0.950 . S
C567 C584 1.574 . S
C567 C586 1.368 . S
C567 H591 0.949 . S
H568 C572 0.949 . S
C569 C570 1.349 . S
C569 C571 1.327 . S
C569 H592 0.950 . S
C570 C569 1.349 . S
C570 C582 1.349 . S
C571 C569 1.327 . S
C571 C587 1.429 . S
C571 H593 0.950 . S
C572 H568 0.949 . S
C572 C580 1.574 . S
C572 C588 1.368 . S
H573 C581 0.950 . S
H574 C579 0.950 . S
H575 C580 0.949 . S
H576 C582 0.950 . S
H577 C583 0.950 . S
H578 C584 0.949 . S
C579 H574 0.950 . S
C579 C581 1.327 . S
C579 C585 1.429 . S
C580 C572 1.574 . S
C580 H575 0.949 . S
C580 C586 1.368 . S
C581 C565 1.349 . S
C581 H573 0.950 . S
C581 C579 1.327 . S
C582 C570 1.349 . S
C582 H576 0.950 . S
C582 C583 1.327 . S
C583 H577 0.950 . S
C583 C582 1.327 . S
C583 C587 1.429 . S
C584 C567 1.574 . S
C584 H578 0.949 . S
C584 C588 1.368 . S
C585 C566 1.429 . S
C585 C579 1.429 . S
C585 C586 1.523 . S
C586 C567 1.368 . S
C586 C580 1.368 . S
C586 C585 1.523 . S
C587 C571 1.429 . S
C587 C583 1.429 . S
C587 C588 1.523 . S
C588 C572 1.368 . S
C588 C584 1.368 . S
C588 C587 1.523 . S
H589 C564 0.950 . S
H590 C566 0.950 . S
H591 C567 0.949 . S
H592 C569 0.950 . S
H593 C571 0.950 . S
C594 C595 1.349 . S
C594 C596 1.327 . S
C594 H619 0.950 . S
C595 C594 1.349 . S
C595 C611 1.349 . S
C596 C594 1.327 . S
C596 C615 1.429 . S
C596 H620 0.950 . S
C597 C614 1.574 . S
C597 C616 1.368 . S
C597 H621 0.949 . S
H598 C602 0.949 . S
C599 C600 1.349 . S
C599 C601 1.327 . S
C599 H622 0.950 . S
C600 C599 1.349 . S
C600 C612 1.349 . S
C601 C599 1.327 . S
C601 C617 1.429 . S
C601 H623 0.950 . S
C602 H598 0.949 . S
C602 C610 1.574 . S
C602 C618 1.368 . S
H603 C611 0.950 . S
H604 C609 0.950 . S
H605 C610 0.949 . S
H606 C612 0.950 . S
H607 C613 0.950 . S
H608 C614 0.949 . S
C609 H604 0.950 . S
C609 C611 1.327 . S
C609 C615 1.429 . S
C610 C602 1.574 . S
C610 H605 0.949 . S
C610 C616 1.368 . S
C611 C595 1.349 . S
C611 H603 0.950 . S
C611 C609 1.327 . S
C612 C600 1.349 . S
C612 H606 0.950 . S
C612 C613 1.327 . S
C613 H607 0.950 . S
C613 C612 1.327 . S
C613 C617 1.429 . S
C614 C597 1.574 . S
C614 H608 0.949 . S
C614 C618 1.368 . S
C615 C596 1.429 . S
C615 C609 1.429 . S
C615 C616 1.523 . S
C616 C597 1.368 . S
C616 C610 1.368 . S
C616 C615 1.523 . S
C617 C601 1.429 . S
C617 C613 1.429 . S
C617 C618 1.523 . S
C618 C602 1.368 . S
C618 C614 1.368 . S
C618 C617 1.523 . S
H619 C594 0.950 . S
H620 C596 0.950 . S
H621 C597 0.949 . S
H622 C599 0.950 . S
H623 C601 0.950 . S
C624 C625 1.349 . S
C624 C626 1.327 . S
C624 H649 0.950 . S
C625 C624 1.349 . S
C625 C641 1.349 . S
C626 C624 1.327 . S
C626 C645 1.429 . S
C626 H650 0.950 . S
C627 C644 1.574 . S
C627 C646 1.368 . S
C627 H651 0.949 . S
H628 C632 0.949 . S
C629 C630 1.349 . S
C629 C631 1.327 . S
C629 H652 0.950 . S
C630 C629 1.349 . S
C630 C642 1.349 . S
C631 C629 1.327 . S
C631 C647 1.429 . S
C631 H653 0.950 . S
C632 H628 0.949 . S
C632 C640 1.574 . S
C632 C648 1.368 . S
H633 C641 0.950 . S
H634 C639 0.950 . S
H635 C640 0.949 . S
H636 C642 0.950 . S
H637 C643 0.950 . S
H638 C644 0.949 . S
C639 H634 0.950 . S
C639 C641 1.327 . S
C639 C645 1.429 . S
C640 C632 1.574 . S
C640 H635 0.949 . S
C640 C646 1.368 . S
C641 C625 1.349 . S
C641 H633 0.950 . S
C641 C639 1.327 . S
C642 C630 1.349 . S
C642 H636 0.950 . S
C642 C643 1.327 . S
C643 H637 0.950 . S
C643 C642 1.327 . S
C643 C647 1.429 . S
C644 C627 1.574 . S
C644 H638 0.949 . S
C644 C648 1.368 . S
C645 C626 1.429 . S
C645 C639 1.429 . S
C645 C646 1.523 . S
C646 C627 1.368 . S
C646 C640 1.368 . S
C646 C645 1.523 . S
C647 C631 1.429 . S
C647 C643 1.429 . S
C647 C648 1.523 . S
C648 C632 1.368 . S
C648 C644 1.368 . S
C648 C647 1.523 . S
H649 C624 0.950 . S
H650 C626 0.950 . S
H651 C627 0.949 . S
H652 C629 0.950 . S
H653 C631 0.950 . S
C654 C655 1.349 . S
C654 C656 1.327 . S
C654 H679 0.950 . S
C655 C654 1.349 . S
C655 C671 1.349 . S
C656 C654 1.327 . S
C656 C675 1.429 . S
C656 H680 0.950 . S
C657 C674 1.574 . S
C657 C676 1.368 . S
C657 H681 0.949 . S
H658 C662 0.949 . S
C659 C660 1.349 . S
C659 C661 1.327 . S
C659 H682 0.950 . S
C660 C659 1.349 . S
C660 C672 1.349 . S
C661 C659 1.327 . S
C661 C677 1.429 . S
C661 H683 0.950 . S
C662 H658 0.949 . S
C662 C670 1.574 . S
C662 C678 1.368 . S
H663 C671 0.950 . S
H664 C669 0.950 . S
H665 C670 0.949 . S
H666 C672 0.950 . S
H667 C673 0.950 . S
H668 C674 0.949 . S
C669 H664 0.950 . S
C669 C671 1.327 . S
C669 C675 1.429 . S
C670 C662 1.574 . S
C670 H665 0.949 . S
C670 C676 1.368 . S
C671 C655 1.349 . S
C671 H663 0.950 . S
C671 C669 1.327 . S
C672 C660 1.349 . S
C672 H666 0.950 . S
C672 C673 1.327 . S
C673 H667 0.950 . S
C673 C672 1.327 . S
C673 C677 1.429 . S
C674 C657 1.574 . S
C674 H668 0.949 . S
C674 C678 1.368 . S
C675 C656 1.429 . S
C675 C669 1.429 . S
C675 C676 1.523 . S
C676 C657 1.368 . S
C676 C670 1.368 . S
C676 C675 1.523 . S
C677 C661 1.429 . S
C677 C673 1.429 . S
C677 C678 1.523 . S
C678 C662 1.368 . S
C678 C674 1.368 . S
C678 C677 1.523 . S
H679 C654 0.950 . S
H680 C656 0.950 . S
H681 C657 0.949 . S
H682 C659 0.950 . S
H683 C661 0.950 . S
C684 C685 1.349 . S
C684 C686 1.327 . S
C684 H709 0.950 . S
C685 C684 1.349 . S
C685 C701 1.349 . S
C686 C684 1.327 . S
C686 C705 1.429 . S
C686 H710 0.950 . S
C687 C704 1.574 . S
C687 C706 1.368 . S
C687 H711 0.949 . S
H688 C692 0.949 . S
C689 C690 1.349 . S
C689 C691 1.327 . S
C689 H712 0.950 . S
C690 C689 1.349 . S
C690 C702 1.349 . S
C691 C689 1.327 . S
C691 C707 1.429 . S
C691 H713 0.950 . S
C692 H688 0.949 . S
C692 C700 1.574 . S
C692 C708 1.368 . S
H693 C701 0.950 . S
H694 C699 0.950 . S
H695 C700 0.949 . S
H696 C702 0.950 . S
H697 C703 0.950 . S
H698 C704 0.949 . S
C699 H694 0.950 . S
C699 C701 1.327 . S
C699 C705 1.429 . S
C700 C692 1.574 . S
C700 H695 0.949 . S
C700 C706 1.368 . S
C701 C685 1.349 . S
C701 H693 0.950 . S
C701 C699 1.327 . S
C702 C690 1.349 . S
C702 H696 0.950 . S
C702 C703 1.327 . S
C703 H697 0.950 . S
C703 C702 1.327 . S
C703 C707 1.429 . S
C704 C687 1.574 . S
C704 H698 0.949 . S
C704 C708 1.368 . S
C705 C686 1.429 . S
C705 C699 1.429 . S
C705 C706 1.523 . S
C706 C687 1.368 . S
C706 C700 1.368 . S
C706 C705 1.523 . S
C707 C691 1.429 . S
C707 C703 1.429 . S
C707 C708 1.523 . S
C708 C692 1.368 . S
C708 C704 1.368 . S
C708 C707 1.523 . S
H709 C684 0.950 . S
H710 C686 0.950 . S
H711 C687 0.949 . S
H712 C689 0.950 . S
H713 C691 0.950 . S
C714 C715 1.349 . S
C714 C716 1.327 . S
C714 H739 0.950 . S
C715 C714 1.349 . S
C715 C731 1.349 . S
C716 C714 1.327 . S
C716 C735 1.429 . S
C716 H740 0.950 . S
C717 C734 1.574 . S
C717 C736 1.368 . S
C717 H741 0.949 . S
H718 C722 0.949 . S
C719 C720 1.349 . S
C719 C721 1.327 . S
C719 H742 0.950 . S
C720 C719 1.349 . S
C720 C732 1.349 . S
C721 C719 1.327 . S
C721 C737 1.429 . S
C721 H743 0.950 . S
C722 H718 0.949 . S
C722 C730 1.574 . S
C722 C738 1.368 . S
H723 C731 0.950 . S
H724 C729 0.950 . S
H725 C730 0.949 . S
H726 C732 0.950 . S
H727 C733 0.950 . S
H728 C734 0.949 . S
C729 H724 0.950 . S
C729 C731 1.327 . S
C729 C735 1.429 . S
C730 C722 1.574 . S
C730 H725 0.949 . S
C730 C736 1.368 . S
C731 C715 1.349 . S
C731 H723 0.950 . S
C731 C729 1.327 . S
C732 C720 1.349 . S
C732 H726 0.950 . S
C732 C733 1.327 . S
C733 H727 0.950 . S
C733 C732 1.327 . S
C733 C737 1.429 . S
C734 C717 1.574 . S
C734 H728 0.949 . S
C734 C738 1.368 . S
C735 C716 1.429 . S
C735 C729 1.429 . S
C735 C736 1.523 . S
C736 C717 1.368 . S
C736 C730 1.368 . S
C736 C735 1.523 . S
C737 C721 1.429 . S
C737 C733 1.429 . S
C737 C738 1.523 . S
C738 C722 1.368 . S
C738 C734 1.368 . S
C738 C737 1.523 . S
H739 C714 0.950 . S
H740 C716 0.950 . S
H741 C717 0.949 . S
H742 C719 0.950 . S
H743 C721 0.950 . S
C744 C745 1.349 . S
C744 C746 1.327 . S
C744 H769 0.950 . S
C745 C744 1.349 . S
C745 C761 1.349 . S
C746 C744 1.327 . S
C746 C765 1.429 . S
C746 H770 0.950 . S
C747 C764 1.574 . S
C747 C766 1.368 . S
C747 H771 0.949 . S
H748 C752 0.949 . S
C749 C750 1.349 . S
C749 C751 1.327 . S
C749 H772 0.950 . S
C750 C749 1.349 . S
C750 C762 1.349 . S
C751 C749 1.327 . S
C751 C767 1.429 . S
C751 H773 0.950 . S
C752 H748 0.949 . S
C752 C760 1.574 . S
C752 C768 1.368 . S
H753 C761 0.950 . S
H754 C759 0.950 . S
H755 C760 0.949 . S
H756 C762 0.950 . S
H757 C763 0.950 . S
H758 C764 0.949 . S
C759 H754 0.950 . S
C759 C761 1.327 . S
C759 C765 1.429 . S
C760 C752 1.574 . S
C760 H755 0.949 . S
C760 C766 1.368 . S
C761 C745 1.349 . S
C761 H753 0.950 . S
C761 C759 1.327 . S
C762 C750 1.349 . S
C762 H756 0.950 . S
C762 C763 1.327 . S
C763 H757 0.950 . S
C763 C762 1.327 . S
C763 C767 1.429 . S
C764 C747 1.574 . S
C764 H758 0.949 . S
C764 C768 1.368 . S
C765 C746 1.429 . S
C765 C759 1.429 . S
C765 C766 1.523 . S
C766 C747 1.368 . S
C766 C760 1.368 . S
C766 C765 1.523 . S
C767 C751 1.429 . S
C767 C763 1.429 . S
C767 C768 1.523 . S
C768 C752 1.368 . S
C768 C764 1.368 . S
C768 C767 1.523 . S
H769 C744 0.950 . S
H770 C746 0.950 . S
H771 C747 0.949 . S
H772 C749 0.950 . S
H773 C751 0.950 . S
C774 C775 1.349 . S
C774 C776 1.327 . S
C774 H799 0.950 . S
C775 C774 1.349 . S
C775 C791 1.349 . S
C776 C774 1.327 . S
C776 C795 1.429 . S
C776 H800 0.950 . S
C777 C794 1.574 . S
C777 C796 1.368 . S
C777 H801 0.949 . S
H778 C782 0.949 . S
C779 C780 1.349 . S
C779 C781 1.327 . S
C779 H802 0.950 . S
C780 C779 1.349 . S
C780 C792 1.349 . S
C781 C779 1.327 . S
C781 C797 1.429 . S
C781 H803 0.950 . S
C782 H778 0.949 . S
C782 C790 1.574 . S
C782 C798 1.368 . S
H783 C791 0.950 . S
H784 C789 0.950 . S
H785 C790 0.949 . S
H786 C792 0.950 . S
H787 C793 0.950 . S
H788 C794 0.949 . S
C789 H784 0.950 . S
C789 C791 1.327 . S
C789 C795 1.429 . S
C790 C782 1.574 . S
C790 H785 0.949 . S
C790 C796 1.368 . S
C791 C775 1.349 . S
C791 H783 0.950 . S
C791 C789 1.327 . S
C792 C780 1.349 . S
C792 H786 0.950 . S
C792 C793 1.327 . S
C793 H787 0.950 . S
C793 C792 1.327 . S
C793 C797 1.429 . S
C794 C777 1.574 . S
C794 H788 0.949 . S
C794 C798 1.368 . S
C795 C776 1.429 . S
C795 C789 1.429 . S
C795 C796 1.523 . S
C796 C777 1.368 . S
C796 C790 1.368 . S
C796 C795 1.523 . S
C797 C781 1.429 . S
C797 C793 1.429 . S
C797 C798 1.523 . S
C798 C782 1.368 . S
C798 C794 1.368 . S
C798 C797 1.523 . S
H799 C774 0.950 . S
H800 C776 0.950 . S
H801 C777 0.949 . S
H802 C779 0.950 . S
H803 C781 0.950 . S
C804 C805 1.349 . S
C804 C806 1.327 . S
C804 H829 0.950 . S
C805 C804 1.349 . S
C805 C821 1.349 . S
C806 C804 1.327 . S
C806 C825 1.429 . S
C806 H830 0.950 . S
C807 C824 1.574 . S
C807 C826 1.368 . S
C807 H831 0.949 . S
H808 C812 0.949 . S
C809 C810 1.349 . S
C809 C811 1.327 . S
C809 H832 0.950 . S
C810 C809 1.349 . S
C810 C822 1.349 . S
C811 C809 1.327 . S
C811 C827 1.429 . S
C811 H833 0.950 . S
C812 H808 0.949 . S
C812 C820 1.574 . S
C812 C828 1.368 . S
H813 C821 0.950 . S
H814 C819 0.950 . S
H815 C820 0.949 . S
H816 C822 0.950 . S
H817 C823 0.950 . S
H818 C824 0.949 . S
C819 H814 0.950 . S
C819 C821 1.327 . S
C819 C825 1.429 . S
C820 C812 1.574 . S
C820 H815 0.949 . S
C820 C826 1.368 . S
C821 C805 1.349 . S
C821 H813 0.950 . S
C821 C819 1.327 . S
C822 C810 1.349 . S
C822 H816 0.950 . S
C822 C823 1.327 . S
C823 H817 0.950 . S
C823 C822 1.327 . S
C823 C827 1.429 . S
C824 C807 1.574 . S
C824 H818 0.949 . S
C824 C828 1.368 . S
C825 C806 1.429 . S
C825 C819 1.429 . S
C825 C826 1.523 . S
C826 C807 1.368 . S
C826 C820 1.368 . S
C826 C825 1.523 . S
C827 C811 1.429 . S
C827 C823 1.429 . S
C827 C828 1.523 . S
C828 C812 1.368 . S
C828 C824 1.368 . S
C828 C827 1.523 . S
H829 C804 0.950 . S
H830 C806 0.950 . S
H831 C807 0.949 . S
H832 C809 0.950 . S
H833 C811 0.950 . S
C834 C835 1.349 . S
C834 C836 1.327 . S
C834 H859 0.950 . S
C835 C834 1.349 . S
C835 C851 1.349 . S
C836 C834 1.327 . S
C836 C855 1.429 . S
C836 H860 0.950 . S
C837 C854 1.574 . S
C837 C856 1.368 . S
C837 H861 0.949 . S
H838 C842 0.949 . S
C839 C840 1.349 . S
C839 C841 1.327 . S
C839 H862 0.950 . S
C840 C839 1.349 . S
C840 C852 1.349 . S
C841 C839 1.327 . S
C841 C857 1.429 . S
C841 H863 0.950 . S
C842 H838 0.949 . S
C842 C850 1.574 . S
C842 C858 1.368 . S
H843 C851 0.950 . S
H844 C849 0.950 . S
H845 C850 0.949 . S
H846 C852 0.950 . S
H847 C853 0.950 . S
H848 C854 0.949 . S
C849 H844 0.950 . S
C849 C851 1.327 . S
C849 C855 1.429 . S
C850 C842 1.574 . S
C850 H845 0.949 . S
C850 C856 1.368 . S
C851 C835 1.349 . S
C851 H843 0.950 . S
C851 C849 1.327 . S
C852 C840 1.349 . S
C852 H846 0.950 . S
C852 C853 1.327 . S
C853 H847 0.950 . S
C853 C852 1.327 . S
C853 C857 1.429 . S
C854 C837 1.574 . S
C854 H848 0.949 . S
C854 C858 1.368 . S
C855 C836 1.429 . S
C855 C849 1.429 . S
C855 C856 1.523 . S
C856 C837 1.368 . S
C856 C850 1.368 . S
C856 C855 1.523 . S
C857 C841 1.429 . S
C857 C853 1.429 . S
C857 C858 1.523 . S
C858 C842 1.368 . S
C858 C854 1.368 . S
C858 C857 1.523 . S
H859 C834 0.950 . S
H860 C836 0.950 . S
H861 C837 0.949 . S
H862 C839 0.950 . S
H863 C841 0.950 . S
C864 C865 1.349 . S
C864 C866 1.327 . S
C864 H889 0.950 . S
C865 C864 1.349 . S
C865 C881 1.349 . S
C866 C864 1.327 . S
C866 C885 1.429 . S
C866 H890 0.950 . S
C867 C884 1.574 . S
C867 C886 1.368 . S
C867 H891 0.949 . S
H868 C872 0.949 . S
C869 C870 1.349 . S
C869 C871 1.327 . S
C869 H892 0.950 . S
C870 C869 1.349 . S
C870 C882 1.349 . S
C871 C869 1.327 . S
C871 C887 1.429 . S
C871 H893 0.950 . S
C872 H868 0.949 . S
C872 C880 1.574 . S
C872 C888 1.368 . S
H873 C881 0.950 . S
H874 C879 0.950 . S
H875 C880 0.949 . S
H876 C882 0.950 . S
H877 C883 0.950 . S
H878 C884 0.949 . S
C879 H874 0.950 . S
C879 C881 1.327 . S
C879 C885 1.429 . S
C880 C872 1.574 . S
C880 H875 0.949 . S
C880 C886 1.368 . S
C881 C865 1.349 . S
C881 H873 0.950 . S
C881 C879 1.327 . S
C882 C870 1.349 . S
C882 H876 0.950 . S
C882 C883 1.327 . S
C883 H877 0.950 . S
C883 C882 1.327 . S
C883 C887 1.429 . S
C884 C867 1.574 . S
C884 H878 0.949 . S
C884 C888 1.368 . S
C885 C866 1.429 . S
C885 C879 1.429 . S
C885 C886 1.523 . S
C886 C867 1.368 . S
C886 C880 1.368 . S
C886 C885 1.523 . S
C887 C871 1.429 . S
C887 C883 1.429 . S
C887 C888 1.523 . S
C888 C872 1.368 . S
C888 C884 1.368 . S
C888 C887 1.523 . S
H889 C864 0.950 . S
H890 C866 0.950 . S
H891 C867 0.949 . S
H892 C869 0.950 . S
H893 C871 0.950 . S
C894 C895 1.349 . S
C894 C896 1.327 . S
C894 H919 0.950 . S
C895 C894 1.349 . S
C895 C911 1.349 . S
C896 C894 1.327 . S
C896 C915 1.429 . S
C896 H920 0.950 . S
C897 C914 1.574 . S
C897 C916 1.368 . S
C897 H921 0.949 . S
H898 C902 0.949 . S
C899 C900 1.349 . S
C899 C901 1.327 . S
C899 H922 0.950 . S
C900 C899 1.349 . S
C900 C912 1.349 . S
C901 C899 1.327 . S
C901 C917 1.429 . S
C901 H923 0.950 . S
C902 H898 0.949 . S
C902 C910 1.574 . S
C902 C918 1.368 . S
H903 C911 0.950 . S
H904 C909 0.950 . S
H905 C910 0.949 . S
H906 C912 0.950 . S
H907 C913 0.950 . S
H908 C914 0.949 . S
C909 H904 0.950 . S
C909 C911 1.327 . S
C909 C915 1.429 . S
C910 C902 1.574 . S
C910 H905 0.949 . S
C910 C916 1.368 . S
C911 C895 1.349 . S
C911 H903 0.950 . S
C911 C909 1.327 . S
C912 C900 1.349 . S
C912 H906 0.950 . S
C912 C913 1.327 . S
C913 H907 0.950 . S
C913 C912 1.327 . S
C913 C917 1.429 . S
C914 C897 1.574 . S
C914 H908 0.949 . S
C914 C918 1.368 . S
C915 C896 1.429 . S
C915 C909 1.429 . S
C915 C916 1.523 . S
C916 C897 1.368 . S
C916 C910 1.368 . S
C916 C915 1.523 . S
C917 C901 1.429 . S
C917 C913 1.429 . S
C917 C918 1.523 . S
C918 C902 1.368 . S
C918 C914 1.368 . S
C918 C917 1.523 . S
H919 C894 0.950 . S
H920 C896 0.950 . S
H921 C897 0.949 . S
H922 C899 0.950 . S
H923 C901 0.950 . S
C205 C12 1.466 . S
C210 C127 1.564 . S
C235 C30 1.456 . S
C240 C140 1.541 . S
C270 C162 1.535 . S
C265 C51 1.476 . S
C300 C175 1.515 . S
C295 C72 1.458 . S
C330 C188 1.538 . S
C325 C96 1.467 . S
C360 C201 1.517 . S
C355 C117 1.447 . S
C385 C38 1.472 . S
C390 C157 1.534 . S
C415 C59 1.451 . S
C420 C170 1.512 . S
C450 C183 1.525 . S
C445 C80 1.462 . S
C480 C196 1.492 . S
C475 C103 1.457 . S
C505 C124 1.478 . S
C510 C129 1.547 . S
C540 C142 1.534 . S
C535 C19 1.467 . S
C570 C168 1.533 . S
C565 C17 1.474 . S
C595 C40 1.465 . S
C600 C181 1.499 . S
C630 C194 1.511 . S
C625 C61 1.476 . S
C655 C82 1.455 . S
C660 C131 1.524 . S
C685 C101 1.463 . S
C690 C144 1.559 . S
C715 C122 1.452 . S
C720 C155 1.510 . S
C745 C33 1.457 . S
C750 C192 1.540 . S
C780 C136 1.547 . S
C775 C54 1.439 . S
C805 C75 1.459 . S
C810 C149 1.568 . S
C835 C93 1.472 . S
C840 C153 1.518 . S
C865 C114 1.490 . S
C870 C166 1.539 . S
C895 C9 1.470 . S
C900 C179 1.517 . S
