# Generated by pormake.
# Topology ftw, (4,12)-cn, num edge types: 1
# Building blocks:
#     Node 0, Type 0, BuildingBlock: KUFVIS_clean_linker_0, # of connection points: 4
#     Node 1, Type 0, BuildingBlock: KUFVIS_clean_linker_0, # of connection points: 4
#     Node 2, Type 0, BuildingBlock: KUFVIS_clean_linker_0, # of connection points: 4
#     Node 3, Type 1, BuildingBlock: QEWDON_clean_sbu_0, # of connection points: 12
#     Edge 4, Type (0, 1), BuildingBlock: ZUJKAS_clean_linker_0, # of connection points: 2
#     Edge 5, Type (0, 1), BuildingBlock: ZUJKAS_clean_linker_0, # of connection points: 2
#     Edge 6, Type (0, 1), BuildingBlock: ZUJKAS_clean_linker_0, # of connection points: 2
#     Edge 7, Type (0, 1), BuildingBlock: ZUJKAS_clean_linker_0, # of connection points: 2
#     Edge 8, Type (0, 1), BuildingBlock: ZUJKAS_clean_linker_0, # of connection points: 2
#     Edge 9, Type (0, 1), BuildingBlock: ZUJKAS_clean_linker_0, # of connection points: 2
#     Edge 10, Type (0, 1), BuildingBlock: ZUJKAS_clean_linker_0, # of connection points: 2
#     Edge 11, Type (0, 1), BuildingBlock: ZUJKAS_clean_linker_0, # of connection points: 2
#     Edge 12, Type (0, 1), BuildingBlock: ZUJKAS_clean_linker_0, # of connection points: 2
#     Edge 13, Type (0, 1), BuildingBlock: ZUJKAS_clean_linker_0, # of connection points: 2
#     Edge 14, Type (0, 1), BuildingBlock: ZUJKAS_clean_linker_0, # of connection points: 2
#     Edge 15, Type (0, 1), BuildingBlock: ZUJKAS_clean_linker_0, # of connection points: 2
# Relax obj value: 0.100
# Max RMSD: 0.262
# Mean RMSD: 0.192
data_MOF--net-ftw--node1-QEWDON_clean_sbu_0--node2-KUFVIS_clean_linker_0--edge1-ZUJKAS_clean_linker_0
_symmetry_space_group_name_H-M    P1
_symmetry_Int_Tables_number       1
_symmetry_cell_setting            triclinic
loop_
_symmetry_equiv_pos_as_xyz
'x, y, z'
_cell_length_a     29.072376
_cell_length_b     33.032946
_cell_length_c     31.580734
_cell_angle_alpha  89.995309
_cell_angle_beta   90.131004
_cell_angle_gamma 90.290264
loop_
_atom_site_label
_atom_site_type_symbol
_atom_site_fract_x
_atom_site_fract_y
_atom_site_fract_z
_atom_type_partial_charge
H0 H -0.01535 0.35381 0.52982 0.0
H1 H -0.00974 0.46696 0.59472 0.0
H2 H 0.96759 0.463 0.45876 0.0
H3 H -0.01379 0.52618 0.45794 0.0
H4 H 0.96425 0.63686 0.52458 0.0
H5 H 0.96145 0.52561 0.59359 0.0
C6 C -0.01685 0.38659 0.52884 0.0
C7 C 0.97704 0.40618 0.48987 0.0
C8 C -0.01322 0.4085 0.56665 0.0
C9 C -0.01481 0.45107 0.56522 0.0
C10 C 0.97827 0.47236 0.52658 0.0
C11 C 0.97427 0.44884 0.48895 0.0
C12 C 0.97454 0.51845 0.52587 0.0
C13 C -0.02122 0.54094 0.48763 0.0
C14 C 0.9737 0.58335 0.48714 0.0
C15 C 0.96645 0.6041 0.52511 0.0
C16 C 0.96361 0.58334 0.5637 0.0
C17 C 0.96649 0.54075 0.56368 0.0
H18 H 0.47874 0.00678 0.67656 0.0
H19 H 0.55223 0.99112 0.56101 0.0
H20 H 0.4032 0.00111 0.5605 0.0
H21 H 0.40508 0.97698 0.49788 0.0
H22 H 0.47685 0.99166 0.38104 0.0
H23 H 0.5497 0.01102 0.49677 0.0
C24 C 0.47831 0.00417 0.64232 0.0
C25 C 0.43624 0.00284 0.62076 0.0
C26 C 0.51997 0.00079 0.62066 0.0
C27 C 0.51953 0.99536 0.57648 0.0
C28 C 0.47769 0.99604 0.55305 0.0
C29 C 0.4361 -0.00035 0.57631 0.0
C30 C 0.4775 0.99402 0.50493 0.0
C31 C 0.43676 0.98443 0.48185 0.0
C32 C 0.43602 0.9851 0.43726 0.0
C33 C 0.47704 0.9922 0.41538 0.0
C34 C 0.51822 0.00029 0.43679 0.0
C35 C 0.51795 0.00261 0.48127 0.0
H36 H 0.50069 0.63863 0.03619 0.0
H37 H 0.5595 0.52051 0.04795 0.0
H38 H 0.41289 0.53484 0.02867 0.0
H39 H 0.41119 0.47787 0.06601 0.0
H40 H 0.45917 0.36078 0.02944 0.0
H41 H 0.54662 0.46386 0.01156 0.0
C42 C 0.49645 0.60598 0.03741 0.0
C43 C 0.45261 0.58908 0.03415 0.0
C44 C 0.53494 0.58112 0.04094 0.0
C45 C 0.52933 0.53916 0.04369 0.0
C46 C 0.48538 0.52157 0.0393 0.0
C47 C 0.44706 0.54712 0.03376 0.0
C48 C 0.47955 0.47688 0.03872 0.0
C49 C 0.43799 0.45936 0.05239 0.0
C50 C 0.43012 0.41784 0.04814 0.0
C51 C 0.46504 0.39309 0.03255 0.0
C52 C 0.50733 0.40962 0.02038 0.0
C53 C 0.51442 0.45147 0.02297 0.0
Zn54 Zn 0.0291 0.06929 0.99339 0.0
Zn55 Zn 0.03564 0.07065 0.09707 0.0
O56 O 0.01743 0.03574 0.04679 0.0
H57 H 0.01818 0.00661 0.04516 0.0
C58 C 0.96121 0.13242 0.91892 0.0
O59 O -0.01725 0.09778 0.91496 0.0
Zn60 Zn 0.92488 0.92113 0.09663 0.0
Zn61 Zn 0.93325 0.92753 0.99305 0.0
O62 O 0.94243 0.95912 0.0485 0.0
H63 H 0.94227 0.9883 0.04897 0.0
Zn64 Zn 0.9103 0.09087 0.99144 0.0
O65 O 0.94252 0.08073 0.04825 0.0
Zn66 Zn 0.89506 0.06826 0.09297 0.0
H67 H 0.93056 0.08591 0.02024 0.0
Zn68 Zn 0.03839 0.89971 0.98892 0.0
O69 O 0.01039 0.90813 0.04771 0.0
H70 H 0.02041 0.90363 0.01897 0.0
Zn71 Zn 0.06041 0.92205 0.08952 0.0
C72 C -0.01139 0.86071 0.91492 0.0
O73 O 0.97314 0.89745 0.90821 0.0
O74 O 0.05358 0.1262 1.00702 0.0
O75 O 0.06899 0.11949 0.07574 0.0
O76 O 0.91622 0.86807 1.00358 0.0
O77 O 0.89686 0.87109 0.07172 0.0
O78 O 0.84048 0.09249 1.00095 0.0
O79 O 0.83236 0.08408 0.07065 0.0
C80 C 0.08359 0.00126 0.13306 0.0
O81 O 0.10882 0.89967 0.99408 0.0
O82 O 0.12171 0.90859 0.06312 0.0
O83 O 0.897 0.9503 0.94058 0.0
C84 C 0.07091 0.13957 0.04135 0.0
O85 O 0.06183 0.04517 0.93995 0.0
C86 C 0.87182 0.98673 0.13379 0.0
O87 O 0.93195 0.13651 0.94856 0.0
C88 C 0.89933 0.852 0.03673 0.0
O89 O 0.01426 0.85429 0.94696 0.0
C90 C 0.95077 0.11034 0.1541 0.0
O91 O 0.07872 0.03946 0.13499 0.0
O92 O 0.05968 0.98113 0.10646 0.0
C93 C 0.81553 0.09144 0.03406 0.0
O94 O 0.87832 0.94866 0.13415 0.0
O95 O 0.89573 0.00869 0.10892 0.0
C96 C 0.00974 0.88114 0.15398 0.0
O97 O 0.90951 0.10222 0.14375 0.0
O98 O -0.01651 0.09526 0.1324 0.0
C99 C 0.13617 0.90172 0.02562 0.0
O100 O 0.05036 0.88834 0.14117 0.0
O101 O 0.97583 0.89561 0.13322 0.0
C102 C 0.8741 0.98285 0.93712 0.0
O103 O 0.87342 0.00844 0.96895 0.0
C104 C 0.085 0.01269 0.93747 0.0
O105 O 0.08755 0.98879 0.97063 0.0
H106 H 0.92264 0.33968 0.47669 0.0
H107 H 0.92245 0.29367 0.41595 0.0
H108 H 0.02295 0.36897 0.35345 0.0
H109 H 0.02334 0.41537 0.41452 0.0
H110 H 0.90539 0.31253 0.32511 0.0
H111 H 0.08 0.25115 0.35753 0.0
H112 H 0.04697 0.27676 0.39775 0.0
H113 H 0.07324 0.3053 0.35592 0.0
C114 C 0.94454 0.34663 0.44992 0.0
C115 C 0.97321 0.38111 0.45057 0.0
C116 C 0.94436 0.32029 0.41519 0.0
C117 C 0.97317 0.32747 0.38038 0.0
C118 C 0.00086 0.36252 0.38021 0.0
H119 H 0.02359 0.16324 0.16454 0.0
H120 H 0.03063 0.21761 0.21742 0.0
C121 C 0.00073 0.38921 0.41491 0.0
C122 C 0.97413 0.29779 0.34475 0.0
H123 H 0.03886 0.22258 0.30063 0.0
C124 C 0.93467 0.29303 0.31956 0.0
C125 C 0.01249 0.2726 0.3372 0.0
C126 C 0.05565 0.27631 0.36353 0.0
C127 C 0.93231 0.26363 0.28733 0.0
C128 C 0.96985 0.23695 0.28102 0.0
C129 C 0.00988 0.24257 0.30549 0.0
C130 C 0.96748 0.20244 0.25021 0.0
C131 C 0.88967 0.26206 0.26001 0.0
C132 C 0.93077 0.17462 0.25178 0.0
C133 C 0.92637 0.14407 0.22131 0.0
C134 C 0.95932 0.13963 0.18912 0.0
C135 C -0.00231 0.16578 0.18899 0.0
C136 C 0.00162 0.19699 0.21915 0.0
H137 H 0.87257 0.29204 0.25859 0.0
H138 H 0.89771 0.25234 0.22722 0.0
H139 H 0.86475 0.24028 0.27391 0.0
H140 H 0.90494 0.17686 0.27629 0.0
H141 H 0.89672 0.12412 0.22269 0.0
H142 H 0.54861 0.95338 0.37203 0.0
H143 H 0.61291 0.96633 0.32431 0.0
H144 H 0.64962 0.07275 0.396 0.0
H145 H 0.58427 0.06029 0.44395 0.0
H146 H 0.62351 0.04801 0.27795 0.0
H147 H 0.77206 0.00042 0.37795 0.0
H148 H 0.71527 0.97956 0.38652 0.0
H149 H 0.72706 0.03121 0.40019 0.0
C150 C 0.5704 0.97951 0.37784 0.0
C151 C 0.56103 0.00605 0.41155 0.0
C152 C 0.60718 0.98679 0.35057 0.0
C153 C 0.63583 0.02055 0.3565 0.0
C154 C 0.6279 0.04643 0.39101 0.0
H155 H 0.8802 0.04662 0.19315 0.0
H156 H 0.82285 0.06593 0.24653 0.0
C157 C 0.59077 0.03918 0.41845 0.0
C158 C 0.67247 0.02888 0.32502 0.0
H159 H 0.78654 0.01326 0.30594 0.0
C160 C 0.65935 0.04116 0.28422 0.0
C161 C 0.71915 0.02033 0.33341 0.0
C162 C 0.73466 0.00707 0.37681 0.0
C163 C 0.69135 0.04323 0.25103 0.0
C164 C 0.73748 0.03176 0.25861 0.0
C165 C 0.75117 0.02193 0.30007 0.0
C166 C 0.77031 0.02483 0.22331 0.0
C167 C 0.67517 0.05671 0.20788 0.0
C168 C 0.75979 0.9957 0.19233 0.0
C169 C 0.7922 0.98513 0.16177 0.0
C170 C 0.83576 0.00359 0.16133 0.0
C171 C 0.84614 0.0334 0.19163 0.0
C172 C 0.81366 0.0439 0.22251 0.0
H173 H 0.64531 0.07743 0.21041 0.0
H174 H 0.70305 0.0723 0.19015 0.0
H175 H 0.66392 0.02984 0.18941 0.0
H176 H 0.72716 0.97973 0.19291 0.0
H177 H 0.78379 0.96143 0.13928 0.0
H178 H 0.90234 0.61203 0.44046 0.0
H179 H 0.90563 0.65989 0.38099 0.0
H180 H 0.05385 0.65967 0.38791 0.0
H181 H 0.05036 0.61094 0.44656 0.0
H182 H 0.9384 0.7354 0.38097 0.0
H183 H 0.03626 0.6476 0.26262 0.0
H184 H 0.01186 0.62451 0.30927 0.0
H185 H 0.0659 0.65126 0.31233 0.0
C186 C 0.93556 0.6214 0.42835 0.0
C187 C 0.97612 0.60717 0.44731 0.0
C188 C 0.93747 0.64899 0.39462 0.0
C189 C -0.01999 0.66314 0.37928 0.0
C190 C 0.02061 0.64851 0.39813 0.0
H191 H 0.07492 0.8488 0.20637 0.0
H192 H 0.06495 0.79702 0.26081 0.0
C193 C 0.01868 0.62067 0.43168 0.0
C194 C -0.01824 0.69503 0.34559 0.0
H195 H 0.02951 0.7186 0.24968 0.0
C196 C 0.95797 0.7315 0.35207 0.0
C197 C 0.00721 0.69019 0.30772 0.0
C198 C 0.03136 0.65112 0.2973 0.0
C199 C 0.96005 0.76348 0.32257 0.0
C200 C -0.01372 0.7589 0.28518 0.0
C201 C 0.00957 0.72228 0.2784 0.0
C202 C -0.00879 0.79201 0.2532 0.0
C203 C 0.9353 0.80241 0.3323 0.0
C204 C 0.953 0.80688 0.23073 0.0
C205 C 0.95856 0.83673 0.19939 0.0
C206 C 0.00254 0.85219 0.18969 0.0
C207 C 0.04053 0.83765 0.21281 0.0
C208 C 0.03493 0.80789 0.24398 0.0
H209 H 0.92562 0.80452 0.36624 0.0
H210 H 0.95694 0.82904 0.32402 0.0
H211 H 0.90331 0.80384 0.31313 0.0
H212 H 0.91897 0.79473 0.23671 0.0
H213 H 0.92859 0.84691 0.18205 0.0
H214 H 0.40588 0.03136 0.37179 0.0
H215 H 0.34091 0.01864 0.32447 0.0
H216 H 0.30265 0.91406 0.39821 0.0
H217 H 0.36871 0.92626 0.44581 0.0
H218 H 0.32693 0.93083 0.28179 0.0
H219 H 0.18317 0.99537 0.37637 0.0
H220 H 0.24078 0.01547 0.38187 0.0
H221 H 0.22777 0.96579 0.40131 0.0
C222 C 0.38363 0.00566 0.37814 0.0
C223 C 0.3928 0.97953 0.41232 0.0
C224 C 0.34647 -0.00149 0.35108 0.0
C225 C 0.31723 0.96531 0.35767 0.0
C226 C 0.32493 0.93987 0.39264 0.0
H227 H 0.07001 0.94615 0.19645 0.0
H228 H 0.12611 0.92613 0.25092 0.0
C229 C 0.36245 0.947 0.4199 0.0
C230 C 0.28002 0.95714 0.32652 0.0
H231 H 0.16799 0.97986 0.30487 0.0
C232 C 0.2919 0.94077 0.28705 0.0
C233 C 0.23439 0.96988 0.33356 0.0
C234 C 0.22031 0.98764 0.37551 0.0
C235 C 0.25979 0.9385 0.25376 0.0
C236 C 0.21493 0.95392 0.25979 0.0
C237 C 0.20234 0.96809 0.30012 0.0
C238 C 0.18259 0.96023 0.22373 0.0
C239 C 0.27461 0.92043 0.21213 0.0
C240 C 0.19571 0.98545 0.18999 0.0
C241 C 0.16394 0.99643 0.15884 0.0
C242 C 0.1184 0.98228 0.16057 0.0
C243 C 0.1054 0.95605 0.19348 0.0
C244 C 0.13727 0.94513 0.2249 0.0
H245 H 0.30212 0.89764 0.21686 0.0
H246 H 0.24529 0.90583 0.19535 0.0
H247 H 0.28874 0.94475 0.19162 0.0
H248 H 0.22996 -0.00154 0.1889 0.0
H249 H 0.17441 0.01748 0.13434 0.0
H250 H 0.90693 0.6475 0.58107 0.0
H251 H 0.90734 0.6908 0.64413 0.0
H252 H 0.01191 0.616 0.70054 0.0
H253 H 0.012 0.57273 0.63742 0.0
H254 H 0.89415 0.67186 0.73414 0.0
H255 H 0.06812 0.7329 0.69756 0.0
H256 H 0.03312 0.70704 0.65865 0.0
H257 H 0.06319 0.6786 0.69837 0.0
C258 C 0.92984 0.64011 0.60701 0.0
C259 C 0.95967 0.60676 0.60404 0.0
C260 C 0.92989 0.66482 0.6431 0.0
C261 C 0.96009 0.657 0.67684 0.0
C262 C -0.01132 0.62289 0.6747 0.0
H263 H 0.03138 0.78715 0.90832 0.0
H264 H 0.02211 0.73647 0.85227 0.0
C265 C -0.0116 0.59797 0.63874 0.0
C266 C 0.96299 0.68543 0.71341 0.0
H267 H 0.03477 0.75338 0.76216 0.0
C268 C 0.92485 0.68971 0.74028 0.0
C269 C 0.00299 0.7089 0.7213 0.0
C270 C 0.04414 0.70706 0.69235 0.0
C271 C 0.926 0.71631 0.77517 0.0
C272 C 0.96608 0.73963 0.78308 0.0
C273 C 0.00416 0.73534 0.75622 0.0
C274 C 0.96913 0.76917 0.81866 0.0
C275 C 0.88467 0.71887 0.80378 0.0
C276 C 0.9423 0.80441 0.81854 0.0
C277 C 0.94776 0.83364 0.85039 0.0
C278 C -0.01995 0.82817 0.88317 0.0
C279 C 0.00604 0.79232 0.88374 0.0
C280 C 0.00089 0.76332 0.85164 0.0
H281 H 0.8604 0.69324 0.79865 0.0
H282 H 0.89546 0.71915 0.83754 0.0
H283 H 0.8661 0.74749 0.79734 0.0
H284 H 0.91798 0.80984 0.79316 0.0
H285 H 0.92718 0.86085 0.84892 0.0
H286 H 0.36139 0.95233 0.61456 0.0
H287 H 0.29558 0.94817 0.66303 0.0
H288 H 0.34792 0.05132 0.73201 0.0
H289 H 0.41374 0.05521 0.68416 0.0
H290 H 0.32833 0.98804 0.7839 0.0
H291 H 0.18044 0.01638 0.67646 0.0
H292 H 0.21777 0.97607 0.66034 0.0
H293 H 0.2391 0.02721 0.66144 0.0
C294 C 0.35819 0.97466 0.63949 0.0
C295 C 0.39277 0.00403 0.64563 0.0
C296 C 0.32058 0.97226 0.66719 0.0
C297 C 0.31661 -0.00046 0.70115 0.0
C298 C 0.35025 0.02983 0.70619 0.0
H299 H 0.09728 0.06193 0.86876 0.0
H300 H 0.15124 0.05331 0.81049 0.0
C301 C 0.38784 0.03207 0.67879 0.0
C302 C 0.27941 0.99536 0.73327 0.0
H303 H 0.16294 -0.0008 0.74734 0.0
C304 C 0.29214 0.99033 0.77588 0.0
C305 C 0.23219 -0.0016 0.72282 0.0
C306 C 0.21638 0.00515 0.67786 0.0
C307 C 0.25925 0.98927 0.8084 0.0
C308 C 0.21195 0.99234 0.79803 0.0
C309 C 0.19911 0.99652 0.75529 0.0
C310 C 0.17581 0.99487 0.83135 0.0
C311 C 0.27577 0.98667 0.85368 0.0
C312 C 0.17037 0.96428 0.86194 0.0
C313 C 0.13977 0.96934 0.89577 0.0
C314 C 0.1135 0.00485 0.89932 0.0
C315 C 0.11711 0.03429 0.86726 0.0
C316 C 0.14795 0.02937 0.83376 0.0
H317 H 0.31289 0.99435 0.85664 0.0
H318 H 0.256 0.00736 0.87443 0.0
H319 H 0.27088 0.95528 0.86541 0.0
H320 H 0.19053 0.93686 0.86021 0.0
H321 H 0.13749 0.94586 0.91961 0.0
H322 H 0.93573 0.41928 0.63853 0.0
H323 H 0.93503 0.37688 0.70249 0.0
H324 H 0.04419 0.3043 0.65097 0.0
H325 H 0.04488 0.34634 0.58695 0.0
H326 H 0.92092 0.28611 0.69807 0.0
H327 H 0.08355 0.33324 0.77752 0.0
H328 H 0.05293 0.36587 0.74129 0.0
H329 H 0.08595 0.32437 0.7213 0.0
C330 C 0.96019 0.39479 0.64122 0.0
C331 C -0.00964 0.38618 0.60766 0.0
C332 C 0.95958 0.37046 0.67766 0.0
C333 C -0.0103 0.33753 0.68161 0.0
C334 C 0.02092 0.32973 0.6488 0.0
H335 H 0.02791 0.138 0.85785 0.0
H336 H 0.0351 0.18893 0.80174 0.0
C337 C 0.02116 0.35369 0.61217 0.0
C338 C -0.01358 0.3096 0.71853 0.0
H339 H 0.04452 0.27645 0.80616 0.0
C340 C 0.94774 0.28422 0.72191 0.0
C341 C 0.02166 0.30688 0.74934 0.0
C342 C 0.06336 0.33414 0.74762 0.0
C343 C 0.9437 0.25572 0.75486 0.0
C344 C -0.02115 0.25307 0.78585 0.0
C345 C 0.01754 0.27854 0.78251 0.0
C346 C 0.97606 0.22363 0.82159 0.0
C347 C 0.90246 0.22782 0.75556 0.0
C348 C 0.94116 0.22668 0.85209 0.0
C349 C 0.93713 0.19777 0.8844 0.0
C350 C 0.96782 0.165 0.88682 0.0
C351 C 0.00351 0.16266 0.85686 0.0
C352 C 0.00774 0.1918 0.82476 0.0
H353 H 0.8841 0.2274 0.72466 0.0
H354 H 0.91287 0.19642 0.76355 0.0
H355 H 0.87804 0.23825 0.78015 0.0
H356 H 0.91668 0.25125 0.85066 0.0
H357 H 0.90925 0.2006 0.90688 0.0
H358 H 0.58965 0.94519 0.62581 0.0
H359 H 0.65527 0.94619 0.67523 0.0
H360 H 0.61394 0.06395 0.71972 0.0
H361 H 0.54788 0.06237 0.67158 0.0
H362 H 0.72971 0.99663 0.68931 0.0
H363 H 0.6136 1e-05 0.82831 0.0
H364 H 0.5928 0.99051 0.77539 0.0
H365 H 0.60476 0.04145 0.79259 0.0
C366 C 0.59509 0.97144 0.64579 0.0
C367 C 0.56355 0.00352 0.64525 0.0
C368 C 0.63244 0.97199 0.67408 0.0
C369 C 0.63889 0.00469 0.70208 0.0
C370 C 0.60898 0.03784 0.69946 0.0
H371 H 0.82043 0.0487 0.91833 0.0
H372 H 0.76702 0.05646 0.8588 0.0
C373 C 0.57145 0.03706 0.67171 0.0
C374 C 0.67562 0.0036 0.73513 0.0
H375 H 0.69305 0.00848 0.84214 0.0
C376 C 0.7217 -0.00089 0.72273 0.0
C377 C 0.66526 0.00684 0.77884 0.0
C378 C 0.61641 0.00958 0.79468 0.0
C379 C 0.75764 -0.00158 0.75273 0.0
C380 C 0.74721 0.00166 0.7964 0.0
C381 C 0.70117 0.00631 0.80871 0.0
C382 C 0.78299 -0.00133 0.83017 0.0
C383 C 0.80651 0.99491 0.73725 0.0
C384 C 0.81002 0.96375 0.83394 0.0
C385 C 0.84071 0.95931 0.86782 0.0
C386 C 0.84471 0.9895 0.89912 0.0
C387 C 0.81825 0.02483 0.89489 0.0
C388 C 0.78765 0.0293 0.86084 0.0
H389 H 0.80987 0.00523 0.70391 0.0
H390 H 0.8305 0.01286 0.75729 0.0
H391 H 0.81711 0.96271 0.73857 0.0
H392 H 0.80634 0.93922 0.81142 0.0
H393 H 0.8603 0.93158 0.87011 0.0
H394 H 0.34807 0.44793 0.02184 0.0
H395 H 0.27392 0.4125 0.02175 0.0
H396 H 0.33484 0.31283 0.08949 0.0
H397 H 0.40897 0.34825 0.09039 0.0
H398 H 0.29194 0.30228 0.99875 0.0
H399 H 0.18179 0.37132 0.1235 0.0
H400 H 0.21887 0.40275 0.09137 0.0
H401 H 0.24356 0.369 0.12943 0.0
C402 C 0.34523 0.41912 0.03804 0.0
C403 C 0.38414 0.40055 0.05587 0.0
C404 C 0.30302 0.39898 0.03779 0.0
C405 C 0.29944 0.36032 0.05554 0.0
C406 C 0.33737 0.34283 0.07576 0.0
H407 H 0.11873 0.17313 0.10666 0.0
H408 H 0.16719 0.23317 0.1048 0.0
C409 C 0.37953 0.36292 0.0761 0.0
C410 C 0.25827 0.33566 0.04815 0.0
H411 H 0.15192 0.31456 0.08723 0.0
C412 C 0.2609 0.30515 0.01751 0.0
C413 C 0.21836 0.34009 0.07282 0.0
C414 C 0.21504 0.37248 0.10627 0.0
C415 C 0.22515 0.27717 0.01233 0.0
C416 C 0.18561 0.28064 0.03805 0.0
C417 C 0.18218 0.31246 0.06734 0.0
C418 C 0.15116 0.24802 0.03969 0.0
C419 C 0.23131 0.24272 0.98142 0.0
C420 C 0.1253 0.23724 1.00387 0.0
C421 C 0.09791 0.20244 1.00457 0.0
C422 C 0.09585 0.1784 0.04128 0.0
C423 C 0.11981 0.19079 0.07777 0.0
C424 C 0.14733 0.22524 0.07689 0.0
H425 H 0.26707 0.24102 0.96923 0.0
H426 H 0.22253 0.21334 0.99655 0.0
H427 H 0.20791 0.24703 0.95401 0.0
H428 H 0.12744 0.25498 0.9751 0.0
H429 H 0.07936 0.19389 0.97613 0.0
H430 H 0.40503 0.60657 0.96263 0.0
H431 H 0.35112 0.66315 0.95324 0.0
H432 H 0.36048 0.68974 0.08676 0.0
H433 H 0.41448 0.63362 0.09603 0.0
H434 H 0.26638 0.6928 0.04325 0.0
H435 H 0.40801 0.78276 0.96947 0.0
H436 H 0.39653 0.73244 0.94994 0.0
H437 H 0.41925 0.73911 1.00229 0.0
C438 C 0.39434 0.62392 0.98997 0.0
C439 C 0.41327 0.61618 0.03 0.0
C440 C 0.36403 0.65617 0.98459 0.0
C441 C 0.3526 0.68057 0.01928 0.0
C442 C 0.36921 0.6711 0.05974 0.0
H443 H 0.20105 0.88812 0.0868 0.0
H444 H 0.26266 0.83867 0.08088 0.0
C445 C 0.39971 0.63917 0.06504 0.0
C446 C 0.32643 0.71802 0.01339 0.0
H447 H 0.33814 0.81649 0.98218 0.0
C448 C 0.28176 0.71977 0.02956 0.0
C449 C 0.34707 0.7529 0.99556 0.0
C450 C 0.39544 0.75212 0.9784 0.0
C451 C 0.25715 0.756 0.02894 0.0
C452 C 0.27841 0.7913 0.01258 0.0
C453 C 0.32254 0.78932 0.99518 0.0
C454 C 0.25423 0.83018 0.01342 0.0
C455 C 0.20869 0.75642 0.04606 0.0
C456 C 0.2324 0.84406 0.97672 0.0
C457 C 0.19723 0.8724 0.97988 0.0
C458 C 0.18336 0.88654 0.01991 0.0
C459 C 0.21023 0.87713 0.05563 0.0
C460 C 0.24545 0.84887 0.05237 0.0
H461 H 0.19444 0.72536 0.04991 0.0
H462 H 0.20862 0.77142 0.07751 0.0
H463 H 0.18561 0.7738 0.02477 0.0
H464 H 0.23932 0.8301 0.94636 0.0
H465 H 0.17788 0.87977 0.95157 0.0
H466 H 0.50267 0.3523 0.95886 0.0
H467 H 0.5543 0.29438 0.95142 0.0
H468 H 0.64526 0.34604 0.04518 0.0
H469 H 0.5936 0.40409 0.05288 0.0
H470 H 0.68217 0.29617 0.9614 0.0
H471 H 0.55682 0.22524 0.07281 0.0
H472 H 0.53537 0.25499 0.02923 0.0
H473 H 0.56642 0.27927 0.07128 0.0
C474 C 0.5345 0.35187 0.97677 0.0
C475 C 0.54412 0.38211 1.00682 0.0
C476 C 0.56383 0.31895 0.97247 0.0
C477 C 0.60296 0.31605 0.99815 0.0
C478 C 0.61505 0.34808 0.02515 0.0
H479 H 0.76548 0.12662 0.09679 0.0
H480 H 0.70585 0.17707 0.08551 0.0
C481 C 0.58573 0.38115 0.0294 0.0
C482 C 0.62678 0.27715 1.00179 0.0
H483 H 0.61909 0.18541 0.05087 0.0
C484 C 0.66843 0.27173 0.98059 0.0
C485 C 0.60859 0.2459 0.0274 0.0
C486 C 0.56442 0.25136 0.05175 0.0
C487 C 0.69291 0.2355 0.98468 0.0
C488 C 0.67441 0.20386 1.00992 0.0
C489 C 0.63259 0.20945 0.03099 0.0
C490 C 0.70045 0.16647 0.01803 0.0
C491 C 0.73917 0.23207 0.96334 0.0
C492 C 0.71405 0.14158 0.98443 0.0
C493 C 0.74839 0.11288 0.99069 0.0
C494 C 0.76905 0.10861 0.03075 0.0
C495 C 0.75052 0.12947 0.06548 0.0
C496 C 0.71657 0.1585 0.05906 0.0
H497 H 0.75261 0.26202 0.953 0.0
H498 H 0.76479 0.21807 0.9849 0.0
H499 H 0.7358 0.21259 0.93487 0.0
H500 H 0.70076 0.14652 0.95279 0.0
H501 H 0.76148 0.09662 0.9635 0.0
H502 H 0.60707 0.5721 0.09567 0.0
H503 H 0.68142 0.60802 0.09269 0.0
H504 H 0.63987 0.66552 0.97611 0.0
H505 H 0.56585 0.63036 0.97923 0.0
H506 H 0.75234 0.61505 0.02452 0.0
H507 H 0.66188 0.75819 0.06381 0.0
H508 H 0.63588 0.709 0.07147 0.0
H509 H 0.63824 0.73104 0.01949 0.0
C510 C 0.61432 0.59206 0.06927 0.0
C511 C 0.58095 0.59926 0.03806 0.0
C512 C 0.65654 0.61231 0.06751 0.0
C513 C 0.66547 0.63951 0.03441 0.0
C514 C 0.63309 0.6449 1.00207 0.0
H515 H 0.87313 0.81022 0.96588 0.0
H516 H 0.82465 0.74939 0.9642 0.0
C517 C 0.59097 0.62506 1.004 0.0
C518 C 0.70668 0.66518 0.03525 0.0
H519 H 0.73997 0.76376 0.0435 0.0
C520 C 0.74991 0.64753 0.02888 0.0
C521 C 0.70287 0.70741 0.0412 0.0
C522 C 0.6573 0.72759 0.04975 0.0
C523 C 0.78975 0.67159 0.02741 0.0
C524 C 0.78559 0.71375 0.03246 0.0
C525 C 0.74251 0.73123 0.03934 0.0
C526 C 0.82527 0.74108 0.03212 0.0
C527 C 0.83596 0.65231 0.0205 0.0
C528 C 0.8424 0.75525 0.0708 0.0
C529 C 0.86936 0.7901 0.07199 0.0
C530 C 0.8793 0.81117 0.03443 0.0
C531 C 0.86565 0.79469 0.99531 0.0
C532 C 0.83834 0.75987 0.99422 0.0
H533 H 0.83341 0.61887 0.01745 0.0
H534 H 0.85186 0.66487 0.99135 0.0
H535 H 0.85915 0.65981 0.0474 0.0
H536 H 0.83202 0.74112 0.10028 0.0
H537 H 0.88015 0.80177 0.10252 0.0
loop_
_geom_bond_atom_site_label_1
_geom_bond_atom_site_label_2
_geom_bond_distance
_geom_bond_site_symmetry_2
_ccdc_geom_bond_type
H0 C6 0.931 . S
H1 C9 0.931 . S
H2 C11 0.931 . S
H3 C13 0.930 . S
H4 C15 0.930 . S
H5 C17 0.931 . S
C6 H0 0.931 . S
C6 C7 1.381 . S
C6 C8 1.392 1_655 S
C7 C6 1.381 . S
C7 C11 1.382 . S
C8 C6 1.392 1_455 S
C8 C9 1.400 . S
C9 H1 0.931 . S
C9 C8 1.400 . S
C9 C10 1.375 . S
C10 C9 1.375 . S
C10 C11 1.415 1_455 S
C10 C12 1.501 . S
C11 H2 0.931 . S
C11 C7 1.382 . S
C11 C10 1.415 1_655 S
C12 C10 1.501 . S
C12 C13 1.384 . S
C12 C17 1.408 1_455 S
C13 H3 0.930 . S
C13 C12 1.384 . S
C13 C14 1.389 . S
C14 C13 1.389 . S
C14 C15 1.405 . S
C15 H4 0.930 . S
C15 C14 1.405 . S
C15 C16 1.364 1_455 S
C16 C15 1.364 1_655 S
C16 C17 1.400 . S
C17 H5 0.931 . S
C17 C12 1.408 1_655 S
C17 C16 1.400 . S
H18 C24 0.930 . S
H19 C27 0.931 . S
H20 C29 0.931 . S
H21 C31 0.930 . S
H22 C33 0.930 . S
H23 C35 0.931 . S
C24 H18 0.930 . S
C24 C25 1.380 . S
C24 C26 1.394 1_545 S
C25 C24 1.380 . S
C25 C29 1.382 . S
C26 C24 1.394 1_565 S
C26 C27 1.400 . S
C27 H19 0.931 . S
C27 C26 1.400 . S
C27 C28 1.375 . S
C28 C27 1.375 . S
C28 C29 1.415 1_565 S
C28 C30 1.501 . S
C29 H20 0.931 . S
C29 C25 1.382 . S
C29 C28 1.415 1_545 S
C30 C28 1.501 . S
C30 C31 1.384 . S
C30 C35 1.408 1_565 S
C31 H21 0.930 . S
C31 C30 1.384 . S
C31 C32 1.389 . S
C32 C31 1.389 . S
C32 C33 1.405 . S
C33 H22 0.930 . S
C33 C32 1.405 . S
C33 C34 1.364 1_565 S
C34 C33 1.364 1_545 S
C34 C35 1.400 . S
C35 H23 0.931 . S
C35 C30 1.408 1_545 S
C35 C34 1.400 . S
H36 C42 0.930 . S
H37 C45 0.931 . S
H38 C47 0.931 . S
H39 C49 0.930 . S
H40 C51 0.930 . S
H41 C53 0.931 . S
C42 H36 0.930 . S
C42 C43 1.380 . S
C42 C44 1.394 . S
C43 C42 1.380 . S
C43 C47 1.382 . S
C44 C42 1.394 . S
C44 C45 1.400 . S
C45 H37 0.931 . S
C45 C44 1.400 . S
C45 C46 1.375 . S
C46 C45 1.375 . S
C46 C47 1.415 . S
C46 C48 1.501 . S
C47 H38 0.931 . S
C47 C43 1.382 . S
C47 C46 1.415 . S
C48 C46 1.501 . S
C48 C49 1.384 . S
C48 C53 1.408 . S
C49 H39 0.930 . S
C49 C48 1.384 . S
C49 C50 1.389 . S
C50 C49 1.389 . S
C50 C51 1.405 . S
C51 H40 0.930 . S
C51 C50 1.405 . S
C51 C52 1.364 . S
C52 C51 1.364 . S
C52 C53 1.400 . S
C53 H41 0.931 . S
C53 C48 1.408 . S
C53 C52 1.400 . S
Zn54 O56 1.933 1_556 S
Zn54 O74 1.985 . S
Zn54 O85 1.955 . S
Zn55 O56 1.911 . S
Zn55 O75 1.970 . S
Zn55 O91 1.945 . S
Zn55 O98 1.981 . S
O56 Zn54 1.933 1_554 S
O56 Zn55 1.911 . S
O56 H57 0.841 . S
H57 O56 0.841 . S
C58 O59 1.246 . S
C58 O87 1.276 1_455 S
O59 C58 1.246 . S
Zn60 O62 1.911 . S
Zn60 O77 1.970 . S
Zn60 O94 1.945 . S
Zn60 O101 1.981 . S
Zn61 O62 1.933 1_556 S
Zn61 O76 1.985 . S
Zn61 O83 1.955 . S
O62 Zn60 1.911 . S
O62 Zn61 1.933 1_554 S
O62 H63 0.841 . S
H63 O62 0.841 . S
Zn64 O65 1.933 1_556 S
Zn64 O78 1.985 . S
Zn64 O87 1.955 . S
O65 Zn64 1.933 1_554 S
O65 Zn66 1.911 . S
O65 H67 0.841 . S
Zn66 O65 1.911 . S
Zn66 O79 1.970 . S
Zn66 O95 1.981 . S
Zn66 O97 1.945 . S
H67 O65 0.841 . S
Zn68 O69 1.933 1_556 S
Zn68 O81 1.985 . S
Zn68 O89 1.955 . S
O69 Zn68 1.933 1_554 S
O69 H70 0.841 . S
O69 Zn71 1.911 . S
H70 O69 0.841 . S
Zn71 O69 1.911 . S
Zn71 O82 1.970 . S
Zn71 O92 1.981 . S
Zn71 O100 1.945 . S
C72 O73 1.246 . S
C72 O89 1.276 1_655 S
O73 C72 1.246 . S
O74 Zn54 1.985 . S
O74 C84 1.245 1_556 S
O75 Zn55 1.970 . S
O75 C84 1.263 . S
O76 Zn61 1.985 . S
O76 C88 1.245 1_556 S
O77 Zn60 1.970 . S
O77 C88 1.263 . S
O78 Zn64 1.985 . S
O78 C93 1.245 1_556 S
O79 Zn66 1.970 . S
O79 C93 1.263 . S
C80 O91 1.262 . S
C80 O92 1.245 1_545 S
O81 Zn68 1.985 . S
O81 C99 1.245 1_556 S
O82 Zn71 1.970 . S
O82 C99 1.263 . S
O83 Zn61 1.955 . S
O83 C102 1.276 1_565 S
C84 O74 1.245 1_554 S
C84 O75 1.263 . S
O85 Zn54 1.955 . S
O85 C104 1.276 1_545 S
C86 O94 1.260 1_545 S
C86 O95 1.246 . S
O87 C58 1.276 1_655 S
O87 Zn64 1.955 . S
C88 O76 1.245 1_554 S
C88 O77 1.263 . S
O89 Zn68 1.955 . S
O89 C72 1.276 1_455 S
C90 O97 1.253 1_455 S
C90 O98 1.249 . S
O91 Zn55 1.945 . S
O91 C80 1.262 . S
O92 Zn71 1.981 . S
O92 C80 1.245 1_565 S
C93 O78 1.245 1_554 S
C93 O79 1.263 . S
O94 Zn60 1.945 . S
O94 C86 1.260 1_565 S
O95 Zn66 1.981 . S
O95 C86 1.246 . S
C96 O100 1.272 . S
C96 O101 1.239 1_455 S
O97 Zn66 1.945 . S
O97 C90 1.253 1_655 S
O98 Zn55 1.981 . S
O98 C90 1.249 . S
C99 O81 1.245 1_554 S
C99 O82 1.263 . S
O100 Zn71 1.945 . S
O100 C96 1.272 . S
O101 Zn60 1.981 . S
O101 C96 1.239 1_655 S
C102 O83 1.276 1_545 S
C102 O103 1.246 . S
O103 C102 1.246 . S
C104 O85 1.276 1_565 S
C104 O105 1.246 . S
O105 C104 1.246 . S
H106 C114 0.929 . S
H107 C116 0.930 . S
H108 C118 0.930 . S
H109 C121 0.929 . S
H110 C124 0.930 . S
H111 C126 0.960 . S
H112 C126 0.960 . S
H113 C126 0.960 . S
C114 H106 0.929 . S
C114 C115 1.377 . S
C114 C116 1.384 . S
C115 C114 1.377 . S
C115 C121 1.390 1_655 S
C116 H107 0.930 . S
C116 C114 1.384 . S
C116 C117 1.374 . S
C117 C116 1.374 . S
C117 C118 1.398 1_655 S
C117 C122 1.490 . S
C118 H108 0.930 . S
C118 C117 1.398 1_455 S
C118 C121 1.386 . S
H119 C135 0.930 . S
H120 C136 0.931 1_655 S
C121 H109 0.929 . S
C121 C115 1.390 1_455 S
C121 C118 1.386 . S
C122 C117 1.490 . S
C122 C124 1.403 . S
C122 C125 1.394 1_655 S
H123 C129 0.930 . S
C124 H110 0.930 . S
C124 C122 1.403 . S
C124 C127 1.403 . S
C125 C122 1.394 1_455 S
C125 C126 1.524 . S
C125 C129 1.400 . S
C126 H111 0.960 . S
C126 H112 0.960 . S
C126 H113 0.960 . S
C126 C125 1.524 . S
C127 C124 1.403 . S
C127 C128 1.392 . S
C127 C131 1.495 . S
C128 C127 1.392 . S
C128 C129 1.385 1_655 S
C128 C130 1.478 . S
C129 H123 0.930 . S
C129 C125 1.400 . S
C129 C128 1.385 1_455 S
C130 C128 1.478 . S
C130 C132 1.381 . S
C130 C136 1.382 1_655 S
C131 C127 1.495 . S
C131 H137 0.959 . S
C131 H138 0.961 . S
C131 H139 0.960 . S
C132 C130 1.381 . S
C132 C133 1.394 1_655 S
C132 H140 0.930 . S
C133 C132 1.394 1_455 S
C133 C134 1.383 . S
C133 H141 0.929 . S
C134 C133 1.383 . S
C134 C135 1.377 . S
C135 H119 0.930 . S
C135 C134 1.377 . S
C135 C136 1.381 . S
C136 H120 0.931 1_455 S
C136 C130 1.382 1_455 S
C136 C135 1.381 . S
H137 C131 0.959 . S
H138 C131 0.961 . S
H139 C131 0.960 . S
H140 C132 0.930 . S
H141 C133 0.929 . S
H142 C150 0.929 . S
H143 C152 0.930 . S
H144 C154 0.930 . S
H145 C157 0.929 . S
H146 C160 0.930 . S
H147 C162 0.960 . S
H148 C162 0.960 . S
H149 C162 0.960 1_545 S
C150 H142 0.929 . S
C150 C151 1.377 1_565 S
C150 C152 1.384 . S
C151 C150 1.377 1_545 S
C151 C157 1.390 . S
C152 H143 0.930 . S
C152 C150 1.384 . S
C152 C153 1.372 1_565 S
C153 C152 1.372 1_545 S
C153 C154 1.400 . S
C153 C158 1.490 . S
C154 H144 0.930 . S
C154 C153 1.400 . S
C154 C157 1.386 . S
H155 C171 0.930 . S
H156 C172 0.931 . S
C157 H145 0.929 . S
C157 C151 1.390 . S
C157 C154 1.386 . S
C158 C153 1.490 . S
C158 C160 1.395 . S
C158 C161 1.403 . S
H159 C165 0.930 . S
C160 H146 0.930 . S
C160 C158 1.395 . S
C160 C163 1.403 . S
C161 C158 1.403 . S
C161 C162 1.524 1_545 S
C161 C165 1.400 . S
C162 H147 0.960 . S
C162 H148 0.960 . S
C162 H149 0.960 1_565 S
C162 C161 1.524 1_565 S
C163 C160 1.403 . S
C163 C164 1.392 . S
C163 C167 1.495 . S
C164 C163 1.392 . S
C164 C165 1.385 . S
C164 C166 1.478 . S
C165 H159 0.930 . S
C165 C161 1.400 . S
C165 C164 1.385 . S
C166 C164 1.478 . S
C166 C168 1.381 1_545 S
C166 C172 1.383 . S
C167 C163 1.495 . S
C167 H173 0.959 . S
C167 H174 0.961 . S
C167 H175 0.960 1_545 S
C168 C166 1.381 1_565 S
C168 C169 1.394 . S
C168 H176 0.930 . S
C169 C168 1.394 . S
C169 C170 1.383 1_565 S
C169 H177 0.929 . S
C170 C169 1.383 1_545 S
C170 C171 1.377 . S
C171 H155 0.930 . S
C171 C170 1.377 . S
C171 C172 1.379 . S
C172 H156 0.931 . S
C172 C166 1.383 . S
C172 C171 1.379 . S
H173 C167 0.959 . S
H174 C167 0.961 . S
H175 C167 0.960 1_565 S
H176 C168 0.930 . S
H177 C169 0.929 . S
H178 C186 0.929 . S
H179 C188 0.930 . S
H180 C190 0.930 . S
H181 C193 0.929 . S
H182 C196 0.930 . S
H183 C198 0.960 . S
H184 C198 0.960 . S
H185 C198 0.960 . S
C186 H178 0.929 . S
C186 C187 1.377 1_655 S
C186 C188 1.384 . S
C187 C186 1.377 1_455 S
C187 C193 1.390 . S
C188 H179 0.930 . S
C188 C186 1.384 . S
C188 C189 1.389 . S
C189 C188 1.389 . S
C189 C190 1.382 1_655 S
C189 C194 1.491 . S
C190 H180 0.930 . S
C190 C189 1.382 1_455 S
C190 C193 1.386 . S
H191 C207 0.930 . S
H192 C208 0.931 . S
C193 H181 0.929 . S
C193 C187 1.390 . S
C193 C190 1.386 . S
C194 C189 1.491 . S
C194 C196 1.395 . S
C194 C197 1.403 1_655 S
H195 C201 0.930 . S
C196 H182 0.930 . S
C196 C194 1.395 . S
C196 C199 1.403 . S
C197 C194 1.403 1_455 S
C197 C198 1.524 . S
C197 C201 1.400 . S
C198 H183 0.960 . S
C198 H184 0.960 . S
C198 H185 0.960 . S
C198 C197 1.524 . S
C199 C196 1.403 . S
C199 C200 1.392 . S
C199 C203 1.495 . S
C200 C199 1.392 . S
C200 C201 1.385 1_655 S
C200 C202 1.478 . S
C201 H195 0.930 . S
C201 C197 1.400 . S
C201 C200 1.385 1_455 S
C202 C200 1.478 . S
C202 C204 1.381 . S
C202 C208 1.383 1_655 S
C203 C199 1.495 . S
C203 H209 0.959 . S
C203 H210 0.961 . S
C203 H211 0.960 . S
C204 C202 1.381 . S
C204 C205 1.394 . S
C204 H212 0.930 . S
C205 C204 1.394 . S
C205 C206 1.383 . S
C205 H213 0.929 . S
C206 C205 1.383 . S
C206 C207 1.377 1_655 S
C207 H191 0.930 . S
C207 C206 1.377 1_455 S
C207 C208 1.379 . S
C208 H192 0.931 . S
C208 C202 1.383 1_455 S
C208 C207 1.379 . S
H209 C203 0.959 . S
H210 C203 0.961 . S
H211 C203 0.960 . S
H212 C204 0.930 . S
H213 C205 0.929 . S
H214 C222 0.929 . S
H215 C224 0.930 . S
H216 C226 0.930 . S
H217 C229 0.929 . S
H218 C232 0.930 . S
H219 C234 0.960 . S
H220 C234 0.960 . S
H221 C234 0.960 1_565 S
C222 H214 0.929 . S
C222 C223 1.377 1_545 S
C222 C224 1.384 . S
C223 C222 1.377 1_565 S
C223 C229 1.390 . S
C224 H215 0.930 . S
C224 C222 1.384 . S
C224 C225 1.372 1_545 S
C225 C224 1.372 1_565 S
C225 C226 1.400 . S
C225 C230 1.490 . S
C226 H216 0.930 . S
C226 C225 1.400 . S
C226 C229 1.386 . S
H227 C243 0.930 . S
H228 C244 0.931 . S
C229 H217 0.929 . S
C229 C223 1.390 . S
C229 C226 1.386 . S
C230 C225 1.490 . S
C230 C232 1.395 . S
C230 C233 1.403 1_565 S
H231 C237 0.930 . S
C232 H218 0.930 . S
C232 C230 1.395 . S
C232 C235 1.403 . S
C233 C230 1.403 1_545 S
C233 C234 1.524 . S
C233 C237 1.400 . S
C234 H219 0.960 . S
C234 H220 0.960 . S
C234 H221 0.960 1_545 S
C234 C233 1.524 . S
C235 C232 1.403 . S
C235 C236 1.392 . S
C235 C239 1.495 . S
C236 C235 1.392 . S
C236 C237 1.385 1_565 S
C236 C238 1.478 . S
C237 H231 0.930 . S
C237 C233 1.400 . S
C237 C236 1.385 1_545 S
C238 C236 1.478 . S
C238 C240 1.381 1_565 S
C238 C244 1.383 . S
C239 C235 1.495 . S
C239 H245 0.959 . S
C239 H246 0.961 . S
C239 H247 0.960 . S
C240 C238 1.381 1_545 S
C240 C241 1.394 . S
C240 H248 0.930 . S
C241 C240 1.394 . S
C241 C242 1.383 1_545 S
C241 H249 0.929 . S
C242 C241 1.383 1_565 S
C242 C243 1.377 . S
C243 H227 0.930 . S
C243 C242 1.377 . S
C243 C244 1.379 . S
C244 H228 0.931 . S
C244 C238 1.383 . S
C244 C243 1.379 . S
H245 C239 0.959 . S
H246 C239 0.961 . S
H247 C239 0.960 . S
H248 C240 0.930 . S
H249 C241 0.929 . S
H250 C258 0.929 . S
H251 C260 0.930 . S
H252 C262 0.930 . S
H253 C265 0.929 . S
H254 C268 0.930 . S
H255 C270 0.960 . S
H256 C270 0.960 . S
H257 C270 0.960 . S
C258 H250 0.929 . S
C258 C259 1.377 . S
C258 C260 1.384 . S
C259 C258 1.377 . S
C259 C265 1.390 1_655 S
C260 H251 0.930 . S
C260 C258 1.384 . S
C260 C261 1.372 . S
C261 C260 1.372 . S
C261 C262 1.400 1_655 S
C261 C266 1.490 . S
C262 H252 0.930 . S
C262 C261 1.400 1_455 S
C262 C265 1.386 . S
H263 C279 0.930 . S
H264 C280 0.931 . S
C265 H253 0.929 . S
C265 C259 1.390 1_455 S
C265 C262 1.386 . S
C266 C261 1.490 . S
C266 C268 1.395 . S
C266 C269 1.403 1_655 S
H267 C273 0.930 . S
C268 H254 0.930 . S
C268 C266 1.395 . S
C268 C271 1.403 . S
C269 C266 1.403 1_455 S
C269 C270 1.524 . S
C269 C273 1.400 . S
C270 H255 0.960 . S
C270 H256 0.960 . S
C270 H257 0.960 . S
C270 C269 1.524 . S
C271 C268 1.403 . S
C271 C272 1.392 . S
C271 C275 1.495 . S
C272 C271 1.392 . S
C272 C273 1.385 1_655 S
C272 C274 1.478 . S
C273 H267 0.930 . S
C273 C269 1.400 . S
C273 C272 1.385 1_455 S
C274 C272 1.478 . S
C274 C276 1.381 . S
C274 C280 1.383 1_655 S
C275 C271 1.495 . S
C275 H281 0.959 . S
C275 H282 0.961 . S
C275 H283 0.960 . S
C276 C274 1.381 . S
C276 C277 1.394 . S
C276 H284 0.930 . S
C277 C276 1.394 . S
C277 C278 1.383 . S
C277 H285 0.929 . S
C278 C277 1.383 . S
C278 C279 1.377 1_655 S
C279 H263 0.930 . S
C279 C278 1.377 1_455 S
C279 C280 1.379 . S
C280 H264 0.931 . S
C280 C274 1.383 1_455 S
C280 C279 1.379 . S
H281 C275 0.959 . S
H282 C275 0.961 . S
H283 C275 0.960 . S
H284 C276 0.930 . S
H285 C277 0.929 . S
H286 C294 0.929 . S
H287 C296 0.930 . S
H288 C298 0.930 . S
H289 C301 0.929 . S
H290 C304 0.930 . S
H291 C306 0.960 . S
H292 C306 0.960 . S
H293 C306 0.960 . S
C294 H286 0.929 . S
C294 C295 1.377 1_565 S
C294 C296 1.384 . S
C295 C294 1.377 1_545 S
C295 C301 1.390 . S
C296 H287 0.930 . S
C296 C294 1.384 . S
C296 C297 1.372 . S
C297 C296 1.372 . S
C297 C298 1.400 1_565 S
C297 C302 1.490 . S
C298 H288 0.930 . S
C298 C297 1.400 1_545 S
C298 C301 1.386 . S
H299 C315 0.930 . S
H300 C316 0.931 . S
C301 H289 0.929 . S
C301 C295 1.390 . S
C301 C298 1.386 . S
C302 C297 1.490 . S
C302 C304 1.395 . S
C302 C305 1.403 1_565 S
H303 C309 0.930 . S
C304 H290 0.930 . S
C304 C302 1.395 . S
C304 C307 1.403 . S
C305 C302 1.403 1_545 S
C305 C306 1.524 . S
C305 C309 1.400 . S
C306 H291 0.960 . S
C306 H292 0.960 . S
C306 H293 0.960 . S
C306 C305 1.524 . S
C307 C304 1.403 . S
C307 C308 1.392 . S
C307 C311 1.495 . S
C308 C307 1.392 . S
C308 C309 1.385 1_565 S
C308 C310 1.478 . S
C309 H303 0.930 . S
C309 C305 1.400 . S
C309 C308 1.385 1_545 S
C310 C308 1.478 . S
C310 C312 1.381 . S
C310 C316 1.383 1_565 S
C311 C307 1.495 . S
C311 H317 0.959 . S
C311 H318 0.961 . S
C311 H319 0.960 . S
C312 C310 1.381 . S
C312 C313 1.394 . S
C312 H320 0.930 . S
C313 C312 1.394 . S
C313 C314 1.383 . S
C313 H321 0.929 . S
C314 C313 1.383 . S
C314 C315 1.377 1_565 S
C315 H299 0.930 . S
C315 C314 1.377 1_545 S
C315 C316 1.379 . S
C316 H300 0.931 . S
C316 C310 1.383 1_545 S
C316 C315 1.379 . S
H317 C311 0.959 . S
H318 C311 0.961 . S
H319 C311 0.960 . S
H320 C312 0.930 . S
H321 C313 0.929 . S
H322 C330 0.929 . S
H323 C332 0.930 . S
H324 C334 0.930 . S
H325 C337 0.929 . S
H326 C340 0.930 . S
H327 C342 0.960 . S
H328 C342 0.960 . S
H329 C342 0.960 . S
C330 H322 0.929 . S
C330 C331 1.377 1_655 S
C330 C332 1.384 . S
C331 C330 1.377 1_455 S
C331 C337 1.390 . S
C332 H323 0.930 . S
C332 C330 1.384 . S
C332 C333 1.372 1_655 S
C333 C332 1.372 1_455 S
C333 C334 1.400 . S
C333 C338 1.490 . S
C334 H324 0.930 . S
C334 C333 1.400 . S
C334 C337 1.386 . S
H335 C351 0.930 . S
H336 C352 0.931 . S
C337 H325 0.929 . S
C337 C331 1.390 . S
C337 C334 1.386 . S
C338 C333 1.490 . S
C338 C340 1.395 1_455 S
C338 C341 1.403 . S
H339 C345 0.930 . S
C340 H326 0.930 . S
C340 C338 1.395 1_655 S
C340 C343 1.403 . S
C341 C338 1.403 . S
C341 C342 1.524 . S
C341 C345 1.400 . S
C342 H327 0.960 . S
C342 H328 0.960 . S
C342 H329 0.960 . S
C342 C341 1.524 . S
C343 C340 1.403 . S
C343 C344 1.392 1_655 S
C343 C347 1.495 . S
C344 C343 1.392 1_455 S
C344 C345 1.385 . S
C344 C346 1.478 . S
C345 H339 0.930 . S
C345 C341 1.400 . S
C345 C344 1.385 . S
C346 C344 1.478 . S
C346 C348 1.381 1_455 S
C346 C352 1.383 . S
C347 C343 1.495 . S
C347 H353 0.959 . S
C347 H354 0.961 . S
C347 H355 0.960 . S
C348 C346 1.381 1_655 S
C348 C349 1.394 . S
C348 H356 0.930 . S
C349 C348 1.394 . S
C349 C350 1.383 1_655 S
C349 H357 0.929 . S
C350 C349 1.383 1_455 S
C350 C351 1.377 . S
C351 H335 0.930 . S
C351 C350 1.377 . S
C351 C352 1.379 . S
C352 H336 0.931 . S
C352 C346 1.383 . S
C352 C351 1.379 . S
H353 C347 0.959 . S
H354 C347 0.961 . S
H355 C347 0.960 . S
H356 C348 0.930 . S
H357 C349 0.929 . S
H358 C366 0.929 . S
H359 C368 0.930 . S
H360 C370 0.930 . S
H361 C373 0.929 . S
H362 C376 0.930 . S
H363 C378 0.960 . S
H364 C378 0.968 . S
H365 C378 0.960 . S
C366 H358 0.929 . S
C366 C367 1.377 . S
C366 C368 1.384 . S
C367 C366 1.377 . S
C367 C373 1.390 1_565 S
C368 H359 0.930 . S
C368 C366 1.384 . S
C368 C369 1.372 . S
C369 C368 1.372 . S
C369 C370 1.400 1_565 S
C369 C374 1.491 . S
C370 H360 0.930 . S
C370 C369 1.400 1_545 S
C370 C373 1.386 . S
H371 C387 0.930 . S
H372 C388 0.931 . S
C373 H361 0.929 . S
C373 C367 1.390 1_545 S
C373 C370 1.386 . S
C374 C369 1.491 . S
C374 C376 1.400 . S
C374 C377 1.397 1_565 S
H375 C381 0.930 . S
C376 H362 0.930 . S
C376 C374 1.400 . S
C376 C379 1.403 . S
C377 C374 1.397 1_545 S
C377 C378 1.524 . S
C377 C381 1.400 . S
C378 H363 0.960 . S
C378 H364 0.968 . S
C378 H365 0.960 . S
C378 C377 1.524 . S
C379 C376 1.403 . S
C379 C380 1.392 1_565 S
C379 C383 1.495 . S
C380 C379 1.392 1_545 S
C380 C381 1.385 . S
C380 C382 1.478 . S
C381 H375 0.930 . S
C381 C377 1.400 . S
C381 C380 1.385 . S
C382 C380 1.478 . S
C382 C384 1.381 1_545 S
C382 C388 1.383 . S
C383 C379 1.495 . S
C383 H389 0.959 . S
C383 H390 0.978 . S
C383 H391 0.960 . S
C384 C382 1.381 1_565 S
C384 C385 1.394 . S
C384 H392 0.930 . S
C385 C384 1.394 . S
C385 C386 1.383 1_565 S
C385 H393 0.929 . S
C386 C385 1.383 1_545 S
C386 C387 1.377 . S
C387 H371 0.930 . S
C387 C386 1.377 . S
C387 C388 1.379 . S
C388 H372 0.931 . S
C388 C382 1.383 . S
C388 C387 1.379 . S
H389 C383 0.959 . S
H390 C383 0.978 . S
H391 C383 0.960 . S
H392 C384 0.930 . S
H393 C385 0.929 . S
H394 C402 0.929 . S
H395 C404 0.930 . S
H396 C406 0.930 . S
H397 C409 0.929 . S
H398 C412 0.930 . S
H399 C414 0.960 . S
H400 C414 0.960 . S
H401 C414 0.960 . S
C402 H394 0.929 . S
C402 C403 1.377 1_556 S
C402 C404 1.384 . S
C403 C402 1.377 1_554 S
C403 C409 1.390 . S
C404 H395 0.930 . S
C404 C402 1.384 . S
C404 C405 1.372 1_556 S
C405 C404 1.372 1_554 S
C405 C406 1.400 . S
C405 C410 1.490 . S
C406 H396 0.930 . S
C406 C405 1.400 . S
C406 C409 1.386 . S
H407 C423 0.930 . S
H408 C424 0.931 . S
C409 H397 0.929 . S
C409 C403 1.390 . S
C409 C406 1.386 . S
C410 C405 1.490 . S
C410 C412 1.395 1_554 S
C410 C413 1.403 . S
H411 C417 0.930 . S
C412 H398 0.930 . S
C412 C410 1.395 1_556 S
C412 C415 1.403 . S
C413 C410 1.403 . S
C413 C414 1.524 . S
C413 C417 1.400 . S
C414 H399 0.960 . S
C414 H400 0.960 . S
C414 H401 0.960 . S
C414 C413 1.524 . S
C415 C412 1.403 . S
C415 C416 1.392 1_556 S
C415 C419 1.495 . S
C416 C415 1.392 1_554 S
C416 C417 1.385 . S
C416 C418 1.478 . S
C417 H411 0.930 . S
C417 C413 1.400 . S
C417 C416 1.385 . S
C418 C416 1.478 . S
C418 C420 1.381 1_554 S
C418 C424 1.383 . S
C419 C415 1.495 . S
C419 H425 0.959 . S
C419 H426 0.961 . S
C419 H427 0.960 . S
C420 C418 1.381 1_556 S
C420 C421 1.394 . S
C420 H428 0.930 . S
C421 C420 1.394 . S
C421 C422 1.383 1_556 S
C421 H429 0.929 . S
C422 C421 1.383 1_554 S
C422 C423 1.377 . S
C423 H407 0.930 . S
C423 C422 1.377 . S
C423 C424 1.379 . S
C424 H408 0.931 . S
C424 C418 1.383 . S
C424 C423 1.379 . S
H425 C419 0.959 . S
H426 C419 0.961 . S
H427 C419 0.960 . S
H428 C420 0.930 . S
H429 C421 0.929 . S
H430 C438 0.929 . S
H431 C440 0.930 . S
H432 C442 0.930 . S
H433 C445 0.929 . S
H434 C448 0.930 . S
H435 C450 0.960 . S
H436 C450 0.960 . S
H437 C450 0.960 1_554 S
C438 H430 0.929 . S
C438 C439 1.377 1_556 S
C438 C440 1.384 . S
C439 C438 1.377 1_554 S
C439 C445 1.390 . S
C440 H431 0.930 . S
C440 C438 1.384 . S
C440 C441 1.372 1_556 S
C441 C440 1.372 1_554 S
C441 C442 1.400 . S
C441 C446 1.490 . S
C442 H432 0.930 . S
C442 C441 1.400 . S
C442 C445 1.386 . S
H443 C459 0.930 . S
H444 C460 0.931 . S
C445 H433 0.929 . S
C445 C439 1.390 . S
C445 C442 1.386 . S
C446 C441 1.490 . S
C446 C448 1.395 . S
C446 C449 1.403 . S
H447 C453 0.930 . S
C448 H434 0.930 . S
C448 C446 1.395 . S
C448 C451 1.403 . S
C449 C446 1.403 . S
C449 C450 1.524 1_554 S
C449 C453 1.400 . S
C450 H435 0.960 . S
C450 H436 0.960 . S
C450 H437 0.960 1_556 S
C450 C449 1.524 1_556 S
C451 C448 1.403 . S
C451 C452 1.392 . S
C451 C455 1.495 . S
C452 C451 1.392 . S
C452 C453 1.385 . S
C452 C454 1.478 . S
C453 H447 0.930 . S
C453 C449 1.400 . S
C453 C452 1.385 . S
C454 C452 1.478 . S
C454 C456 1.381 1_554 S
C454 C460 1.383 . S
C455 C451 1.495 . S
C455 H461 0.959 . S
C455 H462 0.961 . S
C455 H463 0.960 . S
C456 C454 1.381 1_556 S
C456 C457 1.394 . S
C456 H464 0.930 . S
C457 C456 1.394 . S
C457 C458 1.383 1_556 S
C457 H465 0.929 . S
C458 C457 1.383 1_554 S
C458 C459 1.377 . S
C459 H443 0.930 . S
C459 C458 1.377 . S
C459 C460 1.379 . S
C460 H444 0.931 . S
C460 C454 1.383 . S
C460 C459 1.379 . S
H461 C455 0.959 . S
H462 C455 0.961 . S
H463 C455 0.960 . S
H464 C456 0.930 . S
H465 C457 0.929 . S
H466 C474 0.929 . S
H467 C476 0.930 . S
H468 C478 0.930 . S
H469 C481 0.929 . S
H470 C484 0.930 . S
H471 C486 0.960 . S
H472 C486 0.960 . S
H473 C486 0.960 . S
C474 H466 0.929 . S
C474 C475 1.377 1_556 S
C474 C476 1.384 . S
C475 C474 1.377 1_554 S
C475 C481 1.390 . S
C476 H467 0.930 . S
C476 C474 1.384 . S
C476 C477 1.372 1_556 S
C477 C476 1.372 1_554 S
C477 C478 1.400 . S
C477 C482 1.490 . S
C478 H468 0.930 . S
C478 C477 1.400 . S
C478 C481 1.386 . S
H479 C495 0.930 . S
H480 C496 0.931 . S
C481 H469 0.929 . S
C481 C475 1.390 . S
C481 C478 1.386 . S
C482 C477 1.490 . S
C482 C484 1.395 1_554 S
C482 C485 1.403 . S
H483 C489 0.930 . S
C484 H470 0.930 . S
C484 C482 1.395 1_556 S
C484 C487 1.403 . S
C485 C482 1.403 . S
C485 C486 1.524 . S
C485 C489 1.400 . S
C486 H471 0.960 . S
C486 H472 0.960 . S
C486 H473 0.960 . S
C486 C485 1.524 . S
C487 C484 1.403 . S
C487 C488 1.392 1_556 S
C487 C491 1.495 . S
C488 C487 1.392 1_554 S
C488 C489 1.385 . S
C488 C490 1.478 . S
C489 H483 0.930 . S
C489 C485 1.400 . S
C489 C488 1.385 . S
C490 C488 1.478 . S
C490 C492 1.381 1_554 S
C490 C496 1.383 . S
C491 C487 1.495 . S
C491 H497 0.959 . S
C491 H498 0.961 . S
C491 H499 0.960 . S
C492 C490 1.381 1_556 S
C492 C493 1.394 . S
C492 H500 0.930 . S
C493 C492 1.394 . S
C493 C494 1.383 1_556 S
C493 H501 0.929 . S
C494 C493 1.383 1_554 S
C494 C495 1.377 . S
C495 H479 0.930 . S
C495 C494 1.377 . S
C495 C496 1.379 . S
C496 H480 0.931 . S
C496 C490 1.383 . S
C496 C495 1.379 . S
H497 C491 0.959 . S
H498 C491 0.961 . S
H499 C491 0.960 . S
H500 C492 0.930 . S
H501 C493 0.929 . S
H502 C510 0.929 . S
H503 C512 0.930 . S
H504 C514 0.930 . S
H505 C517 0.929 . S
H506 C520 0.930 . S
H507 C522 0.960 . S
H508 C522 0.960 . S
H509 C522 0.960 . S
C510 H502 0.929 . S
C510 C511 1.377 . S
C510 C512 1.384 . S
C511 C510 1.377 . S
C511 C517 1.390 1_554 S
C512 H503 0.930 . S
C512 C510 1.384 . S
C512 C513 1.372 . S
C513 C512 1.372 . S
C513 C514 1.400 1_554 S
C513 C518 1.490 . S
C514 H504 0.930 . S
C514 C513 1.400 1_556 S
C514 C517 1.386 . S
H515 C531 0.930 . S
H516 C532 0.931 . S
C517 H505 0.929 . S
C517 C511 1.390 1_556 S
C517 C514 1.386 . S
C518 C513 1.490 . S
C518 C520 1.395 . S
C518 C521 1.403 . S
H519 C525 0.930 . S
C520 H506 0.930 . S
C520 C518 1.395 . S
C520 C523 1.403 . S
C521 C518 1.403 . S
C521 C522 1.524 . S
C521 C525 1.400 . S
C522 H507 0.960 . S
C522 H508 0.960 . S
C522 H509 0.960 . S
C522 C521 1.524 . S
C523 C520 1.403 . S
C523 C524 1.392 . S
C523 C527 1.495 . S
C524 C523 1.392 . S
C524 C525 1.385 . S
C524 C526 1.478 . S
C525 H519 0.930 . S
C525 C521 1.400 . S
C525 C524 1.385 . S
C526 C524 1.478 . S
C526 C528 1.381 . S
C526 C532 1.383 1_554 S
C527 C523 1.495 . S
C527 H533 0.959 . S
C527 H534 0.961 1_554 S
C527 H535 0.960 . S
C528 C526 1.381 . S
C528 C529 1.394 . S
C528 H536 0.930 . S
C529 C528 1.394 . S
C529 C530 1.383 . S
C529 H537 0.929 . S
C530 C529 1.383 . S
C530 C531 1.377 1_554 S
C531 H515 0.930 . S
C531 C530 1.377 1_556 S
C531 C532 1.379 . S
C532 H516 0.931 . S
C532 C526 1.383 1_556 S
C532 C531 1.379 . S
H533 C527 0.959 . S
H534 C527 0.961 1_556 S
H535 C527 0.960 . S
H536 C528 0.930 . S
H537 C529 0.929 . S
C134 C90 2.077 . S
C115 C7 2.170 . S
C170 C86 1.207 . S
C151 C34 1.276 . S
C206 C96 2.108 1_655 S
C187 C14 2.181 . S
C242 C80 1.215 1_565 S
C223 C32 1.283 . S
C259 C16 2.295 . S
C278 C72 2.192 . S
C314 C104 1.322 . S
C295 C25 1.408 . S
C331 C8 2.297 . S
C350 C58 2.195 . S
C367 C26 1.402 . S
C386 C102 1.343 . S
C403 C50 0.979 . S
C422 C84 0.952 . S
C439 C43 1.007 . S
C458 C99 0.963 . S
C494 C93 0.981 . S
C475 C52 0.995 . S
C530 C88 0.988 . S
C511 C44 0.967 . S
