# Generated by pormake.
# Topology pto, (3,4)-cn, num edge types: 1
# Building blocks:
#     Node 0, Type 0, BuildingBlock: BELTOD_clean_linker_0, # of connection points: 3
#     Node 1, Type 0, BuildingBlock: BELTOD_clean_linker_0, # of connection points: 3
#     Node 2, Type 0, BuildingBlock: BELTOD_clean_linker_0, # of connection points: 3
#     Node 3, Type 0, BuildingBlock: BELTOD_clean_linker_0, # of connection points: 3
#     Node 4, Type 0, BuildingBlock: BELTOD_clean_linker_0, # of connection points: 3
#     Node 5, Type 0, BuildingBlock: BELTOD_clean_linker_0, # of connection points: 3
#     Node 6, Type 0, BuildingBlock: BELTOD_clean_linker_0, # of connection points: 3
#     Node 7, Type 0, BuildingBlock: BELTOD_clean_linker_0, # of connection points: 3
#     Node 8, Type 1, BuildingBlock: NAWXER_clean_sbu_0, # of connection points: 4
#     Node 9, Type 1, BuildingBlock: NAWXER_clean_sbu_0, # of connection points: 4
#     Node 10, Type 1, BuildingBlock: NAWXER_clean_sbu_0, # of connection points: 4
#     Node 11, Type 1, BuildingBlock: NAWXER_clean_sbu_0, # of connection points: 4
#     Node 12, Type 1, BuildingBlock: NAWXER_clean_sbu_0, # of connection points: 4
#     Node 13, Type 1, BuildingBlock: NAWXER_clean_sbu_0, # of connection points: 4
#     Edge 14, Type (0, 1), BuildingBlock: TEMPAE_clean_linker_10, # of connection points: 2
#     Edge 15, Type (0, 1), BuildingBlock: TEMPAE_clean_linker_10, # of connection points: 2
#     Edge 16, Type (0, 1), BuildingBlock: TEMPAE_clean_linker_10, # of connection points: 2
#     Edge 17, Type (0, 1), BuildingBlock: TEMPAE_clean_linker_10, # of connection points: 2
#     Edge 18, Type (0, 1), BuildingBlock: TEMPAE_clean_linker_10, # of connection points: 2
#     Edge 19, Type (0, 1), BuildingBlock: TEMPAE_clean_linker_10, # of connection points: 2
#     Edge 20, Type (0, 1), BuildingBlock: TEMPAE_clean_linker_10, # of connection points: 2
#     Edge 21, Type (0, 1), BuildingBlock: TEMPAE_clean_linker_10, # of connection points: 2
#     Edge 22, Type (0, 1), BuildingBlock: TEMPAE_clean_linker_10, # of connection points: 2
#     Edge 23, Type (0, 1), BuildingBlock: TEMPAE_clean_linker_10, # of connection points: 2
#     Edge 24, Type (0, 1), BuildingBlock: TEMPAE_clean_linker_10, # of connection points: 2
#     Edge 25, Type (0, 1), BuildingBlock: TEMPAE_clean_linker_10, # of connection points: 2
#     Edge 26, Type (0, 1), BuildingBlock: TEMPAE_clean_linker_10, # of connection points: 2
#     Edge 27, Type (0, 1), BuildingBlock: TEMPAE_clean_linker_10, # of connection points: 2
#     Edge 28, Type (0, 1), BuildingBlock: TEMPAE_clean_linker_10, # of connection points: 2
#     Edge 29, Type (0, 1), BuildingBlock: TEMPAE_clean_linker_10, # of connection points: 2
#     Edge 30, Type (0, 1), BuildingBlock: TEMPAE_clean_linker_10, # of connection points: 2
#     Edge 31, Type (0, 1), BuildingBlock: TEMPAE_clean_linker_10, # of connection points: 2
#     Edge 32, Type (0, 1), BuildingBlock: TEMPAE_clean_linker_10, # of connection points: 2
#     Edge 33, Type (0, 1), BuildingBlock: TEMPAE_clean_linker_10, # of connection points: 2
#     Edge 34, Type (0, 1), BuildingBlock: TEMPAE_clean_linker_10, # of connection points: 2
#     Edge 35, Type (0, 1), BuildingBlock: TEMPAE_clean_linker_10, # of connection points: 2
#     Edge 36, Type (0, 1), BuildingBlock: TEMPAE_clean_linker_10, # of connection points: 2
#     Edge 37, Type (0, 1), BuildingBlock: TEMPAE_clean_linker_10, # of connection points: 2
# Relax obj value: 0.000
# Max RMSD: 0.008
# Mean RMSD: 0.005
data_MOF--net-pto--node1-NAWXER_clean_sbu_0--node2-BELTOD_clean_linker_0--edge1-TEMPAE_clean_linker_10
_symmetry_space_group_name_H-M    P1
_symmetry_Int_Tables_number       1
_symmetry_cell_setting            triclinic
loop_
_symmetry_equiv_pos_as_xyz
'x, y, z'
_cell_length_a     50.403513
_cell_length_b     47.455413
_cell_length_c     44.175783
_cell_angle_alpha  89.117979
_cell_angle_beta   91.542985
_cell_angle_gamma 92.05799
loop_
_atom_site_label
_atom_site_type_symbol
_atom_site_fract_x
_atom_site_fract_y
_atom_site_fract_z
_atom_type_partial_charge
P0 P 0.271 0.30937 0.24269 0.0
H1 H 0.29919 0.34132 0.19584 0.0
H2 H 0.328 0.32736 0.15534 0.0
H3 H 0.3121 0.23975 0.17831 0.0
H4 H 0.28295 0.25368 0.21828 0.0
H5 H 0.22199 0.30946 0.27677 0.0
H6 H 0.17948 0.33144 0.26706 0.0
H7 H 0.20548 0.35897 0.17876 0.0
H8 H 0.24788 0.33652 0.18836 0.0
H9 H 0.30608 0.29774 0.29469 0.0
H10 H 0.23682 0.2586 0.25132 0.0
O11 O 0.28736 0.33726 0.25759 0.0
H12 H 0.30826 0.25836 0.33086 0.0
H13 H 0.23877 0.2191 0.28763 0.0
C14 C 0.2891 0.29863 0.21037 0.0
C15 C 0.30153 0.3191 0.19184 0.0
C16 C 0.31793 0.31111 0.16867 0.0
C17 C 0.3224 0.28247 0.16386 0.0
C18 C 0.30918 0.26197 0.18175 0.0
C19 C 0.29247 0.26998 0.20462 0.0
C20 C 0.23796 0.32058 0.23298 0.0
C21 C 0.21829 0.31935 0.25489 0.0
C22 C 0.19397 0.33203 0.24937 0.0
C23 C 0.18911 0.34685 0.2221 0.0
C24 C 0.20869 0.34771 0.19999 0.0
C25 C 0.23288 0.33468 0.20539 0.0
C26 C 0.27093 0.28138 0.27077 0.0
C27 C 0.29108 0.28088 0.29325 0.0
C28 C 0.29232 0.25834 0.31391 0.0
C29 C 0.27365 0.23567 0.31215 0.0
C30 C 0.25354 0.23619 0.28944 0.0
C31 C 0.25222 0.25885 0.2689 0.0
P32 P 0.27746 0.72658 0.70645 0.0
H33 H 0.23502 0.71779 0.66135 0.0
H34 H 0.19191 0.69233 0.66244 0.0
H35 H 0.20405 0.67535 0.758 0.0
H36 H 0.24678 0.70116 0.75696 0.0
H37 H 0.3123 0.74942 0.65947 0.0
H38 H 0.31405 0.79447 0.6318 0.0
H39 H 0.24455 0.82005 0.67789 0.0
H40 H 0.24287 0.77481 0.70549 0.0
H41 H 0.29505 0.68913 0.75551 0.0
H42 H 0.29748 0.77872 0.73663 0.0
O43 O 0.29517 0.70323 0.68857 0.0
H44 H 0.32074 0.69737 0.80271 0.0
H45 H 0.32377 0.78672 0.78303 0.0
C46 C 0.24418 0.71152 0.70905 0.0
C47 C 0.22818 0.70905 0.68267 0.0
C48 C 0.20356 0.69449 0.68329 0.0
C49 C 0.19471 0.68169 0.71026 0.0
C50 C 0.21053 0.68471 0.73681 0.0
C51 C 0.235 0.69957 0.73623 0.0
C52 C 0.27714 0.75862 0.68407 0.0
C53 C 0.29719 0.76453 0.66328 0.0
C54 C 0.29821 0.79029 0.64753 0.0
C55 C 0.27944 0.81076 0.65269 0.0
C56 C 0.25939 0.80475 0.67362 0.0
C57 C 0.25824 0.77885 0.68915 0.0
C58 C 0.29397 0.73324 0.74259 0.0
C59 C 0.30072 0.71055 0.76168 0.0
C60 C 0.31539 0.71525 0.78857 0.0
C61 C 0.32415 0.74268 0.7964 0.0
C62 C 0.31724 0.76539 0.77742 0.0
C63 C 0.30211 0.76075 0.75087 0.0
P64 P 0.79345 0.78693 0.19012 0.0
H65 H 0.83456 0.7995 0.23599 0.0
H66 H 0.83402 0.82348 0.28482 0.0
H67 H 0.74891 0.82914 0.27568 0.0
H68 H 0.74935 0.80467 0.22763 0.0
H69 H 0.83208 0.7639 0.14997 0.0
H70 H 0.8579 0.72128 0.15248 0.0
H71 H 0.81795 0.69489 0.23399 0.0
H72 H 0.79202 0.7377 0.23124 0.0
H73 H 0.75696 0.82937 0.16935 0.0
H74 H 0.758 0.73852 0.17225 0.0
O75 O 0.81127 0.81046 0.16997 0.0
H76 H 0.71185 0.82694 0.14734 0.0
H77 H 0.71299 0.73602 0.14958 0.0
C78 C 0.79209 0.80055 0.22792 0.0
C79 C 0.81575 0.80548 0.24477 0.0
C80 C 0.81543 0.81913 0.27262 0.0
C81 C 0.79146 0.82841 0.28375 0.0
C82 C 0.7677 0.82253 0.26735 0.0
C83 C 0.76798 0.80854 0.23978 0.0
C84 C 0.81049 0.75417 0.19072 0.0
C85 C 0.82878 0.74892 0.16833 0.0
C86 C 0.8436 0.72459 0.16984 0.0
C87 C 0.84019 0.70487 0.19363 0.0
C88 C 0.82098 0.70963 0.21535 0.0
C89 C 0.80625 0.73412 0.2139 0.0
C90 C 0.76085 0.78416 0.17236 0.0
C91 C 0.74754 0.8089 0.16501 0.0
C92 C 0.72176 0.80751 0.15262 0.0
C93 C 0.70897 0.78131 0.14685 0.0
C94 C 0.7225 0.75649 0.1537 0.0
C95 C 0.74819 0.75791 0.16666 0.0
P96 P 0.79482 0.2275 0.79166 0.0
H97 H 0.77478 0.20811 0.85006 0.0
H98 H 0.732 0.21122 0.87378 0.0
H99 H 0.70251 0.25835 0.7962 0.0
H100 H 0.74553 0.2544 0.77211 0.0
H101 H 0.78671 0.16666 0.78991 0.0
H102 H 0.7823 0.13318 0.74854 0.0
H103 H 0.78807 0.20237 0.68383 0.0
H104 H 0.79057 0.23563 0.72536 0.0
H105 H 0.78562 0.28747 0.80397 0.0
H106 H 0.84032 0.23936 0.75413 0.0
O107 O 0.81582 0.21281 0.81658 0.0
H108 H 0.81046 0.33096 0.79071 0.0
H109 H 0.86473 0.28266 0.74006 0.0
C110 C 0.76348 0.23148 0.80954 0.0
C111 C 0.75923 0.21932 0.83818 0.0
C112 C 0.7347 0.22119 0.85181 0.0
C113 C 0.71382 0.23525 0.83706 0.0
C114 C 0.71808 0.2472 0.80812 0.0
C115 C 0.7427 0.24521 0.79443 0.0
C116 C 0.7898 0.20352 0.76071 0.0
C117 C 0.78687 0.17456 0.76677 0.0
C118 C 0.78459 0.15543 0.74304 0.0
C119 C 0.78541 0.16492 0.7127 0.0
C120 C 0.78729 0.19417 0.70681 0.0
C121 C 0.78908 0.21329 0.73061 0.0
C122 C 0.81074 0.26021 0.77942 0.0
C123 C 0.80257 0.28629 0.78959 0.0
C124 C 0.8168 0.31118 0.78193 0.0
C125 C 0.8396 0.31034 0.76427 0.0
C126 C 0.84746 0.2841 0.75393 0.0
C127 C 0.83333 0.25933 0.76171 0.0
P128 P 0.75519 0.76305 0.81212 0.0
H129 H 0.74793 0.71568 0.85405 0.0
H130 H 0.70857 0.69412 0.87748 0.0
H131 H 0.65872 0.7484 0.82319 0.0
H132 H 0.69808 0.76997 0.79998 0.0
H133 H 0.81149 0.76517 0.82989 0.0
H134 H 0.84675 0.73169 0.82512 0.0
H135 H 0.79217 0.67525 0.77648 0.0
H136 H 0.75677 0.70869 0.78202 0.0
H137 H 0.76855 0.82137 0.79519 0.0
H138 H 0.73013 0.74875 0.75322 0.0
O139 O 0.76447 0.78519 0.83976 0.0
H140 H 0.76127 0.84906 0.74908 0.0
H141 H 0.72212 0.77667 0.70685 0.0
C142 C 0.72593 0.74399 0.82476 0.0
C143 C 0.72849 0.72243 0.8466 0.0
C144 C 0.70602 0.71022 0.86009 0.0
C145 C 0.68058 0.71947 0.85203 0.0
C146 C 0.67803 0.74046 0.82942 0.0
C147 C 0.70055 0.75283 0.81614 0.0
C148 C 0.78147 0.73916 0.8067 0.0
C149 C 0.80711 0.7456 0.81819 0.0
C150 C 0.82731 0.72651 0.81527 0.0
C151 C 0.82224 0.7007 0.8006 0.0
C152 C 0.7966 0.69471 0.78838 0.0
C153 C 0.77641 0.71386 0.79133 0.0
C154 C 0.74947 0.78314 0.77779 0.0
C155 C 0.75827 0.81143 0.77612 0.0
C156 C 0.75394 0.82733 0.74972 0.0
C157 C 0.74075 0.81524 0.72436 0.0
C158 C 0.73238 0.78663 0.72593 0.0
C159 C 0.73683 0.77068 0.75243 0.0
P160 P 0.76135 0.24655 0.24212 0.0
H161 H 0.80616 0.24661 0.28496 0.0
H162 H 0.83772 0.28383 0.30191 0.0
H163 H 0.79178 0.34555 0.25267 0.0
H164 H 0.75999 0.30861 0.23694 0.0
H165 H 0.7562 0.18529 0.24124 0.0
H166 H 0.74315 0.14994 0.27895 0.0
H167 H 0.72631 0.21611 0.34114 0.0
H168 H 0.74054 0.25149 0.30332 0.0
H169 H 0.76051 0.27492 0.18354 0.0
H170 H 0.70324 0.24725 0.24943 0.0
O171 O 0.7817 0.23047 0.21931 0.0
H172 H 0.7248 0.29162 0.15025 0.0
H173 H 0.66724 0.26288 0.21575 0.0
C174 C 0.78076 0.27475 0.25963 0.0
C175 C 0.80256 0.26828 0.2785 0.0
C176 C 0.82071 0.28955 0.28794 0.0
C177 C 0.81749 0.31768 0.27839 0.0
C178 C 0.7948 0.32421 0.26074 0.0
C179 C 0.77662 0.30295 0.25148 0.0
C180 C 0.74987 0.22094 0.26975 0.0
C181 C 0.74973 0.19222 0.26299 0.0
C182 C 0.74192 0.17198 0.28454 0.0
C183 C 0.73365 0.18008 0.31322 0.0
C184 C 0.73295 0.20907 0.3195 0.0
C185 C 0.74099 0.22933 0.29791 0.0
C186 C 0.73451 0.25948 0.21871 0.0
C187 C 0.74019 0.27232 0.19076 0.0
C188 C 0.71973 0.28177 0.1717 0.0
C189 C 0.69308 0.27834 0.18013 0.0
C190 C 0.68753 0.2661 0.20863 0.0
C191 C 0.7081 0.25688 0.22782 0.0
P192 P 0.25744 0.31678 0.72091 0.0
H193 H 0.22211 0.30437 0.66962 0.0
H194 H 0.20975 0.26093 0.64289 0.0
H195 H 0.25663 0.21356 0.70782 0.0
H196 H 0.26826 0.25704 0.7349 0.0
H197 H 0.25468 0.37349 0.7435 0.0
H198 H 0.21882 0.40021 0.76367 0.0
H199 H 0.1652 0.32768 0.75267 0.0
H200 H 0.20156 0.30073 0.73385 0.0
H201 H 0.31263 0.30207 0.7157 0.0
H202 H 0.26039 0.32213 0.78741 0.0
O203 O 0.26966 0.33717 0.69312 0.0
H204 H 0.3499 0.30048 0.75218 0.0
H205 H 0.29762 0.32203 0.82367 0.0
C206 C 0.2463 0.28397 0.704 0.0
C207 C 0.22945 0.28456 0.67828 0.0
C208 C 0.22252 0.25973 0.66295 0.0
C209 C 0.23244 0.23378 0.67299 0.0
C210 C 0.24849 0.23314 0.69958 0.0
C211 C 0.25533 0.25805 0.71498 0.0
C212 C 0.23067 0.33534 0.73671 0.0
C213 C 0.23521 0.36333 0.74559 0.0
C214 C 0.21465 0.3786 0.75701 0.0
C215 C 0.18899 0.36623 0.75948 0.0
C216 C 0.18473 0.33782 0.75133 0.0
C217 C 0.20546 0.32245 0.7402 0.0
C218 C 0.28386 0.31261 0.74872 0.0
C219 C 0.30921 0.30614 0.73931 0.0
C220 C 0.33054 0.30553 0.76017 0.0
C221 C 0.32692 0.31158 0.79086 0.0
C222 C 0.30119 0.31711 0.80031 0.0
C223 C 0.27983 0.31741 0.77947 0.0
P224 P 0.26933 0.72959 0.30956 0.0
H225 H 0.32012 0.75809 0.2976 0.0
H226 H 0.35033 0.75672 0.25526 0.0
H227 H 0.29402 0.70171 0.20726 0.0
H228 H 0.26375 0.70379 0.24919 0.0
H229 H 0.24082 0.74512 0.36217 0.0
H230 H 0.22768 0.79012 0.38195 0.0
H231 H 0.26207 0.83334 0.30476 0.0
H232 H 0.27433 0.78796 0.28457 0.0
H233 H 0.25602 0.67139 0.32778 0.0
H234 H 0.2186 0.73866 0.27794 0.0
O235 O 0.28771 0.71572 0.33763 0.0
H236 H 0.21591 0.64154 0.32127 0.0
H237 H 0.17849 0.7086 0.27052 0.0
C238 C 0.28958 0.73132 0.2765 0.0
C239 C 0.31413 0.74613 0.27772 0.0
C240 C 0.33148 0.74507 0.25363 0.0
C241 C 0.3247 0.72892 0.22791 0.0
C242 C 0.29977 0.71459 0.22654 0.0
C243 C 0.28241 0.71574 0.25063 0.0
C244 C 0.25894 0.76325 0.32223 0.0
C245 C 0.24542 0.76429 0.34943 0.0
C246 C 0.23801 0.79005 0.36077 0.0
C247 C 0.24412 0.81541 0.34516 0.0
C248 C 0.25695 0.8142 0.31729 0.0
C249 C 0.26423 0.78828 0.30586 0.0
C250 C 0.24007 0.70732 0.30371 0.0
C251 C 0.23916 0.6797 0.31534 0.0
C252 C 0.21626 0.66257 0.31138 0.0
C253 C 0.19393 0.6727 0.29544 0.0
C254 C 0.19516 0.70032 0.28334 0.0
C255 C 0.21808 0.71746 0.28742 0.0
C256 C 0.96144 0.46971 0.27187 0.0
C257 C 0.03212 0.54256 0.27147 0.0
O258 O 0.97324 0.48138 0.2944 0.0
Zn259 Zn 0.99685 0.50631 0.27188 0.0
O260 O 0.9682 0.47692 0.24498 0.0
Zn261 Zn 0.99624 0.50562 0.22397 0.0
O262 O 0.01893 0.48064 0.20288 0.0
O263 O 0.02412 0.47818 0.25254 0.0
O264 O 0.02474 0.53506 0.24464 0.0
O265 O 0.02088 0.53114 0.29421 0.0
O266 O 0.97055 0.53555 0.24983 0.0
O267 O 0.97346 0.53019 0.20055 0.0
C268 C 0.03066 0.4704 0.22616 0.0
C269 C 0.9635 0.54254 0.22268 0.0
C270 C 0.96056 0.48292 0.74235 0.0
C271 C 0.03005 0.55688 0.73 0.0
O272 O 0.97014 0.4925 0.76751 0.0
Zn273 Zn 0.99941 0.52336 0.78314 0.0
O274 O 0.96927 0.49301 0.71753 0.0
Zn275 Zn 0.99486 0.52004 0.73507 0.0
O276 O 0.02291 0.49272 0.75603 0.0
O277 O 0.02489 0.50046 0.8052 0.0
O278 O 0.01741 0.54355 0.70908 0.0
O279 O 0.02485 0.55127 0.75773 0.0
O280 O 0.97829 0.54915 0.80478 0.0
O281 O 0.96979 0.54957 0.7555 0.0
C282 C 0.03264 0.48718 0.78246 0.0
C283 C 0.96529 0.55867 0.78201 0.0
C284 C 0.27096 0.9934 0.53387 0.0
C285 C 0.26954 0.07178 0.46054 0.0
O286 O 0.24751 1.00054 0.52573 0.0
Zn287 Zn 0.22874 0.03081 0.49674 0.0
O288 O 0.29097 0.00717 0.52357 0.0
Zn289 Zn 0.2713 0.0331 0.49779 0.0
O290 O 0.25306 0.05914 0.52972 0.0
O291 O 0.20956 0.05332 0.52478 0.0
O292 O 0.28996 0.06057 0.47241 0.0
O293 O 0.24635 0.06244 0.46781 0.0
O294 O 0.20972 0.00602 0.46818 0.0
O295 O 0.25332 0.00502 0.46519 0.0
C296 C 0.22973 0.06516 0.53784 0.0
C297 C 0.23011 0.99633 0.45614 0.0
C298 C 0.52669 0.76533 0.04837 0.0
C299 C 0.45367 0.75514 0.97379 0.0
O300 O 0.5183 0.73969 0.04511 0.0
Zn301 Zn 0.48836 0.71656 0.01916 0.0
O302 O 0.51512 0.78498 0.03392 0.0
Zn303 Zn 0.48888 0.76129 0.01266 0.0
O304 O 0.46367 0.74591 0.04769 0.0
O305 O 0.46556 0.6996 0.04974 0.0
O306 O 0.46424 0.77802 0.98371 0.0
O307 O 0.46095 0.73152 0.98512 0.0
O308 O 0.51058 0.69318 0.9952 0.0
O309 O 0.5142 0.73867 0.98422 0.0
C310 C 0.45632 0.72219 0.05958 0.0
C311 C 0.52098 0.71333 0.97968 0.0
C312 C 0.73854 0.94698 0.54345 0.0
C313 C 0.73357 0.0212 0.46556 0.0
O314 O 0.71772 0.95622 0.53041 0.0
Zn315 Zn 0.73536 0.98362 0.50425 0.0
O316 O 0.76141 0.95701 0.53575 0.0
Zn317 Zn 0.77751 0.98801 0.50449 0.0
O318 O 0.79602 0.01453 0.53109 0.0
O319 O 0.75257 0.01287 0.53654 0.0
O320 O 0.75741 0.01542 0.4735 0.0
O321 O 0.71425 0.00796 0.47795 0.0
O322 O 0.75468 0.95709 0.47313 0.0
O323 O 0.79788 0.96604 0.47772 0.0
C324 C 0.7757 0.02281 0.54437 0.0
C325 C 0.77844 0.95248 0.46523 0.0
C326 C 0.54366 0.29866 0.02741 0.0
C327 C 0.47933 0.30346 0.94275 0.0
O328 O 0.53431 0.27448 0.01889 0.0
Zn329 Zn 0.50736 0.2571 0.98515 0.0
O330 O 0.53621 0.32086 0.01358 0.0
Zn331 Zn 0.5119 0.30216 0.9849 0.0
O332 O 0.48207 0.28479 0.01402 0.0
O333 O 0.48005 0.23848 0.00942 0.0
O334 O 0.49105 0.32414 0.95611 0.0
O335 O 0.48407 0.27822 0.95144 0.0
O336 O 0.53073 0.23516 0.96128 0.0
O337 O 0.53881 0.28102 0.95698 0.0
C338 C 0.47172 0.26065 0.0213 0.0
C339 C 0.54419 0.25576 0.95001 0.0
C340 C 0.1664 0.39155 0.20856 0.0
C341 C 0.16462 0.36319 0.21794 0.0
C342 C 0.14392 0.40824 0.20756 0.0
C343 C 0.11897 0.3962 0.2158 0.0
C344 C 0.11686 0.36724 0.22402 0.0
C345 C 0.13975 0.35115 0.22524 0.0
C346 C 0.14715 0.4391 0.19911 0.0
C347 C 0.09058 0.35349 0.23251 0.0
C348 C 0.0694 0.44514 0.2484 0.0
C349 C 0.0526 0.45062 0.2233 0.0
C350 C 0.09093 0.42744 0.2462 0.0
C351 C 0.09567 0.41445 0.21832 0.0
C352 C 0.07855 0.41946 0.19298 0.0
C353 C 0.05732 0.43767 0.1957 0.0
C354 C 0.10889 0.42301 0.27367 0.0
C355 C 0.08275 0.40568 0.163 0.0
H356 H 0.18562 0.40105 0.20324 0.0
H357 H 0.13827 0.32917 0.23226 0.0
H358 H 0.13261 0.44468 0.18089 0.0
H359 H 0.14306 0.45212 0.219 0.0
H360 H 0.16746 0.44478 0.19135 0.0
H361 H 0.09177 0.33028 0.23546 0.0
H362 H 0.084 0.36239 0.25403 0.0
H363 H 0.07514 0.35799 0.21489 0.0
H364 H 0.06605 0.45516 0.26978 0.0
H365 H 0.04439 0.44171 0.17623 0.0
H366 H 0.12952 0.43009 0.26851 0.0
H367 H 0.10927 0.40025 0.2797 0.0
H368 H 0.10248 0.43466 0.29368 0.0
H369 H 0.10234 0.41263 0.15412 0.0
H370 H 0.06709 0.41085 0.14583 0.0
H371 H 0.08295 0.38244 0.16608 0.0
C372 C 0.14623 0.67418 0.69686 0.0
C373 C 0.16963 0.66424 0.71048 0.0
C374 C 0.12236 0.65791 0.69746 0.0
C375 C 0.12201 0.63092 0.71164 0.0
C376 C 0.14575 0.62056 0.72478 0.0
C377 C 0.16919 0.63741 0.72421 0.0
C378 C 0.09741 0.66985 0.68358 0.0
C379 C 0.14632 0.59177 0.73981 0.0
C380 C 0.05931 0.5981 0.74483 0.0
C381 C 0.05162 0.57786 0.72319 0.0
C382 C 0.08146 0.61634 0.74064 0.0
C383 C 0.09664 0.61403 0.71436 0.0
C384 C 0.08848 0.59428 0.6919 0.0
C385 C 0.0659 0.57656 0.69647 0.0
C386 C 0.08915 0.6374 0.76491 0.0
C387 C 0.10431 0.59097 0.66373 0.0
H388 H 0.14648 0.69497 0.68633 0.0
H389 H 0.18734 0.62946 0.73433 0.0
H390 H 0.08834 0.65506 0.66674 0.0
H391 H 0.08264 0.67244 0.70142 0.0
H392 H 0.10123 0.69062 0.67227 0.0
H393 H 0.16668 0.58619 0.74743 0.0
H394 H 0.13339 0.59113 0.75975 0.0
H395 H 0.1384 0.57545 0.72391 0.0
H396 H 0.04821 0.5994 0.76542 0.0
H397 H 0.06012 0.56086 0.67975 0.0
H398 H 0.09202 0.65879 0.75477 0.0
H399 H 0.10832 0.6317 0.77589 0.0
H400 H 0.074 0.63822 0.78265 0.0
H401 H 0.10771 0.6117 0.65229 0.0
H402 H 0.09427 0.57625 0.64741 0.0
H403 H 0.12408 0.5828 0.67006 0.0
C404 C 0.84666 0.65317 0.20333 0.0
C405 C 0.85743 0.6801 0.19638 0.0
C406 C 0.86299 0.62984 0.20656 0.0
C407 C 0.89076 0.63358 0.20309 0.0
C408 C 0.90169 0.66069 0.19591 0.0
C409 C 0.8849 0.68356 0.19255 0.0
C410 C 0.85056 0.60122 0.21394 0.0
C411 C 0.93122 0.66567 0.19239 0.0
C412 C 0.93678 0.58166 0.24183 0.0
C413 C 0.94428 0.56524 0.21753 0.0
C414 C 0.91921 0.60373 0.23746 0.0
C415 C 0.9086 0.60944 0.20811 0.0
C416 C 0.91571 0.59269 0.18353 0.0
C417 C 0.93358 0.57088 0.1885 0.0
C418 C 0.91235 0.62125 0.26423 0.0
C419 C 0.90464 0.59798 0.15195 0.0
H420 H 0.82542 0.65033 0.20604 0.0
H421 H 0.89339 0.70438 0.18759 0.0
H422 H 0.85601 0.58573 0.19682 0.0
H423 H 0.8583 0.59363 0.23623 0.0
H424 H 0.82856 0.60161 0.21467 0.0
H425 H 0.93649 0.68788 0.18606 0.0
H426 H 0.94184 0.66038 0.21395 0.0
H427 H 0.93853 0.65168 0.17479 0.0
H428 H 0.94497 0.57755 0.26434 0.0
H429 H 0.93915 0.55824 0.16961 0.0
H430 H 0.89053 0.62069 0.26705 0.0
H431 H 0.91872 0.64359 0.26018 0.0
H432 H 0.92195 0.6138 0.28567 0.0
H433 H 0.88261 0.59716 0.15203 0.0
H434 H 0.91127 0.58237 0.13552 0.0
H435 H 0.91098 0.6194 0.144 0.0
C436 C 0.8838 0.33579 0.75992 0.0
C437 C 0.85599 0.3364 0.75792 0.0
C438 C 0.89969 0.36023 0.75505 0.0
C439 C 0.88753 0.38606 0.74816 0.0
C440 C 0.8595 0.38681 0.7456 0.0
C441 C 0.84405 0.36197 0.75053 0.0
C442 C 0.92951 0.35852 0.75816 0.0
C443 C 0.84582 0.41395 0.73828 0.0
C444 C 0.92881 0.45122 0.77041 0.0
C445 C 0.94016 0.45958 0.74286 0.0
C446 C 0.91095 0.42796 0.77216 0.0
C447 C 0.90425 0.4125 0.74574 0.0
C448 C 0.91493 0.4213 0.71765 0.0
C449 C 0.93274 0.44481 0.71652 0.0
C450 C 0.89994 0.41938 0.80255 0.0
C451 C 0.90825 0.40533 0.689 0.0
H452 H 0.89323 0.31628 0.76611 0.0
H453 H 0.82259 0.36256 0.74859 0.0
H454 H 0.93904 0.3673 0.73755 0.0
H455 H 0.93696 0.3714 0.77756 0.0
H456 H 0.93591 0.33654 0.76185 0.0
H457 H 0.82397 0.4107 0.73537 0.0
H458 H 0.84991 0.42921 0.75675 0.0
H459 H 0.85375 0.42367 0.71723 0.0
H460 H 0.93421 0.46261 0.79087 0.0
H461 H 0.94138 0.45113 0.69515 0.0
H462 H 0.90718 0.39836 0.80941 0.0
H463 H 0.87794 0.41755 0.80101 0.0
H464 H 0.90582 0.43464 0.82055 0.0
H465 H 0.91631 0.3839 0.69088 0.0
H466 H 0.91654 0.41608 0.66865 0.0
H467 H 0.88641 0.40271 0.68576 0.0
C468 C 0.27976 0.21614 0.36482 0.0
C469 C 0.27528 0.21148 0.33379 0.0
C470 C 0.28063 0.19351 0.38563 0.0
C471 C 0.27708 0.16555 0.37513 0.0
C472 C 0.27319 0.16069 0.34375 0.0
C473 C 0.27224 0.18373 0.32347 0.0
C474 C 0.28457 0.19956 0.41894 0.0
C475 C 0.26949 0.13118 0.33166 0.0
C476 C 0.29666 0.10469 0.42739 0.0
C477 C 0.27197 0.09576 0.43873 0.0
C478 C 0.2987 0.12737 0.40659 0.0
C479 C 0.27555 0.14151 0.39714 0.0
C480 C 0.25064 0.13268 0.40867 0.0
C481 C 0.24916 0.10991 0.4292 0.0
C482 C 0.32557 0.13614 0.39463 0.0
C483 C 0.2255 0.14731 0.39935 0.0
H484 H 0.28192 0.23756 0.37294 0.0
H485 H 0.26919 0.18001 0.29946 0.0
H486 H 0.26655 0.19253 0.43125 0.0
H487 H 0.30137 0.18757 0.42858 0.0
H488 H 0.28854 0.22235 0.42324 0.0
H489 H 0.26832 0.13092 0.30652 0.0
H490 H 0.28616 0.11807 0.33959 0.0
H491 H 0.25096 0.12117 0.34047 0.0
H492 H 0.31436 0.09386 0.43461 0.0
H493 H 0.22998 0.10331 0.4379 0.0
H494 H 0.33036 0.1585 0.40018 0.0
H495 H 0.32525 0.13457 0.36959 0.0
H496 H 0.34164 0.12295 0.40414 0.0
H497 H 0.22748 0.17002 0.40493 0.0
H498 H 0.20775 0.13804 0.41069 0.0
H499 H 0.22215 0.14593 0.37449 0.0
C500 C 0.36657 0.76118 0.82023 0.0
C501 C 0.34173 0.74739 0.82337 0.0
C502 C 0.38433 0.76413 0.84509 0.0
C503 C 0.37679 0.75358 0.87389 0.0
C504 C 0.35129 0.74056 0.87736 0.0
C505 C 0.33417 0.73727 0.85193 0.0
C506 C 0.41156 0.77749 0.84026 0.0
C507 C 0.3423 0.72958 0.90779 0.0
C508 C 0.43092 0.73157 0.9298 0.0
C509 C 0.43386 0.75518 0.94845 0.0
C510 C 0.41261 0.73096 0.90535 0.0
C511 C 0.39631 0.75426 0.89981 0.0
C512 C 0.39894 0.77807 0.91879 0.0
C513 C 0.41797 0.77841 0.94269 0.0
C514 C 0.41093 0.70545 0.88524 0.0
C515 C 0.3815 0.80303 0.91397 0.0
H516 H 0.37245 0.76877 0.79805 0.0
H517 H 0.31486 0.72678 0.85432 0.0
H518 H 0.41543 0.7951 0.85617 0.0
H519 H 0.42691 0.76171 0.84505 0.0
H520 H 0.41392 0.78568 0.81675 0.0
H521 H 0.32107 0.72243 0.90723 0.0
H522 H 0.35445 0.71156 0.91516 0.0
H523 H 0.34527 0.74619 0.92509 0.0
H524 H 0.44335 0.71367 0.93397 0.0
H525 H 0.4201 0.79663 0.95717 0.0
H526 H 0.41454 0.71195 0.86143 0.0
H527 H 0.39071 0.69546 0.88583 0.0
H528 H 0.42552 0.68942 0.89217 0.0
H529 H 0.38463 0.8125 0.89118 0.0
H530 H 0.38552 0.81956 0.9312 0.0
H531 H 0.36029 0.79601 0.91489 0.0
C532 C 0.80371 0.83649 0.33843 0.0
C533 C 0.79126 0.84561 0.31146 0.0
C534 C 0.80313 0.85263 0.36482 0.0
C535 C 0.79026 0.87871 0.36392 0.0
C536 C 0.77816 0.88821 0.33651 0.0
C537 C 0.77861 0.87143 0.3107 0.0
C538 C 0.81582 0.84158 0.39376 0.0
C539 C 0.76462 0.9161 0.33444 0.0
C540 C 0.76332 0.91111 0.43427 0.0
C541 C 0.78278 0.9321 0.44099 0.0
C542 C 0.76612 0.89275 0.41007 0.0
C543 C 0.78866 0.89584 0.39172 0.0
C544 C 0.80869 0.91658 0.39881 0.0
C545 C 0.80564 0.9343 0.4236 0.0
C546 C 0.74456 0.87055 0.40362 0.0
C547 C 0.8328 0.92085 0.37949 0.0
H548 H 0.81342 0.81646 0.33901 0.0
H549 H 0.7693 0.87865 0.28971 0.0
H550 H 0.83104 0.85707 0.40252 0.0
H551 H 0.8006 0.83872 0.41133 0.0
H552 H 0.82535 0.82113 0.39058 0.0
H553 H 0.75723 0.92099 0.3111 0.0
H554 H 0.74758 0.91579 0.34982 0.0
H555 H 0.77861 0.93338 0.34185 0.0
H556 H 0.74572 0.90913 0.44784 0.0
H557 H 0.82067 0.95058 0.42863 0.0
H558 H 0.75332 0.84957 0.40156 0.0
H559 H 0.73433 0.87542 0.38172 0.0
H560 H 0.72953 0.86927 0.42157 0.0
H561 H 0.84292 0.90066 0.3771 0.0
H562 H 0.84728 0.93676 0.38902 0.0
H563 H 0.82653 0.92792 0.35641 0.0
C564 C 0.68704 0.24259 0.88319 0.0
C565 C 0.68782 0.23739 0.85203 0.0
C566 C 0.66283 0.24426 0.89788 0.0
C567 C 0.63867 0.24086 0.88102 0.0
C568 C 0.63923 0.23563 0.84957 0.0
C569 C 0.66379 0.23392 0.83546 0.0
C570 C 0.66312 0.24999 0.93143 0.0
C571 C 0.61389 0.232 0.83083 0.0
C572 C 0.57691 0.22421 0.92679 0.0
C573 C 0.56685 0.25114 0.93009 0.0
C574 C 0.59986 0.22036 0.91009 0.0
C575 C 0.61293 0.24396 0.89627 0.0
C576 C 0.60227 0.27099 0.8986 0.0
C577 C 0.57944 0.27425 0.9155 0.0
C578 C 0.61066 0.1912 0.90814 0.0
C579 C 0.61546 0.29669 0.88408 0.0
H580 H 0.70546 0.24576 0.89611 0.0
H581 H 0.66417 0.22954 0.81147 0.0
H582 H 0.65357 0.27024 0.93552 0.0
H583 H 0.65149 0.2332 0.94345 0.0
H584 H 0.68357 0.25111 0.94147 0.0
H585 H 0.6177 0.22753 0.80675 0.0
H586 H 0.60135 0.21446 0.84026 0.0
H587 H 0.6023 0.25139 0.83175 0.0
H588 H 0.56733 0.20624 0.93798 0.0
H589 H 0.57173 0.29513 0.91769 0.0
H590 H 0.63025 0.19064 0.92016 0.0
H591 H 0.6138 0.18586 0.88417 0.0
H592 H 0.59721 0.17479 0.91828 0.0
H593 H 0.63538 0.30071 0.89478 0.0
H594 H 0.60372 0.31588 0.88633 0.0
H595 H 0.6184 0.29304 0.85967 0.0
C596 C 0.27832 0.86351 0.65212 0.0
C597 C 0.28084 0.83834 0.63639 0.0
C598 C 0.27888 0.88968 0.63684 0.0
C599 C 0.28173 0.89065 0.60504 0.0
C600 C 0.2848 0.86533 0.58913 0.0
C601 C 0.28445 0.83949 0.60503 0.0
C602 C 0.2758 0.91622 0.65463 0.0
C603 C 0.28751 0.86544 0.55516 0.0
C604 C 0.25163 0.95128 0.56091 0.0
C605 C 0.27412 0.96809 0.5536 0.0
C606 C 0.2539 0.92624 0.57783 0.0
C607 C 0.27927 0.91781 0.58806 0.0
C608 C 0.30205 0.93493 0.58141 0.0
C609 C 0.29922 0.95985 0.56411 0.0
C610 C 0.22911 0.90851 0.58422 0.0
C611 C 0.32939 0.92671 0.59223 0.0
H612 H 0.27593 0.86271 0.67643 0.0
H613 H 0.28622 0.82005 0.59278 0.0
H614 H 0.29205 0.93181 0.64947 0.0
H615 H 0.25682 0.92599 0.64791 0.0
H616 H 0.2759 0.91208 0.67945 0.0
H617 H 0.29127 0.84416 0.54644 0.0
H618 H 0.26904 0.87308 0.54408 0.0
H619 H 0.304 0.88012 0.54841 0.0
H620 H 0.23212 0.95735 0.55287 0.0
H621 H 0.31668 0.97271 0.5586 0.0
H622 H 0.22709 0.90531 0.60898 0.0
H623 H 0.23059 0.88737 0.57412 0.0
H624 H 0.21083 0.91824 0.57497 0.0
H625 H 0.32978 0.92337 0.61715 0.0
H626 H 0.34493 0.94293 0.58639 0.0
H627 H 0.33441 0.90647 0.58192 0.0
C628 C 0.67543 0.76408 0.10798 0.0
C629 C 0.68153 0.78002 0.13383 0.0
C630 C 0.64968 0.7633 0.09497 0.0
C631 C 0.62944 0.77838 0.10853 0.0
C632 C 0.63547 0.79428 0.13485 0.0
C633 C 0.66152 0.79513 0.14701 0.0
C634 C 0.64416 0.74646 0.06662 0.0
C635 C 0.61435 0.81012 0.15034 0.0
C636 C 0.56839 0.79404 0.05937 0.0
C637 C 0.55132 0.77108 0.06657 0.0
C638 C 0.59371 0.79707 0.07333 0.0
C639 C 0.60188 0.77697 0.09542 0.0
C640 C 0.58413 0.75461 0.10388 0.0
C641 C 0.55919 0.75177 0.08913 0.0
C642 C 0.6122 0.82097 0.06338 0.0
C643 C 0.59181 0.73311 0.1278 0.0
H644 H 0.69096 0.75261 0.09763 0.0
H645 H 0.66621 0.80729 0.16716 0.0
H646 H 0.62902 0.72946 0.07105 0.0
H647 H 0.63595 0.76024 0.04841 0.0
H648 H 0.66228 0.73675 0.05831 0.0
H649 H 0.62227 0.8214 0.17069 0.0
H650 H 0.60554 0.82569 0.1344 0.0
H651 H 0.59807 0.79524 0.15729 0.0
H652 H 0.5625 0.80885 0.04173 0.0
H653 H 0.54601 0.73405 0.09487 0.0
H654 H 0.6296 0.8123 0.05234 0.0
H655 H 0.61983 0.83306 0.08327 0.0
H656 H 0.60237 0.83568 0.0472 0.0
H657 H 0.60817 0.72045 0.11959 0.0
H658 H 0.57493 0.71852 0.13366 0.0
H659 H 0.59922 0.74382 0.14868 0.0
C660 C 0.77161 0.15033 0.65982 0.0
C661 C 0.78483 0.14436 0.68745 0.0
C662 C 0.77116 0.13117 0.63588 0.0
C663 C 0.78372 0.10512 0.63983 0.0
C664 C 0.79708 0.09891 0.66757 0.0
C665 C 0.79773 0.1187 0.69088 0.0
C666 C 0.75697 0.13869 0.60647 0.0
C667 C 0.81039 0.07117 0.67281 0.0
C668 C 0.75839 0.04469 0.59043 0.0
C669 C 0.77831 0.04359 0.56896 0.0
C670 C 0.76011 0.06438 0.6138 0.0
C671 C 0.782 0.08387 0.61536 0.0
C672 C 0.80214 0.08297 0.59366 0.0
C673 C 0.80021 0.06258 0.57089 0.0
C674 C 0.73853 0.06423 0.63689 0.0
C675 C 0.82551 0.10378 0.59429 0.0
H676 H 0.76125 0.16984 0.65696 0.0
H677 H 0.80853 0.11405 0.71179 0.0
H678 H 0.77047 0.13664 0.58725 0.0
H679 H 0.73978 0.12383 0.60252 0.0
H680 H 0.74967 0.1605 0.60635 0.0
H681 H 0.81993 0.06958 0.69571 0.0
H682 H 0.79556 0.05347 0.67017 0.0
H683 H 0.82572 0.06848 0.65565 0.0
H684 H 0.74152 0.02988 0.58919 0.0
H685 H 0.81554 0.0619 0.5542 0.0
H686 H 0.72866 0.08476 0.63626 0.0
H687 H 0.74731 0.06145 0.66 0.0
H688 H 0.72321 0.04718 0.63292 0.0
H689 H 0.81837 0.12561 0.5925 0.0
H690 H 0.83931 0.10047 0.57557 0.0
H691 H 0.83671 0.10197 0.61615 0.0
C692 C 0.36235 0.25601 0.15043 0.0
C693 C 0.34216 0.27424 0.14163 0.0
C694 C 0.38295 0.25044 0.13083 0.0
C695 C 0.38312 0.26311 0.10161 0.0
C696 C 0.36202 0.28038 0.09208 0.0
C697 C 0.34192 0.28596 0.11233 0.0
C698 C 0.40527 0.2323 0.14205 0.0
C699 C 0.36125 0.29394 0.06095 0.0
C700 C 0.44866 0.28089 0.06451 0.0
C701 C 0.45007 0.2594 0.04326 0.0
C702 C 0.4274 0.28174 0.08421 0.0
C703 C 0.40667 0.26087 0.08225 0.0
C704 C 0.4082 0.23874 0.06124 0.0
C705 C 0.43009 0.23809 0.04215 0.0
C706 C 0.42688 0.30537 0.10671 0.0
C707 C 0.38629 0.21636 0.05824 0.0
H708 H 0.36271 0.24713 0.17319 0.0
H709 H 0.32617 0.29984 0.1054 0.0
H710 H 0.40919 0.21589 0.1253 0.0
H711 H 0.42374 0.24555 0.14484 0.0
H712 H 0.40091 0.22182 0.16412 0.0
H713 H 0.34212 0.30417 0.05586 0.0
H714 H 0.37756 0.31018 0.05927 0.0
H715 H 0.3644 0.27801 0.0434 0.0
H716 H 0.46422 0.29726 0.06565 0.0
H717 H 0.43105 0.22155 0.02561 0.0
H718 H 0.42427 0.29662 0.12992 0.0
H719 H 0.40976 0.3188 0.10139 0.0
H720 H 0.44533 0.31889 0.1066 0.0
H721 H 0.3825 0.20618 0.08055 0.0
H722 H 0.39106 0.19983 0.0419 0.0
H723 H 0.36762 0.22623 0.05049 0.0
C724 C 0.83789 0.65114 0.8036 0.0
C725 C 0.84351 0.67997 0.79849 0.0
C726 C 0.85779 0.63134 0.80189 0.0
C727 C 0.88398 0.64059 0.79498 0.0
C728 C 0.88985 0.66966 0.79001 0.0
C729 C 0.86954 0.68899 0.79177 0.0
C730 C 0.85077 0.6005 0.80728 0.0
C731 C 0.91752 0.6803 0.78247 0.0
C732 C 0.94054 0.59177 0.81389 0.0
C733 C 0.94472 0.57983 0.78564 0.0
C734 C 0.9209 0.61169 0.81729 0.0
C735 C 0.90503 0.61972 0.79187 0.0
C736 C 0.90916 0.60774 0.76333 0.0
C737 C 0.92896 0.58802 0.76055 0.0
C738 C 0.91712 0.62416 0.84804 0.0
C739 C 0.89256 0.61565 0.73571 0.0
H740 H 0.81792 0.64407 0.80927 0.0
H741 H 0.87397 0.71118 0.78745 0.0
H742 H 0.85484 0.58832 0.78678 0.0
H743 H 0.86332 0.59204 0.82608 0.0
H744 H 0.82957 0.59682 0.81293 0.0
H745 H 0.91901 0.70365 0.78029 0.0
H746 H 0.93193 0.67347 0.8003 0.0
H747 H 0.9235 0.67111 0.76086 0.0
H748 H 0.95264 0.5856 0.83337 0.0
H749 H 0.93196 0.57888 0.73863 0.0
H750 H 0.89656 0.61948 0.85547 0.0
H751 H 0.9199 0.64744 0.84675 0.0
H752 H 0.93121 0.61585 0.86548 0.0
H753 H 0.87127 0.61066 0.73978 0.0
H754 H 0.89832 0.60441 0.71514 0.0
H755 H 0.89462 0.63868 0.73125 0.0
C756 C 0.83248 0.36756 0.29013 0.0
C757 C 0.8388 0.33965 0.28415 0.0
C758 C 0.85227 0.38914 0.29146 0.0
C759 C 0.87905 0.38264 0.28687 0.0
C760 C 0.88574 0.35431 0.28248 0.0
C761 C 0.86555 0.3332 0.28105 0.0
C762 C 0.84434 0.41909 0.29624 0.0
C763 C 0.91407 0.34648 0.27762 0.0
C764 C 0.92473 0.43827 0.25122 0.0
C765 C 0.93999 0.44793 0.27624 0.0
C766 C 0.90459 0.4174 0.25455 0.0
C767 C 0.89966 0.40566 0.2836 0.0
C768 C 0.91483 0.41542 0.30903 0.0
C769 C 0.93478 0.43654 0.30507 0.0
C770 C 0.88875 0.40771 0.22686 0.0
C771 C 0.91024 0.40324 0.3403 0.0
H772 H 0.81192 0.37267 0.29304 0.0
H773 H 0.87068 0.31182 0.27602 0.0
H774 H 0.85694 0.42904 0.31438 0.0
H775 H 0.8475 0.43167 0.27518 0.0
H776 H 0.82318 0.42029 0.30235 0.0
H777 H 0.91636 0.32328 0.27781 0.0
H778 H 0.92067 0.35511 0.25547 0.0
H779 H 0.92748 0.35583 0.29539 0.0
H780 H 0.92848 0.44705 0.22888 0.0
H781 H 0.9465 0.44386 0.32451 0.0
H782 H 0.86726 0.41036 0.23025 0.0
H783 H 0.89162 0.38495 0.22327 0.0
H784 H 0.89456 0.41955 0.20604 0.0
H785 H 0.8892 0.40542 0.34636 0.0
H786 H 0.92318 0.41368 0.35786 0.0
H787 H 0.91413 0.38037 0.34062 0.0
C788 C 0.14649 0.3718 0.78717 0.0
C789 C 0.16653 0.3834 0.76881 0.0
C790 C 0.12424 0.38732 0.79402 0.0
C791 C 0.12205 0.4151 0.78231 0.0
C792 C 0.14271 0.42729 0.7648 0.0
C793 C 0.16457 0.41128 0.75814 0.0
C794 C 0.1026 0.37362 0.81275 0.0
C795 C 0.14116 0.45687 0.75186 0.0
C796 C 0.0557 0.44619 0.76264 0.0
C797 C 0.05351 0.46613 0.78544 0.0
C798 C 0.07716 0.42829 0.76243 0.0
C799 C 0.09714 0.43055 0.78546 0.0
C800 C 0.09437 0.4496 0.80948 0.0
C801 C 0.07243 0.46713 0.80928 0.0
C802 C 0.07914 0.40802 0.7366 0.0
C803 C 0.11531 0.45261 0.83439 0.0
H804 H 0.14803 0.35044 0.79591 0.0
H805 H 0.17968 0.42034 0.74356 0.0
H806 H 0.09728 0.38772 0.83127 0.0
H807 H 0.08448 0.36996 0.79833 0.0
H808 H 0.10852 0.35309 0.82277 0.0
H809 H 0.1599 0.46414 0.74106 0.0
H810 H 0.12479 0.45765 0.73461 0.0
H811 H 0.13669 0.47186 0.76991 0.0
H812 H 0.0409 0.44505 0.74437 0.0
H813 H 0.07081 0.48253 0.82695 0.0
H814 H 0.08316 0.38654 0.74541 0.0
H815 H 0.09597 0.4148 0.72219 0.0
H816 H 0.06074 0.40693 0.72218 0.0
H817 H 0.12073 0.43161 0.84347 0.0
H818 H 0.10864 0.46555 0.85331 0.0
H819 H 0.13354 0.46285 0.82509 0.0
C820 C 0.14429 0.66577 0.29486 0.0
C821 C 0.16943 0.65453 0.2917 0.0
C822 C 0.12106 0.6487 0.29189 0.0
C823 C 0.12303 0.61967 0.28578 0.0
C824 C 0.14831 0.6082 0.28251 0.0
C825 C 0.17118 0.62577 0.2854 0.0
C826 C 0.09443 0.66169 0.2954 0.0
C827 C 0.15122 0.57734 0.27593 0.0
C828 C 0.06602 0.56825 0.30434 0.0
C829 C 0.0543 0.5636 0.2756 0.0
C830 C 0.08815 0.58683 0.30808 0.0
C831 C 0.09866 0.60123 0.28251 0.0
C832 C 0.08649 0.5972 0.2536 0.0
C833 C 0.06453 0.57837 0.25047 0.0
C834 C 0.10071 0.5905 0.33925 0.0
C835 C 0.09698 0.61237 0.22584 0.0
H836 H 0.14278 0.68787 0.30013 0.0
H837 H 0.19049 0.61701 0.28246 0.0
H838 H 0.08194 0.65837 0.2746 0.0
H839 H 0.0838 0.65123 0.3144 0.0
H840 H 0.0963 0.68468 0.29977 0.0
H841 H 0.17233 0.57164 0.27448 0.0
H842 H 0.14181 0.56416 0.29392 0.0
H843 H 0.1408 0.57197 0.25422 0.0
H844 H 0.05828 0.5569 0.32386 0.0
H845 H 0.05551 0.57504 0.2282 0.0
H846 H 0.10182 0.61314 0.34521 0.0
H847 H 0.12134 0.58309 0.33946 0.0
H848 H 0.08953 0.57863 0.35697 0.0
H849 H 0.09797 0.63546 0.22947 0.0
H850 H 0.08447 0.60795 0.20524 0.0
H851 H 0.11747 0.60584 0.2217 0.0
C852 C 0.72905 0.86071 0.69849 0.0
C853 C 0.73628 0.83253 0.69638 0.0
C854 C 0.72718 0.87819 0.67268 0.0
C855 C 0.73242 0.86719 0.64393 0.0
C856 C 0.73847 0.83842 0.64142 0.0
C857 C 0.74041 0.82144 0.66769 0.0
C858 C 0.7207 0.90875 0.67637 0.0
C859 C 0.744 0.82587 0.61113 0.0
C860 C 0.71264 0.91149 0.57483 0.0
C861 C 0.7368 0.92556 0.5682 0.0
C862 C 0.71097 0.89185 0.59896 0.0
C863 C 0.73391 0.88647 0.61705 0.0
C864 C 0.75837 0.9004 0.61024 0.0
C865 C 0.75954 0.91962 0.58586 0.0
C866 C 0.68462 0.87715 0.60535 0.0
C867 C 0.78326 0.8955 0.62913 0.0
H868 H 0.72525 0.86929 0.72049 0.0
H869 H 0.74616 0.79976 0.66583 0.0
H870 H 0.73808 0.92243 0.67013 0.0
H871 H 0.70393 0.91437 0.66093 0.0
H872 H 0.71542 0.91354 0.69995 0.0
H873 H 0.74558 0.80259 0.61256 0.0
H874 H 0.72808 0.83101 0.59432 0.0
H875 H 0.76292 0.83513 0.60252 0.0
H876 H 0.69501 0.91586 0.56122 0.0
H877 H 0.77829 0.93042 0.58102 0.0
H878 H 0.67793 0.8831 0.62802 0.0
H879 H 0.68676 0.85395 0.60574 0.0
H880 H 0.66898 0.88254 0.58824 0.0
H881 H 0.78024 0.90178 0.65285 0.0
H882 H 0.80082 0.90757 0.62045 0.0
H883 H 0.78765 0.87275 0.62958 0.0
C884 C 0.64821 0.29837 0.1689 0.0
C885 C 0.6712 0.28612 0.15862 0.0
C886 C 0.62679 0.30393 0.14892 0.0
C887 C 0.62843 0.29714 0.11795 0.0
C888 C 0.65194 0.28574 0.10726 0.0
C889 C 0.67293 0.28025 0.1277 0.0
C890 C 0.60205 0.3161 0.16116 0.0
C891 C 0.6545 0.27816 0.0744 0.0
C892 C 0.56699 0.27613 0.07136 0.0
C893 C 0.5636 0.29995 0.05263 0.0
C894 C 0.58729 0.27551 0.0936 0.0
C895 C 0.60484 0.29923 0.09716 0.0
C896 C 0.60092 0.32381 0.07921 0.0
C897 C 0.58023 0.32393 0.05717 0.0
C898 C 0.59059 0.24896 0.11245 0.0
C899 C 0.61927 0.34949 0.08235 0.0
H900 H 0.64685 0.30338 0.19264 0.0
H901 H 0.6904 0.27041 0.11956 0.0
H902 H 0.59608 0.33461 0.14728 0.0
H903 H 0.58544 0.30014 0.15977 0.0
H904 H 0.60481 0.32263 0.18511 0.0
H905 H 0.67486 0.27179 0.06922 0.0
H906 H 0.64036 0.26046 0.06871 0.0
H907 H 0.64936 0.2963 0.05949 0.0
H908 H 0.55402 0.25762 0.06828 0.0
H909 H 0.57771 0.3424 0.04279 0.0
H910 H 0.5916 0.25402 0.1369 0.0
H911 H 0.60954 0.23923 0.10697 0.0
H912 H 0.57411 0.23318 0.10845 0.0
H913 H 0.62157 0.35554 0.10646 0.0
H914 H 0.612 0.36781 0.06898 0.0
H915 H 0.63926 0.34454 0.07444 0.0
C916 C 0.22946 0.20949 0.62301 0.0
C917 C 0.2276 0.20793 0.65464 0.0
C918 C 0.22698 0.18519 0.60533 0.0
C919 C 0.22257 0.15856 0.61955 0.0
C920 C 0.21977 0.15688 0.65135 0.0
C921 C 0.22239 0.18159 0.66854 0.0
C922 C 0.23027 0.18793 0.57151 0.0
C923 C 0.21492 0.1289 0.66733 0.0
C924 C 0.20223 0.09837 0.56672 0.0
C925 C 0.22691 0.08697 0.56117 0.0
C926 C 0.20025 0.12103 0.58665 0.0
C927 C 0.22347 0.13246 0.60132 0.0
C928 C 0.2482 0.12022 0.59676 0.0
C929 C 0.24961 0.09769 0.5768 0.0
C930 C 0.1735 0.13344 0.59108 0.0
C931 C 0.27346 0.13168 0.61199 0.0
H932 H 0.23388 0.22965 0.61208 0.0
H933 H 0.22059 0.18025 0.69292 0.0
H934 H 0.24863 0.17754 0.56507 0.0
H935 H 0.21336 0.17713 0.55933 0.0
H936 H 0.23158 0.21029 0.5637 0.0
H937 H 0.21066 0.13142 0.69166 0.0
H938 H 0.19802 0.11706 0.65629 0.0
H939 H 0.23268 0.11592 0.66564 0.0
H940 H 0.18459 0.0902 0.5548 0.0
H941 H 0.26876 0.08889 0.57293 0.0
H942 H 0.17328 0.15493 0.58084 0.0
H943 H 0.16976 0.13551 0.61557 0.0
H944 H 0.15706 0.12045 0.58056 0.0
H945 H 0.27789 0.15348 0.60366 0.0
H946 H 0.29078 0.11865 0.60757 0.0
H947 H 0.271 0.1327 0.63682 0.0
C948 C 0.37097 0.72324 0.2098 0.0
C949 C 0.34385 0.72638 0.20307 0.0
C950 C 0.38935 0.72109 0.1867 0.0
C951 C 0.38043 0.72198 0.15606 0.0
C952 C 0.35304 0.72466 0.14907 0.0
C953 C 0.3351 0.72688 0.17264 0.0
C954 C 0.41839 0.71829 0.1951 0.0
C955 C 0.34275 0.72573 0.11666 0.0
C956 C 0.42962 0.7471 0.09705 0.0
C957 C 0.4371 0.72166 0.08448 0.0
C958 C 0.41129 0.74742 0.12033 0.0
C959 C 0.39994 0.72168 0.13133 0.0
C960 C 0.40736 0.69589 0.11881 0.0
C961 C 0.42593 0.69617 0.09558 0.0
C962 C 0.40407 0.77537 0.13319 0.0
C963 C 0.39557 0.66804 0.12988 0.0
H964 H 0.37786 0.72227 0.23324 0.0
H965 H 0.31424 0.72956 0.1672 0.0
H966 H 0.42606 0.69917 0.18471 0.0
H967 H 0.43002 0.7367 0.18606 0.0
H968 H 0.42199 0.71696 0.21999 0.0
H969 H 0.32075 0.72632 0.11505 0.0
H970 H 0.35123 0.74474 0.10502 0.0
H971 H 0.34917 0.70709 0.10429 0.0
H972 H 0.43818 0.76693 0.08874 0.0
H973 H 0.43153 0.67644 0.08596 0.0
H974 H 0.40881 0.7757 0.15786 0.0
H975 H 0.38241 0.77825 0.13025 0.0
H976 H 0.41477 0.7935 0.12221 0.0
H977 H 0.39994 0.66529 0.15447 0.0
H978 H 0.40335 0.64985 0.11777 0.0
H979 H 0.37364 0.66775 0.12675 0.0
C980 C 0.73595 0.16201 0.36699 0.0
C981 C 0.72733 0.15818 0.3368 0.0
C982 C 0.73322 0.14016 0.38861 0.0
C983 C 0.72193 0.11368 0.37979 0.0
C984 C 0.71189 0.11015 0.34981 0.0
C985 C 0.71453 0.13249 0.32876 0.0
C986 C 0.74389 0.14491 0.42046 0.0
C987 C 0.6998 0.08225 0.33944 0.0
C988 C 0.74953 0.05075 0.42228 0.0
C989 C 0.72923 0.04354 0.44238 0.0
C990 C 0.74699 0.07302 0.40135 0.0
C991 C 0.72373 0.08889 0.40075 0.0
C992 C 0.70291 0.08146 0.4206 0.0
C993 C 0.70581 0.05865 0.44107 0.0
C994 C 0.7695 0.07987 0.38023 0.0
C995 C 0.67797 0.09811 0.42086 0.0
H996 H 0.74604 0.18163 0.37349 0.0
H997 H 0.70721 0.12951 0.3057 0.0
H998 H 0.72926 0.13711 0.43722 0.0
H999 H 0.76218 0.13288 0.42427 0.0
H1000 H 0.74877 0.16753 0.42476 0.0
H1001 H 0.69029 0.08383 0.31653 0.0
H1002 H 0.71553 0.0665 0.33881 0.0
H1003 H 0.68477 0.07416 0.35558 0.0
H1004 H 0.76758 0.03898 0.42299 0.0
H1005 H 0.69014 0.05325 0.45669 0.0
H1006 H 0.778 0.10129 0.38491 0.0
H1007 H 0.762 0.07988 0.35638 0.0
H1008 H 0.78566 0.06461 0.3826 0.0
H1009 H 0.683 0.12001 0.42801 0.0
H1010 H 0.66304 0.08872 0.43646 0.0
H1011 H 0.66889 0.0994 0.39775 0.0
C1012 C 0.34721 0.30237 0.84253 0.0
C1013 C 0.34994 0.31262 0.81276 0.0
C1014 C 0.36876 0.30317 0.86332 0.0
C1015 C 0.39381 0.31412 0.85405 0.0
C1016 C 0.39669 0.32474 0.82418 0.0
C1017 C 0.37471 0.32404 0.80397 0.0
C1018 C 0.36486 0.29175 0.89505 0.0
C1019 C 0.42314 0.33635 0.81339 0.0
C1020 C 0.44526 0.33275 0.91591 0.0
C1021 C 0.45932 0.30782 0.91818 0.0
C1022 C 0.42413 0.3354 0.89471 0.0
C1023 C 0.41729 0.31276 0.87511 0.0
C1024 C 0.43221 0.28806 0.87649 0.0
C1025 C 0.45289 0.28583 0.89813 0.0
C1026 C 0.40848 0.36194 0.89409 0.0
C1027 C 0.42588 0.26363 0.85567 0.0
H1028 H 0.3283 0.2932 0.84949 0.0
H1029 H 0.37694 0.33256 0.78125 0.0
H1030 H 0.37693 0.27287 0.89888 0.0
H1031 H 0.37178 0.30769 0.91189 0.0
H1032 H 0.34376 0.28578 0.8993 0.0
H1033 H 0.42187 0.34469 0.78978 0.0
H1034 H 0.43074 0.3535 0.8284 0.0
H1035 H 0.43788 0.31953 0.81449 0.0
H1036 H 0.45006 0.34972 0.93149 0.0
H1037 H 0.46385 0.26659 0.8996 0.0
H1038 H 0.38782 0.35684 0.90097 0.0
H1039 H 0.40736 0.37091 0.87077 0.0
H1040 H 0.41729 0.37824 0.90949 0.0
H1041 H 0.40585 0.25445 0.86045 0.0
H1042 H 0.44048 0.24672 0.85832 0.0
H1043 H 0.42553 0.27103 0.83172 0.0
C1044 C 0.22862 0.86528 0.34103 0.0
C1045 C 0.23833 0.84295 0.35882 0.0
C1046 C 0.22412 0.8916 0.35383 0.0
C1047 C 0.22957 0.89568 0.38511 0.0
C1048 C 0.23885 0.87304 0.40325 0.0
C1049 C 0.24316 0.84706 0.3899 0.0
C1050 C 0.21416 0.91522 0.3338 0.0
C1051 C 0.24509 0.87651 0.43667 0.0
C1052 C 0.25033 0.96666 0.41751 0.0
C1053 C 0.22791 0.97336 0.43375 0.0
C1054 C 0.25052 0.94228 0.40005 0.0
C1055 C 0.22772 0.92404 0.39874 0.0
C1056 C 0.20439 0.9316 0.41341 0.0
C1057 C 0.20474 0.95626 0.43076 0.0
C1058 C 0.27578 0.93516 0.38463 0.0
C1059 C 0.17963 0.91277 0.41237 0.0
H1060 H 0.22454 0.86219 0.31707 0.0
H1061 H 0.25108 0.83012 0.40375 0.0
H1062 H 0.19643 0.92435 0.34366 0.0
H1063 H 0.22965 0.93235 0.33238 0.0
H1064 H 0.20892 0.90806 0.31049 0.0
H1065 H 0.25067 0.8564 0.44793 0.0
H1066 H 0.26176 0.89218 0.43988 0.0
H1067 H 0.22769 0.88464 0.44818 0.0
H1068 H 0.26824 0.97995 0.41938 0.0
H1069 H 0.18732 0.9613 0.4432 0.0
H1070 H 0.2715 0.9295 0.36068 0.0
H1071 H 0.28455 0.91658 0.39608 0.0
H1072 H 0.29077 0.9529 0.3852 0.0
H1073 H 0.17493 0.90597 0.38886 0.0
H1074 H 0.1622 0.92339 0.42122 0.0
H1075 H 0.18298 0.89348 0.42627 0.0
C1076 C 0.65842 0.71018 0.90118 0.0
C1077 C 0.65712 0.70978 0.86945 0.0
C1078 C 0.63551 0.70568 0.91817 0.0
C1079 C 0.61075 0.70038 0.90305 0.0
C1080 C 0.60966 0.69781 0.87114 0.0
C1081 C 0.63286 0.70283 0.85466 0.0
C1082 C 0.63754 0.70897 0.95212 0.0
C1083 C 0.58374 0.69163 0.85424 0.0
C1084 C 0.55255 0.68195 0.95392 0.0
C1085 C 0.54205 0.70863 0.95771 0.0
C1086 C 0.57429 0.67853 0.9351 0.0
C1087 C 0.58585 0.70237 0.9201 0.0
C1088 C 0.57466 0.72907 0.92302 0.0
C1089 C 0.55289 0.73181 0.94157 0.0
C1090 C 0.58545 0.64966 0.93209 0.0
C1091 C 0.58638 0.75512 0.90755 0.0
H1092 H 0.67708 0.71579 0.91271 0.0
H1093 H 0.63188 0.70218 0.83013 0.0
H1094 H 0.62821 0.72881 0.95843 0.0
H1095 H 0.62669 0.69134 0.96371 0.0
H1096 H 0.65847 0.70973 0.96069 0.0
H1097 H 0.58689 0.68534 0.83051 0.0
H1098 H 0.57208 0.67459 0.86584 0.0
H1099 H 0.57169 0.71074 0.85375 0.0
H1100 H 0.54423 0.66391 0.96619 0.0
H1101 H 0.54486 0.7525 0.94408 0.0
H1102 H 0.60513 0.64908 0.94388 0.0
H1103 H 0.58846 0.64497 0.90792 0.0
H1104 H 0.57229 0.63283 0.94195 0.0
H1105 H 0.60702 0.75928 0.91617 0.0
H1106 H 0.57475 0.77413 0.91136 0.0
H1107 H 0.58729 0.75181 0.88281 0.0
loop_
_geom_bond_atom_site_label_1
_geom_bond_atom_site_label_2
_geom_bond_distance
_geom_bond_site_symmetry_2
_ccdc_geom_bond_type
P0 O11 1.490 . S
P0 C14 1.812 . S
P0 C20 1.803 . S
P0 C26 1.819 . S
H1 C15 0.941 . S
H2 C16 0.939 . S
H3 C18 0.940 . S
H4 C19 0.940 . S
H5 C21 0.939 . S
H6 C22 0.942 . S
H7 C24 0.940 . S
H8 C25 0.939 . S
H9 C27 0.941 . S
H10 C31 0.939 . S
O11 P0 1.490 . S
H12 C28 0.939 . S
H13 C30 0.940 . S
C14 P0 1.812 . S
C14 C15 1.389 . S
C14 C19 1.391 . S
C15 H1 0.941 . S
C15 C14 1.389 . S
C15 C16 1.397 . S
C16 H2 0.939 . S
C16 C15 1.397 . S
C16 C17 1.378 . S
C17 C16 1.378 . S
C17 C18 1.378 . S
C18 H3 0.940 . S
C18 C17 1.378 . S
C18 C19 1.396 . S
C19 H4 0.940 . S
C19 C14 1.391 . S
C19 C18 1.396 . S
C20 P0 1.803 . S
C20 C21 1.378 . S
C20 C25 1.400 . S
C21 H5 0.939 . S
C21 C20 1.378 . S
C21 C22 1.361 . S
C22 H6 0.942 . S
C22 C21 1.361 . S
C22 C23 1.369 . S
C23 C22 1.369 . S
C23 C24 1.404 . S
C24 H7 0.940 . S
C24 C23 1.404 . S
C24 C25 1.389 . S
C25 H8 0.939 . S
C25 C20 1.400 . S
C25 C24 1.389 . S
C26 P0 1.819 . S
C26 C27 1.391 . S
C26 C31 1.391 . S
C27 H9 0.941 . S
C27 C26 1.391 . S
C27 C28 1.396 . S
C28 H12 0.939 . S
C28 C27 1.396 . S
C28 C29 1.397 . S
C29 C28 1.397 . S
C29 C30 1.385 . S
C30 H13 0.940 . S
C30 C29 1.385 . S
C30 C31 1.388 . S
C31 H10 0.939 . S
C31 C26 1.391 . S
C31 C30 1.388 . S
P32 O43 1.490 . S
P32 C46 1.812 . S
P32 C52 1.803 . S
P32 C58 1.819 . S
H33 C47 0.941 . S
H34 C48 0.939 . S
H35 C50 0.940 . S
H36 C51 0.940 . S
H37 C53 0.939 . S
H38 C54 0.942 . S
H39 C56 0.940 . S
H40 C57 0.939 . S
H41 C59 0.941 . S
H42 C63 0.939 . S
O43 P32 1.490 . S
H44 C60 0.939 . S
H45 C62 0.940 . S
C46 P32 1.812 . S
C46 C47 1.389 . S
C46 C51 1.391 . S
C47 H33 0.941 . S
C47 C46 1.389 . S
C47 C48 1.397 . S
C48 H34 0.939 . S
C48 C47 1.397 . S
C48 C49 1.378 . S
C49 C48 1.378 . S
C49 C50 1.378 . S
C50 H35 0.940 . S
C50 C49 1.378 . S
C50 C51 1.396 . S
C51 H36 0.940 . S
C51 C46 1.391 . S
C51 C50 1.396 . S
C52 P32 1.803 . S
C52 C53 1.378 . S
C52 C57 1.400 . S
C53 H37 0.939 . S
C53 C52 1.378 . S
C53 C54 1.361 . S
C54 H38 0.942 . S
C54 C53 1.361 . S
C54 C55 1.369 . S
C55 C54 1.369 . S
C55 C56 1.404 . S
C56 H39 0.940 . S
C56 C55 1.404 . S
C56 C57 1.389 . S
C57 H40 0.939 . S
C57 C52 1.400 . S
C57 C56 1.389 . S
C58 P32 1.819 . S
C58 C59 1.391 . S
C58 C63 1.391 . S
C59 H41 0.941 . S
C59 C58 1.391 . S
C59 C60 1.396 . S
C60 H44 0.939 . S
C60 C59 1.396 . S
C60 C61 1.397 . S
C61 C60 1.397 . S
C61 C62 1.385 . S
C62 H45 0.940 . S
C62 C61 1.385 . S
C62 C63 1.388 . S
C63 H42 0.939 . S
C63 C58 1.391 . S
C63 C62 1.388 . S
P64 O75 1.490 . S
P64 C78 1.812 . S
P64 C84 1.803 . S
P64 C90 1.819 . S
H65 C79 0.941 . S
H66 C80 0.939 . S
H67 C82 0.940 . S
H68 C83 0.940 . S
H69 C85 0.939 . S
H70 C86 0.942 . S
H71 C88 0.940 . S
H72 C89 0.939 . S
H73 C91 0.941 . S
H74 C95 0.939 . S
O75 P64 1.490 . S
H76 C92 0.939 . S
H77 C94 0.940 . S
C78 P64 1.812 . S
C78 C79 1.389 . S
C78 C83 1.391 . S
C79 H65 0.941 . S
C79 C78 1.389 . S
C79 C80 1.397 . S
C80 H66 0.939 . S
C80 C79 1.397 . S
C80 C81 1.378 . S
C81 C80 1.378 . S
C81 C82 1.378 . S
C82 H67 0.940 . S
C82 C81 1.378 . S
C82 C83 1.396 . S
C83 H68 0.940 . S
C83 C78 1.391 . S
C83 C82 1.396 . S
C84 P64 1.803 . S
C84 C85 1.378 . S
C84 C89 1.400 . S
C85 H69 0.939 . S
C85 C84 1.378 . S
C85 C86 1.361 . S
C86 H70 0.942 . S
C86 C85 1.361 . S
C86 C87 1.369 . S
C87 C86 1.369 . S
C87 C88 1.404 . S
C88 H71 0.940 . S
C88 C87 1.404 . S
C88 C89 1.389 . S
C89 H72 0.939 . S
C89 C84 1.400 . S
C89 C88 1.389 . S
C90 P64 1.819 . S
C90 C91 1.391 . S
C90 C95 1.391 . S
C91 H73 0.941 . S
C91 C90 1.391 . S
C91 C92 1.396 . S
C92 H76 0.939 . S
C92 C91 1.396 . S
C92 C93 1.397 . S
C93 C92 1.397 . S
C93 C94 1.385 . S
C94 H77 0.940 . S
C94 C93 1.385 . S
C94 C95 1.388 . S
C95 H74 0.939 . S
C95 C90 1.391 . S
C95 C94 1.388 . S
P96 O107 1.490 . S
P96 C110 1.812 . S
P96 C116 1.803 . S
P96 C122 1.819 . S
H97 C111 0.941 . S
H98 C112 0.939 . S
H99 C114 0.940 . S
H100 C115 0.940 . S
H101 C117 0.939 . S
H102 C118 0.942 . S
H103 C120 0.940 . S
H104 C121 0.939 . S
H105 C123 0.941 . S
H106 C127 0.939 . S
O107 P96 1.490 . S
H108 C124 0.939 . S
H109 C126 0.940 . S
C110 P96 1.812 . S
C110 C111 1.389 . S
C110 C115 1.391 . S
C111 H97 0.941 . S
C111 C110 1.389 . S
C111 C112 1.397 . S
C112 H98 0.939 . S
C112 C111 1.397 . S
C112 C113 1.378 . S
C113 C112 1.378 . S
C113 C114 1.378 . S
C114 H99 0.940 . S
C114 C113 1.378 . S
C114 C115 1.396 . S
C115 H100 0.940 . S
C115 C110 1.391 . S
C115 C114 1.396 . S
C116 P96 1.803 . S
C116 C117 1.378 . S
C116 C121 1.400 . S
C117 H101 0.939 . S
C117 C116 1.378 . S
C117 C118 1.361 . S
C118 H102 0.942 . S
C118 C117 1.361 . S
C118 C119 1.369 . S
C119 C118 1.369 . S
C119 C120 1.404 . S
C120 H103 0.940 . S
C120 C119 1.404 . S
C120 C121 1.389 . S
C121 H104 0.939 . S
C121 C116 1.400 . S
C121 C120 1.389 . S
C122 P96 1.819 . S
C122 C123 1.391 . S
C122 C127 1.391 . S
C123 H105 0.941 . S
C123 C122 1.391 . S
C123 C124 1.396 . S
C124 H108 0.939 . S
C124 C123 1.396 . S
C124 C125 1.397 . S
C125 C124 1.397 . S
C125 C126 1.385 . S
C126 H109 0.940 . S
C126 C125 1.385 . S
C126 C127 1.388 . S
C127 H106 0.939 . S
C127 C122 1.391 . S
C127 C126 1.388 . S
P128 O139 1.490 . S
P128 C142 1.812 . S
P128 C148 1.803 . S
P128 C154 1.819 . S
H129 C143 0.941 . S
H130 C144 0.939 . S
H131 C146 0.940 . S
H132 C147 0.940 . S
H133 C149 0.939 . S
H134 C150 0.942 . S
H135 C152 0.940 . S
H136 C153 0.939 . S
H137 C155 0.941 . S
H138 C159 0.939 . S
O139 P128 1.490 . S
H140 C156 0.939 . S
H141 C158 0.940 . S
C142 P128 1.812 . S
C142 C143 1.389 . S
C142 C147 1.391 . S
C143 H129 0.941 . S
C143 C142 1.389 . S
C143 C144 1.397 . S
C144 H130 0.939 . S
C144 C143 1.397 . S
C144 C145 1.378 . S
C145 C144 1.378 . S
C145 C146 1.378 . S
C146 H131 0.940 . S
C146 C145 1.378 . S
C146 C147 1.396 . S
C147 H132 0.940 . S
C147 C142 1.391 . S
C147 C146 1.396 . S
C148 P128 1.803 . S
C148 C149 1.378 . S
C148 C153 1.400 . S
C149 H133 0.939 . S
C149 C148 1.378 . S
C149 C150 1.361 . S
C150 H134 0.942 . S
C150 C149 1.361 . S
C150 C151 1.369 . S
C151 C150 1.369 . S
C151 C152 1.404 . S
C152 H135 0.940 . S
C152 C151 1.404 . S
C152 C153 1.389 . S
C153 H136 0.939 . S
C153 C148 1.400 . S
C153 C152 1.389 . S
C154 P128 1.819 . S
C154 C155 1.391 . S
C154 C159 1.391 . S
C155 H137 0.941 . S
C155 C154 1.391 . S
C155 C156 1.396 . S
C156 H140 0.939 . S
C156 C155 1.396 . S
C156 C157 1.397 . S
C157 C156 1.397 . S
C157 C158 1.385 . S
C158 H141 0.940 . S
C158 C157 1.385 . S
C158 C159 1.388 . S
C159 H138 0.939 . S
C159 C154 1.391 . S
C159 C158 1.388 . S
P160 O171 1.490 . S
P160 C174 1.812 . S
P160 C180 1.803 . S
P160 C186 1.819 . S
H161 C175 0.941 . S
H162 C176 0.939 . S
H163 C178 0.940 . S
H164 C179 0.940 . S
H165 C181 0.939 . S
H166 C182 0.942 . S
H167 C184 0.940 . S
H168 C185 0.939 . S
H169 C187 0.941 . S
H170 C191 0.939 . S
O171 P160 1.490 . S
H172 C188 0.939 . S
H173 C190 0.940 . S
C174 P160 1.812 . S
C174 C175 1.389 . S
C174 C179 1.391 . S
C175 H161 0.941 . S
C175 C174 1.389 . S
C175 C176 1.397 . S
C176 H162 0.939 . S
C176 C175 1.397 . S
C176 C177 1.378 . S
C177 C176 1.378 . S
C177 C178 1.378 . S
C178 H163 0.940 . S
C178 C177 1.378 . S
C178 C179 1.396 . S
C179 H164 0.940 . S
C179 C174 1.391 . S
C179 C178 1.396 . S
C180 P160 1.803 . S
C180 C181 1.378 . S
C180 C185 1.400 . S
C181 H165 0.939 . S
C181 C180 1.378 . S
C181 C182 1.361 . S
C182 H166 0.942 . S
C182 C181 1.361 . S
C182 C183 1.369 . S
C183 C182 1.369 . S
C183 C184 1.404 . S
C184 H167 0.940 . S
C184 C183 1.404 . S
C184 C185 1.389 . S
C185 H168 0.939 . S
C185 C180 1.400 . S
C185 C184 1.389 . S
C186 P160 1.819 . S
C186 C187 1.391 . S
C186 C191 1.391 . S
C187 H169 0.941 . S
C187 C186 1.391 . S
C187 C188 1.396 . S
C188 H172 0.939 . S
C188 C187 1.396 . S
C188 C189 1.397 . S
C189 C188 1.397 . S
C189 C190 1.385 . S
C190 H173 0.940 . S
C190 C189 1.385 . S
C190 C191 1.388 . S
C191 H170 0.939 . S
C191 C186 1.391 . S
C191 C190 1.388 . S
P192 O203 1.490 . S
P192 C206 1.812 . S
P192 C212 1.803 . S
P192 C218 1.819 . S
H193 C207 0.941 . S
H194 C208 0.939 . S
H195 C210 0.940 . S
H196 C211 0.940 . S
H197 C213 0.939 . S
H198 C214 0.942 . S
H199 C216 0.940 . S
H200 C217 0.939 . S
H201 C219 0.941 . S
H202 C223 0.939 . S
O203 P192 1.490 . S
H204 C220 0.939 . S
H205 C222 0.940 . S
C206 P192 1.812 . S
C206 C207 1.389 . S
C206 C211 1.391 . S
C207 H193 0.941 . S
C207 C206 1.389 . S
C207 C208 1.397 . S
C208 H194 0.939 . S
C208 C207 1.397 . S
C208 C209 1.378 . S
C209 C208 1.378 . S
C209 C210 1.378 . S
C210 H195 0.940 . S
C210 C209 1.378 . S
C210 C211 1.396 . S
C211 H196 0.940 . S
C211 C206 1.391 . S
C211 C210 1.396 . S
C212 P192 1.803 . S
C212 C213 1.378 . S
C212 C217 1.400 . S
C213 H197 0.939 . S
C213 C212 1.378 . S
C213 C214 1.361 . S
C214 H198 0.942 . S
C214 C213 1.361 . S
C214 C215 1.369 . S
C215 C214 1.369 . S
C215 C216 1.404 . S
C216 H199 0.940 . S
C216 C215 1.404 . S
C216 C217 1.389 . S
C217 H200 0.939 . S
C217 C212 1.400 . S
C217 C216 1.389 . S
C218 P192 1.819 . S
C218 C219 1.391 . S
C218 C223 1.391 . S
C219 H201 0.941 . S
C219 C218 1.391 . S
C219 C220 1.396 . S
C220 H204 0.939 . S
C220 C219 1.396 . S
C220 C221 1.397 . S
C221 C220 1.397 . S
C221 C222 1.385 . S
C222 H205 0.940 . S
C222 C221 1.385 . S
C222 C223 1.388 . S
C223 H202 0.939 . S
C223 C218 1.391 . S
C223 C222 1.388 . S
P224 O235 1.490 . S
P224 C238 1.812 . S
P224 C244 1.803 . S
P224 C250 1.819 . S
H225 C239 0.941 . S
H226 C240 0.939 . S
H227 C242 0.940 . S
H228 C243 0.940 . S
H229 C245 0.939 . S
H230 C246 0.942 . S
H231 C248 0.940 . S
H232 C249 0.939 . S
H233 C251 0.941 . S
H234 C255 0.939 . S
O235 P224 1.490 . S
H236 C252 0.939 . S
H237 C254 0.940 . S
C238 P224 1.812 . S
C238 C239 1.389 . S
C238 C243 1.391 . S
C239 H225 0.941 . S
C239 C238 1.389 . S
C239 C240 1.397 . S
C240 H226 0.939 . S
C240 C239 1.397 . S
C240 C241 1.378 . S
C241 C240 1.378 . S
C241 C242 1.378 . S
C242 H227 0.940 . S
C242 C241 1.378 . S
C242 C243 1.396 . S
C243 H228 0.940 . S
C243 C238 1.391 . S
C243 C242 1.396 . S
C244 P224 1.803 . S
C244 C245 1.378 . S
C244 C249 1.400 . S
C245 H229 0.939 . S
C245 C244 1.378 . S
C245 C246 1.361 . S
C246 H230 0.942 . S
C246 C245 1.361 . S
C246 C247 1.369 . S
C247 C246 1.369 . S
C247 C248 1.404 . S
C248 H231 0.940 . S
C248 C247 1.404 . S
C248 C249 1.389 . S
C249 H232 0.939 . S
C249 C244 1.400 . S
C249 C248 1.389 . S
C250 P224 1.819 . S
C250 C251 1.391 . S
C250 C255 1.391 . S
C251 H233 0.941 . S
C251 C250 1.391 . S
C251 C252 1.396 . S
C252 H236 0.939 . S
C252 C251 1.396 . S
C252 C253 1.397 . S
C253 C252 1.397 . S
C253 C254 1.385 . S
C254 H237 0.940 . S
C254 C253 1.385 . S
C254 C255 1.388 . S
C255 H234 0.939 . S
C255 C250 1.391 . S
C255 C254 1.388 . S
C256 O258 1.247 . S
C256 O260 1.258 . S
C257 O264 1.247 . S
C257 O265 1.258 . S
O258 C256 1.247 . S
O258 Zn259 2.028 1_655 S
Zn259 O258 2.028 1_455 S
Zn259 O263 2.035 . S
Zn259 O265 2.035 . S
Zn259 O266 2.028 1_455 S
O260 C256 1.258 . S
O260 Zn261 2.035 1_655 S
Zn261 O260 2.035 1_455 S
Zn261 O262 2.028 . S
Zn261 O264 2.028 . S
Zn261 O267 2.035 1_455 S
O262 Zn261 2.028 . S
O262 C268 1.247 . S
O263 Zn259 2.035 . S
O263 C268 1.258 . S
O264 C257 1.247 . S
O264 Zn261 2.028 . S
O265 C257 1.258 . S
O265 Zn259 2.035 . S
O266 Zn259 2.028 1_655 S
O266 C269 1.247 . S
O267 Zn261 2.035 1_655 S
O267 C269 1.258 . S
C268 O262 1.247 . S
C268 O263 1.258 . S
C269 O266 1.247 . S
C269 O267 1.258 . S
C270 O272 1.247 . S
C270 O274 1.258 . S
C271 O278 1.247 . S
C271 O279 1.258 . S
O272 C270 1.247 . S
O272 Zn273 2.028 1_655 S
Zn273 O272 2.028 1_455 S
Zn273 O277 2.035 . S
Zn273 O279 2.035 . S
Zn273 O280 2.028 1_455 S
O274 C270 1.258 . S
O274 Zn275 2.046 . S
Zn275 O274 2.046 . S
Zn275 O276 2.017 1_655 S
Zn275 O278 2.017 1_655 S
Zn275 O281 2.046 . S
O276 Zn275 2.017 1_455 S
O276 C282 1.247 . S
O277 Zn273 2.035 . S
O277 C282 1.258 . S
O278 C271 1.247 . S
O278 Zn275 2.017 1_455 S
O279 C271 1.258 . S
O279 Zn273 2.035 . S
O280 Zn273 2.028 1_655 S
O280 C283 1.247 . S
O281 Zn275 2.046 . S
O281 C283 1.258 . S
C282 O276 1.247 . S
C282 O277 1.258 . S
C283 O280 1.247 . S
C283 O281 1.258 . S
C284 O286 1.247 . S
C284 O288 1.258 . S
C285 O292 1.247 . S
C285 O293 1.258 . S
O286 C284 1.247 . S
O286 Zn287 2.028 1_565 S
Zn287 O286 2.028 1_545 S
Zn287 O291 2.035 . S
Zn287 O293 2.035 . S
Zn287 O294 2.028 1_545 S
O288 C284 1.258 . S
O288 Zn289 2.035 1_565 S
Zn289 O288 2.035 1_545 S
Zn289 O290 2.028 . S
Zn289 O292 2.028 . S
Zn289 O295 2.035 1_545 S
O290 Zn289 2.028 . S
O290 C296 1.247 . S
O291 Zn287 2.035 . S
O291 C296 1.258 . S
O292 C285 1.247 . S
O292 Zn289 2.028 . S
O293 C285 1.258 . S
O293 Zn287 2.035 . S
O294 Zn287 2.028 1_565 S
O294 C297 1.247 . S
O295 Zn289 2.035 1_565 S
O295 C297 1.258 . S
C296 O290 1.247 . S
C296 O291 1.258 . S
C297 O294 1.247 . S
C297 O295 1.258 . S
C298 O300 1.247 . S
C298 O302 1.258 . S
C299 O306 1.247 . S
C299 O307 1.258 . S
O300 C298 1.247 . S
O300 Zn301 2.028 . S
Zn301 O300 2.028 . S
Zn301 O305 2.035 . S
Zn301 O307 2.035 1_554 S
Zn301 O308 2.028 1_554 S
O302 C298 1.258 . S
O302 Zn303 2.035 . S
Zn303 O302 2.035 . S
Zn303 O304 2.028 . S
Zn303 O306 2.028 1_554 S
Zn303 O309 2.035 1_554 S
O304 Zn303 2.028 . S
O304 C310 1.247 . S
O305 Zn301 2.035 . S
O305 C310 1.258 . S
O306 C299 1.247 . S
O306 Zn303 2.028 1_556 S
O307 C299 1.258 . S
O307 Zn301 2.035 1_556 S
O308 Zn301 2.028 1_556 S
O308 C311 1.247 . S
O309 Zn303 2.035 1_556 S
O309 C311 1.258 . S
C310 O304 1.247 . S
C310 O305 1.258 . S
C311 O308 1.247 . S
C311 O309 1.258 . S
C312 O314 1.247 . S
C312 O316 1.258 . S
C313 O320 1.247 . S
C313 O321 1.258 . S
O314 C312 1.247 . S
O314 Zn315 2.028 . S
Zn315 O314 2.028 . S
Zn315 O319 2.035 1_565 S
Zn315 O321 2.035 1_565 S
Zn315 O322 2.028 . S
O316 C312 1.258 . S
O316 Zn317 2.035 1_565 S
Zn317 O316 2.035 1_545 S
Zn317 O318 2.028 . S
Zn317 O320 2.028 . S
Zn317 O323 2.035 1_545 S
O318 Zn317 2.028 . S
O318 C324 1.247 . S
O319 Zn315 2.035 1_545 S
O319 C324 1.258 . S
O320 C313 1.247 . S
O320 Zn317 2.028 . S
O321 C313 1.258 . S
O321 Zn315 2.035 1_545 S
O322 Zn315 2.028 . S
O322 C325 1.247 . S
O323 Zn317 2.035 1_565 S
O323 C325 1.258 . S
C324 O318 1.247 . S
C324 O319 1.258 . S
C325 O322 1.247 . S
C325 O323 1.258 . S
C326 O328 1.247 . S
C326 O330 1.258 . S
C327 O334 1.247 . S
C327 O335 1.258 . S
O328 C326 1.247 . S
O328 Zn329 2.028 . S
Zn329 O328 2.028 . S
Zn329 O333 2.035 . S
Zn329 O335 2.035 1_554 S
Zn329 O336 2.028 1_554 S
O330 C326 1.258 . S
O330 Zn331 2.031 1_554 S
Zn331 O330 2.031 1_556 S
Zn331 O332 2.024 1_556 S
Zn331 O334 2.032 . S
Zn331 O337 2.039 . S
O332 Zn331 2.024 1_554 S
O332 C338 1.247 . S
O333 Zn329 2.035 . S
O333 C338 1.258 . S
O334 C327 1.247 . S
O334 Zn331 2.032 . S
O335 C327 1.258 . S
O335 Zn329 2.035 1_556 S
O336 Zn329 2.028 1_556 S
O336 C339 1.247 . S
O337 Zn331 2.039 . S
O337 C339 1.258 . S
C338 O332 1.247 . S
C338 O333 1.258 . S
C339 O336 1.247 . S
C339 O337 1.258 . S
C340 C341 1.391 . S
C340 C342 1.394 . S
C340 H356 0.931 . S
C341 C340 1.391 . S
C341 C345 1.376 . S
C342 C340 1.394 . S
C342 C343 1.369 . S
C342 C346 1.531 . S
C343 C342 1.369 . S
C343 C344 1.410 . S
C343 C351 1.503 . S
C344 C343 1.410 . S
C344 C345 1.392 . S
C344 C347 1.511 . S
C345 C341 1.376 . S
C345 C344 1.392 . S
C345 H357 0.929 . S
C346 C342 1.531 . S
C346 H358 0.960 . S
C346 H359 0.962 . S
C346 H360 0.960 . S
C347 C344 1.511 . S
C347 H361 0.961 . S
C347 H362 0.961 . S
C347 H363 0.961 . S
C348 C349 1.370 . S
C348 C350 1.363 . S
C348 H364 0.931 . S
C349 C348 1.370 . S
C349 C353 1.408 . S
C350 C348 1.363 . S
C350 C351 1.370 . S
C350 C354 1.524 . S
C351 C343 1.503 . S
C351 C350 1.370 . S
C351 C352 1.403 . S
C352 C351 1.403 . S
C352 C353 1.404 . S
C352 C355 1.539 . S
C353 C349 1.408 . S
C353 C352 1.404 . S
C353 H365 0.930 . S
C354 C350 1.524 . S
C354 H366 0.956 . S
C354 H367 0.961 . S
C354 H368 0.961 . S
C355 C352 1.539 . S
C355 H369 0.958 . S
C355 H370 0.961 . S
C355 H371 0.960 . S
H356 C340 0.931 . S
H357 C345 0.929 . S
H358 C346 0.960 . S
H359 C346 0.962 . S
H360 C346 0.960 . S
H361 C347 0.961 . S
H362 C347 0.961 . S
H363 C347 0.961 . S
H364 C348 0.931 . S
H365 C353 0.930 . S
H366 C354 0.956 . S
H367 C354 0.961 . S
H368 C354 0.961 . S
H369 C355 0.958 . S
H370 C355 0.961 . S
H371 C355 0.960 . S
C372 C373 1.391 . S
C372 C374 1.394 . S
C372 H388 0.931 . S
C373 C372 1.391 . S
C373 C377 1.376 . S
C374 C372 1.394 . S
C374 C375 1.369 . S
C374 C378 1.531 . S
C375 C374 1.369 . S
C375 C376 1.410 . S
C375 C383 1.503 . S
C376 C375 1.410 . S
C376 C377 1.392 . S
C376 C379 1.511 . S
C377 C373 1.376 . S
C377 C376 1.392 . S
C377 H389 0.929 . S
C378 C374 1.531 . S
C378 H390 0.960 . S
C378 H391 0.962 . S
C378 H392 0.960 . S
C379 C376 1.511 . S
C379 H393 0.961 . S
C379 H394 0.961 . S
C379 H395 0.961 . S
C380 C381 1.370 . S
C380 C382 1.363 . S
C380 H396 0.931 . S
C381 C380 1.370 . S
C381 C385 1.408 . S
C382 C380 1.363 . S
C382 C383 1.370 . S
C382 C386 1.524 . S
C383 C375 1.503 . S
C383 C382 1.370 . S
C383 C384 1.403 . S
C384 C383 1.403 . S
C384 C385 1.404 . S
C384 C387 1.539 . S
C385 C381 1.408 . S
C385 C384 1.404 . S
C385 H397 0.930 . S
C386 C382 1.524 . S
C386 H398 0.956 . S
C386 H399 0.961 . S
C386 H400 0.961 . S
C387 C384 1.539 . S
C387 H401 0.958 . S
C387 H402 0.961 . S
C387 H403 0.960 . S
H388 C372 0.931 . S
H389 C377 0.929 . S
H390 C378 0.960 . S
H391 C378 0.962 . S
H392 C378 0.960 . S
H393 C379 0.961 . S
H394 C379 0.961 . S
H395 C379 0.961 . S
H396 C380 0.931 . S
H397 C385 0.930 . S
H398 C386 0.956 . S
H399 C386 0.961 . S
H400 C386 0.961 . S
H401 C387 0.958 . S
H402 C387 0.961 . S
H403 C387 0.960 . S
C404 C405 1.391 . S
C404 C406 1.394 . S
C404 H420 0.931 . S
C405 C404 1.391 . S
C405 C409 1.376 . S
C406 C404 1.394 . S
C406 C407 1.369 . S
C406 C410 1.531 . S
C407 C406 1.369 . S
C407 C408 1.410 . S
C407 C415 1.503 . S
C408 C407 1.410 . S
C408 C409 1.392 . S
C408 C411 1.511 . S
C409 C405 1.376 . S
C409 C408 1.392 . S
C409 H421 0.929 . S
C410 C406 1.531 . S
C410 H422 0.960 . S
C410 H423 0.962 . S
C410 H424 0.960 . S
C411 C408 1.511 . S
C411 H425 0.961 . S
C411 H426 0.961 . S
C411 H427 0.961 . S
C412 C413 1.370 . S
C412 C414 1.363 . S
C412 H428 0.931 . S
C413 C412 1.370 . S
C413 C417 1.408 . S
C414 C412 1.363 . S
C414 C415 1.370 . S
C414 C418 1.524 . S
C415 C407 1.503 . S
C415 C414 1.370 . S
C415 C416 1.403 . S
C416 C415 1.403 . S
C416 C417 1.404 . S
C416 C419 1.539 . S
C417 C413 1.408 . S
C417 C416 1.404 . S
C417 H429 0.930 . S
C418 C414 1.524 . S
C418 H430 0.956 . S
C418 H431 0.961 . S
C418 H432 0.961 . S
C419 C416 1.539 . S
C419 H433 0.958 . S
C419 H434 0.961 . S
C419 H435 0.960 . S
H420 C404 0.931 . S
H421 C409 0.929 . S
H422 C410 0.960 . S
H423 C410 0.962 . S
H424 C410 0.960 . S
H425 C411 0.961 . S
H426 C411 0.961 . S
H427 C411 0.961 . S
H428 C412 0.931 . S
H429 C417 0.930 . S
H430 C418 0.956 . S
H431 C418 0.961 . S
H432 C418 0.961 . S
H433 C419 0.958 . S
H434 C419 0.961 . S
H435 C419 0.960 . S
C436 C437 1.391 . S
C436 C438 1.394 . S
C436 H452 0.931 . S
C437 C436 1.391 . S
C437 C441 1.376 . S
C438 C436 1.394 . S
C438 C439 1.369 . S
C438 C442 1.531 . S
C439 C438 1.369 . S
C439 C440 1.410 . S
C439 C447 1.503 . S
C440 C439 1.410 . S
C440 C441 1.392 . S
C440 C443 1.511 . S
C441 C437 1.376 . S
C441 C440 1.392 . S
C441 H453 0.929 . S
C442 C438 1.531 . S
C442 H454 0.960 . S
C442 H455 0.962 . S
C442 H456 0.960 . S
C443 C440 1.511 . S
C443 H457 0.961 . S
C443 H458 0.961 . S
C443 H459 0.961 . S
C444 C445 1.370 . S
C444 C446 1.363 . S
C444 H460 0.931 . S
C445 C444 1.370 . S
C445 C449 1.408 . S
C446 C444 1.363 . S
C446 C447 1.370 . S
C446 C450 1.524 . S
C447 C439 1.503 . S
C447 C446 1.370 . S
C447 C448 1.403 . S
C448 C447 1.403 . S
C448 C449 1.404 . S
C448 C451 1.539 . S
C449 C445 1.408 . S
C449 C448 1.404 . S
C449 H461 0.930 . S
C450 C446 1.524 . S
C450 H462 0.956 . S
C450 H463 0.961 . S
C450 H464 0.961 . S
C451 C448 1.539 . S
C451 H465 0.958 . S
C451 H466 0.961 . S
C451 H467 0.960 . S
H452 C436 0.931 . S
H453 C441 0.929 . S
H454 C442 0.960 . S
H455 C442 0.962 . S
H456 C442 0.960 . S
H457 C443 0.961 . S
H458 C443 0.961 . S
H459 C443 0.961 . S
H460 C444 0.931 . S
H461 C449 0.930 . S
H462 C450 0.956 . S
H463 C450 0.961 . S
H464 C450 0.961 . S
H465 C451 0.958 . S
H466 C451 0.961 . S
H467 C451 0.960 . S
C468 C469 1.391 . S
C468 C470 1.394 . S
C468 H484 0.931 . S
C469 C468 1.391 . S
C469 C473 1.376 . S
C470 C468 1.394 . S
C470 C471 1.369 . S
C470 C474 1.531 . S
C471 C470 1.369 . S
C471 C472 1.410 . S
C471 C479 1.503 . S
C472 C471 1.410 . S
C472 C473 1.392 . S
C472 C475 1.511 . S
C473 C469 1.376 . S
C473 C472 1.392 . S
C473 H485 0.929 . S
C474 C470 1.531 . S
C474 H486 0.960 . S
C474 H487 0.962 . S
C474 H488 0.960 . S
C475 C472 1.511 . S
C475 H489 0.961 . S
C475 H490 0.961 . S
C475 H491 0.961 . S
C476 C477 1.370 . S
C476 C478 1.363 . S
C476 H492 0.931 . S
C477 C476 1.370 . S
C477 C481 1.408 . S
C478 C476 1.363 . S
C478 C479 1.370 . S
C478 C482 1.524 . S
C479 C471 1.503 . S
C479 C478 1.370 . S
C479 C480 1.403 . S
C480 C479 1.403 . S
C480 C481 1.404 . S
C480 C483 1.539 . S
C481 C477 1.408 . S
C481 C480 1.404 . S
C481 H493 0.930 . S
C482 C478 1.524 . S
C482 H494 0.956 . S
C482 H495 0.961 . S
C482 H496 0.961 . S
C483 C480 1.539 . S
C483 H497 0.958 . S
C483 H498 0.961 . S
C483 H499 0.960 . S
H484 C468 0.931 . S
H485 C473 0.929 . S
H486 C474 0.960 . S
H487 C474 0.962 . S
H488 C474 0.960 . S
H489 C475 0.961 . S
H490 C475 0.961 . S
H491 C475 0.961 . S
H492 C476 0.931 . S
H493 C481 0.930 . S
H494 C482 0.956 . S
H495 C482 0.961 . S
H496 C482 0.961 . S
H497 C483 0.958 . S
H498 C483 0.961 . S
H499 C483 0.960 . S
C500 C501 1.391 . S
C500 C502 1.394 . S
C500 H516 0.931 . S
C501 C500 1.391 . S
C501 C505 1.376 . S
C502 C500 1.394 . S
C502 C503 1.369 . S
C502 C506 1.531 . S
C503 C502 1.369 . S
C503 C504 1.410 . S
C503 C511 1.503 . S
C504 C503 1.410 . S
C504 C505 1.392 . S
C504 C507 1.511 . S
C505 C501 1.376 . S
C505 C504 1.392 . S
C505 H517 0.929 . S
C506 C502 1.531 . S
C506 H518 0.960 . S
C506 H519 0.962 . S
C506 H520 0.960 . S
C507 C504 1.511 . S
C507 H521 0.961 . S
C507 H522 0.961 . S
C507 H523 0.961 . S
C508 C509 1.370 . S
C508 C510 1.363 . S
C508 H524 0.931 . S
C509 C508 1.370 . S
C509 C513 1.408 . S
C510 C508 1.363 . S
C510 C511 1.370 . S
C510 C514 1.524 . S
C511 C503 1.503 . S
C511 C510 1.370 . S
C511 C512 1.403 . S
C512 C511 1.403 . S
C512 C513 1.404 . S
C512 C515 1.539 . S
C513 C509 1.408 . S
C513 C512 1.404 . S
C513 H525 0.930 . S
C514 C510 1.524 . S
C514 H526 0.956 . S
C514 H527 0.961 . S
C514 H528 0.961 . S
C515 C512 1.539 . S
C515 H529 0.958 . S
C515 H530 0.961 . S
C515 H531 0.960 . S
H516 C500 0.931 . S
H517 C505 0.929 . S
H518 C506 0.960 . S
H519 C506 0.962 . S
H520 C506 0.960 . S
H521 C507 0.961 . S
H522 C507 0.961 . S
H523 C507 0.961 . S
H524 C508 0.931 . S
H525 C513 0.930 . S
H526 C514 0.956 . S
H527 C514 0.961 . S
H528 C514 0.961 . S
H529 C515 0.958 . S
H530 C515 0.961 . S
H531 C515 0.960 . S
C532 C533 1.391 . S
C532 C534 1.394 . S
C532 H548 0.931 . S
C533 C532 1.391 . S
C533 C537 1.376 . S
C534 C532 1.394 . S
C534 C535 1.369 . S
C534 C538 1.531 . S
C535 C534 1.369 . S
C535 C536 1.410 . S
C535 C543 1.503 . S
C536 C535 1.410 . S
C536 C537 1.392 . S
C536 C539 1.511 . S
C537 C533 1.376 . S
C537 C536 1.392 . S
C537 H549 0.929 . S
C538 C534 1.531 . S
C538 H550 0.960 . S
C538 H551 0.962 . S
C538 H552 0.960 . S
C539 C536 1.511 . S
C539 H553 0.961 . S
C539 H554 0.961 . S
C539 H555 0.961 . S
C540 C541 1.370 . S
C540 C542 1.363 . S
C540 H556 0.931 . S
C541 C540 1.370 . S
C541 C545 1.408 . S
C542 C540 1.363 . S
C542 C543 1.370 . S
C542 C546 1.524 . S
C543 C535 1.503 . S
C543 C542 1.370 . S
C543 C544 1.403 . S
C544 C543 1.403 . S
C544 C545 1.404 . S
C544 C547 1.539 . S
C545 C541 1.408 . S
C545 C544 1.404 . S
C545 H557 0.930 . S
C546 C542 1.524 . S
C546 H558 0.956 . S
C546 H559 0.961 . S
C546 H560 0.961 . S
C547 C544 1.539 . S
C547 H561 0.958 . S
C547 H562 0.961 . S
C547 H563 0.960 . S
H548 C532 0.931 . S
H549 C537 0.929 . S
H550 C538 0.960 . S
H551 C538 0.962 . S
H552 C538 0.960 . S
H553 C539 0.961 . S
H554 C539 0.961 . S
H555 C539 0.961 . S
H556 C540 0.931 . S
H557 C545 0.930 . S
H558 C546 0.956 . S
H559 C546 0.961 . S
H560 C546 0.961 . S
H561 C547 0.958 . S
H562 C547 0.961 . S
H563 C547 0.960 . S
C564 C565 1.391 . S
C564 C566 1.394 . S
C564 H580 0.931 . S
C565 C564 1.391 . S
C565 C569 1.376 . S
C566 C564 1.394 . S
C566 C567 1.369 . S
C566 C570 1.531 . S
C567 C566 1.369 . S
C567 C568 1.410 . S
C567 C575 1.503 . S
C568 C567 1.410 . S
C568 C569 1.392 . S
C568 C571 1.511 . S
C569 C565 1.376 . S
C569 C568 1.392 . S
C569 H581 0.929 . S
C570 C566 1.531 . S
C570 H582 0.960 . S
C570 H583 0.962 . S
C570 H584 0.960 . S
C571 C568 1.511 . S
C571 H585 0.961 . S
C571 H586 0.961 . S
C571 H587 0.961 . S
C572 C573 1.370 . S
C572 C574 1.363 . S
C572 H588 0.931 . S
C573 C572 1.370 . S
C573 C577 1.408 . S
C574 C572 1.363 . S
C574 C575 1.370 . S
C574 C578 1.524 . S
C575 C567 1.503 . S
C575 C574 1.370 . S
C575 C576 1.403 . S
C576 C575 1.403 . S
C576 C577 1.404 . S
C576 C579 1.539 . S
C577 C573 1.408 . S
C577 C576 1.404 . S
C577 H589 0.930 . S
C578 C574 1.524 . S
C578 H590 0.956 . S
C578 H591 0.961 . S
C578 H592 0.961 . S
C579 C576 1.539 . S
C579 H593 0.958 . S
C579 H594 0.961 . S
C579 H595 0.960 . S
H580 C564 0.931 . S
H581 C569 0.929 . S
H582 C570 0.960 . S
H583 C570 0.962 . S
H584 C570 0.960 . S
H585 C571 0.961 . S
H586 C571 0.961 . S
H587 C571 0.961 . S
H588 C572 0.931 . S
H589 C577 0.930 . S
H590 C578 0.956 . S
H591 C578 0.961 . S
H592 C578 0.961 . S
H593 C579 0.958 . S
H594 C579 0.961 . S
H595 C579 0.960 . S
C596 C597 1.391 . S
C596 C598 1.394 . S
C596 H612 0.931 . S
C597 C596 1.391 . S
C597 C601 1.376 . S
C598 C596 1.394 . S
C598 C599 1.369 . S
C598 C602 1.531 . S
C599 C598 1.369 . S
C599 C600 1.410 . S
C599 C607 1.503 . S
C600 C599 1.410 . S
C600 C601 1.392 . S
C600 C603 1.511 . S
C601 C597 1.376 . S
C601 C600 1.392 . S
C601 H613 0.929 . S
C602 C598 1.531 . S
C602 H614 0.960 . S
C602 H615 0.962 . S
C602 H616 0.960 . S
C603 C600 1.511 . S
C603 H617 0.961 . S
C603 H618 0.961 . S
C603 H619 0.961 . S
C604 C605 1.370 . S
C604 C606 1.363 . S
C604 H620 0.931 . S
C605 C604 1.370 . S
C605 C609 1.408 . S
C606 C604 1.363 . S
C606 C607 1.370 . S
C606 C610 1.524 . S
C607 C599 1.503 . S
C607 C606 1.370 . S
C607 C608 1.403 . S
C608 C607 1.403 . S
C608 C609 1.404 . S
C608 C611 1.539 . S
C609 C605 1.408 . S
C609 C608 1.404 . S
C609 H621 0.930 . S
C610 C606 1.524 . S
C610 H622 0.956 . S
C610 H623 0.961 . S
C610 H624 0.961 . S
C611 C608 1.539 . S
C611 H625 0.958 . S
C611 H626 0.961 . S
C611 H627 0.960 . S
H612 C596 0.931 . S
H613 C601 0.929 . S
H614 C602 0.960 . S
H615 C602 0.962 . S
H616 C602 0.960 . S
H617 C603 0.961 . S
H618 C603 0.961 . S
H619 C603 0.961 . S
H620 C604 0.931 . S
H621 C609 0.930 . S
H622 C610 0.956 . S
H623 C610 0.961 . S
H624 C610 0.961 . S
H625 C611 0.958 . S
H626 C611 0.961 . S
H627 C611 0.960 . S
C628 C629 1.391 . S
C628 C630 1.394 . S
C628 H644 0.931 . S
C629 C628 1.391 . S
C629 C633 1.376 . S
C630 C628 1.394 . S
C630 C631 1.369 . S
C630 C634 1.531 . S
C631 C630 1.369 . S
C631 C632 1.410 . S
C631 C639 1.503 . S
C632 C631 1.410 . S
C632 C633 1.392 . S
C632 C635 1.511 . S
C633 C629 1.376 . S
C633 C632 1.392 . S
C633 H645 0.929 . S
C634 C630 1.531 . S
C634 H646 0.960 . S
C634 H647 0.962 . S
C634 H648 0.960 . S
C635 C632 1.511 . S
C635 H649 0.961 . S
C635 H650 0.961 . S
C635 H651 0.961 . S
C636 C637 1.370 . S
C636 C638 1.363 . S
C636 H652 0.931 . S
C637 C636 1.370 . S
C637 C641 1.408 . S
C638 C636 1.363 . S
C638 C639 1.370 . S
C638 C642 1.524 . S
C639 C631 1.503 . S
C639 C638 1.370 . S
C639 C640 1.403 . S
C640 C639 1.403 . S
C640 C641 1.404 . S
C640 C643 1.539 . S
C641 C637 1.408 . S
C641 C640 1.404 . S
C641 H653 0.930 . S
C642 C638 1.524 . S
C642 H654 0.956 . S
C642 H655 0.961 . S
C642 H656 0.961 . S
C643 C640 1.539 . S
C643 H657 0.958 . S
C643 H658 0.961 . S
C643 H659 0.960 . S
H644 C628 0.931 . S
H645 C633 0.929 . S
H646 C634 0.960 . S
H647 C634 0.962 . S
H648 C634 0.960 . S
H649 C635 0.961 . S
H650 C635 0.961 . S
H651 C635 0.961 . S
H652 C636 0.931 . S
H653 C641 0.930 . S
H654 C642 0.956 . S
H655 C642 0.961 . S
H656 C642 0.961 . S
H657 C643 0.958 . S
H658 C643 0.961 . S
H659 C643 0.960 . S
C660 C661 1.391 . S
C660 C662 1.394 . S
C660 H676 0.931 . S
C661 C660 1.391 . S
C661 C665 1.376 . S
C662 C660 1.394 . S
C662 C663 1.369 . S
C662 C666 1.531 . S
C663 C662 1.369 . S
C663 C664 1.410 . S
C663 C671 1.503 . S
C664 C663 1.410 . S
C664 C665 1.392 . S
C664 C667 1.511 . S
C665 C661 1.376 . S
C665 C664 1.392 . S
C665 H677 0.929 . S
C666 C662 1.531 . S
C666 H678 0.960 . S
C666 H679 0.962 . S
C666 H680 0.960 . S
C667 C664 1.511 . S
C667 H681 0.961 . S
C667 H682 0.961 . S
C667 H683 0.961 . S
C668 C669 1.370 . S
C668 C670 1.363 . S
C668 H684 0.931 . S
C669 C668 1.370 . S
C669 C673 1.408 . S
C670 C668 1.363 . S
C670 C671 1.370 . S
C670 C674 1.524 . S
C671 C663 1.503 . S
C671 C670 1.370 . S
C671 C672 1.403 . S
C672 C671 1.403 . S
C672 C673 1.404 . S
C672 C675 1.539 . S
C673 C669 1.408 . S
C673 C672 1.404 . S
C673 H685 0.930 . S
C674 C670 1.524 . S
C674 H686 0.956 . S
C674 H687 0.961 . S
C674 H688 0.961 . S
C675 C672 1.539 . S
C675 H689 0.958 . S
C675 H690 0.961 . S
C675 H691 0.960 . S
H676 C660 0.931 . S
H677 C665 0.929 . S
H678 C666 0.960 . S
H679 C666 0.962 . S
H680 C666 0.960 . S
H681 C667 0.961 . S
H682 C667 0.961 . S
H683 C667 0.961 . S
H684 C668 0.931 . S
H685 C673 0.930 . S
H686 C674 0.956 . S
H687 C674 0.961 . S
H688 C674 0.961 . S
H689 C675 0.958 . S
H690 C675 0.961 . S
H691 C675 0.960 . S
C692 C693 1.391 . S
C692 C694 1.394 . S
C692 H708 0.931 . S
C693 C692 1.391 . S
C693 C697 1.376 . S
C694 C692 1.394 . S
C694 C695 1.369 . S
C694 C698 1.531 . S
C695 C694 1.369 . S
C695 C696 1.410 . S
C695 C703 1.503 . S
C696 C695 1.410 . S
C696 C697 1.392 . S
C696 C699 1.511 . S
C697 C693 1.376 . S
C697 C696 1.392 . S
C697 H709 0.929 . S
C698 C694 1.531 . S
C698 H710 0.960 . S
C698 H711 0.962 . S
C698 H712 0.960 . S
C699 C696 1.511 . S
C699 H713 0.961 . S
C699 H714 0.961 . S
C699 H715 0.961 . S
C700 C701 1.370 . S
C700 C702 1.363 . S
C700 H716 0.931 . S
C701 C700 1.370 . S
C701 C705 1.408 . S
C702 C700 1.363 . S
C702 C703 1.370 . S
C702 C706 1.524 . S
C703 C695 1.503 . S
C703 C702 1.370 . S
C703 C704 1.403 . S
C704 C703 1.403 . S
C704 C705 1.404 . S
C704 C707 1.539 . S
C705 C701 1.408 . S
C705 C704 1.404 . S
C705 H717 0.930 . S
C706 C702 1.524 . S
C706 H718 0.956 . S
C706 H719 0.961 . S
C706 H720 0.961 . S
C707 C704 1.539 . S
C707 H721 0.958 . S
C707 H722 0.961 . S
C707 H723 0.960 . S
H708 C692 0.931 . S
H709 C697 0.929 . S
H710 C698 0.960 . S
H711 C698 0.962 . S
H712 C698 0.960 . S
H713 C699 0.961 . S
H714 C699 0.961 . S
H715 C699 0.961 . S
H716 C700 0.931 . S
H717 C705 0.930 . S
H718 C706 0.956 . S
H719 C706 0.961 . S
H720 C706 0.961 . S
H721 C707 0.958 . S
H722 C707 0.961 . S
H723 C707 0.960 . S
C724 C725 1.391 . S
C724 C726 1.394 . S
C724 H740 0.931 . S
C725 C724 1.391 . S
C725 C729 1.376 . S
C726 C724 1.394 . S
C726 C727 1.369 . S
C726 C730 1.531 . S
C727 C726 1.369 . S
C727 C728 1.410 . S
C727 C735 1.503 . S
C728 C727 1.410 . S
C728 C729 1.392 . S
C728 C731 1.511 . S
C729 C725 1.376 . S
C729 C728 1.392 . S
C729 H741 0.929 . S
C730 C726 1.531 . S
C730 H742 0.960 . S
C730 H743 0.962 . S
C730 H744 0.960 . S
C731 C728 1.511 . S
C731 H745 0.961 . S
C731 H746 0.961 . S
C731 H747 0.961 . S
C732 C733 1.370 . S
C732 C734 1.363 . S
C732 H748 0.931 . S
C733 C732 1.370 . S
C733 C737 1.408 . S
C734 C732 1.363 . S
C734 C735 1.370 . S
C734 C738 1.524 . S
C735 C727 1.503 . S
C735 C734 1.370 . S
C735 C736 1.403 . S
C736 C735 1.403 . S
C736 C737 1.404 . S
C736 C739 1.539 . S
C737 C733 1.408 . S
C737 C736 1.404 . S
C737 H749 0.930 . S
C738 C734 1.524 . S
C738 H750 0.956 . S
C738 H751 0.961 . S
C738 H752 0.961 . S
C739 C736 1.539 . S
C739 H753 0.958 . S
C739 H754 0.961 . S
C739 H755 0.960 . S
H740 C724 0.931 . S
H741 C729 0.929 . S
H742 C730 0.960 . S
H743 C730 0.962 . S
H744 C730 0.960 . S
H745 C731 0.961 . S
H746 C731 0.961 . S
H747 C731 0.961 . S
H748 C732 0.931 . S
H749 C737 0.930 . S
H750 C738 0.956 . S
H751 C738 0.961 . S
H752 C738 0.961 . S
H753 C739 0.958 . S
H754 C739 0.961 . S
H755 C739 0.960 . S
C756 C757 1.391 . S
C756 C758 1.394 . S
C756 H772 0.931 . S
C757 C756 1.391 . S
C757 C761 1.376 . S
C758 C756 1.394 . S
C758 C759 1.369 . S
C758 C762 1.531 . S
C759 C758 1.369 . S
C759 C760 1.410 . S
C759 C767 1.503 . S
C760 C759 1.410 . S
C760 C761 1.392 . S
C760 C763 1.511 . S
C761 C757 1.376 . S
C761 C760 1.392 . S
C761 H773 0.929 . S
C762 C758 1.531 . S
C762 H774 0.960 . S
C762 H775 0.962 . S
C762 H776 0.960 . S
C763 C760 1.511 . S
C763 H777 0.961 . S
C763 H778 0.961 . S
C763 H779 0.961 . S
C764 C765 1.370 . S
C764 C766 1.363 . S
C764 H780 0.931 . S
C765 C764 1.370 . S
C765 C769 1.408 . S
C766 C764 1.363 . S
C766 C767 1.370 . S
C766 C770 1.524 . S
C767 C759 1.503 . S
C767 C766 1.370 . S
C767 C768 1.403 . S
C768 C767 1.403 . S
C768 C769 1.404 . S
C768 C771 1.539 . S
C769 C765 1.408 . S
C769 C768 1.404 . S
C769 H781 0.930 . S
C770 C766 1.524 . S
C770 H782 0.956 . S
C770 H783 0.961 . S
C770 H784 0.961 . S
C771 C768 1.539 . S
C771 H785 0.958 . S
C771 H786 0.961 . S
C771 H787 0.960 . S
H772 C756 0.931 . S
H773 C761 0.929 . S
H774 C762 0.960 . S
H775 C762 0.962 . S
H776 C762 0.960 . S
H777 C763 0.961 . S
H778 C763 0.961 . S
H779 C763 0.961 . S
H780 C764 0.931 . S
H781 C769 0.930 . S
H782 C770 0.956 . S
H783 C770 0.961 . S
H784 C770 0.961 . S
H785 C771 0.958 . S
H786 C771 0.961 . S
H787 C771 0.960 . S
C788 C789 1.391 . S
C788 C790 1.394 . S
C788 H804 0.931 . S
C789 C788 1.391 . S
C789 C793 1.376 . S
C790 C788 1.394 . S
C790 C791 1.369 . S
C790 C794 1.531 . S
C791 C790 1.369 . S
C791 C792 1.410 . S
C791 C799 1.503 . S
C792 C791 1.410 . S
C792 C793 1.392 . S
C792 C795 1.511 . S
C793 C789 1.376 . S
C793 C792 1.392 . S
C793 H805 0.929 . S
C794 C790 1.531 . S
C794 H806 0.960 . S
C794 H807 0.962 . S
C794 H808 0.960 . S
C795 C792 1.511 . S
C795 H809 0.961 . S
C795 H810 0.961 . S
C795 H811 0.961 . S
C796 C797 1.370 . S
C796 C798 1.363 . S
C796 H812 0.931 . S
C797 C796 1.370 . S
C797 C801 1.408 . S
C798 C796 1.363 . S
C798 C799 1.370 . S
C798 C802 1.524 . S
C799 C791 1.503 . S
C799 C798 1.370 . S
C799 C800 1.403 . S
C800 C799 1.403 . S
C800 C801 1.404 . S
C800 C803 1.539 . S
C801 C797 1.408 . S
C801 C800 1.404 . S
C801 H813 0.930 . S
C802 C798 1.524 . S
C802 H814 0.956 . S
C802 H815 0.961 . S
C802 H816 0.961 . S
C803 C800 1.539 . S
C803 H817 0.958 . S
C803 H818 0.961 . S
C803 H819 0.960 . S
H804 C788 0.931 . S
H805 C793 0.929 . S
H806 C794 0.960 . S
H807 C794 0.962 . S
H808 C794 0.960 . S
H809 C795 0.961 . S
H810 C795 0.961 . S
H811 C795 0.961 . S
H812 C796 0.931 . S
H813 C801 0.930 . S
H814 C802 0.956 . S
H815 C802 0.961 . S
H816 C802 0.961 . S
H817 C803 0.958 . S
H818 C803 0.961 . S
H819 C803 0.960 . S
C820 C821 1.391 . S
C820 C822 1.394 . S
C820 H836 0.931 . S
C821 C820 1.391 . S
C821 C825 1.376 . S
C822 C820 1.394 . S
C822 C823 1.369 . S
C822 C826 1.531 . S
C823 C822 1.369 . S
C823 C824 1.410 . S
C823 C831 1.503 . S
C824 C823 1.410 . S
C824 C825 1.392 . S
C824 C827 1.511 . S
C825 C821 1.376 . S
C825 C824 1.392 . S
C825 H837 0.929 . S
C826 C822 1.531 . S
C826 H838 0.960 . S
C826 H839 0.962 . S
C826 H840 0.960 . S
C827 C824 1.511 . S
C827 H841 0.961 . S
C827 H842 0.961 . S
C827 H843 0.961 . S
C828 C829 1.370 . S
C828 C830 1.363 . S
C828 H844 0.931 . S
C829 C828 1.370 . S
C829 C833 1.408 . S
C830 C828 1.363 . S
C830 C831 1.370 . S
C830 C834 1.524 . S
C831 C823 1.503 . S
C831 C830 1.370 . S
C831 C832 1.403 . S
C832 C831 1.403 . S
C832 C833 1.404 . S
C832 C835 1.539 . S
C833 C829 1.408 . S
C833 C832 1.404 . S
C833 H845 0.930 . S
C834 C830 1.524 . S
C834 H846 0.956 . S
C834 H847 0.961 . S
C834 H848 0.961 . S
C835 C832 1.539 . S
C835 H849 0.958 . S
C835 H850 0.961 . S
C835 H851 0.960 . S
H836 C820 0.931 . S
H837 C825 0.929 . S
H838 C826 0.960 . S
H839 C826 0.962 . S
H840 C826 0.960 . S
H841 C827 0.961 . S
H842 C827 0.961 . S
H843 C827 0.961 . S
H844 C828 0.931 . S
H845 C833 0.930 . S
H846 C834 0.956 . S
H847 C834 0.961 . S
H848 C834 0.961 . S
H849 C835 0.958 . S
H850 C835 0.961 . S
H851 C835 0.960 . S
C852 C853 1.391 . S
C852 C854 1.394 . S
C852 H868 0.931 . S
C853 C852 1.391 . S
C853 C857 1.376 . S
C854 C852 1.394 . S
C854 C855 1.369 . S
C854 C858 1.531 . S
C855 C854 1.369 . S
C855 C856 1.410 . S
C855 C863 1.503 . S
C856 C855 1.410 . S
C856 C857 1.392 . S
C856 C859 1.511 . S
C857 C853 1.376 . S
C857 C856 1.392 . S
C857 H869 0.929 . S
C858 C854 1.531 . S
C858 H870 0.960 . S
C858 H871 0.962 . S
C858 H872 0.960 . S
C859 C856 1.511 . S
C859 H873 0.961 . S
C859 H874 0.961 . S
C859 H875 0.961 . S
C860 C861 1.370 . S
C860 C862 1.363 . S
C860 H876 0.931 . S
C861 C860 1.370 . S
C861 C865 1.408 . S
C862 C860 1.363 . S
C862 C863 1.370 . S
C862 C866 1.524 . S
C863 C855 1.503 . S
C863 C862 1.370 . S
C863 C864 1.403 . S
C864 C863 1.403 . S
C864 C865 1.404 . S
C864 C867 1.539 . S
C865 C861 1.408 . S
C865 C864 1.404 . S
C865 H877 0.930 . S
C866 C862 1.524 . S
C866 H878 0.956 . S
C866 H879 0.961 . S
C866 H880 0.961 . S
C867 C864 1.539 . S
C867 H881 0.958 . S
C867 H882 0.961 . S
C867 H883 0.960 . S
H868 C852 0.931 . S
H869 C857 0.929 . S
H870 C858 0.960 . S
H871 C858 0.962 . S
H872 C858 0.960 . S
H873 C859 0.961 . S
H874 C859 0.961 . S
H875 C859 0.961 . S
H876 C860 0.931 . S
H877 C865 0.930 . S
H878 C866 0.956 . S
H879 C866 0.961 . S
H880 C866 0.961 . S
H881 C867 0.958 . S
H882 C867 0.961 . S
H883 C867 0.960 . S
C884 C885 1.391 . S
C884 C886 1.394 . S
C884 H900 0.931 . S
C885 C884 1.391 . S
C885 C889 1.376 . S
C886 C884 1.394 . S
C886 C887 1.369 . S
C886 C890 1.531 . S
C887 C886 1.369 . S
C887 C888 1.410 . S
C887 C895 1.503 . S
C888 C887 1.410 . S
C888 C889 1.392 . S
C888 C891 1.511 . S
C889 C885 1.376 . S
C889 C888 1.392 . S
C889 H901 0.929 . S
C890 C886 1.531 . S
C890 H902 0.960 . S
C890 H903 0.962 . S
C890 H904 0.960 . S
C891 C888 1.511 . S
C891 H905 0.961 . S
C891 H906 0.961 . S
C891 H907 0.961 . S
C892 C893 1.370 . S
C892 C894 1.363 . S
C892 H908 0.931 . S
C893 C892 1.370 . S
C893 C897 1.408 . S
C894 C892 1.363 . S
C894 C895 1.370 . S
C894 C898 1.524 . S
C895 C887 1.503 . S
C895 C894 1.370 . S
C895 C896 1.403 . S
C896 C895 1.403 . S
C896 C897 1.404 . S
C896 C899 1.539 . S
C897 C893 1.408 . S
C897 C896 1.404 . S
C897 H909 0.930 . S
C898 C894 1.524 . S
C898 H910 0.956 . S
C898 H911 0.961 . S
C898 H912 0.961 . S
C899 C896 1.539 . S
C899 H913 0.958 . S
C899 H914 0.961 . S
C899 H915 0.960 . S
H900 C884 0.931 . S
H901 C889 0.929 . S
H902 C890 0.960 . S
H903 C890 0.962 . S
H904 C890 0.960 . S
H905 C891 0.961 . S
H906 C891 0.961 . S
H907 C891 0.961 . S
H908 C892 0.931 . S
H909 C897 0.930 . S
H910 C898 0.956 . S
H911 C898 0.961 . S
H912 C898 0.961 . S
H913 C899 0.958 . S
H914 C899 0.961 . S
H915 C899 0.960 . S
C916 C917 1.391 . S
C916 C918 1.394 . S
C916 H932 0.931 . S
C917 C916 1.391 . S
C917 C921 1.376 . S
C918 C916 1.394 . S
C918 C919 1.369 . S
C918 C922 1.531 . S
C919 C918 1.369 . S
C919 C920 1.410 . S
C919 C927 1.503 . S
C920 C919 1.410 . S
C920 C921 1.392 . S
C920 C923 1.511 . S
C921 C917 1.376 . S
C921 C920 1.392 . S
C921 H933 0.929 . S
C922 C918 1.531 . S
C922 H934 0.960 . S
C922 H935 0.962 . S
C922 H936 0.960 . S
C923 C920 1.511 . S
C923 H937 0.961 . S
C923 H938 0.961 . S
C923 H939 0.961 . S
C924 C925 1.370 . S
C924 C926 1.363 . S
C924 H940 0.931 . S
C925 C924 1.370 . S
C925 C929 1.408 . S
C926 C924 1.363 . S
C926 C927 1.370 . S
C926 C930 1.524 . S
C927 C919 1.503 . S
C927 C926 1.370 . S
C927 C928 1.403 . S
C928 C927 1.403 . S
C928 C929 1.404 . S
C928 C931 1.539 . S
C929 C925 1.408 . S
C929 C928 1.404 . S
C929 H941 0.930 . S
C930 C926 1.524 . S
C930 H942 0.956 . S
C930 H943 0.961 . S
C930 H944 0.961 . S
C931 C928 1.539 . S
C931 H945 0.958 . S
C931 H946 0.961 . S
C931 H947 0.960 . S
H932 C916 0.931 . S
H933 C921 0.929 . S
H934 C922 0.960 . S
H935 C922 0.962 . S
H936 C922 0.960 . S
H937 C923 0.961 . S
H938 C923 0.961 . S
H939 C923 0.961 . S
H940 C924 0.931 . S
H941 C929 0.930 . S
H942 C930 0.956 . S
H943 C930 0.961 . S
H944 C930 0.961 . S
H945 C931 0.958 . S
H946 C931 0.961 . S
H947 C931 0.960 . S
C948 C949 1.391 . S
C948 C950 1.394 . S
C948 H964 0.931 . S
C949 C948 1.391 . S
C949 C953 1.376 . S
C950 C948 1.394 . S
C950 C951 1.369 . S
C950 C954 1.531 . S
C951 C950 1.369 . S
C951 C952 1.410 . S
C951 C959 1.503 . S
C952 C951 1.410 . S
C952 C953 1.392 . S
C952 C955 1.511 . S
C953 C949 1.376 . S
C953 C952 1.392 . S
C953 H965 0.929 . S
C954 C950 1.531 . S
C954 H966 0.960 . S
C954 H967 0.962 . S
C954 H968 0.960 . S
C955 C952 1.511 . S
C955 H969 0.961 . S
C955 H970 0.961 . S
C955 H971 0.961 . S
C956 C957 1.370 . S
C956 C958 1.363 . S
C956 H972 0.931 . S
C957 C956 1.370 . S
C957 C961 1.408 . S
C958 C956 1.363 . S
C958 C959 1.370 . S
C958 C962 1.524 . S
C959 C951 1.503 . S
C959 C958 1.370 . S
C959 C960 1.403 . S
C960 C959 1.403 . S
C960 C961 1.404 . S
C960 C963 1.539 . S
C961 C957 1.408 . S
C961 C960 1.404 . S
C961 H973 0.930 . S
C962 C958 1.524 . S
C962 H974 0.956 . S
C962 H975 0.961 . S
C962 H976 0.961 . S
C963 C960 1.539 . S
C963 H977 0.958 . S
C963 H978 0.961 . S
C963 H979 0.960 . S
H964 C948 0.931 . S
H965 C953 0.929 . S
H966 C954 0.960 . S
H967 C954 0.962 . S
H968 C954 0.960 . S
H969 C955 0.961 . S
H970 C955 0.961 . S
H971 C955 0.961 . S
H972 C956 0.931 . S
H973 C961 0.930 . S
H974 C962 0.956 . S
H975 C962 0.961 . S
H976 C962 0.961 . S
H977 C963 0.958 . S
H978 C963 0.961 . S
H979 C963 0.960 . S
C980 C981 1.391 . S
C980 C982 1.394 . S
C980 H996 0.931 . S
C981 C980 1.391 . S
C981 C985 1.376 . S
C982 C980 1.394 . S
C982 C983 1.369 . S
C982 C986 1.531 . S
C983 C982 1.369 . S
C983 C984 1.410 . S
C983 C991 1.503 . S
C984 C983 1.410 . S
C984 C985 1.392 . S
C984 C987 1.511 . S
C985 C981 1.376 . S
C985 C984 1.392 . S
C985 H997 0.929 . S
C986 C982 1.531 . S
C986 H998 0.960 . S
C986 H999 0.962 . S
C986 H1000 0.960 . S
C987 C984 1.511 . S
C987 H1001 0.961 . S
C987 H1002 0.961 . S
C987 H1003 0.961 . S
C988 C989 1.370 . S
C988 C990 1.363 . S
C988 H1004 0.931 . S
C989 C988 1.370 . S
C989 C993 1.408 . S
C990 C988 1.363 . S
C990 C991 1.370 . S
C990 C994 1.524 . S
C991 C983 1.503 . S
C991 C990 1.370 . S
C991 C992 1.403 . S
C992 C991 1.403 . S
C992 C993 1.404 . S
C992 C995 1.539 . S
C993 C989 1.408 . S
C993 C992 1.404 . S
C993 H1005 0.930 . S
C994 C990 1.524 . S
C994 H1006 0.956 . S
C994 H1007 0.961 . S
C994 H1008 0.961 . S
C995 C992 1.539 . S
C995 H1009 0.958 . S
C995 H1010 0.961 . S
C995 H1011 0.960 . S
H996 C980 0.931 . S
H997 C985 0.929 . S
H998 C986 0.960 . S
H999 C986 0.962 . S
H1000 C986 0.960 . S
H1001 C987 0.961 . S
H1002 C987 0.961 . S
H1003 C987 0.961 . S
H1004 C988 0.931 . S
H1005 C993 0.930 . S
H1006 C994 0.956 . S
H1007 C994 0.961 . S
H1008 C994 0.961 . S
H1009 C995 0.958 . S
H1010 C995 0.961 . S
H1011 C995 0.960 . S
C1012 C1013 1.391 . S
C1012 C1014 1.394 . S
C1012 H1028 0.931 . S
C1013 C1012 1.391 . S
C1013 C1017 1.376 . S
C1014 C1012 1.394 . S
C1014 C1015 1.369 . S
C1014 C1018 1.531 . S
C1015 C1014 1.369 . S
C1015 C1016 1.410 . S
C1015 C1023 1.503 . S
C1016 C1015 1.410 . S
C1016 C1017 1.392 . S
C1016 C1019 1.511 . S
C1017 C1013 1.376 . S
C1017 C1016 1.392 . S
C1017 H1029 0.929 . S
C1018 C1014 1.531 . S
C1018 H1030 0.960 . S
C1018 H1031 0.962 . S
C1018 H1032 0.960 . S
C1019 C1016 1.511 . S
C1019 H1033 0.961 . S
C1019 H1034 0.961 . S
C1019 H1035 0.961 . S
C1020 C1021 1.370 . S
C1020 C1022 1.363 . S
C1020 H1036 0.931 . S
C1021 C1020 1.370 . S
C1021 C1025 1.408 . S
C1022 C1020 1.363 . S
C1022 C1023 1.370 . S
C1022 C1026 1.524 . S
C1023 C1015 1.503 . S
C1023 C1022 1.370 . S
C1023 C1024 1.403 . S
C1024 C1023 1.403 . S
C1024 C1025 1.404 . S
C1024 C1027 1.539 . S
C1025 C1021 1.408 . S
C1025 C1024 1.404 . S
C1025 H1037 0.930 . S
C1026 C1022 1.524 . S
C1026 H1038 0.956 . S
C1026 H1039 0.961 . S
C1026 H1040 0.961 . S
C1027 C1024 1.539 . S
C1027 H1041 0.958 . S
C1027 H1042 0.961 . S
C1027 H1043 0.960 . S
H1028 C1012 0.931 . S
H1029 C1017 0.929 . S
H1030 C1018 0.960 . S
H1031 C1018 0.962 . S
H1032 C1018 0.960 . S
H1033 C1019 0.961 . S
H1034 C1019 0.961 . S
H1035 C1019 0.961 . S
H1036 C1020 0.931 . S
H1037 C1025 0.930 . S
H1038 C1026 0.956 . S
H1039 C1026 0.961 . S
H1040 C1026 0.961 . S
H1041 C1027 0.958 . S
H1042 C1027 0.961 . S
H1043 C1027 0.960 . S
C1044 C1045 1.391 . S
C1044 C1046 1.394 . S
C1044 H1060 0.931 . S
C1045 C1044 1.391 . S
C1045 C1049 1.376 . S
C1046 C1044 1.394 . S
C1046 C1047 1.369 . S
C1046 C1050 1.531 . S
C1047 C1046 1.369 . S
C1047 C1048 1.410 . S
C1047 C1055 1.503 . S
C1048 C1047 1.410 . S
C1048 C1049 1.392 . S
C1048 C1051 1.511 . S
C1049 C1045 1.376 . S
C1049 C1048 1.392 . S
C1049 H1061 0.929 . S
C1050 C1046 1.531 . S
C1050 H1062 0.960 . S
C1050 H1063 0.962 . S
C1050 H1064 0.960 . S
C1051 C1048 1.511 . S
C1051 H1065 0.961 . S
C1051 H1066 0.961 . S
C1051 H1067 0.961 . S
C1052 C1053 1.370 . S
C1052 C1054 1.363 . S
C1052 H1068 0.931 . S
C1053 C1052 1.370 . S
C1053 C1057 1.408 . S
C1054 C1052 1.363 . S
C1054 C1055 1.370 . S
C1054 C1058 1.524 . S
C1055 C1047 1.503 . S
C1055 C1054 1.370 . S
C1055 C1056 1.403 . S
C1056 C1055 1.403 . S
C1056 C1057 1.404 . S
C1056 C1059 1.539 . S
C1057 C1053 1.408 . S
C1057 C1056 1.404 . S
C1057 H1069 0.930 . S
C1058 C1054 1.524 . S
C1058 H1070 0.956 . S
C1058 H1071 0.961 . S
C1058 H1072 0.961 . S
C1059 C1056 1.539 . S
C1059 H1073 0.958 . S
C1059 H1074 0.961 . S
C1059 H1075 0.960 . S
H1060 C1044 0.931 . S
H1061 C1049 0.929 . S
H1062 C1050 0.960 . S
H1063 C1050 0.962 . S
H1064 C1050 0.960 . S
H1065 C1051 0.961 . S
H1066 C1051 0.961 . S
H1067 C1051 0.961 . S
H1068 C1052 0.931 . S
H1069 C1057 0.930 . S
H1070 C1058 0.956 . S
H1071 C1058 0.961 . S
H1072 C1058 0.961 . S
H1073 C1059 0.958 . S
H1074 C1059 0.961 . S
H1075 C1059 0.960 . S
C1076 C1077 1.391 . S
C1076 C1078 1.394 . S
C1076 H1092 0.931 . S
C1077 C1076 1.391 . S
C1077 C1081 1.376 . S
C1078 C1076 1.394 . S
C1078 C1079 1.369 . S
C1078 C1082 1.531 . S
C1079 C1078 1.369 . S
C1079 C1080 1.410 . S
C1079 C1087 1.503 . S
C1080 C1079 1.410 . S
C1080 C1081 1.392 . S
C1080 C1083 1.511 . S
C1081 C1077 1.376 . S
C1081 C1080 1.392 . S
C1081 H1093 0.929 . S
C1082 C1078 1.531 . S
C1082 H1094 0.960 . S
C1082 H1095 0.962 . S
C1082 H1096 0.960 . S
C1083 C1080 1.511 . S
C1083 H1097 0.961 . S
C1083 H1098 0.961 . S
C1083 H1099 0.961 . S
C1084 C1085 1.370 . S
C1084 C1086 1.363 . S
C1084 H1100 0.931 . S
C1085 C1084 1.370 . S
C1085 C1089 1.408 . S
C1086 C1084 1.363 . S
C1086 C1087 1.370 . S
C1086 C1090 1.524 . S
C1087 C1079 1.503 . S
C1087 C1086 1.370 . S
C1087 C1088 1.403 . S
C1088 C1087 1.403 . S
C1088 C1089 1.404 . S
C1088 C1091 1.539 . S
C1089 C1085 1.408 . S
C1089 C1088 1.404 . S
C1089 H1101 0.930 . S
C1090 C1086 1.524 . S
C1090 H1102 0.956 . S
C1090 H1103 0.961 . S
C1090 H1104 0.961 . S
C1091 C1088 1.539 . S
C1091 H1105 0.958 . S
C1091 H1106 0.961 . S
C1091 H1107 0.960 . S
H1092 C1076 0.931 . S
H1093 C1081 0.929 . S
H1094 C1082 0.960 . S
H1095 C1082 0.962 . S
H1096 C1082 0.960 . S
H1097 C1083 0.961 . S
H1098 C1083 0.961 . S
H1099 C1083 0.961 . S
H1100 C1084 0.931 . S
H1101 C1089 0.930 . S
H1102 C1090 0.956 . S
H1103 C1090 0.961 . S
H1104 C1090 0.961 . S
H1105 C1091 0.958 . S
H1106 C1091 0.961 . S
H1107 C1091 0.960 . S
C349 C268 1.510 . S
C341 C23 1.509 . S
C381 C271 1.502 . S
C373 C49 1.467 . S
C413 C269 1.510 . S
C405 C87 1.464 . S
C445 C270 1.508 . S
C437 C125 1.459 . S
C477 C285 1.512 . S
C469 C29 1.472 . S
C509 C299 1.500 . S
C501 C61 1.489 . S
C533 C81 1.445 . S
C541 C325 1.500 . S
C573 C339 1.506 . S
C565 C113 1.479 . S
C605 C284 1.492 . S
C597 C55 1.468 . S
C629 C93 1.500 . S
C637 C298 1.511 . S
C669 C324 1.500 . S
C661 C119 1.481 . S
C701 C338 1.513 . S
C693 C17 1.496 . S
C725 C151 1.497 . S
C733 C283 1.511 . S
C765 C256 1.497 . S
C757 C177 1.466 . S
C789 C215 1.484 . S
C797 C282 1.510 . S
C821 C253 1.504 . S
C829 C257 1.511 . S
C861 C312 1.510 . S
C853 C157 1.438 . S
C893 C326 1.503 . S
C885 C189 1.470 . S
C925 C296 1.500 . S
C917 C209 1.488 . S
C949 C241 1.487 . S
C957 C310 1.506 . S
C989 C313 1.494 . S
C981 C183 1.483 . S
C1021 C327 1.510 . S
C1013 C221 1.489 . S
C1053 C297 1.499 . S
C1045 C247 1.478 . S
C1077 C145 1.493 . S
C1085 C311 1.507 . S
