# Generated by pormake.
# Topology pyr, (3,6)-cn, num edge types: 1
# Building blocks:
#     Node 0, Type 0, BuildingBlock: VETTIZ_charged_linker_0, # of connection points: 3
#     Node 1, Type 0, BuildingBlock: VETTIZ_charged_linker_0, # of connection points: 3
#     Node 2, Type 0, BuildingBlock: VETTIZ_charged_linker_0, # of connection points: 3
#     Node 3, Type 0, BuildingBlock: VETTIZ_charged_linker_0, # of connection points: 3
#     Node 4, Type 0, BuildingBlock: VETTIZ_charged_linker_0, # of connection points: 3
#     Node 5, Type 0, BuildingBlock: VETTIZ_charged_linker_0, # of connection points: 3
#     Node 6, Type 0, BuildingBlock: VETTIZ_charged_linker_0, # of connection points: 3
#     Node 7, Type 0, BuildingBlock: VETTIZ_charged_linker_0, # of connection points: 3
#     Node 8, Type 1, BuildingBlock: LEVNOQ01_clean_sbu_1, # of connection points: 6
#     Node 9, Type 1, BuildingBlock: LEVNOQ01_clean_sbu_1, # of connection points: 6
#     Node 10, Type 1, BuildingBlock: LEVNOQ01_clean_sbu_1, # of connection points: 6
#     Node 11, Type 1, BuildingBlock: LEVNOQ01_clean_sbu_1, # of connection points: 6
#     Edge 12, Type (0, 1), BuildingBlock: UVAHIK_clean_linker_0, # of connection points: 2
#     Edge 13, Type (0, 1), BuildingBlock: UVAHIK_clean_linker_0, # of connection points: 2
#     Edge 14, Type (0, 1), BuildingBlock: UVAHIK_clean_linker_0, # of connection points: 2
#     Edge 15, Type (0, 1), BuildingBlock: UVAHIK_clean_linker_0, # of connection points: 2
#     Edge 16, Type (0, 1), BuildingBlock: UVAHIK_clean_linker_0, # of connection points: 2
#     Edge 17, Type (0, 1), BuildingBlock: UVAHIK_clean_linker_0, # of connection points: 2
#     Edge 18, Type (0, 1), BuildingBlock: UVAHIK_clean_linker_0, # of connection points: 2
#     Edge 19, Type (0, 1), BuildingBlock: UVAHIK_clean_linker_0, # of connection points: 2
#     Edge 20, Type (0, 1), BuildingBlock: UVAHIK_clean_linker_0, # of connection points: 2
#     Edge 21, Type (0, 1), BuildingBlock: UVAHIK_clean_linker_0, # of connection points: 2
#     Edge 22, Type (0, 1), BuildingBlock: UVAHIK_clean_linker_0, # of connection points: 2
#     Edge 23, Type (0, 1), BuildingBlock: UVAHIK_clean_linker_0, # of connection points: 2
#     Edge 24, Type (0, 1), BuildingBlock: UVAHIK_clean_linker_0, # of connection points: 2
#     Edge 25, Type (0, 1), BuildingBlock: UVAHIK_clean_linker_0, # of connection points: 2
#     Edge 26, Type (0, 1), BuildingBlock: UVAHIK_clean_linker_0, # of connection points: 2
#     Edge 27, Type (0, 1), BuildingBlock: UVAHIK_clean_linker_0, # of connection points: 2
#     Edge 28, Type (0, 1), BuildingBlock: UVAHIK_clean_linker_0, # of connection points: 2
#     Edge 29, Type (0, 1), BuildingBlock: UVAHIK_clean_linker_0, # of connection points: 2
#     Edge 30, Type (0, 1), BuildingBlock: UVAHIK_clean_linker_0, # of connection points: 2
#     Edge 31, Type (0, 1), BuildingBlock: UVAHIK_clean_linker_0, # of connection points: 2
#     Edge 32, Type (0, 1), BuildingBlock: UVAHIK_clean_linker_0, # of connection points: 2
#     Edge 33, Type (0, 1), BuildingBlock: UVAHIK_clean_linker_0, # of connection points: 2
#     Edge 34, Type (0, 1), BuildingBlock: UVAHIK_clean_linker_0, # of connection points: 2
#     Edge 35, Type (0, 1), BuildingBlock: UVAHIK_clean_linker_0, # of connection points: 2
# Relax obj value: 0.035
# Max RMSD: 0.111
# Mean RMSD: 0.047
data_MOF--net-pry--node1-LEVNOQ01_clean_sbu_1--node2-VETTIZ_charged_linker_0--edge1-UVAHIK_clean_linker_0
_symmetry_space_group_name_H-M    P1
_symmetry_Int_Tables_number       1
_symmetry_cell_setting            triclinic
loop_
_symmetry_equiv_pos_as_xyz
'x, y, z'
_cell_length_a     56.577999
_cell_length_b     54.817081
_cell_length_c     54.855257
_cell_angle_alpha  91.955867
_cell_angle_beta   90.809348
_cell_angle_gamma 93.573298
loop_
_atom_site_label
_atom_site_type_symbol
_atom_site_fract_x
_atom_site_fract_y
_atom_site_fract_z
_atom_type_partial_charge
C0 C 0.11686 0.09471 0.19965 0.0
C1 C 0.0972 0.1035 0.21199 0.0
C2 C 0.08466 0.12189 0.20108 0.0
C3 C 0.11239 0.12392 0.16774 0.0
C4 C 0.12402 0.10505 0.17763 0.0
C5 C 0.14464 0.09803 0.16233 0.0
H6 H 0.22031 0.12415 0.07067 0.0
C7 C 0.12524 0.1318 0.14569 0.0
C8 C 0.14408 0.11654 0.14231 0.0
H9 H 0.21962 0.06263 0.11782 0.0
H10 H 0.184 0.07571 0.13692 0.0
H11 H 0.20463 0.16482 0.11052 0.0
H12 H 0.16429 0.11784 0.05855 0.0
H13 H 0.15145 0.14619 0.05927 0.0
H14 H 0.18166 0.14441 0.04949 0.0
H15 H 0.20599 0.16862 0.07817 0.0
H16 H 0.1837 0.1823 0.09631 0.0
C17 C 0.16746 0.10173 0.17827 0.0
C18 C 0.13939 0.07147 0.15216 0.0
C19 C 0.10124 0.20735 0.10202 0.0
C20 C 0.1108 0.22029 0.08228 0.0
C21 C 0.13073 0.21134 0.07053 0.0
C22 C 0.14109 0.19032 0.07842 0.0
C23 C 0.13153 0.17785 0.09834 0.0
C24 C 0.11181 0.18631 0.10967 0.0
C25 C 0.10414 0.17079 0.13064 0.0
C26 C 0.12248 0.15163 0.13 0.0
C27 C 0.13853 0.15589 0.11106 0.0
C28 C 0.1062 0.18714 0.15428 0.0
C29 C 0.07887 0.15933 0.12487 0.0
C30 C 0.21243 0.11359 0.08515 0.0
C31 C 0.22283 0.09249 0.09298 0.0
C32 C 0.21188 0.07892 0.11153 0.0
C33 C 0.19126 0.0866 0.12262 0.0
C34 C 0.18127 0.10798 0.11496 0.0
C35 C 0.19152 0.12075 0.0961 0.0
C36 C 0.17757 0.14213 0.08935 0.0
C37 C 0.15758 0.1404 0.10759 0.0
C38 C 0.16007 0.12058 0.12283 0.0
C39 C 0.19371 0.16581 0.09359 0.0
C40 C 0.16832 0.13768 0.06274 0.0
H41 H 0.08192 0.14619 0.17206 0.0
H42 H 0.12695 0.08058 0.20726 0.0
H43 H 0.12001 0.06677 0.15042 0.0
H44 H 0.14613 0.0687 0.13349 0.0
H45 H 0.14695 0.05802 0.16429 0.0
H46 H 0.16781 0.11951 0.18871 0.0
H47 H 0.1684 0.08699 0.1916 0.0
H48 H 0.18379 0.10229 0.16754 0.0
H49 H 0.08611 0.2137 0.1117 0.0
H50 H 0.13828 0.22051 0.05501 0.0
H51 H 0.15626 0.18464 0.06873 0.0
H52 H 0.12225 0.19994 0.15398 0.0
H53 H 0.09057 0.1983 0.15628 0.0
H54 H 0.1083 0.17672 0.17092 0.0
H55 H 0.07637 0.15519 0.10496 0.0
H56 H 0.07531 0.14157 0.13349 0.0
H57 H 0.06518 0.17195 0.13053 0.0
H58 H 0.06902 0.12855 0.20954 0.0
C59 C 0.09212 0.13209 0.17915 0.0
C60 C 0.29322 0.89095 0.57475 0.0
C61 C 0.28064 0.91023 0.58447 0.0
C62 C 0.28992 0.92366 0.60523 0.0
C63 C 0.32344 0.89833 0.60648 0.0
C64 C 0.31446 0.88535 0.586 0.0
C65 C 0.32974 0.86511 0.57826 0.0
H66 H 0.42615 0.80154 0.59837 0.0
C67 C 0.34554 0.88753 0.614 0.0
C68 C 0.34936 0.86812 0.59745 0.0
H69 H 0.37165 0.78768 0.54259 0.0
H70 H 0.35253 0.82353 0.55649 0.0
H71 H 0.43078 0.86147 0.5954 0.0
H72 H 0.3915 0.81055 0.63974 0.0
H73 H 0.39979 0.83594 0.65894 0.0
H74 H 0.42241 0.81847 0.64514 0.0
H75 H 0.44437 0.844 0.61823 0.0
H76 H 0.43269 0.87316 0.62567 0.0
C77 C 0.33901 0.87041 0.5524 0.0
C78 C 0.31496 0.84046 0.58009 0.0
C79 C 0.39058 0.92032 0.69038 0.0
C80 C 0.41101 0.91309 0.70238 0.0
C81 C 0.42331 0.89378 0.69207 0.0
C82 C 0.4153 0.88168 0.67034 0.0
C83 C 0.39466 0.88882 0.65877 0.0
C84 C 0.3827 0.90789 0.66874 0.0
C85 C 0.36083 0.91258 0.65412 0.0
C86 C 0.36164 0.89311 0.63381 0.0
C87 C 0.38151 0.87932 0.63665 0.0
C88 C 0.36391 0.93874 0.64432 0.0
C89 C 0.33905 0.90815 0.67059 0.0
C90 C 0.41012 0.80621 0.58908 0.0
C91 C 0.40042 0.79164 0.56936 0.0
C92 C 0.37972 0.7987 0.55761 0.0
C93 C 0.36846 0.8194 0.5659 0.0
C94 C 0.37787 0.83314 0.58629 0.0
C95 C 0.39847 0.82655 0.59737 0.0
C96 C 0.40534 0.84249 0.61949 0.0
C97 C 0.38548 0.85983 0.61982 0.0
C98 C 0.36951 0.85429 0.60032 0.0
C99 C 0.42963 0.85596 0.61471 0.0
C100 C 0.40496 0.82618 0.64208 0.0
H101 H 0.31726 0.92866 0.63204 0.0
H102 H 0.28674 0.88044 0.55869 0.0
H103 H 0.3021 0.84126 0.59522 0.0
H104 H 0.32586 0.82511 0.58445 0.0
H105 H 0.3047 0.83577 0.56297 0.0
H106 H 0.34323 0.89035 0.55048 0.0
H107 H 0.32555 0.86437 0.53816 0.0
H108 H 0.3557 0.8618 0.54836 0.0
H109 H 0.3806 0.93491 0.69799 0.0
H110 H 0.43924 0.88806 0.70081 0.0
H111 H 0.42542 0.86709 0.66351 0.0
H112 H 0.38268 0.94332 0.63955 0.0
H113 H 0.35878 0.95259 0.65818 0.0
H114 H 0.35375 0.94089 0.62727 0.0
H115 H 0.34157 0.89269 0.68279 0.0
H116 H 0.3226 0.90281 0.66019 0.0
H117 H 0.33619 0.9246 0.68231 0.0
H118 H 0.28044 0.9384 0.61331 0.0
C119 C 0.31124 0.91786 0.61622 0.0
C120 C 0.60852 0.30522 0.89723 0.0
C121 C 0.59045 0.29019 0.8857 0.0
C122 C 0.57794 0.29883 0.86573 0.0
C123 C 0.6025 0.33658 0.868 0.0
C124 C 0.61444 0.32819 0.88791 0.0
C125 C 0.63456 0.34566 0.89657 0.0
H126 H 0.70868 0.44312 0.87424 0.0
C127 C 0.6141 0.36027 0.86168 0.0
C128 C 0.63295 0.36567 0.87828 0.0
H129 H 0.70969 0.39586 0.93557 0.0
H130 H 0.67305 0.37472 0.92144 0.0
H131 H 0.65562 0.45327 0.87871 0.0
H132 H 0.69027 0.402 0.83291 0.0
H133 H 0.66948 0.41612 0.81481 0.0
H134 H 0.693 0.43459 0.83002 0.0
H135 H 0.66754 0.46182 0.84992 0.0
H136 H 0.63746 0.44914 0.85251 0.0
C137 C 0.62938 0.35491 0.92288 0.0
C138 C 0.65781 0.33228 0.89413 0.0
C139 C 0.58708 0.40307 0.7864 0.0
C140 C 0.59653 0.42373 0.77449 0.0
C141 C 0.61607 0.43759 0.78514 0.0
C142 C 0.62649 0.43066 0.80681 0.0
C143 C 0.61747 0.40951 0.81798 0.0
C144 C 0.59785 0.39629 0.80807 0.0
C145 C 0.59132 0.37387 0.8222 0.0
C146 C 0.61022 0.37604 0.84224 0.0
C147 C 0.62546 0.39689 0.83954 0.0
C148 C 0.56629 0.37644 0.83263 0.0
C149 C 0.59351 0.35094 0.80513 0.0
C150 C 0.70082 0.42824 0.88452 0.0
C151 C 0.71182 0.42082 0.90582 0.0
C152 C 0.70123 0.40171 0.91911 0.0
C153 C 0.68012 0.38944 0.91082 0.0
C154 C 0.66959 0.39642 0.88903 0.0
C155 C 0.6795 0.41601 0.87668 0.0
C156 C 0.66484 0.42184 0.85485 0.0
C157 C 0.64489 0.40205 0.85584 0.0
C158 C 0.64816 0.38689 0.8755 0.0
C159 C 0.65596 0.44788 0.85898 0.0
C160 C 0.68009 0.41867 0.83184 0.0
H161 H 0.57364 0.32766 0.84166 0.0
H162 H 0.61838 0.29885 0.9126 0.0
H163 H 0.65789 0.32154 0.87655 0.0
H164 H 0.67385 0.34474 0.894 0.0
H165 H 0.65972 0.31937 0.90911 0.0
H166 H 0.61004 0.35403 0.92643 0.0
H167 H 0.63784 0.34375 0.93668 0.0
H168 H 0.63525 0.3744 0.92621 0.0
H169 H 0.57204 0.39206 0.77874 0.0
H170 H 0.62404 0.45329 0.77617 0.0
H171 H 0.64164 0.44166 0.81359 0.0
H172 H 0.56453 0.3953 0.84026 0.0
H173 H 0.55245 0.37278 0.81818 0.0
H174 H 0.5624 0.3642 0.84784 0.0
H175 H 0.60578 0.35479 0.78986 0.0
H176 H 0.6012 0.33569 0.81455 0.0
H177 H 0.57608 0.34446 0.79695 0.0
H178 H 0.56372 0.28751 0.8569 0.0
C179 C 0.58372 0.32207 0.85696 0.0
C180 C 0.91972 0.67378 0.41759 0.0
C181 C 0.9118 0.68657 0.43826 0.0
C182 C 0.89258 0.67634 0.45131 0.0
C183 C 0.88808 0.64232 0.42188 0.0
C184 C 0.90774 0.65166 0.40987 0.0
C185 C 0.91347 0.63597 0.38796 0.0
H186 H 0.87757 0.5485 0.30431 0.0
C187 C 0.87854 0.62015 0.40811 0.0
C188 C 0.89359 0.61599 0.38852 0.0
H189 H 0.94255 0.59456 0.3068 0.0
H190 H 0.93344 0.6096 0.34704 0.0
H191 H 0.88346 0.53218 0.36228 0.0
H192 H 0.84369 0.5861 0.32718 0.0
H193 H 0.82512 0.57007 0.3475 0.0
H194 H 0.83748 0.55374 0.32231 0.0
H195 H 0.85677 0.52388 0.34512 0.0
H196 H 0.85616 0.5332 0.37701 0.0
C197 C 0.93816 0.62586 0.39219 0.0
C198 C 0.91172 0.65168 0.36513 0.0
C199 C 0.79841 0.58141 0.43034 0.0
C200 C 0.78417 0.56151 0.4205 0.0
C201 C 0.79263 0.54758 0.40075 0.0
C202 C 0.81471 0.55388 0.39055 0.0
C203 C 0.82846 0.57429 0.40021 0.0
C204 C 0.82041 0.58735 0.42009 0.0
C205 C 0.83763 0.6079 0.42862 0.0
C206 C 0.85734 0.60523 0.41046 0.0
C207 C 0.85173 0.58579 0.39358 0.0
C208 C 0.84584 0.60305 0.45502 0.0
C209 C 0.82533 0.63215 0.42586 0.0
C210 C 0.89 0.56154 0.31371 0.0
C211 C 0.91041 0.57099 0.30202 0.0
C212 C 0.92629 0.58766 0.31504 0.0
C213 C 0.921 0.59639 0.33842 0.0
C214 C 0.89957 0.58847 0.34897 0.0
C215 C 0.88498 0.57048 0.33721 0.0
C216 C 0.86343 0.56367 0.35194 0.0
C217 C 0.86698 0.5815 0.37374 0.0
C218 C 0.88805 0.59618 0.37162 0.0
C219 C 0.86477 0.53679 0.35942 0.0
C220 C 0.84114 0.56846 0.33654 0.0
H221 H 0.86582 0.64779 0.45362 0.0
H222 H 0.93467 0.68109 0.40742 0.0
H223 H 0.89533 0.66189 0.36557 0.0
H224 H 0.91074 0.64085 0.34782 0.0
H225 H 0.92709 0.66526 0.36436 0.0
H226 H 0.94308 0.62604 0.41191 0.0
H227 H 0.95224 0.63687 0.38286 0.0
H228 H 0.93863 0.60644 0.38601 0.0
H229 H 0.79262 0.59208 0.44588 0.0
H230 H 0.78194 0.53212 0.39291 0.0
H231 H 0.82009 0.54281 0.37536 0.0
H232 H 0.84454 0.58317 0.45869 0.0
H233 H 0.83486 0.61234 0.46868 0.0
H234 H 0.86473 0.6088 0.45846 0.0
H235 H 0.81543 0.63202 0.40817 0.0
H236 H 0.83779 0.64841 0.42572 0.0
H237 H 0.81247 0.63482 0.44068 0.0
H238 H 0.8861 0.68594 0.46721 0.0
C239 C 0.8807 0.65429 0.44326 0.0
C240 C 0.88577 0.80009 0.91934 0.0
C241 C 0.90585 0.78813 0.91146 0.0
C242 C 0.91969 0.79878 0.89289 0.0
C243 C 0.8925 0.83096 0.88891 0.0
C244 C 0.87956 0.82146 0.90796 0.0
C245 C 0.85882 0.83647 0.914 0.0
H246 H 0.78972 0.92866 0.88511 0.0
C247 C 0.88059 0.85232 0.87997 0.0
C248 C 0.86095 0.85586 0.89481 0.0
H249 H 0.78211 0.88045 0.94565 0.0
H250 H 0.81757 0.86103 0.93381 0.0
H251 H 0.80139 0.88888 0.84673 0.0
H252 H 0.84757 0.93868 0.89031 0.0
H253 H 0.85825 0.93825 0.8603 0.0
H254 H 0.82898 0.94812 0.86602 0.0
H255 H 0.80706 0.92015 0.83884 0.0
H256 H 0.82567 0.89646 0.82839 0.0
C257 C 0.83582 0.81983 0.91051 0.0
C258 C 0.86272 0.8477 0.94015 0.0
C259 C 0.90786 0.89128 0.80132 0.0
C260 C 0.89806 0.90875 0.7867 0.0
C261 C 0.87841 0.92091 0.79511 0.0
C262 C 0.86826 0.9154 0.81758 0.0
C263 C 0.87755 0.89713 0.83162 0.0
C264 C 0.89716 0.88555 0.82353 0.0
C265 C 0.90382 0.86575 0.84023 0.0
C266 C 0.88483 0.86719 0.85952 0.0
C267 C 0.86959 0.88569 0.85441 0.0
C268 C 0.90169 0.84112 0.82538 0.0
C269 C 0.92888 0.87275 0.85101 0.0
C270 C 0.79564 0.9139 0.89583 0.0
C271 C 0.78295 0.90611 0.91636 0.0
C272 C 0.7916 0.88703 0.92992 0.0
C273 C 0.81215 0.87565 0.92293 0.0
C274 C 0.82435 0.88337 0.90212 0.0
C275 C 0.81617 0.9024 0.88914 0.0
C276 C 0.83126 0.90815 0.86746 0.0
C277 C 0.85 0.88964 0.86969 0.0
C278 C 0.8458 0.87499 0.88991 0.0
C279 C 0.81568 0.90339 0.84406 0.0
C280 C 0.84205 0.93473 0.87095 0.0
H281 H 0.92435 0.8269 0.86751 0.0
H282 H 0.87473 0.79269 0.93361 0.0
H283 H 0.8819 0.85172 0.94431 0.0
H284 H 0.85475 0.86549 0.94269 0.0
H285 H 0.85563 0.83498 0.95401 0.0
H286 H 0.83662 0.80814 0.89359 0.0
H287 H 0.83323 0.80756 0.92608 0.0
H288 H 0.81986 0.83016 0.90833 0.0
H289 H 0.92287 0.88157 0.79509 0.0
H290 H 0.87076 0.93455 0.7841 0.0
H291 H 0.85325 0.92522 0.8229 0.0
H292 H 0.88578 0.84014 0.81314 0.0
H293 H 0.91743 0.83901 0.8138 0.0
H294 H 0.89935 0.82504 0.83681 0.0
H295 H 0.93203 0.89295 0.85327 0.0
H296 H 0.9314 0.86585 0.86951 0.0
H297 H 0.94284 0.86602 0.83892 0.0
H298 H 0.93569 0.79068 0.88693 0.0
C299 C 0.91316 0.81999 0.88166 0.0
C300 C 0.71326 0.11694 0.42251 0.0
C301 C 0.72513 0.09708 0.41284 0.0
C302 C 0.71459 0.0829 0.39317 0.0
C303 C 0.68197 0.10934 0.39185 0.0
C304 C 0.69177 0.12273 0.41172 0.0
C305 C 0.6771 0.14365 0.41913 0.0
H306 H 0.58559 0.21331 0.39467 0.0
C307 C 0.6602 0.1207 0.3842 0.0
C308 C 0.6571 0.1407 0.40024 0.0
H309 H 0.63548 0.22175 0.45511 0.0
H310 H 0.65392 0.18513 0.44147 0.0
H311 H 0.57454 0.15748 0.40037 0.0
H312 H 0.62284 0.19555 0.35269 0.0
H313 H 0.60587 0.17273 0.33559 0.0
H314 H 0.59121 0.1968 0.35098 0.0
H315 H 0.56454 0.16942 0.37227 0.0
H316 H 0.57535 0.13914 0.37357 0.0
C317 C 0.6681 0.13947 0.44531 0.0
C318 C 0.69247 0.16776 0.41639 0.0
C319 C 0.61621 0.08946 0.30671 0.0
C320 C 0.59554 0.09634 0.29501 0.0
C321 C 0.58256 0.11481 0.30581 0.0
C322 C 0.59056 0.12696 0.32759 0.0
C323 C 0.61167 0.12041 0.33876 0.0
C324 C 0.62375 0.10148 0.32867 0.0
C325 C 0.64511 0.09615 0.34376 0.0
C326 C 0.64421 0.11544 0.36423 0.0
C327 C 0.62483 0.12984 0.36096 0.0
C328 C 0.64131 0.06986 0.35321 0.0
C329 C 0.66731 0.10034 0.32786 0.0
C330 C 0.60063 0.20729 0.40477 0.0
C331 C 0.60941 0.22044 0.42572 0.0
C332 C 0.62856 0.21184 0.43886 0.0
C333 C 0.63922 0.19064 0.43087 0.0
C334 C 0.63049 0.17783 0.40964 0.0
C335 C 0.61122 0.18596 0.39723 0.0
C336 C 0.60352 0.16932 0.37585 0.0
C337 C 0.62176 0.15022 0.37704 0.0
C338 C 0.63767 0.15546 0.3967 0.0
C339 C 0.57813 0.15831 0.38051 0.0
C340 C 0.6058 0.18425 0.35244 0.0
H341 H 0.68626 0.07754 0.36759 0.0
H342 H 0.72086 0.12819 0.43761 0.0
H343 H 0.70291 0.167 0.39938 0.0
H344 H 0.68196 0.18393 0.41483 0.0
H345 H 0.70515 0.17102 0.43197 0.0
H346 H 0.66554 0.11962 0.44884 0.0
H347 H 0.6809 0.14776 0.45924 0.0
H348 H 0.65052 0.14667 0.4484 0.0
H349 H 0.6263 0.07506 0.29887 0.0
H350 H 0.56658 0.12032 0.29699 0.0
H351 H 0.58019 0.14122 0.33469 0.0
H352 H 0.62215 0.06447 0.35509 0.0
H353 H 0.64884 0.05625 0.34054 0.0
H354 H 0.64894 0.06811 0.3717 0.0
H355 H 0.66604 0.11705 0.31707 0.0
H356 H 0.6839 0.10343 0.33863 0.0
H357 H 0.66914 0.08464 0.31482 0.0
H358 H 0.72306 0.06716 0.38575 0.0
C359 C 0.69313 0.08889 0.38268 0.0
C360 C 0.40471 0.61702 0.21389 0.0
C361 C 0.39279 0.59846 0.22682 0.0
C362 C 0.37244 0.5859 0.21643 0.0
C363 C 0.37514 0.61162 0.18141 0.0
C364 C 0.39548 0.62344 0.1914 0.0
C365 C 0.4044 0.64463 0.17666 0.0
H366 H 0.38382 0.72262 0.0874 0.0
C367 C 0.36897 0.62423 0.15909 0.0
C368 C 0.38603 0.64359 0.15618 0.0
H369 H 0.44094 0.72712 0.14077 0.0
H370 H 0.42824 0.68721 0.15497 0.0
H371 H 0.34554 0.70563 0.12174 0.0
H372 H 0.38685 0.66315 0.07299 0.0
H373 H 0.35787 0.64962 0.07161 0.0
H374 H 0.3633 0.68081 0.06254 0.0
H375 H 0.34005 0.70373 0.08942 0.0
H376 H 0.32624 0.68198 0.10953 0.0
C377 C 0.40374 0.6683 0.19296 0.0
C378 C 0.42926 0.63929 0.16715 0.0
C379 C 0.29226 0.59897 0.11329 0.0
C380 C 0.28062 0.60912 0.09363 0.0
C381 C 0.29176 0.62897 0.08174 0.0
C382 C 0.31399 0.63898 0.08965 0.0
C383 C 0.32508 0.62926 0.10987 0.0
C384 C 0.31438 0.60939 0.12116 0.0
C385 C 0.32845 0.60209 0.1429 0.0
C386 C 0.34938 0.62081 0.14266 0.0
C387 C 0.34723 0.63668 0.12333 0.0
C388 C 0.31314 0.60512 0.16596 0.0
C389 C 0.33615 0.5758 0.13786 0.0
C390 C 0.39385 0.71471 0.10179 0.0
C391 C 0.41324 0.72794 0.11317 0.0
C392 C 0.42575 0.71727 0.13201 0.0
C393 C 0.41829 0.69419 0.14026 0.0
C394 C 0.3978 0.68194 0.12992 0.0
C395 C 0.38633 0.6919 0.11056 0.0
C396 C 0.3644 0.67676 0.10244 0.0
C397 C 0.36432 0.65636 0.12046 0.0
C398 C 0.38383 0.65956 0.13657 0.0
C399 C 0.34284 0.69271 0.10571 0.0
C400 C 0.36804 0.66713 0.07596 0.0
H401 H 0.34796 0.58221 0.18678 0.0
H402 H 0.42021 0.62717 0.22169 0.0
H403 H 0.43017 0.61954 0.16214 0.0
H404 H 0.43375 0.64896 0.15032 0.0
H405 H 0.44317 0.64415 0.18127 0.0
H406 H 0.38873 0.667 0.20584 0.0
H407 H 0.42031 0.67163 0.20398 0.0
H408 H 0.4007 0.68471 0.18255 0.0
H409 H 0.28395 0.58384 0.12289 0.0
H410 H 0.28318 0.63682 0.06634 0.0
H411 H 0.32142 0.65425 0.08001 0.0
H412 H 0.30014 0.61932 0.16363 0.0
H413 H 0.30299 0.58777 0.16999 0.0
H414 H 0.3237 0.61158 0.18229 0.0
H415 H 0.34164 0.57334 0.11858 0.0
H416 H 0.35167 0.57151 0.14898 0.0
H417 H 0.32136 0.56204 0.14106 0.0
H418 H 0.36319 0.57138 0.2261 0.0
C419 C 0.36368 0.59223 0.19365 0.0
C420 C 0.06877 0.31704 0.59028 0.0
C421 C 0.07626 0.30462 0.56919 0.0
C422 C 0.09602 0.31446 0.55664 0.0
C423 C 0.10085 0.34816 0.58635 0.0
C424 C 0.08122 0.33877 0.59841 0.0
C425 C 0.07586 0.35417 0.62064 0.0
H426 H 0.10811 0.44818 0.69943 0.0
C427 C 0.1102 0.37051 0.5999 0.0
C428 C 0.09552 0.37431 0.61985 0.0
H429 H 0.04965 0.39415 0.70434 0.0
H430 H 0.0584 0.37726 0.66452 0.0
H431 H 0.10093 0.45812 0.63928 0.0
H432 H 0.14413 0.41213 0.68107 0.0
H433 H 0.16166 0.42425 0.65772 0.0
H434 H 0.15012 0.44464 0.68041 0.0
H435 H 0.1254 0.47016 0.65816 0.0
H436 H 0.12957 0.45961 0.62709 0.0
C437 C 0.05108 0.36417 0.61692 0.0
C438 C 0.07818 0.33825 0.6433 0.0
C439 C 0.18709 0.4134 0.5737 0.0
C440 C 0.20113 0.43362 0.58324 0.0
C441 C 0.19282 0.44726 0.60326 0.0
C442 C 0.17121 0.44027 0.61411 0.0
C443 C 0.15782 0.4194 0.60487 0.0
C444 C 0.16569 0.40664 0.58473 0.0
C445 C 0.1493 0.38502 0.57722 0.0
C446 C 0.13042 0.38658 0.59641 0.0
C447 C 0.13551 0.40665 0.61265 0.0
C448 C 0.13938 0.38924 0.55131 0.0
C449 C 0.16318 0.36163 0.57932 0.0
C450 C 0.097 0.43303 0.69155 0.0
C451 C 0.07825 0.42232 0.70476 0.0
C452 C 0.06426 0.40246 0.69433 0.0
C453 C 0.06946 0.39266 0.67132 0.0
C454 C 0.08914 0.40254 0.65885 0.0
C455 C 0.10228 0.42271 0.66872 0.0
C456 C 0.12319 0.42997 0.65332 0.0
C457 C 0.12059 0.41061 0.63282 0.0
C458 C 0.10062 0.39462 0.63623 0.0
C459 C 0.11985 0.45589 0.64401 0.0
C460 C 0.14606 0.42786 0.6688 0.0
H461 H 0.12337 0.34244 0.55486 0.0
H462 H 0.05354 0.31004 0.60022 0.0
H463 H 0.09238 0.32526 0.64081 0.0
H464 H 0.08346 0.34901 0.66008 0.0
H465 H 0.06142 0.32728 0.64656 0.0
H466 H 0.04783 0.36803 0.59742 0.0
H467 H 0.03682 0.35076 0.62251 0.0
H468 H 0.04916 0.38181 0.62683 0.0
H469 H 0.19275 0.40283 0.55803 0.0
H470 H 0.20335 0.4629 0.61095 0.0
H471 H 0.16598 0.45109 0.62955 0.0
H472 H 0.13764 0.40905 0.54842 0.0
H473 H 0.15121 0.38232 0.53702 0.0
H474 H 0.12129 0.38077 0.54821 0.0
H475 H 0.17549 0.36323 0.59538 0.0
H476 H 0.15168 0.34503 0.5823 0.0
H477 H 0.17392 0.3585 0.56284 0.0
H478 H 0.10233 0.30508 0.54053 0.0
C479 C 0.10831 0.33612 0.56507 0.0
O480 O 0.99451 0.00825 0.56355 0.0
Mg481 Mg 0.01944 0.01966 0.53889 0.0
O482 O 0.98556 0.9801 0.53496 0.0
Mg483 Mg -0.0004 -0.00292 0.49721 0.0
O484 O 0.00982 0.03861 0.50967 0.0
O485 O 0.02742 0.05537 0.54402 0.0
O486 O 0.01546 0.01645 0.46035 0.0
O487 O 0.96215 0.01114 0.4924 0.0
Mg488 Mg 0.98935 0.98106 0.45926 0.0
O489 O 0.98696 0.95474 0.4847 0.0
O490 O 0.02053 0.98312 0.43926 0.0
O491 O 0.96324 0.00673 0.45288 0.0
O492 O 0.97279 0.95013 0.44634 0.0
C493 C 0.05377 0.98716 0.51885 0.0
C494 C 0.98437 0.98793 0.55715 0.0
C495 C 0.01818 0.05767 0.52268 0.0
C496 C 0.02475 0.00579 0.44207 0.0
C497 C 0.95325 0.01492 0.47163 0.0
C498 C 0.97678 0.941 0.46715 0.0
O499 O 0.05045 0.00168 0.53662 0.0
O500 O 0.03777 0.98267 0.5024 0.0
O501 O 0.47257 0.03735 0.0386 0.0
Mg502 Mg 0.50608 0.0405 0.02131 0.0
O503 O 0.46226 0.01213 0.00826 0.0
Mg504 Mg 0.50168 0.00461 -0.00132 0.0
O505 O 0.51064 0.0462 0.98543 0.0
O506 O 0.50737 0.07587 0.01416 0.0
O507 O 0.54132 -0.00336 0.98827 0.0
O508 O 0.48908 0.00136 0.95734 0.0
Mg509 Mg 0.50381 0.95185 0.97475 0.0
O510 O 0.49151 0.9646 0.0072 0.0
O511 O 0.54062 0.95879 0.97219 0.0
O512 O 0.48349 0.96238 0.94527 0.0
O513 O 0.49044 0.92488 -0.00369 0.0
C514 C 0.53133 0.01837 0.05133 0.0
C515 C 0.45638 0.02532 0.02646 0.0
C516 C 0.51082 0.06932 0.99185 0.0
C517 C 0.55187 0.97871 0.97869 0.0
C518 C 0.48203 0.98484 0.94141 0.0
C519 C 0.48582 0.942 0.01192 0.0
O520 O 0.53776 0.03727 0.04038 0.0
O521 O 0.51444 0.00457 0.04171 0.0
O522 O 0.47104 0.5392 0.55242 0.0
Mg523 Mg 0.46958 0.50128 0.55905 0.0
O524 O 0.48361 0.53883 0.51397 0.0
Mg525 Mg 0.49315 0.49912 0.50369 0.0
O526 O 0.49874 0.49051 0.54256 0.0
O527 O 0.4943 0.48631 0.582 0.0
O528 O 0.50301 0.45719 0.49889 0.0
O529 O 0.53265 0.51324 0.50391 0.0
Mg530 Mg 0.50633 0.48224 0.46436 0.0
O531 O 0.48627 0.51178 0.46294 0.0
O532 O 0.488 0.44774 0.46289 0.0
O533 O 0.5423 0.48532 0.47698 0.0
O534 O 0.50566 0.49601 0.43115 0.0
C535 C 0.43743 0.47838 0.51911 0.0
C536 C 0.47648 0.55018 0.533 0.0
C537 C 0.50716 0.48398 0.56298 0.0
C538 C 0.49629 0.44086 0.48272 0.0
C539 C 0.54843 0.502 0.49271 0.0
C540 C 0.49146 0.51146 0.43986 0.0
O541 O 0.44123 0.48021 0.54197 0.0
O542 O 0.45292 0.48568 0.50376 0.0
O543 O 0.99337 0.44802 0.03678 0.0
Mg544 Mg 0.00615 0.48473 0.04186 0.0
O545 O 0.01411 0.46084 0.00637 0.0
Mg546 Mg -0.00274 0.50078 0.00336 0.0
O547 O 0.98191 0.51047 0.04316 0.0
O548 O -0.00235 0.49357 0.07607 0.0
O549 O 0.98204 0.54206 -0.00149 0.0
O550 O 0.96137 0.47873 -0.00204 0.0
Mg551 Mg 0.98356 0.51207 0.96483 0.0
O552 O 0.01194 0.49097 0.96359 0.0
O553 O 0.99376 0.54839 0.96153 0.0
O554 O 0.94745 0.50401 0.97248 0.0
O555 O 0.98755 0.49646 0.93179 0.0
C556 C 0.04878 0.51247 0.02443 0.0
C557 C 0.00657 0.44314 0.01931 0.0
C558 C 0.98287 0.50761 0.06661 0.0
C559 C 0.98602 0.55689 0.98116 0.0
C560 C 0.944 0.48657 0.98655 0.0
C561 C 0.00667 0.48837 0.94046 0.0
O562 O 0.04296 0.49472 0.03772 0.0
O563 O 0.03331 0.5212 0.01082 0.0
C564 C 0.0815 0.11021 0.2544 0.0
C565 C 0.09022 0.09427 0.23643 0.0
C566 C 0.07539 0.10191 0.27747 0.0
C567 C 0.08714 0.05373 0.32052 0.0
H568 H 0.02928 0.07242 0.35112 0.0
C569 C 0.04956 0.00602 0.40484 0.0
C570 C 0.03685 0.01918 0.42218 0.0
C571 C 0.05779 0.0169 0.38368 0.0
C572 C 0.04574 0.06738 0.34309 0.0
H573 H 0.09885 0.05675 0.22892 0.0
H574 H 0.08865 0.04245 0.26933 0.0
H575 H 0.03936 0.08723 0.31087 0.0
H576 H 0.02376 0.05459 0.43129 0.0
H577 H 0.03859 0.07393 0.39432 0.0
H578 H 0.09367 0.03401 0.35266 0.0
C579 C 0.0867 0.06147 0.26549 0.0
C580 C 0.05145 0.07578 0.31991 0.0
C581 C 0.0926 0.06972 0.2423 0.0
C582 C 0.03357 0.04398 0.41836 0.0
C583 C 0.04182 0.05494 0.39701 0.0
C584 C 0.08154 0.04549 0.34374 0.0
C585 C 0.07806 0.07748 0.28339 0.0
C586 C 0.07211 0.06886 0.30823 0.0
C587 C 0.05364 0.04136 0.37914 0.0
C588 C 0.06061 0.05195 0.35528 0.0
H589 H 0.07985 0.12935 0.2509 0.0
H590 H 0.0691 0.11481 0.2909 0.0
H591 H 0.1034 0.04842 0.31226 0.0
H592 H 0.05243 0.98687 0.40717 0.0
H593 H 0.06651 0.00568 0.37036 0.0
C594 C 0.42639 0.91104 0.74523 0.0
C595 C 0.41924 0.92516 0.72587 0.0
C596 C 0.43429 0.92224 0.76734 0.0
C597 C 0.43171 0.97861 0.80525 0.0
H598 H 0.4851 0.95291 0.83875 0.0
C599 C 0.45167 0.98886 0.90896 0.0
C600 C 0.47546 0.99117 0.9166 0.0
C601 C 0.44581 0.98699 0.88407 0.0
C602 C 0.4704 0.96059 0.82948 0.0
H603 H 0.41482 0.96209 0.71447 0.0
H604 H 0.42875 0.98174 0.75322 0.0
H605 H 0.47321 0.93645 0.79834 0.0
H606 H 0.51178 0.99432 0.90473 0.0
H607 H 0.50163 0.99102 0.86119 0.0
H608 H 0.42869 0.0024 0.83681 0.0
C609 C 0.42798 0.96198 0.75132 0.0
C610 C 0.4634 0.95093 0.80645 0.0
C611 C 0.42002 0.95074 0.72916 0.0
C612 C 0.49328 0.9931 0.89914 0.0
C613 C 0.48748 0.99092 0.87429 0.0
C614 C 0.43863 0.98816 0.82844 0.0
C615 C 0.43529 0.94783 0.77062 0.0
C616 C 0.44374 0.95953 0.79424 0.0
C617 C 0.46373 0.98684 0.86655 0.0
C618 C 0.45787 0.97902 0.8409 0.0
H619 H 0.42556 0.89126 0.7434 0.0
H620 H 0.43931 0.91079 0.78202 0.0
H621 H 0.41643 0.98555 0.79634 0.0
H622 H 0.43773 0.98677 0.92221 0.0
H623 H 0.42737 0.98367 0.87865 0.0
C624 C 0.58275 0.41113 0.73208 0.0
C625 C 0.58781 0.42974 0.74998 0.0
C626 C 0.57846 0.41697 0.70791 0.0
C627 C 0.56507 0.46843 0.66881 0.0
H628 H 0.59068 0.42723 0.61796 0.0
C629 C 0.54845 0.49354 0.57455 0.0
C630 C 0.53104 0.47592 0.56597 0.0
C631 C 0.56512 0.48732 0.59188 0.0
C632 C 0.58385 0.43906 0.63205 0.0
H633 H 0.59045 0.469 0.75701 0.0
H634 H 0.58395 0.4792 0.71487 0.0
H635 H 0.59641 0.41763 0.66082 0.0
H636 H 0.51995 0.43747 0.56442 0.0
H637 H 0.54936 0.42638 0.59422 0.0
H638 H 0.55239 0.48973 0.64018 0.0
C639 C 0.58312 0.46008 0.71935 0.0
C640 C 0.58672 0.43339 0.65653 0.0
C641 C 0.58709 0.45425 0.74352 0.0
C642 C 0.53334 0.45128 0.57089 0.0
C643 C 0.55014 0.44498 0.58805 0.0
C644 C 0.5626 0.47431 0.64449 0.0
C645 C 0.57937 0.44151 0.70114 0.0
C646 C 0.57699 0.4478 0.67517 0.0
C647 C 0.56439 0.46343 0.60044 0.0
C648 C 0.57167 0.45952 0.62586 0.0
H649 H 0.58323 0.39205 0.73644 0.0
H650 H 0.57493 0.40222 0.69447 0.0
H651 H 0.55692 0.47966 0.68255 0.0
H652 H 0.54686 0.5127 0.57097 0.0
H653 H 0.57622 0.50178 0.60099 0.0
C654 C 0.92197 0.58445 0.26063 0.0
C655 C 0.91423 0.56547 0.27576 0.0
C656 C 0.92547 0.57988 0.23587 0.0
C657 C 0.90983 0.53703 0.18447 0.0
H658 H 0.96816 0.56471 0.15753 0.0
C659 C 0.95125 0.50193 0.09638 0.0
C660 C 0.96567 0.51806 0.08293 0.0
C661 C 0.93976 0.51034 0.117 0.0
C662 C 0.95149 0.55735 0.16453 0.0
H663 H 0.90373 0.52679 0.27663 0.0
H664 H 0.90992 0.51874 0.23302 0.0
H665 H 0.95955 0.57283 0.20017 0.0
H666 H 0.97817 0.55575 0.07893 0.0
H667 H 0.95774 0.57082 0.11513 0.0
H668 H 0.90205 0.52112 0.14882 0.0
C669 C 0.91312 0.53721 0.24049 0.0
C670 C 0.94666 0.56185 0.18906 0.0
C671 C 0.90965 0.5418 0.26542 0.0
C672 C 0.96692 0.54311 0.08904 0.0
C673 C 0.95547 0.55159 0.10984 0.0
C674 C 0.91463 0.53259 0.15983 0.0
C675 C 0.92123 0.55623 0.22554 0.0
C676 C 0.9259 0.55157 0.19934 0.0
C677 C 0.94271 0.53505 0.12467 0.0
C678 C 0.93567 0.54249 0.14966 0.0
H679 H 0.92503 0.60304 0.26785 0.0
H680 H 0.9313 0.59498 0.22473 0.0
H681 H 0.89355 0.52913 0.19187 0.0
H682 H 0.95025 0.48247 0.09193 0.0
H683 H 0.93026 0.49706 0.128 0.0
C684 C 0.26578 0.10094 0.08399 0.0
C685 C 0.24544 0.08495 0.0825 0.0
C686 C 0.28753 0.0934 0.07564 0.0
C687 C 0.31857 0.03685 0.05801 0.0
H688 H 0.36642 0.08495 0.03697 0.0
C689 C 0.41233 0.0156 0.01966 0.0
C690 C 0.43113 0.02897 0.03213 0.0
C691 C 0.38871 0.02088 0.02405 0.0
C692 C 0.35319 0.07129 0.04274 0.0
H693 H 0.2316 0.04883 0.07043 0.0
H694 H 0.26916 0.03597 0.05455 0.0
H695 H 0.32701 0.0975 0.04645 0.0
H696 H 0.43961 0.05809 0.05929 0.0
H697 H 0.39877 0.06742 0.06641 0.0
H698 H 0.34503 0.0106 0.0535 0.0
C699 C 0.26875 0.05405 0.06302 0.0
C700 C 0.33057 0.0785 0.04846 0.0
C701 C 0.24711 0.06145 0.07192 0.0
C702 C 0.42569 0.04738 0.0493 0.0
C703 C 0.40226 0.05288 0.05333 0.0
C704 C 0.34112 0.02956 0.05177 0.0
C705 C 0.28945 0.06979 0.06502 0.0
C706 C 0.313 0.06155 0.05679 0.0
C707 C 0.38352 0.03991 0.04062 0.0
C708 C 0.35881 0.04683 0.04462 0.0
H709 H 0.26501 0.11907 0.09235 0.0
H710 H 0.30293 0.10599 0.07818 0.0
H711 H 0.30584 0.02316 0.06459 0.0
H712 H 0.41587 0.00134 0.0063 0.0
H713 H 0.37455 0.01059 0.01401 0.0
C714 C 0.24096 0.89734 0.56541 0.0
C715 C 0.25769 0.91609 0.57341 0.0
C716 C 0.21875 0.90295 0.55646 0.0
C717 C 0.17705 0.95054 0.5627 0.0
H718 H 0.14693 0.92267 0.50321 0.0
C719 C 0.09698 0.99255 0.52401 0.0
C720 C 0.07714 0.97702 0.5174 0.0
C721 C 0.11884 0.98313 0.52796 0.0
C722 C 0.15504 0.93032 0.52 0.0
H723 H 0.26471 0.95542 0.57698 0.0
H724 H 0.22588 0.96515 0.56175 0.0
H725 H 0.18599 0.90983 0.51585 0.0
H726 H 0.06463 0.93966 0.50828 0.0
H727 H 0.10343 0.9228 0.51552 0.0
H728 H 0.14641 0.97089 0.56715 0.0
C729 C 0.22985 0.94612 0.56272 0.0
C730 C 0.17734 0.92305 0.52719 0.0
C731 C 0.25203 0.94055 0.57151 0.0
C732 C 0.07981 0.95195 0.51322 0.0
C733 C 0.1019 0.94237 0.51744 0.0
C734 C 0.15488 0.95765 0.55565 0.0
C735 C 0.21286 0.92739 0.55551 0.0
C736 C 0.18872 0.93355 0.54833 0.0
C737 C 0.12136 0.95786 0.52576 0.0
C738 C 0.14389 0.94813 0.53392 0.0
H739 H 0.2447 0.8783 0.56683 0.0
H740 H 0.2059 0.88818 0.55114 0.0
H741 H 0.18514 0.95844 0.57942 0.0
H742 H 0.09535 0.01201 0.52712 0.0
H743 H 0.13365 -0.00439 0.53368 0.0
C744 C 0.73775 0.44506 0.93572 0.0
C745 C 0.73511 0.43163 0.9136 0.0
C746 C 0.76032 0.45183 0.94512 0.0
C747 C 0.82434 0.4538 0.92991 0.0
H748 H 0.8321 0.44797 -0.00012 0.0
C749 C 0.91556 0.45249 0.97404 0.0
C750 C 0.92045 0.47443 0.98749 0.0
C751 C 0.89215 0.44459 0.96847 0.0
C752 C 0.83005 0.44948 0.98033 0.0
H753 H 0.75326 0.41524 0.88336 0.0
H754 H 0.79279 0.42611 0.90007 0.0
H755 H 0.79257 0.44226 0.98121 0.0
H756 H 0.90556 0.50435 0.00748 0.0
H757 H 0.86435 0.48997 -0.0015 0.0
H758 H 0.862 0.46025 0.92913 0.0
C759 C 0.77768 0.43217 0.90998 0.0
C760 C 0.80749 0.4466 0.96963 0.0
C761 C 0.75511 0.42585 0.90039 0.0
C762 C 0.90192 0.48722 -0.00272 0.0
C763 C 0.8785 0.47904 0.99216 0.0
C764 C 0.84688 0.45616 0.94054 0.0
C765 C 0.78054 0.44468 0.93278 0.0
C766 C 0.80437 0.44877 0.94428 0.0
C767 C 0.87359 0.4584 0.9767 0.0
C768 C 0.84984 0.454 0.96577 0.0
H769 H 0.72236 0.44967 0.94604 0.0
H770 H 0.76189 0.46205 0.96237 0.0
H771 H 0.82259 0.45609 0.91045 0.0
H772 H 0.92978 0.44266 0.96612 0.0
H773 H 0.88857 0.42864 0.95646 0.0
C774 C 0.75354 0.53138 0.43644 0.0
C775 C 0.76058 0.55552 0.43087 0.0
C776 C 0.73155 0.52598 0.44693 0.0
C777 C 0.68261 0.5544 0.47978 0.0
H778 H 0.64663 0.49552 0.45662 0.0
C779 C 0.58187 0.53398 0.49489 0.0
C780 C 0.57375 0.50932 0.49589 0.0
C781 C 0.60599 0.54021 0.49161 0.0
C782 C 0.65658 0.51181 0.46371 0.0
H783 H 0.75001 0.59287 0.43137 0.0
H784 H 0.71138 0.58338 0.44915 0.0
H785 H 0.68568 0.50503 0.44063 0.0
H786 H 0.58427 0.4721 0.49699 0.0
H787 H 0.62639 0.48296 0.49253 0.0
H788 H 0.65303 0.56133 0.50251 0.0
C789 C 0.72306 0.5687 0.44608 0.0
C790 C 0.67902 0.51729 0.45445 0.0
C791 C 0.74513 0.57412 0.43578 0.0
C792 C 0.59018 0.49123 0.49594 0.0
C793 C 0.61423 0.49745 0.49317 0.0
C794 C 0.66004 0.5489 0.48906 0.0
C795 C 0.71602 0.54457 0.45184 0.0
C796 C 0.69233 0.53866 0.4623 0.0
C797 C 0.62226 0.52185 0.48964 0.0
C798 C 0.64677 0.5275 0.48111 0.0
H799 H 0.76524 0.51676 0.43312 0.0
H800 H 0.72684 0.50724 0.45145 0.0
H801 H 0.69251 0.5709 0.48642 0.0
H802 H 0.56942 0.54821 0.49467 0.0
H803 H 0.61156 0.55918 0.48895 0.0
C804 C 0.11486 0.26292 0.06617 0.0
C805 C 0.10028 0.24305 0.07402 0.0
C806 C 0.10507 0.28411 0.05806 0.0
C807 C 0.04844 0.30725 0.03539 0.0
H808 H 0.08013 0.37086 0.05042 0.0
C809 C 0.0033 0.39845 0.0268 0.0
C810 C 0.01657 0.41878 0.01808 0.0
C811 C 0.0138 0.37643 0.03053 0.0
C812 C 0.07124 0.35321 0.04575 0.0
H813 H 0.06376 0.23019 0.07946 0.0
H814 H 0.04677 0.26732 0.06607 0.0
H815 H 0.09758 0.33409 0.06433 0.0
H816 H 0.05119 0.43173 0.0058 0.0
H817 H 0.06971 0.39312 0.01247 0.0
H818 H 0.02175 0.32654 0.01743 0.0
C819 C 0.06582 0.26637 0.06573 0.0
C820 C 0.08124 0.33206 0.05374 0.0
C821 C 0.07561 0.24513 0.07376 0.0
C822 C 0.04042 0.41628 0.0122 0.0
C823 C 0.05108 0.39429 0.01633 0.0
C824 C 0.03836 0.3284 0.02758 0.0
C825 C 0.0804 0.28615 0.05764 0.0
C826 C 0.06993 0.30875 0.04879 0.0
C827 C 0.03798 0.37426 0.02599 0.0
C828 C 0.04956 0.35166 0.03276 0.0
H829 H 0.13394 0.26223 0.06644 0.0
H830 H 0.11692 0.29878 0.0518 0.0
H831 H 0.0394 0.28967 0.03076 0.0
H832 H 0.98493 0.39989 0.03167 0.0
H833 H 0.00323 0.36149 0.03815 0.0
C834 C 0.58535 0.24517 0.87764 0.0
C835 C 0.58482 0.26534 0.89407 0.0
C836 C 0.57851 0.22172 0.8851 0.0
C837 C 0.53639 0.19238 0.92257 0.0
H838 H 0.57493 0.13647 0.92641 0.0
C839 C 0.51052 0.11272 0.98119 0.0
C840 C 0.51595 0.08879 0.97447 0.0
C841 C 0.51793 0.13224 0.96719 0.0
C842 C 0.56381 0.15174 0.92483 0.0
H843 H 0.57763 0.27709 0.93117 0.0
H844 H 0.56478 0.23598 0.94404 0.0
H845 H 0.5921 0.17512 0.91101 0.0
H846 H 0.53246 0.06634 0.94712 0.0
H847 H 0.54531 0.10096 0.92202 0.0
H848 H 0.50806 0.16943 0.93605 0.0
C849 C 0.57079 0.23837 0.92555 0.0
C850 C 0.5737 0.17382 0.91629 0.0
C851 C 0.57809 0.26173 0.91825 0.0
C852 C 0.52802 0.08463 0.95267 0.0
C853 C 0.53553 0.1044 0.93848 0.0
C854 C 0.52642 0.17033 0.93063 0.0
C855 C 0.57064 0.21832 0.9089 0.0
C856 C 0.56018 0.1944 0.91585 0.0
C857 C 0.53079 0.12844 0.94586 0.0
C858 C 0.54022 0.15001 0.9327 0.0
H859 H 0.59075 0.24765 0.85897 0.0
H860 H 0.57841 0.20643 0.87204 0.0
H861 H 0.5256 0.208 0.9219 0.0
H862 H 0.50113 0.11658 -0.00218 0.0
H863 H 0.51435 0.15049 0.97372 0.0
C864 C 0.92784 0.71836 0.46932 0.0
C865 C 0.92198 0.71148 0.44493 0.0
C866 C 0.93503 0.74267 0.47575 0.0
C867 C 0.92421 0.80336 0.45783 0.0
H868 H 0.98375 0.82697 0.48883 0.0
C869 C 0.95887 0.90151 0.44998 0.0
C870 C 0.97013 0.91464 0.46983 0.0
C871 C 0.95284 0.87666 0.45113 0.0
C872 C 0.96684 0.8206 0.48068 0.0
H873 H 0.91945 0.72441 0.40814 0.0
H874 H 0.93156 0.76688 0.41945 0.0
H875 H 0.97454 0.78273 0.48247 0.0
H876 H 0.98392 0.91167 0.50661 0.0
H877 H 0.97303 0.86753 0.50871 0.0
H878 H 0.9163 0.84079 0.45582 0.0
C879 C 0.93083 0.75344 0.4335 0.0
C880 C 0.96167 0.79536 0.47693 0.0
C881 C 0.92406 0.72915 0.42702 0.0
C882 C 0.97518 0.90209 0.49106 0.0
C883 C 0.96906 0.87688 0.49221 0.0
C884 C 0.92919 0.82838 0.46184 0.0
C885 C 0.93597 0.76048 0.45795 0.0
C886 C 0.94064 0.78668 0.46474 0.0
C887 C 0.95766 0.86399 0.47223 0.0
C888 C 0.95091 0.83737 0.47247 0.0
H889 H 0.92644 0.70502 0.48343 0.0
H890 H 0.93889 0.74775 0.49471 0.0
H891 H 0.90768 0.79703 0.44882 0.0
H892 H 0.95478 0.91034 0.43321 0.0
H893 H 0.94466 0.86726 0.43518 0.0
C894 C 0.41901 0.75342 0.58087 0.0
C895 C 0.41069 0.76815 0.56254 0.0
C896 C 0.42743 0.7307 0.57497 0.0
C897 C 0.44982 0.69208 0.52537 0.0
H898 H 0.4298 0.6403 0.5684 0.0
C899 C 0.46747 0.58824 0.51138 0.0
C900 C 0.47362 0.57668 0.53284 0.0
C901 C 0.4612 0.61258 0.51249 0.0
C902 C 0.43568 0.6546 0.55631 0.0
H903 H 0.4053 0.77074 0.52348 0.0
H904 H 0.41953 0.73044 0.51322 0.0
H905 H 0.41549 0.68079 0.57491 0.0
H906 H 0.48011 0.58191 0.57179 0.0
H907 H 0.46965 0.62421 0.57362 0.0
H908 H 0.47006 0.66545 0.50679 0.0
C909 C 0.41973 0.73679 0.53214 0.0
C910 C 0.42751 0.6778 0.56005 0.0
C911 C 0.41137 0.75972 0.53805 0.0
C912 C 0.47499 0.59023 0.55504 0.0
C913 C 0.46894 0.61441 0.55611 0.0
C914 C 0.458 0.66867 0.52155 0.0
C915 C 0.4275 0.72192 0.55062 0.0
C916 C 0.4349 0.69694 0.54501 0.0
C917 C 0.46114 0.62555 0.53505 0.0
C918 C 0.4514 0.64991 0.53739 0.0
H919 H 0.41842 0.75908 0.59995 0.0
H920 H 0.43367 0.71984 0.5896 0.0
H921 H 0.45578 0.70651 0.51348 0.0
H922 H 0.46629 0.57813 0.49404 0.0
H923 H 0.45527 0.62082 0.496 0.0
C924 C 0.93045 0.92361 0.75919 0.0
C925 C 0.90736 0.91342 0.76212 0.0
C926 C 0.93872 0.92886 0.73588 0.0
C927 C 0.92835 0.91447 0.66991 0.0
H928 H 0.96118 0.97789 0.66253 0.0
C929 C 0.95343 0.95971 0.57672 0.0
C930 C 0.97586 0.97226 0.57701 0.0
C931 C 0.94471 0.94918 0.59817 0.0
C932 C 0.95221 0.96001 0.6643 0.0
H933 H 0.87503 0.89998 0.74331 0.0
H934 H 0.88956 0.90878 0.70249 0.0
H935 H 0.94733 0.96628 0.70252 0.0
H936 H 0.00757 0.98158 0.59887 0.0
H937 H 0.99268 0.96318 0.63558 0.0
H938 H 0.93335 0.9084 0.63141 0.0
C939 C 0.90126 0.91284 0.71809 0.0
C940 C 0.94435 0.95333 0.68726 0.0
C941 C 0.89288 0.90798 0.74141 0.0
C942 C 0.99002 0.97242 0.59826 0.0
C943 C 0.98146 0.96197 0.61936 0.0
C944 C 0.93629 0.92119 0.6468 0.0
C945 C 0.92416 0.92365 0.71506 0.0
C946 C 0.93249 0.93043 0.69043 0.0
C947 C 0.95839 0.95113 0.61994 0.0
C948 C 0.94854 0.94395 0.64384 0.0
H949 H 0.94189 0.92796 0.77495 0.0
H950 H 0.95653 0.93702 0.73415 0.0
H951 H 0.91935 0.89664 0.67182 0.0
H952 H 0.94222 0.95931 0.56053 0.0
H953 H 0.92688 0.94075 0.59809 0.0
C954 C 0.60356 0.08768 0.25114 0.0
C955 C 0.58826 0.08525 0.27092 0.0
C956 C 0.59657 0.07813 0.22804 0.0
C957 C 0.55729 0.03187 0.19572 0.0
H958 H 0.5673 0.07379 0.14082 0.0
C959 C 0.52438 0.00835 0.09514 0.0
C960 C 0.53971 0.01666 0.07682 0.0
C961 C 0.5301 0.01382 0.11982 0.0
C962 C 0.56464 0.06172 0.15591 0.0
H963 H 0.55395 0.07068 0.28245 0.0
H964 H 0.54185 0.05328 0.24194 0.0
H965 H 0.57712 0.08971 0.18194 0.0
H966 H 0.5739 0.03501 0.06994 0.0
H967 H 0.58399 0.04398 0.11261 0.0
H968 H 0.545 0.00376 0.16946 0.0
C969 C 0.55915 0.06275 0.2443 0.0
C970 C 0.5702 0.07089 0.17946 0.0
C971 C 0.56598 0.07276 0.26737 0.0
C972 C 0.56167 0.02849 0.08366 0.0
C973 C 0.56733 0.0339 0.10811 0.0
C974 C 0.55178 0.0226 0.17202 0.0
C975 C 0.57429 0.06559 0.22436 0.0
C976 C 0.56693 0.05599 0.19959 0.0
C977 C 0.55118 0.02765 0.12642 0.0
C978 C 0.5558 0.03733 0.15183 0.0
H979 H 0.62077 0.09738 0.25347 0.0
H980 H 0.60867 0.08045 0.21305 0.0
H981 H 0.55466 0.01997 0.21094 0.0
H982 H 0.50725 -0.0006 0.09037 0.0
H983 H 0.51735 0.00865 0.13355 0.0
C984 C 0.38507 0.59351 0.27113 0.0
C985 C 0.4009 0.59327 0.25165 0.0
C986 C 0.39308 0.59009 0.29491 0.0
C987 C 0.44846 0.59131 0.3322 0.0
H988 H 0.41202 0.54748 0.37352 0.0
C989 C 0.48917 0.52943 0.39906 0.0
C990 C 0.48055 0.52795 0.42289 0.0
C991 C 0.47808 0.54314 0.38197 0.0
C992 C 0.42209 0.56025 0.36243 0.0
H993 H 0.4372 0.58878 0.24138 0.0
H994 H 0.45111 0.58189 0.28267 0.0
H995 H 0.39471 0.55969 0.33508 0.0
H996 H 0.45386 0.54023 0.44771 0.0
H997 H 0.43398 0.56411 0.41718 0.0
H998 H 0.47642 0.59037 0.35876 0.0
C999 C 0.43269 0.58553 0.27986 0.0
C1000 C 0.41225 0.5672 0.3404 0.0
C1001 C 0.42475 0.58922 0.25619 0.0
C1002 C 0.46087 0.54106 0.42947 0.0
C1003 C 0.4495 0.55463 0.41209 0.0
C1004 C 0.45832 0.58417 0.35403 0.0
C1005 C 0.41702 0.58618 0.29955 0.0
C1006 C 0.42572 0.58203 0.32461 0.0
C1007 C 0.45804 0.5556 0.38821 0.0
C1008 C 0.44554 0.5679 0.36885 0.0
H1009 H 0.36664 0.59693 0.26803 0.0
H1010 H 0.38061 0.59088 0.30967 0.0
H1011 H 0.45903 0.60333 0.32079 0.0
H1012 H 0.50428 0.51959 0.39336 0.0
H1013 H 0.48473 0.5433 0.36354 0.0
C1014 C 0.06915 0.45401 0.73649 0.0
C1015 C 0.07471 0.43006 0.7303 0.0
C1016 C 0.06548 0.46085 0.76085 0.0
C1017 C 0.07715 0.44311 0.82419 0.0
H1018 H 0.02241 0.4799 0.83865 0.0
C1019 C 0.02803 0.45683 0.91725 0.0
C1020 C 0.02429 0.48143 0.92278 0.0
C1021 C 0.03914 0.45044 0.89547 0.0
C1022 C 0.03785 0.46976 0.83479 0.0
H1023 H 0.0816 0.39467 0.7442 0.0
H1024 H 0.0753 0.40656 0.7868 0.0
H1025 H 0.03135 0.46959 0.79633 0.0
H1026 H 0.03024 0.5187 0.9114 0.0
H1027 H 0.04945 0.50756 0.87345 0.0
H1028 H 0.08308 0.44287 0.86299 0.0
C1029 C 0.07372 0.42007 0.77302 0.0
C1030 C 0.04304 0.46399 0.81062 0.0
C1031 C 0.07709 0.41319 0.74869 0.0
C1032 C 0.03325 0.49963 0.90747 0.0
C1033 C 0.04409 0.4933 0.88579 0.0
C1034 C 0.0718 0.44873 0.84847 0.0
C1035 C 0.06767 0.4439 0.77934 0.0
C1036 C 0.06276 0.45065 0.80504 0.0
C1037 C 0.04618 0.46865 0.87915 0.0
C1038 C 0.05217 0.46218 0.85384 0.0
H1039 H 0.0673 0.46725 0.72247 0.0
H1040 H 0.06098 0.4794 0.76524 0.0
H1041 H 0.0926 0.43299 0.82038 0.0
H1042 H 0.02082 0.44258 0.92872 0.0
H1043 H 0.04051 0.4313 0.89049 0.0
C1044 C 0.75506 0.92232 0.94769 0.0
C1045 C 0.76042 0.91726 0.92313 0.0
C1046 C 0.73355 0.93209 0.95397 0.0
C1047 C 0.67258 0.93636 0.93037 0.0
H1048 H 0.66827 0.98695 0.98101 0.0
C1049 C 0.58385 0.97749 0.94856 0.0
C1050 C 0.57729 0.98083 0.97295 0.0
C1051 C 0.60717 0.97316 0.94265 0.0
C1052 C 0.66913 0.97268 0.96697 0.0
H1053 H 0.74723 0.91864 0.88592 0.0
H1054 H 0.70994 0.93582 0.89681 0.0
H1055 H 0.70695 0.97226 0.97048 0.0
H1056 H 0.59 0.98302 0.01035 0.0
H1057 H 0.63104 0.97516 0.00016 0.0
H1058 H 0.63494 0.93626 0.92705 0.0
C1059 C 0.7223 0.93211 0.91127 0.0
C1060 C 0.69132 0.96425 0.96093 0.0
C1061 C 0.74383 0.92249 0.905 0.0
C1062 C 0.59477 0.98098 0.99137 0.0
C1063 C 0.61823 0.97637 0.98548 0.0
C1064 C 0.65048 0.94466 0.93645 0.0
C1065 C 0.71678 0.93688 0.93584 0.0
C1066 C 0.69331 0.94605 0.94246 0.0
C1067 C 0.62453 0.97154 0.96106 0.0
C1068 C 0.64839 0.96305 0.95473 0.0
H1069 H 0.76752 0.91875 0.96211 0.0
H1070 H 0.72983 0.93536 0.97307 0.0
H1071 H 0.67334 0.92196 0.91644 0.0
H1072 H 0.5706 0.97709 0.93405 0.0
H1073 H 0.6114 0.97021 0.92363 0.0
C1074 C 0.75398 0.09176 0.4475 0.0
C1075 C 0.74883 0.09149 0.42231 0.0
C1076 C 0.77606 0.08498 0.45599 0.0
C1077 C 0.82434 0.04768 0.43616 0.0
H1078 H 0.86343 0.08361 0.4856 0.0
C1079 C 0.92195 0.03164 0.44574 0.0
C1080 C 0.93083 0.0272 0.46911 0.0
C1081 C 0.89976 0.04089 0.44281 0.0
C1082 C 0.85253 0.07329 0.47198 0.0
H1083 H 0.76331 0.08562 0.38634 0.0
H1084 H 0.80146 0.07375 0.40104 0.0
H1085 H 0.82395 0.09718 0.47548 0.0
H1086 H 0.92388 0.03029 0.50786 0.0
H1087 H 0.88475 0.04656 0.50261 0.0
H1088 H 0.85275 0.02407 0.43223 0.0
C1089 C 0.78834 0.07857 0.41428 0.0
C1090 C 0.83 0.08101 0.46622 0.0
C1091 C 0.76646 0.08532 0.40585 0.0
C1092 C 0.91745 0.03339 0.48961 0.0
C1093 C 0.89512 0.04276 0.48664 0.0
C1094 C 0.8467 0.04006 0.44183 0.0
C1095 C 0.79324 0.0778 0.4394 0.0
C1096 C 0.81598 0.06861 0.44776 0.0
C1097 C 0.88585 0.04595 0.46315 0.0
C1098 C 0.86129 0.05311 0.45931 0.0
H1099 H 0.74073 0.09646 0.46062 0.0
H1100 H 0.77939 0.08457 0.47546 0.0
H1101 H 0.8137 0.03737 0.42232 0.0
H1102 H 0.9319 0.02741 0.42957 0.0
H1103 H 0.89325 0.04367 0.42451 0.0
C1104 C 0.25147 0.57442 0.08182 0.0
C1105 C 0.25663 0.59962 0.08586 0.0
C1106 C 0.22898 0.56568 0.07354 0.0
C1107 C 0.16701 0.58211 0.06963 0.0
H1108 H 0.16206 0.53204 0.01776 0.0
C1109 C 0.07771 0.54868 0.02453 0.0
C1110 C 0.07313 0.52331 0.02581 0.0
C1111 C 0.10056 0.55911 0.02919 0.0
C1112 C 0.16325 0.54604 0.03222 0.0
H1113 H 0.24231 0.63536 0.08546 0.0
H1114 H 0.20301 0.62012 0.07091 0.0
H1115 H 0.20113 0.54777 0.03282 0.0
H1116 H 0.08868 0.48874 0.03126 0.0
H1117 H 0.12874 0.50689 0.03871 0.0
H1118 H 0.12909 0.58025 0.06906 0.0
C1119 C 0.2163 0.60713 0.07403 0.0
C1120 C 0.18553 0.55491 0.04095 0.0
C1121 C 0.23881 0.61586 0.08212 0.0
C1122 C 0.09185 0.50839 0.03037 0.0
C1123 C 0.11472 0.51874 0.03449 0.0
C1124 C 0.14473 0.57334 0.0608 0.0
C1125 C 0.21124 0.58198 0.06938 0.0
C1126 C 0.18762 0.57286 0.0599 0.0
C1127 C 0.11914 0.54421 0.03459 0.0
C1128 C 0.14269 0.55508 0.04219 0.0
H1129 H 0.26496 0.56156 0.08459 0.0
H1130 H 0.22545 0.54616 0.07043 0.0
H1131 H 0.16808 0.59573 0.08445 0.0
H1132 H 0.06347 0.56051 0.02111 0.0
H1133 H 0.10365 0.57881 0.02907 0.0
C1134 C 0.2323 0.46391 0.56804 0.0
C1135 C 0.22469 0.43966 0.57272 0.0
C1136 C 0.25419 0.46913 0.55716 0.0
C1137 C 0.30058 0.43908 0.52151 0.0
H1138 H 0.34092 0.49518 0.54436 0.0
C1139 C 0.40247 0.44893 0.51708 0.0
C1140 C 0.41297 0.47178 0.51127 0.0
C1141 C 0.37784 0.44533 0.51793 0.0
C1142 C 0.32964 0.4797 0.53747 0.0
H1143 H 0.23448 0.40203 0.57077 0.0
H1144 H 0.27262 0.41109 0.55229 0.0
H1145 H 0.30126 0.4888 0.56076 0.0
H1146 H 0.4064 0.50848 0.5008 0.0
H1147 H 0.36319 0.50238 0.50279 0.0
H1148 H 0.32967 0.42933 0.49929 0.0
C1149 C 0.26146 0.42605 0.55616 0.0
C1150 C 0.30692 0.47603 0.54686 0.0
C1151 C 0.23962 0.42085 0.56687 0.0
C1152 C 0.39858 0.49052 0.50472 0.0
C1153 C 0.37395 0.48713 0.50615 0.0
C1154 C 0.32342 0.44259 0.51239 0.0
C1155 C 0.26894 0.4502 0.55089 0.0
C1156 C 0.29226 0.45541 0.53934 0.0
C1157 C 0.36346 0.4648 0.51368 0.0
C1158 C 0.33825 0.46274 0.52054 0.0
H1159 H 0.2211 0.47876 0.57227 0.0
H1160 H 0.25935 0.48794 0.55327 0.0
H1161 H 0.28958 0.42331 0.51489 0.0
H1162 H 0.41333 0.43446 0.52272 0.0
H1163 H 0.37017 0.42801 0.52396 0.0
C1164 C 0.92171 0.7463 0.90679 0.0
C1165 C 0.91213 0.76438 0.92182 0.0
C1166 C 0.92789 0.72414 0.91619 0.0
C1167 C 0.94098 0.69376 0.97435 0.0
H1168 H 0.93577 0.63579 0.93165 0.0
C1169 C 0.96182 0.59138 -0.00262 0.0
C1170 C 0.9788 0.58258 0.98135 0.0
C1171 C 0.95228 0.61416 0.99362 0.0
C1172 C 0.93715 0.6518 0.94386 0.0
H1173 H 0.9015 0.7729 0.95885 0.0
H1174 H 0.91147 0.73384 0.97507 0.0
H1175 H 0.92074 0.6737 0.91784 0.0
H1176 H 0.00013 0.59168 0.94987 0.0
H1177 H 0.98329 0.63052 0.94328 0.0
H1178 H 0.95738 0.67129 0.00038 0.0
C1179 C 0.91466 0.73706 0.956 0.0
C1180 C 0.92878 0.67366 0.93586 0.0
C1181 C 0.90864 0.75942 0.94659 0.0
C1182 C 0.98691 0.59763 0.96248 0.0
C1183 C 0.97724 0.61994 0.95859 0.0
C1184 C 0.94908 0.67167 0.98249 0.0
C1185 C 0.92439 0.71907 0.94092 0.0
C1186 C 0.93115 0.6952 0.95068 0.0
C1187 C 0.95943 0.62819 0.97366 0.0
C1188 C 0.94773 0.65065 0.96706 0.0
H1189 H 0.92431 0.74909 0.88754 0.0
H1190 H 0.93572 0.71109 0.90398 0.0
H1191 H 0.94331 0.70991 0.98627 0.0
H1192 H 0.95511 0.58023 0.01198 0.0
H1193 H 0.93856 0.62025 0.00554 0.0
C1194 C 0.42138 0.76026 0.08274 0.0
C1195 C 0.41885 0.75365 0.10707 0.0
C1196 C 0.42529 0.78483 0.07709 0.0
C1197 C 0.44497 0.84556 0.10472 0.0
H1198 H 0.41998 0.86769 0.04377 0.0
C1199 C 0.4878 0.92344 0.05184 0.0
C1200 C 0.47434 0.93484 0.03447 0.0
C1201 C 0.47689 0.90667 0.06732 0.0
C1202 C 0.42663 0.86212 0.0612 0.0
H1203 H 0.41785 0.76729 0.14453 0.0
H1204 H 0.42406 0.81021 0.13472 0.0
H1205 H 0.40907 0.82661 0.05638 0.0
H1206 H 0.43895 0.93996 0.02106 0.0
H1207 H 0.41958 0.91119 0.04871 0.0
H1208 H 0.46249 0.88118 0.10951 0.0
C1209 C 0.42375 0.79652 0.12 0.0
C1210 C 0.42075 0.8383 0.06817 0.0
C1211 C 0.42021 0.77195 0.12565 0.0
C1212 C 0.44958 0.93156 0.03465 0.0
C1213 C 0.43859 0.9148 0.05019 0.0
C1214 C 0.45066 0.8695 0.09786 0.0
C1215 C 0.42631 0.8033 0.09565 0.0
C1216 C 0.43047 0.82945 0.08962 0.0
C1217 C 0.45232 0.90094 0.06548 0.0
C1218 C 0.44219 0.87782 0.07561 0.0
H1219 H 0.42044 0.74642 0.06812 0.0
H1220 H 0.42771 0.78929 0.05817 0.0
H1221 H 0.45285 0.83941 0.12135 0.0
H1222 H 0.50698 0.92545 0.05162 0.0
H1223 H 0.48809 0.89635 0.07875 0.0
C1224 C 0.05947 0.2764 0.53555 0.0
C1225 C 0.06413 0.28109 0.56054 0.0
C1226 C 0.0499 0.25352 0.5271 0.0
C1227 C 0.01996 0.19541 0.54678 0.0
H1228 H 0.05053 0.16763 0.49036 0.0
C1229 C -0.00202 0.09563 0.5155 0.0
C1230 C 0.01832 0.08242 0.51356 0.0
C1231 C -8e-05 0.12123 0.5156 0.0
C1232 C 0.04169 0.17519 0.50601 0.0
H1233 H 0.06187 0.26572 0.59638 0.0
H1234 H 0.04539 0.22564 0.58165 0.0
H1235 H 0.06076 0.20988 0.50355 0.0
H1236 H 0.05626 0.08493 0.50887 0.0
H1237 H 0.05972 0.12939 0.50853 0.0
H1238 H 0.00187 0.16025 0.55002 0.0
C1239 C 0.04877 0.23976 0.56857 0.0
C1240 C 0.04741 0.19947 0.51349 0.0
C1241 C 0.05826 0.2627 0.57703 0.0
C1242 C 0.04028 0.09485 0.50978 0.0
C1243 C 0.04223 0.12032 0.50971 0.0
C1244 C 0.01424 0.17111 0.53929 0.0
C1245 C 0.04486 0.23478 0.54345 0.0
C1246 C 0.03696 0.20973 0.53424 0.0
C1247 C 0.02224 0.13383 0.51373 0.0
C1248 C 0.02541 0.16058 0.51912 0.0
H1249 H 0.06345 0.29037 0.52246 0.0
H1250 H 0.0467 0.25043 0.5077 0.0
H1251 H 0.01141 0.20285 0.56268 0.0
H1252 H 0.98097 0.08633 0.519 0.0
H1253 H 0.98418 0.13116 0.5185 0.0
C1254 C 0.58949 0.2453 0.45744 0.0
C1255 C 0.59848 0.24301 0.43384 0.0
C1256 C 0.57803 0.26617 0.46466 0.0
C1257 C 0.54902 0.31878 0.43865 0.0
H1258 H 0.55214 0.34344 0.50578 0.0
C1259 C 0.49284 0.39718 0.46848 0.0
C1260 C 0.50381 0.41564 0.48385 0.0
C1261 C 0.50309 0.37486 0.46499 0.0
C1262 C 0.55121 0.33693 0.48691 0.0
H1263 H 0.60353 0.26083 0.39955 0.0
H1264 H 0.58459 0.2978 0.41238 0.0
H1265 H 0.5744 0.30853 0.49381 0.0
H1266 H 0.53337 0.42479 0.50875 0.0
H1267 H 0.55168 0.3861 0.50219 0.0
H1268 H 0.52696 0.3479 0.43138 0.0
C1269 C 0.58544 0.28321 0.42511 0.0
C1270 C 0.56375 0.31666 0.48009 0.0
C1271 C 0.59646 0.26214 0.41777 0.0
C1272 C 0.52441 0.41079 0.49694 0.0
C1273 C 0.53492 0.38857 0.49312 0.0
C1274 C 0.53679 0.33921 0.44538 0.0
C1275 C 0.57573 0.28537 0.44854 0.0
C1276 C 0.56277 0.30725 0.45587 0.0
C1277 C 0.5248 0.37065 0.47644 0.0
C1278 C 0.53756 0.3485 0.46963 0.0
H1279 H 0.59072 0.23063 0.47005 0.0
H1280 H 0.57049 0.26692 0.48267 0.0
H1281 H 0.54746 0.31193 0.41991 0.0
H1282 H 0.47685 0.4004 0.45829 0.0
H1283 H 0.49437 0.36122 0.45262 0.0
loop_
_geom_bond_atom_site_label_1
_geom_bond_atom_site_label_2
_geom_bond_distance
_geom_bond_site_symmetry_2
_ccdc_geom_bond_type
C0 C1 1.391 . S
C0 C4 1.391 . S
C0 H42 0.948 . S
C1 C0 1.391 . S
C1 C2 1.391 . S
C2 C1 1.391 . S
C2 H58 0.947 . S
C2 C59 1.392 . S
C3 C4 1.391 . S
C3 C7 1.397 . S
C3 C59 1.419 . S
C4 C0 1.391 . S
C4 C3 1.391 . S
C4 C5 1.399 . S
C5 C4 1.399 . S
C5 C8 1.396 . S
C5 C17 1.453 . S
C5 C18 1.684 . S
H6 C30 0.948 . S
C7 C3 1.397 . S
C7 C8 1.394 . S
C7 C26 1.723 . S
C8 C5 1.396 . S
C8 C7 1.394 . S
C8 C38 1.723 . S
H9 C32 0.947 . S
H10 C33 0.948 . S
H11 C39 0.982 . S
H12 C40 0.979 . S
H13 C40 0.980 . S
H14 C40 0.983 . S
H15 C39 0.979 . S
H16 C39 0.977 . S
C17 C5 1.453 . S
C17 H46 0.982 . S
C17 H47 0.979 . S
C17 H48 0.977 . S
C18 C5 1.684 . S
C18 H43 0.979 . S
C18 H44 0.980 . S
C18 H45 0.983 . S
C19 C20 1.391 . S
C19 C24 1.391 . S
C19 H49 0.948 . S
C20 C19 1.391 . S
C20 C21 1.391 . S
C21 C20 1.391 . S
C21 C22 1.392 . S
C21 H50 0.947 . S
C22 C21 1.392 . S
C22 C23 1.419 . S
C22 H51 0.948 . S
C23 C22 1.419 . S
C23 C24 1.391 . S
C23 C27 1.397 . S
C24 C19 1.391 . S
C24 C23 1.391 . S
C24 C25 1.399 . S
C25 C24 1.399 . S
C25 C26 1.396 . S
C25 C28 1.453 . S
C25 C29 1.684 . S
C26 C7 1.723 . S
C26 C25 1.396 . S
C26 C27 1.394 . S
C27 C23 1.397 . S
C27 C26 1.394 . S
C27 C37 1.723 . S
C28 C25 1.453 . S
C28 H52 0.982 . S
C28 H53 0.979 . S
C28 H54 0.977 . S
C29 C25 1.684 . S
C29 H55 0.979 . S
C29 H56 0.980 . S
C29 H57 0.983 . S
C30 H6 0.948 . S
C30 C31 1.391 . S
C30 C35 1.391 . S
C31 C30 1.391 . S
C31 C32 1.391 . S
C32 H9 0.947 . S
C32 C31 1.391 . S
C32 C33 1.392 . S
C33 H10 0.948 . S
C33 C32 1.392 . S
C33 C34 1.419 . S
C34 C33 1.419 . S
C34 C35 1.391 . S
C34 C38 1.397 . S
C35 C30 1.391 . S
C35 C34 1.391 . S
C35 C36 1.399 . S
C36 C35 1.399 . S
C36 C37 1.396 . S
C36 C39 1.453 . S
C36 C40 1.684 . S
C37 C27 1.723 . S
C37 C36 1.396 . S
C37 C38 1.394 . S
C38 C8 1.723 . S
C38 C34 1.397 . S
C38 C37 1.394 . S
C39 H11 0.982 . S
C39 H15 0.979 . S
C39 H16 0.977 . S
C39 C36 1.453 . S
C40 H12 0.979 . S
C40 H13 0.980 . S
C40 H14 0.983 . S
C40 C36 1.684 . S
H41 C59 0.948 . S
H42 C0 0.948 . S
H43 C18 0.979 . S
H44 C18 0.980 . S
H45 C18 0.983 . S
H46 C17 0.982 . S
H47 C17 0.979 . S
H48 C17 0.977 . S
H49 C19 0.948 . S
H50 C21 0.947 . S
H51 C22 0.948 . S
H52 C28 0.982 . S
H53 C28 0.979 . S
H54 C28 0.977 . S
H55 C29 0.979 . S
H56 C29 0.980 . S
H57 C29 0.983 . S
H58 C2 0.947 . S
C59 C2 1.392 . S
C59 C3 1.419 . S
C59 H41 0.948 . S
C60 C61 1.391 . S
C60 C64 1.391 . S
C60 H102 0.948 . S
C61 C60 1.391 . S
C61 C62 1.391 . S
C62 C61 1.391 . S
C62 H118 0.947 . S
C62 C119 1.392 . S
C63 C64 1.391 . S
C63 C67 1.397 . S
C63 C119 1.419 . S
C64 C60 1.391 . S
C64 C63 1.391 . S
C64 C65 1.399 . S
C65 C64 1.399 . S
C65 C68 1.396 . S
C65 C77 1.453 . S
C65 C78 1.684 . S
H66 C90 0.948 . S
C67 C63 1.397 . S
C67 C68 1.394 . S
C67 C86 1.723 . S
C68 C65 1.396 . S
C68 C67 1.394 . S
C68 C98 1.723 . S
H69 C92 0.947 . S
H70 C93 0.948 . S
H71 C99 0.982 . S
H72 C100 0.979 . S
H73 C100 0.980 . S
H74 C100 0.983 . S
H75 C99 0.979 . S
H76 C99 0.977 . S
C77 C65 1.453 . S
C77 H106 0.982 . S
C77 H107 0.979 . S
C77 H108 0.977 . S
C78 C65 1.684 . S
C78 H103 0.979 . S
C78 H104 0.980 . S
C78 H105 0.983 . S
C79 C80 1.391 . S
C79 C84 1.391 . S
C79 H109 0.948 . S
C80 C79 1.391 . S
C80 C81 1.391 . S
C81 C80 1.391 . S
C81 C82 1.392 . S
C81 H110 0.947 . S
C82 C81 1.392 . S
C82 C83 1.419 . S
C82 H111 0.948 . S
C83 C82 1.419 . S
C83 C84 1.391 . S
C83 C87 1.397 . S
C84 C79 1.391 . S
C84 C83 1.391 . S
C84 C85 1.399 . S
C85 C84 1.399 . S
C85 C86 1.396 . S
C85 C88 1.453 . S
C85 C89 1.684 . S
C86 C67 1.723 . S
C86 C85 1.396 . S
C86 C87 1.394 . S
C87 C83 1.397 . S
C87 C86 1.394 . S
C87 C97 1.723 . S
C88 C85 1.453 . S
C88 H112 0.982 . S
C88 H113 0.979 . S
C88 H114 0.977 . S
C89 C85 1.684 . S
C89 H115 0.979 . S
C89 H116 0.980 . S
C89 H117 0.983 . S
C90 H66 0.948 . S
C90 C91 1.391 . S
C90 C95 1.391 . S
C91 C90 1.391 . S
C91 C92 1.391 . S
C92 H69 0.947 . S
C92 C91 1.391 . S
C92 C93 1.392 . S
C93 H70 0.948 . S
C93 C92 1.392 . S
C93 C94 1.419 . S
C94 C93 1.419 . S
C94 C95 1.391 . S
C94 C98 1.397 . S
C95 C90 1.391 . S
C95 C94 1.391 . S
C95 C96 1.399 . S
C96 C95 1.399 . S
C96 C97 1.396 . S
C96 C99 1.453 . S
C96 C100 1.684 . S
C97 C87 1.723 . S
C97 C96 1.396 . S
C97 C98 1.394 . S
C98 C68 1.723 . S
C98 C94 1.397 . S
C98 C97 1.394 . S
C99 H71 0.982 . S
C99 H75 0.979 . S
C99 H76 0.977 . S
C99 C96 1.453 . S
C100 H72 0.979 . S
C100 H73 0.980 . S
C100 H74 0.983 . S
C100 C96 1.684 . S
H101 C119 0.948 . S
H102 C60 0.948 . S
H103 C78 0.979 . S
H104 C78 0.980 . S
H105 C78 0.983 . S
H106 C77 0.982 . S
H107 C77 0.979 . S
H108 C77 0.977 . S
H109 C79 0.948 . S
H110 C81 0.947 . S
H111 C82 0.948 . S
H112 C88 0.982 . S
H113 C88 0.979 . S
H114 C88 0.977 . S
H115 C89 0.979 . S
H116 C89 0.980 . S
H117 C89 0.983 . S
H118 C62 0.947 . S
C119 C62 1.392 . S
C119 C63 1.419 . S
C119 H101 0.948 . S
C120 C121 1.391 . S
C120 C124 1.391 . S
C120 H162 0.948 . S
C121 C120 1.391 . S
C121 C122 1.391 . S
C122 C121 1.391 . S
C122 H178 0.947 . S
C122 C179 1.392 . S
C123 C124 1.391 . S
C123 C127 1.397 . S
C123 C179 1.419 . S
C124 C120 1.391 . S
C124 C123 1.391 . S
C124 C125 1.399 . S
C125 C124 1.399 . S
C125 C128 1.396 . S
C125 C137 1.453 . S
C125 C138 1.684 . S
H126 C150 0.948 . S
C127 C123 1.397 . S
C127 C128 1.394 . S
C127 C146 1.723 . S
C128 C125 1.396 . S
C128 C127 1.394 . S
C128 C158 1.723 . S
H129 C152 0.947 . S
H130 C153 0.948 . S
H131 C159 0.982 . S
H132 C160 0.979 . S
H133 C160 0.980 . S
H134 C160 0.983 . S
H135 C159 0.979 . S
H136 C159 0.977 . S
C137 C125 1.453 . S
C137 H166 0.982 . S
C137 H167 0.979 . S
C137 H168 0.977 . S
C138 C125 1.684 . S
C138 H163 0.979 . S
C138 H164 0.980 . S
C138 H165 0.983 . S
C139 C140 1.391 . S
C139 C144 1.391 . S
C139 H169 0.948 . S
C140 C139 1.391 . S
C140 C141 1.391 . S
C141 C140 1.391 . S
C141 C142 1.392 . S
C141 H170 0.947 . S
C142 C141 1.392 . S
C142 C143 1.419 . S
C142 H171 0.948 . S
C143 C142 1.419 . S
C143 C144 1.391 . S
C143 C147 1.397 . S
C144 C139 1.391 . S
C144 C143 1.391 . S
C144 C145 1.399 . S
C145 C144 1.399 . S
C145 C146 1.396 . S
C145 C148 1.453 . S
C145 C149 1.684 . S
C146 C127 1.723 . S
C146 C145 1.396 . S
C146 C147 1.394 . S
C147 C143 1.397 . S
C147 C146 1.394 . S
C147 C157 1.723 . S
C148 C145 1.453 . S
C148 H172 0.982 . S
C148 H173 0.979 . S
C148 H174 0.977 . S
C149 C145 1.684 . S
C149 H175 0.979 . S
C149 H176 0.980 . S
C149 H177 0.983 . S
C150 H126 0.948 . S
C150 C151 1.391 . S
C150 C155 1.391 . S
C151 C150 1.391 . S
C151 C152 1.391 . S
C152 H129 0.947 . S
C152 C151 1.391 . S
C152 C153 1.392 . S
C153 H130 0.948 . S
C153 C152 1.392 . S
C153 C154 1.419 . S
C154 C153 1.419 . S
C154 C155 1.391 . S
C154 C158 1.397 . S
C155 C150 1.391 . S
C155 C154 1.391 . S
C155 C156 1.399 . S
C156 C155 1.399 . S
C156 C157 1.396 . S
C156 C159 1.453 . S
C156 C160 1.684 . S
C157 C147 1.723 . S
C157 C156 1.396 . S
C157 C158 1.394 . S
C158 C128 1.723 . S
C158 C154 1.397 . S
C158 C157 1.394 . S
C159 H131 0.982 . S
C159 H135 0.979 . S
C159 H136 0.977 . S
C159 C156 1.453 . S
C160 H132 0.979 . S
C160 H133 0.980 . S
C160 H134 0.983 . S
C160 C156 1.684 . S
H161 C179 0.948 . S
H162 C120 0.948 . S
H163 C138 0.979 . S
H164 C138 0.980 . S
H165 C138 0.983 . S
H166 C137 0.982 . S
H167 C137 0.979 . S
H168 C137 0.977 . S
H169 C139 0.948 . S
H170 C141 0.947 . S
H171 C142 0.948 . S
H172 C148 0.982 . S
H173 C148 0.979 . S
H174 C148 0.977 . S
H175 C149 0.979 . S
H176 C149 0.980 . S
H177 C149 0.983 . S
H178 C122 0.947 . S
C179 C122 1.392 . S
C179 C123 1.419 . S
C179 H161 0.948 . S
C180 C181 1.391 . S
C180 C184 1.391 . S
C180 H222 0.948 . S
C181 C180 1.391 . S
C181 C182 1.391 . S
C182 C181 1.391 . S
C182 H238 0.947 . S
C182 C239 1.392 . S
C183 C184 1.391 . S
C183 C187 1.397 . S
C183 C239 1.419 . S
C184 C180 1.391 . S
C184 C183 1.391 . S
C184 C185 1.399 . S
C185 C184 1.399 . S
C185 C188 1.396 . S
C185 C197 1.453 . S
C185 C198 1.684 . S
H186 C210 0.948 . S
C187 C183 1.397 . S
C187 C188 1.394 . S
C187 C206 1.723 . S
C188 C185 1.396 . S
C188 C187 1.394 . S
C188 C218 1.723 . S
H189 C212 0.947 . S
H190 C213 0.948 . S
H191 C219 0.982 . S
H192 C220 0.979 . S
H193 C220 0.980 . S
H194 C220 0.983 . S
H195 C219 0.979 . S
H196 C219 0.977 . S
C197 C185 1.453 . S
C197 H226 0.982 . S
C197 H227 0.979 . S
C197 H228 0.977 . S
C198 C185 1.684 . S
C198 H223 0.979 . S
C198 H224 0.980 . S
C198 H225 0.983 . S
C199 C200 1.391 . S
C199 C204 1.391 . S
C199 H229 0.948 . S
C200 C199 1.391 . S
C200 C201 1.391 . S
C201 C200 1.391 . S
C201 C202 1.392 . S
C201 H230 0.947 . S
C202 C201 1.392 . S
C202 C203 1.419 . S
C202 H231 0.948 . S
C203 C202 1.419 . S
C203 C204 1.391 . S
C203 C207 1.397 . S
C204 C199 1.391 . S
C204 C203 1.391 . S
C204 C205 1.399 . S
C205 C204 1.399 . S
C205 C206 1.396 . S
C205 C208 1.453 . S
C205 C209 1.684 . S
C206 C187 1.723 . S
C206 C205 1.396 . S
C206 C207 1.394 . S
C207 C203 1.397 . S
C207 C206 1.394 . S
C207 C217 1.723 . S
C208 C205 1.453 . S
C208 H232 0.982 . S
C208 H233 0.979 . S
C208 H234 0.977 . S
C209 C205 1.684 . S
C209 H235 0.979 . S
C209 H236 0.980 . S
C209 H237 0.983 . S
C210 H186 0.948 . S
C210 C211 1.391 . S
C210 C215 1.391 . S
C211 C210 1.391 . S
C211 C212 1.391 . S
C212 H189 0.947 . S
C212 C211 1.391 . S
C212 C213 1.392 . S
C213 H190 0.948 . S
C213 C212 1.392 . S
C213 C214 1.419 . S
C214 C213 1.419 . S
C214 C215 1.391 . S
C214 C218 1.397 . S
C215 C210 1.391 . S
C215 C214 1.391 . S
C215 C216 1.399 . S
C216 C215 1.399 . S
C216 C217 1.396 . S
C216 C219 1.453 . S
C216 C220 1.684 . S
C217 C207 1.723 . S
C217 C216 1.396 . S
C217 C218 1.394 . S
C218 C188 1.723 . S
C218 C214 1.397 . S
C218 C217 1.394 . S
C219 H191 0.982 . S
C219 H195 0.979 . S
C219 H196 0.977 . S
C219 C216 1.453 . S
C220 H192 0.979 . S
C220 H193 0.980 . S
C220 H194 0.983 . S
C220 C216 1.684 . S
H221 C239 0.948 . S
H222 C180 0.948 . S
H223 C198 0.979 . S
H224 C198 0.980 . S
H225 C198 0.983 . S
H226 C197 0.982 . S
H227 C197 0.979 . S
H228 C197 0.977 . S
H229 C199 0.948 . S
H230 C201 0.947 . S
H231 C202 0.948 . S
H232 C208 0.982 . S
H233 C208 0.979 . S
H234 C208 0.977 . S
H235 C209 0.979 . S
H236 C209 0.980 . S
H237 C209 0.983 . S
H238 C182 0.947 . S
C239 C182 1.392 . S
C239 C183 1.419 . S
C239 H221 0.948 . S
C240 C241 1.391 . S
C240 C244 1.391 . S
C240 H282 0.948 . S
C241 C240 1.391 . S
C241 C242 1.391 . S
C242 C241 1.391 . S
C242 H298 0.947 . S
C242 C299 1.392 . S
C243 C244 1.391 . S
C243 C247 1.397 . S
C243 C299 1.419 . S
C244 C240 1.391 . S
C244 C243 1.391 . S
C244 C245 1.399 . S
C245 C244 1.399 . S
C245 C248 1.396 . S
C245 C257 1.453 . S
C245 C258 1.684 . S
H246 C270 0.948 . S
C247 C243 1.397 . S
C247 C248 1.394 . S
C247 C266 1.723 . S
C248 C245 1.396 . S
C248 C247 1.394 . S
C248 C278 1.723 . S
H249 C272 0.947 . S
H250 C273 0.948 . S
H251 C279 0.982 . S
H252 C280 0.979 . S
H253 C280 0.980 . S
H254 C280 0.983 . S
H255 C279 0.979 . S
H256 C279 0.977 . S
C257 C245 1.453 . S
C257 H286 0.982 . S
C257 H287 0.979 . S
C257 H288 0.977 . S
C258 C245 1.684 . S
C258 H283 0.979 . S
C258 H284 0.980 . S
C258 H285 0.983 . S
C259 C260 1.391 . S
C259 C264 1.391 . S
C259 H289 0.948 . S
C260 C259 1.391 . S
C260 C261 1.391 . S
C261 C260 1.391 . S
C261 C262 1.392 . S
C261 H290 0.947 . S
C262 C261 1.392 . S
C262 C263 1.419 . S
C262 H291 0.948 . S
C263 C262 1.419 . S
C263 C264 1.391 . S
C263 C267 1.397 . S
C264 C259 1.391 . S
C264 C263 1.391 . S
C264 C265 1.399 . S
C265 C264 1.399 . S
C265 C266 1.396 . S
C265 C268 1.453 . S
C265 C269 1.684 . S
C266 C247 1.723 . S
C266 C265 1.396 . S
C266 C267 1.394 . S
C267 C263 1.397 . S
C267 C266 1.394 . S
C267 C277 1.723 . S
C268 C265 1.453 . S
C268 H292 0.982 . S
C268 H293 0.979 . S
C268 H294 0.977 . S
C269 C265 1.684 . S
C269 H295 0.979 . S
C269 H296 0.980 . S
C269 H297 0.983 . S
C270 H246 0.948 . S
C270 C271 1.391 . S
C270 C275 1.391 . S
C271 C270 1.391 . S
C271 C272 1.391 . S
C272 H249 0.947 . S
C272 C271 1.391 . S
C272 C273 1.392 . S
C273 H250 0.948 . S
C273 C272 1.392 . S
C273 C274 1.419 . S
C274 C273 1.419 . S
C274 C275 1.391 . S
C274 C278 1.397 . S
C275 C270 1.391 . S
C275 C274 1.391 . S
C275 C276 1.399 . S
C276 C275 1.399 . S
C276 C277 1.396 . S
C276 C279 1.453 . S
C276 C280 1.684 . S
C277 C267 1.723 . S
C277 C276 1.396 . S
C277 C278 1.394 . S
C278 C248 1.723 . S
C278 C274 1.397 . S
C278 C277 1.394 . S
C279 H251 0.982 . S
C279 H255 0.979 . S
C279 H256 0.977 . S
C279 C276 1.453 . S
C280 H252 0.979 . S
C280 H253 0.980 . S
C280 H254 0.983 . S
C280 C276 1.684 . S
H281 C299 0.948 . S
H282 C240 0.948 . S
H283 C258 0.979 . S
H284 C258 0.980 . S
H285 C258 0.983 . S
H286 C257 0.982 . S
H287 C257 0.979 . S
H288 C257 0.977 . S
H289 C259 0.948 . S
H290 C261 0.947 . S
H291 C262 0.948 . S
H292 C268 0.982 . S
H293 C268 0.979 . S
H294 C268 0.977 . S
H295 C269 0.979 . S
H296 C269 0.980 . S
H297 C269 0.983 . S
H298 C242 0.947 . S
C299 C242 1.392 . S
C299 C243 1.419 . S
C299 H281 0.948 . S
C300 C301 1.391 . S
C300 C304 1.391 . S
C300 H342 0.948 . S
C301 C300 1.391 . S
C301 C302 1.391 . S
C302 C301 1.391 . S
C302 H358 0.947 . S
C302 C359 1.392 . S
C303 C304 1.391 . S
C303 C307 1.397 . S
C303 C359 1.419 . S
C304 C300 1.391 . S
C304 C303 1.391 . S
C304 C305 1.399 . S
C305 C304 1.399 . S
C305 C308 1.396 . S
C305 C317 1.453 . S
C305 C318 1.684 . S
H306 C330 0.948 . S
C307 C303 1.397 . S
C307 C308 1.394 . S
C307 C326 1.723 . S
C308 C305 1.396 . S
C308 C307 1.394 . S
C308 C338 1.723 . S
H309 C332 0.947 . S
H310 C333 0.948 . S
H311 C339 0.982 . S
H312 C340 0.979 . S
H313 C340 0.980 . S
H314 C340 0.983 . S
H315 C339 0.979 . S
H316 C339 0.977 . S
C317 C305 1.453 . S
C317 H346 0.982 . S
C317 H347 0.979 . S
C317 H348 0.977 . S
C318 C305 1.684 . S
C318 H343 0.979 . S
C318 H344 0.980 . S
C318 H345 0.983 . S
C319 C320 1.391 . S
C319 C324 1.391 . S
C319 H349 0.948 . S
C320 C319 1.391 . S
C320 C321 1.391 . S
C321 C320 1.391 . S
C321 C322 1.392 . S
C321 H350 0.947 . S
C322 C321 1.392 . S
C322 C323 1.419 . S
C322 H351 0.948 . S
C323 C322 1.419 . S
C323 C324 1.391 . S
C323 C327 1.397 . S
C324 C319 1.391 . S
C324 C323 1.391 . S
C324 C325 1.399 . S
C325 C324 1.399 . S
C325 C326 1.396 . S
C325 C328 1.453 . S
C325 C329 1.684 . S
C326 C307 1.723 . S
C326 C325 1.396 . S
C326 C327 1.394 . S
C327 C323 1.397 . S
C327 C326 1.394 . S
C327 C337 1.723 . S
C328 C325 1.453 . S
C328 H352 0.982 . S
C328 H353 0.979 . S
C328 H354 0.977 . S
C329 C325 1.684 . S
C329 H355 0.979 . S
C329 H356 0.980 . S
C329 H357 0.983 . S
C330 H306 0.948 . S
C330 C331 1.391 . S
C330 C335 1.391 . S
C331 C330 1.391 . S
C331 C332 1.391 . S
C332 H309 0.947 . S
C332 C331 1.391 . S
C332 C333 1.392 . S
C333 H310 0.948 . S
C333 C332 1.392 . S
C333 C334 1.419 . S
C334 C333 1.419 . S
C334 C335 1.391 . S
C334 C338 1.397 . S
C335 C330 1.391 . S
C335 C334 1.391 . S
C335 C336 1.399 . S
C336 C335 1.399 . S
C336 C337 1.396 . S
C336 C339 1.453 . S
C336 C340 1.684 . S
C337 C327 1.723 . S
C337 C336 1.396 . S
C337 C338 1.394 . S
C338 C308 1.723 . S
C338 C334 1.397 . S
C338 C337 1.394 . S
C339 H311 0.982 . S
C339 H315 0.979 . S
C339 H316 0.977 . S
C339 C336 1.453 . S
C340 H312 0.979 . S
C340 H313 0.980 . S
C340 H314 0.983 . S
C340 C336 1.684 . S
H341 C359 0.948 . S
H342 C300 0.948 . S
H343 C318 0.979 . S
H344 C318 0.980 . S
H345 C318 0.983 . S
H346 C317 0.982 . S
H347 C317 0.979 . S
H348 C317 0.977 . S
H349 C319 0.948 . S
H350 C321 0.947 . S
H351 C322 0.948 . S
H352 C328 0.982 . S
H353 C328 0.979 . S
H354 C328 0.977 . S
H355 C329 0.979 . S
H356 C329 0.980 . S
H357 C329 0.983 . S
H358 C302 0.947 . S
C359 C302 1.392 . S
C359 C303 1.419 . S
C359 H341 0.948 . S
C360 C361 1.391 . S
C360 C364 1.391 . S
C360 H402 0.948 . S
C361 C360 1.391 . S
C361 C362 1.391 . S
C362 C361 1.391 . S
C362 H418 0.947 . S
C362 C419 1.392 . S
C363 C364 1.391 . S
C363 C367 1.397 . S
C363 C419 1.419 . S
C364 C360 1.391 . S
C364 C363 1.391 . S
C364 C365 1.399 . S
C365 C364 1.399 . S
C365 C368 1.396 . S
C365 C377 1.453 . S
C365 C378 1.684 . S
H366 C390 0.948 . S
C367 C363 1.397 . S
C367 C368 1.394 . S
C367 C386 1.723 . S
C368 C365 1.396 . S
C368 C367 1.394 . S
C368 C398 1.723 . S
H369 C392 0.947 . S
H370 C393 0.948 . S
H371 C399 0.982 . S
H372 C400 0.979 . S
H373 C400 0.980 . S
H374 C400 0.983 . S
H375 C399 0.979 . S
H376 C399 0.977 . S
C377 C365 1.453 . S
C377 H406 0.982 . S
C377 H407 0.979 . S
C377 H408 0.977 . S
C378 C365 1.684 . S
C378 H403 0.979 . S
C378 H404 0.980 . S
C378 H405 0.983 . S
C379 C380 1.391 . S
C379 C384 1.391 . S
C379 H409 0.948 . S
C380 C379 1.391 . S
C380 C381 1.391 . S
C381 C380 1.391 . S
C381 C382 1.392 . S
C381 H410 0.947 . S
C382 C381 1.392 . S
C382 C383 1.419 . S
C382 H411 0.948 . S
C383 C382 1.419 . S
C383 C384 1.391 . S
C383 C387 1.397 . S
C384 C379 1.391 . S
C384 C383 1.391 . S
C384 C385 1.399 . S
C385 C384 1.399 . S
C385 C386 1.396 . S
C385 C388 1.453 . S
C385 C389 1.684 . S
C386 C367 1.723 . S
C386 C385 1.396 . S
C386 C387 1.394 . S
C387 C383 1.397 . S
C387 C386 1.394 . S
C387 C397 1.723 . S
C388 C385 1.453 . S
C388 H412 0.982 . S
C388 H413 0.979 . S
C388 H414 0.977 . S
C389 C385 1.684 . S
C389 H415 0.979 . S
C389 H416 0.980 . S
C389 H417 0.983 . S
C390 H366 0.948 . S
C390 C391 1.391 . S
C390 C395 1.391 . S
C391 C390 1.391 . S
C391 C392 1.391 . S
C392 H369 0.947 . S
C392 C391 1.391 . S
C392 C393 1.392 . S
C393 H370 0.948 . S
C393 C392 1.392 . S
C393 C394 1.419 . S
C394 C393 1.419 . S
C394 C395 1.391 . S
C394 C398 1.397 . S
C395 C390 1.391 . S
C395 C394 1.391 . S
C395 C396 1.399 . S
C396 C395 1.399 . S
C396 C397 1.396 . S
C396 C399 1.453 . S
C396 C400 1.684 . S
C397 C387 1.723 . S
C397 C396 1.396 . S
C397 C398 1.394 . S
C398 C368 1.723 . S
C398 C394 1.397 . S
C398 C397 1.394 . S
C399 H371 0.982 . S
C399 H375 0.979 . S
C399 H376 0.977 . S
C399 C396 1.453 . S
C400 H372 0.979 . S
C400 H373 0.980 . S
C400 H374 0.983 . S
C400 C396 1.684 . S
H401 C419 0.948 . S
H402 C360 0.948 . S
H403 C378 0.979 . S
H404 C378 0.980 . S
H405 C378 0.983 . S
H406 C377 0.982 . S
H407 C377 0.979 . S
H408 C377 0.977 . S
H409 C379 0.948 . S
H410 C381 0.947 . S
H411 C382 0.948 . S
H412 C388 0.982 . S
H413 C388 0.979 . S
H414 C388 0.977 . S
H415 C389 0.979 . S
H416 C389 0.980 . S
H417 C389 0.983 . S
H418 C362 0.947 . S
C419 C362 1.392 . S
C419 C363 1.419 . S
C419 H401 0.948 . S
C420 C421 1.391 . S
C420 C424 1.391 . S
C420 H462 0.948 . S
C421 C420 1.391 . S
C421 C422 1.391 . S
C422 C421 1.391 . S
C422 H478 0.947 . S
C422 C479 1.392 . S
C423 C424 1.391 . S
C423 C427 1.397 . S
C423 C479 1.419 . S
C424 C420 1.391 . S
C424 C423 1.391 . S
C424 C425 1.399 . S
C425 C424 1.399 . S
C425 C428 1.396 . S
C425 C437 1.453 . S
C425 C438 1.684 . S
H426 C450 0.948 . S
C427 C423 1.397 . S
C427 C428 1.394 . S
C427 C446 1.723 . S
C428 C425 1.396 . S
C428 C427 1.394 . S
C428 C458 1.723 . S
H429 C452 0.947 . S
H430 C453 0.948 . S
H431 C459 0.982 . S
H432 C460 0.979 . S
H433 C460 0.980 . S
H434 C460 0.983 . S
H435 C459 0.979 . S
H436 C459 0.977 . S
C437 C425 1.453 . S
C437 H466 0.982 . S
C437 H467 0.979 . S
C437 H468 0.977 . S
C438 C425 1.684 . S
C438 H463 0.979 . S
C438 H464 0.980 . S
C438 H465 0.983 . S
C439 C440 1.391 . S
C439 C444 1.391 . S
C439 H469 0.948 . S
C440 C439 1.391 . S
C440 C441 1.391 . S
C441 C440 1.391 . S
C441 C442 1.392 . S
C441 H470 0.947 . S
C442 C441 1.392 . S
C442 C443 1.419 . S
C442 H471 0.948 . S
C443 C442 1.419 . S
C443 C444 1.391 . S
C443 C447 1.397 . S
C444 C439 1.391 . S
C444 C443 1.391 . S
C444 C445 1.399 . S
C445 C444 1.399 . S
C445 C446 1.396 . S
C445 C448 1.453 . S
C445 C449 1.684 . S
C446 C427 1.723 . S
C446 C445 1.396 . S
C446 C447 1.394 . S
C447 C443 1.397 . S
C447 C446 1.394 . S
C447 C457 1.723 . S
C448 C445 1.453 . S
C448 H472 0.982 . S
C448 H473 0.979 . S
C448 H474 0.977 . S
C449 C445 1.684 . S
C449 H475 0.979 . S
C449 H476 0.980 . S
C449 H477 0.983 . S
C450 H426 0.948 . S
C450 C451 1.391 . S
C450 C455 1.391 . S
C451 C450 1.391 . S
C451 C452 1.391 . S
C452 H429 0.947 . S
C452 C451 1.391 . S
C452 C453 1.392 . S
C453 H430 0.948 . S
C453 C452 1.392 . S
C453 C454 1.419 . S
C454 C453 1.419 . S
C454 C455 1.391 . S
C454 C458 1.397 . S
C455 C450 1.391 . S
C455 C454 1.391 . S
C455 C456 1.399 . S
C456 C455 1.399 . S
C456 C457 1.396 . S
C456 C459 1.453 . S
C456 C460 1.684 . S
C457 C447 1.723 . S
C457 C456 1.396 . S
C457 C458 1.394 . S
C458 C428 1.723 . S
C458 C454 1.397 . S
C458 C457 1.394 . S
C459 H431 0.982 . S
C459 H435 0.979 . S
C459 H436 0.977 . S
C459 C456 1.453 . S
C460 H432 0.979 . S
C460 H433 0.980 . S
C460 H434 0.983 . S
C460 C456 1.684 . S
H461 C479 0.948 . S
H462 C420 0.948 . S
H463 C438 0.979 . S
H464 C438 0.980 . S
H465 C438 0.983 . S
H466 C437 0.982 . S
H467 C437 0.979 . S
H468 C437 0.977 . S
H469 C439 0.948 . S
H470 C441 0.947 . S
H471 C442 0.948 . S
H472 C448 0.982 . S
H473 C448 0.979 . S
H474 C448 0.977 . S
H475 C449 0.979 . S
H476 C449 0.980 . S
H477 C449 0.983 . S
H478 C422 0.947 . S
C479 C422 1.392 . S
C479 C423 1.419 . S
C479 H461 0.948 . S
O480 Mg481 1.990 . S
O480 C494 1.253 1_445 S
Mg481 O480 1.990 . S
Mg481 O484 2.180 . S
Mg481 O485 2.117 . S
Mg481 O499 2.030 1_545 S
O482 Mg483 2.072 1_665 S
O482 C494 1.260 . S
Mg483 O482 2.072 1_445 S
Mg483 O484 2.099 . S
Mg483 O486 2.079 . S
Mg483 O487 2.072 1_455 S
Mg483 O489 2.099 1_445 S
Mg483 O500 2.079 1_545 S
O484 Mg481 2.180 . S
O484 Mg483 2.099 . S
O484 C495 1.279 . S
O485 Mg481 2.117 . S
O485 C495 1.250 . S
O486 Mg483 2.079 . S
O486 C496 1.264 . S
O487 Mg483 2.072 1_655 S
O487 C497 1.260 . S
Mg488 O489 2.180 . S
Mg488 O490 2.030 1_565 S
Mg488 O491 1.990 1_565 S
Mg488 O492 2.117 . S
O489 Mg483 2.099 1_665 S
O489 Mg488 2.180 . S
O489 C498 1.279 . S
O490 Mg488 2.030 1_545 S
O490 C496 1.248 1_655 S
O491 Mg488 1.990 1_545 S
O491 C497 1.253 . S
O492 Mg488 2.117 . S
O492 C498 1.250 . S
C493 O499 1.248 . S
C493 O500 1.264 . S
C494 O480 1.253 1_665 S
C494 O482 1.260 . S
C495 O484 1.279 . S
C495 O485 1.250 . S
C496 O486 1.264 . S
C496 O490 1.248 1_455 S
C497 O487 1.260 . S
C497 O491 1.253 . S
C498 O489 1.279 . S
C498 O492 1.250 . S
O499 Mg481 2.030 1_565 S
O499 C493 1.248 . S
O500 Mg483 2.079 1_565 S
O500 C493 1.264 . S
O501 Mg502 1.990 . S
O501 C515 1.253 . S
Mg502 O501 1.990 . S
Mg502 O505 2.182 . S
Mg502 O506 2.117 1_554 S
Mg502 O520 2.030 . S
O503 Mg504 2.072 . S
O503 C515 1.260 . S
Mg504 O503 2.072 . S
Mg504 O505 2.099 . S
Mg504 O507 2.079 1_554 S
Mg504 O508 2.072 1_554 S
Mg504 O510 2.099 1_545 S
Mg504 O521 2.079 . S
O505 Mg502 2.182 . S
O505 Mg504 2.099 . S
O505 C516 1.277 1_554 S
O506 Mg502 2.117 1_556 S
O506 C516 1.250 . S
O507 Mg504 2.079 1_556 S
O507 C517 1.264 1_545 S
O508 Mg504 2.072 1_556 S
O508 C518 1.260 1_545 S
Mg509 O510 2.180 1_556 S
Mg509 O511 2.030 . S
Mg509 O512 1.990 . S
Mg509 O513 2.117 1_556 S
O510 Mg504 2.099 1_565 S
O510 Mg509 2.180 1_554 S
O510 C519 1.279 . S
O511 Mg509 2.030 . S
O511 C517 1.248 . S
O512 Mg509 1.990 . S
O512 C518 1.253 . S
O513 Mg509 2.117 1_554 S
O513 C519 1.250 . S
C514 O520 1.248 . S
C514 O521 1.264 . S
C515 O501 1.253 . S
C515 O503 1.260 . S
C516 O505 1.277 1_556 S
C516 O506 1.250 . S
C517 O507 1.264 1_565 S
C517 O511 1.248 . S
C518 O508 1.260 1_565 S
C518 O512 1.253 . S
C519 O510 1.279 . S
C519 O513 1.250 . S
O520 Mg502 2.030 . S
O520 C514 1.248 . S
O521 Mg504 2.079 . S
O521 C514 1.264 . S
O522 Mg523 1.990 . S
O522 C536 1.253 . S
Mg523 O522 1.990 . S
Mg523 O526 2.180 . S
Mg523 O527 2.117 . S
Mg523 O541 2.030 . S
O524 Mg525 2.072 . S
O524 C536 1.260 . S
Mg525 O524 2.072 . S
Mg525 O526 2.099 . S
Mg525 O528 2.079 . S
Mg525 O529 2.072 . S
Mg525 O531 2.099 . S
Mg525 O542 2.079 . S
O526 Mg523 2.180 . S
O526 Mg525 2.099 . S
O526 C537 1.279 . S
O527 Mg523 2.117 . S
O527 C537 1.250 . S
O528 Mg525 2.079 . S
O528 C538 1.264 . S
O529 Mg525 2.072 . S
O529 C539 1.260 . S
Mg530 O531 2.180 . S
Mg530 O532 2.030 . S
Mg530 O533 1.990 . S
Mg530 O534 2.117 . S
O531 Mg525 2.099 . S
O531 Mg530 2.180 . S
O531 C540 1.279 . S
O532 Mg530 2.030 . S
O532 C538 1.248 . S
O533 Mg530 1.990 . S
O533 C539 1.253 . S
O534 Mg530 2.117 . S
O534 C540 1.250 . S
C535 O541 1.248 . S
C535 O542 1.264 . S
C536 O522 1.253 . S
C536 O524 1.260 . S
C537 O526 1.279 . S
C537 O527 1.250 . S
C538 O528 1.264 . S
C538 O532 1.248 . S
C539 O529 1.260 . S
C539 O533 1.253 . S
C540 O531 1.279 . S
C540 O534 1.250 . S
O541 Mg523 2.030 . S
O541 C535 1.248 . S
O542 Mg525 2.079 . S
O542 C535 1.264 . S
O543 Mg544 1.990 . S
O543 C557 1.253 . S
Mg544 O543 1.990 . S
Mg544 O547 2.180 1_455 S
Mg544 O548 2.117 1_455 S
Mg544 O562 2.030 . S
O545 Mg546 2.072 . S
O545 C557 1.260 . S
Mg546 O545 2.072 . S
Mg546 O547 2.099 1_455 S
Mg546 O549 2.079 1_454 S
Mg546 O550 2.072 1_455 S
Mg546 O552 2.099 1_554 S
Mg546 O563 2.079 . S
O547 Mg544 2.180 1_655 S
O547 Mg546 2.099 1_655 S
O547 C558 1.279 . S
O548 Mg544 2.117 1_655 S
O548 C558 1.250 . S
O549 Mg546 2.079 1_656 S
O549 C559 1.264 . S
O550 Mg546 2.072 1_655 S
O550 C560 1.260 1_554 S
Mg551 O552 2.180 1_655 S
Mg551 O553 2.030 . S
Mg551 O554 1.990 . S
Mg551 O555 2.126 . S
O552 Mg546 2.099 1_556 S
O552 Mg551 2.180 1_455 S
O552 C561 1.279 . S
O553 Mg551 2.030 . S
O553 C559 1.248 . S
O554 Mg551 1.990 . S
O554 C560 1.253 . S
O555 Mg551 2.126 . S
O555 C561 1.242 1_655 S
C556 O562 1.248 . S
C556 O563 1.264 . S
C557 O543 1.253 . S
C557 O545 1.260 . S
C558 O547 1.279 . S
C558 O548 1.250 . S
C559 O549 1.264 . S
C559 O553 1.248 . S
C560 O550 1.260 1_556 S
C560 O554 1.253 . S
C561 O552 1.279 . S
C561 O555 1.242 1_455 S
O562 Mg544 2.030 . S
O562 C556 1.248 . S
O563 Mg546 2.079 . S
O563 C556 1.264 . S
C564 C565 1.349 . S
C564 C566 1.327 . S
C564 H589 0.950 . S
C565 C564 1.349 . S
C565 C581 1.349 . S
C566 C564 1.327 . S
C566 C585 1.429 . S
C566 H590 0.950 . S
C567 C584 1.574 . S
C567 C586 1.368 . S
C567 H591 0.949 . S
H568 C572 0.949 . S
C569 C570 1.349 . S
C569 C571 1.327 . S
C569 H592 0.950 . S
C570 C569 1.349 . S
C570 C582 1.349 . S
C571 C569 1.327 . S
C571 C587 1.429 . S
C571 H593 0.950 . S
C572 H568 0.949 . S
C572 C580 1.574 . S
C572 C588 1.368 . S
H573 C581 0.950 . S
H574 C579 0.950 . S
H575 C580 0.949 . S
H576 C582 0.950 . S
H577 C583 0.950 . S
H578 C584 0.949 . S
C579 H574 0.950 . S
C579 C581 1.327 . S
C579 C585 1.429 . S
C580 C572 1.574 . S
C580 H575 0.949 . S
C580 C586 1.368 . S
C581 C565 1.349 . S
C581 H573 0.950 . S
C581 C579 1.327 . S
C582 C570 1.349 . S
C582 H576 0.950 . S
C582 C583 1.327 . S
C583 H577 0.950 . S
C583 C582 1.327 . S
C583 C587 1.429 . S
C584 C567 1.574 . S
C584 H578 0.949 . S
C584 C588 1.368 . S
C585 C566 1.429 . S
C585 C579 1.429 . S
C585 C586 1.523 . S
C586 C567 1.368 . S
C586 C580 1.368 . S
C586 C585 1.523 . S
C587 C571 1.429 . S
C587 C583 1.429 . S
C587 C588 1.523 . S
C588 C572 1.368 . S
C588 C584 1.368 . S
C588 C587 1.523 . S
H589 C564 0.950 . S
H590 C566 0.950 . S
H591 C567 0.949 . S
H592 C569 0.950 . S
H593 C571 0.950 . S
C594 C595 1.349 . S
C594 C596 1.327 . S
C594 H619 0.950 . S
C595 C594 1.349 . S
C595 C611 1.349 . S
C596 C594 1.327 . S
C596 C615 1.429 . S
C596 H620 0.950 . S
C597 C614 1.574 . S
C597 C616 1.368 . S
C597 H621 0.949 . S
H598 C602 0.949 . S
C599 C600 1.349 1_545 S
C599 C601 1.327 1_545 S
C599 H622 0.950 . S
C600 C599 1.349 1_565 S
C600 C612 1.349 . S
C601 C599 1.327 1_565 S
C601 C617 1.429 . S
C601 H623 0.950 1_565 S
C602 H598 0.949 . S
C602 C610 1.574 . S
C602 C618 1.368 . S
H603 C611 0.950 . S
H604 C609 0.950 . S
H605 C610 0.949 . S
H606 C612 0.950 . S
H607 C613 0.950 . S
H608 C614 0.976 . S
C609 H604 0.950 . S
C609 C611 1.327 . S
C609 C615 1.429 . S
C610 C602 1.574 . S
C610 H605 0.949 . S
C610 C616 1.368 . S
C611 C595 1.349 . S
C611 H603 0.950 . S
C611 C609 1.327 . S
C612 C600 1.349 . S
C612 H606 0.950 . S
C612 C613 1.327 . S
C613 H607 0.950 . S
C613 C612 1.327 . S
C613 C617 1.429 . S
C614 C597 1.574 . S
C614 H608 0.976 . S
C614 C618 1.368 . S
C615 C596 1.429 . S
C615 C609 1.429 . S
C615 C616 1.523 . S
C616 C597 1.368 . S
C616 C610 1.368 . S
C616 C615 1.523 . S
C617 C601 1.429 . S
C617 C613 1.429 . S
C617 C618 1.523 . S
C618 C602 1.368 . S
C618 C614 1.368 . S
C618 C617 1.523 . S
H619 C594 0.950 . S
H620 C596 0.950 . S
H621 C597 0.949 . S
H622 C599 0.950 . S
H623 C601 0.950 1_545 S
C624 C625 1.349 . S
C624 C626 1.327 . S
C624 H649 0.950 . S
C625 C624 1.349 . S
C625 C641 1.349 . S
C626 C624 1.327 . S
C626 C645 1.429 . S
C626 H650 0.950 . S
C627 C644 1.574 . S
C627 C646 1.368 . S
C627 H651 0.949 . S
H628 C632 0.949 . S
C629 C630 1.349 . S
C629 C631 1.327 . S
C629 H652 0.950 . S
C630 C629 1.349 . S
C630 C642 1.349 . S
C631 C629 1.327 . S
C631 C647 1.429 . S
C631 H653 0.950 . S
C632 H628 0.949 . S
C632 C640 1.574 . S
C632 C648 1.368 . S
H633 C641 0.950 . S
H634 C639 0.950 . S
H635 C640 0.949 . S
H636 C642 0.950 . S
H637 C643 0.950 . S
H638 C644 0.949 . S
C639 H634 0.950 . S
C639 C641 1.327 . S
C639 C645 1.429 . S
C640 C632 1.574 . S
C640 H635 0.949 . S
C640 C646 1.368 . S
C641 C625 1.349 . S
C641 H633 0.950 . S
C641 C639 1.327 . S
C642 C630 1.349 . S
C642 H636 0.950 . S
C642 C643 1.327 . S
C643 H637 0.950 . S
C643 C642 1.327 . S
C643 C647 1.429 . S
C644 C627 1.574 . S
C644 H638 0.949 . S
C644 C648 1.368 . S
C645 C626 1.429 . S
C645 C639 1.429 . S
C645 C646 1.523 . S
C646 C627 1.368 . S
C646 C640 1.368 . S
C646 C645 1.523 . S
C647 C631 1.429 . S
C647 C643 1.429 . S
C647 C648 1.523 . S
C648 C632 1.368 . S
C648 C644 1.368 . S
C648 C647 1.523 . S
H649 C624 0.950 . S
H650 C626 0.950 . S
H651 C627 0.949 . S
H652 C629 0.950 . S
H653 C631 0.950 . S
C654 C655 1.349 . S
C654 C656 1.327 . S
C654 H679 0.950 . S
C655 C654 1.349 . S
C655 C671 1.349 . S
C656 C654 1.327 . S
C656 C675 1.429 . S
C656 H680 0.950 . S
C657 C674 1.574 . S
C657 C676 1.368 . S
C657 H681 0.949 . S
H658 C662 0.949 . S
C659 C660 1.349 . S
C659 C661 1.327 . S
C659 H682 0.950 . S
C660 C659 1.349 . S
C660 C672 1.349 . S
C661 C659 1.327 . S
C661 C677 1.429 . S
C661 H683 0.950 . S
C662 H658 0.949 . S
C662 C670 1.574 . S
C662 C678 1.368 . S
H663 C671 0.950 . S
H664 C669 0.950 . S
H665 C670 0.949 . S
H666 C672 0.950 . S
H667 C673 0.950 . S
H668 C674 0.949 . S
C669 H664 0.950 . S
C669 C671 1.327 . S
C669 C675 1.429 . S
C670 C662 1.574 . S
C670 H665 0.949 . S
C670 C676 1.368 . S
C671 C655 1.349 . S
C671 H663 0.950 . S
C671 C669 1.327 . S
C672 C660 1.349 . S
C672 H666 0.950 . S
C672 C673 1.327 . S
C673 H667 0.950 . S
C673 C672 1.327 . S
C673 C677 1.429 . S
C674 C657 1.574 . S
C674 H668 0.949 . S
C674 C678 1.368 . S
C675 C656 1.429 . S
C675 C669 1.429 . S
C675 C676 1.523 . S
C676 C657 1.368 . S
C676 C670 1.368 . S
C676 C675 1.523 . S
C677 C661 1.429 . S
C677 C673 1.429 . S
C677 C678 1.523 . S
C678 C662 1.368 . S
C678 C674 1.368 . S
C678 C677 1.523 . S
H679 C654 0.950 . S
H680 C656 0.950 . S
H681 C657 0.949 . S
H682 C659 0.950 . S
H683 C661 0.950 . S
C684 C685 1.349 . S
C684 C686 1.327 . S
C684 H709 0.950 . S
C685 C684 1.349 . S
C685 C701 1.349 . S
C686 C684 1.327 . S
C686 C705 1.429 . S
C686 H710 0.950 . S
C687 C704 1.574 . S
C687 C706 1.368 . S
C687 H711 0.949 . S
H688 C692 0.949 . S
C689 C690 1.349 . S
C689 C691 1.327 . S
C689 H712 0.950 . S
C690 C689 1.349 . S
C690 C702 1.349 . S
C691 C689 1.327 . S
C691 C707 1.429 . S
C691 H713 0.950 . S
C692 H688 0.949 . S
C692 C700 1.574 . S
C692 C708 1.368 . S
H693 C701 0.950 . S
H694 C699 0.950 . S
H695 C700 0.949 . S
H696 C702 0.950 . S
H697 C703 0.950 . S
H698 C704 0.949 . S
C699 H694 0.950 . S
C699 C701 1.327 . S
C699 C705 1.429 . S
C700 C692 1.574 . S
C700 H695 0.949 . S
C700 C706 1.368 . S
C701 C685 1.349 . S
C701 H693 0.950 . S
C701 C699 1.327 . S
C702 C690 1.349 . S
C702 H696 0.950 . S
C702 C703 1.327 . S
C703 H697 0.950 . S
C703 C702 1.327 . S
C703 C707 1.429 . S
C704 C687 1.574 . S
C704 H698 0.949 . S
C704 C708 1.368 . S
C705 C686 1.429 . S
C705 C699 1.429 . S
C705 C706 1.523 . S
C706 C687 1.368 . S
C706 C700 1.368 . S
C706 C705 1.523 . S
C707 C691 1.429 . S
C707 C703 1.429 . S
C707 C708 1.523 . S
C708 C692 1.368 . S
C708 C704 1.368 . S
C708 C707 1.523 . S
H709 C684 0.950 . S
H710 C686 0.950 . S
H711 C687 0.949 . S
H712 C689 0.950 . S
H713 C691 0.950 . S
C714 C715 1.349 . S
C714 C716 1.327 . S
C714 H739 0.950 . S
C715 C714 1.349 . S
C715 C731 1.349 . S
C716 C714 1.327 . S
C716 C735 1.429 . S
C716 H740 0.950 . S
C717 C734 1.574 . S
C717 C736 1.368 . S
C717 H741 0.949 . S
H718 C722 0.949 . S
C719 C720 1.349 . S
C719 C721 1.327 . S
C719 H742 0.950 1_565 S
C720 C719 1.349 . S
C720 C732 1.349 . S
C721 C719 1.327 . S
C721 C737 1.429 . S
C721 H743 0.950 . S
C722 H718 0.949 . S
C722 C730 1.574 . S
C722 C738 1.368 . S
H723 C731 0.950 . S
H724 C729 0.950 . S
H725 C730 0.949 . S
H726 C732 0.950 . S
H727 C733 0.950 . S
H728 C734 0.949 . S
C729 H724 0.950 . S
C729 C731 1.327 . S
C729 C735 1.429 . S
C730 C722 1.574 . S
C730 H725 0.949 . S
C730 C736 1.368 . S
C731 C715 1.349 . S
C731 H723 0.950 . S
C731 C729 1.327 . S
C732 C720 1.349 . S
C732 H726 0.950 . S
C732 C733 1.327 . S
C733 H727 0.950 . S
C733 C732 1.327 . S
C733 C737 1.429 . S
C734 C717 1.574 . S
C734 H728 0.949 . S
C734 C738 1.368 . S
C735 C716 1.429 . S
C735 C729 1.429 . S
C735 C736 1.523 . S
C736 C717 1.368 . S
C736 C730 1.368 . S
C736 C735 1.523 . S
C737 C721 1.429 . S
C737 C733 1.429 . S
C737 C738 1.523 . S
C738 C722 1.368 . S
C738 C734 1.368 . S
C738 C737 1.523 . S
H739 C714 0.950 . S
H740 C716 0.950 . S
H741 C717 0.949 . S
H742 C719 0.950 1_545 S
H743 C721 0.950 . S
C744 C745 1.349 . S
C744 C746 1.327 . S
C744 H769 0.950 . S
C745 C744 1.349 . S
C745 C761 1.349 . S
C746 C744 1.327 . S
C746 C765 1.429 . S
C746 H770 0.950 . S
C747 C764 1.574 . S
C747 C766 1.368 . S
C747 H771 0.949 . S
H748 C752 0.949 . S
C749 C750 1.349 . S
C749 C751 1.327 . S
C749 H772 0.950 . S
C750 C749 1.349 . S
C750 C762 1.338 1_556 S
C751 C749 1.327 . S
C751 C767 1.429 . S
C751 H773 0.950 . S
C752 H748 0.949 . S
C752 C760 1.574 . S
C752 C768 1.368 . S
H753 C761 0.950 . S
H754 C759 0.950 . S
H755 C760 0.949 . S
H756 C762 0.967 . S
H757 C763 0.950 1_554 S
H758 C764 0.949 . S
C759 H754 0.950 . S
C759 C761 1.327 . S
C759 C765 1.429 . S
C760 C752 1.574 . S
C760 H755 0.949 . S
C760 C766 1.368 . S
C761 C745 1.349 . S
C761 H753 0.950 . S
C761 C759 1.327 . S
C762 C750 1.338 1_554 S
C762 H756 0.967 . S
C762 C763 1.322 1_554 S
C763 H757 0.950 1_556 S
C763 C762 1.322 1_556 S
C763 C767 1.429 . S
C764 C747 1.574 . S
C764 H758 0.949 . S
C764 C768 1.368 . S
C765 C746 1.429 . S
C765 C759 1.429 . S
C765 C766 1.523 . S
C766 C747 1.368 . S
C766 C760 1.368 . S
C766 C765 1.523 . S
C767 C751 1.429 . S
C767 C763 1.429 . S
C767 C768 1.523 . S
C768 C752 1.368 . S
C768 C764 1.368 . S
C768 C767 1.523 . S
H769 C744 0.950 . S
H770 C746 0.950 . S
H771 C747 0.949 . S
H772 C749 0.950 . S
H773 C751 0.950 . S
C774 C775 1.349 . S
C774 C776 1.327 . S
C774 H799 0.950 . S
C775 C774 1.349 . S
C775 C791 1.349 . S
C776 C774 1.327 . S
C776 C795 1.429 . S
C776 H800 0.950 . S
C777 C794 1.574 . S
C777 C796 1.368 . S
C777 H801 0.949 . S
H778 C782 0.949 . S
C779 C780 1.349 . S
C779 C781 1.327 . S
C779 H802 0.950 . S
C780 C779 1.349 . S
C780 C792 1.349 . S
C781 C779 1.327 . S
C781 C797 1.429 . S
C781 H803 0.950 . S
C782 H778 0.949 . S
C782 C790 1.574 . S
C782 C798 1.368 . S
H783 C791 0.950 . S
H784 C789 0.950 . S
H785 C790 0.949 . S
H786 C792 0.950 . S
H787 C793 0.950 . S
H788 C794 0.949 . S
C789 H784 0.950 . S
C789 C791 1.327 . S
C789 C795 1.429 . S
C790 C782 1.574 . S
C790 H785 0.949 . S
C790 C796 1.368 . S
C791 C775 1.349 . S
C791 H783 0.950 . S
C791 C789 1.327 . S
C792 C780 1.349 . S
C792 H786 0.950 . S
C792 C793 1.327 . S
C793 H787 0.950 . S
C793 C792 1.327 . S
C793 C797 1.429 . S
C794 C777 1.574 . S
C794 H788 0.949 . S
C794 C798 1.368 . S
C795 C776 1.429 . S
C795 C789 1.429 . S
C795 C796 1.523 . S
C796 C777 1.368 . S
C796 C790 1.368 . S
C796 C795 1.523 . S
C797 C781 1.429 . S
C797 C793 1.429 . S
C797 C798 1.523 . S
C798 C782 1.368 . S
C798 C794 1.368 . S
C798 C797 1.523 . S
H799 C774 0.950 . S
H800 C776 0.950 . S
H801 C777 0.949 . S
H802 C779 0.950 . S
H803 C781 0.950 . S
C804 C805 1.349 . S
C804 C806 1.327 . S
C804 H829 0.950 . S
C805 C804 1.349 . S
C805 C821 1.349 . S
C806 C804 1.327 . S
C806 C825 1.429 . S
C806 H830 0.950 . S
C807 C824 1.574 . S
C807 C826 1.368 . S
C807 H831 0.949 . S
H808 C812 0.949 . S
C809 C810 1.349 . S
C809 C811 1.327 . S
C809 H832 0.920 1_455 S
C810 C809 1.349 . S
C810 C822 1.349 . S
C811 C809 1.327 . S
C811 C827 1.429 . S
C811 H833 0.950 . S
C812 H808 0.949 . S
C812 C820 1.574 . S
C812 C828 1.368 . S
H813 C821 0.950 . S
H814 C819 0.950 . S
H815 C820 0.949 . S
H816 C822 0.950 . S
H817 C823 0.950 . S
H818 C824 0.949 . S
C819 H814 0.950 . S
C819 C821 1.327 . S
C819 C825 1.429 . S
C820 C812 1.574 . S
C820 H815 0.949 . S
C820 C826 1.368 . S
C821 C805 1.349 . S
C821 H813 0.950 . S
C821 C819 1.327 . S
C822 C810 1.349 . S
C822 H816 0.950 . S
C822 C823 1.327 . S
C823 H817 0.950 . S
C823 C822 1.327 . S
C823 C827 1.429 . S
C824 C807 1.574 . S
C824 H818 0.949 . S
C824 C828 1.368 . S
C825 C806 1.429 . S
C825 C819 1.429 . S
C825 C826 1.523 . S
C826 C807 1.368 . S
C826 C820 1.368 . S
C826 C825 1.523 . S
C827 C811 1.429 . S
C827 C823 1.429 . S
C827 C828 1.523 . S
C828 C812 1.368 . S
C828 C824 1.368 . S
C828 C827 1.523 . S
H829 C804 0.950 . S
H830 C806 0.950 . S
H831 C807 0.949 . S
H832 C809 0.920 1_655 S
H833 C811 0.950 . S
C834 C835 1.349 . S
C834 C836 1.327 . S
C834 H859 0.950 . S
C835 C834 1.349 . S
C835 C851 1.349 . S
C836 C834 1.327 . S
C836 C855 1.429 . S
C836 H860 0.950 . S
C837 C854 1.574 . S
C837 C856 1.368 . S
C837 H861 0.949 . S
H838 C842 0.949 . S
C839 C840 1.349 . S
C839 C841 1.327 . S
C839 H862 0.950 . S
C840 C839 1.349 . S
C840 C852 1.349 . S
C841 C839 1.327 . S
C841 C857 1.429 . S
C841 H863 0.950 . S
C842 H838 0.949 . S
C842 C850 1.574 . S
C842 C858 1.368 . S
H843 C851 0.950 . S
H844 C849 0.950 . S
H845 C850 0.949 . S
H846 C852 0.950 . S
H847 C853 0.950 . S
H848 C854 0.949 . S
C849 H844 0.950 . S
C849 C851 1.327 . S
C849 C855 1.429 . S
C850 C842 1.574 . S
C850 H845 0.949 . S
C850 C856 1.368 . S
C851 C835 1.349 . S
C851 H843 0.950 . S
C851 C849 1.327 . S
C852 C840 1.349 . S
C852 H846 0.950 . S
C852 C853 1.327 . S
C853 H847 0.950 . S
C853 C852 1.327 . S
C853 C857 1.429 . S
C854 C837 1.574 . S
C854 H848 0.949 . S
C854 C858 1.368 . S
C855 C836 1.429 . S
C855 C849 1.429 . S
C855 C856 1.523 . S
C856 C837 1.368 . S
C856 C850 1.368 . S
C856 C855 1.523 . S
C857 C841 1.429 . S
C857 C853 1.429 . S
C857 C858 1.523 . S
C858 C842 1.368 . S
C858 C854 1.368 . S
C858 C857 1.523 . S
H859 C834 0.950 . S
H860 C836 0.950 . S
H861 C837 0.949 . S
H862 C839 0.950 . S
H863 C841 0.950 . S
C864 C865 1.349 . S
C864 C866 1.327 . S
C864 H889 0.950 . S
C865 C864 1.349 . S
C865 C881 1.349 . S
C866 C864 1.327 . S
C866 C885 1.429 . S
C866 H890 0.950 . S
C867 C884 1.574 . S
C867 C886 1.368 . S
C867 H891 0.949 . S
H868 C872 0.949 . S
C869 C870 1.349 . S
C869 C871 1.327 . S
C869 H892 0.950 . S
C870 C869 1.349 . S
C870 C882 1.349 . S
C871 C869 1.327 . S
C871 C887 1.429 . S
C871 H893 0.950 . S
C872 H868 0.949 . S
C872 C880 1.574 . S
C872 C888 1.368 . S
H873 C881 0.950 . S
H874 C879 0.950 . S
H875 C880 0.949 . S
H876 C882 0.974 . S
H877 C883 0.950 . S
H878 C884 0.949 . S
C879 H874 0.950 . S
C879 C881 1.327 . S
C879 C885 1.429 . S
C880 C872 1.574 . S
C880 H875 0.949 . S
C880 C886 1.368 . S
C881 C865 1.349 . S
C881 H873 0.950 . S
C881 C879 1.327 . S
C882 C870 1.349 . S
C882 H876 0.974 . S
C882 C883 1.327 . S
C883 H877 0.950 . S
C883 C882 1.327 . S
C883 C887 1.429 . S
C884 C867 1.574 . S
C884 H878 0.949 . S
C884 C888 1.368 . S
C885 C866 1.429 . S
C885 C879 1.429 . S
C885 C886 1.523 . S
C886 C867 1.368 . S
C886 C880 1.368 . S
C886 C885 1.523 . S
C887 C871 1.429 . S
C887 C883 1.429 . S
C887 C888 1.523 . S
C888 C872 1.368 . S
C888 C884 1.368 . S
C888 C887 1.523 . S
H889 C864 0.950 . S
H890 C866 0.950 . S
H891 C867 0.949 . S
H892 C869 0.950 . S
H893 C871 0.950 . S
C894 C895 1.349 . S
C894 C896 1.327 . S
C894 H919 0.950 . S
C895 C894 1.349 . S
C895 C911 1.349 . S
C896 C894 1.327 . S
C896 C915 1.429 . S
C896 H920 0.950 . S
C897 C914 1.574 . S
C897 C916 1.368 . S
C897 H921 0.949 . S
H898 C902 0.949 . S
C899 C900 1.349 . S
C899 C901 1.327 . S
C899 H922 0.950 . S
C900 C899 1.349 . S
C900 C912 1.349 . S
C901 C899 1.327 . S
C901 C917 1.429 . S
C901 H923 0.950 . S
C902 H898 0.949 . S
C902 C910 1.574 . S
C902 C918 1.368 . S
H903 C911 0.950 . S
H904 C909 0.950 . S
H905 C910 0.949 . S
H906 C912 0.950 . S
H907 C913 0.950 . S
H908 C914 0.949 . S
C909 H904 0.950 . S
C909 C911 1.327 . S
C909 C915 1.429 . S
C910 C902 1.574 . S
C910 H905 0.949 . S
C910 C916 1.368 . S
C911 C895 1.349 . S
C911 H903 0.950 . S
C911 C909 1.327 . S
C912 C900 1.349 . S
C912 H906 0.950 . S
C912 C913 1.327 . S
C913 H907 0.950 . S
C913 C912 1.327 . S
C913 C917 1.429 . S
C914 C897 1.574 . S
C914 H908 0.949 . S
C914 C918 1.368 . S
C915 C896 1.429 . S
C915 C909 1.429 . S
C915 C916 1.523 . S
C916 C897 1.368 . S
C916 C910 1.368 . S
C916 C915 1.523 . S
C917 C901 1.429 . S
C917 C913 1.429 . S
C917 C918 1.523 . S
C918 C902 1.368 . S
C918 C914 1.368 . S
C918 C917 1.523 . S
H919 C894 0.950 . S
H920 C896 0.950 . S
H921 C897 0.949 . S
H922 C899 0.950 . S
H923 C901 0.950 . S
C924 C925 1.349 . S
C924 C926 1.327 . S
C924 H949 0.950 . S
C925 C924 1.349 . S
C925 C941 1.349 . S
C926 C924 1.327 . S
C926 C945 1.429 . S
C926 H950 0.950 . S
C927 C944 1.574 . S
C927 C946 1.368 . S
C927 H951 0.949 . S
H928 C932 0.949 . S
C929 C930 1.349 . S
C929 C931 1.327 . S
C929 H952 0.950 . S
C930 C929 1.349 . S
C930 C942 1.349 . S
C931 C929 1.327 . S
C931 C947 1.429 . S
C931 H953 0.950 . S
C932 H928 0.949 . S
C932 C940 1.574 . S
C932 C948 1.368 . S
H933 C941 0.950 . S
H934 C939 0.950 . S
H935 C940 0.949 . S
H936 C942 0.950 1_445 S
H937 C943 0.950 . S
H938 C944 0.949 . S
C939 H934 0.950 . S
C939 C941 1.327 . S
C939 C945 1.429 . S
C940 C932 1.574 . S
C940 H935 0.949 . S
C940 C946 1.368 . S
C941 C925 1.349 . S
C941 H933 0.950 . S
C941 C939 1.327 . S
C942 C930 1.349 . S
C942 H936 0.950 1_665 S
C942 C943 1.327 . S
C943 H937 0.950 . S
C943 C942 1.327 . S
C943 C947 1.429 . S
C944 C927 1.574 . S
C944 H938 0.949 . S
C944 C948 1.368 . S
C945 C926 1.429 . S
C945 C939 1.429 . S
C945 C946 1.523 . S
C946 C927 1.368 . S
C946 C940 1.368 . S
C946 C945 1.523 . S
C947 C931 1.429 . S
C947 C943 1.429 . S
C947 C948 1.523 . S
C948 C932 1.368 . S
C948 C944 1.368 . S
C948 C947 1.523 . S
H949 C924 0.950 . S
H950 C926 0.950 . S
H951 C927 0.949 . S
H952 C929 0.950 . S
H953 C931 0.950 . S
C954 C955 1.349 . S
C954 C956 1.327 . S
C954 H979 0.950 . S
C955 C954 1.349 . S
C955 C971 1.349 . S
C956 C954 1.327 . S
C956 C975 1.429 . S
C956 H980 0.950 . S
C957 C974 1.574 . S
C957 C976 1.368 . S
C957 H981 0.949 . S
H958 C962 0.949 . S
C959 C960 1.349 . S
C959 C961 1.327 . S
C959 H982 0.950 . S
C960 C959 1.349 . S
C960 C972 1.349 . S
C961 C959 1.327 . S
C961 C977 1.429 . S
C961 H983 0.950 . S
C962 H958 0.949 . S
C962 C970 1.574 . S
C962 C978 1.368 . S
H963 C971 0.950 . S
H964 C969 0.950 . S
H965 C970 0.949 . S
H966 C972 0.950 . S
H967 C973 0.950 . S
H968 C974 0.949 . S
C969 H964 0.950 . S
C969 C971 1.327 . S
C969 C975 1.429 . S
C970 C962 1.574 . S
C970 H965 0.949 . S
C970 C976 1.368 . S
C971 C955 1.349 . S
C971 H963 0.950 . S
C971 C969 1.327 . S
C972 C960 1.349 . S
C972 H966 0.950 . S
C972 C973 1.327 . S
C973 H967 0.950 . S
C973 C972 1.327 . S
C973 C977 1.429 . S
C974 C957 1.574 . S
C974 H968 0.949 . S
C974 C978 1.368 . S
C975 C956 1.429 . S
C975 C969 1.429 . S
C975 C976 1.523 . S
C976 C957 1.368 . S
C976 C970 1.368 . S
C976 C975 1.523 . S
C977 C961 1.429 . S
C977 C973 1.429 . S
C977 C978 1.523 . S
C978 C962 1.368 . S
C978 C974 1.368 . S
C978 C977 1.523 . S
H979 C954 0.950 . S
H980 C956 0.950 . S
H981 C957 0.949 . S
H982 C959 0.950 . S
H983 C961 0.950 . S
C984 C985 1.349 . S
C984 C986 1.327 . S
C984 H1009 0.950 . S
C985 C984 1.349 . S
C985 C1001 1.349 . S
C986 C984 1.327 . S
C986 C1005 1.429 . S
C986 H1010 0.950 . S
C987 C1004 1.574 . S
C987 C1006 1.368 . S
C987 H1011 0.949 . S
H988 C992 0.949 . S
C989 C990 1.349 . S
C989 C991 1.327 . S
C989 H1012 0.950 . S
C990 C989 1.349 . S
C990 C1002 1.349 . S
C991 C989 1.327 . S
C991 C1007 1.429 . S
C991 H1013 0.950 . S
C992 H988 0.949 . S
C992 C1000 1.574 . S
C992 C1008 1.368 . S
H993 C1001 0.950 . S
H994 C999 0.950 . S
H995 C1000 0.949 . S
H996 C1002 0.950 . S
H997 C1003 0.950 . S
H998 C1004 0.949 . S
C999 H994 0.950 . S
C999 C1001 1.327 . S
C999 C1005 1.429 . S
C1000 C992 1.574 . S
C1000 H995 0.949 . S
C1000 C1006 1.368 . S
C1001 C985 1.349 . S
C1001 H993 0.950 . S
C1001 C999 1.327 . S
C1002 C990 1.349 . S
C1002 H996 0.950 . S
C1002 C1003 1.327 . S
C1003 H997 0.950 . S
C1003 C1002 1.327 . S
C1003 C1007 1.429 . S
C1004 C987 1.574 . S
C1004 H998 0.949 . S
C1004 C1008 1.368 . S
C1005 C986 1.429 . S
C1005 C999 1.429 . S
C1005 C1006 1.523 . S
C1006 C987 1.368 . S
C1006 C1000 1.368 . S
C1006 C1005 1.523 . S
C1007 C991 1.429 . S
C1007 C1003 1.429 . S
C1007 C1008 1.523 . S
C1008 C992 1.368 . S
C1008 C1004 1.368 . S
C1008 C1007 1.523 . S
H1009 C984 0.950 . S
H1010 C986 0.950 . S
H1011 C987 0.949 . S
H1012 C989 0.950 . S
H1013 C991 0.950 . S
C1014 C1015 1.349 . S
C1014 C1016 1.327 . S
C1014 H1039 0.950 . S
C1015 C1014 1.349 . S
C1015 C1031 1.349 . S
C1016 C1014 1.327 . S
C1016 C1035 1.429 . S
C1016 H1040 0.950 . S
C1017 C1034 1.574 . S
C1017 C1036 1.368 . S
C1017 H1041 0.949 . S
H1018 C1022 0.949 . S
C1019 C1020 1.349 . S
C1019 C1021 1.327 . S
C1019 H1042 0.950 . S
C1020 C1019 1.349 . S
C1020 C1032 1.349 . S
C1021 C1019 1.327 . S
C1021 C1037 1.429 . S
C1021 H1043 0.950 . S
C1022 H1018 0.949 . S
C1022 C1030 1.574 . S
C1022 C1038 1.368 . S
H1023 C1031 0.950 . S
H1024 C1029 0.950 . S
H1025 C1030 0.949 . S
H1026 C1032 0.950 . S
H1027 C1033 0.950 . S
H1028 C1034 0.949 . S
C1029 H1024 0.950 . S
C1029 C1031 1.327 . S
C1029 C1035 1.429 . S
C1030 C1022 1.574 . S
C1030 H1025 0.949 . S
C1030 C1036 1.368 . S
C1031 C1015 1.349 . S
C1031 H1023 0.950 . S
C1031 C1029 1.327 . S
C1032 C1020 1.349 . S
C1032 H1026 0.950 . S
C1032 C1033 1.327 . S
C1033 H1027 0.950 . S
C1033 C1032 1.327 . S
C1033 C1037 1.429 . S
C1034 C1017 1.574 . S
C1034 H1028 0.949 . S
C1034 C1038 1.368 . S
C1035 C1016 1.429 . S
C1035 C1029 1.429 . S
C1035 C1036 1.523 . S
C1036 C1017 1.368 . S
C1036 C1030 1.368 . S
C1036 C1035 1.523 . S
C1037 C1021 1.429 . S
C1037 C1033 1.429 . S
C1037 C1038 1.523 . S
C1038 C1022 1.368 . S
C1038 C1034 1.368 . S
C1038 C1037 1.523 . S
H1039 C1014 0.950 . S
H1040 C1016 0.950 . S
H1041 C1017 0.949 . S
H1042 C1019 0.950 . S
H1043 C1021 0.950 . S
C1044 C1045 1.349 . S
C1044 C1046 1.327 . S
C1044 H1069 0.950 . S
C1045 C1044 1.349 . S
C1045 C1061 1.349 . S
C1046 C1044 1.327 . S
C1046 C1065 1.429 . S
C1046 H1070 0.950 . S
C1047 C1064 1.574 . S
C1047 C1066 1.368 . S
C1047 H1071 0.949 . S
H1048 C1052 0.949 . S
C1049 C1050 1.349 . S
C1049 C1051 1.327 . S
C1049 H1072 0.950 . S
C1050 C1049 1.349 . S
C1050 C1062 1.349 . S
C1051 C1049 1.327 . S
C1051 C1067 1.429 . S
C1051 H1073 0.950 . S
C1052 H1048 0.949 . S
C1052 C1060 1.574 . S
C1052 C1068 1.368 . S
H1053 C1061 0.950 . S
H1054 C1059 0.950 . S
H1055 C1060 0.949 . S
H1056 C1062 0.950 1_554 S
H1057 C1063 0.950 . S
H1058 C1064 0.949 . S
C1059 H1054 0.950 . S
C1059 C1061 1.327 . S
C1059 C1065 1.429 . S
C1060 C1052 1.574 . S
C1060 H1055 0.949 . S
C1060 C1066 1.368 . S
C1061 C1045 1.349 . S
C1061 H1053 0.950 . S
C1061 C1059 1.327 . S
C1062 C1050 1.349 . S
C1062 H1056 0.950 1_556 S
C1062 C1063 1.327 . S
C1063 H1057 0.950 . S
C1063 C1062 1.327 . S
C1063 C1067 1.429 . S
C1064 C1047 1.574 . S
C1064 H1058 0.949 . S
C1064 C1068 1.368 . S
C1065 C1046 1.429 . S
C1065 C1059 1.429 . S
C1065 C1066 1.523 . S
C1066 C1047 1.368 . S
C1066 C1060 1.368 . S
C1066 C1065 1.523 . S
C1067 C1051 1.429 . S
C1067 C1063 1.429 . S
C1067 C1068 1.523 . S
C1068 C1052 1.368 . S
C1068 C1064 1.368 . S
C1068 C1067 1.523 . S
H1069 C1044 0.950 . S
H1070 C1046 0.950 . S
H1071 C1047 0.949 . S
H1072 C1049 0.950 . S
H1073 C1051 0.950 . S
C1074 C1075 1.349 . S
C1074 C1076 1.327 . S
C1074 H1099 0.950 . S
C1075 C1074 1.349 . S
C1075 C1091 1.349 . S
C1076 C1074 1.327 . S
C1076 C1095 1.429 . S
C1076 H1100 0.950 . S
C1077 C1094 1.574 . S
C1077 C1096 1.368 . S
C1077 H1101 0.949 . S
H1078 C1082 0.949 . S
C1079 C1080 1.349 . S
C1079 C1081 1.327 . S
C1079 H1102 0.950 . S
C1080 C1079 1.349 . S
C1080 C1092 1.349 . S
C1081 C1079 1.327 . S
C1081 C1097 1.429 . S
C1081 H1103 0.950 . S
C1082 H1078 0.949 . S
C1082 C1090 1.574 . S
C1082 C1098 1.368 . S
H1083 C1091 0.950 . S
H1084 C1089 0.950 . S
H1085 C1090 0.949 . S
H1086 C1092 0.950 . S
H1087 C1093 0.950 . S
H1088 C1094 0.949 . S
C1089 H1084 0.950 . S
C1089 C1091 1.327 . S
C1089 C1095 1.429 . S
C1090 C1082 1.574 . S
C1090 H1085 0.949 . S
C1090 C1096 1.368 . S
C1091 C1075 1.349 . S
C1091 H1083 0.950 . S
C1091 C1089 1.327 . S
C1092 C1080 1.349 . S
C1092 H1086 0.950 . S
C1092 C1093 1.327 . S
C1093 H1087 0.950 . S
C1093 C1092 1.327 . S
C1093 C1097 1.429 . S
C1094 C1077 1.574 . S
C1094 H1088 0.949 . S
C1094 C1098 1.368 . S
C1095 C1076 1.429 . S
C1095 C1089 1.429 . S
C1095 C1096 1.523 . S
C1096 C1077 1.368 . S
C1096 C1090 1.368 . S
C1096 C1095 1.523 . S
C1097 C1081 1.429 . S
C1097 C1093 1.429 . S
C1097 C1098 1.523 . S
C1098 C1082 1.368 . S
C1098 C1094 1.368 . S
C1098 C1097 1.523 . S
H1099 C1074 0.950 . S
H1100 C1076 0.950 . S
H1101 C1077 0.949 . S
H1102 C1079 0.950 . S
H1103 C1081 0.950 . S
C1104 C1105 1.349 . S
C1104 C1106 1.327 . S
C1104 H1129 0.950 . S
C1105 C1104 1.349 . S
C1105 C1121 1.349 . S
C1106 C1104 1.327 . S
C1106 C1125 1.429 . S
C1106 H1130 0.950 . S
C1107 C1124 1.574 . S
C1107 C1126 1.368 . S
C1107 H1131 0.949 . S
H1108 C1112 0.949 . S
C1109 C1110 1.349 . S
C1109 C1111 1.327 . S
C1109 H1132 0.950 . S
C1110 C1109 1.349 . S
C1110 C1122 1.349 . S
C1111 C1109 1.327 . S
C1111 C1127 1.429 . S
C1111 H1133 0.950 . S
C1112 H1108 0.949 . S
C1112 C1120 1.574 . S
C1112 C1128 1.368 . S
H1113 C1121 0.950 . S
H1114 C1119 0.950 . S
H1115 C1120 0.949 . S
H1116 C1122 0.950 . S
H1117 C1123 0.950 . S
H1118 C1124 0.949 . S
C1119 H1114 0.950 . S
C1119 C1121 1.327 . S
C1119 C1125 1.429 . S
C1120 C1112 1.574 . S
C1120 H1115 0.949 . S
C1120 C1126 1.368 . S
C1121 C1105 1.349 . S
C1121 H1113 0.950 . S
C1121 C1119 1.327 . S
C1122 C1110 1.349 . S
C1122 H1116 0.950 . S
C1122 C1123 1.327 . S
C1123 H1117 0.950 . S
C1123 C1122 1.327 . S
C1123 C1127 1.429 . S
C1124 C1107 1.574 . S
C1124 H1118 0.949 . S
C1124 C1128 1.368 . S
C1125 C1106 1.429 . S
C1125 C1119 1.429 . S
C1125 C1126 1.523 . S
C1126 C1107 1.368 . S
C1126 C1120 1.368 . S
C1126 C1125 1.523 . S
C1127 C1111 1.429 . S
C1127 C1123 1.429 . S
C1127 C1128 1.523 . S
C1128 C1112 1.368 . S
C1128 C1124 1.368 . S
C1128 C1127 1.523 . S
H1129 C1104 0.950 . S
H1130 C1106 0.950 . S
H1131 C1107 0.949 . S
H1132 C1109 0.950 . S
H1133 C1111 0.950 . S
C1134 C1135 1.349 . S
C1134 C1136 1.327 . S
C1134 H1159 0.950 . S
C1135 C1134 1.349 . S
C1135 C1151 1.349 . S
C1136 C1134 1.327 . S
C1136 C1155 1.429 . S
C1136 H1160 0.950 . S
C1137 C1154 1.574 . S
C1137 C1156 1.368 . S
C1137 H1161 0.949 . S
H1138 C1142 0.949 . S
C1139 C1140 1.349 . S
C1139 C1141 1.327 . S
C1139 H1162 0.950 . S
C1140 C1139 1.349 . S
C1140 C1152 1.349 . S
C1141 C1139 1.327 . S
C1141 C1157 1.429 . S
C1141 H1163 0.950 . S
C1142 H1138 0.949 . S
C1142 C1150 1.574 . S
C1142 C1158 1.368 . S
H1143 C1151 0.950 . S
H1144 C1149 0.950 . S
H1145 C1150 0.949 . S
H1146 C1152 0.950 . S
H1147 C1153 0.950 . S
H1148 C1154 0.949 . S
C1149 H1144 0.950 . S
C1149 C1151 1.327 . S
C1149 C1155 1.429 . S
C1150 C1142 1.574 . S
C1150 H1145 0.949 . S
C1150 C1156 1.368 . S
C1151 C1135 1.349 . S
C1151 H1143 0.950 . S
C1151 C1149 1.327 . S
C1152 C1140 1.349 . S
C1152 H1146 0.950 . S
C1152 C1153 1.327 . S
C1153 H1147 0.950 . S
C1153 C1152 1.327 . S
C1153 C1157 1.429 . S
C1154 C1137 1.574 . S
C1154 H1148 0.949 . S
C1154 C1158 1.368 . S
C1155 C1136 1.429 . S
C1155 C1149 1.429 . S
C1155 C1156 1.523 . S
C1156 C1137 1.368 . S
C1156 C1150 1.368 . S
C1156 C1155 1.523 . S
C1157 C1141 1.429 . S
C1157 C1153 1.429 . S
C1157 C1158 1.523 . S
C1158 C1142 1.368 . S
C1158 C1154 1.368 . S
C1158 C1157 1.523 . S
H1159 C1134 0.950 . S
H1160 C1136 0.950 . S
H1161 C1137 0.949 . S
H1162 C1139 0.950 . S
H1163 C1141 0.950 . S
C1164 C1165 1.349 . S
C1164 C1166 1.327 . S
C1164 H1189 0.950 . S
C1165 C1164 1.349 . S
C1165 C1181 1.349 . S
C1166 C1164 1.327 . S
C1166 C1185 1.429 . S
C1166 H1190 0.950 . S
C1167 C1184 1.574 . S
C1167 C1186 1.368 . S
C1167 H1191 0.949 . S
H1168 C1172 0.949 . S
C1169 C1170 1.349 . S
C1169 C1171 1.327 . S
C1169 H1192 0.950 1_556 S
C1170 C1169 1.349 . S
C1170 C1182 1.349 . S
C1171 C1169 1.327 . S
C1171 C1187 1.429 . S
C1171 H1193 0.950 1_556 S
C1172 H1168 0.949 . S
C1172 C1180 1.574 . S
C1172 C1188 1.368 . S
H1173 C1181 0.950 . S
H1174 C1179 0.950 . S
H1175 C1180 0.949 . S
H1176 C1182 0.950 . S
H1177 C1183 0.950 . S
H1178 C1184 0.949 . S
C1179 H1174 0.950 . S
C1179 C1181 1.327 . S
C1179 C1185 1.429 . S
C1180 C1172 1.574 . S
C1180 H1175 0.949 . S
C1180 C1186 1.368 . S
C1181 C1165 1.349 . S
C1181 H1173 0.950 . S
C1181 C1179 1.327 . S
C1182 C1170 1.349 . S
C1182 H1176 0.950 . S
C1182 C1183 1.327 . S
C1183 H1177 0.950 . S
C1183 C1182 1.327 . S
C1183 C1187 1.429 . S
C1184 C1167 1.574 . S
C1184 H1178 0.949 . S
C1184 C1188 1.368 . S
C1185 C1166 1.429 . S
C1185 C1179 1.429 . S
C1185 C1186 1.523 . S
C1186 C1167 1.368 . S
C1186 C1180 1.368 . S
C1186 C1185 1.523 . S
C1187 C1171 1.429 . S
C1187 C1183 1.429 . S
C1187 C1188 1.523 . S
C1188 C1172 1.368 . S
C1188 C1184 1.368 . S
C1188 C1187 1.523 . S
H1189 C1164 0.950 . S
H1190 C1166 0.950 . S
H1191 C1167 0.949 . S
H1192 C1169 0.950 1_554 S
H1193 C1171 0.950 1_554 S
C1194 C1195 1.349 . S
C1194 C1196 1.327 . S
C1194 H1219 0.950 . S
C1195 C1194 1.349 . S
C1195 C1211 1.349 . S
C1196 C1194 1.327 . S
C1196 C1215 1.429 . S
C1196 H1220 0.950 . S
C1197 C1214 1.574 . S
C1197 C1216 1.368 . S
C1197 H1221 0.949 . S
H1198 C1202 0.949 . S
C1199 C1200 1.349 . S
C1199 C1201 1.327 . S
C1199 H1222 0.950 . S
C1200 C1199 1.349 . S
C1200 C1212 1.349 . S
C1201 C1199 1.327 . S
C1201 C1217 1.429 . S
C1201 H1223 0.950 . S
C1202 H1198 0.949 . S
C1202 C1210 1.574 . S
C1202 C1218 1.368 . S
H1203 C1211 0.950 . S
H1204 C1209 0.950 . S
H1205 C1210 0.949 . S
H1206 C1212 0.950 . S
H1207 C1213 0.950 . S
H1208 C1214 0.949 . S
C1209 H1204 0.950 . S
C1209 C1211 1.327 . S
C1209 C1215 1.429 . S
C1210 C1202 1.574 . S
C1210 H1205 0.949 . S
C1210 C1216 1.368 . S
C1211 C1195 1.349 . S
C1211 H1203 0.950 . S
C1211 C1209 1.327 . S
C1212 C1200 1.349 . S
C1212 H1206 0.950 . S
C1212 C1213 1.327 . S
C1213 H1207 0.950 . S
C1213 C1212 1.327 . S
C1213 C1217 1.429 . S
C1214 C1197 1.574 . S
C1214 H1208 0.949 . S
C1214 C1218 1.368 . S
C1215 C1196 1.429 . S
C1215 C1209 1.429 . S
C1215 C1216 1.523 . S
C1216 C1197 1.368 . S
C1216 C1210 1.368 . S
C1216 C1215 1.523 . S
C1217 C1201 1.429 . S
C1217 C1213 1.429 . S
C1217 C1218 1.523 . S
C1218 C1202 1.368 . S
C1218 C1214 1.368 . S
C1218 C1217 1.523 . S
H1219 C1194 0.950 . S
H1220 C1196 0.950 . S
H1221 C1197 0.949 . S
H1222 C1199 0.950 . S
H1223 C1201 0.950 . S
C1224 C1225 1.349 . S
C1224 C1226 1.327 . S
C1224 H1249 0.950 . S
C1225 C1224 1.349 . S
C1225 C1241 1.349 . S
C1226 C1224 1.327 . S
C1226 C1245 1.429 . S
C1226 H1250 0.950 . S
C1227 C1244 1.574 . S
C1227 C1246 1.368 . S
C1227 H1251 0.949 . S
H1228 C1232 0.949 . S
C1229 C1230 1.349 . S
C1229 C1231 1.327 . S
C1229 H1252 0.950 1_455 S
C1230 C1229 1.349 . S
C1230 C1242 1.349 . S
C1231 C1229 1.327 . S
C1231 C1247 1.429 . S
C1231 H1253 0.950 . S
C1232 H1228 0.949 . S
C1232 C1240 1.574 . S
C1232 C1248 1.368 . S
H1233 C1241 0.950 . S
H1234 C1239 0.950 . S
H1235 C1240 0.949 . S
H1236 C1242 0.950 . S
H1237 C1243 0.950 . S
H1238 C1244 0.949 . S
C1239 H1234 0.950 . S
C1239 C1241 1.327 . S
C1239 C1245 1.429 . S
C1240 C1232 1.574 . S
C1240 H1235 0.949 . S
C1240 C1246 1.368 . S
C1241 C1225 1.349 . S
C1241 H1233 0.950 . S
C1241 C1239 1.327 . S
C1242 C1230 1.349 . S
C1242 H1236 0.950 . S
C1242 C1243 1.327 . S
C1243 H1237 0.950 . S
C1243 C1242 1.327 . S
C1243 C1247 1.429 . S
C1244 C1227 1.574 . S
C1244 H1238 0.949 . S
C1244 C1248 1.368 . S
C1245 C1226 1.429 . S
C1245 C1239 1.429 . S
C1245 C1246 1.523 . S
C1246 C1227 1.368 . S
C1246 C1240 1.368 . S
C1246 C1245 1.523 . S
C1247 C1231 1.429 . S
C1247 C1243 1.429 . S
C1247 C1248 1.523 . S
C1248 C1232 1.368 . S
C1248 C1244 1.368 . S
C1248 C1247 1.523 . S
H1249 C1224 0.950 . S
H1250 C1226 0.950 . S
H1251 C1227 0.949 . S
H1252 C1229 0.950 1_655 S
H1253 C1231 0.950 . S
C1254 C1255 1.349 . S
C1254 C1256 1.327 . S
C1254 H1279 0.950 . S
C1255 C1254 1.349 . S
C1255 C1271 1.349 . S
C1256 C1254 1.327 . S
C1256 C1275 1.429 . S
C1256 H1280 0.950 . S
C1257 C1274 1.574 . S
C1257 C1276 1.368 . S
C1257 H1281 0.949 . S
H1258 C1262 0.949 . S
C1259 C1260 1.349 . S
C1259 C1261 1.327 . S
C1259 H1282 0.950 . S
C1260 C1259 1.349 . S
C1260 C1272 1.349 . S
C1261 C1259 1.327 . S
C1261 C1277 1.429 . S
C1261 H1283 0.950 . S
C1262 H1258 0.949 . S
C1262 C1270 1.574 . S
C1262 C1278 1.368 . S
H1263 C1271 0.950 . S
H1264 C1269 0.950 . S
H1265 C1270 0.949 . S
H1266 C1272 0.950 . S
H1267 C1273 0.950 . S
H1268 C1274 0.949 . S
C1269 H1264 0.950 . S
C1269 C1271 1.327 . S
C1269 C1275 1.429 . S
C1270 C1262 1.574 . S
C1270 H1265 0.949 . S
C1270 C1276 1.368 . S
C1271 C1255 1.349 . S
C1271 H1263 0.950 . S
C1271 C1269 1.327 . S
C1272 C1260 1.349 . S
C1272 H1266 0.950 . S
C1272 C1273 1.327 . S
C1273 H1267 0.950 . S
C1273 C1272 1.327 . S
C1273 C1277 1.429 . S
C1274 C1257 1.574 . S
C1274 H1268 0.949 . S
C1274 C1278 1.368 . S
C1275 C1256 1.429 . S
C1275 C1269 1.429 . S
C1275 C1276 1.523 . S
C1276 C1257 1.368 . S
C1276 C1270 1.368 . S
C1276 C1275 1.523 . S
C1277 C1261 1.429 . S
C1277 C1273 1.429 . S
C1277 C1278 1.523 . S
C1278 C1262 1.368 . S
C1278 C1274 1.368 . S
C1278 C1277 1.523 . S
H1279 C1254 0.950 . S
H1280 C1256 0.950 . S
H1281 C1257 0.949 . S
H1282 C1259 0.950 . S
H1283 C1261 0.950 . S
C565 C1 1.620 . S
C570 C496 1.592 . S
C595 C80 1.448 . S
C600 C518 1.432 . S
C630 C537 1.188 . S
C625 C140 1.378 . S
C655 C211 1.792 . S
C660 C558 1.536 . S
C690 C515 1.812 . S
C685 C31 1.847 . S
C720 C493 1.696 . S
C715 C61 1.690 . S
C750 C560 1.253 . S
C745 C151 1.273 . S
C780 C539 1.418 . S
C775 C200 1.429 . S
C805 C20 1.791 . S
C810 C557 1.744 . S
C840 C516 1.327 . S
C835 C121 1.570 . S
C865 C181 1.638 . S
C870 C498 1.508 . S
C895 C91 1.478 . S
C900 C536 1.487 . S
C930 C494 1.592 . S
C925 C260 1.649 . S
C955 C320 1.251 . S
C960 C514 1.246 . S
C985 C361 1.483 . S
C990 C540 1.267 . S
C1015 C451 1.693 . S
C1020 C561 1.436 . S
C1045 C271 1.795 . S
C1050 C517 1.764 . S
C1080 C497 1.766 . S
C1075 C301 1.776 . S
C1110 C556 1.144 . S
C1105 C380 1.177 . S
C1140 C535 1.521 . S
C1135 C440 1.534 . S
C1165 C241 1.561 . S
C1170 C559 1.535 . S
C1200 C519 1.255 . S
C1195 C391 1.492 . S
C1230 C495 1.303 . S
C1225 C421 1.421 . S
C1255 C331 1.413 . S
C1260 C538 1.409 . S
