# Generated by pormake.
# Topology ssb, (4,4)-cn, num edge types: 1
# Building blocks:
#     Node 0, Type 0, BuildingBlock: MIFKUJ_clean_linker_1, # of connection points: 4
#     Node 1, Type 0, BuildingBlock: MIFKUJ_clean_linker_1, # of connection points: 4
#     Node 2, Type 0, BuildingBlock: MIFKUJ_clean_linker_1, # of connection points: 4
#     Node 3, Type 0, BuildingBlock: MIFKUJ_clean_linker_1, # of connection points: 4
#     Node 4, Type 0, BuildingBlock: MIFKUJ_clean_linker_1, # of connection points: 4
#     Node 5, Type 0, BuildingBlock: MIFKUJ_clean_linker_1, # of connection points: 4
#     Node 6, Type 0, BuildingBlock: MIFKUJ_clean_linker_1, # of connection points: 4
#     Node 7, Type 0, BuildingBlock: MIFKUJ_clean_linker_1, # of connection points: 4
#     Node 8, Type 1, BuildingBlock: NAWXER_clean_sbu_0, # of connection points: 4
#     Node 9, Type 1, BuildingBlock: NAWXER_clean_sbu_0, # of connection points: 4
#     Node 10, Type 1, BuildingBlock: NAWXER_clean_sbu_0, # of connection points: 4
#     Node 11, Type 1, BuildingBlock: NAWXER_clean_sbu_0, # of connection points: 4
#     Node 12, Type 1, BuildingBlock: NAWXER_clean_sbu_0, # of connection points: 4
#     Node 13, Type 1, BuildingBlock: NAWXER_clean_sbu_0, # of connection points: 4
#     Node 14, Type 1, BuildingBlock: NAWXER_clean_sbu_0, # of connection points: 4
#     Node 15, Type 1, BuildingBlock: NAWXER_clean_sbu_0, # of connection points: 4
#     Edge 16, Type (0, 1), BuildingBlock: EZIPEK_clean_linker_0, # of connection points: 2
#     Edge 17, Type (0, 1), BuildingBlock: EZIPEK_clean_linker_0, # of connection points: 2
#     Edge 18, Type (0, 1), BuildingBlock: EZIPEK_clean_linker_0, # of connection points: 2
#     Edge 19, Type (0, 1), BuildingBlock: EZIPEK_clean_linker_0, # of connection points: 2
#     Edge 20, Type (0, 1), BuildingBlock: EZIPEK_clean_linker_0, # of connection points: 2
#     Edge 21, Type (0, 1), BuildingBlock: EZIPEK_clean_linker_0, # of connection points: 2
#     Edge 22, Type (0, 1), BuildingBlock: EZIPEK_clean_linker_0, # of connection points: 2
#     Edge 23, Type (0, 1), BuildingBlock: EZIPEK_clean_linker_0, # of connection points: 2
#     Edge 24, Type (0, 1), BuildingBlock: EZIPEK_clean_linker_0, # of connection points: 2
#     Edge 25, Type (0, 1), BuildingBlock: EZIPEK_clean_linker_0, # of connection points: 2
#     Edge 26, Type (0, 1), BuildingBlock: EZIPEK_clean_linker_0, # of connection points: 2
#     Edge 27, Type (0, 1), BuildingBlock: EZIPEK_clean_linker_0, # of connection points: 2
#     Edge 28, Type (0, 1), BuildingBlock: EZIPEK_clean_linker_0, # of connection points: 2
#     Edge 29, Type (0, 1), BuildingBlock: EZIPEK_clean_linker_0, # of connection points: 2
#     Edge 30, Type (0, 1), BuildingBlock: EZIPEK_clean_linker_0, # of connection points: 2
#     Edge 31, Type (0, 1), BuildingBlock: EZIPEK_clean_linker_0, # of connection points: 2
#     Edge 32, Type (0, 1), BuildingBlock: EZIPEK_clean_linker_0, # of connection points: 2
#     Edge 33, Type (0, 1), BuildingBlock: EZIPEK_clean_linker_0, # of connection points: 2
#     Edge 34, Type (0, 1), BuildingBlock: EZIPEK_clean_linker_0, # of connection points: 2
#     Edge 35, Type (0, 1), BuildingBlock: EZIPEK_clean_linker_0, # of connection points: 2
#     Edge 36, Type (0, 1), BuildingBlock: EZIPEK_clean_linker_0, # of connection points: 2
#     Edge 37, Type (0, 1), BuildingBlock: EZIPEK_clean_linker_0, # of connection points: 2
#     Edge 38, Type (0, 1), BuildingBlock: EZIPEK_clean_linker_0, # of connection points: 2
#     Edge 39, Type (0, 1), BuildingBlock: EZIPEK_clean_linker_0, # of connection points: 2
#     Edge 40, Type (0, 1), BuildingBlock: EZIPEK_clean_linker_0, # of connection points: 2
#     Edge 41, Type (0, 1), BuildingBlock: EZIPEK_clean_linker_0, # of connection points: 2
#     Edge 42, Type (0, 1), BuildingBlock: EZIPEK_clean_linker_0, # of connection points: 2
#     Edge 43, Type (0, 1), BuildingBlock: EZIPEK_clean_linker_0, # of connection points: 2
#     Edge 44, Type (0, 1), BuildingBlock: EZIPEK_clean_linker_0, # of connection points: 2
#     Edge 45, Type (0, 1), BuildingBlock: EZIPEK_clean_linker_0, # of connection points: 2
#     Edge 46, Type (0, 1), BuildingBlock: EZIPEK_clean_linker_0, # of connection points: 2
#     Edge 47, Type (0, 1), BuildingBlock: EZIPEK_clean_linker_0, # of connection points: 2
# Relax obj value: 0.000
# Max RMSD: 0.000
# Mean RMSD: 0.000
data_MOF--net-ssb--node1-NAWXER_clean_sbu_0--node2-MIFKUJ_clean_linker_1--edge1-EZIPEK_clean_linker_0
_symmetry_space_group_name_H-M    P1
_symmetry_Int_Tables_number       1
_symmetry_cell_setting            triclinic
loop_
_symmetry_equiv_pos_as_xyz
'x, y, z'
_cell_length_a     41.839145
_cell_length_b     41.654657
_cell_length_c     36.389027
_cell_angle_alpha  90.189902
_cell_angle_beta   89.808138
_cell_angle_gamma 90.028836
loop_
_atom_site_label
_atom_site_type_symbol
_atom_site_fract_x
_atom_site_fract_y
_atom_site_fract_z
_atom_type_partial_charge
H0 H 0.31432 0.23307 0.20126 0.0
H1 H 0.35816 0.24277 0.15743 0.0
H2 H 0.37052 0.33814 0.20149 0.0
H3 H 0.32641 0.32872 0.24494 0.0
H4 H 0.31273 0.23312 0.27662 0.0
H5 H 0.26424 0.28764 0.17913 0.0
H6 H 0.25556 0.32886 0.13227 0.0
H7 H 0.23718 0.39885 0.21731 0.0
H8 H 0.24761 0.35824 0.2643 0.0
H9 H 0.22527 0.31847 0.35199 0.0
H10 H 0.17995 0.32091 0.39453 0.0
H11 H 0.16436 0.21936 0.37994 0.0
H12 H 0.20783 0.2173 0.33491 0.0
H13 H 0.22068 0.30773 0.28374 0.0
H14 H 0.2883 0.24656 0.37857 0.0
H15 H 0.29377 0.20022 0.41999 0.0
H16 H 0.26369 0.13694 0.3326 0.0
H17 H 0.2597 0.18298 0.29091 0.0
C18 C 0.31698 0.28019 0.22629 0.0
C19 C 0.32641 0.25607 0.20147 0.0
C20 C 0.35123 0.26166 0.17637 0.0
C21 C 0.36736 0.29126 0.17608 0.0
C22 C 0.35819 0.31527 0.20111 0.0
C23 C 0.3331 0.30984 0.22586 0.0
C24 C 0.29027 0.27465 0.25265 0.0
C25 C 0.29257 0.24944 0.27815 0.0
C26 C 0.26341 0.29525 0.25402 0.0
C27 C 0.25731 0.31992 0.22539 0.0
C28 C 0.25881 0.31193 0.18782 0.0
C29 C 0.25339 0.33527 0.16105 0.0
C30 C 0.24562 0.36679 0.1714 0.0
C31 C 0.24302 0.37458 0.20884 0.0
C32 C 0.24901 0.35141 0.23559 0.0
C33 C 0.22042 0.26762 0.34019 0.0
C34 C 0.21233 0.29657 0.35804 0.0
C35 C 0.18655 0.29802 0.38251 0.0
C36 C 0.16879 0.27035 0.39049 0.0
C37 C 0.17787 0.24099 0.37431 0.0
C38 C 0.20306 0.23974 0.34891 0.0
C39 C 0.24447 0.26806 0.30977 0.0
C40 C 0.24124 0.29189 0.28277 0.0
C41 C 0.26988 0.2457 0.3065 0.0
C42 C 0.27343 0.21814 0.33181 0.0
C43 C 0.28313 0.22267 0.36834 0.0
C44 C 0.28626 0.19629 0.39187 0.0
C45 C 0.27899 0.1651 0.37944 0.0
C46 C 0.26946 0.16071 0.34278 0.0
C47 C 0.26714 0.18693 0.31906 0.0
H48 H 0.69685 0.23049 0.22853 0.0
H49 H 0.64955 0.23337 0.18935 0.0
H50 H 0.70966 0.24956 0.09473 0.0
H51 H 0.7574 0.24548 0.13376 0.0
H52 H 0.74289 0.19015 0.23065 0.0
H53 H 0.73576 0.30361 0.20539 0.0
H54 H 0.73462 0.35231 0.16754 0.0
H55 H 0.82933 0.33117 0.12733 0.0
H56 H 0.8303 0.28196 0.16438 0.0
H57 H 0.87502 0.22284 0.24994 0.0
H58 H 0.91547 0.21841 0.29872 0.0
H59 H 0.84153 0.22763 0.38093 0.0
H60 H 0.80122 0.23192 0.3324 0.0
H61 H 0.82755 0.27345 0.23654 0.0
H62 H 0.83349 0.15987 0.26282 0.0
H63 H 0.83782 0.11786 0.30981 0.0
H64 H 0.74549 0.14473 0.35291 0.0
H65 H 0.74124 0.18705 0.30629 0.0
C66 C 0.7308 0.238 0.18424 0.0
C67 C 0.70002 0.23438 0.19932 0.0
C68 C 0.67301 0.23602 0.17702 0.0
C69 C 0.67615 0.24151 0.13919 0.0
C70 C 0.70681 0.24514 0.12388 0.0
C71 C 0.73397 0.24313 0.1462 0.0
C72 C 0.75922 0.23539 0.20859 0.0
C73 C 0.76123 0.20854 0.23183 0.0
C74 C 0.78378 0.25898 0.2098 0.0
C75 C 0.78289 0.28872 0.18724 0.0
C76 C 0.75618 0.3092 0.1882 0.0
C77 C 0.75563 0.33712 0.16694 0.0
C78 C 0.78195 0.34527 0.14485 0.0
C79 C 0.8089 0.32528 0.14438 0.0
C80 C 0.80937 0.29724 0.16544 0.0
C81 C 0.8352 0.22779 0.2876 0.0
C82 C 0.8676 0.22404 0.27845 0.0
C83 C 0.89054 0.22118 0.30618 0.0
C84 C 0.88137 0.22245 0.34336 0.0
C85 C 0.849 0.22632 0.35243 0.0
C86 C 0.82611 0.22899 0.32479 0.0
C87 C 0.81042 0.22878 0.25856 0.0
C88 C 0.80927 0.25505 0.23457 0.0
C89 C 0.78649 0.20495 0.25662 0.0
C90 C 0.78713 0.17669 0.28127 0.0
C91 C 0.81401 0.15647 0.28209 0.0
C92 C 0.8165 0.13257 0.30877 0.0
C93 C 0.79201 0.12844 0.3347 0.0
C94 C 0.76456 0.14768 0.33299 0.0
C95 C 0.76208 0.17161 0.30634 0.0
H96 H 0.70918 0.77804 0.19495 0.0
H97 H 0.66947 0.77823 0.14516 0.0
H98 H 0.61936 0.70005 0.19712 0.0
H99 H 0.65896 0.69977 0.24686 0.0
H100 H 0.70249 0.78543 0.27281 0.0
H101 H 0.74293 0.7075 0.18544 0.0
H102 H 0.73516 0.66226 0.1431 0.0
H103 H 0.70223 0.6036 0.23307 0.0
H104 H 0.71031 0.64898 0.2757 0.0
H105 H 0.77119 0.69042 0.36168 0.0
H106 H 0.81887 0.68608 0.40071 0.0
H107 H 0.85646 0.77299 0.35331 0.0
H108 H 0.80913 0.77728 0.31401 0.0
H109 H 0.76824 0.68741 0.28941 0.0
H110 H 0.72776 0.76487 0.37786 0.0
H111 H 0.72799 0.81189 0.41886 0.0
H112 H 0.75837 0.87159 0.32861 0.0
H113 H 0.75697 0.82477 0.28732 0.0
C114 C 0.687 0.73891 0.22459 0.0
C115 C 0.68953 0.7611 0.19575 0.0
C116 C 0.66713 0.76103 0.16727 0.0
C117 C 0.64172 0.739 0.16748 0.0
C118 C 0.63894 0.71707 0.19647 0.0
C119 C 0.66142 0.71701 0.22481 0.0
C120 C 0.71199 0.73746 0.25343 0.0
C121 C 0.7171 0.76416 0.27631 0.0
C122 C 0.7304 0.70943 0.25863 0.0
C123 C 0.72721 0.6815 0.23364 0.0
C124 C 0.73419 0.68487 0.1961 0.0
C125 C 0.72971 0.65916 0.17201 0.0
C126 C 0.71821 0.62967 0.18506 0.0
C127 C 0.71125 0.62619 0.22262 0.0
C128 C 0.716 0.65191 0.24685 0.0
C129 C 0.78629 0.73442 0.33521 0.0
C130 C 0.78954 0.70871 0.35988 0.0
C131 C 0.81669 0.70616 0.38206 0.0
C132 C 0.84111 0.72917 0.37971 0.0
C133 C 0.83781 0.75505 0.35545 0.0
C134 C 0.81065 0.75764 0.33335 0.0
C135 C 0.759 0.73549 0.30912 0.0
C136 C 0.75349 0.70865 0.28646 0.0
C137 C 0.7401 0.76339 0.3044 0.0
C138 C 0.74247 0.79135 0.32961 0.0
C139 C 0.73462 0.78805 0.36696 0.0
C140 C 0.73466 0.81483 0.39028 0.0
C141 C 0.74317 0.84525 0.37678 0.0
C142 C 0.75165 0.84839 0.33956 0.0
C143 C 0.75091 0.82173 0.31607 0.0
H144 H 0.19225 0.73642 0.30501 0.0
H145 H 0.14754 0.7396 0.34896 0.0
H146 H 0.11945 0.83056 0.30312 0.0
H147 H 0.16325 0.82695 0.25833 0.0
H148 H 0.20004 0.73456 0.23211 0.0
H149 H 0.23896 0.80252 0.32775 0.0
H150 H 0.23396 0.8448 0.3745 0.0
H151 H 0.21203 0.91363 0.28995 0.0
H152 H 0.2181 0.87136 0.2429 0.0
H153 H 0.27932 0.83047 0.15851 0.0
H154 H 0.32635 0.83345 0.11814 0.0
H155 H 0.35552 0.73933 0.15388 0.0
H156 H 0.31064 0.73765 0.19679 0.0
H157 H 0.27314 0.82843 0.22884 0.0
H158 H 0.24109 0.74937 0.13175 0.0
H159 H 0.25209 0.70109 0.09457 0.0
H160 H 0.2684 0.64697 0.19358 0.0
H161 H 0.25653 0.69487 0.23067 0.0
C162 C 0.1814 0.78165 0.27869 0.0
C163 C 0.17614 0.75675 0.30393 0.0
C164 C 0.15079 0.7586 0.32904 0.0
C165 C 0.13043 0.78539 0.32926 0.0
C166 C 0.13501 0.80978 0.30335 0.0
C167 C 0.16007 0.80775 0.278 0.0
C168 C 0.21009 0.7815 0.25444 0.0
C169 C 0.21607 0.75502 0.23138 0.0
C170 C 0.2314 0.80785 0.25402 0.0
C171 C 0.22904 0.83388 0.28188 0.0
C172 C 0.2333 0.82675 0.31923 0.0
C173 C 0.23034 0.85081 0.34587 0.0
C174 C 0.22269 0.88237 0.33571 0.0
C175 C 0.21809 0.88947 0.29834 0.0
C176 C 0.22168 0.86547 0.27156 0.0
C177 C 0.29077 0.78342 0.1801 0.0
C178 C 0.29594 0.81054 0.15789 0.0
C179 C 0.3226 0.81219 0.13466 0.0
C180 C 0.3441 0.78639 0.13254 0.0
C181 C 0.33898 0.75933 0.15471 0.0
C182 C 0.31306 0.7582 0.17888 0.0
C183 C 0.26257 0.78202 0.20514 0.0
C184 C 0.25683 0.80818 0.22884 0.0
C185 C 0.24217 0.7548 0.20688 0.0
C186 C 0.2478 0.72566 0.184 0.0
C187 C 0.24688 0.72707 0.14542 0.0
C188 C 0.25339 0.69964 0.12424 0.0
C189 C 0.26129 0.67047 0.14129 0.0
C190 C 0.26249 0.66922 0.17985 0.0
C191 C 0.25544 0.69644 0.20099 0.0
H192 H 0.18294 0.7339 0.72051 0.0
H193 H 0.13886 0.73501 0.6767 0.0
H194 H 0.20615 0.73815 0.58679 0.0
H195 H 0.25069 0.73545 0.63069 0.0
H196 H 0.22429 0.69348 0.73434 0.0
H197 H 0.22623 0.79846 0.69301 0.0
H198 H 0.2281 0.84515 0.65283 0.0
H199 H 0.3267 0.8249 0.627 0.0
H200 H 0.32414 0.7762 0.66481 0.0
H201 H 0.35581 0.70259 0.74862 0.0
H202 H 0.39894 0.69813 0.79412 0.0
H203 H 0.3372 0.7395 0.87676 0.0
H204 H 0.29377 0.74295 0.83152 0.0
H205 H 0.31857 0.76549 0.73175 0.0
H206 H 0.30488 0.65489 0.78161 0.0
H207 H 0.29253 0.61552 0.82993 0.0
H208 H 0.20502 0.6658 0.85481 0.0
H209 H 0.21743 0.70537 0.80706 0.0
C210 C 0.22028 0.73465 0.67903 0.0
C211 C 0.1884 0.73439 0.69139 0.0
C212 C 0.1632 0.73508 0.66644 0.0
C213 C 0.16926 0.73644 0.62856 0.0
C214 C 0.20104 0.73687 0.61594 0.0
C215 C 0.22638 0.73564 0.64099 0.0
C216 C 0.24678 0.73301 0.70623 0.0
C217 C 0.24471 0.70955 0.73375 0.0
C218 C 0.2734 0.75424 0.70588 0.0
C219 C 0.27475 0.78294 0.68132 0.0
C220 C 0.24802 0.80321 0.67785 0.0
C221 C 0.24916 0.83019 0.65519 0.0
C222 C 0.27747 0.83846 0.63666 0.0
C223 C 0.30451 0.81882 0.64073 0.0
C224 C 0.30307 0.79114 0.66254 0.0
C225 C 0.32168 0.72318 0.78672 0.0
C226 C 0.35156 0.71058 0.77657 0.0
C227 C 0.37607 0.70795 0.8025 0.0
C228 C 0.37135 0.71862 0.8388 0.0
C229 C 0.34137 0.73114 0.84893 0.0
C230 C 0.31667 0.73319 0.82317 0.0
C231 C 0.29578 0.72589 0.75913 0.0
C232 C 0.29809 0.74953 0.73168 0.0
C233 C 0.2682 0.70638 0.76081 0.0
C234 C 0.26224 0.68325 0.79098 0.0
C235 C 0.28328 0.6577 0.79777 0.0
C236 C 0.27612 0.63513 0.82501 0.0
C237 C 0.24781 0.63781 0.84563 0.0
C238 C 0.22688 0.66336 0.839 0.0
C239 C 0.23403 0.68588 0.81188 0.0
H240 H 0.33426 0.22686 0.79396 0.0
H241 H 0.37903 0.22535 0.8373 0.0
H242 H 0.31447 0.24617 0.92683 0.0
H243 H 0.26945 0.24713 0.88367 0.0
H244 H 0.28165 0.194 0.78503 0.0
H245 H 0.30775 0.30237 0.80726 0.0
H246 H 0.32132 0.35002 0.84401 0.0
H247 H 0.22763 0.34809 0.89351 0.0
H248 H 0.21395 0.30028 0.85688 0.0
H249 H 0.15633 0.23921 0.77703 0.0
H250 H 0.11138 0.23404 0.73395 0.0
H251 H 0.17678 0.24211 0.64257 0.0
H252 H 0.2217 0.24691 0.68558 0.0
H253 H 0.21002 0.28899 0.78334 0.0
H254 H 0.18888 0.1755 0.75113 0.0
H255 H 0.1819 0.13348 0.70416 0.0
H256 H 0.2767 0.15253 0.66288 0.0
H257 H 0.28348 0.19505 0.70908 0.0
C258 C 0.29858 0.23754 0.8355 0.0
C259 C 0.3296 0.23056 0.82297 0.0
C260 C 0.35508 0.2296 0.84761 0.0
C261 C 0.34988 0.23544 0.88515 0.0
C262 C 0.31879 0.24133 0.89797 0.0
C263 C 0.29326 0.24222 0.87332 0.0
C264 C 0.27189 0.24042 0.80895 0.0
C265 C 0.26617 0.21487 0.78457 0.0
C266 C 0.25204 0.26799 0.80788 0.0
C267 C 0.25987 0.29748 0.82949 0.0
C268 C 0.29012 0.31205 0.82612 0.0
C269 C 0.29789 0.33925 0.847 0.0
C270 C 0.27556 0.3524 0.87163 0.0
C271 C 0.24523 0.33814 0.87479 0.0
C272 C 0.23739 0.31101 0.85377 0.0
C273 C 0.19224 0.24365 0.73445 0.0
C274 C 0.16089 0.24039 0.74774 0.0
C275 C 0.13538 0.23708 0.72325 0.0
C276 C 0.14085 0.23746 0.68513 0.0
C277 C 0.17212 0.24158 0.67187 0.0
C278 C 0.19763 0.24462 0.69634 0.0
C279 C 0.21959 0.24224 0.76016 0.0
C280 C 0.22547 0.26811 0.7842 0.0
C281 C 0.24051 0.21558 0.75993 0.0
C282 C 0.23662 0.18865 0.7334 0.0
C283 C 0.20809 0.17081 0.73184 0.0
C284 C 0.20407 0.14689 0.70514 0.0
C285 C 0.2287 0.14024 0.67999 0.0
C286 C 0.2574 0.15756 0.68197 0.0
C287 C 0.26133 0.18158 0.70845 0.0
H288 H 0.68388 0.24632 0.80125 0.0
H289 H 0.64618 0.25171 0.85282 0.0
H290 H 0.6092 0.33891 0.80571 0.0
H291 H 0.64762 0.33406 0.75459 0.0
H292 H 0.67793 0.24507 0.72175 0.0
H293 H 0.72366 0.30334 0.81937 0.0
H294 H 0.72203 0.34359 0.86835 0.0
H295 H 0.71651 0.41883 0.78747 0.0
H296 H 0.71643 0.37815 0.73806 0.0
H297 H 0.7696 0.33317 0.65147 0.0
H298 H 0.82023 0.33352 0.61736 0.0
H299 H 0.83713 0.23534 0.64899 0.0
H300 H 0.78774 0.23558 0.68525 0.0
H301 H 0.76156 0.32949 0.72044 0.0
H302 H 0.72968 0.25759 0.62032 0.0
H303 H 0.73403 0.20883 0.5823 0.0
H304 H 0.71878 0.15044 0.67839 0.0
H305 H 0.71603 0.19872 0.71661 0.0
C306 C 0.66839 0.28967 0.77401 0.0
C307 C 0.66735 0.26633 0.80171 0.0
C308 C 0.6462 0.26963 0.83131 0.0
C309 C 0.62528 0.29595 0.83326 0.0
C310 C 0.6254 0.31865 0.80484 0.0
C311 C 0.64702 0.31569 0.77558 0.0
C312 C 0.69446 0.28893 0.74622 0.0
C313 C 0.69633 0.26342 0.72112 0.0
C314 C 0.71834 0.31285 0.74591 0.0
C315 C 0.71956 0.33774 0.7751 0.0
C316 C 0.72155 0.32844 0.81208 0.0
C317 C 0.72066 0.35135 0.84 0.0
C318 C 0.71873 0.38408 0.83147 0.0
C319 C 0.71755 0.39361 0.7945 0.0
C320 C 0.71785 0.37052 0.76643 0.0
C321 C 0.77435 0.28418 0.67065 0.0
C322 C 0.78407 0.31161 0.65103 0.0
C323 C 0.8129 0.31183 0.63142 0.0
C324 C 0.83238 0.28442 0.63042 0.0
C325 C 0.82236 0.2567 0.64917 0.0
C326 C 0.79393 0.25675 0.66957 0.0
C327 C 0.74539 0.28553 0.69476 0.0
C328 C 0.74296 0.31134 0.71975 0.0
C329 C 0.72166 0.26099 0.69558 0.0
C330 C 0.72293 0.23196 0.67153 0.0
C331 C 0.7275 0.23433 0.63329 0.0
C332 C 0.72968 0.20656 0.61153 0.0
C333 C 0.72661 0.17606 0.62756 0.0
C334 C 0.72109 0.17374 0.66549 0.0
C335 C 0.71945 0.20135 0.68725 0.0
H336 H 0.81459 0.73324 0.70284 0.0
H337 H 0.85482 0.73662 0.65351 0.0
H338 H 0.89342 0.82243 0.70289 0.0
H339 H 0.85341 0.81903 0.75234 0.0
H340 H 0.81763 0.7307 0.78131 0.0
H341 H 0.77548 0.7988 0.68554 0.0
H342 H 0.78089 0.8426 0.64103 0.0
H343 H 0.80039 0.90896 0.72941 0.0
H344 H 0.79481 0.86503 0.77414 0.0
H345 H 0.7355 0.82118 0.85826 0.0
H346 H 0.68565 0.82429 0.89386 0.0
H347 H 0.65508 0.73404 0.84751 0.0
H348 H 0.70492 0.7309 0.81156 0.0
H349 H 0.7407 0.82121 0.78544 0.0
H350 H 0.76438 0.74869 0.88275 0.0
H351 H 0.76099 0.70196 0.92328 0.0
H352 H 0.78051 0.63945 0.83126 0.0
H353 H 0.78122 0.6857 0.7901 0.0
C354 C 0.83105 0.77586 0.7312 0.0
C355 C 0.83204 0.75246 0.70338 0.0
C356 C 0.85468 0.75455 0.67514 0.0
C357 C 0.87672 0.77995 0.67455 0.0
C358 C 0.8764 0.80282 0.70289 0.0
C359 C 0.85374 0.80077 0.73107 0.0
C360 C 0.80441 0.77609 0.75819 0.0
C361 C 0.80041 0.75013 0.78225 0.0
C362 C 0.78273 0.80198 0.75964 0.0
C363 C 0.78473 0.82876 0.73307 0.0
C364 C 0.78087 0.82277 0.69535 0.0
C365 C 0.78405 0.84765 0.67002 0.0
C366 C 0.79107 0.8789 0.68203 0.0
C367 C 0.79498 0.88495 0.71974 0.0
C368 C 0.79159 0.86004 0.74515 0.0
C369 C 0.72409 0.77565 0.83251 0.0
C370 C 0.71817 0.80196 0.85585 0.0
C371 C 0.68978 0.80381 0.87604 0.0
C372 C 0.66676 0.7795 0.87303 0.0
C373 C 0.67262 0.75305 0.84999 0.0
C374 C 0.7011 0.75114 0.8298 0.0
C375 C 0.7531 0.77533 0.8089 0.0
C376 C 0.75769 0.80153 0.78519 0.0
C377 C 0.77497 0.7492 0.80779 0.0
C378 C 0.77249 0.72098 0.83297 0.0
C379 C 0.76705 0.72496 0.87093 0.0
C380 C 0.76556 0.6983 0.89425 0.0
C381 C 0.77061 0.66719 0.88035 0.0
C382 C 0.77655 0.6632 0.84262 0.0
C383 C 0.7771 0.68971 0.81916 0.0
C384 C 0.95564 0.27804 0.5565 0.0
C385 C 0.05283 0.27299 0.47904 0.0
O386 O 0.97189 0.30198 0.54526 0.0
Zn387 Zn 1.00492 0.27809 0.51856 0.0
O388 O 0.96523 0.2495 0.5494 0.0
Zn389 Zn 1.00419 0.22648 0.52165 0.0
O390 O 0.02727 0.20622 0.56233 0.0
O391 O 0.03379 0.25866 0.56095 0.0
O392 O 0.04281 0.24573 0.49033 0.0
O393 O 0.0378 0.29846 0.48805 0.0
O394 O 0.97664 0.25515 0.4779 0.0
O395 O 0.98201 0.2028 0.48252 0.0
C396 C 0.04042 0.23145 0.57523 0.0
C397 C 0.97019 0.22699 0.466 0.0
C398 C 0.74257 0.05646 0.54621 0.0
C399 C 0.74585 0.95855 0.47049 0.0
O400 O 0.77094 0.04732 0.53805 0.0
Zn401 Zn 0.79377 0.00786 0.51105 0.0
O402 O 0.71897 0.03932 0.53614 0.0
Zn403 Zn 0.74287 1.00643 0.5094 0.0
O404 O 0.76344 0.97887 0.55238 0.0
O405 O 0.81557 0.98613 0.55099 0.0
O406 O 0.72099 0.97312 0.48198 0.0
O407 O 0.77364 0.96908 0.47928 0.0
O408 O 0.81813 0.03042 0.47426 0.0
O409 O 0.76569 0.03325 0.46625 0.0
C410 C 0.79115 0.97322 0.56564 0.0
C411 C 0.79418 0.0405 0.4562 0.0
C412 C 0.96784 0.78313 0.55454 0.0
C413 C 0.03597 0.78681 0.44499 0.0
O414 O 0.97741 0.80815 0.53781 0.0
Zn415 Zn 1.00198 0.78648 0.49944 0.0
O416 O 0.97689 0.75541 0.54344 0.0
Zn417 Zn 0.0061 0.73535 0.50126 0.0
O418 O 0.04033 0.71648 0.53009 0.0
O419 O 0.04315 0.76918 0.52804 0.0
O420 O 0.03169 0.75834 0.45734 0.0
O421 O 0.02215 0.81058 0.46032 0.0
O422 O 0.96539 0.76082 0.4708 0.0
O423 O 0.9752 0.70881 0.47511 0.0
C424 C 0.0548 0.74235 0.53858 0.0
C425 C 0.95783 0.7317 0.46354 0.0
C426 C 0.22795 0.04261 0.56592 0.0
C427 C 0.22341 0.97219 0.45747 0.0
O428 O 0.25551 0.03491 0.5533 0.0
Zn429 Zn 0.27523 1.00438 0.51164 0.0
O430 O 0.20308 0.03044 0.55143 0.0
Zn431 Zn 0.2243 1.00601 0.51257 0.0
O432 O 0.24409 0.96627 0.54199 0.0
O433 O 0.29658 0.97061 0.53936 0.0
O434 O 0.19973 0.98437 0.47457 0.0
O435 O 0.2519 0.9779 0.46863 0.0
O436 O 0.29966 0.03587 0.48382 0.0
O437 O 0.24741 0.0432 0.48106 0.0
C438 C 0.27184 0.95569 0.55041 0.0
C439 C 0.27584 0.05196 0.47234 0.0
C440 C 0.45679 0.78025 0.03978 0.0
C441 C 0.54941 0.78106 0.95708 0.0
O442 O 0.47002 0.8047 0.02543 0.0
Zn443 Zn 0.50292 0.78213 0.99776 0.0
O444 O 0.46792 0.75219 0.03324 0.0
Zn445 Zn 0.5063 0.73109 1.00289 0.0
O446 O 0.53282 0.71332 0.04191 0.0
O447 O 0.53483 0.76616 0.03981 0.0
O448 O 0.54196 0.75301 0.96867 0.0
O449 O 0.53259 0.80525 0.96628 0.0
O450 O 0.47521 0.75541 0.95891 0.0
O451 O 0.48308 0.70368 0.9684 0.0
C452 C 0.54402 0.73971 0.05413 0.0
C453 C 0.4694 0.72606 0.95065 0.0
C454 C 0.27669 0.55448 0.05267 0.0
C455 C 0.28651 0.4634 0.96533 0.0
O456 O 0.30286 0.54155 0.04237 0.0
Zn457 Zn 0.28465 0.50825 0.00976 0.0
O458 O 0.25028 0.54258 0.04145 0.0
Zn459 Zn 0.233 0.50432 0.00847 0.0
O460 O 0.21275 0.47669 0.04524 0.0
O461 O 0.26531 0.47527 0.04775 0.0
O462 O 0.25783 0.47087 0.9742 0.0
O463 O 0.30993 0.47901 0.97888 0.0
O464 O 0.26131 0.53688 0.96969 0.0
O465 O 0.20901 0.52861 0.97218 0.0
C466 C 0.23818 0.46547 0.05941 0.0
C467 C 0.2331 0.54267 0.95798 0.0
C468 C 0.54195 0.29698 0.96136 0.0
C469 C 0.47121 0.29805 0.07059 0.0
O470 O 0.53 0.32183 0.97665 0.0
Zn471 Zn 0.50827 0.29992 0.01736 0.0
O472 O 0.53635 0.26928 0.97506 0.0
Zn473 Zn 0.509 0.24848 0.01846 0.0
O474 O 0.47771 0.22492 0.9891 0.0
O475 O 0.47033 0.27721 0.98841 0.0
O476 O 0.47912 0.26991 0.0596 0.0
O477 O 0.48353 0.32259 0.05525 0.0
O478 O 0.54788 0.2798 0.04635 0.0
O479 O 0.54181 0.22726 0.04743 0.0
C480 C 0.46152 0.2491 0.97854 0.0
C481 C 0.55785 0.25208 0.0563 0.0
C482 C 0.71661 0.53748 0.0675 0.0
C483 C 0.72349 0.46987 0.95742 0.0
O484 O 0.74532 0.53256 0.05633 0.0
Zn485 Zn 0.76949 0.50682 0.0133 0.0
O486 O 0.69326 0.52463 0.05061 0.0
Zn487 Zn 0.71856 0.50325 0.0133 0.0
O488 O 0.74157 0.46755 0.04539 0.0
O489 O 0.79358 0.4737 0.03931 0.0
O490 O 0.69841 0.47678 0.97567 0.0
O491 O 0.75044 0.48063 0.96836 0.0
O492 O 0.79095 0.54102 0.9871 0.0
O493 O 0.73828 0.54324 0.98295 0.0
C494 C 0.76999 0.45821 0.0525 0.0
C495 C 0.76593 0.55473 0.97495 0.0
C496 C 0.14028 0.28257 0.45059 0.0
C497 C 0.13907 0.27256 0.41322 0.0
C498 C 0.08222 0.26023 0.42028 0.0
C499 C 0.08231 0.274 0.45607 0.0
N500 N 0.11113 0.30125 0.50435 0.0
N501 N 0.10665 0.26054 0.36011 0.0
C502 C 0.11122 0.28643 0.47079 0.0
C503 C 0.10935 0.26404 0.39734 0.0
N504 N 0.16918 0.28666 0.46737 0.0
N505 N 0.05686 0.2424 0.4084 0.0
H506 H 0.12565 0.26441 0.34202 0.0
H507 H 0.08475 0.25737 0.34701 0.0
H508 H 0.03719 0.23719 0.42484 0.0
H509 H 0.05713 0.22955 0.38377 0.0
H510 H 0.17169 0.29068 0.49547 0.0
H511 H 0.19091 0.28306 0.45386 0.0
H512 H 0.13068 0.31384 0.51464 0.0
H513 H 0.09083 0.3028 0.52097 0.0
C514 C 0.80631 0.11613 0.39988 0.0
C515 C 0.79575 0.10509 0.36502 0.0
C516 C 0.79114 0.05026 0.38874 0.0
C517 C 0.7984 0.06196 0.42438 0.0
N518 N 0.81008 0.10604 0.46533 0.0
N519 N 0.77581 0.06273 0.32609 0.0
C520 C 0.80559 0.09486 0.43033 0.0
C521 C 0.78775 0.07236 0.35929 0.0
N522 N 0.81721 0.14692 0.40371 0.0
N523 N 0.78795 0.01793 0.38312 0.0
H524 H 0.77365 0.07814 0.3037 0.0
H525 H 0.76612 0.0401 0.32125 0.0
H526 H 0.79027 1.00119 0.40423 0.0
H527 H 0.78561 1.00738 0.35731 0.0
H528 H 0.82841 0.15552 0.42727 0.0
H529 H 0.81729 0.16344 0.38223 0.0
H530 H 0.81148 0.13029 0.4721 0.0
H531 H 0.81039 0.09112 0.48829 0.0
C532 C 0.89872 0.71313 0.38679 0.0
C533 C 0.87042 0.72619 0.40249 0.0
C534 C 0.89833 0.73456 0.46086 0.0
C535 C 0.92752 0.72558 0.44371 0.0
N536 N 0.9565 0.70832 0.38986 0.0
N537 N 0.84347 0.752 0.45325 0.0
C538 C 0.92797 0.71503 0.40662 0.0
C539 C 0.8702 0.73744 0.43931 0.0
N540 N 0.89747 0.69858 0.35309 0.0
N541 N 0.89747 0.73963 0.49799 0.0
H542 H 0.8222 0.75403 0.43856 0.0
H543 H 0.84299 0.76413 0.47831 0.0
H544 H 0.91757 0.73713 0.51463 0.0
H545 H 0.87645 0.74328 0.51283 0.0
H546 H 0.9164 0.68571 0.34169 0.0
H547 H 0.87654 0.69717 0.33765 0.0
H548 H 0.95895 0.70436 0.36173 0.0
H549 H 0.97824 0.70865 0.4038 0.0
C550 C 0.19636 0.90497 0.39253 0.0
C551 C 0.2199 0.90782 0.36453 0.0
C552 C 0.23838 0.95794 0.39277 0.0
C553 C 0.21906 0.9518 0.42414 0.0
N554 N 0.18266 0.91614 0.4559 0.0
N555 N 0.26691 0.93485 0.34126 0.0
C556 C 0.19855 0.92459 0.42452 0.0
C557 C 0.2418 0.93385 0.36534 0.0
N558 N 0.17163 0.88386 0.38831 0.0
N559 N 0.25291 0.98712 0.38873 0.0
H560 H 0.27103 0.91723 0.32139 0.0
H561 H 0.28538 0.95154 0.34335 0.0
H562 H 0.24978 1.00589 0.40746 0.0
H563 H 0.26498 0.99385 0.36487 0.0
H564 H 0.15221 0.88287 0.40629 0.0
H565 H 0.16888 0.86974 0.36479 0.0
H566 H 0.17022 0.89459 0.45857 0.0
H567 H 0.1843 0.92901 0.48041 0.0
C568 C 0.13444 0.71375 0.57806 0.0
C569 C 0.14193 0.73909 0.60266 0.0
C570 C 0.09185 0.76598 0.58697 0.0
C571 C 0.0853 0.74185 0.56001 0.0
N572 N 0.10685 0.69892 0.52232 0.0
N573 N 0.13248 0.79359 0.62217 0.0
C574 C 0.10845 0.71744 0.55333 0.0
C575 C 0.12213 0.76657 0.60439 0.0
N576 N 0.15144 0.68578 0.57887 0.0
N577 N 0.06892 0.78743 0.59774 0.0
H578 H 0.15483 0.79513 0.63471 0.0
H579 H 0.12041 0.81544 0.62099 0.0
H580 H 0.04596 0.78812 0.58712 0.0
H581 H 0.07173 0.80273 0.62023 0.0
H582 H 0.14472 0.66538 0.56414 0.0
H583 H 0.17055 0.68203 0.59668 0.0
H584 H 0.12474 0.68275 0.51481 0.0
H585 H 0.08997 0.70254 0.50176 0.0
C586 C 0.23902 0.08402 0.65908 0.0
C587 C 0.2252 0.11434 0.65212 0.0
C588 C 0.20878 0.09609 0.59072 0.0
C589 C 0.22568 0.06678 0.59623 0.0
N590 N 0.26182 0.03555 0.63393 0.0
N591 N 0.19974 0.15115 0.61066 0.0
C592 C 0.24216 0.06148 0.62993 0.0
C593 C 0.21055 0.12083 0.61787 0.0
N594 N 0.24879 0.07654 0.69385 0.0
N595 N 0.1917 0.10075 0.55921 0.0
H596 H 0.20027 0.16964 0.63005 0.0
H597 H 0.19219 0.15873 0.58489 0.0
H598 H 0.19236 0.08514 0.53682 0.0
H599 H 0.17561 0.11954 0.55572 0.0
H600 H 0.25556 0.05352 0.70173 0.0
H601 H 0.24728 0.09262 0.71583 0.0
H602 H 0.27731 0.03274 0.65603 0.0
H603 H 0.26506 0.01812 0.61385 0.0
C604 C 0.86622 0.2893 0.57274 0.0
C605 C 0.86412 0.28512 0.61144 0.0
C606 C 0.92173 0.27485 0.61373 0.0
C607 C 0.92452 0.28237 0.57583 0.0
N608 N 0.89982 0.30061 0.51982 0.0
N609 N 0.89133 0.28222 0.66973 0.0
C610 C 0.89689 0.29113 0.55559 0.0
C611 C 0.89235 0.28044 0.63223 0.0
N612 N 0.83899 0.28967 0.55209 0.0
N613 N 0.9467 0.26116 0.6319 0.0
H614 H 0.87044 0.28729 0.68436 0.0
H615 H 0.91178 0.28209 0.68601 0.0
H616 H 0.96813 0.25537 0.61897 0.0
H617 H 0.94487 0.25234 0.6586 0.0
H618 H 0.83904 0.28917 0.52348 0.0
H619 H 0.81618 0.28747 0.56343 0.0
H620 H 0.8811 0.31059 0.50492 0.0
H621 H 0.92156 0.30069 0.50572 0.0
C622 C 0.81863 0.90548 0.62886 0.0
C623 C 0.79332 0.90531 0.65483 0.0
C624 C 0.77172 0.95414 0.62726 0.0
C625 C 0.79389 0.95123 0.59766 0.0
N626 N 0.83457 0.91933 0.56711 0.0
N627 N 0.74266 0.92667 0.67533 0.0
C628 C 0.81657 0.92578 0.59767 0.0
C629 C 0.76905 0.92895 0.65324 0.0
N630 N 0.8448 0.88651 0.63421 0.0
N631 N 0.75371 0.98128 0.63125 0.0
H632 H 0.73947 0.90842 0.69454 0.0
H633 H 0.72259 0.94121 0.67225 0.0
H634 H 0.75522 1.00067 0.61339 0.0
H635 H 0.73973 0.98593 0.65441 0.0
H636 H 0.86532 0.88802 0.61798 0.0
H637 H 0.84721 0.87165 0.65707 0.0
H638 H 0.84893 0.89899 0.56471 0.0
H639 H 0.83265 0.93211 0.54267 0.0
C640 C 0.89239 0.79835 0.61135 0.0
C641 C 0.90052 0.78232 0.64436 0.0
C642 C 0.95412 0.77104 0.62024 0.0
C643 C 0.94533 0.78505 0.58613 0.0
N644 N 0.90453 0.80736 0.54698 0.0
N645 N 0.93719 0.75012 0.67934 0.0
C646 C 0.91411 0.79775 0.58114 0.0
C647 C 0.93092 0.76786 0.64862 0.0
N648 N 0.86387 0.81423 0.60898 0.0
N649 N 0.98493 0.76137 0.6258 0.0
H650 H 0.92117 0.748 0.70123 0.0
H651 H 0.95726 0.73561 0.68224 0.0
H652 H 1.00232 0.76201 0.60534 0.0
H653 H 0.99398 0.75477 0.65129 0.0
H654 H 0.85788 0.82933 0.58734 0.0
H655 H 0.84687 0.81411 0.63002 0.0
H656 H 0.88104 0.81322 0.54053 0.0
H657 H 0.91945 0.80695 0.52399 0.0
C658 C 0.27198 0.89836 0.63184 0.0
C659 C 0.27873 0.8686 0.61445 0.0
C660 C 0.28544 0.89684 0.55562 0.0
C661 C 0.27462 0.92573 0.57241 0.0
N662 N 0.24943 0.95122 0.62477 0.0
N663 N 0.28638 0.83865 0.55818 0.0
C664 C 0.26548 0.92571 0.61001 0.0
C665 C 0.28423 0.86756 0.57587 0.0
N666 N 0.27254 0.90078 0.6693 0.0
N667 N 0.29622 0.89716 0.52013 0.0
H668 H 0.28462 0.81671 0.57175 0.0
H669 H 0.28695 0.83631 0.52968 0.0
H670 H 0.29561 0.91759 0.50366 0.0
H671 H 0.30769 0.87769 0.50783 0.0
H672 H 0.27072 0.92263 0.68317 0.0
H673 H 0.27834 0.88152 0.68628 0.0
H674 H 0.2398 0.95108 0.65122 0.0
H675 H 0.24234 0.97084 0.60924 0.0
C676 C 0.11151 0.20707 0.63563 0.0
C677 C 0.11377 0.23434 0.65892 0.0
C678 C 0.06408 0.25514 0.63299 0.0
C679 C 0.06433 0.23041 0.60575 0.0
N680 N 0.09366 0.1868 0.57694 0.0
N681 N 0.09538 0.28749 0.6748 0.0
C682 C 0.08935 0.2072 0.60602 0.0
C683 C 0.0909 0.25923 0.6563 0.0
N684 N 0.13027 0.18085 0.64199 0.0
N685 N 0.03793 0.27437 0.63745 0.0
H686 H 0.11498 0.29182 0.69175 0.0
H687 H 0.08132 0.30777 0.67049 0.0
H688 H 0.0175 0.27225 0.62155 0.0
H689 H 0.03526 0.29024 0.65945 0.0
H690 H 0.12744 0.15915 0.62803 0.0
H691 H 0.14647 0.1798 0.66369 0.0
H692 H 0.11351 0.17182 0.57442 0.0
H693 H 0.07968 0.18724 0.55336 0.0
C694 C 0.75744 0.12604 0.61262 0.0
C695 C 0.73099 0.14623 0.60535 0.0
C696 C 0.71432 0.10972 0.55593 0.0
C697 C 0.73796 0.08717 0.56695 0.0
N698 N 0.77804 0.07204 0.6117 0.0
N699 N 0.68094 0.15461 0.5741 0.0
C700 C 0.75847 0.09483 0.59691 0.0
C701 C 0.70842 0.1373 0.57816 0.0
N702 N 0.78215 0.13697 0.63374 0.0
N703 N 0.69877 0.10601 0.52322 0.0
H704 H 0.67567 0.17485 0.58994 0.0
H705 H 0.66217 0.14715 0.55735 0.0
H706 H 0.70372 0.08745 0.50481 0.0
H707 H 0.68362 0.12342 0.51243 0.0
H708 H 0.80354 0.12445 0.63673 0.0
H709 H 0.7827 0.16 0.64508 0.0
H710 H 0.79073 0.07562 0.63597 0.0
H711 H 0.77915 0.0485 0.60224 0.0
C712 C 0.92639 0.24859 0.37757 0.0
C713 C 0.90576 0.222 0.373 0.0
C714 C 0.92559 0.19902 0.43054 0.0
C715 C 0.94906 0.22377 0.43298 0.0
N716 N 0.97614 0.26787 0.40188 0.0
N717 N 0.89095 0.16827 0.39037 0.0
C718 C 0.9508 0.24726 0.40444 0.0
C719 C 0.9071 0.19599 0.39794 0.0
N720 N 0.92199 0.27584 0.35735 0.0
N721 N 0.91903 0.17988 0.46004 0.0
H722 H 0.87753 0.16518 0.36649 0.0
H723 H 0.89348 0.14746 0.40593 0.0
H724 H 0.92974 0.18273 0.48561 0.0
H725 H 0.90006 0.16365 0.46043 0.0
H726 H 0.93403 0.29724 0.36276 0.0
H727 H 0.90413 0.27818 0.33762 0.0
H728 H 0.97996 0.28259 0.37917 0.0
H729 H 0.99515 0.26824 0.42009 0.0
C730 C 0.72171 0.89981 0.39452 0.0
C731 C 0.74291 0.87392 0.40153 0.0
C732 C 0.76113 0.90129 0.45743 0.0
C733 C 0.74335 0.92901 0.44756 0.0
N734 N 0.71162 0.95663 0.40217 0.0
N735 N 0.78746 0.85298 0.43604 0.0
C736 C 0.72485 0.92883 0.41491 0.0
C737 C 0.76394 0.87546 0.43202 0.0
N738 N 0.69792 0.89642 0.36916 0.0
N739 N 0.77436 0.89904 0.49163 0.0
H740 H 0.79097 0.83415 0.41751 0.0
H741 H 0.80543 0.85488 0.45569 0.0
H742 H 0.77162 0.91675 0.51172 0.0
H743 H 0.785 0.87815 0.50141 0.0
H744 H 0.67991 0.91339 0.36562 0.0
H745 H 0.69427 0.87528 0.35431 0.0
H746 H 0.70079 0.95837 0.37652 0.0
H747 H 0.71427 0.9787 0.4154 0.0
C748 C 0.07348 0.7787 0.35005 0.0
C749 C 0.10519 0.78864 0.35785 0.0
C750 C 0.08919 0.80427 0.42041 0.0
C751 C 0.05832 0.79132 0.41377 0.0
N752 N 0.02053 0.76573 0.37337 0.0
N753 N 0.14434 0.80947 0.40013 0.0
C754 C 0.05026 0.77858 0.37876 0.0
C755 C 0.11329 0.80133 0.39288 0.0
N756 N 0.06559 0.76968 0.31505 0.0
N757 N 0.09547 0.8192 0.45315 0.0
H758 H 0.1624 0.80882 0.38031 0.0
H759 H 0.15285 0.8153 0.42614 0.0
H760 H 0.079 0.82049 0.47465 0.0
H761 H 0.11617 0.83226 0.45839 0.0
H762 H 0.04232 0.76533 0.30637 0.0
H763 H 0.08225 0.7684 0.2937 0.0
H764 H 0.01412 0.75241 0.35031 0.0
H765 H 1.00228 0.76736 0.3929 0.0
C766 C 0.30142 0.11097 0.39715 0.0
C767 C 0.28046 0.13701 0.40485 0.0
C768 C 0.26334 0.10997 0.46129 0.0
C769 C 0.28011 0.08183 0.45042 0.0
N770 N 0.31144 0.05408 0.40434 0.0
N771 N 0.23664 0.15815 0.44103 0.0
C772 C 0.29838 0.08193 0.41746 0.0
C773 C 0.26013 0.13573 0.43612 0.0
N774 N 0.32474 0.11419 0.37105 0.0
N775 N 0.2513 0.11259 0.49612 0.0
H776 H 0.23247 0.17676 0.42257 0.0
H777 H 0.21919 0.1563 0.46143 0.0
H778 H 0.25464 0.09494 0.516 0.0
H779 H 0.24136 0.13372 0.50645 0.0
H780 H 0.34257 0.09712 0.36678 0.0
H781 H 0.3282 0.13534 0.35628 0.0
H782 H 0.32195 0.05222 0.37842 0.0
H783 H 0.30922 0.03213 0.41775 0.0
C784 C 0.60827 0.79307 0.87796 0.0
C785 C 0.63668 0.78159 0.89468 0.0
C786 C 0.6088 0.77718 0.95369 0.0
C787 C 0.57958 0.78485 0.93608 0.0
N788 N 0.55046 0.79791 0.88113 0.0
N789 N 0.6635 0.75895 0.94711 0.0
C790 C 0.57902 0.79248 0.89814 0.0
C791 C 0.63684 0.77267 0.93223 0.0
N792 N 0.60944 0.80507 0.84306 0.0
N793 N 0.60993 0.77531 0.99117 0.0
H794 H 0.68469 0.75559 0.93239 0.0
H795 H 0.66387 0.74852 0.97307 0.0
H796 H 0.59005 0.77961 1.0078 0.0
H797 H 0.63104 0.7728 1.00595 0.0
H798 H 0.59042 0.81689 0.83067 0.0
H799 H 0.63032 0.80534 0.82731 0.0
H800 H 0.54794 0.79973 0.85277 0.0
H801 H 0.52877 0.79871 0.89532 0.0
C802 C 0.24601 0.62221 0.91207 0.0
C803 C 0.24026 0.61413 0.87478 0.0
C804 C 0.22441 0.55961 0.89267 0.0
C805 C 0.22962 0.56797 0.92994 0.0
N806 N 0.23784 0.60858 0.97618 0.0
N807 N 0.21801 0.57789 0.82983 0.0
C808 C 0.23796 0.59981 0.93992 0.0
C809 C 0.2275 0.58365 0.86516 0.0
N810 N 0.26047 0.6507 0.92073 0.0
N811 N 0.21807 0.52842 0.88346 0.0
H812 H 0.22031 0.59486 0.80896 0.0
H813 H 0.20562 0.55738 0.8218 0.0
H814 H 0.21465 0.5105 0.90305 0.0
H815 H 0.21797 0.5199 0.85653 0.0
H816 H 0.26866 0.65636 0.94695 0.0
H817 H 0.26658 0.66786 0.90112 0.0
H818 H 0.24098 0.63208 0.98528 0.0
H819 H 0.23144 0.59274 0.9971 0.0
C820 C 0.39638 0.26712 0.9079 0.0
C821 C 0.37755 0.23903 0.91016 0.0
C822 C 0.41042 0.22007 0.96126 0.0
C823 C 0.43247 0.24558 0.955 0.0
N824 N 0.44804 0.29097 0.9166 0.0
N825 N 0.36862 0.1865 0.93568 0.0
C826 C 0.42589 0.26853 0.92684 0.0
C827 C 0.3852 0.21476 0.93581 0.0
N828 N 0.3857 0.29297 0.88834 0.0
N829 N 0.41203 0.20227 0.99268 0.0
H830 H 0.34964 0.18205 0.91784 0.0
H831 H 0.37543 0.16664 0.95114 0.0
H832 H 0.42821 0.20699 0.01372 0.0
H833 H 0.39477 0.1854 0.99997 0.0
H834 H 0.39664 0.31544 0.8894 0.0
H835 H 0.36412 0.29303 0.87405 0.0
H836 H 0.44558 0.30507 0.89318 0.0
H837 H 0.4702 0.29391 0.92881 0.0
C838 C 0.74838 0.40985 0.88312 0.0
C839 C 0.72034 0.40811 0.86163 0.0
C840 C 0.69666 0.45115 0.89873 0.0
C841 C 0.72235 0.4488 0.92416 0.0
N842 N 0.76984 0.41938 0.94325 0.0
N843 N 0.66534 0.42347 0.8526 0.0
C844 C 0.74754 0.42645 0.9171 0.0
C845 C 0.6937 0.42771 0.87043 0.0
N846 N 0.77608 0.39605 0.87084 0.0
N847 N 0.67611 0.47661 0.90008 0.0
H848 H 0.66217 0.40638 0.83191 0.0
H849 H 0.64431 0.43494 0.86071 0.0
H850 H 0.67885 0.49578 0.91827 0.0
H851 H 0.65875 0.48062 0.88014 0.0
H852 H 0.79801 0.39947 0.88382 0.0
H853 H 0.77784 0.38416 0.84563 0.0
H854 H 0.78623 0.40071 0.94026 0.0
H855 H 0.7701 0.42925 0.96947 0.0
C856 C 0.63872 0.22097 0.09008 0.0
C857 C 0.64694 0.24486 0.11624 0.0
C858 C 0.59576 0.27171 0.10573 0.0
C859 C 0.58856 0.24945 0.07705 0.0
N860 N 0.60844 0.20858 0.03538 0.0
N861 N 0.63696 0.29724 0.14212 0.0
C862 C 0.61148 0.22558 0.06737 0.0
C863 C 0.62658 0.27155 0.12193 0.0
N864 N 0.65641 0.1935 0.08742 0.0
N865 N 0.57289 0.29214 0.11894 0.0
H866 H 0.6596 0.29824 0.15401 0.0
H867 H 0.62445 0.31882 0.14385 0.0
H868 H 0.54975 0.29303 0.10881 0.0
H869 H 0.57596 0.30604 0.14252 0.0
H870 H 0.64942 0.17383 0.07159 0.0
H871 H 0.67655 0.18923 0.10349 0.0
H872 H 0.62609 0.19312 0.02551 0.0
H873 H 0.59027 0.21268 0.01646 0.0
C874 C 0.73458 0.576 0.15904 0.0
C875 C 0.71357 0.60269 0.15882 0.0
C876 C 0.69124 0.58486 0.10006 0.0
C877 C 0.7117 0.55766 0.10072 0.0
N878 N 0.74502 0.5223 0.13637 0.0
N879 N 0.66551 0.62692 0.13553 0.0
C880 C 0.73085 0.55161 0.13208 0.0
C881 C 0.68972 0.60522 0.13141 0.0
N882 N 0.7591 0.57465 0.18371 0.0
N883 N 0.67496 0.59271 0.06886 0.0
H884 H 0.66368 0.64204 0.15838 0.0
H885 H 0.64565 0.62746 0.11834 0.0
H886 H 0.67597 0.57919 0.04476 0.0
H887 H 0.66264 0.61428 0.06588 0.0
H888 H 0.77722 0.55753 0.18228 0.0
H889 H 0.76288 0.5921 0.20382 0.0
H890 H 0.757 0.51559 0.1602 0.0
H891 H 0.74172 0.50346 0.11779 0.0
C892 C 0.36987 0.78978 0.06954 0.0
C893 C 0.37288 0.78784 0.10839 0.0
C894 C 0.43005 0.77759 0.10158 0.0
C895 C 0.42796 0.78354 0.06332 0.0
N896 N 0.39619 0.79892 0.01098 0.0
N897 N 0.40746 0.78884 0.16137 0.0
C898 C 0.39798 0.79117 0.04738 0.0
C899 C 0.40353 0.78462 0.1244 0.0
N900 N 0.34035 0.78827 0.05364 0.0
N901 N 0.45671 0.76377 0.11613 0.0
H902 H 0.38871 0.79519 0.17891 0.0
H903 H 0.42987 0.78952 0.17379 0.0
H904 H 0.47555 0.75564 0.09994 0.0
H905 H 0.4582 0.75662 0.14349 0.0
H906 H 0.33693 0.78615 0.0254 0.0
H907 H 0.31926 0.78605 0.06874 0.0
H908 H 0.37559 0.80804 0.99889 0.0
H909 H 0.41589 0.7983 0.99336 0.0
C910 C 0.21711 0.39167 0.11748 0.0
C911 C 0.24253 0.3923 0.14318 0.0
C912 C 0.26024 0.44382 0.11856 0.0
C913 C 0.23761 0.4412 0.08949 0.0
N914 N 0.1993 0.40787 0.05721 0.0
N915 N 0.29286 0.41521 0.16216 0.0
C916 C 0.21713 0.41392 0.08786 0.0
C917 C 0.26541 0.4173 0.14201 0.0
N918 N 0.1927 0.37018 0.1216 0.0
N919 N 0.27624 0.47191 0.12475 0.0
H920 H 0.29819 0.39569 0.17894 0.0
H921 H 0.31185 0.43121 0.15915 0.0
H922 H 0.27291 0.49249 0.10916 0.0
H923 H 0.29032 0.47583 0.14792 0.0
H924 H 0.17198 0.37085 0.10579 0.0
H925 H 0.19182 0.35364 0.14305 0.0
H926 H 0.18656 0.38662 0.05343 0.0
H927 H 0.19992 0.42218 0.03383 0.0
C928 C 0.42513 0.28303 0.15935 0.0
C929 C 0.3949 0.29639 0.15063 0.0
C930 C 0.41545 0.31367 0.09045 0.0
C931 C 0.44598 0.30096 0.09947 0.0
N932 N 0.48141 0.27802 0.14428 0.0
N933 N 0.36233 0.32909 0.11113 0.0
C934 C 0.45121 0.28696 0.13451 0.0
C935 C 0.39049 0.31336 0.11726 0.0
N936 N 0.42868 0.2659 0.19109 0.0
N937 N 0.4096 0.32399 0.05546 0.0
H938 H 0.34298 0.32813 0.12924 0.0
H939 H 0.35886 0.34497 0.08947 0.0
H940 H 0.42701 0.32457 0.03492 0.0
H941 H 0.38694 0.32977 0.0458 0.0
H942 H 0.44862 0.25195 0.197 0.0
H943 H 0.41082 0.26417 0.21106 0.0
H944 H 0.48786 0.27099 0.17064 0.0
H945 H 0.5008 0.27997 0.1265 0.0
C946 C 0.76589 0.37125 0.08581 0.0
C947 C 0.78052 0.37399 0.12069 0.0
C948 C 0.79149 0.43117 0.1094 0.0
C949 C 0.77461 0.42902 0.07555 0.0
N950 N 0.74141 0.39779 0.03418 0.0
N951 N 0.8047 0.40636 0.16789 0.0
C952 C 0.76057 0.39929 0.06453 0.0
C953 C 0.79283 0.40388 0.13301 0.0
N954 N 0.75773 0.34157 0.07256 0.0
N955 N 0.80578 0.45943 0.11931 0.0
H956 H 0.80671 0.38674 0.18547 0.0
H957 H 0.81076 0.42799 0.18044 0.0
H958 H 0.80296 0.48074 0.10477 0.0
H959 H 0.82165 0.46166 0.14112 0.0
H960 H 0.75077 0.33735 0.04553 0.0
H961 H 0.76043 0.3205 0.08766 0.0
H962 H 0.72718 0.37806 0.02778 0.0
H963 H 0.7376 0.41695 0.01654 0.0
C964 C 0.59083 0.76089 0.14146 0.0
C965 C 0.61718 0.73973 0.13803 0.0
C966 C 0.59778 0.72185 0.07769 0.0
C967 C 0.56946 0.74026 0.08288 0.0
N968 N 0.53872 0.77734 0.12025 0.0
N969 N 0.64548 0.69862 0.10457 0.0
C970 C 0.56604 0.76 0.11478 0.0
C971 C 0.62052 0.71973 0.10664 0.0
N972 N 0.58996 0.78253 0.16984 0.0
N973 N 0.604 0.70817 0.04418 0.0
H974 H 0.66343 0.69751 0.12437 0.0
H975 H 0.64743 0.68085 0.08452 0.0
H976 H 0.58883 0.71043 0.02167 0.0
H977 H 0.62567 0.69742 0.03731 0.0
H978 H 0.57384 0.8015 0.17147 0.0
H979 H 0.60688 0.78305 0.19082 0.0
H980 H 0.53246 0.78784 0.14525 0.0
H981 H 0.52136 0.78037 0.1003 0.0
C982 C 0.2448 0.61465 0.12279 0.0
C983 C 0.2664 0.64065 0.11904 0.0
C984 C 0.29471 0.61098 0.07026 0.0
C985 C 0.27543 0.58345 0.07721 0.0
N986 N 0.23662 0.55762 0.11696 0.0
N987 N 0.3159 0.66105 0.09422 0.0
C988 C 0.25186 0.58486 0.10556 0.0
C989 C 0.29263 0.63803 0.09432 0.0
N990 N 0.21667 0.6187 0.14148 0.0
N991 N 0.31346 0.61239 0.03949 0.0
H992 H 0.31535 0.68101 0.1116 0.0
H993 H 0.33714 0.65873 0.0794 0.0
H994 H 0.31458 0.59407 0.02 0.0
H995 H 0.32529 0.63321 0.03129 0.0
H996 H 0.19852 0.60155 0.1416 0.0
H997 H 0.20993 0.64041 0.15357 0.0
H998 H 0.22194 0.55692 0.14014 0.0
H999 H 0.24109 0.53506 0.10581 0.0
C1000 C 0.39533 0.69809 0.89788 0.0
C1001 C 0.398 0.71759 0.86604 0.0
C1002 C 0.45142 0.73452 0.88595 0.0
C1003 C 0.44652 0.71929 0.92032 0.0
N1004 N 0.41146 0.6899 0.96103 0.0
N1005 N 0.42679 0.75864 0.83275 0.0
C1006 C 0.41797 0.70166 0.92679 0.0
C1007 C 0.42567 0.73684 0.86072 0.0
N1008 N 0.3715 0.67573 0.90021 0.0
N1009 N 0.48096 0.74626 0.87712 0.0
H1010 H 0.40811 0.76197 0.81427 0.0
H1011 H 0.44494 0.7756 0.83005 0.0
H1012 H 0.50059 0.74401 0.89454 0.0
H1013 H 0.48677 0.755 0.85115 0.0
H1014 H 0.3702 0.65872 0.92109 0.0
H1015 H 0.35478 0.67214 0.87938 0.0
H1016 H 0.3894 0.68017 0.9683 0.0
H1017 H 0.42707 0.69224 0.98313 0.0
C1018 C 0.27492 0.41243 0.88029 0.0
C1019 C 0.28348 0.38162 0.89364 0.0
C1020 C 0.30003 0.40555 0.95246 0.0
C1021 C 0.29116 0.43629 0.9392 0.0
N1022 N 0.27699 0.47036 0.88864 0.0
N1023 N 0.3103 0.34929 0.93884 0.0
C1024 C 0.28081 0.4401 0.9024 0.0
C1025 C 0.29816 0.37838 0.92858 0.0
N1026 N 0.26021 0.41508 0.84693 0.0
N1027 N 0.30849 0.40207 0.98849 0.0
H1028 H 0.30856 0.32877 0.92246 0.0
H1029 H 0.32419 0.34595 0.96219 0.0
H1030 H 0.31096 0.4215 1.00642 0.0
H1031 H 0.31137 0.37994 1.00124 0.0
H1032 H 0.24989 0.43617 0.83737 0.0
H1033 H 0.25672 0.39555 0.82936 0.0
H1034 H 0.27219 0.47524 0.86118 0.0
H1035 H 0.28139 0.49097 0.90423 0.0
C1036 C 0.60889 0.32011 0.89412 0.0
C1037 C 0.6024 0.29875 0.86457 0.0
C1038 C 0.55411 0.27973 0.89625 0.0
C1039 C 0.562 0.29906 0.92739 0.0
N1040 N 0.59978 0.33366 0.9582 0.0
N1041 N 0.57023 0.25696 0.8376 0.0
C1042 C 0.58996 0.31853 0.92677 0.0
C1043 C 0.57531 0.27834 0.86564 0.0
N1044 N 0.63333 0.34178 0.89109 0.0
N1045 N 0.52585 0.26325 0.89538 0.0
H1046 H 0.58356 0.25689 0.81333 0.0
H1047 H 0.55394 0.2381 0.83897 0.0
H1048 H 0.51041 0.26152 0.91767 0.0
H1049 H 0.51648 0.25274 0.87177 0.0
H1050 H 0.63695 0.36054 0.90958 0.0
H1051 H 0.64879 0.3425 0.86858 0.0
H1052 H 0.62174 0.34518 0.96078 0.0
H1053 H 0.58735 0.33234 0.98301 0.0
C1054 C 0.79161 0.63549 0.93442 0.0
C1055 C 0.76952 0.63861 0.90507 0.0
C1056 C 0.74932 0.58459 0.91811 0.0
C1057 C 0.76819 0.58331 0.9505 0.0
N1058 N 0.80223 0.61139 0.99352 0.0
N1059 N 0.72214 0.61879 0.87474 0.0
C1060 C 0.78802 0.60981 0.95982 0.0
C1061 C 0.7468 0.61393 0.89861 0.0
N1062 N 0.81672 0.65631 0.93742 0.0
N1063 N 0.73495 0.55747 0.90482 0.0
H1064 H 0.71871 0.64038 0.86088 0.0
H1065 H 0.70327 0.60265 0.8718 0.0
H1066 H 0.73781 0.53494 0.91676 0.0
H1067 H 0.72335 0.55666 0.87953 0.0
H1068 H 0.83522 0.65311 0.95617 0.0
H1069 H 0.82083 0.67484 0.9188 0.0
H1070 H 0.81431 0.63171 1.00287 0.0
H1071 H 0.79911 0.59394 0.01368 0.0
loop_
_geom_bond_atom_site_label_1
_geom_bond_atom_site_label_2
_geom_bond_distance
_geom_bond_site_symmetry_2
_ccdc_geom_bond_type
H0 C19 0.949 . S
H1 C20 0.950 . S
H2 C22 0.950 . S
H3 C23 0.950 . S
H4 C25 0.950 . S
H5 C28 0.950 . S
H6 C29 0.950 . S
H7 C31 0.951 . S
H8 C32 0.949 . S
H9 C34 0.949 . S
H10 C35 0.950 . S
H11 C37 0.950 . S
H12 C38 0.950 . S
H13 C40 0.950 . S
H14 C43 0.950 . S
H15 C44 0.950 . S
H16 C46 0.951 . S
H17 C47 0.949 . S
C18 C19 1.376 . S
C18 C23 1.386 . S
C18 C24 1.483 . S
C19 H0 0.949 . S
C19 C18 1.376 . S
C19 C20 1.397 . S
C20 H1 0.950 . S
C20 C19 1.397 . S
C20 C21 1.391 . S
C21 C20 1.391 . S
C21 C22 1.405 . S
C22 H2 0.950 . S
C22 C21 1.405 . S
C22 C23 1.367 . S
C23 H3 0.950 . S
C23 C18 1.386 . S
C23 C22 1.367 . S
C24 C18 1.483 . S
C24 C25 1.382 . S
C24 C26 1.403 . S
C25 H4 0.950 . S
C25 C24 1.382 . S
C25 C41 1.411 . S
C26 C24 1.403 . S
C26 C27 1.489 . S
C26 C40 1.411 . S
C27 C26 1.489 . S
C27 C28 1.383 . S
C27 C32 1.382 . S
C28 H5 0.950 . S
C28 C27 1.383 . S
C28 C29 1.395 . S
C29 H6 0.950 . S
C29 C28 1.395 . S
C29 C30 1.288 . S
C30 C29 1.288 . S
C30 C31 1.392 . S
C31 H7 0.951 . S
C31 C30 1.392 . S
C31 C32 1.392 . S
C32 H8 0.949 . S
C32 C27 1.382 . S
C32 C31 1.392 . S
C33 C34 1.376 . S
C33 C38 1.386 . S
C33 C39 1.483 . S
C34 H9 0.949 . S
C34 C33 1.376 . S
C34 C35 1.397 . S
C35 H10 0.950 . S
C35 C34 1.397 . S
C35 C36 1.391 . S
C36 C35 1.391 . S
C36 C37 1.405 . S
C37 H11 0.950 . S
C37 C36 1.405 . S
C37 C38 1.367 . S
C38 H12 0.950 . S
C38 C33 1.386 . S
C38 C37 1.367 . S
C39 C33 1.483 . S
C39 C40 1.382 . S
C39 C41 1.403 . S
C40 H13 0.950 . S
C40 C26 1.411 . S
C40 C39 1.382 . S
C41 C25 1.411 . S
C41 C39 1.403 . S
C41 C42 1.489 . S
C42 C41 1.489 . S
C42 C43 1.383 . S
C42 C47 1.382 . S
C43 H14 0.950 . S
C43 C42 1.383 . S
C43 C44 1.395 . S
C44 H15 0.950 . S
C44 C43 1.395 . S
C44 C45 1.288 . S
C45 C44 1.288 . S
C45 C46 1.392 . S
C46 H16 0.951 . S
C46 C45 1.392 . S
C46 C47 1.392 . S
C47 H17 0.949 . S
C47 C42 1.382 . S
C47 C46 1.392 . S
H48 C67 0.949 . S
H49 C68 0.950 . S
H50 C70 0.950 . S
H51 C71 0.950 . S
H52 C73 0.950 . S
H53 C76 0.950 . S
H54 C77 0.950 . S
H55 C79 0.951 . S
H56 C80 0.949 . S
H57 C82 0.949 . S
H58 C83 0.950 . S
H59 C85 0.950 . S
H60 C86 0.950 . S
H61 C88 0.950 . S
H62 C91 0.950 . S
H63 C92 0.950 . S
H64 C94 0.951 . S
H65 C95 0.949 . S
C66 C67 1.376 . S
C66 C71 1.386 . S
C66 C72 1.483 . S
C67 H48 0.949 . S
C67 C66 1.376 . S
C67 C68 1.397 . S
C68 H49 0.950 . S
C68 C67 1.397 . S
C68 C69 1.391 . S
C69 C68 1.391 . S
C69 C70 1.405 . S
C70 H50 0.950 . S
C70 C69 1.405 . S
C70 C71 1.367 . S
C71 H51 0.950 . S
C71 C66 1.386 . S
C71 C70 1.367 . S
C72 C66 1.483 . S
C72 C73 1.382 . S
C72 C74 1.403 . S
C73 H52 0.950 . S
C73 C72 1.382 . S
C73 C89 1.411 . S
C74 C72 1.403 . S
C74 C75 1.489 . S
C74 C88 1.411 . S
C75 C74 1.489 . S
C75 C76 1.383 . S
C75 C80 1.382 . S
C76 H53 0.950 . S
C76 C75 1.383 . S
C76 C77 1.395 . S
C77 H54 0.950 . S
C77 C76 1.395 . S
C77 C78 1.288 . S
C78 C77 1.288 . S
C78 C79 1.392 . S
C79 H55 0.951 . S
C79 C78 1.392 . S
C79 C80 1.392 . S
C80 H56 0.949 . S
C80 C75 1.382 . S
C80 C79 1.392 . S
C81 C82 1.376 . S
C81 C86 1.386 . S
C81 C87 1.483 . S
C82 H57 0.949 . S
C82 C81 1.376 . S
C82 C83 1.397 . S
C83 H58 0.950 . S
C83 C82 1.397 . S
C83 C84 1.391 . S
C84 C83 1.391 . S
C84 C85 1.405 . S
C85 H59 0.950 . S
C85 C84 1.405 . S
C85 C86 1.367 . S
C86 H60 0.950 . S
C86 C81 1.386 . S
C86 C85 1.367 . S
C87 C81 1.483 . S
C87 C88 1.382 . S
C87 C89 1.403 . S
C88 H61 0.950 . S
C88 C74 1.411 . S
C88 C87 1.382 . S
C89 C73 1.411 . S
C89 C87 1.403 . S
C89 C90 1.489 . S
C90 C89 1.489 . S
C90 C91 1.383 . S
C90 C95 1.382 . S
C91 H62 0.950 . S
C91 C90 1.383 . S
C91 C92 1.395 . S
C92 H63 0.950 . S
C92 C91 1.395 . S
C92 C93 1.288 . S
C93 C92 1.288 . S
C93 C94 1.392 . S
C94 H64 0.951 . S
C94 C93 1.392 . S
C94 C95 1.392 . S
C95 H65 0.949 . S
C95 C90 1.382 . S
C95 C94 1.392 . S
H96 C115 0.949 . S
H97 C116 0.950 . S
H98 C118 0.950 . S
H99 C119 0.950 . S
H100 C121 0.950 . S
H101 C124 0.950 . S
H102 C125 0.950 . S
H103 C127 0.951 . S
H104 C128 0.949 . S
H105 C130 0.949 . S
H106 C131 0.950 . S
H107 C133 0.950 . S
H108 C134 0.950 . S
H109 C136 0.950 . S
H110 C139 0.950 . S
H111 C140 0.950 . S
H112 C142 0.951 . S
H113 C143 0.949 . S
C114 C115 1.376 . S
C114 C119 1.386 . S
C114 C120 1.483 . S
C115 H96 0.949 . S
C115 C114 1.376 . S
C115 C116 1.397 . S
C116 H97 0.950 . S
C116 C115 1.397 . S
C116 C117 1.391 . S
C117 C116 1.391 . S
C117 C118 1.405 . S
C118 H98 0.950 . S
C118 C117 1.405 . S
C118 C119 1.367 . S
C119 H99 0.950 . S
C119 C114 1.386 . S
C119 C118 1.367 . S
C120 C114 1.483 . S
C120 C121 1.382 . S
C120 C122 1.403 . S
C121 H100 0.950 . S
C121 C120 1.382 . S
C121 C137 1.411 . S
C122 C120 1.403 . S
C122 C123 1.489 . S
C122 C136 1.411 . S
C123 C122 1.489 . S
C123 C124 1.383 . S
C123 C128 1.382 . S
C124 H101 0.950 . S
C124 C123 1.383 . S
C124 C125 1.395 . S
C125 H102 0.950 . S
C125 C124 1.395 . S
C125 C126 1.288 . S
C126 C125 1.288 . S
C126 C127 1.392 . S
C127 H103 0.951 . S
C127 C126 1.392 . S
C127 C128 1.392 . S
C128 H104 0.949 . S
C128 C123 1.382 . S
C128 C127 1.392 . S
C129 C130 1.376 . S
C129 C134 1.386 . S
C129 C135 1.483 . S
C130 H105 0.949 . S
C130 C129 1.376 . S
C130 C131 1.397 . S
C131 H106 0.950 . S
C131 C130 1.397 . S
C131 C132 1.391 . S
C132 C131 1.391 . S
C132 C133 1.405 . S
C133 H107 0.950 . S
C133 C132 1.405 . S
C133 C134 1.367 . S
C134 H108 0.950 . S
C134 C129 1.386 . S
C134 C133 1.367 . S
C135 C129 1.483 . S
C135 C136 1.382 . S
C135 C137 1.403 . S
C136 H109 0.950 . S
C136 C122 1.411 . S
C136 C135 1.382 . S
C137 C121 1.411 . S
C137 C135 1.403 . S
C137 C138 1.489 . S
C138 C137 1.489 . S
C138 C139 1.383 . S
C138 C143 1.382 . S
C139 H110 0.950 . S
C139 C138 1.383 . S
C139 C140 1.395 . S
C140 H111 0.950 . S
C140 C139 1.395 . S
C140 C141 1.288 . S
C141 C140 1.288 . S
C141 C142 1.392 . S
C142 H112 0.951 . S
C142 C141 1.392 . S
C142 C143 1.392 . S
C143 H113 0.949 . S
C143 C138 1.382 . S
C143 C142 1.392 . S
H144 C163 0.949 . S
H145 C164 0.950 . S
H146 C166 0.950 . S
H147 C167 0.950 . S
H148 C169 0.950 . S
H149 C172 0.950 . S
H150 C173 0.950 . S
H151 C175 0.951 . S
H152 C176 0.949 . S
H153 C178 0.949 . S
H154 C179 0.950 . S
H155 C181 0.950 . S
H156 C182 0.950 . S
H157 C184 0.950 . S
H158 C187 0.950 . S
H159 C188 0.950 . S
H160 C190 0.951 . S
H161 C191 0.949 . S
C162 C163 1.376 . S
C162 C167 1.386 . S
C162 C168 1.483 . S
C163 H144 0.949 . S
C163 C162 1.376 . S
C163 C164 1.397 . S
C164 H145 0.950 . S
C164 C163 1.397 . S
C164 C165 1.391 . S
C165 C164 1.391 . S
C165 C166 1.405 . S
C166 H146 0.950 . S
C166 C165 1.405 . S
C166 C167 1.367 . S
C167 H147 0.950 . S
C167 C162 1.386 . S
C167 C166 1.367 . S
C168 C162 1.483 . S
C168 C169 1.382 . S
C168 C170 1.403 . S
C169 H148 0.950 . S
C169 C168 1.382 . S
C169 C185 1.411 . S
C170 C168 1.403 . S
C170 C171 1.489 . S
C170 C184 1.411 . S
C171 C170 1.489 . S
C171 C172 1.383 . S
C171 C176 1.382 . S
C172 H149 0.950 . S
C172 C171 1.383 . S
C172 C173 1.395 . S
C173 H150 0.950 . S
C173 C172 1.395 . S
C173 C174 1.288 . S
C174 C173 1.288 . S
C174 C175 1.392 . S
C175 H151 0.951 . S
C175 C174 1.392 . S
C175 C176 1.392 . S
C176 H152 0.949 . S
C176 C171 1.382 . S
C176 C175 1.392 . S
C177 C178 1.376 . S
C177 C182 1.386 . S
C177 C183 1.483 . S
C178 H153 0.949 . S
C178 C177 1.376 . S
C178 C179 1.397 . S
C179 H154 0.950 . S
C179 C178 1.397 . S
C179 C180 1.391 . S
C180 C179 1.391 . S
C180 C181 1.405 . S
C181 H155 0.950 . S
C181 C180 1.405 . S
C181 C182 1.367 . S
C182 H156 0.950 . S
C182 C177 1.386 . S
C182 C181 1.367 . S
C183 C177 1.483 . S
C183 C184 1.382 . S
C183 C185 1.403 . S
C184 H157 0.950 . S
C184 C170 1.411 . S
C184 C183 1.382 . S
C185 C169 1.411 . S
C185 C183 1.403 . S
C185 C186 1.489 . S
C186 C185 1.489 . S
C186 C187 1.383 . S
C186 C191 1.382 . S
C187 H158 0.950 . S
C187 C186 1.383 . S
C187 C188 1.395 . S
C188 H159 0.950 . S
C188 C187 1.395 . S
C188 C189 1.288 . S
C189 C188 1.288 . S
C189 C190 1.392 . S
C190 H160 0.951 . S
C190 C189 1.392 . S
C190 C191 1.392 . S
C191 H161 0.949 . S
C191 C186 1.382 . S
C191 C190 1.392 . S
H192 C211 0.949 . S
H193 C212 0.950 . S
H194 C214 0.950 . S
H195 C215 0.950 . S
H196 C217 0.950 . S
H197 C220 0.950 . S
H198 C221 0.950 . S
H199 C223 0.951 . S
H200 C224 0.949 . S
H201 C226 0.949 . S
H202 C227 0.950 . S
H203 C229 0.950 . S
H204 C230 0.950 . S
H205 C232 0.950 . S
H206 C235 0.950 . S
H207 C236 0.950 . S
H208 C238 0.951 . S
H209 C239 0.949 . S
C210 C211 1.376 . S
C210 C215 1.386 . S
C210 C216 1.483 . S
C211 H192 0.949 . S
C211 C210 1.376 . S
C211 C212 1.397 . S
C212 H193 0.950 . S
C212 C211 1.397 . S
C212 C213 1.391 . S
C213 C212 1.391 . S
C213 C214 1.405 . S
C214 H194 0.950 . S
C214 C213 1.405 . S
C214 C215 1.367 . S
C215 H195 0.950 . S
C215 C210 1.386 . S
C215 C214 1.367 . S
C216 C210 1.483 . S
C216 C217 1.382 . S
C216 C218 1.403 . S
C217 H196 0.950 . S
C217 C216 1.382 . S
C217 C233 1.411 . S
C218 C216 1.403 . S
C218 C219 1.489 . S
C218 C232 1.411 . S
C219 C218 1.489 . S
C219 C220 1.383 . S
C219 C224 1.382 . S
C220 H197 0.950 . S
C220 C219 1.383 . S
C220 C221 1.395 . S
C221 H198 0.950 . S
C221 C220 1.395 . S
C221 C222 1.288 . S
C222 C221 1.288 . S
C222 C223 1.392 . S
C223 H199 0.951 . S
C223 C222 1.392 . S
C223 C224 1.392 . S
C224 H200 0.949 . S
C224 C219 1.382 . S
C224 C223 1.392 . S
C225 C226 1.376 . S
C225 C230 1.386 . S
C225 C231 1.483 . S
C226 H201 0.949 . S
C226 C225 1.376 . S
C226 C227 1.397 . S
C227 H202 0.950 . S
C227 C226 1.397 . S
C227 C228 1.391 . S
C228 C227 1.391 . S
C228 C229 1.405 . S
C229 H203 0.950 . S
C229 C228 1.405 . S
C229 C230 1.367 . S
C230 H204 0.950 . S
C230 C225 1.386 . S
C230 C229 1.367 . S
C231 C225 1.483 . S
C231 C232 1.382 . S
C231 C233 1.403 . S
C232 H205 0.950 . S
C232 C218 1.411 . S
C232 C231 1.382 . S
C233 C217 1.411 . S
C233 C231 1.403 . S
C233 C234 1.489 . S
C234 C233 1.489 . S
C234 C235 1.383 . S
C234 C239 1.382 . S
C235 H206 0.950 . S
C235 C234 1.383 . S
C235 C236 1.395 . S
C236 H207 0.950 . S
C236 C235 1.395 . S
C236 C237 1.288 . S
C237 C236 1.288 . S
C237 C238 1.392 . S
C238 H208 0.951 . S
C238 C237 1.392 . S
C238 C239 1.392 . S
C239 H209 0.949 . S
C239 C234 1.382 . S
C239 C238 1.392 . S
H240 C259 0.949 . S
H241 C260 0.950 . S
H242 C262 0.950 . S
H243 C263 0.950 . S
H244 C265 0.950 . S
H245 C268 0.950 . S
H246 C269 0.950 . S
H247 C271 0.951 . S
H248 C272 0.949 . S
H249 C274 0.949 . S
H250 C275 0.950 . S
H251 C277 0.950 . S
H252 C278 0.950 . S
H253 C280 0.950 . S
H254 C283 0.950 . S
H255 C284 0.950 . S
H256 C286 0.951 . S
H257 C287 0.949 . S
C258 C259 1.376 . S
C258 C263 1.386 . S
C258 C264 1.483 . S
C259 H240 0.949 . S
C259 C258 1.376 . S
C259 C260 1.397 . S
C260 H241 0.950 . S
C260 C259 1.397 . S
C260 C261 1.391 . S
C261 C260 1.391 . S
C261 C262 1.405 . S
C262 H242 0.950 . S
C262 C261 1.405 . S
C262 C263 1.367 . S
C263 H243 0.950 . S
C263 C258 1.386 . S
C263 C262 1.367 . S
C264 C258 1.483 . S
C264 C265 1.382 . S
C264 C266 1.403 . S
C265 H244 0.950 . S
C265 C264 1.382 . S
C265 C281 1.411 . S
C266 C264 1.403 . S
C266 C267 1.489 . S
C266 C280 1.411 . S
C267 C266 1.489 . S
C267 C268 1.383 . S
C267 C272 1.382 . S
C268 H245 0.950 . S
C268 C267 1.383 . S
C268 C269 1.395 . S
C269 H246 0.950 . S
C269 C268 1.395 . S
C269 C270 1.288 . S
C270 C269 1.288 . S
C270 C271 1.392 . S
C271 H247 0.951 . S
C271 C270 1.392 . S
C271 C272 1.392 . S
C272 H248 0.949 . S
C272 C267 1.382 . S
C272 C271 1.392 . S
C273 C274 1.376 . S
C273 C278 1.386 . S
C273 C279 1.483 . S
C274 H249 0.949 . S
C274 C273 1.376 . S
C274 C275 1.397 . S
C275 H250 0.950 . S
C275 C274 1.397 . S
C275 C276 1.391 . S
C276 C275 1.391 . S
C276 C277 1.405 . S
C277 H251 0.950 . S
C277 C276 1.405 . S
C277 C278 1.367 . S
C278 H252 0.950 . S
C278 C273 1.386 . S
C278 C277 1.367 . S
C279 C273 1.483 . S
C279 C280 1.382 . S
C279 C281 1.403 . S
C280 H253 0.950 . S
C280 C266 1.411 . S
C280 C279 1.382 . S
C281 C265 1.411 . S
C281 C279 1.403 . S
C281 C282 1.489 . S
C282 C281 1.489 . S
C282 C283 1.383 . S
C282 C287 1.382 . S
C283 H254 0.950 . S
C283 C282 1.383 . S
C283 C284 1.395 . S
C284 H255 0.950 . S
C284 C283 1.395 . S
C284 C285 1.288 . S
C285 C284 1.288 . S
C285 C286 1.392 . S
C286 H256 0.951 . S
C286 C285 1.392 . S
C286 C287 1.392 . S
C287 H257 0.949 . S
C287 C282 1.382 . S
C287 C286 1.392 . S
H288 C307 0.949 . S
H289 C308 0.950 . S
H290 C310 0.950 . S
H291 C311 0.950 . S
H292 C313 0.950 . S
H293 C316 0.950 . S
H294 C317 0.950 . S
H295 C319 0.951 . S
H296 C320 0.949 . S
H297 C322 0.949 . S
H298 C323 0.950 . S
H299 C325 0.950 . S
H300 C326 0.950 . S
H301 C328 0.950 . S
H302 C331 0.950 . S
H303 C332 0.950 . S
H304 C334 0.951 . S
H305 C335 0.949 . S
C306 C307 1.376 . S
C306 C311 1.386 . S
C306 C312 1.483 . S
C307 H288 0.949 . S
C307 C306 1.376 . S
C307 C308 1.397 . S
C308 H289 0.950 . S
C308 C307 1.397 . S
C308 C309 1.391 . S
C309 C308 1.391 . S
C309 C310 1.405 . S
C310 H290 0.950 . S
C310 C309 1.405 . S
C310 C311 1.367 . S
C311 H291 0.950 . S
C311 C306 1.386 . S
C311 C310 1.367 . S
C312 C306 1.483 . S
C312 C313 1.382 . S
C312 C314 1.403 . S
C313 H292 0.950 . S
C313 C312 1.382 . S
C313 C329 1.411 . S
C314 C312 1.403 . S
C314 C315 1.489 . S
C314 C328 1.411 . S
C315 C314 1.489 . S
C315 C316 1.383 . S
C315 C320 1.382 . S
C316 H293 0.950 . S
C316 C315 1.383 . S
C316 C317 1.395 . S
C317 H294 0.950 . S
C317 C316 1.395 . S
C317 C318 1.288 . S
C318 C317 1.288 . S
C318 C319 1.392 . S
C319 H295 0.951 . S
C319 C318 1.392 . S
C319 C320 1.392 . S
C320 H296 0.949 . S
C320 C315 1.382 . S
C320 C319 1.392 . S
C321 C322 1.376 . S
C321 C326 1.386 . S
C321 C327 1.483 . S
C322 H297 0.949 . S
C322 C321 1.376 . S
C322 C323 1.397 . S
C323 H298 0.950 . S
C323 C322 1.397 . S
C323 C324 1.391 . S
C324 C323 1.391 . S
C324 C325 1.405 . S
C325 H299 0.950 . S
C325 C324 1.405 . S
C325 C326 1.367 . S
C326 H300 0.950 . S
C326 C321 1.386 . S
C326 C325 1.367 . S
C327 C321 1.483 . S
C327 C328 1.382 . S
C327 C329 1.403 . S
C328 H301 0.950 . S
C328 C314 1.411 . S
C328 C327 1.382 . S
C329 C313 1.411 . S
C329 C327 1.403 . S
C329 C330 1.489 . S
C330 C329 1.489 . S
C330 C331 1.383 . S
C330 C335 1.382 . S
C331 H302 0.950 . S
C331 C330 1.383 . S
C331 C332 1.395 . S
C332 H303 0.950 . S
C332 C331 1.395 . S
C332 C333 1.288 . S
C333 C332 1.288 . S
C333 C334 1.392 . S
C334 H304 0.951 . S
C334 C333 1.392 . S
C334 C335 1.392 . S
C335 H305 0.949 . S
C335 C330 1.382 . S
C335 C334 1.392 . S
H336 C355 0.949 . S
H337 C356 0.950 . S
H338 C358 0.950 . S
H339 C359 0.950 . S
H340 C361 0.950 . S
H341 C364 0.950 . S
H342 C365 0.950 . S
H343 C367 0.951 . S
H344 C368 0.949 . S
H345 C370 0.949 . S
H346 C371 0.950 . S
H347 C373 0.950 . S
H348 C374 0.950 . S
H349 C376 0.950 . S
H350 C379 0.950 . S
H351 C380 0.950 . S
H352 C382 0.951 . S
H353 C383 0.949 . S
C354 C355 1.376 . S
C354 C359 1.386 . S
C354 C360 1.483 . S
C355 H336 0.949 . S
C355 C354 1.376 . S
C355 C356 1.397 . S
C356 H337 0.950 . S
C356 C355 1.397 . S
C356 C357 1.391 . S
C357 C356 1.391 . S
C357 C358 1.405 . S
C358 H338 0.950 . S
C358 C357 1.405 . S
C358 C359 1.367 . S
C359 H339 0.950 . S
C359 C354 1.386 . S
C359 C358 1.367 . S
C360 C354 1.483 . S
C360 C361 1.382 . S
C360 C362 1.403 . S
C361 H340 0.950 . S
C361 C360 1.382 . S
C361 C377 1.411 . S
C362 C360 1.403 . S
C362 C363 1.489 . S
C362 C376 1.411 . S
C363 C362 1.489 . S
C363 C364 1.383 . S
C363 C368 1.382 . S
C364 H341 0.950 . S
C364 C363 1.383 . S
C364 C365 1.395 . S
C365 H342 0.950 . S
C365 C364 1.395 . S
C365 C366 1.288 . S
C366 C365 1.288 . S
C366 C367 1.392 . S
C367 H343 0.951 . S
C367 C366 1.392 . S
C367 C368 1.392 . S
C368 H344 0.949 . S
C368 C363 1.382 . S
C368 C367 1.392 . S
C369 C370 1.376 . S
C369 C374 1.386 . S
C369 C375 1.483 . S
C370 H345 0.949 . S
C370 C369 1.376 . S
C370 C371 1.397 . S
C371 H346 0.950 . S
C371 C370 1.397 . S
C371 C372 1.391 . S
C372 C371 1.391 . S
C372 C373 1.405 . S
C373 H347 0.950 . S
C373 C372 1.405 . S
C373 C374 1.367 . S
C374 H348 0.950 . S
C374 C369 1.386 . S
C374 C373 1.367 . S
C375 C369 1.483 . S
C375 C376 1.382 . S
C375 C377 1.403 . S
C376 H349 0.950 . S
C376 C362 1.411 . S
C376 C375 1.382 . S
C377 C361 1.411 . S
C377 C375 1.403 . S
C377 C378 1.489 . S
C378 C377 1.489 . S
C378 C379 1.383 . S
C378 C383 1.382 . S
C379 H350 0.950 . S
C379 C378 1.383 . S
C379 C380 1.395 . S
C380 H351 0.950 . S
C380 C379 1.395 . S
C380 C381 1.288 . S
C381 C380 1.288 . S
C381 C382 1.392 . S
C382 H352 0.951 . S
C382 C381 1.392 . S
C382 C383 1.392 . S
C383 H353 0.949 . S
C383 C378 1.382 . S
C383 C382 1.392 . S
C384 O386 1.247 . S
C384 O388 1.258 . S
C385 O392 1.247 . S
C385 O393 1.258 . S
O386 C384 1.247 . S
O386 Zn387 2.031 1_655 S
Zn387 O386 2.031 1_455 S
Zn387 O391 2.032 . S
Zn387 O393 2.032 . S
Zn387 O394 2.031 1_455 S
O388 C384 1.258 . S
O388 Zn389 2.023 1_655 S
Zn389 O388 2.023 1_455 S
Zn389 O390 2.040 . S
Zn389 O392 2.040 . S
Zn389 O395 2.023 1_455 S
O390 Zn389 2.040 . S
O390 C396 1.247 . S
O391 Zn387 2.032 . S
O391 C396 1.258 . S
O392 C385 1.247 . S
O392 Zn389 2.040 . S
O393 C385 1.258 . S
O393 Zn387 2.032 . S
O394 Zn387 2.031 1_655 S
O394 C397 1.247 . S
O395 Zn389 2.023 1_655 S
O395 C397 1.258 . S
C396 O390 1.247 . S
C396 O391 1.258 . S
C397 O394 1.247 . S
C397 O395 1.258 . S
C398 O400 1.247 . S
C398 O402 1.258 . S
C399 O406 1.247 . S
C399 O407 1.258 . S
O400 C398 1.247 . S
O400 Zn401 2.040 . S
Zn401 O400 2.040 . S
Zn401 O405 2.023 1_545 S
Zn401 O407 2.023 1_545 S
Zn401 O408 2.040 . S
O402 C398 1.258 . S
O402 Zn403 2.033 . S
Zn403 O402 2.033 . S
Zn403 O404 2.030 1_545 S
Zn403 O406 2.030 1_545 S
Zn403 O409 2.033 . S
O404 Zn403 2.030 1_565 S
O404 C410 1.247 . S
O405 Zn401 2.023 1_565 S
O405 C410 1.258 . S
O406 C399 1.247 . S
O406 Zn403 2.030 1_565 S
O407 C399 1.258 . S
O407 Zn401 2.023 1_565 S
O408 Zn401 2.040 . S
O408 C411 1.247 . S
O409 Zn403 2.033 . S
O409 C411 1.258 . S
C410 O404 1.247 . S
C410 O405 1.258 . S
C411 O408 1.247 . S
C411 O409 1.258 . S
C412 O414 1.247 . S
C412 O416 1.258 . S
C413 O420 1.247 . S
C413 O421 1.258 . S
O414 C412 1.247 . S
O414 Zn415 2.030 1_655 S
Zn415 O414 2.030 1_455 S
Zn415 O419 2.033 . S
Zn415 O421 2.033 . S
Zn415 O422 2.030 1_455 S
O416 C412 1.258 . S
O416 Zn417 2.023 1_655 S
Zn417 O416 2.023 1_455 S
Zn417 O418 2.040 . S
Zn417 O420 2.040 . S
Zn417 O423 2.023 1_455 S
O418 Zn417 2.040 . S
O418 C424 1.247 . S
O419 Zn415 2.033 . S
O419 C424 1.258 . S
O420 C413 1.247 . S
O420 Zn417 2.040 . S
O421 C413 1.258 . S
O421 Zn415 2.033 . S
O422 Zn415 2.030 1_655 S
O422 C425 1.247 . S
O423 Zn417 2.023 1_655 S
O423 C425 1.258 . S
C424 O418 1.247 . S
C424 O419 1.258 . S
C425 O422 1.247 . S
C425 O423 1.258 . S
C426 O428 1.247 . S
C426 O430 1.258 . S
C427 O434 1.247 . S
C427 O435 1.258 . S
O428 C426 1.247 . S
O428 Zn429 2.041 . S
Zn429 O428 2.041 . S
Zn429 O433 2.022 1_545 S
Zn429 O435 2.022 1_545 S
Zn429 O436 2.041 . S
O430 C426 1.258 . S
O430 Zn431 2.033 . S
Zn431 O430 2.033 . S
Zn431 O432 2.030 1_545 S
Zn431 O434 2.030 1_545 S
Zn431 O437 2.033 . S
O432 Zn431 2.030 1_565 S
O432 C438 1.247 . S
O433 Zn429 2.022 1_565 S
O433 C438 1.258 . S
O434 C427 1.247 . S
O434 Zn431 2.030 1_565 S
O435 C427 1.258 . S
O435 Zn429 2.022 1_565 S
O436 Zn429 2.041 . S
O436 C439 1.247 . S
O437 Zn431 2.033 . S
O437 C439 1.258 . S
C438 O432 1.247 . S
C438 O433 1.258 . S
C439 O436 1.247 . S
C439 O437 1.258 . S
C440 O442 1.247 . S
C440 O444 1.258 . S
C441 O448 1.247 . S
C441 O449 1.258 . S
O442 C440 1.247 . S
O442 Zn443 2.028 . S
Zn443 O442 2.028 . S
Zn443 O447 2.035 . S
Zn443 O449 2.035 1_554 S
Zn443 O450 2.028 1_554 S
O444 C440 1.258 . S
O444 Zn445 2.035 . S
Zn445 O444 2.035 . S
Zn445 O446 2.028 . S
Zn445 O448 2.028 1_554 S
Zn445 O451 2.035 1_554 S
O446 Zn445 2.028 . S
O446 C452 1.247 . S
O447 Zn443 2.035 . S
O447 C452 1.258 . S
O448 C441 1.247 . S
O448 Zn445 2.028 1_556 S
O449 C441 1.258 . S
O449 Zn443 2.035 1_556 S
O450 Zn443 2.028 1_556 S
O450 C453 1.247 . S
O451 Zn445 2.035 1_556 S
O451 C453 1.258 . S
C452 O446 1.247 . S
C452 O447 1.258 . S
C453 O450 1.247 . S
C453 O451 1.258 . S
C454 O456 1.247 . S
C454 O458 1.258 . S
C455 O462 1.247 . S
C455 O463 1.258 . S
O456 C454 1.247 . S
O456 Zn457 2.028 . S
Zn457 O456 2.028 . S
Zn457 O461 2.035 . S
Zn457 O463 2.035 1_554 S
Zn457 O464 2.028 1_554 S
O458 C454 1.258 . S
O458 Zn459 2.035 . S
Zn459 O458 2.035 . S
Zn459 O460 2.028 . S
Zn459 O462 2.028 1_554 S
Zn459 O465 2.035 1_554 S
O460 Zn459 2.028 . S
O460 C466 1.247 . S
O461 Zn457 2.035 . S
O461 C466 1.258 . S
O462 C455 1.247 . S
O462 Zn459 2.028 1_556 S
O463 C455 1.258 . S
O463 Zn457 2.035 1_556 S
O464 Zn457 2.028 1_556 S
O464 C467 1.247 . S
O465 Zn459 2.035 1_556 S
O465 C467 1.258 . S
C466 O460 1.247 . S
C466 O461 1.258 . S
C467 O464 1.247 . S
C467 O465 1.258 . S
C468 O470 1.247 . S
C468 O472 1.258 . S
C469 O476 1.247 . S
C469 O477 1.258 . S
O470 C468 1.247 . S
O470 Zn471 2.028 1_556 S
Zn471 O470 2.028 1_554 S
Zn471 O475 2.035 1_554 S
Zn471 O477 2.035 . S
Zn471 O478 2.028 . S
O472 C468 1.258 . S
O472 Zn473 2.035 1_556 S
Zn473 O472 2.035 1_554 S
Zn473 O474 2.028 1_554 S
Zn473 O476 2.028 . S
Zn473 O479 2.035 . S
O474 Zn473 2.028 1_556 S
O474 C480 1.247 . S
O475 Zn471 2.035 1_556 S
O475 C480 1.258 . S
O476 C469 1.247 . S
O476 Zn473 2.028 . S
O477 C469 1.258 . S
O477 Zn471 2.035 . S
O478 Zn471 2.028 . S
O478 C481 1.247 . S
O479 Zn473 2.035 . S
O479 C481 1.258 . S
C480 O474 1.247 . S
C480 O475 1.258 . S
C481 O478 1.247 . S
C481 O479 1.258 . S
C482 O484 1.247 . S
C482 O486 1.258 . S
C483 O490 1.247 . S
C483 O491 1.258 . S
O484 C482 1.247 . S
O484 Zn485 2.028 . S
Zn485 O484 2.028 . S
Zn485 O489 2.035 . S
Zn485 O491 2.035 1_554 S
Zn485 O492 2.028 1_554 S
O486 C482 1.258 . S
O486 Zn487 2.035 . S
Zn487 O486 2.035 . S
Zn487 O488 2.028 . S
Zn487 O490 2.028 1_554 S
Zn487 O493 2.035 1_554 S
O488 Zn487 2.028 . S
O488 C494 1.247 . S
O489 Zn485 2.035 . S
O489 C494 1.258 . S
O490 C483 1.247 . S
O490 Zn487 2.028 1_556 S
O491 C483 1.258 . S
O491 Zn485 2.035 1_556 S
O492 Zn485 2.028 1_556 S
O492 C495 1.247 . S
O493 Zn487 2.035 1_556 S
O493 C495 1.258 . S
C494 O488 1.247 . S
C494 O489 1.258 . S
C495 O492 1.247 . S
C495 O493 1.258 . S
C496 C497 1.363 . S
C496 C502 1.379 . S
C496 N504 1.356 . S
C497 C496 1.363 . S
C497 C503 1.363 . S
C498 C499 1.363 . S
C498 C503 1.379 . S
C498 N505 1.356 . S
C499 C498 1.363 . S
C499 C502 1.363 . S
N500 C502 1.356 . S
N500 H512 0.984 . S
N500 H513 0.985 . S
N501 C503 1.356 . S
N501 H506 0.984 . S
N501 H507 0.985 . S
C502 C496 1.379 . S
C502 C499 1.363 . S
C502 N500 1.356 . S
C503 C497 1.363 . S
C503 C498 1.379 . S
C503 N501 1.356 . S
N504 C496 1.356 . S
N504 H510 0.984 . S
N504 H511 0.984 . S
N505 C498 1.356 . S
N505 H508 0.984 . S
N505 H509 0.985 . S
H506 N501 0.984 . S
H507 N501 0.985 . S
H508 N505 0.984 . S
H509 N505 0.985 . S
H510 N504 0.984 . S
H511 N504 0.984 . S
H512 N500 0.984 . S
H513 N500 0.985 . S
C514 C515 1.363 . S
C514 C520 1.379 . S
C514 N522 1.356 . S
C515 C514 1.363 . S
C515 C521 1.363 . S
C516 C517 1.363 . S
C516 C521 1.379 . S
C516 N523 1.356 . S
C517 C516 1.363 . S
C517 C520 1.363 . S
N518 C520 1.356 . S
N518 H530 0.984 . S
N518 H531 0.985 . S
N519 C521 1.356 . S
N519 H524 0.984 . S
N519 H525 0.985 . S
C520 C514 1.379 . S
C520 C517 1.363 . S
C520 N518 1.356 . S
C521 C515 1.363 . S
C521 C516 1.379 . S
C521 N519 1.356 . S
N522 C514 1.356 . S
N522 H528 0.984 . S
N522 H529 0.984 . S
N523 C516 1.356 . S
N523 H526 0.984 . S
N523 H527 0.985 . S
H524 N519 0.984 . S
H525 N519 0.985 . S
H526 N523 0.984 . S
H527 N523 0.985 . S
H528 N522 0.984 . S
H529 N522 0.984 . S
H530 N518 0.984 . S
H531 N518 0.985 . S
C532 C533 1.363 . S
C532 C538 1.379 . S
C532 N540 1.356 . S
C533 C532 1.363 . S
C533 C539 1.363 . S
C534 C535 1.363 . S
C534 C539 1.379 . S
C534 N541 1.356 . S
C535 C534 1.363 . S
C535 C538 1.363 . S
N536 C538 1.356 . S
N536 H548 0.984 . S
N536 H549 0.985 . S
N537 C539 1.356 . S
N537 H542 0.984 . S
N537 H543 0.985 . S
C538 C532 1.379 . S
C538 C535 1.363 . S
C538 N536 1.356 . S
C539 C533 1.363 . S
C539 C534 1.379 . S
C539 N537 1.356 . S
N540 C532 1.356 . S
N540 H546 0.984 . S
N540 H547 0.984 . S
N541 C534 1.356 . S
N541 H544 0.984 . S
N541 H545 0.985 . S
H542 N537 0.984 . S
H543 N537 0.985 . S
H544 N541 0.984 . S
H545 N541 0.985 . S
H546 N540 0.984 . S
H547 N540 0.984 . S
H548 N536 0.984 . S
H549 N536 0.985 . S
C550 C551 1.363 . S
C550 C556 1.379 . S
C550 N558 1.356 . S
C551 C550 1.363 . S
C551 C557 1.363 . S
C552 C553 1.363 . S
C552 C557 1.379 . S
C552 N559 1.356 . S
C553 C552 1.363 . S
C553 C556 1.363 . S
N554 C556 1.356 . S
N554 H566 0.984 . S
N554 H567 0.985 . S
N555 C557 1.356 . S
N555 H560 0.984 . S
N555 H561 0.985 . S
C556 C550 1.379 . S
C556 C553 1.363 . S
C556 N554 1.356 . S
C557 C551 1.363 . S
C557 C552 1.379 . S
C557 N555 1.356 . S
N558 C550 1.356 . S
N558 H564 0.984 . S
N558 H565 0.984 . S
N559 C552 1.356 . S
N559 H562 0.984 . S
N559 H563 0.985 . S
H560 N555 0.984 . S
H561 N555 0.985 . S
H562 N559 0.984 . S
H563 N559 0.985 . S
H564 N558 0.984 . S
H565 N558 0.984 . S
H566 N554 0.984 . S
H567 N554 0.985 . S
C568 C569 1.363 . S
C568 C574 1.379 . S
C568 N576 1.356 . S
C569 C568 1.363 . S
C569 C575 1.363 . S
C570 C571 1.363 . S
C570 C575 1.379 . S
C570 N577 1.356 . S
C571 C570 1.363 . S
C571 C574 1.363 . S
N572 C574 1.356 . S
N572 H584 0.984 . S
N572 H585 0.985 . S
N573 C575 1.356 . S
N573 H578 0.984 . S
N573 H579 0.985 . S
C574 C568 1.379 . S
C574 C571 1.363 . S
C574 N572 1.356 . S
C575 C569 1.363 . S
C575 C570 1.379 . S
C575 N573 1.356 . S
N576 C568 1.356 . S
N576 H582 0.984 . S
N576 H583 0.984 . S
N577 C570 1.356 . S
N577 H580 0.984 . S
N577 H581 0.985 . S
H578 N573 0.984 . S
H579 N573 0.985 . S
H580 N577 0.984 . S
H581 N577 0.985 . S
H582 N576 0.984 . S
H583 N576 0.984 . S
H584 N572 0.984 . S
H585 N572 0.985 . S
C586 C587 1.363 . S
C586 C592 1.379 . S
C586 N594 1.356 . S
C587 C586 1.363 . S
C587 C593 1.363 . S
C588 C589 1.363 . S
C588 C593 1.379 . S
C588 N595 1.356 . S
C589 C588 1.363 . S
C589 C592 1.363 . S
N590 C592 1.356 . S
N590 H602 0.984 . S
N590 H603 0.985 . S
N591 C593 1.356 . S
N591 H596 0.984 . S
N591 H597 0.985 . S
C592 C586 1.379 . S
C592 C589 1.363 . S
C592 N590 1.356 . S
C593 C587 1.363 . S
C593 C588 1.379 . S
C593 N591 1.356 . S
N594 C586 1.356 . S
N594 H600 0.984 . S
N594 H601 0.984 . S
N595 C588 1.356 . S
N595 H598 0.984 . S
N595 H599 0.985 . S
H596 N591 0.984 . S
H597 N591 0.985 . S
H598 N595 0.984 . S
H599 N595 0.985 . S
H600 N594 0.984 . S
H601 N594 0.984 . S
H602 N590 0.984 . S
H603 N590 0.985 . S
C604 C605 1.363 . S
C604 C610 1.379 . S
C604 N612 1.356 . S
C605 C604 1.363 . S
C605 C611 1.363 . S
C606 C607 1.363 . S
C606 C611 1.379 . S
C606 N613 1.356 . S
C607 C606 1.363 . S
C607 C610 1.363 . S
N608 C610 1.356 . S
N608 H620 0.984 . S
N608 H621 0.985 . S
N609 C611 1.356 . S
N609 H614 0.984 . S
N609 H615 0.985 . S
C610 C604 1.379 . S
C610 C607 1.363 . S
C610 N608 1.356 . S
C611 C605 1.363 . S
C611 C606 1.379 . S
C611 N609 1.356 . S
N612 C604 1.356 . S
N612 H618 0.984 . S
N612 H619 0.984 . S
N613 C606 1.356 . S
N613 H616 0.984 . S
N613 H617 0.985 . S
H614 N609 0.984 . S
H615 N609 0.985 . S
H616 N613 0.984 . S
H617 N613 0.985 . S
H618 N612 0.984 . S
H619 N612 0.984 . S
H620 N608 0.984 . S
H621 N608 0.985 . S
C622 C623 1.363 . S
C622 C628 1.379 . S
C622 N630 1.356 . S
C623 C622 1.363 . S
C623 C629 1.363 . S
C624 C625 1.363 . S
C624 C629 1.379 . S
C624 N631 1.356 . S
C625 C624 1.363 . S
C625 C628 1.363 . S
N626 C628 1.356 . S
N626 H638 0.984 . S
N626 H639 0.985 . S
N627 C629 1.356 . S
N627 H632 0.984 . S
N627 H633 0.985 . S
C628 C622 1.379 . S
C628 C625 1.363 . S
C628 N626 1.356 . S
C629 C623 1.363 . S
C629 C624 1.379 . S
C629 N627 1.356 . S
N630 C622 1.356 . S
N630 H636 0.984 . S
N630 H637 0.984 . S
N631 C624 1.356 . S
N631 H634 0.984 . S
N631 H635 0.985 . S
H632 N627 0.984 . S
H633 N627 0.985 . S
H634 N631 0.984 . S
H635 N631 0.985 . S
H636 N630 0.984 . S
H637 N630 0.984 . S
H638 N626 0.984 . S
H639 N626 0.985 . S
C640 C641 1.363 . S
C640 C646 1.379 . S
C640 N648 1.356 . S
C641 C640 1.363 . S
C641 C647 1.363 . S
C642 C643 1.363 . S
C642 C647 1.379 . S
C642 N649 1.356 . S
C643 C642 1.363 . S
C643 C646 1.363 . S
N644 C646 1.356 . S
N644 H656 0.984 . S
N644 H657 0.985 . S
N645 C647 1.356 . S
N645 H650 0.984 . S
N645 H651 0.985 . S
C646 C640 1.379 . S
C646 C643 1.363 . S
C646 N644 1.356 . S
C647 C641 1.363 . S
C647 C642 1.379 . S
C647 N645 1.356 . S
N648 C640 1.356 . S
N648 H654 0.984 . S
N648 H655 0.984 . S
N649 C642 1.356 . S
N649 H652 0.984 . S
N649 H653 0.985 . S
H650 N645 0.984 . S
H651 N645 0.985 . S
H652 N649 0.984 . S
H653 N649 0.985 . S
H654 N648 0.984 . S
H655 N648 0.984 . S
H656 N644 0.984 . S
H657 N644 0.985 . S
C658 C659 1.363 . S
C658 C664 1.379 . S
C658 N666 1.356 . S
C659 C658 1.363 . S
C659 C665 1.363 . S
C660 C661 1.363 . S
C660 C665 1.379 . S
C660 N667 1.356 . S
C661 C660 1.363 . S
C661 C664 1.363 . S
N662 C664 1.356 . S
N662 H674 0.984 . S
N662 H675 0.985 . S
N663 C665 1.356 . S
N663 H668 0.984 . S
N663 H669 0.985 . S
C664 C658 1.379 . S
C664 C661 1.363 . S
C664 N662 1.356 . S
C665 C659 1.363 . S
C665 C660 1.379 . S
C665 N663 1.356 . S
N666 C658 1.356 . S
N666 H672 0.984 . S
N666 H673 0.984 . S
N667 C660 1.356 . S
N667 H670 0.984 . S
N667 H671 0.985 . S
H668 N663 0.984 . S
H669 N663 0.985 . S
H670 N667 0.984 . S
H671 N667 0.985 . S
H672 N666 0.984 . S
H673 N666 0.984 . S
H674 N662 0.984 . S
H675 N662 0.985 . S
C676 C677 1.363 . S
C676 C682 1.379 . S
C676 N684 1.356 . S
C677 C676 1.363 . S
C677 C683 1.363 . S
C678 C679 1.363 . S
C678 C683 1.379 . S
C678 N685 1.356 . S
C679 C678 1.363 . S
C679 C682 1.363 . S
N680 C682 1.356 . S
N680 H692 0.984 . S
N680 H693 0.985 . S
N681 C683 1.356 . S
N681 H686 0.984 . S
N681 H687 0.985 . S
C682 C676 1.379 . S
C682 C679 1.363 . S
C682 N680 1.356 . S
C683 C677 1.363 . S
C683 C678 1.379 . S
C683 N681 1.356 . S
N684 C676 1.356 . S
N684 H690 0.984 . S
N684 H691 0.984 . S
N685 C678 1.356 . S
N685 H688 0.984 . S
N685 H689 0.985 . S
H686 N681 0.984 . S
H687 N681 0.985 . S
H688 N685 0.984 . S
H689 N685 0.985 . S
H690 N684 0.984 . S
H691 N684 0.984 . S
H692 N680 0.984 . S
H693 N680 0.985 . S
C694 C695 1.363 . S
C694 C700 1.379 . S
C694 N702 1.356 . S
C695 C694 1.363 . S
C695 C701 1.363 . S
C696 C697 1.363 . S
C696 C701 1.379 . S
C696 N703 1.356 . S
C697 C696 1.363 . S
C697 C700 1.363 . S
N698 C700 1.356 . S
N698 H710 0.984 . S
N698 H711 0.985 . S
N699 C701 1.356 . S
N699 H704 0.984 . S
N699 H705 0.985 . S
C700 C694 1.379 . S
C700 C697 1.363 . S
C700 N698 1.356 . S
C701 C695 1.363 . S
C701 C696 1.379 . S
C701 N699 1.356 . S
N702 C694 1.356 . S
N702 H708 0.984 . S
N702 H709 0.984 . S
N703 C696 1.356 . S
N703 H706 0.984 . S
N703 H707 0.985 . S
H704 N699 0.984 . S
H705 N699 0.985 . S
H706 N703 0.984 . S
H707 N703 0.985 . S
H708 N702 0.984 . S
H709 N702 0.984 . S
H710 N698 0.984 . S
H711 N698 0.985 . S
C712 C713 1.363 . S
C712 C718 1.379 . S
C712 N720 1.356 . S
C713 C712 1.363 . S
C713 C719 1.363 . S
C714 C715 1.363 . S
C714 C719 1.379 . S
C714 N721 1.356 . S
C715 C714 1.363 . S
C715 C718 1.363 . S
N716 C718 1.356 . S
N716 H728 0.984 . S
N716 H729 0.985 . S
N717 C719 1.356 . S
N717 H722 0.984 . S
N717 H723 0.985 . S
C718 C712 1.379 . S
C718 C715 1.363 . S
C718 N716 1.356 . S
C719 C713 1.363 . S
C719 C714 1.379 . S
C719 N717 1.356 . S
N720 C712 1.356 . S
N720 H726 0.984 . S
N720 H727 0.984 . S
N721 C714 1.356 . S
N721 H724 0.984 . S
N721 H725 0.985 . S
H722 N717 0.984 . S
H723 N717 0.985 . S
H724 N721 0.984 . S
H725 N721 0.985 . S
H726 N720 0.984 . S
H727 N720 0.984 . S
H728 N716 0.984 . S
H729 N716 0.985 . S
C730 C731 1.363 . S
C730 C736 1.379 . S
C730 N738 1.356 . S
C731 C730 1.363 . S
C731 C737 1.363 . S
C732 C733 1.363 . S
C732 C737 1.379 . S
C732 N739 1.356 . S
C733 C732 1.363 . S
C733 C736 1.363 . S
N734 C736 1.356 . S
N734 H746 0.984 . S
N734 H747 0.985 . S
N735 C737 1.356 . S
N735 H740 0.984 . S
N735 H741 0.985 . S
C736 C730 1.379 . S
C736 C733 1.363 . S
C736 N734 1.356 . S
C737 C731 1.363 . S
C737 C732 1.379 . S
C737 N735 1.356 . S
N738 C730 1.356 . S
N738 H744 0.984 . S
N738 H745 0.984 . S
N739 C732 1.356 . S
N739 H742 0.984 . S
N739 H743 0.985 . S
H740 N735 0.984 . S
H741 N735 0.985 . S
H742 N739 0.984 . S
H743 N739 0.985 . S
H744 N738 0.984 . S
H745 N738 0.984 . S
H746 N734 0.984 . S
H747 N734 0.985 . S
C748 C749 1.363 . S
C748 C754 1.379 . S
C748 N756 1.356 . S
C749 C748 1.363 . S
C749 C755 1.363 . S
C750 C751 1.363 . S
C750 C755 1.379 . S
C750 N757 1.356 . S
C751 C750 1.363 . S
C751 C754 1.363 . S
N752 C754 1.356 . S
N752 H764 0.984 . S
N752 H765 0.985 . S
N753 C755 1.356 . S
N753 H758 0.984 . S
N753 H759 0.985 . S
C754 C748 1.379 . S
C754 C751 1.363 . S
C754 N752 1.356 . S
C755 C749 1.363 . S
C755 C750 1.379 . S
C755 N753 1.356 . S
N756 C748 1.356 . S
N756 H762 0.984 . S
N756 H763 0.984 . S
N757 C750 1.356 . S
N757 H760 0.984 . S
N757 H761 0.985 . S
H758 N753 0.984 . S
H759 N753 0.985 . S
H760 N757 0.984 . S
H761 N757 0.985 . S
H762 N756 0.984 . S
H763 N756 0.984 . S
H764 N752 0.984 . S
H765 N752 0.985 . S
C766 C767 1.363 . S
C766 C772 1.379 . S
C766 N774 1.356 . S
C767 C766 1.363 . S
C767 C773 1.363 . S
C768 C769 1.363 . S
C768 C773 1.379 . S
C768 N775 1.356 . S
C769 C768 1.363 . S
C769 C772 1.363 . S
N770 C772 1.356 . S
N770 H782 0.984 . S
N770 H783 0.985 . S
N771 C773 1.356 . S
N771 H776 0.984 . S
N771 H777 0.985 . S
C772 C766 1.379 . S
C772 C769 1.363 . S
C772 N770 1.356 . S
C773 C767 1.363 . S
C773 C768 1.379 . S
C773 N771 1.356 . S
N774 C766 1.356 . S
N774 H780 0.984 . S
N774 H781 0.984 . S
N775 C768 1.356 . S
N775 H778 0.984 . S
N775 H779 0.985 . S
H776 N771 0.984 . S
H777 N771 0.985 . S
H778 N775 0.984 . S
H779 N775 0.985 . S
H780 N774 0.984 . S
H781 N774 0.984 . S
H782 N770 0.984 . S
H783 N770 0.985 . S
C784 C785 1.363 . S
C784 C790 1.379 . S
C784 N792 1.356 . S
C785 C784 1.363 . S
C785 C791 1.363 . S
C786 C787 1.363 . S
C786 C791 1.379 . S
C786 N793 1.356 . S
C787 C786 1.363 . S
C787 C790 1.363 . S
N788 C790 1.356 . S
N788 H800 0.984 . S
N788 H801 0.985 . S
N789 C791 1.356 . S
N789 H794 0.984 . S
N789 H795 0.985 . S
C790 C784 1.379 . S
C790 C787 1.363 . S
C790 N788 1.356 . S
C791 C785 1.363 . S
C791 C786 1.379 . S
C791 N789 1.356 . S
N792 C784 1.356 . S
N792 H798 0.984 . S
N792 H799 0.984 . S
N793 C786 1.356 . S
N793 H796 0.984 . S
N793 H797 0.985 . S
H794 N789 0.984 . S
H795 N789 0.985 . S
H796 N793 0.984 . S
H797 N793 0.985 . S
H798 N792 0.984 . S
H799 N792 0.984 . S
H800 N788 0.984 . S
H801 N788 0.985 . S
C802 C803 1.363 . S
C802 C808 1.379 . S
C802 N810 1.356 . S
C803 C802 1.363 . S
C803 C809 1.363 . S
C804 C805 1.363 . S
C804 C809 1.379 . S
C804 N811 1.356 . S
C805 C804 1.363 . S
C805 C808 1.363 . S
N806 C808 1.356 . S
N806 H818 0.984 . S
N806 H819 0.985 . S
N807 C809 1.356 . S
N807 H812 0.984 . S
N807 H813 0.985 . S
C808 C802 1.379 . S
C808 C805 1.363 . S
C808 N806 1.356 . S
C809 C803 1.363 . S
C809 C804 1.379 . S
C809 N807 1.356 . S
N810 C802 1.356 . S
N810 H816 0.984 . S
N810 H817 0.984 . S
N811 C804 1.356 . S
N811 H814 0.984 . S
N811 H815 0.985 . S
H812 N807 0.984 . S
H813 N807 0.985 . S
H814 N811 0.984 . S
H815 N811 0.985 . S
H816 N810 0.984 . S
H817 N810 0.984 . S
H818 N806 0.984 . S
H819 N806 0.985 . S
C820 C821 1.363 . S
C820 C826 1.379 . S
C820 N828 1.356 . S
C821 C820 1.363 . S
C821 C827 1.363 . S
C822 C823 1.363 . S
C822 C827 1.379 . S
C822 N829 1.356 . S
C823 C822 1.363 . S
C823 C826 1.363 . S
N824 C826 1.356 . S
N824 H836 0.984 . S
N824 H837 0.985 . S
N825 C827 1.356 . S
N825 H830 0.984 . S
N825 H831 0.985 . S
C826 C820 1.379 . S
C826 C823 1.363 . S
C826 N824 1.356 . S
C827 C821 1.363 . S
C827 C822 1.379 . S
C827 N825 1.356 . S
N828 C820 1.356 . S
N828 H834 0.984 . S
N828 H835 0.984 . S
N829 C822 1.356 . S
N829 H832 0.984 . S
N829 H833 0.985 . S
H830 N825 0.984 . S
H831 N825 0.985 . S
H832 N829 0.984 . S
H833 N829 0.985 . S
H834 N828 0.984 . S
H835 N828 0.984 . S
H836 N824 0.984 . S
H837 N824 0.985 . S
C838 C839 1.363 . S
C838 C844 1.379 . S
C838 N846 1.356 . S
C839 C838 1.363 . S
C839 C845 1.363 . S
C840 C841 1.363 . S
C840 C845 1.379 . S
C840 N847 1.356 . S
C841 C840 1.363 . S
C841 C844 1.363 . S
N842 C844 1.356 . S
N842 H854 0.984 . S
N842 H855 0.985 . S
N843 C845 1.356 . S
N843 H848 0.984 . S
N843 H849 0.985 . S
C844 C838 1.379 . S
C844 C841 1.363 . S
C844 N842 1.356 . S
C845 C839 1.363 . S
C845 C840 1.379 . S
C845 N843 1.356 . S
N846 C838 1.356 . S
N846 H852 0.984 . S
N846 H853 0.984 . S
N847 C840 1.356 . S
N847 H850 0.984 . S
N847 H851 0.985 . S
H848 N843 0.984 . S
H849 N843 0.985 . S
H850 N847 0.984 . S
H851 N847 0.985 . S
H852 N846 0.984 . S
H853 N846 0.984 . S
H854 N842 0.984 . S
H855 N842 0.985 . S
C856 C857 1.363 . S
C856 C862 1.379 . S
C856 N864 1.356 . S
C857 C856 1.363 . S
C857 C863 1.363 . S
C858 C859 1.363 . S
C858 C863 1.379 . S
C858 N865 1.356 . S
C859 C858 1.363 . S
C859 C862 1.363 . S
N860 C862 1.356 . S
N860 H872 0.984 . S
N860 H873 0.985 . S
N861 C863 1.356 . S
N861 H866 0.984 . S
N861 H867 0.985 . S
C862 C856 1.379 . S
C862 C859 1.363 . S
C862 N860 1.356 . S
C863 C857 1.363 . S
C863 C858 1.379 . S
C863 N861 1.356 . S
N864 C856 1.356 . S
N864 H870 0.984 . S
N864 H871 0.984 . S
N865 C858 1.356 . S
N865 H868 0.984 . S
N865 H869 0.985 . S
H866 N861 0.984 . S
H867 N861 0.985 . S
H868 N865 0.984 . S
H869 N865 0.985 . S
H870 N864 0.984 . S
H871 N864 0.984 . S
H872 N860 0.984 . S
H873 N860 0.985 . S
C874 C875 1.363 . S
C874 C880 1.379 . S
C874 N882 1.356 . S
C875 C874 1.363 . S
C875 C881 1.363 . S
C876 C877 1.363 . S
C876 C881 1.379 . S
C876 N883 1.356 . S
C877 C876 1.363 . S
C877 C880 1.363 . S
N878 C880 1.356 . S
N878 H890 0.984 . S
N878 H891 0.985 . S
N879 C881 1.356 . S
N879 H884 0.984 . S
N879 H885 0.985 . S
C880 C874 1.379 . S
C880 C877 1.363 . S
C880 N878 1.356 . S
C881 C875 1.363 . S
C881 C876 1.379 . S
C881 N879 1.356 . S
N882 C874 1.356 . S
N882 H888 0.984 . S
N882 H889 0.984 . S
N883 C876 1.356 . S
N883 H886 0.984 . S
N883 H887 0.985 . S
H884 N879 0.984 . S
H885 N879 0.985 . S
H886 N883 0.984 . S
H887 N883 0.985 . S
H888 N882 0.984 . S
H889 N882 0.984 . S
H890 N878 0.984 . S
H891 N878 0.985 . S
C892 C893 1.363 . S
C892 C898 1.379 . S
C892 N900 1.356 . S
C893 C892 1.363 . S
C893 C899 1.363 . S
C894 C895 1.363 . S
C894 C899 1.379 . S
C894 N901 1.356 . S
C895 C894 1.363 . S
C895 C898 1.363 . S
N896 C898 1.356 . S
N896 H908 0.984 . S
N896 H909 0.985 . S
N897 C899 1.356 . S
N897 H902 0.984 . S
N897 H903 0.985 . S
C898 C892 1.379 . S
C898 C895 1.363 . S
C898 N896 1.356 . S
C899 C893 1.363 . S
C899 C894 1.379 . S
C899 N897 1.356 . S
N900 C892 1.356 . S
N900 H906 0.984 . S
N900 H907 0.984 . S
N901 C894 1.356 . S
N901 H904 0.984 . S
N901 H905 0.985 . S
H902 N897 0.984 . S
H903 N897 0.985 . S
H904 N901 0.984 . S
H905 N901 0.985 . S
H906 N900 0.984 . S
H907 N900 0.984 . S
H908 N896 0.984 . S
H909 N896 0.985 . S
C910 C911 1.363 . S
C910 C916 1.379 . S
C910 N918 1.356 . S
C911 C910 1.363 . S
C911 C917 1.363 . S
C912 C913 1.363 . S
C912 C917 1.379 . S
C912 N919 1.356 . S
C913 C912 1.363 . S
C913 C916 1.363 . S
N914 C916 1.356 . S
N914 H926 0.984 . S
N914 H927 0.985 . S
N915 C917 1.356 . S
N915 H920 0.984 . S
N915 H921 0.985 . S
C916 C910 1.379 . S
C916 C913 1.363 . S
C916 N914 1.356 . S
C917 C911 1.363 . S
C917 C912 1.379 . S
C917 N915 1.356 . S
N918 C910 1.356 . S
N918 H924 0.984 . S
N918 H925 0.984 . S
N919 C912 1.356 . S
N919 H922 0.984 . S
N919 H923 0.985 . S
H920 N915 0.984 . S
H921 N915 0.985 . S
H922 N919 0.984 . S
H923 N919 0.985 . S
H924 N918 0.984 . S
H925 N918 0.984 . S
H926 N914 0.984 . S
H927 N914 0.985 . S
C928 C929 1.363 . S
C928 C934 1.379 . S
C928 N936 1.356 . S
C929 C928 1.363 . S
C929 C935 1.363 . S
C930 C931 1.363 . S
C930 C935 1.379 . S
C930 N937 1.356 . S
C931 C930 1.363 . S
C931 C934 1.363 . S
N932 C934 1.356 . S
N932 H944 0.984 . S
N932 H945 0.985 . S
N933 C935 1.356 . S
N933 H938 0.984 . S
N933 H939 0.985 . S
C934 C928 1.379 . S
C934 C931 1.363 . S
C934 N932 1.356 . S
C935 C929 1.363 . S
C935 C930 1.379 . S
C935 N933 1.356 . S
N936 C928 1.356 . S
N936 H942 0.984 . S
N936 H943 0.984 . S
N937 C930 1.356 . S
N937 H940 0.984 . S
N937 H941 0.985 . S
H938 N933 0.984 . S
H939 N933 0.985 . S
H940 N937 0.984 . S
H941 N937 0.985 . S
H942 N936 0.984 . S
H943 N936 0.984 . S
H944 N932 0.984 . S
H945 N932 0.985 . S
C946 C947 1.363 . S
C946 C952 1.379 . S
C946 N954 1.356 . S
C947 C946 1.363 . S
C947 C953 1.363 . S
C948 C949 1.363 . S
C948 C953 1.379 . S
C948 N955 1.356 . S
C949 C948 1.363 . S
C949 C952 1.363 . S
N950 C952 1.356 . S
N950 H962 0.984 . S
N950 H963 0.985 . S
N951 C953 1.356 . S
N951 H956 0.984 . S
N951 H957 0.985 . S
C952 C946 1.379 . S
C952 C949 1.363 . S
C952 N950 1.356 . S
C953 C947 1.363 . S
C953 C948 1.379 . S
C953 N951 1.356 . S
N954 C946 1.356 . S
N954 H960 0.984 . S
N954 H961 0.984 . S
N955 C948 1.356 . S
N955 H958 0.984 . S
N955 H959 0.985 . S
H956 N951 0.984 . S
H957 N951 0.985 . S
H958 N955 0.984 . S
H959 N955 0.985 . S
H960 N954 0.984 . S
H961 N954 0.984 . S
H962 N950 0.984 . S
H963 N950 0.985 . S
C964 C965 1.363 . S
C964 C970 1.379 . S
C964 N972 1.356 . S
C965 C964 1.363 . S
C965 C971 1.363 . S
C966 C967 1.363 . S
C966 C971 1.379 . S
C966 N973 1.356 . S
C967 C966 1.363 . S
C967 C970 1.363 . S
N968 C970 1.356 . S
N968 H980 0.984 . S
N968 H981 0.985 . S
N969 C971 1.356 . S
N969 H974 0.984 . S
N969 H975 0.985 . S
C970 C964 1.379 . S
C970 C967 1.363 . S
C970 N968 1.356 . S
C971 C965 1.363 . S
C971 C966 1.379 . S
C971 N969 1.356 . S
N972 C964 1.356 . S
N972 H978 0.984 . S
N972 H979 0.984 . S
N973 C966 1.356 . S
N973 H976 0.984 . S
N973 H977 0.985 . S
H974 N969 0.984 . S
H975 N969 0.985 . S
H976 N973 0.984 . S
H977 N973 0.985 . S
H978 N972 0.984 . S
H979 N972 0.984 . S
H980 N968 0.984 . S
H981 N968 0.985 . S
C982 C983 1.363 . S
C982 C988 1.379 . S
C982 N990 1.356 . S
C983 C982 1.363 . S
C983 C989 1.363 . S
C984 C985 1.363 . S
C984 C989 1.379 . S
C984 N991 1.356 . S
C985 C984 1.363 . S
C985 C988 1.363 . S
N986 C988 1.356 . S
N986 H998 0.984 . S
N986 H999 0.985 . S
N987 C989 1.356 . S
N987 H992 0.984 . S
N987 H993 0.985 . S
C988 C982 1.379 . S
C988 C985 1.363 . S
C988 N986 1.356 . S
C989 C983 1.363 . S
C989 C984 1.379 . S
C989 N987 1.356 . S
N990 C982 1.356 . S
N990 H996 0.984 . S
N990 H997 0.984 . S
N991 C984 1.356 . S
N991 H994 0.984 . S
N991 H995 0.985 . S
H992 N987 0.984 . S
H993 N987 0.985 . S
H994 N991 0.984 . S
H995 N991 0.985 . S
H996 N990 0.984 . S
H997 N990 0.984 . S
H998 N986 0.984 . S
H999 N986 0.985 . S
C1000 C1001 1.363 . S
C1000 C1006 1.379 . S
C1000 N1008 1.356 . S
C1001 C1000 1.363 . S
C1001 C1007 1.363 . S
C1002 C1003 1.363 . S
C1002 C1007 1.379 . S
C1002 N1009 1.356 . S
C1003 C1002 1.363 . S
C1003 C1006 1.363 . S
N1004 C1006 1.356 . S
N1004 H1016 0.984 . S
N1004 H1017 0.985 . S
N1005 C1007 1.356 . S
N1005 H1010 0.984 . S
N1005 H1011 0.985 . S
C1006 C1000 1.379 . S
C1006 C1003 1.363 . S
C1006 N1004 1.356 . S
C1007 C1001 1.363 . S
C1007 C1002 1.379 . S
C1007 N1005 1.356 . S
N1008 C1000 1.356 . S
N1008 H1014 0.984 . S
N1008 H1015 0.984 . S
N1009 C1002 1.356 . S
N1009 H1012 0.984 . S
N1009 H1013 0.985 . S
H1010 N1005 0.984 . S
H1011 N1005 0.985 . S
H1012 N1009 0.984 . S
H1013 N1009 0.985 . S
H1014 N1008 0.984 . S
H1015 N1008 0.984 . S
H1016 N1004 0.984 . S
H1017 N1004 0.985 . S
C1018 C1019 1.363 . S
C1018 C1024 1.379 . S
C1018 N1026 1.356 . S
C1019 C1018 1.363 . S
C1019 C1025 1.363 . S
C1020 C1021 1.363 . S
C1020 C1025 1.379 . S
C1020 N1027 1.356 . S
C1021 C1020 1.363 . S
C1021 C1024 1.363 . S
N1022 C1024 1.356 . S
N1022 H1034 0.984 . S
N1022 H1035 0.985 . S
N1023 C1025 1.356 . S
N1023 H1028 0.984 . S
N1023 H1029 0.985 . S
C1024 C1018 1.379 . S
C1024 C1021 1.363 . S
C1024 N1022 1.356 . S
C1025 C1019 1.363 . S
C1025 C1020 1.379 . S
C1025 N1023 1.356 . S
N1026 C1018 1.356 . S
N1026 H1032 0.984 . S
N1026 H1033 0.984 . S
N1027 C1020 1.356 . S
N1027 H1030 0.984 . S
N1027 H1031 0.985 . S
H1028 N1023 0.984 . S
H1029 N1023 0.985 . S
H1030 N1027 0.984 . S
H1031 N1027 0.985 . S
H1032 N1026 0.984 . S
H1033 N1026 0.984 . S
H1034 N1022 0.984 . S
H1035 N1022 0.985 . S
C1036 C1037 1.363 . S
C1036 C1042 1.379 . S
C1036 N1044 1.356 . S
C1037 C1036 1.363 . S
C1037 C1043 1.363 . S
C1038 C1039 1.363 . S
C1038 C1043 1.379 . S
C1038 N1045 1.356 . S
C1039 C1038 1.363 . S
C1039 C1042 1.363 . S
N1040 C1042 1.356 . S
N1040 H1052 0.984 . S
N1040 H1053 0.985 . S
N1041 C1043 1.356 . S
N1041 H1046 0.984 . S
N1041 H1047 0.985 . S
C1042 C1036 1.379 . S
C1042 C1039 1.363 . S
C1042 N1040 1.356 . S
C1043 C1037 1.363 . S
C1043 C1038 1.379 . S
C1043 N1041 1.356 . S
N1044 C1036 1.356 . S
N1044 H1050 0.984 . S
N1044 H1051 0.984 . S
N1045 C1038 1.356 . S
N1045 H1048 0.984 . S
N1045 H1049 0.985 . S
H1046 N1041 0.984 . S
H1047 N1041 0.985 . S
H1048 N1045 0.984 . S
H1049 N1045 0.985 . S
H1050 N1044 0.984 . S
H1051 N1044 0.984 . S
H1052 N1040 0.984 . S
H1053 N1040 0.985 . S
C1054 C1055 1.363 . S
C1054 C1060 1.379 . S
C1054 N1062 1.356 . S
C1055 C1054 1.363 . S
C1055 C1061 1.363 . S
C1056 C1057 1.363 . S
C1056 C1061 1.379 . S
C1056 N1063 1.356 . S
C1057 C1056 1.363 . S
C1057 C1060 1.363 . S
N1058 C1060 1.356 . S
N1058 H1070 0.984 . S
N1058 H1071 0.985 . S
N1059 C1061 1.356 . S
N1059 H1064 0.984 . S
N1059 H1065 0.985 . S
C1060 C1054 1.379 . S
C1060 C1057 1.363 . S
C1060 N1058 1.356 . S
C1061 C1055 1.363 . S
C1061 C1056 1.379 . S
C1061 N1059 1.356 . S
N1062 C1054 1.356 . S
N1062 H1068 0.984 . S
N1062 H1069 0.984 . S
N1063 C1056 1.356 . S
N1063 H1066 0.984 . S
N1063 H1067 0.985 . S
H1064 N1059 0.984 . S
H1065 N1059 0.985 . S
H1066 N1063 0.984 . S
H1067 N1063 0.985 . S
H1068 N1062 0.984 . S
H1069 N1062 0.984 . S
H1070 N1058 0.984 . S
H1071 N1058 0.985 . S
C499 C385 1.501 . S
C497 C36 1.502 . S
C517 C411 1.500 . S
C515 C93 1.496 . S
C535 C425 1.501 . S
C533 C132 1.502 . S
C553 C427 1.500 . S
C551 C174 1.498 . S
C569 C213 1.502 . S
C571 C424 1.501 . S
C589 C426 1.501 . S
C587 C285 1.496 . S
C607 C384 1.501 . S
C605 C324 1.502 . S
C625 C410 1.501 . S
C623 C366 1.498 . S
C643 C412 1.501 . S
C641 C357 1.502 . S
C661 C438 1.500 . S
C659 C222 1.496 . S
C679 C396 1.501 . S
C677 C276 1.502 . S
C697 C398 1.500 . S
C695 C333 1.498 . S
C715 C397 1.501 . S
C713 C84 1.502 . S
C733 C399 1.501 . S
C731 C141 1.498 . S
C751 C413 1.501 . S
C749 C165 1.502 . S
C769 C439 1.501 . S
C767 C45 1.498 . S
C787 C441 1.501 . S
C785 C372 1.503 . S
C803 C237 1.496 . S
C805 C467 1.502 . S
C821 C261 1.502 . S
C823 C480 1.503 . S
C839 C318 1.498 . S
C841 C483 1.502 . S
C857 C69 1.502 . S
C859 C481 1.499 . S
C875 C126 1.498 . S
C877 C482 1.499 . S
C893 C180 1.502 . S
C895 C440 1.500 . S
C913 C466 1.501 . S
C911 C30 1.496 . S
C931 C469 1.501 . S
C929 C21 1.500 . S
C947 C78 1.496 . S
C949 C494 1.499 . S
C965 C117 1.502 . S
C967 C452 1.499 . S
C983 C189 1.498 . S
C985 C454 1.499 . S
C1003 C453 1.501 . S
C1001 C228 1.504 . S
C1021 C455 1.501 . S
C1019 C270 1.498 . S
C1037 C309 1.502 . S
C1039 C468 1.502 . S
C1057 C495 1.501 . S
C1055 C381 1.500 . S
