# Generated by pormake.
# Topology ftw, (4,12)-cn, num edge types: 1
# Building blocks:
#     Node 0, Type 0, BuildingBlock: GIZVER_clean_linker_0, # of connection points: 4
#     Node 1, Type 0, BuildingBlock: GIZVER_clean_linker_0, # of connection points: 4
#     Node 2, Type 0, BuildingBlock: GIZVER_clean_linker_0, # of connection points: 4
#     Node 3, Type 1, BuildingBlock: EZIPEK_clean_sbu_0, # of connection points: 12
#     Edge 4, Type (0, 1), BuildingBlock: XUDNAN_clean_linker_2, # of connection points: 2
#     Edge 5, Type (0, 1), BuildingBlock: XUDNAN_clean_linker_2, # of connection points: 2
#     Edge 6, Type (0, 1), BuildingBlock: XUDNAN_clean_linker_2, # of connection points: 2
#     Edge 7, Type (0, 1), BuildingBlock: XUDNAN_clean_linker_2, # of connection points: 2
#     Edge 8, Type (0, 1), BuildingBlock: XUDNAN_clean_linker_2, # of connection points: 2
#     Edge 9, Type (0, 1), BuildingBlock: XUDNAN_clean_linker_2, # of connection points: 2
#     Edge 10, Type (0, 1), BuildingBlock: XUDNAN_clean_linker_2, # of connection points: 2
#     Edge 11, Type (0, 1), BuildingBlock: XUDNAN_clean_linker_2, # of connection points: 2
#     Edge 12, Type (0, 1), BuildingBlock: XUDNAN_clean_linker_2, # of connection points: 2
#     Edge 13, Type (0, 1), BuildingBlock: XUDNAN_clean_linker_2, # of connection points: 2
#     Edge 14, Type (0, 1), BuildingBlock: XUDNAN_clean_linker_2, # of connection points: 2
#     Edge 15, Type (0, 1), BuildingBlock: XUDNAN_clean_linker_2, # of connection points: 2
# Relax obj value: 0.085
# Max RMSD: 0.239
# Mean RMSD: 0.181
data_MOF--net-ftw--node1-EZIPEK_clean_sbu_0--node2-GIZVER_clean_linker_0--edge1-XUDNAN_clean_linker_2
_symmetry_space_group_name_H-M    P1
_symmetry_Int_Tables_number       1
_symmetry_cell_setting            triclinic
loop_
_symmetry_equiv_pos_as_xyz
'x, y, z'
_cell_length_a     25.571851
_cell_length_b     24.024251
_cell_length_c     23.700561
_cell_angle_alpha  89.866308
_cell_angle_beta   90.325757
_cell_angle_gamma 89.571461
loop_
_atom_site_label
_atom_site_type_symbol
_atom_site_fract_x
_atom_site_fract_y
_atom_site_fract_z
_atom_type_partial_charge
H0 H 0.91595 0.4605 0.38346 0.0
H1 H 0.91828 0.44625 0.56458 0.0
H2 H 1.02325 0.34699 0.46447 0.0
H3 H 0.84376 0.49912 0.4407 0.0
H4 H 0.84568 0.49463 0.51614 0.0
H5 H 0.88426 0.5766 0.39219 0.0
H6 H 0.95633 0.70531 0.48996 0.0
H7 H 0.90641 0.55479 0.57137 0.0
C8 C 0.93212 0.44232 0.42174 0.0
C9 C 0.9722 0.40252 0.41829 0.0
C10 C 0.91288 0.45869 0.47452 0.0
C11 C 0.93373 0.43435 0.52382 0.0
C12 C 0.97332 0.39362 0.52051 0.0
C13 C 0.99271 0.3784 0.46754 0.0
C14 C 0.87009 0.50184 0.47813 0.0
C15 C 0.89379 0.55895 0.48133 0.0
C16 C 0.89867 0.59178 0.43237 0.0
C17 C 0.91988 0.64526 0.43592 0.0
C18 C 0.93846 0.66456 0.48798 0.0
C19 C 0.93323 0.63293 0.53736 0.0
C20 C 0.91128 0.57967 0.5336 0.0
H21 H 0.48504 0.10173 0.39711 0.0
H22 H 0.48846 0.08882 0.5768 0.0
H23 H 0.34663 0.05221 0.48584 0.0
H24 H 0.53961 0.16509 0.4551 0.0
H25 H 0.54283 0.15688 0.52947 0.0
H26 H 0.59268 0.10791 0.39334 0.0
H27 H 0.72978 0.03599 0.47184 0.0
H28 H 0.59812 0.08384 0.57276 0.0
C29 C 0.46511 0.09128 0.43585 0.0
C30 C 0.41295 0.07281 0.43461 0.0
C31 C 0.49135 0.09928 0.48727 0.0
C32 C 0.4669 0.08413 0.5377 0.0
C33 C 0.41447 0.06658 0.53804 0.0
C34 C 0.3879 0.06166 0.48611 0.0
C35 C 0.54077 0.13317 0.48922 0.0
C36 C 0.58975 0.0984 0.48341 0.0
C37 C 0.61331 0.09266 0.43037 0.0
C38 C 0.66425 0.07073 0.42548 0.0
C39 C 0.6901 0.05173 0.47447 0.0
C40 C 0.66638 0.05535 0.52763 0.0
C41 C 0.61582 0.07824 0.53169 0.0
H42 H 0.6131 0.43245 0.03467 0.0
H43 H 0.58201 0.60688 0.00959 0.0
H44 H 0.73691 0.53989 -0.01636 0.0
H45 H 0.54312 0.4772 0.08477 0.0
H46 H 0.53906 0.55055 0.08602 0.0
H47 H 0.4993 0.42487 0.00481 0.0
H48 H 0.34359 0.49279 -0.01547 0.0
H49 H 0.4683 0.59746 0.03947 0.0
C50 C 0.62573 0.47298 0.02016 0.0
C51 C 0.67842 0.48057 0.00555 0.0
C52 C 0.59091 0.51884 0.02262 0.0
C53 C 0.60886 0.57196 0.00688 0.0
C54 C 0.66182 0.58078 -0.00707 0.0
C55 C 0.69567 0.53428 -0.00829 0.0
C56 C 0.54099 0.51442 0.05676 0.0
C57 C 0.49019 0.51175 0.02329 0.0
C58 C 0.47217 0.45965 0.00449 0.0
C59 C 0.41892 0.45141 -0.00934 0.0
C60 C 0.38499 0.49789 -0.00765 0.0
C61 C 0.4025 0.55086 0.00853 0.0
C62 C 0.45542 0.55771 0.02316 0.0
C63 C 0.0509 0.1442 0.83754 0.0
C64 C 0.05207 0.15878 0.10747 0.0
C65 C 0.02734 0.87425 0.85458 0.0
C66 C 1.01282 0.89402 0.12682 0.0
C67 C 0.15101 0.8649 0.00029 0.0
C68 C 0.18246 0.13154 0.97377 0.0
C69 C 0.89925 0.90004 -0.01553 0.0
C70 C 0.93037 0.16802 0.98169 0.0
C71 C 0.91346 0.04655 0.11345 0.0
C72 C 0.16565 1.01879 0.12028 0.0
C73 C 0.9144 1.0177 0.8429 0.0
C74 C 0.16899 1.00287 0.84909 0.0
Eu75 Eu 0.05289 0.11992 0.97483 0.0
O76 O 0.09162 0.06128 0.0296 0.0
O77 O 0.99961 0.06989 0.92576 0.0
Eu78 Eu 0.13844 1.00187 -0.01548 0.0
Eu79 Eu 0.94219 0.0305 0.97874 0.0
O80 O 0.09239 0.05483 0.93003 0.0
O81 O 1.00031 0.07377 0.02662 0.0
Eu82 Eu 0.0413 1.01057 0.874 0.0
Eu83 Eu 0.03938 0.02303 0.08838 0.0
O84 O 0.08118 0.95758 0.93511 0.0
O85 O 0.08097 0.96296 0.03765 0.0
O86 O 0.98813 0.97738 0.03338 0.0
O87 O 0.99039 0.97182 0.93427 0.0
Eu88 Eu 0.02846 0.91206 -0.01104 0.0
O89 O 0.05432 0.16228 0.89046 0.0
O90 O 0.06089 0.1714 0.05371 0.0
O91 O 0.02657 0.86055 0.90918 0.0
O92 O 1.01175 0.87269 0.07476 0.0
O93 O 0.17354 0.91444 -0.00722 0.0
O94 O 0.19186 0.07707 0.98026 0.0
O95 O 0.88952 0.95479 -0.014 0.0
O96 O 0.90755 0.11837 0.97675 0.0
O97 O 0.96185 0.03711 0.13301 0.0
O98 O 0.1161 0.02198 0.13763 0.0
O99 O 0.96396 1.01292 0.8257 0.0
O100 O 0.11999 1.00605 0.82915 0.0
O101 O 0.94665 0.87635 -0.01693 0.0
O102 O 0.09948 0.85597 0.00111 0.0
O103 O 0.98192 0.17676 0.98165 0.0
O104 O 0.13506 0.1551 0.96985 0.0
O105 O 0.04174 0.10846 0.12827 0.0
O106 O 0.02567 0.94606 0.14006 0.0
O107 O 0.04567 0.0909 0.82212 0.0
O108 O 0.03258 0.9256 0.8335 0.0
O109 O 0.18301 0.99817 0.90313 0.0
O110 O 0.18144 1.01087 0.06738 0.0
O111 O 0.89881 0.02526 0.8959 0.0
O112 O 0.89854 0.04634 0.05954 0.0
H113 H 0.91773 0.34093 0.34335 0.0
H114 H 0.0688 0.4158 0.37317 0.0
H115 H 0.10375 0.36918 0.288 0.0
H116 H 0.96444 0.21208 0.31047 0.0
H117 H 0.91686 0.1959 0.25665 0.0
H118 H 0.90046 0.24411 0.31175 0.0
H119 H 0.8766 0.31938 0.2371 0.0
H120 H 0.89254 0.27101 0.18163 0.0
H121 H 0.92376 0.33795 0.18416 0.0
H122 H 0.12421 0.30723 0.20583 0.0
H123 H 0.12975 0.23062 0.13583 0.0
H124 H 0.96729 0.19099 0.16584 0.0
C125 C 0.95754 0.34897 0.33042 0.0
C126 C 0.99055 0.38258 0.36335 0.0
C127 C 0.04304 0.39079 0.3473 0.0
C128 C 0.06302 0.36464 0.29915 0.0
C129 C 0.0299 0.3303 0.26816 0.0
C130 C 0.97819 0.32244 0.2831 0.0
C131 C 0.95272 0.27807 0.24731 0.0
C132 C 0.93248 0.2297 0.28374 0.0
C133 C 0.90881 0.30311 0.21036 0.0
C134 C 0.99881 0.26036 0.2119 0.0
C135 C 0.04254 0.29206 0.22321 0.0
C136 C 0.09015 0.28241 0.19632 0.0
C137 C 0.09309 0.23895 0.15702 0.0
C138 C 0.04911 0.20525 0.14672 0.0
C139 C 1.00145 0.21626 0.17395 0.0
H140 H 0.73836 0.99695 0.38476 0.0
H141 H 0.65686 0.15124 0.34276 0.0
H142 H 0.70946 0.15962 0.25677 0.0
H143 H 0.86329 0.04703 0.34647 0.0
H144 H 0.88672 0.98149 0.31938 0.0
H145 H 0.83843 0.98261 0.37437 0.0
H146 H 0.77601 0.92318 0.31343 0.0
H147 H 0.82423 0.92074 0.25838 0.0
H148 H 0.75911 0.94599 0.24308 0.0
H149 H 0.77289 0.15313 0.17644 0.0
H150 H 0.84418 0.13252 0.10911 0.0
H151 H 0.88955 0.98868 0.20888 0.0
C152 C 0.73131 0.03258 0.35768 0.0
C153 C 0.69275 0.07306 0.37079 0.0
C154 C 0.68487 0.11863 0.33335 0.0
C155 C 0.71503 0.12419 0.28451 0.0
C156 C 0.75346 0.08434 0.2739 0.0
C157 C 0.76184 0.03952 0.30951 0.0
C158 C 0.80792 1.00449 0.2905 0.0
C159 C 0.85166 1.00389 0.33536 0.0
C160 C 0.79077 0.94509 0.27544 0.0
C161 C 0.82404 0.03664 0.23858 0.0
C162 C 0.79184 0.08227 0.2294 0.0
C163 C 0.79845 0.11762 0.1833 0.0
C164 C 0.83887 0.10565 0.1454 0.0
C165 C 0.87248 0.05944 0.15458 0.0
C166 C 0.8651 0.02482 0.2018 0.0
H167 H 0.96048 0.63108 0.3286 0.0
H168 H 0.87757 0.74811 0.43561 0.0
H169 H 0.88755 0.82122 0.36395 0.0
H170 H 0.05384 0.72161 0.27902 0.0
H171 H 0.05552 0.69782 0.20697 0.0
H172 H 0.03611 0.65101 0.2623 0.0
H173 H 0.94855 0.6323 0.21062 0.0
H174 H 0.96805 0.67842 0.15452 0.0
H175 H 0.90705 0.6901 0.19051 0.0
H176 H 0.92054 0.8844 0.29378 0.0
H177 H 0.96202 0.93484 0.21663 0.0
H178 H 1.01687 0.77906 0.14485 0.0
C179 C 0.9431 0.67166 0.3358 0.0
C180 C 0.91863 0.68435 0.38766 0.0
C181 C 0.89688 0.73795 0.39633 0.0
C182 C 0.90222 0.77965 0.35588 0.0
C183 C 0.92861 0.76686 0.30644 0.0
C184 C 0.94765 0.71409 0.29518 0.0
C185 C 0.97665 0.71337 0.23923 0.0
C186 C 0.03392 0.69486 0.24741 0.0
C187 C 0.94837 0.67634 0.19616 0.0
C188 C 0.97283 0.77445 0.22261 0.0
C189 C 0.94498 0.80407 0.2625 0.0
C190 C 0.94072 0.86164 0.26103 0.0
C191 C 0.96465 0.88993 0.217 0.0
C192 C 0.99142 0.86092 0.17384 0.0
C193 C 0.99552 0.80218 0.17654 0.0
H194 H 0.33295 1.00084 0.40583 0.0
H195 H 0.42312 0.13939 0.34031 0.0
H196 H 0.3722 0.13645 0.2524 0.0
H197 H 0.31217 0.92787 0.27487 0.0
H198 H 0.24555 0.90995 0.29086 0.0
H199 H 0.29234 0.91887 0.34717 0.0
H200 H 0.23179 0.99254 0.39331 0.0
H201 H 0.18482 0.98388 0.33715 0.0
H202 H 0.21027 0.05198 0.35257 0.0
H203 H 0.31169 0.12001 0.17204 0.0
H204 H 0.24101 0.09448 0.10597 0.0
H205 H 0.18307 0.97388 0.22623 0.0
C206 C 0.34208 0.03086 0.3733 0.0
C207 C 0.38303 0.0698 0.38035 0.0
C208 C 0.39345 0.10781 0.33594 0.0
C209 C 0.36427 0.10695 0.28579 0.0
C210 C 0.32407 0.06855 0.28078 0.0
C211 C 0.31248 0.03156 0.32344 0.0
C212 C 0.26509 0.9968 0.30841 0.0
C213 C 0.27968 0.93469 0.30513 0.0
C214 C 0.22035 1.00693 0.35036 0.0
C215 C 0.25184 0.02024 0.2506 0.0
C216 C 0.28697 0.06105 0.23533 0.0
C217 C 0.28393 0.0882 0.18352 0.0
C218 C 0.24393 0.07326 0.14622 0.0
C219 C 0.20713 0.03218 0.16112 0.0
C220 C 0.21076 1.00559 0.21415 0.0
H221 H 0.9193 0.7406 0.57184 0.0
H222 H 0.98183 0.58111 0.62784 0.0
H223 H 1.01117 0.62475 0.71703 0.0
H224 H 1.02493 0.82143 0.62211 0.0
H225 H 0.98433 0.87985 0.6417 0.0
H226 H 0.96436 0.83488 0.58503 0.0
H227 H 0.87632 0.8168 0.63548 0.0
H228 H 0.89601 0.86206 0.69208 0.0
H229 H 0.87677 0.79157 0.7072 0.0
H230 H 0.03515 0.68756 0.79959 0.0
H231 H 0.05316 0.76386 0.86691 0.0
H232 H 0.98062 0.88199 0.75133 0.0
C233 C 0.93948 0.71465 0.60253 0.0
C234 C 0.94862 0.65741 0.59254 0.0
C235 C 0.97397 0.62492 0.63468 0.0
C236 C 0.99102 0.64942 0.68531 0.0
C237 C 0.98248 0.70634 0.69292 0.0
C238 C 0.95729 0.73844 0.65254 0.0
C239 C 0.9546 0.79903 0.66945 0.0
C240 C 0.98381 0.83595 0.62705 0.0
C241 C 0.89754 0.81848 0.67649 0.0
C242 C 0.9828 0.79632 0.72552 0.0
C243 C 0.99802 0.74249 0.73884 0.0
C244 C 1.02362 0.72985 0.78941 0.0
C245 C 0.03369 0.77338 0.82731 0.0
C246 C 1.01891 0.82882 0.81388 0.0
C247 C 0.99334 0.84019 0.76223 0.0
H248 H 0.33043 0.99717 0.56076 0.0
H249 H 0.43145 0.12036 0.63924 0.0
H250 H 0.38365 0.11009 0.72752 0.0
H251 H 0.21397 0.05261 0.62232 0.0
H252 H 0.18303 0.98594 0.63057 0.0
H253 H 0.22942 0.99647 0.57474 0.0
H254 H 0.28422 0.91248 0.61111 0.0
H255 H 0.23801 0.90175 0.66715 0.0
H256 H 0.30629 0.91121 0.68349 0.0
H257 H 0.32525 0.08922 0.80665 0.0
H258 H 0.25356 0.06532 0.87062 0.0
H259 H 0.18158 0.96553 0.73928 0.0
C260 C 0.34271 0.02227 0.5962 0.0
C261 C 0.38604 0.0587 0.59245 0.0
C262 C 0.40024 0.09029 0.64068 0.0
C263 C 0.37282 0.08532 0.69127 0.0
C264 C 0.33035 0.04962 0.69301 0.0
C265 C 0.31469 1.01926 0.64669 0.0
C266 C 0.26471 0.98772 0.65883 0.0
C267 C 0.22015 1.00685 0.61927 0.0
C268 C 0.27388 0.92454 0.65492 0.0
C269 C 0.25476 1.00554 0.71919 0.0
C270 C 0.29388 0.0404 0.73812 0.0
C271 C 0.29436 0.06197 0.79243 0.0
C272 C 0.25358 0.04789 0.82848 0.0
C273 C 0.21229 1.01332 0.80988 0.0
C274 C 0.21271 0.99201 0.7544 0.0
H275 H 0.98606 0.28169 0.53782 0.0
H276 H 1.00427 0.44194 0.61936 0.0
H277 H 0.03489 0.39451 0.70632 0.0
H278 H 0.93481 0.21216 0.65375 0.0
H279 H 0.96751 0.14655 0.64085 0.0
H280 H 0.95291 0.19283 0.58302 0.0
H281 H 0.05064 0.19284 0.55516 0.0
H282 H 0.06546 0.14632 0.61297 0.0
H283 H 0.09938 0.21154 0.60686 0.0
H284 H 0.05928 0.3307 0.78449 0.0
H285 H 0.06915 0.25502 0.85306 0.0
H286 H 0.03181 0.13434 0.72259 0.0
C287 C 0.99754 0.30675 0.57368 0.0
C288 C 0.99327 0.36546 0.57197 0.0
C289 C 1.00723 0.39693 0.62003 0.0
C290 C 1.02504 0.37039 0.6693 0.0
C291 C 0.02857 0.31244 0.66968 0.0
C292 C 1.01507 0.28091 0.62328 0.0
C293 C 1.01851 0.21914 0.63639 0.0
C294 C 0.96525 0.19103 0.62802 0.0
C295 C 0.06104 0.1908 0.60072 0.0
C296 C 0.03417 0.2209 0.69812 0.0
C297 C 0.04095 0.27519 0.71583 0.0
C298 C 0.05419 0.28802 0.77115 0.0
C299 C 0.05951 0.2444 0.80988 0.0
C300 C 0.05079 0.18832 0.79357 0.0
C301 C 0.03892 0.17653 0.7365 0.0
H302 H 0.76832 0.08043 0.55208 0.0
H303 H 0.63236 0.9974 0.62033 0.0
H304 H 0.68262 0.97471 0.70711 0.0
H305 H 0.86805 0.98607 0.60801 0.0
H306 H 0.91283 0.04184 0.62287 0.0
H307 H 0.8666 0.04847 0.56558 0.0
H308 H 0.8348 0.14049 0.60896 0.0
H309 H 0.87624 0.1333 0.67035 0.0
H310 H 0.80683 0.14078 0.67867 0.0
H311 H 0.74656 0.96558 0.78799 0.0
H312 H 0.81929 0.96999 0.85684 0.0
H313 H 0.91437 0.05593 0.73373 0.0
C314 C 0.74937 0.05631 0.58466 0.0
C315 C 0.69655 0.04006 0.57919 0.0
C316 C 0.67273 1.01033 0.62373 0.0
C317 C 0.70105 0.99699 0.67293 0.0
C318 C 0.7531 1.01361 0.67678 0.0
C319 C 0.77703 0.0425 0.63375 0.0
C320 C 0.83238 0.05836 0.64953 0.0
C321 C 0.87232 0.03209 0.60908 0.0
C322 C 0.83786 0.12202 0.65189 0.0
C323 C 0.83638 0.03304 0.70785 0.0
C324 C 0.79004 1.00787 0.72302 0.0
C325 C 0.78315 0.98466 0.77631 0.0
C326 C 0.82457 0.98759 0.81514 0.0
C327 C 0.87241 1.01305 0.80032 0.0
C328 C 0.87852 0.03541 0.74574 0.0
H329 H 0.32974 0.41999 0.93054 0.0
H330 H 0.45566 0.35079 0.034 0.0
H331 H 0.41384 0.25954 0.03012 0.0
H332 H 0.23142 0.3533 0.00698 0.0
H333 H 0.18883 0.34279 0.94715 0.0
H334 H 0.23354 0.40025 0.9476 0.0
H335 H 0.27317 0.36614 0.85328 0.0
H336 H 0.2284 0.30854 0.85254 0.0
H337 H 0.29782 0.29584 0.84805 0.0
H338 H 0.35499 0.17605 0.02123 0.0
H339 H 0.28125 0.11068 0.01469 0.0
H340 H 0.18785 0.23775 0.93016 0.0
C341 C 0.34906 0.38609 0.95254 0.0
C342 C 0.39688 0.39393 0.98226 0.0
C343 C 0.42025 0.34692 0.00925 0.0
C344 C 0.39638 0.29445 0.00785 0.0
C345 C 0.34852 0.28919 0.98013 0.0
C346 C 0.32488 0.3339 0.95336 0.0
C347 C 0.27055 0.31903 0.93242 0.0
C348 C 0.22863 0.35603 0.96021 0.0
C349 C 0.26732 0.3226 0.86773 0.0
C350 C 0.26696 0.25925 0.95258 0.0
C351 C 0.31286 0.24239 0.97873 0.0
C352 C 0.31885 0.18892 0.00093 0.0
C353 C 0.2766 0.15206 -0.00289 0.0
C354 C 0.22833 0.16921 0.97275 0.0
C355 C 0.22396 0.22343 0.9496 0.0
H356 H 0.4005 0.6597 0.96779 0.0
H357 H 0.31495 0.54315 0.07182 0.0
H358 H 0.24432 0.61223 0.08352 0.0
H359 H 0.36148 0.78645 0.04623 0.0
H360 H 0.35542 0.82859 -0.01653 0.0
H361 H 0.40147 0.77144 -0.01435 0.0
H362 H 0.35875 0.72985 0.89603 0.0
H363 H 0.31245 0.7867 0.89376 0.0
H364 H 0.28956 0.71594 0.89548 0.0
H365 H 0.18016 0.68928 0.07877 0.0
H366 H 0.12673 0.77321 0.06167 0.0
H367 H 0.25222 0.84423 0.96266 0.0
C368 C 0.36722 0.6493 -0.0063 0.0
C369 C 0.36304 0.59579 0.01857 0.0
C370 C 0.3187 0.58351 0.05183 0.0
C371 C 0.27843 0.62257 0.05891 0.0
C372 C 0.28292 0.67424 0.03282 0.0
C373 C 0.32622 0.68814 0.00124 0.0
C374 C 0.31972 0.74636 0.97644 0.0
C375 C 0.36205 0.78553 -0.00067 0.0
C376 C 0.32015 0.74458 0.91158 0.0
C377 C 0.26587 0.76238 -0.00148 0.0
C378 C 0.24561 0.71988 0.03089 0.0
C379 C 0.19574 0.72311 0.05394 0.0
C380 C 0.16554 0.77095 0.04367 0.0
C381 C 0.18515 0.81549 0.01089 0.0
C382 C 0.23633 0.81122 -0.01157 0.0
H383 H 0.67972 0.37364 0.96033 0.0
H384 H 0.76716 0.48552 0.06829 0.0
H385 H 0.83826 0.41629 0.07604 0.0
H386 H 0.72159 0.24336 0.03313 0.0
H387 H 0.72599 0.20422 0.96852 0.0
H388 H 0.67967 0.26085 0.97419 0.0
H389 H 0.71944 0.30677 0.88543 0.0
H390 H 0.76608 0.25054 0.87979 0.0
H391 H 0.78848 0.32138 0.884 0.0
H392 H 0.90261 0.33997 0.067 0.0
H393 H 0.95598 0.25731 0.0454 0.0
H394 H 0.82861 0.19029 0.94508 0.0
C395 C 0.71351 0.38295 -0.01372 0.0
C396 C 0.7181 0.43527 0.01333 0.0
C397 C 0.76309 0.44613 0.0466 0.0
C398 C 0.80364 0.40696 0.05146 0.0
C399 C 0.79876 0.35659 0.02316 0.0
C400 C 0.75479 0.34396 -0.00838 0.0
C401 C 0.76094 0.28701 0.96421 0.0
C402 C 0.71958 0.24646 -0.01365 0.0
C403 C 0.7586 0.29173 0.89952 0.0
C404 C 0.8155 0.27043 -0.01554 0.0
C405 C 0.83629 0.31142 0.01849 0.0
C406 C 0.8867 0.30742 0.04066 0.0
C407 C 0.9169 0.26039 0.02771 0.0
C408 C 0.89676 0.21743 -0.00687 0.0
C409 C 0.84503 0.22234 0.97173 0.0
H410 H 0.74793 0.61574 0.93115 0.0
H411 H 0.62826 0.67773 0.0452 0.0
H412 H 0.67108 0.76868 0.04655 0.0
H413 H 0.85126 0.67574 0.0065 0.0
H414 H 0.89034 0.69075 0.94534 0.0
H415 H 0.84522 0.63366 0.94395 0.0
H416 H 0.80032 0.67533 0.85491 0.0
H417 H 0.84555 0.7325 0.85597 0.0
H418 H 0.77612 0.74599 0.85641 0.0
H419 H 0.73088 0.85182 0.04195 0.0
H420 H 0.80492 0.91724 0.03573 0.0
H421 H 0.89091 0.79717 0.93529 0.0
C422 C 0.73021 0.64813 0.9564 0.0
C423 C 0.68392 0.63848 -0.01231 0.0
C424 C 0.66248 0.68335 0.01927 0.0
C425 C 0.68695 0.73549 0.02086 0.0
C426 C 0.7334 0.74249 -0.00865 0.0
C427 C 0.75496 0.69989 0.95993 0.0
C428 C 0.80809 0.71603 0.93711 0.0
C429 C 0.85126 0.67671 0.95959 0.0
C430 C 0.80745 0.71756 0.87225 0.0
C431 C 0.81343 0.77398 0.9615 0.0
C432 C 0.76943 0.78899 -0.00838 0.0
C433 C 0.76543 0.84053 0.01831 0.0
C434 C 0.80764 0.87745 0.0145 0.0
C435 C 0.85372 0.8622 -0.0147 0.0
C436 C 0.85632 0.80984 0.95826 0.0
loop_
_geom_bond_atom_site_label_1
_geom_bond_atom_site_label_2
_geom_bond_distance
_geom_bond_site_symmetry_2
_ccdc_geom_bond_type
H0 C8 0.930 . S
H1 C11 0.930 . S
H2 C13 0.930 . S
H3 C14 0.970 . S
H4 C14 0.970 . S
H5 C16 0.930 . S
H6 C18 0.930 . S
H7 C20 0.930 . S
C8 H0 0.930 . S
C8 C9 1.382 . S
C8 C10 1.426 . S
C9 C8 1.382 . S
C9 C13 1.389 1_655 S
C10 C8 1.426 . S
C10 C11 1.375 . S
C10 C14 1.532 . S
C11 H1 0.930 . S
C11 C10 1.375 . S
C11 C12 1.416 . S
C12 C11 1.416 . S
C12 C13 1.371 1_655 S
C13 H2 0.930 . S
C13 C9 1.389 1_455 S
C13 C12 1.371 1_455 S
C14 H3 0.970 . S
C14 H4 0.970 . S
C14 C10 1.532 . S
C14 C15 1.499 . S
C15 C14 1.499 . S
C15 C16 1.370 . S
C15 C20 1.415 . S
C16 H5 0.930 . S
C16 C15 1.370 . S
C16 C17 1.407 . S
C17 C16 1.407 . S
C17 C18 1.365 1_655 S
C18 H6 0.930 . S
C18 C17 1.365 1_455 S
C18 C19 1.393 1_455 S
C19 C18 1.393 1_655 S
C19 C20 1.387 . S
C20 H7 0.930 . S
C20 C15 1.415 . S
C20 C19 1.387 . S
H21 C29 0.930 . S
H22 C32 0.930 . S
H23 C34 0.934 . S
H24 C35 0.970 . S
H25 C35 0.970 . S
H26 C37 0.930 . S
H27 C39 0.930 . S
H28 C41 0.930 . S
C29 H21 0.930 . S
C29 C30 1.382 . S
C29 C31 1.426 . S
C30 C29 1.382 . S
C30 C34 1.387 1_545 S
C31 C29 1.426 . S
C31 C32 1.375 . S
C31 C35 1.532 . S
C32 H22 0.930 . S
C32 C31 1.375 . S
C32 C33 1.416 . S
C33 C32 1.416 . S
C33 C34 1.370 1_545 S
C34 H23 0.934 . S
C34 C30 1.387 1_565 S
C34 C33 1.370 1_565 S
C35 H24 0.970 . S
C35 H25 0.970 . S
C35 C31 1.532 . S
C35 C36 1.499 . S
C36 C35 1.499 . S
C36 C37 1.370 . S
C36 C41 1.415 . S
C37 H26 0.930 . S
C37 C36 1.370 . S
C37 C38 1.407 . S
C38 C37 1.407 . S
C38 C39 1.365 1_545 S
C39 H27 0.930 . S
C39 C38 1.365 1_565 S
C39 C40 1.393 1_565 S
C40 C39 1.393 1_545 S
C40 C41 1.387 . S
C41 H28 0.930 . S
C41 C36 1.415 . S
C41 C40 1.387 . S
H42 C50 0.930 . S
H43 C53 0.930 . S
H44 C55 0.930 . S
H45 C56 0.970 . S
H46 C56 0.970 . S
H47 C58 0.930 . S
H48 C60 0.930 . S
H49 C62 0.930 . S
C50 H42 0.930 . S
C50 C51 1.382 . S
C50 C52 1.426 . S
C51 C50 1.382 . S
C51 C55 1.389 1_554 S
C52 C50 1.426 . S
C52 C53 1.375 . S
C52 C56 1.532 . S
C53 H43 0.930 . S
C53 C52 1.375 . S
C53 C54 1.416 . S
C54 C53 1.416 . S
C54 C55 1.371 1_554 S
C55 H44 0.930 . S
C55 C51 1.389 1_556 S
C55 C54 1.371 1_556 S
C56 H45 0.970 . S
C56 H46 0.970 . S
C56 C52 1.532 . S
C56 C57 1.499 . S
C57 C56 1.499 . S
C57 C58 1.370 . S
C57 C62 1.415 . S
C58 H47 0.930 . S
C58 C57 1.370 . S
C58 C59 1.407 . S
C59 C58 1.407 . S
C59 C60 1.365 1_554 S
C60 H48 0.930 . S
C60 C59 1.365 1_556 S
C60 C61 1.393 1_556 S
C61 C60 1.393 1_554 S
C61 C62 1.387 . S
C62 H49 0.930 . S
C62 C57 1.415 . S
C62 C61 1.387 . S
C63 O89 1.283 . S
C63 O107 1.283 . S
C64 O90 1.283 . S
C64 O105 1.283 1_455 S
C65 O91 1.283 . S
C65 O108 1.283 . S
C66 O92 1.283 . S
C66 O106 1.283 . S
C67 O93 1.283 . S
C67 O102 1.283 . S
C68 O94 1.283 . S
C68 O104 1.283 . S
C69 O95 1.283 . S
C69 O101 1.283 . S
C70 O96 1.283 . S
C70 O103 1.283 . S
C71 O97 1.283 . S
C71 O112 1.283 . S
C72 O98 1.283 . S
C72 O110 1.283 . S
C73 O99 1.283 . S
C73 O111 1.283 . S
C74 O100 1.283 . S
C74 O109 1.283 . S
Eu75 O76 2.374 . S
Eu75 O77 2.366 1_454 S
Eu75 O80 2.374 1_554 S
Eu75 O81 2.366 1_455 S
Eu75 O89 2.363 1_554 S
Eu75 O90 2.363 . S
Eu75 O103 2.356 1_455 S
Eu75 O104 2.370 . S
O76 Eu75 2.374 . S
O76 Eu78 2.370 . S
O76 Eu83 2.369 1_455 S
O77 Eu75 2.366 1_656 S
O77 Eu79 2.370 1_556 S
O77 Eu82 2.365 1_655 S
Eu78 O76 2.370 . S
Eu78 O80 2.370 1_554 S
Eu78 O84 2.370 1_544 S
Eu78 O85 2.370 1_545 S
Eu78 O93 2.363 1_545 S
Eu78 O94 2.363 . S
Eu78 O109 2.363 1_554 S
Eu78 O110 2.363 . S
Eu79 O77 2.370 1_554 S
Eu79 O81 2.370 . S
Eu79 O86 2.370 1_545 S
Eu79 O87 2.370 1_544 S
Eu79 O95 2.363 1_545 S
Eu79 O96 2.363 . S
Eu79 O111 2.363 1_554 S
Eu79 O112 2.363 . S
O80 Eu75 2.374 1_556 S
O80 Eu78 2.370 1_556 S
O80 Eu82 2.375 . S
O81 Eu75 2.366 1_655 S
O81 Eu79 2.370 . S
O81 Eu83 2.371 . S
Eu82 O77 2.365 1_455 S
Eu82 O80 2.375 . S
Eu82 O84 2.375 1_545 S
Eu82 O87 2.365 1_445 S
Eu82 O99 2.355 1_455 S
Eu82 O100 2.371 . S
Eu82 O107 2.363 . S
Eu82 O108 2.363 1_545 S
Eu83 O76 2.369 1_655 S
Eu83 O81 2.371 . S
Eu83 O85 2.369 1_645 S
Eu83 O86 2.371 1_545 S
Eu83 O97 2.365 . S
Eu83 O98 2.361 1_655 S
Eu83 O105 2.363 . S
Eu83 O106 2.363 1_545 S
O84 Eu78 2.370 1_566 S
O84 Eu82 2.375 1_565 S
O84 Eu88 2.370 1_456 S
O85 Eu78 2.370 1_565 S
O85 Eu83 2.369 1_465 S
O85 Eu88 2.370 1_455 S
O86 Eu79 2.370 1_565 S
O86 Eu83 2.371 1_565 S
O86 Eu88 2.371 . S
O87 Eu79 2.370 1_566 S
O87 Eu82 2.365 1_665 S
O87 Eu88 2.371 1_556 S
Eu88 O84 2.370 1_654 S
Eu88 O85 2.370 1_655 S
Eu88 O86 2.371 . S
Eu88 O87 2.371 1_554 S
Eu88 O91 2.363 1_654 S
Eu88 O92 2.363 . S
Eu88 O101 2.364 . S
Eu88 O102 2.362 1_655 S
O89 C63 1.283 . S
O89 Eu75 2.363 1_556 S
O90 C64 1.283 . S
O90 Eu75 2.363 . S
O91 C65 1.283 . S
O91 Eu88 2.363 1_456 S
O92 C66 1.283 . S
O92 Eu88 2.363 . S
O93 C67 1.283 . S
O93 Eu78 2.363 1_565 S
O94 C68 1.283 . S
O94 Eu78 2.363 . S
O95 C69 1.283 . S
O95 Eu79 2.363 1_565 S
O96 C70 1.283 . S
O96 Eu79 2.363 . S
O97 C71 1.283 . S
O97 Eu83 2.365 . S
O98 C72 1.283 . S
O98 Eu83 2.361 1_455 S
O99 C73 1.283 . S
O99 Eu82 2.355 1_655 S
O100 C74 1.283 . S
O100 Eu82 2.371 . S
O101 C69 1.283 . S
O101 Eu88 2.364 . S
O102 C67 1.283 . S
O102 Eu88 2.362 1_455 S
O103 C70 1.283 . S
O103 Eu75 2.356 1_655 S
O104 C68 1.283 . S
O104 Eu75 2.370 . S
O105 C64 1.283 1_655 S
O105 Eu83 2.363 . S
O106 C66 1.283 . S
O106 Eu83 2.363 1_565 S
O107 C63 1.283 . S
O107 Eu82 2.363 . S
O108 C65 1.283 . S
O108 Eu82 2.363 1_565 S
O109 C74 1.283 . S
O109 Eu78 2.363 1_556 S
O110 C72 1.283 . S
O110 Eu78 2.363 . S
O111 C73 1.283 . S
O111 Eu79 2.363 1_556 S
O112 C71 1.283 . S
O112 Eu79 2.363 . S
H113 C125 0.930 . S
H114 C127 0.930 . S
H115 C128 0.930 . S
H116 C132 0.959 . S
H117 C132 0.959 . S
H118 C132 0.961 . S
H119 C133 0.960 . S
H120 C133 0.961 . S
H121 C133 0.959 1_455 S
H122 C136 0.929 . S
H123 C137 0.931 . S
H124 C139 0.930 . S
C125 H113 0.930 . S
C125 C126 1.399 1_655 S
C125 C130 1.399 . S
C126 C125 1.399 1_455 S
C126 C127 1.376 . S
C127 H114 0.930 . S
C127 C126 1.376 . S
C127 C128 1.388 . S
C128 H115 0.930 . S
C128 C127 1.388 . S
C128 C129 1.390 . S
C129 C128 1.390 . S
C129 C130 1.394 1_455 S
C129 C135 1.465 . S
C130 C125 1.399 . S
C130 C129 1.394 1_655 S
C130 C131 1.516 . S
C131 C130 1.516 . S
C131 C132 1.502 . S
C131 C133 1.561 . S
C131 C134 1.526 . S
C132 H116 0.959 . S
C132 H117 0.959 . S
C132 H118 0.961 . S
C132 C131 1.502 . S
C133 H119 0.960 . S
C133 H120 0.961 . S
C133 H121 0.959 1_655 S
C133 C131 1.561 . S
C134 C131 1.526 . S
C134 C135 1.396 1_655 S
C134 C139 1.390 . S
C135 C129 1.465 . S
C135 C134 1.396 1_455 S
C135 C136 1.399 . S
C136 H122 0.929 . S
C136 C135 1.399 . S
C136 C137 1.385 . S
C137 H123 0.931 . S
C137 C136 1.385 . S
C137 C138 1.389 . S
C138 C137 1.389 . S
C138 C139 1.387 1_455 S
C139 H124 0.930 . S
C139 C134 1.390 . S
C139 C138 1.387 1_655 S
H140 C152 0.930 . S
H141 C154 0.930 . S
H142 C155 0.930 . S
H143 C159 0.959 . S
H144 C159 0.959 . S
H145 C159 0.961 . S
H146 C160 0.960 . S
H147 C160 0.961 . S
H148 C160 0.959 . S
H149 C163 0.929 . S
H150 C164 0.931 . S
H151 C166 0.930 . S
C152 H140 0.930 . S
C152 C153 1.399 1_565 S
C152 C157 1.399 . S
C153 C152 1.399 1_545 S
C153 C154 1.376 . S
C154 H141 0.930 . S
C154 C153 1.376 . S
C154 C155 1.388 . S
C155 H142 0.930 . S
C155 C154 1.388 . S
C155 C156 1.390 . S
C156 C155 1.390 . S
C156 C157 1.394 1_545 S
C156 C162 1.465 . S
C157 C152 1.399 . S
C157 C156 1.394 1_565 S
C157 C158 1.516 . S
C158 C157 1.516 . S
C158 C159 1.502 . S
C158 C160 1.561 . S
C158 C161 1.526 . S
C159 H143 0.959 . S
C159 H144 0.959 . S
C159 H145 0.961 . S
C159 C158 1.502 . S
C160 H146 0.960 . S
C160 H147 0.961 . S
C160 H148 0.959 . S
C160 C158 1.561 . S
C161 C158 1.526 . S
C161 C162 1.396 1_565 S
C161 C166 1.390 . S
C162 C156 1.465 . S
C162 C161 1.396 1_545 S
C162 C163 1.399 . S
C163 H149 0.929 . S
C163 C162 1.399 . S
C163 C164 1.385 . S
C164 H150 0.931 . S
C164 C163 1.385 . S
C164 C165 1.389 . S
C165 C164 1.389 . S
C165 C166 1.387 1_545 S
C166 H151 0.930 . S
C166 C161 1.390 . S
C166 C165 1.387 1_565 S
H167 C179 0.930 . S
H168 C181 0.930 . S
H169 C182 0.930 . S
H170 C186 0.959 . S
H171 C186 0.959 . S
H172 C186 0.961 . S
H173 C187 0.960 . S
H174 C187 0.961 . S
H175 C187 0.959 . S
H176 C190 0.929 . S
H177 C191 0.931 . S
H178 C193 0.930 . S
C179 H167 0.930 . S
C179 C180 1.401 . S
C179 C184 1.399 . S
C180 C179 1.401 . S
C180 C181 1.374 1_455 S
C181 H168 0.930 . S
C181 C180 1.374 1_655 S
C181 C182 1.388 . S
C182 H169 0.930 . S
C182 C181 1.388 . S
C182 C183 1.390 . S
C183 C182 1.390 . S
C183 C184 1.394 1_655 S
C183 C189 1.465 . S
C184 C179 1.399 . S
C184 C183 1.394 1_455 S
C184 C185 1.516 . S
C185 C184 1.516 . S
C185 C186 1.502 . S
C185 C187 1.561 1_455 S
C185 C188 1.526 . S
C186 H170 0.959 . S
C186 H171 0.959 . S
C186 H172 0.961 . S
C186 C185 1.502 . S
C187 H173 0.960 . S
C187 H174 0.961 . S
C187 H175 0.959 . S
C187 C185 1.561 1_655 S
C188 C185 1.526 . S
C188 C189 1.396 1_455 S
C188 C193 1.390 . S
C189 C183 1.465 . S
C189 C188 1.396 1_655 S
C189 C190 1.399 . S
C190 H176 0.929 . S
C190 C189 1.399 . S
C190 C191 1.385 . S
C191 H177 0.931 . S
C191 C190 1.385 . S
C191 C192 1.389 . S
C192 C191 1.389 . S
C192 C193 1.387 1_655 S
C193 H178 0.930 . S
C193 C188 1.390 . S
C193 C192 1.387 1_455 S
H194 C206 0.930 . S
H195 C208 0.930 . S
H196 C209 0.930 . S
H197 C213 0.959 . S
H198 C213 0.959 . S
H199 C213 0.961 . S
H200 C214 0.960 . S
H201 C214 0.961 . S
H202 C214 0.959 . S
H203 C217 0.929 . S
H204 C218 0.931 . S
H205 C220 0.930 . S
C206 H194 0.930 . S
C206 C207 1.399 1_565 S
C206 C211 1.399 . S
C207 C206 1.399 1_545 S
C207 C208 1.376 . S
C208 H195 0.930 . S
C208 C207 1.376 . S
C208 C209 1.388 . S
C209 H196 0.930 . S
C209 C208 1.388 . S
C209 C210 1.390 . S
C210 C209 1.390 . S
C210 C211 1.394 1_545 S
C210 C216 1.465 . S
C211 C206 1.399 . S
C211 C210 1.394 1_565 S
C211 C212 1.516 . S
C212 C211 1.516 . S
C212 C213 1.502 . S
C212 C214 1.561 . S
C212 C215 1.526 . S
C213 H197 0.959 . S
C213 H198 0.959 . S
C213 H199 0.961 . S
C213 C212 1.502 . S
C214 H200 0.960 . S
C214 H201 0.961 . S
C214 H202 0.959 . S
C214 C212 1.561 . S
C215 C212 1.526 . S
C215 C216 1.396 1_565 S
C215 C220 1.390 . S
C216 C210 1.465 . S
C216 C215 1.396 1_545 S
C216 C217 1.399 . S
C217 H203 0.929 . S
C217 C216 1.399 . S
C217 C218 1.385 . S
C218 H204 0.931 . S
C218 C217 1.385 . S
C218 C219 1.389 . S
C219 C218 1.389 . S
C219 C220 1.387 1_545 S
C220 H205 0.930 . S
C220 C215 1.390 . S
C220 C219 1.387 1_565 S
H221 C233 0.930 . S
H222 C235 0.930 . S
H223 C236 0.930 . S
H224 C240 0.959 . S
H225 C240 0.959 . S
H226 C240 0.961 . S
H227 C241 0.960 . S
H228 C241 0.961 . S
H229 C241 0.959 . S
H230 C244 0.929 . S
H231 C245 0.931 . S
H232 C247 0.930 . S
C233 H221 0.930 . S
C233 C234 1.399 1_455 S
C233 C238 1.399 1_455 S
C234 C233 1.399 1_655 S
C234 C235 1.376 . S
C235 H222 0.930 . S
C235 C234 1.376 . S
C235 C236 1.388 . S
C236 H223 0.930 . S
C236 C235 1.388 . S
C236 C237 1.390 . S
C237 C236 1.390 . S
C237 C238 1.394 . S
C237 C243 1.465 . S
C238 C233 1.399 1_655 S
C238 C237 1.394 . S
C238 C239 1.516 1_655 S
C239 C238 1.516 1_455 S
C239 C240 1.502 . S
C239 C241 1.561 1_455 S
C239 C242 1.525 1_455 S
C240 H224 0.959 . S
C240 H225 0.959 . S
C240 H226 0.961 . S
C240 C239 1.502 . S
C241 H227 0.960 . S
C241 H228 0.961 . S
C241 H229 0.959 . S
C241 C239 1.561 1_655 S
C242 C239 1.525 1_655 S
C242 C243 1.398 . S
C242 C247 1.389 1_655 S
C243 C237 1.465 . S
C243 C242 1.398 . S
C243 C244 1.399 . S
C244 H230 0.929 . S
C244 C243 1.399 . S
C244 C245 1.385 . S
C245 H231 0.931 . S
C245 C244 1.385 . S
C245 C246 1.389 . S
C246 C245 1.389 . S
C246 C247 1.387 1_655 S
C247 H232 0.930 . S
C247 C242 1.389 1_455 S
C247 C246 1.387 1_455 S
H248 C260 0.930 . S
H249 C262 0.930 . S
H250 C263 0.930 . S
H251 C267 0.959 . S
H252 C267 0.959 . S
H253 C267 0.961 . S
H254 C268 0.960 . S
H255 C268 0.961 . S
H256 C268 0.959 . S
H257 C271 0.929 . S
H258 C272 0.931 . S
H259 C274 0.930 . S
C260 H248 0.930 . S
C260 C261 1.399 1_565 S
C260 C265 1.399 . S
C261 C260 1.399 1_545 S
C261 C262 1.376 . S
C262 H249 0.930 . S
C262 C261 1.376 . S
C262 C263 1.388 . S
C263 H250 0.930 . S
C263 C262 1.388 . S
C263 C264 1.390 . S
C264 C263 1.390 . S
C264 C265 1.394 1_545 S
C264 C270 1.465 . S
C265 C260 1.399 . S
C265 C264 1.394 1_565 S
C265 C266 1.516 . S
C266 C265 1.516 . S
C266 C267 1.502 . S
C266 C268 1.561 . S
C266 C269 1.526 . S
C267 H251 0.959 . S
C267 H252 0.959 . S
C267 H253 0.961 . S
C267 C266 1.502 . S
C268 H254 0.960 . S
C268 H255 0.961 . S
C268 H256 0.959 . S
C268 C266 1.561 . S
C269 C266 1.526 . S
C269 C270 1.396 1_565 S
C269 C274 1.390 . S
C270 C264 1.465 . S
C270 C269 1.396 1_545 S
C270 C271 1.399 . S
C271 H257 0.929 . S
C271 C270 1.399 . S
C271 C272 1.385 . S
C272 H258 0.931 . S
C272 C271 1.385 . S
C272 C273 1.389 . S
C273 C272 1.389 . S
C273 C274 1.387 1_545 S
C274 H259 0.930 . S
C274 C269 1.390 . S
C274 C273 1.387 1_565 S
H275 C287 0.930 . S
H276 C289 0.930 . S
H277 C290 0.930 . S
H278 C294 0.959 . S
H279 C294 0.959 . S
H280 C294 0.961 . S
H281 C295 0.960 . S
H282 C295 0.961 . S
H283 C295 0.959 1_455 S
H284 C298 0.929 . S
H285 C299 0.931 . S
H286 C301 0.930 . S
C287 H275 0.930 . S
C287 C288 1.399 1_655 S
C287 C292 1.399 . S
C288 C287 1.399 1_455 S
C288 C289 1.376 . S
C289 H276 0.930 . S
C289 C288 1.376 . S
C289 C290 1.388 . S
C290 H277 0.930 . S
C290 C289 1.388 . S
C290 C291 1.390 . S
C291 C290 1.390 . S
C291 C292 1.394 1_455 S
C291 C297 1.465 . S
C292 C287 1.399 . S
C292 C291 1.394 1_655 S
C292 C293 1.516 . S
C293 C292 1.516 . S
C293 C294 1.502 . S
C293 C295 1.561 . S
C293 C296 1.526 . S
C294 H278 0.959 . S
C294 H279 0.959 . S
C294 H280 0.961 . S
C294 C293 1.502 . S
C295 H281 0.960 . S
C295 H282 0.961 . S
C295 H283 0.959 1_655 S
C295 C293 1.561 . S
C296 C293 1.526 . S
C296 C297 1.396 1_655 S
C296 C301 1.390 . S
C297 C291 1.465 . S
C297 C296 1.396 1_455 S
C297 C298 1.399 . S
C298 H284 0.929 . S
C298 C297 1.399 . S
C298 C299 1.385 . S
C299 H285 0.931 . S
C299 C298 1.385 . S
C299 C300 1.389 . S
C300 C299 1.389 . S
C300 C301 1.387 1_455 S
C301 H286 0.930 . S
C301 C296 1.390 . S
C301 C300 1.387 1_655 S
H302 C314 0.930 . S
H303 C316 0.930 . S
H304 C317 0.930 . S
H305 C321 0.959 . S
H306 C321 0.959 . S
H307 C321 0.961 . S
H308 C322 0.960 . S
H309 C322 0.961 . S
H310 C322 0.959 . S
H311 C325 0.929 . S
H312 C326 0.931 . S
H313 C328 0.930 . S
C314 H302 0.930 . S
C314 C315 1.399 . S
C314 C319 1.399 . S
C315 C314 1.399 . S
C315 C316 1.376 1_545 S
C316 H303 0.930 . S
C316 C315 1.376 1_565 S
C316 C317 1.388 . S
C317 H304 0.930 . S
C317 C316 1.388 . S
C317 C318 1.390 . S
C318 C317 1.390 . S
C318 C319 1.394 1_565 S
C318 C324 1.465 . S
C319 C314 1.399 . S
C319 C318 1.394 1_545 S
C319 C320 1.516 . S
C320 C319 1.516 . S
C320 C321 1.502 . S
C320 C322 1.561 . S
C320 C323 1.526 . S
C321 H305 0.959 . S
C321 H306 0.959 . S
C321 H307 0.961 . S
C321 C320 1.502 . S
C322 H308 0.960 . S
C322 H309 0.961 . S
C322 H310 0.959 . S
C322 C320 1.561 . S
C323 C320 1.526 . S
C323 C324 1.396 1_545 S
C323 C328 1.390 . S
C324 C318 1.465 . S
C324 C323 1.396 1_565 S
C324 C325 1.399 . S
C325 H311 0.929 . S
C325 C324 1.399 . S
C325 C326 1.385 . S
C326 H312 0.931 . S
C326 C325 1.385 . S
C326 C327 1.387 1_565 S
C327 C326 1.387 1_545 S
C327 C328 1.389 . S
C328 H313 0.930 . S
C328 C323 1.390 . S
C328 C327 1.389 . S
H329 C341 0.930 . S
H330 C343 0.930 . S
H331 C344 0.930 . S
H332 C348 0.959 . S
H333 C348 0.959 . S
H334 C348 0.961 . S
H335 C349 0.960 . S
H336 C349 0.961 . S
H337 C349 0.959 . S
H338 C352 0.929 . S
H339 C353 0.931 . S
H340 C355 0.930 . S
C341 H329 0.930 . S
C341 C342 1.399 1_556 S
C341 C346 1.399 . S
C342 C341 1.399 1_554 S
C342 C343 1.376 . S
C343 H330 0.930 . S
C343 C342 1.376 . S
C343 C344 1.388 . S
C344 H331 0.930 . S
C344 C343 1.388 . S
C344 C345 1.390 . S
C345 C344 1.390 . S
C345 C346 1.394 1_554 S
C345 C351 1.465 . S
C346 C341 1.399 . S
C346 C345 1.394 1_556 S
C346 C347 1.516 . S
C347 C346 1.516 . S
C347 C348 1.502 . S
C347 C349 1.561 . S
C347 C350 1.526 . S
C348 H332 0.959 . S
C348 H333 0.959 . S
C348 H334 0.961 . S
C348 C347 1.502 . S
C349 H335 0.960 . S
C349 H336 0.961 . S
C349 H337 0.959 . S
C349 C347 1.561 . S
C350 C347 1.526 . S
C350 C351 1.396 1_556 S
C350 C355 1.390 . S
C351 C345 1.465 . S
C351 C350 1.396 1_554 S
C351 C352 1.399 . S
C352 H338 0.929 . S
C352 C351 1.399 . S
C352 C353 1.385 . S
C353 H339 0.931 . S
C353 C352 1.385 . S
C353 C354 1.389 . S
C354 C353 1.389 . S
C354 C355 1.387 1_554 S
C355 H340 0.930 . S
C355 C350 1.390 . S
C355 C354 1.387 1_556 S
H356 C368 0.930 . S
H357 C370 0.930 . S
H358 C371 0.930 . S
H359 C375 0.959 . S
H360 C375 0.959 . S
H361 C375 0.961 . S
H362 C376 0.960 . S
H363 C376 0.961 . S
H364 C376 0.959 . S
H365 C379 0.929 . S
H366 C380 0.931 . S
H367 C382 0.930 . S
C368 H356 0.930 . S
C368 C369 1.399 1_556 S
C368 C373 1.399 . S
C369 C368 1.399 1_554 S
C369 C370 1.376 . S
C370 H357 0.930 . S
C370 C369 1.376 . S
C370 C371 1.388 . S
C371 H358 0.930 . S
C371 C370 1.388 . S
C371 C372 1.390 . S
C372 C371 1.390 . S
C372 C373 1.394 1_554 S
C372 C378 1.465 . S
C373 C368 1.399 . S
C373 C372 1.394 1_556 S
C373 C374 1.516 . S
C374 C373 1.516 . S
C374 C375 1.502 . S
C374 C376 1.561 . S
C374 C377 1.526 . S
C375 H359 0.959 . S
C375 H360 0.959 . S
C375 H361 0.961 . S
C375 C374 1.502 . S
C376 H362 0.960 . S
C376 H363 0.961 . S
C376 H364 0.959 . S
C376 C374 1.561 . S
C377 C374 1.526 . S
C377 C378 1.396 1_556 S
C377 C382 1.390 . S
C378 C372 1.465 . S
C378 C377 1.396 1_554 S
C378 C379 1.399 . S
C379 H365 0.929 . S
C379 C378 1.399 . S
C379 C380 1.385 . S
C380 H366 0.931 . S
C380 C379 1.385 . S
C380 C381 1.389 . S
C381 C380 1.389 . S
C381 C382 1.387 1_554 S
C382 H367 0.930 . S
C382 C377 1.390 . S
C382 C381 1.387 1_556 S
H383 C395 0.930 . S
H384 C397 0.930 . S
H385 C398 0.930 . S
H386 C402 0.959 . S
H387 C402 0.959 . S
H388 C402 0.961 . S
H389 C403 0.960 . S
H390 C403 0.961 . S
H391 C403 0.959 . S
H392 C406 0.929 . S
H393 C407 0.931 . S
H394 C409 0.930 . S
C395 H383 0.930 . S
C395 C396 1.399 1_556 S
C395 C400 1.399 . S
C396 C395 1.399 1_554 S
C396 C397 1.376 . S
C397 H384 0.930 . S
C397 C396 1.376 . S
C397 C398 1.388 . S
C398 H385 0.930 . S
C398 C397 1.388 . S
C398 C399 1.390 . S
C399 C398 1.390 . S
C399 C400 1.394 1_554 S
C399 C405 1.465 . S
C400 C395 1.399 . S
C400 C399 1.394 1_556 S
C400 C401 1.516 . S
C401 C400 1.516 . S
C401 C402 1.502 . S
C401 C403 1.561 . S
C401 C404 1.526 . S
C402 H386 0.959 . S
C402 H387 0.959 . S
C402 H388 0.961 . S
C402 C401 1.502 . S
C403 H389 0.960 . S
C403 H390 0.961 . S
C403 H391 0.959 . S
C403 C401 1.561 . S
C404 C401 1.526 . S
C404 C405 1.396 1_556 S
C404 C409 1.390 . S
C405 C399 1.465 . S
C405 C404 1.396 1_554 S
C405 C406 1.399 . S
C406 H392 0.929 . S
C406 C405 1.399 . S
C406 C407 1.385 . S
C407 H393 0.931 . S
C407 C406 1.385 . S
C407 C408 1.389 . S
C408 C407 1.389 . S
C408 C409 1.387 1_554 S
C409 H394 0.930 . S
C409 C404 1.390 . S
C409 C408 1.387 1_556 S
H410 C422 0.930 . S
H411 C424 0.930 . S
H412 C425 0.930 . S
H413 C429 0.959 . S
H414 C429 0.959 . S
H415 C429 0.961 . S
H416 C430 0.960 . S
H417 C430 0.961 . S
H418 C430 0.959 . S
H419 C433 0.929 . S
H420 C434 0.931 . S
H421 C436 0.930 . S
C422 H410 0.930 . S
C422 C423 1.399 1_556 S
C422 C427 1.399 . S
C423 C422 1.399 1_554 S
C423 C424 1.376 . S
C424 H411 0.930 . S
C424 C423 1.376 . S
C424 C425 1.388 . S
C425 H412 0.930 . S
C425 C424 1.388 . S
C425 C426 1.390 . S
C426 C425 1.390 . S
C426 C427 1.394 1_554 S
C426 C432 1.465 . S
C427 C422 1.399 . S
C427 C426 1.394 1_556 S
C427 C428 1.516 . S
C428 C427 1.516 . S
C428 C429 1.502 . S
C428 C430 1.561 . S
C428 C431 1.526 . S
C429 H413 0.959 . S
C429 H414 0.959 . S
C429 H415 0.961 . S
C429 C428 1.502 . S
C430 H416 0.960 . S
C430 H417 0.961 . S
C430 H418 0.959 . S
C430 C428 1.561 . S
C431 C428 1.526 . S
C431 C432 1.396 1_556 S
C431 C436 1.390 . S
C432 C426 1.465 . S
C432 C431 1.396 1_554 S
C432 C433 1.399 . S
C433 H419 0.929 . S
C433 C432 1.399 . S
C433 C434 1.385 . S
C434 H420 0.931 . S
C434 C433 1.385 . S
C434 C435 1.389 . S
C435 C434 1.389 . S
C435 C436 1.387 1_554 S
C436 H421 0.930 . S
C436 C431 1.390 . S
C436 C435 1.387 1_556 S
C138 C64 1.192 . S
C126 C9 1.185 1_455 S
C165 C71 1.551 . S
C153 C38 1.491 . S
C192 C66 1.207 . S
C180 C17 1.129 1_455 S
C219 C72 1.534 . S
C207 C30 1.457 . S
C234 C19 1.174 . S
C246 C65 1.188 1_655 S
C273 C74 1.547 . S
C261 C33 1.485 . S
C288 C12 1.211 1_455 S
C300 C63 1.209 . S
C315 C40 1.520 . S
C327 C73 1.523 . S
C342 C59 1.868 . S
C354 C68 1.920 . S
C369 C61 1.841 . S
C381 C67 1.890 . S
C408 C70 1.899 . S
C396 C51 1.837 . S
C435 C69 1.917 . S
C423 C54 1.838 . S
