# Generated by pormake.
# Topology pth, (4,4)-cn, num edge types: 1
# Building blocks:
#     Node 0, Type 0, BuildingBlock: QUQFOY_clean_sbu_1, # of connection points: 4
#     Node 1, Type 0, BuildingBlock: QUQFOY_clean_sbu_1, # of connection points: 4
#     Node 2, Type 0, BuildingBlock: QUQFOY_clean_sbu_1, # of connection points: 4
#     Node 3, Type 1, BuildingBlock: NAWXER_clean_linker_0, # of connection points: 4
#     Node 4, Type 1, BuildingBlock: NAWXER_clean_linker_0, # of connection points: 4
#     Node 5, Type 1, BuildingBlock: NAWXER_clean_linker_0, # of connection points: 4
#     Edge 6, Type (0, 1), BuildingBlock: MIFKUJ_clean_linker_0, # of connection points: 2
#     Edge 7, Type (0, 1), BuildingBlock: MIFKUJ_clean_linker_0, # of connection points: 2
#     Edge 8, Type (0, 1), BuildingBlock: MIFKUJ_clean_linker_0, # of connection points: 2
#     Edge 9, Type (0, 1), BuildingBlock: MIFKUJ_clean_linker_0, # of connection points: 2
#     Edge 10, Type (0, 1), BuildingBlock: MIFKUJ_clean_linker_0, # of connection points: 2
#     Edge 11, Type (0, 1), BuildingBlock: MIFKUJ_clean_linker_0, # of connection points: 2
#     Edge 12, Type (0, 1), BuildingBlock: MIFKUJ_clean_linker_0, # of connection points: 2
#     Edge 13, Type (0, 1), BuildingBlock: MIFKUJ_clean_linker_0, # of connection points: 2
#     Edge 14, Type (0, 1), BuildingBlock: MIFKUJ_clean_linker_0, # of connection points: 2
#     Edge 15, Type (0, 1), BuildingBlock: MIFKUJ_clean_linker_0, # of connection points: 2
#     Edge 16, Type (0, 1), BuildingBlock: MIFKUJ_clean_linker_0, # of connection points: 2
#     Edge 17, Type (0, 1), BuildingBlock: MIFKUJ_clean_linker_0, # of connection points: 2
# Relax obj value: 0.022
# Max RMSD: 0.123
# Mean RMSD: 0.073
data_MOF--net-pth--node1-QUQFOY_clean_sbu_1--node2-NAWXER_clean_linker_0--edge1-MIFKUJ_clean_linker_0
_symmetry_space_group_name_H-M    P1
_symmetry_Int_Tables_number       1
_symmetry_cell_setting            triclinic
loop_
_symmetry_equiv_pos_as_xyz
'x, y, z'
_cell_length_a     34.885907
_cell_length_b     37.637523
_cell_length_c     84.225422
_cell_angle_alpha  90.011118
_cell_angle_beta   89.975168
_cell_angle_gamma 120.12009
loop_
_atom_site_label
_atom_site_type_symbol
_atom_site_fract_x
_atom_site_fract_y
_atom_site_fract_z
_atom_type_partial_charge
O0 O 0.03413 0.06098 0.04751 0.0
Cd1 Cd 0.98001 0.02174 0.06107 0.0
Cd2 Cd 0.02288 0.97875 0.06096 0.0
O3 O 0.07394 0.03089 0.05062 0.0
O4 O 0.95384 0.05618 0.06717 0.0
O5 O 0.98281 0.0325 0.08463 0.0
C6 C 0.96498 0.05469 0.08163 0.0
C7 C 0.03417 0.94592 0.08242 0.0
C8 C 0.06975 0.06029 0.0452 0.0
C9 C 0.93497 0.94123 0.04419 0.0
O10 O 0.9706 0.94058 0.04654 0.0
O11 O 0.93017 0.96996 0.05 0.0
O12 O 0.04848 0.94484 0.06841 0.0
O13 O 0.01504 0.96742 0.08445 0.0
O14 O 0.95673 0.02235 0.39694 0.0
Cd15 Cd 0.01421 0.03926 0.38433 0.0
Cd16 Cd 0.98063 0.95626 0.38521 0.0
O17 O 0.9275 0.95497 0.39644 0.0
O18 O 0.03517 0.09763 0.37879 0.0
O19 O 0.01434 0.04882 0.36072 0.0
C20 C 0.02782 0.08679 0.3641 0.0
C21 C 0.97138 0.91271 0.36403 0.0
C22 C 0.92563 0.98657 0.4005 0.0
C23 C 0.067 0.0088 0.40198 0.0
O24 O 0.03518 0.97284 0.39915 0.0
O25 O 0.06655 0.04003 0.39642 0.0
O26 O 0.96021 0.8989 0.3783 0.0
O27 O 0.98651 0.95142 0.36162 0.0
O28 O 0.93558 0.97028 0.71281 0.0
Cd29 Cd 0.97662 0.95896 0.7269 0.0
Cd30 Cd 0.02386 0.04116 0.7269 0.0
O31 O 0.96919 0.03744 0.7158 0.0
O32 O 0.93809 0.90109 0.73388 0.0
O33 O 0.96661 0.95361 0.75055 0.0
C34 C 0.94144 0.91463 0.74817 0.0
C35 C 0.05786 0.08537 0.74833 0.0
C36 C 0.93742 0.00436 0.71021 0.0
C37 C 0.0636 0.99587 0.71051 0.0
O38 O 0.06527 0.02993 0.713 0.0
O39 O 0.03178 0.96278 0.7161 0.0
O40 O 0.06146 0.09904 0.73405 0.0
O41 O 0.03332 0.04626 0.75058 0.0
C42 C 0.97724 0.36771 0.24764 0.0
C43 C 0.01265 0.37927 0.25828 0.0
C44 C 0.97419 0.39728 0.23854 0.0
C45 C 0.0068 0.43897 0.23973 0.0
C46 C 0.04488 0.42112 0.25959 0.0
C47 C 0.04184 0.45064 0.25047 0.0
C48 C 0.00409 0.47076 0.23021 0.0
C49 C 0.02348 0.38967 0.19578 0.0
C50 C 0.987 0.36741 0.18564 0.0
C51 C 0.02708 0.42238 0.20482 0.0
C52 C 0.99412 0.43334 0.20401 0.0
C53 C 0.95435 0.37887 0.18474 0.0
C54 C 0.95807 0.41166 0.19374 0.0
C55 C 0.99728 0.46773 0.21358 0.0
C56 C 0.03938 0.63756 0.19647 0.0
C57 C 0.00488 0.63057 0.18604 0.0
C58 C 0.03699 0.60545 0.20553 0.0
C59 C 1.00023 0.56564 0.20425 0.0
C60 C 0.96797 0.59076 0.18481 0.0
C61 C 0.96593 0.55842 0.19371 0.0
C62 C 0.99848 0.53164 0.21365 0.0
C63 C 0.96431 0.60253 0.24785 0.0
C64 C 0.99907 0.62728 0.25824 0.0
C65 C 0.96623 0.5726 0.23864 0.0
C66 C 0.00273 0.56657 0.23977 0.0
C67 C 0.03577 0.62145 0.2593 0.0
C68 C 0.0373 0.59092 0.25028 0.0
C69 C 0.00391 0.53405 0.23028 0.0
H70 H 0.95137 0.33588 0.24657 0.0
H71 H 0.94609 0.38759 0.23069 0.0
H72 H 0.07278 0.43107 0.26756 0.0
H73 H 0.06723 0.48263 0.25167 0.0
H74 H 0.04971 0.3823 0.19653 0.0
H75 H 0.05579 0.43931 0.21237 0.0
H76 H 0.92555 0.36219 0.17721 0.0
H77 H 0.93235 0.4197 0.19289 0.0
H78 H 0.06813 0.66797 0.19767 0.0
H79 H 0.06415 0.6116 0.21343 0.0
H80 H 0.94113 0.58455 0.17674 0.0
H81 H 0.93744 0.52787 0.19248 0.0
H82 H 0.93572 0.60648 0.2468 0.0
H83 H 0.93889 0.55374 0.23077 0.0
H84 H 0.06279 0.63994 0.26734 0.0
H85 H 0.06561 0.58656 0.25138 0.0
N86 N 0.00706 0.50382 0.23794 0.0
N87 N 0.99481 0.49837 0.20592 0.0
C88 C 0.64637 0.02638 0.52834 0.0
C89 C 0.62955 0.99839 0.51567 0.0
C90 C 0.61749 0.03038 0.53877 0.0
C91 C 0.57132 0.00546 0.53697 0.0
C92 C 0.58357 0.97365 0.51385 0.0
C93 C 0.5548 0.97702 0.52443 0.0
C94 C 0.53951 0.01082 0.54695 0.0
C95 C 0.61867 0.98475 0.5834 0.0
C96 C 0.64008 0.01613 0.59475 0.0
C97 C 0.58793 0.98524 0.57286 0.0
C98 C 0.57851 0.01738 0.57338 0.0
C99 C 0.63102 0.04854 0.59502 0.0
C100 C 0.60038 0.04899 0.58452 0.0
C101 C 0.54306 0.01669 0.56356 0.0
C102 C 0.36431 0.98794 0.58249 0.0
C103 C 0.37736 0.013 0.59607 0.0
C104 C 0.396 0.99073 0.57159 0.0
C105 C 0.44119 0.01935 0.57389 0.0
C106 C 0.42239 0.042 0.59822 0.0
C107 C 0.45393 0.04514 0.58725 0.0
C108 C 0.4759 0.01928 0.56376 0.0
C109 C 0.39737 0.05001 0.52928 0.0
C110 C 0.38205 0.0252 0.51566 0.0
C111 C 0.42629 0.04637 0.5398 0.0
C112 C 0.43926 0.017 0.53709 0.0
C113 C 0.39483 0.99579 0.51301 0.0
C114 C 0.42302 0.99168 0.52363 0.0
C115 C 0.47325 0.01508 0.54706 0.0
H116 H 0.6818 0.04618 0.5298 0.0
H117 H 0.63135 0.05378 0.54788 0.0
H118 H 0.56989 0.95181 0.50417 0.0
H119 H 0.51941 0.95767 0.52266 0.0
H120 H 0.6245 0.95908 0.58304 0.0
H121 H 0.57061 0.95995 0.56464 0.0
H122 H 0.6474 0.07348 0.60345 0.0
H123 H 0.59341 0.07396 0.58519 0.0
H124 H 0.32984 0.96497 0.58066 0.0
H125 H 0.38527 0.9694 0.56173 0.0
H126 H 0.43329 0.06193 0.60852 0.0
H127 H 0.48854 0.0672 0.5894 0.0
H128 H 0.38827 0.07318 0.53147 0.0
H129 H 0.43951 0.06741 0.54972 0.0
H130 H 0.38312 0.97607 0.50266 0.0
H131 H 0.43269 0.969 0.52117 0.0
N132 N 0.50489 0.01056 0.53944 0.0
N133 N 0.51106 0.02051 0.57123 0.0
C134 C 0.38751 0.36531 0.87217 0.0
C135 C 0.36307 0.37524 0.86158 0.0
C136 C 0.42048 0.3956 0.88175 0.0
C137 C 0.4295 0.43637 0.881 0.0
C138 C 0.37223 0.41614 0.86093 0.0
C139 C 0.40531 0.44639 0.87044 0.0
C140 C 0.46519 0.46917 0.89065 0.0
C141 C 0.36134 0.38455 0.92582 0.0
C142 C 0.37689 0.36657 0.93682 0.0
C143 C 0.39094 0.41653 0.91597 0.0
C144 C 0.43662 0.43091 0.91685 0.0
C145 C 0.42263 0.38102 0.93764 0.0
C146 C 0.45218 0.41303 0.92782 0.0
C147 C 0.46878 0.4663 0.90724 0.0
C148 C 0.60359 0.63917 0.92521 0.0
C149 C 0.6255 0.63136 0.93755 0.0
C150 C 0.57408 0.6074 0.91527 0.0
C151 C 0.56627 0.56726 0.91737 0.0
C152 C 0.61728 0.59107 0.9397 0.0
C153 C 0.58781 0.55934 0.92976 0.0
C154 C 0.53351 0.5329 0.90744 0.0
C155 C 0.64302 0.61544 0.87427 0.0
C156 C 0.63036 0.63071 0.86131 0.0
C157 C 0.61097 0.58455 0.88391 0.0
C158 C 0.56558 0.56905 0.88103 0.0
C159 C 0.58501 0.61485 0.8583 0.0
C160 C 0.55298 0.58433 0.86805 0.0
C161 C 0.53112 0.53506 0.89073 0.0
H162 H 0.38195 0.33434 0.87278 0.0
H163 H 0.43945 0.3873 0.88953 0.0
H164 H 0.35371 0.42485 0.8531 0.0
H165 H 0.4118 0.47766 0.86964 0.0
H166 H 0.32627 0.37397 0.92485 0.0
H167 H 0.3782 0.4305 0.90788 0.0
H168 H 0.43573 0.36827 0.94614 0.0
H169 H 0.48734 0.424 0.92885 0.0
H170 H 0.60932 0.66988 0.92318 0.0
H171 H 0.55694 0.61415 0.90609 0.0
H172 H 0.633 0.58385 0.94926 0.0
H173 H 0.5818 0.52852 0.93177 0.0
H174 H 0.67771 0.62654 0.87669 0.0
H175 H 0.62179 0.57224 0.8934 0.0
H176 H 0.57432 0.62617 0.84842 0.0
H177 H 0.51826 0.57263 0.86545 0.0
N178 N 0.4966 0.50334 0.88305 0.0
N179 N 0.50268 0.49835 0.91497 0.0
H180 H 0.99067 0.06362 0.11291 0.0
H181 H 0.99185 0.11323 0.13208 0.0
H182 H 0.93188 0.15438 0.09733 0.0
H183 H 0.93066 0.10523 0.07818 0.0
H184 H 0.00622 0.21785 0.11028 0.0
H185 H 0.87324 0.09832 0.12889 0.0
H186 H 0.82907 0.02742 0.13891 0.0
H187 H 0.91469 0.05859 0.17943 0.0
H188 H 0.95976 0.12958 0.16954 0.0
H189 H 0.9576 0.34763 0.15497 0.0
H190 H 0.95167 0.29119 0.13892 0.0
H191 H 0.00376 0.25321 0.17765 0.0
H192 H 0.00785 0.30861 0.19411 0.0
H193 H 0.93712 0.18776 0.16372 0.0
H194 H 0.0692 0.3066 0.146 0.0
H195 H 0.11537 0.37753 0.13626 0.0
H196 H 0.03497 0.34784 0.09435 0.0
H197 H 0.9879 0.27684 0.10395 0.0
C198 C 0.97709 0.08278 0.10945 0.0
C199 C 0.96073 0.08055 0.09399 0.0
C200 C 0.97775 0.11109 0.12042 0.0
C201 C 0.96202 0.13756 0.11611 0.0
C202 C 0.94437 0.13439 0.10088 0.0
C203 C 0.94356 0.10612 0.08996 0.0
C204 C 0.9662 0.1703 0.12704 0.0
C205 C 0.99064 0.21122 0.12189 0.0
C206 C 0.94725 0.16177 0.14241 0.0
C207 C 0.92015 0.11913 0.14838 0.0
C208 C 0.88289 0.08996 0.13986 0.0
C209 C 0.85763 0.04978 0.14554 0.0
C210 C 0.86914 0.03847 0.15978 0.0
C211 C 0.90586 0.06737 0.16839 0.0
C212 C 0.93124 0.10759 0.16276 0.0
C213 C 0.96726 0.32701 0.16019 0.0
C214 C 0.98333 0.33283 0.17585 0.0
C215 C 0.96432 0.29496 0.15091 0.0
C216 C 0.97793 0.2683 0.15698 0.0
C217 C 0.99328 0.27351 0.17269 0.0
C218 C 0.99602 0.30548 0.18202 0.0
C219 C 0.97644 0.23529 0.14682 0.0
C220 C 0.95278 0.1944 0.15213 0.0
C221 C 0.99646 0.24382 0.13162 0.0
C222 C 0.02479 0.28648 0.12577 0.0
C223 C 0.06116 0.31527 0.13477 0.0
C224 C 0.08752 0.35548 0.12926 0.0
C225 C 0.07805 0.36721 0.11471 0.0
C226 C 0.04224 0.33872 0.10562 0.0
C227 C 0.01573 0.29847 0.11109 0.0
H228 H 0.09851 0.39835 0.11047 0.0
H229 H 0.84955 0.00735 0.16415 0.0
H230 H 0.8879 0.93425 0.42526 0.0
H231 H 0.83554 0.93386 0.44459 0.0
H232 H 0.82781 0.02782 0.41769 0.0
H233 H 0.88314 0.0305 0.39911 0.0
H234 H 0.83368 0.04822 0.44565 0.0
H235 H 0.73989 0.9192 0.4206 0.0
H236 H 0.71701 0.85 0.41032 0.0
H237 H 0.72477 0.80969 0.45728 0.0
H238 H 0.74824 0.87879 0.46782 0.0
H239 H 0.62904 0.00808 0.48376 0.0
H240 H 0.67827 0.00383 0.46399 0.0
H241 H 0.74578 0.978 0.50113 0.0
H242 H 0.69732 0.98342 0.52107 0.0
H243 H 0.70746 0.92231 0.46851 0.0
H244 H 0.80496 0.05826 0.49194 0.0
H245 H 0.82052 0.12703 0.50033 0.0
H246 H 0.79566 0.15246 0.45294 0.0
H247 H 0.77926 0.08352 0.44434 0.0
C248 C 0.87441 0.95432 0.42339 0.0
C249 C 0.88924 0.98225 0.4107 0.0
C250 C 0.84424 0.95396 0.43439 0.0
C251 C 0.82689 0.98035 0.43256 0.0
C252 C 0.84068 0.00725 0.41948 0.0
C253 C 0.87204 0.00861 0.40879 0.0
C254 C 0.79674 0.98187 0.44475 0.0
C255 C 0.8058 0.02051 0.45041 0.0
C256 C 0.76042 0.94593 0.45126 0.0
C257 C 0.74622 0.90429 0.44497 0.0
C258 C 0.73701 0.89565 0.42872 0.0
C259 C 0.72389 0.85643 0.42285 0.0
C260 C 0.71954 0.8255 0.43313 0.0
C261 C 0.72819 0.83369 0.44932 0.0
C262 C 0.74136 0.87286 0.45525 0.0
C263 C 0.65444 1.00154 0.48768 0.0
C264 C 0.65959 0.99609 0.50388 0.0
C265 C 0.68241 0.99912 0.47642 0.0
C266 C 0.7154 0.99053 0.48117 0.0
C267 C 0.72036 0.98461 0.49731 0.0
C268 C 0.69296 0.9879 0.50864 0.0
C269 C 0.74495 0.98827 0.46918 0.0
C270 C 0.73553 0.94966 0.4636 0.0
C271 C 0.78012 0.02409 0.46241 0.0
C272 C 0.79039 0.06561 0.46755 0.0
C273 C 0.80236 0.07836 0.48336 0.0
C274 C 0.81144 0.1174 0.48814 0.0
C275 C 0.80895 0.14406 0.47719 0.0
C276 C 0.79751 0.13176 0.46141 0.0
C277 C 0.78835 0.09273 0.45658 0.0
H278 H 0.81599 0.17427 0.48091 0.0
H279 H 0.70939 0.79516 0.42856 0.0
H280 H 0.94601 0.93049 0.78018 0.0
H281 H 0.89666 0.88466 0.80102 0.0
H282 H 0.82621 0.79006 0.7661 0.0
H283 H 0.8754 0.8351 0.74535 0.0
H284 H 0.77153 0.80815 0.78571 0.0
H285 H 0.89123 0.77852 0.79001 0.0
H286 H 0.96904 0.79684 0.79402 0.0
H287 H 0.96892 0.8461 0.84 0.0
H288 H 0.89124 0.82857 0.83616 0.0
H289 H 0.6318 0.63029 0.82897 0.0
H290 H 0.68774 0.68149 0.8113 0.0
H291 H 0.76143 0.75358 0.85183 0.0
H292 H 0.70588 0.70163 0.8696 0.0
H293 H 0.8166 0.75318 0.83105 0.0
H294 H 0.69799 0.78096 0.82832 0.0
H295 H 0.62097 0.76572 0.82501 0.0
H296 H 0.61969 0.72539 0.77722 0.0
H297 H 0.69653 0.73984 0.78031 0.0
C298 C 0.92032 0.89976 0.777 0.0
C299 C 0.91461 0.88644 0.76111 0.0
C300 C 0.89222 0.87365 0.7889 0.0
C301 C 0.85778 0.83406 0.78505 0.0
C302 C 0.85252 0.82055 0.76928 0.0
C303 C 0.88083 0.84632 0.75745 0.0
C304 C 0.82588 0.80698 0.79726 0.0
C305 C 0.78123 0.7958 0.79556 0.0
C306 C 0.83897 0.79222 0.81041 0.0
C307 C 0.88561 0.80269 0.81272 0.0
C308 C 0.90793 0.79363 0.80091 0.0
C309 C 0.95198 0.80378 0.80316 0.0
C310 C 0.97396 0.82274 0.81723 0.0
C311 C 0.95189 0.83148 0.82909 0.0
C312 C 0.90784 0.82142 0.82689 0.0
C313 C 0.65976 0.65721 0.8341 0.0
C314 C 0.66431 0.66216 0.85065 0.0
C315 C 0.69172 0.68652 0.824 0.0
C316 C 0.72846 0.72188 0.8302 0.0
C317 C 0.73335 0.72665 0.84675 0.0
C318 C 0.70162 0.697 0.85689 0.0
C319 C 0.76179 0.75349 0.81935 0.0
C320 C 0.80676 0.76571 0.82131 0.0
C321 C 0.74912 0.76979 0.80654 0.0
C322 C 0.70293 0.76119 0.8046 0.0
C323 C 0.68119 0.76858 0.81714 0.0
C324 C 0.63758 0.76011 0.8153 0.0
C325 C 0.61542 0.74452 0.80093 0.0
C326 C 0.63689 0.73744 0.78835 0.0
C327 C 0.68049 0.74581 0.79013 0.0
H328 H 0.58166 0.73798 0.79952 0.0
H329 H 0.00806 0.83057 0.81896 0.0
H330 H 0.98382 0.919 0.10938 0.0
H331 H 0.98038 0.86839 0.12841 0.0
H332 H 0.08681 0.86492 0.10364 0.0
H333 H 0.08895 0.91405 0.08424 0.0
H334 H 0.02558 0.79143 0.10846 0.0
H335 H 0.09796 0.90971 0.14195 0.0
H336 H 0.10907 0.9722 0.15556 0.0
H337 H 0.98594 0.90145 0.1804 0.0
H338 H 0.97379 0.83858 0.16678 0.0
H339 H 0.07374 0.68338 0.16733 0.0
H340 H 0.07913 0.7396 0.15098 0.0
H341 H 0.94909 0.71146 0.16654 0.0
H342 H 0.94322 0.65461 0.18276 0.0
H343 H 0.02055 0.80001 0.16713 0.0
H344 H 0.95076 0.6814 0.13275 0.0
H345 H 0.94436 0.62018 0.11954 0.0
H346 H 0.07001 0.69498 0.09673 0.0
H347 H 0.07746 0.75659 0.11001 0.0
C348 C 0.00699 0.90796 0.10818 0.0
C349 C 0.03659 0.92042 0.0953 0.0
C350 C 0.00509 0.87907 0.1191 0.0
C351 C 0.03349 0.86283 0.11756 0.0
C352 C 0.06434 0.87669 0.10506 0.0
C353 C 0.06569 0.90496 0.09401 0.0
C354 C 0.02921 0.82945 0.12824 0.0
C355 C 0.02519 0.79377 0.12129 0.0
C356 C 0.02758 0.83176 0.14501 0.0
C357 C 0.03476 0.8695 0.15322 0.0
C358 C 0.07307 0.90752 0.15022 0.0
C359 C 0.07959 0.943 0.15795 0.0
C360 C 0.04817 0.94082 0.1688 0.0
C361 C 0.01022 0.90311 0.17198 0.0
C362 C 0.00352 0.86754 0.16426 0.0
C363 C 0.0464 0.68931 0.1673 0.0
C364 C 0.00803 0.66468 0.17626 0.0
C365 C 0.04948 0.72132 0.15796 0.0
C366 C 0.01451 0.7296 0.15759 0.0
C367 C 0.97644 0.70554 0.16672 0.0
C368 C 0.973 0.673 0.17587 0.0
C369 C 0.01746 0.76274 0.14726 0.0
C370 C 0.02107 0.79808 0.15428 0.0
C371 C 0.01941 0.7605 0.13057 0.0
C372 C 0.01488 0.72353 0.12251 0.0
C373 C 0.97722 0.68474 0.12503 0.0
C374 C 0.97336 0.64998 0.11751 0.0
C375 C 0.00681 0.65367 0.10733 0.0
C376 C 0.04415 0.69215 0.10463 0.0
C377 C 0.04819 0.72701 0.11215 0.0
H378 H 0.00376 0.62672 0.10152 0.0
H379 H 0.05329 0.96832 0.17478 0.0
H380 H 0.0712 0.9494 0.41906 0.0
H381 H 0.12788 0.95757 0.43787 0.0
H382 H 0.20246 0.08741 0.42769 0.0
H383 H 0.14477 0.07967 0.40908 0.0
H384 H 0.2099 0.97915 0.43543 0.0
H385 H 0.25944 0.13912 0.46104 0.0
H386 H 0.22672 0.18323 0.46534 0.0
H387 H 0.09668 0.0766 0.46722 0.0
H388 H 0.12867 0.03187 0.46313 0.0
H389 H 0.39551 0.03661 0.48385 0.0
H390 H 0.34647 0.04043 0.46405 0.0
H391 H 0.25509 0.02796 0.50114 0.0
H392 H 0.30512 0.02569 0.52106 0.0
H393 H 0.25743 0.07928 0.47975 0.0
H394 H 0.24025 0.94469 0.4784 0.0
H395 H 0.26507 0.89398 0.47628 0.0
H396 H 0.31568 0.93781 0.4295 0.0
H397 H 0.29169 0.98919 0.43143 0.0
C398 C 0.09968 0.97975 0.42073 0.0
C399 C 0.10332 0.01393 0.41258 0.0
C400 C 0.13218 0.98435 0.4315 0.0
C401 C 0.16927 0.02315 0.43434 0.0
C402 C 0.17374 0.05726 0.42591 0.0
C403 C 0.14087 0.05276 0.41521 0.0
C404 C 0.20276 0.0274 0.44624 0.0
C405 C 0.22043 1.00122 0.44506 0.0
C406 C 0.216 0.05566 0.459 0.0
C407 C 0.19644 0.08223 0.46159 0.0
C408 C 0.22388 0.12511 0.46241 0.0
C409 C 0.20546 0.15021 0.46481 0.0
C410 C 0.15964 0.13274 0.46649 0.0
C411 C 0.13214 0.09011 0.46585 0.0
C412 C 0.1504 0.06488 0.46347 0.0
C413 C 0.36507 0.03497 0.48775 0.0
C414 C 0.35372 0.03038 0.50392 0.0
C415 C 0.33706 0.03708 0.47645 0.0
C416 C 0.29661 0.03359 0.48106 0.0
C417 C 0.28606 0.03062 0.49729 0.0
C418 C 0.31452 0.02922 0.50865 0.0
C419 C 0.26442 0.03097 0.46892 0.0
C420 C 0.24715 0.05749 0.47003 0.0
C421 C 0.25034 1.00206 0.45636 0.0
C422 C 0.26458 0.97104 0.45513 0.0
C423 C 0.25694 0.94369 0.4677 0.0
C424 C 0.27082 0.91481 0.46653 0.0
C425 C 0.29204 0.91275 0.45278 0.0
C426 C 0.2993 0.93949 0.44015 0.0
C427 C 0.28555 0.96848 0.44127 0.0
H428 H 0.30277 0.89037 0.4519 0.0
H429 H 0.14544 0.15222 0.46834 0.0
H430 H 0.06281 0.06649 0.7795 0.0
H431 H 0.11127 0.11321 0.80023 0.0
H432 H 0.15953 0.21464 0.76739 0.0
H433 H 0.11169 0.16839 0.74669 0.0
H434 H 0.22661 0.21155 0.78208 0.0
H435 H 0.0894 0.2042 0.79741 0.0
H436 H 0.01069 0.16889 0.80527 0.0
H437 H 0.03997 0.11835 0.84609 0.0
H438 H 0.11882 0.15295 0.83835 0.0
H439 H 0.34604 0.38392 0.83053 0.0
H440 H 0.29086 0.33211 0.81296 0.0
H441 H 0.24906 0.24212 0.85044 0.0
H442 H 0.30301 0.29449 0.86841 0.0
H443 H 0.17872 0.23454 0.83468 0.0
H444 H 0.31556 0.24329 0.82035 0.0
H445 H 0.39441 0.27751 0.81274 0.0
H446 H 0.36613 0.3231 0.77024 0.0
H447 H 0.28717 0.28963 0.77771 0.0
C448 C 0.08334 0.09884 0.77677 0.0
C449 C 0.08347 0.11368 0.76143 0.0
C450 C 0.11097 0.1255 0.78863 0.0
C451 C 0.13902 0.16744 0.78535 0.0
C452 C 0.13831 0.18239 0.77017 0.0
C453 C 0.11078 0.15587 0.75835 0.0
C454 C 0.17084 0.19566 0.79739 0.0
C455 C 0.21607 0.21692 0.79351 0.0
C456 C 0.15726 0.20153 0.81253 0.0
C457 C 0.10991 0.18079 0.8172 0.0
C458 C 0.07899 0.18527 0.80798 0.0
C459 C 0.03436 0.16545 0.81243 0.0
C460 C 0.02031 0.14129 0.82614 0.0
C461 C 0.05089 0.13701 0.83546 0.0
C462 C 0.09555 0.15675 0.83105 0.0
C463 C 0.32475 0.35331 0.83516 0.0
C464 C 0.32909 0.34345 0.85092 0.0
C465 C 0.2935 0.32353 0.82501 0.0
C466 C 0.26627 0.28301 0.83028 0.0
C467 C 0.26989 0.27312 0.84608 0.0
C468 C 0.30106 0.30302 0.85629 0.0
C469 C 0.23439 0.25113 0.8192 0.0
C470 C 0.18927 0.22903 0.82328 0.0
C471 C 0.24804 0.2442 0.80424 0.0
C472 C 0.29549 0.26421 0.79966 0.0
C473 C 0.3262 0.26085 0.80944 0.0
C474 C 0.37091 0.28008 0.80514 0.0
C475 C 0.38528 0.30253 0.79104 0.0
C476 C 0.35495 0.30572 0.78117 0.0
C477 C 0.3102 0.28659 0.78542 0.0
H478 H 0.41992 0.3174 0.78773 0.0
H479 H 0.98575 0.12598 0.82957 0.0
H480 H 0.86573 0.93937 0.69637 0.0
H481 H 0.8146 0.94131 0.67713 0.0
H482 H 0.88144 0.07333 0.68106 0.0
H483 H 0.93338 0.07179 0.70018 0.0
H484 H 0.756 0.96666 0.67785 0.0
H485 H 0.88284 0.1131 0.64439 0.0
H486 H 0.96309 0.15194 0.63878 0.0
H487 H 0.96992 0.04173 0.64387 0.0
H488 H 0.88964 0.00217 0.64929 0.0
H489 H 0.64492 0.03365 0.62641 0.0
H490 H 0.69488 0.03139 0.64613 0.0
H491 H 0.75284 0.99128 0.61015 0.0
H492 H 0.70373 0.9947 0.59018 0.0
H493 H 0.81577 0.04954 0.62878 0.0
H494 H 0.67966 0.92327 0.63638 0.0
H495 H 0.59929 0.87937 0.64081 0.0
H496 H 0.61067 0.93964 0.6853 0.0
H497 H 0.69106 0.98432 0.68102 0.0
C498 C 0.86947 0.96886 0.69325 0.0
C499 C 0.90392 0.00548 0.69974 0.0
C500 C 0.84008 0.96987 0.68227 0.0
C501 C 0.84456 0.00747 0.67749 0.0
C502 C 0.87784 0.044 0.68438 0.0
C503 C 0.90735 0.04305 0.69537 0.0
C504 C 0.81511 0.0083 0.66498 0.0
C505 C 0.76907 0.98491 0.66716 0.0
C506 C 0.83214 0.03142 0.65086 0.0
C507 C 0.88034 0.05481 0.64742 0.0
C508 C 0.90146 0.09716 0.64426 0.0
C509 C 0.94695 0.11929 0.64112 0.0
C510 C 0.97162 0.09935 0.64103 0.0
C511 C 0.95081 0.05718 0.64401 0.0
C512 C 0.90533 0.0349 0.64713 0.0
C513 C 0.66862 0.02477 0.62264 0.0
C514 C 0.67044 0.01445 0.60671 0.0
C515 C 0.69686 0.02312 0.63396 0.0
C516 C 0.72728 0.01079 0.62964 0.0
C517 C 0.72952 1.0008 0.61374 0.0
C518 C 0.70122 0.00244 0.60237 0.0
C519 C 0.75669 0.00835 0.64177 0.0
C520 C 0.80271 0.03145 0.63951 0.0
C521 C 0.73962 0.9843 0.65567 0.0
C522 C 0.69132 0.95739 0.65831 0.0
C523 C 0.66497 0.92738 0.64705 0.0
C524 C 0.61942 0.90232 0.64954 0.0
C525 C 0.59987 0.90678 0.66331 0.0
C526 C 0.62586 0.93625 0.67463 0.0
C527 C 0.67142 0.96143 0.67219 0.0
H528 H 0.5646 0.88734 0.66522 0.0
H529 H 0.00683 0.11655 0.63861 0.0
H530 H 0.93432 0.87501 0.03068 0.0
H531 H 0.87935 0.82457 0.01265 0.0
H532 H 0.80157 0.88416 0.01637 0.0
H533 H 0.85642 0.93484 0.03465 0.0
H534 H 0.74986 0.80031 0.01734 0.0
H535 H 0.86437 0.90025 0.98412 0.0
H536 H 0.94108 0.94493 0.97487 0.0
H537 H 0.95344 0.839 0.96544 0.0
H538 H 0.87697 0.79367 0.97485 0.0
H539 H 0.61536 0.69294 0.95056 0.0
H540 H 0.66598 0.74753 0.9685 0.0
H541 H 0.75521 0.69953 0.9672 0.0
H542 H 0.70554 0.64573 0.94886 0.0
H543 H 0.79949 0.78147 0.96437 0.0
H544 H 0.68626 0.68187 0.99888 0.0
H545 H 0.60969 0.63722 0.00829 0.0
H546 H 0.59488 0.74274 0.01523 0.0
H547 H 0.67122 0.788 0.00565 0.0
C548 C 0.90547 0.87741 0.02775 0.0
C549 C 0.89998 0.90922 0.03403 0.0
C550 C 0.87414 0.84858 0.01738 0.0
C551 C 0.83677 0.85103 0.01295 0.0
C552 C 0.83032 0.88187 0.01958 0.0
C553 C 0.86172 0.91082 0.03 0.0
C554 C 0.805 0.82163 1.00122 0.0
C555 C 0.7605 0.79662 0.00566 0.0
C556 C 0.8191 0.81642 0.98607 0.0
C557 C 0.86504 0.84358 0.98031 0.0
C558 C 0.88355 0.88649 0.98018 0.0
C559 C 0.92697 0.91193 0.97489 0.0
C560 C 0.95215 0.89482 0.9696 0.0
C561 C 0.93391 0.85221 0.96955 0.0
C562 C 0.89051 0.82662 0.97485 0.0
C563 C 0.64599 0.69426 0.95396 0.0
C564 C 0.65636 0.6649 0.94831 0.0
C565 C 0.67466 0.72524 0.96434 0.0
C566 C 0.71412 0.72731 0.96935 0.0
C567 C 0.72485 0.69842 0.96354 0.0
C568 C 0.69625 0.66749 0.95316 0.0
C569 C 0.74447 0.75962 0.98057 0.0
C570 C 0.78873 0.78529 0.97601 0.0
C571 C 0.73011 0.76542 0.99559 0.0
C572 C 0.68427 0.73827 1.00139 0.0
C573 C 0.66655 0.69552 0.00229 0.0
C574 C 0.62322 0.67011 0.00768 0.0
C575 C 0.59739 0.68712 0.01231 0.0
C576 C 0.6149 0.7296 0.01161 0.0
C577 C 0.6582 0.75515 0.00622 0.0
H578 H 0.56386 0.66739 0.01649 0.0
H579 H 0.98577 0.91457 0.96551 0.0
H580 H 0.01909 0.93352 0.33642 0.0
H581 H 0.02304 0.88686 0.31712 0.0
H582 H 0.92267 0.78296 0.34323 0.0
H583 H 0.92032 0.82945 0.36291 0.0
H584 H 0.9845 0.76874 0.33702 0.0
H585 H 0.90506 0.81583 0.3053 0.0
H586 H 0.89025 0.86643 0.29232 0.0
H587 H 0.01084 0.91294 0.26558 0.0
H588 H 0.02668 0.86294 0.27856 0.0
H589 H 0.93122 0.61581 0.27754 0.0
H590 H 0.92673 0.66685 0.29432 0.0
H591 H 0.0557 0.75995 0.27799 0.0
H592 H 0.06076 0.70869 0.26137 0.0
H593 H 0.98182 0.78065 0.27843 0.0
H594 H 0.0583 0.73009 0.3111 0.0
H595 H 0.06755 0.67572 0.32369 0.0
H596 H 0.94401 0.63153 0.34831 0.0
H597 H 0.9337 0.68529 0.33566 0.0
C598 C 0.99741 0.90074 0.33788 0.0
C599 C 0.96945 0.8851 0.35117 0.0
C600 C 0.99956 0.87403 0.32681 0.0
C601 C 0.97294 0.83121 0.3286 0.0
C602 C 0.94378 0.81577 0.34159 0.0
C603 C 0.94229 0.84238 0.3528 0.0
C604 C 0.97726 0.80236 0.31761 0.0
C605 C 0.98324 0.77118 0.32422 0.0
C606 C 0.97668 0.80579 0.30085 0.0
C607 C 0.96728 0.83592 0.29303 0.0
C608 C 0.9286 0.83707 0.29675 0.0
C609 C 0.91999 0.8656 0.28937 0.0
C610 C 0.94965 0.89297 0.27816 0.0
C611 C 0.98793 0.89177 0.27428 0.0
C612 C 0.99673 0.86332 0.28163 0.0
C613 C 0.95851 0.6472 0.2775 0.0
C614 C 0.99637 0.65838 0.26821 0.0
C615 C 0.95593 0.67624 0.28707 0.0
C616 C 0.99086 0.71707 0.28735 0.0
C617 C 0.02839 0.72857 0.27787 0.0
C618 C 0.03136 0.69931 0.2685 0.0
C619 C 0.98849 0.7473 0.29794 0.0
C620 C 0.983 0.77858 0.29125 0.0
C621 C 0.98872 0.74361 0.31462 0.0
C622 C 0.99501 0.71144 0.32231 0.0
C623 C 0.0329 0.70854 0.31908 0.0
C624 C 0.03838 0.67788 0.32625 0.0
C625 C 0.00633 0.65011 0.33676 0.0
C626 C 0.96878 0.65302 0.34015 0.0
C627 C 0.96312 0.6836 0.33299 0.0
H628 H 0.01064 0.62641 0.3423 0.0
H629 H 0.94292 0.91503 0.27246 0.0
H630 H 0.07406 0.9299 0.70361 0.0
H631 H 0.12869 0.92847 0.68574 0.0
H632 H 0.18328 0.05755 0.67603 0.0
H633 H 0.12991 0.05952 0.69408 0.0
H634 H 0.14172 0.9417 0.6551 0.0
H635 H 0.29178 0.10376 0.6688 0.0
H636 H 0.32354 0.15082 0.6916 0.0
H637 H 0.26136 0.04873 0.72375 0.0
H638 H 0.22973 1.00101 0.70115 0.0
H639 H 0.29717 0.00837 0.59202 0.0
H640 H 0.24412 1.00094 0.61267 0.0
H641 H 0.33027 0.99669 0.64847 0.0
H642 H 0.38378 0.00537 0.62793 0.0
H643 H 0.30231 0.04362 0.65836 0.0
H644 H 0.23188 0.90905 0.63614 0.0
H645 H 0.20132 0.8567 0.615 0.0
H646 H 0.10678 0.89367 0.60304 0.0
H647 H 0.13718 0.94664 0.62397 0.0
C648 C 0.09801 0.95806 0.69779 0.0
C649 C 0.09773 0.99487 0.70035 0.0
C650 C 0.12908 0.95715 0.68753 0.0
C651 C 0.16041 0.99299 0.67966 0.0
C652 C 0.16007 0.02968 0.6822 0.0
C653 C 0.12935 0.0307 0.69251 0.0
C654 C 0.19276 0.99208 0.66844 0.0
C655 C 0.17687 0.96384 0.65584 0.0
C656 C 0.23876 0.0204 0.66959 0.0
C657 C 0.25808 0.04886 0.68326 0.0
C658 C 0.28505 0.09134 0.68073 0.0
C659 C 0.303 0.11813 0.69362 0.0
C660 C 0.29437 0.10279 0.70912 0.0
C661 C 0.26789 0.06059 0.71175 0.0
C662 C 0.24989 0.03366 0.6989 0.0
C663 C 0.30455 0.00564 0.6043 0.0
C664 C 0.34459 0.00762 0.60841 0.0
C665 C 0.27419 1.00122 0.61609 0.0
C666 C 0.28291 0.99777 0.63214 0.0
C667 C 0.32281 0.99943 0.6362 0.0
C668 C 0.35339 0.00443 0.62446 0.0
C669 C 0.25123 0.99378 0.64479 0.0
C670 C 0.26723 0.02122 0.65764 0.0
C671 C 0.20556 0.96396 0.64411 0.0
C672 C 0.18706 0.93204 0.63154 0.0
C673 C 0.20478 0.90621 0.62893 0.0
C674 C 0.18745 0.8764 0.61699 0.0
C675 C 0.15219 0.87192 0.60766 0.0
C676 C 0.13411 0.89719 0.61027 0.0
C677 C 0.15135 0.92708 0.62218 0.0
H678 H 0.13883 0.84883 0.59842 0.0
H679 H 0.30827 0.12358 0.71908 0.0
H680 H 0.14233 0.06132 0.03208 0.0
H681 H 0.19675 0.11269 0.01395 0.0
H682 H 0.13204 0.1844 0.01817 0.0
H683 H 0.07707 0.13287 0.03594 0.0
H684 H 0.14688 0.17673 0.98818 0.0
H685 H 0.2337 0.21297 0.03616 0.0
H686 H 0.26794 0.20028 0.05947 0.0
H687 H 0.34094 0.1642 0.02887 0.0
H688 H 0.3067 0.17618 0.00537 0.0
H689 H 0.30762 0.3633 0.95325 0.0
H690 H 0.2574 0.31015 0.9717 0.0
H691 H 0.32574 0.24281 0.96381 0.0
H692 H 0.37625 0.29601 0.94532 0.0
H693 H 0.30996 0.24567 0.99489 0.0
H694 H 0.22494 0.21149 0.94693 0.0
H695 H 0.19113 0.22457 0.9236 0.0
H696 H 0.11464 0.25665 0.95418 0.0
H697 H 0.14847 0.2443 0.97771 0.0
C698 C 0.14 0.08826 0.02929 0.0
C699 C 0.10527 0.09293 0.03542 0.0
C700 C 0.17121 0.11767 0.01894 0.0
C701 C 0.16864 0.15255 0.01474 0.0
C702 C 0.13461 0.15767 0.02117 0.0
C703 C 0.10325 0.1282 0.03138 0.0
C704 C 0.20004 0.18294 0.00312 0.0
C705 C 0.18253 0.19218 0.98978 0.0
C706 C 0.2466 0.20218 0.00491 0.0
C707 C 0.26729 0.19506 0.01902 0.0
C708 C 0.25679 0.20202 0.03441 0.0
C709 C 0.27625 0.19501 0.04765 0.0
C710 C 0.3065 0.18133 0.04565 0.0
C711 C 0.31746 0.17474 0.0304 0.0
C712 C 0.29807 0.18167 0.01712 0.0
C713 C 0.31164 0.33694 0.95529 0.0
C714 C 0.34576 0.33374 0.94775 0.0
C715 C 0.28298 0.30662 0.96587 0.0
C716 C 0.2875 0.27226 0.969 0.0
C717 C 0.32168 0.26908 0.96158 0.0
C718 C 0.35051 0.2995 0.95103 0.0
C719 C 0.2567 0.23987 0.98012 0.0
C720 C 0.2743 0.23013 0.99331 0.0
C721 C 0.21017 0.22013 0.97821 0.0
C722 C 0.18953 0.2273 0.96408 0.0
C723 C 0.20114 0.22161 0.94868 0.0
C724 C 0.18194 0.22885 0.93542 0.0
C725 C 0.15083 0.24152 0.93741 0.0
C726 C 0.13877 0.24687 0.95266 0.0
C727 C 0.15791 0.23971 0.96596 0.0
H728 H 0.136 0.24712 0.92713 0.0
H729 H 0.32153 0.17592 0.05592 0.0
H730 H 0.01004 0.0736 0.33216 0.0
H731 H 0.00947 0.12187 0.31272 0.0
H732 H 0.05333 0.21531 0.34891 0.0
H733 H 0.05385 0.16754 0.36832 0.0
H734 H 0.98155 0.20682 0.33313 0.0
H735 H 0.12297 0.22096 0.31988 0.0
H736 H 0.17357 0.19621 0.31194 0.0
H737 H 0.10086 0.1483 0.26858 0.0
H738 H 0.04943 0.1723 0.27637 0.0
H739 H 0.03603 0.38517 0.28959 0.0
H740 H 0.04009 0.33372 0.306 0.0
H741 H 0.99855 0.25052 0.26617 0.0
H742 H 0.99577 0.3025 0.24948 0.0
H743 H 0.06524 0.24961 0.28245 0.0
H744 H 0.92552 0.23714 0.29497 0.0
H745 H 0.87414 0.26115 0.30271 0.0
H746 H 0.94183 0.30413 0.34725 0.0
H747 H 0.99405 0.2809 0.33968 0.0
C748 C 0.02013 0.1046 0.33591 0.0
C749 C 0.03186 0.11666 0.3518 0.0
C750 C 0.01983 0.13216 0.32478 0.0
C751 C 0.03132 0.1722 0.32937 0.0
C752 C 0.04415 0.18453 0.34512 0.0
C753 C 0.04458 0.15716 0.35619 0.0
C754 C 0.02796 0.20085 0.31809 0.0
C755 C 1.00026 0.21653 0.32213 0.0
C756 C 0.05118 0.21244 0.3035 0.0
C757 C 0.08206 0.19801 0.2988 0.0
C758 C 0.11753 0.20481 0.30872 0.0
C759 C 0.14641 0.19099 0.30423 0.0
C760 C 0.14035 0.17058 0.28978 0.0
C761 C 0.10546 0.16405 0.27978 0.0
C762 C 0.07646 0.17778 0.28422 0.0
C763 C 0.02825 0.35613 0.28424 0.0
C764 C 0.01547 0.34795 0.26821 0.0
C765 C 0.03019 0.32658 0.29369 0.0
C766 C 0.01907 0.28804 0.28737 0.0
C767 C 0.00709 0.27997 0.27131 0.0
C768 C 0.00513 0.30958 0.26183 0.0
C769 C 0.01951 0.25618 0.29766 0.0
C770 C 0.04642 0.23976 0.29341 0.0
C771 C 0.99538 0.24368 0.31206 0.0
C772 C 0.96395 0.25759 0.31669 0.0
C773 C 0.92967 0.25199 0.30636 0.0
C774 C 0.90036 0.26542 0.31073 0.0
C775 C 0.90478 0.28424 0.32544 0.0
C776 C 0.93848 0.28959 0.33584 0.0
C777 C 0.96791 0.27626 0.33153 0.0
H778 H 0.88205 0.29461 0.3288 0.0
H779 H 0.16275 0.15992 0.28632 0.0
loop_
_geom_bond_atom_site_label_1
_geom_bond_atom_site_label_2
_geom_bond_distance
_geom_bond_site_symmetry_2
_ccdc_geom_bond_type
O0 Cd1 2.223 1_455 S
O0 C8 1.315 . S
Cd1 O0 2.223 1_655 S
Cd1 O4 2.297 . S
Cd1 O5 2.439 . S
Cd1 O11 2.240 1_545 S
Cd2 O3 2.240 1_565 S
Cd2 O10 2.223 1_455 S
Cd2 O12 2.297 . S
Cd2 O13 2.439 . S
O3 Cd2 2.240 1_545 S
O3 C8 1.279 . S
O4 Cd1 2.297 . S
O4 C6 1.247 . S
O5 Cd1 2.439 . S
O5 C6 1.208 . S
C6 O4 1.247 . S
C6 O5 1.208 . S
C7 O12 1.247 . S
C7 O13 1.208 . S
C8 O0 1.315 . S
C8 O3 1.279 . S
C9 O10 1.315 . S
C9 O11 1.279 . S
O10 Cd2 2.223 1_655 S
O10 C9 1.315 . S
O11 Cd1 2.240 1_565 S
O11 C9 1.279 . S
O12 Cd2 2.297 . S
O12 C7 1.247 . S
O13 Cd2 2.439 . S
O13 C7 1.208 . S
O14 Cd15 2.223 1_655 S
O14 C22 1.315 . S
Cd15 O14 2.223 1_455 S
Cd15 O18 2.297 . S
Cd15 O19 2.439 . S
Cd15 O25 2.240 . S
Cd16 O17 2.240 . S
Cd16 O24 2.223 1_655 S
Cd16 O26 2.297 . S
Cd16 O27 2.439 . S
O17 Cd16 2.240 . S
O17 C22 1.279 1_565 S
O18 Cd15 2.297 . S
O18 C20 1.247 . S
O19 Cd15 2.439 . S
O19 C20 1.208 . S
C20 O18 1.247 . S
C20 O19 1.208 . S
C21 O26 1.247 . S
C21 O27 1.208 . S
C22 O14 1.315 . S
C22 O17 1.279 1_545 S
C23 O24 1.315 . S
C23 O25 1.279 1_565 S
O24 Cd16 2.223 1_455 S
O24 C23 1.315 . S
O25 Cd15 2.240 . S
O25 C23 1.279 1_545 S
O26 Cd16 2.297 . S
O26 C21 1.247 . S
O27 Cd16 2.439 . S
O27 C21 1.208 . S
O28 Cd29 2.223 . S
O28 C36 1.315 . S
Cd29 O28 2.223 . S
Cd29 O32 2.297 . S
Cd29 O33 2.439 . S
Cd29 O39 2.240 1_655 S
Cd30 O31 2.240 1_455 S
Cd30 O38 2.223 . S
Cd30 O40 2.297 . S
Cd30 O41 2.439 . S
O31 Cd30 2.240 1_655 S
O31 C36 1.279 1_545 S
O32 Cd29 2.297 . S
O32 C34 1.247 . S
O33 Cd29 2.439 . S
O33 C34 1.208 . S
C34 O32 1.247 . S
C34 O33 1.208 . S
C35 O40 1.247 . S
C35 O41 1.208 . S
C36 O28 1.315 . S
C36 O31 1.279 1_565 S
C37 O38 1.315 . S
C37 O39 1.279 1_545 S
O38 Cd30 2.223 . S
O38 C37 1.315 . S
O39 Cd29 2.240 1_455 S
O39 C37 1.279 1_565 S
O40 Cd30 2.297 . S
O40 C35 1.247 . S
O41 Cd30 2.439 . S
O41 C35 1.208 . S
C42 C43 1.384 1_655 S
C42 C44 1.384 . S
C42 H70 0.931 . S
C43 C42 1.384 1_455 S
C43 C46 1.382 . S
C44 C42 1.384 . S
C44 C45 1.381 1_655 S
C44 H71 0.930 . S
C45 C44 1.381 1_455 S
C45 C47 1.381 . S
C45 C48 1.487 . S
C46 C43 1.382 . S
C46 C47 1.387 . S
C46 H72 0.930 . S
C47 C45 1.381 . S
C47 C46 1.387 . S
C47 H73 0.931 . S
C48 C45 1.487 . S
C48 C55 1.399 1_455 S
C48 N86 1.343 . S
C49 C50 1.384 1_455 S
C49 C51 1.384 . S
C49 H74 0.931 . S
C50 C49 1.384 1_655 S
C50 C53 1.382 . S
C51 C49 1.384 . S
C51 C52 1.381 1_455 S
C51 H75 0.930 . S
C52 C51 1.381 1_655 S
C52 C54 1.381 . S
C52 C55 1.487 . S
C53 C50 1.382 . S
C53 C54 1.387 . S
C53 H76 0.930 . S
C54 C52 1.381 . S
C54 C53 1.387 . S
C54 H77 0.931 . S
C55 C48 1.399 1_655 S
C55 C52 1.487 . S
C55 N87 1.343 . S
C56 C57 1.384 1_455 S
C56 C58 1.384 . S
C56 H78 0.931 . S
C57 C56 1.384 1_655 S
C57 C60 1.382 . S
C58 C56 1.384 . S
C58 C59 1.381 1_455 S
C58 H79 0.930 . S
C59 C58 1.381 1_655 S
C59 C61 1.381 . S
C59 C62 1.487 . S
C60 C57 1.382 . S
C60 C61 1.387 . S
C60 H80 0.930 . S
C61 C59 1.381 . S
C61 C60 1.387 . S
C61 H81 0.931 . S
C62 C59 1.487 . S
C62 C69 1.399 1_655 S
C62 N87 1.343 . S
C63 C64 1.384 1_655 S
C63 C65 1.384 . S
C63 H82 0.931 . S
C64 C63 1.384 1_455 S
C64 C67 1.382 . S
C65 C63 1.384 . S
C65 C66 1.381 1_655 S
C65 H83 0.930 . S
C66 C65 1.381 1_455 S
C66 C68 1.381 . S
C66 C69 1.487 . S
C67 C64 1.382 . S
C67 C68 1.387 . S
C67 H84 0.930 . S
C68 C66 1.381 . S
C68 C67 1.387 . S
C68 H85 0.931 . S
C69 C62 1.399 1_455 S
C69 C66 1.487 . S
C69 N86 1.343 . S
H70 C42 0.931 . S
H71 C44 0.930 . S
H72 C46 0.930 . S
H73 C47 0.931 . S
H74 C49 0.931 . S
H75 C51 0.930 . S
H76 C53 0.930 . S
H77 C54 0.931 . S
H78 C56 0.931 . S
H79 C58 0.930 . S
H80 C60 0.930 . S
H81 C61 0.931 . S
H82 C63 0.931 . S
H83 C65 0.930 . S
H84 C67 0.930 . S
H85 C68 0.931 . S
N86 C48 1.343 . S
N86 C69 1.343 . S
N87 C55 1.343 . S
N87 C62 1.343 . S
C88 C89 1.364 1_545 S
C88 C90 1.384 . S
C88 H116 0.931 . S
C89 C88 1.364 1_565 S
C89 C92 1.390 . S
C90 C88 1.384 . S
C90 C91 1.381 1_545 S
C90 H117 0.930 . S
C91 C90 1.381 1_565 S
C91 C93 1.381 . S
C91 C94 1.487 . S
C92 C89 1.390 . S
C92 C93 1.387 . S
C92 H118 0.930 . S
C93 C91 1.381 . S
C93 C92 1.387 . S
C93 H119 0.931 . S
C94 C91 1.487 . S
C94 C101 1.399 1_565 S
C94 N132 1.343 . S
C95 C96 1.384 1_565 S
C95 C97 1.384 . S
C95 H120 0.931 . S
C96 C95 1.384 1_545 S
C96 C99 1.382 . S
C97 C95 1.384 . S
C97 C98 1.381 1_565 S
C97 H121 0.930 . S
C98 C97 1.381 1_545 S
C98 C100 1.381 . S
C98 C101 1.487 . S
C99 C96 1.382 . S
C99 C100 1.387 . S
C99 H122 0.930 . S
C100 C98 1.381 . S
C100 C99 1.387 . S
C100 H123 0.931 . S
C101 C94 1.399 1_545 S
C101 C98 1.487 . S
C101 N133 1.343 . S
C102 C103 1.384 1_565 S
C102 C104 1.384 . S
C102 H124 0.931 . S
C103 C102 1.384 1_545 S
C103 C106 1.382 . S
C104 C102 1.384 . S
C104 C105 1.381 1_565 S
C104 H125 0.930 . S
C105 C104 1.381 1_545 S
C105 C107 1.381 . S
C105 C108 1.487 . S
C106 C103 1.382 . S
C106 C107 1.387 . S
C106 H126 0.930 . S
C107 C105 1.381 . S
C107 C106 1.387 . S
C107 H127 0.931 . S
C108 C105 1.487 . S
C108 C115 1.399 1_545 S
C108 N133 1.343 . S
C109 C110 1.367 1_545 S
C109 C111 1.384 . S
C109 H128 0.931 . S
C110 C109 1.367 1_565 S
C110 C113 1.414 . S
C111 C109 1.384 . S
C111 C112 1.381 1_545 S
C111 H129 0.930 . S
C112 C111 1.381 1_565 S
C112 C114 1.381 . S
C112 C115 1.487 . S
C113 C110 1.414 . S
C113 C114 1.387 . S
C113 H130 0.930 . S
C114 C112 1.381 . S
C114 C113 1.387 . S
C114 H131 0.931 . S
C115 C108 1.399 1_565 S
C115 C112 1.487 . S
C115 N132 1.343 . S
H116 C88 0.931 . S
H117 C90 0.930 . S
H118 C92 0.930 . S
H119 C93 0.931 . S
H120 C95 0.931 . S
H121 C97 0.930 . S
H122 C99 0.930 . S
H123 C100 0.931 . S
H124 C102 0.931 . S
H125 C104 0.930 . S
H126 C106 0.930 . S
H127 C107 0.931 . S
H128 C109 0.931 . S
H129 C111 0.930 . S
H130 C113 0.930 . S
H131 C114 0.931 . S
N132 C94 1.343 . S
N132 C115 1.343 . S
N133 C101 1.343 . S
N133 C108 1.343 . S
C134 C135 1.384 . S
C134 C136 1.384 . S
C134 H162 0.931 . S
C135 C134 1.384 . S
C135 C138 1.382 . S
C136 C134 1.384 . S
C136 C137 1.381 . S
C136 H163 0.930 . S
C137 C136 1.381 . S
C137 C139 1.381 . S
C137 C140 1.487 . S
C138 C135 1.382 . S
C138 C139 1.387 . S
C138 H164 0.930 . S
C139 C137 1.381 . S
C139 C138 1.387 . S
C139 H165 0.931 . S
C140 C137 1.487 . S
C140 C147 1.399 . S
C140 N178 1.343 . S
C141 C142 1.384 . S
C141 C143 1.384 . S
C141 H166 0.931 . S
C142 C141 1.384 . S
C142 C145 1.382 . S
C143 C141 1.384 . S
C143 C144 1.381 . S
C143 H167 0.930 . S
C144 C143 1.381 . S
C144 C146 1.381 . S
C144 C147 1.487 . S
C145 C142 1.382 . S
C145 C146 1.387 . S
C145 H168 0.930 . S
C146 C144 1.381 . S
C146 C145 1.387 . S
C146 H169 0.931 . S
C147 C140 1.399 . S
C147 C144 1.487 . S
C147 N179 1.343 . S
C148 C149 1.384 . S
C148 C150 1.384 . S
C148 H170 0.931 . S
C149 C148 1.384 . S
C149 C152 1.382 . S
C150 C148 1.384 . S
C150 C151 1.381 . S
C150 H171 0.930 . S
C151 C150 1.381 . S
C151 C153 1.381 . S
C151 C154 1.487 . S
C152 C149 1.382 . S
C152 C153 1.387 . S
C152 H172 0.930 . S
C153 C151 1.381 . S
C153 C152 1.387 . S
C153 H173 0.931 . S
C154 C151 1.487 . S
C154 C161 1.399 . S
C154 N179 1.343 . S
C155 C156 1.384 . S
C155 C157 1.384 . S
C155 H174 0.931 . S
C156 C155 1.384 . S
C156 C159 1.382 . S
C157 C155 1.384 . S
C157 C158 1.381 . S
C157 H175 0.930 . S
C158 C157 1.381 . S
C158 C160 1.381 . S
C158 C161 1.487 . S
C159 C156 1.382 . S
C159 C160 1.387 . S
C159 H176 0.930 . S
C160 C158 1.381 . S
C160 C159 1.387 . S
C160 H177 0.931 . S
C161 C154 1.399 . S
C161 C158 1.487 . S
C161 N178 1.343 . S
H162 C134 0.931 . S
H163 C136 0.930 . S
H164 C138 0.930 . S
H165 C139 0.931 . S
H166 C141 0.931 . S
H167 C143 0.930 . S
H168 C145 0.930 . S
H169 C146 0.931 . S
H170 C148 0.931 . S
H171 C150 0.930 . S
H172 C152 0.930 . S
H173 C153 0.931 . S
H174 C155 0.931 . S
H175 C157 0.930 . S
H176 C159 0.930 . S
H177 C160 0.931 . S
N178 C140 1.343 . S
N178 C161 1.343 . S
N179 C147 1.343 . S
N179 C154 1.343 . S
H180 C198 0.951 . S
H181 C200 0.951 . S
H182 C202 0.950 . S
H183 C203 0.950 . S
H184 C205 0.950 . S
H185 C208 0.950 . S
H186 C209 0.950 . S
H187 C211 0.950 . S
H188 C212 0.950 . S
H189 C213 0.951 . S
H190 C215 0.951 . S
H191 C217 0.950 . S
H192 C218 0.950 . S
H193 C220 0.950 . S
H194 C223 0.950 . S
H195 C224 0.950 . S
H196 C226 0.950 . S
H197 C227 0.950 . S
C198 H180 0.951 . S
C198 C199 1.366 . S
C198 C200 1.388 . S
C199 C198 1.366 . S
C199 C203 1.385 1_455 S
C200 H181 0.951 . S
C200 C198 1.388 . S
C200 C201 1.366 1_455 S
C201 C200 1.366 1_655 S
C201 C202 1.414 . S
C201 C204 1.499 . S
C202 H182 0.950 . S
C202 C201 1.414 . S
C202 C203 1.374 . S
C203 H183 0.950 . S
C203 C199 1.385 1_655 S
C203 C202 1.374 . S
C204 C201 1.499 . S
C204 C205 1.373 1_655 S
C204 C206 1.389 . S
C205 H184 0.950 . S
C205 C204 1.373 1_455 S
C205 C221 1.377 . S
C206 C204 1.389 . S
C206 C207 1.524 . S
C206 C220 1.377 . S
C207 C206 1.524 . S
C207 C208 1.397 . S
C207 C212 1.363 . S
C208 H185 0.950 . S
C208 C207 1.397 . S
C208 C209 1.334 . S
C209 H186 0.950 . S
C209 C208 1.334 . S
C209 C210 1.287 . S
C210 C209 1.287 . S
C210 C211 1.524 . S
C210 H229 0.913 . S
C211 H187 0.950 . S
C211 C210 1.524 . S
C211 C212 1.415 . S
C212 H188 0.950 . S
C212 C207 1.363 . S
C212 C211 1.415 . S
C213 H189 0.951 . S
C213 C214 1.366 1_655 S
C213 C215 1.388 . S
C214 C213 1.366 1_455 S
C214 C218 1.384 . S
C215 H190 0.951 . S
C215 C213 1.388 . S
C215 C216 1.366 1_655 S
C216 C215 1.366 1_455 S
C216 C217 1.414 . S
C216 C219 1.499 . S
C217 H191 0.950 . S
C217 C216 1.414 . S
C217 C218 1.374 . S
C218 H192 0.950 . S
C218 C214 1.384 . S
C218 C217 1.374 . S
C219 C216 1.499 . S
C219 C220 1.373 1_455 S
C219 C221 1.389 . S
C220 H193 0.950 . S
C220 C206 1.377 . S
C220 C219 1.373 1_655 S
C221 C205 1.377 . S
C221 C219 1.389 . S
C221 C222 1.524 . S
C222 C221 1.524 . S
C222 C223 1.397 . S
C222 C227 1.363 . S
C223 H194 0.950 . S
C223 C222 1.397 . S
C223 C224 1.334 . S
C224 H195 0.950 . S
C224 C223 1.334 . S
C224 C225 1.287 . S
C225 C224 1.287 . S
C225 C226 1.524 . S
C225 H228 0.999 . S
C226 H196 0.950 . S
C226 C225 1.524 . S
C226 C227 1.415 . S
C227 H197 0.950 . S
C227 C222 1.363 . S
C227 C226 1.415 . S
H228 C225 0.999 . S
H229 C210 0.913 . S
H230 C248 0.951 . S
H231 C250 0.951 . S
H232 C252 0.950 . S
H233 C253 0.950 . S
H234 C255 0.950 . S
H235 C258 0.950 . S
H236 C259 0.950 . S
H237 C261 0.950 . S
H238 C262 0.950 . S
H239 C263 0.951 . S
H240 C265 0.951 . S
H241 C267 0.950 . S
H242 C268 0.950 . S
H243 C270 0.950 . S
H244 C273 0.950 . S
H245 C274 0.950 . S
H246 C276 0.950 . S
H247 C277 0.950 . S
C248 H230 0.951 . S
C248 C249 1.366 1_565 S
C248 C250 1.388 . S
C249 C248 1.366 1_545 S
C249 C253 1.385 . S
C250 H231 0.951 . S
C250 C248 1.388 . S
C250 C251 1.362 1_565 S
C251 C250 1.362 1_545 S
C251 C252 1.416 . S
C251 C254 1.502 . S
C252 H232 0.950 . S
C252 C251 1.416 . S
C252 C253 1.374 . S
C253 H233 0.950 . S
C253 C249 1.385 . S
C253 C252 1.374 . S
C254 C251 1.502 . S
C254 C255 1.371 . S
C254 C256 1.390 1_545 S
C255 H234 0.950 . S
C255 C254 1.371 . S
C255 C271 1.377 . S
C256 C254 1.390 1_565 S
C256 C257 1.524 . S
C256 C270 1.377 . S
C257 C256 1.524 . S
C257 C258 1.397 . S
C257 C262 1.363 . S
C258 H235 0.950 . S
C258 C257 1.397 . S
C258 C259 1.334 . S
C259 H236 0.950 . S
C259 C258 1.334 . S
C259 C260 1.287 . S
C260 C259 1.287 . S
C260 C261 1.524 . S
C260 H279 0.913 . S
C261 H237 0.950 . S
C261 C260 1.524 . S
C261 C262 1.415 . S
C262 H238 0.950 . S
C262 C257 1.363 . S
C262 C261 1.415 . S
C263 H239 0.951 . S
C263 C264 1.367 . S
C263 C265 1.388 . S
C264 C263 1.367 . S
C264 C268 1.381 1_545 S
C265 H240 0.951 . S
C265 C263 1.388 . S
C265 C266 1.366 . S
C266 C265 1.366 . S
C266 C267 1.414 1_545 S
C266 C269 1.499 . S
C267 H241 0.950 . S
C267 C266 1.414 1_565 S
C267 C268 1.374 . S
C268 H242 0.950 . S
C268 C264 1.381 1_565 S
C268 C267 1.374 . S
C269 C266 1.499 . S
C269 C270 1.373 1_545 S
C269 C271 1.389 . S
C270 H243 0.950 . S
C270 C256 1.377 . S
C270 C269 1.373 1_565 S
C271 C255 1.377 . S
C271 C269 1.389 . S
C271 C272 1.524 . S
C272 C271 1.524 . S
C272 C273 1.397 . S
C272 C277 1.363 . S
C273 H244 0.950 . S
C273 C272 1.397 . S
C273 C274 1.334 . S
C274 H245 0.950 . S
C274 C273 1.334 . S
C274 C275 1.287 . S
C275 C274 1.287 . S
C275 C276 1.524 . S
C275 H278 0.999 . S
C276 H246 0.950 . S
C276 C275 1.524 . S
C276 C277 1.415 . S
C277 H247 0.950 . S
C277 C272 1.363 . S
C277 C276 1.415 . S
H278 C275 0.999 . S
H279 C260 0.913 . S
H280 C298 0.951 . S
H281 C300 0.951 . S
H282 C302 0.950 . S
H283 C303 0.950 . S
H284 C305 0.950 . S
H285 C308 0.950 . S
H286 C309 0.950 . S
H287 C311 0.950 . S
H288 C312 0.950 . S
H289 C313 0.951 . S
H290 C315 0.951 . S
H291 C317 0.950 . S
H292 C318 0.950 . S
H293 C320 0.950 . S
H294 C323 0.950 . S
H295 C324 0.950 . S
H296 C326 0.950 . S
H297 C327 0.950 . S
C298 H280 0.951 . S
C298 C299 1.366 . S
C298 C300 1.388 . S
C299 C298 1.366 . S
C299 C303 1.385 . S
C300 H281 0.951 . S
C300 C298 1.388 . S
C300 C301 1.366 . S
C301 C300 1.366 . S
C301 C302 1.414 . S
C301 C304 1.499 . S
C302 H282 0.950 . S
C302 C301 1.414 . S
C302 C303 1.374 . S
C303 H283 0.950 . S
C303 C299 1.385 . S
C303 C302 1.374 . S
C304 C301 1.499 . S
C304 C305 1.373 . S
C304 C306 1.389 . S
C305 H284 0.950 . S
C305 C304 1.373 . S
C305 C321 1.377 . S
C306 C304 1.389 . S
C306 C307 1.524 . S
C306 C320 1.377 . S
C307 C306 1.524 . S
C307 C308 1.397 . S
C307 C312 1.363 . S
C308 H285 0.950 . S
C308 C307 1.397 . S
C308 C309 1.334 . S
C309 H286 0.950 . S
C309 C308 1.334 . S
C309 C310 1.287 . S
C310 C309 1.287 . S
C310 C311 1.524 . S
C310 H329 0.913 . S
C311 H287 0.950 . S
C311 C310 1.524 . S
C311 C312 1.415 . S
C312 H288 0.950 . S
C312 C307 1.363 . S
C312 C311 1.415 . S
C313 H289 0.951 . S
C313 C314 1.366 . S
C313 C315 1.388 . S
C314 C313 1.366 . S
C314 C318 1.385 . S
C315 H290 0.951 . S
C315 C313 1.388 . S
C315 C316 1.366 . S
C316 C315 1.366 . S
C316 C317 1.414 . S
C316 C319 1.499 . S
C317 H291 0.950 . S
C317 C316 1.414 . S
C317 C318 1.374 . S
C318 H292 0.950 . S
C318 C314 1.385 . S
C318 C317 1.374 . S
C319 C316 1.499 . S
C319 C320 1.373 . S
C319 C321 1.389 . S
C320 H293 0.950 . S
C320 C306 1.377 . S
C320 C319 1.373 . S
C321 C305 1.377 . S
C321 C319 1.389 . S
C321 C322 1.524 . S
C322 C321 1.524 . S
C322 C323 1.397 . S
C322 C327 1.363 . S
C323 H294 0.950 . S
C323 C322 1.397 . S
C323 C324 1.334 . S
C324 H295 0.950 . S
C324 C323 1.334 . S
C324 C325 1.287 . S
C325 C324 1.287 . S
C325 C326 1.524 . S
C325 H328 0.999 . S
C326 H296 0.950 . S
C326 C325 1.524 . S
C326 C327 1.415 . S
C327 H297 0.950 . S
C327 C322 1.363 . S
C327 C326 1.415 . S
H328 C325 0.999 . S
H329 C310 0.913 . S
H330 C348 0.951 . S
H331 C350 0.951 . S
H332 C352 0.950 . S
H333 C353 0.950 . S
H334 C355 0.950 . S
H335 C358 0.950 . S
H336 C359 0.950 . S
H337 C361 0.950 1_655 S
H338 C362 0.950 . S
H339 C363 0.951 . S
H340 C365 0.951 . S
H341 C367 0.950 . S
H342 C368 0.950 . S
H343 C370 0.950 . S
H344 C373 0.950 . S
H345 C374 0.950 . S
H346 C376 0.950 1_455 S
H347 C377 0.961 . S
C348 H330 0.951 . S
C348 C349 1.377 . S
C348 C350 1.388 . S
C349 C348 1.377 . S
C349 C353 1.363 1_655 S
C350 H331 0.951 . S
C350 C348 1.388 . S
C350 C351 1.366 1_655 S
C351 C350 1.366 1_455 S
C351 C352 1.414 . S
C351 C354 1.499 . S
C352 H332 0.950 . S
C352 C351 1.414 . S
C352 C353 1.374 . S
C353 H333 0.950 . S
C353 C349 1.363 1_455 S
C353 C352 1.374 . S
C354 C351 1.499 . S
C354 C355 1.373 1_455 S
C354 C356 1.389 . S
C355 H334 0.950 . S
C355 C354 1.373 1_655 S
C355 C371 1.377 . S
C356 C354 1.389 . S
C356 C357 1.524 . S
C356 C370 1.377 . S
C357 C356 1.524 . S
C357 C358 1.397 . S
C357 C362 1.363 1_455 S
C358 H335 0.950 . S
C358 C357 1.397 . S
C358 C359 1.334 . S
C359 H336 0.950 . S
C359 C358 1.334 . S
C359 C360 1.287 . S
C360 C359 1.287 . S
C360 C361 1.524 . S
C360 H379 0.913 . S
C361 H337 0.950 1_455 S
C361 C360 1.524 . S
C361 C362 1.415 1_455 S
C362 H338 0.950 . S
C362 C357 1.363 1_655 S
C362 C361 1.415 1_655 S
C363 H339 0.951 . S
C363 C364 1.366 . S
C363 C365 1.388 . S
C364 C363 1.366 . S
C364 C368 1.385 1_455 S
C365 H340 0.951 . S
C365 C363 1.388 . S
C365 C366 1.366 1_455 S
C366 C365 1.366 1_655 S
C366 C367 1.414 . S
C366 C369 1.499 . S
C367 H341 0.950 . S
C367 C366 1.414 . S
C367 C368 1.374 . S
C368 H342 0.950 . S
C368 C364 1.385 1_655 S
C368 C367 1.374 . S
C369 C366 1.499 . S
C369 C370 1.373 1_655 S
C369 C371 1.389 . S
C370 H343 0.950 . S
C370 C356 1.377 . S
C370 C369 1.373 1_455 S
C371 C355 1.377 . S
C371 C369 1.389 . S
C371 C372 1.524 . S
C372 C371 1.524 . S
C372 C373 1.397 . S
C372 C377 1.348 1_655 S
C373 H344 0.950 . S
C373 C372 1.397 . S
C373 C374 1.334 . S
C374 H345 0.950 . S
C374 C373 1.334 . S
C374 C375 1.287 . S
C375 C374 1.287 . S
C375 C376 1.524 . S
C375 H378 0.999 . S
C376 H346 0.950 1_655 S
C376 C375 1.524 . S
C376 C377 1.420 1_655 S
C377 H347 0.961 . S
C377 C372 1.348 1_455 S
C377 C376 1.420 1_455 S
H378 C375 0.999 . S
H379 C360 0.913 . S
H380 C398 0.951 . S
H381 C400 0.951 . S
H382 C402 0.950 . S
H383 C403 0.950 . S
H384 C405 0.950 . S
H385 C408 0.950 . S
H386 C409 0.950 . S
H387 C411 0.950 . S
H388 C412 0.950 . S
H389 C413 0.951 . S
H390 C415 0.951 . S
H391 C417 0.950 . S
H392 C418 0.950 . S
H393 C420 0.950 . S
H394 C423 0.950 . S
H395 C424 0.950 . S
H396 C426 0.950 . S
H397 C427 0.950 . S
C398 H380 0.951 . S
C398 C399 1.366 . S
C398 C400 1.388 . S
C399 C398 1.366 . S
C399 C403 1.385 1_565 S
C400 H381 0.951 . S
C400 C398 1.388 . S
C400 C401 1.366 . S
C401 C400 1.366 . S
C401 C402 1.414 1_565 S
C401 C404 1.509 1_565 S
C402 H382 0.950 . S
C402 C401 1.414 1_545 S
C402 C403 1.374 . S
C403 H383 0.950 . S
C403 C399 1.385 1_545 S
C403 C402 1.374 . S
C404 C401 1.509 1_545 S
C404 C405 1.349 1_545 S
C404 C406 1.401 . S
C405 H384 0.950 . S
C405 C404 1.349 1_565 S
C405 C421 1.377 . S
C406 C404 1.401 . S
C406 C407 1.524 . S
C406 C420 1.377 . S
C407 C406 1.524 . S
C407 C408 1.397 . S
C407 C412 1.363 . S
C408 H385 0.950 . S
C408 C407 1.397 . S
C408 C409 1.334 . S
C409 H386 0.950 . S
C409 C408 1.334 . S
C409 C410 1.287 . S
C410 C409 1.287 . S
C410 C411 1.524 . S
C410 H429 0.913 . S
C411 H387 0.950 . S
C411 C410 1.524 . S
C411 C412 1.415 . S
C412 H388 0.950 . S
C412 C407 1.363 . S
C412 C411 1.415 . S
C413 H389 0.951 . S
C413 C414 1.366 1_545 S
C413 C415 1.388 . S
C414 C413 1.366 1_565 S
C414 C418 1.385 . S
C415 H390 0.951 . S
C415 C413 1.388 . S
C415 C416 1.366 1_545 S
C416 C415 1.366 1_565 S
C416 C417 1.414 . S
C416 C419 1.499 . S
C417 H391 0.950 . S
C417 C416 1.414 . S
C417 C418 1.374 . S
C418 H392 0.950 . S
C418 C414 1.385 . S
C418 C417 1.374 . S
C419 C416 1.499 . S
C419 C420 1.373 1_565 S
C419 C421 1.389 . S
C420 H393 0.950 . S
C420 C406 1.377 . S
C420 C419 1.373 1_545 S
C421 C405 1.377 . S
C421 C419 1.389 . S
C421 C422 1.524 . S
C422 C421 1.524 . S
C422 C423 1.397 . S
C422 C427 1.363 . S
C423 H394 0.950 . S
C423 C422 1.397 . S
C423 C424 1.334 . S
C424 H395 0.950 . S
C424 C423 1.334 . S
C424 C425 1.287 . S
C425 C424 1.287 . S
C425 C426 1.524 . S
C425 H428 0.999 . S
C426 H396 0.950 . S
C426 C425 1.524 . S
C426 C427 1.415 . S
C427 H397 0.950 . S
C427 C422 1.363 . S
C427 C426 1.415 . S
H428 C425 0.999 . S
H429 C410 0.913 . S
H430 C448 0.951 . S
H431 C450 0.951 . S
H432 C452 0.950 . S
H433 C453 0.950 . S
H434 C455 0.950 . S
H435 C458 0.950 . S
H436 C459 0.950 . S
H437 C461 0.950 . S
H438 C462 0.950 . S
H439 C463 0.951 . S
H440 C465 0.951 . S
H441 C467 0.950 . S
H442 C468 0.950 . S
H443 C470 0.950 . S
H444 C473 0.950 . S
H445 C474 0.950 . S
H446 C476 0.950 . S
H447 C477 0.950 . S
C448 H430 0.951 . S
C448 C449 1.366 . S
C448 C450 1.388 . S
C449 C448 1.366 . S
C449 C453 1.385 . S
C450 H431 0.951 . S
C450 C448 1.388 . S
C450 C451 1.366 . S
C451 C450 1.366 . S
C451 C452 1.414 . S
C451 C454 1.499 . S
C452 H432 0.950 . S
C452 C451 1.414 . S
C452 C453 1.374 . S
C453 H433 0.950 . S
C453 C449 1.385 . S
C453 C452 1.374 . S
C454 C451 1.499 . S
C454 C455 1.373 . S
C454 C456 1.389 . S
C455 H434 0.950 . S
C455 C454 1.373 . S
C455 C471 1.377 . S
C456 C454 1.389 . S
C456 C457 1.524 . S
C456 C470 1.377 . S
C457 C456 1.524 . S
C457 C458 1.397 . S
C457 C462 1.363 . S
C458 H435 0.950 . S
C458 C457 1.397 . S
C458 C459 1.334 . S
C459 H436 0.950 . S
C459 C458 1.334 . S
C459 C460 1.287 . S
C460 C459 1.287 . S
C460 C461 1.524 . S
C460 H479 0.913 . S
C461 H437 0.950 . S
C461 C460 1.524 . S
C461 C462 1.415 . S
C462 H438 0.950 . S
C462 C457 1.363 . S
C462 C461 1.415 . S
C463 H439 0.951 . S
C463 C464 1.366 . S
C463 C465 1.388 . S
C464 C463 1.366 . S
C464 C468 1.385 . S
C465 H440 0.951 . S
C465 C463 1.388 . S
C465 C466 1.366 . S
C466 C465 1.366 . S
C466 C467 1.414 . S
C466 C469 1.499 . S
C467 H441 0.950 . S
C467 C466 1.414 . S
C467 C468 1.374 . S
C468 H442 0.950 . S
C468 C464 1.385 . S
C468 C467 1.374 . S
C469 C466 1.499 . S
C469 C470 1.373 . S
C469 C471 1.389 . S
C470 H443 0.950 . S
C470 C456 1.377 . S
C470 C469 1.373 . S
C471 C455 1.377 . S
C471 C469 1.389 . S
C471 C472 1.524 . S
C472 C471 1.524 . S
C472 C473 1.397 . S
C472 C477 1.363 . S
C473 H444 0.950 . S
C473 C472 1.397 . S
C473 C474 1.334 . S
C474 H445 0.950 . S
C474 C473 1.334 . S
C474 C475 1.287 . S
C475 C474 1.287 . S
C475 C476 1.524 . S
C475 H478 0.999 . S
C476 H446 0.950 . S
C476 C475 1.524 . S
C476 C477 1.415 . S
C477 H447 0.950 . S
C477 C472 1.363 . S
C477 C476 1.415 . S
H478 C475 0.999 . S
H479 C460 0.913 . S
H480 C498 0.951 . S
H481 C500 0.951 . S
H482 C502 0.923 1_545 S
H483 C503 0.951 . S
H484 C505 0.950 . S
H485 C508 0.950 . S
H486 C509 0.950 . S
H487 C511 0.950 . S
H488 C512 0.950 . S
H489 C513 0.951 . S
H490 C515 0.951 . S
H491 C517 0.950 . S
H492 C518 0.950 . S
H493 C520 0.950 . S
H494 C523 0.950 . S
H495 C524 0.950 . S
H496 C526 0.950 . S
H497 C527 0.950 . S
C498 H480 0.951 . S
C498 C499 1.366 . S
C498 C500 1.388 . S
C499 C498 1.366 . S
C499 C503 1.385 . S
C500 H481 0.951 . S
C500 C498 1.388 . S
C500 C501 1.366 . S
C501 C500 1.366 . S
C501 C502 1.416 . S
C501 C504 1.512 . S
C502 H482 0.923 1_565 S
C502 C501 1.416 . S
C502 C503 1.383 . S
C503 H483 0.951 . S
C503 C499 1.385 . S
C503 C502 1.383 . S
C504 C501 1.512 . S
C504 C505 1.379 . S
C504 C506 1.373 1_565 S
C505 H484 0.950 . S
C505 C504 1.379 . S
C505 C521 1.377 . S
C506 C504 1.373 1_545 S
C506 C507 1.524 . S
C506 C520 1.377 . S
C507 C506 1.524 . S
C507 C508 1.397 . S
C507 C512 1.363 . S
C508 H485 0.950 . S
C508 C507 1.397 . S
C508 C509 1.334 . S
C509 H486 0.950 . S
C509 C508 1.334 . S
C509 C510 1.287 . S
C510 C509 1.287 . S
C510 C511 1.524 . S
C510 H529 0.913 . S
C511 H487 0.950 . S
C511 C510 1.524 . S
C511 C512 1.415 . S
C512 H488 0.950 . S
C512 C507 1.363 . S
C512 C511 1.415 . S
C513 H489 0.951 . S
C513 C514 1.365 1_545 S
C513 C515 1.388 . S
C514 C513 1.365 1_565 S
C514 C518 1.387 . S
C515 H490 0.951 . S
C515 C513 1.388 . S
C515 C516 1.365 1_545 S
C516 C515 1.365 1_565 S
C516 C517 1.414 . S
C516 C519 1.499 . S
C517 H491 0.950 . S
C517 C516 1.414 . S
C517 C518 1.374 . S
C518 H492 0.950 . S
C518 C514 1.387 . S
C518 C517 1.374 . S
C519 C516 1.499 . S
C519 C520 1.373 1_565 S
C519 C521 1.389 . S
C520 H493 0.950 . S
C520 C506 1.377 . S
C520 C519 1.373 1_545 S
C521 C505 1.377 . S
C521 C519 1.389 . S
C521 C522 1.524 . S
C522 C521 1.524 . S
C522 C523 1.397 . S
C522 C527 1.363 . S
C523 H494 0.950 . S
C523 C522 1.397 . S
C523 C524 1.334 . S
C524 H495 0.950 . S
C524 C523 1.334 . S
C524 C525 1.287 . S
C525 C524 1.287 . S
C525 C526 1.524 . S
C525 H528 0.999 . S
C526 H496 0.950 . S
C526 C525 1.524 . S
C526 C527 1.415 . S
C527 H497 0.950 . S
C527 C522 1.363 . S
C527 C526 1.415 . S
H528 C525 0.999 . S
H529 C510 0.913 . S
H530 C548 0.951 . S
H531 C550 0.951 . S
H532 C552 0.950 . S
H533 C553 0.950 . S
H534 C555 0.950 1_554 S
H535 C558 0.950 . S
H536 C559 0.950 . S
H537 C561 0.950 . S
H538 C562 0.950 . S
H539 C563 0.951 . S
H540 C565 0.951 . S
H541 C567 0.950 . S
H542 C568 0.950 . S
H543 C570 0.950 . S
H544 C573 0.950 . S
H545 C574 0.950 . S
H546 C576 0.950 . S
H547 C577 0.946 1_556 S
C548 H530 0.951 . S
C548 C549 1.366 . S
C548 C550 1.388 . S
C549 C548 1.366 . S
C549 C553 1.385 . S
C550 H531 0.951 . S
C550 C548 1.388 . S
C550 C551 1.366 . S
C551 C550 1.366 . S
C551 C552 1.414 . S
C551 C554 1.499 1_554 S
C552 H532 0.950 . S
C552 C551 1.414 . S
C552 C553 1.374 . S
C553 H533 0.950 . S
C553 C549 1.385 . S
C553 C552 1.374 . S
C554 C551 1.499 1_556 S
C554 C555 1.373 . S
C554 C556 1.389 . S
C555 H534 0.950 1_556 S
C555 C554 1.373 . S
C555 C571 1.377 . S
C556 C554 1.389 . S
C556 C557 1.524 . S
C556 C570 1.377 . S
C557 C556 1.524 . S
C557 C558 1.397 . S
C557 C562 1.363 . S
C558 H535 0.950 . S
C558 C557 1.397 . S
C558 C559 1.334 . S
C559 H536 0.950 . S
C559 C558 1.334 . S
C559 C560 1.287 . S
C560 C559 1.287 . S
C560 C561 1.524 . S
C560 H579 0.913 . S
C561 H537 0.950 . S
C561 C560 1.524 . S
C561 C562 1.415 . S
C562 H538 0.950 . S
C562 C557 1.363 . S
C562 C561 1.415 . S
C563 H539 0.951 . S
C563 C564 1.366 . S
C563 C565 1.388 . S
C564 C563 1.366 . S
C564 C568 1.385 . S
C565 H540 0.951 . S
C565 C563 1.388 . S
C565 C566 1.366 . S
C566 C565 1.366 . S
C566 C567 1.414 . S
C566 C569 1.499 . S
C567 H541 0.950 . S
C567 C566 1.414 . S
C567 C568 1.374 . S
C568 H542 0.950 . S
C568 C564 1.385 . S
C568 C567 1.374 . S
C569 C566 1.499 . S
C569 C570 1.373 . S
C569 C571 1.389 . S
C570 H543 0.950 . S
C570 C556 1.377 . S
C570 C569 1.373 . S
C571 C555 1.377 . S
C571 C569 1.389 . S
C571 C572 1.524 . S
C572 C571 1.524 . S
C572 C573 1.397 . S
C572 C577 1.350 1_556 S
C573 H544 0.950 . S
C573 C572 1.397 . S
C573 C574 1.334 1_556 S
C574 H545 0.950 . S
C574 C573 1.334 1_554 S
C574 C575 1.287 . S
C575 C574 1.287 . S
C575 C576 1.524 . S
C575 H578 0.999 . S
C576 H546 0.950 . S
C576 C575 1.524 . S
C576 C577 1.433 . S
C577 H547 0.946 1_554 S
C577 C572 1.350 1_554 S
C577 C576 1.433 . S
H578 C575 0.999 . S
H579 C560 0.913 . S
H580 C598 0.951 . S
H581 C600 0.951 . S
H582 C602 0.950 . S
H583 C603 0.950 . S
H584 C605 0.950 . S
H585 C608 0.950 . S
H586 C609 0.950 . S
H587 C611 0.950 1_455 S
H588 C612 0.950 . S
H589 C613 0.951 . S
H590 C615 0.951 . S
H591 C617 0.950 . S
H592 C618 0.950 . S
H593 C620 0.950 . S
H594 C623 0.950 . S
H595 C624 0.950 . S
H596 C626 0.950 1_655 S
H597 C627 0.950 . S
C598 H580 0.951 . S
C598 C599 1.366 . S
C598 C600 1.388 . S
C599 C598 1.366 . S
C599 C603 1.385 1_455 S
C600 H581 0.951 . S
C600 C598 1.388 . S
C600 C601 1.366 . S
C601 C600 1.366 . S
C601 C602 1.414 1_455 S
C601 C604 1.500 1_455 S
C602 H582 0.950 . S
C602 C601 1.414 1_655 S
C602 C603 1.374 . S
C603 H583 0.950 . S
C603 C599 1.385 1_655 S
C603 C602 1.374 . S
C604 C601 1.500 1_655 S
C604 C605 1.371 1_655 S
C604 C606 1.390 . S
C605 H584 0.950 . S
C605 C604 1.371 1_455 S
C605 C621 1.377 . S
C606 C604 1.390 . S
C606 C607 1.524 . S
C606 C620 1.377 . S
C607 C606 1.524 . S
C607 C608 1.397 . S
C607 C612 1.363 1_655 S
C608 H585 0.950 . S
C608 C607 1.397 . S
C608 C609 1.334 . S
C609 H586 0.950 . S
C609 C608 1.334 . S
C609 C610 1.287 . S
C610 C609 1.287 . S
C610 C611 1.524 . S
C610 H629 0.913 . S
C611 H587 0.950 1_655 S
C611 C610 1.524 . S
C611 C612 1.415 1_655 S
C612 H588 0.950 . S
C612 C607 1.363 1_455 S
C612 C611 1.415 1_455 S
C613 H589 0.951 . S
C613 C614 1.362 1_655 S
C613 C615 1.388 . S
C614 C613 1.362 1_455 S
C614 C618 1.385 . S
C615 H590 0.951 . S
C615 C613 1.388 . S
C615 C616 1.366 1_655 S
C616 C615 1.366 1_455 S
C616 C617 1.414 . S
C616 C619 1.499 . S
C617 H591 0.950 . S
C617 C616 1.414 . S
C617 C618 1.374 . S
C618 H592 0.950 . S
C618 C614 1.385 . S
C618 C617 1.374 . S
C619 C616 1.499 . S
C619 C620 1.373 1_455 S
C619 C621 1.389 . S
C620 H593 0.950 . S
C620 C606 1.377 . S
C620 C619 1.373 1_655 S
C621 C605 1.377 . S
C621 C619 1.389 . S
C621 C622 1.524 . S
C622 C621 1.524 . S
C622 C623 1.397 . S
C622 C627 1.363 1_455 S
C623 H594 0.950 . S
C623 C622 1.397 . S
C623 C624 1.334 . S
C624 H595 0.950 . S
C624 C623 1.334 . S
C624 C625 1.287 . S
C625 C624 1.287 . S
C625 C626 1.524 . S
C625 H628 0.999 . S
C626 H596 0.950 1_455 S
C626 C625 1.524 . S
C626 C627 1.415 1_455 S
C627 H597 0.950 . S
C627 C622 1.363 1_655 S
C627 C626 1.415 1_655 S
H628 C625 0.999 . S
H629 C610 0.913 . S
H630 C648 0.951 . S
H631 C650 0.951 . S
H632 C652 0.950 . S
H633 C653 0.950 . S
H634 C655 0.950 . S
H635 C658 0.950 . S
H636 C659 0.950 . S
H637 C661 0.950 . S
H638 C662 0.950 . S
H639 C663 0.951 . S
H640 C665 0.951 . S
H641 C667 0.950 . S
H642 C668 0.950 . S
H643 C670 0.950 . S
H644 C673 0.950 . S
H645 C674 0.950 . S
H646 C676 0.950 . S
H647 C677 0.950 . S
C648 H630 0.951 . S
C648 C649 1.366 1_565 S
C648 C650 1.388 . S
C649 C648 1.366 1_545 S
C649 C653 1.385 . S
C650 H631 0.951 . S
C650 C648 1.388 . S
C650 C651 1.366 1_565 S
C651 C650 1.366 1_545 S
C651 C652 1.414 . S
C651 C654 1.499 . S
C652 H632 0.950 . S
C652 C651 1.414 . S
C652 C653 1.374 . S
C653 H633 0.950 . S
C653 C649 1.385 . S
C653 C652 1.374 . S
C654 C651 1.499 . S
C654 C655 1.373 1_545 S
C654 C656 1.389 . S
C655 H634 0.950 . S
C655 C654 1.373 1_565 S
C655 C671 1.377 . S
C656 C654 1.389 . S
C656 C657 1.524 . S
C656 C670 1.377 . S
C657 C656 1.524 . S
C657 C658 1.397 . S
C657 C662 1.363 . S
C658 H635 0.950 . S
C658 C657 1.397 . S
C658 C659 1.334 . S
C659 H636 0.950 . S
C659 C658 1.334 . S
C659 C660 1.287 . S
C660 C659 1.287 . S
C660 C661 1.524 . S
C660 H679 0.913 . S
C661 H637 0.950 . S
C661 C660 1.524 . S
C661 C662 1.415 . S
C662 H638 0.950 . S
C662 C657 1.363 . S
C662 C661 1.415 . S
C663 H639 0.951 . S
C663 C664 1.377 . S
C663 C665 1.388 . S
C664 C663 1.377 . S
C664 C668 1.380 1_545 S
C665 H640 0.951 . S
C665 C663 1.388 . S
C665 C666 1.362 1_545 S
C666 C665 1.362 1_565 S
C666 C667 1.422 . S
C666 C669 1.497 . S
C667 H641 0.950 . S
C667 C666 1.422 . S
C667 C668 1.374 . S
C668 H642 0.950 . S
C668 C664 1.380 1_565 S
C668 C667 1.374 . S
C669 C666 1.497 . S
C669 C670 1.370 1_565 S
C669 C671 1.389 . S
C670 H643 0.950 . S
C670 C656 1.377 . S
C670 C669 1.370 1_545 S
C671 C655 1.377 . S
C671 C669 1.389 . S
C671 C672 1.524 . S
C672 C671 1.524 . S
C672 C673 1.397 . S
C672 C677 1.363 . S
C673 H644 0.950 . S
C673 C672 1.397 . S
C673 C674 1.334 . S
C674 H645 0.950 . S
C674 C673 1.334 . S
C674 C675 1.287 . S
C675 C674 1.287 . S
C675 C676 1.524 . S
C675 H678 0.999 . S
C676 H646 0.950 . S
C676 C675 1.524 . S
C676 C677 1.415 . S
C677 H647 0.950 . S
C677 C672 1.363 . S
C677 C676 1.415 . S
H678 C675 0.999 . S
H679 C660 0.913 . S
H680 C698 0.951 . S
H681 C700 0.951 1_556 S
H682 C702 0.950 . S
H683 C703 0.950 . S
H684 C705 0.950 . S
H685 C708 0.950 . S
H686 C709 0.950 . S
H687 C711 0.950 . S
H688 C712 0.950 . S
H689 C713 0.951 . S
H690 C715 0.951 . S
H691 C717 0.950 . S
H692 C718 0.950 . S
H693 C720 0.950 . S
H694 C723 0.950 . S
H695 C724 0.950 . S
H696 C726 0.950 . S
H697 C727 0.950 . S
C698 H680 0.951 . S
C698 C699 1.366 . S
C698 C700 1.388 . S
C699 C698 1.366 . S
C699 C703 1.385 . S
C700 H681 0.951 1_554 S
C700 C698 1.388 . S
C700 C701 1.366 . S
C701 C700 1.366 . S
C701 C702 1.414 . S
C701 C704 1.499 1_554 S
C702 H682 0.950 . S
C702 C701 1.414 . S
C702 C703 1.374 . S
C703 H683 0.950 . S
C703 C699 1.385 . S
C703 C702 1.374 . S
C704 C701 1.499 1_556 S
C704 C705 1.373 . S
C704 C706 1.389 . S
C705 H684 0.950 . S
C705 C704 1.373 . S
C705 C721 1.377 . S
C706 C704 1.389 . S
C706 C707 1.524 . S
C706 C720 1.377 . S
C707 C706 1.524 . S
C707 C708 1.397 1_556 S
C707 C712 1.363 . S
C708 H685 0.950 . S
C708 C707 1.397 1_554 S
C708 C709 1.334 . S
C709 H686 0.950 . S
C709 C708 1.334 . S
C709 C710 1.287 . S
C710 C709 1.287 . S
C710 C711 1.524 1_554 S
C710 H729 0.913 . S
C711 H687 0.950 . S
C711 C710 1.524 1_556 S
C711 C712 1.415 . S
C712 H688 0.950 . S
C712 C707 1.363 . S
C712 C711 1.415 . S
C713 H689 0.951 . S
C713 C714 1.366 . S
C713 C715 1.388 . S
C714 C713 1.366 . S
C714 C718 1.385 . S
C715 H690 0.951 . S
C715 C713 1.388 . S
C715 C716 1.366 . S
C716 C715 1.366 . S
C716 C717 1.414 . S
C716 C719 1.499 . S
C717 H691 0.950 . S
C717 C716 1.414 . S
C717 C718 1.374 . S
C718 H692 0.950 . S
C718 C714 1.385 . S
C718 C717 1.374 . S
C719 C716 1.499 . S
C719 C720 1.373 . S
C719 C721 1.389 . S
C720 H693 0.950 . S
C720 C706 1.377 . S
C720 C719 1.373 . S
C721 C705 1.377 . S
C721 C719 1.389 . S
C721 C722 1.524 . S
C722 C721 1.524 . S
C722 C723 1.397 . S
C722 C727 1.363 . S
C723 H694 0.950 . S
C723 C722 1.397 . S
C723 C724 1.334 . S
C724 H695 0.950 . S
C724 C723 1.334 . S
C724 C725 1.287 . S
C725 C724 1.287 . S
C725 C726 1.524 . S
C725 H728 0.999 . S
C726 H696 0.950 . S
C726 C725 1.524 . S
C726 C727 1.415 . S
C727 H697 0.950 . S
C727 C722 1.363 . S
C727 C726 1.415 . S
H728 C725 0.999 . S
H729 C710 0.913 . S
H730 C748 0.951 . S
H731 C750 0.951 . S
H732 C752 0.950 . S
H733 C753 0.950 . S
H734 C755 0.950 . S
H735 C758 0.950 . S
H736 C759 0.950 . S
H737 C761 0.950 . S
H738 C762 0.950 . S
H739 C763 0.951 . S
H740 C765 0.951 . S
H741 C767 0.950 . S
H742 C768 0.950 . S
H743 C770 0.950 . S
H744 C773 0.950 . S
H745 C774 0.950 . S
H746 C776 0.950 . S
H747 C777 0.950 . S
C748 H730 0.951 . S
C748 C749 1.366 1_455 S
C748 C750 1.388 . S
C749 C748 1.366 1_655 S
C749 C753 1.385 . S
C750 H731 0.951 . S
C750 C748 1.388 . S
C750 C751 1.353 1_455 S
C751 C750 1.353 1_655 S
C751 C752 1.419 . S
C751 C754 1.505 . S
C752 H732 0.950 . S
C752 C751 1.419 . S
C752 C753 1.374 . S
C753 H733 0.950 . S
C753 C749 1.385 . S
C753 C752 1.374 . S
C754 C751 1.505 . S
C754 C755 1.380 . S
C754 C756 1.386 1_655 S
C755 H734 0.950 . S
C755 C754 1.380 . S
C755 C771 1.377 . S
C756 C754 1.386 1_455 S
C756 C757 1.524 . S
C756 C770 1.377 . S
C757 C756 1.524 . S
C757 C758 1.397 . S
C757 C762 1.363 . S
C758 H735 0.950 . S
C758 C757 1.397 . S
C758 C759 1.334 . S
C759 H736 0.950 . S
C759 C758 1.334 . S
C759 C760 1.287 . S
C760 C759 1.287 . S
C760 C761 1.524 . S
C760 H779 0.913 . S
C761 H737 0.950 . S
C761 C760 1.524 . S
C761 C762 1.415 . S
C762 H738 0.950 . S
C762 C757 1.363 . S
C762 C761 1.415 . S
C763 H739 0.951 . S
C763 C764 1.366 . S
C763 C765 1.388 . S
C764 C763 1.366 . S
C764 C768 1.385 1_655 S
C765 H740 0.951 . S
C765 C763 1.388 . S
C765 C766 1.366 . S
C766 C765 1.366 . S
C766 C767 1.414 1_655 S
C766 C769 1.499 . S
C767 H741 0.950 . S
C767 C766 1.414 1_455 S
C767 C768 1.374 . S
C768 H742 0.950 . S
C768 C764 1.385 1_455 S
C768 C767 1.374 . S
C769 C766 1.499 . S
C769 C770 1.373 1_655 S
C769 C771 1.389 . S
C770 H743 0.950 . S
C770 C756 1.377 . S
C770 C769 1.373 1_455 S
C771 C755 1.377 . S
C771 C769 1.389 . S
C771 C772 1.524 . S
C772 C771 1.524 . S
C772 C773 1.397 . S
C772 C777 1.363 . S
C773 H744 0.950 . S
C773 C772 1.397 . S
C773 C774 1.334 . S
C774 H745 0.950 . S
C774 C773 1.334 . S
C774 C775 1.287 . S
C775 C774 1.287 . S
C775 C776 1.524 . S
C775 H778 0.999 . S
C776 H746 0.950 . S
C776 C775 1.524 . S
C776 C777 1.415 . S
C777 H747 0.950 . S
C777 C772 1.363 . S
C777 C776 1.415 . S
H778 C775 0.999 . S
H779 C760 0.913 . S
C214 C50 1.486 1_455 S
C199 C6 1.462 1_455 S
C249 C22 1.591 . S
C264 C89 1.633 1_545 S
C299 C34 1.215 . S
C314 C156 1.237 . S
C349 C7 1.471 1_655 S
C364 C57 1.489 1_455 S
C414 C110 1.601 . S
C399 C23 1.588 . S
C449 C35 1.214 . S
C464 C135 1.232 . S
C514 C96 1.613 1_565 S
C499 C36 1.597 . S
C549 C9 1.841 . S
C564 C149 1.879 . S
C614 C64 1.486 . S
C599 C21 1.462 1_455 S
C664 C103 1.608 . S
C649 C37 1.592 . S
C714 C142 1.876 . S
C699 C8 1.838 . S
C749 C20 1.459 1_655 S
C764 C43 1.480 1_655 S
