# Generated by pormake.
# Topology anh, (6,3)-cn, num edge types: 1
# Building blocks:
#     Node 0, Type 0, BuildingBlock: BETDIP_clean_sbu_0, # of connection points: 6
#     Node 1, Type 0, BuildingBlock: BETDIP_clean_sbu_0, # of connection points: 6
#     Node 2, Type 0, BuildingBlock: BETDIP_clean_sbu_0, # of connection points: 6
#     Node 3, Type 1, BuildingBlock: VETTIZ_charged_linker_0, # of connection points: 3
#     Node 4, Type 1, BuildingBlock: VETTIZ_charged_linker_0, # of connection points: 3
#     Node 5, Type 1, BuildingBlock: VETTIZ_charged_linker_0, # of connection points: 3
#     Node 6, Type 1, BuildingBlock: VETTIZ_charged_linker_0, # of connection points: 3
#     Node 7, Type 1, BuildingBlock: VETTIZ_charged_linker_0, # of connection points: 3
#     Node 8, Type 1, BuildingBlock: VETTIZ_charged_linker_0, # of connection points: 3
#     Edge 9, Type (0, 1), BuildingBlock: TEMPAE_clean_linker_10, # of connection points: 2
#     Edge 10, Type (0, 1), BuildingBlock: TEMPAE_clean_linker_10, # of connection points: 2
#     Edge 11, Type (0, 1), BuildingBlock: TEMPAE_clean_linker_10, # of connection points: 2
#     Edge 12, Type (0, 1), BuildingBlock: TEMPAE_clean_linker_10, # of connection points: 2
#     Edge 13, Type (0, 1), BuildingBlock: TEMPAE_clean_linker_10, # of connection points: 2
#     Edge 14, Type (0, 1), BuildingBlock: TEMPAE_clean_linker_10, # of connection points: 2
#     Edge 15, Type (0, 1), BuildingBlock: TEMPAE_clean_linker_10, # of connection points: 2
#     Edge 16, Type (0, 1), BuildingBlock: TEMPAE_clean_linker_10, # of connection points: 2
#     Edge 17, Type (0, 1), BuildingBlock: TEMPAE_clean_linker_10, # of connection points: 2
#     Edge 18, Type (0, 1), BuildingBlock: TEMPAE_clean_linker_10, # of connection points: 2
#     Edge 19, Type (0, 1), BuildingBlock: TEMPAE_clean_linker_10, # of connection points: 2
#     Edge 20, Type (0, 1), BuildingBlock: TEMPAE_clean_linker_10, # of connection points: 2
#     Edge 21, Type (0, 1), BuildingBlock: TEMPAE_clean_linker_10, # of connection points: 2
#     Edge 22, Type (0, 1), BuildingBlock: TEMPAE_clean_linker_10, # of connection points: 2
#     Edge 23, Type (0, 1), BuildingBlock: TEMPAE_clean_linker_10, # of connection points: 2
#     Edge 24, Type (0, 1), BuildingBlock: TEMPAE_clean_linker_10, # of connection points: 2
#     Edge 25, Type (0, 1), BuildingBlock: TEMPAE_clean_linker_10, # of connection points: 2
#     Edge 26, Type (0, 1), BuildingBlock: TEMPAE_clean_linker_10, # of connection points: 2
# Relax obj value: 0.245
# Max RMSD: 0.185
# Mean RMSD: 0.158
data_MOF--net-anh--node1-BETDIP_clean_sbu_0--node2-VETTIZ_charged_linker_0--edge1-TEMPAE_clean_linker_10
_symmetry_space_group_name_H-M    P1
_symmetry_Int_Tables_number       1
_symmetry_cell_setting            triclinic
loop_
_symmetry_equiv_pos_as_xyz
'x, y, z'
_cell_length_a     35.928703
_cell_length_b     35.994405
_cell_length_c     67.78813
_cell_angle_alpha  89.757155
_cell_angle_beta   90.081486
_cell_angle_gamma 120.01527
loop_
_atom_site_label
_atom_site_type_symbol
_atom_site_fract_x
_atom_site_fract_y
_atom_site_fract_z
_atom_type_partial_charge
Tb0 Tb 0.14254 0.61317 0.16689 0.0
Tb1 Tb 1.09609 0.52163 0.15336 0.0
C2 C 0.19367 0.67755 0.18616 0.0
C3 C 0.24074 0.69848 0.18766 0.0
C4 C 0.26014 0.70413 0.20619 0.0
C5 C 0.30479 0.7236 0.20773 0.0
C6 C 0.33081 0.73827 0.19075 0.0
C7 C 0.31099 0.73044 0.17215 0.0
C8 C 0.26644 0.71055 0.17061 0.0
C9 C 0.12512 0.60297 0.12928 0.0
C10 C 0.19666 0.5651 0.1553 0.0
C11 C 1.04486 0.45557 0.13478 0.0
C12 C 0.99987 0.44108 0.12956 0.0
C13 C 0.96787 0.39926 0.13435 0.0
C14 C 0.92481 0.38865 0.13479 0.0
C15 C 0.91322 0.4199 0.13066 0.0
C16 C 0.94487 0.46053 0.12403 0.0
C17 C 0.98782 0.47096 0.12341 0.0
C18 C 0.11029 0.53256 0.19155 0.0
C19 C 1.0436 0.57275 0.16166 0.0
O20 O 0.17269 0.63904 0.19388 0.0
O21 O 0.17819 0.68008 0.16899 0.0
O22 O 0.1367 0.58166 0.13987 0.0
O23 O 0.12696 0.63428 0.13948 0.0
O24 O 0.19573 0.59865 0.16301 0.0
O25 O 0.16081 0.5311 0.14902 0.0
O26 O 1.07399 0.49076 0.12614 0.0
O27 O 1.05192 0.45551 0.15373 0.0
O28 O 1.09961 0.55354 0.18028 0.0
O29 O 0.11101 0.50213 0.18161 0.0
O30 O 1.04488 0.53954 0.1538 0.0
O31 O 1.07809 0.60473 0.17007 0.0
H32 H 0.24078 0.69391 0.21949 0.0
H33 H 0.31902 0.72848 0.22227 0.0
H34 H 0.32988 0.7417 0.15876 0.0
H35 H 0.25228 0.70547 0.15605 0.0
H36 H 0.97641 0.37571 0.13911 0.0
H37 H 0.90085 0.35676 0.13959 0.0
H38 H 0.93706 0.48528 0.12074 0.0
H39 H 1.01179 0.50338 0.11946 0.0
Tb40 Tb 0.6271 1.06325 0.49312 0.0
Tb41 Tb 0.57281 0.10463 0.49095 0.0
C42 C 0.66463 1.02454 0.50528 0.0
C43 C 0.67785 0.99277 0.5008 0.0
C44 C 0.66709 0.95901 0.51416 0.0
C45 C 0.69031 0.93738 0.51431 0.0
C46 C 0.72493 0.94973 0.50128 0.0
C47 C 0.73285 0.98043 0.48665 0.0
C48 C 0.70922 1.00156 0.48628 0.0
C49 C 0.61985 0.08636 0.45739 0.0
C50 C 0.52315 1.00348 0.48882 0.0
C51 C 0.54152 0.1511 0.48215 0.0
C52 C 0.56383 0.19642 0.47606 0.0
C53 C 0.54691 0.21134 0.46134 0.0
C54 C 0.5698 0.25444 0.45526 0.0
C55 C 0.61026 0.28226 0.46347 0.0
C56 C 0.62704 0.26701 0.47801 0.0
C57 C 0.60388 0.22479 0.4844 0.0
C58 C 0.58337 0.0813 0.52663 0.0
C59 C 0.67608 0.16358 0.49182 0.0
O60 O 0.6244 1.01174 0.50952 0.0
O61 O 0.6829 1.05993 0.49492 0.0
O62 O 0.59143 0.07264 0.47057 0.0
O63 O 0.65014 0.07893 0.46264 0.0
O64 O 0.56102 1.00577 0.49186 0.0
O65 O 0.52041 1.03872 0.48673 0.0
O66 O 0.54395 0.1248 0.46966 0.0
O67 O 0.54866 0.14383 0.50032 0.0
O68 O 0.61149 0.09837 0.51337 0.0
O69 O 0.54791 0.0783 0.52031 0.0
O70 O 0.6389 0.16008 0.48645 0.0
O71 O 0.67733 0.12968 0.49848 0.0
H72 H 0.64335 0.95188 0.52559 0.0
H73 H 0.68385 0.9139 0.52581 0.0
H74 H 0.75933 0.99022 0.47642 0.0
H75 H 0.71822 1.0273 0.4757 0.0
H76 H 0.5161 0.18983 0.45468 0.0
H77 H 0.55606 0.26602 0.4443 0.0
H78 H 0.65759 0.28833 0.48499 0.0
H79 H 0.61722 0.21449 0.49608 0.0
Tb80 Tb 0.60867 0.58013 0.82983 0.0
Tb81 Tb 0.7017 0.6266 0.82036 0.0
C82 C 0.53887 0.56224 0.8454 0.0
C83 C 0.51554 0.58594 0.84477 0.0
C84 C 0.49609 0.5896 0.86192 0.0
C85 C 0.47367 0.6119 0.8615 0.0
C86 C 0.47021 0.63068 0.84385 0.0
C87 C 0.49128 0.6286 0.82687 0.0
C88 C 0.51423 0.60674 0.82737 0.0
C89 C 0.62675 0.58472 0.79213 0.0
C90 C 0.65841 0.68358 0.82215 0.0
C91 C 0.77241 0.64416 0.80551 0.0
C92 C 0.79513 0.61995 0.80778 0.0
C93 C 0.81277 0.6108 0.79131 0.0
C94 C 0.82807 0.58194 0.79298 0.0
C95 C 0.82592 0.56201 0.81117 0.0
C96 C 0.80858 0.5717 0.8276 0.0
C97 C 0.79331 0.60023 0.82593 0.0
C98 C 0.68362 0.62107 0.85838 0.0
C99 C 0.64971 0.52214 0.82542 0.0
O100 O 0.57543 0.58152 0.85492 0.0
O101 O 0.54151 0.54555 0.82869 0.0
O102 O 0.6457 0.61361 0.80476 0.0
O103 O 0.59382 0.55218 0.80018 0.0
O104 O 0.62502 0.64879 0.82988 0.0
O105 O 0.69149 0.68121 0.81488 0.0
O106 O 0.73598 0.62341 0.79604 0.0
O107 O 0.76905 0.66283 0.82142 0.0
O108 O 0.66459 0.59227 0.84565 0.0
O109 O 0.71636 0.65352 0.85019 0.0
O110 O 0.68386 0.55765 0.81866 0.0
O111 O 0.61698 0.52411 0.83332 0.0
H112 H 0.4975 0.57445 0.87554 0.0
H113 H 0.45694 0.61233 0.87471 0.0
H114 H 0.48876 0.6426 0.81311 0.0
H115 H 0.53013 0.60533 0.81407 0.0
H116 H 0.81341 0.62487 0.77706 0.0
H117 H 0.84117 0.57493 0.78007 0.0
H118 H 0.80539 0.55601 0.84168 0.0
H119 H 0.77852 0.60553 0.83872 0.0
C120 C 0.6076 0.26847 0.18804 0.0
C121 C 0.63951 0.31064 0.19257 0.0
C122 C 0.65089 0.32075 0.21267 0.0
C123 C 0.61024 0.24527 0.22138 0.0
C124 C 0.59761 0.23607 0.2019 0.0
C125 C 0.5852 0.19089 0.19654 0.0
H126 H 0.56019 0.99941 0.22353 0.0
C127 C 0.60171 0.20488 0.2311 0.0
C128 C 0.58851 0.17343 0.21637 0.0
H129 H 0.55598 1.04394 0.16466 0.0
H130 H 0.56709 0.11076 0.17794 0.0
H131 H 0.64181 0.09037 0.24084 0.0
H132 H 0.5043 1.0279 0.24175 0.0
H133 H 0.5203 1.06164 0.26244 0.0
H134 H 0.53298 1.01902 0.26108 0.0
H135 H 0.60641 1.04024 0.25285 0.0
H136 H 0.62442 0.09037 0.26521 0.0
C137 C 0.61892 0.19248 0.18159 0.0
C138 C 0.53852 0.16791 0.18877 0.0
C139 C 0.60861 0.19364 0.30608 0.0
C140 C 0.59687 0.15796 0.31848 0.0
C141 C 0.58333 0.11751 0.31011 0.0
C142 C 0.58148 0.1123 0.28971 0.0
C143 C 0.59296 0.14781 0.27742 0.0
C144 C 0.60559 0.18762 0.2855 0.0
C145 C 0.6155 0.22109 0.2697 0.0
C146 C 0.60385 0.19386 0.25109 0.0
C147 C 0.59243 0.15146 0.25584 0.0
C148 C 0.66411 0.25455 0.27054 0.0
C149 C 0.58625 0.24062 0.27275 0.0
C150 C 0.56367 1.02426 0.21337 0.0
C151 C 0.55827 1.0167 0.19295 0.0
C152 C 0.56056 1.04913 0.18041 0.0
C153 C 0.56723 0.08802 0.18815 0.0
C154 C 0.57259 0.095 0.20861 0.0
C155 C 0.57072 1.06336 0.22082 0.0
C156 C 0.57446 0.07521 0.24225 0.0
C157 C 0.58237 0.1207 0.24075 0.0
C158 C 0.58062 0.13178 0.2211 0.0
C159 C 0.61368 0.07388 0.25091 0.0
C160 C 0.53102 1.04437 0.25253 0.0
H161 H 0.64672 0.29746 0.24199 0.0
H162 H 0.59649 0.25928 0.17305 0.0
H163 H 0.51757 0.17437 0.19854 0.0
H164 H 0.52404 0.13267 0.18839 0.0
H165 H 0.53706 0.1794 0.1737 0.0
H166 H 0.64966 0.2236 0.18207 0.0
H167 H 0.60677 0.18795 0.1662 0.0
H168 H 0.62885 0.16857 0.18492 0.0
H169 H 0.61935 0.22511 0.31225 0.0
H170 H 0.57472 0.08984 0.31944 0.0
H171 H 0.57146 0.08077 0.28435 0.0
H172 H 0.68299 0.2402 0.27651 0.0
H173 H 0.67038 0.28202 0.28014 0.0
H174 H 0.67793 0.26669 0.25575 0.0
H175 H 0.55199 0.21483 0.27365 0.0
H176 H 0.58874 0.26219 0.26058 0.0
H177 H 0.59454 0.25929 0.28666 0.0
H178 H 0.6749 0.35281 0.21705 0.0
C179 C 0.63541 0.2883 0.22717 0.0
C180 C 0.88781 0.79669 0.55282 0.0
C181 C 0.88924 0.82997 0.56421 0.0
C182 C 0.89066 0.82712 0.58496 0.0
C183 C 0.87655 0.75416 0.58228 0.0
C184 C 0.88146 0.75924 0.56211 0.0
C185 C 0.874 0.71911 0.55192 0.0
H186 H 0.76179 0.50774 0.55024 0.0
C187 C 0.86101 0.70863 0.58695 0.0
C188 C 0.86087 0.68821 0.56932 0.0
H189 H 0.84441 0.5936 0.50444 0.0
H190 H 0.87539 0.65155 0.52792 0.0
H191 H 0.83716 0.54115 0.58165 0.0
H192 H 0.73599 0.57048 0.57325 0.0
H193 H 0.73793 0.55572 0.59807 0.0
H194 H 0.72873 0.51837 0.57887 0.0
H195 H 0.78656 0.51092 0.594 0.0
H196 H 0.83003 0.55906 0.60471 0.0
C197 C 0.91689 0.72766 0.54243 0.0
C198 C 0.83685 0.70595 0.53692 0.0
C199 C 0.78543 0.64853 0.6524 0.0
C200 C 0.76269 0.60674 0.66009 0.0
C201 C 0.76116 0.57259 0.6494 0.0
C202 C 0.78036 0.57981 0.63071 0.0
C203 C 0.80107 0.62151 0.62271 0.0
C204 C 0.80475 0.65526 0.63382 0.0
C205 C 0.82986 0.69767 0.62337 0.0
C206 C 0.8405 0.68372 0.60404 0.0
C207 C 0.82219 0.63888 0.60353 0.0
C208 C 0.87073 0.72693 0.63554 0.0
C209 C 0.79937 0.71604 0.62044 0.0
C210 C 0.78683 0.53884 0.54518 0.0
C211 C 0.79917 0.54636 0.52514 0.0
C212 C 0.83273 0.58725 0.5195 0.0
C213 C 0.85079 0.62085 0.53309 0.0
C214 C 0.83469 0.61375 0.55241 0.0
C215 C 0.80549 0.57282 0.55857 0.0
C216 C 0.79599 0.57096 0.58032 0.0
C217 C 0.82202 0.6183 0.58569 0.0
C218 C 0.84314 0.6431 0.569 0.0
C219 C 0.81301 0.54399 0.59079 0.0
C220 C 0.74708 0.55286 0.5829 0.0
H221 H 0.88353 0.78807 0.60986 0.0
H222 H 0.8875 0.79775 0.53689 0.0
H223 H 0.80879 0.70541 0.54414 0.0
H224 H 0.82498 0.67395 0.53055 0.0
H225 H 0.84711 0.72889 0.52436 0.0
H226 H 0.94489 0.75812 0.54765 0.0
H227 H 0.91599 0.72995 0.52611 0.0
H228 H 0.92463 0.7023 0.54635 0.0
H229 H 0.78773 0.67534 0.66063 0.0
H230 H 0.74402 0.54022 0.65526 0.0
H231 H 0.77751 0.55261 0.62296 0.0
H232 H 0.88008 0.70785 0.64519 0.0
H233 H 0.86569 0.74892 0.64518 0.0
H234 H 0.89915 0.74604 0.62603 0.0
H235 H 0.76848 0.69147 0.61377 0.0
H236 H 0.81229 0.74409 0.61059 0.0
H237 H 0.79196 0.7257 0.63479 0.0
H238 H 0.89391 0.85301 0.59422 0.0
C239 C 0.88445 0.78935 0.59405 0.0
C240 C 0.16255 0.51289 0.88505 0.0
C241 C 0.19939 0.54484 0.89444 0.0
C242 C 0.19862 0.55193 0.91473 0.0
C243 C 0.12339 0.49751 0.91587 0.0
C244 C 0.12487 0.48938 0.89608 0.0
C245 C 1.08234 0.45434 0.88851 0.0
H246 H 0.87852 0.38393 0.88971 0.0
C247 C 1.07879 0.47057 0.92267 0.0
C248 C 1.05459 0.44437 0.907 0.0
H249 H 0.95115 0.3549 0.84778 0.0
H250 H 1.00704 0.37371 0.87228 0.0
H251 H 0.91112 0.33684 0.92767 0.0
H252 H 0.94569 0.46592 0.91007 0.0
H253 H 0.93486 0.4574 0.93577 0.0
H254 H 0.89285 0.42686 0.91859 0.0
H255 H 0.8784 0.35971 0.93407 0.0
H256 H 0.92425 0.36909 0.94881 0.0
C257 C 1.08733 0.41581 0.88187 0.0
C258 C 1.06778 0.47343 0.87169 0.0
C259 C 1.03938 0.50393 0.98891 0.0
C260 C 1.0005 0.49117 -0.0013 0.0
C261 C 0.96159 0.46155 0.98952 0.0
C262 C 0.96179 0.44589 0.97049 0.0
C263 C 1.00129 0.45981 0.96079 0.0
C264 C 1.03908 0.48802 0.97022 0.0
C265 C 1.07828 0.49967 0.95817 0.0
C266 C 1.05811 0.47267 0.94003 0.0
C267 C 1.01304 0.44959 0.94144 0.0
C268 C 1.10611 0.48474 0.96943 0.0
C269 C 1.10129 0.54874 0.95378 0.0
C270 C 0.90583 0.38047 0.88584 0.0
C271 C 0.91201 0.37107 0.86628 0.0
C272 C 0.94691 0.36465 0.86231 0.0
C273 C 0.97956 0.37626 0.87624 0.0
C274 C 0.97687 0.39427 0.89403 0.0
C275 C 0.93872 0.39133 0.89969 0.0
C276 C 0.94078 0.40593 0.92076 0.0
C277 C 0.98834 0.42404 0.92528 0.0
C278 C 1.00933 0.41878 0.90896 0.0
C279 C 0.912 0.36605 0.9336 0.0
C280 C 0.92777 0.44086 0.92145 0.0
H281 H 0.1619 0.53533 0.94094 0.0
H282 H 0.16331 0.5062 0.86953 0.0
H283 H 1.06487 0.50097 0.87716 0.0
H284 H 1.03663 0.45004 0.86526 0.0
H285 H 1.09133 0.48504 0.85937 0.0
H286 H 0.11997 0.42083 0.88488 0.0
H287 H 1.08176 0.41003 0.86577 0.0
H288 H 1.06477 0.38592 0.88989 0.0
H289 H 1.06987 0.52586 -0.00424 0.0
H290 H 0.93123 0.45101 -0.00306 0.0
H291 H 0.93137 0.42409 0.96393 0.0
H292 H 1.0855 0.45303 0.97661 0.0
H293 H 0.1254 0.50791 0.98116 0.0
H294 H 0.12791 0.47998 0.95962 0.0
H295 H 1.0801 0.5625 0.95654 0.0
H296 H 0.11072 0.55641 0.93811 0.0
H297 H 0.13024 0.56675 0.96316 0.0
H298 H 0.22734 0.57588 0.92217 0.0
C299 C 0.16074 0.52833 0.92554 0.0
C300 C 0.99119 0.47293 0.46591 0.0
C301 C 0.95838 0.43525 0.45633 0.0
C302 C 0.96594 0.42827 0.43668 0.0
C303 C 1.03307 0.49603 0.43538 0.0
C304 C 1.02863 0.50303 0.45504 0.0
C305 C 1.06794 0.5452 0.4618 0.0
H306 H 0.26195 0.72268 0.43244 0.0
C307 C 1.07282 0.53299 0.42735 0.0
C308 C 1.09463 0.56257 0.44268 0.0
H309 H 0.2121 0.69924 0.4919 0.0
H310 H 0.14877 0.63251 0.48094 0.0
H311 H 0.23832 0.6289 0.4214 0.0
H312 H 0.17658 0.70363 0.41357 0.0
H313 H 0.16152 0.67039 0.39282 0.0
H314 H 0.21768 0.70851 0.39706 0.0
H315 H 0.25734 0.67391 0.40488 0.0
H316 H 0.21894 0.62047 0.39706 0.0
C317 C 1.09224 0.53475 0.47756 0.0
C318 C 1.05301 0.57574 0.46952 0.0
C319 C 1.09908 0.53618 0.35325 0.0
C320 C 0.12971 0.56736 0.34036 0.0
C321 C 0.16258 0.60586 0.34864 0.0
C322 C 0.16503 0.61295 0.36906 0.0
C323 C 0.13384 0.58172 0.38163 0.0
C324 C 1.10148 0.54431 0.3736 0.0
C325 C 1.06997 0.51561 0.38898 0.0
C326 C 1.08863 0.5421 0.40764 0.0
C327 C 0.12631 0.58038 0.40327 0.0
C328 C 1.07158 0.47328 0.38966 0.0
C329 C 1.02545 0.51014 0.3836 0.0
C330 C 0.23764 0.70415 0.44336 0.0
C331 C 0.24292 0.71766 0.46312 0.0
C332 C 0.20986 0.69033 0.47653 0.0
C333 C 0.17289 0.6515 0.47018 0.0
C334 C 0.1684 0.63929 0.45014 0.0
C335 C 0.20092 0.66624 0.4373 0.0
C336 C 0.1919 0.65119 0.41644 0.0
C337 C 0.14969 0.60968 0.41857 0.0
C338 C 0.13474 0.60169 0.43833 0.0
C339 C 0.2285 0.64337 0.40939 0.0
C340 C 0.18691 0.68508 0.4042 0.0
H341 H 1.00461 0.44992 0.4114 0.0
H342 H 0.98737 0.47914 0.48116 0.0
H343 H 1.03296 0.58011 0.45827 0.0
H344 H 1.08053 0.60779 0.47289 0.0
H345 H 1.03351 0.56264 0.48315 0.0
H346 H 1.09965 0.51014 0.472 0.0
H347 H 1.07251 0.52199 0.49115 0.0
H348 H 0.12307 0.56325 0.48156 0.0
H349 H 1.07357 0.5059 0.34773 0.0
H350 H 0.18622 0.63116 0.33934 0.0
H351 H 0.19114 0.64277 0.3742 0.0
H352 H 1.10331 0.47838 0.38468 0.0
H353 H 1.04668 0.44843 0.37998 0.0
H354 H 1.06788 0.46022 0.4048 0.0
H355 H 1.02902 0.54011 0.37699 0.0
H356 H 1.00439 0.50393 0.39649 0.0
H357 H 1.0084 0.48404 0.37269 0.0
H358 H 0.94314 0.39937 0.42901 0.0
C359 C 1.00233 0.45793 0.42634 0.0
C360 C 0.64187 0.98826 0.80004 0.0
C361 C 0.6407 0.95288 0.78984 0.0
C362 C 0.64143 0.95436 0.76908 0.0
C363 C 0.64167 1.02191 0.76864 0.0
C364 C 0.64226 1.02263 0.78903 0.0
C365 C 0.64258 1.06316 0.79638 0.0
H366 H 0.65022 0.25382 0.7686 0.0
C367 C 0.64204 1.06078 0.76098 0.0
C368 C 0.64319 0.08629 0.77704 0.0
H369 H 0.63993 0.2092 0.82862 0.0
H370 H 0.64163 0.14558 0.81677 0.0
H371 H 0.71763 0.2301 0.75382 0.0
H372 H 0.57989 0.16608 0.75221 0.0
H373 H 0.59561 0.15665 0.72922 0.0
H374 H 0.61333 0.21099 0.73664 0.0
H375 H 0.6891 0.24499 0.73676 0.0
H376 H 0.70309 0.20461 0.73081 0.0
C377 C 0.6834 0.09013 0.80867 0.0
C378 C 0.60123 1.04957 0.80826 0.0
C379 C 0.63181 0.07478 0.68646 0.0
C380 C 0.63422 0.10763 0.67413 0.0
C381 C 0.64249 0.14647 0.68305 0.0
C382 C 0.64629 0.15172 0.70359 0.0
C383 C 0.64251 0.11813 0.71566 0.0
C384 C 0.63664 0.08102 0.70698 0.0
C385 C 0.63698 1.05021 0.72194 0.0
C386 C 0.6415 0.07393 0.7412 0.0
C387 C 0.64425 0.1134 0.73741 0.0
C388 C 0.67696 1.04551 0.71767 0.0
C389 C 0.59318 1.00791 0.72064 0.0
C390 C 0.64758 0.23049 0.77946 0.0
C391 C 0.64403 0.23709 0.79964 0.0
C392 C 0.64254 0.20561 0.81293 0.0
C393 C 0.64324 0.16842 0.80604 0.0
C394 C 0.6454 0.16212 0.7856 0.0
C395 C 0.64755 0.19349 0.77291 0.0
C396 C 0.64813 0.18274 0.75171 0.0
C397 C 0.64582 0.13972 0.7533 0.0
C398 C 0.64474 0.1268 0.77318 0.0
C399 C 0.69147 0.21739 0.74263 0.0
C400 C 0.60746 0.17913 0.74174 0.0
H401 H 0.64131 0.98543 0.74294 0.0
H402 H 0.64166 0.9887 0.816 0.0
H403 H 0.57252 1.02714 0.79951 0.0
H404 H 0.59748 0.07729 0.8121 0.0
H405 H 0.60126 1.03304 0.82214 0.0
H406 H 0.71247 0.09684 0.80008 0.0
H407 H 0.68275 0.07279 0.82238 0.0
H408 H 0.68685 0.12133 0.81285 0.0
H409 H 0.62569 1.04445 0.68045 0.0
H410 H 0.64631 0.17324 0.67419 0.0
H411 H 0.65186 0.18186 0.70924 0.0
H412 H 0.70175 0.07292 0.70889 0.0
H413 H 0.66807 1.01581 0.70925 0.0
H414 H 0.69399 1.04564 0.73134 0.0
H415 H 0.56652 1.01478 0.71837 0.0
H416 H 0.58465 0.98848 0.73428 0.0
H417 H 0.59274 0.98796 0.70809 0.0
H418 H 0.64191 0.92911 0.76063 0.0
C419 C 0.64162 0.98787 0.75864 0.0
C420 C 0.734 0.57645 0.1337 0.0
C421 C 0.77189 0.58148 0.12418 0.0
C422 C 0.77763 0.59351 0.10412 0.0
C423 C 0.70805 0.58901 0.1024 0.0
C424 C 0.70243 0.58072 0.12242 0.0
C425 C 0.66024 0.57803 0.12909 0.0
H426 H 0.47327 0.57513 0.09821 0.0
C427 C 0.66963 0.58856 0.09406 0.0
C428 C 0.64074 0.58257 0.10951 0.0
H429 H 0.50924 0.57468 0.15895 0.0
H430 H 0.57451 0.57492 0.14803 0.0
H431 H 0.56421 0.64741 0.08386 0.0
H432 H 0.49892 0.50974 0.08288 0.0
H433 H 0.52834 0.52641 0.06083 0.0
H434 H 0.48703 0.53996 0.06544 0.0
H435 H 0.51925 0.61546 0.06809 0.0
H436 H 0.57356 0.63291 0.06049 0.0
C437 C 0.67137 0.61588 0.14299 0.0
C438 C 0.63117 0.53435 0.139 0.0
C439 C 0.66107 0.59726 0.01918 0.0
C440 C 0.62875 0.59342 0.00613 0.0
C441 C 0.58966 0.5867 0.01425 0.0
C442 C 0.58313 0.58429 0.03476 0.0
C443 C 0.61583 0.5883 0.04756 0.0
C444 C 0.65376 0.59423 0.03964 0.0
C445 C 0.68432 0.59615 0.0553 0.0
C446 C 0.65854 0.59045 0.07405 0.0
C447 C 0.61876 0.58647 0.06944 0.0
C448 C 0.72535 0.64121 0.05424 0.0
C449 C 0.69199 0.55789 0.05179 0.0
C450 C 0.49517 0.57605 0.10943 0.0
C451 C 0.48556 0.57591 0.12956 0.0
C452 C 0.51517 0.57505 0.14329 0.0
C453 C 0.55343 0.57565 0.13696 0.0
C454 C 0.56283 0.5773 0.11663 0.0
C455 C 0.53322 0.57722 0.10344 0.0
C456 C 0.54672 0.57927 0.08244 0.0
C457 C 0.58995 0.5821 0.0848 0.0
C458 C 0.60019 0.58043 0.10487 0.0
C459 C 0.55098 0.62064 0.07304 0.0
C460 C 0.51358 0.53694 0.0722 0.0
H461 H 0.75352 0.6053 0.07814 0.0
H462 H 0.72876 0.56867 0.14925 0.0
H463 H 0.6262 0.50783 0.12901 0.0
H464 H 0.5992 0.52996 0.14258 0.0
H465 H 0.64594 0.53133 0.15289 0.0
H466 H 0.69545 0.64664 0.136 0.0
H467 H 0.68517 0.61209 0.15703 0.0
H468 H 0.64301 0.61883 0.14652 0.0
H469 H 0.69177 0.60292 0.0137 0.0
H470 H 0.56367 0.58271 0.00476 0.0
H471 H 0.5527 0.57935 0.03982 0.0
H472 H 0.71838 0.66558 0.0478 0.0
H473 H 0.75061 0.64078 0.04499 0.0
H474 H 0.73876 0.65403 0.06901 0.0
H475 H 0.66215 0.52922 0.04649 0.0
H476 H 0.70065 0.54674 0.06528 0.0
H477 H 0.71727 0.566 0.04046 0.0
H478 H 0.80673 0.60017 0.09641 0.0
C479 C 0.74642 0.59696 0.09337 0.0
C480 C 0.24301 0.53507 0.14237 0.0
C481 C 0.23952 0.56671 0.15301 0.0
C482 C 0.28305 0.53681 0.13969 0.0
C483 C 0.32131 0.57078 0.14799 0.0
C484 C 0.31789 0.60247 0.15904 0.0
C485 C 0.2775 0.60022 0.16129 0.0
C486 C 0.28449 0.50251 0.12756 0.0
C487 C 0.3571 0.63926 0.16838 0.0
C488 C 0.42034 0.55487 0.15222 0.0
C489 C 0.44499 0.57687 0.13551 0.0
C490 C 0.38091 0.55341 0.15672 0.0
C491 C 0.36483 0.57412 0.14425 0.0
C492 C 0.39009 0.59725 0.1277 0.0
C493 C 0.42948 0.59869 0.12372 0.0
C494 C 0.35599 0.529 0.17474 0.0
C495 C 0.37507 0.62001 0.11385 0.0
H496 H 0.21436 0.50899 0.1358 0.0
H497 H 0.27579 0.62498 0.1696 0.0
H498 H 0.30547 0.5173 0.1145 0.0
H499 H 0.29864 0.48656 0.13635 0.0
H500 H 0.25213 0.47772 0.1224 0.0
H501 H 0.34874 0.65869 0.17817 0.0
H502 H 0.37495 0.62707 0.17709 0.0
H503 H 0.37911 0.66058 0.1567 0.0
H504 H 0.43123 0.53773 0.16158 0.0
H505 H 0.44819 0.6171 0.11111 0.0
H506 H 0.32473 0.50131 0.17022 0.0
H507 H 0.34889 0.54987 0.18414 0.0
H508 H 0.37367 0.51689 0.18369 0.0
H509 H 0.34354 0.59657 0.1074 0.0
H510 H 0.39816 0.6367 0.10163 0.0
H511 H 0.37038 0.64394 0.12206 0.0
C512 C 0.7545 0.20639 0.482 0.0
C513 C 0.71761 0.20563 0.48946 0.0
C514 C 0.79328 0.24544 0.47852 0.0
C515 C 0.7965 0.2854 0.48327 0.0
C516 C 0.75976 0.28459 0.4916 0.0
C517 C 0.72082 0.24511 0.49418 0.0
C518 C 0.83042 0.24392 0.46899 0.0
C519 C 0.76089 0.32546 0.49746 0.0
C520 C 0.91247 0.38352 0.4841 0.0
C521 C 0.91569 0.40212 0.46543 0.0
C522 C 0.87354 0.34694 0.49054 0.0
C523 C 0.83685 0.32758 0.47795 0.0
C524 C 0.83943 0.34773 0.45959 0.0
C525 C 0.87806 0.38463 0.4538 0.0
C526 C 0.87193 0.32839 0.51069 0.0
C527 C 0.80187 0.32911 0.44549 0.0
H528 H 0.75256 0.17626 0.47817 0.0
H529 H 0.69302 0.24522 0.50023 0.0
H530 H 0.83828 0.26127 0.45466 0.0
H531 H 0.85942 0.26036 0.47842 0.0
H532 H 0.82328 0.21055 0.46634 0.0
H533 H 0.73668 0.31938 0.50906 0.0
H534 H 0.79309 0.34984 0.50292 0.0
H535 H 0.75317 0.33891 0.48438 0.0
H536 H 0.94079 0.39638 0.49337 0.0
H537 H 0.87929 0.39898 0.43955 0.0
H538 H 0.86974 0.29668 0.5092 0.0
H539 H 0.84281 0.32323 0.51874 0.0
H540 H 0.9008 0.34952 0.51963 0.0
H541 H 0.79352 0.29597 0.44145 0.0
H542 H 0.80876 0.34843 0.43176 0.0
H543 H 0.77322 0.32711 0.45266 0.0
C544 C 0.62615 0.73046 0.83077 0.0
C545 C 0.65663 0.72465 0.82023 0.0
C546 C 0.62307 0.76809 0.82861 0.0
C547 C 0.65041 0.80098 0.8152 0.0
C548 C 0.68141 0.79536 0.80463 0.0
C549 C 0.68444 0.75785 0.80741 0.0
C550 C 0.58998 0.7723 0.84056 0.0
C551 C 0.71061 0.82845 0.78977 0.0
C552 C 0.61167 0.87268 0.79107 0.0
C553 C 0.63834 0.91344 0.79946 0.0
C554 C 0.61476 0.83627 0.7963 0.0
C555 C 0.6444 0.83934 0.81093 0.0
C556 C 0.66929 0.87957 0.82057 0.0
C557 C 0.66629 0.91605 0.81465 0.0
C558 C 0.58765 0.79485 0.7853 0.0
C559 C 0.70029 0.88449 0.83672 0.0
H560 H 0.60443 0.70542 0.84079 0.0
H561 H 0.70798 0.75404 0.79904 0.0
H562 H 0.60521 0.8037 0.84821 0.0
H563 H 0.5649 0.77127 0.83065 0.0
H564 H 0.57408 0.74627 0.8517 0.0
H565 H 0.73371 0.82018 0.78305 0.0
H566 H 0.69105 0.83141 0.77784 0.0
H567 H 0.72897 0.86031 0.79689 0.0
H568 H 0.58924 0.86955 0.7796 0.0
H569 H 0.68721 0.94697 0.82132 0.0
H570 H 0.5684 0.76838 0.79579 0.0
H571 H 0.60883 0.78603 0.77712 0.0
H572 H 0.56542 0.79721 0.77462 0.0
H573 H 0.6843 0.85808 0.84765 0.0
H574 H 0.71322 0.91567 0.84446 0.0
H575 H 0.7276 0.8824 0.83034 0.0
C576 C 1.00313 0.61127 0.15255 0.0
C577 C 1.00269 0.57456 0.16001 0.0
C578 C 0.96452 0.61189 0.1489 0.0
C579 C 0.92398 0.57558 0.1536 0.0
C580 C 0.92374 0.53932 0.16216 0.0
C581 C 0.96266 0.53877 0.16472 0.0
C582 C 0.96712 0.65088 0.13918 0.0
C583 C 0.88212 0.50082 0.16848 0.0
C584 C 0.82365 0.59019 0.15259 0.0
C585 C 0.80643 0.57456 0.13377 0.0
C586 C 0.86079 0.58951 0.1596 0.0
C587 C 0.88212 0.57364 0.14746 0.0
C588 C 0.86373 0.55636 0.12886 0.0
C589 C 0.82617 0.55616 0.12256 0.0
C590 C 0.87803 0.60713 0.17978 0.0
C591 C 0.88501 0.5399 0.11501 0.0
H592 H 1.03373 0.63897 0.14864 0.0
H593 H 0.96178 0.51025 0.17056 0.0
H594 H 0.95206 0.64211 0.12436 0.0
H595 H 0.94898 0.66257 0.14791 0.0
H596 H 1.0008 0.67744 0.13747 0.0
H597 H 0.88694 0.47525 0.17507 0.0
H598 H 0.86594 0.51068 0.17949 0.0
H599 H 0.8603 0.48764 0.15566 0.0
H600 H 0.80918 0.60445 0.16155 0.0
H601 H 0.81295 0.54263 0.10825 0.0
H602 H 0.90872 0.6379 0.17829 0.0
H603 H 0.88496 0.58468 0.18812 0.0
H604 H 0.85521 0.61293 0.18845 0.0
H605 H 0.91629 0.56704 0.11004 0.0
H606 H 0.86511 0.5241 0.10179 0.0
H607 H 0.89178 0.5168 0.12273 0.0
C608 C 0.48282 0.92314 0.48131 0.0
C609 C 0.48229 0.96034 0.48717 0.0
C610 C 0.44421 0.88336 0.47859 0.0
C611 C 0.40352 0.87974 0.48229 0.0
C612 C 0.40302 0.91689 0.48891 0.0
C613 C 0.44194 0.95644 0.49098 0.0
C614 C 0.44696 0.84542 0.47108 0.0
C615 C 0.36109 0.91508 0.4936 0.0
C616 C 0.30249 0.79411 0.4552 0.0
C617 C 0.28268 0.76001 0.46894 0.0
C618 C 0.34151 0.83226 0.45927 0.0
C619 C 0.36163 0.83832 0.47792 0.0
C620 C 0.34116 0.80501 0.49223 0.0
C621 C 0.30247 0.76644 0.48756 0.0
C622 C 0.36153 0.86608 0.44334 0.0
C623 C 0.36033 0.81 0.51251 0.0
H624 H 0.51347 0.92538 0.47822 0.0
H625 H 0.4407 0.98453 0.4957 0.0
H626 H 0.42986 0.81773 0.48127 0.0
H627 H 0.43083 0.83549 0.45652 0.0
H628 H 0.48071 0.85266 0.46947 0.0
H629 H 0.36604 0.9453 0.50035 0.0
H630 H 0.34201 0.90915 0.47991 0.0
H631 H 0.34175 0.88809 0.50387 0.0
H632 H 0.28752 0.79123 0.44099 0.0
H633 H 0.28826 0.741 0.49846 0.0
H634 H 0.39493 0.87342 0.44043 0.0
H635 H 0.36324 0.89623 0.44829 0.0
H636 H 0.34319 0.85597 0.42929 0.0
H637 H 0.39232 0.81253 0.51137 0.0
H638 H 0.33969 0.78262 0.52238 0.0
H639 H 0.36527 0.84008 0.51936 0.0
C640 C 0.6815 0.47651 0.81414 0.0
C641 C 0.64845 0.4795 0.82383 0.0
C642 C 0.67989 0.43667 0.81151 0.0
C643 C 0.64482 0.39813 0.81904 0.0
C644 C 0.61177 0.40101 0.82921 0.0
C645 C 0.61384 0.44126 0.83138 0.0
C646 C 0.716 0.43606 0.80052 0.0
C647 C 0.57359 0.36132 0.83752 0.0
C648 C 0.62098 0.29274 0.79372 0.0
C649 C 0.64133 0.27639 0.80599 0.0
C650 C 0.62141 0.33142 0.79794 0.0
C651 C 0.64176 0.35491 0.81522 0.0
C652 C 0.66058 0.33778 0.82823 0.0
C653 C 0.66041 0.29916 0.82346 0.0
C654 C 0.60098 0.34783 0.78345 0.0
C655 C 0.68138 0.36066 0.84714 0.0
H656 H 0.70862 0.50541 0.80825 0.0
H657 H 0.58799 0.44264 0.83892 0.0
H658 H 0.73668 0.43132 0.81121 0.0
H659 H 0.70354 0.40923 0.78983 0.0
H660 H 0.73593 0.46651 0.79235 0.0
H661 H 0.5522 0.36896 0.84629 0.0
H662 H 0.55461 0.33964 0.82531 0.0
H663 H 0.5845 0.34346 0.84703 0.0
H664 H 0.6047 0.27537 0.78051 0.0
H665 H 0.67625 0.28751 0.83322 0.0
H666 H 0.62584 0.37927 0.7774 0.0
H667 H 0.57663 0.35306 0.79101 0.0
H668 H 0.58526 0.32543 0.77097 0.0
H669 H 0.70868 0.3931 0.84376 0.0
H670 H 0.69315 0.34281 0.85616 0.0
H671 H 0.65806 0.36512 0.85606 0.0
C672 C 0.74502 0.89361 0.50752 0.0
C673 C 0.75719 0.93689 0.50553 0.0
C674 C 0.77396 0.88168 0.515 0.0
C675 C 0.81539 0.9139 0.52118 0.0
C676 C 0.82848 0.95766 0.51823 0.0
C677 C 0.79926 0.96863 0.51025 0.0
C678 C 0.75926 0.8346 0.51742 0.0
C679 C 0.87194 0.99294 0.52499 0.0
C680 C 0.853 0.8739 0.56395 0.0
C681 C 0.88035 0.86207 0.55458 0.0
C682 C 0.83439 0.89408 0.55348 0.0
C683 C 0.84233 0.90161 0.53302 0.0
C684 C 0.87264 0.89326 0.5238 0.0
C685 C 0.89201 0.87439 0.53481 0.0
C686 C 0.80342 0.90406 0.56404 0.0
C687 C 0.88187 0.90074 0.50198 0.0
H688 H 0.71244 0.86921 0.50383 0.0
H689 H 0.80838 1.00217 0.50895 0.0
H690 H 0.78419 0.82765 0.51189 0.0
H691 H 0.75425 0.82591 0.53331 0.0
H692 H 0.72869 0.81389 0.50948 0.0
H693 H 0.87978 1.02466 0.51878 0.0
H694 H 0.87204 0.995 0.54133 0.0
H695 H 0.89765 0.98601 0.52078 0.0
H696 H 0.84328 0.86458 0.57912 0.0
H697 H 0.91424 0.86687 0.52754 0.0
H698 H 0.77005 0.88088 0.55944 0.0
H699 H 0.8098 0.93667 0.56009 0.0
H700 H 0.8055 0.90206 0.58033 0.0
H701 H 0.91101 0.89934 0.49775 0.0
H702 H 0.88612 0.93223 0.49738 0.0
H703 H 0.85409 0.87563 0.49365 0.0
C704 C 0.82718 0.49641 0.79963 0.0
C705 C 0.83986 0.52979 0.81328 0.0
C706 C 0.83398 0.46183 0.80347 0.0
C707 C 0.85492 0.4615 0.82111 0.0
C708 C 0.8703 0.49666 0.83426 0.0
C709 C 0.86252 0.53024 0.83018 0.0
C710 C 0.81671 0.42492 0.78915 0.0
C711 C 0.89395 0.49835 0.85301 0.0
C712 C 0.84796 0.37164 0.85172 0.0
C713 C 0.89024 0.37985 0.84974 0.0
C714 C 0.83307 0.39385 0.84007 0.0
C715 C 0.86134 0.42505 0.8264 0.0
C716 C 0.90124 0.42814 0.82214 0.0
C717 C 0.9153 0.4055 0.83389 0.0
C718 C 0.78919 0.38784 0.84411 0.0
C719 C 0.93181 0.46 0.80722 0.0
H720 H 0.81014 0.49623 0.78641 0.0
H721 H 0.8734 0.55661 0.84049 0.0
H722 H 0.83836 0.41138 0.7879 0.0
H723 H 0.78511 0.39901 0.79454 0.0
H724 H 0.81189 0.43478 0.77424 0.0
H725 H 0.90484 0.52865 0.86129 0.0
H726 H 0.8727 0.47109 0.86279 0.0
H727 H 0.92251 0.49537 0.84954 0.0
H728 H 0.82783 0.35073 0.86346 0.0
H729 H 0.94797 0.41206 0.83198 0.0
H730 H 0.77316 0.38785 0.83011 0.0
H731 H 0.79248 0.41488 0.85322 0.0
H732 H 0.76846 0.35739 0.85216 0.0
H733 H 0.9143 0.46137 0.794 0.0
H734 H 0.95654 0.45195 0.80251 0.0
H735 H 0.94849 0.49244 0.81391 0.0
C736 C 0.39313 0.80077 0.20636 0.0
C737 C 0.37782 0.76792 0.19233 0.0
C738 C 0.4341 0.83673 0.2046 0.0
C739 C 0.46035 0.83989 0.18836 0.0
C740 C 0.44755 0.80427 0.1758 0.0
C741 C 0.40616 0.76855 0.1779 0.0
C742 C 0.44684 0.87356 0.21874 0.0
C743 C 0.47544 0.80521 0.15899 0.0
C744 C 0.50731 0.95374 0.17307 0.0
C745 C 0.54313 0.97277 0.18555 0.0
C746 C 0.48299 0.90913 0.17133 0.0
C747 C 0.49487 0.88325 0.18243 0.0
C748 C 0.53491 0.90244 0.19223 0.0
C749 C 0.55863 0.94727 0.19381 0.0
C750 C 0.44124 0.8899 0.15999 0.0
C751 C 0.5501 0.87585 0.2031 0.0
H752 H 0.3717 0.80067 0.21761 0.0
H753 H 0.39504 0.74254 0.16738 0.0
H754 H 0.47983 0.88534 0.22438 0.0
H755 H 0.44655 0.9006 0.21094 0.0
H756 H 0.42467 0.86431 0.23157 0.0
H757 H 0.47066 0.77267 0.15634 0.0
H758 H 0.46612 0.81553 0.14531 0.0
H759 H 0.51004 0.82775 0.16181 0.0
H760 H 0.49535 0.97317 0.16641 0.0
H761 H 0.58732 0.96204 0.20288 0.0
H762 H 0.41394 0.87782 0.17052 0.0
H763 H 0.437 0.86241 0.151 0.0
H764 H 0.4397 0.91374 0.15006 0.0
H765 H 0.53713 0.86964 0.21835 0.0
H766 H 0.58574 0.89305 0.20408 0.0
H767 H 0.53878 0.84445 0.19581 0.0
C768 C 0.67679 0.34803 0.45349 0.0
C769 C 0.63371 0.32862 0.45943 0.0
C770 C 0.70582 0.39066 0.45857 0.0
C771 C 0.69112 0.41346 0.47008 0.0
C772 C 0.64647 0.39617 0.47316 0.0
C773 C 0.61804 0.35365 0.46768 0.0
C774 C 0.75299 0.40881 0.45427 0.0
C775 C 0.6294 0.42004 0.48484 0.0
C776 C 0.75835 0.46928 0.51493 0.0
C777 C 0.77532 0.51266 0.5101 0.0
C778 C 0.73118 0.43696 0.50191 0.0
C779 C 0.7219 0.44818 0.48321 0.0
C780 C 0.74068 0.49182 0.47774 0.0
C781 C 0.76664 0.52358 0.49138 0.0
C782 C 0.71058 0.39082 0.50875 0.0
C783 C 0.73188 0.50524 0.45796 0.0
H784 H 0.6887 0.32847 0.44701 0.0
H785 H 0.58464 0.33848 0.47221 0.0
H786 H 0.76809 0.44304 0.44985 0.0
H787 H 0.7695 0.40717 0.46782 0.0
H788 H 0.75828 0.3907 0.44243 0.0
H789 H 0.5943 0.40632 0.48259 0.0
H790 H 0.63522 0.41789 0.50078 0.0
H791 H 0.64618 0.45447 0.48068 0.0
H792 H 0.76548 0.46038 0.52913 0.0
H793 H 0.77884 0.55695 0.48754 0.0
H794 H 0.71173 0.37012 0.49704 0.0
H795 H 0.67621 0.37884 0.51217 0.0
H796 H 0.72624 0.38717 0.52218 0.0
H797 H 0.72903 0.48276 0.44613 0.0
H798 H 0.75754 0.53812 0.45385 0.0
H799 H 0.70104 0.50525 0.45869 0.0
C800 C 0.4354 0.66961 0.8577 0.0
C801 C 0.43784 0.64431 0.84269 0.0
C802 C 0.39595 0.66645 0.86234 0.0
C803 C 0.35873 0.63654 0.85203 0.0
C804 C 0.36296 0.61782 0.83449 0.0
C805 C 0.4029 0.6221 0.82993 0.0
C806 C 0.39298 0.68936 0.88031 0.0
C807 C 0.32422 0.58703 0.8226 0.0
C808 C 0.27133 0.5577 0.88586 0.0
C809 C 0.23962 0.56878 0.88343 0.0
C810 C 0.31014 0.57969 0.87562 0.0
C811 C 0.31745 0.61411 0.86285 0.0
C812 C 0.28537 0.62562 0.86047 0.0
C813 C 0.24646 0.6025 0.87081 0.0
C814 C 0.34321 0.56583 0.8785 0.0
C815 C 0.29229 0.66278 0.84754 0.0
H816 H 0.46293 0.68782 0.8672 0.0
H817 H 0.405 0.6031 0.81807 0.0
H818 H 0.36791 0.69846 0.87833 0.0
H819 H 0.38401 0.66764 0.89328 0.0
H820 H 0.42422 0.71863 0.88348 0.0
H821 H 0.3334 0.58333 0.8074 0.0
H822 H 0.3086 0.55507 0.82989 0.0
H823 H 0.30029 0.59787 0.82175 0.0
H824 H 0.2655 0.53149 0.89571 0.0
H825 H 0.22159 0.611 0.86923 0.0
H826 H 0.37285 0.5924 0.88507 0.0
H827 H 0.35199 0.55784 0.86409 0.0
H828 H 0.33148 0.53738 0.88834 0.0
H829 H 0.31053 0.693 0.85598 0.0
H830 H 0.26127 0.65993 0.84294 0.0
H831 H 0.31125 0.66548 0.83417 0.0
C832 C 0.8471 0.42536 0.12394 0.0
C833 C 0.86999 0.41214 0.13611 0.0
C834 C 0.80673 0.41904 0.12977 0.0
C835 C 0.7891 0.39888 0.14809 0.0
C836 C 0.81285 0.38671 0.16061 0.0
C837 C 0.85287 0.39356 0.15447 0.0
C838 C 0.78305 0.4339 0.11644 0.0
C839 C 0.79553 0.36523 0.18035 0.0
C840 C 0.69606 0.38303 0.17909 0.0
C841 C 0.66892 0.33865 0.17647 0.0
C842 C 0.73343 0.406 0.16758 0.0
C843 C 0.74364 0.38393 0.15328 0.0
C844 C 0.71282 0.34143 0.14829 0.0
C845 C 0.67614 0.3193 0.15997 0.0
C846 C 0.76427 0.45233 0.17241 0.0
C847 C 0.7217 0.3167 0.13282 0.0
H848 H 0.86059 0.44028 0.10983 0.0
H849 H 0.87112 0.38469 0.16423 0.0
H850 H 0.75014 0.4072 0.11335 0.0
H851 H 0.77961 0.45933 0.12396 0.0
H852 H 0.80002 0.44686 0.1022 0.0
H853 H 0.81876 0.35905 0.18851 0.0
H854 H 0.78767 0.38561 0.18968 0.0
H855 H 0.7655 0.33412 0.1782 0.0
H856 H 0.69008 0.39921 0.19106 0.0
H857 H 0.65621 0.28535 0.15723 0.0
H858 H 0.78741 0.45394 0.1837 0.0
H859 H 0.74705 0.46812 0.17857 0.0
H860 H 0.78268 0.47047 0.1592 0.0
H861 H 0.73744 0.33686 0.11965 0.0
H862 H 0.69178 0.28756 0.12804 0.0
H863 H 0.74375 0.30644 0.13904 0.0
C864 C 0.11124 0.56491 0.09732 0.0
C865 C 1.10042 0.58697 0.11092 0.0
C866 C 1.08731 0.54847 0.07999 0.0
C867 C 1.05108 0.55342 0.07646 0.0
C868 C 1.03943 0.57486 0.09047 0.0
C869 C 1.06479 0.59209 0.10741 0.0
C870 C 1.10131 0.52647 0.06527 0.0
C871 C 0.99991 0.57892 0.08779 0.0
C872 C 1.02984 0.55236 0.02201 0.0
C873 C 1.00246 0.50841 0.01869 0.0
C874 C 1.04332 0.56814 0.04108 0.0
C875 C 1.02828 0.53933 0.05725 0.0
C876 C 0.99661 0.49582 0.05419 0.0
C877 C 0.98413 0.48071 0.03483 0.0
C878 C 1.07697 0.61479 0.04363 0.0
C879 C 0.97807 0.46479 0.07124 0.0
H880 H 0.13877 0.56095 0.10017 0.0
H881 H 1.05605 0.60857 0.11818 0.0
H882 H 1.07488 0.49316 0.06274 0.0
H883 H 0.10871 0.54361 0.0509 0.0
H884 H 0.13017 0.5253 0.07026 0.0
H885 H 0.99744 0.59967 0.0992 0.0
H886 H 0.99983 0.5922 0.07301 0.0
H887 H 0.97084 0.54663 0.08876 0.0
H888 H 1.04342 0.57391 0.00949 0.0
H889 H 0.96266 0.44678 0.03228 0.0
H890 H 0.10799 0.61722 0.04783 0.0
H891 H 1.06776 0.62943 0.05564 0.0
H892 H 1.08202 0.63373 0.02991 0.0
H893 H 1.00398 0.46274 0.07921 0.0
H894 H 0.95356 0.43208 0.06641 0.0
H895 H 0.9629 0.47665 0.0818 0.0
C896 C 0.61139 0.13854 0.43636 0.0
C897 C 0.61685 0.10279 0.43794 0.0
C898 C 0.60927 0.15498 0.41783 0.0
C899 C 0.6128 0.13501 0.40055 0.0
C900 C 0.61974 0.09963 0.40217 0.0
C901 C 0.62202 0.08416 0.42089 0.0
C902 C 0.60238 0.19302 0.41692 0.0
C903 C 0.62408 0.07763 0.38411 0.0
C904 C 0.56296 0.13484 0.35147 0.0
C905 C 0.59944 0.16149 0.34019 0.0
C906 C 0.56641 0.1287 0.37166 0.0
C907 C 0.60743 0.14933 0.38067 0.0
C908 C 0.64383 0.17918 0.36968 0.0
C909 C 0.63938 0.18498 0.34947 0.0
C910 C 0.52668 0.09747 0.38297 0.0
C911 C 0.68794 0.20241 0.3789 0.0
H912 H 0.60995 0.15444 0.44957 0.0
H913 H 0.62716 1.05702 0.42223 0.0
H914 H 0.61231 0.21165 0.43086 0.0
H915 H 0.62037 0.21483 0.40451 0.0
H916 H 0.5677 0.18142 0.41459 0.0
H917 H 0.63076 1.05148 0.38793 0.0
H918 H 0.594 1.06381 0.37534 0.0
H919 H 0.65046 0.10126 0.37457 0.0
H920 H 0.53206 0.11681 0.34421 0.0
H921 H 0.66758 0.2054 0.34067 0.0
H922 H 0.52489 0.1117 0.39717 0.0
H923 H 0.5283 1.06814 0.38644 0.0
H924 H 0.49677 0.08794 0.37449 0.0
H925 H 0.68675 0.2162 0.39334 0.0
H926 H 0.71167 0.22858 0.36926 0.0
H927 H 0.69934 0.17934 0.38166 0.0
C928 C 0.67776 0.62413 0.76488 0.0
C929 C 0.64271 0.58617 0.77198 0.0
C930 C 0.69604 0.62538 0.74648 0.0
C931 C 0.67791 0.58807 0.73465 0.0
C932 C 0.64142 0.55003 0.74144 0.0
C933 C 0.62438 0.54944 0.76015 0.0
C934 C 0.73529 0.66642 0.73989 0.0
C935 C 0.6207 0.50992 0.72903 0.0
C936 C 0.7064 0.60899 0.6804 0.0
C937 C 0.73917 0.59889 0.67886 0.0
C938 C 0.68487 0.60384 0.69831 0.0
C939 C 0.69727 0.58926 0.71514 0.0
C940 C 0.73003 0.57841 0.71356 0.0
C941 C 0.75031 0.58289 0.6953 0.0
C942 C 0.64956 0.61493 0.69932 0.0
C943 C 0.7447 0.56361 0.7313 0.0
H944 H 0.69161 0.65271 0.77393 0.0
H945 H 0.5971 0.52011 0.76562 0.0
H946 H 0.76225 0.66042 0.73709 0.0
H947 H 0.72853 0.67783 0.72584 0.0
H948 H 0.7458 0.69234 0.75101 0.0
H949 H 0.59148 0.48356 0.73612 0.0
H950 H 0.61174 0.51699 0.7144 0.0
H951 H 0.64389 0.49864 0.72642 0.0
H952 H 0.69776 0.6211 0.66755 0.0
H953 H 0.77585 0.57529 0.69399 0.0
H954 H 0.65967 0.6432 0.70898 0.0
H955 H 0.62015 0.58792 0.70591 0.0
H956 H 0.64142 0.62239 0.68456 0.0
H957 H 0.75824 0.5894 0.74254 0.0
H958 H 0.76951 0.55504 0.72745 0.0
H959 H 0.717 0.53531 0.7382 0.0
C960 C 0.63383 0.10882 0.5553 0.0
C961 C 0.59289 0.08038 0.54781 0.0
C962 C 0.64184 0.11195 0.57572 0.0
C963 C 0.60847 0.08497 0.58891 0.0
C964 C 0.56771 1.05458 0.58126 0.0
C965 C 0.5602 1.05321 0.56083 0.0
C966 C 0.68535 0.14563 0.58323 0.0
C967 C 0.53168 1.02421 0.59469 0.0
C968 C 0.63946 0.07516 0.64181 0.0
C969 C 0.6278 0.10159 0.6522 0.0
C970 C 0.63274 1.06885 0.62133 0.0
C971 C 0.61526 0.09054 0.61072 0.0
C972 C 0.60401 0.11768 0.62099 0.0
C973 C 0.6096 0.12219 0.64153 0.0
C974 C 0.64413 1.03873 0.61104 0.0
C975 C 0.58606 0.14215 0.61025 0.0
H976 H 0.6591 0.1301 0.54526 0.0
H977 H 0.5286 1.03105 0.55502 0.0
H978 H 0.68181 0.16944 0.59218 0.0
H979 H 0.69919 0.13084 0.59298 0.0
H980 H 0.70837 0.16283 0.57105 0.0
H981 H 0.50364 0.9995 0.58632 0.0
H982 H 0.54313 1.00786 0.60489 0.0
H983 H 0.52084 1.04247 0.60386 0.0
H984 H 0.65423 1.05952 0.64959 0.0
H985 H 0.59919 0.14173 0.64921 0.0
H986 H 0.66969 1.0566 0.59995 0.0
H987 H 0.61571 1.01375 0.60301 0.0
H988 H 0.6555 1.02269 0.6215 0.0
H989 H 0.60808 0.16155 0.59814 0.0
H990 H 0.58129 0.1639 0.62017 0.0
H991 H 0.55472 0.11939 0.60346 0.0
C992 C 0.63945 0.57882 0.88753 0.0
C993 C 0.67459 0.61613 0.87988 0.0
C994 C 0.63058 0.57415 0.90791 0.0
C995 C 0.65806 0.6072 0.92101 0.0
C996 C 0.69387 0.64474 0.91333 0.0
C997 C 0.70148 0.64887 0.89288 0.0
C998 C 0.59172 0.5339 0.9154 0.0
C999 C 0.72435 0.68049 0.92675 0.0
C1000 C 0.61832 0.61562 0.97207 0.0
C1001 C 0.63565 0.59629 0.98422 0.0
C1002 C 0.62463 0.61861 0.9515 0.0
C1003 C 0.64956 0.60261 0.94275 0.0
C1004 C 0.66719 0.58311 0.95486 0.0
C1005 C 0.65975 0.57986 0.97534 0.0
C1006 C 0.60485 0.63925 0.93914 0.0
C1007 C 0.69429 0.56596 0.94619 0.0
H1008 H 0.61875 0.55325 0.87758 0.0
H1009 H 0.7288 0.67772 0.88706 0.0
H1010 H 0.60189 0.51677 0.92579 0.0
H1011 H 0.57039 0.54237 0.92368 0.0
H1012 H 0.57295 0.51171 0.90327 0.0
H1013 H 0.75105 0.70729 0.91851 0.0
H1014 H 0.70668 0.69335 0.93505 0.0
H1015 H 0.73824 0.66793 0.93775 0.0
H1016 H 0.60027 0.62913 0.97863 0.0
H1017 H 0.67266 0.56408 0.98439 0.0
H1018 H 0.58477 0.61704 0.92729 0.0
H1019 H 0.63054 0.66856 0.93187 0.0
H1020 H 0.58461 0.64822 0.94802 0.0
H1021 H 0.67545 0.54097 0.93508 0.0
H1022 H 0.70593 0.55193 0.95759 0.0
H1023 H 0.72252 0.59213 0.93847 0.0
C1024 C 0.12022 0.50846 0.22489 0.0
C1025 C 0.11354 0.53696 0.21332 0.0
C1026 C 0.12247 0.51184 0.24559 0.0
C1027 C 0.11906 0.54521 0.2549 0.0
C1028 C 0.11272 0.57431 0.24322 0.0
C1029 C 0.10915 0.56927 0.22263 0.0
C1030 C 0.12801 0.47942 0.25752 0.0
C1031 C 0.10993 0.61095 0.25244 0.0
C1032 C 1.08703 0.53657 0.30903 0.0
C1033 C 0.12703 0.56042 0.31846 0.0
C1034 C 1.08407 0.53042 0.28849 0.0
C1035 C 0.12188 0.54964 0.27685 0.0
C1036 C 0.16232 0.57387 0.28615 0.0
C1037 C 0.16445 0.57834 0.30679 0.0
C1038 C 1.04034 0.50361 0.27921 0.0
C1039 C 0.20338 0.59567 0.27426 0.0
H1040 H 0.12318 0.48314 0.21779 0.0
H1041 H 1.10302 0.59082 0.21382 0.0
H1042 H 0.15819 0.49582 0.26618 0.0
H1043 H 1.10115 0.46311 0.2682 0.0
H1044 H 0.12898 0.45473 0.2481 0.0
H1045 H 0.10711 0.632 0.24123 0.0
H1046 H 1.08169 0.59826 0.2624 0.0
H1047 H 0.13892 0.6307 0.26154 0.0
H1048 H 1.05771 0.52316 0.31762 0.0
H1049 H 0.19568 0.59596 0.31373 0.0
H1050 H 1.04001 0.47807 0.26996 0.0
H1051 H 1.03313 0.52392 0.26938 0.0
H1052 H 1.01435 0.48836 0.2904 0.0
H1053 H 0.20739 0.57148 0.26591 0.0
H1054 H 0.2322 0.6142 0.28366 0.0
H1055 H 0.20177 0.61783 0.26331 0.0
loop_
_geom_bond_atom_site_label_1
_geom_bond_atom_site_label_2
_geom_bond_distance
_geom_bond_site_symmetry_2
_ccdc_geom_bond_type
Tb0 C2 2.809 . S
Tb0 O20 2.484 . S
Tb0 O21 2.440 . S
Tb0 O22 2.658 . S
Tb0 O23 2.409 . S
Tb0 O24 2.378 . S
Tb0 O28 2.325 . S
Tb0 O31 2.341 1_455 S
Tb1 C11 2.809 . S
Tb1 O22 2.325 1_655 S
Tb1 O25 2.341 1_655 S
Tb1 O26 2.484 . S
Tb1 O27 2.440 . S
Tb1 O28 2.658 1_655 S
Tb1 O29 2.409 1_655 S
Tb1 O30 2.378 . S
C2 Tb0 2.809 . S
C2 C3 1.514 . S
C2 O20 1.248 . S
C2 O21 1.266 . S
C3 C2 1.514 . S
C3 C4 1.359 . S
C3 C8 1.348 . S
C4 C3 1.359 . S
C4 C5 1.380 . S
C4 H32 0.929 . S
C5 C4 1.380 . S
C5 C6 1.347 . S
C5 H33 0.931 . S
C6 C5 1.347 . S
C6 C7 1.369 . S
C7 C6 1.369 . S
C7 C8 1.408 . S
C7 H34 0.930 . S
C8 C3 1.348 . S
C8 C7 1.408 . S
C8 H35 0.930 . S
C9 O22 1.281 . S
C9 O23 1.254 . S
C10 O24 1.236 . S
C10 O25 1.266 . S
C11 Tb1 2.809 . S
C11 C12 1.514 . S
C11 O26 1.248 . S
C11 O27 1.266 . S
C12 C11 1.514 . S
C12 C13 1.359 . S
C12 C17 1.348 . S
C13 C12 1.359 . S
C13 C14 1.380 . S
C13 H36 0.929 . S
C14 C13 1.380 . S
C14 C15 1.347 . S
C14 H37 0.931 . S
C15 C14 1.347 . S
C15 C16 1.369 . S
C16 C15 1.369 . S
C16 C17 1.408 . S
C16 H38 0.930 . S
C17 C12 1.348 . S
C17 C16 1.408 . S
C17 H39 0.930 . S
C18 O28 1.281 . S
C18 O29 1.254 . S
C19 O30 1.236 . S
C19 O31 1.266 . S
O20 Tb0 2.484 . S
O20 C2 1.248 . S
O21 Tb0 2.440 . S
O21 C2 1.266 . S
O22 Tb0 2.658 . S
O22 Tb1 2.325 1_455 S
O22 C9 1.281 . S
O23 Tb0 2.409 . S
O23 C9 1.254 . S
O24 Tb0 2.378 . S
O24 C10 1.236 . S
O25 Tb1 2.341 1_455 S
O25 C10 1.266 . S
O26 Tb1 2.484 . S
O26 C11 1.248 . S
O27 Tb1 2.440 . S
O27 C11 1.266 . S
O28 Tb0 2.325 . S
O28 Tb1 2.658 1_455 S
O28 C18 1.281 . S
O29 Tb1 2.409 1_455 S
O29 C18 1.254 . S
O30 Tb1 2.378 . S
O30 C19 1.236 . S
O31 Tb0 2.341 1_655 S
O31 C19 1.266 . S
H32 C4 0.929 . S
H33 C5 0.931 . S
H34 C7 0.930 . S
H35 C8 0.930 . S
H36 C13 0.929 . S
H37 C14 0.931 . S
H38 C16 0.930 . S
H39 C17 0.930 . S
Tb40 C42 2.786 1_545 S
Tb40 O60 2.466 1_545 S
Tb40 O61 2.419 1_545 S
Tb40 O62 2.677 . S
Tb40 O63 2.413 . S
Tb40 O64 2.375 1_545 S
Tb40 O68 2.336 . S
Tb40 O71 2.360 . S
Tb41 C51 2.809 . S
Tb41 O62 2.325 . S
Tb41 O65 2.341 1_545 S
Tb41 O66 2.484 . S
Tb41 O67 2.440 . S
Tb41 O68 2.658 . S
Tb41 O69 2.409 . S
Tb41 O70 2.378 . S
C42 Tb40 2.786 1_565 S
C42 C43 1.514 . S
C42 O60 1.248 . S
C42 O61 1.266 . S
C43 C42 1.514 . S
C43 C44 1.359 . S
C43 C48 1.348 . S
C44 C43 1.359 . S
C44 C45 1.380 . S
C44 H72 0.929 . S
C45 C44 1.380 . S
C45 C46 1.347 . S
C45 H73 0.931 . S
C46 C45 1.347 . S
C46 C47 1.369 . S
C47 C46 1.369 . S
C47 C48 1.408 . S
C47 H74 0.930 . S
C48 C43 1.348 . S
C48 C47 1.408 . S
C48 H75 0.930 . S
C49 O62 1.281 . S
C49 O63 1.254 . S
C50 O64 1.236 . S
C50 O65 1.266 . S
C51 Tb41 2.809 . S
C51 C52 1.514 . S
C51 O66 1.248 . S
C51 O67 1.266 . S
C52 C51 1.514 . S
C52 C53 1.359 . S
C52 C57 1.348 . S
C53 C52 1.359 . S
C53 C54 1.380 . S
C53 H76 0.929 . S
C54 C53 1.380 . S
C54 C55 1.347 . S
C54 H77 0.931 . S
C55 C54 1.347 . S
C55 C56 1.369 . S
C56 C55 1.369 . S
C56 C57 1.408 . S
C56 H78 0.930 . S
C57 C52 1.348 . S
C57 C56 1.408 . S
C57 H79 0.930 . S
C58 O68 1.281 . S
C58 O69 1.254 . S
C59 O70 1.236 . S
C59 O71 1.266 . S
O60 Tb40 2.466 1_565 S
O60 C42 1.248 . S
O61 Tb40 2.419 1_565 S
O61 C42 1.266 . S
O62 Tb40 2.677 . S
O62 Tb41 2.325 . S
O62 C49 1.281 . S
O63 Tb40 2.413 . S
O63 C49 1.254 . S
O64 Tb40 2.375 1_565 S
O64 C50 1.236 . S
O65 Tb41 2.341 1_565 S
O65 C50 1.266 . S
O66 Tb41 2.484 . S
O66 C51 1.248 . S
O67 Tb41 2.440 . S
O67 C51 1.266 . S
O68 Tb40 2.336 . S
O68 Tb41 2.658 . S
O68 C58 1.281 . S
O69 Tb41 2.409 . S
O69 C58 1.254 . S
O70 Tb41 2.378 . S
O70 C59 1.236 . S
O71 Tb40 2.360 . S
O71 C59 1.266 . S
H72 C44 0.929 . S
H73 C45 0.931 . S
H74 C47 0.930 . S
H75 C48 0.930 . S
H76 C53 0.929 . S
H77 C54 0.931 . S
H78 C56 0.930 . S
H79 C57 0.930 . S
Tb80 C82 2.809 . S
Tb80 O100 2.484 . S
Tb80 O101 2.440 . S
Tb80 O102 2.658 . S
Tb80 O103 2.409 . S
Tb80 O104 2.378 . S
Tb80 O108 2.325 . S
Tb80 O111 2.341 . S
Tb81 C91 2.809 . S
Tb81 O102 2.325 . S
Tb81 O105 2.341 . S
Tb81 O106 2.484 . S
Tb81 O107 2.440 . S
Tb81 O108 2.658 . S
Tb81 O109 2.409 . S
Tb81 O110 2.378 . S
C82 Tb80 2.809 . S
C82 C83 1.514 . S
C82 O100 1.248 . S
C82 O101 1.266 . S
C83 C82 1.514 . S
C83 C84 1.359 . S
C83 C88 1.348 . S
C84 C83 1.359 . S
C84 C85 1.380 . S
C84 H112 0.929 . S
C85 C84 1.380 . S
C85 C86 1.347 . S
C85 H113 0.931 . S
C86 C85 1.347 . S
C86 C87 1.369 . S
C87 C86 1.369 . S
C87 C88 1.408 . S
C87 H114 0.930 . S
C88 C83 1.348 . S
C88 C87 1.408 . S
C88 H115 0.930 . S
C89 O102 1.281 . S
C89 O103 1.254 . S
C90 O104 1.236 . S
C90 O105 1.266 . S
C91 Tb81 2.809 . S
C91 C92 1.514 . S
C91 O106 1.248 . S
C91 O107 1.266 . S
C92 C91 1.514 . S
C92 C93 1.359 . S
C92 C97 1.348 . S
C93 C92 1.359 . S
C93 C94 1.380 . S
C93 H116 0.929 . S
C94 C93 1.380 . S
C94 C95 1.347 . S
C94 H117 0.931 . S
C95 C94 1.347 . S
C95 C96 1.369 . S
C96 C95 1.369 . S
C96 C97 1.408 . S
C96 H118 0.930 . S
C97 C92 1.348 . S
C97 C96 1.408 . S
C97 H119 0.930 . S
C98 O108 1.281 . S
C98 O109 1.254 . S
C99 O110 1.236 . S
C99 O111 1.266 . S
O100 Tb80 2.484 . S
O100 C82 1.248 . S
O101 Tb80 2.440 . S
O101 C82 1.266 . S
O102 Tb80 2.658 . S
O102 Tb81 2.325 . S
O102 C89 1.281 . S
O103 Tb80 2.409 . S
O103 C89 1.254 . S
O104 Tb80 2.378 . S
O104 C90 1.236 . S
O105 Tb81 2.341 . S
O105 C90 1.266 . S
O106 Tb81 2.484 . S
O106 C91 1.248 . S
O107 Tb81 2.440 . S
O107 C91 1.266 . S
O108 Tb80 2.325 . S
O108 Tb81 2.658 . S
O108 C98 1.281 . S
O109 Tb81 2.409 . S
O109 C98 1.254 . S
O110 Tb81 2.378 . S
O110 C99 1.236 . S
O111 Tb80 2.341 . S
O111 C99 1.266 . S
H112 C84 0.929 . S
H113 C85 0.931 . S
H114 C87 0.930 . S
H115 C88 0.930 . S
H116 C93 0.929 . S
H117 C94 0.931 . S
H118 C96 0.930 . S
H119 C97 0.930 . S
C120 C121 1.391 . S
C120 C124 1.391 . S
C120 H162 0.948 . S
C121 C120 1.391 . S
C121 C122 1.391 . S
C122 C121 1.391 . S
C122 H178 0.947 . S
C122 C179 1.392 . S
C123 C124 1.391 . S
C123 C127 1.397 . S
C123 C179 1.419 . S
C124 C120 1.391 . S
C124 C123 1.391 . S
C124 C125 1.399 . S
C125 C124 1.399 . S
C125 C128 1.396 . S
C125 C137 1.453 . S
C125 C138 1.684 . S
H126 C150 0.948 . S
C127 C123 1.397 . S
C127 C128 1.394 . S
C127 C146 1.723 . S
C128 C125 1.396 . S
C128 C127 1.394 . S
C128 C158 1.723 . S
H129 C152 0.947 . S
H130 C153 0.948 1_545 S
H131 C159 0.982 . S
H132 C160 0.979 . S
H133 C160 0.980 . S
H134 C160 0.983 . S
H135 C159 0.979 . S
H136 C159 0.977 . S
C137 C125 1.453 . S
C137 H166 0.982 . S
C137 H167 0.979 . S
C137 H168 0.977 . S
C138 C125 1.684 . S
C138 H163 0.979 . S
C138 H164 0.980 . S
C138 H165 0.983 . S
C139 C140 1.391 . S
C139 C144 1.391 . S
C139 H169 0.948 . S
C140 C139 1.391 . S
C140 C141 1.391 . S
C141 C140 1.391 . S
C141 C142 1.392 . S
C141 H170 0.947 1_545 S
C142 C141 1.392 . S
C142 C143 1.419 . S
C142 H171 0.948 1_545 S
C143 C142 1.419 . S
C143 C144 1.391 . S
C143 C147 1.397 . S
C144 C139 1.391 . S
C144 C143 1.391 . S
C144 C145 1.399 . S
C145 C144 1.399 . S
C145 C146 1.396 . S
C145 C148 1.453 . S
C145 C149 1.684 . S
C146 C127 1.723 . S
C146 C145 1.396 . S
C146 C147 1.394 . S
C147 C143 1.397 . S
C147 C146 1.394 . S
C147 C157 1.723 . S
C148 C145 1.453 . S
C148 H172 0.982 . S
C148 H173 0.979 . S
C148 H174 0.977 . S
C149 C145 1.684 . S
C149 H175 0.979 . S
C149 H176 0.980 . S
C149 H177 0.983 . S
C150 H126 0.948 . S
C150 C151 1.391 . S
C150 C155 1.391 . S
C151 C150 1.391 . S
C151 C152 1.391 . S
C152 H129 0.947 . S
C152 C151 1.391 . S
C152 C153 1.392 . S
C153 H130 0.948 1_565 S
C153 C152 1.392 . S
C153 C154 1.419 . S
C154 C153 1.419 . S
C154 C155 1.391 . S
C154 C158 1.397 1_565 S
C155 C150 1.391 . S
C155 C154 1.391 . S
C155 C156 1.399 . S
C156 C155 1.399 . S
C156 C157 1.396 1_565 S
C156 C159 1.453 . S
C156 C160 1.684 . S
C157 C147 1.723 . S
C157 C156 1.396 1_545 S
C157 C158 1.394 . S
C158 C128 1.723 . S
C158 C154 1.397 1_545 S
C158 C157 1.394 . S
C159 H131 0.982 . S
C159 H135 0.979 . S
C159 H136 0.977 . S
C159 C156 1.453 . S
C160 H132 0.979 . S
C160 H133 0.980 . S
C160 H134 0.983 . S
C160 C156 1.684 . S
H161 C179 0.948 . S
H162 C120 0.948 . S
H163 C138 0.979 . S
H164 C138 0.980 . S
H165 C138 0.983 . S
H166 C137 0.982 . S
H167 C137 0.979 . S
H168 C137 0.977 . S
H169 C139 0.948 . S
H170 C141 0.947 1_565 S
H171 C142 0.948 1_565 S
H172 C148 0.982 . S
H173 C148 0.979 . S
H174 C148 0.977 . S
H175 C149 0.979 . S
H176 C149 0.980 . S
H177 C149 0.983 . S
H178 C122 0.947 . S
C179 C122 1.392 . S
C179 C123 1.419 . S
C179 H161 0.948 . S
C180 C181 1.391 . S
C180 C184 1.391 . S
C180 H222 0.948 . S
C181 C180 1.391 . S
C181 C182 1.391 . S
C182 C181 1.391 . S
C182 H238 0.947 . S
C182 C239 1.392 . S
C183 C184 1.391 . S
C183 C187 1.397 . S
C183 C239 1.419 . S
C184 C180 1.391 . S
C184 C183 1.391 . S
C184 C185 1.399 . S
C185 C184 1.399 . S
C185 C188 1.396 . S
C185 C197 1.453 . S
C185 C198 1.684 . S
H186 C210 0.948 . S
C187 C183 1.397 . S
C187 C188 1.394 . S
C187 C206 1.723 . S
C188 C185 1.396 . S
C188 C187 1.394 . S
C188 C218 1.723 . S
H189 C212 0.947 . S
H190 C213 0.948 . S
H191 C219 0.982 . S
H192 C220 0.979 . S
H193 C220 0.980 . S
H194 C220 0.983 . S
H195 C219 0.979 . S
H196 C219 0.977 . S
C197 C185 1.453 . S
C197 H226 0.982 . S
C197 H227 0.979 . S
C197 H228 0.977 . S
C198 C185 1.684 . S
C198 H223 0.979 . S
C198 H224 0.980 . S
C198 H225 0.983 . S
C199 C200 1.391 . S
C199 C204 1.391 . S
C199 H229 0.948 . S
C200 C199 1.391 . S
C200 C201 1.391 . S
C201 C200 1.391 . S
C201 C202 1.392 . S
C201 H230 0.947 . S
C202 C201 1.392 . S
C202 C203 1.419 . S
C202 H231 0.948 . S
C203 C202 1.419 . S
C203 C204 1.391 . S
C203 C207 1.397 . S
C204 C199 1.391 . S
C204 C203 1.391 . S
C204 C205 1.399 . S
C205 C204 1.399 . S
C205 C206 1.396 . S
C205 C208 1.453 . S
C205 C209 1.684 . S
C206 C187 1.723 . S
C206 C205 1.396 . S
C206 C207 1.394 . S
C207 C203 1.397 . S
C207 C206 1.394 . S
C207 C217 1.723 . S
C208 C205 1.453 . S
C208 H232 0.982 . S
C208 H233 0.979 . S
C208 H234 0.977 . S
C209 C205 1.684 . S
C209 H235 0.979 . S
C209 H236 0.980 . S
C209 H237 0.983 . S
C210 H186 0.948 . S
C210 C211 1.391 . S
C210 C215 1.391 . S
C211 C210 1.391 . S
C211 C212 1.391 . S
C212 H189 0.947 . S
C212 C211 1.391 . S
C212 C213 1.392 . S
C213 H190 0.948 . S
C213 C212 1.392 . S
C213 C214 1.419 . S
C214 C213 1.419 . S
C214 C215 1.391 . S
C214 C218 1.397 . S
C215 C210 1.391 . S
C215 C214 1.391 . S
C215 C216 1.399 . S
C216 C215 1.399 . S
C216 C217 1.396 . S
C216 C219 1.453 . S
C216 C220 1.684 . S
C217 C207 1.723 . S
C217 C216 1.396 . S
C217 C218 1.394 . S
C218 C188 1.723 . S
C218 C214 1.397 . S
C218 C217 1.394 . S
C219 H191 0.982 . S
C219 H195 0.979 . S
C219 H196 0.977 . S
C219 C216 1.453 . S
C220 H192 0.979 . S
C220 H193 0.980 . S
C220 H194 0.983 . S
C220 C216 1.684 . S
H221 C239 0.948 . S
H222 C180 0.948 . S
H223 C198 0.979 . S
H224 C198 0.980 . S
H225 C198 0.983 . S
H226 C197 0.982 . S
H227 C197 0.979 . S
H228 C197 0.977 . S
H229 C199 0.948 . S
H230 C201 0.947 . S
H231 C202 0.948 . S
H232 C208 0.982 . S
H233 C208 0.979 . S
H234 C208 0.977 . S
H235 C209 0.979 . S
H236 C209 0.980 . S
H237 C209 0.983 . S
H238 C182 0.947 . S
C239 C182 1.392 . S
C239 C183 1.419 . S
C239 H221 0.948 . S
C240 C241 1.391 . S
C240 C244 1.391 . S
C240 H282 0.948 . S
C241 C240 1.391 . S
C241 C242 1.391 . S
C242 C241 1.391 . S
C242 H298 0.947 . S
C242 C299 1.392 . S
C243 C244 1.391 . S
C243 C247 1.397 . S
C243 C299 1.419 . S
C244 C240 1.391 . S
C244 C243 1.391 . S
C244 C245 1.399 . S
C245 C244 1.399 . S
C245 C248 1.396 . S
C245 C257 1.453 . S
C245 C258 1.684 . S
H246 C270 0.948 . S
C247 C243 1.397 . S
C247 C248 1.394 . S
C247 C266 1.723 . S
C248 C245 1.396 . S
C248 C247 1.394 . S
C248 C278 1.723 1_455 S
H249 C272 0.947 . S
H250 C273 0.948 . S
H251 C279 0.982 . S
H252 C280 0.979 . S
H253 C280 0.980 . S
H254 C280 0.983 . S
H255 C279 0.979 . S
H256 C279 0.977 . S
C257 C245 1.453 . S
C257 H286 0.978 . S
C257 H287 0.979 . S
C257 H288 0.977 1_455 S
C258 C245 1.684 . S
C258 H283 0.979 . S
C258 H284 0.980 . S
C258 H285 0.983 . S
C259 C260 1.391 . S
C259 C264 1.391 . S
C259 H289 0.948 . S
C260 C259 1.391 . S
C260 C261 1.391 1_455 S
C261 C260 1.391 1_655 S
C261 C262 1.392 . S
C261 H290 0.947 . S
C262 C261 1.392 . S
C262 C263 1.419 . S
C262 H291 0.948 . S
C263 C262 1.419 . S
C263 C264 1.391 1_655 S
C263 C267 1.397 . S
C264 C259 1.391 . S
C264 C263 1.391 1_455 S
C264 C265 1.399 . S
C265 C264 1.399 . S
C265 C266 1.396 . S
C265 C268 1.453 . S
C265 C269 1.684 . S
C266 C247 1.723 . S
C266 C265 1.396 . S
C266 C267 1.394 1_455 S
C267 C263 1.397 . S
C267 C266 1.394 1_655 S
C267 C277 1.723 . S
C268 C265 1.453 . S
C268 H292 0.982 . S
C268 H293 0.979 . S
C268 H294 0.977 . S
C269 C265 1.684 . S
C269 H295 0.979 . S
C269 H296 0.980 . S
C269 H297 0.983 . S
C270 H246 0.948 . S
C270 C271 1.391 . S
C270 C275 1.391 . S
C271 C270 1.391 . S
C271 C272 1.391 . S
C272 H249 0.947 . S
C272 C271 1.391 . S
C272 C273 1.392 . S
C273 H250 0.948 . S
C273 C272 1.392 . S
C273 C274 1.419 . S
C274 C273 1.419 . S
C274 C275 1.391 . S
C274 C278 1.397 . S
C275 C270 1.391 . S
C275 C274 1.391 . S
C275 C276 1.399 . S
C276 C275 1.399 . S
C276 C277 1.396 . S
C276 C279 1.453 . S
C276 C280 1.684 . S
C277 C267 1.723 . S
C277 C276 1.396 . S
C277 C278 1.394 . S
C278 C248 1.723 1_655 S
C278 C274 1.397 . S
C278 C277 1.394 . S
C279 H251 0.982 . S
C279 H255 0.979 . S
C279 H256 0.977 . S
C279 C276 1.453 . S
C280 H252 0.979 . S
C280 H253 0.980 . S
C280 H254 0.983 . S
C280 C276 1.684 . S
H281 C299 0.948 . S
H282 C240 0.948 . S
H283 C258 0.979 . S
H284 C258 0.980 . S
H285 C258 0.983 . S
H286 C257 0.978 . S
H287 C257 0.979 . S
H288 C257 0.977 1_655 S
H289 C259 0.948 . S
H290 C261 0.947 . S
H291 C262 0.948 . S
H292 C268 0.982 . S
H293 C268 0.979 . S
H294 C268 0.977 . S
H295 C269 0.979 . S
H296 C269 0.980 . S
H297 C269 0.983 . S
H298 C242 0.947 . S
C299 C242 1.392 . S
C299 C243 1.419 . S
C299 H281 0.948 . S
C300 C301 1.391 . S
C300 C304 1.391 . S
C300 H342 0.948 . S
C301 C300 1.391 . S
C301 C302 1.391 . S
C302 C301 1.391 . S
C302 H358 0.947 . S
C302 C359 1.392 . S
C303 C304 1.391 . S
C303 C307 1.397 1_655 S
C303 C359 1.419 . S
C304 C300 1.391 . S
C304 C303 1.391 . S
C304 C305 1.399 1_655 S
C305 C304 1.399 1_455 S
C305 C308 1.396 . S
C305 C317 1.453 . S
C305 C318 1.684 . S
H306 C330 0.948 . S
C307 C303 1.397 1_455 S
C307 C308 1.394 . S
C307 C326 1.723 . S
C308 C305 1.396 . S
C308 C307 1.394 . S
C308 C338 1.723 . S
H309 C332 0.947 . S
H310 C333 0.948 . S
H311 C339 0.982 . S
H312 C340 0.979 . S
H313 C340 0.980 . S
H314 C340 0.983 . S
H315 C339 0.979 . S
H316 C339 0.977 . S
C317 C305 1.453 . S
C317 H346 0.982 . S
C317 H347 0.979 . S
C317 H348 0.977 . S
C318 C305 1.684 . S
C318 H343 0.956 1_455 S
C318 H344 0.980 . S
C318 H345 0.983 . S
C319 C320 1.391 . S
C319 C324 1.391 . S
C319 H349 0.948 1_455 S
C320 C319 1.391 . S
C320 C321 1.391 . S
C321 C320 1.391 . S
C321 C322 1.392 . S
C321 H350 0.947 . S
C322 C321 1.392 . S
C322 C323 1.419 . S
C322 H351 0.948 . S
C323 C322 1.419 . S
C323 C324 1.391 . S
C323 C327 1.397 . S
C324 C319 1.391 . S
C324 C323 1.391 . S
C324 C325 1.399 1_455 S
C325 C324 1.399 1_655 S
C325 C326 1.396 1_655 S
C325 C328 1.453 . S
C325 C329 1.684 . S
C326 C307 1.723 . S
C326 C325 1.396 1_455 S
C326 C327 1.394 . S
C327 C323 1.397 . S
C327 C326 1.394 . S
C327 C337 1.723 . S
C328 C325 1.453 . S
C328 H352 0.982 1_655 S
C328 H353 0.979 . S
C328 H354 0.977 . S
C329 C325 1.684 . S
C329 H355 0.979 . S
C329 H356 0.980 . S
C329 H357 0.983 . S
C330 H306 0.948 . S
C330 C331 1.391 . S
C330 C335 1.391 . S
C331 C330 1.391 . S
C331 C332 1.391 . S
C332 H309 0.947 . S
C332 C331 1.391 . S
C332 C333 1.392 . S
C333 H310 0.948 . S
C333 C332 1.392 . S
C333 C334 1.419 . S
C334 C333 1.419 . S
C334 C335 1.391 . S
C334 C338 1.397 . S
C335 C330 1.391 . S
C335 C334 1.391 . S
C335 C336 1.399 . S
C336 C335 1.399 . S
C336 C337 1.396 . S
C336 C339 1.453 . S
C336 C340 1.684 . S
C337 C327 1.723 . S
C337 C336 1.396 . S
C337 C338 1.394 . S
C338 C308 1.723 . S
C338 C334 1.397 . S
C338 C337 1.394 . S
C339 H311 0.982 . S
C339 H315 0.979 . S
C339 H316 0.977 . S
C339 C336 1.453 . S
C340 H312 0.979 . S
C340 H313 0.980 . S
C340 H314 0.983 . S
C340 C336 1.684 . S
H341 C359 0.948 . S
H342 C300 0.948 . S
H343 C318 0.956 1_655 S
H344 C318 0.980 . S
H345 C318 0.983 . S
H346 C317 0.982 . S
H347 C317 0.979 . S
H348 C317 0.977 . S
H349 C319 0.948 1_655 S
H350 C321 0.947 . S
H351 C322 0.948 . S
H352 C328 0.982 1_455 S
H353 C328 0.979 . S
H354 C328 0.977 . S
H355 C329 0.979 . S
H356 C329 0.980 . S
H357 C329 0.983 . S
H358 C302 0.947 . S
C359 C302 1.392 . S
C359 C303 1.419 . S
C359 H341 0.948 . S
C360 C361 1.391 . S
C360 C364 1.391 . S
C360 H402 0.948 . S
C361 C360 1.391 . S
C361 C362 1.391 . S
C362 C361 1.391 . S
C362 H418 0.947 . S
C362 C419 1.392 . S
C363 C364 1.391 . S
C363 C367 1.397 . S
C363 C419 1.419 . S
C364 C360 1.391 . S
C364 C363 1.391 . S
C364 C365 1.399 . S
C365 C364 1.399 . S
C365 C368 1.396 . S
C365 C377 1.453 . S
C365 C378 1.684 . S
H366 C390 0.948 . S
C367 C363 1.397 . S
C367 C368 1.394 . S
C367 C386 1.723 . S
C368 C365 1.396 . S
C368 C367 1.394 . S
C368 C398 1.723 1_565 S
H369 C392 0.947 . S
H370 C393 0.948 . S
H371 C399 0.982 . S
H372 C400 0.979 . S
H373 C400 0.980 . S
H374 C400 0.983 . S
H375 C399 0.979 . S
H376 C399 0.977 . S
C377 C365 1.453 . S
C377 H406 0.982 1_565 S
C377 H407 0.979 . S
C377 H408 0.977 1_565 S
C378 C365 1.684 . S
C378 H403 0.979 . S
C378 H404 0.980 . S
C378 H405 0.983 . S
C379 C380 1.391 1_565 S
C379 C384 1.391 . S
C379 H409 0.948 . S
C380 C379 1.391 1_545 S
C380 C381 1.391 . S
C381 C380 1.391 . S
C381 C382 1.392 . S
C381 H410 0.947 . S
C382 C381 1.392 . S
C382 C383 1.419 . S
C382 H411 0.948 . S
C383 C382 1.419 . S
C383 C384 1.391 1_545 S
C383 C387 1.397 . S
C384 C379 1.391 . S
C384 C383 1.391 1_565 S
C384 C385 1.399 . S
C385 C384 1.399 . S
C385 C386 1.396 . S
C385 C388 1.453 . S
C385 C389 1.684 . S
C386 C367 1.723 . S
C386 C385 1.396 . S
C386 C387 1.394 1_565 S
C387 C383 1.397 . S
C387 C386 1.394 1_545 S
C387 C397 1.723 . S
C388 C385 1.453 . S
C388 H412 0.982 . S
C388 H413 0.979 . S
C388 H414 0.977 . S
C389 C385 1.684 . S
C389 H415 0.979 . S
C389 H416 0.980 . S
C389 H417 0.983 . S
C390 H366 0.948 . S
C390 C391 1.391 . S
C390 C395 1.391 . S
C391 C390 1.391 . S
C391 C392 1.391 . S
C392 H369 0.947 . S
C392 C391 1.391 . S
C392 C393 1.392 . S
C393 H370 0.948 . S
C393 C392 1.392 . S
C393 C394 1.419 . S
C394 C393 1.419 . S
C394 C395 1.391 . S
C394 C398 1.397 . S
C395 C390 1.391 . S
C395 C394 1.391 . S
C395 C396 1.399 . S
C396 C395 1.399 . S
C396 C397 1.396 . S
C396 C399 1.453 . S
C396 C400 1.684 . S
C397 C387 1.723 . S
C397 C396 1.396 . S
C397 C398 1.394 . S
C398 C368 1.723 1_545 S
C398 C394 1.397 . S
C398 C397 1.394 . S
C399 H371 0.982 . S
C399 H375 0.979 . S
C399 H376 0.977 . S
C399 C396 1.453 . S
C400 H372 0.979 . S
C400 H373 0.980 . S
C400 H374 0.983 . S
C400 C396 1.684 . S
H401 C419 0.948 . S
H402 C360 0.948 . S
H403 C378 0.979 . S
H404 C378 0.980 . S
H405 C378 0.983 . S
H406 C377 0.982 1_545 S
H407 C377 0.979 . S
H408 C377 0.977 1_545 S
H409 C379 0.948 . S
H410 C381 0.947 . S
H411 C382 0.948 . S
H412 C388 0.982 . S
H413 C388 0.979 . S
H414 C388 0.977 . S
H415 C389 0.979 . S
H416 C389 0.980 . S
H417 C389 0.983 . S
H418 C362 0.947 . S
C419 C362 1.392 . S
C419 C363 1.419 . S
C419 H401 0.948 . S
C420 C421 1.391 . S
C420 C424 1.391 . S
C420 H462 0.948 . S
C421 C420 1.391 . S
C421 C422 1.391 . S
C422 C421 1.391 . S
C422 H478 0.947 . S
C422 C479 1.392 . S
C423 C424 1.391 . S
C423 C427 1.397 . S
C423 C479 1.419 . S
C424 C420 1.391 . S
C424 C423 1.391 . S
C424 C425 1.399 . S
C425 C424 1.399 . S
C425 C428 1.396 . S
C425 C437 1.453 . S
C425 C438 1.684 . S
H426 C450 0.948 . S
C427 C423 1.397 . S
C427 C428 1.394 . S
C427 C446 1.723 . S
C428 C425 1.396 . S
C428 C427 1.394 . S
C428 C458 1.723 . S
H429 C452 0.947 . S
H430 C453 0.948 . S
H431 C459 0.982 . S
H432 C460 0.979 . S
H433 C460 0.980 . S
H434 C460 0.983 . S
H435 C459 0.979 . S
H436 C459 0.977 . S
C437 C425 1.453 . S
C437 H466 0.982 . S
C437 H467 0.979 . S
C437 H468 0.977 . S
C438 C425 1.684 . S
C438 H463 0.979 . S
C438 H464 0.980 . S
C438 H465 0.983 . S
C439 C440 1.391 . S
C439 C444 1.391 . S
C439 H469 0.948 . S
C440 C439 1.391 . S
C440 C441 1.391 . S
C441 C440 1.391 . S
C441 C442 1.392 . S
C441 H470 0.947 . S
C442 C441 1.392 . S
C442 C443 1.419 . S
C442 H471 0.948 . S
C443 C442 1.419 . S
C443 C444 1.391 . S
C443 C447 1.397 . S
C444 C439 1.391 . S
C444 C443 1.391 . S
C444 C445 1.399 . S
C445 C444 1.399 . S
C445 C446 1.396 . S
C445 C448 1.453 . S
C445 C449 1.684 . S
C446 C427 1.723 . S
C446 C445 1.396 . S
C446 C447 1.394 . S
C447 C443 1.397 . S
C447 C446 1.394 . S
C447 C457 1.723 . S
C448 C445 1.453 . S
C448 H472 0.982 . S
C448 H473 0.979 . S
C448 H474 0.977 . S
C449 C445 1.684 . S
C449 H475 0.979 . S
C449 H476 0.980 . S
C449 H477 0.983 . S
C450 H426 0.948 . S
C450 C451 1.391 . S
C450 C455 1.391 . S
C451 C450 1.391 . S
C451 C452 1.391 . S
C452 H429 0.947 . S
C452 C451 1.391 . S
C452 C453 1.392 . S
C453 H430 0.948 . S
C453 C452 1.392 . S
C453 C454 1.419 . S
C454 C453 1.419 . S
C454 C455 1.391 . S
C454 C458 1.397 . S
C455 C450 1.391 . S
C455 C454 1.391 . S
C455 C456 1.399 . S
C456 C455 1.399 . S
C456 C457 1.396 . S
C456 C459 1.453 . S
C456 C460 1.684 . S
C457 C447 1.723 . S
C457 C456 1.396 . S
C457 C458 1.394 . S
C458 C428 1.723 . S
C458 C454 1.397 . S
C458 C457 1.394 . S
C459 H431 0.982 . S
C459 H435 0.979 . S
C459 H436 0.977 . S
C459 C456 1.453 . S
C460 H432 0.979 . S
C460 H433 0.980 . S
C460 H434 0.983 . S
C460 C456 1.684 . S
H461 C479 0.948 . S
H462 C420 0.948 . S
H463 C438 0.979 . S
H464 C438 0.980 . S
H465 C438 0.983 . S
H466 C437 0.982 . S
H467 C437 0.979 . S
H468 C437 0.977 . S
H469 C439 0.948 . S
H470 C441 0.947 . S
H471 C442 0.948 . S
H472 C448 0.982 . S
H473 C448 0.979 . S
H474 C448 0.977 . S
H475 C449 0.979 . S
H476 C449 0.980 . S
H477 C449 0.983 . S
H478 C422 0.947 . S
C479 C422 1.392 . S
C479 C423 1.419 . S
C479 H461 0.948 . S
C480 C481 1.391 . S
C480 C482 1.394 . S
C480 H496 0.931 . S
C481 C480 1.391 . S
C481 C485 1.376 . S
C482 C480 1.394 . S
C482 C483 1.369 . S
C482 C486 1.531 . S
C483 C482 1.369 . S
C483 C484 1.410 . S
C483 C491 1.503 . S
C484 C483 1.410 . S
C484 C485 1.392 . S
C484 C487 1.511 . S
C485 C481 1.376 . S
C485 C484 1.392 . S
C485 H497 0.929 . S
C486 C482 1.531 . S
C486 H498 0.960 . S
C486 H499 0.962 . S
C486 H500 0.960 . S
C487 C484 1.511 . S
C487 H501 0.961 . S
C487 H502 0.961 . S
C487 H503 0.961 . S
C488 C489 1.370 . S
C488 C490 1.363 . S
C488 H504 0.931 . S
C489 C488 1.370 . S
C489 C493 1.408 . S
C490 C488 1.363 . S
C490 C491 1.370 . S
C490 C494 1.524 . S
C491 C483 1.503 . S
C491 C490 1.370 . S
C491 C492 1.403 . S
C492 C491 1.403 . S
C492 C493 1.404 . S
C492 C495 1.539 . S
C493 C489 1.408 . S
C493 C492 1.404 . S
C493 H505 0.930 . S
C494 C490 1.524 . S
C494 H506 0.956 . S
C494 H507 0.961 . S
C494 H508 0.961 . S
C495 C492 1.539 . S
C495 H509 0.958 . S
C495 H510 0.961 . S
C495 H511 0.960 . S
H496 C480 0.931 . S
H497 C485 0.929 . S
H498 C486 0.960 . S
H499 C486 0.962 . S
H500 C486 0.960 . S
H501 C487 0.961 . S
H502 C487 0.961 . S
H503 C487 0.961 . S
H504 C488 0.931 . S
H505 C493 0.930 . S
H506 C494 0.956 . S
H507 C494 0.961 . S
H508 C494 0.961 . S
H509 C495 0.958 . S
H510 C495 0.961 . S
H511 C495 0.960 . S
C512 C513 1.391 . S
C512 C514 1.394 . S
C512 H528 0.931 . S
C513 C512 1.391 . S
C513 C517 1.376 . S
C514 C512 1.394 . S
C514 C515 1.369 . S
C514 C518 1.531 . S
C515 C514 1.369 . S
C515 C516 1.410 . S
C515 C523 1.503 . S
C516 C515 1.410 . S
C516 C517 1.392 . S
C516 C519 1.511 . S
C517 C513 1.376 . S
C517 C516 1.392 . S
C517 H529 0.929 . S
C518 C514 1.531 . S
C518 H530 0.960 . S
C518 H531 0.962 . S
C518 H532 0.960 . S
C519 C516 1.511 . S
C519 H533 0.961 . S
C519 H534 0.961 . S
C519 H535 0.961 . S
C520 C521 1.370 . S
C520 C522 1.363 . S
C520 H536 0.931 . S
C521 C520 1.370 . S
C521 C525 1.408 . S
C522 C520 1.363 . S
C522 C523 1.370 . S
C522 C526 1.524 . S
C523 C515 1.503 . S
C523 C522 1.370 . S
C523 C524 1.403 . S
C524 C523 1.403 . S
C524 C525 1.404 . S
C524 C527 1.539 . S
C525 C521 1.408 . S
C525 C524 1.404 . S
C525 H537 0.930 . S
C526 C522 1.524 . S
C526 H538 0.956 . S
C526 H539 0.961 . S
C526 H540 0.961 . S
C527 C524 1.539 . S
C527 H541 0.958 . S
C527 H542 0.961 . S
C527 H543 0.960 . S
H528 C512 0.931 . S
H529 C517 0.929 . S
H530 C518 0.960 . S
H531 C518 0.962 . S
H532 C518 0.960 . S
H533 C519 0.961 . S
H534 C519 0.961 . S
H535 C519 0.961 . S
H536 C520 0.931 . S
H537 C525 0.930 . S
H538 C526 0.956 . S
H539 C526 0.961 . S
H540 C526 0.961 . S
H541 C527 0.958 . S
H542 C527 0.961 . S
H543 C527 0.960 . S
C544 C545 1.391 . S
C544 C546 1.394 . S
C544 H560 0.931 . S
C545 C544 1.391 . S
C545 C549 1.376 . S
C546 C544 1.394 . S
C546 C547 1.369 . S
C546 C550 1.531 . S
C547 C546 1.369 . S
C547 C548 1.410 . S
C547 C555 1.503 . S
C548 C547 1.410 . S
C548 C549 1.392 . S
C548 C551 1.511 . S
C549 C545 1.376 . S
C549 C548 1.392 . S
C549 H561 0.929 . S
C550 C546 1.531 . S
C550 H562 0.960 . S
C550 H563 0.962 . S
C550 H564 0.960 . S
C551 C548 1.511 . S
C551 H565 0.961 . S
C551 H566 0.961 . S
C551 H567 0.961 . S
C552 C553 1.370 . S
C552 C554 1.363 . S
C552 H568 0.931 . S
C553 C552 1.370 . S
C553 C557 1.408 . S
C554 C552 1.363 . S
C554 C555 1.370 . S
C554 C558 1.524 . S
C555 C547 1.503 . S
C555 C554 1.370 . S
C555 C556 1.403 . S
C556 C555 1.403 . S
C556 C557 1.404 . S
C556 C559 1.539 . S
C557 C553 1.408 . S
C557 C556 1.404 . S
C557 H569 0.930 . S
C558 C554 1.524 . S
C558 H570 0.956 . S
C558 H571 0.961 . S
C558 H572 0.961 . S
C559 C556 1.539 . S
C559 H573 0.958 . S
C559 H574 0.961 . S
C559 H575 0.960 . S
H560 C544 0.931 . S
H561 C549 0.929 . S
H562 C550 0.960 . S
H563 C550 0.962 . S
H564 C550 0.960 . S
H565 C551 0.961 . S
H566 C551 0.961 . S
H567 C551 0.961 . S
H568 C552 0.931 . S
H569 C557 0.930 . S
H570 C558 0.956 . S
H571 C558 0.961 . S
H572 C558 0.961 . S
H573 C559 0.958 . S
H574 C559 0.961 . S
H575 C559 0.960 . S
C576 C577 1.391 . S
C576 C578 1.394 . S
C576 H592 0.931 . S
C577 C576 1.391 . S
C577 C581 1.376 . S
C578 C576 1.394 . S
C578 C579 1.369 . S
C578 C582 1.531 . S
C579 C578 1.369 . S
C579 C580 1.410 . S
C579 C587 1.503 . S
C580 C579 1.410 . S
C580 C581 1.392 . S
C580 C583 1.511 . S
C581 C577 1.376 . S
C581 C580 1.392 . S
C581 H593 0.929 . S
C582 C578 1.531 . S
C582 H594 0.960 . S
C582 H595 0.962 . S
C582 H596 0.960 . S
C583 C580 1.511 . S
C583 H597 0.961 . S
C583 H598 0.961 . S
C583 H599 0.961 . S
C584 C585 1.370 . S
C584 C586 1.363 . S
C584 H600 0.931 . S
C585 C584 1.370 . S
C585 C589 1.408 . S
C586 C584 1.363 . S
C586 C587 1.370 . S
C586 C590 1.524 . S
C587 C579 1.503 . S
C587 C586 1.370 . S
C587 C588 1.403 . S
C588 C587 1.403 . S
C588 C589 1.404 . S
C588 C591 1.539 . S
C589 C585 1.408 . S
C589 C588 1.404 . S
C589 H601 0.930 . S
C590 C586 1.524 . S
C590 H602 0.956 . S
C590 H603 0.961 . S
C590 H604 0.961 . S
C591 C588 1.539 . S
C591 H605 0.958 . S
C591 H606 0.961 . S
C591 H607 0.960 . S
H592 C576 0.931 . S
H593 C581 0.929 . S
H594 C582 0.960 . S
H595 C582 0.962 . S
H596 C582 0.960 . S
H597 C583 0.961 . S
H598 C583 0.961 . S
H599 C583 0.961 . S
H600 C584 0.931 . S
H601 C589 0.930 . S
H602 C590 0.956 . S
H603 C590 0.961 . S
H604 C590 0.961 . S
H605 C591 0.958 . S
H606 C591 0.961 . S
H607 C591 0.960 . S
C608 C609 1.391 . S
C608 C610 1.394 . S
C608 H624 0.931 . S
C609 C608 1.391 . S
C609 C613 1.376 . S
C610 C608 1.394 . S
C610 C611 1.369 . S
C610 C614 1.531 . S
C611 C610 1.369 . S
C611 C612 1.410 . S
C611 C619 1.503 . S
C612 C611 1.410 . S
C612 C613 1.392 . S
C612 C615 1.511 . S
C613 C609 1.376 . S
C613 C612 1.392 . S
C613 H625 0.929 . S
C614 C610 1.531 . S
C614 H626 0.960 . S
C614 H627 0.962 . S
C614 H628 0.960 . S
C615 C612 1.511 . S
C615 H629 0.961 . S
C615 H630 0.961 . S
C615 H631 0.961 . S
C616 C617 1.370 . S
C616 C618 1.363 . S
C616 H632 0.931 . S
C617 C616 1.370 . S
C617 C621 1.408 . S
C618 C616 1.363 . S
C618 C619 1.370 . S
C618 C622 1.524 . S
C619 C611 1.503 . S
C619 C618 1.370 . S
C619 C620 1.403 . S
C620 C619 1.403 . S
C620 C621 1.404 . S
C620 C623 1.539 . S
C621 C617 1.408 . S
C621 C620 1.404 . S
C621 H633 0.930 . S
C622 C618 1.524 . S
C622 H634 0.956 . S
C622 H635 0.961 . S
C622 H636 0.961 . S
C623 C620 1.539 . S
C623 H637 0.958 . S
C623 H638 0.961 . S
C623 H639 0.960 . S
H624 C608 0.931 . S
H625 C613 0.929 . S
H626 C614 0.960 . S
H627 C614 0.962 . S
H628 C614 0.960 . S
H629 C615 0.961 . S
H630 C615 0.961 . S
H631 C615 0.961 . S
H632 C616 0.931 . S
H633 C621 0.930 . S
H634 C622 0.956 . S
H635 C622 0.961 . S
H636 C622 0.961 . S
H637 C623 0.958 . S
H638 C623 0.961 . S
H639 C623 0.960 . S
C640 C641 1.391 . S
C640 C642 1.394 . S
C640 H656 0.931 . S
C641 C640 1.391 . S
C641 C645 1.376 . S
C642 C640 1.394 . S
C642 C643 1.369 . S
C642 C646 1.531 . S
C643 C642 1.369 . S
C643 C644 1.410 . S
C643 C651 1.503 . S
C644 C643 1.410 . S
C644 C645 1.392 . S
C644 C647 1.511 . S
C645 C641 1.376 . S
C645 C644 1.392 . S
C645 H657 0.929 . S
C646 C642 1.531 . S
C646 H658 0.960 . S
C646 H659 0.962 . S
C646 H660 0.960 . S
C647 C644 1.511 . S
C647 H661 0.961 . S
C647 H662 0.961 . S
C647 H663 0.961 . S
C648 C649 1.370 . S
C648 C650 1.363 . S
C648 H664 0.931 . S
C649 C648 1.370 . S
C649 C653 1.408 . S
C650 C648 1.363 . S
C650 C651 1.370 . S
C650 C654 1.524 . S
C651 C643 1.503 . S
C651 C650 1.370 . S
C651 C652 1.403 . S
C652 C651 1.403 . S
C652 C653 1.404 . S
C652 C655 1.539 . S
C653 C649 1.408 . S
C653 C652 1.404 . S
C653 H665 0.930 . S
C654 C650 1.524 . S
C654 H666 0.956 . S
C654 H667 0.961 . S
C654 H668 0.961 . S
C655 C652 1.539 . S
C655 H669 0.958 . S
C655 H670 0.961 . S
C655 H671 0.960 . S
H656 C640 0.931 . S
H657 C645 0.929 . S
H658 C646 0.960 . S
H659 C646 0.962 . S
H660 C646 0.960 . S
H661 C647 0.961 . S
H662 C647 0.961 . S
H663 C647 0.961 . S
H664 C648 0.931 . S
H665 C653 0.930 . S
H666 C654 0.956 . S
H667 C654 0.961 . S
H668 C654 0.961 . S
H669 C655 0.958 . S
H670 C655 0.961 . S
H671 C655 0.960 . S
C672 C673 1.391 . S
C672 C674 1.394 . S
C672 H688 0.931 . S
C673 C672 1.391 . S
C673 C677 1.376 . S
C674 C672 1.394 . S
C674 C675 1.369 . S
C674 C678 1.531 . S
C675 C674 1.369 . S
C675 C676 1.410 . S
C675 C683 1.503 . S
C676 C675 1.410 . S
C676 C677 1.392 . S
C676 C679 1.511 . S
C677 C673 1.376 . S
C677 C676 1.392 . S
C677 H689 0.929 . S
C678 C674 1.531 . S
C678 H690 0.960 . S
C678 H691 0.962 . S
C678 H692 0.960 . S
C679 C676 1.511 . S
C679 H693 0.961 . S
C679 H694 0.961 . S
C679 H695 0.961 . S
C680 C681 1.370 . S
C680 C682 1.363 . S
C680 H696 0.931 . S
C681 C680 1.370 . S
C681 C685 1.408 . S
C682 C680 1.363 . S
C682 C683 1.370 . S
C682 C686 1.524 . S
C683 C675 1.503 . S
C683 C682 1.370 . S
C683 C684 1.403 . S
C684 C683 1.403 . S
C684 C685 1.404 . S
C684 C687 1.539 . S
C685 C681 1.408 . S
C685 C684 1.404 . S
C685 H697 0.930 . S
C686 C682 1.524 . S
C686 H698 0.956 . S
C686 H699 0.961 . S
C686 H700 0.961 . S
C687 C684 1.539 . S
C687 H701 0.958 . S
C687 H702 0.961 . S
C687 H703 0.960 . S
H688 C672 0.931 . S
H689 C677 0.929 . S
H690 C678 0.960 . S
H691 C678 0.962 . S
H692 C678 0.960 . S
H693 C679 0.961 . S
H694 C679 0.961 . S
H695 C679 0.961 . S
H696 C680 0.931 . S
H697 C685 0.930 . S
H698 C686 0.956 . S
H699 C686 0.961 . S
H700 C686 0.961 . S
H701 C687 0.958 . S
H702 C687 0.961 . S
H703 C687 0.960 . S
C704 C705 1.391 . S
C704 C706 1.394 . S
C704 H720 0.931 . S
C705 C704 1.391 . S
C705 C709 1.376 . S
C706 C704 1.394 . S
C706 C707 1.369 . S
C706 C710 1.531 . S
C707 C706 1.369 . S
C707 C708 1.410 . S
C707 C715 1.503 . S
C708 C707 1.410 . S
C708 C709 1.392 . S
C708 C711 1.511 . S
C709 C705 1.376 . S
C709 C708 1.392 . S
C709 H721 0.929 . S
C710 C706 1.531 . S
C710 H722 0.960 . S
C710 H723 0.962 . S
C710 H724 0.960 . S
C711 C708 1.511 . S
C711 H725 0.961 . S
C711 H726 0.961 . S
C711 H727 0.961 . S
C712 C713 1.370 . S
C712 C714 1.363 . S
C712 H728 0.931 . S
C713 C712 1.370 . S
C713 C717 1.408 . S
C714 C712 1.363 . S
C714 C715 1.370 . S
C714 C718 1.524 . S
C715 C707 1.503 . S
C715 C714 1.370 . S
C715 C716 1.403 . S
C716 C715 1.403 . S
C716 C717 1.404 . S
C716 C719 1.539 . S
C717 C713 1.408 . S
C717 C716 1.404 . S
C717 H729 0.930 . S
C718 C714 1.524 . S
C718 H730 0.956 . S
C718 H731 0.961 . S
C718 H732 0.961 . S
C719 C716 1.539 . S
C719 H733 0.958 . S
C719 H734 0.961 . S
C719 H735 0.960 . S
H720 C704 0.931 . S
H721 C709 0.929 . S
H722 C710 0.960 . S
H723 C710 0.962 . S
H724 C710 0.960 . S
H725 C711 0.961 . S
H726 C711 0.961 . S
H727 C711 0.961 . S
H728 C712 0.931 . S
H729 C717 0.930 . S
H730 C718 0.956 . S
H731 C718 0.961 . S
H732 C718 0.961 . S
H733 C719 0.958 . S
H734 C719 0.961 . S
H735 C719 0.960 . S
C736 C737 1.391 . S
C736 C738 1.394 . S
C736 H752 0.931 . S
C737 C736 1.391 . S
C737 C741 1.376 . S
C738 C736 1.394 . S
C738 C739 1.369 . S
C738 C742 1.531 . S
C739 C738 1.369 . S
C739 C740 1.410 . S
C739 C747 1.503 . S
C740 C739 1.410 . S
C740 C741 1.392 . S
C740 C743 1.511 . S
C741 C737 1.376 . S
C741 C740 1.392 . S
C741 H753 0.929 . S
C742 C738 1.531 . S
C742 H754 0.960 . S
C742 H755 0.962 . S
C742 H756 0.960 . S
C743 C740 1.511 . S
C743 H757 0.961 . S
C743 H758 0.961 . S
C743 H759 0.961 . S
C744 C745 1.370 . S
C744 C746 1.363 . S
C744 H760 0.931 . S
C745 C744 1.370 . S
C745 C749 1.408 . S
C746 C744 1.363 . S
C746 C747 1.370 . S
C746 C750 1.524 . S
C747 C739 1.503 . S
C747 C746 1.370 . S
C747 C748 1.403 . S
C748 C747 1.403 . S
C748 C749 1.404 . S
C748 C751 1.539 . S
C749 C745 1.408 . S
C749 C748 1.404 . S
C749 H761 0.930 . S
C750 C746 1.524 . S
C750 H762 0.956 . S
C750 H763 0.961 . S
C750 H764 0.961 . S
C751 C748 1.539 . S
C751 H765 0.958 . S
C751 H766 0.961 . S
C751 H767 0.960 . S
H752 C736 0.931 . S
H753 C741 0.929 . S
H754 C742 0.960 . S
H755 C742 0.962 . S
H756 C742 0.960 . S
H757 C743 0.961 . S
H758 C743 0.961 . S
H759 C743 0.961 . S
H760 C744 0.931 . S
H761 C749 0.930 . S
H762 C750 0.956 . S
H763 C750 0.961 . S
H764 C750 0.961 . S
H765 C751 0.958 . S
H766 C751 0.961 . S
H767 C751 0.960 . S
C768 C769 1.391 . S
C768 C770 1.394 . S
C768 H784 0.931 . S
C769 C768 1.391 . S
C769 C773 1.376 . S
C770 C768 1.394 . S
C770 C771 1.369 . S
C770 C774 1.531 . S
C771 C770 1.369 . S
C771 C772 1.410 . S
C771 C779 1.503 . S
C772 C771 1.410 . S
C772 C773 1.392 . S
C772 C775 1.511 . S
C773 C769 1.376 . S
C773 C772 1.392 . S
C773 H785 0.929 . S
C774 C770 1.531 . S
C774 H786 0.960 . S
C774 H787 0.962 . S
C774 H788 0.960 . S
C775 C772 1.511 . S
C775 H789 0.961 . S
C775 H790 0.961 . S
C775 H791 0.961 . S
C776 C777 1.370 . S
C776 C778 1.363 . S
C776 H792 0.931 . S
C777 C776 1.370 . S
C777 C781 1.408 . S
C778 C776 1.363 . S
C778 C779 1.370 . S
C778 C782 1.524 . S
C779 C771 1.503 . S
C779 C778 1.370 . S
C779 C780 1.403 . S
C780 C779 1.403 . S
C780 C781 1.404 . S
C780 C783 1.539 . S
C781 C777 1.408 . S
C781 C780 1.404 . S
C781 H793 0.930 . S
C782 C778 1.524 . S
C782 H794 0.956 . S
C782 H795 0.961 . S
C782 H796 0.961 . S
C783 C780 1.539 . S
C783 H797 0.958 . S
C783 H798 0.961 . S
C783 H799 0.960 . S
H784 C768 0.931 . S
H785 C773 0.929 . S
H786 C774 0.960 . S
H787 C774 0.962 . S
H788 C774 0.960 . S
H789 C775 0.961 . S
H790 C775 0.961 . S
H791 C775 0.961 . S
H792 C776 0.931 . S
H793 C781 0.930 . S
H794 C782 0.956 . S
H795 C782 0.961 . S
H796 C782 0.961 . S
H797 C783 0.958 . S
H798 C783 0.961 . S
H799 C783 0.960 . S
C800 C801 1.391 . S
C800 C802 1.394 . S
C800 H816 0.931 . S
C801 C800 1.391 . S
C801 C805 1.376 . S
C802 C800 1.394 . S
C802 C803 1.369 . S
C802 C806 1.531 . S
C803 C802 1.369 . S
C803 C804 1.410 . S
C803 C811 1.503 . S
C804 C803 1.410 . S
C804 C805 1.392 . S
C804 C807 1.511 . S
C805 C801 1.376 . S
C805 C804 1.392 . S
C805 H817 0.929 . S
C806 C802 1.531 . S
C806 H818 0.960 . S
C806 H819 0.962 . S
C806 H820 0.960 . S
C807 C804 1.511 . S
C807 H821 0.961 . S
C807 H822 0.961 . S
C807 H823 0.961 . S
C808 C809 1.370 . S
C808 C810 1.363 . S
C808 H824 0.931 . S
C809 C808 1.370 . S
C809 C813 1.408 . S
C810 C808 1.363 . S
C810 C811 1.370 . S
C810 C814 1.524 . S
C811 C803 1.503 . S
C811 C810 1.370 . S
C811 C812 1.403 . S
C812 C811 1.403 . S
C812 C813 1.404 . S
C812 C815 1.539 . S
C813 C809 1.408 . S
C813 C812 1.404 . S
C813 H825 0.930 . S
C814 C810 1.524 . S
C814 H826 0.956 . S
C814 H827 0.961 . S
C814 H828 0.961 . S
C815 C812 1.539 . S
C815 H829 0.958 . S
C815 H830 0.961 . S
C815 H831 0.960 . S
H816 C800 0.931 . S
H817 C805 0.929 . S
H818 C806 0.960 . S
H819 C806 0.962 . S
H820 C806 0.960 . S
H821 C807 0.961 . S
H822 C807 0.961 . S
H823 C807 0.961 . S
H824 C808 0.931 . S
H825 C813 0.930 . S
H826 C814 0.956 . S
H827 C814 0.961 . S
H828 C814 0.961 . S
H829 C815 0.958 . S
H830 C815 0.961 . S
H831 C815 0.960 . S
C832 C833 1.391 . S
C832 C834 1.394 . S
C832 H848 0.931 . S
C833 C832 1.391 . S
C833 C837 1.376 . S
C834 C832 1.394 . S
C834 C835 1.369 . S
C834 C838 1.531 . S
C835 C834 1.369 . S
C835 C836 1.410 . S
C835 C843 1.503 . S
C836 C835 1.410 . S
C836 C837 1.392 . S
C836 C839 1.511 . S
C837 C833 1.376 . S
C837 C836 1.392 . S
C837 H849 0.929 . S
C838 C834 1.531 . S
C838 H850 0.960 . S
C838 H851 0.962 . S
C838 H852 0.960 . S
C839 C836 1.511 . S
C839 H853 0.961 . S
C839 H854 0.961 . S
C839 H855 0.961 . S
C840 C841 1.370 . S
C840 C842 1.363 . S
C840 H856 0.931 . S
C841 C840 1.370 . S
C841 C845 1.408 . S
C842 C840 1.363 . S
C842 C843 1.370 . S
C842 C846 1.524 . S
C843 C835 1.503 . S
C843 C842 1.370 . S
C843 C844 1.403 . S
C844 C843 1.403 . S
C844 C845 1.404 . S
C844 C847 1.539 . S
C845 C841 1.408 . S
C845 C844 1.404 . S
C845 H857 0.930 . S
C846 C842 1.524 . S
C846 H858 0.956 . S
C846 H859 0.961 . S
C846 H860 0.961 . S
C847 C844 1.539 . S
C847 H861 0.958 . S
C847 H862 0.961 . S
C847 H863 0.960 . S
H848 C832 0.931 . S
H849 C837 0.929 . S
H850 C838 0.960 . S
H851 C838 0.962 . S
H852 C838 0.960 . S
H853 C839 0.961 . S
H854 C839 0.961 . S
H855 C839 0.961 . S
H856 C840 0.931 . S
H857 C845 0.930 . S
H858 C846 0.956 . S
H859 C846 0.961 . S
H860 C846 0.961 . S
H861 C847 0.958 . S
H862 C847 0.961 . S
H863 C847 0.960 . S
C864 C865 1.391 . S
C864 C866 1.394 . S
C864 H880 0.931 . S
C865 C864 1.391 . S
C865 C869 1.376 1_455 S
C866 C864 1.394 . S
C866 C867 1.369 . S
C866 C870 1.531 . S
C867 C866 1.369 . S
C867 C868 1.410 1_455 S
C867 C875 1.503 . S
C868 C867 1.410 1_655 S
C868 C869 1.392 . S
C868 C871 1.511 . S
C869 C865 1.376 1_655 S
C869 C868 1.392 . S
C869 H881 0.929 . S
C870 C866 1.531 . S
C870 H882 0.960 . S
C870 H883 0.962 . S
C870 H884 0.960 . S
C871 C868 1.511 . S
C871 H885 0.961 . S
C871 H886 0.961 . S
C871 H887 0.961 . S
C872 C873 1.370 . S
C872 C874 1.363 . S
C872 H888 0.931 . S
C873 C872 1.370 . S
C873 C877 1.408 1_455 S
C874 C872 1.363 . S
C874 C875 1.370 . S
C874 C878 1.524 . S
C875 C867 1.503 . S
C875 C874 1.370 . S
C875 C876 1.403 1_455 S
C876 C875 1.403 1_655 S
C876 C877 1.404 . S
C876 C879 1.539 . S
C877 C873 1.408 1_655 S
C877 C876 1.404 . S
C877 H889 0.930 . S
C878 C874 1.524 . S
C878 H890 0.956 . S
C878 H891 0.961 . S
C878 H892 0.961 . S
C879 C876 1.539 . S
C879 H893 0.958 . S
C879 H894 0.961 . S
C879 H895 0.960 . S
H880 C864 0.931 . S
H881 C869 0.929 . S
H882 C870 0.960 . S
H883 C870 0.962 . S
H884 C870 0.960 . S
H885 C871 0.961 . S
H886 C871 0.961 . S
H887 C871 0.961 . S
H888 C872 0.931 . S
H889 C877 0.930 . S
H890 C878 0.956 . S
H891 C878 0.961 . S
H892 C878 0.961 . S
H893 C879 0.958 . S
H894 C879 0.961 . S
H895 C879 0.960 . S
C896 C897 1.391 . S
C896 C898 1.394 . S
C896 H912 0.931 . S
C897 C896 1.391 . S
C897 C901 1.376 . S
C898 C896 1.394 . S
C898 C899 1.369 . S
C898 C902 1.531 . S
C899 C898 1.369 . S
C899 C900 1.410 . S
C899 C907 1.503 . S
C900 C899 1.410 . S
C900 C901 1.392 . S
C900 C903 1.511 . S
C901 C897 1.376 . S
C901 C900 1.392 . S
C901 H913 0.929 . S
C902 C898 1.531 . S
C902 H914 0.960 . S
C902 H915 0.962 . S
C902 H916 0.960 . S
C903 C900 1.511 . S
C903 H917 0.961 1_545 S
C903 H918 0.961 1_545 S
C903 H919 0.961 . S
C904 C905 1.370 . S
C904 C906 1.363 . S
C904 H920 0.931 1_545 S
C905 C904 1.370 . S
C905 C909 1.408 . S
C906 C904 1.363 . S
C906 C907 1.370 . S
C906 C910 1.524 1_545 S
C907 C899 1.503 . S
C907 C906 1.370 . S
C907 C908 1.403 . S
C908 C907 1.403 . S
C908 C909 1.404 . S
C908 C911 1.539 . S
C909 C905 1.408 . S
C909 C908 1.404 . S
C909 H921 0.930 . S
C910 C906 1.524 1_565 S
C910 H922 0.956 . S
C910 H923 0.961 . S
C910 H924 0.961 . S
C911 C908 1.539 . S
C911 H925 0.958 . S
C911 H926 0.961 . S
C911 H927 0.960 . S
H912 C896 0.931 . S
H913 C901 0.929 . S
H914 C902 0.960 . S
H915 C902 0.962 . S
H916 C902 0.960 . S
H917 C903 0.961 1_565 S
H918 C903 0.961 1_565 S
H919 C903 0.961 . S
H920 C904 0.931 1_565 S
H921 C909 0.930 . S
H922 C910 0.956 . S
H923 C910 0.961 . S
H924 C910 0.961 . S
H925 C911 0.958 . S
H926 C911 0.961 . S
H927 C911 0.960 . S
C928 C929 1.391 . S
C928 C930 1.394 . S
C928 H944 0.931 . S
C929 C928 1.391 . S
C929 C933 1.376 . S
C930 C928 1.394 . S
C930 C931 1.369 . S
C930 C934 1.531 . S
C931 C930 1.369 . S
C931 C932 1.410 . S
C931 C939 1.503 . S
C932 C931 1.410 . S
C932 C933 1.392 . S
C932 C935 1.511 . S
C933 C929 1.376 . S
C933 C932 1.392 . S
C933 H945 0.929 . S
C934 C930 1.531 . S
C934 H946 0.960 . S
C934 H947 0.962 . S
C934 H948 0.960 . S
C935 C932 1.511 . S
C935 H949 0.961 . S
C935 H950 0.961 . S
C935 H951 0.961 . S
C936 C937 1.370 . S
C936 C938 1.363 . S
C936 H952 0.931 . S
C937 C936 1.370 . S
C937 C941 1.408 . S
C938 C936 1.363 . S
C938 C939 1.370 . S
C938 C942 1.524 . S
C939 C931 1.503 . S
C939 C938 1.370 . S
C939 C940 1.403 . S
C940 C939 1.403 . S
C940 C941 1.404 . S
C940 C943 1.539 . S
C941 C937 1.408 . S
C941 C940 1.404 . S
C941 H953 0.930 . S
C942 C938 1.524 . S
C942 H954 0.956 . S
C942 H955 0.961 . S
C942 H956 0.961 . S
C943 C940 1.539 . S
C943 H957 0.958 . S
C943 H958 0.961 . S
C943 H959 0.960 . S
H944 C928 0.931 . S
H945 C933 0.929 . S
H946 C934 0.960 . S
H947 C934 0.962 . S
H948 C934 0.960 . S
H949 C935 0.961 . S
H950 C935 0.961 . S
H951 C935 0.961 . S
H952 C936 0.931 . S
H953 C941 0.930 . S
H954 C942 0.956 . S
H955 C942 0.961 . S
H956 C942 0.961 . S
H957 C943 0.958 . S
H958 C943 0.961 . S
H959 C943 0.960 . S
C960 C961 1.391 . S
C960 C962 1.394 . S
C960 H976 0.931 . S
C961 C960 1.391 . S
C961 C965 1.376 1_545 S
C962 C960 1.394 . S
C962 C963 1.369 . S
C962 C966 1.531 . S
C963 C962 1.369 . S
C963 C964 1.410 1_545 S
C963 C971 1.503 . S
C964 C963 1.410 1_565 S
C964 C965 1.392 . S
C964 C967 1.511 . S
C965 C961 1.376 1_565 S
C965 C964 1.392 . S
C965 H977 0.929 . S
C966 C962 1.531 . S
C966 H978 0.960 . S
C966 H979 0.962 . S
C966 H980 0.960 . S
C967 C964 1.511 . S
C967 H981 0.961 . S
C967 H982 0.961 . S
C967 H983 0.961 . S
C968 C969 1.370 1_565 S
C968 C970 1.363 . S
C968 H984 0.931 . S
C969 C968 1.370 1_545 S
C969 C973 1.408 . S
C970 C968 1.363 . S
C970 C971 1.370 1_565 S
C970 C974 1.524 . S
C971 C963 1.503 . S
C971 C970 1.370 1_545 S
C971 C972 1.403 . S
C972 C971 1.403 . S
C972 C973 1.404 . S
C972 C975 1.539 . S
C973 C969 1.408 . S
C973 C972 1.404 . S
C973 H985 0.930 . S
C974 C970 1.524 . S
C974 H986 0.956 . S
C974 H987 0.961 . S
C974 H988 0.961 . S
C975 C972 1.539 . S
C975 H989 0.958 . S
C975 H990 0.961 . S
C975 H991 0.960 . S
H976 C960 0.931 . S
H977 C965 0.929 . S
H978 C966 0.960 . S
H979 C966 0.962 . S
H980 C966 0.960 . S
H981 C967 0.961 . S
H982 C967 0.961 . S
H983 C967 0.961 . S
H984 C968 0.931 . S
H985 C973 0.930 . S
H986 C974 0.956 . S
H987 C974 0.961 . S
H988 C974 0.961 . S
H989 C975 0.958 . S
H990 C975 0.961 . S
H991 C975 0.960 . S
C992 C993 1.391 . S
C992 C994 1.394 . S
C992 H1008 0.931 . S
C993 C992 1.391 . S
C993 C997 1.376 . S
C994 C992 1.394 . S
C994 C995 1.369 . S
C994 C998 1.531 . S
C995 C994 1.369 . S
C995 C996 1.410 . S
C995 C1003 1.503 . S
C996 C995 1.410 . S
C996 C997 1.392 . S
C996 C999 1.511 . S
C997 C993 1.376 . S
C997 C996 1.392 . S
C997 H1009 0.929 . S
C998 C994 1.531 . S
C998 H1010 0.960 . S
C998 H1011 0.962 . S
C998 H1012 0.960 . S
C999 C996 1.511 . S
C999 H1013 0.961 . S
C999 H1014 0.961 . S
C999 H1015 0.961 . S
C1000 C1001 1.370 . S
C1000 C1002 1.363 . S
C1000 H1016 0.931 . S
C1001 C1000 1.370 . S
C1001 C1005 1.408 . S
C1002 C1000 1.363 . S
C1002 C1003 1.370 . S
C1002 C1006 1.524 . S
C1003 C995 1.503 . S
C1003 C1002 1.370 . S
C1003 C1004 1.403 . S
C1004 C1003 1.403 . S
C1004 C1005 1.404 . S
C1004 C1007 1.539 . S
C1005 C1001 1.408 . S
C1005 C1004 1.404 . S
C1005 H1017 0.933 1_556 S
C1006 C1002 1.524 . S
C1006 H1018 0.956 . S
C1006 H1019 0.961 . S
C1006 H1020 0.961 . S
C1007 C1004 1.539 . S
C1007 H1021 0.958 . S
C1007 H1022 0.961 . S
C1007 H1023 0.960 . S
H1008 C992 0.931 . S
H1009 C997 0.929 . S
H1010 C998 0.960 . S
H1011 C998 0.962 . S
H1012 C998 0.960 . S
H1013 C999 0.961 . S
H1014 C999 0.961 . S
H1015 C999 0.961 . S
H1016 C1000 0.931 . S
H1017 C1005 0.933 1_554 S
H1018 C1006 0.956 . S
H1019 C1006 0.961 . S
H1020 C1006 0.961 . S
H1021 C1007 0.958 . S
H1022 C1007 0.961 . S
H1023 C1007 0.960 . S
C1024 C1025 1.391 . S
C1024 C1026 1.394 . S
C1024 H1040 0.931 1_455 S
C1025 C1024 1.391 . S
C1025 C1029 1.376 . S
C1026 C1024 1.394 . S
C1026 C1027 1.369 . S
C1026 C1030 1.531 1_455 S
C1027 C1026 1.369 . S
C1027 C1028 1.410 . S
C1027 C1035 1.503 . S
C1028 C1027 1.410 . S
C1028 C1029 1.392 . S
C1028 C1031 1.511 . S
C1029 C1025 1.376 . S
C1029 C1028 1.392 . S
C1029 H1041 0.929 . S
C1030 C1026 1.531 1_655 S
C1030 H1042 0.960 . S
C1030 H1043 0.962 . S
C1030 H1044 0.960 . S
C1031 C1028 1.511 . S
C1031 H1045 0.961 . S
C1031 H1046 0.961 . S
C1031 H1047 0.961 . S
C1032 C1033 1.370 . S
C1032 C1034 1.363 . S
C1032 H1048 0.931 . S
C1033 C1032 1.370 . S
C1033 C1037 1.408 . S
C1034 C1032 1.363 . S
C1034 C1035 1.370 . S
C1034 C1038 1.524 . S
C1035 C1027 1.503 . S
C1035 C1034 1.370 . S
C1035 C1036 1.403 . S
C1036 C1035 1.403 . S
C1036 C1037 1.404 . S
C1036 C1039 1.539 . S
C1037 C1033 1.408 . S
C1037 C1036 1.404 . S
C1037 H1049 0.930 . S
C1038 C1034 1.524 . S
C1038 H1050 0.956 1_455 S
C1038 H1051 0.961 . S
C1038 H1052 0.961 1_455 S
C1039 C1036 1.539 . S
C1039 H1053 0.958 . S
C1039 H1054 0.961 . S
C1039 H1055 0.960 . S
H1040 C1024 0.931 1_655 S
H1041 C1029 0.929 . S
H1042 C1030 0.960 . S
H1043 C1030 0.962 . S
H1044 C1030 0.960 . S
H1045 C1031 0.961 . S
H1046 C1031 0.961 . S
H1047 C1031 0.961 . S
H1048 C1032 0.931 . S
H1049 C1037 0.930 . S
H1050 C1038 0.956 1_655 S
H1051 C1038 0.961 . S
H1052 C1038 0.961 1_655 S
H1053 C1039 0.958 . S
H1054 C1039 0.961 . S
H1055 C1039 0.960 . S
C481 C10 3.009 . S
C489 C451 3.025 . S
C513 C59 3.094 . S
C521 C301 2.917 . S
C545 C90 3.012 . S
C553 C361 2.867 . S
C577 C19 3.094 . S
C585 C421 2.917 . S
C617 C331 3.026 . S
C609 C50 3.017 . S
C649 C391 3.090 . S
C641 C99 3.083 . S
C673 C46 0.479 . S
C681 C181 0.560 . S
C705 C95 0.484 . S
C713 C271 0.318 . S
C737 C6 0.439 . S
C745 C151 0.390 . S
C777 C211 0.317 . S
C769 C55 0.479 . S
C809 C241 0.517 . S
C801 C86 0.518 . S
C833 C15 0.447 . S
C841 C121 0.434 . S
C873 C260 1.057 1_554 S
C865 C9 1.084 . S
C897 C49 1.044 . S
C905 C140 1.072 . S
C929 C89 1.081 . S
C937 C200 1.064 . S
C969 C380 1.759 . S
C961 C58 1.679 . S
C1001 C440 1.766 1_556 S
C993 C98 1.717 . S
C1025 C18 1.688 . S
C1033 C320 1.769 . S
