# Generated by pormake.
# Topology anh, (6,3)-cn, num edge types: 1
# Building blocks:
#     Node 0, Type 0, BuildingBlock: GEDQOX_clean_sbu_0, # of connection points: 6
#     Node 1, Type 0, BuildingBlock: GEDQOX_clean_sbu_0, # of connection points: 6
#     Node 2, Type 0, BuildingBlock: GEDQOX_clean_sbu_0, # of connection points: 6
#     Node 3, Type 1, BuildingBlock: VETTIZ_charged_linker_0, # of connection points: 3
#     Node 4, Type 1, BuildingBlock: VETTIZ_charged_linker_0, # of connection points: 3
#     Node 5, Type 1, BuildingBlock: VETTIZ_charged_linker_0, # of connection points: 3
#     Node 6, Type 1, BuildingBlock: VETTIZ_charged_linker_0, # of connection points: 3
#     Node 7, Type 1, BuildingBlock: VETTIZ_charged_linker_0, # of connection points: 3
#     Node 8, Type 1, BuildingBlock: VETTIZ_charged_linker_0, # of connection points: 3
#     Edge 9, Type (0, 1), BuildingBlock: TEMPAE_clean_linker_10, # of connection points: 2
#     Edge 10, Type (0, 1), BuildingBlock: TEMPAE_clean_linker_10, # of connection points: 2
#     Edge 11, Type (0, 1), BuildingBlock: TEMPAE_clean_linker_10, # of connection points: 2
#     Edge 12, Type (0, 1), BuildingBlock: TEMPAE_clean_linker_10, # of connection points: 2
#     Edge 13, Type (0, 1), BuildingBlock: TEMPAE_clean_linker_10, # of connection points: 2
#     Edge 14, Type (0, 1), BuildingBlock: TEMPAE_clean_linker_10, # of connection points: 2
#     Edge 15, Type (0, 1), BuildingBlock: TEMPAE_clean_linker_10, # of connection points: 2
#     Edge 16, Type (0, 1), BuildingBlock: TEMPAE_clean_linker_10, # of connection points: 2
#     Edge 17, Type (0, 1), BuildingBlock: TEMPAE_clean_linker_10, # of connection points: 2
#     Edge 18, Type (0, 1), BuildingBlock: TEMPAE_clean_linker_10, # of connection points: 2
#     Edge 19, Type (0, 1), BuildingBlock: TEMPAE_clean_linker_10, # of connection points: 2
#     Edge 20, Type (0, 1), BuildingBlock: TEMPAE_clean_linker_10, # of connection points: 2
#     Edge 21, Type (0, 1), BuildingBlock: TEMPAE_clean_linker_10, # of connection points: 2
#     Edge 22, Type (0, 1), BuildingBlock: TEMPAE_clean_linker_10, # of connection points: 2
#     Edge 23, Type (0, 1), BuildingBlock: TEMPAE_clean_linker_10, # of connection points: 2
#     Edge 24, Type (0, 1), BuildingBlock: TEMPAE_clean_linker_10, # of connection points: 2
#     Edge 25, Type (0, 1), BuildingBlock: TEMPAE_clean_linker_10, # of connection points: 2
#     Edge 26, Type (0, 1), BuildingBlock: TEMPAE_clean_linker_10, # of connection points: 2
# Relax obj value: 0.182
# Max RMSD: 0.212
# Mean RMSD: 0.160
data_MOF--net-anh--node1-GEDQOX_clean_sbu_0--node2-VETTIZ_charged_linker_0--edge1-TEMPAE_clean_linker_10
_symmetry_space_group_name_H-M    P1
_symmetry_Int_Tables_number       1
_symmetry_cell_setting            triclinic
loop_
_symmetry_equiv_pos_as_xyz
'x, y, z'
_cell_length_a     36.612705
_cell_length_b     35.255925
_cell_length_c     67.546238
_cell_angle_alpha  92.65869
_cell_angle_beta   90.845917
_cell_angle_gamma 105.02682
loop_
_atom_site_label
_atom_site_type_symbol
_atom_site_fract_x
_atom_site_fract_y
_atom_site_fract_z
_atom_type_partial_charge
Nd0 Nd 0.08596 0.55657 0.14853 0.0
Nd1 Nd 0.06684 0.4717 0.15802 0.0
C2 C 0.11643 0.62533 0.13368 0.0
C3 C 0.15403 0.65327 0.136 0.0
C4 C 0.16835 0.67839 0.12087 0.0
C5 C 0.20428 0.70474 0.12304 0.0
C6 C 0.22647 0.70641 0.14044 0.0
C7 C 0.21194 0.68075 0.15547 0.0
C8 C 0.17625 0.6543 0.15321 0.0
C9 C 0.08015 0.54415 0.18819 0.0
C10 C 0.15669 0.5128 0.1558 0.0
C11 C 1.03791 0.40173 0.17204 0.0
C12 C 1.00021 0.37398 0.17347 0.0
C13 C 0.98804 0.36013 0.19202 0.0
C14 C 0.95261 0.33372 0.19381 0.0
C15 C 0.92867 0.32039 0.17706 0.0
C16 C 0.94084 0.33431 0.15847 0.0
C17 C 0.9762 0.36102 0.1567 0.0
C18 C 0.07513 0.48588 0.11858 0.0
C19 C 0.99629 0.51532 0.1515 0.0
O20 O 0.11544 0.59176 0.12429 0.0
O21 O 0.09562 0.62125 0.14942 0.0
O22 O 0.06766 0.5709 0.17983 0.0
O23 O 0.09627 0.52634 0.17597 0.0
O24 O 0.14531 0.54181 0.14785 0.0
O25 O 0.13154 0.48334 0.16338 0.0
O26 O 1.0442 0.43453 0.18298 0.0
O27 O 1.05206 0.40674 0.15438 0.0
O28 O 0.08876 0.46005 0.12708 0.0
O29 O 1.05734 0.50209 0.13062 0.0
O30 O 1.00802 0.48712 0.16001 0.0
O31 O 1.0211 0.54386 0.14304 0.0
H32 H 0.15177 0.67759 0.10736 0.0
H33 H 0.21473 0.72361 0.11105 0.0
H34 H 0.22781 0.68154 0.16921 0.0
H35 H 0.16588 0.63483 0.165 0.0
H36 H 1.00606 0.36964 0.20514 0.0
H37 H 0.94423 0.32315 0.2083 0.0
H38 H 0.92287 0.32478 0.14533 0.0
H39 H 0.98471 0.37144 0.1422 0.0
Nd40 Nd 0.52935 0.99201 0.51126 0.0
Nd41 Nd 0.61087 0.00991 0.50007 0.0
C42 C 0.46202 0.96348 0.52624 0.0
C43 C 0.43225 0.92654 0.52279 0.0
C44 C 0.40809 0.91138 0.53807 0.0
C45 C 0.37986 0.87613 0.53482 0.0
C46 C 0.37526 0.85572 0.51618 0.0
C47 C 0.39987 0.87085 0.50099 0.0
C48 C 0.42822 0.90579 0.5043 0.0
C49 C 0.54067 0.99395 0.47125 0.0
C50 C 0.571 0.91919 0.50518 0.0
C51 C 0.67797 0.03725 0.48452 0.0
C52 C 0.70603 0.07551 0.48392 0.0
C53 C 0.69544 0.11082 0.48691 0.0
C54 C 0.72237 0.14699 0.48613 0.0
C55 C 0.76044 0.14841 0.48256 0.0
C56 C 0.77099 0.1129 0.47992 0.0
C57 C 0.74397 0.07678 0.48057 0.0
C58 C 0.59951 1.00687 0.54009 0.0
C59 C 0.56992 0.0827 0.50736 0.0
O60 O 0.49343 0.96043 0.53468 0.0
O61 O 0.46789 0.98707 0.51156 0.0
O62 O 0.5156 1.00838 0.47995 0.0
O63 O 0.55766 0.97798 0.48334 0.0
O64 O 0.54441 0.93248 0.51401 0.0
O65 O 0.59803 0.94294 0.49556 0.0
O66 O 0.64597 0.03346 0.47475 0.0
O67 O 0.67341 0.02183 0.50181 0.0
O68 O 0.625 0.99324 0.53126 0.0
O69 O 0.58249 0.02311 0.52813 0.0
O70 O 0.59547 0.06953 0.49746 0.0
O71 O 0.54396 0.05858 0.51742 0.0
H72 H 0.41099 0.92685 0.55248 0.0
H73 H 0.36123 0.86518 0.54676 0.0
H74 H 0.39738 0.85543 0.48659 0.0
H75 H 0.44699 0.91665 0.49239 0.0
H76 H 0.66638 0.11043 0.48978 0.0
H77 H 0.71344 0.17382 0.48838 0.0
H78 H 0.79999 0.11303 0.4769 0.0
H79 H 0.75268 0.04981 0.47832 0.0
Nd80 Nd 0.50538 0.50654 0.8321 0.0
Nd81 Nd 0.59201 0.52736 0.84841 0.0
C82 C 0.44272 0.50923 0.81323 0.0
C83 C 0.42782 0.5437 0.81071 0.0
C84 C 0.40487 0.54615 0.79423 0.0
C85 C 0.39191 0.57993 0.79207 0.0
C86 C 0.40285 0.61189 0.80605 0.0
C87 C 0.42633 0.60943 0.82224 0.0
C88 C 0.43826 0.57558 0.82467 0.0
C89 C 0.5174 0.50217 0.87171 0.0
C90 C 0.55424 0.60022 0.84227 0.0
C91 C 0.65293 0.53539 0.87085 0.0
C92 C 0.68752 0.52267 0.86782 0.0
C93 C 0.72183 0.54593 0.8759 0.0
C94 C 0.75576 0.53776 0.8706 0.0
C95 C 0.7559 0.50602 0.85716 0.0
C96 C 0.72122 0.4819 0.84963 0.0
C97 C 0.68727 0.49028 0.85485 0.0
C98 C 0.58793 0.51891 0.80753 0.0
C99 C 0.54385 0.43486 0.83695 0.0
O100 O 0.47416 0.51002 0.8041 0.0
O101 O 0.4433 0.49804 0.83145 0.0
O102 O 0.49001 0.47742 0.86172 0.0
O103 O 0.53597 0.52847 0.86112 0.0
O104 O 0.52337 0.57461 0.83486 0.0
O105 O 0.58375 0.58965 0.84937 0.0
O106 O 0.62182 0.50747 0.87299 0.0
O107 O 0.64852 0.56241 0.85901 0.0
O108 O 0.61984 0.52612 0.81745 0.0
O109 O 0.56184 0.51588 0.81953 0.0
O110 O 0.57042 0.45951 0.84829 0.0
O111 O 0.51839 0.44682 0.82645 0.0
H112 H 0.39664 0.52188 0.78326 0.0
H113 H 0.3731 0.58098 0.77969 0.0
H114 H 0.43399 0.63306 0.8336 0.0
H115 H 0.45513 0.5741 0.83775 0.0
H116 H 0.7225 0.5714 0.88566 0.0
H117 H 0.78197 0.55742 0.87638 0.0
H118 H 0.72036 0.45708 0.8394 0.0
H119 H 0.66094 0.47229 0.84824 0.0
C120 C 0.66778 0.09022 0.20289 0.0
C121 C 0.69788 0.11566 0.21404 0.0
C122 C 0.6977 0.11538 0.23488 0.0
C123 C 0.63947 0.06365 0.2333 0.0
C124 C 0.63901 0.0642 0.21285 0.0
C125 C 0.60545 0.03382 0.20358 0.0
H126 H 0.45084 0.8823 0.21685 0.0
C127 C 0.60702 0.03214 0.23916 0.0
C128 C 0.58702 0.01407 0.22184 0.0
H129 H 0.48789 0.93568 0.16179 0.0
H130 H 0.54198 0.98003 0.17906 0.0
H131 H 0.5293 0.87975 0.23378 0.0
H132 H 0.46448 0.96461 0.2424 0.0
H133 H 0.48135 0.95562 0.26577 0.0
H134 H 0.45074 0.91575 0.25116 0.0
H135 H 0.49141 0.87262 0.25089 0.0
H136 H 0.53928 0.89884 0.25831 0.0
C137 C 0.62022 1.00514 0.18981 0.0
C138 C 0.57981 0.05561 0.19293 0.0
C139 C 0.58455 1.0094 0.31228 0.0
C140 C 0.55921 0.98 0.32239 0.0
C141 C 0.53446 0.9488 0.3111 0.0
C142 C 0.53381 0.94784 0.29035 0.0
C143 C 0.55846 0.97806 0.28058 0.0
C144 C 0.58408 1.00746 0.29151 0.0
C145 C 0.61054 0.03498 0.27855 0.0
C146 C 0.5952 0.01832 0.25804 0.0
C147 C 0.56435 0.98545 0.25937 0.0
C148 C 0.65127 0.03108 0.28257 0.0
C149 C 0.60562 0.07692 0.28273 0.0
C150 C 0.47029 0.90375 0.20845 0.0
C151 C 0.46466 0.90572 0.18795 0.0
C152 C 0.4915 0.93342 0.1776 0.0
C153 C 0.52272 0.95937 0.18768 0.0
C154 C 0.52712 0.95768 0.20834 0.0
C155 C 0.50106 0.93003 0.21829 0.0
C156 C 0.50896 0.93288 0.24023 0.0
C157 C 0.54387 0.96719 0.24198 0.0
C158 C 0.55477 0.98157 0.22328 0.0
C159 C 0.51745 0.89404 0.24628 0.0
C160 C 0.47468 0.94249 0.2506 0.0
H161 H 0.67035 0.09107 0.2604 0.0
H162 H 0.6672 0.0899 0.18684 0.0
H163 H 0.57959 0.08344 0.20134 0.0
H164 H 0.54989 0.03859 0.19183 0.0
H165 H 0.58997 0.06326 0.17785 0.0
H166 H 0.64441 0.99704 0.19708 0.0
H167 H 0.63019 0.01879 0.17571 0.0
H168 H 0.59883 0.97714 0.1863 0.0
H169 H 0.60415 0.03384 0.32023 0.0
H170 H 0.51556 0.92483 0.31826 0.0
H171 H 0.514 0.92357 0.28273 0.0
H172 H 0.65116 1.00273 0.28919 0.0
H173 H 0.66747 0.05506 0.29298 0.0
H174 H 0.66724 0.03084 0.26879 0.0
H175 H 0.57514 0.07608 0.28387 0.0
H176 H 0.61626 0.09691 0.27079 0.0
H177 H 0.62012 0.09024 0.29691 0.0
H178 H 0.72017 0.13521 0.24376 0.0
C179 C 0.66871 0.0897 0.24453 0.0
C180 C 0.57554 0.61271 0.53319 0.0
C181 C 0.57464 0.64868 0.5431 0.0
C182 C 0.56947 0.64957 0.56372 0.0
C183 C 0.56883 0.58096 0.56466 0.0
C184 C 0.57276 0.57917 0.54433 0.0
C185 C 0.57409 0.53838 0.53679 0.0
H186 H 0.57928 0.35298 0.56031 0.0
C187 C 0.56828 0.54225 0.57221 0.0
C188 C 0.57135 0.51675 0.55602 0.0
H189 H 0.58092 0.39601 0.50145 0.0
H190 H 0.57623 0.45966 0.51535 0.0
H191 H 0.63496 0.42747 0.58048 0.0
H192 H 0.51386 0.3884 0.5755 0.0
H193 H 0.5244 0.40903 0.59971 0.0
H194 H 0.54129 0.36716 0.59182 0.0
H195 H 0.60787 0.38958 0.59516 0.0
H196 H 0.61862 0.44083 0.60334 0.0
C197 C 0.6123 0.54149 0.52676 0.0
C198 C 0.53936 0.52123 0.52282 0.0
C199 C 0.56282 0.52551 0.64664 0.0
C200 C 0.56464 0.49408 0.65842 0.0
C201 C 0.56688 0.45825 0.64899 0.0
C202 C 0.56759 0.45386 0.62832 0.0
C203 C 0.56635 0.4857 0.61678 0.0
C204 C 0.5639 0.5207 0.62597 0.0
C205 C 0.56383 0.55158 0.61135 0.0
C206 C 0.56661 0.52925 0.59185 0.0
C207 C 0.56798 0.49079 0.59518 0.0
C208 C 0.59941 0.58624 0.61589 0.0
C209 C 0.52561 0.56269 0.61282 0.0
C210 C 0.57911 0.37616 0.55034 0.0
C211 C 0.58117 0.36966 0.52981 0.0
C212 C 0.57959 0.40037 0.51737 0.0
C213 C 0.57694 0.43725 0.52547 0.0
C214 C 0.57545 0.44327 0.5462 0.0
C215 C 0.57619 0.41258 0.55811 0.0
C216 C 0.57347 0.42282 0.57966 0.0
C217 C 0.57101 0.46485 0.579 0.0
C218 C 0.57241 0.4773 0.55943 0.0
C219 C 0.61037 0.41985 0.59038 0.0
C220 C 0.53657 0.39542 0.58726 0.0
H221 H 0.56293 0.61929 0.59011 0.0
H222 H 0.57916 0.61101 0.51733 0.0
H223 H 0.51362 0.52781 0.5291 0.0
H224 H 0.53264 0.48892 0.52079 0.0
H225 H 0.54374 0.53412 0.50807 0.0
H226 H 0.63591 0.56023 0.53619 0.0
H227 H 0.61275 0.5549 0.51217 0.0
H228 H 0.61879 0.5128 0.52452 0.0
H229 H 0.56074 0.55336 0.65333 0.0
H230 H 0.56899 0.43374 0.65762 0.0
H231 H 0.5696 0.42591 0.62217 0.0
H232 H 0.62322 0.57564 0.62193 0.0
H233 H 0.59349 0.6079 0.62703 0.0
H234 H 0.61085 0.60159 0.60255 0.0
H235 H 0.50233 0.53678 0.61631 0.0
H236 H 0.51636 0.57241 0.5987 0.0
H237 H 0.52691 0.58593 0.62468 0.0
H238 H 0.56764 0.67643 0.57164 0.0
C239 C 0.56654 0.61616 0.57447 0.0
C240 C 0.22683 0.71444 0.86831 0.0
C241 C 0.26024 0.73184 0.87938 0.0
C242 C 0.26032 0.72818 0.90011 0.0
C243 C 0.19711 0.68419 0.89755 0.0
C244 C 0.19616 0.6904 0.87751 0.0
C245 C 0.16162 0.66478 0.86692 0.0
H246 H 1.00125 0.51923 0.86914 0.0
C247 C 0.16287 0.6529 0.90176 0.0
C248 C 0.14217 0.64153 0.88378 0.0
H249 H 1.04581 0.58795 0.81948 0.0
H250 H 0.10025 0.62351 0.83965 0.0
H251 H 0.08469 0.51029 0.88798 0.0
H252 H 1.01085 0.58573 0.89758 0.0
H253 H 1.03323 0.58559 0.92069 0.0
H254 H 1.00353 0.5402 0.90958 0.0
H255 H 1.03803 0.49495 0.89767 0.0
H256 H 0.07869 0.51568 0.91368 0.0
C257 C 0.17443 0.63818 0.85094 0.0
C258 C 0.13827 0.69177 0.85869 0.0
C259 C 0.1419 0.59834 0.97066 0.0
C260 C 0.11223 0.56923 0.97839 0.0
C261 C 0.08073 0.55096 0.96591 0.0
C262 C 0.07939 0.55997 0.94607 0.0
C263 C 0.10957 0.58805 0.93844 0.0
C264 C 0.13977 0.60749 0.95071 0.0
C265 C 0.16822 0.6379 0.93994 0.0
C266 C 0.15006 0.633 0.91923 0.0
C267 C 0.11611 0.60315 0.91848 0.0
C268 C 0.20626 0.62644 0.94017 0.0
C269 C 0.17033 0.67887 0.94987 0.0
C270 C 1.02352 0.54085 0.86239 0.0
C271 C 1.01991 0.55022 0.8426 0.0
C272 C 1.04846 0.57992 0.83462 0.0
C273 C 0.07969 0.60078 0.84644 0.0
C274 C 0.08201 0.59216 0.8665 0.0
C275 C 1.0543 0.56241 0.87407 0.0
C276 C 1.05958 0.55915 0.89595 0.0
C277 C 0.09551 0.59155 0.9003 0.0
C278 C 0.10853 0.61062 0.88303 0.0
C279 C 0.06537 0.51786 0.89918 0.0
C280 C 1.02505 0.56781 0.90661 0.0
H281 H 0.23113 0.70148 0.92494 0.0
H282 H 0.2258 0.71572 0.85233 0.0
H283 H 0.14073 0.71824 0.86877 0.0
H284 H 0.10762 0.67741 0.85754 0.0
H285 H 0.14831 0.70212 0.84395 0.0
H286 H 0.20019 0.62989 0.8561 0.0
H287 H 0.18128 0.65349 0.83693 0.0
H288 H 0.15332 0.60987 0.84763 0.0
H289 H 0.16645 0.61324 0.97978 0.0
H290 H 1.05673 0.52965 0.97149 0.0
H291 H 1.0548 0.54455 0.93745 0.0
H292 H 0.20143 0.59409 0.9376 0.0
H293 H 0.22146 0.63502 0.95471 0.0
H294 H 0.22512 0.63952 0.92833 0.0
H295 H 0.1418 0.681 0.9544 0.0
H296 H 0.18018 0.70299 0.9398 0.0
H297 H 0.18905 0.68453 0.96337 0.0
H298 H 0.28562 0.74149 0.90903 0.0
C299 C 0.22883 0.70455 0.90927 0.0
C300 C 0.98542 0.41442 0.4552 0.0
C301 C 0.95768 0.38653 0.44371 0.0
C302 C 0.95572 0.39021 0.42306 0.0
C303 C 1.01025 0.44634 0.4253 0.0
C304 C 1.01149 0.44401 0.44566 0.0
C305 C 1.04362 0.47572 0.45526 0.0
H306 H 0.20098 0.62482 0.44349 0.0
C307 C 1.04259 0.47824 0.41972 0.0
C308 C 1.06254 0.49562 0.43715 0.0
H309 H 0.14858 0.58646 0.4985 0.0
H310 H 0.09998 0.53617 0.48039 0.0
H311 H 0.1919 0.54063 0.42234 0.0
H312 H 0.12335 0.62284 0.42061 0.0
H313 H 0.12744 0.60542 0.39615 0.0
H314 H 0.16936 0.63154 0.41009 0.0
H315 H 0.20416 0.58301 0.40768 0.0
H316 H 0.17329 0.53698 0.39802 0.0
C317 C 0.06987 0.45586 0.46673 0.0
C318 C 1.02652 0.50363 0.46836 0.0
C319 C 1.06434 0.50377 0.34689 0.0
C320 C 0.09423 0.5278 0.3367 0.0
C321 C 0.12589 0.55082 0.34783 0.0
C322 C 0.12725 0.55071 0.36857 0.0
C323 C 0.09687 0.527 0.37845 0.0
C324 C 0.06654 0.5034 0.36758 0.0
C325 C 1.03828 0.47772 0.38044 0.0
C326 C 1.05602 0.49092 0.40091 0.0
C327 C 0.08997 0.52016 0.39966 0.0
C328 C 1.03703 0.43414 0.37482 0.0
C329 C 0.99997 0.48814 0.37781 0.0
C330 C 0.17936 0.60519 0.45166 0.0
C331 C 0.17877 0.60917 0.47241 0.0
C332 C 0.14957 0.5838 0.48249 0.0
C333 C 0.12143 0.55476 0.47196 0.0
C334 C 0.12223 0.5515 0.45113 0.0
C335 C 0.15083 0.57671 0.44138 0.0
C336 C 0.14631 0.57086 0.41924 0.0
C337 C 0.11007 0.53818 0.4172 0.0
C338 C 0.09623 0.52646 0.43589 0.0
C339 C 0.1807 0.55743 0.41124 0.0
C340 C 0.14157 0.6096 0.41091 0.0
H341 H 0.97879 0.42062 0.39807 0.0
H342 H 0.98746 0.41256 0.47112 0.0
H343 H 0.99879 0.50551 0.4621 0.0
H344 H 1.04426 0.53427 0.46916 0.0
H345 H 1.02177 0.49318 0.4836 0.0
H346 H 0.07557 0.43116 0.45751 0.0
H347 H 1.05661 0.44375 0.48056 0.0
H348 H 0.09777 0.47599 0.47064 0.0
H349 H 1.03943 0.48571 0.33905 0.0
H350 H 0.14995 0.56875 0.34053 0.0
H351 H 0.152 0.56905 0.37611 0.0
H352 H 1.06371 0.43137 0.36794 0.0
H353 H 1.0135 0.42073 0.36404 0.0
H354 H 1.03441 0.4159 0.38788 0.0
H355 H 1.00442 0.52048 0.37706 0.0
H356 H 0.98107 0.47982 0.39037 0.0
H357 H 0.98492 0.474 0.3639 0.0
H358 H 0.93402 0.36987 0.41394 0.0
C359 C 0.98174 0.41982 0.41384 0.0
C360 C 0.5506 0.90587 0.81335 0.0
C361 C 0.55467 0.87063 0.80374 0.0
C362 C 0.56394 0.87112 0.78355 0.0
C363 C 0.56095 0.93856 0.78219 0.0
C364 C 0.55407 0.93965 0.80224 0.0
C365 C 0.55139 0.98024 0.80951 0.0
H366 H 0.55641 0.16823 0.78485 0.0
C367 C 0.5615 0.97707 0.77444 0.0
C368 C 0.55633 1.00228 0.79033 0.0
H369 H 0.54453 0.12461 0.84369 0.0
H370 H 0.54549 0.05931 0.83025 0.0
H371 H 0.61945 0.12851 0.77136 0.0
H372 H 0.49854 0.09605 0.76404 0.0
H373 H 0.51526 0.08005 0.74183 0.0
H374 H 0.52833 0.13179 0.74923 0.0
H375 H 0.59462 0.15196 0.75472 0.0
H376 H 0.60965 0.10891 0.74693 0.0
C377 C 0.58424 0.99749 0.8246 0.0
C378 C 0.51194 0.97659 0.81817 0.0
C379 C 0.57302 0.99356 0.70015 0.0
C380 C 0.57346 0.02533 0.68824 0.0
C381 C 0.57069 0.06125 0.69731 0.0
C382 C 0.56751 0.06546 0.71786 0.0
C383 C 0.56709 0.03345 0.7296 0.0
C384 C 0.56984 0.9983 0.72071 0.0
C385 C 0.5691 0.9676 0.73552 0.0
C386 C 0.56485 0.99001 0.75478 0.0
C387 C 0.5638 0.02842 0.75118 0.0
C388 C 0.60751 0.95654 0.73488 0.0
C389 C 0.5339 0.93291 0.73047 0.0
C390 C 0.55448 0.14488 0.79498 0.0
C391 C 0.55123 0.15187 0.81537 0.0
C392 C 0.54741 0.12008 0.82789 0.0
C393 C 0.54823 0.08233 0.82008 0.0
C394 C 0.55269 0.07634 0.79956 0.0
C395 C 0.55526 0.10757 0.7875 0.0
C396 C 0.55924 0.097 0.76612 0.0
C397 C 0.55973 0.05445 0.76709 0.0
C398 C 0.55584 0.04184 0.78665 0.0
C399 C 0.59751 0.12296 0.75923 0.0
C400 C 0.52379 0.10162 0.75455 0.0
H401 H 0.57333 0.90213 0.75749 0.0
H402 H 0.54427 0.90692 0.82894 0.0
H403 H 0.48956 0.95807 0.80796 0.0
H404 H 0.50525 1.00525 0.82018 0.0
H405 H 0.5097 0.96271 0.83269 0.0
H406 H 0.61113 0.99257 0.81898 0.0
H407 H 0.57865 0.98324 0.83898 0.0
H408 H 0.58949 0.02954 0.82731 0.0
H409 H 0.57558 0.96572 0.69366 0.0
H410 H 0.57054 0.08604 0.68844 0.0
H411 H 0.56549 0.09358 0.72377 0.0
H412 H 0.63026 0.98036 0.72893 0.0
H413 H 0.60538 0.92951 0.72533 0.0
H414 H 0.61828 0.95244 0.74983 0.0
H415 H 0.50919 0.94399 0.72624 0.0
H416 H 0.5244 0.91434 0.74307 0.0
H417 H 0.5393 0.91403 0.71781 0.0
H418 H 0.56906 0.84541 0.77587 0.0
C419 C 0.56682 0.90446 0.77282 0.0
C420 C 0.68262 0.50929 0.14353 0.0
C421 C 0.71586 0.50841 0.13264 0.0
C422 C 0.7137 0.51029 0.11195 0.0
C423 C 0.64758 0.51089 0.11261 0.0
C424 C 0.64841 0.51049 0.13306 0.0
C425 C 0.6091 0.5109 0.14092 0.0
H426 H 0.42471 0.51498 0.11307 0.0
C427 C 0.60921 0.51116 0.10541 0.0
C428 C 0.58559 0.51169 0.1218 0.0
H429 H 0.4616 0.50999 0.17352 0.0
H430 H 0.526 0.51126 0.1621 0.0
H431 H 0.49475 0.57751 0.10029 0.0
H432 H 0.45882 0.45188 0.09644 0.0
H433 H 0.48191 0.4636 0.07422 0.0
H434 H 0.44104 0.48139 0.07979 0.0
H435 H 0.45996 0.55042 0.08238 0.0
H436 H 0.50972 0.56449 0.07703 0.0
C437 C 0.61262 0.54814 0.15436 0.0
C438 C 0.59293 0.47325 0.15193 0.0
C439 C 0.58378 0.50153 0.03056 0.0
C440 C 0.55161 0.50176 0.01891 0.0
C441 C 0.51941 0.50766 0.02846 0.0
C442 C 0.51857 0.51156 0.04908 0.0
C443 C 0.55036 0.50995 0.0606 0.0
C444 C 0.58249 0.50591 0.05131 0.0
C445 C 0.61411 0.50701 0.06596 0.0
C446 C 0.59491 0.51041 0.08566 0.0
C447 C 0.55769 0.51188 0.0823 0.0
C448 C 0.64645 0.54436 0.06245 0.0
C449 C 0.62515 0.4675 0.0632 0.0
C450 C 0.44605 0.51374 0.12413 0.0
C451 C 0.43707 0.51154 0.14416 0.0
C452 C 0.46711 0.5114 0.15784 0.0
C453 C 0.50441 0.51196 0.15123 0.0
C454 C 0.51209 0.51296 0.13074 0.0
C455 C 0.48245 0.514 0.11791 0.0
C456 C 0.49283 0.51411 0.09676 0.0
C457 C 0.53362 0.51294 0.09839 0.0
C458 C 0.54639 0.51254 0.11828 0.0
C459 C 0.48894 0.5534 0.08851 0.0
C460 C 0.46737 0.4761 0.08608 0.0
H461 H 0.68176 0.51211 0.08632 0.0
H462 H 0.68307 0.50823 0.15951 0.0
H463 H 0.59239 0.4468 0.14218 0.0
H464 H 0.56365 0.47116 0.15655 0.0
H465 H 0.61055 0.47256 0.16538 0.0
H466 H 0.62588 0.57484 0.1463 0.0
H467 H 0.63046 0.54775 0.16776 0.0
H468 H 0.5846 0.55068 0.15922 0.0
H469 H 0.6092 0.49747 0.02378 0.0
H470 H 0.49466 0.50949 0.01997 0.0
H471 H 0.49284 0.5154 0.05515 0.0
H472 H 0.636 0.56681 0.05467 0.0
H473 H 0.66891 0.53713 0.05329 0.0
H474 H 0.65933 0.55985 0.07652 0.0
H475 H 0.59962 0.44267 0.06001 0.0
H476 H 0.63841 0.45942 0.0766 0.0
H477 H 0.64446 0.46809 0.05062 0.0
H478 H 0.73826 0.51063 0.10311 0.0
C479 C 0.68042 0.51143 0.10207 0.0
C480 C 0.21197 0.48637 0.16699 0.0
C481 C 0.19842 0.51356 0.15629 0.0
C482 C 0.25074 0.48613 0.16719 0.0
C483 C 0.27736 0.51338 0.15623 0.0
C484 C 0.26392 0.54125 0.14562 0.0
C485 C 0.22508 0.54115 0.14587 0.0
C486 C 0.26313 0.45613 0.17898 0.0
C487 C 0.29051 0.57074 0.13351 0.0
C488 C 0.38615 0.53205 0.16497 0.0
C489 C 0.39611 0.50873 0.14954 0.0
C490 C 0.34787 0.53329 0.16766 0.0
C491 C 0.31834 0.51088 0.15461 0.0
C492 C 0.32821 0.48629 0.13952 0.0
C493 C 0.36634 0.48529 0.13733 0.0
C494 C 0.33917 0.55952 0.1842 0.0
C495 C 0.2985 0.46172 0.12513 0.0
H496 H 0.19217 0.46497 0.17525 0.0
H497 H 0.21549 0.56243 0.13753 0.0
H498 H 0.27277 0.43533 0.1688 0.0
H499 H 0.28746 0.47087 0.18901 0.0
H500 H 0.24002 0.43905 0.188 0.0
H501 H 0.27641 0.59163 0.12682 0.0
H502 H 0.31491 0.58774 0.1429 0.0
H503 H 0.30192 0.55509 0.12144 0.0
H504 H 0.40843 0.55052 0.17451 0.0
H505 H 0.37303 0.46649 0.12553 0.0
H506 H 0.31589 0.5427 0.19317 0.0
H507 H 0.3294 0.58377 0.17785 0.0
H508 H 0.36421 0.57247 0.19411 0.0
H509 H 0.27589 0.44182 0.13329 0.0
H510 H 0.3104 0.44367 0.11436 0.0
H511 H 0.28507 0.48114 0.11677 0.0
C512 C 0.82509 0.19352 0.48953 0.0
C513 C 0.78888 0.18664 0.4807 0.0
C514 C 0.85331 0.22799 0.48628 0.0
C515 C 0.84522 0.25602 0.47373 0.0
C516 C 0.80823 0.25003 0.4655 0.0
C517 C 0.78048 0.21548 0.46914 0.0
C518 C 0.89224 0.23352 0.49553 0.0
C519 C 0.79849 0.27906 0.45194 0.0
C520 C 0.91218 0.35802 0.47009 0.0
C521 C 0.93123 0.35281 0.45272 0.0
C522 C 0.88475 0.32653 0.47752 0.0
C523 C 0.87628 0.28912 0.4673 0.0
C524 C 0.89646 0.28348 0.45018 0.0
C525 C 0.92374 0.31528 0.44319 0.0
C526 C 0.86404 0.33353 0.49592 0.0
C527 C 0.88849 0.24408 0.43887 0.0
H528 H 0.83153 0.1716 0.49874 0.0
H529 H 0.75263 0.21021 0.46216 0.0
H530 H 0.91241 0.23049 0.48384 0.0
H531 H 0.90252 0.26349 0.50266 0.0
H532 H 0.89269 0.21163 0.50678 0.0
H533 H 0.76771 0.27199 0.44827 0.0
H534 H 0.80753 0.30928 0.45887 0.0
H535 H 0.81394 0.27896 0.43793 0.0
H536 H 0.91781 0.38698 0.47749 0.0
H537 H 0.93899 0.31086 0.43001 0.0
H538 H 0.8649 0.31111 0.50679 0.0
H539 H 0.83385 0.33055 0.49202 0.0
H540 H 0.87619 0.36322 0.5031 0.0
H541 H 0.8919 0.22107 0.44887 0.0
H542 H 0.90747 0.24435 0.42617 0.0
H543 H 0.85877 0.23556 0.43313 0.0
C544 C 0.58731 0.66911 0.83471 0.0
C545 C 0.55572 0.64254 0.84207 0.0
C546 C 0.58688 0.70821 0.83163 0.0
C547 C 0.55454 0.72134 0.83665 0.0
C548 C 0.52381 0.69527 0.84557 0.0
C549 C 0.52444 0.65597 0.84779 0.0
C550 C 0.61997 0.73459 0.82173 0.0
C551 C 0.48919 0.70815 0.85156 0.0
C552 C 0.56458 0.83168 0.83313 0.0
C553 C 0.54969 0.83287 0.81395 0.0
C554 C 0.56477 0.79547 0.84122 0.0
C555 C 0.55051 0.7598 0.82971 0.0
C556 C 0.53378 0.76087 0.81079 0.0
C557 C 0.5329 0.79711 0.80341 0.0
C558 C 0.58163 0.79552 0.86173 0.0
C559 C 0.51929 0.72413 0.79753 0.0
H560 H 0.61148 0.65868 0.83023 0.0
H561 H 0.50019 0.63555 0.85375 0.0
H562 H 0.61106 0.74032 0.80662 0.0
H563 H 0.6295 0.76338 0.8301 0.0
H564 H 0.6443 0.72132 0.82044 0.0
H565 H 0.47077 0.68693 0.86119 0.0
H566 H 0.49732 0.73755 0.85945 0.0
H567 H 0.4726 0.71062 0.83807 0.0
H568 H 0.5775 0.85898 0.84147 0.0
H569 H 0.52021 0.79743 0.78883 0.0
H570 H 0.60918 0.78805 0.86064 0.0
H571 H 0.5629 0.77287 0.87051 0.0
H572 H 0.58635 0.82461 0.86982 0.0
H573 H 0.54365 0.71665 0.79021 0.0
H574 H 0.49936 0.72834 0.78578 0.0
H575 H 0.50494 0.6986 0.80602 0.0
C576 C 0.93965 0.53703 0.13818 0.0
C577 C 0.95451 0.51439 0.15121 0.0
C578 C 0.9005 0.53563 0.13735 0.0
C579 C 0.87483 0.51165 0.15015 0.0
C580 C 0.88984 0.48946 0.16369 0.0
C581 C 0.929 0.49073 0.1639 0.0
C582 C 0.88642 0.55924 0.12231 0.0
C583 C 0.8644 0.464 0.17796 0.0
C584 C 0.77601 0.53303 0.15469 0.0
C585 C 0.75342 0.50466 0.14118 0.0
C586 C 0.81487 0.53465 0.15849 0.0
C587 C 0.83225 0.5078 0.14833 0.0
C588 C 0.80896 0.47806 0.13545 0.0
C589 C 0.77031 0.47665 0.13227 0.0
C590 C 0.83777 0.56627 0.17279 0.0
C591 C 0.82535 0.44885 0.12399 0.0
H592 H 0.95858 0.55539 0.12821 0.0
H593 H 0.9397 0.47321 0.17418 0.0
H594 H 0.86557 0.53919 0.11193 0.0
H595 H 0.87167 0.5794 0.12986 0.0
H596 H 0.90968 0.57688 0.11358 0.0
H597 H 0.88051 0.45104 0.18863 0.0
H598 H 0.84806 0.48152 0.18637 0.0
H599 H 0.84368 0.43974 0.16963 0.0
H600 H 0.76393 0.55525 0.16151 0.0
H601 H 0.75352 0.45458 0.12175 0.0
H602 H 0.85806 0.58846 0.16448 0.0
H603 H 0.8545 0.55356 0.18322 0.0
H604 H 0.81963 0.58142 0.18145 0.0
H605 H 0.84684 0.46462 0.11375 0.0
H606 H 0.80343 0.42651 0.11517 0.0
H607 H 0.83988 0.43347 0.13423 0.0
C608 C 0.32212 0.81368 0.49504 0.0
C609 C 0.34479 0.8189 0.51237 0.0
C610 C 0.29428 0.77851 0.49066 0.0
C611 C 0.28916 0.74757 0.50384 0.0
C612 C 0.31147 0.7529 0.52156 0.0
C613 C 0.33894 0.78864 0.52567 0.0
C614 C 0.27082 0.77421 0.4717 0.0
C615 C 0.30706 0.72049 0.53587 0.0
C616 C 0.19675 0.66819 0.49609 0.0
C617 C 0.20767 0.64124 0.48308 0.0
C618 C 0.22332 0.70223 0.50375 0.0
C619 C 0.26168 0.70914 0.4984 0.0
C620 C 0.27315 0.68075 0.48623 0.0
C621 C 0.24596 0.64727 0.47863 0.0
C622 C 0.20994 0.73187 0.51659 0.0
C623 C 0.31382 0.6867 0.48038 0.0
H624 H 0.32621 0.83724 0.48487 0.0
H625 H 0.3566 0.79249 0.53902 0.0
H626 H 0.27642 0.75041 0.46184 0.0
H627 H 0.24026 0.76575 0.475 0.0
H628 H 0.27701 0.80173 0.46356 0.0
H629 H 0.32503 0.73006 0.54952 0.0
H630 H 0.27712 0.71019 0.54015 0.0
H631 H 0.3149 0.69497 0.52858 0.0
H632 H 0.1671 0.66373 0.49941 0.0
H633 H 0.25447 0.62624 0.46871 0.0
H634 H 0.21179 0.75873 0.5083 0.0
H635 H 0.22835 0.74075 0.5301 0.0
H636 H 0.18024 0.72028 0.52113 0.0
H637 H 0.32165 0.71158 0.47045 0.0
H638 H 0.31875 0.66013 0.47255 0.0
H639 H 0.33296 0.69438 0.49367 0.0
C640 C 0.56363 0.37763 0.85031 0.0
C641 C 0.54277 0.39227 0.83628 0.0
C642 C 0.56422 0.33784 0.84947 0.0
C643 C 0.54384 0.31194 0.83409 0.0
C644 C 0.522 0.32631 0.82017 0.0
C645 C 0.52156 0.36616 0.82149 0.0
C646 C 0.58754 0.32378 0.86474 0.0
C647 C 0.50011 0.29986 0.80342 0.0
C648 C 0.57896 0.22461 0.81553 0.0
C649 C 0.55217 0.19261 0.82288 0.0
C650 C 0.57711 0.26345 0.81955 0.0
C651 C 0.54795 0.27086 0.83144 0.0
C652 C 0.52204 0.23889 0.83986 0.0
C653 C 0.52443 0.20008 0.83547 0.0
C654 C 0.6055 0.29647 0.81032 0.0
C655 C 0.49088 0.24556 0.85285 0.0
H656 H 0.5798 0.39735 0.86196 0.0
H657 H 0.50534 0.37707 0.81059 0.0
H658 H 0.57041 0.29683 0.8713 0.0
H659 H 0.61186 0.31604 0.85753 0.0
H660 H 0.59862 0.34644 0.87686 0.0
H661 H 0.48281 0.31483 0.79451 0.0
H662 H 0.52004 0.28994 0.79347 0.0
H663 H 0.48114 0.2732 0.80935 0.0
H664 H 0.60087 0.2191 0.80605 0.0
H665 H 0.50357 0.17554 0.84113 0.0
H666 H 0.6198 0.31894 0.82191 0.0
H667 H 0.5907 0.31119 0.79985 0.0
H668 H 0.62739 0.28594 0.80214 0.0
H669 H 0.5026 0.2686 0.86467 0.0
H670 H 0.47549 0.2183 0.85985 0.0
H671 H 0.47034 0.25619 0.84383 0.0
C672 C 0.59685 0.86097 0.49658 0.0
C673 C 0.57072 0.87711 0.50672 0.0
C674 C 0.59836 0.82198 0.49919 0.0
C675 C 0.57348 0.79868 0.51243 0.0
C676 C 0.54618 0.81438 0.52213 0.0
C677 C 0.54503 0.8532 0.51909 0.0
C678 C 0.62748 0.8062 0.48833 0.0
C679 C 0.51924 0.7908 0.53648 0.0
C680 C 0.55701 0.68766 0.51578 0.0
C681 C 0.5791 0.68591 0.53268 0.0
C682 C 0.55641 0.72415 0.50822 0.0
C683 C 0.57828 0.75956 0.51786 0.0
C684 C 0.6024 0.75763 0.53414 0.0
C685 C 0.60268 0.72095 0.54123 0.0
C686 C 0.53081 0.72488 0.49062 0.0
C687 C 0.62626 0.79445 0.54492 0.0
H688 H 0.61663 0.87901 0.48685 0.0
H689 H 0.52459 0.86518 0.52695 0.0
H690 H 0.64957 0.80282 0.49901 0.0
H691 H 0.61423 0.77669 0.48126 0.0
H692 H 0.64137 0.82597 0.47675 0.0
H693 H 0.49809 0.80624 0.54181 0.0
H694 H 0.50398 0.76191 0.52939 0.0
H695 H 0.53543 0.78496 0.5495 0.0
H696 H 0.53871 0.66072 0.50911 0.0
H697 H 0.62034 0.71974 0.55409 0.0
H698 H 0.54589 0.74569 0.47977 0.0
H699 H 0.50618 0.73528 0.49561 0.0
H700 H 0.52016 0.69532 0.48303 0.0
H701 H 0.64355 0.81415 0.5343 0.0
H702 H 0.64547 0.78788 0.5564 0.0
H703 H 0.60757 0.81078 0.55223 0.0
C704 C 0.79725 0.49166 0.82998 0.0
C705 C 0.79235 0.50016 0.85015 0.0
C706 C 0.83311 0.49182 0.82284 0.0
C707 C 0.86474 0.50167 0.83613 0.0
C708 C 0.85952 0.50787 0.85667 0.0
C709 C 0.82332 0.50651 0.86342 0.0
C710 C 0.83711 0.48365 0.80097 0.0
C711 C 0.89247 0.51827 0.87146 0.0
C712 C 0.96434 0.49452 0.83274 0.0
C713 C 0.98289 0.53459 0.83228 0.0
C714 C 0.92482 0.48177 0.83079 0.0
C715 C 0.90391 0.51002 0.82888 0.0
C716 C 0.92293 0.54936 0.82524 0.0
C717 C 0.96247 0.56118 0.82686 0.0
C718 C 0.90544 0.4391 0.83341 0.0
C719 C 0.90165 0.58025 0.82264 0.0
H720 H 0.77347 0.48674 0.81957 0.0
H721 H 0.81949 0.51192 0.87909 0.0
H722 H 0.84209 0.51159 0.79329 0.0
H723 H 0.8612 0.4707 0.79803 0.0
H724 H 0.81083 0.46337 0.79441 0.0
H725 H 0.88335 0.52166 0.88692 0.0
H726 H 0.90804 0.49516 0.87086 0.0
H727 H 0.91256 0.54628 0.86772 0.0
H728 H 0.98033 0.47382 0.83655 0.0
H729 H 0.97683 0.59215 0.82636 0.0
H730 H 0.8791 0.42952 0.82411 0.0
H731 H 0.89763 0.43507 0.84913 0.0
H732 H 0.92431 0.41991 0.82954 0.0
H733 H 0.87712 0.56911 0.81223 0.0
H734 H 0.92 0.60766 0.81701 0.0
H735 H 0.89065 0.5876 0.83716 0.0
C736 C 0.29381 0.72546 0.15337 0.0
C737 C 0.26404 0.73552 0.14336 0.0
C738 C 0.32783 0.75371 0.15833 0.0
C739 C 0.33259 0.79294 0.15285 0.0
C740 C 0.30365 0.80279 0.14167 0.0
C741 C 0.26963 0.77406 0.13719 0.0
C742 C 0.35787 0.74198 0.17035 0.0
C743 C 0.30786 0.84413 0.13528 0.0
C744 C 0.39562 0.87136 0.18745 0.0
C745 C 0.43033 0.87933 0.17784 0.0
C746 C 0.36358 0.84387 0.17928 0.0
C747 C 0.36588 0.82429 0.16076 0.0
C748 C 0.40026 0.83348 0.15046 0.0
C749 C 0.43219 0.86078 0.15918 0.0
C750 C 0.32755 0.83493 0.19081 0.0
C751 C 0.40358 0.81371 0.13052 0.0
H752 H 0.29022 0.69555 0.15775 0.0
H753 H 0.24684 0.78233 0.12956 0.0
H754 H 0.38568 0.75134 0.16327 0.0
H755 H 0.36078 0.75706 0.18531 0.0
H756 H 0.35107 0.70974 0.17212 0.0
H757 H 0.28533 0.84575 0.1244 0.0
H758 H 0.30642 0.86373 0.14842 0.0
H759 H 0.33582 0.85564 0.1286 0.0
H760 H 0.39357 0.88634 0.20161 0.0
H761 H 0.45886 0.86666 0.15166 0.0
H762 H 0.31973 0.80351 0.19443 0.0
H763 H 0.30395 0.83994 0.1817 0.0
H764 H 0.33027 0.85326 0.20485 0.0
H765 H 0.40094 0.78198 0.13222 0.0
H766 H 0.43103 0.82676 0.1236 0.0
H767 H 0.38027 0.81593 0.12032 0.0
C768 C 0.59591 0.15085 0.49551 0.0
C769 C 0.57152 0.12536 0.50785 0.0
C770 C 0.59875 0.19149 0.49645 0.0
C771 C 0.57668 0.20714 0.51005 0.0
C772 C 0.55139 0.18143 0.5222 0.0
C773 C 0.54907 0.14095 0.52092 0.0
C774 C 0.62594 0.21778 0.48318 0.0
C775 C 0.5275 0.19683 0.537 0.0
C776 C 0.60928 0.31232 0.53142 0.0
C777 C 0.58426 0.33039 0.52202 0.0
C778 C 0.60825 0.27278 0.52699 0.0
C779 C 0.58166 0.25056 0.51266 0.0
C780 C 0.55796 0.26929 0.50218 0.0
C781 C 0.55952 0.30905 0.50699 0.0
C782 C 0.63422 0.25423 0.53847 0.0
C783 C 0.52952 0.2468 0.48665 0.0
H784 H 0.61299 0.13911 0.48514 0.0
H785 H 0.53009 0.12162 0.5305 0.0
H786 H 0.61092 0.23543 0.47455 0.0
H787 H 0.64837 0.23875 0.49233 0.0
H788 H 0.63961 0.20085 0.4727 0.0
H789 H 0.50807 0.17286 0.54475 0.0
H790 H 0.54609 0.217 0.54827 0.0
H791 H 0.51045 0.21398 0.52945 0.0
H792 H 0.62887 0.32886 0.54286 0.0
H793 H 0.54002 0.32277 0.49973 0.0
H794 H 0.64958 0.23876 0.5282 0.0
H795 H 0.61724 0.23197 0.5481 0.0
H796 H 0.65527 0.27621 0.54796 0.0
H797 H 0.54309 0.22997 0.47609 0.0
H798 H 0.5165 0.26648 0.4782 0.0
H799 H 0.50672 0.22525 0.49389 0.0
C800 C 0.40866 0.68392 0.80859 0.0
C801 C 0.38562 0.64537 0.80616 0.0
C802 C 0.39441 0.71423 0.81687 0.0
C803 C 0.35662 0.70513 0.82314 0.0
C804 C 0.33195 0.66766 0.81781 0.0
C805 C 0.34686 0.63817 0.80926 0.0
C806 C 0.42075 0.75463 0.82086 0.0
C807 C 0.29096 0.65694 0.8236 0.0
C808 C 0.3255 0.72687 0.87352 0.0
C809 C 0.29605 0.74358 0.86847 0.0
C810 C 0.35019 0.71946 0.8591 0.0
C811 C 0.34521 0.72931 0.8393 0.0
C812 C 0.32076 0.75326 0.83521 0.0
C813 C 0.2964 0.76036 0.84997 0.0
C814 C 0.37714 0.69527 0.86443 0.0
C815 C 0.3163 0.76676 0.81467 0.0
H816 H 0.43849 0.68951 0.80567 0.0
H817 H 0.32903 0.60837 0.80723 0.0
H818 H 0.40593 0.77775 0.81823 0.0
H819 H 0.43066 0.75828 0.8366 0.0
H820 H 0.44596 0.75926 0.81142 0.0
H821 H 0.27488 0.62822 0.81659 0.0
H822 H 0.28926 0.65509 0.83994 0.0
H823 H 0.27701 0.67982 0.81926 0.0
H824 H 0.32613 0.71451 0.88787 0.0
H825 H 0.27464 0.77482 0.84622 0.0
H826 H 0.4051 0.70707 0.85788 0.0
H827 H 0.36576 0.66457 0.85837 0.0
H828 H 0.38124 0.69465 0.88073 0.0
H829 H 0.3418 0.76819 0.80577 0.0
H830 H 0.31042 0.79615 0.81547 0.0
H831 H 0.29179 0.7459 0.80687 0.0
C832 C 0.86797 0.29613 0.19465 0.0
C833 C 0.89153 0.2914 0.17907 0.0
C834 C 0.83441 0.26735 0.19786 0.0
C835 C 0.82421 0.23281 0.18525 0.0
C836 C 0.84704 0.2286 0.16897 0.0
C837 C 0.88042 0.25802 0.16604 0.0
C838 C 0.8107 0.27319 0.21528 0.0
C839 C 0.83722 0.19219 0.15524 0.0
C840 C 0.76718 0.14386 0.21064 0.0
C841 C 0.7301 0.14231 0.20442 0.0
C842 C 0.79812 0.17209 0.20379 0.0
C843 C 0.79189 0.19967 0.19042 0.0
C844 C 0.75465 0.19709 0.18332 0.0
C845 C 0.7241 0.16825 0.19037 0.0
C846 C 0.83737 0.17345 0.21157 0.0
C847 C 0.74689 0.22592 0.16904 0.0
H848 H 0.87613 0.3222 0.20455 0.0
H849 H 0.89862 0.25411 0.15403 0.0
H850 H 0.78071 0.26849 0.21042 0.0
H851 H 0.81162 0.25121 0.22639 0.0
H852 H 0.82072 0.30305 0.22261 0.0
H853 H 0.85537 0.19535 0.14206 0.0
H854 H 0.84086 0.16668 0.16333 0.0
H855 H 0.80718 0.18539 0.15014 0.0
H856 H 0.77189 0.12342 0.2213 0.0
H857 H 0.69543 0.16716 0.1856 0.0
H858 H 0.84874 0.20101 0.22079 0.0
H859 H 0.85676 0.17355 0.1991 0.0
H860 H 0.83766 0.14814 0.22073 0.0
H861 H 0.75259 0.25554 0.17663 0.0
H862 H 0.71713 0.21743 0.16331 0.0
H863 H 0.76602 0.22825 0.15632 0.0
C864 C 1.05968 0.51707 0.08846 0.0
C865 C 0.0838 0.4989 0.09841 0.0
C866 C 0.06732 0.52966 0.06921 0.0
C867 C 0.10052 0.52504 0.05999 0.0
C868 C 0.12565 0.50787 0.0703 0.0
C869 C 0.11664 0.49438 0.08931 0.0
C870 C 1.03931 0.54689 0.05854 0.0
C871 C 0.1619 0.50364 0.06122 0.0
C872 C 0.09739 0.51837 0.00387 0.0
C873 C 0.11321 0.55761 -0.0007 0.0
C874 C 0.0937 0.50733 0.02353 0.0
C875 C 0.10747 0.53589 0.03911 0.0
C876 C 0.1257 0.57503 0.03467 0.0
C877 C 0.12795 0.58557 0.01481 0.0
C878 C 0.07357 0.4654 0.02762 0.0
C879 C 0.14174 0.60602 0.05091 0.0
H880 H 1.03435 0.52066 0.09558 0.0
H881 H 0.13561 0.48091 0.0972 0.0
H882 H 1.05345 0.57684 0.05398 0.0
H883 H 1.02832 0.52861 0.04484 0.0
H884 H 1.01499 0.54865 0.06786 0.0
H885 H 0.17987 0.49277 0.07182 0.0
H886 H 0.15536 0.48279 0.04805 0.0
H887 H 0.17836 0.53236 0.05607 0.0
H888 H 0.08707 0.49619 0.99202 0.0
H889 H 0.14016 0.61597 0.01153 0.0
H890 H 1.04787 0.46493 0.03622 0.0
H891 H 0.09205 0.45223 0.03673 0.0
H892 H 1.06498 0.44664 0.0138 0.0
H893 H 0.11834 0.6129 0.05939 0.0
H894 H 0.15899 0.63366 0.04496 0.0
H895 H 0.15957 0.59498 0.06148 0.0
C896 C 0.55812 0.96223 0.44043 0.0
C897 C 0.54593 0.9929 0.44973 0.0
C898 C 0.56138 0.95983 0.41976 0.0
C899 C 0.55358 0.98964 0.40833 0.0
C900 C 0.54263 0.02148 0.41783 0.0
C901 C 0.53825 0.02233 0.43842 0.0
C902 C 0.57196 0.9248 0.41012 0.0
C903 C 0.53534 0.0545 0.40623 0.0
C904 C 0.59106 0.99862 0.35613 0.0
C905 C 0.55813 0.98196 0.34451 0.0
C906 C 0.58994 1.00184 0.3769 0.0
C907 C 0.55537 0.98673 0.38637 0.0
C908 C 0.52224 0.96908 0.37485 0.0
C909 C 0.52386 0.96762 0.35411 0.0
C910 C 0.62567 0.02181 0.3887 0.0
C911 C 0.48497 0.9518 0.38442 0.0
H912 H 0.56391 0.93941 0.44925 0.0
H913 H 0.52923 0.04626 0.44574 0.0
H914 H 0.5488 0.90844 0.39978 0.0
H915 H 0.59763 0.93466 0.40126 0.0
H916 H 0.57738 0.90434 0.42115 0.0
H917 H 0.52996 0.07856 0.41602 0.0
H918 H 0.55994 0.06691 0.39696 0.0
H919 H 0.51047 0.04308 0.39605 0.0
H920 H 0.61791 1.00911 0.34907 0.0
H921 H 0.49796 0.95558 0.34546 0.0
H922 H 0.63336 1.00084 0.39869 0.0
H923 H 0.62093 0.04654 0.39819 0.0
H924 H 0.64993 0.03339 0.37905 0.0
H925 H 0.48842 0.93029 0.39532 0.0
H926 H 0.46242 0.93678 0.37341 0.0
H927 H 0.47549 0.97534 0.39264 0.0
C928 C 0.6097 0.50241 0.77432 0.0
C929 C 0.58338 0.5153 0.78582 0.0
C930 C 0.60571 0.49889 0.75357 0.0
C931 C 0.57506 0.5093 0.74421 0.0
C932 C 0.5487 0.52288 0.75584 0.0
C933 C 0.55318 0.52562 0.77655 0.0
C934 C 0.63415 0.48389 0.74168 0.0
C935 C 0.51607 0.53497 0.74641 0.0
C936 C 0.58655 0.53388 0.69017 0.0
C937 C 0.56552 0.49881 0.68043 0.0
C938 C 0.5892 0.53801 0.71094 0.0
C939 C 0.57077 0.50615 0.72225 0.0
C940 C 0.54905 0.4709 0.71256 0.0
C941 C 0.54647 0.46775 0.69178 0.0
C942 C 0.61232 0.57622 0.72077 0.0
C943 C 0.52906 0.43626 0.72414 0.0
H944 H 0.63315 0.49459 0.78157 0.0
H945 H 0.53371 0.53693 0.78548 0.0
H946 H 0.61949 0.45726 0.73247 0.0
H947 H 0.6485 0.50639 0.73142 0.0
H948 H 0.65598 0.47647 0.75125 0.0
H949 H 0.4978 0.54436 0.75759 0.0
H950 H 0.52703 0.5596 0.73664 0.0
H951 H 0.49844 0.51018 0.73697 0.0
H952 H 0.60179 0.55785 0.68156 0.0
H953 H 0.52959 0.44082 0.68441 0.0
H954 H 0.6368 0.57103 0.72906 0.0
H955 H 0.59505 0.58792 0.73164 0.0
H956 H 0.62309 0.5989 0.70989 0.0
H957 H 0.55003 0.42622 0.73314 0.0
H958 H 0.51289 0.41111 0.71437 0.0
H959 H 0.50928 0.4451 0.73458 0.0
C960 C 0.56668 0.02396 0.56996 0.0
C961 C 0.59424 1.00743 0.56167 0.0
C962 C 0.56214 0.02573 0.59054 0.0
C963 C 0.5858 0.01066 0.60305 0.0
C964 C 0.61325 0.99335 0.5947 0.0
C965 C 0.6171 0.99188 0.57406 0.0
C966 C 0.53244 0.04424 0.59891 0.0
C967 C 0.63898 0.97698 0.60757 0.0
C968 C 0.60118 0.05119 0.65638 0.0
C969 C 0.57686 0.02124 0.66644 0.0
C970 C 0.60437 0.04806 0.63575 0.0
C971 C 0.58268 0.01417 0.62492 0.0
C972 C 0.55816 0.98375 0.63497 0.0
C973 C 0.55558 0.98763 0.65564 0.0
C974 C 0.631 0.081 0.62555 0.0
C975 C 0.53449 0.94727 0.62388 0.0
H976 H 0.54883 0.03581 0.56037 0.0
H977 H 0.63832 0.97894 0.56765 0.0
H978 H 0.51306 0.02332 0.60825 0.0
H979 H 0.54616 0.07056 0.60856 0.0
H980 H 0.51542 0.05324 0.58712 0.0
H981 H 0.6581 0.96347 0.59871 0.0
H982 H 0.6565 1.00079 0.61761 0.0
H983 H 0.62194 0.95446 0.61704 0.0
H984 H 0.61806 0.07697 0.6647 0.0
H985 H 0.53643 0.96461 0.66334 0.0
H986 H 0.6151 0.09305 0.61441 0.0
H987 H 0.65246 0.06959 0.6175 0.0
H988 H 0.64588 0.10536 0.63614 0.0
H989 H 0.5155 0.95549 0.61285 0.0
H990 H 0.51696 0.92624 0.63392 0.0
H991 H 0.55303 0.93216 0.61557 0.0
C992 C 0.52407 0.53121 0.90595 0.0
C993 C 0.52592 0.5001 0.89278 0.0
C994 C 0.53094 0.52945 0.92631 0.0
C995 C 0.54149 0.49648 0.9334 0.0
C996 C 0.54507 0.46575 0.9199 0.0
C997 C 0.53638 0.46754 0.8997 0.0
C998 C 0.52565 0.56223 0.94026 0.0
C999 C 0.55778 0.43099 0.92679 0.0
C1000 C 0.58276 0.51363 0.98595 0.0
C1001 C 0.55101 0.49636 -0.00309 0.0
C1002 C 0.58081 0.51187 0.96511 0.0
C1003 C 0.5461 0.49323 0.95509 0.0
C1004 C 0.51452 0.47429 0.96603 0.0
C1005 C 0.51757 0.47553 0.98674 0.0
C1006 C 0.61542 0.53136 0.95388 0.0
C1007 C 0.47683 0.45451 0.95595 0.0
H1008 H 0.51604 0.55635 0.90038 0.0
H1009 H 0.53832 0.44386 0.88927 0.0
H1010 H 0.50343 0.55021 0.95098 0.0
H1011 H 0.55217 0.57559 0.94894 0.0
H1012 H 0.51733 0.58572 0.93231 0.0
H1013 H 0.56295 0.41183 0.91418 0.0
H1014 H 0.58414 0.44124 0.93602 0.0
H1015 H 0.53594 0.41311 0.93617 0.0
H1016 H 0.60873 0.52981 0.9936 0.0
H1017 H 0.49325 0.46096 -0.00497 0.0
H1018 H 0.61149 0.55862 0.94763 0.0
H1019 H 0.61964 0.51175 0.94128 0.0
H1020 H 0.6414 0.53924 0.96353 0.0
H1021 H 0.46583 0.47666 0.94831 0.0
H1022 H 0.45544 0.43991 0.96656 0.0
H1023 H 0.48016 0.43219 0.94449 0.0
C1024 C 1.05435 0.55061 0.22168 0.0
C1025 C 0.08124 0.53979 0.20971 0.0
C1026 C 1.0554 0.54706 0.24227 0.0
C1027 C 0.0848 0.53362 0.25106 0.0
C1028 C 0.11208 0.52274 0.23897 0.0
C1029 C 0.10958 0.52535 0.21837 0.0
C1030 C 1.02512 0.55773 0.25462 0.0
C1031 C 0.14443 0.50932 0.24783 0.0
C1032 C 0.10852 0.564 0.30532 0.0
C1033 C 0.09235 0.52901 0.31466 0.0
C1034 C 0.10692 0.56564 0.28463 0.0
C1035 C 0.08755 0.53188 0.27295 0.0
C1036 C 0.07078 0.4966 0.28218 0.0
C1037 C 0.07394 0.49539 0.30286 0.0
C1038 C 0.12594 0.60358 0.27527 0.0
C1039 C 1.0492 0.4602 0.27023 0.0
H1040 H 1.03224 0.56142 0.21489 0.0
H1041 H 0.13048 0.51715 0.20906 0.0
H1042 H 1.01144 0.5328 0.26371 0.0
H1043 H 1.03799 0.58315 0.26499 0.0
H1044 H 1.00299 0.5654 0.24537 0.0
H1045 H 0.16333 0.50207 0.23635 0.0
H1046 H 0.16146 0.53276 0.25824 0.0
H1047 H 0.1334 0.483 0.25649 0.0
H1048 H 0.12213 0.59044 0.31417 0.0
H1049 H 1.06204 0.4679 0.30972 0.0
H1050 H 0.10449 0.61515 0.26753 0.0
H1051 H 0.14599 0.59817 0.26399 0.0
H1052 H 0.14165 0.6265 0.28635 0.0
H1053 H 1.02623 0.46697 0.26128 0.0
H1054 H 1.03653 0.43556 0.27974 0.0
H1055 H 0.06826 0.45034 0.25971 0.0
loop_
_geom_bond_atom_site_label_1
_geom_bond_atom_site_label_2
_geom_bond_distance
_geom_bond_site_symmetry_2
_ccdc_geom_bond_type
Nd0 C2 2.836 . S
Nd0 O20 2.500 . S
Nd0 O21 2.492 . S
Nd0 O22 2.487 . S
Nd0 O23 2.682 . S
Nd0 O24 2.410 . S
Nd0 O29 2.414 . S
Nd0 O31 2.424 1_455 S
Nd1 C11 2.836 . S
Nd1 O23 2.414 1_655 S
Nd1 O25 2.424 1_655 S
Nd1 O26 2.500 . S
Nd1 O27 2.492 . S
Nd1 O28 2.487 1_655 S
Nd1 O29 2.682 1_655 S
Nd1 O30 2.410 . S
C2 Nd0 2.836 . S
C2 C3 1.498 . S
C2 O20 1.258 . S
C2 O21 1.239 . S
C3 C2 1.498 . S
C3 C4 1.366 . S
C3 C8 1.407 . S
C4 C3 1.366 . S
C4 C5 1.392 . S
C4 H32 0.930 . S
C5 C4 1.392 . S
C5 C6 1.398 . S
C5 H33 0.929 . S
C6 C5 1.398 . S
C6 C7 1.352 . S
C7 C6 1.352 . S
C7 C8 1.384 . S
C7 H34 0.930 . S
C8 C3 1.407 . S
C8 C7 1.384 . S
C8 H35 0.929 . S
C9 O22 1.241 . S
C9 O23 1.273 . S
C10 O24 1.251 . S
C10 O25 1.268 . S
C11 Nd1 2.836 . S
C11 C12 1.498 . S
C11 O26 1.258 . S
C11 O27 1.239 . S
C12 C11 1.498 . S
C12 C13 1.366 . S
C12 C17 1.407 . S
C13 C12 1.366 . S
C13 C14 1.392 . S
C13 H36 0.930 . S
C14 C13 1.392 . S
C14 C15 1.398 . S
C14 H37 0.929 . S
C15 C14 1.398 . S
C15 C16 1.352 . S
C16 C15 1.352 . S
C16 C17 1.384 . S
C16 H38 0.930 . S
C17 C12 1.407 . S
C17 C16 1.384 . S
C17 H39 0.929 . S
C18 O28 1.241 . S
C18 O29 1.273 . S
C19 O30 1.251 . S
C19 O31 1.268 . S
O20 Nd0 2.500 . S
O20 C2 1.258 . S
O21 Nd0 2.492 . S
O21 C2 1.239 . S
O22 Nd0 2.487 . S
O22 C9 1.241 . S
O23 Nd0 2.682 . S
O23 Nd1 2.414 1_455 S
O23 C9 1.273 . S
O24 Nd0 2.410 . S
O24 C10 1.251 . S
O25 Nd1 2.424 1_455 S
O25 C10 1.268 . S
O26 Nd1 2.500 . S
O26 C11 1.258 . S
O27 Nd1 2.492 . S
O27 C11 1.239 . S
O28 Nd1 2.487 1_455 S
O28 C18 1.241 . S
O29 Nd0 2.414 . S
O29 Nd1 2.682 1_455 S
O29 C18 1.273 . S
O30 Nd1 2.410 . S
O30 C19 1.251 . S
O31 Nd0 2.424 1_655 S
O31 C19 1.268 . S
H32 C4 0.930 . S
H33 C5 0.929 . S
H34 C7 0.930 . S
H35 C8 0.929 . S
H36 C13 0.930 . S
H37 C14 0.929 . S
H38 C16 0.930 . S
H39 C17 0.929 . S
Nd40 C42 2.823 1_545 S
Nd40 O60 2.487 1_545 S
Nd40 O61 2.481 1_545 S
Nd40 O62 2.487 1_545 S
Nd40 O63 2.683 . S
Nd40 O64 2.392 1_545 S
Nd40 O69 2.411 . S
Nd40 O71 2.443 . S
Nd41 C51 2.836 . S
Nd41 O63 2.414 . S
Nd41 O65 2.424 1_545 S
Nd41 O66 2.500 . S
Nd41 O67 2.492 . S
Nd41 O68 2.487 . S
Nd41 O69 2.682 . S
Nd41 O70 2.410 . S
C42 Nd40 2.823 1_565 S
C42 C43 1.498 . S
C42 O60 1.258 . S
C42 O61 1.239 . S
C43 C42 1.498 . S
C43 C44 1.366 . S
C43 C48 1.407 . S
C44 C43 1.366 . S
C44 C45 1.392 . S
C44 H72 0.930 . S
C45 C44 1.392 . S
C45 C46 1.398 . S
C45 H73 0.929 . S
C46 C45 1.398 . S
C46 C47 1.352 . S
C47 C46 1.352 . S
C47 C48 1.384 . S
C47 H74 0.930 . S
C48 C43 1.407 . S
C48 C47 1.384 . S
C48 H75 0.929 . S
C49 O62 1.241 1_545 S
C49 O63 1.273 . S
C50 O64 1.251 . S
C50 O65 1.268 . S
C51 Nd41 2.836 . S
C51 C52 1.498 . S
C51 O66 1.258 . S
C51 O67 1.239 . S
C52 C51 1.498 . S
C52 C53 1.366 . S
C52 C57 1.407 . S
C53 C52 1.366 . S
C53 C54 1.392 . S
C53 H76 0.930 . S
C54 C53 1.392 . S
C54 C55 1.398 . S
C54 H77 0.929 . S
C55 C54 1.398 . S
C55 C56 1.352 . S
C56 C55 1.352 . S
C56 C57 1.384 . S
C56 H78 0.930 . S
C57 C52 1.407 . S
C57 C56 1.384 . S
C57 H79 0.929 . S
C58 O68 1.241 . S
C58 O69 1.273 . S
C59 O70 1.251 . S
C59 O71 1.268 . S
O60 Nd40 2.487 1_565 S
O60 C42 1.258 . S
O61 Nd40 2.481 1_565 S
O61 C42 1.239 . S
O62 Nd40 2.487 1_565 S
O62 C49 1.241 1_565 S
O63 Nd40 2.683 . S
O63 Nd41 2.414 . S
O63 C49 1.273 . S
O64 Nd40 2.392 1_565 S
O64 C50 1.251 . S
O65 Nd41 2.424 1_565 S
O65 C50 1.268 . S
O66 Nd41 2.500 . S
O66 C51 1.258 . S
O67 Nd41 2.492 . S
O67 C51 1.239 . S
O68 Nd41 2.487 . S
O68 C58 1.241 . S
O69 Nd40 2.411 . S
O69 Nd41 2.682 . S
O69 C58 1.273 . S
O70 Nd41 2.410 . S
O70 C59 1.251 . S
O71 Nd40 2.443 . S
O71 C59 1.268 . S
H72 C44 0.930 . S
H73 C45 0.929 . S
H74 C47 0.930 . S
H75 C48 0.929 . S
H76 C53 0.930 . S
H77 C54 0.929 . S
H78 C56 0.930 . S
H79 C57 0.929 . S
Nd80 C82 2.836 . S
Nd80 O100 2.500 . S
Nd80 O101 2.492 . S
Nd80 O102 2.487 . S
Nd80 O103 2.682 . S
Nd80 O104 2.410 . S
Nd80 O109 2.414 . S
Nd80 O111 2.424 . S
Nd81 C91 2.836 . S
Nd81 O103 2.414 . S
Nd81 O105 2.424 . S
Nd81 O106 2.500 . S
Nd81 O107 2.492 . S
Nd81 O108 2.487 . S
Nd81 O109 2.682 . S
Nd81 O110 2.410 . S
C82 Nd80 2.836 . S
C82 C83 1.498 . S
C82 O100 1.258 . S
C82 O101 1.239 . S
C83 C82 1.498 . S
C83 C84 1.366 . S
C83 C88 1.407 . S
C84 C83 1.366 . S
C84 C85 1.392 . S
C84 H112 0.930 . S
C85 C84 1.392 . S
C85 C86 1.398 . S
C85 H113 0.929 . S
C86 C85 1.398 . S
C86 C87 1.352 . S
C87 C86 1.352 . S
C87 C88 1.384 . S
C87 H114 0.930 . S
C88 C83 1.407 . S
C88 C87 1.384 . S
C88 H115 0.929 . S
C89 O102 1.241 . S
C89 O103 1.273 . S
C90 O104 1.251 . S
C90 O105 1.268 . S
C91 Nd81 2.836 . S
C91 C92 1.498 . S
C91 O106 1.258 . S
C91 O107 1.239 . S
C92 C91 1.498 . S
C92 C93 1.366 . S
C92 C97 1.407 . S
C93 C92 1.366 . S
C93 C94 1.392 . S
C93 H116 0.930 . S
C94 C93 1.392 . S
C94 C95 1.398 . S
C94 H117 0.929 . S
C95 C94 1.398 . S
C95 C96 1.352 . S
C96 C95 1.352 . S
C96 C97 1.384 . S
C96 H118 0.930 . S
C97 C92 1.407 . S
C97 C96 1.384 . S
C97 H119 0.929 . S
C98 O108 1.241 . S
C98 O109 1.273 . S
C99 O110 1.251 . S
C99 O111 1.268 . S
O100 Nd80 2.500 . S
O100 C82 1.258 . S
O101 Nd80 2.492 . S
O101 C82 1.239 . S
O102 Nd80 2.487 . S
O102 C89 1.241 . S
O103 Nd80 2.682 . S
O103 Nd81 2.414 . S
O103 C89 1.273 . S
O104 Nd80 2.410 . S
O104 C90 1.251 . S
O105 Nd81 2.424 . S
O105 C90 1.268 . S
O106 Nd81 2.500 . S
O106 C91 1.258 . S
O107 Nd81 2.492 . S
O107 C91 1.239 . S
O108 Nd81 2.487 . S
O108 C98 1.241 . S
O109 Nd80 2.414 . S
O109 Nd81 2.682 . S
O109 C98 1.273 . S
O110 Nd81 2.410 . S
O110 C99 1.251 . S
O111 Nd80 2.424 . S
O111 C99 1.268 . S
H112 C84 0.930 . S
H113 C85 0.929 . S
H114 C87 0.930 . S
H115 C88 0.929 . S
H116 C93 0.930 . S
H117 C94 0.929 . S
H118 C96 0.930 . S
H119 C97 0.929 . S
C120 C121 1.391 . S
C120 C124 1.391 . S
C120 H162 0.948 . S
C121 C120 1.391 . S
C121 C122 1.391 . S
C122 C121 1.391 . S
C122 H178 0.947 . S
C122 C179 1.392 . S
C123 C124 1.391 . S
C123 C127 1.397 . S
C123 C179 1.419 . S
C124 C120 1.391 . S
C124 C123 1.391 . S
C124 C125 1.399 . S
C125 C124 1.399 . S
C125 C128 1.396 . S
C125 C137 1.453 . S
C125 C138 1.684 . S
H126 C150 0.948 . S
C127 C123 1.397 . S
C127 C128 1.394 . S
C127 C146 1.723 . S
C128 C125 1.396 . S
C128 C127 1.394 . S
C128 C158 1.723 1_545 S
H129 C152 0.947 . S
H130 C153 0.948 . S
H131 C159 0.982 . S
H132 C160 0.979 . S
H133 C160 0.980 . S
H134 C160 0.983 . S
H135 C159 0.979 . S
H136 C159 0.977 . S
C137 C125 1.453 . S
C137 H166 0.982 . S
C137 H167 0.979 . S
C137 H168 0.977 1_545 S
C138 C125 1.684 . S
C138 H163 0.979 . S
C138 H164 0.980 . S
C138 H165 0.983 . S
C139 C140 1.391 . S
C139 C144 1.391 . S
C139 H169 0.948 . S
C140 C139 1.391 . S
C140 C141 1.391 . S
C141 C140 1.391 . S
C141 C142 1.391 1_545 S
C141 H170 0.947 1_545 S
C142 C141 1.391 1_565 S
C142 C143 1.410 1_565 S
C142 H171 0.958 . S
C143 C142 1.410 1_545 S
C143 C144 1.391 . S
C143 C147 1.397 . S
C144 C139 1.391 . S
C144 C143 1.391 . S
C144 C145 1.399 . S
C145 C144 1.399 . S
C145 C146 1.396 . S
C145 C148 1.453 . S
C145 C149 1.684 . S
C146 C127 1.723 . S
C146 C145 1.396 . S
C146 C147 1.394 . S
C147 C143 1.397 . S
C147 C146 1.394 . S
C147 C157 1.723 1_545 S
C148 C145 1.453 . S
C148 H172 0.982 . S
C148 H173 0.979 . S
C148 H174 0.977 . S
C149 C145 1.684 . S
C149 H175 0.979 . S
C149 H176 0.980 . S
C149 H177 0.983 . S
C150 H126 0.948 . S
C150 C151 1.391 . S
C150 C155 1.391 . S
C151 C150 1.391 . S
C151 C152 1.391 . S
C152 H129 0.947 . S
C152 C151 1.391 . S
C152 C153 1.392 . S
C153 H130 0.948 . S
C153 C152 1.392 . S
C153 C154 1.419 . S
C154 C153 1.419 . S
C154 C155 1.391 . S
C154 C158 1.397 . S
C155 C150 1.391 . S
C155 C154 1.391 . S
C155 C156 1.399 . S
C156 C155 1.399 . S
C156 C157 1.396 . S
C156 C159 1.453 . S
C156 C160 1.684 . S
C157 C147 1.723 1_565 S
C157 C156 1.396 . S
C157 C158 1.394 . S
C158 C128 1.723 1_565 S
C158 C154 1.397 . S
C158 C157 1.394 . S
C159 H131 0.982 . S
C159 H135 0.979 . S
C159 H136 0.977 . S
C159 C156 1.453 . S
C160 H132 0.979 . S
C160 H133 0.980 . S
C160 H134 0.983 . S
C160 C156 1.684 . S
H161 C179 0.948 . S
H162 C120 0.948 . S
H163 C138 0.979 . S
H164 C138 0.980 . S
H165 C138 0.983 . S
H166 C137 0.982 . S
H167 C137 0.979 . S
H168 C137 0.977 1_565 S
H169 C139 0.948 . S
H170 C141 0.947 1_565 S
H171 C142 0.958 . S
H172 C148 0.982 . S
H173 C148 0.979 . S
H174 C148 0.977 . S
H175 C149 0.979 . S
H176 C149 0.980 . S
H177 C149 0.983 . S
H178 C122 0.947 . S
C179 C122 1.392 . S
C179 C123 1.419 . S
C179 H161 0.948 . S
C180 C181 1.391 . S
C180 C184 1.391 . S
C180 H222 0.948 . S
C181 C180 1.391 . S
C181 C182 1.391 . S
C182 C181 1.391 . S
C182 H238 0.947 . S
C182 C239 1.392 . S
C183 C184 1.391 . S
C183 C187 1.397 . S
C183 C239 1.419 . S
C184 C180 1.391 . S
C184 C183 1.391 . S
C184 C185 1.399 . S
C185 C184 1.399 . S
C185 C188 1.396 . S
C185 C197 1.453 . S
C185 C198 1.684 . S
H186 C210 0.948 . S
C187 C183 1.397 . S
C187 C188 1.394 . S
C187 C206 1.723 . S
C188 C185 1.396 . S
C188 C187 1.394 . S
C188 C218 1.723 . S
H189 C212 0.947 . S
H190 C213 0.948 . S
H191 C219 0.982 . S
H192 C220 0.979 . S
H193 C220 0.980 . S
H194 C220 0.983 . S
H195 C219 0.979 . S
H196 C219 0.977 . S
C197 C185 1.453 . S
C197 H226 0.982 . S
C197 H227 0.979 . S
C197 H228 0.977 . S
C198 C185 1.684 . S
C198 H223 0.979 . S
C198 H224 0.980 . S
C198 H225 0.983 . S
C199 C200 1.391 . S
C199 C204 1.391 . S
C199 H229 0.948 . S
C200 C199 1.391 . S
C200 C201 1.391 . S
C201 C200 1.391 . S
C201 C202 1.392 . S
C201 H230 0.947 . S
C202 C201 1.392 . S
C202 C203 1.419 . S
C202 H231 0.948 . S
C203 C202 1.419 . S
C203 C204 1.391 . S
C203 C207 1.397 . S
C204 C199 1.391 . S
C204 C203 1.391 . S
C204 C205 1.399 . S
C205 C204 1.399 . S
C205 C206 1.396 . S
C205 C208 1.453 . S
C205 C209 1.684 . S
C206 C187 1.723 . S
C206 C205 1.396 . S
C206 C207 1.394 . S
C207 C203 1.397 . S
C207 C206 1.394 . S
C207 C217 1.723 . S
C208 C205 1.453 . S
C208 H232 0.982 . S
C208 H233 0.979 . S
C208 H234 0.977 . S
C209 C205 1.684 . S
C209 H235 0.979 . S
C209 H236 0.980 . S
C209 H237 0.983 . S
C210 H186 0.948 . S
C210 C211 1.391 . S
C210 C215 1.391 . S
C211 C210 1.391 . S
C211 C212 1.391 . S
C212 H189 0.947 . S
C212 C211 1.391 . S
C212 C213 1.392 . S
C213 H190 0.948 . S
C213 C212 1.392 . S
C213 C214 1.419 . S
C214 C213 1.419 . S
C214 C215 1.391 . S
C214 C218 1.397 . S
C215 C210 1.391 . S
C215 C214 1.391 . S
C215 C216 1.399 . S
C216 C215 1.399 . S
C216 C217 1.396 . S
C216 C219 1.453 . S
C216 C220 1.684 . S
C217 C207 1.723 . S
C217 C216 1.396 . S
C217 C218 1.394 . S
C218 C188 1.723 . S
C218 C214 1.397 . S
C218 C217 1.394 . S
C219 H191 0.982 . S
C219 H195 0.979 . S
C219 H196 0.977 . S
C219 C216 1.453 . S
C220 H192 0.979 . S
C220 H193 0.980 . S
C220 H194 0.983 . S
C220 C216 1.684 . S
H221 C239 0.948 . S
H222 C180 0.948 . S
H223 C198 0.979 . S
H224 C198 0.980 . S
H225 C198 0.983 . S
H226 C197 0.982 . S
H227 C197 0.979 . S
H228 C197 0.977 . S
H229 C199 0.948 . S
H230 C201 0.947 . S
H231 C202 0.948 . S
H232 C208 0.982 . S
H233 C208 0.979 . S
H234 C208 0.977 . S
H235 C209 0.979 . S
H236 C209 0.980 . S
H237 C209 0.983 . S
H238 C182 0.947 . S
C239 C182 1.392 . S
C239 C183 1.419 . S
C239 H221 0.948 . S
C240 C241 1.391 . S
C240 C244 1.391 . S
C240 H282 0.948 . S
C241 C240 1.391 . S
C241 C242 1.391 . S
C242 C241 1.391 . S
C242 H298 0.947 . S
C242 C299 1.392 . S
C243 C244 1.391 . S
C243 C247 1.397 . S
C243 C299 1.419 . S
C244 C240 1.391 . S
C244 C243 1.391 . S
C244 C245 1.399 . S
C245 C244 1.399 . S
C245 C248 1.396 . S
C245 C257 1.453 . S
C245 C258 1.684 . S
H246 C270 0.948 . S
C247 C243 1.397 . S
C247 C248 1.394 . S
C247 C266 1.723 . S
C248 C245 1.396 . S
C248 C247 1.394 . S
C248 C278 1.723 . S
H249 C272 0.947 . S
H250 C273 0.972 . S
H251 C279 0.982 . S
H252 C280 0.979 . S
H253 C280 0.980 . S
H254 C280 0.983 . S
H255 C279 0.979 . S
H256 C279 0.977 . S
C257 C245 1.453 . S
C257 H286 0.982 . S
C257 H287 0.979 . S
C257 H288 0.977 . S
C258 C245 1.684 . S
C258 H283 0.979 . S
C258 H284 0.980 . S
C258 H285 0.983 . S
C259 C260 1.391 . S
C259 C264 1.391 . S
C259 H289 0.948 . S
C260 C259 1.391 . S
C260 C261 1.391 1_455 S
C261 C260 1.391 1_655 S
C261 C262 1.392 . S
C261 H290 0.947 . S
C262 C261 1.392 . S
C262 C263 1.419 1_655 S
C262 H291 0.948 . S
C263 C262 1.419 1_455 S
C263 C264 1.391 . S
C263 C267 1.397 . S
C264 C259 1.391 . S
C264 C263 1.391 . S
C264 C265 1.399 . S
C265 C264 1.399 . S
C265 C266 1.396 . S
C265 C268 1.453 . S
C265 C269 1.684 . S
C266 C247 1.723 . S
C266 C265 1.396 . S
C266 C267 1.394 . S
C267 C263 1.397 . S
C267 C266 1.394 . S
C267 C277 1.723 1_455 S
C268 C265 1.453 . S
C268 H292 0.982 . S
C268 H293 0.979 . S
C268 H294 0.977 . S
C269 C265 1.684 . S
C269 H295 0.979 . S
C269 H296 0.980 . S
C269 H297 0.983 . S
C270 H246 0.948 . S
C270 C271 1.391 . S
C270 C275 1.391 . S
C271 C270 1.391 . S
C271 C272 1.391 . S
C272 H249 0.947 . S
C272 C271 1.391 . S
C272 C273 1.392 . S
C273 H250 0.972 . S
C273 C272 1.392 . S
C273 C274 1.419 . S
C274 C273 1.419 . S
C274 C275 1.391 . S
C274 C278 1.397 1_655 S
C275 C270 1.391 . S
C275 C274 1.391 . S
C275 C276 1.399 . S
C276 C275 1.399 . S
C276 C277 1.396 . S
C276 C279 1.453 . S
C276 C280 1.684 . S
C277 C267 1.723 1_655 S
C277 C276 1.396 . S
C277 C278 1.394 1_655 S
C278 C248 1.723 . S
C278 C274 1.397 1_455 S
C278 C277 1.394 1_455 S
C279 H251 0.982 . S
C279 H255 0.979 . S
C279 H256 0.977 . S
C279 C276 1.453 . S
C280 H252 0.979 . S
C280 H253 0.980 . S
C280 H254 0.983 . S
C280 C276 1.684 . S
H281 C299 0.948 . S
H282 C240 0.948 . S
H283 C258 0.979 . S
H284 C258 0.980 . S
H285 C258 0.983 . S
H286 C257 0.982 . S
H287 C257 0.979 . S
H288 C257 0.977 . S
H289 C259 0.948 . S
H290 C261 0.947 . S
H291 C262 0.948 . S
H292 C268 0.982 . S
H293 C268 0.979 . S
H294 C268 0.977 . S
H295 C269 0.979 . S
H296 C269 0.980 . S
H297 C269 0.983 . S
H298 C242 0.947 . S
C299 C242 1.392 . S
C299 C243 1.419 . S
C299 H281 0.948 . S
C300 C301 1.391 . S
C300 C304 1.391 . S
C300 H342 0.948 . S
C301 C300 1.391 . S
C301 C302 1.391 . S
C302 C301 1.391 . S
C302 H358 0.947 . S
C302 C359 1.392 . S
C303 C304 1.391 . S
C303 C307 1.397 . S
C303 C359 1.419 . S
C304 C300 1.391 . S
C304 C303 1.391 . S
C304 C305 1.399 . S
C305 C304 1.399 . S
C305 C308 1.396 . S
C305 C317 1.453 . S
C305 C318 1.684 . S
H306 C330 0.948 . S
C307 C303 1.397 . S
C307 C308 1.394 . S
C307 C326 1.723 . S
C308 C305 1.396 . S
C308 C307 1.394 . S
C308 C338 1.723 1_655 S
H309 C332 0.947 . S
H310 C333 0.948 . S
H311 C339 0.982 . S
H312 C340 0.979 . S
H313 C340 0.980 . S
H314 C340 0.983 . S
H315 C339 0.979 . S
H316 C339 0.977 . S
C317 C305 1.453 . S
C317 H346 0.982 1_655 S
C317 H347 0.979 . S
C317 H348 0.977 1_655 S
C318 C305 1.684 . S
C318 H343 0.979 . S
C318 H344 0.980 . S
C318 H345 0.983 . S
C319 C320 1.391 1_655 S
C319 C324 1.391 . S
C319 H349 0.948 . S
C320 C319 1.391 1_455 S
C320 C321 1.391 . S
C321 C320 1.391 . S
C321 C322 1.392 . S
C321 H350 0.947 . S
C322 C321 1.392 . S
C322 C323 1.419 . S
C322 H351 0.948 . S
C323 C322 1.419 . S
C323 C324 1.391 1_455 S
C323 C327 1.397 . S
C324 C319 1.391 . S
C324 C323 1.391 1_655 S
C324 C325 1.399 . S
C325 C324 1.399 . S
C325 C326 1.396 . S
C325 C328 1.453 . S
C325 C329 1.684 . S
C326 C307 1.723 . S
C326 C325 1.396 . S
C326 C327 1.394 1_655 S
C327 C323 1.397 . S
C327 C326 1.394 1_455 S
C327 C337 1.723 . S
C328 C325 1.453 . S
C328 H352 0.982 . S
C328 H353 0.979 . S
C328 H354 0.977 . S
C329 C325 1.684 . S
C329 H355 0.979 . S
C329 H356 0.980 . S
C329 H357 0.983 . S
C330 H306 0.948 . S
C330 C331 1.391 . S
C330 C335 1.391 . S
C331 C330 1.391 . S
C331 C332 1.391 . S
C332 H309 0.947 . S
C332 C331 1.391 . S
C332 C333 1.392 . S
C333 H310 0.948 . S
C333 C332 1.392 . S
C333 C334 1.419 . S
C334 C333 1.419 . S
C334 C335 1.391 . S
C334 C338 1.397 . S
C335 C330 1.391 . S
C335 C334 1.391 . S
C335 C336 1.399 . S
C336 C335 1.399 . S
C336 C337 1.396 . S
C336 C339 1.453 . S
C336 C340 1.684 . S
C337 C327 1.723 . S
C337 C336 1.396 . S
C337 C338 1.394 . S
C338 C308 1.723 1_455 S
C338 C334 1.397 . S
C338 C337 1.394 . S
C339 H311 0.982 . S
C339 H315 0.979 . S
C339 H316 0.977 . S
C339 C336 1.453 . S
C340 H312 0.979 . S
C340 H313 0.980 . S
C340 H314 0.983 . S
C340 C336 1.684 . S
H341 C359 0.948 . S
H342 C300 0.948 . S
H343 C318 0.979 . S
H344 C318 0.980 . S
H345 C318 0.983 . S
H346 C317 0.982 1_455 S
H347 C317 0.979 . S
H348 C317 0.977 1_455 S
H349 C319 0.948 . S
H350 C321 0.947 . S
H351 C322 0.948 . S
H352 C328 0.982 . S
H353 C328 0.979 . S
H354 C328 0.977 . S
H355 C329 0.979 . S
H356 C329 0.980 . S
H357 C329 0.983 . S
H358 C302 0.947 . S
C359 C302 1.392 . S
C359 C303 1.419 . S
C359 H341 0.948 . S
C360 C361 1.391 . S
C360 C364 1.391 . S
C360 H402 0.948 . S
C361 C360 1.391 . S
C361 C362 1.391 . S
C362 C361 1.391 . S
C362 H418 0.947 . S
C362 C419 1.392 . S
C363 C364 1.391 . S
C363 C367 1.397 . S
C363 C419 1.419 . S
C364 C360 1.391 . S
C364 C363 1.391 . S
C364 C365 1.399 . S
C365 C364 1.399 . S
C365 C368 1.396 . S
C365 C377 1.444 1_565 S
C365 C378 1.684 . S
H366 C390 0.948 . S
C367 C363 1.397 . S
C367 C368 1.394 . S
C367 C386 1.723 . S
C368 C365 1.396 . S
C368 C367 1.394 . S
C368 C398 1.723 1_565 S
H369 C392 0.947 . S
H370 C393 0.948 . S
H371 C399 0.982 . S
H372 C400 0.979 . S
H373 C400 0.980 . S
H374 C400 0.983 . S
H375 C399 0.979 . S
H376 C399 0.977 . S
C377 C365 1.444 1_545 S
C377 H406 0.977 . S
C377 H407 0.963 1_545 S
C377 H408 1.009 . S
C378 C365 1.684 . S
C378 H403 0.979 . S
C378 H404 0.980 1_565 S
C378 H405 0.983 . S
C379 C380 1.391 1_565 S
C379 C384 1.391 . S
C379 H409 0.948 . S
C380 C379 1.391 1_545 S
C380 C381 1.391 . S
C381 C380 1.391 . S
C381 C382 1.392 . S
C381 H410 0.947 . S
C382 C381 1.392 . S
C382 C383 1.419 . S
C382 H411 0.948 . S
C383 C382 1.419 . S
C383 C384 1.391 1_545 S
C383 C387 1.397 . S
C384 C379 1.391 . S
C384 C383 1.391 1_565 S
C384 C385 1.399 . S
C385 C384 1.399 . S
C385 C386 1.396 . S
C385 C388 1.453 . S
C385 C389 1.684 . S
C386 C367 1.723 . S
C386 C385 1.396 . S
C386 C387 1.394 1_565 S
C387 C383 1.397 . S
C387 C386 1.394 1_545 S
C387 C397 1.723 . S
C388 C385 1.453 . S
C388 H412 0.982 . S
C388 H413 0.979 . S
C388 H414 0.977 . S
C389 C385 1.684 . S
C389 H415 0.979 . S
C389 H416 0.980 . S
C389 H417 0.983 . S
C390 H366 0.948 . S
C390 C391 1.391 . S
C390 C395 1.391 . S
C391 C390 1.391 . S
C391 C392 1.391 . S
C392 H369 0.947 . S
C392 C391 1.391 . S
C392 C393 1.392 . S
C393 H370 0.948 . S
C393 C392 1.392 . S
C393 C394 1.419 . S
C394 C393 1.419 . S
C394 C395 1.391 . S
C394 C398 1.397 . S
C395 C390 1.391 . S
C395 C394 1.391 . S
C395 C396 1.399 . S
C396 C395 1.399 . S
C396 C397 1.396 . S
C396 C399 1.453 . S
C396 C400 1.684 . S
C397 C387 1.723 . S
C397 C396 1.396 . S
C397 C398 1.394 . S
C398 C368 1.723 1_545 S
C398 C394 1.397 . S
C398 C397 1.394 . S
C399 H371 0.982 . S
C399 H375 0.979 . S
C399 H376 0.977 . S
C399 C396 1.453 . S
C400 H372 0.979 . S
C400 H373 0.980 . S
C400 H374 0.983 . S
C400 C396 1.684 . S
H401 C419 0.948 . S
H402 C360 0.948 . S
H403 C378 0.979 . S
H404 C378 0.980 1_545 S
H405 C378 0.983 . S
H406 C377 0.977 . S
H407 C377 0.963 1_565 S
H408 C377 1.009 . S
H409 C379 0.948 . S
H410 C381 0.947 . S
H411 C382 0.948 . S
H412 C388 0.982 . S
H413 C388 0.979 . S
H414 C388 0.977 . S
H415 C389 0.979 . S
H416 C389 0.980 . S
H417 C389 0.983 . S
H418 C362 0.947 . S
C419 C362 1.392 . S
C419 C363 1.419 . S
C419 H401 0.948 . S
C420 C421 1.391 . S
C420 C424 1.391 . S
C420 H462 0.948 . S
C421 C420 1.391 . S
C421 C422 1.391 . S
C422 C421 1.391 . S
C422 H478 0.947 . S
C422 C479 1.392 . S
C423 C424 1.391 . S
C423 C427 1.397 . S
C423 C479 1.419 . S
C424 C420 1.391 . S
C424 C423 1.391 . S
C424 C425 1.399 . S
C425 C424 1.399 . S
C425 C428 1.396 . S
C425 C437 1.453 . S
C425 C438 1.684 . S
H426 C450 0.948 . S
C427 C423 1.397 . S
C427 C428 1.394 . S
C427 C446 1.723 . S
C428 C425 1.396 . S
C428 C427 1.394 . S
C428 C458 1.723 . S
H429 C452 0.947 . S
H430 C453 0.948 . S
H431 C459 0.982 . S
H432 C460 0.979 . S
H433 C460 0.980 . S
H434 C460 0.983 . S
H435 C459 0.979 . S
H436 C459 0.977 . S
C437 C425 1.453 . S
C437 H466 0.982 . S
C437 H467 0.979 . S
C437 H468 0.977 . S
C438 C425 1.684 . S
C438 H463 0.979 . S
C438 H464 0.980 . S
C438 H465 0.983 . S
C439 C440 1.391 . S
C439 C444 1.391 . S
C439 H469 0.948 . S
C440 C439 1.391 . S
C440 C441 1.391 . S
C441 C440 1.391 . S
C441 C442 1.392 . S
C441 H470 0.947 . S
C442 C441 1.392 . S
C442 C443 1.419 . S
C442 H471 0.948 . S
C443 C442 1.419 . S
C443 C444 1.391 . S
C443 C447 1.397 . S
C444 C439 1.391 . S
C444 C443 1.391 . S
C444 C445 1.399 . S
C445 C444 1.399 . S
C445 C446 1.396 . S
C445 C448 1.453 . S
C445 C449 1.684 . S
C446 C427 1.723 . S
C446 C445 1.396 . S
C446 C447 1.394 . S
C447 C443 1.397 . S
C447 C446 1.394 . S
C447 C457 1.723 . S
C448 C445 1.453 . S
C448 H472 0.982 . S
C448 H473 0.979 . S
C448 H474 0.977 . S
C449 C445 1.684 . S
C449 H475 0.979 . S
C449 H476 0.980 . S
C449 H477 0.983 . S
C450 H426 0.948 . S
C450 C451 1.391 . S
C450 C455 1.391 . S
C451 C450 1.391 . S
C451 C452 1.391 . S
C452 H429 0.947 . S
C452 C451 1.391 . S
C452 C453 1.392 . S
C453 H430 0.948 . S
C453 C452 1.392 . S
C453 C454 1.419 . S
C454 C453 1.419 . S
C454 C455 1.391 . S
C454 C458 1.397 . S
C455 C450 1.391 . S
C455 C454 1.391 . S
C455 C456 1.399 . S
C456 C455 1.399 . S
C456 C457 1.396 . S
C456 C459 1.453 . S
C456 C460 1.684 . S
C457 C447 1.723 . S
C457 C456 1.396 . S
C457 C458 1.394 . S
C458 C428 1.723 . S
C458 C454 1.397 . S
C458 C457 1.394 . S
C459 H431 0.982 . S
C459 H435 0.979 . S
C459 H436 0.977 . S
C459 C456 1.453 . S
C460 H432 0.979 . S
C460 H433 0.980 . S
C460 H434 0.983 . S
C460 C456 1.684 . S
H461 C479 0.948 . S
H462 C420 0.948 . S
H463 C438 0.979 . S
H464 C438 0.980 . S
H465 C438 0.983 . S
H466 C437 0.982 . S
H467 C437 0.979 . S
H468 C437 0.977 . S
H469 C439 0.948 . S
H470 C441 0.947 . S
H471 C442 0.948 . S
H472 C448 0.982 . S
H473 C448 0.979 . S
H474 C448 0.977 . S
H475 C449 0.979 . S
H476 C449 0.980 . S
H477 C449 0.983 . S
H478 C422 0.947 . S
C479 C422 1.392 . S
C479 C423 1.419 . S
C479 H461 0.948 . S
C480 C481 1.391 . S
C480 C482 1.394 . S
C480 H496 0.931 . S
C481 C480 1.391 . S
C481 C485 1.376 . S
C482 C480 1.394 . S
C482 C483 1.369 . S
C482 C486 1.531 . S
C483 C482 1.369 . S
C483 C484 1.410 . S
C483 C491 1.503 . S
C484 C483 1.410 . S
C484 C485 1.392 . S
C484 C487 1.511 . S
C485 C481 1.376 . S
C485 C484 1.392 . S
C485 H497 0.929 . S
C486 C482 1.531 . S
C486 H498 0.960 . S
C486 H499 0.962 . S
C486 H500 0.960 . S
C487 C484 1.511 . S
C487 H501 0.961 . S
C487 H502 0.961 . S
C487 H503 0.961 . S
C488 C489 1.370 . S
C488 C490 1.363 . S
C488 H504 0.931 . S
C489 C488 1.370 . S
C489 C493 1.408 . S
C490 C488 1.363 . S
C490 C491 1.370 . S
C490 C494 1.524 . S
C491 C483 1.503 . S
C491 C490 1.370 . S
C491 C492 1.403 . S
C492 C491 1.403 . S
C492 C493 1.404 . S
C492 C495 1.539 . S
C493 C489 1.408 . S
C493 C492 1.404 . S
C493 H505 0.930 . S
C494 C490 1.524 . S
C494 H506 0.956 . S
C494 H507 0.961 . S
C494 H508 0.961 . S
C495 C492 1.539 . S
C495 H509 0.958 . S
C495 H510 0.961 . S
C495 H511 0.960 . S
H496 C480 0.931 . S
H497 C485 0.929 . S
H498 C486 0.960 . S
H499 C486 0.962 . S
H500 C486 0.960 . S
H501 C487 0.961 . S
H502 C487 0.961 . S
H503 C487 0.961 . S
H504 C488 0.931 . S
H505 C493 0.930 . S
H506 C494 0.956 . S
H507 C494 0.961 . S
H508 C494 0.961 . S
H509 C495 0.958 . S
H510 C495 0.961 . S
H511 C495 0.960 . S
C512 C513 1.391 . S
C512 C514 1.394 . S
C512 H528 0.931 . S
C513 C512 1.391 . S
C513 C517 1.376 . S
C514 C512 1.394 . S
C514 C515 1.369 . S
C514 C518 1.531 . S
C515 C514 1.369 . S
C515 C516 1.410 . S
C515 C523 1.503 . S
C516 C515 1.410 . S
C516 C517 1.392 . S
C516 C519 1.511 . S
C517 C513 1.376 . S
C517 C516 1.392 . S
C517 H529 0.929 . S
C518 C514 1.531 . S
C518 H530 0.960 . S
C518 H531 0.962 . S
C518 H532 0.960 . S
C519 C516 1.511 . S
C519 H533 0.961 . S
C519 H534 0.961 . S
C519 H535 0.961 . S
C520 C521 1.370 . S
C520 C522 1.363 . S
C520 H536 0.931 . S
C521 C520 1.370 . S
C521 C525 1.408 . S
C522 C520 1.363 . S
C522 C523 1.370 . S
C522 C526 1.524 . S
C523 C515 1.503 . S
C523 C522 1.370 . S
C523 C524 1.403 . S
C524 C523 1.403 . S
C524 C525 1.404 . S
C524 C527 1.539 . S
C525 C521 1.408 . S
C525 C524 1.404 . S
C525 H537 0.930 . S
C526 C522 1.524 . S
C526 H538 0.956 . S
C526 H539 0.961 . S
C526 H540 0.961 . S
C527 C524 1.539 . S
C527 H541 0.958 . S
C527 H542 0.961 . S
C527 H543 0.960 . S
H528 C512 0.931 . S
H529 C517 0.929 . S
H530 C518 0.960 . S
H531 C518 0.962 . S
H532 C518 0.960 . S
H533 C519 0.961 . S
H534 C519 0.961 . S
H535 C519 0.961 . S
H536 C520 0.931 . S
H537 C525 0.930 . S
H538 C526 0.956 . S
H539 C526 0.961 . S
H540 C526 0.961 . S
H541 C527 0.958 . S
H542 C527 0.961 . S
H543 C527 0.960 . S
C544 C545 1.391 . S
C544 C546 1.394 . S
C544 H560 0.931 . S
C545 C544 1.391 . S
C545 C549 1.376 . S
C546 C544 1.394 . S
C546 C547 1.369 . S
C546 C550 1.531 . S
C547 C546 1.369 . S
C547 C548 1.410 . S
C547 C555 1.503 . S
C548 C547 1.410 . S
C548 C549 1.392 . S
C548 C551 1.511 . S
C549 C545 1.376 . S
C549 C548 1.392 . S
C549 H561 0.929 . S
C550 C546 1.531 . S
C550 H562 0.960 . S
C550 H563 0.962 . S
C550 H564 0.960 . S
C551 C548 1.511 . S
C551 H565 0.961 . S
C551 H566 0.961 . S
C551 H567 0.961 . S
C552 C553 1.370 . S
C552 C554 1.363 . S
C552 H568 0.931 . S
C553 C552 1.370 . S
C553 C557 1.408 . S
C554 C552 1.363 . S
C554 C555 1.370 . S
C554 C558 1.524 . S
C555 C547 1.503 . S
C555 C554 1.370 . S
C555 C556 1.403 . S
C556 C555 1.403 . S
C556 C557 1.404 . S
C556 C559 1.539 . S
C557 C553 1.408 . S
C557 C556 1.404 . S
C557 H569 0.930 . S
C558 C554 1.524 . S
C558 H570 0.956 . S
C558 H571 0.961 . S
C558 H572 0.961 . S
C559 C556 1.539 . S
C559 H573 0.958 . S
C559 H574 0.961 . S
C559 H575 0.960 . S
H560 C544 0.931 . S
H561 C549 0.929 . S
H562 C550 0.960 . S
H563 C550 0.962 . S
H564 C550 0.960 . S
H565 C551 0.961 . S
H566 C551 0.961 . S
H567 C551 0.961 . S
H568 C552 0.931 . S
H569 C557 0.930 . S
H570 C558 0.956 . S
H571 C558 0.961 . S
H572 C558 0.961 . S
H573 C559 0.958 . S
H574 C559 0.961 . S
H575 C559 0.960 . S
C576 C577 1.391 . S
C576 C578 1.394 . S
C576 H592 0.931 . S
C577 C576 1.391 . S
C577 C581 1.376 . S
C578 C576 1.394 . S
C578 C579 1.369 . S
C578 C582 1.531 . S
C579 C578 1.369 . S
C579 C580 1.410 . S
C579 C587 1.503 . S
C580 C579 1.410 . S
C580 C581 1.392 . S
C580 C583 1.511 . S
C581 C577 1.376 . S
C581 C580 1.392 . S
C581 H593 0.929 . S
C582 C578 1.531 . S
C582 H594 0.960 . S
C582 H595 0.962 . S
C582 H596 0.960 . S
C583 C580 1.511 . S
C583 H597 0.961 . S
C583 H598 0.961 . S
C583 H599 0.961 . S
C584 C585 1.370 . S
C584 C586 1.363 . S
C584 H600 0.931 . S
C585 C584 1.370 . S
C585 C589 1.408 . S
C586 C584 1.363 . S
C586 C587 1.370 . S
C586 C590 1.524 . S
C587 C579 1.503 . S
C587 C586 1.370 . S
C587 C588 1.403 . S
C588 C587 1.403 . S
C588 C589 1.404 . S
C588 C591 1.539 . S
C589 C585 1.408 . S
C589 C588 1.404 . S
C589 H601 0.930 . S
C590 C586 1.524 . S
C590 H602 0.956 . S
C590 H603 0.961 . S
C590 H604 0.961 . S
C591 C588 1.539 . S
C591 H605 0.958 . S
C591 H606 0.961 . S
C591 H607 0.960 . S
H592 C576 0.931 . S
H593 C581 0.929 . S
H594 C582 0.960 . S
H595 C582 0.962 . S
H596 C582 0.960 . S
H597 C583 0.961 . S
H598 C583 0.961 . S
H599 C583 0.961 . S
H600 C584 0.931 . S
H601 C589 0.930 . S
H602 C590 0.956 . S
H603 C590 0.961 . S
H604 C590 0.961 . S
H605 C591 0.958 . S
H606 C591 0.961 . S
H607 C591 0.960 . S
C608 C609 1.391 . S
C608 C610 1.394 . S
C608 H624 0.931 . S
C609 C608 1.391 . S
C609 C613 1.376 . S
C610 C608 1.394 . S
C610 C611 1.369 . S
C610 C614 1.531 . S
C611 C610 1.369 . S
C611 C612 1.410 . S
C611 C619 1.503 . S
C612 C611 1.410 . S
C612 C613 1.392 . S
C612 C615 1.511 . S
C613 C609 1.376 . S
C613 C612 1.392 . S
C613 H625 0.929 . S
C614 C610 1.531 . S
C614 H626 0.960 . S
C614 H627 0.962 . S
C614 H628 0.960 . S
C615 C612 1.511 . S
C615 H629 0.961 . S
C615 H630 0.961 . S
C615 H631 0.961 . S
C616 C617 1.370 . S
C616 C618 1.363 . S
C616 H632 0.931 . S
C617 C616 1.370 . S
C617 C621 1.408 . S
C618 C616 1.363 . S
C618 C619 1.370 . S
C618 C622 1.524 . S
C619 C611 1.503 . S
C619 C618 1.370 . S
C619 C620 1.403 . S
C620 C619 1.403 . S
C620 C621 1.404 . S
C620 C623 1.539 . S
C621 C617 1.408 . S
C621 C620 1.404 . S
C621 H633 0.930 . S
C622 C618 1.524 . S
C622 H634 0.956 . S
C622 H635 0.961 . S
C622 H636 0.961 . S
C623 C620 1.539 . S
C623 H637 0.958 . S
C623 H638 0.961 . S
C623 H639 0.960 . S
H624 C608 0.931 . S
H625 C613 0.929 . S
H626 C614 0.960 . S
H627 C614 0.962 . S
H628 C614 0.960 . S
H629 C615 0.961 . S
H630 C615 0.961 . S
H631 C615 0.961 . S
H632 C616 0.931 . S
H633 C621 0.930 . S
H634 C622 0.956 . S
H635 C622 0.961 . S
H636 C622 0.961 . S
H637 C623 0.958 . S
H638 C623 0.961 . S
H639 C623 0.960 . S
C640 C641 1.391 . S
C640 C642 1.394 . S
C640 H656 0.931 . S
C641 C640 1.391 . S
C641 C645 1.376 . S
C642 C640 1.394 . S
C642 C643 1.369 . S
C642 C646 1.531 . S
C643 C642 1.369 . S
C643 C644 1.410 . S
C643 C651 1.503 . S
C644 C643 1.410 . S
C644 C645 1.392 . S
C644 C647 1.511 . S
C645 C641 1.376 . S
C645 C644 1.392 . S
C645 H657 0.929 . S
C646 C642 1.531 . S
C646 H658 0.960 . S
C646 H659 0.962 . S
C646 H660 0.960 . S
C647 C644 1.511 . S
C647 H661 0.961 . S
C647 H662 0.961 . S
C647 H663 0.961 . S
C648 C649 1.370 . S
C648 C650 1.363 . S
C648 H664 0.931 . S
C649 C648 1.370 . S
C649 C653 1.408 . S
C650 C648 1.363 . S
C650 C651 1.370 . S
C650 C654 1.524 . S
C651 C643 1.503 . S
C651 C650 1.370 . S
C651 C652 1.403 . S
C652 C651 1.403 . S
C652 C653 1.404 . S
C652 C655 1.539 . S
C653 C649 1.408 . S
C653 C652 1.404 . S
C653 H665 0.930 . S
C654 C650 1.524 . S
C654 H666 0.956 . S
C654 H667 0.961 . S
C654 H668 0.961 . S
C655 C652 1.539 . S
C655 H669 0.958 . S
C655 H670 0.961 . S
C655 H671 0.960 . S
H656 C640 0.931 . S
H657 C645 0.929 . S
H658 C646 0.960 . S
H659 C646 0.962 . S
H660 C646 0.960 . S
H661 C647 0.961 . S
H662 C647 0.961 . S
H663 C647 0.961 . S
H664 C648 0.931 . S
H665 C653 0.930 . S
H666 C654 0.956 . S
H667 C654 0.961 . S
H668 C654 0.961 . S
H669 C655 0.958 . S
H670 C655 0.961 . S
H671 C655 0.960 . S
C672 C673 1.391 . S
C672 C674 1.394 . S
C672 H688 0.931 . S
C673 C672 1.391 . S
C673 C677 1.376 . S
C674 C672 1.394 . S
C674 C675 1.369 . S
C674 C678 1.531 . S
C675 C674 1.369 . S
C675 C676 1.410 . S
C675 C683 1.503 . S
C676 C675 1.410 . S
C676 C677 1.392 . S
C676 C679 1.511 . S
C677 C673 1.376 . S
C677 C676 1.392 . S
C677 H689 0.929 . S
C678 C674 1.531 . S
C678 H690 0.960 . S
C678 H691 0.962 . S
C678 H692 0.960 . S
C679 C676 1.511 . S
C679 H693 0.961 . S
C679 H694 0.961 . S
C679 H695 0.961 . S
C680 C681 1.370 . S
C680 C682 1.363 . S
C680 H696 0.931 . S
C681 C680 1.370 . S
C681 C685 1.408 . S
C682 C680 1.363 . S
C682 C683 1.370 . S
C682 C686 1.524 . S
C683 C675 1.503 . S
C683 C682 1.370 . S
C683 C684 1.403 . S
C684 C683 1.403 . S
C684 C685 1.404 . S
C684 C687 1.539 . S
C685 C681 1.408 . S
C685 C684 1.404 . S
C685 H697 0.930 . S
C686 C682 1.524 . S
C686 H698 0.956 . S
C686 H699 0.961 . S
C686 H700 0.961 . S
C687 C684 1.539 . S
C687 H701 0.958 . S
C687 H702 0.961 . S
C687 H703 0.960 . S
H688 C672 0.931 . S
H689 C677 0.929 . S
H690 C678 0.960 . S
H691 C678 0.962 . S
H692 C678 0.960 . S
H693 C679 0.961 . S
H694 C679 0.961 . S
H695 C679 0.961 . S
H696 C680 0.931 . S
H697 C685 0.930 . S
H698 C686 0.956 . S
H699 C686 0.961 . S
H700 C686 0.961 . S
H701 C687 0.958 . S
H702 C687 0.961 . S
H703 C687 0.960 . S
C704 C705 1.391 . S
C704 C706 1.394 . S
C704 H720 0.931 . S
C705 C704 1.391 . S
C705 C709 1.376 . S
C706 C704 1.394 . S
C706 C707 1.369 . S
C706 C710 1.531 . S
C707 C706 1.369 . S
C707 C708 1.410 . S
C707 C715 1.503 . S
C708 C707 1.410 . S
C708 C709 1.392 . S
C708 C711 1.511 . S
C709 C705 1.376 . S
C709 C708 1.392 . S
C709 H721 0.929 . S
C710 C706 1.531 . S
C710 H722 0.960 . S
C710 H723 0.962 . S
C710 H724 0.960 . S
C711 C708 1.511 . S
C711 H725 0.961 . S
C711 H726 0.961 . S
C711 H727 0.961 . S
C712 C713 1.370 . S
C712 C714 1.363 . S
C712 H728 0.931 . S
C713 C712 1.370 . S
C713 C717 1.408 . S
C714 C712 1.363 . S
C714 C715 1.370 . S
C714 C718 1.524 . S
C715 C707 1.503 . S
C715 C714 1.370 . S
C715 C716 1.403 . S
C716 C715 1.403 . S
C716 C717 1.404 . S
C716 C719 1.539 . S
C717 C713 1.408 . S
C717 C716 1.404 . S
C717 H729 0.930 . S
C718 C714 1.524 . S
C718 H730 0.956 . S
C718 H731 0.961 . S
C718 H732 0.961 . S
C719 C716 1.539 . S
C719 H733 0.958 . S
C719 H734 0.961 . S
C719 H735 0.960 . S
H720 C704 0.931 . S
H721 C709 0.929 . S
H722 C710 0.960 . S
H723 C710 0.962 . S
H724 C710 0.960 . S
H725 C711 0.961 . S
H726 C711 0.961 . S
H727 C711 0.961 . S
H728 C712 0.931 . S
H729 C717 0.930 . S
H730 C718 0.956 . S
H731 C718 0.961 . S
H732 C718 0.961 . S
H733 C719 0.958 . S
H734 C719 0.961 . S
H735 C719 0.960 . S
C736 C737 1.391 . S
C736 C738 1.394 . S
C736 H752 0.931 . S
C737 C736 1.391 . S
C737 C741 1.376 . S
C738 C736 1.394 . S
C738 C739 1.369 . S
C738 C742 1.531 . S
C739 C738 1.369 . S
C739 C740 1.410 . S
C739 C747 1.503 . S
C740 C739 1.410 . S
C740 C741 1.392 . S
C740 C743 1.511 . S
C741 C737 1.376 . S
C741 C740 1.392 . S
C741 H753 0.929 . S
C742 C738 1.531 . S
C742 H754 0.960 . S
C742 H755 0.962 . S
C742 H756 0.960 . S
C743 C740 1.511 . S
C743 H757 0.961 . S
C743 H758 0.961 . S
C743 H759 0.961 . S
C744 C745 1.370 . S
C744 C746 1.363 . S
C744 H760 0.931 . S
C745 C744 1.370 . S
C745 C749 1.408 . S
C746 C744 1.363 . S
C746 C747 1.370 . S
C746 C750 1.524 . S
C747 C739 1.503 . S
C747 C746 1.370 . S
C747 C748 1.403 . S
C748 C747 1.403 . S
C748 C749 1.404 . S
C748 C751 1.539 . S
C749 C745 1.408 . S
C749 C748 1.404 . S
C749 H761 0.930 . S
C750 C746 1.524 . S
C750 H762 0.956 . S
C750 H763 0.961 . S
C750 H764 0.961 . S
C751 C748 1.539 . S
C751 H765 0.958 . S
C751 H766 0.961 . S
C751 H767 0.960 . S
H752 C736 0.931 . S
H753 C741 0.929 . S
H754 C742 0.960 . S
H755 C742 0.962 . S
H756 C742 0.960 . S
H757 C743 0.961 . S
H758 C743 0.961 . S
H759 C743 0.961 . S
H760 C744 0.931 . S
H761 C749 0.930 . S
H762 C750 0.956 . S
H763 C750 0.961 . S
H764 C750 0.961 . S
H765 C751 0.958 . S
H766 C751 0.961 . S
H767 C751 0.960 . S
C768 C769 1.391 . S
C768 C770 1.394 . S
C768 H784 0.931 . S
C769 C768 1.391 . S
C769 C773 1.376 . S
C770 C768 1.394 . S
C770 C771 1.369 . S
C770 C774 1.531 . S
C771 C770 1.369 . S
C771 C772 1.410 . S
C771 C779 1.503 . S
C772 C771 1.410 . S
C772 C773 1.392 . S
C772 C775 1.511 . S
C773 C769 1.376 . S
C773 C772 1.392 . S
C773 H785 0.929 . S
C774 C770 1.531 . S
C774 H786 0.960 . S
C774 H787 0.962 . S
C774 H788 0.960 . S
C775 C772 1.511 . S
C775 H789 0.961 . S
C775 H790 0.961 . S
C775 H791 0.961 . S
C776 C777 1.370 . S
C776 C778 1.363 . S
C776 H792 0.931 . S
C777 C776 1.370 . S
C777 C781 1.408 . S
C778 C776 1.363 . S
C778 C779 1.370 . S
C778 C782 1.524 . S
C779 C771 1.503 . S
C779 C778 1.370 . S
C779 C780 1.403 . S
C780 C779 1.403 . S
C780 C781 1.404 . S
C780 C783 1.539 . S
C781 C777 1.408 . S
C781 C780 1.404 . S
C781 H793 0.930 . S
C782 C778 1.524 . S
C782 H794 0.956 . S
C782 H795 0.961 . S
C782 H796 0.961 . S
C783 C780 1.539 . S
C783 H797 0.958 . S
C783 H798 0.961 . S
C783 H799 0.960 . S
H784 C768 0.931 . S
H785 C773 0.929 . S
H786 C774 0.960 . S
H787 C774 0.962 . S
H788 C774 0.960 . S
H789 C775 0.961 . S
H790 C775 0.961 . S
H791 C775 0.961 . S
H792 C776 0.931 . S
H793 C781 0.930 . S
H794 C782 0.956 . S
H795 C782 0.961 . S
H796 C782 0.961 . S
H797 C783 0.958 . S
H798 C783 0.961 . S
H799 C783 0.960 . S
C800 C801 1.391 . S
C800 C802 1.394 . S
C800 H816 0.931 . S
C801 C800 1.391 . S
C801 C805 1.376 . S
C802 C800 1.394 . S
C802 C803 1.369 . S
C802 C806 1.531 . S
C803 C802 1.369 . S
C803 C804 1.410 . S
C803 C811 1.503 . S
C804 C803 1.410 . S
C804 C805 1.392 . S
C804 C807 1.511 . S
C805 C801 1.376 . S
C805 C804 1.392 . S
C805 H817 0.929 . S
C806 C802 1.531 . S
C806 H818 0.960 . S
C806 H819 0.962 . S
C806 H820 0.960 . S
C807 C804 1.511 . S
C807 H821 0.961 . S
C807 H822 0.961 . S
C807 H823 0.961 . S
C808 C809 1.370 . S
C808 C810 1.363 . S
C808 H824 0.931 . S
C809 C808 1.370 . S
C809 C813 1.408 . S
C810 C808 1.363 . S
C810 C811 1.370 . S
C810 C814 1.524 . S
C811 C803 1.503 . S
C811 C810 1.370 . S
C811 C812 1.403 . S
C812 C811 1.403 . S
C812 C813 1.404 . S
C812 C815 1.539 . S
C813 C809 1.408 . S
C813 C812 1.404 . S
C813 H825 0.930 . S
C814 C810 1.524 . S
C814 H826 0.956 . S
C814 H827 0.961 . S
C814 H828 0.961 . S
C815 C812 1.539 . S
C815 H829 0.958 . S
C815 H830 0.961 . S
C815 H831 0.960 . S
H816 C800 0.931 . S
H817 C805 0.929 . S
H818 C806 0.960 . S
H819 C806 0.962 . S
H820 C806 0.960 . S
H821 C807 0.961 . S
H822 C807 0.961 . S
H823 C807 0.961 . S
H824 C808 0.931 . S
H825 C813 0.930 . S
H826 C814 0.956 . S
H827 C814 0.961 . S
H828 C814 0.961 . S
H829 C815 0.958 . S
H830 C815 0.961 . S
H831 C815 0.960 . S
C832 C833 1.391 . S
C832 C834 1.394 . S
C832 H848 0.931 . S
C833 C832 1.391 . S
C833 C837 1.376 . S
C834 C832 1.394 . S
C834 C835 1.369 . S
C834 C838 1.531 . S
C835 C834 1.369 . S
C835 C836 1.410 . S
C835 C843 1.503 . S
C836 C835 1.410 . S
C836 C837 1.392 . S
C836 C839 1.511 . S
C837 C833 1.376 . S
C837 C836 1.392 . S
C837 H849 0.929 . S
C838 C834 1.531 . S
C838 H850 0.960 . S
C838 H851 0.962 . S
C838 H852 0.960 . S
C839 C836 1.511 . S
C839 H853 0.961 . S
C839 H854 0.961 . S
C839 H855 0.961 . S
C840 C841 1.370 . S
C840 C842 1.363 . S
C840 H856 0.931 . S
C841 C840 1.370 . S
C841 C845 1.408 . S
C842 C840 1.363 . S
C842 C843 1.370 . S
C842 C846 1.524 . S
C843 C835 1.503 . S
C843 C842 1.370 . S
C843 C844 1.403 . S
C844 C843 1.403 . S
C844 C845 1.404 . S
C844 C847 1.539 . S
C845 C841 1.408 . S
C845 C844 1.404 . S
C845 H857 0.930 . S
C846 C842 1.524 . S
C846 H858 0.956 . S
C846 H859 0.961 . S
C846 H860 0.961 . S
C847 C844 1.539 . S
C847 H861 0.958 . S
C847 H862 0.961 . S
C847 H863 0.960 . S
H848 C832 0.931 . S
H849 C837 0.929 . S
H850 C838 0.960 . S
H851 C838 0.962 . S
H852 C838 0.960 . S
H853 C839 0.961 . S
H854 C839 0.961 . S
H855 C839 0.961 . S
H856 C840 0.931 . S
H857 C845 0.930 . S
H858 C846 0.956 . S
H859 C846 0.961 . S
H860 C846 0.961 . S
H861 C847 0.958 . S
H862 C847 0.961 . S
H863 C847 0.960 . S
C864 C865 1.391 . S
C864 C866 1.394 . S
C864 H880 0.931 . S
C865 C864 1.391 . S
C865 C869 1.376 . S
C866 C864 1.394 . S
C866 C867 1.369 . S
C866 C870 1.531 . S
C867 C866 1.369 . S
C867 C868 1.410 . S
C867 C875 1.503 . S
C868 C867 1.410 . S
C868 C869 1.392 . S
C868 C871 1.511 . S
C869 C865 1.376 . S
C869 C868 1.392 . S
C869 H881 0.929 . S
C870 C866 1.531 . S
C870 H882 0.960 . S
C870 H883 0.962 1_455 S
C870 H884 0.960 . S
C871 C868 1.511 . S
C871 H885 0.961 . S
C871 H886 0.961 . S
C871 H887 0.961 . S
C872 C873 1.370 . S
C872 C874 1.363 . S
C872 H888 0.931 1_455 S
C873 C872 1.370 . S
C873 C877 1.408 . S
C874 C872 1.363 . S
C874 C875 1.370 . S
C874 C878 1.524 1_455 S
C875 C867 1.503 . S
C875 C874 1.370 . S
C875 C876 1.403 . S
C876 C875 1.403 . S
C876 C877 1.404 . S
C876 C879 1.539 . S
C877 C873 1.408 . S
C877 C876 1.404 . S
C877 H889 0.930 . S
C878 C874 1.524 1_655 S
C878 H890 0.956 . S
C878 H891 0.961 . S
C878 H892 0.961 . S
C879 C876 1.539 . S
C879 H893 0.958 . S
C879 H894 0.961 . S
C879 H895 0.960 . S
H880 C864 0.931 . S
H881 C869 0.929 . S
H882 C870 0.960 . S
H883 C870 0.962 1_655 S
H884 C870 0.960 . S
H885 C871 0.961 . S
H886 C871 0.961 . S
H887 C871 0.961 . S
H888 C872 0.931 1_655 S
H889 C877 0.930 . S
H890 C878 0.956 . S
H891 C878 0.961 . S
H892 C878 0.961 . S
H893 C879 0.958 . S
H894 C879 0.961 . S
H895 C879 0.960 . S
C896 C897 1.391 1_565 S
C896 C898 1.394 . S
C896 H912 0.931 . S
C897 C896 1.391 1_545 S
C897 C901 1.376 . S
C898 C896 1.394 . S
C898 C899 1.369 1_565 S
C898 C902 1.531 . S
C899 C898 1.369 1_545 S
C899 C900 1.410 . S
C899 C907 1.503 . S
C900 C899 1.410 . S
C900 C901 1.392 . S
C900 C903 1.511 . S
C901 C897 1.376 . S
C901 C900 1.392 . S
C901 H913 0.929 . S
C902 C898 1.531 . S
C902 H914 0.960 . S
C902 H915 0.962 . S
C902 H916 0.960 . S
C903 C900 1.511 . S
C903 H917 0.961 . S
C903 H918 0.961 . S
C903 H919 0.961 . S
C904 C905 1.370 . S
C904 C906 1.363 . S
C904 H920 0.931 . S
C905 C904 1.370 . S
C905 C909 1.408 . S
C906 C904 1.363 . S
C906 C907 1.370 . S
C906 C910 1.524 . S
C907 C899 1.503 . S
C907 C906 1.370 . S
C907 C908 1.403 . S
C908 C907 1.403 . S
C908 C909 1.404 . S
C908 C911 1.539 . S
C909 C905 1.408 . S
C909 C908 1.404 . S
C909 H921 0.930 . S
C910 C906 1.524 . S
C910 H922 0.956 . S
C910 H923 0.961 . S
C910 H924 0.961 . S
C911 C908 1.539 . S
C911 H925 0.958 1_545 S
C911 H926 0.961 . S
C911 H927 0.960 . S
H912 C896 0.931 . S
H913 C901 0.929 . S
H914 C902 0.960 . S
H915 C902 0.962 . S
H916 C902 0.960 . S
H917 C903 0.961 . S
H918 C903 0.961 . S
H919 C903 0.961 . S
H920 C904 0.931 . S
H921 C909 0.930 . S
H922 C910 0.956 . S
H923 C910 0.961 . S
H924 C910 0.961 . S
H925 C911 0.958 1_565 S
H926 C911 0.961 . S
H927 C911 0.960 . S
C928 C929 1.391 . S
C928 C930 1.394 . S
C928 H944 0.931 . S
C929 C928 1.391 . S
C929 C933 1.376 . S
C930 C928 1.394 . S
C930 C931 1.369 . S
C930 C934 1.531 . S
C931 C930 1.369 . S
C931 C932 1.410 . S
C931 C939 1.503 . S
C932 C931 1.410 . S
C932 C933 1.392 . S
C932 C935 1.511 . S
C933 C929 1.376 . S
C933 C932 1.392 . S
C933 H945 0.929 . S
C934 C930 1.531 . S
C934 H946 0.960 . S
C934 H947 0.962 . S
C934 H948 0.960 . S
C935 C932 1.511 . S
C935 H949 0.961 . S
C935 H950 0.961 . S
C935 H951 0.961 . S
C936 C937 1.370 . S
C936 C938 1.363 . S
C936 H952 0.931 . S
C937 C936 1.370 . S
C937 C941 1.408 . S
C938 C936 1.363 . S
C938 C939 1.370 . S
C938 C942 1.524 . S
C939 C931 1.503 . S
C939 C938 1.370 . S
C939 C940 1.403 . S
C940 C939 1.403 . S
C940 C941 1.404 . S
C940 C943 1.539 . S
C941 C937 1.408 . S
C941 C940 1.404 . S
C941 H953 0.930 . S
C942 C938 1.524 . S
C942 H954 0.956 . S
C942 H955 0.961 . S
C942 H956 0.961 . S
C943 C940 1.539 . S
C943 H957 0.958 . S
C943 H958 0.961 . S
C943 H959 0.960 . S
H944 C928 0.931 . S
H945 C933 0.929 . S
H946 C934 0.960 . S
H947 C934 0.962 . S
H948 C934 0.960 . S
H949 C935 0.961 . S
H950 C935 0.961 . S
H951 C935 0.961 . S
H952 C936 0.931 . S
H953 C941 0.930 . S
H954 C942 0.956 . S
H955 C942 0.961 . S
H956 C942 0.961 . S
H957 C943 0.958 . S
H958 C943 0.961 . S
H959 C943 0.960 . S
C960 C961 1.391 1_565 S
C960 C962 1.394 . S
C960 H976 0.931 . S
C961 C960 1.391 1_545 S
C961 C965 1.376 . S
C962 C960 1.394 . S
C962 C963 1.369 1_565 S
C962 C966 1.531 . S
C963 C962 1.369 1_545 S
C963 C964 1.410 . S
C963 C971 1.504 . S
C964 C963 1.410 . S
C964 C965 1.392 . S
C964 C967 1.511 . S
C965 C961 1.376 . S
C965 C964 1.392 . S
C965 H977 0.929 . S
C966 C962 1.531 . S
C966 H978 0.960 . S
C966 H979 0.962 1_565 S
C966 H980 0.960 . S
C967 C964 1.511 . S
C967 H981 0.961 . S
C967 H982 0.961 . S
C967 H983 0.961 1_545 S
C968 C969 1.398 . S
C968 C970 1.363 . S
C968 H984 0.931 . S
C969 C968 1.398 . S
C969 C973 1.381 1_545 S
C970 C968 1.363 . S
C970 C971 1.376 . S
C970 C974 1.524 . S
C971 C963 1.504 . S
C971 C970 1.376 . S
C971 C972 1.396 1_545 S
C972 C971 1.396 1_565 S
C972 C973 1.404 . S
C972 C975 1.539 . S
C973 C969 1.381 1_565 S
C973 C972 1.404 . S
C973 H985 0.930 . S
C974 C970 1.524 . S
C974 H986 0.956 . S
C974 H987 0.961 . S
C974 H988 0.961 . S
C975 C972 1.539 . S
C975 H989 0.958 . S
C975 H990 0.961 . S
C975 H991 0.960 . S
H976 C960 0.931 . S
H977 C965 0.929 . S
H978 C966 0.960 . S
H979 C966 0.962 1_545 S
H980 C966 0.960 . S
H981 C967 0.961 . S
H982 C967 0.961 . S
H983 C967 0.961 1_565 S
H984 C968 0.931 . S
H985 C973 0.930 . S
H986 C974 0.956 . S
H987 C974 0.961 . S
H988 C974 0.961 . S
H989 C975 0.958 . S
H990 C975 0.961 . S
H991 C975 0.960 . S
C992 C993 1.391 . S
C992 C994 1.394 . S
C992 H1008 0.931 . S
C993 C992 1.391 . S
C993 C997 1.376 . S
C994 C992 1.394 . S
C994 C995 1.369 . S
C994 C998 1.531 . S
C995 C994 1.369 . S
C995 C996 1.410 . S
C995 C1003 1.503 . S
C996 C995 1.410 . S
C996 C997 1.392 . S
C996 C999 1.511 . S
C997 C993 1.376 . S
C997 C996 1.392 . S
C997 H1009 0.929 . S
C998 C994 1.531 . S
C998 H1010 0.960 . S
C998 H1011 0.962 . S
C998 H1012 0.960 . S
C999 C996 1.511 . S
C999 H1013 0.961 . S
C999 H1014 0.961 . S
C999 H1015 0.961 . S
C1000 C1001 1.370 . S
C1000 C1002 1.363 . S
C1000 H1016 0.931 . S
C1001 C1000 1.370 . S
C1001 C1005 1.408 . S
C1002 C1000 1.363 . S
C1002 C1003 1.370 . S
C1002 C1006 1.524 . S
C1003 C995 1.503 . S
C1003 C1002 1.370 . S
C1003 C1004 1.403 . S
C1004 C1003 1.403 . S
C1004 C1005 1.404 . S
C1004 C1007 1.539 . S
C1005 C1001 1.408 . S
C1005 C1004 1.404 . S
C1005 H1017 0.930 . S
C1006 C1002 1.524 . S
C1006 H1018 0.956 . S
C1006 H1019 0.961 . S
C1006 H1020 0.961 . S
C1007 C1004 1.539 . S
C1007 H1021 0.958 . S
C1007 H1022 0.961 . S
C1007 H1023 0.960 . S
H1008 C992 0.931 . S
H1009 C997 0.929 . S
H1010 C998 0.960 . S
H1011 C998 0.962 . S
H1012 C998 0.960 . S
H1013 C999 0.961 . S
H1014 C999 0.961 . S
H1015 C999 0.961 . S
H1016 C1000 0.931 . S
H1017 C1005 0.930 . S
H1018 C1006 0.956 . S
H1019 C1006 0.961 . S
H1020 C1006 0.961 . S
H1021 C1007 0.958 . S
H1022 C1007 0.961 . S
H1023 C1007 0.960 . S
C1024 C1025 1.391 1_655 S
C1024 C1026 1.394 . S
C1024 H1040 0.931 . S
C1025 C1024 1.391 1_455 S
C1025 C1029 1.376 . S
C1026 C1024 1.394 . S
C1026 C1027 1.369 1_655 S
C1026 C1030 1.531 . S
C1027 C1026 1.369 1_455 S
C1027 C1028 1.410 . S
C1027 C1035 1.503 . S
C1028 C1027 1.410 . S
C1028 C1029 1.392 . S
C1028 C1031 1.511 . S
C1029 C1025 1.376 . S
C1029 C1028 1.392 . S
C1029 H1041 0.929 . S
C1030 C1026 1.531 . S
C1030 H1042 0.960 . S
C1030 H1043 0.962 . S
C1030 H1044 0.960 . S
C1031 C1028 1.511 . S
C1031 H1045 0.961 . S
C1031 H1046 0.961 . S
C1031 H1047 0.961 . S
C1032 C1033 1.363 1_655 S
C1032 C1034 1.361 1_655 S
C1032 H1048 0.941 . S
C1033 C1032 1.363 1_455 S
C1033 C1037 1.408 . S
C1034 C1032 1.361 1_455 S
C1034 C1035 1.370 . S
C1034 C1038 1.529 . S
C1035 C1027 1.503 . S
C1035 C1034 1.370 . S
C1035 C1036 1.403 . S
C1036 C1035 1.403 . S
C1036 C1037 1.404 . S
C1036 C1039 1.539 . S
C1037 C1033 1.408 . S
C1037 C1036 1.404 . S
C1037 H1049 0.930 . S
C1038 C1034 1.529 . S
C1038 H1050 0.945 1_455 S
C1038 H1051 0.971 . S
C1038 H1052 0.961 . S
C1039 C1036 1.539 . S
C1039 H1053 0.958 1_455 S
C1039 H1054 0.961 . S
C1039 H1055 0.960 . S
H1040 C1024 0.931 . S
H1041 C1029 0.929 . S
H1042 C1030 0.960 . S
H1043 C1030 0.962 . S
H1044 C1030 0.960 . S
H1045 C1031 0.961 . S
H1046 C1031 0.961 . S
H1047 C1031 0.961 . S
H1048 C1032 0.941 . S
H1049 C1037 0.930 . S
H1050 C1038 0.945 1_655 S
H1051 C1038 0.971 . S
H1052 C1038 0.961 . S
H1053 C1039 0.958 1_655 S
H1054 C1039 0.961 . S
H1055 C1039 0.960 . S
C481 C10 3.115 . S
C489 C451 3.111 . S
C513 C55 1.189 . S
C521 C301 1.183 . S
C545 C90 1.916 . S
C553 C361 1.769 . S
C577 C19 2.990 . S
C585 C421 2.853 . S
C617 C331 1.327 . S
C609 C46 1.277 . S
C649 C391 2.100 . S
C641 C99 2.073 . S
C673 C50 1.907 . S
C681 C181 1.782 . S
C705 C95 0.551 . S
C713 C271 0.587 . S
C737 C6 1.345 . S
C745 C151 1.349 . S
C777 C211 2.054 . S
C769 C59 2.047 . S
C809 C241 0.454 . S
C801 C86 0.548 . S
C833 C15 1.279 . S
C841 C121 1.257 . S
C873 C260 1.106 1_554 S
C865 C18 1.118 . S
C897 C49 1.421 . S
C905 C140 1.461 . S
C929 C98 1.361 . S
C937 C200 1.340 . S
C969 C380 1.366 . S
C961 C58 1.335 . S
C1001 C440 1.748 1_556 S
C993 C89 1.681 . S
C1025 C9 1.476 . S
C1033 C320 1.487 . S
