# Generated by pormake.
# Topology llj, (12,3)-cn, num edge types: 1
# Building blocks:
#     Node 0, Type 0, BuildingBlock: QEWDON_clean_sbu_0, # of connection points: 12
#     Node 1, Type 0, BuildingBlock: QEWDON_clean_sbu_0, # of connection points: 12
#     Node 2, Type 1, BuildingBlock: CUQRIR_clean_linker_1, # of connection points: 3
#     Node 3, Type 1, BuildingBlock: CUQRIR_clean_linker_1, # of connection points: 3
#     Node 4, Type 1, BuildingBlock: CUQRIR_clean_linker_1, # of connection points: 3
#     Node 5, Type 1, BuildingBlock: CUQRIR_clean_linker_1, # of connection points: 3
#     Node 6, Type 1, BuildingBlock: CUQRIR_clean_linker_1, # of connection points: 3
#     Node 7, Type 1, BuildingBlock: CUQRIR_clean_linker_1, # of connection points: 3
#     Node 8, Type 1, BuildingBlock: CUQRIR_clean_linker_1, # of connection points: 3
#     Node 9, Type 1, BuildingBlock: CUQRIR_clean_linker_1, # of connection points: 3
#     Edge 10, Type (0, 1), BuildingBlock: CIFDUS_clean_linker_0, # of connection points: 2
#     Edge 11, Type (0, 1), BuildingBlock: CIFDUS_clean_linker_0, # of connection points: 2
#     Edge 12, Type (0, 1), BuildingBlock: CIFDUS_clean_linker_0, # of connection points: 2
#     Edge 13, Type (0, 1), BuildingBlock: CIFDUS_clean_linker_0, # of connection points: 2
#     Edge 14, Type (0, 1), BuildingBlock: CIFDUS_clean_linker_0, # of connection points: 2
#     Edge 15, Type (0, 1), BuildingBlock: CIFDUS_clean_linker_0, # of connection points: 2
#     Edge 16, Type (0, 1), BuildingBlock: CIFDUS_clean_linker_0, # of connection points: 2
#     Edge 17, Type (0, 1), BuildingBlock: CIFDUS_clean_linker_0, # of connection points: 2
#     Edge 18, Type (0, 1), BuildingBlock: CIFDUS_clean_linker_0, # of connection points: 2
#     Edge 19, Type (0, 1), BuildingBlock: CIFDUS_clean_linker_0, # of connection points: 2
#     Edge 20, Type (0, 1), BuildingBlock: CIFDUS_clean_linker_0, # of connection points: 2
#     Edge 21, Type (0, 1), BuildingBlock: CIFDUS_clean_linker_0, # of connection points: 2
#     Edge 22, Type (0, 1), BuildingBlock: CIFDUS_clean_linker_0, # of connection points: 2
#     Edge 23, Type (0, 1), BuildingBlock: CIFDUS_clean_linker_0, # of connection points: 2
#     Edge 24, Type (0, 1), BuildingBlock: CIFDUS_clean_linker_0, # of connection points: 2
#     Edge 25, Type (0, 1), BuildingBlock: CIFDUS_clean_linker_0, # of connection points: 2
#     Edge 26, Type (0, 1), BuildingBlock: CIFDUS_clean_linker_0, # of connection points: 2
#     Edge 27, Type (0, 1), BuildingBlock: CIFDUS_clean_linker_0, # of connection points: 2
#     Edge 28, Type (0, 1), BuildingBlock: CIFDUS_clean_linker_0, # of connection points: 2
#     Edge 29, Type (0, 1), BuildingBlock: CIFDUS_clean_linker_0, # of connection points: 2
#     Edge 30, Type (0, 1), BuildingBlock: CIFDUS_clean_linker_0, # of connection points: 2
#     Edge 31, Type (0, 1), BuildingBlock: CIFDUS_clean_linker_0, # of connection points: 2
#     Edge 32, Type (0, 1), BuildingBlock: CIFDUS_clean_linker_0, # of connection points: 2
#     Edge 33, Type (0, 1), BuildingBlock: CIFDUS_clean_linker_0, # of connection points: 2
# Relax obj value: 0.011
# Max RMSD: 0.112
# Mean RMSD: 0.097
data_MOF--net-llj--node1-QEWDON_clean_sbu_0--node2-CUQRIR_clean_linker_1--edge1-CIFDUS_clean_linker_0
_symmetry_space_group_name_H-M    P1
_symmetry_Int_Tables_number       1
_symmetry_cell_setting            triclinic
loop_
_symmetry_equiv_pos_as_xyz
'x, y, z'
_cell_length_a     33.041121
_cell_length_b     32.943049
_cell_length_c     19.819952
_cell_angle_alpha  89.883434
_cell_angle_beta   89.919651
_cell_angle_gamma 89.94425
loop_
_atom_site_label
_atom_site_type_symbol
_atom_site_fract_x
_atom_site_fract_y
_atom_site_fract_z
_atom_type_partial_charge
Zn0 Zn 0.96951 0.13739 0.03937 0.0
Zn1 Zn 0.92961 0.0776 0.13227 0.0
O2 O 0.96122 0.07681 0.04695 0.0
H3 H 0.95751 0.05799 0.01018 0.0
C4 C 0.9335 0.00103 0.84037 0.0
O5 O 0.9598 0.01047 0.88748 0.0
Zn6 Zn 0.04144 0.90352 0.08086 0.0
Zn7 Zn 0.04283 0.89477 0.91769 0.0
O8 O 0.0097 0.91576 0.99692 0.0
H9 H 0.98738 0.9346 0.9934 0.0
Zn10 Zn 0.91561 0.94153 0.94212 0.0
O11 O 0.90667 0.9801 0.02076 0.0
Zn12 Zn 0.90019 0.94018 0.09565 0.0
H13 H 0.89284 0.00582 0.01627 0.0
Zn14 Zn 0.07663 0.04567 0.94348 0.0
O15 O 0.04885 0.01791 0.02198 0.0
H16 H 0.0245 0.00189 0.01795 0.0
Zn17 Zn 0.06633 0.04698 0.10577 0.0
C18 C 0.12168 0.02346 0.82377 0.0
O19 O 0.14272 0.05491 0.84436 0.0
O20 O 0.92085 0.16931 0.07746 0.0
O21 O 0.88493 0.11989 0.12585 0.0
O22 O 0.09151 0.86013 0.94723 0.0
O23 O 0.08933 0.8664 0.05914 0.0
O24 O 0.88547 0.88711 0.95534 0.0
O25 O 0.8656 0.89404 0.06249 0.0
C26 C 0.00364 0.08512 0.20271 0.0
O27 O 0.11492 0.09159 0.97251 0.0
O28 O 0.1063 0.09307 0.08405 0.0
O29 O 0.01301 0.87662 0.83064 0.0
C30 C 0.88874 0.15669 0.10641 0.0
O31 O 0.99326 0.15749 0.94845 0.0
C32 C 0.96807 0.89063 0.15564 0.0
O33 O 0.91099 0.97025 0.84925 0.0
C34 C 0.1055 0.85214 0.00565 0.0
O35 O 0.09061 0.01279 0.85718 0.0
C36 C 0.88604 0.00432 0.18552 0.0
O37 O 0.9662 0.0927 0.20931 0.0
O38 O 0.01516 0.06884 0.14771 0.0
C39 C 0.86528 0.87503 0.00642 0.0
O40 O 0.00421 0.87797 0.15039 0.0
O41 O 0.95592 0.91803 0.11515 0.0
C42 C 0.08276 0.96901 0.16741 0.0
O43 O 0.8752 0.96778 0.17676 0.0
O44 O 0.90924 0.02056 0.1423 0.0
C45 C 0.12286 0.10663 0.03018 0.0
O46 O 0.09038 0.00665 0.17154 0.0
O47 O 0.06267 0.95677 0.11654 0.0
C48 C -0.00183 0.90108 0.78758 0.0
O49 O 0.00164 0.94034 0.79729 0.0
C50 C 0.00957 0.13229 0.90822 0.0
O51 O 0.01222 0.094 0.92618 0.0
Zn52 Zn 0.44999 0.60045 0.43544 0.0
Zn53 Zn 0.43993 0.57074 0.58956 0.0
O54 O 0.47499 0.56496 0.50744 0.0
H55 H 0.49565 0.54468 0.49997 0.0
C56 C 0.39119 0.51553 0.34456 0.0
O57 O 0.40988 0.52935 0.39825 0.0
Zn58 Zn 0.55835 0.39913 0.5822 0.0
Zn59 Zn 0.54674 0.38291 0.4205 0.0
O60 O 0.52418 0.4132 0.50092 0.0
H61 H 0.50536 0.43554 0.49762 0.0
Zn62 Zn 0.39145 0.444 0.43006 0.0
O63 O 0.4268 0.46572 0.50485 0.0
Zn64 Zn 0.41841 0.42938 0.58494 0.0
H65 H 0.44954 0.48367 0.49818 0.0
Zn66 Zn 0.57531 0.54913 0.44725 0.0
O67 O 0.57536 0.50779 0.52088 0.0
H68 H 0.55925 0.48369 0.51501 0.0
Zn69 Zn 0.58116 0.54043 0.60484 0.0
C70 C 0.55976 0.51146 0.313 0.0
O71 O 0.52141 0.51567 0.3291 0.0
O72 O 0.40269 0.63521 0.46934 0.0
O73 O 0.39194 0.60856 0.57163 0.0
O74 O 0.59356 0.34516 0.44641 0.0
O75 O 0.60419 0.36023 0.55484 0.0
O76 O 0.35594 0.39583 0.45906 0.0
O77 O 0.38021 0.38334 0.56224 0.0
C78 C 0.51026 0.58427 0.66774 0.0
O79 O 0.60548 0.6008 0.4772 0.0
O80 O 0.61663 0.5907 0.58697 0.0
O81 O 0.51311 0.37246 0.33253 0.0
C82 C 0.38248 0.63314 0.52413 0.0
O83 O 0.4801 0.6104 0.34414 0.0
C84 C 0.48552 0.38263 0.65362 0.0
O85 O 0.37912 0.47892 0.34445 0.0
C86 C 0.6133 0.34069 0.50118 0.0
O87 O 0.58681 0.5239 0.35357 0.0
C88 C 0.40151 0.49909 0.66275 0.0
O89 O 0.47339 0.59469 0.66329 0.0
O90 O 0.52427 0.55869 0.62588 0.0
C91 C 0.35687 0.37469 0.51304 0.0
O92 O 0.5224 0.37208 0.65184 0.0
O93 O 0.47304 0.40799 0.6101 0.0
C94 C 0.59735 0.46553 0.67403 0.0
O95 O 0.39444 0.46129 0.66135 0.0
O96 O 0.42289 0.5144 0.61592 0.0
C97 C 0.6208 0.61185 0.53314 0.0
O98 O 0.60299 0.50368 0.67874 0.0
O99 O 0.5796 0.45225 0.62144 0.0
C100 C 0.4875 0.39823 0.31093 0.0
O101 O 0.48178 0.43182 0.3453 0.0
C102 C 0.5178 0.61611 0.3512 0.0
O103 O 0.53257 0.61763 0.41258 0.0
C104 C 0.31217 0.2922 0.9389 0.0
N105 N 0.345 0.31423 0.95655 0.0
N106 N 0.29833 0.27007 0.99186 0.0
C107 C 0.29344 0.29283 0.86974 0.0
C108 C 0.32403 0.27969 0.04266 0.0
N109 N 0.35236 0.30654 0.02116 0.0
C110 C 0.32271 0.26106 0.11207 0.0
H111 H 0.297 0.32326 0.84631 0.0
H112 H 0.26082 0.28495 0.87218 0.0
H113 H 0.30916 0.27047 0.83713 0.0
H114 H 0.31605 0.22812 0.10863 0.0
H115 H 0.29802 0.27557 0.14136 0.0
H116 H 0.35137 0.26543 0.14003 0.0
C117 C 0.69053 0.31492 0.99765 0.0
N118 N 0.66985 0.35027 0.00558 0.0
N119 N 0.69881 0.29788 0.05834 0.0
C120 C 0.70754 0.29975 0.93178 0.0
C121 C 0.68319 0.32426 0.10342 0.0
N122 N 0.66552 0.35598 0.07165 0.0
C123 C 0.68681 0.31989 0.17873 0.0
H124 H 0.68527 0.27904 0.9081 0.0
H125 H 0.73599 0.28249 0.93969 0.0
H126 H 0.71368 0.32525 0.89659 0.0
H127 H 0.71414 0.33641 0.196 0.0
H128 H 0.68992 0.28749 0.19328 0.0
H129 H 0.66003 0.33323 0.20433 0.0
C130 C 0.67487 0.69039 0.05223 0.0
N131 N 0.64719 0.6632 0.02978 0.0
N132 N 0.69529 0.70707 0.99989 0.0
C133 C 0.68021 0.70261 0.12509 0.0
C134 C 0.67913 0.68935 0.94476 0.0
N135 N 0.64964 0.66293 0.96283 0.0
C136 C 0.69025 0.69996 0.87318 0.0
H137 H 0.65031 0.70887 0.14845 0.0
H138 H 0.69994 0.72947 0.13119 0.0
H139 H 0.6946 0.67736 0.15327 0.0
H140 H 0.72265 0.70823 0.86906 0.0
H141 H 0.67206 0.72654 0.85687 0.0
H142 H 0.68395 0.67427 0.83864 0.0
C143 C 0.29071 0.66503 0.03845 0.0
N144 N 0.31965 0.63754 0.02217 0.0
N145 N 0.28036 0.68757 0.98381 0.0
C146 C 0.26913 0.66642 0.10544 0.0
C147 C 0.30412 0.67267 0.93388 0.0
N148 N 0.32776 0.64216 0.95697 0.0
C149 C 0.30475 0.688 0.8623 0.0
H150 H 0.23688 0.67492 0.09892 0.0
H151 H 0.28383 0.68952 0.13785 0.0
H152 H 0.27063 0.63667 0.13164 0.0
H153 H 0.33566 0.68533 0.84075 0.0
H154 H 0.29474 0.72013 0.85962 0.0
H155 H 0.28418 0.66918 0.83116 0.0
C156 C 0.79767 0.80019 0.45551 0.0
N157 N 0.82686 0.82876 0.46334 0.0
N158 N 0.78293 0.78828 0.51636 0.0
C159 C 0.78567 0.78184 0.38897 0.0
C160 C 0.80404 0.81078 0.56116 0.0
N161 N 0.83046 0.83555 0.52912 0.0
C162 C 0.80015 0.80744 0.63658 0.0
H163 H 0.79168 0.8031 0.34667 0.0
H164 H 0.75323 0.77358 0.38833 0.0
H165 H 0.80348 0.7537 0.38086 0.0
H166 H 0.76955 0.79664 0.65111 0.0
H167 H 0.80614 0.8372 0.66072 0.0
H168 H 0.82291 0.78542 0.65552 0.0
C169 C 0.20409 0.83017 0.57256 0.0
N170 N 0.1772 0.8582 0.55056 0.0
N171 N 0.21816 0.80782 0.52043 0.0
C172 C 0.21933 0.82712 0.64387 0.0
C173 C 0.19886 0.82326 0.46583 0.0
N174 N 0.17368 0.85387 0.48413 0.0
C175 C 0.20677 0.81031 0.39401 0.0
H176 H 0.24601 0.84725 0.64949 0.0
H177 H 0.2288 0.79568 0.65609 0.0
H178 H 0.19576 0.83701 0.68026 0.0
H179 H 0.17988 0.7941 0.37442 0.0
H180 H 0.23285 0.78937 0.38949 0.0
H181 H 0.21202 0.83735 0.36168 0.0
C182 C 0.15795 0.20612 0.58619 0.0
N183 N 0.12838 0.17893 0.57279 0.0
N184 N 0.17652 0.2178 0.5286 0.0
C185 C 0.16709 0.22302 0.65506 0.0
C186 C 0.15743 0.19668 0.47962 0.0
N187 N 0.12835 0.17248 0.5066 0.0
C188 C 0.16581 0.20136 0.40511 0.0
H189 H 0.19891 0.23323 0.65902 0.0
H190 H 0.1611 0.20003 0.69484 0.0
H191 H 0.14722 0.2496 0.66431 0.0
H192 H 0.18273 0.17443 0.38696 0.0
H193 H 0.18448 0.22833 0.39342 0.0
H194 H 0.13698 0.20335 0.37662 0.0
C195 C 0.82167 0.17624 0.58585 0.0
N196 N 0.84432 0.1455 0.56061 0.0
N197 N 0.807 0.19977 0.53526 0.0
C198 C 0.81015 0.18065 0.65897 0.0
C199 C 0.82167 0.1821 0.47859 0.0
N200 N 0.84376 0.14883 0.49393 0.0
C201 C 0.81555 0.19813 0.40813 0.0
H202 H 0.77783 0.18936 0.66377 0.0
H203 H 0.82866 0.20515 0.68165 0.0
H204 H 0.81548 0.15224 0.68775 0.0
H205 H 0.80964 0.23129 0.40881 0.0
H206 H 0.78928 0.18272 0.3847 0.0
H207 H 0.8426 0.19181 0.37656 0.0
H208 H 0.18385 0.12162 0.94295 0.0
H209 H 0.12949 0.16581 0.12669 0.0
H210 H 0.17861 0.22154 0.13031 0.0
H211 H 0.23668 0.25828 0.07936 0.0
H212 H 0.29422 0.20904 0.90233 0.0
H213 H 0.24369 0.15519 0.89687 0.0
C214 C 0.18263 0.14351 0.98374 0.0
C215 C 0.15286 0.13986 0.0341 0.0
C216 C 0.21135 0.17476 0.98622 0.0
C217 C 0.15214 0.16803 0.08727 0.0
C218 C 0.18014 0.19992 0.08925 0.0
C219 C 0.23825 0.23547 0.04016 0.0
C220 C 0.26861 0.23803 0.9905 0.0
C221 C 0.20987 0.20363 0.03887 0.0
C222 C 0.27036 0.20838 0.93977 0.0
C223 C 0.24175 0.17738 0.93707 0.0
H224 H 0.80965 0.14391 0.07714 0.0
H225 H 0.89325 0.23417 0.14968 0.0
H226 H 0.83995 0.28564 0.14697 0.0
H227 H 0.77146 0.30635 0.11356 0.0
H228 H 0.68926 0.21852 0.03122 0.0
H229 H 0.73981 0.16444 0.0474 0.0
C230 C 0.81576 0.17469 0.09358 0.0
C231 C 0.855 0.18543 0.11393 0.0
C232 C 0.78539 0.20449 0.08909 0.0
C233 C 0.86309 0.22544 0.13393 0.0
C234 C 0.83275 0.25483 0.13214 0.0
C235 C 0.7647 0.27516 0.10036 0.0
C236 C 0.72708 0.26585 0.07193 0.0
C237 C 0.79413 0.24492 0.10824 0.0
C238 C 0.71827 0.2258 0.05346 0.0
C239 C 0.74708 0.19514 0.06269 0.0
H240 H 0.78743 0.87029 0.04286 0.0
H241 H 0.88426 0.80155 0.95254 0.0
H242 H 0.83969 0.74228 0.94243 0.0
H243 H 0.77301 0.70996 0.96223 0.0
H244 H 0.67488 0.78163 0.04084 0.0
H245 H 0.71985 0.84028 0.05283 0.0
C246 C 0.79863 0.84221 0.02118 0.0
C247 C 0.83888 0.83965 0.99938 0.0
C248 C 0.7726 0.80911 0.01346 0.0
C249 C 0.85323 0.80373 0.9699 0.0
C250 C 0.82784 0.77002 0.96415 0.0
C251 C 0.76172 0.73869 0.98113 0.0
C252 C 0.72126 0.74184 1.00166 0.0
C253 C 0.78748 0.77236 0.98598 0.0
C254 C 0.70629 0.77892 0.02577 0.0
C255 C 0.73188 0.8122 0.03257 0.0
H256 H 0.12637 0.79177 0.92067 0.0
H257 H 0.16351 0.85155 0.10379 0.0
H258 H 0.22272 0.80692 0.1114 0.0
H259 H 0.26389 0.75069 0.0652 0.0
H260 H 0.22145 0.6864 0.89004 0.0
H261 H 0.16488 0.73359 0.87878 0.0
C262 C 0.14754 0.79513 0.96208 0.0
C263 C 0.1409 0.82504 0.01124 0.0
C264 C 0.18072 0.76881 0.96703 0.0
C265 C 0.16809 0.82866 0.06534 0.0
C266 C 0.20194 0.80327 0.0696 0.0
C267 C 0.24204 0.74705 0.02494 0.0
C268 C 0.24721 0.71574 0.97766 0.0
C269 C 0.20853 0.77319 0.02072 0.0
C270 C 0.21878 0.71111 0.92564 0.0
C271 C 0.1862 0.73776 0.9197 0.0
H272 H 0.69337 0.62646 0.59332 0.0
H273 H 0.60059 0.68208 0.47146 0.0
H274 H 0.64161 0.74335 0.45929 0.0
H275 H 0.70572 0.7797 0.47769 0.0
H276 H 0.80146 0.72163 0.58863 0.0
H277 H 0.75769 0.66315 0.61189 0.0
C278 C 0.68202 0.65233 0.56516 0.0
C279 C 0.64403 0.65004 0.53371 0.0
C280 C 0.70652 0.68687 0.55603 0.0
C281 C 0.6298 0.68335 0.49618 0.0
C282 C 0.65326 0.71829 0.48902 0.0
C283 C 0.71689 0.75398 0.50638 0.0
C284 C 0.75665 0.75452 0.53089 0.0
C285 C 0.69198 0.72008 0.51752 0.0
C286 C 0.77079 0.72165 0.56947 0.0
C287 C 0.74585 0.68826 0.58251 0.0
H288 H 0.37705 0.7091 0.47549 0.0
H289 H 0.31247 0.62105 0.59546 0.0
H290 H 0.25529 0.66821 0.60652 0.0
H291 H 0.22276 0.734 0.57722 0.0
H292 H 0.29025 0.82288 0.46456 0.0
H293 H 0.34758 0.77602 0.45524 0.0
C294 C 0.3504 0.70022 0.50395 0.0
C295 C 0.34851 0.66156 0.53364 0.0
C296 C 0.31835 0.72764 0.51123 0.0
C297 C 0.31434 0.65067 0.57182 0.0
C298 C 0.28173 0.67756 0.57807 0.0
C299 C 0.25032 0.7429 0.55142 0.0
C300 C 0.25254 0.7812 0.52057 0.0
C301 C 0.28326 0.71601 0.54742 0.0
C302 C 0.28818 0.79313 0.48767 0.0
C303 C 0.32073 0.76644 0.4824 0.0
H304 H 0.28109 0.37084 0.46439 0.0
H305 H 0.36883 0.30346 0.58034 0.0
H306 H 0.32049 0.24765 0.59415 0.0
H307 H 0.25283 0.21829 0.5727 0.0
H308 H 0.16353 0.28904 0.46722 0.0
H309 H 0.21284 0.34358 0.44912 0.0
C310 C 0.28966 0.34376 0.49219 0.0
C311 C 0.32842 0.34077 0.52049 0.0
C312 C 0.26143 0.31266 0.50172 0.0
C313 C 0.33906 0.30612 0.55785 0.0
C314 C 0.31151 0.27432 0.56576 0.0
C315 C 0.24448 0.24588 0.54621 0.0
C316 C 0.20524 0.24995 0.52041 0.0
C317 C 0.27259 0.27733 0.53799 0.0
C318 C 0.194 0.28558 0.48649 0.0
C319 C 0.22204 0.31654 0.47634 0.0
H320 H 0.68148 0.34099 0.57926 0.0
H321 H 0.61909 0.27282 0.4254 0.0
H322 H 0.67298 0.22242 0.42482 0.0
H323 H 0.73746 0.19749 0.46762 0.0
H324 H 0.80417 0.26722 0.6131 0.0
H325 H 0.74861 0.31687 0.61905 0.0
C326 C 0.67978 0.31502 0.54584 0.0
C327 C 0.64639 0.3106 0.50244 0.0
C328 C 0.71149 0.28647 0.54453 0.0
C329 C 0.6446 0.27703 0.45893 0.0
C330 C 0.67532 0.24812 0.45866 0.0
C331 C 0.74013 0.22402 0.49954 0.0
C332 C 0.77487 0.22922 0.53908 0.0
C333 C 0.70891 0.25266 0.50089 0.0
C334 C 0.77753 0.26282 0.58225 0.0
C335 C 0.74591 0.29114 0.58537 0.0
H336 H 0.9853 0.1196 0.32341 0.0
H337 H 0.08619 0.07591 0.20656 0.0
H338 H 0.13171 0.08837 0.29991 0.0
H339 H 0.14403 0.11756 0.41126 0.0
H340 H 0.0467 0.17708 0.51633 0.0
H341 H -0.00198 0.15054 0.43435 0.0
C342 C 0.01712 0.11209 0.31875 0.0
C343 C 0.03185 0.09443 0.25878 0.0
C344 C 0.04363 0.12207 0.37148 0.0
C345 C 0.07346 0.08681 0.25289 0.0
C346 C 0.09972 0.09464 0.30626 0.0
C347 C 0.11212 0.12461 0.41601 0.0
C348 C 0.09899 0.14956 0.46895 0.0
C349 C 0.0852 0.11273 0.36537 0.0
C350 C 0.05746 0.15755 0.4763 0.0
C351 C 0.0298 0.14306 0.42869 0.0
H352 H 0.93088 0.03555 0.28611 0.0
H353 H 0.80842 0.02314 0.21492 0.0
H354 H 0.78389 0.0653 0.30826 0.0
H355 H 0.79811 0.10862 0.40617 0.0
H356 H 0.92007 0.12123 0.47851 0.0
H357 H 0.94426 0.07443 0.39063 0.0
C358 C 0.89891 0.0424 0.29126 0.0
C359 C 0.87138 0.02744 0.24356 0.0
C360 C 0.88518 0.06624 0.34523 0.0
C361 C 0.82991 0.03495 0.25115 0.0
C362 C 0.81599 0.05895 0.30427 0.0
C363 C 0.82998 0.10117 0.40201 0.0
C364 C 0.8576 0.11871 0.44697 0.0
C365 C 0.84344 0.07526 0.35084 0.0
C366 C 0.89863 0.10816 0.44347 0.0
C367 C 0.91236 0.08188 0.39302 0.0
H368 H 0.92415 0.93053 0.24947 0.0
H369 H 0.95595 0.81076 0.18136 0.0
H370 H 0.91614 0.78063 0.27304 0.0
H371 H 0.87252 0.78867 0.37319 0.0
H372 H 0.83672 0.90825 0.43656 0.0
H373 H 0.87754 0.93863 0.34621 0.0
C374 C 0.92075 0.89793 0.25309 0.0
C375 C 0.94131 0.87283 0.20728 0.0
C376 C 0.89775 0.88097 0.30578 0.0
C377 C 0.93957 0.83054 0.21545 0.0
C378 C 0.91699 0.81338 0.2679 0.0
C379 C 0.87352 0.82133 0.36662 0.0
C380 C 0.85193 0.84634 0.41133 0.0
C381 C 0.89602 0.8383 0.31343 0.0
C382 C 0.85379 0.88861 0.40337 0.0
C383 C 0.87673 0.90587 0.35135 0.0
H384 H 0.12143 0.99037 0.28281 0.0
H385 H 0.07506 0.88593 0.17787 0.0
H386 H 0.09207 0.84266 0.27276 0.0
H387 H 0.12262 0.83394 0.38475 0.0
H388 H 0.18125 0.93559 0.4793 0.0
H389 H 0.15534 0.98097 0.39175 0.0
C390 C 0.11501 0.95812 0.28038 0.0
C391 C 0.09577 0.94169 0.22311 0.0
C392 C 0.12659 0.93308 0.33442 0.0
C393 C 0.08836 0.89979 0.2213 0.0
C394 C 0.09844 0.87488 0.27579 0.0
C395 C 0.12981 0.866 0.38583 0.0
C396 C 0.15354 0.88141 0.43856 0.0
C397 C 0.11767 0.89119 0.33249 0.0
C398 C 0.16204 0.92315 0.44041 0.0
C399 C 0.14792 0.94896 0.38954 0.0
H400 H 0.07981 0.96648 0.75253 0.0
H401 H 0.19618 0.02546 0.76559 0.0
H402 H 0.22295 0.9808 0.6784 0.0
H403 H 0.21497 0.92138 0.60473 0.0
H404 H 0.09904 0.86345 0.58745 0.0
H405 H 0.07 0.91124 0.66977 0.0
C406 C 0.11092 0.96969 0.73591 0.0
C407 C 0.13613 -0.00116 0.76625 0.0
C408 C 0.12612 0.94404 0.68521 0.0
C409 C 0.17619 0.00314 0.74341 0.0
C410 C 0.19159 0.97755 0.69363 0.0
C411 C 0.18324 0.91992 0.61857 0.0
C412 C 0.15894 0.88938 0.59096 0.0
C413 C 0.16709 0.94745 0.66519 0.0
C414 C 0.1179 0.88715 0.60837 0.0
C415 C 0.10153 0.91423 0.65547 0.0
H416 H 0.04908 0.08712 0.81354 0.0
H417 H 0.00485 0.20814 0.85377 0.0
H418 H 0.03319 0.23189 0.74725 0.0
H419 H 0.07548 0.21973 0.64752 0.0
H420 H 0.12177 0.10022 0.60779 0.0
H421 H 0.08637 0.07371 0.70787 0.0
C422 C 0.04539 0.11862 0.79881 0.0
C423 C 0.02529 0.14592 0.84205 0.0
C424 C 0.06178 0.13213 0.73733 0.0
C425 C 0.02054 0.18657 0.82189 0.0
C426 C 0.03658 0.20018 0.76084 0.0
C427 C 0.07704 0.18779 0.66058 0.0
C428 C 0.10112 0.16182 0.62156 0.0
C429 C 0.05786 0.17343 0.7189 0.0
C430 C 0.10312 0.12043 0.63761 0.0
C431 C 0.08335 0.10555 0.69505 0.0
H432 H 0.87948 0.99262 0.73724 0.0
H433 H 0.97211 0.07205 0.81411 0.0
H434 H 0.95495 0.1231 0.72965 0.0
H435 H 0.90838 0.14807 0.64158 0.0
H436 H 0.81631 0.06908 0.56363 0.0
H437 H 0.83837 0.01455 0.64007 0.0
C438 C 0.89632 0.02082 0.73482 0.0
C439 C 0.92671 0.02881 0.78266 0.0
C440 C 0.88607 0.05013 0.68613 0.0
C441 C 0.9484 0.06537 0.77841 0.0
C442 C 0.93852 0.09463 0.73018 0.0
C443 C 0.89387 0.11856 0.64097 0.0
C444 C 0.8609 0.11212 0.59805 0.0
C445 C 0.90666 0.08779 0.68508 0.0
C446 C 0.84188 0.07414 0.59668 0.0
C447 C 0.85437 0.04326 0.64044 0.0
H448 H 0.94249 0.94119 0.711 0.0
H449 H 0.00089 0.82486 0.73543 0.0
H450 H 0.95711 0.79568 0.64926 0.0
H451 H 0.89742 0.80128 0.57584 0.0
H452 H 0.83481 0.91515 0.5588 0.0
H453 H 0.88526 0.94775 0.63167 0.0
C454 C 0.94595 0.90962 0.69678 0.0
C455 C 0.97459 0.88512 0.73009 0.0
C456 C 0.91988 0.89271 0.64836 0.0
C457 C 0.97874 0.84423 0.71114 0.0
C458 C 0.95376 0.82751 0.66181 0.0
C459 C 0.89572 0.83344 0.5871 0.0
C460 C 0.8634 0.85622 0.56137 0.0
C461 C 0.9236 0.85117 0.63138 0.0
C462 C 0.86026 0.89757 0.577 0.0
C463 C 0.88873 0.91593 0.61929 0.0
H464 H 0.55798 0.54864 0.7621 0.0
H465 H 0.51753 0.6646 0.68695 0.0
H466 H 0.55554 0.69942 0.77524 0.0
H467 H 0.6003 0.69686 0.87347 0.0
H468 H 0.64069 0.58195 0.95132 0.0
H469 H 0.60189 0.54615 0.86371 0.0
C470 C 0.55833 0.58151 0.7646 0.0
C471 C 0.53604 0.6043 0.71763 0.0
C472 C 0.57949 0.60122 0.81655 0.0
C473 C 0.53508 0.64674 0.7224 0.0
C474 C 0.55654 0.66657 0.77292 0.0
C475 C 0.60033 0.66398 0.87092 0.0
C476 C 0.62325 0.64178 0.91752 0.0
C477 C 0.57869 0.64412 0.82027 0.0
C478 C 0.62298 0.59927 0.91544 0.0
C479 C 0.60121 0.57902 0.86516 0.0
H480 H 0.43871 0.54806 0.75393 0.0
H481 H 0.32225 0.50313 0.69145 0.0
H482 H 0.28927 0.54104 0.78208 0.0
H483 H 0.29332 0.58869 0.87656 0.0
H484 H 0.40858 0.63451 0.94086 0.0
H485 H 0.44292 0.59438 0.85275 0.0
C486 C 0.4061 0.54743 0.75964 0.0
C487 C 0.3826 0.52403 0.71533 0.0
C488 C 0.38747 0.56881 0.81269 0.0
C489 C 0.34061 0.52161 0.72464 0.0
C490 C 0.32185 0.54304 0.77649 0.0
C491 C 0.32602 0.58907 0.87163 0.0
C492 C 0.34872 0.61381 0.91463 0.0
C493 C 0.34494 0.56674 0.8206 0.0
C494 C 0.39094 0.61497 0.90837 0.0
C495 C 0.41031 0.59246 0.85775 0.0
H496 H 0.44208 0.42141 0.75019 0.0
H497 H 0.47111 0.30293 0.67218 0.0
H498 H 0.43153 0.27098 0.76222 0.0
H499 H 0.38886 0.27682 0.86334 0.0
H500 H 0.36041 0.39435 0.94422 0.0
H501 H 0.40002 0.42712 0.85385 0.0
C502 C 0.43889 0.38868 0.75243 0.0
C503 C 0.4584 0.36439 0.70405 0.0
C504 C 0.41697 0.37058 0.8055 0.0
C505 C 0.45568 0.32201 0.70854 0.0
C506 C 0.43333 0.30381 0.76012 0.0
C507 C 0.3919 0.30958 0.86118 0.0
C508 C 0.37231 0.33338 0.90985 0.0
C509 C 0.41412 0.32777 0.80903 0.0
C510 C 0.3759 0.37573 0.90735 0.0
C511 C 0.39811 0.39429 0.85547 0.0
H512 H 0.63082 0.48712 0.79412 0.0
H513 H 0.59404 0.3824 0.67973 0.0
H514 H 0.60791 0.33851 0.77559 0.0
H515 H 0.63098 0.32977 0.89239 0.0
H516 H 0.68139 0.43207 0.99796 0.0
H517 H 0.66061 0.47728 0.90669 0.0
C518 C 0.62577 0.4547 0.79005 0.0
C519 C 0.60942 0.43835 0.73035 0.0
C520 C 0.63593 0.42931 0.84452 0.0
C521 C 0.60434 0.39615 0.72572 0.0
C522 C 0.61285 0.3709 0.7805 0.0
C523 C 0.63774 0.3619 0.89504 0.0
C524 C 0.65688 0.37753 0.95264 0.0
C525 C 0.62845 0.38719 0.84024 0.0
C526 C 0.66522 0.41933 0.9557 0.0
C527 C 0.65403 0.44514 0.9028 0.0
H528 H 0.63571 0.50022 0.26593 0.0
H529 H 0.51122 0.47018 0.22417 0.0
H530 H 0.53303 0.42127 0.13863 0.0
H531 H 0.58857 0.38103 0.08584 0.0
H532 H 0.71214 0.41061 0.13224 0.0
H533 H 0.68994 0.46619 0.20523 0.0
C534 C 0.61324 0.48337 0.23764 0.0
C535 C 0.57197 0.48784 0.2529 0.0
C536 C 0.62602 0.45515 0.18938 0.0
C537 C 0.54327 0.46653 0.21449 0.0
C538 C 0.55572 0.43857 0.16555 0.0
C539 C 0.61028 0.40043 0.111 0.0
C540 C 0.65176 0.39224 0.10442 0.0
C541 C 0.59711 0.43167 0.15413 0.0
C542 C 0.68009 0.41687 0.13726 0.0
C543 C 0.6674 0.44837 0.1789 0.0
H544 H 0.49948 0.63432 0.21951 0.0
H545 H 0.59854 0.60242 0.35097 0.0
H546 H 0.64496 0.60224 0.25636 0.0
H547 H 0.65929 0.61762 0.13871 0.0
H548 H 0.56574 0.66824 0.01365 0.0
H549 H 0.51492 0.65238 0.1002 0.0
C550 C 0.5312 0.62721 0.22716 0.0
C551 C 0.54534 0.61768 0.29232 0.0
C552 C 0.55861 0.62998 0.17279 0.0
C553 C 0.58666 0.60939 0.30162 0.0
C554 C 0.61334 0.60916 0.24734 0.0
C555 C 0.6277 0.62499 0.13057 0.0
C556 C 0.61632 0.64447 0.07071 0.0
C557 C 0.59983 0.62019 0.1831 0.0
C558 C 0.57518 0.65284 0.05927 0.0
C559 C 0.5463 0.64455 0.10934 0.0
H560 H 0.36425 0.49528 0.21836 0.0
H561 H 0.40024 0.59736 0.34042 0.0
H562 H 0.38668 0.64346 0.24722 0.0
H563 H 0.35952 0.6557 0.13406 0.0
H564 H 0.31901 0.55548 0.01327 0.0
H565 H 0.34016 0.50751 0.10166 0.0
C566 C 0.36936 0.52757 0.22431 0.0
C567 C 0.38356 0.54276 0.28633 0.0
C568 C 0.36081 0.55419 0.17046 0.0
C569 C 0.38994 0.58472 0.29318 0.0
C570 C 0.38199 0.61121 0.23991 0.0
C571 C 0.35607 0.62325 0.12703 0.0
C572 C 0.33807 0.60891 0.06769 0.0
C573 C 0.36691 0.59636 0.17878 0.0
C574 C 0.33341 0.56697 0.05836 0.0
C575 C 0.345 0.53972 0.10921 0.0
H576 H 0.49213 0.33249 0.2273 0.0
H577 H 0.42863 0.44573 0.25509 0.0
H578 H 0.38337 0.4292 0.16188 0.0
H579 H 0.35732 0.37915 0.07988 0.0
H580 H 0.42087 0.26668 0.05104 0.0
H581 H 0.47113 0.28633 0.13616 0.0
C582 C 0.46857 0.3537 0.21275 0.0
C583 C 0.46303 0.38977 0.24968 0.0
C584 C 0.44275 0.3441 0.15866 0.0
C585 C 0.43288 0.41725 0.22896 0.0
C586 C 0.40708 0.40793 0.17535 0.0
C587 C 0.38289 0.35967 0.09131 0.0
C588 C 0.38583 0.32171 0.05985 0.0
C589 C 0.41107 0.37101 0.14094 0.0
C590 C 0.41857 0.29616 0.07484 0.0
C591 C 0.44693 0.30727 0.12376 0.0
loop_
_geom_bond_atom_site_label_1
_geom_bond_atom_site_label_2
_geom_bond_distance
_geom_bond_site_symmetry_2
_ccdc_geom_bond_type
Zn0 O2 1.933 1_556 S
Zn0 O20 1.985 . S
Zn0 O31 1.955 . S
Zn1 O2 1.911 . S
Zn1 O21 1.970 . S
Zn1 O37 1.945 . S
Zn1 O44 1.981 . S
O2 Zn0 1.933 1_554 S
O2 Zn1 1.911 . S
O2 H3 0.841 1_655 S
H3 O2 0.841 1_455 S
C4 O5 1.246 . S
C4 O33 1.276 1_545 S
O5 C4 1.246 . S
Zn6 O8 1.911 . S
Zn6 O23 1.970 . S
Zn6 O40 1.945 . S
Zn6 O47 1.981 . S
Zn7 O8 1.933 1_556 S
Zn7 O22 1.985 . S
Zn7 O29 1.955 . S
O8 Zn6 1.911 . S
O8 Zn7 1.933 1_554 S
O8 H9 0.841 1_455 S
H9 O8 0.841 1_655 S
Zn10 O11 1.933 1_556 S
Zn10 O24 1.985 . S
Zn10 O33 1.955 . S
O11 Zn10 1.933 1_554 S
O11 Zn12 1.911 . S
O11 H13 0.841 1_565 S
Zn12 O11 1.911 . S
Zn12 O25 1.970 . S
Zn12 O41 1.981 . S
Zn12 O43 1.945 . S
H13 O11 0.841 1_545 S
Zn14 O15 1.933 1_556 S
Zn14 O27 1.985 . S
Zn14 O35 1.955 . S
O15 Zn14 1.933 1_554 S
O15 H16 0.841 1_545 S
O15 Zn17 1.911 . S
H16 O15 0.841 1_565 S
Zn17 O15 1.911 . S
Zn17 O28 1.970 . S
Zn17 O38 1.981 . S
Zn17 O46 1.945 . S
C18 O19 1.246 . S
C18 O35 1.276 1_565 S
O19 C18 1.246 . S
O20 Zn0 1.985 . S
O20 C30 1.245 1_556 S
O21 Zn1 1.970 . S
O21 C30 1.263 . S
O22 Zn7 1.985 . S
O22 C34 1.245 1_556 S
O23 Zn6 1.970 . S
O23 C34 1.263 . S
O24 Zn10 1.985 . S
O24 C39 1.245 1_556 S
O25 Zn12 1.970 . S
O25 C39 1.263 . S
C26 O37 1.262 1_455 S
C26 O38 1.245 . S
O27 Zn14 1.985 . S
O27 C45 1.245 1_556 S
O28 Zn17 1.970 . S
O28 C45 1.263 . S
O29 Zn7 1.955 . S
O29 C48 1.276 1_455 S
C30 O20 1.245 1_554 S
C30 O21 1.263 . S
O31 Zn0 1.955 . S
O31 C50 1.276 1_655 S
C32 O40 1.262 1_655 S
C32 O41 1.245 . S
O33 C4 1.276 1_565 S
O33 Zn10 1.955 . S
C34 O22 1.245 1_554 S
C34 O23 1.263 . S
O35 Zn14 1.955 . S
O35 C18 1.276 1_545 S
C36 O43 1.262 1_545 S
C36 O44 1.245 . S
O37 Zn1 1.945 . S
O37 C26 1.262 1_655 S
O38 Zn17 1.981 . S
O38 C26 1.245 . S
C39 O24 1.245 1_554 S
C39 O25 1.263 . S
O40 Zn6 1.945 . S
O40 C32 1.262 1_455 S
O41 Zn12 1.981 . S
O41 C32 1.245 . S
C42 O46 1.262 1_565 S
C42 O47 1.245 . S
O43 Zn12 1.945 . S
O43 C36 1.262 1_565 S
O44 Zn1 1.981 . S
O44 C36 1.245 . S
C45 O27 1.245 1_554 S
C45 O28 1.263 . S
O46 Zn17 1.945 . S
O46 C42 1.262 1_545 S
O47 Zn6 1.981 . S
O47 C42 1.245 . S
C48 O29 1.276 1_655 S
C48 O49 1.246 . S
O49 C48 1.246 . S
C50 O31 1.276 1_455 S
C50 O51 1.246 . S
O51 C50 1.246 . S
Zn52 O54 1.933 . S
Zn52 O72 1.985 . S
Zn52 O83 1.955 . S
Zn53 O54 1.911 . S
Zn53 O73 1.970 . S
Zn53 O89 1.945 . S
Zn53 O96 1.981 . S
O54 Zn52 1.933 . S
O54 Zn53 1.911 . S
O54 H55 0.841 . S
H55 O54 0.841 . S
C56 O57 1.246 . S
C56 O85 1.276 . S
O57 C56 1.246 . S
Zn58 O60 1.911 . S
Zn58 O75 1.970 . S
Zn58 O92 1.945 . S
Zn58 O99 1.981 . S
Zn59 O60 1.933 . S
Zn59 O74 1.985 . S
Zn59 O81 1.955 . S
O60 Zn58 1.911 . S
O60 Zn59 1.933 . S
O60 H61 0.841 . S
H61 O60 0.841 . S
Zn62 O63 1.933 . S
Zn62 O76 1.985 . S
Zn62 O85 1.955 . S
O63 Zn62 1.933 . S
O63 Zn64 1.911 . S
O63 H65 0.841 . S
Zn64 O63 1.911 . S
Zn64 O77 1.970 . S
Zn64 O93 1.981 . S
Zn64 O95 1.945 . S
H65 O63 0.841 . S
Zn66 O67 1.933 . S
Zn66 O79 1.985 . S
Zn66 O87 1.955 . S
O67 Zn66 1.933 . S
O67 H68 0.841 . S
O67 Zn69 1.911 . S
H68 O67 0.841 . S
Zn69 O67 1.911 . S
Zn69 O80 1.970 . S
Zn69 O90 1.981 . S
Zn69 O98 1.945 . S
C70 O71 1.246 . S
C70 O87 1.276 . S
O71 C70 1.246 . S
O72 Zn52 1.985 . S
O72 C82 1.245 . S
O73 Zn53 1.970 . S
O73 C82 1.263 . S
O74 Zn59 1.985 . S
O74 C86 1.245 . S
O75 Zn58 1.970 . S
O75 C86 1.263 . S
O76 Zn62 1.985 . S
O76 C91 1.245 . S
O77 Zn64 1.970 . S
O77 C91 1.263 . S
C78 O89 1.262 . S
C78 O90 1.245 . S
O79 Zn66 1.985 . S
O79 C97 1.245 . S
O80 Zn69 1.970 . S
O80 C97 1.263 . S
O81 Zn59 1.955 . S
O81 C100 1.276 . S
C82 O72 1.245 . S
C82 O73 1.263 . S
O83 Zn52 1.955 . S
O83 C102 1.276 . S
C84 O92 1.262 . S
C84 O93 1.245 . S
O85 C56 1.276 . S
O85 Zn62 1.955 . S
C86 O74 1.245 . S
C86 O75 1.263 . S
O87 Zn66 1.955 . S
O87 C70 1.276 . S
C88 O95 1.262 . S
C88 O96 1.245 . S
O89 Zn53 1.945 . S
O89 C78 1.262 . S
O90 Zn69 1.981 . S
O90 C78 1.245 . S
C91 O76 1.245 . S
C91 O77 1.263 . S
O92 Zn58 1.945 . S
O92 C84 1.262 . S
O93 Zn64 1.981 . S
O93 C84 1.245 . S
C94 O98 1.262 . S
C94 O99 1.245 . S
O95 Zn64 1.945 . S
O95 C88 1.262 . S
O96 Zn53 1.981 . S
O96 C88 1.245 . S
C97 O79 1.245 . S
C97 O80 1.263 . S
O98 Zn69 1.945 . S
O98 C94 1.262 . S
O99 Zn58 1.981 . S
O99 C94 1.245 . S
C100 O81 1.276 . S
C100 O101 1.246 . S
O101 C100 1.246 . S
C102 O83 1.276 . S
C102 O103 1.246 . S
O103 C102 1.246 . S
C104 N105 1.317 . S
C104 N106 1.348 1_556 S
C104 C107 1.485 . S
N105 C104 1.317 . S
N105 N109 1.370 1_556 S
N106 C104 1.348 1_554 S
N106 C108 1.346 . S
C107 C104 1.485 . S
C107 H111 0.960 . S
C107 H112 0.961 . S
C107 H113 0.960 . S
C108 N106 1.346 . S
C108 N109 1.307 . S
C108 C110 1.486 . S
N109 N105 1.370 1_554 S
N109 C108 1.307 . S
C110 C108 1.486 . S
C110 H114 0.960 . S
C110 H115 0.960 . S
C110 H116 0.959 . S
H111 C107 0.960 . S
H112 C107 0.961 . S
H113 C107 0.960 . S
H114 C110 0.960 . S
H115 C110 0.960 . S
H116 C110 0.959 . S
C117 N118 1.317 . S
C117 N119 1.348 1_556 S
C117 C120 1.485 . S
N118 C117 1.317 . S
N118 N122 1.370 1_556 S
N119 C117 1.348 1_554 S
N119 C121 1.346 . S
C120 C117 1.485 . S
C120 H124 0.960 . S
C120 H125 0.961 . S
C120 H126 0.960 . S
C121 N119 1.346 . S
C121 N122 1.307 . S
C121 C123 1.486 . S
N122 N118 1.370 1_554 S
N122 C121 1.307 . S
C123 C121 1.486 . S
C123 H127 0.960 . S
C123 H128 0.960 . S
C123 H129 0.959 . S
H124 C120 0.960 . S
H125 C120 0.961 . S
H126 C120 0.960 . S
H127 C123 0.960 . S
H128 C123 0.960 . S
H129 C123 0.959 . S
C130 N131 1.317 . S
C130 N132 1.348 . S
C130 C133 1.485 . S
N131 C130 1.317 . S
N131 N135 1.370 1_554 S
N132 C130 1.348 . S
N132 C134 1.346 1_554 S
C133 C130 1.485 . S
C133 H137 0.960 . S
C133 H138 0.961 . S
C133 H139 0.960 . S
C134 N132 1.346 1_556 S
C134 N135 1.307 . S
C134 C136 1.486 . S
N135 N131 1.370 1_556 S
N135 C134 1.307 . S
C136 C134 1.486 . S
C136 H140 0.960 . S
C136 H141 0.960 . S
C136 H142 0.959 . S
H137 C133 0.960 . S
H138 C133 0.961 . S
H139 C133 0.960 . S
H140 C136 0.960 . S
H141 C136 0.960 . S
H142 C136 0.959 . S
C143 N144 1.317 . S
C143 N145 1.348 . S
C143 C146 1.485 . S
N144 C143 1.317 . S
N144 N148 1.370 1_554 S
N145 C143 1.348 . S
N145 C147 1.346 1_554 S
C146 C143 1.485 . S
C146 H150 0.960 . S
C146 H151 0.961 . S
C146 H152 0.960 . S
C147 N145 1.346 1_556 S
C147 N148 1.307 . S
C147 C149 1.486 . S
N148 N144 1.370 1_556 S
N148 C147 1.307 . S
C149 C147 1.486 . S
C149 H153 0.960 . S
C149 H154 0.960 . S
C149 H155 0.959 . S
H150 C146 0.960 . S
H151 C146 0.961 . S
H152 C146 0.960 . S
H153 C149 0.960 . S
H154 C149 0.960 . S
H155 C149 0.959 . S
C156 N157 1.317 . S
C156 N158 1.348 . S
C156 C159 1.485 . S
N157 C156 1.317 . S
N157 N161 1.370 . S
N158 C156 1.348 . S
N158 C160 1.346 . S
C159 C156 1.485 . S
C159 H163 0.960 . S
C159 H164 0.961 . S
C159 H165 0.960 . S
C160 N158 1.346 . S
C160 N161 1.307 . S
C160 C162 1.486 . S
N161 N157 1.370 . S
N161 C160 1.307 . S
C162 C160 1.486 . S
C162 H166 0.960 . S
C162 H167 0.960 . S
C162 H168 0.959 . S
H163 C159 0.960 . S
H164 C159 0.961 . S
H165 C159 0.960 . S
H166 C162 0.960 . S
H167 C162 0.960 . S
H168 C162 0.959 . S
C169 N170 1.317 . S
C169 N171 1.348 . S
C169 C172 1.485 . S
N170 C169 1.317 . S
N170 N174 1.370 . S
N171 C169 1.348 . S
N171 C173 1.346 . S
C172 C169 1.485 . S
C172 H176 0.960 . S
C172 H177 0.961 . S
C172 H178 0.960 . S
C173 N171 1.346 . S
C173 N174 1.307 . S
C173 C175 1.486 . S
N174 N170 1.370 . S
N174 C173 1.307 . S
C175 C173 1.486 . S
C175 H179 0.960 . S
C175 H180 0.960 . S
C175 H181 0.959 . S
H176 C172 0.960 . S
H177 C172 0.961 . S
H178 C172 0.960 . S
H179 C175 0.960 . S
H180 C175 0.960 . S
H181 C175 0.959 . S
C182 N183 1.317 . S
C182 N184 1.348 . S
C182 C185 1.485 . S
N183 C182 1.317 . S
N183 N187 1.370 . S
N184 C182 1.348 . S
N184 C186 1.346 . S
C185 C182 1.485 . S
C185 H189 0.960 . S
C185 H190 0.961 . S
C185 H191 0.960 . S
C186 N184 1.346 . S
C186 N187 1.307 . S
C186 C188 1.486 . S
N187 N183 1.370 . S
N187 C186 1.307 . S
C188 C186 1.486 . S
C188 H192 0.960 . S
C188 H193 0.960 . S
C188 H194 0.959 . S
H189 C185 0.960 . S
H190 C185 0.961 . S
H191 C185 0.960 . S
H192 C188 0.960 . S
H193 C188 0.960 . S
H194 C188 0.959 . S
C195 N196 1.317 . S
C195 N197 1.348 . S
C195 C198 1.485 . S
N196 C195 1.317 . S
N196 N200 1.370 . S
N197 C195 1.348 . S
N197 C199 1.346 . S
C198 C195 1.485 . S
C198 H202 0.960 . S
C198 H203 0.961 . S
C198 H204 0.960 . S
C199 N197 1.346 . S
C199 N200 1.307 . S
C199 C201 1.486 . S
N200 N196 1.370 . S
N200 C199 1.307 . S
C201 C199 1.486 . S
C201 H205 0.960 . S
C201 H206 0.960 . S
C201 H207 0.959 . S
H202 C198 0.960 . S
H203 C198 0.961 . S
H204 C198 0.960 . S
H205 C201 0.960 . S
H206 C201 0.960 . S
H207 C201 0.959 . S
H208 C214 0.930 . S
H209 C217 0.930 . S
H210 C218 0.930 . S
H211 C219 0.930 . S
H212 C222 0.930 . S
H213 C223 0.930 . S
C214 H208 0.930 . S
C214 C215 1.355 1_556 S
C214 C216 1.415 . S
C215 C214 1.355 1_554 S
C215 C217 1.419 . S
C216 C214 1.415 . S
C216 C221 1.425 1_556 S
C216 C223 1.409 . S
C217 H209 0.930 . S
C217 C215 1.419 . S
C217 C218 1.362 . S
C218 H210 0.930 . S
C218 C217 1.362 . S
C218 C221 1.409 . S
C219 H211 0.930 . S
C219 C220 1.355 . S
C219 C221 1.415 . S
C220 C219 1.355 . S
C220 C222 1.419 1_554 S
C221 C216 1.425 1_554 S
C221 C218 1.409 . S
C221 C219 1.415 . S
C222 H212 0.930 . S
C222 C220 1.419 1_556 S
C222 C223 1.362 . S
C223 H213 0.930 . S
C223 C216 1.409 . S
C223 C222 1.362 . S
H224 C230 0.930 . S
H225 C233 0.930 . S
H226 C234 0.930 . S
H227 C235 0.930 . S
H228 C238 0.930 . S
H229 C239 0.930 . S
C230 H224 0.930 . S
C230 C231 1.355 . S
C230 C232 1.415 . S
C231 C230 1.355 . S
C231 C233 1.419 . S
C232 C230 1.415 . S
C232 C237 1.425 . S
C232 C239 1.409 . S
C233 H225 0.930 . S
C233 C231 1.419 . S
C233 C234 1.362 . S
C234 H226 0.930 . S
C234 C233 1.362 . S
C234 C237 1.409 . S
C235 H227 0.930 . S
C235 C236 1.355 . S
C235 C237 1.415 . S
C236 C235 1.355 . S
C236 C238 1.419 . S
C237 C232 1.425 . S
C237 C234 1.409 . S
C237 C235 1.415 . S
C238 H228 0.930 . S
C238 C236 1.419 . S
C238 C239 1.362 . S
C239 H229 0.930 . S
C239 C232 1.409 . S
C239 C238 1.362 . S
H240 C246 0.930 . S
H241 C249 0.930 . S
H242 C250 0.930 . S
H243 C251 0.930 . S
H244 C254 0.930 . S
H245 C255 0.930 . S
C246 H240 0.930 . S
C246 C247 1.355 . S
C246 C248 1.415 . S
C247 C246 1.355 . S
C247 C249 1.419 1_554 S
C248 C246 1.415 . S
C248 C253 1.425 1_554 S
C248 C255 1.409 . S
C249 H241 0.930 . S
C249 C247 1.419 1_556 S
C249 C250 1.362 . S
C250 H242 0.930 . S
C250 C249 1.362 . S
C250 C253 1.409 . S
C251 H243 0.930 . S
C251 C252 1.355 1_556 S
C251 C253 1.415 . S
C252 C251 1.355 1_554 S
C252 C254 1.419 . S
C253 C248 1.425 1_556 S
C253 C250 1.409 . S
C253 C251 1.415 . S
C254 H244 0.930 . S
C254 C252 1.419 . S
C254 C255 1.362 . S
C255 H245 0.930 . S
C255 C248 1.409 . S
C255 C254 1.362 . S
H256 C262 0.930 1_556 S
H257 C265 0.930 . S
H258 C266 0.930 . S
H259 C267 0.930 . S
H260 C270 0.930 . S
H261 C271 0.930 . S
C262 H256 0.930 1_554 S
C262 C263 1.355 . S
C262 C264 1.415 . S
C263 C262 1.355 . S
C263 C265 1.419 . S
C264 C262 1.415 . S
C264 C269 1.425 . S
C264 C271 1.409 1_554 S
C265 H257 0.930 . S
C265 C263 1.419 . S
C265 C266 1.362 . S
C266 H258 0.930 . S
C266 C265 1.362 . S
C266 C269 1.409 . S
C267 H259 0.930 . S
C267 C268 1.355 . S
C267 C269 1.415 . S
C268 C267 1.355 . S
C268 C270 1.419 1_554 S
C269 C264 1.425 . S
C269 C266 1.409 . S
C269 C267 1.415 . S
C270 H260 0.930 . S
C270 C268 1.419 1_556 S
C270 C271 1.362 . S
C271 H261 0.930 . S
C271 C264 1.409 1_556 S
C271 C270 1.362 . S
H272 C278 0.930 . S
H273 C281 0.930 . S
H274 C282 0.930 . S
H275 C283 0.930 . S
H276 C286 0.930 . S
H277 C287 0.930 . S
C278 H272 0.930 . S
C278 C279 1.355 . S
C278 C280 1.415 . S
C279 C278 1.355 . S
C279 C281 1.419 . S
C280 C278 1.415 . S
C280 C285 1.425 . S
C280 C287 1.409 . S
C281 H273 0.930 . S
C281 C279 1.419 . S
C281 C282 1.362 . S
C282 H274 0.930 . S
C282 C281 1.362 . S
C282 C285 1.409 . S
C283 H275 0.930 . S
C283 C284 1.355 . S
C283 C285 1.415 . S
C284 C283 1.355 . S
C284 C286 1.419 . S
C285 C280 1.425 . S
C285 C282 1.409 . S
C285 C283 1.415 . S
C286 H276 0.930 . S
C286 C284 1.419 . S
C286 C287 1.362 . S
C287 H277 0.930 . S
C287 C280 1.409 . S
C287 C286 1.362 . S
H288 C294 0.930 . S
H289 C297 0.930 . S
H290 C298 0.930 . S
H291 C299 0.930 . S
H292 C302 0.930 . S
H293 C303 0.930 . S
C294 H288 0.930 . S
C294 C295 1.355 . S
C294 C296 1.415 . S
C295 C294 1.355 . S
C295 C297 1.419 . S
C296 C294 1.415 . S
C296 C301 1.425 . S
C296 C303 1.409 . S
C297 H289 0.930 . S
C297 C295 1.419 . S
C297 C298 1.362 . S
C298 H290 0.930 . S
C298 C297 1.362 . S
C298 C301 1.409 . S
C299 H291 0.930 . S
C299 C300 1.355 . S
C299 C301 1.415 . S
C300 C299 1.355 . S
C300 C302 1.419 . S
C301 C296 1.425 . S
C301 C298 1.409 . S
C301 C299 1.415 . S
C302 H292 0.930 . S
C302 C300 1.419 . S
C302 C303 1.362 . S
C303 H293 0.930 . S
C303 C296 1.409 . S
C303 C302 1.362 . S
H304 C310 0.930 . S
H305 C313 0.930 . S
H306 C314 0.930 . S
H307 C315 0.930 . S
H308 C318 0.930 . S
H309 C319 0.930 . S
C310 H304 0.930 . S
C310 C311 1.355 . S
C310 C312 1.415 . S
C311 C310 1.355 . S
C311 C313 1.419 . S
C312 C310 1.415 . S
C312 C317 1.425 . S
C312 C319 1.409 . S
C313 H305 0.930 . S
C313 C311 1.419 . S
C313 C314 1.362 . S
C314 H306 0.930 . S
C314 C313 1.362 . S
C314 C317 1.409 . S
C315 H307 0.930 . S
C315 C316 1.355 . S
C315 C317 1.415 . S
C316 C315 1.355 . S
C316 C318 1.419 . S
C317 C312 1.425 . S
C317 C314 1.409 . S
C317 C315 1.415 . S
C318 H308 0.930 . S
C318 C316 1.419 . S
C318 C319 1.362 . S
C319 H309 0.930 . S
C319 C312 1.409 . S
C319 C318 1.362 . S
H320 C326 0.930 . S
H321 C329 0.930 . S
H322 C330 0.930 . S
H323 C331 0.930 . S
H324 C334 0.930 . S
H325 C335 0.930 . S
C326 H320 0.930 . S
C326 C327 1.355 . S
C326 C328 1.415 . S
C327 C326 1.355 . S
C327 C329 1.419 . S
C328 C326 1.415 . S
C328 C333 1.425 . S
C328 C335 1.409 . S
C329 H321 0.930 . S
C329 C327 1.419 . S
C329 C330 1.362 . S
C330 H322 0.930 . S
C330 C329 1.362 . S
C330 C333 1.409 . S
C331 H323 0.930 . S
C331 C332 1.355 . S
C331 C333 1.415 . S
C332 C331 1.355 . S
C332 C334 1.419 . S
C333 C328 1.425 . S
C333 C330 1.409 . S
C333 C331 1.415 . S
C334 H324 0.930 . S
C334 C332 1.419 . S
C334 C335 1.362 . S
C335 H325 0.930 . S
C335 C328 1.409 . S
C335 C334 1.362 . S
H336 C342 0.930 . S
H337 C345 0.930 . S
H338 C346 0.930 . S
H339 C347 0.930 . S
H340 C350 0.930 . S
H341 C351 0.930 . S
C342 H336 0.930 . S
C342 C343 1.355 . S
C342 C344 1.415 . S
C343 C342 1.355 . S
C343 C345 1.419 . S
C344 C342 1.415 . S
C344 C349 1.425 . S
C344 C351 1.409 . S
C345 H337 0.930 . S
C345 C343 1.419 . S
C345 C346 1.362 . S
C346 H338 0.930 . S
C346 C345 1.362 . S
C346 C349 1.409 . S
C347 H339 0.930 . S
C347 C348 1.355 . S
C347 C349 1.415 . S
C348 C347 1.355 . S
C348 C350 1.419 . S
C349 C344 1.425 . S
C349 C346 1.409 . S
C349 C347 1.415 . S
C350 H340 0.930 . S
C350 C348 1.419 . S
C350 C351 1.362 . S
C351 H341 0.930 . S
C351 C344 1.409 . S
C351 C350 1.362 . S
H352 C358 0.930 . S
H353 C361 0.930 1_565 S
H354 C362 0.930 1_565 S
H355 C363 0.930 . S
H356 C366 0.930 . S
H357 C367 0.930 . S
C358 H352 0.930 . S
C358 C359 1.355 . S
C358 C360 1.415 . S
C359 C358 1.355 . S
C359 C361 1.419 . S
C360 C358 1.415 . S
C360 C365 1.425 . S
C360 C367 1.409 . S
C361 H353 0.930 1_545 S
C361 C359 1.419 . S
C361 C362 1.362 . S
C362 H354 0.930 1_545 S
C362 C361 1.362 . S
C362 C365 1.409 . S
C363 H355 0.930 . S
C363 C364 1.355 . S
C363 C365 1.415 . S
C364 C363 1.355 . S
C364 C366 1.419 . S
C365 C360 1.425 . S
C365 C362 1.409 . S
C365 C363 1.415 . S
C366 H356 0.930 . S
C366 C364 1.419 . S
C366 C367 1.362 . S
C367 H357 0.930 . S
C367 C360 1.409 . S
C367 C366 1.362 . S
H368 C374 0.930 . S
H369 C377 0.930 . S
H370 C378 0.930 . S
H371 C379 0.930 . S
H372 C382 0.930 . S
H373 C383 0.930 . S
C374 H368 0.930 . S
C374 C375 1.355 . S
C374 C376 1.415 . S
C375 C374 1.355 . S
C375 C377 1.419 . S
C376 C374 1.415 . S
C376 C381 1.425 . S
C376 C383 1.409 . S
C377 H369 0.930 . S
C377 C375 1.419 . S
C377 C378 1.362 . S
C378 H370 0.930 . S
C378 C377 1.362 . S
C378 C381 1.409 . S
C379 H371 0.930 . S
C379 C380 1.355 . S
C379 C381 1.415 . S
C380 C379 1.355 . S
C380 C382 1.419 . S
C381 C376 1.425 . S
C381 C378 1.409 . S
C381 C379 1.415 . S
C382 H372 0.930 . S
C382 C380 1.419 . S
C382 C383 1.362 . S
C383 H373 0.930 . S
C383 C376 1.409 . S
C383 C382 1.362 . S
H384 C390 0.930 . S
H385 C393 0.930 . S
H386 C394 0.930 . S
H387 C395 0.930 . S
H388 C398 0.930 . S
H389 C399 0.930 . S
C390 H384 0.930 . S
C390 C391 1.355 . S
C390 C392 1.415 . S
C391 C390 1.355 . S
C391 C393 1.419 . S
C392 C390 1.415 . S
C392 C397 1.425 . S
C392 C399 1.409 . S
C393 H385 0.930 . S
C393 C391 1.419 . S
C393 C394 1.362 . S
C394 H386 0.930 . S
C394 C393 1.362 . S
C394 C397 1.409 . S
C395 H387 0.930 . S
C395 C396 1.355 . S
C395 C397 1.415 . S
C396 C395 1.355 . S
C396 C398 1.419 . S
C397 C392 1.425 . S
C397 C394 1.409 . S
C397 C395 1.415 . S
C398 H388 0.930 . S
C398 C396 1.419 . S
C398 C399 1.362 . S
C399 H389 0.930 . S
C399 C392 1.409 . S
C399 C398 1.362 . S
H400 C406 0.930 . S
H401 C409 0.930 . S
H402 C410 0.930 . S
H403 C411 0.930 . S
H404 C414 0.930 . S
H405 C415 0.930 . S
C406 H400 0.930 . S
C406 C407 1.355 . S
C406 C408 1.415 . S
C407 C406 1.355 . S
C407 C409 1.419 . S
C408 C406 1.415 . S
C408 C413 1.425 . S
C408 C415 1.409 . S
C409 H401 0.930 . S
C409 C407 1.419 . S
C409 C410 1.362 . S
C410 H402 0.930 . S
C410 C409 1.362 . S
C410 C413 1.409 . S
C411 H403 0.930 . S
C411 C412 1.355 . S
C411 C413 1.415 . S
C412 C411 1.355 . S
C412 C414 1.419 . S
C413 C408 1.425 . S
C413 C410 1.409 . S
C413 C411 1.415 . S
C414 H404 0.930 . S
C414 C412 1.419 . S
C414 C415 1.362 . S
C415 H405 0.930 . S
C415 C408 1.409 . S
C415 C414 1.362 . S
H416 C422 0.930 . S
H417 C425 0.930 1_655 S
H418 C426 0.930 . S
H419 C427 0.930 . S
H420 C430 0.930 . S
H421 C431 0.930 . S
C422 H416 0.930 . S
C422 C423 1.355 . S
C422 C424 1.415 . S
C423 C422 1.355 . S
C423 C425 1.419 . S
C424 C422 1.415 . S
C424 C429 1.425 . S
C424 C431 1.409 . S
C425 H417 0.930 1_455 S
C425 C423 1.419 . S
C425 C426 1.362 . S
C426 H418 0.930 . S
C426 C425 1.362 . S
C426 C429 1.409 . S
C427 H419 0.930 . S
C427 C428 1.355 . S
C427 C429 1.415 . S
C428 C427 1.355 . S
C428 C430 1.419 . S
C429 C424 1.425 . S
C429 C426 1.409 . S
C429 C427 1.415 . S
C430 H420 0.930 . S
C430 C428 1.419 . S
C430 C431 1.362 . S
C431 H421 0.930 . S
C431 C424 1.409 . S
C431 C430 1.362 . S
H432 C438 0.930 . S
H433 C441 0.930 . S
H434 C442 0.930 . S
H435 C443 0.930 . S
H436 C446 0.930 . S
H437 C447 0.930 1_565 S
C438 H432 0.930 . S
C438 C439 1.355 . S
C438 C440 1.415 . S
C439 C438 1.355 . S
C439 C441 1.419 . S
C440 C438 1.415 . S
C440 C445 1.425 . S
C440 C447 1.409 . S
C441 H433 0.930 . S
C441 C439 1.419 . S
C441 C442 1.362 . S
C442 H434 0.930 . S
C442 C441 1.362 . S
C442 C445 1.409 . S
C443 H435 0.930 . S
C443 C444 1.355 . S
C443 C445 1.415 . S
C444 C443 1.355 . S
C444 C446 1.419 . S
C445 C440 1.425 . S
C445 C442 1.409 . S
C445 C443 1.415 . S
C446 H436 0.930 . S
C446 C444 1.419 . S
C446 C447 1.362 . S
C447 H437 0.930 1_545 S
C447 C440 1.409 . S
C447 C446 1.362 . S
H448 C454 0.930 . S
H449 C457 0.930 1_455 S
H450 C458 0.930 1_455 S
H451 C459 0.930 . S
H452 C462 0.930 . S
H453 C463 0.930 . S
C454 H448 0.930 . S
C454 C455 1.355 . S
C454 C456 1.415 . S
C455 C454 1.355 . S
C455 C457 1.419 . S
C456 C454 1.415 . S
C456 C461 1.425 . S
C456 C463 1.409 . S
C457 H449 0.930 1_655 S
C457 C455 1.419 . S
C457 C458 1.362 . S
C458 H450 0.930 1_655 S
C458 C457 1.362 . S
C458 C461 1.409 . S
C459 H451 0.930 . S
C459 C460 1.355 . S
C459 C461 1.415 . S
C460 C459 1.355 . S
C460 C462 1.419 . S
C461 C456 1.425 . S
C461 C458 1.409 . S
C461 C459 1.415 . S
C462 H452 0.930 . S
C462 C460 1.419 . S
C462 C463 1.362 . S
C463 H453 0.930 . S
C463 C456 1.409 . S
C463 C462 1.362 . S
H464 C470 0.930 . S
H465 C473 0.930 . S
H466 C474 0.930 . S
H467 C475 0.930 . S
H468 C478 0.930 . S
H469 C479 0.930 . S
C470 H464 0.930 . S
C470 C471 1.355 . S
C470 C472 1.415 . S
C471 C470 1.355 . S
C471 C473 1.419 . S
C472 C470 1.415 . S
C472 C477 1.425 . S
C472 C479 1.409 . S
C473 H465 0.930 . S
C473 C471 1.419 . S
C473 C474 1.362 . S
C474 H466 0.930 . S
C474 C473 1.362 . S
C474 C477 1.409 . S
C475 H467 0.930 . S
C475 C476 1.355 . S
C475 C477 1.415 . S
C476 C475 1.355 . S
C476 C478 1.419 . S
C477 C472 1.425 . S
C477 C474 1.409 . S
C477 C475 1.415 . S
C478 H468 0.930 . S
C478 C476 1.419 . S
C478 C479 1.362 . S
C479 H469 0.930 . S
C479 C472 1.409 . S
C479 C478 1.362 . S
H480 C486 0.930 . S
H481 C489 0.930 . S
H482 C490 0.930 . S
H483 C491 0.930 . S
H484 C494 0.930 . S
H485 C495 0.930 . S
C486 H480 0.930 . S
C486 C487 1.355 . S
C486 C488 1.415 . S
C487 C486 1.355 . S
C487 C489 1.419 . S
C488 C486 1.415 . S
C488 C493 1.425 . S
C488 C495 1.409 . S
C489 H481 0.930 . S
C489 C487 1.419 . S
C489 C490 1.362 . S
C490 H482 0.930 . S
C490 C489 1.362 . S
C490 C493 1.409 . S
C491 H483 0.930 . S
C491 C492 1.355 . S
C491 C493 1.415 . S
C492 C491 1.355 . S
C492 C494 1.419 . S
C493 C488 1.425 . S
C493 C490 1.409 . S
C493 C491 1.415 . S
C494 H484 0.930 . S
C494 C492 1.419 . S
C494 C495 1.362 . S
C495 H485 0.930 . S
C495 C488 1.409 . S
C495 C494 1.362 . S
H496 C502 0.930 . S
H497 C505 0.930 . S
H498 C506 0.930 . S
H499 C507 0.930 . S
H500 C510 0.930 . S
H501 C511 0.930 . S
C502 H496 0.930 . S
C502 C503 1.355 . S
C502 C504 1.415 . S
C503 C502 1.355 . S
C503 C505 1.419 . S
C504 C502 1.415 . S
C504 C509 1.425 . S
C504 C511 1.409 . S
C505 H497 0.930 . S
C505 C503 1.419 . S
C505 C506 1.362 . S
C506 H498 0.930 . S
C506 C505 1.362 . S
C506 C509 1.409 . S
C507 H499 0.930 . S
C507 C508 1.355 . S
C507 C509 1.415 . S
C508 C507 1.355 . S
C508 C510 1.419 . S
C509 C504 1.425 . S
C509 C506 1.409 . S
C509 C507 1.415 . S
C510 H500 0.930 . S
C510 C508 1.419 . S
C510 C511 1.362 . S
C511 H501 0.930 . S
C511 C504 1.409 . S
C511 C510 1.362 . S
H512 C518 0.930 . S
H513 C521 0.930 . S
H514 C522 0.930 . S
H515 C523 0.930 . S
H516 C526 0.930 . S
H517 C527 0.930 . S
C518 H512 0.930 . S
C518 C519 1.355 . S
C518 C520 1.415 . S
C519 C518 1.355 . S
C519 C521 1.419 . S
C520 C518 1.415 . S
C520 C525 1.425 . S
C520 C527 1.409 . S
C521 H513 0.930 . S
C521 C519 1.419 . S
C521 C522 1.362 . S
C522 H514 0.930 . S
C522 C521 1.362 . S
C522 C525 1.409 . S
C523 H515 0.930 . S
C523 C524 1.355 . S
C523 C525 1.415 . S
C524 C523 1.355 . S
C524 C526 1.419 . S
C525 C520 1.425 . S
C525 C522 1.409 . S
C525 C523 1.415 . S
C526 H516 0.930 . S
C526 C524 1.419 . S
C526 C527 1.362 . S
C527 H517 0.930 . S
C527 C520 1.409 . S
C527 C526 1.362 . S
H528 C534 0.930 . S
H529 C537 0.930 . S
H530 C538 0.930 . S
H531 C539 0.930 . S
H532 C542 0.930 . S
H533 C543 0.930 . S
C534 H528 0.930 . S
C534 C535 1.355 . S
C534 C536 1.415 . S
C535 C534 1.355 . S
C535 C537 1.419 . S
C536 C534 1.415 . S
C536 C541 1.425 . S
C536 C543 1.409 . S
C537 H529 0.930 . S
C537 C535 1.419 . S
C537 C538 1.362 . S
C538 H530 0.930 . S
C538 C537 1.362 . S
C538 C541 1.409 . S
C539 H531 0.930 . S
C539 C540 1.355 . S
C539 C541 1.415 . S
C540 C539 1.355 . S
C540 C542 1.419 . S
C541 C536 1.425 . S
C541 C538 1.409 . S
C541 C539 1.415 . S
C542 H532 0.930 . S
C542 C540 1.419 . S
C542 C543 1.362 . S
C543 H533 0.930 . S
C543 C536 1.409 . S
C543 C542 1.362 . S
H544 C550 0.930 . S
H545 C553 0.930 . S
H546 C554 0.930 . S
H547 C555 0.930 . S
H548 C558 0.930 . S
H549 C559 0.930 . S
C550 H544 0.930 . S
C550 C551 1.355 . S
C550 C552 1.415 . S
C551 C550 1.355 . S
C551 C553 1.419 . S
C552 C550 1.415 . S
C552 C557 1.425 . S
C552 C559 1.409 . S
C553 H545 0.930 . S
C553 C551 1.419 . S
C553 C554 1.362 . S
C554 H546 0.930 . S
C554 C553 1.362 . S
C554 C557 1.409 . S
C555 H547 0.930 . S
C555 C556 1.355 . S
C555 C557 1.415 . S
C556 C555 1.355 . S
C556 C558 1.419 . S
C557 C552 1.425 . S
C557 C554 1.409 . S
C557 C555 1.415 . S
C558 H548 0.930 . S
C558 C556 1.419 . S
C558 C559 1.362 . S
C559 H549 0.930 . S
C559 C552 1.409 . S
C559 C558 1.362 . S
H560 C566 0.930 . S
H561 C569 0.930 . S
H562 C570 0.930 . S
H563 C571 0.930 . S
H564 C574 0.930 . S
H565 C575 0.930 . S
C566 H560 0.930 . S
C566 C567 1.355 . S
C566 C568 1.415 . S
C567 C566 1.355 . S
C567 C569 1.419 . S
C568 C566 1.415 . S
C568 C573 1.425 . S
C568 C575 1.409 . S
C569 H561 0.930 . S
C569 C567 1.419 . S
C569 C570 1.362 . S
C570 H562 0.930 . S
C570 C569 1.362 . S
C570 C573 1.409 . S
C571 H563 0.930 . S
C571 C572 1.355 . S
C571 C573 1.415 . S
C572 C571 1.355 . S
C572 C574 1.419 . S
C573 C568 1.425 . S
C573 C570 1.409 . S
C573 C571 1.415 . S
C574 H564 0.930 . S
C574 C572 1.419 . S
C574 C575 1.362 . S
C575 H565 0.930 . S
C575 C568 1.409 . S
C575 C574 1.362 . S
H576 C582 0.930 . S
H577 C585 0.930 . S
H578 C586 0.930 . S
H579 C587 0.930 . S
H580 C590 0.930 . S
H581 C591 0.930 . S
C582 H576 0.930 . S
C582 C583 1.355 . S
C582 C584 1.415 . S
C583 C582 1.355 . S
C583 C585 1.419 . S
C584 C582 1.415 . S
C584 C589 1.425 . S
C584 C591 1.409 . S
C585 H577 0.930 . S
C585 C583 1.419 . S
C585 C586 1.362 . S
C586 H578 0.930 . S
C586 C585 1.362 . S
C586 C589 1.409 . S
C587 H579 0.930 . S
C587 C588 1.355 . S
C587 C589 1.415 . S
C588 C587 1.355 . S
C588 C590 1.419 . S
C589 C584 1.425 . S
C589 C586 1.409 . S
C589 C587 1.415 . S
C590 H580 0.930 . S
C590 C588 1.419 . S
C590 C591 1.362 . S
C591 H581 0.930 . S
C591 C584 1.409 . S
C591 C590 1.362 . S
C215 C45 1.548 . S
C220 N106 1.552 . S
C231 C30 1.515 . S
C236 N119 1.534 . S
C247 C39 1.553 . S
C252 N132 1.554 . S
C268 N145 1.552 . S
C263 C34 1.551 . S
C279 C97 1.552 . S
C284 N158 1.557 . S
C300 N171 1.554 . S
C295 C82 1.553 . S
C316 N184 1.549 . S
C311 C91 1.547 . S
C332 N197 1.527 . S
C327 C86 1.526 . S
C348 N187 1.539 . S
C343 C26 1.504 . S
C364 N200 1.495 . S
C359 C36 1.465 . S
C380 N157 1.523 . S
C375 C32 1.448 . S
C396 N174 1.532 . S
C391 C42 1.520 . S
C407 C18 1.530 . S
C412 N170 1.596 . S
C428 N183 1.561 . S
C423 C50 1.497 . S
C439 C4 1.560 . S
C444 N196 1.603 . S
C455 C48 1.514 . S
C460 N161 1.571 . S
C476 N135 1.498 . S
C471 C78 1.489 . S
C487 C88 1.488 . S
C492 N148 1.497 . S
C508 N105 1.510 . S
C503 C84 1.497 . S
C524 N118 1.530 . S
C519 C94 1.519 . S
C540 N122 1.591 . S
C535 C70 1.571 . S
C556 N131 1.599 . S
C551 C102 1.536 . S
C567 C56 1.570 . S
C572 N144 1.599 . S
C583 C100 1.570 . S
C588 N109 1.608 . S
