# Generated by pormake.
# Topology eea, (3,6)-cn, num edge types: 1
# Building blocks:
#     Node 0, Type 0, BuildingBlock: BETDAH_clean_linker_0, # of connection points: 3
#     Node 1, Type 0, BuildingBlock: BETDAH_clean_linker_0, # of connection points: 3
#     Node 2, Type 0, BuildingBlock: BETDAH_clean_linker_0, # of connection points: 3
#     Node 3, Type 0, BuildingBlock: BETDAH_clean_linker_0, # of connection points: 3
#     Node 4, Type 0, BuildingBlock: BETDAH_clean_linker_0, # of connection points: 3
#     Node 5, Type 0, BuildingBlock: BETDAH_clean_linker_0, # of connection points: 3
#     Node 6, Type 0, BuildingBlock: BETDAH_clean_linker_0, # of connection points: 3
#     Node 7, Type 0, BuildingBlock: BETDAH_clean_linker_0, # of connection points: 3
#     Node 8, Type 0, BuildingBlock: BETDAH_clean_linker_0, # of connection points: 3
#     Node 9, Type 0, BuildingBlock: BETDAH_clean_linker_0, # of connection points: 3
#     Node 10, Type 0, BuildingBlock: BETDAH_clean_linker_0, # of connection points: 3
#     Node 11, Type 0, BuildingBlock: BETDAH_clean_linker_0, # of connection points: 3
#     Node 12, Type 0, BuildingBlock: BETDAH_clean_linker_0, # of connection points: 3
#     Node 13, Type 0, BuildingBlock: BETDAH_clean_linker_0, # of connection points: 3
#     Node 14, Type 0, BuildingBlock: BETDAH_clean_linker_0, # of connection points: 3
#     Node 15, Type 0, BuildingBlock: BETDAH_clean_linker_0, # of connection points: 3
#     Node 16, Type 0, BuildingBlock: BETDAH_clean_linker_0, # of connection points: 3
#     Node 17, Type 0, BuildingBlock: BETDAH_clean_linker_0, # of connection points: 3
#     Node 18, Type 1, BuildingBlock: KUMJIN_clean_sbu_0, # of connection points: 6
#     Node 19, Type 1, BuildingBlock: KUMJIN_clean_sbu_0, # of connection points: 6
#     Node 20, Type 1, BuildingBlock: KUMJIN_clean_sbu_0, # of connection points: 6
#     Node 21, Type 1, BuildingBlock: KUMJIN_clean_sbu_0, # of connection points: 6
#     Node 22, Type 1, BuildingBlock: KUMJIN_clean_sbu_0, # of connection points: 6
#     Node 23, Type 1, BuildingBlock: KUMJIN_clean_sbu_0, # of connection points: 6
#     Node 24, Type 1, BuildingBlock: KUMJIN_clean_sbu_0, # of connection points: 6
#     Node 25, Type 1, BuildingBlock: KUMJIN_clean_sbu_0, # of connection points: 6
#     Node 26, Type 1, BuildingBlock: KUMJIN_clean_sbu_0, # of connection points: 6
#     Edge 27, Type (0, 1), BuildingBlock: UVAHIK_clean_linker_0, # of connection points: 2
#     Edge 28, Type (0, 1), BuildingBlock: UVAHIK_clean_linker_0, # of connection points: 2
#     Edge 29, Type (0, 1), BuildingBlock: UVAHIK_clean_linker_0, # of connection points: 2
#     Edge 30, Type (0, 1), BuildingBlock: UVAHIK_clean_linker_0, # of connection points: 2
#     Edge 31, Type (0, 1), BuildingBlock: UVAHIK_clean_linker_0, # of connection points: 2
#     Edge 32, Type (0, 1), BuildingBlock: UVAHIK_clean_linker_0, # of connection points: 2
#     Edge 33, Type (0, 1), BuildingBlock: UVAHIK_clean_linker_0, # of connection points: 2
#     Edge 34, Type (0, 1), BuildingBlock: UVAHIK_clean_linker_0, # of connection points: 2
#     Edge 35, Type (0, 1), BuildingBlock: UVAHIK_clean_linker_0, # of connection points: 2
#     Edge 36, Type (0, 1), BuildingBlock: UVAHIK_clean_linker_0, # of connection points: 2
#     Edge 37, Type (0, 1), BuildingBlock: UVAHIK_clean_linker_0, # of connection points: 2
#     Edge 38, Type (0, 1), BuildingBlock: UVAHIK_clean_linker_0, # of connection points: 2
#     Edge 39, Type (0, 1), BuildingBlock: UVAHIK_clean_linker_0, # of connection points: 2
#     Edge 40, Type (0, 1), BuildingBlock: UVAHIK_clean_linker_0, # of connection points: 2
#     Edge 41, Type (0, 1), BuildingBlock: UVAHIK_clean_linker_0, # of connection points: 2
#     Edge 42, Type (0, 1), BuildingBlock: UVAHIK_clean_linker_0, # of connection points: 2
#     Edge 43, Type (0, 1), BuildingBlock: UVAHIK_clean_linker_0, # of connection points: 2
#     Edge 44, Type (0, 1), BuildingBlock: UVAHIK_clean_linker_0, # of connection points: 2
#     Edge 45, Type (0, 1), BuildingBlock: UVAHIK_clean_linker_0, # of connection points: 2
#     Edge 46, Type (0, 1), BuildingBlock: UVAHIK_clean_linker_0, # of connection points: 2
#     Edge 47, Type (0, 1), BuildingBlock: UVAHIK_clean_linker_0, # of connection points: 2
#     Edge 48, Type (0, 1), BuildingBlock: UVAHIK_clean_linker_0, # of connection points: 2
#     Edge 49, Type (0, 1), BuildingBlock: UVAHIK_clean_linker_0, # of connection points: 2
#     Edge 50, Type (0, 1), BuildingBlock: UVAHIK_clean_linker_0, # of connection points: 2
#     Edge 51, Type (0, 1), BuildingBlock: UVAHIK_clean_linker_0, # of connection points: 2
#     Edge 52, Type (0, 1), BuildingBlock: UVAHIK_clean_linker_0, # of connection points: 2
#     Edge 53, Type (0, 1), BuildingBlock: UVAHIK_clean_linker_0, # of connection points: 2
#     Edge 54, Type (0, 1), BuildingBlock: UVAHIK_clean_linker_0, # of connection points: 2
#     Edge 55, Type (0, 1), BuildingBlock: UVAHIK_clean_linker_0, # of connection points: 2
#     Edge 56, Type (0, 1), BuildingBlock: UVAHIK_clean_linker_0, # of connection points: 2
#     Edge 57, Type (0, 1), BuildingBlock: UVAHIK_clean_linker_0, # of connection points: 2
#     Edge 58, Type (0, 1), BuildingBlock: UVAHIK_clean_linker_0, # of connection points: 2
#     Edge 59, Type (0, 1), BuildingBlock: UVAHIK_clean_linker_0, # of connection points: 2
#     Edge 60, Type (0, 1), BuildingBlock: UVAHIK_clean_linker_0, # of connection points: 2
#     Edge 61, Type (0, 1), BuildingBlock: UVAHIK_clean_linker_0, # of connection points: 2
#     Edge 62, Type (0, 1), BuildingBlock: UVAHIK_clean_linker_0, # of connection points: 2
#     Edge 63, Type (0, 1), BuildingBlock: UVAHIK_clean_linker_0, # of connection points: 2
#     Edge 64, Type (0, 1), BuildingBlock: UVAHIK_clean_linker_0, # of connection points: 2
#     Edge 65, Type (0, 1), BuildingBlock: UVAHIK_clean_linker_0, # of connection points: 2
#     Edge 66, Type (0, 1), BuildingBlock: UVAHIK_clean_linker_0, # of connection points: 2
#     Edge 67, Type (0, 1), BuildingBlock: UVAHIK_clean_linker_0, # of connection points: 2
#     Edge 68, Type (0, 1), BuildingBlock: UVAHIK_clean_linker_0, # of connection points: 2
#     Edge 69, Type (0, 1), BuildingBlock: UVAHIK_clean_linker_0, # of connection points: 2
#     Edge 70, Type (0, 1), BuildingBlock: UVAHIK_clean_linker_0, # of connection points: 2
#     Edge 71, Type (0, 1), BuildingBlock: UVAHIK_clean_linker_0, # of connection points: 2
#     Edge 72, Type (0, 1), BuildingBlock: UVAHIK_clean_linker_0, # of connection points: 2
#     Edge 73, Type (0, 1), BuildingBlock: UVAHIK_clean_linker_0, # of connection points: 2
#     Edge 74, Type (0, 1), BuildingBlock: UVAHIK_clean_linker_0, # of connection points: 2
#     Edge 75, Type (0, 1), BuildingBlock: UVAHIK_clean_linker_0, # of connection points: 2
#     Edge 76, Type (0, 1), BuildingBlock: UVAHIK_clean_linker_0, # of connection points: 2
#     Edge 77, Type (0, 1), BuildingBlock: UVAHIK_clean_linker_0, # of connection points: 2
#     Edge 78, Type (0, 1), BuildingBlock: UVAHIK_clean_linker_0, # of connection points: 2
#     Edge 79, Type (0, 1), BuildingBlock: UVAHIK_clean_linker_0, # of connection points: 2
#     Edge 80, Type (0, 1), BuildingBlock: UVAHIK_clean_linker_0, # of connection points: 2
# Relax obj value: 0.023
# Max RMSD: 0.152
# Mean RMSD: 0.112
data_MOF--net-eea--node1-KUMJIN_clean_sbu_0--node2-BETDAH_clean_linker_0--edge1-UVAHIK_clean_linker_0
_symmetry_space_group_name_H-M    P1
_symmetry_Int_Tables_number       1
_symmetry_cell_setting            triclinic
loop_
_symmetry_equiv_pos_as_xyz
'x, y, z'
_cell_length_a     72.38861
_cell_length_b     74.558431
_cell_length_c     82.067886
_cell_angle_alpha  90.084178
_cell_angle_beta   90.230767
_cell_angle_gamma 120.04715
loop_
_atom_site_label
_atom_site_type_symbol
_atom_site_fract_x
_atom_site_fract_y
_atom_site_fract_z
_atom_type_partial_charge
H0 H 0.22648 0.07038 0.43303 0.0
H1 H 0.2126 0.12008 0.42899 0.0
H2 H 0.18576 0.06989 0.39455 0.0
C3 C 0.21861 0.0775 0.42677 0.0
C4 C 0.20606 0.06773 0.41291 0.0
C5 C 0.22098 0.09627 0.43283 0.0
C6 C 0.21082 0.1056 0.42457 0.0
C7 C 0.1984 0.0961 0.41055 0.0
C8 C 0.19596 0.07724 0.40503 0.0
N9 N 0.18769 0.10452 0.40159 0.0
C10 C 0.18899 0.12362 0.40387 0.0
H11 H 0.919 0.14603 0.43329 0.0
H12 H 0.8654 0.08457 0.42537 0.0
H13 H 0.91181 0.11465 0.38773 0.0
C14 C 0.9104 0.13239 0.42568 0.0
C15 C 0.91797 0.13244 0.40991 0.0
C16 C 0.89137 0.11528 0.43145 0.0
C17 C 0.87994 0.0979 0.42113 0.0
C18 C 0.88734 0.09779 0.40531 0.0
C19 C 0.90618 0.11504 0.39987 0.0
N20 N 0.87638 0.08094 0.39425 0.0
C21 C 0.85894 0.0615 0.3976 0.0
H22 H 0.8357 0.75708 0.43553 0.0
H23 H 0.89841 0.76481 0.42858 0.0
H24 H 0.87249 0.78912 0.39349 0.0
C25 C 0.85002 0.76256 0.42831 0.0
C26 C 0.85182 0.7733 0.41377 0.0
C27 C 0.8666 0.75927 0.43388 0.0
C28 C 0.8856 0.76731 0.42463 0.0
C29 C 0.8877 0.77818 0.41005 0.0
C30 C 0.87083 0.78105 0.40484 0.0
N31 N 0.90614 0.78636 0.39992 0.0
C32 C 0.92494 0.78568 0.40216 0.0
H33 H 0.0672 0.21755 0.59799 0.0
H34 H 0.12136 0.2089 0.60525 0.0
H35 H 0.07364 0.19067 0.6424 0.0
C36 C 0.07596 0.21231 0.60544 0.0
C37 C 0.06787 0.20372 0.62083 0.0
C38 C 0.09519 0.21422 0.59956 0.0
C39 C 0.10662 0.20761 0.60956 0.0
C40 C 0.09876 0.19904 0.62503 0.0
C41 C 0.07945 0.19711 0.63043 0.0
N42 N 0.10953 0.19217 0.63573 0.0
C43 C 0.12859 0.1922 0.63305 0.0
H44 H 0.75707 0.83925 0.59873 0.0
H45 H 0.76679 0.90051 0.60718 0.0
H46 H 0.78242 0.87002 0.64454 0.0
C47 C 0.76256 0.85277 0.60648 0.0
C48 C 0.77013 0.85251 0.62223 0.0
C49 C 0.76125 0.86997 0.60085 0.0
C50 C 0.76763 0.88715 0.61133 0.0
C51 C 0.77513 0.887 0.62715 0.0
C52 C 0.77628 0.86974 0.63242 0.0
N53 N 0.78153 0.90366 0.63835 0.0
C54 C 0.78407 0.92306 0.63503 0.0
H55 H 0.14185 0.91185 0.59747 0.0
H56 H 0.08211 0.85531 0.60508 0.0
H57 H 0.10708 0.90309 0.64177 0.0
C58 C 0.12805 0.90238 0.60497 0.0
C59 C 0.12643 0.90994 0.62024 0.0
C60 C 0.11235 0.88261 0.59938 0.0
C61 C 0.09425 0.87056 0.60916 0.0
C62 C 0.09248 0.87803 0.62455 0.0
C63 C 0.10864 0.89751 0.62994 0.0
N64 N 0.07531 0.86647 0.63544 0.0
C65 C 0.05611 0.84839 0.63217 0.0
H66 H 0.89844 0.40806 0.76349 0.0
H67 H 0.88595 0.45862 0.75909 0.0
H68 H 0.85653 0.40725 0.72585 0.0
C69 C 0.89067 0.4153 0.75727 0.0
C70 C 0.87747 0.40529 0.74374 0.0
C71 C 0.89366 0.43438 0.76311 0.0
C72 C 0.88375 0.44392 0.75481 0.0
C73 C 0.87063 0.43414 0.74116 0.0
C74 C 0.86732 0.41484 0.73599 0.0
N75 N 0.85962 0.44255 0.73261 0.0
C76 C 0.86487 0.46323 0.73235 0.0
H77 H 0.58335 0.4814 0.76551 0.0
H78 H 0.53271 0.41781 0.76031 0.0
H79 H 0.58165 0.44549 0.72402 0.0
C80 C 0.57549 0.46701 0.75865 0.0
C81 C 0.58464 0.46557 0.74401 0.0
C82 C 0.55685 0.44983 0.76483 0.0
C83 C 0.54717 0.43106 0.75587 0.0
C84 C 0.55614 0.42958 0.74108 0.0
C85 C 0.57485 0.44676 0.73541 0.0
N86 N 0.54711 0.41128 0.73136 0.0
C87 C 0.52837 0.39266 0.73423 0.0
H88 H 0.50678 0.09956 0.76829 0.0
H89 H 0.56859 0.10576 0.76021 0.0
H90 H 0.53961 0.1246 0.72321 0.0
C91 C 0.52056 0.10419 0.76059 0.0
C92 C 0.52103 0.11245 0.74509 0.0
C93 C 0.53761 0.10174 0.76625 0.0
C94 C 0.55543 0.10761 0.75604 0.0
C95 C 0.55621 0.11605 0.74051 0.0
C96 C 0.53902 0.11839 0.73526 0.0
N97 N 0.5736 0.12223 0.72955 0.0
C98 C 0.59287 0.12261 0.73221 0.0
H99 H 0.73219 0.54969 0.93116 0.0
H100 H 0.78673 0.54159 0.93807 0.0
H101 H 0.73957 0.52361 0.97567 0.0
C102 C 0.74113 0.54464 0.93858 0.0
C103 C 0.73334 0.53627 0.95408 0.0
C104 C 0.76031 0.54659 0.93255 0.0
C105 C 0.77201 0.54023 0.94249 0.0
C106 C 0.76443 0.53184 0.95806 0.0
C107 C 0.74516 0.52988 0.96362 0.0
N108 N 0.77546 0.52522 0.96872 0.0
C109 C 0.79448 0.5252 0.96589 0.0
H110 H 0.42724 0.17354 0.93073 0.0
H111 H 0.43812 0.23525 0.93885 0.0
H112 H 0.45733 0.20632 0.97501 0.0
C113 C 0.43355 0.18736 0.93823 0.0
C114 C 0.44261 0.18768 0.95351 0.0
C115 C 0.43193 0.20444 0.93272 0.0
C116 C 0.43921 0.222 0.94291 0.0
C117 C 0.44817 0.22245 0.95827 0.0
C118 C 0.44989 0.20543 0.96333 0.0
N119 N 0.4557 0.23956 0.96916 0.0
C120 C 0.45671 0.25842 0.96629 0.0
H121 H 0.80619 0.24456 0.93025 0.0
H122 H 0.74534 0.18916 0.93723 0.0
H123 H 0.77021 0.23719 0.97369 0.0
C124 C 0.79229 0.23533 0.93772 0.0
C125 C 0.79039 0.24336 0.9527 0.0
C126 C 0.77635 0.21573 0.93204 0.0
C127 C 0.75772 0.20424 0.94142 0.0
C128 C 0.75555 0.21217 0.95647 0.0
C129 C 0.7719 0.23153 0.96194 0.0
N130 N 0.73759 0.20136 0.96685 0.0
C131 C 0.71914 0.1824 0.96402 0.0
H132 H 0.55948 0.73809 0.10014 0.0
H133 H 0.54063 0.78454 0.09998 0.0
H134 H 0.51062 0.73277 0.06721 0.0
C135 C 0.54986 0.74416 0.09516 0.0
C136 C 0.53528 0.73328 0.08251 0.0
C137 C 0.55176 0.76248 0.1018 0.0
C138 C 0.53939 0.77048 0.09508 0.0
C139 C 0.52479 0.75979 0.0824 0.0
C140 C 0.52258 0.74118 0.0765 0.0
N141 N 0.51079 0.76627 0.07607 0.0
C142 C 0.5154 0.78666 0.0743 0.0
H143 H 0.25183 0.81201 0.10002 0.0
H144 H 0.19964 0.74971 0.09269 0.0
H145 H 0.24708 0.77916 0.05566 0.0
C146 C 0.24383 0.79809 0.09265 0.0
C147 C 0.25206 0.79782 0.07719 0.0
C148 C 0.22495 0.78085 0.09846 0.0
C149 C 0.21409 0.76311 0.08841 0.0
C150 C 0.22208 0.76267 0.0729 0.0
C151 C 0.24095 0.77993 0.0675 0.0
N152 N 0.21183 0.74538 0.06214 0.0
C153 C 0.19375 0.72629 0.06523 0.0
H154 H 0.17225 0.43321 0.10117 0.0
H155 H 0.23397 0.43881 0.09412 0.0
H156 H 0.20517 0.45612 0.05585 0.0
C157 C 0.18604 0.43744 0.09357 0.0
C158 C 0.18656 0.445 0.0778 0.0
C159 C 0.20304 0.43522 0.09969 0.0
C160 C 0.22086 0.44051 0.08961 0.0
C161 C 0.22167 0.44824 0.07377 0.0
C162 C 0.20454 0.45043 0.0681 0.0
N163 N 0.23902 0.45381 0.06288 0.0
C164 C 0.2584 0.45454 0.0659 0.0
H165 H 0.39905 0.88144 0.26575 0.0
H166 H 0.45266 0.87159 0.27146 0.0
H167 H 0.4056 0.85307 0.30921 0.0
C168 C 0.40781 0.87591 0.27288 0.0
C169 C 0.39991 0.86708 0.28823 0.0
C170 C 0.42668 0.87748 0.26651 0.0
C171 C 0.43821 0.87061 0.27613 0.0
C172 C 0.43052 0.86172 0.29157 0.0
C173 C 0.41137 0.85988 0.29733 0.0
N174 N 0.44088 0.8538 0.30166 0.0
C175 C 0.46119 0.85615 0.29995 0.0
H176 H 0.09669 0.50726 0.26208 0.0
H177 H 0.10027 0.56569 0.2724 0.0
H178 H 0.11754 0.53589 0.30919 0.0
C179 C 0.10041 0.51997 0.27035 0.0
C180 C 0.10797 0.51969 0.28611 0.0
C181 C 0.09739 0.5364 0.26523 0.0
C182 C 0.10233 0.55288 0.27615 0.0
C183 C 0.1097 0.55264 0.29199 0.0
C184 C 0.11227 0.53604 0.29683 0.0
N185 N 0.1142 0.56839 0.3037 0.0
C186 C 0.11678 0.58786 0.30063 0.0
H187 H 0.47376 0.57809 0.26474 0.0
H188 H 0.41266 0.52278 0.27144 0.0
H189 H 0.4373 0.57102 0.30778 0.0
C190 C 0.45955 0.56901 0.27195 0.0
C191 C 0.45757 0.57696 0.28693 0.0
C192 C 0.44363 0.54942 0.26624 0.0
C193 C 0.42502 0.53786 0.27565 0.0
C194 C 0.42285 0.54572 0.29074 0.0
C195 C 0.43917 0.56509 0.29622 0.0
N196 N 0.40486 0.53489 0.30109 0.0
C197 C 0.38647 0.51588 0.29824 0.0
Eu198 Eu 0.47579 0.9791 0.99545 0.0
C199 C 0.52034 0.04875 0.04836 0.0
C200 C 0.55753 0.05865 0.04578 0.0
C201 C 0.54797 0.08401 0.05478 0.0
C202 C 0.53568 0.04374 0.0443 0.0
C203 C 0.52628 0.06873 0.0542 0.0
C204 C 0.56358 0.07899 0.05053 0.0
C205 C 0.48918 0.05622 0.06034 0.0
N206 N 0.4996 0.03355 0.04787 0.0
C207 C 0.48411 0.03668 0.05439 0.0
C208 C 0.51031 0.07245 0.05994 0.0
Eu209 Eu 0.49194 0.00103 0.03723 0.0
N210 N 0.52923 0.02386 0.0401 0.0
C211 C 0.5438 0.01741 0.03868 0.0
C212 C 0.57259 0.05246 0.0431 0.0
C213 C 0.56567 0.03165 0.03986 0.0
H214 H 0.46772 0.0242 0.05457 0.0
H215 H 0.57717 0.02657 0.03819 0.0
H216 H 0.58029 0.09073 0.05153 0.0
H217 H 0.47678 0.05879 0.06513 0.0
H218 H 0.53872 0.00141 0.03608 0.0
H219 H 0.39174 0.95807 0.99323 0.0
H220 H 0.58953 0.06344 0.04405 0.0
H221 H 0.49834 0.9527 0.98113 0.0
H222 H 0.43043 0.98157 0.99608 0.0
H223 H 0.48749 0.91721 0.97162 0.0
H224 H 0.55286 0.09954 0.05902 0.0
H225 H 0.37758 0.92093 0.98713 0.0
H226 H 0.38489 0.8922 0.98034 0.0
H227 H 0.51422 0.08757 0.06458 0.0
H228 H 0.41094 0.88106 0.9744 0.0
N229 N 0.43833 0.95797 0.99208 0.0
C230 C 0.4246 0.96546 0.99336 0.0
C231 C 0.39464 0.9312 0.98837 0.0
C232 C 0.40887 0.92387 0.9861 0.0
C233 C 0.40258 0.95215 0.99176 0.0
C234 C 0.43092 0.93787 0.98795 0.0
H235 H 0.44923 0.89037 0.9708 0.0
N236 N 0.4666 0.9457 0.98592 0.0
C237 C 0.47553 0.921 0.97537 0.0
C238 C 0.44552 0.93153 0.98478 0.0
C239 C 0.48161 0.94104 0.98071 0.0
C240 C 0.45392 0.90588 0.97497 0.0
C241 C 0.43857 0.91113 0.97946 0.0
O242 O 0.49398 -0.01262 0.97274 0.0
O243 O 0.50125 0.00381 0.01097 0.0
O244 O 0.48729 0.02457 0.02289 0.0
O245 O 0.4681 0.00491 1.0001 0.0
O246 O 0.511 -0.0104 0.99415 0.0
O247 O 0.46676 -0.00829 0.9748 0.0
O248 O 0.4742 -0.00928 0.06012 0.0
O249 O 0.46651 0.97666 0.02156 0.0
O250 O 0.47859 0.95527 0.0108 0.0
O251 O 0.50113 0.9764 0.0316 0.0
O252 O 0.45655 -0.01008 0.03893 0.0
O253 O 0.50248 -0.01154 0.05699 0.0
C254 C 0.51746 0.00416 1.00492 0.0
C255 C 0.47535 0.98517 0.94841 0.0
C256 C 0.47968 -0.00912 0.91888 0.0
C257 C 0.48509 -0.00153 0.93502 0.0
C258 C 0.46421 0.96992 0.91645 0.0
C259 C 0.45992 0.96441 0.94558 0.0
C260 C 0.45439 0.95687 0.92969 0.0
C261 C 0.47585 0.02174 0.00945 0.0
C262 C 0.4817 -0.00711 0.96526 0.0
C263 C 0.41661 0.89687 0.97829 0.0
C264 C 0.40178 0.90322 0.98165 0.0
C265 C 0.45018 0.97595 0.02769 0.0
C266 C 0.49417 -0.00633 0.08385 0.0
C267 C 0.48591 0.98001 0.09722 0.0
C268 C 0.49173 -0.01247 0.11335 0.0
C269 C 0.50608 0.00879 0.11578 0.0
C270 C 0.50856 0.01474 0.08669 0.0
C271 C 0.51446 0.02221 0.10256 0.0
C272 C 0.49158 0.95867 0.02334 0.0
C273 C 0.48748 0.98606 0.067 0.0
H274 H 0.4971 0.01452 0.93716 0.0
H275 H 0.45949 0.96365 0.90425 0.0
H276 H 0.45217 0.95402 0.95564 0.0
H277 H 0.44245 0.94081 0.92762 0.0
H278 H 0.47472 0.96372 0.0951 0.0
H279 H 0.51104 0.01503 0.12797 0.0
H280 H 0.51523 0.02542 0.07665 0.0
H281 H 0.52557 0.03851 0.10462 0.0
Eu282 Eu 0.00377 0.48642 0.99556 0.0
C283 C 0.928 0.45914 0.04386 0.0
C284 C 0.91784 0.48543 0.04152 0.0
C285 C 0.89113 0.45005 0.04828 0.0
C286 C 0.9334 0.47936 0.04061 0.0
C287 C 0.9069 0.44434 0.04808 0.0
C288 C 0.89658 0.47056 0.04499 0.0
C289 C 0.91895 0.41985 0.05291 0.0
N290 N 0.94366 0.45421 0.04372 0.0
C291 C 0.93966 0.43512 0.04873 0.0
C292 C 0.90244 0.4244 0.05239 0.0
Eu293 Eu 0.97804 0.48047 0.03563 0.0
N294 N 0.9541 0.49335 0.0374 0.0
C295 C 0.9606 0.51393 0.03617 0.0
C296 C 0.92421 0.50634 0.03932 0.0
C297 C 0.94575 0.5207 0.03688 0.0
H298 H 0.95235 0.4315 0.04904 0.0
H299 H 0.95091 0.53696 0.03546 0.0
H300 H 0.88436 0.47488 0.04557 0.0
H301 H 0.91574 0.4046 0.0565 0.0
H302 H 0.97717 0.52519 0.03418 0.0
H303 H 0.02858 0.42813 0.9961 0.0
H304 H 0.91274 0.51162 0.03985 0.0
H305 H 0.03092 0.53542 0.98245 0.0
H306 H 0.00312 0.44086 0.99703 0.0
H307 H 0.06803 0.5617 0.97547 0.0
H308 H 0.87478 0.43885 0.05134 0.0
H309 H 0.06705 0.45274 0.99218 0.0
H310 H 0.0963 0.48923 0.9869 0.0
H311 H 0.88643 0.41258 0.0557 0.0
H312 H 0.10706 0.52559 0.9813 0.0
N313 N 0.02688 0.47253 0.99401 0.0
C314 C 0.0198 0.45181 0.99522 0.0
C315 C 0.05592 0.45844 0.99253 0.0
C316 C 0.06292 0.4795 0.99041 0.0
C317 C 0.03422 0.44451 0.99471 0.0
C318 C 0.04778 0.48613 0.9911 0.0
H319 H 0.09659 0.55269 0.97676 0.0
N320 N 0.03866 0.51211 0.988 0.0
C321 C 0.06428 0.54628 0.97906 0.0
C322 C 0.05388 0.50658 0.98804 0.0
C323 C 0.04332 0.53139 0.98295 0.0
C324 C 0.08037 0.54115 0.97985 0.0
C325 C 0.07522 0.521 0.98411 0.0
O326 O -0.00294 0.49511 0.97178 0.0
O327 O 0.97722 0.48659 0.00914 0.0
O328 O 0.95466 0.45418 0.01942 0.0
O329 O 0.97778 0.45273 1.00042 0.0
O330 O -0.00791 0.50942 0.99191 0.0
O331 O -0.00731 0.46448 0.97517 0.0
O332 O 0.98517 0.47279 0.05966 0.0
O333 O 0.00448 0.48019 0.02201 0.0
O334 O 0.02698 0.51264 0.01192 0.0
O335 O 0.00349 0.51426 0.03043 0.0
O336 O -0.01011 0.45765 0.03942 0.0
O337 O -0.01 0.50344 0.05528 0.0
C338 C 0.97677 0.50153 1.00232 0.0
C339 C 0.00261 0.47932 0.94891 0.0
C340 C 0.00044 0.47752 0.91909 0.0
C341 C -0.00928 0.47546 0.9344 0.0
C342 C 0.0223 0.48375 0.91866 0.0
C343 C 0.02425 0.4852 0.94809 0.0
C344 C 0.03402 0.48745 0.93305 0.0
C345 C 0.95898 0.44451 0.00779 0.0
C346 C -0.0075 0.47765 0.9648 0.0
C347 C 0.09054 0.51469 0.98411 0.0
C348 C 0.0844 0.49398 0.98728 0.0
C349 C 0.00506 0.46536 0.02889 0.0
C350 C 0.98115 0.49037 0.08207 0.0
C351 C -0.0057 0.49701 0.09603 0.0
C352 C 0.98567 0.49662 0.11151 0.0
C353 C 0.96362 0.48933 0.11269 0.0
C354 C 0.9593 0.48331 0.08358 0.0
C355 C 0.95061 0.48278 0.09883 0.0
C356 C 0.02249 0.52238 0.02338 0.0
C357 C -0.00964 0.49074 0.06604 0.0
H358 H 0.97392 0.47064 0.93509 0.0
H359 H 0.03047 0.48599 0.90718 0.0
H360 H 0.03361 0.48812 0.95906 0.0
H361 H 0.05079 0.49218 0.93253 0.0
H362 H 0.01123 0.50268 0.09477 0.0
H363 H 0.95633 0.4884 0.12439 0.0
H364 H 0.94896 0.47818 0.07301 0.0
H365 H 0.93369 0.47719 0.09992 0.0
Eu366 Eu 0.50739 0.49597 0.03571 0.0
C367 C 0.46148 0.52246 0.98439 0.0
C368 C 0.42418 0.49636 0.98678 0.0
C369 C 0.43407 0.53129 0.97843 0.0
C370 C 0.44599 0.50247 0.98817 0.0
C371 C 0.45572 0.53697 0.97905 0.0
C372 C 0.41832 0.51102 0.98232 0.0
C373 C 0.49303 0.56092 0.97387 0.0
N374 N 0.4822 0.52735 0.98497 0.0
C375 C 0.49793 0.546 0.97929 0.0
C376 C 0.47185 0.5565 0.97398 0.0
Eu377 Eu 0.48944 0.50163 0.99473 0.0
N378 N 0.45223 0.48864 0.99218 0.0
C379 C 0.43749 0.46809 0.99363 0.0
C380 C 0.40896 0.47554 0.98936 0.0
C381 C 0.41567 0.46129 0.99253 0.0
H382 H 0.51433 0.54954 0.97931 0.0
H383 H 0.40404 0.44507 0.99418 0.0
H384 H 0.40166 0.50667 0.98137 0.0
H385 H 0.50557 0.57583 0.96969 0.0
H386 H 0.44242 0.45692 0.99616 0.0
H387 H 0.59178 0.55586 0.03692 0.0
H388 H 0.39205 0.47023 0.98848 0.0
H389 H 0.48466 0.44712 0.04902 0.0
H390 H 0.5531 0.54224 0.03488 0.0
H391 H 0.49534 0.42158 0.05704 0.0
H392 H 0.42932 0.54228 0.97453 0.0
H393 H 0.60564 0.53203 0.04199 0.0
H394 H 0.59804 0.49592 0.04791 0.0
H395 H 0.46809 0.56807 0.96976 0.0
H396 H 0.57182 0.45938 0.0534 0.0
N397 N 0.54488 0.5108 0.0384 0.0
C398 C 0.5588 0.5316 0.03718 0.0
C399 C 0.58858 0.52593 0.04114 0.0
C400 C 0.5742 0.50479 0.04327 0.0
C401 C 0.58081 0.53943 0.03831 0.0
C402 C 0.55215 0.49763 0.04193 0.0
H403 H 0.53351 0.43159 0.05707 0.0
N404 N 0.5164 0.471 0.04423 0.0
C405 C 0.50734 0.43711 0.05358 0.0
C406 C 0.53745 0.47707 0.04491 0.0
C407 C 0.50135 0.45158 0.0491 0.0
C408 C 0.5289 0.44281 0.05354 0.0
C409 C 0.5443 0.46309 0.04943 0.0
O410 O 0.49052 0.48673 0.05894 0.0
O411 O 0.48107 0.49562 0.02112 0.0
O412 O 0.49301 0.52862 0.00997 0.0
O413 O 0.51558 0.52938 0.03074 0.0
O414 O 0.47211 0.47237 0.0381 0.0
O415 O 0.51735 0.5177 0.05621 0.0
O416 O 0.50526 0.50874 0.97101 0.0
O417 O 0.51571 0.50224 0.00945 0.0
O418 O 0.50462 0.46991 0.01978 0.0
O419 O 0.48003 0.468 1.00044 0.0
O420 O 0.52489 0.52473 0.99194 0.0
O421 O 0.47856 0.47816 0.97549 0.0
C422 C 0.46511 0.48035 0.02754 0.0
C423 C 0.51063 0.50297 0.0826 0.0
C424 C 0.50886 0.50567 0.11227 0.0
C425 C 0.50193 0.50714 0.09646 0.0
C426 C 0.52441 0.49968 0.11386 0.0
C427 C 0.52623 0.49727 0.08456 0.0
C428 C 0.53301 0.49558 0.10011 0.0
C429 C 0.50605 0.53784 0.02248 0.0
C430 C 0.50313 0.50431 0.06617 0.0
C431 C 0.56623 0.46994 0.05012 0.0
C432 C 0.58116 0.49075 0.04701 0.0
C433 C 0.53181 0.51718 1.00292 0.0
C434 C 0.48372 0.49037 0.94839 0.0
C435 C 0.49148 0.48479 0.93471 0.0
C436 C 0.48314 0.4842 0.91899 0.0
C437 C 0.46712 0.48954 0.91728 0.0
C438 C 0.46772 0.49553 0.94631 0.0
C439 C 0.45953 0.49515 0.93083 0.0
C440 C 0.49055 0.46007 0.008 0.0
C441 C 0.49224 0.49059 0.96478 0.0
H442 H 0.49004 0.51178 0.0949 0.0
H443 H 0.52983 0.49796 0.12576 0.0
H444 H 0.53313 0.49408 0.0741 0.0
H445 H 0.54497 0.49103 0.10153 0.0
H446 H 0.50372 0.48062 0.93634 0.0
H447 H 0.46062 0.48963 0.90539 0.0
H448 H 0.46153 0.49979 0.95665 0.0
H449 H 0.44723 0.49924 0.92933 0.0
Eu450 Eu 0.14215 0.3122 0.32874 0.0
C451 C 0.18663 0.38358 0.38001 0.0
C452 C 0.22405 0.39391 0.37858 0.0
C453 C 0.21368 0.4193 0.38566 0.0
C454 C 0.20233 0.37867 0.37697 0.0
C455 C 0.19209 0.40383 0.38475 0.0
C456 C 0.22965 0.41435 0.38257 0.0
C457 C 0.15453 0.39158 0.38857 0.0
N458 N 0.16596 0.36824 0.37913 0.0
C459 C 0.14994 0.37172 0.38387 0.0
C460 C 0.17569 0.40778 0.38882 0.0
Eu461 Eu 0.15931 0.33534 0.3701 0.0
N462 N 0.19636 0.35875 0.37326 0.0
C463 C 0.21125 0.35266 0.37226 0.0
C464 C 0.23946 0.388 0.37657 0.0
C465 C 0.23301 0.36722 0.37365 0.0
H466 H 0.13354 0.35927 0.38356 0.0
H467 H 0.24477 0.36241 0.37239 0.0
H468 H 0.24625 0.42631 0.38368 0.0
H469 H 0.14176 0.39439 0.39195 0.0
H470 H 0.2065 0.33669 0.3699 0.0
H471 H 0.05728 0.28811 0.32626 0.0
H472 H 0.25632 0.39925 0.37763 0.0
H473 H 0.16626 0.28662 0.31564 0.0
H474 H 0.09572 0.3127 0.32897 0.0
H475 H 0.15669 0.25108 0.30729 0.0
H476 H 0.21821 0.43501 0.38913 0.0
H477 H 0.0444 0.25106 0.32076 0.0
H478 H 0.05307 0.22306 0.31469 0.0
H479 H 0.17921 0.42314 0.3925 0.0
H480 H 0.08011 0.21297 0.30948 0.0
N481 N 0.10483 0.28988 0.32542 0.0
C482 C 0.09048 0.29667 0.32649 0.0
C483 C 0.06138 0.26183 0.32191 0.0
C484 C 0.0762 0.25518 0.31992 0.0
C485 C 0.06858 0.28272 0.32498 0.0
C486 C 0.0981 0.26982 0.32164 0.0
H487 H 0.11878 0.22337 0.30646 0.0
N488 N 0.13413 0.27886 0.31981 0.0
C489 C 0.14432 0.25451 0.31055 0.0
C490 C 0.11325 0.26411 0.31876 0.0
C491 C 0.14967 0.2746 0.31522 0.0
C492 C 0.1229 0.2389 0.31014 0.0
C493 C 0.10702 0.24366 0.31403 0.0
O494 O 0.15917 0.31994 0.30551 0.0
O495 O 0.16797 0.3371 0.34384 0.0
O496 O 0.15618 0.35859 0.35428 0.0
O497 O 0.13278 0.33677 0.33416 0.0
O498 O 0.17755 0.32334 0.32661 0.0
O499 O 0.13293 0.32558 0.30876 0.0
O500 O 0.14282 0.32703 0.39356 0.0
O501 O 0.13365 0.31051 0.35495 0.0
O502 O 0.14532 0.28907 0.34471 0.0
O503 O 0.16909 0.31108 0.36457 0.0
O504 O 0.1237 0.32342 0.37253 0.0
O505 O 0.16984 0.32271 0.38979 0.0
C506 C 0.18415 0.33767 0.33757 0.0
C507 C 0.13955 0.31846 0.28195 0.0
C508 C 0.14076 0.32465 0.25248 0.0
C509 C 0.14809 0.33188 0.26847 0.0
C510 C 0.12501 0.30371 0.2503 0.0
C511 C 0.12383 0.29774 0.27937 0.0
C512 C 0.11666 0.29044 0.26363 0.0
C513 C 0.14257 0.35472 0.34212 0.0
C514 C 0.14706 0.32611 0.29864 0.0
C515 C 0.08522 0.22881 0.31294 0.0
C516 C 0.06983 0.23456 0.3159 0.0
C517 C 0.11731 0.30942 0.36132 0.0
C518 C 0.16355 0.32961 0.41675 0.0
C519 C 0.15672 0.31611 0.43026 0.0
C520 C 0.16444 0.32373 0.44611 0.0
C521 C 0.17881 0.34509 0.44812 0.0
C522 C 0.17794 0.35075 0.41916 0.0
C523 C 0.18546 0.35842 0.43477 0.0
C524 C 0.15907 0.29301 0.35679 0.0
C525 C 0.15571 0.32163 0.40017 0.0
H526 H 0.16012 0.34796 0.27048 0.0
H527 H 0.11925 0.29748 0.23823 0.0
H528 H 0.11709 0.28723 0.28952 0.0
H529 H 0.10457 0.27438 0.26174 0.0
H530 H 0.14572 0.29973 0.42837 0.0
H531 H 0.18475 0.35161 0.4601 0.0
H532 H 0.18337 0.36134 0.40899 0.0
H533 H 0.1965 0.37479 0.43653 0.0
Eu534 Eu 0.67193 0.81908 0.3304 0.0
C535 C 0.59584 0.7926 0.37819 0.0
C536 C 0.58584 0.81896 0.37532 0.0
C537 C 0.55897 0.78372 0.38228 0.0
C538 C 0.60135 0.8128 0.37471 0.0
C539 C 0.57468 0.77792 0.38237 0.0
C540 C 0.56454 0.8042 0.37875 0.0
C541 C 0.58653 0.75339 0.38769 0.0
N542 N 0.61143 0.78758 0.3783 0.0
C543 C 0.60729 0.76852 0.38353 0.0
C544 C 0.57009 0.75802 0.38692 0.0
Eu545 Eu 0.64593 0.81361 0.37021 0.0
N546 N 0.6221 0.82667 0.37151 0.0
C547 C 0.62868 0.84725 0.37 0.0
C548 C 0.59232 0.83985 0.37285 0.0
C549 C 0.61389 0.8541 0.37042 0.0
H550 H 0.61993 0.76483 0.38402 0.0
H551 H 0.61912 0.87035 0.36879 0.0
H552 H 0.55236 0.80859 0.37908 0.0
H553 H 0.58322 0.73816 0.39146 0.0
H554 H 0.64526 0.85843 0.36801 0.0
H555 H 0.69708 0.76108 0.33174 0.0
H556 H 0.58088 0.84519 0.37314 0.0
H557 H 0.6989 0.86792 0.31687 0.0
H558 H 0.67149 0.77366 0.33237 0.0
H559 H 0.73596 0.8942 0.30981 0.0
H560 H 0.54258 0.77262 0.3853 0.0
H561 H 0.73554 0.78576 0.32781 0.0
H562 H 0.76467 0.82223 0.32229 0.0
H563 H 0.55403 0.74629 0.3902 0.0
H564 H 0.77528 0.85847 0.31632 0.0
N565 N 0.69516 0.80533 0.32917 0.0
C566 C 0.68817 0.78464 0.33055 0.0
C567 C 0.72435 0.7914 0.32803 0.0
C568 C 0.73126 0.81241 0.32572 0.0
C569 C 0.70266 0.77742 0.33022 0.0
C570 C 0.71605 0.81896 0.32624 0.0
H571 H 0.76464 0.88537 0.31139 0.0
N572 N 0.70677 0.84478 0.32276 0.0
C573 C 0.73229 0.87886 0.31356 0.0
C574 C 0.72205 0.83934 0.32296 0.0
C575 C 0.71134 0.86396 0.31751 0.0
C576 C 0.74844 0.87383 0.31451 0.0
C577 C 0.74337 0.85376 0.31899 0.0
O578 O 0.66485 0.82727 0.30655 0.0
O579 O 0.64517 0.81935 0.34363 0.0
O580 O 0.62265 0.78711 0.3541 0.0
O581 O 0.64596 0.78544 0.33543 0.0
O582 O 0.66032 0.84206 0.32636 0.0
O583 O 0.66137 0.79701 0.3101 0.0
O584 O 0.65256 0.80609 0.3945 0.0
O585 O 0.67252 0.81313 0.35694 0.0
O586 O 0.69508 0.8455 0.34663 0.0
O587 O 0.67143 0.84731 0.36484 0.0
O588 O 0.65766 0.79075 0.37442 0.0
O589 O 0.65792 0.83684 0.38966 0.0
C590 C 0.64481 0.83423 0.3366 0.0
C591 C 0.67069 0.81166 0.28372 0.0
C592 C 0.66812 0.80999 0.25391 0.0
C593 C 0.65855 0.80758 0.26933 0.0
C594 C 0.6901 0.81673 0.25327 0.0
C595 C 0.69244 0.81805 0.28271 0.0
C596 C 0.70206 0.8206 0.26756 0.0
C597 C 0.62707 0.77731 0.34265 0.0
C598 C 0.66069 0.80988 0.29967 0.0
C599 C 0.75877 0.84756 0.31917 0.0
C600 C 0.75272 0.82692 0.32255 0.0
C601 C 0.67295 0.79831 0.36399 0.0
C602 C 0.64835 0.82414 0.41648 0.0
C603 C 0.6608 0.8293 0.43079 0.0
C604 C 0.65177 0.82895 0.44607 0.0
C605 C 0.63014 0.82348 0.44673 0.0
C606 C 0.62686 0.81875 0.41747 0.0
C607 C 0.61783 0.81845 0.43252 0.0
C608 C 0.69047 0.85538 0.35788 0.0
C609 C 0.65785 0.82418 0.40065 0.0
H610 H 0.64167 0.80235 0.2702 0.0
H611 H 0.69819 0.81927 0.24172 0.0
H612 H 0.702 0.82119 0.2936 0.0
H613 H 0.71892 0.82573 0.26688 0.0
H614 H 0.67737 0.83327 0.43002 0.0
H615 H 0.62277 0.82334 0.45822 0.0
H616 H 0.61707 0.81479 0.40663 0.0
H617 H 0.60124 0.81432 0.43318 0.0
Eu618 Eu 0.1733 0.82758 0.36833 0.0
C619 C 0.12866 0.85526 0.31682 0.0
C620 C 0.09121 0.82955 0.31908 0.0
C621 C 0.10169 0.8646 0.31063 0.0
C622 C 0.11292 0.83536 0.32059 0.0
C623 C 0.12324 0.86996 0.31135 0.0
C624 C 0.08569 0.84443 0.31452 0.0
C625 C 0.16066 0.8934 0.30615 0.0
N626 N 0.14928 0.85981 0.31745 0.0
C627 C 0.16522 0.8783 0.31169 0.0
C628 C 0.13961 0.88934 0.30621 0.0
Eu629 Eu 0.15592 0.83375 0.32732 0.0
N630 N 0.11883 0.8213 0.32465 0.0
C631 C 0.10385 0.80082 0.32602 0.0
C632 C 0.07573 0.80881 0.32161 0.0
C633 C 0.08211 0.79432 0.32482 0.0
H634 H 0.18154 0.88156 0.31174 0.0
H635 H 0.07028 0.77815 0.32642 0.0
H636 H 0.0691 0.84032 0.31347 0.0
H637 H 0.17338 0.90818 0.3019 0.0
H638 H 0.10854 0.78946 0.32856 0.0
H639 H 0.25775 0.88733 0.37007 0.0
H640 H 0.05888 0.80373 0.32063 0.0
H641 H 0.15037 0.77861 0.38138 0.0
H642 H 0.21912 0.87382 0.36787 0.0
H643 H 0.1609 0.75293 0.38929 0.0
H644 H 0.0972 0.87574 0.30663 0.0
H645 H 0.27148 0.86338 0.37503 0.0
H646 H 0.26374 0.82718 0.38072 0.0
H647 H 0.13611 0.90105 0.30189 0.0
H648 H 0.23741 0.7906 0.38596 0.0
N649 N 0.21076 0.84232 0.3712 0.0
C650 C 0.22474 0.86312 0.37012 0.0
C651 C 0.25443 0.85733 0.37411 0.0
C652 C 0.23999 0.83617 0.37609 0.0
C653 C 0.24674 0.87089 0.37135 0.0
C654 C 0.21796 0.82907 0.37467 0.0
H655 H 0.19905 0.76284 0.38942 0.0
N656 N 0.18217 0.80248 0.37677 0.0
C657 C 0.17296 0.76848 0.38593 0.0
C658 C 0.2032 0.8085 0.37751 0.0
C659 C 0.16705 0.78303 0.38152 0.0
C660 C 0.1945 0.77412 0.38595 0.0
C661 C 0.20997 0.79443 0.38196 0.0
O662 O 0.15639 0.81807 0.39155 0.0
O663 O 0.14718 0.82759 0.35367 0.0
O664 O 0.15979 0.8609 0.34249 0.0
O665 O 0.18173 0.86109 0.36355 0.0
O666 O 0.13796 0.80413 0.3705 0.0
O667 O 0.18303 0.84917 0.38891 0.0
O668 O 0.1721 0.84062 0.30375 0.0
O669 O 0.18192 0.83395 0.34214 0.0
O670 O 0.17045 0.80158 0.35231 0.0
O671 O 0.14607 0.8 0.33293 0.0
O672 O 0.19149 0.85658 0.32471 0.0
O673 O 0.14466 0.81043 0.30792 0.0
C674 C 0.13111 0.8123 0.35999 0.0
C675 C 0.17642 0.83434 0.41524 0.0
C676 C 0.17495 0.83733 0.4449 0.0
C677 C 0.16787 0.83865 0.42911 0.0
C678 C 0.19049 0.83133 0.44646 0.0
C679 C 0.19201 0.82861 0.41717 0.0
C680 C 0.19893 0.82706 0.43271 0.0
C681 C 0.17261 0.86984 0.35516 0.0
C682 C 0.16887 0.83565 0.39882 0.0
C683 C 0.23189 0.80122 0.38272 0.0
C684 C 0.24688 0.82205 0.37976 0.0
C685 C 0.19818 0.84884 0.33571 0.0
C686 C 0.15066 0.82298 0.2809 0.0
C687 C 0.15805 0.81692 0.26726 0.0
C688 C 0.15017 0.81694 0.25148 0.0
C689 C 0.13502 0.82339 0.24966 0.0
C690 C 0.13548 0.82919 0.27871 0.0
C691 C 0.12777 0.82945 0.26317 0.0
C692 C 0.1564 0.79188 0.34049 0.0
C693 C 0.15873 0.82268 0.29736 0.0
H694 H 0.15599 0.84332 0.42758 0.0
H695 H 0.19604 0.82976 0.45836 0.0
H696 H 0.19881 0.82531 0.4067 0.0
H697 H 0.21089 0.82249 0.4341 0.0
H698 H 0.16963 0.81192 0.26898 0.0
H699 H 0.12891 0.82401 0.23773 0.0
H700 H 0.12956 0.83382 0.289 0.0
H701 H 0.11612 0.83438 0.26158 0.0
Eu702 Eu 0.80987 0.64811 0.65986 0.0
C703 C 0.85392 0.71466 0.71157 0.0
C704 C 0.89022 0.72158 0.7092 0.0
C705 C 0.88358 0.74932 0.71691 0.0
C706 C 0.86802 0.70788 0.70802 0.0
C707 C 0.86151 0.73528 0.71662 0.0
C708 C 0.89792 0.74247 0.7132 0.0
C709 C 0.82515 0.72588 0.72279 0.0
N710 N 0.83276 0.70061 0.71141 0.0
C711 C 0.81847 0.70556 0.71785 0.0
C712 C 0.84674 0.74092 0.72188 0.0
Eu713 Eu 0.82245 0.66665 0.70227 0.0
N714 N 0.86003 0.68759 0.70426 0.0
C715 C 0.8733 0.67965 0.70262 0.0
C716 C 0.90397 0.71371 0.70682 0.0
C717 C 0.89544 0.69257 0.70381 0.0
H718 H 0.80178 0.69388 0.71861 0.0
H719 H 0.9059 0.68625 0.70222 0.0
H720 H 0.91492 0.7533 0.71393 0.0
H721 H 0.81367 0.72989 0.72735 0.0
H722 H 0.86693 0.6634 0.70015 0.0
H723 H 0.76135 0.66759 0.62041 0.0
H724 H 0.92112 0.72371 0.70763 0.0
H725 H 0.79826 0.59952 0.67047 0.0
H726 H 0.79456 0.6719 0.63276 0.0
H727 H 0.76722 0.56471 0.67251 0.0
H728 H 0.88973 0.76531 0.72054 0.0
H729 H 0.72687 0.63591 0.62599 0.0
H730 H 0.70744 0.60021 0.63805 0.0
H731 H 0.85192 0.75661 0.72585 0.0
H732 H 0.7092 0.57184 0.65187 0.0
N733 N 0.77875 0.64413 0.64651 0.0
C734 C 0.77948 0.65835 0.63561 0.0
C735 C 0.74135 0.63797 0.63167 0.0
C736 C 0.74111 0.62235 0.64125 0.0
C737 C 0.76076 0.65585 0.62848 0.0
C738 C 0.76044 0.62582 0.64835 0.0
H739 H 0.73155 0.55822 0.66409 0.0
N740 N 0.78074 0.61344 0.66147 0.0
C741 C 0.76532 0.57731 0.66795 0.0
C742 C 0.7615 0.60987 0.65591 0.0
C743 C 0.78298 0.5973 0.6669 0.0
C744 C 0.74523 0.5737 0.66319 0.0
C745 C 0.74315 0.59 0.65685 0.0
O746 O 0.81698 0.62998 0.64255 0.0
O747 O 0.83625 0.66833 0.67747 0.0
O748 O 0.81455 0.6886 0.68857 0.0
O749 O 0.79777 0.67065 0.66453 0.0
O750 O 0.83424 0.6815 0.65556 0.0
O751 O 0.82434 0.66078 0.63617 0.0
O752 O 0.80474 0.6588 0.72528 0.0
O753 O 0.79883 0.64149 0.68576 0.0
O754 O 0.82839 0.63375 0.67117 0.0
O755 O 0.82741 0.63931 0.69901 0.0
O756 O 0.7871 0.65503 0.70178 0.0
O757 O 0.83211 0.655 0.7232 0.0
C758 C 0.84492 0.68466 0.66887 0.0
C759 C 0.81342 0.63666 0.61448 0.0
C760 C 0.81216 0.64369 0.58526 0.0
C761 C 0.82135 0.65023 0.60096 0.0
C762 C 0.7952 0.62319 0.58338 0.0
C763 C 0.7962 0.61649 0.61212 0.0
C764 C 0.78729 0.60984 0.59667 0.0
C765 C 0.80349 0.68614 0.67501 0.0
C766 C 0.82293 0.64371 0.63097 0.0
C767 C 0.72352 0.58688 0.65097 0.0
C768 C 0.7225 0.60305 0.64316 0.0
C769 C 0.78196 0.6408 0.69088 0.0
C770 C 0.8241 0.66194 0.74953 0.0
C771 C 0.81765 0.64838 0.76301 0.0
C772 C 0.82476 0.65612 0.77894 0.0
C773 C 0.83803 0.67764 0.78108 0.0
C774 C 0.8375 0.68325 0.75209 0.0
C775 C 0.8443 0.69103 0.76778 0.0
C776 C 0.83102 0.63023 0.68661 0.0
C777 C 0.81731 0.65376 0.73283 0.0
H778 H 0.83438 0.66593 0.60277 0.0
H779 H 0.78805 0.61729 0.57154 0.0
H780 H 0.78959 0.60579 0.6222 0.0
H781 H 0.77416 0.59419 0.59497 0.0
H782 H 0.80753 0.63186 0.76104 0.0
H783 H 0.84347 0.68421 0.79312 0.0
H784 H 0.8428 0.69389 0.74197 0.0
H785 H 0.85456 0.70753 0.76963 0.0
Eu786 Eu 0.33775 0.15374 0.66355 0.0
C787 C 0.26186 0.126 0.71175 0.0
C788 C 0.25155 0.15217 0.7094 0.0
C789 C 0.22493 0.11674 0.7161 0.0
C790 C 0.26719 0.1462 0.70852 0.0
C791 C 0.24078 0.11112 0.71593 0.0
C792 C 0.23031 0.13723 0.71283 0.0
C793 C 0.25299 0.08677 0.72082 0.0
N794 N 0.27759 0.12116 0.71165 0.0
C795 C 0.27367 0.1021 0.71668 0.0
C796 C 0.2364 0.09121 0.72025 0.0
Eu797 Eu 0.31196 0.14755 0.70363 0.0
N798 N 0.28788 0.16027 0.70537 0.0
C799 C 0.29431 0.18084 0.70422 0.0
C800 C 0.25785 0.17308 0.70726 0.0
C801 C 0.27939 0.18751 0.70491 0.0
H802 H 0.28643 0.09856 0.71701 0.0
H803 H 0.28449 0.20377 0.70354 0.0
H804 H 0.21803 0.14148 0.71338 0.0
H805 H 0.24984 0.07154 0.72442 0.0
H806 H 0.31087 0.19215 0.70229 0.0
H807 H 0.36328 0.09598 0.66379 0.0
H808 H 0.24632 0.17829 0.70778 0.0
H809 H 0.36445 0.20279 0.65053 0.0
H810 H 0.33759 0.1084 0.66495 0.0
H811 H 0.40139 0.22928 0.64338 0.0
H812 H 0.20859 0.10548 0.71912 0.0
H813 H 0.40164 0.12081 0.6596 0.0
H814 H 0.43059 0.15737 0.65417 0.0
H815 H 0.2204 0.07933 0.72353 0.0
H816 H 0.44099 0.19366 0.64861 0.0
N817 N 0.3611 0.14013 0.66179 0.0
C818 C 0.35421 0.11945 0.66302 0.0
C819 C 0.3904 0.12638 0.66006 0.0
C820 C 0.39719 0.14739 0.65792 0.0
C821 C 0.36876 0.11231 0.66239 0.0
C822 C 0.38192 0.15385 0.65873 0.0
H823 H 0.43016 0.22054 0.64432 0.0
N824 N 0.37247 0.17961 0.65582 0.0
C825 C 0.39781 0.21389 0.64689 0.0
C826 C 0.38781 0.17425 0.65569 0.0
C827 C 0.37693 0.19887 0.65089 0.0
C828 C 0.41401 0.20891 0.64748 0.0
C829 C 0.40907 0.18879 0.65166 0.0
O830 O 0.33053 0.16221 0.63987 0.0
O831 O 0.31113 0.15374 0.67716 0.0
O832 O 0.28873 0.12119 0.68737 0.0
O833 O 0.31209 0.11999 0.66848 0.0
O834 O 0.32604 0.17672 0.66004 0.0
O835 O 0.32657 0.13173 0.6432 0.0
O836 O 0.31885 0.13983 0.72775 0.0
O837 O 0.33845 0.14742 0.68999 0.0
O838 O 0.36091 0.17992 0.67994 0.0
O839 O 0.33737 0.18137 0.69849 0.0
O840 O 0.32404 0.1249 0.70744 0.0
O841 O 0.32395 0.17055 0.72325 0.0
C842 C 0.31069 0.16873 0.67041 0.0
C843 C 0.33566 0.14638 0.61683 0.0
C844 C 0.33247 0.14397 0.58707 0.0
C845 C 0.32322 0.14194 0.60257 0.0
C846 C 0.35444 0.15071 0.58621 0.0
C847 C 0.3574 0.1528 0.61561 0.0
C848 C 0.36672 0.155 0.60037 0.0
C849 C 0.29323 0.11163 0.67577 0.0
C850 C 0.32596 0.14475 0.6329 0.0
C851 C 0.42452 0.18266 0.65151 0.0
C852 C 0.4186 0.162 0.65466 0.0
C853 C 0.33916 0.13265 0.69687 0.0
C854 C 0.31483 0.1576 0.75004 0.0
C855 C 0.3279 0.16427 0.76404 0.0
C856 C 0.31922 0.16414 0.77944 0.0
C857 C 0.29722 0.15709 0.78052 0.0
C858 C 0.29301 0.15075 0.75144 0.0
C859 C 0.28428 0.15048 0.76662 0.0
C860 C 0.35637 0.18958 0.69144 0.0
C861 C 0.32412 0.15783 0.73406 0.0
H862 H 0.30635 0.13672 0.60359 0.0
H863 H 0.36226 0.15292 0.57456 0.0
H864 H 0.36719 0.15621 0.6264 0.0
H865 H 0.38356 0.16014 0.59952 0.0
H866 H 0.34482 0.16978 0.76287 0.0
H867 H 0.28991 0.15639 0.79216 0.0
H868 H 0.28274 0.14558 0.74084 0.0
H869 H 0.26738 0.14505 0.76762 0.0
Eu870 Eu 0.84135 0.16326 0.70161 0.0
C871 C 0.79654 0.19068 0.64998 0.0
C872 C 0.75911 0.1649 0.6522 0.0
C873 C 0.7695 0.19992 0.64376 0.0
C874 C 0.78084 0.17076 0.65373 0.0
C875 C 0.79107 0.20534 0.64449 0.0
C876 C 0.75354 0.17973 0.64764 0.0
C877 C 0.82847 0.22886 0.63931 0.0
N878 N 0.81717 0.19529 0.65062 0.0
C879 C 0.83308 0.21379 0.64486 0.0
C880 C 0.8074 0.22474 0.63936 0.0
Eu881 Eu 0.82391 0.16931 0.66053 0.0
N882 N 0.7868 0.15676 0.65781 0.0
C883 C 0.77186 0.13626 0.6592 0.0
C884 C 0.74368 0.14414 0.65473 0.0
C885 C 0.7501 0.1297 0.65797 0.0
H886 H 0.84941 0.2171 0.64492 0.0
H887 H 0.73832 0.11352 0.65958 0.0
H888 H 0.73694 0.17558 0.64657 0.0
H889 H 0.84117 0.24365 0.63507 0.0
H890 H 0.77659 0.12493 0.66177 0.0
H891 H 0.92584 0.22287 0.70337 0.0
H892 H 0.72682 0.13902 0.65374 0.0
H893 H 0.81828 0.1143 0.7147 0.0
H894 H 0.88721 0.20943 0.70114 0.0
H895 H 0.82872 0.08857 0.72267 0.0
H896 H 0.76497 0.21104 0.63975 0.0
H897 H 0.93948 0.19886 0.70839 0.0
H898 H 0.93164 0.16263 0.71415 0.0
H899 H 0.80386 0.23642 0.63503 0.0
H900 H 0.90523 0.12608 0.71941 0.0
N901 N 0.87879 0.17792 0.7045 0.0
C902 C 0.8928 0.19871 0.70341 0.0
C903 C 0.92243 0.19283 0.70745 0.0
C904 C 0.90796 0.17169 0.70945 0.0
C905 C 0.91479 0.20643 0.70466 0.0
C906 C 0.88594 0.16464 0.708 0.0
H907 H 0.86684 0.09839 0.72286 0.0
N908 N 0.85011 0.1381 0.71009 0.0
C909 C 0.8408 0.1041 0.7193 0.0
C910 C 0.87113 0.14408 0.71085 0.0
C911 C 0.83495 0.11868 0.71485 0.0
C912 C 0.86233 0.10969 0.71935 0.0
C913 C 0.87785 0.12999 0.71535 0.0
O914 O 0.82426 0.15388 0.72475 0.0
O915 O 0.8153 0.16324 0.68689 0.0
O916 O 0.82776 0.19644 0.67568 0.0
O917 O 0.84978 0.19675 0.69674 0.0
O918 O 0.80599 0.13988 0.70382 0.0
O919 O 0.85123 0.18481 0.72223 0.0
O920 O 0.84018 0.17616 0.63701 0.0
O921 O 0.84994 0.16964 0.6754 0.0
O922 O 0.83853 0.13724 0.68562 0.0
O923 O 0.8141 0.13559 0.66625 0.0
O924 O 0.85942 0.19225 0.65795 0.0
O925 O 0.81276 0.14596 0.64116 0.0
C926 C 0.7992 0.14803 0.69323 0.0
C927 C 0.84419 0.16984 0.74853 0.0
C928 C 0.84216 0.17227 0.77821 0.0
C929 C 0.83541 0.17393 0.76239 0.0
C930 C 0.85762 0.16617 0.77982 0.0
C931 C 0.8597 0.16402 0.75053 0.0
C932 C 0.8663 0.16213 0.76609 0.0
C933 C 0.84063 0.20546 0.68832 0.0
C934 C 0.83687 0.17137 0.73208 0.0
C935 C 0.89975 0.13673 0.71614 0.0
C936 C 0.91479 0.15754 0.71317 0.0
C937 C 0.86615 0.18458 0.66897 0.0
C938 C 0.81879 0.15852 0.61415 0.0
C939 C 0.82608 0.15232 0.60053 0.0
C940 C 0.81824 0.15239 0.58475 0.0
C941 C 0.80324 0.15903 0.5829 0.0
C942 C 0.80375 0.16491 0.61193 0.0
C943 C 0.79609 0.16521 0.59639 0.0
C944 C 0.82446 0.12751 0.67383 0.0
C945 C 0.82685 0.15822 0.63062 0.0
H946 H 0.82359 0.17866 0.7608 0.0
H947 H 0.8629 0.1643 0.79174 0.0
H948 H 0.86666 0.16088 0.74007 0.0
H949 H 0.87818 0.15749 0.76753 0.0
H950 H 0.83755 0.14718 0.60228 0.0
H951 H 0.79718 0.15968 0.57096 0.0
H952 H 0.79791 0.16963 0.62221 0.0
H953 H 0.78456 0.17027 0.59478 0.0
C954 C 0.27451 0.82173 0.05454 0.0
C955 C 0.27219 0.8161 0.07111 0.0
C956 C 0.29346 0.8386 0.0488 0.0
C957 C 0.3406 0.88727 0.06243 0.0
H958 H 0.36576 0.88366 0.02179 0.0
C959 C 0.41151 0.95928 0.03412 0.0
C960 C 0.42879 0.95717 0.02895 0.0
C961 C 0.39189 0.94184 0.03782 0.0
C962 C 0.35895 0.88488 0.03317 0.0
H963 H 0.28842 0.82397 0.09454 0.0
H964 H 0.32121 0.85357 0.08458 0.0
H965 H 0.33283 0.85362 0.03151 0.0
H966 H 0.43907 0.93505 0.02365 0.0
H967 H 0.4046 0.90445 0.02981 0.0
H968 H 0.36668 0.91841 0.06421 0.0
C969 C 0.30825 0.84494 0.07604 0.0
C970 C 0.34 0.86774 0.03869 0.0
C971 C 0.28938 0.82797 0.08177 0.0
C972 C 0.42591 0.93716 0.02722 0.0
C973 C 0.40617 0.91964 0.03082 0.0
C974 C 0.35937 0.90443 0.05686 0.0
C975 C 0.31057 0.85047 0.05948 0.0
C976 C 0.33063 0.86869 0.05344 0.0
C977 C 0.38907 0.92181 0.03655 0.0
C978 C 0.36883 0.90347 0.04217 0.0
H979 H 0.26156 0.81328 0.04597 0.0
H980 H 0.29456 0.84259 0.03601 0.0
H981 H 0.33375 0.88865 0.07375 0.0
H982 H 0.41334 0.97452 0.03567 0.0
H983 H 0.379 0.94407 0.04198 0.0
C984 C 0.14706 0.43121 0.07405 0.0
C985 C 0.16824 0.44705 0.0715 0.0
C986 C 0.12984 0.43317 0.06842 0.0
C987 C 0.1155 0.46415 0.04028 0.0
H988 H 0.06415 0.44025 0.06637 0.0
C989 C 0.04505 0.48036 0.02995 0.0
C990 C 0.02428 0.46324 0.03115 0.0
C991 C 0.06291 0.47838 0.03373 0.0
C992 C 0.07828 0.44685 0.05883 0.0
H993 H 0.18778 0.47746 0.06097 0.0
H994 H 0.15784 0.48115 0.05148 0.0
H995 H 0.09445 0.43708 0.07528 0.0
H996 H 0.00596 0.43083 0.0376 0.0
H997 H 0.03697 0.42737 0.04429 0.0
H998 H 0.09922 0.47433 0.02404 0.0
C999 C 0.15445 0.46693 0.05752 0.0
C1000 C 0.09574 0.44497 0.06392 0.0
C1001 C 0.1717 0.46486 0.06303 0.0
C1002 C 0.02178 0.44422 0.03637 0.0
C1003 C 0.03955 0.44228 0.04029 0.0
C1004 C 0.09805 0.46621 0.03526 0.0
C1005 C 0.1332 0.45115 0.06019 0.0
C1006 C 0.11463 0.45346 0.0547 0.0
C1007 C 0.06037 0.45937 0.03919 0.0
C1008 C 0.07915 0.45746 0.04443 0.0
H1009 H 0.14377 0.41712 0.08026 0.0
H1010 H 0.11385 0.42041 0.07042 0.0
H1011 H 0.12955 0.47068 0.03267 0.0
H1012 H 0.04751 0.49538 0.02644 0.0
H1013 H 0.07867 0.49192 0.0329 0.0
C1014 C 0.52787 0.70815 0.0593 0.0
C1015 C 0.53292 0.71349 0.07586 0.0
C1016 C 0.52527 0.68949 0.05313 0.0
C1017 C 0.54131 0.6509 0.05905 0.0
H1018 H 0.48877 0.6127 0.03669 0.0
C1019 C 0.52249 0.5682 0.04178 0.0
C1020 C 0.50999 0.55855 0.02786 0.0
C1021 C 0.52559 0.58731 0.04725 0.0
C1022 C 0.50376 0.62327 0.04259 0.0
H1023 H 0.53894 0.70283 0.09886 0.0
H1024 H 0.53543 0.67089 0.08785 0.0
H1025 H 0.49398 0.64577 0.04655 0.0
H1026 H 0.49078 0.5616 0.00894 0.0
H1027 H 0.49728 0.59535 0.01772 0.0
H1028 H 0.55159 0.62902 0.05467 0.0
C1029 C 0.5334 0.68123 0.07973 0.0
C1030 C 0.50663 0.6422 0.04834 0.0
C1031 C 0.53556 0.69966 0.08599 0.0
C1032 C 0.5008 0.56864 0.01951 0.0
C1033 C 0.50426 0.58796 0.02477 0.0
C1034 C 0.53865 0.63217 0.053 0.0
C1035 C 0.52809 0.6759 0.06327 0.0
C1036 C 0.52534 0.65611 0.05675 0.0
C1037 C 0.51658 0.59756 0.03882 0.0
C1038 C 0.51974 0.61793 0.04481 0.0
H1039 H 0.52613 0.71846 0.05098 0.0
H1040 H 0.52137 0.68582 0.04036 0.0
H1041 H 0.55599 0.66146 0.06535 0.0
H1042 H 0.52967 0.56087 0.04868 0.0
H1043 H 0.53475 0.59379 0.05831 0.0
C1044 C 0.82937 0.27024 0.95609 0.0
C1045 C 0.80776 0.26397 0.95873 0.0
C1046 C 0.84565 0.28955 0.96162 0.0
C1047 C 0.85561 0.34132 0.97561 0.0
H1048 H 0.90882 0.3471 0.9916 0.0
C1049 C 0.92051 0.4162 0.00726 0.0
C1050 C 0.94182 0.42353 1.00267 0.0
C1051 C 0.90423 0.39667 1.00216 0.0
C1052 C 0.89412 0.34579 0.98704 0.0
H1053 H 0.78654 0.27344 0.96929 0.0
H1054 H 0.81483 0.30669 0.97939 0.0
H1055 H 0.88032 0.31329 0.98246 0.0
H1056 H 0.96263 0.41586 0.98913 0.0
H1057 H 0.93423 0.38176 0.98029 0.0
H1058 H 0.86939 0.37381 0.98043 0.0
C1059 C 0.81923 0.29683 0.97277 0.0
C1060 C 0.87776 0.32638 0.98174 0.0
C1061 C 0.80295 0.27756 0.96716 0.0
C1062 C 0.94643 0.41074 0.99292 0.0
C1063 C 0.93015 0.39112 0.98792 0.0
C1064 C 0.87192 0.36068 0.98103 0.0
C1065 C 0.84084 0.30316 0.97005 0.0
C1066 C 0.85826 0.32385 0.97589 0.0
C1067 C 0.90883 0.38388 0.9924 0.0
C1068 C 0.89141 0.36318 0.98677 0.0
H1069 H 0.8338 0.26014 0.94987 0.0
H1070 H 0.86203 0.29389 0.95907 0.0
H1071 H 0.84105 0.34016 0.97092 0.0
H1072 H 0.9163 0.42566 0.01464 0.0
H1073 H 0.88803 0.39152 0.00596 0.0
C1074 C 0.69784 0.51641 0.96852 0.0
C1075 C 0.71297 0.53436 0.96033 0.0
C1076 C 0.67864 0.51453 0.97414 0.0
C1077 C 0.64322 0.53738 0.96854 0.0
H1078 H 0.61674 0.50761 0.00827 0.0
C1079 C 0.57044 0.53833 0.99602 0.0
C1080 C 0.55331 0.51936 1.00126 0.0
C1081 C 0.5902 0.54023 0.99226 0.0
C1082 C 0.62385 0.51585 0.99708 0.0
H1083 H 0.71984 0.56469 0.95214 0.0
H1084 H 0.68677 0.56166 0.96212 0.0
H1085 H 0.6505 0.51091 0.99934 0.0
H1086 H 0.54347 0.48732 0.00639 0.0
H1087 H 0.57815 0.49069 1.00015 0.0
H1088 H 0.61672 0.54248 0.96637 0.0
C1089 C 0.68935 0.54869 0.96385 0.0
C1090 C 0.64323 0.51771 0.9919 0.0
C1091 C 0.70844 0.55048 0.95812 0.0
C1092 C 0.55649 0.5023 1.00281 0.0
C1093 C 0.57637 0.50423 0.99916 0.0
C1094 C 0.62399 0.53566 0.97378 0.0
C1095 C 0.67402 0.53062 0.97185 0.0
C1096 C 0.65327 0.52854 0.97753 0.0
C1097 C 0.59339 0.52314 0.99351 0.0
C1098 C 0.61401 0.52491 0.98813 0.0
H1099 H 0.70063 0.50357 0.9703 0.0
H1100 H 0.66723 0.50024 0.97999 0.0
H1101 H 0.65 0.5454 0.95723 0.0
H1102 H 0.56842 0.55169 0.99455 0.0
H1103 H 0.60297 0.55509 0.98817 0.0
C1104 C 0.44932 0.158 0.9482 0.0
C1105 C 0.44466 0.16969 0.95922 0.0
C1106 C 0.45186 0.14157 0.95366 0.0
C1107 C 0.467 0.1228 0.98962 0.0
H1108 H 0.43828 0.06931 0.96802 0.0
C1109 C 0.47185 0.05287 0.01508 0.0
C1110 C 0.47178 0.03847 1.00402 0.0
C1111 C 0.46796 0.06854 0.00978 0.0
C1112 C 0.44675 0.08422 0.97407 0.0
H1113 H 0.43839 0.17254 0.98468 0.0
H1114 H 0.44358 0.14441 0.99418 0.0
H1115 H 0.43286 0.0972 0.95823 0.0
H1116 H 0.46803 0.0296 0.97851 0.0
H1117 H 0.46213 0.05721 0.96916 0.0
H1118 H 0.4815 0.11028 0.00512 0.0
C1119 C 0.44532 0.14809 0.98131 0.0
C1120 C 0.44351 0.10017 0.96847 0.0
C1121 C 0.44246 0.1643 0.97584 0.0
C1122 C 0.46792 0.04024 0.98745 0.0
C1123 C 0.4644 0.05609 0.98209 0.0
C1124 C 0.47053 0.10697 0.99506 0.0
C1125 C 0.45012 0.13659 0.9703 0.0
C1126 C 0.45356 0.11962 0.97621 0.0
C1127 C 0.46427 0.07046 0.99317 0.0
C1128 C 0.46043 0.08739 0.9874 0.0
H1129 H 0.45149 0.1618 0.93536 0.0
H1130 H 0.45573 0.13307 0.94491 0.0
H1131 H 0.47516 0.13772 0.99571 0.0
H1132 H 0.47453 0.05188 0.02789 0.0
H1133 H 0.46759 0.07896 0.01879 0.0
C1134 C 0.69606 0.14419 0.96572 0.0
C1135 C 0.69829 0.16397 0.96532 0.0
C1136 C 0.67635 0.12683 0.96969 0.0
C1137 C 0.62657 0.11273 0.99207 0.0
H1138 H 0.60451 0.05996 0.96991 0.0
C1139 C 0.54151 0.04292 1.00401 0.0
C1140 C 0.53875 0.0229 1.00309 0.0
C1141 C 0.5612 0.0603 1.00006 0.0
C1142 C 0.61055 0.07448 0.97644 0.0
H1143 H 0.68198 0.18134 0.96855 0.0
H1144 H 0.64754 0.15113 0.9753 0.0
H1145 H 0.638 0.08953 0.96103 0.0
H1146 H 0.55439 0.00537 0.99758 0.0
H1147 H 0.58879 0.03553 0.99113 0.0
H1148 H 0.59926 0.09766 0.00761 0.0
C1149 C 0.66088 0.14888 0.97265 0.0
C1150 C 0.62978 0.09149 0.97127 0.0
C1151 C 0.68051 0.16615 0.96859 0.0
C1152 C 0.55612 0.02064 0.99845 0.0
C1153 C 0.57578 0.03795 0.9946 0.0
C1154 C 0.6074 0.09568 0.99732 0.0
C1155 C 0.65861 0.12902 0.97355 0.0
C1156 C 0.63804 0.11086 0.97899 0.0
C1157 C 0.57852 0.05802 0.995 0.0
C1158 C 0.59909 0.07628 0.98958 0.0
H1159 H 0.7097 0.14223 0.96352 0.0
H1160 H 0.67524 0.11181 0.97038 0.0
H1161 H 0.63262 0.12734 0.99848 0.0
H1162 H 0.52827 0.04509 0.00725 0.0
H1163 H 0.56257 0.07543 1.0004 0.0
C1164 C 0.81055 0.50308 0.96981 0.0
C1165 C 0.81319 0.52277 0.96695 0.0
C1166 C 0.82819 0.5007 0.97331 0.0
C1167 C 0.88444 0.53052 0.98854 0.0
H1168 H 0.88646 0.48186 0.97453 0.0
C1169 C 0.96024 0.52314 0.99576 0.0
C1170 C 0.95765 0.50383 1.00021 0.0
C1171 C 0.9425 0.52535 0.9923 0.0
C1172 C 0.88606 0.49543 0.97873 0.0
H1173 H 0.83624 0.55545 0.96533 0.0
H1174 H 0.86726 0.55139 0.97097 0.0
H1175 H 0.85648 0.48614 0.96636 0.0
H1176 H 0.93435 0.47148 1.00397 0.0
H1177 H 0.90331 0.47531 0.99807 0.0
H1178 H 0.91417 0.53987 1.00077 0.0
C1179 C 0.85156 0.53771 0.97076 0.0
C1180 C 0.86881 0.49792 0.97402 0.0
C1181 C 0.83384 0.54006 0.9673 0.0
C1182 C 0.93687 0.48667 1.00093 0.0
C1183 C 0.91908 0.48883 0.99735 0.0
C1184 C 0.90174 0.52807 0.99318 0.0
C1185 C 0.84899 0.518 0.97408 0.0
C1186 C 0.86769 0.51552 0.97883 0.0
C1187 C 0.92165 0.50821 0.99287 0.0
C1188 C 0.90284 0.5105 0.98834 0.0
H1189 H 0.79472 0.48954 0.9699 0.0
H1190 H 0.82537 0.48532 0.97601 0.0
H1191 H 0.88407 0.54407 0.99283 0.0
H1192 H 0.97608 0.53656 0.99485 0.0
H1193 H 0.9452 0.54044 0.98869 0.0
C1194 C 0.47961 0.29478 0.97404 0.0
C1195 C 0.46042 0.27933 0.9672 0.0
C1196 C 0.48257 0.31444 0.97734 0.0
C1197 C 0.46358 0.35088 0.96816 0.0
H1198 H 0.4862 0.3726 0.01117 0.0
C1199 C 0.46866 0.42614 0.99329 0.0
C1200 C 0.48642 0.43922 1.00304 0.0
C1201 C 0.46498 0.40655 0.98854 0.0
C1202 C 0.48017 0.36698 0.99902 0.0
H1203 H 0.42938 0.27209 0.95803 0.0
H1204 H 0.43462 0.3068 0.9636 0.0
H1205 H 0.48116 0.3391 1.00289 0.0
H1206 H 0.51454 0.44211 0.01506 0.0
H1207 H 0.50838 0.40832 0.00658 0.0
H1208 H 0.46294 0.37896 0.96417 0.0
C1209 C 0.44742 0.30374 0.96636 0.0
C1210 C 0.47721 0.3477 0.99429 0.0
C1211 C 0.44441 0.28394 0.96316 0.0
C1212 C 0.5005 0.43233 0.00779 0.0
C1213 C 0.49691 0.41285 1.00294 0.0
C1214 C 0.46673 0.37032 0.97284 0.0
C1215 C 0.46637 0.31906 0.97385 0.0
C1216 C 0.46901 0.33945 0.97878 0.0
C1217 C 0.47905 0.39961 0.9933 0.0
C1218 C 0.47519 0.3787 0.98832 0.0
H1219 H 0.4921 0.29146 0.97734 0.0
H1220 H 0.49744 0.32596 0.9829 0.0
H1221 H 0.45735 0.34499 0.9561 0.0
H1222 H 0.45747 0.43093 0.98944 0.0
H1223 H 0.4509 0.39674 0.98131 0.0
C1224 C 0.15523 0.70014 0.06798 0.0
C1225 C 0.17622 0.70513 0.06444 0.0
C1226 C 0.13815 0.68009 0.06482 0.0
C1227 C 0.12406 0.63553 0.03777 0.0
H1228 H 0.07668 0.60462 0.06705 0.0
C1229 C 0.06098 0.55039 0.02442 0.0
C1230 C 0.0396 0.54334 0.02855 0.0
C1231 C 0.07721 0.57001 0.02934 0.0
C1232 C 0.08962 0.61313 0.05861 0.0
H1233 H 0.19608 0.69339 0.05523 0.0
H1234 H 0.16645 0.65847 0.04977 0.0
H1235 H 0.10559 0.63893 0.07508 0.0
H1236 H 0.0186 0.55152 0.04122 0.0
H1237 H 0.04683 0.58595 0.04948 0.0
H1238 H 0.10813 0.61017 0.02114 0.0
C1239 C 0.16301 0.66988 0.05489 0.0
C1240 C 0.10624 0.6328 0.06326 0.0
C1241 C 0.17999 0.68979 0.05815 0.0
C1242 C 0.03489 0.55642 0.03782 0.0
C1243 C 0.05115 0.57616 0.04266 0.0
C1244 C 0.10741 0.61603 0.03306 0.0
C1245 C 0.14183 0.66486 0.05787 0.0
C1246 C 0.12377 0.64415 0.05296 0.0
C1247 C 0.07257 0.58327 0.03846 0.0
C1248 C 0.09002 0.60441 0.04345 0.0
H1249 H 0.15199 0.71187 0.07266 0.0
H1250 H 0.12203 0.67676 0.06718 0.0
H1251 H 0.1371 0.64402 0.02938 0.0
H1252 H 0.06529 0.54063 0.01755 0.0
H1253 H 0.09349 0.57463 0.02616 0.0
C1254 C 0.29692 0.47726 0.06091 0.0
C1255 C 0.27983 0.45756 0.06469 0.0
C1256 C 0.31707 0.48 0.05714 0.0
C1257 C 0.35068 0.45522 0.06014 0.0
H1258 H 0.3813 0.49133 0.02403 0.0
C1259 C 0.4265 0.45856 0.03427 0.0
C1260 C 0.44352 0.47785 0.02948 0.0
C1261 C 0.40652 0.45619 0.03799 0.0
C1262 C 0.37315 0.48139 0.03427 0.0
H1263 H 0.27027 0.42525 0.0676 0.0
H1264 H 0.30552 0.42995 0.06122 0.0
H1265 H 0.34705 0.48721 0.03236 0.0
H1266 H 0.453 0.50994 0.02507 0.0
H1267 H 0.41814 0.50591 0.03159 0.0
H1268 H 0.37677 0.4495 0.06219 0.0
C1269 C 0.30353 0.44341 0.06132 0.0
C1270 C 0.35343 0.479 0.03907 0.0
C1271 C 0.28332 0.44067 0.06501 0.0
C1272 C 0.44007 0.49477 0.02839 0.0
C1273 C 0.42004 0.49242 0.03216 0.0
C1274 C 0.37042 0.45767 0.0554 0.0
C1275 C 0.32063 0.46307 0.05703 0.0
C1276 C 0.34185 0.46584 0.05206 0.0
C1277 C 0.40303 0.47313 0.03728 0.0
C1278 C 0.38195 0.47072 0.04234 0.0
H1279 H 0.29455 0.49049 0.06038 0.0
H1280 H 0.32983 0.49541 0.05416 0.0
H1281 H 0.34247 0.44521 0.07034 0.0
H1282 H 0.42871 0.44528 0.0353 0.0
H1283 H 0.39382 0.441 0.04152 0.0
C1284 C 0.52626 0.82374 0.07868 0.0
C1285 C 0.51602 0.80556 0.06932 0.0
C1286 C 0.52558 0.84146 0.07376 0.0
C1287 C 0.51327 0.86432 0.03758 0.0
H1288 H 0.50537 0.89781 0.06991 0.0
C1289 C 0.48518 0.9223 0.02094 0.0
C1290 C 0.49584 0.94192 0.02844 0.0
C1291 C 0.48907 0.90652 0.0259 0.0
C1292 C 0.50778 0.88872 0.06075 0.0
H1293 H 0.49709 0.79127 0.04771 0.0
H1294 H 0.49551 0.82176 0.03924 0.0
H1295 H 0.51003 0.86902 0.07866 0.0
H1296 H 0.51876 0.96009 0.04736 0.0
H1297 H 0.52524 0.93248 0.05613 0.0
H1298 H 0.51044 0.88371 0.01968 0.0
C1299 C 0.50449 0.82281 0.05014 0.0
C1300 C 0.51054 0.87224 0.06576 0.0
C1301 C 0.50525 0.80526 0.05502 0.0
C1302 C 0.51028 0.94524 0.04121 0.0
C1303 C 0.51396 0.92938 0.04632 0.0
C1304 C 0.51031 0.88064 0.03259 0.0
C1305 C 0.5146 0.84119 0.05942 0.0
C1306 C 0.5131 0.85965 0.05423 0.0
C1307 C 0.50347 0.90985 0.03868 0.0
C1308 C 0.50734 0.89294 0.04409 0.0
H1309 H 0.53462 0.82422 0.0898 0.0
H1310 H 0.53373 0.85535 0.08114 0.0
H1311 H 0.51567 0.85532 0.02834 0.0
H1312 H 0.47359 0.91896 0.01135 0.0
H1313 H 0.48047 0.89155 0.01993 0.0
C1314 C 0.93945 0.15768 0.38774 0.0
C1315 C 0.9381 0.15059 0.40383 0.0
C1316 C 0.95846 0.17435 0.38188 0.0
C1317 C 0.01685 0.20389 0.38965 0.0
H1318 H 0.01527 0.2456 0.36247 0.0
C1319 C 0.09365 0.27065 0.3612 0.0
C1320 C 0.09604 0.2905 0.36246 0.0
C1321 C 0.07397 0.25295 0.36452 0.0
C1322 C 0.01601 0.23411 0.37006 0.0
H1323 H 0.95586 0.15561 0.42632 0.0
H1324 H -0.01109 0.18483 0.41618 0.0
H1325 H 0.98198 0.21645 0.37233 0.0
H1326 H 0.07983 0.30742 0.36822 0.0
H1327 H 0.04551 0.27665 0.37401 0.0
H1328 H 0.0509 0.22179 0.38771 0.0
C1329 C 0.9753 0.17735 0.40803 0.0
C1330 C -0.00311 0.21727 0.37561 0.0
C1331 C 0.95625 0.16073 0.41392 0.0
C1332 C 0.07832 0.29228 0.36691 0.0
C1333 C 0.05864 0.27462 0.37016 0.0
C1334 C 0.03596 0.22067 0.38405 0.0
C1335 C 0.97669 0.18436 0.39191 0.0
C1336 C -0.00295 0.20202 0.38561 0.0
C1337 C 0.05628 0.25473 0.3693 0.0
C1338 C 0.03582 0.23612 0.3743 0.0
H1339 H 0.92575 0.15041 0.37967 0.0
H1340 H 0.95895 0.17918 0.36938 0.0
H1341 H 0.01762 0.19233 0.39714 0.0
H1342 H 0.10712 0.26878 0.35814 0.0
H1343 H 0.07269 0.23788 0.36357 0.0
C1344 C 0.83765 0.79495 0.40079 0.0
C1345 C 0.83378 0.77616 0.40783 0.0
C1346 C 0.82072 0.79756 0.39528 0.0
C1347 C 0.76165 0.77493 0.39947 0.0
H1348 H 0.76758 0.80762 0.36107 0.0
C1349 C 0.68915 0.77673 0.37159 0.0
C1350 C 0.692 0.79591 0.36641 0.0
C1351 C 0.70668 0.77446 0.37568 0.0
C1352 C 0.7657 0.79859 0.37191 0.0
H1353 H 0.80879 0.74519 0.41411 0.0
H1354 H 0.77947 0.7496 0.40445 0.0
H1355 H 0.79742 0.80338 0.37005 0.0
H1356 H 0.71565 0.82795 0.3619 0.0
H1357 H 0.74639 0.824 0.36883 0.0
H1358 H 0.72995 0.77006 0.4013 0.0
C1359 C 0.79556 0.76259 0.4035 0.0
C1360 C 0.78288 0.79617 0.3771 0.0
C1361 C 0.81246 0.76002 0.40906 0.0
C1362 C 0.71292 0.81283 0.36541 0.0
C1363 C 0.73055 0.81055 0.36945 0.0
C1364 C 0.74451 0.77728 0.39425 0.0
C1365 C 0.79936 0.78143 0.39659 0.0
C1366 C 0.78112 0.78424 0.39097 0.0
C1367 C 0.72766 0.79138 0.3749 0.0
C1368 C 0.7462 0.78908 0.38036 0.0
H1369 H 0.85379 0.80784 0.39978 0.0
H1370 H 0.82442 0.81241 0.39029 0.0
H1371 H 0.75967 0.76603 0.41039 0.0
H1372 H 0.67323 0.76346 0.37263 0.0
H1373 H 0.70376 0.7594 0.37957 0.0
C1374 C 0.20277 0.0327 0.4176 0.0
C1375 C 0.20326 0.04755 0.40677 0.0
C1376 C 0.20009 0.01385 0.41186 0.0
C1377 C 0.2011 -0.01325 0.37346 0.0
H1378 H 0.17218 0.93803 0.40074 0.0
C1379 C 0.16868 0.9014 0.35182 0.0
C1380 C 0.1768 0.89062 0.36059 0.0
C1381 C 0.17248 0.92084 0.35711 0.0
C1382 C 0.18034 0.95156 0.39303 0.0
H1383 H 0.20151 0.05391 0.38116 0.0
H1384 H 0.19533 0.02071 0.37133 0.0
H1385 H 0.17706 0.97101 0.41049 0.0
H1386 H 0.19494 0.89187 0.38216 0.0
H1387 H 0.20077 0.92537 0.39165 0.0
H1388 H 0.20333 0.9667 0.35572 0.0
C1389 C 0.19772 0.02381 0.38428 0.0
C1390 C 0.18334 0.97057 0.39864 0.0
C1391 C 0.20087 0.04285 0.38999 0.0
C1392 C 0.18852 0.89968 0.37498 0.0
C1393 C 0.19186 0.91887 0.38047 0.0
C1394 C 0.19762 0.9676 0.36771 0.0
C1395 C 0.19732 0.00898 0.39511 0.0
C1396 C 0.19391 -0.01144 0.389 0.0
C1397 C 0.18395 0.92965 0.37155 0.0
C1398 C 0.18735 0.94988 0.37749 0.0
H1399 H 0.20419 0.03543 0.43062 0.0
H1400 H 0.20033 0.00316 0.42065 0.0
H1401 H 0.2097 0.00016 0.36573 0.0
H1402 H 0.15917 0.89479 0.34095 0.0
H1403 H 0.16603 0.92878 0.35011 0.0
C1404 C 0.48174 0.60023 0.30927 0.0
C1405 C 0.47484 0.59752 0.29294 0.0
C1406 C 0.49824 0.61942 0.31483 0.0
C1407 C 0.54332 0.66953 0.30004 0.0
H1408 H 0.54126 0.68832 0.3437 0.0
C1409 C 0.61452 0.74365 0.32764 0.0
C1410 C 0.60992 0.75635 0.33749 0.0
C1411 C 0.59825 0.72409 0.32252 0.0
C1412 C 0.54205 0.68344 0.33141 0.0
H1413 H 0.47963 0.6131 0.26976 0.0
H1414 H 0.50809 0.64659 0.27946 0.0
H1415 H 0.51232 0.65518 0.33403 0.0
H1416 H 0.58438 0.75841 0.34948 0.0
H1417 H 0.5561 0.72459 0.34045 0.0
H1418 H 0.57269 0.69809 0.29723 0.0
C1419 C 0.50115 0.63377 0.28793 0.0
C1420 C 0.52553 0.66423 0.32592 0.0
C1421 C 0.48475 0.61455 0.28235 0.0
C1422 C 0.58862 0.74897 0.3421 0.0
C1423 C 0.57234 0.72947 0.33693 0.0
C1424 C 0.55979 0.68878 0.3055 0.0
C1425 C 0.50821 0.63649 0.30424 0.0
C1426 C 0.52589 0.65698 0.31014 0.0
C1427 C 0.57689 0.71674 0.32703 0.0
C1428 C 0.55941 0.69605 0.32127 0.0
H1429 H 0.47467 0.58737 0.3177 0.0
H1430 H 0.50341 0.62074 0.32739 0.0
H1431 H 0.54438 0.66443 0.2879 0.0
H1432 H 0.63074 0.74876 0.32389 0.0
H1433 H 0.60248 0.71466 0.31514 0.0
C1434 C 0.36419 0.84717 0.30244 0.0
C1435 C 0.37964 0.86531 0.29463 0.0
C1436 C 0.34497 0.84536 0.30798 0.0
C1437 C 0.31018 0.86892 0.30249 0.0
H1438 H 0.28235 0.83803 0.34149 0.0
C1439 C 0.23695 0.86981 0.32916 0.0
C1440 C 0.21962 0.85083 0.33418 0.0
C1441 C 0.25672 0.8716 0.32558 0.0
C1442 C 0.28983 0.84658 0.3305 0.0
H1443 H 0.38708 0.89606 0.28713 0.0
H1444 H 0.35399 0.89311 0.29694 0.0
H1445 H 0.3162 0.84121 0.33292 0.0
H1446 H 0.20944 0.81867 0.33906 0.0
H1447 H 0.24409 0.82182 0.3331 0.0
H1448 H 0.28395 0.87441 0.30012 0.0
C1449 C 0.35633 0.87996 0.29842 0.0
C1450 C 0.30928 0.84839 0.32553 0.0
C1451 C 0.37545 0.8817 0.29279 0.0
C1452 C 0.2226 0.83365 0.33566 0.0
C1453 C 0.24248 0.83546 0.33217 0.0
C1454 C 0.29088 0.86723 0.30751 0.0
C1455 C 0.34064 0.86169 0.30597 0.0
C1456 C 0.31982 0.85964 0.31143 0.0
C1457 C 0.25972 0.85439 0.32676 0.0
C1458 C 0.28041 0.85608 0.3216 0.0
H1459 H 0.36671 0.83413 0.30393 0.0
H1460 H 0.3333 0.83092 0.31349 0.0
H1461 H 0.31735 0.87728 0.29137 0.0
H1462 H 0.2351 0.88327 0.32775 0.0
H1463 H 0.26963 0.88649 0.32169 0.0
C1464 C 0.1289 0.50641 0.30145 0.0
C1465 C 0.11129 0.50238 0.29154 0.0
C1466 C 0.13177 0.49025 0.307 0.0
C1467 C 0.11716 0.43611 0.29843 0.0
H1468 H 0.13416 0.4366 0.34337 0.0
C1469 C 0.12124 0.36692 0.32619 0.0
C1470 C 0.13812 0.3713 0.33701 0.0
C1471 C 0.11743 0.38264 0.32095 0.0
C1472 C 0.12967 0.43632 0.33073 0.0
H1473 H 0.0829 0.47795 0.27975 0.0
H1474 H 0.08813 0.44977 0.28926 0.0
H1475 H 0.12874 0.46444 0.33344 0.0
H1476 H 0.16434 0.39583 0.35069 0.0
H1477 H 0.15788 0.42322 0.34142 0.0
H1478 H 0.11839 0.40819 0.2956 0.0
C1479 C 0.09977 0.46553 0.29265 0.0
C1480 C 0.12652 0.45229 0.32504 0.0
C1481 C 0.09681 0.48171 0.28716 0.0
C1482 C 0.15102 0.3918 0.34252 0.0
C1483 C 0.14727 0.40755 0.33722 0.0
C1484 C 0.12044 0.4202 0.30408 0.0
C1485 C 0.11722 0.46959 0.30273 0.0
C1486 C 0.12027 0.45241 0.30881 0.0
C1487 C 0.13048 0.40321 0.32629 0.0
C1488 C 0.12676 0.42008 0.32031 0.0
H1489 H 0.14063 0.52214 0.30482 0.0
H1490 H 0.14559 0.49397 0.31451 0.0
H1491 H 0.11262 0.43587 0.2858 0.0
H1492 H 0.1109 0.35132 0.32173 0.0
H1493 H 0.10413 0.37859 0.31276 0.0
C1494 C 0.34779 0.49945 0.30256 0.0
C1495 C 0.36568 0.49739 0.2995 0.0
C1496 C 0.32817 0.48212 0.30657 0.0
C1497 C 0.29739 0.42472 0.30537 0.0
H1498 H 0.26623 0.43092 0.34122 0.0
C1499 C 0.22299 0.35392 0.3319 0.0
C1500 C 0.20558 0.3563 0.33616 0.0
C1501 C 0.24282 0.37118 0.32831 0.0
C1502 C 0.27455 0.42893 0.33107 0.0
H1503 H 0.37732 0.4758 0.29802 0.0
H1504 H 0.34289 0.44529 0.3048 0.0
H1505 H 0.29968 0.46062 0.33228 0.0
H1506 H 0.19518 0.37863 0.33982 0.0
H1507 H 0.22973 0.40884 0.33348 0.0
H1508 H 0.27219 0.39317 0.30395 0.0
C1509 C 0.34389 0.46025 0.30398 0.0
C1510 C 0.29378 0.446 0.32593 0.0
C1511 C 0.36359 0.47766 0.30005 0.0
C1512 C 0.20844 0.37636 0.33694 0.0
C1513 C 0.22829 0.39368 0.33327 0.0
C1514 C 0.2781 0.4077 0.31043 0.0
C1515 C 0.32603 0.46233 0.30763 0.0
C1516 C 0.30546 0.44413 0.31301 0.0
C1517 C 0.24567 0.3913 0.32859 0.0
C1518 C 0.2664 0.40952 0.32338 0.0
H1519 H 0.34914 0.51459 0.30239 0.0
H1520 H 0.31473 0.48428 0.30906 0.0
H1521 H 0.30579 0.42276 0.29526 0.0
H1522 H 0.22116 0.33861 0.3311 0.0
H1523 H 0.25586 0.36869 0.32512 0.0
C1524 C 0.49194 0.85259 0.29021 0.0
C1525 C 0.48096 0.85593 0.30283 0.0
C1526 C 0.50982 0.85045 0.29371 0.0
C1527 C 0.53496 0.83679 0.32768 0.0
H1528 H 0.58521 0.8616 0.30039 0.0
C1529 C 0.62838 0.85556 0.32874 0.0
C1530 C 0.62571 0.83653 0.33412 0.0
C1531 C 0.61068 0.85775 0.325 0.0
C1532 C 0.57135 0.85464 0.30821 0.0
H1533 H 0.47993 0.85972 0.32887 0.0
H1534 H 0.51101 0.85619 0.33499 0.0
H1535 H 0.55491 0.86612 0.29355 0.0
H1536 H 0.60225 0.80455 0.3391 0.0
H1537 H 0.57128 0.8084 0.33291 0.0
H1538 H 0.55149 0.82548 0.34243 0.0
C1539 C 0.50592 0.85504 0.32242 0.0
C1540 C 0.55384 0.85705 0.30417 0.0
C1541 C 0.48822 0.85729 0.31891 0.0
C1542 C 0.60486 0.81959 0.33547 0.0
C1543 C 0.5871 0.8218 0.33184 0.0
C1544 C 0.55239 0.83424 0.33165 0.0
C1545 C 0.5169 0.85137 0.30992 0.0
C1546 C 0.53542 0.8483 0.3139 0.0
C1547 C 0.58976 0.8409 0.32642 0.0
C1548 C 0.57092 0.84323 0.32203 0.0
H1549 H 0.48648 0.85123 0.27772 0.0
H1550 H 0.51772 0.8475 0.28375 0.0
H1551 H 0.521 0.82959 0.33539 0.0
H1552 H 0.64425 0.86882 0.32737 0.0
H1553 H 0.61342 0.87274 0.32105 0.0
C1554 C 0.10616 0.61449 0.29687 0.0
C1555 C 0.12152 0.60912 0.30118 0.0
C1556 C 0.11004 0.63465 0.29977 0.0
C1557 C 0.14108 0.67871 0.32733 0.0
H1558 H 0.12782 0.71038 0.29686 0.0
C1559 C 0.16596 0.76387 0.34028 0.0
C1560 C 0.15205 0.77096 0.33552 0.0
C1561 C 0.16209 0.74428 0.33549 0.0
C1562 C 0.13135 0.70165 0.30561 0.0
H1563 H 0.15297 0.62024 0.31147 0.0
H1564 H 0.15986 0.65541 0.31647 0.0
H1565 H 0.12134 0.67602 0.28909 0.0
H1566 H 0.12315 0.76296 0.32194 0.0
H1567 H 0.11612 0.72859 0.31391 0.0
H1568 H 0.15067 0.70392 0.344 0.0
C1569 C 0.14481 0.6442 0.31095 0.0
C1570 C 0.12769 0.68197 0.30112 0.0
C1571 C 0.14098 0.62416 0.30796 0.0
C1572 C 0.13422 0.758 0.3258 0.0
C1573 C 0.13026 0.73831 0.3211 0.0
C1574 C 0.14455 0.69824 0.33188 0.0
C1575 C 0.12924 0.64959 0.30721 0.0
C1576 C 0.1327 0.67037 0.31188 0.0
C1577 C 0.14413 0.73115 0.3259 0.0
C1578 C 0.13991 0.71009 0.32106 0.0
H1579 H 0.09093 0.60296 0.29179 0.0
H1580 H 0.09769 0.63829 0.29683 0.0
H1581 H 0.14471 0.66999 0.33605 0.0
H1582 H 0.18006 0.77356 0.34753 0.0
H1583 H 0.17341 0.73956 0.33916 0.0
C1584 C 0.84621 0.02502 0.39104 0.0
C1585 C 0.84189 0.0401 0.39711 0.0
C1586 C 0.8296 0.00483 0.38803 0.0
C1587 C 0.77312 0.96686 0.39672 0.0
H1588 H 0.77552 0.94368 0.35499 0.0
C1589 C 0.70253 0.8896 0.37191 0.0
C1590 C 0.70744 0.8765 0.36288 0.0
C1591 C 0.71861 0.90949 0.37658 0.0
C1592 C 0.77467 0.94969 0.3668 0.0
H1593 H 0.81709 0.04612 0.40516 0.0
H1594 H 0.78782 0.01056 0.4001 0.0
H1595 H 0.80403 0.97793 0.36289 0.0
H1596 H 0.73334 0.87393 0.35209 0.0
H1597 H 0.76127 0.90824 0.3604 0.0
H1598 H 0.74386 0.93846 0.40074 0.0
C1599 C 0.80407 0.01428 0.39774 0.0
C1600 C 0.79106 0.96943 0.37132 0.0
C1601 C 0.82077 0.0346 0.40066 0.0
C1602 C 0.72887 0.88369 0.3588 0.0
C1603 C 0.74494 0.90348 0.36354 0.0
C1604 C 0.75676 0.94698 0.39226 0.0
C1605 C 0.80827 -0.00071 0.39102 0.0
C1606 C 0.79057 0.97825 0.38635 0.0
C1607 C 0.74008 0.91675 0.37244 0.0
C1608 C 0.75733 0.93806 0.37724 0.0
H1609 H 0.86241 0.02901 0.3881 0.0
H1610 H 0.83344 -0.00638 0.38308 0.0
H1611 H 0.77232 0.97314 0.40843 0.0
H1612 H 0.6862 0.8846 0.37526 0.0
H1613 H 0.71413 0.91928 0.38321 0.0
C1614 C 0.96353 0.80822 0.39734 0.0
C1615 C 0.94619 0.78836 0.40027 0.0
C1616 C 0.98353 0.81098 0.39301 0.0
C1617 C 0.00893 0.78205 0.37576 0.0
H1618 H 0.06148 0.83122 0.38869 0.0
C1619 C 0.09239 0.79049 0.36643 0.0
C1620 C 0.10953 0.80986 0.36191 0.0
C1621 C 0.0724 0.78809 0.37015 0.0
C1622 C 0.04697 0.81752 0.38477 0.0
H1623 H 0.93608 0.75575 0.40113 0.0
H1624 H 0.97115 0.76047 0.39409 0.0
H1625 H 0.02737 0.82631 0.39816 0.0
H1626 H 0.11917 0.84208 0.35797 0.0
H1627 H 0.08415 0.83795 0.3644 0.0
H1628 H 0.02864 0.77315 0.36258 0.0
C1629 C 0.96936 0.77401 0.39486 0.0
C1630 C 0.02729 0.81466 0.39024 0.0
C1631 C 0.94929 0.77127 0.39914 0.0
C1632 C 0.10619 0.82687 0.36114 0.0
C1633 C 0.08617 0.82452 0.36501 0.0
C1634 C 0.02861 0.78486 0.37039 0.0
C1635 C 0.98676 0.79391 0.39146 0.0
C1636 C 0.00791 0.79684 0.38585 0.0
C1637 C 0.06902 0.80511 0.36973 0.0
C1638 C 0.04795 0.80261 0.37484 0.0
H1639 H 0.96144 0.82162 0.39784 0.0
H1640 H -0.00376 0.8265 0.39029 0.0
H1641 H -0.00552 0.76835 0.37176 0.0
H1642 H 0.09456 0.77716 0.36734 0.0
H1643 H 0.05976 0.77298 0.37391 0.0
C1644 C 0.2026 0.16152 0.40628 0.0
C1645 C 0.18628 0.14148 0.40228 0.0
C1646 C 0.20014 0.17869 0.40291 0.0
C1647 C 0.15881 0.19281 0.39144 0.0
H1648 H 0.20725 0.24279 0.37474 0.0
C1649 C 0.1494 0.25562 0.35747 0.0
C1650 C 0.16327 0.27634 0.36208 0.0
C1651 C 0.15274 0.23976 0.36314 0.0
C1652 C 0.19361 0.22899 0.37951 0.0
H1653 H 0.15479 0.12339 0.39169 0.0
H1654 H 0.15054 0.15303 0.38554 0.0
H1655 H 0.21202 0.21423 0.38396 0.0
H1656 H 0.1918 0.2966 0.37603 0.0
H1657 H 0.19773 0.26891 0.38573 0.0
H1658 H 0.14031 0.20739 0.38652 0.0
C1659 C 0.16502 0.15578 0.39164 0.0
C1660 C 0.19635 0.21263 0.3849 0.0
C1661 C 0.16746 0.13875 0.3951 0.0
C1662 C 0.18078 0.28083 0.37225 0.0
C1663 C 0.18425 0.26498 0.37776 0.0
C1664 C 0.15604 0.20905 0.3859 0.0
C1665 C 0.18137 0.17606 0.39537 0.0
C1666 C 0.17892 0.19419 0.39077 0.0
C1667 C 0.17015 0.24424 0.37341 0.0
C1668 C 0.17335 0.22726 0.37973 0.0
H1669 H 0.21735 0.16393 0.41171 0.0
H1670 H 0.21299 0.19401 0.40613 0.0
H1671 H 0.14508 0.17912 0.39623 0.0
H1672 H 0.13569 0.25156 0.34973 0.0
H1673 H 0.14171 0.22396 0.35944 0.0
C1674 C 0.60613 0.5031 0.73599 0.0
C1675 C 0.6045 0.48361 0.73764 0.0
C1676 C 0.62455 0.51985 0.72944 0.0
C1677 C 0.67443 0.53258 0.70625 0.0
H1678 H 0.69267 0.58827 0.72147 0.0
C1679 C 0.75967 0.60345 0.69809 0.0
C1680 C 0.761 0.62174 0.69223 0.0
C1681 C 0.73985 0.58624 0.70184 0.0
C1682 C 0.68764 0.57282 0.71698 0.0
H1683 H 0.62107 0.46651 0.7341 0.0
H1684 H 0.65351 0.49577 0.72345 0.0
H1685 H 0.66005 0.55925 0.73215 0.0
H1686 H 0.74292 0.63683 0.68642 0.0
H1687 H 0.70812 0.60673 0.69318 0.0
H1688 H 0.70282 0.54636 0.69167 0.0
C1689 C 0.64037 0.49813 0.72656 0.0
C1690 C 0.66883 0.5561 0.72305 0.0
C1691 C 0.6218 0.48131 0.73282 0.0
C1692 C 0.7422 0.62267 0.69048 0.0
C1693 C 0.72237 0.60554 0.69444 0.0
C1694 C 0.69346 0.54928 0.70043 0.0
C1695 C 0.64203 0.51768 0.72465 0.0
C1696 C 0.66192 0.53566 0.71784 0.0
C1697 C 0.72102 0.5872 0.70029 0.0
C1698 C 0.70028 0.56957 0.70576 0.0
H1699 H 0.59294 0.50526 0.73943 0.0
H1700 H 0.62487 0.53442 0.72793 0.0
H1701 H 0.66955 0.51726 0.70156 0.0
H1702 H 0.77403 0.6027 0.70027 0.0
H1703 H 0.73933 0.57244 0.70657 0.0
C1704 C 0.506 0.13259 0.73096 0.0
C1705 C 0.50262 0.11461 0.73913 0.0
C1706 C 0.48871 0.13465 0.72555 0.0
C1707 C 0.42991 0.11225 0.73167 0.0
H1708 H 0.43354 0.14202 0.69199 0.0
C1709 C 0.35594 0.11153 0.70421 0.0
C1710 C 0.3584 0.13054 0.699 0.0
C1711 C 0.37373 0.10961 0.70809 0.0
C1712 C 0.43233 0.13379 0.70316 0.0
H1713 H 0.47823 0.08443 0.74753 0.0
H1714 H 0.44823 0.08775 0.7379 0.0
H1715 H 0.46393 0.13848 0.70066 0.0
H1716 H 0.38159 0.16267 0.69423 0.0
H1717 H 0.41279 0.15926 0.70065 0.0
H1718 H 0.39825 0.10733 0.73405 0.0
C1719 C 0.4642 0.10062 0.73604 0.0
C1720 C 0.44981 0.13179 0.7082 0.0
C1721 C 0.48147 0.09865 0.74155 0.0
C1722 C 0.37916 0.14766 0.69774 0.0
C1723 C 0.39704 0.14571 0.7015 0.0
C1724 C 0.41243 0.11409 0.72657 0.0
C1725 C 0.46749 0.11871 0.72804 0.0
C1726 C 0.44889 0.12096 0.72254 0.0
C1727 C 0.39454 0.12672 0.70699 0.0
C1728 C 0.41335 0.12485 0.71224 0.0
H1729 H 0.52205 0.14529 0.72901 0.0
H1730 H 0.49204 0.14896 0.7197 0.0
H1731 H 0.42858 0.10422 0.74296 0.0
H1732 H 0.34013 0.09813 0.70547 0.0
H1733 H 0.37117 0.09471 0.71209 0.0
C1734 C 0.8738 0.37015 0.7488 0.0
C1735 C 0.87405 0.38481 0.73782 0.0
C1736 C 0.87074 0.3511 0.74321 0.0
C1737 C 0.8451 0.3123 0.71198 0.0
H1738 H 0.88762 0.29641 0.72064 0.0
C1739 C 0.83666 0.23692 0.68483 0.0
C1740 C 0.84494 0.22632 0.69359 0.0
C1741 C 0.84069 0.25651 0.68986 0.0
C1742 C 0.87533 0.30031 0.71834 0.0
H1743 H 0.87144 0.39057 0.71218 0.0
H1744 H 0.86495 0.35687 0.70269 0.0
H1745 H 0.89329 0.32964 0.73053 0.0
H1746 H 0.86346 0.22792 0.71498 0.0
H1747 H 0.86942 0.26128 0.72425 0.0
H1748 H 0.82655 0.28279 0.70051 0.0
C1749 C 0.86735 0.3604 0.7156 0.0
C1750 C 0.87873 0.31948 0.72393 0.0
C1751 C 0.87091 0.37966 0.72111 0.0
C1752 C 0.85701 0.23566 0.70775 0.0
C1753 C 0.86062 0.25503 0.71301 0.0
C1754 C 0.84143 0.29291 0.70672 0.0
C1755 C 0.86734 0.34601 0.72659 0.0
C1756 C 0.86369 0.32567 0.72074 0.0
C1757 C 0.85263 0.26585 0.70411 0.0
C1758 C 0.85653 0.28661 0.70975 0.0
H1759 H 0.87563 0.37318 0.76177 0.0
H1760 H 0.87059 0.34014 0.75194 0.0
H1761 H 0.83319 0.31669 0.7095 0.0
H1762 H 0.82695 0.23012 0.67408 0.0
H1763 H 0.83449 0.26431 0.68245 0.0
C1764 C 0.1525 0.94784 0.61568 0.0
C1765 C 0.14349 0.93065 0.62616 0.0
C1766 C 0.16862 0.96723 0.62121 0.0
C1767 C 0.19333 -0.00242 0.65913 0.0
H1768 H 0.23937 0.03275 0.63001 0.0
C1769 C 0.25498 0.08278 0.67539 0.0
C1770 C 0.27629 0.0906 0.67057 0.0
C1771 C 0.23893 0.06318 0.6702 0.0
C1772 C 0.22677 0.02308 0.63839 0.0
H1773 H 0.14467 0.92041 0.65065 0.0
H1774 H 0.17289 0.9541 0.66024 0.0
H1775 H 0.21154 -0.00117 0.62068 0.0
H1776 H 0.29734 0.08369 0.65657 0.0
H1777 H 0.26947 0.04946 0.64776 0.0
H1778 H 0.20888 0.02161 0.67699 0.0
C1779 C 0.16721 0.95274 0.64782 0.0
C1780 C 0.21058 0.00368 0.63294 0.0
C1781 C 0.15102 0.93337 0.64232 0.0
C1782 C 0.28112 0.07825 0.66048 0.0
C1783 C 0.26507 0.05861 0.65534 0.0
C1784 C 0.20955 0.01696 0.6646 0.0
C1785 C 0.17626 0.96997 0.63735 0.0
C1786 C 0.1936 -0.00935 0.64321 0.0
C1787 C 0.24371 0.05082 0.66006 0.0
C1788 C 0.2265 0.03002 0.6543 0.0
H1789 H 0.14688 0.94637 0.60323 0.0
H1790 H 0.17487 0.98016 0.61285 0.0
H1791 H 0.18043 -0.01186 0.66736 0.0
H1792 H 0.25058 0.09195 0.68295 0.0
H1793 H 0.22266 0.05792 0.67389 0.0
C1794 C 0.03214 0.18371 0.63492 0.0
C1795 C 0.04742 0.20177 0.62692 0.0
C1796 C 0.01291 0.18183 0.64047 0.0
C1797 C 0.9777 0.2049 0.63499 0.0
H1798 H 0.95089 0.1747 0.6745 0.0
C1799 C 0.90485 0.20574 0.66238 0.0
C1800 C 0.88764 0.18672 0.66745 0.0
C1801 C 0.92462 0.20763 0.65868 0.0
C1802 C 0.95809 0.18306 0.66337 0.0
H1803 H 0.05449 0.23224 0.61896 0.0
H1804 H 0.02134 0.22918 0.62881 0.0
H1805 H 0.98468 0.17802 0.66562 0.0
H1806 H 0.87766 0.15461 0.67236 0.0
H1807 H 0.91236 0.15795 0.66623 0.0
H1808 H 0.95127 0.2101 0.63283 0.0
C1809 C 0.02385 0.21615 0.63045 0.0
C1810 C 0.97749 0.18493 0.65822 0.0
C1811 C 0.04299 0.21796 0.6248 0.0
C1812 C 0.89074 0.16961 0.66892 0.0
C1813 C 0.91064 0.17153 0.66533 0.0
C1814 C 0.95846 0.20316 0.6402 0.0
C1815 C 0.0084 0.198 0.63829 0.0
C1816 C -0.01235 0.19592 0.64394 0.0
C1817 C 0.92773 0.19048 0.65982 0.0
C1818 C 0.94836 0.19226 0.65447 0.0
H1819 H 0.03486 0.17082 0.63662 0.0
H1820 H 0.00141 0.16747 0.64618 0.0
H1821 H 0.98459 0.21305 0.62375 0.0
H1822 H 0.90289 0.21914 0.66098 0.0
H1823 H 0.93745 0.22253 0.65471 0.0
C1824 C 0.77887 0.82416 0.61755 0.0
C1825 C 0.77178 0.83439 0.62804 0.0
C1826 C 0.78097 0.80754 0.62312 0.0
C1827 C 0.78783 0.78419 0.66071 0.0
H1828 H 0.77081 0.7363 0.6329 0.0
C1829 C 0.79165 0.71168 0.68204 0.0
C1830 C 0.79866 0.70255 0.67047 0.0
C1831 C 0.78726 0.72729 0.67742 0.0
C1832 C 0.77585 0.74963 0.64078 0.0
H1833 H 0.76084 0.83466 0.65257 0.0
H1834 H 0.7647 0.8058 0.66229 0.0
H1835 H 0.76526 0.76429 0.62369 0.0
H1836 H 0.80783 0.70345 0.6453 0.0
H1837 H 0.80008 0.73033 0.63718 0.0
H1838 H 0.7987 0.76964 0.67771 0.0
C1839 C 0.76889 0.81084 0.6498 0.0
C1840 C 0.77265 0.76569 0.63548 0.0
C1841 C 0.7667 0.82742 0.64422 0.0
C1842 C 0.80158 0.70956 0.65432 0.0
C1843 C 0.79725 0.7251 0.6497 0.0
C1844 C 0.79111 0.76813 0.66599 0.0
C1845 C 0.7761 0.80072 0.63934 0.0
C1846 C 0.77877 0.78327 0.6453 0.0
C1847 C 0.78991 0.73412 0.66115 0.0
C1848 C 0.78537 0.75074 0.65602 0.0
H1849 H 0.78326 0.82929 0.6051 0.0
H1850 H 0.78687 0.8003 0.61479 0.0
H1851 H 0.79293 0.7976 0.66851 0.0
H1852 H 0.78916 0.7065 0.69456 0.0
H1853 H 0.7815 0.73378 0.68655 0.0
C1854 C 0.03111 0.81066 0.63487 0.0
C1855 C 0.03465 0.83084 0.63317 0.0
C1856 C 0.01075 0.7943 0.63887 0.0
C1857 C 0.96125 0.78482 0.65935 0.0
H1858 H 0.93622 0.73029 0.63965 0.0
C1859 C 0.87281 0.7219 0.66887 0.0
C1860 C 0.86752 0.70107 0.66924 0.0
C1861 C 0.89379 0.73755 0.66576 0.0
C1862 C 0.94309 0.74531 0.64552 0.0
H1863 H 0.01999 0.84995 0.63403 0.0
H1864 H 0.98441 0.82147 0.6408 0.0
H1865 H 0.97124 0.75759 0.6308 0.0
H1866 H 0.8796 0.68003 0.666 0.0
H1867 H 0.91643 0.70728 0.66107 0.0
H1868 H 0.93326 0.77259 0.67416 0.0
C1869 C -0.00276 0.81815 0.63916 0.0
C1870 C 0.96318 0.76101 0.64036 0.0
C1871 C 0.01752 0.83441 0.63508 0.0
C1872 C 0.8835 0.69608 0.66636 0.0
C1873 C 0.9045 0.71169 0.66325 0.0
C1874 C 0.94125 0.7691 0.66459 0.0
C1875 C -0.00633 0.79795 0.64145 0.0
C1876 C 0.97244 0.78103 0.6471 0.0
C1877 C 0.90988 0.73264 0.66258 0.0
C1878 C 0.93177 0.74914 0.65766 0.0
H1879 H 0.04424 0.80766 0.63375 0.0
H1880 H 0.00862 0.77898 0.64063 0.0
H1881 H 0.96808 0.79995 0.66505 0.0
H1882 H 0.86054 0.72602 0.67049 0.0
H1883 H 0.89713 0.75339 0.66509 0.0
C1884 C 0.16793 0.20711 0.6347 0.0
C1885 C 0.1473 0.1898 0.63421 0.0
C1886 C 0.18563 0.20476 0.63825 0.0
C1887 C 0.20293 0.16504 0.64155 0.0
H1888 H 0.24787 0.20679 0.66871 0.0
C1889 C 0.27079 0.15377 0.66886 0.0
C1890 C 0.29155 0.17098 0.66825 0.0
C1891 C 0.25301 0.15591 0.66519 0.0
C1892 C 0.23556 0.19505 0.66101 0.0
H1893 H 0.12883 0.15655 0.63699 0.0
H1894 H 0.15945 0.15234 0.64327 0.0
H1895 H 0.21783 0.21099 0.66058 0.0
H1896 H 0.30996 0.20375 0.66304 0.0
H1897 H 0.27908 0.20757 0.65674 0.0
H1898 H 0.22065 0.14904 0.64214 0.0
C1899 C 0.16228 0.16773 0.64061 0.0
C1900 C 0.2183 0.1975 0.65626 0.0
C1901 C 0.14466 0.1701 0.63702 0.0
C1902 C 0.29412 0.1903 0.66386 0.0
C1903 C 0.27639 0.19248 0.66032 0.0
C1904 C 0.22015 0.16255 0.64637 0.0
C1905 C 0.18305 0.18505 0.64153 0.0
C1906 C 0.20171 0.18257 0.6464 0.0
C1907 C 0.25556 0.17529 0.66076 0.0
C1908 C 0.23677 0.17756 0.65613 0.0
H1909 H 0.17033 0.2225 0.63277 0.0
H1910 H 0.20132 0.21846 0.63857 0.0
H1911 H 0.19073 0.15331 0.63378 0.0
H1912 H 0.26829 0.13858 0.67186 0.0
H1913 H 0.23724 0.14235 0.66581 0.0
C1914 C 0.80851 0.95948 0.64182 0.0
C1915 C 0.78889 0.94434 0.63534 0.0
C1916 C 0.81245 0.97958 0.64466 0.0
C1917 C 0.79525 0.01728 0.63487 0.0
H1918 H 0.81882 0.03962 0.67755 0.0
C1919 C 0.80215 0.09354 0.65931 0.0
C1920 C 0.82007 0.10657 0.66892 0.0
C1921 C 0.79814 0.07381 0.65467 0.0
C1922 C 0.81254 0.03383 0.66548 0.0
H1923 H 0.75811 0.93807 0.62632 0.0
H1924 H 0.76505 0.97351 0.63109 0.0
H1925 H 0.81272 0.00561 0.66972 0.0
H1926 H 0.84818 0.10925 0.6808 0.0
H1927 H 0.84146 0.07519 0.67253 0.0
H1928 H 0.79536 0.04566 0.63054 0.0
C1929 C 0.77745 0.96989 0.6339 0.0
C1930 C 0.80899 0.01426 0.66101 0.0
C1931 C 0.77346 0.94967 0.63116 0.0
C1932 C 0.83402 0.09951 0.67363 0.0
C1933 C 0.83011 0.07988 0.6689 0.0
C1934 C 0.799 0.037 0.63929 0.0
C1935 C 0.79681 0.98493 0.64106 0.0
C1936 C 0.80038 0.00576 0.64564 0.0
C1937 C 0.81205 0.06669 0.65942 0.0
C1938 C 0.80777 0.04558 0.65466 0.0
H1939 H 0.82057 0.95559 0.64522 0.0
H1940 H 0.82763 -0.00914 0.64996 0.0
H1941 H 0.78872 0.0112 0.62291 0.0
H1942 H 0.79105 0.09847 0.65549 0.0
H1943 H 0.78392 0.06404 0.64757 0.0
C1944 C 0.48959 0.36707 0.73657 0.0
C1945 C 0.51051 0.37169 0.73322 0.0
C1946 C 0.4723 0.34717 0.73327 0.0
C1947 C 0.45779 0.30272 0.70606 0.0
H1948 H 0.41034 0.27171 0.73526 0.0
C1949 C 0.3948 0.21768 0.69247 0.0
C1950 C 0.37342 0.21055 0.69664 0.0
C1951 C 0.41099 0.2373 0.69743 0.0
C1952 C 0.4233 0.28026 0.72684 0.0
H1953 H 0.53004 0.35948 0.72418 0.0
H1954 H 0.50005 0.32487 0.71845 0.0
H1955 H 0.43933 0.30593 0.74343 0.0
H1956 H 0.35235 0.21857 0.70938 0.0
H1957 H 0.38051 0.25301 0.7177 0.0
H1958 H 0.44183 0.2775 0.68932 0.0
C1959 C 0.49683 0.33643 0.72354 0.0
C1960 C 0.43995 0.29987 0.73157 0.0
C1961 C 0.514 0.35616 0.72695 0.0
C1962 C 0.36865 0.22354 0.70597 0.0
C1963 C 0.38486 0.24328 0.71083 0.0
C1964 C 0.44111 0.28328 0.70127 0.0
C1965 C 0.47573 0.33176 0.72635 0.0
C1966 C 0.45753 0.31122 0.72131 0.0
C1967 C 0.40629 0.25049 0.70661 0.0
C1968 C 0.4237 0.27161 0.71164 0.0
H1969 H 0.48657 0.37895 0.74124 0.0
H1970 H 0.45624 0.34409 0.73551 0.0
H1971 H 0.47087 0.31122 0.69771 0.0
H1972 H 0.39916 0.20799 0.68554 0.0
H1973 H 0.42728 0.24199 0.69422 0.0
C1974 C 0.63151 0.1452 0.72763 0.0
C1975 C 0.6142 0.12541 0.7308 0.0
C1976 C 0.6516 0.1479 0.72371 0.0
C1977 C 0.67714 0.11857 0.70777 0.0
H1978 H 0.7296 0.16782 0.72074 0.0
C1979 C 0.76045 0.12645 0.69962 0.0
C1980 C 0.77769 0.14573 0.69505 0.0
C1981 C 0.74048 0.12421 0.70312 0.0
C1982 C 0.71511 0.15409 0.71681 0.0
H1983 H 0.60418 0.09288 0.73256 0.0
H1984 H 0.63937 0.09749 0.72619 0.0
H1985 H 0.69538 0.16323 0.72962 0.0
H1986 H 0.78757 0.17796 0.69086 0.0
H1987 H 0.75258 0.17409 0.69685 0.0
H1988 H 0.69694 0.10936 0.69512 0.0
C1989 C 0.63751 0.11101 0.72647 0.0
C1990 C 0.69539 0.15141 0.72194 0.0
C1991 C 0.61738 0.10835 0.73035 0.0
C1992 C 0.7745 0.16282 0.69406 0.0
C1993 C 0.75449 0.16062 0.69768 0.0
C1994 C 0.69685 0.12121 0.70271 0.0
C1995 C 0.65488 0.13081 0.7228 0.0
C1996 C 0.67605 0.13358 0.71754 0.0
C1997 C 0.73723 0.1413 0.70242 0.0
C1998 C 0.71615 0.13897 0.7072 0.0
H1999 H 0.62934 0.15857 0.72761 0.0
H2000 H 0.66432 0.16333 0.72077 0.0
H2001 H 0.6627 0.10485 0.70377 0.0
H2002 H 0.76252 0.11308 0.7007 0.0
H2003 H 0.72774 0.10917 0.70691 0.0
C2004 C 0.86071 0.49299 0.74032 0.0
C2005 C 0.86692 0.48314 0.72886 0.0
C2006 C 0.85923 0.51038 0.73587 0.0
C2007 C 0.87319 0.55009 0.70315 0.0
H2008 H 0.8241 0.55163 0.7201 0.0
C2009 C 0.84301 0.6048 0.67865 0.0
C2010 C 0.83743 0.61465 0.6907 0.0
C2011 C 0.84803 0.58947 0.68293 0.0
C2012 C 0.83798 0.55152 0.71533 0.0
H2013 H 0.87685 0.48358 0.70399 0.0
H2014 H 0.87412 0.51375 0.69607 0.0
H2015 H 0.83103 0.52439 0.72883 0.0
H2016 H 0.83312 0.61616 0.7168 0.0
H2017 H 0.84167 0.58971 0.72405 0.0
H2018 H 0.87977 0.57715 0.68941 0.0
C2019 C 0.87076 0.5085 0.70857 0.0
C2020 C 0.84206 0.53596 0.72043 0.0
C2021 C 0.87231 0.4912 0.71307 0.0
C2022 C 0.83728 0.60899 0.70709 0.0
C2023 C 0.84207 0.59367 0.71131 0.0
C2024 C 0.869 0.56563 0.69795 0.0
C2025 C 0.86371 0.51806 0.7198 0.0
C2026 C 0.85979 0.53506 0.71451 0.0
C2027 C 0.84729 0.58355 0.69931 0.0
C2028 C 0.85142 0.5666 0.70409 0.0
H2029 H 0.85629 0.48686 0.75254 0.0
H2030 H 0.85413 0.51753 0.74494 0.0
H2031 H 0.8871 0.55004 0.69842 0.0
H2032 H 0.84329 0.60875 0.66592 0.0
H2033 H 0.85194 0.58188 0.6734 0.0
C2034 C 0.4554 0.89982 0.24616 0.0
C2035 C 0.43378 0.88607 0.24972 0.0
C2036 C 0.46149 0.90907 0.23071 0.0
C2037 C 0.43949 0.92333 0.19548 0.0
H2038 H 0.49024 0.932 0.17289 0.0
C2039 C 0.4754 0.97974 0.14126 0.0
C2040 C 0.483 0.97365 0.12781 0.0
C2041 C 0.46879 0.96778 0.15544 0.0
C2042 C 0.47592 0.92956 0.17898 0.0
H2043 H 0.40188 0.87027 0.23927 0.0
H2044 H 0.41243 0.88648 0.21266 0.0
H2045 H 0.48046 0.91344 0.1989 0.0
H2046 H 0.48934 0.94999 0.11873 0.0
H2047 H 0.47784 0.92903 0.14365 0.0
H2048 H 0.43497 0.93952 0.17572 0.0
C2049 C 0.42466 0.8905 0.22187 0.0
C2050 C 0.47044 0.9191 0.19398 0.0
C2051 C 0.4186 0.88121 0.2372 0.0
C2052 C 0.48345 0.95503 0.12883 0.0
C2053 C 0.47707 0.94316 0.14316 0.0
C2054 C 0.44507 0.93394 0.18063 0.0
C2055 C 0.44612 0.90485 0.21847 0.0
C2056 C 0.45213 0.91584 0.20243 0.0
C2057 C 0.46975 0.94945 0.15669 0.0
C2058 C 0.4634 0.93728 0.17218 0.0
H2059 H 0.46753 0.90401 0.25547 0.0
H2060 H 0.47817 0.9201 0.22856 0.0
H2061 H 0.4254 0.92132 0.20169 0.0
H2062 H 0.47475 -0.00607 0.14085 0.0
H2063 H 0.46341 0.97322 0.16562 0.0
C2064 C 0.07294 0.54175 0.24644 0.0
C2065 C 0.0884 0.53581 0.24869 0.0
C2066 C 0.06329 0.53965 0.23119 0.0
C2067 C 0.06835 0.53102 0.18698 0.0
H2068 H 0.00744 0.51054 0.1865 0.0
C2069 C 0.01558 0.49859 0.1288 0.0
C2070 C -0.00063 0.50353 0.12645 0.0
C2071 C 0.02755 0.50411 0.14328 0.0
C2072 C 0.0245 0.51651 0.18639 0.0
H2073 H 0.10649 0.52387 0.23636 0.0
H2074 H 0.08928 0.51964 0.20998 0.0
H2075 H 0.0263 0.51755 0.21242 0.0
H2076 H 0.98382 0.51906 0.13729 0.0
H2077 H 0.00449 0.52847 0.1625 0.0
H2078 H 0.06635 0.52955 0.16088 0.0
C2079 C 0.0847 0.52612 0.21994 0.0
C2080 C 0.03536 0.52059 0.20129 0.0
C2081 C 0.0944 0.5283 0.23516 0.0
C2082 C -0.00417 0.51458 0.13879 0.0
C2083 C 0.00771 0.52001 0.15326 0.0
C2084 C 0.05744 0.52683 0.17206 0.0
C2085 C 0.06878 0.53149 0.21778 0.0
C2086 C 0.05743 0.52786 0.20181 0.0
C2087 C 0.02356 0.51465 0.15578 0.0
C2088 C 0.03537 0.51949 0.17159 0.0
H2089 H 0.06778 0.54746 0.25657 0.0
H2090 H 0.05136 0.54428 0.22995 0.0
H2091 H 0.08538 0.53689 0.18686 0.0
H2092 H 0.01861 0.48991 0.11966 0.0
H2093 H 0.03949 0.49956 0.14488 0.0
C2094 C 0.46743 0.54418 0.2471 0.0
C2095 C 0.44715 0.54143 0.25055 0.0
C2096 C 0.47204 0.53944 0.23173 0.0
C2097 C 0.44952 0.51034 0.19364 0.0
H2098 H 0.5032 0.55282 0.17566 0.0
C2099 C 0.47841 0.50402 0.12861 0.0
C2100 C 0.50024 0.51047 0.12715 0.0
C2101 C 0.47044 0.50781 0.14299 0.0
C2102 C 0.48826 0.54066 0.18052 0.0
H2103 H 0.4154 0.5303 0.24072 0.0
H2104 H 0.42344 0.52164 0.21372 0.0
H2105 H 0.49174 0.55819 0.20212 0.0
H2106 H 0.53082 0.52657 0.13962 0.0
H2107 H 0.51699 0.53264 0.1646 0.0
H2108 H 0.44633 0.49259 0.17212 0.0
C2109 C 0.43579 0.52769 0.223 0.0
C2110 C 0.48166 0.54378 0.19571 0.0
C2111 C 0.43117 0.53259 0.23847 0.0
C2112 C 0.51388 0.5211 0.14033 0.0
C2113 C 0.50595 0.52484 0.15464 0.0
C2114 C 0.45623 0.50712 0.17841 0.0
C2115 C 0.45648 0.53163 0.21935 0.0
C2116 C 0.46241 0.52854 0.20261 0.0
C2117 C 0.48412 0.51823 0.15624 0.0
C2118 C 0.4759 0.52211 0.17178 0.0
H2119 H 0.47998 0.55045 0.25623 0.0
H2120 H 0.48798 0.54215 0.22947 0.0
H2121 H 0.43463 0.49829 0.19864 0.0
H2122 H 0.4674 0.49567 0.11876 0.0
H2123 H 0.45357 0.50265 0.14369 0.0
C2124 C 0.92492 0.44243 0.78129 0.0
C2125 C 0.90625 0.44338 0.77838 0.0
C2126 C 0.93486 0.44753 0.79656 0.0
C2127 C 0.94031 0.47442 0.83546 0.0
H2128 H 0.95271 0.43313 0.85262 0.0
C2129 C 0.97247 0.47904 0.90145 0.0
C2130 C -0.01194 0.4732 0.90354 0.0
C2131 C 0.96159 0.47561 0.88655 0.0
C2132 C 0.94966 0.445 0.84799 0.0
H2133 H 0.88423 0.45172 0.78907 0.0
H2134 H 0.90196 0.46108 0.81576 0.0
H2135 H 0.93674 0.42834 0.82571 0.0
H2136 H 0.00383 0.45855 0.8916 0.0
H2137 H 0.98565 0.45334 0.8657 0.0
H2138 H 0.95371 0.49133 0.85763 0.0
C2139 C 0.90872 0.45619 0.80617 0.0
C2140 C 0.94043 0.4422 0.83254 0.0
C2141 C 0.89863 0.45091 0.79086 0.0
C2142 C -0.00778 0.46359 0.89043 0.0
C2143 C 0.98149 0.4603 0.87557 0.0
C2144 C 0.94981 0.47736 0.85091 0.0
C2145 C 0.92656 0.45392 0.80932 0.0
C2146 C 0.93585 0.45696 0.826 0.0
C2147 C 0.96603 0.46625 0.87337 0.0
C2148 C 0.95483 0.46277 0.85732 0.0
H2149 H 0.93153 0.43716 0.77186 0.0
H2150 H 0.94886 0.44607 0.7985 0.0
H2151 H 0.93699 0.48607 0.83073 0.0
H2152 H 0.96894 0.48663 0.91121 0.0
H2153 H 0.94963 0.4802 0.88541 0.0
C2154 C 0.5405 0.43557 0.79232 0.0
C2155 C 0.54798 0.45162 0.78078 0.0
C2156 C 0.53352 0.43793 0.80768 0.0
C2157 C 0.53835 0.47856 0.8365 0.0
H2158 H 0.48874 0.43335 0.85697 0.0
C2159 C 0.51293 0.48581 0.90196 0.0
C2160 C 0.49101 0.47823 0.90432 0.0
C2161 C 0.52027 0.4814 0.88755 0.0
C2162 C 0.5026 0.44617 0.85141 0.0
H2163 H 0.55301 0.48239 0.77619 0.0
H2164 H 0.54087 0.48647 0.80283 0.0
H2165 H 0.50015 0.42813 0.83029 0.0
H2166 H 0.4596 0.45925 0.8936 0.0
H2167 H 0.47236 0.45183 0.86851 0.0
H2168 H 0.54053 0.49676 0.85739 0.0
C2169 C 0.54085 0.47222 0.80019 0.0
C2170 C 0.50927 0.44311 0.83616 0.0
C2171 C 0.54779 0.46986 0.78487 0.0
C2172 C 0.47661 0.46559 0.89212 0.0
C2173 C 0.48392 0.46113 0.87778 0.0
C2174 C 0.53173 0.4816 0.85175 0.0
C2175 C 0.53385 0.4564 0.81189 0.0
C2176 C 0.52711 0.45933 0.82841 0.0
C2177 C 0.50587 0.46919 0.87517 0.0
C2178 C 0.51364 0.46551 0.85936 0.0
H2179 H 0.54064 0.4214 0.78968 0.0
H2180 H 0.5284 0.42547 0.81641 0.0
H2181 H 0.55235 0.49133 0.83103 0.0
H2182 H 0.52447 0.49567 0.91105 0.0
H2183 H 0.53727 0.48767 0.88607 0.0
C2184 C 0.54053 0.07648 0.78509 0.0
C2185 C 0.53624 0.09273 0.78277 0.0
C2186 C 0.53701 0.06665 0.80028 0.0
C2187 C 0.5292 0.07239 0.84442 0.0
H2188 H 0.49829 0.01236 0.84415 0.0
C2189 C 0.49136 0.02392 0.90309 0.0
C2190 C 0.48986 0.00444 0.90444 0.0
C2191 C 0.49894 0.03556 0.88872 0.0
C2192 C 0.50728 0.02912 0.84456 0.0
H2193 H 0.52586 0.11201 0.79486 0.0
H2194 H 0.51985 0.09501 0.82127 0.0
H2195 H 0.50869 0.03106 0.8185 0.0
H2196 H 0.49632 0.9825 0.89207 0.0
H2197 H 0.51007 0.00288 0.86736 0.0
H2198 H 0.52789 0.07049 0.87048 0.0
C2199 C 0.52586 0.08976 0.81138 0.0
C2200 C 0.51322 0.03987 0.82976 0.0
C2201 C 0.52915 0.09942 0.79618 0.0
C2202 C 0.49694 -0.00271 0.89134 0.0
C2203 C 0.50471 0.00898 0.87709 0.0
C2204 C 0.52342 0.06163 0.85926 0.0
C2205 C 0.52936 0.07299 0.81358 0.0
C2206 C 0.52413 0.06165 0.82945 0.0
C2207 C 0.50543 0.02812 0.87537 0.0
C2208 C 0.51224 0.0398 0.85958 0.0
H2209 H 0.5459 0.07089 0.77501 0.0
H2210 H 0.5401 0.05393 0.80157 0.0
H2211 H 0.53779 0.08916 0.84467 0.0
H2212 H 0.48589 0.0298 0.91291 0.0
H2213 H 0.499 0.05008 0.88791 0.0
C2214 C 0.1249 0.23739 0.58033 0.0
C2215 C 0.10314 0.22329 0.58303 0.0
C2216 C 0.13199 0.24688 0.56509 0.0
C2217 C 0.11586 0.24311 0.52124 0.0
H2218 H 0.1587 0.3014 0.52073 0.0
C2219 C 0.13629 0.29432 0.46296 0.0
C2220 C 0.1577 0.30982 0.46069 0.0
C2221 C 0.1299 0.28265 0.47738 0.0
C2222 C 0.14693 0.28505 0.52058 0.0
H2223 H 0.07197 0.20751 0.5714 0.0
H2224 H 0.08418 0.22429 0.5451 0.0
H2225 H 0.14751 0.28324 0.54659 0.0
H2226 H 0.18933 0.32423 0.47152 0.0
H2227 H 0.17829 0.30397 0.49644 0.0
H2228 H 0.11516 0.24505 0.49517 0.0
C2229 C 0.09587 0.22799 0.5547 0.0
C2230 C 0.1405 0.27458 0.53548 0.0
C2231 C 0.0888 0.21853 0.56991 0.0
C2232 C 0.17263 0.31277 0.47296 0.0
C2233 C 0.16627 0.30115 0.48732 0.0
C2234 C 0.12228 0.2536 0.50631 0.0
C2235 C 0.11753 0.24251 0.55209 0.0
C2236 C 0.12484 0.25346 0.53606 0.0
C2237 C 0.14476 0.28615 0.4899 0.0
C2238 C 0.13791 0.27474 0.50576 0.0
H2239 H 0.13642 0.24154 0.59012 0.0
H2240 H 0.14884 0.25773 0.56353 0.0
H2241 H 0.10398 0.22679 0.52112 0.0
H2242 H 0.12433 0.29171 0.45385 0.0
H2243 H 0.11317 0.27135 0.47894 0.0
C2244 C 0.73823 0.8766 0.58143 0.0
C2245 C 0.75268 0.86949 0.58419 0.0
C2246 C 0.72881 0.87442 0.56607 0.0
C2247 C 0.73307 0.86321 0.52232 0.0
H2248 H 0.67259 0.84468 0.52155 0.0
C2249 C 0.68556 0.85125 0.46207 0.0
C2250 C 0.66467 0.83423 0.46136 0.0
C2251 C 0.69714 0.85673 0.47674 0.0
C2252 C 0.68946 0.84971 0.52152 0.0
H2253 H 0.76933 0.85549 0.57265 0.0
H2254 H 0.75258 0.85126 0.54607 0.0
H2255 H 0.69149 0.85259 0.54749 0.0
H2256 H 0.63996 0.80911 0.47539 0.0
H2257 H 0.66012 0.81848 0.50082 0.0
H2258 H 0.73082 0.85963 0.49635 0.0
C2259 C 0.74859 0.85865 0.55571 0.0
C2260 C 0.70039 0.85456 0.53642 0.0
C2261 C 0.75802 0.86085 0.57104 0.0
C2262 C 0.65584 0.82255 0.47557 0.0
C2263 C 0.66741 0.82798 0.49018 0.0
C2264 C 0.72211 0.85833 0.5074 0.0
C2265 C 0.7336 0.8651 0.55307 0.0
C2266 C 0.72231 0.8612 0.53705 0.0
C2267 C 0.68813 0.84528 0.49103 0.0
C2268 C 0.7001 0.8513 0.50682 0.0
H2269 H 0.73366 0.88324 0.59128 0.0
H2270 H 0.71758 0.87986 0.56443 0.0
H2271 H 0.75 0.86851 0.5223 0.0
H2272 H 0.69275 0.86069 0.45139 0.0
H2273 H 0.71297 0.87026 0.47695 0.0
C2274 C 0.09937 0.86535 0.57178 0.0
C2275 C 0.11573 0.87484 0.58352 0.0
C2276 C 0.10369 0.8604 0.55624 0.0
C2277 C 0.14885 0.87687 0.52803 0.0
H2278 H 0.11369 0.82483 0.50544 0.0
C2279 C 0.1804 0.85333 0.47276 0.0
C2280 C 0.16654 0.84234 0.45978 0.0
C2281 C 0.17268 0.8573 0.48708 0.0
C2282 C 0.12352 0.83958 0.51146 0.0
H2283 H 0.149 0.88499 0.58851 0.0
H2284 H 0.15647 0.87656 0.56162 0.0
H2285 H 0.10251 0.83092 0.53206 0.0
H2286 H 0.13354 0.82712 0.45174 0.0
H2287 H 0.12005 0.83444 0.47673 0.0
H2288 H 0.16983 0.8857 0.50764 0.0
C2289 C 0.14045 0.87341 0.5642 0.0
C2290 C 0.11712 0.84303 0.52674 0.0
C2291 C 0.13615 0.87823 0.57964 0.0
C2292 C 0.1447 0.83575 0.46144 0.0
C2293 C 0.13693 0.83973 0.47584 0.0
C2294 C 0.15515 0.8735 0.51281 0.0
C2295 C 0.12446 0.8649 0.55216 0.0
C2296 C 0.12998 0.86156 0.53535 0.0
C2297 C 0.15083 0.85053 0.48889 0.0
C2298 C 0.14286 0.85465 0.50444 0.0
H2299 H 0.08348 0.86254 0.57438 0.0
H2300 H 0.091 0.85379 0.54723 0.0
H2301 H 0.15888 0.89152 0.53416 0.0
H2302 H 0.19735 0.85891 0.47187 0.0
H2303 H 0.18388 0.8654 0.49688 0.0
C2304 C 0.5852 0.77263 0.118 0.0
C2305 C 0.56554 0.77207 0.11648 0.0
C2306 C 0.59651 0.77834 0.13273 0.0
C2307 C 0.60338 0.80464 0.17218 0.0
H2308 H 0.62055 0.76588 0.18728 0.0
C2309 C 0.63911 0.81051 0.23691 0.0
C2310 C 0.65545 0.80559 0.23848 0.0
C2311 C 0.62775 0.80683 0.22223 0.0
C2312 C 0.61622 0.77709 0.18321 0.0
H2313 H 0.54307 0.7783 0.12911 0.0
H2314 H 0.56317 0.78878 0.15475 0.0
H2315 H 0.60278 0.76031 0.16104 0.0
H2316 H 0.67214 0.79242 0.22575 0.0
H2317 H 0.65319 0.78693 0.20019 0.0
H2318 H 0.61723 0.8217 0.1942 0.0
C2319 C 0.56968 0.78461 0.14451 0.0
C2320 C 0.60594 0.77384 0.16814 0.0
C2321 C 0.55822 0.7787 0.12978 0.0
C2322 C 0.65995 0.79676 0.225 0.0
C2323 C 0.64878 0.79327 0.21033 0.0
C2324 C 0.61393 0.80807 0.18722 0.0
C2325 C 0.58862 0.78388 0.14628 0.0
C2326 C 0.5995 0.78761 0.16239 0.0
C2327 C 0.63248 0.79822 0.2087 0.0
C2328 C 0.62062 0.79439 0.19291 0.0
H2329 H 0.59161 0.76811 0.10791 0.0
H2330 H 0.61129 0.77804 0.13361 0.0
H2331 H 0.59865 0.81556 0.16804 0.0
H2332 H 0.63528 0.81752 0.24693 0.0
H2333 H 0.61515 0.81062 0.22156 0.0
C2334 C 0.23071 0.79128 0.12811 0.0
C2335 C 0.21662 0.78174 0.11491 0.0
C2336 C 0.22315 0.79331 0.14329 0.0
C2337 C 0.17719 0.79422 0.16217 0.0
H2338 H 0.20235 0.7896 0.20262 0.0
C2339 C 0.14298 0.79854 0.22446 0.0
C2340 C 0.15757 0.81042 0.23683 0.0
C2341 C 0.14993 0.79368 0.21011 0.0
C2342 C 0.19527 0.79113 0.19144 0.0
H2343 H 0.18334 0.76647 0.10757 0.0
H2344 H 0.17011 0.76959 0.13411 0.0
H2345 H 0.21458 0.78325 0.1767 0.0
H2346 H 0.19095 0.82601 0.24386 0.0
H2347 H 0.20312 0.81751 0.21878 0.0
H2348 H 0.15798 0.80221 0.17684 0.0
C2349 C 0.1871 0.77582 0.13264 0.0
C2350 C 0.20229 0.78748 0.17655 0.0
C2351 C 0.19467 0.77379 0.11745 0.0
C2352 C 0.17925 0.81671 0.23466 0.0
C2353 C 0.18622 0.81183 0.22026 0.0
C2354 C 0.17016 0.79783 0.17703 0.0
C2355 C 0.20127 0.78583 0.14573 0.0
C2356 C 0.19338 0.78903 0.16169 0.0
C2357 C 0.17168 0.80052 0.20768 0.0
C2358 C 0.17912 0.79637 0.19188 0.0
H2359 H 0.24768 0.79732 0.12671 0.0
H2360 H 0.23459 0.80124 0.15299 0.0
H2361 H 0.17022 0.79598 0.15101 0.0
H2362 H 0.1261 0.79303 0.22584 0.0
H2363 H 0.13819 0.78454 0.20089 0.0
C2364 C 0.20556 0.41088 0.11988 0.0
C2365 C 0.20156 0.42714 0.11659 0.0
C2366 C 0.20135 0.40163 0.13537 0.0
C2367 C 0.16792 0.39455 0.17176 0.0
H2368 H 0.20085 0.37234 0.19165 0.0
C2369 C 0.13516 0.33718 0.22544 0.0
C2370 C 0.14915 0.3386 0.23798 0.0
C2371 C 0.14284 0.3492 0.21135 0.0
C2372 C 0.19158 0.37863 0.18636 0.0
H2373 H 0.19148 0.44739 0.12736 0.0
H2374 H 0.18454 0.43164 0.15424 0.0
H2375 H 0.21281 0.39145 0.16603 0.0
H2376 H 0.18235 0.35415 0.24548 0.0
H2377 H 0.19581 0.37541 0.22089 0.0
H2378 H 0.1468 0.38198 0.19204 0.0
C2379 C 0.19026 0.4255 0.14481 0.0
C2380 C 0.19832 0.38939 0.17154 0.0
C2381 C 0.19435 0.43462 0.12938 0.0
C2382 C 0.17109 0.35273 0.23613 0.0
C2383 C 0.17883 0.36474 0.22194 0.0
C2384 C 0.16119 0.3838 0.1865 0.0
C2385 C 0.19314 0.4085 0.14795 0.0
C2386 C 0.18653 0.39746 0.16398 0.0
C2387 C 0.16479 0.36308 0.2093 0.0
C2388 C 0.17279 0.37551 0.19397 0.0
H2389 H 0.211 0.40468 0.11029 0.0
H2390 H 0.20369 0.38853 0.13725 0.0
H2391 H 0.15819 0.40022 0.16629 0.0
H2392 H 0.11814 0.32668 0.22647 0.0
H2393 H 0.13152 0.34726 0.20188 0.0
C2394 C 0.78956 0.56992 0.91306 0.0
C2395 C 0.76793 0.5555 0.91593 0.0
C2396 C 0.79626 0.57939 0.89777 0.0
C2397 C 0.77952 0.5751 0.85404 0.0
H2398 H 0.82073 0.63387 0.85344 0.0
C2399 C 0.79759 0.62594 0.79573 0.0
C2400 C 0.81867 0.64217 0.79346 0.0
C2401 C 0.79174 0.61423 0.81015 0.0
C2402 C 0.80943 0.61739 0.8533 0.0
H2403 H 0.73663 0.53906 0.90456 0.0
H2404 H 0.7482 0.55572 0.87814 0.0
H2405 H 0.8104 0.61564 0.8793 0.0
H2406 H 0.85035 0.65784 0.80423 0.0
H2407 H 0.84027 0.63747 0.82909 0.0
H2408 H 0.77844 0.57696 0.828 0.0
C2409 C 0.76006 0.55973 0.88765 0.0
C2410 C 0.8035 0.60689 0.86821 0.0
C2411 C 0.75336 0.55033 0.90292 0.0
C2412 C 0.83386 0.6458 0.80568 0.0
C2413 C 0.82805 0.63411 0.82001 0.0
C2414 C 0.78547 0.58562 0.8391 0.0
C2415 C 0.78156 0.57462 0.88489 0.0
C2416 C 0.78841 0.58559 0.86884 0.0
C2417 C 0.80683 0.6184 0.82263 0.0
C2418 C 0.8005 0.60694 0.8385 0.0
H2419 H 0.80123 0.57438 0.92277 0.0
H2420 H 0.81301 0.59053 0.89608 0.0
H2421 H 0.76807 0.55866 0.85397 0.0
H2422 H 0.78544 0.62279 0.78664 0.0
H2423 H 0.77521 0.60237 0.81172 0.0
C2424 C 0.40807 0.21086 0.91403 0.0
C2425 C 0.42247 0.20361 0.91635 0.0
C2426 C 0.39821 0.20877 0.89886 0.0
C2427 C 0.40181 0.19833 0.85487 0.0
H2428 H 0.34143 0.18027 0.85451 0.0
C2429 C 0.34873 0.16578 0.79702 0.0
C2430 C 0.33285 0.1711 0.79442 0.0
C2431 C 0.36067 0.17141 0.81151 0.0
C2432 C 0.35836 0.18558 0.85436 0.0
H2433 H 0.43845 0.18929 0.90426 0.0
H2434 H 0.42099 0.18525 0.87803 0.0
H2435 H 0.36048 0.18745 0.88038 0.0
H2436 H 0.31779 0.18734 0.80482 0.0
H2437 H 0.3385 0.19704 0.83003 0.0
H2438 H 0.39956 0.19613 0.82881 0.0
C2439 C 0.41737 0.19268 0.88786 0.0
C2440 C 0.36931 0.18974 0.86923 0.0
C2441 C 0.4272 0.19477 0.903 0.0
C2442 C 0.32957 0.1826 0.80653 0.0
C2443 C 0.34146 0.18818 0.821 0.0
C2444 C 0.39084 0.19412 0.83999 0.0
C2445 C 0.40254 0.19943 0.88562 0.0
C2446 C 0.39116 0.19604 0.8697 0.0
C2447 C 0.35702 0.18247 0.82377 0.0
C2448 C 0.36894 0.18757 0.83955 0.0
H2449 H 0.40397 0.21766 0.92406 0.0
H2450 H 0.38709 0.2144 0.89754 0.0
H2451 H 0.4187 0.20347 0.85473 0.0
H2452 H 0.35153 0.15674 0.78806 0.0
H2453 H 0.37235 0.16655 0.81329 0.0
C2454 C 0.80018 0.21046 0.91296 0.0
C2455 C 0.77989 0.20772 0.91636 0.0
C2456 C 0.80483 0.20571 0.89761 0.0
C2457 C 0.78244 0.17671 0.85945 0.0
H2458 H 0.83628 0.21916 0.84166 0.0
C2459 C 0.81166 0.17063 0.79446 0.0
C2460 C 0.83348 0.177 0.79309 0.0
C2461 C 0.80362 0.17436 0.80884 0.0
C2462 C 0.82129 0.20701 0.84646 0.0
H2463 H 0.74817 0.1966 0.90647 0.0
H2464 H 0.75629 0.18796 0.87949 0.0
H2465 H 0.8247 0.22448 0.86808 0.0
H2466 H 0.86398 0.19291 0.80569 0.0
H2467 H 0.85003 0.19889 0.83065 0.0
H2468 H 0.77931 0.15903 0.83789 0.0
C2469 C 0.76861 0.19399 0.8888 0.0
C2470 C 0.81463 0.2101 0.86163 0.0
C2471 C 0.76394 0.19888 0.90425 0.0
C2472 C 0.84705 0.1875 0.80633 0.0
C2473 C 0.83905 0.19119 0.82064 0.0
C2474 C 0.78921 0.17353 0.84423 0.0
C2475 C 0.78932 0.19793 0.88519 0.0
C2476 C 0.79532 0.19487 0.86847 0.0
C2477 C 0.81722 0.18466 0.82215 0.0
C2478 C 0.80894 0.1885 0.83767 0.0
H2479 H 0.81269 0.21675 0.92212 0.0
H2480 H 0.82077 0.20842 0.89539 0.0
H2481 H 0.7675 0.16467 0.86439 0.0
H2482 H 0.8007 0.16238 0.78456 0.0
H2483 H 0.78676 0.16926 0.80948 0.0
C2484 C 0.22579 0.11259 0.46068 0.0
C2485 C 0.23355 0.10533 0.4481 0.0
C2486 C 0.23613 0.11817 0.4759 0.0
C2487 C 0.2694 0.10568 0.50188 0.0
H2488 H 0.28231 0.15497 0.5266 0.0
C2489 C 0.32352 0.12948 0.55858 0.0
C2490 C 0.31949 0.13908 0.57178 0.0
C2491 C 0.31216 0.12561 0.54397 0.0
C2492 C 0.27852 0.14095 0.51999 0.0
H2493 H 0.25929 0.09991 0.4413 0.0
H2494 H 0.27702 0.1093 0.46776 0.0
H2495 H 0.26456 0.14878 0.50004 0.0
H2496 H 0.29998 0.1519 0.57985 0.0
H2497 H 0.2796 0.14448 0.55449 0.0
H2498 H 0.28286 0.0975 0.52172 0.0
C2499 C 0.26273 0.11031 0.46599 0.0
C2500 C 0.26843 0.13748 0.50473 0.0
C2501 C 0.25255 0.10493 0.45082 0.0
C2502 C 0.30343 0.14434 0.57002 0.0
C2503 C 0.29192 0.14033 0.55537 0.0
C2504 C 0.27924 0.10901 0.51713 0.0
C2505 C 0.25435 0.11647 0.47884 0.0
C2506 C 0.2641 0.11997 0.49539 0.0
C2507 C 0.29619 0.13097 0.5421 0.0
C2508 C 0.28431 0.12687 0.52631 0.0
H2509 H 0.21115 0.11301 0.45903 0.0
H2510 H 0.22932 0.12288 0.48557 0.0
H2511 H 0.26584 0.09179 0.49514 0.0
H2512 H 0.3355 0.12488 0.55951 0.0
H2513 H 0.3162 0.11867 0.53402 0.0
C2514 C 0.86142 0.10855 0.45065 0.0
C2515 C 0.88328 0.11606 0.44802 0.0
C2516 C 0.85408 0.11065 0.46591 0.0
C2517 C 0.86952 0.12197 0.50981 0.0
H2518 H 0.82603 0.13779 0.51021 0.0
C2519 C 0.84716 0.15178 0.56798 0.0
C2520 C 0.82553 0.14571 0.57012 0.0
C2521 C 0.85404 0.14678 0.55359 0.0
C2522 C 0.83799 0.13311 0.51037 0.0
H2523 H 0.91439 0.13092 0.45974 0.0
H2524 H 0.9017 0.13501 0.48616 0.0
H2525 H 0.83802 0.13137 0.48435 0.0
H2526 H 0.79404 0.12857 0.55913 0.0
H2527 H 0.80597 0.1199 0.53419 0.0
H2528 H 0.86962 0.12402 0.53589 0.0
C2529 C 0.89016 0.12734 0.47646 0.0
C2530 C 0.84486 0.12939 0.49549 0.0
C2531 C 0.89749 0.12521 0.46122 0.0
C2532 C 0.81089 0.13392 0.55776 0.0
C2533 C 0.81774 0.12895 0.54343 0.0
C2534 C 0.86266 0.12575 0.52472 0.0
C2535 C 0.86838 0.12034 0.47898 0.0
C2536 C 0.86073 0.12377 0.49497 0.0
C2537 C 0.83945 0.13558 0.541 0.0
C2538 C 0.84678 0.13137 0.5252 0.0
H2539 H 0.85 0.10155 0.44078 0.0
H2540 H 0.83715 0.10477 0.46743 0.0
H2541 H 0.88157 0.11743 0.50993 0.0
H2542 H 0.8589 0.161 0.57717 0.0
H2543 H 0.8709 0.15228 0.55211 0.0
C2544 C 0.84352 0.73001 0.4529 0.0
C2545 C 0.86358 0.74722 0.44927 0.0
C2546 C 0.83994 0.71939 0.46764 0.0
C2547 C 0.86152 0.72455 0.50993 0.0
H2548 H 0.82071 0.66566 0.51092 0.0
C2549 C 0.84166 0.672 0.5682 0.0
C2550 C 0.81983 0.6578 0.57072 0.0
C2551 C 0.84861 0.68377 0.5538 0.0
C2552 C 0.83206 0.68214 0.5109 0.0
H2553 H 0.89583 0.7663 0.45846 0.0
H2554 H 0.88978 0.74735 0.48405 0.0
H2555 H 0.83031 0.68372 0.48499 0.0
H2556 H 0.7882 0.64617 0.56031 0.0
H2557 H 0.80031 0.66611 0.53534 0.0
H2558 H 0.86333 0.72265 0.536 0.0
C2559 C 0.87662 0.74235 0.47555 0.0
C2560 C 0.83755 0.69258 0.49598 0.0
C2561 C 0.88018 0.75309 0.46074 0.0
C2562 C 0.80518 0.65637 0.5587 0.0
C2563 C 0.81212 0.66789 0.54432 0.0
C2564 C 0.85617 0.714 0.52491 0.0
C2565 C 0.85636 0.72538 0.47928 0.0
C2566 C 0.85203 0.71405 0.49523 0.0
C2567 C 0.83393 0.6815 0.54151 0.0
C2568 C 0.84103 0.69272 0.52561 0.0
H2569 H 0.83038 0.72472 0.44433 0.0
H2570 H 0.82404 0.70667 0.47001 0.0
H2571 H 0.87259 0.74108 0.50996 0.0
H2572 H 0.85347 0.67354 0.57708 0.0
H2573 H 0.86554 0.69412 0.55204 0.0
loop_
_geom_bond_atom_site_label_1
_geom_bond_atom_site_label_2
_geom_bond_distance
_geom_bond_site_symmetry_2
_ccdc_geom_bond_type
H0 C3 0.929 . S
H1 C6 0.929 . S
H2 C8 0.930 . S
C3 H0 0.929 . S
C3 C4 1.398 . S
C3 C5 1.396 . S
C4 C3 1.398 . S
C4 C8 1.407 . S
C5 C3 1.396 . S
C5 C6 1.394 . S
C6 H1 0.929 . S
C6 C5 1.394 . S
C6 C7 1.382 . S
C7 C6 1.382 . S
C7 C8 1.392 . S
C7 N9 1.420 . S
C8 H2 0.930 . S
C8 C4 1.407 . S
C8 C7 1.392 . S
N9 C7 1.420 . S
N9 C10 1.244 . S
C10 N9 1.244 . S
H11 C14 0.929 . S
H12 C17 0.929 . S
H13 C19 0.930 . S
C14 H11 0.929 . S
C14 C15 1.398 . S
C14 C16 1.396 . S
C15 C14 1.398 . S
C15 C19 1.407 . S
C16 C14 1.396 . S
C16 C17 1.394 . S
C17 H12 0.929 . S
C17 C16 1.394 . S
C17 C18 1.382 . S
C18 C17 1.382 . S
C18 C19 1.392 . S
C18 N20 1.420 . S
C19 H13 0.930 . S
C19 C15 1.407 . S
C19 C18 1.392 . S
N20 C18 1.420 . S
N20 C21 1.244 . S
C21 N20 1.244 . S
H22 C25 0.929 . S
H23 C28 0.929 . S
H24 C30 0.930 . S
C25 H22 0.929 . S
C25 C26 1.398 . S
C25 C27 1.396 . S
C26 C25 1.398 . S
C26 C30 1.407 . S
C27 C25 1.396 . S
C27 C28 1.394 . S
C28 H23 0.929 . S
C28 C27 1.394 . S
C28 C29 1.382 . S
C29 C28 1.382 . S
C29 C30 1.392 . S
C29 N31 1.420 . S
C30 H24 0.930 . S
C30 C26 1.407 . S
C30 C29 1.392 . S
N31 C29 1.420 . S
N31 C32 1.244 . S
C32 N31 1.244 . S
H33 C36 0.929 . S
H34 C39 0.929 . S
H35 C41 0.930 . S
C36 H33 0.929 . S
C36 C37 1.398 . S
C36 C38 1.396 . S
C37 C36 1.398 . S
C37 C41 1.407 . S
C38 C36 1.396 . S
C38 C39 1.394 . S
C39 H34 0.929 . S
C39 C38 1.394 . S
C39 C40 1.382 . S
C40 C39 1.382 . S
C40 C41 1.392 . S
C40 N42 1.420 . S
C41 H35 0.930 . S
C41 C37 1.407 . S
C41 C40 1.392 . S
N42 C40 1.420 . S
N42 C43 1.244 . S
C43 N42 1.244 . S
H44 C47 0.929 . S
H45 C50 0.929 . S
H46 C52 0.930 . S
C47 H44 0.929 . S
C47 C48 1.398 . S
C47 C49 1.396 . S
C48 C47 1.398 . S
C48 C52 1.407 . S
C49 C47 1.396 . S
C49 C50 1.394 . S
C50 H45 0.929 . S
C50 C49 1.394 . S
C50 C51 1.382 . S
C51 C50 1.382 . S
C51 C52 1.392 . S
C51 N53 1.420 . S
C52 H46 0.930 . S
C52 C48 1.407 . S
C52 C51 1.392 . S
N53 C51 1.420 . S
N53 C54 1.244 . S
C54 N53 1.244 . S
H55 C58 0.929 . S
H56 C61 0.929 . S
H57 C63 0.930 . S
C58 H55 0.929 . S
C58 C59 1.398 . S
C58 C60 1.396 . S
C59 C58 1.398 . S
C59 C63 1.407 . S
C60 C58 1.396 . S
C60 C61 1.394 . S
C61 H56 0.929 . S
C61 C60 1.394 . S
C61 C62 1.382 . S
C62 C61 1.382 . S
C62 C63 1.392 . S
C62 N64 1.420 . S
C63 H57 0.930 . S
C63 C59 1.407 . S
C63 C62 1.392 . S
N64 C62 1.420 . S
N64 C65 1.244 . S
C65 N64 1.244 . S
H66 C69 0.929 . S
H67 C72 0.929 . S
H68 C74 0.930 . S
C69 H66 0.929 . S
C69 C70 1.398 . S
C69 C71 1.396 . S
C70 C69 1.398 . S
C70 C74 1.407 . S
C71 C69 1.396 . S
C71 C72 1.394 . S
C72 H67 0.929 . S
C72 C71 1.394 . S
C72 C73 1.382 . S
C73 C72 1.382 . S
C73 C74 1.392 . S
C73 N75 1.420 . S
C74 H68 0.930 . S
C74 C70 1.407 . S
C74 C73 1.392 . S
N75 C73 1.420 . S
N75 C76 1.244 . S
C76 N75 1.244 . S
H77 C80 0.929 . S
H78 C83 0.929 . S
H79 C85 0.930 . S
C80 H77 0.929 . S
C80 C81 1.398 . S
C80 C82 1.396 . S
C81 C80 1.398 . S
C81 C85 1.407 . S
C82 C80 1.396 . S
C82 C83 1.394 . S
C83 H78 0.929 . S
C83 C82 1.394 . S
C83 C84 1.382 . S
C84 C83 1.382 . S
C84 C85 1.392 . S
C84 N86 1.420 . S
C85 H79 0.930 . S
C85 C81 1.407 . S
C85 C84 1.392 . S
N86 C84 1.420 . S
N86 C87 1.244 . S
C87 N86 1.244 . S
H88 C91 0.929 . S
H89 C94 0.929 . S
H90 C96 0.930 . S
C91 H88 0.929 . S
C91 C92 1.398 . S
C91 C93 1.396 . S
C92 C91 1.398 . S
C92 C96 1.407 . S
C93 C91 1.396 . S
C93 C94 1.394 . S
C94 H89 0.929 . S
C94 C93 1.394 . S
C94 C95 1.382 . S
C95 C94 1.382 . S
C95 C96 1.392 . S
C95 N97 1.420 . S
C96 H90 0.930 . S
C96 C92 1.407 . S
C96 C95 1.392 . S
N97 C95 1.420 . S
N97 C98 1.244 . S
C98 N97 1.244 . S
H99 C102 0.929 . S
H100 C105 0.929 . S
H101 C107 0.930 . S
C102 H99 0.929 . S
C102 C103 1.398 . S
C102 C104 1.396 . S
C103 C102 1.398 . S
C103 C107 1.407 . S
C104 C102 1.396 . S
C104 C105 1.394 . S
C105 H100 0.929 . S
C105 C104 1.394 . S
C105 C106 1.382 . S
C106 C105 1.382 . S
C106 C107 1.392 . S
C106 N108 1.420 . S
C107 H101 0.930 . S
C107 C103 1.407 . S
C107 C106 1.392 . S
N108 C106 1.420 . S
N108 C109 1.244 . S
C109 N108 1.244 . S
H110 C113 0.929 . S
H111 C116 0.929 . S
H112 C118 0.930 . S
C113 H110 0.929 . S
C113 C114 1.398 . S
C113 C115 1.396 . S
C114 C113 1.398 . S
C114 C118 1.407 . S
C115 C113 1.396 . S
C115 C116 1.394 . S
C116 H111 0.929 . S
C116 C115 1.394 . S
C116 C117 1.382 . S
C117 C116 1.382 . S
C117 C118 1.392 . S
C117 N119 1.420 . S
C118 H112 0.930 . S
C118 C114 1.407 . S
C118 C117 1.392 . S
N119 C117 1.420 . S
N119 C120 1.244 . S
C120 N119 1.244 . S
H121 C124 0.929 . S
H122 C127 0.929 . S
H123 C129 0.930 . S
C124 H121 0.929 . S
C124 C125 1.398 . S
C124 C126 1.396 . S
C125 C124 1.398 . S
C125 C129 1.407 . S
C126 C124 1.396 . S
C126 C127 1.394 . S
C127 H122 0.929 . S
C127 C126 1.394 . S
C127 C128 1.382 . S
C128 C127 1.382 . S
C128 C129 1.392 . S
C128 N130 1.420 . S
C129 H123 0.930 . S
C129 C125 1.407 . S
C129 C128 1.392 . S
N130 C128 1.420 . S
N130 C131 1.244 . S
C131 N130 1.244 . S
H132 C135 0.929 . S
H133 C138 0.929 . S
H134 C140 0.930 . S
C135 H132 0.929 . S
C135 C136 1.398 . S
C135 C137 1.396 . S
C136 C135 1.398 . S
C136 C140 1.407 . S
C137 C135 1.396 . S
C137 C138 1.394 . S
C138 H133 0.929 . S
C138 C137 1.394 . S
C138 C139 1.382 . S
C139 C138 1.382 . S
C139 C140 1.392 . S
C139 N141 1.420 . S
C140 H134 0.930 . S
C140 C136 1.407 . S
C140 C139 1.392 . S
N141 C139 1.420 . S
N141 C142 1.244 . S
C142 N141 1.244 . S
H143 C146 0.929 . S
H144 C149 0.929 . S
H145 C151 0.930 . S
C146 H143 0.929 . S
C146 C147 1.398 . S
C146 C148 1.396 . S
C147 C146 1.398 . S
C147 C151 1.407 . S
C148 C146 1.396 . S
C148 C149 1.394 . S
C149 H144 0.929 . S
C149 C148 1.394 . S
C149 C150 1.382 . S
C150 C149 1.382 . S
C150 C151 1.392 . S
C150 N152 1.420 . S
C151 H145 0.930 . S
C151 C147 1.407 . S
C151 C150 1.392 . S
N152 C150 1.420 . S
N152 C153 1.244 . S
C153 N152 1.244 . S
H154 C157 0.929 . S
H155 C160 0.929 . S
H156 C162 0.930 . S
C157 H154 0.929 . S
C157 C158 1.398 . S
C157 C159 1.396 . S
C158 C157 1.398 . S
C158 C162 1.407 . S
C159 C157 1.396 . S
C159 C160 1.394 . S
C160 H155 0.929 . S
C160 C159 1.394 . S
C160 C161 1.382 . S
C161 C160 1.382 . S
C161 C162 1.392 . S
C161 N163 1.420 . S
C162 H156 0.930 . S
C162 C158 1.407 . S
C162 C161 1.392 . S
N163 C161 1.420 . S
N163 C164 1.244 . S
C164 N163 1.244 . S
H165 C168 0.929 . S
H166 C171 0.929 . S
H167 C173 0.930 . S
C168 H165 0.929 . S
C168 C169 1.398 . S
C168 C170 1.396 . S
C169 C168 1.398 . S
C169 C173 1.407 . S
C170 C168 1.396 . S
C170 C171 1.394 . S
C171 H166 0.929 . S
C171 C170 1.394 . S
C171 C172 1.382 . S
C172 C171 1.382 . S
C172 C173 1.392 . S
C172 N174 1.420 . S
C173 H167 0.930 . S
C173 C169 1.407 . S
C173 C172 1.392 . S
N174 C172 1.420 . S
N174 C175 1.244 . S
C175 N174 1.244 . S
H176 C179 0.929 . S
H177 C182 0.929 . S
H178 C184 0.930 . S
C179 H176 0.929 . S
C179 C180 1.398 . S
C179 C181 1.396 . S
C180 C179 1.398 . S
C180 C184 1.407 . S
C181 C179 1.396 . S
C181 C182 1.394 . S
C182 H177 0.929 . S
C182 C181 1.394 . S
C182 C183 1.382 . S
C183 C182 1.382 . S
C183 C184 1.392 . S
C183 N185 1.420 . S
C184 H178 0.930 . S
C184 C180 1.407 . S
C184 C183 1.392 . S
N185 C183 1.420 . S
N185 C186 1.244 . S
C186 N185 1.244 . S
H187 C190 0.929 . S
H188 C193 0.929 . S
H189 C195 0.930 . S
C190 H187 0.929 . S
C190 C191 1.398 . S
C190 C192 1.396 . S
C191 C190 1.398 . S
C191 C195 1.407 . S
C192 C190 1.396 . S
C192 C193 1.394 . S
C193 H188 0.929 . S
C193 C192 1.394 . S
C193 C194 1.382 . S
C194 C193 1.382 . S
C194 C195 1.392 . S
C194 N196 1.420 . S
C195 H189 0.930 . S
C195 C191 1.407 . S
C195 C194 1.392 . S
N196 C194 1.420 . S
N196 C197 1.244 . S
C197 N196 1.244 . S
Eu198 N229 2.657 . S
Eu198 N236 2.609 . S
Eu198 O242 2.558 . S
Eu198 O243 2.612 1_566 S
Eu198 O245 2.339 1_565 S
Eu198 O246 2.563 1_565 S
Eu198 O247 2.419 1_565 S
Eu198 O249 2.380 1_556 S
Eu198 O250 2.432 1_556 S
Eu198 C262 2.848 1_565 S
C199 C202 1.429 . S
C199 C203 1.411 . S
C199 N206 1.377 . S
C200 C202 1.420 . S
C200 C204 1.423 . S
C200 C212 1.392 . S
C201 C203 1.420 . S
C201 C204 1.351 . S
C201 H224 0.931 . S
C202 C199 1.429 . S
C202 C200 1.420 . S
C202 N210 1.362 . S
C203 C199 1.411 . S
C203 C201 1.420 . S
C203 C208 1.395 . S
C204 C200 1.423 . S
C204 C201 1.351 . S
C204 H216 0.930 . S
C205 C207 1.400 . S
C205 C208 1.386 . S
C205 H217 0.930 . S
N206 C199 1.377 . S
N206 C207 1.321 . S
N206 Eu209 2.609 . S
C207 C205 1.400 . S
C207 N206 1.321 . S
C207 H214 0.930 . S
C208 C203 1.395 . S
C208 C205 1.386 . S
C208 H227 0.930 . S
Eu209 N206 2.609 . S
Eu209 N210 2.657 . S
Eu209 O243 2.380 . S
Eu209 O244 2.432 . S
Eu209 O248 2.558 . S
Eu209 O249 2.612 1_545 S
Eu209 O251 2.339 1_545 S
Eu209 O252 2.563 1_545 S
Eu209 O253 2.419 1_545 S
Eu209 C273 2.848 . S
N210 C202 1.362 . S
N210 Eu209 2.657 . S
N210 C211 1.334 . S
C211 N210 1.334 . S
C211 C213 1.413 . S
C211 H218 0.929 . S
C212 C200 1.392 . S
C212 C213 1.367 . S
C212 H220 0.930 . S
C213 C211 1.413 . S
C213 C212 1.367 . S
C213 H215 0.930 . S
H214 C207 0.930 . S
H215 C213 0.930 . S
H216 C204 0.930 . S
H217 C205 0.930 . S
H218 C211 0.929 . S
H219 C233 0.930 . S
H220 C212 0.930 . S
H221 C239 0.930 . S
H222 C230 0.926 1_545 S
H223 C237 0.930 . S
H224 C201 0.931 . S
H225 C231 0.930 . S
H226 C264 0.930 . S
H227 C208 0.930 . S
H228 C263 0.931 . S
N229 Eu198 2.657 . S
N229 C230 1.334 . S
N229 C234 1.362 . S
C230 H222 0.926 1_565 S
C230 N229 1.334 . S
C230 C233 1.413 . S
C231 H225 0.930 . S
C231 C232 1.392 . S
C231 C233 1.367 . S
C232 C231 1.392 . S
C232 C234 1.420 . S
C232 C264 1.423 . S
C233 H219 0.930 . S
C233 C230 1.413 . S
C233 C231 1.367 . S
C234 N229 1.362 . S
C234 C232 1.420 . S
C234 C238 1.429 . S
H235 C240 0.930 . S
N236 Eu198 2.609 . S
N236 C238 1.377 . S
N236 C239 1.321 . S
C237 H223 0.930 . S
C237 C239 1.400 . S
C237 C240 1.386 . S
C238 C234 1.429 . S
C238 N236 1.377 . S
C238 C241 1.411 . S
C239 H221 0.930 . S
C239 N236 1.321 . S
C239 C237 1.400 . S
C240 H235 0.930 . S
C240 C237 1.386 . S
C240 C241 1.395 . S
C241 C238 1.411 . S
C241 C240 1.395 . S
C241 C263 1.420 . S
O242 Eu198 2.558 . S
O242 C262 1.257 1_565 S
O243 Eu198 2.612 1_544 S
O243 Eu209 2.380 . S
O243 C254 1.276 1_554 S
O244 Eu209 2.432 . S
O244 C261 1.264 . S
O245 Eu198 2.339 1_545 S
O245 C261 1.254 1_556 S
O246 Eu198 2.563 1_545 S
O246 C254 1.235 . S
O247 Eu198 2.419 1_545 S
O247 C262 1.249 . S
O248 Eu209 2.558 . S
O248 C273 1.257 . S
O249 Eu198 2.380 1_554 S
O249 Eu209 2.612 1_565 S
O249 C265 1.276 . S
O250 Eu198 2.432 1_554 S
O250 C272 1.264 . S
O251 Eu209 2.339 1_565 S
O251 C272 1.254 . S
O252 Eu209 2.563 1_565 S
O252 C265 1.235 . S
O253 Eu209 2.419 1_565 S
O253 C273 1.249 1_565 S
C254 O243 1.276 1_556 S
C254 O246 1.235 . S
C255 C257 1.393 . S
C255 C259 1.395 1_545 S
C255 C262 1.492 . S
C256 C257 1.392 . S
C256 C258 1.386 . S
C257 C255 1.393 . S
C257 C256 1.392 . S
C257 H274 0.930 . S
C258 C256 1.386 . S
C258 C260 1.337 1_545 S
C258 H275 0.930 . S
C259 C255 1.395 1_565 S
C259 C260 1.391 . S
C259 H276 0.930 . S
C260 C258 1.337 1_565 S
C260 C259 1.391 . S
C260 H277 0.978 . S
C261 O244 1.264 . S
C261 O245 1.254 1_554 S
C262 Eu198 2.848 1_545 S
C262 O242 1.257 1_545 S
C262 O247 1.249 . S
C262 C255 1.492 . S
C263 H228 0.931 . S
C263 C241 1.420 . S
C263 C264 1.351 . S
C264 H226 0.930 . S
C264 C232 1.423 . S
C264 C263 1.351 . S
C265 O249 1.276 . S
C265 O252 1.235 . S
C266 C267 1.347 1_545 S
C266 C270 1.433 . S
C266 C273 1.499 . S
C267 C266 1.347 1_565 S
C267 C268 1.392 . S
C267 H278 0.930 . S
C268 C267 1.392 . S
C268 C269 1.386 . S
C269 C268 1.386 . S
C269 C271 1.395 1_565 S
C269 H279 0.930 . S
C270 C266 1.433 . S
C270 C271 1.379 . S
C270 H280 0.930 . S
C271 C269 1.395 1_545 S
C271 C270 1.379 . S
C271 H281 0.930 . S
C272 O250 1.264 . S
C272 O251 1.254 . S
C273 Eu209 2.848 . S
C273 O248 1.257 . S
C273 O253 1.249 1_545 S
C273 C266 1.499 . S
H274 C257 0.930 . S
H275 C258 0.930 . S
H276 C259 0.930 . S
H277 C260 0.978 . S
H278 C267 0.930 . S
H279 C269 0.930 . S
H280 C270 0.930 . S
H281 C271 0.930 . S
Eu282 N313 2.657 . S
Eu282 N320 2.609 . S
Eu282 O326 2.558 . S
Eu282 O327 2.612 1_456 S
Eu282 O329 2.339 1_455 S
Eu282 O330 2.563 1_455 S
Eu282 O331 2.425 . S
Eu282 O333 2.380 1_556 S
Eu282 O334 2.432 1_556 S
Eu282 C346 2.848 . S
C283 C286 1.429 . S
C283 C287 1.411 . S
C283 N290 1.377 . S
C284 C286 1.420 . S
C284 C288 1.423 . S
C284 C296 1.392 . S
C285 C287 1.420 . S
C285 C288 1.351 . S
C285 H308 0.931 . S
C286 C283 1.429 . S
C286 C284 1.420 . S
C286 N294 1.362 . S
C287 C283 1.411 . S
C287 C285 1.420 . S
C287 C292 1.395 . S
C288 C284 1.423 . S
C288 C285 1.351 . S
C288 H300 0.930 . S
C289 C291 1.400 . S
C289 C292 1.386 . S
C289 H301 0.930 . S
N290 C283 1.377 . S
N290 C291 1.321 . S
N290 Eu293 2.609 . S
C291 C289 1.400 . S
C291 N290 1.321 . S
C291 H298 0.930 . S
C292 C287 1.395 . S
C292 C289 1.386 . S
C292 H311 0.930 . S
Eu293 N290 2.609 . S
Eu293 N294 2.657 . S
Eu293 O327 2.380 . S
Eu293 O328 2.432 . S
Eu293 O332 2.558 . S
Eu293 O333 2.612 1_655 S
Eu293 O335 2.339 1_655 S
Eu293 O336 2.563 1_655 S
Eu293 O337 2.419 1_655 S
Eu293 C357 2.839 1_655 S
N294 C286 1.362 . S
N294 Eu293 2.657 . S
N294 C295 1.334 . S
C295 N294 1.334 . S
C295 C297 1.413 . S
C295 H302 0.923 1_655 S
C296 C284 1.392 . S
C296 C297 1.367 . S
C296 H304 0.930 . S
C297 C295 1.413 . S
C297 C296 1.367 . S
C297 H299 0.930 . S
H298 C291 0.930 . S
H299 C297 0.930 . S
H300 C288 0.930 . S
H301 C289 0.930 . S
H302 C295 0.923 1_455 S
H303 C317 0.930 . S
H304 C296 0.930 . S
H305 C323 0.930 . S
H306 C314 0.929 . S
H307 C321 0.930 . S
H308 C285 0.931 . S
H309 C315 0.930 . S
H310 C348 0.930 . S
H311 C292 0.930 . S
H312 C347 0.931 . S
N313 Eu282 2.657 . S
N313 C314 1.334 . S
N313 C318 1.362 . S
C314 H306 0.929 . S
C314 N313 1.334 . S
C314 C317 1.413 . S
C315 H309 0.930 . S
C315 C316 1.392 . S
C315 C317 1.367 . S
C316 C315 1.392 . S
C316 C318 1.420 . S
C316 C348 1.423 . S
C317 H303 0.930 . S
C317 C314 1.413 . S
C317 C315 1.367 . S
C318 N313 1.362 . S
C318 C316 1.420 . S
C318 C322 1.429 . S
H319 C324 0.930 . S
N320 Eu282 2.609 . S
N320 C322 1.377 . S
N320 C323 1.321 . S
C321 H307 0.930 . S
C321 C323 1.400 . S
C321 C324 1.386 . S
C322 C318 1.429 . S
C322 N320 1.377 . S
C322 C325 1.411 . S
C323 H305 0.930 . S
C323 N320 1.321 . S
C323 C321 1.400 . S
C324 H319 0.930 . S
C324 C321 1.386 . S
C324 C325 1.395 . S
C325 C322 1.411 . S
C325 C324 1.395 . S
C325 C347 1.420 . S
O326 Eu282 2.558 . S
O326 C346 1.257 . S
O327 Eu282 2.612 1_654 S
O327 Eu293 2.380 . S
O327 C338 1.276 1_554 S
O328 Eu293 2.432 . S
O328 C345 1.264 . S
O329 Eu282 2.339 1_655 S
O329 C345 1.254 1_556 S
O330 Eu282 2.563 1_655 S
O330 C338 1.235 . S
O331 Eu282 2.425 . S
O331 C346 1.248 . S
O332 Eu293 2.558 . S
O332 C357 1.250 1_655 S
O333 Eu282 2.380 1_554 S
O333 Eu293 2.612 1_455 S
O333 C349 1.276 . S
O334 Eu282 2.432 1_554 S
O334 C356 1.264 . S
O335 Eu293 2.339 1_455 S
O335 C356 1.254 . S
O336 Eu293 2.563 1_455 S
O336 C349 1.235 . S
O337 Eu293 2.419 1_455 S
O337 C357 1.247 . S
C338 O327 1.276 1_556 S
C338 O330 1.235 . S
C339 C341 1.393 1_455 S
C339 C343 1.395 . S
C339 C346 1.492 . S
C340 C341 1.392 . S
C340 C342 1.386 . S
C341 C339 1.393 1_655 S
C341 C340 1.392 . S
C341 H358 0.930 . S
C342 C340 1.386 . S
C342 C344 1.395 1_655 S
C342 H359 0.930 . S
C343 C339 1.395 . S
C343 C344 1.379 . S
C343 H360 0.930 . S
C344 C342 1.395 1_455 S
C344 C343 1.379 . S
C344 H361 0.930 . S
C345 O328 1.264 . S
C345 O329 1.254 1_554 S
C346 Eu282 2.848 . S
C346 O326 1.257 . S
C346 O331 1.248 . S
C346 C339 1.492 . S
C347 H312 0.931 . S
C347 C325 1.420 . S
C347 C348 1.351 . S
C348 H310 0.930 . S
C348 C316 1.423 . S
C348 C347 1.351 . S
C349 O333 1.276 . S
C349 O336 1.235 . S
C350 C351 1.393 . S
C350 C354 1.395 1_455 S
C350 C357 1.505 . S
C351 C350 1.393 . S
C351 C352 1.392 . S
C351 H362 0.930 . S
C352 C351 1.392 . S
C352 C353 1.386 . S
C353 C352 1.386 . S
C353 C355 1.395 1_455 S
C353 H363 0.930 . S
C354 C350 1.395 1_655 S
C354 C355 1.379 . S
C354 H364 0.930 . S
C355 C353 1.395 1_655 S
C355 C354 1.379 . S
C355 H365 0.930 . S
C356 O334 1.264 . S
C356 O335 1.254 . S
C357 Eu293 2.839 1_455 S
C357 O332 1.250 1_455 S
C357 O337 1.247 . S
C357 C350 1.505 . S
H358 C341 0.930 . S
H359 C342 0.930 . S
H360 C343 0.930 . S
H361 C344 0.930 . S
H362 C351 0.930 . S
H363 C353 0.930 . S
H364 C354 0.930 . S
H365 C355 0.930 . S
Eu366 N397 2.657 . S
Eu366 N404 2.609 . S
Eu366 O410 2.558 . S
Eu366 O411 2.612 . S
Eu366 O413 2.339 . S
Eu366 O414 2.563 . S
Eu366 O415 2.419 . S
Eu366 O417 2.380 . S
Eu366 O418 2.432 . S
Eu366 C430 2.848 . S
C367 C370 1.429 . S
C367 C371 1.411 . S
C367 N374 1.377 . S
C368 C370 1.420 . S
C368 C372 1.423 . S
C368 C380 1.392 . S
C369 C371 1.420 . S
C369 C372 1.351 . S
C369 H392 0.931 . S
C370 C367 1.429 . S
C370 C368 1.420 . S
C370 N378 1.362 . S
C371 C367 1.411 . S
C371 C369 1.420 . S
C371 C376 1.395 . S
C372 C368 1.423 . S
C372 C369 1.351 . S
C372 H384 0.930 . S
C373 C375 1.400 . S
C373 C376 1.386 . S
C373 H385 0.930 . S
N374 C367 1.377 . S
N374 C375 1.321 . S
N374 Eu377 2.609 . S
C375 C373 1.400 . S
C375 N374 1.321 . S
C375 H382 0.930 . S
C376 C371 1.395 . S
C376 C373 1.386 . S
C376 H395 0.930 . S
Eu377 N374 2.609 . S
Eu377 N378 2.657 . S
Eu377 O411 2.380 1_556 S
Eu377 O412 2.432 1_556 S
Eu377 O416 2.558 . S
Eu377 O417 2.612 1_556 S
Eu377 O419 2.339 . S
Eu377 O420 2.563 . S
Eu377 O421 2.419 . S
Eu377 C441 2.848 . S
N378 C370 1.362 . S
N378 Eu377 2.657 . S
N378 C379 1.334 . S
C379 N378 1.334 . S
C379 C381 1.413 . S
C379 H386 0.929 . S
C380 C368 1.392 . S
C380 C381 1.367 . S
C380 H388 0.930 . S
C381 C379 1.413 . S
C381 C380 1.367 . S
C381 H383 0.930 . S
H382 C375 0.930 . S
H383 C381 0.930 . S
H384 C372 0.930 . S
H385 C373 0.930 . S
H386 C379 0.929 . S
H387 C401 0.930 . S
H388 C380 0.930 . S
H389 C407 0.930 . S
H390 C398 0.929 . S
H391 C405 0.930 . S
H392 C369 0.931 . S
H393 C399 0.930 . S
H394 C432 0.930 . S
H395 C376 0.930 . S
H396 C431 0.931 . S
N397 Eu366 2.657 . S
N397 C398 1.334 . S
N397 C402 1.362 . S
C398 H390 0.929 . S
C398 N397 1.334 . S
C398 C401 1.413 . S
C399 H393 0.930 . S
C399 C400 1.392 . S
C399 C401 1.367 . S
C400 C399 1.392 . S
C400 C402 1.420 . S
C400 C432 1.423 . S
C401 H387 0.930 . S
C401 C398 1.413 . S
C401 C399 1.367 . S
C402 N397 1.362 . S
C402 C400 1.420 . S
C402 C406 1.429 . S
H403 C408 0.930 . S
N404 Eu366 2.609 . S
N404 C406 1.377 . S
N404 C407 1.321 . S
C405 H391 0.930 . S
C405 C407 1.400 . S
C405 C408 1.386 . S
C406 C402 1.429 . S
C406 N404 1.377 . S
C406 C409 1.411 . S
C407 H389 0.930 . S
C407 N404 1.321 . S
C407 C405 1.400 . S
C408 H403 0.930 . S
C408 C405 1.386 . S
C408 C409 1.395 . S
C409 C406 1.411 . S
C409 C408 1.395 . S
C409 C431 1.420 . S
O410 Eu366 2.558 . S
O410 C430 1.257 . S
O411 Eu366 2.612 . S
O411 Eu377 2.380 1_554 S
O411 C422 1.276 . S
O412 Eu377 2.432 1_554 S
O412 C429 1.264 . S
O413 Eu366 2.339 . S
O413 C429 1.254 . S
O414 Eu366 2.563 . S
O414 C422 1.235 . S
O415 Eu366 2.419 . S
O415 C430 1.249 . S
O416 Eu377 2.558 . S
O416 C441 1.257 . S
O417 Eu366 2.380 . S
O417 Eu377 2.612 1_554 S
O417 C433 1.276 1_554 S
O418 Eu366 2.432 . S
O418 C440 1.264 . S
O419 Eu377 2.339 . S
O419 C440 1.254 1_556 S
O420 Eu377 2.563 . S
O420 C433 1.235 . S
O421 Eu377 2.419 . S
O421 C441 1.249 . S
C422 O411 1.276 . S
C422 O414 1.235 . S
C423 C425 1.393 . S
C423 C427 1.395 . S
C423 C430 1.492 . S
C424 C425 1.392 . S
C424 C426 1.386 . S
C425 C423 1.393 . S
C425 C424 1.392 . S
C425 H442 0.930 . S
C426 C424 1.386 . S
C426 C428 1.395 . S
C426 H443 0.930 . S
C427 C423 1.395 . S
C427 C428 1.379 . S
C427 H444 0.930 . S
C428 C426 1.395 . S
C428 C427 1.379 . S
C428 H445 0.930 . S
C429 O412 1.264 . S
C429 O413 1.254 . S
C430 Eu366 2.848 . S
C430 O410 1.257 . S
C430 O415 1.249 . S
C430 C423 1.492 . S
C431 H396 0.931 . S
C431 C409 1.420 . S
C431 C432 1.351 . S
C432 H394 0.930 . S
C432 C400 1.423 . S
C432 C431 1.351 . S
C433 O417 1.276 1_556 S
C433 O420 1.235 . S
C434 C435 1.393 . S
C434 C438 1.395 . S
C434 C441 1.492 . S
C435 C434 1.393 . S
C435 C436 1.392 . S
C435 H446 0.930 . S
C436 C435 1.392 . S
C436 C437 1.386 . S
C437 C436 1.386 . S
C437 C439 1.395 . S
C437 H447 0.930 . S
C438 C434 1.395 . S
C438 C439 1.379 . S
C438 H448 0.930 . S
C439 C437 1.395 . S
C439 C438 1.379 . S
C439 H449 0.930 . S
C440 O418 1.264 . S
C440 O419 1.254 1_554 S
C441 Eu377 2.848 . S
C441 O416 1.257 . S
C441 O421 1.249 . S
C441 C434 1.492 . S
H442 C425 0.930 . S
H443 C426 0.930 . S
H444 C427 0.930 . S
H445 C428 0.930 . S
H446 C435 0.930 . S
H447 C437 0.930 . S
H448 C438 0.930 . S
H449 C439 0.930 . S
Eu450 N481 2.657 . S
Eu450 N488 2.609 . S
Eu450 O494 2.558 . S
Eu450 O495 2.612 . S
Eu450 O497 2.339 . S
Eu450 O498 2.563 . S
Eu450 O499 2.419 . S
Eu450 O501 2.380 . S
Eu450 O502 2.432 . S
Eu450 C514 2.848 . S
C451 C454 1.429 . S
C451 C455 1.411 . S
C451 N458 1.377 . S
C452 C454 1.420 . S
C452 C456 1.423 . S
C452 C464 1.392 . S
C453 C455 1.420 . S
C453 C456 1.351 . S
C453 H476 0.931 . S
C454 C451 1.429 . S
C454 C452 1.420 . S
C454 N462 1.362 . S
C455 C451 1.411 . S
C455 C453 1.420 . S
C455 C460 1.395 . S
C456 C452 1.423 . S
C456 C453 1.351 . S
C456 H468 0.930 . S
C457 C459 1.400 . S
C457 C460 1.386 . S
C457 H469 0.930 . S
N458 C451 1.377 . S
N458 C459 1.321 . S
N458 Eu461 2.609 . S
C459 C457 1.400 . S
C459 N458 1.321 . S
C459 H466 0.930 . S
C460 C455 1.395 . S
C460 C457 1.386 . S
C460 H479 0.930 . S
Eu461 N458 2.609 . S
Eu461 N462 2.657 . S
Eu461 O495 2.380 . S
Eu461 O496 2.432 . S
Eu461 O500 2.558 . S
Eu461 O501 2.612 . S
Eu461 O503 2.339 . S
Eu461 O504 2.563 . S
Eu461 O505 2.419 . S
Eu461 C525 2.848 . S
N462 C454 1.362 . S
N462 Eu461 2.657 . S
N462 C463 1.334 . S
C463 N462 1.334 . S
C463 C465 1.413 . S
C463 H470 0.929 . S
C464 C452 1.392 . S
C464 C465 1.367 . S
C464 H472 0.930 . S
C465 C463 1.413 . S
C465 C464 1.367 . S
C465 H467 0.930 . S
H466 C459 0.930 . S
H467 C465 0.930 . S
H468 C456 0.930 . S
H469 C457 0.930 . S
H470 C463 0.929 . S
H471 C485 0.930 . S
H472 C464 0.930 . S
H473 C491 0.930 . S
H474 C482 0.929 . S
H475 C489 0.930 . S
H476 C453 0.931 . S
H477 C483 0.930 . S
H478 C516 0.930 . S
H479 C460 0.930 . S
H480 C515 0.931 . S
N481 Eu450 2.657 . S
N481 C482 1.334 . S
N481 C486 1.362 . S
C482 H474 0.929 . S
C482 N481 1.334 . S
C482 C485 1.413 . S
C483 H477 0.930 . S
C483 C484 1.392 . S
C483 C485 1.367 . S
C484 C483 1.392 . S
C484 C486 1.420 . S
C484 C516 1.423 . S
C485 H471 0.930 . S
C485 C482 1.413 . S
C485 C483 1.367 . S
C486 N481 1.362 . S
C486 C484 1.420 . S
C486 C490 1.429 . S
H487 C492 0.930 . S
N488 Eu450 2.609 . S
N488 C490 1.377 . S
N488 C491 1.321 . S
C489 H475 0.930 . S
C489 C491 1.400 . S
C489 C492 1.386 . S
C490 C486 1.429 . S
C490 N488 1.377 . S
C490 C493 1.411 . S
C491 H473 0.930 . S
C491 N488 1.321 . S
C491 C489 1.400 . S
C492 H487 0.930 . S
C492 C489 1.386 . S
C492 C493 1.395 . S
C493 C490 1.411 . S
C493 C492 1.395 . S
C493 C515 1.420 . S
O494 Eu450 2.558 . S
O494 C514 1.257 . S
O495 Eu450 2.612 . S
O495 Eu461 2.380 . S
O495 C506 1.276 . S
O496 Eu461 2.432 . S
O496 C513 1.264 . S
O497 Eu450 2.339 . S
O497 C513 1.254 . S
O498 Eu450 2.563 . S
O498 C506 1.235 . S
O499 Eu450 2.419 . S
O499 C514 1.249 . S
O500 Eu461 2.558 . S
O500 C525 1.257 . S
O501 Eu450 2.380 . S
O501 Eu461 2.612 . S
O501 C517 1.276 . S
O502 Eu450 2.432 . S
O502 C524 1.264 . S
O503 Eu461 2.339 . S
O503 C524 1.254 . S
O504 Eu461 2.563 . S
O504 C517 1.235 . S
O505 Eu461 2.419 . S
O505 C525 1.249 . S
C506 O495 1.276 . S
C506 O498 1.235 . S
C507 C509 1.393 . S
C507 C511 1.395 . S
C507 C514 1.492 . S
C508 C509 1.392 . S
C508 C510 1.386 . S
C509 C507 1.393 . S
C509 C508 1.392 . S
C509 H526 0.930 . S
C510 C508 1.386 . S
C510 C512 1.395 . S
C510 H527 0.930 . S
C511 C507 1.395 . S
C511 C512 1.379 . S
C511 H528 0.930 . S
C512 C510 1.395 . S
C512 C511 1.379 . S
C512 H529 0.930 . S
C513 O496 1.264 . S
C513 O497 1.254 . S
C514 Eu450 2.848 . S
C514 O494 1.257 . S
C514 O499 1.249 . S
C514 C507 1.492 . S
C515 H480 0.931 . S
C515 C493 1.420 . S
C515 C516 1.351 . S
C516 H478 0.930 . S
C516 C484 1.423 . S
C516 C515 1.351 . S
C517 O501 1.276 . S
C517 O504 1.235 . S
C518 C519 1.393 . S
C518 C522 1.395 . S
C518 C525 1.492 . S
C519 C518 1.393 . S
C519 C520 1.392 . S
C519 H530 0.930 . S
C520 C519 1.392 . S
C520 C521 1.386 . S
C521 C520 1.386 . S
C521 C523 1.395 . S
C521 H531 0.930 . S
C522 C518 1.395 . S
C522 C523 1.379 . S
C522 H532 0.930 . S
C523 C521 1.395 . S
C523 C522 1.379 . S
C523 H533 0.930 . S
C524 O502 1.264 . S
C524 O503 1.254 . S
C525 Eu461 2.848 . S
C525 O500 1.257 . S
C525 O505 1.249 . S
C525 C518 1.492 . S
H526 C509 0.930 . S
H527 C510 0.930 . S
H528 C511 0.930 . S
H529 C512 0.930 . S
H530 C519 0.930 . S
H531 C521 0.930 . S
H532 C522 0.930 . S
H533 C523 0.930 . S
Eu534 N565 2.657 . S
Eu534 N572 2.609 . S
Eu534 O578 2.558 . S
Eu534 O579 2.612 . S
Eu534 O581 2.339 . S
Eu534 O582 2.563 . S
Eu534 O583 2.419 . S
Eu534 O585 2.380 . S
Eu534 O586 2.432 . S
Eu534 C598 2.848 . S
C535 C538 1.429 . S
C535 C539 1.411 . S
C535 N542 1.377 . S
C536 C538 1.420 . S
C536 C540 1.423 . S
C536 C548 1.392 . S
C537 C539 1.420 . S
C537 C540 1.351 . S
C537 H560 0.931 . S
C538 C535 1.429 . S
C538 C536 1.420 . S
C538 N546 1.362 . S
C539 C535 1.411 . S
C539 C537 1.420 . S
C539 C544 1.395 . S
C540 C536 1.423 . S
C540 C537 1.351 . S
C540 H552 0.930 . S
C541 C543 1.400 . S
C541 C544 1.386 . S
C541 H553 0.930 . S
N542 C535 1.377 . S
N542 C543 1.321 . S
N542 Eu545 2.609 . S
C543 C541 1.400 . S
C543 N542 1.321 . S
C543 H550 0.930 . S
C544 C539 1.395 . S
C544 C541 1.386 . S
C544 H563 0.930 . S
Eu545 N542 2.609 . S
Eu545 N546 2.657 . S
Eu545 O579 2.380 . S
Eu545 O580 2.432 . S
Eu545 O584 2.558 . S
Eu545 O585 2.612 . S
Eu545 O587 2.339 . S
Eu545 O588 2.563 . S
Eu545 O589 2.419 . S
Eu545 C609 2.848 . S
N546 C538 1.362 . S
N546 Eu545 2.657 . S
N546 C547 1.334 . S
C547 N546 1.334 . S
C547 C549 1.413 . S
C547 H554 0.929 . S
C548 C536 1.392 . S
C548 C549 1.367 . S
C548 H556 0.930 . S
C549 C547 1.413 . S
C549 C548 1.367 . S
C549 H551 0.930 . S
H550 C543 0.930 . S
H551 C549 0.930 . S
H552 C540 0.930 . S
H553 C541 0.930 . S
H554 C547 0.929 . S
H555 C569 0.930 . S
H556 C548 0.930 . S
H557 C575 0.930 . S
H558 C566 0.929 . S
H559 C573 0.930 . S
H560 C537 0.931 . S
H561 C567 0.930 . S
H562 C600 0.930 . S
H563 C544 0.930 . S
H564 C599 0.931 . S
N565 Eu534 2.657 . S
N565 C566 1.334 . S
N565 C570 1.362 . S
C566 H558 0.929 . S
C566 N565 1.334 . S
C566 C569 1.413 . S
C567 H561 0.930 . S
C567 C568 1.392 . S
C567 C569 1.367 . S
C568 C567 1.392 . S
C568 C570 1.420 . S
C568 C600 1.423 . S
C569 H555 0.930 . S
C569 C566 1.413 . S
C569 C567 1.367 . S
C570 N565 1.362 . S
C570 C568 1.420 . S
C570 C574 1.429 . S
H571 C576 0.930 . S
N572 Eu534 2.609 . S
N572 C574 1.377 . S
N572 C575 1.321 . S
C573 H559 0.930 . S
C573 C575 1.400 . S
C573 C576 1.386 . S
C574 C570 1.429 . S
C574 N572 1.377 . S
C574 C577 1.411 . S
C575 H557 0.930 . S
C575 N572 1.321 . S
C575 C573 1.400 . S
C576 H571 0.930 . S
C576 C573 1.386 . S
C576 C577 1.395 . S
C577 C574 1.411 . S
C577 C576 1.395 . S
C577 C599 1.420 . S
O578 Eu534 2.558 . S
O578 C598 1.257 . S
O579 Eu534 2.612 . S
O579 Eu545 2.380 . S
O579 C590 1.276 . S
O580 Eu545 2.432 . S
O580 C597 1.264 . S
O581 Eu534 2.339 . S
O581 C597 1.254 . S
O582 Eu534 2.563 . S
O582 C590 1.235 . S
O583 Eu534 2.419 . S
O583 C598 1.249 . S
O584 Eu545 2.558 . S
O584 C609 1.257 . S
O585 Eu534 2.380 . S
O585 Eu545 2.612 . S
O585 C601 1.276 . S
O586 Eu534 2.432 . S
O586 C608 1.264 . S
O587 Eu545 2.339 . S
O587 C608 1.254 . S
O588 Eu545 2.563 . S
O588 C601 1.235 . S
O589 Eu545 2.419 . S
O589 C609 1.249 . S
C590 O579 1.276 . S
C590 O582 1.235 . S
C591 C593 1.393 . S
C591 C595 1.395 . S
C591 C598 1.492 . S
C592 C593 1.392 . S
C592 C594 1.386 . S
C593 C591 1.393 . S
C593 C592 1.392 . S
C593 H610 0.930 . S
C594 C592 1.386 . S
C594 C596 1.395 . S
C594 H611 0.930 . S
C595 C591 1.395 . S
C595 C596 1.379 . S
C595 H612 0.930 . S
C596 C594 1.395 . S
C596 C595 1.379 . S
C596 H613 0.930 . S
C597 O580 1.264 . S
C597 O581 1.254 . S
C598 Eu534 2.848 . S
C598 O578 1.257 . S
C598 O583 1.249 . S
C598 C591 1.492 . S
C599 H564 0.931 . S
C599 C577 1.420 . S
C599 C600 1.351 . S
C600 H562 0.930 . S
C600 C568 1.423 . S
C600 C599 1.351 . S
C601 O585 1.276 . S
C601 O588 1.235 . S
C602 C603 1.393 . S
C602 C606 1.395 . S
C602 C609 1.492 . S
C603 C602 1.393 . S
C603 C604 1.392 . S
C603 H614 0.930 . S
C604 C603 1.392 . S
C604 C605 1.386 . S
C605 C604 1.386 . S
C605 C607 1.395 . S
C605 H615 0.930 . S
C606 C602 1.395 . S
C606 C607 1.379 . S
C606 H616 0.930 . S
C607 C605 1.395 . S
C607 C606 1.379 . S
C607 H617 0.930 . S
C608 O586 1.264 . S
C608 O587 1.254 . S
C609 Eu545 2.848 . S
C609 O584 1.257 . S
C609 O589 1.249 . S
C609 C602 1.492 . S
H610 C593 0.930 . S
H611 C594 0.930 . S
H612 C595 0.930 . S
H613 C596 0.930 . S
H614 C603 0.930 . S
H615 C605 0.930 . S
H616 C606 0.930 . S
H617 C607 0.930 . S
Eu618 N649 2.657 . S
Eu618 N656 2.609 . S
Eu618 O662 2.558 . S
Eu618 O663 2.612 . S
Eu618 O665 2.339 . S
Eu618 O666 2.563 . S
Eu618 O667 2.419 . S
Eu618 O669 2.380 . S
Eu618 O670 2.432 . S
Eu618 C682 2.848 . S
C619 C622 1.429 . S
C619 C623 1.411 . S
C619 N626 1.377 . S
C620 C622 1.420 . S
C620 C624 1.423 . S
C620 C632 1.392 . S
C621 C623 1.420 . S
C621 C624 1.351 . S
C621 H644 0.931 . S
C622 C619 1.429 . S
C622 C620 1.420 . S
C622 N630 1.362 . S
C623 C619 1.411 . S
C623 C621 1.420 . S
C623 C628 1.395 . S
C624 C620 1.423 . S
C624 C621 1.351 . S
C624 H636 0.930 . S
C625 C627 1.400 . S
C625 C628 1.386 . S
C625 H637 0.930 . S
N626 C619 1.377 . S
N626 C627 1.321 . S
N626 Eu629 2.609 . S
C627 C625 1.400 . S
C627 N626 1.321 . S
C627 H634 0.930 . S
C628 C623 1.395 . S
C628 C625 1.386 . S
C628 H647 0.930 . S
Eu629 N626 2.609 . S
Eu629 N630 2.657 . S
Eu629 O663 2.380 . S
Eu629 O664 2.432 . S
Eu629 O668 2.558 . S
Eu629 O669 2.612 . S
Eu629 O671 2.339 . S
Eu629 O672 2.563 . S
Eu629 O673 2.419 . S
Eu629 C693 2.848 . S
N630 C622 1.362 . S
N630 Eu629 2.657 . S
N630 C631 1.334 . S
C631 N630 1.334 . S
C631 C633 1.413 . S
C631 H638 0.929 . S
C632 C620 1.392 . S
C632 C633 1.367 . S
C632 H640 0.930 . S
C633 C631 1.413 . S
C633 C632 1.367 . S
C633 H635 0.930 . S
H634 C627 0.930 . S
H635 C633 0.930 . S
H636 C624 0.930 . S
H637 C625 0.930 . S
H638 C631 0.929 . S
H639 C653 0.930 . S
H640 C632 0.930 . S
H641 C659 0.930 . S
H642 C650 0.929 . S
H643 C657 0.930 . S
H644 C621 0.931 . S
H645 C651 0.930 . S
H646 C684 0.930 . S
H647 C628 0.930 . S
H648 C683 0.931 . S
N649 Eu618 2.657 . S
N649 C650 1.334 . S
N649 C654 1.362 . S
C650 H642 0.929 . S
C650 N649 1.334 . S
C650 C653 1.413 . S
C651 H645 0.930 . S
C651 C652 1.392 . S
C651 C653 1.367 . S
C652 C651 1.392 . S
C652 C654 1.420 . S
C652 C684 1.423 . S
C653 H639 0.930 . S
C653 C650 1.413 . S
C653 C651 1.367 . S
C654 N649 1.362 . S
C654 C652 1.420 . S
C654 C658 1.429 . S
H655 C660 0.930 . S
N656 Eu618 2.609 . S
N656 C658 1.377 . S
N656 C659 1.321 . S
C657 H643 0.930 . S
C657 C659 1.400 . S
C657 C660 1.386 . S
C658 C654 1.429 . S
C658 N656 1.377 . S
C658 C661 1.411 . S
C659 H641 0.930 . S
C659 N656 1.321 . S
C659 C657 1.400 . S
C660 H655 0.930 . S
C660 C657 1.386 . S
C660 C661 1.395 . S
C661 C658 1.411 . S
C661 C660 1.395 . S
C661 C683 1.420 . S
O662 Eu618 2.558 . S
O662 C682 1.257 . S
O663 Eu618 2.612 . S
O663 Eu629 2.380 . S
O663 C674 1.276 . S
O664 Eu629 2.432 . S
O664 C681 1.264 . S
O665 Eu618 2.339 . S
O665 C681 1.254 . S
O666 Eu618 2.563 . S
O666 C674 1.235 . S
O667 Eu618 2.419 . S
O667 C682 1.249 . S
O668 Eu629 2.558 . S
O668 C693 1.257 . S
O669 Eu618 2.380 . S
O669 Eu629 2.612 . S
O669 C685 1.276 . S
O670 Eu618 2.432 . S
O670 C692 1.264 . S
O671 Eu629 2.339 . S
O671 C692 1.254 . S
O672 Eu629 2.563 . S
O672 C685 1.235 . S
O673 Eu629 2.419 . S
O673 C693 1.249 . S
C674 O663 1.276 . S
C674 O666 1.235 . S
C675 C677 1.393 . S
C675 C679 1.395 . S
C675 C682 1.492 . S
C676 C677 1.392 . S
C676 C678 1.386 . S
C677 C675 1.393 . S
C677 C676 1.392 . S
C677 H694 0.930 . S
C678 C676 1.386 . S
C678 C680 1.395 . S
C678 H695 0.930 . S
C679 C675 1.395 . S
C679 C680 1.379 . S
C679 H696 0.930 . S
C680 C678 1.395 . S
C680 C679 1.379 . S
C680 H697 0.930 . S
C681 O664 1.264 . S
C681 O665 1.254 . S
C682 Eu618 2.848 . S
C682 O662 1.257 . S
C682 O667 1.249 . S
C682 C675 1.492 . S
C683 H648 0.931 . S
C683 C661 1.420 . S
C683 C684 1.351 . S
C684 H646 0.930 . S
C684 C652 1.423 . S
C684 C683 1.351 . S
C685 O669 1.276 . S
C685 O672 1.235 . S
C686 C687 1.393 . S
C686 C690 1.395 . S
C686 C693 1.492 . S
C687 C686 1.393 . S
C687 C688 1.392 . S
C687 H698 0.930 . S
C688 C687 1.392 . S
C688 C689 1.386 . S
C689 C688 1.386 . S
C689 C691 1.395 . S
C689 H699 0.930 . S
C690 C686 1.395 . S
C690 C691 1.379 . S
C690 H700 0.930 . S
C691 C689 1.395 . S
C691 C690 1.379 . S
C691 H701 0.930 . S
C692 O670 1.264 . S
C692 O671 1.254 . S
C693 Eu629 2.848 . S
C693 O668 1.257 . S
C693 O673 1.249 . S
C693 C686 1.492 . S
H694 C677 0.930 . S
H695 C678 0.930 . S
H696 C679 0.930 . S
H697 C680 0.930 . S
H698 C687 0.930 . S
H699 C689 0.930 . S
H700 C690 0.930 . S
H701 C691 0.930 . S
Eu702 N733 2.657 . S
Eu702 N740 2.609 . S
Eu702 O746 2.558 . S
Eu702 O747 2.612 . S
Eu702 O749 2.339 . S
Eu702 O750 2.563 . S
Eu702 O751 2.419 . S
Eu702 O753 2.380 . S
Eu702 O754 2.432 . S
Eu702 C766 2.848 . S
C703 C706 1.429 . S
C703 C707 1.411 . S
C703 N710 1.377 . S
C704 C706 1.420 . S
C704 C708 1.423 . S
C704 C716 1.392 . S
C705 C707 1.420 . S
C705 C708 1.351 . S
C705 H728 0.931 . S
C706 C703 1.429 . S
C706 C704 1.420 . S
C706 N714 1.362 . S
C707 C703 1.411 . S
C707 C705 1.420 . S
C707 C712 1.395 . S
C708 C704 1.423 . S
C708 C705 1.351 . S
C708 H720 0.930 . S
C709 C711 1.400 . S
C709 C712 1.386 . S
C709 H721 0.930 . S
N710 C703 1.377 . S
N710 C711 1.321 . S
N710 Eu713 2.609 . S
C711 C709 1.400 . S
C711 N710 1.321 . S
C711 H718 0.930 . S
C712 C707 1.395 . S
C712 C709 1.386 . S
C712 H731 0.930 . S
Eu713 N710 2.609 . S
Eu713 N714 2.657 . S
Eu713 O747 2.380 . S
Eu713 O748 2.432 . S
Eu713 O752 2.558 . S
Eu713 O753 2.612 . S
Eu713 O755 2.339 . S
Eu713 O756 2.563 . S
Eu713 O757 2.419 . S
Eu713 C777 2.848 . S
N714 C706 1.362 . S
N714 Eu713 2.657 . S
N714 C715 1.334 . S
C715 N714 1.334 . S
C715 C717 1.413 . S
C715 H722 0.929 . S
C716 C704 1.392 . S
C716 C717 1.367 . S
C716 H724 0.930 . S
C717 C715 1.413 . S
C717 C716 1.367 . S
C717 H719 0.930 . S
H718 C711 0.930 . S
H719 C717 0.930 . S
H720 C708 0.930 . S
H721 C709 0.930 . S
H722 C715 0.929 . S
H723 C737 0.930 . S
H724 C716 0.930 . S
H725 C743 0.930 . S
H726 C734 0.929 . S
H727 C741 0.930 . S
H728 C705 0.931 . S
H729 C735 0.930 . S
H730 C768 0.930 . S
H731 C712 0.930 . S
H732 C767 0.931 . S
N733 Eu702 2.657 . S
N733 C734 1.334 . S
N733 C738 1.362 . S
C734 H726 0.929 . S
C734 N733 1.334 . S
C734 C737 1.413 . S
C735 H729 0.930 . S
C735 C736 1.392 . S
C735 C737 1.367 . S
C736 C735 1.392 . S
C736 C738 1.420 . S
C736 C768 1.423 . S
C737 H723 0.930 . S
C737 C734 1.413 . S
C737 C735 1.367 . S
C738 N733 1.362 . S
C738 C736 1.420 . S
C738 C742 1.429 . S
H739 C744 0.930 . S
N740 Eu702 2.609 . S
N740 C742 1.377 . S
N740 C743 1.321 . S
C741 H727 0.930 . S
C741 C743 1.400 . S
C741 C744 1.386 . S
C742 C738 1.429 . S
C742 N740 1.377 . S
C742 C745 1.411 . S
C743 H725 0.930 . S
C743 N740 1.321 . S
C743 C741 1.400 . S
C744 H739 0.930 . S
C744 C741 1.386 . S
C744 C745 1.395 . S
C745 C742 1.411 . S
C745 C744 1.395 . S
C745 C767 1.420 . S
O746 Eu702 2.558 . S
O746 C766 1.257 . S
O747 Eu702 2.612 . S
O747 Eu713 2.380 . S
O747 C758 1.276 . S
O748 Eu713 2.432 . S
O748 C765 1.264 . S
O749 Eu702 2.339 . S
O749 C765 1.254 . S
O750 Eu702 2.563 . S
O750 C758 1.235 . S
O751 Eu702 2.419 . S
O751 C766 1.249 . S
O752 Eu713 2.558 . S
O752 C777 1.257 . S
O753 Eu702 2.380 . S
O753 Eu713 2.612 . S
O753 C769 1.276 . S
O754 Eu702 2.432 . S
O754 C776 1.264 . S
O755 Eu713 2.339 . S
O755 C776 1.254 . S
O756 Eu713 2.563 . S
O756 C769 1.235 . S
O757 Eu713 2.419 . S
O757 C777 1.249 . S
C758 O747 1.276 . S
C758 O750 1.235 . S
C759 C761 1.393 . S
C759 C763 1.395 . S
C759 C766 1.492 . S
C760 C761 1.392 . S
C760 C762 1.386 . S
C761 C759 1.393 . S
C761 C760 1.392 . S
C761 H778 0.930 . S
C762 C760 1.386 . S
C762 C764 1.395 . S
C762 H779 0.930 . S
C763 C759 1.395 . S
C763 C764 1.379 . S
C763 H780 0.930 . S
C764 C762 1.395 . S
C764 C763 1.379 . S
C764 H781 0.930 . S
C765 O748 1.264 . S
C765 O749 1.254 . S
C766 Eu702 2.848 . S
C766 O746 1.257 . S
C766 O751 1.249 . S
C766 C759 1.492 . S
C767 H732 0.931 . S
C767 C745 1.420 . S
C767 C768 1.351 . S
C768 H730 0.930 . S
C768 C736 1.423 . S
C768 C767 1.351 . S
C769 O753 1.276 . S
C769 O756 1.235 . S
C770 C771 1.393 . S
C770 C774 1.395 . S
C770 C777 1.492 . S
C771 C770 1.393 . S
C771 C772 1.392 . S
C771 H782 0.930 . S
C772 C771 1.392 . S
C772 C773 1.386 . S
C773 C772 1.386 . S
C773 C775 1.395 . S
C773 H783 0.930 . S
C774 C770 1.395 . S
C774 C775 1.379 . S
C774 H784 0.930 . S
C775 C773 1.395 . S
C775 C774 1.379 . S
C775 H785 0.930 . S
C776 O754 1.264 . S
C776 O755 1.254 . S
C777 Eu713 2.848 . S
C777 O752 1.257 . S
C777 O757 1.249 . S
C777 C770 1.492 . S
H778 C761 0.930 . S
H779 C762 0.930 . S
H780 C763 0.930 . S
H781 C764 0.930 . S
H782 C771 0.930 . S
H783 C773 0.930 . S
H784 C774 0.930 . S
H785 C775 0.930 . S
Eu786 N817 2.657 . S
Eu786 N824 2.609 . S
Eu786 O830 2.558 . S
Eu786 O831 2.612 . S
Eu786 O833 2.339 . S
Eu786 O834 2.563 . S
Eu786 O835 2.419 . S
Eu786 O837 2.380 . S
Eu786 O838 2.432 . S
Eu786 C850 2.848 . S
C787 C790 1.429 . S
C787 C791 1.411 . S
C787 N794 1.377 . S
C788 C790 1.420 . S
C788 C792 1.423 . S
C788 C800 1.392 . S
C789 C791 1.420 . S
C789 C792 1.351 . S
C789 H812 0.931 . S
C790 C787 1.429 . S
C790 C788 1.420 . S
C790 N798 1.362 . S
C791 C787 1.411 . S
C791 C789 1.420 . S
C791 C796 1.395 . S
C792 C788 1.423 . S
C792 C789 1.351 . S
C792 H804 0.930 . S
C793 C795 1.400 . S
C793 C796 1.386 . S
C793 H805 0.930 . S
N794 C787 1.377 . S
N794 C795 1.321 . S
N794 Eu797 2.609 . S
C795 C793 1.400 . S
C795 N794 1.321 . S
C795 H802 0.930 . S
C796 C791 1.395 . S
C796 C793 1.386 . S
C796 H815 0.930 . S
Eu797 N794 2.609 . S
Eu797 N798 2.657 . S
Eu797 O831 2.380 . S
Eu797 O832 2.432 . S
Eu797 O836 2.558 . S
Eu797 O837 2.612 . S
Eu797 O839 2.339 . S
Eu797 O840 2.563 . S
Eu797 O841 2.419 . S
Eu797 C861 2.848 . S
N798 C790 1.362 . S
N798 Eu797 2.657 . S
N798 C799 1.334 . S
C799 N798 1.334 . S
C799 C801 1.413 . S
C799 H806 0.929 . S
C800 C788 1.392 . S
C800 C801 1.367 . S
C800 H808 0.930 . S
C801 C799 1.413 . S
C801 C800 1.367 . S
C801 H803 0.930 . S
H802 C795 0.930 . S
H803 C801 0.930 . S
H804 C792 0.930 . S
H805 C793 0.930 . S
H806 C799 0.929 . S
H807 C821 0.930 . S
H808 C800 0.930 . S
H809 C827 0.930 . S
H810 C818 0.929 . S
H811 C825 0.930 . S
H812 C789 0.931 . S
H813 C819 0.930 . S
H814 C852 0.930 . S
H815 C796 0.930 . S
H816 C851 0.931 . S
N817 Eu786 2.657 . S
N817 C818 1.334 . S
N817 C822 1.362 . S
C818 H810 0.929 . S
C818 N817 1.334 . S
C818 C821 1.413 . S
C819 H813 0.930 . S
C819 C820 1.392 . S
C819 C821 1.367 . S
C820 C819 1.392 . S
C820 C822 1.420 . S
C820 C852 1.423 . S
C821 H807 0.930 . S
C821 C818 1.413 . S
C821 C819 1.367 . S
C822 N817 1.362 . S
C822 C820 1.420 . S
C822 C826 1.429 . S
H823 C828 0.930 . S
N824 Eu786 2.609 . S
N824 C826 1.377 . S
N824 C827 1.321 . S
C825 H811 0.930 . S
C825 C827 1.400 . S
C825 C828 1.386 . S
C826 C822 1.429 . S
C826 N824 1.377 . S
C826 C829 1.411 . S
C827 H809 0.930 . S
C827 N824 1.321 . S
C827 C825 1.400 . S
C828 H823 0.930 . S
C828 C825 1.386 . S
C828 C829 1.395 . S
C829 C826 1.411 . S
C829 C828 1.395 . S
C829 C851 1.420 . S
O830 Eu786 2.558 . S
O830 C850 1.257 . S
O831 Eu786 2.612 . S
O831 Eu797 2.380 . S
O831 C842 1.276 . S
O832 Eu797 2.432 . S
O832 C849 1.264 . S
O833 Eu786 2.339 . S
O833 C849 1.254 . S
O834 Eu786 2.563 . S
O834 C842 1.235 . S
O835 Eu786 2.419 . S
O835 C850 1.249 . S
O836 Eu797 2.558 . S
O836 C861 1.257 . S
O837 Eu786 2.380 . S
O837 Eu797 2.612 . S
O837 C853 1.276 . S
O838 Eu786 2.432 . S
O838 C860 1.264 . S
O839 Eu797 2.339 . S
O839 C860 1.254 . S
O840 Eu797 2.563 . S
O840 C853 1.235 . S
O841 Eu797 2.419 . S
O841 C861 1.249 . S
C842 O831 1.276 . S
C842 O834 1.235 . S
C843 C845 1.393 . S
C843 C847 1.395 . S
C843 C850 1.492 . S
C844 C845 1.392 . S
C844 C846 1.386 . S
C845 C843 1.393 . S
C845 C844 1.392 . S
C845 H862 0.930 . S
C846 C844 1.386 . S
C846 C848 1.395 . S
C846 H863 0.930 . S
C847 C843 1.395 . S
C847 C848 1.379 . S
C847 H864 0.930 . S
C848 C846 1.395 . S
C848 C847 1.379 . S
C848 H865 0.930 . S
C849 O832 1.264 . S
C849 O833 1.254 . S
C850 Eu786 2.848 . S
C850 O830 1.257 . S
C850 O835 1.249 . S
C850 C843 1.492 . S
C851 H816 0.931 . S
C851 C829 1.420 . S
C851 C852 1.351 . S
C852 H814 0.930 . S
C852 C820 1.423 . S
C852 C851 1.351 . S
C853 O837 1.276 . S
C853 O840 1.235 . S
C854 C855 1.393 . S
C854 C858 1.395 . S
C854 C861 1.492 . S
C855 C854 1.393 . S
C855 C856 1.392 . S
C855 H866 0.930 . S
C856 C855 1.392 . S
C856 C857 1.386 . S
C857 C856 1.386 . S
C857 C859 1.395 . S
C857 H867 0.930 . S
C858 C854 1.395 . S
C858 C859 1.379 . S
C858 H868 0.930 . S
C859 C857 1.395 . S
C859 C858 1.379 . S
C859 H869 0.930 . S
C860 O838 1.264 . S
C860 O839 1.254 . S
C861 Eu797 2.848 . S
C861 O836 1.257 . S
C861 O841 1.249 . S
C861 C854 1.492 . S
H862 C845 0.930 . S
H863 C846 0.930 . S
H864 C847 0.930 . S
H865 C848 0.930 . S
H866 C855 0.930 . S
H867 C857 0.930 . S
H868 C858 0.930 . S
H869 C859 0.930 . S
Eu870 N901 2.657 . S
Eu870 N908 2.609 . S
Eu870 O914 2.558 . S
Eu870 O915 2.612 . S
Eu870 O917 2.339 . S
Eu870 O918 2.563 . S
Eu870 O919 2.419 . S
Eu870 O921 2.380 . S
Eu870 O922 2.432 . S
Eu870 C934 2.848 . S
C871 C874 1.429 . S
C871 C875 1.411 . S
C871 N878 1.377 . S
C872 C874 1.420 . S
C872 C876 1.423 . S
C872 C884 1.392 . S
C873 C875 1.420 . S
C873 C876 1.351 . S
C873 H896 0.931 . S
C874 C871 1.429 . S
C874 C872 1.420 . S
C874 N882 1.362 . S
C875 C871 1.411 . S
C875 C873 1.420 . S
C875 C880 1.395 . S
C876 C872 1.423 . S
C876 C873 1.351 . S
C876 H888 0.930 . S
C877 C879 1.400 . S
C877 C880 1.386 . S
C877 H889 0.930 . S
N878 C871 1.377 . S
N878 C879 1.321 . S
N878 Eu881 2.609 . S
C879 C877 1.400 . S
C879 N878 1.321 . S
C879 H886 0.930 . S
C880 C875 1.395 . S
C880 C877 1.386 . S
C880 H899 0.930 . S
Eu881 N878 2.609 . S
Eu881 N882 2.657 . S
Eu881 O915 2.380 . S
Eu881 O916 2.432 . S
Eu881 O920 2.558 . S
Eu881 O921 2.612 . S
Eu881 O923 2.339 . S
Eu881 O924 2.563 . S
Eu881 O925 2.419 . S
Eu881 C945 2.848 . S
N882 C874 1.362 . S
N882 Eu881 2.657 . S
N882 C883 1.334 . S
C883 N882 1.334 . S
C883 C885 1.413 . S
C883 H890 0.929 . S
C884 C872 1.392 . S
C884 C885 1.367 . S
C884 H892 0.930 . S
C885 C883 1.413 . S
C885 C884 1.367 . S
C885 H887 0.930 . S
H886 C879 0.930 . S
H887 C885 0.930 . S
H888 C876 0.930 . S
H889 C877 0.930 . S
H890 C883 0.929 . S
H891 C905 0.930 . S
H892 C884 0.930 . S
H893 C911 0.930 . S
H894 C902 0.929 . S
H895 C909 0.930 . S
H896 C873 0.931 . S
H897 C903 0.930 . S
H898 C936 0.930 . S
H899 C880 0.930 . S
H900 C935 0.931 . S
N901 Eu870 2.657 . S
N901 C902 1.334 . S
N901 C906 1.362 . S
C902 H894 0.929 . S
C902 N901 1.334 . S
C902 C905 1.413 . S
C903 H897 0.930 . S
C903 C904 1.392 . S
C903 C905 1.367 . S
C904 C903 1.392 . S
C904 C906 1.420 . S
C904 C936 1.423 . S
C905 H891 0.930 . S
C905 C902 1.413 . S
C905 C903 1.367 . S
C906 N901 1.362 . S
C906 C904 1.420 . S
C906 C910 1.429 . S
H907 C912 0.930 . S
N908 Eu870 2.609 . S
N908 C910 1.377 . S
N908 C911 1.321 . S
C909 H895 0.930 . S
C909 C911 1.400 . S
C909 C912 1.386 . S
C910 C906 1.429 . S
C910 N908 1.377 . S
C910 C913 1.411 . S
C911 H893 0.930 . S
C911 N908 1.321 . S
C911 C909 1.400 . S
C912 H907 0.930 . S
C912 C909 1.386 . S
C912 C913 1.395 . S
C913 C910 1.411 . S
C913 C912 1.395 . S
C913 C935 1.420 . S
O914 Eu870 2.558 . S
O914 C934 1.257 . S
O915 Eu870 2.612 . S
O915 Eu881 2.380 . S
O915 C926 1.276 . S
O916 Eu881 2.432 . S
O916 C933 1.264 . S
O917 Eu870 2.339 . S
O917 C933 1.254 . S
O918 Eu870 2.563 . S
O918 C926 1.235 . S
O919 Eu870 2.419 . S
O919 C934 1.249 . S
O920 Eu881 2.558 . S
O920 C945 1.257 . S
O921 Eu870 2.380 . S
O921 Eu881 2.612 . S
O921 C937 1.276 . S
O922 Eu870 2.432 . S
O922 C944 1.264 . S
O923 Eu881 2.339 . S
O923 C944 1.254 . S
O924 Eu881 2.563 . S
O924 C937 1.235 . S
O925 Eu881 2.419 . S
O925 C945 1.249 . S
C926 O915 1.276 . S
C926 O918 1.235 . S
C927 C929 1.393 . S
C927 C931 1.395 . S
C927 C934 1.492 . S
C928 C929 1.392 . S
C928 C930 1.386 . S
C929 C927 1.393 . S
C929 C928 1.392 . S
C929 H946 0.930 . S
C930 C928 1.386 . S
C930 C932 1.395 . S
C930 H947 0.930 . S
C931 C927 1.395 . S
C931 C932 1.379 . S
C931 H948 0.930 . S
C932 C930 1.395 . S
C932 C931 1.379 . S
C932 H949 0.930 . S
C933 O916 1.264 . S
C933 O917 1.254 . S
C934 Eu870 2.848 . S
C934 O914 1.257 . S
C934 O919 1.249 . S
C934 C927 1.492 . S
C935 H900 0.931 . S
C935 C913 1.420 . S
C935 C936 1.351 . S
C936 H898 0.930 . S
C936 C904 1.423 . S
C936 C935 1.351 . S
C937 O921 1.276 . S
C937 O924 1.235 . S
C938 C939 1.393 . S
C938 C942 1.395 . S
C938 C945 1.492 . S
C939 C938 1.393 . S
C939 C940 1.392 . S
C939 H950 0.930 . S
C940 C939 1.392 . S
C940 C941 1.386 . S
C941 C940 1.386 . S
C941 C943 1.395 . S
C941 H951 0.930 . S
C942 C938 1.395 . S
C942 C943 1.379 . S
C942 H952 0.930 . S
C943 C941 1.395 . S
C943 C942 1.379 . S
C943 H953 0.930 . S
C944 O922 1.264 . S
C944 O923 1.254 . S
C945 Eu881 2.848 . S
C945 O920 1.257 . S
C945 O925 1.249 . S
C945 C938 1.492 . S
H946 C929 0.930 . S
H947 C930 0.930 . S
H948 C931 0.930 . S
H949 C932 0.930 . S
H950 C939 0.930 . S
H951 C941 0.930 . S
H952 C942 0.930 . S
H953 C943 0.930 . S
C954 C955 1.349 . S
C954 C956 1.327 . S
C954 H979 0.950 . S
C955 C954 1.349 . S
C955 C971 1.349 . S
C956 C954 1.327 . S
C956 C975 1.429 . S
C956 H980 0.950 . S
C957 C974 1.574 . S
C957 C976 1.368 . S
C957 H981 0.949 . S
H958 C962 0.949 . S
C959 C960 1.349 . S
C959 C961 1.327 . S
C959 H982 0.950 . S
C960 C959 1.349 . S
C960 C972 1.349 . S
C961 C959 1.327 . S
C961 C977 1.429 . S
C961 H983 0.950 . S
C962 H958 0.949 . S
C962 C970 1.574 . S
C962 C978 1.368 . S
H963 C971 0.950 . S
H964 C969 0.950 . S
H965 C970 0.949 . S
H966 C972 1.016 . S
H967 C973 0.950 . S
H968 C974 0.949 . S
C969 H964 0.950 . S
C969 C971 1.327 . S
C969 C975 1.429 . S
C970 C962 1.574 . S
C970 H965 0.949 . S
C970 C976 1.368 . S
C971 C955 1.349 . S
C971 H963 0.950 . S
C971 C969 1.327 . S
C972 C960 1.349 . S
C972 H966 1.016 . S
C972 C973 1.327 . S
C973 H967 0.950 . S
C973 C972 1.327 . S
C973 C977 1.429 . S
C974 C957 1.574 . S
C974 H968 0.949 . S
C974 C978 1.368 . S
C975 C956 1.429 . S
C975 C969 1.429 . S
C975 C976 1.523 . S
C976 C957 1.368 . S
C976 C970 1.368 . S
C976 C975 1.523 . S
C977 C961 1.429 . S
C977 C973 1.429 . S
C977 C978 1.523 . S
C978 C962 1.368 . S
C978 C974 1.368 . S
C978 C977 1.523 . S
H979 C954 0.950 . S
H980 C956 0.950 . S
H981 C957 0.949 . S
H982 C959 0.950 . S
H983 C961 0.950 . S
C984 C985 1.349 . S
C984 C986 1.327 . S
C984 H1009 0.950 . S
C985 C984 1.349 . S
C985 C1001 1.349 . S
C986 C984 1.327 . S
C986 C1005 1.429 . S
C986 H1010 0.950 . S
C987 C1004 1.574 . S
C987 C1006 1.368 . S
C987 H1011 0.949 . S
H988 C992 0.949 . S
C989 C990 1.349 . S
C989 C991 1.327 . S
C989 H1012 0.950 . S
C990 C989 1.349 . S
C990 C1002 1.349 . S
C991 C989 1.327 . S
C991 C1007 1.429 . S
C991 H1013 0.950 . S
C992 H988 0.949 . S
C992 C1000 1.574 . S
C992 C1008 1.368 . S
H993 C1001 0.950 . S
H994 C999 0.950 . S
H995 C1000 0.949 . S
H996 C1002 0.950 . S
H997 C1003 0.950 . S
H998 C1004 0.949 . S
C999 H994 0.950 . S
C999 C1001 1.327 . S
C999 C1005 1.429 . S
C1000 C992 1.574 . S
C1000 H995 0.949 . S
C1000 C1006 1.368 . S
C1001 C985 1.349 . S
C1001 H993 0.950 . S
C1001 C999 1.327 . S
C1002 C990 1.349 . S
C1002 H996 0.950 . S
C1002 C1003 1.327 . S
C1003 H997 0.950 . S
C1003 C1002 1.327 . S
C1003 C1007 1.429 . S
C1004 C987 1.574 . S
C1004 H998 0.949 . S
C1004 C1008 1.368 . S
C1005 C986 1.429 . S
C1005 C999 1.429 . S
C1005 C1006 1.523 . S
C1006 C987 1.368 . S
C1006 C1000 1.368 . S
C1006 C1005 1.523 . S
C1007 C991 1.429 . S
C1007 C1003 1.429 . S
C1007 C1008 1.523 . S
C1008 C992 1.368 . S
C1008 C1004 1.368 . S
C1008 C1007 1.523 . S
H1009 C984 0.950 . S
H1010 C986 0.950 . S
H1011 C987 0.949 . S
H1012 C989 0.950 . S
H1013 C991 0.950 . S
C1014 C1015 1.349 . S
C1014 C1016 1.327 . S
C1014 H1039 0.950 . S
C1015 C1014 1.349 . S
C1015 C1031 1.349 . S
C1016 C1014 1.327 . S
C1016 C1035 1.429 . S
C1016 H1040 0.950 . S
C1017 C1034 1.574 . S
C1017 C1036 1.368 . S
C1017 H1041 0.949 . S
H1018 C1022 0.949 . S
C1019 C1020 1.349 . S
C1019 C1021 1.327 . S
C1019 H1042 0.950 . S
C1020 C1019 1.349 . S
C1020 C1032 1.349 . S
C1021 C1019 1.327 . S
C1021 C1037 1.429 . S
C1021 H1043 0.950 . S
C1022 H1018 0.949 . S
C1022 C1030 1.574 . S
C1022 C1038 1.368 . S
H1023 C1031 0.950 . S
H1024 C1029 0.950 . S
H1025 C1030 0.949 . S
H1026 C1032 0.950 . S
H1027 C1033 0.950 . S
H1028 C1034 0.949 . S
C1029 H1024 0.950 . S
C1029 C1031 1.327 . S
C1029 C1035 1.429 . S
C1030 C1022 1.574 . S
C1030 H1025 0.949 . S
C1030 C1036 1.368 . S
C1031 C1015 1.349 . S
C1031 H1023 0.950 . S
C1031 C1029 1.327 . S
C1032 C1020 1.349 . S
C1032 H1026 0.950 . S
C1032 C1033 1.327 . S
C1033 H1027 0.950 . S
C1033 C1032 1.327 . S
C1033 C1037 1.429 . S
C1034 C1017 1.574 . S
C1034 H1028 0.949 . S
C1034 C1038 1.368 . S
C1035 C1016 1.429 . S
C1035 C1029 1.429 . S
C1035 C1036 1.523 . S
C1036 C1017 1.368 . S
C1036 C1030 1.368 . S
C1036 C1035 1.523 . S
C1037 C1021 1.429 . S
C1037 C1033 1.429 . S
C1037 C1038 1.523 . S
C1038 C1022 1.368 . S
C1038 C1034 1.368 . S
C1038 C1037 1.523 . S
H1039 C1014 0.950 . S
H1040 C1016 0.950 . S
H1041 C1017 0.949 . S
H1042 C1019 0.950 . S
H1043 C1021 0.950 . S
C1044 C1045 1.349 . S
C1044 C1046 1.327 . S
C1044 H1069 0.950 . S
C1045 C1044 1.349 . S
C1045 C1061 1.349 . S
C1046 C1044 1.327 . S
C1046 C1065 1.429 . S
C1046 H1070 0.950 . S
C1047 C1064 1.574 . S
C1047 C1066 1.368 . S
C1047 H1071 0.949 . S
H1048 C1052 0.949 . S
C1049 C1050 1.349 . S
C1049 C1051 1.327 . S
C1049 H1072 0.950 . S
C1050 C1049 1.349 . S
C1050 C1062 1.349 . S
C1051 C1049 1.327 . S
C1051 C1067 1.429 . S
C1051 H1073 0.950 . S
C1052 H1048 0.949 . S
C1052 C1060 1.574 . S
C1052 C1068 1.368 . S
H1053 C1061 0.950 . S
H1054 C1059 0.950 . S
H1055 C1060 0.949 . S
H1056 C1062 0.943 1_554 S
H1057 C1063 0.950 . S
H1058 C1064 0.949 . S
C1059 H1054 0.950 . S
C1059 C1061 1.327 . S
C1059 C1065 1.429 . S
C1060 C1052 1.574 . S
C1060 H1055 0.949 . S
C1060 C1066 1.368 . S
C1061 C1045 1.349 . S
C1061 H1053 0.950 . S
C1061 C1059 1.327 . S
C1062 C1050 1.349 . S
C1062 H1056 0.943 1_556 S
C1062 C1063 1.327 . S
C1063 H1057 0.950 . S
C1063 C1062 1.327 . S
C1063 C1067 1.429 . S
C1064 C1047 1.574 . S
C1064 H1058 0.949 . S
C1064 C1068 1.368 . S
C1065 C1046 1.429 . S
C1065 C1059 1.429 . S
C1065 C1066 1.523 . S
C1066 C1047 1.368 . S
C1066 C1060 1.368 . S
C1066 C1065 1.523 . S
C1067 C1051 1.429 . S
C1067 C1063 1.429 . S
C1067 C1068 1.523 . S
C1068 C1052 1.368 . S
C1068 C1064 1.368 . S
C1068 C1067 1.523 . S
H1069 C1044 0.950 . S
H1070 C1046 0.950 . S
H1071 C1047 0.949 . S
H1072 C1049 0.950 . S
H1073 C1051 0.950 . S
C1074 C1075 1.349 . S
C1074 C1076 1.327 . S
C1074 H1099 0.950 . S
C1075 C1074 1.349 . S
C1075 C1091 1.349 . S
C1076 C1074 1.327 . S
C1076 C1095 1.429 . S
C1076 H1100 0.950 . S
C1077 C1094 1.574 . S
C1077 C1096 1.368 . S
C1077 H1101 0.949 . S
H1078 C1082 0.949 1_554 S
C1079 C1080 1.349 . S
C1079 C1081 1.327 . S
C1079 H1102 0.950 . S
C1080 C1079 1.349 . S
C1080 C1092 1.349 1_556 S
C1081 C1079 1.327 . S
C1081 C1097 1.429 . S
C1081 H1103 0.950 . S
C1082 H1078 0.949 1_556 S
C1082 C1090 1.574 . S
C1082 C1098 1.368 . S
H1083 C1091 0.950 . S
H1084 C1089 0.950 . S
H1085 C1090 0.949 . S
H1086 C1092 0.950 . S
H1087 C1093 0.950 . S
H1088 C1094 0.949 . S
C1089 H1084 0.950 . S
C1089 C1091 1.327 . S
C1089 C1095 1.429 . S
C1090 C1082 1.574 . S
C1090 H1085 0.949 . S
C1090 C1096 1.368 . S
C1091 C1075 1.349 . S
C1091 H1083 0.950 . S
C1091 C1089 1.327 . S
C1092 C1080 1.349 1_554 S
C1092 H1086 0.950 . S
C1092 C1093 1.327 . S
C1093 H1087 0.950 . S
C1093 C1092 1.327 . S
C1093 C1097 1.429 1_554 S
C1094 C1077 1.574 . S
C1094 H1088 0.949 . S
C1094 C1098 1.368 . S
C1095 C1076 1.429 . S
C1095 C1089 1.429 . S
C1095 C1096 1.523 . S
C1096 C1077 1.368 . S
C1096 C1090 1.368 . S
C1096 C1095 1.523 . S
C1097 C1081 1.429 . S
C1097 C1093 1.429 1_556 S
C1097 C1098 1.523 . S
C1098 C1082 1.368 . S
C1098 C1094 1.368 . S
C1098 C1097 1.523 . S
H1099 C1074 0.950 . S
H1100 C1076 0.950 . S
H1101 C1077 0.949 . S
H1102 C1079 0.950 . S
H1103 C1081 0.950 . S
C1104 C1105 1.349 . S
C1104 C1106 1.327 . S
C1104 H1129 0.950 . S
C1105 C1104 1.349 . S
C1105 C1121 1.349 . S
C1106 C1104 1.327 . S
C1106 C1125 1.429 . S
C1106 H1130 0.950 . S
C1107 C1124 1.574 . S
C1107 C1126 1.368 . S
C1107 H1131 0.949 . S
H1108 C1112 0.949 . S
C1109 C1110 1.302 1_554 S
C1109 C1111 1.327 . S
C1109 H1132 0.950 . S
C1110 C1109 1.302 1_556 S
C1110 C1122 1.417 . S
C1111 C1109 1.327 . S
C1111 C1127 1.429 1_554 S
C1111 H1133 0.950 . S
C1112 H1108 0.949 . S
C1112 C1120 1.574 . S
C1112 C1128 1.368 . S
H1113 C1121 0.950 . S
H1114 C1119 0.950 . S
H1115 C1120 0.949 . S
H1116 C1122 0.950 . S
H1117 C1123 0.950 . S
H1118 C1124 0.949 1_554 S
C1119 H1114 0.950 . S
C1119 C1121 1.327 . S
C1119 C1125 1.429 . S
C1120 C1112 1.574 . S
C1120 H1115 0.949 . S
C1120 C1126 1.368 . S
C1121 C1105 1.349 . S
C1121 H1113 0.950 . S
C1121 C1119 1.327 . S
C1122 C1110 1.417 . S
C1122 H1116 0.950 . S
C1122 C1123 1.327 . S
C1123 H1117 0.950 . S
C1123 C1122 1.327 . S
C1123 C1127 1.429 . S
C1124 C1107 1.574 . S
C1124 H1118 0.949 1_556 S
C1124 C1128 1.368 . S
C1125 C1106 1.429 . S
C1125 C1119 1.429 . S
C1125 C1126 1.523 . S
C1126 C1107 1.368 . S
C1126 C1120 1.368 . S
C1126 C1125 1.523 . S
C1127 C1111 1.429 1_556 S
C1127 C1123 1.429 . S
C1127 C1128 1.523 . S
C1128 C1112 1.368 . S
C1128 C1124 1.368 . S
C1128 C1127 1.523 . S
H1129 C1104 0.950 . S
H1130 C1106 0.950 . S
H1131 C1107 0.949 . S
H1132 C1109 0.950 . S
H1133 C1111 0.950 . S
C1134 C1135 1.349 . S
C1134 C1136 1.327 . S
C1134 H1159 0.950 . S
C1135 C1134 1.349 . S
C1135 C1151 1.349 . S
C1136 C1134 1.327 . S
C1136 C1155 1.429 . S
C1136 H1160 0.950 . S
C1137 C1154 1.574 . S
C1137 C1156 1.368 . S
C1137 H1161 0.968 . S
H1138 C1142 0.949 . S
C1139 C1140 1.349 1_554 S
C1139 C1141 1.327 . S
C1139 H1162 0.950 . S
C1140 C1139 1.349 1_556 S
C1140 C1152 1.349 . S
C1141 C1139 1.327 . S
C1141 C1157 1.429 1_554 S
C1141 H1163 0.950 . S
C1142 H1138 0.949 . S
C1142 C1150 1.574 . S
C1142 C1158 1.368 . S
H1143 C1151 0.950 . S
H1144 C1149 0.950 . S
H1145 C1150 0.949 . S
H1146 C1152 0.950 . S
H1147 C1153 0.950 . S
H1148 C1154 0.949 1_554 S
C1149 H1144 0.950 . S
C1149 C1151 1.327 . S
C1149 C1155 1.429 . S
C1150 C1142 1.574 . S
C1150 H1145 0.949 . S
C1150 C1156 1.368 . S
C1151 C1135 1.349 . S
C1151 H1143 0.950 . S
C1151 C1149 1.327 . S
C1152 C1140 1.349 . S
C1152 H1146 0.950 . S
C1152 C1153 1.327 . S
C1153 H1147 0.950 . S
C1153 C1152 1.327 . S
C1153 C1157 1.429 . S
C1154 C1137 1.574 . S
C1154 H1148 0.949 1_556 S
C1154 C1158 1.368 . S
C1155 C1136 1.429 . S
C1155 C1149 1.429 . S
C1155 C1156 1.523 . S
C1156 C1137 1.368 . S
C1156 C1150 1.368 . S
C1156 C1155 1.523 . S
C1157 C1141 1.429 1_556 S
C1157 C1153 1.429 . S
C1157 C1158 1.523 . S
C1158 C1142 1.368 . S
C1158 C1154 1.368 . S
C1158 C1157 1.523 . S
H1159 C1134 0.950 . S
H1160 C1136 0.950 . S
H1161 C1137 0.968 . S
H1162 C1139 0.950 . S
H1163 C1141 0.950 . S
C1164 C1165 1.349 . S
C1164 C1166 1.327 . S
C1164 H1189 0.950 . S
C1165 C1164 1.349 . S
C1165 C1181 1.349 . S
C1166 C1164 1.327 . S
C1166 C1185 1.429 . S
C1166 H1190 0.950 . S
C1167 C1184 1.574 . S
C1167 C1186 1.368 . S
C1167 H1191 0.949 . S
H1168 C1172 0.949 . S
C1169 C1170 1.349 1_554 S
C1169 C1171 1.327 . S
C1169 H1192 0.950 . S
C1170 C1169 1.349 1_556 S
C1170 C1182 1.349 . S
C1171 C1169 1.327 . S
C1171 C1187 1.429 1_554 S
C1171 H1193 0.950 . S
C1172 H1168 0.949 . S
C1172 C1180 1.574 . S
C1172 C1188 1.368 . S
H1173 C1181 0.950 . S
H1174 C1179 0.950 . S
H1175 C1180 0.949 . S
H1176 C1182 0.950 . S
H1177 C1183 0.950 . S
H1178 C1184 0.949 1_554 S
C1179 H1174 0.950 . S
C1179 C1181 1.327 . S
C1179 C1185 1.429 . S
C1180 C1172 1.574 . S
C1180 H1175 0.949 . S
C1180 C1186 1.368 . S
C1181 C1165 1.349 . S
C1181 H1173 0.950 . S
C1181 C1179 1.327 . S
C1182 C1170 1.349 . S
C1182 H1176 0.950 . S
C1182 C1183 1.327 . S
C1183 H1177 0.950 . S
C1183 C1182 1.327 . S
C1183 C1187 1.429 . S
C1184 C1167 1.574 . S
C1184 H1178 0.949 1_556 S
C1184 C1188 1.368 . S
C1185 C1166 1.429 . S
C1185 C1179 1.429 . S
C1185 C1186 1.523 . S
C1186 C1167 1.368 . S
C1186 C1180 1.368 . S
C1186 C1185 1.523 . S
C1187 C1171 1.429 1_556 S
C1187 C1183 1.429 . S
C1187 C1188 1.523 . S
C1188 C1172 1.368 . S
C1188 C1184 1.368 . S
C1188 C1187 1.523 . S
H1189 C1164 0.950 . S
H1190 C1166 0.950 . S
H1191 C1167 0.949 . S
H1192 C1169 0.950 . S
H1193 C1171 0.950 . S
C1194 C1195 1.349 . S
C1194 C1196 1.327 . S
C1194 H1219 0.950 . S
C1195 C1194 1.349 . S
C1195 C1211 1.349 . S
C1196 C1194 1.327 . S
C1196 C1215 1.429 . S
C1196 H1220 0.950 . S
C1197 C1214 1.574 . S
C1197 C1216 1.368 . S
C1197 H1221 0.949 . S
H1198 C1202 0.949 1_554 S
C1199 C1200 1.382 . S
C1199 C1201 1.327 . S
C1199 H1222 0.950 . S
C1200 C1199 1.382 . S
C1200 C1212 1.325 1_556 S
C1201 C1199 1.327 . S
C1201 C1217 1.429 . S
C1201 H1223 0.950 . S
C1202 H1198 0.949 1_556 S
C1202 C1210 1.574 . S
C1202 C1218 1.368 . S
H1203 C1211 0.950 . S
H1204 C1209 0.950 . S
H1205 C1210 0.949 1_554 S
H1206 C1212 0.950 . S
H1207 C1213 0.950 . S
H1208 C1214 0.949 . S
C1209 H1204 0.950 . S
C1209 C1211 1.327 . S
C1209 C1215 1.429 . S
C1210 C1202 1.574 . S
C1210 H1205 0.949 1_556 S
C1210 C1216 1.368 . S
C1211 C1195 1.349 . S
C1211 H1203 0.950 . S
C1211 C1209 1.327 . S
C1212 C1200 1.325 1_554 S
C1212 H1206 0.950 . S
C1212 C1213 1.327 . S
C1213 H1207 0.950 . S
C1213 C1212 1.327 . S
C1213 C1217 1.429 1_554 S
C1214 C1197 1.574 . S
C1214 H1208 0.949 . S
C1214 C1218 1.368 . S
C1215 C1196 1.429 . S
C1215 C1209 1.429 . S
C1215 C1216 1.523 . S
C1216 C1197 1.368 . S
C1216 C1210 1.368 . S
C1216 C1215 1.523 . S
C1217 C1201 1.429 . S
C1217 C1213 1.429 1_556 S
C1217 C1218 1.523 . S
C1218 C1202 1.368 . S
C1218 C1214 1.368 . S
C1218 C1217 1.523 . S
H1219 C1194 0.950 . S
H1220 C1196 0.950 . S
H1221 C1197 0.949 . S
H1222 C1199 0.950 . S
H1223 C1201 0.950 . S
C1224 C1225 1.349 . S
C1224 C1226 1.327 . S
C1224 H1249 0.950 . S
C1225 C1224 1.349 . S
C1225 C1241 1.349 . S
C1226 C1224 1.327 . S
C1226 C1245 1.429 . S
C1226 H1250 0.950 . S
C1227 C1244 1.574 . S
C1227 C1246 1.368 . S
C1227 H1251 0.949 . S
H1228 C1232 0.949 . S
C1229 C1230 1.349 . S
C1229 C1231 1.327 . S
C1229 H1252 0.950 . S
C1230 C1229 1.349 . S
C1230 C1242 1.349 . S
C1231 C1229 1.327 . S
C1231 C1247 1.429 . S
C1231 H1253 0.950 . S
C1232 H1228 0.949 . S
C1232 C1240 1.574 . S
C1232 C1248 1.368 . S
H1233 C1241 0.950 . S
H1234 C1239 0.950 . S
H1235 C1240 0.949 . S
H1236 C1242 0.950 . S
H1237 C1243 0.950 . S
H1238 C1244 0.949 . S
C1239 H1234 0.950 . S
C1239 C1241 1.327 . S
C1239 C1245 1.429 . S
C1240 C1232 1.574 . S
C1240 H1235 0.949 . S
C1240 C1246 1.368 . S
C1241 C1225 1.349 . S
C1241 H1233 0.950 . S
C1241 C1239 1.327 . S
C1242 C1230 1.349 . S
C1242 H1236 0.950 . S
C1242 C1243 1.327 . S
C1243 H1237 0.950 . S
C1243 C1242 1.327 . S
C1243 C1247 1.429 . S
C1244 C1227 1.574 . S
C1244 H1238 0.949 . S
C1244 C1248 1.368 . S
C1245 C1226 1.429 . S
C1245 C1239 1.429 . S
C1245 C1246 1.523 . S
C1246 C1227 1.368 . S
C1246 C1240 1.368 . S
C1246 C1245 1.523 . S
C1247 C1231 1.429 . S
C1247 C1243 1.429 . S
C1247 C1248 1.523 . S
C1248 C1232 1.368 . S
C1248 C1244 1.368 . S
C1248 C1247 1.523 . S
H1249 C1224 0.950 . S
H1250 C1226 0.950 . S
H1251 C1227 0.949 . S
H1252 C1229 0.950 . S
H1253 C1231 0.950 . S
C1254 C1255 1.349 . S
C1254 C1256 1.327 . S
C1254 H1279 0.950 . S
C1255 C1254 1.349 . S
C1255 C1271 1.349 . S
C1256 C1254 1.327 . S
C1256 C1275 1.429 . S
C1256 H1280 0.950 . S
C1257 C1274 1.574 . S
C1257 C1276 1.368 . S
C1257 H1281 0.949 . S
H1258 C1262 0.949 . S
C1259 C1260 1.349 . S
C1259 C1261 1.327 . S
C1259 H1282 0.950 . S
C1260 C1259 1.349 . S
C1260 C1272 1.349 . S
C1261 C1259 1.327 . S
C1261 C1277 1.429 . S
C1261 H1283 0.950 . S
C1262 H1258 0.949 . S
C1262 C1270 1.574 . S
C1262 C1278 1.368 . S
H1263 C1271 0.950 . S
H1264 C1269 0.950 . S
H1265 C1270 0.949 . S
H1266 C1272 0.950 . S
H1267 C1273 0.950 . S
H1268 C1274 0.949 . S
C1269 H1264 0.950 . S
C1269 C1271 1.327 . S
C1269 C1275 1.429 . S
C1270 C1262 1.574 . S
C1270 H1265 0.949 . S
C1270 C1276 1.368 . S
C1271 C1255 1.349 . S
C1271 H1263 0.950 . S
C1271 C1269 1.327 . S
C1272 C1260 1.349 . S
C1272 H1266 0.950 . S
C1272 C1273 1.327 . S
C1273 H1267 0.950 . S
C1273 C1272 1.327 . S
C1273 C1277 1.429 . S
C1274 C1257 1.574 . S
C1274 H1268 0.949 . S
C1274 C1278 1.368 . S
C1275 C1256 1.429 . S
C1275 C1269 1.429 . S
C1275 C1276 1.523 . S
C1276 C1257 1.368 . S
C1276 C1270 1.368 . S
C1276 C1275 1.523 . S
C1277 C1261 1.429 . S
C1277 C1273 1.429 . S
C1277 C1278 1.523 . S
C1278 C1262 1.368 . S
C1278 C1274 1.368 . S
C1278 C1277 1.523 . S
H1279 C1254 0.950 . S
H1280 C1256 0.950 . S
H1281 C1257 0.949 . S
H1282 C1259 0.950 . S
H1283 C1261 0.950 . S
C1284 C1285 1.349 . S
C1284 C1286 1.327 . S
C1284 H1309 0.950 . S
C1285 C1284 1.349 . S
C1285 C1301 1.349 . S
C1286 C1284 1.327 . S
C1286 C1305 1.429 . S
C1286 H1310 0.950 . S
C1287 C1304 1.574 . S
C1287 C1306 1.368 . S
C1287 H1311 0.949 . S
H1288 C1292 0.949 . S
C1289 C1290 1.349 . S
C1289 C1291 1.327 . S
C1289 H1312 0.950 . S
C1290 C1289 1.349 . S
C1290 C1302 1.349 . S
C1291 C1289 1.327 . S
C1291 C1307 1.429 . S
C1291 H1313 0.950 . S
C1292 H1288 0.949 . S
C1292 C1300 1.574 . S
C1292 C1308 1.368 . S
H1293 C1301 0.950 . S
H1294 C1299 0.950 . S
H1295 C1300 0.949 . S
H1296 C1302 0.950 . S
H1297 C1303 0.950 . S
H1298 C1304 0.949 . S
C1299 H1294 0.950 . S
C1299 C1301 1.327 . S
C1299 C1305 1.429 . S
C1300 C1292 1.574 . S
C1300 H1295 0.949 . S
C1300 C1306 1.368 . S
C1301 C1285 1.349 . S
C1301 H1293 0.950 . S
C1301 C1299 1.327 . S
C1302 C1290 1.349 . S
C1302 H1296 0.950 . S
C1302 C1303 1.327 . S
C1303 H1297 0.950 . S
C1303 C1302 1.327 . S
C1303 C1307 1.429 . S
C1304 C1287 1.574 . S
C1304 H1298 0.949 . S
C1304 C1308 1.368 . S
C1305 C1286 1.429 . S
C1305 C1299 1.429 . S
C1305 C1306 1.523 . S
C1306 C1287 1.368 . S
C1306 C1300 1.368 . S
C1306 C1305 1.523 . S
C1307 C1291 1.429 . S
C1307 C1303 1.429 . S
C1307 C1308 1.523 . S
C1308 C1292 1.368 . S
C1308 C1304 1.368 . S
C1308 C1307 1.523 . S
H1309 C1284 0.950 . S
H1310 C1286 0.950 . S
H1311 C1287 0.949 . S
H1312 C1289 0.950 . S
H1313 C1291 0.950 . S
C1314 C1315 1.349 . S
C1314 C1316 1.327 . S
C1314 H1339 0.950 . S
C1315 C1314 1.349 . S
C1315 C1331 1.349 . S
C1316 C1314 1.327 . S
C1316 C1335 1.429 . S
C1316 H1340 0.950 . S
C1317 C1334 1.574 . S
C1317 C1336 1.368 1_455 S
C1317 H1341 0.949 . S
H1318 C1322 0.949 . S
C1319 C1320 1.349 . S
C1319 C1321 1.327 . S
C1319 H1342 0.950 . S
C1320 C1319 1.349 . S
C1320 C1332 1.349 . S
C1321 C1319 1.327 . S
C1321 C1337 1.429 . S
C1321 H1343 0.950 . S
C1322 H1318 0.949 . S
C1322 C1330 1.574 1_455 S
C1322 C1338 1.368 . S
H1323 C1331 0.950 . S
H1324 C1329 0.950 . S
H1325 C1330 0.949 . S
H1326 C1332 0.950 . S
H1327 C1333 0.950 . S
H1328 C1334 0.949 . S
C1329 H1324 0.950 . S
C1329 C1331 1.327 . S
C1329 C1335 1.429 . S
C1330 C1322 1.574 1_655 S
C1330 H1325 0.949 . S
C1330 C1336 1.368 . S
C1331 C1315 1.349 . S
C1331 H1323 0.950 . S
C1331 C1329 1.327 . S
C1332 C1320 1.349 . S
C1332 H1326 0.950 . S
C1332 C1333 1.327 . S
C1333 H1327 0.950 . S
C1333 C1332 1.327 . S
C1333 C1337 1.429 . S
C1334 C1317 1.574 . S
C1334 H1328 0.949 . S
C1334 C1338 1.368 . S
C1335 C1316 1.429 . S
C1335 C1329 1.429 . S
C1335 C1336 1.523 . S
C1336 C1317 1.368 1_655 S
C1336 C1330 1.368 . S
C1336 C1335 1.523 . S
C1337 C1321 1.429 . S
C1337 C1333 1.429 . S
C1337 C1338 1.523 . S
C1338 C1322 1.368 . S
C1338 C1334 1.368 . S
C1338 C1337 1.523 . S
H1339 C1314 0.950 . S
H1340 C1316 0.950 . S
H1341 C1317 0.949 . S
H1342 C1319 0.950 . S
H1343 C1321 0.950 . S
C1344 C1345 1.349 . S
C1344 C1346 1.327 . S
C1344 H1369 0.950 . S
C1345 C1344 1.349 . S
C1345 C1361 1.349 . S
C1346 C1344 1.327 . S
C1346 C1365 1.429 . S
C1346 H1370 0.950 . S
C1347 C1364 1.574 . S
C1347 C1366 1.368 . S
C1347 H1371 0.949 . S
H1348 C1352 0.949 . S
C1349 C1350 1.349 . S
C1349 C1351 1.327 . S
C1349 H1372 0.950 . S
C1350 C1349 1.349 . S
C1350 C1362 1.349 . S
C1351 C1349 1.327 . S
C1351 C1367 1.429 . S
C1351 H1373 0.950 . S
C1352 H1348 0.949 . S
C1352 C1360 1.574 . S
C1352 C1368 1.368 . S
H1353 C1361 0.950 . S
H1354 C1359 0.950 . S
H1355 C1360 0.949 . S
H1356 C1362 0.950 . S
H1357 C1363 0.950 . S
H1358 C1364 0.949 . S
C1359 H1354 0.950 . S
C1359 C1361 1.327 . S
C1359 C1365 1.429 . S
C1360 C1352 1.574 . S
C1360 H1355 0.949 . S
C1360 C1366 1.368 . S
C1361 C1345 1.349 . S
C1361 H1353 0.950 . S
C1361 C1359 1.327 . S
C1362 C1350 1.349 . S
C1362 H1356 0.950 . S
C1362 C1363 1.327 . S
C1363 H1357 0.950 . S
C1363 C1362 1.327 . S
C1363 C1367 1.429 . S
C1364 C1347 1.574 . S
C1364 H1358 0.949 . S
C1364 C1368 1.368 . S
C1365 C1346 1.429 . S
C1365 C1359 1.429 . S
C1365 C1366 1.523 . S
C1366 C1347 1.368 . S
C1366 C1360 1.368 . S
C1366 C1365 1.523 . S
C1367 C1351 1.429 . S
C1367 C1363 1.429 . S
C1367 C1368 1.523 . S
C1368 C1352 1.368 . S
C1368 C1364 1.368 . S
C1368 C1367 1.523 . S
H1369 C1344 0.950 . S
H1370 C1346 0.950 . S
H1371 C1347 0.949 . S
H1372 C1349 0.950 . S
H1373 C1351 0.950 . S
C1374 C1375 1.349 . S
C1374 C1376 1.327 . S
C1374 H1399 0.950 . S
C1375 C1374 1.349 . S
C1375 C1391 1.349 . S
C1376 C1374 1.327 . S
C1376 C1395 1.429 . S
C1376 H1400 0.950 . S
C1377 C1394 1.574 . S
C1377 C1396 1.368 . S
C1377 H1401 0.949 . S
H1378 C1382 0.949 . S
C1379 C1380 1.349 . S
C1379 C1381 1.327 . S
C1379 H1402 0.950 . S
C1380 C1379 1.349 . S
C1380 C1392 1.349 . S
C1381 C1379 1.327 . S
C1381 C1397 1.429 . S
C1381 H1403 0.950 . S
C1382 H1378 0.949 . S
C1382 C1390 1.574 1_565 S
C1382 C1398 1.368 . S
H1383 C1391 0.950 . S
H1384 C1389 0.950 . S
H1385 C1390 0.949 . S
H1386 C1392 0.950 . S
H1387 C1393 0.950 . S
H1388 C1394 0.969 . S
C1389 H1384 0.950 . S
C1389 C1391 1.327 . S
C1389 C1395 1.429 . S
C1390 C1382 1.574 1_545 S
C1390 H1385 0.949 . S
C1390 C1396 1.368 . S
C1391 C1375 1.349 . S
C1391 H1383 0.950 . S
C1391 C1389 1.327 . S
C1392 C1380 1.349 . S
C1392 H1386 0.950 . S
C1392 C1393 1.327 . S
C1393 H1387 0.950 . S
C1393 C1392 1.327 . S
C1393 C1397 1.429 . S
C1394 C1377 1.574 . S
C1394 H1388 0.969 . S
C1394 C1398 1.368 1_545 S
C1395 C1376 1.429 . S
C1395 C1389 1.429 . S
C1395 C1396 1.523 . S
C1396 C1377 1.368 . S
C1396 C1390 1.368 . S
C1396 C1395 1.523 . S
C1397 C1381 1.429 . S
C1397 C1393 1.429 . S
C1397 C1398 1.523 . S
C1398 C1382 1.368 . S
C1398 C1394 1.368 1_565 S
C1398 C1397 1.523 . S
H1399 C1374 0.950 . S
H1400 C1376 0.950 . S
H1401 C1377 0.949 . S
H1402 C1379 0.950 . S
H1403 C1381 0.950 . S
C1404 C1405 1.349 . S
C1404 C1406 1.327 . S
C1404 H1429 0.950 . S
C1405 C1404 1.349 . S
C1405 C1421 1.349 . S
C1406 C1404 1.327 . S
C1406 C1425 1.429 . S
C1406 H1430 0.950 . S
C1407 C1424 1.574 . S
C1407 C1426 1.368 . S
C1407 H1431 0.949 . S
H1408 C1412 0.949 . S
C1409 C1410 1.349 . S
C1409 C1411 1.327 . S
C1409 H1432 0.950 . S
C1410 C1409 1.349 . S
C1410 C1422 1.349 . S
C1411 C1409 1.327 . S
C1411 C1427 1.429 . S
C1411 H1433 0.950 . S
C1412 H1408 0.949 . S
C1412 C1420 1.574 . S
C1412 C1428 1.368 . S
H1413 C1421 0.950 . S
H1414 C1419 0.950 . S
H1415 C1420 0.949 . S
H1416 C1422 0.950 . S
H1417 C1423 0.950 . S
H1418 C1424 0.949 . S
C1419 H1414 0.950 . S
C1419 C1421 1.327 . S
C1419 C1425 1.429 . S
C1420 C1412 1.574 . S
C1420 H1415 0.949 . S
C1420 C1426 1.368 . S
C1421 C1405 1.349 . S
C1421 H1413 0.950 . S
C1421 C1419 1.327 . S
C1422 C1410 1.349 . S
C1422 H1416 0.950 . S
C1422 C1423 1.327 . S
C1423 H1417 0.950 . S
C1423 C1422 1.327 . S
C1423 C1427 1.429 . S
C1424 C1407 1.574 . S
C1424 H1418 0.949 . S
C1424 C1428 1.368 . S
C1425 C1406 1.429 . S
C1425 C1419 1.429 . S
C1425 C1426 1.523 . S
C1426 C1407 1.368 . S
C1426 C1420 1.368 . S
C1426 C1425 1.523 . S
C1427 C1411 1.429 . S
C1427 C1423 1.429 . S
C1427 C1428 1.523 . S
C1428 C1412 1.368 . S
C1428 C1424 1.368 . S
C1428 C1427 1.523 . S
H1429 C1404 0.950 . S
H1430 C1406 0.950 . S
H1431 C1407 0.949 . S
H1432 C1409 0.950 . S
H1433 C1411 0.950 . S
C1434 C1435 1.349 . S
C1434 C1436 1.327 . S
C1434 H1459 0.950 . S
C1435 C1434 1.349 . S
C1435 C1451 1.349 . S
C1436 C1434 1.327 . S
C1436 C1455 1.429 . S
C1436 H1460 0.950 . S
C1437 C1454 1.574 . S
C1437 C1456 1.368 . S
C1437 H1461 0.949 . S
H1438 C1442 0.949 . S
C1439 C1440 1.349 . S
C1439 C1441 1.327 . S
C1439 H1462 0.950 . S
C1440 C1439 1.349 . S
C1440 C1452 1.349 . S
C1441 C1439 1.327 . S
C1441 C1457 1.429 . S
C1441 H1463 0.950 . S
C1442 H1438 0.949 . S
C1442 C1450 1.574 . S
C1442 C1458 1.368 . S
H1443 C1451 0.950 . S
H1444 C1449 0.950 . S
H1445 C1450 0.949 . S
H1446 C1452 0.950 . S
H1447 C1453 0.950 . S
H1448 C1454 0.949 . S
C1449 H1444 0.950 . S
C1449 C1451 1.327 . S
C1449 C1455 1.429 . S
C1450 C1442 1.574 . S
C1450 H1445 0.949 . S
C1450 C1456 1.368 . S
C1451 C1435 1.349 . S
C1451 H1443 0.950 . S
C1451 C1449 1.327 . S
C1452 C1440 1.349 . S
C1452 H1446 0.950 . S
C1452 C1453 1.327 . S
C1453 H1447 0.950 . S
C1453 C1452 1.327 . S
C1453 C1457 1.429 . S
C1454 C1437 1.574 . S
C1454 H1448 0.949 . S
C1454 C1458 1.368 . S
C1455 C1436 1.429 . S
C1455 C1449 1.429 . S
C1455 C1456 1.523 . S
C1456 C1437 1.368 . S
C1456 C1450 1.368 . S
C1456 C1455 1.523 . S
C1457 C1441 1.429 . S
C1457 C1453 1.429 . S
C1457 C1458 1.523 . S
C1458 C1442 1.368 . S
C1458 C1454 1.368 . S
C1458 C1457 1.523 . S
H1459 C1434 0.950 . S
H1460 C1436 0.950 . S
H1461 C1437 0.949 . S
H1462 C1439 0.950 . S
H1463 C1441 0.950 . S
C1464 C1465 1.349 . S
C1464 C1466 1.327 . S
C1464 H1489 0.950 . S
C1465 C1464 1.349 . S
C1465 C1481 1.349 . S
C1466 C1464 1.327 . S
C1466 C1485 1.429 . S
C1466 H1490 0.950 . S
C1467 C1484 1.574 . S
C1467 C1486 1.368 . S
C1467 H1491 0.949 . S
H1468 C1472 0.949 . S
C1469 C1470 1.349 . S
C1469 C1471 1.327 . S
C1469 H1492 0.950 . S
C1470 C1469 1.349 . S
C1470 C1482 1.349 . S
C1471 C1469 1.327 . S
C1471 C1487 1.429 . S
C1471 H1493 0.950 . S
C1472 H1468 0.949 . S
C1472 C1480 1.574 . S
C1472 C1488 1.368 . S
H1473 C1481 0.950 . S
H1474 C1479 0.950 . S
H1475 C1480 0.949 . S
H1476 C1482 0.950 . S
H1477 C1483 0.950 . S
H1478 C1484 0.949 . S
C1479 H1474 0.950 . S
C1479 C1481 1.327 . S
C1479 C1485 1.429 . S
C1480 C1472 1.574 . S
C1480 H1475 0.949 . S
C1480 C1486 1.368 . S
C1481 C1465 1.349 . S
C1481 H1473 0.950 . S
C1481 C1479 1.327 . S
C1482 C1470 1.349 . S
C1482 H1476 0.950 . S
C1482 C1483 1.327 . S
C1483 H1477 0.950 . S
C1483 C1482 1.327 . S
C1483 C1487 1.429 . S
C1484 C1467 1.574 . S
C1484 H1478 0.949 . S
C1484 C1488 1.368 . S
C1485 C1466 1.429 . S
C1485 C1479 1.429 . S
C1485 C1486 1.523 . S
C1486 C1467 1.368 . S
C1486 C1480 1.368 . S
C1486 C1485 1.523 . S
C1487 C1471 1.429 . S
C1487 C1483 1.429 . S
C1487 C1488 1.523 . S
C1488 C1472 1.368 . S
C1488 C1484 1.368 . S
C1488 C1487 1.523 . S
H1489 C1464 0.950 . S
H1490 C1466 0.950 . S
H1491 C1467 0.949 . S
H1492 C1469 0.950 . S
H1493 C1471 0.950 . S
C1494 C1495 1.349 . S
C1494 C1496 1.327 . S
C1494 H1519 0.950 . S
C1495 C1494 1.349 . S
C1495 C1511 1.349 . S
C1496 C1494 1.327 . S
C1496 C1515 1.429 . S
C1496 H1520 0.950 . S
C1497 C1514 1.574 . S
C1497 C1516 1.368 . S
C1497 H1521 0.949 . S
H1498 C1502 0.949 . S
C1499 C1500 1.349 . S
C1499 C1501 1.327 . S
C1499 H1522 0.950 . S
C1500 C1499 1.349 . S
C1500 C1512 1.349 . S
C1501 C1499 1.327 . S
C1501 C1517 1.429 . S
C1501 H1523 0.950 . S
C1502 H1498 0.949 . S
C1502 C1510 1.574 . S
C1502 C1518 1.368 . S
H1503 C1511 0.950 . S
H1504 C1509 0.950 . S
H1505 C1510 0.949 . S
H1506 C1512 0.950 . S
H1507 C1513 0.950 . S
H1508 C1514 0.949 . S
C1509 H1504 0.950 . S
C1509 C1511 1.327 . S
C1509 C1515 1.429 . S
C1510 C1502 1.574 . S
C1510 H1505 0.949 . S
C1510 C1516 1.368 . S
C1511 C1495 1.349 . S
C1511 H1503 0.950 . S
C1511 C1509 1.327 . S
C1512 C1500 1.349 . S
C1512 H1506 0.950 . S
C1512 C1513 1.327 . S
C1513 H1507 0.950 . S
C1513 C1512 1.327 . S
C1513 C1517 1.429 . S
C1514 C1497 1.574 . S
C1514 H1508 0.949 . S
C1514 C1518 1.368 . S
C1515 C1496 1.429 . S
C1515 C1509 1.429 . S
C1515 C1516 1.523 . S
C1516 C1497 1.368 . S
C1516 C1510 1.368 . S
C1516 C1515 1.523 . S
C1517 C1501 1.429 . S
C1517 C1513 1.429 . S
C1517 C1518 1.523 . S
C1518 C1502 1.368 . S
C1518 C1514 1.368 . S
C1518 C1517 1.523 . S
H1519 C1494 0.950 . S
H1520 C1496 0.950 . S
H1521 C1497 0.949 . S
H1522 C1499 0.950 . S
H1523 C1501 0.950 . S
C1524 C1525 1.349 . S
C1524 C1526 1.327 . S
C1524 H1549 0.950 . S
C1525 C1524 1.349 . S
C1525 C1541 1.349 . S
C1526 C1524 1.327 . S
C1526 C1545 1.429 . S
C1526 H1550 0.950 . S
C1527 C1544 1.574 . S
C1527 C1546 1.368 . S
C1527 H1551 0.949 . S
H1528 C1532 0.949 . S
C1529 C1530 1.349 . S
C1529 C1531 1.327 . S
C1529 H1552 0.950 . S
C1530 C1529 1.349 . S
C1530 C1542 1.349 . S
C1531 C1529 1.327 . S
C1531 C1547 1.429 . S
C1531 H1553 0.950 . S
C1532 H1528 0.949 . S
C1532 C1540 1.574 . S
C1532 C1548 1.368 . S
H1533 C1541 0.950 . S
H1534 C1539 0.950 . S
H1535 C1540 0.949 . S
H1536 C1542 0.950 . S
H1537 C1543 0.950 . S
H1538 C1544 0.949 . S
C1539 H1534 0.950 . S
C1539 C1541 1.327 . S
C1539 C1545 1.429 . S
C1540 C1532 1.574 . S
C1540 H1535 0.949 . S
C1540 C1546 1.368 . S
C1541 C1525 1.349 . S
C1541 H1533 0.950 . S
C1541 C1539 1.327 . S
C1542 C1530 1.349 . S
C1542 H1536 0.950 . S
C1542 C1543 1.327 . S
C1543 H1537 0.950 . S
C1543 C1542 1.327 . S
C1543 C1547 1.429 . S
C1544 C1527 1.574 . S
C1544 H1538 0.949 . S
C1544 C1548 1.368 . S
C1545 C1526 1.429 . S
C1545 C1539 1.429 . S
C1545 C1546 1.523 . S
C1546 C1527 1.368 . S
C1546 C1540 1.368 . S
C1546 C1545 1.523 . S
C1547 C1531 1.429 . S
C1547 C1543 1.429 . S
C1547 C1548 1.523 . S
C1548 C1532 1.368 . S
C1548 C1544 1.368 . S
C1548 C1547 1.523 . S
H1549 C1524 0.950 . S
H1550 C1526 0.950 . S
H1551 C1527 0.949 . S
H1552 C1529 0.950 . S
H1553 C1531 0.950 . S
C1554 C1555 1.349 . S
C1554 C1556 1.327 . S
C1554 H1579 0.950 . S
C1555 C1554 1.349 . S
C1555 C1571 1.349 . S
C1556 C1554 1.327 . S
C1556 C1575 1.429 . S
C1556 H1580 0.950 . S
C1557 C1574 1.574 . S
C1557 C1576 1.368 . S
C1557 H1581 0.949 . S
H1558 C1562 0.949 . S
C1559 C1560 1.349 . S
C1559 C1561 1.327 . S
C1559 H1582 0.950 . S
C1560 C1559 1.349 . S
C1560 C1572 1.349 . S
C1561 C1559 1.327 . S
C1561 C1577 1.429 . S
C1561 H1583 0.950 . S
C1562 H1558 0.949 . S
C1562 C1570 1.574 . S
C1562 C1578 1.368 . S
H1563 C1571 0.950 . S
H1564 C1569 0.950 . S
H1565 C1570 0.949 . S
H1566 C1572 0.950 . S
H1567 C1573 0.950 . S
H1568 C1574 0.949 . S
C1569 H1564 0.950 . S
C1569 C1571 1.327 . S
C1569 C1575 1.429 . S
C1570 C1562 1.574 . S
C1570 H1565 0.949 . S
C1570 C1576 1.368 . S
C1571 C1555 1.349 . S
C1571 H1563 0.950 . S
C1571 C1569 1.327 . S
C1572 C1560 1.349 . S
C1572 H1566 0.950 . S
C1572 C1573 1.327 . S
C1573 H1567 0.950 . S
C1573 C1572 1.327 . S
C1573 C1577 1.429 . S
C1574 C1557 1.574 . S
C1574 H1568 0.949 . S
C1574 C1578 1.368 . S
C1575 C1556 1.429 . S
C1575 C1569 1.429 . S
C1575 C1576 1.523 . S
C1576 C1557 1.368 . S
C1576 C1570 1.368 . S
C1576 C1575 1.523 . S
C1577 C1561 1.429 . S
C1577 C1573 1.429 . S
C1577 C1578 1.523 . S
C1578 C1562 1.368 . S
C1578 C1574 1.368 . S
C1578 C1577 1.523 . S
H1579 C1554 0.950 . S
H1580 C1556 0.950 . S
H1581 C1557 0.949 . S
H1582 C1559 0.950 . S
H1583 C1561 0.950 . S
C1584 C1585 1.349 . S
C1584 C1586 1.327 . S
C1584 H1609 0.950 . S
C1585 C1584 1.349 . S
C1585 C1601 1.349 . S
C1586 C1584 1.327 . S
C1586 C1605 1.429 1_545 S
C1586 H1610 0.950 . S
C1587 C1604 1.574 . S
C1587 C1606 1.368 . S
C1587 H1611 0.949 . S
H1588 C1592 0.949 . S
C1589 C1590 1.349 . S
C1589 C1591 1.327 . S
C1589 H1612 0.950 . S
C1590 C1589 1.349 . S
C1590 C1602 1.349 . S
C1591 C1589 1.327 . S
C1591 C1607 1.429 . S
C1591 H1613 0.950 . S
C1592 H1588 0.949 . S
C1592 C1600 1.574 . S
C1592 C1608 1.368 . S
H1593 C1601 0.950 . S
H1594 C1599 0.950 1_565 S
H1595 C1600 0.949 . S
H1596 C1602 0.950 . S
H1597 C1603 0.950 . S
H1598 C1604 0.949 . S
C1599 H1594 0.950 1_545 S
C1599 C1601 1.327 . S
C1599 C1605 1.429 1_545 S
C1600 C1592 1.574 . S
C1600 H1595 0.949 . S
C1600 C1606 1.368 . S
C1601 C1585 1.349 . S
C1601 H1593 0.950 . S
C1601 C1599 1.327 . S
C1602 C1590 1.349 . S
C1602 H1596 0.950 . S
C1602 C1603 1.327 . S
C1603 H1597 0.950 . S
C1603 C1602 1.327 . S
C1603 C1607 1.429 . S
C1604 C1587 1.574 . S
C1604 H1598 0.949 . S
C1604 C1608 1.368 . S
C1605 C1586 1.429 1_565 S
C1605 C1599 1.429 1_565 S
C1605 C1606 1.523 . S
C1606 C1587 1.368 . S
C1606 C1600 1.368 . S
C1606 C1605 1.523 . S
C1607 C1591 1.429 . S
C1607 C1603 1.429 . S
C1607 C1608 1.523 . S
C1608 C1592 1.368 . S
C1608 C1604 1.368 . S
C1608 C1607 1.523 . S
H1609 C1584 0.950 . S
H1610 C1586 0.950 . S
H1611 C1587 0.949 . S
H1612 C1589 0.950 . S
H1613 C1591 0.950 . S
C1614 C1615 1.349 . S
C1614 C1616 1.327 1_655 S
C1614 H1639 0.950 . S
C1615 C1614 1.349 . S
C1615 C1631 1.349 . S
C1616 C1614 1.327 1_455 S
C1616 C1635 1.429 . S
C1616 H1640 0.950 . S
C1617 C1634 1.574 . S
C1617 C1636 1.368 . S
C1617 H1641 0.949 . S
H1618 C1622 0.949 . S
C1619 C1620 1.349 . S
C1619 C1621 1.327 . S
C1619 H1642 0.950 . S
C1620 C1619 1.349 . S
C1620 C1632 1.349 . S
C1621 C1619 1.327 . S
C1621 C1637 1.429 . S
C1621 H1643 0.950 . S
C1622 H1618 0.949 . S
C1622 C1630 1.574 . S
C1622 C1638 1.368 . S
H1623 C1631 0.950 . S
H1624 C1629 0.940 1_455 S
H1625 C1630 0.949 . S
H1626 C1632 0.950 . S
H1627 C1633 0.950 . S
H1628 C1634 0.949 . S
C1629 H1624 0.940 1_655 S
C1629 C1631 1.361 . S
C1629 C1635 1.406 1_655 S
C1630 C1622 1.574 . S
C1630 H1625 0.949 . S
C1630 C1636 1.368 . S
C1631 C1615 1.349 . S
C1631 H1623 0.950 . S
C1631 C1629 1.361 . S
C1632 C1620 1.349 . S
C1632 H1626 0.950 . S
C1632 C1633 1.327 . S
C1633 H1627 0.950 . S
C1633 C1632 1.327 . S
C1633 C1637 1.429 . S
C1634 C1617 1.574 . S
C1634 H1628 0.949 . S
C1634 C1638 1.368 . S
C1635 C1616 1.429 . S
C1635 C1629 1.406 1_455 S
C1635 C1636 1.523 . S
C1636 C1617 1.368 . S
C1636 C1630 1.368 . S
C1636 C1635 1.523 . S
C1637 C1621 1.429 . S
C1637 C1633 1.429 . S
C1637 C1638 1.523 . S
C1638 C1622 1.368 . S
C1638 C1634 1.368 . S
C1638 C1637 1.523 . S
H1639 C1614 0.950 . S
H1640 C1616 0.950 . S
H1641 C1617 0.949 . S
H1642 C1619 0.950 . S
H1643 C1621 0.950 . S
C1644 C1645 1.349 . S
C1644 C1646 1.327 . S
C1644 H1669 0.950 . S
C1645 C1644 1.349 . S
C1645 C1661 1.349 . S
C1646 C1644 1.327 . S
C1646 C1665 1.429 . S
C1646 H1670 0.950 . S
C1647 C1664 1.574 . S
C1647 C1666 1.368 . S
C1647 H1671 0.949 . S
H1648 C1652 0.949 . S
C1649 C1650 1.349 . S
C1649 C1651 1.327 . S
C1649 H1672 0.950 . S
C1650 C1649 1.349 . S
C1650 C1662 1.349 . S
C1651 C1649 1.327 . S
C1651 C1667 1.429 . S
C1651 H1673 0.950 . S
C1652 H1648 0.949 . S
C1652 C1660 1.574 . S
C1652 C1668 1.368 . S
H1653 C1661 0.950 . S
H1654 C1659 0.950 . S
H1655 C1660 0.949 . S
H1656 C1662 0.950 . S
H1657 C1663 0.950 . S
H1658 C1664 0.949 . S
C1659 H1654 0.950 . S
C1659 C1661 1.327 . S
C1659 C1665 1.429 . S
C1660 C1652 1.574 . S
C1660 H1655 0.949 . S
C1660 C1666 1.368 . S
C1661 C1645 1.349 . S
C1661 H1653 0.950 . S
C1661 C1659 1.327 . S
C1662 C1650 1.349 . S
C1662 H1656 0.950 . S
C1662 C1663 1.327 . S
C1663 H1657 0.950 . S
C1663 C1662 1.327 . S
C1663 C1667 1.429 . S
C1664 C1647 1.574 . S
C1664 H1658 0.949 . S
C1664 C1668 1.368 . S
C1665 C1646 1.429 . S
C1665 C1659 1.429 . S
C1665 C1666 1.523 . S
C1666 C1647 1.368 . S
C1666 C1660 1.368 . S
C1666 C1665 1.523 . S
C1667 C1651 1.429 . S
C1667 C1663 1.429 . S
C1667 C1668 1.523 . S
C1668 C1652 1.368 . S
C1668 C1664 1.368 . S
C1668 C1667 1.523 . S
H1669 C1644 0.950 . S
H1670 C1646 0.950 . S
H1671 C1647 0.949 . S
H1672 C1649 0.950 . S
H1673 C1651 0.950 . S
C1674 C1675 1.349 . S
C1674 C1676 1.327 . S
C1674 H1699 0.950 . S
C1675 C1674 1.349 . S
C1675 C1691 1.349 . S
C1676 C1674 1.327 . S
C1676 C1695 1.429 . S
C1676 H1700 0.950 . S
C1677 C1694 1.574 . S
C1677 C1696 1.368 . S
C1677 H1701 0.949 . S
H1678 C1682 0.949 . S
C1679 C1680 1.349 . S
C1679 C1681 1.327 . S
C1679 H1702 0.950 . S
C1680 C1679 1.349 . S
C1680 C1692 1.349 . S
C1681 C1679 1.327 . S
C1681 C1697 1.429 . S
C1681 H1703 0.950 . S
C1682 H1678 0.949 . S
C1682 C1690 1.574 . S
C1682 C1698 1.368 . S
H1683 C1691 0.950 . S
H1684 C1689 0.950 . S
H1685 C1690 0.949 . S
H1686 C1692 0.950 . S
H1687 C1693 0.950 . S
H1688 C1694 0.949 . S
C1689 H1684 0.950 . S
C1689 C1691 1.327 . S
C1689 C1695 1.429 . S
C1690 C1682 1.574 . S
C1690 H1685 0.949 . S
C1690 C1696 1.368 . S
C1691 C1675 1.349 . S
C1691 H1683 0.950 . S
C1691 C1689 1.327 . S
C1692 C1680 1.349 . S
C1692 H1686 0.950 . S
C1692 C1693 1.327 . S
C1693 H1687 0.950 . S
C1693 C1692 1.327 . S
C1693 C1697 1.429 . S
C1694 C1677 1.574 . S
C1694 H1688 0.949 . S
C1694 C1698 1.368 . S
C1695 C1676 1.429 . S
C1695 C1689 1.429 . S
C1695 C1696 1.523 . S
C1696 C1677 1.368 . S
C1696 C1690 1.368 . S
C1696 C1695 1.523 . S
C1697 C1681 1.429 . S
C1697 C1693 1.429 . S
C1697 C1698 1.523 . S
C1698 C1682 1.368 . S
C1698 C1694 1.368 . S
C1698 C1697 1.523 . S
H1699 C1674 0.950 . S
H1700 C1676 0.950 . S
H1701 C1677 0.949 . S
H1702 C1679 0.950 . S
H1703 C1681 0.950 . S
C1704 C1705 1.349 . S
C1704 C1706 1.327 . S
C1704 H1729 0.950 . S
C1705 C1704 1.349 . S
C1705 C1721 1.349 . S
C1706 C1704 1.327 . S
C1706 C1725 1.429 . S
C1706 H1730 0.950 . S
C1707 C1724 1.574 . S
C1707 C1726 1.368 . S
C1707 H1731 0.949 . S
H1708 C1712 0.949 . S
C1709 C1710 1.349 . S
C1709 C1711 1.327 . S
C1709 H1732 0.950 . S
C1710 C1709 1.349 . S
C1710 C1722 1.349 . S
C1711 C1709 1.327 . S
C1711 C1727 1.429 . S
C1711 H1733 0.950 . S
C1712 H1708 0.949 . S
C1712 C1720 1.574 . S
C1712 C1728 1.368 . S
H1713 C1721 0.950 . S
H1714 C1719 0.950 . S
H1715 C1720 0.949 . S
H1716 C1722 0.950 . S
H1717 C1723 0.950 . S
H1718 C1724 0.949 . S
C1719 H1714 0.950 . S
C1719 C1721 1.327 . S
C1719 C1725 1.429 . S
C1720 C1712 1.574 . S
C1720 H1715 0.949 . S
C1720 C1726 1.368 . S
C1721 C1705 1.349 . S
C1721 H1713 0.950 . S
C1721 C1719 1.327 . S
C1722 C1710 1.349 . S
C1722 H1716 0.950 . S
C1722 C1723 1.327 . S
C1723 H1717 0.950 . S
C1723 C1722 1.327 . S
C1723 C1727 1.429 . S
C1724 C1707 1.574 . S
C1724 H1718 0.949 . S
C1724 C1728 1.368 . S
C1725 C1706 1.429 . S
C1725 C1719 1.429 . S
C1725 C1726 1.523 . S
C1726 C1707 1.368 . S
C1726 C1720 1.368 . S
C1726 C1725 1.523 . S
C1727 C1711 1.429 . S
C1727 C1723 1.429 . S
C1727 C1728 1.523 . S
C1728 C1712 1.368 . S
C1728 C1724 1.368 . S
C1728 C1727 1.523 . S
H1729 C1704 0.950 . S
H1730 C1706 0.950 . S
H1731 C1707 0.949 . S
H1732 C1709 0.950 . S
H1733 C1711 0.950 . S
C1734 C1735 1.349 . S
C1734 C1736 1.327 . S
C1734 H1759 0.950 . S
C1735 C1734 1.349 . S
C1735 C1751 1.349 . S
C1736 C1734 1.327 . S
C1736 C1755 1.429 . S
C1736 H1760 0.950 . S
C1737 C1754 1.574 . S
C1737 C1756 1.368 . S
C1737 H1761 0.949 . S
H1738 C1742 0.949 . S
C1739 C1740 1.349 . S
C1739 C1741 1.327 . S
C1739 H1762 0.950 . S
C1740 C1739 1.349 . S
C1740 C1752 1.349 . S
C1741 C1739 1.327 . S
C1741 C1757 1.429 . S
C1741 H1763 0.950 . S
C1742 H1738 0.949 . S
C1742 C1750 1.574 . S
C1742 C1758 1.368 . S
H1743 C1751 0.950 . S
H1744 C1749 0.950 . S
H1745 C1750 0.949 . S
H1746 C1752 0.950 . S
H1747 C1753 0.950 . S
H1748 C1754 0.949 . S
C1749 H1744 0.950 . S
C1749 C1751 1.327 . S
C1749 C1755 1.429 . S
C1750 C1742 1.574 . S
C1750 H1745 0.949 . S
C1750 C1756 1.368 . S
C1751 C1735 1.349 . S
C1751 H1743 0.950 . S
C1751 C1749 1.327 . S
C1752 C1740 1.349 . S
C1752 H1746 0.950 . S
C1752 C1753 1.327 . S
C1753 H1747 0.950 . S
C1753 C1752 1.327 . S
C1753 C1757 1.429 . S
C1754 C1737 1.574 . S
C1754 H1748 0.949 . S
C1754 C1758 1.368 . S
C1755 C1736 1.429 . S
C1755 C1749 1.429 . S
C1755 C1756 1.523 . S
C1756 C1737 1.368 . S
C1756 C1750 1.368 . S
C1756 C1755 1.523 . S
C1757 C1741 1.429 . S
C1757 C1753 1.429 . S
C1757 C1758 1.523 . S
C1758 C1742 1.368 . S
C1758 C1754 1.368 . S
C1758 C1757 1.523 . S
H1759 C1734 0.950 . S
H1760 C1736 0.950 . S
H1761 C1737 0.949 . S
H1762 C1739 0.950 . S
H1763 C1741 0.950 . S
C1764 C1765 1.349 . S
C1764 C1766 1.327 . S
C1764 H1789 0.950 . S
C1765 C1764 1.349 . S
C1765 C1781 1.349 . S
C1766 C1764 1.327 . S
C1766 C1785 1.429 . S
C1766 H1790 0.950 . S
C1767 C1784 1.574 1_565 S
C1767 C1786 1.368 . S
C1767 H1791 0.949 . S
H1768 C1772 0.949 . S
C1769 C1770 1.349 . S
C1769 C1771 1.327 . S
C1769 H1792 0.950 . S
C1770 C1769 1.349 . S
C1770 C1782 1.349 . S
C1771 C1769 1.327 . S
C1771 C1787 1.429 . S
C1771 H1793 0.950 . S
C1772 H1768 0.949 . S
C1772 C1780 1.574 . S
C1772 C1788 1.368 . S
H1773 C1781 0.950 . S
H1774 C1779 0.950 . S
H1775 C1780 0.949 . S
H1776 C1782 0.950 . S
H1777 C1783 0.950 . S
H1778 C1784 0.949 . S
C1779 H1774 0.950 . S
C1779 C1781 1.327 . S
C1779 C1785 1.429 . S
C1780 C1772 1.574 . S
C1780 H1775 0.949 . S
C1780 C1786 1.368 1_545 S
C1781 C1765 1.349 . S
C1781 H1773 0.950 . S
C1781 C1779 1.327 . S
C1782 C1770 1.349 . S
C1782 H1776 0.950 . S
C1782 C1783 1.327 . S
C1783 H1777 0.950 . S
C1783 C1782 1.327 . S
C1783 C1787 1.429 . S
C1784 C1767 1.574 1_545 S
C1784 H1778 0.949 . S
C1784 C1788 1.368 . S
C1785 C1766 1.429 . S
C1785 C1779 1.429 . S
C1785 C1786 1.523 . S
C1786 C1767 1.368 . S
C1786 C1780 1.368 1_565 S
C1786 C1785 1.523 . S
C1787 C1771 1.429 . S
C1787 C1783 1.429 . S
C1787 C1788 1.523 . S
C1788 C1772 1.368 . S
C1788 C1784 1.368 . S
C1788 C1787 1.523 . S
H1789 C1764 0.950 . S
H1790 C1766 0.950 . S
H1791 C1767 0.949 . S
H1792 C1769 0.950 . S
H1793 C1771 0.950 . S
C1794 C1795 1.349 . S
C1794 C1796 1.327 . S
C1794 H1819 0.950 . S
C1795 C1794 1.349 . S
C1795 C1811 1.349 . S
C1796 C1794 1.327 . S
C1796 C1815 1.429 . S
C1796 H1820 0.950 . S
C1797 C1814 1.574 1_455 S
C1797 C1816 1.368 . S
C1797 H1821 0.949 . S
H1798 C1802 0.949 . S
C1799 C1800 1.349 . S
C1799 C1801 1.327 . S
C1799 H1822 0.950 . S
C1800 C1799 1.349 . S
C1800 C1812 1.349 . S
C1801 C1799 1.327 . S
C1801 C1817 1.429 . S
C1801 H1823 0.950 . S
C1802 H1798 0.949 . S
C1802 C1810 1.574 1_655 S
C1802 C1818 1.368 . S
H1803 C1811 0.950 . S
H1804 C1809 0.950 . S
H1805 C1810 0.949 . S
H1806 C1812 0.950 . S
H1807 C1813 0.950 . S
H1808 C1814 0.949 . S
C1809 H1804 0.950 . S
C1809 C1811 1.327 . S
C1809 C1815 1.429 . S
C1810 C1802 1.574 1_455 S
C1810 H1805 0.949 . S
C1810 C1816 1.368 . S
C1811 C1795 1.349 . S
C1811 H1803 0.950 . S
C1811 C1809 1.327 . S
C1812 C1800 1.349 . S
C1812 H1806 0.950 . S
C1812 C1813 1.327 . S
C1813 H1807 0.950 . S
C1813 C1812 1.327 . S
C1813 C1817 1.429 . S
C1814 C1797 1.574 1_655 S
C1814 H1808 0.949 . S
C1814 C1818 1.368 . S
C1815 C1796 1.429 . S
C1815 C1809 1.429 . S
C1815 C1816 1.523 . S
C1816 C1797 1.368 . S
C1816 C1810 1.368 . S
C1816 C1815 1.523 . S
C1817 C1801 1.429 . S
C1817 C1813 1.429 . S
C1817 C1818 1.523 . S
C1818 C1802 1.368 . S
C1818 C1814 1.368 . S
C1818 C1817 1.523 . S
H1819 C1794 0.950 . S
H1820 C1796 0.950 . S
H1821 C1797 0.949 . S
H1822 C1799 0.950 . S
H1823 C1801 0.950 . S
C1824 C1825 1.349 . S
C1824 C1826 1.327 . S
C1824 H1849 0.950 . S
C1825 C1824 1.349 . S
C1825 C1841 1.349 . S
C1826 C1824 1.327 . S
C1826 C1845 1.429 . S
C1826 H1850 0.950 . S
C1827 C1844 1.574 . S
C1827 C1846 1.368 . S
C1827 H1851 0.949 . S
H1828 C1832 0.949 . S
C1829 C1830 1.349 . S
C1829 C1831 1.327 . S
C1829 H1852 0.950 . S
C1830 C1829 1.349 . S
C1830 C1842 1.349 . S
C1831 C1829 1.327 . S
C1831 C1847 1.429 . S
C1831 H1853 0.950 . S
C1832 H1828 0.949 . S
C1832 C1840 1.574 . S
C1832 C1848 1.368 . S
H1833 C1841 0.950 . S
H1834 C1839 0.950 . S
H1835 C1840 0.949 . S
H1836 C1842 0.950 . S
H1837 C1843 0.950 . S
H1838 C1844 0.949 . S
C1839 H1834 0.950 . S
C1839 C1841 1.327 . S
C1839 C1845 1.429 . S
C1840 C1832 1.574 . S
C1840 H1835 0.949 . S
C1840 C1846 1.368 . S
C1841 C1825 1.349 . S
C1841 H1833 0.950 . S
C1841 C1839 1.327 . S
C1842 C1830 1.349 . S
C1842 H1836 0.950 . S
C1842 C1843 1.327 . S
C1843 H1837 0.950 . S
C1843 C1842 1.327 . S
C1843 C1847 1.429 . S
C1844 C1827 1.574 . S
C1844 H1838 0.949 . S
C1844 C1848 1.368 . S
C1845 C1826 1.429 . S
C1845 C1839 1.429 . S
C1845 C1846 1.523 . S
C1846 C1827 1.368 . S
C1846 C1840 1.368 . S
C1846 C1845 1.523 . S
C1847 C1831 1.429 . S
C1847 C1843 1.429 . S
C1847 C1848 1.523 . S
C1848 C1832 1.368 . S
C1848 C1844 1.368 . S
C1848 C1847 1.523 . S
H1849 C1824 0.950 . S
H1850 C1826 0.950 . S
H1851 C1827 0.949 . S
H1852 C1829 0.950 . S
H1853 C1831 0.950 . S
C1854 C1855 1.349 . S
C1854 C1856 1.327 . S
C1854 H1879 0.950 . S
C1855 C1854 1.349 . S
C1855 C1871 1.349 . S
C1856 C1854 1.327 . S
C1856 C1875 1.429 1_455 S
C1856 H1880 0.950 1_455 S
C1857 C1874 1.574 . S
C1857 C1876 1.368 . S
C1857 H1881 0.949 . S
H1858 C1862 0.949 . S
C1859 C1860 1.349 . S
C1859 C1861 1.327 . S
C1859 H1882 0.950 . S
C1860 C1859 1.349 . S
C1860 C1872 1.349 . S
C1861 C1859 1.327 . S
C1861 C1877 1.429 . S
C1861 H1883 0.950 . S
C1862 H1858 0.949 . S
C1862 C1870 1.574 . S
C1862 C1878 1.368 . S
H1863 C1871 0.950 . S
H1864 C1869 0.950 1_655 S
H1865 C1870 0.949 . S
H1866 C1872 0.950 . S
H1867 C1873 0.950 . S
H1868 C1874 0.949 . S
C1869 H1864 0.950 1_455 S
C1869 C1871 1.327 . S
C1869 C1875 1.429 1_455 S
C1870 C1862 1.574 . S
C1870 H1865 0.949 . S
C1870 C1876 1.368 . S
C1871 C1855 1.349 . S
C1871 H1863 0.950 . S
C1871 C1869 1.327 . S
C1872 C1860 1.349 . S
C1872 H1866 0.950 . S
C1872 C1873 1.327 . S
C1873 H1867 0.950 . S
C1873 C1872 1.327 . S
C1873 C1877 1.429 . S
C1874 C1857 1.574 . S
C1874 H1868 0.949 . S
C1874 C1878 1.368 . S
C1875 C1856 1.429 1_655 S
C1875 C1869 1.429 1_655 S
C1875 C1876 1.523 . S
C1876 C1857 1.368 . S
C1876 C1870 1.368 . S
C1876 C1875 1.523 . S
C1877 C1861 1.429 . S
C1877 C1873 1.429 . S
C1877 C1878 1.523 . S
C1878 C1862 1.368 . S
C1878 C1874 1.368 . S
C1878 C1877 1.523 . S
H1879 C1854 0.950 . S
H1880 C1856 0.950 1_655 S
H1881 C1857 0.949 . S
H1882 C1859 0.950 . S
H1883 C1861 0.950 . S
C1884 C1885 1.349 . S
C1884 C1886 1.327 . S
C1884 H1909 0.950 . S
C1885 C1884 1.349 . S
C1885 C1901 1.349 . S
C1886 C1884 1.327 . S
C1886 C1905 1.429 . S
C1886 H1910 0.950 . S
C1887 C1904 1.574 . S
C1887 C1906 1.368 . S
C1887 H1911 0.949 . S
H1888 C1892 0.949 . S
C1889 C1890 1.349 . S
C1889 C1891 1.327 . S
C1889 H1912 0.950 . S
C1890 C1889 1.349 . S
C1890 C1902 1.349 . S
C1891 C1889 1.327 . S
C1891 C1907 1.429 . S
C1891 H1913 0.950 . S
C1892 H1888 0.949 . S
C1892 C1900 1.574 . S
C1892 C1908 1.368 . S
H1893 C1901 0.950 . S
H1894 C1899 0.950 . S
H1895 C1900 0.949 . S
H1896 C1902 0.950 . S
H1897 C1903 0.950 . S
H1898 C1904 0.949 . S
C1899 H1894 0.950 . S
C1899 C1901 1.327 . S
C1899 C1905 1.429 . S
C1900 C1892 1.574 . S
C1900 H1895 0.949 . S
C1900 C1906 1.368 . S
C1901 C1885 1.349 . S
C1901 H1893 0.950 . S
C1901 C1899 1.327 . S
C1902 C1890 1.349 . S
C1902 H1896 0.950 . S
C1902 C1903 1.327 . S
C1903 H1897 0.950 . S
C1903 C1902 1.327 . S
C1903 C1907 1.429 . S
C1904 C1887 1.574 . S
C1904 H1898 0.949 . S
C1904 C1908 1.368 . S
C1905 C1886 1.429 . S
C1905 C1899 1.429 . S
C1905 C1906 1.523 . S
C1906 C1887 1.368 . S
C1906 C1900 1.368 . S
C1906 C1905 1.523 . S
C1907 C1891 1.429 . S
C1907 C1903 1.429 . S
C1907 C1908 1.523 . S
C1908 C1892 1.368 . S
C1908 C1904 1.368 . S
C1908 C1907 1.523 . S
H1909 C1884 0.950 . S
H1910 C1886 0.950 . S
H1911 C1887 0.949 . S
H1912 C1889 0.950 . S
H1913 C1891 0.950 . S
C1914 C1915 1.349 . S
C1914 C1916 1.327 . S
C1914 H1939 0.950 . S
C1915 C1914 1.349 . S
C1915 C1931 1.349 . S
C1916 C1914 1.327 . S
C1916 C1935 1.429 1_565 S
C1916 H1940 0.957 . S
C1917 C1934 1.574 . S
C1917 C1936 1.368 . S
C1917 H1941 0.949 . S
H1918 C1922 0.949 . S
C1919 C1920 1.349 . S
C1919 C1921 1.327 . S
C1919 H1942 0.950 . S
C1920 C1919 1.349 . S
C1920 C1932 1.349 . S
C1921 C1919 1.327 . S
C1921 C1937 1.429 . S
C1921 H1943 0.950 . S
C1922 H1918 0.949 . S
C1922 C1930 1.574 . S
C1922 C1938 1.368 . S
H1923 C1931 0.950 . S
H1924 C1929 0.950 . S
H1925 C1930 0.949 . S
H1926 C1932 0.950 . S
H1927 C1933 0.950 . S
H1928 C1934 0.949 . S
C1929 H1924 0.950 . S
C1929 C1931 1.327 1_545 S
C1929 C1935 1.429 . S
C1930 C1922 1.574 . S
C1930 H1925 0.949 . S
C1930 C1936 1.368 . S
C1931 C1915 1.349 . S
C1931 H1923 0.950 . S
C1931 C1929 1.327 1_565 S
C1932 C1920 1.349 . S
C1932 H1926 0.950 . S
C1932 C1933 1.327 . S
C1933 H1927 0.950 . S
C1933 C1932 1.327 . S
C1933 C1937 1.429 . S
C1934 C1917 1.574 . S
C1934 H1928 0.949 . S
C1934 C1938 1.368 . S
C1935 C1916 1.429 1_545 S
C1935 C1929 1.429 . S
C1935 C1936 1.523 . S
C1936 C1917 1.368 . S
C1936 C1930 1.368 . S
C1936 C1935 1.523 . S
C1937 C1921 1.429 . S
C1937 C1933 1.429 . S
C1937 C1938 1.523 . S
C1938 C1922 1.368 . S
C1938 C1934 1.368 . S
C1938 C1937 1.523 . S
H1939 C1914 0.950 . S
H1940 C1916 0.957 . S
H1941 C1917 0.949 . S
H1942 C1919 0.950 . S
H1943 C1921 0.950 . S
C1944 C1945 1.349 . S
C1944 C1946 1.327 . S
C1944 H1969 0.950 . S
C1945 C1944 1.349 . S
C1945 C1961 1.349 . S
C1946 C1944 1.327 . S
C1946 C1965 1.429 . S
C1946 H1970 0.950 . S
C1947 C1964 1.574 . S
C1947 C1966 1.368 . S
C1947 H1971 0.949 . S
H1948 C1952 0.949 . S
C1949 C1950 1.349 . S
C1949 C1951 1.327 . S
C1949 H1972 0.950 . S
C1950 C1949 1.349 . S
C1950 C1962 1.349 . S
C1951 C1949 1.327 . S
C1951 C1967 1.429 . S
C1951 H1973 0.950 . S
C1952 H1948 0.949 . S
C1952 C1960 1.574 . S
C1952 C1968 1.368 . S
H1953 C1961 0.950 . S
H1954 C1959 0.950 . S
H1955 C1960 0.949 . S
H1956 C1962 0.950 . S
H1957 C1963 0.950 . S
H1958 C1964 0.949 . S
C1959 H1954 0.950 . S
C1959 C1961 1.327 . S
C1959 C1965 1.429 . S
C1960 C1952 1.574 . S
C1960 H1955 0.949 . S
C1960 C1966 1.368 . S
C1961 C1945 1.349 . S
C1961 H1953 0.950 . S
C1961 C1959 1.327 . S
C1962 C1950 1.349 . S
C1962 H1956 0.950 . S
C1962 C1963 1.327 . S
C1963 H1957 0.950 . S
C1963 C1962 1.327 . S
C1963 C1967 1.429 . S
C1964 C1947 1.574 . S
C1964 H1958 0.949 . S
C1964 C1968 1.368 . S
C1965 C1946 1.429 . S
C1965 C1959 1.429 . S
C1965 C1966 1.523 . S
C1966 C1947 1.368 . S
C1966 C1960 1.368 . S
C1966 C1965 1.523 . S
C1967 C1951 1.429 . S
C1967 C1963 1.429 . S
C1967 C1968 1.523 . S
C1968 C1952 1.368 . S
C1968 C1964 1.368 . S
C1968 C1967 1.523 . S
H1969 C1944 0.950 . S
H1970 C1946 0.950 . S
H1971 C1947 0.949 . S
H1972 C1949 0.950 . S
H1973 C1951 0.950 . S
C1974 C1975 1.349 . S
C1974 C1976 1.327 . S
C1974 H1999 0.950 . S
C1975 C1974 1.349 . S
C1975 C1991 1.349 . S
C1976 C1974 1.327 . S
C1976 C1995 1.429 . S
C1976 H2000 0.950 . S
C1977 C1994 1.574 . S
C1977 C1996 1.368 . S
C1977 H2001 0.949 . S
H1978 C1982 0.949 . S
C1979 C1980 1.349 . S
C1979 C1981 1.327 . S
C1979 H2002 0.950 . S
C1980 C1979 1.349 . S
C1980 C1992 1.349 . S
C1981 C1979 1.327 . S
C1981 C1997 1.429 . S
C1981 H2003 0.950 . S
C1982 H1978 0.949 . S
C1982 C1990 1.574 . S
C1982 C1998 1.368 . S
H1983 C1991 0.950 . S
H1984 C1989 0.950 . S
H1985 C1990 0.949 . S
H1986 C1992 0.950 . S
H1987 C1993 0.950 . S
H1988 C1994 0.949 . S
C1989 H1984 0.950 . S
C1989 C1991 1.327 . S
C1989 C1995 1.429 . S
C1990 C1982 1.574 . S
C1990 H1985 0.949 . S
C1990 C1996 1.368 . S
C1991 C1975 1.349 . S
C1991 H1983 0.950 . S
C1991 C1989 1.327 . S
C1992 C1980 1.349 . S
C1992 H1986 0.950 . S
C1992 C1993 1.327 . S
C1993 H1987 0.950 . S
C1993 C1992 1.327 . S
C1993 C1997 1.429 . S
C1994 C1977 1.574 . S
C1994 H1988 0.949 . S
C1994 C1998 1.368 . S
C1995 C1976 1.429 . S
C1995 C1989 1.429 . S
C1995 C1996 1.523 . S
C1996 C1977 1.368 . S
C1996 C1990 1.368 . S
C1996 C1995 1.523 . S
C1997 C1981 1.429 . S
C1997 C1993 1.429 . S
C1997 C1998 1.523 . S
C1998 C1982 1.368 . S
C1998 C1994 1.368 . S
C1998 C1997 1.523 . S
H1999 C1974 0.950 . S
H2000 C1976 0.950 . S
H2001 C1977 0.949 . S
H2002 C1979 0.950 . S
H2003 C1981 0.950 . S
C2004 C2005 1.349 . S
C2004 C2006 1.327 . S
C2004 H2029 0.950 . S
C2005 C2004 1.349 . S
C2005 C2021 1.349 . S
C2006 C2004 1.327 . S
C2006 C2025 1.429 . S
C2006 H2030 0.950 . S
C2007 C2024 1.574 . S
C2007 C2026 1.368 . S
C2007 H2031 0.949 . S
H2008 C2012 0.949 . S
C2009 C2010 1.349 . S
C2009 C2011 1.327 . S
C2009 H2032 0.950 . S
C2010 C2009 1.349 . S
C2010 C2022 1.349 . S
C2011 C2009 1.327 . S
C2011 C2027 1.429 . S
C2011 H2033 0.950 . S
C2012 H2008 0.949 . S
C2012 C2020 1.574 . S
C2012 C2028 1.368 . S
H2013 C2021 0.950 . S
H2014 C2019 0.950 . S
H2015 C2020 0.949 . S
H2016 C2022 0.950 . S
H2017 C2023 0.950 . S
H2018 C2024 0.949 . S
C2019 H2014 0.950 . S
C2019 C2021 1.327 . S
C2019 C2025 1.429 . S
C2020 C2012 1.574 . S
C2020 H2015 0.949 . S
C2020 C2026 1.368 . S
C2021 C2005 1.349 . S
C2021 H2013 0.950 . S
C2021 C2019 1.327 . S
C2022 C2010 1.349 . S
C2022 H2016 0.950 . S
C2022 C2023 1.327 . S
C2023 H2017 0.950 . S
C2023 C2022 1.327 . S
C2023 C2027 1.429 . S
C2024 C2007 1.574 . S
C2024 H2018 0.949 . S
C2024 C2028 1.368 . S
C2025 C2006 1.429 . S
C2025 C2019 1.429 . S
C2025 C2026 1.523 . S
C2026 C2007 1.368 . S
C2026 C2020 1.368 . S
C2026 C2025 1.523 . S
C2027 C2011 1.429 . S
C2027 C2023 1.429 . S
C2027 C2028 1.523 . S
C2028 C2012 1.368 . S
C2028 C2024 1.368 . S
C2028 C2027 1.523 . S
H2029 C2004 0.950 . S
H2030 C2006 0.950 . S
H2031 C2007 0.949 . S
H2032 C2009 0.950 . S
H2033 C2011 0.950 . S
C2034 C2035 1.349 . S
C2034 C2036 1.327 . S
C2034 H2059 0.950 . S
C2035 C2034 1.349 . S
C2035 C2051 1.349 . S
C2036 C2034 1.327 . S
C2036 C2055 1.429 . S
C2036 H2060 0.950 . S
C2037 C2054 1.574 . S
C2037 C2056 1.368 . S
C2037 H2061 0.949 . S
H2038 C2042 0.949 . S
C2039 C2040 1.349 . S
C2039 C2041 1.327 . S
C2039 H2062 0.950 . S
C2040 C2039 1.349 . S
C2040 C2052 1.349 . S
C2041 C2039 1.327 . S
C2041 C2057 1.429 . S
C2041 H2063 0.950 . S
C2042 H2038 0.949 . S
C2042 C2050 1.574 . S
C2042 C2058 1.368 . S
H2043 C2051 0.950 . S
H2044 C2049 0.950 . S
H2045 C2050 0.949 . S
H2046 C2052 0.950 . S
H2047 C2053 0.950 . S
H2048 C2054 0.949 . S
C2049 H2044 0.950 . S
C2049 C2051 1.327 . S
C2049 C2055 1.429 . S
C2050 C2042 1.574 . S
C2050 H2045 0.949 . S
C2050 C2056 1.368 . S
C2051 C2035 1.349 . S
C2051 H2043 0.950 . S
C2051 C2049 1.327 . S
C2052 C2040 1.349 . S
C2052 H2046 0.950 . S
C2052 C2053 1.327 . S
C2053 H2047 0.950 . S
C2053 C2052 1.327 . S
C2053 C2057 1.429 . S
C2054 C2037 1.574 . S
C2054 H2048 0.949 . S
C2054 C2058 1.368 . S
C2055 C2036 1.429 . S
C2055 C2049 1.429 . S
C2055 C2056 1.523 . S
C2056 C2037 1.368 . S
C2056 C2050 1.368 . S
C2056 C2055 1.523 . S
C2057 C2041 1.429 . S
C2057 C2053 1.429 . S
C2057 C2058 1.523 . S
C2058 C2042 1.368 . S
C2058 C2054 1.368 . S
C2058 C2057 1.523 . S
H2059 C2034 0.950 . S
H2060 C2036 0.950 . S
H2061 C2037 0.949 . S
H2062 C2039 0.950 . S
H2063 C2041 0.950 . S
C2064 C2065 1.349 . S
C2064 C2066 1.327 . S
C2064 H2089 0.950 . S
C2065 C2064 1.349 . S
C2065 C2081 1.349 . S
C2066 C2064 1.327 . S
C2066 C2085 1.429 . S
C2066 H2090 0.950 . S
C2067 C2084 1.574 . S
C2067 C2086 1.368 . S
C2067 H2091 0.949 . S
H2068 C2072 0.949 . S
C2069 C2070 1.349 . S
C2069 C2071 1.327 . S
C2069 H2092 0.950 . S
C2070 C2069 1.349 . S
C2070 C2082 1.349 . S
C2071 C2069 1.327 . S
C2071 C2087 1.429 . S
C2071 H2093 0.950 . S
C2072 H2068 0.949 . S
C2072 C2080 1.574 . S
C2072 C2088 1.368 . S
H2073 C2081 0.950 . S
H2074 C2079 0.950 . S
H2075 C2080 0.949 . S
H2076 C2082 0.950 . S
H2077 C2083 0.950 . S
H2078 C2084 0.949 . S
C2079 H2074 0.950 . S
C2079 C2081 1.327 . S
C2079 C2085 1.429 . S
C2080 C2072 1.574 . S
C2080 H2075 0.949 . S
C2080 C2086 1.368 . S
C2081 C2065 1.349 . S
C2081 H2073 0.950 . S
C2081 C2079 1.327 . S
C2082 C2070 1.349 . S
C2082 H2076 0.950 . S
C2082 C2083 1.327 . S
C2083 H2077 0.950 . S
C2083 C2082 1.327 . S
C2083 C2087 1.429 . S
C2084 C2067 1.574 . S
C2084 H2078 0.949 . S
C2084 C2088 1.368 . S
C2085 C2066 1.429 . S
C2085 C2079 1.429 . S
C2085 C2086 1.523 . S
C2086 C2067 1.368 . S
C2086 C2080 1.368 . S
C2086 C2085 1.523 . S
C2087 C2071 1.429 . S
C2087 C2083 1.429 . S
C2087 C2088 1.523 . S
C2088 C2072 1.368 . S
C2088 C2084 1.368 . S
C2088 C2087 1.523 . S
H2089 C2064 0.950 . S
H2090 C2066 0.950 . S
H2091 C2067 0.949 . S
H2092 C2069 0.950 . S
H2093 C2071 0.950 . S
C2094 C2095 1.349 . S
C2094 C2096 1.327 . S
C2094 H2119 0.950 . S
C2095 C2094 1.349 . S
C2095 C2111 1.349 . S
C2096 C2094 1.327 . S
C2096 C2115 1.429 . S
C2096 H2120 0.950 . S
C2097 C2114 1.574 . S
C2097 C2116 1.368 . S
C2097 H2121 0.949 . S
H2098 C2102 0.949 . S
C2099 C2100 1.349 . S
C2099 C2101 1.327 . S
C2099 H2122 0.950 . S
C2100 C2099 1.349 . S
C2100 C2112 1.349 . S
C2101 C2099 1.327 . S
C2101 C2117 1.429 . S
C2101 H2123 0.950 . S
C2102 H2098 0.949 . S
C2102 C2110 1.574 . S
C2102 C2118 1.368 . S
H2103 C2111 0.950 . S
H2104 C2109 0.950 . S
H2105 C2110 0.949 . S
H2106 C2112 0.950 . S
H2107 C2113 0.950 . S
H2108 C2114 0.949 . S
C2109 H2104 0.950 . S
C2109 C2111 1.327 . S
C2109 C2115 1.429 . S
C2110 C2102 1.574 . S
C2110 H2105 0.949 . S
C2110 C2116 1.368 . S
C2111 C2095 1.349 . S
C2111 H2103 0.950 . S
C2111 C2109 1.327 . S
C2112 C2100 1.349 . S
C2112 H2106 0.950 . S
C2112 C2113 1.327 . S
C2113 H2107 0.950 . S
C2113 C2112 1.327 . S
C2113 C2117 1.429 . S
C2114 C2097 1.574 . S
C2114 H2108 0.949 . S
C2114 C2118 1.368 . S
C2115 C2096 1.429 . S
C2115 C2109 1.429 . S
C2115 C2116 1.523 . S
C2116 C2097 1.368 . S
C2116 C2110 1.368 . S
C2116 C2115 1.523 . S
C2117 C2101 1.429 . S
C2117 C2113 1.429 . S
C2117 C2118 1.523 . S
C2118 C2102 1.368 . S
C2118 C2114 1.368 . S
C2118 C2117 1.523 . S
H2119 C2094 0.950 . S
H2120 C2096 0.950 . S
H2121 C2097 0.949 . S
H2122 C2099 0.950 . S
H2123 C2101 0.950 . S
C2124 C2125 1.349 . S
C2124 C2126 1.327 . S
C2124 H2149 0.950 . S
C2125 C2124 1.349 . S
C2125 C2141 1.349 . S
C2126 C2124 1.327 . S
C2126 C2145 1.429 . S
C2126 H2150 0.950 . S
C2127 C2144 1.574 . S
C2127 C2146 1.368 . S
C2127 H2151 0.949 . S
H2128 C2132 0.949 . S
C2129 C2130 1.349 . S
C2129 C2131 1.327 . S
C2129 H2152 0.950 . S
C2130 C2129 1.349 . S
C2130 C2142 1.349 . S
C2131 C2129 1.327 . S
C2131 C2147 1.429 . S
C2131 H2153 0.950 . S
C2132 H2128 0.949 . S
C2132 C2140 1.574 . S
C2132 C2148 1.368 . S
H2133 C2141 0.950 . S
H2134 C2139 0.950 . S
H2135 C2140 0.949 . S
H2136 C2142 0.950 . S
H2137 C2143 0.950 . S
H2138 C2144 0.949 . S
C2139 H2134 0.950 . S
C2139 C2141 1.327 . S
C2139 C2145 1.429 . S
C2140 C2132 1.574 . S
C2140 H2135 0.949 . S
C2140 C2146 1.368 . S
C2141 C2125 1.349 . S
C2141 H2133 0.950 . S
C2141 C2139 1.327 . S
C2142 C2130 1.349 . S
C2142 H2136 0.950 . S
C2142 C2143 1.327 . S
C2143 H2137 0.950 . S
C2143 C2142 1.327 . S
C2143 C2147 1.429 . S
C2144 C2127 1.574 . S
C2144 H2138 0.949 . S
C2144 C2148 1.368 . S
C2145 C2126 1.429 . S
C2145 C2139 1.429 . S
C2145 C2146 1.523 . S
C2146 C2127 1.368 . S
C2146 C2140 1.368 . S
C2146 C2145 1.523 . S
C2147 C2131 1.429 . S
C2147 C2143 1.429 . S
C2147 C2148 1.523 . S
C2148 C2132 1.368 . S
C2148 C2144 1.368 . S
C2148 C2147 1.523 . S
H2149 C2124 0.950 . S
H2150 C2126 0.950 . S
H2151 C2127 0.949 . S
H2152 C2129 0.950 . S
H2153 C2131 0.950 . S
C2154 C2155 1.349 . S
C2154 C2156 1.327 . S
C2154 H2179 0.950 . S
C2155 C2154 1.349 . S
C2155 C2171 1.349 . S
C2156 C2154 1.327 . S
C2156 C2175 1.429 . S
C2156 H2180 0.950 . S
C2157 C2174 1.574 . S
C2157 C2176 1.368 . S
C2157 H2181 0.949 . S
H2158 C2162 0.949 . S
C2159 C2160 1.349 . S
C2159 C2161 1.327 . S
C2159 H2182 0.950 . S
C2160 C2159 1.349 . S
C2160 C2172 1.349 . S
C2161 C2159 1.327 . S
C2161 C2177 1.429 . S
C2161 H2183 0.950 . S
C2162 H2158 0.949 . S
C2162 C2170 1.574 . S
C2162 C2178 1.368 . S
H2163 C2171 0.950 . S
H2164 C2169 0.950 . S
H2165 C2170 0.949 . S
H2166 C2172 0.950 . S
H2167 C2173 0.950 . S
H2168 C2174 0.949 . S
C2169 H2164 0.950 . S
C2169 C2171 1.327 . S
C2169 C2175 1.429 . S
C2170 C2162 1.574 . S
C2170 H2165 0.949 . S
C2170 C2176 1.368 . S
C2171 C2155 1.349 . S
C2171 H2163 0.950 . S
C2171 C2169 1.327 . S
C2172 C2160 1.349 . S
C2172 H2166 0.950 . S
C2172 C2173 1.327 . S
C2173 H2167 0.950 . S
C2173 C2172 1.327 . S
C2173 C2177 1.429 . S
C2174 C2157 1.574 . S
C2174 H2168 0.949 . S
C2174 C2178 1.368 . S
C2175 C2156 1.429 . S
C2175 C2169 1.429 . S
C2175 C2176 1.523 . S
C2176 C2157 1.368 . S
C2176 C2170 1.368 . S
C2176 C2175 1.523 . S
C2177 C2161 1.429 . S
C2177 C2173 1.429 . S
C2177 C2178 1.523 . S
C2178 C2162 1.368 . S
C2178 C2174 1.368 . S
C2178 C2177 1.523 . S
H2179 C2154 0.950 . S
H2180 C2156 0.950 . S
H2181 C2157 0.949 . S
H2182 C2159 0.950 . S
H2183 C2161 0.950 . S
C2184 C2185 1.349 . S
C2184 C2186 1.327 . S
C2184 H2209 0.950 . S
C2185 C2184 1.349 . S
C2185 C2201 1.349 . S
C2186 C2184 1.327 . S
C2186 C2205 1.429 . S
C2186 H2210 0.950 . S
C2187 C2204 1.574 . S
C2187 C2206 1.368 . S
C2187 H2211 0.949 . S
H2188 C2192 0.949 . S
C2189 C2190 1.349 . S
C2189 C2191 1.327 . S
C2189 H2212 0.950 . S
C2190 C2189 1.349 . S
C2190 C2202 1.349 . S
C2191 C2189 1.327 . S
C2191 C2207 1.429 . S
C2191 H2213 0.950 . S
C2192 H2188 0.949 . S
C2192 C2200 1.574 . S
C2192 C2208 1.368 . S
H2193 C2201 0.950 . S
H2194 C2199 0.950 . S
H2195 C2200 0.949 . S
H2196 C2202 0.950 . S
H2197 C2203 0.950 . S
H2198 C2204 0.949 . S
C2199 H2194 0.950 . S
C2199 C2201 1.327 . S
C2199 C2205 1.429 . S
C2200 C2192 1.574 . S
C2200 H2195 0.949 . S
C2200 C2206 1.368 . S
C2201 C2185 1.349 . S
C2201 H2193 0.950 . S
C2201 C2199 1.327 . S
C2202 C2190 1.349 . S
C2202 H2196 0.950 . S
C2202 C2203 1.327 . S
C2203 H2197 0.950 . S
C2203 C2202 1.327 . S
C2203 C2207 1.429 . S
C2204 C2187 1.574 . S
C2204 H2198 0.949 . S
C2204 C2208 1.368 . S
C2205 C2186 1.429 . S
C2205 C2199 1.429 . S
C2205 C2206 1.523 . S
C2206 C2187 1.368 . S
C2206 C2200 1.368 . S
C2206 C2205 1.523 . S
C2207 C2191 1.429 . S
C2207 C2203 1.429 . S
C2207 C2208 1.523 . S
C2208 C2192 1.368 . S
C2208 C2204 1.368 . S
C2208 C2207 1.523 . S
H2209 C2184 0.950 . S
H2210 C2186 0.950 . S
H2211 C2187 0.949 . S
H2212 C2189 0.950 . S
H2213 C2191 0.950 . S
C2214 C2215 1.349 . S
C2214 C2216 1.327 . S
C2214 H2239 0.950 . S
C2215 C2214 1.349 . S
C2215 C2231 1.349 . S
C2216 C2214 1.327 . S
C2216 C2235 1.429 . S
C2216 H2240 0.950 . S
C2217 C2234 1.574 . S
C2217 C2236 1.368 . S
C2217 H2241 0.949 . S
H2218 C2222 0.949 . S
C2219 C2220 1.349 . S
C2219 C2221 1.327 . S
C2219 H2242 0.950 . S
C2220 C2219 1.349 . S
C2220 C2232 1.349 . S
C2221 C2219 1.327 . S
C2221 C2237 1.429 . S
C2221 H2243 0.950 . S
C2222 H2218 0.949 . S
C2222 C2230 1.574 . S
C2222 C2238 1.368 . S
H2223 C2231 0.950 . S
H2224 C2229 0.950 . S
H2225 C2230 0.949 . S
H2226 C2232 0.950 . S
H2227 C2233 0.950 . S
H2228 C2234 0.949 . S
C2229 H2224 0.950 . S
C2229 C2231 1.327 . S
C2229 C2235 1.429 . S
C2230 C2222 1.574 . S
C2230 H2225 0.949 . S
C2230 C2236 1.368 . S
C2231 C2215 1.349 . S
C2231 H2223 0.950 . S
C2231 C2229 1.327 . S
C2232 C2220 1.349 . S
C2232 H2226 0.950 . S
C2232 C2233 1.327 . S
C2233 H2227 0.950 . S
C2233 C2232 1.327 . S
C2233 C2237 1.429 . S
C2234 C2217 1.574 . S
C2234 H2228 0.949 . S
C2234 C2238 1.368 . S
C2235 C2216 1.429 . S
C2235 C2229 1.429 . S
C2235 C2236 1.523 . S
C2236 C2217 1.368 . S
C2236 C2230 1.368 . S
C2236 C2235 1.523 . S
C2237 C2221 1.429 . S
C2237 C2233 1.429 . S
C2237 C2238 1.523 . S
C2238 C2222 1.368 . S
C2238 C2234 1.368 . S
C2238 C2237 1.523 . S
H2239 C2214 0.950 . S
H2240 C2216 0.950 . S
H2241 C2217 0.949 . S
H2242 C2219 0.950 . S
H2243 C2221 0.950 . S
C2244 C2245 1.349 . S
C2244 C2246 1.327 . S
C2244 H2269 0.950 . S
C2245 C2244 1.349 . S
C2245 C2261 1.349 . S
C2246 C2244 1.327 . S
C2246 C2265 1.429 . S
C2246 H2270 0.950 . S
C2247 C2264 1.574 . S
C2247 C2266 1.368 . S
C2247 H2271 0.949 . S
H2248 C2252 0.949 . S
C2249 C2250 1.349 . S
C2249 C2251 1.327 . S
C2249 H2272 0.950 . S
C2250 C2249 1.349 . S
C2250 C2262 1.349 . S
C2251 C2249 1.327 . S
C2251 C2267 1.429 . S
C2251 H2273 0.950 . S
C2252 H2248 0.949 . S
C2252 C2260 1.574 . S
C2252 C2268 1.368 . S
H2253 C2261 0.950 . S
H2254 C2259 0.950 . S
H2255 C2260 0.949 . S
H2256 C2262 0.950 . S
H2257 C2263 0.950 . S
H2258 C2264 0.949 . S
C2259 H2254 0.950 . S
C2259 C2261 1.327 . S
C2259 C2265 1.429 . S
C2260 C2252 1.574 . S
C2260 H2255 0.949 . S
C2260 C2266 1.368 . S
C2261 C2245 1.349 . S
C2261 H2253 0.950 . S
C2261 C2259 1.327 . S
C2262 C2250 1.349 . S
C2262 H2256 0.950 . S
C2262 C2263 1.327 . S
C2263 H2257 0.950 . S
C2263 C2262 1.327 . S
C2263 C2267 1.429 . S
C2264 C2247 1.574 . S
C2264 H2258 0.949 . S
C2264 C2268 1.368 . S
C2265 C2246 1.429 . S
C2265 C2259 1.429 . S
C2265 C2266 1.523 . S
C2266 C2247 1.368 . S
C2266 C2260 1.368 . S
C2266 C2265 1.523 . S
C2267 C2251 1.429 . S
C2267 C2263 1.429 . S
C2267 C2268 1.523 . S
C2268 C2252 1.368 . S
C2268 C2264 1.368 . S
C2268 C2267 1.523 . S
H2269 C2244 0.950 . S
H2270 C2246 0.950 . S
H2271 C2247 0.949 . S
H2272 C2249 0.950 . S
H2273 C2251 0.950 . S
C2274 C2275 1.349 . S
C2274 C2276 1.327 . S
C2274 H2299 0.950 . S
C2275 C2274 1.349 . S
C2275 C2291 1.349 . S
C2276 C2274 1.327 . S
C2276 C2295 1.429 . S
C2276 H2300 0.950 . S
C2277 C2294 1.574 . S
C2277 C2296 1.368 . S
C2277 H2301 0.949 . S
H2278 C2282 0.949 . S
C2279 C2280 1.349 . S
C2279 C2281 1.327 . S
C2279 H2302 0.950 . S
C2280 C2279 1.349 . S
C2280 C2292 1.349 . S
C2281 C2279 1.327 . S
C2281 C2297 1.429 . S
C2281 H2303 0.950 . S
C2282 H2278 0.949 . S
C2282 C2290 1.574 . S
C2282 C2298 1.368 . S
H2283 C2291 0.950 . S
H2284 C2289 0.950 . S
H2285 C2290 0.949 . S
H2286 C2292 0.950 . S
H2287 C2293 0.950 . S
H2288 C2294 0.949 . S
C2289 H2284 0.950 . S
C2289 C2291 1.327 . S
C2289 C2295 1.429 . S
C2290 C2282 1.574 . S
C2290 H2285 0.949 . S
C2290 C2296 1.368 . S
C2291 C2275 1.349 . S
C2291 H2283 0.950 . S
C2291 C2289 1.327 . S
C2292 C2280 1.349 . S
C2292 H2286 0.950 . S
C2292 C2293 1.327 . S
C2293 H2287 0.950 . S
C2293 C2292 1.327 . S
C2293 C2297 1.429 . S
C2294 C2277 1.574 . S
C2294 H2288 0.949 . S
C2294 C2298 1.368 . S
C2295 C2276 1.429 . S
C2295 C2289 1.429 . S
C2295 C2296 1.523 . S
C2296 C2277 1.368 . S
C2296 C2290 1.368 . S
C2296 C2295 1.523 . S
C2297 C2281 1.429 . S
C2297 C2293 1.429 . S
C2297 C2298 1.523 . S
C2298 C2282 1.368 . S
C2298 C2294 1.368 . S
C2298 C2297 1.523 . S
H2299 C2274 0.950 . S
H2300 C2276 0.950 . S
H2301 C2277 0.949 . S
H2302 C2279 0.950 . S
H2303 C2281 0.950 . S
C2304 C2305 1.349 . S
C2304 C2306 1.327 . S
C2304 H2329 0.950 . S
C2305 C2304 1.349 . S
C2305 C2321 1.349 . S
C2306 C2304 1.327 . S
C2306 C2325 1.429 . S
C2306 H2330 0.950 . S
C2307 C2324 1.574 . S
C2307 C2326 1.368 . S
C2307 H2331 0.949 . S
H2308 C2312 0.949 . S
C2309 C2310 1.349 . S
C2309 C2311 1.327 . S
C2309 H2332 0.950 . S
C2310 C2309 1.349 . S
C2310 C2322 1.349 . S
C2311 C2309 1.327 . S
C2311 C2327 1.429 . S
C2311 H2333 0.950 . S
C2312 H2308 0.949 . S
C2312 C2320 1.574 . S
C2312 C2328 1.368 . S
H2313 C2321 0.950 . S
H2314 C2319 0.950 . S
H2315 C2320 0.949 . S
H2316 C2322 0.950 . S
H2317 C2323 0.950 . S
H2318 C2324 0.949 . S
C2319 H2314 0.950 . S
C2319 C2321 1.327 . S
C2319 C2325 1.429 . S
C2320 C2312 1.574 . S
C2320 H2315 0.949 . S
C2320 C2326 1.368 . S
C2321 C2305 1.349 . S
C2321 H2313 0.950 . S
C2321 C2319 1.327 . S
C2322 C2310 1.349 . S
C2322 H2316 0.950 . S
C2322 C2323 1.327 . S
C2323 H2317 0.950 . S
C2323 C2322 1.327 . S
C2323 C2327 1.429 . S
C2324 C2307 1.574 . S
C2324 H2318 0.949 . S
C2324 C2328 1.368 . S
C2325 C2306 1.429 . S
C2325 C2319 1.429 . S
C2325 C2326 1.523 . S
C2326 C2307 1.368 . S
C2326 C2320 1.368 . S
C2326 C2325 1.523 . S
C2327 C2311 1.429 . S
C2327 C2323 1.429 . S
C2327 C2328 1.523 . S
C2328 C2312 1.368 . S
C2328 C2324 1.368 . S
C2328 C2327 1.523 . S
H2329 C2304 0.950 . S
H2330 C2306 0.950 . S
H2331 C2307 0.949 . S
H2332 C2309 0.950 . S
H2333 C2311 0.950 . S
C2334 C2335 1.349 . S
C2334 C2336 1.327 . S
C2334 H2359 0.950 . S
C2335 C2334 1.349 . S
C2335 C2351 1.349 . S
C2336 C2334 1.327 . S
C2336 C2355 1.429 . S
C2336 H2360 0.950 . S
C2337 C2354 1.574 . S
C2337 C2356 1.368 . S
C2337 H2361 0.949 . S
H2338 C2342 0.949 . S
C2339 C2340 1.349 . S
C2339 C2341 1.327 . S
C2339 H2362 0.950 . S
C2340 C2339 1.349 . S
C2340 C2352 1.349 . S
C2341 C2339 1.327 . S
C2341 C2357 1.429 . S
C2341 H2363 0.950 . S
C2342 H2338 0.949 . S
C2342 C2350 1.574 . S
C2342 C2358 1.368 . S
H2343 C2351 0.950 . S
H2344 C2349 0.950 . S
H2345 C2350 0.949 . S
H2346 C2352 0.950 . S
H2347 C2353 0.950 . S
H2348 C2354 0.949 . S
C2349 H2344 0.950 . S
C2349 C2351 1.327 . S
C2349 C2355 1.429 . S
C2350 C2342 1.574 . S
C2350 H2345 0.949 . S
C2350 C2356 1.368 . S
C2351 C2335 1.349 . S
C2351 H2343 0.950 . S
C2351 C2349 1.327 . S
C2352 C2340 1.349 . S
C2352 H2346 0.950 . S
C2352 C2353 1.327 . S
C2353 H2347 0.950 . S
C2353 C2352 1.327 . S
C2353 C2357 1.429 . S
C2354 C2337 1.574 . S
C2354 H2348 0.949 . S
C2354 C2358 1.368 . S
C2355 C2336 1.429 . S
C2355 C2349 1.429 . S
C2355 C2356 1.523 . S
C2356 C2337 1.368 . S
C2356 C2350 1.368 . S
C2356 C2355 1.523 . S
C2357 C2341 1.429 . S
C2357 C2353 1.429 . S
C2357 C2358 1.523 . S
C2358 C2342 1.368 . S
C2358 C2354 1.368 . S
C2358 C2357 1.523 . S
H2359 C2334 0.950 . S
H2360 C2336 0.950 . S
H2361 C2337 0.949 . S
H2362 C2339 0.950 . S
H2363 C2341 0.950 . S
C2364 C2365 1.349 . S
C2364 C2366 1.327 . S
C2364 H2389 0.950 . S
C2365 C2364 1.349 . S
C2365 C2381 1.349 . S
C2366 C2364 1.327 . S
C2366 C2385 1.429 . S
C2366 H2390 0.950 . S
C2367 C2384 1.574 . S
C2367 C2386 1.368 . S
C2367 H2391 0.949 . S
H2368 C2372 0.949 . S
C2369 C2370 1.349 . S
C2369 C2371 1.327 . S
C2369 H2392 0.950 . S
C2370 C2369 1.349 . S
C2370 C2382 1.349 . S
C2371 C2369 1.327 . S
C2371 C2387 1.429 . S
C2371 H2393 0.950 . S
C2372 H2368 0.949 . S
C2372 C2380 1.574 . S
C2372 C2388 1.368 . S
H2373 C2381 0.950 . S
H2374 C2379 0.950 . S
H2375 C2380 0.949 . S
H2376 C2382 0.950 . S
H2377 C2383 0.950 . S
H2378 C2384 0.949 . S
C2379 H2374 0.950 . S
C2379 C2381 1.327 . S
C2379 C2385 1.429 . S
C2380 C2372 1.574 . S
C2380 H2375 0.949 . S
C2380 C2386 1.368 . S
C2381 C2365 1.349 . S
C2381 H2373 0.950 . S
C2381 C2379 1.327 . S
C2382 C2370 1.349 . S
C2382 H2376 0.950 . S
C2382 C2383 1.327 . S
C2383 H2377 0.950 . S
C2383 C2382 1.327 . S
C2383 C2387 1.429 . S
C2384 C2367 1.574 . S
C2384 H2378 0.949 . S
C2384 C2388 1.368 . S
C2385 C2366 1.429 . S
C2385 C2379 1.429 . S
C2385 C2386 1.523 . S
C2386 C2367 1.368 . S
C2386 C2380 1.368 . S
C2386 C2385 1.523 . S
C2387 C2371 1.429 . S
C2387 C2383 1.429 . S
C2387 C2388 1.523 . S
C2388 C2372 1.368 . S
C2388 C2384 1.368 . S
C2388 C2387 1.523 . S
H2389 C2364 0.950 . S
H2390 C2366 0.950 . S
H2391 C2367 0.949 . S
H2392 C2369 0.950 . S
H2393 C2371 0.950 . S
C2394 C2395 1.349 . S
C2394 C2396 1.327 . S
C2394 H2419 0.950 . S
C2395 C2394 1.349 . S
C2395 C2411 1.349 . S
C2396 C2394 1.327 . S
C2396 C2415 1.429 . S
C2396 H2420 0.950 . S
C2397 C2414 1.574 . S
C2397 C2416 1.368 . S
C2397 H2421 0.949 . S
H2398 C2402 0.949 . S
C2399 C2400 1.349 . S
C2399 C2401 1.327 . S
C2399 H2422 0.950 . S
C2400 C2399 1.349 . S
C2400 C2412 1.349 . S
C2401 C2399 1.327 . S
C2401 C2417 1.429 . S
C2401 H2423 0.950 . S
C2402 H2398 0.949 . S
C2402 C2410 1.574 . S
C2402 C2418 1.368 . S
H2403 C2411 0.950 . S
H2404 C2409 0.950 . S
H2405 C2410 0.949 . S
H2406 C2412 0.950 . S
H2407 C2413 0.950 . S
H2408 C2414 0.949 . S
C2409 H2404 0.950 . S
C2409 C2411 1.327 . S
C2409 C2415 1.429 . S
C2410 C2402 1.574 . S
C2410 H2405 0.949 . S
C2410 C2416 1.368 . S
C2411 C2395 1.349 . S
C2411 H2403 0.950 . S
C2411 C2409 1.327 . S
C2412 C2400 1.349 . S
C2412 H2406 0.950 . S
C2412 C2413 1.327 . S
C2413 H2407 0.950 . S
C2413 C2412 1.327 . S
C2413 C2417 1.429 . S
C2414 C2397 1.574 . S
C2414 H2408 0.949 . S
C2414 C2418 1.368 . S
C2415 C2396 1.429 . S
C2415 C2409 1.429 . S
C2415 C2416 1.523 . S
C2416 C2397 1.368 . S
C2416 C2410 1.368 . S
C2416 C2415 1.523 . S
C2417 C2401 1.429 . S
C2417 C2413 1.429 . S
C2417 C2418 1.523 . S
C2418 C2402 1.368 . S
C2418 C2414 1.368 . S
C2418 C2417 1.523 . S
H2419 C2394 0.950 . S
H2420 C2396 0.950 . S
H2421 C2397 0.949 . S
H2422 C2399 0.950 . S
H2423 C2401 0.950 . S
C2424 C2425 1.349 . S
C2424 C2426 1.327 . S
C2424 H2449 0.950 . S
C2425 C2424 1.349 . S
C2425 C2441 1.349 . S
C2426 C2424 1.327 . S
C2426 C2445 1.429 . S
C2426 H2450 0.950 . S
C2427 C2444 1.574 . S
C2427 C2446 1.368 . S
C2427 H2451 0.949 . S
H2428 C2432 0.949 . S
C2429 C2430 1.349 . S
C2429 C2431 1.327 . S
C2429 H2452 0.950 . S
C2430 C2429 1.349 . S
C2430 C2442 1.349 . S
C2431 C2429 1.327 . S
C2431 C2447 1.429 . S
C2431 H2453 0.950 . S
C2432 H2428 0.949 . S
C2432 C2440 1.574 . S
C2432 C2448 1.368 . S
H2433 C2441 0.950 . S
H2434 C2439 0.950 . S
H2435 C2440 0.949 . S
H2436 C2442 0.950 . S
H2437 C2443 0.950 . S
H2438 C2444 0.949 . S
C2439 H2434 0.950 . S
C2439 C2441 1.327 . S
C2439 C2445 1.429 . S
C2440 C2432 1.574 . S
C2440 H2435 0.949 . S
C2440 C2446 1.368 . S
C2441 C2425 1.349 . S
C2441 H2433 0.950 . S
C2441 C2439 1.327 . S
C2442 C2430 1.349 . S
C2442 H2436 0.950 . S
C2442 C2443 1.327 . S
C2443 H2437 0.950 . S
C2443 C2442 1.327 . S
C2443 C2447 1.429 . S
C2444 C2427 1.574 . S
C2444 H2438 0.949 . S
C2444 C2448 1.368 . S
C2445 C2426 1.429 . S
C2445 C2439 1.429 . S
C2445 C2446 1.523 . S
C2446 C2427 1.368 . S
C2446 C2440 1.368 . S
C2446 C2445 1.523 . S
C2447 C2431 1.429 . S
C2447 C2443 1.429 . S
C2447 C2448 1.523 . S
C2448 C2432 1.368 . S
C2448 C2444 1.368 . S
C2448 C2447 1.523 . S
H2449 C2424 0.950 . S
H2450 C2426 0.950 . S
H2451 C2427 0.949 . S
H2452 C2429 0.950 . S
H2453 C2431 0.950 . S
C2454 C2455 1.349 . S
C2454 C2456 1.327 . S
C2454 H2479 0.950 . S
C2455 C2454 1.349 . S
C2455 C2471 1.349 . S
C2456 C2454 1.327 . S
C2456 C2475 1.429 . S
C2456 H2480 0.950 . S
C2457 C2474 1.574 . S
C2457 C2476 1.368 . S
C2457 H2481 0.949 . S
H2458 C2462 0.949 . S
C2459 C2460 1.349 . S
C2459 C2461 1.327 . S
C2459 H2482 0.950 . S
C2460 C2459 1.349 . S
C2460 C2472 1.349 . S
C2461 C2459 1.327 . S
C2461 C2477 1.429 . S
C2461 H2483 0.950 . S
C2462 H2458 0.949 . S
C2462 C2470 1.574 . S
C2462 C2478 1.368 . S
H2463 C2471 0.950 . S
H2464 C2469 0.950 . S
H2465 C2470 0.949 . S
H2466 C2472 0.950 . S
H2467 C2473 0.950 . S
H2468 C2474 0.949 . S
C2469 H2464 0.950 . S
C2469 C2471 1.327 . S
C2469 C2475 1.429 . S
C2470 C2462 1.574 . S
C2470 H2465 0.949 . S
C2470 C2476 1.368 . S
C2471 C2455 1.349 . S
C2471 H2463 0.950 . S
C2471 C2469 1.327 . S
C2472 C2460 1.349 . S
C2472 H2466 0.950 . S
C2472 C2473 1.327 . S
C2473 H2467 0.950 . S
C2473 C2472 1.327 . S
C2473 C2477 1.429 . S
C2474 C2457 1.574 . S
C2474 H2468 0.949 . S
C2474 C2478 1.368 . S
C2475 C2456 1.429 . S
C2475 C2469 1.429 . S
C2475 C2476 1.523 . S
C2476 C2457 1.368 . S
C2476 C2470 1.368 . S
C2476 C2475 1.523 . S
C2477 C2461 1.429 . S
C2477 C2473 1.429 . S
C2477 C2478 1.523 . S
C2478 C2462 1.368 . S
C2478 C2474 1.368 . S
C2478 C2477 1.523 . S
H2479 C2454 0.950 . S
H2480 C2456 0.950 . S
H2481 C2457 0.949 . S
H2482 C2459 0.950 . S
H2483 C2461 0.950 . S
C2484 C2485 1.349 . S
C2484 C2486 1.327 . S
C2484 H2509 0.950 . S
C2485 C2484 1.349 . S
C2485 C2501 1.349 . S
C2486 C2484 1.327 . S
C2486 C2505 1.429 . S
C2486 H2510 0.950 . S
C2487 C2504 1.574 . S
C2487 C2506 1.368 . S
C2487 H2511 0.949 . S
H2488 C2492 0.949 . S
C2489 C2490 1.349 . S
C2489 C2491 1.327 . S
C2489 H2512 0.950 . S
C2490 C2489 1.349 . S
C2490 C2502 1.349 . S
C2491 C2489 1.327 . S
C2491 C2507 1.429 . S
C2491 H2513 0.950 . S
C2492 H2488 0.949 . S
C2492 C2500 1.574 . S
C2492 C2508 1.368 . S
H2493 C2501 0.950 . S
H2494 C2499 0.950 . S
H2495 C2500 0.949 . S
H2496 C2502 0.950 . S
H2497 C2503 0.950 . S
H2498 C2504 0.949 . S
C2499 H2494 0.950 . S
C2499 C2501 1.327 . S
C2499 C2505 1.429 . S
C2500 C2492 1.574 . S
C2500 H2495 0.949 . S
C2500 C2506 1.368 . S
C2501 C2485 1.349 . S
C2501 H2493 0.950 . S
C2501 C2499 1.327 . S
C2502 C2490 1.349 . S
C2502 H2496 0.950 . S
C2502 C2503 1.327 . S
C2503 H2497 0.950 . S
C2503 C2502 1.327 . S
C2503 C2507 1.429 . S
C2504 C2487 1.574 . S
C2504 H2498 0.949 . S
C2504 C2508 1.368 . S
C2505 C2486 1.429 . S
C2505 C2499 1.429 . S
C2505 C2506 1.523 . S
C2506 C2487 1.368 . S
C2506 C2500 1.368 . S
C2506 C2505 1.523 . S
C2507 C2491 1.429 . S
C2507 C2503 1.429 . S
C2507 C2508 1.523 . S
C2508 C2492 1.368 . S
C2508 C2504 1.368 . S
C2508 C2507 1.523 . S
H2509 C2484 0.950 . S
H2510 C2486 0.950 . S
H2511 C2487 0.949 . S
H2512 C2489 0.950 . S
H2513 C2491 0.950 . S
C2514 C2515 1.349 . S
C2514 C2516 1.327 . S
C2514 H2539 0.950 . S
C2515 C2514 1.349 . S
C2515 C2531 1.349 . S
C2516 C2514 1.327 . S
C2516 C2535 1.429 . S
C2516 H2540 0.950 . S
C2517 C2534 1.574 . S
C2517 C2536 1.368 . S
C2517 H2541 0.949 . S
H2518 C2522 0.949 . S
C2519 C2520 1.349 . S
C2519 C2521 1.327 . S
C2519 H2542 0.950 . S
C2520 C2519 1.349 . S
C2520 C2532 1.349 . S
C2521 C2519 1.327 . S
C2521 C2537 1.429 . S
C2521 H2543 0.950 . S
C2522 H2518 0.949 . S
C2522 C2530 1.574 . S
C2522 C2538 1.368 . S
H2523 C2531 0.950 . S
H2524 C2529 0.950 . S
H2525 C2530 0.949 . S
H2526 C2532 0.950 . S
H2527 C2533 0.950 . S
H2528 C2534 0.949 . S
C2529 H2524 0.950 . S
C2529 C2531 1.327 . S
C2529 C2535 1.429 . S
C2530 C2522 1.574 . S
C2530 H2525 0.949 . S
C2530 C2536 1.368 . S
C2531 C2515 1.349 . S
C2531 H2523 0.950 . S
C2531 C2529 1.327 . S
C2532 C2520 1.349 . S
C2532 H2526 0.950 . S
C2532 C2533 1.327 . S
C2533 H2527 0.950 . S
C2533 C2532 1.327 . S
C2533 C2537 1.429 . S
C2534 C2517 1.574 . S
C2534 H2528 0.949 . S
C2534 C2538 1.368 . S
C2535 C2516 1.429 . S
C2535 C2529 1.429 . S
C2535 C2536 1.523 . S
C2536 C2517 1.368 . S
C2536 C2530 1.368 . S
C2536 C2535 1.523 . S
C2537 C2521 1.429 . S
C2537 C2533 1.429 . S
C2537 C2538 1.523 . S
C2538 C2522 1.368 . S
C2538 C2534 1.368 . S
C2538 C2537 1.523 . S
H2539 C2514 0.950 . S
H2540 C2516 0.950 . S
H2541 C2517 0.949 . S
H2542 C2519 0.950 . S
H2543 C2521 0.950 . S
C2544 C2545 1.349 . S
C2544 C2546 1.327 . S
C2544 H2569 0.950 . S
C2545 C2544 1.349 . S
C2545 C2561 1.349 . S
C2546 C2544 1.327 . S
C2546 C2565 1.429 . S
C2546 H2570 0.950 . S
C2547 C2564 1.574 . S
C2547 C2566 1.368 . S
C2547 H2571 0.949 . S
H2548 C2552 0.949 . S
C2549 C2550 1.349 . S
C2549 C2551 1.327 . S
C2549 H2572 0.950 . S
C2550 C2549 1.349 . S
C2550 C2562 1.349 . S
C2551 C2549 1.327 . S
C2551 C2567 1.429 . S
C2551 H2573 0.950 . S
C2552 H2548 0.949 . S
C2552 C2560 1.574 . S
C2552 C2568 1.368 . S
H2553 C2561 0.950 . S
H2554 C2559 0.950 . S
H2555 C2560 0.949 . S
H2556 C2562 0.950 . S
H2557 C2563 0.950 . S
H2558 C2564 0.949 . S
C2559 H2554 0.950 . S
C2559 C2561 1.327 . S
C2559 C2565 1.429 . S
C2560 C2552 1.574 . S
C2560 H2555 0.949 . S
C2560 C2566 1.368 . S
C2561 C2545 1.349 . S
C2561 H2553 0.950 . S
C2561 C2559 1.327 . S
C2562 C2550 1.349 . S
C2562 H2556 0.950 . S
C2562 C2563 1.327 . S
C2563 H2557 0.950 . S
C2563 C2562 1.327 . S
C2563 C2567 1.429 . S
C2564 C2547 1.574 . S
C2564 H2558 0.949 . S
C2564 C2568 1.368 . S
C2565 C2546 1.429 . S
C2565 C2559 1.429 . S
C2565 C2566 1.523 . S
C2566 C2547 1.368 . S
C2566 C2560 1.368 . S
C2566 C2565 1.523 . S
C2567 C2551 1.429 . S
C2567 C2563 1.429 . S
C2567 C2568 1.523 . S
C2568 C2552 1.368 . S
C2568 C2564 1.368 . S
C2568 C2567 1.523 . S
H2569 C2544 0.950 . S
H2570 C2546 0.950 . S
H2571 C2547 0.949 . S
H2572 C2549 0.950 . S
H2573 C2551 0.950 . S
C955 C147 1.433 . S
C960 C265 1.379 . S
C985 C158 1.460 . S
C990 C349 1.409 . S
C1015 C136 1.428 . S
C1020 C429 1.420 . S
C1045 C125 1.402 . S
C1050 C345 1.395 1_556 S
C1080 C433 1.355 . S
C1075 C103 1.409 . S
C1105 C114 1.378 . S
C1110 C261 1.348 1_556 S
C1140 C254 1.433 . S
C1135 C131 1.492 . S
C1170 C338 1.460 . S
C1165 C109 1.516 . S
C1195 C120 1.510 . S
C1200 C440 1.466 1_556 S
C1225 C153 1.476 . S
C1230 C356 1.444 . S
C1255 C164 1.460 . S
C1260 C422 1.400 . S
C1290 C272 1.421 . S
C1285 C142 1.453 . S
C1320 C517 1.379 . S
C1315 C15 1.433 . S
C1345 C26 1.460 . S
C1350 C601 1.409 . S
C1375 C4 1.427 . S
C1380 C681 1.420 . S
C1405 C191 1.402 . S
C1410 C597 1.396 . S
C1435 C169 1.409 . S
C1440 C685 1.355 . S
C1465 C180 1.378 . S
C1470 C513 1.370 . S
C1495 C197 1.492 . S
C1500 C506 1.433 . S
C1525 C175 1.516 . S
C1530 C590 1.460 . S
C1560 C692 1.478 . S
C1555 C186 1.510 . S
C1585 C21 1.476 . S
C1590 C608 1.444 . S
C1620 C674 1.400 . S
C1615 C32 1.460 . S
C1645 C10 1.453 . S
C1650 C524 1.421 . S
C1680 C769 1.379 . S
C1675 C81 1.433 . S
C1705 C92 1.460 . S
C1710 C853 1.409 . S
C1740 C933 1.420 . S
C1735 C70 1.427 . S
C1770 C849 1.395 . S
C1765 C59 1.402 . S
C1800 C937 1.355 . S
C1795 C37 1.410 . S
C1825 C48 1.378 . S
C1830 C765 1.370 . S
C1855 C65 1.492 . S
C1860 C758 1.433 . S
C1885 C43 1.516 . S
C1890 C842 1.460 . S
C1920 C944 1.478 . S
C1915 C54 1.510 . S
C1945 C87 1.476 . S
C1950 C860 1.444 . S
C1975 C98 1.460 . S
C1980 C926 1.401 . S
C2005 C76 1.453 . S
C2010 C776 1.421 . S
C2035 C170 1.545 . S
C2040 C268 1.423 . S
C2070 C352 1.480 . S
C2065 C181 1.624 . S
C2095 C192 1.562 . S
C2100 C424 1.386 . S
C2125 C71 1.596 . S
C2130 C340 1.409 . S
C2155 C82 1.578 . S
C2160 C436 1.441 . S
C2190 C256 1.355 . S
C2185 C93 1.516 . S
C2215 C38 1.545 . S
C2220 C520 1.423 . S
C2245 C49 1.624 . S
C2250 C604 1.480 . S
C2275 C60 1.562 . S
C2280 C676 1.386 . S
C2305 C137 1.596 . S
C2310 C592 1.409 . S
C2340 C688 1.441 . S
C2335 C148 1.577 . S
C2365 C159 1.517 . S
C2370 C508 1.355 . S
C2395 C104 1.545 . S
C2400 C772 1.423 . S
C2425 C115 1.624 . S
C2430 C856 1.480 . S
C2460 C928 1.386 . S
C2455 C126 1.562 . S
C2485 C5 1.596 . S
C2490 C844 1.409 . S
C2515 C16 1.578 . S
C2520 C940 1.441 . S
C2545 C27 1.516 . S
C2550 C760 1.355 . S
