# Generated by pormake.
# Topology anh, (6,3)-cn, num edge types: 1
# Building blocks:
#     Node 0, Type 0, BuildingBlock: BETGAK_clean_sbu_0, # of connection points: 6
#     Node 1, Type 0, BuildingBlock: BETGAK_clean_sbu_0, # of connection points: 6
#     Node 2, Type 0, BuildingBlock: BETGAK_clean_sbu_0, # of connection points: 6
#     Node 3, Type 1, BuildingBlock: BETDIP_clean_linker_0, # of connection points: 3
#     Node 4, Type 1, BuildingBlock: BETDIP_clean_linker_0, # of connection points: 3
#     Node 5, Type 1, BuildingBlock: BETDIP_clean_linker_0, # of connection points: 3
#     Node 6, Type 1, BuildingBlock: BETDIP_clean_linker_0, # of connection points: 3
#     Node 7, Type 1, BuildingBlock: BETDIP_clean_linker_0, # of connection points: 3
#     Node 8, Type 1, BuildingBlock: BETDIP_clean_linker_0, # of connection points: 3
#     Edge 9, Type (0, 1), BuildingBlock: XUDNAN_clean_linker_2, # of connection points: 2
#     Edge 10, Type (0, 1), BuildingBlock: XUDNAN_clean_linker_2, # of connection points: 2
#     Edge 11, Type (0, 1), BuildingBlock: XUDNAN_clean_linker_2, # of connection points: 2
#     Edge 12, Type (0, 1), BuildingBlock: XUDNAN_clean_linker_2, # of connection points: 2
#     Edge 13, Type (0, 1), BuildingBlock: XUDNAN_clean_linker_2, # of connection points: 2
#     Edge 14, Type (0, 1), BuildingBlock: XUDNAN_clean_linker_2, # of connection points: 2
#     Edge 15, Type (0, 1), BuildingBlock: XUDNAN_clean_linker_2, # of connection points: 2
#     Edge 16, Type (0, 1), BuildingBlock: XUDNAN_clean_linker_2, # of connection points: 2
#     Edge 17, Type (0, 1), BuildingBlock: XUDNAN_clean_linker_2, # of connection points: 2
#     Edge 18, Type (0, 1), BuildingBlock: XUDNAN_clean_linker_2, # of connection points: 2
#     Edge 19, Type (0, 1), BuildingBlock: XUDNAN_clean_linker_2, # of connection points: 2
#     Edge 20, Type (0, 1), BuildingBlock: XUDNAN_clean_linker_2, # of connection points: 2
#     Edge 21, Type (0, 1), BuildingBlock: XUDNAN_clean_linker_2, # of connection points: 2
#     Edge 22, Type (0, 1), BuildingBlock: XUDNAN_clean_linker_2, # of connection points: 2
#     Edge 23, Type (0, 1), BuildingBlock: XUDNAN_clean_linker_2, # of connection points: 2
#     Edge 24, Type (0, 1), BuildingBlock: XUDNAN_clean_linker_2, # of connection points: 2
#     Edge 25, Type (0, 1), BuildingBlock: XUDNAN_clean_linker_2, # of connection points: 2
#     Edge 26, Type (0, 1), BuildingBlock: XUDNAN_clean_linker_2, # of connection points: 2
# Relax obj value: 0.162
# Max RMSD: 0.177
# Mean RMSD: 0.126
data_MOF--net-anh--node1-BETGAK_clean_sbu_0--node2-BETDIP_clean_linker_0--edge1-XUDNAN_clean_linker_2
_symmetry_space_group_name_H-M    P1
_symmetry_Int_Tables_number       1
_symmetry_cell_setting            triclinic
loop_
_symmetry_equiv_pos_as_xyz
'x, y, z'
_cell_length_a     30.107086
_cell_length_b     37.531378
_cell_length_c     49.551166
_cell_angle_alpha  94.913557
_cell_angle_beta   90.246718
_cell_angle_gamma 129.75623
loop_
_atom_site_label
_atom_site_type_symbol
_atom_site_fract_x
_atom_site_fract_y
_atom_site_fract_z
_atom_type_partial_charge
La0 La 1.09096 0.48075 0.14421 0.0
La1 La 1.02489 0.5154 0.15576 0.0
C2 C 0.15408 0.46332 0.12655 0.0
C3 C 0.21562 0.48572 0.13229 0.0
C4 C 0.23243 0.47256 0.15324 0.0
C5 C 0.29087 0.49518 0.15939 0.0
C6 C 0.3336 0.53124 0.14464 0.0
C7 C 0.31666 0.54375 0.12338 0.0
C8 C 0.25834 0.5212 0.11724 0.0
C9 C 1.08402 0.49905 0.1962 0.0
C10 C 0.15832 0.58982 0.14941 0.0
C11 C 0.9738 0.54028 0.17981 0.0
C12 C 0.92354 0.53804 0.18133 0.0
C13 C 0.92133 0.56038 0.20473 0.0
C14 C 0.88881 0.5749 0.20401 0.0
C15 C 0.85761 0.56697 0.1798 0.0
C16 C 0.85338 0.53849 0.15761 0.0
C17 C 0.88687 0.52466 0.15823 0.0
C18 C 1.0335 0.50065 0.10372 0.0
C19 C 0.95792 0.40585 0.14899 0.0
O20 O 0.12044 0.44337 0.14635 0.0
O21 O 0.14369 0.48706 0.11413 0.0
O22 O 1.08797 0.46789 0.18723 0.0
O23 O 1.09001 0.52073 0.17695 0.0
O24 O 0.15651 0.55538 0.13847 0.0
O25 O 0.1141 0.58084 0.16211 0.0
O26 O 1.00554 0.55971 0.15939 0.0
O27 O 0.9698 0.50521 0.18617 0.0
O28 O 1.02618 0.52961 0.11343 0.0
O29 O 1.02757 0.47737 0.12218 0.0
O30 O 0.95899 0.44 0.15997 0.0
O31 O 1.00281 0.41493 0.13691 0.0
H32 H 0.20049 0.44505 0.16507 0.0
H33 H 0.30266 0.48477 0.17585 0.0
H34 H 0.34845 0.57056 0.11115 0.0
H35 H 0.24681 0.53174 0.10074 0.0
H36 H 0.94955 0.57103 0.22274 0.0
H37 H 0.89352 0.59665 0.22155 0.0
H38 H 0.8283 0.53041 0.13893 0.0
H39 H 0.88791 0.50716 0.13999 0.0
La40 La 0.703 0.0541 0.48057 0.0
La41 La 0.62386 0.07437 0.4693 0.0
C42 C 0.75278 0.02627 0.49959 0.0
C43 C 0.73706 0.98167 0.5054 0.0
C44 C 0.77309 0.97156 0.49782 0.0
C45 C 0.76048 0.93039 0.504 0.0
C46 C 0.71158 0.89855 0.51801 0.0
C47 C 0.67485 0.90836 0.52509 0.0
C48 C 0.68747 0.9495 0.51886 0.0
C49 C 0.68127 0.05289 0.42855 0.0
C50 C 0.56583 0.97188 0.47515 0.0
C51 C 0.57537 0.10383 0.45116 0.0
C52 C 0.58802 0.14896 0.45489 0.0
C53 C 0.54599 0.15188 0.44655 0.0
C54 C 0.5565 0.19411 0.45135 0.0
C55 C 0.60947 0.23416 0.46438 0.0
C56 C 0.65169 0.23116 0.47246 0.0
C57 C 0.64096 0.18889 0.46787 0.0
C58 C 0.64727 0.07732 0.52117 0.0
C59 C 0.76221 0.15674 0.47388 0.0
O60 O 0.7508 0.03138 0.47398 0.0
O61 O 0.73157 0.04195 0.51453 0.0
O62 O 0.72972 0.06621 0.43927 0.0
O63 O 0.64552 0.0374 0.44651 0.0
O64 O 0.61667 0.9886 0.48646 0.0
O65 O 0.56035 0.9986 0.46241 0.0
O66 O 0.56073 0.08198 0.47279 0.0
O67 O 0.61253 0.10309 0.43811 0.0
O68 O 0.59838 0.06388 0.51114 0.0
O69 O 0.68182 0.09169 0.50283 0.0
O70 O 0.7103 0.14094 0.46488 0.0
O71 O 0.76934 0.12952 0.48463 0.0
H72 H 0.8116 0.99593 0.48744 0.0
H73 H 0.78997 0.92418 0.49851 0.0
H74 H 0.63641 0.88427 0.53556 0.0
H75 H 0.65882 0.95637 0.52488 0.0
H76 H 0.50473 0.12135 0.43666 0.0
H77 H 0.52321 0.19547 0.44494 0.0
H78 H 0.69231 0.26116 0.4831 0.0
H79 H 0.67359 0.18725 0.47494 0.0
La80 La 0.68437 0.55902 0.82398 0.0
La81 La 0.62051 0.47011 0.84905 0.0
C82 C 0.71241 0.61956 0.79321 0.0
C83 C 0.70318 0.6534 0.79247 0.0
C84 C 0.67436 0.65796 0.81284 0.0
C85 C 0.66691 0.69104 0.81229 0.0
C86 C 0.68829 0.72015 0.79139 0.0
C87 C 0.71666 0.71499 0.7709 0.0
C88 C 0.72396 0.68184 0.77145 0.0
C89 C 0.7041 0.57114 0.877 0.0
C90 C 0.55559 0.50943 0.84299 0.0
C91 C 0.58892 0.40374 0.87547 0.0
C92 C 0.59402 0.36708 0.8713 0.0
C93 C 0.54427 0.32021 0.87115 0.0
C94 C 0.5465 0.28452 0.86414 0.0
C95 C 0.59874 0.29499 0.85725 0.0
C96 C 0.64902 0.34213 0.85832 0.0
C97 C 0.64666 0.37779 0.86514 0.0
C98 C 0.60526 0.46046 0.79551 0.0
C99 C 0.75074 0.52191 0.83327 0.0
O100 O 0.74581 0.62721 0.81386 0.0
O101 O 0.66585 0.57562 0.78854 0.0
O102 O 0.74056 0.60033 0.86076 0.0
O103 O 0.65609 0.53934 0.86388 0.0
O104 O 0.59793 0.53976 0.82802 0.0
O105 O 0.5593 0.48239 0.85665 0.0
O106 O 0.55533 0.40101 0.85711 0.0
O107 O 0.63684 0.4467 0.88172 0.0
O108 O 0.56642 0.43098 0.81078 0.0
O109 O 0.65126 0.49081 0.80996 0.0
O110 O 0.70956 0.49406 0.84934 0.0
O111 O 0.74505 0.54555 0.81724 0.0
H112 H 0.65795 0.63613 0.82921 0.0
H113 H 0.64417 0.69365 0.82815 0.0
H114 H 0.73427 0.73722 0.75471 0.0
H115 H 0.74635 0.67872 0.7556 0.0
H116 H 0.50313 0.31113 0.87561 0.0
H117 H 0.50673 0.24871 0.86318 0.0
H118 H 0.69019 0.35154 0.85359 0.0
H119 H 0.68579 0.41364 0.86499 0.0
H120 H 0.50879 0.9594 0.15774 0.0
H121 H 0.61102 0.04743 0.23149 0.0
H122 H 0.48415 0.8992 0.23214 0.0
H123 H 0.60744 0.09924 0.20997 0.0
C124 C 0.62 0.09419 0.19042 0.0
C125 C 0.51953 0.96341 0.17929 0.0
C126 C 0.49011 0.92379 0.19345 0.0
C127 C 0.56197 1.00842 0.19303 0.0
C128 C 0.57639 1.01333 0.22093 0.0
C129 C 0.54899 0.97402 0.23498 0.0
C130 C 0.50544 0.92958 0.22124 0.0
N131 N 0.59213 0.04796 0.17821 0.0
H132 H 0.66053 0.54213 0.52968 0.0
H133 H 0.64145 0.56595 0.61387 0.0
H134 H 0.61227 0.44122 0.58435 0.0
H135 H 0.67764 0.60916 0.52519 0.0
C136 C 0.67247 0.62248 0.54415 0.0
C137 C 0.65084 0.53123 0.54983 0.0
C138 C 0.6361 0.48831 0.5544 0.0
C139 C 0.6521 0.5591 0.57139 0.0
C140 C 0.64029 0.54441 0.59733 0.0
C141 C 0.62526 0.5018 0.60203 0.0
C142 C 0.62278 0.47379 0.5805 0.0
N143 N 0.66332 0.60147 0.56832 0.0
H144 H 0.11724 0.52395 0.83364 0.0
H145 H 0.18665 0.51651 0.9071 0.0
H146 H 1.04026 0.51072 0.90949 0.0
H147 H 0.2775 0.5763 0.87704 0.0
C148 C 0.25601 0.54415 0.86356 0.0
C149 C 0.11593 0.52144 0.85525 0.0
C150 C 1.07446 0.5203 0.87 0.0
C151 C 0.15707 0.52045 0.86862 0.0
C152 C 0.15597 0.51776 0.89675 0.0
C153 C 0.11441 0.5151 0.91147 0.0
C154 C 1.07391 0.51568 0.89795 0.0
N155 N 0.19689 0.51907 0.8537 0.0
H156 H 0.19361 0.6104 0.47099 0.0
H157 H 1.08566 0.52011 0.39915 0.0
H158 H 0.23304 0.66284 0.39288 0.0
H159 H 1.01653 0.49331 0.43257 0.0
C160 C 1.03928 0.48773 0.44634 0.0
C161 C 0.18402 0.60522 0.44923 0.0
C162 C 0.21932 0.64258 0.43354 0.0
C163 C 0.13504 0.56132 0.43707 0.0
C164 C 0.12252 0.55421 0.40883 0.0
C165 C 0.1574 0.59079 0.3929 0.0
C166 C 0.2054 0.63489 0.40536 0.0
N167 N 1.09955 0.52424 0.45328 0.0
H168 H 0.63869 0.0398 0.79287 0.0
H169 H 0.67923 1.01404 0.7144 0.0
H170 H 0.64416 0.10816 0.72559 0.0
H171 H 0.63857 0.94449 0.72808 0.0
C172 C 0.65136 0.95167 0.74966 0.0
C173 C 0.64458 0.04582 0.77171 0.0
C174 C 0.64027 0.07756 0.7616 0.0
C175 C 0.65656 0.02151 0.75472 0.0
C176 C 0.66736 0.03083 0.72758 0.0
C177 C 0.66291 0.06203 0.71712 0.0
C178 C 0.64847 0.0847 0.73401 0.0
N179 N 0.65826 0.9885 0.76563 0.0
H180 H 0.77574 0.77168 0.1324 0.0
H181 H 0.8529 0.77163 0.0596 0.0
H182 H 0.68486 0.64719 0.07675 0.0
H183 H 0.9233 0.8665 0.14338 0.0
C184 C 0.89844 0.83181 0.13247 0.0
C185 C 0.7734 0.75363 0.11345 0.0
C186 C 0.72585 0.7065 0.10662 0.0
C187 C 0.81949 0.77708 0.0966 0.0
C188 C 0.81646 0.75358 0.0721 0.0
C189 C 0.76844 0.70604 0.06492 0.0
C190 C 0.72328 0.68319 0.08233 0.0
N191 N 0.8718 0.82232 0.10604 0.0
H192 H 0.42603 0.62421 0.14609 0.0
H193 H 0.38094 0.49081 0.15512 0.0
H194 H 0.48443 0.52805 0.15717 0.0
H195 H 0.52187 0.65574 0.1002 0.0
H196 H 0.57296 0.71725 0.11185 0.0
H197 H 0.49838 0.68376 0.11888 0.0
H198 H 0.52863 0.71002 0.1704 0.0
H199 H 0.60376 0.74386 0.16348 0.0
H200 H 0.57333 0.70063 0.1869 0.0
H201 H 0.58723 0.57415 0.14766 0.0
H202 H 0.68084 0.6254 0.12712 0.0
H203 H 0.66034 0.72911 0.12376 0.0
C204 C 0.43816 0.60315 0.14926 0.0
C205 C 0.3956 0.5547 0.15047 0.0
C206 C 0.4129 0.52815 0.15456 0.0
C207 C 0.47164 0.54905 0.15578 0.0
C208 C 0.51246 0.59658 0.15326 0.0
C209 C 0.4965 0.62347 0.1504 0.0
C210 C 0.54727 0.67188 0.14398 0.0
C211 C 0.53433 0.68273 0.11714 0.0
C212 C 0.56425 0.70878 0.16761 0.0
C213 C 0.5931 0.66685 0.14148 0.0
C214 C 0.57269 0.62363 0.14774 0.0
C215 C 0.60434 0.60855 0.14349 0.0
C216 C 0.65718 0.63767 0.13171 0.0
C217 C 0.67746 0.68109 0.12422 0.0
C218 C 0.64619 0.69657 0.13009 0.0
H219 H 0.766 0.21995 0.4478 0.0
H220 H 0.87197 0.20679 0.49836 0.0
H221 H 0.95454 0.29089 0.49799 0.0
H222 H 0.87877 0.30079 0.40627 0.0
H223 H 0.85307 0.33259 0.40349 0.0
H224 H 0.80282 0.27159 0.40804 0.0
H225 H 0.76864 0.29088 0.44997 0.0
H226 H 0.81967 0.35224 0.44659 0.0
H227 H 0.82007 0.33152 0.47802 0.0
H228 H 1.02574 0.3771 0.492 0.0
H229 H 1.0801 0.45724 0.47954 0.0
H230 H 0.92674 0.41274 0.43302 0.0
C231 C 0.80645 0.23464 0.45889 0.0
C232 C 0.81241 0.20676 0.47322 0.0
C233 C 0.86637 0.22742 0.48721 0.0
C234 C 0.91347 0.27519 0.48719 0.0
C235 C 0.90592 0.3017 0.47299 0.0
C236 C 0.85381 0.28203 0.45897 0.0
C237 C 0.85706 0.31773 0.44484 0.0
C238 C 0.84738 0.3049 0.41382 0.0
C239 C 0.81383 0.32345 0.45553 0.0
C240 C 0.91901 0.36074 0.4533 0.0
C241 C 0.94662 0.3509 0.46951 0.0
C242 C 1.00449 0.3852 0.47936 0.0
C243 C 1.03499 0.43059 0.47223 0.0
C244 C 1.00739 0.44103 0.45542 0.0
C245 C 0.94868 0.40567 0.44605 0.0
H246 H 0.66066 0.74431 0.74746 0.0
H247 H 0.70233 0.77815 0.83469 0.0
H248 H 0.69511 0.84005 0.83397 0.0
H249 H 0.74274 0.86139 0.73192 0.0
H250 H 0.69105 0.8471 0.70526 0.0
H251 H 0.69704 0.80422 0.71292 0.0
H252 H 0.58743 0.74642 0.72029 0.0
H253 H 0.58106 0.78911 0.71261 0.0
H254 H 0.55818 0.76411 0.74427 0.0
H255 H 0.68698 0.90048 0.82331 0.0
H256 H 0.67633 0.95328 0.80362 0.0
H257 H 0.64087 0.87996 0.72347 0.0
C258 C 0.66845 0.7648 0.76642 0.0
C259 C 0.68204 0.75633 0.79114 0.0
C260 C 0.69112 0.78357 0.81555 0.0
C261 C 0.68745 0.81898 0.81533 0.0
C262 C 0.6745 0.82665 0.79055 0.0
C263 C 0.66494 0.8002 0.76657 0.0
C264 C 0.65246 0.81578 0.74261 0.0
C265 C 0.69858 0.83316 0.72197 0.0
C266 C 0.59113 0.77652 0.72916 0.0
C267 C 0.657 0.85544 0.7568 0.0
C268 C 0.66967 0.86119 0.78446 0.0
C269 C 0.6768 0.89617 0.80169 0.0
C270 C 0.67075 0.92602 0.79033 0.0
C271 C 0.65767 0.92053 0.76203 0.0
C272 C 0.6507 0.88476 0.74518 0.0
H273 H 0.86555 0.60601 0.13412 0.0
H274 H 0.81771 0.5981 0.21729 0.0
H275 H 0.82048 0.66484 0.2142 0.0
H276 H 0.96468 0.72107 0.13661 0.0
H277 H 0.94743 0.72705 0.1033 0.0
H278 H 0.93097 0.67348 0.10976 0.0
H279 H 0.82228 0.62597 0.09421 0.0
H280 H 0.83948 0.67938 0.08636 0.0
H281 H 0.78356 0.64381 0.10878 0.0
H282 H 0.84416 0.74075 0.20393 0.0
H283 H 0.87227 0.81129 0.18479 0.0
H284 H 0.90425 0.76698 0.10916 0.0
C285 C 0.85271 0.61643 0.15135 0.0
C286 C 0.84178 0.5967 0.17602 0.0
C287 C 0.82706 0.61295 0.19824 0.0
C288 C 0.82834 0.65079 0.19667 0.0
C289 C 0.84312 0.67129 0.17255 0.0
C290 C 0.85328 0.65367 0.15003 0.0
C291 C 0.87218 0.68353 0.12707 0.0
C292 C 0.93237 0.70238 0.11873 0.0
C293 C 0.82664 0.65655 0.10267 0.0
C294 C 0.87404 0.72203 0.14062 0.0
C295 C 0.8565 0.71435 0.16672 0.0
C296 C 0.85694 0.7466 0.18333 0.0
C297 C 0.87371 0.78677 0.17253 0.0
C298 C 0.88959 0.79389 0.14551 0.0
C299 C 0.89118 0.76175 0.12975 0.0
H300 H 0.46024 0.92009 0.44582 0.0
H301 H 0.55854 0.90951 0.50399 0.0
H302 H 0.47797 0.82488 0.50198 0.0
H303 H 0.31712 0.83166 0.47006 0.0
H304 H 0.28158 0.80962 0.43626 0.0
H305 H 0.34532 0.87003 0.44383 0.0
H306 H 0.39508 0.86044 0.40477 0.0
H307 H 0.33165 0.80004 0.39714 0.0
H308 H 0.40125 0.81568 0.40441 0.0
H309 H 0.38898 0.74052 0.49164 0.0
H310 H 0.29904 0.66282 0.47307 0.0
H311 H 0.25814 0.72842 0.42219 0.0
C312 C 0.46453 0.90013 0.45844 0.0
C313 C 0.51579 0.92157 0.4751 0.0
C314 C 0.51984 0.89398 0.49103 0.0
C315 C 0.47417 0.84583 0.49011 0.0
C316 C 0.42457 0.8257 0.47321 0.0
C317 C 0.4194 0.85196 0.4577 0.0
C318 C 0.36268 0.82142 0.44021 0.0
C319 C 0.32441 0.83393 0.44808 0.0
C320 C 0.37333 0.82459 0.40984 0.0
C321 C 0.33728 0.77384 0.44797 0.0
C322 C 0.37339 0.77707 0.4672 0.0
C323 C 0.36003 0.73758 0.47679 0.0
C324 C 0.30866 0.69358 0.46623 0.0
C325 C 0.27138 0.68939 0.44619 0.0
C326 C 0.28585 0.7303 0.43731 0.0
H327 H 0.65979 0.29392 0.81651 0.0
H328 H 0.54023 0.2095 0.87623 0.0
H329 H 0.53809 0.14486 0.85853 0.0
H330 H 0.59849 0.20368 0.76236 0.0
H331 H 0.66691 0.22512 0.74989 0.0
H332 H 0.66009 0.26516 0.7676 0.0
H333 H 0.74531 0.29507 0.80211 0.0
H334 H 0.75276 0.2554 0.78436 0.0
H335 H 0.74237 0.25397 0.82017 0.0
H336 H 0.54603 0.08821 0.83294 0.0
H337 H 0.56618 0.04508 0.80265 0.0
H338 H 0.68523 0.16859 0.76171 0.0
C339 C 0.63393 0.26223 0.82627 0.0
C340 C 0.60008 0.25693 0.84779 0.0
C341 C 0.56592 0.21431 0.85949 0.0
C342 C 0.56467 0.17744 0.84968 0.0
C343 C 0.59813 0.18378 0.82828 0.0
C344 C 0.63248 0.22525 0.81687 0.0
C345 C 0.66403 0.22306 0.79394 0.0
C346 C 0.6463 0.22964 0.76685 0.0
C347 C 0.73003 0.259 0.80055 0.0
C348 C 0.64163 0.1737 0.79405 0.0
C349 C 0.60362 0.15157 0.81396 0.0
C350 C 0.57627 0.10538 0.81748 0.0
C351 C 0.58829 0.08124 0.80024 0.0
C352 C 0.62757 0.10335 0.7798 0.0
C353 C 0.65451 0.15032 0.77686 0.0
H354 H 0.72129 0.83852 0.48816 0.0
H355 H 0.67766 0.86382 0.5669 0.0
H356 H 0.6618 0.7956 0.58164 0.0
H357 H 0.61714 0.71226 0.48292 0.0
H358 H 0.6648 0.70479 0.46696 0.0
H359 H 0.6716 0.75511 0.46223 0.0
H360 H 0.77977 0.80936 0.47994 0.0
H361 H 0.7733 0.75923 0.48477 0.0
H362 H 0.7993 0.80371 0.51279 0.0
H363 H 0.6537 0.72677 0.58853 0.0
H364 H 0.65069 0.65961 0.58686 0.0
H365 H 0.69911 0.67747 0.50362 0.0
C366 C 0.70848 0.82973 0.50852 0.0
C367 C 0.70044 0.85646 0.52633 0.0
C368 C 0.68318 0.84351 0.55273 0.0
C369 C 0.67443 0.80499 0.56136 0.0
C370 C 0.68295 0.77958 0.54337 0.0
C371 C 0.69933 0.79118 0.51746 0.0
C372 C 0.70566 0.75795 0.50224 0.0
C373 C 0.6622 0.73092 0.4771 0.0
C374 C 0.76823 0.78413 0.49448 0.0
C375 C 0.69066 0.72608 0.52374 0.0
C376 C 0.67782 0.73936 0.5473 0.0
C377 C 0.66347 0.71592 0.57018 0.0
C378 C 0.66202 0.67777 0.56901 0.0
C379 C 0.67472 0.66324 0.54506 0.0
C380 C 0.68912 0.68777 0.52214 0.0
H381 H 0.82877 0.54614 0.8751 0.0
H382 H 0.78685 0.50023 0.78887 0.0
H383 H 0.86627 0.49639 0.78762 0.0
H384 H 0.98663 0.62125 0.87096 0.0
H385 H 0.99824 0.60912 0.90346 0.0
H386 H 0.93812 0.60768 0.89711 0.0
H387 H 0.86758 0.52333 0.91012 0.0
H388 H 0.92741 0.52441 0.91631 0.0
H389 H 0.86733 0.47906 0.89261 0.0
H390 H 0.9476 0.49146 0.79762 0.0
H391 H 1.02488 0.49266 0.81646 0.0
H392 H 1.02195 0.55357 0.89439 0.0
C393 C 0.83671 0.53567 0.85592 0.0
C394 C 0.80151 0.52337 0.83206 0.0
C395 C 0.81346 0.51006 0.80734 0.0
C396 C 0.85841 0.50762 0.80651 0.0
C397 C 0.89231 0.51977 0.83045 0.0
C398 C 0.88261 0.53455 0.85457 0.0
C399 C 0.92611 0.54728 0.87729 0.0
C400 C 0.96455 0.59943 0.88782 0.0
C401 C 0.89525 0.51669 0.90044 0.0
C402 C 0.96077 0.53615 0.86253 0.0
C403 C 0.94056 0.51988 0.8356 0.0
C404 C 0.96416 0.50491 0.81863 0.0
C405 C 1.00872 0.50606 0.82954 0.0
C406 C 1.03031 0.52262 0.85723 0.0
C407 C 1.00634 0.53907 0.87342 0.0
H408 H 0.18934 0.66459 0.18379 0.0
H409 H 0.24988 0.6265 0.11724 0.0
H410 H 0.33927 0.70923 0.11893 0.0
H411 H 0.24577 0.777 0.16517 0.0
H412 H 0.26572 0.80384 0.19985 0.0
H413 H 0.20566 0.74235 0.19222 0.0
H414 H 0.25337 0.72379 0.22547 0.0
H415 H 0.31335 0.78517 0.23332 0.0
H416 H 0.32631 0.74606 0.22124 0.0
H417 H 0.4229 0.79768 0.12839 0.0
H418 H 0.49602 0.88077 0.14758 0.0
H419 H 0.38096 0.85841 0.20897 0.0
C420 C 0.22106 0.67357 0.16936 0.0
C421 C 0.21233 0.63908 0.15019 0.0
C422 C 0.25557 0.65233 0.13206 0.0
C423 C 0.30634 0.69928 0.1328 0.0
C424 C 0.31342 0.73245 0.15195 0.0
C425 C 0.27207 0.71992 0.17008 0.0
C426 C 0.29102 0.76135 0.18973 0.0
C427 C 0.24957 0.77174 0.18654 0.0
C428 C 0.29634 0.75362 0.21917 0.0
C429 C 0.34972 0.7993 0.18 0.0
C430 C 0.36174 0.78228 0.15795 0.0
C431 C 0.41379 0.81124 0.14565 0.0
C432 C 0.45492 0.8584 0.15654 0.0
C433 C 0.44405 0.87589 0.17971 0.0
C434 C 0.3904 0.84592 0.19125 0.0
H435 H 0.5376 0.24579 0.48864 0.0
H436 H 0.70559 0.32235 0.45572 0.0
H437 H 0.7256 0.39659 0.46987 0.0
H438 H 0.50695 0.32334 0.47273 0.0
H439 H 0.47409 0.31704 0.50424 0.0
H440 H 0.46996 0.26998 0.48813 0.0
H441 H 0.51604 0.26958 0.53231 0.0
H442 H 0.52016 0.31645 0.54851 0.0
H443 H 0.58468 0.32278 0.54707 0.0
H444 H 0.73019 0.46285 0.49113 0.0
H445 H 0.72219 0.51489 0.52076 0.0
H446 H 0.55202 0.39456 0.54031 0.0
C447 C 0.57791 0.27812 0.48375 0.0
C448 C 0.61978 0.2784 0.4708 0.0
C449 C 0.67289 0.32147 0.46556 0.0
C450 C 0.68443 0.36372 0.47335 0.0
C451 C 0.64245 0.36229 0.48643 0.0
C452 C 0.59031 0.32053 0.49166 0.0
C453 C 0.55494 0.32856 0.50843 0.0
C454 C 0.49812 0.30854 0.49242 0.0
C455 C 0.54331 0.30815 0.53569 0.0
C456 C 0.59586 0.38133 0.51245 0.0
C457 C 0.64566 0.40027 0.49919 0.0
C458 C 0.69105 0.44839 0.5013 0.0
C459 C 0.68606 0.47772 0.51803 0.0
C460 C 0.63645 0.4587 0.53269 0.0
C461 C 0.59031 0.41001 0.5292 0.0
H462 H 0.54882 0.58022 0.84692 0.0
H463 H 0.44303 0.43015 0.84315 0.0
H464 H 0.35474 0.42202 0.84464 0.0
H465 H 0.46557 0.58779 0.8959 0.0
H466 H 0.47496 0.63478 0.88185 0.0
H467 H 0.52915 0.62841 0.87837 0.0
H468 H 0.51948 0.62605 0.82623 0.0
H469 H 0.46494 0.63212 0.82951 0.0
H470 H 0.44935 0.58357 0.80796 0.0
H471 H 0.27624 0.43025 0.84495 0.0
H472 H 0.21703 0.4547 0.85123 0.0
H473 H 0.37369 0.5995 0.86014 0.0
C474 C 0.50701 0.54565 0.84625 0.0
C475 C 0.50298 0.50569 0.84463 0.0
C476 C 0.4474 0.46123 0.84436 0.0
C477 C 0.39686 0.45627 0.84505 0.0
C478 C 0.40216 0.49621 0.84661 0.0
C479 C 0.45602 0.54016 0.8478 0.0
C480 C 0.45003 0.57761 0.85157 0.0
C481 C 0.48181 0.60899 0.87853 0.0
C482 C 0.47227 0.60654 0.82737 0.0
C483 C 0.38455 0.54795 0.85222 0.0
C484 C 0.35757 0.50102 0.84872 0.0
C485 C 0.29714 0.46696 0.84788 0.0
C486 C 0.26365 0.48111 0.85128 0.0
C487 C 0.29045 0.52896 0.85611 0.0
C488 C 0.35181 0.56262 0.85643 0.0
H489 H 0.87121 0.36781 0.1843 0.0
H490 H 0.92589 0.33168 0.11384 0.0
H491 H 0.84197 0.24845 0.11495 0.0
H492 H 0.82814 0.27266 0.21896 0.0
H493 H 0.76685 0.26345 0.23306 0.0
H494 H 0.82806 0.32065 0.2253 0.0
H495 H 0.76049 0.32341 0.19476 0.0
H496 H 0.69897 0.26619 0.20248 0.0
H497 H 0.71412 0.27722 0.16763 0.0
H498 H 0.75449 0.16855 0.12479 0.0
H499 H 0.67183 0.0979 0.14377 0.0
H500 H 0.6752 0.18501 0.20868 0.0
C501 C 0.86487 0.34242 0.16883 0.0
C502 C 0.90495 0.35634 0.14886 0.0
C503 C 0.89582 0.32193 0.12933 0.0
C504 C 0.84811 0.2745 0.12972 0.0
C505 C 0.80988 0.26181 0.14988 0.0
C506 C 0.81773 0.29471 0.16913 0.0
C507 C 0.77225 0.27142 0.18962 0.0
C508 C 0.80053 0.28272 0.21843 0.0
C509 C 0.7342 0.2854 0.18854 0.0
C510 C 0.73815 0.2204 0.17904 0.0
C511 C 0.76019 0.21563 0.15592 0.0
C512 C 0.73665 0.17185 0.1428 0.0
C513 C 0.68965 0.13188 0.15372 0.0
C514 C 0.66701 0.136 0.17764 0.0
C515 C 0.69148 0.18089 0.19026 0.0
H516 H 1.05198 0.5526 0.06306 0.0
H517 H 1.04529 0.4383 0.08112 0.0
H518 H 1.07228 0.43301 0.03474 0.0
H519 H 0.9883 0.50538 0.99481 0.0
H520 H 1.03248 0.5613 0.98192 0.0
H521 H 1.01549 0.55729 0.01689 0.0
H522 H 0.12509 0.61767 0.03225 0.0
H523 H 0.14243 0.62161 0.9973 0.0
H524 H 0.17269 0.60683 0.02086 0.0
H525 H 1.09939 0.44007 0.98594 0.0
H526 H 0.11638 0.4546 0.93776 0.0
H527 H 1.1028 0.56289 0.95159 0.0
C528 C 1.0563 0.52652 0.05724 0.0
C529 C 1.04737 0.49625 0.07572 0.0
C530 C 1.05283 0.46227 0.06734 0.0
C531 C 1.06811 0.45901 0.04106 0.0
C532 C 1.07727 0.48975 0.02336 0.0
C533 C 1.07101 0.52255 0.03103 0.0
C534 C 1.08085 0.55014 0.00786 0.0
C535 C 1.02601 0.54308 -0.0001 0.0
C536 C 0.1334 0.60214 0.015 0.0
C537 C 1.09315 0.52751 0.98588 0.0
C538 C 1.09155 0.49311 0.99525 0.0
C539 C 1.10088 0.46702 0.97841 0.0
C540 C 0.11088 0.47569 0.95114 0.0
C541 C 0.1109 0.50983 0.94097 0.0
C542 C 1.10279 0.53643 0.95878 0.0
H543 H 0.63578 0.07541 0.39249 0.0
H544 H 0.68719 0.99179 0.39975 0.0
H545 H 0.65621 0.96083 0.3512 0.0
H546 H 0.51021 0.99351 0.34519 0.0
H547 H 0.5232 0.03757 0.32588 0.0
H548 H 0.5473 0.05184 0.36143 0.0
H549 H 0.65199 0.11906 0.34998 0.0
H550 H 0.62823 0.10505 0.31441 0.0
H551 H 0.6865 0.10673 0.32589 0.0
H552 H 0.618 0.93781 0.3026 0.0
H553 H 0.58202 0.92861 0.25548 0.0
H554 H 0.56067 0.03071 0.27858 0.0
C555 C 0.64008 0.0504 0.38378 0.0
C556 C 0.66336 0.03556 0.39963 0.0
C557 C 0.66941 1.00343 0.3877 0.0
C558 C 0.65179 0.9856 0.36026 0.0
C559 C 0.62899 1.00086 0.34504 0.0
C560 C 0.6237 0.03294 0.35622 0.0
C561 C 0.60018 0.045 0.33497 0.0
C562 C 0.54175 0.03113 0.34231 0.0
C563 C 0.64437 0.09705 0.33109 0.0
C564 C 0.59281 1.0145 0.31019 0.0
C565 C 0.60912 0.98899 0.31658 0.0
C566 C 0.60529 0.9577 0.29729 0.0
C567 C 0.58462 0.95256 0.27066 0.0
C568 C 0.56867 0.97894 0.26351 0.0
C569 C 0.57292 1.01035 0.28355 0.0
H570 H 0.68408 0.52278 0.76196 0.0
H571 H 0.51041 0.39032 0.76207 0.0
H572 H 0.49743 0.38523 0.71214 0.0
H573 H 0.64677 0.566 0.71266 0.0
H574 H 0.71435 0.5962 0.69691 0.0
H575 H 0.71188 0.58798 0.7323 0.0
H576 H 0.75579 0.54751 0.72404 0.0
H577 H 0.75917 0.55588 0.68862 0.0
H578 H 0.72142 0.49819 0.69837 0.0
H579 H 0.50419 0.39441 0.6622 0.0
H580 H 0.52751 0.41976 0.61614 0.0
H581 H 0.69333 0.54928 0.64943 0.0
C582 C 0.64324 0.49283 0.75148 0.0
C583 C 0.59809 0.457 0.76576 0.0
C584 C 0.54548 0.41811 0.75139 0.0
C585 C 0.53775 0.41494 0.72309 0.0
C586 C 0.58285 0.45125 0.70963 0.0
C587 C 0.63434 0.48968 0.72338 0.0
C588 C 0.67491 0.52499 0.70435 0.0
C589 C 0.68769 0.57153 0.71201 0.0
C590 C 0.73114 0.53203 0.70382 0.0
C591 C 0.6383 0.50031 0.67768 0.0
C592 C 0.58563 0.45757 0.68111 0.0
C593 C 0.54512 0.4279 0.65928 0.0
C594 C 0.55871 0.44244 0.63326 0.0
C595 C 0.61191 0.48646 0.62945 0.0
C596 C 0.65209 0.51568 0.65195 0.0
H597 H 0.57642 0.05136 0.56261 0.0
H598 H 0.75205 0.11269 0.54526 0.0
H599 H 0.77569 0.11604 0.59377 0.0
H600 H 0.616 0.12197 0.62719 0.0
H601 H 0.5528 0.07545 0.64265 0.0
H602 H 0.54971 0.0773 0.60653 0.0
H603 H 0.51546 0.9937 0.59796 0.0
H604 H 0.51844 0.99157 0.63404 0.0
H605 H 0.5584 0.98124 0.61274 0.0
H606 H 0.77832 0.10886 0.64377 0.0
H607 H 0.76165 0.09659 0.69228 0.0
H608 H 0.5867 0.04556 0.67746 0.0
C609 C 0.61987 0.06555 0.56906 0.0
C610 C 0.66217 0.08091 0.5502 0.0
C611 C 0.71871 0.09978 0.55935 0.0
C612 C 0.73259 0.10207 0.58686 0.0
C613 C 0.68967 0.08615 0.60493 0.0
C614 C 0.63466 0.06878 0.59647 0.0
C615 C 0.59672 0.05466 0.62004 0.0
C616 C 0.57771 0.08411 0.62435 0.0
C617 C 0.54416 1.00218 0.61594 0.0
C618 C 0.63876 0.0663 0.64307 0.0
C619 C 0.69205 0.08414 0.63391 0.0
C620 C 0.73703 0.09546 0.65124 0.0
C621 C 0.72723 0.08834 0.67864 0.0
C622 C 0.67323 0.07069 0.68841 0.0
C623 C 0.62865 0.05982 0.67044 0.0
H624 H 0.76908 0.65765 0.90511 0.0
H625 H 0.65451 0.51059 0.91544 0.0
H626 H 0.66972 0.53047 0.96536 0.0
H627 H 0.86905 0.70291 0.96521 0.0
H628 H 0.87342 0.75294 0.97289 0.0
H629 H 0.86014 0.72759 0.93818 0.0
H630 H 0.76663 0.71726 0.93299 0.0
H631 H 0.77997 0.74299 0.96752 0.0
H632 H 0.71195 0.68597 0.9567 0.0
H633 H 0.69856 0.5667 0.01382 0.0
H634 H 0.72179 0.61432 0.05721 0.0
H635 H 0.80557 0.73729 0.01482 0.0
C636 C 0.74801 0.62971 0.91795 0.0
C637 C 0.71195 0.58257 0.90664 0.0
C638 C 0.68326 0.54683 0.92386 0.0
C639 C 0.69184 0.55787 0.95217 0.0
C640 C 0.72807 0.60478 0.96274 0.0
C641 C 0.75453 0.6401 0.94617 0.0
C642 C 0.78527 0.68723 0.9625 0.0
C643 C 0.85087 0.71957 0.95951 0.0
C644 C 0.75939 0.70966 0.95445 0.0
C645 C 0.77156 0.67287 0.9909 0.0
C646 C 0.73997 0.62535 0.99059 0.0
C647 C 0.72244 0.60382 0.01427 0.0
C648 C 0.73548 0.63123 0.03881 0.0
C649 C 0.76405 0.67949 0.03945 0.0
C650 C 0.78377 0.70066 0.01517 0.0
H651 H 1.09004 0.4651 0.24192 0.0
H652 H 1.08884 0.57154 0.215 0.0
H653 H 1.10456 0.60508 0.26244 0.0
H654 H 1.01572 0.4503 0.30403 0.0
H655 H 1.05851 0.44198 0.32356 0.0
H656 H 1.04399 0.4246 0.28744 0.0
H657 H 0.15426 0.47621 0.28203 0.0
H658 H 0.16912 0.49395 0.31807 0.0
H659 H 0.20129 0.53733 0.29468 0.0
H660 H 0.12766 0.63079 0.31214 0.0
H661 H 0.15037 0.64385 0.36182 0.0
H662 H 0.13425 0.52001 0.35708 0.0
C663 C 1.09234 0.49506 0.24612 0.0
C664 C 1.08844 0.51585 0.22485 0.0
C665 C 1.09187 0.55515 0.23101 0.0
C666 C 1.10077 0.57447 0.2579 0.0
C667 C 1.10561 0.55383 0.27842 0.0
C668 C 1.10091 0.51472 0.27296 0.0
C669 C 1.10892 0.50007 0.29887 0.0
C670 C 1.05347 0.45135 0.30376 0.0
C671 C 0.16153 0.50203 0.29837 0.0
C672 C 0.11985 0.53753 0.31958 0.0
C673 C 0.11779 0.56819 0.30732 0.0
C674 C 0.12881 0.60677 0.32206 0.0
C675 C 0.142 0.61408 0.35016 0.0
C676 C 0.14372 0.58282 0.36318 0.0
C677 C 0.13236 0.54404 0.34764 0.0
loop_
_geom_bond_atom_site_label_1
_geom_bond_atom_site_label_2
_geom_bond_distance
_geom_bond_site_symmetry_2
_ccdc_geom_bond_type
La0 C2 2.928 . S
La0 O20 2.521 . S
La0 O21 2.628 . S
La0 O22 2.554 . S
La0 O23 2.757 . S
La0 O24 2.470 . S
La0 O29 2.482 . S
La0 O31 2.503 . S
La1 C11 2.928 1_455 S
La1 O23 2.482 . S
La1 O25 2.503 . S
La1 O26 2.521 1_455 S
La1 O27 2.628 1_455 S
La1 O28 2.554 . S
La1 O29 2.757 . S
La1 O30 2.470 1_455 S
C2 La0 2.928 . S
C2 C3 1.503 . S
C2 O20 1.261 . S
C2 O21 1.243 . S
C3 C2 1.503 . S
C3 C4 1.394 . S
C3 C8 1.373 . S
C4 C3 1.394 . S
C4 C5 1.380 . S
C4 H32 0.930 . S
C5 C4 1.380 . S
C5 C6 1.376 . S
C5 H33 0.930 . S
C6 C5 1.376 . S
C6 C7 1.370 . S
C7 C6 1.370 . S
C7 C8 1.396 . S
C7 H34 0.929 . S
C8 C3 1.373 . S
C8 C7 1.396 . S
C8 H35 0.929 . S
C9 O22 1.240 . S
C9 O23 1.289 . S
C10 O24 1.258 . S
C10 O25 1.256 . S
C11 La1 2.928 1_655 S
C11 C12 1.503 . S
C11 O26 1.261 . S
C11 O27 1.243 . S
C12 C11 1.503 . S
C12 C13 1.394 . S
C12 C17 1.373 . S
C13 C12 1.394 . S
C13 C14 1.380 . S
C13 H36 0.930 . S
C14 C13 1.380 . S
C14 C15 1.376 . S
C14 H37 0.930 . S
C15 C14 1.376 . S
C15 C16 1.370 . S
C16 C15 1.370 . S
C16 C17 1.396 . S
C16 H38 0.929 . S
C17 C12 1.373 . S
C17 C16 1.396 . S
C17 H39 0.929 . S
C18 O28 1.240 . S
C18 O29 1.289 . S
C19 O30 1.258 . S
C19 O31 1.256 1_655 S
O20 La0 2.521 . S
O20 C2 1.261 . S
O21 La0 2.628 . S
O21 C2 1.243 . S
O22 La0 2.554 . S
O22 C9 1.240 . S
O23 La0 2.757 . S
O23 La1 2.482 . S
O23 C9 1.289 . S
O24 La0 2.470 . S
O24 C10 1.258 . S
O25 La1 2.503 . S
O25 C10 1.256 . S
O26 La1 2.521 1_655 S
O26 C11 1.261 . S
O27 La1 2.628 1_655 S
O27 C11 1.243 . S
O28 La1 2.554 . S
O28 C18 1.240 . S
O29 La0 2.482 . S
O29 La1 2.757 . S
O29 C18 1.289 . S
O30 La1 2.470 1_655 S
O30 C19 1.258 . S
O31 La0 2.503 . S
O31 C19 1.256 1_455 S
H32 C4 0.930 . S
H33 C5 0.930 . S
H34 C7 0.929 . S
H35 C8 0.929 . S
H36 C13 0.930 . S
H37 C14 0.930 . S
H38 C16 0.929 . S
H39 C17 0.929 . S
La40 C42 2.928 1_545 S
La40 O60 2.521 1_545 S
La40 O61 2.628 1_545 S
La40 O62 2.554 . S
La40 O63 2.757 . S
La40 O64 2.470 1_545 S
La40 O69 2.482 . S
La40 O71 2.503 . S
La41 C51 2.928 . S
La41 O63 2.482 . S
La41 O65 2.503 1_545 S
La41 O66 2.521 . S
La41 O67 2.628 . S
La41 O68 2.554 . S
La41 O69 2.757 . S
La41 O70 2.470 . S
C42 La40 2.928 1_565 S
C42 C43 1.503 . S
C42 O60 1.261 . S
C42 O61 1.243 . S
C43 C42 1.503 . S
C43 C44 1.394 . S
C43 C48 1.373 . S
C44 C43 1.394 . S
C44 C45 1.380 . S
C44 H72 0.930 . S
C45 C44 1.380 . S
C45 C46 1.376 . S
C45 H73 0.930 . S
C46 C45 1.376 . S
C46 C47 1.370 . S
C47 C46 1.370 . S
C47 C48 1.396 . S
C47 H74 0.929 . S
C48 C43 1.373 . S
C48 C47 1.396 . S
C48 H75 0.929 . S
C49 O62 1.240 . S
C49 O63 1.289 . S
C50 O64 1.258 . S
C50 O65 1.256 . S
C51 La41 2.928 . S
C51 C52 1.503 . S
C51 O66 1.261 . S
C51 O67 1.243 . S
C52 C51 1.503 . S
C52 C53 1.394 . S
C52 C57 1.373 . S
C53 C52 1.394 . S
C53 C54 1.380 . S
C53 H76 0.930 . S
C54 C53 1.380 . S
C54 C55 1.376 . S
C54 H77 0.930 . S
C55 C54 1.376 . S
C55 C56 1.370 . S
C56 C55 1.370 . S
C56 C57 1.396 . S
C56 H78 0.929 . S
C57 C52 1.373 . S
C57 C56 1.396 . S
C57 H79 0.929 . S
C58 O68 1.240 . S
C58 O69 1.289 . S
C59 O70 1.258 . S
C59 O71 1.256 . S
O60 La40 2.521 1_565 S
O60 C42 1.261 . S
O61 La40 2.628 1_565 S
O61 C42 1.243 . S
O62 La40 2.554 . S
O62 C49 1.240 . S
O63 La40 2.757 . S
O63 La41 2.482 . S
O63 C49 1.289 . S
O64 La40 2.470 1_565 S
O64 C50 1.258 . S
O65 La41 2.503 1_565 S
O65 C50 1.256 . S
O66 La41 2.521 . S
O66 C51 1.261 . S
O67 La41 2.628 . S
O67 C51 1.243 . S
O68 La41 2.554 . S
O68 C58 1.240 . S
O69 La40 2.482 . S
O69 La41 2.757 . S
O69 C58 1.289 . S
O70 La41 2.470 . S
O70 C59 1.258 . S
O71 La40 2.503 . S
O71 C59 1.256 . S
H72 C44 0.930 . S
H73 C45 0.930 . S
H74 C47 0.929 . S
H75 C48 0.929 . S
H76 C53 0.930 . S
H77 C54 0.930 . S
H78 C56 0.929 . S
H79 C57 0.929 . S
La80 C82 2.928 . S
La80 O100 2.521 . S
La80 O101 2.628 . S
La80 O102 2.554 . S
La80 O103 2.757 . S
La80 O104 2.470 . S
La80 O109 2.482 . S
La80 O111 2.503 . S
La81 C91 2.928 . S
La81 O103 2.482 . S
La81 O105 2.503 . S
La81 O106 2.521 . S
La81 O107 2.628 . S
La81 O108 2.554 . S
La81 O109 2.757 . S
La81 O110 2.470 . S
C82 La80 2.928 . S
C82 C83 1.503 . S
C82 O100 1.261 . S
C82 O101 1.243 . S
C83 C82 1.503 . S
C83 C84 1.394 . S
C83 C88 1.373 . S
C84 C83 1.394 . S
C84 C85 1.380 . S
C84 H112 0.930 . S
C85 C84 1.380 . S
C85 C86 1.376 . S
C85 H113 0.930 . S
C86 C85 1.376 . S
C86 C87 1.370 . S
C87 C86 1.370 . S
C87 C88 1.396 . S
C87 H114 0.929 . S
C88 C83 1.373 . S
C88 C87 1.396 . S
C88 H115 0.929 . S
C89 O102 1.240 . S
C89 O103 1.289 . S
C90 O104 1.258 . S
C90 O105 1.256 . S
C91 La81 2.928 . S
C91 C92 1.503 . S
C91 O106 1.261 . S
C91 O107 1.243 . S
C92 C91 1.503 . S
C92 C93 1.394 . S
C92 C97 1.373 . S
C93 C92 1.394 . S
C93 C94 1.380 . S
C93 H116 0.930 . S
C94 C93 1.380 . S
C94 C95 1.376 . S
C94 H117 0.930 . S
C95 C94 1.376 . S
C95 C96 1.370 . S
C96 C95 1.370 . S
C96 C97 1.396 . S
C96 H118 0.929 . S
C97 C92 1.373 . S
C97 C96 1.396 . S
C97 H119 0.929 . S
C98 O108 1.240 . S
C98 O109 1.289 . S
C99 O110 1.258 . S
C99 O111 1.256 . S
O100 La80 2.521 . S
O100 C82 1.261 . S
O101 La80 2.628 . S
O101 C82 1.243 . S
O102 La80 2.554 . S
O102 C89 1.240 . S
O103 La80 2.757 . S
O103 La81 2.482 . S
O103 C89 1.289 . S
O104 La80 2.470 . S
O104 C90 1.258 . S
O105 La81 2.503 . S
O105 C90 1.256 . S
O106 La81 2.521 . S
O106 C91 1.261 . S
O107 La81 2.628 . S
O107 C91 1.243 . S
O108 La81 2.554 . S
O108 C98 1.240 . S
O109 La80 2.482 . S
O109 La81 2.757 . S
O109 C98 1.289 . S
O110 La81 2.470 . S
O110 C99 1.258 . S
O111 La80 2.503 . S
O111 C99 1.256 . S
H112 C84 0.930 . S
H113 C85 0.930 . S
H114 C87 0.929 . S
H115 C88 0.929 . S
H116 C93 0.930 . S
H117 C94 0.930 . S
H118 C96 0.929 . S
H119 C97 0.929 . S
H120 C125 0.930 . S
H121 C128 0.930 . S
H122 C130 0.923 1_565 S
H123 C124 1.016 . S
C124 H123 1.016 . S
C124 N131 1.286 . S
C125 H120 0.930 . S
C125 C126 1.397 1_545 S
C125 C127 1.361 . S
C126 C125 1.397 1_565 S
C126 C130 1.386 1_565 S
C127 C125 1.361 . S
C127 C128 1.393 . S
C127 N131 1.413 . S
C128 H121 0.930 . S
C128 C127 1.393 . S
C128 C129 1.399 . S
C129 C128 1.399 . S
C129 C130 1.394 . S
C130 H122 0.923 1_545 S
C130 C126 1.386 1_545 S
C130 C129 1.394 . S
N131 C124 1.286 . S
N131 C127 1.413 . S
H132 C137 0.930 . S
H133 C140 0.930 . S
H134 C142 0.930 . S
H135 C136 1.016 . S
C136 H135 1.016 . S
C136 N143 1.286 . S
C137 H132 0.930 . S
C137 C138 1.397 . S
C137 C139 1.361 . S
C138 C137 1.397 . S
C138 C142 1.390 . S
C139 C137 1.361 . S
C139 C140 1.393 . S
C139 N143 1.413 . S
C140 H133 0.930 . S
C140 C139 1.393 . S
C140 C141 1.399 . S
C141 C140 1.399 . S
C141 C142 1.381 . S
C142 H134 0.930 . S
C142 C138 1.390 . S
C142 C141 1.381 . S
N143 C136 1.286 . S
N143 C139 1.413 . S
H144 C149 0.930 . S
H145 C152 0.930 . S
H146 C154 0.930 1_655 S
H147 C148 1.016 . S
C148 H147 1.016 . S
C148 N155 1.286 . S
C149 H144 0.930 . S
C149 C150 1.397 1_455 S
C149 C151 1.361 . S
C150 C149 1.397 1_655 S
C150 C154 1.390 1_655 S
C151 C149 1.361 . S
C151 C152 1.393 . S
C151 N155 1.413 . S
C152 H145 0.930 . S
C152 C151 1.393 . S
C152 C153 1.399 . S
C153 C152 1.399 . S
C153 C154 1.381 . S
C154 H146 0.930 1_455 S
C154 C150 1.390 1_455 S
C154 C153 1.381 . S
N155 C148 1.286 . S
N155 C151 1.413 . S
H156 C161 0.930 . S
H157 C164 0.930 . S
H158 C166 0.930 . S
H159 C160 1.016 . S
C160 H159 1.016 . S
C160 N167 1.286 . S
C161 H156 0.930 . S
C161 C162 1.397 . S
C161 C163 1.361 1_455 S
C162 C161 1.397 . S
C162 C166 1.390 . S
C163 C161 1.361 1_655 S
C163 C164 1.393 . S
C163 N167 1.413 . S
C164 H157 0.930 . S
C164 C163 1.393 . S
C164 C165 1.399 1_655 S
C165 C164 1.399 1_455 S
C165 C166 1.381 . S
C166 H158 0.930 . S
C166 C162 1.390 . S
C166 C165 1.381 . S
N167 C160 1.286 . S
N167 C163 1.413 . S
H168 C173 0.930 . S
H169 C176 0.901 1_565 S
H170 C178 0.930 . S
H171 C172 1.016 . S
C172 H171 1.016 . S
C172 N179 1.286 . S
C173 H168 0.930 . S
C173 C174 1.397 . S
C173 C175 1.361 . S
C174 C173 1.397 . S
C174 C178 1.390 . S
C175 C173 1.361 . S
C175 C176 1.394 . S
C175 N179 1.413 1_545 S
C176 H169 0.901 1_545 S
C176 C175 1.394 . S
C176 C177 1.428 . S
C177 C176 1.428 . S
C177 C178 1.381 . S
C178 H170 0.930 . S
C178 C174 1.390 . S
C178 C177 1.381 . S
N179 C172 1.286 . S
N179 C175 1.413 1_565 S
H180 C185 0.930 . S
H181 C188 0.930 . S
H182 C190 0.930 . S
H183 C184 1.016 . S
C184 H183 1.016 . S
C184 N191 1.286 . S
C185 H180 0.930 . S
C185 C186 1.397 . S
C185 C187 1.361 . S
C186 C185 1.397 . S
C186 C190 1.390 . S
C187 C185 1.361 . S
C187 C188 1.393 . S
C187 N191 1.413 . S
C188 H181 0.930 . S
C188 C187 1.393 . S
C188 C189 1.399 . S
C189 C188 1.399 . S
C189 C190 1.381 . S
C190 H182 0.930 . S
C190 C186 1.390 . S
C190 C189 1.381 . S
N191 C184 1.286 . S
N191 C187 1.413 . S
H192 C204 0.930 . S
H193 C206 0.930 . S
H194 C207 0.930 . S
H195 C211 0.959 . S
H196 C211 0.959 . S
H197 C211 0.961 . S
H198 C212 0.960 . S
H199 C212 0.961 . S
H200 C212 0.959 . S
H201 C215 0.929 . S
H202 C216 0.931 . S
H203 C218 0.930 . S
C204 H192 0.930 . S
C204 C205 1.399 . S
C204 C209 1.399 . S
C205 C204 1.399 . S
C205 C206 1.376 . S
C206 H193 0.930 . S
C206 C205 1.376 . S
C206 C207 1.388 . S
C207 H194 0.930 . S
C207 C206 1.388 . S
C207 C208 1.390 . S
C208 C207 1.390 . S
C208 C209 1.394 . S
C208 C214 1.465 . S
C209 C204 1.399 . S
C209 C208 1.394 . S
C209 C210 1.516 . S
C210 C209 1.516 . S
C210 C211 1.502 . S
C210 C212 1.561 . S
C210 C213 1.526 . S
C211 H195 0.959 . S
C211 H196 0.959 . S
C211 H197 0.961 . S
C211 C210 1.502 . S
C212 H198 0.960 . S
C212 H199 0.961 . S
C212 H200 0.959 . S
C212 C210 1.561 . S
C213 C210 1.526 . S
C213 C214 1.396 . S
C213 C218 1.390 . S
C214 C208 1.465 . S
C214 C213 1.396 . S
C214 C215 1.399 . S
C215 H201 0.929 . S
C215 C214 1.399 . S
C215 C216 1.385 . S
C216 H202 0.931 . S
C216 C215 1.385 . S
C216 C217 1.389 . S
C217 C216 1.389 . S
C217 C218 1.387 . S
C218 H203 0.930 . S
C218 C213 1.390 . S
C218 C217 1.387 . S
H219 C231 0.930 . S
H220 C233 0.930 . S
H221 C234 0.930 . S
H222 C238 0.959 . S
H223 C238 0.959 . S
H224 C238 0.961 . S
H225 C239 0.960 . S
H226 C239 0.961 . S
H227 C239 0.959 . S
H228 C242 0.929 . S
H229 C243 0.931 . S
H230 C245 0.930 . S
C231 H219 0.930 . S
C231 C232 1.399 . S
C231 C236 1.399 . S
C232 C231 1.399 . S
C232 C233 1.376 . S
C233 H220 0.930 . S
C233 C232 1.376 . S
C233 C234 1.388 . S
C234 H221 0.930 . S
C234 C233 1.388 . S
C234 C235 1.390 . S
C235 C234 1.390 . S
C235 C236 1.394 . S
C235 C241 1.465 . S
C236 C231 1.399 . S
C236 C235 1.394 . S
C236 C237 1.516 . S
C237 C236 1.516 . S
C237 C238 1.502 . S
C237 C239 1.561 . S
C237 C240 1.526 . S
C238 H222 0.959 . S
C238 H223 0.959 . S
C238 H224 0.961 . S
C238 C237 1.502 . S
C239 H225 0.960 . S
C239 H226 0.961 . S
C239 H227 0.959 . S
C239 C237 1.561 . S
C240 C237 1.526 . S
C240 C241 1.396 . S
C240 C245 1.390 . S
C241 C235 1.465 . S
C241 C240 1.396 . S
C241 C242 1.399 . S
C242 H228 0.929 . S
C242 C241 1.399 . S
C242 C243 1.385 . S
C243 H229 0.931 . S
C243 C242 1.385 . S
C243 C244 1.389 . S
C244 C243 1.389 . S
C244 C245 1.387 . S
C245 H230 0.930 . S
C245 C240 1.390 . S
C245 C244 1.387 . S
H246 C258 0.930 . S
H247 C260 0.930 . S
H248 C261 0.930 . S
H249 C265 0.959 . S
H250 C265 0.959 . S
H251 C265 0.961 . S
H252 C266 0.960 . S
H253 C266 0.961 . S
H254 C266 0.959 . S
H255 C269 0.929 . S
H256 C270 0.931 . S
H257 C272 0.930 . S
C258 H246 0.930 . S
C258 C259 1.399 . S
C258 C263 1.399 . S
C259 C258 1.399 . S
C259 C260 1.376 . S
C260 H247 0.930 . S
C260 C259 1.376 . S
C260 C261 1.388 . S
C261 H248 0.930 . S
C261 C260 1.388 . S
C261 C262 1.390 . S
C262 C261 1.390 . S
C262 C263 1.394 . S
C262 C268 1.465 . S
C263 C258 1.399 . S
C263 C262 1.394 . S
C263 C264 1.516 . S
C264 C263 1.516 . S
C264 C265 1.502 . S
C264 C266 1.561 . S
C264 C267 1.526 . S
C265 H249 0.959 . S
C265 H250 0.959 . S
C265 H251 0.961 . S
C265 C264 1.502 . S
C266 H252 0.960 . S
C266 H253 0.961 . S
C266 H254 0.959 . S
C266 C264 1.561 . S
C267 C264 1.526 . S
C267 C268 1.396 . S
C267 C272 1.390 . S
C268 C262 1.465 . S
C268 C267 1.396 . S
C268 C269 1.399 . S
C269 H255 0.929 . S
C269 C268 1.399 . S
C269 C270 1.385 . S
C270 H256 0.931 . S
C270 C269 1.385 . S
C270 C271 1.389 . S
C271 C270 1.389 . S
C271 C272 1.387 . S
C272 H257 0.930 . S
C272 C267 1.390 . S
C272 C271 1.387 . S
H273 C285 0.930 . S
H274 C287 0.930 . S
H275 C288 0.930 . S
H276 C292 0.959 . S
H277 C292 0.959 . S
H278 C292 0.961 . S
H279 C293 0.960 . S
H280 C293 0.961 . S
H281 C293 0.959 . S
H282 C296 0.929 . S
H283 C297 0.931 . S
H284 C299 0.930 . S
C285 H273 0.930 . S
C285 C286 1.399 . S
C285 C290 1.399 . S
C286 C285 1.399 . S
C286 C287 1.376 . S
C287 H274 0.930 . S
C287 C286 1.376 . S
C287 C288 1.388 . S
C288 H275 0.930 . S
C288 C287 1.388 . S
C288 C289 1.390 . S
C289 C288 1.390 . S
C289 C290 1.394 . S
C289 C295 1.465 . S
C290 C285 1.399 . S
C290 C289 1.394 . S
C290 C291 1.516 . S
C291 C290 1.516 . S
C291 C292 1.502 . S
C291 C293 1.561 . S
C291 C294 1.526 . S
C292 H276 0.959 . S
C292 H277 0.959 . S
C292 H278 0.961 . S
C292 C291 1.502 . S
C293 H279 0.960 . S
C293 H280 0.961 . S
C293 H281 0.959 . S
C293 C291 1.561 . S
C294 C291 1.526 . S
C294 C295 1.396 . S
C294 C299 1.390 . S
C295 C289 1.465 . S
C295 C294 1.396 . S
C295 C296 1.399 . S
C296 H282 0.929 . S
C296 C295 1.399 . S
C296 C297 1.385 . S
C297 H283 0.931 . S
C297 C296 1.385 . S
C297 C298 1.389 . S
C298 C297 1.389 . S
C298 C299 1.387 . S
C299 H284 0.930 . S
C299 C294 1.390 . S
C299 C298 1.387 . S
H300 C312 0.930 . S
H301 C314 0.930 . S
H302 C315 0.930 . S
H303 C319 0.959 . S
H304 C319 0.959 . S
H305 C319 0.961 . S
H306 C320 0.960 . S
H307 C320 0.961 . S
H308 C320 0.959 . S
H309 C323 0.929 . S
H310 C324 0.931 . S
H311 C326 0.930 . S
C312 H300 0.930 . S
C312 C313 1.399 . S
C312 C317 1.399 . S
C313 C312 1.399 . S
C313 C314 1.376 . S
C314 H301 0.930 . S
C314 C313 1.376 . S
C314 C315 1.388 . S
C315 H302 0.930 . S
C315 C314 1.388 . S
C315 C316 1.390 . S
C316 C315 1.390 . S
C316 C317 1.394 . S
C316 C322 1.465 . S
C317 C312 1.399 . S
C317 C316 1.394 . S
C317 C318 1.516 . S
C318 C317 1.516 . S
C318 C319 1.502 . S
C318 C320 1.561 . S
C318 C321 1.526 . S
C319 H303 0.959 . S
C319 H304 0.959 . S
C319 H305 0.961 . S
C319 C318 1.502 . S
C320 H306 0.960 . S
C320 H307 0.961 . S
C320 H308 0.959 . S
C320 C318 1.561 . S
C321 C318 1.526 . S
C321 C322 1.396 . S
C321 C326 1.390 . S
C322 C316 1.465 . S
C322 C321 1.396 . S
C322 C323 1.399 . S
C323 H309 0.929 . S
C323 C322 1.399 . S
C323 C324 1.385 . S
C324 H310 0.931 . S
C324 C323 1.385 . S
C324 C325 1.389 . S
C325 C324 1.389 . S
C325 C326 1.387 . S
C326 H311 0.930 . S
C326 C321 1.390 . S
C326 C325 1.387 . S
H327 C339 0.930 . S
H328 C341 0.930 . S
H329 C342 0.930 . S
H330 C346 0.959 . S
H331 C346 0.959 . S
H332 C346 0.961 . S
H333 C347 0.960 . S
H334 C347 0.961 . S
H335 C347 0.959 . S
H336 C350 0.929 . S
H337 C351 0.931 . S
H338 C353 0.930 . S
C339 H327 0.930 . S
C339 C340 1.399 . S
C339 C344 1.399 . S
C340 C339 1.399 . S
C340 C341 1.376 . S
C341 H328 0.930 . S
C341 C340 1.376 . S
C341 C342 1.388 . S
C342 H329 0.930 . S
C342 C341 1.388 . S
C342 C343 1.390 . S
C343 C342 1.390 . S
C343 C344 1.394 . S
C343 C349 1.465 . S
C344 C339 1.399 . S
C344 C343 1.394 . S
C344 C345 1.516 . S
C345 C344 1.516 . S
C345 C346 1.502 . S
C345 C347 1.561 . S
C345 C348 1.526 . S
C346 H330 0.959 . S
C346 H331 0.959 . S
C346 H332 0.961 . S
C346 C345 1.502 . S
C347 H333 0.960 . S
C347 H334 0.961 . S
C347 H335 0.959 . S
C347 C345 1.561 . S
C348 C345 1.526 . S
C348 C349 1.396 . S
C348 C353 1.390 . S
C349 C343 1.465 . S
C349 C348 1.396 . S
C349 C350 1.399 . S
C350 H336 0.929 . S
C350 C349 1.399 . S
C350 C351 1.385 . S
C351 H337 0.931 . S
C351 C350 1.385 . S
C351 C352 1.389 . S
C352 C351 1.389 . S
C352 C353 1.387 . S
C353 H338 0.930 . S
C353 C348 1.390 . S
C353 C352 1.387 . S
H354 C366 0.930 . S
H355 C368 0.930 . S
H356 C369 0.930 . S
H357 C373 0.959 . S
H358 C373 0.959 . S
H359 C373 0.961 . S
H360 C374 0.960 . S
H361 C374 0.961 . S
H362 C374 0.959 . S
H363 C377 0.929 . S
H364 C378 0.931 . S
H365 C380 0.930 . S
C366 H354 0.930 . S
C366 C367 1.399 . S
C366 C371 1.399 . S
C367 C366 1.399 . S
C367 C368 1.376 . S
C368 H355 0.930 . S
C368 C367 1.376 . S
C368 C369 1.388 . S
C369 H356 0.930 . S
C369 C368 1.388 . S
C369 C370 1.390 . S
C370 C369 1.390 . S
C370 C371 1.394 . S
C370 C376 1.465 . S
C371 C366 1.399 . S
C371 C370 1.394 . S
C371 C372 1.516 . S
C372 C371 1.516 . S
C372 C373 1.502 . S
C372 C374 1.561 . S
C372 C375 1.526 . S
C373 H357 0.959 . S
C373 H358 0.959 . S
C373 H359 0.961 . S
C373 C372 1.502 . S
C374 H360 0.960 . S
C374 H361 0.961 . S
C374 H362 0.959 . S
C374 C372 1.561 . S
C375 C372 1.526 . S
C375 C376 1.396 . S
C375 C380 1.390 . S
C376 C370 1.465 . S
C376 C375 1.396 . S
C376 C377 1.399 . S
C377 H363 0.929 . S
C377 C376 1.399 . S
C377 C378 1.385 . S
C378 H364 0.931 . S
C378 C377 1.385 . S
C378 C379 1.389 . S
C379 C378 1.389 . S
C379 C380 1.387 . S
C380 H365 0.930 . S
C380 C375 1.390 . S
C380 C379 1.387 . S
H381 C393 0.930 . S
H382 C395 0.930 . S
H383 C396 0.930 . S
H384 C400 0.959 . S
H385 C400 0.959 . S
H386 C400 0.961 . S
H387 C401 0.960 . S
H388 C401 0.961 . S
H389 C401 0.959 . S
H390 C404 0.929 . S
H391 C405 0.931 . S
H392 C407 0.930 . S
C393 H381 0.930 . S
C393 C394 1.399 . S
C393 C398 1.399 . S
C394 C393 1.399 . S
C394 C395 1.376 . S
C395 H382 0.930 . S
C395 C394 1.376 . S
C395 C396 1.388 . S
C396 H383 0.930 . S
C396 C395 1.388 . S
C396 C397 1.390 . S
C397 C396 1.390 . S
C397 C398 1.394 . S
C397 C403 1.465 . S
C398 C393 1.399 . S
C398 C397 1.394 . S
C398 C399 1.516 . S
C399 C398 1.516 . S
C399 C400 1.502 . S
C399 C401 1.561 . S
C399 C402 1.526 . S
C400 H384 0.959 . S
C400 H385 0.959 . S
C400 H386 0.961 . S
C400 C399 1.502 . S
C401 H387 0.960 . S
C401 H388 0.961 . S
C401 H389 0.959 . S
C401 C399 1.561 . S
C402 C399 1.526 . S
C402 C403 1.396 . S
C402 C407 1.390 . S
C403 C397 1.465 . S
C403 C402 1.396 . S
C403 C404 1.399 . S
C404 H390 0.929 . S
C404 C403 1.399 . S
C404 C405 1.385 . S
C405 H391 0.931 . S
C405 C404 1.385 . S
C405 C406 1.389 . S
C406 C405 1.389 . S
C406 C407 1.387 . S
C407 H392 0.930 . S
C407 C402 1.390 . S
C407 C406 1.387 . S
H408 C420 0.930 . S
H409 C422 0.930 . S
H410 C423 0.930 . S
H411 C427 0.959 . S
H412 C427 0.959 . S
H413 C427 0.961 . S
H414 C428 0.960 . S
H415 C428 0.961 . S
H416 C428 0.959 . S
H417 C431 0.929 . S
H418 C432 0.931 . S
H419 C434 0.930 . S
C420 H408 0.930 . S
C420 C421 1.399 . S
C420 C425 1.399 . S
C421 C420 1.399 . S
C421 C422 1.376 . S
C422 H409 0.930 . S
C422 C421 1.376 . S
C422 C423 1.388 . S
C423 H410 0.930 . S
C423 C422 1.388 . S
C423 C424 1.390 . S
C424 C423 1.390 . S
C424 C425 1.394 . S
C424 C430 1.465 . S
C425 C420 1.399 . S
C425 C424 1.394 . S
C425 C426 1.516 . S
C426 C425 1.516 . S
C426 C427 1.502 . S
C426 C428 1.561 . S
C426 C429 1.526 . S
C427 H411 0.959 . S
C427 H412 0.959 . S
C427 H413 0.961 . S
C427 C426 1.502 . S
C428 H414 0.960 . S
C428 H415 0.961 . S
C428 H416 0.959 . S
C428 C426 1.561 . S
C429 C426 1.526 . S
C429 C430 1.396 . S
C429 C434 1.390 . S
C430 C424 1.465 . S
C430 C429 1.396 . S
C430 C431 1.399 . S
C431 H417 0.929 . S
C431 C430 1.399 . S
C431 C432 1.385 . S
C432 H418 0.931 . S
C432 C431 1.385 . S
C432 C433 1.389 . S
C433 C432 1.389 . S
C433 C434 1.387 . S
C434 H419 0.930 . S
C434 C429 1.390 . S
C434 C433 1.387 . S
H435 C447 0.930 . S
H436 C449 0.930 . S
H437 C450 0.930 . S
H438 C454 0.959 . S
H439 C454 0.959 . S
H440 C454 0.961 . S
H441 C455 0.960 . S
H442 C455 0.961 . S
H443 C455 0.959 . S
H444 C458 0.929 . S
H445 C459 0.931 . S
H446 C461 0.930 . S
C447 H435 0.930 . S
C447 C448 1.399 . S
C447 C452 1.399 . S
C448 C447 1.399 . S
C448 C449 1.376 . S
C449 H436 0.930 . S
C449 C448 1.376 . S
C449 C450 1.388 . S
C450 H437 0.930 . S
C450 C449 1.388 . S
C450 C451 1.390 . S
C451 C450 1.390 . S
C451 C452 1.394 . S
C451 C457 1.465 . S
C452 C447 1.399 . S
C452 C451 1.394 . S
C452 C453 1.516 . S
C453 C452 1.516 . S
C453 C454 1.502 . S
C453 C455 1.561 . S
C453 C456 1.526 . S
C454 H438 0.959 . S
C454 H439 0.959 . S
C454 H440 0.961 . S
C454 C453 1.502 . S
C455 H441 0.960 . S
C455 H442 0.961 . S
C455 H443 0.959 . S
C455 C453 1.561 . S
C456 C453 1.526 . S
C456 C457 1.396 . S
C456 C461 1.390 . S
C457 C451 1.465 . S
C457 C456 1.396 . S
C457 C458 1.399 . S
C458 H444 0.929 . S
C458 C457 1.399 . S
C458 C459 1.385 . S
C459 H445 0.931 . S
C459 C458 1.385 . S
C459 C460 1.389 . S
C460 C459 1.389 . S
C460 C461 1.387 . S
C461 H446 0.930 . S
C461 C456 1.390 . S
C461 C460 1.387 . S
H462 C474 0.930 . S
H463 C476 0.930 . S
H464 C477 0.930 . S
H465 C481 0.959 . S
H466 C481 0.959 . S
H467 C481 0.961 . S
H468 C482 0.960 . S
H469 C482 0.961 . S
H470 C482 0.959 . S
H471 C485 0.929 . S
H472 C486 0.931 . S
H473 C488 0.930 . S
C474 H462 0.930 . S
C474 C475 1.399 . S
C474 C479 1.399 . S
C475 C474 1.399 . S
C475 C476 1.376 . S
C476 H463 0.930 . S
C476 C475 1.376 . S
C476 C477 1.388 . S
C477 H464 0.930 . S
C477 C476 1.388 . S
C477 C478 1.390 . S
C478 C477 1.390 . S
C478 C479 1.394 . S
C478 C484 1.465 . S
C479 C474 1.399 . S
C479 C478 1.394 . S
C479 C480 1.516 . S
C480 C479 1.516 . S
C480 C481 1.502 . S
C480 C482 1.561 . S
C480 C483 1.526 . S
C481 H465 0.959 . S
C481 H466 0.959 . S
C481 H467 0.961 . S
C481 C480 1.502 . S
C482 H468 0.960 . S
C482 H469 0.961 . S
C482 H470 0.959 . S
C482 C480 1.561 . S
C483 C480 1.526 . S
C483 C484 1.396 . S
C483 C488 1.390 . S
C484 C478 1.465 . S
C484 C483 1.396 . S
C484 C485 1.399 . S
C485 H471 0.929 . S
C485 C484 1.399 . S
C485 C486 1.385 . S
C486 H472 0.931 . S
C486 C485 1.385 . S
C486 C487 1.389 . S
C487 C486 1.389 . S
C487 C488 1.387 . S
C488 H473 0.930 . S
C488 C483 1.390 . S
C488 C487 1.387 . S
H489 C501 0.930 . S
H490 C503 0.930 . S
H491 C504 0.930 . S
H492 C508 0.959 . S
H493 C508 0.959 . S
H494 C508 0.961 . S
H495 C509 0.960 . S
H496 C509 0.961 . S
H497 C509 0.959 . S
H498 C512 0.929 . S
H499 C513 0.931 . S
H500 C515 0.930 . S
C501 H489 0.930 . S
C501 C502 1.399 . S
C501 C506 1.399 . S
C502 C501 1.399 . S
C502 C503 1.376 . S
C503 H490 0.930 . S
C503 C502 1.376 . S
C503 C504 1.388 . S
C504 H491 0.930 . S
C504 C503 1.388 . S
C504 C505 1.390 . S
C505 C504 1.390 . S
C505 C506 1.394 . S
C505 C511 1.465 . S
C506 C501 1.399 . S
C506 C505 1.394 . S
C506 C507 1.516 . S
C507 C506 1.516 . S
C507 C508 1.502 . S
C507 C509 1.561 . S
C507 C510 1.526 . S
C508 H492 0.959 . S
C508 H493 0.959 . S
C508 H494 0.961 . S
C508 C507 1.502 . S
C509 H495 0.960 . S
C509 H496 0.961 . S
C509 H497 0.959 . S
C509 C507 1.561 . S
C510 C507 1.526 . S
C510 C511 1.396 . S
C510 C515 1.390 . S
C511 C505 1.465 . S
C511 C510 1.396 . S
C511 C512 1.399 . S
C512 H498 0.929 . S
C512 C511 1.399 . S
C512 C513 1.385 . S
C513 H499 0.931 . S
C513 C512 1.385 . S
C513 C514 1.389 . S
C514 C513 1.389 . S
C514 C515 1.387 . S
C515 H500 0.930 . S
C515 C510 1.390 . S
C515 C514 1.387 . S
H516 C528 0.930 . S
H517 C530 0.930 . S
H518 C531 0.930 . S
H519 C535 0.959 . S
H520 C535 0.965 . S
H521 C535 0.961 . S
H522 C536 0.960 . S
H523 C536 0.961 1_556 S
H524 C536 0.959 . S
H525 C539 0.929 . S
H526 C540 0.931 . S
H527 C542 0.930 . S
C528 H516 0.930 . S
C528 C529 1.399 . S
C528 C533 1.399 . S
C529 C528 1.399 . S
C529 C530 1.376 . S
C530 H517 0.930 . S
C530 C529 1.376 . S
C530 C531 1.388 . S
C531 H518 0.930 . S
C531 C530 1.388 . S
C531 C532 1.390 . S
C532 C531 1.390 . S
C532 C533 1.394 . S
C532 C538 1.465 1_554 S
C533 C528 1.399 . S
C533 C532 1.394 . S
C533 C534 1.516 . S
C534 C533 1.516 . S
C534 C535 1.502 . S
C534 C536 1.561 . S
C534 C537 1.526 1_554 S
C535 H519 0.959 . S
C535 H520 0.965 . S
C535 H521 0.961 . S
C535 C534 1.502 . S
C536 H522 0.960 . S
C536 H523 0.961 1_554 S
C536 H524 0.959 . S
C536 C534 1.561 . S
C537 C534 1.526 1_556 S
C537 C538 1.396 . S
C537 C542 1.390 . S
C538 C532 1.465 1_556 S
C538 C537 1.396 . S
C538 C539 1.399 . S
C539 H525 0.929 . S
C539 C538 1.399 . S
C539 C540 1.385 . S
C540 H526 0.931 . S
C540 C539 1.385 . S
C540 C541 1.389 . S
C541 C540 1.389 . S
C541 C542 1.387 . S
C542 H527 0.930 . S
C542 C537 1.390 . S
C542 C541 1.387 . S
H543 C555 0.930 . S
H544 C557 0.930 . S
H545 C558 0.930 . S
H546 C562 0.959 . S
H547 C562 0.959 . S
H548 C562 0.961 . S
H549 C563 0.960 . S
H550 C563 0.961 . S
H551 C563 0.959 . S
H552 C566 0.929 . S
H553 C567 0.931 . S
H554 C569 0.930 . S
C555 H543 0.930 . S
C555 C556 1.399 . S
C555 C560 1.399 . S
C556 C555 1.399 . S
C556 C557 1.376 1_545 S
C557 H544 0.930 . S
C557 C556 1.376 1_565 S
C557 C558 1.388 . S
C558 H545 0.930 . S
C558 C557 1.388 . S
C558 C559 1.390 1_565 S
C559 C558 1.390 1_545 S
C559 C560 1.394 . S
C559 C565 1.465 . S
C560 C555 1.399 . S
C560 C559 1.394 . S
C560 C561 1.516 . S
C561 C560 1.516 . S
C561 C562 1.502 . S
C561 C563 1.561 . S
C561 C564 1.526 . S
C562 H546 0.959 . S
C562 H547 0.959 . S
C562 H548 0.961 . S
C562 C561 1.502 . S
C563 H549 0.960 . S
C563 H550 0.961 . S
C563 H551 0.959 . S
C563 C561 1.561 . S
C564 C561 1.526 . S
C564 C565 1.396 . S
C564 C569 1.390 . S
C565 C559 1.465 . S
C565 C564 1.396 . S
C565 C566 1.399 1_545 S
C566 H552 0.929 . S
C566 C565 1.399 1_565 S
C566 C567 1.385 . S
C567 H553 0.931 . S
C567 C566 1.385 . S
C567 C568 1.389 1_565 S
C568 C567 1.389 1_545 S
C568 C569 1.387 . S
C569 H554 0.930 . S
C569 C564 1.390 . S
C569 C568 1.387 . S
H570 C582 0.930 . S
H571 C584 0.930 . S
H572 C585 0.930 . S
H573 C589 0.959 . S
H574 C589 0.959 . S
H575 C589 0.961 . S
H576 C590 0.960 . S
H577 C590 0.961 . S
H578 C590 0.959 . S
H579 C593 0.929 . S
H580 C594 0.931 . S
H581 C596 0.930 . S
C582 H570 0.930 . S
C582 C583 1.399 . S
C582 C587 1.399 . S
C583 C582 1.399 . S
C583 C584 1.376 . S
C584 H571 0.930 . S
C584 C583 1.376 . S
C584 C585 1.388 . S
C585 H572 0.930 . S
C585 C584 1.388 . S
C585 C586 1.390 . S
C586 C585 1.390 . S
C586 C587 1.394 . S
C586 C592 1.465 . S
C587 C582 1.399 . S
C587 C586 1.394 . S
C587 C588 1.516 . S
C588 C587 1.516 . S
C588 C589 1.502 . S
C588 C590 1.561 . S
C588 C591 1.526 . S
C589 H573 0.959 . S
C589 H574 0.959 . S
C589 H575 0.961 . S
C589 C588 1.502 . S
C590 H576 0.960 . S
C590 H577 0.961 . S
C590 H578 0.959 . S
C590 C588 1.561 . S
C591 C588 1.526 . S
C591 C592 1.396 . S
C591 C596 1.390 . S
C592 C586 1.465 . S
C592 C591 1.396 . S
C592 C593 1.399 . S
C593 H579 0.929 . S
C593 C592 1.399 . S
C593 C594 1.385 . S
C594 H580 0.931 . S
C594 C593 1.385 . S
C594 C595 1.389 . S
C595 C594 1.389 . S
C595 C596 1.387 . S
C596 H581 0.930 . S
C596 C591 1.390 . S
C596 C595 1.387 . S
H597 C609 0.930 . S
H598 C611 0.930 . S
H599 C612 0.930 . S
H600 C616 0.959 . S
H601 C616 0.959 . S
H602 C616 0.961 . S
H603 C617 0.960 . S
H604 C617 0.961 . S
H605 C617 0.959 . S
H606 C620 0.929 . S
H607 C621 0.931 . S
H608 C623 0.930 . S
C609 H597 0.930 . S
C609 C610 1.399 1_565 S
C609 C614 1.399 1_565 S
C610 C609 1.399 1_545 S
C610 C611 1.376 . S
C611 H598 0.930 . S
C611 C610 1.376 . S
C611 C612 1.388 . S
C612 H599 0.930 . S
C612 C611 1.388 . S
C612 C613 1.390 . S
C613 C612 1.390 . S
C613 C614 1.394 . S
C613 C619 1.465 . S
C614 C609 1.399 1_545 S
C614 C613 1.394 . S
C614 C615 1.516 1_545 S
C615 C614 1.516 1_565 S
C615 C616 1.502 . S
C615 C617 1.561 . S
C615 C618 1.519 1_565 S
C616 H600 0.959 . S
C616 H601 0.959 . S
C616 H602 0.961 . S
C616 C615 1.502 . S
C617 H603 0.960 . S
C617 H604 0.961 . S
C617 H605 0.959 . S
C617 C615 1.561 . S
C618 C615 1.519 1_545 S
C618 C619 1.412 . S
C618 C623 1.382 1_545 S
C619 C613 1.465 . S
C619 C618 1.412 . S
C619 C620 1.399 . S
C620 H606 0.929 . S
C620 C619 1.399 . S
C620 C621 1.385 . S
C621 H607 0.931 . S
C621 C620 1.385 . S
C621 C622 1.389 . S
C622 C621 1.389 . S
C622 C623 1.387 1_545 S
C623 H608 0.930 . S
C623 C618 1.382 1_565 S
C623 C622 1.387 1_565 S
H624 C636 0.930 . S
H625 C638 0.930 . S
H626 C639 0.930 . S
H627 C643 0.959 . S
H628 C643 0.967 . S
H629 C643 0.961 . S
H630 C644 0.960 . S
H631 C644 0.961 . S
H632 C644 0.959 . S
H633 C647 0.929 1_556 S
H634 C648 0.931 . S
H635 C650 0.930 . S
C636 H624 0.930 . S
C636 C637 1.399 . S
C636 C641 1.399 . S
C637 C636 1.399 . S
C637 C638 1.376 . S
C638 H625 0.930 . S
C638 C637 1.376 . S
C638 C639 1.388 . S
C639 H626 0.930 . S
C639 C638 1.388 . S
C639 C640 1.390 . S
C640 C639 1.390 . S
C640 C641 1.394 . S
C640 C646 1.465 . S
C641 C636 1.399 . S
C641 C640 1.394 . S
C641 C642 1.516 . S
C642 C641 1.516 . S
C642 C643 1.502 . S
C642 C644 1.561 . S
C642 C645 1.513 1_556 S
C643 H627 0.959 . S
C643 H628 0.967 . S
C643 H629 0.961 . S
C643 C642 1.502 . S
C644 H630 0.960 . S
C644 H631 0.961 . S
C644 H632 0.959 . S
C644 C642 1.561 . S
C645 C642 1.513 1_554 S
C645 C646 1.391 1_554 S
C645 C650 1.405 . S
C646 C640 1.465 . S
C646 C645 1.391 1_556 S
C646 C647 1.399 1_556 S
C647 H633 0.929 1_554 S
C647 C646 1.399 1_554 S
C647 C648 1.385 . S
C648 H634 0.931 . S
C648 C647 1.385 . S
C648 C649 1.389 . S
C649 C648 1.389 . S
C649 C650 1.387 . S
C650 H635 0.930 . S
C650 C645 1.405 . S
C650 C649 1.387 . S
H651 C663 0.930 . S
H652 C665 0.930 . S
H653 C666 0.930 . S
H654 C670 0.959 . S
H655 C670 0.959 . S
H656 C670 0.961 . S
H657 C671 0.960 . S
H658 C671 0.961 . S
H659 C671 0.959 . S
H660 C674 0.929 . S
H661 C675 0.931 . S
H662 C677 0.930 1_655 S
C663 H651 0.930 . S
C663 C664 1.399 . S
C663 C668 1.399 . S
C664 C663 1.399 . S
C664 C665 1.376 . S
C665 H652 0.930 . S
C665 C664 1.376 . S
C665 C666 1.388 . S
C666 H653 0.930 . S
C666 C665 1.388 . S
C666 C667 1.390 . S
C667 C666 1.390 . S
C667 C668 1.394 . S
C667 C673 1.465 . S
C668 C663 1.399 . S
C668 C667 1.394 . S
C668 C669 1.516 . S
C669 C668 1.516 . S
C669 C670 1.502 1_455 S
C669 C671 1.561 . S
C669 C672 1.526 . S
C670 H654 0.959 . S
C670 H655 0.959 . S
C670 H656 0.961 . S
C670 C669 1.502 1_655 S
C671 H657 0.960 . S
C671 H658 0.961 . S
C671 H659 0.959 . S
C671 C669 1.561 . S
C672 C669 1.526 . S
C672 C673 1.396 . S
C672 C677 1.390 . S
C673 C667 1.465 . S
C673 C672 1.396 . S
C673 C674 1.399 . S
C674 H660 0.929 . S
C674 C673 1.399 . S
C674 C675 1.385 . S
C675 H661 0.931 . S
C675 C674 1.385 . S
C675 C676 1.389 . S
C676 C675 1.389 . S
C676 C677 1.387 . S
C677 H662 0.930 1_455 S
C677 C672 1.390 . S
C677 C676 1.387 . S
C205 C6 0.744 . S
C217 C186 0.877 . S
C232 C59 1.928 . S
C244 C160 1.863 . S
C259 C86 1.281 . S
C271 C172 1.269 . S
C286 C15 0.427 . S
C298 C184 0.408 . S
C325 C162 1.845 . S
C313 C50 1.868 . S
C352 C174 1.143 . S
C340 C95 1.160 . S
C367 C46 1.260 . S
C379 C136 1.274 . S
C394 C99 3.359 . S
C406 C150 3.332 . S
C421 C10 1.890 . S
C433 C126 1.879 . S
C460 C138 1.158 . S
C448 C55 1.159 . S
C487 C148 2.690 . S
C475 C90 2.791 . S
C502 C19 1.926 . S
C514 C124 1.877 . S
C541 C153 1.765 . S
C529 C18 1.720 . S
C556 C49 1.360 . S
C568 C129 1.457 . S
C583 C98 1.479 . S
C595 C141 1.506 . S
C622 C177 1.514 . S
C610 C58 1.512 . S
C649 C189 1.250 . S
C637 C89 1.236 . S
C664 C9 1.404 . S
C676 C165 1.422 . S
