# Generated by pormake.
# Topology pyr, (3,6)-cn, num edge types: 1
# Building blocks:
#     Node 0, Type 0, BuildingBlock: CUQRIR_clean_linker_1, # of connection points: 3
#     Node 1, Type 0, BuildingBlock: CUQRIR_clean_linker_1, # of connection points: 3
#     Node 2, Type 0, BuildingBlock: CUQRIR_clean_linker_1, # of connection points: 3
#     Node 3, Type 0, BuildingBlock: CUQRIR_clean_linker_1, # of connection points: 3
#     Node 4, Type 0, BuildingBlock: CUQRIR_clean_linker_1, # of connection points: 3
#     Node 5, Type 0, BuildingBlock: CUQRIR_clean_linker_1, # of connection points: 3
#     Node 6, Type 0, BuildingBlock: CUQRIR_clean_linker_1, # of connection points: 3
#     Node 7, Type 0, BuildingBlock: CUQRIR_clean_linker_1, # of connection points: 3
#     Node 8, Type 1, BuildingBlock: MIDCAF_clean_sbu_0, # of connection points: 6
#     Node 9, Type 1, BuildingBlock: MIDCAF_clean_sbu_0, # of connection points: 6
#     Node 10, Type 1, BuildingBlock: MIDCAF_clean_sbu_0, # of connection points: 6
#     Node 11, Type 1, BuildingBlock: MIDCAF_clean_sbu_0, # of connection points: 6
#     Edge 12, Type (0, 1), BuildingBlock: MIFKUJ_clean_linker_0, # of connection points: 2
#     Edge 13, Type (0, 1), BuildingBlock: MIFKUJ_clean_linker_0, # of connection points: 2
#     Edge 14, Type (0, 1), BuildingBlock: MIFKUJ_clean_linker_0, # of connection points: 2
#     Edge 15, Type (0, 1), BuildingBlock: MIFKUJ_clean_linker_0, # of connection points: 2
#     Edge 16, Type (0, 1), BuildingBlock: MIFKUJ_clean_linker_0, # of connection points: 2
#     Edge 17, Type (0, 1), BuildingBlock: MIFKUJ_clean_linker_0, # of connection points: 2
#     Edge 18, Type (0, 1), BuildingBlock: MIFKUJ_clean_linker_0, # of connection points: 2
#     Edge 19, Type (0, 1), BuildingBlock: MIFKUJ_clean_linker_0, # of connection points: 2
#     Edge 20, Type (0, 1), BuildingBlock: MIFKUJ_clean_linker_0, # of connection points: 2
#     Edge 21, Type (0, 1), BuildingBlock: MIFKUJ_clean_linker_0, # of connection points: 2
#     Edge 22, Type (0, 1), BuildingBlock: MIFKUJ_clean_linker_0, # of connection points: 2
#     Edge 23, Type (0, 1), BuildingBlock: MIFKUJ_clean_linker_0, # of connection points: 2
#     Edge 24, Type (0, 1), BuildingBlock: MIFKUJ_clean_linker_0, # of connection points: 2
#     Edge 25, Type (0, 1), BuildingBlock: MIFKUJ_clean_linker_0, # of connection points: 2
#     Edge 26, Type (0, 1), BuildingBlock: MIFKUJ_clean_linker_0, # of connection points: 2
#     Edge 27, Type (0, 1), BuildingBlock: MIFKUJ_clean_linker_0, # of connection points: 2
#     Edge 28, Type (0, 1), BuildingBlock: MIFKUJ_clean_linker_0, # of connection points: 2
#     Edge 29, Type (0, 1), BuildingBlock: MIFKUJ_clean_linker_0, # of connection points: 2
#     Edge 30, Type (0, 1), BuildingBlock: MIFKUJ_clean_linker_0, # of connection points: 2
#     Edge 31, Type (0, 1), BuildingBlock: MIFKUJ_clean_linker_0, # of connection points: 2
#     Edge 32, Type (0, 1), BuildingBlock: MIFKUJ_clean_linker_0, # of connection points: 2
#     Edge 33, Type (0, 1), BuildingBlock: MIFKUJ_clean_linker_0, # of connection points: 2
#     Edge 34, Type (0, 1), BuildingBlock: MIFKUJ_clean_linker_0, # of connection points: 2
#     Edge 35, Type (0, 1), BuildingBlock: MIFKUJ_clean_linker_0, # of connection points: 2
# Relax obj value: 0.101
# Max RMSD: 0.208
# Mean RMSD: 0.153
data_MOF--net-pry--node1-MIDCAF_clean_sbu_0--node2-CUQRIR_clean_linker_1--edge1-MIFKUJ_clean_linker_0
_symmetry_space_group_name_H-M    P1
_symmetry_Int_Tables_number       1
_symmetry_cell_setting            triclinic
loop_
_symmetry_equiv_pos_as_xyz
'x, y, z'
_cell_length_a     43.636977
_cell_length_b     43.494069
_cell_length_c     42.896932
_cell_angle_alpha  88.230459
_cell_angle_beta   91.904796
_cell_angle_gamma 93.783812
loop_
_atom_site_label
_atom_site_type_symbol
_atom_site_fract_x
_atom_site_fract_y
_atom_site_fract_z
_atom_type_partial_charge
C0 C 0.20883 0.26291 0.25441 0.0
N1 N 0.22642 0.23898 0.26124 0.0
N2 N 0.22099 0.28104 0.2311 0.0
C3 C 0.17942 0.26817 0.27018 0.0
C4 C 0.24673 0.2672 0.22404 0.0
N5 N 0.25016 0.24164 0.24249 0.0
C6 C 0.26679 0.27702 0.19716 0.0
H7 H 0.16034 0.25416 0.25872 0.0
H8 H 0.17422 0.2928 0.26837 0.0
H9 H 0.18073 0.26074 0.29514 0.0
H10 H 0.28496 0.29418 0.2054 0.0
H11 H 0.25325 0.28793 0.17799 0.0
H12 H 0.27801 0.25721 0.18796 0.0
C13 C 0.27719 0.7998 0.72714 0.0
N14 N 0.27761 0.82472 0.74534 0.0
N15 N 0.30071 0.78214 0.73511 0.0
C16 C 0.25542 0.79404 0.69981 0.0
C17 C 0.3158 0.79738 0.75863 0.0
N18 N 0.30201 0.82359 0.7647 0.0
C19 C 0.34439 0.78674 0.77505 0.0
H20 H 0.23225 0.80136 0.70479 0.0
H21 H 0.25376 0.76934 0.69383 0.0
H22 H 0.26419 0.80784 0.67943 0.0
H23 H 0.36477 0.79623 0.7623 0.0
H24 H 0.34447 0.76124 0.77532 0.0
H25 H 0.34627 0.79474 0.79939 0.0
C26 C 0.69263 0.29996 0.80896 0.0
N27 N 0.71206 0.29782 0.83421 0.0
N28 N 0.69902 0.32654 0.79253 0.0
C29 C 0.66519 0.27799 0.80248 0.0
C30 C 0.72273 0.34063 0.80871 0.0
N31 N 0.73046 0.32344 0.83423 0.0
C32 C 0.73851 0.37116 0.79924 0.0
H33 H 0.673 0.25719 0.79158 0.0
H34 H 0.64809 0.28846 0.78643 0.0
H35 H 0.65395 0.27057 0.82455 0.0
H36 H 0.72755 0.38989 0.8108 0.0
H37 H 0.73637 0.37522 0.7736 0.0
H38 H 0.76316 0.37207 0.80653 0.0
C39 C 0.78961 0.72739 0.2768 0.0
N40 N 0.81357 0.74879 0.27399 0.0
N41 N 0.77373 0.7321 0.30263 0.0
C42 C 0.78174 0.70195 0.25429 0.0
C43 C 0.789 0.75679 0.31564 0.0
N44 N 0.81324 0.76689 0.29841 0.0
C45 C 0.78104 0.77039 0.34592 0.0
H46 H 0.76987 0.71163 0.23331 0.0
H47 H 0.76631 0.68333 0.26445 0.0
H48 H 0.80299 0.69206 0.24676 0.0
H49 H 0.80234 0.77719 0.3595 0.0
H50 H 0.7665 0.75393 0.36021 0.0
H51 H 0.76844 0.7914 0.34083 0.0
C52 C 0.85926 0.91073 0.93208 0.0
N53 N 0.88108 0.89962 0.9145 0.0
N54 N 0.84894 0.93692 0.9188 0.0
C55 C 0.84684 0.89507 0.96126 0.0
C56 C 0.86534 0.94139 0.89262 0.0
N57 N 0.88512 0.91895 0.89018 0.0
C58 C 0.86107 0.96688 0.86873 0.0
H59 H 0.8268 0.87926 0.95478 0.0
H60 H 0.839 0.91188 0.97761 0.0
H61 H 0.86445 0.88143 0.97346 0.0
H62 H 0.88335 0.97471 0.85845 0.0
H63 H 0.85082 0.98671 0.87914 0.0
H64 H 0.84545 0.95801 0.84965 0.0
C65 C 0.66503 0.17388 0.44852 0.0
N66 N 0.66742 0.15252 0.42648 0.0
N67 N 0.6381 0.18764 0.4448 0.0
C68 C 0.68821 0.18013 0.47466 0.0
C69 C 0.62425 0.17392 0.41964 0.0
N70 N 0.64184 0.15236 0.40878 0.0
C71 C 0.59475 0.18338 0.40403 0.0
H72 H 0.67716 0.18904 0.49518 0.0
H73 H 0.706 0.1977 0.46655 0.0
H74 H 0.69971 0.15888 0.48171 0.0
H75 H 0.59236 0.20846 0.40618 0.0
H76 H 0.5751 0.17068 0.41547 0.0
H77 H 0.59363 0.17778 0.379 0.0
C78 C 0.40526 0.59938 0.14262 0.0
N79 N 0.42288 0.62612 0.14425 0.0
N80 N 0.38626 0.59955 0.11704 0.0
C81 C 0.40317 0.57519 0.16844 0.0
C82 C 0.39274 0.62756 0.10334 0.0
N83 N 0.41496 0.64367 0.11983 0.0
C84 C 0.37434 0.64082 0.07652 0.0
H85 H 0.42651 0.56971 0.17695 0.0
H86 H 0.39039 0.55378 0.16053 0.0
H87 H 0.39117 0.58431 0.18825 0.0
H88 H 0.35555 0.65347 0.08589 0.0
H89 H 0.364 0.62227 0.06156 0.0
H90 H 0.38896 0.65734 0.06233 0.0
C91 C 0.0995 0.38065 0.66205 0.0
N92 N 0.12148 0.38257 0.64033 0.0
N93 N 0.10403 0.40393 0.68236 0.0
C94 C 0.07527 0.35453 0.66499 0.0
C95 C 0.12966 0.41997 0.67217 0.0
N96 N 0.14043 0.40678 0.64694 0.0
C97 C 0.14329 0.44957 0.68562 0.0
H98 H 0.05455 0.36046 0.65098 0.0
H99 H 0.06879 0.35046 0.68963 0.0
H100 H 0.0834 0.33294 0.65601 0.0
H101 H 0.16145 0.44419 0.70329 0.0
H102 H 0.12554 0.46213 0.69694 0.0
H103 H 0.15404 0.46473 0.66719 0.0
Zn104 Zn 0.98882 0.06702 0.56234 0.0
Zn105 Zn 0.04267 0.98314 0.50494 0.0
Zn106 Zn 0.01592 0.02671 0.53211 0.0
C107 C 0.0683 0.04096 0.48245 0.0
C108 C 0.98165 0.97633 0.48625 0.0
O109 O 0.01382 0.01106 0.58243 0.0
O110 O 0.9851 0.04458 0.60308 0.0
C111 C 0.04051 0.09802 0.53854 0.0
O112 O 0.05311 0.0508 0.50499 0.0
O113 O 0.066 0.01268 0.47613 0.0
O114 O 0.00503 0.96071 0.48811 0.0
O115 O 0.982 0.00269 0.49932 0.0
O116 O 0.0203 0.10134 0.55828 0.0
O117 O 0.04175 0.07223 0.52473 0.0
O118 O 0.96826 0.02777 0.51139 0.0
O119 O 0.95225 0.06868 0.53375 0.0
C120 C 0.94796 0.04771 0.51408 0.0
O121 O 0.03722 0.99653 0.56866 0.0
O122 O 0.06411 0.96537 0.54215 0.0
C123 C 0.99942 0.0203 0.60589 0.0
C124 C 0.05653 0.97533 0.56793 0.0
Zn125 Zn 0.47043 0.07024 0.01545 0.0
Zn126 Zn 0.53459 0.99502 0.08803 0.0
Zn127 Zn 0.50262 0.03208 0.05144 0.0
C128 C 0.57571 0.02356 0.04612 0.0
C129 C 0.48973 0.95803 0.05672 0.0
O130 O 0.47949 0.0627 0.0828 0.0
O131 O 0.45432 0.09308 0.05011 0.0
C132 C 0.5321 0.08064 0.99973 0.0
O133 O 0.55094 0.0358 0.03621 0.0
O134 O 0.57523 0.00524 0.06953 0.0
O135 O 0.51179 0.95629 0.07629 0.0
O136 O 0.48272 0.98427 0.04469 0.0
O137 O 0.50582 0.08953 0.99215 0.0
O138 O 0.53499 0.05921 0.02087 0.0
O139 O 0.46781 0.00373 0.02309 0.0
O140 O 0.44268 0.03817 0.99511 0.0
C141 C 0.44686 0.01038 0.00244 0.0
O142 O 0.50147 0.04692 0.1009 0.0
O143 O 0.52684 0.01252 0.12865 0.0
C144 C 0.46142 0.08477 0.07774 0.0
C145 C 0.51225 0.03662 0.12733 0.0
Zn146 Zn 0.53018 0.57333 0.55062 0.0
Zn147 Zn 0.45522 0.49718 0.48232 0.0
Zn148 Zn 0.49279 0.53247 0.51801 0.0
C149 C 0.49733 0.45872 0.51221 0.0
C150 C 0.48353 0.54062 0.44245 0.0
O151 O 0.46444 0.55735 0.54981 0.0
O152 O 0.49637 0.59396 0.56969 0.0
C153 C 0.5441 0.51125 0.56714 0.0
O154 O 0.50764 0.48445 0.52403 0.0
O155 O 0.47403 0.45795 0.4939 0.0
O156 O 0.46483 0.51724 0.44154 0.0
O157 O 0.49616 0.54913 0.46867 0.0
O158 O 0.55043 0.53913 0.57381 0.0
O159 O 0.52367 0.50411 0.54577 0.0
O160 O 0.52039 0.56389 0.48603 0.0
O161 O 0.55151 0.59444 0.51511 0.0
C162 C 0.54215 0.58534 0.48862 0.0
O163 O 0.44507 0.53554 0.53395 0.0
O164 O 0.41627 0.50657 0.50135 0.0
C165 C 0.46964 0.58119 0.56681 0.0
C166 C 0.41856 0.52399 0.52441 0.0
Zn167 Zn 0.05143 0.57688 0.98839 0.0
Zn168 Zn 0.97468 0.51636 0.06522 0.0
Zn169 Zn 0.01239 0.54666 0.02529 0.0
C170 C 0.034 0.5017 0.08356 0.0
C171 C 0.95946 0.49412 0.00603 0.0
O172 O 0.00288 0.59661 0.02316 0.0
O173 O 0.03914 0.61889 0.99366 0.0
C174 C 0.08721 0.5472 0.0314 0.0
O175 O 0.04039 0.52123 0.06103 0.0
O176 O 0.0064 0.49502 0.09041 0.0
O177 O 0.95098 0.49125 0.03385 0.0
O178 O 0.982 0.51331 0.99855 0.0
O179 O 0.09045 0.56507 0.00791 0.0
O180 O 0.06025 0.53842 0.04104 0.0
O181 O 0.00364 0.52746 0.9781 0.0
O182 O 0.03685 0.55601 0.94992 0.0
C183 C 0.01589 0.53464 0.95169 0.0
O184 O 0.98586 0.58193 0.0476 0.0
O185 O 0.95693 0.55387 0.08059 0.0
C186 C 0.01562 0.62089 0.00957 0.0
C187 C 0.96556 0.57993 0.06891 0.0
H188 H 0.19204 0.18658 0.25175 0.0
H189 H 0.16977 0.15176 0.29223 0.0
H190 H 0.21942 0.20509 0.36304 0.0
H191 H 0.24284 0.23885 0.32206 0.0
H192 H 0.21442 0.1468 0.3822 0.0
H193 H 0.14452 0.21852 0.34168 0.0
H194 H 0.11517 0.24683 0.30135 0.0
H195 H 0.06888 0.16196 0.27192 0.0
H196 H 0.09814 0.13308 0.31194 0.0
H197 H 0.10394 0.09301 0.49841 0.0
H198 H 0.13458 0.12785 0.46339 0.0
H199 H 0.1056 0.07123 0.38565 0.0
H200 H 0.07509 0.03678 0.42033 0.0
H201 H 0.10055 0.13531 0.37399 0.0
H202 H 0.17428 0.06455 0.41633 0.0
H203 H 0.20307 0.0394 0.45934 0.0
H204 H 0.24103 0.1277 0.48906 0.0
H205 H 0.21211 0.15341 0.44644 0.0
C206 C 0.19917 0.18985 0.2759 0.0
C207 C 0.21956 0.21476 0.28396 0.0
C208 C 0.18608 0.17039 0.29907 0.0
C209 C 0.19229 0.17622 0.33082 0.0
C210 C 0.21418 0.2001 0.3388 0.0
C211 C 0.22768 0.21925 0.31548 0.0
C212 C 0.17415 0.15904 0.35538 0.0
C213 C 0.18952 0.14464 0.38057 0.0
C214 C 0.14157 0.15632 0.35359 0.0
C215 C 0.1237 0.17361 0.32965 0.0
C216 C 0.1282 0.20587 0.3265 0.0
C217 C 0.11156 0.22202 0.30372 0.0
C218 C 0.09026 0.2062 0.28401 0.0
C219 C 0.08543 0.17419 0.28717 0.0
C220 C 0.10198 0.15791 0.30994 0.0
C221 C 0.10379 0.08841 0.4738 0.0
C222 C 0.08685 0.06247 0.46205 0.0
C223 C 0.12154 0.10805 0.45388 0.0
C224 C 0.12237 0.10208 0.42189 0.0
C225 C 0.10526 0.0763 0.4102 0.0
C226 C 0.08794 0.05657 0.43009 0.0
C227 C 0.14085 0.12246 0.40019 0.0
C228 C 0.12546 0.13764 0.37562 0.0
C229 C 0.17327 0.12638 0.40299 0.0
C230 C 0.19079 0.11091 0.42843 0.0
C231 C 0.18856 0.07862 0.4322 0.0
C232 C 0.20495 0.06426 0.45647 0.0
C233 C 0.2238 0.08194 0.47698 0.0
C234 C 0.22638 0.11403 0.47319 0.0
C235 C 0.21002 0.1285 0.44897 0.0
H236 H 0.23647 0.07079 0.49576 0.0
H237 H 0.07744 0.21875 0.26635 0.0
H238 H 0.27026 0.84728 0.81045 0.0
H239 H 0.29176 0.88055 0.85246 0.0
H240 H 0.38049 0.88373 0.81082 0.0
H241 H 0.35873 0.85202 0.76822 0.0
H242 H 0.37033 0.85996 0.88182 0.0
H243 H 0.35872 0.94317 0.80353 0.0
H244 H 0.32755 0.97284 0.76587 0.0
H245 H 0.26796 0.99399 0.83884 0.0
H246 H 0.29853 0.96398 0.87684 0.0
H247 H 0.46779 0.95989 0.9757 0.0
H248 H 0.44049 0.92796 0.93634 0.0
H249 H 0.35783 0.97459 0.95023 0.0
H250 H 0.38588 0.00794 0.98771 0.0
H251 H 0.36147 0.97202 0.8936 0.0
H252 H 0.37083 0.89467 0.97281 0.0
H253 H 0.3953 0.86222 0.01283 0.0
H254 H 0.45077 0.8257 0.9437 0.0
H255 H 0.42706 0.85878 0.90315 0.0
C256 C 0.29409 0.85589 0.80992 0.0
C257 C 0.31299 0.84682 0.78644 0.0
C258 C 0.3064 0.8746 0.83396 0.0
C259 C 0.33778 0.88424 0.83486 0.0
C260 C 0.35629 0.87631 0.81066 0.0
C261 C 0.34389 0.85818 0.78644 0.0
C262 C 0.35193 0.90101 0.86188 0.0
C263 C 0.36874 0.88454 0.8844 0.0
C264 C 0.34877 0.93272 0.86568 0.0
C265 C 0.33066 0.95102 0.84292 0.0
C266 C 0.33878 0.95387 0.81147 0.0
C267 C 0.32127 0.97081 0.79008 0.0
C268 C 0.29573 0.98521 0.79993 0.0
C269 C 0.28771 0.98278 0.83123 0.0
C270 C 0.30513 0.96582 0.8527 0.0
C271 C 0.4436 0.96271 0.97084 0.0
C272 C 0.42888 0.98623 0.98483 0.0
C273 C 0.42788 0.94442 0.94828 0.0
C274 C 0.3968 0.94855 0.94009 0.0
C275 C 0.38177 0.97097 0.95562 0.0
C276 C 0.39771 0.98982 0.97737 0.0
C277 C 0.38048 0.93111 0.91411 0.0
C278 C 0.36318 0.94741 0.89154 0.0
C279 C 0.38255 0.89896 0.91071 0.0
C280 C 0.39733 0.87941 0.935 0.0
C281 C 0.38846 0.87996 0.96616 0.0
C282 C 0.40219 0.86134 0.98896 0.0
C283 C 0.42454 0.8417 0.98087 0.0
C284 C 0.43341 0.84087 0.94993 0.0
C285 C 0.41985 0.85959 0.92702 0.0
H286 H 0.435 0.82708 0.99849 0.0
H287 H 0.2822 0.99831 0.78334 0.0
H288 H 0.68892 0.30661 0.73397 0.0
H289 H 0.66014 0.3326 0.69143 0.0
H290 H 0.6396 0.4033 0.75459 0.0
H291 H 0.66804 0.37719 0.79672 0.0
H292 H 0.59019 0.38659 0.71829 0.0
H293 H 0.69703 0.41433 0.70728 0.0
H294 H 0.75161 0.40535 0.70109 0.0
H295 H 0.7299 0.36437 0.61261 0.0
H296 H 0.6751 0.37269 0.61845 0.0
H297 H 0.60134 0.51659 0.59368 0.0
H298 H 0.62612 0.47931 0.62799 0.0
H299 H 0.54812 0.41413 0.61498 0.0
H300 H 0.52244 0.4522 0.58193 0.0
H301 H 0.6456 0.42413 0.62391 0.0
H302 H 0.53624 0.37417 0.68361 0.0
H303 H 0.48368 0.38861 0.69299 0.0
H304 H 0.51467 0.4844 0.68974 0.0
H305 H 0.56747 0.4705 0.68063 0.0
C306 C 0.67791 0.32753 0.73852 0.0
C307 C 0.68068 0.34027 0.76818 0.0
C308 C 0.66163 0.34235 0.71441 0.0
C309 C 0.64796 0.36999 0.71987 0.0
C310 C 0.64992 0.382 0.7499 0.0
C311 C 0.66624 0.3673 0.77382 0.0
C312 C 0.63279 0.3874 0.6942 0.0
C313 C 0.60222 0.39457 0.69752 0.0
C314 C 0.64872 0.39831 0.66742 0.0
C315 C 0.68177 0.39348 0.66367 0.0
C316 C 0.70379 0.40303 0.68668 0.0
C317 C 0.73482 0.39815 0.68319 0.0
C318 C 0.7442 0.38412 0.65656 0.0
C319 C 0.72258 0.37508 0.63331 0.0
C320 C 0.69151 0.37984 0.63672 0.0
C321 C 0.58954 0.49423 0.59798 0.0
C322 C 0.56005 0.48719 0.58498 0.0
C323 C 0.60384 0.47285 0.61738 0.0
C324 C 0.58892 0.444 0.62425 0.0
C325 C 0.55995 0.43637 0.61024 0.0
C326 C 0.54543 0.45799 0.5911 0.0
C327 C 0.60294 0.4232 0.64791 0.0
C328 C 0.63339 0.41562 0.64438 0.0
C329 C 0.58722 0.41267 0.67496 0.0
C330 C 0.5557 0.42128 0.68103 0.0
C331 C 0.53184 0.3983 0.68494 0.0
C332 C 0.50201 0.40639 0.69021 0.0
C333 C 0.49581 0.43741 0.69183 0.0
C334 C 0.51948 0.4604 0.68835 0.0
C335 C 0.54935 0.45242 0.68311 0.0
H336 H 0.4727 0.44363 0.69588 0.0
H337 H 0.76823 0.38039 0.65388 0.0
H338 H 0.80222 0.75543 0.21223 0.0
H339 H 0.83488 0.73865 0.17167 0.0
H340 H 0.9087 0.72943 0.24014 0.0
H341 H 0.87474 0.74305 0.28104 0.0
H342 H 0.88399 0.74662 0.14244 0.0
H343 H 0.94456 0.66613 0.23089 0.0
H344 H 0.9361 0.64189 0.28298 0.0
H345 H 0.83851 0.64485 0.26806 0.0
H346 H 0.84643 0.66868 0.21575 0.0
H347 H 0.99187 0.63914 0.0756 0.0
H348 H 0.97019 0.68135 0.10298 0.0
H349 H 0.88733 0.62398 0.11782 0.0
H350 H 0.90824 0.5825 0.09008 0.0
H351 H 0.92234 0.64482 0.17265 0.0
H352 H 0.88114 0.67651 0.07425 0.0
H353 H 0.87689 0.69718 0.02046 0.0
H354 H 0.91715 0.78474 0.04948 0.0
H355 H 0.92344 0.76412 0.10328 0.0
C356 C 0.82569 0.75047 0.21837 0.0
C357 C 0.83582 0.75006 0.24979 0.0
C358 C 0.84446 0.74102 0.19516 0.0
C359 C 0.87404 0.73166 0.20289 0.0
C360 C 0.88564 0.73555 0.23365 0.0
C361 C 0.86645 0.74399 0.25704 0.0
C362 C 0.89044 0.71372 0.18018 0.0
C363 C 0.89291 0.72458 0.14905 0.0
C364 C 0.9011 0.68441 0.18851 0.0
C365 C 0.89612 0.66955 0.21966 0.0
C366 C 0.92132 0.6615 0.23873 0.0
C367 C 0.91661 0.64784 0.26827 0.0
C368 C 0.88679 0.64195 0.27887 0.0
C369 C 0.8616 0.64952 0.25987 0.0
C370 C 0.86618 0.66309 0.23029 0.0
C371 C 0.96862 0.63603 0.08372 0.0
C372 C 0.95175 0.60749 0.08064 0.0
C373 C 0.9563 0.66012 0.09941 0.0
C374 C 0.92711 0.65581 0.11238 0.0
C375 C 0.90983 0.62786 0.10791 0.0
C376 C 0.92191 0.6041 0.09217 0.0
C377 C 0.9161 0.67769 0.13479 0.0
C378 C 0.91451 0.66736 0.16604 0.0
C379 C 0.90501 0.70674 0.12597 0.0
C380 C 0.90358 0.71836 0.09295 0.0
C381 C 0.89016 0.69982 0.06916 0.0
C382 C 0.88716 0.71163 0.0386 0.0
C383 C 0.89684 0.74221 0.03152 0.0
C384 C 0.90964 0.76103 0.05499 0.0
C385 C 0.9132 0.74919 0.08549 0.0
H386 H 0.89432 0.75135 0.00789 0.0
H387 H 0.88321 0.63145 0.30177 0.0
H388 H 0.31129 0.25139 0.25086 0.0
H389 H 0.3504 0.21868 0.23248 0.0
H390 H 0.27913 0.1498 0.20683 0.0
H391 H 0.24021 0.18296 0.22442 0.0
H392 H 0.37053 0.15905 0.24026 0.0
H393 H 0.29247 0.12829 0.13436 0.0
H394 H 0.2477 0.14741 0.10484 0.0
H395 H 0.27505 0.23999 0.13082 0.0
H396 H 0.32005 0.22142 0.16035 0.0
H397 H 0.44528 0.06002 0.13527 0.0
H398 H 0.41211 0.08256 0.17252 0.0
H399 H 0.41148 0.16573 0.11508 0.0
H400 H 0.44385 0.14326 0.07787 0.0
H401 H 0.3551 0.14521 0.12632 0.0
H402 H 0.44934 0.16185 0.1873 0.0
H403 H 0.49606 0.1453 0.21489 0.0
H404 H 0.44107 0.0866 0.27643 0.0
H405 H 0.39391 0.10244 0.24876 0.0
C406 C 0.30425 0.22878 0.24227 0.0
C407 C 0.27289 0.21948 0.23925 0.0
C408 C 0.32652 0.2101 0.23182 0.0
C409 C 0.31772 0.1819 0.21798 0.0
C410 C 0.28649 0.17152 0.2173 0.0
C411 C 0.26425 0.19027 0.22766 0.0
C412 C 0.34037 0.16587 0.2002 0.0
C413 C 0.3671 0.15576 0.21539 0.0
C414 C 0.33618 0.16193 0.16767 0.0
C415 C 0.30938 0.17341 0.1498 0.0
C416 C 0.28892 0.15272 0.13372 0.0
C417 C 0.2635 0.16346 0.11703 0.0
C418 C 0.25846 0.19488 0.11609 0.0
C419 C 0.27889 0.21564 0.13174 0.0
C420 C 0.30432 0.20502 0.14848 0.0
C421 C 0.43869 0.0834 0.1311 0.0
C422 C 0.44701 0.09981 0.10356 0.0
C423 C 0.41963 0.09623 0.15233 0.0
C424 C 0.40899 0.12579 0.14647 0.0
C425 C 0.419 0.14277 0.11996 0.0
C426 C 0.43765 0.12993 0.09874 0.0
C427 C 0.38559 0.1385 0.16618 0.0
C428 C 0.35852 0.14801 0.15127 0.0
C429 C 0.38984 0.14221 0.19876 0.0
C430 C 0.41811 0.13311 0.21577 0.0
C431 C 0.44721 0.14525 0.20658 0.0
C432 C 0.47379 0.136 0.22226 0.0
C433 C 0.47157 0.11486 0.24741 0.0
C434 C 0.44275 0.10296 0.25694 0.0
C435 C 0.41608 0.11208 0.24126 0.0
H436 H 0.49214 0.10773 0.25959 0.0
H437 H 0.23877 0.20315 0.10317 0.0
H438 H 0.22146 0.82862 0.76789 0.0
H439 H 0.18208 0.86189 0.74623 0.0
H440 H 0.24956 0.90873 0.68729 0.0
H441 H 0.28871 0.87529 0.70906 0.0
H442 H 0.17247 0.92644 0.73557 0.0
H443 H 0.22307 0.90949 0.61884 0.0
H444 H 0.25187 0.87281 0.59032 0.0
H445 H 0.20984 0.79733 0.64389 0.0
H446 H 0.18151 0.83369 0.67326 0.0
H447 H 0.08685 0.00855 0.61371 0.0
H448 H 0.12336 0.98886 0.65308 0.0
H449 H 0.09683 0.89584 0.62594 0.0
H450 H 0.06208 0.91571 0.58549 0.0
H451 H 0.15464 0.90421 0.6235 0.0
H452 H 0.08104 0.93194 0.69822 0.0
H453 H 0.04989 0.96875 0.72353 0.0
H454 H 0.1317 0.0204 0.75458 0.0
H455 H 0.16345 0.985 0.72813 0.0
C456 C 0.22801 0.84704 0.75139 0.0
C457 C 0.25803 0.84988 0.74039 0.0
C458 C 0.20556 0.86589 0.73888 0.0
C459 C 0.21277 0.8876 0.7149 0.0
C460 C 0.24342 0.89206 0.70569 0.0
C461 C 0.26584 0.87326 0.71829 0.0
C462 C 0.18774 0.90221 0.69657 0.0
C463 C 0.16848 0.92177 0.71103 0.0
C464 C 0.18238 0.89595 0.66468 0.0
C465 C 0.20047 0.87423 0.64831 0.0
C466 C 0.22023 0.88507 0.62464 0.0
C467 C 0.23651 0.86437 0.60843 0.0
C468 C 0.2328 0.83277 0.6154 0.0
C469 C 0.21285 0.82182 0.63866 0.0
C470 C 0.1969 0.84247 0.65529 0.0
C471 C 0.08831 0.98388 0.61688 0.0
C472 C 0.07181 0.96357 0.59664 0.0
C473 C 0.10917 0.9726 0.63938 0.0
C474 C 0.11309 0.94077 0.64254 0.0
C475 C 0.09459 0.92049 0.62385 0.0
C476 C 0.07454 0.93178 0.60088 0.0
C477 C 0.13858 0.92842 0.66232 0.0
C478 C 0.15828 0.90924 0.64802 0.0
C479 C 0.14397 0.93512 0.69432 0.0
C480 C 0.12469 0.95588 0.71089 0.0
C481 C 0.09245 0.95126 0.7102 0.0
C482 C 0.07465 0.97187 0.72478 0.0
C483 C 0.08877 0.9967 0.74081 0.0
C484 C 0.12077 1.00112 0.74217 0.0
C485 C 0.13869 0.98088 0.72727 0.0
H486 H 0.07491 0.01254 0.75212 0.0
H487 H 0.24529 0.81675 0.60272 0.0
H488 H 0.73093 0.37359 0.86887 0.0
H489 H 0.77525 0.39657 0.89841 0.0
H490 H 0.82582 0.31706 0.88187 0.0
H491 H 0.78135 0.29436 0.85144 0.0
H492 H 0.82915 0.35083 0.94895 0.0
H493 H 0.84711 0.36307 0.83728 0.0
H494 H 0.8299 0.37532 0.78322 0.0
H495 H 0.80818 0.46546 0.81007 0.0
H496 H 0.825 0.45359 0.86438 0.0
H497 H 0.96513 0.43343 0.9983 0.0
H498 H 0.93137 0.39857 0.9667 0.0
H499 H 0.88126 0.47584 0.93271 0.0
H500 H 0.91632 0.5108 0.96296 0.0
H501 H 0.88152 0.43725 0.88879 0.0
H502 H 0.85906 0.4276 0.99795 0.0
H503 H 0.87058 0.41796 0.05396 0.0
H504 H 0.89464 0.32636 0.03502 0.0
H505 H 0.88362 0.33562 0.97882 0.0
C506 C 0.75129 0.36079 0.87226 0.0
C507 C 0.75313 0.33252 0.85779 0.0
C508 C 0.7765 0.37386 0.88902 0.0
C509 C 0.8038 0.35863 0.8919 0.0
C510 C 0.80486 0.3291 0.87978 0.0
C511 C 0.77958 0.31612 0.86264 0.0
C512 C 0.83176 0.37532 0.90475 0.0
C513 C 0.8412 0.36924 0.93568 0.0
C514 C 0.84659 0.39994 0.88762 0.0
C515 C 0.83711 0.40737 0.85488 0.0
C516 C 0.83851 0.38543 0.83167 0.0
C517 C 0.82891 0.39233 0.80098 0.0
C518 C 0.81792 0.42113 0.79322 0.0
C519 C 0.81669 0.44316 0.81611 0.0
C520 C 0.82633 0.43639 0.84683 0.0
C521 C 0.94739 0.4429 0.98333 0.0
C522 C 0.94319 0.4746 0.98275 0.0
C523 C 0.92793 0.42302 0.96556 0.0
C524 C 0.90315 0.4344 0.94799 0.0
C525 C 0.90009 0.46643 0.94615 0.0
C526 C 0.92006 0.48641 0.96336 0.0
C527 C 0.87921 0.41299 0.93335 0.0
C528 C 0.8702 0.41838 0.90204 0.0
C529 C 0.86438 0.38807 0.95042 0.0
C530 C 0.87087 0.38242 0.98418 0.0
C531 C 0.867 0.40548 0.00573 0.0
C532 C 0.87342 0.40007 0.03749 0.0
C533 C 0.88343 0.3716 0.04803 0.0
C534 C 0.88695 0.34843 0.02682 0.0
C535 C 0.88061 0.35373 0.99501 0.0
H536 H 0.88838 0.36746 0.07263 0.0
H537 H 0.81037 0.42639 0.76948 0.0
H538 H 0.71842 0.7539 0.30986 0.0
H539 H 0.67409 0.72685 0.33496 0.0
H540 H 0.72485 0.64525 0.34707 0.0
H541 H 0.76927 0.67262 0.3223 0.0
H542 H 0.66136 0.63336 0.32851 0.0
H543 H 0.72431 0.68934 0.40508 0.0
H544 H 0.75229 0.73612 0.42513 0.0
H545 H 0.66799 0.78171 0.42561 0.0
H546 H 0.63957 0.73536 0.40496 0.0
H547 H 0.57833 0.55534 0.4514 0.0
H548 H 0.61398 0.57864 0.41329 0.0
H549 H 0.57705 0.66716 0.42528 0.0
H550 H 0.54353 0.6441 0.46552 0.0
H551 H 0.63311 0.67598 0.42874 0.0
H552 H 0.56897 0.61864 0.35484 0.0
H553 H 0.54173 0.57353 0.3303 0.0
H554 H 0.62694 0.53083 0.32341 0.0
H555 H 0.65474 0.57568 0.34756 0.0
C556 C 0.71973 0.73005 0.31751 0.0
C557 C 0.74687 0.7151 0.31409 0.0
C558 C 0.69457 0.71465 0.33177 0.0
C559 C 0.69627 0.68409 0.34291 0.0
C560 C 0.72302 0.66875 0.33841 0.0
C561 C 0.74828 0.68427 0.32433 0.0
C562 C 0.67119 0.66908 0.36155 0.0
C563 C 0.65516 0.6424 0.35057 0.0
C564 C 0.66293 0.68139 0.38994 0.0
C565 C 0.67985 0.70897 0.4032 0.0
C566 C 0.71176 0.7094 0.40928 0.0
C567 C 0.7277 0.73583 0.42076 0.0
C568 C 0.71194 0.76188 0.42658 0.0
C569 C 0.68018 0.76152 0.42105 0.0
C570 C 0.66413 0.73517 0.40947 0.0
C571 C 0.5775 0.57963 0.44527 0.0
C572 C 0.55825 0.59801 0.46107 0.0
C573 C 0.59774 0.59298 0.42331 0.0
C574 C 0.59822 0.62478 0.41592 0.0
C575 C 0.57745 0.64268 0.43057 0.0
C576 C 0.5581 0.62953 0.45337 0.0
C577 C 0.62231 0.64004 0.39567 0.0
C578 C 0.63862 0.66684 0.40651 0.0
C579 C 0.63067 0.62779 0.36706 0.0
C580 C 0.61387 0.6005 0.35313 0.0
C581 C 0.58183 0.59957 0.34818 0.0
C582 C 0.5663 0.57407 0.33436 0.0
C583 C 0.58253 0.54931 0.3255 0.0
C584 C 0.61437 0.55002 0.33031 0.0
C585 C 0.63004 0.57552 0.34395 0.0
H586 H 0.57042 0.52961 0.31482 0.0
H587 H 0.72432 0.78232 0.43548 0.0
H588 H 0.16452 0.28031 0.20396 0.0
H589 H 0.14065 0.32305 0.17632 0.0
H590 H 0.22319 0.38148 0.19216 0.0
H591 H 0.24676 0.33855 0.22077 0.0
H592 H 0.173 0.41226 0.20229 0.0
H593 H 0.20655 0.35419 0.12035 0.0
H594 H 0.21453 0.30784 0.09076 0.0
H595 H 0.117 0.29151 0.07674 0.0
H596 H 0.10838 0.33747 0.10671 0.0
H597 H 0.09156 0.52146 0.10565 0.0
H598 H 0.13251 0.4892 0.12581 0.0
H599 H 0.06932 0.40877 0.11941 0.0
H600 H 0.02988 0.44059 0.09682 0.0
H601 H 0.12196 0.39556 0.0986 0.0
H602 H 0.09095 0.44909 0.19118 0.0
H603 H 0.08475 0.49617 0.22041 0.0
H604 H 0.18069 0.52265 0.21166 0.0
H605 H 0.18741 0.47581 0.18216 0.0
C606 C 0.17739 0.30236 0.20172 0.0
C607 C 0.20731 0.30633 0.21458 0.0
C608 C 0.16393 0.32669 0.18567 0.0
C609 C 0.18025 0.35544 0.18175 0.0
C610 C 0.21018 0.35952 0.19477 0.0
C611 C 0.22367 0.33507 0.21093 0.0
C612 C 0.16552 0.38102 0.16435 0.0
C613 C 0.16233 0.40884 0.17935 0.0
C614 C 0.15181 0.3768 0.13429 0.0
C615 C 0.15682 0.34924 0.11595 0.0
C616 C 0.18678 0.34062 0.11113 0.0
C617 C 0.19142 0.31441 0.09427 0.0
C618 C 0.16629 0.29672 0.08191 0.0
C619 C 0.13645 0.30524 0.08633 0.0
C620 C 0.13168 0.3314 0.10322 0.0
C621 C 0.08705 0.4968 0.1076 0.0
C622 C 0.05811 0.48341 0.0986 0.0
C623 C 0.11011 0.47841 0.11981 0.0
C624 C 0.10411 0.44637 0.12418 0.0
C625 C 0.07476 0.43329 0.116 0.0
C626 C 0.05208 0.45155 0.10338 0.0
C627 C 0.12775 0.42593 0.13738 0.0
C628 C 0.13297 0.39916 0.12136 0.0
C629 C 0.14355 0.43129 0.16629 0.0
C630 C 0.1396 0.45914 0.18432 0.0
C631 C 0.11068 0.46503 0.19542 0.0
C632 C 0.10709 0.49165 0.21203 0.0
C633 C 0.13231 0.51241 0.21782 0.0
C634 C 0.1612 0.50655 0.20711 0.0
C635 C 0.16492 0.47997 0.1905 0.0
H636 H 0.12948 0.53302 0.23065 0.0
H637 H 0.16993 0.27644 0.06887 0.0
H638 H 0.70118 0.30815 0.89434 0.0
H639 H 0.68315 0.26921 0.93332 0.0
H640 H 0.69502 0.19763 0.86807 0.0
H641 H 0.71413 0.23657 0.82986 0.0
H642 H 0.63224 0.23741 0.92586 0.0
H643 H 0.69831 0.12819 0.90246 0.0
H644 H 0.75129 0.11552 0.89318 0.0
H645 H 0.78631 0.19692 0.93991 0.0
H646 H 0.73345 0.21014 0.94967 0.0
H647 H 0.53537 0.10726 0.94185 0.0
H648 H 0.57674 0.14194 0.92154 0.0
H649 H 0.63127 0.12678 0.00563 0.0
H650 H 0.58963 0.09207 0.02627 0.0
H651 H 0.66677 0.13285 0.95134 0.0
H652 H 0.59333 0.18767 0.00283 0.0
H653 H 0.54142 0.20154 0.01564 0.0
H654 H 0.52514 0.23212 0.92076 0.0
H655 H 0.57679 0.21797 0.90725 0.0
C656 C 0.70122 0.28398 0.88902 0.0
C657 C 0.70897 0.27517 0.85927 0.0
C658 C 0.69065 0.26175 0.91111 0.0
C659 C 0.68763 0.23038 0.90372 0.0
C660 C 0.69756 0.22151 0.87469 0.0
C661 C 0.7083 0.24372 0.85275 0.0
C662 C 0.66976 0.20771 0.92387 0.0
C663 C 0.64009 0.21474 0.93174 0.0
C664 C 0.67996 0.17818 0.93212 0.0
C665 C 0.71185 0.17023 0.92665 0.0
C666 C 0.71728 0.14332 0.91094 0.0
C667 C 0.74733 0.13604 0.90556 0.0
C668 C 0.77219 0.15533 0.91597 0.0
C669 C 0.76704 0.18201 0.93179 0.0
C670 C 0.73702 0.18947 0.93717 0.0
C671 C 0.5564 0.11083 0.95578 0.0
C672 C 0.55929 0.0969 0.98561 0.0
C673 C 0.58001 0.13065 0.94417 0.0
C674 C 0.60686 0.1373 0.96229 0.0
C675 C 0.61072 0.12194 0.99129 0.0
C676 C 0.587 0.10197 0.00295 0.0
C677 C 0.62919 0.16243 0.95191 0.0
C678 C 0.65942 0.1558 0.94589 0.0
C679 C 0.61984 0.19264 0.94593 0.0
C680 C 0.58888 0.20159 0.954 0.0
C681 C 0.57861 0.19718 0.98465 0.0
C682 C 0.54924 0.2051 0.99204 0.0
C683 C 0.52998 0.21766 0.96902 0.0
C684 C 0.54009 0.22239 0.93857 0.0
C685 C 0.56942 0.21445 0.93104 0.0
H686 H 0.50725 0.22378 0.97479 0.0
H687 H 0.79543 0.14959 0.91176 0.0
H688 H 0.86819 0.7672 0.32849 0.0
H689 H 0.89453 0.81156 0.35421 0.0
H690 H 0.82658 0.87025 0.31465 0.0
H691 H 0.80099 0.82584 0.28799 0.0
H692 H 0.91809 0.8743 0.33407 0.0
H693 H 0.80471 0.9087 0.37551 0.0
H694 H 0.75209 0.88718 0.38586 0.0
H695 H 0.7871 0.79983 0.41228 0.0
H696 H 0.83985 0.82073 0.40149 0.0
H697 H 0.95621 1.00155 0.43336 0.0
H698 H 0.92243 0.97373 0.39501 0.0
H699 H 0.91458 0.89505 0.4586 0.0
H700 H 0.94898 0.92233 0.49625 0.0
H701 H 0.85818 0.90767 0.42202 0.0
H702 H 0.96833 0.89469 0.41233 0.0
H703 H 0.02168 0.91536 0.40492 0.0
H704 H 0.99458 0.95811 0.31762 0.0
H705 H 0.94093 0.93804 0.32481 0.0
C706 C 0.86013 0.78992 0.32374 0.0
C707 C 0.83339 0.79347 0.30527 0.0
C708 C 0.87481 0.81516 0.33884 0.0
C709 C 0.86246 0.84418 0.33639 0.0
C710 C 0.83656 0.8481 0.31673 0.0
C711 C 0.82221 0.82292 0.30124 0.0
C712 C 0.87479 0.86921 0.35695 0.0
C713 C 0.90483 0.88195 0.35298 0.0
C714 C 0.85759 0.87918 0.38171 0.0
C715 C 0.82604 0.86618 0.38748 0.0
C716 C 0.8011 0.88487 0.38339 0.0
C717 C 0.77129 0.87276 0.38924 0.0
C718 C 0.76625 0.84211 0.39957 0.0
C719 C 0.79103 0.82351 0.40408 0.0
C720 C 0.82085 0.8354 0.3979 0.0
C721 C 0.94631 0.97875 0.43945 0.0
C722 C 0.95492 0.96402 0.46768 0.0
C723 C 0.92721 0.96285 0.41755 0.0
C724 C 0.91618 0.93227 0.42395 0.0
C725 C 0.92272 0.91865 0.45327 0.0
C726 C 0.9423 0.93422 0.47477 0.0
C727 C 0.90145 0.91282 0.39911 0.0
C728 C 0.87108 0.90085 0.40247 0.0
C729 C 0.91837 0.90359 0.37379 0.0
C730 C 0.95063 0.9152 0.36927 0.0
C731 C 0.97372 0.9087 0.39168 0.0
C732 C 0.00401 0.92027 0.38751 0.0
C733 C 0.0115 0.93812 0.36086 0.0
C734 C 0.98873 0.94434 0.33828 0.0
C735 C 0.95839 0.93287 0.34239 0.0
H736 H 0.03496 0.94706 0.35766 0.0
H737 H 0.74317 0.83281 0.40415 0.0
H738 H 0.29818 0.72177 0.75161 0.0
H739 H 0.31789 0.67987 0.72222 0.0
H740 H 0.34749 0.74593 0.65038 0.0
H741 H 0.32699 0.78732 0.67952 0.0
H742 H 0.3241 0.69491 0.62445 0.0
H743 H 0.39677 0.71907 0.70933 0.0
H744 H 0.41258 0.72522 0.76463 0.0
H745 H 0.38586 0.62995 0.78409 0.0
H746 H 0.36943 0.62337 0.72896 0.0
H747 H 0.45438 0.63983 0.55832 0.0
H748 H 0.41647 0.6664 0.58629 0.0
H749 H 0.39142 0.58214 0.6377 0.0
H750 H 0.42969 0.55549 0.60953 0.0
H751 H 0.40407 0.6329 0.67547 0.0
H752 H 0.34364 0.60781 0.58533 0.0
H753 H 0.3301 0.60344 0.52952 0.0
H754 H 0.33667 0.70203 0.51805 0.0
H755 H 0.35067 0.70709 0.57386 0.0
C756 C 0.30879 0.72701 0.72945 0.0
C757 C 0.31144 0.75748 0.71772 0.0
C758 C 0.32006 0.70324 0.7127 0.0
C759 C 0.33454 0.70974 0.68419 0.0
C760 C 0.33639 0.74024 0.67222 0.0
C761 C 0.32491 0.76388 0.68884 0.0
C762 C 0.34914 0.68533 0.66736 0.0
C763 C 0.34171 0.68147 0.63553 0.0
C764 C 0.37139 0.66697 0.68207 0.0
C765 C 0.38151 0.67083 0.71513 0.0
C766 C 0.39406 0.69949 0.72546 0.0
C767 C 0.40316 0.70305 0.75676 0.0
C768 C 0.40014 0.67801 0.77788 0.0
C769 C 0.38811 0.64934 0.76772 0.0
C770 C 0.37889 0.64568 0.73645 0.0
C771 C 0.44034 0.6269 0.57519 0.0
C772 C 0.44436 0.59556 0.58145 0.0
C773 C 0.41868 0.64202 0.59109 0.0
C774 C 0.40086 0.62618 0.61383 0.0
C775 C 0.40469 0.5947 0.62 0.0
C776 C 0.42622 0.57943 0.60373 0.0
C777 C 0.3799 0.64344 0.63229 0.0
C778 C 0.38607 0.64591 0.66445 0.0
C779 C 0.3568 0.66079 0.61774 0.0
C780 C 0.34822 0.65784 0.58402 0.0
C781 C 0.34229 0.62861 0.57103 0.0
C782 C 0.33454 0.62599 0.53931 0.0
C783 C 0.33251 0.65243 0.52024 0.0
C784 C 0.33821 0.68156 0.53287 0.0
C785 C 0.346 0.68431 0.56459 0.0
H786 H 0.32652 0.65036 0.49567 0.0
H787 H 0.40721 0.68081 0.80211 0.0
H788 H 0.86823 0.88636 0.83974 0.0
H789 H 0.89392 0.88943 0.78944 0.0
H790 H 0.96782 0.9473 0.83026 0.0
H791 H 0.94193 0.94395 0.88037 0.0
H792 H 0.90208 0.94234 0.75745 0.0
H793 H 0.03368 0.94241 0.78731 0.0
H794 H 0.06857 0.91593 0.82393 0.0
H795 H 1.00152 0.83967 0.83328 0.0
H796 H 0.96644 0.86536 0.79623 0.0
H797 H 0.98684 0.04154 0.6625 0.0
H798 H 0.97367 0.01151 0.70953 0.0
H799 H 0.99387 0.92811 0.66484 0.0
H800 H 0.00694 0.95824 0.61703 0.0
H801 H 0.01102 0.93127 0.73292 0.0
H802 H 0.92499 0.93831 0.6625 0.0
H803 H 0.89047 0.96447 0.62518 0.0
H804 H 0.86615 0.02432 0.69687 0.0
H805 H 0.90095 0.99887 0.7345 0.0
C806 C 0.89052 0.89869 0.83802 0.0
C807 C 0.90348 0.9146 0.86367 0.0
C808 C 0.90508 0.90065 0.80937 0.0
C809 C 0.9329 0.91852 0.80601 0.0
C810 C 0.94669 0.93296 0.83231 0.0
C811 C 0.93202 0.93106 0.8609 0.0
C812 C 0.94518 0.92571 0.77444 0.0
C813 C 0.92588 0.93969 0.75214 0.0
C814 C 0.97613 0.92189 0.76713 0.0
C815 C 0.99726 0.906 0.78915 0.0
C816 C 0.02641 0.91992 0.79702 0.0
C817 C 0.04624 0.90504 0.81788 0.0
C818 C 0.03723 0.87619 0.831 0.0
C819 C 0.00842 0.86208 0.82319 0.0
C820 C 0.98854 0.87681 0.80228 0.0
C821 C 0.98906 0.01687 0.66271 0.0
C822 C 0.99762 1.00227 0.63583 0.0
C823 C 0.98156 0.99974 0.68969 0.0
C824 C 0.98229 0.96755 0.69051 0.0
C825 C 0.99309 0.95295 0.66463 0.0
C826 C 1.00064 0.97021 0.63738 0.0
C827 C 0.96848 0.94971 0.71724 0.0
C828 C 0.9873 0.93375 0.73842 0.0
C829 C 0.93709 0.95166 0.72369 0.0
C830 C 0.91573 0.96677 0.70128 0.0
C831 C 0.91244 0.95719 0.67026 0.0
C832 C 0.89281 0.97187 0.64905 0.0
C833 C 0.87615 0.99607 0.65863 0.0
C834 C 0.87906 0.00558 0.68947 0.0
C835 C 0.89871 0.991 0.71077 0.0
H836 H 0.86097 0.00742 0.64217 0.0
H837 H 0.0526 0.86473 0.84717 0.0
H838 H 0.66337 0.16637 0.35189 0.0
H839 H 0.64014 0.14753 0.30238 0.0
H840 H 0.57969 0.08343 0.3537 0.0
H841 H 0.60289 0.10262 0.40295 0.0
H842 H 0.60144 0.05876 0.29936 0.0
H843 H 0.55307 0.15082 0.32971 0.0
H844 H 0.55303 0.20532 0.3441 0.0
H845 H 0.59634 0.23349 0.25849 0.0
H846 H 0.59655 0.17915 0.24357 0.0
H847 H 0.49311 0.01852 0.18501 0.0
H848 H 0.51251 0.04106 0.23396 0.0
H849 H 0.55772 0.11665 0.18214 0.0
H850 H 0.53637 0.09517 0.13336 0.0
H851 H 0.54666 0.13633 0.23566 0.0
H852 H 0.59368 0.04774 0.20288 0.0
H853 H 0.5961 0.99432 0.1859 0.0
H854 H 0.5606 0.96004 0.27337 0.0
H855 H 0.55752 0.0133 0.2907 0.0
C856 C 0.64599 0.14742 0.35231 0.0
C857 C 0.63516 0.13542 0.3809 0.0
C858 C 0.63242 0.137 0.3242 0.0
C859 C 0.60785 0.1144 0.32439 0.0
C860 C 0.59857 0.10089 0.35299 0.0
C861 C 0.61195 0.11154 0.38104 0.0
C862 C 0.59043 0.10619 0.29513 0.0
C863 C 0.58907 0.07558 0.28565 0.0
C864 C 0.57514 0.12837 0.27666 0.0
C865 C 0.57511 0.16096 0.2857 0.0
C866 C 0.56274 0.16865 0.31406 0.0
C867 C 0.56261 0.19951 0.32226 0.0
C868 C 0.57483 0.22284 0.3023 0.0
C869 C 0.58697 0.21539 0.27397 0.0
C870 C 0.58701 0.18459 0.26559 0.0
C871 C 0.50592 0.04073 0.18427 0.0
C872 C 0.51333 0.05514 0.15554 0.0
C873 C 0.5175 0.05334 0.21218 0.0
C874 C 0.5379 0.07976 0.21172 0.0
C875 C 0.5425 0.09596 0.18319 0.0
C876 C 0.53007 0.08382 0.15529 0.0
C877 C 0.55671 0.08854 0.24018 0.0
C878 C 0.55869 0.11931 0.24939 0.0
C879 C 0.573 0.06658 0.25814 0.0
C880 C 0.5751 0.03451 0.24796 0.0
C881 C 0.58623 0.02881 0.21842 0.0
C882 C 0.58772 0.99856 0.20874 0.0
C883 C 0.57844 0.9738 0.22852 0.0
C884 C 0.56773 0.97924 0.25806 0.0
C885 C 0.56612 0.00945 0.26783 0.0
H886 H 0.57961 0.9504 0.22098 0.0
H887 H 0.57483 0.24671 0.30871 0.0
H888 H 0.40347 0.66397 0.18644 0.0
H889 H 0.42381 0.66906 0.23995 0.0
H890 H 0.49785 0.61267 0.21907 0.0
H891 H 0.4779 0.60882 0.16512 0.0
H892 H 0.42141 0.6191 0.27424 0.0
H893 H 0.55567 0.61918 0.27596 0.0
H894 H 0.59927 0.64544 0.24875 0.0
H895 H 0.54405 0.72073 0.22246 0.0
H896 H 0.50025 0.69527 0.25007 0.0
H897 H 0.47987 0.51978 0.38355 0.0
H898 H 0.47776 0.55055 0.33514 0.0
H899 H 0.496 0.63371 0.3866 0.0
H900 H 0.49684 0.60294 0.43559 0.0
H901 H 0.52595 0.63023 0.32309 0.0
H902 H 0.42887 0.62362 0.3725 0.0
H903 H 0.38619 0.59678 0.4008 0.0
H904 H 0.36768 0.53626 0.32426 0.0
H905 H 0.41062 0.56239 0.29573 0.0
C906 C 0.42511 0.65437 0.19285 0.0
C907 C 0.43953 0.63648 0.17179 0.0
C908 C 0.43656 0.65694 0.22349 0.0
C909 C 0.46236 0.64124 0.23362 0.0
C910 C 0.47826 0.62546 0.21177 0.0
C911 C 0.46689 0.62317 0.18101 0.0
C912 C 0.46851 0.6357 0.2675 0.0
C913 C 0.44427 0.62206 0.28492 0.0
C914 C 0.49826 0.6396 0.28167 0.0
C915 C 0.52452 0.65514 0.26494 0.0
C916 C 0.55282 0.64141 0.26454 0.0
C917 C 0.57759 0.65616 0.24901 0.0
C918 C 0.5744 0.68469 0.2338 0.0
C919 C 0.54645 0.69857 0.23415 0.0
C920 C 0.52161 0.68396 0.24971 0.0
C921 C 0.48404 0.54457 0.38458 0.0
C922 C 0.48871 0.55897 0.41334 0.0
C923 C 0.48288 0.56209 0.35691 0.0
C924 C 0.4865 0.59434 0.35742 0.0
C925 C 0.49335 0.60881 0.38581 0.0
C926 C 0.49413 0.5912 0.41371 0.0
C927 C 0.47934 0.6123 0.3286 0.0
C928 C 0.50318 0.62801 0.3123 0.0
C929 C 0.4493 0.61034 0.31524 0.0
C930 C 0.42307 0.59488 0.33206 0.0
C931 C 0.41583 0.60446 0.3618 0.0
C932 C 0.39158 0.58938 0.37787 0.0
C933 C 0.37426 0.56481 0.36435 0.0
C934 C 0.38112 0.55531 0.3347 0.0
C935 C 0.40539 0.57027 0.31855 0.0
H936 H 0.3555 0.55316 0.37684 0.0
H937 H 0.59361 0.69607 0.22178 0.0
H938 H 0.04221 0.40504 0.68585 0.0
H939 H 0.01339 0.41667 0.73168 0.0
H940 H 0.09873 0.42966 0.78507 0.0
H941 H 0.12687 0.41492 0.74034 0.0
H942 H 0.0606 0.40631 0.82168 0.0
H943 H 0.05633 0.49117 0.74582 0.0
H944 H 0.04345 0.51566 0.69483 0.0
H945 H 0.94809 0.48783 0.70602 0.0
H946 H 0.9605 0.46288 0.75696 0.0
H947 H 0.02134 0.5553 0.89194 0.0
H948 H 0.02178 0.52456 0.84582 0.0
H949 H 0.99214 0.4433 0.90001 0.0
H950 H 0.99467 0.4739 0.94711 0.0
H951 H 0.98996 0.49091 0.80957 0.0
H952 H 0.02586 0.38204 0.87491 0.0
H953 H 0.04741 0.36564 0.92628 0.0
H954 H 0.09449 0.45484 0.93621 0.0
H955 H 0.07344 0.4716 0.8848 0.0
C956 C 0.0546 0.40971 0.70764 0.0
C957 C 0.08679 0.40955 0.70949 0.0
C958 C 0.03819 0.41676 0.73373 0.0
C959 C 0.05382 0.42483 0.76183 0.0
C960 C 0.08595 0.42364 0.7638 0.0
C961 C 0.10216 0.41571 0.73808 0.0
C962 C 0.03744 0.43607 0.78881 0.0
C963 C 0.04494 0.42464 0.81891 0.0
C964 C 0.01685 0.45994 0.78553 0.0
C965 C 0.00938 0.47482 0.75493 0.0
C966 C 0.03265 0.49011 0.73728 0.0
C967 C 0.02543 0.50409 0.70842 0.0
C968 C 0.99498 0.5032 0.69714 0.0
C969 C 0.97167 0.48841 0.71475 0.0
C970 C 0.97878 0.47435 0.7436 0.0
C971 C 0.01441 0.53096 0.89401 0.0
C972 C 0.00803 0.517 0.92326 0.0
C973 C 0.0144 0.51336 0.86746 0.0
C974 C 0.00765 0.48136 0.86936 0.0
C975 C 0.99811 0.46783 0.89798 0.0
C976 C 0.99888 0.48544 0.92487 0.0
C977 C 0.01472 0.4625 0.84238 0.0
C978 C 0.00508 0.47211 0.81226 0.0
C979 C 0.03468 0.43811 0.84563 0.0
C980 C 0.04779 0.42813 0.87629 0.0
C981 C 0.04087 0.39808 0.88807 0.0
C982 C 0.05298 0.38874 0.91717 0.0
C983 C 0.07221 0.40922 0.93455 0.0
C984 C 0.07952 0.43903 0.92279 0.0
C985 C 0.06751 0.44846 0.89368 0.0
H986 H 0.08151 0.40197 0.95709 0.0
H987 H 0.98943 0.51405 0.6748 0.0
H988 H 0.79532 0.94257 0.88697 0.0
H989 H 0.74992 0.9668 0.90499 0.0
H990 H 0.79981 0.9919 0.98994 0.0
H991 H 0.84528 0.96827 0.97147 0.0
H992 H 0.74244 0.95862 0.99853 0.0
H993 H 0.7852 0.04535 0.9377 0.0
H994 H 0.80531 0.06885 0.88887 0.0
H995 H 0.7176 0.05015 0.84259 0.0
H996 H 0.69719 0.02573 0.89092 0.0
H997 H 0.63295 0.03318 0.07155 0.0
H998 H 0.68145 0.02904 0.04565 0.0
H999 H 0.63226 0.01849 0.95729 0.0
H1000 H 0.5836 0.0242 0.98314 0.0
H1001 H 0.68912 0.0455 0.94832 0.0
H1002 H 0.64702 0.95556 1.00174 0.0
H1003 H 0.62483 0.92493 0.04581 0.0
H1004 H 0.70779 0.94314 0.10064 0.0
H1005 H 0.73032 0.97429 0.05703 0.0
C1006 C 0.79656 0.95379 0.9092 0.0
C1007 C 0.82341 0.95342 0.9281 0.0
C1008 C 0.77076 0.96757 0.91947 0.0
C1009 C 0.77154 0.98112 0.94881 0.0
C1010 C 0.79873 0.9815 0.96727 0.0
C1011 C 0.82457 0.96801 0.95684 0.0
C1012 C 0.74342 0.99292 0.9613 0.0
C1013 C 0.7311 0.97798 0.98789 0.0
C1014 C 0.72794 0.01727 0.94649 0.0
C1015 C 0.73977 0.03334 0.91787 0.0
C1016 C 0.77026 0.046 0.91705 0.0
C1017 C 0.78175 0.0594 0.88942 0.0
C1018 C 0.76282 0.06075 0.86256 0.0
C1019 C 0.73229 0.04894 0.86336 0.0
C1020 C 0.72075 0.0353 0.89088 0.0
C1021 C 0.63261 0.03096 0.04645 0.0
C1022 C 0.60464 0.02858 0.02934 0.0
C1023 C 0.66029 0.02849 0.03167 0.0
C1024 C 0.66042 0.02244 0.9997 0.0
C1025 C 0.63272 0.02288 0.98203 0.0
C1026 C 0.60495 0.02609 0.99678 0.0
C1027 C 0.68856 0.01159 0.98606 0.0
C1028 C 0.70068 0.0264 0.95916 0.0
C1029 C 0.70358 0.98645 1.0 0.0
C1030 C 0.69024 0.96751 0.02623 0.0
C1031 C 0.66045 0.9532 0.02327 0.0
C1032 C 0.64782 0.93573 0.04816 0.0
C1033 C 0.66486 0.93216 0.07604 0.0
C1034 C 0.69461 0.94597 0.07905 0.0
C1035 C 0.70733 0.96353 0.05425 0.0
H1036 H 0.65504 0.91862 0.09528 0.0
H1037 H 0.77174 0.0712 0.84122 0.0
H1038 H 0.72565 0.17294 0.41637 0.0
H1039 H 0.77093 0.14256 0.41954 0.0
H1040 H 0.71249 0.05945 0.43249 0.0
H1041 H 0.66703 0.09039 0.4297 0.0
H1042 H 0.75785 0.06228 0.47594 0.0
H1043 H 0.75394 0.07101 0.36605 0.0
H1044 H 0.74843 0.09625 0.31412 0.0
H1045 H 0.82964 0.1548 0.33284 0.0
H1046 H 0.8354 0.13028 0.38511 0.0
H1047 H 0.90631 0.99981 0.49789 0.0
H1048 H 0.85595 0.00476 0.47084 0.0
H1049 H 0.8773 0.10245 0.45744 0.0
H1050 H 0.92683 0.09763 0.48442 0.0
H1051 H 0.84615 0.07662 0.40586 0.0
H1052 H 0.83923 0.07643 0.52 0.0
H1053 H 0.84469 0.05179 0.57231 0.0
H1054 H 0.7832 0.97589 0.54391 0.0
H1055 H 0.77772 0.99995 0.49128 0.0
C1056 C 0.72257 0.14811 0.4192 0.0
C1057 C 0.69308 0.13388 0.42274 0.0
C1058 C 0.74838 0.1307 0.4209 0.0
C1059 C 0.74524 0.09857 0.42601 0.0
C1060 C 0.71554 0.08414 0.42841 0.0
C1061 C 0.68962 0.10169 0.42657 0.0
C1062 C 0.77325 0.08099 0.4316 0.0
C1063 C 0.77681 0.06465 0.46013 0.0
C1064 C 0.79819 0.08406 0.41115 0.0
C1065 C 0.79504 0.09882 0.3796 0.0
C1066 C 0.77054 0.08939 0.35919 0.0
C1067 C 0.76738 0.10357 0.32967 0.0
C1068 C 0.78866 0.12712 0.32019 0.0
C1069 C 0.81318 0.13652 0.34021 0.0
C1070 C 0.81644 0.12245 0.36977 0.0
C1071 C 0.90042 0.02209 0.4884 0.0
C1072 C 0.9203 0.04837 0.49329 0.0
C1073 C 0.87166 0.02495 0.47312 0.0
C1074 C 0.86276 0.05406 0.46228 0.0
C1075 C 0.88361 0.07978 0.46547 0.0
C1076 C 0.91187 0.07702 0.48102 0.0
C1077 C 0.83093 0.05914 0.45058 0.0
C1078 C 0.82673 0.07329 0.42102 0.0
C1079 C 0.80538 0.05396 0.46998 0.0
C1080 C 0.80837 0.03976 0.50166 0.0
C1081 C 0.82704 0.05439 0.52488 0.0
C1082 C 0.83012 0.04055 0.55457 0.0
C1083 C 0.81439 0.01224 0.5614 0.0
C1084 C 0.79544 0.99778 0.53857 0.0
C1085 C 0.79233 0.0115 0.50881 0.0
H1086 H 0.81682 1.00156 0.5844 0.0
H1087 H 0.78617 0.13808 0.29733 0.0
H1088 H 0.33472 0.60553 0.14733 0.0
H1089 H 0.28485 0.57769 0.13797 0.0
H1090 H 0.3248 0.52403 0.06852 0.0
H1091 H 0.37465 0.55296 0.07759 0.0
H1092 H 0.27571 0.54518 0.04548 0.0
H1093 H 0.29616 0.48984 0.13827 0.0
H1094 H 0.31276 0.47917 0.19278 0.0
H1095 H 0.24079 0.53164 0.22514 0.0
H1096 H 0.22403 0.54311 0.17084 0.0
H1097 H 0.11781 0.49624 0.02178 0.0
H1098 H 0.16974 0.48616 0.04214 0.0
H1099 H 0.17071 0.56736 0.09753 0.0
H1100 H 0.11942 0.57788 0.07651 0.0
H1101 H 0.20087 0.51265 0.12667 0.0
H1102 H 0.19584 0.57953 0.03079 0.0
H1103 H 0.17891 0.58797 0.97592 0.0
H1104 H 0.22314 0.50759 0.95009 0.0
H1105 H 0.23995 0.49848 0.00497 0.0
C1106 C 0.3327 0.5874 0.13048 0.0
C1107 C 0.35803 0.58113 0.11311 0.0
C1108 C 0.30442 0.57126 0.12533 0.0
C1109 C 0.3011 0.54826 0.10293 0.0
C1110 C 0.32684 0.54146 0.0861 0.0
C1111 C 0.35516 0.55788 0.09116 0.0
C1112 C 0.26993 0.53458 0.09453 0.0
C1113 C 0.25972 0.53708 0.06323 0.0
C1114 C 0.24881 0.52394 0.11752 0.0
C1115 C 0.25891 0.51744 0.15036 0.0
C1116 C 0.28401 0.49934 0.15698 0.0
C1117 C 0.29342 0.4931 0.18787 0.0
C1118 C 0.27784 0.50473 0.2124 0.0
C1119 C 0.25282 0.52262 0.2061 0.0
C1120 C 0.24332 0.52896 0.17526 0.0
C1121 C 0.12894 0.51132 0.03897 0.0
C1122 C 0.11492 0.53762 0.04796 0.0
C1123 C 0.15838 0.50552 0.05061 0.0
C1124 C 0.17384 0.52596 0.0714 0.0
C1125 C 0.15892 0.55116 0.08181 0.0
C1126 C 0.12984 0.55726 0.06972 0.0
C1127 C 0.20708 0.52469 0.07823 0.0
C1128 C 0.21746 0.51953 0.10908 0.0
C1129 C 0.22854 0.5324 0.05486 0.0
C1130 C 0.2188 0.53813 0.02193 0.0
C1131 C 0.20174 0.56355 0.01342 0.0
C1132 C 0.1922 0.56847 0.98234 0.0
C1133 C 0.19986 0.54827 0.95954 0.0
C1134 C 0.21716 0.52317 0.96778 0.0
C1135 C 0.2267 0.51812 0.99885 0.0
H1136 H 0.19246 0.55212 0.93549 0.0
H1137 H 0.28516 0.49985 0.2363 0.0
H1138 H 0.14395 0.43658 0.59124 0.0
H1139 H 0.1901 0.46439 0.57033 0.0
H1140 H 0.24445 0.42896 0.64766 0.0
H1141 H 0.19804 0.40211 0.6687 0.0
H1142 H 0.25673 0.48893 0.64068 0.0
H1143 H 0.24749 0.40317 0.57105 0.0
H1144 H 0.22168 0.36898 0.53233 0.0
H1145 H 0.21077 0.44627 0.46909 0.0
H1146 H 0.2361 0.48109 0.50781 0.0
H1147 H 0.40834 0.50778 0.58478 0.0
H1148 H 0.35802 0.49794 0.60774 0.0
H1149 H 0.31494 0.53687 0.5249 0.0
H1150 H 0.36536 0.54597 0.50173 0.0
H1151 H 0.29379 0.48089 0.53347 0.0
H1152 H 0.30007 0.56718 0.60119 0.0
H1153 H 0.32304 0.60365 0.63971 0.0
H1154 H 0.33954 0.52847 0.70389 0.0
H1155 H 0.31577 0.49161 0.66612 0.0
C1156 C 0.16602 0.43415 0.60304 0.0
C1157 C 0.16789 0.41696 0.63111 0.0
C1158 C 0.1923 0.45012 0.59132 0.0
C1159 C 0.22087 0.44877 0.6074 0.0
C1160 C 0.22274 0.43051 0.6349 0.0
C1161 C 0.19645 0.41485 0.64668 0.0
C1162 C 0.24862 0.46716 0.5964 0.0
C1163 C 0.26499 0.48696 0.61729 0.0
C1164 C 0.25884 0.46565 0.56557 0.0
C1165 C 0.24337 0.44476 0.54245 0.0
C1166 C 0.23932 0.41292 0.54901 0.0
C1167 C 0.22481 0.39341 0.52701 0.0
C1168 C 0.21453 0.40543 0.49822 0.0
C1169 C 0.21871 0.437 0.4914 0.0
C1170 C 0.23313 0.45663 0.51337 0.0
C1171 C 0.38824 0.51566 0.57222 0.0
C1172 C 0.3906 0.52787 0.5417 0.0
C1173 C 0.35939 0.50999 0.58532 0.0
C1174 C 0.33251 0.51656 0.56805 0.0
C1175 C 0.33526 0.53147 0.53865 0.0
C1176 C 0.36405 0.53682 0.52547 0.0
C1177 C 0.30215 0.50253 0.57778 0.0
C1178 C 0.28533 0.48334 0.5567 0.0
C1179 C 0.29141 0.50485 0.60829 0.0
C1180 C 0.30647 0.52668 0.63074 0.0
C1181 C 0.30882 0.55844 0.62344 0.0
C1182 C 0.32184 0.57918 0.64517 0.0
C1183 C 0.33306 0.56838 0.67407 0.0
C1184 C 0.33093 0.53681 0.68146 0.0
C1185 C 0.31746 0.516 0.66 0.0
H1186 H 0.34328 0.58449 0.69076 0.0
H1187 H 0.20342 0.39034 0.4811 0.0
H1188 H 0.9418 0.89277 0.9227 0.0
H1189 H 0.96593 0.84542 0.94048 0.0
H1190 H 0.87672 0.79614 0.93946 0.0
H1191 H 0.85322 0.8429 0.92031 0.0
H1192 H 0.95929 0.8127 0.99283 0.0
H1193 H 0.88099 0.72173 0.926 0.0
H1194 H 0.85332 0.71687 0.87511 0.0
H1195 H 0.91611 0.78592 0.8347 0.0
H1196 H 0.94442 0.79086 0.88518 0.0
H1197 H 0.95457 0.63138 0.01147 0.0
H1198 H 0.93131 0.68025 0.99895 0.0
H1199 H 0.02156 0.7261 0.99097 0.0
H1200 H 0.0448 0.67767 0.00407 0.0
H1201 H 0.93848 0.71153 0.94354 0.0
H1202 H 0.01464 0.80738 0.00744 0.0
H1203 H 0.0462 0.81374 0.05572 0.0
H1204 H 0.99636 0.73602 0.09837 0.0
H1205 H 0.96439 0.72917 0.05064 0.0
C1206 C 0.92769 0.8715 0.92548 0.0
C1207 C 0.89579 0.87124 0.92022 0.0
C1208 C 0.94132 0.84463 0.93602 0.0
C1209 C 0.92318 0.81712 0.94133 0.0
C1210 C 0.89134 0.81684 0.93517 0.0
C1211 C 0.87787 0.84352 0.92435 0.0
C1212 C 0.93716 0.78887 0.95411 0.0
C1213 C 0.95529 0.79064 0.98179 0.0
C1214 C 0.93128 0.75997 0.94008 0.0
C1215 C 0.91462 0.75686 0.90948 0.0
C1216 C 0.88897 0.73577 0.90622 0.0
C1217 C 0.87316 0.73302 0.87745 0.0
C1218 C 0.88289 0.75114 0.85172 0.0
C1219 C 0.90852 0.77198 0.85467 0.0
C1220 C 0.92444 0.77478 0.88337 0.0
C1221 C 0.96938 0.65212 0.00814 0.0
C1222 C 1.00147 0.65081 0.00895 0.0
C1223 C 0.9561 0.67993 1.00066 0.0
C1224 C 0.97471 0.70681 0.99402 0.0
C1225 C 0.00675 0.70577 0.9963 0.0
C1226 C 0.01999 0.67806 0.00377 0.0
C1227 C 0.96083 0.7353 0.9822 0.0
C1228 C 0.94264 0.73356 0.95464 0.0
C1229 C 0.96754 0.76429 0.99597 0.0
C1230 C 0.98688 0.76781 0.02514 0.0
C1231 C 0.0102 0.7917 0.02713 0.0
C1232 C 0.02828 0.79535 0.05445 0.0
C1233 C 0.0233 0.77529 0.08009 0.0
C1234 C 1.00027 0.7515 0.07845 0.0
C1235 C 0.98218 0.7477 0.05118 0.0
H1236 H 0.0373 0.77819 0.10124 0.0
H1237 H 0.8706 0.749 0.82948 0.0
H1238 H 0.38612 0.69125 0.14047 0.0
H1239 H 0.39714 0.74594 0.12701 0.0
H1240 H 0.4724 0.72224 0.07138 0.0
H1241 H 0.46226 0.66763 0.08677 0.0
H1242 H 0.48775 0.77368 0.09865 0.0
H1243 H 0.39977 0.73596 0.03935 0.0
H1244 H 0.34842 0.7099 0.03077 0.0
H1245 H 0.30847 0.77775 0.08455 0.0
H1246 H 0.35969 0.8039 0.09399 0.0
H1247 H 0.50501 0.91373 0.01848 0.0
H1248 H 0.48778 0.85916 0.02396 0.0
H1249 H 0.41956 0.88215 0.0884 0.0
H1250 H 0.43634 0.93685 0.08218 0.0
H1251 H 0.40028 0.83101 0.05628 0.0
H1252 H 0.49081 0.86713 0.11498 0.0
H1253 H 0.54262 0.89295 0.12099 0.0
H1254 H 0.57867 0.82682 0.06211 0.0
H1255 H 0.52694 0.80088 0.05535 0.0
C1256 C 0.4056 0.69806 0.12627 0.0
C1257 C 0.42383 0.67575 0.11509 0.0
C1258 C 0.41159 0.72912 0.1181 0.0
C1259 C 0.4352 0.73821 0.09758 0.0
C1260 C 0.45405 0.71585 0.08719 0.0
C1261 C 0.44837 0.6848 0.09593 0.0
C1262 C 0.43945 0.77078 0.08613 0.0
C1263 C 0.46875 0.78598 0.08869 0.0
C1264 C 0.41458 0.78712 0.0736 0.0
C1265 C 0.38363 0.77173 0.06762 0.0
C1266 C 0.38006 0.74522 0.04952 0.0
C1267 C 0.35098 0.73043 0.0445 0.0
C1268 C 0.3252 0.74214 0.05716 0.0
C1269 C 0.32846 0.7687 0.0748 0.0
C1270 C 0.35752 0.78352 0.07999 0.0
C1271 C 0.48528 0.9072 0.03248 0.0
C1272 C 0.47176 0.92928 0.04973 0.0
C1273 C 0.47574 0.87603 0.036 0.0
C1274 C 0.45307 0.86653 0.0574 0.0
C1275 C 0.43727 0.88894 0.07198 0.0
C1276 C 0.44664 0.92019 0.06821 0.0
C1277 C 0.44877 0.83361 0.06761 0.0
C1278 C 0.41942 0.8185 0.06536 0.0
C1279 C 0.47372 0.81716 0.07973 0.0
C1280 C 0.50497 0.83223 0.08444 0.0
C1281 C 0.50977 0.85818 0.10321 0.0
C1282 C 0.53911 0.87284 0.10674 0.0
C1283 C 0.56391 0.86158 0.09188 0.0
C1284 C 0.55943 0.83554 0.07357 0.0
C1285 C 0.53011 0.82084 0.06989 0.0
H1286 H 0.58661 0.873 0.0946 0.0
H1287 H 0.3027 0.73065 0.05324 0.0
H1288 H 0.1663 0.34343 0.63495 0.0
H1289 H 0.1626 0.29725 0.60297 0.0
H1290 H 0.07828 0.32674 0.55989 0.0
H1291 H 0.08205 0.37246 0.59211 0.0
H1292 H 0.06935 0.27265 0.58919 0.0
H1293 H 0.13826 0.3135 0.51131 0.0
H1294 H 0.18513 0.33776 0.48821 0.0
H1295 H 0.23925 0.27062 0.53542 0.0
H1296 H 0.19243 0.24541 0.55818 0.0
H1297 H 0.02857 0.14665 0.50091 0.0
H1298 H 0.05347 0.19849 0.50535 0.0
H1299 H 0.1229 0.16269 0.56771 0.0
H1300 H 0.09774 0.1107 0.56344 0.0
H1301 H 0.14162 0.21973 0.52546 0.0
H1302 H 0.06931 0.17955 0.60337 0.0
H1303 H 0.02015 0.15302 0.61863 0.0
H1304 H 0.97069 0.22163 0.56786 0.0
H1305 H 0.01964 0.24822 0.55179 0.0
C1306 C 0.14781 0.34053 0.61762 0.0
C1307 C 0.1244 0.36119 0.61583 0.0
C1308 C 0.14563 0.3142 0.59937 0.0
C1309 C 0.12003 0.30837 0.57911 0.0
C1310 C 0.09819 0.33065 0.57537 0.0
C1311 C 0.10036 0.35679 0.59362 0.0
C1312 C 0.11291 0.27709 0.56655 0.0
C1313 C 0.08504 0.26144 0.57482 0.0
C1314 C 0.1336 0.26186 0.54858 0.0
C1315 C 0.16198 0.27788 0.53674 0.0
C1316 C 0.16021 0.30415 0.51705 0.0
C1317 C 0.18673 0.31792 0.50384 0.0
C1318 C 0.21522 0.30592 0.51053 0.0
C1319 C 0.2172 0.27995 0.53032 0.0
C1320 C 0.19065 0.26579 0.54323 0.0
C1321 C 0.05007 0.14964 0.51419 0.0
C1322 C 0.06154 0.12485 0.53156 0.0
C1323 C 0.06421 0.17923 0.51681 0.0
C1324 C 0.08986 0.18439 0.53704 0.0
C1325 C 0.10328 0.1591 0.55179 0.0
C1326 C 0.08896 0.12945 0.54931 0.0
C1327 C 0.0981 0.21596 0.54785 0.0
C1328 C 0.12608 0.2313 0.53969 0.0
C1329 C 0.07749 0.23116 0.56585 0.0
C1330 C 0.04808 0.21565 0.5761 0.0
C1331 C 0.04794 0.18882 0.59526 0.0
C1332 C 0.02013 0.1738 0.60408 0.0
C1333 C 0.99231 0.18559 0.59415 0.0
C1334 C 0.99226 0.2125 0.57548 0.0
C1335 C 0.02002 0.22755 0.56651 0.0
H1336 H 0.97079 0.17392 0.601 0.0
H1337 H 0.23574 0.3167 0.50032 0.0
H1338 H 0.58245 0.19064 0.4696 0.0
H1339 H 0.56132 0.23649 0.49035 0.0
H1340 H 0.64875 0.2872 0.4796 0.0
H1341 H 0.66947 0.24176 0.45735 0.0
H1342 H 0.60562 0.29216 0.54187 0.0
H1343 H 0.61297 0.30358 0.42668 0.0
H1344 H 0.60356 0.28194 0.37445 0.0
H1345 H 0.50741 0.26711 0.39238 0.0
H1346 H 0.51639 0.2881 0.44495 0.0
H1347 H 0.55882 0.45173 0.52501 0.0
H1348 H 0.58511 0.40342 0.52508 0.0
H1349 H 0.49814 0.35269 0.50865 0.0
H1350 H 0.47176 0.40033 0.5099 0.0
H1351 H 0.54246 0.34697 0.46251 0.0
H1352 H 0.52803 0.33855 0.56962 0.0
H1353 H 0.52883 0.34633 0.62616 0.0
H1354 H 0.62695 0.34391 0.63002 0.0
H1355 H 0.62712 0.33801 0.57305 0.0
C1356 C 0.59716 0.21152 0.47196 0.0
C1357 C 0.62744 0.21285 0.46164 0.0
C1358 C 0.58521 0.23753 0.48403 0.0
C1359 C 0.60354 0.26511 0.48649 0.0
C1360 C 0.63439 0.26598 0.4781 0.0
C1361 C 0.6462 0.24008 0.4655 0.0
C1362 C 0.58934 0.2938 0.4941 0.0
C1363 C 0.59243 0.30479 0.5245 0.0
C1364 C 0.57082 0.30894 0.47169 0.0
C1365 C 0.56539 0.29715 0.43979 0.0
C1366 C 0.58988 0.29547 0.41956 0.0
C1367 C 0.58462 0.28335 0.3899 0.0
C1368 C 0.55491 0.27312 0.38014 0.0
C1369 C 0.53041 0.27503 0.39999 0.0
C1370 C 0.53556 0.28704 0.4297 0.0
C1371 C 0.54524 0.43013 0.52267 0.0
C1372 C 0.5132 0.42983 0.51769 0.0
C1373 C 0.56029 0.40258 0.52255 0.0
C1374 C 0.54353 0.37451 0.51683 0.0
C1375 C 0.51148 0.37409 0.51315 0.0
C1376 C 0.49646 0.40138 0.5138 0.0
C1377 C 0.55937 0.34636 0.51034 0.0
C1378 C 0.55632 0.33514 0.47997 0.0
C1379 C 0.5771 0.33062 0.5332 0.0
C1380 C 0.57761 0.33839 0.56673 0.0
C1381 C 0.54994 0.34083 0.58218 0.0
C1382 C 0.55021 0.34476 0.6144 0.0
C1383 C 0.57795 0.34572 0.63159 0.0
C1384 C 0.60555 0.34352 0.61654 0.0
C1385 C 0.60549 0.34007 0.58424 0.0
H1386 H 0.57803 0.34774 0.65664 0.0
H1387 H 0.55083 0.26383 0.35717 0.0
loop_
_geom_bond_atom_site_label_1
_geom_bond_atom_site_label_2
_geom_bond_distance
_geom_bond_site_symmetry_2
_ccdc_geom_bond_type
C0 N1 1.317 . S
C0 N2 1.348 . S
C0 C3 1.485 . S
N1 C0 1.317 . S
N1 N5 1.370 . S
N2 C0 1.348 . S
N2 C4 1.346 . S
C3 C0 1.485 . S
C3 H7 0.960 . S
C3 H8 0.961 . S
C3 H9 0.960 . S
C4 N2 1.346 . S
C4 N5 1.307 . S
C4 C6 1.486 . S
N5 N1 1.370 . S
N5 C4 1.307 . S
C6 C4 1.486 . S
C6 H10 0.960 . S
C6 H11 0.960 . S
C6 H12 0.959 . S
H7 C3 0.960 . S
H8 C3 0.961 . S
H9 C3 0.960 . S
H10 C6 0.960 . S
H11 C6 0.960 . S
H12 C6 0.959 . S
C13 N14 1.317 . S
C13 N15 1.348 . S
C13 C16 1.485 . S
N14 C13 1.317 . S
N14 N18 1.370 . S
N15 C13 1.348 . S
N15 C17 1.346 . S
C16 C13 1.485 . S
C16 H20 0.960 . S
C16 H21 0.961 . S
C16 H22 0.960 . S
C17 N15 1.346 . S
C17 N18 1.307 . S
C17 C19 1.486 . S
N18 N14 1.370 . S
N18 C17 1.307 . S
C19 C17 1.486 . S
C19 H23 0.960 . S
C19 H24 0.960 . S
C19 H25 0.959 . S
H20 C16 0.960 . S
H21 C16 0.961 . S
H22 C16 0.960 . S
H23 C19 0.960 . S
H24 C19 0.960 . S
H25 C19 0.959 . S
C26 N27 1.317 . S
C26 N28 1.348 . S
C26 C29 1.485 . S
N27 C26 1.317 . S
N27 N31 1.370 . S
N28 C26 1.348 . S
N28 C30 1.346 . S
C29 C26 1.485 . S
C29 H33 0.960 . S
C29 H34 0.961 . S
C29 H35 0.960 . S
C30 N28 1.346 . S
C30 N31 1.307 . S
C30 C32 1.486 . S
N31 N27 1.370 . S
N31 C30 1.307 . S
C32 C30 1.486 . S
C32 H36 0.960 . S
C32 H37 0.960 . S
C32 H38 0.959 . S
H33 C29 0.960 . S
H34 C29 0.961 . S
H35 C29 0.960 . S
H36 C32 0.960 . S
H37 C32 0.960 . S
H38 C32 0.959 . S
C39 N40 1.317 . S
C39 N41 1.348 . S
C39 C42 1.485 . S
N40 C39 1.317 . S
N40 N44 1.370 . S
N41 C39 1.348 . S
N41 C43 1.346 . S
C42 C39 1.485 . S
C42 H46 0.960 . S
C42 H47 0.961 . S
C42 H48 0.960 . S
C43 N41 1.346 . S
C43 N44 1.307 . S
C43 C45 1.486 . S
N44 N40 1.370 . S
N44 C43 1.307 . S
C45 C43 1.486 . S
C45 H49 0.960 . S
C45 H50 0.960 . S
C45 H51 0.959 . S
H46 C42 0.960 . S
H47 C42 0.961 . S
H48 C42 0.960 . S
H49 C45 0.960 . S
H50 C45 0.960 . S
H51 C45 0.959 . S
C52 N53 1.317 . S
C52 N54 1.348 . S
C52 C55 1.485 1_556 S
N53 C52 1.317 . S
N53 N57 1.370 . S
N54 C52 1.348 . S
N54 C56 1.346 . S
C55 C52 1.485 1_554 S
C55 H59 0.964 . S
C55 H60 0.961 . S
C55 H61 0.960 . S
C56 N54 1.346 . S
C56 N57 1.307 . S
C56 C58 1.486 1_565 S
N57 N53 1.370 . S
N57 C56 1.307 . S
C58 C56 1.486 1_545 S
C58 H62 0.960 . S
C58 H63 0.960 . S
C58 H64 0.959 . S
H59 C55 0.964 . S
H60 C55 0.961 . S
H61 C55 0.960 . S
H62 C58 0.960 . S
H63 C58 0.960 . S
H64 C58 0.959 . S
C65 N66 1.317 . S
C65 N67 1.348 . S
C65 C68 1.485 . S
N66 C65 1.317 . S
N66 N70 1.370 . S
N67 C65 1.348 . S
N67 C69 1.346 . S
C68 C65 1.485 . S
C68 H72 0.960 . S
C68 H73 0.961 . S
C68 H74 0.960 . S
C69 N67 1.346 . S
C69 N70 1.307 . S
C69 C71 1.486 . S
N70 N66 1.370 . S
N70 C69 1.307 . S
C71 C69 1.486 . S
C71 H75 0.960 . S
C71 H76 0.960 . S
C71 H77 0.959 . S
H72 C68 0.960 . S
H73 C68 0.961 . S
H74 C68 0.960 . S
H75 C71 0.960 . S
H76 C71 0.960 . S
H77 C71 0.959 . S
C78 N79 1.317 . S
C78 N80 1.348 . S
C78 C81 1.485 . S
N79 C78 1.317 . S
N79 N83 1.370 . S
N80 C78 1.348 . S
N80 C82 1.346 . S
C81 C78 1.485 . S
C81 H85 0.960 . S
C81 H86 0.961 . S
C81 H87 0.960 . S
C82 N80 1.346 . S
C82 N83 1.307 . S
C82 C84 1.486 . S
N83 N79 1.370 . S
N83 C82 1.307 . S
C84 C82 1.486 . S
C84 H88 0.960 . S
C84 H89 0.960 . S
C84 H90 0.959 . S
H85 C81 0.960 . S
H86 C81 0.961 . S
H87 C81 0.960 . S
H88 C84 0.960 . S
H89 C84 0.960 . S
H90 C84 0.959 . S
C91 N92 1.317 . S
C91 N93 1.348 . S
C91 C94 1.485 . S
N92 C91 1.317 . S
N92 N96 1.370 . S
N93 C91 1.348 . S
N93 C95 1.346 . S
C94 C91 1.485 . S
C94 H98 0.960 . S
C94 H99 0.961 . S
C94 H100 0.960 . S
C95 N93 1.346 . S
C95 N96 1.307 . S
C95 C97 1.486 . S
N96 N92 1.370 . S
N96 C95 1.307 . S
C97 C95 1.486 . S
C97 H101 0.960 . S
C97 H102 0.960 . S
C97 H103 0.959 . S
H98 C94 0.960 . S
H99 C94 0.961 . S
H100 C94 0.960 . S
H101 C97 0.960 . S
H102 C97 0.960 . S
H103 C97 0.959 . S
Zn104 O110 1.920 . S
Zn104 O116 1.898 1_655 S
Zn104 O119 1.905 . S
Zn105 O113 1.905 1_565 S
Zn105 O114 1.898 . S
Zn105 O122 1.920 . S
Zn106 O109 2.080 . S
Zn106 O112 2.114 . S
Zn106 O115 2.120 1_545 S
Zn106 O117 2.120 . S
Zn106 O118 2.114 1_455 S
Zn106 O121 2.080 . S
C107 O112 1.166 . S
C107 O113 1.182 . S
C108 O114 1.167 . S
C108 O115 1.299 . S
O109 Zn106 2.080 . S
O109 C123 1.305 . S
O110 Zn104 1.920 . S
O110 C123 1.234 1_655 S
C111 O116 1.167 . S
C111 O117 1.299 . S
O112 Zn106 2.114 . S
O112 C107 1.166 . S
O113 Zn105 1.905 1_545 S
O113 C107 1.182 . S
O114 Zn105 1.898 . S
O114 C108 1.167 . S
O115 Zn106 2.120 1_565 S
O115 C108 1.299 . S
O116 Zn104 1.898 1_455 S
O116 C111 1.167 . S
O117 Zn106 2.120 . S
O117 C111 1.299 . S
O118 Zn106 2.114 1_655 S
O118 C120 1.166 . S
O119 Zn104 1.905 . S
O119 C120 1.182 . S
C120 O118 1.166 . S
C120 O119 1.182 . S
O121 Zn106 2.080 . S
O121 C124 1.305 1_545 S
O122 Zn105 1.920 . S
O122 C124 1.234 . S
C123 O109 1.305 . S
C123 O110 1.234 1_455 S
C124 O121 1.305 1_565 S
C124 O122 1.234 . S
Zn125 O131 1.920 . S
Zn125 O137 1.898 . S
Zn125 O140 1.892 1_554 S
Zn126 O134 1.905 . S
Zn126 O135 1.898 . S
Zn126 O143 1.920 . S
Zn127 O130 2.080 . S
Zn127 O133 2.114 . S
Zn127 O136 2.120 1_545 S
Zn127 O138 2.120 . S
Zn127 O139 2.114 . S
Zn127 O142 2.080 . S
C128 O133 1.168 . S
C128 O134 1.178 1_545 S
C129 O135 1.167 . S
C129 O136 1.299 . S
O130 Zn127 2.080 . S
O130 C144 1.305 . S
O131 Zn125 1.920 . S
O131 C144 1.234 . S
C132 O137 1.167 . S
C132 O138 1.299 . S
O133 Zn127 2.114 . S
O133 C128 1.168 . S
O134 Zn126 1.905 . S
O134 C128 1.178 1_565 S
O135 Zn126 1.898 . S
O135 C129 1.167 . S
O136 Zn127 2.120 1_565 S
O136 C129 1.299 . S
O137 Zn125 1.898 . S
O137 C132 1.167 . S
O138 Zn127 2.120 . S
O138 C132 1.299 . S
O139 Zn127 2.114 . S
O139 C141 1.166 . S
O140 Zn125 1.892 1_556 S
O140 C141 1.175 1_556 S
C141 O139 1.166 . S
C141 O140 1.175 1_554 S
O142 Zn127 2.080 . S
O142 C145 1.305 . S
O143 Zn126 1.920 . S
O143 C145 1.234 1_565 S
C144 O130 1.305 . S
C144 O131 1.234 . S
C145 O142 1.305 . S
C145 O143 1.234 1_545 S
Zn146 O152 1.920 . S
Zn146 O158 1.898 . S
Zn146 O161 1.905 . S
Zn147 O155 1.905 . S
Zn147 O156 1.898 . S
Zn147 O164 1.920 . S
Zn148 O151 2.080 . S
Zn148 O154 2.114 . S
Zn148 O157 2.120 . S
Zn148 O159 2.120 . S
Zn148 O160 2.114 . S
Zn148 O163 2.080 . S
C149 O154 1.166 . S
C149 O155 1.182 . S
C150 O156 1.167 . S
C150 O157 1.299 . S
O151 Zn148 2.080 . S
O151 C165 1.305 . S
O152 Zn146 1.920 . S
O152 C165 1.234 . S
C153 O158 1.167 . S
C153 O159 1.299 . S
O154 Zn148 2.114 . S
O154 C149 1.166 . S
O155 Zn147 1.905 . S
O155 C149 1.182 . S
O156 Zn147 1.898 . S
O156 C150 1.167 . S
O157 Zn148 2.120 . S
O157 C150 1.299 . S
O158 Zn146 1.898 . S
O158 C153 1.167 . S
O159 Zn148 2.120 . S
O159 C153 1.299 . S
O160 Zn148 2.114 . S
O160 C162 1.166 . S
O161 Zn146 1.905 . S
O161 C162 1.182 . S
C162 O160 1.166 . S
C162 O161 1.182 . S
O163 Zn148 2.080 . S
O163 C166 1.305 . S
O164 Zn147 1.920 . S
O164 C166 1.234 . S
C165 O151 1.305 . S
C165 O152 1.234 . S
C166 O163 1.305 . S
C166 O164 1.234 . S
Zn167 O173 1.920 . S
Zn167 O179 1.898 . S
Zn167 O182 1.905 . S
Zn168 O176 1.905 . S
Zn168 O177 1.898 . S
Zn168 O185 1.920 . S
Zn169 O172 2.080 1_454 S
Zn169 O175 2.114 . S
Zn169 O178 2.120 1_454 S
Zn169 O180 2.120 . S
Zn169 O181 2.114 1_554 S
Zn169 O184 2.080 1_455 S
C170 O175 1.166 . S
C170 O176 1.182 1_455 S
C171 O177 1.167 1_556 S
C171 O178 1.299 . S
O172 Zn169 2.080 1_656 S
O172 C186 1.305 1_655 S
O173 Zn167 1.920 . S
O173 C186 1.234 . S
C174 O179 1.167 1_554 S
C174 O180 1.299 . S
O175 Zn169 2.114 . S
O175 C170 1.166 . S
O176 Zn168 1.905 . S
O176 C170 1.182 1_655 S
O177 Zn168 1.898 . S
O177 C171 1.167 1_554 S
O178 Zn169 2.120 1_656 S
O178 C171 1.299 . S
O179 Zn167 1.898 . S
O179 C174 1.167 1_556 S
O180 Zn169 2.120 . S
O180 C174 1.299 . S
O181 Zn169 2.114 1_556 S
O181 C183 1.166 . S
O182 Zn167 1.905 . S
O182 C183 1.182 . S
C183 O181 1.166 . S
C183 O182 1.182 . S
O184 Zn169 2.080 1_655 S
O184 C187 1.305 . S
O185 Zn168 1.920 . S
O185 C187 1.234 . S
C186 O172 1.305 1_455 S
C186 O173 1.234 . S
C187 O184 1.305 . S
C187 O185 1.234 . S
H188 C206 0.951 . S
H189 C208 0.951 . S
H190 C210 0.950 . S
H191 C211 0.950 . S
H192 C213 0.950 . S
H193 C216 0.950 . S
H194 C217 0.950 . S
H195 C219 0.950 . S
H196 C220 0.950 . S
H197 C221 0.951 . S
H198 C223 0.951 . S
H199 C225 0.950 . S
H200 C226 0.950 . S
H201 C228 0.950 . S
H202 C231 0.950 . S
H203 C232 0.950 . S
H204 C234 0.950 . S
H205 C235 0.950 . S
C206 H188 0.951 . S
C206 C207 1.366 . S
C206 C208 1.388 . S
C207 C206 1.366 . S
C207 C211 1.385 . S
C208 H189 0.951 . S
C208 C206 1.388 . S
C208 C209 1.366 . S
C209 C208 1.366 . S
C209 C210 1.414 . S
C209 C212 1.499 . S
C210 H190 0.950 . S
C210 C209 1.414 . S
C210 C211 1.374 . S
C211 H191 0.950 . S
C211 C207 1.385 . S
C211 C210 1.374 . S
C212 C209 1.499 . S
C212 C213 1.373 . S
C212 C214 1.389 . S
C213 H192 0.950 . S
C213 C212 1.373 . S
C213 C229 1.377 . S
C214 C212 1.389 . S
C214 C215 1.524 . S
C214 C228 1.377 . S
C215 C214 1.524 . S
C215 C216 1.397 . S
C215 C220 1.363 . S
C216 H193 0.950 . S
C216 C215 1.397 . S
C216 C217 1.334 . S
C217 H194 0.950 . S
C217 C216 1.334 . S
C217 C218 1.287 . S
C218 C217 1.287 . S
C218 C219 1.524 . S
C218 H237 0.913 . S
C219 H195 0.950 . S
C219 C218 1.524 . S
C219 C220 1.415 . S
C220 H196 0.950 . S
C220 C215 1.363 . S
C220 C219 1.415 . S
C221 H197 0.951 . S
C221 C222 1.366 . S
C221 C223 1.388 . S
C222 C221 1.366 . S
C222 C226 1.385 . S
C223 H198 0.951 . S
C223 C221 1.388 . S
C223 C224 1.366 . S
C224 C223 1.366 . S
C224 C225 1.414 . S
C224 C227 1.499 . S
C225 H199 0.950 . S
C225 C224 1.414 . S
C225 C226 1.374 . S
C226 H200 0.950 . S
C226 C222 1.385 . S
C226 C225 1.374 . S
C227 C224 1.499 . S
C227 C228 1.373 . S
C227 C229 1.389 . S
C228 H201 0.950 . S
C228 C214 1.377 . S
C228 C227 1.373 . S
C229 C213 1.377 . S
C229 C227 1.389 . S
C229 C230 1.524 . S
C230 C229 1.524 . S
C230 C231 1.397 . S
C230 C235 1.363 . S
C231 H202 0.950 . S
C231 C230 1.397 . S
C231 C232 1.334 . S
C232 H203 0.950 . S
C232 C231 1.334 . S
C232 C233 1.287 . S
C233 C232 1.287 . S
C233 C234 1.524 . S
C233 H236 0.999 . S
C234 H204 0.950 . S
C234 C233 1.524 . S
C234 C235 1.415 . S
C235 H205 0.950 . S
C235 C230 1.363 . S
C235 C234 1.415 . S
H236 C233 0.999 . S
H237 C218 0.913 . S
H238 C256 0.951 . S
H239 C258 0.951 . S
H240 C260 0.950 . S
H241 C261 0.950 . S
H242 C263 0.950 . S
H243 C266 0.950 . S
H244 C267 0.950 . S
H245 C269 0.950 . S
H246 C270 0.950 . S
H247 C271 0.951 . S
H248 C273 0.951 . S
H249 C275 0.950 . S
H250 C276 0.950 . S
H251 C278 0.950 . S
H252 C281 0.950 . S
H253 C282 0.950 . S
H254 C284 0.950 . S
H255 C285 0.950 . S
C256 H238 0.951 . S
C256 C257 1.366 . S
C256 C258 1.388 . S
C257 C256 1.366 . S
C257 C261 1.385 . S
C258 H239 0.951 . S
C258 C256 1.388 . S
C258 C259 1.366 . S
C259 C258 1.366 . S
C259 C260 1.414 . S
C259 C262 1.499 . S
C260 H240 0.950 . S
C260 C259 1.414 . S
C260 C261 1.374 . S
C261 H241 0.950 . S
C261 C257 1.385 . S
C261 C260 1.374 . S
C262 C259 1.499 . S
C262 C263 1.373 . S
C262 C264 1.389 . S
C263 H242 0.950 . S
C263 C262 1.373 . S
C263 C279 1.377 . S
C264 C262 1.389 . S
C264 C265 1.524 . S
C264 C278 1.377 . S
C265 C264 1.524 . S
C265 C266 1.397 . S
C265 C270 1.363 . S
C266 H243 0.950 . S
C266 C265 1.397 . S
C266 C267 1.334 . S
C267 H244 0.950 . S
C267 C266 1.334 . S
C267 C268 1.287 . S
C268 C267 1.287 . S
C268 C269 1.524 . S
C268 H287 0.913 . S
C269 H245 0.950 . S
C269 C268 1.524 . S
C269 C270 1.415 . S
C270 H246 0.950 . S
C270 C265 1.363 . S
C270 C269 1.415 . S
C271 H247 0.951 . S
C271 C272 1.366 . S
C271 C273 1.388 . S
C272 C271 1.366 . S
C272 C276 1.385 . S
C273 H248 0.951 . S
C273 C271 1.388 . S
C273 C274 1.366 . S
C274 C273 1.366 . S
C274 C275 1.414 . S
C274 C277 1.499 . S
C275 H249 0.950 . S
C275 C274 1.414 . S
C275 C276 1.374 . S
C276 H250 0.950 . S
C276 C272 1.385 . S
C276 C275 1.374 . S
C277 C274 1.499 . S
C277 C278 1.373 . S
C277 C279 1.389 . S
C278 H251 0.950 . S
C278 C264 1.377 . S
C278 C277 1.373 . S
C279 C263 1.377 . S
C279 C277 1.389 . S
C279 C280 1.524 . S
C280 C279 1.524 . S
C280 C281 1.397 . S
C280 C285 1.363 . S
C281 H252 0.950 . S
C281 C280 1.397 . S
C281 C282 1.334 . S
C282 H253 0.950 . S
C282 C281 1.334 . S
C282 C283 1.287 . S
C283 C282 1.287 . S
C283 C284 1.524 . S
C283 H286 0.999 . S
C284 H254 0.950 . S
C284 C283 1.524 . S
C284 C285 1.415 . S
C285 H255 0.950 . S
C285 C280 1.363 . S
C285 C284 1.415 . S
H286 C283 0.999 . S
H287 C268 0.913 . S
H288 C306 0.951 . S
H289 C308 0.951 . S
H290 C310 0.950 . S
H291 C311 0.950 . S
H292 C313 0.950 . S
H293 C316 0.950 . S
H294 C317 0.950 . S
H295 C319 0.950 . S
H296 C320 0.950 . S
H297 C321 0.951 . S
H298 C323 0.951 . S
H299 C325 0.950 . S
H300 C326 0.950 . S
H301 C328 0.950 . S
H302 C331 0.950 . S
H303 C332 0.950 . S
H304 C334 0.950 . S
H305 C335 0.950 . S
C306 H288 0.951 . S
C306 C307 1.366 . S
C306 C308 1.388 . S
C307 C306 1.366 . S
C307 C311 1.385 . S
C308 H289 0.951 . S
C308 C306 1.388 . S
C308 C309 1.366 . S
C309 C308 1.366 . S
C309 C310 1.414 . S
C309 C312 1.499 . S
C310 H290 0.950 . S
C310 C309 1.414 . S
C310 C311 1.374 . S
C311 H291 0.950 . S
C311 C307 1.385 . S
C311 C310 1.374 . S
C312 C309 1.499 . S
C312 C313 1.373 . S
C312 C314 1.389 . S
C313 H292 0.950 . S
C313 C312 1.373 . S
C313 C329 1.377 . S
C314 C312 1.389 . S
C314 C315 1.524 . S
C314 C328 1.377 . S
C315 C314 1.524 . S
C315 C316 1.397 . S
C315 C320 1.363 . S
C316 H293 0.950 . S
C316 C315 1.397 . S
C316 C317 1.334 . S
C317 H294 0.950 . S
C317 C316 1.334 . S
C317 C318 1.287 . S
C318 C317 1.287 . S
C318 C319 1.524 . S
C318 H337 0.913 . S
C319 H295 0.950 . S
C319 C318 1.524 . S
C319 C320 1.415 . S
C320 H296 0.950 . S
C320 C315 1.363 . S
C320 C319 1.415 . S
C321 H297 0.951 . S
C321 C322 1.366 . S
C321 C323 1.388 . S
C322 C321 1.366 . S
C322 C326 1.385 . S
C323 H298 0.951 . S
C323 C321 1.388 . S
C323 C324 1.366 . S
C324 C323 1.366 . S
C324 C325 1.414 . S
C324 C327 1.499 . S
C325 H299 0.950 . S
C325 C324 1.414 . S
C325 C326 1.374 . S
C326 H300 0.950 . S
C326 C322 1.385 . S
C326 C325 1.374 . S
C327 C324 1.499 . S
C327 C328 1.373 . S
C327 C329 1.389 . S
C328 H301 0.950 . S
C328 C314 1.377 . S
C328 C327 1.373 . S
C329 C313 1.377 . S
C329 C327 1.389 . S
C329 C330 1.524 . S
C330 C329 1.524 . S
C330 C331 1.397 . S
C330 C335 1.363 . S
C331 H302 0.950 . S
C331 C330 1.397 . S
C331 C332 1.334 . S
C332 H303 0.950 . S
C332 C331 1.334 . S
C332 C333 1.287 . S
C333 C332 1.287 . S
C333 C334 1.524 . S
C333 H336 0.999 . S
C334 H304 0.950 . S
C334 C333 1.524 . S
C334 C335 1.415 . S
C335 H305 0.950 . S
C335 C330 1.363 . S
C335 C334 1.415 . S
H336 C333 0.999 . S
H337 C318 0.913 . S
H338 C356 0.951 . S
H339 C358 0.951 . S
H340 C360 0.950 . S
H341 C361 0.950 . S
H342 C363 0.950 . S
H343 C366 0.950 . S
H344 C367 0.950 . S
H345 C369 0.950 . S
H346 C370 0.950 . S
H347 C371 0.951 . S
H348 C373 0.951 . S
H349 C375 0.950 . S
H350 C376 0.950 . S
H351 C378 0.950 . S
H352 C381 0.950 . S
H353 C382 0.950 . S
H354 C384 0.950 . S
H355 C385 0.950 . S
C356 H338 0.951 . S
C356 C357 1.366 . S
C356 C358 1.388 . S
C357 C356 1.366 . S
C357 C361 1.385 . S
C358 H339 0.951 . S
C358 C356 1.388 . S
C358 C359 1.366 . S
C359 C358 1.366 . S
C359 C360 1.414 . S
C359 C362 1.499 . S
C360 H340 0.950 . S
C360 C359 1.414 . S
C360 C361 1.374 . S
C361 H341 0.950 . S
C361 C357 1.385 . S
C361 C360 1.374 . S
C362 C359 1.499 . S
C362 C363 1.373 . S
C362 C364 1.389 . S
C363 H342 0.950 . S
C363 C362 1.373 . S
C363 C379 1.377 . S
C364 C362 1.389 . S
C364 C365 1.524 . S
C364 C378 1.377 . S
C365 C364 1.524 . S
C365 C366 1.397 . S
C365 C370 1.363 . S
C366 H343 0.950 . S
C366 C365 1.397 . S
C366 C367 1.334 . S
C367 H344 0.950 . S
C367 C366 1.334 . S
C367 C368 1.287 . S
C368 C367 1.287 . S
C368 C369 1.524 . S
C368 H387 0.913 . S
C369 H345 0.950 . S
C369 C368 1.524 . S
C369 C370 1.415 . S
C370 H346 0.950 . S
C370 C365 1.363 . S
C370 C369 1.415 . S
C371 H347 0.951 . S
C371 C372 1.366 . S
C371 C373 1.388 . S
C372 C371 1.366 . S
C372 C376 1.385 . S
C373 H348 0.951 . S
C373 C371 1.388 . S
C373 C374 1.366 . S
C374 C373 1.366 . S
C374 C375 1.414 . S
C374 C377 1.499 . S
C375 H349 0.950 . S
C375 C374 1.414 . S
C375 C376 1.374 . S
C376 H350 0.950 . S
C376 C372 1.385 . S
C376 C375 1.374 . S
C377 C374 1.499 . S
C377 C378 1.373 . S
C377 C379 1.389 . S
C378 H351 0.950 . S
C378 C364 1.377 . S
C378 C377 1.373 . S
C379 C363 1.377 . S
C379 C377 1.389 . S
C379 C380 1.524 . S
C380 C379 1.524 . S
C380 C381 1.397 . S
C380 C385 1.363 . S
C381 H352 0.950 . S
C381 C380 1.397 . S
C381 C382 1.334 . S
C382 H353 0.950 . S
C382 C381 1.334 . S
C382 C383 1.287 . S
C383 C382 1.287 . S
C383 C384 1.524 . S
C383 H386 0.999 . S
C384 H354 0.950 . S
C384 C383 1.524 . S
C384 C385 1.415 . S
C385 H355 0.950 . S
C385 C380 1.363 . S
C385 C384 1.415 . S
H386 C383 0.999 . S
H387 C368 0.913 . S
H388 C406 0.951 . S
H389 C408 0.951 . S
H390 C410 0.950 . S
H391 C411 0.950 . S
H392 C413 0.950 . S
H393 C416 0.950 . S
H394 C417 0.950 . S
H395 C419 0.950 . S
H396 C420 0.950 . S
H397 C421 0.951 . S
H398 C423 0.951 . S
H399 C425 0.950 . S
H400 C426 0.950 . S
H401 C428 0.950 . S
H402 C431 0.950 . S
H403 C432 0.950 . S
H404 C434 0.950 . S
H405 C435 0.950 . S
C406 H388 0.951 . S
C406 C407 1.366 . S
C406 C408 1.388 . S
C407 C406 1.366 . S
C407 C411 1.385 . S
C408 H389 0.951 . S
C408 C406 1.388 . S
C408 C409 1.366 . S
C409 C408 1.366 . S
C409 C410 1.414 . S
C409 C412 1.499 . S
C410 H390 0.950 . S
C410 C409 1.414 . S
C410 C411 1.374 . S
C411 H391 0.950 . S
C411 C407 1.385 . S
C411 C410 1.374 . S
C412 C409 1.499 . S
C412 C413 1.373 . S
C412 C414 1.389 . S
C413 H392 0.950 . S
C413 C412 1.373 . S
C413 C429 1.377 . S
C414 C412 1.389 . S
C414 C415 1.524 . S
C414 C428 1.377 . S
C415 C414 1.524 . S
C415 C416 1.397 . S
C415 C420 1.363 . S
C416 H393 0.950 . S
C416 C415 1.397 . S
C416 C417 1.334 . S
C417 H394 0.950 . S
C417 C416 1.334 . S
C417 C418 1.287 . S
C418 C417 1.287 . S
C418 C419 1.524 . S
C418 H437 0.913 . S
C419 H395 0.950 . S
C419 C418 1.524 . S
C419 C420 1.415 . S
C420 H396 0.950 . S
C420 C415 1.363 . S
C420 C419 1.415 . S
C421 H397 0.951 . S
C421 C422 1.366 . S
C421 C423 1.388 . S
C422 C421 1.366 . S
C422 C426 1.385 . S
C423 H398 0.951 . S
C423 C421 1.388 . S
C423 C424 1.366 . S
C424 C423 1.366 . S
C424 C425 1.414 . S
C424 C427 1.499 . S
C425 H399 0.950 . S
C425 C424 1.414 . S
C425 C426 1.374 . S
C426 H400 0.950 . S
C426 C422 1.385 . S
C426 C425 1.374 . S
C427 C424 1.499 . S
C427 C428 1.373 . S
C427 C429 1.389 . S
C428 H401 0.950 . S
C428 C414 1.377 . S
C428 C427 1.373 . S
C429 C413 1.377 . S
C429 C427 1.389 . S
C429 C430 1.524 . S
C430 C429 1.524 . S
C430 C431 1.397 . S
C430 C435 1.363 . S
C431 H402 0.950 . S
C431 C430 1.397 . S
C431 C432 1.334 . S
C432 H403 0.950 . S
C432 C431 1.334 . S
C432 C433 1.287 . S
C433 C432 1.287 . S
C433 C434 1.524 . S
C433 H436 0.999 . S
C434 H404 0.950 . S
C434 C433 1.524 . S
C434 C435 1.415 . S
C435 H405 0.950 . S
C435 C430 1.363 . S
C435 C434 1.415 . S
H436 C433 0.999 . S
H437 C418 0.913 . S
H438 C456 0.951 . S
H439 C458 0.951 . S
H440 C460 0.950 . S
H441 C461 0.950 . S
H442 C463 0.950 . S
H443 C466 0.950 . S
H444 C467 0.950 . S
H445 C469 0.950 . S
H446 C470 0.950 . S
H447 C471 0.951 1_545 S
H448 C473 0.951 . S
H449 C475 0.950 . S
H450 C476 0.950 . S
H451 C478 0.950 . S
H452 C481 0.950 . S
H453 C482 0.950 . S
H454 C484 0.950 . S
H455 C485 0.950 . S
C456 H438 0.951 . S
C456 C457 1.366 . S
C456 C458 1.388 . S
C457 C456 1.366 . S
C457 C461 1.385 . S
C458 H439 0.951 . S
C458 C456 1.388 . S
C458 C459 1.366 . S
C459 C458 1.366 . S
C459 C460 1.414 . S
C459 C462 1.499 . S
C460 H440 0.950 . S
C460 C459 1.414 . S
C460 C461 1.374 . S
C461 H441 0.950 . S
C461 C457 1.385 . S
C461 C460 1.374 . S
C462 C459 1.499 . S
C462 C463 1.373 . S
C462 C464 1.389 . S
C463 H442 0.950 . S
C463 C462 1.373 . S
C463 C479 1.377 . S
C464 C462 1.389 . S
C464 C465 1.524 . S
C464 C478 1.377 . S
C465 C464 1.524 . S
C465 C466 1.397 . S
C465 C470 1.363 . S
C466 H443 0.950 . S
C466 C465 1.397 . S
C466 C467 1.334 . S
C467 H444 0.950 . S
C467 C466 1.334 . S
C467 C468 1.287 . S
C468 C467 1.287 . S
C468 C469 1.524 . S
C468 H487 0.913 . S
C469 H445 0.950 . S
C469 C468 1.524 . S
C469 C470 1.415 . S
C470 H446 0.950 . S
C470 C465 1.363 . S
C470 C469 1.415 . S
C471 H447 0.951 1_565 S
C471 C472 1.366 . S
C471 C473 1.388 . S
C472 C471 1.366 . S
C472 C476 1.385 . S
C473 H448 0.951 . S
C473 C471 1.388 . S
C473 C474 1.366 . S
C474 C473 1.366 . S
C474 C475 1.414 . S
C474 C477 1.499 . S
C475 H449 0.950 . S
C475 C474 1.414 . S
C475 C476 1.374 . S
C476 H450 0.950 . S
C476 C472 1.385 . S
C476 C475 1.374 . S
C477 C474 1.499 . S
C477 C478 1.373 . S
C477 C479 1.389 . S
C478 H451 0.950 . S
C478 C464 1.377 . S
C478 C477 1.373 . S
C479 C463 1.377 . S
C479 C477 1.389 . S
C479 C480 1.524 . S
C480 C479 1.524 . S
C480 C481 1.397 . S
C480 C485 1.363 1_565 S
C481 H452 0.950 . S
C481 C480 1.397 . S
C481 C482 1.334 1_565 S
C482 H453 0.950 . S
C482 C481 1.334 1_545 S
C482 C483 1.287 . S
C483 C482 1.287 . S
C483 C484 1.524 . S
C483 H486 0.999 . S
C484 H454 0.950 . S
C484 C483 1.524 . S
C484 C485 1.415 . S
C485 H455 0.950 . S
C485 C480 1.363 1_545 S
C485 C484 1.415 . S
H486 C483 0.999 . S
H487 C468 0.913 . S
H488 C506 0.951 . S
H489 C508 0.951 . S
H490 C510 0.950 . S
H491 C511 0.950 . S
H492 C513 0.950 . S
H493 C516 0.950 . S
H494 C517 0.950 . S
H495 C519 0.950 . S
H496 C520 0.950 . S
H497 C521 0.951 . S
H498 C523 0.951 . S
H499 C525 0.950 . S
H500 C526 0.950 . S
H501 C528 0.950 . S
H502 C531 0.950 . S
H503 C532 0.950 . S
H504 C534 0.950 . S
H505 C535 0.950 . S
C506 H488 0.951 . S
C506 C507 1.366 . S
C506 C508 1.388 . S
C507 C506 1.366 . S
C507 C511 1.385 . S
C508 H489 0.951 . S
C508 C506 1.388 . S
C508 C509 1.366 . S
C509 C508 1.366 . S
C509 C510 1.414 . S
C509 C512 1.499 . S
C510 H490 0.950 . S
C510 C509 1.414 . S
C510 C511 1.374 . S
C511 H491 0.950 . S
C511 C507 1.385 . S
C511 C510 1.374 . S
C512 C509 1.499 . S
C512 C513 1.373 . S
C512 C514 1.389 . S
C513 H492 0.950 . S
C513 C512 1.373 . S
C513 C529 1.377 . S
C514 C512 1.389 . S
C514 C515 1.524 . S
C514 C528 1.377 . S
C515 C514 1.524 . S
C515 C516 1.397 . S
C515 C520 1.363 . S
C516 H493 0.950 . S
C516 C515 1.397 . S
C516 C517 1.334 . S
C517 H494 0.950 . S
C517 C516 1.334 . S
C517 C518 1.287 . S
C518 C517 1.287 . S
C518 C519 1.524 . S
C518 H537 0.913 . S
C519 H495 0.950 . S
C519 C518 1.524 . S
C519 C520 1.415 . S
C520 H496 0.950 . S
C520 C515 1.363 . S
C520 C519 1.415 . S
C521 H497 0.951 . S
C521 C522 1.366 . S
C521 C523 1.388 . S
C522 C521 1.366 . S
C522 C526 1.385 . S
C523 H498 0.951 . S
C523 C521 1.388 . S
C523 C524 1.366 . S
C524 C523 1.366 . S
C524 C525 1.414 . S
C524 C527 1.499 . S
C525 H499 0.950 . S
C525 C524 1.414 . S
C525 C526 1.374 . S
C526 H500 0.950 . S
C526 C522 1.385 . S
C526 C525 1.374 . S
C527 C524 1.499 . S
C527 C528 1.373 . S
C527 C529 1.389 . S
C528 H501 0.950 . S
C528 C514 1.377 . S
C528 C527 1.373 . S
C529 C513 1.377 . S
C529 C527 1.389 . S
C529 C530 1.524 . S
C530 C529 1.524 . S
C530 C531 1.397 . S
C530 C535 1.363 . S
C531 H502 0.950 . S
C531 C530 1.397 . S
C531 C532 1.334 1_556 S
C532 H503 0.950 . S
C532 C531 1.334 1_554 S
C532 C533 1.287 . S
C533 C532 1.287 . S
C533 C534 1.524 1_554 S
C533 H536 0.999 . S
C534 H504 0.950 . S
C534 C533 1.524 1_556 S
C534 C535 1.415 . S
C535 H505 0.950 . S
C535 C530 1.363 . S
C535 C534 1.415 . S
H536 C533 0.999 . S
H537 C518 0.913 . S
H538 C556 0.951 . S
H539 C558 0.951 . S
H540 C560 0.950 . S
H541 C561 0.950 . S
H542 C563 0.950 . S
H543 C566 0.950 . S
H544 C567 0.950 . S
H545 C569 0.950 . S
H546 C570 0.950 . S
H547 C571 0.951 . S
H548 C573 0.951 . S
H549 C575 0.950 . S
H550 C576 0.950 . S
H551 C578 0.950 . S
H552 C581 0.950 . S
H553 C582 0.950 . S
H554 C584 0.950 . S
H555 C585 0.950 . S
C556 H538 0.951 . S
C556 C557 1.366 . S
C556 C558 1.388 . S
C557 C556 1.366 . S
C557 C561 1.385 . S
C558 H539 0.951 . S
C558 C556 1.388 . S
C558 C559 1.366 . S
C559 C558 1.366 . S
C559 C560 1.414 . S
C559 C562 1.499 . S
C560 H540 0.950 . S
C560 C559 1.414 . S
C560 C561 1.374 . S
C561 H541 0.950 . S
C561 C557 1.385 . S
C561 C560 1.374 . S
C562 C559 1.499 . S
C562 C563 1.373 . S
C562 C564 1.389 . S
C563 H542 0.950 . S
C563 C562 1.373 . S
C563 C579 1.377 . S
C564 C562 1.389 . S
C564 C565 1.524 . S
C564 C578 1.377 . S
C565 C564 1.524 . S
C565 C566 1.397 . S
C565 C570 1.363 . S
C566 H543 0.950 . S
C566 C565 1.397 . S
C566 C567 1.334 . S
C567 H544 0.950 . S
C567 C566 1.334 . S
C567 C568 1.287 . S
C568 C567 1.287 . S
C568 C569 1.524 . S
C568 H587 0.913 . S
C569 H545 0.950 . S
C569 C568 1.524 . S
C569 C570 1.415 . S
C570 H546 0.950 . S
C570 C565 1.363 . S
C570 C569 1.415 . S
C571 H547 0.951 . S
C571 C572 1.366 . S
C571 C573 1.388 . S
C572 C571 1.366 . S
C572 C576 1.385 . S
C573 H548 0.951 . S
C573 C571 1.388 . S
C573 C574 1.366 . S
C574 C573 1.366 . S
C574 C575 1.414 . S
C574 C577 1.499 . S
C575 H549 0.950 . S
C575 C574 1.414 . S
C575 C576 1.374 . S
C576 H550 0.950 . S
C576 C572 1.385 . S
C576 C575 1.374 . S
C577 C574 1.499 . S
C577 C578 1.373 . S
C577 C579 1.389 . S
C578 H551 0.950 . S
C578 C564 1.377 . S
C578 C577 1.373 . S
C579 C563 1.377 . S
C579 C577 1.389 . S
C579 C580 1.524 . S
C580 C579 1.524 . S
C580 C581 1.397 . S
C580 C585 1.363 . S
C581 H552 0.950 . S
C581 C580 1.397 . S
C581 C582 1.334 . S
C582 H553 0.950 . S
C582 C581 1.334 . S
C582 C583 1.287 . S
C583 C582 1.287 . S
C583 C584 1.524 . S
C583 H586 0.999 . S
C584 H554 0.950 . S
C584 C583 1.524 . S
C584 C585 1.415 . S
C585 H555 0.950 . S
C585 C580 1.363 . S
C585 C584 1.415 . S
H586 C583 0.999 . S
H587 C568 0.913 . S
H588 C606 0.951 . S
H589 C608 0.951 . S
H590 C610 0.950 . S
H591 C611 0.950 . S
H592 C613 0.950 . S
H593 C616 0.950 . S
H594 C617 0.950 . S
H595 C619 0.950 . S
H596 C620 0.950 . S
H597 C621 0.951 . S
H598 C623 0.951 . S
H599 C625 0.950 . S
H600 C626 0.950 . S
H601 C628 0.950 . S
H602 C631 0.950 . S
H603 C632 0.950 . S
H604 C634 0.950 . S
H605 C635 0.950 . S
C606 H588 0.951 . S
C606 C607 1.366 . S
C606 C608 1.388 . S
C607 C606 1.366 . S
C607 C611 1.385 . S
C608 H589 0.951 . S
C608 C606 1.388 . S
C608 C609 1.366 . S
C609 C608 1.366 . S
C609 C610 1.414 . S
C609 C612 1.499 . S
C610 H590 0.950 . S
C610 C609 1.414 . S
C610 C611 1.374 . S
C611 H591 0.950 . S
C611 C607 1.385 . S
C611 C610 1.374 . S
C612 C609 1.499 . S
C612 C613 1.373 . S
C612 C614 1.389 . S
C613 H592 0.950 . S
C613 C612 1.373 . S
C613 C629 1.377 . S
C614 C612 1.389 . S
C614 C615 1.524 . S
C614 C628 1.377 . S
C615 C614 1.524 . S
C615 C616 1.397 . S
C615 C620 1.363 . S
C616 H593 0.950 . S
C616 C615 1.397 . S
C616 C617 1.334 . S
C617 H594 0.950 . S
C617 C616 1.334 . S
C617 C618 1.287 . S
C618 C617 1.287 . S
C618 C619 1.524 . S
C618 H637 0.913 . S
C619 H595 0.950 . S
C619 C618 1.524 . S
C619 C620 1.415 . S
C620 H596 0.950 . S
C620 C615 1.363 . S
C620 C619 1.415 . S
C621 H597 0.951 . S
C621 C622 1.366 . S
C621 C623 1.388 . S
C622 C621 1.366 . S
C622 C626 1.385 . S
C623 H598 0.951 . S
C623 C621 1.388 . S
C623 C624 1.366 . S
C624 C623 1.366 . S
C624 C625 1.414 . S
C624 C627 1.499 . S
C625 H599 0.950 . S
C625 C624 1.414 . S
C625 C626 1.374 . S
C626 H600 0.950 . S
C626 C622 1.385 . S
C626 C625 1.374 . S
C627 C624 1.499 . S
C627 C628 1.373 . S
C627 C629 1.389 . S
C628 H601 0.950 . S
C628 C614 1.377 . S
C628 C627 1.373 . S
C629 C613 1.377 . S
C629 C627 1.389 . S
C629 C630 1.524 . S
C630 C629 1.524 . S
C630 C631 1.397 . S
C630 C635 1.363 . S
C631 H602 0.950 . S
C631 C630 1.397 . S
C631 C632 1.334 . S
C632 H603 0.950 . S
C632 C631 1.334 . S
C632 C633 1.287 . S
C633 C632 1.287 . S
C633 C634 1.524 . S
C633 H636 0.999 . S
C634 H604 0.950 . S
C634 C633 1.524 . S
C634 C635 1.415 . S
C635 H605 0.950 . S
C635 C630 1.363 . S
C635 C634 1.415 . S
H636 C633 0.999 . S
H637 C618 0.913 . S
H638 C656 0.951 . S
H639 C658 0.951 . S
H640 C660 0.950 . S
H641 C661 0.950 . S
H642 C663 0.950 . S
H643 C666 0.950 . S
H644 C667 0.950 . S
H645 C669 0.950 . S
H646 C670 0.950 . S
H647 C671 0.951 . S
H648 C673 0.951 . S
H649 C675 0.950 . S
H650 C676 0.950 . S
H651 C678 0.950 . S
H652 C681 0.935 1_554 S
H653 C682 0.950 1_554 S
H654 C684 0.950 . S
H655 C685 0.950 . S
C656 H638 0.951 . S
C656 C657 1.366 . S
C656 C658 1.388 . S
C657 C656 1.366 . S
C657 C661 1.385 . S
C658 H639 0.951 . S
C658 C656 1.388 . S
C658 C659 1.366 . S
C659 C658 1.366 . S
C659 C660 1.414 . S
C659 C662 1.499 . S
C660 H640 0.950 . S
C660 C659 1.414 . S
C660 C661 1.374 . S
C661 H641 0.950 . S
C661 C657 1.385 . S
C661 C660 1.374 . S
C662 C659 1.499 . S
C662 C663 1.373 . S
C662 C664 1.389 . S
C663 H642 0.950 . S
C663 C662 1.373 . S
C663 C679 1.377 . S
C664 C662 1.389 . S
C664 C665 1.524 . S
C664 C678 1.377 . S
C665 C664 1.524 . S
C665 C666 1.397 . S
C665 C670 1.363 . S
C666 H643 0.950 . S
C666 C665 1.397 . S
C666 C667 1.334 . S
C667 H644 0.950 . S
C667 C666 1.334 . S
C667 C668 1.287 . S
C668 C667 1.287 . S
C668 C669 1.524 . S
C668 H687 0.913 . S
C669 H645 0.950 . S
C669 C668 1.524 . S
C669 C670 1.415 . S
C670 H646 0.950 . S
C670 C665 1.363 . S
C670 C669 1.415 . S
C671 H647 0.951 . S
C671 C672 1.366 1_556 S
C671 C673 1.388 . S
C672 C671 1.366 1_554 S
C672 C676 1.385 . S
C673 H648 0.951 . S
C673 C671 1.388 . S
C673 C674 1.366 . S
C674 C673 1.366 . S
C674 C675 1.414 1_556 S
C674 C677 1.499 . S
C675 H649 0.950 . S
C675 C674 1.414 1_554 S
C675 C676 1.374 . S
C676 H650 0.950 . S
C676 C672 1.385 . S
C676 C675 1.374 . S
C677 C674 1.499 . S
C677 C678 1.373 . S
C677 C679 1.389 . S
C678 H651 0.950 . S
C678 C664 1.377 . S
C678 C677 1.373 . S
C679 C663 1.377 . S
C679 C677 1.389 . S
C679 C680 1.524 . S
C680 C679 1.524 . S
C680 C681 1.397 . S
C680 C685 1.363 . S
C681 H652 0.935 1_556 S
C681 C680 1.397 . S
C681 C682 1.334 . S
C682 H653 0.950 1_556 S
C682 C681 1.334 . S
C682 C683 1.287 . S
C683 C682 1.287 . S
C683 C684 1.524 . S
C683 H686 0.999 . S
C684 H654 0.950 . S
C684 C683 1.524 . S
C684 C685 1.415 . S
C685 H655 0.950 . S
C685 C680 1.363 . S
C685 C684 1.415 . S
H686 C683 0.999 . S
H687 C668 0.913 . S
H688 C706 0.951 . S
H689 C708 0.951 . S
H690 C710 0.950 . S
H691 C711 0.950 . S
H692 C713 0.950 . S
H693 C716 0.950 . S
H694 C717 0.950 . S
H695 C719 0.950 . S
H696 C720 0.950 . S
H697 C721 0.951 . S
H698 C723 0.951 . S
H699 C725 0.950 . S
H700 C726 0.950 . S
H701 C728 0.950 . S
H702 C731 0.950 1_655 S
H703 C732 0.950 . S
H704 C734 0.950 . S
H705 C735 0.950 . S
C706 H688 0.951 . S
C706 C707 1.366 . S
C706 C708 1.388 . S
C707 C706 1.366 . S
C707 C711 1.385 . S
C708 H689 0.951 . S
C708 C706 1.388 . S
C708 C709 1.366 . S
C709 C708 1.366 . S
C709 C710 1.414 . S
C709 C712 1.499 . S
C710 H690 0.950 . S
C710 C709 1.414 . S
C710 C711 1.374 . S
C711 H691 0.950 . S
C711 C707 1.385 . S
C711 C710 1.374 . S
C712 C709 1.499 . S
C712 C713 1.373 . S
C712 C714 1.389 . S
C713 H692 0.950 . S
C713 C712 1.373 . S
C713 C729 1.377 . S
C714 C712 1.389 . S
C714 C715 1.524 . S
C714 C728 1.377 . S
C715 C714 1.524 . S
C715 C716 1.397 . S
C715 C720 1.363 . S
C716 H693 0.950 . S
C716 C715 1.397 . S
C716 C717 1.334 . S
C717 H694 0.950 . S
C717 C716 1.334 . S
C717 C718 1.287 . S
C718 C717 1.287 . S
C718 C719 1.524 . S
C718 H737 0.913 . S
C719 H695 0.950 . S
C719 C718 1.524 . S
C719 C720 1.415 . S
C720 H696 0.950 . S
C720 C715 1.363 . S
C720 C719 1.415 . S
C721 H697 0.951 . S
C721 C722 1.366 . S
C721 C723 1.388 . S
C722 C721 1.366 . S
C722 C726 1.385 . S
C723 H698 0.951 . S
C723 C721 1.388 . S
C723 C724 1.366 . S
C724 C723 1.366 . S
C724 C725 1.414 . S
C724 C727 1.499 . S
C725 H699 0.950 . S
C725 C724 1.414 . S
C725 C726 1.374 . S
C726 H700 0.950 . S
C726 C722 1.385 . S
C726 C725 1.374 . S
C727 C724 1.499 . S
C727 C728 1.373 . S
C727 C729 1.389 . S
C728 H701 0.950 . S
C728 C714 1.377 . S
C728 C727 1.373 . S
C729 C713 1.377 . S
C729 C727 1.389 . S
C729 C730 1.524 . S
C730 C729 1.524 . S
C730 C731 1.397 1_655 S
C730 C735 1.363 . S
C731 H702 0.950 1_455 S
C731 C730 1.397 1_455 S
C731 C732 1.334 . S
C732 H703 0.950 . S
C732 C731 1.334 . S
C732 C733 1.287 . S
C733 C732 1.287 . S
C733 C734 1.524 . S
C733 H736 0.999 . S
C734 H704 0.950 . S
C734 C733 1.524 . S
C734 C735 1.415 1_455 S
C735 H705 0.950 . S
C735 C730 1.363 . S
C735 C734 1.415 1_655 S
H736 C733 0.999 . S
H737 C718 0.913 . S
H738 C756 0.951 . S
H739 C758 0.951 . S
H740 C760 0.950 . S
H741 C761 0.950 . S
H742 C763 0.950 . S
H743 C766 0.950 . S
H744 C767 0.950 . S
H745 C769 0.950 . S
H746 C770 0.950 . S
H747 C771 0.951 . S
H748 C773 0.951 . S
H749 C775 0.950 . S
H750 C776 0.950 . S
H751 C778 0.950 . S
H752 C781 0.950 . S
H753 C782 0.950 . S
H754 C784 0.950 . S
H755 C785 0.950 . S
C756 H738 0.951 . S
C756 C757 1.366 . S
C756 C758 1.388 . S
C757 C756 1.366 . S
C757 C761 1.385 . S
C758 H739 0.951 . S
C758 C756 1.388 . S
C758 C759 1.366 . S
C759 C758 1.366 . S
C759 C760 1.414 . S
C759 C762 1.499 . S
C760 H740 0.950 . S
C760 C759 1.414 . S
C760 C761 1.374 . S
C761 H741 0.950 . S
C761 C757 1.385 . S
C761 C760 1.374 . S
C762 C759 1.499 . S
C762 C763 1.373 . S
C762 C764 1.389 . S
C763 H742 0.950 . S
C763 C762 1.373 . S
C763 C779 1.377 . S
C764 C762 1.389 . S
C764 C765 1.524 . S
C764 C778 1.377 . S
C765 C764 1.524 . S
C765 C766 1.397 . S
C765 C770 1.363 . S
C766 H743 0.950 . S
C766 C765 1.397 . S
C766 C767 1.334 . S
C767 H744 0.950 . S
C767 C766 1.334 . S
C767 C768 1.287 . S
C768 C767 1.287 . S
C768 C769 1.524 . S
C768 H787 0.913 . S
C769 H745 0.950 . S
C769 C768 1.524 . S
C769 C770 1.415 . S
C770 H746 0.950 . S
C770 C765 1.363 . S
C770 C769 1.415 . S
C771 H747 0.951 . S
C771 C772 1.366 . S
C771 C773 1.388 . S
C772 C771 1.366 . S
C772 C776 1.385 . S
C773 H748 0.951 . S
C773 C771 1.388 . S
C773 C774 1.366 . S
C774 C773 1.366 . S
C774 C775 1.414 . S
C774 C777 1.499 . S
C775 H749 0.950 . S
C775 C774 1.414 . S
C775 C776 1.374 . S
C776 H750 0.950 . S
C776 C772 1.385 . S
C776 C775 1.374 . S
C777 C774 1.499 . S
C777 C778 1.373 . S
C777 C779 1.389 . S
C778 H751 0.950 . S
C778 C764 1.377 . S
C778 C777 1.373 . S
C779 C763 1.377 . S
C779 C777 1.389 . S
C779 C780 1.524 . S
C780 C779 1.524 . S
C780 C781 1.397 . S
C780 C785 1.363 . S
C781 H752 0.950 . S
C781 C780 1.397 . S
C781 C782 1.334 . S
C782 H753 0.950 . S
C782 C781 1.334 . S
C782 C783 1.287 . S
C783 C782 1.287 . S
C783 C784 1.524 . S
C783 H786 0.999 . S
C784 H754 0.950 . S
C784 C783 1.524 . S
C784 C785 1.415 . S
C785 H755 0.950 . S
C785 C780 1.363 . S
C785 C784 1.415 . S
H786 C783 0.999 . S
H787 C768 0.913 . S
H788 C806 0.951 . S
H789 C808 0.951 . S
H790 C810 0.950 1_545 S
H791 C811 0.950 1_545 S
H792 C813 0.950 . S
H793 C816 0.965 . S
H794 C817 0.957 . S
H795 C819 0.950 . S
H796 C820 0.950 . S
H797 C821 0.951 . S
H798 C823 0.951 . S
H799 C825 0.950 . S
H800 C826 0.950 . S
H801 C828 0.950 . S
H802 C831 0.950 . S
H803 C832 0.950 . S
H804 C834 0.950 . S
H805 C835 0.950 . S
C806 H788 0.951 . S
C806 C807 1.366 . S
C806 C808 1.388 . S
C807 C806 1.366 . S
C807 C811 1.385 . S
C808 H789 0.951 . S
C808 C806 1.388 . S
C808 C809 1.366 . S
C809 C808 1.366 . S
C809 C810 1.414 . S
C809 C812 1.499 . S
C810 H790 0.950 1_565 S
C810 C809 1.414 . S
C810 C811 1.374 . S
C811 H791 0.950 1_565 S
C811 C807 1.385 . S
C811 C810 1.374 . S
C812 C809 1.499 . S
C812 C813 1.373 . S
C812 C814 1.389 1_655 S
C813 H792 0.950 . S
C813 C812 1.373 . S
C813 C829 1.377 . S
C814 C812 1.389 1_455 S
C814 C815 1.524 . S
C814 C828 1.377 . S
C815 C814 1.524 . S
C815 C816 1.383 1_565 S
C815 C820 1.363 . S
C816 H793 0.965 . S
C816 C815 1.383 1_545 S
C816 C817 1.334 . S
C817 H794 0.957 . S
C817 C816 1.334 . S
C817 C818 1.279 1_545 S
C818 C817 1.279 1_565 S
C818 C819 1.524 . S
C818 H837 0.913 . S
C819 H795 0.950 . S
C819 C818 1.524 . S
C819 C820 1.415 . S
C820 H796 0.950 . S
C820 C815 1.363 . S
C820 C819 1.415 . S
C821 H797 0.951 . S
C821 C822 1.366 1_655 S
C821 C823 1.388 . S
C822 C821 1.366 1_455 S
C822 C826 1.385 1_545 S
C823 H798 0.951 . S
C823 C821 1.388 . S
C823 C824 1.366 1_545 S
C824 C823 1.366 1_565 S
C824 C825 1.414 1_655 S
C824 C827 1.499 . S
C825 H799 0.950 . S
C825 C824 1.414 1_455 S
C825 C826 1.374 . S
C826 H800 0.950 . S
C826 C822 1.385 1_565 S
C826 C825 1.374 . S
C827 C824 1.499 . S
C827 C828 1.373 1_655 S
C827 C829 1.389 . S
C828 H801 0.950 . S
C828 C814 1.377 . S
C828 C827 1.373 1_455 S
C829 C813 1.377 . S
C829 C827 1.389 . S
C829 C830 1.524 . S
C830 C829 1.524 . S
C830 C831 1.397 . S
C830 C835 1.363 1_565 S
C831 H802 0.950 . S
C831 C830 1.397 . S
C831 C832 1.334 . S
C832 H803 0.950 . S
C832 C831 1.334 . S
C832 C833 1.287 . S
C833 C832 1.287 . S
C833 C834 1.524 1_565 S
C833 H836 0.999 . S
C834 H804 0.950 . S
C834 C833 1.524 1_545 S
C834 C835 1.415 . S
C835 H805 0.950 . S
C835 C830 1.363 1_545 S
C835 C834 1.415 . S
H836 C833 0.999 . S
H837 C818 0.913 . S
H838 C856 0.951 . S
H839 C858 0.951 . S
H840 C860 0.950 . S
H841 C861 0.950 . S
H842 C863 0.950 . S
H843 C866 0.950 . S
H844 C867 0.950 . S
H845 C869 0.950 . S
H846 C870 0.950 . S
H847 C871 0.951 . S
H848 C873 0.951 . S
H849 C875 0.950 . S
H850 C876 0.950 . S
H851 C878 0.950 . S
H852 C881 0.950 . S
H853 C882 0.950 . S
H854 C884 0.950 . S
H855 C885 0.950 . S
C856 H838 0.951 . S
C856 C857 1.366 . S
C856 C858 1.388 . S
C857 C856 1.366 . S
C857 C861 1.385 . S
C858 H839 0.951 . S
C858 C856 1.388 . S
C858 C859 1.366 . S
C859 C858 1.366 . S
C859 C860 1.414 . S
C859 C862 1.499 . S
C860 H840 0.950 . S
C860 C859 1.414 . S
C860 C861 1.374 . S
C861 H841 0.950 . S
C861 C857 1.385 . S
C861 C860 1.374 . S
C862 C859 1.499 . S
C862 C863 1.373 . S
C862 C864 1.389 . S
C863 H842 0.950 . S
C863 C862 1.373 . S
C863 C879 1.377 . S
C864 C862 1.389 . S
C864 C865 1.524 . S
C864 C878 1.377 . S
C865 C864 1.524 . S
C865 C866 1.397 . S
C865 C870 1.363 . S
C866 H843 0.950 . S
C866 C865 1.397 . S
C866 C867 1.334 . S
C867 H844 0.950 . S
C867 C866 1.334 . S
C867 C868 1.287 . S
C868 C867 1.287 . S
C868 C869 1.524 . S
C868 H887 0.913 . S
C869 H845 0.950 . S
C869 C868 1.524 . S
C869 C870 1.415 . S
C870 H846 0.950 . S
C870 C865 1.363 . S
C870 C869 1.415 . S
C871 H847 0.951 . S
C871 C872 1.366 . S
C871 C873 1.388 . S
C872 C871 1.366 . S
C872 C876 1.385 . S
C873 H848 0.951 . S
C873 C871 1.388 . S
C873 C874 1.366 . S
C874 C873 1.366 . S
C874 C875 1.414 . S
C874 C877 1.499 . S
C875 H849 0.950 . S
C875 C874 1.414 . S
C875 C876 1.374 . S
C876 H850 0.950 . S
C876 C872 1.385 . S
C876 C875 1.374 . S
C877 C874 1.499 . S
C877 C878 1.373 . S
C877 C879 1.389 . S
C878 H851 0.950 . S
C878 C864 1.377 . S
C878 C877 1.373 . S
C879 C863 1.377 . S
C879 C877 1.389 . S
C879 C880 1.524 . S
C880 C879 1.524 . S
C880 C881 1.397 1_545 S
C880 C885 1.363 1_545 S
C881 H852 0.950 . S
C881 C880 1.397 1_565 S
C881 C882 1.334 . S
C882 H853 0.950 . S
C882 C881 1.334 . S
C882 C883 1.287 . S
C883 C882 1.287 . S
C883 C884 1.524 . S
C883 H886 0.999 . S
C884 H854 0.950 . S
C884 C883 1.524 . S
C884 C885 1.415 . S
C885 H855 0.950 . S
C885 C880 1.363 1_565 S
C885 C884 1.415 . S
H886 C883 0.999 . S
H887 C868 0.913 . S
H888 C906 0.951 . S
H889 C908 0.951 . S
H890 C910 0.950 . S
H891 C911 0.950 . S
H892 C913 0.950 . S
H893 C916 0.950 . S
H894 C917 0.950 . S
H895 C919 0.950 . S
H896 C920 0.950 . S
H897 C921 0.951 . S
H898 C923 0.951 . S
H899 C925 0.950 . S
H900 C926 0.950 . S
H901 C928 0.950 . S
H902 C931 0.950 . S
H903 C932 0.950 . S
H904 C934 0.950 . S
H905 C935 0.950 . S
C906 H888 0.951 . S
C906 C907 1.366 . S
C906 C908 1.388 . S
C907 C906 1.366 . S
C907 C911 1.385 . S
C908 H889 0.951 . S
C908 C906 1.388 . S
C908 C909 1.366 . S
C909 C908 1.366 . S
C909 C910 1.414 . S
C909 C912 1.499 . S
C910 H890 0.950 . S
C910 C909 1.414 . S
C910 C911 1.374 . S
C911 H891 0.950 . S
C911 C907 1.385 . S
C911 C910 1.374 . S
C912 C909 1.499 . S
C912 C913 1.373 . S
C912 C914 1.389 . S
C913 H892 0.950 . S
C913 C912 1.373 . S
C913 C929 1.377 . S
C914 C912 1.389 . S
C914 C915 1.524 . S
C914 C928 1.377 . S
C915 C914 1.524 . S
C915 C916 1.397 . S
C915 C920 1.363 . S
C916 H893 0.950 . S
C916 C915 1.397 . S
C916 C917 1.334 . S
C917 H894 0.950 . S
C917 C916 1.334 . S
C917 C918 1.287 . S
C918 C917 1.287 . S
C918 C919 1.524 . S
C918 H937 0.913 . S
C919 H895 0.950 . S
C919 C918 1.524 . S
C919 C920 1.415 . S
C920 H896 0.950 . S
C920 C915 1.363 . S
C920 C919 1.415 . S
C921 H897 0.951 . S
C921 C922 1.366 . S
C921 C923 1.388 . S
C922 C921 1.366 . S
C922 C926 1.385 . S
C923 H898 0.951 . S
C923 C921 1.388 . S
C923 C924 1.366 . S
C924 C923 1.366 . S
C924 C925 1.414 . S
C924 C927 1.499 . S
C925 H899 0.950 . S
C925 C924 1.414 . S
C925 C926 1.374 . S
C926 H900 0.950 . S
C926 C922 1.385 . S
C926 C925 1.374 . S
C927 C924 1.499 . S
C927 C928 1.373 . S
C927 C929 1.389 . S
C928 H901 0.950 . S
C928 C914 1.377 . S
C928 C927 1.373 . S
C929 C913 1.377 . S
C929 C927 1.389 . S
C929 C930 1.524 . S
C930 C929 1.524 . S
C930 C931 1.397 . S
C930 C935 1.363 . S
C931 H902 0.950 . S
C931 C930 1.397 . S
C931 C932 1.334 . S
C932 H903 0.950 . S
C932 C931 1.334 . S
C932 C933 1.287 . S
C933 C932 1.287 . S
C933 C934 1.524 . S
C933 H936 0.999 . S
C934 H904 0.950 . S
C934 C933 1.524 . S
C934 C935 1.415 . S
C935 H905 0.950 . S
C935 C930 1.363 . S
C935 C934 1.415 . S
H936 C933 0.999 . S
H937 C918 0.913 . S
H938 C956 0.951 . S
H939 C958 0.951 . S
H940 C960 0.950 . S
H941 C961 0.950 . S
H942 C963 0.950 . S
H943 C966 0.950 1_455 S
H944 C967 0.950 . S
H945 C969 0.950 . S
H946 C970 0.950 . S
H947 C971 0.951 . S
H948 C973 0.951 . S
H949 C975 0.952 1_655 S
H950 C976 0.950 1_655 S
H951 C978 0.950 1_655 S
H952 C981 0.950 . S
H953 C982 0.950 . S
H954 C984 0.950 . S
H955 C985 0.950 . S
C956 H938 0.951 . S
C956 C957 1.366 . S
C956 C958 1.388 . S
C957 C956 1.366 . S
C957 C961 1.385 . S
C958 H939 0.951 . S
C958 C956 1.388 . S
C958 C959 1.366 . S
C959 C958 1.366 . S
C959 C960 1.414 . S
C959 C962 1.499 . S
C960 H940 0.950 . S
C960 C959 1.414 . S
C960 C961 1.374 . S
C961 H941 0.950 . S
C961 C957 1.385 . S
C961 C960 1.374 . S
C962 C959 1.499 . S
C962 C963 1.373 . S
C962 C964 1.389 . S
C963 H942 0.950 . S
C963 C962 1.373 . S
C963 C979 1.377 . S
C964 C962 1.389 . S
C964 C965 1.524 1_455 S
C964 C978 1.377 . S
C965 C964 1.524 1_655 S
C965 C966 1.397 . S
C965 C970 1.363 . S
C966 H943 0.950 1_655 S
C966 C965 1.397 . S
C966 C967 1.334 . S
C967 H944 0.950 . S
C967 C966 1.334 . S
C967 C968 1.287 . S
C968 C967 1.287 . S
C968 C969 1.524 . S
C968 H987 0.913 . S
C969 H945 0.950 . S
C969 C968 1.524 . S
C969 C970 1.415 . S
C970 H946 0.950 . S
C970 C965 1.363 . S
C970 C969 1.415 . S
C971 H947 0.951 . S
C971 C972 1.366 . S
C971 C973 1.388 . S
C972 C971 1.366 . S
C972 C976 1.385 . S
C973 H948 0.951 . S
C973 C971 1.388 . S
C973 C974 1.366 . S
C974 C973 1.366 . S
C974 C975 1.414 . S
C974 C977 1.499 . S
C975 H949 0.952 1_455 S
C975 C974 1.414 . S
C975 C976 1.374 . S
C976 H950 0.950 1_455 S
C976 C972 1.385 . S
C976 C975 1.374 . S
C977 C974 1.499 . S
C977 C978 1.373 . S
C977 C979 1.389 . S
C978 H951 0.950 1_455 S
C978 C964 1.377 . S
C978 C977 1.373 . S
C979 C963 1.377 . S
C979 C977 1.389 . S
C979 C980 1.524 . S
C980 C979 1.524 . S
C980 C981 1.397 . S
C980 C985 1.363 . S
C981 H952 0.950 . S
C981 C980 1.397 . S
C981 C982 1.334 . S
C982 H953 0.950 . S
C982 C981 1.334 . S
C982 C983 1.287 . S
C983 C982 1.287 . S
C983 C984 1.524 . S
C983 H986 0.999 . S
C984 H954 0.950 . S
C984 C983 1.524 . S
C984 C985 1.415 . S
C985 H955 0.950 . S
C985 C980 1.363 . S
C985 C984 1.415 . S
H986 C983 0.999 . S
H987 C968 0.913 . S
H988 C1006 0.951 . S
H989 C1008 0.951 . S
H990 C1010 0.950 1_545 S
H991 C1011 0.950 1_545 S
H992 C1013 0.950 . S
H993 C1016 0.950 . S
H994 C1017 0.950 . S
H995 C1019 0.950 . S
H996 C1020 0.950 . S
H997 C1021 0.951 . S
H998 C1023 0.951 . S
H999 C1025 0.950 1_556 S
H1000 C1026 0.950 . S
H1001 C1028 0.942 1_545 S
H1002 C1031 0.950 . S
H1003 C1032 0.950 . S
H1004 C1034 0.950 . S
H1005 C1035 0.950 . S
C1006 H988 0.951 . S
C1006 C1007 1.366 . S
C1006 C1008 1.388 . S
C1007 C1006 1.366 . S
C1007 C1011 1.385 1_556 S
C1008 H989 0.951 . S
C1008 C1006 1.388 . S
C1008 C1009 1.366 . S
C1009 C1008 1.366 . S
C1009 C1010 1.414 1_556 S
C1009 C1012 1.499 1_556 S
C1010 H990 0.950 1_565 S
C1010 C1009 1.414 1_554 S
C1010 C1011 1.374 . S
C1011 H991 0.950 1_565 S
C1011 C1007 1.385 1_554 S
C1011 C1010 1.374 . S
C1012 C1009 1.499 1_554 S
C1012 C1013 1.373 . S
C1012 C1014 1.389 1_554 S
C1013 H992 0.950 . S
C1013 C1012 1.373 . S
C1013 C1029 1.377 . S
C1014 C1012 1.389 1_556 S
C1014 C1015 1.524 1_565 S
C1014 C1028 1.380 . S
C1015 C1014 1.524 1_545 S
C1015 C1016 1.397 . S
C1015 C1020 1.363 1_545 S
C1016 H993 0.950 . S
C1016 C1015 1.397 . S
C1016 C1017 1.334 . S
C1017 H994 0.950 . S
C1017 C1016 1.334 . S
C1017 C1018 1.287 . S
C1018 C1017 1.287 . S
C1018 C1019 1.524 . S
C1018 H1037 0.913 . S
C1019 H995 0.950 . S
C1019 C1018 1.524 . S
C1019 C1020 1.415 1_545 S
C1020 H996 0.950 . S
C1020 C1015 1.363 1_565 S
C1020 C1019 1.415 1_565 S
C1021 H997 0.951 . S
C1021 C1022 1.366 . S
C1021 C1023 1.388 . S
C1022 C1021 1.366 . S
C1022 C1026 1.385 1_545 S
C1023 H998 0.951 . S
C1023 C1021 1.388 . S
C1023 C1024 1.366 1_545 S
C1024 C1023 1.366 1_565 S
C1024 C1025 1.414 . S
C1024 C1027 1.499 . S
C1025 H999 0.950 1_554 S
C1025 C1024 1.414 . S
C1025 C1026 1.374 . S
C1026 H1000 0.950 . S
C1026 C1022 1.385 1_565 S
C1026 C1025 1.374 . S
C1027 C1024 1.499 . S
C1027 C1028 1.379 1_554 S
C1027 C1029 1.389 . S
C1028 H1001 0.942 1_565 S
C1028 C1014 1.380 . S
C1028 C1027 1.379 1_556 S
C1029 C1013 1.377 . S
C1029 C1027 1.389 . S
C1029 C1030 1.524 . S
C1030 C1029 1.524 . S
C1030 C1031 1.397 . S
C1030 C1035 1.363 . S
C1031 H1002 0.950 . S
C1031 C1030 1.397 . S
C1031 C1032 1.334 . S
C1032 H1003 0.950 . S
C1032 C1031 1.334 . S
C1032 C1033 1.287 . S
C1033 C1032 1.287 . S
C1033 C1034 1.524 . S
C1033 H1036 0.999 . S
C1034 H1004 0.950 . S
C1034 C1033 1.524 . S
C1034 C1035 1.415 . S
C1035 H1005 0.950 . S
C1035 C1030 1.363 . S
C1035 C1034 1.415 . S
H1036 C1033 0.999 . S
H1037 C1018 0.913 . S
H1038 C1056 0.951 . S
H1039 C1058 0.951 . S
H1040 C1060 0.950 . S
H1041 C1061 0.950 . S
H1042 C1063 0.950 . S
H1043 C1066 0.950 . S
H1044 C1067 0.950 . S
H1045 C1069 0.950 . S
H1046 C1070 0.950 . S
H1047 C1071 0.951 . S
H1048 C1073 0.951 . S
H1049 C1075 0.950 . S
H1050 C1076 0.950 . S
H1051 C1078 0.950 . S
H1052 C1081 0.950 . S
H1053 C1082 0.950 . S
H1054 C1084 0.950 . S
H1055 C1085 0.950 . S
C1056 H1038 0.951 . S
C1056 C1057 1.366 . S
C1056 C1058 1.388 . S
C1057 C1056 1.366 . S
C1057 C1061 1.385 . S
C1058 H1039 0.951 . S
C1058 C1056 1.388 . S
C1058 C1059 1.366 . S
C1059 C1058 1.366 . S
C1059 C1060 1.414 . S
C1059 C1062 1.499 . S
C1060 H1040 0.950 . S
C1060 C1059 1.414 . S
C1060 C1061 1.374 . S
C1061 H1041 0.950 . S
C1061 C1057 1.385 . S
C1061 C1060 1.374 . S
C1062 C1059 1.499 . S
C1062 C1063 1.373 . S
C1062 C1064 1.389 . S
C1063 H1042 0.950 . S
C1063 C1062 1.373 . S
C1063 C1079 1.377 . S
C1064 C1062 1.389 . S
C1064 C1065 1.524 . S
C1064 C1078 1.377 . S
C1065 C1064 1.524 . S
C1065 C1066 1.397 . S
C1065 C1070 1.363 . S
C1066 H1043 0.950 . S
C1066 C1065 1.397 . S
C1066 C1067 1.334 . S
C1067 H1044 0.950 . S
C1067 C1066 1.334 . S
C1067 C1068 1.287 . S
C1068 C1067 1.287 . S
C1068 C1069 1.524 . S
C1068 H1087 0.913 . S
C1069 H1045 0.950 . S
C1069 C1068 1.524 . S
C1069 C1070 1.415 . S
C1070 H1046 0.950 . S
C1070 C1065 1.363 . S
C1070 C1069 1.415 . S
C1071 H1047 0.951 . S
C1071 C1072 1.366 . S
C1071 C1073 1.388 . S
C1072 C1071 1.366 . S
C1072 C1076 1.385 . S
C1073 H1048 0.951 . S
C1073 C1071 1.388 . S
C1073 C1074 1.366 . S
C1074 C1073 1.366 . S
C1074 C1075 1.414 . S
C1074 C1077 1.499 . S
C1075 H1049 0.950 . S
C1075 C1074 1.414 . S
C1075 C1076 1.374 . S
C1076 H1050 0.950 . S
C1076 C1072 1.385 . S
C1076 C1075 1.374 . S
C1077 C1074 1.499 . S
C1077 C1078 1.373 . S
C1077 C1079 1.389 . S
C1078 H1051 0.950 . S
C1078 C1064 1.377 . S
C1078 C1077 1.373 . S
C1079 C1063 1.377 . S
C1079 C1077 1.389 . S
C1079 C1080 1.524 . S
C1080 C1079 1.524 . S
C1080 C1081 1.397 . S
C1080 C1085 1.363 1_545 S
C1081 H1052 0.950 . S
C1081 C1080 1.397 . S
C1081 C1082 1.334 . S
C1082 H1053 0.950 . S
C1082 C1081 1.334 . S
C1082 C1083 1.287 1_545 S
C1083 C1082 1.287 1_565 S
C1083 C1084 1.524 . S
C1083 H1086 0.999 . S
C1084 H1054 0.950 . S
C1084 C1083 1.524 . S
C1084 C1085 1.415 . S
C1085 H1055 0.950 . S
C1085 C1080 1.363 1_565 S
C1085 C1084 1.415 . S
H1086 C1083 0.999 . S
H1087 C1068 0.913 . S
H1088 C1106 0.951 . S
H1089 C1108 0.951 . S
H1090 C1110 0.950 . S
H1091 C1111 0.950 . S
H1092 C1113 0.950 . S
H1093 C1116 0.950 . S
H1094 C1117 0.950 . S
H1095 C1119 0.950 . S
H1096 C1120 0.950 . S
H1097 C1121 0.951 . S
H1098 C1123 0.951 . S
H1099 C1125 0.950 . S
H1100 C1126 0.950 . S
H1101 C1128 0.950 . S
H1102 C1131 0.950 . S
H1103 C1132 0.950 . S
H1104 C1134 0.950 . S
H1105 C1135 0.950 . S
C1106 H1088 0.951 . S
C1106 C1107 1.366 . S
C1106 C1108 1.388 . S
C1107 C1106 1.366 . S
C1107 C1111 1.385 . S
C1108 H1089 0.951 . S
C1108 C1106 1.388 . S
C1108 C1109 1.366 . S
C1109 C1108 1.366 . S
C1109 C1110 1.414 . S
C1109 C1112 1.499 . S
C1110 H1090 0.950 . S
C1110 C1109 1.414 . S
C1110 C1111 1.374 . S
C1111 H1091 0.950 . S
C1111 C1107 1.385 . S
C1111 C1110 1.374 . S
C1112 C1109 1.499 . S
C1112 C1113 1.373 . S
C1112 C1114 1.389 . S
C1113 H1092 0.950 . S
C1113 C1112 1.373 . S
C1113 C1129 1.377 . S
C1114 C1112 1.389 . S
C1114 C1115 1.524 . S
C1114 C1128 1.377 . S
C1115 C1114 1.524 . S
C1115 C1116 1.397 . S
C1115 C1120 1.363 . S
C1116 H1093 0.950 . S
C1116 C1115 1.397 . S
C1116 C1117 1.334 . S
C1117 H1094 0.950 . S
C1117 C1116 1.334 . S
C1117 C1118 1.287 . S
C1118 C1117 1.287 . S
C1118 C1119 1.524 . S
C1118 H1137 0.913 . S
C1119 H1095 0.950 . S
C1119 C1118 1.524 . S
C1119 C1120 1.415 . S
C1120 H1096 0.950 . S
C1120 C1115 1.363 . S
C1120 C1119 1.415 . S
C1121 H1097 0.951 . S
C1121 C1122 1.366 . S
C1121 C1123 1.388 . S
C1122 C1121 1.366 . S
C1122 C1126 1.385 . S
C1123 H1098 0.951 . S
C1123 C1121 1.388 . S
C1123 C1124 1.366 . S
C1124 C1123 1.366 . S
C1124 C1125 1.414 . S
C1124 C1127 1.499 . S
C1125 H1099 0.950 . S
C1125 C1124 1.414 . S
C1125 C1126 1.374 . S
C1126 H1100 0.950 . S
C1126 C1122 1.385 . S
C1126 C1125 1.374 . S
C1127 C1124 1.499 . S
C1127 C1128 1.373 . S
C1127 C1129 1.389 . S
C1128 H1101 0.950 . S
C1128 C1114 1.377 . S
C1128 C1127 1.373 . S
C1129 C1113 1.377 . S
C1129 C1127 1.389 . S
C1129 C1130 1.524 1_554 S
C1130 C1129 1.524 1_556 S
C1130 C1131 1.397 . S
C1130 C1135 1.363 . S
C1131 H1102 0.950 . S
C1131 C1130 1.397 . S
C1131 C1132 1.334 . S
C1132 H1103 0.950 . S
C1132 C1131 1.334 . S
C1132 C1133 1.287 . S
C1133 C1132 1.287 . S
C1133 C1134 1.524 . S
C1133 H1136 0.999 . S
C1134 H1104 0.950 . S
C1134 C1133 1.524 . S
C1134 C1135 1.415 . S
C1135 H1105 0.950 . S
C1135 C1130 1.363 . S
C1135 C1134 1.415 . S
H1136 C1133 0.999 . S
H1137 C1118 0.913 . S
H1138 C1156 0.951 . S
H1139 C1158 0.951 . S
H1140 C1160 0.950 . S
H1141 C1161 0.950 . S
H1142 C1163 0.950 . S
H1143 C1166 0.950 . S
H1144 C1167 0.950 . S
H1145 C1169 0.950 . S
H1146 C1170 0.950 . S
H1147 C1171 0.951 . S
H1148 C1173 0.951 . S
H1149 C1175 0.950 . S
H1150 C1176 0.950 . S
H1151 C1178 0.950 . S
H1152 C1181 0.950 . S
H1153 C1182 0.950 . S
H1154 C1184 0.950 . S
H1155 C1185 0.950 . S
C1156 H1138 0.951 . S
C1156 C1157 1.366 . S
C1156 C1158 1.388 . S
C1157 C1156 1.366 . S
C1157 C1161 1.385 . S
C1158 H1139 0.951 . S
C1158 C1156 1.388 . S
C1158 C1159 1.366 . S
C1159 C1158 1.366 . S
C1159 C1160 1.414 . S
C1159 C1162 1.499 . S
C1160 H1140 0.950 . S
C1160 C1159 1.414 . S
C1160 C1161 1.374 . S
C1161 H1141 0.950 . S
C1161 C1157 1.385 . S
C1161 C1160 1.374 . S
C1162 C1159 1.499 . S
C1162 C1163 1.373 . S
C1162 C1164 1.389 . S
C1163 H1142 0.950 . S
C1163 C1162 1.373 . S
C1163 C1179 1.377 . S
C1164 C1162 1.389 . S
C1164 C1165 1.524 . S
C1164 C1178 1.377 . S
C1165 C1164 1.524 . S
C1165 C1166 1.397 . S
C1165 C1170 1.363 . S
C1166 H1143 0.950 . S
C1166 C1165 1.397 . S
C1166 C1167 1.334 . S
C1167 H1144 0.950 . S
C1167 C1166 1.334 . S
C1167 C1168 1.287 . S
C1168 C1167 1.287 . S
C1168 C1169 1.524 . S
C1168 H1187 0.913 . S
C1169 H1145 0.950 . S
C1169 C1168 1.524 . S
C1169 C1170 1.415 . S
C1170 H1146 0.950 . S
C1170 C1165 1.363 . S
C1170 C1169 1.415 . S
C1171 H1147 0.951 . S
C1171 C1172 1.366 . S
C1171 C1173 1.388 . S
C1172 C1171 1.366 . S
C1172 C1176 1.385 . S
C1173 H1148 0.951 . S
C1173 C1171 1.388 . S
C1173 C1174 1.366 . S
C1174 C1173 1.366 . S
C1174 C1175 1.414 . S
C1174 C1177 1.499 . S
C1175 H1149 0.950 . S
C1175 C1174 1.414 . S
C1175 C1176 1.374 . S
C1176 H1150 0.950 . S
C1176 C1172 1.385 . S
C1176 C1175 1.374 . S
C1177 C1174 1.499 . S
C1177 C1178 1.373 . S
C1177 C1179 1.389 . S
C1178 H1151 0.950 . S
C1178 C1164 1.377 . S
C1178 C1177 1.373 . S
C1179 C1163 1.377 . S
C1179 C1177 1.389 . S
C1179 C1180 1.524 . S
C1180 C1179 1.524 . S
C1180 C1181 1.397 . S
C1180 C1185 1.363 . S
C1181 H1152 0.950 . S
C1181 C1180 1.397 . S
C1181 C1182 1.334 . S
C1182 H1153 0.950 . S
C1182 C1181 1.334 . S
C1182 C1183 1.287 . S
C1183 C1182 1.287 . S
C1183 C1184 1.524 . S
C1183 H1186 0.999 . S
C1184 H1154 0.950 . S
C1184 C1183 1.524 . S
C1184 C1185 1.415 . S
C1185 H1155 0.950 . S
C1185 C1180 1.363 . S
C1185 C1184 1.415 . S
H1186 C1183 0.999 . S
H1187 C1168 0.913 . S
H1188 C1206 0.951 . S
H1189 C1208 0.951 1_455 S
H1190 C1210 0.950 . S
H1191 C1211 0.950 . S
H1192 C1213 0.950 1_554 S
H1193 C1216 0.950 . S
H1194 C1217 0.950 . S
H1195 C1219 0.950 . S
H1196 C1220 0.950 . S
H1197 C1221 0.951 . S
H1198 C1223 0.951 . S
H1199 C1225 0.950 . S
H1200 C1226 0.950 . S
H1201 C1228 0.937 1_455 S
H1202 C1231 0.950 . S
H1203 C1232 0.950 . S
H1204 C1234 0.950 . S
H1205 C1235 0.950 . S
C1206 H1188 0.951 . S
C1206 C1207 1.366 . S
C1206 C1208 1.388 . S
C1207 C1206 1.366 . S
C1207 C1211 1.385 . S
C1208 H1189 0.951 1_655 S
C1208 C1206 1.388 . S
C1208 C1209 1.366 . S
C1209 C1208 1.366 . S
C1209 C1210 1.414 . S
C1209 C1212 1.499 . S
C1210 H1190 0.950 . S
C1210 C1209 1.414 . S
C1210 C1211 1.374 . S
C1211 H1191 0.950 . S
C1211 C1207 1.385 . S
C1211 C1210 1.374 . S
C1212 C1209 1.499 . S
C1212 C1213 1.373 . S
C1212 C1214 1.389 . S
C1213 H1192 0.950 1_556 S
C1213 C1212 1.373 . S
C1213 C1229 1.375 1_556 S
C1214 C1212 1.389 . S
C1214 C1215 1.524 . S
C1214 C1228 1.377 . S
C1215 C1214 1.524 . S
C1215 C1216 1.397 . S
C1215 C1220 1.363 1_655 S
C1216 H1193 0.950 . S
C1216 C1215 1.397 . S
C1216 C1217 1.334 . S
C1217 H1194 0.950 . S
C1217 C1216 1.334 . S
C1217 C1218 1.287 1_655 S
C1218 C1217 1.287 1_455 S
C1218 C1219 1.524 . S
C1218 H1237 0.913 . S
C1219 H1195 0.950 . S
C1219 C1218 1.524 . S
C1219 C1220 1.415 . S
C1220 H1196 0.950 . S
C1220 C1215 1.363 1_455 S
C1220 C1219 1.415 . S
C1221 H1197 0.951 . S
C1221 C1222 1.366 . S
C1221 C1223 1.388 . S
C1222 C1221 1.366 . S
C1222 C1226 1.385 1_655 S
C1223 H1198 0.951 . S
C1223 C1221 1.388 . S
C1223 C1224 1.366 . S
C1224 C1223 1.366 . S
C1224 C1225 1.414 1_655 S
C1224 C1227 1.499 . S
C1225 H1199 0.950 . S
C1225 C1224 1.414 1_455 S
C1225 C1226 1.374 . S
C1226 H1200 0.950 . S
C1226 C1222 1.385 1_455 S
C1226 C1225 1.374 . S
C1227 C1224 1.499 . S
C1227 C1228 1.373 . S
C1227 C1229 1.382 1_556 S
C1228 H1201 0.937 1_655 S
C1228 C1214 1.377 . S
C1228 C1227 1.373 . S
C1229 C1213 1.375 1_554 S
C1229 C1227 1.382 1_554 S
C1229 C1230 1.534 . S
C1230 C1229 1.534 . S
C1230 C1231 1.397 . S
C1230 C1235 1.363 . S
C1231 H1202 0.950 . S
C1231 C1230 1.397 . S
C1231 C1232 1.334 . S
C1232 H1203 0.950 . S
C1232 C1231 1.334 . S
C1232 C1233 1.287 . S
C1233 C1232 1.287 . S
C1233 C1234 1.524 . S
C1233 H1236 0.999 . S
C1234 H1204 0.950 . S
C1234 C1233 1.524 . S
C1234 C1235 1.415 . S
C1235 H1205 0.950 . S
C1235 C1230 1.363 . S
C1235 C1234 1.415 . S
H1236 C1233 0.999 . S
H1237 C1218 0.913 . S
H1238 C1256 0.951 . S
H1239 C1258 0.951 . S
H1240 C1260 0.950 . S
H1241 C1261 0.950 . S
H1242 C1263 0.950 . S
H1243 C1266 0.950 . S
H1244 C1267 0.950 . S
H1245 C1269 0.950 . S
H1246 C1270 0.950 . S
H1247 C1271 0.951 . S
H1248 C1273 0.951 . S
H1249 C1275 0.950 . S
H1250 C1276 0.950 . S
H1251 C1278 0.950 . S
H1252 C1281 0.950 . S
H1253 C1282 0.950 . S
H1254 C1284 0.950 . S
H1255 C1285 0.950 . S
C1256 H1238 0.951 . S
C1256 C1257 1.366 . S
C1256 C1258 1.388 . S
C1257 C1256 1.366 . S
C1257 C1261 1.385 . S
C1258 H1239 0.951 . S
C1258 C1256 1.388 . S
C1258 C1259 1.366 . S
C1259 C1258 1.366 . S
C1259 C1260 1.414 . S
C1259 C1262 1.499 . S
C1260 H1240 0.950 . S
C1260 C1259 1.414 . S
C1260 C1261 1.374 . S
C1261 H1241 0.950 . S
C1261 C1257 1.385 . S
C1261 C1260 1.374 . S
C1262 C1259 1.499 . S
C1262 C1263 1.373 . S
C1262 C1264 1.389 . S
C1263 H1242 0.950 . S
C1263 C1262 1.373 . S
C1263 C1279 1.377 . S
C1264 C1262 1.389 . S
C1264 C1265 1.524 . S
C1264 C1278 1.377 . S
C1265 C1264 1.524 . S
C1265 C1266 1.397 . S
C1265 C1270 1.363 . S
C1266 H1243 0.950 . S
C1266 C1265 1.397 . S
C1266 C1267 1.334 . S
C1267 H1244 0.950 . S
C1267 C1266 1.334 . S
C1267 C1268 1.287 . S
C1268 C1267 1.287 . S
C1268 C1269 1.524 . S
C1268 H1287 0.913 . S
C1269 H1245 0.950 . S
C1269 C1268 1.524 . S
C1269 C1270 1.415 . S
C1270 H1246 0.950 . S
C1270 C1265 1.363 . S
C1270 C1269 1.415 . S
C1271 H1247 0.951 . S
C1271 C1272 1.366 . S
C1271 C1273 1.388 . S
C1272 C1271 1.366 . S
C1272 C1276 1.385 . S
C1273 H1248 0.951 . S
C1273 C1271 1.388 . S
C1273 C1274 1.366 . S
C1274 C1273 1.366 . S
C1274 C1275 1.414 . S
C1274 C1277 1.499 . S
C1275 H1249 0.950 . S
C1275 C1274 1.414 . S
C1275 C1276 1.374 . S
C1276 H1250 0.950 . S
C1276 C1272 1.385 . S
C1276 C1275 1.374 . S
C1277 C1274 1.499 . S
C1277 C1278 1.373 . S
C1277 C1279 1.389 . S
C1278 H1251 0.950 . S
C1278 C1264 1.377 . S
C1278 C1277 1.373 . S
C1279 C1263 1.377 . S
C1279 C1277 1.389 . S
C1279 C1280 1.524 . S
C1280 C1279 1.524 . S
C1280 C1281 1.397 . S
C1280 C1285 1.363 . S
C1281 H1252 0.950 . S
C1281 C1280 1.397 . S
C1281 C1282 1.334 . S
C1282 H1253 0.950 . S
C1282 C1281 1.334 . S
C1282 C1283 1.290 1_554 S
C1283 C1282 1.290 1_556 S
C1283 C1284 1.523 . S
C1283 H1286 0.997 . S
C1284 H1254 0.950 . S
C1284 C1283 1.523 . S
C1284 C1285 1.415 1_556 S
C1285 H1255 0.950 . S
C1285 C1280 1.363 . S
C1285 C1284 1.415 1_554 S
H1286 C1283 0.997 . S
H1287 C1268 0.913 . S
H1288 C1306 0.951 . S
H1289 C1308 0.951 . S
H1290 C1310 0.950 . S
H1291 C1311 0.950 . S
H1292 C1313 0.950 . S
H1293 C1316 0.950 . S
H1294 C1317 0.950 . S
H1295 C1319 0.950 . S
H1296 C1320 0.950 . S
H1297 C1321 0.951 . S
H1298 C1323 0.951 . S
H1299 C1325 0.950 . S
H1300 C1326 0.950 . S
H1301 C1328 0.950 . S
H1302 C1331 0.950 . S
H1303 C1332 0.950 . S
H1304 C1334 0.950 . S
H1305 C1335 0.950 . S
C1306 H1288 0.951 . S
C1306 C1307 1.366 . S
C1306 C1308 1.388 . S
C1307 C1306 1.366 . S
C1307 C1311 1.385 . S
C1308 H1289 0.951 . S
C1308 C1306 1.388 . S
C1308 C1309 1.366 . S
C1309 C1308 1.366 . S
C1309 C1310 1.414 . S
C1309 C1312 1.499 . S
C1310 H1290 0.950 . S
C1310 C1309 1.414 . S
C1310 C1311 1.374 . S
C1311 H1291 0.950 . S
C1311 C1307 1.385 . S
C1311 C1310 1.374 . S
C1312 C1309 1.499 . S
C1312 C1313 1.373 . S
C1312 C1314 1.389 . S
C1313 H1292 0.950 . S
C1313 C1312 1.373 . S
C1313 C1329 1.377 . S
C1314 C1312 1.389 . S
C1314 C1315 1.524 . S
C1314 C1328 1.377 . S
C1315 C1314 1.524 . S
C1315 C1316 1.397 . S
C1315 C1320 1.363 . S
C1316 H1293 0.950 . S
C1316 C1315 1.397 . S
C1316 C1317 1.334 . S
C1317 H1294 0.950 . S
C1317 C1316 1.334 . S
C1317 C1318 1.287 . S
C1318 C1317 1.287 . S
C1318 C1319 1.524 . S
C1318 H1337 0.913 . S
C1319 H1295 0.950 . S
C1319 C1318 1.524 . S
C1319 C1320 1.415 . S
C1320 H1296 0.950 . S
C1320 C1315 1.363 . S
C1320 C1319 1.415 . S
C1321 H1297 0.951 . S
C1321 C1322 1.366 . S
C1321 C1323 1.388 . S
C1322 C1321 1.366 . S
C1322 C1326 1.385 . S
C1323 H1298 0.951 . S
C1323 C1321 1.388 . S
C1323 C1324 1.366 . S
C1324 C1323 1.366 . S
C1324 C1325 1.414 . S
C1324 C1327 1.499 . S
C1325 H1299 0.950 . S
C1325 C1324 1.414 . S
C1325 C1326 1.374 . S
C1326 H1300 0.950 . S
C1326 C1322 1.385 . S
C1326 C1325 1.374 . S
C1327 C1324 1.499 . S
C1327 C1328 1.373 . S
C1327 C1329 1.389 . S
C1328 H1301 0.950 . S
C1328 C1314 1.377 . S
C1328 C1327 1.373 . S
C1329 C1313 1.377 . S
C1329 C1327 1.389 . S
C1329 C1330 1.524 . S
C1330 C1329 1.524 . S
C1330 C1331 1.397 . S
C1330 C1335 1.363 1_455 S
C1331 H1302 0.950 . S
C1331 C1330 1.397 . S
C1331 C1332 1.334 . S
C1332 H1303 0.950 . S
C1332 C1331 1.334 . S
C1332 C1333 1.287 1_455 S
C1333 C1332 1.287 1_655 S
C1333 C1334 1.524 . S
C1333 H1336 0.999 . S
C1334 H1304 0.950 . S
C1334 C1333 1.524 . S
C1334 C1335 1.415 . S
C1335 H1305 0.950 . S
C1335 C1330 1.363 1_655 S
C1335 C1334 1.415 . S
H1336 C1333 0.999 . S
H1337 C1318 0.913 . S
H1338 C1356 0.951 . S
H1339 C1358 0.951 . S
H1340 C1360 0.950 . S
H1341 C1361 0.950 . S
H1342 C1363 0.950 . S
H1343 C1366 0.950 . S
H1344 C1367 0.950 . S
H1345 C1369 0.950 . S
H1346 C1370 0.950 . S
H1347 C1371 0.951 . S
H1348 C1373 0.951 . S
H1349 C1375 0.950 . S
H1350 C1376 0.950 . S
H1351 C1378 0.950 . S
H1352 C1381 0.950 . S
H1353 C1382 0.950 . S
H1354 C1384 0.950 . S
H1355 C1385 0.950 . S
C1356 H1338 0.951 . S
C1356 C1357 1.366 . S
C1356 C1358 1.388 . S
C1357 C1356 1.366 . S
C1357 C1361 1.385 . S
C1358 H1339 0.951 . S
C1358 C1356 1.388 . S
C1358 C1359 1.366 . S
C1359 C1358 1.366 . S
C1359 C1360 1.414 . S
C1359 C1362 1.499 . S
C1360 H1340 0.950 . S
C1360 C1359 1.414 . S
C1360 C1361 1.374 . S
C1361 H1341 0.950 . S
C1361 C1357 1.385 . S
C1361 C1360 1.374 . S
C1362 C1359 1.499 . S
C1362 C1363 1.373 . S
C1362 C1364 1.389 . S
C1363 H1342 0.950 . S
C1363 C1362 1.373 . S
C1363 C1379 1.377 . S
C1364 C1362 1.389 . S
C1364 C1365 1.524 . S
C1364 C1378 1.377 . S
C1365 C1364 1.524 . S
C1365 C1366 1.397 . S
C1365 C1370 1.363 . S
C1366 H1343 0.950 . S
C1366 C1365 1.397 . S
C1366 C1367 1.334 . S
C1367 H1344 0.950 . S
C1367 C1366 1.334 . S
C1367 C1368 1.287 . S
C1368 C1367 1.287 . S
C1368 C1369 1.524 . S
C1368 H1387 0.913 . S
C1369 H1345 0.950 . S
C1369 C1368 1.524 . S
C1369 C1370 1.415 . S
C1370 H1346 0.950 . S
C1370 C1365 1.363 . S
C1370 C1369 1.415 . S
C1371 H1347 0.951 . S
C1371 C1372 1.366 . S
C1371 C1373 1.388 . S
C1372 C1371 1.366 . S
C1372 C1376 1.385 . S
C1373 H1348 0.951 . S
C1373 C1371 1.388 . S
C1373 C1374 1.366 . S
C1374 C1373 1.366 . S
C1374 C1375 1.414 . S
C1374 C1377 1.499 . S
C1375 H1349 0.950 . S
C1375 C1374 1.414 . S
C1375 C1376 1.374 . S
C1376 H1350 0.950 . S
C1376 C1372 1.385 . S
C1376 C1375 1.374 . S
C1377 C1374 1.499 . S
C1377 C1378 1.373 . S
C1377 C1379 1.389 . S
C1378 H1351 0.950 . S
C1378 C1364 1.377 . S
C1378 C1377 1.373 . S
C1379 C1363 1.377 . S
C1379 C1377 1.389 . S
C1379 C1380 1.524 . S
C1380 C1379 1.524 . S
C1380 C1381 1.397 . S
C1380 C1385 1.363 . S
C1381 H1352 0.950 . S
C1381 C1380 1.397 . S
C1381 C1382 1.334 . S
C1382 H1353 0.950 . S
C1382 C1381 1.334 . S
C1382 C1383 1.287 . S
C1383 C1382 1.287 . S
C1383 C1384 1.524 . S
C1383 H1386 0.999 . S
C1384 H1354 0.950 . S
C1384 C1383 1.524 . S
C1384 C1385 1.415 . S
C1385 H1355 0.950 . S
C1385 C1380 1.363 . S
C1385 C1384 1.415 . S
H1386 C1383 0.999 . S
H1387 C1368 0.913 . S
C207 N1 1.485 . S
C222 C107 1.415 . S
C257 N18 1.911 . S
C272 C141 1.807 1_566 S
C322 C153 0.928 . S
C307 N28 0.981 . S
C357 N40 1.664 . S
C372 C187 1.579 . S
C422 C144 1.800 . S
C407 N5 1.941 . S
C472 C124 1.493 . S
C457 N14 1.553 . S
C522 C171 1.371 . S
C507 N31 1.465 . S
C572 C162 1.031 . S
C557 N41 1.103 . S
C607 N2 1.428 . S
C622 C170 1.350 . S
C672 C132 1.488 . S
C657 N27 1.610 . S
C707 N44 1.665 . S
C722 C108 1.583 1_655 S
C757 N15 1.349 . S
C772 C165 1.236 . S
C822 C123 1.753 . S
C807 N57 1.906 . S
C857 N70 1.308 . S
C872 C145 1.244 . S
C907 N79 1.416 . S
C922 C150 1.382 . S
C957 N93 1.375 . S
C972 C183 1.311 . S
C1007 N54 1.528 . S
C1022 C128 1.453 . S
C1072 C120 1.994 . S
C1057 N66 2.110 . S
C1122 C174 0.978 . S
C1107 N80 1.019 . S
C1172 C166 1.428 . S
C1157 N96 1.494 . S
C1207 N53 1.547 . S
C1222 C186 1.461 1_655 S
C1272 C129 1.478 . S
C1257 N83 1.523 . S
C1322 C111 1.608 . S
C1307 N92 1.734 . S
C1357 N67 1.479 . S
C1372 C149 1.438 . S
