# Generated by pormake.
# Topology dag, (6,3)-cn, num edge types: 1
# Building blocks:
#     Node 0, Type 0, BuildingBlock: OJICUG_clean_sbu_0, # of connection points: 6
#     Node 1, Type 0, BuildingBlock: OJICUG_clean_sbu_0, # of connection points: 6
#     Node 2, Type 0, BuildingBlock: OJICUG_clean_sbu_0, # of connection points: 6
#     Node 3, Type 0, BuildingBlock: OJICUG_clean_sbu_0, # of connection points: 6
#     Node 4, Type 1, BuildingBlock: BETDAH_clean_linker_0, # of connection points: 3
#     Node 5, Type 1, BuildingBlock: BETDAH_clean_linker_0, # of connection points: 3
#     Node 6, Type 1, BuildingBlock: BETDAH_clean_linker_0, # of connection points: 3
#     Node 7, Type 1, BuildingBlock: BETDAH_clean_linker_0, # of connection points: 3
#     Node 8, Type 1, BuildingBlock: BETDAH_clean_linker_0, # of connection points: 3
#     Node 9, Type 1, BuildingBlock: BETDAH_clean_linker_0, # of connection points: 3
#     Node 10, Type 1, BuildingBlock: BETDAH_clean_linker_0, # of connection points: 3
#     Node 11, Type 1, BuildingBlock: BETDAH_clean_linker_0, # of connection points: 3
#     Edge 12, Type (0, 1), BuildingBlock: UVAHIK_clean_linker_0, # of connection points: 2
#     Edge 13, Type (0, 1), BuildingBlock: UVAHIK_clean_linker_0, # of connection points: 2
#     Edge 14, Type (0, 1), BuildingBlock: UVAHIK_clean_linker_0, # of connection points: 2
#     Edge 15, Type (0, 1), BuildingBlock: UVAHIK_clean_linker_0, # of connection points: 2
#     Edge 16, Type (0, 1), BuildingBlock: UVAHIK_clean_linker_0, # of connection points: 2
#     Edge 17, Type (0, 1), BuildingBlock: UVAHIK_clean_linker_0, # of connection points: 2
#     Edge 18, Type (0, 1), BuildingBlock: UVAHIK_clean_linker_0, # of connection points: 2
#     Edge 19, Type (0, 1), BuildingBlock: UVAHIK_clean_linker_0, # of connection points: 2
#     Edge 20, Type (0, 1), BuildingBlock: UVAHIK_clean_linker_0, # of connection points: 2
#     Edge 21, Type (0, 1), BuildingBlock: UVAHIK_clean_linker_0, # of connection points: 2
#     Edge 22, Type (0, 1), BuildingBlock: UVAHIK_clean_linker_0, # of connection points: 2
#     Edge 23, Type (0, 1), BuildingBlock: UVAHIK_clean_linker_0, # of connection points: 2
#     Edge 24, Type (0, 1), BuildingBlock: UVAHIK_clean_linker_0, # of connection points: 2
#     Edge 25, Type (0, 1), BuildingBlock: UVAHIK_clean_linker_0, # of connection points: 2
#     Edge 26, Type (0, 1), BuildingBlock: UVAHIK_clean_linker_0, # of connection points: 2
#     Edge 27, Type (0, 1), BuildingBlock: UVAHIK_clean_linker_0, # of connection points: 2
#     Edge 28, Type (0, 1), BuildingBlock: UVAHIK_clean_linker_0, # of connection points: 2
#     Edge 29, Type (0, 1), BuildingBlock: UVAHIK_clean_linker_0, # of connection points: 2
#     Edge 30, Type (0, 1), BuildingBlock: UVAHIK_clean_linker_0, # of connection points: 2
#     Edge 31, Type (0, 1), BuildingBlock: UVAHIK_clean_linker_0, # of connection points: 2
#     Edge 32, Type (0, 1), BuildingBlock: UVAHIK_clean_linker_0, # of connection points: 2
#     Edge 33, Type (0, 1), BuildingBlock: UVAHIK_clean_linker_0, # of connection points: 2
#     Edge 34, Type (0, 1), BuildingBlock: UVAHIK_clean_linker_0, # of connection points: 2
#     Edge 35, Type (0, 1), BuildingBlock: UVAHIK_clean_linker_0, # of connection points: 2
# Relax obj value: 0.098
# Max RMSD: 0.107
# Mean RMSD: 0.090
data_MOF--net-dag--node1-OJICUG_clean_sbu_0--node2-BETDAH_clean_linker_0--edge1-UVAHIK_clean_linker_0
_symmetry_space_group_name_H-M    P1
_symmetry_Int_Tables_number       1
_symmetry_cell_setting            triclinic
loop_
_symmetry_equiv_pos_as_xyz
'x, y, z'
_cell_length_a     46.996025
_cell_length_b     50.195657
_cell_length_c     49.897191
_cell_angle_alpha  93.949317
_cell_angle_beta   89.929811
_cell_angle_gamma 89.97462
loop_
_atom_site_label
_atom_site_type_symbol
_atom_site_fract_x
_atom_site_fract_y
_atom_site_fract_z
_atom_type_partial_charge
Sc0 Sc 0.12044 0.86787 0.07084 0.0
Sc1 Sc 0.13002 0.79819 0.06608 0.0
Sc2 Sc 0.18667 0.8413 0.08784 0.0
O3 O 0.14573 0.83573 0.07492 0.0
C4 C 0.17994 0.88865 0.04919 0.0
C5 C 0.10335 0.83041 0.01905 0.0
C6 C 0.19326 0.79353 0.04224 0.0
C7 C 0.07656 0.82704 0.09488 0.0
C8 C 0.1533 0.88514 0.12521 0.0
C9 C 0.16712 0.79079 0.11882 0.0
O10 O 0.15295 0.88921 0.05069 0.0
O11 O 0.11088 0.80865 0.02868 0.0
O12 O 0.20313 0.81302 0.05706 0.0
O13 O 0.08498 0.85037 0.09038 0.0
O14 O 0.17502 0.87049 0.12013 0.0
O15 O 0.14715 0.78368 0.10264 0.0
O16 O 0.13215 0.88591 0.10946 0.0
O17 O 0.09041 0.80607 0.08733 0.0
O18 O 0.18287 0.81092 0.11574 0.0
O19 O 0.10584 0.85301 0.03195 0.0
O20 O 0.19513 0.87248 0.06147 0.0
O21 O 0.16748 0.78596 0.0434 0.0
Sc22 Sc 0.69113 0.65511 0.4538 0.0
Sc23 Sc 0.63325 0.69681 0.47529 0.0
Sc24 Sc 0.62636 0.62685 0.47266 0.0
O25 O 0.65025 0.65964 0.46725 0.0
C26 C 0.65943 0.60881 0.41833 0.0
C27 C 0.66921 0.70408 0.42179 0.0
C28 C 0.58072 0.66532 0.44765 0.0
C29 C 0.69661 0.70402 0.49822 0.0
C30 C 0.68684 0.60892 0.49425 0.0
C31 C 0.60801 0.66534 0.52346 0.0
O32 O 0.68002 0.62508 0.42225 0.0
O33 O 0.64913 0.71083 0.43802 0.0
O34 O 0.59019 0.64239 0.45243 0.0
O35 O 0.70694 0.68444 0.48381 0.0
O36 O 0.65983 0.60773 0.49364 0.0
O37 O 0.61507 0.68696 0.51329 0.0
O38 O 0.70115 0.62475 0.48072 0.0
O39 O 0.67058 0.71087 0.49714 0.0
O40 O 0.611 0.64255 0.51106 0.0
O41 O 0.68589 0.6847 0.42525 0.0
O42 O 0.63893 0.60741 0.4348 0.0
O43 O 0.59372 0.68687 0.4548 0.0
Sc44 Sc 0.8673 0.20383 0.97755 0.0
Sc45 Sc 0.81162 0.16043 0.95457 0.0
Sc46 Sc 0.87769 0.1342 0.97239 0.0
O47 O 0.85219 0.16619 0.96818 0.0
C48 C 0.92143 0.17518 0.94913 0.0
C49 C 0.83204 0.2109 0.92383 0.0
C50 C 0.84479 0.11591 0.91805 0.0
C51 C 0.80329 0.20818 -0.00034 0.0
C52 C 0.8939 0.17209 0.02456 0.0
C53 C 0.81835 0.11324 0.99375 0.0
O54 O 0.90798 0.19591 0.95816 0.0
O55 O 0.81563 0.19126 0.92709 0.0
O56 O 0.86529 0.11464 0.93449 0.0
O57 O 0.82882 0.21645 0.99854 0.0
O58 O 0.89332 0.14984 0.01076 0.0
O59 O 0.80331 0.12872 0.98044 0.0
O60 O 0.88434 0.19358 0.0158 0.0
O61 O 0.79428 0.18802 0.98532 0.0
O62 O 0.84541 0.11339 0.99339 0.0
O63 O 0.85206 0.21773 0.94006 0.0
O64 O 0.91251 0.15162 0.95181 0.0
O65 O 0.82393 0.13184 0.92219 0.0
Sc66 Sc 0.38041 0.365 0.57228 0.0
Sc67 Sc 0.31513 0.3366 0.58947 0.0
Sc68 Sc 0.37275 0.29507 0.56707 0.0
O69 O 0.35609 0.33219 0.5763 0.0
C70 C 0.39804 0.32798 0.52006 0.0
C71 C 0.32034 0.38428 0.55085 0.0
C72 C 0.30935 0.2889 0.54391 0.0
C73 C 0.34673 0.38182 0.62657 0.0
C74 C 0.42566 0.32521 0.59561 0.0
C75 C 0.33677 0.28661 0.62021 0.0
O76 O 0.39589 0.3503 0.53356 0.0
O77 O 0.30574 0.36796 0.56354 0.0
O78 O 0.33522 0.28164 0.54521 0.0
O79 O 0.36757 0.38348 0.61052 0.0
O80 O 0.41263 0.30404 0.58726 0.0
O81 O 0.31995 0.30594 0.61696 0.0
O82 O 0.41622 0.34847 0.59225 0.0
O83 O 0.32613 0.3657 0.62193 0.0
O84 O 0.35715 0.28034 0.60414 0.0
O85 O 0.34735 0.38523 0.5518 0.0
O86 O 0.39037 0.30603 0.52921 0.0
O87 O 0.29919 0.30842 0.55849 0.0
H88 H 0.07061 0.11093 0.2464 0.0
H89 H 0.13547 0.13983 0.30154 0.0
H90 H 0.08181 0.19548 0.26352 0.0
C91 C 0.08131 0.12757 0.25709 0.0
C92 C 0.07322 0.15382 0.25259 0.0
C93 C 0.10396 0.12235 0.27428 0.0
C94 C 0.11781 0.14375 0.28844 0.0
C95 C 0.10912 0.17018 0.28504 0.0
C96 C 0.08733 0.17501 0.26682 0.0
N97 N 0.12246 0.19254 0.29868 0.0
C98 C 0.13857 0.1916 0.32193 0.0
H99 H 0.4106 0.61202 0.73231 0.0
H100 H 0.43776 0.68281 0.77853 0.0
H101 H 0.37017 0.63461 0.80788 0.0
C102 C 0.4086 0.62577 0.74996 0.0
C103 C 0.38819 0.62082 0.76957 0.0
C104 C 0.4267 0.64794 0.75299 0.0
C105 C 0.42382 0.66563 0.77581 0.0
C106 C 0.40345 0.66119 0.79556 0.0
C107 C 0.3857 0.63851 0.79257 0.0
N108 N 0.40212 0.67981 0.81825 0.0
C109 C 0.3811 0.6809 0.8379 0.0
H110 H 0.7959 0.88031 0.11496 0.0
H111 H 0.7607 0.8135 0.15318 0.0
H112 H 0.70552 0.86747 0.11423 0.0
C113 C 0.7776 0.86863 0.12036 0.0
C114 C 0.75033 0.87649 0.11286 0.0
C115 C 0.78154 0.846 0.13492 0.0
C116 C 0.75778 0.83104 0.142 0.0
C117 C 0.73024 0.8389 0.13456 0.0
C118 C 0.72672 0.86144 0.11985 0.0
N119 N 0.70568 0.82467 0.14173 0.0
C120 C 0.70341 0.81292 0.16598 0.0
H121 H 0.70724 0.38323 0.62645 0.0
H122 H 0.74108 0.30877 0.64984 0.0
H123 H 0.79715 0.36776 0.62016 0.0
C124 C 0.72538 0.37041 0.62941 0.0
C125 C 0.75274 0.37893 0.62262 0.0
C126 C 0.7209 0.3452 0.63915 0.0
C127 C 0.74426 0.32825 0.6422 0.0
C128 C 0.77178 0.3365 0.63527 0.0
C129 C 0.77581 0.36152 0.62507 0.0
N130 N 0.79582 0.32022 0.6391 0.0
C131 C 0.79979 0.30818 0.663 0.0
H132 H 0.58346 0.38497 0.30408 0.0
H133 H 0.61813 0.36694 0.22509 0.0
H134 H 0.54829 0.32074 0.25321 0.0
C135 C 0.58352 0.37279 0.28526 0.0
C136 C 0.56356 0.35218 0.28118 0.0
C137 C 0.60323 0.37828 0.26521 0.0
C138 C 0.60319 0.36259 0.24075 0.0
C139 C 0.5835 0.34152 0.23661 0.0
C140 C 0.56374 0.33662 0.25676 0.0
N141 N 0.58219 0.32529 0.21222 0.0
C142 C 0.60418 0.32205 0.19365 0.0
H143 H 0.20037 0.11821 0.91683 0.0
H144 H 0.23732 0.19122 0.89304 0.0
H145 H 0.29082 0.13047 0.92314 0.0
C146 C 0.21905 0.13033 0.91384 0.0
C147 C 0.24599 0.12088 0.92075 0.0
C148 C 0.21567 0.1556 0.90393 0.0
C149 C 0.23968 0.1717 0.90079 0.0
C150 C 0.26681 0.1625 0.90778 0.0
C151 C 0.26977 0.13743 0.91817 0.0
N152 N 0.29151 0.17789 0.90392 0.0
C153 C 0.29636 0.18935 0.87983 0.0
H154 H 0.29788 0.61239 0.42683 0.0
H155 H 0.26552 0.67891 0.38618 0.0
H156 H 0.20797 0.62771 0.42602 0.0
C157 C 0.28008 0.62439 0.42082 0.0
C158 C 0.25244 0.6175 0.42817 0.0
C159 C 0.28503 0.64643 0.40564 0.0
C160 C 0.26187 0.6618 0.39782 0.0
C161 C 0.23397 0.65494 0.40518 0.0
C162 C 0.22946 0.63297 0.42048 0.0
N163 N 0.21001 0.6697 0.39745 0.0
C164 C 0.2082 0.68049 0.37267 0.0
H165 H 0.91008 0.8868 0.80833 0.0
H166 H 0.93883 0.81732 0.76082 0.0
H167 H 0.87181 0.86613 0.73145 0.0
C168 C 0.90861 0.8735 0.79031 0.0
C169 C 0.88874 0.87894 0.77044 0.0
C170 C 0.9269 0.85146 0.78706 0.0
C171 C 0.92472 0.83437 0.76373 0.0
C172 C 0.90483 0.83927 0.74373 0.0
C173 C 0.88691 0.86183 0.74696 0.0
N174 N 0.9042 0.8213 0.72052 0.0
C175 C 0.8832 0.82017 0.7009 0.0
C176 C 0.17588 0.91848 0.15836 0.0
C177 C 0.15233 0.90283 0.15006 0.0
C178 C 0.17302 0.93863 0.1791 0.0
C179 C 0.11581 0.98076 0.21079 0.0
H180 H 0.17627 0.00891 0.25734 0.0
C181 C 0.09502 0.07384 0.2784 0.0
C182 C 0.11438 0.09453 0.27456 0.0
C183 C 0.10211 0.04741 0.27067 0.0
C184 C 0.15918 0.00115 0.24452 0.0
H185 H 0.1082 0.89413 0.15829 0.0
H186 H 0.10356 0.92799 0.1953 0.0
H187 H 0.18385 0.9674 0.22937 0.0
H188 H 0.15716 0.10369 0.26201 0.0
H189 H 0.1696 0.0574 0.2483 0.0
H190 H 0.09131 0.01445 0.22541 0.0
C191 C 0.12389 0.92583 0.18515 0.0
C192 C 0.16353 0.97746 0.2284 0.0
C193 C 0.12657 0.90623 0.16409 0.0
C194 C 0.14195 0.08805 0.26537 0.0
C195 C 0.14903 0.06154 0.25747 0.0
C196 C 0.11141 0.00411 0.227 0.0
C197 C 0.14667 0.94312 0.19219 0.0
C198 C 0.14194 0.96709 0.2111 0.0
C199 C 0.12861 0.04117 0.25872 0.0
C200 C 0.13306 0.01477 0.24389 0.0
H201 H 0.19594 0.91628 0.14773 0.0
H202 H 0.19101 0.95157 0.1838 0.0
H203 H 0.09891 0.97405 0.19723 0.0
H204 H 0.07367 0.07835 0.28559 0.0
H205 H 0.08613 0.03207 0.27241 0.0
C206 C 0.59181 0.64293 0.56398 0.0
C207 C 0.59435 0.6664 0.55032 0.0
C208 C 0.57623 0.64281 0.58775 0.0
C209 C 0.54309 0.68517 0.64289 0.0
H210 H 0.49291 0.62415 0.64611 0.0
C211 C 0.45308 0.67735 0.72249 0.0
C212 C 0.44881 0.65211 0.7324 0.0
C213 C 0.47254 0.68057 0.70167 0.0
C214 C 0.50704 0.64116 0.64574 0.0
H215 H 0.58362 0.70851 0.55175 0.0
H216 H 0.55598 0.70818 0.59333 0.0
H217 H 0.52407 0.62729 0.60764 0.0
H218 H 0.46281 0.61085 0.72947 0.0
H219 H 0.49674 0.61644 0.6934 0.0
H220 H 0.52566 0.69905 0.68112 0.0
C221 C 0.56627 0.68992 0.5856 0.0
C222 C 0.52494 0.64297 0.62366 0.0
C223 C 0.58205 0.69009 0.56175 0.0
C224 C 0.46517 0.63042 0.72183 0.0
C225 C 0.48459 0.63363 0.70116 0.0
C226 C 0.52508 0.68336 0.66511 0.0
C227 C 0.5626 0.66608 0.59847 0.0
C228 C 0.54339 0.66483 0.62204 0.0
C229 C 0.48812 0.6586 0.69044 0.0
C230 C 0.50704 0.66118 0.66686 0.0
H231 H 0.60139 0.62441 0.55601 0.0
H232 H 0.57444 0.62426 0.59753 0.0
H233 H 0.55713 0.70222 0.64227 0.0
H234 H 0.44068 0.6944 0.73019 0.0
H235 H 0.47465 0.70003 0.69376 0.0
C236 C 0.77582 0.08503 0.00244 0.0
C237 C 0.80377 0.09304 0.00905 0.0
C238 C 0.76316 0.06392 0.01487 0.0
C239 C 0.76717 0.02331 0.07324 0.0
H240 H 0.74186 0.96482 0.02412 0.0
C241 C 0.76222 0.90442 0.07502 0.0
C242 C 0.74688 0.90112 0.0987 0.0
C243 C 0.76214 0.92895 0.0635 0.0
C244 C 0.74851 0.98113 0.03805 0.0
H245 H 0.83975 0.08616 0.03489 0.0
H246 H 0.81743 0.04955 0.05684 0.0
H247 H 0.75516 0.00745 0.00663 0.0
H248 H 0.71878 0.9203 0.12856 0.0
H249 H 0.71911 0.96367 0.10861 0.0
H250 H 0.76142 0.99669 0.10456 0.0
C251 C 0.80543 0.05954 0.04195 0.0
C252 C 0.75596 0.00551 0.02811 0.0
C253 C 0.81826 0.08036 0.02925 0.0
C254 C 0.73059 0.92242 0.11016 0.0
C255 C 0.7309 0.94716 0.09889 0.0
C256 C 0.75932 -0.00094 0.08323 0.0
C257 C 0.77801 0.05076 0.03446 0.0
C258 C 0.76611 0.02655 0.04553 0.0
C259 C 0.74709 0.95073 0.07572 0.0
C260 C 0.75069 0.97753 0.06563 0.0
H261 H 0.7641 0.09438 0.98692 0.0
H262 H 0.74195 0.05755 0.00884 0.0
H263 H 0.77482 0.0393 0.08706 0.0
H264 H 0.77494 0.88821 0.0659 0.0
H265 H 0.77502 0.93127 0.04579 0.0
C266 C 0.47114 0.30033 0.60245 0.0
C267 C 0.45396 0.32293 0.60827 0.0
C268 C 0.49931 0.29986 0.6115 0.0
C269 C 0.55648 0.34732 0.63236 0.0
H270 H 0.5976 0.2836 0.64923 0.0
C271 C 0.67351 0.35454 0.66029 0.0
C272 C 0.69143 0.33694 0.64508 0.0
C273 C 0.64429 0.3499 0.66122 0.0
C274 C 0.58634 0.30152 0.64456 0.0
H275 H 0.4521 0.36186 0.6299 0.0
H276 H 0.50069 0.36068 0.64648 0.0
H277 H 0.54622 0.28123 0.64109 0.0
H278 H 0.69328 0.29963 0.62063 0.0
H279 H 0.64189 0.29149 0.62211 0.0
H280 H 0.59636 0.36758 0.6355 0.0
C281 C 0.49289 0.3437 0.63407 0.0
C282 C 0.55695 0.30019 0.63981 0.0
C283 C 0.46495 0.34433 0.6247 0.0
C284 C 0.6799 0.31345 0.63258 0.0
C285 C 0.65051 0.30882 0.63343 0.0
C286 C 0.58564 0.34868 0.63729 0.0
C287 C 0.51077 0.32186 0.62685 0.0
C288 C 0.54168 0.32309 0.63351 0.0
C289 C 0.63231 0.32761 0.64685 0.0
C290 C 0.60096 0.32583 0.64334 0.0
H291 H 0.4633 0.28354 0.58977 0.0
H292 H 0.51245 0.28279 0.60536 0.0
H293 H 0.54575 0.36522 0.62683 0.0
H294 H 0.68197 0.37263 0.6704 0.0
H295 H 0.63089 0.36443 0.67222 0.0
C296 C 0.63409 0.57681 0.38602 0.0
C297 C 0.6594 0.58993 0.39411 0.0
C298 C 0.63408 0.55728 0.36474 0.0
C299 C 0.6803 0.50721 0.33107 0.0
H300 H 0.61495 0.49686 0.28416 0.0
C301 C 0.62117 0.4229 0.25322 0.0
C302 C 0.62227 0.40162 0.27004 0.0
C303 C 0.63316 0.44765 0.26155 0.0
C304 C 0.63373 0.4996 0.29659 0.0
H305 H 0.70444 0.59337 0.38548 0.0
H306 H 0.70443 0.55886 0.34825 0.0
H307 H 0.62051 0.53878 0.31112 0.0
H308 H 0.63887 0.38859 0.3074 0.0
H309 H 0.65972 0.4315 0.32197 0.0
H310 H 0.69302 0.46763 0.31717 0.0
C311 C 0.68462 0.56381 0.35853 0.0
C312 C 0.63672 0.52356 0.31231 0.0
C313 C 0.68459 0.58364 0.37976 0.0
C314 C 0.63771 0.40475 0.29411 0.0
C315 C 0.64979 0.42935 0.30236 0.0
C316 C 0.6773 0.48319 0.31534 0.0
C317 C 0.65939 0.55019 0.35102 0.0
C318 C 0.65942 0.52723 0.33051 0.0
C319 C 0.64657 0.45144 0.28676 0.0
C320 C 0.65339 0.47871 0.29869 0.0
H321 H 0.61426 0.58124 0.39649 0.0
H322 H 0.61435 0.54695 0.35977 0.0
H323 H 0.69802 0.50937 0.3449 0.0
H324 H 0.60926 0.421 0.23462 0.0
H325 H 0.63065 0.46418 0.2489 0.0
C326 C 0.96676 0.2006 0.94325 0.0
C327 C 0.94956 0.17827 0.93635 0.0
C328 C 0.99487 0.20155 0.934 0.0
C329 C 0.05176 0.1549 0.91025 0.0
H330 H 0.09314 0.21942 0.89658 0.0
C331 C 0.16859 0.14808 0.88186 0.0
C332 C 0.18659 0.16479 0.8979 0.0
C333 C 0.13945 0.15316 0.88102 0.0
C334 C 0.0818 0.20127 0.90034 0.0
H335 H 0.94751 0.1405 0.91261 0.0
H336 H 0.99594 0.14258 0.8957 0.0
H337 H 0.0418 0.22166 0.90521 0.0
H338 H 0.18879 0.201 0.92398 0.0
H339 H 0.13751 0.20989 0.92274 0.0
H340 H 0.0915 0.13453 0.90578 0.0
C341 C 0.98825 0.1589 0.90909 0.0
C342 C 0.05244 0.20254 0.90536 0.0
C343 C 0.9604 0.15776 0.91865 0.0
C344 C 0.17531 0.18792 0.91136 0.0
C345 C 0.14599 0.19296 0.91065 0.0
C346 C 0.08088 0.15363 0.90506 0.0
C347 C 0.0062 0.18034 0.91738 0.0
C348 C 0.03708 0.17933 0.9105 0.0
C349 C 0.12763 0.17495 0.89639 0.0
C350 C 0.0963 0.17676 0.90014 0.0
H351 H 0.95901 0.21669 0.95691 0.0
H352 H 0.00807 0.21829 0.94096 0.0
H353 H 0.04096 0.13673 0.91488 0.0
H354 H 0.17688 0.13025 0.87109 0.0
H355 H 0.12593 0.13925 0.86938 0.0
C356 C 0.27704 0.41133 0.54184 0.0
C357 C 0.30525 0.40401 0.53541 0.0
C358 C 0.26381 0.43198 0.52915 0.0
C359 C 0.26697 0.47193 0.47028 0.0
H360 H 0.24078 0.53073 0.51864 0.0
C361 C 0.26262 0.59036 0.46699 0.0
C362 C 0.24794 0.5934 0.44293 0.0
C363 C 0.26182 0.56609 0.479 0.0
C364 C 0.24763 0.51432 0.50491 0.0
H365 H 0.34117 0.41157 0.50966 0.0
H366 H 0.31787 0.44733 0.48723 0.0
H367 H 0.25441 0.48846 0.5367 0.0
H368 H 0.22016 0.57412 0.41294 0.0
H369 H 0.21925 0.5312 0.43374 0.0
H370 H 0.26122 0.49811 0.4386 0.0
C371 C 0.30609 0.43719 0.50218 0.0
C372 C 0.25528 0.49014 0.51518 0.0
C373 C 0.31948 0.41687 0.51516 0.0
C374 C 0.23147 0.57219 0.43162 0.0
C375 C 0.23107 0.54771 0.44339 0.0
C376 C 0.25893 0.49597 0.45995 0.0
C377 C 0.27837 0.4453 0.50946 0.0
C378 C 0.26585 0.46905 0.49804 0.0
C379 C 0.24672 0.54433 0.46689 0.0
C380 C 0.25004 0.51763 0.47728 0.0
H381 H 0.26554 0.40182 0.55741 0.0
H382 H 0.24239 0.43787 0.53503 0.0
H383 H 0.27494 0.45589 0.45667 0.0
H384 H 0.27547 0.6065 0.47599 0.0
H385 H 0.27431 0.56391 0.49695 0.0
C386 C 0.08697 0.85354 0.97909 0.0
C387 C 0.08986 0.82976 0.99216 0.0
C388 C 0.07171 0.85396 0.95519 0.0
C389 C 0.04057 0.81232 0.89861 0.0
H390 H 0.98939 0.87272 0.89595 0.0
C391 C 0.95268 0.82133 0.81724 0.0
C392 C 0.94849 0.84686 0.80795 0.0
C393 C 0.97154 0.81769 0.8384 0.0
C394 C 0.0038 0.85589 0.89618 0.0
H395 H 0.08006 0.78744 0.9896 0.0
H396 H 0.05295 0.78827 0.9478 0.0
H397 H 0.01956 0.86899 0.93495 0.0
H398 H 0.9621 0.88819 0.81233 0.0
H399 H 0.99495 0.88186 0.84901 0.0
H400 H 0.02441 0.79923 0.85969 0.0
C401 C 0.06273 0.80655 0.95608 0.0
C402 C 0.02113 0.85375 0.91857 0.0
C403 C 0.0782 0.80609 0.98005 0.0
C404 C 0.96437 0.8684 0.81947 0.0
C405 C 0.98319 0.86477 0.84049 0.0
C406 C 0.02311 0.81447 0.87609 0.0
C407 C 0.05875 0.83066 0.94377 0.0
C408 C 0.03996 0.83213 0.91997 0.0
C409 C 0.98658 0.8395 0.8506 0.0
C410 C 0.00476 0.83646 0.87454 0.0
H411 H 0.09607 0.87207 0.98757 0.0
H412 H 0.06967 0.87273 0.94586 0.0
H413 H 0.05492 0.79548 0.89906 0.0
H414 H 0.94064 0.80438 0.8088 0.0
H415 H 0.97359 0.798 0.84583 0.0
C416 C 0.8196 0.09139 0.87921 0.0
C417 C 0.8447 0.09685 0.89393 0.0
C418 C 0.81906 0.07114 0.85842 0.0
C419 C 0.86569 0.02696 0.81433 0.0
H420 H 0.8052 0.97505 0.81936 0.0
C421 C 0.85589 0.9082 0.7984 0.0
C422 C 0.8714 0.90351 0.77448 0.0
C423 C 0.84572 0.93372 0.80608 0.0
C424 C 0.82211 0.98946 0.81749 0.0
H425 H 0.88928 0.08624 0.89728 0.0
H426 H 0.88829 0.05115 0.86132 0.0
H427 H 0.80251 0.01761 0.84599 0.0
H428 H 0.88667 0.92116 0.73883 0.0
H429 H 0.86866 0.96601 0.75214 0.0
H430 H 0.8862 0.99822 0.78722 0.0
C431 C 0.86902 0.06248 0.86568 0.0
C432 C 0.82045 0.01397 0.83258 0.0
C433 C 0.86952 0.0825 0.88652 0.0
C434 C 0.87459 0.92429 0.75728 0.0
C435 C 0.86455 0.94997 0.76506 0.0
C436 C 0.86733 0.00249 0.79923 0.0
C437 C 0.84368 0.05616 0.85172 0.0
C438 C 0.84276 0.03258 0.83194 0.0
C439 C 0.85101 0.95518 0.79008 0.0
C440 C 0.84607 0.98304 0.80139 0.0
H441 H 0.8001 0.10207 0.88437 0.0
H442 H 0.79926 0.06688 0.8479 0.0
H443 H 0.88302 0.04105 0.81307 0.0
H444 H 0.85327 0.89247 0.81201 0.0
H445 H 0.83565 0.93696 0.82556 0.0
C446 C 0.42068 0.30421 0.47923 0.0
C447 C 0.41088 0.32793 0.49288 0.0
C448 C 0.43504 0.30498 0.45465 0.0
C449 C 0.47724 0.35173 0.41709 0.0
H450 H 0.46685 0.3007 0.35594 0.0
C451 C 0.52845 0.36912 0.31602 0.0
C452 C 0.54247 0.34742 0.3025 0.0
C453 C 0.51058 0.36522 0.33772 0.0
C454 C 0.47013 0.31494 0.37296 0.0
H455 H 0.40696 0.37082 0.49048 0.0
H456 H 0.43149 0.37204 0.44781 0.0
H457 H 0.43877 0.29639 0.39688 0.0
H458 H 0.54781 0.30444 0.3004 0.0
H459 H 0.51654 0.29758 0.33865 0.0
H460 H 0.50852 0.37026 0.39354 0.0
C461 C 0.42881 0.35293 0.45635 0.0
C462 C 0.45408 0.31247 0.39637 0.0
C463 C 0.41463 0.35219 0.48083 0.0
C464 C 0.53721 0.32153 0.31042 0.0
C465 C 0.51931 0.31761 0.33228 0.0
C466 C 0.49317 0.35419 0.39383 0.0
C467 C 0.4398 0.32947 0.44327 0.0
C468 C 0.45725 0.33108 0.41857 0.0
C469 C 0.50633 0.33952 0.34654 0.0
C470 C 0.4896 0.33606 0.37136 0.0
H471 H 0.41809 0.28517 0.48793 0.0
H472 H 0.44331 0.28656 0.44506 0.0
H473 H 0.48076 0.36599 0.43405 0.0
H474 H 0.53158 0.38924 0.30998 0.0
H475 H 0.50034 0.38244 0.34785 0.0
C476 C 0.18003 0.91894 0.01152 0.0
C477 C 0.19427 0.90829 0.0331 0.0
C478 C 0.19289 0.93863 0.99723 0.0
C479 C 0.23969 0.99459 0.00643 0.0
H480 H 0.24106 0.99261 0.92862 0.0
C481 C 0.26688 0.08886 0.95211 0.0
C482 C 0.24884 0.09372 0.93054 0.0
C483 C 0.26721 0.0638 0.96278 0.0
C484 C 0.2407 0.99358 0.95037 0.0
H485 H 0.23323 0.90958 0.05642 0.0
H486 H 0.25534 0.94479 0.03183 0.0
H487 H 0.22756 0.95271 0.95093 0.0
H488 H 0.21858 0.07552 0.90203 0.0
H489 H 0.21804 0.0326 0.92128 0.0
H490 H 0.25075 0.03581 0.00615 0.0
C491 C 0.23444 0.93751 0.02585 0.0
C492 C 0.23316 0.97067 0.96307 0.0
C493 C 0.22182 0.91738 0.03981 0.0
C494 C 0.23224 0.07264 0.91906 0.0
C495 C 0.23234 0.04778 0.92985 0.0
C496 C 0.24674 0.01765 0.99375 0.0
C497 C 0.21997 0.94838 0.00457 0.0
C498 C 0.23195 0.9712 0.99118 0.0
C499 C 0.24939 0.04314 0.95219 0.0
C500 C 0.24654 0.01765 0.96553 0.0
H501 H 0.15885 0.9122 0.00583 0.0
H502 H 0.18123 0.94692 0.98103 0.0
H503 H 0.23869 0.99548 0.02817 0.0
H504 H 0.27994 0.10467 0.96142 0.0
H505 H 0.28098 0.06082 0.9797 0.0
C506 C 0.54112 0.64411 0.4204 0.0
C507 C 0.55246 0.66675 0.43469 0.0
C508 C 0.51318 0.64416 0.41096 0.0
C509 C 0.45 0.68719 0.40007 0.0
H510 H 0.40926 0.62218 0.41303 0.0
C511 C 0.3267 0.67764 0.40758 0.0
C512 C 0.31471 0.65298 0.39871 0.0
C513 C 0.35622 0.6814 0.40638 0.0
C514 C 0.42034 0.64034 0.40878 0.0
H515 H 0.54376 0.70769 0.44912 0.0
H516 H 0.49463 0.70755 0.43327 0.0
H517 H 0.45991 0.62475 0.42146 0.0
H518 H 0.32347 0.61388 0.37943 0.0
H519 H 0.37476 0.62059 0.37671 0.0
H520 H 0.40975 0.70293 0.38823 0.0
C521 C 0.5075 0.68987 0.42897 0.0
C522 C 0.44951 0.64181 0.4136 0.0
C523 C 0.53565 0.68992 0.43816 0.0
C524 C 0.33231 0.63298 0.38664 0.0
C525 C 0.36165 0.63678 0.38526 0.0
C526 C 0.42061 0.68574 0.39533 0.0
C527 C 0.49569 0.66673 0.4159 0.0
C528 C 0.46477 0.66523 0.40937 0.0
C529 C 0.37408 0.66057 0.39619 0.0
C530 C 0.40547 0.66225 0.39966 0.0
H531 H 0.55365 0.62607 0.41699 0.0
H532 H 0.50506 0.62622 0.40034 0.0
H533 H 0.46112 0.70548 0.39642 0.0
H534 H 0.31351 0.69328 0.41711 0.0
H535 H 0.36514 0.69994 0.41502 0.0
C536 C 0.37064 0.4148 0.659 0.0
C537 C 0.34592 0.40078 0.65074 0.0
C538 C 0.36954 0.43504 0.6796 0.0
C539 C 0.32032 0.48478 0.70971 0.0
H540 H 0.38443 0.50102 0.75686 0.0
C541 C 0.37313 0.57606 0.78376 0.0
C542 C 0.37087 0.59623 0.76574 0.0
C543 C 0.36299 0.5503 0.77656 0.0
C544 C 0.36598 0.49664 0.74434 0.0
H545 H 0.30083 0.39629 0.65862 0.0
H546 H 0.29893 0.43188 0.69469 0.0
H547 H 0.3815 0.45753 0.73224 0.0
H548 H 0.35427 0.60614 0.72724 0.0
H549 H 0.33653 0.56151 0.71467 0.0
H550 H 0.30526 0.52422 0.72119 0.0
C551 C 0.31913 0.4272 0.68502 0.0
C552 C 0.3645 0.47177 0.72995 0.0
C553 C 0.32027 0.40671 0.66447 0.0
C554 C 0.35619 0.59088 0.74148 0.0
C555 C 0.34594 0.56529 0.73436 0.0
C556 C 0.3218 0.50967 0.7241 0.0
C557 C 0.34368 0.44193 0.69246 0.0
C558 C 0.34224 0.46594 0.71168 0.0
C559 C 0.35028 0.54438 0.75129 0.0
C560 C 0.34522 0.51628 0.7408 0.0
H561 H 0.39081 0.41068 0.64902 0.0
H562 H 0.3888 0.44616 0.68453 0.0
H563 H 0.3029 0.481 0.69577 0.0
H564 H 0.38454 0.57969 0.80251 0.0
H565 H 0.36636 0.53471 0.79018 0.0
C566 C 0.03736 0.84617 0.12405 0.0
C567 C 0.04854 0.82453 0.10804 0.0
C568 C 0.00944 0.84556 0.13351 0.0
C569 C 0.94558 0.80239 0.14061 0.0
H570 H 0.906 0.86901 0.13194 0.0
C571 C 0.82264 0.81416 0.13195 0.0
C572 C 0.81083 0.83849 0.14212 0.0
C573 C 0.85205 0.80986 0.13351 0.0
C574 C 0.91673 0.85037 0.13501 0.0
H575 H 0.0397 0.78464 0.09063 0.0
H576 H 0.99051 0.78385 0.10651 0.0
H577 H 0.95672 0.86637 0.124 0.0
H578 H 0.81965 0.87632 0.16396 0.0
H579 H 0.87072 0.86861 0.16738 0.0
H580 H 0.9049 0.7863 0.15074 0.0
C581 C 0.0035 0.80114 0.11213 0.0
C582 C 0.94595 0.84885 0.13047 0.0
C583 C 0.03167 0.80162 0.10294 0.0
C584 C 0.82838 0.85749 0.15579 0.0
C585 C 0.8576 0.85313 0.15755 0.0
C586 C 0.91613 0.8039 0.14509 0.0
C587 C 0.9918 0.82346 0.12684 0.0
C588 C 0.96082 0.82487 0.13315 0.0
C589 C 0.86996 0.82981 0.14537 0.0
C590 C 0.9014 0.82795 0.1423 0.0
H591 H 0.05 0.86393 0.12872 0.0
H592 H 0.00142 0.8628 0.14542 0.0
H593 H 0.95639 0.78365 0.14301 0.0
H594 H 0.80947 0.79932 0.12117 0.0
H595 H 0.86091 0.79172 0.12386 0.0
C596 C 0.68905 0.58015 0.53308 0.0
C597 C 0.70225 0.59025 0.51065 0.0
C598 C 0.70274 0.56102 0.54747 0.0
C599 C 0.74936 0.50508 0.53737 0.0
H600 H 0.75245 0.50753 0.61514 0.0
C601 C 0.77487 0.41041 0.5914 0.0
C602 C 0.75673 0.40606 0.61308 0.0
C603 C 0.77608 0.4355 0.58084 0.0
C604 C 0.75166 0.50645 0.59341 0.0
H605 H 0.74034 0.58871 0.48597 0.0
H606 H 0.7639 0.55446 0.51075 0.0
H607 H 0.73894 0.54744 0.59287 0.0
H608 H 0.72735 0.42514 0.64197 0.0
H609 H 0.72833 0.46817 0.62296 0.0
H610 H 0.75986 0.46374 0.53767 0.0
C611 C 0.74316 0.56174 0.51732 0.0
C612 C 0.74411 0.52936 0.58072 0.0
C613 C 0.72971 0.58132 0.50325 0.0
C614 C 0.74105 0.42765 0.62485 0.0
C615 C 0.74202 0.45255 0.61419 0.0
C616 C 0.75642 0.48203 0.55004 0.0
C617 C 0.72964 0.55128 0.53939 0.0
C618 C 0.74217 0.52864 0.55264 0.0
C619 C 0.75906 0.4567 0.59167 0.0
C620 C 0.75676 0.4822 0.57826 0.0
H621 H 0.66797 0.58678 0.53932 0.0
H622 H 0.69179 0.55303 0.56427 0.0
H623 H 0.74779 0.50403 0.51566 0.0
H624 H 0.78727 0.39419 0.58189 0.0
H625 H 0.78981 0.43809 0.56377 0.0
C626 C 0.92041 0.14972 0.06019 0.0
C627 C 0.90713 0.17276 0.05162 0.0
C628 C 0.934 0.15014 0.085 0.0
C629 C 0.96731 0.19571 0.137 0.0
H630 H 0.96922 0.13099 0.17521 0.0
C631 C 0.03187 0.18036 0.23572 0.0
C632 C 0.05109 0.15883 0.2321 0.0
C633 C 0.01106 0.18457 0.21634 0.0
C634 C 0.96868 0.14926 0.16485 0.0
H635 H 0.89733 0.21427 0.06293 0.0
H636 H 0.9208 0.21485 0.10671 0.0
H637 H 0.93718 0.13387 0.13715 0.0
H638 H 0.06399 0.12566 0.2044 0.0
H639 H 0.02703 0.13233 0.17159 0.0
H640 H 0.99907 0.21088 0.16501 0.0
C641 C 0.92098 0.19655 0.09388 0.0
C642 C 0.95051 0.15089 0.14294 0.0
C643 C 0.90742 0.19618 0.06883 0.0
C644 C 0.0491 0.1419 0.20848 0.0
C645 C 0.02805 0.1458 0.1895 0.0
C646 C 0.98524 0.1942 0.15927 0.0
C647 C 0.93455 0.17352 0.10221 0.0
C648 C 0.95036 0.17373 0.12809 0.0
C649 C 0.00881 0.16707 0.19327 0.0
C650 C 0.9867 0.17062 0.17277 0.0
H651 H 0.92084 0.13132 0.04751 0.0
H652 H 0.94476 0.13218 0.09035 0.0
H653 H 0.96789 0.21355 0.12599 0.0
H654 H 0.03256 0.1937 0.2537 0.0
H655 H 0.9964 0.20114 0.2196 0.0
C656 C 0.15258 0.75624 0.1504 0.0
C657 C 0.17206 0.77562 0.14283 0.0
C658 C 0.15669 0.74329 0.17406 0.0
C659 C 0.21132 0.72867 0.2244 0.0
H660 H 0.1469 0.72379 0.27242 0.0
C661 C 0.22437 0.70688 0.33573 0.0
C662 C 0.2044 0.68981 0.34634 0.0
C663 C 0.22051 0.71564 0.30998 0.0
C664 C 0.16504 0.72466 0.25909 0.0
H665 H 0.21157 0.79598 0.15389 0.0
H666 H 0.21852 0.77361 0.19494 0.0
H667 H 0.14002 0.74105 0.2284 0.0
H668 H 0.16514 0.66808 0.33908 0.0
H669 H 0.15835 0.68315 0.29393 0.0
H670 H 0.23641 0.71256 0.25519 0.0
C671 C 0.2002 0.76825 0.18257 0.0
C672 C 0.16107 0.73451 0.23385 0.0
C673 C 0.19606 0.78123 0.15908 0.0
C674 C 0.18065 0.68143 0.33112 0.0
C675 C 0.17675 0.69015 0.30541 0.0
C676 C 0.21529 0.71881 0.24962 0.0
C677 C 0.18045 0.74934 0.19048 0.0
C678 C 0.18423 0.7369 0.21636 0.0
C679 C 0.19661 0.70739 0.29455 0.0
C680 C 0.19224 0.71695 0.26736 0.0
H681 H 0.13388 0.75142 0.13836 0.0
H682 H 0.14124 0.72861 0.17954 0.0
H683 H 0.22951 0.72992 0.21119 0.0
H684 H 0.24286 0.71347 0.34734 0.0
H685 H 0.236 0.72917 0.30232 0.0
C686 C 0.74525 0.71555 0.51623 0.0
C687 C 0.71559 0.71905 0.51764 0.0
C688 C 0.76308 0.72883 0.53514 0.0
C689 C 0.76549 0.78477 0.58824 0.0
H690 H 0.83026 0.74529 0.61278 0.0
C691 C 0.83457 0.8178 0.68186 0.0
C692 C 0.86398 0.81407 0.67885 0.0
C693 C 0.81601 0.80852 0.66129 0.0
C694 C 0.81243 0.7567 0.60594 0.0
H695 H 0.68151 0.73956 0.54004 0.0
H696 H 0.71256 0.76218 0.57338 0.0
H697 H 0.7988 0.72444 0.57889 0.0
H698 H 0.89746 0.79863 0.65238 0.0
H699 H 0.86523 0.78252 0.61641 0.0
H700 H 0.77904 0.81685 0.61599 0.0
C701 C 0.72211 0.74958 0.55732 0.0
C702 C 0.7944 0.74477 0.58641 0.0
C703 C 0.70426 0.73648 0.53824 0.0
C704 C 0.87477 0.80175 0.65495 0.0
C705 C 0.85633 0.79238 0.63452 0.0
C706 C 0.78346 0.79666 0.60801 0.0
C707 C 0.75175 0.74574 0.55617 0.0
C708 C 0.77078 0.75867 0.57714 0.0
C709 C 0.82672 0.79516 0.63765 0.0
C710 C 0.80725 0.78279 0.61691 0.0
H711 H 0.75476 0.7025 0.5005 0.0
H712 H 0.78583 0.7258 0.53322 0.0
H713 H 0.74769 0.7962 0.5814 0.0
H714 H 0.82592 0.82709 0.70036 0.0
H715 H 0.7933 0.81081 0.66433 0.0
C716 C 0.79284 0.24241 0.03769 0.0
C717 C 0.78325 0.22222 0.01888 0.0
C718 C 0.77404 0.25481 0.05644 0.0
C719 C 0.70469 0.24386 0.08916 0.0
H720 H 0.70813 0.31981 0.1093 0.0
C721 C 0.61629 0.29667 0.15161 0.0
C722 C 0.62467 0.31432 0.17307 0.0
C723 C 0.63619 0.28694 0.1326 0.0
C724 C 0.7071 0.29854 0.10404 0.0
H725 H 0.74606 0.19984 0.00469 0.0
H726 H 0.71338 0.22168 0.03694 0.0
H727 H 0.74183 0.29991 0.07627 0.0
H728 H 0.65984 0.3363 0.19168 0.0
H729 H 0.69505 0.3193 0.15818 0.0
H730 H 0.66992 0.24244 0.11668 0.0
C731 C 0.73555 0.22756 0.03762 0.0
C732 C 0.72641 0.28711 0.08515 0.0
C733 C 0.75431 0.21512 0.01898 0.0
C734 C 0.65305 0.32275 0.17508 0.0
C735 C 0.67307 0.31308 0.15593 0.0
C736 C 0.68539 0.25526 0.10788 0.0
C737 C 0.74521 0.24735 0.05679 0.0
C738 C 0.72527 0.25965 0.07732 0.0
C739 C 0.6649 0.29469 0.13473 0.0
C740 C 0.68618 0.28275 0.11538 0.0
H741 H 0.81499 0.24837 0.03827 0.0
H742 H 0.78226 0.2698 0.07106 0.0
H743 H 0.70361 0.22255 0.08413 0.0
H744 H 0.59441 0.28997 0.14982 0.0
H745 H 0.62913 0.27316 0.1163 0.0
C746 C 0.30729 0.27445 0.6592 0.0
C747 C 0.3328 0.27168 0.64451 0.0
C748 C 0.30407 0.26243 0.68337 0.0
C749 C 0.34544 0.23964 0.73925 0.0
H750 H 0.27381 0.20793 0.75895 0.0
C751 C 0.32795 0.19346 0.84115 0.0
C752 C 0.30169 0.19865 0.8537 0.0
C753 C 0.33261 0.20082 0.815 0.0
C754 C 0.29385 0.21695 0.75384 0.0
H755 H 0.37469 0.25345 0.6434 0.0
H756 H 0.369 0.23238 0.6859 0.0
H757 H 0.28041 0.22192 0.71354 0.0
H758 H 0.25969 0.21546 0.84963 0.0
H759 H 0.26784 0.22888 0.80397 0.0
H760 H 0.3587 0.23515 0.77972 0.0
C761 C 0.35159 0.24404 0.67861 0.0
C762 C 0.29767 0.22485 0.72781 0.0
C763 C 0.35476 0.25593 0.65421 0.0
C764 C 0.28015 0.21145 0.84015 0.0
C765 C 0.28477 0.21884 0.814 0.0
C766 C 0.3416 0.23178 0.76534 0.0
C767 C 0.32631 0.24743 0.69356 0.0
C768 C 0.32335 0.23663 0.72034 0.0
C769 C 0.31099 0.21341 0.80105 0.0
C770 C 0.31561 0.2207 0.77303 0.0
H771 H 0.28988 0.28633 0.65228 0.0
H772 H 0.28445 0.26567 0.69454 0.0
H773 H 0.36533 0.24897 0.73418 0.0
H774 H 0.34469 0.18332 0.85137 0.0
H775 H 0.3529 0.1961 0.80551 0.0
C776 C 0.69719 0.71362 0.38088 0.0
C777 C 0.67312 0.7187 0.39725 0.0
C778 C 0.7004 0.72604 0.35693 0.0
C779 C 0.65918 0.75671 0.305 0.0
H780 H 0.73307 0.7817 0.28278 0.0
C781 C 0.67542 0.80986 0.20711 0.0
C782 C 0.69968 0.80277 0.19198 0.0
C783 C 0.67193 0.80082 0.23275 0.0
C784 C 0.71236 0.77456 0.28858 0.0
H785 H 0.63381 0.74131 0.40141 0.0
H786 H 0.63954 0.76313 0.35941 0.0
H787 H 0.72746 0.76485 0.32716 0.0
H788 H 0.73939 0.78098 0.191 0.0
H789 H 0.73327 0.76468 0.23585 0.0
H790 H 0.64416 0.76608 0.2663 0.0
C791 C 0.65577 0.74931 0.36517 0.0
C792 C 0.70913 0.765 0.31403 0.0
C793 C 0.65259 0.73695 0.38929 0.0
C794 C 0.72049 0.78655 0.20253 0.0
C795 C 0.71704 0.77745 0.22819 0.0
C796 C 0.66242 0.76625 0.27952 0.0
C797 C 0.67963 0.74382 0.34867 0.0
C798 C 0.68257 0.75573 0.32241 0.0
C799 C 0.69274 0.78456 0.24363 0.0
C800 C 0.68911 0.77506 0.27094 0.0
H801 H 0.71348 0.69974 0.38635 0.0
H802 H 0.71884 0.72113 0.34451 0.0
H803 H 0.63854 0.74935 0.31074 0.0
H804 H 0.65926 0.82258 0.1992 0.0
H805 H 0.65317 0.80692 0.24423 0.0
C806 C 0.84974 0.2421 0.8902 0.0
C807 C 0.82825 0.2254 0.89923 0.0
C808 C 0.84701 0.2536 0.86557 0.0
C809 C 0.79445 0.26971 0.81398 0.0
H810 H 0.85864 0.26287 0.76507 0.0
C811 C 0.78252 0.28425 0.70116 0.0
C812 C 0.80411 0.29838 0.68906 0.0
C813 C 0.78602 0.27643 0.7273 0.0
C814 C 0.84063 0.26525 0.7786 0.0
H815 H 0.78653 0.2086 0.88993 0.0
H816 H 0.78188 0.22856 0.84721 0.0
H817 H 0.8636 0.24908 0.81077 0.0
H818 H 0.84609 0.31563 0.69395 0.0
H819 H 0.85234 0.30213 0.7398 0.0
H820 H 0.77139 0.28567 0.78181 0.0
C821 C 0.80078 0.23286 0.85912 0.0
C822 C 0.8435 0.25741 0.80479 0.0
C823 C 0.80357 0.22126 0.88357 0.0
C824 C 0.82933 0.30446 0.70304 0.0
C825 C 0.83288 0.29668 0.72918 0.0
C826 C 0.79159 0.27759 0.78783 0.0
C827 C 0.82263 0.24881 0.84964 0.0
C828 C 0.82033 0.25926 0.82265 0.0
C829 C 0.81116 0.28277 0.74169 0.0
C830 C 0.81454 0.27515 0.76974 0.0
H831 H 0.86902 0.24568 0.90175 0.0
H832 H 0.86407 0.26604 0.85886 0.0
H833 H 0.77633 0.27171 0.82741 0.0
H834 H 0.76284 0.27955 0.69057 0.0
H835 H 0.76907 0.2654 0.73622 0.0
C836 C 0.30198 0.2571 0.50337 0.0
C837 C 0.29052 0.27468 0.52378 0.0
C838 C 0.28449 0.24511 0.48334 0.0
C839 C 0.21487 0.25448 0.4507 0.0
H840 H 0.22869 0.18295 0.41886 0.0
C841 C 0.1407 0.20673 0.36965 0.0
C842 C 0.15418 0.19495 0.34676 0.0
C843 C 0.15638 0.21353 0.39288 0.0
C844 C 0.22467 0.20299 0.4275 0.0
H845 H 0.25139 0.29253 0.53963 0.0
H846 H 0.22087 0.27119 0.50513 0.0
H847 H 0.25764 0.20033 0.45679 0.0
H848 H 0.19404 0.18021 0.3299 0.0
H849 H 0.22173 0.19203 0.37069 0.0
H850 H 0.18201 0.2572 0.42142 0.0
C851 C 0.24351 0.26717 0.50419 0.0
C852 C 0.24129 0.213 0.44919 0.0
C853 C 0.26101 0.27932 0.5241 0.0
C854 C 0.18329 0.18911 0.34755 0.0
C855 C 0.19904 0.19582 0.37086 0.0
C856 C 0.19819 0.24443 0.42918 0.0
C857 C 0.25506 0.25024 0.4833 0.0
C858 C 0.2367 0.23895 0.46097 0.0
C859 C 0.18585 0.20869 0.39358 0.0
C860 C 0.20297 0.21864 0.41723 0.0
H861 H 0.32463 0.25312 0.5024 0.0
H862 H 0.29423 0.23247 0.46742 0.0
H863 H 0.21108 0.27473 0.45881 0.0
H864 H 0.1182 0.21146 0.36929 0.0
H865 H 0.14554 0.22307 0.41015 0.0
C866 C 0.20144 0.76173 0.0018 0.0
C867 C 0.21247 0.77937 0.02234 0.0
C868 C 0.21945 0.74918 0.98245 0.0
C869 C 0.2912 0.75567 0.95249 0.0
H870 H 0.27766 0.68307 0.92356 0.0
C871 C 0.37251 0.69997 0.88361 0.0
C872 C 0.36186 0.68703 0.85998 0.0
C873 C 0.35399 0.70923 0.90408 0.0
C874 C 0.28156 0.70342 0.93135 0.0
H875 H 0.2513 0.79701 0.03899 0.0
H876 H 0.28267 0.7747 0.00576 0.0
H877 H 0.24612 0.70317 0.95836 0.0
H878 H 0.32399 0.67284 0.83899 0.0
H879 H 0.29124 0.68891 0.87508 0.0
H880 H 0.32676 0.75584 0.92573 0.0
C881 C 0.26001 0.77105 0.00414 0.0
C882 C 0.26347 0.71498 0.95124 0.0
C883 C 0.24201 0.78375 0.02334 0.0
C884 C 0.33254 0.68261 0.85727 0.0
C885 C 0.31391 0.69177 0.87788 0.0
C886 C 0.30935 0.74405 0.93283 0.0
C887 C 0.24896 0.75382 0.98325 0.0
C888 C 0.26811 0.74127 0.96212 0.0
C889 C 0.32444 0.70571 0.90125 0.0
C890 C 0.30482 0.71778 0.92209 0.0
H891 H 0.17879 0.75796 0.00031 0.0
H892 H 0.2101 0.73634 0.9665 0.0
H893 H 0.29509 0.77614 0.95986 0.0
H894 H 0.39513 0.70362 0.88595 0.0
H895 H 0.36278 0.71954 0.92198 0.0
loop_
_geom_bond_atom_site_label_1
_geom_bond_atom_site_label_2
_geom_bond_distance
_geom_bond_site_symmetry_2
_ccdc_geom_bond_type
Sc0 O3 2.025 . S
Sc0 O10 2.105 . S
Sc0 O13 2.105 . S
Sc0 O16 2.105 . S
Sc0 O19 2.086 1_554 S
Sc1 O3 2.025 . S
Sc1 O11 2.105 1_554 S
Sc1 O15 2.105 . S
Sc1 O17 2.105 . S
Sc1 O21 2.105 . S
Sc2 O3 2.025 . S
Sc2 O12 2.105 . S
Sc2 O14 2.105 . S
Sc2 O18 2.105 . S
Sc2 O20 2.105 . S
O3 Sc0 2.025 . S
O3 Sc1 2.025 . S
O3 Sc2 2.025 . S
C4 O10 1.268 . S
C4 O20 1.268 . S
C5 O11 1.268 . S
C5 O19 1.278 . S
C6 O12 1.268 . S
C6 O21 1.268 . S
C7 O13 1.268 . S
C7 O17 1.268 . S
C8 O14 1.268 . S
C8 O16 1.268 . S
C9 O15 1.268 . S
C9 O18 1.268 . S
O10 Sc0 2.105 . S
O10 C4 1.268 . S
O11 Sc1 2.105 1_556 S
O11 C5 1.268 . S
O12 Sc2 2.105 . S
O12 C6 1.268 . S
O13 Sc0 2.105 . S
O13 C7 1.268 . S
O14 Sc2 2.105 . S
O14 C8 1.268 . S
O15 Sc1 2.105 . S
O15 C9 1.268 . S
O16 Sc0 2.105 . S
O16 C8 1.268 . S
O17 Sc1 2.105 . S
O17 C7 1.268 . S
O18 Sc2 2.105 . S
O18 C9 1.268 . S
O19 Sc0 2.086 1_556 S
O19 C5 1.278 . S
O20 Sc2 2.105 . S
O20 C4 1.268 . S
O21 Sc1 2.105 . S
O21 C6 1.268 . S
Sc22 O25 2.025 . S
Sc22 O32 2.105 . S
Sc22 O35 2.105 . S
Sc22 O38 2.105 . S
Sc22 O41 2.105 . S
Sc23 O25 2.025 . S
Sc23 O33 2.105 . S
Sc23 O37 2.105 . S
Sc23 O39 2.105 . S
Sc23 O43 2.105 . S
Sc24 O25 2.025 . S
Sc24 O34 2.105 . S
Sc24 O36 2.105 . S
Sc24 O40 2.105 . S
Sc24 O42 2.105 . S
O25 Sc22 2.025 . S
O25 Sc23 2.025 . S
O25 Sc24 2.025 . S
C26 O32 1.268 . S
C26 O42 1.268 . S
C27 O33 1.268 . S
C27 O41 1.268 . S
C28 O34 1.268 . S
C28 O43 1.268 . S
C29 O35 1.268 . S
C29 O39 1.268 . S
C30 O36 1.268 . S
C30 O38 1.268 . S
C31 O37 1.268 . S
C31 O40 1.268 . S
O32 Sc22 2.105 . S
O32 C26 1.268 . S
O33 Sc23 2.105 . S
O33 C27 1.268 . S
O34 Sc24 2.105 . S
O34 C28 1.268 . S
O35 Sc22 2.105 . S
O35 C29 1.268 . S
O36 Sc24 2.105 . S
O36 C30 1.268 . S
O37 Sc23 2.105 . S
O37 C31 1.268 . S
O38 Sc22 2.105 . S
O38 C30 1.268 . S
O39 Sc23 2.105 . S
O39 C29 1.268 . S
O40 Sc24 2.105 . S
O40 C31 1.268 . S
O41 Sc22 2.105 . S
O41 C27 1.268 . S
O42 Sc24 2.105 . S
O42 C26 1.268 . S
O43 Sc23 2.105 . S
O43 C28 1.268 . S
Sc44 O47 2.025 . S
Sc44 O54 2.105 1_554 S
Sc44 O57 2.105 . S
Sc44 O60 2.105 . S
Sc44 O63 2.105 1_554 S
Sc45 O47 2.025 1_556 S
Sc45 O55 2.105 . S
Sc45 O59 2.105 1_556 S
Sc45 O61 2.105 1_556 S
Sc45 O65 2.105 . S
Sc46 O47 2.025 . S
Sc46 O56 2.105 1_554 S
Sc46 O58 2.105 . S
Sc46 O62 2.105 . S
Sc46 O64 2.105 1_554 S
O47 Sc44 2.025 . S
O47 Sc45 2.025 1_554 S
O47 Sc46 2.025 . S
C48 O54 1.268 . S
C48 O64 1.268 . S
C49 O55 1.268 . S
C49 O63 1.268 . S
C50 O56 1.268 . S
C50 O65 1.268 . S
C51 O57 1.268 . S
C51 O61 1.268 . S
C52 O58 1.268 . S
C52 O60 1.268 . S
C53 O59 1.268 . S
C53 O62 1.268 . S
O54 Sc44 2.105 1_556 S
O54 C48 1.268 . S
O55 Sc45 2.105 . S
O55 C49 1.268 . S
O56 Sc46 2.105 1_556 S
O56 C50 1.268 . S
O57 Sc44 2.105 . S
O57 C51 1.268 . S
O58 Sc46 2.105 . S
O58 C52 1.268 . S
O59 Sc45 2.105 1_554 S
O59 C53 1.268 . S
O60 Sc44 2.105 . S
O60 C52 1.268 . S
O61 Sc45 2.105 1_554 S
O61 C51 1.268 . S
O62 Sc46 2.105 . S
O62 C53 1.268 . S
O63 Sc44 2.105 1_556 S
O63 C49 1.268 . S
O64 Sc46 2.105 1_556 S
O64 C48 1.268 . S
O65 Sc45 2.105 . S
O65 C50 1.268 . S
Sc66 O69 2.025 . S
Sc66 O76 2.105 . S
Sc66 O79 2.105 . S
Sc66 O82 2.105 . S
Sc66 O85 2.105 . S
Sc67 O69 2.025 . S
Sc67 O77 2.105 . S
Sc67 O81 2.105 . S
Sc67 O83 2.105 . S
Sc67 O87 2.105 . S
Sc68 O69 2.025 . S
Sc68 O78 2.105 . S
Sc68 O80 2.105 . S
Sc68 O84 2.105 . S
Sc68 O86 2.105 . S
O69 Sc66 2.025 . S
O69 Sc67 2.025 . S
O69 Sc68 2.025 . S
C70 O76 1.268 . S
C70 O86 1.268 . S
C71 O77 1.268 . S
C71 O85 1.268 . S
C72 O78 1.268 . S
C72 O87 1.268 . S
C73 O79 1.268 . S
C73 O83 1.268 . S
C74 O80 1.268 . S
C74 O82 1.268 . S
C75 O81 1.268 . S
C75 O84 1.268 . S
O76 Sc66 2.105 . S
O76 C70 1.268 . S
O77 Sc67 2.105 . S
O77 C71 1.268 . S
O78 Sc68 2.105 . S
O78 C72 1.268 . S
O79 Sc66 2.105 . S
O79 C73 1.268 . S
O80 Sc68 2.105 . S
O80 C74 1.268 . S
O81 Sc67 2.105 . S
O81 C75 1.268 . S
O82 Sc66 2.105 . S
O82 C74 1.268 . S
O83 Sc67 2.105 . S
O83 C73 1.268 . S
O84 Sc68 2.105 . S
O84 C75 1.268 . S
O85 Sc66 2.105 . S
O85 C71 1.268 . S
O86 Sc68 2.105 . S
O86 C70 1.268 . S
O87 Sc67 2.105 . S
O87 C72 1.268 . S
H88 C91 0.929 . S
H89 C94 0.929 . S
H90 C96 0.930 . S
C91 H88 0.929 . S
C91 C92 1.398 . S
C91 C93 1.396 . S
C92 C91 1.398 . S
C92 C96 1.407 . S
C93 C91 1.396 . S
C93 C94 1.394 . S
C94 H89 0.929 . S
C94 C93 1.394 . S
C94 C95 1.382 . S
C95 C94 1.382 . S
C95 C96 1.392 . S
C95 N97 1.420 . S
C96 H90 0.930 . S
C96 C92 1.407 . S
C96 C95 1.392 . S
N97 C95 1.420 . S
N97 C98 1.244 . S
C98 N97 1.244 . S
H99 C102 0.929 . S
H100 C105 0.929 . S
H101 C107 0.930 . S
C102 H99 0.929 . S
C102 C103 1.398 . S
C102 C104 1.396 . S
C103 C102 1.398 . S
C103 C107 1.407 . S
C104 C102 1.396 . S
C104 C105 1.394 . S
C105 H100 0.929 . S
C105 C104 1.394 . S
C105 C106 1.382 . S
C106 C105 1.382 . S
C106 C107 1.392 . S
C106 N108 1.420 . S
C107 H101 0.930 . S
C107 C103 1.407 . S
C107 C106 1.392 . S
N108 C106 1.420 . S
N108 C109 1.244 . S
C109 N108 1.244 . S
H110 C113 0.929 . S
H111 C116 0.929 . S
H112 C118 0.930 . S
C113 H110 0.929 . S
C113 C114 1.398 . S
C113 C115 1.396 . S
C114 C113 1.398 . S
C114 C118 1.407 . S
C115 C113 1.396 . S
C115 C116 1.394 . S
C116 H111 0.929 . S
C116 C115 1.394 . S
C116 C117 1.382 . S
C117 C116 1.382 . S
C117 C118 1.392 . S
C117 N119 1.420 . S
C118 H112 0.930 . S
C118 C114 1.407 . S
C118 C117 1.392 . S
N119 C117 1.420 . S
N119 C120 1.244 . S
C120 N119 1.244 . S
H121 C124 0.929 . S
H122 C127 0.929 . S
H123 C129 0.930 . S
C124 H121 0.929 . S
C124 C125 1.398 . S
C124 C126 1.396 . S
C125 C124 1.398 . S
C125 C129 1.407 . S
C126 C124 1.396 . S
C126 C127 1.394 . S
C127 H122 0.929 . S
C127 C126 1.394 . S
C127 C128 1.382 . S
C128 C127 1.382 . S
C128 C129 1.392 . S
C128 N130 1.420 . S
C129 H123 0.930 . S
C129 C125 1.407 . S
C129 C128 1.392 . S
N130 C128 1.420 . S
N130 C131 1.244 . S
C131 N130 1.244 . S
H132 C135 0.929 . S
H133 C138 0.929 . S
H134 C140 0.930 . S
C135 H132 0.929 . S
C135 C136 1.398 . S
C135 C137 1.396 . S
C136 C135 1.398 . S
C136 C140 1.407 . S
C137 C135 1.396 . S
C137 C138 1.394 . S
C138 H133 0.929 . S
C138 C137 1.394 . S
C138 C139 1.382 . S
C139 C138 1.382 . S
C139 C140 1.392 . S
C139 N141 1.420 . S
C140 H134 0.930 . S
C140 C136 1.407 . S
C140 C139 1.392 . S
N141 C139 1.420 . S
N141 C142 1.244 . S
C142 N141 1.244 . S
H143 C146 0.929 . S
H144 C149 0.929 . S
H145 C151 0.930 . S
C146 H143 0.929 . S
C146 C147 1.398 . S
C146 C148 1.396 . S
C147 C146 1.398 . S
C147 C151 1.407 . S
C148 C146 1.396 . S
C148 C149 1.394 . S
C149 H144 0.929 . S
C149 C148 1.394 . S
C149 C150 1.382 . S
C150 C149 1.382 . S
C150 C151 1.392 . S
C150 N152 1.420 . S
C151 H145 0.930 . S
C151 C147 1.407 . S
C151 C150 1.392 . S
N152 C150 1.420 . S
N152 C153 1.244 . S
C153 N152 1.244 . S
H154 C157 0.929 . S
H155 C160 0.929 . S
H156 C162 0.930 . S
C157 H154 0.929 . S
C157 C158 1.398 . S
C157 C159 1.396 . S
C158 C157 1.398 . S
C158 C162 1.407 . S
C159 C157 1.396 . S
C159 C160 1.394 . S
C160 H155 0.929 . S
C160 C159 1.394 . S
C160 C161 1.382 . S
C161 C160 1.382 . S
C161 C162 1.392 . S
C161 N163 1.420 . S
C162 H156 0.930 . S
C162 C158 1.407 . S
C162 C161 1.392 . S
N163 C161 1.420 . S
N163 C164 1.244 . S
C164 N163 1.244 . S
H165 C168 0.929 . S
H166 C171 0.929 . S
H167 C173 0.930 . S
C168 H165 0.929 . S
C168 C169 1.398 . S
C168 C170 1.396 . S
C169 C168 1.398 . S
C169 C173 1.407 . S
C170 C168 1.396 . S
C170 C171 1.394 . S
C171 H166 0.929 . S
C171 C170 1.394 . S
C171 C172 1.382 . S
C172 C171 1.382 . S
C172 C173 1.392 . S
C172 N174 1.420 . S
C173 H167 0.930 . S
C173 C169 1.407 . S
C173 C172 1.392 . S
N174 C172 1.420 . S
N174 C175 1.244 . S
C175 N174 1.244 . S
C176 C177 1.349 . S
C176 C178 1.327 . S
C176 H201 0.950 . S
C177 C176 1.349 . S
C177 C193 1.349 . S
C178 C176 1.327 . S
C178 C197 1.429 . S
C178 H202 0.950 . S
C179 C196 1.574 1_565 S
C179 C198 1.368 . S
C179 H203 0.949 . S
H180 C184 0.949 . S
C181 C182 1.349 . S
C181 C183 1.327 . S
C181 H204 0.950 . S
C182 C181 1.349 . S
C182 C194 1.349 . S
C183 C181 1.327 . S
C183 C199 1.429 . S
C183 H205 0.950 . S
C184 H180 0.949 . S
C184 C192 1.574 1_545 S
C184 C200 1.368 . S
H185 C193 0.950 . S
H186 C191 0.950 . S
H187 C192 0.949 . S
H188 C194 0.950 . S
H189 C195 0.950 . S
H190 C196 0.949 . S
C191 H186 0.950 . S
C191 C193 1.327 . S
C191 C197 1.429 . S
C192 C184 1.574 1_565 S
C192 H187 0.949 . S
C192 C198 1.368 . S
C193 C177 1.349 . S
C193 H185 0.950 . S
C193 C191 1.327 . S
C194 C182 1.349 . S
C194 H188 0.950 . S
C194 C195 1.327 . S
C195 H189 0.950 . S
C195 C194 1.327 . S
C195 C199 1.429 . S
C196 C179 1.574 1_545 S
C196 H190 0.949 . S
C196 C200 1.368 . S
C197 C178 1.429 . S
C197 C191 1.429 . S
C197 C198 1.523 . S
C198 C179 1.368 . S
C198 C192 1.368 . S
C198 C197 1.523 . S
C199 C183 1.429 . S
C199 C195 1.429 . S
C199 C200 1.523 . S
C200 C184 1.368 . S
C200 C196 1.368 . S
C200 C199 1.523 . S
H201 C176 0.950 . S
H202 C178 0.950 . S
H203 C179 0.949 . S
H204 C181 0.950 . S
H205 C183 0.950 . S
C206 C207 1.349 . S
C206 C208 1.327 . S
C206 H231 0.950 . S
C207 C206 1.349 . S
C207 C223 1.349 . S
C208 C206 1.327 . S
C208 C227 1.429 . S
C208 H232 0.950 . S
C209 C226 1.574 . S
C209 C228 1.368 . S
C209 H233 0.949 . S
H210 C214 0.949 . S
C211 C212 1.349 . S
C211 C213 1.327 . S
C211 H234 0.950 . S
C212 C211 1.349 . S
C212 C224 1.349 . S
C213 C211 1.327 . S
C213 C229 1.429 . S
C213 H235 0.950 . S
C214 H210 0.949 . S
C214 C222 1.574 . S
C214 C230 1.368 . S
H215 C223 0.950 . S
H216 C221 0.950 . S
H217 C222 0.949 . S
H218 C224 0.950 . S
H219 C225 0.950 . S
H220 C226 0.949 . S
C221 H216 0.950 . S
C221 C223 1.327 . S
C221 C227 1.429 . S
C222 C214 1.574 . S
C222 H217 0.949 . S
C222 C228 1.368 . S
C223 C207 1.349 . S
C223 H215 0.950 . S
C223 C221 1.327 . S
C224 C212 1.349 . S
C224 H218 0.950 . S
C224 C225 1.327 . S
C225 H219 0.950 . S
C225 C224 1.327 . S
C225 C229 1.429 . S
C226 C209 1.574 . S
C226 H220 0.949 . S
C226 C230 1.368 . S
C227 C208 1.429 . S
C227 C221 1.429 . S
C227 C228 1.523 . S
C228 C209 1.368 . S
C228 C222 1.368 . S
C228 C227 1.523 . S
C229 C213 1.429 . S
C229 C225 1.429 . S
C229 C230 1.523 . S
C230 C214 1.368 . S
C230 C226 1.368 . S
C230 C229 1.523 . S
H231 C206 0.950 . S
H232 C208 0.950 . S
H233 C209 0.949 . S
H234 C211 0.950 . S
H235 C213 0.950 . S
C236 C237 1.349 . S
C236 C238 1.327 . S
C236 H261 0.950 . S
C237 C236 1.349 . S
C237 C253 1.349 . S
C238 C236 1.327 . S
C238 C257 1.429 . S
C238 H262 0.950 . S
C239 C256 1.574 . S
C239 C258 1.368 1_565 S
C239 H263 0.949 . S
H240 C244 0.949 . S
C241 C242 1.349 . S
C241 C243 1.327 . S
C241 H264 0.950 . S
C242 C241 1.349 . S
C242 C254 1.349 . S
C243 C241 1.327 . S
C243 C259 1.429 . S
C243 H265 0.950 . S
C244 H240 0.949 . S
C244 C252 1.574 1_565 S
C244 C260 1.368 . S
H245 C253 0.950 . S
H246 C251 0.950 . S
H247 C252 0.949 . S
H248 C254 0.950 . S
H249 C255 0.950 . S
H250 C256 0.949 . S
C251 H246 0.950 . S
C251 C253 1.327 . S
C251 C257 1.429 . S
C252 C244 1.574 1_545 S
C252 H247 0.949 . S
C252 C258 1.368 . S
C253 C237 1.349 . S
C253 H245 0.950 . S
C253 C251 1.327 . S
C254 C242 1.349 . S
C254 H248 0.950 . S
C254 C255 1.327 . S
C255 H249 0.950 . S
C255 C254 1.327 . S
C255 C259 1.429 . S
C256 C239 1.574 . S
C256 H250 0.949 . S
C256 C260 1.368 . S
C257 C238 1.429 . S
C257 C251 1.429 . S
C257 C258 1.523 . S
C258 C239 1.368 1_545 S
C258 C252 1.368 . S
C258 C257 1.523 . S
C259 C243 1.429 . S
C259 C255 1.429 . S
C259 C260 1.523 . S
C260 C244 1.368 . S
C260 C256 1.368 . S
C260 C259 1.523 . S
H261 C236 0.950 . S
H262 C238 0.950 . S
H263 C239 0.949 . S
H264 C241 0.950 . S
H265 C243 0.950 . S
C266 C267 1.349 . S
C266 C268 1.327 . S
C266 H291 0.950 . S
C267 C266 1.349 . S
C267 C283 1.349 . S
C268 C266 1.327 . S
C268 C287 1.429 . S
C268 H292 0.950 . S
C269 C286 1.574 . S
C269 C288 1.368 . S
C269 H293 0.949 . S
H270 C274 0.949 . S
C271 C272 1.349 . S
C271 C273 1.327 . S
C271 H294 0.950 . S
C272 C271 1.349 . S
C272 C284 1.349 . S
C273 C271 1.327 . S
C273 C289 1.429 . S
C273 H295 0.950 . S
C274 H270 0.949 . S
C274 C282 1.574 . S
C274 C290 1.368 . S
H275 C283 0.950 . S
H276 C281 0.950 . S
H277 C282 0.949 . S
H278 C284 0.950 . S
H279 C285 0.950 . S
H280 C286 0.949 . S
C281 H276 0.950 . S
C281 C283 1.327 . S
C281 C287 1.429 . S
C282 C274 1.574 . S
C282 H277 0.949 . S
C282 C288 1.368 . S
C283 C267 1.349 . S
C283 H275 0.950 . S
C283 C281 1.327 . S
C284 C272 1.349 . S
C284 H278 0.950 . S
C284 C285 1.327 . S
C285 H279 0.950 . S
C285 C284 1.327 . S
C285 C289 1.429 . S
C286 C269 1.574 . S
C286 H280 0.949 . S
C286 C290 1.368 . S
C287 C268 1.429 . S
C287 C281 1.429 . S
C287 C288 1.523 . S
C288 C269 1.368 . S
C288 C282 1.368 . S
C288 C287 1.523 . S
C289 C273 1.429 . S
C289 C285 1.429 . S
C289 C290 1.523 . S
C290 C274 1.368 . S
C290 C286 1.368 . S
C290 C289 1.523 . S
H291 C266 0.950 . S
H292 C268 0.950 . S
H293 C269 0.949 . S
H294 C271 0.950 . S
H295 C273 0.950 . S
C296 C297 1.349 . S
C296 C298 1.327 . S
C296 H321 0.950 . S
C297 C296 1.349 . S
C297 C313 1.349 . S
C298 C296 1.327 . S
C298 C317 1.429 . S
C298 H322 0.950 . S
C299 C316 1.574 . S
C299 C318 1.368 . S
C299 H323 0.949 . S
H300 C304 0.949 . S
C301 C302 1.349 . S
C301 C303 1.327 . S
C301 H324 0.950 . S
C302 C301 1.349 . S
C302 C314 1.349 . S
C303 C301 1.327 . S
C303 C319 1.429 . S
C303 H325 0.950 . S
C304 H300 0.949 . S
C304 C312 1.574 . S
C304 C320 1.368 . S
H305 C313 0.950 . S
H306 C311 0.950 . S
H307 C312 0.949 . S
H308 C314 0.950 . S
H309 C315 0.950 . S
H310 C316 0.949 . S
C311 H306 0.950 . S
C311 C313 1.327 . S
C311 C317 1.429 . S
C312 C304 1.574 . S
C312 H307 0.949 . S
C312 C318 1.368 . S
C313 C297 1.349 . S
C313 H305 0.950 . S
C313 C311 1.327 . S
C314 C302 1.349 . S
C314 H308 0.950 . S
C314 C315 1.327 . S
C315 H309 0.950 . S
C315 C314 1.327 . S
C315 C319 1.429 . S
C316 C299 1.574 . S
C316 H310 0.949 . S
C316 C320 1.368 . S
C317 C298 1.429 . S
C317 C311 1.429 . S
C317 C318 1.523 . S
C318 C299 1.368 . S
C318 C312 1.368 . S
C318 C317 1.523 . S
C319 C303 1.429 . S
C319 C315 1.429 . S
C319 C320 1.523 . S
C320 C304 1.368 . S
C320 C316 1.368 . S
C320 C319 1.523 . S
H321 C296 0.950 . S
H322 C298 0.950 . S
H323 C299 0.949 . S
H324 C301 0.950 . S
H325 C303 0.950 . S
C326 C327 1.349 . S
C326 C328 1.327 . S
C326 H351 0.950 . S
C327 C326 1.349 . S
C327 C343 1.349 . S
C328 C326 1.327 . S
C328 C347 1.429 1_655 S
C328 H352 0.950 1_655 S
C329 C346 1.574 . S
C329 C348 1.368 . S
C329 H353 0.949 . S
H330 C334 0.949 . S
C331 C332 1.349 . S
C331 C333 1.327 . S
C331 H354 0.950 . S
C332 C331 1.349 . S
C332 C344 1.349 . S
C333 C331 1.327 . S
C333 C349 1.429 . S
C333 H355 0.950 . S
C334 H330 0.949 . S
C334 C342 1.574 . S
C334 C350 1.368 . S
H335 C343 0.950 . S
H336 C341 0.950 . S
H337 C342 0.949 . S
H338 C344 0.950 . S
H339 C345 0.950 . S
H340 C346 0.949 . S
C341 H336 0.950 . S
C341 C343 1.327 . S
C341 C347 1.429 1_655 S
C342 C334 1.574 . S
C342 H337 0.949 . S
C342 C348 1.368 . S
C343 C327 1.349 . S
C343 H335 0.950 . S
C343 C341 1.327 . S
C344 C332 1.349 . S
C344 H338 0.950 . S
C344 C345 1.327 . S
C345 H339 0.950 . S
C345 C344 1.327 . S
C345 C349 1.429 . S
C346 C329 1.574 . S
C346 H340 0.949 . S
C346 C350 1.368 . S
C347 C328 1.429 1_455 S
C347 C341 1.429 1_455 S
C347 C348 1.523 . S
C348 C329 1.368 . S
C348 C342 1.368 . S
C348 C347 1.523 . S
C349 C333 1.429 . S
C349 C345 1.429 . S
C349 C350 1.523 . S
C350 C334 1.368 . S
C350 C346 1.368 . S
C350 C349 1.523 . S
H351 C326 0.950 . S
H352 C328 0.950 1_455 S
H353 C329 0.949 . S
H354 C331 0.950 . S
H355 C333 0.950 . S
C356 C357 1.349 . S
C356 C358 1.327 . S
C356 H381 0.950 . S
C357 C356 1.349 . S
C357 C373 1.349 . S
C358 C356 1.327 . S
C358 C377 1.429 . S
C358 H382 0.950 . S
C359 C376 1.574 . S
C359 C378 1.368 . S
C359 H383 0.949 . S
H360 C364 0.949 . S
C361 C362 1.349 . S
C361 C363 1.327 . S
C361 H384 0.950 . S
C362 C361 1.349 . S
C362 C374 1.349 . S
C363 C361 1.327 . S
C363 C379 1.429 . S
C363 H385 0.950 . S
C364 H360 0.949 . S
C364 C372 1.574 . S
C364 C380 1.368 . S
H365 C373 0.950 . S
H366 C371 0.950 . S
H367 C372 0.949 . S
H368 C374 0.950 . S
H369 C375 0.950 . S
H370 C376 0.949 . S
C371 H366 0.950 . S
C371 C373 1.327 . S
C371 C377 1.429 . S
C372 C364 1.574 . S
C372 H367 0.949 . S
C372 C378 1.368 . S
C373 C357 1.349 . S
C373 H365 0.950 . S
C373 C371 1.327 . S
C374 C362 1.349 . S
C374 H368 0.950 . S
C374 C375 1.327 . S
C375 H369 0.950 . S
C375 C374 1.327 . S
C375 C379 1.429 . S
C376 C359 1.574 . S
C376 H370 0.949 . S
C376 C380 1.368 . S
C377 C358 1.429 . S
C377 C371 1.429 . S
C377 C378 1.523 . S
C378 C359 1.368 . S
C378 C372 1.368 . S
C378 C377 1.523 . S
C379 C363 1.429 . S
C379 C375 1.429 . S
C379 C380 1.523 . S
C380 C364 1.368 . S
C380 C376 1.368 . S
C380 C379 1.523 . S
H381 C356 0.950 . S
H382 C358 0.950 . S
H383 C359 0.949 . S
H384 C361 0.950 . S
H385 C363 0.950 . S
C386 C387 1.349 . S
C386 C388 1.327 . S
C386 H411 0.950 . S
C387 C386 1.349 . S
C387 C403 1.349 . S
C388 C386 1.327 . S
C388 C407 1.429 . S
C388 H412 0.950 . S
C389 C406 1.574 1_455 S
C389 C408 1.368 . S
C389 H413 0.949 . S
H390 C394 0.949 . S
C391 C392 1.349 . S
C391 C393 1.327 . S
C391 H414 0.950 . S
C392 C391 1.349 . S
C392 C404 1.349 . S
C393 C391 1.327 . S
C393 C409 1.429 . S
C393 H415 0.950 . S
C394 H390 0.949 . S
C394 C402 1.574 . S
C394 C410 1.368 1_455 S
H395 C403 0.950 . S
H396 C401 0.950 . S
H397 C402 0.949 . S
H398 C404 0.950 . S
H399 C405 0.950 . S
H400 C406 0.949 . S
C401 H396 0.950 . S
C401 C403 1.327 . S
C401 C407 1.429 . S
C402 C394 1.574 . S
C402 H397 0.949 . S
C402 C408 1.368 . S
C403 C387 1.349 . S
C403 H395 0.950 . S
C403 C401 1.327 . S
C404 C392 1.349 . S
C404 H398 0.950 . S
C404 C405 1.327 . S
C405 H399 0.950 . S
C405 C404 1.327 . S
C405 C409 1.429 . S
C406 C389 1.574 1_655 S
C406 H400 0.949 . S
C406 C410 1.368 . S
C407 C388 1.429 . S
C407 C401 1.429 . S
C407 C408 1.523 . S
C408 C389 1.368 . S
C408 C402 1.368 . S
C408 C407 1.523 . S
C409 C393 1.429 . S
C409 C405 1.429 . S
C409 C410 1.523 . S
C410 C394 1.368 1_655 S
C410 C406 1.368 . S
C410 C409 1.523 . S
H411 C386 0.950 . S
H412 C388 0.950 . S
H413 C389 0.949 . S
H414 C391 0.950 . S
H415 C393 0.950 . S
C416 C417 1.349 . S
C416 C418 1.327 . S
C416 H441 0.950 . S
C417 C416 1.349 . S
C417 C433 1.349 . S
C418 C416 1.327 . S
C418 C437 1.429 . S
C418 H442 0.950 . S
C419 C436 1.574 . S
C419 C438 1.368 1_565 S
C419 H443 0.949 . S
H420 C424 0.949 . S
C421 C422 1.349 . S
C421 C423 1.327 . S
C421 H444 0.950 . S
C422 C421 1.349 . S
C422 C434 1.349 . S
C423 C421 1.327 . S
C423 C439 1.429 . S
C423 H445 0.950 . S
C424 H420 0.949 . S
C424 C432 1.574 . S
C424 C440 1.368 1_545 S
H425 C433 0.950 . S
H426 C431 0.950 . S
H427 C432 0.949 . S
H428 C434 0.950 . S
H429 C435 0.950 . S
H430 C436 0.949 . S
C431 H426 0.950 . S
C431 C433 1.327 . S
C431 C437 1.429 . S
C432 C424 1.574 . S
C432 H427 0.949 . S
C432 C438 1.368 . S
C433 C417 1.349 . S
C433 H425 0.950 . S
C433 C431 1.327 . S
C434 C422 1.349 . S
C434 H428 0.950 . S
C434 C435 1.327 . S
C435 H429 0.950 . S
C435 C434 1.327 . S
C435 C439 1.429 . S
C436 C419 1.574 . S
C436 H430 0.949 . S
C436 C440 1.368 . S
C437 C418 1.429 . S
C437 C431 1.429 . S
C437 C438 1.523 . S
C438 C419 1.368 1_545 S
C438 C432 1.368 . S
C438 C437 1.523 . S
C439 C423 1.429 . S
C439 C435 1.429 . S
C439 C440 1.523 . S
C440 C424 1.368 1_565 S
C440 C436 1.368 . S
C440 C439 1.523 . S
H441 C416 0.950 . S
H442 C418 0.950 . S
H443 C419 0.949 . S
H444 C421 0.950 . S
H445 C423 0.950 . S
C446 C447 1.349 . S
C446 C448 1.327 . S
C446 H471 0.950 . S
C447 C446 1.349 . S
C447 C463 1.349 . S
C448 C446 1.327 . S
C448 C467 1.429 . S
C448 H472 0.950 . S
C449 C466 1.574 . S
C449 C468 1.368 . S
C449 H473 0.949 . S
H450 C454 0.949 . S
C451 C452 1.349 . S
C451 C453 1.327 . S
C451 H474 0.950 . S
C452 C451 1.349 . S
C452 C464 1.349 . S
C453 C451 1.327 . S
C453 C469 1.429 . S
C453 H475 0.950 . S
C454 H450 0.949 . S
C454 C462 1.574 . S
C454 C470 1.368 . S
H455 C463 0.950 . S
H456 C461 0.950 . S
H457 C462 0.949 . S
H458 C464 0.950 . S
H459 C465 0.950 . S
H460 C466 0.949 . S
C461 H456 0.950 . S
C461 C463 1.327 . S
C461 C467 1.429 . S
C462 C454 1.574 . S
C462 H457 0.949 . S
C462 C468 1.368 . S
C463 C447 1.349 . S
C463 H455 0.950 . S
C463 C461 1.327 . S
C464 C452 1.349 . S
C464 H458 0.950 . S
C464 C465 1.327 . S
C465 H459 0.950 . S
C465 C464 1.327 . S
C465 C469 1.429 . S
C466 C449 1.574 . S
C466 H460 0.949 . S
C466 C470 1.368 . S
C467 C448 1.429 . S
C467 C461 1.429 . S
C467 C468 1.523 . S
C468 C449 1.368 . S
C468 C462 1.368 . S
C468 C467 1.523 . S
C469 C453 1.429 . S
C469 C465 1.429 . S
C469 C470 1.523 . S
C470 C454 1.368 . S
C470 C466 1.368 . S
C470 C469 1.523 . S
H471 C446 0.950 . S
H472 C448 0.950 . S
H473 C449 0.949 . S
H474 C451 0.950 . S
H475 C453 0.950 . S
C476 C477 1.349 . S
C476 C478 1.327 . S
C476 H501 0.950 . S
C477 C476 1.349 . S
C477 C493 1.349 1_556 S
C478 C476 1.327 . S
C478 C497 1.429 . S
C478 H502 0.950 . S
C479 C496 1.574 . S
C479 C498 1.368 1_545 S
C479 H503 0.949 . S
H480 C484 0.949 . S
C481 C482 1.349 . S
C481 C483 1.327 . S
C481 H504 0.950 . S
C482 C481 1.349 . S
C482 C494 1.349 . S
C483 C481 1.327 . S
C483 C499 1.429 . S
C483 H505 0.950 . S
C484 H480 0.949 . S
C484 C492 1.574 1_545 S
C484 C500 1.368 . S
H485 C493 0.950 . S
H486 C491 0.942 1_554 S
H487 C492 0.949 . S
H488 C494 0.950 . S
H489 C495 0.950 . S
H490 C496 0.949 . S
C491 H486 0.942 1_556 S
C491 C493 1.327 1_556 S
C491 C497 1.429 . S
C492 C484 1.574 1_565 S
C492 H487 0.949 . S
C492 C498 1.368 . S
C493 C477 1.349 1_554 S
C493 H485 0.950 . S
C493 C491 1.327 1_554 S
C494 C482 1.349 . S
C494 H488 0.950 . S
C494 C495 1.327 . S
C495 H489 0.950 . S
C495 C494 1.327 . S
C495 C499 1.429 . S
C496 C479 1.574 . S
C496 H490 0.949 . S
C496 C500 1.368 . S
C497 C478 1.429 . S
C497 C491 1.429 . S
C497 C498 1.523 . S
C498 C479 1.368 1_565 S
C498 C492 1.368 . S
C498 C497 1.523 . S
C499 C483 1.429 . S
C499 C495 1.429 . S
C499 C500 1.523 . S
C500 C484 1.368 . S
C500 C496 1.368 . S
C500 C499 1.523 . S
H501 C476 0.950 . S
H502 C478 0.950 . S
H503 C479 0.949 . S
H504 C481 0.950 . S
H505 C483 0.950 . S
C506 C507 1.349 . S
C506 C508 1.327 . S
C506 H531 0.950 . S
C507 C506 1.349 . S
C507 C523 1.349 . S
C508 C506 1.327 . S
C508 C527 1.429 . S
C508 H532 0.950 . S
C509 C526 1.574 . S
C509 C528 1.368 . S
C509 H533 0.949 . S
H510 C514 0.949 . S
C511 C512 1.349 . S
C511 C513 1.327 . S
C511 H534 0.950 . S
C512 C511 1.349 . S
C512 C524 1.349 . S
C513 C511 1.327 . S
C513 C529 1.429 . S
C513 H535 0.950 . S
C514 H510 0.949 . S
C514 C522 1.574 . S
C514 C530 1.368 . S
H515 C523 0.950 . S
H516 C521 0.950 . S
H517 C522 0.949 . S
H518 C524 0.950 . S
H519 C525 0.950 . S
H520 C526 0.949 . S
C521 H516 0.950 . S
C521 C523 1.327 . S
C521 C527 1.429 . S
C522 C514 1.574 . S
C522 H517 0.949 . S
C522 C528 1.368 . S
C523 C507 1.349 . S
C523 H515 0.950 . S
C523 C521 1.327 . S
C524 C512 1.349 . S
C524 H518 0.950 . S
C524 C525 1.327 . S
C525 H519 0.950 . S
C525 C524 1.327 . S
C525 C529 1.429 . S
C526 C509 1.574 . S
C526 H520 0.949 . S
C526 C530 1.368 . S
C527 C508 1.429 . S
C527 C521 1.429 . S
C527 C528 1.523 . S
C528 C509 1.368 . S
C528 C522 1.368 . S
C528 C527 1.523 . S
C529 C513 1.429 . S
C529 C525 1.429 . S
C529 C530 1.523 . S
C530 C514 1.368 . S
C530 C526 1.368 . S
C530 C529 1.523 . S
H531 C506 0.950 . S
H532 C508 0.950 . S
H533 C509 0.949 . S
H534 C511 0.950 . S
H535 C513 0.950 . S
C536 C537 1.349 . S
C536 C538 1.327 . S
C536 H561 0.950 . S
C537 C536 1.349 . S
C537 C553 1.349 . S
C538 C536 1.327 . S
C538 C557 1.429 . S
C538 H562 0.950 . S
C539 C556 1.574 . S
C539 C558 1.368 . S
C539 H563 0.949 . S
H540 C544 0.949 . S
C541 C542 1.349 . S
C541 C543 1.327 . S
C541 H564 0.950 . S
C542 C541 1.349 . S
C542 C554 1.349 . S
C543 C541 1.327 . S
C543 C559 1.429 . S
C543 H565 0.950 . S
C544 H540 0.949 . S
C544 C552 1.574 . S
C544 C560 1.368 . S
H545 C553 0.950 . S
H546 C551 0.950 . S
H547 C552 0.949 . S
H548 C554 0.950 . S
H549 C555 0.950 . S
H550 C556 0.949 . S
C551 H546 0.950 . S
C551 C553 1.327 . S
C551 C557 1.429 . S
C552 C544 1.574 . S
C552 H547 0.949 . S
C552 C558 1.368 . S
C553 C537 1.349 . S
C553 H545 0.950 . S
C553 C551 1.327 . S
C554 C542 1.349 . S
C554 H548 0.950 . S
C554 C555 1.327 . S
C555 H549 0.950 . S
C555 C554 1.327 . S
C555 C559 1.429 . S
C556 C539 1.574 . S
C556 H550 0.949 . S
C556 C560 1.368 . S
C557 C538 1.429 . S
C557 C551 1.429 . S
C557 C558 1.523 . S
C558 C539 1.368 . S
C558 C552 1.368 . S
C558 C557 1.523 . S
C559 C543 1.429 . S
C559 C555 1.429 . S
C559 C560 1.523 . S
C560 C544 1.368 . S
C560 C556 1.368 . S
C560 C559 1.523 . S
H561 C536 0.950 . S
H562 C538 0.950 . S
H563 C539 0.949 . S
H564 C541 0.950 . S
H565 C543 0.950 . S
C566 C567 1.349 . S
C566 C568 1.336 . S
C566 H591 0.950 . S
C567 C566 1.349 . S
C567 C583 1.349 . S
C568 C566 1.336 . S
C568 C587 1.426 1_455 S
C568 H592 0.944 1_455 S
C569 C586 1.574 . S
C569 C588 1.368 . S
C569 H593 0.949 . S
H570 C574 0.949 . S
C571 C572 1.349 . S
C571 C573 1.327 . S
C571 H594 0.950 . S
C572 C571 1.349 . S
C572 C584 1.349 . S
C573 C571 1.327 . S
C573 C589 1.429 . S
C573 H595 0.950 . S
C574 H570 0.949 . S
C574 C582 1.574 . S
C574 C590 1.368 . S
H575 C583 0.950 . S
H576 C581 0.950 . S
H577 C582 0.949 . S
H578 C584 0.950 . S
H579 C585 0.950 . S
H580 C586 0.949 . S
C581 H576 0.950 . S
C581 C583 1.327 . S
C581 C587 1.429 1_455 S
C582 C574 1.574 . S
C582 H577 0.949 . S
C582 C588 1.368 . S
C583 C567 1.349 . S
C583 H575 0.950 . S
C583 C581 1.327 . S
C584 C572 1.349 . S
C584 H578 0.950 . S
C584 C585 1.327 . S
C585 H579 0.950 . S
C585 C584 1.327 . S
C585 C589 1.429 . S
C586 C569 1.574 . S
C586 H580 0.949 . S
C586 C590 1.368 . S
C587 C568 1.426 1_655 S
C587 C581 1.429 1_655 S
C587 C588 1.523 . S
C588 C569 1.368 . S
C588 C582 1.368 . S
C588 C587 1.523 . S
C589 C573 1.429 . S
C589 C585 1.429 . S
C589 C590 1.523 . S
C590 C574 1.368 . S
C590 C586 1.368 . S
C590 C589 1.523 . S
H591 C566 0.950 . S
H592 C568 0.944 1_655 S
H593 C569 0.949 . S
H594 C571 0.950 . S
H595 C573 0.950 . S
C596 C597 1.349 . S
C596 C598 1.327 . S
C596 H621 0.950 . S
C597 C596 1.349 . S
C597 C613 1.349 . S
C598 C596 1.327 . S
C598 C617 1.429 . S
C598 H622 0.950 . S
C599 C616 1.574 . S
C599 C618 1.368 . S
C599 H623 0.949 . S
H600 C604 0.949 . S
C601 C602 1.349 . S
C601 C603 1.327 . S
C601 H624 0.950 . S
C602 C601 1.349 . S
C602 C614 1.349 . S
C603 C601 1.327 . S
C603 C619 1.429 . S
C603 H625 0.950 . S
C604 H600 0.949 . S
C604 C612 1.574 . S
C604 C620 1.368 . S
H605 C613 0.950 . S
H606 C611 0.950 . S
H607 C612 0.949 . S
H608 C614 0.950 . S
H609 C615 0.950 . S
H610 C616 0.949 . S
C611 H606 0.950 . S
C611 C613 1.327 . S
C611 C617 1.429 . S
C612 C604 1.574 . S
C612 H607 0.949 . S
C612 C618 1.368 . S
C613 C597 1.349 . S
C613 H605 0.950 . S
C613 C611 1.327 . S
C614 C602 1.349 . S
C614 H608 0.950 . S
C614 C615 1.327 . S
C615 H609 0.950 . S
C615 C614 1.327 . S
C615 C619 1.429 . S
C616 C599 1.574 . S
C616 H610 0.949 . S
C616 C620 1.368 . S
C617 C598 1.429 . S
C617 C611 1.429 . S
C617 C618 1.523 . S
C618 C599 1.368 . S
C618 C612 1.368 . S
C618 C617 1.523 . S
C619 C603 1.429 . S
C619 C615 1.429 . S
C619 C620 1.523 . S
C620 C604 1.368 . S
C620 C616 1.368 . S
C620 C619 1.523 . S
H621 C596 0.950 . S
H622 C598 0.950 . S
H623 C599 0.949 . S
H624 C601 0.950 . S
H625 C603 0.950 . S
C626 C627 1.349 . S
C626 C628 1.327 . S
C626 H651 0.950 . S
C627 C626 1.349 . S
C627 C643 1.349 . S
C628 C626 1.327 . S
C628 C647 1.429 . S
C628 H652 0.950 . S
C629 C646 1.574 . S
C629 C648 1.368 . S
C629 H653 0.949 . S
H630 C634 0.949 . S
C631 C632 1.349 . S
C631 C633 1.327 . S
C631 H654 0.950 . S
C632 C631 1.349 . S
C632 C644 1.349 . S
C633 C631 1.327 . S
C633 C649 1.429 . S
C633 H655 0.950 . S
C634 H630 0.949 . S
C634 C642 1.574 1_455 S
C634 C650 1.369 1_455 S
H635 C643 0.950 . S
H636 C641 0.950 . S
H637 C642 0.949 . S
H638 C644 0.950 . S
H639 C645 0.950 . S
H640 C646 0.949 . S
C641 H636 0.950 . S
C641 C643 1.327 . S
C641 C647 1.429 . S
C642 C634 1.574 1_655 S
C642 H637 0.949 . S
C642 C648 1.368 . S
C643 C627 1.349 . S
C643 H635 0.950 . S
C643 C641 1.327 . S
C644 C632 1.349 . S
C644 H638 0.950 . S
C644 C645 1.327 . S
C645 H639 0.950 . S
C645 C644 1.327 . S
C645 C649 1.429 . S
C646 C629 1.574 . S
C646 H640 0.949 . S
C646 C650 1.367 . S
C647 C628 1.429 . S
C647 C641 1.429 . S
C647 C648 1.523 . S
C648 C629 1.368 . S
C648 C642 1.368 . S
C648 C647 1.523 . S
C649 C633 1.429 . S
C649 C645 1.429 . S
C649 C650 1.525 1_455 S
C650 C634 1.369 1_655 S
C650 C646 1.367 . S
C650 C649 1.525 1_655 S
H651 C626 0.950 . S
H652 C628 0.950 . S
H653 C629 0.949 . S
H654 C631 0.950 . S
H655 C633 0.950 . S
C656 C657 1.349 . S
C656 C658 1.327 . S
C656 H681 0.950 . S
C657 C656 1.349 . S
C657 C673 1.349 . S
C658 C656 1.327 . S
C658 C677 1.429 . S
C658 H682 0.950 . S
C659 C676 1.574 . S
C659 C678 1.368 . S
C659 H683 0.949 . S
H660 C664 0.949 . S
C661 C662 1.349 . S
C661 C663 1.327 . S
C661 H684 0.950 . S
C662 C661 1.349 . S
C662 C674 1.349 . S
C663 C661 1.327 . S
C663 C679 1.429 . S
C663 H685 0.950 . S
C664 H660 0.949 . S
C664 C672 1.574 . S
C664 C680 1.368 . S
H665 C673 0.950 . S
H666 C671 0.950 . S
H667 C672 0.949 . S
H668 C674 0.950 . S
H669 C675 0.950 . S
H670 C676 0.949 . S
C671 H666 0.950 . S
C671 C673 1.327 . S
C671 C677 1.429 . S
C672 C664 1.574 . S
C672 H667 0.949 . S
C672 C678 1.368 . S
C673 C657 1.349 . S
C673 H665 0.950 . S
C673 C671 1.327 . S
C674 C662 1.349 . S
C674 H668 0.950 . S
C674 C675 1.327 . S
C675 H669 0.950 . S
C675 C674 1.327 . S
C675 C679 1.429 . S
C676 C659 1.574 . S
C676 H670 0.949 . S
C676 C680 1.368 . S
C677 C658 1.429 . S
C677 C671 1.429 . S
C677 C678 1.523 . S
C678 C659 1.368 . S
C678 C672 1.368 . S
C678 C677 1.523 . S
C679 C663 1.429 . S
C679 C675 1.429 . S
C679 C680 1.523 . S
C680 C664 1.368 . S
C680 C676 1.368 . S
C680 C679 1.523 . S
H681 C656 0.950 . S
H682 C658 0.950 . S
H683 C659 0.949 . S
H684 C661 0.950 . S
H685 C663 0.950 . S
C686 C687 1.349 . S
C686 C688 1.327 . S
C686 H711 0.950 . S
C687 C686 1.349 . S
C687 C703 1.349 . S
C688 C686 1.327 . S
C688 C707 1.429 . S
C688 H712 0.950 . S
C689 C706 1.574 . S
C689 C708 1.368 . S
C689 H713 0.949 . S
H690 C694 0.949 . S
C691 C692 1.349 . S
C691 C693 1.327 . S
C691 H714 0.950 . S
C692 C691 1.349 . S
C692 C704 1.349 . S
C693 C691 1.327 . S
C693 C709 1.429 . S
C693 H715 0.950 . S
C694 H690 0.949 . S
C694 C702 1.574 . S
C694 C710 1.368 . S
H695 C703 0.950 . S
H696 C701 0.950 . S
H697 C702 0.949 . S
H698 C704 0.950 . S
H699 C705 0.950 . S
H700 C706 0.949 . S
C701 H696 0.950 . S
C701 C703 1.327 . S
C701 C707 1.429 . S
C702 C694 1.574 . S
C702 H697 0.949 . S
C702 C708 1.368 . S
C703 C687 1.349 . S
C703 H695 0.950 . S
C703 C701 1.327 . S
C704 C692 1.349 . S
C704 H698 0.950 . S
C704 C705 1.327 . S
C705 H699 0.950 . S
C705 C704 1.327 . S
C705 C709 1.429 . S
C706 C689 1.574 . S
C706 H700 0.949 . S
C706 C710 1.368 . S
C707 C688 1.429 . S
C707 C701 1.429 . S
C707 C708 1.523 . S
C708 C689 1.368 . S
C708 C702 1.368 . S
C708 C707 1.523 . S
C709 C693 1.429 . S
C709 C705 1.429 . S
C709 C710 1.523 . S
C710 C694 1.368 . S
C710 C706 1.368 . S
C710 C709 1.523 . S
H711 C686 0.950 . S
H712 C688 0.950 . S
H713 C689 0.949 . S
H714 C691 0.950 . S
H715 C693 0.950 . S
C716 C717 1.349 . S
C716 C718 1.327 . S
C716 H741 0.950 . S
C717 C716 1.349 . S
C717 C733 1.349 . S
C718 C716 1.327 . S
C718 C737 1.429 . S
C718 H742 0.950 . S
C719 C736 1.574 . S
C719 C738 1.368 . S
C719 H743 0.949 . S
H720 C724 0.949 . S
C721 C722 1.349 . S
C721 C723 1.327 . S
C721 H744 0.950 . S
C722 C721 1.349 . S
C722 C734 1.349 . S
C723 C721 1.327 . S
C723 C739 1.429 . S
C723 H745 0.950 . S
C724 H720 0.949 . S
C724 C732 1.574 . S
C724 C740 1.368 . S
H725 C733 0.950 . S
H726 C731 0.950 . S
H727 C732 0.949 . S
H728 C734 0.950 . S
H729 C735 0.950 . S
H730 C736 0.949 . S
C731 H726 0.950 . S
C731 C733 1.327 . S
C731 C737 1.429 . S
C732 C724 1.574 . S
C732 H727 0.949 . S
C732 C738 1.368 . S
C733 C717 1.349 . S
C733 H725 0.950 . S
C733 C731 1.327 . S
C734 C722 1.349 . S
C734 H728 0.950 . S
C734 C735 1.327 . S
C735 H729 0.950 . S
C735 C734 1.327 . S
C735 C739 1.429 . S
C736 C719 1.574 . S
C736 H730 0.949 . S
C736 C740 1.368 . S
C737 C718 1.429 . S
C737 C731 1.429 . S
C737 C738 1.523 . S
C738 C719 1.368 . S
C738 C732 1.368 . S
C738 C737 1.523 . S
C739 C723 1.429 . S
C739 C735 1.429 . S
C739 C740 1.523 . S
C740 C724 1.368 . S
C740 C736 1.368 . S
C740 C739 1.523 . S
H741 C716 0.950 . S
H742 C718 0.950 . S
H743 C719 0.949 . S
H744 C721 0.950 . S
H745 C723 0.950 . S
C746 C747 1.349 . S
C746 C748 1.327 . S
C746 H771 0.950 . S
C747 C746 1.349 . S
C747 C763 1.349 . S
C748 C746 1.327 . S
C748 C767 1.429 . S
C748 H772 0.950 . S
C749 C766 1.574 . S
C749 C768 1.368 . S
C749 H773 0.949 . S
H750 C754 0.949 . S
C751 C752 1.349 . S
C751 C753 1.327 . S
C751 H774 0.950 . S
C752 C751 1.349 . S
C752 C764 1.349 . S
C753 C751 1.327 . S
C753 C769 1.429 . S
C753 H775 0.950 . S
C754 H750 0.949 . S
C754 C762 1.574 . S
C754 C770 1.368 . S
H755 C763 0.950 . S
H756 C761 0.950 . S
H757 C762 0.949 . S
H758 C764 0.950 . S
H759 C765 0.950 . S
H760 C766 0.949 . S
C761 H756 0.950 . S
C761 C763 1.327 . S
C761 C767 1.429 . S
C762 C754 1.574 . S
C762 H757 0.949 . S
C762 C768 1.368 . S
C763 C747 1.349 . S
C763 H755 0.950 . S
C763 C761 1.327 . S
C764 C752 1.349 . S
C764 H758 0.950 . S
C764 C765 1.327 . S
C765 H759 0.950 . S
C765 C764 1.327 . S
C765 C769 1.429 . S
C766 C749 1.574 . S
C766 H760 0.949 . S
C766 C770 1.368 . S
C767 C748 1.429 . S
C767 C761 1.429 . S
C767 C768 1.523 . S
C768 C749 1.368 . S
C768 C762 1.368 . S
C768 C767 1.523 . S
C769 C753 1.429 . S
C769 C765 1.429 . S
C769 C770 1.523 . S
C770 C754 1.368 . S
C770 C766 1.368 . S
C770 C769 1.523 . S
H771 C746 0.950 . S
H772 C748 0.950 . S
H773 C749 0.949 . S
H774 C751 0.950 . S
H775 C753 0.950 . S
C776 C777 1.349 . S
C776 C778 1.327 . S
C776 H801 0.950 . S
C777 C776 1.349 . S
C777 C793 1.349 . S
C778 C776 1.327 . S
C778 C797 1.429 . S
C778 H802 0.950 . S
C779 C796 1.574 . S
C779 C798 1.368 . S
C779 H803 0.949 . S
H780 C784 0.949 . S
C781 C782 1.349 . S
C781 C783 1.327 . S
C781 H804 0.950 . S
C782 C781 1.349 . S
C782 C794 1.349 . S
C783 C781 1.327 . S
C783 C799 1.429 . S
C783 H805 0.950 . S
C784 H780 0.949 . S
C784 C792 1.574 . S
C784 C800 1.368 . S
H785 C793 0.950 . S
H786 C791 0.950 . S
H787 C792 0.949 . S
H788 C794 0.950 . S
H789 C795 0.950 . S
H790 C796 0.949 . S
C791 H786 0.950 . S
C791 C793 1.327 . S
C791 C797 1.429 . S
C792 C784 1.574 . S
C792 H787 0.949 . S
C792 C798 1.368 . S
C793 C777 1.349 . S
C793 H785 0.950 . S
C793 C791 1.327 . S
C794 C782 1.349 . S
C794 H788 0.950 . S
C794 C795 1.327 . S
C795 H789 0.950 . S
C795 C794 1.327 . S
C795 C799 1.429 . S
C796 C779 1.574 . S
C796 H790 0.949 . S
C796 C800 1.368 . S
C797 C778 1.429 . S
C797 C791 1.429 . S
C797 C798 1.523 . S
C798 C779 1.368 . S
C798 C792 1.368 . S
C798 C797 1.523 . S
C799 C783 1.429 . S
C799 C795 1.429 . S
C799 C800 1.523 . S
C800 C784 1.368 . S
C800 C796 1.368 . S
C800 C799 1.523 . S
H801 C776 0.950 . S
H802 C778 0.950 . S
H803 C779 0.949 . S
H804 C781 0.950 . S
H805 C783 0.950 . S
C806 C807 1.349 . S
C806 C808 1.327 . S
C806 H831 0.950 . S
C807 C806 1.349 . S
C807 C823 1.349 . S
C808 C806 1.327 . S
C808 C827 1.429 . S
C808 H832 0.950 . S
C809 C826 1.574 . S
C809 C828 1.368 . S
C809 H833 0.949 . S
H810 C814 0.949 . S
C811 C812 1.349 . S
C811 C813 1.327 . S
C811 H834 0.950 . S
C812 C811 1.349 . S
C812 C824 1.349 . S
C813 C811 1.327 . S
C813 C829 1.429 . S
C813 H835 0.950 . S
C814 H810 0.949 . S
C814 C822 1.574 . S
C814 C830 1.368 . S
H815 C823 0.950 . S
H816 C821 0.950 . S
H817 C822 0.949 . S
H818 C824 0.950 . S
H819 C825 0.950 . S
H820 C826 0.949 . S
C821 H816 0.950 . S
C821 C823 1.327 . S
C821 C827 1.429 . S
C822 C814 1.574 . S
C822 H817 0.949 . S
C822 C828 1.368 . S
C823 C807 1.349 . S
C823 H815 0.950 . S
C823 C821 1.327 . S
C824 C812 1.349 . S
C824 H818 0.950 . S
C824 C825 1.327 . S
C825 H819 0.950 . S
C825 C824 1.327 . S
C825 C829 1.429 . S
C826 C809 1.574 . S
C826 H820 0.949 . S
C826 C830 1.368 . S
C827 C808 1.429 . S
C827 C821 1.429 . S
C827 C828 1.523 . S
C828 C809 1.368 . S
C828 C822 1.368 . S
C828 C827 1.523 . S
C829 C813 1.429 . S
C829 C825 1.429 . S
C829 C830 1.523 . S
C830 C814 1.368 . S
C830 C826 1.368 . S
C830 C829 1.523 . S
H831 C806 0.950 . S
H832 C808 0.950 . S
H833 C809 0.949 . S
H834 C811 0.950 . S
H835 C813 0.950 . S
C836 C837 1.349 . S
C836 C838 1.327 . S
C836 H861 0.950 . S
C837 C836 1.349 . S
C837 C853 1.349 . S
C838 C836 1.327 . S
C838 C857 1.429 . S
C838 H862 0.950 . S
C839 C856 1.574 . S
C839 C858 1.368 . S
C839 H863 0.949 . S
H840 C844 0.949 . S
C841 C842 1.349 . S
C841 C843 1.327 . S
C841 H864 0.950 . S
C842 C841 1.349 . S
C842 C854 1.349 . S
C843 C841 1.327 . S
C843 C859 1.429 . S
C843 H865 0.950 . S
C844 H840 0.949 . S
C844 C852 1.574 . S
C844 C860 1.368 . S
H845 C853 0.950 . S
H846 C851 0.950 . S
H847 C852 0.949 . S
H848 C854 0.950 . S
H849 C855 0.950 . S
H850 C856 0.949 . S
C851 H846 0.950 . S
C851 C853 1.327 . S
C851 C857 1.429 . S
C852 C844 1.574 . S
C852 H847 0.949 . S
C852 C858 1.368 . S
C853 C837 1.349 . S
C853 H845 0.950 . S
C853 C851 1.327 . S
C854 C842 1.349 . S
C854 H848 0.950 . S
C854 C855 1.327 . S
C855 H849 0.950 . S
C855 C854 1.327 . S
C855 C859 1.429 . S
C856 C839 1.574 . S
C856 H850 0.949 . S
C856 C860 1.368 . S
C857 C838 1.429 . S
C857 C851 1.429 . S
C857 C858 1.523 . S
C858 C839 1.368 . S
C858 C852 1.368 . S
C858 C857 1.523 . S
C859 C843 1.429 . S
C859 C855 1.429 . S
C859 C860 1.523 . S
C860 C844 1.368 . S
C860 C856 1.368 . S
C860 C859 1.523 . S
H861 C836 0.950 . S
H862 C838 0.950 . S
H863 C839 0.949 . S
H864 C841 0.950 . S
H865 C843 0.950 . S
C866 C867 1.349 . S
C866 C868 1.327 . S
C866 H891 0.950 1_556 S
C867 C866 1.349 . S
C867 C883 1.349 . S
C868 C866 1.327 . S
C868 C887 1.429 . S
C868 H892 0.950 . S
C869 C886 1.574 . S
C869 C888 1.368 . S
C869 H893 0.949 . S
H870 C874 0.949 . S
C871 C872 1.349 . S
C871 C873 1.327 . S
C871 H894 0.950 . S
C872 C871 1.349 . S
C872 C884 1.349 . S
C873 C871 1.327 . S
C873 C889 1.429 . S
C873 H895 0.950 . S
C874 H870 0.949 . S
C874 C882 1.574 . S
C874 C890 1.368 . S
H875 C883 0.950 . S
H876 C881 0.950 . S
H877 C882 0.949 . S
H878 C884 0.950 . S
H879 C885 0.950 . S
H880 C886 0.949 . S
C881 H876 0.950 . S
C881 C883 1.327 . S
C881 C887 1.429 . S
C882 C874 1.574 . S
C882 H877 0.949 . S
C882 C888 1.368 . S
C883 C867 1.349 . S
C883 H875 0.950 . S
C883 C881 1.327 . S
C884 C872 1.349 . S
C884 H878 0.950 . S
C884 C885 1.327 . S
C885 H879 0.950 . S
C885 C884 1.327 . S
C885 C889 1.429 . S
C886 C869 1.574 . S
C886 H880 0.949 . S
C886 C890 1.368 . S
C887 C868 1.429 . S
C887 C881 1.429 . S
C887 C888 1.523 . S
C888 C869 1.368 . S
C888 C882 1.368 . S
C888 C887 1.523 . S
C889 C873 1.429 . S
C889 C885 1.429 . S
C889 C890 1.523 . S
C890 C874 1.368 . S
C890 C886 1.368 . S
C890 C889 1.523 . S
H891 C866 0.950 1_554 S
H892 C868 0.950 . S
H893 C869 0.949 . S
H894 C871 0.950 . S
H895 C873 0.950 . S
C177 C8 1.380 . S
C182 C93 1.336 . S
C207 C31 1.298 . S
C212 C104 1.239 . S
C237 C53 1.305 . S
C242 C114 1.271 . S
C272 C126 1.305 . S
C267 C74 1.316 . S
C302 C137 1.336 . S
C297 C26 1.380 . S
C327 C48 1.316 . S
C332 C148 1.305 . S
C357 C71 1.305 . S
C362 C158 1.271 . S
C387 C5 1.298 . S
C392 C170 1.239 . S
C417 C50 1.237 . S
C422 C169 1.223 . S
C452 C136 1.088 . S
C447 C70 1.111 . S
C482 C147 1.236 . S
C477 C4 1.261 1_556 S
C507 C28 1.328 . S
C512 C159 1.312 . S
C542 C103 1.223 . S
C537 C73 1.238 . S
C567 C7 1.328 . S
C572 C115 1.312 . S
C602 C125 1.236 . S
C597 C30 1.261 . S
C632 C92 1.088 . S
C627 C52 1.111 . S
C662 C164 1.391 . S
C657 C9 1.405 . S
C692 C175 1.387 . S
C687 C29 1.377 . S
C717 C51 1.323 . S
C722 C142 1.328 . S
C752 C153 1.333 . S
C747 C75 1.352 . S
C782 C120 1.391 . S
C777 C27 1.405 . S
C807 C49 1.352 . S
C812 C131 1.333 . S
C842 C98 1.328 . S
C837 C72 1.323 . S
C872 C109 1.387 . S
C867 C6 1.377 1_556 S
