# Generated by pormake.
# Topology zzz, (3,6)-cn, num edge types: 1
# Building blocks:
#     Node 0, Type 0, BuildingBlock: PAMTOO_clean_linker_0, # of connection points: 3
#     Node 1, Type 0, BuildingBlock: PAMTOO_clean_linker_0, # of connection points: 3
#     Node 2, Type 0, BuildingBlock: PAMTOO_clean_linker_0, # of connection points: 3
#     Node 3, Type 0, BuildingBlock: PAMTOO_clean_linker_0, # of connection points: 3
#     Node 4, Type 0, BuildingBlock: PAMTOO_clean_linker_0, # of connection points: 3
#     Node 5, Type 0, BuildingBlock: PAMTOO_clean_linker_0, # of connection points: 3
#     Node 6, Type 0, BuildingBlock: PAMTOO_clean_linker_0, # of connection points: 3
#     Node 7, Type 0, BuildingBlock: PAMTOO_clean_linker_0, # of connection points: 3
#     Node 8, Type 1, BuildingBlock: CUKXOW_clean_sbu_0, # of connection points: 6
#     Node 9, Type 1, BuildingBlock: CUKXOW_clean_sbu_0, # of connection points: 6
#     Node 10, Type 1, BuildingBlock: CUKXOW_clean_sbu_0, # of connection points: 6
#     Node 11, Type 1, BuildingBlock: CUKXOW_clean_sbu_0, # of connection points: 6
#     Edge 12, Type (0, 1), BuildingBlock: CIFDUS_clean_linker_0, # of connection points: 2
#     Edge 13, Type (0, 1), BuildingBlock: CIFDUS_clean_linker_0, # of connection points: 2
#     Edge 14, Type (0, 1), BuildingBlock: CIFDUS_clean_linker_0, # of connection points: 2
#     Edge 15, Type (0, 1), BuildingBlock: CIFDUS_clean_linker_0, # of connection points: 2
#     Edge 16, Type (0, 1), BuildingBlock: CIFDUS_clean_linker_0, # of connection points: 2
#     Edge 17, Type (0, 1), BuildingBlock: CIFDUS_clean_linker_0, # of connection points: 2
#     Edge 18, Type (0, 1), BuildingBlock: CIFDUS_clean_linker_0, # of connection points: 2
#     Edge 19, Type (0, 1), BuildingBlock: CIFDUS_clean_linker_0, # of connection points: 2
#     Edge 20, Type (0, 1), BuildingBlock: CIFDUS_clean_linker_0, # of connection points: 2
#     Edge 21, Type (0, 1), BuildingBlock: CIFDUS_clean_linker_0, # of connection points: 2
#     Edge 22, Type (0, 1), BuildingBlock: CIFDUS_clean_linker_0, # of connection points: 2
#     Edge 23, Type (0, 1), BuildingBlock: CIFDUS_clean_linker_0, # of connection points: 2
#     Edge 24, Type (0, 1), BuildingBlock: CIFDUS_clean_linker_0, # of connection points: 2
#     Edge 25, Type (0, 1), BuildingBlock: CIFDUS_clean_linker_0, # of connection points: 2
#     Edge 26, Type (0, 1), BuildingBlock: CIFDUS_clean_linker_0, # of connection points: 2
#     Edge 27, Type (0, 1), BuildingBlock: CIFDUS_clean_linker_0, # of connection points: 2
#     Edge 28, Type (0, 1), BuildingBlock: CIFDUS_clean_linker_0, # of connection points: 2
#     Edge 29, Type (0, 1), BuildingBlock: CIFDUS_clean_linker_0, # of connection points: 2
#     Edge 30, Type (0, 1), BuildingBlock: CIFDUS_clean_linker_0, # of connection points: 2
#     Edge 31, Type (0, 1), BuildingBlock: CIFDUS_clean_linker_0, # of connection points: 2
#     Edge 32, Type (0, 1), BuildingBlock: CIFDUS_clean_linker_0, # of connection points: 2
#     Edge 33, Type (0, 1), BuildingBlock: CIFDUS_clean_linker_0, # of connection points: 2
#     Edge 34, Type (0, 1), BuildingBlock: CIFDUS_clean_linker_0, # of connection points: 2
#     Edge 35, Type (0, 1), BuildingBlock: CIFDUS_clean_linker_0, # of connection points: 2
# Relax obj value: 0.062
# Max RMSD: 0.119
# Mean RMSD: 0.079
data_MOF--net-zzz--node1-CUKXOW_clean_sbu_0--node2-PAMTOO_clean_linker_0--edge1-CIFDUS_clean_linker_0
_symmetry_space_group_name_H-M    P1
_symmetry_Int_Tables_number       1
_symmetry_cell_setting            triclinic
loop_
_symmetry_equiv_pos_as_xyz
'x, y, z'
_cell_length_a     44.08561
_cell_length_b     45.955437
_cell_length_c     13.985363
_cell_angle_alpha  93.413061
_cell_angle_beta   86.198343
_cell_angle_gamma 93.74734
loop_
_atom_site_label
_atom_site_type_symbol
_atom_site_fract_x
_atom_site_fract_y
_atom_site_fract_z
_atom_type_partial_charge
H0 H 0.8461 0.49375 0.11244 0.0
H1 H 0.7693 0.49425 0.93909 0.0
H2 H 0.75775 0.50926 0.24666 0.0
H3 H 0.70653 0.47191 0.16131 0.0
C4 C 0.70956 0.47904 0.08642 0.0
O5 O 0.72963 0.50339 0.08469 0.0
H6 H 0.71894 0.46086 0.03969 0.0
C7 C 0.82183 0.49547 0.1068 0.0
C8 C 0.80364 0.50209 0.18977 0.0
C9 C 0.80991 0.49256 0.01639 0.0
C10 C 0.77881 0.49596 0.00882 0.0
C11 C 0.75982 0.50124 0.0922 0.0
C12 C 0.77227 0.50441 0.18291 0.0
H13 H 0.99596 0.86156 0.17051 0.0
H14 H 0.01392 0.80308 0.92374 0.0
H15 H 0.99076 0.76922 0.20191 0.0
H16 H 0.97238 0.74921 0.92867 0.0
C17 C 0.98238 0.7381 0.9867 0.0
O18 O 0.00652 0.75556 0.02044 0.0
H19 H 0.96455 0.73479 0.0458 0.0
C20 C 0.99718 0.83967 0.13749 0.0
C21 C 0.99145 0.8161 0.19597 0.0
C22 C 1.00475 0.83563 0.03889 0.0
C23 C 0.00792 0.80697 -0.00043 0.0
C24 C 1.00302 0.78302 0.0584 0.0
C25 C 0.99474 0.78764 0.15684 0.0
H26 H 0.65527 0.98137 0.16126 0.0
H27 H 0.73229 0.9768 0.95778 0.0
H28 H 0.74481 0.97572 0.26087 0.0
H29 H 0.79388 0.0092 0.15593 0.0
C30 C 0.79072 0.9999 0.08171 0.0
O31 O 0.77249 0.97433 0.08704 0.0
H32 H 0.77951 0.01614 0.04219 0.0
C33 C 0.6795 0.97897 0.14618 0.0
C34 C 0.69841 0.97839 0.22221 0.0
C35 C 0.69142 0.97858 0.05137 0.0
C36 C 0.72274 0.97632 0.03112 0.0
C37 C 0.74203 0.97482 0.10666 0.0
C38 C 0.72982 0.97577 0.20257 0.0
H39 H 0.54446 0.66259 0.19628 0.0
H40 H 0.53826 0.72531 0.9828 0.0
H41 H 0.56564 0.75342 0.26582 0.0
H42 H 0.59113 0.76844 0.00335 0.0
C43 C 0.57898 0.78418 0.0535 0.0
O44 O 0.55307 0.77071 0.09635 0.0
H45 H 0.59477 0.79195 0.1097 0.0
C46 C 0.5471 0.68488 0.17387 0.0
C47 C 0.55642 0.70691 0.2404 0.0
C48 C 0.54122 0.69085 0.08004 0.0
C49 C 0.54306 0.72005 0.05453 0.0
C50 C 0.55177 0.74265 0.12151 0.0
C51 C 0.55867 0.73606 0.21459 0.0
H52 H 0.17628 0.53985 0.30406 0.0
H53 H 0.25491 0.53971 0.46875 0.0
H54 H 0.26505 0.53543 0.15908 0.0
H55 H 0.31479 0.50368 0.23964 0.0
C56 C 0.30849 0.51043 0.31558 0.0
O57 O 0.29397 0.53625 0.31856 0.0
H58 H 0.29291 0.4928 0.34641 0.0
C59 C 0.20086 0.5399 0.3065 0.0
C60 C 0.21898 0.53847 0.22071 0.0
C61 C 0.21341 0.54108 0.39574 0.0
C62 C 0.24487 0.53921 0.39998 0.0
C63 C 0.2635 0.53708 0.31437 0.0
C64 C 0.25056 0.53674 0.22465 0.0
H65 H 0.03205 0.17134 0.26806 0.0
H66 H 0.01172 0.23 0.51261 0.0
H67 H 0.03526 0.26348 0.23412 0.0
H68 H 0.06129 0.29731 0.39085 0.0
C69 C 0.04267 0.29519 0.44818 0.0
O70 O 0.01878 0.27737 0.41454 0.0
H71 H 0.05172 0.28505 0.50989 0.0
C72 C 0.03023 0.19325 0.30051 0.0
C73 C 0.03567 0.21674 0.24156 0.0
C74 C 0.02207 0.19736 0.39873 0.0
C75 C 0.01813 0.22604 0.43708 0.0
C76 C 0.02278 0.24988 0.37763 0.0
C77 C 0.03152 0.24516 0.27964 0.0
H78 H 0.36429 0.01495 0.25865 0.0
H79 H 0.28971 0.02095 0.4721 0.0
H80 H 0.27527 0.03033 0.17375 0.0
H81 H 0.23245 0.06459 0.29746 0.0
C82 C 0.23648 0.0553 0.36674 0.0
O83 O 0.24897 0.02856 0.34873 0.0
H84 H 0.25264 0.07068 0.40561 0.0
C85 C 0.34053 0.01849 0.27827 0.0
C86 C 0.32135 0.02302 0.20571 0.0
C87 C 0.32979 0.01814 0.37469 0.0
C88 C 0.29868 0.02154 0.39818 0.0
C89 C 0.27901 0.02597 0.32575 0.0
C90 C 0.29043 0.02695 0.2294 0.0
H91 H 0.46344 0.35383 0.21371 0.0
H92 H 0.47257 0.29952 0.44842 0.0
H93 H 0.47064 0.26151 0.15916 0.0
H94 H 0.43421 0.22759 0.3054 0.0
C95 C 0.44834 0.23275 0.36803 0.0
O96 O 0.47356 0.2505 0.34121 0.0
H97 H 0.43406 0.24435 0.42488 0.0
C98 C 0.46463 0.33228 0.24065 0.0
C99 C 0.46587 0.30807 0.17536 0.0
C100 C 0.46707 0.32967 0.33876 0.0
C101 C 0.4704 0.30196 0.37265 0.0
C102 C 0.47092 0.27724 0.30812 0.0
C103 C 0.46928 0.2804 0.20905 0.0
Tb104 Tb 1.00567 0.98732 0.66228 0.0
C105 C 0.06965 0.0204 0.61683 0.0
Tb106 Tb 0.02216 0.04576 0.77762 0.0
O107 O 1.0049 0.01091 0.53057 0.0
O108 O 0.99487 0.03138 0.66416 0.0
O109 O 0.05312 0.99515 0.61087 0.0
C110 C 0.03073 0.10228 0.83109 0.0
O111 O 0.06064 0.04358 0.67038 0.0
C112 C 0.02864 0.99743 0.86343 0.0
C113 C 0.95865 0.01265 0.82577 0.0
O114 O 0.04807 0.08188 0.851 0.0
O115 O 0.00875 0.09072 0.78155 0.0
O116 O 0.02323 0.02222 0.90939 0.0
O117 O 0.03291 1.00176 0.77567 0.0
O118 O 0.9752 0.03786 0.83057 0.0
O119 O 0.96708 0.98948 0.77074 0.0
C120 C 0.99715 0.93085 0.60705 0.0
O121 O 0.97975 0.95131 0.58799 0.0
O122 O 0.01909 0.94232 0.65692 0.0
C123 C 0.99932 0.03566 0.57639 0.0
Tb124 Tb 0.50968 0.04399 0.70142 0.0
C125 C 0.56589 0.01133 0.60573 0.0
Tb126 Tb 0.51867 0.97962 0.75502 0.0
O127 O 0.54986 0.06171 0.77366 0.0
O128 O 0.52744 0.02264 0.81354 0.0
O129 O 0.54714 0.03265 0.59926 0.0
C130 C 0.53555 0.93345 0.84185 0.0
O131 O 0.56024 0.98975 0.66517 0.0
C132 C 0.47876 0.98576 0.62761 0.0
C133 C 0.46008 0.01038 0.83784 0.0
O134 O 0.53273 0.93439 0.74995 0.0
O135 O 0.52892 0.95837 0.88388 0.0
O136 O 0.47781 0.96337 0.6807 0.0
O137 O 0.50291 1.00106 0.64109 0.0
O138 O 0.47951 0.99019 0.84971 0.0
O139 O 0.46612 0.03194 0.77879 0.0
C140 C 0.49177 0.09342 0.63745 0.0
O141 O 0.49382 0.08817 0.72698 0.0
O142 O 0.49968 0.07075 0.58396 0.0
C143 C 0.55139 0.03893 0.82316 0.0
Tb144 Tb 0.52 0.53462 0.65813 0.0
C145 C 0.45505 0.5051 0.62446 0.0
Tb146 Tb 0.49721 0.48095 0.77564 0.0
O147 O 0.52003 0.50606 0.52548 0.0
O148 O 0.52738 0.48988 0.65705 0.0
O149 O 0.47308 0.52928 0.61704 0.0
C150 C 0.47692 0.42803 0.82885 0.0
O151 O 0.46188 0.48282 0.67378 0.0
C152 C 0.49469 0.53225 0.86725 0.0
C153 C 0.56334 0.50851 0.80382 0.0
O154 O 0.46309 0.45197 0.84838 0.0
O155 O 0.50259 0.43395 0.78076 0.0
O156 O 0.49681 0.50804 0.90945 0.0
O157 O 0.49075 0.52603 0.77994 0.0
O158 O 0.54424 0.48508 0.81369 0.0
O159 O 0.55753 0.53105 0.7531 0.0
C160 C 0.53413 0.58942 0.60797 0.0
O161 O 0.54909 0.56678 0.57774 0.0
O162 O 0.5115 0.58102 0.66589 0.0
C163 C 0.52396 0.48273 0.57062 0.0
Tb164 Tb 0.9903 0.51986 0.62317 0.0
C165 C 0.01953 0.4594 0.65706 0.0
Tb166 Tb 0.0325 0.51654 0.78885 0.0
O167 O 0.02541 0.54765 0.54688 0.0
O168 O 0.03728 0.51711 0.63894 0.0
O169 O 0.99955 0.47309 0.61078 0.0
C170 C 0.08013 0.52571 0.89711 0.0
O171 O 0.03652 0.47274 0.72379 0.0
C172 C 0.97592 0.49799 0.82317 0.0
C173 C 1.0027 0.57596 0.75515 0.0
O174 O 0.0524 0.53205 0.92311 0.0
O175 O 0.08092 0.51347 0.81119 0.0
O176 O 0.99832 0.48877 0.86709 0.0
O177 O 0.9855 0.51904 0.77376 0.0
O178 O 0.02663 0.56369 0.78492 0.0
O179 O 0.98227 0.56088 0.70344 0.0
C180 C 0.94322 0.51835 0.51161 0.0
O181 O 0.96965 0.53178 0.49466 0.0
O182 O 0.94354 0.50464 0.59006 0.0
C183 C 0.04754 0.53783 0.58986 0.0
H184 H 0.19051 0.01253 0.34769 0.0
H185 H 0.21464 0.09187 0.51287 0.0
H186 H 0.16524 0.08853 0.60334 0.0
H187 H 0.11524 0.06303 0.63577 0.0
H188 H 0.09144 0.98296 0.47291 0.0
H189 H 0.14061 0.98653 0.38197 0.0
C190 C 0.18505 0.02885 0.40434 0.0
C191 C 0.20647 0.05205 0.42515 0.0
C192 C 0.15662 0.02671 0.45637 0.0
C193 C 0.19877 0.0735 0.49689 0.0
C194 C 0.17049 0.07166 0.54837 0.0
C195 C 0.12074 0.04635 0.58033 0.0
C196 C 0.09957 0.02275 0.5615 0.0
C197 C 0.14924 0.04835 0.52879 0.0
C198 C 0.10727 1.00131 0.4895 0.0
C199 C 0.13542 1.00334 0.43721 0.0
H200 H 0.45166 0.21849 0.5538 0.0
H201 H 0.46745 0.18477 0.26197 0.0
H202 H 0.48211 0.13854 0.31883 0.0
H203 H 0.48968 0.10748 0.45216 0.0
H204 H 0.47402 0.14146 0.74413 0.0
H205 H 0.45982 0.18768 0.68706 0.0
C206 C 0.4583 0.20095 0.50292 0.0
C207 C 0.45812 0.20474 0.40395 0.0
C208 C 0.46656 0.17448 0.53624 0.0
C209 C 0.46716 0.1821 0.33848 0.0
C210 C 0.47549 0.15573 0.37097 0.0
C211 C 0.48312 0.12503 0.50313 0.0
C212 C 0.48283 0.12111 0.60215 0.0
C213 C 0.4751 0.1516 0.46972 0.0
C214 C 0.47437 0.14399 0.66753 0.0
C215 C 0.46629 0.17042 0.63495 0.0
H216 H 0.32917 0.47371 0.43937 0.0
H217 H 0.3525 0.55549 0.309 0.0
H218 H 0.39962 0.56143 0.39361 0.0
H219 H 0.43422 0.54314 0.50425 0.0
H220 H 0.41115 0.46037 0.63035 0.0
H221 H 0.36402 0.45511 0.54792 0.0
C222 C 0.34448 0.49294 0.43022 0.0
C223 C 0.33706 0.51449 0.36998 0.0
C224 C 0.37162 0.496 0.47816 0.0
C225 C 0.35745 0.53894 0.35671 0.0
C226 C 0.38441 0.54226 0.40475 0.0
C227 C 0.41887 0.52399 0.51406 0.0
C228 C 0.42629 0.50231 0.57413 0.0
C229 C 0.39173 0.52094 0.4658 0.0
C230 C 0.40612 0.47752 0.58505 0.0
C231 C 0.37907 0.47444 0.53782 0.0
H232 H 0.05546 0.32821 0.61011 0.0
H233 H 0.00898 0.33034 0.34952 0.0
H234 H 0.99642 0.38092 0.39199 0.0
H235 H 1.00053 0.42528 0.50126 0.0
H236 H 0.04879 0.4225 0.75922 0.0
H237 H 0.05858 0.37164 0.71994 0.0
C238 C 0.04221 0.33964 0.56332 0.0
C239 C 0.0326 0.3254 0.47787 0.0
C240 C 0.03555 0.36874 0.58748 0.0
C241 C 0.01608 0.34069 0.41669 0.0
C242 C 0.00906 0.36964 0.44074 0.0
C243 C 0.01301 0.4135 0.54914 0.0
C244 C 0.02401 0.42794 0.63285 0.0
C245 C 0.0189 0.38401 0.52572 0.0
C246 C 0.04023 0.41222 0.69382 0.0
C247 C 0.04584 0.38299 0.67162 0.0
H248 H 0.84485 0.02805 0.11747 0.0
H249 H 0.80431 0.96226 0.92493 0.0
H250 H 0.8532 0.95874 0.83171 0.0
H251 H 0.90715 0.97667 0.80014 0.0
H252 H 0.94574 0.04456 0.99059 0.0
H253 H 0.89826 0.04477 0.08938 0.0
C254 C 0.8469 0.01255 0.05613 0.0
C255 C 0.82127 0.99488 0.02978 0.0
C256 C 0.87477 0.0112 0.00188 0.0
C257 C 0.82394 0.97555 0.9482 0.0
C258 C 0.85185 0.97369 0.89454 0.0
C259 C 0.90518 0.99128 0.86373 0.0
C260 C 0.92993 0.01075 0.88726 0.0
C261 C 0.87739 0.99169 0.92002 0.0
C262 C 0.92697 0.02963 0.96982 0.0
C263 C 0.89981 0.02974 0.02676 0.0
H264 H 0.57393 0.84076 0.11968 0.0
H265 H 0.56413 0.78378 0.86636 0.0
H266 H 0.55053 0.82484 0.77685 0.0
H267 H 0.54141 0.87728 0.77111 0.0
H268 H 0.55038 0.93372 0.02657 0.0
H269 H 0.56458 0.89284 0.11438 0.0
C270 C 0.56892 0.83747 0.04477 0.0
C271 C 0.5705 0.80951 -0.00101 0.0
C272 C 0.56105 0.86113 -0.00587 0.0
C273 C 0.56344 0.80527 0.90245 0.0
C274 C 0.55567 0.82872 0.85142 0.0
C275 C 0.54658 0.88055 0.84587 0.0
C276 C 0.54482 0.90842 0.89236 0.0
C277 C 0.55448 0.85679 0.89641 0.0
C278 C 0.55145 0.91242 0.98933 0.0
C279 C 0.55958 0.88906 0.03966 0.0
H280 H 0.69725 0.51525 0.94483 0.0
H281 H 0.65408 0.45481 0.1437 0.0
H282 H 0.60502 0.45936 0.07634 0.0
H283 H 0.57493 0.47854 0.95659 0.0
H284 H 0.61704 0.53981 0.75859 0.0
H285 H 0.66588 0.53736 0.83101 0.0
C286 C 0.67697 0.50358 0.97458 0.0
C287 C 0.67915 0.48516 0.05063 0.0
C288 C 0.64873 0.50632 0.93537 0.0
C289 C 0.65283 0.46953 0.08658 0.0
C290 C 0.62483 0.47201 0.04778 0.0
C291 C 0.59477 0.49142 0.92922 0.0
C292 C 0.59244 0.50901 0.8514 0.0
C293 C 0.62259 0.49003 0.97146 0.0
C294 C 0.61823 0.52601 0.81821 0.0
C295 C 0.64618 0.52454 0.85943 0.0
H296 H 0.96092 0.7045 0.83674 0.0
H297 H 0.02464 0.70454 0.05742 0.0
H298 H 0.03775 0.65503 0.00265 0.0
H299 H 0.02964 0.61096 0.89502 0.0
H300 H 0.96398 0.61081 0.67911 0.0
H301 H 0.95328 0.661 0.72854 0.0
C302 C 0.97801 0.69379 0.87185 0.0
C303 C 0.99241 0.70847 0.94918 0.0
C304 C 0.98497 0.66519 0.84109 0.0
C305 C 0.01381 0.694 -0.00392 0.0
C306 C 0.02117 0.66563 0.96511 0.0
C307 C 0.01317 0.62199 0.8583 0.0
C308 C 0.99763 0.60701 0.78348 0.0
C309 C 0.00676 0.65091 0.88797 0.0
C310 C 0.97619 0.62164 0.73724 0.0
C311 C 0.97004 0.65042 0.76537 0.0
H312 H 0.05433 0.14871 0.38293 0.0
H313 H 0.97873 0.18653 0.5465 0.0
H314 H 0.96597 0.13992 0.62067 0.0
H315 H 0.97321 0.08682 0.6255 0.0
H316 H 0.0447 0.0488 0.44346 0.0
H317 H 0.06113 0.09676 0.38562 0.0
C318 C 0.03476 0.14684 0.43389 0.0
C319 C 0.01708 0.17106 0.45703 0.0
C320 C 0.02635 0.11965 0.4709 0.0
C321 C 0.99277 0.16838 0.52698 0.0
C322 C 0.9852 0.14158 0.56841 0.0
C323 C 0.99237 0.08921 0.57319 0.0
C324 C 0.00777 0.06448 0.5385 0.0
C325 C 1.00126 0.11684 0.53859 0.0
C326 C 0.03238 0.06755 0.4703 0.0
C327 C 0.04192 0.09497 0.43791 0.0
H328 H 0.38659 0.04318 0.38502 0.0
H329 H 0.32281 0.98202 0.52615 0.0
H330 H 0.36339 0.96715 0.62153 0.0
H331 H 0.41847 0.96818 0.65181 0.0
H332 H 0.48205 0.02465 0.49053 0.0
H333 H 0.44031 0.04422 0.41375 0.0
C334 C 0.38149 0.02658 0.43674 0.0
C335 C 0.35187 0.01335 0.44722 0.0
C336 C 0.40511 0.01695 0.48623 0.0
C337 C 0.34542 0.99258 0.51674 0.0
C338 C 0.36871 0.98378 0.57018 0.0
C339 C 0.42304 0.98464 0.5994 0.0
C340 C 0.45317 0.99545 0.57772 0.0
C341 C 0.39887 0.99512 0.55309 0.0
C342 C 0.45895 0.01674 0.51012 0.0
C343 C 0.43513 0.02777 0.46584 0.0
H344 H 0.51122 0.34793 0.45928 0.0
H345 H 0.42797 0.3732 0.3516 0.0
H346 H 0.43903 0.4237 0.40969 0.0
H347 H 0.47525 0.46155 0.47473 0.0
H348 H 0.55616 0.43619 0.59597 0.0
H349 H 0.54371 0.38491 0.5469 0.0
C350 C 0.49506 0.36432 0.45157 0.0
C351 C 0.46903 0.357 0.40042 0.0
C352 C 0.50174 0.39342 0.4842 0.0
C353 C 0.44828 0.37846 0.39034 0.0
C354 C 0.45476 0.40737 0.4224 0.0
C355 C 0.49012 0.44474 0.48991 0.0
C356 C 0.51698 0.45243 0.53596 0.0
C357 C 0.48201 0.41529 0.4659 0.0
C358 C 0.53571 0.43056 0.55826 0.0
C359 C 0.52844 0.40131 0.53118 0.0
H360 H 0.17741 0.58494 0.44415 0.0
H361 H 0.19954 0.50089 0.53022 0.0
H362 H 0.14909 0.49426 0.61356 0.0
H363 H 0.09553 0.50717 0.62524 0.0
H364 H 0.07212 0.58854 0.51973 0.0
H365 H 0.12592 0.60122 0.47752 0.0
C366 C 0.17156 0.56582 0.48518 0.0
C367 C 0.19186 0.54333 0.48088 0.0
C368 C 0.14179 0.56115 0.52505 0.0
C369 C 0.18428 0.51852 0.5333 0.0
C370 C 0.1552 0.51448 0.57889 0.0
C371 C 0.10236 0.52803 0.59558 0.0
C372 C 0.08006 0.54687 0.57481 0.0
C373 C 0.1332 0.53477 0.56947 0.0
C374 C 0.08898 0.57361 0.53498 0.0
C375 C 0.11969 0.5809 0.51146 0.0
H376 H 0.97323 0.88468 0.05739 0.0
H377 H 0.04757 0.84615 0.88946 0.0
H378 H 0.06059 0.89278 0.8157 0.0
H379 H 0.054 0.94604 0.81238 0.0
H380 H 0.98386 0.98465 -0.00137 0.0
H381 H 0.96711 0.93676 0.05628 0.0
C382 C 0.99259 0.8864 0.00554 0.0
C383 C 0.00984 0.86198 0.98103 0.0
C384 C 1.00117 0.91357 0.96876 0.0
C385 C 0.03386 0.86447 0.91003 0.0
C386 C 0.04159 0.89128 0.86883 0.0
C387 C 0.03504 0.94378 0.86549 0.0
C388 C 0.02009 0.96865 0.90134 0.0
C389 C 0.02598 0.91619 0.89994 0.0
C390 C 0.99581 0.96578 0.97076 0.0
C391 C 0.98609 0.93841 0.00307 0.0
H392 H 0.67693 0.03132 0.00709 0.0
H393 H 0.65723 0.93949 0.9439 0.0
H394 H 0.6111 0.95006 0.8665 0.0
H395 H 0.5746 0.98547 0.83107 0.0
H396 H 0.59314 0.07704 0.90076 0.0
H397 H 0.64177 0.06681 0.96224 0.0
C398 C 0.66306 0.01381 0.97291 0.0
C399 C 0.67059 0.98479 0.97849 0.0
C400 C 0.63607 0.02002 0.93293 0.0
C401 C 0.65214 0.96201 0.93747 0.0
C402 C 0.62557 0.96805 0.89503 0.0
C403 C 0.58879 1.00301 0.86162 0.0
C404 C 0.57972 0.03177 0.86455 0.0
C405 C 0.61681 0.99691 0.89548 0.0
C406 C 0.59941 0.05461 0.89957 0.0
C407 C 0.62727 0.04881 0.93399 0.0
H408 H 0.56705 0.63914 0.06064 0.0
H409 H 0.49727 0.68618 0.94679 0.0
H410 H 0.47802 0.64104 0.86209 0.0
H411 H 0.47716 0.58674 0.83889 0.0
H412 H 0.54202 0.54052 0.97987 0.0
H413 H 0.56621 0.58653 0.03947 0.0
C414 C 0.54747 0.6396 0.01775 0.0
C415 C 0.53311 0.66582 0.01221 0.0
C416 C 0.5352 0.61347 0.97626 0.0
C417 C 0.50867 0.66626 0.95273 0.0
C418 C 0.4974 0.64037 0.9055 0.0
C419 C 0.49667 0.58697 0.88235 0.0
C420 C 0.50802 0.56045 0.90455 0.0
C421 C 0.50978 0.61364 0.91986 0.0
C422 C 0.53296 0.56071 0.96192 0.0
C423 C 0.54689 0.58699 -0.0044 0.0
H424 H 0.8482 0.44955 0.98125 0.0
H425 H 0.82212 0.529 0.87007 0.0
H426 H 0.87214 0.53544 0.78412 0.0
H427 H 0.92642 0.52481 0.7756 0.0
H428 H 0.95348 0.44841 0.90478 0.0
H429 H 0.90027 0.43462 0.95067 0.0
C430 C 0.85313 0.46756 0.93465 0.0
C431 C 0.83187 0.48898 0.93269 0.0
C432 C 0.88259 0.47229 0.89243 0.0
C433 C 0.83819 0.51222 0.87232 0.0
C434 C 0.86702 0.51622 0.82498 0.0
C435 C 0.92053 0.5048 0.81183 0.0
C436 C 0.94371 0.48785 0.83844 0.0
C437 C 0.88996 0.49747 0.84013 0.0
C438 C 0.93595 0.462 0.88524 0.0
C439 C 0.90556 0.45406 0.911 0.0
H440 H 1.00026 0.21185 0.09086 0.0
H441 H 0.09156 0.20273 0.17111 0.0
H442 H 0.10038 0.16784 0.03501 0.0
H443 H 0.07741 0.1314 0.92041 0.0
H444 H 0.98573 0.14007 0.84111 0.0
H445 H 0.98173 0.18376 0.94829 0.0
C446 C 0.02259 0.20347 0.07493 0.0
C447 C 0.04523 0.20967 0.14038 0.0
C448 C 0.027 0.18251 -0.00124 0.0
C449 C 0.07398 0.19839 0.12065 0.0
C450 C 0.07879 0.17801 0.04396 0.0
C451 C 0.05692 0.14339 0.92472 0.0
C452 C 0.03161 0.1322 0.87548 0.0
C453 C 0.05476 0.16848 0.98672 0.0
C454 C 1.00535 0.14809 0.87983 0.0
C455 C 1.00301 0.17305 0.94124 0.0
H456 H 0.34413 0.97774 0.103 0.0
H457 H 0.33264 0.06974 0.09422 0.0
H458 H 0.37374 0.07372 0.96744 0.0
H459 H 0.4191 0.0524 0.88254 0.0
H460 H 0.43245 0.96095 0.90732 0.0
H461 H 0.3849 0.95537 0.00447 0.0
C462 C 0.34982 0.99837 0.07008 0.0
C463 C 0.33541 0.02335 0.1069 0.0
C464 C 0.37466 1.00075 0.00261 0.0
C465 C 0.34316 0.05015 0.06558 0.0
C466 C 0.36707 0.05249 -0.00541 0.0
C467 C 0.41136 0.03122 0.90833 0.0
C468 C 0.42974 0.00732 0.88972 0.0
C469 C 0.38405 0.02822 0.96636 0.0
C470 C 0.41924 0.97992 0.92272 0.0
C471 C 0.39187 0.9766 0.97773 0.0
H472 H 0.42144 0.32982 0.08465 0.0
H473 H 0.513 0.30237 0.04122 0.0
H474 H 0.52323 0.33524 0.90979 0.0
H475 H 0.5101 0.38059 0.83962 0.0
H476 H 0.42042 0.41187 0.90203 0.0
H477 H 0.40534 0.36909 -0.0067 0.0
C478 C 0.44308 0.33 0.04277 0.0
C479 C 0.46653 0.31404 0.07263 0.0
C480 C 0.44946 0.35066 0.97332 0.0
C481 C 0.49459 0.31439 0.01895 0.0
C482 C 0.50062 0.3337 0.94528 0.0
C483 C 0.48705 0.37756 0.87124 0.0
C484 C 0.46654 0.39952 0.86612 0.0
C485 C 0.47892 0.35341 0.92687 0.0
C486 C 0.43671 0.39543 0.90667 0.0
C487 C 0.42806 0.37095 0.95867 0.0
H488 H 0.17774 0.57542 0.17908 0.0
H489 H 0.2238 0.5002 0.06198 0.0
H490 H 0.18577 0.4913 0.94102 0.0
H491 H 0.13462 0.50046 0.8874 0.0
H492 H 0.08544 0.57078 0.02813 0.0
H493 H 0.1288 0.58559 0.12329 0.0
C494 C 0.17976 0.55736 0.12581 0.0
C495 C 0.20321 0.53824 0.13011 0.0
C496 C 0.15657 0.55098 0.06304 0.0
C497 C 0.20598 0.51525 0.05993 0.0
C498 C 0.18392 0.50989 0.99203 0.0
C499 C 0.13364 0.51908 0.93867 0.0
C500 C 0.10689 0.53437 0.95199 0.0
C501 C 0.15831 0.52678 -0.00394 0.0
C502 C 0.10567 0.55847 0.0181 0.0
C503 C 0.13051 0.56707 0.07187 0.0
H504 H 0.02748 0.8214 0.34529 0.0
H505 H 0.9357 0.82986 0.26842 0.0
H506 H 0.92722 0.86496 0.40418 0.0
H507 H 0.95038 0.90161 0.51796 0.0
H508 H 0.04243 0.89335 0.59448 0.0
H509 H 0.04637 0.84974 0.48692 0.0
C510 C 1.00513 0.82968 0.36191 0.0
C511 C 0.98223 0.82319 0.29748 0.0
C512 C 1.00088 0.85073 0.43796 0.0
C513 C 0.95348 0.83437 0.31812 0.0
C514 C 0.94885 0.85489 0.39458 0.0
C515 C 0.97095 0.88974 0.51291 0.0
C516 C 0.99635 0.90103 0.56164 0.0
C517 C 0.97306 0.86463 0.45085 0.0
C518 C 0.02273 0.88527 0.55626 0.0
C519 C 0.02503 0.86035 0.49463 0.0
H520 H 0.67369 0.02726 0.29232 0.0
H521 H 0.68914 0.93999 0.36507 0.0
H522 H 0.65051 0.94358 0.49957 0.0
H523 H 0.60691 0.96885 0.57838 0.0
H524 H 0.58935 0.05471 0.49275 0.0
H525 H 0.63396 0.05428 0.38076 0.0
C526 C 0.66928 0.00946 0.34001 0.0
C527 C 0.6842 0.9835 0.31985 0.0
C528 C 0.64597 0.01111 0.41275 0.0
C529 C 0.67819 0.96032 0.38054 0.0
C530 C 0.65575 0.96223 0.45617 0.0
C531 C 0.61298 0.98758 0.53588 0.0
C532 C 0.59434 0.01154 0.54284 0.0
C533 C 0.63854 0.98704 0.47004 0.0
C534 C 0.60283 0.03573 0.48784 0.0
C535 C 0.62849 0.03561 0.42401 0.0
H536 H 0.51885 0.7036 0.40027 0.0
H537 H 0.60897 0.68555 0.28464 0.0
H538 H 0.61178 0.64792 0.39956 0.0
H539 H 0.58382 0.61322 0.50723 0.0
H540 H 0.49364 0.6316 0.62367 0.0
H541 H 0.49556 0.67596 0.53515 0.0
C542 C 0.53972 0.69257 0.40423 0.0
C543 C 0.56373 0.69738 0.33476 0.0
C544 C 0.54066 0.6702 0.46829 0.0
C545 C 0.59044 0.6825 0.33871 0.0
C546 C 0.59176 0.66054 0.40307 0.0
C547 C 0.56493 0.62734 0.51476 0.0
C548 C 0.53835 0.61882 0.56974 0.0
C549 C 0.56627 0.65302 0.46407 0.0
C550 C 0.5142 0.6375 0.58052 0.0
C551 C 0.51526 0.6629 0.5299 0.0
H552 H 0.84684 0.5441 0.22248 0.0
H553 H 0.79738 0.47139 0.35334 0.0
H554 H 0.83584 0.47134 0.47305 0.0
H555 H 0.88777 0.48755 0.52363 0.0
H556 H 0.93873 0.55654 0.3754 0.0
H557 H 0.89595 0.56217 0.27818 0.0
C558 C 0.84404 0.52886 0.27929 0.0
C559 C 0.81941 0.50788 0.27976 0.0
C560 C 0.86715 0.52769 0.34255 0.0
C561 C 0.81599 0.488 0.35265 0.0
C562 C 0.83829 0.48765 0.41976 0.0
C563 C 0.88931 0.50384 0.47026 0.0
C564 C 0.91649 0.52133 0.45561 0.0
C565 C 0.86468 0.50656 0.4126 0.0
C566 C 0.91824 0.54254 0.38693 0.0
C567 C 0.89371 0.54593 0.33173 0.0
loop_
_geom_bond_atom_site_label_1
_geom_bond_atom_site_label_2
_geom_bond_distance
_geom_bond_site_symmetry_2
_ccdc_geom_bond_type
H0 C7 0.929 . S
H1 C10 0.930 . S
H2 C12 0.929 . S
H3 C4 0.969 . S
C4 H3 0.969 . S
C4 O5 1.550 1_556 S
C4 H6 0.973 . S
O5 C4 1.550 1_554 S
O5 C11 1.412 . S
H6 C4 0.973 . S
C7 H0 0.929 . S
C7 C8 1.400 . S
C7 C9 1.364 . S
C8 C7 1.400 . S
C8 C12 1.377 . S
C9 C7 1.364 . S
C9 C10 1.374 1_554 S
C10 H1 0.930 . S
C10 C9 1.374 1_556 S
C10 C11 1.383 1_556 S
C11 O5 1.412 . S
C11 C10 1.383 1_554 S
C11 C12 1.394 . S
C12 H2 0.929 . S
C12 C8 1.377 . S
C12 C11 1.394 . S
H13 C20 0.929 . S
H14 C23 0.930 . S
H15 C25 0.929 . S
H16 C17 0.969 . S
C17 H16 0.969 . S
C17 O18 1.550 1_556 S
C17 H19 0.973 . S
O18 C17 1.550 1_554 S
O18 C24 1.412 . S
H19 C17 0.973 . S
C20 H13 0.929 . S
C20 C21 1.400 . S
C20 C22 1.364 1_554 S
C21 C20 1.400 . S
C21 C25 1.377 . S
C22 C20 1.364 1_556 S
C22 C23 1.374 . S
C23 H14 0.930 . S
C23 C22 1.374 . S
C23 C24 1.383 1_556 S
C24 O18 1.412 . S
C24 C23 1.383 1_554 S
C24 C25 1.394 . S
C25 H15 0.929 . S
C25 C21 1.377 . S
C25 C24 1.394 . S
H26 C33 0.929 . S
H27 C36 0.930 1_556 S
H28 C38 0.929 . S
H29 C30 0.969 . S
C30 H29 0.969 . S
C30 O31 1.550 1_556 S
C30 H32 0.973 . S
O31 C30 1.550 1_554 S
O31 C37 1.412 . S
H32 C30 0.973 . S
C33 H26 0.929 . S
C33 C34 1.400 . S
C33 C35 1.364 . S
C34 C33 1.400 . S
C34 C38 1.377 . S
C35 C33 1.364 . S
C35 C36 1.374 . S
C36 H27 0.930 1_554 S
C36 C35 1.374 . S
C36 C37 1.383 . S
C37 O31 1.412 . S
C37 C36 1.383 . S
C37 C38 1.394 . S
C38 H28 0.929 . S
C38 C34 1.377 . S
C38 C37 1.394 . S
H39 C46 0.929 . S
H40 C49 0.930 1_556 S
H41 C51 0.929 . S
H42 C43 0.969 . S
C43 H42 0.969 . S
C43 O44 1.550 . S
C43 H45 0.973 1_554 S
O44 C43 1.550 . S
O44 C50 1.412 . S
H45 C43 0.973 1_556 S
C46 H39 0.929 . S
C46 C47 1.400 . S
C46 C48 1.364 . S
C47 C46 1.400 . S
C47 C51 1.377 . S
C48 C46 1.364 . S
C48 C49 1.374 . S
C49 H40 0.930 1_554 S
C49 C48 1.374 . S
C49 C50 1.383 . S
C50 O44 1.412 . S
C50 C49 1.383 . S
C50 C51 1.394 . S
C51 H41 0.929 . S
C51 C47 1.377 . S
C51 C50 1.394 . S
H52 C59 0.929 . S
H53 C62 0.930 . S
H54 C64 0.929 . S
H55 C56 0.969 . S
C56 H55 0.969 . S
C56 O57 1.550 . S
C56 H58 0.973 . S
O57 C56 1.550 . S
O57 C63 1.412 . S
H58 C56 0.973 . S
C59 H52 0.929 . S
C59 C60 1.400 . S
C59 C61 1.364 . S
C60 C59 1.400 . S
C60 C64 1.377 . S
C61 C59 1.364 . S
C61 C62 1.374 . S
C62 H53 0.930 . S
C62 C61 1.374 . S
C62 C63 1.383 . S
C63 O57 1.412 . S
C63 C62 1.383 . S
C63 C64 1.394 . S
C64 H54 0.929 . S
C64 C60 1.377 . S
C64 C63 1.394 . S
H65 C72 0.929 . S
H66 C75 0.930 . S
H67 C77 0.929 . S
H68 C69 0.969 . S
C69 H68 0.969 . S
C69 O70 1.550 . S
C69 H71 0.973 . S
O70 C69 1.550 . S
O70 C76 1.412 . S
H71 C69 0.973 . S
C72 H65 0.929 . S
C72 C73 1.400 . S
C72 C74 1.364 . S
C73 C72 1.400 . S
C73 C77 1.377 . S
C74 C72 1.364 . S
C74 C75 1.374 . S
C75 H66 0.930 . S
C75 C74 1.374 . S
C75 C76 1.383 . S
C76 O70 1.412 . S
C76 C75 1.383 . S
C76 C77 1.394 . S
C77 H67 0.929 . S
C77 C73 1.377 . S
C77 C76 1.394 . S
H78 C85 0.929 . S
H79 C88 0.930 . S
H80 C90 0.929 . S
H81 C82 0.969 . S
C82 H81 0.969 . S
C82 O83 1.550 . S
C82 H84 0.973 . S
O83 C82 1.550 . S
O83 C89 1.412 . S
H84 C82 0.973 . S
C85 H78 0.929 . S
C85 C86 1.400 . S
C85 C87 1.364 . S
C86 C85 1.400 . S
C86 C90 1.377 . S
C87 C85 1.364 . S
C87 C88 1.374 . S
C88 H79 0.930 . S
C88 C87 1.374 . S
C88 C89 1.383 . S
C89 O83 1.412 . S
C89 C88 1.383 . S
C89 C90 1.394 . S
C90 H80 0.929 . S
C90 C86 1.377 . S
C90 C89 1.394 . S
H91 C98 0.929 . S
H92 C101 0.930 . S
H93 C103 0.929 . S
H94 C95 0.969 . S
C95 H94 0.969 . S
C95 O96 1.550 . S
C95 H97 0.973 . S
O96 C95 1.550 . S
O96 C102 1.412 . S
H97 C95 0.973 . S
C98 H91 0.929 . S
C98 C99 1.400 . S
C98 C100 1.364 . S
C99 C98 1.400 . S
C99 C103 1.377 . S
C100 C98 1.364 . S
C100 C101 1.374 . S
C101 H92 0.930 . S
C101 C100 1.374 . S
C101 C102 1.383 . S
C102 O96 1.412 . S
C102 C101 1.383 . S
C102 C103 1.394 . S
C103 H93 0.929 . S
C103 C99 1.377 . S
C103 C102 1.394 . S
Tb104 O107 2.453 1_565 S
Tb104 O108 2.596 1_665 S
Tb104 O109 2.374 1_665 S
Tb104 O117 2.343 1_655 S
Tb104 O119 2.353 1_565 S
Tb104 O121 2.427 . S
Tb104 O122 2.513 1_655 S
C105 O109 1.251 . S
C105 O111 1.263 . S
Tb106 O108 2.343 . S
Tb106 O111 2.353 . S
Tb106 O114 2.427 . S
Tb106 O115 2.512 1_455 S
Tb106 O116 2.453 1_545 S
Tb106 O117 2.596 1_545 S
Tb106 O118 2.374 1_455 S
O107 Tb104 2.453 1_545 S
O107 C123 1.245 1_655 S
O108 Tb104 2.596 1_445 S
O108 Tb106 2.343 . S
O108 C123 1.259 . S
O109 Tb104 2.374 1_445 S
O109 C105 1.251 . S
C110 O114 1.275 . S
C110 O115 1.244 1_455 S
O111 C105 1.263 . S
O111 Tb106 2.353 . S
C112 O116 1.245 . S
C112 O117 1.259 . S
C113 O118 1.250 . S
C113 O119 1.263 . S
O114 Tb106 2.427 . S
O114 C110 1.275 . S
O115 Tb106 2.512 1_655 S
O115 C110 1.244 1_655 S
O116 Tb106 2.453 1_565 S
O116 C112 1.245 . S
O117 Tb104 2.343 1_455 S
O117 Tb106 2.596 1_565 S
O117 C112 1.259 . S
O118 Tb106 2.374 1_655 S
O118 C113 1.250 . S
O119 Tb104 2.353 1_545 S
O119 C113 1.263 . S
C120 O121 1.275 . S
C120 O122 1.246 1_655 S
O121 Tb104 2.427 . S
O121 C120 1.275 . S
O122 Tb104 2.513 1_455 S
O122 C120 1.246 1_455 S
C123 O107 1.245 1_455 S
C123 O108 1.259 . S
Tb124 O127 2.453 . S
Tb124 O128 2.596 1_545 S
Tb124 O129 2.374 . S
Tb124 O137 2.343 . S
Tb124 O139 2.353 . S
Tb124 O141 2.427 . S
Tb124 O142 2.513 . S
C125 O129 1.251 1_565 S
C125 O131 1.263 . S
Tb126 O128 2.343 . S
Tb126 O131 2.353 . S
Tb126 O134 2.427 . S
Tb126 O135 2.513 . S
Tb126 O136 2.453 . S
Tb126 O137 2.596 1_565 S
Tb126 O138 2.374 . S
O127 Tb124 2.453 . S
O127 C143 1.245 . S
O128 Tb124 2.596 1_565 S
O128 Tb126 2.343 . S
O128 C143 1.259 1_565 S
O129 Tb124 2.374 . S
O129 C125 1.251 1_545 S
C130 O134 1.275 . S
C130 O135 1.246 . S
O131 C125 1.263 . S
O131 Tb126 2.353 . S
C132 O136 1.245 1_545 S
C132 O137 1.259 . S
C133 O138 1.250 1_545 S
C133 O139 1.263 . S
O134 Tb126 2.427 . S
O134 C130 1.275 . S
O135 Tb126 2.513 . S
O135 C130 1.246 . S
O136 Tb126 2.453 . S
O136 C132 1.245 1_565 S
O137 Tb124 2.343 . S
O137 Tb126 2.596 1_545 S
O137 C132 1.259 . S
O138 Tb126 2.374 . S
O138 C133 1.250 1_565 S
O139 Tb124 2.353 . S
O139 C133 1.263 . S
C140 O141 1.275 . S
C140 O142 1.246 . S
O141 Tb124 2.427 . S
O141 C140 1.275 . S
O142 Tb124 2.513 . S
O142 C140 1.246 . S
C143 O127 1.245 . S
C143 O128 1.259 1_545 S
Tb144 O147 2.453 . S
Tb144 O148 2.596 . S
Tb144 O149 2.374 . S
Tb144 O157 2.343 . S
Tb144 O159 2.353 . S
Tb144 O161 2.427 . S
Tb144 O162 2.513 . S
C145 O149 1.251 . S
C145 O151 1.263 . S
Tb146 O148 2.343 . S
Tb146 O151 2.353 . S
Tb146 O154 2.427 . S
Tb146 O155 2.513 . S
Tb146 O156 2.453 . S
Tb146 O157 2.596 . S
Tb146 O158 2.374 . S
O147 Tb144 2.453 . S
O147 C163 1.245 . S
O148 Tb144 2.596 . S
O148 Tb146 2.343 . S
O148 C163 1.259 . S
O149 Tb144 2.374 . S
O149 C145 1.251 . S
C150 O154 1.275 . S
C150 O155 1.246 . S
O151 C145 1.263 . S
O151 Tb146 2.353 . S
C152 O156 1.245 . S
C152 O157 1.259 . S
C153 O158 1.250 . S
C153 O159 1.263 . S
O154 Tb146 2.427 . S
O154 C150 1.275 . S
O155 Tb146 2.513 . S
O155 C150 1.246 . S
O156 Tb146 2.453 . S
O156 C152 1.245 . S
O157 Tb144 2.343 . S
O157 Tb146 2.596 . S
O157 C152 1.259 . S
O158 Tb146 2.374 . S
O158 C153 1.250 . S
O159 Tb144 2.353 . S
O159 C153 1.263 . S
C160 O161 1.275 . S
C160 O162 1.246 . S
O161 Tb144 2.427 . S
O161 C160 1.275 . S
O162 Tb144 2.513 . S
O162 C160 1.246 . S
C163 O147 1.245 . S
C163 O148 1.259 . S
Tb164 O167 2.453 1_655 S
Tb164 O168 2.596 1_655 S
Tb164 O169 2.374 1_655 S
Tb164 O177 2.343 . S
Tb164 O179 2.353 1_655 S
Tb164 O181 2.427 . S
Tb164 O182 2.513 . S
C165 O169 1.251 . S
C165 O171 1.263 . S
Tb166 O168 2.343 . S
Tb166 O171 2.353 . S
Tb166 O174 2.427 . S
Tb166 O175 2.513 . S
Tb166 O176 2.453 1_455 S
Tb166 O177 2.596 1_455 S
Tb166 O178 2.374 . S
O167 Tb164 2.453 1_455 S
O167 C183 1.245 . S
O168 Tb164 2.596 1_455 S
O168 Tb166 2.343 . S
O168 C183 1.259 . S
O169 Tb164 2.374 1_455 S
O169 C165 1.251 . S
C170 O174 1.275 . S
C170 O175 1.246 . S
O171 C165 1.263 . S
O171 Tb166 2.353 . S
C172 O176 1.245 . S
C172 O177 1.259 . S
C173 O178 1.250 . S
C173 O179 1.263 . S
O174 Tb166 2.427 . S
O174 C170 1.275 . S
O175 Tb166 2.513 . S
O175 C170 1.246 . S
O176 Tb166 2.453 1_655 S
O176 C172 1.245 . S
O177 Tb164 2.343 . S
O177 Tb166 2.596 1_655 S
O177 C172 1.259 . S
O178 Tb166 2.374 . S
O178 C173 1.250 . S
O179 Tb164 2.353 1_455 S
O179 C173 1.263 . S
C180 O181 1.275 . S
C180 O182 1.246 . S
O181 Tb164 2.427 . S
O181 C180 1.275 . S
O182 Tb164 2.513 . S
O182 C180 1.246 . S
C183 O167 1.245 . S
C183 O168 1.259 . S
H184 C190 0.930 . S
H185 C193 0.930 . S
H186 C194 0.930 . S
H187 C195 0.930 . S
H188 C198 0.930 . S
H189 C199 0.930 . S
C190 H184 0.930 . S
C190 C191 1.355 . S
C190 C192 1.415 . S
C191 C190 1.355 . S
C191 C193 1.419 . S
C192 C190 1.415 . S
C192 C197 1.425 . S
C192 C199 1.409 . S
C193 H185 0.930 . S
C193 C191 1.419 . S
C193 C194 1.362 . S
C194 H186 0.930 . S
C194 C193 1.362 . S
C194 C197 1.409 . S
C195 H187 0.930 . S
C195 C196 1.355 . S
C195 C197 1.415 . S
C196 C195 1.355 . S
C196 C198 1.419 . S
C197 C192 1.425 . S
C197 C194 1.409 . S
C197 C195 1.415 . S
C198 H188 0.930 . S
C198 C196 1.419 . S
C198 C199 1.362 . S
C199 H189 0.930 . S
C199 C192 1.409 . S
C199 C198 1.362 . S
H200 C206 0.930 . S
H201 C209 0.930 . S
H202 C210 0.930 . S
H203 C211 0.930 . S
H204 C214 0.930 . S
H205 C215 0.930 . S
C206 H200 0.930 . S
C206 C207 1.355 . S
C206 C208 1.415 . S
C207 C206 1.355 . S
C207 C209 1.419 . S
C208 C206 1.415 . S
C208 C213 1.425 . S
C208 C215 1.409 . S
C209 H201 0.930 . S
C209 C207 1.419 . S
C209 C210 1.362 . S
C210 H202 0.930 . S
C210 C209 1.362 . S
C210 C213 1.409 . S
C211 H203 0.930 . S
C211 C212 1.355 . S
C211 C213 1.415 . S
C212 C211 1.355 . S
C212 C214 1.419 . S
C213 C208 1.425 . S
C213 C210 1.409 . S
C213 C211 1.415 . S
C214 H204 0.930 . S
C214 C212 1.419 . S
C214 C215 1.362 . S
C215 H205 0.930 . S
C215 C208 1.409 . S
C215 C214 1.362 . S
H216 C222 0.930 . S
H217 C225 0.930 . S
H218 C226 0.930 . S
H219 C227 0.930 . S
H220 C230 0.930 . S
H221 C231 0.930 . S
C222 H216 0.930 . S
C222 C223 1.355 . S
C222 C224 1.415 . S
C223 C222 1.355 . S
C223 C225 1.419 . S
C224 C222 1.415 . S
C224 C229 1.425 . S
C224 C231 1.409 . S
C225 H217 0.930 . S
C225 C223 1.419 . S
C225 C226 1.362 . S
C226 H218 0.930 . S
C226 C225 1.362 . S
C226 C229 1.409 . S
C227 H219 0.930 . S
C227 C228 1.355 . S
C227 C229 1.415 . S
C228 C227 1.355 . S
C228 C230 1.419 . S
C229 C224 1.425 . S
C229 C226 1.409 . S
C229 C227 1.415 . S
C230 H220 0.930 . S
C230 C228 1.419 . S
C230 C231 1.362 . S
C231 H221 0.930 . S
C231 C224 1.409 . S
C231 C230 1.362 . S
H232 C238 0.930 . S
H233 C241 0.930 . S
H234 C242 0.930 . S
H235 C243 0.930 . S
H236 C246 0.930 1_655 S
H237 C247 0.930 . S
C238 H232 0.930 . S
C238 C239 1.355 . S
C238 C240 1.415 . S
C239 C238 1.355 . S
C239 C241 1.419 . S
C240 C238 1.415 . S
C240 C245 1.425 . S
C240 C247 1.409 . S
C241 H233 0.930 . S
C241 C239 1.419 . S
C241 C242 1.362 . S
C242 H234 0.930 . S
C242 C241 1.362 . S
C242 C245 1.409 . S
C243 H235 0.930 . S
C243 C244 1.355 . S
C243 C245 1.415 . S
C244 C243 1.355 . S
C244 C246 1.419 . S
C245 C240 1.425 . S
C245 C242 1.409 . S
C245 C243 1.415 . S
C246 H236 0.930 1_455 S
C246 C244 1.419 . S
C246 C247 1.362 . S
C247 H237 0.930 . S
C247 C240 1.409 . S
C247 C246 1.362 . S
H248 C254 0.930 . S
H249 C257 0.930 . S
H250 C258 0.930 . S
H251 C259 0.930 . S
H252 C262 0.930 1_545 S
H253 C263 0.930 1_554 S
C254 H248 0.930 . S
C254 C255 1.355 1_554 S
C254 C256 1.415 1_554 S
C255 C254 1.355 1_556 S
C255 C257 1.419 . S
C256 C254 1.415 1_556 S
C256 C261 1.425 . S
C256 C263 1.409 . S
C257 H249 0.930 . S
C257 C255 1.419 . S
C257 C258 1.362 . S
C258 H250 0.930 . S
C258 C257 1.362 . S
C258 C261 1.409 . S
C259 H251 0.930 . S
C259 C260 1.355 . S
C259 C261 1.415 . S
C260 C259 1.355 . S
C260 C262 1.419 . S
C261 C256 1.425 . S
C261 C258 1.409 . S
C261 C259 1.415 . S
C262 H252 0.930 1_565 S
C262 C260 1.419 . S
C262 C263 1.362 . S
C263 H253 0.930 1_556 S
C263 C256 1.409 . S
C263 C262 1.362 . S
H264 C270 0.930 . S
H265 C273 0.930 . S
H266 C274 0.930 . S
H267 C275 0.930 . S
H268 C278 0.930 . S
H269 C279 0.930 1_554 S
C270 H264 0.930 . S
C270 C271 1.355 1_554 S
C270 C272 1.415 1_554 S
C271 C270 1.355 1_556 S
C271 C273 1.419 . S
C272 C270 1.415 1_556 S
C272 C277 1.425 . S
C272 C279 1.409 . S
C273 H265 0.930 . S
C273 C271 1.419 . S
C273 C274 1.362 . S
C274 H266 0.930 . S
C274 C273 1.362 . S
C274 C277 1.409 . S
C275 H267 0.930 . S
C275 C276 1.355 . S
C275 C277 1.415 . S
C276 C275 1.355 . S
C276 C278 1.419 . S
C277 C272 1.425 . S
C277 C274 1.409 . S
C277 C275 1.415 . S
C278 H268 0.930 . S
C278 C276 1.419 . S
C278 C279 1.362 . S
C279 H269 0.930 1_556 S
C279 C272 1.409 . S
C279 C278 1.362 . S
H280 C286 0.930 . S
H281 C289 0.930 . S
H282 C290 0.930 . S
H283 C291 0.930 . S
H284 C294 0.930 . S
H285 C295 0.930 . S
C286 H280 0.930 . S
C286 C287 1.355 . S
C286 C288 1.415 . S
C287 C286 1.355 . S
C287 C289 1.419 1_556 S
C288 C286 1.415 . S
C288 C293 1.425 . S
C288 C295 1.409 . S
C289 H281 0.930 . S
C289 C287 1.419 1_554 S
C289 C290 1.362 . S
C290 H282 0.930 . S
C290 C289 1.362 . S
C290 C293 1.409 1_554 S
C291 H283 0.930 . S
C291 C292 1.355 . S
C291 C293 1.415 . S
C292 C291 1.355 . S
C292 C294 1.419 . S
C293 C288 1.425 . S
C293 C290 1.409 1_556 S
C293 C291 1.415 . S
C294 H284 0.930 . S
C294 C292 1.419 . S
C294 C295 1.362 . S
C295 H285 0.930 . S
C295 C288 1.409 . S
C295 C294 1.362 . S
H296 C302 0.930 . S
H297 C305 0.930 1_455 S
H298 C306 0.930 . S
H299 C307 0.930 . S
H300 C310 0.930 . S
H301 C311 0.930 . S
C302 H296 0.930 . S
C302 C303 1.355 . S
C302 C304 1.415 . S
C303 C302 1.355 . S
C303 C305 1.419 . S
C304 C302 1.415 . S
C304 C309 1.425 . S
C304 C311 1.409 . S
C305 H297 0.930 1_655 S
C305 C303 1.419 . S
C305 C306 1.362 1_655 S
C306 H298 0.930 . S
C306 C305 1.362 1_455 S
C306 C309 1.409 1_455 S
C307 H299 0.930 . S
C307 C308 1.355 1_455 S
C307 C309 1.415 1_455 S
C308 C307 1.355 1_655 S
C308 C310 1.419 . S
C309 C304 1.425 . S
C309 C306 1.409 1_655 S
C309 C307 1.415 1_655 S
C310 H300 0.930 . S
C310 C308 1.419 . S
C310 C311 1.362 . S
C311 H301 0.930 . S
C311 C304 1.409 . S
C311 C310 1.362 . S
H312 C318 0.930 . S
H313 C321 0.930 . S
H314 C322 0.930 1_655 S
H315 C323 0.930 1_655 S
H316 C326 0.930 . S
H317 C327 0.930 . S
C318 H312 0.930 . S
C318 C319 1.355 . S
C318 C320 1.415 . S
C319 C318 1.355 . S
C319 C321 1.419 . S
C320 C318 1.415 . S
C320 C325 1.425 . S
C320 C327 1.409 . S
C321 H313 0.930 . S
C321 C319 1.419 . S
C321 C322 1.362 . S
C322 H314 0.930 1_455 S
C322 C321 1.362 . S
C322 C325 1.409 . S
C323 H315 0.930 1_455 S
C323 C324 1.355 . S
C323 C325 1.415 . S
C324 C323 1.355 . S
C324 C326 1.419 . S
C325 C320 1.425 . S
C325 C322 1.409 . S
C325 C323 1.415 . S
C326 H316 0.930 . S
C326 C324 1.419 . S
C326 C327 1.362 . S
C327 H317 0.930 . S
C327 C320 1.409 . S
C327 C326 1.362 . S
H328 C334 0.930 . S
H329 C337 0.930 . S
H330 C338 0.930 . S
H331 C339 0.930 1_565 S
H332 C342 0.930 . S
H333 C343 0.930 . S
C334 H328 0.930 . S
C334 C335 1.355 . S
C334 C336 1.415 . S
C335 C334 1.355 . S
C335 C337 1.419 . S
C336 C334 1.415 . S
C336 C341 1.425 . S
C336 C343 1.409 . S
C337 H329 0.930 . S
C337 C335 1.419 . S
C337 C338 1.362 . S
C338 H330 0.930 . S
C338 C337 1.362 . S
C338 C341 1.409 . S
C339 H331 0.930 1_545 S
C339 C340 1.355 . S
C339 C341 1.415 . S
C340 C339 1.355 . S
C340 C342 1.419 . S
C341 C336 1.425 . S
C341 C338 1.409 . S
C341 C339 1.415 . S
C342 H332 0.930 . S
C342 C340 1.419 . S
C342 C343 1.362 . S
C343 H333 0.930 . S
C343 C336 1.409 . S
C343 C342 1.362 . S
H344 C350 0.930 . S
H345 C353 0.930 . S
H346 C354 0.930 . S
H347 C355 0.930 . S
H348 C358 0.930 . S
H349 C359 0.930 . S
C350 H344 0.930 . S
C350 C351 1.355 . S
C350 C352 1.415 . S
C351 C350 1.355 . S
C351 C353 1.419 . S
C352 C350 1.415 . S
C352 C357 1.425 . S
C352 C359 1.409 . S
C353 H345 0.930 . S
C353 C351 1.419 . S
C353 C354 1.362 . S
C354 H346 0.930 . S
C354 C353 1.362 . S
C354 C357 1.409 . S
C355 H347 0.930 . S
C355 C356 1.355 . S
C355 C357 1.415 . S
C356 C355 1.355 . S
C356 C358 1.419 . S
C357 C352 1.425 . S
C357 C354 1.409 . S
C357 C355 1.415 . S
C358 H348 0.930 . S
C358 C356 1.419 . S
C358 C359 1.362 . S
C359 H349 0.930 . S
C359 C352 1.409 . S
C359 C358 1.362 . S
H360 C366 0.930 . S
H361 C369 0.930 . S
H362 C370 0.930 . S
H363 C371 0.930 . S
H364 C374 0.930 . S
H365 C375 0.930 . S
C366 H360 0.930 . S
C366 C367 1.355 . S
C366 C368 1.415 . S
C367 C366 1.355 . S
C367 C369 1.419 . S
C368 C366 1.415 . S
C368 C373 1.425 . S
C368 C375 1.409 . S
C369 H361 0.930 . S
C369 C367 1.419 . S
C369 C370 1.362 . S
C370 H362 0.930 . S
C370 C369 1.362 . S
C370 C373 1.409 . S
C371 H363 0.930 . S
C371 C372 1.355 . S
C371 C373 1.415 . S
C372 C371 1.355 . S
C372 C374 1.419 . S
C373 C368 1.425 . S
C373 C370 1.409 . S
C373 C371 1.415 . S
C374 H364 0.930 . S
C374 C372 1.419 . S
C374 C375 1.362 . S
C375 H365 0.930 . S
C375 C368 1.409 . S
C375 C374 1.362 . S
H376 C382 0.930 . S
H377 C385 0.930 1_554 S
H378 C386 0.930 1_554 S
H379 C387 0.930 . S
H380 C390 0.930 . S
H381 C391 0.930 . S
C382 H376 0.930 . S
C382 C383 1.355 . S
C382 C384 1.415 . S
C383 C382 1.355 . S
C383 C385 1.419 . S
C384 C382 1.415 . S
C384 C389 1.425 . S
C384 C391 1.409 . S
C385 H377 0.930 1_556 S
C385 C383 1.419 . S
C385 C386 1.362 . S
C386 H378 0.930 1_556 S
C386 C385 1.362 . S
C386 C389 1.409 . S
C387 H379 0.930 . S
C387 C388 1.355 . S
C387 C389 1.415 . S
C388 C387 1.355 . S
C388 C390 1.419 . S
C389 C384 1.425 . S
C389 C386 1.409 . S
C389 C387 1.415 . S
C390 H380 0.930 . S
C390 C388 1.419 . S
C390 C391 1.362 . S
C391 H381 0.930 . S
C391 C384 1.409 . S
C391 C390 1.362 . S
H392 C398 0.930 . S
H393 C401 0.930 . S
H394 C402 0.930 . S
H395 C403 0.930 . S
H396 C406 0.930 . S
H397 C407 0.930 . S
C398 H392 0.930 . S
C398 C399 1.355 . S
C398 C400 1.415 . S
C399 C398 1.355 . S
C399 C401 1.419 1_556 S
C400 C398 1.415 . S
C400 C405 1.425 . S
C400 C407 1.409 1_565 S
C401 H393 0.930 . S
C401 C399 1.419 1_554 S
C401 C402 1.362 . S
C402 H394 0.930 . S
C402 C401 1.362 . S
C402 C405 1.409 1_554 S
C403 H395 0.930 . S
C403 C404 1.355 . S
C403 C405 1.415 . S
C404 C403 1.355 . S
C404 C406 1.419 1_565 S
C405 C400 1.425 . S
C405 C402 1.409 1_556 S
C405 C403 1.415 . S
C406 H396 0.930 . S
C406 C404 1.419 1_545 S
C406 C407 1.362 . S
C407 H397 0.930 . S
C407 C400 1.409 1_545 S
C407 C406 1.362 . S
H408 C414 0.930 . S
H409 C417 0.930 . S
H410 C418 0.930 . S
H411 C419 0.930 . S
H412 C422 0.930 . S
H413 C423 0.930 . S
C414 H408 0.930 . S
C414 C415 1.355 . S
C414 C416 1.415 . S
C415 C414 1.355 . S
C415 C417 1.419 1_556 S
C416 C414 1.415 . S
C416 C421 1.425 . S
C416 C423 1.409 . S
C417 H409 0.930 . S
C417 C415 1.419 1_554 S
C417 C418 1.362 . S
C418 H410 0.930 . S
C418 C417 1.362 . S
C418 C421 1.409 1_554 S
C419 H411 0.930 . S
C419 C420 1.355 . S
C419 C421 1.415 . S
C420 C419 1.355 . S
C420 C422 1.419 . S
C421 C416 1.425 . S
C421 C418 1.409 1_556 S
C421 C419 1.415 . S
C422 H412 0.930 . S
C422 C420 1.419 . S
C422 C423 1.362 . S
C423 H413 0.930 . S
C423 C416 1.409 . S
C423 C422 1.362 . S
H424 C430 0.930 1_554 S
H425 C433 0.930 . S
H426 C434 0.930 . S
H427 C435 0.930 . S
H428 C438 0.930 . S
H429 C439 0.930 1_554 S
C430 H424 0.930 1_556 S
C430 C431 1.355 . S
C430 C432 1.415 . S
C431 C430 1.355 . S
C431 C433 1.419 . S
C432 C430 1.415 . S
C432 C437 1.425 . S
C432 C439 1.409 . S
C433 H425 0.930 . S
C433 C431 1.419 . S
C433 C434 1.362 . S
C434 H426 0.930 . S
C434 C433 1.362 . S
C434 C437 1.409 . S
C435 H427 0.930 . S
C435 C436 1.355 . S
C435 C437 1.415 . S
C436 C435 1.355 . S
C436 C438 1.419 . S
C437 C432 1.425 . S
C437 C434 1.409 . S
C437 C435 1.415 . S
C438 H428 0.930 . S
C438 C436 1.419 . S
C438 C439 1.362 . S
C439 H429 0.930 1_556 S
C439 C432 1.409 . S
C439 C438 1.362 . S
H440 C446 0.930 . S
H441 C449 0.930 . S
H442 C450 0.930 . S
H443 C451 0.930 . S
H444 C454 0.930 1_655 S
H445 C455 0.930 1_655 S
C446 H440 0.930 . S
C446 C447 1.355 . S
C446 C448 1.415 . S
C447 C446 1.355 . S
C447 C449 1.419 . S
C448 C446 1.415 . S
C448 C453 1.425 . S
C448 C455 1.409 . S
C449 H441 0.930 . S
C449 C447 1.419 . S
C449 C450 1.362 . S
C450 H442 0.930 . S
C450 C449 1.362 . S
C450 C453 1.409 . S
C451 H443 0.930 . S
C451 C452 1.355 . S
C451 C453 1.415 1_556 S
C452 C451 1.355 . S
C452 C454 1.419 1_556 S
C453 C448 1.425 . S
C453 C450 1.409 . S
C453 C451 1.415 1_554 S
C454 H444 0.930 1_455 S
C454 C452 1.419 1_554 S
C454 C455 1.362 . S
C455 H445 0.930 1_455 S
C455 C448 1.409 . S
C455 C454 1.362 . S
H456 C462 0.930 . S
H457 C465 0.930 . S
H458 C466 0.930 . S
H459 C467 0.930 . S
H460 C470 0.930 . S
H461 C471 0.930 . S
C462 H456 0.930 . S
C462 C463 1.355 . S
C462 C464 1.415 . S
C463 C462 1.355 . S
C463 C465 1.419 . S
C464 C462 1.415 . S
C464 C469 1.432 . S
C464 C471 1.409 . S
C465 H457 0.930 . S
C465 C463 1.419 . S
C465 C466 1.362 1_554 S
C466 H458 0.930 . S
C466 C465 1.362 1_556 S
C466 C469 1.407 1_556 S
C467 H459 0.930 . S
C467 C468 1.355 . S
C467 C469 1.410 1_556 S
C468 C467 1.355 . S
C468 C470 1.419 1_556 S
C469 C464 1.432 . S
C469 C466 1.407 1_554 S
C469 C467 1.410 1_554 S
C470 H460 0.930 . S
C470 C468 1.419 1_554 S
C470 C471 1.362 . S
C471 H461 0.930 . S
C471 C464 1.409 . S
C471 C470 1.362 . S
H472 C478 0.930 . S
H473 C481 0.930 . S
H474 C482 0.930 . S
H475 C483 0.930 . S
H476 C486 0.928 1_556 S
H477 C487 0.930 . S
C478 H472 0.930 . S
C478 C479 1.355 . S
C478 C480 1.415 . S
C479 C478 1.355 . S
C479 C481 1.419 . S
C480 C478 1.415 . S
C480 C485 1.425 . S
C480 C487 1.409 . S
C481 H473 0.930 . S
C481 C479 1.419 . S
C481 C482 1.362 . S
C482 H474 0.930 . S
C482 C481 1.362 . S
C482 C485 1.409 . S
C483 H475 0.930 . S
C483 C484 1.355 . S
C483 C485 1.415 1_556 S
C484 C483 1.355 . S
C484 C486 1.416 1_556 S
C485 C480 1.425 . S
C485 C482 1.409 . S
C485 C483 1.415 1_554 S
C486 H476 0.928 1_554 S
C486 C484 1.416 1_554 S
C486 C487 1.367 . S
C487 H477 0.930 . S
C487 C480 1.409 . S
C487 C486 1.367 . S
H488 C494 0.930 . S
H489 C497 0.930 . S
H490 C498 0.930 . S
H491 C499 0.930 . S
H492 C502 0.930 . S
H493 C503 0.930 . S
C494 H488 0.930 . S
C494 C495 1.355 . S
C494 C496 1.415 . S
C495 C494 1.355 . S
C495 C497 1.419 . S
C496 C494 1.415 . S
C496 C501 1.425 . S
C496 C503 1.409 . S
C497 H489 0.930 . S
C497 C495 1.419 . S
C497 C498 1.362 1_554 S
C498 H490 0.930 . S
C498 C497 1.362 1_556 S
C498 C501 1.409 1_556 S
C499 H491 0.930 . S
C499 C500 1.355 . S
C499 C501 1.415 1_556 S
C500 C499 1.355 . S
C500 C502 1.419 1_556 S
C501 C496 1.425 . S
C501 C498 1.409 1_554 S
C501 C499 1.415 1_554 S
C502 H492 0.930 . S
C502 C500 1.419 1_554 S
C502 C503 1.362 . S
C503 H493 0.930 . S
C503 C496 1.409 . S
C503 C502 1.362 . S
H504 C510 0.930 . S
H505 C513 0.930 . S
H506 C514 0.930 . S
H507 C515 0.930 . S
H508 C518 0.930 . S
H509 C519 0.930 . S
C510 H504 0.930 . S
C510 C511 1.355 . S
C510 C512 1.415 . S
C511 C510 1.355 . S
C511 C513 1.419 . S
C512 C510 1.415 . S
C512 C517 1.425 . S
C512 C519 1.409 . S
C513 H505 0.930 . S
C513 C511 1.419 . S
C513 C514 1.362 . S
C514 H506 0.930 . S
C514 C513 1.362 . S
C514 C517 1.409 . S
C515 H507 0.930 . S
C515 C516 1.355 . S
C515 C517 1.415 . S
C516 C515 1.355 . S
C516 C518 1.419 . S
C517 C512 1.425 . S
C517 C514 1.409 . S
C517 C515 1.415 . S
C518 H508 0.930 . S
C518 C516 1.419 . S
C518 C519 1.362 . S
C519 H509 0.930 . S
C519 C512 1.409 . S
C519 C518 1.362 . S
H520 C526 0.930 . S
H521 C529 0.930 . S
H522 C530 0.930 . S
H523 C531 0.930 . S
H524 C534 0.930 . S
H525 C535 0.930 . S
C526 H520 0.930 . S
C526 C527 1.355 . S
C526 C528 1.415 . S
C527 C526 1.355 . S
C527 C529 1.419 . S
C528 C526 1.415 . S
C528 C533 1.425 . S
C528 C535 1.409 . S
C529 H521 0.930 . S
C529 C527 1.419 . S
C529 C530 1.362 . S
C530 H522 0.930 . S
C530 C529 1.362 . S
C530 C533 1.409 . S
C531 H523 0.930 . S
C531 C532 1.355 . S
C531 C533 1.415 . S
C532 C531 1.355 . S
C532 C534 1.419 . S
C533 C528 1.425 . S
C533 C530 1.409 . S
C533 C531 1.415 . S
C534 H524 0.930 . S
C534 C532 1.419 . S
C534 C535 1.362 . S
C535 H525 0.930 . S
C535 C528 1.409 . S
C535 C534 1.362 . S
H536 C542 0.930 . S
H537 C545 0.930 . S
H538 C546 0.930 . S
H539 C547 0.930 . S
H540 C550 0.930 . S
H541 C551 0.930 . S
C542 H536 0.930 . S
C542 C543 1.355 . S
C542 C544 1.415 . S
C543 C542 1.355 . S
C543 C545 1.419 . S
C544 C542 1.415 . S
C544 C549 1.425 . S
C544 C551 1.409 . S
C545 H537 0.930 . S
C545 C543 1.419 . S
C545 C546 1.362 . S
C546 H538 0.930 . S
C546 C545 1.362 . S
C546 C549 1.409 . S
C547 H539 0.930 . S
C547 C548 1.355 . S
C547 C549 1.415 . S
C548 C547 1.355 . S
C548 C550 1.419 . S
C549 C544 1.425 . S
C549 C546 1.409 . S
C549 C547 1.415 . S
C550 H540 0.930 . S
C550 C548 1.419 . S
C550 C551 1.362 . S
C551 H541 0.930 . S
C551 C544 1.409 . S
C551 C550 1.362 . S
H552 C558 0.930 . S
H553 C561 0.930 . S
H554 C562 0.930 . S
H555 C563 0.930 . S
H556 C566 0.930 . S
H557 C567 0.930 . S
C558 H552 0.930 . S
C558 C559 1.355 . S
C558 C560 1.415 . S
C559 C558 1.355 . S
C559 C561 1.419 . S
C560 C558 1.415 . S
C560 C565 1.425 . S
C560 C567 1.409 . S
C561 H553 0.930 . S
C561 C559 1.419 . S
C561 C562 1.362 . S
C562 H554 0.930 . S
C562 C561 1.362 . S
C562 C565 1.409 . S
C563 H555 0.930 . S
C563 C564 1.355 . S
C563 C565 1.415 . S
C564 C563 1.355 . S
C564 C566 1.419 . S
C565 C560 1.425 . S
C565 C562 1.409 . S
C565 C563 1.415 . S
C566 H556 0.930 . S
C566 C564 1.419 . S
C566 C567 1.362 . S
C567 H557 0.930 . S
C567 C560 1.409 . S
C567 C566 1.362 . S
C191 C82 1.477 . S
C196 C105 1.586 . S
C212 C140 1.607 . S
C207 C95 1.509 . S
C228 C145 1.356 . S
C223 C56 1.313 . S
C244 C165 1.496 . S
C239 C69 1.482 . S
C260 C113 1.587 1_565 S
C255 C30 1.416 . S
C271 C43 1.428 1_556 S
C276 C130 1.592 . S
C287 C4 1.300 . S
C292 C153 1.346 . S
C303 C17 1.363 . S
C308 C173 1.504 1_655 S
C324 C123 1.352 . S
C319 C74 1.254 . S
C340 C132 1.102 . S
C335 C87 1.019 . S
C356 C163 1.382 . S
C351 C100 1.361 . S
C367 C61 1.045 . S
C372 C183 1.043 . S
C383 C22 1.239 . S
C388 C112 1.360 1_655 S
C404 C143 1.085 1_565 S
C399 C35 1.025 1_556 S
C420 C152 1.411 . S
C415 C48 1.295 1_556 S
C431 C9 1.093 1_556 S
C436 C172 0.999 . S
C447 C73 1.472 . S
C452 C110 1.473 . S
C463 C86 1.510 . S
C468 C133 1.523 . S
C484 C150 1.558 . S
C479 C99 1.544 . S
C500 C170 1.545 . S
C495 C60 1.574 . S
C511 C21 1.446 . S
C516 C120 1.494 . S
C532 C125 1.536 . S
C527 C34 1.444 . S
C548 C160 1.591 . S
C543 C47 1.499 . S
C559 C8 1.520 . S
C564 C180 1.581 . S
