# Generated by pormake.
# Topology zzz, (3,6)-cn, num edge types: 1
# Building blocks:
#     Node 0, Type 0, BuildingBlock: ESEHIV_clean_linker_0, # of connection points: 3
#     Node 1, Type 0, BuildingBlock: ESEHIV_clean_linker_0, # of connection points: 3
#     Node 2, Type 0, BuildingBlock: ESEHIV_clean_linker_0, # of connection points: 3
#     Node 3, Type 0, BuildingBlock: ESEHIV_clean_linker_0, # of connection points: 3
#     Node 4, Type 0, BuildingBlock: ESEHIV_clean_linker_0, # of connection points: 3
#     Node 5, Type 0, BuildingBlock: ESEHIV_clean_linker_0, # of connection points: 3
#     Node 6, Type 0, BuildingBlock: ESEHIV_clean_linker_0, # of connection points: 3
#     Node 7, Type 0, BuildingBlock: ESEHIV_clean_linker_0, # of connection points: 3
#     Node 8, Type 1, BuildingBlock: NUHQIS_clean_sbu_0, # of connection points: 6
#     Node 9, Type 1, BuildingBlock: NUHQIS_clean_sbu_0, # of connection points: 6
#     Node 10, Type 1, BuildingBlock: NUHQIS_clean_sbu_0, # of connection points: 6
#     Node 11, Type 1, BuildingBlock: NUHQIS_clean_sbu_0, # of connection points: 6
#     Edge 12, Type (0, 1), BuildingBlock: KIFKEQ_clean_linker_1, # of connection points: 2
#     Edge 13, Type (0, 1), BuildingBlock: KIFKEQ_clean_linker_1, # of connection points: 2
#     Edge 14, Type (0, 1), BuildingBlock: KIFKEQ_clean_linker_1, # of connection points: 2
#     Edge 15, Type (0, 1), BuildingBlock: KIFKEQ_clean_linker_1, # of connection points: 2
#     Edge 16, Type (0, 1), BuildingBlock: KIFKEQ_clean_linker_1, # of connection points: 2
#     Edge 17, Type (0, 1), BuildingBlock: KIFKEQ_clean_linker_1, # of connection points: 2
#     Edge 18, Type (0, 1), BuildingBlock: KIFKEQ_clean_linker_1, # of connection points: 2
#     Edge 19, Type (0, 1), BuildingBlock: KIFKEQ_clean_linker_1, # of connection points: 2
#     Edge 20, Type (0, 1), BuildingBlock: KIFKEQ_clean_linker_1, # of connection points: 2
#     Edge 21, Type (0, 1), BuildingBlock: KIFKEQ_clean_linker_1, # of connection points: 2
#     Edge 22, Type (0, 1), BuildingBlock: KIFKEQ_clean_linker_1, # of connection points: 2
#     Edge 23, Type (0, 1), BuildingBlock: KIFKEQ_clean_linker_1, # of connection points: 2
#     Edge 24, Type (0, 1), BuildingBlock: KIFKEQ_clean_linker_1, # of connection points: 2
#     Edge 25, Type (0, 1), BuildingBlock: KIFKEQ_clean_linker_1, # of connection points: 2
#     Edge 26, Type (0, 1), BuildingBlock: KIFKEQ_clean_linker_1, # of connection points: 2
#     Edge 27, Type (0, 1), BuildingBlock: KIFKEQ_clean_linker_1, # of connection points: 2
#     Edge 28, Type (0, 1), BuildingBlock: KIFKEQ_clean_linker_1, # of connection points: 2
#     Edge 29, Type (0, 1), BuildingBlock: KIFKEQ_clean_linker_1, # of connection points: 2
#     Edge 30, Type (0, 1), BuildingBlock: KIFKEQ_clean_linker_1, # of connection points: 2
#     Edge 31, Type (0, 1), BuildingBlock: KIFKEQ_clean_linker_1, # of connection points: 2
#     Edge 32, Type (0, 1), BuildingBlock: KIFKEQ_clean_linker_1, # of connection points: 2
#     Edge 33, Type (0, 1), BuildingBlock: KIFKEQ_clean_linker_1, # of connection points: 2
#     Edge 34, Type (0, 1), BuildingBlock: KIFKEQ_clean_linker_1, # of connection points: 2
#     Edge 35, Type (0, 1), BuildingBlock: KIFKEQ_clean_linker_1, # of connection points: 2
# Relax obj value: 0.474
# Max RMSD: 0.249
# Mean RMSD: 0.233
data_MOF--net-zzz--node1-NUHQIS_clean_sbu_0--node2-ESEHIV_clean_linker_0--edge1-KIFKEQ_clean_linker_1
_symmetry_space_group_name_H-M    P1
_symmetry_Int_Tables_number       1
_symmetry_cell_setting            triclinic
loop_
_symmetry_equiv_pos_as_xyz
'x, y, z'
_cell_length_a     46.412999
_cell_length_b     46.341502
_cell_length_c     15.03399
_cell_angle_alpha  89.728889
_cell_angle_beta   89.910975
_cell_angle_gamma 90.057758
loop_
_atom_site_label
_atom_site_type_symbol
_atom_site_fract_x
_atom_site_fract_y
_atom_site_fract_z
_atom_type_partial_charge
H0 H 0.795 0.44367 0.36241 0.0
H1 H 0.72016 0.44278 0.19508 0.0
H2 H 0.73781 0.51671 0.35975 0.0
C3 C 0.775 0.45354 0.34074 0.0
C4 C 0.768 0.48113 0.37182 0.0
C5 C 0.75826 0.43983 0.2759 0.0
C6 C 0.73301 0.4532 0.24591 0.0
C7 C 0.72513 0.48071 0.27627 0.0
C8 C 0.74306 0.49505 0.33836 0.0
H9 H 0.07388 0.80361 0.30089 0.0
H10 H 0.06786 0.7264 0.14794 0.0
H11 H 1.00972 0.73953 0.36897 0.0
C12 C 0.06398 0.78266 0.29074 0.0
C13 C 0.04093 0.77386 0.34522 0.0
C14 C 0.07349 0.76574 0.21996 0.0
C15 C 0.06042 0.73924 0.2036 0.0
C16 C 0.03778 0.72914 0.25745 0.0
C17 C 0.02742 0.74688 0.32763 0.0
H18 H 0.73152 0.07941 0.37053 0.0
H19 H 0.80276 0.07368 0.18993 0.0
H20 H 0.78573 1.00403 0.37401 0.0
C21 C 0.75079 0.06833 0.3483 0.0
C22 C 0.75728 0.04112 0.38455 0.0
C23 C 0.76664 0.07997 0.27733 0.0
C24 C 0.79054 0.06485 0.24533 0.0
C25 C 0.79787 0.03764 0.27989 0.0
C26 C 0.78092 0.02547 0.34919 0.0
H27 H 0.44022 0.72234 0.33488 0.0
H28 H 0.50864 0.78508 0.34976 0.0
H29 H 0.43813 0.79704 0.1661 0.0
C30 C 0.44932 0.743 0.31514 0.0
C31 C 0.4361 0.7589 0.24726 0.0
C32 C 0.47548 0.75195 0.35247 0.0
C33 C 0.48825 0.77808 0.32233 0.0
C34 C 0.47414 0.79518 0.25689 0.0
C35 C 0.44829 0.78504 0.21965 0.0
H36 H 0.22854 0.58153 0.13929 0.0
H37 H 0.30288 0.57965 0.30787 0.0
H38 H 0.28483 0.50769 0.13529 0.0
C39 C 0.24832 0.57106 0.16016 0.0
C40 C 0.25498 0.54371 0.12612 0.0
C41 C 0.26509 0.58388 0.22649 0.0
C42 C 0.28995 0.56981 0.25614 0.0
C43 C 0.29757 0.54253 0.22334 0.0
C44 C 0.2796 0.52905 0.15934 0.0
H45 H 0.93757 0.23193 0.13836 0.0
H46 H 0.9388 0.30559 0.30911 0.0
H47 H 0.01168 0.28806 0.13875 0.0
C48 C 0.94808 0.25155 0.16039 0.0
C49 C 0.97563 0.25825 0.12759 0.0
C50 C 0.93497 0.26816 0.22655 0.0
C51 C 0.94898 0.29283 0.25754 0.0
C52 C 0.97645 0.30058 0.22613 0.0
C53 C 0.99025 0.28272 0.16222 0.0
H54 H 0.29649 0.94877 0.1389 0.0
H55 H 0.22068 0.94385 0.30178 0.0
H56 H 0.23773 0.02053 0.14584 0.0
C57 C 0.27625 0.95803 0.16101 0.0
C58 C 0.26893 0.98591 0.13278 0.0
C59 C 0.25925 0.94295 0.22263 0.0
C60 C 0.23364 0.95541 0.25318 0.0
C61 C 0.22531 0.98318 0.22533 0.0
C62 C 0.24343 0.99881 0.16599 0.0
H63 H 0.58684 0.29606 0.12845 0.0
H64 H 0.51874 0.23284 0.11391 0.0
H65 H 0.58806 0.22316 0.30346 0.0
C66 C 0.57762 0.27555 0.14901 0.0
C67 C 0.59047 0.26034 0.21885 0.0
C68 C 0.55172 0.26622 0.11061 0.0
C69 C 0.53883 0.24027 0.14236 0.0
C70 C 0.55264 0.22375 0.21001 0.0
C71 C 0.57812 0.23452 0.24824 0.0
Tb72 Tb 0.03092 1.00685 0.8187 0.0
Eu73 Eu 0.98498 0.0246 0.66266 0.0
C74 C 0.0526 0.018 0.61961 0.0
C75 C 1.00941 0.0718 0.80137 0.0
C76 C 0.09293 0.97555 0.94135 0.0
C77 C 0.12499 0.94118 0.87082 0.0
C78 C 0.10538 0.964 0.86426 0.0
C79 C 0.10204 0.96589 0.02476 0.0
C80 C 0.12125 0.94293 0.03148 0.0
C81 C 0.13182 0.92914 0.95449 0.0
C82 C 0.06761 0.99428 0.93642 0.0
O83 O 0.98849 0.99784 0.87805 0.0
O84 O 0.96035 0.02712 0.79127 0.0
O85 O 0.98674 0.97572 0.66145 0.0
O86 O 0.02913 0.9679 0.73658 0.0
C87 C 0.96409 1.01154 0.86334 0.0
O88 O 0.94202 0.0192 0.60608 0.0
O89 O 0.97289 0.0478 0.54224 0.0
O90 O 0.02626 0.01518 0.5892 0.0
O91 O 0.05768 0.02055 0.70542 0.0
O92 O 0.01676 0.05026 0.85386 0.0
O93 O 1.00128 0.06718 0.71867 0.0
C94 C 1.00811 0.9587 0.68508 0.0
O95 O 0.0695 0.01688 0.88491 0.0
O96 O 0.04325 0.98074 0.92608 0.0
C97 C 0.92391 0.06068 0.53486 0.0
C98 C 0.88521 0.10594 0.49877 0.0
C99 C 0.8821 0.07909 0.45657 0.0
C100 C 0.90143 0.05667 0.47411 0.0
C101 C 0.92566 0.0865 0.58273 0.0
C102 C 0.90653 0.10899 0.56468 0.0
C103 C 0.94629 0.03856 0.54422 0.0
H104 H 0.13323 0.9318 0.81011 0.0
H105 H 0.09863 0.97141 0.79908 0.0
H106 H 0.09263 0.97466 0.08489 0.0
H107 H 0.12549 0.93451 0.0974 0.0
H108 H 0.86565 0.07601 0.40658 0.0
H109 H 0.89957 0.03666 0.43756 0.0
H110 H 0.94272 0.0898 0.63079 0.0
H111 H 0.90988 0.1294 0.59785 0.0
Tb112 Tb 0.51934 0.03466 0.81875 0.0
Eu113 Eu 0.50152 0.9889 0.66407 0.0
C114 C 0.51093 0.05623 0.62079 0.0
C115 C 0.45424 0.01421 0.79896 0.0
C116 C 0.55571 0.09283 0.94611 0.0
C117 C 0.57593 0.13276 0.02903 0.0
C118 C 0.55255 0.11501 1.00829 0.0
C119 C 0.58182 0.08983 0.90012 0.0
C120 C 0.60527 0.10737 0.92132 0.0
C121 C 0.60292 0.12831 0.98855 0.0
C122 C 0.53244 0.07179 0.93419 0.0
O123 O 0.50887 0.99496 0.89174 0.0
O124 O 0.51669 0.96211 0.78126 0.0
O125 O 0.54729 1.0014 0.6331 0.0
O126 O 0.56104 0.01807 0.77027 0.0
C127 C 0.51317 0.96823 0.86582 0.0
O128 O 0.5084 0.94755 0.59749 0.0
O129 O 0.47575 0.97713 0.54935 0.0
O130 O 0.49452 0.03367 0.60527 0.0
O131 O 0.52652 0.05763 0.69349 0.0
O132 O 0.47203 0.03589 0.81303 0.0
O133 O 0.46253 0.99154 0.75353 0.0
C134 C 0.56748 1.00924 0.68914 0.0
O135 O 0.51484 0.07675 0.86848 0.0
O136 O 0.54005 0.04471 0.93833 0.0
C137 C 0.46631 0.92757 0.53451 0.0
C138 C 0.42202 0.88843 0.4927 0.0
C139 C 0.44901 0.88659 0.45023 0.0
C140 C 0.47091 0.9062 0.47049 0.0
C141 C 0.44063 0.92752 0.58378 0.0
C142 C 0.41863 0.90818 0.56288 0.0
C143 C 0.48695 0.9514 0.54293 0.0
H144 H 0.57329 0.149 0.07985 0.0
H145 H 0.53237 0.11783 0.04352 0.0
H146 H 0.58452 0.07295 0.85115 0.0
H147 H 0.62574 0.10305 0.8894 0.0
H148 H 0.45255 0.87124 0.3974 0.0
H149 H 0.49081 0.90568 0.43273 0.0
H150 H 0.43685 0.94367 0.63437 0.0
H151 H 0.39816 0.91047 0.59679 0.0
Tb152 Tb 0.49085 0.51796 0.82094 0.0
Eu153 Eu 0.53686 0.50377 0.66099 0.0
C154 C 0.46836 0.50833 0.62309 0.0
C155 C 0.51375 0.45349 0.79441 0.0
C156 C 0.43063 0.54698 0.96216 0.0
C157 C 0.39335 0.57965 0.91003 0.0
C158 C 0.41411 0.55848 0.89248 0.0
C159 C 0.42492 0.55529 0.04958 0.0
C160 C 0.40466 0.57666 0.06706 0.0
C161 C 0.38936 0.59012 0.99722 0.0
C162 C 0.45605 0.52905 0.94561 0.0
O163 O 0.53376 0.52547 0.87899 0.0
O164 O 0.56234 0.49846 0.7869 0.0
O165 O 0.53522 0.55238 0.67404 0.0
O166 O 0.4907 0.55703 0.73787 0.0
C167 C 0.55827 0.5122 0.8619 0.0
O168 O 0.57873 0.51191 0.59988 0.0
O169 O 0.54797 0.48382 0.53443 0.0
O170 O 0.49454 0.51243 0.59218 0.0
O171 O 0.46347 0.50505 0.70893 0.0
O172 O 0.50454 0.47376 0.84843 0.0
O173 O 0.52317 0.45968 0.71369 0.0
C174 C 0.5124 0.56802 0.69244 0.0
O175 O 0.45314 0.5073 0.89174 0.0
O176 O 0.47985 0.54323 0.93093 0.0
C177 C 0.59715 0.47406 0.51082 0.0
C178 C 0.63627 0.42996 0.46551 0.0
C179 C 0.6358 0.44132 0.55229 0.0
C180 C 0.6162 0.46304 0.57499 0.0
C181 C 0.59893 0.46429 0.42321 0.0
C182 C 0.61809 0.4424 0.4008 0.0
C183 C 0.57407 0.49436 0.53382 0.0
H184 H 0.3816 0.58881 0.85461 0.0
H185 H 0.41819 0.55211 0.82436 0.0
H186 H 0.4375 0.54657 0.10413 0.0
H187 H 0.40291 0.58403 0.135 0.0
H188 H 0.64971 0.43268 0.6036 0.0
H189 H 0.61529 0.47047 0.64315 0.0
H190 H 0.58447 0.47265 0.37274 0.0
H191 H 0.61718 0.43411 0.33369 0.0
Tb192 Tb 1.00163 0.48946 0.82955 0.0
Eu193 Eu 0.01937 0.53674 0.67787 0.0
C194 C 0.01355 0.46933 0.63025 0.0
C195 C 0.06706 0.50938 0.81096 0.0
C196 C 0.96525 0.42896 0.94842 0.0
C197 C 0.9476 0.38587 0.02289 0.0
C198 C 0.96986 0.40549 1.0057 0.0
C199 C 0.93909 0.43109 0.9022 0.0
C200 C 0.91674 0.41177 0.92032 0.0
C201 C 0.92025 0.38982 0.98447 0.0
C202 C 0.98644 0.45254 0.94453 0.0
O203 O 0.99335 0.53224 0.88865 0.0
O204 O 0.0262 0.55848 0.80941 0.0
O205 O 0.97052 0.53665 0.68476 0.0
O206 O 0.96401 0.49136 0.74229 0.0
C207 C 1.00976 0.55529 0.87959 0.0
O208 O 0.01489 0.58082 0.62778 0.0
O209 O 0.04054 0.54971 0.55488 0.0
O210 O 1.01013 0.49594 0.60176 0.0
O211 O 0.01604 0.46352 0.7158 0.0
O212 O 0.0459 0.50106 0.86367 0.0
O213 O 0.06196 0.51926 0.73005 0.0
C214 C 0.95405 0.51399 0.69919 0.0
O215 O 1.00836 0.4491 0.89151 0.0
O216 O 0.97575 0.47846 0.93853 0.0
C217 C 0.05559 0.59811 0.5506 0.0
C218 C 0.1024 0.63446 0.50971 0.0
C219 C 0.07541 0.63888 0.46938 0.0
C220 C 0.05222 0.6207 0.48933 0.0
C221 C 0.08167 0.59511 0.59658 0.0
C222 C 0.10492 0.61309 0.57617 0.0
C223 C 0.03263 0.57666 0.56173 0.0
H224 H 0.9512 0.36869 0.07045 0.0
H225 H 0.9901 0.40322 0.04086 0.0
H226 H 0.93523 0.44884 0.85664 0.0
H227 H 0.89601 0.41565 0.88959 0.0
H228 H 0.07265 0.65544 0.41917 0.0
H229 H 0.03205 0.62352 0.45413 0.0
H230 H 0.08451 0.57791 0.64486 0.0
H231 H 0.1254 0.60877 0.60794 0.0
H232 H 0.21921 0.02973 0.33589 0.0
H233 H 0.17093 0.96215 0.20835 0.0
H234 H 0.17689 0.0418 0.42662 0.0
H235 H 0.12882 0.97384 0.29853 0.0
H236 H 0.05093 1.0112 0.43809 0.0
H237 H 0.09118 1.00772 0.33428 0.0
H238 H 0.15091 0.01958 0.55088 0.0
H239 H 0.11062 0.0234 0.65478 0.0
C240 C 0.19928 0.01807 0.32538 0.0
C241 C 0.19829 0.99523 0.26427 0.0
C242 C 0.17512 0.02464 0.37831 0.0
C243 C 0.14933 1.00866 0.37092 0.0
C244 C 0.14805 0.98686 0.30602 0.0
C245 C 0.1722 0.98015 0.25396 0.0
C246 C 0.07261 0.01331 0.46379 0.0
C247 C 0.07734 0.01753 0.55538 0.0
C248 C 0.09579 1.01117 0.40401 0.0
C249 C 0.12449 0.01329 0.43369 0.0
C250 C 0.1292 0.01821 0.52498 0.0
C251 C 0.106 0.02022 0.58491 0.0
H252 H 0.49821 0.21037 0.27482 0.0
H253 H 0.58242 0.17388 0.23094 0.0
H254 H 0.48526 0.16814 0.36715 0.0
H255 H 0.56977 0.13234 0.32285 0.0
H256 H 0.55445 0.09551 0.6054 0.0
H257 H 0.56094 0.13325 0.49402 0.0
H258 H 0.48084 0.10909 0.36989 0.0
H259 H 0.47445 0.07045 0.48145 0.0
C260 C 0.51359 0.19298 0.28234 0.0
C261 C 0.54142 0.19562 0.24577 0.0
C262 C 0.50625 0.16887 0.33567 0.0
C263 C 0.5267 0.14712 0.35381 0.0
C264 C 0.55368 0.14888 0.31164 0.0
C265 C 0.56085 0.17264 0.25834 0.0
C266 C 0.53808 0.09812 0.55473 0.0
C267 C 0.51391 0.07976 0.55274 0.0
C268 C 0.54191 0.11975 0.4904 0.0
C269 C 0.5215 0.12416 0.42262 0.0
C270 C 0.49694 0.10629 0.42127 0.0
C271 C 0.49336 0.0841 0.48498 0.0
H272 H 0.30049 0.4996 0.34845 0.0
H273 H 0.3533 0.55704 0.19229 0.0
H274 H 0.3422 0.4874 0.44121 0.0
H275 H 0.39484 0.54573 0.28527 0.0
H276 H 0.4703 0.51057 0.4405 0.0
H277 H 0.43036 0.51309 0.33595 0.0
H278 H 0.37008 0.50985 0.55495 0.0
H279 H 0.41012 0.5066 0.65951 0.0
C280 C 0.3213 0.50886 0.33217 0.0
C281 C 0.32378 0.52885 0.26205 0.0
C282 C 0.34514 0.50235 0.38638 0.0
C283 C 0.37208 0.51579 0.3721 0.0
C284 C 0.37475 0.53461 0.29851 0.0
C285 C 0.35093 0.5411 0.24465 0.0
C286 C 0.44854 0.51018 0.46663 0.0
C287 C 0.44363 0.50844 0.55902 0.0
C288 C 0.42551 0.51178 0.40632 0.0
C289 C 0.39672 0.51179 0.43623 0.0
C290 C 0.39181 0.50947 0.52866 0.0
C291 C 0.41488 0.50779 0.58904 0.0
H292 H 0.9551 0.35477 0.2191 0.0
H293 H 0.02529 0.30564 0.32904 0.0
H294 H 0.9683 0.39598 0.30989 0.0
H295 H 0.03857 0.34703 0.42251 0.0
H296 H 0.02057 0.41095 0.66052 0.0
H297 H 0.01707 0.3716 0.55325 0.0
H298 H 1.00316 0.43349 0.34229 0.0
H299 H 1.00637 0.47272 0.44917 0.0
C300 C 0.97419 0.35326 0.26004 0.0
C301 C 0.98959 0.32718 0.26476 0.0
C302 C 0.98165 0.37685 0.31311 0.0
C303 C 1.0045 0.375 0.37429 0.0
C304 C 0.02071 0.34924 0.37673 0.0
C305 C 0.01343 0.32564 0.3222 0.0
C306 C 0.01703 0.41624 0.59116 0.0
C307 C 0.01356 0.44519 0.56413 0.0
C308 C 0.01522 0.39359 0.52933 0.0
C309 C 1.00972 0.3992 0.4387 0.0
C310 C 1.00707 0.4282 0.41147 0.0
C311 C 1.00901 0.4508 0.47305 0.0
H312 H 0.85416 0.03258 0.33193 0.0
H313 H 0.79563 1.01025 0.12151 0.0
H314 H 0.89526 0.0223 0.23412 0.0
H315 H 0.83627 0.999 0.0244 0.0
H316 H 0.90888 0.03066 0.84237 0.0
H317 H 0.86969 0.03041 0.94911 0.0
H318 H 0.92453 0.98883 0.14266 0.0
H319 H 0.96435 0.98933 0.03483 0.0
C320 C 0.85015 0.02437 0.26591 0.0
C321 C 0.82174 0.02206 0.23456 0.0
C322 C 0.87367 0.01852 0.20955 0.0
C323 C 0.86921 1.01036 0.12034 0.0
C324 C 0.84065 1.00585 0.09181 0.0
C325 C 0.81729 1.01178 0.14793 0.0
C326 C 0.91274 0.02128 0.90739 0.0
C327 C 0.93997 1.01 0.92948 0.0
C328 C 0.89003 0.02091 0.96874 0.0
C329 C 0.89366 1.00933 0.05475 0.0
C330 C 0.92089 0.99798 0.07724 0.0
C331 C 0.9437 0.99814 0.01519 0.0
H332 H 0.5261 0.80559 0.17395 0.0
H333 H 0.44721 0.84705 0.25338 0.0
H334 H 0.53932 0.84859 0.08644 0.0
H335 H 0.46028 0.88991 0.1678 0.0
H336 H 0.49785 0.97074 0.04252 0.0
H337 H 0.49301 0.93094 0.14867 0.0
H338 H 0.52104 0.87108 0.94736 0.0
H339 H 0.526 0.91084 0.84125 0.0
C340 C 0.51208 0.82425 0.17518 0.0
C341 C 0.4858 0.82308 0.22171 0.0
C342 C 0.51942 0.84876 0.12408 0.0
C343 C 0.50081 0.87281 0.11929 0.0
C344 C 0.47535 0.8721 0.17022 0.0
C345 C 0.46787 0.84754 0.21983 0.0
C346 C 0.50327 0.94915 0.02091 0.0
C347 C 0.5122 0.94415 0.93273 0.0
C348 C 0.50038 0.92625 0.08191 0.0
C349 C 0.50657 0.89764 0.05696 0.0
C350 C 0.51638 0.89277 0.9696 0.0
C351 C 0.51903 0.91564 0.90834 0.0
H352 H 0.66849 0.47048 0.3129 0.0
H353 H 0.7243 0.51898 0.13871 0.0
H354 H 0.62714 0.48199 0.21751 0.0
H355 H 0.68321 0.53046 0.04267 0.0
H356 H 0.6154 0.50115 0.83351 0.0
H357 H 0.65434 0.49903 0.9418 0.0
H358 H 0.59468 0.52085 0.15127 0.0
H359 H 0.55544 0.52331 0.04204 0.0
C360 C 0.67164 0.48453 0.25594 0.0
C361 C 0.69947 0.49435 0.23422 0.0
C362 C 0.64802 0.49101 0.20091 0.0
C363 C 0.65182 0.50695 0.12169 0.0
C364 C 0.6795 0.51792 0.10257 0.0
C365 C 0.703 0.51173 0.15821 0.0
C366 C 0.61049 0.50574 0.90248 0.0
C367 C 0.58215 0.51243 0.9287 0.0
C368 C 0.63296 0.50471 0.96468 0.0
C369 C 0.62779 0.50991 0.05549 0.0
C370 C 0.59946 0.51668 0.08198 0.0
C371 C 0.57699 0.51822 0.01925 0.0
H372 H 0.98577 0.71383 0.18313 0.0
H373 H 0.06636 0.67878 0.275 0.0
H374 H 0.97596 0.66865 0.10292 0.0
H375 H 0.05672 0.63394 0.19596 0.0
H376 H 0.0542 0.59147 0.91604 0.0
H377 H 0.05667 0.62997 0.02527 0.0
H378 H 0.97002 0.61053 0.11083 0.0
H379 H 0.96771 0.57105 1.00144 0.0
C380 C 1.00067 0.69599 0.18986 0.0
C381 C 0.02661 0.6997 0.23677 0.0
C382 C 0.9952 0.67018 0.1433 0.0
C383 C 0.01576 0.6478 0.14194 0.0
C384 C 0.04055 0.65079 0.19479 0.0
C385 C 0.04589 0.67633 0.24136 0.0
C386 C 0.03564 0.59518 0.95824 0.0
C387 C 1.01075 0.57808 0.94966 0.0
C388 C 0.03713 0.61722 0.02143 0.0
C389 C 0.01361 0.62332 0.07734 0.0
C390 C 0.98853 0.60639 0.06885 0.0
C391 C 0.98726 0.58371 1.0065 0.0
H392 H 0.92752 0.26236 0.40459 0.0
H393 H 0.88505 0.24694 0.15415 0.0
H394 H 0.89618 0.22796 0.47676 0.0
H395 H 0.85252 0.2128 0.22727 0.0
H396 H 0.87473 0.1189 0.32494 0.0
H397 H 0.86862 0.16637 0.26378 0.0
H398 H 0.85662 0.20079 0.52815 0.0
H399 H 0.86322 0.15248 0.59023 0.0
C400 C 0.91041 0.25271 0.36581 0.0
C401 C 0.90932 0.25655 0.27327 0.0
C402 C 0.89216 0.2329 0.40745 0.0
C403 C 0.87244 0.21662 0.35718 0.0
C404 C 0.86818 0.22418 0.26733 0.0
C405 C 0.88674 0.24376 0.22539 0.0
C406 C 0.86945 0.1362 0.3703 0.0
C407 C 0.87062 0.13203 0.46286 0.0
C408 C 0.86579 0.16376 0.33485 0.0
C409 C 0.86327 0.1878 0.39122 0.0
C410 C 0.85961 0.18289 0.48302 0.0
C411 C 0.86343 0.15522 0.51865 0.0
H412 H 0.28206 0.89504 0.14295 0.0
H413 H 0.26468 0.93263 0.39941 0.0
H414 H 0.3168 0.86222 0.21128 0.0
H415 H 0.29978 0.90098 0.46716 0.0
H416 H 0.37479 0.86449 0.57717 0.0
H417 H 0.32681 0.86016 0.5122 0.0
H418 H 0.36279 0.87856 0.25256 0.0
H419 H 0.40991 0.8827 0.31655 0.0
C420 C 0.28493 0.89553 0.21443 0.0
C421 C 0.27132 0.91682 0.26564 0.0
C422 C 0.3049 0.87684 0.25362 0.0
C423 C 0.31199 0.87964 0.34419 0.0
C424 C 0.29514 0.89809 0.39723 0.0
C425 C 0.27493 0.91647 0.35825 0.0
C426 C 0.37248 0.86659 0.50576 0.0
C427 C 0.39606 0.87491 0.4526 0.0
C428 C 0.34498 0.86411 0.46849 0.0
C429 C 0.34065 0.87006 0.37759 0.0
C430 C 0.36499 0.87389 0.32284 0.0
C431 C 0.39236 0.87631 0.35993 0.0
H432 H 0.6419 0.28166 0.15717 0.0
H433 H 0.59086 0.27129 0.39494 0.0
H434 H 0.67236 0.31673 0.23297 0.0
H435 H 0.61931 0.3073 0.46886 0.0
H436 H 0.66138 0.4132 0.30776 0.0
H437 H 0.66499 0.36394 0.25903 0.0
H438 H 0.65397 0.33448 0.53057 0.0
H439 H 0.6465 0.38371 0.57711 0.0
C440 C 0.63772 0.28643 0.22648 0.0
C441 C 0.61378 0.27431 0.26991 0.0
C442 C 0.65494 0.30675 0.26989 0.0
C443 C 0.64781 0.31608 0.35631 0.0
C444 C 0.62589 0.30111 0.40262 0.0
C445 C 0.60922 0.28035 0.35999 0.0
C446 C 0.65989 0.39623 0.35735 0.0
C447 C 0.65148 0.40244 0.44506 0.0
C448 C 0.66251 0.36766 0.32957 0.0
C449 C 0.65779 0.34475 0.3899 0.0
C450 C 0.65579 0.3514 0.481 0.0
C451 C 0.65203 0.37993 0.5082 0.0
H452 H 0.25962 0.58977 0.40508 0.0
H453 H 0.24293 0.63406 0.1574 0.0
H454 H 0.22482 0.61992 0.47947 0.0
H455 H 0.20833 0.66526 0.23268 0.0
H456 H 0.11478 0.6436 0.33476 0.0
H457 H 0.16208 0.64825 0.27098 0.0
H458 H 0.19836 0.6598 0.53318 0.0
H459 H 0.15032 0.6547 0.59782 0.0
C460 C 0.2496 0.60703 0.36745 0.0
C461 C 0.25329 0.60901 0.27498 0.0
C462 C 0.22955 0.62455 0.41032 0.0
C463 C 0.2129 0.64444 0.36144 0.0
C464 C 0.22008 0.6495 0.2717 0.0
C465 C 0.23995 0.63172 0.22857 0.0
C466 C 0.13252 0.64845 0.37896 0.0
C467 C 0.12887 0.64777 0.47174 0.0
C468 C 0.15994 0.65124 0.34205 0.0
C469 C 0.18434 0.65343 0.39711 0.0
C470 C 0.18013 0.65718 0.48906 0.0
C471 C 0.15262 0.65424 0.52613 0.0
H472 H 0.06449 0.78051 0.04904 0.0
H473 H 0.12996 0.77848 0.25161 0.0
H474 H 0.09376 0.81244 0.95977 0.0
H475 H 0.1611 0.80878 0.15919 0.0
H476 H 0.12693 0.88376 0.83675 0.0
H477 H 0.12819 0.83347 0.87763 0.0
H478 H 0.16265 0.8564 0.1351 0.0
H479 H 0.1653 0.9061 0.08911 0.0
C480 C 0.0859 0.78599 0.07232 0.0
C481 C 0.09486 0.77771 0.1574 0.0
C482 C 0.10306 0.80423 0.02071 0.0
C483 C 0.12985 0.81427 0.0527 0.0
C484 C 0.14022 0.80269 0.13346 0.0
C485 C 0.12259 0.78507 0.18626 0.0
C486 C 0.1363 0.87813 0.90034 0.0
C487 C 0.14407 0.89945 0.96234 0.0
C488 C 0.13642 0.84902 0.92472 0.0
C489 C 0.14301 0.84084 1.01266 0.0
C490 C 0.15617 0.86152 0.06783 0.0
C491 C 0.15725 0.89047 0.04193 0.0
H492 H 0.74411 0.13066 0.34124 0.0
H493 H 0.76042 0.08425 0.098 0.0
H494 H 0.7088 0.16064 0.2638 0.0
H495 H 0.72529 0.11353 0.02153 0.0
H496 H 0.65098 0.14871 0.9005 0.0
H497 H 0.69894 0.15396 0.96514 0.0
H498 H 0.66256 0.14148 0.2274 0.0
H499 H 0.61536 0.13623 0.16356 0.0
C500 C 0.74093 0.12758 0.27055 0.0
C501 C 0.75436 0.10455 0.22634 0.0
C502 C 0.7207 0.14472 0.22618 0.0
C503 C 0.71344 0.13887 0.13722 0.0
C504 C 0.73014 0.11873 0.09003 0.0
C505 C 0.75041 0.10174 0.1342 0.0
C506 C 0.65321 0.14803 0.97219 0.0
C507 C 0.62946 0.14125 0.02663 0.0
C508 C 0.68067 0.15112 1.00924 0.0
C509 C 0.6848 0.14733 0.10125 0.0
C510 C 0.6604 0.14461 0.15631 0.0
C511 C 0.63306 0.14153 0.1194 0.0
H512 H 0.38433 0.73751 0.30626 0.0
H513 H 0.43637 0.74873 0.07103 0.0
H514 H 0.3537 0.70339 0.22732 0.0
H515 H 0.40804 0.71341 0.99422 0.0
H516 H 0.36056 0.60758 0.14899 0.0
H517 H 0.35778 0.6567 0.19774 0.0
H518 H 0.37516 0.68604 0.92921 0.0
H519 H 0.38237 0.63681 0.88382 0.0
C520 C 0.38875 0.73306 0.23689 0.0
C521 C 0.41291 0.74524 0.19496 0.0
C522 C 0.37147 0.7132 0.19163 0.0
C523 C 0.37885 0.70421 0.10495 0.0
C524 C 0.40117 0.71921 0.06047 0.0
C525 C 0.4178 0.73961 0.10482 0.0
C526 C 0.36389 0.62445 0.10006 0.0
C527 C 0.37415 0.61799 0.01436 0.0
C528 C 0.3617 0.65306 0.12782 0.0
C529 C 0.36854 0.67588 0.06909 0.0
C530 C 0.37203 0.6692 0.97838 0.0
C531 C 0.37555 0.64059 0.95159 0.0
H532 H 0.78233 0.39066 0.34623 0.0
H533 H 0.76306 0.43314 0.09738 0.0
H534 H 0.81691 0.35961 0.27027 0.0
H535 H 0.7979 0.40328 0.02233 0.0
H536 H 0.87185 0.36911 0.89967 0.0
H537 H 0.82434 0.36397 0.96791 0.0
H538 H 0.8627 0.37552 0.2273 0.0
H539 H 0.90945 0.38006 0.15996 0.0
C540 C 0.78479 0.39266 0.27479 0.0
C541 C 0.77059 0.41478 0.22808 0.0
C542 C 0.80469 0.37499 0.23123 0.0
C543 C 0.81111 0.37958 0.14067 0.0
C544 C 0.79379 0.39896 0.09202 0.0
C545 C 0.77369 0.41632 0.13531 0.0
C546 C 0.87013 0.36948 0.97152 0.0
C547 C 0.89431 0.37593 0.02407 0.0
C548 C 0.8429 0.36659 1.0107 0.0
C549 C 0.83939 0.37045 0.10293 0.0
C550 C 0.86424 0.3725 0.1561 0.0
C551 C 0.89138 0.37518 0.1171 0.0
H552 H 0.95292 0.24208 0.96878 0.0
H553 H 0.02533 0.22601 0.14078 0.0
H554 H 0.96423 0.19905 0.88365 0.0
H555 H 0.03756 0.18312 0.05361 0.0
H556 H 0.02298 0.08839 0.97111 0.0
H557 H 0.0197 0.13585 0.03768 0.0
H558 H 0.99219 0.17144 0.78572 0.0
H559 H 0.99463 0.12339 0.71952 0.0
C560 C 0.97201 0.22987 0.98629 0.0
C561 C 0.98827 0.23765 0.06152 0.0
C562 C 0.97854 0.205 0.93732 0.0
C563 C 1.00164 0.18695 0.96181 0.0
C564 C 0.0192 0.19594 0.0334 0.0
C565 C 0.01258 0.22092 0.08262 0.0
C566 C 0.01636 0.10628 0.92932 0.0
C567 C 1.00894 0.10173 0.83956 0.0
C568 C 0.01474 0.1338 0.96767 0.0
C569 C 1.00572 0.15796 0.91776 0.0
C570 C 0.99889 0.15353 0.82723 0.0
C571 C 1.00043 0.12587 0.78882 0.0
H572 H 0.27457 0.98001 0.95371 0.0
H573 H 0.31281 0.02178 0.17975 0.0
H574 H 0.31751 0.99071 0.86499 0.0
H575 H 0.35623 0.03191 0.09265 0.0
H576 H 0.42918 0.05616 0.90327 0.0
H577 H 0.38182 0.05534 0.97453 0.0
H578 H 0.3649 0.97202 0.85803 0.0
H579 H 0.41174 0.97319 0.78552 0.0
C580 C 0.29177 0.9925 0.98333 0.0
C581 C 0.28997 1.00073 0.07301 0.0
C582 C 0.31673 0.99814 0.93311 0.0
C583 C 0.34084 1.01181 0.97153 0.0
C584 C 0.33822 0.02161 0.05991 0.0
C585 C 0.31317 0.01604 0.10998 0.0
C586 C 0.41524 0.0378 0.89201 0.0
C587 C 0.42451 0.01475 0.83827 0.0
C588 C 0.38803 0.03723 0.93351 0.0
C589 C 0.36918 0.01363 0.9225 0.0
C590 C 0.37833 0.99088 0.86729 0.0
C591 C 0.40548 0.99144 0.82592 0.0
H592 H 0.57562 0.28426 0.95474 0.0
H593 H 0.4998 0.29466 0.11684 0.0
H594 H 0.56319 0.32734 0.87014 0.0
H595 H 0.48648 0.33752 0.03012 0.0
H596 H 0.49813 0.43382 0.95985 0.0
H597 H 0.50245 0.38565 0.02176 0.0
H598 H 0.53543 0.35494 0.77062 0.0
H599 H 0.53191 0.40379 0.70914 0.0
C600 C 0.55555 0.29514 0.96978 0.0
C601 C 0.53863 0.28584 0.04235 0.0
C602 C 0.5484 0.32005 0.92123 0.0
C603 C 0.52401 0.33659 0.94358 0.0
C604 C 0.50581 0.32591 1.0118 0.0
C605 C 0.51307 0.30092 0.06063 0.0
C606 C 0.50616 0.41687 0.91716 0.0
C607 C 0.51482 0.42305 0.82917 0.0
C608 C 0.50838 0.38891 0.95278 0.0
C609 C 0.51924 0.36592 0.90178 0.0
C610 C 0.52728 0.37194 0.81288 0.0
C611 C 0.52514 0.40005 0.77719 0.0
H612 H 0.23714 0.56714 0.96953 0.0
H613 H 0.22379 0.49329 0.13972 0.0
H614 H 0.19372 0.55545 0.88691 0.0
H615 H 0.1805 0.48068 0.05496 0.0
H616 H 0.08494 0.49435 0.97883 0.0
H617 H 0.13283 0.49777 0.04265 0.0
H618 H 0.16619 0.52734 0.78973 0.0
H619 H 0.1178 0.52483 0.72653 0.0
C620 C 0.22543 0.54769 0.98712 0.0
C621 C 0.23407 0.53111 0.06114 0.0
C622 C 0.20036 0.54092 0.93959 0.0
C623 C 0.18298 0.51726 0.96436 0.0
C624 C 0.19281 0.49944 0.03464 0.0
C625 C 0.218 0.50629 0.08243 0.0
C626 C 0.10245 0.50141 0.93627 0.0
C627 C 0.09719 0.50945 0.84722 0.0
C628 C 0.1302 0.50313 0.97299 0.0
C629 C 0.15382 0.51285 0.92198 0.0
C630 C 0.14869 0.52015 0.83205 0.0
C631 C 0.12083 0.51855 0.79536 0.0
H632 H 0.07487 0.79851 0.47093 0.0
H633 H 0.98708 0.7971 0.37853 0.0
H634 H 0.06487 0.84091 0.55913 0.0
H635 H 0.97621 0.8391 0.47143 0.0
H636 H 0.97785 0.93609 0.54438 0.0
H637 H 0.98283 0.88881 0.47621 0.0
H638 H 0.04542 0.86515 0.67624 0.0
H639 H 0.04145 0.91302 0.7411 0.0
C640 C 0.05303 0.80676 0.47192 0.0
C641 C 0.03183 0.79431 0.41723 0.0
C642 C 0.04717 0.83126 0.52315 0.0
C643 C 0.01969 0.84418 0.52272 0.0
C644 C 0.99785 0.83046 0.47256 0.0
C645 C 1.00387 0.80591 0.42039 0.0
C646 C 0.99257 0.92074 0.57425 0.0
C647 C 1.00939 0.92867 0.64816 0.0
C648 C 0.99531 0.89331 0.53529 0.0
C649 C 0.01472 0.87265 0.56951 0.0
C650 C 0.03073 0.88035 0.64574 0.0
C651 C 0.02831 0.90793 0.68379 0.0
H652 H 0.73861 0.06641 0.53743 0.0
H653 H 0.7273 0.98992 0.37941 0.0
H654 H 0.69487 0.05526 0.62003 0.0
H655 H 0.68385 0.97787 0.46447 0.0
H656 H 0.58769 0.99243 0.52632 0.0
H657 H 0.63625 0.9953 0.46779 0.0
H658 H 0.66622 0.02822 0.71963 0.0
H659 H 0.61697 0.02617 0.77772 0.0
C660 C 0.72729 0.04655 0.52261 0.0
C661 C 0.73648 0.02912 0.45149 0.0
C662 C 0.70206 0.04009 0.57019 0.0
C663 C 0.68517 0.01588 0.54842 0.0
C664 C 0.69575 0.99711 0.48208 0.0
C665 C 0.72104 1.00367 0.43418 0.0
C666 C 0.60456 1.00012 0.56991 0.0
C667 C 0.5981 1.0092 0.65702 0.0
C668 C 0.63272 1.0015 0.53628 0.0
C669 C 0.6556 1.01192 0.5885 0.0
C670 C 0.64929 0.02037 0.6766 0.0
C671 C 0.62097 0.01905 0.71032 0.0
H672 H 0.51859 0.71329 0.32241 0.0
H673 H 0.4604 0.7429 0.52543 0.0
H674 H 0.52968 0.67057 0.41187 0.0
H675 H 0.47207 0.70087 0.61727 0.0
H676 H 0.46577 0.60467 0.693 0.0
H677 H 0.46109 0.65155 0.62078 0.0
H678 H 0.5499 0.64696 0.53558 0.0
H679 H 0.55421 0.59958 0.60545 0.0
C680 C 0.50922 0.7113 0.3882 0.0
C681 C 0.48913 0.73182 0.41767 0.0
C682 C 0.51538 0.68662 0.43964 0.0
C683 C 0.50155 0.68171 0.52212 0.0
C684 C 0.48277 0.7033 0.55364 0.0
C685 C 0.47648 0.72782 0.50185 0.0
C686 C 0.48442 0.61372 0.65963 0.0
C687 C 0.51035 0.59806 0.65521 0.0
C688 C 0.48181 0.64089 0.61834 0.0
C689 C 0.5051 0.65347 0.57159 0.0
C690 C 0.53127 0.63806 0.56933 0.0
C691 C 0.53382 0.61081 0.6102 0.0
H692 H 0.77693 0.46892 0.54669 0.0
H693 H 0.80866 0.52174 0.33156 0.0
H694 H 0.81978 0.48019 0.6341 0.0
H695 H 0.8522 0.53239 0.41695 0.0
H696 H 0.92497 0.55641 0.60622 0.0
H697 H 0.87736 0.5536 0.53763 0.0
H698 H 0.86832 0.46608 0.63389 0.0
H699 H 0.9153 0.46922 0.7041 0.0
C700 C 0.7927 0.48377 0.51936 0.0
C701 C 0.78908 0.49498 0.43309 0.0
C702 C 0.81765 0.48981 0.56868 0.0
C703 C 0.84003 0.50685 0.53257 0.0
C704 C 0.83554 0.51941 0.44797 0.0
C705 C 0.81043 0.51351 0.3989 0.0
C706 C 0.9127 0.53665 0.61355 0.0
C707 C 0.9242 0.51307 0.66116 0.0
C708 C 0.88534 0.53496 0.57355 0.0
C709 C 0.86859 0.50961 0.57975 0.0
C710 C 0.88002 0.48623 0.62861 0.0
C711 C 0.90727 0.48795 0.66869 0.0
loop_
_geom_bond_atom_site_label_1
_geom_bond_atom_site_label_2
_geom_bond_distance
_geom_bond_site_symmetry_2
_ccdc_geom_bond_type
H0 C3 0.931 . S
H1 C6 0.928 . S
H2 C8 0.930 . S
C3 H0 0.931 . S
C3 C4 1.413 . S
C3 C5 1.360 . S
C4 C3 1.413 . S
C4 C8 1.429 . S
C5 C3 1.360 . S
C5 C6 1.372 . S
C6 H1 0.928 . S
C6 C5 1.372 . S
C6 C7 1.404 . S
C7 C6 1.404 . S
C7 C8 1.391 . S
C8 H2 0.930 . S
C8 C4 1.429 . S
C8 C7 1.391 . S
H9 C12 0.931 . S
H10 C15 0.928 . S
H11 C17 0.930 . S
C12 H9 0.931 . S
C12 C13 1.413 . S
C12 C14 1.360 . S
C13 C12 1.413 . S
C13 C17 1.429 1_655 S
C14 C12 1.360 . S
C14 C15 1.372 . S
C15 H10 0.928 . S
C15 C14 1.372 . S
C15 C16 1.404 . S
C16 C15 1.404 . S
C16 C17 1.390 1_655 S
C17 H11 0.930 . S
C17 C13 1.429 1_455 S
C17 C16 1.390 1_455 S
H18 C21 0.931 . S
H19 C24 0.928 . S
H20 C26 0.930 . S
C21 H18 0.931 . S
C21 C22 1.413 . S
C21 C23 1.360 . S
C22 C21 1.413 . S
C22 C26 1.429 1_565 S
C23 C21 1.360 . S
C23 C24 1.372 . S
C24 H19 0.928 . S
C24 C23 1.372 . S
C24 C25 1.404 . S
C25 C24 1.404 . S
C25 C26 1.390 1_565 S
C26 H20 0.930 . S
C26 C22 1.429 1_545 S
C26 C25 1.390 1_545 S
H27 C30 0.931 . S
H28 C33 0.928 . S
H29 C35 0.930 . S
C30 H27 0.931 . S
C30 C31 1.413 . S
C30 C32 1.360 . S
C31 C30 1.413 . S
C31 C35 1.429 . S
C32 C30 1.360 . S
C32 C33 1.372 . S
C33 H28 0.928 . S
C33 C32 1.372 . S
C33 C34 1.404 . S
C34 C33 1.404 . S
C34 C35 1.391 . S
C35 H29 0.930 . S
C35 C31 1.429 . S
C35 C34 1.391 . S
H36 C39 0.931 . S
H37 C42 0.928 . S
H38 C44 0.930 . S
C39 H36 0.931 . S
C39 C40 1.413 1_554 S
C39 C41 1.360 . S
C40 C39 1.413 1_556 S
C40 C44 1.429 . S
C41 C39 1.360 . S
C41 C42 1.372 . S
C42 H37 0.928 . S
C42 C41 1.372 . S
C42 C43 1.404 . S
C43 C42 1.404 . S
C43 C44 1.391 1_554 S
C44 H38 0.930 . S
C44 C40 1.429 . S
C44 C43 1.391 1_556 S
H45 C48 0.931 . S
H46 C51 0.928 . S
H47 C53 0.930 . S
C48 H45 0.931 . S
C48 C49 1.413 1_554 S
C48 C50 1.360 . S
C49 C48 1.413 1_556 S
C49 C53 1.429 1_655 S
C50 C48 1.360 . S
C50 C51 1.372 . S
C51 H46 0.928 . S
C51 C50 1.372 . S
C51 C52 1.404 . S
C52 C51 1.404 . S
C52 C53 1.391 1_654 S
C53 H47 0.930 . S
C53 C49 1.429 1_455 S
C53 C52 1.391 1_456 S
H54 C57 0.931 . S
H55 C60 0.928 . S
H56 C62 0.930 . S
C57 H54 0.931 . S
C57 C58 1.413 1_554 S
C57 C59 1.360 . S
C58 C57 1.413 1_556 S
C58 C62 1.429 1_565 S
C59 C57 1.360 . S
C59 C60 1.372 . S
C60 H55 0.928 . S
C60 C59 1.372 . S
C60 C61 1.404 . S
C61 C60 1.404 . S
C61 C62 1.391 1_564 S
C62 H56 0.930 . S
C62 C58 1.429 1_545 S
C62 C61 1.391 1_546 S
H63 C66 0.931 . S
H64 C69 0.928 . S
H65 C71 0.930 . S
C66 H63 0.931 . S
C66 C67 1.413 . S
C66 C68 1.360 1_554 S
C67 C66 1.413 . S
C67 C71 1.429 . S
C68 C66 1.360 1_556 S
C68 C69 1.372 . S
C69 H64 0.928 . S
C69 C68 1.372 . S
C69 C70 1.404 1_556 S
C70 C69 1.404 1_554 S
C70 C71 1.391 . S
C71 H65 0.930 . S
C71 C67 1.429 . S
C71 C70 1.391 . S
Tb72 C82 2.825 . S
Tb72 O83 2.347 1_455 S
Tb72 O86 2.366 . S
Tb72 O91 2.418 . S
Tb72 O92 2.384 1_565 S
Tb72 O95 2.479 . S
Tb72 O96 2.471 . S
Eu73 O84 2.418 . S
Eu73 O85 2.384 1_545 S
Eu73 O88 2.479 . S
Eu73 O89 2.471 . S
Eu73 O90 2.347 1_655 S
Eu73 O93 2.366 . S
Eu73 C103 2.825 . S
C74 O90 1.259 1_565 S
C74 O91 1.265 . S
C75 O92 1.255 . S
C75 O93 1.265 1_455 S
C76 C78 1.380 . S
C76 C79 1.374 . S
C76 C82 1.507 . S
C77 C78 1.384 1_554 S
C77 C81 1.387 . S
C77 H104 0.930 . S
C78 C76 1.380 . S
C78 C77 1.384 1_556 S
C78 H105 0.931 . S
C79 C76 1.374 . S
C79 C80 1.390 1_556 S
C79 H106 0.930 1_455 S
C80 C79 1.390 1_554 S
C80 C81 1.391 . S
C80 H107 0.930 1_455 S
C81 C77 1.387 . S
C81 C80 1.391 . S
C82 Tb72 2.825 . S
C82 C76 1.507 . S
C82 O95 1.238 . S
C82 O96 1.247 . S
O83 Tb72 2.347 1_655 S
O83 C87 1.259 1_565 S
O84 Eu73 2.418 . S
O84 C87 1.265 . S
O85 Eu73 2.384 1_565 S
O85 C94 1.255 . S
O86 Tb72 2.366 . S
O86 C94 1.265 1_455 S
C87 O83 1.259 1_545 S
C87 O84 1.265 . S
O88 Eu73 2.479 . S
O88 C103 1.238 . S
O89 Eu73 2.471 . S
O89 C103 1.247 . S
O90 Eu73 2.347 1_455 S
O90 C74 1.259 1_545 S
O91 Tb72 2.418 . S
O91 C74 1.265 . S
O92 Tb72 2.384 1_545 S
O92 C75 1.255 . S
O93 Eu73 2.366 . S
O93 C75 1.265 1_655 S
C94 O85 1.255 . S
C94 O86 1.265 1_655 S
O95 Tb72 2.479 . S
O95 C82 1.238 . S
O96 Tb72 2.471 . S
O96 C82 1.247 . S
C97 C100 1.380 . S
C97 C101 1.374 . S
C97 C103 1.507 . S
C98 C99 1.387 . S
C98 C102 1.391 . S
C99 C98 1.387 . S
C99 C100 1.384 . S
C99 H108 0.930 . S
C100 C97 1.380 . S
C100 C99 1.384 . S
C100 H109 0.931 . S
C101 C97 1.374 . S
C101 C102 1.390 . S
C101 H110 0.930 1_655 S
C102 C98 1.391 . S
C102 C101 1.390 . S
C102 H111 0.930 1_655 S
C103 Eu73 2.825 . S
C103 O88 1.238 . S
C103 O89 1.247 . S
C103 C97 1.507 . S
H104 C77 0.930 . S
H105 C78 0.931 . S
H106 C79 0.930 1_655 S
H107 C80 0.930 1_655 S
H108 C99 0.930 . S
H109 C100 0.931 . S
H110 C101 0.930 1_455 S
H111 C102 0.930 1_455 S
Tb112 C122 2.825 . S
Tb112 O123 2.347 1_545 S
Tb112 O126 2.366 . S
Tb112 O131 2.418 . S
Tb112 O132 2.384 . S
Tb112 O135 2.479 . S
Tb112 O136 2.471 . S
Eu113 O124 2.418 . S
Eu113 O125 2.384 . S
Eu113 O128 2.479 . S
Eu113 O129 2.471 . S
Eu113 O130 2.347 1_565 S
Eu113 O133 2.366 . S
Eu113 C143 2.825 . S
C114 O130 1.259 . S
C114 O131 1.265 . S
C115 O132 1.255 . S
C115 O133 1.265 1_545 S
C116 C118 1.380 . S
C116 C119 1.374 . S
C116 C122 1.507 . S
C117 C118 1.384 1_554 S
C117 C121 1.387 . S
C117 H144 0.930 . S
C118 C116 1.380 . S
C118 C117 1.384 1_556 S
C118 H145 0.931 . S
C119 C116 1.374 . S
C119 C120 1.390 1_556 S
C119 H146 0.930 1_545 S
C120 C119 1.390 1_554 S
C120 C121 1.391 . S
C120 H147 0.930 1_545 S
C121 C117 1.387 . S
C121 C120 1.391 . S
C122 Tb112 2.825 . S
C122 C116 1.507 . S
C122 O135 1.238 . S
C122 O136 1.247 . S
O123 Tb112 2.347 1_565 S
O123 C127 1.259 . S
O124 Eu113 2.418 . S
O124 C127 1.265 . S
O125 Eu113 2.384 . S
O125 C134 1.255 . S
O126 Tb112 2.366 . S
O126 C134 1.265 1_545 S
C127 O123 1.259 . S
C127 O124 1.265 . S
O128 Eu113 2.479 . S
O128 C143 1.238 . S
O129 Eu113 2.471 . S
O129 C143 1.247 . S
O130 Eu113 2.347 1_545 S
O130 C114 1.259 . S
O131 Tb112 2.418 . S
O131 C114 1.265 . S
O132 Tb112 2.384 . S
O132 C115 1.255 . S
O133 Eu113 2.366 . S
O133 C115 1.265 1_565 S
C134 O125 1.255 . S
C134 O126 1.265 1_565 S
O135 Tb112 2.479 . S
O135 C122 1.238 . S
O136 Tb112 2.471 . S
O136 C122 1.247 . S
C137 C140 1.380 . S
C137 C141 1.374 . S
C137 C143 1.507 . S
C138 C139 1.387 . S
C138 C142 1.391 . S
C139 C138 1.387 . S
C139 C140 1.384 . S
C139 H148 0.930 . S
C140 C137 1.380 . S
C140 C139 1.384 . S
C140 H149 0.931 . S
C141 C137 1.374 . S
C141 C142 1.390 . S
C141 H150 0.930 1_565 S
C142 C138 1.391 . S
C142 C141 1.390 . S
C142 H151 0.930 1_565 S
C143 Eu113 2.825 . S
C143 O128 1.238 . S
C143 O129 1.247 . S
C143 C137 1.507 . S
H144 C117 0.930 . S
H145 C118 0.931 . S
H146 C119 0.930 1_565 S
H147 C120 0.930 1_565 S
H148 C139 0.930 . S
H149 C140 0.931 . S
H150 C141 0.930 1_545 S
H151 C142 0.930 1_545 S
Tb152 C162 2.825 . S
Tb152 O163 2.347 . S
Tb152 O166 2.366 . S
Tb152 O171 2.418 . S
Tb152 O172 2.384 . S
Tb152 O175 2.479 . S
Tb152 O176 2.471 . S
Eu153 O164 2.418 . S
Eu153 O165 2.384 . S
Eu153 O168 2.479 . S
Eu153 O169 2.471 . S
Eu153 O170 2.347 . S
Eu153 O173 2.366 . S
Eu153 C183 2.825 . S
C154 O170 1.259 . S
C154 O171 1.265 . S
C155 O172 1.255 . S
C155 O173 1.265 . S
C156 C158 1.380 . S
C156 C159 1.374 . S
C156 C162 1.507 . S
C157 C158 1.384 1_554 S
C157 C161 1.387 . S
C157 H184 0.930 . S
C158 C156 1.380 . S
C158 C157 1.384 1_556 S
C158 H185 0.931 . S
C159 C156 1.374 . S
C159 C160 1.390 1_556 S
C159 H186 0.930 . S
C160 C159 1.390 1_554 S
C160 C161 1.391 . S
C160 H187 0.930 . S
C161 C157 1.387 . S
C161 C160 1.391 . S
C162 Tb152 2.825 . S
C162 C156 1.507 . S
C162 O175 1.238 . S
C162 O176 1.247 . S
O163 Tb152 2.347 . S
O163 C167 1.259 . S
O164 Eu153 2.418 . S
O164 C167 1.265 . S
O165 Eu153 2.384 . S
O165 C174 1.255 . S
O166 Tb152 2.366 . S
O166 C174 1.265 . S
C167 O163 1.259 . S
C167 O164 1.265 . S
O168 Eu153 2.479 . S
O168 C183 1.238 . S
O169 Eu153 2.471 . S
O169 C183 1.247 . S
O170 Eu153 2.347 . S
O170 C154 1.259 . S
O171 Tb152 2.418 . S
O171 C154 1.265 . S
O172 Tb152 2.384 . S
O172 C155 1.255 . S
O173 Eu153 2.366 . S
O173 C155 1.265 . S
C174 O165 1.255 . S
C174 O166 1.265 . S
O175 Tb152 2.479 . S
O175 C162 1.238 . S
O176 Tb152 2.471 . S
O176 C162 1.247 . S
C177 C180 1.380 . S
C177 C181 1.374 . S
C177 C183 1.507 . S
C178 C179 1.387 . S
C178 C182 1.391 . S
C179 C178 1.387 . S
C179 C180 1.384 . S
C179 H188 0.930 . S
C180 C177 1.380 . S
C180 C179 1.384 . S
C180 H189 0.931 . S
C181 C177 1.374 . S
C181 C182 1.390 . S
C181 H190 0.930 . S
C182 C178 1.391 . S
C182 C181 1.390 . S
C182 H191 0.930 . S
C183 Eu153 2.825 . S
C183 O168 1.238 . S
C183 O169 1.247 . S
C183 C177 1.507 . S
H184 C157 0.930 . S
H185 C158 0.931 . S
H186 C159 0.930 . S
H187 C160 0.930 . S
H188 C179 0.930 . S
H189 C180 0.931 . S
H190 C181 0.930 . S
H191 C182 0.930 . S
Tb192 C202 2.825 . S
Tb192 O203 2.347 . S
Tb192 O206 2.366 . S
Tb192 O211 2.418 . S
Tb192 O212 2.384 1_655 S
Tb192 O215 2.479 . S
Tb192 O216 2.471 . S
Eu193 O204 2.418 . S
Eu193 O205 2.384 1_455 S
Eu193 O208 2.479 . S
Eu193 O209 2.471 . S
Eu193 O210 2.347 . S
Eu193 O213 2.366 . S
Eu193 C223 2.825 . S
C194 O210 1.259 1_655 S
C194 O211 1.265 . S
C195 O212 1.255 . S
C195 O213 1.265 . S
C196 C198 1.380 . S
C196 C199 1.374 . S
C196 C202 1.507 . S
C197 C198 1.384 1_554 S
C197 C201 1.387 . S
C197 H224 0.930 . S
C198 C196 1.380 . S
C198 C197 1.384 1_556 S
C198 H225 0.931 . S
C199 C196 1.374 . S
C199 C200 1.390 1_556 S
C199 H226 0.930 . S
C200 C199 1.390 1_554 S
C200 C201 1.391 . S
C200 H227 0.930 . S
C201 C197 1.387 . S
C201 C200 1.391 . S
C202 Tb192 2.825 . S
C202 C196 1.507 . S
C202 O215 1.238 . S
C202 O216 1.247 . S
O203 Tb192 2.347 . S
O203 C207 1.259 1_655 S
O204 Eu193 2.418 . S
O204 C207 1.265 . S
O205 Eu193 2.384 1_655 S
O205 C214 1.255 . S
O206 Tb192 2.366 . S
O206 C214 1.265 . S
C207 O203 1.259 1_455 S
C207 O204 1.265 . S
O208 Eu193 2.479 . S
O208 C223 1.238 . S
O209 Eu193 2.471 . S
O209 C223 1.247 . S
O210 Eu193 2.347 . S
O210 C194 1.259 1_455 S
O211 Tb192 2.418 . S
O211 C194 1.265 . S
O212 Tb192 2.384 1_455 S
O212 C195 1.255 . S
O213 Eu193 2.366 . S
O213 C195 1.265 . S
C214 O205 1.255 . S
C214 O206 1.265 . S
O215 Tb192 2.479 . S
O215 C202 1.238 . S
O216 Tb192 2.471 . S
O216 C202 1.247 . S
C217 C220 1.380 . S
C217 C221 1.374 . S
C217 C223 1.507 . S
C218 C219 1.387 . S
C218 C222 1.391 . S
C219 C218 1.387 . S
C219 C220 1.384 . S
C219 H228 0.930 . S
C220 C217 1.380 . S
C220 C219 1.384 . S
C220 H229 0.931 . S
C221 C217 1.374 . S
C221 C222 1.390 . S
C221 H230 0.930 . S
C222 C218 1.391 . S
C222 C221 1.390 . S
C222 H231 0.930 . S
C223 Eu193 2.825 . S
C223 O208 1.238 . S
C223 O209 1.247 . S
C223 C217 1.507 . S
H224 C197 0.930 . S
H225 C198 0.931 . S
H226 C199 0.930 . S
H227 C200 0.930 . S
H228 C219 0.930 . S
H229 C220 0.931 . S
H230 C221 0.930 . S
H231 C222 0.930 . S
H232 C240 0.950 . S
H233 C245 0.950 . S
H234 C242 0.950 . S
H235 C244 0.950 . S
H236 C246 0.950 . S
H237 C248 0.950 . S
H238 C250 0.950 . S
H239 C251 0.950 . S
C240 H232 0.950 . S
C240 C241 1.401 . S
C240 C242 1.391 . S
C241 C240 1.401 . S
C241 C245 1.379 1_545 S
C242 H234 0.950 . S
C242 C240 1.391 . S
C242 C243 1.408 . S
C243 C242 1.408 . S
C243 C244 1.391 1_545 S
C243 C249 1.490 1_545 S
C244 H235 0.950 . S
C244 C243 1.391 1_565 S
C244 C245 1.391 . S
C245 H233 0.950 . S
C245 C241 1.379 1_565 S
C245 C244 1.391 . S
C246 H236 0.950 . S
C246 C247 1.398 . S
C246 C248 1.391 . S
C247 C246 1.398 . S
C247 C251 1.382 1_565 S
C248 H237 0.950 . S
C248 C246 1.391 . S
C248 C249 1.405 . S
C249 C243 1.490 1_565 S
C249 C248 1.405 . S
C249 C250 1.394 1_565 S
C250 H238 0.950 . S
C250 C249 1.394 1_545 S
C250 C251 1.391 . S
C251 H239 0.950 . S
C251 C247 1.382 1_545 S
C251 C250 1.391 . S
H252 C260 0.950 . S
H253 C265 0.950 . S
H254 C262 0.950 . S
H255 C264 0.950 . S
H256 C266 0.950 . S
H257 C268 0.950 . S
H258 C270 0.950 . S
H259 C271 0.950 . S
C260 H252 0.950 . S
C260 C261 1.386 . S
C260 C262 1.391 . S
C261 C260 1.386 . S
C261 C265 1.393 . S
C262 H254 0.950 . S
C262 C260 1.391 . S
C262 C263 1.400 . S
C263 C262 1.400 . S
C263 C264 1.398 . S
C263 C269 1.491 . S
C264 H255 0.950 . S
C264 C263 1.398 . S
C264 C265 1.391 . S
C265 H253 0.950 . S
C265 C261 1.393 . S
C265 C264 1.391 . S
C266 H256 0.950 . S
C266 C267 1.386 . S
C266 C268 1.391 . S
C267 C266 1.386 . S
C267 C271 1.393 . S
C268 H257 0.950 . S
C268 C266 1.391 . S
C268 C269 1.400 . S
C269 C263 1.491 . S
C269 C268 1.400 . S
C269 C270 1.398 . S
C270 H258 0.950 . S
C270 C269 1.398 . S
C270 C271 1.391 . S
C271 H259 0.950 . S
C271 C267 1.393 . S
C271 C270 1.391 . S
H272 C280 0.950 . S
H273 C285 0.950 . S
H274 C282 0.950 . S
H275 C284 0.950 . S
H276 C286 0.950 . S
H277 C288 0.950 . S
H278 C290 0.950 . S
H279 C291 0.950 . S
C280 H272 0.950 . S
C280 C281 1.386 . S
C280 C282 1.391 . S
C281 C280 1.386 . S
C281 C285 1.393 . S
C282 H274 0.950 . S
C282 C280 1.391 . S
C282 C283 1.400 . S
C283 C282 1.400 . S
C283 C284 1.398 . S
C283 C289 1.491 . S
C284 H275 0.950 . S
C284 C283 1.398 . S
C284 C285 1.391 . S
C285 H273 0.950 . S
C285 C281 1.393 . S
C285 C284 1.391 . S
C286 H276 0.950 . S
C286 C287 1.386 . S
C286 C288 1.391 . S
C287 C286 1.386 . S
C287 C291 1.393 . S
C288 H277 0.950 . S
C288 C286 1.391 . S
C288 C289 1.400 . S
C289 C283 1.491 . S
C289 C288 1.400 . S
C289 C290 1.398 . S
C290 H278 0.950 . S
C290 C289 1.398 . S
C290 C291 1.391 . S
C291 H279 0.950 . S
C291 C287 1.393 . S
C291 C290 1.391 . S
H292 C300 0.950 . S
H293 C305 0.950 . S
H294 C302 0.950 . S
H295 C304 0.950 . S
H296 C306 0.950 . S
H297 C308 0.950 . S
H298 C310 0.950 . S
H299 C311 0.950 . S
C300 H292 0.950 . S
C300 C301 1.387 . S
C300 C302 1.391 . S
C301 C300 1.387 . S
C301 C305 1.391 1_655 S
C302 H294 0.950 . S
C302 C300 1.391 . S
C302 C303 1.386 1_655 S
C303 C302 1.386 1_455 S
C303 C304 1.412 . S
C303 C309 1.491 . S
C304 H295 0.950 . S
C304 C303 1.412 . S
C304 C305 1.391 . S
C305 H293 0.950 . S
C305 C301 1.391 1_455 S
C305 C304 1.391 . S
C306 H296 0.950 . S
C306 C307 1.386 . S
C306 C308 1.391 . S
C307 C306 1.386 . S
C307 C311 1.393 1_455 S
C308 H297 0.950 . S
C308 C306 1.391 . S
C308 C309 1.400 . S
C309 C303 1.491 . S
C309 C308 1.400 . S
C309 C310 1.398 1_455 S
C310 H298 0.950 . S
C310 C309 1.398 1_655 S
C310 C311 1.391 . S
C311 H299 0.950 . S
C311 C307 1.393 1_655 S
C311 C310 1.391 . S
H312 C320 0.949 . S
H313 C325 0.950 . S
H314 C322 0.951 . S
H315 C324 0.950 . S
H316 C326 0.949 1_565 S
H317 C328 0.950 . S
H318 C330 0.950 . S
H319 C331 0.949 1_554 S
C320 H312 0.949 . S
C320 C321 1.385 1_545 S
C320 C322 1.391 . S
C321 C320 1.385 1_565 S
C321 C325 1.396 . S
C322 H314 0.951 . S
C322 C320 1.391 . S
C322 C323 1.399 1_545 S
C323 C322 1.399 1_565 S
C323 C324 1.400 . S
C323 C329 1.490 1_565 S
C324 H315 0.950 . S
C324 C323 1.400 . S
C324 C325 1.391 . S
C325 H313 0.950 . S
C325 C321 1.396 . S
C325 C324 1.391 . S
C326 H316 0.949 1_545 S
C326 C327 1.386 . S
C326 C328 1.391 1_545 S
C327 C326 1.386 . S
C327 C331 1.400 . S
C328 H317 0.950 . S
C328 C326 1.391 1_565 S
C328 C329 1.399 1_566 S
C329 C323 1.490 1_545 S
C329 C328 1.399 1_544 S
C329 C330 1.400 . S
C330 H318 0.950 . S
C330 C329 1.400 . S
C330 C331 1.383 1_554 S
C331 H319 0.949 1_556 S
C331 C327 1.400 . S
C331 C330 1.383 1_556 S
H332 C340 0.950 . S
H333 C345 0.950 . S
H334 C342 0.950 . S
H335 C344 0.950 . S
H336 C346 0.950 . S
H337 C348 0.950 . S
H338 C350 0.950 . S
H339 C351 0.950 . S
C340 H332 0.950 . S
C340 C341 1.386 . S
C340 C342 1.391 . S
C341 C340 1.386 . S
C341 C345 1.393 . S
C342 H334 0.950 . S
C342 C340 1.391 . S
C342 C343 1.400 . S
C343 C342 1.400 . S
C343 C344 1.398 . S
C343 C349 1.491 . S
C344 H335 0.950 . S
C344 C343 1.398 . S
C344 C345 1.391 . S
C345 H333 0.950 . S
C345 C341 1.393 . S
C345 C344 1.391 . S
C346 H336 0.950 . S
C346 C347 1.386 . S
C346 C348 1.391 1_556 S
C347 C346 1.386 . S
C347 C351 1.393 . S
C348 H337 0.950 . S
C348 C346 1.391 1_554 S
C348 C349 1.400 . S
C349 C343 1.491 . S
C349 C348 1.400 . S
C349 C350 1.398 . S
C350 H338 0.950 . S
C350 C349 1.398 . S
C350 C351 1.391 1_554 S
C351 H339 0.950 . S
C351 C347 1.393 . S
C351 C350 1.391 1_556 S
H352 C360 0.950 . S
H353 C365 0.950 . S
H354 C362 0.950 . S
H355 C364 0.950 . S
H356 C366 0.950 . S
H357 C368 0.950 . S
H358 C370 0.950 . S
H359 C371 0.950 . S
C360 H352 0.950 . S
C360 C361 1.386 . S
C360 C362 1.391 . S
C361 C360 1.386 . S
C361 C365 1.393 . S
C362 H354 0.950 . S
C362 C360 1.391 . S
C362 C363 1.400 . S
C363 C362 1.400 . S
C363 C364 1.398 . S
C363 C369 1.491 . S
C364 H355 0.950 . S
C364 C363 1.398 . S
C364 C365 1.391 . S
C365 H353 0.950 . S
C365 C361 1.393 . S
C365 C364 1.391 . S
C366 H356 0.950 . S
C366 C367 1.386 . S
C366 C368 1.391 1_556 S
C367 C366 1.386 . S
C367 C371 1.393 . S
C368 H357 0.950 . S
C368 C366 1.391 1_554 S
C368 C369 1.400 . S
C369 C363 1.491 . S
C369 C368 1.400 . S
C369 C370 1.398 . S
C370 H358 0.950 . S
C370 C369 1.398 . S
C370 C371 1.391 1_554 S
C371 H359 0.950 . S
C371 C367 1.393 . S
C371 C370 1.391 1_556 S
H372 C380 0.950 . S
H373 C385 0.950 . S
H374 C382 0.950 . S
H375 C384 0.950 . S
H376 C386 0.950 . S
H377 C388 0.950 . S
H378 C390 0.950 . S
H379 C391 0.950 . S
C380 H372 0.950 . S
C380 C381 1.398 . S
C380 C382 1.391 . S
C381 C380 1.398 . S
C381 C385 1.380 1_655 S
C382 H374 0.950 . S
C382 C380 1.391 . S
C382 C383 1.428 . S
C383 C382 1.428 . S
C383 C384 1.370 1_655 S
C383 C389 1.491 . S
C384 H375 0.950 . S
C384 C383 1.370 1_455 S
C384 C385 1.391 . S
C385 H373 0.950 . S
C385 C381 1.380 1_455 S
C385 C384 1.391 . S
C386 H376 0.950 . S
C386 C387 1.386 1_455 S
C386 C388 1.391 1_556 S
C387 C386 1.386 1_655 S
C387 C391 1.393 . S
C388 H377 0.950 . S
C388 C386 1.391 1_554 S
C388 C389 1.369 1_455 S
C389 C383 1.491 . S
C389 C388 1.369 1_655 S
C389 C390 1.430 . S
C390 H378 0.950 . S
C390 C389 1.430 . S
C390 C391 1.391 1_554 S
C391 H379 0.950 . S
C391 C387 1.393 . S
C391 C390 1.391 1_556 S
H392 C400 0.950 . S
H393 C405 0.950 . S
H394 C402 0.950 . S
H395 C404 0.950 . S
H396 C406 0.950 . S
H397 C408 0.950 . S
H398 C410 0.950 1_455 S
H399 C411 0.950 . S
C400 H392 0.950 . S
C400 C401 1.386 . S
C400 C402 1.391 . S
C401 C400 1.386 . S
C401 C405 1.393 1_455 S
C402 H394 0.950 . S
C402 C400 1.391 . S
C402 C403 1.400 1_455 S
C403 C402 1.400 1_655 S
C403 C404 1.398 . S
C403 C409 1.491 . S
C404 H395 0.950 . S
C404 C403 1.398 . S
C404 C405 1.391 . S
C405 H393 0.950 . S
C405 C401 1.393 1_655 S
C405 C404 1.391 . S
C406 H396 0.950 . S
C406 C407 1.386 . S
C406 C408 1.391 . S
C407 C406 1.386 . S
C407 C411 1.393 . S
C408 H397 0.950 . S
C408 C406 1.391 . S
C408 C409 1.400 . S
C409 C403 1.491 . S
C409 C408 1.400 . S
C409 C410 1.398 . S
C410 H398 0.950 1_655 S
C410 C409 1.398 . S
C410 C411 1.391 . S
C411 H399 0.950 . S
C411 C407 1.393 . S
C411 C410 1.391 . S
H412 C420 0.950 . S
H413 C425 0.950 . S
H414 C422 0.950 . S
H415 C424 0.950 . S
H416 C426 0.950 . S
H417 C428 0.950 1_545 S
H418 C430 0.950 . S
H419 C431 0.950 . S
C420 H412 0.950 . S
C420 C421 1.386 1_565 S
C420 C422 1.391 . S
C421 C420 1.386 1_545 S
C421 C425 1.393 . S
C422 H414 0.950 . S
C422 C420 1.391 . S
C422 C423 1.400 . S
C423 C422 1.400 . S
C423 C424 1.398 1_565 S
C423 C429 1.491 . S
C424 H415 0.950 . S
C424 C423 1.398 1_545 S
C424 C425 1.391 . S
C425 H413 0.950 . S
C425 C421 1.393 . S
C425 C424 1.391 . S
C426 H416 0.950 . S
C426 C427 1.386 . S
C426 C428 1.391 . S
C427 C426 1.386 . S
C427 C431 1.393 . S
C428 H417 0.950 1_565 S
C428 C426 1.391 . S
C428 C429 1.400 . S
C429 C423 1.491 . S
C429 C428 1.400 . S
C429 C430 1.398 . S
C430 H418 0.950 . S
C430 C429 1.398 . S
C430 C431 1.391 . S
C431 H419 0.950 . S
C431 C427 1.393 . S
C431 C430 1.391 . S
H432 C440 0.950 . S
H433 C445 0.950 . S
H434 C442 0.950 . S
H435 C444 0.950 . S
H436 C446 0.950 . S
H437 C448 0.950 . S
H438 C450 0.950 . S
H439 C451 0.950 . S
C440 H432 0.950 . S
C440 C441 1.386 . S
C440 C442 1.391 . S
C441 C440 1.386 . S
C441 C445 1.393 . S
C442 H434 0.950 . S
C442 C440 1.391 . S
C442 C443 1.400 . S
C443 C442 1.400 . S
C443 C444 1.398 . S
C443 C449 1.491 . S
C444 H435 0.950 . S
C444 C443 1.398 . S
C444 C445 1.391 . S
C445 H433 0.950 . S
C445 C441 1.393 . S
C445 C444 1.391 . S
C446 H436 0.950 . S
C446 C447 1.386 . S
C446 C448 1.391 . S
C447 C446 1.386 . S
C447 C451 1.393 . S
C448 H437 0.950 . S
C448 C446 1.391 . S
C448 C449 1.400 . S
C449 C443 1.491 . S
C449 C448 1.400 . S
C449 C450 1.398 . S
C450 H438 0.950 . S
C450 C449 1.398 . S
C450 C451 1.391 . S
C451 H439 0.950 . S
C451 C447 1.393 . S
C451 C450 1.391 . S
H452 C460 0.950 . S
H453 C465 0.950 . S
H454 C462 0.950 . S
H455 C464 0.950 . S
H456 C466 0.950 . S
H457 C468 0.950 . S
H458 C470 0.950 . S
H459 C471 0.950 . S
C460 H452 0.950 . S
C460 C461 1.386 . S
C460 C462 1.391 . S
C461 C460 1.386 . S
C461 C465 1.393 . S
C462 H454 0.950 . S
C462 C460 1.391 . S
C462 C463 1.400 . S
C463 C462 1.400 . S
C463 C464 1.398 . S
C463 C469 1.491 . S
C464 H455 0.950 . S
C464 C463 1.398 . S
C464 C465 1.391 . S
C465 H453 0.950 . S
C465 C461 1.393 . S
C465 C464 1.391 . S
C466 H456 0.950 . S
C466 C467 1.386 . S
C466 C468 1.391 . S
C467 C466 1.386 . S
C467 C471 1.393 . S
C468 H457 0.950 . S
C468 C466 1.391 . S
C468 C469 1.400 . S
C469 C463 1.491 . S
C469 C468 1.400 . S
C469 C470 1.398 . S
C470 H458 0.950 . S
C470 C469 1.398 . S
C470 C471 1.391 . S
C471 H459 0.950 . S
C471 C467 1.393 . S
C471 C470 1.391 . S
H472 C480 0.950 . S
H473 C485 0.950 . S
H474 C482 0.950 . S
H475 C484 0.950 . S
H476 C486 0.950 1_556 S
H477 C488 0.950 . S
H478 C490 0.950 . S
H479 C491 0.950 . S
C480 H472 0.950 . S
C480 C481 1.386 . S
C480 C482 1.391 1_655 S
C481 C480 1.386 . S
C481 C485 1.393 1_655 S
C482 H474 0.950 . S
C482 C480 1.391 1_455 S
C482 C483 1.400 . S
C483 C482 1.400 . S
C483 C484 1.398 . S
C483 C489 1.491 . S
C484 H475 0.950 . S
C484 C483 1.398 . S
C484 C485 1.391 . S
C485 H473 0.950 . S
C485 C481 1.393 1_455 S
C485 C484 1.391 . S
C486 H476 0.950 1_554 S
C486 C487 1.386 . S
C486 C488 1.391 . S
C487 C486 1.386 . S
C487 C491 1.393 . S
C488 H477 0.950 . S
C488 C486 1.391 . S
C488 C489 1.400 . S
C489 C483 1.491 . S
C489 C488 1.400 . S
C489 C490 1.398 . S
C490 H478 0.950 . S
C490 C489 1.398 . S
C490 C491 1.391 . S
C491 H479 0.950 . S
C491 C487 1.393 . S
C491 C490 1.391 . S
H492 C500 0.950 . S
H493 C505 0.950 . S
H494 C502 0.950 . S
H495 C504 0.950 . S
H496 C506 0.950 1_556 S
H497 C508 0.950 . S
H498 C510 0.950 . S
H499 C511 0.950 . S
C500 H492 0.950 . S
C500 C501 1.386 1_545 S
C500 C502 1.391 . S
C501 C500 1.386 1_565 S
C501 C505 1.393 . S
C502 H494 0.950 . S
C502 C500 1.391 . S
C502 C503 1.400 . S
C503 C502 1.400 . S
C503 C504 1.398 . S
C503 C509 1.491 . S
C504 H495 0.950 . S
C504 C503 1.398 . S
C504 C505 1.391 1_545 S
C505 H493 0.950 . S
C505 C501 1.393 . S
C505 C504 1.391 1_565 S
C506 H496 0.950 1_554 S
C506 C507 1.386 . S
C506 C508 1.391 . S
C507 C506 1.386 . S
C507 C511 1.393 . S
C508 H497 0.950 . S
C508 C506 1.391 . S
C508 C509 1.400 . S
C509 C503 1.491 . S
C509 C508 1.400 . S
C509 C510 1.398 . S
C510 H498 0.950 . S
C510 C509 1.398 . S
C510 C511 1.391 . S
C511 H499 0.950 . S
C511 C507 1.393 . S
C511 C510 1.391 . S
H512 C520 0.950 . S
H513 C525 0.950 . S
H514 C522 0.950 . S
H515 C524 0.950 . S
H516 C526 0.950 . S
H517 C528 0.950 . S
H518 C530 0.950 . S
H519 C531 0.950 . S
C520 H512 0.950 . S
C520 C521 1.386 . S
C520 C522 1.391 . S
C521 C520 1.386 . S
C521 C525 1.393 . S
C522 H514 0.950 . S
C522 C520 1.391 . S
C522 C523 1.400 . S
C523 C522 1.400 . S
C523 C524 1.398 . S
C523 C529 1.491 . S
C524 H515 0.950 . S
C524 C523 1.398 . S
C524 C525 1.391 . S
C525 H513 0.950 . S
C525 C521 1.393 . S
C525 C524 1.391 . S
C526 H516 0.950 . S
C526 C527 1.386 . S
C526 C528 1.391 . S
C527 C526 1.386 . S
C527 C531 1.393 . S
C528 H517 0.950 . S
C528 C526 1.391 . S
C528 C529 1.400 . S
C529 C523 1.491 . S
C529 C528 1.400 . S
C529 C530 1.398 . S
C530 H518 0.950 . S
C530 C529 1.398 . S
C530 C531 1.391 . S
C531 H519 0.950 . S
C531 C527 1.393 . S
C531 C530 1.391 . S
H532 C540 0.950 . S
H533 C545 0.950 . S
H534 C542 0.950 . S
H535 C544 0.950 . S
H536 C546 0.950 1_556 S
H537 C548 0.950 . S
H538 C550 0.950 . S
H539 C551 0.950 . S
C540 H532 0.950 . S
C540 C541 1.386 . S
C540 C542 1.391 . S
C541 C540 1.386 . S
C541 C545 1.393 . S
C542 H534 0.950 . S
C542 C540 1.391 . S
C542 C543 1.400 . S
C543 C542 1.400 . S
C543 C544 1.398 . S
C543 C549 1.491 . S
C544 H535 0.950 . S
C544 C543 1.398 . S
C544 C545 1.391 . S
C545 H533 0.950 . S
C545 C541 1.393 . S
C545 C544 1.391 . S
C546 H536 0.950 1_554 S
C546 C547 1.386 . S
C546 C548 1.391 . S
C547 C546 1.386 . S
C547 C551 1.393 . S
C548 H537 0.950 . S
C548 C546 1.391 . S
C548 C549 1.400 . S
C549 C543 1.491 . S
C549 C548 1.400 . S
C549 C550 1.398 . S
C550 H538 0.950 . S
C550 C549 1.398 . S
C550 C551 1.391 . S
C551 H539 0.950 . S
C551 C547 1.393 . S
C551 C550 1.391 . S
H552 C560 0.949 1_655 S
H553 C565 0.950 1_554 S
H554 C562 0.948 1_655 S
H555 C564 0.950 . S
H556 C566 0.950 . S
H557 C568 0.950 . S
H558 C570 0.943 1_655 S
H559 C571 0.950 . S
C560 H552 0.949 1_455 S
C560 C561 1.386 . S
C560 C562 1.392 . S
C561 C560 1.386 . S
C561 C565 1.393 . S
C562 H554 0.948 1_455 S
C562 C560 1.392 . S
C562 C563 1.400 . S
C563 C562 1.400 . S
C563 C564 1.398 . S
C563 C569 1.491 . S
C564 H555 0.950 . S
C564 C563 1.398 . S
C564 C565 1.391 . S
C565 H553 0.950 1_556 S
C565 C561 1.393 . S
C565 C564 1.391 . S
C566 H556 0.950 . S
C566 C567 1.386 . S
C566 C568 1.391 . S
C567 C566 1.386 . S
C567 C571 1.393 . S
C568 H557 0.950 . S
C568 C566 1.391 . S
C568 C569 1.400 . S
C569 C563 1.491 . S
C569 C568 1.400 . S
C569 C570 1.398 . S
C570 H558 0.943 1_455 S
C570 C569 1.398 . S
C570 C571 1.391 . S
C571 H559 0.950 . S
C571 C567 1.393 . S
C571 C570 1.391 . S
H572 C580 0.950 . S
H573 C585 0.950 . S
H574 C582 0.950 . S
H575 C584 0.950 . S
H576 C586 0.950 . S
H577 C588 0.950 . S
H578 C590 0.950 . S
H579 C591 0.950 . S
C580 H572 0.950 . S
C580 C581 1.386 1_565 S
C580 C582 1.391 . S
C581 C580 1.386 1_545 S
C581 C585 1.393 . S
C582 H574 0.950 . S
C582 C580 1.391 . S
C582 C583 1.400 1_565 S
C583 C582 1.400 1_545 S
C583 C584 1.398 . S
C583 C589 1.491 . S
C584 H575 0.950 . S
C584 C583 1.398 . S
C584 C585 1.391 . S
C585 H573 0.950 . S
C585 C581 1.393 . S
C585 C584 1.391 . S
C586 H576 0.950 . S
C586 C587 1.386 . S
C586 C588 1.391 . S
C587 C586 1.386 . S
C587 C591 1.393 1_545 S
C588 H577 0.950 . S
C588 C586 1.391 . S
C588 C589 1.400 . S
C589 C583 1.491 . S
C589 C588 1.400 . S
C589 C590 1.398 1_545 S
C590 H578 0.950 . S
C590 C589 1.398 1_565 S
C590 C591 1.391 . S
C591 H579 0.950 . S
C591 C587 1.393 1_565 S
C591 C590 1.391 . S
H592 C600 0.950 . S
H593 C605 0.950 . S
H594 C602 0.950 . S
H595 C604 0.950 . S
H596 C606 0.950 . S
H597 C608 0.950 . S
H598 C610 0.950 . S
H599 C611 0.950 . S
C600 H592 0.950 . S
C600 C601 1.386 . S
C600 C602 1.391 . S
C601 C600 1.386 . S
C601 C605 1.393 . S
C602 H594 0.950 . S
C602 C600 1.391 . S
C602 C603 1.400 . S
C603 C602 1.400 . S
C603 C604 1.398 . S
C603 C609 1.491 . S
C604 H595 0.950 . S
C604 C603 1.398 . S
C604 C605 1.391 . S
C605 H593 0.950 . S
C605 C601 1.393 . S
C605 C604 1.391 . S
C606 H596 0.950 . S
C606 C607 1.386 . S
C606 C608 1.391 . S
C607 C606 1.386 . S
C607 C611 1.393 . S
C608 H597 0.950 . S
C608 C606 1.391 . S
C608 C609 1.400 . S
C609 C603 1.491 . S
C609 C608 1.400 . S
C609 C610 1.398 . S
C610 H598 0.950 . S
C610 C609 1.398 . S
C610 C611 1.391 . S
C611 H599 0.950 . S
C611 C607 1.393 . S
C611 C610 1.391 . S
H612 C620 0.950 . S
H613 C625 0.950 . S
H614 C622 0.950 . S
H615 C624 0.950 . S
H616 C626 0.950 . S
H617 C628 0.950 . S
H618 C630 0.950 . S
H619 C631 0.950 . S
C620 H612 0.950 . S
C620 C621 1.386 . S
C620 C622 1.391 . S
C621 C620 1.386 . S
C621 C625 1.393 . S
C622 H614 0.950 . S
C622 C620 1.391 . S
C622 C623 1.400 . S
C623 C622 1.400 . S
C623 C624 1.398 . S
C623 C629 1.491 . S
C624 H615 0.950 . S
C624 C623 1.398 . S
C624 C625 1.391 . S
C625 H613 0.950 . S
C625 C621 1.393 . S
C625 C624 1.391 . S
C626 H616 0.950 . S
C626 C627 1.386 . S
C626 C628 1.391 . S
C627 C626 1.386 . S
C627 C631 1.393 . S
C628 H617 0.950 . S
C628 C626 1.391 . S
C628 C629 1.400 . S
C629 C623 1.491 . S
C629 C628 1.400 . S
C629 C630 1.398 . S
C630 H618 0.950 . S
C630 C629 1.398 . S
C630 C631 1.391 . S
C631 H619 0.950 . S
C631 C627 1.393 . S
C631 C630 1.391 . S
H632 C640 0.950 . S
H633 C645 0.950 . S
H634 C642 0.950 . S
H635 C644 0.950 . S
H636 C646 0.950 . S
H637 C648 0.950 . S
H638 C650 0.950 . S
H639 C651 0.950 . S
C640 H632 0.950 . S
C640 C641 1.386 1_455 S
C640 C642 1.391 . S
C641 C640 1.386 1_655 S
C641 C645 1.393 . S
C642 H634 0.950 . S
C642 C640 1.391 . S
C642 C643 1.400 1_455 S
C643 C642 1.400 1_655 S
C643 C644 1.398 . S
C643 C649 1.491 . S
C644 H635 0.950 . S
C644 C643 1.398 . S
C644 C645 1.391 . S
C645 H633 0.950 . S
C645 C641 1.393 . S
C645 C644 1.391 . S
C646 H636 0.950 . S
C646 C647 1.386 . S
C646 C648 1.391 . S
C647 C646 1.386 . S
C647 C651 1.393 1_655 S
C648 H637 0.950 . S
C648 C646 1.391 . S
C648 C649 1.400 . S
C649 C643 1.491 . S
C649 C648 1.400 . S
C649 C650 1.398 1_655 S
C650 H638 0.950 . S
C650 C649 1.398 1_455 S
C650 C651 1.391 . S
C651 H639 0.950 . S
C651 C647 1.393 1_455 S
C651 C650 1.391 . S
H652 C660 0.950 . S
H653 C665 0.950 . S
H654 C662 0.950 . S
H655 C664 0.950 . S
H656 C666 0.950 . S
H657 C668 0.950 . S
H658 C670 0.950 1_545 S
H659 C671 0.950 1_545 S
C660 H652 0.950 . S
C660 C661 1.386 1_545 S
C660 C662 1.391 . S
C661 C660 1.386 1_565 S
C661 C665 1.393 . S
C662 H654 0.950 . S
C662 C660 1.391 . S
C662 C663 1.400 1_545 S
C663 C662 1.400 1_565 S
C663 C664 1.398 . S
C663 C669 1.491 . S
C664 H655 0.950 . S
C664 C663 1.398 . S
C664 C665 1.391 . S
C665 H653 0.950 . S
C665 C661 1.393 . S
C665 C664 1.391 . S
C666 H656 0.950 . S
C666 C667 1.386 . S
C666 C668 1.391 . S
C667 C666 1.386 . S
C667 C671 1.393 . S
C668 H657 0.950 . S
C668 C666 1.391 . S
C668 C669 1.400 . S
C669 C663 1.491 . S
C669 C668 1.400 . S
C669 C670 1.398 . S
C670 H658 0.950 1_565 S
C670 C669 1.398 . S
C670 C671 1.391 . S
C671 H659 0.950 1_565 S
C671 C667 1.393 . S
C671 C670 1.391 . S
H672 C680 0.950 . S
H673 C685 0.950 . S
H674 C682 0.950 . S
H675 C684 0.950 . S
H676 C686 0.950 . S
H677 C688 0.950 . S
H678 C690 0.950 . S
H679 C691 0.950 . S
C680 H672 0.950 . S
C680 C681 1.386 . S
C680 C682 1.391 . S
C681 C680 1.386 . S
C681 C685 1.393 . S
C682 H674 0.950 . S
C682 C680 1.391 . S
C682 C683 1.400 . S
C683 C682 1.400 . S
C683 C684 1.398 . S
C683 C689 1.491 . S
C684 H675 0.950 . S
C684 C683 1.398 . S
C684 C685 1.391 . S
C685 H673 0.950 . S
C685 C681 1.393 . S
C685 C684 1.391 . S
C686 H676 0.950 . S
C686 C687 1.386 . S
C686 C688 1.391 . S
C687 C686 1.386 . S
C687 C691 1.393 . S
C688 H677 0.950 . S
C688 C686 1.391 . S
C688 C689 1.400 . S
C689 C683 1.491 . S
C689 C688 1.400 . S
C689 C690 1.398 . S
C690 H678 0.950 . S
C690 C689 1.398 . S
C690 C691 1.391 . S
C691 H679 0.950 . S
C691 C687 1.393 . S
C691 C690 1.391 . S
H692 C700 0.950 . S
H693 C705 0.950 . S
H694 C702 0.950 . S
H695 C704 0.950 . S
H696 C706 0.950 . S
H697 C708 0.950 . S
H698 C710 0.950 . S
H699 C711 0.950 . S
C700 H692 0.950 . S
C700 C701 1.386 . S
C700 C702 1.391 . S
C701 C700 1.386 . S
C701 C705 1.393 . S
C702 H694 0.950 . S
C702 C700 1.391 . S
C702 C703 1.400 . S
C703 C702 1.400 . S
C703 C704 1.398 . S
C703 C709 1.491 . S
C704 H695 0.950 . S
C704 C703 1.398 . S
C704 C705 1.391 . S
C705 H693 0.950 . S
C705 C701 1.393 . S
C705 C704 1.391 . S
C706 H696 0.950 . S
C706 C707 1.386 . S
C706 C708 1.391 . S
C707 C706 1.386 . S
C707 C711 1.393 . S
C708 H697 0.950 . S
C708 C706 1.391 . S
C708 C709 1.400 . S
C709 C703 1.491 . S
C709 C708 1.400 . S
C709 C710 1.398 . S
C710 H698 0.950 . S
C710 C709 1.398 . S
C710 C711 1.391 . S
C711 H699 0.950 . S
C711 C707 1.393 . S
C711 C710 1.391 . S
C241 C61 1.801 1_545 S
C247 C74 1.932 . S
C267 C114 1.956 . S
C261 C70 1.836 . S
C287 C154 1.959 . S
C281 C43 1.828 . S
C307 C194 1.950 1_455 S
C301 C52 1.795 . S
C327 C87 1.933 . S
C321 C25 1.795 . S
C341 C34 1.815 . S
C347 C127 1.959 . S
C361 C7 1.836 . S
C367 C167 1.962 . S
C381 C16 1.793 . S
C387 C207 1.949 1_655 S
C407 C98 0.419 . S
C401 C50 0.417 1_455 S
C427 C138 0.490 . S
C421 C59 0.456 1_545 S
C447 C178 0.469 . S
C441 C67 0.422 . S
C461 C41 0.425 . S
C467 C218 0.418 . S
C481 C14 0.403 . S
C487 C81 0.425 . S
C507 C121 0.425 . S
C501 C23 0.422 . S
C527 C161 0.455 . S
C521 C31 0.460 . S
C541 C5 0.412 . S
C547 C201 0.424 . S
C561 C49 2.033 1_455 S
C567 C75 2.278 . S
C581 C58 1.995 1_545 S
C587 C115 2.238 . S
C607 C155 2.215 . S
C601 C68 1.976 . S
C627 C195 2.260 . S
C621 C40 2.018 . S
C641 C13 2.017 . S
C647 C94 2.291 . S
C667 C134 2.239 . S
C661 C22 1.976 . S
C687 C174 2.219 . S
C681 C32 1.976 . S
C701 C4 2.001 . S
C707 C214 2.263 . S
