# Generated by pormake.
# Topology anh, (6,3)-cn, num edge types: 1
# Building blocks:
#     Node 0, Type 0, BuildingBlock: BETDIP_clean_sbu_0, # of connection points: 6
#     Node 1, Type 0, BuildingBlock: BETDIP_clean_sbu_0, # of connection points: 6
#     Node 2, Type 0, BuildingBlock: BETDIP_clean_sbu_0, # of connection points: 6
#     Node 3, Type 1, BuildingBlock: CUQRIR_clean_linker_1, # of connection points: 3
#     Node 4, Type 1, BuildingBlock: CUQRIR_clean_linker_1, # of connection points: 3
#     Node 5, Type 1, BuildingBlock: CUQRIR_clean_linker_1, # of connection points: 3
#     Node 6, Type 1, BuildingBlock: CUQRIR_clean_linker_1, # of connection points: 3
#     Node 7, Type 1, BuildingBlock: CUQRIR_clean_linker_1, # of connection points: 3
#     Node 8, Type 1, BuildingBlock: CUQRIR_clean_linker_1, # of connection points: 3
#     Edge 9, Type (0, 1), BuildingBlock: KIFKEQ_clean_linker_1, # of connection points: 2
#     Edge 10, Type (0, 1), BuildingBlock: KIFKEQ_clean_linker_1, # of connection points: 2
#     Edge 11, Type (0, 1), BuildingBlock: KIFKEQ_clean_linker_1, # of connection points: 2
#     Edge 12, Type (0, 1), BuildingBlock: KIFKEQ_clean_linker_1, # of connection points: 2
#     Edge 13, Type (0, 1), BuildingBlock: KIFKEQ_clean_linker_1, # of connection points: 2
#     Edge 14, Type (0, 1), BuildingBlock: KIFKEQ_clean_linker_1, # of connection points: 2
#     Edge 15, Type (0, 1), BuildingBlock: KIFKEQ_clean_linker_1, # of connection points: 2
#     Edge 16, Type (0, 1), BuildingBlock: KIFKEQ_clean_linker_1, # of connection points: 2
#     Edge 17, Type (0, 1), BuildingBlock: KIFKEQ_clean_linker_1, # of connection points: 2
#     Edge 18, Type (0, 1), BuildingBlock: KIFKEQ_clean_linker_1, # of connection points: 2
#     Edge 19, Type (0, 1), BuildingBlock: KIFKEQ_clean_linker_1, # of connection points: 2
#     Edge 20, Type (0, 1), BuildingBlock: KIFKEQ_clean_linker_1, # of connection points: 2
#     Edge 21, Type (0, 1), BuildingBlock: KIFKEQ_clean_linker_1, # of connection points: 2
#     Edge 22, Type (0, 1), BuildingBlock: KIFKEQ_clean_linker_1, # of connection points: 2
#     Edge 23, Type (0, 1), BuildingBlock: KIFKEQ_clean_linker_1, # of connection points: 2
#     Edge 24, Type (0, 1), BuildingBlock: KIFKEQ_clean_linker_1, # of connection points: 2
#     Edge 25, Type (0, 1), BuildingBlock: KIFKEQ_clean_linker_1, # of connection points: 2
#     Edge 26, Type (0, 1), BuildingBlock: KIFKEQ_clean_linker_1, # of connection points: 2
# Relax obj value: 0.293
# Max RMSD: 0.205
# Mean RMSD: 0.154
data_MOF--net-anh--node1-BETDIP_clean_sbu_0--node2-CUQRIR_clean_linker_1--edge1-KIFKEQ_clean_linker_1
_symmetry_space_group_name_H-M    P1
_symmetry_Int_Tables_number       1
_symmetry_cell_setting            triclinic
loop_
_symmetry_equiv_pos_as_xyz
'x, y, z'
_cell_length_a     29.087824
_cell_length_b     29.085277
_cell_length_c     47.291612
_cell_angle_alpha  86.564885
_cell_angle_beta   90.98736
_cell_angle_gamma 119.71164
loop_
_atom_site_label
_atom_site_type_symbol
_atom_site_fract_x
_atom_site_fract_y
_atom_site_fract_z
_atom_type_partial_charge
Tb0 Tb 0.18539 0.63182 0.16017 0.0
Tb1 Tb 0.13794 0.52062 0.15929 0.0
C2 C 0.23335 0.72806 0.17123 0.0
C3 C 0.27499 0.78162 0.16121 0.0
C4 C 0.32144 0.80821 0.1768 0.0
C5 C 0.35383 0.86307 0.17258 0.0
C6 C 0.33976 0.89221 0.15302 0.0
C7 C 0.29586 0.86514 0.13577 0.0
C8 C 0.2639 0.81028 0.13969 0.0
C9 C 0.16523 0.59737 0.1085 0.0
C10 C 0.26421 0.58141 0.15378 0.0
C11 C 1.08204 0.42347 0.15168 0.0
C12 C 1.03088 0.38402 0.16484 0.0
C13 C 0.98403 0.36811 0.14964 0.0
C14 C 0.93513 0.34187 0.16372 0.0
C15 C 0.93246 0.33097 0.19319 0.0
C16 C 0.97882 0.34217 0.20786 0.0
C17 C 1.02766 0.36836 0.19381 0.0
C18 C 0.1561 0.55347 0.21222 0.0
C19 C 1.06022 0.5727 0.15602 0.0
O20 O 0.24634 0.69381 0.18239 0.0
O21 O 0.19158 0.70595 0.15553 0.0
O22 O 0.183 0.58129 0.12861 0.0
O23 O 0.16241 0.63771 0.11607 0.0
O24 O 0.25975 0.62317 0.16094 0.0
O25 O 0.21952 0.53736 0.14829 0.0
O26 O 1.08108 0.46056 0.13506 0.0
O27 O 0.12245 0.44292 0.16858 0.0
O28 O 0.13839 0.57073 0.19211 0.0
O29 O 0.16262 0.51643 0.20285 0.0
O30 O 1.06628 0.53135 0.15058 0.0
O31 O 1.10228 0.61505 0.16537 0.0
H32 H 0.33067 0.78732 0.19367 0.0
H33 H 0.3873 0.88317 0.18637 0.0
H34 H 0.2844 0.88679 0.1205 0.0
H35 H 0.22835 0.79114 0.12725 0.0
H36 H 0.98542 0.37928 0.12726 0.0
H37 H 0.89993 0.33371 0.15189 0.0
H38 H 0.97759 0.33319 0.2305 0.0
H39 H 1.06297 0.37923 0.20612 0.0
Tb40 Tb 0.70641 1.07571 0.49849 0.0
Tb41 Tb 0.64367 0.12929 0.49563 0.0
C42 C 0.74246 1.01776 0.51708 0.0
C43 C 0.71874 0.96351 0.52979 0.0
C44 C 0.74232 0.9538 0.55369 0.0
C45 C 0.72061 0.90291 0.56653 0.0
C46 C 0.67473 0.86065 0.5557 0.0
C47 C 0.65015 0.87081 0.53219 0.0
C48 C 0.67196 0.92196 0.51935 0.0
C49 C 0.68926 0.10296 0.44747 0.0
C50 C 0.57458 1.00219 0.49477 0.0
C51 C 0.60734 0.18878 0.47972 0.0
C52 C 0.63251 0.24144 0.46456 0.0
C53 C 0.66821 0.25349 0.44195 0.0
C54 C 0.69998 0.30588 0.43149 0.0
C55 C 0.69728 0.34729 0.44382 0.0
C56 C 0.65794 0.33433 0.46466 0.0
C57 C 0.62588 0.28186 0.4749 0.0
C58 C 0.65565 0.09843 0.54788 0.0
C59 C 0.77581 0.20129 0.48854 0.0
O60 O 0.73751 1.05105 0.53244 0.0
O61 O 0.73385 1.02342 0.49013 0.0
O62 O 0.6579 0.08416 0.46812 0.0
O63 O 0.73403 0.10568 0.45431 0.0
O64 O 0.62154 1.00455 0.49975 0.0
O65 O 0.57414 1.04794 0.49133 0.0
O66 O 0.60256 0.14971 0.4653 0.0
O67 O 0.62435 0.1873 0.5054 0.0
O68 O 0.69059 0.11901 0.52834 0.0
O69 O 0.61282 0.09711 0.53854 0.0
O70 O 0.72801 0.19777 0.48524 0.0
O71 O 0.77706 0.15703 0.49615 0.0
H72 H 0.77811 0.98554 0.56219 0.0
H73 H 0.74128 0.89631 0.58418 0.0
H74 H 0.61481 0.83905 0.52339 0.0
H75 H 0.65271 0.92881 0.5011 0.0
H76 H 0.67401 0.22297 0.43354 0.0
H77 H 0.7293 0.31429 0.41521 0.0
H78 H 0.65494 0.36499 0.47499 0.0
H79 H 0.5985 0.2734 0.49229 0.0
Tb80 Tb 0.66497 0.61281 0.8402 0.0
Tb81 Tb 0.77725 0.67412 0.82161 0.0
C82 C 0.58579 0.57392 0.8726 0.0
C83 C 0.5402 0.57474 0.88432 0.0
C84 C 0.51141 0.53674 0.90602 0.0
C85 C 0.46424 0.53134 0.91603 0.0
C86 C 0.44506 0.56426 0.90463 0.0
C87 C 0.47571 0.60443 0.88377 0.0
C88 C 0.52302 0.60949 0.87355 0.0
C89 C 0.67903 0.61665 0.78563 0.0
C90 C 0.71811 0.74296 0.82455 0.0
C91 C 0.86373 0.70636 0.79586 0.0
C92 C 0.88469 0.67628 0.78211 0.0
C93 C 0.85116 0.63269 0.76635 0.0
C94 C 0.86566 0.59521 0.76038 0.0
C95 C 0.91351 0.60036 0.77046 0.0
C96 C 0.94967 0.64701 0.78324 0.0
C97 C 0.93527 0.68478 0.78906 0.0
C98 C 0.76099 0.6625 0.87748 0.0
C99 C 0.7184 0.54337 0.82583 0.0
O100 O 0.63298 0.61038 0.87998 0.0
O101 O 0.58358 0.56189 0.84616 0.0
O102 O 0.70437 0.65348 0.80202 0.0
O103 O 0.6401 0.57686 0.79952 0.0
O104 O 0.67575 0.69661 0.83387 0.0
O105 O 0.7629 0.74321 0.81819 0.0
O106 O 0.82251 0.70601 0.78415 0.0
O107 O 0.85817 0.69804 0.82339 0.0
O108 O 0.7372 0.62831 0.85949 0.0
O109 O 0.79715 0.7054 0.8642 0.0
O110 O 0.75705 0.58946 0.81423 0.0
O111 O 0.68052 0.5444 0.84088 0.0
H112 H 0.52437 0.50964 0.9145 0.0
H113 H 0.44153 0.49932 0.93162 0.0
H114 H 0.46245 0.63092 0.87481 0.0
H115 H 0.54526 0.63928 0.85684 0.0
H116 H 0.81186 0.62493 0.76084 0.0
H117 H 0.83741 0.55967 0.75032 0.0
H118 H 0.98667 0.65162 0.79141 0.0
H119 H 0.96172 0.7181 0.80122 0.0
C120 C 0.55469 0.25906 0.24149 0.0
N121 N 0.58643 0.26664 0.26403 0.0
N122 N 0.50346 0.22377 0.24821 0.0
C123 C 0.57522 0.27449 0.21138 0.0
C124 C 0.50496 0.21587 0.2767 0.0
N125 N 0.55532 0.23941 0.28614 0.0
C126 C 0.45713 0.17754 0.29431 0.0
H127 H 0.54494 0.27591 0.19734 0.0
H128 H 0.58461 0.24462 0.20383 0.0
H129 H 0.61191 0.31372 0.21016 0.0
H130 H 0.44738 0.13624 0.29104 0.0
H131 H 0.42251 0.18149 0.28743 0.0
H132 H 0.46428 0.18488 0.31716 0.0
C133 C 0.81581 0.62453 0.55326 0.0
N134 N 0.79846 0.62675 0.57914 0.0
N135 N 0.85202 0.60793 0.55549 0.0
C136 C 0.79544 0.63584 0.52565 0.0
C137 C 0.85579 0.60048 0.58394 0.0
N138 N 0.82363 0.61252 0.59818 0.0
C139 C 0.88855 0.57893 0.59782 0.0
H140 H 0.7793 0.60064 0.51271 0.0
H141 H 0.82848 0.66948 0.51356 0.0
H142 H 0.76456 0.64684 0.52859 0.0
H143 H 0.91901 0.58165 0.58294 0.0
H144 H 0.86224 0.53684 0.60503 0.0
H145 H 0.908 0.60107 0.6168 0.0
C146 C 1.03917 0.37465 0.89438 0.0
N147 N 1.05747 0.38863 0.92075 0.0
N148 N 0.99354 0.37571 0.88995 0.0
C149 C 1.07142 0.37055 0.87111 0.0
C150 C 0.98322 0.38794 0.91544 0.0
N151 N 1.02189 0.39576 0.93404 0.0
C152 C 0.94028 0.40112 0.9205 0.0
H153 H 1.10202 0.41091 0.86326 0.0
H154 H 1.04589 0.34956 0.85321 0.0
H155 H 1.09204 0.34922 0.87946 0.0
H156 H 0.90401 0.37426 0.90904 0.0
H157 H 0.95367 0.44237 0.91218 0.0
H158 H 0.93102 0.39778 0.94345 0.0
C159 C 0.17676 0.59972 0.46809 0.0
N160 N 0.13976 0.56542 0.44926 0.0
N161 N 0.21872 0.64461 0.45471 0.0
C162 C 0.17063 0.59122 0.49964 0.0
C163 C 0.2057 0.63549 0.42706 0.0
N164 N 0.15905 0.58947 0.42363 0.0
C165 C 0.24111 0.67055 0.40278 0.0
H166 H 0.12823 0.57179 0.50595 0.0
H167 H 0.19317 0.62941 0.50991 0.0
H168 H 0.18644 0.56494 0.50711 0.0
H169 H 0.23851 0.64696 0.38462 0.0
H170 H 0.28307 0.69275 0.40925 0.0
H171 H 0.2284 0.69949 0.39557 0.0
C172 C 0.71486 0.14153 0.80212 0.0
N173 N 0.70864 0.10284 0.78397 0.0
N174 N 0.71197 0.1837 0.78841 0.0
C175 C 0.72407 0.13841 0.83324 0.0
C176 C 0.70362 0.16861 0.76127 0.0
N177 N 0.70133 0.12093 0.75849 0.0
C178 C 0.69871 0.20186 0.73693 0.0
H179 H 0.70187 0.09667 0.84191 0.0
H180 H 0.7122 0.16318 0.84467 0.0
H181 H 0.76688 0.15338 0.83669 0.0
H182 H 0.73889 0.23039 0.72843 0.0
H183 H 0.68026 0.2247 0.74409 0.0
H184 H 0.675 0.17766 0.71943 0.0
C185 C 0.66805 0.58527 0.13249 0.0
N186 N 0.70682 0.58807 0.11439 0.0
N187 N 0.62691 0.5875 0.11824 0.0
C188 C 0.66867 0.57744 0.16405 0.0
C189 C 0.64289 0.59232 0.09083 0.0
N190 N 0.68976 0.59252 0.08839 0.0
C191 C 0.61262 0.59804 0.06591 0.0
H192 H 0.68637 0.55216 0.17004 0.0
H193 H 0.62804 0.55922 0.17313 0.0
H194 H 0.69317 0.6166 0.17307 0.0
H195 H 0.58949 0.61704 0.07186 0.0
H196 H 0.58477 0.55805 0.05866 0.0
H197 H 0.63923 0.62186 0.04787 0.0
H198 H 0.37042 0.66486 0.16046 0.0
H199 H 0.2853 0.50202 0.13893 0.0
H200 H 0.45463 0.66571 0.15412 0.0
H201 H 0.36824 0.50208 0.1332 0.0
H202 H 0.52532 0.51606 0.10357 0.0
H203 H 0.44293 0.51607 0.11187 0.0
H204 H 0.52635 0.65167 0.16235 0.0
H205 H 0.60966 0.6519 0.15309 0.0
C206 C 0.36903 0.62887 0.15443 0.0
C207 C 0.31888 0.58341 0.15024 0.0
C208 C 0.41837 0.62917 0.15084 0.0
C209 C 0.42118 0.58404 0.14275 0.0
C210 C 0.37067 0.53868 0.13881 0.0
C211 C 0.32168 0.53844 0.14238 0.0
C212 C 0.52644 0.54565 0.11684 0.0
C213 C 0.57584 0.58342 0.12778 0.0
C214 C 0.47803 0.54575 0.12181 0.0
C215 C 0.47499 0.58384 0.13812 0.0
C216 C 0.52464 0.62139 0.14948 0.0
C217 C 0.57338 0.62118 0.14448 0.0
H218 H 0.88182 0.22726 0.49907 0.0
H219 H 0.79554 0.30173 0.46494 0.0
H220 H 0.96538 0.3103 0.49033 0.0
H221 H 0.87956 0.38497 0.45588 0.0
H222 H 1.04089 0.52992 0.42464 0.0
H223 H 0.95788 0.44654 0.43342 0.0
H224 H 1.03424 0.39637 0.49692 0.0
H225 H 0.11752 0.47959 0.48757 0.0
C226 C 0.87997 0.26117 0.48968 0.0
C227 C 0.82944 0.25542 0.48301 0.0
C228 C 0.92915 0.31016 0.48464 0.0
C229 C 0.93204 0.35745 0.47213 0.0
C230 C 0.88138 0.35132 0.46531 0.0
C231 C 0.83207 0.30253 0.4707 0.0
C232 C 1.04074 0.50133 0.44041 0.0
C233 C 1.08832 0.51396 0.45515 0.0
C234 C 0.99172 0.45239 0.44584 0.0
C235 C 0.98626 0.41165 0.46625 0.0
C236 C 1.03421 0.42442 0.48086 0.0
C237 C 1.08315 0.47364 0.47562 0.0
H238 H 0.63021 0.76069 0.82066 0.0
H239 H 0.8002 0.8488 0.81649 0.0
H240 H 0.62758 0.84357 0.81123 0.0
H241 H 0.79778 0.9315 0.80767 0.0
H242 H 0.78271 0.08516 0.81342 0.0
H243 H 0.78441 1.00199 0.82323 0.0
H244 H 0.63768 0.91737 0.77914 0.0
H245 H 0.63651 1.00079 0.7692 0.0
C246 C 0.6674 0.79746 0.81796 0.0
C247 C 0.71549 0.7958 0.81966 0.0
C248 C 0.66593 0.84604 0.81226 0.0
C249 C 0.71244 0.8968 0.80844 0.0
C250 C 0.76043 0.89498 0.81055 0.0
C251 C 0.76186 0.84641 0.81563 0.0
C252 C 0.75044 1.04903 0.80582 0.0
C253 C 0.70939 1.05171 0.79034 0.0
C254 C 0.75156 1.00032 0.81133 0.0
C255 C 0.71118 0.95039 0.80229 0.0
C256 C 0.66985 0.95325 0.78703 0.0
C257 C 0.6693 1.00214 0.78101 0.0
H258 H 0.96355 0.49702 0.13227 0.0
H259 H 1.03252 0.64973 0.16749 0.0
H260 H 0.88162 0.49983 0.12312 0.0
H261 H 0.95122 0.65307 0.15826 0.0
H262 H 0.78421 0.63959 0.15461 0.0
H263 H 0.86471 0.6348 0.165 0.0
H264 H 0.82595 0.52499 0.09953 0.0
H265 H 0.74502 0.52886 0.08993 0.0
C266 C 0.96175 0.53144 0.13827 0.0
C267 C 1.00669 0.57293 0.15098 0.0
C268 C 0.91384 0.53339 0.13273 0.0
C269 C 0.90709 0.57686 0.13963 0.0
C270 C 0.95215 0.61808 0.15256 0.0
C271 C 1.00005 0.61626 0.1579 0.0
C272 C 0.79222 0.61394 0.14244 0.0
C273 C 0.75616 0.58493 0.12108 0.0
C274 C 0.83976 0.61148 0.14827 0.0
C275 C 0.85463 0.57946 0.13335 0.0
C276 C 0.81802 0.55015 0.11215 0.0
C277 C 0.77077 0.55293 0.1062 0.0
H278 H 0.55306 0.8948 0.499 0.0
H279 H 0.47205 0.98293 0.48188 0.0
H280 H 0.47044 0.81179 0.49174 0.0
H281 H 0.38976 0.90083 0.4751 0.0
H282 H 0.246 0.74904 0.44344 0.0
H283 H 0.32764 0.83004 0.45306 0.0
H284 H 0.38622 0.73718 0.49856 0.0
H285 H 0.30375 0.65551 0.48814 0.0
C286 C 0.51789 0.89717 0.49382 0.0
C287 C 0.52162 0.94798 0.49121 0.0
C288 C 0.46918 0.84837 0.48964 0.0
C289 C 0.42038 0.84654 0.48238 0.0
C290 C 0.42451 0.89763 0.48004 0.0
C291 C 0.47296 0.94614 0.48426 0.0
C292 C 0.27566 0.74539 0.45595 0.0
C293 C 0.26577 0.69379 0.46517 0.0
C294 C 0.32384 0.79303 0.46167 0.0
C295 C 0.36663 0.79326 0.47699 0.0
C296 C 0.35636 0.74131 0.48656 0.0
C297 C 0.30771 0.69333 0.48088 0.0
H298 H 0.67203 0.44662 0.85931 0.0
H299 H 0.76011 0.51425 0.78161 0.0
H300 H 0.67202 0.36349 0.85269 0.0
H301 H 0.75955 0.43134 0.77441 0.0
H302 H 0.78519 0.28681 0.77174 0.0
H303 H 0.78648 0.36935 0.78079 0.0
H304 H 0.6484 0.28153 0.83473 0.0
H305 H 0.6479 0.19883 0.82556 0.0
C306 C 0.69163 0.44428 0.84064 0.0
C307 C 0.71721 0.48963 0.82145 0.0
C308 C 0.6915 0.39547 0.83666 0.0
C309 C 0.71649 0.38813 0.81299 0.0
C310 C 0.74072 0.43331 0.79346 0.0
C311 C 0.74116 0.48211 0.7976 0.0
C312 C 0.75538 0.28476 0.78595 0.0
C313 C 0.71708 0.23441 0.79813 0.0
C314 C 0.75557 0.33305 0.791 0.0
C315 C 0.71718 0.33484 0.80853 0.0
C316 C 0.67945 0.28432 0.82126 0.0
C317 C 0.67923 0.2358 0.81612 0.0
H318 H 0.66762 0.82249 0.61084 0.0
H319 H 0.64618 0.77494 0.52462 0.0
H320 H 0.6749 0.74467 0.62607 0.0
H321 H 0.65286 0.69755 0.53977 0.0
H322 H 0.81642 0.7098 0.60817 0.0
H323 H 0.75808 0.74698 0.61186 0.0
H324 H 0.63606 0.61558 0.56824 0.0
H325 H 0.69525 0.57824 0.56517 0.0
C326 C 0.66239 0.79436 0.59535 0.0
C327 C 0.65832 0.80572 0.5664 0.0
C328 C 0.66629 0.74975 0.6041 0.0
C329 C 0.66603 0.71601 0.58398 0.0
C330 C 0.65337 0.72288 0.5558 0.0
C331 C 0.64965 0.76752 0.54705 0.0
C332 C 0.7765 0.68826 0.60027 0.0
C333 C 0.76047 0.64255 0.5856 0.0
C334 C 0.74279 0.70903 0.60258 0.0
C335 C 0.69259 0.68441 0.59002 0.0
C336 C 0.67468 0.63555 0.57786 0.0
C337 C 0.7084 0.61449 0.57589 0.0
H338 H 0.99577 0.58589 0.75458 0.0
H339 H 0.84582 0.51014 0.79893 0.0
H340 H 1.01265 0.51547 0.77366 0.0
H341 H 0.86175 0.44058 0.81805 0.0
H342 H 0.90277 0.32825 0.86022 0.0
H343 H 0.87962 0.36883 0.81929 0.0
H344 H 1.03533 0.50769 0.8214 0.0
H345 H 1.05746 0.46687 0.86137 0.0
C346 C 0.96559 0.55305 0.76748 0.0
C347 C 0.91904 0.55272 0.77499 0.0
C348 C 0.97515 0.51286 0.77851 0.0
C349 C 0.93886 0.47266 0.79774 0.0
C350 C 0.89028 0.4701 0.80301 0.0
C351 C 0.88077 0.50991 0.79188 0.0
C352 C 0.93206 0.36673 0.85115 0.0
C353 C 0.98182 0.3945 0.86355 0.0
C354 C 0.91906 0.39001 0.82786 0.0
C355 C 0.95567 0.44158 0.81695 0.0
C356 C 1.00649 0.46757 0.82858 0.0
C357 C 1.01923 0.4444 0.85165 0.0
H358 H 0.29067 0.94979 0.15924 0.0
H359 H 0.44523 0.96478 0.15147 0.0
H360 H 0.33083 1.03888 0.17638 0.0
H361 H 0.48562 1.05456 0.16779 0.0
H362 H 0.51256 0.13729 0.24992 0.0
H363 H 0.47499 1.06591 0.21817 0.0
H364 H 0.39564 0.13982 0.17315 0.0
H365 H 0.43386 0.21243 0.20614 0.0
C366 C 0.33343 0.97312 0.15997 0.0
C367 C 0.36497 0.95028 0.15457 0.0
C368 C 0.35637 1.02417 0.16973 0.0
C369 C 0.41112 1.05299 0.17404 0.0
C370 C 0.44309 1.03257 0.16522 0.0
C371 C 0.42015 0.98136 0.15585 0.0
C372 C 0.48623 0.13777 0.23364 0.0
C373 C 0.47488 0.1794 0.23086 0.0
C374 C 0.46567 0.09758 0.215 0.0
C375 C 0.4334 0.09793 0.19274 0.0
C376 C 0.42085 0.13898 0.19005 0.0
C377 C 0.44205 0.17998 0.20892 0.0
H378 H 0.69383 0.44049 0.44141 0.0
H379 H 0.80248 0.3802 0.43911 0.0
H380 H 0.7641 0.52285 0.45908 0.0
H381 H 0.87218 0.4622 0.45747 0.0
H382 H 0.89781 0.65536 0.50451 0.0
H383 H 0.8811 0.60644 0.46143 0.0
H384 H 0.82427 0.46082 0.51307 0.0
H385 H 0.8347 0.5082 0.55531 0.0
C386 C 0.73325 0.44565 0.4434 0.0
C387 C 0.74193 0.40274 0.44044 0.0
C388 C 0.77369 0.4931 0.45319 0.0
C389 C 0.82288 0.4978 0.46024 0.0
C390 C 0.83428 0.4589 0.45235 0.0
C391 C 0.79412 0.41184 0.44208 0.0
C392 C 0.88293 0.61305 0.50654 0.0
C393 C 0.8656 0.5852 0.53308 0.0
C394 C 0.87407 0.58538 0.48198 0.0
C395 C 0.85114 0.53009 0.48412 0.0
C396 C 0.84242 0.50365 0.51099 0.0
C397 C 0.8488 0.53085 0.53528 0.0
H398 H 0.37167 0.56923 0.86966 0.0
H399 H 0.39432 0.52981 0.95655 0.0
H400 H 0.27797 0.533 0.87953 0.0
H401 H 0.29945 0.49097 0.96584 0.0
H402 H 1.11688 0.49266 0.91022 0.0
H403 H 0.21352 0.54527 0.9116 0.0
H404 H 0.21969 0.40603 0.94325 0.0
H405 H 0.1223 0.35348 0.94168 0.0
C406 C 0.35714 0.55423 0.89105 0.0
C407 C 0.39062 0.55196 0.9122 0.0
C408 C 0.30328 0.53309 0.89663 0.0
C409 C 0.28169 0.50873 0.92334 0.0
C410 C 0.31529 0.50898 0.94498 0.0
C411 C 0.36944 0.53105 0.93957 0.0
C412 C 0.13917 0.47398 0.91815 0.0
C413 C 1.11308 0.41956 0.92594 0.0
C414 C 0.19408 0.50378 0.91884 0.0
C415 C 0.22375 0.47956 0.92747 0.0
C416 C 0.19743 0.42558 0.9368 0.0
C417 C 0.14217 0.39556 0.93584 0.0
H418 H 0.92078 0.37247 0.24074 0.0
H419 H 0.8325 0.25459 0.18044 0.0
H420 H 0.8382 0.35454 0.26322 0.0
H421 H 0.74991 0.2376 0.20248 0.0
H422 H 0.61091 0.19063 0.25872 0.0
H423 H 0.69736 0.20205 0.24677 0.0
H424 H 0.76524 0.37209 0.24744 0.0
H425 H 0.67805 0.35973 0.26033 0.0
C426 C 0.88372 0.34192 0.23268 0.0
C427 C 0.88286 0.31471 0.2089 0.0
C428 C 0.83658 0.3322 0.24534 0.0
C429 C 0.78784 0.29493 0.23452 0.0
C430 C 0.78703 0.26622 0.21144 0.0
C431 C 0.83415 0.27612 0.1987 0.0
C432 C 0.64484 0.23021 0.2571 0.0
C433 C 0.63875 0.2744 0.26066 0.0
C434 C 0.69397 0.23683 0.25 0.0
C435 C 0.73778 0.28791 0.246 0.0
C436 C 0.73211 0.33222 0.2507 0.0
C437 C 0.68264 0.32543 0.25794 0.0
H438 H 0.18101 0.52135 0.08771 0.0
H439 H 1.09798 0.60849 0.07155 0.0
H440 H 0.14175 0.47154 0.04598 0.0
H441 H 1.05626 0.55688 0.03045 0.0
H442 H 1.03214 0.35686 0.98489 0.0
H443 H 1.06294 0.40476 0.0282 0.0
H444 H 1.0723 0.54375 0.98383 0.0
H445 H 1.03896 0.49421 0.94124 0.0
C446 C 0.15411 0.52962 0.07519 0.0
C447 C 0.14274 0.56889 0.08264 0.0
C448 C 0.13103 0.50066 0.05144 0.0
C449 C 1.09528 0.50968 0.03485 0.0
C450 C 1.08406 0.54924 0.04243 0.0
C451 C 1.10784 0.57877 0.06599 0.0
C452 C 1.03949 0.39718 0.98492 0.0
C453 C 1.0322 0.42166 0.96024 0.0
C454 C 1.0579 0.425 0.00946 0.0
C455 C 1.07073 0.47849 0.00955 0.0
C456 C 1.06207 0.50247 0.98482 0.0
C457 C 1.04282 0.47422 0.96043 0.0
H458 H 0.5918 1.06259 0.42694 0.0
H459 H 0.75346 0.18396 0.40873 0.0
H460 H 0.56148 0.09796 0.38797 0.0
H461 H 0.72278 0.2196 0.36856 0.0
H462 H 0.6276 0.29797 0.3245 0.0
H463 H 0.66634 0.26535 0.36188 0.0
H464 H 0.56667 0.10557 0.33634 0.0
H465 H 0.52862 0.13795 0.29985 0.0
C466 C 0.62103 0.09638 0.4141 0.0
C467 C 0.67493 0.12049 0.42066 0.0
C468 C 0.60363 0.11665 0.39175 0.0
C469 C 0.6397 0.16156 0.37521 0.0
C470 C 0.69413 0.18507 0.38114 0.0
C471 C 0.71176 0.16435 0.40372 0.0
C472 C 0.61349 0.25585 0.32753 0.0
C473 C 0.57339 0.22019 0.31026 0.0
C474 C 0.63617 0.23733 0.34843 0.0
C475 C 0.61922 0.18286 0.3521 0.0
C476 C 0.57975 0.14759 0.33444 0.0
C477 C 0.55722 0.16601 0.31382 0.0
H478 H 0.74236 0.69711 0.74803 0.0
H479 H 0.66381 0.52696 0.76252 0.0
H480 H 0.78266 0.69081 0.70452 0.0
H481 H 0.70487 0.52047 0.71944 0.0
H482 H 0.73324 0.53544 0.62132 0.0
H483 H 0.69902 0.53328 0.66849 0.0
H484 H 0.84887 0.66887 0.68832 0.0
H485 H 0.88207 0.67107 0.64053 0.0
C486 C 0.73386 0.65843 0.74183 0.0
C487 C 0.70011 0.61257 0.75845 0.0
C488 C 0.75727 0.65479 0.71715 0.0
C489 C 0.74743 0.60516 0.70872 0.0
C490 C 0.71298 0.55921 0.72527 0.0
C491 C 0.68932 0.56289 0.74983 0.0
C492 C 0.75916 0.5634 0.63628 0.0
C493 C 0.81016 0.60302 0.62778 0.0
C494 C 0.73971 0.56244 0.66318 0.0
C495 C 0.77103 0.60136 0.68201 0.0
C496 C 0.82354 0.63891 0.67407 0.0
C497 C 0.84292 0.63975 0.64707 0.0
H498 H 0.58389 1.03156 0.58798 0.0
H499 H 0.74819 0.15035 0.57798 0.0
H500 H 0.5951 1.0236 0.6387 0.0
H501 H 0.7593 0.1463 0.62916 0.0
H502 H 0.77757 0.12917 0.72309 0.0
H503 H 0.76847 0.1154 0.67232 0.0
H504 H 0.59986 1.0549 0.68076 0.0
H505 H 0.60982 1.06543 0.73137 0.0
C506 C 0.62259 1.05628 0.59675 0.0
C507 C 0.66502 0.09165 0.57878 0.0
C508 C 0.62912 1.05232 0.6262 0.0
C509 C 0.67808 0.08494 0.63913 0.0
C510 C 0.72095 0.11961 0.62077 0.0
C511 C 0.71465 0.12238 0.59112 0.0
C512 C 0.73839 0.11042 0.7141 0.0
C513 C 0.69426 0.09714 0.73143 0.0
C514 C 0.73303 0.10379 0.68465 0.0
C515 C 0.68337 0.08486 0.67134 0.0
C516 C 0.63892 1.06879 0.68933 0.0
C517 C 0.64431 1.07439 0.71876 0.0
H518 H 0.68832 0.57284 0.90813 0.0
H519 H 0.82349 0.72708 0.91866 0.0
H520 H 0.67825 0.55626 0.95919 0.0
H521 H 0.81679 0.7093 0.96986 0.0
H522 H 0.75819 0.68655 0.06236 0.0
H523 H 0.7784 0.70376 0.01175 0.0
H524 H 0.6995 0.53469 0.00172 0.0
H525 H 0.67621 0.51891 0.05204 0.0
C526 C 0.71619 0.60327 0.92141 0.0
C527 C 0.7561 0.65175 0.90908 0.0
C528 C 0.71108 0.59342 0.95104 0.0
C529 C 0.7467 0.63111 0.9696 0.0
C530 C 0.78751 0.67925 0.95697 0.0
C531 C 0.79177 0.68951 0.92732 0.0
C532 C 0.74709 0.65328 0.04937 0.0
C533 C 0.71694 0.60138 0.06142 0.0
C534 C 0.75824 0.66295 0.02003 0.0
C535 C 0.74014 0.62085 0.00166 0.0
C536 C 0.71308 0.56872 0.01436 0.0
C537 C 0.70088 0.55928 0.04357 0.0
H538 H 1.09946 0.5915 0.24024 0.0
H539 H 0.20088 0.52412 0.25528 0.0
H540 H 1.08765 0.5911 0.29145 0.0
H541 H 0.19184 0.52606 0.30605 0.0
H542 H 0.15222 0.50489 0.39833 0.0
H543 H 0.14492 0.4923 0.34736 0.0
H544 H 0.11969 0.62648 0.33402 0.0
H545 H 0.12392 0.63607 0.38494 0.0
C546 C 0.11988 0.5773 0.25448 0.0
C547 C 0.15123 0.55794 0.24345 0.0
C548 C 1.11325 0.57706 0.28409 0.0
C549 C 0.1383 0.55808 0.30372 0.0
C550 C 0.17034 0.53964 0.29231 0.0
C551 C 0.17626 0.5392 0.26288 0.0
C552 C 0.14267 0.52995 0.38452 0.0
C553 C 0.1379 0.57097 0.39583 0.0
C554 C 0.13988 0.52386 0.355 0.0
C555 C 0.13314 0.55925 0.3357 0.0
C556 C 0.12464 0.59792 0.34751 0.0
C557 C 0.12669 0.60338 0.37697 0.0
loop_
_geom_bond_atom_site_label_1
_geom_bond_atom_site_label_2
_geom_bond_distance
_geom_bond_site_symmetry_2
_ccdc_geom_bond_type
Tb0 C2 2.809 . S
Tb0 O20 2.484 . S
Tb0 O21 2.440 . S
Tb0 O22 2.658 . S
Tb0 O23 2.409 . S
Tb0 O24 2.378 . S
Tb0 O28 2.325 . S
Tb0 O31 2.341 1_455 S
Tb1 C11 2.809 . S
Tb1 O22 2.325 1_655 S
Tb1 O25 2.341 1_655 S
Tb1 O26 2.484 . S
Tb1 O27 2.440 . S
Tb1 O28 2.658 1_655 S
Tb1 O29 2.409 1_655 S
Tb1 O30 2.378 . S
C2 Tb0 2.809 . S
C2 C3 1.514 . S
C2 O20 1.248 . S
C2 O21 1.266 . S
C3 C2 1.514 . S
C3 C4 1.359 . S
C3 C8 1.348 . S
C4 C3 1.359 . S
C4 C5 1.380 . S
C4 H32 0.929 . S
C5 C4 1.380 . S
C5 C6 1.347 . S
C5 H33 0.931 . S
C6 C5 1.347 . S
C6 C7 1.369 . S
C7 C6 1.369 . S
C7 C8 1.408 . S
C7 H34 0.930 . S
C8 C3 1.348 . S
C8 C7 1.408 . S
C8 H35 0.930 . S
C9 O22 1.281 . S
C9 O23 1.254 . S
C10 O24 1.236 . S
C10 O25 1.266 . S
C11 Tb1 2.809 . S
C11 C12 1.514 . S
C11 O26 1.248 . S
C11 O27 1.266 . S
C12 C11 1.514 . S
C12 C13 1.359 . S
C12 C17 1.348 . S
C13 C12 1.359 . S
C13 C14 1.380 . S
C13 H36 0.929 . S
C14 C13 1.380 . S
C14 C15 1.347 . S
C14 H37 0.931 . S
C15 C14 1.347 . S
C15 C16 1.369 . S
C16 C15 1.369 . S
C16 C17 1.408 . S
C16 H38 0.930 . S
C17 C12 1.348 . S
C17 C16 1.408 . S
C17 H39 0.930 . S
C18 O28 1.281 . S
C18 O29 1.254 . S
C19 O30 1.236 . S
C19 O31 1.266 . S
O20 Tb0 2.484 . S
O20 C2 1.248 . S
O21 Tb0 2.440 . S
O21 C2 1.266 . S
O22 Tb0 2.658 . S
O22 Tb1 2.325 1_455 S
O22 C9 1.281 . S
O23 Tb0 2.409 . S
O23 C9 1.254 . S
O24 Tb0 2.378 . S
O24 C10 1.236 . S
O25 Tb1 2.341 1_455 S
O25 C10 1.266 . S
O26 Tb1 2.484 . S
O26 C11 1.248 . S
O27 Tb1 2.440 . S
O27 C11 1.266 . S
O28 Tb0 2.325 . S
O28 Tb1 2.658 1_455 S
O28 C18 1.281 . S
O29 Tb1 2.409 1_455 S
O29 C18 1.254 . S
O30 Tb1 2.378 . S
O30 C19 1.236 . S
O31 Tb0 2.341 1_655 S
O31 C19 1.266 . S
H32 C4 0.929 . S
H33 C5 0.931 . S
H34 C7 0.930 . S
H35 C8 0.930 . S
H36 C13 0.929 . S
H37 C14 0.931 . S
H38 C16 0.930 . S
H39 C17 0.930 . S
Tb40 C42 2.788 1_545 S
Tb40 O60 2.467 1_545 S
Tb40 O61 2.420 1_545 S
Tb40 O62 2.676 . S
Tb40 O63 2.412 . S
Tb40 O64 2.375 1_545 S
Tb40 O68 2.336 . S
Tb40 O71 2.359 . S
Tb41 C51 2.809 . S
Tb41 O62 2.325 . S
Tb41 O65 2.341 1_545 S
Tb41 O66 2.484 . S
Tb41 O67 2.440 . S
Tb41 O68 2.658 . S
Tb41 O69 2.409 . S
Tb41 O70 2.378 . S
C42 Tb40 2.788 1_565 S
C42 C43 1.514 . S
C42 O60 1.248 . S
C42 O61 1.266 . S
C43 C42 1.514 . S
C43 C44 1.359 . S
C43 C48 1.348 . S
C44 C43 1.359 . S
C44 C45 1.380 . S
C44 H72 0.929 . S
C45 C44 1.380 . S
C45 C46 1.347 . S
C45 H73 0.931 . S
C46 C45 1.347 . S
C46 C47 1.369 . S
C47 C46 1.369 . S
C47 C48 1.408 . S
C47 H74 0.930 . S
C48 C43 1.348 . S
C48 C47 1.408 . S
C48 H75 0.930 . S
C49 O62 1.281 . S
C49 O63 1.254 . S
C50 O64 1.236 . S
C50 O65 1.266 . S
C51 Tb41 2.809 . S
C51 C52 1.514 . S
C51 O66 1.248 . S
C51 O67 1.266 . S
C52 C51 1.514 . S
C52 C53 1.359 . S
C52 C57 1.348 . S
C53 C52 1.359 . S
C53 C54 1.380 . S
C53 H76 0.929 . S
C54 C53 1.380 . S
C54 C55 1.347 . S
C54 H77 0.931 . S
C55 C54 1.347 . S
C55 C56 1.369 . S
C56 C55 1.369 . S
C56 C57 1.408 . S
C56 H78 0.930 . S
C57 C52 1.348 . S
C57 C56 1.408 . S
C57 H79 0.930 . S
C58 O68 1.281 . S
C58 O69 1.254 . S
C59 O70 1.236 . S
C59 O71 1.266 . S
O60 Tb40 2.467 1_565 S
O60 C42 1.248 . S
O61 Tb40 2.420 1_565 S
O61 C42 1.266 . S
O62 Tb40 2.676 . S
O62 Tb41 2.325 . S
O62 C49 1.281 . S
O63 Tb40 2.412 . S
O63 C49 1.254 . S
O64 Tb40 2.375 1_565 S
O64 C50 1.236 . S
O65 Tb41 2.341 1_565 S
O65 C50 1.266 . S
O66 Tb41 2.484 . S
O66 C51 1.248 . S
O67 Tb41 2.440 . S
O67 C51 1.266 . S
O68 Tb40 2.336 . S
O68 Tb41 2.658 . S
O68 C58 1.281 . S
O69 Tb41 2.409 . S
O69 C58 1.254 . S
O70 Tb41 2.378 . S
O70 C59 1.236 . S
O71 Tb40 2.359 . S
O71 C59 1.266 . S
H72 C44 0.929 . S
H73 C45 0.931 . S
H74 C47 0.930 . S
H75 C48 0.930 . S
H76 C53 0.929 . S
H77 C54 0.931 . S
H78 C56 0.930 . S
H79 C57 0.930 . S
Tb80 C82 2.809 . S
Tb80 O100 2.484 . S
Tb80 O101 2.440 . S
Tb80 O102 2.658 . S
Tb80 O103 2.409 . S
Tb80 O104 2.378 . S
Tb80 O108 2.325 . S
Tb80 O111 2.341 . S
Tb81 C91 2.809 . S
Tb81 O102 2.325 . S
Tb81 O105 2.341 . S
Tb81 O106 2.484 . S
Tb81 O107 2.440 . S
Tb81 O108 2.658 . S
Tb81 O109 2.409 . S
Tb81 O110 2.378 . S
C82 Tb80 2.809 . S
C82 C83 1.514 . S
C82 O100 1.248 . S
C82 O101 1.266 . S
C83 C82 1.514 . S
C83 C84 1.359 . S
C83 C88 1.348 . S
C84 C83 1.359 . S
C84 C85 1.380 . S
C84 H112 0.929 . S
C85 C84 1.380 . S
C85 C86 1.347 . S
C85 H113 0.931 . S
C86 C85 1.347 . S
C86 C87 1.369 . S
C87 C86 1.369 . S
C87 C88 1.408 . S
C87 H114 0.930 . S
C88 C83 1.348 . S
C88 C87 1.408 . S
C88 H115 0.930 . S
C89 O102 1.281 . S
C89 O103 1.254 . S
C90 O104 1.236 . S
C90 O105 1.266 . S
C91 Tb81 2.809 . S
C91 C92 1.514 . S
C91 O106 1.248 . S
C91 O107 1.266 . S
C92 C91 1.514 . S
C92 C93 1.359 . S
C92 C97 1.348 . S
C93 C92 1.359 . S
C93 C94 1.380 . S
C93 H116 0.929 . S
C94 C93 1.380 . S
C94 C95 1.347 . S
C94 H117 0.931 . S
C95 C94 1.347 . S
C95 C96 1.369 . S
C96 C95 1.369 . S
C96 C97 1.408 . S
C96 H118 0.930 . S
C97 C92 1.348 . S
C97 C96 1.408 . S
C97 H119 0.930 . S
C98 O108 1.281 . S
C98 O109 1.254 . S
C99 O110 1.236 . S
C99 O111 1.266 . S
O100 Tb80 2.484 . S
O100 C82 1.248 . S
O101 Tb80 2.440 . S
O101 C82 1.266 . S
O102 Tb80 2.658 . S
O102 Tb81 2.325 . S
O102 C89 1.281 . S
O103 Tb80 2.409 . S
O103 C89 1.254 . S
O104 Tb80 2.378 . S
O104 C90 1.236 . S
O105 Tb81 2.341 . S
O105 C90 1.266 . S
O106 Tb81 2.484 . S
O106 C91 1.248 . S
O107 Tb81 2.440 . S
O107 C91 1.266 . S
O108 Tb80 2.325 . S
O108 Tb81 2.658 . S
O108 C98 1.281 . S
O109 Tb81 2.409 . S
O109 C98 1.254 . S
O110 Tb81 2.378 . S
O110 C99 1.236 . S
O111 Tb80 2.341 . S
O111 C99 1.266 . S
H112 C84 0.929 . S
H113 C85 0.931 . S
H114 C87 0.930 . S
H115 C88 0.930 . S
H116 C93 0.929 . S
H117 C94 0.931 . S
H118 C96 0.930 . S
H119 C97 0.930 . S
C120 N121 1.317 . S
C120 N122 1.348 1_545 S
C120 C123 1.485 . S
N121 C120 1.317 . S
N121 N125 1.370 . S
N122 C120 1.348 1_565 S
N122 C124 1.346 . S
C123 C120 1.485 . S
C123 H127 0.960 . S
C123 H128 0.961 . S
C123 H129 0.960 . S
C124 N122 1.346 . S
C124 N125 1.307 1_565 S
C124 C126 1.486 . S
N125 N121 1.370 . S
N125 C124 1.307 1_545 S
C126 C124 1.486 . S
C126 H130 0.960 . S
C126 H131 0.960 . S
C126 H132 0.959 . S
H127 C123 0.960 . S
H128 C123 0.961 . S
H129 C123 0.960 . S
H130 C126 0.960 . S
H131 C126 0.960 . S
H132 C126 0.959 . S
C133 N134 1.317 . S
C133 N135 1.348 . S
C133 C136 1.485 . S
N134 C133 1.317 . S
N134 N138 1.370 . S
N135 C133 1.348 . S
N135 C137 1.346 . S
C136 C133 1.485 . S
C136 H140 0.960 . S
C136 H141 0.961 . S
C136 H142 0.960 . S
C137 N135 1.346 . S
C137 N138 1.307 . S
C137 C139 1.486 . S
N138 N134 1.370 . S
N138 C137 1.307 . S
C139 C137 1.486 . S
C139 H143 0.960 . S
C139 H144 0.960 . S
C139 H145 0.959 . S
H140 C136 0.960 . S
H141 C136 0.961 . S
H142 C136 0.960 . S
H143 C139 0.960 . S
H144 C139 0.960 . S
H145 C139 0.959 . S
C146 N147 1.317 . S
C146 N148 1.348 1_455 S
C146 C149 1.485 . S
N147 C146 1.317 . S
N147 N151 1.370 . S
N148 C146 1.348 1_655 S
N148 C150 1.346 . S
C149 C146 1.485 . S
C149 H153 0.960 . S
C149 H154 0.961 1_455 S
C149 H155 0.960 . S
C150 N148 1.346 . S
C150 N151 1.307 1_655 S
C150 C152 1.486 . S
N151 N147 1.370 . S
N151 C150 1.307 1_455 S
C152 C150 1.486 . S
C152 H156 0.960 . S
C152 H157 0.960 . S
C152 H158 0.959 . S
H153 C149 0.960 . S
H154 C149 0.961 1_655 S
H155 C149 0.960 . S
H156 C152 0.960 . S
H157 C152 0.960 . S
H158 C152 0.959 . S
C159 N160 1.317 . S
C159 N161 1.348 . S
C159 C162 1.485 . S
N160 C159 1.317 . S
N160 N164 1.370 . S
N161 C159 1.348 . S
N161 C163 1.346 . S
C162 C159 1.485 . S
C162 H166 0.960 . S
C162 H167 0.961 . S
C162 H168 0.960 . S
C163 N161 1.346 . S
C163 N164 1.307 . S
C163 C165 1.486 . S
N164 N160 1.370 . S
N164 C163 1.307 . S
C165 C163 1.486 . S
C165 H169 0.960 . S
C165 H170 0.960 . S
C165 H171 0.959 . S
H166 C162 0.960 . S
H167 C162 0.961 . S
H168 C162 0.960 . S
H169 C165 0.960 . S
H170 C165 0.960 . S
H171 C165 0.959 . S
C172 N173 1.317 . S
C172 N174 1.348 . S
C172 C175 1.485 . S
N173 C172 1.317 . S
N173 N177 1.370 . S
N174 C172 1.348 . S
N174 C176 1.346 . S
C175 C172 1.485 . S
C175 H179 0.960 . S
C175 H180 0.961 . S
C175 H181 0.960 . S
C176 N174 1.346 . S
C176 N177 1.307 . S
C176 C178 1.486 . S
N177 N173 1.370 . S
N177 C176 1.307 . S
C178 C176 1.486 . S
C178 H182 0.960 . S
C178 H183 0.960 . S
C178 H184 0.959 . S
H179 C175 0.960 . S
H180 C175 0.961 . S
H181 C175 0.960 . S
H182 C178 0.960 . S
H183 C178 0.960 . S
H184 C178 0.959 . S
C185 N186 1.317 . S
C185 N187 1.348 . S
C185 C188 1.485 . S
N186 C185 1.317 . S
N186 N190 1.370 . S
N187 C185 1.348 . S
N187 C189 1.346 . S
C188 C185 1.485 . S
C188 H192 0.960 . S
C188 H193 0.961 . S
C188 H194 0.960 . S
C189 N187 1.346 . S
C189 N190 1.307 . S
C189 C191 1.486 . S
N190 N186 1.370 . S
N190 C189 1.307 . S
C191 C189 1.486 . S
C191 H195 0.960 . S
C191 H196 0.960 . S
C191 H197 0.959 . S
H192 C188 0.960 . S
H193 C188 0.961 . S
H194 C188 0.960 . S
H195 C191 0.960 . S
H196 C191 0.960 . S
H197 C191 0.959 . S
H198 C206 0.950 . S
H199 C211 0.950 . S
H200 C208 0.950 . S
H201 C210 0.950 . S
H202 C212 0.950 . S
H203 C214 0.950 . S
H204 C216 0.950 . S
H205 C217 0.950 . S
C206 H198 0.950 . S
C206 C207 1.386 . S
C206 C208 1.391 . S
C207 C206 1.386 . S
C207 C211 1.393 . S
C208 H200 0.950 . S
C208 C206 1.391 . S
C208 C209 1.400 . S
C209 C208 1.400 . S
C209 C210 1.398 . S
C209 C215 1.491 . S
C210 H201 0.950 . S
C210 C209 1.398 . S
C210 C211 1.391 . S
C211 H199 0.950 . S
C211 C207 1.393 . S
C211 C210 1.391 . S
C212 H202 0.950 . S
C212 C213 1.386 . S
C212 C214 1.391 . S
C213 C212 1.386 . S
C213 C217 1.393 . S
C214 H203 0.950 . S
C214 C212 1.391 . S
C214 C215 1.400 . S
C215 C209 1.491 . S
C215 C214 1.400 . S
C215 C216 1.398 . S
C216 H204 0.950 . S
C216 C215 1.398 . S
C216 C217 1.391 . S
C217 H205 0.950 . S
C217 C213 1.393 . S
C217 C216 1.391 . S
H218 C226 0.950 . S
H219 C231 0.950 . S
H220 C228 0.950 . S
H221 C230 0.950 . S
H222 C232 0.950 . S
H223 C234 0.950 . S
H224 C236 0.950 . S
H225 C237 0.950 1_455 S
C226 H218 0.950 . S
C226 C227 1.386 . S
C226 C228 1.391 . S
C227 C226 1.386 . S
C227 C231 1.393 . S
C228 H220 0.950 . S
C228 C226 1.391 . S
C228 C229 1.400 . S
C229 C228 1.400 . S
C229 C230 1.398 . S
C229 C235 1.491 . S
C230 H221 0.950 . S
C230 C229 1.398 . S
C230 C231 1.391 . S
C231 H219 0.950 . S
C231 C227 1.393 . S
C231 C230 1.391 . S
C232 H222 0.950 . S
C232 C233 1.386 . S
C232 C234 1.391 . S
C233 C232 1.386 . S
C233 C237 1.393 . S
C234 H223 0.950 . S
C234 C232 1.391 . S
C234 C235 1.400 . S
C235 C229 1.491 . S
C235 C234 1.400 . S
C235 C236 1.398 . S
C236 H224 0.950 . S
C236 C235 1.398 . S
C236 C237 1.391 . S
C237 H225 0.950 1_655 S
C237 C233 1.393 . S
C237 C236 1.391 . S
H238 C246 0.950 . S
H239 C251 0.950 . S
H240 C248 0.950 . S
H241 C250 0.950 . S
H242 C252 0.950 . S
H243 C254 0.950 . S
H244 C256 0.950 . S
H245 C257 0.950 . S
C246 H238 0.950 . S
C246 C247 1.386 . S
C246 C248 1.391 . S
C247 C246 1.386 . S
C247 C251 1.393 . S
C248 H240 0.950 . S
C248 C246 1.391 . S
C248 C249 1.400 . S
C249 C248 1.400 . S
C249 C250 1.398 . S
C249 C255 1.491 . S
C250 H241 0.950 . S
C250 C249 1.398 . S
C250 C251 1.391 . S
C251 H239 0.950 . S
C251 C247 1.393 . S
C251 C250 1.391 . S
C252 H242 0.950 . S
C252 C253 1.386 . S
C252 C254 1.391 . S
C253 C252 1.386 . S
C253 C257 1.393 . S
C254 H243 0.950 . S
C254 C252 1.391 . S
C254 C255 1.400 . S
C255 C249 1.491 . S
C255 C254 1.400 . S
C255 C256 1.398 . S
C256 H244 0.950 . S
C256 C255 1.398 . S
C256 C257 1.391 . S
C257 H245 0.950 . S
C257 C253 1.393 . S
C257 C256 1.391 . S
H258 C266 0.950 . S
H259 C271 0.950 . S
H260 C268 0.950 . S
H261 C270 0.950 . S
H262 C272 0.950 . S
H263 C274 0.950 . S
H264 C276 0.950 . S
H265 C277 0.950 . S
C266 H258 0.950 . S
C266 C267 1.386 . S
C266 C268 1.391 . S
C267 C266 1.386 . S
C267 C271 1.393 . S
C268 H260 0.950 . S
C268 C266 1.391 . S
C268 C269 1.400 . S
C269 C268 1.400 . S
C269 C270 1.398 . S
C269 C275 1.491 . S
C270 H261 0.950 . S
C270 C269 1.398 . S
C270 C271 1.391 . S
C271 H259 0.950 . S
C271 C267 1.393 . S
C271 C270 1.391 . S
C272 H262 0.950 . S
C272 C273 1.386 . S
C272 C274 1.391 . S
C273 C272 1.386 . S
C273 C277 1.393 . S
C274 H263 0.950 . S
C274 C272 1.391 . S
C274 C275 1.400 . S
C275 C269 1.491 . S
C275 C274 1.400 . S
C275 C276 1.398 . S
C276 H264 0.950 . S
C276 C275 1.398 . S
C276 C277 1.391 . S
C277 H265 0.950 . S
C277 C273 1.393 . S
C277 C276 1.391 . S
H278 C286 0.950 . S
H279 C291 0.950 . S
H280 C288 0.950 . S
H281 C290 0.950 . S
H282 C292 0.950 . S
H283 C294 0.950 . S
H284 C296 0.950 . S
H285 C297 0.950 . S
C286 H278 0.950 . S
C286 C287 1.386 . S
C286 C288 1.391 . S
C287 C286 1.386 . S
C287 C291 1.393 . S
C288 H280 0.950 . S
C288 C286 1.391 . S
C288 C289 1.400 . S
C289 C288 1.400 . S
C289 C290 1.398 . S
C289 C295 1.491 . S
C290 H281 0.950 . S
C290 C289 1.398 . S
C290 C291 1.391 . S
C291 H279 0.950 . S
C291 C287 1.393 . S
C291 C290 1.391 . S
C292 H282 0.950 . S
C292 C293 1.386 . S
C292 C294 1.391 . S
C293 C292 1.386 . S
C293 C297 1.393 . S
C294 H283 0.950 . S
C294 C292 1.391 . S
C294 C295 1.400 . S
C295 C289 1.491 . S
C295 C294 1.400 . S
C295 C296 1.398 . S
C296 H284 0.950 . S
C296 C295 1.398 . S
C296 C297 1.391 . S
C297 H285 0.950 . S
C297 C293 1.393 . S
C297 C296 1.391 . S
H298 C306 0.950 . S
H299 C311 0.950 . S
H300 C308 0.950 . S
H301 C310 0.950 . S
H302 C312 0.950 . S
H303 C314 0.950 . S
H304 C316 0.950 . S
H305 C317 0.950 . S
C306 H298 0.950 . S
C306 C307 1.386 . S
C306 C308 1.391 . S
C307 C306 1.386 . S
C307 C311 1.393 . S
C308 H300 0.950 . S
C308 C306 1.391 . S
C308 C309 1.400 . S
C309 C308 1.400 . S
C309 C310 1.398 . S
C309 C315 1.491 . S
C310 H301 0.950 . S
C310 C309 1.398 . S
C310 C311 1.391 . S
C311 H299 0.950 . S
C311 C307 1.393 . S
C311 C310 1.391 . S
C312 H302 0.950 . S
C312 C313 1.386 . S
C312 C314 1.391 . S
C313 C312 1.386 . S
C313 C317 1.393 . S
C314 H303 0.950 . S
C314 C312 1.391 . S
C314 C315 1.400 . S
C315 C309 1.491 . S
C315 C314 1.400 . S
C315 C316 1.398 . S
C316 H304 0.950 . S
C316 C315 1.398 . S
C316 C317 1.391 . S
C317 H305 0.950 . S
C317 C313 1.393 . S
C317 C316 1.391 . S
H318 C326 0.950 . S
H319 C331 0.950 . S
H320 C328 0.950 . S
H321 C330 0.950 . S
H322 C332 0.950 . S
H323 C334 0.950 . S
H324 C336 0.950 . S
H325 C337 0.950 . S
C326 H318 0.950 . S
C326 C327 1.386 . S
C326 C328 1.391 . S
C327 C326 1.386 . S
C327 C331 1.393 . S
C328 H320 0.950 . S
C328 C326 1.391 . S
C328 C329 1.400 . S
C329 C328 1.400 . S
C329 C330 1.398 . S
C329 C335 1.491 . S
C330 H321 0.950 . S
C330 C329 1.398 . S
C330 C331 1.391 . S
C331 H319 0.950 . S
C331 C327 1.393 . S
C331 C330 1.391 . S
C332 H322 0.950 . S
C332 C333 1.386 . S
C332 C334 1.391 . S
C333 C332 1.386 . S
C333 C337 1.393 . S
C334 H323 0.950 . S
C334 C332 1.391 . S
C334 C335 1.400 . S
C335 C329 1.491 . S
C335 C334 1.400 . S
C335 C336 1.398 . S
C336 H324 0.950 . S
C336 C335 1.398 . S
C336 C337 1.391 . S
C337 H325 0.950 . S
C337 C333 1.393 . S
C337 C336 1.391 . S
H338 C346 0.950 . S
H339 C351 0.950 . S
H340 C348 0.950 . S
H341 C350 0.950 . S
H342 C352 0.950 . S
H343 C354 0.950 . S
H344 C356 0.950 . S
H345 C357 0.950 . S
C346 H338 0.950 . S
C346 C347 1.386 . S
C346 C348 1.391 . S
C347 C346 1.386 . S
C347 C351 1.393 . S
C348 H340 0.950 . S
C348 C346 1.391 . S
C348 C349 1.400 . S
C349 C348 1.400 . S
C349 C350 1.398 . S
C349 C355 1.491 . S
C350 H341 0.950 . S
C350 C349 1.398 . S
C350 C351 1.391 . S
C351 H339 0.950 . S
C351 C347 1.393 . S
C351 C350 1.391 . S
C352 H342 0.950 . S
C352 C353 1.386 . S
C352 C354 1.391 . S
C353 C352 1.386 . S
C353 C357 1.393 . S
C354 H343 0.950 . S
C354 C352 1.391 . S
C354 C355 1.400 . S
C355 C349 1.491 . S
C355 C354 1.400 . S
C355 C356 1.398 . S
C356 H344 0.950 . S
C356 C355 1.398 . S
C356 C357 1.391 . S
C357 H345 0.950 . S
C357 C353 1.393 . S
C357 C356 1.391 . S
H358 C366 0.950 . S
H359 C371 0.950 . S
H360 C368 0.950 . S
H361 C370 0.950 . S
H362 C372 0.950 . S
H363 C374 0.950 . S
H364 C376 0.950 . S
H365 C377 0.950 . S
C366 H358 0.950 . S
C366 C367 1.386 . S
C366 C368 1.391 . S
C367 C366 1.386 . S
C367 C371 1.393 . S
C368 H360 0.950 . S
C368 C366 1.391 . S
C368 C369 1.400 . S
C369 C368 1.400 . S
C369 C370 1.398 . S
C369 C375 1.491 . S
C370 H361 0.950 . S
C370 C369 1.398 . S
C370 C371 1.391 . S
C371 H359 0.950 . S
C371 C367 1.393 . S
C371 C370 1.391 . S
C372 H362 0.950 . S
C372 C373 1.386 . S
C372 C374 1.391 . S
C373 C372 1.386 . S
C373 C377 1.393 . S
C374 H363 0.950 . S
C374 C372 1.391 . S
C374 C375 1.400 . S
C375 C369 1.491 . S
C375 C374 1.400 . S
C375 C376 1.398 . S
C376 H364 0.950 . S
C376 C375 1.398 . S
C376 C377 1.391 . S
C377 H365 0.950 . S
C377 C373 1.393 . S
C377 C376 1.391 . S
H378 C386 0.950 . S
H379 C391 0.950 . S
H380 C388 0.950 . S
H381 C390 0.950 . S
H382 C392 0.950 . S
H383 C394 0.950 . S
H384 C396 0.950 . S
H385 C397 0.950 . S
C386 H378 0.950 . S
C386 C387 1.386 . S
C386 C388 1.391 . S
C387 C386 1.386 . S
C387 C391 1.393 . S
C388 H380 0.950 . S
C388 C386 1.391 . S
C388 C389 1.400 . S
C389 C388 1.400 . S
C389 C390 1.398 . S
C389 C395 1.491 . S
C390 H381 0.950 . S
C390 C389 1.398 . S
C390 C391 1.391 . S
C391 H379 0.950 . S
C391 C387 1.393 . S
C391 C390 1.391 . S
C392 H382 0.950 . S
C392 C393 1.386 . S
C392 C394 1.391 . S
C393 C392 1.386 . S
C393 C397 1.393 . S
C394 H383 0.950 . S
C394 C392 1.391 . S
C394 C395 1.400 . S
C395 C389 1.491 . S
C395 C394 1.400 . S
C395 C396 1.398 . S
C396 H384 0.950 . S
C396 C395 1.398 . S
C396 C397 1.391 . S
C397 H385 0.950 . S
C397 C393 1.393 . S
C397 C396 1.391 . S
H398 C406 0.950 . S
H399 C411 0.950 . S
H400 C408 0.950 . S
H401 C410 0.950 . S
H402 C412 0.950 . S
H403 C414 0.950 . S
H404 C416 0.950 . S
H405 C417 0.950 . S
C406 H398 0.950 . S
C406 C407 1.386 . S
C406 C408 1.391 . S
C407 C406 1.386 . S
C407 C411 1.393 . S
C408 H400 0.950 . S
C408 C406 1.391 . S
C408 C409 1.400 . S
C409 C408 1.400 . S
C409 C410 1.398 . S
C409 C415 1.491 . S
C410 H401 0.950 . S
C410 C409 1.398 . S
C410 C411 1.391 . S
C411 H399 0.950 . S
C411 C407 1.393 . S
C411 C410 1.391 . S
C412 H402 0.950 . S
C412 C413 1.386 . S
C412 C414 1.391 . S
C413 C412 1.386 . S
C413 C417 1.393 . S
C414 H403 0.950 . S
C414 C412 1.391 . S
C414 C415 1.400 . S
C415 C409 1.491 . S
C415 C414 1.400 . S
C415 C416 1.398 . S
C416 H404 0.950 . S
C416 C415 1.398 . S
C416 C417 1.391 . S
C417 H405 0.950 . S
C417 C413 1.393 . S
C417 C416 1.391 . S
H418 C426 0.950 . S
H419 C431 0.950 . S
H420 C428 0.950 . S
H421 C430 0.950 . S
H422 C432 0.950 . S
H423 C434 0.950 . S
H424 C436 0.950 . S
H425 C437 0.950 . S
C426 H418 0.950 . S
C426 C427 1.386 . S
C426 C428 1.391 . S
C427 C426 1.386 . S
C427 C431 1.393 . S
C428 H420 0.950 . S
C428 C426 1.391 . S
C428 C429 1.400 . S
C429 C428 1.400 . S
C429 C430 1.398 . S
C429 C435 1.491 . S
C430 H421 0.950 . S
C430 C429 1.398 . S
C430 C431 1.391 . S
C431 H419 0.950 . S
C431 C427 1.393 . S
C431 C430 1.391 . S
C432 H422 0.950 . S
C432 C433 1.386 . S
C432 C434 1.391 . S
C433 C432 1.386 . S
C433 C437 1.393 . S
C434 H423 0.950 . S
C434 C432 1.391 . S
C434 C435 1.400 . S
C435 C429 1.491 . S
C435 C434 1.400 . S
C435 C436 1.398 . S
C436 H424 0.950 . S
C436 C435 1.398 . S
C436 C437 1.391 . S
C437 H425 0.950 . S
C437 C433 1.393 . S
C437 C436 1.391 . S
H438 C446 0.950 . S
H439 C451 0.950 . S
H440 C448 0.950 . S
H441 C450 0.950 . S
H442 C452 0.950 . S
H443 C454 0.950 . S
H444 C456 0.950 . S
H445 C457 0.950 . S
C446 H438 0.950 . S
C446 C447 1.386 . S
C446 C448 1.391 . S
C447 C446 1.386 . S
C447 C451 1.393 1_455 S
C448 H440 0.950 . S
C448 C446 1.391 . S
C448 C449 1.400 . S
C449 C448 1.400 . S
C449 C450 1.398 1_455 S
C449 C455 1.525 . S
C450 H441 0.950 . S
C450 C449 1.398 1_655 S
C450 C451 1.391 . S
C451 H439 0.950 . S
C451 C447 1.393 1_655 S
C451 C450 1.391 . S
C452 H442 0.950 . S
C452 C453 1.386 1_655 S
C452 C454 1.391 . S
C453 C452 1.386 1_455 S
C453 C457 1.393 . S
C454 H443 0.950 . S
C454 C452 1.391 . S
C454 C455 1.383 1_656 S
C455 C449 1.525 . S
C455 C454 1.383 1_454 S
C455 C456 1.380 1_554 S
C456 H444 0.950 . S
C456 C455 1.380 1_556 S
C456 C457 1.391 . S
C457 H445 0.950 . S
C457 C453 1.393 . S
C457 C456 1.391 . S
H458 C466 0.950 1_565 S
H459 C471 0.950 . S
H460 C468 0.950 1_565 S
H461 C470 0.950 . S
H462 C472 0.950 . S
H463 C474 0.950 . S
H464 C476 0.950 1_565 S
H465 C477 0.950 1_565 S
C466 H458 0.950 1_545 S
C466 C467 1.386 . S
C466 C468 1.391 . S
C467 C466 1.386 . S
C467 C471 1.393 . S
C468 H460 0.950 1_545 S
C468 C466 1.391 . S
C468 C469 1.400 . S
C469 C468 1.400 . S
C469 C470 1.398 . S
C469 C475 1.491 . S
C470 H461 0.950 . S
C470 C469 1.398 . S
C470 C471 1.391 . S
C471 H459 0.950 . S
C471 C467 1.393 . S
C471 C470 1.391 . S
C472 H462 0.950 . S
C472 C473 1.386 . S
C472 C474 1.391 . S
C473 C472 1.386 . S
C473 C477 1.393 . S
C474 H463 0.950 . S
C474 C472 1.391 . S
C474 C475 1.400 . S
C475 C469 1.491 . S
C475 C474 1.400 . S
C475 C476 1.398 . S
C476 H464 0.950 1_545 S
C476 C475 1.398 . S
C476 C477 1.391 . S
C477 H465 0.950 1_545 S
C477 C473 1.393 . S
C477 C476 1.391 . S
H478 C486 0.950 . S
H479 C491 0.950 . S
H480 C488 0.950 . S
H481 C490 0.950 . S
H482 C492 0.950 . S
H483 C494 0.950 . S
H484 C496 0.950 . S
H485 C497 0.950 . S
C486 H478 0.950 . S
C486 C487 1.386 . S
C486 C488 1.391 . S
C487 C486 1.386 . S
C487 C491 1.393 . S
C488 H480 0.950 . S
C488 C486 1.391 . S
C488 C489 1.400 . S
C489 C488 1.400 . S
C489 C490 1.398 . S
C489 C495 1.491 . S
C490 H481 0.950 . S
C490 C489 1.398 . S
C490 C491 1.391 . S
C491 H479 0.950 . S
C491 C487 1.393 . S
C491 C490 1.391 . S
C492 H482 0.950 . S
C492 C493 1.386 . S
C492 C494 1.391 . S
C493 C492 1.386 . S
C493 C497 1.393 . S
C494 H483 0.950 . S
C494 C492 1.391 . S
C494 C495 1.400 . S
C495 C489 1.491 . S
C495 C494 1.400 . S
C495 C496 1.398 . S
C496 H484 0.950 . S
C496 C495 1.398 . S
C496 C497 1.391 . S
C497 H485 0.950 . S
C497 C493 1.393 . S
C497 C496 1.391 . S
H498 C506 0.950 . S
H499 C511 0.950 . S
H500 C508 0.950 . S
H501 C510 0.950 . S
H502 C512 0.950 . S
H503 C514 0.950 . S
H504 C516 0.950 1_565 S
H505 C517 0.950 1_565 S
C506 H498 0.950 . S
C506 C507 1.386 1_565 S
C506 C508 1.391 . S
C507 C506 1.386 1_545 S
C507 C511 1.393 . S
C508 H500 0.950 . S
C508 C506 1.391 . S
C508 C509 1.400 1_565 S
C509 C508 1.400 1_545 S
C509 C510 1.398 . S
C509 C515 1.491 . S
C510 H501 0.950 . S
C510 C509 1.398 . S
C510 C511 1.391 . S
C511 H499 0.950 . S
C511 C507 1.393 . S
C511 C510 1.391 . S
C512 H502 0.950 . S
C512 C513 1.386 . S
C512 C514 1.391 . S
C513 C512 1.386 . S
C513 C517 1.393 . S
C514 H503 0.950 . S
C514 C512 1.391 . S
C514 C515 1.400 . S
C515 C509 1.491 . S
C515 C514 1.400 . S
C515 C516 1.398 . S
C516 H504 0.950 1_545 S
C516 C515 1.398 . S
C516 C517 1.391 . S
C517 H505 0.950 1_545 S
C517 C513 1.393 . S
C517 C516 1.391 . S
H518 C526 0.950 . S
H519 C531 0.950 . S
H520 C528 0.950 . S
H521 C530 0.950 . S
H522 C532 0.950 . S
H523 C534 0.950 . S
H524 C536 0.950 . S
H525 C537 0.950 . S
C526 H518 0.950 . S
C526 C527 1.386 . S
C526 C528 1.391 . S
C527 C526 1.386 . S
C527 C531 1.393 . S
C528 H520 0.950 . S
C528 C526 1.391 . S
C528 C529 1.400 . S
C529 C528 1.400 . S
C529 C530 1.398 . S
C529 C535 1.491 1_556 S
C530 H521 0.950 . S
C530 C529 1.398 . S
C530 C531 1.391 . S
C531 H519 0.950 . S
C531 C527 1.393 . S
C531 C530 1.391 . S
C532 H522 0.950 . S
C532 C533 1.386 . S
C532 C534 1.391 . S
C533 C532 1.386 . S
C533 C537 1.393 . S
C534 H523 0.950 . S
C534 C532 1.391 . S
C534 C535 1.400 . S
C535 C529 1.491 1_554 S
C535 C534 1.400 . S
C535 C536 1.398 . S
C536 H524 0.950 . S
C536 C535 1.398 . S
C536 C537 1.391 . S
C537 H525 0.950 . S
C537 C533 1.393 . S
C537 C536 1.391 . S
H538 C546 0.950 . S
H539 C551 0.950 . S
H540 C548 0.950 1_655 S
H541 C550 0.950 . S
H542 C552 0.950 . S
H543 C554 0.950 . S
H544 C556 0.950 1_655 S
H545 C557 0.949 1_655 S
C546 H538 0.950 . S
C546 C547 1.386 1_655 S
C546 C548 1.391 1_655 S
C547 C546 1.386 1_455 S
C547 C551 1.393 . S
C548 H540 0.950 1_455 S
C548 C546 1.391 1_455 S
C548 C549 1.400 . S
C549 C548 1.400 . S
C549 C550 1.398 . S
C549 C555 1.491 . S
C550 H541 0.950 . S
C550 C549 1.398 . S
C550 C551 1.391 . S
C551 H539 0.950 . S
C551 C547 1.393 . S
C551 C550 1.391 . S
C552 H542 0.950 . S
C552 C553 1.386 . S
C552 C554 1.391 . S
C553 C552 1.386 . S
C553 C557 1.393 . S
C554 H543 0.950 . S
C554 C552 1.391 . S
C554 C555 1.400 . S
C555 C549 1.491 . S
C555 C554 1.400 . S
C555 C556 1.398 . S
C556 H544 0.950 1_455 S
C556 C555 1.398 . S
C556 C557 1.391 . S
C557 H545 0.949 1_455 S
C557 C553 1.393 . S
C557 C556 1.391 . S
C207 C10 2.731 . S
C213 N187 2.694 . S
C227 C59 2.962 . S
C233 N160 2.965 1_655 S
C247 C90 2.895 . S
C253 N173 2.914 1_565 S
C267 C19 3.330 . S
C273 N186 3.339 . S
C293 N161 3.047 . S
C287 C50 3.046 . S
C313 N174 3.108 . S
C307 C99 3.132 . S
C327 C46 0.297 . S
C333 N134 0.257 . S
C347 C95 0.319 . S
C353 N148 0.137 . S
C367 C6 0.568 . S
C373 N122 0.569 . S
C393 N135 0.457 . S
C387 C55 0.507 . S
C413 N147 0.707 . S
C407 C86 0.706 . S
C427 C15 0.371 . S
C433 N121 0.344 . S
C453 N151 1.183 . S
C447 C9 1.193 . S
C467 C49 1.273 . S
C473 N125 1.278 . S
C487 C89 1.173 . S
C493 N138 1.202 . S
C513 N177 1.806 . S
C507 C58 1.712 . S
C533 N190 1.726 . S
C527 C98 1.696 . S
C547 C18 1.690 . S
C553 N164 1.730 . S
