# Generated by pormake.
# Topology zzz, (3,6)-cn, num edge types: 1
# Building blocks:
#     Node 0, Type 0, BuildingBlock: PAMTOO_clean_linker_0, # of connection points: 3
#     Node 1, Type 0, BuildingBlock: PAMTOO_clean_linker_0, # of connection points: 3
#     Node 2, Type 0, BuildingBlock: PAMTOO_clean_linker_0, # of connection points: 3
#     Node 3, Type 0, BuildingBlock: PAMTOO_clean_linker_0, # of connection points: 3
#     Node 4, Type 0, BuildingBlock: PAMTOO_clean_linker_0, # of connection points: 3
#     Node 5, Type 0, BuildingBlock: PAMTOO_clean_linker_0, # of connection points: 3
#     Node 6, Type 0, BuildingBlock: PAMTOO_clean_linker_0, # of connection points: 3
#     Node 7, Type 0, BuildingBlock: PAMTOO_clean_linker_0, # of connection points: 3
#     Node 8, Type 1, BuildingBlock: KUMBOL_clean_sbu_0, # of connection points: 6
#     Node 9, Type 1, BuildingBlock: KUMBOL_clean_sbu_0, # of connection points: 6
#     Node 10, Type 1, BuildingBlock: KUMBOL_clean_sbu_0, # of connection points: 6
#     Node 11, Type 1, BuildingBlock: KUMBOL_clean_sbu_0, # of connection points: 6
#     Edge 12, Type (0, 1), BuildingBlock: EZIPEK_clean_linker_0, # of connection points: 2
#     Edge 13, Type (0, 1), BuildingBlock: EZIPEK_clean_linker_0, # of connection points: 2
#     Edge 14, Type (0, 1), BuildingBlock: EZIPEK_clean_linker_0, # of connection points: 2
#     Edge 15, Type (0, 1), BuildingBlock: EZIPEK_clean_linker_0, # of connection points: 2
#     Edge 16, Type (0, 1), BuildingBlock: EZIPEK_clean_linker_0, # of connection points: 2
#     Edge 17, Type (0, 1), BuildingBlock: EZIPEK_clean_linker_0, # of connection points: 2
#     Edge 18, Type (0, 1), BuildingBlock: EZIPEK_clean_linker_0, # of connection points: 2
#     Edge 19, Type (0, 1), BuildingBlock: EZIPEK_clean_linker_0, # of connection points: 2
#     Edge 20, Type (0, 1), BuildingBlock: EZIPEK_clean_linker_0, # of connection points: 2
#     Edge 21, Type (0, 1), BuildingBlock: EZIPEK_clean_linker_0, # of connection points: 2
#     Edge 22, Type (0, 1), BuildingBlock: EZIPEK_clean_linker_0, # of connection points: 2
#     Edge 23, Type (0, 1), BuildingBlock: EZIPEK_clean_linker_0, # of connection points: 2
#     Edge 24, Type (0, 1), BuildingBlock: EZIPEK_clean_linker_0, # of connection points: 2
#     Edge 25, Type (0, 1), BuildingBlock: EZIPEK_clean_linker_0, # of connection points: 2
#     Edge 26, Type (0, 1), BuildingBlock: EZIPEK_clean_linker_0, # of connection points: 2
#     Edge 27, Type (0, 1), BuildingBlock: EZIPEK_clean_linker_0, # of connection points: 2
#     Edge 28, Type (0, 1), BuildingBlock: EZIPEK_clean_linker_0, # of connection points: 2
#     Edge 29, Type (0, 1), BuildingBlock: EZIPEK_clean_linker_0, # of connection points: 2
#     Edge 30, Type (0, 1), BuildingBlock: EZIPEK_clean_linker_0, # of connection points: 2
#     Edge 31, Type (0, 1), BuildingBlock: EZIPEK_clean_linker_0, # of connection points: 2
#     Edge 32, Type (0, 1), BuildingBlock: EZIPEK_clean_linker_0, # of connection points: 2
#     Edge 33, Type (0, 1), BuildingBlock: EZIPEK_clean_linker_0, # of connection points: 2
#     Edge 34, Type (0, 1), BuildingBlock: EZIPEK_clean_linker_0, # of connection points: 2
#     Edge 35, Type (0, 1), BuildingBlock: EZIPEK_clean_linker_0, # of connection points: 2
# Relax obj value: 0.230
# Max RMSD: 0.183
# Mean RMSD: 0.118
data_MOF--net-zzz--node1-KUMBOL_clean_sbu_0--node2-PAMTOO_clean_linker_0--edge1-EZIPEK_clean_linker_0
_symmetry_space_group_name_H-M    P1
_symmetry_Int_Tables_number       1
_symmetry_cell_setting            triclinic
loop_
_symmetry_equiv_pos_as_xyz
'x, y, z'
_cell_length_a     37.202374
_cell_length_b     37.206083
_cell_length_c     11.030527
_cell_angle_alpha  91.174537
_cell_angle_beta   89.88185
_cell_angle_gamma 90.092861
loop_
_atom_site_label
_atom_site_type_symbol
_atom_site_fract_x
_atom_site_fract_y
_atom_site_fract_z
_atom_type_partial_charge
H0 H 0.86178 0.59611 0.28279 0.0
H1 H 0.75467 0.59904 0.13603 0.0
H2 H 0.7827 0.51938 0.3957 0.0
H3 H 0.721 0.49386 0.15666 0.0
C4 C 0.71897 0.5228 0.1351 0.0
O5 O 0.73042 0.5429 0.23793 0.0
H6 H 0.73872 0.52515 0.06013 0.0
C7 C 0.83461 0.58582 0.2771 0.0
C8 C 0.82574 0.55748 0.35402 0.0
C9 C 0.80997 0.6002 0.19307 0.0
C10 C 0.77466 0.58679 0.19219 0.0
C11 C 0.76489 0.5562 0.25581 0.0
C12 C 0.79045 0.54176 0.34015 0.0
H13 H 0.95589 0.85991 0.29643 0.0
H14 H 0.95802 0.75034 0.16393 0.0
H15 H 0.03625 0.78729 0.42476 0.0
H16 H 0.03532 0.73714 0.09914 0.0
C17 C 0.03491 0.7171 0.17223 0.0
O18 O 0.01448 0.73029 0.27241 0.0
H19 H 0.06355 0.71708 0.2003 0.0
C20 C 0.9673 0.83332 0.29652 0.0
C21 C 0.99609 0.82788 0.37651 0.0
C22 C 0.95435 0.80634 0.21435 0.0
C23 C 0.96927 0.77186 0.21886 0.0
C24 C 1.00011 0.76473 0.28554 0.0
C25 C 1.01336 0.79281 0.3678 0.0
H26 H 0.68213 0.9864 0.29382 0.0
H27 H 0.78765 0.99773 0.13377 0.0
H28 H 0.76596 0.04128 0.48892 0.0
H29 H 0.84354 0.98655 0.31845 0.0
C30 C 0.84843 0.01548 0.30166 0.0
O31 O 0.81547 0.03407 0.30311 0.0
H32 H 0.86416 0.02479 0.3817 0.0
C33 C 0.70989 0.99481 0.29829 0.0
C34 C 0.72036 1.01345 0.40404 0.0
C35 C 0.73285 0.99069 0.196 0.0
C36 C 0.76905 1.00088 0.20852 0.0
C37 C 0.78173 0.01883 0.31168 0.0
C38 C 0.7571 0.02565 0.41071 0.0
H39 H 0.60899 0.6917 0.2809 0.0
H40 H 0.61721 0.79842 0.14252 0.0
H41 H 0.54218 0.77619 0.42834 0.0
H42 H 0.52065 0.83143 0.17382 0.0
C43 C 0.54941 0.83918 0.1669 0.0
O44 O 0.56726 0.82724 0.27092 0.0
H45 H 0.55899 0.82375 0.08558 0.0
C46 C 0.60112 0.71971 0.28238 0.0
C47 C 0.57519 0.73051 0.3687 0.0
C48 C 0.61522 0.7435 0.19535 0.0
C49 C 0.60567 0.7798 0.2048 0.0
C50 C 0.57835 0.79201 0.28238 0.0
C51 C 0.56289 0.76712 0.36586 0.0
H52 H 0.20136 0.46066 0.18748 0.0
H53 H 0.30863 0.45594 0.33007 0.0
H54 H 0.28202 0.5343 0.06383 0.0
H55 H 0.32862 0.52881 0.39687 0.0
C56 C 0.34784 0.52993 0.31996 0.0
O57 O 0.3347 0.50975 0.21946 0.0
H58 H 0.34676 0.55879 0.29663 0.0
C59 C 0.22877 0.47039 0.19108 0.0
C60 C 0.23797 0.49796 0.11138 0.0
C61 C 0.25316 0.45649 0.27689 0.0
C62 C 0.28889 0.46848 0.27392 0.0
C63 C 0.29953 0.49787 0.20563 0.0
C64 C 0.27389 0.5126 0.12172 0.0
H65 H 0.96272 0.21524 0.06884 0.0
H66 H 0.97341 0.32064 0.23255 0.0
H67 H 0.06717 0.26378 0.10851 0.0
H68 H 0.07554 0.32723 0.34903 0.0
C69 C 0.04778 0.33705 0.33607 0.0
O70 O 0.04062 0.32751 0.21364 0.0
H71 H 0.03004 0.32126 0.3965 0.0
C72 C 0.97897 0.23824 0.09486 0.0
C73 C 0.01625 0.23525 0.07619 0.0
C74 C 0.96292 0.26784 0.15615 0.0
C75 C 0.98481 0.29727 0.18874 0.0
C76 C 0.02208 0.29682 0.17468 0.0
C77 C 0.03826 0.26515 0.11847 0.0
H78 H 0.33998 0.98435 0.08218 0.0
H79 H 0.23565 0.99484 0.23578 0.0
H80 H 0.28286 0.08481 0.04996 0.0
H81 H 0.22034 0.10091 0.29351 0.0
C82 C 0.21256 0.07216 0.28835 0.0
O83 O 0.22204 0.05966 0.17078 0.0
H84 H 0.22988 0.05903 0.35648 0.0
C85 C 0.31609 1.00069 0.09521 0.0
C86 C 0.31582 0.03585 0.05077 0.0
C87 C 0.28875 0.98749 0.16935 0.0
C88 C 0.25677 1.00641 0.18179 0.0
C89 C 0.25376 0.04175 0.14245 0.0
C90 C 0.28399 0.05709 0.07748 0.0
H91 H 0.4657 0.35582 0.16909 0.0
H92 H 0.45286 0.24662 0.28443 0.0
H93 H 0.52652 0.27123 0.99718 0.0
H94 H 0.53882 0.20831 0.25988 0.0
C95 C 0.51883 0.19371 0.20267 0.0
O96 O 0.49837 0.21825 0.13596 0.0
H97 H 0.53556 0.17805 0.13709 0.0
C98 C 0.47248 0.32757 0.16289 0.0
C99 C 0.49681 0.31719 0.07161 0.0
C100 C 0.45787 0.30293 0.24615 0.0
C101 C 0.46654 0.26643 0.23091 0.0
C102 C 0.49317 0.25473 0.14952 0.0
C103 C 0.50799 0.28029 0.06708 0.0
Gd104 Gd 0.98825 0.04971 0.63437 0.0
Gd105 Gd 0.0507 1.01347 0.84195 0.0
C106 C 0.11122 0.09862 0.06742 0.0
C107 C 0.17006 0.09899 0.97251 0.0
C108 C 0.12417 0.05657 0.90429 0.0
C109 C 0.09999 0.07157 0.98444 0.0
C110 C 0.16013 0.06874 0.90194 0.0
C111 C 0.14552 0.11399 0.05559 0.0
C112 C 0.08931 0.10645 0.16729 0.0
C113 C 0.0597 0.08449 0.18982 0.0
N114 N 0.06778 0.05497 0.99628 0.0
C115 C 0.04951 0.05837 0.10312 0.0
H116 H 0.02635 0.04181 0.12053 0.0
C117 C 0.13953 1.00431 0.79181 0.0
N118 N 0.11382 0.02635 0.84333 0.0
C119 C 0.17536 0.01556 0.78435 0.0
C120 C 0.18553 0.04847 0.83682 0.0
H121 H 0.132 0.97868 0.75165 0.0
H122 H 0.15429 0.13541 0.11669 0.0
H123 H 0.03194 0.02905 0.36493 0.0
H124 H 0.09655 0.12749 0.23176 0.0
H125 H 0.04411 0.08835 0.27197 0.0
H126 H 0.19734 0.10922 0.97025 0.0
H127 H 0.89773 0.05675 0.71959 0.0
H128 H 0.98591 0.93319 0.22203 0.0
H129 H 0.0325 0.98018 0.21835 0.0
H130 H 0.87573 0.92244 0.4411 0.0
H131 H 0.19512 0.99874 0.73883 0.0
H132 H 0.21343 0.05682 0.83309 0.0
H133 H 0.92633 0.91319 0.30275 0.0
H134 H 0.84394 0.01923 0.70938 0.0
N135 N 0.98762 1.0086 0.46764 0.0
C136 C 0.98494 0.95512 0.28758 0.0
C137 C 1.0114 0.98144 0.28529 0.0
C138 C 0.95737 0.9579 0.37321 0.0
C139 C 0.95922 0.98543 0.4632 0.0
C140 C 1.01172 1.0087 0.3737 0.0
N141 N 0.93121 0.01974 0.61943 0.0
C142 C 0.93056 0.99076 0.54243 0.0
C143 C 0.86829 1.01045 0.66383 0.0
C144 C 0.86879 0.97819 0.59808 0.0
C145 C 0.89928 0.03162 0.66957 0.0
C146 C 0.89953 0.96882 0.5319 0.0
H147 H 0.84455 0.96207 0.5921 0.0
O148 O 0.94984 0.07045 0.50594 0.0
O149 O 0.02892 0.06654 0.77983 0.0
O150 O 0.99377 0.01745 0.93916 0.0
O151 O 0.95417 0.04242 0.80313 0.0
O152 O 0.98078 0.09309 0.78158 0.0
O153 O 0.99486 0.1032 0.55826 0.0
O154 O 0.08285 0.96939 0.90944 0.0
O155 O 1.01064 0.99558 0.69632 0.0
O156 O 0.04452 0.05497 0.54534 0.0
O157 O 0.08522 0.03364 0.68451 0.0
O158 O 0.05873 0.96903 0.70029 0.0
O159 O 0.0319 0.98221 0.99229 0.0
C160 C 1.01143 0.09187 0.83625 0.0
C161 C 0.89908 0.93978 0.44915 0.0
C162 C 0.92788 0.93449 0.36985 0.0
C163 C 0.96393 0.10224 0.5039 0.0
C164 C 0.93865 0.13184 0.53061 0.0
C165 C 0.91714 0.13153 0.63548 0.0
C166 C 0.93409 0.15941 0.44763 0.0
C167 C 0.90792 0.18612 0.46823 0.0
C168 C 0.89042 0.15735 0.65428 0.0
C169 C 0.88537 0.18429 0.56998 0.0
C170 C 0.9606 0.02874 0.90994 0.0
C171 C 0.02853 0.96945 0.64395 0.0
C172 C 0.05909 0.96028 0.98876 0.0
C173 C 0.05103 0.92188 0.99586 0.0
C174 C 0.07538 0.89941 0.05406 0.0
C175 C 0.01824 0.90798 0.95353 0.0
C176 C 1.00749 0.87317 0.9837 0.0
C177 C 0.06643 0.86364 0.07375 0.0
C178 C 0.03239 0.85085 0.04228 0.0
C179 C 0.07811 0.04738 0.57756 0.0
H180 H 0.92058 0.11113 0.70222 0.0
H181 H 0.95071 0.16012 0.36695 0.0
H182 H 0.87364 0.15648 0.73445 0.0
H183 H 0.86467 0.2043 0.58568 0.0
H184 H 0.10102 0.9097 0.0859 0.0
H185 H 1.0007 0.92499 0.90262 0.0
H186 H 0.08531 0.84624 0.11837 0.0
H187 H 0.02521 0.82373 0.06696 0.0
Gd188 Gd 0.50564 0.99839 0.64717 0.0
Gd189 Gd 0.53772 0.06638 0.85294 0.0
C190 C 0.46735 0.06738 0.25148 0.0
C191 C 0.43038 0.15214 0.23004 0.0
C192 C 0.49251 0.12065 0.02616 0.0
C193 C 0.49601 0.0769 0.10881 0.0
C194 C 0.46048 0.15858 0.07934 0.0
C195 C 0.43451 0.10563 0.31836 0.0
C196 C 0.47566 0.03531 0.29901 0.0
C197 C 0.50474 0.01574 0.2481 0.0
N198 N 0.51685 0.05128 0.06154 0.0
C199 C 0.52539 0.02477 0.14354 0.0
H200 H 0.54903 1.00838 0.13277 0.0
C201 C 0.49961 0.15075 0.84727 0.0
N202 N 0.50429 0.12012 0.91231 0.0
C203 C 0.47564 0.17954 0.88041 0.0
C204 C 0.45471 0.18252 0.98763 0.0
H205 H 0.5143 0.15352 0.76354 0.0
H206 H 0.41879 0.101 0.39914 0.0
H207 H 0.56238 0.02137 0.42625 0.0
H208 H 0.46141 0.02761 0.37818 0.0
H209 H 0.51282 0.99148 0.29143 0.0
H210 H 0.41112 0.17236 0.25864 0.0
H211 H 0.46375 0.9255 0.76766 0.0
H212 H 0.6359 0.93498 0.36054 0.0
H213 H 0.61422 0.99598 0.31565 0.0
H214 H 0.59032 0.84138 0.60879 0.0
H215 H 0.47287 0.20099 0.8163 0.0
H216 H 0.43564 0.20423 1.00002 0.0
H217 H 0.62733 0.87776 0.47296 0.0
H218 H 0.47715 0.86168 0.80576 0.0
N219 N 0.5555 0.97599 0.53764 0.0
C220 C 0.61317 0.94605 0.41016 0.0
C221 C 0.60081 0.98034 0.38356 0.0
C222 C 0.59512 0.92589 0.49697 0.0
C223 C 0.56568 0.9416 0.55918 0.0
C224 C 0.57148 0.99475 0.44716 0.0
N225 N 0.51474 0.93606 0.68609 0.0
C226 C 0.54465 0.92094 0.63503 0.0
C227 C 0.49658 0.87816 0.75931 0.0
C228 C 0.52889 0.86329 0.7181 0.0
C229 C 0.48917 0.9143 0.73824 0.0
C230 C 0.55276 0.8843 0.65144 0.0
H231 H 0.53433 0.83513 0.73309 0.0
O232 O 0.49353 0.9704 0.47887 0.0
O233 O 0.48586 0.04428 0.77481 0.0
O234 O 0.55186 1.01032 0.93322 0.0
O235 O 0.52303 0.96899 0.81053 0.0
O236 O 0.46019 0.9955 0.78479 0.0
O237 O 0.45011 0.99393 0.58026 0.0
O238 O 0.57752 0.10473 0.78812 0.0
O239 O 0.55436 0.0352 0.68187 0.0
O240 O 0.51002 0.04876 0.52813 0.0
O241 O 0.51472 0.09352 0.67637 0.0
O242 O 0.58926 0.03572 0.82616 0.0
O243 O 0.56601 0.102 0.97828 0.0
C244 C 0.46001 0.02786 0.82871 0.0
C245 C 0.58347 0.86936 0.59622 0.0
C246 C 0.60457 0.89009 0.51893 0.0
C247 C 0.45908 0.97228 0.49142 0.0
C248 C 0.43848 0.93853 0.47356 0.0
C249 C 0.45425 0.90448 0.48637 0.0
C250 C 0.40282 0.94034 0.43513 0.0
C251 C 0.38253 0.9088 0.4147 0.0
C252 C 0.43374 0.87316 0.47253 0.0
C253 C 0.39768 0.87527 0.43896 0.0
C254 C 0.54064 0.97672 0.90897 0.0
C255 C 0.58668 0.02627 0.71323 0.0
C256 C 0.5859 0.11662 0.89588 0.0
C257 C 0.62418 0.11914 0.92711 0.0
C258 C 0.63516 0.14441 0.01582 0.0
C259 C 0.64728 0.09092 0.89473 0.0
C260 C 0.6759 0.08265 0.97043 0.0
C261 C 0.66742 0.13941 0.07822 0.0
C262 C 0.68704 0.10776 0.05926 0.0
C263 C 0.50993 0.08349 0.55917 0.0
H264 H 0.48262 0.90182 0.50346 0.0
H265 H 0.39098 0.96642 0.41847 0.0
H266 H 0.44607 0.84719 0.48537 0.0
H267 H 0.38204 0.85086 0.42784 0.0
H268 H 0.61778 0.1666 0.04204 0.0
H269 H 0.64021 0.07212 0.82366 0.0
H270 H 0.67547 0.15844 0.1486 0.0
H271 H 0.70941 0.10187 0.1183 0.0
Gd272 Gd 0.50035 0.54265 0.8333 0.0
Gd273 Gd 0.56709 0.50701 0.61608 0.0
C274 C 0.68639 0.53733 0.63434 0.0
C275 C 0.69258 0.57716 0.46385 0.0
C276 C 0.63511 0.54896 0.50703 0.0
C277 C 0.64939 0.53359 0.60879 0.0
C278 C 0.65662 0.57043 0.4321 0.0
C279 C 0.70763 0.56018 0.56387 0.0
C280 C 0.70125 0.51664 0.72594 0.0
C281 C 0.67942 0.49256 0.78764 0.0
N282 N 0.62782 0.51246 0.67664 0.0
C283 C 0.64266 0.49079 0.76143 0.0
H284 H 0.62608 0.47224 0.80984 0.0
C285 C 0.58645 0.55217 0.37031 0.0
N286 N 0.60029 0.54181 0.47889 0.0
C287 C 0.60657 0.57371 0.29364 0.0
C288 C 0.64166 0.58348 0.32561 0.0
H289 H 0.55952 0.54459 0.34435 0.0
H290 H 0.73591 0.56405 0.58375 0.0
H291 H 0.44154 0.57739 0.63962 0.0
H292 H 0.72962 0.51837 0.74749 0.0
H293 H 0.69073 0.47575 0.85677 0.0
H294 H 0.70931 0.59429 0.40894 0.0
H295 H 0.50848 0.5039 0.10421 0.0
H296 H 0.33726 0.53393 0.70939 0.0
H297 H 0.37659 0.57528 0.59654 0.0
H298 H 0.35726 0.45817 0.04818 0.0
H299 H 0.5949 0.58198 0.20932 0.0
H300 H 0.65762 0.5997 0.26554 0.0
H301 H 0.33063 0.48888 0.87456 0.0
H302 H 0.4728 0.4665 0.24018 0.0
N303 N 0.43949 0.53756 0.77433 0.0
C304 C 0.36577 0.53498 0.72918 0.0
C305 C 0.38785 0.55835 0.66546 0.0
C306 C 0.38059 0.51408 0.8203 0.0
C307 C 0.41781 0.51693 0.84364 0.0
C308 C 0.42475 0.5593 0.68949 0.0
N309 N 0.46729 0.50774 0.9714 0.0
C310 C 0.43224 0.50122 0.94471 0.0
C311 C 0.4611 0.47551 0.15658 0.0
C312 C 0.42568 0.46667 0.12639 0.0
C313 C 0.48133 0.49687 0.07926 0.0
C314 C 0.41054 0.48027 0.02093 0.0
H315 H 0.4097 0.45066 0.18719 0.0
O316 O 0.49753 0.57545 0.99787 0.0
O317 O 0.55866 0.52907 0.80419 0.0
O318 O 0.55088 0.46253 0.75063 0.0
O319 O 0.49858 0.48108 0.84871 0.0
O320 O 0.545 0.54435 0.97619 0.0
O321 O 0.4754 0.59508 0.83006 0.0
O322 O 0.57006 0.4746 0.4508 0.0
O323 O 0.50878 0.52073 0.64529 0.0
O324 O 0.51685 0.58721 0.69797 0.0
O325 O 0.56903 0.56839 0.60001 0.0
O326 O 0.52224 0.50524 0.47353 0.0
O327 O 0.59209 0.45458 0.61833 0.0
C328 C 0.57188 0.53405 0.91087 0.0
C329 C 0.37422 0.47465 0.99178 0.0
C330 C 0.35912 0.49195 0.89251 0.0
C331 C 0.482 0.60211 0.94371 0.0
C332 C 0.49629 0.63787 0.97058 0.0
C333 C 0.47486 0.66242 0.03562 0.0
C334 C 0.5312 0.64742 0.93507 0.0
C335 C 0.54592 0.68027 0.97508 0.0
C336 C 0.48852 0.69608 0.06832 0.0
C337 C 0.52404 0.70472 0.04075 0.0
C338 C 0.52256 0.45564 0.82129 0.0
C339 C 0.49542 0.51563 0.53894 0.0
C340 C 0.58565 0.44787 0.5043 0.0
C341 C 0.57176 0.4121 0.47525 0.0
C342 C 0.59342 0.38838 0.40757 0.0
C343 C 0.53709 0.40171 0.51109 0.0
C344 C 0.52307 0.36858 0.47058 0.0
C345 C 0.58035 0.35464 0.37312 0.0
C346 C 0.54522 0.34501 0.40222 0.0
C347 C 0.54527 0.59396 0.6272 0.0
H348 H 0.44769 0.65542 0.06189 0.0
H349 H 0.5472 0.6288 0.881 0.0
H350 H 0.47194 0.71508 0.1186 0.0
H351 H 0.53468 0.73031 0.073 0.0
H352 H 0.62034 0.39609 0.38068 0.0
H353 H 0.52091 0.41972 0.56684 0.0
H354 H 0.59712 0.3363 0.32087 0.0
H355 H 0.53509 0.31931 0.36915 0.0
Gd356 Gd 1.0125 0.49679 0.84714 0.0
Gd357 Gd 0.04667 0.562 0.63177 0.0
C358 C 0.01843 0.68173 0.6361 0.0
C359 C 0.97619 0.68536 0.46925 0.0
C360 C 1.00379 0.62823 0.51782 0.0
C361 C 0.0213 0.64428 0.61497 0.0
C362 C 0.98136 0.64865 0.44291 0.0
C363 C 0.9951 0.70201 0.56467 0.0
C364 C 0.0399 0.69783 0.72592 0.0
C365 C 0.06352 0.67668 0.7917 0.0
N366 N 0.04264 0.62367 0.68501 0.0
C367 C 0.06445 0.63951 0.77016 0.0
H368 H 0.08253 0.6234 0.82228 0.0
C369 C 0.99703 0.57711 0.389 0.0
N370 N 1.00981 0.5928 0.49375 0.0
C371 C 0.97415 0.5961 0.31301 0.0
C372 C 0.96575 0.63187 0.34145 0.0
H373 H 1.00356 0.54961 0.36612 0.0
H374 H 0.99206 0.73067 0.58087 0.0
H375 H 0.9766 0.43967 0.64329 0.0
H376 H 0.03877 0.72654 0.7441 0.0
H377 H 0.08056 0.68887 0.86054 0.0
H378 H 0.95869 0.70138 0.41357 0.0
H379 H 0.04981 0.50305 0.12128 0.0
H380 H 0.01759 0.33416 0.70325 0.0
H381 H 0.97781 0.37492 0.59078 0.0
H382 H 0.09213 0.351 0.05342 0.0
H383 H 0.96321 0.58318 0.23238 0.0
H384 H 0.94824 0.64678 0.28276 0.0
H385 H 0.06149 0.32575 0.87329 0.0
H386 H 0.08493 0.46594 0.25881 0.0
N387 N 0.01613 0.43607 0.78149 0.0
C388 C 0.01719 0.3626 0.72654 0.0
C389 C 0.99468 0.38548 0.66303 0.0
C390 C 0.03808 0.37654 0.8218 0.0
C391 C 0.03625 0.41372 0.84915 0.0
C392 C 0.99426 0.42222 0.69261 0.0
N393 N 0.04648 0.46257 0.9828 0.0
C394 C 0.05222 0.4275 0.95272 0.0
C395 C 0.07674 0.45485 0.172 0.0
C396 C 0.08514 0.41941 0.13833 0.0
C397 C 0.0566 0.47587 0.09411 0.0
C398 C 0.07199 0.40501 0.0291 0.0
H399 H 0.10014 0.40277 0.19956 0.0
O400 O 0.97943 0.49788 1.00984 0.0
O401 O 0.02521 0.55557 0.81926 0.0
O402 O 0.09159 0.54796 0.7722 0.0
O403 O 0.07387 0.49635 0.87184 0.0
O404 O 1.01066 0.54296 0.98964 0.0
O405 O 0.96054 0.47069 0.84709 0.0
O406 O 0.07856 0.56388 0.46695 0.0
O407 O 0.0353 0.50354 0.66123 0.0
O408 O 0.96987 0.50766 0.69795 0.0
O409 O 0.98438 0.56374 0.624 0.0
O410 O 0.04877 0.51602 0.48906 0.0
O411 O 0.09891 0.58736 0.63497 0.0
C412 C 0.02037 0.56987 0.92564 0.0
C413 C 0.07657 0.3686 0.99677 0.0
C414 C 0.05926 0.35426 0.89395 0.0
C415 C 0.95316 0.48023 0.95803 0.0
C416 C 0.91711 0.49442 0.9771 0.0
C417 C 0.89119 0.47275 0.0315 0.0
C418 C 0.90826 0.52904 0.93965 0.0
C419 C 0.87422 0.54337 0.96587 0.0
C420 C 0.85662 0.4859 0.05096 0.0
C421 C 0.84835 0.52112 0.02098 0.0
C422 C 0.09898 0.52055 0.84549 0.0
C423 C 0.04021 0.48922 0.55514 0.0
C424 C 0.10539 0.58006 0.52137 0.0
C425 C 0.14125 0.56621 0.49534 0.0
C426 C 0.16585 0.58847 0.43681 0.0
C427 C 0.15132 0.53147 0.52908 0.0
C428 C 0.18508 0.51792 0.49466 0.0
C429 C 0.20018 0.57594 0.40938 0.0
C430 C 0.20956 0.54072 0.43567 0.0
C431 C 0.96083 0.53705 0.63773 0.0
H432 H 0.89768 0.4457 0.05859 0.0
H433 H 0.92808 0.54433 0.89125 0.0
H434 H 0.83646 0.4691 0.09242 0.0
H435 H 0.82177 0.53114 0.04325 0.0
H436 H 0.15847 0.61555 0.41249 0.0
H437 H 0.13267 0.51496 0.57891 0.0
H438 H 0.21928 0.59326 0.36484 0.0
H439 H 0.23584 0.53106 0.40786 0.0
C440 C 0.15291 0.09585 0.38848 0.0
C441 C 0.17233 0.06678 0.3328 0.0
C442 C 0.13186 0.0257 0.4427 0.0
C443 C 0.10988 0.05437 0.48953 0.0
N444 N 0.09652 0.11759 0.47739 0.0
N445 N 0.16644 1.00494 0.26916 0.0
C446 C 0.11938 0.08977 0.45256 0.0
C447 C 0.15767 0.03198 0.34853 0.0
N448 N 0.16763 0.12923 0.38144 0.0
N449 N 0.1294 0.99225 0.48936 0.0
H450 H 0.18 1.01008 0.18872 0.0
H451 H 0.15491 0.97941 0.27291 0.0
H452 H 0.11217 0.98627 0.56014 0.0
H453 H 0.14704 0.97157 0.46488 0.0
H454 H 0.15758 0.15208 0.42593 0.0
H455 H 0.15758 0.15208 0.42593 0.0
H456 H 0.10024 0.14349 0.44573 0.0
H457 H 0.07154 0.1139 0.51766 0.0
C458 C 0.48736 0.12729 0.23634 0.0
C459 C 0.49656 0.16594 0.27925 0.0
C460 C 0.48561 0.14563 0.48864 0.0
C461 C 0.50195 0.11228 0.45973 0.0
N462 N 0.5439 0.09538 0.3003 0.0
N463 N 0.49375 0.20784 0.45662 0.0
C464 C 0.51181 0.11007 0.332 0.0
C465 C 0.49066 0.17429 0.40709 0.0
N466 N 0.44596 0.10495 0.12854 0.0
N467 N 0.46614 0.15074 0.59167 0.0
H468 H 0.5008 0.23049 0.40807 0.0
H469 H 0.5008 0.23049 0.40807 0.0
H470 H 0.45921 0.1294 0.647 0.0
H471 H 0.45414 0.17549 0.6123 0.0
H472 H 0.42364 0.10867 0.06966 0.0
H473 H 0.42364 0.10867 0.06966 0.0
H474 H 0.55456 0.09816 0.21354 0.0
H475 H 0.56016 0.08322 0.36414 0.0
C476 C 0.39409 0.49683 0.46193 0.0
C477 C 0.38726 0.52077 0.36423 0.0
C478 C 0.45091 0.54175 0.38452 0.0
C479 C 0.45734 0.51861 0.4843 0.0
N480 N 0.43781 0.46583 0.58634 0.0
N481 N 0.41405 0.55682 0.20982 0.0
C482 C 0.4297 0.49362 0.5128 0.0
C483 C 0.41726 0.54041 0.31894 0.0
N484 N 0.36636 0.47794 0.51071 0.0
N485 N 0.47696 0.56572 0.35281 0.0
H486 H 0.39084 0.5548 0.15718 0.0
H487 H 0.43545 0.56863 0.1645 0.0
H488 H 0.50166 0.56746 0.39688 0.0
H489 H 0.47308 0.586 0.29056 0.0
H490 H 0.36839 0.4636 0.59046 0.0
H491 H 0.3404 0.47872 0.47718 0.0
H492 H 0.42053 0.44438 0.60197 0.0
H493 H 0.46368 0.46218 0.61979 0.0
C494 C 0.06713 0.38862 0.48847 0.0
C495 C 0.04604 0.37814 0.38361 0.0
C496 C 0.01801 0.43987 0.40161 0.0
C497 C 0.04024 0.45002 0.50283 0.0
N498 N 0.09436 0.43662 0.60931 0.0
N499 N 0.99748 0.39552 0.25145 0.0
C500 C 0.06714 0.42507 0.53587 0.0
C501 C 0.02052 0.4044 0.34331 0.0
N502 N 0.08549 0.36318 0.55138 0.0
N503 N 0.99552 0.46522 0.35597 0.0
H504 H 1.00097 0.37347 0.19414 0.0
H505 H 0.97421 0.40976 0.23225 0.0
H506 H 0.99093 0.48983 0.39974 0.0
H507 H 0.9827 0.46298 0.27246 0.0
H508 H 0.09811 0.36873 0.63393 0.0
H509 H 0.08428 0.33569 0.53293 0.0
H510 H 0.11742 0.42151 0.62451 0.0
H511 H 0.09595 0.46304 0.64191 0.0
C512 C 0.88083 0.99144 0.10605 0.0
C513 C 0.87258 0.02097 0.18569 0.0
C514 C 0.91364 0.0578 0.06022 0.0
C515 C 0.92829 0.02668 0.99994 0.0
N516 N 0.90804 0.97048 0.91543 0.0
N517 N 0.88181 0.08465 0.22753 0.0
C518 C 0.90683 0.99502 1.00876 0.0
C519 C 0.88908 0.05457 0.15976 0.0
N520 N 0.8637 0.95985 0.1272 0.0
N521 N 0.91983 0.09105 0.01539 0.0
H522 H 0.86439 0.08535 0.30177 0.0
H523 H 0.86439 0.08535 0.30177 0.0
H524 H 0.93343 0.09481 0.93431 0.0
H525 H 0.90902 0.11441 0.05472 0.0
H526 H 0.86861 0.93575 0.08036 0.0
H527 H 0.86861 0.93575 0.08036 0.0
H528 H 0.89013 0.94914 0.90492 0.0
H529 H 0.92478 0.9739 0.84099 0.0
C530 C 0.52268 0.90249 0.14733 0.0
C531 C 0.55317 0.88002 0.13638 0.0
C532 C 0.57726 0.92212 0.98354 0.0
C533 C 0.54638 0.94466 0.9937 0.0
N534 N 0.48305 0.94095 0.03867 0.0
N535 N 0.61452 0.87572 0.07174 0.0
C536 C 0.51732 0.93114 0.06476 0.0
C537 C 0.58208 0.89231 0.06337 0.0
N538 N 0.49799 0.89595 0.23543 0.0
N539 N 0.59953 0.92584 0.88655 0.0
H540 H 0.61923 0.85674 0.13776 0.0
H541 H 0.63749 0.88415 0.02628 0.0
H542 H 0.59317 0.94294 0.81638 0.0
H543 H 0.62074 0.90847 0.86644 0.0
H544 H 0.47636 0.91306 0.25266 0.0
H545 H 0.5018 0.87594 0.29911 0.0
H546 H 0.46046 0.92967 0.07915 0.0
H547 H 0.47701 0.95528 0.96172 0.0
C548 C 0.67263 0.55466 0.99102 0.0
C549 C 0.6796 0.53072 0.08848 0.0
C550 C 0.61649 0.50839 0.06561 0.0
C551 C 0.60993 0.5315 0.96586 0.0
N552 N 0.62868 0.58478 0.86529 0.0
N553 N 0.65328 0.49353 0.24071 0.0
C554 C 0.63717 0.55704 0.93844 0.0
C555 C 0.64996 0.51022 0.13209 0.0
N556 N 0.70006 0.57457 0.94476 0.0
N557 N 0.59068 0.48409 0.09671 0.0
H558 H 0.67631 0.49586 0.29411 0.0
H559 H 0.63209 0.48106 0.28504 0.0
H560 H 0.56604 0.48216 0.05243 0.0
H561 H 0.59468 0.46378 0.15873 0.0
H562 H 0.69813 0.58877 0.86469 0.0
H563 H 0.7257 0.57508 0.9813 0.0
H564 H 0.6456 0.60656 0.85025 0.0
H565 H 0.60274 0.58813 0.83208 0.0
C566 C 1.00436 0.67276 0.01069 0.0
C567 C 0.02543 0.67798 0.1185 0.0
C568 C 0.0449 0.6136 0.09299 0.0
C569 C 0.02435 0.60844 0.98395 0.0
N570 N 0.97903 0.63257 0.8556 0.0
N571 N 0.05746 0.64894 0.27765 0.0
C572 C 1.00224 0.63789 0.94927 0.0
C573 C 0.04307 0.64692 0.16387 0.0
N574 N 0.98733 0.70159 0.96252 0.0
N575 N 0.06746 0.58678 0.12772 0.0
H576 H 0.05546 0.67196 0.3328 0.0
H577 H 0.06762 0.62694 0.323 0.0
H578 H 0.07016 0.56268 0.0789 0.0
H579 H 0.08616 0.58957 0.19732 0.0
H580 H 0.97521 0.70131 0.87761 0.0
H581 H 0.98675 0.72676 1.00459 0.0
H582 H 0.95826 0.64999 0.83399 0.0
H583 H 0.98033 0.60943 0.80177 0.0
C584 C 0.92017 0.2771 0.32758 0.0
C585 C 0.92539 0.26454 0.20767 0.0
C586 C 0.89496 0.20898 0.26008 0.0
C587 C 0.90499 0.21614 0.38278 0.0
N588 N 0.92414 0.26007 0.53605 0.0
N589 N 0.89589 0.23051 0.05167 0.0
C590 C 0.91579 0.25144 0.41864 0.0
C591 C 0.90437 0.23465 0.17121 0.0
N592 N 0.91755 0.31297 0.3523 0.0
N593 N 0.8783 0.17738 0.22955 0.0
H594 H 0.90398 0.2497 0.98925 0.0
H595 H 0.88024 0.20963 0.01622 0.0
H596 H 0.87011 0.15923 0.29504 0.0
H597 H 0.87228 0.16937 0.14102 0.0
H598 H 0.91161 0.32327 0.4387 0.0
H599 H 0.91724 0.33151 0.28243 0.0
H600 H 0.93516 0.28493 0.56109 0.0
H601 H 0.92245 0.24188 0.60634 0.0
C602 C 0.30101 0.96021 0.37356 0.0
C603 C 0.29681 0.95588 0.24528 0.0
C604 C 0.33799 0.90491 0.24415 0.0
C605 C 0.34554 0.91258 0.36767 0.0
N606 N 0.32284 0.93382 0.55902 0.0
N607 N 0.30186 0.91596 0.07 0.0
C608 C 0.32223 0.93498 0.4355 0.0
C609 C 0.31109 0.92485 0.18606 0.0
N610 N 0.28888 0.99016 0.43459 0.0
N611 N 0.35765 0.88025 0.17938 0.0
H612 H 0.28221 0.92967 0.02177 0.0
H613 H 0.28221 0.92967 0.02177 0.0
H614 H 0.37798 0.86501 0.21753 0.0
H615 H 0.35328 0.87515 0.08714 0.0
H616 H 0.29579 0.99622 0.5242 0.0
H617 H 0.27402 1.01045 0.39578 0.0
H618 H 0.30463 0.94775 0.61433 0.0
H619 H 0.33939 0.91579 0.60414 0.0
C620 C 0.43115 0.35303 0.36463 0.0
C621 C 0.43822 0.31594 0.35882 0.0
C622 C 0.47799 0.32303 0.53033 0.0
C623 C 0.48487 0.35825 0.48885 0.0
N624 N 0.45848 0.41085 0.39689 0.0
N625 N 0.43912 0.27035 0.50897 0.0
C626 C 0.45757 0.37517 0.42009 0.0
C627 C 0.45149 0.30228 0.46819 0.0
N628 N 0.4047 0.36735 0.29641 0.0
N629 N 0.49876 0.30909 0.61919 0.0
H630 H 0.41921 0.25616 0.46136 0.0
H631 H 0.44673 0.2598 0.59184 0.0
H632 H 0.51793 0.32491 0.66446 0.0
H633 H 0.49716 0.28238 0.64528 0.0
H634 H 0.38679 0.35123 0.24662 0.0
H635 H 0.38679 0.35123 0.24662 0.0
H636 H 0.43818 0.4231 0.34774 0.0
H637 H 0.4786 0.42796 0.42867 0.0
C638 C 0.25181 0.44753 0.49718 0.0
C639 C 0.24008 0.43461 0.38267 0.0
C640 C 0.17981 0.45254 0.43304 0.0
C641 C 0.19533 0.47969 0.50982 0.0
N642 N 0.24223 0.4923 0.65545 0.0
N643 N 0.1917 0.3973 0.31493 0.0
C644 C 0.22983 0.47289 0.55845 0.0
C645 C 0.2033 0.42625 0.38113 0.0
N646 N 0.2837 0.43733 0.54444 0.0
N647 N 0.1448 0.45407 0.39908 0.0
H648 H 0.21015 0.38051 0.27015 0.0
H649 H 0.16493 0.38905 0.31225 0.0
H650 H 0.1271 0.47355 0.43172 0.0
H651 H 0.13364 0.43577 0.33771 0.0
H652 H 0.30009 0.41823 0.50111 0.0
H653 H 0.30009 0.41823 0.50111 0.0
H654 H 0.26808 0.48868 0.68989 0.0
H655 H 0.22599 0.51127 0.70011 0.0
C656 C 0.91928 0.85145 0.10552 0.0
C657 C 0.93009 0.81545 0.10932 0.0
C658 C 0.96495 0.82418 0.92725 0.0
C659 C 0.96976 0.86024 0.96867 0.0
N660 N 0.93821 0.91083 0.06668 0.0
N661 N 0.93033 0.76914 0.95497 0.0
C662 C 0.94197 0.87519 0.04373 0.0
C663 C 0.94162 0.80198 0.99523 0.0
N664 N 0.89235 0.86404 0.17752 0.0
N665 N 0.98494 0.81103 0.83297 0.0
H666 H 0.91302 0.75372 1.00766 0.0
H667 H 0.9363 0.75896 0.86854 0.0
H668 H 1.0019 0.82787 0.78408 0.0
H669 H 0.98495 0.78397 0.8066 0.0
H670 H 0.877 0.84699 0.23116 0.0
H671 H 0.877 0.84699 0.23116 0.0
H672 H 0.95428 0.93041 0.02794 0.0
H673 H 0.95428 0.93041 0.02794 0.0
C674 C 0.73538 1.0005 0.97414 0.0
C675 C 0.71746 0.98382 0.07084 0.0
C676 C 0.66481 0.01915 0.03534 0.0
C677 C 0.68749 0.04483 0.97791 0.0
N678 N 0.74149 0.05577 0.86224 0.0
N679 N 0.66017 0.95705 0.10166 0.0
C680 C 0.72185 0.03397 0.93494 0.0
C681 C 0.67995 0.98548 0.06401 0.0
N682 N 0.7647 0.98438 0.92337 0.0
N683 N 0.63051 0.0275 0.06974 0.0
H684 H 0.67285 0.93359 0.1296 0.0
H685 H 0.63224 0.95659 0.10092 0.0
H686 H 0.61908 0.05272 0.05905 0.0
H687 H 0.61379 1.00971 0.11441 0.0
H688 H 0.77794 0.99418 0.84751 0.0
H689 H 0.77383 0.95975 0.9552 0.0
H690 H 0.76793 0.05022 0.83695 0.0
H691 H 0.7312 0.07985 0.83002 0.0
C692 C 0.63989 0.69266 0.0757 0.0
C693 C 0.63412 0.72982 0.08189 0.0
C694 C 0.59277 0.72399 0.9142 0.0
C695 C 0.58449 0.68941 0.95862 0.0
N696 N 0.60784 0.63644 0.05649 0.0
N697 N 0.63413 0.7749 0.92958 0.0
C698 C 0.61138 0.67148 0.02682 0.0
C699 C 0.62074 0.74364 0.97268 0.0
N700 N 0.66897 0.67863 0.13208 0.0
N701 N 0.57217 0.73843 0.82573 0.0
H702 H 0.65502 0.78831 0.97488 0.0
H703 H 0.62623 0.78566 0.84735 0.0
H704 H 0.55202 0.72334 0.78264 0.0
H705 H 0.57493 0.76484 0.79747 0.0
H706 H 0.67562 0.65145 0.12734 0.0
H707 H 0.6876 0.69555 0.17541 0.0
H708 H 0.62686 0.62334 0.10787 0.0
H709 H 0.58635 0.6204 0.02931 0.0
C710 C 0.85952 0.63205 0.09152 0.0
C711 C 0.82253 0.62417 0.09199 0.0
C712 C 0.83019 0.58966 0.90635 0.0
C713 C 0.86533 0.58195 0.94828 0.0
N714 N 0.91828 0.60989 0.03873 0.0
N715 N 0.77741 0.62767 0.93758 0.0
C716 C 0.88207 0.6084 0.02444 0.0
C717 C 0.80932 0.61443 0.97605 0.0
N718 N 0.87346 0.65707 0.16926 0.0
N719 N 0.81613 0.57045 0.81144 0.0
H720 H 0.76282 0.64575 0.99214 0.0
H721 H 0.76722 0.62239 0.85107 0.0
H722 H 0.83179 0.55178 0.76305 0.0
H723 H 0.78939 0.57255 0.78448 0.0
H724 H 0.85711 0.67305 0.22542 0.0
H725 H 0.85711 0.67305 0.22542 0.0
H726 H 0.93049 0.62965 0.09287 0.0
H727 H 0.9358 0.593 0.99169 0.0
C728 C 0.01793 0.16699 0.09201 0.0
C729 C 0.02872 0.19775 0.02677 0.0
C730 C 0.04288 0.15484 0.85447 0.0
C731 C 0.02452 0.12571 0.911 0.0
N732 N 0.98991 0.10856 0.08554 0.0
N733 N 0.05084 0.22001 0.83796 0.0
C734 C 1.01084 0.13329 0.03024 0.0
C735 C 0.04147 0.19128 0.90596 0.0
N736 N 0.01384 0.17014 0.21479 0.0
N737 N 0.06184 0.14771 0.75125 0.0
H738 H 0.05091 0.2462 0.87363 0.0
H739 H 0.05655 0.21798 0.74559 0.0
H740 H 0.0645 0.12151 0.71745 0.0
H741 H 0.07797 0.16661 0.70875 0.0
H742 H 1.00946 0.14815 0.26998 0.0
H743 H 0.01896 0.1942 0.26208 0.0
H744 H 0.97577 0.11382 0.16567 0.0
H745 H 0.98594 0.08307 0.04814 0.0
C746 C 0.38338 0.04066 0.06906 0.0
C747 C 0.35263 0.04831 0.99853 0.0
C748 C 0.39567 0.05674 0.82469 0.0
C749 C 0.42515 0.04227 0.89188 0.0
N750 N 0.43983 1.01009 0.07116 0.0
N751 N 0.33019 0.06201 0.80095 0.0
C752 C 0.41679 0.0316 0.01214 0.0
C753 C 0.35906 0.0565 0.87402 0.0
N754 N 0.38012 0.04004 0.19238 0.0
N755 N 0.40233 0.06953 0.71189 0.0
H756 H 0.30398 0.06253 0.83477 0.0
H757 H 0.33207 0.06415 0.70719 0.0
H758 H 0.428 0.06909 0.67367 0.0
H759 H 0.38323 0.08296 0.661 0.0
H760 H 0.40141 0.0344 0.24992 0.0
H761 H 0.35655 0.048 0.23694 0.0
H762 H 0.43232 0.99545 0.14688 0.0
H763 H 0.46563 1.00603 0.03935 0.0
C764 C 0.48121 0.36194 0.90876 0.0
C765 C 0.50797 0.34679 0.98348 0.0
C766 C 0.54692 0.39916 0.93407 0.0
C767 C 0.51782 0.41742 0.87526 0.0
N768 N 0.45398 0.41516 0.82874 0.0
N769 N 0.56622 0.35284 0.07359 0.0
C770 C 0.48415 0.39841 0.86861 0.0
C771 C 0.54095 0.36578 0.99637 0.0
N772 N 0.45254 0.34107 0.87512 0.0
N773 N 0.58052 0.41377 0.93343 0.0
H774 H 0.56348 0.32808 0.1153 0.0
H775 H 0.58875 0.36741 0.10157 0.0
H776 H 0.58585 0.4394 0.90348 0.0
H777 H 0.6035 0.39977 0.95816 0.0
H778 H 0.43398 0.34861 0.80976 0.0
H779 H 0.44983 0.31449 0.90237 0.0
H780 H 0.4283 0.4042 0.83623 0.0
H781 H 0.45357 0.44138 0.80011 0.0
C782 C 0.19339 0.48161 0.9426 0.0
C783 C 0.20798 0.50872 0.02093 0.0
C784 C 0.15475 0.54646 0.96671 0.0
C785 C 0.13727 0.51692 0.90392 0.0
N786 N 0.14071 0.45286 0.858 0.0
N787 N 0.20028 0.5672 0.11212 0.0
C788 C 0.15691 0.48364 0.89907 0.0
C789 C 0.18815 0.54137 0.03275 0.0
N790 N 0.21484 0.4534 0.9085 0.0
N791 N 0.13921 0.57961 0.96657 0.0
H792 H 0.2249 0.56513 0.1563 0.0
H793 H 0.18524 0.58955 0.13917 0.0
H794 H 0.11365 0.5841 0.9329 0.0
H795 H 0.15233 0.60301 0.99516 0.0
H796 H 0.20767 0.43463 0.84134 0.0
H797 H 0.24149 0.45138 0.93708 0.0
H798 H 0.15216 0.42749 0.86622 0.0
H799 H 0.11444 0.45168 0.82815 0.0
C800 C 0.98113 0.87666 0.54468 0.0
C801 C 1.00656 0.86115 0.46004 0.0
C802 C 0.0412 0.9188 0.4827 0.0
C803 C 0.0171 0.9339 0.57225 0.0
N804 N 0.96563 0.92276 0.69741 0.0
N805 N 0.06486 0.86697 0.36924 0.0
C806 C 0.98749 0.9114 0.60532 0.0
C807 C 0.03783 0.88208 0.43658 0.0
N808 N 0.95025 0.85803 0.56707 0.0
N809 N 0.06622 0.94089 0.43324 0.0
H810 H 0.06322 0.8411 0.33196 0.0
H811 H 0.09015 0.87862 0.35987 0.0
H812 H 0.06639 0.96827 0.45347 0.0
H813 H 0.08253 0.93378 0.35982 0.0
H814 H 0.92817 0.86894 0.61255 0.0
H815 H 0.94622 0.83171 0.53541 0.0
H816 H 0.94618 0.90681 0.73783 0.0
H817 H 0.96875 0.94787 0.73882 0.0
C818 C 0.6629 0.04742 0.4714 0.0
C819 C 0.69007 0.02154 0.49726 0.0
C820 C 0.65124 1.00116 0.66776 0.0
C821 C 0.62219 0.02469 0.63558 0.0
N822 N 0.60841 0.07914 0.53046 0.0
N823 N 0.70715 0.97054 0.61295 0.0
C824 C 0.63037 0.05023 0.54367 0.0
C825 C 0.68332 0.99776 0.59397 0.0
N826 N 0.66729 0.06848 0.37235 0.0
N827 N 0.64971 0.98365 0.77488 0.0
H828 H 0.73161 0.96845 0.56693 0.0
H829 H 0.7017 0.94873 0.66776 0.0
H830 H 0.62927 0.9877 0.83752 0.0
H831 H 0.67079 0.96866 0.8094 0.0
H832 H 0.64666 0.08357 0.33506 0.0
H833 H 0.69117 0.06916 0.32267 0.0
H834 H 0.61533 0.10153 0.48025 0.0
H835 H 0.58438 0.08225 0.57715 0.0
C836 C 0.5886 0.68653 0.53633 0.0
C837 C 0.56279 0.70148 0.45761 0.0
C838 C 0.52233 0.65041 0.51032 0.0
C839 C 0.5507 0.63203 0.57241 0.0
N840 N 0.61439 0.6335 0.62188 0.0
N841 N 0.50495 0.69563 0.36398 0.0
C842 C 0.58471 0.65047 0.57926 0.0
C843 C 0.52946 0.68301 0.44444 0.0
N844 N 0.61731 0.70719 0.57117 0.0
N845 N 0.48833 0.63671 0.5115 0.0
H846 H 0.50851 0.71981 0.31934 0.0
H847 H 0.48227 0.68124 0.33634 0.0
H848 H 0.48205 0.61188 0.54662 0.0
H849 H 0.46588 0.65092 0.48306 0.0
H850 H 0.63513 0.69982 0.63906 0.0
H851 H 0.6207 0.73352 0.54219 0.0
H852 H 0.64029 0.64399 0.61492 0.0
H853 H 0.61421 0.60746 0.65198 0.0
C854 C 0.87609 0.5155 0.4351 0.0
C855 C 0.85495 0.54742 0.44786 0.0
C856 C 0.90016 0.5703 0.59916 0.0
C857 C 0.92285 0.5398 0.57875 0.0
N858 N 0.92746 0.47984 0.5058 0.0
N859 N 0.84602 0.60427 0.55048 0.0
C860 C 0.90893 0.51129 0.50474 0.0
C861 C 0.86688 0.57435 0.53316 0.0
N862 N 0.86577 0.49004 0.35146 0.0
N863 N 0.90903 0.59404 0.68987 0.0
H864 H 0.82011 0.60623 0.51512 0.0
H865 H 0.85409 0.62739 0.59738 0.0
H866 H 0.92984 0.58876 0.7489 0.0
H867 H 0.89404 0.6164 0.71637 0.0
H868 H 0.88175 0.46857 0.32285 0.0
H869 H 0.84136 0.49144 0.30581 0.0
H870 H 0.91932 0.45598 0.46289 0.0
H871 H 0.91932 0.45598 0.46289 0.0
loop_
_geom_bond_atom_site_label_1
_geom_bond_atom_site_label_2
_geom_bond_distance
_geom_bond_site_symmetry_2
_ccdc_geom_bond_type
H0 C7 0.929 . S
H1 C10 0.930 . S
H2 C12 0.929 . S
H3 C4 0.969 . S
C4 H3 0.969 . S
C4 O5 1.550 . S
C4 H6 0.973 . S
O5 C4 1.550 . S
O5 C11 1.412 . S
H6 C4 0.973 . S
C7 H0 0.929 . S
C7 C8 1.400 . S
C7 C9 1.364 . S
C8 C7 1.400 . S
C8 C12 1.377 . S
C9 C7 1.364 . S
C9 C10 1.374 . S
C10 H1 0.930 . S
C10 C9 1.374 . S
C10 C11 1.383 . S
C11 O5 1.412 . S
C11 C10 1.383 . S
C11 C12 1.394 . S
C12 H2 0.929 . S
C12 C8 1.377 . S
C12 C11 1.394 . S
H13 C20 0.929 . S
H14 C23 0.930 . S
H15 C25 0.929 . S
H16 C17 0.969 . S
C17 H16 0.969 . S
C17 O18 1.550 . S
C17 H19 0.973 . S
O18 C17 1.550 . S
O18 C24 1.412 . S
H19 C17 0.973 . S
C20 H13 0.929 . S
C20 C21 1.400 . S
C20 C22 1.364 . S
C21 C20 1.400 . S
C21 C25 1.377 . S
C22 C20 1.364 . S
C22 C23 1.374 . S
C23 H14 0.930 . S
C23 C22 1.374 . S
C23 C24 1.383 . S
C24 O18 1.412 . S
C24 C23 1.383 . S
C24 C25 1.394 . S
C25 H15 0.929 . S
C25 C21 1.377 . S
C25 C24 1.394 . S
H26 C33 0.929 . S
H27 C36 0.930 . S
H28 C38 0.929 . S
H29 C30 0.959 1_545 S
C30 H29 0.959 1_565 S
C30 O31 1.550 . S
C30 H32 0.973 . S
O31 C30 1.550 . S
O31 C37 1.412 . S
H32 C30 0.973 . S
C33 H26 0.929 . S
C33 C34 1.400 . S
C33 C35 1.364 . S
C34 C33 1.400 . S
C34 C38 1.377 . S
C35 C33 1.364 . S
C35 C36 1.374 . S
C36 H27 0.930 . S
C36 C35 1.374 . S
C36 C37 1.383 . S
C37 O31 1.412 . S
C37 C36 1.383 . S
C37 C38 1.394 . S
C38 H28 0.929 . S
C38 C34 1.377 . S
C38 C37 1.394 . S
H39 C46 0.929 . S
H40 C49 0.930 . S
H41 C51 0.929 . S
H42 C43 0.969 . S
C43 H42 0.969 . S
C43 O44 1.550 . S
C43 H45 0.973 . S
O44 C43 1.550 . S
O44 C50 1.412 . S
H45 C43 0.973 . S
C46 H39 0.929 . S
C46 C47 1.400 . S
C46 C48 1.364 . S
C47 C46 1.400 . S
C47 C51 1.377 . S
C48 C46 1.364 . S
C48 C49 1.374 . S
C49 H40 0.930 . S
C49 C48 1.374 . S
C49 C50 1.383 . S
C50 O44 1.412 . S
C50 C49 1.383 . S
C50 C51 1.394 . S
C51 H41 0.929 . S
C51 C47 1.377 . S
C51 C50 1.394 . S
H52 C59 0.929 . S
H53 C62 0.930 . S
H54 C64 0.929 . S
H55 C56 0.969 . S
C56 H55 0.969 . S
C56 O57 1.550 . S
C56 H58 0.973 . S
O57 C56 1.550 . S
O57 C63 1.412 . S
H58 C56 0.973 . S
C59 H52 0.929 . S
C59 C60 1.400 . S
C59 C61 1.364 1_556 S
C60 C59 1.400 . S
C60 C64 1.377 . S
C61 C59 1.364 1_554 S
C61 C62 1.374 . S
C62 H53 0.930 . S
C62 C61 1.374 . S
C62 C63 1.383 . S
C63 O57 1.412 . S
C63 C62 1.383 . S
C63 C64 1.394 1_554 S
C64 H54 0.929 . S
C64 C60 1.377 . S
C64 C63 1.394 1_556 S
H65 C72 0.929 . S
H66 C75 0.930 . S
H67 C77 0.929 . S
H68 C69 0.969 . S
C69 H68 0.969 . S
C69 O70 1.550 . S
C69 H71 0.973 . S
O70 C69 1.550 . S
O70 C76 1.412 . S
H71 C69 0.973 . S
C72 H65 0.929 . S
C72 C73 1.400 . S
C72 C74 1.364 1_556 S
C73 C72 1.400 . S
C73 C77 1.377 . S
C74 C72 1.364 1_554 S
C74 C75 1.374 . S
C75 H66 0.930 . S
C75 C74 1.374 . S
C75 C76 1.383 . S
C76 O70 1.412 . S
C76 C75 1.383 . S
C76 C77 1.394 1_554 S
C77 H67 0.929 . S
C77 C73 1.377 . S
C77 C76 1.394 1_556 S
H78 C85 0.929 . S
H79 C88 0.930 . S
H80 C90 0.929 . S
H81 C82 0.969 . S
C82 H81 0.969 . S
C82 O83 1.550 . S
C82 H84 0.973 . S
O83 C82 1.550 . S
O83 C89 1.412 . S
H84 C82 0.973 . S
C85 H78 0.929 . S
C85 C86 1.400 . S
C85 C87 1.364 1_556 S
C86 C85 1.400 . S
C86 C90 1.377 . S
C87 C85 1.364 1_554 S
C87 C88 1.374 . S
C88 H79 0.930 . S
C88 C87 1.374 . S
C88 C89 1.383 . S
C89 O83 1.412 . S
C89 C88 1.383 . S
C89 C90 1.394 1_554 S
C90 H80 0.929 . S
C90 C86 1.377 . S
C90 C89 1.394 1_556 S
H91 C98 0.929 . S
H92 C101 0.930 . S
H93 C103 0.929 . S
H94 C95 0.969 . S
C95 H94 0.969 . S
C95 O96 1.550 . S
C95 H97 0.973 . S
O96 C95 1.550 . S
O96 C102 1.412 . S
H97 C95 0.973 . S
C98 H91 0.929 . S
C98 C99 1.400 . S
C98 C100 1.364 1_556 S
C99 C98 1.400 . S
C99 C103 1.377 . S
C100 C98 1.364 1_554 S
C100 C101 1.374 . S
C101 H92 0.930 . S
C101 C100 1.374 . S
C101 C102 1.383 . S
C102 O96 1.412 . S
C102 C101 1.383 . S
C102 C103 1.394 1_554 S
C103 H93 0.929 . S
C103 C99 1.377 . S
C103 C102 1.394 1_556 S
Gd104 N135 2.661 1_545 S
Gd104 N141 2.601 . S
Gd104 O148 2.545 . S
Gd104 O149 2.606 1_655 S
Gd104 O151 2.429 . S
Gd104 O152 2.545 1_655 S
Gd104 O153 2.412 . S
Gd104 O155 2.362 1_545 S
Gd104 O156 2.324 1_655 S
Gd104 C163 2.828 . S
Gd105 N114 2.661 1_566 S
Gd105 N118 2.601 1_565 S
Gd105 O149 2.362 1_565 S
Gd105 O150 2.324 1_455 S
Gd105 O154 2.545 . S
Gd105 O155 2.606 1_455 S
Gd105 O157 2.429 . S
Gd105 O158 2.545 . S
Gd105 O159 2.412 1_556 S
Gd105 C172 2.828 . S
C106 C109 1.417 . S
C106 C111 1.431 . S
C106 C112 1.412 . S
C107 C110 1.437 . S
C107 C111 1.317 . S
C107 H126 0.929 . S
C108 C109 1.426 . S
C108 C110 1.413 . S
C108 N118 1.359 1_554 S
C109 C106 1.417 . S
C109 C108 1.426 . S
C109 N114 1.350 . S
C110 C107 1.437 . S
C110 C108 1.413 . S
C110 C120 1.391 . S
C111 C106 1.431 . S
C111 C107 1.317 . S
C111 H122 0.930 . S
C112 C106 1.412 . S
C112 C113 1.355 . S
C112 H124 0.930 . S
C113 C112 1.355 . S
C113 C115 1.402 . S
C113 H125 0.930 1_455 S
N114 Gd105 2.661 1_544 S
N114 C109 1.350 . S
N114 C115 1.307 . S
C115 C113 1.402 . S
C115 N114 1.307 . S
C115 H116 0.930 1_455 S
H116 C115 0.930 1_655 S
C117 N118 1.334 1_565 S
C117 C119 1.394 . S
C117 H121 0.930 . S
N118 Gd105 2.601 1_545 S
N118 C108 1.359 1_556 S
N118 C117 1.334 1_545 S
C119 C117 1.394 . S
C119 C120 1.359 1_566 S
C119 H131 0.930 . S
C120 C110 1.391 . S
C120 C119 1.359 1_544 S
C120 H132 0.929 . S
H121 C117 0.930 . S
H122 C111 0.930 . S
H123 C140 0.930 . S
H124 C112 0.930 . S
H125 C113 0.930 1_655 S
H126 C107 0.929 . S
H127 C145 0.930 . S
H128 C136 0.930 . S
H129 C137 0.930 . S
H130 C161 0.929 . S
H131 C119 0.930 . S
H132 C120 0.929 . S
H133 C162 0.930 . S
H134 C143 0.930 . S
N135 Gd104 2.661 1_565 S
N135 C139 1.350 . S
N135 C140 1.307 1_655 S
C136 H128 0.930 . S
C136 C137 1.355 1_655 S
C136 C138 1.412 . S
C137 H129 0.930 . S
C137 C136 1.355 1_455 S
C137 C140 1.402 . S
C138 C136 1.412 . S
C138 C139 1.417 . S
C138 C162 1.431 . S
C139 N135 1.350 . S
C139 C138 1.417 . S
C139 C142 1.426 . S
C140 H123 0.930 . S
C140 N135 1.307 1_455 S
C140 C137 1.402 . S
N141 Gd104 2.601 . S
N141 C142 1.359 1_545 S
N141 C145 1.334 . S
C142 C139 1.426 . S
C142 N141 1.359 1_565 S
C142 C146 1.413 . S
C143 H134 0.930 . S
C143 C144 1.359 . S
C143 C145 1.394 . S
C144 C143 1.359 . S
C144 C146 1.391 1_545 S
C144 H147 0.929 . S
C145 H127 0.930 . S
C145 N141 1.334 . S
C145 C143 1.394 . S
C146 C142 1.413 . S
C146 C144 1.391 1_565 S
C146 C161 1.437 . S
H147 C144 0.929 . S
O148 Gd104 2.545 . S
O148 C163 1.258 . S
O149 Gd104 2.606 1_455 S
O149 Gd105 2.362 1_545 S
O149 C160 1.284 . S
O150 Gd105 2.324 1_655 S
O150 C170 1.254 1_565 S
O151 Gd104 2.429 . S
O151 C170 1.268 . S
O152 Gd104 2.545 1_455 S
O152 C160 1.250 . S
O153 Gd104 2.412 . S
O153 C163 1.252 . S
O154 Gd105 2.545 . S
O154 C172 1.258 . S
O155 Gd104 2.362 1_565 S
O155 Gd105 2.606 1_655 S
O155 C171 1.284 . S
O156 Gd104 2.324 1_455 S
O156 C179 1.254 . S
O157 Gd105 2.429 . S
O157 C179 1.268 1_565 S
O158 Gd105 2.545 . S
O158 C171 1.250 1_455 S
O159 Gd105 2.412 1_554 S
O159 C172 1.252 1_554 S
C160 O149 1.284 . S
C160 O152 1.250 . S
C161 H130 0.929 . S
C161 C146 1.437 . S
C161 C162 1.317 . S
C162 H133 0.930 . S
C162 C138 1.431 . S
C162 C161 1.317 . S
C163 Gd104 2.828 . S
C163 O148 1.258 . S
C163 O153 1.252 . S
C163 C164 1.497 . S
C164 C163 1.497 . S
C164 C165 1.395 . S
C164 C166 1.380 . S
C165 C164 1.395 . S
C165 C168 1.398 . S
C165 H180 0.930 . S
C166 C164 1.380 . S
C166 C167 1.391 . S
C166 H181 0.930 1_655 S
C167 C166 1.391 . S
C167 C169 1.387 . S
C168 C165 1.398 . S
C168 C169 1.380 . S
C168 H182 0.930 . S
C169 C167 1.387 . S
C169 C168 1.380 . S
C169 H183 0.930 . S
C170 O150 1.254 1_545 S
C170 O151 1.268 . S
C171 O155 1.284 . S
C171 O158 1.250 1_655 S
C172 Gd105 2.828 . S
C172 O154 1.258 . S
C172 O159 1.252 1_556 S
C172 C173 1.497 1_556 S
C173 C172 1.497 1_554 S
C173 C174 1.395 . S
C173 C175 1.380 . S
C174 C173 1.395 . S
C174 C177 1.398 . S
C174 H184 0.930 . S
C175 C173 1.380 . S
C175 C176 1.391 . S
C175 H185 0.930 . S
C176 C175 1.391 . S
C176 C178 1.387 . S
C177 C174 1.398 . S
C177 C178 1.380 . S
C177 H186 0.930 . S
C178 C176 1.387 . S
C178 C177 1.380 . S
C178 H187 0.930 . S
C179 O156 1.254 . S
C179 O157 1.268 1_545 S
H180 C165 0.930 . S
H181 C166 0.930 1_455 S
H182 C168 0.930 . S
H183 C169 0.930 . S
H184 C174 0.930 . S
H185 C175 0.930 . S
H186 C177 0.930 . S
H187 C178 0.930 . S
Gd188 N219 2.661 . S
Gd188 N225 2.601 . S
Gd188 O232 2.545 . S
Gd188 O233 2.606 1_565 S
Gd188 O235 2.429 . S
Gd188 O236 2.545 1_565 S
Gd188 O237 2.412 . S
Gd188 O239 2.362 . S
Gd188 O240 2.324 1_565 S
Gd188 C247 2.828 . S
Gd189 N198 2.661 1_556 S
Gd189 N202 2.601 . S
Gd189 O233 2.362 . S
Gd189 O234 2.324 1_545 S
Gd189 O238 2.545 . S
Gd189 O239 2.606 1_545 S
Gd189 O241 2.429 . S
Gd189 O242 2.545 . S
Gd189 O243 2.412 1_556 S
Gd189 C256 2.828 . S
C190 C193 1.417 . S
C190 C195 1.431 . S
C190 C196 1.412 . S
C191 C194 1.437 . S
C191 C195 1.317 . S
C191 H210 0.929 . S
C192 C193 1.426 . S
C192 C194 1.413 . S
C192 N202 1.359 1_554 S
C193 C190 1.417 . S
C193 C192 1.426 . S
C193 N198 1.350 . S
C194 C191 1.437 . S
C194 C192 1.413 . S
C194 C204 1.391 . S
C195 C190 1.431 . S
C195 C191 1.317 . S
C195 H206 0.930 . S
C196 C190 1.412 . S
C196 C197 1.355 . S
C196 H208 0.930 . S
C197 C196 1.355 . S
C197 C199 1.402 . S
C197 H209 0.930 1_545 S
N198 Gd189 2.661 1_554 S
N198 C193 1.350 . S
N198 C199 1.307 . S
C199 C197 1.402 . S
C199 N198 1.307 . S
C199 H200 0.930 1_545 S
H200 C199 0.930 1_565 S
C201 N202 1.334 . S
C201 C203 1.394 . S
C201 H205 0.930 . S
N202 Gd189 2.601 . S
N202 C192 1.359 1_556 S
N202 C201 1.334 . S
C203 C201 1.394 . S
C203 C204 1.359 1_556 S
C203 H215 0.930 . S
C204 C194 1.391 . S
C204 C203 1.359 1_554 S
C204 H216 0.929 . S
H205 C201 0.930 . S
H206 C195 0.930 . S
H207 C224 0.930 . S
H208 C196 0.930 . S
H209 C197 0.930 1_565 S
H210 C191 0.929 . S
H211 C229 0.930 . S
H212 C220 0.930 . S
H213 C221 0.930 . S
H214 C245 0.929 . S
H215 C203 0.930 . S
H216 C204 0.929 . S
H217 C246 0.930 . S
H218 C227 0.930 . S
N219 Gd188 2.661 . S
N219 C223 1.350 . S
N219 C224 1.307 1_565 S
C220 H212 0.930 . S
C220 C221 1.355 1_565 S
C220 C222 1.412 . S
C221 H213 0.930 . S
C221 C220 1.355 1_545 S
C221 C224 1.402 . S
C222 C220 1.412 . S
C222 C223 1.417 . S
C222 C246 1.431 . S
C223 N219 1.350 . S
C223 C222 1.417 . S
C223 C226 1.426 . S
C224 H207 0.930 . S
C224 N219 1.307 1_545 S
C224 C221 1.402 . S
N225 Gd188 2.601 . S
N225 C226 1.359 . S
N225 C229 1.334 . S
C226 C223 1.426 . S
C226 N225 1.359 . S
C226 C230 1.413 . S
C227 H218 0.930 . S
C227 C228 1.359 . S
C227 C229 1.394 . S
C228 C227 1.359 . S
C228 C230 1.391 . S
C228 H231 0.929 . S
C229 H211 0.930 . S
C229 N225 1.334 . S
C229 C227 1.394 . S
C230 C226 1.413 . S
C230 C228 1.391 . S
C230 C245 1.437 . S
H231 C228 0.929 . S
O232 Gd188 2.545 . S
O232 C247 1.258 . S
O233 Gd188 2.606 1_545 S
O233 Gd189 2.362 . S
O233 C244 1.284 . S
O234 Gd189 2.324 1_565 S
O234 C254 1.254 . S
O235 Gd188 2.429 . S
O235 C254 1.268 . S
O236 Gd188 2.545 1_545 S
O236 C244 1.250 . S
O237 Gd188 2.412 . S
O237 C247 1.252 . S
O238 Gd189 2.545 . S
O238 C256 1.258 . S
O239 Gd188 2.362 . S
O239 Gd189 2.606 1_565 S
O239 C255 1.284 . S
O240 Gd188 2.324 1_545 S
O240 C263 1.254 . S
O241 Gd189 2.429 . S
O241 C263 1.268 . S
O242 Gd189 2.545 . S
O242 C255 1.250 1_545 S
O243 Gd189 2.412 1_554 S
O243 C256 1.252 1_554 S
C244 O233 1.284 . S
C244 O236 1.250 . S
C245 H214 0.929 . S
C245 C230 1.437 . S
C245 C246 1.317 . S
C246 H217 0.930 . S
C246 C222 1.431 . S
C246 C245 1.317 . S
C247 Gd188 2.828 . S
C247 O232 1.258 . S
C247 O237 1.252 . S
C247 C248 1.497 . S
C248 C247 1.497 . S
C248 C249 1.395 . S
C248 C250 1.380 . S
C249 C248 1.395 . S
C249 C252 1.398 . S
C249 H264 0.930 . S
C250 C248 1.380 . S
C250 C251 1.391 . S
C250 H265 0.930 1_565 S
C251 C250 1.391 . S
C251 C253 1.387 . S
C252 C249 1.398 . S
C252 C253 1.380 . S
C252 H266 0.930 . S
C253 C251 1.387 . S
C253 C252 1.380 . S
C253 H267 0.930 . S
C254 O234 1.254 . S
C254 O235 1.268 . S
C255 O239 1.284 . S
C255 O242 1.250 1_565 S
C256 Gd189 2.828 . S
C256 O238 1.258 . S
C256 O243 1.252 1_556 S
C256 C257 1.497 1_556 S
C257 C256 1.497 1_554 S
C257 C258 1.395 . S
C257 C259 1.380 . S
C258 C257 1.395 . S
C258 C261 1.398 . S
C258 H268 0.930 . S
C259 C257 1.380 . S
C259 C260 1.391 . S
C259 H269 0.930 . S
C260 C259 1.391 . S
C260 C262 1.387 . S
C261 C258 1.398 . S
C261 C262 1.380 . S
C261 H270 0.930 . S
C262 C260 1.387 . S
C262 C261 1.380 . S
C262 H271 0.930 . S
C263 O240 1.254 . S
C263 O241 1.268 . S
H264 C249 0.930 . S
H265 C250 0.930 1_545 S
H266 C252 0.930 . S
H267 C253 0.930 . S
H268 C258 0.930 . S
H269 C259 0.930 . S
H270 C261 0.930 . S
H271 C262 0.930 . S
Gd272 N303 2.661 . S
Gd272 N309 2.601 . S
Gd272 O316 2.545 1_556 S
Gd272 O317 2.606 . S
Gd272 O319 2.429 . S
Gd272 O320 2.545 . S
Gd272 O321 2.412 . S
Gd272 O323 2.362 . S
Gd272 O324 2.324 . S
Gd272 C331 2.828 1_556 S
Gd273 N282 2.661 . S
Gd273 N286 2.601 . S
Gd273 O317 2.362 . S
Gd273 O318 2.324 . S
Gd273 O322 2.545 . S
Gd273 O323 2.606 . S
Gd273 O325 2.429 . S
Gd273 O326 2.545 . S
Gd273 O327 2.412 . S
Gd273 C340 2.828 . S
C274 C277 1.417 . S
C274 C279 1.431 . S
C274 C280 1.412 . S
C275 C278 1.437 . S
C275 C279 1.317 . S
C275 H294 0.929 . S
C276 C277 1.426 . S
C276 C278 1.413 . S
C276 N286 1.359 . S
C277 C274 1.417 . S
C277 C276 1.426 . S
C277 N282 1.350 . S
C278 C275 1.437 . S
C278 C276 1.413 . S
C278 C288 1.391 . S
C279 C274 1.431 . S
C279 C275 1.317 . S
C279 H290 0.930 . S
C280 C274 1.412 . S
C280 C281 1.355 . S
C280 H292 0.930 . S
C281 C280 1.355 . S
C281 C283 1.402 . S
C281 H293 0.930 . S
N282 Gd273 2.661 . S
N282 C277 1.350 . S
N282 C283 1.307 . S
C283 C281 1.402 . S
C283 N282 1.307 . S
C283 H284 0.930 . S
H284 C283 0.930 . S
C285 N286 1.334 . S
C285 C287 1.394 . S
C285 H289 0.930 . S
N286 Gd273 2.601 . S
N286 C276 1.359 . S
N286 C285 1.334 . S
C287 C285 1.394 . S
C287 C288 1.359 . S
C287 H299 0.930 . S
C288 C278 1.391 . S
C288 C287 1.359 . S
C288 H300 0.929 . S
H289 C285 0.930 . S
H290 C279 0.930 . S
H291 C308 0.930 . S
H292 C280 0.930 . S
H293 C281 0.930 . S
H294 C275 0.929 . S
H295 C313 0.930 . S
H296 C304 0.930 . S
H297 C305 0.930 . S
H298 C329 0.929 . S
H299 C287 0.930 . S
H300 C288 0.929 . S
H301 C330 0.930 . S
H302 C311 0.930 . S
N303 Gd272 2.661 . S
N303 C307 1.350 . S
N303 C308 1.307 . S
C304 H296 0.930 . S
C304 C305 1.355 . S
C304 C306 1.412 . S
C305 H297 0.930 . S
C305 C304 1.355 . S
C305 C308 1.402 . S
C306 C304 1.412 . S
C306 C307 1.417 . S
C306 C330 1.431 . S
C307 N303 1.350 . S
C307 C306 1.417 . S
C307 C310 1.426 . S
C308 H291 0.930 . S
C308 N303 1.307 . S
C308 C305 1.402 . S
N309 Gd272 2.601 . S
N309 C310 1.359 . S
N309 C313 1.334 1_556 S
C310 C307 1.426 . S
C310 N309 1.359 . S
C310 C314 1.413 . S
C311 H302 0.930 . S
C311 C312 1.359 . S
C311 C313 1.394 . S
C312 C311 1.359 . S
C312 C314 1.391 1_554 S
C312 H315 0.929 . S
C313 H295 0.930 . S
C313 N309 1.334 1_554 S
C313 C311 1.394 . S
C314 C310 1.413 . S
C314 C312 1.391 1_556 S
C314 C329 1.437 . S
H315 C312 0.929 . S
O316 Gd272 2.545 1_554 S
O316 C331 1.258 . S
O317 Gd272 2.606 . S
O317 Gd273 2.362 . S
O317 C328 1.284 . S
O318 Gd273 2.324 . S
O318 C338 1.254 . S
O319 Gd272 2.429 . S
O319 C338 1.268 . S
O320 Gd272 2.545 . S
O320 C328 1.250 . S
O321 Gd272 2.412 . S
O321 C331 1.252 1_556 S
O322 Gd273 2.545 . S
O322 C340 1.258 . S
O323 Gd272 2.362 . S
O323 Gd273 2.606 . S
O323 C339 1.284 . S
O324 Gd272 2.324 . S
O324 C347 1.254 . S
O325 Gd273 2.429 . S
O325 C347 1.268 . S
O326 Gd273 2.545 . S
O326 C339 1.250 . S
O327 Gd273 2.412 . S
O327 C340 1.252 . S
C328 O317 1.284 . S
C328 O320 1.250 . S
C329 H298 0.929 . S
C329 C314 1.437 . S
C329 C330 1.317 . S
C330 H301 0.930 . S
C330 C306 1.431 . S
C330 C329 1.317 . S
C331 Gd272 2.828 1_554 S
C331 O316 1.258 . S
C331 O321 1.252 1_554 S
C331 C332 1.497 . S
C332 C331 1.497 . S
C332 C333 1.395 . S
C332 C334 1.380 . S
C333 C332 1.395 . S
C333 C336 1.398 . S
C333 H348 0.930 . S
C334 C332 1.380 . S
C334 C335 1.391 . S
C334 H349 0.930 . S
C335 C334 1.391 . S
C335 C337 1.387 . S
C336 C333 1.398 . S
C336 C337 1.380 . S
C336 H350 0.930 . S
C337 C335 1.387 . S
C337 C336 1.380 . S
C337 H351 0.930 . S
C338 O318 1.254 . S
C338 O319 1.268 . S
C339 O323 1.284 . S
C339 O326 1.250 . S
C340 Gd273 2.828 . S
C340 O322 1.258 . S
C340 O327 1.252 . S
C340 C341 1.497 . S
C341 C340 1.497 . S
C341 C342 1.395 . S
C341 C343 1.380 . S
C342 C341 1.395 . S
C342 C345 1.398 . S
C342 H352 0.930 . S
C343 C341 1.380 . S
C343 C344 1.391 . S
C343 H353 0.930 . S
C344 C343 1.391 . S
C344 C346 1.387 . S
C345 C342 1.398 . S
C345 C346 1.380 . S
C345 H354 0.930 . S
C346 C344 1.387 . S
C346 C345 1.380 . S
C346 H355 0.930 . S
C347 O324 1.254 . S
C347 O325 1.268 . S
H348 C333 0.930 . S
H349 C334 0.930 . S
H350 C336 0.930 . S
H351 C337 0.930 . S
H352 C342 0.930 . S
H353 C343 0.930 . S
H354 C345 0.930 . S
H355 C346 0.930 . S
Gd356 N387 2.661 . S
Gd356 N393 2.608 . S
Gd356 O400 2.545 1_556 S
Gd356 O401 2.606 1_655 S
Gd356 O403 2.429 1_655 S
Gd356 O404 2.545 . S
Gd356 O405 2.412 . S
Gd356 O407 2.362 1_655 S
Gd356 O408 2.324 . S
Gd356 C415 2.828 1_556 S
Gd357 N366 2.661 . S
Gd357 N370 2.601 . S
Gd357 O401 2.362 . S
Gd357 O402 2.324 . S
Gd357 O406 2.545 . S
Gd357 O407 2.606 . S
Gd357 O409 2.429 1_455 S
Gd357 O410 2.545 . S
Gd357 O411 2.412 . S
Gd357 C424 2.828 . S
C358 C361 1.417 . S
C358 C363 1.431 . S
C358 C364 1.412 . S
C359 C362 1.437 . S
C359 C363 1.317 . S
C359 H378 0.929 . S
C360 C361 1.426 . S
C360 C362 1.413 . S
C360 N370 1.359 . S
C361 C358 1.417 . S
C361 C360 1.426 . S
C361 N366 1.350 . S
C362 C359 1.437 . S
C362 C360 1.413 . S
C362 C372 1.391 . S
C363 C358 1.431 . S
C363 C359 1.317 . S
C363 H374 0.930 . S
C364 C358 1.412 . S
C364 C365 1.355 . S
C364 H376 0.930 . S
C365 C364 1.355 . S
C365 C367 1.402 . S
C365 H377 0.930 . S
N366 Gd357 2.661 . S
N366 C361 1.350 . S
N366 C367 1.307 . S
C367 C365 1.402 . S
C367 N366 1.307 . S
C367 H368 0.930 . S
H368 C367 0.930 . S
C369 N370 1.334 1_655 S
C369 C371 1.394 . S
C369 H373 0.930 . S
N370 Gd357 2.601 . S
N370 C360 1.359 . S
N370 C369 1.334 1_455 S
C371 C369 1.394 . S
C371 C372 1.359 1_655 S
C371 H383 0.930 . S
C372 C362 1.391 . S
C372 C371 1.359 1_455 S
C372 H384 0.929 1_455 S
H373 C369 0.930 . S
H374 C363 0.930 . S
H375 C392 0.930 . S
H376 C364 0.930 . S
H377 C365 0.930 . S
H378 C359 0.929 . S
H379 C397 0.930 . S
H380 C388 0.930 . S
H381 C389 0.930 . S
H382 C413 0.929 . S
H383 C371 0.930 . S
H384 C372 0.929 1_655 S
H385 C414 0.930 . S
H386 C395 0.930 . S
N387 Gd356 2.661 . S
N387 C391 1.350 . S
N387 C392 1.307 . S
C388 H380 0.930 . S
C388 C389 1.355 . S
C388 C390 1.412 . S
C389 H381 0.930 . S
C389 C388 1.355 . S
C389 C392 1.402 . S
C390 C388 1.412 . S
C390 C391 1.417 . S
C390 C414 1.431 . S
C391 N387 1.350 . S
C391 C390 1.417 . S
C391 C394 1.426 . S
C392 H375 0.930 . S
C392 N387 1.307 . S
C392 C389 1.402 . S
N393 Gd356 2.608 . S
N393 C394 1.373 . S
N393 C397 1.317 1_656 S
C394 C391 1.426 . S
C394 N393 1.373 . S
C394 C398 1.413 . S
C395 H386 0.930 . S
C395 C396 1.359 . S
C395 C397 1.394 . S
C396 C395 1.359 . S
C396 C398 1.391 1_454 S
C396 H399 0.929 . S
C397 H379 0.930 . S
C397 N393 1.317 1_454 S
C397 C395 1.394 . S
C398 C394 1.413 . S
C398 C396 1.391 1_656 S
C398 C413 1.437 . S
H399 C396 0.929 . S
O400 Gd356 2.545 1_554 S
O400 C415 1.258 . S
O401 Gd356 2.606 1_455 S
O401 Gd357 2.362 . S
O401 C412 1.284 1_455 S
O402 Gd357 2.324 . S
O402 C422 1.254 . S
O403 Gd356 2.429 1_455 S
O403 C422 1.268 . S
O404 Gd356 2.545 . S
O404 C412 1.250 . S
O405 Gd356 2.412 . S
O405 C415 1.252 1_556 S
O406 Gd357 2.545 . S
O406 C424 1.258 . S
O407 Gd356 2.362 1_455 S
O407 Gd357 2.606 . S
O407 C423 1.284 . S
O408 Gd356 2.324 . S
O408 C431 1.254 . S
O409 Gd357 2.429 1_655 S
O409 C431 1.268 . S
O410 Gd357 2.545 . S
O410 C423 1.250 . S
O411 Gd357 2.412 . S
O411 C424 1.252 . S
C412 O401 1.284 1_655 S
C412 O404 1.250 . S
C413 H382 0.929 . S
C413 C398 1.437 . S
C413 C414 1.317 . S
C414 H385 0.930 . S
C414 C390 1.431 . S
C414 C413 1.317 . S
C415 Gd356 2.828 1_554 S
C415 O400 1.258 . S
C415 O405 1.252 1_554 S
C415 C416 1.497 . S
C416 C415 1.497 . S
C416 C417 1.395 . S
C416 C418 1.380 . S
C417 C416 1.395 . S
C417 C420 1.398 . S
C417 H432 0.930 . S
C418 C416 1.380 . S
C418 C419 1.391 . S
C418 H433 0.930 . S
C419 C418 1.391 . S
C419 C421 1.387 . S
C420 C417 1.398 . S
C420 C421 1.380 . S
C420 H434 0.930 . S
C421 C419 1.387 . S
C421 C420 1.380 . S
C421 H435 0.930 . S
C422 O402 1.254 . S
C422 O403 1.268 . S
C423 O407 1.284 . S
C423 O410 1.250 . S
C424 Gd357 2.828 . S
C424 O406 1.258 . S
C424 O411 1.252 . S
C424 C425 1.497 . S
C425 C424 1.497 . S
C425 C426 1.395 . S
C425 C427 1.380 . S
C426 C425 1.395 . S
C426 C429 1.398 . S
C426 H436 0.930 . S
C427 C425 1.380 . S
C427 C428 1.391 . S
C427 H437 0.930 . S
C428 C427 1.391 . S
C428 C430 1.387 . S
C429 C426 1.398 . S
C429 C430 1.380 . S
C429 H438 0.930 . S
C430 C428 1.387 . S
C430 C429 1.380 . S
C430 H439 0.930 . S
C431 O408 1.254 . S
C431 O409 1.268 . S
H432 C417 0.930 . S
H433 C418 0.930 . S
H434 C420 0.930 . S
H435 C421 0.930 . S
H436 C426 0.930 . S
H437 C427 0.930 . S
H438 C429 0.930 . S
H439 C430 0.930 . S
C440 C441 1.363 . S
C440 C446 1.379 . S
C440 N448 1.356 . S
C441 C440 1.363 . S
C441 C447 1.363 . S
C442 C443 1.363 . S
C442 C447 1.379 . S
C442 N449 1.356 1_545 S
C443 C442 1.363 . S
C443 C446 1.363 . S
N444 C446 1.356 . S
N444 H456 0.984 . S
N444 H457 0.985 . S
N445 C447 1.356 . S
N445 H450 0.984 . S
N445 H451 0.985 1_545 S
C446 C440 1.379 . S
C446 C443 1.363 . S
C446 N444 1.356 . S
C447 C441 1.363 . S
C447 C442 1.379 . S
C447 N445 1.356 . S
N448 C440 1.356 . S
N448 H454 0.984 . S
N448 H455 0.984 . S
N449 C442 1.356 1_565 S
N449 H452 0.984 . S
N449 H453 0.985 . S
H450 N445 0.984 . S
H451 N445 0.985 1_565 S
H452 N449 0.984 . S
H453 N449 0.985 . S
H454 N448 0.984 . S
H455 N448 0.984 . S
H456 N444 0.984 . S
H457 N444 0.985 . S
C458 C459 1.363 . S
C458 C464 1.379 . S
C458 N466 1.356 . S
C459 C458 1.363 . S
C459 C465 1.363 . S
C460 C461 1.363 . S
C460 C465 1.379 . S
C460 N467 1.356 . S
C461 C460 1.363 . S
C461 C464 1.363 . S
N462 C464 1.356 . S
N462 H474 0.984 . S
N462 H475 0.985 . S
N463 C465 1.356 . S
N463 H468 0.984 . S
N463 H469 0.985 . S
C464 C458 1.379 . S
C464 C461 1.363 . S
C464 N462 1.356 . S
C465 C459 1.363 . S
C465 C460 1.379 . S
C465 N463 1.356 . S
N466 C458 1.356 . S
N466 H472 0.984 . S
N466 H473 0.984 . S
N467 C460 1.356 . S
N467 H470 0.984 . S
N467 H471 0.985 . S
H468 N463 0.984 . S
H469 N463 0.985 . S
H470 N467 0.984 . S
H471 N467 0.985 . S
H472 N466 0.984 . S
H473 N466 0.984 . S
H474 N462 0.984 . S
H475 N462 0.985 . S
C476 C477 1.363 . S
C476 C482 1.379 . S
C476 N484 1.356 . S
C477 C476 1.363 . S
C477 C483 1.363 . S
C478 C479 1.363 . S
C478 C483 1.379 . S
C478 N485 1.356 . S
C479 C478 1.363 . S
C479 C482 1.363 . S
N480 C482 1.356 . S
N480 H492 0.984 . S
N480 H493 0.985 . S
N481 C483 1.356 . S
N481 H486 0.984 . S
N481 H487 0.985 . S
C482 C476 1.379 . S
C482 C479 1.363 . S
C482 N480 1.356 . S
C483 C477 1.363 . S
C483 C478 1.379 . S
C483 N481 1.356 . S
N484 C476 1.356 . S
N484 H490 0.984 . S
N484 H491 0.984 . S
N485 C478 1.356 . S
N485 H488 0.984 . S
N485 H489 0.985 . S
H486 N481 0.984 . S
H487 N481 0.985 . S
H488 N485 0.984 . S
H489 N485 0.985 . S
H490 N484 0.984 . S
H491 N484 0.984 . S
H492 N480 0.984 . S
H493 N480 0.985 . S
C494 C495 1.363 . S
C494 C500 1.379 . S
C494 N502 1.356 . S
C495 C494 1.363 . S
C495 C501 1.363 . S
C496 C497 1.363 . S
C496 C501 1.379 . S
C496 N503 1.356 . S
C497 C496 1.363 . S
C497 C500 1.363 . S
N498 C500 1.356 . S
N498 H510 0.984 1_455 S
N498 H511 0.985 . S
N499 C501 1.356 . S
N499 H504 0.984 . S
N499 H505 0.985 . S
C500 C494 1.379 . S
C500 C497 1.363 . S
C500 N498 1.356 . S
C501 C495 1.363 . S
C501 C496 1.379 . S
C501 N499 1.356 . S
N502 C494 1.356 . S
N502 H508 0.984 . S
N502 H509 0.984 . S
N503 C496 1.356 . S
N503 H506 0.984 . S
N503 H507 0.985 . S
H504 N499 0.984 . S
H505 N499 0.985 . S
H506 N503 0.984 . S
H507 N503 0.985 . S
H508 N502 0.984 . S
H509 N502 0.984 . S
H510 N498 0.984 1_655 S
H511 N498 0.985 . S
C512 C513 1.363 . S
C512 C518 1.379 . S
C512 N520 1.356 . S
C513 C512 1.363 . S
C513 C519 1.363 1_565 S
C514 C515 1.363 1_544 S
C514 C519 1.379 . S
C514 N521 1.356 1_554 S
C515 C514 1.363 1_566 S
C515 C518 1.363 1_556 S
N516 C518 1.356 1_556 S
N516 H528 0.984 1_556 S
N516 H529 0.985 . S
N517 C519 1.356 . S
N517 H522 0.984 . S
N517 H523 0.985 . S
C518 C512 1.379 . S
C518 C515 1.363 1_554 S
C518 N516 1.356 1_554 S
C519 C513 1.363 1_545 S
C519 C514 1.379 . S
C519 N517 1.356 . S
N520 C512 1.356 . S
N520 H526 0.984 . S
N520 H527 0.984 . S
N521 C514 1.356 1_556 S
N521 H524 0.984 . S
N521 H525 0.985 . S
H522 N517 0.984 . S
H523 N517 0.985 . S
H524 N521 0.984 . S
H525 N521 0.985 . S
H526 N520 0.984 . S
H527 N520 0.984 . S
H528 N516 0.984 1_554 S
H529 N516 0.985 . S
C530 C531 1.363 . S
C530 C536 1.379 . S
C530 N538 1.356 . S
C531 C530 1.363 . S
C531 C537 1.363 . S
C532 C533 1.363 1_554 S
C532 C537 1.379 . S
C532 N539 1.356 1_554 S
C533 C532 1.363 1_556 S
C533 C536 1.363 1_556 S
N534 C536 1.356 . S
N534 H546 0.984 . S
N534 H547 0.985 1_554 S
N535 C537 1.356 . S
N535 H540 0.984 . S
N535 H541 0.985 . S
C536 C530 1.379 . S
C536 C533 1.363 1_554 S
C536 N534 1.356 . S
C537 C531 1.363 . S
C537 C532 1.379 . S
C537 N535 1.356 . S
N538 C530 1.356 . S
N538 H544 0.984 . S
N538 H545 0.984 . S
N539 C532 1.356 1_556 S
N539 H542 0.984 . S
N539 H543 0.985 . S
H540 N535 0.984 . S
H541 N535 0.985 . S
H542 N539 0.984 . S
H543 N539 0.985 . S
H544 N538 0.984 . S
H545 N538 0.984 . S
H546 N534 0.984 . S
H547 N534 0.985 1_556 S
C548 C549 1.363 . S
C548 C554 1.379 . S
C548 N556 1.356 . S
C549 C548 1.363 . S
C549 C555 1.363 . S
C550 C551 1.363 1_554 S
C550 C555 1.379 . S
C550 N557 1.356 1_554 S
C551 C550 1.363 1_556 S
C551 C554 1.363 1_556 S
N552 C554 1.356 1_556 S
N552 H564 0.984 1_556 S
N552 H565 0.985 . S
N553 C555 1.356 . S
N553 H558 0.984 . S
N553 H559 0.985 . S
C554 C548 1.379 . S
C554 C551 1.363 1_554 S
C554 N552 1.356 1_554 S
C555 C549 1.363 . S
C555 C550 1.379 . S
C555 N553 1.356 . S
N556 C548 1.356 . S
N556 H562 0.984 . S
N556 H563 0.984 . S
N557 C550 1.356 1_556 S
N557 H560 0.984 . S
N557 H561 0.985 . S
H558 N553 0.984 . S
H559 N553 0.985 . S
H560 N557 0.984 . S
H561 N557 0.985 . S
H562 N556 0.984 . S
H563 N556 0.984 . S
H564 N552 0.984 1_554 S
H565 N552 0.985 . S
C566 C567 1.363 . S
C566 C572 1.379 . S
C566 N574 1.356 . S
C567 C566 1.363 . S
C567 C573 1.363 . S
C568 C569 1.363 1_554 S
C568 C573 1.379 . S
C568 N575 1.356 1_655 S
C569 C568 1.363 1_556 S
C569 C572 1.363 1_556 S
N570 C572 1.356 1_556 S
N570 H582 0.984 . S
N570 H583 0.985 . S
N571 C573 1.356 . S
N571 H576 0.984 . S
N571 H577 0.985 . S
C572 C566 1.379 . S
C572 C569 1.363 1_554 S
C572 N570 1.356 1_554 S
C573 C567 1.363 . S
C573 C568 1.379 . S
C573 N571 1.356 . S
N574 C566 1.356 . S
N574 H580 0.984 . S
N574 H581 0.984 . S
N575 C568 1.356 1_455 S
N575 H578 0.984 1_554 S
N575 H579 0.985 . S
H576 N571 0.984 . S
H577 N571 0.985 . S
H578 N575 0.984 1_556 S
H579 N575 0.985 . S
H580 N574 0.984 . S
H581 N574 0.984 . S
H582 N570 0.984 . S
H583 N570 0.985 . S
C584 C585 1.363 . S
C584 C590 1.379 . S
C584 N592 1.356 . S
C585 C584 1.363 . S
C585 C591 1.363 . S
C586 C587 1.364 . S
C586 C591 1.379 1_655 S
C586 N593 1.356 . S
C587 C586 1.364 . S
C587 C590 1.353 1_655 S
N588 C590 1.356 . S
N588 H600 0.984 . S
N588 H601 1.010 . S
N589 C591 1.356 1_556 S
N589 H594 0.984 . S
N589 H595 0.985 . S
C590 C584 1.379 . S
C590 C587 1.353 1_455 S
C590 N588 1.356 . S
C591 C585 1.363 . S
C591 C586 1.379 1_455 S
C591 N589 1.356 1_554 S
N592 C584 1.356 . S
N592 H598 0.984 . S
N592 H599 0.984 . S
N593 C586 1.356 . S
N593 H596 0.984 . S
N593 H597 0.985 . S
H594 N589 0.984 . S
H595 N589 0.985 . S
H596 N593 0.984 . S
H597 N593 0.985 . S
H598 N592 0.984 . S
H599 N592 0.984 . S
H600 N588 0.984 . S
H601 N588 1.010 . S
C602 C603 1.363 . S
C602 C608 1.379 . S
C602 N610 1.356 . S
C603 C602 1.363 . S
C603 C609 1.363 . S
C604 C605 1.366 . S
C604 C609 1.379 1_565 S
C604 N611 1.356 . S
C605 C604 1.366 . S
C605 C608 1.351 1_565 S
N606 C608 1.356 . S
N606 H618 0.984 . S
N606 H619 0.985 . S
N607 C609 1.356 . S
N607 H612 0.984 . S
N607 H613 0.985 1_544 S
C608 C602 1.379 . S
C608 C605 1.351 1_545 S
C608 N606 1.356 . S
C609 C603 1.363 . S
C609 C604 1.379 1_545 S
C609 N607 1.356 . S
N610 C602 1.356 . S
N610 H616 0.984 . S
N610 H617 0.984 . S
N611 C604 1.356 . S
N611 H614 0.984 . S
N611 H615 0.985 . S
H612 N607 0.984 . S
H613 N607 0.985 1_566 S
H614 N611 0.984 . S
H615 N611 0.985 . S
H616 N610 0.984 . S
H617 N610 0.984 . S
H618 N606 0.984 . S
H619 N606 0.985 . S
C620 C621 1.363 . S
C620 C626 1.379 . S
C620 N628 1.356 1_554 S
C621 C620 1.363 . S
C621 C627 1.363 . S
C622 C623 1.363 . S
C622 C627 1.379 . S
C622 N629 1.356 . S
C623 C622 1.363 . S
C623 C626 1.363 . S
N624 C626 1.356 . S
N624 H636 0.984 1_554 S
N624 H637 0.985 . S
N625 C627 1.356 . S
N625 H630 0.984 . S
N625 H631 0.985 . S
C626 C620 1.379 . S
C626 C623 1.363 . S
C626 N624 1.356 . S
C627 C621 1.363 . S
C627 C622 1.379 . S
C627 N625 1.356 . S
N628 C620 1.356 1_556 S
N628 H634 0.984 . S
N628 H635 0.984 . S
N629 C622 1.356 . S
N629 H632 0.984 . S
N629 H633 0.985 . S
H630 N625 0.984 . S
H631 N625 0.985 . S
H632 N629 0.984 . S
H633 N629 0.985 . S
H634 N628 0.984 . S
H635 N628 0.984 . S
H636 N624 0.984 1_556 S
H637 N624 0.985 . S
C638 C639 1.363 . S
C638 C644 1.379 . S
C638 N646 1.356 . S
C639 C638 1.363 . S
C639 C645 1.363 . S
C640 C641 1.363 . S
C640 C645 1.379 . S
C640 N647 1.356 . S
C641 C640 1.363 . S
C641 C644 1.363 . S
N642 C644 1.356 . S
N642 H654 0.984 . S
N642 H655 0.985 . S
N643 C645 1.356 . S
N643 H648 0.984 . S
N643 H649 0.985 . S
C644 C638 1.379 . S
C644 C641 1.363 . S
C644 N642 1.356 . S
C645 C639 1.363 . S
C645 C640 1.379 . S
C645 N643 1.356 . S
N646 C638 1.356 . S
N646 H652 0.981 1_554 S
N646 H653 0.984 . S
N647 C640 1.356 . S
N647 H650 0.984 . S
N647 H651 0.985 . S
H648 N643 0.984 . S
H649 N643 0.985 . S
H650 N647 0.984 . S
H651 N647 0.985 . S
H652 N646 0.981 1_556 S
H653 N646 0.984 . S
H654 N642 0.984 . S
H655 N642 0.985 . S
C656 C657 1.363 . S
C656 C662 1.379 1_655 S
C656 N664 1.356 . S
C657 C656 1.363 . S
C657 C663 1.363 . S
C658 C659 1.363 . S
C658 C663 1.379 1_455 S
C658 N665 1.356 . S
C659 C658 1.363 . S
C659 C662 1.363 . S
N660 C662 1.356 . S
N660 H672 0.984 . S
N660 H673 0.985 . S
N661 C663 1.356 . S
N661 H666 0.984 . S
N661 H667 0.985 . S
C662 C656 1.379 1_455 S
C662 C659 1.363 . S
C662 N660 1.356 . S
C663 C657 1.363 . S
C663 C658 1.379 1_655 S
C663 N661 1.356 . S
N664 C656 1.356 . S
N664 H670 0.984 . S
N664 H671 0.984 . S
N665 C658 1.356 . S
N665 H668 0.984 . S
N665 H669 0.985 1_554 S
H666 N661 0.984 . S
H667 N661 0.985 . S
H668 N665 0.984 . S
H669 N665 0.985 1_556 S
H670 N664 0.984 . S
H671 N664 0.984 . S
H672 N660 0.984 . S
H673 N660 0.985 . S
C674 C675 1.363 1_545 S
C674 C680 1.379 . S
C674 N682 1.356 . S
C675 C674 1.363 1_565 S
C675 C681 1.363 . S
C676 C677 1.363 1_565 S
C676 C681 1.379 . S
C676 N683 1.356 . S
C677 C676 1.363 1_545 S
C677 C680 1.363 . S
N678 C680 1.356 . S
N678 H690 0.984 . S
N678 H691 0.985 . S
N679 C681 1.356 . S
N679 H684 0.984 . S
N679 H685 0.985 . S
C680 C674 1.379 . S
C680 C677 1.363 . S
C680 N678 1.356 . S
C681 C675 1.363 . S
C681 C676 1.379 . S
C681 N679 1.356 . S
N682 C674 1.356 . S
N682 H688 0.984 . S
N682 H689 0.984 1_545 S
N683 C676 1.356 . S
N683 H686 0.984 1_565 S
N683 H687 0.985 . S
H684 N679 0.984 . S
H685 N679 0.985 . S
H686 N683 0.984 1_545 S
H687 N683 0.985 . S
H688 N682 0.984 . S
H689 N682 0.984 1_565 S
H690 N678 0.984 . S
H691 N678 0.985 . S
C692 C693 1.363 . S
C692 C698 1.379 . S
C692 N700 1.356 . S
C693 C692 1.363 . S
C693 C699 1.363 . S
C694 C695 1.363 . S
C694 C699 1.379 . S
C694 N701 1.356 . S
C695 C694 1.363 . S
C695 C698 1.363 . S
N696 C698 1.356 . S
N696 H708 0.984 . S
N696 H709 0.985 . S
N697 C699 1.356 . S
N697 H702 0.984 . S
N697 H703 0.985 . S
C698 C692 1.379 . S
C698 C695 1.363 . S
C698 N696 1.356 . S
C699 C693 1.363 . S
C699 C694 1.379 . S
C699 N697 1.356 . S
N700 C692 1.356 . S
N700 H706 0.984 . S
N700 H707 0.984 . S
N701 C694 1.356 . S
N701 H704 0.984 . S
N701 H705 0.985 . S
H702 N697 0.984 . S
H703 N697 0.985 . S
H704 N701 0.984 . S
H705 N701 0.985 . S
H706 N700 0.984 . S
H707 N700 0.984 . S
H708 N696 0.984 . S
H709 N696 0.985 . S
C710 C711 1.363 . S
C710 C716 1.379 . S
C710 N718 1.356 . S
C711 C710 1.363 . S
C711 C717 1.363 . S
C712 C713 1.363 . S
C712 C717 1.379 . S
C712 N719 1.356 . S
C713 C712 1.363 . S
C713 C716 1.363 . S
N714 C716 1.356 . S
N714 H726 0.984 . S
N714 H727 0.985 . S
N715 C717 1.356 . S
N715 H720 0.984 . S
N715 H721 0.985 . S
C716 C710 1.379 . S
C716 C713 1.363 . S
C716 N714 1.356 . S
C717 C711 1.363 . S
C717 C712 1.379 . S
C717 N715 1.356 . S
N718 C710 1.356 . S
N718 H724 0.984 . S
N718 H725 0.984 . S
N719 C712 1.356 . S
N719 H722 0.984 . S
N719 H723 0.985 1_554 S
H720 N715 0.984 . S
H721 N715 0.985 . S
H722 N719 0.984 . S
H723 N719 0.985 1_556 S
H724 N718 0.984 . S
H725 N718 0.984 . S
H726 N714 0.984 . S
H727 N714 0.985 . S
C728 C729 1.363 . S
C728 C734 1.379 . S
C728 N736 1.356 . S
C729 C728 1.363 . S
C729 C735 1.363 . S
C730 C731 1.363 . S
C730 C735 1.379 . S
C730 N737 1.356 . S
C731 C730 1.363 . S
C731 C734 1.363 . S
N732 C734 1.356 . S
N732 H744 0.984 1_556 S
N732 H745 0.985 . S
N733 C735 1.356 . S
N733 H738 0.984 . S
N733 H739 0.985 . S
C734 C728 1.379 . S
C734 C731 1.363 . S
C734 N732 1.356 . S
C735 C729 1.363 . S
C735 C730 1.379 . S
C735 N733 1.356 . S
N736 C728 1.356 . S
N736 H742 0.984 1_556 S
N736 H743 0.984 . S
N737 C730 1.356 . S
N737 H740 0.984 . S
N737 H741 0.985 1_455 S
H738 N733 0.984 . S
H739 N733 0.985 . S
H740 N737 0.984 . S
H741 N737 0.985 1_655 S
H742 N736 0.984 1_554 S
H743 N736 0.984 . S
H744 N732 0.984 1_554 S
H745 N732 0.985 . S
C746 C747 1.363 . S
C746 C752 1.379 . S
C746 N754 1.356 . S
C747 C746 1.363 . S
C747 C753 1.363 . S
C748 C749 1.363 . S
C748 C753 1.379 . S
C748 N755 1.356 . S
C749 C748 1.363 . S
C749 C752 1.363 . S
N750 C752 1.356 . S
N750 H762 0.984 1_556 S
N750 H763 0.985 . S
N751 C753 1.356 . S
N751 H756 0.984 . S
N751 H757 0.985 . S
C752 C746 1.379 . S
C752 C749 1.363 . S
C752 N750 1.356 . S
C753 C747 1.363 . S
C753 C748 1.379 . S
C753 N751 1.356 . S
N754 C746 1.356 . S
N754 H760 0.984 1_556 S
N754 H761 0.984 . S
N755 C748 1.356 . S
N755 H758 0.984 . S
N755 H759 0.985 . S
H756 N751 0.984 . S
H757 N751 0.985 . S
H758 N755 0.984 . S
H759 N755 0.985 . S
H760 N754 0.984 1_554 S
H761 N754 0.984 . S
H762 N750 0.984 1_554 S
H763 N750 0.985 . S
C764 C765 1.363 . S
C764 C770 1.379 . S
C764 N772 1.356 . S
C765 C764 1.363 . S
C765 C771 1.363 . S
C766 C767 1.363 . S
C766 C771 1.379 . S
C766 N773 1.356 . S
C767 C766 1.363 . S
C767 C770 1.363 . S
N768 C770 1.356 . S
N768 H780 0.984 1_556 S
N768 H781 0.985 . S
N769 C771 1.356 . S
N769 H774 0.984 . S
N769 H775 0.985 . S
C770 C764 1.379 . S
C770 C767 1.363 . S
C770 N768 1.356 . S
C771 C765 1.363 . S
C771 C766 1.379 . S
C771 N769 1.356 . S
N772 C764 1.356 . S
N772 H778 0.984 1_556 S
N772 H779 0.984 . S
N773 C766 1.356 . S
N773 H776 0.984 . S
N773 H777 0.985 . S
H774 N769 0.984 . S
H775 N769 0.985 . S
H776 N773 0.984 . S
H777 N773 0.985 . S
H778 N772 0.984 1_554 S
H779 N772 0.984 . S
H780 N768 0.984 1_554 S
H781 N768 0.985 . S
C782 C783 1.363 . S
C782 C788 1.379 . S
C782 N790 1.356 . S
C783 C782 1.363 . S
C783 C789 1.363 . S
C784 C785 1.363 . S
C784 C789 1.379 . S
C784 N791 1.356 . S
C785 C784 1.363 . S
C785 C788 1.363 . S
N786 C788 1.356 . S
N786 H798 0.984 1_556 S
N786 H799 0.985 . S
N787 C789 1.356 . S
N787 H792 0.984 . S
N787 H793 0.985 . S
C788 C782 1.379 . S
C788 C785 1.363 . S
C788 N786 1.356 . S
C789 C783 1.363 . S
C789 C784 1.379 . S
C789 N787 1.356 . S
N790 C782 1.356 . S
N790 H796 0.984 1_556 S
N790 H797 0.984 . S
N791 C784 1.356 . S
N791 H794 0.984 . S
N791 H795 0.985 . S
H792 N787 0.984 . S
H793 N787 0.985 . S
H794 N791 0.984 . S
H795 N791 0.985 . S
H796 N790 0.984 1_554 S
H797 N790 0.984 . S
H798 N786 0.984 1_554 S
H799 N786 0.985 . S
C800 C801 1.363 . S
C800 C806 1.379 . S
C800 N808 1.356 . S
C801 C800 1.363 . S
C801 C807 1.363 . S
C802 C803 1.363 . S
C802 C807 1.379 . S
C802 N809 1.356 1_655 S
C803 C802 1.363 . S
C803 C806 1.363 . S
N804 C806 1.356 . S
N804 H816 0.984 . S
N804 H817 0.985 . S
N805 C807 1.356 . S
N805 H810 0.984 . S
N805 H811 0.985 1_655 S
C806 C800 1.379 . S
C806 C803 1.363 . S
C806 N804 1.356 . S
C807 C801 1.363 . S
C807 C802 1.379 . S
C807 N805 1.356 . S
N808 C800 1.356 . S
N808 H814 0.984 . S
N808 H815 0.984 . S
N809 C802 1.356 1_455 S
N809 H812 0.984 . S
N809 H813 0.985 . S
H810 N805 0.984 . S
H811 N805 0.985 1_455 S
H812 N809 0.984 . S
H813 N809 0.985 . S
H814 N808 0.984 . S
H815 N808 0.984 . S
H816 N804 0.984 . S
H817 N804 0.985 . S
C818 C819 1.363 . S
C818 C824 1.379 1_565 S
C818 N826 1.356 1_565 S
C819 C818 1.363 . S
C819 C825 1.363 . S
C820 C821 1.363 . S
C820 C825 1.379 . S
C820 N827 1.356 . S
C821 C820 1.363 . S
C821 C824 1.363 1_565 S
N822 C824 1.357 . S
N822 H834 0.984 . S
N822 H835 0.985 . S
N823 C825 1.356 . S
N823 H828 0.984 . S
N823 H829 0.985 . S
C824 C818 1.379 1_545 S
C824 C821 1.363 1_545 S
C824 N822 1.357 . S
C825 C819 1.363 . S
C825 C820 1.379 . S
C825 N823 1.356 . S
N826 C818 1.356 1_545 S
N826 H832 0.984 . S
N826 H833 0.984 . S
N827 C820 1.356 . S
N827 H830 0.984 . S
N827 H831 0.985 . S
H828 N823 0.984 . S
H829 N823 0.985 . S
H830 N827 0.984 . S
H831 N827 0.985 . S
H832 N826 0.984 . S
H833 N826 0.984 . S
H834 N822 0.984 . S
H835 N822 0.985 . S
C836 C837 1.363 . S
C836 C842 1.379 . S
C836 N844 1.356 . S
C837 C836 1.363 . S
C837 C843 1.363 . S
C838 C839 1.363 . S
C838 C843 1.379 . S
C838 N845 1.356 . S
C839 C838 1.363 . S
C839 C842 1.363 . S
N840 C842 1.356 . S
N840 H852 0.984 . S
N840 H853 0.985 . S
N841 C843 1.356 . S
N841 H846 0.984 . S
N841 H847 0.985 . S
C842 C836 1.379 . S
C842 C839 1.363 . S
C842 N840 1.356 . S
C843 C837 1.363 . S
C843 C838 1.379 . S
C843 N841 1.356 . S
N844 C836 1.356 . S
N844 H850 0.984 . S
N844 H851 0.984 . S
N845 C838 1.356 . S
N845 H848 0.984 . S
N845 H849 0.985 . S
H846 N841 0.984 . S
H847 N841 0.985 . S
H848 N845 0.984 . S
H849 N845 0.985 . S
H850 N844 0.984 . S
H851 N844 0.984 . S
H852 N840 0.984 . S
H853 N840 0.985 . S
C854 C855 1.363 . S
C854 C860 1.379 . S
C854 N862 1.356 . S
C855 C854 1.363 . S
C855 C861 1.363 . S
C856 C857 1.363 . S
C856 C861 1.379 . S
C856 N863 1.356 . S
C857 C856 1.363 . S
C857 C860 1.363 . S
N858 C860 1.356 . S
N858 H870 0.984 . S
N858 H871 0.985 . S
N859 C861 1.356 . S
N859 H864 0.984 . S
N859 H865 0.985 . S
C860 C854 1.379 . S
C860 C857 1.363 . S
C860 N858 1.356 . S
C861 C855 1.363 . S
C861 C856 1.379 . S
C861 N859 1.356 . S
N862 C854 1.356 . S
N862 H868 0.984 . S
N862 H869 0.984 . S
N863 C856 1.356 . S
N863 H866 0.984 . S
N863 H867 0.985 . S
H864 N859 0.984 . S
H865 N859 0.985 . S
H866 N863 0.984 . S
H867 N863 0.985 . S
H868 N862 0.984 . S
H869 N862 0.984 . S
H870 N858 0.984 . S
H871 N858 0.985 . S
C441 C82 1.802 . S
C443 C179 2.082 . S
C461 C263 2.092 . S
C459 C95 1.816 . S
C479 C339 1.992 . S
C477 C56 1.890 . S
C497 C423 1.985 . S
C495 C69 1.877 . S
C515 C170 2.083 1_565 S
C513 C30 1.746 . S
C531 C43 1.752 . S
C533 C254 2.092 . S
C549 C4 1.819 . S
C551 C328 1.992 . S
C567 C17 1.813 . S
C569 C412 1.985 . S
C587 C167 0.957 . S
C585 C74 0.895 . S
C605 C251 0.923 . S
C603 C87 0.871 . S
C623 C344 0.888 . S
C621 C100 0.848 . S
C639 C61 0.870 . S
C641 C428 0.920 . S
C657 C22 0.891 . S
C659 C176 0.947 . S
C677 C260 0.914 . S
C675 C35 0.868 . S
C695 C335 0.888 . S
C693 C48 0.845 . S
C711 C9 0.867 . S
C713 C419 0.920 . S
C729 C73 2.102 . S
C731 C160 2.197 . S
C747 C86 2.082 . S
C749 C244 2.178 . S
C767 C338 2.277 . S
C765 C99 2.006 . S
C785 C422 2.295 . S
C783 C60 2.025 . S
C801 C21 2.098 . S
C803 C171 2.197 . S
C821 C255 2.178 . S
C819 C34 2.079 . S
C839 C347 2.277 . S
C837 C47 2.002 . S
C855 C8 2.020 . S
C857 C431 2.295 . S
