# Generated by pormake.
# Topology pyr, (3,6)-cn, num edge types: 1
# Building blocks:
#     Node 0, Type 0, BuildingBlock: MIDCAF_clean_linker_0, # of connection points: 3
#     Node 1, Type 0, BuildingBlock: MIDCAF_clean_linker_0, # of connection points: 3
#     Node 2, Type 0, BuildingBlock: MIDCAF_clean_linker_0, # of connection points: 3
#     Node 3, Type 0, BuildingBlock: MIDCAF_clean_linker_0, # of connection points: 3
#     Node 4, Type 0, BuildingBlock: MIDCAF_clean_linker_0, # of connection points: 3
#     Node 5, Type 0, BuildingBlock: MIDCAF_clean_linker_0, # of connection points: 3
#     Node 6, Type 0, BuildingBlock: MIDCAF_clean_linker_0, # of connection points: 3
#     Node 7, Type 0, BuildingBlock: MIDCAF_clean_linker_0, # of connection points: 3
#     Node 8, Type 1, BuildingBlock: PAMTOO_clean_sbu_0, # of connection points: 6
#     Node 9, Type 1, BuildingBlock: PAMTOO_clean_sbu_0, # of connection points: 6
#     Node 10, Type 1, BuildingBlock: PAMTOO_clean_sbu_0, # of connection points: 6
#     Node 11, Type 1, BuildingBlock: PAMTOO_clean_sbu_0, # of connection points: 6
#     Edge 12, Type (0, 1), BuildingBlock: XIVTED_clean_linker_0, # of connection points: 2
#     Edge 13, Type (0, 1), BuildingBlock: XIVTED_clean_linker_0, # of connection points: 2
#     Edge 14, Type (0, 1), BuildingBlock: XIVTED_clean_linker_0, # of connection points: 2
#     Edge 15, Type (0, 1), BuildingBlock: XIVTED_clean_linker_0, # of connection points: 2
#     Edge 16, Type (0, 1), BuildingBlock: XIVTED_clean_linker_0, # of connection points: 2
#     Edge 17, Type (0, 1), BuildingBlock: XIVTED_clean_linker_0, # of connection points: 2
#     Edge 18, Type (0, 1), BuildingBlock: XIVTED_clean_linker_0, # of connection points: 2
#     Edge 19, Type (0, 1), BuildingBlock: XIVTED_clean_linker_0, # of connection points: 2
#     Edge 20, Type (0, 1), BuildingBlock: XIVTED_clean_linker_0, # of connection points: 2
#     Edge 21, Type (0, 1), BuildingBlock: XIVTED_clean_linker_0, # of connection points: 2
#     Edge 22, Type (0, 1), BuildingBlock: XIVTED_clean_linker_0, # of connection points: 2
#     Edge 23, Type (0, 1), BuildingBlock: XIVTED_clean_linker_0, # of connection points: 2
#     Edge 24, Type (0, 1), BuildingBlock: XIVTED_clean_linker_0, # of connection points: 2
#     Edge 25, Type (0, 1), BuildingBlock: XIVTED_clean_linker_0, # of connection points: 2
#     Edge 26, Type (0, 1), BuildingBlock: XIVTED_clean_linker_0, # of connection points: 2
#     Edge 27, Type (0, 1), BuildingBlock: XIVTED_clean_linker_0, # of connection points: 2
#     Edge 28, Type (0, 1), BuildingBlock: XIVTED_clean_linker_0, # of connection points: 2
#     Edge 29, Type (0, 1), BuildingBlock: XIVTED_clean_linker_0, # of connection points: 2
#     Edge 30, Type (0, 1), BuildingBlock: XIVTED_clean_linker_0, # of connection points: 2
#     Edge 31, Type (0, 1), BuildingBlock: XIVTED_clean_linker_0, # of connection points: 2
#     Edge 32, Type (0, 1), BuildingBlock: XIVTED_clean_linker_0, # of connection points: 2
#     Edge 33, Type (0, 1), BuildingBlock: XIVTED_clean_linker_0, # of connection points: 2
#     Edge 34, Type (0, 1), BuildingBlock: XIVTED_clean_linker_0, # of connection points: 2
#     Edge 35, Type (0, 1), BuildingBlock: XIVTED_clean_linker_0, # of connection points: 2
# Relax obj value: 0.091
# Max RMSD: 0.158
# Mean RMSD: 0.068
data_MOF--net-pyr--node1-PAMTOO_clean_sbu_0--node2-MIDCAF_clean_linker_0--edge1-XIVTED_clean_linker_0
_symmetry_space_group_name_H-M    P1
_symmetry_Int_Tables_number       1
_symmetry_cell_setting            triclinic
loop_
_symmetry_equiv_pos_as_xyz
'x, y, z'
_cell_length_a     45.201465
_cell_length_b     47.656726
_cell_length_c     47.433592
_cell_angle_alpha  89.953846
_cell_angle_beta   90.116077
_cell_angle_gamma 102.09017
loop_
_atom_site_label
_atom_site_type_symbol
_atom_site_fract_x
_atom_site_fract_y
_atom_site_fract_z
_atom_type_partial_charge
C0 C 0.30227 0.2706 0.33045 0.0
C1 C 0.30532 0.24358 0.34054 0.0
C2 C 0.32251 0.22779 0.32471 0.0
C3 C 0.33433 0.23775 0.29852 0.0
H4 H 0.39014 0.2238 0.23473 0.0
H5 H 0.41566 0.1924 0.20825 0.0
H6 H 0.39281 0.23001 0.13039 0.0
H7 H 0.36643 0.26107 0.15686 0.0
H8 H 0.31595 0.30017 0.1582 0.0
H9 H 0.27634 0.31954 0.13452 0.0
H10 H 0.2397 0.33587 0.21534 0.0
H11 H 0.27894 0.31695 0.23903 0.0
H12 H 0.30957 0.30056 0.29626 0.0
H13 H 0.28991 0.28373 0.34239 0.0
H14 H 0.32519 0.2068 0.33157 0.0
H15 H 0.34592 0.22422 0.28623 0.0
N16 N 0.35414 0.25766 0.24244 0.0
N17 N 0.34045 0.27801 0.20057 0.0
N18 N 0.31914 0.28747 0.24363 0.0
C19 C 0.35712 0.26136 0.2141 0.0
C20 C 0.32148 0.29127 0.21528 0.0
C21 C 0.33538 0.2708 0.25738 0.0
C22 C 0.37581 0.24481 0.19796 0.0
C23 C 0.39073 0.22568 0.21197 0.0
C24 C 0.40562 0.20772 0.19677 0.0
C25 C 0.4061 0.20847 0.16717 0.0
C26 C 0.39239 0.2285 0.15318 0.0
C27 C 0.3774 0.24645 0.16838 0.0
C28 C 0.30048 0.30658 0.20056 0.0
C29 C 0.29974 0.30829 0.17093 0.0
C30 C 0.27712 0.31941 0.15734 0.0
C31 C 0.25473 0.32873 0.17314 0.0
C32 C 0.25638 0.32833 0.20266 0.0
C33 C 0.27902 0.31755 0.21621 0.0
C34 C 0.32887 0.26351 0.28737 0.0
C35 C 0.31371 0.28036 0.30406 0.0
C36 C 0.10889 0.83245 0.69949 0.0
C37 C 0.10613 0.83097 0.66999 0.0
C38 C 0.1177 0.80989 0.65549 0.0
C39 C 0.13276 0.7915 0.67001 0.0
H40 H 0.20412 0.74937 0.65783 0.0
H41 H 0.24145 0.72768 0.63364 0.0
H42 H 0.25445 0.68178 0.70963 0.0
H43 H 0.21728 0.70335 0.73385 0.0
H44 H 0.20658 0.73474 0.79322 0.0
H45 H 0.22754 0.75033 0.8393 0.0
H46 H 0.18826 0.82544 0.8337 0.0
H47 H 0.16641 0.80933 0.78836 0.0
H48 H 0.12627 0.81637 0.73667 0.0
H49 H 0.1005 0.84858 0.7113 0.0
H50 H 0.11546 0.80783 0.63281 0.0
H51 H 0.14195 0.77597 0.65804 0.0
N52 N 0.17026 0.75904 0.70006 0.0
N53 N 0.1923 0.74741 0.7421 0.0
N54 N 0.15913 0.7791 0.74288 0.0
C55 C 0.18877 0.74442 0.71376 0.0
C56 C 0.17759 0.76468 0.75684 0.0
C57 C 0.15505 0.77618 0.71456 0.0
C58 C 0.20788 0.72825 0.69785 0.0
C59 C 0.21452 0.73425 0.66924 0.0
C60 C 0.23606 0.72202 0.65543 0.0
C61 C 0.25099 0.70322 0.66982 0.0
C62 C 0.24318 0.69607 0.69795 0.0
C63 C 0.22199 0.70856 0.71186 0.0
C64 C 0.18526 0.77104 0.78685 0.0
C65 C 0.20188 0.75427 0.80212 0.0
C66 C 0.21405 0.76329 0.8285 0.0
C67 C 0.21015 0.78945 0.84005 0.0
C68 C 0.19161 0.80508 0.82568 0.0
C69 C 0.17917 0.79589 0.79946 0.0
C70 C 0.13656 0.79371 0.69941 0.0
C71 C 0.12388 0.81403 0.71403 0.0
C72 C 0.62674 0.2612 0.90079 0.0
C73 C 0.5974 0.2468 0.89336 0.0
C74 C 0.58232 0.25839 0.87161 0.0
C75 C 0.59598 0.28437 0.85839 0.0
H76 H 0.58751 0.35115 0.79628 0.0
H77 H 0.56949 0.37242 0.75427 0.0
H78 H 0.65821 0.42595 0.74268 0.0
H79 H 0.67619 0.40506 0.78473 0.0
H80 H 0.72456 0.41345 0.83976 0.0
H81 H 0.76965 0.43711 0.86596 0.0
H82 H 0.73841 0.38455 0.93864 0.0
H83 H 0.69442 0.36053 0.91245 0.0
H84 H 0.66281 0.2972 0.89454 0.0
H85 H 0.63944 0.2526 0.91684 0.0
H86 H 0.55968 0.24782 0.86534 0.0
H87 H 0.5836 0.29311 0.8422 0.0
N88 N 0.62945 0.33845 0.83077 0.0
N89 N 0.66927 0.37925 0.83386 0.0
N90 N 0.66439 0.34309 0.8679 0.0
C91 C 0.64426 0.3643 0.82017 0.0
C92 C 0.67926 0.36881 0.85796 0.0
C93 C 0.63973 0.3276 0.85463 0.0
C94 C 0.63332 0.37639 0.79403 0.0
C95 C 0.60323 0.36736 0.78473 0.0
C96 C 0.59284 0.37966 0.76073 0.0
C97 C 0.61241 0.40089 0.7451 0.0
C98 C 0.6426 0.40951 0.75409 0.0
C99 C 0.65285 0.39761 0.77834 0.0
C100 C 0.70596 0.38483 0.87381 0.0
C101 C 0.72736 0.40705 0.86136 0.0
C102 C 0.75317 0.42068 0.87645 0.0
C103 C 0.75801 0.41255 0.90441 0.0
C104 C 0.73605 0.39092 0.91697 0.0
C105 C 0.71058 0.37721 0.9019 0.0
C106 C 0.62499 0.29919 0.8667 0.0
C107 C 0.64024 0.2869 0.88778 0.0
C108 C 0.76481 0.65749 0.40884 0.0
C109 C 0.75325 0.62788 0.40599 0.0
C110 C 0.76688 0.6125 0.38621 0.0
C111 C 0.79166 0.6264 0.37001 0.0
H112 H 0.84952 0.6176 0.3024 0.0
H113 H 0.86723 0.5956 0.26118 0.0
H114 H 0.92763 0.67585 0.24094 0.0
H115 H 0.90975 0.69809 0.28216 0.0
H116 H 0.92716 0.74441 0.34377 0.0
H117 H 0.95026 0.79018 0.36651 0.0
H118 H 0.86435 0.79327 0.40464 0.0
H119 H 0.84168 0.74813 0.3826 0.0
H120 H 0.79759 0.69412 0.39588 0.0
H121 H 0.75456 0.67026 0.42325 0.0
H122 H 0.75876 0.58962 0.38354 0.0
H123 H 0.80183 0.6139 0.35526 0.0
N124 N 0.84177 0.65881 0.33505 0.0
N125 N 0.88002 0.70046 0.32917 0.0
N126 N 0.84403 0.69809 0.36506 0.0
C127 C 0.8665 0.67334 0.32072 0.0
C128 C 0.86872 0.71295 0.35142 0.0
C129 C 0.83039 0.67116 0.35728 0.0
C130 C 0.87812 0.65975 0.2958 0.0
C131 C 0.86661 0.63067 0.28927 0.0
C132 C 0.87692 0.61793 0.26562 0.0
C133 C 0.8989 0.63388 0.24763 0.0
C134 C 0.91045 0.66295 0.25412 0.0
C135 C 0.90032 0.67567 0.27794 0.0
C136 C 0.88268 0.74227 0.3617 0.0
C137 C 0.91322 0.75511 0.35675 0.0
C138 C 0.92643 0.78132 0.36977 0.0
C139 C 0.90931 0.7951 0.38792 0.0
C140 C 0.87847 0.7829 0.3915 0.0
C141 C 0.86541 0.75695 0.37869 0.0
C142 C 0.80344 0.65596 0.37332 0.0
C143 C 0.78952 0.67127 0.39287 0.0
C144 C 0.61655 0.83505 0.8629 0.0
C145 C 0.60926 0.83041 0.89149 0.0
C146 C 0.61627 0.80644 0.90513 0.0
C147 C 0.63143 0.78807 0.89066 0.0
H148 H 0.69687 0.7384 0.90576 0.0
H149 H 0.73496 0.71795 0.93062 0.0
H150 H 0.76452 0.6889 0.85142 0.0
H151 H 0.72671 0.7089 0.82658 0.0
H152 H 0.71433 0.73754 0.77029 0.0
H153 H 0.7387 0.75559 0.72627 0.0
H154 H 0.69647 0.82886 0.73065 0.0
H155 H 0.67149 0.81052 0.77415 0.0
H156 H 0.63708 0.82125 0.82647 0.0
H157 H 0.61107 0.85318 0.8518 0.0
H158 H 0.61097 0.80245 0.92722 0.0
H159 H 0.63726 0.77021 0.90193 0.0
N160 N 0.67175 0.75716 0.86173 0.0
N161 N 0.69538 0.74695 0.82015 0.0
N162 N 0.6633 0.77952 0.8192 0.0
C163 C 0.69048 0.74268 0.8482 0.0
C164 C 0.6819 0.76522 0.80545 0.0
C165 C 0.65781 0.77542 0.84723 0.0
C166 C 0.70907 0.72581 0.86408 0.0
C167 C 0.71103 0.72711 0.8937 0.0
C168 C 0.73281 0.71541 0.90796 0.0
C169 C 0.75299 0.7024 0.89282 0.0
C170 C 0.74961 0.69936 0.86351 0.0
C171 C 0.72784 0.7108 0.84932 0.0
C172 C 0.69141 0.77287 0.77608 0.0
C173 C 0.70971 0.7572 0.76156 0.0
C174 C 0.72381 0.7676 0.73637 0.0
C175 C 0.72004 0.79396 0.72521 0.0
C176 C 0.6998 0.80841 0.73853 0.0
C177 C 0.68554 0.79793 0.76364 0.0
C178 C 0.63951 0.79319 0.86219 0.0
C179 C 0.63134 0.81659 0.84837 0.0
C180 C 0.82328 0.22797 0.24679 0.0
C181 C 0.7961 0.23324 0.23565 0.0
C182 C 0.78366 0.25514 0.24761 0.0
C183 C 0.79683 0.26992 0.27142 0.0
H184 H 0.78578 0.33053 0.32818 0.0
H185 H 0.7508 0.35498 0.35145 0.0
H186 H 0.78707 0.33774 0.4325 0.0
H187 H 0.82185 0.3124 0.40914 0.0
H188 H 0.86405 0.26659 0.41183 0.0
H189 H 0.89111 0.23601 0.43848 0.0
H190 H 0.92614 0.20864 0.3609 0.0
H191 H 0.89933 0.23923 0.3342 0.0
H192 H 0.85651 0.23705 0.2795 0.0
H193 H 0.83384 0.21171 0.23766 0.0
H194 H 0.76266 0.25969 0.23972 0.0
H195 H 0.78568 0.2856 0.28087 0.0
N196 N 0.81861 0.29319 0.32518 0.0
N197 N 0.84484 0.28899 0.36713 0.0
N198 N 0.85321 0.26299 0.32698 0.0
C199 C 0.82458 0.30081 0.35251 0.0
C200 C 0.8595 0.27028 0.35437 0.0
C201 C 0.8328 0.27436 0.31221 0.0
C202 C 0.80645 0.31915 0.36677 0.0
C203 C 0.78664 0.33214 0.35096 0.0
C204 C 0.76666 0.34643 0.36433 0.0
C205 C 0.76601 0.34822 0.39387 0.0
C206 C 0.78674 0.33638 0.4097 0.0
C207 C 0.80682 0.32204 0.39629 0.0
C208 C 0.87925 0.25514 0.37084 0.0
C209 C 0.87795 0.25447 0.40046 0.0
C210 C 0.89327 0.23682 0.41573 0.0
C211 C 0.91049 0.21976 0.40174 0.0
C212 C 0.91317 0.22166 0.37228 0.0
C213 C 0.89763 0.23907 0.35698 0.0
C214 C 0.82263 0.263 0.28394 0.0
C215 C 0.83637 0.24264 0.27071 0.0
C216 C 0.25618 0.60914 0.19283 0.0
C217 C 0.25332 0.61152 0.16345 0.0
C218 C 0.27744 0.62784 0.14812 0.0
C219 C 0.30355 0.64227 0.16196 0.0
H220 H 0.35686 0.72138 0.15863 0.0
H221 H 0.3769 0.76794 0.13836 0.0
H222 H 0.43961 0.78827 0.20777 0.0
H223 H 0.41949 0.74083 0.22844 0.0
H224 H 0.42025 0.68496 0.27441 0.0
H225 H 0.43902 0.66421 0.31626 0.0
H226 H 0.36075 0.59444 0.31455 0.0
H227 H 0.34241 0.61462 0.27275 0.0
H228 H 0.28416 0.62112 0.22933 0.0
H229 H 0.23787 0.59663 0.20509 0.0
H230 H 0.27571 0.63016 0.12548 0.0
H231 H 0.32149 0.65522 0.1496 0.0
N232 N 0.34782 0.68239 0.19503 0.0
N233 N 0.38271 0.68892 0.23242 0.0
N234 N 0.34371 0.64753 0.23031 0.0
C235 C 0.37228 0.69871 0.20802 0.0
C236 C 0.36851 0.66314 0.24364 0.0
C237 C 0.33339 0.65696 0.20594 0.0
C238 C 0.38631 0.72716 0.19546 0.0
C239 C 0.37493 0.73555 0.16982 0.0
C240 C 0.38632 0.76251 0.15814 0.0
C241 C 0.40957 0.78212 0.17158 0.0
C242 C 0.42168 0.77365 0.19685 0.0
C243 C 0.4101 0.74648 0.20873 0.0
C244 C 0.37983 0.65151 0.26991 0.0
C245 C 0.40701 0.66523 0.28298 0.0
C246 C 0.41773 0.65335 0.30712 0.0
C247 C 0.40157 0.62744 0.31882 0.0
C248 C 0.37421 0.61404 0.30593 0.0
C249 C 0.36355 0.62584 0.28191 0.0
C250 C 0.30639 0.64017 0.19137 0.0
C251 C 0.28266 0.62302 0.20663 0.0
C252 C 0.1363 0.26177 0.68035 0.0
C253 C 0.10491 0.25134 0.67778 0.0
C254 C 0.08538 0.26742 0.69009 0.0
C255 C 0.09703 0.29381 0.70343 0.0
H256 H 0.09173 0.35211 0.77662 0.0
H257 H 0.07275 0.37359 0.81761 0.0
H258 H 0.14775 0.44632 0.81193 0.0
H259 H 0.16629 0.42529 0.77064 0.0
H260 H 0.21754 0.42825 0.72247 0.0
H261 H 0.26371 0.45163 0.69766 0.0
H262 H 0.24956 0.38252 0.63706 0.0
H263 H 0.20435 0.35913 0.66169 0.0
H264 H 0.17213 0.29575 0.69394 0.0
H265 H 0.15219 0.24973 0.67213 0.0
H266 H 0.06108 0.26022 0.68852 0.0
H267 H 0.08151 0.30621 0.71177 0.0
N268 N 0.12944 0.34658 0.73636 0.0
N269 N 0.168 0.38815 0.73175 0.0
N270 N 0.16652 0.34924 0.7014 0.0
C271 C 0.14279 0.37357 0.74532 0.0
C272 C 0.17987 0.37614 0.70961 0.0
C273 C 0.14147 0.33429 0.71443 0.0
C274 C 0.13063 0.38684 0.77013 0.0
C275 C 0.10416 0.37273 0.78401 0.0
C276 C 0.09335 0.38502 0.80772 0.0
C277 C 0.10869 0.41176 0.81832 0.0
C278 C 0.135 0.42594 0.80428 0.0
C279 C 0.14578 0.4137 0.78057 0.0
C280 C 0.20727 0.39159 0.69436 0.0
C281 C 0.22429 0.41811 0.70382 0.0
C282 C 0.25068 0.43158 0.68953 0.0
C283 C 0.26059 0.41877 0.66556 0.0
C284 C 0.24307 0.3927 0.6558 0.0
C285 C 0.21691 0.37931 0.66997 0.0
C286 C 0.1284 0.30478 0.70436 0.0
C287 C 0.14781 0.28815 0.69316 0.0
Dy288 Dy 0.04026 0.03022 0.51424 0.0
Dy289 Dy 0.9758 0.01643 0.54945 0.0
C290 C 0.02854 0.06994 0.56644 0.0
O291 O 0.04054 0.99053 0.53875 0.0
O292 O 0.00708 0.99486 0.57402 0.0
O293 O 0.08892 0.03537 0.51377 0.0
O294 O 0.06428 0.03821 0.4749 0.0
O295 O 0.97616 0.97711 0.52409 0.0
O296 O 0.00784 0.99771 0.4887 0.0
O297 O 0.96898 0.04191 0.5113 0.0
O298 O 0.0176 0.06595 0.5034 0.0
O299 O 0.9271 1.0059 0.54759 0.0
O300 O 0.94991 1.01316 0.588 0.0
C301 C 0.02882 0.98346 0.56368 0.0
O302 O 0.04824 0.05838 0.55262 0.0
O303 O 0.99927 0.0598 0.56441 0.0
C304 C 0.11369 0.06743 0.47886 0.0
C305 C 0.15904 0.1144 0.46139 0.0
C306 C 0.16548 0.09481 0.4815 0.0
C307 C 0.14307 0.0715 0.49003 0.0
C308 C 0.10701 0.08734 0.45925 0.0
C309 C 0.12945 0.11051 0.45058 0.0
C310 C 0.09079 0.04181 0.48699 0.0
C311 C 0.98732 0.97625 0.49865 0.0
C312 C 0.98838 0.06355 0.50041 0.0
C313 C 0.90322 0.98009 0.58623 0.0
C314 C 0.86178 0.93213 0.60704 0.0
C315 C 0.88973 0.92898 0.59586 0.0
C316 C 0.9103 0.95282 0.58546 0.0
C317 C 0.87548 0.98334 0.59729 0.0
C318 C 0.85491 0.95958 0.60762 0.0
C319 C 0.92409 1.00524 0.57491 0.0
H320 H 0.18791 0.09733 0.49052 0.0
H321 H 0.1488 0.05643 0.50516 0.0
H322 H 0.08462 0.0848 0.45014 0.0
H323 H 0.12376 0.12485 0.43469 0.0
H324 H 0.89557 0.90809 0.59494 0.0
H325 H 0.93163 0.94999 0.57676 0.0
H326 H 0.86972 1.00429 0.59796 0.0
H327 H 0.83383 0.96282 0.61653 0.0
Dy328 Dy 0.47089 1.00699 1.01507 0.0
Dy329 Dy 0.53599 0.02086 0.04872 0.0
C330 C 0.48379 0.96733 0.06622 0.0
O331 O 0.47004 0.04611 0.04019 0.0
O332 O 0.50594 0.04325 0.07394 0.0
O333 O 0.42206 1.00006 1.01486 0.0
O334 O 0.44666 0.99921 0.97575 0.0
O335 O 0.53495 0.06104 1.02502 0.0
O336 O 0.50189 0.04128 0.99011 0.0
O337 O 0.54214 0.9991 1.0081 0.0
O338 O 0.49451 0.972 1.00367 0.0
O339 O 0.58474 0.03185 0.04636 0.0
O340 O 0.56249 0.0211 0.08663 0.0
C341 C 0.4832 0.05392 0.06446 0.0
O342 O 0.46377 0.97988 0.05415 0.0
O343 O 0.5129 0.97668 0.06213 0.0
C344 C 0.39831 0.96801 0.97934 0.0
C345 C 0.3549 0.91971 0.96132 0.0
C346 C 0.34836 0.93703 0.98348 0.0
C347 C 0.3698 0.96099 0.99231 0.0
C348 C 0.40506 0.95045 0.95752 0.0
C349 C 0.3836 0.92661 0.94861 0.0
C350 C 0.42021 0.99421 0.98795 0.0
C351 C 0.52264 0.0626 1.00011 0.0
C352 C 0.52347 0.97646 0.99818 0.0
C353 C 0.61055 0.05243 0.08691 0.0
C354 C 0.65447 0.09423 0.11418 0.0
C355 C 0.62455 0.09805 0.11132 0.0
C356 C 0.6027 0.07726 0.09775 0.0
C357 C 0.64042 0.0489 0.08913 0.0
C358 C 0.66221 0.0696 0.10259 0.0
C359 C 0.58815 0.02966 0.0735 0.0
H360 H 0.32659 0.93218 0.99391 0.0
H361 H 0.36396 0.97422 1.0091 0.0
H362 H 0.42673 0.95533 0.94691 0.0
H363 H 0.38925 0.91411 0.93113 0.0
H364 H 0.61784 0.11669 0.12021 0.0
H365 H 0.57968 0.08035 0.09606 0.0
H366 H 0.64686 0.02993 0.08064 0.0
H367 H 0.68515 0.06626 0.10398 0.0
Dy368 Dy 0.50518 0.49034 0.51897 0.0
Dy369 Dy 0.51018 0.55084 0.55327 0.0
C370 C 0.53568 0.49858 0.57936 0.0
O371 O 0.46729 0.48257 0.54997 0.0
O372 O 0.46136 0.52876 0.55523 0.0
O373 O 0.49927 0.44419 0.51929 0.0
O374 O 0.50601 0.4674 0.47979 0.0
O375 O 0.49717 0.55903 0.509 0.0
O376 O 0.47422 0.51353 0.49562 0.0
O377 O 0.55743 0.55257 0.53771 0.0
O378 O 0.54476 0.52094 0.50104 0.0
O379 O 0.51681 0.59713 0.55404 0.0
O380 O 0.50718 0.57291 0.59258 0.0
C381 C 0.45139 0.50104 0.55849 0.0
O382 O 0.53904 0.48987 0.55353 0.0
O383 O 0.52032 0.51858 0.58423 0.0
C384 C 0.53071 0.42912 0.48523 0.0
C385 C 0.5823 0.40894 0.46857 0.0
C386 C 0.57968 0.41834 0.49633 0.0
C387 C 0.55422 0.42853 0.50454 0.0
C388 C 0.53282 0.41883 0.45779 0.0
C389 C 0.55844 0.40889 0.44948 0.0
C390 C 0.50566 0.44311 0.49256 0.0
C391 C 0.47949 0.54148 0.49178 0.0
C392 C 0.5641 0.54145 0.51372 0.0
C393 C 0.48299 0.61114 0.58593 0.0
C394 C 0.43169 0.633 0.60003 0.0
C395 C 0.42943 0.6105 0.58051 0.0
C396 C 0.45487 0.59976 0.57345 0.0
C397 C 0.48559 0.63402 0.60494 0.0
C398 C 0.46012 0.64502 0.61183 0.0
C399 C 0.50874 0.59764 0.58035 0.0
H400 H 0.59786 0.41891 0.51138 0.0
H401 H 0.55339 0.43676 0.52575 0.0
H402 H 0.51504 0.41931 0.44255 0.0
H403 H 0.55978 0.40152 0.42802 0.0
H404 H 0.40793 0.60108 0.5708 0.0
H405 H 0.45246 0.58218 0.55861 0.0
H406 H 0.50712 0.64294 0.61485 0.0
H407 H 0.46244 0.66226 0.62707 0.0
Dy408 Dy 0.00601 0.54942 1.01905 0.0
Dy409 Dy 1.00191 0.48828 0.05237 0.0
C410 C 0.97432 0.53962 0.07901 0.0
O411 O 0.04291 0.5565 0.05131 0.0
O412 O 0.0506 0.51072 0.05309 0.0
O413 O 0.01338 0.59566 1.01985 0.0
O414 O 0.00483 0.57293 0.9802 0.0
O415 O 0.01451 0.48052 1.00797 0.0
O416 O 0.03668 0.52644 0.99511 0.0
O417 O 0.95469 0.4857 0.03665 0.0
O418 O 0.96514 0.51981 1.00169 0.0
O419 O 0.99355 0.44193 0.05375 0.0
O420 O 0.00817 0.46673 0.09129 0.0
C421 C 0.05972 0.53821 0.05818 0.0
O422 O 0.9725 0.55008 0.05359 0.0
O423 O 0.98887 0.51889 0.0836 0.0
C424 C 0.98267 0.61281 0.98639 0.0
C425 C 0.93388 0.63807 0.97079 0.0
C426 C 0.93493 0.62595 0.99773 0.0
C427 C 0.95898 0.61328 1.00539 0.0
C428 C 0.9821 0.62541 0.95977 0.0
C429 C 0.95793 0.63788 0.95199 0.0
C430 C 0.00668 0.5973 0.99323 0.0
C431 C 0.0317 0.49855 0.99084 0.0
C432 C 0.94697 0.49792 1.01366 0.0
C433 C 0.0277 0.42558 0.08427 0.0
C434 C 0.0769 0.3997 0.09683 0.0
C435 C 0.07626 0.415 0.07151 0.0
C436 C 0.05196 0.42796 0.06536 0.0
C437 C 0.02788 0.40988 0.1092 0.0
C438 C 0.05224 0.39708 0.11546 0.0
C439 C 1.00363 0.44154 0.07949 0.0
H440 H 0.91707 0.62606 1.01289 0.0
H441 H 0.95875 0.60343 1.026 0.0
H442 H 0.99998 0.62494 0.9447 0.0
H443 H 0.95767 0.64655 0.93091 0.0
H444 H 0.09464 0.41718 0.05652 0.0
H445 H 0.0524 0.4403 0.04611 0.0
H446 H 0.00956 0.4082 0.12421 0.0
H447 H 0.05215 0.38596 0.13538 0.0
H448 H 0.3214 0.20771 0.38092 0.0
H449 H 0.15534 0.16953 0.44727 0.0
H450 H 0.24838 0.24852 0.35662 0.0
H451 H 0.21825 0.11272 0.45023 0.0
H452 H 0.19376 0.20541 0.42353 0.0
H453 H 0.28811 0.17965 0.416 0.0
C454 C 0.29855 0.21105 0.3831 0.0
C455 C 0.28766 0.23029 0.36538 0.0
C456 C 0.19922 0.18519 0.42969 0.0
C457 C 0.24966 0.19852 0.40578 0.0
C458 C 0.17726 0.16462 0.4431 0.0
C459 C 0.18334 0.13782 0.45038 0.0
C460 C 0.22755 0.17903 0.42361 0.0
C461 C 0.21249 0.13306 0.44513 0.0
C462 C 0.27962 0.19509 0.40321 0.0
C463 C 0.25802 0.23419 0.3698 0.0
N464 N 0.23341 0.15335 0.43183 0.0
N465 N 0.24001 0.21825 0.38934 0.0
H466 H 0.19346 0.8219 0.88304 0.0
H467 H 0.36219 0.86694 0.94291 0.0
H468 H 0.26851 0.7868 0.85351 0.0
H469 H 0.29412 0.91739 0.95434 0.0
H470 H 0.32467 0.83026 0.91905 0.0
H471 H 0.22686 0.84969 0.91828 0.0
C472 C 0.21681 0.81974 0.88412 0.0
C473 C 0.2282 0.80224 0.8649 0.0
C474 C 0.3179 0.84923 0.92709 0.0
C475 C 0.2664 0.83374 0.9054 0.0
C476 C 0.33933 0.87026 0.94057 0.0
C477 C 0.33147 0.89556 0.95026 0.0
C478 C 0.28833 0.85343 0.9233 0.0
C479 C 0.30125 0.89825 0.94732 0.0
C480 C 0.23582 0.83555 0.90431 0.0
C481 C 0.25852 0.7998 0.86787 0.0
N482 N 0.28086 0.87759 0.93384 0.0
N483 N 0.27659 0.8156 0.88749 0.0
H484 H 0.63922 0.41137 0.69305 0.0
H485 H 0.5212 0.50122 0.63515 0.0
H486 H 0.56043 0.42165 0.73973 0.0
H487 H 0.5775 0.4638 0.57926 0.0
H488 H 0.53963 0.47705 0.6749 0.0
H489 H 0.62108 0.43496 0.65237 0.0
C490 C 0.61813 0.41862 0.69476 0.0
C491 C 0.60131 0.41447 0.71988 0.0
C492 C 0.54799 0.47412 0.65396 0.0
C493 C 0.58058 0.44176 0.67344 0.0
C494 C 0.5376 0.48807 0.6312 0.0
C495 C 0.54782 0.48464 0.6037 0.0
C496 C 0.56917 0.45684 0.64945 0.0
C497 C 0.56896 0.46709 0.60003 0.0
C498 C 0.60774 0.43196 0.67149 0.0
C499 C 0.57401 0.42414 0.72076 0.0
N500 N 0.57905 0.45399 0.62264 0.0
N501 N 0.56466 0.4375 0.69803 0.0
H502 H 0.91052 0.65633 0.19422 0.0
H503 H 0.96736 0.51972 0.13342 0.0
H504 H 0.9117 0.58009 0.24293 0.0
H505 H 0.95175 0.58908 0.08074 0.0
H506 H 0.94861 0.54234 0.17396 0.0
H507 H 0.92766 0.63325 0.15295 0.0
C508 C 0.91451 0.63481 0.19632 0.0
C509 C 0.90959 0.6202 0.22223 0.0
C510 C 0.94914 0.55259 0.15353 0.0
C511 C 0.92915 0.59349 0.17482 0.0
C512 C 0.95987 0.53965 0.13029 0.0
C513 C 0.96118 0.55243 0.10347 0.0
C514 C 0.93982 0.57874 0.15019 0.0
C515 C 0.95109 0.57832 0.1009 0.0
C516 C 0.92411 0.62155 0.17266 0.0
C517 C 0.91481 0.59214 0.22342 0.0
N518 N 0.94103 0.59066 0.12394 0.0
N519 N 0.92437 0.57981 0.20018 0.0
H520 H 0.38368 0.17977 0.11923 0.0
H521 H 0.50764 0.08184 0.11276 0.0
H522 H 0.45755 0.18795 0.17857 0.0
H523 H 0.43483 0.07794 0.0528 0.0
H524 H 0.4901 0.12046 0.13759 0.0
H525 H 0.40312 0.14279 0.09445 0.0
C526 C 0.40424 0.17408 0.12687 0.0
C527 C 0.41901 0.18713 0.15102 0.0
C528 C 0.47802 0.11108 0.11899 0.0
C529 C 0.44116 0.1441 0.12297 0.0
C530 C 0.48794 0.08897 0.10487 0.0
C531 C 0.47271 0.07656 0.08064 0.0
C532 C 0.45268 0.12077 0.1088 0.0
C533 C 0.4474 0.0868 0.07133 0.0
C534 C 0.41521 0.15271 0.11283 0.0
C535 C 0.44522 0.17828 0.16023 0.0
N536 N 0.43824 0.10823 0.08539 0.0
N537 N 0.45542 0.15727 0.14623 0.0
H538 H 0.05658 0.85337 0.68387 0.0
H539 H 0.07537 0.95776 0.54992 0.0
H540 H 0.12589 0.85794 0.62053 0.0
H541 H 0.00759 0.95788 0.61397 0.0
H542 H 0.09303 0.92028 0.57549 0.0
H543 H 0.03721 0.89061 0.65855 0.0
C544 C 0.06772 0.86216 0.66466 0.0
C545 C 0.09289 0.85242 0.6543 0.0
C546 C 0.07431 0.92845 0.58404 0.0
C547 C 0.07075 0.89491 0.6252 0.0
C548 C 0.06416 0.94995 0.56942 0.0
C549 C 0.03991 0.96108 0.57978 0.0
C550 C 0.06017 0.91781 0.60932 0.0
C551 C 0.02641 0.95001 0.60522 0.0
C552 C 0.05658 0.88335 0.65018 0.0
C553 C 0.10616 0.86438 0.62912 0.0
N554 N 0.03671 0.92893 0.61913 0.0
N555 N 0.09498 0.88498 0.61552 0.0
H556 H 0.78931 0.46897 0.90373 0.0
H557 H 0.90795 0.4462 1.02324 0.0
H558 H 0.79059 0.38697 0.94199 0.0
H559 H 0.91906 0.52243 0.97176 0.0
H560 H 0.86163 0.42586 0.99713 0.0
H561 H 0.83431 0.49033 0.93116 0.0
C562 C 0.79905 0.45537 0.91773 0.0
C563 C 0.78585 0.42606 0.92052 0.0
C564 C 0.87418 0.44708 0.99162 0.0
C565 C 0.83722 0.45061 0.95246 0.0
C566 C 0.90056 0.45878 1.00664 0.0
C567 C 0.91758 0.48604 0.99966 0.0
C568 C 0.86454 0.46282 0.96958 0.0
C569 C 0.90684 0.50126 0.97781 0.0
C570 C 0.82467 0.46766 0.93355 0.0
C571 C 0.79943 0.40975 0.93944 0.0
N572 N 0.88108 0.48946 0.96358 0.0
N573 N 0.82421 0.42222 0.95467 0.0
H574 H 0.74078 0.6383 0.46139 0.0
H575 H 0.58437 0.52271 0.4644 0.0
H576 H 0.70536 0.58452 0.39072 0.0
H577 H 0.611 0.58571 0.53007 0.0
H578 H 0.63105 0.54223 0.43944 0.0
H579 H 0.69597 0.6167 0.48865 0.0
C580 C 0.72359 0.62202 0.4515 0.0
C581 C 0.7269 0.61348 0.42347 0.0
C582 C 0.62679 0.55181 0.45932 0.0
C583 C 0.67555 0.58828 0.45497 0.0
C584 C 0.60005 0.54064 0.47371 0.0
C585 C 0.59349 0.55266 0.49944 0.0
C586 C 0.64746 0.57523 0.47061 0.0
C587 C 0.61498 0.57578 0.51032 0.0
C588 C 0.69804 0.6096 0.46721 0.0
C589 C 0.70409 0.59171 0.41223 0.0
N590 N 0.64097 0.58635 0.49582 0.0
N591 N 0.67943 0.57998 0.42795 0.0
H592 H 0.19515 0.30999 0.18535 0.0
H593 H 0.13717 0.42271 0.08723 0.0
H594 H 0.25489 0.36671 0.12941 0.0
H595 H 0.07781 0.34896 0.12402 0.0
H596 H 0.18071 0.40376 0.10284 0.0
H597 H 0.15201 0.32552 0.16419 0.0
C598 C 0.19913 0.32577 0.16857 0.0
C599 C 0.2286 0.3373 0.15925 0.0
C600 C 0.15813 0.39165 0.10728 0.0
C601 C 0.1793 0.3552 0.13488 0.0
C602 C 0.1332 0.40236 0.09824 0.0
C603 C 0.10363 0.38753 0.10445 0.0
C604 C 0.15353 0.36609 0.12289 0.0
C605 C 0.10009 0.36149 0.11924 0.0
C606 C 0.1745 0.3345 0.15638 0.0
C607 C 0.23249 0.35732 0.13716 0.0
N608 N 0.12469 0.35176 0.12813 0.0
N609 N 0.2081 0.3659 0.12588 0.0
H610 H 0.59935 0.23686 0.95002 0.0
H611 H 0.50736 0.07362 0.94536 0.0
H612 H 0.56243 0.19613 0.87275 0.0
H613 H 0.55915 0.11313 1.01679 0.0
H614 H 0.52319 0.11864 0.91895 0.0
H615 H 0.58014 0.19242 0.97532 0.0
C616 C 0.58723 0.21851 0.93829 0.0
C617 C 0.583 0.22023 0.90903 0.0
C618 C 0.53104 0.11737 0.9404 0.0
C619 C 0.56045 0.16887 0.93823 0.0
C620 C 0.52202 0.09168 0.95552 0.0
C621 C 0.53198 0.08944 0.98338 0.0
C622 C 0.54995 0.14108 0.95331 0.0
C623 C 0.55095 0.11365 0.99538 0.0
C624 C 0.57615 0.19307 0.95284 0.0
C625 C 0.56627 0.19584 0.89527 0.0
N626 N 0.5592 0.13832 0.98034 0.0
N627 N 0.55576 0.17111 0.90994 0.0
H628 H 0.8998 0.80654 0.44314 0.0
H629 H 0.00407 0.96504 0.44447 0.0
H630 H 0.95073 0.84335 0.3704 0.0
H631 H 0.94718 0.92713 0.51338 0.0
H632 H 0.98694 0.92079 0.41721 0.0
H633 H 0.9194 0.85028 0.46939 0.0
C634 C 0.91506 0.82392 0.43259 0.0
C635 C 0.92322 0.82132 0.4043 0.0
C636 C 0.97825 0.92223 0.4383 0.0
C637 C 0.9462 0.87186 0.43462 0.0
C638 C 0.98798 0.94751 0.45388 0.0
C639 C 0.97704 0.94996 0.48132 0.0
C640 C 0.95751 0.89919 0.45025 0.0
C641 C 0.95627 0.92642 0.49236 0.0
C642 C 0.92638 0.84894 0.4477 0.0
C643 C 0.94379 0.84438 0.39213 0.0
N644 N 0.94727 0.90217 0.47685 0.0
N645 N 0.95444 0.86876 0.4073 0.0
H646 H 0.29821 0.73385 0.63941 0.0
H647 H 0.37666 0.60034 0.61431 0.0
H648 H 0.26109 0.6485 0.67004 0.0
H649 H 0.42415 0.68839 0.6056 0.0
H650 H 0.33143 0.61699 0.62893 0.0
H651 H 0.34169 0.71676 0.62066 0.0
C652 C 0.29903 0.71143 0.64185 0.0
C653 C 0.27605 0.69255 0.65632 0.0
C654 C 0.35173 0.63268 0.62379 0.0
C655 C 0.32578 0.67295 0.63516 0.0
C656 C 0.37748 0.6232 0.6153 0.0
C657 C 0.40417 0.64304 0.60873 0.0
C658 C 0.35253 0.66223 0.62549 0.0
C659 C 0.4041 0.6724 0.61072 0.0
C660 C 0.32396 0.70176 0.63137 0.0
C661 C 0.27845 0.6638 0.65922 0.0
N662 N 0.37863 0.68113 0.61885 0.0
N663 N 0.30288 0.65488 0.64874 0.0
H664 H 0.78016 0.79491 0.7172 0.0
H665 H 0.80003 0.91868 0.60133 0.0
H666 H 0.70537 0.82593 0.68088 0.0
H667 H 0.87427 0.88885 0.64008 0.0
H668 H 0.76457 0.88043 0.62535 0.0
H669 H 0.81411 0.82391 0.68366 0.0
C670 C 0.77069 0.80733 0.70178 0.0
C671 C 0.7398 0.80809 0.70206 0.0
C672 C 0.78862 0.88207 0.62838 0.0
C673 C 0.77891 0.84208 0.66394 0.0
C674 C 0.80888 0.904 0.6148 0.0
C675 C 0.84017 0.9072 0.61899 0.0
C676 C 0.7997 0.86326 0.6464 0.0
C677 C 0.85037 0.88716 0.63616 0.0
C678 C 0.79023 0.82414 0.68276 0.0
C679 C 0.72909 0.82506 0.6818 0.0
N680 N 0.83018 0.86624 0.64946 0.0
N681 N 0.74867 0.84162 0.66376 0.0
H682 H 0.76308 0.24719 0.19074 0.0
H683 H 0.69642 0.08281 0.15158 0.0
H684 H 0.78927 0.17505 0.23153 0.0
H685 H 0.66458 0.15323 0.1133 0.0
H686 H 0.73372 0.11702 0.17803 0.0
H687 H 0.73004 0.21383 0.1592 0.0
C688 C 0.76209 0.2244 0.19294 0.0
C689 C 0.77897 0.21396 0.21391 0.0
C690 C 0.71869 0.12508 0.16378 0.0
C691 C 0.74128 0.17573 0.17789 0.0
C692 C 0.69746 0.10552 0.14853 0.0
C693 C 0.67737 0.11515 0.13011 0.0
C694 C 0.71991 0.1546 0.16076 0.0
C695 C 0.67942 0.14486 0.12748 0.0
C696 C 0.74326 0.20538 0.1749 0.0
C697 C 0.77708 0.18421 0.21549 0.0
N698 N 0.7003 0.16356 0.14268 0.0
N699 N 0.75845 0.1662 0.19788 0.0
H700 H 0.39881 0.57019 0.33011 0.0
H701 H 0.48226 0.59823 0.47995 0.0
H702 H 0.4305 0.65442 0.36583 0.0
H703 H 0.4473 0.51345 0.44672 0.0
H704 H 0.46332 0.61888 0.43834 0.0
H705 H 0.41629 0.549 0.3723 0.0
C706 C 0.40928 0.5843 0.34685 0.0
C707 C 0.41299 0.61427 0.34426 0.0
C708 C 0.45969 0.59576 0.4401 0.0
C709 C 0.43349 0.58992 0.39279 0.0
C710 C 0.47051 0.58386 0.46395 0.0
C711 C 0.46648 0.55394 0.46697 0.0
C712 C 0.44468 0.57773 0.41882 0.0
C713 C 0.45094 0.5366 0.44542 0.0
C714 C 0.41941 0.57212 0.37093 0.0
C715 C 0.42737 0.63129 0.36657 0.0
N716 N 0.44072 0.54873 0.42226 0.0
N717 N 0.437 0.6189 0.38981 0.0
H718 H 0.08294 0.38424 0.86618 0.0
H719 H 0.06293 0.52779 0.94603 0.0
H720 H 0.10922 0.46877 0.82964 0.0
H721 H 0.03044 0.44219 0.9783 0.0
H722 H 0.08218 0.50712 0.90424 0.0
H723 H 0.06518 0.40551 0.90799 0.0
C724 C 0.08481 0.40726 0.86677 0.0
C725 C 0.0976 0.42461 0.84407 0.0
C726 C 0.07088 0.49289 0.92051 0.0
C727 C 0.07758 0.44934 0.8925 0.0
C728 C 0.05995 0.50469 0.94445 0.0
C729 C 0.04492 0.48677 0.96581 0.0
C730 C 0.06688 0.46292 0.91788 0.0
C731 C 0.04173 0.45696 0.96244 0.0
C732 C 0.07482 0.41945 0.89083 0.0
C733 C 0.09991 0.45445 0.8466 0.0
N734 N 0.05254 0.44605 0.93903 0.0
N735 N 0.09002 0.46581 0.87028 0.0
H736 H 0.56046 0.81988 0.92719 0.0
H737 H 0.57892 0.98358 0.97316 0.0
H738 H 0.62743 0.88864 0.8916 0.0
H739 H 0.49573 0.92114 0.98522 0.0
H740 H 0.59938 0.94784 0.947 0.0
H741 H 0.53868 0.85552 0.95277 0.0
C742 C 0.57057 0.84246 0.92484 0.0
C743 C 0.59566 0.85139 0.9072 0.0
C744 C 0.5766 0.942 0.95526 0.0
C745 C 0.5711 0.89207 0.93634 0.0
C746 C 0.56492 0.96236 0.97026 0.0
C747 C 0.53556 0.95533 0.98135 0.0
C748 C 0.55896 0.91425 0.95166 0.0
C749 C 0.51843 0.92751 0.97689 0.0
C750 C 0.55807 0.86275 0.93926 0.0
C751 C 0.60786 0.88089 0.90474 0.0
N752 N 0.53047 0.90789 0.96253 0.0
N753 N 0.59557 0.90015 0.91925 0.0
H754 H 0.96708 0.20787 0.39637 0.0
H755 H 0.9301 0.07109 0.49772 0.0
H756 H 0.88347 0.18256 0.44236 0.0
H757 H 0.02051 0.10802 0.46903 0.0
H758 H 0.91184 0.10987 0.47445 0.0
H759 H 0.98655 0.16981 0.42023 0.0
C760 C 0.9529 0.19438 0.41158 0.0
C761 C 0.92366 0.1984 0.41746 0.0
C762 C 0.93568 0.10951 0.47326 0.0
C763 C 0.94562 0.15478 0.44459 0.0
C764 C 0.94612 0.08726 0.48641 0.0
C765 C 0.9769 0.08628 0.48534 0.0
C766 C 0.9561 0.13085 0.4587 0.0
C767 C 0.99659 0.10795 0.47046 0.0
C768 C 0.96403 0.17274 0.42522 0.0
C769 C 0.90628 0.18044 0.43745 0.0
N770 N 0.98584 0.12933 0.45766 0.0
N771 N 0.91744 0.1593 0.45015 0.0
H772 H 0.24578 0.57545 0.11789 0.0
H773 H 0.07622 0.5875 0.08874 0.0
H774 H 0.19623 0.61823 0.17547 0.0
H775 H 0.10873 0.51266 0.06263 0.0
H776 H 0.1231 0.60393 0.11527 0.0
H777 H 0.19845 0.55639 0.09227 0.0
C778 C 0.22488 0.58068 0.12517 0.0
C779 C 0.22477 0.5983 0.14884 0.0
C780 C 0.11995 0.58392 0.10372 0.0
C781 C 0.17099 0.57722 0.11943 0.0
C782 C 0.09332 0.57461 0.0884 0.0
C783 C 0.08858 0.54868 0.07339 0.0
C784 C 0.14236 0.56752 0.1036 0.0
C785 C 0.11145 0.53275 0.07396 0.0
C786 C 0.19798 0.56978 0.11064 0.0
C787 C 0.19717 0.60451 0.15746 0.0
N788 N 0.13751 0.54255 0.08863 0.0
N789 N 0.17144 0.59426 0.14256 0.0
H790 H 0.30323 0.39131 0.64478 0.0
H791 H 0.41232 0.53192 0.582 0.0
H792 H 0.28383 0.47582 0.65299 0.0
H793 H 0.42428 0.44527 0.56931 0.0
H794 H 0.366 0.51286 0.60872 0.0
H795 H 0.34867 0.41177 0.61838 0.0
C796 C 0.30844 0.41422 0.64092 0.0
C797 C 0.28936 0.43178 0.65088 0.0
C798 C 0.37876 0.49807 0.59998 0.0
C799 C 0.34199 0.4556 0.62068 0.0
C800 C 0.40517 0.50892 0.58465 0.0
C801 C 0.42232 0.49019 0.57332 0.0
C802 C 0.3695 0.46831 0.6041 0.0
C803 C 0.41193 0.4606 0.57757 0.0
C804 C 0.33455 0.42594 0.62588 0.0
C805 C 0.29788 0.46145 0.6458 0.0
N806 N 0.38636 0.45067 0.59262 0.0
N807 N 0.32351 0.47243 0.63095 0.0
H808 H 0.75365 0.67008 0.9408 0.0
H809 H 0.93335 0.68549 0.93801 0.0
H810 H 0.81186 0.71646 0.87682 0.0
H811 H 0.87379 0.61767 0.98323 0.0
H812 H 0.88928 0.70252 0.92097 0.0
H813 H 0.79796 0.65601 0.96234 0.0
C814 C 0.77576 0.67736 0.93142 0.0
C815 C 0.77916 0.69413 0.90686 0.0
C816 C 0.88589 0.68396 0.93472 0.0
C817 C 0.82963 0.67851 0.93135 0.0
C818 C 0.91105 0.67413 0.94436 0.0
C819 C 0.90737 0.64991 0.9619 0.0
C820 C 0.85676 0.66966 0.9428 0.0
C821 C 0.87783 0.63658 0.96998 0.0
C822 C 0.80093 0.66929 0.9436 0.0
C823 C 0.80823 0.7031 0.89549 0.0
N824 N 0.85365 0.64657 0.96029 0.0
N825 N 0.83233 0.69521 0.90783 0.0
H826 H 0.37585 0.81768 0.14811 0.0
H827 H 0.51833 0.93546 0.09477 0.0
H828 H 0.46826 0.81299 0.16619 0.0
H829 H 0.42542 0.93952 0.07802 0.0
H830 H 0.50074 0.89183 0.12242 0.0
H831 H 0.39384 0.86332 0.1241 0.0
C832 C 0.39998 0.82624 0.14703 0.0
C833 C 0.42056 0.81119 0.15898 0.0
C834 C 0.4842 0.90231 0.11279 0.0
C835 C 0.44143 0.8639 0.13147 0.0
C836 C 0.49422 0.92728 0.09695 0.0
C837 C 0.47335 0.94129 0.0839 0.0
C838 C 0.45304 0.89109 0.11566 0.0
C839 C 0.4424 0.92956 0.0876 0.0
C840 C 0.41025 0.85243 0.13337 0.0
C841 C 0.45154 0.8238 0.15739 0.0
N842 N 0.43323 0.90518 0.10302 0.0
N843 N 0.46103 0.84928 0.14372 0.0
H844 H 0.1291 0.23203 0.63022 0.0
H845 H 0.99696 0.09418 0.60573 0.0
H846 H 0.0534 0.20916 0.68715 0.0
H847 H 0.08504 0.1052 0.56715 0.0
H848 H 0.01497 0.13796 0.6332 0.0
H849 H 0.11099 0.18767 0.60442 0.0
C850 C 0.10881 0.21762 0.63759 0.0
C851 C 0.0931 0.22443 0.66137 0.0
C852 C 0.03036 0.13072 0.61881 0.0
C853 C 0.07169 0.17346 0.63104 0.0
C854 C 0.0201 0.10574 0.60304 0.0
C855 C 0.0395 0.09589 0.58404 0.0
C856 C 0.06014 0.14627 0.61532 0.0
C857 C 0.06928 0.11181 0.58157 0.0
C858 C 0.09838 0.19226 0.62262 0.0
C859 C 0.06629 0.20508 0.66896 0.0
N860 N 0.07858 0.13625 0.59686 0.0
N861 N 0.05644 0.18054 0.65386 0.0
H862 H 0.74454 0.39576 0.37835 0.0
H863 H 0.61468 0.37425 0.49559 0.0
H864 H 0.73295 0.3286 0.44102 0.0
H865 H 0.61434 0.42532 0.42049 0.0
H866 H 0.66192 0.3618 0.47981 0.0
H867 H 0.70098 0.4118 0.39786 0.0
C868 C 0.73294 0.38446 0.3963 0.0
C869 C 0.74225 0.36057 0.40784 0.0
C870 C 0.65147 0.37572 0.4668 0.0
C871 C 0.69244 0.37897 0.4304 0.0
C872 C 0.6246 0.38286 0.47581 0.0
C873 C 0.6105 0.40065 0.45919 0.0
C874 C 0.66448 0.38672 0.44116 0.0
C875 C 0.62421 0.41116 0.43371 0.0
C876 C 0.70809 0.39365 0.40744 0.0
C877 C 0.72674 0.3472 0.43153 0.0
N878 N 0.65046 0.40408 0.4255 0.0
N879 N 0.70246 0.35647 0.44191 0.0
loop_
_geom_bond_atom_site_label_1
_geom_bond_atom_site_label_2
_geom_bond_distance
_geom_bond_site_symmetry_2
_ccdc_geom_bond_type
C0 C1 1.384 . S
C0 H13 0.947 . S
C0 C35 1.382 . S
C1 C0 1.384 . S
C1 C2 1.378 . S
C2 C1 1.378 . S
C2 C3 1.378 . S
C2 H14 0.952 . S
C3 C2 1.378 . S
C3 H15 0.950 . S
C3 C34 1.383 . S
H4 C23 0.947 . S
H5 C24 0.946 . S
H6 C26 0.953 . S
H7 C27 0.945 . S
H8 C29 0.952 . S
H9 C30 0.949 . S
H10 C32 0.950 . S
H11 C33 0.948 . S
H12 C35 0.951 . S
H13 C0 0.947 . S
H14 C2 0.952 . S
H15 C3 0.950 . S
N16 C19 1.382 . S
N16 C21 1.363 . S
N17 C19 1.371 . S
N17 C20 1.372 . S
N18 C20 1.361 . S
N18 C21 1.377 . S
C19 N16 1.382 . S
C19 N17 1.371 . S
C19 C22 1.480 . S
C20 N17 1.372 . S
C20 N18 1.361 . S
C20 C28 1.457 . S
C21 N16 1.363 . S
C21 N18 1.377 . S
C21 C34 1.479 . S
C22 C19 1.480 . S
C22 C23 1.383 . S
C22 C27 1.385 . S
C23 H4 0.947 . S
C23 C22 1.383 . S
C23 C24 1.388 . S
C24 H5 0.946 . S
C24 C23 1.388 . S
C24 C25 1.384 . S
C25 C24 1.384 . S
C25 C26 1.377 . S
C26 H6 0.953 . S
C26 C25 1.377 . S
C26 C27 1.369 . S
C27 H7 0.945 . S
C27 C22 1.385 . S
C27 C26 1.369 . S
C28 C20 1.457 . S
C28 C29 1.372 . S
C28 C33 1.364 . S
C29 H8 0.952 . S
C29 C28 1.372 . S
C29 C30 1.389 . S
C30 H9 0.949 . S
C30 C29 1.389 . S
C30 C31 1.387 . S
C31 C30 1.387 . S
C31 C32 1.372 . S
C32 H10 0.950 . S
C32 C31 1.372 . S
C32 C33 1.379 . S
C33 H11 0.948 . S
C33 C28 1.364 . S
C33 C32 1.379 . S
C34 C3 1.383 . S
C34 C21 1.479 . S
C34 C35 1.398 . S
C35 C0 1.382 . S
C35 H12 0.951 . S
C35 C34 1.398 . S
C36 C37 1.384 . S
C36 H49 0.947 . S
C36 C71 1.382 . S
C37 C36 1.384 . S
C37 C38 1.378 . S
C38 C37 1.378 . S
C38 C39 1.378 . S
C38 H50 0.952 . S
C39 C38 1.378 . S
C39 H51 0.950 . S
C39 C70 1.383 . S
H40 C59 0.947 . S
H41 C60 0.946 . S
H42 C62 0.953 . S
H43 C63 0.945 . S
H44 C65 0.952 . S
H45 C66 0.949 . S
H46 C68 0.950 . S
H47 C69 0.948 . S
H48 C71 0.951 . S
H49 C36 0.947 . S
H50 C38 0.952 . S
H51 C39 0.950 . S
N52 C55 1.382 . S
N52 C57 1.363 . S
N53 C55 1.371 . S
N53 C56 1.372 . S
N54 C56 1.361 . S
N54 C57 1.377 . S
C55 N52 1.382 . S
C55 N53 1.371 . S
C55 C58 1.480 . S
C56 N53 1.372 . S
C56 N54 1.361 . S
C56 C64 1.457 . S
C57 N52 1.363 . S
C57 N54 1.377 . S
C57 C70 1.479 . S
C58 C55 1.480 . S
C58 C59 1.383 . S
C58 C63 1.385 . S
C59 H40 0.947 . S
C59 C58 1.383 . S
C59 C60 1.388 . S
C60 H41 0.946 . S
C60 C59 1.388 . S
C60 C61 1.384 . S
C61 C60 1.384 . S
C61 C62 1.377 . S
C62 H42 0.953 . S
C62 C61 1.377 . S
C62 C63 1.369 . S
C63 H43 0.945 . S
C63 C58 1.385 . S
C63 C62 1.369 . S
C64 C56 1.457 . S
C64 C65 1.372 . S
C64 C69 1.364 . S
C65 H44 0.952 . S
C65 C64 1.372 . S
C65 C66 1.389 . S
C66 H45 0.949 . S
C66 C65 1.389 . S
C66 C67 1.387 . S
C67 C66 1.387 . S
C67 C68 1.372 . S
C68 H46 0.950 . S
C68 C67 1.372 . S
C68 C69 1.379 . S
C69 H47 0.948 . S
C69 C64 1.364 . S
C69 C68 1.379 . S
C70 C39 1.383 . S
C70 C57 1.479 . S
C70 C71 1.398 . S
C71 C36 1.382 . S
C71 H48 0.951 . S
C71 C70 1.398 . S
C72 C73 1.384 . S
C72 H85 0.947 . S
C72 C107 1.382 . S
C73 C72 1.384 . S
C73 C74 1.378 . S
C74 C73 1.378 . S
C74 C75 1.378 . S
C74 H86 0.952 . S
C75 C74 1.378 . S
C75 H87 0.950 . S
C75 C106 1.383 . S
H76 C95 0.947 . S
H77 C96 0.946 . S
H78 C98 0.953 . S
H79 C99 0.945 . S
H80 C101 0.952 . S
H81 C102 0.949 . S
H82 C104 0.950 . S
H83 C105 0.948 . S
H84 C107 0.951 . S
H85 C72 0.947 . S
H86 C74 0.952 . S
H87 C75 0.950 . S
N88 C91 1.382 . S
N88 C93 1.363 . S
N89 C91 1.371 . S
N89 C92 1.372 . S
N90 C92 1.361 . S
N90 C93 1.377 . S
C91 N88 1.382 . S
C91 N89 1.371 . S
C91 C94 1.480 . S
C92 N89 1.372 . S
C92 N90 1.361 . S
C92 C100 1.457 . S
C93 N88 1.363 . S
C93 N90 1.377 . S
C93 C106 1.479 . S
C94 C91 1.480 . S
C94 C95 1.383 . S
C94 C99 1.385 . S
C95 H76 0.947 . S
C95 C94 1.383 . S
C95 C96 1.388 . S
C96 H77 0.946 . S
C96 C95 1.388 . S
C96 C97 1.384 . S
C97 C96 1.384 . S
C97 C98 1.377 . S
C98 H78 0.953 . S
C98 C97 1.377 . S
C98 C99 1.369 . S
C99 H79 0.945 . S
C99 C94 1.385 . S
C99 C98 1.369 . S
C100 C92 1.457 . S
C100 C101 1.372 . S
C100 C105 1.364 . S
C101 H80 0.952 . S
C101 C100 1.372 . S
C101 C102 1.389 . S
C102 H81 0.949 . S
C102 C101 1.389 . S
C102 C103 1.387 . S
C103 C102 1.387 . S
C103 C104 1.372 . S
C104 H82 0.950 . S
C104 C103 1.372 . S
C104 C105 1.379 . S
C105 H83 0.948 . S
C105 C100 1.364 . S
C105 C104 1.379 . S
C106 C75 1.383 . S
C106 C93 1.479 . S
C106 C107 1.398 . S
C107 C72 1.382 . S
C107 H84 0.951 . S
C107 C106 1.398 . S
C108 C109 1.384 . S
C108 H121 0.947 . S
C108 C143 1.382 . S
C109 C108 1.384 . S
C109 C110 1.378 . S
C110 C109 1.378 . S
C110 C111 1.378 . S
C110 H122 0.952 . S
C111 C110 1.378 . S
C111 H123 0.950 . S
C111 C142 1.383 . S
H112 C131 0.947 . S
H113 C132 0.946 . S
H114 C134 0.953 . S
H115 C135 0.945 . S
H116 C137 0.952 . S
H117 C138 0.949 . S
H118 C140 0.950 . S
H119 C141 0.948 . S
H120 C143 0.951 . S
H121 C108 0.947 . S
H122 C110 0.952 . S
H123 C111 0.950 . S
N124 C127 1.382 . S
N124 C129 1.363 . S
N125 C127 1.371 . S
N125 C128 1.372 . S
N126 C128 1.361 . S
N126 C129 1.377 . S
C127 N124 1.382 . S
C127 N125 1.371 . S
C127 C130 1.480 . S
C128 N125 1.372 . S
C128 N126 1.361 . S
C128 C136 1.457 . S
C129 N124 1.363 . S
C129 N126 1.377 . S
C129 C142 1.479 . S
C130 C127 1.480 . S
C130 C131 1.383 . S
C130 C135 1.385 . S
C131 H112 0.947 . S
C131 C130 1.383 . S
C131 C132 1.388 . S
C132 H113 0.946 . S
C132 C131 1.388 . S
C132 C133 1.384 . S
C133 C132 1.384 . S
C133 C134 1.377 . S
C134 H114 0.953 . S
C134 C133 1.377 . S
C134 C135 1.369 . S
C135 H115 0.945 . S
C135 C130 1.385 . S
C135 C134 1.369 . S
C136 C128 1.457 . S
C136 C137 1.372 . S
C136 C141 1.364 . S
C137 H116 0.952 . S
C137 C136 1.372 . S
C137 C138 1.389 . S
C138 H117 0.949 . S
C138 C137 1.389 . S
C138 C139 1.387 . S
C139 C138 1.387 . S
C139 C140 1.372 . S
C140 H118 0.950 . S
C140 C139 1.372 . S
C140 C141 1.379 . S
C141 H119 0.948 . S
C141 C136 1.364 . S
C141 C140 1.379 . S
C142 C111 1.383 . S
C142 C129 1.479 . S
C142 C143 1.398 . S
C143 C108 1.382 . S
C143 H120 0.951 . S
C143 C142 1.398 . S
C144 C145 1.384 . S
C144 H157 0.947 . S
C144 C179 1.382 . S
C145 C144 1.384 . S
C145 C146 1.378 . S
C146 C145 1.378 . S
C146 C147 1.378 . S
C146 H158 0.952 . S
C147 C146 1.378 . S
C147 H159 0.950 . S
C147 C178 1.383 . S
H148 C167 0.947 . S
H149 C168 0.946 . S
H150 C170 0.953 . S
H151 C171 0.945 . S
H152 C173 0.952 . S
H153 C174 0.949 . S
H154 C176 0.950 . S
H155 C177 0.948 . S
H156 C179 0.951 . S
H157 C144 0.947 . S
H158 C146 0.952 . S
H159 C147 0.950 . S
N160 C163 1.382 . S
N160 C165 1.363 . S
N161 C163 1.371 . S
N161 C164 1.372 . S
N162 C164 1.361 . S
N162 C165 1.377 . S
C163 N160 1.382 . S
C163 N161 1.371 . S
C163 C166 1.480 . S
C164 N161 1.372 . S
C164 N162 1.361 . S
C164 C172 1.457 . S
C165 N160 1.363 . S
C165 N162 1.377 . S
C165 C178 1.479 . S
C166 C163 1.480 . S
C166 C167 1.383 . S
C166 C171 1.385 . S
C167 H148 0.947 . S
C167 C166 1.383 . S
C167 C168 1.388 . S
C168 H149 0.946 . S
C168 C167 1.388 . S
C168 C169 1.384 . S
C169 C168 1.384 . S
C169 C170 1.377 . S
C170 H150 0.953 . S
C170 C169 1.377 . S
C170 C171 1.369 . S
C171 H151 0.945 . S
C171 C166 1.385 . S
C171 C170 1.369 . S
C172 C164 1.457 . S
C172 C173 1.372 . S
C172 C177 1.364 . S
C173 H152 0.952 . S
C173 C172 1.372 . S
C173 C174 1.389 . S
C174 H153 0.949 . S
C174 C173 1.389 . S
C174 C175 1.387 . S
C175 C174 1.387 . S
C175 C176 1.372 . S
C176 H154 0.950 . S
C176 C175 1.372 . S
C176 C177 1.379 . S
C177 H155 0.948 . S
C177 C172 1.364 . S
C177 C176 1.379 . S
C178 C147 1.383 . S
C178 C165 1.479 . S
C178 C179 1.398 . S
C179 C144 1.382 . S
C179 H156 0.951 . S
C179 C178 1.398 . S
C180 C181 1.384 . S
C180 H193 0.947 . S
C180 C215 1.382 . S
C181 C180 1.384 . S
C181 C182 1.378 . S
C182 C181 1.378 . S
C182 C183 1.378 . S
C182 H194 0.952 . S
C183 C182 1.378 . S
C183 H195 0.950 . S
C183 C214 1.383 . S
H184 C203 0.947 . S
H185 C204 0.946 . S
H186 C206 0.953 . S
H187 C207 0.945 . S
H188 C209 0.952 . S
H189 C210 0.949 . S
H190 C212 0.950 . S
H191 C213 0.948 . S
H192 C215 0.951 . S
H193 C180 0.947 . S
H194 C182 0.952 . S
H195 C183 0.950 . S
N196 C199 1.382 . S
N196 C201 1.363 . S
N197 C199 1.371 . S
N197 C200 1.372 . S
N198 C200 1.361 . S
N198 C201 1.377 . S
C199 N196 1.382 . S
C199 N197 1.371 . S
C199 C202 1.480 . S
C200 N197 1.372 . S
C200 N198 1.361 . S
C200 C208 1.457 . S
C201 N196 1.363 . S
C201 N198 1.377 . S
C201 C214 1.479 . S
C202 C199 1.480 . S
C202 C203 1.383 . S
C202 C207 1.385 . S
C203 H184 0.947 . S
C203 C202 1.383 . S
C203 C204 1.388 . S
C204 H185 0.946 . S
C204 C203 1.388 . S
C204 C205 1.384 . S
C205 C204 1.384 . S
C205 C206 1.377 . S
C206 H186 0.953 . S
C206 C205 1.377 . S
C206 C207 1.369 . S
C207 H187 0.945 . S
C207 C202 1.385 . S
C207 C206 1.369 . S
C208 C200 1.457 . S
C208 C209 1.372 . S
C208 C213 1.364 . S
C209 H188 0.952 . S
C209 C208 1.372 . S
C209 C210 1.389 . S
C210 H189 0.949 . S
C210 C209 1.389 . S
C210 C211 1.387 . S
C211 C210 1.387 . S
C211 C212 1.372 . S
C212 H190 0.950 . S
C212 C211 1.372 . S
C212 C213 1.379 . S
C213 H191 0.948 . S
C213 C208 1.364 . S
C213 C212 1.379 . S
C214 C183 1.383 . S
C214 C201 1.479 . S
C214 C215 1.398 . S
C215 C180 1.382 . S
C215 H192 0.951 . S
C215 C214 1.398 . S
C216 C217 1.384 . S
C216 H229 0.947 . S
C216 C251 1.382 . S
C217 C216 1.384 . S
C217 C218 1.378 . S
C218 C217 1.378 . S
C218 C219 1.378 . S
C218 H230 0.952 . S
C219 C218 1.378 . S
C219 H231 0.950 . S
C219 C250 1.383 . S
H220 C239 0.947 . S
H221 C240 0.946 . S
H222 C242 0.953 . S
H223 C243 0.945 . S
H224 C245 0.952 . S
H225 C246 0.949 . S
H226 C248 0.950 . S
H227 C249 0.948 . S
H228 C251 0.951 . S
H229 C216 0.947 . S
H230 C218 0.952 . S
H231 C219 0.950 . S
N232 C235 1.382 . S
N232 C237 1.363 . S
N233 C235 1.371 . S
N233 C236 1.372 . S
N234 C236 1.361 . S
N234 C237 1.377 . S
C235 N232 1.382 . S
C235 N233 1.371 . S
C235 C238 1.480 . S
C236 N233 1.372 . S
C236 N234 1.361 . S
C236 C244 1.457 . S
C237 N232 1.363 . S
C237 N234 1.377 . S
C237 C250 1.479 . S
C238 C235 1.480 . S
C238 C239 1.383 . S
C238 C243 1.385 . S
C239 H220 0.947 . S
C239 C238 1.383 . S
C239 C240 1.388 . S
C240 H221 0.946 . S
C240 C239 1.388 . S
C240 C241 1.384 . S
C241 C240 1.384 . S
C241 C242 1.377 . S
C242 H222 0.953 . S
C242 C241 1.377 . S
C242 C243 1.369 . S
C243 H223 0.945 . S
C243 C238 1.385 . S
C243 C242 1.369 . S
C244 C236 1.457 . S
C244 C245 1.372 . S
C244 C249 1.364 . S
C245 H224 0.952 . S
C245 C244 1.372 . S
C245 C246 1.389 . S
C246 H225 0.949 . S
C246 C245 1.389 . S
C246 C247 1.387 . S
C247 C246 1.387 . S
C247 C248 1.372 . S
C248 H226 0.950 . S
C248 C247 1.372 . S
C248 C249 1.379 . S
C249 H227 0.948 . S
C249 C244 1.364 . S
C249 C248 1.379 . S
C250 C219 1.383 . S
C250 C237 1.479 . S
C250 C251 1.398 . S
C251 C216 1.382 . S
C251 H228 0.951 . S
C251 C250 1.398 . S
C252 C253 1.384 . S
C252 H265 0.947 . S
C252 C287 1.382 . S
C253 C252 1.384 . S
C253 C254 1.378 . S
C254 C253 1.378 . S
C254 C255 1.378 . S
C254 H266 0.952 . S
C255 C254 1.378 . S
C255 H267 0.950 . S
C255 C286 1.383 . S
H256 C275 0.947 . S
H257 C276 0.946 . S
H258 C278 0.953 . S
H259 C279 0.945 . S
H260 C281 0.952 . S
H261 C282 0.949 . S
H262 C284 0.950 . S
H263 C285 0.948 . S
H264 C287 0.951 . S
H265 C252 0.947 . S
H266 C254 0.952 . S
H267 C255 0.950 . S
N268 C271 1.382 . S
N268 C273 1.363 . S
N269 C271 1.371 . S
N269 C272 1.372 . S
N270 C272 1.361 . S
N270 C273 1.377 . S
C271 N268 1.382 . S
C271 N269 1.371 . S
C271 C274 1.480 . S
C272 N269 1.372 . S
C272 N270 1.361 . S
C272 C280 1.457 . S
C273 N268 1.363 . S
C273 N270 1.377 . S
C273 C286 1.479 . S
C274 C271 1.480 . S
C274 C275 1.383 . S
C274 C279 1.385 . S
C275 H256 0.947 . S
C275 C274 1.383 . S
C275 C276 1.388 . S
C276 H257 0.946 . S
C276 C275 1.388 . S
C276 C277 1.384 . S
C277 C276 1.384 . S
C277 C278 1.377 . S
C278 H258 0.953 . S
C278 C277 1.377 . S
C278 C279 1.369 . S
C279 H259 0.945 . S
C279 C274 1.385 . S
C279 C278 1.369 . S
C280 C272 1.457 . S
C280 C281 1.372 . S
C280 C285 1.364 . S
C281 H260 0.952 . S
C281 C280 1.372 . S
C281 C282 1.389 . S
C282 H261 0.949 . S
C282 C281 1.389 . S
C282 C283 1.387 . S
C283 C282 1.387 . S
C283 C284 1.372 . S
C284 H262 0.950 . S
C284 C283 1.372 . S
C284 C285 1.379 . S
C285 H263 0.948 . S
C285 C280 1.364 . S
C285 C284 1.379 . S
C286 C255 1.383 . S
C286 C273 1.479 . S
C286 C287 1.398 . S
C287 C252 1.382 . S
C287 H264 0.951 . S
C287 C286 1.398 . S
Dy288 O291 2.307 1_545 S
Dy288 O293 2.395 . S
Dy288 O294 2.379 . S
Dy288 O296 2.339 1_545 S
Dy288 O298 2.298 1_455 S
Dy288 O302 2.275 . S
Dy288 C310 2.738 . S
Dy289 O292 2.296 1_645 S
Dy289 O295 2.274 1_545 S
Dy289 O297 2.309 . S
Dy289 O299 2.393 1_545 S
Dy289 O300 2.378 1_545 S
Dy289 O303 2.341 . S
Dy289 C319 2.737 1_545 S
C290 O302 1.254 . S
C290 O303 1.257 1_455 S
O291 Dy288 2.307 1_565 S
O291 C301 1.266 . S
O292 Dy289 2.296 1_465 S
O292 C301 1.236 . S
O293 Dy288 2.395 . S
O293 C310 1.255 . S
O294 Dy288 2.379 . S
O294 C310 1.249 . S
O295 Dy289 2.274 1_565 S
O295 C311 1.254 . S
O296 Dy288 2.339 1_565 S
O296 C311 1.257 1_455 S
O297 Dy289 2.309 . S
O297 C312 1.266 . S
O298 Dy288 2.298 1_655 S
O298 C312 1.236 . S
O299 Dy289 2.393 1_565 S
O299 C319 1.255 . S
O300 Dy289 2.378 1_565 S
O300 C319 1.249 . S
C301 O291 1.266 . S
C301 O292 1.236 . S
O302 Dy288 2.275 . S
O302 C290 1.254 . S
O303 Dy289 2.341 . S
O303 C290 1.257 1_655 S
C304 C307 1.344 . S
C304 C308 1.328 . S
C304 C310 1.516 . S
C305 C306 1.304 . S
C305 C309 1.323 . S
C306 C305 1.304 . S
C306 C307 1.371 . S
C306 H320 0.930 . S
C307 C304 1.344 . S
C307 C306 1.371 . S
C307 H321 0.931 . S
C308 C304 1.328 . S
C308 C309 1.433 . S
C308 H322 0.931 . S
C309 C305 1.323 . S
C309 C308 1.433 . S
C309 H323 0.933 . S
C310 Dy288 2.738 . S
C310 O293 1.255 . S
C310 O294 1.249 . S
C310 C304 1.516 . S
C311 O295 1.254 . S
C311 O296 1.257 1_655 S
C312 O297 1.266 . S
C312 O298 1.236 . S
C313 C316 1.344 . S
C313 C317 1.328 . S
C313 C319 1.516 . S
C314 C315 1.304 . S
C314 C318 1.323 . S
C315 C314 1.304 . S
C315 C316 1.371 . S
C315 H324 0.930 . S
C316 C313 1.344 . S
C316 C315 1.371 . S
C316 H325 0.931 . S
C317 C313 1.328 . S
C317 C318 1.433 . S
C317 H326 0.931 . S
C318 C314 1.323 . S
C318 C317 1.433 . S
C318 H327 0.933 . S
C319 Dy289 2.737 1_565 S
C319 O299 1.255 . S
C319 O300 1.249 . S
C319 C313 1.516 . S
H320 C306 0.930 . S
H321 C307 0.931 . S
H322 C308 0.931 . S
H323 C309 0.933 . S
H324 C315 0.930 . S
H325 C316 0.931 . S
H326 C317 0.931 . S
H327 C318 0.933 . S
Dy328 O331 2.305 1_556 S
Dy328 O333 2.397 1_545 S
Dy328 O334 2.379 1_545 S
Dy328 O336 2.336 . S
Dy328 O338 2.299 1_545 S
Dy328 O342 2.277 1_546 S
Dy328 C350 2.740 1_545 S
Dy329 O332 2.298 . S
Dy329 O335 2.275 1_554 S
Dy329 O337 2.307 1_544 S
Dy329 O339 2.395 . S
Dy329 O340 2.379 . S
Dy329 O343 2.339 1_545 S
Dy329 C359 2.738 . S
C330 O342 1.254 . S
C330 O343 1.257 . S
O331 Dy328 2.305 1_554 S
O331 C341 1.266 . S
O332 Dy329 2.298 . S
O332 C341 1.236 . S
O333 Dy328 2.397 1_565 S
O333 C350 1.255 . S
O334 Dy328 2.379 1_565 S
O334 C350 1.249 . S
O335 Dy329 2.275 1_556 S
O335 C351 1.254 . S
O336 Dy328 2.336 . S
O336 C351 1.257 . S
O337 Dy329 2.307 1_566 S
O337 C352 1.266 . S
O338 Dy328 2.299 1_565 S
O338 C352 1.236 . S
O339 Dy329 2.395 . S
O339 C359 1.255 . S
O340 Dy329 2.379 . S
O340 C359 1.249 . S
C341 O331 1.266 . S
C341 O332 1.236 . S
O342 Dy328 2.277 1_564 S
O342 C330 1.254 . S
O343 Dy329 2.339 1_565 S
O343 C330 1.257 . S
C344 C347 1.344 . S
C344 C348 1.328 . S
C344 C350 1.516 . S
C345 C346 1.304 . S
C345 C349 1.323 . S
C346 C345 1.304 . S
C346 C347 1.371 . S
C346 H360 0.930 . S
C347 C344 1.344 . S
C347 C346 1.371 . S
C347 H361 0.931 . S
C348 C344 1.328 . S
C348 C349 1.433 . S
C348 H362 0.931 . S
C349 C345 1.323 . S
C349 C348 1.433 . S
C349 H363 0.933 . S
C350 Dy328 2.740 1_565 S
C350 O333 1.255 . S
C350 O334 1.249 . S
C350 C344 1.516 . S
C351 O335 1.254 . S
C351 O336 1.257 . S
C352 O337 1.266 . S
C352 O338 1.236 . S
C353 C356 1.344 . S
C353 C357 1.328 . S
C353 C359 1.516 . S
C354 C355 1.304 . S
C354 C358 1.323 . S
C355 C354 1.304 . S
C355 C356 1.371 . S
C355 H364 0.930 . S
C356 C353 1.344 . S
C356 C355 1.371 . S
C356 H365 0.931 . S
C357 C353 1.328 . S
C357 C358 1.433 . S
C357 H366 0.931 . S
C358 C354 1.323 . S
C358 C357 1.433 . S
C358 H367 0.933 . S
C359 Dy329 2.738 . S
C359 O339 1.255 . S
C359 O340 1.249 . S
C359 C353 1.516 . S
H360 C346 0.930 . S
H361 C347 0.931 . S
H362 C348 0.931 . S
H363 C349 0.933 . S
H364 C355 0.930 . S
H365 C356 0.931 . S
H366 C357 0.931 . S
H367 C358 0.933 . S
Dy368 O371 2.307 . S
Dy368 O373 2.395 . S
Dy368 O374 2.379 . S
Dy368 O376 2.339 . S
Dy368 O378 2.298 . S
Dy368 O382 2.275 . S
Dy368 C390 2.738 . S
Dy369 O372 2.298 . S
Dy369 O375 2.275 . S
Dy369 O377 2.307 . S
Dy369 O379 2.395 . S
Dy369 O380 2.379 . S
Dy369 O383 2.339 . S
Dy369 C399 2.738 . S
C370 O382 1.254 . S
C370 O383 1.257 . S
O371 Dy368 2.307 . S
O371 C381 1.266 . S
O372 Dy369 2.298 . S
O372 C381 1.236 . S
O373 Dy368 2.395 . S
O373 C390 1.255 . S
O374 Dy368 2.379 . S
O374 C390 1.249 . S
O375 Dy369 2.275 . S
O375 C391 1.254 . S
O376 Dy368 2.339 . S
O376 C391 1.257 . S
O377 Dy369 2.307 . S
O377 C392 1.266 . S
O378 Dy368 2.298 . S
O378 C392 1.236 . S
O379 Dy369 2.395 . S
O379 C399 1.255 . S
O380 Dy369 2.379 . S
O380 C399 1.249 . S
C381 O371 1.266 . S
C381 O372 1.236 . S
O382 Dy368 2.275 . S
O382 C370 1.254 . S
O383 Dy369 2.339 . S
O383 C370 1.257 . S
C384 C387 1.344 . S
C384 C388 1.328 . S
C384 C390 1.516 . S
C385 C386 1.304 . S
C385 C389 1.323 . S
C386 C385 1.304 . S
C386 C387 1.371 . S
C386 H400 0.930 . S
C387 C384 1.344 . S
C387 C386 1.371 . S
C387 H401 0.931 . S
C388 C384 1.328 . S
C388 C389 1.433 . S
C388 H402 0.931 . S
C389 C385 1.323 . S
C389 C388 1.433 . S
C389 H403 0.933 . S
C390 Dy368 2.738 . S
C390 O373 1.255 . S
C390 O374 1.249 . S
C390 C384 1.516 . S
C391 O375 1.254 . S
C391 O376 1.257 . S
C392 O377 1.266 . S
C392 O378 1.236 . S
C393 C396 1.344 . S
C393 C397 1.328 . S
C393 C399 1.516 . S
C394 C395 1.304 . S
C394 C398 1.323 . S
C395 C394 1.304 . S
C395 C396 1.371 . S
C395 H404 0.930 . S
C396 C393 1.344 . S
C396 C395 1.371 . S
C396 H405 0.931 . S
C397 C393 1.328 . S
C397 C398 1.433 . S
C397 H406 0.931 . S
C398 C394 1.323 . S
C398 C397 1.433 . S
C398 H407 0.933 . S
C399 Dy369 2.738 . S
C399 O379 1.255 . S
C399 O380 1.249 . S
C399 C393 1.516 . S
H400 C386 0.930 . S
H401 C387 0.931 . S
H402 C388 0.931 . S
H403 C389 0.933 . S
H404 C395 0.930 . S
H405 C396 0.931 . S
H406 C397 0.931 . S
H407 C398 0.933 . S
Dy408 O411 2.282 1_656 S
Dy408 O413 2.420 . S
Dy408 O414 2.393 . S
Dy408 O416 2.324 1_655 S
Dy408 O418 2.315 . S
Dy408 O422 2.281 1_556 S
Dy408 C430 2.760 . S
Dy409 O412 2.298 . S
Dy409 O415 2.275 1_554 S
Dy409 O417 2.307 1_455 S
Dy409 O419 2.395 . S
Dy409 O420 2.379 . S
Dy409 O423 2.339 1_455 S
Dy409 C439 2.738 . S
C410 O422 1.254 . S
C410 O423 1.257 . S
O411 Dy408 2.282 1_454 S
O411 C421 1.266 . S
O412 Dy409 2.298 . S
O412 C421 1.236 . S
O413 Dy408 2.420 . S
O413 C430 1.255 . S
O414 Dy408 2.393 . S
O414 C430 1.249 . S
O415 Dy409 2.275 1_556 S
O415 C431 1.254 . S
O416 Dy408 2.324 1_455 S
O416 C431 1.257 . S
O417 Dy409 2.307 1_655 S
O417 C432 1.266 1_554 S
O418 Dy408 2.315 . S
O418 C432 1.236 . S
O419 Dy409 2.395 . S
O419 C439 1.255 . S
O420 Dy409 2.379 . S
O420 C439 1.249 . S
C421 O411 1.266 . S
C421 O412 1.236 . S
O422 Dy408 2.281 1_554 S
O422 C410 1.254 . S
O423 Dy409 2.339 1_655 S
O423 C410 1.257 . S
C424 C427 1.344 . S
C424 C428 1.328 . S
C424 C430 1.516 . S
C425 C426 1.304 . S
C425 C429 1.323 . S
C426 C425 1.304 . S
C426 C427 1.371 . S
C426 H440 0.930 . S
C427 C424 1.344 . S
C427 C426 1.371 . S
C427 H441 0.931 . S
C428 C424 1.328 . S
C428 C429 1.433 . S
C428 H442 0.931 . S
C429 C425 1.323 . S
C429 C428 1.433 . S
C429 H443 0.933 . S
C430 Dy408 2.760 . S
C430 O413 1.255 . S
C430 O414 1.249 . S
C430 C424 1.516 . S
C431 O415 1.254 . S
C431 O416 1.257 . S
C432 O417 1.266 1_556 S
C432 O418 1.236 . S
C433 C436 1.344 . S
C433 C437 1.328 . S
C433 C439 1.516 . S
C434 C435 1.304 . S
C434 C438 1.323 . S
C435 C434 1.304 . S
C435 C436 1.371 . S
C435 H444 0.930 . S
C436 C433 1.344 . S
C436 C435 1.371 . S
C436 H445 0.931 . S
C437 C433 1.328 . S
C437 C438 1.433 . S
C437 H446 0.931 . S
C438 C434 1.323 . S
C438 C437 1.433 . S
C438 H447 0.933 . S
C439 Dy409 2.738 . S
C439 O419 1.255 . S
C439 O420 1.249 . S
C439 C433 1.516 . S
H440 C426 0.930 . S
H441 C427 0.931 . S
H442 C428 0.931 . S
H443 C429 0.933 . S
H444 C435 0.930 . S
H445 C436 0.931 . S
H446 C437 0.931 . S
H447 C438 0.933 . S
H448 C454 0.930 . S
H449 C458 0.930 . S
H450 C463 0.929 . S
H451 C461 0.929 . S
H452 C456 0.929 . S
H453 C462 0.929 . S
C454 H448 0.930 . S
C454 C455 1.367 . S
C454 C462 1.378 . S
C455 C454 1.367 . S
C455 C463 1.433 . S
C456 H452 0.929 . S
C456 C458 1.378 . S
C456 C460 1.350 . S
C457 C460 1.463 . S
C457 C462 1.350 . S
C457 N465 1.427 . S
C458 H449 0.930 . S
C458 C456 1.378 . S
C458 C459 1.367 . S
C459 C458 1.367 . S
C459 C461 1.433 . S
C460 C456 1.350 . S
C460 C457 1.463 . S
C460 N464 1.427 . S
C461 H451 0.929 . S
C461 C459 1.433 . S
C461 N464 1.384 . S
C462 H453 0.929 . S
C462 C454 1.378 . S
C462 C457 1.350 . S
C463 H450 0.929 . S
C463 C455 1.433 . S
C463 N465 1.384 . S
N464 C460 1.427 . S
N464 C461 1.384 . S
N465 C457 1.427 . S
N465 C463 1.384 . S
H466 C472 0.930 . S
H467 C476 0.930 . S
H468 C481 0.929 . S
H469 C479 0.929 . S
H470 C474 0.929 . S
H471 C480 0.929 . S
C472 H466 0.930 . S
C472 C473 1.367 . S
C472 C480 1.378 . S
C473 C472 1.367 . S
C473 C481 1.433 . S
C474 H470 0.929 . S
C474 C476 1.378 . S
C474 C478 1.350 . S
C475 C478 1.463 . S
C475 C480 1.350 . S
C475 N483 1.427 . S
C476 H467 0.930 . S
C476 C474 1.378 . S
C476 C477 1.367 . S
C477 C476 1.367 . S
C477 C479 1.433 . S
C478 C474 1.350 . S
C478 C475 1.463 . S
C478 N482 1.427 . S
C479 H469 0.929 . S
C479 C477 1.433 . S
C479 N482 1.384 . S
C480 H471 0.929 . S
C480 C472 1.378 . S
C480 C475 1.350 . S
C481 H468 0.929 . S
C481 C473 1.433 . S
C481 N483 1.384 . S
N482 C478 1.427 . S
N482 C479 1.384 . S
N483 C475 1.427 . S
N483 C481 1.384 . S
H484 C490 0.930 . S
H485 C494 0.930 . S
H486 C499 0.929 . S
H487 C497 0.929 . S
H488 C492 0.929 . S
H489 C498 0.929 . S
C490 H484 0.930 . S
C490 C491 1.367 . S
C490 C498 1.378 . S
C491 C490 1.367 . S
C491 C499 1.433 . S
C492 H488 0.929 . S
C492 C494 1.378 . S
C492 C496 1.350 . S
C493 C496 1.463 . S
C493 C498 1.350 . S
C493 N501 1.427 . S
C494 H485 0.930 . S
C494 C492 1.378 . S
C494 C495 1.367 . S
C495 C494 1.367 . S
C495 C497 1.433 . S
C496 C492 1.350 . S
C496 C493 1.463 . S
C496 N500 1.427 . S
C497 H487 0.929 . S
C497 C495 1.433 . S
C497 N500 1.384 . S
C498 H489 0.929 . S
C498 C490 1.378 . S
C498 C493 1.350 . S
C499 H486 0.929 . S
C499 C491 1.433 . S
C499 N501 1.384 . S
N500 C496 1.427 . S
N500 C497 1.384 . S
N501 C493 1.427 . S
N501 C499 1.384 . S
H502 C508 0.930 . S
H503 C512 0.930 . S
H504 C517 0.929 . S
H505 C515 0.929 . S
H506 C510 0.929 . S
H507 C516 0.929 . S
C508 H502 0.930 . S
C508 C509 1.367 . S
C508 C516 1.378 . S
C509 C508 1.367 . S
C509 C517 1.433 . S
C510 H506 0.929 . S
C510 C512 1.378 . S
C510 C514 1.350 . S
C511 C514 1.463 . S
C511 C516 1.350 . S
C511 N519 1.427 . S
C512 H503 0.930 . S
C512 C510 1.378 . S
C512 C513 1.367 . S
C513 C512 1.367 . S
C513 C515 1.433 . S
C514 C510 1.350 . S
C514 C511 1.463 . S
C514 N518 1.427 . S
C515 H505 0.929 . S
C515 C513 1.433 . S
C515 N518 1.384 . S
C516 H507 0.929 . S
C516 C508 1.378 . S
C516 C511 1.350 . S
C517 H504 0.929 . S
C517 C509 1.433 . S
C517 N519 1.384 . S
N518 C514 1.427 . S
N518 C515 1.384 . S
N519 C511 1.427 . S
N519 C517 1.384 . S
H520 C526 0.930 . S
H521 C530 0.930 . S
H522 C535 0.929 . S
H523 C533 0.929 . S
H524 C528 0.929 . S
H525 C534 0.929 . S
C526 H520 0.930 . S
C526 C527 1.367 . S
C526 C534 1.378 . S
C527 C526 1.367 . S
C527 C535 1.433 . S
C528 H524 0.929 . S
C528 C530 1.378 . S
C528 C532 1.350 . S
C529 C532 1.463 . S
C529 C534 1.350 . S
C529 N537 1.427 . S
C530 H521 0.930 . S
C530 C528 1.378 . S
C530 C531 1.367 . S
C531 C530 1.367 . S
C531 C533 1.433 . S
C532 C528 1.350 . S
C532 C529 1.463 . S
C532 N536 1.427 . S
C533 H523 0.929 . S
C533 C531 1.433 . S
C533 N536 1.384 . S
C534 H525 0.929 . S
C534 C526 1.378 . S
C534 C529 1.350 . S
C535 H522 0.929 . S
C535 C527 1.433 . S
C535 N537 1.384 . S
N536 C532 1.427 . S
N536 C533 1.384 . S
N537 C529 1.427 . S
N537 C535 1.384 . S
H538 C544 0.930 . S
H539 C548 0.930 . S
H540 C553 0.929 . S
H541 C551 0.929 . S
H542 C546 0.929 . S
H543 C552 0.929 . S
C544 H538 0.930 . S
C544 C545 1.367 . S
C544 C552 1.378 . S
C545 C544 1.367 . S
C545 C553 1.433 . S
C546 H542 0.929 . S
C546 C548 1.378 . S
C546 C550 1.350 . S
C547 C550 1.463 . S
C547 C552 1.350 . S
C547 N555 1.427 . S
C548 H539 0.930 . S
C548 C546 1.378 . S
C548 C549 1.367 . S
C549 C548 1.367 . S
C549 C551 1.433 . S
C550 C546 1.350 . S
C550 C547 1.463 . S
C550 N554 1.427 . S
C551 H541 0.929 . S
C551 C549 1.433 . S
C551 N554 1.384 . S
C552 H543 0.929 . S
C552 C544 1.378 . S
C552 C547 1.350 . S
C553 H540 0.929 . S
C553 C545 1.433 . S
C553 N555 1.384 . S
N554 C550 1.427 . S
N554 C551 1.384 . S
N555 C547 1.427 . S
N555 C553 1.384 . S
H556 C562 0.930 . S
H557 C566 0.930 . S
H558 C571 0.929 . S
H559 C569 0.929 . S
H560 C564 0.929 . S
H561 C570 0.929 . S
C562 H556 0.930 . S
C562 C563 1.367 . S
C562 C570 1.378 . S
C563 C562 1.367 . S
C563 C571 1.433 . S
C564 H560 0.929 . S
C564 C566 1.378 . S
C564 C568 1.350 . S
C565 C568 1.463 . S
C565 C570 1.350 . S
C565 N573 1.427 . S
C566 H557 0.930 . S
C566 C564 1.378 . S
C566 C567 1.367 . S
C567 C566 1.367 . S
C567 C569 1.433 . S
C568 C564 1.350 . S
C568 C565 1.463 . S
C568 N572 1.427 . S
C569 H559 0.929 . S
C569 C567 1.433 . S
C569 N572 1.384 . S
C570 H561 0.929 . S
C570 C562 1.378 . S
C570 C565 1.350 . S
C571 H558 0.929 . S
C571 C563 1.433 . S
C571 N573 1.384 . S
N572 C568 1.427 . S
N572 C569 1.384 . S
N573 C565 1.427 . S
N573 C571 1.384 . S
H574 C580 0.930 . S
H575 C584 0.930 . S
H576 C589 0.929 . S
H577 C587 0.929 . S
H578 C582 0.929 . S
H579 C588 0.929 . S
C580 H574 0.930 . S
C580 C581 1.367 . S
C580 C588 1.378 . S
C581 C580 1.367 . S
C581 C589 1.433 . S
C582 H578 0.929 . S
C582 C584 1.378 . S
C582 C586 1.350 . S
C583 C586 1.463 . S
C583 C588 1.350 . S
C583 N591 1.427 . S
C584 H575 0.930 . S
C584 C582 1.378 . S
C584 C585 1.367 . S
C585 C584 1.367 . S
C585 C587 1.433 . S
C586 C582 1.350 . S
C586 C583 1.463 . S
C586 N590 1.427 . S
C587 H577 0.929 . S
C587 C585 1.433 . S
C587 N590 1.384 . S
C588 H579 0.929 . S
C588 C580 1.378 . S
C588 C583 1.350 . S
C589 H576 0.929 . S
C589 C581 1.433 . S
C589 N591 1.384 . S
N590 C586 1.427 . S
N590 C587 1.384 . S
N591 C583 1.427 . S
N591 C589 1.384 . S
H592 C598 0.930 . S
H593 C602 0.930 . S
H594 C607 0.929 . S
H595 C605 0.929 . S
H596 C600 0.929 . S
H597 C606 0.929 . S
C598 H592 0.930 . S
C598 C599 1.367 . S
C598 C606 1.378 . S
C599 C598 1.367 . S
C599 C607 1.433 . S
C600 H596 0.929 . S
C600 C602 1.378 . S
C600 C604 1.350 . S
C601 C604 1.463 . S
C601 C606 1.350 . S
C601 N609 1.427 . S
C602 H593 0.930 . S
C602 C600 1.378 . S
C602 C603 1.367 . S
C603 C602 1.367 . S
C603 C605 1.433 . S
C604 C600 1.350 . S
C604 C601 1.463 . S
C604 N608 1.427 . S
C605 H595 0.929 . S
C605 C603 1.433 . S
C605 N608 1.384 . S
C606 H597 0.929 . S
C606 C598 1.378 . S
C606 C601 1.350 . S
C607 H594 0.929 . S
C607 C599 1.433 . S
C607 N609 1.384 . S
N608 C604 1.427 . S
N608 C605 1.384 . S
N609 C601 1.427 . S
N609 C607 1.384 . S
H610 C616 0.930 . S
H611 C620 0.930 . S
H612 C625 0.929 . S
H613 C623 0.929 . S
H614 C618 0.929 . S
H615 C624 0.929 . S
C616 H610 0.930 . S
C616 C617 1.367 . S
C616 C624 1.378 . S
C617 C616 1.367 . S
C617 C625 1.433 . S
C618 H614 0.929 . S
C618 C620 1.378 . S
C618 C622 1.350 . S
C619 C622 1.463 . S
C619 C624 1.350 . S
C619 N627 1.427 . S
C620 H611 0.930 . S
C620 C618 1.378 . S
C620 C621 1.367 . S
C621 C620 1.367 . S
C621 C623 1.433 . S
C622 C618 1.350 . S
C622 C619 1.463 . S
C622 N626 1.427 . S
C623 H613 0.929 . S
C623 C621 1.433 . S
C623 N626 1.384 . S
C624 H615 0.929 . S
C624 C616 1.378 . S
C624 C619 1.350 . S
C625 H612 0.929 . S
C625 C617 1.433 . S
C625 N627 1.384 . S
N626 C622 1.427 . S
N626 C623 1.384 . S
N627 C619 1.427 . S
N627 C625 1.384 . S
H628 C634 0.930 . S
H629 C638 0.930 . S
H630 C643 0.929 . S
H631 C641 0.929 . S
H632 C636 0.929 . S
H633 C642 0.929 . S
C634 H628 0.930 . S
C634 C635 1.367 . S
C634 C642 1.378 . S
C635 C634 1.367 . S
C635 C643 1.433 . S
C636 H632 0.929 . S
C636 C638 1.378 . S
C636 C640 1.350 . S
C637 C640 1.463 . S
C637 C642 1.350 . S
C637 N645 1.427 . S
C638 H629 0.930 . S
C638 C636 1.378 . S
C638 C639 1.367 . S
C639 C638 1.367 . S
C639 C641 1.433 . S
C640 C636 1.350 . S
C640 C637 1.463 . S
C640 N644 1.427 . S
C641 H631 0.929 . S
C641 C639 1.433 . S
C641 N644 1.384 . S
C642 H633 0.929 . S
C642 C634 1.378 . S
C642 C637 1.350 . S
C643 H630 0.929 . S
C643 C635 1.433 . S
C643 N645 1.384 . S
N644 C640 1.427 . S
N644 C641 1.384 . S
N645 C637 1.427 . S
N645 C643 1.384 . S
H646 C652 0.930 . S
H647 C656 0.930 . S
H648 C661 0.929 . S
H649 C659 0.929 . S
H650 C654 0.929 . S
H651 C660 0.929 . S
C652 H646 0.930 . S
C652 C653 1.367 . S
C652 C660 1.378 . S
C653 C652 1.367 . S
C653 C661 1.433 . S
C654 H650 0.929 . S
C654 C656 1.378 . S
C654 C658 1.350 . S
C655 C658 1.463 . S
C655 C660 1.350 . S
C655 N663 1.427 . S
C656 H647 0.930 . S
C656 C654 1.378 . S
C656 C657 1.367 . S
C657 C656 1.367 . S
C657 C659 1.433 . S
C658 C654 1.350 . S
C658 C655 1.463 . S
C658 N662 1.427 . S
C659 H649 0.929 . S
C659 C657 1.433 . S
C659 N662 1.384 . S
C660 H651 0.929 . S
C660 C652 1.378 . S
C660 C655 1.350 . S
C661 H648 0.929 . S
C661 C653 1.433 . S
C661 N663 1.384 . S
N662 C658 1.427 . S
N662 C659 1.384 . S
N663 C655 1.427 . S
N663 C661 1.384 . S
H664 C670 0.930 . S
H665 C674 0.930 . S
H666 C679 0.929 . S
H667 C677 0.929 . S
H668 C672 0.929 . S
H669 C678 0.929 . S
C670 H664 0.930 . S
C670 C671 1.367 . S
C670 C678 1.378 . S
C671 C670 1.367 . S
C671 C679 1.433 . S
C672 H668 0.929 . S
C672 C674 1.378 . S
C672 C676 1.350 . S
C673 C676 1.463 . S
C673 C678 1.350 . S
C673 N681 1.427 . S
C674 H665 0.930 . S
C674 C672 1.378 . S
C674 C675 1.367 . S
C675 C674 1.367 . S
C675 C677 1.433 . S
C676 C672 1.350 . S
C676 C673 1.463 . S
C676 N680 1.427 . S
C677 H667 0.929 . S
C677 C675 1.433 . S
C677 N680 1.384 . S
C678 H669 0.929 . S
C678 C670 1.378 . S
C678 C673 1.350 . S
C679 H666 0.929 . S
C679 C671 1.433 . S
C679 N681 1.384 . S
N680 C676 1.427 . S
N680 C677 1.384 . S
N681 C673 1.427 . S
N681 C679 1.384 . S
H682 C688 0.930 . S
H683 C692 0.930 . S
H684 C697 0.929 . S
H685 C695 0.929 . S
H686 C690 0.929 . S
H687 C696 0.929 . S
C688 H682 0.930 . S
C688 C689 1.367 . S
C688 C696 1.378 . S
C689 C688 1.367 . S
C689 C697 1.433 . S
C690 H686 0.929 . S
C690 C692 1.378 . S
C690 C694 1.350 . S
C691 C694 1.463 . S
C691 C696 1.350 . S
C691 N699 1.427 . S
C692 H683 0.930 . S
C692 C690 1.378 . S
C692 C693 1.367 . S
C693 C692 1.367 . S
C693 C695 1.433 . S
C694 C690 1.350 . S
C694 C691 1.463 . S
C694 N698 1.427 . S
C695 H685 0.929 . S
C695 C693 1.433 . S
C695 N698 1.384 . S
C696 H687 0.929 . S
C696 C688 1.378 . S
C696 C691 1.350 . S
C697 H684 0.929 . S
C697 C689 1.433 . S
C697 N699 1.384 . S
N698 C694 1.427 . S
N698 C695 1.384 . S
N699 C691 1.427 . S
N699 C697 1.384 . S
H700 C706 0.930 . S
H701 C710 0.930 . S
H702 C715 0.929 . S
H703 C713 0.929 . S
H704 C708 0.929 . S
H705 C714 0.929 . S
C706 H700 0.930 . S
C706 C707 1.367 . S
C706 C714 1.378 . S
C707 C706 1.367 . S
C707 C715 1.433 . S
C708 H704 0.929 . S
C708 C710 1.378 . S
C708 C712 1.350 . S
C709 C712 1.463 . S
C709 C714 1.350 . S
C709 N717 1.427 . S
C710 H701 0.930 . S
C710 C708 1.378 . S
C710 C711 1.367 . S
C711 C710 1.367 . S
C711 C713 1.433 . S
C712 C708 1.350 . S
C712 C709 1.463 . S
C712 N716 1.427 . S
C713 H703 0.929 . S
C713 C711 1.433 . S
C713 N716 1.384 . S
C714 H705 0.929 . S
C714 C706 1.378 . S
C714 C709 1.350 . S
C715 H702 0.929 . S
C715 C707 1.433 . S
C715 N717 1.384 . S
N716 C712 1.427 . S
N716 C713 1.384 . S
N717 C709 1.427 . S
N717 C715 1.384 . S
H718 C724 0.930 . S
H719 C728 0.930 . S
H720 C733 0.929 . S
H721 C731 0.929 . S
H722 C726 0.929 . S
H723 C732 0.929 . S
C724 H718 0.930 . S
C724 C725 1.367 . S
C724 C732 1.378 . S
C725 C724 1.367 . S
C725 C733 1.433 . S
C726 H722 0.929 . S
C726 C728 1.378 . S
C726 C730 1.350 . S
C727 C730 1.463 . S
C727 C732 1.350 . S
C727 N735 1.427 . S
C728 H719 0.930 . S
C728 C726 1.378 . S
C728 C729 1.367 . S
C729 C728 1.367 . S
C729 C731 1.433 . S
C730 C726 1.350 . S
C730 C727 1.463 . S
C730 N734 1.427 . S
C731 H721 0.929 . S
C731 C729 1.433 . S
C731 N734 1.384 . S
C732 H723 0.929 . S
C732 C724 1.378 . S
C732 C727 1.350 . S
C733 H720 0.929 . S
C733 C725 1.433 . S
C733 N735 1.384 . S
N734 C730 1.427 . S
N734 C731 1.384 . S
N735 C727 1.427 . S
N735 C733 1.384 . S
H736 C742 0.930 . S
H737 C746 0.930 . S
H738 C751 0.929 . S
H739 C749 0.929 . S
H740 C744 0.929 . S
H741 C750 0.929 . S
C742 H736 0.930 . S
C742 C743 1.367 . S
C742 C750 1.378 . S
C743 C742 1.367 . S
C743 C751 1.433 . S
C744 H740 0.929 . S
C744 C746 1.378 . S
C744 C748 1.350 . S
C745 C748 1.463 . S
C745 C750 1.350 . S
C745 N753 1.427 . S
C746 H737 0.930 . S
C746 C744 1.378 . S
C746 C747 1.367 . S
C747 C746 1.367 . S
C747 C749 1.433 . S
C748 C744 1.350 . S
C748 C745 1.463 . S
C748 N752 1.427 . S
C749 H739 0.929 . S
C749 C747 1.433 . S
C749 N752 1.384 . S
C750 H741 0.929 . S
C750 C742 1.378 . S
C750 C745 1.350 . S
C751 H738 0.929 . S
C751 C743 1.433 . S
C751 N753 1.384 . S
N752 C748 1.427 . S
N752 C749 1.384 . S
N753 C745 1.427 . S
N753 C751 1.384 . S
H754 C760 0.930 . S
H755 C764 0.930 . S
H756 C769 0.929 . S
H757 C767 0.929 . S
H758 C762 0.929 . S
H759 C768 0.929 . S
C760 H754 0.930 . S
C760 C761 1.367 . S
C760 C768 1.378 . S
C761 C760 1.367 . S
C761 C769 1.433 . S
C762 H758 0.929 . S
C762 C764 1.378 . S
C762 C766 1.350 . S
C763 C766 1.463 . S
C763 C768 1.350 . S
C763 N771 1.427 . S
C764 H755 0.930 . S
C764 C762 1.378 . S
C764 C765 1.367 . S
C765 C764 1.367 . S
C765 C767 1.433 . S
C766 C762 1.350 . S
C766 C763 1.463 . S
C766 N770 1.427 . S
C767 H757 0.929 . S
C767 C765 1.433 . S
C767 N770 1.384 . S
C768 H759 0.929 . S
C768 C760 1.378 . S
C768 C763 1.350 . S
C769 H756 0.929 . S
C769 C761 1.433 . S
C769 N771 1.384 . S
N770 C766 1.427 . S
N770 C767 1.384 . S
N771 C763 1.427 . S
N771 C769 1.384 . S
H772 C778 0.930 . S
H773 C782 0.930 . S
H774 C787 0.929 . S
H775 C785 0.929 . S
H776 C780 0.929 . S
H777 C786 0.929 . S
C778 H772 0.930 . S
C778 C779 1.367 . S
C778 C786 1.378 . S
C779 C778 1.367 . S
C779 C787 1.433 . S
C780 H776 0.929 . S
C780 C782 1.378 . S
C780 C784 1.350 . S
C781 C784 1.463 . S
C781 C786 1.350 . S
C781 N789 1.427 . S
C782 H773 0.930 . S
C782 C780 1.378 . S
C782 C783 1.367 . S
C783 C782 1.367 . S
C783 C785 1.433 . S
C784 C780 1.350 . S
C784 C781 1.463 . S
C784 N788 1.427 . S
C785 H775 0.929 . S
C785 C783 1.433 . S
C785 N788 1.384 . S
C786 H777 0.929 . S
C786 C778 1.378 . S
C786 C781 1.350 . S
C787 H774 0.929 . S
C787 C779 1.433 . S
C787 N789 1.384 . S
N788 C784 1.427 . S
N788 C785 1.384 . S
N789 C781 1.427 . S
N789 C787 1.384 . S
H790 C796 0.930 . S
H791 C800 0.930 . S
H792 C805 0.929 . S
H793 C803 0.929 . S
H794 C798 0.929 . S
H795 C804 0.929 . S
C796 H790 0.930 . S
C796 C797 1.367 . S
C796 C804 1.378 . S
C797 C796 1.367 . S
C797 C805 1.433 . S
C798 H794 0.929 . S
C798 C800 1.378 . S
C798 C802 1.350 . S
C799 C802 1.463 . S
C799 C804 1.350 . S
C799 N807 1.427 . S
C800 H791 0.930 . S
C800 C798 1.378 . S
C800 C801 1.367 . S
C801 C800 1.367 . S
C801 C803 1.433 . S
C802 C798 1.350 . S
C802 C799 1.463 . S
C802 N806 1.427 . S
C803 H793 0.929 . S
C803 C801 1.433 . S
C803 N806 1.384 . S
C804 H795 0.929 . S
C804 C796 1.378 . S
C804 C799 1.350 . S
C805 H792 0.929 . S
C805 C797 1.433 . S
C805 N807 1.384 . S
N806 C802 1.427 . S
N806 C803 1.384 . S
N807 C799 1.427 . S
N807 C805 1.384 . S
H808 C814 0.930 . S
H809 C818 0.930 . S
H810 C823 0.929 . S
H811 C821 0.929 . S
H812 C816 0.929 . S
H813 C822 0.929 . S
C814 H808 0.930 . S
C814 C815 1.367 . S
C814 C822 1.378 . S
C815 C814 1.367 . S
C815 C823 1.433 . S
C816 H812 0.929 . S
C816 C818 1.378 . S
C816 C820 1.350 . S
C817 C820 1.463 . S
C817 C822 1.350 . S
C817 N825 1.427 . S
C818 H809 0.930 . S
C818 C816 1.378 . S
C818 C819 1.367 . S
C819 C818 1.367 . S
C819 C821 1.433 . S
C820 C816 1.350 . S
C820 C817 1.463 . S
C820 N824 1.427 . S
C821 H811 0.929 . S
C821 C819 1.433 . S
C821 N824 1.384 . S
C822 H813 0.929 . S
C822 C814 1.378 . S
C822 C817 1.350 . S
C823 H810 0.929 . S
C823 C815 1.433 . S
C823 N825 1.384 . S
N824 C820 1.427 . S
N824 C821 1.384 . S
N825 C817 1.427 . S
N825 C823 1.384 . S
H826 C832 0.930 . S
H827 C836 0.930 . S
H828 C841 0.929 . S
H829 C839 0.929 . S
H830 C834 0.929 . S
H831 C840 0.929 . S
C832 H826 0.930 . S
C832 C833 1.367 . S
C832 C840 1.378 . S
C833 C832 1.367 . S
C833 C841 1.433 . S
C834 H830 0.929 . S
C834 C836 1.378 . S
C834 C838 1.350 . S
C835 C838 1.463 . S
C835 C840 1.350 . S
C835 N843 1.427 . S
C836 H827 0.930 . S
C836 C834 1.378 . S
C836 C837 1.367 . S
C837 C836 1.367 . S
C837 C839 1.433 . S
C838 C834 1.350 . S
C838 C835 1.463 . S
C838 N842 1.427 . S
C839 H829 0.929 . S
C839 C837 1.433 . S
C839 N842 1.384 . S
C840 H831 0.929 . S
C840 C832 1.378 . S
C840 C835 1.350 . S
C841 H828 0.929 . S
C841 C833 1.433 . S
C841 N843 1.384 . S
N842 C838 1.427 . S
N842 C839 1.384 . S
N843 C835 1.427 . S
N843 C841 1.384 . S
H844 C850 0.930 . S
H845 C854 0.930 . S
H846 C859 0.929 . S
H847 C857 0.929 . S
H848 C852 0.929 . S
H849 C858 0.929 . S
C850 H844 0.930 . S
C850 C851 1.367 . S
C850 C858 1.378 . S
C851 C850 1.367 . S
C851 C859 1.433 . S
C852 H848 0.929 . S
C852 C854 1.378 . S
C852 C856 1.350 . S
C853 C856 1.463 . S
C853 C858 1.350 . S
C853 N861 1.427 . S
C854 H845 0.930 . S
C854 C852 1.378 . S
C854 C855 1.367 . S
C855 C854 1.367 . S
C855 C857 1.433 . S
C856 C852 1.350 . S
C856 C853 1.463 . S
C856 N860 1.427 . S
C857 H847 0.929 . S
C857 C855 1.433 . S
C857 N860 1.384 . S
C858 H849 0.929 . S
C858 C850 1.378 . S
C858 C853 1.350 . S
C859 H846 0.929 . S
C859 C851 1.433 . S
C859 N861 1.384 . S
N860 C856 1.427 . S
N860 C857 1.384 . S
N861 C853 1.427 . S
N861 C859 1.384 . S
H862 C868 0.930 . S
H863 C872 0.930 . S
H864 C877 0.929 . S
H865 C875 0.929 . S
H866 C870 0.929 . S
H867 C876 0.929 . S
C868 H862 0.930 . S
C868 C869 1.367 . S
C868 C876 1.378 . S
C869 C868 1.367 . S
C869 C877 1.433 . S
C870 H866 0.929 . S
C870 C872 1.378 . S
C870 C874 1.350 . S
C871 C874 1.463 . S
C871 C876 1.350 . S
C871 N879 1.427 . S
C872 H863 0.930 . S
C872 C870 1.378 . S
C872 C873 1.367 . S
C873 C872 1.367 . S
C873 C875 1.433 . S
C874 C870 1.350 . S
C874 C871 1.463 . S
C874 N878 1.427 . S
C875 H865 0.929 . S
C875 C873 1.433 . S
C875 N878 1.384 . S
C876 H867 0.929 . S
C876 C868 1.378 . S
C876 C871 1.350 . S
C877 H864 0.929 . S
C877 C869 1.433 . S
C877 N879 1.384 . S
N878 C874 1.427 . S
N878 C875 1.384 . S
N879 C871 1.427 . S
N879 C877 1.384 . S
C455 C1 1.233 . S
C459 C305 1.242 . S
C473 C67 1.241 . S
C477 C345 1.248 . S
C495 C370 2.360 . S
C491 C97 2.408 . S
C509 C133 2.450 . S
C513 C410 2.387 . S
C531 C341 1.820 . S
C527 C25 1.774 . S
C549 C301 1.810 . S
C545 C37 1.760 . S
C567 C432 1.681 . S
C563 C103 1.698 . S
C585 C392 1.667 . S
C581 C109 1.696 . S
C599 C31 1.378 . S
C603 C434 1.396 . S
C621 C351 2.131 . S
C617 C73 2.173 . S
C635 C139 2.196 . S
C639 C311 2.158 . S
C653 C61 1.370 . S
C657 C394 1.390 . S
C675 C314 1.233 . S
C671 C175 1.177 . S
C689 C181 1.207 . S
C693 C354 1.229 . S
C707 C247 2.445 . S
C711 C391 2.391 . S
C725 C277 2.436 . S
C729 C431 2.375 . S
C743 C145 1.713 . S
C747 C352 1.810 . S
C765 C312 1.816 . S
C761 C211 1.765 . S
C783 C421 1.667 . S
C779 C217 1.680 . S
C801 C381 1.691 . S
C797 C283 1.703 . S
C815 C169 1.332 . S
C819 C425 1.402 . S
C837 C330 2.142 . S
C833 C241 2.191 . S
C855 C290 2.142 . S
C851 C253 2.191 . S
C869 C205 1.403 . S
C873 C385 1.403 . S
