# Generated by pormake.
# Topology pyr, (3,6)-cn, num edge types: 1
# Building blocks:
#     Node 0, Type 0, BuildingBlock: MIDCAF_clean_linker_0, # of connection points: 3
#     Node 1, Type 0, BuildingBlock: MIDCAF_clean_linker_0, # of connection points: 3
#     Node 2, Type 0, BuildingBlock: MIDCAF_clean_linker_0, # of connection points: 3
#     Node 3, Type 0, BuildingBlock: MIDCAF_clean_linker_0, # of connection points: 3
#     Node 4, Type 0, BuildingBlock: MIDCAF_clean_linker_0, # of connection points: 3
#     Node 5, Type 0, BuildingBlock: MIDCAF_clean_linker_0, # of connection points: 3
#     Node 6, Type 0, BuildingBlock: MIDCAF_clean_linker_0, # of connection points: 3
#     Node 7, Type 0, BuildingBlock: MIDCAF_clean_linker_0, # of connection points: 3
#     Node 8, Type 1, BuildingBlock: MIDCAF_clean_sbu_0, # of connection points: 6
#     Node 9, Type 1, BuildingBlock: MIDCAF_clean_sbu_0, # of connection points: 6
#     Node 10, Type 1, BuildingBlock: MIDCAF_clean_sbu_0, # of connection points: 6
#     Node 11, Type 1, BuildingBlock: MIDCAF_clean_sbu_0, # of connection points: 6
#     Edge 12, Type (0, 1), BuildingBlock: EZIPEK_clean_linker_0, # of connection points: 2
#     Edge 13, Type (0, 1), BuildingBlock: EZIPEK_clean_linker_0, # of connection points: 2
#     Edge 14, Type (0, 1), BuildingBlock: EZIPEK_clean_linker_0, # of connection points: 2
#     Edge 15, Type (0, 1), BuildingBlock: EZIPEK_clean_linker_0, # of connection points: 2
#     Edge 16, Type (0, 1), BuildingBlock: EZIPEK_clean_linker_0, # of connection points: 2
#     Edge 17, Type (0, 1), BuildingBlock: EZIPEK_clean_linker_0, # of connection points: 2
#     Edge 18, Type (0, 1), BuildingBlock: EZIPEK_clean_linker_0, # of connection points: 2
#     Edge 19, Type (0, 1), BuildingBlock: EZIPEK_clean_linker_0, # of connection points: 2
#     Edge 20, Type (0, 1), BuildingBlock: EZIPEK_clean_linker_0, # of connection points: 2
#     Edge 21, Type (0, 1), BuildingBlock: EZIPEK_clean_linker_0, # of connection points: 2
#     Edge 22, Type (0, 1), BuildingBlock: EZIPEK_clean_linker_0, # of connection points: 2
#     Edge 23, Type (0, 1), BuildingBlock: EZIPEK_clean_linker_0, # of connection points: 2
#     Edge 24, Type (0, 1), BuildingBlock: EZIPEK_clean_linker_0, # of connection points: 2
#     Edge 25, Type (0, 1), BuildingBlock: EZIPEK_clean_linker_0, # of connection points: 2
#     Edge 26, Type (0, 1), BuildingBlock: EZIPEK_clean_linker_0, # of connection points: 2
#     Edge 27, Type (0, 1), BuildingBlock: EZIPEK_clean_linker_0, # of connection points: 2
#     Edge 28, Type (0, 1), BuildingBlock: EZIPEK_clean_linker_0, # of connection points: 2
#     Edge 29, Type (0, 1), BuildingBlock: EZIPEK_clean_linker_0, # of connection points: 2
#     Edge 30, Type (0, 1), BuildingBlock: EZIPEK_clean_linker_0, # of connection points: 2
#     Edge 31, Type (0, 1), BuildingBlock: EZIPEK_clean_linker_0, # of connection points: 2
#     Edge 32, Type (0, 1), BuildingBlock: EZIPEK_clean_linker_0, # of connection points: 2
#     Edge 33, Type (0, 1), BuildingBlock: EZIPEK_clean_linker_0, # of connection points: 2
#     Edge 34, Type (0, 1), BuildingBlock: EZIPEK_clean_linker_0, # of connection points: 2
#     Edge 35, Type (0, 1), BuildingBlock: EZIPEK_clean_linker_0, # of connection points: 2
# Relax obj value: 0.019
# Max RMSD: 0.063
# Mean RMSD: 0.023
data_MOF--net-pry--node1-MIDCAF_clean_sbu_0--node2-MIDCAF_clean_linker_0--edge1-EZIPEK_clean_linker_0
_symmetry_space_group_name_H-M    P1
_symmetry_Int_Tables_number       1
_symmetry_cell_setting            triclinic
loop_
_symmetry_equiv_pos_as_xyz
'x, y, z'
_cell_length_a     33.907695
_cell_length_b     34.001773
_cell_length_c     33.956725
_cell_angle_alpha  89.84824
_cell_angle_beta   90.113705
_cell_angle_gamma 90.218186
loop_
_atom_site_label
_atom_site_type_symbol
_atom_site_fract_x
_atom_site_fract_y
_atom_site_fract_z
_atom_type_partial_charge
C0 C 0.15429 0.2163 0.3597 0.0
C1 C 0.16614 0.17945 0.37401 0.0
C2 C 0.20198 0.16353 0.36135 0.0
C3 C 0.22465 0.18303 0.33301 0.0
H4 H 0.285 0.15003 0.22939 0.0
H5 H 0.32773 0.11036 0.18743 0.0
H6 H 0.38527 0.21558 0.14522 0.0
H7 H 0.34113 0.25573 0.18586 0.0
H8 H 0.20458 0.28063 0.15832 0.0
H9 H 0.16521 0.331 0.12512 0.0
H10 H 0.18657 0.41076 0.22156 0.0
H11 H 0.22377 0.35899 0.25622 0.0
H12 H 0.16622 0.26353 0.31958 0.0
H13 H 0.12664 0.22897 0.36919 0.0
H14 H 0.21155 0.13509 0.37213 0.0
H15 H 0.25142 0.1691 0.32285 0.0
N16 N 0.26269 0.21632 0.26485 0.0
N17 N 0.2656 0.26322 0.21415 0.0
N18 N 0.21942 0.26999 0.26516 0.0
C19 C 0.27959 0.22985 0.23115 0.0
C20 C 0.23583 0.28358 0.23124 0.0
C21 C 0.23279 0.23634 0.28228 0.0
C22 C 0.30948 0.20598 0.21053 0.0
C23 C 0.30717 0.16472 0.21168 0.0
C24 C 0.33158 0.14201 0.18776 0.0
C25 C 0.35945 0.16005 0.16302 0.0
C26 C 0.36384 0.20114 0.16401 0.0
C27 C 0.33855 0.22399 0.18705 0.0
C28 C 0.21693 0.3161 0.20973 0.0
C29 C 0.20112 0.30907 0.17221 0.0
C30 C 0.17867 0.33781 0.15327 0.0
C31 C 0.17256 0.37457 0.17099 0.0
C32 C 0.19053 0.38248 0.20754 0.0
C33 C 0.21175 0.35305 0.22725 0.0
C34 C 0.21184 0.21889 0.31665 0.0
C35 C 0.17697 0.2359 0.33126 0.0
C36 C 0.20501 0.88711 0.67471 0.0
C37 C 0.16849 0.86957 0.6658 0.0
C38 C 0.16021 0.83169 0.68048 0.0
C39 C 0.18901 0.81078 0.70139 0.0
H40 H 0.27801 0.71832 0.65968 0.0
H41 H 0.3142 0.66975 0.62087 0.0
H42 H 0.40209 0.66166 0.71229 0.0
H43 H 0.36638 0.70981 0.75145 0.0
H44 H 0.37736 0.77846 0.81101 0.0
H45 H 0.41806 0.81394 0.859 0.0
H46 H 0.33275 0.90744 0.86198 0.0
H47 H 0.29176 0.87253 0.81426 0.0
H48 H 0.2613 0.88076 0.70276 0.0
H49 H 0.21208 0.91626 0.66378 0.0
H50 H 0.1321 0.81776 0.67428 0.0
H51 H 0.18274 0.78103 0.71106 0.0
N52 N 0.27005 0.77155 0.71353 0.0
N53 N 0.3212 0.76941 0.76012 0.0
N54 N 0.27693 0.82213 0.76002 0.0
C55 C 0.30215 0.75306 0.72884 0.0
C56 C 0.30863 0.80372 0.77612 0.0
C57 C 0.25725 0.80594 0.72919 0.0
C58 C 0.31958 0.7186 0.7085 0.0
C59 C 0.30456 0.70563 0.67202 0.0
C60 C 0.3251 0.67781 0.64977 0.0
C61 C 0.36091 0.66254 0.66366 0.0
C62 C 0.37452 0.67326 0.70112 0.0
C63 C 0.35406 0.70096 0.72338 0.0
C64 C 0.33139 0.8228 0.80831 0.0
C65 C 0.3669 0.80632 0.8222 0.0
C66 C 0.39021 0.82643 0.84968 0.0
C67 C 0.37838 0.86328 0.86372 0.0
C68 C 0.34227 0.879 0.85136 0.0
C69 C 0.31897 0.85899 0.82395 0.0
C70 C 0.2257 0.82822 0.70952 0.0
C71 C 0.2331 0.86685 0.69689 0.0
C72 C 0.7103 0.18297 0.88937 0.0
C73 C 0.67369 0.16857 0.87648 0.0
C74 C 0.65878 0.18083 0.83996 0.0
C75 C 0.67905 0.20886 0.81756 0.0
H76 H 0.65916 0.28538 0.72698 0.0
H77 H 0.62024 0.32103 0.67767 0.0
H78 H 0.70842 0.41249 0.674 0.0
H79 H 0.74765 0.37739 0.72299 0.0
H80 H 0.77628 0.38456 0.83888 0.0
H81 H 0.82663 0.41854 0.87798 0.0
H82 H 0.90619 0.3213 0.86097 0.0
H83 H 0.85449 0.28601 0.82403 0.0
H84 H 0.75806 0.22284 0.87849 0.0
H85 H 0.72223 0.17371 0.91751 0.0
H86 H 0.63057 0.16991 0.82956 0.0
H87 H 0.66589 0.21873 0.79019 0.0
N88 N 0.71443 0.27578 0.77891 0.0
N89 N 0.76045 0.32738 0.77821 0.0
N90 N 0.76552 0.27725 0.8256 0.0
C91 C 0.72821 0.30956 0.76231 0.0
C92 C 0.77948 0.31109 0.8094 0.0
C93 C 0.73286 0.25938 0.81056 0.0
C94 C 0.70642 0.32869 0.72944 0.0
C95 C 0.67063 0.3128 0.71536 0.0
C96 C 0.64835 0.33301 0.68709 0.0
C97 C 0.6615 0.36936 0.67244 0.0
C98 C 0.6979 0.38443 0.68502 0.0
C99 C 0.72018 0.36432 0.71319 0.0
C100 C 0.81166 0.33274 0.82885 0.0
C101 C 0.80464 0.37064 0.84333 0.0
C102 C 0.83337 0.39003 0.86558 0.0
C103 C 0.87009 0.37234 0.87273 0.0
C104 C 0.87794 0.33531 0.85614 0.0
C105 C 0.84855 0.31522 0.83514 0.0
C106 C 0.71466 0.22528 0.83133 0.0
C107 C 0.73064 0.21111 0.86699 0.0
C108 C 0.68079 0.70414 0.38291 0.0
C109 C 0.66871 0.6673 0.36882 0.0
C110 C 0.68332 0.65378 0.33273 0.0
C111 C 0.71118 0.67605 0.3119 0.0
H112 H 0.78653 0.66905 0.21868 0.0
H113 H 0.82541 0.63322 0.1702 0.0
H114 H 0.91524 0.72305 0.17432 0.0
H115 H 0.87673 0.75938 0.223 0.0
H116 H 0.87278 0.82465 0.28693 0.0
H117 H 0.90895 0.87369 0.32516 0.0
H118 H 0.81999 0.86919 0.41546 0.0
H119 H 0.78332 0.81987 0.3776 0.0
H120 H 0.71822 0.75417 0.37456 0.0
H121 H 0.66981 0.71496 0.41078 0.0
H122 H 0.6743 0.62533 0.3215 0.0
H123 H 0.72287 0.66418 0.28478 0.0
N124 N 0.77544 0.71841 0.27485 0.0
N125 N 0.82305 0.76855 0.27603 0.0
N126 N 0.77382 0.76629 0.32437 0.0
C127 C 0.80782 0.73582 0.25876 0.0
C128 C 0.80617 0.78414 0.30873 0.0
C129 C 0.75811 0.73351 0.30753 0.0
C130 C 0.82866 0.71694 0.2253 0.0
C131 C 0.81423 0.68168 0.20894 0.0
C132 C 0.83631 0.66117 0.18106 0.0
C133 C 0.87314 0.67548 0.16891 0.0
C134 C 0.88678 0.71166 0.18338 0.0
C135 C 0.86472 0.73225 0.21132 0.0
C136 C 0.82529 0.81776 0.32934 0.0
C137 C 0.86041 0.83438 0.31461 0.0
C138 C 0.88114 0.86257 0.33633 0.0
C139 C 0.86718 0.87481 0.3731 0.0
C140 C 0.83113 0.86003 0.38707 0.0
C141 C 0.81034 0.83174 0.36538 0.0
C142 C 0.72496 0.71222 0.32689 0.0
C143 C 0.70861 0.72643 0.36216 0.0
C144 C 0.78826 0.0016 0.91516 0.0
C145 C 0.76465 0.987 0.94576 0.0
C146 C 0.77853 0.95606 0.96925 0.0
C147 C 0.81498 0.93887 0.96154 0.0
H148 H 0.88248 0.84509 0.99434 0.0
H149 H 0.89684 0.78119 0.0248 0.0
H150 H 0.9944 0.76555 0.94537 0.0
H151 H 0.98076 0.82901 0.91485 0.0
H152 H 0.00103 0.89553 0.85075 0.0
H153 H 0.03375 0.91097 0.78805 0.0
H154 H 0.93641 0.98537 0.75528 0.0
H155 H 0.90384 0.9709 0.8176 0.0
H156 H 0.84201 0.99546 0.88279 0.0
H157 H 0.77785 0.02547 0.89674 0.0
H158 H 0.76057 0.94448 0.993 0.0
H159 H 0.8243 0.91442 0.97977 0.0
N160 N 0.88697 0.89944 0.94083 0.0
N161 N 0.94003 0.8899 0.89779 0.0
N162 N 0.89608 0.94192 0.88711 0.0
C163 C 0.9194 0.87865 0.93025 0.0
C164 C 0.92863 0.92151 0.8761 0.0
C165 C 0.8752 0.93126 0.91956 0.0
C166 C 0.93023 0.84216 0.95179 0.0
C167 C 0.90734 0.82835 0.98364 0.0
C168 C 0.91546 0.79192 0.00119 0.0
C169 C 0.94652 0.76882 0.98712 0.0
C170 C 0.97028 0.7831 0.95651 0.0
C171 C 0.96233 0.81941 0.93907 0.0
C172 C 0.9497 0.9319 0.83923 0.0
C173 C 0.98664 0.91529 0.83026 0.0
C174 C 0.00538 0.92397 0.79451 0.0
C175 C 0.98714 0.94883 0.76702 0.0
C176 C 0.9507 0.96582 0.77609 0.0
C177 C 0.93222 0.95761 0.81185 0.0
C178 C 0.83829 0.95219 0.92993 0.0
C179 C 0.82482 0.98428 0.90725 0.0
C180 C 0.59156 0.08077 0.27099 0.0
C181 C 0.55305 0.09347 0.26322 0.0
C182 C 0.53281 0.11531 0.29169 0.0
C183 C 0.55133 0.12489 0.32736 0.0
H184 H 0.55871 0.21539 0.40957 0.0
H185 H 0.5449 0.27838 0.44061 0.0
H186 H 0.63732 0.25816 0.52544 0.0
H187 H 0.65187 0.19477 0.49446 0.0
H188 H 0.71363 0.1293 0.47729 0.0
H189 H 0.77701 0.0988 0.49159 0.0
H190 H 0.75896 0.01621 0.39719 0.0
H191 H 0.69519 0.04667 0.38214 0.0
H192 H 0.63959 0.07947 0.31165 0.0
H193 H 0.60742 0.06354 0.24944 0.0
H194 H 0.50284 0.12487 0.28628 0.0
H195 H 0.53525 0.14195 0.34885 0.0
N196 N 0.59806 0.15318 0.39442 0.0
N197 N 0.65026 0.14309 0.43866 0.0
N198 N 0.64253 0.10158 0.38422 0.0
C199 C 0.61797 0.16393 0.42752 0.0
C200 C 0.66262 0.11173 0.4173 0.0
C201 C 0.61015 0.12203 0.37265 0.0
C202 C 0.60671 0.20003 0.44919 0.0
C203 C 0.57594 0.22389 0.43507 0.0
C204 C 0.56793 0.25994 0.45277 0.0
C205 C 0.59027 0.27281 0.48504 0.0
C206 C 0.61986 0.24856 0.50048 0.0
C207 C 0.62809 0.21242 0.48264 0.0
C208 C 0.69934 0.09075 0.42829 0.0
C209 C 0.72272 0.10443 0.45968 0.0
C210 C 0.75898 0.08704 0.46797 0.0
C211 C 0.77251 0.05551 0.44529 0.0
C212 C 0.74882 0.04059 0.41492 0.0
C213 C 0.71249 0.05815 0.4064 0.0
C214 C 0.58997 0.11195 0.33528 0.0
C215 C 0.60977 0.0897 0.3067 0.0
C216 C 0.2972 0.52924 0.11479 0.0
C217 C 0.26981 0.54809 0.09023 0.0
C218 C 0.27972 0.58412 0.0727 0.0
C219 C 0.31615 0.60168 0.08014 0.0
H220 H 0.38881 0.68932 0.03988 0.0
H221 H 0.40186 0.75387 0.01012 0.0
H222 H 0.49662 0.77308 0.09263 0.0
H223 H 0.48431 0.70893 0.12245 0.0
H224 H 0.49992 0.65001 0.19096 0.0
H225 H 0.52925 0.63744 0.25586 0.0
H226 H 0.44727 0.54211 0.27447 0.0
H227 H 0.41789 0.55396 0.21 0.0
H228 H 0.35407 0.53238 0.14237 0.0
H229 H 0.29009 0.50116 0.12818 0.0
H230 H 0.25898 0.59884 0.05337 0.0
H231 H 0.32249 0.62983 0.0665 0.0
N232 N 0.39226 0.63635 0.09462 0.0
N233 N 0.44603 0.64557 0.13706 0.0
N234 N 0.40235 0.59295 0.14739 0.0
C235 C 0.42492 0.65711 0.10501 0.0
C236 C 0.43508 0.61346 0.15834 0.0
C237 C 0.38084 0.60414 0.11552 0.0
C238 C 0.43525 0.694 0.08392 0.0
C239 C 0.41279 0.70701 0.05143 0.0
C240 C 0.42017 0.74379 0.03427 0.0
C241 C 0.44998 0.76806 0.04945 0.0
C242 C 0.47342 0.75461 0.08067 0.0
C243 C 0.46626 0.71791 0.09769 0.0
C244 C 0.45618 0.60326 0.19531 0.0
C245 C 0.48844 0.62599 0.20857 0.0
C246 C 0.50533 0.6189 0.24558 0.0
C247 C 0.49014 0.58907 0.2698 0.0
C248 C 0.45922 0.56533 0.25606 0.0
C249 C 0.44245 0.57223 0.21916 0.0
C250 C 0.34342 0.58371 0.10565 0.0
C251 C 0.33366 0.54712 0.12274 0.0
C252 C 0.11737 0.29603 0.53994 0.0
C253 C 0.08748 0.272 0.55539 0.0
C254 C 0.06448 0.28565 0.5867 0.0
C255 C 0.07213 0.3223 0.60349 0.0
H256 H 0.03372 0.3998 0.69084 0.0
H257 H 0.00236 0.41495 0.75416 0.0
H258 H 0.10081 0.48935 0.78489 0.0
H259 H 0.13203 0.47518 0.72195 0.0
H260 H 0.19476 0.49784 0.65733 0.0
H261 H 0.25967 0.52645 0.64268 0.0
H262 H 0.27171 0.44826 0.54385 0.0
H263 H 0.20726 0.41964 0.55774 0.0
H264 H 0.14922 0.35024 0.54506 0.0
H265 H 0.13536 0.2858 0.51574 0.0
H266 H 0.04125 0.26737 0.59889 0.0
H267 H 0.05441 0.33142 0.62832 0.0
N268 N 0.09401 0.39404 0.64294 0.0
N269 N 0.13841 0.4462 0.65255 0.0
N270 N 0.14648 0.40358 0.59909 0.0
C271 C 0.10588 0.42578 0.66417 0.0
C272 C 0.15875 0.43546 0.6199 0.0
C273 C 0.11413 0.38274 0.61029 0.0
C274 C 0.08551 0.43618 0.70131 0.0
C275 C 0.04863 0.41952 0.71101 0.0
C276 C 0.03066 0.42805 0.7471 0.0
C277 C 0.04963 0.45279 0.7742 0.0
C278 C 0.08597 0.4699 0.76437 0.0
C279 C 0.10367 0.46185 0.72827 0.0
C280 C 0.19585 0.45605 0.60897 0.0
C281 C 0.21093 0.48706 0.63213 0.0
C282 C 0.24792 0.50356 0.62384 0.0
C283 C 0.2703 0.48923 0.59235 0.0
C284 C 0.25473 0.45957 0.5683 0.0
C285 C 0.21787 0.4432 0.57641 0.0
C286 C 0.10317 0.34598 0.5894 0.0
C287 C 0.1252 0.33277 0.55684 0.0
Zn288 Zn 0.96949 0.07005 0.56986 0.0
Zn289 Zn 0.06444 0.98157 0.47268 0.0
Zn290 Zn 0.01748 0.02514 0.52236 0.0
C291 C 0.08132 0.06214 0.46149 0.0
C292 C 0.98433 0.96573 0.45562 0.0
O293 O 0.0234 0.00303 0.58305 0.0
O294 O 0.98087 0.03819 0.61772 0.0
C295 C 0.02821 0.11865 0.53698 0.0
O296 O 0.05744 0.06543 0.49072 0.0
O297 O 0.08816 0.02891 0.44642 0.0
O298 O 0.01859 0.95371 0.44757 0.0
O299 O 0.97908 0.99313 0.48114 0.0
O300 O 0.99982 0.11956 0.56096 0.0
O301 O 0.03786 0.08651 0.51959 0.0
O302 O 0.95636 0.02047 0.50107 0.0
O303 O 0.92075 0.05997 0.53873 0.0
C304 C 0.92326 0.03648 0.51013 0.0
O305 O 0.04989 0.98265 0.55887 0.0
O306 O 0.09227 0.95525 0.51768 0.0
C307 C 0.00606 0.011 0.61577 0.0
C308 C 0.0788 0.95916 0.55217 0.0
Zn309 Zn 0.47792 0.05867 0.9694 0.0
Zn310 Zn 0.56607 0.97013 0.06565 0.0
Zn311 Zn 0.51863 0.01537 0.02065 0.0
C312 C 0.61323 0.0042 0.00869 0.0
C313 C 0.50847 0.92151 0.03333 0.0
O314 O 0.47862 0.05126 0.05793 0.0
O315 O 0.44318 0.07952 0.01167 0.0
C316 C 0.55516 0.07953 0.95813 0.0
O317 O 0.58072 0.02247 0.00164 0.0
O318 O 0.61474 0.97745 0.03444 0.0
O319 O 0.53513 0.9208 0.05929 0.0
O320 O 0.50013 0.95356 0.01492 0.0
O321 O 0.52153 0.09184 0.94816 0.0
O322 O 0.55862 0.05084 0.98278 0.0
O323 O 0.48209 0.97526 0.98559 0.0
O324 O 0.45802 0.01281 0.93795 0.0
C325 C 0.46207 0.97931 0.95361 0.0
O326 O 0.51054 0.03633 0.08113 0.0
O327 O 0.55751 0.0035 0.11258 0.0
C328 C 0.44813 0.07153 0.04768 0.0
C329 C 0.53088 0.02938 0.11247 0.0
Zn330 Zn 0.56242 0.56521 0.56505 0.0
Zn331 Zn 0.4689 0.47041 0.46906 0.0
Zn332 Zn 0.51624 0.51739 0.51668 0.0
C333 C 0.5288 0.42421 0.50395 0.0
C334 C 0.50456 0.53025 0.42317 0.0
O335 O 0.47725 0.54954 0.55653 0.0
O336 O 0.51524 0.59272 0.58767 0.0
C337 C 0.57914 0.48446 0.57976 0.0
O338 O 0.5374 0.45666 0.52143 0.0
O339 O 0.50108 0.42243 0.47912 0.0
O340 O 0.47936 0.50286 0.42117 0.0
O341 O 0.52183 0.53862 0.45587 0.0
O342 O 0.58519 0.51852 0.59344 0.0
O343 O 0.55606 0.4792 0.5501 0.0
O344 O 0.54953 0.55814 0.47896 0.0
O345 O 0.59122 0.58888 0.51895 0.0
C346 C 0.57833 0.58225 0.48462 0.0
O347 O 0.45491 0.52145 0.53698 0.0
O348 O 0.42028 0.47955 0.50062 0.0
C349 C 0.48148 0.57848 0.58054 0.0
C350 C 0.42219 0.50421 0.52831 0.0
Zn351 Zn 0.06878 0.57119 0.9741 0.0
Zn352 Zn 0.97469 0.47842 0.0681 0.0
Zn353 Zn 0.0219 0.52387 0.0204 0.0
C354 C 0.05469 0.46475 0.08779 0.0
C355 C 0.96119 0.45736 0.98862 0.0
O356 O 0.00062 0.58497 0.02398 0.0
O357 O 0.03879 0.62027 0.98427 0.0
C358 C 0.1164 0.5351 0.03125 0.0
O359 O 0.06019 0.49245 0.0624 0.0
O360 O 0.02031 0.45193 0.09462 0.0
O361 O 0.94775 0.45181 0.02291 0.0
O362 O 0.98972 0.48181 0.98281 0.0
O363 O 0.11813 0.55997 0.00362 0.0
O364 O 0.08348 0.51845 0.04043 0.0
O365 O 0.01623 0.50319 0.95939 0.0
O366 O 0.05716 0.5411 0.9252 0.0
C367 C 0.03288 0.51287 0.9267 0.0
O368 O 0.98158 0.56275 0.05268 0.0
O369 O 0.94934 0.52435 0.09464 0.0
C370 C 0.01 0.61793 0.00767 0.0
C371 C 0.95681 0.55818 0.08103 0.0
C372 C 0.14706 0.15077 0.43966 0.0
C373 C 0.13937 0.15511 0.3988 0.0
C374 C 0.08557 0.10706 0.40369 0.0
C375 C 0.09803 0.09764 0.44239 0.0
N376 N 0.14078 0.10958 0.49787 0.0
N377 N 0.10268 0.13599 0.34081 0.0
C378 C 0.12842 0.11968 0.46089 0.0
C379 C 0.10861 0.13326 0.38058 0.0
N380 N 0.17198 0.17655 0.45801 0.0
N381 N 0.05128 0.09134 0.38931 0.0
H382 H 0.11846 0.1552 0.32272 0.0
H383 H 0.08401 0.11723 0.32524 0.0
H384 H 0.03346 0.07239 0.4058 0.0
H385 H 0.03851 0.10006 0.36279 0.0
H386 H 0.17591 0.17751 0.48842 0.0
H387 H 0.18609 0.19941 0.44298 0.0
H388 H 0.16553 0.12172 0.51144 0.0
H389 H 0.12743 0.08728 0.51433 0.0
C390 C 0.43563 0.90964 0.87126 0.0
C391 C 0.40488 0.88735 0.8889 0.0
C392 C 0.41465 0.92217 0.95127 0.0
C393 C 0.44533 0.94447 0.93351 0.0
N394 N 0.49279 0.9515 0.88125 0.0
N395 N 0.37212 0.86467 0.94757 0.0
C396 C 0.45831 0.93562 0.89492 0.0
C397 C 0.39677 0.89105 0.92965 0.0
N398 N 0.44198 0.90742 0.83158 0.0
N399 N 0.401 0.93217 0.98773 0.0
H400 H 0.35851 0.84174 0.93227 0.0
H401 H 0.36815 0.86326 0.97795 0.0
H402 H 0.41318 0.95489 0.00441 0.0
H403 H 0.37596 0.91972 1.00042 0.0
H404 H 0.46071 0.92648 0.81641 0.0
H405 H 0.42651 0.88829 0.81318 0.0
H406 H 0.50583 0.94318 0.85483 0.0
H407 H 0.51048 0.9701 0.89823 0.0
C408 C 0.60534 0.41646 0.6638 0.0
C409 C 0.63587 0.39378 0.64669 0.0
C410 C 0.62657 0.42777 0.58357 0.0
C411 C 0.59598 0.45024 0.60076 0.0
N412 N 0.54871 0.45844 0.65294 0.0
N413 N 0.66908 0.37063 0.58865 0.0
C414 C 0.58296 0.44212 0.63956 0.0
C415 C 0.64433 0.39707 0.60592 0.0
N416 N 0.59893 0.41494 0.70353 0.0
N417 N 0.64001 0.43711 0.54679 0.0
H418 H 0.68259 0.348 0.60446 0.0
H419 H 0.67338 0.36891 0.55835 0.0
H420 H 0.62756 0.45933 0.52962 0.0
H421 H 0.66495 0.42459 0.53423 0.0
H422 H 0.58041 0.43431 0.71826 0.0
H423 H 0.61425 0.39617 0.72241 0.0
H424 H 0.53554 0.45056 0.67951 0.0
H425 H 0.53133 0.47704 0.63569 0.0
C426 C 0.89231 0.64699 0.10342 0.0
C427 C 0.89902 0.65017 0.14454 0.0
C428 C 0.95115 0.60069 0.14028 0.0
C429 C 0.93977 0.59284 0.10091 0.0
N430 N 0.89854 0.60683 0.04477 0.0
N431 N 0.93291 0.6283 0.20324 0.0
C432 C 0.91045 0.6159 0.08213 0.0
C433 C 0.92825 0.62685 0.16325 0.0
N434 N 0.86889 0.67389 0.08482 0.0
N435 N 0.98436 0.58364 0.15545 0.0
H436 H 0.9172 0.64744 0.22124 0.0
H437 H 0.9503 0.60854 0.21898 0.0
H438 H 0.0021 0.56464 0.1392 0.0
H439 H 0.99647 0.59124 0.1826 0.0
H440 H 0.86602 0.67568 0.05433 0.0
H441 H 0.85509 0.69675 0.09984 0.0
H442 H 0.87444 0.61982 0.03093 0.0
H443 H 0.91143 0.58446 0.0283 0.0
C444 C 0.37046 0.1389 0.09288 0.0
C445 C 0.38078 0.13588 0.13339 0.0
C446 C 0.42315 0.0798 0.11802 0.0
C447 C 0.41956 0.08816 0.07737 0.0
N448 N 0.37032 0.10703 0.02941 0.0
N449 N 0.41957 0.10475 0.18437 0.0
C450 C 0.38783 0.11277 0.06527 0.0
C451 C 0.40773 0.10657 0.14595 0.0
N452 N 0.34359 0.16626 0.08067 0.0
N453 N 0.43531 0.04354 0.12987 0.0
H454 H 0.40957 0.12428 0.20575 0.0
H455 H 0.44193 0.08601 0.19393 0.0
H456 H 0.4408 0.02099 0.10987 0.0
H457 H 0.43335 0.03422 0.15908 0.0
H458 H 0.33957 0.17392 0.05122 0.0
H459 H 0.32658 0.1829 0.0999 0.0
H460 H 0.34539 0.12208 0.01985 0.0
H461 H 0.37611 0.08252 0.01204 0.0
C462 C 0.12742 0.92895 0.64917 0.0
C463 C 0.14024 0.8905 0.63937 0.0
C464 C 0.10201 0.89443 0.57827 0.0
C465 C 0.0963 0.93525 0.58437 0.0
N466 N 0.11054 0.99298 0.62345 0.0
N467 N 0.14527 0.8395 0.58989 0.0
C468 C 0.11046 0.95303 0.61945 0.0
C469 C 0.12879 0.87375 0.60276 0.0
N470 N 0.13113 0.94239 0.68685 0.0
N471 N 0.08153 0.87524 0.54939 0.0
H472 H 0.16691 0.82433 0.60548 0.0
H473 H 0.14049 0.82846 0.56166 0.0
H474 H 0.06048 0.88918 0.53182 0.0
H475 H 0.08223 0.84478 0.54606 0.0
H476 H 0.11899 0.96892 0.69614 0.0
H477 H 0.14252 0.92507 0.70957 0.0
H478 H 0.12427 0.00724 0.64693 0.0
H479 H 0.10048 0.01203 0.60157 0.0
C480 C 0.91164 0.43109 0.89098 0.0
C481 C 0.89901 0.39212 0.8994 0.0
C482 C 0.93822 0.3936 0.96 0.0
C483 C 0.94372 0.43472 0.95551 0.0
N484 N 0.92869 0.49405 0.91906 0.0
N485 N 0.89499 0.33874 0.94671 0.0
C486 C 0.929 0.45395 0.9214 0.0
C487 C 0.91114 0.37376 0.93505 0.0
N488 N 0.90726 0.44623 0.85395 0.0
N489 N 0.95909 0.37335 0.98784 0.0
H490 H 0.8732 0.32403 0.93081 0.0
H491 H 0.90024 0.32642 0.97436 0.0
H492 H 0.98025 0.38676 0.00574 0.0
H493 H 0.95855 0.34276 0.98995 0.0
H494 H 0.91921 0.47327 0.84556 0.0
H495 H 0.89549 0.42986 0.83075 0.0
H496 H 0.91454 0.50921 0.8964 0.0
H497 H 0.93901 0.51221 0.94151 0.0
C498 C 0.60271 0.64816 0.39683 0.0
C499 C 0.64388 0.64147 0.39409 0.0
C500 C 0.63863 0.58886 0.44328 0.0
C501 C 0.59912 0.60002 0.45063 0.0
N502 N 0.54344 0.64155 0.43631 0.0
N503 N 0.70217 0.60748 0.41663 0.0
C504 C 0.58086 0.62967 0.42756 0.0
C505 C 0.66213 0.61207 0.41756 0.0
N506 N 0.58457 0.67186 0.36982 0.0
N507 N 0.6534 0.5555 0.4603 0.0
H508 H 0.72055 0.62344 0.39783 0.0
H509 H 0.71757 0.58989 0.4365 0.0
H510 H 0.63675 0.53752 0.47893 0.0
H511 H 0.68065 0.54357 0.45298 0.0
H512 H 0.55407 0.67473 0.36767 0.0
H513 H 0.59997 0.68596 0.34722 0.0
H514 H 0.52997 0.66582 0.42334 0.0
H515 H 0.52657 0.62854 0.45849 0.0
C516 C 0.11069 0.41616 0.17089 0.0
C517 C 0.14562 0.40349 0.15169 0.0
C518 C 0.12169 0.43221 0.0899 0.0
C519 C 0.08836 0.44747 0.10986 0.0
N520 N 0.05838 0.4643 0.17193 0.0
N521 N 0.18931 0.4106 0.09608 0.0
C522 C 0.08529 0.44289 0.15126 0.0
C523 C 0.1528 0.41533 0.11222 0.0
N524 N 0.10007 0.40084 0.20659 0.0
N525 N 0.12261 0.43093 0.04973 0.0
H526 H 0.21303 0.39922 0.11203 0.0
H527 H 0.19686 0.4219 0.06851 0.0
H528 H 0.09957 0.44083 0.03199 0.0
H529 H 0.14465 0.4164 0.0342 0.0
H530 H 0.07287 0.40649 0.21963 0.0
H531 H 0.11625 0.37933 0.22126 0.0
H532 H 0.05736 0.46442 0.20262 0.0
H533 H 0.04022 0.48523 0.15865 0.0
C534 C 0.64457 0.1029 0.89441 0.0
C535 C 0.64876 0.14359 0.90249 0.0
C536 C 0.59952 0.13802 0.95498 0.0
C537 C 0.59057 0.09941 0.94219 0.0
N538 N 0.60278 0.04497 0.89863 0.0
N539 N 0.62877 0.20108 0.93892 0.0
C540 C 0.61299 0.08151 0.91196 0.0
C541 C 0.62621 0.16142 0.93275 0.0
N542 N 0.67099 0.0848 0.87021 0.0
N543 N 0.58275 0.15207 0.9887 0.0
H544 H 0.64826 0.21934 0.92367 0.0
H545 H 0.60964 0.21642 0.95721 0.0
H546 H 0.5632 0.13545 0.00571 0.0
H547 H 0.59104 0.17851 0.00179 0.0
H548 H 0.672 0.05445 0.86626 0.0
H549 H 0.69429 0.09991 0.85691 0.0
H550 H 0.61522 0.03206 0.87384 0.0
H551 H 0.58007 0.02834 0.91109 0.0
C552 C 0.91587 0.8822 0.42838 0.0
C553 C 0.89263 0.89995 0.39842 0.0
C554 C 0.92719 0.96269 0.40827 0.0
C555 C 0.95 0.94494 0.43846 0.0
N556 N 0.95914 0.89171 0.4845 0.0
N557 N 0.86933 0.95859 0.36617 0.0
C558 C 0.94206 0.90589 0.45084 0.0
C559 C 0.89607 0.9408 0.39045 0.0
N560 N 0.91438 0.84239 0.43411 0.0
N561 N 0.93652 0.99967 0.39538 0.0
H562 H 0.84639 0.94314 0.35262 0.0
H563 H 0.86772 0.98893 0.36227 0.0
H564 H 0.95895 0.01653 0.40805 0.0
H565 H 0.92374 0.01273 0.37073 0.0
H566 H 0.93406 0.82726 0.45215 0.0
H567 H 0.89532 0.82386 0.41866 0.0
H568 H 0.95141 0.86492 0.49731 0.0
H569 H 0.97835 0.90841 0.5018 0.0
C570 C 0.4104 0.65874 0.609 0.0
C571 C 0.38689 0.63913 0.63758 0.0
C572 C 0.42327 0.57801 0.62647 0.0
C573 C 0.44637 0.5976 0.59762 0.0
N574 N 0.45467 0.65257 0.55345 0.0
N575 N 0.364 0.57854 0.66651 0.0
C576 C 0.43757 0.63673 0.58634 0.0
C577 C 0.39105 0.59813 0.64398 0.0
N578 N 0.40825 0.6987 0.60483 0.0
N579 N 0.43335 0.54102 0.63858 0.0
H580 H 0.34021 0.59272 0.67971 0.0
H581 H 0.36303 0.54802 0.66907 0.0
H582 H 0.45666 0.52536 0.6263 0.0
H583 H 0.42024 0.5268 0.66241 0.0
H584 H 0.42806 0.71502 0.58794 0.0
H585 H 0.38854 0.7161 0.62051 0.0
H586 H 0.44638 0.67952 0.54143 0.0
H587 H 0.47439 0.63702 0.53586 0.0
C588 C 0.99793 0.9338 0.6957 0.0
C589 C 0.00563 0.95835 0.72853 0.0
C590 C 0.03051 0.00999 0.68473 0.0
C591 C 0.01496 0.9889 0.65226 0.0
N592 N 0.98694 0.92962 0.62511 0.0
N593 N 0.03357 0.0174 0.75583 0.0
C594 C 0.00064 0.94993 0.65706 0.0
C595 C 0.0241 0.99546 0.72346 0.0
N596 N 0.98716 0.8955 0.70173 0.0
N597 N 0.05097 0.0441 0.67813 0.0
H598 H 0.03097 0.00645 0.78446 0.0
H599 H 0.04291 0.04655 0.75464 0.0
H600 H 0.05596 0.05503 0.6498 0.0
H601 H 0.06574 0.05975 0.69995 0.0
H602 H 0.98431 0.8749 0.67929 0.0
H603 H 0.98421 0.88335 0.7298 0.0
H604 H 0.97179 0.90303 0.62692 0.0
H605 H 0.98934 0.94019 0.59638 0.0
C606 C 0.53551 0.10669 0.19265 0.0
C607 C 0.53406 0.08125 0.22577 0.0
C608 C 0.51418 0.02644 0.18354 0.0
C609 C 0.52321 0.04984 0.15008 0.0
N610 N 0.54048 0.11256 0.12153 0.0
N611 N 0.51813 0.01846 0.25453 0.0
C612 C 0.53219 0.09042 0.15417 0.0
C613 C 0.52142 0.0417 0.22176 0.0
N614 N 0.54087 0.14614 0.19817 0.0
N615 N 0.49862 0.98962 0.17838 0.0
H616 H 0.52096 0.02959 0.28302 0.0
H617 H 0.51381 0.98817 0.25378 0.0
H618 H 0.49249 0.97814 0.15053 0.0
H619 H 0.48845 0.97185 0.20119 0.0
H620 H 0.5387 0.16694 0.17575 0.0
H621 H 0.54431 0.15854 0.22602 0.0
H622 H 0.55186 0.141 0.12256 0.0
H623 H 0.53769 0.10186 0.09294 0.0
C624 C 0.53317 0.55514 0.31952 0.0
C625 C 0.50403 0.58371 0.31088 0.0
C626 C 0.48441 0.58597 0.38007 0.0
C627 C 0.51091 0.55481 0.38792 0.0
N628 N 0.56833 0.51802 0.36987 0.0
N629 N 0.46079 0.63484 0.33349 0.0
C630 C 0.53818 0.54235 0.35913 0.0
C631 C 0.48282 0.60221 0.34155 0.0
N632 N 0.55443 0.539 0.28954 0.0
N633 N 0.45937 0.59839 0.40897 0.0
H634 H 0.45888 0.647 0.30531 0.0
H635 H 0.44722 0.6518 0.35498 0.0
H636 H 0.4612 0.58824 0.43795 0.0
H637 H 0.43603 0.6176 0.40416 0.0
H638 H 0.57307 0.51499 0.29298 0.0
H639 H 0.5523 0.54905 0.26055 0.0
H640 H 0.59111 0.50992 0.35111 0.0
H641 H 0.57228 0.50866 0.39892 0.0
C642 C 0.0139 0.49886 0.81882 0.0
C643 C 0.03212 0.46189 0.81314 0.0
C644 C 0.03878 0.45275 0.88442 0.0
C645 C 0.02427 0.49145 0.88982 0.0
N646 N 0.98761 0.54658 0.86496 0.0
N647 N 0.051 0.39884 0.83921 0.0
C648 C 0.00814 0.51283 0.85778 0.0
C649 C 0.04052 0.43705 0.84565 0.0
N650 N 0.00401 0.52123 0.78682 0.0
N651 N 0.05366 0.43233 0.91581 0.0
H652 H 0.05331 0.38698 0.81103 0.0
H653 H 0.05412 0.37803 0.86151 0.0
H654 H 0.05227 0.44256 0.94466 0.0
H655 H 0.06906 0.40605 0.91331 0.0
H656 H 0.99492 0.55037 0.78844 0.0
H657 H 0.00607 0.51071 0.75805 0.0
H658 H 0.97234 0.56224 0.84348 0.0
H659 H 0.98301 0.55714 0.89342 0.0
C660 C 0.69225 0.98053 0.9348 0.0
C661 C 0.72396 0.00149 0.95217 0.0
C662 C 0.67763 0.03688 0.9944 0.0
C663 C 0.64789 0.00992 0.98312 0.0
N664 N 0.62437 0.95834 0.94061 0.0
N665 N 0.74772 0.05218 0.99557 0.0
C666 C 0.65424 0.98294 0.95206 0.0
C667 C 0.71679 0.03113 0.98057 0.0
N668 N 0.69883 0.95799 0.90221 0.0
N669 N 0.66825 0.06745 0.0186 0.0
H670 H 0.77637 0.04945 0.98477 0.0
H671 H 0.7454 0.07123 0.01937 0.0
H672 H 0.63954 0.07189 0.0287 0.0
H673 H 0.68771 0.09004 0.02584 0.0
H674 H 0.67651 0.94452 0.886 0.0
H675 H 0.72659 0.95552 0.8893 0.0
H676 H 0.62808 0.9347 0.92159 0.0
H677 H 0.59565 0.96089 0.95132 0.0
C678 C 0.81904 0.01175 0.48244 0.0
C679 C 0.81278 0.04034 0.45263 0.0
C680 C 0.88284 0.05745 0.45259 0.0
C681 C 0.88843 0.03129 0.48465 0.0
N682 N 0.86647 0.97557 0.52227 0.0
N683 N 0.83925 0.08121 0.40104 0.0
C684 C 0.85796 0.00554 0.49681 0.0
C685 C 0.84506 0.05989 0.43471 0.0
N686 N 0.78753 0.99215 0.49817 0.0
N687 N 0.91303 0.08155 0.44091 0.0
H688 H 0.81165 0.0838 0.38768 0.0
H689 H 0.86206 0.09335 0.38446 0.0
H690 H 0.94152 0.07935 0.45238 0.0
H691 H 0.90968 0.10468 0.42106 0.0
H692 H 0.78927 0.97415 0.52294 0.0
H693 H 0.75899 0.99511 0.487 0.0
H694 H 0.84638 0.95378 0.53028 0.0
H695 H 0.89503 0.97067 0.53272 0.0
C696 C 0.22392 0.51324 0.0444 0.0
C697 C 0.2305 0.5308 0.08163 0.0
C698 C 0.15945 0.53884 0.09135 0.0
C699 C 0.1533 0.52536 0.05231 0.0
N700 N 0.1765 0.48907 0.99635 0.0
N701 N 0.20566 0.54915 0.14524 0.0
C702 C 0.18464 0.50878 0.03047 0.0
C703 C 0.19847 0.53946 0.10687 0.0
N704 N 0.25547 0.50277 0.02179 0.0
N705 N 0.12858 0.55374 0.11234 0.0
H706 H 0.23408 0.55055 0.15694 0.0
H707 H 0.18369 0.55255 0.16629 0.0
H708 H 0.09957 0.55312 0.10217 0.0
H709 H 0.13165 0.56829 0.13909 0.0
H710 H 0.25337 0.49407 0.99251 0.0
H711 H 0.2844 0.50387 0.03234 0.0
H712 H 0.19736 0.47361 0.98025 0.0
H713 H 0.14775 0.48538 0.98586 0.0
C714 C 0.34247 0.47964 0.60175 0.0
C715 C 0.31146 0.50241 0.5856 0.0
C716 C 0.35859 0.5375 0.54358 0.0
C717 C 0.38733 0.50916 0.55364 0.0
N718 N 0.40921 0.45526 0.59418 0.0
N719 N 0.28923 0.55528 0.544 0.0
C720 C 0.38026 0.48128 0.58392 0.0
C721 C 0.31945 0.53267 0.5579 0.0
N722 N 0.3354 0.45624 0.63377 0.0
N723 N 0.3689 0.56862 0.52019 0.0
H724 H 0.26066 0.55324 0.55523 0.0
H725 H 0.29199 0.57495 0.52064 0.0
H726 H 0.39756 0.57245 0.50964 0.0
H727 H 0.35032 0.59214 0.51405 0.0
H728 H 0.35735 0.44138 0.64919 0.0
H729 H 0.30778 0.45434 0.64712 0.0
H730 H 0.40473 0.4311 0.61253 0.0
H731 H 0.43784 0.4571 0.58308 0.0
C732 C 0.93663 0.69648 0.98041 0.0
C733 C 0.95317 0.72825 0.00181 0.0
C734 C 0.99476 0.6824 0.03887 0.0
C735 C 0.98435 0.65259 0.01178 0.0
N736 N 0.94379 0.629 0.9585 0.0
N737 N 0.9953 0.75231 0.05359 0.0
C738 C 0.95412 0.65873 0.98358 0.0
C739 C 0.98091 0.72134 0.03235 0.0
N740 N 0.90457 0.70275 0.95678 0.0
N741 N 0.01806 0.67323 0.07042 0.0
H742 H 0.98448 0.78083 0.05031 0.0
H743 H 0.01871 0.75016 0.07333 0.0
H744 H 0.0281 0.64466 0.0755 0.0
H745 H 0.02452 0.69273 0.09312 0.0
H746 H 0.88887 0.68032 0.94296 0.0
H747 H 0.89149 0.73031 0.95373 0.0
H748 H 0.92558 0.63272 0.93408 0.0
H749 H 0.95475 0.60049 0.96133 0.0
C750 C 0.43659 0.83978 0.05559 0.0
C751 C 0.45561 0.80892 0.03518 0.0
C752 C 0.49754 0.85674 0.00095 0.0
C753 C 0.4844 0.88586 0.02745 0.0
N754 N 0.43949 0.90763 0.07758 0.0
N755 N 0.50138 0.78703 0.98589 0.0
C756 C 0.45268 0.87833 0.0535 0.0
C757 C 0.48474 0.81722 0.00639 0.0
N758 N 0.40361 0.83187 0.07734 0.0
N759 N 0.52244 0.86711 0.97106 0.0
H760 H 0.49134 0.75807 0.98832 0.0
H761 H 0.52576 0.79028 0.9676 0.0
H762 H 0.53182 0.89609 0.96678 0.0
H763 H 0.53103 0.84806 0.94876 0.0
H764 H 0.3863 0.85341 0.09035 0.0
H765 H 0.39156 0.80369 0.07965 0.0
H766 H 0.41978 0.90321 0.10063 0.0
H767 H 0.44947 0.93663 0.07528 0.0
C768 C 0.09967 0.20004 0.56208 0.0
C769 C 0.08137 0.23121 0.54125 0.0
C770 C 0.04007 0.18392 0.50561 0.0
C771 C 0.05244 0.15441 0.53227 0.0
N772 N 0.09557 0.13215 0.58405 0.0
N773 N 0.03661 0.25383 0.49104 0.0
C774 C 0.08338 0.16161 0.55943 0.0
C775 C 0.0528 0.22335 0.51171 0.0
N776 N 0.13225 0.2075 0.58466 0.0
N777 N 0.01599 0.17399 0.47488 0.0
H778 H 0.04654 0.28276 0.49397 0.0
H779 H 0.01257 0.25083 0.47218 0.0
H780 H 0.00669 0.14508 0.47008 0.0
H781 H 0.00809 0.19335 0.45244 0.0
H782 H 0.14913 0.18566 0.59794 0.0
H783 H 0.14447 0.23556 0.58736 0.0
H784 H 0.11452 0.13643 0.60781 0.0
H785 H 0.08544 0.10324 0.58152 0.0
C786 C 0.60273 0.34501 0.48143 0.0
C787 C 0.58363 0.31303 0.50035 0.0
C788 C 0.54008 0.35873 0.53478 0.0
C789 C 0.5535 0.38907 0.50957 0.0
N790 N 0.59898 0.41329 0.46076 0.0
N791 N 0.53671 0.28843 0.54752 0.0
C792 C 0.58592 0.38308 0.48406 0.0
C793 C 0.55355 0.31968 0.52848 0.0
N794 N 0.63651 0.33864 0.46053 0.0
N795 N 0.51427 0.36749 0.56429 0.0
H796 H 0.54718 0.25977 0.54449 0.0
H797 H 0.51174 0.29053 0.56514 0.0
H798 H 0.50446 0.39613 0.56923 0.0
H799 H 0.5053 0.34746 0.58572 0.0
H800 H 0.65387 0.36108 0.44882 0.0
H801 H 0.6491 0.31084 0.45781 0.0
H802 H 0.61921 0.40989 0.43803 0.0
H803 H 0.58831 0.44192 0.46328 0.0
loop_
_geom_bond_atom_site_label_1
_geom_bond_atom_site_label_2
_geom_bond_distance
_geom_bond_site_symmetry_2
_ccdc_geom_bond_type
C0 C1 1.384 . S
C0 H13 0.947 . S
C0 C35 1.382 . S
C1 C0 1.384 . S
C1 C2 1.378 . S
C2 C1 1.378 . S
C2 C3 1.378 . S
C2 H14 0.952 . S
C3 C2 1.378 . S
C3 H15 0.950 . S
C3 C34 1.383 . S
H4 C23 0.947 . S
H5 C24 0.946 . S
H6 C26 0.953 . S
H7 C27 0.945 . S
H8 C29 0.952 . S
H9 C30 0.949 . S
H10 C32 0.950 . S
H11 C33 0.948 . S
H12 C35 0.951 . S
H13 C0 0.947 . S
H14 C2 0.952 . S
H15 C3 0.950 . S
N16 C19 1.382 . S
N16 C21 1.363 . S
N17 C19 1.371 . S
N17 C20 1.372 . S
N18 C20 1.361 . S
N18 C21 1.377 . S
C19 N16 1.382 . S
C19 N17 1.371 . S
C19 C22 1.480 . S
C20 N17 1.372 . S
C20 N18 1.361 . S
C20 C28 1.457 . S
C21 N16 1.363 . S
C21 N18 1.377 . S
C21 C34 1.479 . S
C22 C19 1.480 . S
C22 C23 1.383 . S
C22 C27 1.385 . S
C23 H4 0.947 . S
C23 C22 1.383 . S
C23 C24 1.388 . S
C24 H5 0.946 . S
C24 C23 1.388 . S
C24 C25 1.384 . S
C25 C24 1.384 . S
C25 C26 1.377 . S
C26 H6 0.953 . S
C26 C25 1.377 . S
C26 C27 1.369 . S
C27 H7 0.945 . S
C27 C22 1.385 . S
C27 C26 1.369 . S
C28 C20 1.457 . S
C28 C29 1.372 . S
C28 C33 1.364 . S
C29 H8 0.952 . S
C29 C28 1.372 . S
C29 C30 1.389 . S
C30 H9 0.949 . S
C30 C29 1.389 . S
C30 C31 1.387 . S
C31 C30 1.387 . S
C31 C32 1.372 . S
C32 H10 0.950 . S
C32 C31 1.372 . S
C32 C33 1.379 . S
C33 H11 0.948 . S
C33 C28 1.364 . S
C33 C32 1.379 . S
C34 C3 1.383 . S
C34 C21 1.479 . S
C34 C35 1.398 . S
C35 C0 1.382 . S
C35 H12 0.951 . S
C35 C34 1.398 . S
C36 C37 1.384 . S
C36 H49 0.947 . S
C36 C71 1.382 . S
C37 C36 1.384 . S
C37 C38 1.378 . S
C38 C37 1.378 . S
C38 C39 1.378 . S
C38 H50 0.952 . S
C39 C38 1.378 . S
C39 H51 0.950 . S
C39 C70 1.383 . S
H40 C59 0.947 . S
H41 C60 0.946 . S
H42 C62 0.953 . S
H43 C63 0.945 . S
H44 C65 0.952 . S
H45 C66 0.949 . S
H46 C68 0.950 . S
H47 C69 0.948 . S
H48 C71 0.951 . S
H49 C36 0.947 . S
H50 C38 0.952 . S
H51 C39 0.950 . S
N52 C55 1.382 . S
N52 C57 1.363 . S
N53 C55 1.371 . S
N53 C56 1.372 . S
N54 C56 1.361 . S
N54 C57 1.377 . S
C55 N52 1.382 . S
C55 N53 1.371 . S
C55 C58 1.480 . S
C56 N53 1.372 . S
C56 N54 1.361 . S
C56 C64 1.457 . S
C57 N52 1.363 . S
C57 N54 1.377 . S
C57 C70 1.479 . S
C58 C55 1.480 . S
C58 C59 1.383 . S
C58 C63 1.385 . S
C59 H40 0.947 . S
C59 C58 1.383 . S
C59 C60 1.388 . S
C60 H41 0.946 . S
C60 C59 1.388 . S
C60 C61 1.384 . S
C61 C60 1.384 . S
C61 C62 1.377 . S
C62 H42 0.953 . S
C62 C61 1.377 . S
C62 C63 1.369 . S
C63 H43 0.945 . S
C63 C58 1.385 . S
C63 C62 1.369 . S
C64 C56 1.457 . S
C64 C65 1.372 . S
C64 C69 1.364 . S
C65 H44 0.952 . S
C65 C64 1.372 . S
C65 C66 1.389 . S
C66 H45 0.949 . S
C66 C65 1.389 . S
C66 C67 1.387 . S
C67 C66 1.387 . S
C67 C68 1.372 . S
C68 H46 0.950 . S
C68 C67 1.372 . S
C68 C69 1.379 . S
C69 H47 0.948 . S
C69 C64 1.364 . S
C69 C68 1.379 . S
C70 C39 1.383 . S
C70 C57 1.479 . S
C70 C71 1.398 . S
C71 C36 1.382 . S
C71 H48 0.951 . S
C71 C70 1.398 . S
C72 C73 1.384 . S
C72 H85 0.947 . S
C72 C107 1.382 . S
C73 C72 1.384 . S
C73 C74 1.378 . S
C74 C73 1.378 . S
C74 C75 1.378 . S
C74 H86 0.952 . S
C75 C74 1.378 . S
C75 H87 0.950 . S
C75 C106 1.383 . S
H76 C95 0.947 . S
H77 C96 0.946 . S
H78 C98 0.953 . S
H79 C99 0.945 . S
H80 C101 0.952 . S
H81 C102 0.949 . S
H82 C104 0.950 . S
H83 C105 0.948 . S
H84 C107 0.951 . S
H85 C72 0.947 . S
H86 C74 0.952 . S
H87 C75 0.950 . S
N88 C91 1.382 . S
N88 C93 1.363 . S
N89 C91 1.371 . S
N89 C92 1.372 . S
N90 C92 1.361 . S
N90 C93 1.377 . S
C91 N88 1.382 . S
C91 N89 1.371 . S
C91 C94 1.480 . S
C92 N89 1.372 . S
C92 N90 1.361 . S
C92 C100 1.457 . S
C93 N88 1.363 . S
C93 N90 1.377 . S
C93 C106 1.479 . S
C94 C91 1.480 . S
C94 C95 1.383 . S
C94 C99 1.385 . S
C95 H76 0.947 . S
C95 C94 1.383 . S
C95 C96 1.388 . S
C96 H77 0.946 . S
C96 C95 1.388 . S
C96 C97 1.384 . S
C97 C96 1.384 . S
C97 C98 1.377 . S
C98 H78 0.953 . S
C98 C97 1.377 . S
C98 C99 1.369 . S
C99 H79 0.945 . S
C99 C94 1.385 . S
C99 C98 1.369 . S
C100 C92 1.457 . S
C100 C101 1.372 . S
C100 C105 1.364 . S
C101 H80 0.952 . S
C101 C100 1.372 . S
C101 C102 1.389 . S
C102 H81 0.949 . S
C102 C101 1.389 . S
C102 C103 1.387 . S
C103 C102 1.387 . S
C103 C104 1.372 . S
C104 H82 0.950 . S
C104 C103 1.372 . S
C104 C105 1.379 . S
C105 H83 0.948 . S
C105 C100 1.364 . S
C105 C104 1.379 . S
C106 C75 1.383 . S
C106 C93 1.479 . S
C106 C107 1.398 . S
C107 C72 1.382 . S
C107 H84 0.951 . S
C107 C106 1.398 . S
C108 C109 1.384 . S
C108 H121 0.947 . S
C108 C143 1.382 . S
C109 C108 1.384 . S
C109 C110 1.378 . S
C110 C109 1.378 . S
C110 C111 1.378 . S
C110 H122 0.952 . S
C111 C110 1.378 . S
C111 H123 0.950 . S
C111 C142 1.383 . S
H112 C131 0.947 . S
H113 C132 0.946 . S
H114 C134 0.953 . S
H115 C135 0.945 . S
H116 C137 0.952 . S
H117 C138 0.949 . S
H118 C140 0.950 . S
H119 C141 0.948 . S
H120 C143 0.951 . S
H121 C108 0.947 . S
H122 C110 0.952 . S
H123 C111 0.950 . S
N124 C127 1.382 . S
N124 C129 1.363 . S
N125 C127 1.371 . S
N125 C128 1.372 . S
N126 C128 1.361 . S
N126 C129 1.377 . S
C127 N124 1.382 . S
C127 N125 1.371 . S
C127 C130 1.480 . S
C128 N125 1.372 . S
C128 N126 1.361 . S
C128 C136 1.457 . S
C129 N124 1.363 . S
C129 N126 1.377 . S
C129 C142 1.479 . S
C130 C127 1.480 . S
C130 C131 1.383 . S
C130 C135 1.385 . S
C131 H112 0.947 . S
C131 C130 1.383 . S
C131 C132 1.388 . S
C132 H113 0.946 . S
C132 C131 1.388 . S
C132 C133 1.384 . S
C133 C132 1.384 . S
C133 C134 1.377 . S
C134 H114 0.953 . S
C134 C133 1.377 . S
C134 C135 1.369 . S
C135 H115 0.945 . S
C135 C130 1.385 . S
C135 C134 1.369 . S
C136 C128 1.457 . S
C136 C137 1.372 . S
C136 C141 1.364 . S
C137 H116 0.952 . S
C137 C136 1.372 . S
C137 C138 1.389 . S
C138 H117 0.949 . S
C138 C137 1.389 . S
C138 C139 1.387 . S
C139 C138 1.387 . S
C139 C140 1.372 . S
C140 H118 0.950 . S
C140 C139 1.372 . S
C140 C141 1.379 . S
C141 H119 0.948 . S
C141 C136 1.364 . S
C141 C140 1.379 . S
C142 C111 1.383 . S
C142 C129 1.479 . S
C142 C143 1.398 . S
C143 C108 1.382 . S
C143 H120 0.951 . S
C143 C142 1.398 . S
C144 C145 1.384 1_546 S
C144 H157 0.947 . S
C144 C179 1.382 1_545 S
C145 C144 1.384 1_564 S
C145 C146 1.378 . S
C146 C145 1.378 . S
C146 C147 1.378 . S
C146 H158 0.952 . S
C147 C146 1.378 . S
C147 H159 0.950 . S
C147 C178 1.383 1_554 S
H148 C167 0.947 1_554 S
H149 C168 0.946 . S
H150 C170 0.953 . S
H151 C171 0.945 . S
H152 C173 0.952 1_455 S
H153 C174 0.949 . S
H154 C176 0.950 . S
H155 C177 0.948 . S
H156 C179 0.951 1_545 S
H157 C144 0.947 . S
H158 C146 0.952 . S
H159 C147 0.950 . S
N160 C163 1.382 . S
N160 C165 1.363 . S
N161 C163 1.371 . S
N161 C164 1.372 . S
N162 C164 1.361 . S
N162 C165 1.377 . S
C163 N160 1.382 . S
C163 N161 1.371 . S
C163 C166 1.480 . S
C164 N161 1.372 . S
C164 N162 1.361 . S
C164 C172 1.457 . S
C165 N160 1.363 . S
C165 N162 1.377 . S
C165 C178 1.479 . S
C166 C163 1.480 . S
C166 C167 1.383 . S
C166 C171 1.385 1_655 S
C167 H148 0.947 1_556 S
C167 C166 1.383 . S
C167 C168 1.388 1_556 S
C168 H149 0.946 . S
C168 C167 1.388 1_554 S
C168 C169 1.384 1_654 S
C169 C168 1.384 1_456 S
C169 C170 1.377 . S
C170 H150 0.953 . S
C170 C169 1.377 . S
C170 C171 1.369 . S
C171 H151 0.945 . S
C171 C166 1.385 1_455 S
C171 C170 1.369 . S
C172 C164 1.457 . S
C172 C173 1.372 . S
C172 C177 1.364 1_565 S
C173 H152 0.952 1_655 S
C173 C172 1.372 . S
C173 C174 1.389 1_655 S
C174 H153 0.949 . S
C174 C173 1.389 1_455 S
C174 C175 1.387 1_465 S
C175 C174 1.387 1_645 S
C175 C176 1.372 . S
C176 H154 0.950 . S
C176 C175 1.372 . S
C176 C177 1.379 . S
C177 H155 0.948 . S
C177 C172 1.364 1_545 S
C177 C176 1.379 . S
C178 C147 1.383 1_556 S
C178 C165 1.479 . S
C178 C179 1.398 . S
C179 C144 1.382 1_565 S
C179 H156 0.951 1_565 S
C179 C178 1.398 . S
C180 C181 1.384 . S
C180 H193 0.936 1_545 S
C180 C215 1.382 . S
C181 C180 1.384 . S
C181 C182 1.378 . S
C182 C181 1.378 . S
C182 C183 1.378 . S
C182 H194 0.952 . S
C183 C182 1.378 . S
C183 H195 0.950 . S
C183 C214 1.383 . S
H184 C203 0.947 . S
H185 C204 0.946 . S
H186 C206 0.953 . S
H187 C207 0.945 . S
H188 C209 0.952 . S
H189 C210 0.949 . S
H190 C212 0.950 . S
H191 C213 0.948 . S
H192 C215 0.951 . S
H193 C180 0.936 1_565 S
H194 C182 0.952 . S
H195 C183 0.950 . S
N196 C199 1.382 . S
N196 C201 1.363 . S
N197 C199 1.371 . S
N197 C200 1.372 . S
N198 C200 1.361 . S
N198 C201 1.377 . S
C199 N196 1.382 . S
C199 N197 1.371 . S
C199 C202 1.480 . S
C200 N197 1.372 . S
C200 N198 1.361 . S
C200 C208 1.457 . S
C201 N196 1.363 . S
C201 N198 1.377 . S
C201 C214 1.479 . S
C202 C199 1.480 . S
C202 C203 1.383 . S
C202 C207 1.385 . S
C203 H184 0.947 . S
C203 C202 1.383 . S
C203 C204 1.388 . S
C204 H185 0.946 . S
C204 C203 1.388 . S
C204 C205 1.384 . S
C205 C204 1.384 . S
C205 C206 1.377 . S
C206 H186 0.953 . S
C206 C205 1.377 . S
C206 C207 1.369 . S
C207 H187 0.945 . S
C207 C202 1.385 . S
C207 C206 1.369 . S
C208 C200 1.457 . S
C208 C209 1.372 . S
C208 C213 1.364 . S
C209 H188 0.952 . S
C209 C208 1.372 . S
C209 C210 1.389 . S
C210 H189 0.949 . S
C210 C209 1.389 . S
C210 C211 1.387 . S
C211 C210 1.387 . S
C211 C212 1.372 . S
C212 H190 0.950 . S
C212 C211 1.372 . S
C212 C213 1.379 . S
C213 H191 0.948 . S
C213 C208 1.364 . S
C213 C212 1.379 . S
C214 C183 1.383 . S
C214 C201 1.479 . S
C214 C215 1.398 . S
C215 C180 1.382 . S
C215 H192 0.951 . S
C215 C214 1.398 . S
C216 C217 1.384 . S
C216 H229 0.947 . S
C216 C251 1.382 . S
C217 C216 1.384 . S
C217 C218 1.378 . S
C218 C217 1.378 . S
C218 C219 1.378 . S
C218 H230 0.952 1_554 S
C219 C218 1.378 . S
C219 H231 0.950 . S
C219 C250 1.383 . S
H220 C239 0.947 . S
H221 C240 0.946 . S
H222 C242 0.953 . S
H223 C243 0.945 . S
H224 C245 0.952 . S
H225 C246 0.949 . S
H226 C248 0.950 . S
H227 C249 0.948 . S
H228 C251 0.951 . S
H229 C216 0.947 . S
H230 C218 0.952 1_556 S
H231 C219 0.950 . S
N232 C235 1.382 . S
N232 C237 1.363 . S
N233 C235 1.371 . S
N233 C236 1.372 . S
N234 C236 1.361 . S
N234 C237 1.377 . S
C235 N232 1.382 . S
C235 N233 1.371 . S
C235 C238 1.480 . S
C236 N233 1.372 . S
C236 N234 1.361 . S
C236 C244 1.457 . S
C237 N232 1.363 . S
C237 N234 1.377 . S
C237 C250 1.479 . S
C238 C235 1.480 . S
C238 C239 1.383 . S
C238 C243 1.385 . S
C239 H220 0.947 . S
C239 C238 1.383 . S
C239 C240 1.388 . S
C240 H221 0.946 . S
C240 C239 1.388 . S
C240 C241 1.384 . S
C241 C240 1.384 . S
C241 C242 1.377 . S
C242 H222 0.953 . S
C242 C241 1.377 . S
C242 C243 1.369 . S
C243 H223 0.945 . S
C243 C238 1.385 . S
C243 C242 1.369 . S
C244 C236 1.457 . S
C244 C245 1.372 . S
C244 C249 1.364 . S
C245 H224 0.952 . S
C245 C244 1.372 . S
C245 C246 1.389 . S
C246 H225 0.949 . S
C246 C245 1.389 . S
C246 C247 1.387 . S
C247 C246 1.387 . S
C247 C248 1.372 . S
C248 H226 0.950 . S
C248 C247 1.372 . S
C248 C249 1.379 . S
C249 H227 0.948 . S
C249 C244 1.364 . S
C249 C248 1.379 . S
C250 C219 1.383 . S
C250 C237 1.479 . S
C250 C251 1.398 . S
C251 C216 1.382 . S
C251 H228 0.951 . S
C251 C250 1.398 . S
C252 C253 1.384 . S
C252 H265 0.947 . S
C252 C287 1.382 . S
C253 C252 1.384 . S
C253 C254 1.378 . S
C254 C253 1.378 . S
C254 C255 1.378 . S
C254 H266 0.952 1_455 S
C255 C254 1.378 . S
C255 H267 0.950 . S
C255 C286 1.383 . S
H256 C275 0.947 . S
H257 C276 0.946 . S
H258 C278 0.953 . S
H259 C279 0.945 . S
H260 C281 0.952 . S
H261 C282 0.949 . S
H262 C284 0.950 . S
H263 C285 0.948 . S
H264 C287 0.951 . S
H265 C252 0.947 . S
H266 C254 0.952 1_655 S
H267 C255 0.950 . S
N268 C271 1.382 . S
N268 C273 1.363 . S
N269 C271 1.371 . S
N269 C272 1.372 . S
N270 C272 1.361 . S
N270 C273 1.377 . S
C271 N268 1.382 . S
C271 N269 1.371 . S
C271 C274 1.480 . S
C272 N269 1.372 . S
C272 N270 1.361 . S
C272 C280 1.457 . S
C273 N268 1.363 . S
C273 N270 1.377 . S
C273 C286 1.479 . S
C274 C271 1.480 . S
C274 C275 1.383 . S
C274 C279 1.385 . S
C275 H256 0.947 . S
C275 C274 1.383 . S
C275 C276 1.388 . S
C276 H257 0.946 . S
C276 C275 1.388 . S
C276 C277 1.384 . S
C277 C276 1.384 . S
C277 C278 1.377 . S
C278 H258 0.953 . S
C278 C277 1.377 . S
C278 C279 1.369 . S
C279 H259 0.945 . S
C279 C274 1.385 . S
C279 C278 1.369 . S
C280 C272 1.457 . S
C280 C281 1.372 . S
C280 C285 1.364 . S
C281 H260 0.952 . S
C281 C280 1.372 . S
C281 C282 1.389 . S
C282 H261 0.949 . S
C282 C281 1.389 . S
C282 C283 1.387 . S
C283 C282 1.387 . S
C283 C284 1.372 . S
C284 H262 0.950 . S
C284 C283 1.372 . S
C284 C285 1.379 . S
C285 H263 0.948 . S
C285 C280 1.364 . S
C285 C284 1.379 . S
C286 C255 1.383 . S
C286 C273 1.479 . S
C286 C287 1.398 . S
C287 C252 1.382 . S
C287 H264 0.951 . S
C287 C286 1.398 . S
Zn288 O294 1.920 . S
Zn288 O300 1.898 . S
Zn288 O303 1.905 . S
Zn289 O297 1.905 1_565 S
Zn289 O298 1.898 . S
Zn289 O306 1.920 . S
Zn290 O293 2.080 1_455 S
Zn290 O296 2.114 . S
Zn290 O299 2.120 1_445 S
Zn290 O301 2.120 . S
Zn290 O302 2.114 1_455 S
Zn290 O305 2.080 . S
C291 O296 1.166 . S
C291 O297 1.182 . S
C292 O298 1.167 1_655 S
C292 O299 1.299 . S
O293 Zn290 2.080 1_655 S
O293 C307 1.305 . S
O294 Zn288 1.920 . S
O294 C307 1.234 . S
C295 O300 1.167 1_455 S
C295 O301 1.299 . S
O296 Zn290 2.114 . S
O296 C291 1.166 . S
O297 Zn289 1.905 1_545 S
O297 C291 1.182 . S
O298 Zn289 1.898 . S
O298 C292 1.167 1_455 S
O299 Zn290 2.120 1_665 S
O299 C292 1.299 . S
O300 Zn288 1.898 . S
O300 C295 1.167 1_655 S
O301 Zn290 2.120 . S
O301 C295 1.299 . S
O302 Zn290 2.114 1_655 S
O302 C304 1.166 . S
O303 Zn288 1.905 . S
O303 C304 1.182 . S
C304 O302 1.166 . S
C304 O303 1.182 . S
O305 Zn290 2.080 . S
O305 C308 1.305 1_545 S
O306 Zn289 1.920 . S
O306 C308 1.234 . S
C307 O293 1.305 . S
C307 O294 1.234 . S
C308 O305 1.305 1_565 S
C308 O306 1.234 . S
Zn309 O315 1.920 1_556 S
Zn309 O321 1.898 . S
Zn309 O324 1.905 . S
Zn310 O318 1.905 . S
Zn310 O319 1.898 . S
Zn310 O327 1.920 . S
Zn311 O314 2.080 . S
Zn311 O317 2.114 1_545 S
Zn311 O320 2.120 1_545 S
Zn311 O322 2.120 . S
Zn311 O323 2.114 1_544 S
Zn311 O326 2.080 . S
C312 O317 1.166 . S
C312 O318 1.182 . S
C313 O319 1.167 . S
C313 O320 1.299 . S
O314 Zn311 2.080 . S
O314 C328 1.305 . S
O315 Zn309 1.920 1_554 S
O315 C328 1.234 . S
C316 O321 1.167 . S
C316 O322 1.299 1_556 S
O317 Zn311 2.114 1_565 S
O317 C312 1.166 . S
O318 Zn310 1.905 . S
O318 C312 1.182 . S
O319 Zn310 1.898 . S
O319 C313 1.167 . S
O320 Zn311 2.120 1_565 S
O320 C313 1.299 . S
O321 Zn309 1.898 . S
O321 C316 1.167 . S
O322 Zn311 2.120 . S
O322 C316 1.299 1_554 S
O323 Zn311 2.114 1_566 S
O323 C325 1.166 . S
O324 Zn309 1.905 . S
O324 C325 1.182 1_545 S
C325 O323 1.166 . S
C325 O324 1.182 1_565 S
O326 Zn311 2.080 . S
O326 C329 1.305 . S
O327 Zn310 1.920 . S
O327 C329 1.234 1_565 S
C328 O314 1.305 . S
C328 O315 1.234 . S
C329 O326 1.305 . S
C329 O327 1.234 1_545 S
Zn330 O336 1.920 . S
Zn330 O342 1.898 . S
Zn330 O345 1.905 . S
Zn331 O339 1.905 . S
Zn331 O340 1.898 . S
Zn331 O348 1.920 . S
Zn332 O335 2.080 . S
Zn332 O338 2.114 . S
Zn332 O341 2.120 . S
Zn332 O343 2.120 . S
Zn332 O344 2.114 . S
Zn332 O347 2.080 . S
C333 O338 1.166 . S
C333 O339 1.182 . S
C334 O340 1.167 . S
C334 O341 1.299 . S
O335 Zn332 2.080 . S
O335 C349 1.305 . S
O336 Zn330 1.920 . S
O336 C349 1.234 . S
C337 O342 1.167 . S
C337 O343 1.299 . S
O338 Zn332 2.114 . S
O338 C333 1.166 . S
O339 Zn331 1.905 . S
O339 C333 1.182 . S
O340 Zn331 1.898 . S
O340 C334 1.167 . S
O341 Zn332 2.120 . S
O341 C334 1.299 . S
O342 Zn330 1.898 . S
O342 C337 1.167 . S
O343 Zn332 2.120 . S
O343 C337 1.299 . S
O344 Zn332 2.114 . S
O344 C346 1.166 . S
O345 Zn330 1.905 . S
O345 C346 1.182 . S
C346 O344 1.166 . S
C346 O345 1.182 . S
O347 Zn332 2.080 . S
O347 C350 1.305 . S
O348 Zn331 1.920 . S
O348 C350 1.234 . S
C349 O335 1.305 . S
C349 O336 1.234 . S
C350 O347 1.305 . S
C350 O348 1.234 . S
Zn351 O357 1.920 . S
Zn351 O363 1.898 . S
Zn351 O366 1.905 . S
Zn352 O360 1.905 1_655 S
Zn352 O361 1.898 . S
Zn352 O369 1.920 . S
Zn353 O356 2.080 1_554 S
Zn353 O359 2.114 . S
Zn353 O362 2.120 1_454 S
Zn353 O364 2.120 . S
Zn353 O365 2.114 1_554 S
Zn353 O368 2.080 . S
C354 O359 1.166 . S
C354 O360 1.182 . S
C355 O361 1.167 1_556 S
C355 O362 1.299 . S
O356 Zn353 2.080 1_556 S
O356 C370 1.305 . S
O357 Zn351 1.920 . S
O357 C370 1.234 . S
C358 O363 1.167 1_554 S
C358 O364 1.299 . S
O359 Zn353 2.114 . S
O359 C354 1.166 . S
O360 Zn352 1.905 1_455 S
O360 C354 1.182 . S
O361 Zn352 1.898 . S
O361 C355 1.167 1_554 S
O362 Zn353 2.120 1_656 S
O362 C355 1.299 . S
O363 Zn351 1.898 . S
O363 C358 1.167 1_556 S
O364 Zn353 2.120 . S
O364 C358 1.299 . S
O365 Zn353 2.114 1_556 S
O365 C367 1.166 . S
O366 Zn351 1.905 . S
O366 C367 1.182 . S
C367 O365 1.166 . S
C367 O366 1.182 . S
O368 Zn353 2.080 . S
O368 C371 1.305 1_455 S
O369 Zn352 1.920 . S
O369 C371 1.234 . S
C370 O356 1.305 . S
C370 O357 1.234 . S
C371 O368 1.305 1_655 S
C371 O369 1.234 . S
C372 C373 1.363 . S
C372 C378 1.379 . S
C372 N380 1.356 . S
C373 C372 1.363 . S
C373 C379 1.363 . S
C374 C375 1.363 . S
C374 C379 1.379 . S
C374 N381 1.356 . S
C375 C374 1.363 . S
C375 C378 1.363 . S
N376 C378 1.356 . S
N376 H388 0.984 . S
N376 H389 0.985 . S
N377 C379 1.356 . S
N377 H382 0.984 . S
N377 H383 0.985 . S
C378 C372 1.379 . S
C378 C375 1.363 . S
C378 N376 1.356 . S
C379 C373 1.363 . S
C379 C374 1.379 . S
C379 N377 1.356 . S
N380 C372 1.356 . S
N380 H386 0.984 . S
N380 H387 0.984 . S
N381 C374 1.356 . S
N381 H384 0.984 . S
N381 H385 0.985 . S
H382 N377 0.984 . S
H383 N377 0.985 . S
H384 N381 0.984 . S
H385 N381 0.985 . S
H386 N380 0.984 . S
H387 N380 0.984 . S
H388 N376 0.984 . S
H389 N376 0.985 . S
C390 C391 1.363 . S
C390 C396 1.379 . S
C390 N398 1.356 . S
C391 C390 1.363 . S
C391 C397 1.363 . S
C392 C393 1.363 . S
C392 C397 1.379 . S
C392 N399 1.356 . S
C393 C392 1.363 . S
C393 C396 1.363 . S
N394 C396 1.356 1_545 S
N394 H406 0.984 . S
N394 H407 0.985 . S
N395 C397 1.356 . S
N395 H400 0.984 . S
N395 H401 0.985 . S
C396 C390 1.379 . S
C396 C393 1.363 . S
C396 N394 1.356 1_565 S
C397 C391 1.363 . S
C397 C392 1.379 . S
C397 N395 1.356 . S
N398 C390 1.356 . S
N398 H404 0.984 . S
N398 H405 0.984 . S
N399 C392 1.356 . S
N399 H402 0.984 . S
N399 H403 0.985 . S
H400 N395 0.984 . S
H401 N395 0.985 . S
H402 N399 0.984 . S
H403 N399 0.985 . S
H404 N398 0.984 . S
H405 N398 0.984 . S
H406 N394 0.984 . S
H407 N394 0.985 . S
C408 C409 1.363 . S
C408 C414 1.379 . S
C408 N416 1.356 . S
C409 C408 1.363 . S
C409 C415 1.363 . S
C410 C411 1.363 . S
C410 C415 1.379 . S
C410 N417 1.356 . S
C411 C410 1.363 . S
C411 C414 1.363 . S
N412 C414 1.356 . S
N412 H424 0.984 . S
N412 H425 0.985 . S
N413 C415 1.356 . S
N413 H418 0.984 . S
N413 H419 0.985 . S
C414 C408 1.379 . S
C414 C411 1.363 . S
C414 N412 1.356 . S
C415 C409 1.363 . S
C415 C410 1.379 . S
C415 N413 1.356 . S
N416 C408 1.356 . S
N416 H422 0.984 . S
N416 H423 0.984 . S
N417 C410 1.356 . S
N417 H420 0.984 . S
N417 H421 0.985 . S
H418 N413 0.984 . S
H419 N413 0.985 . S
H420 N417 0.984 . S
H421 N417 0.985 . S
H422 N416 0.984 . S
H423 N416 0.984 . S
H424 N412 0.984 . S
H425 N412 0.985 . S
C426 C427 1.363 . S
C426 C432 1.379 . S
C426 N434 1.356 . S
C427 C426 1.363 . S
C427 C433 1.363 . S
C428 C429 1.363 . S
C428 C433 1.379 . S
C428 N435 1.356 . S
C429 C428 1.363 . S
C429 C432 1.363 . S
N430 C432 1.356 . S
N430 H442 0.984 . S
N430 H443 0.985 . S
N431 C433 1.356 . S
N431 H436 0.984 . S
N431 H437 0.985 . S
C432 C426 1.379 . S
C432 C429 1.363 . S
C432 N430 1.356 . S
C433 C427 1.363 . S
C433 C428 1.379 . S
C433 N431 1.356 . S
N434 C426 1.356 . S
N434 H440 0.984 . S
N434 H441 0.984 . S
N435 C428 1.356 . S
N435 H438 0.984 1_655 S
N435 H439 0.985 1_655 S
H436 N431 0.984 . S
H437 N431 0.985 . S
H438 N435 0.984 1_455 S
H439 N435 0.985 1_455 S
H440 N434 0.984 . S
H441 N434 0.984 . S
H442 N430 0.984 . S
H443 N430 0.985 . S
C444 C445 1.363 . S
C444 C450 1.379 . S
C444 N452 1.356 . S
C445 C444 1.363 . S
C445 C451 1.363 . S
C446 C447 1.363 . S
C446 C451 1.379 . S
C446 N453 1.356 . S
C447 C446 1.363 . S
C447 C450 1.363 . S
N448 C450 1.356 . S
N448 H460 0.966 1_554 S
N448 H461 0.985 . S
N449 C451 1.356 . S
N449 H454 0.984 . S
N449 H455 0.985 . S
C450 C444 1.379 . S
C450 C447 1.363 . S
C450 N448 1.356 . S
C451 C445 1.363 . S
C451 C446 1.379 . S
C451 N449 1.356 . S
N452 C444 1.356 . S
N452 H458 0.984 . S
N452 H459 0.984 . S
N453 C446 1.356 . S
N453 H456 0.984 . S
N453 H457 0.985 . S
H454 N449 0.984 . S
H455 N449 0.985 . S
H456 N453 0.984 . S
H457 N453 0.985 . S
H458 N452 0.984 . S
H459 N452 0.984 . S
H460 N448 0.966 1_556 S
H461 N448 0.985 . S
C462 C463 1.363 . S
C462 C468 1.379 . S
C462 N470 1.356 . S
C463 C462 1.363 . S
C463 C469 1.363 . S
C464 C465 1.363 . S
C464 C469 1.379 . S
C464 N471 1.356 . S
C465 C464 1.363 . S
C465 C468 1.363 . S
N466 C468 1.356 1_545 S
N466 H478 0.984 . S
N466 H479 0.985 . S
N467 C469 1.356 . S
N467 H472 0.984 . S
N467 H473 0.985 . S
C468 C462 1.379 . S
C468 C465 1.363 . S
C468 N466 1.356 1_565 S
C469 C463 1.363 . S
C469 C464 1.379 . S
C469 N467 1.356 . S
N470 C462 1.356 . S
N470 H476 0.984 . S
N470 H477 0.984 . S
N471 C464 1.356 . S
N471 H474 0.984 . S
N471 H475 0.985 . S
H472 N467 0.984 . S
H473 N467 0.985 . S
H474 N471 0.984 . S
H475 N471 0.985 . S
H476 N470 0.984 . S
H477 N470 0.984 . S
H478 N466 0.984 . S
H479 N466 0.985 . S
C480 C481 1.363 . S
C480 C486 1.379 . S
C480 N488 1.356 . S
C481 C480 1.363 . S
C481 C487 1.363 . S
C482 C483 1.363 . S
C482 C487 1.379 . S
C482 N489 1.356 1_556 S
C483 C482 1.363 . S
C483 C486 1.363 . S
N484 C486 1.356 . S
N484 H496 0.984 . S
N484 H497 0.985 . S
N485 C487 1.356 . S
N485 H490 0.984 . S
N485 H491 0.985 . S
C486 C480 1.379 . S
C486 C483 1.363 . S
C486 N484 1.356 . S
C487 C481 1.363 . S
C487 C482 1.379 . S
C487 N485 1.356 . S
N488 C480 1.356 . S
N488 H494 0.984 . S
N488 H495 0.984 . S
N489 C482 1.356 1_554 S
N489 H492 0.984 . S
N489 H493 0.985 . S
H490 N485 0.984 . S
H491 N485 0.985 . S
H492 N489 0.984 . S
H493 N489 0.985 . S
H494 N488 0.984 . S
H495 N488 0.984 . S
H496 N484 0.984 . S
H497 N484 0.985 . S
C498 C499 1.363 . S
C498 C504 1.379 . S
C498 N506 1.356 . S
C499 C498 1.363 . S
C499 C505 1.363 . S
C500 C501 1.363 . S
C500 C505 1.379 . S
C500 N507 1.356 . S
C501 C500 1.363 . S
C501 C504 1.363 . S
N502 C504 1.356 . S
N502 H514 0.984 . S
N502 H515 0.985 . S
N503 C505 1.356 . S
N503 H508 0.984 . S
N503 H509 0.985 . S
C504 C498 1.379 . S
C504 C501 1.363 . S
C504 N502 1.356 . S
C505 C499 1.363 . S
C505 C500 1.379 . S
C505 N503 1.356 . S
N506 C498 1.356 . S
N506 H512 0.984 . S
N506 H513 0.984 . S
N507 C500 1.356 . S
N507 H510 0.984 . S
N507 H511 0.985 . S
H508 N503 0.984 . S
H509 N503 0.985 . S
H510 N507 0.984 . S
H511 N507 0.985 . S
H512 N506 0.984 . S
H513 N506 0.984 . S
H514 N502 0.984 . S
H515 N502 0.985 . S
C516 C517 1.363 . S
C516 C522 1.379 . S
C516 N524 1.356 . S
C517 C516 1.363 . S
C517 C523 1.363 . S
C518 C519 1.363 . S
C518 C523 1.379 . S
C518 N525 1.356 . S
C519 C518 1.363 . S
C519 C522 1.363 . S
N520 C522 1.356 . S
N520 H532 0.984 . S
N520 H533 0.985 . S
N521 C523 1.356 . S
N521 H526 0.984 . S
N521 H527 0.985 . S
C522 C516 1.379 . S
C522 C519 1.363 . S
C522 N520 1.356 . S
C523 C517 1.363 . S
C523 C518 1.379 . S
C523 N521 1.356 . S
N524 C516 1.356 . S
N524 H530 0.984 . S
N524 H531 0.984 . S
N525 C518 1.356 . S
N525 H528 0.984 . S
N525 H529 0.985 . S
H526 N521 0.984 . S
H527 N521 0.985 . S
H528 N525 0.984 . S
H529 N525 0.985 . S
H530 N524 0.984 . S
H531 N524 0.984 . S
H532 N520 0.984 . S
H533 N520 0.985 . S
C534 C535 1.363 . S
C534 C540 1.379 . S
C534 N542 1.356 . S
C535 C534 1.363 . S
C535 C541 1.363 . S
C536 C537 1.363 . S
C536 C541 1.379 . S
C536 N543 1.356 1_556 S
C537 C536 1.363 . S
C537 C540 1.363 . S
N538 C540 1.356 . S
N538 H550 0.984 . S
N538 H551 0.985 . S
N539 C541 1.356 . S
N539 H544 0.984 . S
N539 H545 0.985 1_556 S
C540 C534 1.379 . S
C540 C537 1.363 . S
C540 N538 1.356 . S
C541 C535 1.363 . S
C541 C536 1.379 . S
C541 N539 1.356 . S
N542 C534 1.356 . S
N542 H548 0.984 . S
N542 H549 0.984 . S
N543 C536 1.356 1_554 S
N543 H546 0.984 . S
N543 H547 0.985 . S
H544 N539 0.984 . S
H545 N539 0.985 1_554 S
H546 N543 0.984 . S
H547 N543 0.985 . S
H548 N542 0.984 . S
H549 N542 0.984 . S
H550 N538 0.984 . S
H551 N538 0.985 . S
C552 C553 1.363 . S
C552 C558 1.379 . S
C552 N560 1.356 . S
C553 C552 1.363 . S
C553 C559 1.363 . S
C554 C555 1.363 . S
C554 C559 1.379 . S
C554 N561 1.356 . S
C555 C554 1.363 . S
C555 C558 1.363 . S
N556 C558 1.356 . S
N556 H568 0.984 . S
N556 H569 0.985 . S
N557 C559 1.356 . S
N557 H562 0.984 . S
N557 H563 0.985 . S
C558 C552 1.379 . S
C558 C555 1.363 . S
C558 N556 1.356 . S
C559 C553 1.363 . S
C559 C554 1.379 . S
C559 N557 1.356 . S
N560 C552 1.356 . S
N560 H566 0.984 . S
N560 H567 0.984 . S
N561 C554 1.356 . S
N561 H564 0.984 . S
N561 H565 0.985 . S
H562 N557 0.984 . S
H563 N557 0.985 . S
H564 N561 0.984 . S
H565 N561 0.985 . S
H566 N560 0.984 . S
H567 N560 0.984 . S
H568 N556 0.984 . S
H569 N556 0.985 . S
C570 C571 1.363 . S
C570 C576 1.379 . S
C570 N578 1.356 . S
C571 C570 1.363 . S
C571 C577 1.363 . S
C572 C573 1.363 . S
C572 C577 1.379 . S
C572 N579 1.356 . S
C573 C572 1.363 . S
C573 C576 1.363 . S
N574 C576 1.356 . S
N574 H586 0.984 . S
N574 H587 0.985 . S
N575 C577 1.356 . S
N575 H580 0.984 . S
N575 H581 0.985 . S
C576 C570 1.379 . S
C576 C573 1.363 . S
C576 N574 1.356 . S
C577 C571 1.363 . S
C577 C572 1.379 . S
C577 N575 1.356 . S
N578 C570 1.356 . S
N578 H584 0.984 . S
N578 H585 0.984 . S
N579 C572 1.356 . S
N579 H582 0.984 . S
N579 H583 0.985 . S
H580 N575 0.984 . S
H581 N575 0.985 . S
H582 N579 0.984 . S
H583 N579 0.985 . S
H584 N578 0.984 . S
H585 N578 0.984 . S
H586 N574 0.984 . S
H587 N574 0.985 . S
C588 C589 1.363 1_465 S
C588 C594 1.379 . S
C588 N596 1.356 . S
C589 C588 1.363 1_645 S
C589 C595 1.363 . S
C590 C591 1.363 . S
C590 C595 1.379 . S
C590 N597 1.356 . S
C591 C590 1.363 . S
C591 C594 1.363 1_645 S
N592 C594 1.356 . S
N592 H604 0.984 . S
N592 H605 0.985 . S
N593 C595 1.356 . S
N593 H598 0.984 . S
N593 H599 0.985 . S
C594 C588 1.379 . S
C594 C591 1.363 1_465 S
C594 N592 1.356 . S
C595 C589 1.363 . S
C595 C590 1.379 . S
C595 N593 1.356 . S
N596 C588 1.356 . S
N596 H602 0.984 . S
N596 H603 0.984 . S
N597 C590 1.356 . S
N597 H600 0.984 . S
N597 H601 0.985 . S
H598 N593 0.984 . S
H599 N593 0.985 . S
H600 N597 0.984 . S
H601 N597 0.985 . S
H602 N596 0.984 . S
H603 N596 0.984 . S
H604 N592 0.984 . S
H605 N592 0.985 . S
C606 C607 1.363 . S
C606 C612 1.379 . S
C606 N614 1.356 . S
C607 C606 1.363 . S
C607 C613 1.358 1_545 S
C608 C609 1.360 1_565 S
C608 C613 1.379 . S
C608 N615 1.359 . S
C609 C608 1.360 1_545 S
C609 C612 1.363 . S
N610 C612 1.356 . S
N610 H622 0.984 . S
N610 H623 0.985 . S
N611 C613 1.360 . S
N611 H616 0.984 . S
N611 H617 0.985 . S
C612 C606 1.379 . S
C612 C609 1.363 . S
C612 N610 1.356 . S
C613 C607 1.358 1_565 S
C613 C608 1.379 . S
C613 N611 1.360 . S
N614 C606 1.356 . S
N614 H620 0.984 . S
N614 H621 0.984 . S
N615 C608 1.359 . S
N615 H618 0.984 . S
N615 H619 0.985 . S
H616 N611 0.984 . S
H617 N611 0.985 . S
H618 N615 0.984 . S
H619 N615 0.985 . S
H620 N614 0.984 . S
H621 N614 0.984 . S
H622 N610 0.984 . S
H623 N610 0.985 . S
C624 C625 1.363 . S
C624 C630 1.379 . S
C624 N632 1.356 . S
C625 C624 1.363 . S
C625 C631 1.363 . S
C626 C627 1.363 . S
C626 C631 1.379 . S
C626 N633 1.356 . S
C627 C626 1.363 . S
C627 C630 1.363 . S
N628 C630 1.356 . S
N628 H640 0.984 . S
N628 H641 0.985 . S
N629 C631 1.356 . S
N629 H634 0.984 . S
N629 H635 0.985 . S
C630 C624 1.379 . S
C630 C627 1.363 . S
C630 N628 1.356 . S
C631 C625 1.363 . S
C631 C626 1.379 . S
C631 N629 1.356 . S
N632 C624 1.356 . S
N632 H638 0.984 . S
N632 H639 0.984 . S
N633 C626 1.356 . S
N633 H636 0.984 . S
N633 H637 0.985 . S
H634 N629 0.984 . S
H635 N629 0.985 . S
H636 N633 0.984 . S
H637 N633 0.985 . S
H638 N632 0.984 . S
H639 N632 0.984 . S
H640 N628 0.984 . S
H641 N628 0.985 . S
C642 C643 1.363 . S
C642 C648 1.379 . S
C642 N650 1.356 . S
C643 C642 1.363 . S
C643 C649 1.363 . S
C644 C645 1.363 . S
C644 C649 1.379 . S
C644 N651 1.356 . S
C645 C644 1.363 . S
C645 C648 1.363 . S
N646 C648 1.356 . S
N646 H658 0.984 . S
N646 H659 0.985 . S
N647 C649 1.356 . S
N647 H652 0.984 . S
N647 H653 0.985 1_455 S
C648 C642 1.379 . S
C648 C645 1.363 . S
C648 N646 1.356 . S
C649 C643 1.363 . S
C649 C644 1.379 . S
C649 N647 1.356 . S
N650 C642 1.356 . S
N650 H656 0.984 . S
N650 H657 0.984 . S
N651 C644 1.356 . S
N651 H654 0.984 . S
N651 H655 0.985 1_455 S
H652 N647 0.984 . S
H653 N647 0.985 1_655 S
H654 N651 0.984 . S
H655 N651 0.985 1_655 S
H656 N650 0.984 . S
H657 N650 0.984 . S
H658 N646 0.984 . S
H659 N646 0.985 . S
C660 C661 1.349 1_546 S
C660 C666 1.379 . S
C660 N668 1.356 . S
C661 C660 1.349 1_564 S
C661 C667 1.380 . S
C662 C663 1.363 . S
C662 C667 1.379 . S
C662 N669 1.356 . S
C663 C662 1.363 . S
C663 C666 1.363 1_564 S
N664 C666 1.356 . S
N664 H676 0.984 . S
N664 H677 0.985 . S
N665 C667 1.356 . S
N665 H670 0.984 . S
N665 H671 0.985 . S
C666 C660 1.379 . S
C666 C663 1.363 1_546 S
C666 N664 1.356 . S
C667 C661 1.380 . S
C667 C662 1.379 . S
C667 N665 1.356 . S
N668 C660 1.356 . S
N668 H674 0.984 . S
N668 H675 0.984 . S
N669 C662 1.356 . S
N669 H672 0.984 . S
N669 H673 0.985 . S
H670 N665 0.984 . S
H671 N665 0.985 . S
H672 N669 0.984 . S
H673 N669 0.985 . S
H674 N668 0.984 . S
H675 N668 0.984 . S
H676 N664 0.984 . S
H677 N664 0.985 . S
C678 C679 1.363 . S
C678 C684 1.379 . S
C678 N686 1.356 . S
C679 C678 1.363 . S
C679 C685 1.363 . S
C680 C681 1.363 . S
C680 C685 1.379 . S
C680 N687 1.356 . S
C681 C680 1.363 . S
C681 C684 1.363 . S
N682 C684 1.356 . S
N682 H694 0.984 . S
N682 H695 0.985 . S
N683 C685 1.356 . S
N683 H688 0.984 . S
N683 H689 0.983 1_545 S
C684 C678 1.379 . S
C684 C681 1.363 . S
C684 N682 1.356 . S
C685 C679 1.363 . S
C685 C680 1.379 . S
C685 N683 1.356 . S
N686 C678 1.356 . S
N686 H692 0.984 . S
N686 H693 0.984 . S
N687 C680 1.356 . S
N687 H690 0.984 . S
N687 H691 0.985 . S
H688 N683 0.984 . S
H689 N683 0.983 1_565 S
H690 N687 0.984 . S
H691 N687 0.985 . S
H692 N686 0.984 . S
H693 N686 0.984 . S
H694 N682 0.984 . S
H695 N682 0.985 . S
C696 C697 1.349 1_556 S
C696 C702 1.378 . S
C696 N704 1.368 . S
C697 C696 1.349 1_554 S
C697 C703 1.363 . S
C698 C699 1.363 . S
C698 C703 1.379 . S
C698 N705 1.356 . S
C699 C698 1.363 . S
C699 C702 1.365 1_554 S
N700 C702 1.355 . S
N700 H712 0.984 . S
N700 H713 0.985 . S
N701 C703 1.356 . S
N701 H706 0.984 . S
N701 H707 0.985 . S
C702 C696 1.378 . S
C702 C699 1.365 1_556 S
C702 N700 1.355 . S
C703 C697 1.363 . S
C703 C698 1.379 . S
C703 N701 1.356 . S
N704 C696 1.368 . S
N704 H710 0.984 . S
N704 H711 0.984 . S
N705 C698 1.356 . S
N705 H708 0.984 . S
N705 H709 0.985 . S
H706 N701 0.984 . S
H707 N701 0.985 . S
H708 N705 0.984 . S
H709 N705 0.985 . S
H710 N704 0.984 . S
H711 N704 0.984 . S
H712 N700 0.984 . S
H713 N700 0.985 . S
C714 C715 1.363 . S
C714 C720 1.379 . S
C714 N722 1.356 . S
C715 C714 1.363 . S
C715 C721 1.363 . S
C716 C717 1.363 . S
C716 C721 1.379 . S
C716 N723 1.356 . S
C717 C716 1.363 . S
C717 C720 1.363 . S
N718 C720 1.356 . S
N718 H730 0.984 . S
N718 H731 0.985 . S
N719 C721 1.356 . S
N719 H724 0.984 . S
N719 H725 0.985 . S
C720 C714 1.379 . S
C720 C717 1.363 . S
C720 N718 1.356 . S
C721 C715 1.363 . S
C721 C716 1.379 . S
C721 N719 1.356 . S
N722 C714 1.356 . S
N722 H728 0.984 . S
N722 H729 0.984 . S
N723 C716 1.356 . S
N723 H726 0.984 . S
N723 H727 0.985 . S
H724 N719 0.984 . S
H725 N719 0.985 . S
H726 N723 0.984 . S
H727 N723 0.985 . S
H728 N722 0.984 . S
H729 N722 0.984 . S
H730 N718 0.984 . S
H731 N718 0.985 . S
C732 C733 1.376 1_655 S
C732 C738 1.379 . S
C732 N740 1.356 . S
C733 C732 1.376 1_455 S
C733 C739 1.352 1_556 S
C734 C735 1.363 1_554 S
C734 C739 1.379 . S
C734 N741 1.356 . S
C735 C734 1.363 1_556 S
C735 C738 1.363 1_455 S
N736 C738 1.356 . S
N736 H748 0.984 . S
N736 H749 0.985 . S
N737 C739 1.356 . S
N737 H742 0.984 . S
N737 H743 0.985 . S
C738 C732 1.379 . S
C738 C735 1.363 1_655 S
C738 N736 1.356 . S
C739 C733 1.352 1_554 S
C739 C734 1.379 . S
C739 N737 1.356 . S
N740 C732 1.356 . S
N740 H746 0.984 . S
N740 H747 0.984 . S
N741 C734 1.356 . S
N741 H744 0.984 . S
N741 H745 0.985 . S
H742 N737 0.984 . S
H743 N737 0.985 . S
H744 N741 0.984 . S
H745 N741 0.985 . S
H746 N740 0.984 . S
H747 N740 0.984 . S
H748 N736 0.984 . S
H749 N736 0.985 . S
C750 C751 1.363 . S
C750 C756 1.379 . S
C750 N758 1.356 . S
C751 C750 1.363 . S
C751 C757 1.363 . S
C752 C753 1.363 . S
C752 C757 1.379 . S
C752 N759 1.356 . S
C753 C752 1.363 . S
C753 C756 1.363 . S
N754 C756 1.356 . S
N754 H766 0.984 . S
N754 H767 0.985 . S
N755 C757 1.356 . S
N755 H760 0.984 . S
N755 H761 0.985 1_554 S
C756 C750 1.379 . S
C756 C753 1.363 . S
C756 N754 1.356 . S
C757 C751 1.363 . S
C757 C752 1.379 . S
C757 N755 1.356 . S
N758 C750 1.356 . S
N758 H764 0.984 . S
N758 H765 0.984 . S
N759 C752 1.356 . S
N759 H762 0.984 . S
N759 H763 0.985 . S
H760 N755 0.984 . S
H761 N755 0.985 1_556 S
H762 N759 0.984 . S
H763 N759 0.985 . S
H764 N758 0.984 . S
H765 N758 0.984 . S
H766 N754 0.984 . S
H767 N754 0.985 . S
C768 C769 1.363 . S
C768 C774 1.379 . S
C768 N776 1.356 . S
C769 C768 1.363 . S
C769 C775 1.363 . S
C770 C771 1.363 . S
C770 C775 1.379 . S
C770 N777 1.356 1_455 S
C771 C770 1.363 . S
C771 C774 1.363 . S
N772 C774 1.356 . S
N772 H784 0.984 . S
N772 H785 0.985 . S
N773 C775 1.356 1_655 S
N773 H778 0.984 . S
N773 H779 0.985 . S
C774 C768 1.379 . S
C774 C771 1.363 . S
C774 N772 1.356 . S
C775 C769 1.363 . S
C775 C770 1.379 . S
C775 N773 1.356 1_455 S
N776 C768 1.356 . S
N776 H782 0.984 . S
N776 H783 0.984 . S
N777 C770 1.356 1_655 S
N777 H780 0.984 . S
N777 H781 0.985 . S
H778 N773 0.984 . S
H779 N773 0.985 . S
H780 N777 0.984 . S
H781 N777 0.985 . S
H782 N776 0.984 . S
H783 N776 0.984 . S
H784 N772 0.984 . S
H785 N772 0.985 . S
C786 C787 1.363 . S
C786 C792 1.379 . S
C786 N794 1.356 . S
C787 C786 1.363 . S
C787 C793 1.363 . S
C788 C789 1.363 . S
C788 C793 1.379 . S
C788 N795 1.356 . S
C789 C788 1.363 . S
C789 C792 1.363 . S
N790 C792 1.356 . S
N790 H802 0.984 . S
N790 H803 0.985 . S
N791 C793 1.356 . S
N791 H796 0.984 . S
N791 H797 0.985 . S
C792 C786 1.379 . S
C792 C789 1.363 . S
C792 N790 1.356 . S
C793 C787 1.363 . S
C793 C788 1.379 . S
C793 N791 1.356 . S
N794 C786 1.356 . S
N794 H800 0.984 . S
N794 H801 0.984 . S
N795 C788 1.356 . S
N795 H798 0.984 . S
N795 H799 0.985 . S
H796 N791 0.984 . S
H797 N791 0.985 . S
H798 N795 0.984 . S
H799 N795 0.985 . S
H800 N794 0.984 . S
H801 N794 0.984 . S
H802 N790 0.984 . S
H803 N790 0.985 . S
C373 C1 1.529 . S
C375 C291 1.435 . S
C391 C67 1.517 . S
C393 C325 1.423 . S
C411 C337 1.395 . S
C409 C97 1.488 . S
C427 C133 1.512 . S
C429 C371 1.421 . S
C447 C328 1.424 . S
C445 C25 1.520 . S
C465 C308 1.413 . S
C463 C37 1.508 . S
C483 C355 1.403 . S
C481 C103 1.497 . S
C501 C346 1.415 . S
C499 C109 1.509 . S
C517 C31 1.529 . S
C519 C354 1.432 . S
C537 C316 1.402 . S
C535 C73 1.495 . S
C553 C139 1.519 . S
C555 C292 1.413 . S
C571 C61 1.506 . S
C573 C349 1.408 . S
C591 C307 1.676 . S
C589 C175 1.777 . S
C607 C181 1.693 . S
C609 C329 1.662 . S
C625 C247 1.796 . S
C627 C334 1.694 . S
C643 C277 1.796 . S
C645 C367 1.702 . S
C661 C145 1.775 . S
C663 C312 1.689 . S
C681 C304 1.693 . S
C679 C211 1.709 . S
C699 C358 1.685 . S
C697 C217 1.776 . S
C717 C350 1.684 . S
C715 C283 1.783 . S
C733 C169 1.765 . S
C735 C370 1.664 . S
C753 C313 1.685 . S
C751 C241 1.790 . S
C771 C295 1.666 . S
C769 C253 1.759 . S
C787 C205 1.699 . S
C789 C333 1.691 . S
