# Generated by pormake.
# Topology ctn, (3,4)-cn, num edge types: 1
# Building blocks:
#     Node 0, Type 0, BuildingBlock: BELTOD_clean_linker_0, # of connection points: 3
#     Node 1, Type 0, BuildingBlock: BELTOD_clean_linker_0, # of connection points: 3
#     Node 2, Type 0, BuildingBlock: BELTOD_clean_linker_0, # of connection points: 3
#     Node 3, Type 0, BuildingBlock: BELTOD_clean_linker_0, # of connection points: 3
#     Node 4, Type 0, BuildingBlock: BELTOD_clean_linker_0, # of connection points: 3
#     Node 5, Type 0, BuildingBlock: BELTOD_clean_linker_0, # of connection points: 3
#     Node 6, Type 0, BuildingBlock: BELTOD_clean_linker_0, # of connection points: 3
#     Node 7, Type 0, BuildingBlock: BELTOD_clean_linker_0, # of connection points: 3
#     Node 8, Type 0, BuildingBlock: BELTOD_clean_linker_0, # of connection points: 3
#     Node 9, Type 0, BuildingBlock: BELTOD_clean_linker_0, # of connection points: 3
#     Node 10, Type 0, BuildingBlock: BELTOD_clean_linker_0, # of connection points: 3
#     Node 11, Type 0, BuildingBlock: BELTOD_clean_linker_0, # of connection points: 3
#     Node 12, Type 0, BuildingBlock: BELTOD_clean_linker_0, # of connection points: 3
#     Node 13, Type 0, BuildingBlock: BELTOD_clean_linker_0, # of connection points: 3
#     Node 14, Type 0, BuildingBlock: BELTOD_clean_linker_0, # of connection points: 3
#     Node 15, Type 0, BuildingBlock: BELTOD_clean_linker_0, # of connection points: 3
#     Node 16, Type 1, BuildingBlock: UXUYUI_clean_sbu_0, # of connection points: 4
#     Node 17, Type 1, BuildingBlock: UXUYUI_clean_sbu_0, # of connection points: 4
#     Node 18, Type 1, BuildingBlock: UXUYUI_clean_sbu_0, # of connection points: 4
#     Node 19, Type 1, BuildingBlock: UXUYUI_clean_sbu_0, # of connection points: 4
#     Node 20, Type 1, BuildingBlock: UXUYUI_clean_sbu_0, # of connection points: 4
#     Node 21, Type 1, BuildingBlock: UXUYUI_clean_sbu_0, # of connection points: 4
#     Node 22, Type 1, BuildingBlock: UXUYUI_clean_sbu_0, # of connection points: 4
#     Node 23, Type 1, BuildingBlock: UXUYUI_clean_sbu_0, # of connection points: 4
#     Node 24, Type 1, BuildingBlock: UXUYUI_clean_sbu_0, # of connection points: 4
#     Node 25, Type 1, BuildingBlock: UXUYUI_clean_sbu_0, # of connection points: 4
#     Node 26, Type 1, BuildingBlock: UXUYUI_clean_sbu_0, # of connection points: 4
#     Node 27, Type 1, BuildingBlock: UXUYUI_clean_sbu_0, # of connection points: 4
#     Edge 28, Type (0, 1), None
#     Edge 29, Type (0, 1), None
#     Edge 30, Type (0, 1), None
#     Edge 31, Type (0, 1), None
#     Edge 32, Type (0, 1), None
#     Edge 33, Type (0, 1), None
#     Edge 34, Type (0, 1), None
#     Edge 35, Type (0, 1), None
#     Edge 36, Type (0, 1), None
#     Edge 37, Type (0, 1), None
#     Edge 38, Type (0, 1), None
#     Edge 39, Type (0, 1), None
#     Edge 40, Type (0, 1), None
#     Edge 41, Type (0, 1), None
#     Edge 42, Type (0, 1), None
#     Edge 43, Type (0, 1), None
#     Edge 44, Type (0, 1), None
#     Edge 45, Type (0, 1), None
#     Edge 46, Type (0, 1), None
#     Edge 47, Type (0, 1), None
#     Edge 48, Type (0, 1), None
#     Edge 49, Type (0, 1), None
#     Edge 50, Type (0, 1), None
#     Edge 51, Type (0, 1), None
#     Edge 52, Type (0, 1), None
#     Edge 53, Type (0, 1), None
#     Edge 54, Type (0, 1), None
#     Edge 55, Type (0, 1), None
#     Edge 56, Type (0, 1), None
#     Edge 57, Type (0, 1), None
#     Edge 58, Type (0, 1), None
#     Edge 59, Type (0, 1), None
#     Edge 60, Type (0, 1), None
#     Edge 61, Type (0, 1), None
#     Edge 62, Type (0, 1), None
#     Edge 63, Type (0, 1), None
#     Edge 64, Type (0, 1), None
#     Edge 65, Type (0, 1), None
#     Edge 66, Type (0, 1), None
#     Edge 67, Type (0, 1), None
#     Edge 68, Type (0, 1), None
#     Edge 69, Type (0, 1), None
#     Edge 70, Type (0, 1), None
#     Edge 71, Type (0, 1), None
#     Edge 72, Type (0, 1), None
#     Edge 73, Type (0, 1), None
#     Edge 74, Type (0, 1), None
#     Edge 75, Type (0, 1), None
# Relax obj value: 0.001
# Max RMSD: 0.017
# Mean RMSD: 0.011
data_MOF--net-ctn--node1-UXUYUI_clean_sbu_0--node2-BELTOD_clean_linker_0--edge1-none
_symmetry_space_group_name_H-M    P1
_symmetry_Int_Tables_number       1
_symmetry_cell_setting            triclinic
loop_
_symmetry_equiv_pos_as_xyz
'x, y, z'
_cell_length_a     44.780531
_cell_length_b     45.151336
_cell_length_c     44.689801
_cell_angle_alpha  89.265237
_cell_angle_beta   90.120829
_cell_angle_gamma 90.888911
loop_
_atom_site_label
_atom_site_type_symbol
_atom_site_fract_x
_atom_site_fract_y
_atom_site_fract_z
_atom_type_partial_charge
P0 P 0.06893 0.06742 0.07022 0.0
H1 H 0.06793 0.04688 0.13201 0.0
H2 H 0.02756 0.03292 0.16624 0.0
H3 H 0.96342 0.04477 0.09487 0.0
H4 H 0.0042 0.05832 0.06051 0.0
H5 H 0.12255 0.06771 0.03401 0.0
H6 H 0.1561 0.02872 0.01832 0.0
H7 H 0.09761 0.96295 0.05935 0.0
H8 H 0.06379 0.00208 0.07432 0.0
H9 H 0.04365 0.12586 0.07358 0.0
H10 H 0.06339 0.06356 0.00433 0.0
O11 O 0.0921 0.08733 0.09159 0.0
H12 H 0.0278 0.16188 0.03581 0.0
H13 H 0.04842 0.09983 0.96621 0.0
C14 C 0.03897 0.05426 0.09396 0.0
C15 C 0.0452 0.04635 0.12368 0.0
C16 C 0.02207 0.0385 0.14326 0.0
C17 C 0.99221 0.03827 0.13342 0.0
C18 C 0.98617 0.04478 0.10314 0.0
C19 C 0.00943 0.05269 0.08353 0.0
C20 C 0.0907 0.03783 0.05528 0.0
C21 C 0.11673 0.04484 0.0392 0.0
C22 C 0.13602 0.02254 0.03049 0.0
C23 C 0.12975 0.9927 0.03788 0.0
C24 C 0.10303 0.98566 0.05312 0.0
C25 C 0.08369 0.00806 0.0618 0.0
C26 C 0.05519 0.09231 0.04174 0.0
C27 C 0.0446 0.11998 0.05018 0.0
C28 C 0.03574 0.14062 0.02853 0.0
C29 C 0.03729 0.13397 0.99791 0.0
C30 C 0.04688 0.10568 0.98958 0.0
C31 C 0.05567 0.08497 0.01135 0.0
P32 P 0.31035 0.69299 0.19914 0.0
H33 H 0.34459 0.73605 0.1642 0.0
H34 H 0.33046 0.77571 0.12953 0.0
H35 H 0.2374 0.75861 0.14973 0.0
H36 H 0.25174 0.71885 0.18434 0.0
H37 H 0.34715 0.65914 0.24016 0.0
H38 H 0.38082 0.67313 0.28084 0.0
H39 H 0.35543 0.76455 0.26947 0.0
H40 H 0.32189 0.75034 0.2286 0.0
H41 H 0.27104 0.65483 0.16468 0.0
H42 H 0.28023 0.68057 0.25687 0.0
O43 O 0.3322 0.67251 0.17772 0.0
H44 H 0.23062 0.6204 0.17846 0.0
H45 H 0.23964 0.6462 0.27087 0.0
C46 C 0.29926 0.72433 0.1766 0.0
C47 C 0.32116 0.74107 0.1614 0.0
C48 C 0.31304 0.76384 0.1417 0.0
C49 C 0.28277 0.77025 0.13675 0.0
C50 C 0.26088 0.75395 0.15275 0.0
C51 C 0.26907 0.73126 0.17263 0.0
C52 C 0.33241 0.70373 0.23109 0.0
C53 C 0.34866 0.68216 0.24662 0.0
C54 C 0.36774 0.69018 0.27002 0.0
C55 C 0.37096 0.72 0.27832 0.0
C56 C 0.35378 0.74145 0.26333 0.0
C57 C 0.33454 0.73335 0.23999 0.0
C58 C 0.27889 0.66989 0.20977 0.0
C59 C 0.26416 0.65321 0.18787 0.0
C60 C 0.24091 0.6337 0.19577 0.0
C61 C 0.23197 0.63047 0.2258 0.0
C62 C 0.24627 0.64791 0.24761 0.0
C63 C 0.26945 0.66761 0.23962 0.0
P64 P 0.98249 0.48956 0.02315 0.0
H65 H 0.98057 0.47622 0.95974 0.0
H66 H 0.98145 0.42994 0.93207 0.0
H67 H 0.98092 0.3805 0.01551 0.0
H68 H 0.97974 0.42709 0.0431 0.0
H69 H 0.96477 0.5474 0.04324 0.0
H70 H 0.91682 0.57228 0.04494 0.0
H71 H 0.87254 0.49212 0.01515 0.0
H72 H 0.92081 0.46759 0.01293 0.0
H73 H 0.04526 0.48458 0.03818 0.0
H74 H 0.96158 0.48521 0.0857 0.0
O75 O 0.00274 0.51335 0.00237 0.0
H76 H 0.07235 0.48366 0.08569 0.0
H77 H 0.98858 0.48478 0.13347 0.0
C78 C 0.98079 0.45505 0.00343 0.0
C79 C 0.9806 0.45542 0.97209 0.0
C80 C 0.98119 0.42895 0.9563 0.0
C81 C 0.98169 0.40155 0.97159 0.0
C82 C 0.98052 0.40124 0.00308 0.0
C83 C 0.98004 0.42783 0.01888 0.0
C84 C 0.94636 0.50583 0.02766 0.0
C85 C 0.94467 0.53512 0.03736 0.0
C86 C 0.91718 0.54925 0.03852 0.0
C87 C 0.89078 0.53426 0.03004 0.0
C88 C 0.89249 0.50445 0.02139 0.0
C89 C 0.92007 0.49033 0.02023 0.0
C90 C 1.00151 0.48563 0.05846 0.0
C91 C 0.03273 0.48444 0.05889 0.0
C92 C 0.04817 0.48406 0.08605 0.0
C93 C 0.03263 0.48465 0.11335 0.0
C94 C 1.0012 0.4843 0.11284 0.0
C95 C 0.98574 0.48475 0.08555 0.0
P96 P 0.68902 0.8152 0.19143 0.0
H97 H 0.72598 0.85623 0.15653 0.0
H98 H 0.76554 0.89159 0.1699 0.0
H99 H 0.75961 0.86229 0.26215 0.0
H100 H 0.72001 0.8269 0.24856 0.0
H101 H 0.65623 0.76441 0.16802 0.0
H102 H 0.67035 0.72394 0.13523 0.0
H103 H 0.76179 0.75574 0.13635 0.0
H104 H 0.74767 0.79587 0.16935 0.0
H105 H 0.6486 0.84955 0.22723 0.0
H106 H 0.68071 0.76001 0.22711 0.0
O107 O 0.66728 0.83435 0.16807 0.0
H108 H 0.61522 0.83686 0.26881 0.0
H109 H 0.64717 0.74707 0.26866 0.0
C110 C 0.71978 0.83928 0.20159 0.0
C111 C 0.73334 0.85731 0.1796 0.0
C112 C 0.75608 0.87737 0.18725 0.0
C113 C 0.76561 0.87986 0.21713 0.0
C114 C 0.75248 0.86116 0.23901 0.0
C115 C 0.72988 0.84087 0.23126 0.0
C116 C 0.70087 0.78307 0.17131 0.0
C117 C 0.67944 0.76228 0.16171 0.0
C118 C 0.68753 0.73915 0.14301 0.0
C119 C 0.71716 0.73674 0.13314 0.0
C120 C 0.73873 0.7572 0.1434 0.0
C121 C 0.73067 0.78013 0.16238 0.0
C122 C 0.66658 0.80559 0.22365 0.0
C123 C 0.64853 0.82717 0.23627 0.0
C124 C 0.62962 0.81993 0.26017 0.0
C125 C 0.6284 0.79089 0.27189 0.0
C126 C 0.6473 0.76951 0.25981 0.0
C127 C 0.66646 0.77689 0.23604 0.0
P128 P 0.062 0.94136 0.44125 0.0
H129 H 0.12165 0.93912 0.4661 0.0
H130 H 0.15736 0.97729 0.48185 0.0
H131 H 0.09123 0.04433 0.46555 0.0
H132 H 0.05535 0.0058 0.45037 0.0
H133 H 0.04638 0.87883 0.4391 0.0
H134 H 0.03238 0.84222 0.47741 0.0
H135 H 0.03559 0.91033 0.54443 0.0
H136 H 0.04943 0.94707 0.50568 0.0
H137 H 0.06069 0.97978 0.38894 0.0
H138 H 0.99626 0.93511 0.44594 0.0
O139 O 0.08273 0.92259 0.41722 0.0
H140 H 0.02063 0.99529 0.35534 0.0
H141 H 0.95604 0.95009 0.41208 0.0
C142 C 0.08611 0.96969 0.45654 0.0
C143 C 0.11475 0.96201 0.4662 0.0
C144 C 0.13519 0.98388 0.47501 0.0
C145 C 0.12733 0.01392 0.47442 0.0
C146 C 0.09799 0.0214 0.46623 0.0
C147 C 0.07751 0.99941 0.45737 0.0
C148 C 0.04963 0.91545 0.46972 0.0
C149 C 0.04408 0.88591 0.46203 0.0
C150 C 0.03615 0.86499 0.48396 0.0
C151 C 0.03334 0.87329 0.51402 0.0
C152 C 0.0376 0.90327 0.52146 0.0
C153 C 0.04568 0.92423 0.49941 0.0
C154 C 0.03149 0.95627 0.41984 0.0
C155 C 0.03785 0.97361 0.39439 0.0
C156 C 0.01495 0.98225 0.37509 0.0
C157 C 0.98518 0.97356 0.38082 0.0
C158 C 0.97871 0.95723 0.40711 0.0
C159 C 1.00173 0.94857 0.42644 0.0
P160 P 0.24185 0.74401 0.77006 0.0
H161 H 0.28862 0.76161 0.81145 0.0
H162 H 0.28817 0.78654 0.85961 0.0
H163 H 0.19163 0.78497 0.85837 0.0
H164 H 0.19233 0.76054 0.8099 0.0
H165 H 0.26695 0.70916 0.72259 0.0
H166 H 0.29079 0.66096 0.72166 0.0
H167 H 0.27441 0.64989 0.81648 0.0
H168 H 0.25095 0.69854 0.81723 0.0
H169 H 0.211 0.78738 0.73304 0.0
H170 H 0.19275 0.70003 0.76921 0.0
O171 O 0.26434 0.766 0.7496 0.0
H172 H 0.16259 0.78704 0.70799 0.0
H173 H 0.14368 0.69972 0.74479 0.0
C174 C 0.24058 0.75942 0.80701 0.0
C175 C 0.26737 0.76644 0.82169 0.0
C176 C 0.26705 0.78056 0.84932 0.0
C177 C 0.23984 0.78791 0.86285 0.0
C178 C 0.21296 0.78007 0.84837 0.0
C179 C 0.21334 0.7659 0.82069 0.0
C180 C 0.25767 0.7076 0.77003 0.0
C181 C 0.26846 0.69632 0.74317 0.0
C182 C 0.28189 0.66863 0.74265 0.0
C183 C 0.28463 0.65153 0.76903 0.0
C184 C 0.27309 0.66267 0.79586 0.0
C185 C 0.25958 0.69045 0.79631 0.0
C186 C 0.20566 0.74349 0.75242 0.0
C187 C 0.19649 0.7681 0.73561 0.0
C188 C 0.16863 0.76798 0.72153 0.0
C189 C 0.14918 0.74331 0.72429 0.0
C190 C 0.15827 0.71887 0.74178 0.0
C191 C 0.18626 0.71903 0.75582 0.0
P192 P 0.98977 0.51717 0.49727 0.0
H193 H 0.05236 0.51803 0.48021 0.0
H194 H 0.07774 0.51661 0.43196 0.0
H195 H 0.99243 0.5188 0.3867 0.0
H196 H 0.96712 0.52047 0.43527 0.0
H197 H 0.97113 0.53507 0.55621 0.0
H198 H 0.96993 0.58285 0.58103 0.0
H199 H 0.99723 0.6264 0.49858 0.0
H200 H 0.99911 0.57828 0.47416 0.0
H201 H 0.97345 0.4548 0.50381 0.0
H202 H 0.92847 0.53682 0.48549 0.0
O203 O 0.01163 0.49796 0.52049 0.0
H204 H 0.92556 0.42817 0.50378 0.0
H205 H 0.88023 0.51023 0.4855 0.0
C206 C 0.00787 0.51863 0.46131 0.0
C207 C 0.03909 0.51824 0.45992 0.0
C208 C 0.05357 0.51734 0.43232 0.0
C209 C 0.03707 0.51711 0.40552 0.0
C210 C 0.00576 0.51893 0.40695 0.0
C211 C 0.99126 0.5197 0.43469 0.0
C212 C 0.98549 0.55312 0.51351 0.0
C213 C 0.97659 0.55496 0.54343 0.0
C214 C 0.97572 0.58236 0.55753 0.0
C215 C 0.98364 0.60855 0.54188 0.0
C216 C 0.99149 0.60666 0.51145 0.0
C217 C 0.99241 0.57915 0.49738 0.0
C218 C 0.95439 0.49783 0.49531 0.0
C219 C 0.95322 0.46709 0.49983 0.0
C220 C 0.92583 0.4519 0.49989 0.0
C221 C 0.89909 0.46717 0.49504 0.0
C222 C 0.90045 0.49788 0.48929 0.0
C223 C 0.92794 0.5131 0.48945 0.0
P224 P 0.81261 0.81487 0.81365 0.0
H225 H 0.83784 0.84593 0.76182 0.0
H226 H 0.87235 0.83092 0.72256 0.0
H227 H 0.8704 0.74154 0.75811 0.0
H228 H 0.83565 0.75647 0.79694 0.0
H229 H 0.77183 0.84917 0.84879 0.0
H230 H 0.73031 0.88135 0.83574 0.0
H231 H 0.73966 0.85801 0.74281 0.0
H232 H 0.78107 0.82555 0.75611 0.0
H233 H 0.84495 0.7863 0.86221 0.0
H234 H 0.75895 0.77667 0.81961 0.0
O235 O 0.83491 0.8381 0.83237 0.0
H236 H 0.83203 0.7464 0.89736 0.0
H237 H 0.74587 0.73622 0.85458 0.0
C238 C 0.83384 0.80232 0.78212 0.0
C239 C 0.84427 0.82295 0.7607 0.0
C240 C 0.86398 0.81435 0.7383 0.0
C241 C 0.8741 0.78507 0.73733 0.0
C242 C 0.8631 0.7643 0.75844 0.0
C243 C 0.84309 0.77283 0.78059 0.0
C244 C 0.77989 0.83543 0.8034 0.0
C245 C 0.76472 0.85072 0.82565 0.0
C246 C 0.74088 0.86898 0.81817 0.0
C247 C 0.73183 0.87237 0.7882 0.0
C248 C 0.74641 0.85614 0.76604 0.0
C249 C 0.77012 0.8376 0.77363 0.0
C250 C 0.80269 0.78481 0.83876 0.0
C251 C 0.82325 0.77554 0.86045 0.0
C252 C 0.81591 0.7525 0.88035 0.0
C253 C 0.78787 0.7381 0.87884 0.0
C254 C 0.76748 0.74711 0.85661 0.0
C255 C 0.77494 0.77017 0.83658 0.0
P256 P 0.31261 0.31487 0.31365 0.0
H257 H 0.33785 0.34594 0.26182 0.0
H258 H 0.37236 0.33092 0.22257 0.0
H259 H 0.37039 0.24154 0.2581 0.0
H260 H 0.33564 0.25647 0.29694 0.0
H261 H 0.27183 0.34917 0.34879 0.0
H262 H 0.23031 0.38134 0.33574 0.0
H263 H 0.23967 0.35802 0.24281 0.0
H264 H 0.28108 0.32556 0.25611 0.0
H265 H 0.34496 0.28629 0.36221 0.0
H266 H 0.25895 0.27668 0.31962 0.0
O267 O 0.33491 0.3381 0.33237 0.0
H268 H 0.33204 0.24639 0.39735 0.0
H269 H 0.24587 0.23623 0.35459 0.0
C270 C 0.33385 0.30232 0.28212 0.0
C271 C 0.34428 0.32295 0.26071 0.0
C272 C 0.36399 0.31436 0.2383 0.0
C273 C 0.3741 0.28507 0.23734 0.0
C274 C 0.3631 0.2643 0.25844 0.0
C275 C 0.34309 0.27283 0.28059 0.0
C276 C 0.27989 0.33543 0.3034 0.0
C277 C 0.26472 0.35072 0.32565 0.0
C278 C 0.24087 0.36897 0.31817 0.0
C279 C 0.23183 0.37237 0.2882 0.0
C280 C 0.24641 0.35614 0.26604 0.0
C281 C 0.27012 0.3376 0.27363 0.0
C282 C 0.30269 0.2848 0.33876 0.0
C283 C 0.32325 0.27553 0.36044 0.0
C284 C 0.31591 0.2525 0.38035 0.0
C285 C 0.28787 0.2381 0.37884 0.0
C286 C 0.26748 0.24712 0.35662 0.0
C287 C 0.27494 0.27017 0.33659 0.0
P288 P 0.48249 0.98957 0.52314 0.0
H289 H 0.4806 0.97622 0.45974 0.0
H290 H 0.48148 0.92994 0.43207 0.0
H291 H 0.4809 0.8805 0.51551 0.0
H292 H 0.47972 0.9271 0.5431 0.0
H293 H 0.46477 0.0474 0.54325 0.0
H294 H 0.41682 0.07228 0.54494 0.0
H295 H 0.37254 0.99212 0.51513 0.0
H296 H 0.42081 0.9676 0.51292 0.0
H297 H 0.54526 0.98459 0.53818 0.0
H298 H 0.46158 0.9852 0.58569 0.0
O299 O 0.50274 0.01335 0.50236 0.0
H300 H 0.57235 0.98368 0.58568 0.0
H301 H 0.48858 0.98477 0.63346 0.0
C302 C 0.4808 0.95505 0.50342 0.0
C303 C 0.48062 0.95542 0.47208 0.0
C304 C 0.48121 0.92895 0.4563 0.0
C305 C 0.4817 0.90155 0.47159 0.0
C306 C 0.48051 0.90124 0.50307 0.0
C307 C 0.48003 0.92784 0.51888 0.0
C308 C 0.44636 0.00583 0.52765 0.0
C309 C 0.44467 0.03512 0.53736 0.0
C310 C 0.41718 0.04924 0.53852 0.0
C311 C 0.39078 0.03426 0.53003 0.0
C312 C 0.39249 0.00445 0.52137 0.0
C313 C 0.42008 0.99034 0.52022 0.0
C314 C 0.50151 0.98564 0.55846 0.0
C315 C 0.53273 0.98445 0.55889 0.0
C316 C 0.54817 0.98407 0.58605 0.0
C317 C 0.53263 0.98465 0.61335 0.0
C318 C 0.5012 0.9843 0.61283 0.0
C319 C 0.48574 0.98474 0.58554 0.0
P320 P 0.18902 0.3152 0.69143 0.0
H321 H 0.22599 0.35623 0.65653 0.0
H322 H 0.26555 0.39159 0.6699 0.0
H323 H 0.25961 0.3623 0.76215 0.0
H324 H 0.22001 0.32691 0.74856 0.0
H325 H 0.15624 0.2644 0.66802 0.0
H326 H 0.17035 0.22393 0.63523 0.0
H327 H 0.26179 0.25574 0.63635 0.0
H328 H 0.24768 0.29587 0.66935 0.0
H329 H 0.14858 0.34955 0.72722 0.0
H330 H 0.18073 0.26002 0.72712 0.0
O331 O 0.16729 0.33435 0.66807 0.0
H332 H 0.11521 0.33686 0.76879 0.0
H333 H 0.14719 0.24707 0.76867 0.0
C334 C 0.21978 0.33928 0.70159 0.0
C335 C 0.23335 0.3573 0.6796 0.0
C336 C 0.25609 0.37736 0.68725 0.0
C337 C 0.26562 0.37986 0.71713 0.0
C338 C 0.25248 0.36116 0.73902 0.0
C339 C 0.22988 0.34088 0.73126 0.0
C340 C 0.20087 0.28307 0.67131 0.0
C341 C 0.17944 0.26228 0.66172 0.0
C342 C 0.18753 0.23915 0.64302 0.0
C343 C 0.21716 0.23674 0.63315 0.0
C344 C 0.23874 0.2572 0.6434 0.0
C345 C 0.23068 0.28013 0.66239 0.0
C346 C 0.16659 0.30559 0.72365 0.0
C347 C 0.14853 0.32717 0.73626 0.0
C348 C 0.12961 0.31993 0.76016 0.0
C349 C 0.1284 0.29089 0.77189 0.0
C350 C 0.14731 0.26952 0.75981 0.0
C351 C 0.16647 0.27689 0.73605 0.0
P352 P 0.81035 0.19299 0.69914 0.0
H353 H 0.84459 0.23604 0.66419 0.0
H354 H 0.83046 0.2757 0.62952 0.0
H355 H 0.7374 0.25861 0.64973 0.0
H356 H 0.75174 0.21886 0.68434 0.0
H357 H 0.84714 0.15914 0.74016 0.0
H358 H 0.88081 0.17313 0.78085 0.0
H359 H 0.85544 0.26455 0.76946 0.0
H360 H 0.8219 0.25035 0.72859 0.0
H361 H 0.77104 0.15483 0.66468 0.0
H362 H 0.78024 0.18056 0.75687 0.0
O363 O 0.8322 0.1725 0.67772 0.0
H364 H 0.73061 0.12041 0.67846 0.0
H365 H 0.73964 0.1462 0.77087 0.0
C366 C 0.79926 0.22433 0.6766 0.0
C367 C 0.82116 0.24106 0.66139 0.0
C368 C 0.81304 0.26383 0.64169 0.0
C369 C 0.78277 0.27024 0.63675 0.0
C370 C 0.76088 0.25395 0.65275 0.0
C371 C 0.76907 0.23126 0.67263 0.0
C372 C 0.83241 0.20373 0.73109 0.0
C373 C 0.84865 0.18216 0.74662 0.0
C374 C 0.86774 0.19018 0.77002 0.0
C375 C 0.87096 0.22 0.77832 0.0
C376 C 0.85379 0.24146 0.76332 0.0
C377 C 0.83455 0.23335 0.73998 0.0
C378 C 0.77889 0.16989 0.70977 0.0
C379 C 0.76415 0.15321 0.68787 0.0
C380 C 0.7409 0.1337 0.69577 0.0
C381 C 0.73197 0.13047 0.7258 0.0
C382 C 0.74627 0.14791 0.74761 0.0
C383 C 0.76945 0.1676 0.73962 0.0
P384 P 0.56893 0.56742 0.57023 0.0
H385 H 0.56793 0.54689 0.63201 0.0
H386 H 0.52756 0.53294 0.66625 0.0
H387 H 0.46342 0.54475 0.59487 0.0
H388 H 0.50421 0.55831 0.56051 0.0
H389 H 0.62255 0.56771 0.53402 0.0
H390 H 0.6561 0.52872 0.51832 0.0
H391 H 0.59761 0.46295 0.55935 0.0
H392 H 0.56379 0.50208 0.57432 0.0
H393 H 0.54363 0.62586 0.57358 0.0
H394 H 0.56341 0.56357 0.50433 0.0
O395 O 0.5921 0.58733 0.59159 0.0
H396 H 0.52778 0.66187 0.53581 0.0
H397 H 0.54843 0.59984 0.46621 0.0
C398 C 0.53897 0.55426 0.59397 0.0
C399 C 0.5452 0.54635 0.62369 0.0
C400 C 0.52207 0.53851 0.64326 0.0
C401 C 0.49221 0.53827 0.63342 0.0
C402 C 0.48617 0.54477 0.60314 0.0
C403 C 0.50943 0.55268 0.58353 0.0
C404 C 0.59071 0.53783 0.55529 0.0
C405 C 0.61673 0.54484 0.53921 0.0
C406 C 0.63602 0.52254 0.5305 0.0
C407 C 0.62975 0.4927 0.53789 0.0
C408 C 0.60303 0.48566 0.55312 0.0
C409 C 0.58369 0.50806 0.5618 0.0
C410 C 0.55518 0.5923 0.54174 0.0
C411 C 0.54459 0.61998 0.55018 0.0
C412 C 0.53573 0.64061 0.52853 0.0
C413 C 0.53729 0.63397 0.49791 0.0
C414 C 0.54688 0.60568 0.48958 0.0
C415 C 0.55568 0.58497 0.51135 0.0
P416 P 0.562 0.44137 0.94125 0.0
H417 H 0.62166 0.43913 0.96607 0.0
H418 H 0.65737 0.47729 0.98182 0.0
H419 H 0.59123 0.54433 0.96558 0.0
H420 H 0.55534 0.5058 0.95039 0.0
H421 H 0.54638 0.37883 0.9391 0.0
H422 H 0.53239 0.34222 0.97741 0.0
H423 H 0.5356 0.41033 0.04443 0.0
H424 H 0.54944 0.44707 0.00568 0.0
H425 H 0.56069 0.4798 0.88895 0.0
H426 H 0.49626 0.4351 0.94593 0.0
O427 O 0.58273 0.42259 0.91722 0.0
H428 H 0.52062 0.49531 0.85536 0.0
H429 H 0.45604 0.45008 0.91207 0.0
C430 C 0.58611 0.46969 0.95654 0.0
C431 C 0.61476 0.46201 0.96618 0.0
C432 C 0.6352 0.48388 0.97499 0.0
C433 C 0.62733 0.51393 0.97442 0.0
C434 C 0.59799 0.5214 0.96625 0.0
C435 C 0.5775 0.49941 0.95739 0.0
C436 C 0.54963 0.41545 0.96972 0.0
C437 C 0.54408 0.38591 0.96203 0.0
C438 C 0.53615 0.36499 0.98396 0.0
C439 C 0.53334 0.37329 0.01403 0.0
C440 C 0.5376 0.40327 0.02146 0.0
C441 C 0.54568 0.42423 0.99941 0.0
C442 C 0.53149 0.45628 0.91985 0.0
C443 C 0.53785 0.47363 0.8944 0.0
C444 C 0.51494 0.48226 0.8751 0.0
C445 C 0.48518 0.47357 0.88082 0.0
C446 C 0.47871 0.45723 0.9071 0.0
C447 C 0.50173 0.44857 0.92644 0.0
P448 P 0.74185 0.24401 0.27006 0.0
H449 H 0.78862 0.2616 0.31145 0.0
H450 H 0.78817 0.28654 0.35961 0.0
H451 H 0.69163 0.28497 0.35836 0.0
H452 H 0.69233 0.26053 0.3099 0.0
H453 H 0.76694 0.20915 0.22259 0.0
H454 H 0.79078 0.16095 0.22166 0.0
H455 H 0.77442 0.14989 0.31648 0.0
H456 H 0.75096 0.19854 0.31724 0.0
H457 H 0.711 0.28738 0.23304 0.0
H458 H 0.69275 0.20002 0.26921 0.0
O459 O 0.76434 0.266 0.2496 0.0
H460 H 0.66259 0.28703 0.20799 0.0
H461 H 0.64369 0.19972 0.24479 0.0
C462 C 0.74058 0.25942 0.30701 0.0
C463 C 0.76737 0.26644 0.32169 0.0
C464 C 0.76705 0.28056 0.34932 0.0
C465 C 0.73984 0.2879 0.36285 0.0
C466 C 0.71296 0.28007 0.34837 0.0
C467 C 0.71334 0.2659 0.32069 0.0
C468 C 0.75767 0.2076 0.27003 0.0
C469 C 0.76846 0.19631 0.24317 0.0
C470 C 0.78189 0.16862 0.24265 0.0
C471 C 0.78463 0.15153 0.26903 0.0
C472 C 0.7731 0.16267 0.29586 0.0
C473 C 0.75959 0.19044 0.29632 0.0
C474 C 0.70567 0.24349 0.25242 0.0
C475 C 0.69649 0.2681 0.23561 0.0
C476 C 0.66863 0.26798 0.22153 0.0
C477 C 0.64918 0.24331 0.22429 0.0
C478 C 0.65827 0.21887 0.24178 0.0
C479 C 0.68626 0.21903 0.25582 0.0
P480 P 0.48976 0.01717 0.99727 0.0
H481 H 0.55236 0.01805 0.98021 0.0
H482 H 0.57774 0.01663 0.93196 0.0
H483 H 0.49243 0.01879 0.8867 0.0
H484 H 0.46712 0.02046 0.93527 0.0
H485 H 0.47113 0.03507 0.05621 0.0
H486 H 0.46993 0.08285 0.08103 0.0
H487 H 0.49723 0.12641 0.99858 0.0
H488 H 0.49911 0.07829 0.97416 0.0
H489 H 0.47345 0.9548 0.00381 0.0
H490 H 0.42847 0.03682 0.98548 0.0
O491 O 0.51163 0.99796 0.02049 0.0
H492 H 0.42556 0.92817 0.00378 0.0
H493 H 0.38022 0.01023 0.9855 0.0
C494 C 0.50786 0.01863 0.96131 0.0
C495 C 0.53909 0.01825 0.95992 0.0
C496 C 0.55357 0.01735 0.93232 0.0
C497 C 0.53707 0.01711 0.90551 0.0
C498 C 0.50576 0.01893 0.90695 0.0
C499 C 0.49126 0.0197 0.93468 0.0
C500 C 0.48549 0.05312 0.0135 0.0
C501 C 0.47659 0.05497 0.04343 0.0
C502 C 0.47572 0.08237 0.05753 0.0
C503 C 0.48364 0.10855 0.04188 0.0
C504 C 0.49148 0.10666 0.01145 0.0
C505 C 0.49241 0.07915 0.99738 0.0
C506 C 0.45439 0.99783 0.99531 0.0
C507 C 0.45322 0.96709 0.99983 0.0
C508 C 0.42583 0.9519 0.99989 0.0
C509 C 0.39909 0.96717 0.99504 0.0
C510 C 0.40045 0.99788 0.98929 0.0
C511 C 0.42794 0.01311 0.98945 0.0
Li512 Li 0.2801 0.89693 0.00329 0.0
Li513 Li 0.25544 0.85878 0.03459 0.0
Li514 Li 0.24687 0.86186 0.9784 0.0
Li515 Li 0.22487 0.89846 0.01199 0.0
C516 C 0.31362 0.84987 0.99499 0.0
N517 N 0.37375 0.84467 0.98278 0.0
C518 C 0.33314 0.83974 0.01716 0.0
C519 C 0.3246 0.85698 0.9665 0.0
C520 C 0.36349 0.83734 0.01058 0.0
C521 C 0.35509 0.85432 0.9608 0.0
C522 C 0.2545 0.90825 0.07095 0.0
C523 C 0.22316 0.91009 0.11468 0.0
N524 N 0.24672 0.92067 0.13078 0.0
C525 C 0.27835 0.91938 0.08786 0.0
C526 C 0.22663 0.90374 0.08439 0.0
C527 C 0.274 0.92542 0.1181 0.0
C528 C 0.32042 0.93997 0.97769 0.0
N529 N 0.31607 0.9199 1.00027 0.0
C530 C 0.36458 0.93046 0.02013 0.0
C531 C 0.33729 0.91521 0.0215 0.0
C532 C 0.36996 0.95107 0.99688 0.0
C533 C 0.34736 0.95599 0.9756 0.0
H534 H 0.30305 0.94348 0.96126 0.0
H535 H 0.33305 0.8994 0.03943 0.0
C536 C 0.24495 0.80738 0.07057 0.0
N537 N 0.26141 0.83283 0.06797 0.0
C538 C 0.25087 0.78705 0.0936 0.0
C539 C 0.29051 0.81954 0.11088 0.0
C540 C 0.28372 0.83928 0.08762 0.0
C541 C 0.27422 0.79282 0.11389 0.0
H542 H 0.22777 0.80247 0.05426 0.0
H543 H 0.29691 0.85935 0.08466 0.0
C544 C 0.23942 0.91253 0.94565 0.0
N545 N 0.22239 0.9253 0.88749 0.0
C546 C 0.21028 0.92146 0.93944 0.0
C547 C 0.25998 0.91039 0.92232 0.0
C548 C 0.20209 0.92777 0.90988 0.0
C549 C 0.25091 0.91683 0.89305 0.0
C550 C 0.18829 0.84672 0.01602 0.0
C551 C 0.16943 0.84133 0.99167 0.0
C552 C 0.17724 0.84336 0.04512 0.0
C553 C 0.13964 0.83317 0.99683 0.0
C554 C 0.14731 0.8352 0.04936 0.0
N555 N 0.12928 0.83035 0.02533 0.0
C556 C 0.26128 0.81554 0.93986 0.0
C557 C 0.22095 0.84414 0.92204 0.0
C558 C 0.26055 0.7984 0.91407 0.0
N559 N 0.24206 0.83829 0.94315 0.0
C560 C 0.21943 0.82758 0.89584 0.0
C561 C 0.23969 0.80458 0.89139 0.0
H562 H 0.27745 0.81083 0.95718 0.0
H563 H 0.20547 0.86189 0.92526 0.0
C564 C 0.20287 0.95272 0.02869 0.0
N565 N 0.19327 0.92574 0.01915 0.0
C566 C 0.18246 0.97486 0.03485 0.0
C567 C 0.14242 0.94131 0.02093 0.0
C568 C 0.16367 0.91976 0.01501 0.0
C569 C 0.15173 0.96935 0.031 0.0
H570 H 0.22652 0.95698 0.03166 0.0
H571 H 0.15642 0.89849 0.00684 0.0
O572 O 0.28393 0.853 1.00117 0.0
O573 O 0.25845 0.90202 0.04136 0.0
O574 O 0.24784 0.90629 0.97445 0.0
O575 O 0.21757 0.85449 0.01135 0.0
H576 H 0.32501 0.83397 0.03927 0.0
H577 H 0.30974 0.86462 0.94905 0.0
H578 H 0.37889 0.82971 0.02758 0.0
H579 H 0.36392 0.85993 0.93891 0.0
H580 H 0.20171 0.90666 0.12537 0.0
H581 H 0.30002 0.92319 0.07776 0.0
H582 H 0.20784 0.89563 0.07154 0.0
H583 H 0.2923 0.93389 0.13149 0.0
H584 H 0.3812 0.92636 0.03726 0.0
H585 H 0.35067 0.97163 0.95729 0.0
H586 H 0.23809 0.76651 0.09477 0.0
H587 H 0.3086 0.82494 0.12607 0.0
H588 H 0.19408 0.9233 0.95719 0.0
H589 H 0.28267 0.90375 0.92672 0.0
H590 H 0.17958 0.93456 0.90473 0.0
H591 H 0.26655 0.91511 0.87476 0.0
H592 H 0.17762 0.84361 0.96903 0.0
H593 H 0.19163 0.84678 0.06426 0.0
H594 H 0.12476 0.82911 0.97818 0.0
H595 H 0.13845 0.83262 0.07176 0.0
H596 H 0.27621 0.78052 0.91192 0.0
H597 H 0.20308 0.83329 0.87893 0.0
H598 H 0.19071 0.99595 0.04298 0.0
H599 H 0.11899 0.93621 0.01729 0.0
Li600 Li 0.10592 0.50405 0.2868 0.0
Li601 Li 0.14291 0.47252 0.26262 0.0
Li602 Li 0.14317 0.52825 0.25406 0.0
Li603 Li 0.10504 0.49627 0.23058 0.0
C604 C 0.15746 0.51117 0.32045 0.0
N605 N 0.17144 0.52333 0.37935 0.0
C606 C 0.16806 0.48879 0.33939 0.0
C607 C 0.15453 0.53985 0.33133 0.0
C608 C 0.17485 0.49534 0.36913 0.0
C609 C 0.16156 0.54553 0.3612 0.0
C610 C 0.09193 0.43722 0.26596 0.0
C611 C 0.08671 0.38921 0.2433 0.0
N612 N 0.07881 0.37729 0.27029 0.0
C613 C 0.08332 0.42457 0.29338 0.0
C614 C 0.09327 0.41947 0.24063 0.0
C615 C 0.07695 0.39421 0.29516 0.0
C616 C 0.06038 0.52765 0.32433 0.0
N617 N 0.08304 0.508 0.32263 0.0
C618 C 0.07569 0.49334 0.37369 0.0
C619 C 0.09051 0.49067 0.34648 0.0
C620 C 0.05262 0.51384 0.37641 0.0
C621 C 0.04474 0.53092 0.35117 0.0
H622 H 0.05455 0.54091 0.30493 0.0
H623 H 0.10804 0.47467 0.34438 0.0
C624 C 0.19271 0.4367 0.25084 0.0
N625 N 0.16815 0.43909 0.26843 0.0
C626 C 0.21317 0.41417 0.25611 0.0
C627 C 0.1828 0.39696 0.29763 0.0
C628 C 0.1628 0.41968 0.29138 0.0
C629 C 0.20859 0.39422 0.2801 0.0
H630 H 0.197 0.45289 0.23331 0.0
H631 H 0.14365 0.42252 0.30564 0.0
C632 C 0.09364 0.56297 0.25062 0.0
N633 N 0.08358 0.62298 0.24425 0.0
C634 C 0.08447 0.5747 0.22306 0.0
C635 C 0.0971 0.5817 0.27508 0.0
C636 C 0.07966 0.60511 0.22024 0.0
C637 C 0.09207 0.61199 0.27138 0.0
C638 C 0.15651 0.48849 0.19649 0.0
C639 C 0.16791 0.51005 0.1767 0.0
C640 C 0.15302 0.4593 0.18694 0.0
C641 C 0.17492 0.50216 0.14744 0.0
C642 C 0.16031 0.45227 0.15752 0.0
N643 N 0.17096 0.47368 0.13852 0.0
C644 C 0.19272 0.56629 0.26538 0.0
C645 C 0.16357 0.58011 0.22332 0.0
C646 C 0.21316 0.58928 0.25938 0.0
N647 N 0.16856 0.56208 0.24735 0.0
C648 C 0.18349 0.6033 0.21642 0.0
C649 C 0.20892 0.60789 0.23434 0.0
H650 H 0.19669 0.55119 0.28386 0.0
H651 H 0.14469 0.57586 0.20884 0.0
C652 C 0.05714 0.47365 0.19414 0.0
N653 N 0.08132 0.49225 0.19519 0.0
C654 C 0.04071 0.47075 0.16761 0.0
C655 C 0.07406 0.50653 0.14405 0.0
C656 C 0.08966 0.50884 0.17095 0.0
C657 C 0.04933 0.48714 0.14202 0.0
H658 H 0.05064 0.46103 0.21386 0.0
H659 H 0.10834 0.52415 0.17259 0.0
O660 O 0.15034 0.50506 0.29133 0.0
O661 O 0.09837 0.46692 0.26385 0.0
O662 O 0.09869 0.53326 0.25373 0.0
O663 O 0.14923 0.49591 0.22516 0.0
H664 H 0.1708 0.46656 0.33132 0.0
H665 H 0.14717 0.55759 0.31683 0.0
H666 H 0.18284 0.47817 0.38409 0.0
H667 H 0.15926 0.56761 0.36993 0.0
H668 H 0.08778 0.37522 0.22387 0.0
H669 H 0.08171 0.43799 0.31313 0.0
H670 H 0.09898 0.42898 0.21907 0.0
H671 H 0.07049 0.38411 0.3163 0.0
H672 H 0.08206 0.47925 0.39236 0.0
H673 H 0.02708 0.54698 0.3523 0.0
H674 H 0.23305 0.41323 0.24242 0.0
H675 H 0.17844 0.38206 0.31636 0.0
H676 H 0.08122 0.56054 0.204 0.0
H677 H 0.10335 0.57295 0.29675 0.0
H678 H 0.07279 0.6145 0.19897 0.0
H679 H 0.09481 0.62673 0.29011 0.0
H680 H 0.17111 0.53267 0.18375 0.0
H681 H 0.14513 0.44217 0.20216 0.0
H682 H 0.18352 0.51868 0.13184 0.0
H683 H 0.15761 0.42976 0.14983 0.0
H684 H 0.23273 0.59166 0.27347 0.0
H685 H 0.1793 0.61715 0.19694 0.0
H686 H 0.02176 0.45558 0.16703 0.0
H687 H 0.08105 0.52016 0.12514 0.0
Li688 Li 0.72588 0.60782 0.9997 0.0
Li689 Li 0.74601 0.64752 0.03458 0.0
Li690 Li 0.75888 0.6465 0.97905 0.0
Li691 Li 0.77803 0.61021 0.0131 0.0
C692 C 0.68936 0.65546 0.99448 0.0
N693 N 0.62862 0.66244 0.98668 0.0
C694 C 0.67144 0.6632 0.01864 0.0
C695 C 0.67642 0.65158 0.96628 0.0
C696 C 0.64078 0.66658 0.01426 0.0
C697 C 0.64566 0.65509 0.96282 0.0
C698 C 0.75354 0.58309 0.0597 0.0
C699 C 0.77728 0.56891 0.10605 0.0
N700 N 0.77663 0.54016 0.0973 0.0
C701 C 0.75291 0.55341 0.05121 0.0
C702 C 0.76568 0.59096 0.08736 0.0
C703 C 0.76479 0.53203 0.07052 0.0
C704 C 0.70065 0.55671 0.9755 0.0
N705 N 0.69358 0.58053 0.99221 0.0
C706 C 0.6435 0.56198 0.99823 0.0
C707 C 0.66575 0.58332 0.00396 0.0
C708 C 0.6502 0.53726 0.98081 0.0
C709 C 0.67925 0.53485 0.96939 0.0
H710 H 0.7231 0.55452 0.96708 0.0
H711 H 0.66088 0.60182 0.01811 0.0
C712 C 0.74788 0.70183 0.06345 0.0
N713 N 0.73769 0.67346 0.06658 0.0
C714 C 0.74202 0.72264 0.0854 0.0
C715 C 0.71475 0.6848 0.11326 0.0
C716 C 0.72152 0.66455 0.09089 0.0
C717 C 0.72507 0.71429 0.11061 0.0
H718 H 0.76044 0.7083 0.0437 0.0
H719 H 0.71348 0.64188 0.09264 0.0
C720 C 0.76414 0.60175 0.94294 0.0
N721 N 0.7712 0.60015 0.88156 0.0
C722 C 0.79265 0.5996 0.93054 0.0
C723 C 0.73922 0.60288 0.92411 0.0
C724 C 0.79575 0.59888 0.89946 0.0
C725 C 0.74325 0.6021 0.89315 0.0
C726 C 0.81407 0.6565 0.0238 0.0
C727 C 0.83748 0.64909 0.00478 0.0
C728 C 0.82047 0.66647 0.05264 0.0
C729 C 0.86691 0.65174 0.01495 0.0
C730 C 0.85021 0.6689 0.06194 0.0
N731 N 0.87262 0.66153 0.04307 0.0
C732 C 0.74545 0.69205 0.93677 0.0
C733 C 0.79424 0.67306 0.93272 0.0
C734 C 0.75151 0.71306 0.91423 0.0
N735 N 0.76679 0.67268 0.94567 0.0
C736 C 0.80124 0.69362 0.91014 0.0
C737 C 0.77991 0.71433 0.90091 0.0
H738 H 0.72401 0.69182 0.94777 0.0
H739 H 0.81098 0.65777 0.94023 0.0
C740 C 0.81724 0.56363 1.00119 0.0
N741 N 0.81157 0.58503 0.02144 0.0
C742 C 0.84252 0.54612 0.00411 0.0
C743 C 0.85475 0.57154 0.04984 0.0
C744 C 0.8292 0.58857 0.04601 0.0
C745 C 0.86207 0.5504 0.02835 0.0
H746 H 0.8024 0.56049 0.98238 0.0
H747 H 0.82383 0.60504 0.06237 0.0
O748 O 0.71943 0.65203 0.99837 0.0
O749 O 0.74261 0.60439 0.04086 0.0
O750 O 0.76065 0.60286 0.97334 0.0
O751 O 0.78508 0.65406 0.01429 0.0
H752 H 0.68105 0.66643 0.04058 0.0
H753 H 0.68997 0.64598 0.94725 0.0
H754 H 0.62663 0.67244 0.03279 0.0
H755 H 0.63535 0.65203 0.94114 0.0
H756 H 0.78692 0.57467 0.12746 0.0
H757 H 0.74365 0.54703 0.0298 0.0
H758 H 0.76647 0.61389 0.09413 0.0
H759 H 0.76465 0.50898 0.06418 0.0
H760 H 0.62152 0.56447 0.00785 0.0
H761 H 0.68539 0.51634 0.95565 0.0
H762 H 0.74997 0.74524 0.08226 0.0
H763 H 0.70162 0.67752 0.13238 0.0
H764 H 0.81225 0.59899 0.94473 0.0
H765 H 0.717 0.6043 0.93329 0.0
H766 H 0.8177 0.59743 0.88957 0.0
H767 H 0.72415 0.60303 0.87833 0.0
H768 H 0.83299 0.64063 0.98271 0.0
H769 H 0.80271 0.67199 0.06782 0.0
H770 H 0.88521 0.64583 1.00054 0.0
H771 H 0.85547 0.67651 0.08422 0.0
H772 H 0.73452 0.72886 0.90815 0.0
H773 H 0.82331 0.69352 0.90027 0.0
H774 H 0.84722 0.53016 0.98693 0.0
H775 H 0.8688 0.57517 0.06924 0.0
Li776 Li 0.85608 0.03585 0.25984 0.0
Li777 Li 0.89163 1.0012 0.28318 0.0
Li778 Li 0.89428 0.01409 0.2282 0.0
Li779 Li 0.85429 0.98127 0.24785 0.0
C780 C 0.90602 0.06794 0.2734 0.0
N781 N 0.91751 0.12453 0.29371 0.0
C782 C 0.91189 0.07265 0.30371 0.0
C783 C 0.90637 0.09196 0.25336 0.0
C784 C 0.91757 0.10144 0.31356 0.0
C785 C 0.91209 0.12042 0.26409 0.0
C786 C 0.83991 0.99287 0.3155 0.0
C787 C 0.83442 0.95503 0.35376 0.0
N788 N 0.82538 0.97588 0.37334 0.0
C789 C 0.83035 0.01389 0.33592 0.0
C790 C 0.84175 0.96316 0.32439 0.0
C791 C 0.82318 0.00486 0.36509 0.0
C792 C 0.81272 0.07741 0.24297 0.0
N793 N 0.83247 0.07054 0.26504 0.0
C794 C 0.81991 0.1144 0.2915 0.0
C795 C 0.83582 0.0881 0.28937 0.0
C796 C 0.80017 0.12262 0.26845 0.0
C797 C 0.79633 0.10342 0.24419 0.0
H798 H 0.80987 0.06282 0.22418 0.0
H799 H 0.85118 0.08199 0.30696 0.0
C800 C 0.94489 0.98315 0.30697 0.0
N801 N 0.91766 0.99237 0.31602 0.0
C802 C 0.96711 0.97681 0.32784 0.0
C803 C 0.93305 0.98957 0.36733 0.0
C804 C 0.91141 0.99581 0.34556 0.0
C805 C 0.96143 0.98011 0.3585 0.0
H806 H 0.94941 0.98093 0.28335 0.0
H807 H 0.88998 0.00394 0.35233 0.0
C808 C 0.84939 0.02437 0.19073 0.0
N809 N 0.84797 0.04072 0.13095 0.0
C810 C 0.83969 0.00413 0.16925 0.0
C811 C 0.85801 0.05302 0.18184 0.0
C812 C 0.83921 0.0128 0.13913 0.0
C813 C 0.85725 0.06083 0.15151 0.0
C814 C 0.90376 0.94567 0.24545 0.0
C815 C 0.91183 0.9345 0.21765 0.0
C816 C 0.90212 0.92668 0.27035 0.0
C817 C 0.91749 0.9043 0.21508 0.0
C818 C 0.90798 0.89662 0.26687 0.0
N819 N 0.91544 0.88614 0.23953 0.0
C820 C 0.94609 0.03935 0.20418 0.0
C821 C 0.9207 0.00877 0.16941 0.0
C822 C 0.96883 0.04527 0.18362 0.0
N823 N 0.9226 0.02145 0.19683 0.0
C824 C 0.94298 0.01424 0.14799 0.0
C825 C 0.96761 0.03252 0.15514 0.0
H826 H 0.94741 0.04876 0.22625 0.0
H827 H 0.90219 0.99406 0.16428 0.0
C828 C 0.80412 0.94342 0.25698 0.0
N829 N 0.82832 0.94837 0.23918 0.0
C830 C 0.78382 0.92052 0.25067 0.0
C831 C 0.81345 0.90837 0.20755 0.0
C832 C 0.83331 0.93136 0.21485 0.0
C833 C 0.78819 0.90281 0.22549 0.0
H834 H 0.80016 0.95768 0.27574 0.0
H835 H 0.85232 0.93608 0.20064 0.0
O836 O 0.90034 0.03991 0.26336 0.0
O837 O 0.84699 1.00131 0.28685 0.0
O838 O 0.8503 0.01622 0.2203 0.0
O839 O 0.8981 0.97517 0.24836 0.0
H840 H 0.91177 0.05434 0.31953 0.0
H841 H 0.90232 0.08868 0.22978 0.0
H842 H 0.92196 0.10543 0.33698 0.0
H843 H 0.91228 0.13922 0.24884 0.0
H844 H 0.83584 0.93213 0.36096 0.0
H845 H 0.82853 0.03691 0.32936 0.0
H846 H 0.84859 0.94654 0.30873 0.0
H847 H 0.81586 0.02091 0.38117 0.0
H848 H 0.82372 0.12854 0.31057 0.0
H849 H 0.7809 0.10849 0.22622 0.0
H850 H 0.98849 0.96917 0.32001 0.0
H851 H 0.92786 0.99272 0.39071 0.0
H852 H 0.83264 0.98197 0.17574 0.0
H853 H 0.86526 0.06902 0.19821 0.0
H854 H 0.83187 0.99732 0.12226 0.0
H855 H 0.86402 0.08289 0.14432 0.0
H856 H 0.91344 0.94896 0.19821 0.0
H857 H 0.89661 0.93508 0.29216 0.0
H858 H 0.92353 0.8953 0.19364 0.0
H859 H 0.90669 0.88165 0.28593 0.0
H860 H 0.98719 0.05978 0.18999 0.0
H861 H 0.94133 0.00373 0.12639 0.0
H862 H 0.76435 0.91739 0.26477 0.0
H863 H 0.8177 0.89522 0.18796 0.0
Li864 Li 0.24601 0.14752 0.53458 0.0
Li865 Li 0.22588 0.10782 0.4997 0.0
Li866 Li 0.27803 0.11021 0.5131 0.0
Li867 Li 0.25888 0.1465 0.47905 0.0
C868 C 0.25354 0.08308 0.5597 0.0
N869 N 0.27663 0.04015 0.59729 0.0
C870 C 0.25291 0.05341 0.5512 0.0
C871 C 0.26567 0.09095 0.58736 0.0
C872 C 0.26479 0.03202 0.57051 0.0
C873 C 0.27727 0.0689 0.60605 0.0
C874 C 0.18936 0.15546 0.49448 0.0
C875 C 0.14566 0.15511 0.46282 0.0
N876 N 0.12862 0.16246 0.48668 0.0
C877 C 0.17145 0.16321 0.51865 0.0
C878 C 0.17642 0.15159 0.46628 0.0
C879 C 0.14078 0.16659 0.51426 0.0
C880 C 0.24789 0.20182 0.56345 0.0
N881 N 0.2377 0.17346 0.56659 0.0
C882 C 0.21476 0.1848 0.61326 0.0
C883 C 0.22152 0.16455 0.59089 0.0
C884 C 0.22507 0.21429 0.61062 0.0
C885 C 0.24203 0.22263 0.5854 0.0
H886 H 0.26044 0.2083 0.54371 0.0
H887 H 0.21348 0.14188 0.59265 0.0
C888 C 0.20065 0.0567 0.47551 0.0
N889 N 0.19357 0.08053 0.49221 0.0
C890 C 0.17925 0.03485 0.46941 0.0
C891 C 0.14349 0.06199 0.49823 0.0
C892 C 0.16575 0.08333 0.50395 0.0
C893 C 0.1502 0.03726 0.48082 0.0
H894 H 0.2231 0.05451 0.4671 0.0
H895 H 0.16086 0.10183 0.5181 0.0
C896 C 0.31407 0.15649 0.5238 0.0
N897 N 0.37262 0.16152 0.54306 0.0
C898 C 0.33748 0.14908 0.50477 0.0
C899 C 0.32048 0.16647 0.55263 0.0
C900 C 0.36691 0.15173 0.51494 0.0
C901 C 0.35022 0.16889 0.56193 0.0
C902 C 0.26412 0.10175 0.44294 0.0
C903 C 0.29262 0.09959 0.43053 0.0
C904 C 0.23919 0.10288 0.42412 0.0
C905 C 0.29572 0.09887 0.39945 0.0
C906 C 0.24321 0.10209 0.39316 0.0
N907 N 0.27115 0.10014 0.38156 0.0
C908 C 0.31724 0.06363 0.50118 0.0
C909 C 0.3292 0.08857 0.54601 0.0
C910 C 0.34252 0.04612 0.5041 0.0
N911 N 0.31157 0.08502 0.52144 0.0
C912 C 0.35474 0.07154 0.54984 0.0
C913 C 0.36207 0.0504 0.52834 0.0
H914 H 0.30241 0.06049 0.48237 0.0
H915 H 0.32383 0.10504 0.56237 0.0
C916 C 0.24545 0.19205 0.43677 0.0
N917 N 0.26678 0.17268 0.44567 0.0
C918 C 0.25151 0.21307 0.41424 0.0
C919 C 0.30124 0.19361 0.41013 0.0
C920 C 0.29423 0.17306 0.43272 0.0
C921 C 0.27991 0.21433 0.40091 0.0
H922 H 0.22401 0.19183 0.44779 0.0
H923 H 0.31097 0.15776 0.44022 0.0
O924 O 0.24261 0.10438 0.54086 0.0
O925 O 0.21943 0.15203 0.49837 0.0
O926 O 0.28507 0.15405 0.51429 0.0
O927 O 0.26065 0.10286 0.47334 0.0
H928 H 0.24365 0.04703 0.52979 0.0
H929 H 0.26646 0.11388 0.59413 0.0
H930 H 0.26465 0.00898 0.56417 0.0
H931 H 0.28691 0.07465 0.62746 0.0
H932 H 0.13535 0.15206 0.44114 0.0
H933 H 0.18105 0.16643 0.54059 0.0
H934 H 0.18997 0.146 0.44725 0.0
H935 H 0.12664 0.17246 0.53279 0.0
H936 H 0.20163 0.17751 0.63238 0.0
H937 H 0.24998 0.24523 0.58226 0.0
H938 H 0.18539 0.01632 0.45567 0.0
H939 H 0.12151 0.06448 0.50784 0.0
H940 H 0.33298 0.14063 0.48271 0.0
H941 H 0.30272 0.17199 0.56782 0.0
H942 H 0.3852 0.14582 0.50053 0.0
H943 H 0.35548 0.1765 0.58421 0.0
H944 H 0.31223 0.09898 0.4447 0.0
H945 H 0.21697 0.1043 0.43331 0.0
H946 H 0.31766 0.09741 0.38955 0.0
H947 H 0.2241 0.10302 0.37834 0.0
H948 H 0.34722 0.03017 0.48692 0.0
H949 H 0.3688 0.07516 0.56924 0.0
H950 H 0.23452 0.22887 0.40816 0.0
H951 H 0.3233 0.1935 0.40025 0.0
Li952 Li 0.39163 0.5012 0.78318 0.0
Li953 Li 0.35608 0.53585 0.75984 0.0
Li954 Li 0.35429 0.48128 0.74785 0.0
Li955 Li 0.39428 0.51409 0.72821 0.0
C956 C 0.33991 0.49287 0.8155 0.0
N957 N 0.32537 0.47587 0.87334 0.0
C958 C 0.33035 0.51388 0.83593 0.0
C959 C 0.34174 0.46316 0.82438 0.0
C960 C 0.32316 0.50486 0.86509 0.0
C961 C 0.33441 0.45502 0.85375 0.0
C962 C 0.40602 0.56794 0.77341 0.0
C963 C 0.41207 0.62042 0.76409 0.0
N964 N 0.41749 0.62454 0.79372 0.0
C965 C 0.41188 0.57265 0.80372 0.0
C966 C 0.40636 0.59197 0.75337 0.0
C967 C 0.41756 0.60144 0.81356 0.0
C968 C 0.44489 0.48317 0.80697 0.0
N969 N 0.41766 0.49237 0.81602 0.0
C970 C 0.43305 0.48957 0.86733 0.0
C971 C 0.41141 0.49581 0.84557 0.0
C972 C 0.46143 0.48012 0.85851 0.0
C973 C 0.46711 0.47683 0.82785 0.0
H974 H 0.44942 0.48095 0.78335 0.0
H975 H 0.38997 0.50393 0.85233 0.0
C976 C 0.31272 0.57741 0.74297 0.0
N977 N 0.33247 0.57055 0.76504 0.0
C978 C 0.29634 0.60343 0.74419 0.0
C979 C 0.31991 0.6144 0.7915 0.0
C980 C 0.33581 0.5881 0.78938 0.0
C981 C 0.30017 0.62262 0.76845 0.0
H982 H 0.30988 0.56283 0.72417 0.0
H983 H 0.35117 0.58199 0.80696 0.0
C984 C 0.40377 0.44567 0.74547 0.0
N985 N 0.41545 0.38614 0.73956 0.0
C986 C 0.41184 0.4345 0.71767 0.0
C987 C 0.40212 0.42669 0.77036 0.0
C988 C 0.41751 0.4043 0.7151 0.0
C989 C 0.40799 0.39663 0.7669 0.0
C990 C 0.34939 0.52436 0.69073 0.0
C991 C 0.3397 0.50412 0.66926 0.0
C992 C 0.35802 0.55302 0.68184 0.0
C993 C 0.33922 0.51278 0.63913 0.0
C994 C 0.35726 0.56082 0.6515 0.0
N995 N 0.34798 0.5407 0.63095 0.0
C996 C 0.30412 0.44342 0.75698 0.0
C997 C 0.33332 0.43136 0.71485 0.0
C998 C 0.28381 0.42053 0.75067 0.0
N999 N 0.32832 0.44837 0.73918 0.0
C1000 C 0.31346 0.40836 0.70756 0.0
C1001 C 0.28819 0.40281 0.72549 0.0
H1002 H 0.30016 0.45769 0.77574 0.0
H1003 H 0.35233 0.43608 0.70065 0.0
C1004 C 0.44609 0.53936 0.70418 0.0
N1005 N 0.4226 0.52146 0.69684 0.0
C1006 C 0.46883 0.54528 0.68362 0.0
C1007 C 0.44299 0.51424 0.648 0.0
C1008 C 0.42071 0.50877 0.66942 0.0
C1009 C 0.46761 0.53252 0.65514 0.0
H1010 H 0.44741 0.54878 0.72624 0.0
H1011 H 0.4022 0.49405 0.66429 0.0
O1012 O 0.34699 0.50132 0.78685 0.0
O1013 O 0.40034 0.53991 0.76336 0.0
O1014 O 0.3981 0.47517 0.74837 0.0
O1015 O 0.35031 0.51623 0.72031 0.0
H1016 H 0.32852 0.5369 0.82936 0.0
H1017 H 0.34858 0.44655 0.80873 0.0
H1018 H 0.31585 0.5209 0.88117 0.0
H1019 H 0.33582 0.43212 0.86095 0.0
H1020 H 0.41226 0.63923 0.74885 0.0
H1021 H 0.41177 0.55435 0.81953 0.0
H1022 H 0.40231 0.58869 0.72978 0.0
H1023 H 0.42195 0.60543 0.83699 0.0
H1024 H 0.42785 0.49271 0.89072 0.0
H1025 H 0.4885 0.4692 0.82002 0.0
H1026 H 0.28091 0.6085 0.72622 0.0
H1027 H 0.32371 0.62854 0.81057 0.0
H1028 H 0.41345 0.44895 0.69823 0.0
H1029 H 0.39661 0.4351 0.79217 0.0
H1030 H 0.42354 0.3953 0.69367 0.0
H1031 H 0.40671 0.38166 0.78596 0.0
H1032 H 0.33265 0.48197 0.67575 0.0
H1033 H 0.36526 0.56902 0.6982 0.0
H1034 H 0.33189 0.4973 0.62226 0.0
H1035 H 0.36403 0.58288 0.64431 0.0
H1036 H 0.26435 0.4174 0.76476 0.0
H1037 H 0.31771 0.39521 0.68797 0.0
H1038 H 0.48718 0.55979 0.68999 0.0
H1039 H 0.44134 0.50372 0.6264 0.0
Li1040 Li 0.7801 0.39693 0.50329 0.0
Li1041 Li 0.75544 0.35878 0.53458 0.0
Li1042 Li 0.74686 0.36186 0.4784 0.0
Li1043 Li 0.72487 0.39846 0.51199 0.0
C1044 C 0.81362 0.34987 0.49499 0.0
N1045 N 0.87375 0.34466 0.48277 0.0
C1046 C 0.83314 0.33973 0.51716 0.0
C1047 C 0.8246 0.35698 0.4665 0.0
C1048 C 0.86349 0.33734 0.51057 0.0
C1049 C 0.85509 0.35431 0.46079 0.0
C1050 C 0.7545 0.40825 0.57095 0.0
C1051 C 0.72316 0.41008 0.61468 0.0
N1052 N 0.74673 0.42066 0.63079 0.0
C1053 C 0.77835 0.41937 0.58786 0.0
C1054 C 0.72663 0.40374 0.58439 0.0
C1055 C 0.774 0.42541 0.61811 0.0
C1056 C 0.82042 0.43998 0.47769 0.0
N1057 N 0.81607 0.4199 0.50027 0.0
C1058 C 0.86458 0.43046 0.52013 0.0
C1059 C 0.83729 0.41521 0.5215 0.0
C1060 C 0.86996 0.45107 0.49688 0.0
C1061 C 0.84736 0.45599 0.47561 0.0
H1062 H 0.80305 0.44349 0.46126 0.0
H1063 H 0.83305 0.3994 0.53942 0.0
C1064 C 0.74494 0.30738 0.57057 0.0
N1065 N 0.76141 0.33283 0.56797 0.0
C1066 C 0.75087 0.28705 0.5936 0.0
C1067 C 0.79051 0.31953 0.61087 0.0
C1068 C 0.78373 0.33928 0.58762 0.0
C1069 C 0.77422 0.29281 0.61389 0.0
H1070 H 0.72776 0.30248 0.55426 0.0
H1071 H 0.79692 0.35934 0.58465 0.0
C1072 C 0.73942 0.41253 0.44565 0.0
N1073 N 0.72239 0.4253 0.38749 0.0
C1074 C 0.71027 0.42146 0.43944 0.0
C1075 C 0.75998 0.4104 0.42232 0.0
C1076 C 0.70209 0.42777 0.40988 0.0
C1077 C 0.75091 0.41683 0.39305 0.0
C1078 C 0.68829 0.34672 0.51602 0.0
C1079 C 0.66943 0.34133 0.49167 0.0
C1080 C 0.67724 0.34336 0.54512 0.0
C1081 C 0.63964 0.33318 0.49683 0.0
C1082 C 0.64731 0.3352 0.54935 0.0
N1083 N 0.62928 0.33035 0.52533 0.0
C1084 C 0.76128 0.31554 0.43986 0.0
C1085 C 0.72095 0.34414 0.42203 0.0
C1086 C 0.76054 0.2984 0.41407 0.0
N1087 N 0.74206 0.33829 0.44314 0.0
C1088 C 0.71943 0.32758 0.39584 0.0
C1089 C 0.73969 0.30458 0.39139 0.0
H1090 H 0.77745 0.31083 0.45718 0.0
H1091 H 0.70547 0.36189 0.42526 0.0
C1092 C 0.70287 0.45272 0.52869 0.0
N1093 N 0.69327 0.42574 0.51915 0.0
C1094 C 0.68246 0.47486 0.53485 0.0
C1095 C 0.64242 0.44131 0.52093 0.0
C1096 C 0.66367 0.41976 0.515 0.0
C1097 C 0.65173 0.46935 0.531 0.0
H1098 H 0.72652 0.45698 0.53166 0.0
H1099 H 0.65642 0.39849 0.50683 0.0
O1100 O 0.78393 0.353 0.50117 0.0
O1101 O 0.75845 0.40202 0.54136 0.0
O1102 O 0.74784 0.40629 0.47445 0.0
O1103 O 0.71757 0.35449 0.51135 0.0
H1104 H 0.82501 0.33397 0.53926 0.0
H1105 H 0.80974 0.36462 0.44905 0.0
H1106 H 0.8789 0.3297 0.52756 0.0
H1107 H 0.86391 0.35993 0.4389 0.0
H1108 H 0.70171 0.40665 0.62537 0.0
H1109 H 0.80003 0.42318 0.57776 0.0
H1110 H 0.70784 0.39563 0.57154 0.0
H1111 H 0.7923 0.43388 0.63149 0.0
H1112 H 0.8812 0.42635 0.53726 0.0
H1113 H 0.85067 0.47163 0.4573 0.0
H1114 H 0.73809 0.26651 0.59477 0.0
H1115 H 0.8086 0.32494 0.62606 0.0
H1116 H 0.69408 0.4233 0.45719 0.0
H1117 H 0.78267 0.40376 0.42672 0.0
H1118 H 0.67958 0.43456 0.40473 0.0
H1119 H 0.76655 0.41512 0.37476 0.0
H1120 H 0.67762 0.34361 0.46903 0.0
H1121 H 0.69163 0.34678 0.56425 0.0
H1122 H 0.62476 0.32911 0.47818 0.0
H1123 H 0.63845 0.33262 0.57175 0.0
H1124 H 0.77621 0.28052 0.41192 0.0
H1125 H 0.70308 0.3333 0.37893 0.0
H1126 H 0.69071 0.49595 0.54299 0.0
H1127 H 0.61899 0.43621 0.51728 0.0
Li1128 Li 0.64291 0.97252 0.76261 0.0
Li1129 Li 0.60592 0.00405 0.7868 0.0
Li1130 Li 0.60504 0.99627 0.73058 0.0
Li1131 Li 0.64316 0.02825 0.75406 0.0
C1132 C 0.59193 0.93722 0.76597 0.0
N1133 N 0.57881 0.87729 0.77031 0.0
C1134 C 0.58332 0.92458 0.79339 0.0
C1135 C 0.59327 0.91947 0.74064 0.0
C1136 C 0.57695 0.89422 0.79517 0.0
C1137 C 0.58672 0.8892 0.74331 0.0
C1138 C 0.65746 0.01117 0.82044 0.0
C1139 C 0.66157 0.04554 0.86119 0.0
N1140 N 0.67145 0.02334 0.87934 0.0
C1141 C 0.66806 0.9888 0.83939 0.0
C1142 C 0.65454 0.03985 0.83132 0.0
C1143 C 0.67486 0.99535 0.86913 0.0
C1144 C 0.6927 0.93669 0.75083 0.0
N1145 N 0.66814 0.93909 0.76843 0.0
C1146 C 0.6828 0.89696 0.79763 0.0
C1147 C 0.6628 0.91968 0.79139 0.0
C1148 C 0.70858 0.89421 0.7801 0.0
C1149 C 0.71316 0.91416 0.75611 0.0
H1150 H 0.69699 0.95288 0.73329 0.0
H1151 H 0.64365 0.92253 0.80565 0.0
C1152 C 0.56038 0.02764 0.82433 0.0
N1153 N 0.58303 0.00801 0.82263 0.0
C1154 C 0.54473 0.03091 0.85116 0.0
C1155 C 0.57569 0.99334 0.87369 0.0
C1156 C 0.59051 0.99067 0.84648 0.0
C1157 C 0.55262 0.01385 0.87641 0.0
H1158 H 0.55454 0.04089 0.80493 0.0
H1159 H 0.60804 0.97468 0.84438 0.0
C1160 C 0.65651 0.9885 0.69649 0.0
N1161 N 0.67095 0.97369 0.63851 0.0
C1162 C 0.6679 0.01005 0.6767 0.0
C1163 C 0.65301 0.9593 0.68693 0.0
C1164 C 0.6749 0.00217 0.64744 0.0
C1165 C 0.66029 0.95228 0.65751 0.0
C1166 C 0.59364 0.06297 0.75063 0.0
C1167 C 0.58447 0.07471 0.72307 0.0
C1168 C 0.5971 0.0817 0.77509 0.0
C1169 C 0.57965 0.10512 0.72026 0.0
C1170 C 0.59206 0.11198 0.77139 0.0
N1171 N 0.58357 0.12298 0.74426 0.0
C1172 C 0.55715 0.97365 0.69414 0.0
C1173 C 0.58965 0.00885 0.67096 0.0
C1174 C 0.54071 0.97075 0.66761 0.0
N1175 N 0.58132 0.99225 0.69518 0.0
C1176 C 0.57406 0.00654 0.64405 0.0
C1177 C 0.54933 0.98714 0.64202 0.0
H1178 H 0.55065 0.96102 0.71385 0.0
H1179 H 0.60833 0.02416 0.67259 0.0
C1180 C 0.69272 0.06628 0.76537 0.0
N1181 N 0.66856 0.06208 0.74735 0.0
C1182 C 0.71316 0.08928 0.75938 0.0
C1183 C 0.68348 0.1033 0.71642 0.0
C1184 C 0.66356 0.08012 0.72332 0.0
C1185 C 0.70892 0.10788 0.73434 0.0
H1186 H 0.6967 0.05118 0.78385 0.0
H1187 H 0.64468 0.07586 0.70884 0.0
O1188 O 0.59837 0.96692 0.76385 0.0
O1189 O 0.65034 0.00506 0.79133 0.0
O1190 O 0.64923 0.99591 0.72516 0.0
O1191 O 0.59869 0.03326 0.75373 0.0
H1192 H 0.58171 0.938 0.81314 0.0
H1193 H 0.59898 0.92897 0.71907 0.0
H1194 H 0.5705 0.88412 0.81631 0.0
H1195 H 0.58779 0.87521 0.72389 0.0
H1196 H 0.65927 0.06762 0.86991 0.0
H1197 H 0.67081 0.96656 0.83132 0.0
H1198 H 0.64718 0.0576 0.81682 0.0
H1199 H 0.68285 0.97818 0.88409 0.0
H1200 H 0.67844 0.88207 0.81637 0.0
H1201 H 0.73304 0.91322 0.74241 0.0
H1202 H 0.52707 0.04697 0.85229 0.0
H1203 H 0.58207 0.97926 0.89236 0.0
H1204 H 0.6711 0.03268 0.68375 0.0
H1205 H 0.64512 0.94217 0.70215 0.0
H1206 H 0.6835 0.0187 0.63183 0.0
H1207 H 0.6576 0.92977 0.64982 0.0
H1208 H 0.58122 0.06055 0.70401 0.0
H1209 H 0.60334 0.07294 0.79676 0.0
H1210 H 0.57278 0.11451 0.69899 0.0
H1211 H 0.5948 0.12672 0.79013 0.0
H1212 H 0.52176 0.95557 0.66702 0.0
H1213 H 0.58105 0.02017 0.62514 0.0
H1214 H 0.73274 0.09165 0.77346 0.0
H1215 H 0.67929 0.11716 0.69695 0.0
Li1216 Li 0.02881 0.26285 0.8636 0.0
Li1217 Li 0.99633 0.28609 0.90063 0.0
Li1218 Li 0.00779 0.23149 0.90429 0.0
Li1219 Li 0.97335 0.25092 0.86593 0.0
C1220 C 0.06534 0.26919 0.91268 0.0
N1221 N 0.12604 0.27453 0.92309 0.0
C1222 C 0.07816 0.29684 0.91897 0.0
C1223 C 0.08333 0.24419 0.91221 0.0
C1224 C 0.10891 0.29911 0.92401 0.0
C1225 C 0.11398 0.24735 0.9174 0.0
C1226 C 0.98545 0.31732 0.84978 0.0
C1227 C 0.94781 0.35496 0.84963 0.0
N1228 N 0.96791 0.37467 0.83772 0.0
C1229 C 0.00564 0.33785 0.83722 0.0
C1230 C 0.95622 0.32584 0.85575 0.0
C1231 C 0.99637 0.36677 0.83141 0.0
C1232 C 0.06638 0.25095 0.8143 0.0
N1233 N 0.06174 0.26992 0.83715 0.0
C1234 C 0.10131 0.3018 0.81963 0.0
C1235 C 0.07874 0.29491 0.84022 0.0
C1236 C 0.10641 0.28278 0.79559 0.0
C1237 C 0.08887 0.25684 0.79332 0.0
H1238 H 0.05204 0.23167 0.81179 0.0
H1239 H 0.07414 0.31004 0.8581 0.0
C1240 C 0.9714 0.32214 0.94599 0.0
N1241 N 0.99099 0.32155 0.92279 0.0
C1242 C 0.96789 0.34808 0.96236 0.0
C1243 C 0.0048 0.3722 0.93066 0.0
C1244 C 0.00773 0.34582 0.91511 0.0
C1245 C 0.98466 0.37361 0.95465 0.0
H1246 H 0.95861 0.30242 0.95189 0.0
H1247 H 0.0236 0.34463 0.89701 0.0
C1248 C 0.01537 0.19525 0.85495 0.0
N1249 N 0.03096 0.13738 0.84406 0.0
C1250 C 0.99355 0.17438 0.84682 0.0
C1251 C 0.0452 0.18677 0.85705 0.0
C1252 C 1.00185 0.14521 0.84152 0.0
C1253 C 0.05261 0.15739 0.8516 0.0
C1254 C 0.94029 0.24383 0.91682 0.0
C1255 C 0.93351 0.2148 0.92603 0.0
C1256 C 0.91746 0.2645 0.91452 0.0
C1257 C 0.90389 0.20678 0.93221 0.0
C1258 C 0.88811 0.25562 0.92087 0.0
N1259 N 0.88198 0.22717 0.92948 0.0
C1260 C 0.03116 0.20785 0.95731 0.0
C1261 C 0.00732 0.17138 0.92762 0.0
C1262 C 0.03837 0.1866 0.97897 0.0
N1263 N 0.01617 0.19996 0.9321 0.0
C1264 C 0.01404 0.14934 0.94876 0.0
C1265 C 0.02979 0.15684 0.9749 0.0
H1266 H 0.03759 0.23076 0.96058 0.0
H1267 H 0.99462 0.16567 0.90793 0.0
C1268 C 0.9351 0.25993 0.81668 0.0
N1269 N 0.93922 0.24241 0.84128 0.0
C1270 C 0.91218 0.2536 0.7964 0.0
C1271 C 0.89795 0.2113 0.82708 0.0
C1272 C 0.9211 0.21853 0.84685 0.0
C1273 C 0.89347 0.22875 0.80123 0.0
H1274 H 0.9502 0.27834 0.81225 0.0
H1275 H 0.92516 0.20446 0.86608 0.0
O1276 O 0.03527 0.26657 0.90753 0.0
O1277 O 0.99423 0.28902 0.85608 0.0
O1278 O 0.00761 0.2239 0.86028 0.0
O1279 O 0.96918 0.25206 0.91065 0.0
H1280 H 0.06457 0.31638 0.91979 0.0
H1281 H 0.07371 0.22252 0.90821 0.0
H1282 H 0.11915 0.32042 0.92868 0.0
H1283 H 0.12815 0.22818 0.91702 0.0
H1284 H 0.92529 0.36187 0.8543 0.0
H1285 H 0.02825 0.33159 0.83217 0.0
H1286 H 0.94021 0.3101 0.86495 0.0
H1287 H 0.01182 0.38293 0.82189 0.0
H1288 H 0.11434 0.32201 0.82224 0.0
H1289 H 0.09166 0.24187 0.77482 0.0
H1290 H 0.95206 0.34823 0.98063 0.0
H1291 H 0.0186 0.39115 0.92431 0.0
H1292 H 0.97042 0.18056 0.84477 0.0
H1293 H 0.06249 0.20275 0.86251 0.0
H1294 H 0.98514 0.1288 0.83541 0.0
H1295 H 0.0756 0.15053 0.85325 0.0
H1296 H 0.95089 0.19857 0.92814 0.0
H1297 H 0.92235 0.2872 0.90807 0.0
H1298 H 0.89831 0.18433 0.93914 0.0
H1299 H 0.87022 0.27136 0.91905 0.0
H1300 H 0.05084 0.19341 0.99856 0.0
H1301 H 0.00652 0.1268 0.94492 0.0
H1302 H 0.90996 0.26734 0.7765 0.0
H1303 H 0.88402 0.19198 0.83174 0.0
Li1304 Li 0.52881 0.76285 0.3636 0.0
Li1305 Li 0.49633 0.78609 0.40063 0.0
Li1306 Li 0.50779 0.73149 0.40429 0.0
Li1307 Li 0.47335 0.75092 0.36594 0.0
C1308 C 0.56534 0.76918 0.41269 0.0
N1309 N 0.62604 0.7745 0.42311 0.0
C1310 C 0.57817 0.79682 0.41898 0.0
C1311 C 0.58332 0.74417 0.41223 0.0
C1312 C 0.60891 0.79909 0.42403 0.0
C1313 C 0.61397 0.74732 0.41742 0.0
C1314 C 0.48546 0.81733 0.34978 0.0
C1315 C 0.44783 0.85497 0.34964 0.0
N1316 N 0.46794 0.87468 0.33774 0.0
C1317 C 0.50565 0.83785 0.33723 0.0
C1318 C 0.45624 0.82585 0.35576 0.0
C1319 C 0.4964 0.86677 0.33143 0.0
C1320 C 0.56637 0.75095 0.31429 0.0
N1321 N 0.56174 0.76992 0.33715 0.0
C1322 C 0.60132 0.80179 0.31964 0.0
C1323 C 0.57875 0.7949 0.34023 0.0
C1324 C 0.60641 0.78277 0.29559 0.0
C1325 C 0.58885 0.75684 0.29331 0.0
H1326 H 0.55202 0.73168 0.31178 0.0
H1327 H 0.57416 0.81003 0.35812 0.0
C1328 C 0.47139 0.82214 0.44598 0.0
N1329 N 0.49099 0.82155 0.42279 0.0
C1330 C 0.46789 0.84808 0.46235 0.0
C1331 C 0.50481 0.87219 0.43067 0.0
C1332 C 0.50774 0.84581 0.41512 0.0
C1333 C 0.48466 0.87361 0.45465 0.0
H1334 H 0.45859 0.80243 0.45188 0.0
H1335 H 0.52362 0.84462 0.39702 0.0
C1336 C 0.51538 0.69525 0.35495 0.0
N1337 N 0.53097 0.63739 0.34404 0.0
C1338 C 0.49355 0.67438 0.34681 0.0
C1339 C 0.5452 0.68678 0.35704 0.0
C1340 C 0.50186 0.64521 0.34151 0.0
C1341 C 0.55262 0.6574 0.35159 0.0
C1342 C 0.44028 0.74382 0.41682 0.0
C1343 C 0.43352 0.7148 0.42602 0.0
C1344 C 0.41746 0.76449 0.41451 0.0
C1345 C 0.40389 0.70677 0.4322 0.0
C1346 C 0.3881 0.7556 0.42086 0.0
N1347 N 0.38198 0.72716 0.42946 0.0
C1348 C 0.53115 0.70785 0.45731 0.0
C1349 C 0.50733 0.67138 0.42762 0.0
C1350 C 0.53836 0.6866 0.47897 0.0
N1351 N 0.51616 0.69996 0.4321 0.0
C1352 C 0.51405 0.64934 0.44876 0.0
C1353 C 0.52979 0.65684 0.47491 0.0
H1354 H 0.53757 0.73076 0.4606 0.0
H1355 H 0.49463 0.66567 0.40793 0.0
C1356 C 0.43509 0.75994 0.31669 0.0
N1357 N 0.43922 0.74242 0.34129 0.0
C1358 C 0.41217 0.75361 0.29641 0.0
C1359 C 0.39795 0.7113 0.32708 0.0
C1360 C 0.4211 0.71853 0.34685 0.0
C1361 C 0.39347 0.72875 0.30123 0.0
H1362 H 0.45019 0.77835 0.31226 0.0
H1363 H 0.42517 0.70445 0.36608 0.0
O1364 O 0.53527 0.76657 0.40754 0.0
O1365 O 0.49423 0.78902 0.35608 0.0
O1366 O 0.5076 0.7239 0.36029 0.0
O1367 O 0.46917 0.75206 0.41066 0.0
H1368 H 0.56458 0.81637 0.4198 0.0
H1369 H 0.57369 0.7225 0.40822 0.0
H1370 H 0.61916 0.82039 0.4287 0.0
H1371 H 0.62814 0.72815 0.41704 0.0
H1372 H 0.42532 0.8619 0.35431 0.0
H1373 H 0.52826 0.83158 0.33217 0.0
H1374 H 0.44022 0.81012 0.36496 0.0
H1375 H 0.51186 0.88294 0.32191 0.0
H1376 H 0.61436 0.82199 0.32225 0.0
H1377 H 0.59164 0.74188 0.27481 0.0
H1378 H 0.45204 0.84824 0.48062 0.0
H1379 H 0.51862 0.89114 0.42432 0.0
H1380 H 0.47043 0.68055 0.34477 0.0
H1381 H 0.56249 0.70276 0.3625 0.0
H1382 H 0.48516 0.6288 0.3354 0.0
H1383 H 0.57562 0.65055 0.35323 0.0
H1384 H 0.45089 0.69857 0.42815 0.0
H1385 H 0.42234 0.78719 0.40806 0.0
H1386 H 0.39831 0.68432 0.43914 0.0
H1387 H 0.37021 0.77135 0.41903 0.0
H1388 H 0.55082 0.69342 0.49857 0.0
H1389 H 0.50653 0.6268 0.44491 0.0
H1390 H 0.40994 0.76735 0.27651 0.0
H1391 H 0.38403 0.69197 0.33173 0.0
Li1392 Li 0.0103 0.77576 0.60983 0.0
Li1393 Li 0.97638 0.75587 0.65121 0.0
Li1394 Li 0.03238 0.74675 0.65005 0.0
Li1395 Li 0.99945 0.72337 0.61521 0.0
C1396 C 0.01259 0.81518 0.65456 0.0
N1397 N 0.0157 0.87636 0.65566 0.0
C1398 C 0.98776 0.83139 0.66317 0.0
C1399 C 0.0391 0.83013 0.64679 0.0
C1400 C 0.98976 0.8623 0.66354 0.0
C1401 C 0.0402 0.86105 0.64739 0.0
C1402 C 0.95249 0.74406 0.5862 0.0
C1403 C 0.90765 0.71764 0.57179 0.0
N1404 N 0.91719 0.71795 0.5429 0.0
C1405 C 0.96178 0.74431 0.55637 0.0
C1406 C 0.92518 0.73076 0.59403 0.0
C1407 C 0.94364 0.7309 0.53481 0.0
C1408 C 0.03632 0.80188 0.559 0.0
N1409 N 0.01636 0.80709 0.58111 0.0
C1410 C 0.0064 0.85511 0.56037 0.0
C1411 C 1.00102 0.83286 0.58188 0.0
C1412 C 0.02721 0.85041 0.53749 0.0
C1413 C 0.04218 0.82331 0.53697 0.0
H1414 H 0.04762 0.78094 0.55834 0.0
H1415 H 0.98453 0.83614 0.59908 0.0
C1416 C 0.94562 0.75512 0.70568 0.0
N1417 N 0.94343 0.76369 0.67651 0.0
C1418 C 0.92275 0.76123 0.72573 0.0
C1419 C 0.89592 0.78536 0.68548 0.0
C1420 C 0.91917 0.77836 0.66605 0.0
C1421 C 0.89761 0.77677 0.71577 0.0
H1422 H 0.96535 0.74376 0.71339 0.0
H1423 H 0.91817 0.78513 0.64277 0.0
C1424 C 0.06836 0.7385 0.60564 0.0
N1425 N 0.12939 0.73014 0.60606 0.0
C1426 C 0.07981 0.70987 0.60509 0.0
C1427 C 0.08799 0.76286 0.60623 0.0
C1428 C 0.11073 0.70612 0.60531 0.0
C1429 C 0.11875 0.75818 0.60651 0.0
C1430 C 0.99121 0.68963 0.66392 0.0
C1431 C 0.0117 0.66764 0.65724 0.0
C1432 C 0.96293 0.68155 0.67475 0.0
C1433 C 0.0035 0.63789 0.66136 0.0
C1434 C 0.9556 0.65155 0.67864 0.0
N1435 N 0.97586 0.63053 0.6719 0.0
C1436 C 0.07659 0.76888 0.6894 0.0
C1437 C 0.08234 0.7182 0.67823 0.0
C1438 C 0.10296 0.76896 0.70612 0.0
N1439 N 0.06713 0.74393 0.67531 0.0
C1440 C 0.10896 0.7173 0.69461 0.0
C1441 C 0.11987 0.74307 0.70847 0.0
H1442 H 0.06383 0.78888 0.68746 0.0
H1443 H 0.07434 0.69851 0.6672 0.0
C1444 C 0.01169 0.68317 0.56906 0.0
N1445 N 0.99211 0.6885 0.59149 0.0
C1446 C 0.00889 0.65755 0.55205 0.0
C1447 C 0.96457 0.64419 0.5801 0.0
C1448 C 0.96829 0.67006 0.59662 0.0
C1449 C 0.98539 0.6373 0.55784 0.0
H1450 H 0.02977 0.69868 0.56455 0.0
H1451 H 0.95227 0.67525 0.61371 0.0
O1452 O 0.011 0.78488 0.65396 0.0
O1453 O 0.97024 0.75645 0.6077 0.0
O1454 O 0.03812 0.74266 0.60597 0.0
O1455 O 0.99878 0.7189 0.66 0.0
H1456 H 0.96715 0.82029 0.66948 0.0
H1457 H 0.05859 0.81801 0.64023 0.0
H1458 H 0.97068 0.8751 0.67006 0.0
H1459 H 0.06051 0.87287 0.64126 0.0
H1460 H 0.88654 0.7071 0.57752 0.0
H1461 H 0.98294 0.75446 0.55003 0.0
H1462 H 0.91779 0.73028 0.61708 0.0
H1463 H 0.95061 0.73074 0.51165 0.0
H1464 H 0.99405 0.87551 0.56129 0.0
H1465 H 0.0585 0.81879 0.51984 0.0
H1466 H 0.9251 0.75462 0.74899 0.0
H1467 H 0.87688 0.79736 0.67696 0.0
H1468 H 0.06506 0.6907 0.60502 0.0
H1469 H 0.07959 0.78514 0.60656 0.0
H1470 H 0.11987 0.68408 0.60509 0.0
H1471 H 0.13417 0.77685 0.6071 0.0
H1472 H 0.03345 0.67342 0.64837 0.0
H1473 H 0.94666 0.6982 0.67979 0.0
H1474 H 0.01906 0.62065 0.65604 0.0
H1475 H 0.93377 0.64498 0.6869 0.0
H1476 H 0.11007 0.78918 0.71699 0.0
H1477 H 0.12128 0.69687 0.6956 0.0
H1478 H 0.02554 0.65325 0.53519 0.0
H1479 H 0.94566 0.62966 0.58487 0.0
Li1480 Li 0.5103 0.27576 0.10983 0.0
Li1481 Li 0.47638 0.25587 0.15121 0.0
Li1482 Li 0.53238 0.24675 0.15005 0.0
Li1483 Li 0.49945 0.22337 0.11521 0.0
C1484 C 0.5126 0.31518 0.15456 0.0
N1485 N 0.51571 0.37636 0.15566 0.0
C1486 C 0.48777 0.33139 0.16318 0.0
C1487 C 0.5391 0.33013 0.14679 0.0
C1488 C 0.48977 0.3623 0.16354 0.0
C1489 C 0.5402 0.36105 0.14739 0.0
C1490 C 0.45249 0.24406 0.0862 0.0
C1491 C 0.40765 0.21764 0.07179 0.0
N1492 N 0.41718 0.21795 0.04291 0.0
C1493 C 0.46178 0.24432 0.05637 0.0
C1494 C 0.42518 0.23077 0.09403 0.0
C1495 C 0.44364 0.23091 0.03481 0.0
C1496 C 0.53632 0.30189 0.059 0.0
N1497 N 0.51637 0.30709 0.08111 0.0
C1498 C 0.50641 0.35511 0.06037 0.0
C1499 C 0.50102 0.33286 0.08188 0.0
C1500 C 0.52721 0.35041 0.03749 0.0
C1501 C 0.54218 0.32332 0.03698 0.0
H1502 H 0.54762 0.28094 0.05834 0.0
H1503 H 0.48453 0.33614 0.09909 0.0
C1504 C 0.44562 0.25512 0.20568 0.0
N1505 N 0.44343 0.2637 0.17652 0.0
C1506 C 0.42275 0.26123 0.22573 0.0
C1507 C 0.39593 0.28536 0.18548 0.0
C1508 C 0.41917 0.27837 0.16605 0.0
C1509 C 0.39761 0.27677 0.21577 0.0
H1510 H 0.46535 0.24375 0.21339 0.0
H1511 H 0.41818 0.28513 0.14277 0.0
C1512 C 0.56836 0.2385 0.10564 0.0
N1513 N 0.62939 0.23014 0.10606 0.0
C1514 C 0.57981 0.20987 0.10509 0.0
C1515 C 0.58799 0.26286 0.10623 0.0
C1516 C 0.61073 0.20612 0.10531 0.0
C1517 C 0.61876 0.25818 0.10651 0.0
C1518 C 0.49121 0.18963 0.16392 0.0
C1519 C 0.5117 0.16764 0.15724 0.0
C1520 C 0.46293 0.18155 0.17475 0.0
C1521 C 0.5035 0.13789 0.16136 0.0
C1522 C 0.4556 0.15155 0.17864 0.0
N1523 N 0.47586 0.13053 0.1719 0.0
C1524 C 0.57659 0.26887 0.1894 0.0
C1525 C 0.58234 0.2182 0.17823 0.0
C1526 C 0.60296 0.26896 0.20612 0.0
N1527 N 0.56713 0.24392 0.17531 0.0
C1528 C 0.60896 0.2173 0.19461 0.0
C1529 C 0.61987 0.24307 0.20847 0.0
H1530 H 0.56383 0.28888 0.18746 0.0
H1531 H 0.57434 0.19851 0.16719 0.0
C1532 C 0.51169 0.18317 0.06906 0.0
N1533 N 0.49211 0.1885 0.09149 0.0
C1534 C 0.50889 0.15755 0.05205 0.0
C1535 C 0.46457 0.14419 0.0801 0.0
C1536 C 0.46829 0.17007 0.09661 0.0
C1537 C 0.48539 0.13731 0.05783 0.0
H1538 H 0.52977 0.19868 0.06454 0.0
H1539 H 0.45227 0.17525 0.11371 0.0
O1540 O 0.511 0.28488 0.15396 0.0
O1541 O 0.47024 0.25645 0.1077 0.0
O1542 O 0.53812 0.24266 0.10597 0.0
O1543 O 0.49878 0.2189 0.16 0.0
H1544 H 0.46715 0.32029 0.16948 0.0
H1545 H 0.55859 0.31801 0.14023 0.0
H1546 H 0.47068 0.3751 0.17006 0.0
H1547 H 0.56052 0.37287 0.14126 0.0
H1548 H 0.38654 0.2071 0.07752 0.0
H1549 H 0.48294 0.25447 0.05003 0.0
H1550 H 0.41779 0.23028 0.11708 0.0
H1551 H 0.45061 0.23074 0.01165 0.0
H1552 H 0.49405 0.37551 0.0613 0.0
H1553 H 0.5585 0.3188 0.01984 0.0
H1554 H 0.4251 0.25462 0.24899 0.0
H1555 H 0.37689 0.29736 0.17697 0.0
H1556 H 0.56506 0.1907 0.10502 0.0
H1557 H 0.57959 0.28514 0.10656 0.0
H1558 H 0.61987 0.18408 0.10508 0.0
H1559 H 0.63417 0.27684 0.1071 0.0
H1560 H 0.53345 0.17342 0.14837 0.0
H1561 H 0.44666 0.1982 0.17979 0.0
H1562 H 0.51906 0.12065 0.15603 0.0
H1563 H 0.43377 0.14498 0.1869 0.0
H1564 H 0.61007 0.28918 0.21699 0.0
H1565 H 0.62128 0.19687 0.1956 0.0
H1566 H 0.52554 0.15326 0.03518 0.0
H1567 H 0.44566 0.12966 0.08486 0.0
loop_
_geom_bond_atom_site_label_1
_geom_bond_atom_site_label_2
_geom_bond_distance
_geom_bond_site_symmetry_2
_ccdc_geom_bond_type
P0 O11 1.490 . S
P0 C14 1.812 . S
P0 C20 1.803 . S
P0 C26 1.819 . S
H1 C15 0.941 . S
H2 C16 0.939 . S
H3 C18 0.940 . S
H4 C19 0.940 . S
H5 C21 0.939 . S
H6 C22 0.942 . S
H7 C24 0.940 . S
H8 C25 0.939 . S
H9 C27 0.941 . S
H10 C31 0.939 1_556 S
O11 P0 1.490 . S
H12 C28 0.939 . S
H13 C30 0.940 . S
C14 P0 1.812 . S
C14 C15 1.389 . S
C14 C19 1.391 . S
C15 H1 0.941 . S
C15 C14 1.389 . S
C15 C16 1.397 . S
C16 H2 0.939 . S
C16 C15 1.397 . S
C16 C17 1.378 1_455 S
C17 C16 1.378 1_655 S
C17 C18 1.378 . S
C18 H3 0.940 . S
C18 C17 1.378 . S
C18 C19 1.396 1_655 S
C19 H4 0.940 . S
C19 C14 1.391 . S
C19 C18 1.396 1_455 S
C20 P0 1.803 . S
C20 C21 1.378 . S
C20 C25 1.400 1_545 S
C21 H5 0.939 . S
C21 C20 1.378 . S
C21 C22 1.361 . S
C22 H6 0.942 . S
C22 C21 1.361 . S
C22 C23 1.369 1_545 S
C23 C22 1.369 1_565 S
C23 C24 1.404 . S
C24 H7 0.940 . S
C24 C23 1.404 . S
C24 C25 1.389 . S
C25 H8 0.939 . S
C25 C20 1.400 1_565 S
C25 C24 1.389 . S
C26 P0 1.819 . S
C26 C27 1.391 . S
C26 C31 1.391 . S
C27 H9 0.941 . S
C27 C26 1.391 . S
C27 C28 1.396 . S
C28 H12 0.939 . S
C28 C27 1.396 . S
C28 C29 1.397 1_554 S
C29 C28 1.397 1_556 S
C29 C30 1.385 . S
C30 H13 0.940 . S
C30 C29 1.385 . S
C30 C31 1.388 1_556 S
C31 H10 0.939 1_554 S
C31 C26 1.391 . S
C31 C30 1.388 1_554 S
P32 O43 1.490 . S
P32 C46 1.812 . S
P32 C52 1.803 . S
P32 C58 1.819 . S
H33 C47 0.941 . S
H34 C48 0.939 . S
H35 C50 0.940 . S
H36 C51 0.940 . S
H37 C53 0.939 . S
H38 C54 0.942 . S
H39 C56 0.940 . S
H40 C57 0.939 . S
H41 C59 0.941 . S
H42 C63 0.939 . S
O43 P32 1.490 . S
H44 C60 0.939 . S
H45 C62 0.940 . S
C46 P32 1.812 . S
C46 C47 1.389 . S
C46 C51 1.391 . S
C47 H33 0.941 . S
C47 C46 1.389 . S
C47 C48 1.397 . S
C48 H34 0.939 . S
C48 C47 1.397 . S
C48 C49 1.378 . S
C49 C48 1.378 . S
C49 C50 1.378 . S
C50 H35 0.940 . S
C50 C49 1.378 . S
C50 C51 1.396 . S
C51 H36 0.940 . S
C51 C46 1.391 . S
C51 C50 1.396 . S
C52 P32 1.803 . S
C52 C53 1.378 . S
C52 C57 1.400 . S
C53 H37 0.939 . S
C53 C52 1.378 . S
C53 C54 1.361 . S
C54 H38 0.942 . S
C54 C53 1.361 . S
C54 C55 1.369 . S
C55 C54 1.369 . S
C55 C56 1.404 . S
C56 H39 0.940 . S
C56 C55 1.404 . S
C56 C57 1.389 . S
C57 H40 0.939 . S
C57 C52 1.400 . S
C57 C56 1.389 . S
C58 P32 1.819 . S
C58 C59 1.391 . S
C58 C63 1.391 . S
C59 H41 0.941 . S
C59 C58 1.391 . S
C59 C60 1.396 . S
C60 H44 0.939 . S
C60 C59 1.396 . S
C60 C61 1.397 . S
C61 C60 1.397 . S
C61 C62 1.385 . S
C62 H45 0.940 . S
C62 C61 1.385 . S
C62 C63 1.388 . S
C63 H42 0.939 . S
C63 C58 1.391 . S
C63 C62 1.388 . S
P64 O75 1.490 1_654 S
P64 C78 1.812 1_554 S
P64 C84 1.803 . S
P64 C90 1.819 1_655 S
H65 C79 0.941 . S
H66 C80 0.939 . S
H67 C82 0.940 . S
H68 C83 0.940 . S
H69 C85 0.945 . S
H70 C86 0.942 . S
H71 C88 0.940 . S
H72 C89 0.939 . S
H73 C91 0.941 . S
H74 C95 0.939 . S
O75 P64 1.490 1_456 S
H76 C92 0.939 . S
H77 C94 0.940 1_655 S
C78 P64 1.812 1_556 S
C78 C79 1.389 . S
C78 C83 1.391 1_556 S
C79 H65 0.941 . S
C79 C78 1.389 . S
C79 C80 1.397 . S
C80 H66 0.939 . S
C80 C79 1.397 . S
C80 C81 1.378 . S
C81 C80 1.378 . S
C81 C82 1.378 1_556 S
C82 H67 0.940 . S
C82 C81 1.378 1_554 S
C82 C83 1.396 . S
C83 H68 0.940 . S
C83 C78 1.391 1_554 S
C83 C82 1.396 . S
C84 P64 1.803 . S
C84 C85 1.378 . S
C84 C89 1.400 . S
C85 H69 0.945 . S
C85 C84 1.378 . S
C85 C86 1.361 . S
C86 H70 0.942 . S
C86 C85 1.361 . S
C86 C87 1.369 . S
C87 C86 1.369 . S
C87 C88 1.404 . S
C88 H71 0.940 . S
C88 C87 1.404 . S
C88 C89 1.389 . S
C89 H72 0.939 . S
C89 C84 1.400 . S
C89 C88 1.389 . S
C90 P64 1.819 1_455 S
C90 C91 1.391 . S
C90 C95 1.391 1_455 S
C91 H73 0.941 . S
C91 C90 1.391 . S
C91 C92 1.396 . S
C92 H76 0.939 . S
C92 C91 1.396 . S
C92 C93 1.397 . S
C93 C92 1.397 . S
C93 C94 1.385 . S
C94 H77 0.940 1_455 S
C94 C93 1.385 . S
C94 C95 1.388 1_455 S
C95 H74 0.939 . S
C95 C90 1.391 1_655 S
C95 C94 1.388 1_655 S
P96 O107 1.490 . S
P96 C110 1.812 . S
P96 C116 1.803 . S
P96 C122 1.819 . S
H97 C111 0.941 . S
H98 C112 0.939 . S
H99 C114 0.940 . S
H100 C115 0.940 . S
H101 C117 0.939 . S
H102 C118 0.942 . S
H103 C120 0.940 . S
H104 C121 0.939 . S
H105 C123 0.941 . S
H106 C127 0.939 . S
O107 P96 1.490 . S
H108 C124 0.939 . S
H109 C126 0.940 . S
C110 P96 1.812 . S
C110 C111 1.389 . S
C110 C115 1.391 . S
C111 H97 0.941 . S
C111 C110 1.389 . S
C111 C112 1.397 . S
C112 H98 0.939 . S
C112 C111 1.397 . S
C112 C113 1.378 . S
C113 C112 1.378 . S
C113 C114 1.378 . S
C114 H99 0.940 . S
C114 C113 1.378 . S
C114 C115 1.396 . S
C115 H100 0.940 . S
C115 C110 1.391 . S
C115 C114 1.396 . S
C116 P96 1.803 . S
C116 C117 1.378 . S
C116 C121 1.400 . S
C117 H101 0.939 . S
C117 C116 1.378 . S
C117 C118 1.361 . S
C118 H102 0.942 . S
C118 C117 1.361 . S
C118 C119 1.369 . S
C119 C118 1.369 . S
C119 C120 1.404 . S
C120 H103 0.940 . S
C120 C119 1.404 . S
C120 C121 1.389 . S
C121 H104 0.939 . S
C121 C116 1.400 . S
C121 C120 1.389 . S
C122 P96 1.819 . S
C122 C123 1.391 . S
C122 C127 1.391 . S
C123 H105 0.941 . S
C123 C122 1.391 . S
C123 C124 1.396 . S
C124 H108 0.939 . S
C124 C123 1.396 . S
C124 C125 1.397 . S
C125 C124 1.397 . S
C125 C126 1.385 . S
C126 H109 0.940 . S
C126 C125 1.385 . S
C126 C127 1.388 . S
C127 H106 0.939 . S
C127 C122 1.391 . S
C127 C126 1.388 . S
P128 O139 1.490 . S
P128 C142 1.812 . S
P128 C148 1.803 . S
P128 C154 1.819 . S
H129 C143 0.941 . S
H130 C144 0.940 . S
H131 C146 0.940 . S
H132 C147 0.940 . S
H133 C149 0.939 . S
H134 C150 0.942 . S
H135 C152 0.940 . S
H136 C153 0.939 . S
H137 C155 0.941 . S
H138 C159 0.939 . S
O139 P128 1.490 . S
H140 C156 0.939 . S
H141 C158 0.940 . S
C142 P128 1.812 . S
C142 C143 1.389 . S
C142 C147 1.391 1_565 S
C143 H129 0.941 . S
C143 C142 1.389 . S
C143 C144 1.397 1_565 S
C144 H130 0.940 . S
C144 C143 1.397 1_545 S
C144 C145 1.378 . S
C145 C144 1.378 . S
C145 C146 1.378 . S
C146 H131 0.940 . S
C146 C145 1.378 . S
C146 C147 1.396 . S
C147 H132 0.940 . S
C147 C142 1.391 1_545 S
C147 C146 1.396 . S
C148 P128 1.803 . S
C148 C149 1.378 . S
C148 C153 1.400 . S
C149 H133 0.939 . S
C149 C148 1.378 . S
C149 C150 1.361 . S
C150 H134 0.942 . S
C150 C149 1.361 . S
C150 C151 1.369 . S
C151 C150 1.369 . S
C151 C152 1.404 . S
C152 H135 0.940 . S
C152 C151 1.404 . S
C152 C153 1.389 . S
C153 H136 0.939 . S
C153 C148 1.400 . S
C153 C152 1.389 . S
C154 P128 1.819 . S
C154 C155 1.391 . S
C154 C159 1.391 1_455 S
C155 H137 0.941 . S
C155 C154 1.391 . S
C155 C156 1.396 . S
C156 H140 0.939 . S
C156 C155 1.396 . S
C156 C157 1.397 1_455 S
C157 C156 1.397 1_655 S
C157 C158 1.385 . S
C158 H141 0.940 . S
C158 C157 1.385 . S
C158 C159 1.388 . S
C159 H138 0.939 . S
C159 C154 1.391 1_655 S
C159 C158 1.388 . S
P160 O171 1.490 . S
P160 C174 1.812 . S
P160 C180 1.803 . S
P160 C186 1.819 . S
H161 C175 0.941 . S
H162 C176 0.939 . S
H163 C178 0.940 . S
H164 C179 0.940 . S
H165 C181 0.939 . S
H166 C182 0.942 . S
H167 C184 0.940 . S
H168 C185 0.939 . S
H169 C187 0.941 . S
H170 C191 0.939 . S
O171 P160 1.490 . S
H172 C188 0.939 . S
H173 C190 0.940 . S
C174 P160 1.812 . S
C174 C175 1.389 . S
C174 C179 1.391 . S
C175 H161 0.941 . S
C175 C174 1.389 . S
C175 C176 1.397 . S
C176 H162 0.939 . S
C176 C175 1.397 . S
C176 C177 1.378 . S
C177 C176 1.378 . S
C177 C178 1.378 . S
C178 H163 0.940 . S
C178 C177 1.378 . S
C178 C179 1.396 . S
C179 H164 0.940 . S
C179 C174 1.391 . S
C179 C178 1.396 . S
C180 P160 1.803 . S
C180 C181 1.378 . S
C180 C185 1.400 . S
C181 H165 0.939 . S
C181 C180 1.378 . S
C181 C182 1.361 . S
C182 H166 0.942 . S
C182 C181 1.361 . S
C182 C183 1.369 . S
C183 C182 1.369 . S
C183 C184 1.404 . S
C184 H167 0.940 . S
C184 C183 1.404 . S
C184 C185 1.389 . S
C185 H168 0.939 . S
C185 C180 1.400 . S
C185 C184 1.389 . S
C186 P160 1.819 . S
C186 C187 1.391 . S
C186 C191 1.391 . S
C187 H169 0.941 . S
C187 C186 1.391 . S
C187 C188 1.396 . S
C188 H172 0.939 . S
C188 C187 1.396 . S
C188 C189 1.397 . S
C189 C188 1.397 . S
C189 C190 1.385 . S
C190 H173 0.940 . S
C190 C189 1.385 . S
C190 C191 1.388 . S
C191 H170 0.939 . S
C191 C186 1.391 . S
C191 C190 1.388 . S
P192 O203 1.490 1_655 S
P192 C206 1.812 1_655 S
P192 C212 1.803 . S
P192 C218 1.819 . S
H193 C207 0.941 . S
H194 C208 0.939 . S
H195 C210 0.934 1_655 S
H196 C211 0.940 . S
H197 C213 0.939 1_455 S
H198 C214 0.942 . S
H199 C216 0.940 . S
H200 C217 0.939 . S
H201 C219 0.941 . S
H202 C223 0.939 . S
O203 P192 1.490 1_455 S
H204 C220 0.939 . S
H205 C222 0.940 . S
C206 P192 1.812 1_455 S
C206 C207 1.389 . S
C206 C211 1.391 1_455 S
C207 H193 0.941 . S
C207 C206 1.389 . S
C207 C208 1.397 . S
C208 H194 0.939 . S
C208 C207 1.397 . S
C208 C209 1.378 . S
C209 C208 1.378 . S
C209 C210 1.388 . S
C210 H195 0.934 1_455 S
C210 C209 1.388 . S
C210 C211 1.393 1_455 S
C211 H196 0.940 . S
C211 C206 1.391 1_655 S
C211 C210 1.393 1_655 S
C212 P192 1.803 . S
C212 C213 1.378 . S
C212 C217 1.400 . S
C213 H197 0.939 1_655 S
C213 C212 1.378 . S
C213 C214 1.361 . S
C214 H198 0.942 . S
C214 C213 1.361 . S
C214 C215 1.369 . S
C215 C214 1.369 . S
C215 C216 1.404 . S
C216 H199 0.940 . S
C216 C215 1.404 . S
C216 C217 1.389 . S
C217 H200 0.939 . S
C217 C212 1.400 . S
C217 C216 1.389 . S
C218 P192 1.819 . S
C218 C219 1.391 . S
C218 C223 1.391 . S
C219 H201 0.941 . S
C219 C218 1.391 . S
C219 C220 1.396 . S
C220 H204 0.939 . S
C220 C219 1.396 . S
C220 C221 1.397 . S
C221 C220 1.397 . S
C221 C222 1.385 . S
C222 H205 0.940 . S
C222 C221 1.385 . S
C222 C223 1.388 . S
C223 H202 0.939 . S
C223 C218 1.391 . S
C223 C222 1.388 . S
P224 O235 1.490 . S
P224 C238 1.812 . S
P224 C244 1.803 . S
P224 C250 1.819 . S
H225 C239 0.941 . S
H226 C240 0.939 . S
H227 C242 0.940 . S
H228 C243 0.940 . S
H229 C245 0.939 . S
H230 C246 0.942 . S
H231 C248 0.940 . S
H232 C249 0.939 . S
H233 C251 0.941 . S
H234 C255 0.939 . S
O235 P224 1.490 . S
H236 C252 0.939 . S
H237 C254 0.940 . S
C238 P224 1.812 . S
C238 C239 1.389 . S
C238 C243 1.391 . S
C239 H225 0.941 . S
C239 C238 1.389 . S
C239 C240 1.397 . S
C240 H226 0.939 . S
C240 C239 1.397 . S
C240 C241 1.378 . S
C241 C240 1.378 . S
C241 C242 1.378 . S
C242 H227 0.940 . S
C242 C241 1.378 . S
C242 C243 1.396 . S
C243 H228 0.940 . S
C243 C238 1.391 . S
C243 C242 1.396 . S
C244 P224 1.803 . S
C244 C245 1.378 . S
C244 C249 1.400 . S
C245 H229 0.939 . S
C245 C244 1.378 . S
C245 C246 1.361 . S
C246 H230 0.942 . S
C246 C245 1.361 . S
C246 C247 1.369 . S
C247 C246 1.369 . S
C247 C248 1.404 . S
C248 H231 0.940 . S
C248 C247 1.404 . S
C248 C249 1.389 . S
C249 H232 0.939 . S
C249 C244 1.400 . S
C249 C248 1.389 . S
C250 P224 1.819 . S
C250 C251 1.391 . S
C250 C255 1.391 . S
C251 H233 0.941 . S
C251 C250 1.391 . S
C251 C252 1.396 . S
C252 H236 0.939 . S
C252 C251 1.396 . S
C252 C253 1.397 . S
C253 C252 1.397 . S
C253 C254 1.385 . S
C254 H237 0.940 . S
C254 C253 1.385 . S
C254 C255 1.388 . S
C255 H234 0.939 . S
C255 C250 1.391 . S
C255 C254 1.388 . S
P256 O267 1.490 . S
P256 C270 1.812 . S
P256 C276 1.803 . S
P256 C282 1.819 . S
H257 C271 0.941 . S
H258 C272 0.939 . S
H259 C274 0.940 . S
H260 C275 0.940 . S
H261 C277 0.939 . S
H262 C278 0.942 . S
H263 C280 0.940 . S
H264 C281 0.939 . S
H265 C283 0.941 . S
H266 C287 0.939 . S
O267 P256 1.490 . S
H268 C284 0.939 . S
H269 C286 0.940 . S
C270 P256 1.812 . S
C270 C271 1.389 . S
C270 C275 1.391 . S
C271 H257 0.941 . S
C271 C270 1.389 . S
C271 C272 1.397 . S
C272 H258 0.939 . S
C272 C271 1.397 . S
C272 C273 1.378 . S
C273 C272 1.378 . S
C273 C274 1.378 . S
C274 H259 0.940 . S
C274 C273 1.378 . S
C274 C275 1.396 . S
C275 H260 0.940 . S
C275 C270 1.391 . S
C275 C274 1.396 . S
C276 P256 1.803 . S
C276 C277 1.378 . S
C276 C281 1.400 . S
C277 H261 0.939 . S
C277 C276 1.378 . S
C277 C278 1.361 . S
C278 H262 0.942 . S
C278 C277 1.361 . S
C278 C279 1.369 . S
C279 C278 1.369 . S
C279 C280 1.404 . S
C280 H263 0.940 . S
C280 C279 1.404 . S
C280 C281 1.389 . S
C281 H264 0.939 . S
C281 C276 1.400 . S
C281 C280 1.389 . S
C282 P256 1.819 . S
C282 C283 1.391 . S
C282 C287 1.391 . S
C283 H265 0.941 . S
C283 C282 1.391 . S
C283 C284 1.396 . S
C284 H268 0.939 . S
C284 C283 1.396 . S
C284 C285 1.397 . S
C285 C284 1.397 . S
C285 C286 1.385 . S
C286 H269 0.940 . S
C286 C285 1.385 . S
C286 C287 1.388 . S
C287 H266 0.939 . S
C287 C282 1.391 . S
C287 C286 1.388 . S
P288 O299 1.490 1_565 S
P288 C302 1.812 . S
P288 C308 1.803 1_565 S
P288 C314 1.819 . S
H289 C303 0.941 . S
H290 C304 0.939 . S
H291 C306 0.940 . S
H292 C307 0.940 . S
H293 C309 0.939 . S
H294 C310 0.942 . S
H295 C312 0.940 1_565 S
H296 C313 0.939 . S
H297 C315 0.941 . S
H298 C319 0.933 1_545 S
O299 P288 1.490 1_545 S
H300 C316 0.939 . S
H301 C318 0.940 . S
C302 P288 1.812 . S
C302 C303 1.389 . S
C302 C307 1.391 . S
C303 H289 0.941 . S
C303 C302 1.389 . S
C303 C304 1.397 . S
C304 H290 0.939 . S
C304 C303 1.397 . S
C304 C305 1.378 . S
C305 C304 1.378 . S
C305 C306 1.378 . S
C306 H291 0.940 . S
C306 C305 1.378 . S
C306 C307 1.396 . S
C307 H292 0.940 . S
C307 C302 1.391 . S
C307 C306 1.396 . S
C308 P288 1.803 1_545 S
C308 C309 1.378 . S
C308 C313 1.400 1_545 S
C309 H293 0.939 . S
C309 C308 1.378 . S
C309 C310 1.361 . S
C310 H294 0.942 . S
C310 C309 1.361 . S
C310 C311 1.369 . S
C311 C310 1.369 . S
C311 C312 1.404 . S
C312 H295 0.940 1_545 S
C312 C311 1.404 . S
C312 C313 1.389 1_545 S
C313 H296 0.939 . S
C313 C308 1.400 1_565 S
C313 C312 1.389 1_565 S
C314 P288 1.819 . S
C314 C315 1.391 . S
C314 C319 1.395 . S
C315 H297 0.941 . S
C315 C314 1.391 . S
C315 C316 1.396 . S
C316 H300 0.939 . S
C316 C315 1.396 . S
C316 C317 1.397 . S
C317 C316 1.397 . S
C317 C318 1.385 . S
C318 H301 0.940 . S
C318 C317 1.385 . S
C318 C319 1.391 . S
C319 H298 0.933 1_565 S
C319 C314 1.395 . S
C319 C318 1.391 . S
P320 O331 1.490 . S
P320 C334 1.812 . S
P320 C340 1.803 . S
P320 C346 1.819 . S
H321 C335 0.941 . S
H322 C336 0.939 . S
H323 C338 0.940 . S
H324 C339 0.940 . S
H325 C341 0.939 . S
H326 C342 0.942 . S
H327 C344 0.940 . S
H328 C345 0.939 . S
H329 C347 0.941 . S
H330 C351 0.939 . S
O331 P320 1.490 . S
H332 C348 0.939 . S
H333 C350 0.940 . S
C334 P320 1.812 . S
C334 C335 1.389 . S
C334 C339 1.391 . S
C335 H321 0.941 . S
C335 C334 1.389 . S
C335 C336 1.397 . S
C336 H322 0.939 . S
C336 C335 1.397 . S
C336 C337 1.378 . S
C337 C336 1.378 . S
C337 C338 1.378 . S
C338 H323 0.940 . S
C338 C337 1.378 . S
C338 C339 1.396 . S
C339 H324 0.940 . S
C339 C334 1.391 . S
C339 C338 1.396 . S
C340 P320 1.803 . S
C340 C341 1.378 . S
C340 C345 1.400 . S
C341 H325 0.939 . S
C341 C340 1.378 . S
C341 C342 1.361 . S
C342 H326 0.942 . S
C342 C341 1.361 . S
C342 C343 1.369 . S
C343 C342 1.369 . S
C343 C344 1.404 . S
C344 H327 0.940 . S
C344 C343 1.404 . S
C344 C345 1.389 . S
C345 H328 0.939 . S
C345 C340 1.400 . S
C345 C344 1.389 . S
C346 P320 1.819 . S
C346 C347 1.391 . S
C346 C351 1.391 . S
C347 H329 0.941 . S
C347 C346 1.391 . S
C347 C348 1.396 . S
C348 H332 0.939 . S
C348 C347 1.396 . S
C348 C349 1.397 . S
C349 C348 1.397 . S
C349 C350 1.385 . S
C350 H333 0.940 . S
C350 C349 1.385 . S
C350 C351 1.388 . S
C351 H330 0.939 . S
C351 C346 1.391 . S
C351 C350 1.388 . S
P352 O363 1.490 . S
P352 C366 1.812 . S
P352 C372 1.803 . S
P352 C378 1.819 . S
H353 C367 0.941 . S
H354 C368 0.939 . S
H355 C370 0.940 . S
H356 C371 0.940 . S
H357 C373 0.939 . S
H358 C374 0.942 . S
H359 C376 0.940 . S
H360 C377 0.939 . S
H361 C379 0.941 . S
H362 C383 0.939 . S
O363 P352 1.490 . S
H364 C380 0.939 . S
H365 C382 0.940 . S
C366 P352 1.812 . S
C366 C367 1.389 . S
C366 C371 1.391 . S
C367 H353 0.941 . S
C367 C366 1.389 . S
C367 C368 1.397 . S
C368 H354 0.939 . S
C368 C367 1.397 . S
C368 C369 1.378 . S
C369 C368 1.378 . S
C369 C370 1.378 . S
C370 H355 0.940 . S
C370 C369 1.378 . S
C370 C371 1.396 . S
C371 H356 0.940 . S
C371 C366 1.391 . S
C371 C370 1.396 . S
C372 P352 1.803 . S
C372 C373 1.378 . S
C372 C377 1.400 . S
C373 H357 0.939 . S
C373 C372 1.378 . S
C373 C374 1.361 . S
C374 H358 0.942 . S
C374 C373 1.361 . S
C374 C375 1.369 . S
C375 C374 1.369 . S
C375 C376 1.404 . S
C376 H359 0.940 . S
C376 C375 1.404 . S
C376 C377 1.389 . S
C377 H360 0.939 . S
C377 C372 1.400 . S
C377 C376 1.389 . S
C378 P352 1.819 . S
C378 C379 1.391 . S
C378 C383 1.391 . S
C379 H361 0.941 . S
C379 C378 1.391 . S
C379 C380 1.396 . S
C380 H364 0.939 . S
C380 C379 1.396 . S
C380 C381 1.397 . S
C381 C380 1.397 . S
C381 C382 1.385 . S
C382 H365 0.940 . S
C382 C381 1.385 . S
C382 C383 1.388 . S
C383 H362 0.939 . S
C383 C378 1.391 . S
C383 C382 1.388 . S
P384 O395 1.490 . S
P384 C398 1.812 . S
P384 C404 1.803 . S
P384 C410 1.819 . S
H385 C399 0.941 . S
H386 C400 0.939 . S
H387 C402 0.940 . S
H388 C403 0.940 . S
H389 C405 0.939 . S
H390 C406 0.942 . S
H391 C408 0.940 . S
H392 C409 0.939 . S
H393 C411 0.941 . S
H394 C415 0.939 . S
O395 P384 1.490 . S
H396 C412 0.939 . S
H397 C414 0.940 . S
C398 P384 1.812 . S
C398 C399 1.389 . S
C398 C403 1.391 . S
C399 H385 0.941 . S
C399 C398 1.389 . S
C399 C400 1.397 . S
C400 H386 0.939 . S
C400 C399 1.397 . S
C400 C401 1.378 . S
C401 C400 1.378 . S
C401 C402 1.378 . S
C402 H387 0.940 . S
C402 C401 1.378 . S
C402 C403 1.396 . S
C403 H388 0.940 . S
C403 C398 1.391 . S
C403 C402 1.396 . S
C404 P384 1.803 . S
C404 C405 1.378 . S
C404 C409 1.400 . S
C405 H389 0.939 . S
C405 C404 1.378 . S
C405 C406 1.361 . S
C406 H390 0.942 . S
C406 C405 1.361 . S
C406 C407 1.369 . S
C407 C406 1.369 . S
C407 C408 1.404 . S
C408 H391 0.940 . S
C408 C407 1.404 . S
C408 C409 1.389 . S
C409 H392 0.939 . S
C409 C404 1.400 . S
C409 C408 1.389 . S
C410 P384 1.819 . S
C410 C411 1.391 . S
C410 C415 1.391 . S
C411 H393 0.941 . S
C411 C410 1.391 . S
C411 C412 1.396 . S
C412 H396 0.939 . S
C412 C411 1.396 . S
C412 C413 1.397 . S
C413 C412 1.397 . S
C413 C414 1.385 . S
C414 H397 0.940 . S
C414 C413 1.385 . S
C414 C415 1.388 . S
C415 H394 0.939 . S
C415 C410 1.391 . S
C415 C414 1.388 . S
P416 O427 1.490 . S
P416 C430 1.812 . S
P416 C436 1.803 . S
P416 C442 1.819 . S
H417 C431 0.941 . S
H418 C432 0.939 . S
H419 C434 0.940 . S
H420 C435 0.940 . S
H421 C437 0.939 . S
H422 C438 0.942 . S
H423 C440 0.940 . S
H424 C441 0.939 . S
H425 C443 0.941 . S
H426 C447 0.939 . S
O427 P416 1.490 . S
H428 C444 0.939 . S
H429 C446 0.940 . S
C430 P416 1.812 . S
C430 C431 1.389 . S
C430 C435 1.391 . S
C431 H417 0.941 . S
C431 C430 1.389 . S
C431 C432 1.397 . S
C432 H418 0.939 . S
C432 C431 1.397 . S
C432 C433 1.378 . S
C433 C432 1.378 . S
C433 C434 1.378 . S
C434 H419 0.940 . S
C434 C433 1.378 . S
C434 C435 1.396 . S
C435 H420 0.940 . S
C435 C430 1.391 . S
C435 C434 1.396 . S
C436 P416 1.803 . S
C436 C437 1.378 . S
C436 C441 1.400 1_556 S
C437 H421 0.939 . S
C437 C436 1.378 . S
C437 C438 1.361 1_556 S
C438 H422 0.942 . S
C438 C437 1.361 1_554 S
C438 C439 1.369 . S
C439 C438 1.369 . S
C439 C440 1.404 . S
C440 H423 0.940 . S
C440 C439 1.404 . S
C440 C441 1.389 . S
C441 H424 0.939 . S
C441 C436 1.400 1_554 S
C441 C440 1.389 . S
C442 P416 1.819 . S
C442 C443 1.391 . S
C442 C447 1.391 . S
C443 H425 0.941 . S
C443 C442 1.391 . S
C443 C444 1.396 . S
C444 H428 0.939 . S
C444 C443 1.396 . S
C444 C445 1.397 . S
C445 C444 1.397 . S
C445 C446 1.385 . S
C446 H429 0.940 . S
C446 C445 1.385 . S
C446 C447 1.388 . S
C447 H426 0.939 . S
C447 C442 1.391 . S
C447 C446 1.388 . S
P448 O459 1.490 . S
P448 C462 1.812 . S
P448 C468 1.803 . S
P448 C474 1.819 . S
H449 C463 0.941 . S
H450 C464 0.939 . S
H451 C466 0.940 . S
H452 C467 0.940 . S
H453 C469 0.939 . S
H454 C470 0.942 . S
H455 C472 0.940 . S
H456 C473 0.939 . S
H457 C475 0.941 . S
H458 C479 0.939 . S
O459 P448 1.490 . S
H460 C476 0.939 . S
H461 C478 0.940 . S
C462 P448 1.812 . S
C462 C463 1.389 . S
C462 C467 1.391 . S
C463 H449 0.941 . S
C463 C462 1.389 . S
C463 C464 1.397 . S
C464 H450 0.939 . S
C464 C463 1.397 . S
C464 C465 1.378 . S
C465 C464 1.378 . S
C465 C466 1.378 . S
C466 H451 0.940 . S
C466 C465 1.378 . S
C466 C467 1.396 . S
C467 H452 0.940 . S
C467 C462 1.391 . S
C467 C466 1.396 . S
C468 P448 1.803 . S
C468 C469 1.378 . S
C468 C473 1.400 . S
C469 H453 0.939 . S
C469 C468 1.378 . S
C469 C470 1.361 . S
C470 H454 0.942 . S
C470 C469 1.361 . S
C470 C471 1.369 . S
C471 C470 1.369 . S
C471 C472 1.404 . S
C472 H455 0.940 . S
C472 C471 1.404 . S
C472 C473 1.389 . S
C473 H456 0.939 . S
C473 C468 1.400 . S
C473 C472 1.389 . S
C474 P448 1.819 . S
C474 C475 1.391 . S
C474 C479 1.391 . S
C475 H457 0.941 . S
C475 C474 1.391 . S
C475 C476 1.396 . S
C476 H460 0.939 . S
C476 C475 1.396 . S
C476 C477 1.397 . S
C477 C476 1.397 . S
C477 C478 1.385 . S
C478 H461 0.940 . S
C478 C477 1.385 . S
C478 C479 1.388 . S
C479 H458 0.939 . S
C479 C474 1.391 . S
C479 C478 1.388 . S
P480 O491 1.490 1_546 S
P480 C494 1.812 . S
P480 C500 1.803 1_556 S
P480 C506 1.819 1_545 S
H481 C495 0.941 . S
H482 C496 0.939 . S
H483 C498 0.940 . S
H484 C499 0.940 . S
H485 C501 0.939 . S
H486 C502 0.942 . S
H487 C504 0.940 1_556 S
H488 C505 0.939 . S
H489 C507 0.941 . S
H490 C511 0.934 1_554 S
O491 P480 1.490 1_564 S
H492 C508 0.939 . S
H493 C510 0.951 . S
C494 P480 1.812 . S
C494 C495 1.389 . S
C494 C499 1.391 . S
C495 H481 0.941 . S
C495 C494 1.389 . S
C495 C496 1.397 . S
C496 H482 0.939 . S
C496 C495 1.397 . S
C496 C497 1.378 . S
C497 C496 1.378 . S
C497 C498 1.378 . S
C498 H483 0.940 . S
C498 C497 1.378 . S
C498 C499 1.396 . S
C499 H484 0.940 . S
C499 C494 1.391 . S
C499 C498 1.396 . S
C500 P480 1.803 1_554 S
C500 C501 1.378 . S
C500 C505 1.400 1_554 S
C501 H485 0.939 . S
C501 C500 1.378 . S
C501 C502 1.361 . S
C502 H486 0.942 . S
C502 C501 1.361 . S
C502 C503 1.369 . S
C503 C502 1.369 . S
C503 C504 1.404 . S
C504 H487 0.940 1_554 S
C504 C503 1.404 . S
C504 C505 1.389 1_554 S
C505 H488 0.939 . S
C505 C500 1.400 1_556 S
C505 C504 1.389 1_556 S
C506 P480 1.819 1_565 S
C506 C507 1.391 . S
C506 C511 1.395 1_565 S
C507 H489 0.941 . S
C507 C506 1.391 . S
C507 C508 1.396 . S
C508 H492 0.939 . S
C508 C507 1.396 . S
C508 C509 1.397 . S
C509 C508 1.397 . S
C509 C510 1.367 1_565 S
C510 H493 0.951 . S
C510 C509 1.367 1_545 S
C510 C511 1.398 . S
C511 H490 0.934 1_556 S
C511 C506 1.395 1_545 S
C511 C510 1.398 . S
Li512 N529 1.990 . S
Li512 O572 1.956 . S
Li512 O573 1.970 1_556 S
Li512 O574 1.961 . S
Li513 N537 1.990 . S
Li513 O572 1.970 1_554 S
Li513 O573 1.956 . S
Li513 O575 1.961 . S
Li514 N559 1.990 . S
Li514 O572 1.961 . S
Li514 O574 1.956 . S
Li514 O575 1.970 1_556 S
Li515 N565 1.990 . S
Li515 O573 1.961 . S
Li515 O574 1.970 1_554 S
Li515 O575 1.956 . S
C516 C518 1.348 1_556 S
C516 C519 1.356 . S
C516 O572 1.325 . S
N517 C520 1.314 1_556 S
N517 C521 1.279 . S
C518 C516 1.348 1_554 S
C518 C520 1.353 . S
C518 H576 0.929 . S
C519 C516 1.356 . S
C519 C521 1.358 . S
C519 H577 0.930 . S
C520 N517 1.314 1_554 S
C520 C518 1.353 . S
C520 H578 0.930 . S
C521 N517 1.279 . S
C521 C519 1.358 . S
C521 H579 0.930 . S
C522 C525 1.348 . S
C522 C526 1.356 . S
C522 O573 1.325 . S
C523 N524 1.279 . S
C523 C526 1.358 . S
C523 H580 0.930 . S
N524 C523 1.279 . S
N524 C527 1.314 . S
C525 C522 1.348 . S
C525 C527 1.353 . S
C525 H581 0.929 . S
C526 C522 1.356 . S
C526 C523 1.358 . S
C526 H582 0.930 . S
C527 N524 1.314 . S
C527 C525 1.353 . S
C527 H583 0.930 . S
C528 N529 1.314 . S
C528 C533 1.353 . S
C528 H534 0.930 . S
N529 Li512 1.990 . S
N529 C528 1.314 . S
N529 C531 1.279 . S
C530 C531 1.358 . S
C530 C532 1.356 . S
C530 H584 0.930 . S
C531 N529 1.279 . S
C531 C530 1.358 . S
C531 H535 0.930 . S
C532 C530 1.356 . S
C532 C533 1.348 . S
C533 C528 1.353 . S
C533 C532 1.348 . S
C533 H585 0.929 . S
H534 C528 0.930 . S
H535 C531 0.930 . S
C536 N537 1.314 . S
C536 C538 1.353 . S
C536 H542 0.930 . S
N537 Li513 1.990 . S
N537 C536 1.314 . S
N537 C540 1.279 . S
C538 C536 1.353 . S
C538 C541 1.348 . S
C538 H586 0.929 . S
C539 C540 1.358 . S
C539 C541 1.356 . S
C539 H587 0.930 . S
C540 N537 1.279 . S
C540 C539 1.358 . S
C540 H543 0.930 . S
C541 C538 1.348 . S
C541 C539 1.356 . S
H542 C536 0.930 . S
H543 C540 0.930 . S
C544 C546 1.348 . S
C544 C547 1.356 . S
C544 O574 1.325 . S
N545 C548 1.314 . S
N545 C549 1.279 . S
C546 C544 1.348 . S
C546 C548 1.353 . S
C546 H588 0.929 . S
C547 C544 1.356 . S
C547 C549 1.358 . S
C547 H589 0.930 . S
C548 N545 1.314 . S
C548 C546 1.353 . S
C548 H590 0.930 . S
C549 N545 1.279 . S
C549 C547 1.358 . S
C549 H591 0.930 . S
C550 C551 1.348 1_554 S
C550 C552 1.356 . S
C550 O575 1.325 . S
C551 C550 1.348 1_556 S
C551 C553 1.353 . S
C551 H592 0.929 . S
C552 C550 1.356 . S
C552 C554 1.358 . S
C552 H593 0.930 . S
C553 C551 1.353 . S
C553 N555 1.314 1_556 S
C553 H594 0.930 . S
C554 C552 1.358 . S
C554 N555 1.279 . S
C554 H595 0.930 . S
N555 C553 1.314 1_554 S
N555 C554 1.279 . S
C556 C558 1.353 . S
C556 N559 1.314 . S
C556 H562 0.930 . S
C557 N559 1.279 . S
C557 C560 1.358 . S
C557 H563 0.930 . S
C558 C556 1.353 . S
C558 C561 1.348 . S
C558 H596 0.929 . S
N559 Li514 1.990 . S
N559 C556 1.314 . S
N559 C557 1.279 . S
C560 C557 1.358 . S
C560 C561 1.356 . S
C560 H597 0.930 . S
C561 C558 1.348 . S
C561 C560 1.356 . S
H562 C556 0.930 . S
H563 C557 0.930 . S
C564 N565 1.314 . S
C564 C566 1.353 . S
C564 H570 0.930 . S
N565 Li515 1.990 . S
N565 C564 1.314 . S
N565 C568 1.279 . S
C566 C564 1.353 . S
C566 C569 1.348 . S
C566 H598 0.929 . S
C567 C568 1.358 . S
C567 C569 1.356 . S
C567 H599 0.930 . S
C568 N565 1.279 . S
C568 C567 1.358 . S
C568 H571 0.930 . S
C569 C566 1.348 . S
C569 C567 1.356 . S
H570 C564 0.930 . S
H571 C568 0.930 . S
O572 Li512 1.956 . S
O572 Li513 1.970 1_556 S
O572 Li514 1.961 . S
O572 C516 1.325 . S
O573 Li512 1.970 1_554 S
O573 Li513 1.956 . S
O573 Li515 1.961 . S
O573 C522 1.325 . S
O574 Li512 1.961 . S
O574 Li514 1.956 . S
O574 Li515 1.970 1_556 S
O574 C544 1.325 . S
O575 Li513 1.961 . S
O575 Li514 1.970 1_554 S
O575 Li515 1.956 . S
O575 C550 1.325 . S
H576 C518 0.929 . S
H577 C519 0.930 . S
H578 C520 0.930 . S
H579 C521 0.930 . S
H580 C523 0.930 . S
H581 C525 0.929 . S
H582 C526 0.930 . S
H583 C527 0.930 . S
H584 C530 0.930 . S
H585 C533 0.929 . S
H586 C538 0.929 . S
H587 C539 0.930 . S
H588 C546 0.929 . S
H589 C547 0.930 . S
H590 C548 0.930 . S
H591 C549 0.930 . S
H592 C551 0.929 . S
H593 C552 0.930 . S
H594 C553 0.930 . S
H595 C554 0.930 . S
H596 C558 0.929 . S
H597 C560 0.930 . S
H598 C566 0.929 . S
H599 C567 0.930 . S
Li600 N617 1.990 . S
Li600 O660 1.956 . S
Li600 O661 1.970 . S
Li600 O662 1.961 . S
Li601 N625 1.990 . S
Li601 O660 1.970 . S
Li601 O661 1.956 . S
Li601 O663 1.961 . S
Li602 N647 1.990 . S
Li602 O660 1.961 . S
Li602 O662 1.956 . S
Li602 O663 1.970 . S
Li603 N653 1.990 . S
Li603 O661 1.961 . S
Li603 O662 1.970 . S
Li603 O663 1.956 . S
C604 C606 1.348 . S
C604 C607 1.356 . S
C604 O660 1.325 . S
N605 C608 1.314 . S
N605 C609 1.279 . S
C606 C604 1.348 . S
C606 C608 1.353 . S
C606 H664 0.929 . S
C607 C604 1.356 . S
C607 C609 1.358 . S
C607 H665 0.930 . S
C608 N605 1.314 . S
C608 C606 1.353 . S
C608 H666 0.930 . S
C609 N605 1.279 . S
C609 C607 1.358 . S
C609 H667 0.930 . S
C610 C613 1.348 . S
C610 C614 1.356 . S
C610 O661 1.325 . S
C611 N612 1.279 . S
C611 C614 1.358 . S
C611 H668 0.930 . S
N612 C611 1.279 . S
N612 C615 1.314 . S
C613 C610 1.348 . S
C613 C615 1.353 . S
C613 H669 0.929 . S
C614 C610 1.356 . S
C614 C611 1.358 . S
C614 H670 0.930 . S
C615 N612 1.314 . S
C615 C613 1.353 . S
C615 H671 0.930 . S
C616 N617 1.314 . S
C616 C621 1.353 . S
C616 H622 0.930 . S
N617 Li600 1.990 . S
N617 C616 1.314 . S
N617 C619 1.279 . S
C618 C619 1.358 . S
C618 C620 1.356 . S
C618 H672 0.930 . S
C619 N617 1.279 . S
C619 C618 1.358 . S
C619 H623 0.930 . S
C620 C618 1.356 . S
C620 C621 1.348 . S
C621 C616 1.353 . S
C621 C620 1.348 . S
C621 H673 0.929 . S
H622 C616 0.930 . S
H623 C619 0.930 . S
C624 N625 1.314 . S
C624 C626 1.353 . S
C624 H630 0.930 . S
N625 Li601 1.990 . S
N625 C624 1.314 . S
N625 C628 1.279 . S
C626 C624 1.353 . S
C626 C629 1.348 . S
C626 H674 0.929 . S
C627 C628 1.358 . S
C627 C629 1.356 . S
C627 H675 0.930 . S
C628 N625 1.279 . S
C628 C627 1.358 . S
C628 H631 0.930 . S
C629 C626 1.348 . S
C629 C627 1.356 . S
H630 C624 0.930 . S
H631 C628 0.930 . S
C632 C634 1.348 . S
C632 C635 1.356 . S
C632 O662 1.325 . S
N633 C636 1.314 . S
N633 C637 1.279 . S
C634 C632 1.348 . S
C634 C636 1.353 . S
C634 H676 0.929 . S
C635 C632 1.356 . S
C635 C637 1.358 . S
C635 H677 0.930 . S
C636 N633 1.314 . S
C636 C634 1.353 . S
C636 H678 0.930 . S
C637 N633 1.279 . S
C637 C635 1.358 . S
C637 H679 0.930 . S
C638 C639 1.348 . S
C638 C640 1.356 . S
C638 O663 1.325 . S
C639 C638 1.348 . S
C639 C641 1.353 . S
C639 H680 0.929 . S
C640 C638 1.356 . S
C640 C642 1.358 . S
C640 H681 0.930 . S
C641 C639 1.353 . S
C641 N643 1.314 . S
C641 H682 0.930 . S
C642 C640 1.358 . S
C642 N643 1.279 . S
C642 H683 0.930 . S
N643 C641 1.314 . S
N643 C642 1.279 . S
C644 C646 1.353 . S
C644 N647 1.314 . S
C644 H650 0.930 . S
C645 N647 1.279 . S
C645 C648 1.358 . S
C645 H651 0.930 . S
C646 C644 1.353 . S
C646 C649 1.348 . S
C646 H684 0.929 . S
N647 Li602 1.990 . S
N647 C644 1.314 . S
N647 C645 1.279 . S
C648 C645 1.358 . S
C648 C649 1.356 . S
C648 H685 0.930 . S
C649 C646 1.348 . S
C649 C648 1.356 . S
H650 C644 0.930 . S
H651 C645 0.930 . S
C652 N653 1.314 . S
C652 C654 1.353 . S
C652 H658 0.930 . S
N653 Li603 1.990 . S
N653 C652 1.314 . S
N653 C656 1.279 . S
C654 C652 1.353 . S
C654 C657 1.348 . S
C654 H686 0.929 . S
C655 C656 1.358 . S
C655 C657 1.356 . S
C655 H687 0.930 . S
C656 N653 1.279 . S
C656 C655 1.358 . S
C656 H659 0.930 . S
C657 C654 1.348 . S
C657 C655 1.356 . S
H658 C652 0.930 . S
H659 C656 0.930 . S
O660 Li600 1.956 . S
O660 Li601 1.970 . S
O660 Li602 1.961 . S
O660 C604 1.325 . S
O661 Li600 1.970 . S
O661 Li601 1.956 . S
O661 Li603 1.961 . S
O661 C610 1.325 . S
O662 Li600 1.961 . S
O662 Li602 1.956 . S
O662 Li603 1.970 . S
O662 C632 1.325 . S
O663 Li601 1.961 . S
O663 Li602 1.970 . S
O663 Li603 1.956 . S
O663 C638 1.325 . S
H664 C606 0.929 . S
H665 C607 0.930 . S
H666 C608 0.930 . S
H667 C609 0.930 . S
H668 C611 0.930 . S
H669 C613 0.929 . S
H670 C614 0.930 . S
H671 C615 0.930 . S
H672 C618 0.930 . S
H673 C621 0.929 . S
H674 C626 0.929 . S
H675 C627 0.930 . S
H676 C634 0.929 . S
H677 C635 0.930 . S
H678 C636 0.930 . S
H679 C637 0.930 . S
H680 C639 0.929 . S
H681 C640 0.930 . S
H682 C641 0.930 . S
H683 C642 0.930 . S
H684 C646 0.929 . S
H685 C648 0.930 . S
H686 C654 0.929 . S
H687 C655 0.930 . S
Li688 N705 1.990 . S
Li688 O748 1.956 . S
Li688 O749 1.970 1_556 S
Li688 O750 1.961 . S
Li689 N713 1.990 . S
Li689 O748 1.970 1_554 S
Li689 O749 1.956 . S
Li689 O751 1.961 . S
Li690 N735 1.990 . S
Li690 O748 1.961 . S
Li690 O750 1.956 . S
Li690 O751 1.970 1_556 S
Li691 N741 1.990 . S
Li691 O749 1.961 . S
Li691 O750 1.970 1_554 S
Li691 O751 1.956 . S
C692 C694 1.348 1_556 S
C692 C695 1.356 . S
C692 O748 1.325 . S
N693 C696 1.314 1_556 S
N693 C697 1.279 . S
C694 C692 1.348 1_554 S
C694 C696 1.353 . S
C694 H752 0.929 . S
C695 C692 1.356 . S
C695 C697 1.358 . S
C695 H753 0.930 . S
C696 N693 1.314 1_554 S
C696 C694 1.353 . S
C696 H754 0.930 . S
C697 N693 1.279 . S
C697 C695 1.358 . S
C697 H755 0.930 . S
C698 C701 1.348 . S
C698 C702 1.356 . S
C698 O749 1.325 . S
C699 N700 1.279 . S
C699 C702 1.358 . S
C699 H756 0.930 . S
N700 C699 1.279 . S
N700 C703 1.314 . S
C701 C698 1.348 . S
C701 C703 1.353 . S
C701 H757 0.929 . S
C702 C698 1.356 . S
C702 C699 1.358 . S
C702 H758 0.930 . S
C703 N700 1.314 . S
C703 C701 1.353 . S
C703 H759 0.930 . S
C704 N705 1.314 . S
C704 C709 1.353 . S
C704 H710 0.930 . S
N705 Li688 1.990 . S
N705 C704 1.314 . S
N705 C707 1.279 . S
C706 C707 1.358 . S
C706 C708 1.356 . S
C706 H760 0.930 . S
C707 N705 1.279 . S
C707 C706 1.358 . S
C707 H711 0.930 . S
C708 C706 1.356 . S
C708 C709 1.348 . S
C709 C704 1.353 . S
C709 C708 1.348 . S
C709 H761 0.929 . S
H710 C704 0.930 . S
H711 C707 0.930 . S
C712 N713 1.314 . S
C712 C714 1.353 . S
C712 H718 0.930 . S
N713 Li689 1.990 . S
N713 C712 1.314 . S
N713 C716 1.279 . S
C714 C712 1.353 . S
C714 C717 1.348 . S
C714 H762 0.929 . S
C715 C716 1.358 . S
C715 C717 1.356 . S
C715 H763 0.930 . S
C716 N713 1.279 . S
C716 C715 1.358 . S
C716 H719 0.930 . S
C717 C714 1.348 . S
C717 C715 1.356 . S
H718 C712 0.930 . S
H719 C716 0.930 . S
C720 C722 1.348 . S
C720 C723 1.356 . S
C720 O750 1.325 . S
N721 C724 1.314 . S
N721 C725 1.279 . S
C722 C720 1.348 . S
C722 C724 1.353 . S
C722 H764 0.929 . S
C723 C720 1.356 . S
C723 C725 1.358 . S
C723 H765 0.930 . S
C724 N721 1.314 . S
C724 C722 1.353 . S
C724 H766 0.930 . S
C725 N721 1.279 . S
C725 C723 1.358 . S
C725 H767 0.930 . S
C726 C727 1.348 1_554 S
C726 C728 1.356 . S
C726 O751 1.325 . S
C727 C726 1.348 1_556 S
C727 C729 1.353 . S
C727 H768 0.929 . S
C728 C726 1.356 . S
C728 C730 1.358 . S
C728 H769 0.930 . S
C729 C727 1.353 . S
C729 N731 1.314 1_556 S
C729 H770 0.930 . S
C730 C728 1.358 . S
C730 N731 1.279 . S
C730 H771 0.930 . S
N731 C729 1.314 1_554 S
N731 C730 1.279 . S
C732 C734 1.353 . S
C732 N735 1.314 . S
C732 H738 0.930 . S
C733 N735 1.279 . S
C733 C736 1.358 . S
C733 H739 0.930 . S
C734 C732 1.353 . S
C734 C737 1.348 . S
C734 H772 0.929 . S
N735 Li690 1.990 . S
N735 C732 1.314 . S
N735 C733 1.279 . S
C736 C733 1.358 . S
C736 C737 1.356 . S
C736 H773 0.930 . S
C737 C734 1.348 . S
C737 C736 1.356 . S
H738 C732 0.930 . S
H739 C733 0.930 . S
C740 N741 1.314 . S
C740 C742 1.353 . S
C740 H746 0.930 . S
N741 Li691 1.990 . S
N741 C740 1.314 . S
N741 C744 1.279 . S
C742 C740 1.353 . S
C742 C745 1.348 . S
C742 H774 0.929 . S
C743 C744 1.358 . S
C743 C745 1.356 . S
C743 H775 0.930 . S
C744 N741 1.279 . S
C744 C743 1.358 . S
C744 H747 0.930 . S
C745 C742 1.348 . S
C745 C743 1.356 . S
H746 C740 0.930 . S
H747 C744 0.930 . S
O748 Li688 1.956 . S
O748 Li689 1.970 1_556 S
O748 Li690 1.961 . S
O748 C692 1.325 . S
O749 Li688 1.970 1_554 S
O749 Li689 1.956 . S
O749 Li691 1.961 . S
O749 C698 1.325 . S
O750 Li688 1.961 . S
O750 Li690 1.956 . S
O750 Li691 1.970 1_556 S
O750 C720 1.325 . S
O751 Li689 1.961 . S
O751 Li690 1.970 1_554 S
O751 Li691 1.956 . S
O751 C726 1.325 . S
H752 C694 0.929 . S
H753 C695 0.930 . S
H754 C696 0.930 . S
H755 C697 0.930 . S
H756 C699 0.930 . S
H757 C701 0.929 . S
H758 C702 0.930 . S
H759 C703 0.930 . S
H760 C706 0.930 . S
H761 C709 0.929 . S
H762 C714 0.929 . S
H763 C715 0.930 . S
H764 C722 0.929 . S
H765 C723 0.930 . S
H766 C724 0.930 . S
H767 C725 0.930 . S
H768 C727 0.929 . S
H769 C728 0.930 . S
H770 C729 0.930 . S
H771 C730 0.930 . S
H772 C734 0.929 . S
H773 C736 0.930 . S
H774 C742 0.929 . S
H775 C743 0.930 . S
Li776 N793 1.990 . S
Li776 O836 1.956 . S
Li776 O837 1.970 1_545 S
Li776 O838 1.961 . S
Li777 N801 1.990 . S
Li777 O836 1.970 1_565 S
Li777 O837 1.956 . S
Li777 O839 1.961 . S
Li778 N823 1.990 . S
Li778 O836 1.961 . S
Li778 O838 1.956 . S
Li778 O839 1.970 1_545 S
Li779 N829 1.990 . S
Li779 O837 1.961 . S
Li779 O838 1.970 1_565 S
Li779 O839 1.956 . S
C780 C782 1.348 . S
C780 C783 1.356 . S
C780 O836 1.325 . S
N781 C784 1.314 . S
N781 C785 1.279 . S
C782 C780 1.348 . S
C782 C784 1.353 . S
C782 H840 0.929 . S
C783 C780 1.356 . S
C783 C785 1.358 . S
C783 H841 0.930 . S
C784 N781 1.314 . S
C784 C782 1.353 . S
C784 H842 0.930 . S
C785 N781 1.279 . S
C785 C783 1.358 . S
C785 H843 0.930 . S
C786 C789 1.348 1_565 S
C786 C790 1.356 . S
C786 O837 1.325 . S
C787 N788 1.279 . S
C787 C790 1.358 . S
C787 H844 0.930 . S
N788 C787 1.279 . S
N788 C791 1.314 1_565 S
C789 C786 1.348 1_545 S
C789 C791 1.353 . S
C789 H845 0.929 . S
C790 C786 1.356 . S
C790 C787 1.358 . S
C790 H846 0.930 . S
C791 N788 1.314 1_545 S
C791 C789 1.353 . S
C791 H847 0.930 . S
C792 N793 1.314 . S
C792 C797 1.353 . S
C792 H798 0.930 . S
N793 Li776 1.990 . S
N793 C792 1.314 . S
N793 C795 1.279 . S
C794 C795 1.358 . S
C794 C796 1.356 . S
C794 H848 0.930 . S
C795 N793 1.279 . S
C795 C794 1.358 . S
C795 H799 0.930 . S
C796 C794 1.356 . S
C796 C797 1.348 . S
C797 C792 1.353 . S
C797 C796 1.348 . S
C797 H849 0.929 . S
H798 C792 0.930 . S
H799 C795 0.930 . S
C800 N801 1.314 . S
C800 C802 1.353 . S
C800 H806 0.930 . S
N801 Li777 1.990 . S
N801 C800 1.314 . S
N801 C804 1.279 . S
C802 C800 1.353 . S
C802 C805 1.348 . S
C802 H850 0.929 . S
C803 C804 1.358 . S
C803 C805 1.356 . S
C803 H851 0.930 . S
C804 N801 1.279 . S
C804 C803 1.358 . S
C804 H807 0.930 . S
C805 C802 1.348 . S
C805 C803 1.356 . S
H806 C800 0.930 . S
H807 C804 0.930 . S
C808 C810 1.348 1_545 S
C808 C811 1.356 . S
C808 O838 1.325 . S
N809 C812 1.314 1_545 S
N809 C813 1.279 . S
C810 C808 1.348 1_565 S
C810 C812 1.353 . S
C810 H852 0.929 . S
C811 C808 1.356 . S
C811 C813 1.358 . S
C811 H853 0.930 . S
C812 N809 1.314 1_565 S
C812 C810 1.353 . S
C812 H854 0.930 . S
C813 N809 1.279 . S
C813 C811 1.358 . S
C813 H855 0.930 . S
C814 C815 1.348 . S
C814 C816 1.356 . S
C814 O839 1.325 . S
C815 C814 1.348 . S
C815 C817 1.353 . S
C815 H856 0.929 . S
C816 C814 1.356 . S
C816 C818 1.358 . S
C816 H857 0.930 . S
C817 C815 1.353 . S
C817 N819 1.314 . S
C817 H858 0.930 . S
C818 C816 1.358 . S
C818 N819 1.279 . S
C818 H859 0.930 . S
N819 C817 1.314 . S
N819 C818 1.279 . S
C820 C822 1.353 . S
C820 N823 1.314 . S
C820 H826 0.930 . S
C821 N823 1.279 . S
C821 C824 1.358 . S
C821 H827 0.930 . S
C822 C820 1.353 . S
C822 C825 1.348 . S
C822 H860 0.929 . S
N823 Li778 1.990 . S
N823 C820 1.314 . S
N823 C821 1.279 . S
C824 C821 1.358 . S
C824 C825 1.356 . S
C824 H861 0.930 . S
C825 C822 1.348 . S
C825 C824 1.356 . S
H826 C820 0.930 . S
H827 C821 0.930 . S
C828 N829 1.314 . S
C828 C830 1.353 . S
C828 H834 0.930 . S
N829 Li779 1.990 . S
N829 C828 1.314 . S
N829 C832 1.279 . S
C830 C828 1.353 . S
C830 C833 1.348 . S
C830 H862 0.929 . S
C831 C832 1.358 . S
C831 C833 1.356 . S
C831 H863 0.930 . S
C832 N829 1.279 . S
C832 C831 1.358 . S
C832 H835 0.930 . S
C833 C830 1.348 . S
C833 C831 1.356 . S
H834 C828 0.930 . S
H835 C832 0.930 . S
O836 Li776 1.956 . S
O836 Li777 1.970 1_545 S
O836 Li778 1.961 . S
O836 C780 1.325 . S
O837 Li776 1.970 1_565 S
O837 Li777 1.956 . S
O837 Li779 1.961 . S
O837 C786 1.325 . S
O838 Li776 1.961 . S
O838 Li778 1.956 . S
O838 Li779 1.970 1_545 S
O838 C808 1.325 . S
O839 Li777 1.961 . S
O839 Li778 1.970 1_565 S
O839 Li779 1.956 . S
O839 C814 1.325 . S
H840 C782 0.929 . S
H841 C783 0.930 . S
H842 C784 0.930 . S
H843 C785 0.930 . S
H844 C787 0.930 . S
H845 C789 0.929 . S
H846 C790 0.930 . S
H847 C791 0.930 . S
H848 C794 0.930 . S
H849 C797 0.929 . S
H850 C802 0.929 . S
H851 C803 0.930 . S
H852 C810 0.929 . S
H853 C811 0.930 . S
H854 C812 0.930 . S
H855 C813 0.930 . S
H856 C815 0.929 . S
H857 C816 0.930 . S
H858 C817 0.930 . S
H859 C818 0.930 . S
H860 C822 0.929 . S
H861 C824 0.930 . S
H862 C830 0.929 . S
H863 C831 0.930 . S
Li864 N881 1.990 . S
Li864 O924 1.956 . S
Li864 O925 1.970 . S
Li864 O926 1.961 . S
Li865 N889 1.990 . S
Li865 O924 1.970 . S
Li865 O925 1.956 . S
Li865 O927 1.961 . S
Li866 N911 1.990 . S
Li866 O924 1.961 . S
Li866 O926 1.956 . S
Li866 O927 1.970 . S
Li867 N917 1.990 . S
Li867 O925 1.961 . S
Li867 O926 1.970 . S
Li867 O927 1.956 . S
C868 C870 1.348 . S
C868 C871 1.356 . S
C868 O924 1.325 . S
N869 C872 1.314 . S
N869 C873 1.279 . S
C870 C868 1.348 . S
C870 C872 1.353 . S
C870 H928 0.929 . S
C871 C868 1.356 . S
C871 C873 1.358 . S
C871 H929 0.930 . S
C872 N869 1.314 . S
C872 C870 1.353 . S
C872 H930 0.930 . S
C873 N869 1.279 . S
C873 C871 1.358 . S
C873 H931 0.930 . S
C874 C877 1.348 . S
C874 C878 1.356 . S
C874 O925 1.325 . S
C875 N876 1.279 . S
C875 C878 1.358 . S
C875 H932 0.930 . S
N876 C875 1.279 . S
N876 C879 1.314 . S
C877 C874 1.348 . S
C877 C879 1.353 . S
C877 H933 0.929 . S
C878 C874 1.356 . S
C878 C875 1.358 . S
C878 H934 0.930 . S
C879 N876 1.314 . S
C879 C877 1.353 . S
C879 H935 0.930 . S
C880 N881 1.314 . S
C880 C885 1.353 . S
C880 H886 0.930 . S
N881 Li864 1.990 . S
N881 C880 1.314 . S
N881 C883 1.279 . S
C882 C883 1.358 . S
C882 C884 1.356 . S
C882 H936 0.930 . S
C883 N881 1.279 . S
C883 C882 1.358 . S
C883 H887 0.930 . S
C884 C882 1.356 . S
C884 C885 1.348 . S
C885 C880 1.353 . S
C885 C884 1.348 . S
C885 H937 0.929 . S
H886 C880 0.930 . S
H887 C883 0.930 . S
C888 N889 1.314 . S
C888 C890 1.353 . S
C888 H894 0.930 . S
N889 Li865 1.990 . S
N889 C888 1.314 . S
N889 C892 1.279 . S
C890 C888 1.353 . S
C890 C893 1.348 . S
C890 H938 0.929 . S
C891 C892 1.358 . S
C891 C893 1.356 . S
C891 H939 0.930 . S
C892 N889 1.279 . S
C892 C891 1.358 . S
C892 H895 0.930 . S
C893 C890 1.348 . S
C893 C891 1.356 . S
H894 C888 0.930 . S
H895 C892 0.930 . S
C896 C898 1.348 . S
C896 C899 1.356 . S
C896 O926 1.325 . S
N897 C900 1.314 . S
N897 C901 1.279 . S
C898 C896 1.348 . S
C898 C900 1.353 . S
C898 H940 0.929 . S
C899 C896 1.356 . S
C899 C901 1.358 . S
C899 H941 0.930 . S
C900 N897 1.314 . S
C900 C898 1.353 . S
C900 H942 0.930 . S
C901 N897 1.279 . S
C901 C899 1.358 . S
C901 H943 0.930 . S
C902 C903 1.348 . S
C902 C904 1.356 . S
C902 O927 1.325 . S
C903 C902 1.348 . S
C903 C905 1.353 . S
C903 H944 0.929 . S
C904 C902 1.356 . S
C904 C906 1.358 . S
C904 H945 0.930 . S
C905 C903 1.353 . S
C905 N907 1.314 . S
C905 H946 0.930 . S
C906 C904 1.358 . S
C906 N907 1.279 . S
C906 H947 0.930 . S
N907 C905 1.314 . S
N907 C906 1.279 . S
C908 C910 1.353 . S
C908 N911 1.314 . S
C908 H914 0.930 . S
C909 N911 1.279 . S
C909 C912 1.358 . S
C909 H915 0.930 . S
C910 C908 1.353 . S
C910 C913 1.348 . S
C910 H948 0.929 . S
N911 Li866 1.990 . S
N911 C908 1.314 . S
N911 C909 1.279 . S
C912 C909 1.358 . S
C912 C913 1.356 . S
C912 H949 0.930 . S
C913 C910 1.348 . S
C913 C912 1.356 . S
H914 C908 0.930 . S
H915 C909 0.930 . S
C916 N917 1.314 . S
C916 C918 1.353 . S
C916 H922 0.930 . S
N917 Li867 1.990 . S
N917 C916 1.314 . S
N917 C920 1.279 . S
C918 C916 1.353 . S
C918 C921 1.348 . S
C918 H950 0.929 . S
C919 C920 1.358 . S
C919 C921 1.356 . S
C919 H951 0.930 . S
C920 N917 1.279 . S
C920 C919 1.358 . S
C920 H923 0.930 . S
C921 C918 1.348 . S
C921 C919 1.356 . S
H922 C916 0.930 . S
H923 C920 0.930 . S
O924 Li864 1.956 . S
O924 Li865 1.970 . S
O924 Li866 1.961 . S
O924 C868 1.325 . S
O925 Li864 1.970 . S
O925 Li865 1.956 . S
O925 Li867 1.961 . S
O925 C874 1.325 . S
O926 Li864 1.961 . S
O926 Li866 1.956 . S
O926 Li867 1.970 . S
O926 C896 1.325 . S
O927 Li865 1.961 . S
O927 Li866 1.970 . S
O927 Li867 1.956 . S
O927 C902 1.325 . S
H928 C870 0.929 . S
H929 C871 0.930 . S
H930 C872 0.930 . S
H931 C873 0.930 . S
H932 C875 0.930 . S
H933 C877 0.929 . S
H934 C878 0.930 . S
H935 C879 0.930 . S
H936 C882 0.930 . S
H937 C885 0.929 . S
H938 C890 0.929 . S
H939 C891 0.930 . S
H940 C898 0.929 . S
H941 C899 0.930 . S
H942 C900 0.930 . S
H943 C901 0.930 . S
H944 C903 0.929 . S
H945 C904 0.930 . S
H946 C905 0.930 . S
H947 C906 0.930 . S
H948 C910 0.929 . S
H949 C912 0.930 . S
H950 C918 0.929 . S
H951 C919 0.930 . S
Li952 N969 1.990 . S
Li952 O1012 1.956 . S
Li952 O1013 1.970 . S
Li952 O1014 1.961 . S
Li953 N977 1.990 . S
Li953 O1012 1.970 . S
Li953 O1013 1.956 . S
Li953 O1015 1.961 . S
Li954 N999 1.990 . S
Li954 O1012 1.961 . S
Li954 O1014 1.956 . S
Li954 O1015 1.970 . S
Li955 N1005 1.990 . S
Li955 O1013 1.961 . S
Li955 O1014 1.970 . S
Li955 O1015 1.956 . S
C956 C958 1.348 . S
C956 C959 1.356 . S
C956 O1012 1.325 . S
N957 C960 1.314 . S
N957 C961 1.279 . S
C958 C956 1.348 . S
C958 C960 1.353 . S
C958 H1016 0.929 . S
C959 C956 1.356 . S
C959 C961 1.358 . S
C959 H1017 0.930 . S
C960 N957 1.314 . S
C960 C958 1.353 . S
C960 H1018 0.930 . S
C961 N957 1.279 . S
C961 C959 1.358 . S
C961 H1019 0.930 . S
C962 C965 1.348 . S
C962 C966 1.356 . S
C962 O1013 1.325 . S
C963 N964 1.279 . S
C963 C966 1.358 . S
C963 H1020 0.930 . S
N964 C963 1.279 . S
N964 C967 1.314 . S
C965 C962 1.348 . S
C965 C967 1.353 . S
C965 H1021 0.929 . S
C966 C962 1.356 . S
C966 C963 1.358 . S
C966 H1022 0.930 . S
C967 N964 1.314 . S
C967 C965 1.353 . S
C967 H1023 0.930 . S
C968 N969 1.314 . S
C968 C973 1.353 . S
C968 H974 0.930 . S
N969 Li952 1.990 . S
N969 C968 1.314 . S
N969 C971 1.279 . S
C970 C971 1.358 . S
C970 C972 1.356 . S
C970 H1024 0.930 . S
C971 N969 1.279 . S
C971 C970 1.358 . S
C971 H975 0.930 . S
C972 C970 1.356 . S
C972 C973 1.348 . S
C973 C968 1.353 . S
C973 C972 1.348 . S
C973 H1025 0.929 . S
H974 C968 0.930 . S
H975 C971 0.930 . S
C976 N977 1.314 . S
C976 C978 1.353 . S
C976 H982 0.930 . S
N977 Li953 1.990 . S
N977 C976 1.314 . S
N977 C980 1.279 . S
C978 C976 1.353 . S
C978 C981 1.348 . S
C978 H1026 0.929 . S
C979 C980 1.358 . S
C979 C981 1.356 . S
C979 H1027 0.930 . S
C980 N977 1.279 . S
C980 C979 1.358 . S
C980 H983 0.930 . S
C981 C978 1.348 . S
C981 C979 1.356 . S
H982 C976 0.930 . S
H983 C980 0.930 . S
C984 C986 1.348 . S
C984 C987 1.356 . S
C984 O1014 1.325 . S
N985 C988 1.314 . S
N985 C989 1.279 . S
C986 C984 1.348 . S
C986 C988 1.353 . S
C986 H1028 0.929 . S
C987 C984 1.356 . S
C987 C989 1.358 . S
C987 H1029 0.930 . S
C988 N985 1.314 . S
C988 C986 1.353 . S
C988 H1030 0.930 . S
C989 N985 1.279 . S
C989 C987 1.358 . S
C989 H1031 0.930 . S
C990 C991 1.348 . S
C990 C992 1.356 . S
C990 O1015 1.325 . S
C991 C990 1.348 . S
C991 C993 1.353 . S
C991 H1032 0.929 . S
C992 C990 1.356 . S
C992 C994 1.358 . S
C992 H1033 0.930 . S
C993 C991 1.353 . S
C993 N995 1.314 . S
C993 H1034 0.930 . S
C994 C992 1.358 . S
C994 N995 1.279 . S
C994 H1035 0.930 . S
N995 C993 1.314 . S
N995 C994 1.279 . S
C996 C998 1.353 . S
C996 N999 1.314 . S
C996 H1002 0.930 . S
C997 N999 1.279 . S
C997 C1000 1.358 . S
C997 H1003 0.930 . S
C998 C996 1.353 . S
C998 C1001 1.348 . S
C998 H1036 0.929 . S
N999 Li954 1.990 . S
N999 C996 1.314 . S
N999 C997 1.279 . S
C1000 C997 1.358 . S
C1000 C1001 1.356 . S
C1000 H1037 0.930 . S
C1001 C998 1.348 . S
C1001 C1000 1.356 . S
H1002 C996 0.930 . S
H1003 C997 0.930 . S
C1004 N1005 1.314 . S
C1004 C1006 1.353 . S
C1004 H1010 0.930 . S
N1005 Li955 1.990 . S
N1005 C1004 1.314 . S
N1005 C1008 1.279 . S
C1006 C1004 1.353 . S
C1006 C1009 1.348 . S
C1006 H1038 0.929 . S
C1007 C1008 1.358 . S
C1007 C1009 1.356 . S
C1007 H1039 0.930 . S
C1008 N1005 1.279 . S
C1008 C1007 1.358 . S
C1008 H1011 0.930 . S
C1009 C1006 1.348 . S
C1009 C1007 1.356 . S
H1010 C1004 0.930 . S
H1011 C1008 0.930 . S
O1012 Li952 1.956 . S
O1012 Li953 1.970 . S
O1012 Li954 1.961 . S
O1012 C956 1.325 . S
O1013 Li952 1.970 . S
O1013 Li953 1.956 . S
O1013 Li955 1.961 . S
O1013 C962 1.325 . S
O1014 Li952 1.961 . S
O1014 Li954 1.956 . S
O1014 Li955 1.970 . S
O1014 C984 1.325 . S
O1015 Li953 1.961 . S
O1015 Li954 1.970 . S
O1015 Li955 1.956 . S
O1015 C990 1.325 . S
H1016 C958 0.929 . S
H1017 C959 0.930 . S
H1018 C960 0.930 . S
H1019 C961 0.930 . S
H1020 C963 0.930 . S
H1021 C965 0.929 . S
H1022 C966 0.930 . S
H1023 C967 0.930 . S
H1024 C970 0.930 . S
H1025 C973 0.929 . S
H1026 C978 0.929 . S
H1027 C979 0.930 . S
H1028 C986 0.929 . S
H1029 C987 0.930 . S
H1030 C988 0.930 . S
H1031 C989 0.930 . S
H1032 C991 0.929 . S
H1033 C992 0.930 . S
H1034 C993 0.930 . S
H1035 C994 0.930 . S
H1036 C998 0.929 . S
H1037 C1000 0.930 . S
H1038 C1006 0.929 . S
H1039 C1007 0.930 . S
Li1040 N1057 1.990 . S
Li1040 O1100 1.956 . S
Li1040 O1101 1.970 . S
Li1040 O1102 1.961 . S
Li1041 N1065 1.990 . S
Li1041 O1100 1.970 . S
Li1041 O1101 1.956 . S
Li1041 O1103 1.961 . S
Li1042 N1087 1.990 . S
Li1042 O1100 1.961 . S
Li1042 O1102 1.956 . S
Li1042 O1103 1.970 . S
Li1043 N1093 1.990 . S
Li1043 O1101 1.961 . S
Li1043 O1102 1.970 . S
Li1043 O1103 1.956 . S
C1044 C1046 1.348 . S
C1044 C1047 1.356 . S
C1044 O1100 1.325 . S
N1045 C1048 1.314 . S
N1045 C1049 1.279 . S
C1046 C1044 1.348 . S
C1046 C1048 1.353 . S
C1046 H1104 0.929 . S
C1047 C1044 1.356 . S
C1047 C1049 1.358 . S
C1047 H1105 0.930 . S
C1048 N1045 1.314 . S
C1048 C1046 1.353 . S
C1048 H1106 0.930 . S
C1049 N1045 1.279 . S
C1049 C1047 1.358 . S
C1049 H1107 0.930 . S
C1050 C1053 1.348 . S
C1050 C1054 1.356 . S
C1050 O1101 1.325 . S
C1051 N1052 1.279 . S
C1051 C1054 1.358 . S
C1051 H1108 0.930 . S
N1052 C1051 1.279 . S
N1052 C1055 1.314 . S
C1053 C1050 1.348 . S
C1053 C1055 1.353 . S
C1053 H1109 0.929 . S
C1054 C1050 1.356 . S
C1054 C1051 1.358 . S
C1054 H1110 0.930 . S
C1055 N1052 1.314 . S
C1055 C1053 1.353 . S
C1055 H1111 0.930 . S
C1056 N1057 1.314 . S
C1056 C1061 1.353 . S
C1056 H1062 0.930 . S
N1057 Li1040 1.990 . S
N1057 C1056 1.314 . S
N1057 C1059 1.279 . S
C1058 C1059 1.358 . S
C1058 C1060 1.356 . S
C1058 H1112 0.930 . S
C1059 N1057 1.279 . S
C1059 C1058 1.358 . S
C1059 H1063 0.930 . S
C1060 C1058 1.356 . S
C1060 C1061 1.348 . S
C1061 C1056 1.353 . S
C1061 C1060 1.348 . S
C1061 H1113 0.929 . S
H1062 C1056 0.930 . S
H1063 C1059 0.930 . S
C1064 N1065 1.314 . S
C1064 C1066 1.353 . S
C1064 H1070 0.930 . S
N1065 Li1041 1.990 . S
N1065 C1064 1.314 . S
N1065 C1068 1.279 . S
C1066 C1064 1.353 . S
C1066 C1069 1.348 . S
C1066 H1114 0.929 . S
C1067 C1068 1.358 . S
C1067 C1069 1.356 . S
C1067 H1115 0.930 . S
C1068 N1065 1.279 . S
C1068 C1067 1.358 . S
C1068 H1071 0.930 . S
C1069 C1066 1.348 . S
C1069 C1067 1.356 . S
H1070 C1064 0.930 . S
H1071 C1068 0.930 . S
C1072 C1074 1.348 . S
C1072 C1075 1.356 . S
C1072 O1102 1.325 . S
N1073 C1076 1.314 . S
N1073 C1077 1.279 . S
C1074 C1072 1.348 . S
C1074 C1076 1.353 . S
C1074 H1116 0.929 . S
C1075 C1072 1.356 . S
C1075 C1077 1.358 . S
C1075 H1117 0.930 . S
C1076 N1073 1.314 . S
C1076 C1074 1.353 . S
C1076 H1118 0.930 . S
C1077 N1073 1.279 . S
C1077 C1075 1.358 . S
C1077 H1119 0.930 . S
C1078 C1079 1.348 . S
C1078 C1080 1.356 . S
C1078 O1103 1.325 . S
C1079 C1078 1.348 . S
C1079 C1081 1.353 . S
C1079 H1120 0.929 . S
C1080 C1078 1.356 . S
C1080 C1082 1.358 . S
C1080 H1121 0.930 . S
C1081 C1079 1.353 . S
C1081 N1083 1.314 . S
C1081 H1122 0.930 . S
C1082 C1080 1.358 . S
C1082 N1083 1.279 . S
C1082 H1123 0.930 . S
N1083 C1081 1.314 . S
N1083 C1082 1.279 . S
C1084 C1086 1.353 . S
C1084 N1087 1.314 . S
C1084 H1090 0.930 . S
C1085 N1087 1.279 . S
C1085 C1088 1.358 . S
C1085 H1091 0.930 . S
C1086 C1084 1.353 . S
C1086 C1089 1.348 . S
C1086 H1124 0.929 . S
N1087 Li1042 1.990 . S
N1087 C1084 1.314 . S
N1087 C1085 1.279 . S
C1088 C1085 1.358 . S
C1088 C1089 1.356 . S
C1088 H1125 0.930 . S
C1089 C1086 1.348 . S
C1089 C1088 1.356 . S
H1090 C1084 0.930 . S
H1091 C1085 0.930 . S
C1092 N1093 1.314 . S
C1092 C1094 1.353 . S
C1092 H1098 0.930 . S
N1093 Li1043 1.990 . S
N1093 C1092 1.314 . S
N1093 C1096 1.279 . S
C1094 C1092 1.353 . S
C1094 C1097 1.348 . S
C1094 H1126 0.929 . S
C1095 C1096 1.358 . S
C1095 C1097 1.356 . S
C1095 H1127 0.930 . S
C1096 N1093 1.279 . S
C1096 C1095 1.358 . S
C1096 H1099 0.930 . S
C1097 C1094 1.348 . S
C1097 C1095 1.356 . S
H1098 C1092 0.930 . S
H1099 C1096 0.930 . S
O1100 Li1040 1.956 . S
O1100 Li1041 1.970 . S
O1100 Li1042 1.961 . S
O1100 C1044 1.325 . S
O1101 Li1040 1.970 . S
O1101 Li1041 1.956 . S
O1101 Li1043 1.961 . S
O1101 C1050 1.325 . S
O1102 Li1040 1.961 . S
O1102 Li1042 1.956 . S
O1102 Li1043 1.970 . S
O1102 C1072 1.325 . S
O1103 Li1041 1.961 . S
O1103 Li1042 1.970 . S
O1103 Li1043 1.956 . S
O1103 C1078 1.325 . S
H1104 C1046 0.929 . S
H1105 C1047 0.930 . S
H1106 C1048 0.930 . S
H1107 C1049 0.930 . S
H1108 C1051 0.930 . S
H1109 C1053 0.929 . S
H1110 C1054 0.930 . S
H1111 C1055 0.930 . S
H1112 C1058 0.930 . S
H1113 C1061 0.929 . S
H1114 C1066 0.929 . S
H1115 C1067 0.930 . S
H1116 C1074 0.929 . S
H1117 C1075 0.930 . S
H1118 C1076 0.930 . S
H1119 C1077 0.930 . S
H1120 C1079 0.929 . S
H1121 C1080 0.930 . S
H1122 C1081 0.930 . S
H1123 C1082 0.930 . S
H1124 C1086 0.929 . S
H1125 C1088 0.930 . S
H1126 C1094 0.929 . S
H1127 C1095 0.930 . S
Li1128 N1145 1.990 . S
Li1128 O1188 1.956 . S
Li1128 O1189 1.970 1_565 S
Li1128 O1190 1.961 . S
Li1129 N1153 1.990 . S
Li1129 O1188 1.970 1_545 S
Li1129 O1189 1.956 . S
Li1129 O1191 1.961 . S
Li1130 N1175 1.990 . S
Li1130 O1188 1.961 . S
Li1130 O1190 1.956 . S
Li1130 O1191 1.970 1_565 S
Li1131 N1181 1.990 . S
Li1131 O1189 1.961 . S
Li1131 O1190 1.970 1_545 S
Li1131 O1191 1.956 . S
C1132 C1134 1.348 . S
C1132 C1135 1.356 . S
C1132 O1188 1.325 . S
N1133 C1136 1.314 . S
N1133 C1137 1.279 . S
C1134 C1132 1.348 . S
C1134 C1136 1.353 . S
C1134 H1192 0.929 . S
C1135 C1132 1.356 . S
C1135 C1137 1.358 . S
C1135 H1193 0.930 . S
C1136 N1133 1.314 . S
C1136 C1134 1.353 . S
C1136 H1194 0.930 . S
C1137 N1133 1.279 . S
C1137 C1135 1.358 . S
C1137 H1195 0.930 . S
C1138 C1141 1.348 1_545 S
C1138 C1142 1.356 . S
C1138 O1189 1.325 . S
C1139 N1140 1.279 . S
C1139 C1142 1.358 . S
C1139 H1196 0.930 . S
N1140 C1139 1.279 . S
N1140 C1143 1.314 1_545 S
C1141 C1138 1.348 1_565 S
C1141 C1143 1.353 . S
C1141 H1197 0.929 . S
C1142 C1138 1.356 . S
C1142 C1139 1.358 . S
C1142 H1198 0.930 . S
C1143 N1140 1.314 1_565 S
C1143 C1141 1.353 . S
C1143 H1199 0.930 . S
C1144 N1145 1.314 . S
C1144 C1149 1.353 . S
C1144 H1150 0.930 . S
N1145 Li1128 1.990 . S
N1145 C1144 1.314 . S
N1145 C1147 1.279 . S
C1146 C1147 1.358 . S
C1146 C1148 1.356 . S
C1146 H1200 0.930 . S
C1147 N1145 1.279 . S
C1147 C1146 1.358 . S
C1147 H1151 0.930 . S
C1148 C1146 1.356 . S
C1148 C1149 1.348 . S
C1149 C1144 1.353 . S
C1149 C1148 1.348 . S
C1149 H1201 0.929 . S
H1150 C1144 0.930 . S
H1151 C1147 0.930 . S
C1152 N1153 1.314 . S
C1152 C1154 1.353 . S
C1152 H1158 0.930 . S
N1153 Li1129 1.990 . S
N1153 C1152 1.314 . S
N1153 C1156 1.279 . S
C1154 C1152 1.353 . S
C1154 C1157 1.348 . S
C1154 H1202 0.929 . S
C1155 C1156 1.358 . S
C1155 C1157 1.356 . S
C1155 H1203 0.930 . S
C1156 N1153 1.279 . S
C1156 C1155 1.358 . S
C1156 H1159 0.930 . S
C1157 C1154 1.348 . S
C1157 C1155 1.356 . S
H1158 C1152 0.930 . S
H1159 C1156 0.930 . S
C1160 C1162 1.348 1_565 S
C1160 C1163 1.356 . S
C1160 O1190 1.325 . S
N1161 C1164 1.314 1_565 S
N1161 C1165 1.279 . S
C1162 C1160 1.348 1_545 S
C1162 C1164 1.353 . S
C1162 H1204 0.929 . S
C1163 C1160 1.356 . S
C1163 C1165 1.358 . S
C1163 H1205 0.930 . S
C1164 N1161 1.314 1_545 S
C1164 C1162 1.353 . S
C1164 H1206 0.930 . S
C1165 N1161 1.279 . S
C1165 C1163 1.358 . S
C1165 H1207 0.930 . S
C1166 C1167 1.348 . S
C1166 C1168 1.356 . S
C1166 O1191 1.325 . S
C1167 C1166 1.348 . S
C1167 C1169 1.353 . S
C1167 H1208 0.929 . S
C1168 C1166 1.356 . S
C1168 C1170 1.358 . S
C1168 H1209 0.930 . S
C1169 C1167 1.353 . S
C1169 N1171 1.314 . S
C1169 H1210 0.930 . S
C1170 C1168 1.358 . S
C1170 N1171 1.279 . S
C1170 H1211 0.930 . S
N1171 C1169 1.314 . S
N1171 C1170 1.279 . S
C1172 C1174 1.353 . S
C1172 N1175 1.314 . S
C1172 H1178 0.930 . S
C1173 N1175 1.279 . S
C1173 C1176 1.358 . S
C1173 H1179 0.930 . S
C1174 C1172 1.353 . S
C1174 C1177 1.348 . S
C1174 H1212 0.929 . S
N1175 Li1130 1.990 . S
N1175 C1172 1.314 . S
N1175 C1173 1.279 . S
C1176 C1173 1.358 . S
C1176 C1177 1.356 . S
C1176 H1213 0.930 . S
C1177 C1174 1.348 . S
C1177 C1176 1.356 . S
H1178 C1172 0.930 . S
H1179 C1173 0.930 . S
C1180 N1181 1.314 . S
C1180 C1182 1.353 . S
C1180 H1186 0.930 . S
N1181 Li1131 1.990 . S
N1181 C1180 1.314 . S
N1181 C1184 1.279 . S
C1182 C1180 1.353 . S
C1182 C1185 1.348 . S
C1182 H1214 0.929 . S
C1183 C1184 1.358 . S
C1183 C1185 1.356 . S
C1183 H1215 0.930 . S
C1184 N1181 1.279 . S
C1184 C1183 1.358 . S
C1184 H1187 0.930 . S
C1185 C1182 1.348 . S
C1185 C1183 1.356 . S
H1186 C1180 0.930 . S
H1187 C1184 0.930 . S
O1188 Li1128 1.956 . S
O1188 Li1129 1.970 1_565 S
O1188 Li1130 1.961 . S
O1188 C1132 1.325 . S
O1189 Li1128 1.970 1_545 S
O1189 Li1129 1.956 . S
O1189 Li1131 1.961 . S
O1189 C1138 1.325 . S
O1190 Li1128 1.961 . S
O1190 Li1130 1.956 . S
O1190 Li1131 1.970 1_565 S
O1190 C1160 1.325 . S
O1191 Li1129 1.961 . S
O1191 Li1130 1.970 1_545 S
O1191 Li1131 1.956 . S
O1191 C1166 1.325 . S
H1192 C1134 0.929 . S
H1193 C1135 0.930 . S
H1194 C1136 0.930 . S
H1195 C1137 0.930 . S
H1196 C1139 0.930 . S
H1197 C1141 0.929 . S
H1198 C1142 0.930 . S
H1199 C1143 0.930 . S
H1200 C1146 0.930 . S
H1201 C1149 0.929 . S
H1202 C1154 0.929 . S
H1203 C1155 0.930 . S
H1204 C1162 0.929 . S
H1205 C1163 0.930 . S
H1206 C1164 0.930 . S
H1207 C1165 0.930 . S
H1208 C1167 0.929 . S
H1209 C1168 0.930 . S
H1210 C1169 0.930 . S
H1211 C1170 0.930 . S
H1212 C1174 0.929 . S
H1213 C1176 0.930 . S
H1214 C1182 0.929 . S
H1215 C1183 0.930 . S
Li1216 N1233 1.990 . S
Li1216 O1276 1.956 . S
Li1216 O1277 2.000 . S
Li1216 O1278 1.961 . S
Li1217 N1241 1.990 1_455 S
Li1217 O1276 1.971 . S
Li1217 O1277 1.956 . S
Li1217 O1279 1.960 1_455 S
Li1218 N1263 1.990 . S
Li1218 O1276 1.961 . S
Li1218 O1278 1.956 . S
Li1218 O1279 1.970 1_455 S
Li1219 N1269 1.990 . S
Li1219 O1277 1.939 1_655 S
Li1219 O1278 1.970 1_655 S
Li1219 O1279 1.956 . S
C1220 C1222 1.348 . S
C1220 C1223 1.356 . S
C1220 O1276 1.325 . S
N1221 C1224 1.314 . S
N1221 C1225 1.279 . S
C1222 C1220 1.348 . S
C1222 C1224 1.353 . S
C1222 H1280 0.929 . S
C1223 C1220 1.356 . S
C1223 C1225 1.358 . S
C1223 H1281 0.930 . S
C1224 N1221 1.314 . S
C1224 C1222 1.353 . S
C1224 H1282 0.930 . S
C1225 N1221 1.279 . S
C1225 C1223 1.358 . S
C1225 H1283 0.930 . S
C1226 C1229 1.348 1_655 S
C1226 C1230 1.356 . S
C1226 O1277 1.320 1_655 S
C1227 N1228 1.279 . S
C1227 C1230 1.358 . S
C1227 H1284 0.930 . S
N1228 C1227 1.279 . S
N1228 C1231 1.314 1_655 S
C1229 C1226 1.348 1_455 S
C1229 C1231 1.353 . S
C1229 H1285 0.929 . S
C1230 C1226 1.356 . S
C1230 C1227 1.358 . S
C1230 H1286 0.930 . S
C1231 N1228 1.314 1_455 S
C1231 C1229 1.353 . S
C1231 H1287 0.930 . S
C1232 N1233 1.314 . S
C1232 C1237 1.353 . S
C1232 H1238 0.930 . S
N1233 Li1216 1.990 . S
N1233 C1232 1.314 . S
N1233 C1235 1.279 . S
C1234 C1235 1.358 . S
C1234 C1236 1.356 . S
C1234 H1288 0.930 . S
C1235 N1233 1.279 . S
C1235 C1234 1.358 . S
C1235 H1239 0.930 . S
C1236 C1234 1.356 . S
C1236 C1237 1.348 . S
C1237 C1232 1.353 . S
C1237 C1236 1.348 . S
C1237 H1289 0.929 . S
H1238 C1232 0.930 . S
H1239 C1235 0.930 . S
C1240 N1241 1.314 . S
C1240 C1242 1.353 . S
C1240 H1246 0.930 . S
N1241 Li1217 1.990 1_655 S
N1241 C1240 1.314 . S
N1241 C1244 1.279 . S
C1242 C1240 1.353 . S
C1242 C1245 1.348 . S
C1242 H1290 0.929 . S
C1243 C1244 1.358 . S
C1243 C1245 1.356 . S
C1243 H1291 0.930 . S
C1244 N1241 1.279 . S
C1244 C1243 1.358 . S
C1244 H1247 0.924 1_655 S
C1245 C1242 1.348 . S
C1245 C1243 1.356 . S
H1246 C1240 0.930 . S
H1247 C1244 0.924 1_455 S
C1248 C1250 1.348 1_455 S
C1248 C1251 1.356 . S
C1248 O1278 1.325 . S
N1249 C1252 1.314 1_455 S
N1249 C1253 1.279 . S
C1250 C1248 1.348 1_655 S
C1250 C1252 1.353 . S
C1250 H1292 0.929 . S
C1251 C1248 1.356 . S
C1251 C1253 1.358 . S
C1251 H1293 0.930 . S
C1252 N1249 1.314 1_655 S
C1252 C1250 1.353 . S
C1252 H1294 0.930 . S
C1253 N1249 1.279 . S
C1253 C1251 1.358 . S
C1253 H1295 0.930 . S
C1254 C1255 1.348 . S
C1254 C1256 1.356 . S
C1254 O1279 1.325 . S
C1255 C1254 1.348 . S
C1255 C1257 1.353 . S
C1255 H1296 0.929 . S
C1256 C1254 1.356 . S
C1256 C1258 1.358 . S
C1256 H1297 0.930 . S
C1257 C1255 1.353 . S
C1257 N1259 1.314 . S
C1257 H1298 0.930 . S
C1258 C1256 1.358 . S
C1258 N1259 1.279 . S
C1258 H1299 0.930 . S
N1259 C1257 1.314 . S
N1259 C1258 1.279 . S
C1260 C1262 1.353 . S
C1260 N1263 1.314 . S
C1260 H1266 0.930 . S
C1261 N1263 1.279 . S
C1261 C1264 1.358 . S
C1261 H1267 0.930 . S
C1262 C1260 1.353 . S
C1262 C1265 1.348 . S
C1262 H1300 0.929 . S
N1263 Li1218 1.990 . S
N1263 C1260 1.314 . S
N1263 C1261 1.279 . S
C1264 C1261 1.358 . S
C1264 C1265 1.356 . S
C1264 H1301 0.930 . S
C1265 C1262 1.348 . S
C1265 C1264 1.356 . S
H1266 C1260 0.930 . S
H1267 C1261 0.930 . S
C1268 N1269 1.314 . S
C1268 C1270 1.353 . S
C1268 H1274 0.930 . S
N1269 Li1219 1.990 . S
N1269 C1268 1.314 . S
N1269 C1272 1.279 . S
C1270 C1268 1.353 . S
C1270 C1273 1.348 . S
C1270 H1302 0.929 . S
C1271 C1272 1.358 . S
C1271 C1273 1.356 . S
C1271 H1303 0.930 . S
C1272 N1269 1.279 . S
C1272 C1271 1.358 . S
C1272 H1275 0.930 . S
C1273 C1270 1.348 . S
C1273 C1271 1.356 . S
H1274 C1268 0.930 . S
H1275 C1272 0.930 . S
O1276 Li1216 1.956 . S
O1276 Li1217 1.971 . S
O1276 Li1218 1.961 . S
O1276 C1220 1.325 . S
O1277 Li1216 2.000 . S
O1277 Li1217 1.956 . S
O1277 Li1219 1.939 1_455 S
O1277 C1226 1.320 1_455 S
O1278 Li1216 1.961 . S
O1278 Li1218 1.956 . S
O1278 Li1219 1.970 1_455 S
O1278 C1248 1.325 . S
O1279 Li1217 1.960 1_655 S
O1279 Li1218 1.970 1_655 S
O1279 Li1219 1.956 . S
O1279 C1254 1.325 . S
H1280 C1222 0.929 . S
H1281 C1223 0.930 . S
H1282 C1224 0.930 . S
H1283 C1225 0.930 . S
H1284 C1227 0.930 . S
H1285 C1229 0.929 . S
H1286 C1230 0.930 . S
H1287 C1231 0.930 . S
H1288 C1234 0.930 . S
H1289 C1237 0.929 . S
H1290 C1242 0.929 . S
H1291 C1243 0.930 . S
H1292 C1250 0.929 . S
H1293 C1251 0.930 . S
H1294 C1252 0.930 . S
H1295 C1253 0.930 . S
H1296 C1255 0.929 . S
H1297 C1256 0.930 . S
H1298 C1257 0.930 . S
H1299 C1258 0.930 . S
H1300 C1262 0.929 . S
H1301 C1264 0.930 . S
H1302 C1270 0.929 . S
H1303 C1271 0.930 . S
Li1304 N1321 1.990 . S
Li1304 O1364 1.956 . S
Li1304 O1365 1.970 . S
Li1304 O1366 1.961 . S
Li1305 N1329 1.990 . S
Li1305 O1364 1.970 . S
Li1305 O1365 1.956 . S
Li1305 O1367 1.961 . S
Li1306 N1351 1.990 . S
Li1306 O1364 1.961 . S
Li1306 O1366 1.956 . S
Li1306 O1367 1.970 . S
Li1307 N1357 1.990 . S
Li1307 O1365 1.961 . S
Li1307 O1366 1.970 . S
Li1307 O1367 1.956 . S
C1308 C1310 1.348 . S
C1308 C1311 1.356 . S
C1308 O1364 1.325 . S
N1309 C1312 1.314 . S
N1309 C1313 1.279 . S
C1310 C1308 1.348 . S
C1310 C1312 1.353 . S
C1310 H1368 0.929 . S
C1311 C1308 1.356 . S
C1311 C1313 1.358 . S
C1311 H1369 0.930 . S
C1312 N1309 1.314 . S
C1312 C1310 1.353 . S
C1312 H1370 0.930 . S
C1313 N1309 1.279 . S
C1313 C1311 1.358 . S
C1313 H1371 0.930 . S
C1314 C1317 1.348 . S
C1314 C1318 1.356 . S
C1314 O1365 1.325 . S
C1315 N1316 1.279 . S
C1315 C1318 1.358 . S
C1315 H1372 0.930 . S
N1316 C1315 1.279 . S
N1316 C1319 1.314 . S
C1317 C1314 1.348 . S
C1317 C1319 1.353 . S
C1317 H1373 0.929 . S
C1318 C1314 1.356 . S
C1318 C1315 1.358 . S
C1318 H1374 0.930 . S
C1319 N1316 1.314 . S
C1319 C1317 1.353 . S
C1319 H1375 0.930 . S
C1320 N1321 1.314 . S
C1320 C1325 1.353 . S
C1320 H1326 0.930 . S
N1321 Li1304 1.990 . S
N1321 C1320 1.314 . S
N1321 C1323 1.279 . S
C1322 C1323 1.358 . S
C1322 C1324 1.356 . S
C1322 H1376 0.930 . S
C1323 N1321 1.279 . S
C1323 C1322 1.358 . S
C1323 H1327 0.930 . S
C1324 C1322 1.356 . S
C1324 C1325 1.348 . S
C1325 C1320 1.353 . S
C1325 C1324 1.348 . S
C1325 H1377 0.929 . S
H1326 C1320 0.930 . S
H1327 C1323 0.930 . S
C1328 N1329 1.314 . S
C1328 C1330 1.353 . S
C1328 H1334 0.930 . S
N1329 Li1305 1.990 . S
N1329 C1328 1.314 . S
N1329 C1332 1.279 . S
C1330 C1328 1.353 . S
C1330 C1333 1.348 . S
C1330 H1378 0.929 . S
C1331 C1332 1.358 . S
C1331 C1333 1.356 . S
C1331 H1379 0.930 . S
C1332 N1329 1.279 . S
C1332 C1331 1.358 . S
C1332 H1335 0.930 . S
C1333 C1330 1.348 . S
C1333 C1331 1.356 . S
H1334 C1328 0.930 . S
H1335 C1332 0.930 . S
C1336 C1338 1.348 . S
C1336 C1339 1.356 . S
C1336 O1366 1.325 . S
N1337 C1340 1.314 . S
N1337 C1341 1.279 . S
C1338 C1336 1.348 . S
C1338 C1340 1.353 . S
C1338 H1380 0.929 . S
C1339 C1336 1.356 . S
C1339 C1341 1.358 . S
C1339 H1381 0.930 . S
C1340 N1337 1.314 . S
C1340 C1338 1.353 . S
C1340 H1382 0.930 . S
C1341 N1337 1.279 . S
C1341 C1339 1.358 . S
C1341 H1383 0.930 . S
C1342 C1343 1.348 . S
C1342 C1344 1.356 . S
C1342 O1367 1.325 . S
C1343 C1342 1.348 . S
C1343 C1345 1.353 . S
C1343 H1384 0.929 . S
C1344 C1342 1.356 . S
C1344 C1346 1.358 . S
C1344 H1385 0.930 . S
C1345 C1343 1.353 . S
C1345 N1347 1.314 . S
C1345 H1386 0.930 . S
C1346 C1344 1.358 . S
C1346 N1347 1.279 . S
C1346 H1387 0.930 . S
N1347 C1345 1.314 . S
N1347 C1346 1.279 . S
C1348 C1350 1.353 . S
C1348 N1351 1.314 . S
C1348 H1354 0.930 . S
C1349 N1351 1.279 . S
C1349 C1352 1.358 . S
C1349 H1355 0.930 . S
C1350 C1348 1.353 . S
C1350 C1353 1.348 . S
C1350 H1388 0.929 . S
N1351 Li1306 1.990 . S
N1351 C1348 1.314 . S
N1351 C1349 1.279 . S
C1352 C1349 1.358 . S
C1352 C1353 1.356 . S
C1352 H1389 0.930 . S
C1353 C1350 1.348 . S
C1353 C1352 1.356 . S
H1354 C1348 0.930 . S
H1355 C1349 0.930 . S
C1356 N1357 1.314 . S
C1356 C1358 1.353 . S
C1356 H1362 0.930 . S
N1357 Li1307 1.990 . S
N1357 C1356 1.314 . S
N1357 C1360 1.279 . S
C1358 C1356 1.353 . S
C1358 C1361 1.348 . S
C1358 H1390 0.929 . S
C1359 C1360 1.358 . S
C1359 C1361 1.356 . S
C1359 H1391 0.930 . S
C1360 N1357 1.279 . S
C1360 C1359 1.358 . S
C1360 H1363 0.930 . S
C1361 C1358 1.348 . S
C1361 C1359 1.356 . S
H1362 C1356 0.930 . S
H1363 C1360 0.930 . S
O1364 Li1304 1.956 . S
O1364 Li1305 1.970 . S
O1364 Li1306 1.961 . S
O1364 C1308 1.325 . S
O1365 Li1304 1.970 . S
O1365 Li1305 1.956 . S
O1365 Li1307 1.961 . S
O1365 C1314 1.325 . S
O1366 Li1304 1.961 . S
O1366 Li1306 1.956 . S
O1366 Li1307 1.970 . S
O1366 C1336 1.325 . S
O1367 Li1305 1.961 . S
O1367 Li1306 1.970 . S
O1367 Li1307 1.956 . S
O1367 C1342 1.325 . S
H1368 C1310 0.929 . S
H1369 C1311 0.930 . S
H1370 C1312 0.930 . S
H1371 C1313 0.930 . S
H1372 C1315 0.930 . S
H1373 C1317 0.929 . S
H1374 C1318 0.930 . S
H1375 C1319 0.930 . S
H1376 C1322 0.930 . S
H1377 C1325 0.929 . S
H1378 C1330 0.929 . S
H1379 C1331 0.930 . S
H1380 C1338 0.929 . S
H1381 C1339 0.930 . S
H1382 C1340 0.930 . S
H1383 C1341 0.930 . S
H1384 C1343 0.929 . S
H1385 C1344 0.930 . S
H1386 C1345 0.930 . S
H1387 C1346 0.930 . S
H1388 C1350 0.929 . S
H1389 C1352 0.930 . S
H1390 C1358 0.929 . S
H1391 C1359 0.930 . S
Li1392 N1409 1.990 . S
Li1392 O1452 1.956 . S
Li1392 O1453 1.970 1_455 S
Li1392 O1454 1.961 . S
Li1393 N1417 1.990 . S
Li1393 O1452 1.970 1_655 S
Li1393 O1453 1.956 . S
Li1393 O1455 1.961 . S
Li1394 N1439 1.990 . S
Li1394 O1452 1.961 . S
Li1394 O1454 1.956 . S
Li1394 O1455 1.970 1_455 S
Li1395 N1445 1.990 . S
Li1395 O1453 1.961 . S
Li1395 O1454 1.970 1_655 S
Li1395 O1455 1.956 . S
C1396 C1398 1.348 1_455 S
C1396 C1399 1.356 . S
C1396 O1452 1.325 . S
N1397 C1400 1.314 1_455 S
N1397 C1401 1.279 . S
C1398 C1396 1.348 1_655 S
C1398 C1400 1.353 . S
C1398 H1456 0.929 . S
C1399 C1396 1.356 . S
C1399 C1401 1.358 . S
C1399 H1457 0.930 . S
C1400 N1397 1.314 1_655 S
C1400 C1398 1.353 . S
C1400 H1458 0.930 . S
C1401 N1397 1.279 . S
C1401 C1399 1.358 . S
C1401 H1459 0.930 . S
C1402 C1405 1.348 . S
C1402 C1406 1.356 . S
C1402 O1453 1.325 . S
C1403 N1404 1.279 . S
C1403 C1406 1.358 . S
C1403 H1460 0.930 . S
N1404 C1403 1.279 . S
N1404 C1407 1.314 . S
C1405 C1402 1.348 . S
C1405 C1407 1.353 . S
C1405 H1461 0.929 . S
C1406 C1402 1.356 . S
C1406 C1403 1.358 . S
C1406 H1462 0.930 . S
C1407 N1404 1.314 . S
C1407 C1405 1.353 . S
C1407 H1463 0.930 . S
C1408 N1409 1.314 . S
C1408 C1413 1.353 . S
C1408 H1414 0.930 . S
N1409 Li1392 1.990 . S
N1409 C1408 1.314 . S
N1409 C1411 1.279 . S
C1410 C1411 1.358 . S
C1410 C1412 1.356 . S
C1410 H1464 0.930 . S
C1411 N1409 1.279 . S
C1411 C1410 1.358 . S
C1411 H1415 0.930 . S
C1412 C1410 1.356 . S
C1412 C1413 1.348 . S
C1413 C1408 1.353 . S
C1413 C1412 1.348 . S
C1413 H1465 0.929 . S
H1414 C1408 0.930 . S
H1415 C1411 0.930 . S
C1416 N1417 1.314 . S
C1416 C1418 1.353 . S
C1416 H1422 0.930 . S
N1417 Li1393 1.990 . S
N1417 C1416 1.314 . S
N1417 C1420 1.279 . S
C1418 C1416 1.353 . S
C1418 C1421 1.348 . S
C1418 H1466 0.929 . S
C1419 C1420 1.358 . S
C1419 C1421 1.356 . S
C1419 H1467 0.930 . S
C1420 N1417 1.279 . S
C1420 C1419 1.358 . S
C1420 H1423 0.930 . S
C1421 C1418 1.348 . S
C1421 C1419 1.356 . S
H1422 C1416 0.930 . S
H1423 C1420 0.930 . S
C1424 C1426 1.348 . S
C1424 C1427 1.356 . S
C1424 O1454 1.325 . S
N1425 C1428 1.314 . S
N1425 C1429 1.279 . S
C1426 C1424 1.348 . S
C1426 C1428 1.353 . S
C1426 H1468 0.929 . S
C1427 C1424 1.356 . S
C1427 C1429 1.358 . S
C1427 H1469 0.930 . S
C1428 N1425 1.314 . S
C1428 C1426 1.353 . S
C1428 H1470 0.930 . S
C1429 N1425 1.279 . S
C1429 C1427 1.358 . S
C1429 H1471 0.930 . S
C1430 C1431 1.348 1_655 S
C1430 C1432 1.356 . S
C1430 O1455 1.325 . S
C1431 C1430 1.348 1_455 S
C1431 C1433 1.353 . S
C1431 H1472 0.929 . S
C1432 C1430 1.356 . S
C1432 C1434 1.358 . S
C1432 H1473 0.930 . S
C1433 C1431 1.353 . S
C1433 N1435 1.314 1_455 S
C1433 H1474 0.930 . S
C1434 C1432 1.358 . S
C1434 N1435 1.279 . S
C1434 H1475 0.930 . S
N1435 C1433 1.314 1_655 S
N1435 C1434 1.279 . S
C1436 C1438 1.353 . S
C1436 N1439 1.314 . S
C1436 H1442 0.930 . S
C1437 N1439 1.279 . S
C1437 C1440 1.358 . S
C1437 H1443 0.930 . S
C1438 C1436 1.353 . S
C1438 C1441 1.348 . S
C1438 H1476 0.929 . S
N1439 Li1394 1.990 . S
N1439 C1436 1.314 . S
N1439 C1437 1.279 . S
C1440 C1437 1.358 . S
C1440 C1441 1.356 . S
C1440 H1477 0.930 . S
C1441 C1438 1.348 . S
C1441 C1440 1.356 . S
H1442 C1436 0.930 . S
H1443 C1437 0.930 . S
C1444 N1445 1.314 . S
C1444 C1446 1.353 . S
C1444 H1450 0.930 . S
N1445 Li1395 1.990 . S
N1445 C1444 1.314 . S
N1445 C1448 1.279 . S
C1446 C1444 1.353 . S
C1446 C1449 1.348 . S
C1446 H1478 0.929 . S
C1447 C1448 1.358 . S
C1447 C1449 1.356 . S
C1447 H1479 0.930 . S
C1448 N1445 1.279 . S
C1448 C1447 1.358 . S
C1448 H1451 0.930 . S
C1449 C1446 1.348 . S
C1449 C1447 1.356 . S
H1450 C1444 0.930 . S
H1451 C1448 0.930 . S
O1452 Li1392 1.956 . S
O1452 Li1393 1.970 1_455 S
O1452 Li1394 1.961 . S
O1452 C1396 1.325 . S
O1453 Li1392 1.970 1_655 S
O1453 Li1393 1.956 . S
O1453 Li1395 1.961 . S
O1453 C1402 1.325 . S
O1454 Li1392 1.961 . S
O1454 Li1394 1.956 . S
O1454 Li1395 1.970 1_455 S
O1454 C1424 1.325 . S
O1455 Li1393 1.961 . S
O1455 Li1394 1.970 1_655 S
O1455 Li1395 1.956 . S
O1455 C1430 1.325 . S
H1456 C1398 0.929 . S
H1457 C1399 0.930 . S
H1458 C1400 0.930 . S
H1459 C1401 0.930 . S
H1460 C1403 0.930 . S
H1461 C1405 0.929 . S
H1462 C1406 0.930 . S
H1463 C1407 0.930 . S
H1464 C1410 0.930 . S
H1465 C1413 0.929 . S
H1466 C1418 0.929 . S
H1467 C1419 0.930 . S
H1468 C1426 0.929 . S
H1469 C1427 0.930 . S
H1470 C1428 0.930 . S
H1471 C1429 0.930 . S
H1472 C1431 0.929 . S
H1473 C1432 0.930 . S
H1474 C1433 0.930 . S
H1475 C1434 0.930 . S
H1476 C1438 0.929 . S
H1477 C1440 0.930 . S
H1478 C1446 0.929 . S
H1479 C1447 0.930 . S
Li1480 N1497 1.990 . S
Li1480 O1540 1.956 . S
Li1480 O1541 1.970 . S
Li1480 O1542 1.961 . S
Li1481 N1505 1.990 . S
Li1481 O1540 1.970 . S
Li1481 O1541 1.956 . S
Li1481 O1543 1.961 . S
Li1482 N1527 1.990 . S
Li1482 O1540 1.961 . S
Li1482 O1542 1.956 . S
Li1482 O1543 1.970 . S
Li1483 N1533 1.990 . S
Li1483 O1541 1.961 . S
Li1483 O1542 1.970 . S
Li1483 O1543 1.956 . S
C1484 C1486 1.348 . S
C1484 C1487 1.356 . S
C1484 O1540 1.325 . S
N1485 C1488 1.314 . S
N1485 C1489 1.279 . S
C1486 C1484 1.348 . S
C1486 C1488 1.353 . S
C1486 H1544 0.929 . S
C1487 C1484 1.356 . S
C1487 C1489 1.358 . S
C1487 H1545 0.930 . S
C1488 N1485 1.314 . S
C1488 C1486 1.353 . S
C1488 H1546 0.930 . S
C1489 N1485 1.279 . S
C1489 C1487 1.358 . S
C1489 H1547 0.930 . S
C1490 C1493 1.348 . S
C1490 C1494 1.356 . S
C1490 O1541 1.325 . S
C1491 N1492 1.279 . S
C1491 C1494 1.358 . S
C1491 H1548 0.930 . S
N1492 C1491 1.279 . S
N1492 C1495 1.314 . S
C1493 C1490 1.348 . S
C1493 C1495 1.353 . S
C1493 H1549 0.929 . S
C1494 C1490 1.356 . S
C1494 C1491 1.358 . S
C1494 H1550 0.930 . S
C1495 N1492 1.314 . S
C1495 C1493 1.353 . S
C1495 H1551 0.930 . S
C1496 N1497 1.314 . S
C1496 C1501 1.353 . S
C1496 H1502 0.930 . S
N1497 Li1480 1.990 . S
N1497 C1496 1.314 . S
N1497 C1499 1.279 . S
C1498 C1499 1.358 . S
C1498 C1500 1.356 . S
C1498 H1552 0.930 . S
C1499 N1497 1.279 . S
C1499 C1498 1.358 . S
C1499 H1503 0.930 . S
C1500 C1498 1.356 . S
C1500 C1501 1.348 . S
C1501 C1496 1.353 . S
C1501 C1500 1.348 . S
C1501 H1553 0.929 . S
H1502 C1496 0.930 . S
H1503 C1499 0.930 . S
C1504 N1505 1.314 . S
C1504 C1506 1.353 . S
C1504 H1510 0.930 . S
N1505 Li1481 1.990 . S
N1505 C1504 1.314 . S
N1505 C1508 1.279 . S
C1506 C1504 1.353 . S
C1506 C1509 1.348 . S
C1506 H1554 0.929 . S
C1507 C1508 1.358 . S
C1507 C1509 1.356 . S
C1507 H1555 0.930 . S
C1508 N1505 1.279 . S
C1508 C1507 1.358 . S
C1508 H1511 0.930 . S
C1509 C1506 1.348 . S
C1509 C1507 1.356 . S
H1510 C1504 0.930 . S
H1511 C1508 0.930 . S
C1512 C1514 1.348 . S
C1512 C1515 1.356 . S
C1512 O1542 1.325 . S
N1513 C1516 1.314 . S
N1513 C1517 1.279 . S
C1514 C1512 1.348 . S
C1514 C1516 1.353 . S
C1514 H1556 0.929 . S
C1515 C1512 1.356 . S
C1515 C1517 1.358 . S
C1515 H1557 0.930 . S
C1516 N1513 1.314 . S
C1516 C1514 1.353 . S
C1516 H1558 0.930 . S
C1517 N1513 1.279 . S
C1517 C1515 1.358 . S
C1517 H1559 0.930 . S
C1518 C1519 1.348 . S
C1518 C1520 1.356 . S
C1518 O1543 1.325 . S
C1519 C1518 1.348 . S
C1519 C1521 1.353 . S
C1519 H1560 0.929 . S
C1520 C1518 1.356 . S
C1520 C1522 1.358 . S
C1520 H1561 0.930 . S
C1521 C1519 1.353 . S
C1521 N1523 1.314 . S
C1521 H1562 0.930 . S
C1522 C1520 1.358 . S
C1522 N1523 1.279 . S
C1522 H1563 0.930 . S
N1523 C1521 1.314 . S
N1523 C1522 1.279 . S
C1524 C1526 1.353 . S
C1524 N1527 1.314 . S
C1524 H1530 0.930 . S
C1525 N1527 1.279 . S
C1525 C1528 1.358 . S
C1525 H1531 0.930 . S
C1526 C1524 1.353 . S
C1526 C1529 1.348 . S
C1526 H1564 0.929 . S
N1527 Li1482 1.990 . S
N1527 C1524 1.314 . S
N1527 C1525 1.279 . S
C1528 C1525 1.358 . S
C1528 C1529 1.356 . S
C1528 H1565 0.930 . S
C1529 C1526 1.348 . S
C1529 C1528 1.356 . S
H1530 C1524 0.930 . S
H1531 C1525 0.930 . S
C1532 N1533 1.314 . S
C1532 C1534 1.353 . S
C1532 H1538 0.930 . S
N1533 Li1483 1.990 . S
N1533 C1532 1.314 . S
N1533 C1536 1.279 . S
C1534 C1532 1.353 . S
C1534 C1537 1.348 . S
C1534 H1566 0.929 . S
C1535 C1536 1.358 . S
C1535 C1537 1.356 . S
C1535 H1567 0.930 . S
C1536 N1533 1.279 . S
C1536 C1535 1.358 . S
C1536 H1539 0.930 . S
C1537 C1534 1.348 . S
C1537 C1535 1.356 . S
H1538 C1532 0.930 . S
H1539 C1536 0.930 . S
O1540 Li1480 1.956 . S
O1540 Li1481 1.970 . S
O1540 Li1482 1.961 . S
O1540 C1484 1.325 . S
O1541 Li1480 1.970 . S
O1541 Li1481 1.956 . S
O1541 Li1483 1.961 . S
O1541 C1490 1.325 . S
O1542 Li1480 1.961 . S
O1542 Li1482 1.956 . S
O1542 Li1483 1.970 . S
O1542 C1512 1.325 . S
O1543 Li1481 1.961 . S
O1543 Li1482 1.970 . S
O1543 Li1483 1.956 . S
O1543 C1518 1.325 . S
H1544 C1486 0.929 . S
H1545 C1487 0.930 . S
H1546 C1488 0.930 . S
H1547 C1489 0.930 . S
H1548 C1491 0.930 . S
H1549 C1493 0.929 . S
H1550 C1494 0.930 . S
H1551 C1495 0.930 . S
H1552 C1498 0.930 . S
H1553 C1501 0.929 . S
H1554 C1506 0.929 . S
H1555 C1507 0.930 . S
H1556 C1514 0.929 . S
H1557 C1515 0.930 . S
H1558 C1516 0.930 . S
H1559 C1517 0.930 . S
H1560 C1519 0.929 . S
H1561 C1520 0.930 . S
H1562 C1521 0.930 . S
H1563 C1522 0.930 . S
H1564 C1526 0.929 . S
H1565 C1528 0.930 . S
H1566 C1534 0.929 . S
H1567 C1535 0.930 . S
C561 C177 1.489 . S
C620 C209 1.607 . S
C253 C737 1.372 . S
C805 C157 1.462 . S
C884 C343 1.464 . S
C1009 C401 1.444 . S
C369 C1069 1.474 . S
C1177 C317 1.588 . S
C375 C1273 1.459 . S
C1333 C305 1.661 . S
C349 C1236 1.493 . S
C1353 C413 1.443 . S
C241 C1421 1.418 . S
C151 C1412 1.413 . S
C189 C1441 1.588 . S
C215 C1449 1.567 . S
C113 C833 1.428 . S
C471 C796 1.525 . S
C532 C509 1.604 . S
C629 C279 1.440 . S
C145 C893 1.396 . S
C1185 C381 1.504 . S
C913 C311 1.613 . S
C1097 C407 1.434 . S
C1089 C465 1.489 . S
C497 C1157 1.607 . S
C285 C921 1.372 . S
C972 C445 1.462 . S
C119 C717 1.464 . S
C825 C17 1.444 . S
C541 C49 1.474 . S
C657 C93 1.588 . S
C55 C1361 1.459 . S
C81 C1245 1.661 . S
C125 C1324 1.493 . S
C29 C1265 1.444 . S
C1509 C273 1.417 . S
C1500 C439 1.413 . S
C1529 C477 1.589 . S
C503 C1537 1.567 . S
C337 C1001 1.429 . S
C981 C183 1.524 . S
C1060 C221 1.604 . S
C1148 C247 1.440 . S
C433 C708 1.396 . S
C649 C61 1.504 . S
C87 C745 1.613 . S
C569 C23 1.433 . S
