# Generated by pormake.
# Topology tsx, (6,3)-cn, num edge types: 1
# Building blocks:
#     Node 0, Type 0, BuildingBlock: MIDCAF_clean_sbu_0, # of connection points: 6
#     Node 1, Type 0, BuildingBlock: MIDCAF_clean_sbu_0, # of connection points: 6
#     Node 2, Type 1, BuildingBlock: CUQRIR_clean_linker_1, # of connection points: 3
#     Node 3, Type 1, BuildingBlock: CUQRIR_clean_linker_1, # of connection points: 3
#     Node 4, Type 1, BuildingBlock: CUQRIR_clean_linker_1, # of connection points: 3
#     Node 5, Type 1, BuildingBlock: CUQRIR_clean_linker_1, # of connection points: 3
#     Edge 6, Type (0, 1), BuildingBlock: FUNLAD_clean_linker_0, # of connection points: 2
#     Edge 7, Type (0, 1), BuildingBlock: FUNLAD_clean_linker_0, # of connection points: 2
#     Edge 8, Type (0, 1), BuildingBlock: FUNLAD_clean_linker_0, # of connection points: 2
#     Edge 9, Type (0, 1), BuildingBlock: FUNLAD_clean_linker_0, # of connection points: 2
#     Edge 10, Type (0, 1), BuildingBlock: FUNLAD_clean_linker_0, # of connection points: 2
#     Edge 11, Type (0, 1), BuildingBlock: FUNLAD_clean_linker_0, # of connection points: 2
#     Edge 12, Type (0, 1), BuildingBlock: FUNLAD_clean_linker_0, # of connection points: 2
#     Edge 13, Type (0, 1), BuildingBlock: FUNLAD_clean_linker_0, # of connection points: 2
#     Edge 14, Type (0, 1), BuildingBlock: FUNLAD_clean_linker_0, # of connection points: 2
#     Edge 15, Type (0, 1), BuildingBlock: FUNLAD_clean_linker_0, # of connection points: 2
#     Edge 16, Type (0, 1), BuildingBlock: FUNLAD_clean_linker_0, # of connection points: 2
#     Edge 17, Type (0, 1), BuildingBlock: FUNLAD_clean_linker_0, # of connection points: 2
# Relax obj value: 0.117
# Max RMSD: 0.170
# Mean RMSD: 0.151
data_MOF--net-tsx--node1-MIDCAF_clean_sbu_0--node2-CUQRIR_clean_linker_1--edge1-FUNLAD_clean_linker_0
_symmetry_space_group_name_H-M    P1
_symmetry_Int_Tables_number       1
_symmetry_cell_setting            triclinic
loop_
_symmetry_equiv_pos_as_xyz
'x, y, z'
_cell_length_a     21.54547
_cell_length_b     22.519691
_cell_length_c     38.977935
_cell_angle_alpha  79.016718
_cell_angle_beta   96.724133
_cell_angle_gamma 90.883294
loop_
_atom_site_label
_atom_site_type_symbol
_atom_site_fract_x
_atom_site_fract_y
_atom_site_fract_z
_atom_type_partial_charge
Zn0 Zn 0.97386 0.03576 0.96413 0.0
Zn1 Zn 0.18253 0.04291 0.04812 0.0
Zn2 Zn 0.07549 0.04185 0.00728 0.0
C3 C 0.14542 0.16318 0.02388 0.0
C4 C 0.20794 0.98152 0.99728 0.0
O5 O 1.00522 0.99015 0.03809 0.0
O6 O 0.92003 -0.00256 0.99982 0.0
C7 C 0.9995 0.15849 0.96187 0.0
O8 O 0.09888 0.13803 0.00842 0.0
O9 O 0.18884 0.13158 0.04295 0.0
O10 O 0.23651 0.00129 0.02288 0.0
O11 O 0.14915 0.99281 0.98819 0.0
O12 O 0.96459 0.12394 0.94631 0.0
O13 O 0.04297 0.13615 0.98633 0.0
O14 O 0.09619 -0.00117 0.96254 0.0
O15 O 1.00456 0.98621 0.93273 0.0
C16 C 0.06319 0.98007 0.9369 0.0
O17 O 0.05948 0.99576 0.06111 0.0
O18 O 0.15285 0.9961 0.09155 0.0
C19 C 0.94682 0.97929 0.03053 0.0
C20 C 0.09573 0.98223 0.09029 0.0
Zn21 Zn 0.5631 0.39565 0.56531 0.0
Zn22 Zn 0.42961 0.45669 0.46721 0.0
Zn23 Zn 0.50866 0.45441 0.51632 0.0
C24 C 0.54519 0.49765 0.44091 0.0
C25 C 0.40182 0.54709 0.50555 0.0
O26 O 0.49709 0.49803 0.55947 0.0
O27 O 0.48917 0.40729 0.59132 0.0
C28 C 0.60016 0.36231 0.50678 0.0
O29 O 0.56747 0.48054 0.47343 0.0
O30 O 0.48745 0.49239 0.43151 0.0
O31 O 0.37659 0.51585 0.48398 0.0
O32 O 0.45737 0.53425 0.52051 0.0
O33 O 0.5793 0.33445 0.53454 0.0
O34 O 0.58984 0.41966 0.49702 0.0
O35 O 0.6068 0.48091 0.51055 0.0
O36 O 0.63254 0.45806 0.56787 0.0
C37 C 0.64422 0.48678 0.5381 0.0
O38 O 0.46309 0.36837 0.52702 0.0
O39 O 0.40759 0.36764 0.47629 0.0
C40 C 0.48246 0.46414 0.58764 0.0
C41 C 0.42671 0.34081 0.50721 0.0
C42 C 0.04319 0.02896 0.43639 0.0
N43 N 0.06523 0.99089 0.41754 0.0
N44 N 1.00458 0.07101 0.41525 0.0
C45 C 0.05433 0.0214 0.47579 0.0
C46 C 1.00304 0.05665 0.38304 0.0
N47 N 0.03936 0.00759 0.38445 0.0
C48 C 0.96398 0.08917 0.35055 0.0
H49 H 0.03606 0.97687 0.48772 0.0
H50 H 0.0314 0.0577 0.4855 0.0
H51 H 0.10517 0.02186 0.48447 0.0
H52 H 0.95643 0.13718 0.35198 0.0
H53 H 0.91767 0.06709 0.34834 0.0
H54 H 0.98645 0.08708 0.32661 0.0
C55 C 0.07865 0.88456 0.59312 0.0
N56 N 0.10805 0.913 0.61815 0.0
N57 N 0.0311 0.85028 0.60578 0.0
C58 C 0.09267 0.89416 0.55554 0.0
C59 C 0.03263 0.85882 0.63933 0.0
N60 N 0.07913 0.89694 0.6468 0.0
C61 C 0.98928 0.8293 0.66499 0.0
H62 H 0.10825 0.94117 0.54665 0.0
H63 H 0.0512 0.88466 0.53777 0.0
H64 H 0.13091 0.86293 0.55364 0.0
H65 H 0.9717 0.78572 0.6585 0.0
H66 H 0.94879 0.85987 0.66361 0.0
H67 H 0.01313 0.82138 0.6923 0.0
C68 C 0.59448 0.57069 0.9376 0.0
N69 N 0.60769 0.54019 0.91246 0.0
N70 N 0.53818 0.59882 0.92838 0.0
C71 C 0.63408 0.5698 0.97211 0.0
C72 C 0.51782 0.5848 0.89677 0.0
N73 N 0.55956 0.54873 0.88735 0.0
C74 C 0.45909 0.60962 0.874 0.0
H75 H 0.60514 0.57805 0.99249 0.0
H76 H 0.66945 0.60611 0.9686 0.0
H77 H 0.65887 0.5258 0.98121 0.0
H78 H 0.44916 0.65618 0.87745 0.0
H79 H 0.41925 0.58041 0.88186 0.0
H80 H 0.46258 0.61025 0.84576 0.0
C81 C 0.51219 0.59616 0.08296 0.0
N82 N 0.54905 0.61507 0.10938 0.0
N83 N 0.47257 0.55249 0.09603 0.0
C84 C 0.51813 0.61715 0.0445 0.0
C85 C 0.48712 0.5454 0.13142 0.0
N86 N 0.53401 0.58287 0.13945 0.0
C87 C 0.45139 0.50657 0.15823 0.0
H88 H 0.48633 0.65629 0.03416 0.0
H89 H 0.50496 0.58077 0.02949 0.0
H90 H 0.56654 0.63184 0.0404 0.0
H91 H 0.47412 0.46139 0.16619 0.0
H92 H 0.40228 0.50077 0.14725 0.0
H93 H 0.45149 0.52672 0.18208 0.0
C94 C 0.18734 0.2617 0.99697 0.0
C95 C 0.14979 0.22893 0.02091 0.0
C96 C 0.21333 0.31685 1.00271 0.0
C97 C 0.20238 0.33952 0.03277 0.0
C98 C 0.15975 0.30934 0.05462 0.0
C99 C 0.13372 0.25444 0.04877 0.0
C100 C 0.24325 0.38599 0.04604 0.0
C101 C 0.27857 0.42534 0.02631 0.0
C102 C 0.32949 0.45858 0.04329 0.0
C103 C 0.3363 0.52115 0.03237 0.0
C104 C 0.38344 0.55222 0.04953 0.0
C105 C 0.42565 0.52077 0.07705 0.0
H106 H 0.36925 0.37849 0.07848 0.0
C107 C 0.42046 0.45776 0.08662 0.0
C108 C 0.37247 0.42708 0.07026 0.0
H109 H 0.45339 0.43229 0.10701 0.0
H110 H 0.20146 0.24194 0.9758 0.0
H111 H 0.24651 0.33816 0.98551 0.0
H112 H 0.15055 0.32565 0.07797 0.0
H113 H 0.10585 0.2292 0.06793 0.0
H114 H 0.24821 0.3846 0.0743 0.0
H115 H 0.27173 0.43207 0.9978 0.0
H116 H 0.30407 0.54616 0.01135 0.0
H117 H 0.38611 0.60087 0.0418 0.0
C118 C 0.30665 0.94528 0.98088 0.0
C119 C 0.24166 0.94004 0.98089 0.0
C120 C 0.34126 0.89969 0.97214 0.0
C121 C 0.31149 0.84749 0.96365 0.0
C122 C 0.24602 0.84425 0.9613 0.0
C123 C 0.21136 0.88993 0.97013 0.0
C124 C 0.34725 0.79528 0.95785 0.0
C125 C 0.40647 0.78229 0.97255 0.0
C126 C 0.4418 0.7307 0.96588 0.0
C127 C 0.50609 0.73687 0.96323 0.0
C128 C 0.53911 0.69159 0.95295 0.0
C129 C 0.50837 0.63925 0.94579 0.0
H130 H 0.36342 0.66895 0.96474 0.0
C131 C 0.44549 0.63074 0.95144 0.0
C132 C 0.41228 0.67617 0.96132 0.0
H133 H 0.42155 0.58993 0.94673 0.0
H134 H 0.33105 0.98379 0.98882 0.0
H135 H 0.3913 0.90522 0.97265 0.0
H136 H 0.22189 0.80488 0.95434 0.0
H137 H 0.16152 0.88404 0.97071 0.0
H138 H 0.32322 0.76572 0.94169 0.0
H139 H 0.43113 0.81148 0.98867 0.0
H140 H 0.53001 0.77806 0.96732 0.0
H141 H 0.58761 0.69883 0.94866 0.0
C142 C 0.84736 0.95734 0.05634 0.0
C143 C 0.9103 0.94244 0.05635 0.0
C144 C 0.80762 0.91634 0.07421 0.0
C145 C 0.82966 0.85866 0.09162 0.0
C146 C 0.89398 0.84603 0.0944 0.0
C147 C 0.93416 0.8877 0.07685 0.0
C148 C 0.78596 0.80978 0.10453 0.0
C149 C 0.72723 0.80711 0.08843 0.0
C150 C 0.68223 0.75713 0.09686 0.0
C151 C 0.61981 0.76667 0.08178 0.0
C152 C 0.57618 0.72033 0.08639 0.0
C153 C 0.59399 0.66317 0.10598 0.0
H154 H 0.74747 0.69002 0.12879 0.0
C155 C 0.65587 0.65337 0.12171 0.0
C156 C 0.69983 0.6999 0.11719 0.0
H157 H 0.67043 0.60928 0.13674 0.0
H158 H 0.8282 -0.00017 0.04118 0.0
H159 H 0.75914 0.92921 0.07309 0.0
H160 H 0.91245 0.80242 0.10824 0.0
H161 H 0.98266 0.87531 0.07724 0.0
H162 H 0.80421 0.77362 0.12568 0.0
H163 H 0.71099 0.84297 0.06654 0.0
H164 H 0.60475 0.8101 0.06599 0.0
H165 H 0.52841 0.72895 0.07448 0.0
C166 C 0.95729 0.24942 0.91976 0.0
C167 C 0.98423 0.22363 0.95379 0.0
C168 C 0.92568 0.30463 0.91356 0.0
C169 C 0.91942 0.33464 0.94147 0.0
C170 C 0.95238 0.31234 0.97464 0.0
C171 C 0.98458 0.25696 0.98082 0.0
C172 C 0.87334 0.3847 0.93738 0.0
C173 C 0.8176 0.3832 0.91778 0.0
C174 C 0.76496 0.42555 0.91655 0.0
C175 C 0.7039 0.4051 0.90899 0.0
C176 C 0.65256 0.44272 0.90773 0.0
C177 C 0.66113 0.50207 0.9133 0.0
H178 H 0.82022 0.50292 0.92712 0.0
C179 C 0.72213 0.52323 0.92027 0.0
C180 C 0.77376 0.48523 0.92204 0.0
H181 H 0.72971 0.56924 0.92414 0.0
H182 H 0.95725 0.225 0.89834 0.0
H183 H 0.90304 0.32197 0.88733 0.0
H184 H 0.94907 0.33517 0.99644 0.0
H185 H 1.00478 0.23791 0.00733 0.0
H186 H 0.88195 0.41831 0.95397 0.0
H187 H 0.80754 0.34547 0.90431 0.0
H188 H 0.69576 0.35936 0.90464 0.0
H189 H 0.606 0.42506 0.90303 0.0
C190 C 0.70274 0.57791 0.5113 0.0
C191 C 0.70155 0.52343 0.53575 0.0
C192 C 0.75387 0.617 0.51337 0.0
C193 C 0.80499 0.60141 0.53949 0.0
C194 C 0.80531 0.54503 0.56219 0.0
C195 C 0.75385 0.50686 0.5607 0.0
C196 C 0.85742 0.64344 0.54517 0.0
C197 C 0.84892 0.70351 0.54186 0.0
C198 C 0.89755 0.74356 0.55553 0.0
C199 C 0.87841 0.7934 0.56864 0.0
C200 C 0.92235 0.82894 0.58463 0.0
C201 C 0.98636 0.81593 0.58733 0.0
H202 H 0.97862 0.69503 0.54635 0.0
C203 C 1.00601 0.76805 0.57278 0.0
C204 C 0.96203 0.732 0.55705 0.0
H205 H 0.05533 0.75778 0.5744 0.0
H206 H 0.66298 0.59161 0.49179 0.0
H207 H 0.75291 0.65965 0.49496 0.0
H208 H 0.84428 0.53166 0.58231 0.0
H209 H 0.75437 0.46486 0.57968 0.0
H210 H 0.90207 0.62325 0.55727 0.0
H211 H 0.80246 0.72263 0.5331 0.0
H212 H 0.82918 0.8037 0.56757 0.0
H213 H 0.90649 0.86627 0.59531 0.0
C214 C 0.69065 0.35837 0.4724 0.0
C215 C 0.64048 0.32954 0.48859 0.0
C216 C 0.73282 0.32488 0.4588 0.0
C217 C 0.72518 0.26201 0.46121 0.0
C218 C 0.67327 0.23412 0.47598 0.0
C219 C 0.63173 0.26736 0.48984 0.0
C220 C 0.77041 0.22322 0.44954 0.0
C221 C 0.83151 0.23613 0.44856 0.0
C222 C 0.87677 0.19272 0.44088 0.0
C223 C 0.92981 0.21476 0.42487 0.0
C224 C 0.97262 0.1747 0.41696 0.0
C225 C 0.96336 0.11216 0.42545 0.0
H226 H 0.83 0.11088 0.4639 0.0
C227 C 0.91173 0.08987 0.44244 0.0
C228 C 0.86885 0.1297 0.45025 0.0
H229 H 0.90442 0.04157 0.44924 0.0
H230 H 0.6984 0.40633 0.47125 0.0
H231 H 0.77125 0.3483 0.44667 0.0
H232 H 0.66592 0.18594 0.47788 0.0
H233 H 0.59316 0.24415 0.50205 0.0
H234 H 0.75308 0.18029 0.44366 0.0
H235 H 0.84947 0.2792 0.45382 0.0
H236 H 0.93748 0.263 0.41787 0.0
H237 H 0.01252 0.19228 0.40385 0.0
C238 C 0.40813 0.25678 0.55718 0.0
C239 C 0.40371 0.27952 0.52078 0.0
C240 C 0.38059 0.20158 0.57007 0.0
C241 C 0.34865 0.16778 0.54676 0.0
C242 C 0.34722 0.18896 0.51041 0.0
C243 C 0.37387 0.24454 0.49753 0.0
C244 C 0.3148 0.11134 0.5594 0.0
C245 C 0.2847 0.10394 0.58832 0.0
C246 C 0.24219 0.05245 0.59789 0.0
C247 C 0.18859 0.06246 0.61332 0.0
C248 C 0.1452 0.01638 0.62051 0.0
C249 C 0.15536 0.95883 0.61332 0.0
H250 H 0.29477 0.9848 0.58019 0.0
C251 C 0.21015 0.94793 0.59917 0.0
C252 C 0.25315 0.99438 0.59134 0.0
H253 H 0.21907 0.90367 0.5937 0.0
H254 H 0.43115 0.2825 0.57577 0.0
H255 H 0.38398 0.18571 0.59825 0.0
H256 H 0.32343 0.16349 0.4919 0.0
H257 H 0.37019 0.26053 0.46933 0.0
H258 H 0.30858 0.07827 0.54232 0.0
H259 H 0.28555 0.14007 0.60329 0.0
H260 H 0.17903 0.10675 0.61859 0.0
H261 H 0.10256 0.02642 0.63045 0.0
C262 C 0.30147 0.59919 0.50626 0.0
C263 C 0.36706 0.60011 0.51068 0.0
C264 C 0.26701 0.65219 0.50317 0.0
C265 C 0.29745 0.70779 0.50361 0.0
C266 C 0.36293 0.70785 0.51118 0.0
C267 C 0.39761 0.65431 0.51473 0.0
C268 C 0.26221 0.7662 0.49443 0.0
C269 C 0.20929 0.77337 0.47166 0.0
C270 C 0.17318 0.83086 0.45917 0.0
C271 C 0.11343 0.82801 0.44066 0.0
C272 C 0.07822 0.88047 0.42698 0.0
C273 C 0.10206 0.93704 0.43135 0.0
H274 H 0.24319 0.89269 0.47686 0.0
C275 C 0.16164 0.94047 0.44969 0.0
C276 C 0.19702 0.88791 0.46354 0.0
H277 H 0.18109 0.98399 0.4528 0.0
H278 H 0.27668 0.5577 0.50379 0.0
H279 H 0.21655 0.64955 0.49937 0.0
H280 H 0.38752 0.74987 0.51237 0.0
H281 H 0.44818 0.65616 0.51824 0.0
H282 H 0.28246 0.80421 0.50503 0.0
H283 H 0.19133 0.73494 0.46057 0.0
H284 H 0.0938 0.78489 0.43671 0.0
H285 H 0.03209 0.87697 0.41316 0.0
C286 C 0.01305 0.97545 0.13088 0.0
C287 C 0.07104 0.95641 0.12368 0.0
C288 C 0.99707 0.96311 0.16533 0.0
C289 C 0.03889 0.93186 0.19311 0.0
C290 C 0.09403 0.90758 0.18507 0.0
C291 C 0.11017 0.92034 0.15079 0.0
C292 C 0.02609 0.93029 0.23004 0.0
C293 C 0.07198 0.92637 0.25722 0.0
C294 C 0.06274 0.93902 0.29245 0.0
C295 C 0.11494 0.95585 0.31369 0.0
C296 C 0.10771 0.97556 0.34492 0.0
C297 C 0.04818 0.97863 0.35549 0.0
H298 H 0.9625 0.9231 0.28995 0.0
C299 C 0.99651 0.95788 0.33578 0.0
C300 C 1.0036 0.93802 0.30459 0.0
H301 H 0.95038 0.95872 0.34412 0.0
H302 H 0.98217 0.00367 0.11054 0.0
H303 H 0.95377 0.98153 0.1706 0.0
H304 H 0.12611 0.88067 0.2053 0.0
H305 H 0.15479 0.90431 0.14577 0.0
H306 H 0.97866 0.94067 0.23381 0.0
H307 H 0.12002 0.92076 0.25256 0.0
H308 H 0.1612 0.95635 0.30533 0.0
H309 H 0.14805 0.99116 0.35997 0.0
C310 C 0.13722 0.99029 0.8915 0.0
C311 C 0.09262 0.956 0.91008 0.0
C312 C 0.15359 0.97521 0.86044 0.0
C313 C 0.12682 0.92464 0.8482 0.0
C314 C 0.08654 0.88752 0.86855 0.0
C315 C 0.06859 0.90373 0.89885 0.0
C316 C 0.13544 0.91261 0.81294 0.0
C317 C 0.12585 0.95643 0.78403 0.0
C318 C 0.11789 0.94318 0.74789 0.0
C319 C 0.06988 0.97281 0.72343 0.0
C320 C 0.05782 0.95821 0.69001 0.0
C321 C 0.09514 0.91557 0.68 0.0
H322 H 0.19343 0.87764 0.75594 0.0
C323 C 0.14464 0.88742 0.70382 0.0
C324 C 0.15568 0.90068 0.73772 0.0
H325 H 0.17335 0.85392 0.69645 0.0
H326 H 0.15599 0.03103 0.8996 0.0
H327 H 0.18539 0.00412 0.84537 0.0
H328 H 0.06558 0.84822 0.85969 0.0
H329 H 0.03398 0.87677 0.91276 0.0
H330 H 0.13925 0.86579 0.81003 0.0
H331 H 0.11465 0.00197 0.78701 0.0
H332 H 0.04012 0.00566 0.73065 0.0
H333 H 0.01899 0.97966 0.67198 0.0
C334 C 0.44667 0.45258 0.6469 0.0
C335 C 0.47211 0.48937 0.61876 0.0
C336 C 0.45222 0.46859 0.67996 0.0
C337 C 0.48437 0.52137 0.68567 0.0
C338 C 0.50408 0.56113 0.65667 0.0
C339 C 0.49798 0.54532 0.62342 0.0
C340 C 0.50086 0.53466 0.72155 0.0
C341 C 0.5069 0.49117 0.75079 0.0
C342 C 0.52534 0.50391 0.78644 0.0
C343 C 0.49867 0.46964 0.81493 0.0
C344 C 0.51239 0.48252 0.84862 0.0
C345 C 0.55461 0.5284 0.85449 0.0
H346 H 0.59183 0.57482 0.77127 0.0
C347 C 0.58389 0.56072 0.82652 0.0
C348 C 0.56922 0.54877 0.79259 0.0
H349 H 0.61588 0.59686 0.83077 0.0
H350 H 0.42538 0.4097 0.64384 0.0
H351 H 0.43307 0.43836 0.70109 0.0
H352 H 0.52769 0.60276 0.66016 0.0
H353 H 0.51783 0.57471 0.60214 0.0
H354 H 0.51133 0.58125 0.72374 0.0
H355 H 0.4967 0.44442 0.74911 0.0
H356 H 0.46525 0.43447 0.81087 0.0
H357 H 0.48878 0.45806 0.87 0.0
C358 C 0.6165 0.4739 0.3999 0.0
C359 C 0.58569 0.51731 0.41323 0.0
C360 C 0.6381 0.48894 0.36689 0.0
C361 C 0.62812 0.5473 0.34646 0.0
C362 C 0.60264 0.59217 0.36152 0.0
C363 C 0.58093 0.57699 0.39448 0.0
C364 C 0.63737 0.55693 0.30852 0.0
C365 C 0.60348 0.5974 0.2836 0.0
C366 C 0.59655 0.59551 0.24537 0.0
C367 C 0.57235 0.64672 0.22118 0.0
C368 C 0.55467 0.64357 0.18587 0.0
C369 C 0.56037 0.58899 0.17424 0.0
H370 H 0.62164 0.50053 0.25074 0.0
C371 C 0.58695 0.53853 0.19783 0.0
C372 C 0.60489 0.54157 0.23306 0.0
H373 H 0.59144 0.49605 0.18915 0.0
H374 H 0.61889 0.42722 0.41346 0.0
H375 H 0.65793 0.45353 0.35613 0.0
H376 H 0.59639 0.63827 0.34733 0.0
H377 H 0.55676 0.61099 0.4043 0.0
H378 H 0.66674 0.52441 0.30061 0.0
H379 H 0.57443 0.63031 0.29136 0.0
H380 H 0.56477 0.68863 0.22993 0.0
H381 H 0.53372 0.68278 0.16802 0.0
loop_
_geom_bond_atom_site_label_1
_geom_bond_atom_site_label_2
_geom_bond_distance
_geom_bond_site_symmetry_2
_ccdc_geom_bond_type
Zn0 O6 1.920 1_545 S
Zn0 O12 1.898 . S
Zn0 O15 1.905 1_545 S
Zn1 O9 1.905 1_565 S
Zn1 O10 1.898 . S
Zn1 O18 1.920 . S
Zn2 O5 2.080 1_445 S
Zn2 O8 2.114 1_554 S
Zn2 O11 2.120 1_545 S
Zn2 O13 2.120 1_455 S
Zn2 O14 2.114 1_554 S
Zn2 O17 2.078 . S
C3 O8 1.166 1_554 S
C3 O9 1.182 . S
C4 O10 1.167 . S
C4 O11 1.299 . S
O5 Zn2 2.080 1_665 S
O5 C19 1.305 . S
O6 Zn0 1.920 1_565 S
O6 C19 1.234 1_556 S
C7 O12 1.167 . S
C7 O13 1.299 1_556 S
O8 Zn2 2.114 1_556 S
O8 C3 1.166 1_556 S
O9 Zn1 1.905 1_545 S
O9 C3 1.182 . S
O10 Zn1 1.898 . S
O10 C4 1.167 . S
O11 Zn2 2.120 1_565 S
O11 C4 1.299 . S
O12 Zn0 1.898 . S
O12 C7 1.167 . S
O13 Zn2 2.120 1_655 S
O13 C7 1.299 1_554 S
O14 Zn2 2.114 1_556 S
O14 C16 1.166 1_545 S
O15 Zn0 1.905 1_565 S
O15 C16 1.182 1_655 S
C16 O14 1.166 1_565 S
C16 O15 1.182 1_455 S
O17 Zn2 2.078 . S
O17 C20 1.298 1_545 S
O18 Zn1 1.920 . S
O18 C20 1.234 . S
C19 O5 1.305 . S
C19 O6 1.234 1_554 S
C20 O17 1.298 1_565 S
C20 O18 1.234 . S
Zn21 O27 1.920 . S
Zn21 O33 1.898 . S
Zn21 O36 1.905 . S
Zn22 O30 1.905 . S
Zn22 O31 1.898 . S
Zn22 O39 1.920 . S
Zn23 O26 2.080 . S
Zn23 O29 2.114 . S
Zn23 O32 2.120 . S
Zn23 O34 2.120 . S
Zn23 O35 2.114 . S
Zn23 O38 2.080 . S
C24 O29 1.166 . S
C24 O30 1.182 . S
C25 O31 1.167 . S
C25 O32 1.299 . S
O26 Zn23 2.080 . S
O26 C40 1.305 . S
O27 Zn21 1.920 . S
O27 C40 1.234 . S
C28 O33 1.167 . S
C28 O34 1.299 . S
O29 Zn23 2.114 . S
O29 C24 1.166 . S
O30 Zn22 1.905 . S
O30 C24 1.182 . S
O31 Zn22 1.898 . S
O31 C25 1.167 . S
O32 Zn23 2.120 . S
O32 C25 1.299 . S
O33 Zn21 1.898 . S
O33 C28 1.167 . S
O34 Zn23 2.120 . S
O34 C28 1.299 . S
O35 Zn23 2.114 . S
O35 C37 1.166 . S
O36 Zn21 1.905 . S
O36 C37 1.182 . S
C37 O35 1.166 . S
C37 O36 1.182 . S
O38 Zn23 2.080 . S
O38 C41 1.305 . S
O39 Zn22 1.920 . S
O39 C41 1.234 . S
C40 O26 1.305 . S
C40 O27 1.234 . S
C41 O38 1.305 . S
C41 O39 1.234 . S
C42 N43 1.320 . S
C42 N44 1.348 . S
C42 C45 1.485 . S
N43 C42 1.320 . S
N43 N47 1.371 . S
N44 C42 1.348 . S
N44 C46 1.346 . S
C45 C42 1.485 . S
C45 H49 0.960 1_545 S
C45 H50 0.961 . S
C45 H51 0.960 1_545 S
C46 N44 1.346 . S
C46 N47 1.307 . S
C46 C48 1.486 1_455 S
N47 N43 1.371 . S
N47 C46 1.307 . S
C48 C46 1.486 1_655 S
C48 H52 0.960 1_655 S
C48 H53 0.960 . S
C48 H54 0.959 . S
H49 C45 0.960 1_565 S
H50 C45 0.961 . S
H51 C45 0.960 1_565 S
H52 C48 0.960 1_455 S
H53 C48 0.960 . S
H54 C48 0.959 . S
C55 N56 1.317 . S
C55 N57 1.348 1_445 S
C55 C58 1.485 . S
N56 C55 1.317 . S
N56 N60 1.370 . S
N57 C55 1.348 1_665 S
N57 C59 1.346 . S
C58 C55 1.485 . S
C58 H62 0.960 1_455 S
C58 H63 0.961 1_545 S
C58 H64 0.960 . S
C59 N57 1.346 . S
C59 N60 1.307 1_665 S
C59 C61 1.486 . S
N60 N56 1.370 . S
N60 C59 1.307 1_445 S
C61 C59 1.486 . S
C61 H65 0.960 . S
C61 H66 0.960 . S
C61 H67 0.959 . S
H62 C58 0.960 1_655 S
H63 C58 0.961 1_565 S
H64 C58 0.960 . S
H65 C61 0.960 . S
H66 C61 0.960 . S
H67 C61 0.959 . S
C68 N69 1.317 . S
C68 N70 1.348 . S
C68 C71 1.485 . S
N69 C68 1.317 . S
N69 N73 1.370 . S
N70 C68 1.348 . S
N70 C72 1.346 . S
C71 C68 1.485 . S
C71 H75 0.960 . S
C71 H76 0.961 . S
C71 H77 0.960 . S
C72 N70 1.346 . S
C72 N73 1.307 . S
C72 C74 1.486 . S
N73 N69 1.370 . S
N73 C72 1.307 . S
C74 C72 1.486 . S
C74 H78 0.960 . S
C74 H79 0.960 . S
C74 H80 0.959 . S
H75 C71 0.960 . S
H76 C71 0.961 . S
H77 C71 0.960 . S
H78 C74 0.960 . S
H79 C74 0.960 . S
H80 C74 0.959 . S
C81 N82 1.317 . S
C81 N83 1.348 . S
C81 C84 1.485 . S
N82 C81 1.317 . S
N82 N86 1.370 . S
N83 C81 1.348 . S
N83 C85 1.346 . S
C84 C81 1.485 . S
C84 H88 0.960 . S
C84 H89 0.961 . S
C84 H90 0.960 . S
C85 N83 1.346 . S
C85 N86 1.307 . S
C85 C87 1.486 . S
N86 N82 1.370 . S
N86 C85 1.307 . S
C87 C85 1.486 . S
C87 H91 0.960 . S
C87 H92 0.960 . S
C87 H93 0.959 . S
H88 C84 0.960 . S
H89 C84 0.961 . S
H90 C84 0.960 . S
H91 C87 0.960 . S
H92 C87 0.960 . S
H93 C87 0.959 . S
C94 C95 1.386 1_556 S
C94 C96 1.383 1_556 S
C94 H110 0.951 . S
C95 C94 1.386 1_554 S
C95 C99 1.383 . S
C96 C94 1.383 1_554 S
C96 C97 1.402 . S
C96 H111 0.951 1_554 S
C97 C96 1.402 . S
C97 C98 1.375 . S
C97 C100 1.481 . S
C98 C97 1.375 . S
C98 C99 1.367 . S
C98 H112 0.951 . S
C99 C95 1.383 . S
C99 C98 1.367 . S
C99 H113 0.950 . S
C100 C97 1.481 . S
C100 C101 1.297 . S
C100 H114 0.950 . S
C101 C100 1.297 . S
C101 C102 1.479 . S
C101 H115 0.950 . S
C102 C101 1.479 . S
C102 C103 1.375 . S
C102 C108 1.404 . S
C103 C102 1.375 . S
C103 C104 1.369 . S
C103 H116 0.950 . S
C104 C103 1.369 . S
C104 C105 1.392 . S
C104 H117 0.951 . S
C105 C104 1.392 . S
C105 C107 1.384 . S
H106 C108 0.949 . S
C107 C105 1.384 . S
C107 C108 1.385 . S
C107 H109 0.950 . S
C108 C102 1.404 . S
C108 H106 0.949 . S
C108 C107 1.385 . S
H109 C107 0.950 . S
H110 C94 0.951 . S
H111 C96 0.951 1_556 S
H112 C98 0.951 . S
H113 C99 0.950 . S
H114 C100 0.950 . S
H115 C101 0.950 . S
H116 C103 0.950 . S
H117 C104 0.951 . S
C118 C119 1.386 1_554 S
C118 C120 1.385 . S
C118 H134 0.951 . S
C119 C118 1.386 1_556 S
C119 C123 1.383 . S
C120 C118 1.385 . S
C120 C121 1.397 1_554 S
C120 H135 0.953 . S
C121 C120 1.397 1_556 S
C121 C122 1.375 . S
C121 C124 1.481 . S
C122 C121 1.375 . S
C122 C123 1.367 . S
C122 H136 0.951 . S
C123 C119 1.383 . S
C123 C122 1.367 . S
C123 H137 0.950 . S
C124 C121 1.481 . S
C124 C125 1.297 . S
C124 H138 0.950 . S
C125 C124 1.297 . S
C125 C126 1.479 . S
C125 H139 0.956 . S
C126 C125 1.479 . S
C126 C127 1.375 . S
C126 C132 1.404 . S
C127 C126 1.375 . S
C127 C128 1.369 . S
C127 H140 0.950 1_556 S
C128 C127 1.369 . S
C128 C129 1.392 . S
C128 H141 0.951 . S
C129 C128 1.392 . S
C129 C131 1.384 . S
H130 C132 0.949 . S
C131 C129 1.384 . S
C131 C132 1.385 . S
C131 H133 0.950 . S
C132 C126 1.404 . S
C132 H130 0.949 . S
C132 C131 1.385 . S
H133 C131 0.950 . S
H134 C118 0.951 . S
H135 C120 0.953 . S
H136 C122 0.951 . S
H137 C123 0.950 . S
H138 C124 0.950 . S
H139 C125 0.956 . S
H140 C127 0.950 1_554 S
H141 C128 0.951 . S
C142 C143 1.386 . S
C142 C144 1.383 . S
C142 H158 0.951 . S
C143 C142 1.386 . S
C143 C147 1.383 . S
C144 C142 1.383 . S
C144 C145 1.402 . S
C144 H159 0.951 . S
C145 C144 1.402 . S
C145 C146 1.375 . S
C145 C148 1.481 . S
C146 C145 1.375 . S
C146 C147 1.367 . S
C146 H160 0.951 . S
C147 C143 1.383 . S
C147 C146 1.367 . S
C147 H161 0.941 1_554 S
C148 C145 1.481 . S
C148 C149 1.297 . S
C148 H162 0.950 . S
C149 C148 1.297 . S
C149 C150 1.479 . S
C149 H163 0.950 . S
C150 C149 1.479 . S
C150 C151 1.375 . S
C150 C156 1.404 . S
C151 C150 1.375 . S
C151 C152 1.369 . S
C151 H164 0.950 . S
C152 C151 1.369 . S
C152 C153 1.392 . S
C152 H165 0.951 . S
C153 C152 1.392 . S
C153 C155 1.384 . S
H154 C156 0.949 . S
C155 C153 1.384 . S
C155 C156 1.385 . S
C155 H157 0.950 . S
C156 C150 1.404 . S
C156 H154 0.949 . S
C156 C155 1.385 . S
H157 C155 0.950 . S
H158 C142 0.951 . S
H159 C144 0.951 . S
H160 C146 0.951 . S
H161 C147 0.941 1_556 S
H162 C148 0.950 . S
H163 C149 0.950 . S
H164 C151 0.950 . S
H165 C152 0.951 . S
C166 C167 1.386 . S
C166 C168 1.383 . S
C166 H182 0.951 . S
C167 C166 1.386 . S
C167 C171 1.383 1_556 S
C168 C166 1.383 . S
C168 C169 1.402 . S
C168 H183 0.951 . S
C169 C168 1.402 . S
C169 C170 1.375 1_556 S
C169 C172 1.481 . S
C170 C169 1.375 1_554 S
C170 C171 1.367 . S
C170 H184 0.951 . S
C171 C167 1.383 1_554 S
C171 C170 1.367 . S
C171 H185 0.950 . S
C172 C169 1.481 . S
C172 C173 1.297 . S
C172 H186 0.950 . S
C173 C172 1.297 . S
C173 C174 1.479 . S
C173 H187 0.950 . S
C174 C173 1.479 . S
C174 C175 1.375 . S
C174 C180 1.404 . S
C175 C174 1.375 . S
C175 C176 1.369 . S
C175 H188 0.950 . S
C176 C175 1.369 . S
C176 C177 1.392 . S
C176 H189 0.951 . S
C177 C176 1.392 . S
C177 C179 1.384 . S
H178 C180 0.949 . S
C179 C177 1.384 . S
C179 C180 1.385 . S
C179 H181 0.950 . S
C180 C174 1.404 . S
C180 H178 0.949 . S
C180 C179 1.385 . S
H181 C179 0.950 . S
H182 C166 0.951 . S
H183 C168 0.951 . S
H184 C170 0.951 . S
H185 C171 0.950 . S
H186 C172 0.950 . S
H187 C173 0.950 . S
H188 C175 0.950 . S
H189 C176 0.951 . S
C190 C191 1.386 . S
C190 C192 1.383 . S
C190 H206 0.951 . S
C191 C190 1.386 . S
C191 C195 1.383 . S
C192 C190 1.383 . S
C192 C193 1.402 . S
C192 H207 0.951 . S
C193 C192 1.402 . S
C193 C194 1.375 . S
C193 C196 1.481 . S
C194 C193 1.375 . S
C194 C195 1.367 . S
C194 H208 0.951 . S
C195 C191 1.383 . S
C195 C194 1.367 . S
C195 H209 0.950 . S
C196 C193 1.481 . S
C196 C197 1.297 . S
C196 H210 0.950 . S
C197 C196 1.297 . S
C197 C198 1.479 . S
C197 H211 0.950 . S
C198 C197 1.479 . S
C198 C199 1.375 . S
C198 C204 1.404 . S
C199 C198 1.375 . S
C199 C200 1.369 . S
C199 H212 0.950 . S
C200 C199 1.369 . S
C200 C201 1.392 . S
C200 H213 0.951 . S
C201 C200 1.392 . S
C201 C203 1.384 . S
H202 C204 0.949 . S
C203 C201 1.384 . S
C203 C204 1.385 . S
C203 H205 0.950 . S
C204 C198 1.404 . S
C204 H202 0.949 . S
C204 C203 1.385 . S
H205 C203 0.950 . S
H206 C190 0.951 . S
H207 C192 0.951 . S
H208 C194 0.951 . S
H209 C195 0.950 . S
H210 C196 0.950 . S
H211 C197 0.950 . S
H212 C199 0.950 . S
H213 C200 0.951 . S
C214 C215 1.386 . S
C214 C216 1.383 . S
C214 H230 0.951 . S
C215 C214 1.386 . S
C215 C219 1.383 . S
C216 C214 1.383 . S
C216 C217 1.402 . S
C216 H231 0.951 . S
C217 C216 1.402 . S
C217 C218 1.375 . S
C217 C220 1.481 . S
C218 C217 1.375 . S
C218 C219 1.367 . S
C218 H232 0.951 . S
C219 C215 1.383 . S
C219 C218 1.367 . S
C219 H233 0.950 . S
C220 C217 1.481 . S
C220 C221 1.297 . S
C220 H234 0.950 . S
C221 C220 1.297 . S
C221 C222 1.479 . S
C221 H235 0.950 . S
C222 C221 1.479 . S
C222 C223 1.375 . S
C222 C228 1.404 . S
C223 C222 1.375 . S
C223 C224 1.369 . S
C223 H236 0.950 . S
C224 C223 1.369 . S
C224 C225 1.392 . S
C224 H237 0.951 1_655 S
C225 C224 1.392 . S
C225 C227 1.384 . S
H226 C228 0.949 . S
C227 C225 1.384 . S
C227 C228 1.385 . S
C227 H229 0.950 . S
C228 C222 1.404 . S
C228 H226 0.949 . S
C228 C227 1.385 . S
H229 C227 0.950 . S
H230 C214 0.951 . S
H231 C216 0.951 . S
H232 C218 0.951 . S
H233 C219 0.950 . S
H234 C220 0.950 . S
H235 C221 0.950 . S
H236 C223 0.950 . S
H237 C224 0.951 1_455 S
C238 C239 1.386 . S
C238 C240 1.383 . S
C238 H254 0.951 . S
C239 C238 1.386 . S
C239 C243 1.383 . S
C240 C238 1.383 . S
C240 C241 1.402 . S
C240 H255 0.951 . S
C241 C240 1.402 . S
C241 C242 1.375 . S
C241 C244 1.481 . S
C242 C241 1.375 . S
C242 C243 1.367 . S
C242 H256 0.951 . S
C243 C239 1.383 . S
C243 C242 1.367 . S
C243 H257 0.950 . S
C244 C241 1.481 . S
C244 C245 1.297 . S
C244 H258 0.950 . S
C245 C244 1.297 . S
C245 C246 1.479 . S
C245 H259 0.950 . S
C246 C245 1.479 . S
C246 C247 1.375 . S
C246 C252 1.404 . S
C247 C246 1.375 . S
C247 C248 1.369 . S
C247 H260 0.950 . S
C248 C247 1.369 . S
C248 C249 1.392 . S
C248 H261 0.951 . S
C249 C248 1.392 . S
C249 C251 1.384 . S
H250 C252 0.949 . S
C251 C249 1.384 . S
C251 C252 1.385 . S
C251 H253 0.950 . S
C252 C246 1.404 . S
C252 H250 0.949 . S
C252 C251 1.385 . S
H253 C251 0.950 . S
H254 C238 0.951 . S
H255 C240 0.951 . S
H256 C242 0.951 . S
H257 C243 0.950 . S
H258 C244 0.950 . S
H259 C245 0.950 . S
H260 C247 0.950 . S
H261 C248 0.951 . S
C262 C263 1.386 . S
C262 C264 1.383 . S
C262 H278 0.951 . S
C263 C262 1.386 . S
C263 C267 1.383 . S
C264 C262 1.383 . S
C264 C265 1.402 . S
C264 H279 0.951 . S
C265 C264 1.402 . S
C265 C266 1.375 . S
C265 C268 1.481 . S
C266 C265 1.375 . S
C266 C267 1.367 . S
C266 H280 0.951 . S
C267 C263 1.383 . S
C267 C266 1.367 . S
C267 H281 0.950 . S
C268 C265 1.481 . S
C268 C269 1.297 . S
C268 H282 0.950 . S
C269 C268 1.297 . S
C269 C270 1.479 . S
C269 H283 0.950 . S
C270 C269 1.479 . S
C270 C271 1.375 . S
C270 C276 1.404 . S
C271 C270 1.375 . S
C271 C272 1.369 . S
C271 H284 0.950 . S
C272 C271 1.369 . S
C272 C273 1.392 . S
C272 H285 0.951 . S
C273 C272 1.392 . S
C273 C275 1.384 . S
H274 C276 0.949 . S
C275 C273 1.384 . S
C275 C276 1.385 . S
C275 H277 0.950 1_565 S
C276 C270 1.404 . S
C276 H274 0.949 . S
C276 C275 1.385 . S
H277 C275 0.950 1_545 S
H278 C262 0.951 . S
H279 C264 0.951 . S
H280 C266 0.951 . S
H281 C267 0.950 . S
H282 C268 0.950 . S
H283 C269 0.950 . S
H284 C271 0.950 . S
H285 C272 0.951 . S
C286 C287 1.386 1_545 S
C286 C288 1.382 . S
C286 H302 0.951 . S
C287 C286 1.386 1_565 S
C287 C291 1.383 . S
C288 C286 1.382 . S
C288 C289 1.398 1_545 S
C288 H303 0.955 . S
C289 C288 1.398 1_565 S
C289 C290 1.375 . S
C289 C292 1.481 . S
C290 C289 1.375 . S
C290 C291 1.367 . S
C290 H304 0.951 . S
C291 C287 1.383 . S
C291 C290 1.367 . S
C291 H305 0.950 . S
C292 C289 1.481 . S
C292 C293 1.297 . S
C292 H306 0.950 . S
C293 C292 1.297 . S
C293 C294 1.479 . S
C293 H307 0.950 1_565 S
C294 C293 1.479 . S
C294 C295 1.375 1_565 S
C294 C300 1.404 . S
C295 C294 1.375 1_545 S
C295 C296 1.369 . S
C295 H308 0.950 . S
C296 C295 1.369 . S
C296 C297 1.392 . S
C296 H309 0.951 . S
C297 C296 1.392 . S
C297 C299 1.384 1_545 S
H298 C300 0.949 . S
C299 C297 1.384 1_565 S
C299 C300 1.385 . S
C299 H301 0.950 . S
C300 C294 1.404 . S
C300 H298 0.949 . S
C300 C299 1.385 . S
H301 C299 0.950 . S
H302 C286 0.951 . S
H303 C288 0.955 . S
H304 C290 0.951 . S
H305 C291 0.950 . S
H306 C292 0.950 . S
H307 C293 0.950 1_545 S
H308 C295 0.950 . S
H309 C296 0.951 . S
C310 C311 1.386 1_545 S
C310 C312 1.383 . S
C310 H326 0.951 . S
C311 C310 1.386 1_565 S
C311 C315 1.383 1_455 S
C312 C310 1.383 . S
C312 C313 1.402 1_545 S
C312 H327 0.951 . S
C313 C312 1.402 1_565 S
C313 C314 1.375 1_455 S
C313 C316 1.481 . S
C314 C313 1.375 1_655 S
C314 C315 1.367 . S
C314 H328 0.951 . S
C315 C311 1.383 1_655 S
C315 C314 1.367 . S
C315 H329 0.950 . S
C316 C313 1.481 . S
C316 C317 1.297 . S
C316 H330 0.950 1_455 S
C317 C316 1.297 . S
C317 C318 1.478 . S
C317 H331 0.950 1_565 S
C318 C317 1.478 . S
C318 C319 1.370 1_565 S
C318 C324 1.410 1_455 S
C319 C318 1.370 1_545 S
C319 C320 1.369 . S
C319 H332 0.950 . S
C320 C319 1.369 . S
C320 C321 1.392 . S
C320 H333 0.951 . S
C321 C320 1.392 . S
C321 C323 1.384 1_445 S
H322 C324 0.949 . S
C323 C321 1.384 1_665 S
C323 C324 1.385 . S
C323 H325 0.950 . S
C324 C318 1.410 1_655 S
C324 H322 0.949 . S
C324 C323 1.385 . S
H325 C323 0.950 . S
H326 C310 0.951 . S
H327 C312 0.951 . S
H328 C314 0.951 . S
H329 C315 0.950 . S
H330 C316 0.950 1_655 S
H331 C317 0.950 1_545 S
H332 C319 0.950 . S
H333 C320 0.951 . S
C334 C335 1.386 . S
C334 C336 1.383 . S
C334 H350 0.951 . S
C335 C334 1.386 . S
C335 C339 1.383 . S
C336 C334 1.383 . S
C336 C337 1.402 . S
C336 H351 0.951 . S
C337 C336 1.402 . S
C337 C338 1.375 . S
C337 C340 1.481 . S
C338 C337 1.375 . S
C338 C339 1.367 . S
C338 H352 0.951 . S
C339 C335 1.383 . S
C339 C338 1.367 . S
C339 H353 0.950 . S
C340 C337 1.481 . S
C340 C341 1.297 . S
C340 H354 0.950 . S
C341 C340 1.297 . S
C341 C342 1.479 . S
C341 H355 0.950 . S
C342 C341 1.479 . S
C342 C343 1.375 . S
C342 C348 1.404 . S
C343 C342 1.375 . S
C343 C344 1.369 . S
C343 H356 0.950 . S
C344 C343 1.369 . S
C344 C345 1.392 . S
C344 H357 0.951 . S
C345 C344 1.392 . S
C345 C347 1.384 . S
H346 C348 0.949 . S
C347 C345 1.384 . S
C347 C348 1.385 . S
C347 H349 0.950 . S
C348 C342 1.404 . S
C348 H346 0.949 . S
C348 C347 1.385 . S
H349 C347 0.950 . S
H350 C334 0.951 . S
H351 C336 0.951 . S
H352 C338 0.951 . S
H353 C339 0.950 . S
H354 C340 0.950 . S
H355 C341 0.950 . S
H356 C343 0.950 . S
H357 C344 0.951 . S
C358 C359 1.386 . S
C358 C360 1.383 . S
C358 H374 0.951 . S
C359 C358 1.386 . S
C359 C363 1.383 . S
C360 C358 1.383 . S
C360 C361 1.402 . S
C360 H375 0.951 . S
C361 C360 1.402 . S
C361 C362 1.375 . S
C361 C364 1.481 . S
C362 C361 1.375 . S
C362 C363 1.367 . S
C362 H376 0.951 . S
C363 C359 1.383 . S
C363 C362 1.367 . S
C363 H377 0.950 . S
C364 C361 1.481 . S
C364 C365 1.297 . S
C364 H378 0.950 . S
C365 C364 1.297 . S
C365 C366 1.479 . S
C365 H379 0.950 . S
C366 C365 1.479 . S
C366 C367 1.375 . S
C366 C372 1.404 . S
C367 C366 1.375 . S
C367 C368 1.369 . S
C367 H380 0.950 . S
C368 C367 1.369 . S
C368 C369 1.392 . S
C368 H381 0.951 . S
C369 C368 1.392 . S
C369 C371 1.384 . S
H370 C372 0.949 . S
C371 C369 1.384 . S
C371 C372 1.385 . S
C371 H373 0.950 . S
C372 C366 1.404 . S
C372 H370 0.949 . S
C372 C371 1.385 . S
H373 C371 0.950 . S
H374 C358 0.951 . S
H375 C360 0.951 . S
H376 C362 0.951 . S
H377 C363 0.950 . S
H378 C364 0.950 . S
H379 C365 0.950 . S
H380 C367 0.950 . S
H381 C368 0.951 . S
C105 N83 1.190 . S
C95 C3 1.057 . S
C119 C4 1.459 1_556 S
C129 N70 1.515 . S
C143 C19 1.529 . S
C153 N82 1.682 . S
C167 C7 1.199 . S
C177 N69 1.324 . S
C191 C37 1.010 . S
C201 N57 1.155 . S
C215 C28 1.399 . S
C225 N44 1.505 1_655 S
C249 N56 1.687 . S
C239 C41 1.520 . S
C273 N43 1.315 1_565 S
C263 C25 1.220 . S
C287 C20 1.373 . S
C297 N47 1.477 . S
C311 C16 1.361 . S
C321 N60 1.452 . S
C345 N73 1.493 . S
C335 C40 1.341 . S
C359 C24 1.352 . S
C369 N86 1.483 . S
