# Generated by pormake.
# Topology ptr, (4,4)-cn, num edge types: 1
# Building blocks:
#     Node 0, Type 0, BuildingBlock: TATPOV_clean_sbu_0, # of connection points: 4
#     Node 1, Type 0, BuildingBlock: TATPOV_clean_sbu_0, # of connection points: 4
#     Node 2, Type 0, BuildingBlock: TATPOV_clean_sbu_0, # of connection points: 4
#     Node 3, Type 0, BuildingBlock: TATPOV_clean_sbu_0, # of connection points: 4
#     Node 4, Type 0, BuildingBlock: TATPOV_clean_sbu_0, # of connection points: 4
#     Node 5, Type 0, BuildingBlock: TATPOV_clean_sbu_0, # of connection points: 4
#     Node 6, Type 0, BuildingBlock: TATPOV_clean_sbu_0, # of connection points: 4
#     Node 7, Type 0, BuildingBlock: TATPOV_clean_sbu_0, # of connection points: 4
#     Node 8, Type 0, BuildingBlock: TATPOV_clean_sbu_0, # of connection points: 4
#     Node 9, Type 0, BuildingBlock: TATPOV_clean_sbu_0, # of connection points: 4
#     Node 10, Type 0, BuildingBlock: TATPOV_clean_sbu_0, # of connection points: 4
#     Node 11, Type 0, BuildingBlock: TATPOV_clean_sbu_0, # of connection points: 4
#     Node 12, Type 0, BuildingBlock: TATPOV_clean_sbu_0, # of connection points: 4
#     Node 13, Type 0, BuildingBlock: TATPOV_clean_sbu_0, # of connection points: 4
#     Node 14, Type 0, BuildingBlock: TATPOV_clean_sbu_0, # of connection points: 4
#     Node 15, Type 0, BuildingBlock: TATPOV_clean_sbu_0, # of connection points: 4
#     Node 16, Type 0, BuildingBlock: TATPOV_clean_sbu_0, # of connection points: 4
#     Node 17, Type 0, BuildingBlock: TATPOV_clean_sbu_0, # of connection points: 4
#     Node 18, Type 1, BuildingBlock: MIFKUJ_clean_linker_1, # of connection points: 4
#     Node 19, Type 1, BuildingBlock: MIFKUJ_clean_linker_1, # of connection points: 4
#     Node 20, Type 1, BuildingBlock: MIFKUJ_clean_linker_1, # of connection points: 4
#     Node 21, Type 1, BuildingBlock: MIFKUJ_clean_linker_1, # of connection points: 4
#     Node 22, Type 1, BuildingBlock: MIFKUJ_clean_linker_1, # of connection points: 4
#     Node 23, Type 1, BuildingBlock: MIFKUJ_clean_linker_1, # of connection points: 4
#     Node 24, Type 1, BuildingBlock: MIFKUJ_clean_linker_1, # of connection points: 4
#     Node 25, Type 1, BuildingBlock: MIFKUJ_clean_linker_1, # of connection points: 4
#     Node 26, Type 1, BuildingBlock: MIFKUJ_clean_linker_1, # of connection points: 4
#     Node 27, Type 1, BuildingBlock: MIFKUJ_clean_linker_1, # of connection points: 4
#     Node 28, Type 1, BuildingBlock: MIFKUJ_clean_linker_1, # of connection points: 4
#     Node 29, Type 1, BuildingBlock: MIFKUJ_clean_linker_1, # of connection points: 4
#     Node 30, Type 1, BuildingBlock: MIFKUJ_clean_linker_1, # of connection points: 4
#     Node 31, Type 1, BuildingBlock: MIFKUJ_clean_linker_1, # of connection points: 4
#     Node 32, Type 1, BuildingBlock: MIFKUJ_clean_linker_1, # of connection points: 4
#     Node 33, Type 1, BuildingBlock: MIFKUJ_clean_linker_1, # of connection points: 4
#     Node 34, Type 1, BuildingBlock: MIFKUJ_clean_linker_1, # of connection points: 4
#     Node 35, Type 1, BuildingBlock: MIFKUJ_clean_linker_1, # of connection points: 4
#     Edge 36, Type (0, 1), BuildingBlock: ZUJKAS_clean_linker_0, # of connection points: 2
#     Edge 37, Type (0, 1), BuildingBlock: ZUJKAS_clean_linker_0, # of connection points: 2
#     Edge 38, Type (0, 1), BuildingBlock: ZUJKAS_clean_linker_0, # of connection points: 2
#     Edge 39, Type (0, 1), BuildingBlock: ZUJKAS_clean_linker_0, # of connection points: 2
#     Edge 40, Type (0, 1), BuildingBlock: ZUJKAS_clean_linker_0, # of connection points: 2
#     Edge 41, Type (0, 1), BuildingBlock: ZUJKAS_clean_linker_0, # of connection points: 2
#     Edge 42, Type (0, 1), BuildingBlock: ZUJKAS_clean_linker_0, # of connection points: 2
#     Edge 43, Type (0, 1), BuildingBlock: ZUJKAS_clean_linker_0, # of connection points: 2
#     Edge 44, Type (0, 1), BuildingBlock: ZUJKAS_clean_linker_0, # of connection points: 2
#     Edge 45, Type (0, 1), BuildingBlock: ZUJKAS_clean_linker_0, # of connection points: 2
#     Edge 46, Type (0, 1), BuildingBlock: ZUJKAS_clean_linker_0, # of connection points: 2
#     Edge 47, Type (0, 1), BuildingBlock: ZUJKAS_clean_linker_0, # of connection points: 2
#     Edge 48, Type (0, 1), BuildingBlock: ZUJKAS_clean_linker_0, # of connection points: 2
#     Edge 49, Type (0, 1), BuildingBlock: ZUJKAS_clean_linker_0, # of connection points: 2
#     Edge 50, Type (0, 1), BuildingBlock: ZUJKAS_clean_linker_0, # of connection points: 2
#     Edge 51, Type (0, 1), BuildingBlock: ZUJKAS_clean_linker_0, # of connection points: 2
#     Edge 52, Type (0, 1), BuildingBlock: ZUJKAS_clean_linker_0, # of connection points: 2
#     Edge 53, Type (0, 1), BuildingBlock: ZUJKAS_clean_linker_0, # of connection points: 2
#     Edge 54, Type (0, 1), BuildingBlock: ZUJKAS_clean_linker_0, # of connection points: 2
#     Edge 55, Type (0, 1), BuildingBlock: ZUJKAS_clean_linker_0, # of connection points: 2
#     Edge 56, Type (0, 1), BuildingBlock: ZUJKAS_clean_linker_0, # of connection points: 2
#     Edge 57, Type (0, 1), BuildingBlock: ZUJKAS_clean_linker_0, # of connection points: 2
#     Edge 58, Type (0, 1), BuildingBlock: ZUJKAS_clean_linker_0, # of connection points: 2
#     Edge 59, Type (0, 1), BuildingBlock: ZUJKAS_clean_linker_0, # of connection points: 2
#     Edge 60, Type (0, 1), BuildingBlock: ZUJKAS_clean_linker_0, # of connection points: 2
#     Edge 61, Type (0, 1), BuildingBlock: ZUJKAS_clean_linker_0, # of connection points: 2
#     Edge 62, Type (0, 1), BuildingBlock: ZUJKAS_clean_linker_0, # of connection points: 2
#     Edge 63, Type (0, 1), BuildingBlock: ZUJKAS_clean_linker_0, # of connection points: 2
#     Edge 64, Type (0, 1), BuildingBlock: ZUJKAS_clean_linker_0, # of connection points: 2
#     Edge 65, Type (0, 1), BuildingBlock: ZUJKAS_clean_linker_0, # of connection points: 2
#     Edge 66, Type (0, 1), BuildingBlock: ZUJKAS_clean_linker_0, # of connection points: 2
#     Edge 67, Type (0, 1), BuildingBlock: ZUJKAS_clean_linker_0, # of connection points: 2
#     Edge 68, Type (0, 1), BuildingBlock: ZUJKAS_clean_linker_0, # of connection points: 2
#     Edge 69, Type (0, 1), BuildingBlock: ZUJKAS_clean_linker_0, # of connection points: 2
#     Edge 70, Type (0, 1), BuildingBlock: ZUJKAS_clean_linker_0, # of connection points: 2
#     Edge 71, Type (0, 1), BuildingBlock: ZUJKAS_clean_linker_0, # of connection points: 2
#     Edge 72, Type (0, 1), BuildingBlock: ZUJKAS_clean_linker_0, # of connection points: 2
#     Edge 73, Type (0, 1), BuildingBlock: ZUJKAS_clean_linker_0, # of connection points: 2
#     Edge 74, Type (0, 1), BuildingBlock: ZUJKAS_clean_linker_0, # of connection points: 2
#     Edge 75, Type (0, 1), BuildingBlock: ZUJKAS_clean_linker_0, # of connection points: 2
#     Edge 76, Type (0, 1), BuildingBlock: ZUJKAS_clean_linker_0, # of connection points: 2
#     Edge 77, Type (0, 1), BuildingBlock: ZUJKAS_clean_linker_0, # of connection points: 2
#     Edge 78, Type (0, 1), BuildingBlock: ZUJKAS_clean_linker_0, # of connection points: 2
#     Edge 79, Type (0, 1), BuildingBlock: ZUJKAS_clean_linker_0, # of connection points: 2
#     Edge 80, Type (0, 1), BuildingBlock: ZUJKAS_clean_linker_0, # of connection points: 2
#     Edge 81, Type (0, 1), BuildingBlock: ZUJKAS_clean_linker_0, # of connection points: 2
#     Edge 82, Type (0, 1), BuildingBlock: ZUJKAS_clean_linker_0, # of connection points: 2
#     Edge 83, Type (0, 1), BuildingBlock: ZUJKAS_clean_linker_0, # of connection points: 2
#     Edge 84, Type (0, 1), BuildingBlock: ZUJKAS_clean_linker_0, # of connection points: 2
#     Edge 85, Type (0, 1), BuildingBlock: ZUJKAS_clean_linker_0, # of connection points: 2
#     Edge 86, Type (0, 1), BuildingBlock: ZUJKAS_clean_linker_0, # of connection points: 2
#     Edge 87, Type (0, 1), BuildingBlock: ZUJKAS_clean_linker_0, # of connection points: 2
#     Edge 88, Type (0, 1), BuildingBlock: ZUJKAS_clean_linker_0, # of connection points: 2
#     Edge 89, Type (0, 1), BuildingBlock: ZUJKAS_clean_linker_0, # of connection points: 2
#     Edge 90, Type (0, 1), BuildingBlock: ZUJKAS_clean_linker_0, # of connection points: 2
#     Edge 91, Type (0, 1), BuildingBlock: ZUJKAS_clean_linker_0, # of connection points: 2
#     Edge 92, Type (0, 1), BuildingBlock: ZUJKAS_clean_linker_0, # of connection points: 2
#     Edge 93, Type (0, 1), BuildingBlock: ZUJKAS_clean_linker_0, # of connection points: 2
#     Edge 94, Type (0, 1), BuildingBlock: ZUJKAS_clean_linker_0, # of connection points: 2
#     Edge 95, Type (0, 1), BuildingBlock: ZUJKAS_clean_linker_0, # of connection points: 2
#     Edge 96, Type (0, 1), BuildingBlock: ZUJKAS_clean_linker_0, # of connection points: 2
#     Edge 97, Type (0, 1), BuildingBlock: ZUJKAS_clean_linker_0, # of connection points: 2
#     Edge 98, Type (0, 1), BuildingBlock: ZUJKAS_clean_linker_0, # of connection points: 2
#     Edge 99, Type (0, 1), BuildingBlock: ZUJKAS_clean_linker_0, # of connection points: 2
#     Edge 100, Type (0, 1), BuildingBlock: ZUJKAS_clean_linker_0, # of connection points: 2
#     Edge 101, Type (0, 1), BuildingBlock: ZUJKAS_clean_linker_0, # of connection points: 2
#     Edge 102, Type (0, 1), BuildingBlock: ZUJKAS_clean_linker_0, # of connection points: 2
#     Edge 103, Type (0, 1), BuildingBlock: ZUJKAS_clean_linker_0, # of connection points: 2
#     Edge 104, Type (0, 1), BuildingBlock: ZUJKAS_clean_linker_0, # of connection points: 2
#     Edge 105, Type (0, 1), BuildingBlock: ZUJKAS_clean_linker_0, # of connection points: 2
#     Edge 106, Type (0, 1), BuildingBlock: ZUJKAS_clean_linker_0, # of connection points: 2
#     Edge 107, Type (0, 1), BuildingBlock: ZUJKAS_clean_linker_0, # of connection points: 2
# Relax obj value: 0.067
# Max RMSD: 0.225
# Mean RMSD: 0.107
data_MOF--net-ptr--node1-TATPOV_clean_sbu_0--node2-MIFKUJ_clean_linker_1--edge1-ZUJKAS_clean_linker_0
_symmetry_space_group_name_H-M    P1
_symmetry_Int_Tables_number       1
_symmetry_cell_setting            triclinic
loop_
_symmetry_equiv_pos_as_xyz
'x, y, z'
_cell_length_a     111.46779
_cell_length_b     113.04445
_cell_length_c     75.535259
_cell_angle_alpha  89.731573
_cell_angle_beta   90.6408
_cell_angle_gamma 121.42134
loop_
_atom_site_label
_atom_site_type_symbol
_atom_site_fract_x
_atom_site_fract_y
_atom_site_fract_z
_atom_type_partial_charge
Zn0 Zn 0.96957 0.35121 0.01586 0.0
Zn1 Zn 0.99498 0.35442 0.01995 0.0
O2 O 0.9815 0.33363 0.01438 0.0
O3 O 0.9604 0.33062 0.01222 0.0
O4 O 0.01297 0.35507 0.02608 0.0
O5 O 0.97059 0.35919 0.04001 0.0
O6 O 0.99179 0.3625 0.04271 0.0
C7 C 0.96832 0.32571 0.01172 0.0
C8 C 0.9905 0.36944 0.98975 0.0
O9 O 0.99889 0.36687 0.99813 0.0
O10 O 0.97789 0.36407 0.99478 0.0
C11 C 0.01727 0.34833 0.01755 0.0
O12 O 0.01044 0.34156 0.00317 0.0
C13 C 0.98185 0.36366 0.04887 0.0
Zn14 Zn 0.65237 0.6247 0.00299 0.0
Zn15 Zn 0.65181 0.64679 0.01462 0.0
O16 O 0.67262 0.65443 0.00844 0.0
O17 O 0.67335 0.63618 0.00021 0.0
O18 O 0.65253 0.66378 0.02419 0.0
O19 O 0.64395 0.61482 0.02599 0.0
O20 O 0.64389 0.63314 0.03556 0.0
C21 C 0.67958 0.64908 0.00316 0.0
C22 C 0.63475 0.63115 0.98169 0.0
O23 O 0.63822 0.64066 0.99319 0.0
O24 O 0.63966 0.62327 0.98274 0.0
C25 C 0.65928 0.67531 0.01614 0.0
O26 O 0.66528 0.6759 0.00102 0.0
C27 C 0.64128 0.62085 0.03802 0.0
Zn28 Zn 0.3528 0.9784 0.02006 0.0
Zn29 Zn 0.35563 0.00344 0.01635 0.0
O30 O 0.33479 0.99018 0.02259 0.0
O31 O 0.33212 0.96955 0.02504 0.0
O32 O 0.35654 0.02145 0.01115 0.0
O33 O 0.3596 0.97922 0.99526 0.0
O34 O 0.36242 0.99991 0.99272 0.0
C35 C 0.32699 0.97724 0.02561 0.0
C36 C 0.37255 0.9994 0.04506 0.0
O37 O 0.3692 0.00735 0.03734 0.0
O38 O 0.36706 0.98691 0.04007 0.0
C39 C 0.34856 0.02483 0.01857 0.0
O40 O 0.34009 0.01689 0.03114 0.0
C41 C 0.36338 0.99005 0.98623 0.0
Zn42 Zn 0.03163 0.651 0.01663 0.0
Zn43 Zn 0.00647 0.64813 0.01126 0.0
O44 O 0.02038 0.66901 0.01613 0.0
O45 O 0.04125 0.67166 0.01947 0.0
O46 O 0.98858 0.64783 0.00524 0.0
O47 O 0.03039 0.64229 0.99292 0.0
O48 O 0.00955 0.63963 0.98884 0.0
C49 C 0.03354 0.67681 0.01907 0.0
C50 C 0.0104 0.63337 0.04247 0.0
O51 O 0.00219 0.63576 0.03332 0.0
O52 O 0.02315 0.63876 0.03811 0.0
C53 C 0.98541 0.65569 0.01327 0.0
O54 O 0.99333 0.66325 0.02662 0.0
C55 C 0.01942 0.63801 0.9835 0.0
Zn56 Zn 0.34737 0.38041 0.02596 0.0
Zn57 Zn 0.34851 0.35842 0.01552 0.0
O58 O 0.32759 0.35052 0.02165 0.0
O59 O 0.3265 0.36868 0.02933 0.0
O60 O 0.34838 0.34151 0.00658 0.0
O61 O 0.35513 0.38977 0.00261 0.0
O62 O 0.35625 0.37177 0.99413 0.0
C63 C 0.32047 0.35575 0.02674 0.0
C64 C 0.36564 0.37517 0.04785 0.0
O65 O 0.36206 0.3652 0.03706 0.0
O66 O 0.36065 0.38294 0.04602 0.0
C67 C 0.34044 0.3296 0.01334 0.0
O68 O 0.33262 0.32838 0.02693 0.0
C69 C 0.35824 0.38376 0.99102 0.0
Zn70 Zn 0.65229 0.02661 0.00751 0.0
Zn71 Zn 0.64836 0.00122 0.01233 0.0
O72 O 0.66941 0.01398 0.00671 0.0
O73 O 0.67311 0.03502 0.00422 0.0
O74 O 0.64723 0.9833 0.01854 0.0
O75 O 0.64445 0.02601 0.03169 0.0
O76 O 0.64104 0.00514 0.03514 0.0
C77 C 0.67774 0.0269 0.00402 0.0
C78 C 0.63297 0.00554 0.98202 0.0
O79 O 0.63528 0.99726 0.99085 0.0
O80 O 0.63903 0.01821 0.9864 0.0
C81 C 0.65406 0.97899 0.0102 0.0
O82 O 0.66114 0.98573 0.99607 0.0
C83 C 0.64011 0.01519 0.04097 0.0
Zn84 Zn 0.63498 0.68893 0.34227 0.0
Zn85 Zn 0.65919 0.69045 0.35069 0.0
O86 O 0.64571 0.67019 0.34271 0.0
O87 O 0.62563 0.66862 0.33638 0.0
O88 O 0.67643 0.69015 0.35843 0.0
O89 O 0.63387 0.69524 0.36677 0.0
O90 O 0.65407 0.69709 0.37328 0.0
C91 C 0.63295 0.66306 0.33748 0.0
C92 C 0.65884 0.70845 0.32083 0.0
O93 O 0.66572 0.70457 0.3303 0.0
O94 O 0.64582 0.7033 0.3234 0.0
C95 C 0.68077 0.68355 0.34966 0.0
O96 O 0.67433 0.67746 0.33477 0.0
C97 C 0.64381 0.69841 0.37768 0.0
Zn98 Zn 0.31474 0.95452 0.34376 0.0
Zn99 Zn 0.31434 0.97752 0.35137 0.0
O100 O 0.33489 0.9845 0.34409 0.0
O101 O 0.3352 0.96566 0.33791 0.0
O102 O 0.31528 0.99515 0.35884 0.0
O103 O 0.3092 0.94761 0.36865 0.0
O104 O 0.30721 0.96565 0.37413 0.0
C105 C 0.34153 0.97871 0.33917 0.0
C106 C 0.29553 0.95858 0.32164 0.0
O107 O 0.30008 0.96964 0.33069 0.0
O108 O 0.30004 0.95055 0.32485 0.0
C109 C 0.3237 0.00685 0.35185 0.0
O110 O 0.33153 0.00747 0.33859 0.0
C111 C 0.30614 0.95435 0.37909 0.0
Zn112 Zn 0.02142 0.31325 0.36735 0.0
Zn113 Zn 0.02354 0.33689 0.35647 0.0
O114 O 0.00281 0.32455 0.36408 0.0
O115 O 0.00089 0.30494 0.37233 0.0
O116 O 0.02398 0.35367 0.34644 0.0
O117 O 0.02786 0.31076 0.34347 0.0
O118 O 0.02943 0.33012 0.33487 0.0
C119 C 0.9954 0.31221 0.36997 0.0
C120 C 0.04147 0.33745 0.38773 0.0
O121 O 0.03815 0.34404 0.37696 0.0
O122 O 0.03567 0.32441 0.38642 0.0
C123 C 0.02519 0.36376 0.35536 0.0
O124 O 0.02673 0.36388 0.37264 0.0
C125 C 0.03071 0.31978 0.33162 0.0
Zn126 Zn 0.6971 0.98014 0.36053 0.0
Zn127 Zn 0.67317 0.97814 0.34914 0.0
O128 O 0.68616 0.99878 0.356 0.0
O129 O 0.70592 0.00059 0.36487 0.0
O130 O 0.65623 0.97788 0.33898 0.0
O131 O 0.69918 0.97299 0.33693 0.0
O132 O 0.67938 0.9711 0.32812 0.0
C133 C 0.6987 0.00611 0.36198 0.0
C134 C 0.67254 0.96144 0.38137 0.0
O135 O 0.66594 0.96461 0.37029 0.0
O136 O 0.6857 0.96674 0.38002 0.0
C137 C 0.64668 0.97773 0.34821 0.0
O138 O 0.64736 0.97722 0.36555 0.0
C139 C 0.68978 0.96966 0.32514 0.0
Zn140 Zn 0.01752 0.71664 0.36017 0.0
Zn141 Zn 0.01872 0.69457 0.35019 0.0
O142 O 0.9977 0.68654 0.35588 0.0
O143 O 0.99657 0.70482 0.36278 0.0
O144 O 0.01911 0.67788 0.34146 0.0
O145 O 0.02585 0.7261 0.337 0.0
O146 O 0.0265 0.70781 0.32874 0.0
C147 C 0.99054 0.69186 0.36044 0.0
C148 C 0.03536 0.7114 0.38279 0.0
O149 O 0.03206 0.70152 0.37194 0.0
O150 O 0.0303 0.71909 0.38079 0.0
C151 C 0.011 0.66574 0.3475 0.0
O152 O 0.00235 0.66395 0.36034 0.0
C153 C 0.0288 0.71991 0.32553 0.0
Zn154 Zn 0.31632 0.36047 0.33643 0.0
Zn155 Zn 0.3133 0.33618 0.34621 0.0
O156 O 0.33402 0.34829 0.33865 0.0
O157 O 0.3369 0.36855 0.33182 0.0
O158 O 0.31254 0.31897 0.3551 0.0
O159 O 0.31009 0.36265 0.36049 0.0
O160 O 0.30734 0.34259 0.3682 0.0
C161 C 0.34188 0.36078 0.33352 0.0
C162 C 0.29602 0.33678 0.3151 0.0
O163 O 0.29911 0.32981 0.32548 0.0
O164 O 0.30195 0.34979 0.31704 0.0
C165 C 0.3176 0.31309 0.34619 0.0
O166 O 0.32264 0.31787 0.33038 0.0
C167 C 0.30667 0.35322 0.37192 0.0
Zn168 Zn 0.30316 0.02269 0.67245 0.0
Zn169 Zn 0.32788 0.02569 0.68193 0.0
O170 O 0.31527 0.00503 0.67512 0.0
O171 O 0.29461 0.00217 0.66875 0.0
O172 O 0.34555 0.02668 0.69068 0.0
O173 O 0.30179 0.03009 0.6961 0.0
O174 O 0.32208 0.03252 0.70367 0.0
C175 C 0.30244 0.9972 0.67043 0.0
C176 C 0.3267 0.04192 0.65035 0.0
O177 O 0.33394 0.03909 0.66077 0.0
O178 O 0.31354 0.03614 0.65247 0.0
C179 C 0.35139 0.02146 0.682 0.0
O180 O 0.3462 0.01588 0.66643 0.0
C181 C 0.31163 0.03375 0.70733 0.0
Zn182 Zn 0.98405 0.28658 0.67013 0.0
Zn183 Zn 0.98256 0.30869 0.67865 0.0
O184 O 0.00342 0.31703 0.67171 0.0
O185 O 0.00461 0.29875 0.66502 0.0
O186 O 0.98219 0.32539 0.68722 0.0
O187 O 0.97779 0.27836 0.6944 0.0
O188 O 0.97568 0.29615 0.70084 0.0
C189 C 0.01052 0.31176 0.66665 0.0
C190 C 0.9646 0.2901 0.64804 0.0
O191 O 0.96852 0.30081 0.65762 0.0
O192 O 0.96968 0.2825 0.65085 0.0
C193 C 0.98758 0.3368 0.67887 0.0
O194 O 0.99329 0.33786 0.66337 0.0
C195 C 0.9745 0.28469 0.70524 0.0
Zn196 Zn 0.69032 0.6465 0.69108 0.0
Zn197 Zn 0.69107 0.67018 0.68413 0.0
O198 O 0.67079 0.65672 0.69253 0.0
O199 O 0.67001 0.63721 0.69807 0.0
O200 O 0.69054 0.68714 0.67703 0.0
O201 O 0.69542 0.6453 0.66597 0.0
O202 O 0.69699 0.66523 0.66079 0.0
C203 C 0.66401 0.64412 0.69761 0.0
C204 C 0.71058 0.67 0.71257 0.0
O205 O 0.70595 0.67662 0.7041 0.0
O206 O 0.7057 0.65729 0.70926 0.0
C207 C 0.68399 0.69151 0.6859 0.0
O208 O 0.67794 0.68526 0.70076 0.0
C209 C 0.69809 0.65514 0.6555 0.0
Zn210 Zn 0.36385 0.31444 0.6921 0.0
Zn211 Zn 0.34011 0.31328 0.68211 0.0
O212 O 0.35395 0.33374 0.68912 0.0
O213 O 0.37388 0.33506 0.69568 0.0
O214 O 0.32321 0.31383 0.67337 0.0
O215 O 0.36458 0.30642 0.66863 0.0
O216 O 0.3452 0.3057 0.66044 0.0
C217 C 0.36681 0.34085 0.69397 0.0
C218 C 0.33976 0.29663 0.71415 0.0
O219 O 0.33306 0.29981 0.70328 0.0
O220 O 0.35285 0.30169 0.71235 0.0
C221 C 0.31883 0.32057 0.68174 0.0
O222 O 0.32501 0.32663 0.69675 0.0
C223 C 0.35508 0.3035 0.65713 0.0
Zn224 Zn 0.69178 0.05221 0.68858 0.0
Zn225 Zn 0.6895 0.02836 0.6793 0.0
O226 O 0.66924 0.02286 0.68607 0.0
O227 O 0.67113 0.04258 0.69341 0.0
O228 O 0.6872 0.01027 0.671 0.0
O229 O 0.69936 0.06037 0.66467 0.0
O230 O 0.69774 0.04081 0.65714 0.0
C231 C 0.66365 0.02957 0.69141 0.0
C232 C 0.70848 0.04512 0.71059 0.0
O233 O 0.70343 0.0345 0.70053 0.0
O234 O 0.70505 0.05407 0.70813 0.0
C235 C 0.67783 0.99854 0.67704 0.0
O236 O 0.66958 0.99803 0.68969 0.0
C237 C 0.70106 0.05316 0.65336 0.0
Zn238 Zn 0.97849 0.68999 0.66795 0.0
Zn239 Zn 0.97547 0.66541 0.67647 0.0
O240 O 0.99647 0.67799 0.67026 0.0
O241 O 0.99931 0.69844 0.66486 0.0
O242 O 0.97404 0.64761 0.68439 0.0
O243 O 0.97092 0.69086 0.6917 0.0
O244 O 0.96899 0.67102 0.69868 0.0
C245 C 0.00439 0.69074 0.66623 0.0
C246 C 0.9593 0.66732 0.64475 0.0
O247 O 0.96195 0.65997 0.65506 0.0
O248 O 0.96519 0.68026 0.64734 0.0
C249 C 0.9816 0.64338 0.67783 0.0
O250 O 0.99012 0.65038 0.6648 0.0
C251 C 0.96766 0.68121 0.70275 0.0
H252 H 0.14423 0.32569 0.18252 0.0
H253 H 0.12842 0.3287 0.20145 0.0
H254 H 0.09267 0.29399 0.17565 0.0
H255 H 0.1086 0.29106 0.15662 0.0
H256 H 0.14797 0.30465 0.18076 0.0
H257 H 0.13578 0.32911 0.14043 0.0
H258 H 0.12055 0.33463 0.12354 0.0
H259 H 0.10165 0.29492 0.09714 0.0
H260 H 0.11719 0.2896 0.11392 0.0
H261 H 0.15491 0.28454 0.1131 0.0
H262 H 0.17376 0.28611 0.09477 0.0
H263 H 0.20386 0.32386 0.12193 0.0
H264 H 0.18505 0.3224 0.13979 0.0
H265 H 0.14655 0.30397 0.1151 0.0
H266 H 0.165 0.28342 0.15633 0.0
H267 H 0.18369 0.28315 0.17353 0.0
H268 H 0.19397 0.32167 0.19852 0.0
H269 H 0.17555 0.322 0.1812 0.0
C270 C 0.12761 0.30813 0.16818 0.0
C271 C 0.13299 0.31874 0.18091 0.0
C272 C 0.12394 0.32042 0.19175 0.0
C273 C 0.10929 0.31151 0.19016 0.0
C274 C 0.10389 0.3011 0.1771 0.0
C275 C 0.11298 0.2994 0.16624 0.0
C276 C 0.13742 0.306 0.15748 0.0
C277 C 0.14767 0.30453 0.16639 0.0
C278 C 0.13695 0.30571 0.13875 0.0
C279 C 0.12748 0.30886 0.1286 0.0
C280 C 0.12827 0.32155 0.1311 0.0
C281 C 0.11952 0.32467 0.12145 0.0
C282 C 0.10979 0.31519 0.10904 0.0
C283 C 0.10912 0.30253 0.10645 0.0
C284 C 0.11793 0.29943 0.11608 0.0
C285 C 0.16861 0.30327 0.12791 0.0
C286 C 0.1656 0.2931 0.11511 0.0
C287 C 0.17636 0.29397 0.10474 0.0
C288 C 0.19027 0.30513 0.10688 0.0
C289 C 0.19323 0.31522 0.11983 0.0
C290 C 0.18251 0.31432 0.13018 0.0
C291 C 0.15723 0.30282 0.13842 0.0
C292 C 0.14663 0.30375 0.12947 0.0
C293 C 0.15771 0.30315 0.15714 0.0
C294 C 0.16892 0.30276 0.16744 0.0
C295 C 0.17135 0.29183 0.16545 0.0
C296 C 0.18195 0.29164 0.17535 0.0
C297 C 0.19034 0.30243 0.1873 0.0
C298 C 0.18783 0.31332 0.18924 0.0
C299 C 0.17722 0.31345 0.17947 0.0
H300 H 0.71751 0.87859 0.16945 0.0
H301 H 0.71786 0.89597 0.18898 0.0
H302 H 0.67557 0.88304 0.1722 0.0
H303 H 0.67523 0.86561 0.15281 0.0
H304 H 0.70048 0.85127 0.17223 0.0
H305 H 0.7091 0.88531 0.12713 0.0
H306 H 0.70435 0.90098 0.1102 0.0
H307 H 0.66384 0.86622 0.09443 0.0
H308 H 0.6686 0.85065 0.1114 0.0
H309 H 0.66931 0.8174 0.11217 0.0
H310 H 0.66541 0.79686 0.0964 0.0
H311 H 0.70643 0.80564 0.11337 0.0
H312 H 0.71025 0.82619 0.12918 0.0
H313 H 0.6875 0.84383 0.10853 0.0
H314 H 0.67527 0.81088 0.15422 0.0
H315 H 0.67508 0.79402 0.1747 0.0
H316 H 0.71728 0.82442 0.19187 0.0
H317 H 0.71757 0.84116 0.1709 0.0
C318 C 0.6964 0.87086 0.15954 0.0
C319 C 0.70837 0.87959 0.16984 0.0
C320 C 0.70853 0.88949 0.18103 0.0
C321 C 0.69672 0.89084 0.18217 0.0
C322 C 0.6849 0.88237 0.17145 0.0
C323 C 0.6847 0.87241 0.16033 0.0
C324 C 0.69574 0.85941 0.14915 0.0
C325 C 0.69799 0.84984 0.15818 0.0
C326 C 0.69184 0.85719 0.13101 0.0
C327 C 0.68917 0.8668 0.12065 0.0
C328 C 0.69916 0.88108 0.12012 0.0
C329 C 0.69643 0.89003 0.11045 0.0
C330 C 0.68372 0.88484 0.10096 0.0
C331 C 0.67381 0.87052 0.10139 0.0
C332 C 0.67651 0.86161 0.11112 0.0
C333 C 0.69004 0.82331 0.12195 0.0
C334 C 0.6775 0.81495 0.11241 0.0
C335 C 0.6753 0.80322 0.10337 0.0
C336 C 0.68561 0.79961 0.10362 0.0
C337 C 0.6982 0.80803 0.11312 0.0
C338 C 0.7004 0.81979 0.12214 0.0
C339 C 0.6922 0.83569 0.13165 0.0
C340 C 0.69026 0.84543 0.12249 0.0
C341 C 0.696 0.83788 0.1498 0.0
C342 C 0.69648 0.82726 0.16091 0.0
C343 C 0.68462 0.81383 0.16206 0.0
C344 C 0.68446 0.80424 0.17392 0.0
C345 C 0.69613 0.80792 0.185 0.0
C346 C 0.70818 0.82123 0.18341 0.0
C347 C 0.70832 0.83083 0.17152 0.0
H348 H 0.11585 0.84296 0.17483 0.0
H349 H 0.09986 0.8231 0.19314 0.0
H350 H 0.11477 0.79873 0.16857 0.0
H351 H 0.13104 0.81876 0.15075 0.0
H352 H 0.14447 0.85609 0.17546 0.0
H353 H 0.10728 0.83046 0.13196 0.0
H354 H 0.09138 0.80969 0.11473 0.0
H355 H 0.1272 0.81144 0.09041 0.0
H356 H 0.14294 0.83158 0.10834 0.0
H357 H 0.17533 0.86414 0.11307 0.0
H358 H 0.1964 0.88202 0.09819 0.0
H359 H 0.18966 0.91351 0.1193 0.0
H360 H 0.16837 0.89546 0.13415 0.0
H361 H 0.14836 0.85624 0.11013 0.0
H362 H 0.18418 0.87468 0.15379 0.0
H363 H 0.2028 0.89101 0.17365 0.0
H364 H 0.17352 0.89962 0.19881 0.0
H365 H 0.15503 0.8837 0.1782 0.0
C366 C 0.12453 0.8323 0.16131 0.0
C367 C 0.11557 0.83329 0.1733 0.0
C368 C 0.10637 0.8219 0.18365 0.0
C369 C 0.10602 0.80931 0.18229 0.0
C370 C 0.11485 0.8083 0.17004 0.0
C371 C 0.12406 0.8197 0.15971 0.0
C372 C 0.13506 0.8447 0.15137 0.0
C373 C 0.14511 0.85629 0.16112 0.0
C374 C 0.1362 0.84467 0.13272 0.0
C375 C 0.12633 0.83252 0.12164 0.0
C376 C 0.11169 0.82629 0.12302 0.0
C377 C 0.1026 0.81449 0.113 0.0
C378 C 0.10799 0.80879 0.10127 0.0
C379 C 0.12266 0.81533 0.09958 0.0
C380 C 0.1317 0.82699 0.10968 0.0
C381 C 0.17031 0.87847 0.12476 0.0
C382 C 0.1783 0.87488 0.11439 0.0
C383 C 0.1904 0.88511 0.10602 0.0
C384 C 0.19471 0.89915 0.10771 0.0
C385 C 0.18653 0.90275 0.11774 0.0
C386 C 0.17444 0.89248 0.12628 0.0
C387 C 0.15789 0.86745 0.13424 0.0
C388 C 0.14747 0.85619 0.12443 0.0
C389 C 0.15674 0.8675 0.15288 0.0
C390 C 0.16824 0.87813 0.16427 0.0
C391 C 0.18183 0.88033 0.16326 0.0
C392 C 0.19244 0.88954 0.17484 0.0
C393 C 0.18965 0.89658 0.18793 0.0
C394 C 0.17608 0.89451 0.18877 0.0
C395 C 0.16547 0.88534 0.17708 0.0
H396 H 0.28633 0.16434 0.86271 0.0
H397 H 0.28503 0.1805 0.84209 0.0
H398 H 0.32847 0.21112 0.85374 0.0
H399 H 0.32973 0.19495 0.87417 0.0
H400 H 0.3047 0.15458 0.85918 0.0
H401 H 0.29468 0.1792 0.90333 0.0
H402 H 0.29839 0.2001 0.91817 0.0
H403 H 0.3411 0.21184 0.93086 0.0
H404 H 0.33738 0.19104 0.91583 0.0
H405 H 0.33862 0.15668 0.91844 0.0
H406 H 0.3437 0.14121 0.93526 0.0
H407 H 0.30228 0.10662 0.9224 0.0
H408 H 0.29718 0.12219 0.9058 0.0
H409 H 0.31939 0.16383 0.92232 0.0
H410 H 0.33198 0.14268 0.87858 0.0
H411 H 0.3325 0.12527 0.86016 0.0
H412 H 0.28956 0.10981 0.84367 0.0
H413 H 0.28895 0.12697 0.86264 0.0
C414 C 0.30809 0.17848 0.87005 0.0
C415 C 0.2955 0.17459 0.86095 0.0
C416 C 0.29476 0.18384 0.84926 0.0
C417 C 0.30667 0.19703 0.84628 0.0
C418 C 0.31916 0.20097 0.85568 0.0
C419 C 0.31986 0.19179 0.86746 0.0
C420 C 0.30932 0.16834 0.88123 0.0
C421 C 0.30753 0.15638 0.87312 0.0
C422 C 0.31369 0.17109 0.89916 0.0
C423 C 0.31578 0.1836 0.9084 0.0
C424 C 0.30485 0.1863 0.90926 0.0
C425 C 0.30695 0.19819 0.91784 0.0
C426 C 0.32005 0.20762 0.92564 0.0
C427 C 0.33095 0.20485 0.9248 0.0
C428 C 0.32881 0.19292 0.91635 0.0
C429 C 0.31755 0.14058 0.91079 0.0
C430 C 0.33061 0.14578 0.91934 0.0
C431 C 0.33354 0.13692 0.92882 0.0
C432 C 0.32341 0.1227 0.9301 0.0
C433 C 0.31025 0.11755 0.92176 0.0
C434 C 0.30736 0.12641 0.91218 0.0
C435 C 0.31467 0.14997 0.90029 0.0
C436 C 0.31622 0.16183 0.90849 0.0
C437 C 0.31045 0.14731 0.88228 0.0
C438 C 0.31037 0.13604 0.87216 0.0
C439 C 0.32256 0.13535 0.87132 0.0
C440 C 0.32291 0.12548 0.86062 0.0
C441 C 0.31109 0.11618 0.85039 0.0
C442 C 0.29879 0.1167 0.85154 0.0
C443 C 0.29845 0.12657 0.86227 0.0
H444 H 0.84819 0.11913 0.85142 0.0
H445 H 0.82948 0.10236 0.83175 0.0
H446 H 0.79971 0.10949 0.85848 0.0
H447 H 0.81856 0.12679 0.87723 0.0
H448 H 0.85798 0.14635 0.85397 0.0
H449 H 0.83597 0.10747 0.89648 0.0
H450 H 0.81503 0.08926 0.91177 0.0
H451 H 0.8073 0.12028 0.93219 0.0
H452 H 0.82811 0.13834 0.91698 0.0
H453 H 0.86167 0.17215 0.92057 0.0
H454 H 0.87824 0.19242 0.93787 0.0
H455 H 0.91287 0.19152 0.91418 0.0
H456 H 0.89613 0.17111 0.89679 0.0
H457 H 0.85564 0.14674 0.91945 0.0
H458 H 0.87376 0.18458 0.87983 0.0
H459 H 0.89021 0.20446 0.8621 0.0
H460 H 0.90112 0.17841 0.83336 0.0
H461 H 0.88536 0.15882 0.85201 0.0
C462 C 0.83478 0.12409 0.86599 0.0
C463 C 0.83761 0.11702 0.85306 0.0
C464 C 0.82686 0.10734 0.84192 0.0
C465 C 0.81305 0.10456 0.84349 0.0
C466 C 0.81023 0.11149 0.8567 0.0
C467 C 0.82099 0.12125 0.86766 0.0
C468 C 0.84635 0.13508 0.87697 0.0
C469 C 0.85771 0.14628 0.86832 0.0
C470 C 0.84562 0.13529 0.89565 0.0
C471 C 0.83354 0.12423 0.90556 0.0
C472 C 0.82979 0.11032 0.90434 0.0
C473 C 0.81789 0.09996 0.9131 0.0
C474 C 0.80953 0.10338 0.92303 0.0
C475 C 0.81348 0.11735 0.92446 0.0
C476 C 0.82541 0.12767 0.9159 0.0
C477 C 0.87763 0.17013 0.90732 0.0
C478 C 0.87282 0.1762 0.91923 0.0
C479 C 0.88232 0.18777 0.92917 0.0
C480 C 0.89688 0.19355 0.92747 0.0
C481 C 0.90172 0.18738 0.91567 0.0
C482 C 0.89217 0.17572 0.90574 0.0
C483 C 0.86733 0.15807 0.89646 0.0
C484 C 0.85621 0.14667 0.90512 0.0
C485 C 0.86802 0.15795 0.87775 0.0
C486 C 0.87849 0.17022 0.8675 0.0
C487 C 0.87997 0.18323 0.87003 0.0
C488 C 0.88924 0.19457 0.85966 0.0
C489 C 0.89702 0.19309 0.84622 0.0
C490 C 0.89553 0.18005 0.84377 0.0
C491 C 0.88641 0.16877 0.85432 0.0
H492 H 0.82454 0.68112 0.85418 0.0
H493 H 0.80686 0.68223 0.83616 0.0
H494 H 0.81897 0.72173 0.85972 0.0
H495 H 0.83685 0.7206 0.87773 0.0
H496 H 0.85257 0.6983 0.85395 0.0
H497 H 0.81572 0.6811 0.89538 0.0
H498 H 0.7972 0.68003 0.91352 0.0
H499 H 0.82777 0.71814 0.93957 0.0
H500 H 0.84635 0.71926 0.92108 0.0
H501 H 0.88214 0.71211 0.92229 0.0
H502 H 0.89751 0.70652 0.93908 0.0
H503 H 0.88083 0.66843 0.90945 0.0
H504 H 0.86538 0.67392 0.89298 0.0
H505 H 0.85403 0.69898 0.91959 0.0
H506 H 0.89181 0.71099 0.87795 0.0
H507 H 0.90733 0.70729 0.8591 0.0
H508 H 0.87098 0.67313 0.8334 0.0
H509 H 0.8556 0.67689 0.85216 0.0
C510 C 0.83201 0.70077 0.86729 0.0
C511 C 0.82338 0.69001 0.85552 0.0
C512 C 0.81319 0.6906 0.84534 0.0
C513 C 0.81147 0.70203 0.8466 0.0
C514 C 0.8201 0.71282 0.85844 0.0
C515 C 0.83024 0.71215 0.86878 0.0
C516 C 0.84305 0.70009 0.87758 0.0
C517 C 0.8529 0.69843 0.86831 0.0
C518 C 0.84357 0.70045 0.89628 0.0
C519 C 0.83237 0.70034 0.90677 0.0
C520 C 0.81842 0.68934 0.90482 0.0
C521 C 0.80787 0.68867 0.91531 0.0
C522 C 0.81107 0.69897 0.92802 0.0
C523 C 0.82501 0.71012 0.92979 0.0
C524 C 0.83562 0.71073 0.91932 0.0
C525 C 0.8728 0.69359 0.90612 0.0
C526 C 0.88179 0.70255 0.91945 0.0
C527 C 0.89053 0.69933 0.92905 0.0
C528 C 0.89045 0.68709 0.92547 0.0
C529 C 0.88132 0.67806 0.91228 0.0
C530 C 0.8725 0.68121 0.90283 0.0
C531 C 0.86346 0.69693 0.89594 0.0
C532 C 0.85397 0.69919 0.90523 0.0
C533 C 0.86298 0.69667 0.8772 0.0
C534 C 0.87254 0.69424 0.86643 0.0
C535 C 0.88721 0.70263 0.86837 0.0
C536 C 0.89606 0.70048 0.85763 0.0
C537 C 0.89037 0.68998 0.84469 0.0
C538 C 0.87569 0.68146 0.84303 0.0
C539 C 0.86688 0.68358 0.85376 0.0
H540 H 0.80953 0.66232 0.50721 0.0
H541 H 0.79274 0.66535 0.5241 0.0
H542 H 0.75837 0.63009 0.49723 0.0
H543 H 0.77528 0.62701 0.48045 0.0
H544 H 0.81348 0.64073 0.50662 0.0
H545 H 0.80262 0.6659 0.46621 0.0
H546 H 0.78727 0.67131 0.44944 0.0
H547 H 0.77091 0.63315 0.41996 0.0
H548 H 0.786 0.62755 0.43735 0.0
H549 H 0.82297 0.62192 0.43958 0.0
H550 H 0.84239 0.62351 0.42254 0.0
H551 H 0.87176 0.66054 0.45151 0.0
H552 H 0.85238 0.65906 0.46813 0.0
H553 H 0.81494 0.6416 0.44098 0.0
H554 H 0.83153 0.61998 0.48283 0.0
H555 H 0.84946 0.61912 0.50097 0.0
H556 H 0.85837 0.65656 0.52784 0.0
H557 H 0.8408 0.65755 0.50947 0.0
C558 C 0.79365 0.64445 0.49259 0.0
C559 C 0.79838 0.65525 0.50495 0.0
C560 C 0.78878 0.65705 0.51446 0.0
C561 C 0.77424 0.64799 0.51191 0.0
C562 C 0.76951 0.63718 0.4995 0.0
C563 C 0.77914 0.63545 0.48988 0.0
C564 C 0.80397 0.64262 0.48267 0.0
C565 C 0.81382 0.64094 0.49227 0.0
C566 C 0.80434 0.64282 0.46395 0.0
C567 C 0.79528 0.64621 0.45325 0.0
C568 C 0.79564 0.65864 0.45624 0.0
C569 C 0.78697 0.6618 0.44648 0.0
C570 C 0.77784 0.65266 0.43334 0.0
C571 C 0.77767 0.64032 0.43014 0.0
C572 C 0.78636 0.63715 0.43997 0.0
C573 C 0.83625 0.6403 0.45522 0.0
C574 C 0.83361 0.63033 0.44227 0.0
C575 C 0.84471 0.6312 0.43264 0.0
C576 C 0.85859 0.64217 0.43566 0.0
C577 C 0.86117 0.65206 0.44875 0.0
C578 C 0.85012 0.65115 0.45837 0.0
C579 C 0.82454 0.6398 0.46497 0.0
C580 C 0.81439 0.64105 0.45532 0.0
C581 C 0.82421 0.63969 0.4837 0.0
C582 C 0.83488 0.63888 0.49472 0.0
C583 C 0.83743 0.62804 0.49256 0.0
C584 C 0.84759 0.6275 0.50302 0.0
C585 C 0.8554 0.63782 0.51577 0.0
C586 C 0.85271 0.64858 0.51795 0.0
C587 C 0.84257 0.64909 0.50756 0.0
H588 H 0.37875 0.21134 0.50195 0.0
H589 H 0.37753 0.22806 0.52109 0.0
H590 H 0.33477 0.2123 0.50348 0.0
H591 H 0.3359 0.19529 0.48491 0.0
H592 H 0.36371 0.18385 0.5043 0.0
H593 H 0.37065 0.21696 0.45987 0.0
H594 H 0.36552 0.23258 0.44366 0.0
H595 H 0.3257 0.19752 0.42641 0.0
H596 H 0.33065 0.18202 0.44326 0.0
H597 H 0.33156 0.14808 0.44733 0.0
H598 H 0.32776 0.12733 0.43212 0.0
H599 H 0.37057 0.1391 0.44413 0.0
H600 H 0.37438 0.15999 0.45914 0.0
H601 H 0.34959 0.17537 0.44095 0.0
H602 H 0.34013 0.14342 0.48834 0.0
H603 H 0.34232 0.12756 0.50817 0.0
H604 H 0.38532 0.1595 0.51999 0.0
H605 H 0.38291 0.17543 0.50029 0.0
C606 C 0.35747 0.20213 0.49187 0.0
C607 C 0.36915 0.21155 0.50214 0.0
C608 C 0.36847 0.22118 0.51296 0.0
C609 C 0.35604 0.22152 0.51382 0.0
C610 C 0.34445 0.21223 0.50327 0.0
C611 C 0.34514 0.2026 0.49248 0.0
C612 C 0.35782 0.19121 0.48143 0.0
C613 C 0.36097 0.18221 0.49033 0.0
C614 C 0.35385 0.18883 0.46331 0.0
C615 C 0.35097 0.19832 0.45295 0.0
C616 C 0.36077 0.21265 0.45271 0.0
C617 C 0.35788 0.22156 0.44327 0.0
C618 C 0.34517 0.21631 0.43375 0.0
C619 C 0.33548 0.20193 0.43381 0.0
C620 C 0.33836 0.19303 0.44329 0.0
C621 C 0.35323 0.15554 0.45443 0.0
C622 C 0.34015 0.14623 0.4466 0.0
C623 C 0.33796 0.13432 0.43805 0.0
C624 C 0.34885 0.13155 0.437 0.0
C625 C 0.36201 0.141 0.44463 0.0
C626 C 0.36418 0.15288 0.4533 0.0
C627 C 0.35528 0.16794 0.46393 0.0
C628 C 0.35261 0.17721 0.45483 0.0
C629 C 0.35958 0.17052 0.48189 0.0
C630 C 0.36139 0.16057 0.49272 0.0
C631 C 0.35011 0.14693 0.49495 0.0
C632 C 0.35141 0.13785 0.50627 0.0
C633 C 0.36402 0.14223 0.51568 0.0
C634 C 0.37541 0.15583 0.51312 0.0
C635 C 0.37408 0.16493 0.50181 0.0
H636 H 0.7845 0.17458 0.5059 0.0
H637 H 0.7693 0.15386 0.52331 0.0
H638 H 0.78208 0.13053 0.49184 0.0
H639 H 0.79758 0.15144 0.47479 0.0
H640 H 0.81306 0.18764 0.50308 0.0
H641 H 0.77268 0.16369 0.46421 0.0
H642 H 0.75537 0.14308 0.4476 0.0
H643 H 0.78845 0.14648 0.41473 0.0
H644 H 0.80578 0.16666 0.43174 0.0
H645 H 0.83696 0.20027 0.43305 0.0
H646 H 0.85642 0.21952 0.41741 0.0
H647 H 0.85447 0.24855 0.45235 0.0
H648 H 0.83441 0.22925 0.46752 0.0
H649 H 0.81143 0.19112 0.43776 0.0
H650 H 0.85103 0.20879 0.47759 0.0
H651 H 0.87038 0.22462 0.4972 0.0
H652 H 0.8415 0.23045 0.5282 0.0
H653 H 0.82227 0.21493 0.50821 0.0
C654 C 0.79207 0.16453 0.48896 0.0
C655 C 0.78396 0.16498 0.5027 0.0
C656 C 0.77519 0.15309 0.51253 0.0
C657 C 0.77442 0.14052 0.5089 0.0
C658 C 0.7825 0.14007 0.49503 0.0
C659 C 0.79127 0.15198 0.48519 0.0
C660 C 0.80187 0.17735 0.47916 0.0
C661 C 0.81256 0.18853 0.48881 0.0
C662 C 0.80142 0.17828 0.46049 0.0
C663 C 0.79061 0.16662 0.44946 0.0
C664 C 0.77623 0.15998 0.45348 0.0
C665 C 0.76634 0.14826 0.44396 0.0
C666 C 0.7706 0.14322 0.42992 0.0
C667 C 0.78487 0.15024 0.42538 0.0
C668 C 0.79478 0.16177 0.4351 0.0
C669 C 0.83427 0.21324 0.45166 0.0
C670 C 0.84047 0.21076 0.43718 0.0
C671 C 0.85161 0.22176 0.42823 0.0
C672 C 0.85691 0.23547 0.43371 0.0
C673 C 0.85058 0.23803 0.44796 0.0
C674 C 0.8392 0.22701 0.45668 0.0
C675 C 0.82293 0.20131 0.46162 0.0
C676 C 0.81185 0.19034 0.45204 0.0
C677 C 0.82328 0.20035 0.48031 0.0
C678 C 0.83522 0.21077 0.49134 0.0
C679 C 0.84892 0.21369 0.4884 0.0
C680 C 0.85995 0.22264 0.49972 0.0
C681 C 0.85748 0.22877 0.51431 0.0
C682 C 0.8438 0.22606 0.51697 0.0
C683 C 0.83278 0.21711 0.50564 0.0
H684 H 0.96817 0.50435 0.19599 0.0
H685 H 0.96481 0.51977 0.17653 0.0
H686 H 0.00746 0.55282 0.18775 0.0
H687 H 0.01059 0.53744 0.20743 0.0
H688 H 0.98761 0.49664 0.19163 0.0
H689 H 0.97602 0.51895 0.23686 0.0
H690 H 0.97825 0.53898 0.25233 0.0
H691 H 0.02173 0.55343 0.26446 0.0
H692 H 0.0195 0.53346 0.24873 0.0
H693 H 0.02117 0.49833 0.25232 0.0
H694 H 0.02567 0.48248 0.26922 0.0
H695 H 0.98501 0.44811 0.2532 0.0
H696 H 0.98049 0.46399 0.23654 0.0
H697 H 0.00244 0.5056 0.25474 0.0
H698 H 0.01454 0.4837 0.21037 0.0
H699 H 0.01391 0.46554 0.19215 0.0
H700 H 0.97099 0.45136 0.17694 0.0
H701 H 0.97168 0.4695 0.1952 0.0
C702 C 0.98959 0.51977 0.20324 0.0
C703 C 0.97673 0.51497 0.19438 0.0
C704 C 0.97485 0.52379 0.1832 0.0
C705 C 0.98587 0.53755 0.18051 0.0
C706 C 0.99865 0.54238 0.18972 0.0
C707 C 0.00049 0.53358 0.20096 0.0
C708 C 0.99195 0.51011 0.21393 0.0
C709 C 0.99059 0.49843 0.20553 0.0
C710 C 0.99637 0.51278 0.23185 0.0
C711 C 0.99763 0.52477 0.24153 0.0
C712 C 0.98605 0.52646 0.2428 0.0
C713 C 0.9873 0.53785 0.25175 0.0
C714 C 0.00017 0.54779 0.25959 0.0
C715 C 0.01173 0.54603 0.25839 0.0
C716 C 0.01044 0.53458 0.24953 0.0
C717 C 0.00057 0.48235 0.24295 0.0
C718 C 0.01319 0.48739 0.25254 0.0
C719 C 0.01575 0.47833 0.2622 0.0
C720 C 0.00573 0.46403 0.26244 0.0
C721 C 0.99303 0.45903 0.25302 0.0
C722 C 0.99044 0.46811 0.24349 0.0
C723 C 0.99796 0.49197 0.23248 0.0
C724 C 0.99935 0.5037 0.24088 0.0
C725 C 0.99371 0.48942 0.21445 0.0
C726 C 0.99312 0.47792 0.20425 0.0
C727 C 0.00492 0.47654 0.20334 0.0
C728 C 0.00455 0.46615 0.19292 0.0
C729 C 0.99241 0.45704 0.18305 0.0
C730 C 0.98056 0.45833 0.18419 0.0
C731 C 0.98092 0.46867 0.19465 0.0
H732 H 0.51107 0.45442 0.18171 0.0
H733 H 0.49201 0.43783 0.16223 0.0
H734 H 0.463 0.44578 0.18946 0.0
H735 H 0.48216 0.46282 0.20809 0.0
H736 H 0.52149 0.48183 0.18457 0.0
H737 H 0.49994 0.44301 0.22656 0.0
H738 H 0.47922 0.42439 0.2417 0.0
H739 H 0.47067 0.45462 0.26296 0.0
H740 H 0.4913 0.47312 0.24791 0.0
H741 H 0.52521 0.50814 0.25037 0.0
H742 H 0.54194 0.52875 0.26706 0.0
H743 H 0.57629 0.5265 0.2449 0.0
H744 H 0.55941 0.5059 0.22799 0.0
H745 H 0.51903 0.48212 0.25008 0.0
H746 H 0.53609 0.51947 0.20928 0.0
H747 H 0.55272 0.53947 0.1917 0.0
H748 H 0.56651 0.51445 0.16635 0.0
H749 H 0.55017 0.4946 0.18443 0.0
C750 C 0.49803 0.45973 0.19655 0.0
C751 C 0.50058 0.45253 0.18349 0.0
C752 C 0.48965 0.44296 0.17246 0.0
C753 C 0.47595 0.44046 0.17424 0.0
C754 C 0.47343 0.44756 0.18753 0.0
C755 C 0.48436 0.45718 0.19842 0.0
C756 C 0.50976 0.47054 0.20753 0.0
C757 C 0.52117 0.48171 0.19892 0.0
C758 C 0.50906 0.47067 0.22622 0.0
C759 C 0.4971 0.45942 0.23607 0.0
C760 C 0.49363 0.4456 0.23457 0.0
C761 C 0.48186 0.43501 0.24326 0.0
C762 C 0.47333 0.4381 0.25337 0.0
C763 C 0.47699 0.45196 0.25508 0.0
C764 C 0.48882 0.46253 0.24661 0.0
C765 C 0.54105 0.50552 0.23786 0.0
C766 C 0.53634 0.51199 0.24925 0.0
C767 C 0.54593 0.52376 0.25885 0.0
C768 C 0.56048 0.52928 0.25737 0.0
C769 C 0.56518 0.52262 0.24618 0.0
C770 C 0.55555 0.51084 0.23654 0.0
C771 C 0.53073 0.49343 0.2271 0.0
C772 C 0.5196 0.48205 0.23575 0.0
C773 C 0.53148 0.4933 0.20842 0.0
C774 C 0.54202 0.50558 0.19833 0.0
C775 C 0.54288 0.51836 0.20017 0.0
C776 C 0.55229 0.52975 0.18998 0.0
C777 C 0.56094 0.52856 0.17762 0.0
C778 C 0.56015 0.51578 0.17593 0.0
C779 C 0.55074 0.50439 0.18615 0.0
H780 H 0.54242 0.03563 0.18901 0.0
H781 H 0.55916 0.03393 0.17023 0.0
H782 H 0.543 0.99203 0.18844 0.0
H783 H 0.52622 0.99379 0.20721 0.0
H784 H 0.51436 0.02069 0.18723 0.0
H785 H 0.54981 0.02816 0.2304 0.0
H786 H 0.56522 0.02238 0.24655 0.0
H787 H 0.52884 0.9852 0.2664 0.0
H788 H 0.51347 0.99093 0.25005 0.0
H789 H 0.48083 0.99654 0.24884 0.0
H790 H 0.46205 0.99699 0.26467 0.0
H791 H 0.47866 0.03931 0.24798 0.0
H792 H 0.49754 0.03883 0.23222 0.0
H793 H 0.50937 0.01188 0.25189 0.0
H794 H 0.47399 0.00329 0.20962 0.0
H795 H 0.4576 0.0064 0.19141 0.0
H796 H 0.49242 0.04312 0.16827 0.0
H797 H 0.50884 0.04029 0.18702 0.0
C798 C 0.53312 0.01488 0.19959 0.0
C799 C 0.54251 0.02609 0.189 0.0
C800 C 0.55204 0.02509 0.17824 0.0
C801 C 0.55236 0.01283 0.17781 0.0
C802 C 0.54311 0.00167 0.18865 0.0
C803 C 0.53351 0.00266 0.19936 0.0
C804 C 0.52256 0.01584 0.21024 0.0
C805 C 0.51345 0.01904 0.20143 0.0
C806 C 0.52105 0.01314 0.22866 0.0
C807 C 0.53047 0.00989 0.23881 0.0
C808 C 0.54514 0.0187 0.2381 0.0
C809 C 0.55394 0.01539 0.24733 0.0
C810 C 0.54824 0.0033 0.25769 0.0
C811 C 0.53355 0.99464 0.25866 0.0
C812 C 0.52476 0.9979 0.2493 0.0
C813 C 0.4905 0.01761 0.23926 0.0
C814 C 0.4805 0.00595 0.24872 0.0
C815 C 0.46973 0.00619 0.25763 0.0
C816 C 0.46885 0.01816 0.25742 0.0
C817 C 0.47913 0.02997 0.2484 0.0
C818 C 0.48985 0.02969 0.23934 0.0
C819 C 0.50134 0.01694 0.22889 0.0
C820 C 0.51043 0.01372 0.23772 0.0
C821 C 0.50273 0.01946 0.21043 0.0
C822 C 0.49268 0.02169 0.19996 0.0
C823 C 0.47812 0.01223 0.20101 0.0
C824 C 0.46875 0.01398 0.19054 0.0
C825 C 0.47375 0.02503 0.1785 0.0
C826 C 0.4883 0.03449 0.17743 0.0
C827 C 0.49767 0.03287 0.18811 0.0
H828 H 0.48746 0.01137 0.84468 0.0
H829 H 0.47092 0.01433 0.86226 0.0
H830 H 0.43619 0.98026 0.83421 0.0
H831 H 0.45277 0.97722 0.81678 0.0
H832 H 0.49153 0.99068 0.84303 0.0
H833 H 0.47974 0.01488 0.80133 0.0
H834 H 0.46372 0.01947 0.78461 0.0
H835 H 0.44583 0.97961 0.75885 0.0
H836 H 0.46207 0.97519 0.7755 0.0
H837 H 0.4982 0.96845 0.77779 0.0
H838 H 0.51674 0.96783 0.76145 0.0
H839 H 0.54771 0.00683 0.78549 0.0
H840 H 0.52923 0.0071 0.80203 0.0
H841 H 0.49117 0.98942 0.77736 0.0
H842 H 0.5074 0.96799 0.81952 0.0
H843 H 0.52508 0.96649 0.83733 0.0
H844 H 0.53656 0.00518 0.8629 0.0
H845 H 0.51923 0.0068 0.84476 0.0
C846 C 0.47138 0.99411 0.82936 0.0
C847 C 0.47628 0.00453 0.84231 0.0
C848 C 0.46683 0.00622 0.85234 0.0
C849 C 0.45227 0.99752 0.84961 0.0
C850 C 0.44736 0.98723 0.83645 0.0
C851 C 0.45682 0.98548 0.8265 0.0
C852 C 0.48152 0.99209 0.81923 0.0
C853 C 0.49152 0.99051 0.82866 0.0
C854 C 0.48138 0.99169 0.80049 0.0
C855 C 0.47197 0.99461 0.78983 0.0
C856 C 0.47234 0.00712 0.79211 0.0
C857 C 0.46314 0.0097 0.78257 0.0
C858 C 0.4534 0.99986 0.77048 0.0
C859 C 0.45328 0.98747 0.76793 0.0
C860 C 0.46252 0.9849 0.77747 0.0
C861 C 0.51238 0.98773 0.79125 0.0
C862 C 0.50901 0.97681 0.77953 0.0
C863 C 0.51962 0.97651 0.77017 0.0
C864 C 0.53376 0.98723 0.77223 0.0
C865 C 0.53701 0.99822 0.78387 0.0
C866 C 0.52644 0.99845 0.79328 0.0
C867 C 0.50125 0.98816 0.8012 0.0
C868 C 0.49105 0.98942 0.79172 0.0
C869 C 0.50146 0.98867 0.81992 0.0
C870 C 0.51206 0.98757 0.8307 0.0
C871 C 0.51382 0.9762 0.82886 0.0
C872 C 0.52384 0.9753 0.83915 0.0
C873 C 0.53227 0.98575 0.85148 0.0
C874 C 0.53041 0.99706 0.85333 0.0
C875 C 0.5204 0.99794 0.84308 0.0
H876 H 0.02619 0.5309 0.83638 0.0
H877 H 0.0268 0.549 0.85468 0.0
H878 H 0.98424 0.53538 0.83834 0.0
H879 H 0.98361 0.51711 0.82034 0.0
H880 H 0.00884 0.50293 0.83951 0.0
H881 H 0.01995 0.53714 0.7941 0.0
H882 H 0.01674 0.55404 0.77772 0.0
H883 H 0.97473 0.52161 0.76279 0.0
H884 H 0.97796 0.50476 0.77936 0.0
H885 H 0.98049 0.47001 0.77701 0.0
H886 H 0.97878 0.45088 0.75996 0.0
H887 H 0.01976 0.46134 0.77959 0.0
H888 H 0.02165 0.48083 0.79596 0.0
H889 H 0.99751 0.4969 0.77527 0.0
H890 H 0.98674 0.46229 0.81892 0.0
H891 H 0.98857 0.44556 0.83742 0.0
H892 H 0.02856 0.47841 0.85791 0.0
H893 H 0.027 0.49496 0.83861 0.0
C894 C 0.0049 0.52271 0.82691 0.0
C895 C 0.01702 0.53186 0.83669 0.0
C896 C 0.01738 0.54226 0.84703 0.0
C897 C 0.00557 0.54365 0.84792 0.0
C898 C 0.99347 0.53452 0.83802 0.0
C899 C 0.99314 0.52415 0.82761 0.0
C900 C 0.00437 0.51133 0.81652 0.0
C901 C 0.00663 0.50172 0.82539 0.0
C902 C 0.00102 0.50955 0.79825 0.0
C903 C 0.99916 0.51972 0.78803 0.0
C904 C 0.01004 0.53369 0.78733 0.0
C905 C 0.00822 0.54331 0.77788 0.0
C906 C 0.99547 0.53914 0.76899 0.0
C907 C 0.98461 0.52514 0.76965 0.0
C908 C 0.98648 0.5155 0.779 0.0
C909 C 0.00113 0.4768 0.78792 0.0
C910 C 0.98914 0.46824 0.77755 0.0
C911 C 0.98813 0.45721 0.76794 0.0
C912 C 0.9991 0.4545 0.76846 0.0
C913 C 0.01116 0.46319 0.77873 0.0
C914 C 0.0122 0.47426 0.78827 0.0
C915 C 0.00207 0.48843 0.79824 0.0
C916 C 0.99984 0.4981 0.78936 0.0
C917 C 0.0054 0.49022 0.81657 0.0
C918 C 0.00681 0.47989 0.8272 0.0
C919 C 0.99605 0.46585 0.82709 0.0
C920 C 0.99703 0.45631 0.83788 0.0
C921 C 0.00869 0.46063 0.84926 0.0
C922 C 0.01953 0.47467 0.84916 0.0
C923 C 0.01859 0.48418 0.83825 0.0
H924 H 0.45046 0.51031 0.84439 0.0
H925 H 0.43393 0.49058 0.86256 0.0
H926 H 0.44899 0.46578 0.8397 0.0
H927 H 0.4657 0.48562 0.82191 0.0
H928 H 0.47939 0.52341 0.84535 0.0
H929 H 0.44228 0.49882 0.80147 0.0
H930 H 0.42555 0.47817 0.78454 0.0
H931 H 0.46006 0.47561 0.7636 0.0
H932 H 0.47665 0.49624 0.78036 0.0
H933 H 0.50996 0.53046 0.78217 0.0
H934 H 0.53067 0.54823 0.76671 0.0
H935 H 0.52413 0.57979 0.78821 0.0
H936 H 0.50337 0.56185 0.80384 0.0
H937 H 0.48315 0.52214 0.78011 0.0
H938 H 0.51855 0.54018 0.82517 0.0
H939 H 0.53727 0.55705 0.8447 0.0
H940 H 0.50918 0.56926 0.86486 0.0
H941 H 0.49046 0.55238 0.8451 0.0
C942 C 0.45921 0.4994 0.83168 0.0
C943 C 0.45011 0.50058 0.84322 0.0
C944 C 0.44061 0.48928 0.85348 0.0
C945 C 0.44014 0.47661 0.85253 0.0
C946 C 0.44917 0.47542 0.84082 0.0
C947 C 0.45863 0.48671 0.83053 0.0
C948 C 0.46986 0.5116 0.82156 0.0
C949 C 0.48001 0.5233 0.83103 0.0
C950 C 0.47095 0.51121 0.80296 0.0
C951 C 0.46071 0.49904 0.79224 0.0
C952 C 0.44621 0.4938 0.7932 0.0
C953 C 0.43667 0.48199 0.78354 0.0
C954 C 0.44146 0.47525 0.77268 0.0
C955 C 0.45601 0.48068 0.77157 0.0
C956 C 0.46552 0.49245 0.7812 0.0
C957 C 0.50513 0.54481 0.79421 0.0
C958 C 0.51289 0.54119 0.78344 0.0
C959 C 0.52471 0.55137 0.77454 0.0
C960 C 0.52902 0.56544 0.77614 0.0
C961 C 0.52116 0.56906 0.78683 0.0
C962 C 0.5093 0.55883 0.79576 0.0
C963 C 0.4928 0.53384 0.80392 0.0
C964 C 0.48232 0.52242 0.79438 0.0
C965 C 0.49164 0.53427 0.8225 0.0
C966 C 0.50316 0.54512 0.83359 0.0
C967 C 0.51648 0.54662 0.83361 0.0
C968 C 0.52713 0.55618 0.84487 0.0
C969 C 0.52467 0.56444 0.85633 0.0
C970 C 0.51141 0.56312 0.85605 0.0
C971 C 0.5007 0.55345 0.84486 0.0
H972 H 0.61963 0.82944 0.53033 0.0
H973 H 0.6182 0.84531 0.50933 0.0
H974 H 0.66142 0.87644 0.52126 0.0
H975 H 0.66281 0.86055 0.54207 0.0
H976 H 0.63844 0.8201 0.52741 0.0
H977 H 0.62773 0.84504 0.57049 0.0
H978 H 0.63142 0.86614 0.58472 0.0
H979 H 0.67382 0.87758 0.59882 0.0
H980 H 0.67014 0.85661 0.58435 0.0
H981 H 0.67063 0.82213 0.5893 0.0
H982 H 0.67519 0.80646 0.60644 0.0
H983 H 0.63451 0.77191 0.59074 0.0
H984 H 0.63004 0.78763 0.57358 0.0
H985 H 0.65185 0.82947 0.59092 0.0
H986 H 0.66535 0.8082 0.54851 0.0
H987 H 0.66619 0.79062 0.53083 0.0
H988 H 0.62368 0.77527 0.51252 0.0
H989 H 0.62274 0.79259 0.53075 0.0
C990 C 0.64129 0.84386 0.53783 0.0
C991 C 0.62873 0.83975 0.52854 0.0
C992 C 0.62791 0.84883 0.51664 0.0
C993 C 0.63972 0.86208 0.51362 0.0
C994 C 0.65219 0.86624 0.52321 0.0
C995 C 0.65297 0.85722 0.5352 0.0
C996 C 0.64258 0.83388 0.54929 0.0
C997 C 0.64101 0.82193 0.54142 0.0
C998 C 0.64665 0.8367 0.56732 0.0
C999 C 0.64868 0.84929 0.57627 0.0
C1000 C 0.63783 0.85212 0.5766 0.0
C1001 C 0.63992 0.86412 0.58483 0.0
C1002 C 0.65293 0.87354 0.59284 0.0
C1003 C 0.66374 0.87062 0.59258 0.0
C1004 C 0.66161 0.85859 0.58445 0.0
C1005 C 0.65005 0.80605 0.58001 0.0
C1006 C 0.66265 0.81119 0.58966 0.0
C1007 C 0.66523 0.80222 0.59949 0.0
C1008 C 0.65524 0.78792 0.59991 0.0
C1009 C 0.64253 0.78283 0.59046 0.0
C1010 C 0.63994 0.79181 0.58067 0.0
C1011 C 0.64757 0.81555 0.56908 0.0
C1012 C 0.64898 0.82744 0.57701 0.0
C1013 C 0.64378 0.8129 0.55094 0.0
C1014 C 0.64392 0.80163 0.54111 0.0
C1015 C 0.6561 0.80087 0.54098 0.0
C1016 C 0.65663 0.7909 0.53072 0.0
C1017 C 0.64502 0.78155 0.52022 0.0
C1018 C 0.63274 0.78218 0.52062 0.0
C1019 C 0.63222 0.79215 0.53092 0.0
H1020 H 0.17823 0.78512 0.5254 0.0
H1021 H 0.15992 0.76785 0.50569 0.0
H1022 H 0.13059 0.77847 0.52595 0.0
H1023 H 0.14882 0.79548 0.54569 0.0
H1024 H 0.18822 0.81333 0.52501 0.0
H1025 H 0.16626 0.77586 0.56856 0.0
H1026 H 0.14521 0.75746 0.58335 0.0
H1027 H 0.13565 0.78783 0.60131 0.0
H1028 H 0.15661 0.80612 0.58652 0.0
H1029 H 0.19131 0.84214 0.58815 0.0
H1030 H 0.20819 0.86338 0.60384 0.0
H1031 H 0.24226 0.85912 0.58527 0.0
H1032 H 0.22526 0.83776 0.56959 0.0
H1033 H 0.18455 0.81554 0.59014 0.0
H1034 H 0.20414 0.85245 0.54918 0.0
H1035 H 0.22096 0.87174 0.53071 0.0
H1036 H 0.23154 0.8446 0.5045 0.0
H1037 H 0.21526 0.82543 0.52361 0.0
C1038 C 0.16485 0.79147 0.53715 0.0
C1039 C 0.16779 0.78357 0.52572 0.0
C1040 C 0.15733 0.77376 0.51441 0.0
C1041 C 0.14376 0.77174 0.51423 0.0
C1042 C 0.14081 0.77952 0.52596 0.0
C1043 C 0.15125 0.7893 0.53726 0.0
C1044 C 0.1762 0.8027 0.54804 0.0
C1045 C 0.18769 0.81366 0.53931 0.0
C1046 C 0.17507 0.80339 0.56658 0.0
C1047 C 0.16293 0.79233 0.57638 0.0
C1048 C 0.15965 0.77854 0.57577 0.0
C1049 C 0.14769 0.76807 0.58427 0.0
C1050 C 0.13878 0.77124 0.59336 0.0
C1051 C 0.14226 0.78509 0.59423 0.0
C1052 C 0.15427 0.79555 0.58591 0.0
C1053 C 0.20704 0.83843 0.57762 0.0
C1054 C 0.20239 0.84568 0.58762 0.0
C1055 C 0.21205 0.85786 0.59645 0.0
C1056 C 0.22653 0.86294 0.59565 0.0
C1057 C 0.23115 0.85541 0.58615 0.0
C1058 C 0.22148 0.84326 0.57715 0.0
C1059 C 0.19676 0.82616 0.56713 0.0
C1060 C 0.18541 0.81505 0.5759 0.0
C1061 C 0.19783 0.82554 0.54852 0.0
C1062 C 0.20861 0.8375 0.53808 0.0
C1063 C 0.21038 0.85071 0.53988 0.0
C1064 C 0.21991 0.86171 0.52924 0.0
C1065 C 0.2275 0.8596 0.51625 0.0
C1066 C 0.22575 0.84644 0.51443 0.0
C1067 C 0.21646 0.83551 0.52532 0.0
H1068 H 0.167 0.35501 0.51435 0.0
H1069 H 0.15149 0.35811 0.49443 0.0
H1070 H 0.15472 0.39027 0.52835 0.0
H1071 H 0.17097 0.38771 0.54797 0.0
H1072 H 0.19229 0.36996 0.52194 0.0
H1073 H 0.15107 0.34905 0.55733 0.0
H1074 H 0.13097 0.34664 0.57332 0.0
H1075 H 0.15907 0.38199 0.60578 0.0
H1076 H 0.17922 0.38444 0.58956 0.0
H1077 H 0.21601 0.37868 0.59268 0.0
H1078 H 0.23048 0.37231 0.61011 0.0
H1079 H 0.21541 0.33565 0.57784 0.0
H1080 H 0.20068 0.34183 0.56095 0.0
H1081 H 0.18707 0.36462 0.58708 0.0
H1082 H 0.22884 0.38114 0.5501 0.0
H1083 H 0.24615 0.37895 0.53293 0.0
H1084 H 0.21243 0.34564 0.50265 0.0
H1085 H 0.19526 0.34775 0.51993 0.0
C1086 C 0.17019 0.37109 0.53276 0.0
C1087 C 0.16454 0.36285 0.51749 0.0
C1088 C 0.15566 0.3646 0.50611 0.0
C1089 C 0.15202 0.37447 0.50985 0.0
C1090 C 0.15739 0.38257 0.52525 0.0
C1091 C 0.16657 0.38103 0.53649 0.0
C1092 C 0.18014 0.36939 0.54429 0.0
C1093 C 0.19102 0.36869 0.53617 0.0
C1094 C 0.17877 0.368 0.56293 0.0
C1095 C 0.16662 0.36699 0.57218 0.0
C1096 C 0.1529 0.35638 0.56776 0.0
C1097 C 0.14144 0.35495 0.57698 0.0
C1098 C 0.14347 0.36411 0.59082 0.0
C1099 C 0.1572 0.37487 0.59507 0.0
C1100 C 0.1687 0.37622 0.5859 0.0
C1101 C 0.20742 0.36083 0.57537 0.0
C1102 C 0.21579 0.36924 0.58946 0.0
C1103 C 0.22412 0.36563 0.59931 0.0
C1104 C 0.22415 0.35349 0.59533 0.0
C1105 C 0.21555 0.34499 0.58139 0.0
C1106 C 0.20723 0.34859 0.57158 0.0
C1107 C 0.19884 0.36478 0.56458 0.0
C1108 C 0.18836 0.36607 0.57287 0.0
C1109 C 0.20019 0.36616 0.54598 0.0
C1110 C 0.21078 0.36461 0.53627 0.0
C1111 C 0.22521 0.37328 0.53989 0.0
C1112 C 0.23507 0.37206 0.53003 0.0
C1113 C 0.23064 0.3621 0.51648 0.0
C1114 C 0.21617 0.35327 0.51316 0.0
C1115 C 0.20635 0.35456 0.5229 0.0
H1116 H 0.96222 0.36641 0.06661 0.0
H1117 H 0.966 0.38115 0.09214 0.0
H1118 H 0.00949 0.39285 0.09484 0.0
H1119 H 0.00586 0.37816 0.06911 0.0
H1120 H 0.97663 0.38221 0.12738 0.0
H1121 H 0.01051 0.42989 0.08805 0.0
H1122 H 0.9995 0.41315 0.07783 0.0
H1123 H 0.01559 0.41718 0.08874 0.0
C1124 C 0.97257 0.37199 0.07271 0.0
C1125 C 0.98378 0.37122 0.06568 0.0
C1126 C 0.97469 0.38038 0.08735 0.0
C1127 C 0.98805 0.38823 0.0952 0.0
C1128 C 0.99913 0.38701 0.08879 0.0
H1129 H 0.00282 0.44009 0.18943 0.0
H1130 H 0.00282 0.42319 0.16914 0.0
C1131 C 0.99702 0.37856 0.07414 0.0
C1132 C 0.99043 0.39828 0.10935 0.0
H1133 H 0.00579 0.43295 0.11735 0.0
C1134 C 0.98314 0.3933 0.12532 0.0
C1135 C 0.99881 0.41274 0.10648 0.0
C1136 C 0.0065 0.41864 0.08933 0.0
C1137 C 0.98381 0.40244 0.1384 0.0
C1138 C 0.99204 0.41689 0.1354 0.0
C1139 C 0.99956 0.42185 0.1196 0.0
C1140 C 0.99213 0.42702 0.14786 0.0
C1141 C 0.97527 0.3966 0.15498 0.0
C1142 C 0.9863 0.43487 0.14249 0.0
C1143 C 0.98633 0.44452 0.15397 0.0
C1144 C 0.99227 0.44659 0.17104 0.0
C1145 C 0.99821 0.43877 0.17634 0.0
C1146 C 0.99813 0.42905 0.16484 0.0
H1147 H 0.96773 0.38524 0.154 0.0
H1148 H 0.98244 0.39858 0.16639 0.0
H1149 H 0.96932 0.40176 0.15778 0.0
H1150 H 0.98169 0.4335 0.12939 0.0
H1151 H 0.98188 0.45053 0.14937 0.0
H1152 H 0.63386 0.59446 0.04676 0.0
H1153 H 0.62097 0.58116 0.07269 0.0
H1154 H 0.62019 0.61642 0.09262 0.0
H1155 H 0.63317 0.62994 0.06659 0.0
H1156 H 0.62717 0.60064 0.11858 0.0
H1157 H 0.57833 0.56817 0.0792 0.0
H1158 H 0.59392 0.56967 0.07018 0.0
H1159 H 0.59249 0.58475 0.07156 0.0
C1160 C 0.63106 0.59947 0.05667 0.0
C1161 C 0.63445 0.61325 0.0545 0.0
C1162 C 0.62366 0.59182 0.07147 0.0
C1163 C 0.6195 0.59777 0.0844 0.0
C1164 C 0.62329 0.61166 0.0827 0.0
H1165 H 0.55494 0.54637 0.16079 0.0
H1166 H 0.56963 0.5648 0.13994 0.0
C1167 C 0.63068 0.61934 0.06782 0.0
C1168 C 0.61075 0.58921 0.0993 0.0
H1169 H 0.57887 0.56053 0.10837 0.0
C1170 C 0.61656 0.59194 0.11644 0.0
C1171 C 0.59687 0.578 0.09644 0.0
C1172 C 0.58994 0.57499 0.07839 0.0
C1173 C 0.60898 0.58338 0.13074 0.0
C1174 C 0.59533 0.57177 0.1277 0.0
C1175 C 0.58937 0.56938 0.11066 0.0
C1176 C 0.58715 0.56165 0.14178 0.0
C1177 C 0.61562 0.58682 0.14896 0.0
C1178 C 0.59216 0.5538 0.1498 0.0
C1179 C 0.58382 0.54329 0.16179 0.0
C1180 C 0.57026 0.54038 0.16591 0.0
C1181 C 0.5654 0.54846 0.15811 0.0
C1182 C 0.57375 0.55895 0.14612 0.0
H1183 H 0.62414 0.59789 0.15001 0.0
H1184 H 0.60768 0.58455 0.15927 0.0
H1185 H 0.62029 0.5804 0.15171 0.0
H1186 H 0.60237 0.55553 0.14638 0.0
H1187 H 0.58791 0.53733 0.16768 0.0
H1188 H 0.38494 0.98642 0.05998 0.0
H1189 H 0.40151 0.99417 0.08465 0.0
H1190 H 0.40019 0.03151 0.08886 0.0
H1191 H 0.38367 0.02391 0.06363 0.0
H1192 H 0.42699 0.0367 0.09186 0.0
H1193 H 0.39227 0.99358 0.13623 0.0
H1194 H 0.39406 0.98712 0.11544 0.0
H1195 H 0.38587 0.99727 0.11618 0.0
C1196 C 0.38809 0.99627 0.06613 0.0
C1197 C 0.38285 0.00448 0.05992 0.0
C1198 C 0.39752 0.00065 0.08035 0.0
C1199 C 0.4018 0.01323 0.08892 0.0
C1200 C 0.39688 0.02167 0.08255 0.0
H1201 H 0.44921 0.02358 0.18688 0.0
H1202 H 0.43193 0.02348 0.16642 0.0
C1203 C 0.38747 0.01732 0.06815 0.0
C1204 C 0.41168 0.01753 0.10421 0.0
H1205 H 0.41713 0.00514 0.14278 0.0
C1206 C 0.42477 0.02994 0.10317 0.0
C1207 C 0.40866 0.0089 0.1192 0.0
C1208 C 0.39438 0.99606 0.12193 0.0
C1209 C 0.43525 0.03347 0.11615 0.0
C1210 C 0.43268 0.02415 0.13025 0.0
C1211 C 0.41925 0.01221 0.13185 0.0
C1212 C 0.4439 0.02599 0.14281 0.0
C1213 C 0.44897 0.0471 0.1145 0.0
C1214 C 0.45643 0.02753 0.13642 0.0
C1215 C 0.46636 0.02777 0.1481 0.0
C1216 C 0.46383 0.02616 0.16638 0.0
C1217 C 0.45139 0.02479 0.17283 0.0
C1218 C 0.44154 0.02476 0.16116 0.0
H1219 H 0.44741 0.05494 0.10768 0.0
H1220 H 0.45392 0.05126 0.12764 0.0
H1221 H 0.45631 0.0456 0.10639 0.0
H1222 H 0.45831 0.02801 0.12234 0.0
H1223 H 0.47575 0.0286 0.14275 0.0
H1224 H 0.37261 0.01162 0.96268 0.0
H1225 H 0.38507 0.01468 0.9349 0.0
H1226 H 0.38163 0.97521 0.9428 0.0
H1227 H 0.36893 0.9719 0.97012 0.0
H1228 H 0.40981 0.017 0.93117 0.0
H1229 H 0.371 0.97215 0.89154 0.0
H1230 H 0.3662 0.97766 0.91123 0.0
H1231 H 0.37321 0.96648 0.91284 0.0
C1232 C 0.37428 0.00348 0.95831 0.0
C1233 C 0.36976 0.99151 0.96863 0.0
C1234 C 0.38141 0.00525 0.94244 0.0
C1235 C 0.38408 0.99507 0.93659 0.0
C1236 C 0.37934 0.98302 0.94673 0.0
H1237 H 0.45348 0.00053 0.88544 0.0
H1238 H 0.43667 0.00173 0.90456 0.0
C1239 C 0.37217 0.98121 0.96248 0.0
C1240 C 0.393 0.99749 0.92092 0.0
H1241 H 0.39556 0.98129 0.88443 0.0
C1242 C 0.40658 0.00932 0.92074 0.0
C1243 C 0.38874 0.98767 0.90707 0.0
C1244 C 0.37392 0.97537 0.90557 0.0
C1245 C 0.41633 0.01109 0.90782 0.0
C1246 C 0.4125 0.00056 0.89504 0.0
C1247 C 0.39861 0.98924 0.89444 0.0
C1248 C 0.42299 0.00053 0.88315 0.0
C1249 C 0.4307 0.02413 0.90821 0.0
C1250 C 0.4207 0.99903 0.86475 0.0
C1251 C 0.43025 0.99817 0.85378 0.0
C1252 C 0.44225 0.9988 0.86103 0.0
C1253 C 0.4445 0.00031 0.87943 0.0
C1254 C 0.43491 0.00106 0.89037 0.0
H1255 H 0.43028 0.03292 0.914 0.0
H1256 H 0.43785 0.02239 0.91665 0.0
H1257 H 0.43522 0.02709 0.89474 0.0
H1258 H 0.4115 0.99847 0.85891 0.0
H1259 H 0.42829 0.99706 0.83963 0.0
H1260 H 0.01697 0.38413 0.97517 0.0
H1261 H 0.02418 0.39945 0.94918 0.0
H1262 H 0.98185 0.39085 0.94308 0.0
H1263 H 0.97457 0.37561 0.96865 0.0
H1264 H 0.99434 0.38875 0.9112 0.0
H1265 H 0.02841 0.43836 0.94753 0.0
H1266 H 0.03164 0.42447 0.95082 0.0
H1267 H 0.01569 0.4227 0.95878 0.0
C1268 C 0.00921 0.38552 0.96827 0.0
C1269 C 0.9952 0.37867 0.97405 0.0
C1270 C 0.01336 0.3943 0.95348 0.0
C1271 C 0.00355 0.39634 0.94431 0.0
C1272 C 0.98958 0.38941 0.94997 0.0
H1273 H 0.98696 0.43993 0.86799 0.0
H1274 H 0.98773 0.42404 0.88921 0.0
C1275 C 0.98545 0.38071 0.96466 0.0
C1276 C 0.00754 0.40567 0.9288 0.0
H1277 H 0.02378 0.43988 0.91748 0.0
C1278 C 0.00098 0.39993 0.91247 0.0
C1279 C 0.01625 0.42023 0.9305 0.0
C1280 C 0.02339 0.4269 0.94783 0.0
C1281 C 0.00236 0.40837 0.89803 0.0
C1282 C 0.01034 0.42294 0.90006 0.0
C1283 C 0.01762 0.42869 0.91602 0.0
C1284 C 0.01002 0.43227 0.88649 0.0
C1285 C 0.99495 0.40164 0.88085 0.0
C1286 C 0.02235 0.44231 0.87808 0.0
C1287 C 0.02193 0.45138 0.86575 0.0
C1288 C 0.00918 0.45067 0.86179 0.0
C1289 C 0.99689 0.44059 0.87035 0.0
C1290 C 0.99731 0.43151 0.88255 0.0
H1291 H 0.99295 0.39097 0.87967 0.0
H1292 H 0.98464 0.40095 0.88038 0.0
H1293 H 0.00118 0.40782 0.8693 0.0
H1294 H 0.03228 0.4431 0.88103 0.0
H1295 H 0.03158 0.45893 0.85931 0.0
H1296 H 0.63045 0.61693 0.951 0.0
H1297 H 0.61183 0.6104 0.92903 0.0
H1298 H 0.59677 0.63273 0.95818 0.0
H1299 H 0.61556 0.63944 0.98035 0.0
H1300 H 0.5762 0.604 0.95027 0.0
H1301 H 0.60532 0.6329 0.89052 0.0
H1302 H 0.61293 0.62425 0.90167 0.0
H1303 H 0.61245 0.63807 0.91268 0.0
C1304 C 0.62333 0.62066 0.95264 0.0
C1305 C 0.62445 0.62867 0.96746 0.0
C1306 C 0.61275 0.61699 0.93998 0.0
C1307 C 0.60303 0.62121 0.94189 0.0
C1308 C 0.60428 0.62949 0.95642 0.0
H1309 H 0.53336 0.59148 0.86392 0.0
H1310 H 0.55175 0.60695 0.88518 0.0
C1311 C 0.61501 0.63333 0.96903 0.0
C1312 C 0.59084 0.61568 0.92959 0.0
H1313 H 0.58236 0.61265 0.88558 0.0
C1314 C 0.57747 0.60612 0.93617 0.0
C1315 C 0.59254 0.6185 0.91123 0.0
C1316 C 0.60657 0.62909 0.90359 0.0
C1317 C 0.56592 0.59864 0.92471 0.0
C1318 C 0.56784 0.60079 0.90627 0.0
C1319 C 0.58098 0.61098 0.89975 0.0
C1320 C 0.55668 0.59163 0.89354 0.0
C1321 C 0.55186 0.58807 0.93229 0.0
C1322 C 0.55353 0.57801 0.89118 0.0
C1323 C 0.54318 0.56924 0.87904 0.0
C1324 C 0.53573 0.57392 0.86908 0.0
C1325 C 0.53888 0.58759 0.87151 0.0
C1326 C 0.54938 0.59643 0.88356 0.0
H1327 H 0.55135 0.58964 0.94671 0.0
H1328 H 0.54326 0.58854 0.92541 0.0
H1329 H 0.55003 0.57753 0.93026 0.0
H1330 H 0.55913 0.57417 0.89872 0.0
H1331 H 0.54088 0.55872 0.87761 0.0
H1332 H 0.03826 0.63237 0.96915 0.0
H1333 H 0.0347 0.61742 0.94397 0.0
H1334 H 0.9933 0.61069 0.93533 0.0
H1335 H 0.99673 0.62571 0.96064 0.0
H1336 H 0.01161 0.5887 0.94261 0.0
H1337 H 0.0123 0.62004 0.8851 0.0
H1338 H 0.02021 0.62776 0.90624 0.0
H1339 H 0.00146 0.6184 0.90358 0.0
C1340 C 0.02845 0.62789 0.9618 0.0
C1341 C 0.01775 0.63021 0.96699 0.0
C1342 C 0.02644 0.61934 0.9474 0.0
C1343 C 0.01377 0.61301 0.93778 0.0
C1344 C 0.00322 0.61562 0.94249 0.0
H1345 H 0.9849 0.54044 0.87021 0.0
H1346 H 0.98587 0.55736 0.89121 0.0
C1347 C 0.00519 0.62417 0.95698 0.0
C1348 C 0.01133 0.60287 0.92373 0.0
H1349 H 0.00784 0.59759 0.879 0.0
C1350 C 0.01071 0.59059 0.92871 0.0
C1351 C 0.01024 0.60545 0.90564 0.0
C1352 C 0.01116 0.61865 0.89968 0.0
C1353 C 0.00912 0.58083 0.91604 0.0
C1354 C 0.00802 0.58339 0.89793 0.0
C1355 C 0.00859 0.59565 0.89292 0.0
C1356 C 0.00685 0.57363 0.88406 0.0
C1357 C 0.00897 0.56801 0.92206 0.0
C1358 C 0.01819 0.57732 0.8728 0.0
C1359 C 0.01767 0.56769 0.86078 0.0
C1360 C 0.00574 0.55422 0.85972 0.0
C1361 C 0.99419 0.55074 0.8706 0.0
C1362 C 0.99476 0.56036 0.88268 0.0
H1363 H 0.01242 0.56879 0.93609 0.0
H1364 H 0.99813 0.55889 0.92079 0.0
H1365 H 0.01592 0.56613 0.91363 0.0
H1366 H 0.0276 0.58753 0.87367 0.0
H1367 H 0.02666 0.57073 0.85241 0.0
H1368 H 0.36228 0.40855 0.97994 0.0
H1369 H 0.37505 0.42194 0.95404 0.0
H1370 H 0.38229 0.38954 0.93849 0.0
H1371 H 0.36937 0.37591 0.96448 0.0
H1372 H 0.40367 0.43065 0.94802 0.0
H1373 H 0.36845 0.39937 0.89219 0.0
H1374 H 0.36228 0.39758 0.91464 0.0
H1375 H 0.37257 0.39028 0.90844 0.0
C1376 C 0.36642 0.40414 0.97095 0.0
C1377 C 0.36485 0.39116 0.97435 0.0
C1378 C 0.37372 0.41183 0.95613 0.0
C1379 C 0.37955 0.4067 0.94433 0.0
C1380 C 0.3777 0.39359 0.94733 0.0
H1381 H 0.44645 0.45977 0.87126 0.0
H1382 H 0.4316 0.44166 0.89245 0.0
C1383 C 0.37036 0.38585 0.96222 0.0
C1384 C 0.38843 0.41566 0.92973 0.0
H1385 H 0.39013 0.41941 0.88476 0.0
C1386 C 0.40076 0.42816 0.93418 0.0
C1387 C 0.38452 0.41239 0.91173 0.0
C1388 C 0.37119 0.39923 0.90635 0.0
C1389 C 0.40925 0.43757 0.92111 0.0
C1390 C 0.40537 0.43432 0.90311 0.0
C1391 C 0.39309 0.42179 0.8986 0.0
C1392 C 0.41377 0.44416 0.88892 0.0
C1393 C 0.42213 0.4511 0.92665 0.0
C1394 C 0.40849 0.45128 0.87963 0.0
C1395 C 0.41693 0.46162 0.86749 0.0
C1396 C 0.43076 0.46493 0.86437 0.0
C1397 C 0.43581 0.45739 0.87325 0.0
C1398 C 0.42738 0.4471 0.88543 0.0
H1399 H 0.42226 0.45309 0.94107 0.0
H1400 H 0.43168 0.45082 0.92355 0.0
H1401 H 0.4227 0.45989 0.91926 0.0
H1402 H 0.39798 0.44911 0.88216 0.0
H1403 H 0.41269 0.46712 0.86068 0.0
H1404 H 0.62925 0.0212 0.95768 0.0
H1405 H 0.61195 0.01334 0.93372 0.0
H1406 H 0.59668 0.97081 0.94766 0.0
H1407 H 0.61409 0.9786 0.97189 0.0
H1408 H 0.60725 0.99434 0.90418 0.0
H1409 H 0.56166 0.97566 0.94944 0.0
H1410 H 0.57947 0.98756 0.95681 0.0
H1411 H 0.57364 0.9697 0.95307 0.0
C1412 C 0.62228 0.01015 0.95567 0.0
C1413 C 0.62299 0.00052 0.96681 0.0
C1414 C 0.61243 0.00569 0.94191 0.0
C1415 C 0.60299 0.99152 0.93903 0.0
C1416 C 0.60383 0.98181 0.9498 0.0
H1417 H 0.52962 0.96297 0.86839 0.0
H1418 H 0.54679 0.96206 0.88802 0.0
C1419 C 0.61379 0.98628 0.96357 0.0
C1420 C 0.59206 0.98719 0.92507 0.0
H1421 H 0.5574 0.9763 0.9191 0.0
C1422 C 0.5963 0.99017 0.90737 0.0
C1423 C 0.57778 0.9817 0.9293 0.0
C1424 C 0.57277 0.97849 0.94817 0.0
C1425 C 0.58673 0.98829 0.89384 0.0
C1426 C 0.57263 0.98363 0.89821 0.0
C1427 C 0.56823 0.97993 0.91578 0.0
C1428 C 0.56266 0.98379 0.88517 0.0
C1429 C 0.59187 0.99155 0.87503 0.0
C1430 C 0.56587 0.99629 0.87708 0.0
C1431 C 0.55614 0.99683 0.86583 0.0
C1432 C 0.54291 0.98489 0.86255 0.0
C1433 C 0.53978 0.97231 0.87048 0.0
C1434 C 0.54954 0.97179 0.88176 0.0
H1435 H 0.60099 0.99026 0.87306 0.0
H1436 H 0.58343 0.98481 0.86544 0.0
H1437 H 0.59538 0.00251 0.87209 0.0
H1438 H 0.57579 0.00576 0.87981 0.0
H1439 H 0.55894 0.00665 0.85981 0.0
H1440 H 0.62651 0.9924 0.06254 0.0
H1441 H 0.61276 0.98981 0.08894 0.0
H1442 H 0.62389 0.03237 0.08418 0.0
H1443 H 0.6377 0.03512 0.05795 0.0
H1444 H 0.62474 0.02348 0.11981 0.0
H1445 H 0.57467 0.98808 0.08378 0.0
H1446 H 0.58777 0.98334 0.08407 0.0
H1447 H 0.59109 0.99863 0.07244 0.0
C1448 C 0.62618 0.00126 0.06724 0.0
C1449 C 0.63309 0.01393 0.05802 0.0
C1450 C 0.61828 0.99974 0.08228 0.0
C1451 C 0.61718 0.01085 0.08833 0.0
C1452 C 0.62459 0.02367 0.07967 0.0
H1453 H 0.55758 0.02101 0.14335 0.0
H1454 H 0.57358 0.01932 0.12313 0.0
C1455 C 0.63245 0.0252 0.06464 0.0
C1456 C 0.60765 0.00904 0.10297 0.0
H1457 H 0.5729 0.99432 0.1128 0.0
C1458 C 0.61341 0.01696 0.11843 0.0
C1459 C 0.59288 0.00062 0.10099 0.0
C1460 C 0.58615 0.99223 0.08441 0.0
C1461 C 0.60474 0.01693 0.13181 0.0
C1462 C 0.58998 0.00873 0.12963 0.0
C1463 C 0.58424 0.00053 0.11441 0.0
C1464 C 0.58032 0.00954 0.14215 0.0
C1465 C 0.61138 0.02615 0.14778 0.0
C1466 C 0.57875 0.00449 0.1595 0.0
C1467 C 0.56962 0.00548 0.17114 0.0
C1468 C 0.56197 0.01157 0.16558 0.0
C1469 C 0.5635 0.01648 0.14812 0.0
C1470 C 0.57255 0.01543 0.13652 0.0
H1471 H 0.6229 0.03329 0.14627 0.0
H1472 H 0.60649 0.03239 0.15016 0.0
H1473 H 0.60957 0.01962 0.15965 0.0
H1474 H 0.58457 0.99978 0.16401 0.0
H1475 H 0.56869 0.00165 0.18453 0.0
H1476 H 0.98301 0.61494 0.05217 0.0
H1477 H 0.97504 0.59782 0.07622 0.0
H1478 H 0.01815 0.61351 0.09161 0.0
H1479 H 0.02615 0.63036 0.06772 0.0
H1480 H 0.00248 0.58496 0.08576 0.0
H1481 H 0.97507 0.60191 0.13083 0.0
H1482 H 0.96994 0.59969 0.10783 0.0
H1483 H 0.9873 0.61321 0.11426 0.0
C1484 C 0.99075 0.61485 0.06086 0.0
C1485 C 0.00521 0.62394 0.05794 0.0
C1486 C 0.98619 0.6051 0.07462 0.0
C1487 C 0.99601 0.60443 0.08572 0.0
C1488 C 0.01039 0.61383 0.08317 0.0
H1489 H 0.99596 0.56546 0.18285 0.0
H1490 H 0.9963 0.58068 0.15948 0.0
C1491 C 0.01494 0.62346 0.06947 0.0
C1492 C 0.99165 0.59339 0.09919 0.0
H1493 H 0.97558 0.58202 0.13919 0.0
C1494 C 0.99648 0.58423 0.09737 0.0
C1495 C 0.98391 0.59255 0.11434 0.0
C1496 C 0.9788 0.60239 0.11711 0.0
C1497 C 0.99416 0.57448 0.11051 0.0
C1498 C 0.98648 0.57365 0.12575 0.0
C1499 C 0.98136 0.58262 0.12743 0.0
C1500 C 0.98458 0.56417 0.14053 0.0
C1501 C 0.0005 0.5656 0.1083 0.0
C1502 C 0.97751 0.54979 0.13781 0.0
C1503 C 0.9775 0.54109 0.15102 0.0
C1504 C 0.98444 0.54658 0.16731 0.0
C1505 C 0.99078 0.56091 0.17034 0.0
C1506 C 0.99085 0.56961 0.15707 0.0
H1507 H 0.00868 0.5697 0.0979 0.0
H1508 H 0.0053 0.56488 0.12091 0.0
H1509 H 0.99213 0.55497 0.10436 0.0
H1510 H 0.97241 0.54536 0.12522 0.0
H1511 H 0.97258 0.53014 0.14813 0.0
H1512 H 0.38167 0.36346 0.05381 0.0
H1513 H 0.39977 0.36987 0.07689 0.0
H1514 H 0.39121 0.40031 0.09714 0.0
H1515 H 0.37319 0.39396 0.0745 0.0
H1516 H 0.42388 0.39605 0.08211 0.0
H1517 H 0.39092 0.37999 0.14188 0.0
H1518 H 0.38367 0.37381 0.12001 0.0
H1519 H 0.38725 0.39045 0.12757 0.0
C1520 C 0.38353 0.37138 0.06334 0.0
C1521 C 0.37596 0.37818 0.0623 0.0
C1522 C 0.39387 0.37504 0.07649 0.0
C1523 C 0.39666 0.3854 0.08891 0.0
C1524 C 0.38901 0.39206 0.08797 0.0
H1525 H 0.45547 0.44395 0.15956 0.0
H1526 H 0.43646 0.42841 0.1395 0.0
C1527 C 0.37876 0.38847 0.07489 0.0
C1528 C 0.40817 0.39013 0.10217 0.0
H1529 H 0.41537 0.39798 0.14608 0.0
C1530 C 0.42203 0.39617 0.09616 0.0
C1531 C 0.40573 0.39022 0.1205 0.0
C1532 C 0.39106 0.38313 0.12789 0.0
C1533 C 0.43354 0.40319 0.10786 0.0
C1534 C 0.43106 0.40409 0.12597 0.0
C1535 C 0.41721 0.39735 0.13214 0.0
C1536 C 0.4426 0.41317 0.13834 0.0
C1537 C 0.44827 0.41033 0.10068 0.0
C1538 C 0.45229 0.40968 0.1444 0.0
C1539 C 0.46314 0.41849 0.1561 0.0
C1540 C 0.46444 0.43094 0.1619 0.0
C1541 C 0.45466 0.43435 0.15569 0.0
C1542 C 0.44383 0.42552 0.14412 0.0
H1543 H 0.44838 0.40952 0.08604 0.0
H1544 H 0.45409 0.42146 0.10446 0.0
H1545 H 0.45395 0.40559 0.10658 0.0
H1546 H 0.45142 0.40011 0.14017 0.0
H1547 H 0.47038 0.41547 0.16076 0.0
H1548 H 0.62362 0.70267 0.3907 0.0
H1549 H 0.62493 0.71553 0.41724 0.0
H1550 H 0.66543 0.72143 0.43032 0.0
H1551 H 0.66429 0.70855 0.40365 0.0
H1552 H 0.64385 0.71369 0.46022 0.0
H1553 H 0.65503 0.75906 0.41875 0.0
H1554 H 0.64038 0.74257 0.41176 0.0
H1555 H 0.65786 0.74561 0.41104 0.0
C1556 C 0.63276 0.70654 0.39928 0.0
C1557 C 0.64392 0.70469 0.39493 0.0
C1558 C 0.63347 0.71389 0.41445 0.0
C1559 C 0.64533 0.71952 0.42558 0.0
C1560 C 0.65621 0.71716 0.42182 0.0
H1561 H 0.66715 0.78661 0.49949 0.0
H1562 H 0.66821 0.77106 0.47808 0.0
C1563 C 0.65553 0.70981 0.40658 0.0
C1564 C 0.64667 0.72864 0.4404 0.0
H1565 H 0.65045 0.76001 0.44904 0.0
C1566 C 0.64539 0.72386 0.45785 0.0
C1567 C 0.64882 0.74194 0.4372 0.0
C1568 C 0.65072 0.74771 0.4187 0.0
C1569 C 0.64582 0.73194 0.47223 0.0
C1570 C 0.64745 0.74504 0.46896 0.0
C1571 C 0.64912 0.74994 0.45151 0.0
C1572 C 0.64725 0.75383 0.48331 0.0
C1573 C 0.64458 0.72644 0.49077 0.0
C1574 C 0.63512 0.74927 0.49343 0.0
C1575 C 0.6345 0.75813 0.50576 0.0
C1576 C 0.64598 0.77173 0.50814 0.0
C1577 C 0.6582 0.77615 0.4982 0.0
C1578 C 0.65881 0.7673 0.48588 0.0
H1579 H 0.64711 0.71816 0.49135 0.0
H1580 H 0.65166 0.73487 0.50007 0.0
H1581 H 0.63362 0.72197 0.49534 0.0
H1582 H 0.62599 0.73901 0.49143 0.0
H1583 H 0.62497 0.75438 0.51329 0.0
H1584 H 0.28327 0.95178 0.39547 0.0
H1585 H 0.27192 0.93815 0.42203 0.0
H1586 H 0.30591 0.93065 0.42915 0.0
H1587 H 0.31663 0.94338 0.40189 0.0
H1588 H 0.28338 0.90787 0.43078 0.0
H1589 H 0.27622 0.94303 0.47366 0.0
H1590 H 0.26837 0.94168 0.45237 0.0
H1591 H 0.28712 0.94917 0.45428 0.0
C1592 C 0.28843 0.94746 0.40299 0.0
C1593 C 0.30076 0.94856 0.39672 0.0
C1594 C 0.28201 0.93976 0.41826 0.0
C1595 C 0.28811 0.93346 0.42782 0.0
C1596 C 0.30094 0.93534 0.42203 0.0
H1597 H 0.24916 0.88565 0.52458 0.0
H1598 H 0.26478 0.90403 0.50393 0.0
C1599 C 0.30709 0.94264 0.40651 0.0
C1600 C 0.28038 0.92354 0.44241 0.0
H1601 H 0.26103 0.9185 0.47952 0.0
C1602 C 0.27871 0.91034 0.44157 0.0
C1603 C 0.2744 0.92669 0.45671 0.0
C1604 C 0.27676 0.94098 0.45941 0.0
C1605 C 0.27097 0.90015 0.45425 0.0
C1606 C 0.26406 0.90293 0.46773 0.0
C1607 C 0.26609 0.91626 0.46899 0.0
C1608 C 0.25446 0.89203 0.48032 0.0
C1609 C 0.27047 0.88656 0.45311 0.0
C1610 C 0.2433 0.87932 0.47394 0.0
C1611 C 0.23464 0.86878 0.48566 0.0
C1612 C 0.23669 0.87089 0.504 0.0
C1613 C 0.24745 0.88379 0.51046 0.0
C1614 C 0.25633 0.89427 0.49869 0.0
H1615 H 0.27995 0.88789 0.4465 0.0
H1616 H 0.2697 0.88202 0.46642 0.0
H1617 H 0.26118 0.87911 0.44508 0.0
H1618 H 0.24131 0.87751 0.45985 0.0
H1619 H 0.22622 0.85901 0.4804 0.0
H1620 H 0.06239 0.36504 0.389 0.0
H1621 H 0.08256 0.37589 0.40966 0.0
H1622 H 0.06552 0.33727 0.43793 0.0
H1623 H 0.04562 0.32638 0.41741 0.0
H1624 H 0.08538 0.3781 0.44874 0.0
H1625 H 0.10425 0.34597 0.41925 0.0
H1626 H 0.09106 0.34837 0.40869 0.0
H1627 H 0.08632 0.33604 0.42638 0.0
C1628 C 0.06286 0.35895 0.3998 0.0
C1629 C 0.05255 0.3448 0.4014 0.0
C1630 C 0.07436 0.36516 0.41157 0.0
C1631 C 0.07562 0.35728 0.42509 0.0
C1632 C 0.06485 0.34344 0.42739 0.0
H1633 H 0.12698 0.37211 0.5174 0.0
H1634 H 0.10953 0.37073 0.4961 0.0
C1635 C 0.05349 0.33724 0.41563 0.0
C1636 C 0.08857 0.36297 0.43604 0.0
H1637 H 0.11454 0.35674 0.44688 0.0
C1638 C 0.09191 0.37361 0.44823 0.0
C1639 C 0.0972 0.35725 0.43508 0.0
C1640 C 0.09464 0.34637 0.42153 0.0
C1641 C 0.10333 0.37823 0.4601 0.0
C1642 C 0.11139 0.37183 0.45992 0.0
C1643 C 0.10835 0.36161 0.44716 0.0
C1644 C 0.12266 0.37498 0.47314 0.0
C1645 C 0.10663 0.38989 0.47266 0.0
C1646 C 0.13585 0.37782 0.4674 0.0
C1647 C 0.14564 0.37826 0.47949 0.0
C1648 C 0.14251 0.37605 0.49759 0.0
C1649 C 0.12966 0.37399 0.50351 0.0
C1650 C 0.11974 0.37331 0.49135 0.0
H1651 H 0.10299 0.39665 0.46721 0.0
H1652 H 0.10105 0.38548 0.4853 0.0
H1653 H 0.11808 0.39636 0.47555 0.0
H1654 H 0.13836 0.37912 0.45344 0.0
H1655 H 0.15552 0.37992 0.47464 0.0
H1656 H 0.03779 0.33706 0.30292 0.0
H1657 H 0.04836 0.33588 0.27525 0.0
H1658 H 0.047 0.29906 0.29381 0.0
H1659 H 0.03622 0.29998 0.32125 0.0
H1660 H 0.07335 0.33787 0.27189 0.0
H1661 H 0.03182 0.28773 0.24401 0.0
H1662 H 0.02852 0.29633 0.2617 0.0
H1663 H 0.03606 0.2859 0.26643 0.0
C1664 C 0.03954 0.32859 0.301 0.0
C1665 C 0.03615 0.31861 0.31432 0.0
C1666 C 0.04558 0.32793 0.28518 0.0
C1667 C 0.04826 0.31726 0.28233 0.0
C1668 C 0.04469 0.30718 0.29549 0.0
H1669 H 0.11276 0.31588 0.22579 0.0
H1670 H 0.09741 0.31818 0.24639 0.0
C1671 C 0.03862 0.3078 0.31126 0.0
C1672 C 0.05592 0.31728 0.26639 0.0
H1673 H 0.05535 0.29647 0.23335 0.0
C1674 C 0.06931 0.32891 0.26329 0.0
C1675 C 0.05057 0.30567 0.25497 0.0
C1676 C 0.03589 0.29327 0.25682 0.0
C1677 C 0.07781 0.32894 0.24971 0.0
C1678 C 0.07289 0.31692 0.23919 0.0
C1679 C 0.05919 0.3056 0.24161 0.0
C1680 C 0.08214 0.3156 0.22645 0.0
C1681 C 0.09206 0.34179 0.24692 0.0
C1682 C 0.07843 0.31296 0.20845 0.0
C1683 C 0.08721 0.3116 0.19659 0.0
C1684 C 0.0998 0.31282 0.20258 0.0
C1685 C 0.10332 0.31522 0.22068 0.0
C1686 C 0.09456 0.31655 0.23248 0.0
H1687 H 0.09239 0.3512 0.25186 0.0
H1688 H 0.10011 0.34078 0.25439 0.0
H1689 H 0.09492 0.34328 0.2327 0.0
H1690 H 0.06882 0.31208 0.20356 0.0
H1691 H 0.08424 0.30979 0.18271 0.0
H1692 H 0.64718 0.71966 0.30008 0.0
H1693 H 0.65855 0.73772 0.27783 0.0
H1694 H 0.69782 0.73991 0.28764 0.0
H1695 H 0.68648 0.72166 0.31021 0.0
H1696 H 0.68476 0.76587 0.28535 0.0
H1697 H 0.68932 0.73495 0.23139 0.0
H1698 H 0.67618 0.72668 0.24835 0.0
H1699 H 0.69434 0.73365 0.25378 0.0
C1700 C 0.65822 0.72388 0.29755 0.0
C1701 C 0.66591 0.71919 0.30698 0.0
C1702 C 0.6647 0.73423 0.28481 0.0
C1703 C 0.67898 0.74008 0.2811 0.0
C1704 C 0.68675 0.73542 0.29029 0.0
H1705 H 0.7162 0.80193 0.19499 0.0
H1706 H 0.71476 0.78655 0.2191 0.0
C1707 C 0.68026 0.72504 0.30318 0.0
C1708 C 0.68553 0.75131 0.26785 0.0
H1709 H 0.69371 0.75712 0.224 0.0
C1710 C 0.68701 0.76408 0.27202 0.0
C1711 C 0.68852 0.74894 0.25056 0.0
C1712 C 0.68703 0.73533 0.24558 0.0
C1713 C 0.69069 0.77431 0.25907 0.0
C1714 C 0.69267 0.77155 0.24146 0.0
C1715 C 0.69211 0.75914 0.23752 0.0
C1716 C 0.69373 0.78072 0.22674 0.0
C1717 C 0.69197 0.7878 0.26422 0.0
C1718 C 0.6823 0.7823 0.22291 0.0
C1719 C 0.68307 0.79099 0.20924 0.0
C1720 C 0.69529 0.79827 0.19903 0.0
C1721 C 0.70669 0.79654 0.20272 0.0
C1722 C 0.70588 0.78775 0.21642 0.0
H1723 H 0.69434 0.78998 0.27857 0.0
H1724 H 0.70033 0.7966 0.25655 0.0
H1725 H 0.68185 0.78715 0.26138 0.0
H1726 H 0.67276 0.77681 0.23058 0.0
H1727 H 0.67417 0.79221 0.20691 0.0
H1728 H 0.28555 0.93691 0.29863 0.0
H1729 H 0.26819 0.93052 0.27506 0.0
H1730 H 0.26404 0.96529 0.28816 0.0
H1731 H 0.28155 0.97184 0.31208 0.0
H1732 H 0.2379 0.93916 0.28358 0.0
H1733 H 0.27381 0.95065 0.22738 0.0
H1734 H 0.27545 0.94023 0.24412 0.0
H1735 H 0.28004 0.95763 0.24932 0.0
C1736 C 0.28104 0.94328 0.29654 0.0
C1737 C 0.28501 0.95494 0.30724 0.0
C1738 C 0.27115 0.93964 0.28296 0.0
C1739 C 0.26502 0.94756 0.27968 0.0
C1740 C 0.26878 0.95912 0.29041 0.0
H1741 H 0.19572 0.92165 0.20167 0.0
H1742 H 0.2139 0.93598 0.2237 0.0
C1743 C 0.27877 0.96285 0.30403 0.0
C1744 C 0.25435 0.94328 0.26536 0.0
H1745 H 0.24919 0.93484 0.22147 0.0
C1746 C 0.24037 0.93849 0.26991 0.0
C1747 C 0.25764 0.94248 0.24755 0.0
C1748 C 0.27258 0.94816 0.24174 0.0
C1749 C 0.22945 0.93202 0.25729 0.0
C1750 C 0.23268 0.93047 0.23972 0.0
C1751 C 0.24675 0.93597 0.23499 0.0
C1752 C 0.22158 0.922 0.22648 0.0
C1753 C 0.21446 0.92616 0.26302 0.0
C1754 C 0.22 0.90951 0.22067 0.0
C1755 C 0.20965 0.90131 0.20821 0.0
C1756 C 0.2007 0.90548 0.20115 0.0
C1757 C 0.20233 0.91806 0.20698 0.0
C1758 C 0.21271 0.92627 0.21953 0.0
H1759 H 0.2136 0.9267 0.27759 0.0
H1760 H 0.21022 0.9321 0.25663 0.0
H1761 H 0.2078 0.91519 0.25872 0.0
H1762 H 0.22672 0.90602 0.22594 0.0
H1763 H 0.20854 0.89157 0.20431 0.0
H1764 H 0.66973 0.95765 0.29893 0.0
H1765 H 0.67046 0.94566 0.27238 0.0
H1766 H 0.71222 0.9555 0.28673 0.0
H1767 H 0.71163 0.96748 0.31326 0.0
H1768 H 0.70735 0.95944 0.24894 0.0
H1769 H 0.6688 0.90759 0.27668 0.0
H1770 H 0.66396 0.92049 0.27679 0.0
H1771 H 0.67833 0.92284 0.29041 0.0
C1772 C 0.67912 0.95738 0.29636 0.0
C1773 C 0.69058 0.96343 0.3083 0.0
C1774 C 0.6795 0.9505 0.28122 0.0
C1775 C 0.69134 0.94961 0.27773 0.0
C1776 C 0.70298 0.95607 0.28924 0.0
H1777 H 0.70557 0.89468 0.2166 0.0
H1778 H 0.70419 0.90965 0.23869 0.0
C1779 C 0.70259 0.96288 0.30441 0.0
C1780 C 0.69141 0.94138 0.26261 0.0
H1781 H 0.67764 0.90808 0.24836 0.0
C1782 C 0.70078 0.94822 0.24869 0.0
C1783 C 0.68291 0.92675 0.26249 0.0
C1784 C 0.67297 0.9189 0.27741 0.0
C1785 C 0.70191 0.94077 0.23464 0.0
C1786 C 0.69347 0.92614 0.2346 0.0
C1787 C 0.68403 0.91932 0.24844 0.0
C1788 C 0.69481 0.91765 0.22082 0.0
C1789 C 0.7124 0.9485 0.2202 0.0
C1790 C 0.68999 0.91723 0.20346 0.0
C1791 C 0.69076 0.90866 0.19078 0.0
C1792 C 0.69642 0.90044 0.19527 0.0
C1793 C 0.70136 0.90104 0.21265 0.0
C1794 C 0.7005 0.90951 0.22532 0.0
H1795 H 0.71945 0.95967 0.22339 0.0
H1796 H 0.71893 0.94386 0.21793 0.0
H1797 H 0.7067 0.94761 0.20766 0.0
H1798 H 0.68545 0.92336 0.19981 0.0
H1799 H 0.68692 0.90846 0.17748 0.0
H1800 H 0.0372 0.71033 0.29777 0.0
H1801 H 0.0498 0.7232 0.27117 0.0
H1802 H 0.04818 0.75851 0.28892 0.0
H1803 H 0.03566 0.74587 0.31539 0.0
H1804 H 0.04189 0.73775 0.24422 0.0
H1805 H 0.09101 0.77225 0.28208 0.0
H1806 H 0.07724 0.75575 0.2905 0.0
H1807 H 0.07536 0.77059 0.29113 0.0
C1808 C 0.03944 0.7208 0.29594 0.0
C1809 C 0.03551 0.7271 0.30879 0.0
C1810 C 0.04661 0.72811 0.28074 0.0
C1811 C 0.05003 0.74183 0.27826 0.0
C1812 C 0.04576 0.74798 0.29075 0.0
H1813 H 0.07895 0.79989 0.19244 0.0
H1814 H 0.06516 0.78203 0.21442 0.0
C1815 C 0.03857 0.74071 0.30586 0.0
C1816 C 0.05848 0.75002 0.26295 0.0
H1817 H 0.08981 0.77893 0.25257 0.0
C1818 C 0.05242 0.74668 0.24595 0.0
C1819 C 0.07226 0.76153 0.2653 0.0
C1820 C 0.07945 0.76522 0.2832 0.0
C1821 C 0.05965 0.75492 0.23126 0.0
C1822 C 0.07317 0.76684 0.23377 0.0
C1823 C 0.0794 0.76984 0.25069 0.0
C1824 C 0.08094 0.77668 0.21924 0.0
C1825 C 0.05274 0.75084 0.21322 0.0
C1826 C 0.09443 0.77969 0.21479 0.0
C1827 C 0.1024 0.79 0.2024 0.0
C1828 C 0.09706 0.79758 0.19431 0.0
C1829 C 0.0834 0.79432 0.19853 0.0
C1830 C 0.07544 0.78399 0.21092 0.0
H1831 H 0.04446 0.73965 0.21266 0.0
H1832 H 0.0477 0.75689 0.21023 0.0
H1833 H 0.06059 0.75306 0.20279 0.0
H1834 H 0.09892 0.77425 0.22119 0.0
H1835 H 0.11294 0.79237 0.19966 0.0
H1836 H 0.28986 0.34915 0.2885 0.0
H1837 H 0.27184 0.33817 0.26555 0.0
H1838 H 0.25999 0.29785 0.28589 0.0
H1839 H 0.27815 0.30881 0.30916 0.0
H1840 H 0.26801 0.31724 0.23922 0.0
H1841 H 0.22307 0.29953 0.28537 0.0
H1842 H 0.24072 0.31296 0.29151 0.0
H1843 H 0.23622 0.29527 0.29037 0.0
C1844 C 0.28348 0.33794 0.28815 0.0
C1845 C 0.2854 0.32986 0.30077 0.0
C1846 C 0.27321 0.33168 0.27495 0.0
C1847 C 0.26455 0.31722 0.27411 0.0
C1848 C 0.26653 0.30904 0.28644 0.0
H1849 H 0.18917 0.28076 0.20541 0.0
H1850 H 0.20727 0.28153 0.22505 0.0
C1851 C 0.27691 0.31532 0.29967 0.0
C1852 C 0.25324 0.31101 0.26052 0.0
H1853 H 0.21806 0.2978 0.25496 0.0
C1854 C 0.25705 0.31274 0.24263 0.0
C1855 C 0.23895 0.30505 0.26503 0.0
C1856 C 0.23439 0.30309 0.28409 0.0
C1857 C 0.24701 0.30928 0.22911 0.0
C1858 C 0.23287 0.30427 0.23366 0.0
C1859 C 0.22892 0.3017 0.25151 0.0
C1860 C 0.22244 0.30324 0.22042 0.0
C1861 C 0.25171 0.31138 0.21011 0.0
C1862 C 0.22498 0.31516 0.2113 0.0
C1863 C 0.21472 0.31475 0.20013 0.0
C1864 C 0.20163 0.30242 0.19792 0.0
C1865 C 0.1992 0.29038 0.20672 0.0
C1866 C 0.2095 0.29081 0.21799 0.0
H1867 H 0.26109 0.31044 0.2086 0.0
H1868 H 0.24321 0.30376 0.2012 0.0
H1869 H 0.25467 0.32196 0.20584 0.0
H1870 H 0.23475 0.32494 0.21326 0.0
H1871 H 0.21695 0.32417 0.19342 0.0
H1872 H 0.30828 0.37615 0.38608 0.0
H1873 H 0.29782 0.37778 0.41344 0.0
H1874 H 0.28205 0.33461 0.42414 0.0
H1875 H 0.29282 0.33297 0.39692 0.0
H1876 H 0.2701 0.36358 0.42 0.0
H1877 H 0.29785 0.35189 0.47217 0.0
H1878 H 0.30415 0.35615 0.44975 0.0
H1879 H 0.29003 0.33896 0.4551 0.0
C1880 C 0.30276 0.36703 0.39436 0.0
C1881 C 0.30134 0.35441 0.38929 0.0
C1882 C 0.2968 0.36799 0.41001 0.0
C1883 C 0.28926 0.35636 0.42093 0.0
C1884 C 0.28808 0.3438 0.41614 0.0
H1885 H 0.23026 0.33893 0.50521 0.0
H1886 H 0.2455 0.33771 0.48307 0.0
C1887 C 0.29417 0.34286 0.40051 0.0
C1888 C 0.28163 0.35717 0.4364 0.0
H1889 H 0.2777 0.35246 0.48118 0.0
C1890 C 0.27185 0.36125 0.43338 0.0
C1891 C 0.28388 0.35405 0.45385 0.0
C1892 C 0.29464 0.35014 0.45799 0.0
C1893 C 0.26417 0.36219 0.44728 0.0
C1894 C 0.2664 0.35906 0.46469 0.0
C1895 C 0.27609 0.35489 0.46778 0.0
C1896 C 0.25849 0.35991 0.47969 0.0
C1897 C 0.25355 0.36631 0.44325 0.0
C1898 C 0.26105 0.37282 0.4854 0.0
C1899 C 0.25238 0.37356 0.498 0.0
C1900 C 0.24097 0.36137 0.50502 0.0
C1901 C 0.23887 0.34847 0.49986 0.0
C1902 C 0.24759 0.34776 0.48732 0.0
H1903 H 0.25137 0.36606 0.42882 0.0
H1904 H 0.24351 0.35933 0.45013 0.0
H1905 H 0.25764 0.37701 0.44812 0.0
H1906 H 0.26946 0.3823 0.47965 0.0
H1907 H 0.2542 0.38363 0.5016 0.0
H1908 H 0.6444 0.94157 0.38337 0.0
H1909 H 0.63286 0.92364 0.40631 0.0
H1910 H 0.67232 0.94081 0.43455 0.0
H1911 H 0.68386 0.9585 0.41184 0.0
H1912 H 0.64208 0.90438 0.41554 0.0
H1913 H 0.64333 0.93509 0.47322 0.0
H1914 H 0.64431 0.94086 0.45062 0.0
H1915 H 0.6597 0.94293 0.46159 0.0
C1916 C 0.65053 0.94162 0.39463 0.0
C1917 C 0.66505 0.95139 0.39577 0.0
C1918 C 0.64395 0.93139 0.40768 0.0
C1919 C 0.65172 0.93103 0.42221 0.0
C1920 C 0.66609 0.94104 0.4236 0.0
H1921 H 0.65907 0.87622 0.4881 0.0
H1922 H 0.65877 0.89157 0.46545 0.0
C1923 C 0.67269 0.95109 0.41052 0.0
C1924 C 0.64542 0.91957 0.4352 0.0
H1925 H 0.64219 0.91359 0.47974 0.0
C1926 C 0.64174 0.90628 0.42953 0.0
C1927 C 0.6449 0.92205 0.45343 0.0
C1928 C 0.64814 0.93598 0.4601 0.0
C1929 C 0.63861 0.8957 0.44178 0.0
C1930 C 0.63925 0.89854 0.46008 0.0
C1931 C 0.64184 0.91149 0.46568 0.0
C1932 C 0.63891 0.88882 0.47353 0.0
C1933 C 0.63524 0.88173 0.43511 0.0
C1934 C 0.62792 0.88234 0.48572 0.0
C1935 C 0.62805 0.87352 0.4987 0.0
C1936 C 0.63933 0.87128 0.49986 0.0
C1937 C 0.65033 0.87786 0.48765 0.0
C1938 C 0.6501 0.88652 0.47461 0.0
H1939 H 0.63152 0.88001 0.42112 0.0
H1940 H 0.64487 0.88115 0.43584 0.0
H1941 H 0.62708 0.87326 0.44339 0.0
H1942 H 0.61925 0.88411 0.48516 0.0
H1943 H 0.61948 0.86863 0.50801 0.0
H1944 H 0.05292 0.70131 0.38776 0.0
H1945 H 0.07152 0.70869 0.41032 0.0
H1946 H 0.05949 0.73585 0.43317 0.0
H1947 H 0.04115 0.72876 0.41071 0.0
H1948 H 0.08778 0.74897 0.42541 0.0
H1949 H 0.07023 0.70063 0.46384 0.0
H1950 H 0.0711 0.69926 0.44023 0.0
H1951 H 0.05854 0.70285 0.44937 0.0
C1952 C 0.05412 0.70869 0.39776 0.0
C1953 C 0.04562 0.71451 0.39736 0.0
C1954 C 0.06471 0.71285 0.41068 0.0
C1955 C 0.06683 0.72277 0.42347 0.0
C1956 C 0.05804 0.7282 0.42341 0.0
H1957 H 0.11541 0.75427 0.51916 0.0
H1958 H 0.09739 0.74134 0.49651 0.0
C1959 C 0.04756 0.72413 0.41053 0.0
C1960 C 0.07883 0.72841 0.43614 0.0
H1961 H 0.09218 0.72027 0.47189 0.0
C1962 C 0.08879 0.74268 0.43552 0.0
C1963 C 0.08005 0.72019 0.44935 0.0
C1964 C 0.06938 0.7049 0.45092 0.0
C1965 C 0.09981 0.74902 0.44793 0.0
C1966 C 0.10109 0.74081 0.46112 0.0
C1967 C 0.09123 0.72649 0.46165 0.0
C1968 C 0.11213 0.74715 0.47507 0.0
C1969 C 0.10966 0.76455 0.44719 0.0
C1970 C 0.12641 0.75435 0.47062 0.0
C1971 C 0.13673 0.76191 0.48347 0.0
C1972 C 0.13295 0.76232 0.50108 0.0
C1973 C 0.11866 0.75441 0.50567 0.0
C1974 C 0.10836 0.7469 0.49278 0.0
H1975 H 0.10533 0.76962 0.43889 0.0
H1976 H 0.11184 0.76914 0.46067 0.0
H1977 H 0.11978 0.76694 0.44138 0.0
H1978 H 0.12956 0.7545 0.45706 0.0
H1979 H 0.1476 0.76793 0.47942 0.0
H1980 H 0.29117 0.03827 0.71866 0.0
H1981 H 0.29166 0.0511 0.74482 0.0
H1982 H 0.33179 0.05706 0.7603 0.0
H1983 H 0.33143 0.04417 0.73407 0.0
H1984 H 0.31064 0.04939 0.78892 0.0
H1985 H 0.31993 0.0942 0.74764 0.0
H1986 H 0.30537 0.07762 0.74077 0.0
H1987 H 0.32295 0.08095 0.73964 0.0
C1988 C 0.30006 0.04218 0.72767 0.0
C1989 C 0.31134 0.0403 0.72415 0.0
C1990 C 0.30032 0.04953 0.74261 0.0
C1991 C 0.31184 0.05516 0.75432 0.0
C1992 C 0.32283 0.05282 0.75134 0.0
H1993 H 0.33278 0.12164 0.82857 0.0
H1994 H 0.33362 0.10631 0.80659 0.0
C1995 C 0.32261 0.04547 0.73634 0.0
C1996 C 0.31264 0.06407 0.76914 0.0
H1997 H 0.31519 0.09488 0.77796 0.0
C1998 C 0.3117 0.05937 0.78659 0.0
C1999 C 0.31418 0.07712 0.76599 0.0
C2000 C 0.31579 0.08288 0.74752 0.0
C2001 C 0.31192 0.0673 0.80102 0.0
C2002 C 0.31301 0.08017 0.79781 0.0
C2003 C 0.31427 0.08497 0.78037 0.0
C2004 C 0.31286 0.0889 0.81229 0.0
C2005 C 0.31111 0.06193 0.81955 0.0
C2006 C 0.30092 0.08416 0.82284 0.0
C2007 C 0.30043 0.09289 0.8355 0.0
C2008 C 0.31187 0.10653 0.8378 0.0
C2009 C 0.32389 0.11114 0.82736 0.0
C2010 C 0.32435 0.10242 0.81471 0.0
H2011 H 0.31384 0.05377 0.81998 0.0
H2012 H 0.31828 0.07046 0.82867 0.0
H2013 H 0.30023 0.05733 0.82446 0.0
H2014 H 0.29184 0.07384 0.82097 0.0
H2015 H 0.29106 0.089 0.84339 0.0
H2016 H 0.95908 0.29046 0.72774 0.0
H2017 H 0.94715 0.27786 0.75478 0.0
H2018 H 0.96453 0.25184 0.74884 0.0
H2019 H 0.97631 0.26419 0.72177 0.0
H2020 H 0.92756 0.24605 0.75352 0.0
H2021 H 0.97123 0.26586 0.80291 0.0
H2022 H 0.97164 0.27595 0.78402 0.0
H2023 H 0.97464 0.26196 0.78112 0.0
C2024 C 0.96054 0.2822 0.73235 0.0
C2025 C 0.96858 0.27827 0.72258 0.0
C2026 C 0.95372 0.27502 0.74777 0.0
C2027 C 0.95507 0.26402 0.7538 0.0
C2028 C 0.9635 0.26041 0.74445 0.0
H2029 H 0.92244 0.19993 0.83204 0.0
H2030 H 0.93622 0.21797 0.81036 0.0
C2031 C 0.97016 0.26744 0.72896 0.0
C2032 C 0.94671 0.25539 0.76887 0.0
H2033 H 0.94959 0.24586 0.81088 0.0
C2034 C 0.93229 0.2461 0.76618 0.0
C2035 C 0.95302 0.25544 0.78519 0.0
C2036 C 0.96848 0.26538 0.78865 0.0
C2037 C 0.92405 0.23643 0.77919 0.0
C2038 C 0.93036 0.23637 0.79556 0.0
C2039 C 0.94476 0.24593 0.79837 0.0
C2040 C 0.92234 0.22601 0.80954 0.0
C2041 C 0.90884 0.22594 0.7749 0.0
C2042 C 0.91013 0.22472 0.81662 0.0
C2043 C 0.90204 0.2142 0.82872 0.0
C2044 C 0.90614 0.2049 0.83428 0.0
C2045 C 0.91876 0.20666 0.82777 0.0
C2046 C 0.92675 0.21708 0.8155 0.0
H2047 H 0.90674 0.22501 0.7604 0.0
H2048 H 0.90573 0.21555 0.78017 0.0
H2049 H 0.90207 0.22927 0.78103 0.0
H2050 H 0.90671 0.2317 0.81255 0.0
H2051 H 0.89236 0.21314 0.8333 0.0
H2052 H 0.72493 0.65965 0.72922 0.0
H2053 H 0.74283 0.67048 0.75232 0.0
H2054 H 0.73952 0.70679 0.75057 0.0
H2055 H 0.72142 0.69599 0.72717 0.0
H2056 H 0.7696 0.69842 0.74996 0.0
H2057 H 0.73341 0.69232 0.80439 0.0
H2058 H 0.72705 0.68151 0.78486 0.0
H2059 H 0.73231 0.69941 0.78341 0.0
C2060 C 0.72795 0.66995 0.73367 0.0
C2061 C 0.72168 0.67693 0.72636 0.0
C2062 C 0.73823 0.67612 0.74687 0.0
C2063 C 0.74242 0.68938 0.75317 0.0
C2064 C 0.73633 0.6965 0.7459 0.0
H2065 H 0.81492 0.72414 0.82719 0.0
H2066 H 0.7985 0.72418 0.80529 0.0
C2067 C 0.72604 0.69034 0.73253 0.0
C2068 C 0.75316 0.69543 0.76745 0.0
H2069 H 0.75652 0.69892 0.81239 0.0
C2070 C 0.76689 0.69888 0.76358 0.0
C2071 C 0.74946 0.69586 0.78516 0.0
C2072 C 0.73476 0.69206 0.78988 0.0
C2073 C 0.77687 0.70209 0.77709 0.0
C2074 C 0.773 0.70193 0.79492 0.0
C2075 C 0.75946 0.69911 0.79871 0.0
C2076 C 0.78224 0.70279 0.80975 0.0
C2077 C 0.79118 0.70473 0.77231 0.0
C2078 C 0.77829 0.69094 0.81995 0.0
C2079 C 0.78759 0.69089 0.83244 0.0
C2080 C 0.801 0.70274 0.83504 0.0
C2081 C 0.80464 0.71487 0.82551 0.0
C2082 C 0.79533 0.71488 0.81292 0.0
H2083 H 0.79181 0.7026 0.75811 0.0
H2084 H 0.79925 0.71574 0.77503 0.0
H2085 H 0.79381 0.69819 0.78049 0.0
H2086 H 0.76822 0.68151 0.81773 0.0
H2087 H 0.7844 0.68147 0.83978 0.0
H2088 H 0.69833 0.63389 0.63889 0.0
H2089 H 0.70917 0.63459 0.6107 0.0
H2090 H 0.72053 0.67701 0.60314 0.0
H2091 H 0.70969 0.67645 0.63146 0.0
H2092 H 0.70483 0.64223 0.57457 0.0
H2093 H 0.75833 0.67708 0.60329 0.0
H2094 H 0.74307 0.66727 0.617 0.0
H2095 H 0.74567 0.6823 0.60538 0.0
C2096 C 0.70299 0.64335 0.63118 0.0
C2097 C 0.70327 0.65517 0.63752 0.0
C2098 C 0.70913 0.6437 0.61504 0.0
C2099 C 0.71575 0.65588 0.60498 0.0
C2100 C 0.71556 0.66754 0.61084 0.0
H2101 H 0.77469 0.67183 0.51962 0.0
H2102 H 0.75934 0.6746 0.53991 0.0
C2103 C 0.70933 0.66719 0.62698 0.0
C2104 C 0.72365 0.65651 0.58903 0.0
H2105 H 0.75699 0.66896 0.57444 0.0
C2106 C 0.71624 0.64819 0.5744 0.0
C2107 C 0.7385 0.66434 0.5889 0.0
C2108 C 0.74694 0.67322 0.60448 0.0
C2109 C 0.72333 0.64729 0.5597 0.0
C2110 C 0.73821 0.65463 0.55991 0.0
C2111 C 0.74558 0.66334 0.5743 0.0
C2112 C 0.7464 0.65275 0.54603 0.0
C2113 C 0.71481 0.63846 0.54415 0.0
C2114 C 0.74417 0.63955 0.54264 0.0
C2115 C 0.75289 0.63794 0.53102 0.0
C2116 C 0.76414 0.64954 0.52278 0.0
C2117 C 0.76617 0.66272 0.5259 0.0
C2118 C 0.75738 0.66431 0.53742 0.0
H2119 H 0.70443 0.6376 0.54329 0.0
H2120 H 0.72042 0.64274 0.53149 0.0
H2121 H 0.71287 0.62785 0.54586 0.0
H2122 H 0.73604 0.63053 0.5495 0.0
H2123 H 0.75121 0.62769 0.52909 0.0
H2124 H 0.35494 0.05855 0.64319 0.0
H2125 H 0.36583 0.07699 0.62083 0.0
H2126 H 0.32476 0.06718 0.60303 0.0
H2127 H 0.31384 0.04894 0.62516 0.0
H2128 H 0.36157 0.0761 0.58219 0.0
H2129 H 0.34587 0.10895 0.61694 0.0
H2130 H 0.34614 0.09477 0.62764 0.0
H2131 H 0.33159 0.09145 0.61355 0.0
C2132 C 0.34824 0.06027 0.63443 0.0
C2133 C 0.33352 0.05236 0.63611 0.0
C2134 C 0.35448 0.07079 0.62168 0.0
C2135 C 0.34608 0.07356 0.61052 0.0
C2136 C 0.33142 0.06535 0.61174 0.0
H2137 H 0.353 0.11418 0.51321 0.0
H2138 H 0.35155 0.09854 0.5366 0.0
C2139 C 0.3252 0.05489 0.6244 0.0
C2140 C 0.35242 0.08523 0.59782 0.0
H2141 H 0.35228 0.1144 0.58658 0.0
C2142 C 0.35976 0.08462 0.58324 0.0
C2143 C 0.35027 0.09645 0.59942 0.0
C2144 C 0.34316 0.09806 0.61532 0.0
C2145 C 0.36431 0.09455 0.56965 0.0
C2146 C 0.36119 0.10518 0.57061 0.0
C2147 C 0.35457 0.10619 0.58573 0.0
C2148 C 0.36376 0.11481 0.55571 0.0
C2149 C 0.37226 0.09347 0.55435 0.0
C2150 C 0.37102 0.12918 0.55865 0.0
C2151 C 0.37159 0.13813 0.54541 0.0
C2152 C 0.36489 0.1329 0.52894 0.0
C2153 C 0.35813 0.11855 0.5258 0.0
C2154 C 0.35749 0.1096 0.53908 0.0
H2155 H 0.37795 0.08822 0.55839 0.0
H2156 H 0.36471 0.08718 0.54367 0.0
H2157 H 0.37994 0.10384 0.54892 0.0
H2158 H 0.37583 0.13342 0.57142 0.0
H2159 H 0.37674 0.14909 0.5484 0.0
H2160 H 0.9551 0.26852 0.625 0.0
H2161 H 0.93672 0.26096 0.60256 0.0
H2162 H 0.93105 0.29471 0.61625 0.0
H2163 H 0.94968 0.30251 0.6389 0.0
H2164 H 0.90835 0.25328 0.60978 0.0
H2165 H 0.9344 0.29639 0.56103 0.0
H2166 H 0.94427 0.29319 0.57748 0.0
H2167 H 0.93438 0.30087 0.58387 0.0
C2168 C 0.95007 0.27445 0.62324 0.0
C2169 C 0.95387 0.28612 0.63383 0.0
C2170 C 0.93954 0.27009 0.61037 0.0
C2171 C 0.93258 0.27731 0.60768 0.0
C2172 C 0.93643 0.2891 0.61798 0.0
H2173 H 0.86355 0.25296 0.53072 0.0
H2174 H 0.88131 0.26569 0.55389 0.0
C2175 C 0.94703 0.2935 0.63095 0.0
C2176 C 0.92088 0.27188 0.59462 0.0
H2177 H 0.91184 0.27768 0.55353 0.0
C2178 C 0.90905 0.25867 0.59756 0.0
C2179 C 0.9218 0.27899 0.57876 0.0
C2180 C 0.9344 0.29312 0.57492 0.0
C2181 C 0.89829 0.25219 0.58484 0.0
C2182 C 0.8995 0.259 0.56862 0.0
C2183 C 0.91101 0.27247 0.56596 0.0
C2184 C 0.8893 0.25188 0.55396 0.0
C2185 C 0.88577 0.238 0.58876 0.0
C2186 C 0.88815 0.24011 0.5461 0.0
C2187 C 0.87804 0.23283 0.53296 0.0
C2188 C 0.86889 0.23719 0.52735 0.0
C2189 C 0.87033 0.24924 0.53491 0.0
C2190 C 0.88051 0.25656 0.54805 0.0
H2191 H 0.88457 0.23587 0.60321 0.0
H2192 H 0.87593 0.23692 0.58341 0.0
H2193 H 0.88725 0.23003 0.58238 0.0
H2194 H 0.89496 0.23644 0.55034 0.0
H2195 H 0.87713 0.22353 0.52757 0.0
H2196 H 0.33557 0.29404 0.63001 0.0
H2197 H 0.33482 0.28099 0.60371 0.0
H2198 H 0.37381 0.28467 0.62002 0.0
H2199 H 0.37468 0.29762 0.64624 0.0
H2200 H 0.3559 0.28791 0.57558 0.0
H2201 H 0.34439 0.24208 0.61611 0.0
H2202 H 0.34208 0.25574 0.62432 0.0
H2203 H 0.35934 0.25822 0.62343 0.0
C2204 C 0.34405 0.29218 0.62791 0.0
C2205 C 0.35511 0.29676 0.64034 0.0
C2206 C 0.34361 0.28475 0.61288 0.0
C2207 C 0.35416 0.28172 0.61011 0.0
C2208 C 0.36547 0.28675 0.62208 0.0
H2209 H 0.37582 0.24867 0.52142 0.0
H2210 H 0.37453 0.26354 0.54381 0.0
C2211 C 0.36595 0.29418 0.63705 0.0
C2212 C 0.35314 0.27281 0.59516 0.0
H2213 H 0.34995 0.24177 0.58598 0.0
C2214 C 0.35451 0.27778 0.57779 0.0
C2215 C 0.35115 0.25955 0.59813 0.0
C2216 C 0.34903 0.25348 0.61648 0.0
C2217 C 0.35435 0.26994 0.56328 0.0
C2218 C 0.35291 0.2569 0.56633 0.0
C2219 C 0.35115 0.25181 0.58368 0.0
C2220 C 0.35334 0.24835 0.55181 0.0
C2221 C 0.35563 0.27563 0.54484 0.0
C2222 C 0.34194 0.23483 0.54903 0.0
C2223 C 0.34271 0.22626 0.53641 0.0
C2224 C 0.35495 0.23101 0.52637 0.0
C2225 C 0.36629 0.24465 0.52901 0.0
C2226 C 0.3655 0.25323 0.54165 0.0
H2227 H 0.35287 0.28376 0.54439 0.0
H2228 H 0.36666 0.28037 0.54041 0.0
H2229 H 0.34874 0.26727 0.53536 0.0
H2230 H 0.33251 0.23082 0.55685 0.0
H2231 H 0.33387 0.21575 0.53493 0.0
H2232 H 0.70671 0.04128 0.62543 0.0
H2233 H 0.7188 0.05264 0.59783 0.0
H2234 H 0.72208 0.09056 0.61489 0.0
H2235 H 0.71008 0.07944 0.64226 0.0
H2236 H 0.71149 0.06859 0.57123 0.0
H2237 H 0.76348 0.09953 0.60471 0.0
H2238 H 0.74917 0.08374 0.61399 0.0
H2239 H 0.74926 0.09964 0.61559 0.0
C2240 C 0.70993 0.05201 0.62324 0.0
C2241 C 0.70751 0.05947 0.63613 0.0
C2242 C 0.71681 0.05846 0.60748 0.0
C2243 C 0.72144 0.07245 0.6045 0.0
C2244 C 0.7187 0.07978 0.61708 0.0
H2245 H 0.74799 0.13102 0.52148 0.0
H2246 H 0.73492 0.11234 0.54272 0.0
C2247 C 0.71181 0.07338 0.63272 0.0
C2248 C 0.72947 0.07973 0.58851 0.0
H2249 H 0.76127 0.10701 0.57597 0.0
C2250 C 0.72244 0.07684 0.57214 0.0
C2251 C 0.74378 0.09035 0.58975 0.0
C2252 C 0.75195 0.09346 0.60691 0.0
C2253 C 0.72919 0.08487 0.55711 0.0
C2254 C 0.74324 0.09611 0.55865 0.0
C2255 C 0.75047 0.09845 0.57482 0.0
C2256 C 0.75038 0.10625 0.54418 0.0
C2257 C 0.72117 0.08136 0.5398 0.0
C2258 C 0.76347 0.10912 0.53802 0.0
C2259 C 0.77105 0.11993 0.52606 0.0
C2260 C 0.76574 0.12815 0.52013 0.0
C2261 C 0.75243 0.12497 0.52592 0.0
C2262 C 0.74485 0.11416 0.53787 0.0
H2263 H 0.71264 0.07027 0.5393 0.0
H2264 H 0.71625 0.08769 0.53844 0.0
H2265 H 0.72823 0.08362 0.52838 0.0
H2266 H 0.76798 0.10323 0.54286 0.0
H2267 H 0.78134 0.1222 0.52203 0.0
H2268 H 0.94003 0.63967 0.6387 0.0
H2269 H 0.92235 0.62969 0.61477 0.0
H2270 H 0.93801 0.67059 0.59347 0.0
H2271 H 0.95555 0.68059 0.6171 0.0
H2272 H 0.90149 0.63685 0.60793 0.0
H2273 H 0.93545 0.64754 0.54983 0.0
H2274 H 0.94119 0.6472 0.5722 0.0
H2275 H 0.94163 0.66238 0.56395 0.0
C2276 C 0.93981 0.6465 0.62877 0.0
C2277 C 0.94918 0.66093 0.62982 0.0
C2278 C 0.92971 0.64079 0.61514 0.0
C2279 C 0.92903 0.64939 0.60221 0.0
C2280 C 0.93854 0.66374 0.6031 0.0
H2281 H 0.8815 0.65949 0.52447 0.0
H2282 H 0.89867 0.65948 0.54479 0.0
C2283 C 0.94849 0.66944 0.61672 0.0
C2284 C 0.91778 0.64378 0.58851 0.0
H2285 H 0.91275 0.6447 0.544 0.0
C2286 C 0.90385 0.63821 0.59391 0.0
C2287 C 0.92093 0.64558 0.57026 0.0
C2288 C 0.9356 0.65088 0.56368 0.0
C2289 C 0.89313 0.63539 0.58159 0.0
C2290 C 0.89646 0.63802 0.56341 0.0
C2291 C 0.91024 0.64276 0.55794 0.0
C2292 C 0.88625 0.63748 0.55021 0.0
C2293 C 0.87856 0.63053 0.58824 0.0
C2294 C 0.87368 0.62505 0.54622 0.0
C2295 C 0.86376 0.62504 0.53466 0.0
C2296 C 0.86628 0.63748 0.52692 0.0
C2297 C 0.87913 0.64979 0.53047 0.0
C2298 C 0.889 0.64978 0.54197 0.0
H2299 H 0.87829 0.63115 0.60289 0.0
H2300 H 0.87451 0.63682 0.58234 0.0
H2301 H 0.87134 0.61958 0.58424 0.0
H2302 H 0.87146 0.6154 0.55223 0.0
H2303 H 0.85396 0.61539 0.53221 0.0
H2304 H 0.96251 0.70087 0.7147 0.0
H2305 H 0.95185 0.70112 0.74252 0.0
H2306 H 0.94917 0.6631 0.75826 0.0
H2307 H 0.95965 0.66259 0.73013 0.0
H2308 H 0.92463 0.66192 0.76279 0.0
H2309 H 0.96742 0.71054 0.79233 0.0
H2310 H 0.96343 0.71336 0.77023 0.0
H2311 H 0.97023 0.70216 0.77391 0.0
C2312 C 0.95982 0.69261 0.72412 0.0
C2313 C 0.96194 0.6817 0.72016 0.0
C2314 C 0.95383 0.69285 0.74012 0.0
C2315 C 0.94998 0.68229 0.75263 0.0
C2316 C 0.9522 0.67143 0.74885 0.0
H2317 H 0.91476 0.69049 0.85256 0.0
H2318 H 0.92978 0.68733 0.832 0.0
C2319 C 0.95817 0.67115 0.73277 0.0
C2320 C 0.94256 0.68209 0.7689 0.0
H2321 H 0.94395 0.70266 0.8028 0.0
C2322 C 0.92896 0.67072 0.77173 0.0
C2323 C 0.94829 0.69344 0.78079 0.0
C2324 C 0.96321 0.70549 0.77927 0.0
C2325 C 0.9206 0.67079 0.78542 0.0
C2326 C 0.92589 0.68268 0.79631 0.0
C2327 C 0.93982 0.69365 0.79424 0.0
C2328 C 0.9168 0.68434 0.80893 0.0
C2329 C 0.90608 0.65824 0.78787 0.0
C2330 C 0.90472 0.684 0.8027 0.0
C2331 C 0.89619 0.68582 0.81434 0.0
C2332 C 0.89961 0.68815 0.83246 0.0
C2333 C 0.91187 0.68875 0.83866 0.0
C2334 C 0.92041 0.68689 0.82697 0.0
H2335 H 0.90545 0.6487 0.78287 0.0
H2336 H 0.90302 0.6567 0.80202 0.0
H2337 H 0.89837 0.65967 0.78025 0.0
H2338 H 0.90197 0.68248 0.78875 0.0
H2339 H 0.887 0.68562 0.80907 0.0
H2340 H 0.31153 0.27736 0.71721 0.0
H2341 H 0.30016 0.25969 0.74045 0.0
H2342 H 0.34016 0.27601 0.7671 0.0
H2343 H 0.35153 0.29348 0.74409 0.0
H2344 H 0.30863 0.23985 0.74892 0.0
H2345 H 0.31261 0.27141 0.80708 0.0
H2346 H 0.31329 0.27719 0.78454 0.0
H2347 H 0.32865 0.27867 0.79483 0.0
C2348 C 0.31783 0.27729 0.72819 0.0
C2349 C 0.33243 0.28677 0.72879 0.0
C2350 C 0.31134 0.26721 0.74141 0.0
C2351 C 0.31931 0.26668 0.75558 0.0
C2352 C 0.33378 0.2764 0.75644 0.0
H2353 H 0.32586 0.21095 0.82054 0.0
H2354 H 0.32575 0.2266 0.7982 0.0
C2355 C 0.34028 0.28631 0.74319 0.0
C2356 C 0.31304 0.25531 0.76869 0.0
H2357 H 0.31068 0.2495 0.81327 0.0
C2358 C 0.30872 0.24186 0.76296 0.0
C2359 C 0.31308 0.25794 0.78698 0.0
C2360 C 0.31703 0.27206 0.79375 0.0
C2361 C 0.30548 0.23123 0.77517 0.0
C2362 C 0.30665 0.23417 0.79348 0.0
C2363 C 0.30991 0.24732 0.79919 0.0
C2364 C 0.30619 0.2243 0.80676 0.0
C2365 C 0.30144 0.21707 0.76843 0.0
C2366 C 0.29528 0.21795 0.81908 0.0
C2367 C 0.2953 0.20895 0.83188 0.0
C2368 C 0.30637 0.2064 0.8327 0.0
C2369 C 0.31728 0.21284 0.82035 0.0
C2370 C 0.31717 0.22168 0.8075 0.0
H2371 H 0.29757 0.21547 0.75451 0.0
H2372 H 0.3108 0.21602 0.76894 0.0
H2373 H 0.29318 0.2088 0.77683 0.0
H2374 H 0.28678 0.21996 0.81877 0.0
H2375 H 0.28681 0.20416 0.8413 0.0
H2376 H 0.71858 0.06524 0.73578 0.0
H2377 H 0.7356 0.06984 0.75918 0.0
H2378 H 0.73822 0.03487 0.74234 0.0
H2379 H 0.72105 0.03014 0.71849 0.0
H2380 H 0.73388 0.05162 0.78714 0.0
H2381 H 0.77974 0.06852 0.74282 0.0
H2382 H 0.76387 0.06758 0.73512 0.0
H2383 H 0.76399 0.05196 0.7388 0.0
C2384 C 0.72271 0.05846 0.73696 0.0
C2385 C 0.71848 0.04735 0.72515 0.0
C2386 C 0.73243 0.0611 0.75042 0.0
C2387 C 0.73824 0.05277 0.75241 0.0
C2388 C 0.73395 0.04151 0.74088 0.0
H2389 H 0.80831 0.07999 0.82941 0.0
H2390 H 0.7899 0.06477 0.80812 0.0
C2391 C 0.72411 0.0388 0.72733 0.0
C2392 C 0.74891 0.0563 0.76653 0.0
H2393 H 0.78442 0.07279 0.77324 0.0
C2394 C 0.7449 0.05597 0.78415 0.0
C2395 C 0.76327 0.06192 0.76259 0.0
C2396 C 0.76809 0.06262 0.74383 0.0
C2397 C 0.75495 0.06185 0.79782 0.0
C2398 C 0.76937 0.06837 0.7937 0.0
C2399 C 0.77334 0.06783 0.77629 0.0
C2400 C 0.78041 0.07726 0.80676 0.0
C2401 C 0.7501 0.06154 0.81647 0.0
C2402 C 0.78127 0.08939 0.81276 0.0
C2403 C 0.79182 0.09817 0.82466 0.0
C2404 C 0.80175 0.09499 0.83092 0.0
C2405 C 0.8009 0.08282 0.82479 0.0
C2406 C 0.79035 0.07406 0.81272 0.0
H2407 H 0.73907 0.05291 0.81833 0.0
H2408 H 0.75696 0.06041 0.82625 0.0
H2409 H 0.75059 0.07141 0.81925 0.0
H2410 H 0.77388 0.0922 0.80799 0.0
H2411 H 0.79233 0.10761 0.82868 0.0
H2412 H 0.03118 0.35819 0.04914 0.0
H2413 H 0.04787 0.35308 0.0631 0.0
H2414 H 0.04554 0.32925 0.01739 0.0
H2415 H 0.0288 0.33428 0.00326 0.0
H2416 H 0.04098 0.32471 0.06965 0.0
H2417 H 0.08864 0.35512 0.02841 0.0
H2418 H 0.07492 0.3591 0.02948 0.0
H2419 H 0.07223 0.34451 0.0168 0.0
C2420 C 0.03436 0.35203 0.0419 0.0
C2421 C 0.02861 0.34661 0.02508 0.0
C2422 C 0.04388 0.34911 0.04993 0.0
C2423 C 0.04797 0.34085 0.04123 0.0
C2424 C 0.04263 0.33578 0.02422 0.0
H2425 H 0.10184 0.30978 0.07404 0.0
H2426 H 0.0864 0.31534 0.0575 0.0
C2427 C 0.03304 0.33864 0.0162 0.0
C2428 C 0.05701 0.33674 0.05054 0.0
H2429 H 0.08948 0.34058 0.05032 0.0
C2430 C 0.0516 0.32819 0.06547 0.0
C2431 C 0.07076 0.34119 0.0449 0.0
C2432 C 0.07709 0.35056 0.02909 0.0
C2433 C 0.05958 0.32389 0.07491 0.0
C2434 C 0.07349 0.3286 0.06955 0.0
C2435 C 0.07883 0.33702 0.05445 0.0
C2436 C 0.08274 0.3251 0.07963 0.0
C2437 C 0.05292 0.31415 0.09035 0.0
C2438 C 0.08592 0.32885 0.09752 0.0
C2439 C 0.09457 0.32553 0.10707 0.0
C2440 C 0.10042 0.31855 0.09887 0.0
C2441 C 0.09735 0.31496 0.08086 0.0
C2442 C 0.08862 0.31823 0.07134 0.0
H2443 H 0.04126 0.30831 0.08936 0.0
H2444 H 0.05644 0.3066 0.09119 0.0
H2445 H 0.05601 0.32023 0.10282 0.0
H2446 H 0.08174 0.33441 0.10412 0.0
H2447 H 0.09659 0.32835 0.12094 0.0
H2448 H 0.64906 0.6779 0.04775 0.0
H2449 H 0.65327 0.69921 0.06177 0.0
H2450 H 0.67794 0.72294 0.01706 0.0
H2451 H 0.67393 0.70171 0.00301 0.0
H2452 H 0.69105 0.73392 0.04955 0.0
H2453 H 0.6363 0.72274 0.04885 0.0
H2454 H 0.63823 0.70933 0.05872 0.0
H2455 H 0.64175 0.71315 0.03557 0.0
C2456 C 0.65528 0.68763 0.04081 0.0
C2457 C 0.66113 0.68809 0.02423 0.0
C2458 C 0.65762 0.6998 0.04882 0.0
C2459 C 0.66578 0.71263 0.04036 0.0
C2460 C 0.67157 0.71312 0.02378 0.0
H2461 H 0.67385 0.79053 0.07072 0.0
H2462 H 0.66942 0.76966 0.0552 0.0
C2463 C 0.66924 0.70097 0.01575 0.0
C2464 C 0.66873 0.72561 0.0491 0.0
H2465 H 0.65301 0.74214 0.06591 0.0
C2466 C 0.68275 0.73575 0.05307 0.0
C2467 C 0.65789 0.72803 0.0535 0.0
C2468 C 0.6427 0.71781 0.04881 0.0
C2469 C 0.68621 0.74816 0.06161 0.0
C2470 C 0.67532 0.75038 0.06652 0.0
C2471 C 0.66133 0.74035 0.06227 0.0
C2472 C 0.67824 0.76311 0.07593 0.0
C2473 C 0.70149 0.75887 0.06505 0.0
C2474 C 0.68457 0.76629 0.0928 0.0
C2475 C 0.68708 0.77819 0.10173 0.0
C2476 C 0.6832 0.78709 0.09401 0.0
C2477 C 0.67682 0.78383 0.07713 0.0
C2478 C 0.67433 0.77194 0.06821 0.0
H2479 H 0.70854 0.7572 0.05653 0.0
H2480 H 0.70362 0.7695 0.06274 0.0
H2481 H 0.70413 0.75815 0.07907 0.0
H2482 H 0.68739 0.75946 0.09917 0.0
H2483 H 0.69179 0.78028 0.11484 0.0
H2484 H 0.31353 0.99102 0.03392 0.0
H2485 H 0.28983 0.98102 0.04595 0.0
H2486 H 0.28339 0.94009 0.04163 0.0
H2487 H 0.30695 0.9499 0.02964 0.0
H2488 H 0.2597 0.94309 0.03025 0.0
H2489 H 0.2813 0.96425 0.09743 0.0
H2490 H 0.28752 0.9761 0.07903 0.0
H2491 H 0.29185 0.96291 0.08052 0.0
C2492 C 0.30701 0.97988 0.03533 0.0
C2493 C 0.31219 0.97126 0.03099 0.0
C2494 C 0.2935 0.9742 0.04224 0.0
C2495 C 0.28497 0.95985 0.04483 0.0
C2496 C 0.28985 0.9512 0.03975 0.0
H2497 H 0.22013 0.90124 0.10861 0.0
H2498 H 0.2415 0.91791 0.09301 0.0
C2499 C 0.30334 0.95684 0.03295 0.0
C2500 C 0.27128 0.95374 0.05381 0.0
H2501 H 0.2569 0.94909 0.09482 0.0
C2502 C 0.259 0.94459 0.04429 0.0
C2503 C 0.2705 0.95568 0.07215 0.0
C2504 C 0.28346 0.9652 0.083 0.0
C2505 C 0.246 0.93692 0.0528 0.0
C2506 C 0.24533 0.93849 0.07125 0.0
C2507 C 0.2575 0.94802 0.08064 0.0
C2508 C 0.23251 0.9291 0.08132 0.0
C2509 C 0.2332 0.92662 0.04227 0.0
C2510 C 0.22048 0.93007 0.08011 0.0
C2511 C 0.20823 0.92055 0.08906 0.0
C2512 C 0.20786 0.9099 0.0992 0.0
C2513 C 0.22006 0.90922 0.10069 0.0
C2514 C 0.23229 0.91876 0.09189 0.0
H2515 H 0.23574 0.92586 0.02829 0.0
H2516 H 0.22832 0.9162 0.04843 0.0
H2517 H 0.2253 0.92979 0.04235 0.0
H2518 H 0.22053 0.93805 0.07207 0.0
H2519 H 0.19895 0.92127 0.08765 0.0
H2520 H 0.36549 0.04426 0.9942 0.0
H2521 H 0.36248 0.06229 0.98078 0.0
H2522 H 0.32611 0.04963 0.01314 0.0
H2523 H 0.32924 0.03183 0.02694 0.0
H2524 H 0.34029 0.05829 0.96134 0.0
H2525 H 0.3468 0.09106 0.01931 0.0
H2526 H 0.35177 0.07821 0.01991 0.0
H2527 H 0.33368 0.07315 0.02261 0.0
C2528 C 0.35699 0.04546 0.99868 0.0
C2529 C 0.34762 0.03662 0.01167 0.0
C2530 C 0.35527 0.05576 0.99097 0.0
C2531 C 0.34417 0.05744 0.99609 0.0
C2532 C 0.33495 0.04877 0.00927 0.0
H2533 H 0.30666 0.10228 0.95354 0.0
H2534 H 0.31196 0.08656 0.9695 0.0
C2535 C 0.33672 0.03854 0.01709 0.0
C2536 C 0.34165 0.06754 0.98674 0.0
H2537 H 0.33698 0.09479 0.99311 0.0
C2538 C 0.33971 0.06636 0.96828 0.0
C2539 C 0.34083 0.07803 0.99581 0.0
C2540 C 0.34351 0.0803 0.01548 0.0
C2541 C 0.33672 0.0752 0.9587 0.0
C2542 C 0.33573 0.08554 0.9678 0.0
C2543 C 0.3377 0.08679 0.98622 0.0
C2544 C 0.33265 0.09517 0.95833 0.0
C2545 C 0.33435 0.07326 0.93895 0.0
C2546 C 0.3426 0.10525 0.94692 0.0
C2547 C 0.33962 0.11423 0.93782 0.0
C2548 C 0.32662 0.11325 0.93995 0.0
C2549 C 0.3167 0.10318 0.95149 0.0
C2550 C 0.31974 0.09426 0.96068 0.0
H2551 H 0.33295 0.06327 0.93442 0.0
H2552 H 0.32495 0.07365 0.93492 0.0
H2553 H 0.34358 0.08181 0.93207 0.0
H2554 H 0.35267 0.10616 0.94505 0.0
H2555 H 0.34742 0.12181 0.92892 0.0
H2556 H 0.94062 0.30572 0.00769 0.0
H2557 H 0.93078 0.28255 0.99529 0.0
H2558 H 0.97245 0.28935 0.99074 0.0
H2559 H 0.98245 0.31259 0.00339 0.0
H2560 H 0.93718 0.27802 0.9614 0.0
H2561 H 0.94964 0.2501 0.01217 0.0
H2562 H 0.94997 0.26591 0.01699 0.0
H2563 H 0.96416 0.26656 0.00513 0.0
C2564 C 0.94771 0.30224 0.00435 0.0
C2565 C 0.96234 0.31105 0.00646 0.0
C2566 C 0.94206 0.28899 0.99724 0.0
C2567 C 0.95087 0.28422 0.99215 0.0
C2568 C 0.96544 0.29275 0.99483 0.0
H2569 H 0.9211 0.21637 0.91565 0.0
H2570 H 0.93602 0.23828 0.93137 0.0
C2571 C 0.97114 0.30605 0.00201 0.0
C2572 C 0.94479 0.27083 0.98265 0.0
H2573 H 0.93918 0.23814 0.98539 0.0
C2574 C 0.93767 0.26931 0.9666 0.0
C2575 C 0.94542 0.2595 0.98953 0.0
C2576 C 0.95261 0.26048 0.00697 0.0
C2577 C 0.93095 0.25672 0.95734 0.0
C2578 C 0.93159 0.24538 0.96415 0.0
C2579 C 0.93884 0.24691 0.98013 0.0
C2580 C 0.9239 0.23162 0.95546 0.0
C2581 C 0.92279 0.25551 0.94065 0.0
C2582 C 0.91255 0.22044 0.96408 0.0
C2583 C 0.9041 0.20789 0.95521 0.0
C2584 C 0.90686 0.20627 0.93754 0.0
C2585 C 0.91871 0.21726 0.92926 0.0
C2586 C 0.92717 0.22982 0.93817 0.0
H2587 H 0.92089 0.26419 0.93929 0.0
H2588 H 0.92884 0.25569 0.92899 0.0
H2589 H 0.91249 0.24559 0.94042 0.0
H2590 H 0.9099 0.2216 0.97746 0.0
H2591 H 0.89521 0.19954 0.96207 0.0
H2592 H 0.696 0.67755 0.00246 0.0
H2593 H 0.72093 0.6917 0.99451 0.0
H2594 H 0.72241 0.65459 0.98815 0.0
H2595 H 0.69772 0.64046 0.9961 0.0
H2596 H 0.74607 0.67718 0.00735 0.0
H2597 H 0.73425 0.69301 0.94254 0.0
H2598 H 0.72734 0.69591 0.96238 0.0
H2599 H 0.72081 0.67854 0.95493 0.0
C2600 C 0.70169 0.67243 0.99953 0.0
C2601 C 0.69484 0.65787 0.99977 0.0
C2602 C 0.71589 0.68052 0.99494 0.0
C2603 C 0.72343 0.67416 0.9906 0.0
C2604 C 0.71675 0.65969 0.99145 0.0
H2605 H 0.7915 0.67599 0.94557 0.0
H2606 H 0.77198 0.67319 0.96318 0.0
C2607 C 0.70261 0.65162 0.99593 0.0
C2608 C 0.73809 0.68225 0.98431 0.0
H2609 H 0.7571 0.69761 0.94712 0.0
C2610 C 0.74858 0.68193 0.99434 0.0
C2611 C 0.74135 0.68852 0.96739 0.0
C2612 C 0.73039 0.68903 0.95606 0.0
C2613 C 0.76204 0.68698 0.98746 0.0
C2614 C 0.76495 0.69223 0.97 0.0
C2615 C 0.7548 0.69352 0.96048 0.0
C2616 C 0.77754 0.69454 0.96052 0.0
C2617 C 0.77286 0.68618 0.99871 0.0
C2618 C 0.78705 0.70744 0.95295 0.0
C2619 C 0.79822 0.70905 0.94273 0.0
C2620 C 0.79987 0.69771 0.93972 0.0
C2621 C 0.79042 0.68488 0.94753 0.0
C2622 C 0.77936 0.68331 0.95778 0.0
H2623 H 0.77093 0.68657 0.01304 0.0
H2624 H 0.77218 0.6762 0.99611 0.0
H2625 H 0.78367 0.69476 0.99561 0.0
H2626 H 0.78571 0.71618 0.95475 0.0
H2627 H 0.8053 0.71902 0.93676 0.0
H2628 H 0.96624 0.64101 0.98695 0.0
H2629 H 0.94915 0.64588 0.97351 0.0
H2630 H 0.96198 0.6797 0.01 0.0
H2631 H 0.97902 0.6749 0.02364 0.0
H2632 H 0.92638 0.64956 0.99255 0.0
H2633 H 0.96841 0.69513 0.9561 0.0
H2634 H 0.97058 0.68117 0.96372 0.0
H2635 H 0.97132 0.69349 0.97925 0.0
C2636 C 0.96532 0.64938 0.99227 0.0
C2637 C 0.97405 0.65761 0.00632 0.0
C2638 C 0.95555 0.65212 0.98459 0.0
C2639 C 0.95443 0.6632 0.99071 0.0
C2640 C 0.96277 0.67114 0.00507 0.0
H2641 H 0.89557 0.68898 0.9612 0.0
H2642 H 0.9109 0.68305 0.97751 0.0
C2643 C 0.97247 0.66835 0.01286 0.0
C2644 C 0.94503 0.66687 0.98152 0.0
H2645 H 0.94526 0.6904 0.9528 0.0
C2646 C 0.93047 0.6585 0.9839 0.0
C2647 C 0.95046 0.67849 0.97017 0.0
C2648 C 0.96604 0.68761 0.96699 0.0
C2649 C 0.92115 0.66152 0.97524 0.0
C2650 C 0.9266 0.6732 0.96398 0.0
C2651 C 0.94116 0.6815 0.96152 0.0
C2652 C 0.91732 0.67676 0.95424 0.0
C2653 C 0.90555 0.65211 0.97791 0.0
C2654 C 0.91605 0.67537 0.93576 0.0
C2655 C 0.90734 0.67873 0.92644 0.0
C2656 C 0.89984 0.6837 0.93542 0.0
C2657 C 0.90128 0.68526 0.95392 0.0
C2658 C 0.90993 0.68178 0.96326 0.0
H2659 H 0.90293 0.64233 0.98471 0.0
H2660 H 0.90166 0.65754 0.98609 0.0
H2661 H 0.89988 0.64954 0.96499 0.0
H2662 H 0.92176 0.6716 0.92858 0.0
H2663 H 0.90657 0.67758 0.91217 0.0
H2664 H 0.32163 0.30246 0.02126 0.0
H2665 H 0.3188 0.28187 0.0068 0.0
H2666 H 0.35378 0.30775 0.97284 0.0
H2667 H 0.35646 0.32845 0.98695 0.0
H2668 H 0.33152 0.2879 0.95434 0.0
H2669 H 0.3418 0.26396 0.01215 0.0
H2670 H 0.32807 0.26742 0.01602 0.0
H2671 H 0.34575 0.2816 0.01241 0.0
C2672 C 0.32882 0.30379 0.01084 0.0
C2673 C 0.3393 0.31711 0.0053 0.0
C2674 C 0.32724 0.29199 0.00265 0.0
C2675 C 0.33623 0.29325 0.98893 0.0
C2676 C 0.34677 0.30653 0.98346 0.0
H2677 H 0.34269 0.23402 0.92281 0.0
H2678 H 0.34664 0.25488 0.93799 0.0
C2679 C 0.3483 0.31835 0.99155 0.0
C2680 C 0.3342 0.28074 0.97972 0.0
H2681 H 0.33194 0.24973 0.98646 0.0
C2682 C 0.33173 0.27961 0.96135 0.0
C2683 C 0.33446 0.26991 0.98888 0.0
C2684 C 0.3378 0.27082 0.00842 0.0
C2685 C 0.32926 0.26784 0.95196 0.0
C2686 C 0.32933 0.25697 0.96117 0.0
C2687 C 0.33183 0.25808 0.97949 0.0
C2688 C 0.3269 0.24437 0.95194 0.0
C2689 C 0.32634 0.26697 0.93231 0.0
C2690 C 0.31455 0.23157 0.95492 0.0
C2691 C 0.31226 0.21964 0.94626 0.0
C2692 C 0.32236 0.22031 0.93464 0.0
C2693 C 0.33476 0.23316 0.93179 0.0
C2694 C 0.33699 0.2451 0.94034 0.0
H2695 H 0.3242 0.27506 0.92775 0.0
H2696 H 0.33561 0.26837 0.92509 0.0
H2697 H 0.31721 0.25661 0.92874 0.0
H2698 H 0.30668 0.23082 0.96391 0.0
H2699 H 0.30268 0.20986 0.94887 0.0
H2700 H 0.68998 0.01222 0.99456 0.0
H2701 H 0.71388 0.02159 0.98353 0.0
H2702 H 0.72281 0.06315 0.99173 0.0
H2703 H 0.69905 0.05396 0.00269 0.0
H2704 H 0.72426 0.03922 0.95338 0.0
H2705 H 0.75784 0.06424 0.01252 0.0
H2706 H 0.73944 0.05093 0.014 0.0
H2707 H 0.74459 0.06858 0.00932 0.0
C2708 C 0.69712 0.02336 0.99433 0.0
C2709 C 0.6926 0.03236 0.99943 0.0
C2710 C 0.71076 0.02867 0.98802 0.0
C2711 C 0.72014 0.04304 0.98701 0.0
C2712 C 0.71581 0.05202 0.99271 0.0
H2713 H 0.78369 0.10028 0.9212 0.0
H2714 H 0.76237 0.08327 0.93661 0.0
C2715 C 0.70219 0.04674 0.99885 0.0
C2716 C 0.73392 0.04882 0.97832 0.0
H2717 H 0.76886 0.07259 0.98416 0.0
C2718 C 0.73406 0.04628 0.96018 0.0
C2719 C 0.74669 0.05793 0.98726 0.0
C2720 C 0.74719 0.06049 0.0069 0.0
C2721 C 0.74654 0.05336 0.95049 0.0
C2722 C 0.75911 0.06324 0.95917 0.0
C2723 C 0.75916 0.06507 0.97753 0.0
C2724 C 0.77188 0.07283 0.94913 0.0
C2725 C 0.7461 0.05062 0.9309 0.0
C2726 C 0.78428 0.0726 0.95117 0.0
C2727 C 0.79649 0.0823 0.9423 0.0
C2728 C 0.79649 0.0925 0.93158 0.0
C2729 C 0.784 0.09259 0.92949 0.0
C2730 C 0.77181 0.08284 0.93817 0.0
H2731 H 0.73681 0.0404 0.9272 0.0
H2732 H 0.74543 0.05876 0.9235 0.0
H2733 H 0.75579 0.05095 0.92671 0.0
H2734 H 0.78452 0.065 0.9597 0.0
H2735 H 0.80602 0.08208 0.9442 0.0
H2736 H 0.64268 0.9644 0.04071 0.0
H2737 H 0.6474 0.94773 0.05481 0.0
H2738 H 0.67348 0.9512 0.01094 0.0
H2739 H 0.669 0.96808 0.99684 0.0
H2740 H 0.64303 0.92233 0.04394 0.0
H2741 H 0.69989 0.96093 0.0537 0.0
H2742 H 0.68739 0.96581 0.04741 0.0
H2743 H 0.69386 0.95899 0.03115 0.0
C2744 C 0.64933 0.96155 0.03396 0.0
C2745 C 0.65557 0.96769 0.01771 0.0
C2746 C 0.65202 0.95201 0.04205 0.0
C2747 C 0.66101 0.94844 0.03409 0.0
C2748 C 0.66675 0.95405 0.0175 0.0
H2749 H 0.67206 0.88079 0.06781 0.0
H2750 H 0.66648 0.89603 0.05133 0.0
C2751 C 0.6641 0.96363 0.0094 0.0
C2752 C 0.66462 0.93911 0.04341 0.0
H2753 H 0.69207 0.93773 0.06155 0.0
C2754 C 0.65375 0.92567 0.04778 0.0
C2755 C 0.67859 0.94359 0.04864 0.0
C2756 C 0.69061 0.95815 0.04516 0.0
C2757 C 0.65649 0.91654 0.05711 0.0
C2758 C 0.6705 0.92091 0.06194 0.0
C2759 C 0.68136 0.93438 0.05769 0.0
C2760 C 0.6741 0.91175 0.07175 0.0
C2761 C 0.6443 0.90243 0.0621 0.0
C2762 C 0.68063 0.91573 0.08848 0.0
C2763 C 0.68389 0.90707 0.09789 0.0
C2764 C 0.68071 0.89428 0.09073 0.0
C2765 C 0.6744 0.89045 0.07383 0.0
C2766 C 0.67119 0.89914 0.0644 0.0
H2767 H 0.63414 0.90205 0.06151 0.0
H2768 H 0.64363 0.89459 0.05269 0.0
H2769 H 0.64576 0.89949 0.07564 0.0
H2770 H 0.68301 0.92545 0.09436 0.0
H2771 H 0.68863 0.91026 0.11094 0.0
H2772 H 0.06093 0.69582 0.0271 0.0
H2773 H 0.07073 0.71945 0.03769 0.0
H2774 H 0.03021 0.71535 0.03156 0.0
H2775 H 0.02015 0.69143 0.02124 0.0
H2776 H 0.07253 0.74264 0.02294 0.0
H2777 H 0.03966 0.72615 0.08356 0.0
H2778 H 0.04092 0.71397 0.06955 0.0
H2779 H 0.03032 0.72092 0.06277 0.0
C2780 C 0.05407 0.69993 0.02785 0.0
C2781 C 0.0397 0.69166 0.02349 0.0
C2782 C 0.05972 0.71347 0.03389 0.0
C2783 C 0.05115 0.71908 0.03572 0.0
C2784 C 0.03694 0.71111 0.03061 0.0
H2785 H 0.08255 0.80103 0.08538 0.0
H2786 H 0.06731 0.77989 0.06819 0.0
C2787 C 0.03124 0.69749 0.0246 0.0
C2788 C 0.05721 0.73307 0.04361 0.0
H2789 H 0.05681 0.74979 0.08098 0.0
C2790 C 0.06895 0.74425 0.0355 0.0
C2791 C 0.05253 0.73514 0.06001 0.0
C2792 C 0.04024 0.72343 0.06961 0.0
C2793 C 0.07648 0.75729 0.04369 0.0
C2794 C 0.07217 0.75916 0.06041 0.0
C2795 C 0.06002 0.74825 0.06812 0.0
C2796 C 0.08108 0.77185 0.07093 0.0
C2797 C 0.08927 0.76888 0.03472 0.0
C2798 C 0.09366 0.7741 0.07839 0.0
C2799 C 0.10225 0.78599 0.08839 0.0
C2800 C 0.09849 0.79595 0.09104 0.0
C2801 C 0.08572 0.79354 0.08372 0.0
C2802 C 0.07705 0.78153 0.07381 0.0
H2803 H 0.08944 0.76677 0.0204 0.0
H2804 H 0.08968 0.77885 0.03623 0.0
H2805 H 0.09887 0.77005 0.04106 0.0
H2806 H 0.09681 0.7666 0.07653 0.0
H2807 H 0.11181 0.7873 0.09416 0.0
H2808 H 0.30484 0.32741 0.03053 0.0
H2809 H 0.28009 0.31324 0.03931 0.0
H2810 H 0.27725 0.34985 0.04021 0.0
H2811 H 0.30174 0.36397 0.0315 0.0
H2812 H 0.26927 0.31714 0.07101 0.0
H2813 H 0.24165 0.32194 0.01281 0.0
H2814 H 0.25939 0.32539 0.01176 0.0
H2815 H 0.25616 0.33844 0.01981 0.0
C2816 C 0.29885 0.33238 0.03232 0.0
C2817 C 0.30526 0.34682 0.03036 0.0
C2818 C 0.28474 0.32428 0.03734 0.0
C2819 C 0.2768 0.33047 0.04014 0.0
C2820 C 0.2831 0.34481 0.03774 0.0
H2821 H 0.2105 0.32856 0.09064 0.0
H2822 H 0.23011 0.33154 0.07302 0.0
C2823 C 0.29715 0.35289 0.0329 0.0
C2824 C 0.26235 0.32244 0.0472 0.0
H2825 H 0.22967 0.31746 0.04088 0.0
C2826 C 0.26047 0.31682 0.06427 0.0
C2827 C 0.2509 0.32201 0.03832 0.0
C2828 C 0.25208 0.32714 0.01958 0.0
C2829 C 0.24777 0.31189 0.0733 0.0
C2830 C 0.23668 0.31245 0.06488 0.0
C2831 C 0.23823 0.31713 0.04734 0.0
C2832 C 0.22424 0.31007 0.0748 0.0
C2833 C 0.24665 0.30706 0.09219 0.0
C2834 C 0.21433 0.29694 0.08143 0.0
C2835 C 0.20309 0.29521 0.09163 0.0
C2836 C 0.20168 0.30661 0.09536 0.0
C2837 C 0.21145 0.31964 0.08827 0.0
C2838 C 0.22259 0.32134 0.07808 0.0
H2839 H 0.2568 0.30879 0.09744 0.0
H2840 H 0.24312 0.31255 0.10085 0.0
H2841 H 0.23871 0.29581 0.09294 0.0
H2842 H 0.21536 0.28809 0.07887 0.0
H2843 H 0.19573 0.28506 0.09694 0.0
H2844 H 0.69659 0.69507 0.37969 0.0
H2845 H 0.71421 0.69078 0.39257 0.0
H2846 H 0.70792 0.66331 0.34929 0.0
H2847 H 0.69049 0.66772 0.33614 0.0
H2848 H 0.70999 0.66596 0.40388 0.0
H2849 H 0.75051 0.68761 0.35164 0.0
H2850 H 0.73648 0.69113 0.35256 0.0
H2851 H 0.73328 0.67503 0.34351 0.0
C2852 C 0.69908 0.68825 0.37278 0.0
C2853 C 0.69215 0.68176 0.35686 0.0
C2854 C 0.70914 0.6858 0.38018 0.0
C2855 C 0.7125 0.67685 0.37179 0.0
C2856 C 0.70572 0.67048 0.3558 0.0
H2857 H 0.75031 0.635 0.4236 0.0
H2858 H 0.73461 0.64074 0.40811 0.0
C2859 C 0.6957 0.67297 0.34835 0.0
C2860 C 0.72248 0.67357 0.38033 0.0
H2861 H 0.75301 0.67402 0.37392 0.0
C2862 C 0.71943 0.66778 0.39736 0.0
C2863 C 0.73486 0.67608 0.37187 0.0
C2864 C 0.73908 0.68292 0.35395 0.0
C2865 C 0.72831 0.66425 0.40609 0.0
C2866 C 0.74043 0.6663 0.3974 0.0
C2867 C 0.74361 0.6723 0.38047 0.0
C2868 C 0.75012 0.66263 0.40587 0.0
C2869 C 0.72476 0.65858 0.42468 0.0
C2870 C 0.76419 0.67293 0.40915 0.0
C2871 C 0.77325 0.66965 0.41778 0.0
C2872 C 0.76841 0.65598 0.42326 0.0
C2873 C 0.7544 0.64561 0.41949 0.0
C2874 C 0.74536 0.6489 0.41082 0.0
H2875 H 0.71737 0.66102 0.43105 0.0
H2876 H 0.71965 0.64713 0.42424 0.0
H2877 H 0.73438 0.66281 0.43307 0.0
H2878 H 0.76812 0.68357 0.4053 0.0
H2879 H 0.78404 0.67785 0.42018 0.0
H2880 H 0.34365 0.03361 0.34363 0.0
H2881 H 0.34784 0.0548 0.35798 0.0
H2882 H 0.31208 0.03057 0.39156 0.0
H2883 H 0.30801 0.00929 0.3776 0.0
H2884 H 0.33173 0.06627 0.36093 0.0
H2885 H 0.34278 0.05311 0.42755 0.0
H2886 H 0.34171 0.04353 0.40796 0.0
H2887 H 0.32594 0.04022 0.41875 0.0
C2888 C 0.33664 0.03277 0.35404 0.0
C2889 C 0.32557 0.01974 0.35958 0.0
C2890 C 0.33906 0.0449 0.36223 0.0
C2891 C 0.33047 0.04425 0.37611 0.0
C2892 C 0.31909 0.0313 0.38122 0.0
H2893 H 0.32619 0.10523 0.4402 0.0
H2894 H 0.32192 0.08426 0.425 0.0
C2895 C 0.31671 0.01915 0.37312 0.0
C2896 C 0.33343 0.05714 0.38519 0.0
H2897 H 0.34045 0.07283 0.42572 0.0
C2898 C 0.33371 0.06774 0.37508 0.0
C2899 C 0.33609 0.05907 0.40366 0.0
C2900 C 0.33676 0.04844 0.4151 0.0
C2901 C 0.33629 0.08009 0.38299 0.0
C2902 C 0.33874 0.08189 0.40145 0.0
C2903 C 0.33851 0.07135 0.41157 0.0
C2904 C 0.34142 0.09463 0.41056 0.0
C2905 C 0.33614 0.09102 0.37163 0.0
C2906 C 0.35389 0.10735 0.40761 0.0
C2907 C 0.35638 0.11934 0.41629 0.0
C2908 C 0.3464 0.1188 0.42803 0.0
C2909 C 0.33398 0.106 0.43105 0.0
C2910 C 0.33155 0.09401 0.42246 0.0
H2911 H 0.33155 0.087 0.35828 0.0
H2912 H 0.33005 0.09502 0.37809 0.0
H2913 H 0.34707 0.09985 0.36996 0.0
H2914 H 0.36171 0.10798 0.39861 0.0
H2915 H 0.36601 0.12906 0.41363 0.0
H2916 H 0.97815 0.28794 0.38702 0.0
H2917 H 0.95352 0.27788 0.39433 0.0
H2918 H 0.95375 0.31264 0.37019 0.0
H2919 H 0.97873 0.32307 0.36311 0.0
H2920 H 0.94006 0.30547 0.40191 0.0
H2921 H 0.92052 0.25873 0.3605 0.0
H2922 H 0.9342 0.26077 0.37521 0.0
H2923 H 0.93807 0.27362 0.35841 0.0
C2924 C 0.973 0.29347 0.38315 0.0
C2925 C 0.9804 0.30626 0.37432 0.0
C2926 C 0.95886 0.28764 0.38727 0.0
C2927 C 0.9517 0.29433 0.38242 0.0
C2928 C 0.95906 0.30724 0.37388 0.0
H2929 H 0.86123 0.24137 0.39849 0.0
H2930 H 0.88334 0.25815 0.38421 0.0
C2931 C 0.97331 0.31317 0.36984 0.0
C2932 C 0.93661 0.28783 0.38677 0.0
H2933 H 0.90556 0.25691 0.38452 0.0
C2934 C 0.93242 0.29494 0.39786 0.0
C2935 C 0.92655 0.27424 0.38112 0.0
C2936 C 0.93004 0.26647 0.36799 0.0
C2937 C 0.91866 0.28845 0.4044 0.0
C2938 C 0.90899 0.27438 0.4001 0.0
C2939 C 0.91297 0.26762 0.38808 0.0
C2940 C 0.89509 0.26607 0.40875 0.0
C2941 C 0.91471 0.29673 0.41593 0.0
C2942 C 0.89421 0.26513 0.42731 0.0
C2943 C 0.88152 0.25574 0.43546 0.0
C2944 C 0.86958 0.24688 0.42519 0.0
C2945 C 0.87032 0.24809 0.40667 0.0
C2946 C 0.88293 0.25766 0.39853 0.0
H2947 H 0.92082 0.3079 0.41235 0.0
H2948 H 0.90333 0.29297 0.41481 0.0
H2949 H 0.91724 0.29585 0.42994 0.0
H2950 H 0.90348 0.27113 0.43552 0.0
H2951 H 0.88126 0.25483 0.44976 0.0
H2952 H 0.02856 0.38757 0.36976 0.0
H2953 H 0.02583 0.40533 0.35473 0.0
H2954 H 0.01673 0.38282 0.30562 0.0
H2955 H 0.01945 0.36508 0.3204 0.0
H2956 H 0.04065 0.42159 0.32247 0.0
H2957 H 0.98265 0.38819 0.31433 0.0
H2958 H 0.99245 0.38453 0.33035 0.0
H2959 H 0.99262 0.38068 0.30736 0.0
C2960 C 0.02602 0.38641 0.35575 0.0
C2961 C 0.02415 0.37486 0.34631 0.0
C2962 C 0.02448 0.39657 0.3472 0.0
C2963 C 0.02092 0.39527 0.32914 0.0
C2964 C 0.01931 0.3839 0.31962 0.0
H2965 H 0.00083 0.43883 0.25166 0.0
H2966 H 0.00508 0.42271 0.26827 0.0
C2967 C 0.02092 0.3738 0.3281 0.0
C2968 C 0.01878 0.4057 0.32017 0.0
H2969 H 0.99379 0.40978 0.2995 0.0
C2970 C 0.0304 0.41909 0.31754 0.0
C2971 C 0.0054 0.40232 0.31373 0.0
C2972 C 0.99251 0.38819 0.31666 0.0
C2973 C 0.02908 0.42912 0.30815 0.0
C2974 C 0.01569 0.42572 0.30161 0.0
C2975 C 0.00404 0.41236 0.30448 0.0
C2976 C 0.0135 0.43576 0.29152 0.0
C2977 C 0.04209 0.44308 0.30482 0.0
C2978 C 0.01672 0.44841 0.29912 0.0
C2979 C 0.01434 0.45766 0.28963 0.0
C2980 C 0.00851 0.45434 0.27245 0.0
C2981 C 0.00521 0.44162 0.26493 0.0
C2982 C 0.00768 0.43243 0.27438 0.0
H2983 H 0.05182 0.44273 0.30638 0.0
H2984 H 0.04187 0.44689 0.29131 0.0
H2985 H 0.04261 0.45067 0.31454 0.0
H2986 H 0.02089 0.45105 0.31249 0.0
H2987 H 0.01679 0.46729 0.29587 0.0
H2988 H 0.64641 0.6487 0.33328 0.0
H2989 H 0.63664 0.62554 0.32037 0.0
H2990 H 0.59609 0.62149 0.31538 0.0
H2991 H 0.60572 0.64457 0.328 0.0
H2992 H 0.61375 0.59904 0.3301 0.0
H2993 H 0.60504 0.61577 0.26461 0.0
H2994 H 0.61595 0.62792 0.28164 0.0
H2995 H 0.59713 0.61969 0.28241 0.0
C2996 C 0.63538 0.64283 0.32957 0.0
C2997 C 0.62688 0.64855 0.33148 0.0
C2998 C 0.62984 0.62961 0.3222 0.0
C2999 C 0.61573 0.62196 0.3166 0.0
C3000 C 0.60709 0.62738 0.31926 0.0
H3001 H 0.55853 0.53679 0.29116 0.0
H3002 H 0.57375 0.5591 0.3056 0.0
C3003 C 0.61261 0.64056 0.32655 0.0
C3004 C 0.61002 0.60845 0.30753 0.0
H3005 H 0.59349 0.59137 0.26943 0.0
C3006 C 0.60945 0.59737 0.31676 0.0
C3007 C 0.6047 0.60637 0.29 0.0
C3008 C 0.60585 0.6181 0.279 0.0
C3009 C 0.60307 0.58407 0.3092 0.0
C3010 C 0.59691 0.58181 0.2921 0.0
C3011 C 0.59809 0.59306 0.2826 0.0
C3012 C 0.58855 0.5678 0.28407 0.0
C3013 C 0.60297 0.5726 0.3196 0.0
C3014 C 0.59169 0.56529 0.26706 0.0
C3015 C 0.58283 0.55262 0.2586 0.0
C3016 C 0.57062 0.54222 0.26698 0.0
C3017 C 0.56775 0.54462 0.28424 0.0
C3018 C 0.57657 0.55731 0.29264 0.0
H3019 H 0.61186 0.57679 0.32925 0.0
H3020 H 0.59306 0.56691 0.32718 0.0
H3021 H 0.60359 0.56513 0.31074 0.0
H3022 H 0.60081 0.57328 0.26013 0.0
H3023 H 0.58527 0.55119 0.24523 0.0
H3024 H 0.35997 0.96995 0.33683 0.0
H3025 H 0.38392 0.98276 0.32576 0.0
H3026 H 0.38102 0.01907 0.31874 0.0
H3027 H 0.35687 0.00626 0.33 0.0
H3028 H 0.38949 0.01028 0.28806 0.0
H3029 H 0.42124 0.0145 0.34722 0.0
H3030 H 0.40619 0.99738 0.34418 0.0
H3031 H 0.40372 0.01159 0.34866 0.0
C3032 C 0.36447 0.98072 0.3332 0.0
C3033 C 0.35651 0.98708 0.33423 0.0
C3034 C 0.3782 0.98806 0.327 0.0
C3035 C 0.38429 0.0019 0.32165 0.0
C3036 C 0.37653 0.00843 0.32299 0.0
H3037 H 0.46997 0.03783 0.27959 0.0
H3038 H 0.45027 0.03707 0.295 0.0
C3039 C 0.36277 0.00111 0.32943 0.0
C3040 C 0.39817 0.00883 0.31303 0.0
H3041 H 0.43146 0.01527 0.31884 0.0
C3042 C 0.39878 0.01172 0.29486 0.0
C3043 C 0.41031 0.01083 0.32196 0.0
C3044 C 0.4104 0.00855 0.34163 0.0
C3045 C 0.41091 0.01549 0.28512 0.0
C3046 C 0.42261 0.01629 0.29379 0.0
C3047 C 0.4224 0.0145 0.31219 0.0
C3048 C 0.43446 0.01737 0.28375 0.0
C3049 C 0.41091 0.01805 0.26551 0.0
C3050 C 0.43206 0.00651 0.27248 0.0
C3051 C 0.44323 0.00686 0.26382 0.0
C3052 C 0.45703 0.01811 0.26627 0.0
C3053 C 0.45942 0.02909 0.27738 0.0
C3054 C 0.44821 0.02866 0.2862 0.0
H3055 H 0.40317 0.02107 0.26193 0.0
H3056 H 0.42149 0.02631 0.26106 0.0
H3057 H 0.40797 0.00839 0.25823 0.0
H3058 H 0.42155 0.99759 0.27065 0.0
H3059 H 0.44107 0.99832 0.25522 0.0
H3060 H 0.64416 0.98209 0.3131 0.0
H3061 H 0.62634 0.98537 0.29886 0.0
H3062 H 0.60564 0.97908 0.34894 0.0
H3063 H 0.62365 0.97611 0.36343 0.0
H3064 H 0.59788 0.96828 0.29583 0.0
H3065 H 0.61096 0.01583 0.33318 0.0
H3066 H 0.62214 0.00868 0.33356 0.0
H3067 H 0.60659 0.00113 0.3469 0.0
C3068 C 0.63582 0.98139 0.32112 0.0
C3069 C 0.6354 0.97895 0.33945 0.0
C3070 C 0.62563 0.98326 0.31294 0.0
C3071 C 0.6148 0.98273 0.32288 0.0
C3072 C 0.6141 0.97988 0.34108 0.0
H3073 H 0.54571 0.99398 0.29176 0.0
H3074 H 0.56122 0.98816 0.30773 0.0
C3075 C 0.62435 0.97809 0.34932 0.0
C3076 C 0.60431 0.98518 0.31409 0.0
H3077 H 0.59122 0.0066 0.31391 0.0
C3078 C 0.59643 0.97666 0.29979 0.0
C3079 C 0.60243 0.99613 0.31925 0.0
C3080 C 0.61106 0.00606 0.33395 0.0
C3081 C 0.5867 0.97877 0.29055 0.0
C3082 C 0.58491 0.98977 0.29565 0.0
C3083 C 0.59262 0.99816 0.31009 0.0
C3084 C 0.57538 0.99298 0.28584 0.0
C3085 C 0.57834 0.96918 0.27547 0.0
C3086 C 0.5783 0.99773 0.26831 0.0
C3087 C 0.5695 0.00108 0.25917 0.0
C3088 C 0.55759 0.99973 0.26741 0.0
C3089 C 0.5547 0.99498 0.28499 0.0
C3090 C 0.56357 0.99171 0.29416 0.0
H3091 H 0.57852 0.95945 0.27584 0.0
H3092 H 0.56723 0.96651 0.27577 0.0
H3093 H 0.58291 0.97447 0.26272 0.0
H3094 H 0.58747 0.99895 0.26174 0.0
H3095 H 0.57194 0.00461 0.2456 0.0
H3096 H 0.99259 0.63825 0.35415 0.0
H3097 H 0.99142 0.61831 0.33977 0.0
H3098 H 0.02738 0.64584 0.30819 0.0
H3099 H 0.02866 0.66587 0.32246 0.0
H3100 H 0.98853 0.61325 0.30153 0.0
H3101 H 0.03679 0.61751 0.33029 0.0
H3102 H 0.02819 0.6256 0.34032 0.0
H3103 H 0.03878 0.63312 0.32103 0.0
C3104 C 0.00034 0.64009 0.34426 0.0
C3105 C 0.01073 0.65367 0.33947 0.0
C3106 C 0.99963 0.62868 0.33605 0.0
C3107 C 0.00938 0.63062 0.32305 0.0
C3108 C 0.01987 0.64413 0.31837 0.0
H3109 H 0.02159 0.57489 0.25744 0.0
H3110 H 0.02365 0.59495 0.27268 0.0
C3111 C 0.02054 0.65556 0.32649 0.0
C3112 C 0.0082 0.61851 0.31386 0.0
H3113 H 0.02486 0.60067 0.30792 0.0
C3114 C 0.99643 0.61044 0.30295 0.0
C3115 C 0.01859 0.61498 0.31567 0.0
C3116 C 0.03128 0.62317 0.32755 0.0
C3117 C 0.99485 0.59901 0.29358 0.0
C3118 C 0.00516 0.59535 0.29555 0.0
C3119 C 0.01696 0.60346 0.30644 0.0
C3120 C 0.00389 0.58313 0.28643 0.0
C3121 C 0.98234 0.5912 0.2813 0.0
C3122 C 0.99221 0.5698 0.2893 0.0
C3123 C 0.99099 0.55834 0.28056 0.0
C3124 C 0.00153 0.55996 0.26897 0.0
C3125 C 0.01335 0.57329 0.26638 0.0
C3126 C 0.01452 0.58476 0.27504 0.0
H3127 H 0.97784 0.59759 0.27739 0.0
H3128 H 0.98523 0.58781 0.26913 0.0
H3129 H 0.97402 0.58185 0.28818 0.0
H3130 H 0.98407 0.56823 0.2984 0.0
H3131 H 0.98188 0.54817 0.28307 0.0
H3132 H 0.35435 0.34597 0.32586 0.0
H3133 H 0.37828 0.35514 0.31488 0.0
H3134 H 0.38653 0.39677 0.3192 0.0
H3135 H 0.36276 0.38777 0.32997 0.0
H3136 H 0.38862 0.37232 0.28315 0.0
H3137 H 0.42161 0.39852 0.34237 0.0
H3138 H 0.40336 0.38481 0.34378 0.0
H3139 H 0.40794 0.40221 0.33861 0.0
C3140 C 0.36136 0.35708 0.32474 0.0
C3141 C 0.35667 0.36616 0.32871 0.0
C3142 C 0.37499 0.36229 0.31847 0.0
C3143 C 0.38418 0.37662 0.31644 0.0
C3144 C 0.37966 0.38568 0.32095 0.0
H3145 H 0.44721 0.43428 0.2515 0.0
H3146 H 0.42601 0.41676 0.26668 0.0
C3147 C 0.36604 0.38051 0.32699 0.0
C3148 C 0.39802 0.38225 0.30803 0.0
H3149 H 0.43278 0.40656 0.31406 0.0
C3150 C 0.39834 0.37954 0.28999 0.0
C3151 C 0.41067 0.39159 0.31702 0.0
C3152 C 0.41095 0.39438 0.33657 0.0
C3153 C 0.41086 0.38675 0.2804 0.0
C3154 C 0.42329 0.39688 0.2891 0.0
C3155 C 0.42319 0.39883 0.30741 0.0
C3156 C 0.43597 0.40671 0.2791 0.0
C3157 C 0.41062 0.38393 0.26086 0.0
C3158 C 0.44856 0.40685 0.28115 0.0
C3159 C 0.4607 0.41684 0.2724 0.0
C3160 C 0.46041 0.42695 0.2618 0.0
C3161 C 0.44773 0.42666 0.2597 0.0
C3162 C 0.43561 0.41662 0.26824 0.0
H3163 H 0.40147 0.37361 0.25717 0.0
H3164 H 0.40982 0.39193 0.25329 0.0
H3165 H 0.42044 0.38443 0.25688 0.0
H3166 H 0.44902 0.39933 0.28962 0.0
H3167 H 0.47038 0.41691 0.2743 0.0
H3168 H 0.31034 0.30239 0.37962 0.0
H3169 H 0.31453 0.28531 0.39364 0.0
H3170 H 0.33247 0.28153 0.34529 0.0
H3171 H 0.32827 0.29857 0.33107 0.0
H3172 H 0.31319 0.25564 0.36255 0.0
H3173 H 0.35457 0.29423 0.40798 0.0
H3174 H 0.33818 0.29372 0.40825 0.0
H3175 H 0.34862 0.29918 0.38856 0.0
C3176 C 0.31509 0.29786 0.3719 0.0
C3177 C 0.31906 0.30192 0.35425 0.0
C3178 C 0.31754 0.28816 0.37997 0.0
C3179 C 0.32401 0.28234 0.37057 0.0
C3180 C 0.32753 0.28597 0.35278 0.0
H3181 H 0.36316 0.23909 0.41399 0.0
H3182 H 0.35793 0.25485 0.39818 0.0
C3183 C 0.32513 0.29572 0.3447 0.0
C3184 C 0.32735 0.27267 0.37942 0.0
H3185 H 0.34725 0.27067 0.41264 0.0
C3186 C 0.32064 0.2589 0.37348 0.0
C3187 C 0.33723 0.27704 0.39351 0.0
C3188 C 0.34518 0.29187 0.3999 0.0
C3189 C 0.32336 0.24929 0.38153 0.0
C3190 C 0.33293 0.25357 0.39595 0.0
C3191 C 0.33983 0.26741 0.40166 0.0
C3192 C 0.33597 0.24387 0.40532 0.0
C3193 C 0.3161 0.23468 0.37441 0.0
C3194 C 0.32538 0.23257 0.41473 0.0
C3195 C 0.32835 0.22362 0.4239 0.0
C3196 C 0.342 0.2258 0.42388 0.0
C3197 C 0.35259 0.23718 0.41446 0.0
C3198 C 0.3496 0.24615 0.40533 0.0
H3199 H 0.31174 0.23394 0.36088 0.0
H3200 H 0.32346 0.23085 0.37405 0.0
H3201 H 0.30727 0.22776 0.38322 0.0
H3202 H 0.31486 0.2308 0.41518 0.0
H3203 H 0.32002 0.21512 0.43128 0.0
H3204 H 0.68786 0.02256 0.35437 0.0
H3205 H 0.69819 0.04713 0.36187 0.0
H3206 H 0.73326 0.04751 0.38721 0.0
H3207 H 0.72332 0.02328 0.3794 0.0
H3208 H 0.70425 0.05994 0.3935 0.0
H3209 H 0.75338 0.0809 0.35588 0.0
H3210 H 0.7387 0.06346 0.35267 0.0
H3211 H 0.75117 0.06736 0.37042 0.0
C3212 C 0.69784 0.02794 0.36139 0.0
C3213 C 0.70483 0.02099 0.36613 0.0
C3214 C 0.70372 0.04196 0.36568 0.0
C3215 C 0.71666 0.04925 0.37475 0.0
C3216 C 0.7235 0.04224 0.37972 0.0
H3217 H 0.75193 0.11837 0.44474 0.0
H3218 H 0.73725 0.09621 0.42963 0.0
C3219 C 0.71773 0.02833 0.37533 0.0
C3220 C 0.72288 0.06401 0.37979 0.0
H3221 H 0.75388 0.09509 0.38001 0.0
C3222 C 0.71503 0.0677 0.39031 0.0
C3223 C 0.73682 0.07424 0.37529 0.0
C3224 C 0.74543 0.07131 0.36277 0.0
C3225 C 0.72103 0.08114 0.39731 0.0
C3226 C 0.73538 0.09101 0.39412 0.0
C3227 C 0.74294 0.08751 0.38274 0.0
C3228 C 0.74306 0.1047 0.40317 0.0
C3229 C 0.71191 0.08456 0.40808 0.0
C3230 C 0.75144 0.11687 0.39342 0.0
C3231 C 0.76008 0.1295 0.40207 0.0
C3232 C 0.7604 0.13021 0.42065 0.0
C3233 C 0.75169 0.11814 0.43039 0.0
C3234 C 0.74323 0.10548 0.42175 0.0
H3235 H 0.70073 0.07824 0.40377 0.0
H3236 H 0.71246 0.08211 0.4222 0.0
H3237 H 0.71538 0.0957 0.407 0.0
H3238 H 0.75155 0.11654 0.37909 0.0
H3239 H 0.76669 0.13868 0.39427 0.0
H3240 H 0.97466 0.66354 0.36454 0.0
H3241 H 0.94973 0.64959 0.37267 0.0
H3242 H 0.94726 0.6864 0.37222 0.0
H3243 H 0.9719 0.7003 0.36412 0.0
H3244 H 0.93834 0.65363 0.40363 0.0
H3245 H 0.91212 0.6587 0.34411 0.0
H3246 H 0.92984 0.66204 0.34378 0.0
H3247 H 0.92655 0.67517 0.35133 0.0
C3248 C 0.96871 0.6686 0.36589 0.0
C3249 C 0.97526 0.68304 0.36372 0.0
C3250 C 0.9545 0.66062 0.37055 0.0
C3251 C 0.94661 0.66694 0.37277 0.0
C3252 C 0.95306 0.68127 0.37019 0.0
H3253 H 0.87967 0.66573 0.42063 0.0
H3254 H 0.89971 0.66864 0.40405 0.0
C3255 C 0.96721 0.68922 0.3657 0.0
C3256 C 0.93201 0.65904 0.37939 0.0
H3257 H 0.89962 0.65446 0.37176 0.0
C3258 C 0.92973 0.65342 0.39651 0.0
C3259 C 0.92081 0.65875 0.37002 0.0
C3260 C 0.92241 0.66386 0.35121 0.0
C3261 C 0.91687 0.64862 0.40507 0.0
C3262 C 0.90604 0.64933 0.39616 0.0
C3263 C 0.90799 0.65402 0.3786 0.0
C3264 C 0.89343 0.64704 0.40556 0.0
C3265 C 0.91529 0.64374 0.424 0.0
C3266 C 0.88317 0.63388 0.41172 0.0
C3267 C 0.87168 0.63219 0.4213 0.0
C3268 C 0.87036 0.64366 0.4249 0.0
C3269 C 0.88052 0.65674 0.41835 0.0
C3270 C 0.89191 0.6584 0.40875 0.0
H3271 H 0.92524 0.64523 0.42962 0.0
H3272 H 0.91179 0.64941 0.4324 0.0
H3273 H 0.90713 0.63255 0.42466 0.0
H3274 H 0.8841 0.62497 0.40923 0.0
H3275 H 0.86402 0.62199 0.42621 0.0
H3276 H 0.36331 0.03031 0.71485 0.0
H3277 H 0.38152 0.02743 0.72881 0.0
H3278 H 0.38409 0.00766 0.68155 0.0
H3279 H 0.36593 0.01056 0.6674 0.0
H3280 H 0.37943 0.00161 0.73454 0.0
H3281 H 0.42556 0.03678 0.69329 0.0
H3282 H 0.40992 0.03778 0.69385 0.0
H3283 H 0.41005 0.02444 0.6812 0.0
C3284 C 0.36786 0.0255 0.70732 0.0
C3285 C 0.36316 0.02067 0.68999 0.0
C3286 C 0.37825 0.02385 0.71534 0.0
C3287 C 0.38424 0.01745 0.70616 0.0
C3288 C 0.37977 0.01283 0.68876 0.0
H3289 H 0.44481 0.99404 0.73575 0.0
H3290 H 0.42778 0.99795 0.72018 0.0
C3291 C 0.36934 0.01444 0.68073 0.0
C3292 C 0.39456 0.01491 0.71519 0.0
H3293 H 0.42851 0.0226 0.7139 0.0
C3294 C 0.39018 0.00623 0.73009 0.0
C3295 C 0.40853 0.02088 0.70924 0.0
C3296 C 0.41389 0.03059 0.6936 0.0
C3297 C 0.39936 0.00324 0.73912 0.0
C3298 C 0.41339 0.00934 0.73331 0.0
C3299 C 0.41775 0.01795 0.71833 0.0
C3300 C 0.42374 0.00703 0.74275 0.0
C3301 C 0.39385 0.99335 0.75457 0.0
C3302 C 0.42723 0.011 0.76053 0.0
C3303 C 0.43684 0.00866 0.7695 0.0
C3304 C 0.44327 0.00244 0.76082 0.0
C3305 C 0.4399 0.99867 0.74291 0.0
C3306 C 0.43025 0.00098 0.73395 0.0
H3307 H 0.3822 0.98669 0.75418 0.0
H3308 H 0.39833 0.98658 0.7548 0.0
H3309 H 0.3969 0.99938 0.76709 0.0
H3310 H 0.42253 0.01591 0.76749 0.0
H3311 H 0.43908 0.01158 0.78333 0.0
H3312 H 0.99775 0.36261 0.66456 0.0
H3313 H 0.99984 0.38301 0.67893 0.0
H3314 H 0.981 0.35905 0.72608 0.0
H3315 H 0.97886 0.33863 0.71191 0.0
H3316 H 0.97804 0.3863 0.69465 0.0
H3317 H 0.01911 0.39314 0.74305 0.0
H3318 H 0.01498 0.38274 0.72328 0.0
H3319 H 0.00371 0.37602 0.74216 0.0
C3320 C 0.994 0.36166 0.67796 0.0
C3321 C 0.98821 0.349 0.68711 0.0
C3322 C 0.9952 0.37332 0.68614 0.0
C3323 C 0.99075 0.37257 0.70363 0.0
C3324 C 0.98469 0.35989 0.71266 0.0
H3325 H 0.97587 0.42845 0.76411 0.0
H3326 H 0.97398 0.40903 0.74752 0.0
C3327 C 0.98342 0.34822 0.70449 0.0
C3328 C 0.9925 0.38504 0.71253 0.0
H3329 H 0.00923 0.4071 0.74721 0.0
C3330 C 0.98489 0.3909 0.7061 0.0
C3331 C 0.00157 0.39108 0.72733 0.0
C3332 C 0.01042 0.38553 0.73432 0.0
C3333 C 0.98586 0.40248 0.71438 0.0
C3334 C 0.99459 0.40825 0.72952 0.0
C3335 C 0.00246 0.40258 0.73568 0.0
C3336 C 0.99568 0.42014 0.73923 0.0
C3337 C 0.97764 0.40853 0.70678 0.0
C3338 C 0.00856 0.43276 0.74031 0.0
C3339 C 0.00968 0.44392 0.74972 0.0
C3340 C 0.99793 0.44264 0.75837 0.0
C3341 C 0.98506 0.42991 0.75735 0.0
C3342 C 0.98395 0.41877 0.74789 0.0
H3343 H 0.97414 0.40505 0.69294 0.0
H3344 H 0.96815 0.40512 0.71491 0.0
H3345 H 0.98401 0.42003 0.70705 0.0
H3346 H 0.01775 0.434 0.73376 0.0
H3347 H 0.01971 0.45361 0.75003 0.0
H3348 H 0.646 0.61695 0.7057 0.0
H3349 H 0.62253 0.60639 0.71807 0.0
H3350 H 0.62532 0.64589 0.71652 0.0
H3351 H 0.64888 0.65659 0.7038 0.0
H3352 H 0.61632 0.61387 0.75003 0.0
H3353 H 0.58642 0.6192 0.69429 0.0
H3354 H 0.60339 0.62108 0.69136 0.0
H3355 H 0.60218 0.63483 0.70123 0.0
C3356 C 0.64161 0.6234 0.70779 0.0
C3357 C 0.64935 0.63763 0.7038 0.0
C3358 C 0.62818 0.61734 0.71488 0.0
C3359 C 0.62216 0.62534 0.71813 0.0
C3360 C 0.62969 0.63949 0.71385 0.0
H3361 H 0.54965 0.59069 0.78906 0.0
H3362 H 0.57196 0.60726 0.77507 0.0
C3363 C 0.64317 0.64559 0.70666 0.0
C3364 C 0.60834 0.61883 0.72692 0.0
H3365 H 0.57398 0.60905 0.72061 0.0
C3366 C 0.60707 0.6129 0.74368 0.0
C3367 C 0.59632 0.61756 0.71853 0.0
C3368 C 0.59703 0.6234 0.7003 0.0
C3369 C 0.59404 0.60538 0.75209 0.0
C3370 C 0.58198 0.60403 0.74367 0.0
C3371 C 0.58328 0.61023 0.72708 0.0
C3372 C 0.56779 0.59514 0.75121 0.0
C3373 C 0.59321 0.59843 0.76954 0.0
C3374 C 0.55779 0.5832 0.74206 0.0
C3375 C 0.54498 0.57382 0.74989 0.0
C3376 C 0.54191 0.5762 0.76706 0.0
C3377 C 0.55166 0.58856 0.77582 0.0
C3378 C 0.56447 0.59797 0.76792 0.0
H3379 H 0.60282 0.59804 0.77229 0.0
H3380 H 0.59205 0.60432 0.7804 0.0
H3381 H 0.58397 0.58768 0.76973 0.0
H3382 H 0.56011 0.58087 0.72909 0.0
H3383 H 0.53758 0.56455 0.74263 0.0
H3384 H 0.69432 0.70595 0.65504 0.0
H3385 H 0.68995 0.7233 0.64235 0.0
H3386 H 0.66528 0.7199 0.6878 0.0
H3387 H 0.66944 0.70239 0.70053 0.0
H3388 H 0.65191 0.71808 0.65594 0.0
H3389 H 0.70624 0.76377 0.65632 0.0
H3390 H 0.70466 0.74882 0.64576 0.0
H3391 H 0.70124 0.74834 0.66905 0.0
C3392 C 0.68809 0.70899 0.66245 0.0
C3393 C 0.68224 0.70279 0.67883 0.0
C3394 C 0.68567 0.71897 0.65521 0.0
C3395 C 0.67744 0.72302 0.66423 0.0
C3396 C 0.67172 0.71697 0.68066 0.0
H3397 H 0.66751 0.79187 0.63274 0.0
H3398 H 0.67255 0.77615 0.64903 0.0
C3399 C 0.67414 0.70699 0.68793 0.0
C3400 C 0.67417 0.73299 0.65605 0.0
H3401 H 0.68925 0.76569 0.63909 0.0
C3402 C 0.66006 0.72853 0.65237 0.0
C3403 C 0.68481 0.74666 0.65159 0.0
C3404 C 0.70008 0.75226 0.65603 0.0
C3405 C 0.65632 0.73725 0.64392 0.0
C3406 C 0.66701 0.75072 0.63876 0.0
C3407 C 0.68109 0.75531 0.64288 0.0
C3408 C 0.6638 0.76015 0.62894 0.0
C3409 C 0.64096 0.73201 0.64069 0.0
C3410 C 0.65736 0.75643 0.61216 0.0
C3411 C 0.6545 0.76539 0.6028 0.0
C3412 C 0.65813 0.77832 0.60999 0.0
C3413 C 0.66469 0.78205 0.62676 0.0
C3414 C 0.66753 0.77307 0.63611 0.0
H3415 H 0.63411 0.72321 0.64956 0.0
H3416 H 0.63869 0.74038 0.64269 0.0
H3417 H 0.63816 0.7283 0.62681 0.0
H3418 H 0.65469 0.74664 0.60619 0.0
H3419 H 0.64969 0.76231 0.58978 0.0
H3420 H 0.27491 0.97671 0.66725 0.0
H3421 H 0.26538 0.95289 0.6574 0.0
H3422 H 0.30735 0.96041 0.65336 0.0
H3423 H 0.31706 0.98438 0.6634 0.0
H3424 H 0.28911 0.94906 0.62182 0.0
H3425 H 0.26399 0.91915 0.68282 0.0
H3426 H 0.26035 0.93257 0.67803 0.0
H3427 H 0.27804 0.93715 0.68323 0.0
C3428 C 0.28214 0.97328 0.66451 0.0
C3429 C 0.29674 0.98245 0.66608 0.0
C3430 C 0.27666 0.95963 0.65898 0.0
C3431 C 0.28567 0.95488 0.65483 0.0
C3432 C 0.30025 0.96389 0.65665 0.0
H3433 H 0.24898 0.8688 0.61707 0.0
H3434 H 0.26542 0.89098 0.63171 0.0
C3435 C 0.30576 0.97754 0.66241 0.0
C3436 C 0.27972 0.94087 0.64717 0.0
H3437 H 0.25596 0.90672 0.65534 0.0
C3438 C 0.28209 0.93976 0.62922 0.0
C3439 C 0.27063 0.92878 0.65689 0.0
C3440 C 0.26817 0.9294 0.67636 0.0
C3441 C 0.27491 0.92693 0.62046 0.0
C3442 C 0.26514 0.91498 0.62993 0.0
C3443 C 0.26341 0.91595 0.64812 0.0
C3444 C 0.25567 0.90172 0.62079 0.0
C3445 C 0.2774 0.92627 0.60101 0.0
C3446 C 0.24478 0.90048 0.60996 0.0
C3447 C 0.23538 0.88789 0.60177 0.0
C3448 C 0.23673 0.87631 0.6042 0.0
C3449 C 0.24776 0.8776 0.61491 0.0
C3450 C 0.2571 0.89021 0.62329 0.0
H3451 H 0.28731 0.93559 0.59658 0.0
H3452 H 0.27784 0.91689 0.59801 0.0
H3453 H 0.26855 0.9256 0.59326 0.0
H3454 H 0.24347 0.90925 0.60801 0.0
H3455 H 0.22707 0.88722 0.59345 0.0
H3456 H 0.02651 0.34025 0.66416 0.0
H3457 H 0.05118 0.35441 0.65498 0.0
H3458 H 0.053 0.31742 0.64961 0.0
H3459 H 0.02867 0.30333 0.65885 0.0
H3460 H 0.07657 0.33969 0.66754 0.0
H3461 H 0.06423 0.35575 0.60328 0.0
H3462 H 0.0578 0.35905 0.62327 0.0
H3463 H 0.05084 0.34154 0.61606 0.0
C3464 C 0.03222 0.33517 0.66113 0.0
C3465 C 0.02558 0.32065 0.66213 0.0
C3466 C 0.04627 0.34326 0.65581 0.0
C3467 C 0.05384 0.33693 0.65145 0.0
C3468 C 0.04734 0.32251 0.6529 0.0
H3469 H 0.1222 0.33988 0.60417 0.0
H3470 H 0.1018 0.33611 0.62072 0.0
C3471 C 0.03338 0.31446 0.65814 0.0
C3472 C 0.06844 0.34499 0.64485 0.0
H3473 H 0.08724 0.36065 0.60759 0.0
C3474 C 0.07899 0.34453 0.65458 0.0
C3475 C 0.07157 0.35135 0.62798 0.0
C3476 C 0.06055 0.35195 0.61691 0.0
C3477 C 0.09236 0.34956 0.64747 0.0
C3478 C 0.09518 0.35502 0.63013 0.0
C3479 C 0.08499 0.35639 0.62087 0.0
C3480 C 0.10788 0.35769 0.62061 0.0
C3481 C 0.10322 0.34851 0.65831 0.0
C3482 C 0.11795 0.37105 0.61483 0.0
C3483 C 0.12965 0.37323 0.60532 0.0
C3484 C 0.1313 0.36203 0.6012 0.0
C3485 C 0.12115 0.34868 0.60699 0.0
C3486 C 0.10957 0.34654 0.61659 0.0
H3487 H 0.10106 0.348 0.6727 0.0
H3488 H 0.10298 0.3389 0.65458 0.0
H3489 H 0.11395 0.35748 0.65579 0.0
H3490 H 0.11674 0.37975 0.61767 0.0
H3491 H 0.13727 0.38361 0.6009 0.0
H3492 H 0.30863 0.3361 0.69488 0.0
H3493 H 0.29153 0.34066 0.68101 0.0
H3494 H 0.28674 0.31412 0.63725 0.0
H3495 H 0.30401 0.30966 0.65088 0.0
H3496 H 0.29118 0.3393 0.62648 0.0
H3497 H 0.24896 0.31599 0.67651 0.0
H3498 H 0.26591 0.32839 0.68559 0.0
H3499 H 0.26308 0.31258 0.67603 0.0
C3500 C 0.30383 0.33109 0.6824 0.0
C3501 C 0.30769 0.3225 0.674 0.0
C3502 C 0.29399 0.33366 0.67453 0.0
C3503 C 0.28772 0.32759 0.6582 0.0
C3504 C 0.29141 0.31887 0.64989 0.0
H3505 H 0.21762 0.32779 0.60684 0.0
H3506 H 0.23306 0.32153 0.62195 0.0
C3507 C 0.30127 0.31631 0.65772 0.0
C3508 C 0.27792 0.33096 0.64931 0.0
H3509 H 0.24706 0.33008 0.65444 0.0
C3510 C 0.2815 0.33722 0.63255 0.0
C3511 C 0.26523 0.32812 0.65718 0.0
C3512 C 0.26047 0.32078 0.67474 0.0
C3513 C 0.27286 0.34094 0.62357 0.0
C3514 C 0.26041 0.33855 0.63171 0.0
C3515 C 0.25669 0.33205 0.64832 0.0
C3516 C 0.251 0.3425 0.62302 0.0
C3517 C 0.27701 0.34719 0.60532 0.0
C3518 C 0.25589 0.3564 0.6189 0.0
C3519 C 0.24713 0.36 0.61014 0.0
C3520 C 0.23327 0.34977 0.60542 0.0
C3521 C 0.22831 0.3359 0.61001 0.0
C3522 C 0.23708 0.33231 0.61875 0.0
H3523 H 0.28468 0.34501 0.59919 0.0
H3524 H 0.26768 0.34316 0.59645 0.0
H3525 H 0.28202 0.3586 0.6063 0.0
H3526 H 0.26652 0.36446 0.62236 0.0
H3527 H 0.25132 0.37077 0.60672 0.0
H3528 H 0.6567 0.97193 0.68382 0.0
H3529 H 0.65267 0.95061 0.66996 0.0
H3530 H 0.68992 0.97438 0.63865 0.0
H3531 H 0.69407 0.99578 0.6524 0.0
H3532 H 0.64947 0.94485 0.63196 0.0
H3533 H 0.69432 0.94327 0.66218 0.0
H3534 H 0.68757 0.95334 0.67147 0.0
H3535 H 0.69853 0.95948 0.65227 0.0
C3536 C 0.66411 0.97264 0.67409 0.0
C3537 C 0.67573 0.98557 0.66925 0.0
C3538 C 0.66176 0.96044 0.66616 0.0
C3539 C 0.67106 0.96093 0.65342 0.0
C3540 C 0.68272 0.97378 0.64864 0.0
H3541 H 0.6759 0.89976 0.59023 0.0
H3542 H 0.67988 0.92086 0.60471 0.0
C3543 C 0.68504 0.986 0.65647 0.0
C3544 C 0.6683 0.94803 0.64467 0.0
H3545 H 0.68131 0.9268 0.63978 0.0
C3546 C 0.65637 0.94084 0.6337 0.0
C3547 C 0.67738 0.94291 0.64693 0.0
C3548 C 0.69013 0.95005 0.65895 0.0
C3549 C 0.65342 0.92878 0.62463 0.0
C3550 C 0.66247 0.92359 0.62697 0.0
C3551 C 0.67438 0.93078 0.638 0.0
C3552 C 0.65985 0.91077 0.61803 0.0
C3553 C 0.64087 0.92195 0.61227 0.0
C3554 C 0.64732 0.89805 0.62082 0.0
C3555 C 0.64499 0.88599 0.61251 0.0
C3556 C 0.65526 0.88638 0.60144 0.0
C3557 C 0.66785 0.89911 0.5988 0.0
C3558 C 0.67012 0.91117 0.60702 0.0
H3559 H 0.63751 0.92924 0.60813 0.0
H3560 H 0.64319 0.91792 0.60023 0.0
H3561 H 0.63193 0.91311 0.61916 0.0
H3562 H 0.63939 0.89741 0.62961 0.0
H3563 H 0.63529 0.87631 0.61502 0.0
H3564 H 0.0177 0.67669 0.65869 0.0
H3565 H 0.04212 0.68668 0.6492 0.0
H3566 H 0.04927 0.72778 0.65526 0.0
H3567 H 0.02502 0.71798 0.6646 0.0
H3568 H 0.05342 0.70464 0.61873 0.0
H3569 H 0.08385 0.72986 0.67993 0.0
H3570 H 0.06562 0.71596 0.68018 0.0
H3571 H 0.07018 0.73342 0.67541 0.0
C3572 C 0.02455 0.68785 0.65828 0.0
C3573 C 0.01942 0.69655 0.66232 0.0
C3574 C 0.03847 0.69352 0.65285 0.0
C3575 C 0.04751 0.70795 0.65175 0.0
C3576 C 0.04253 0.71663 0.65633 0.0
H3577 H 0.11266 0.76734 0.59004 0.0
H3578 H 0.09103 0.74965 0.60427 0.0
C3579 C 0.02863 0.711 0.66154 0.0
C3580 C 0.06171 0.71412 0.64417 0.0
H3581 H 0.09604 0.7388 0.65236 0.0
C3582 C 0.0628 0.71187 0.62616 0.0
C3583 C 0.07393 0.72344 0.65394 0.0
C3584 C 0.07339 0.72574 0.67349 0.0
C3585 C 0.07567 0.71948 0.61737 0.0
C3586 C 0.08765 0.72958 0.62684 0.0
C3587 C 0.08678 0.73111 0.64512 0.0
C3588 C 0.10069 0.73969 0.61766 0.0
C3589 C 0.07626 0.71707 0.59786 0.0
C3590 C 0.11328 0.73997 0.62063 0.0
C3591 C 0.12567 0.75006 0.61246 0.0
C3592 C 0.12565 0.76015 0.6015 0.0
C3593 C 0.11299 0.75977 0.59855 0.0
C3594 C 0.10063 0.74962 0.60654 0.0
H3595 H 0.0674 0.70674 0.59363 0.0
H3596 H 0.07554 0.7251 0.59023 0.0
H3597 H 0.08633 0.71788 0.5945 0.0
H3598 H 0.11352 0.73244 0.62931 0.0
H3599 H 0.13532 0.7502 0.61502 0.0
H3600 H 0.99972 0.63456 0.67098 0.0
H3601 H 0.00106 0.61598 0.68581 0.0
H3602 H 0.96532 0.6067 0.71761 0.0
H3603 H 0.96391 0.62533 0.70295 0.0
H3604 H 0.00365 0.61486 0.72554 0.0
H3605 H 0.95707 0.56844 0.69574 0.0
H3606 H 0.96587 0.58513 0.6849 0.0
H3607 H 0.95479 0.58218 0.70349 0.0
C3608 C 0.99204 0.62848 0.68098 0.0
C3609 C 0.98171 0.63144 0.68579 0.0
C3610 C 0.99284 0.61789 0.68945 0.0
C3611 C 0.98324 0.60995 0.70269 0.0
C3612 C 0.97273 0.61265 0.70728 0.0
H3613 H 0.97274 0.54227 0.76929 0.0
H3614 H 0.96982 0.55957 0.75341 0.0
C3615 C 0.97198 0.62332 0.69892 0.0
C3616 C 0.98471 0.59937 0.71238 0.0
H3617 H 0.96942 0.56449 0.71826 0.0
C3618 C 0.99621 0.60384 0.72395 0.0
C3619 C 0.97488 0.58505 0.71035 0.0
C3620 C 0.96247 0.57981 0.69789 0.0
C3621 C 0.9981 0.59433 0.73372 0.0
C3622 C 0.98842 0.57995 0.73145 0.0
C3623 C 0.97685 0.5755 0.71994 0.0
C3624 C 0.99015 0.56936 0.74086 0.0
C3625 C 0.01024 0.59981 0.7467 0.0
C3626 C 0.00245 0.56897 0.73884 0.0
C3627 C 0.00417 0.55916 0.74798 0.0
C3628 C 0.99353 0.54941 0.75909 0.0
C3629 C 0.98108 0.5496 0.76075 0.0
C3630 C 0.97942 0.5595 0.75172 0.0
H3631 H 0.01396 0.61065 0.75071 0.0
H3632 H 0.00728 0.59328 0.75878 0.0
H3633 H 0.01915 0.59977 0.74038 0.0
H3634 H 0.0107 0.57621 0.73014 0.0
H3635 H 0.01377 0.55911 0.74619 0.0
H3636 H 0.35384 0.3556 0.69892 0.0
H3637 H 0.3645 0.3792 0.71066 0.0
H3638 H 0.40507 0.38303 0.71191 0.0
H3639 H 0.39454 0.35949 0.70053 0.0
H3640 H 0.39785 0.3893 0.74376 0.0
H3641 H 0.39029 0.41748 0.68844 0.0
H3642 H 0.37473 0.40183 0.69546 0.0
H3643 H 0.38875 0.40089 0.68546 0.0
C3644 C 0.36507 0.36156 0.70141 0.0
C3645 C 0.37333 0.35564 0.69888 0.0
C3646 C 0.37115 0.37506 0.70806 0.0
C3647 C 0.38558 0.38288 0.71207 0.0
C3648 C 0.3939 0.37716 0.70892 0.0
H3649 H 0.44371 0.46779 0.739 0.0
H3650 H 0.42866 0.4454 0.72452 0.0
C3651 C 0.38786 0.36369 0.7024 0.0
C3652 C 0.39197 0.3966 0.72083 0.0
H3653 H 0.39999 0.42993 0.71514 0.0
C3654 C 0.39827 0.39818 0.73754 0.0
C3655 C 0.39254 0.40814 0.71263 0.0
C3656 C 0.38633 0.40711 0.69444 0.0
C3657 C 0.40534 0.41104 0.74617 0.0
C3658 C 0.40587 0.4226 0.73803 0.0
C3659 C 0.39943 0.421 0.7214 0.0
C3660 C 0.41395 0.43659 0.7461 0.0
C3661 C 0.41264 0.41224 0.76363 0.0
C3662 C 0.41043 0.43919 0.76281 0.0
C3663 C 0.41911 0.45192 0.77124 0.0
C3664 C 0.43142 0.46231 0.76301 0.0
C3665 C 0.43447 0.4599 0.74585 0.0
C3666 C 0.42581 0.44717 0.73748 0.0
H3667 H 0.41388 0.40323 0.76606 0.0
H3668 H 0.42319 0.42185 0.76411 0.0
H3669 H 0.40631 0.41269 0.77455 0.0
H3670 H 0.40118 0.43122 0.76957 0.0
H3671 H 0.41647 0.4534 0.78447 0.0
H3672 H 0.64952 0.04092 0.70542 0.0
H3673 H 0.62531 0.02912 0.71528 0.0
H3674 H 0.61908 0.98997 0.69793 0.0
H3675 H 0.64365 0.00175 0.68836 0.0
H3676 H 0.60066 0.01381 0.6975 0.0
H3677 H 0.60664 0.98195 0.74923 0.0
H3678 H 0.62153 0.99603 0.73815 0.0
H3679 H 0.61071 0.97977 0.72697 0.0
C3680 C 0.64305 0.0298 0.70362 0.0
C3681 C 0.64859 0.02227 0.6962 0.0
C3682 C 0.62917 0.02306 0.70924 0.0
C3683 C 0.62042 0.00864 0.70756 0.0
C3684 C 0.62572 0.00108 0.69968 0.0
H3685 H 0.53291 0.97899 0.73779 0.0
H3686 H 0.5523 0.98096 0.72053 0.0
C3687 C 0.63973 0.00783 0.69412 0.0
C3688 C 0.60591 0.00181 0.71451 0.0
H3689 H 0.58505 0.98083 0.74775 0.0
C3690 C 0.59713 0.00643 0.70832 0.0
C3691 C 0.6014 0.99225 0.7287 0.0
C3692 C 0.61056 0.98724 0.7363 0.0
C3693 C 0.58433 0.0024 0.71654 0.0
C3694 C 0.57997 0.99311 0.73102 0.0
C3695 C 0.5884 0.9879 0.73661 0.0
C3696 C 0.56763 0.99002 0.74183 0.0
C3697 C 0.57609 0.00885 0.71034 0.0
C3698 C 0.56959 0.99372 0.7598 0.0
C3699 C 0.55847 0.9923 0.76981 0.0
C3700 C 0.54513 0.98726 0.76203 0.0
C3701 C 0.54302 0.98291 0.74423 0.0
C3702 C 0.55414 0.98419 0.73427 0.0
H3703 H 0.58241 0.01798 0.70168 0.0
H3704 H 0.56676 0.0011 0.70262 0.0
H3705 H 0.57238 0.01219 0.72177 0.0
H3706 H 0.57987 0.99814 0.76598 0.0
H3707 H 0.5604 0.9954 0.78359 0.0
loop_
_geom_bond_atom_site_label_1
_geom_bond_atom_site_label_2
_geom_bond_distance
_geom_bond_site_symmetry_2
_ccdc_geom_bond_type
Zn0 O3 2.031 1_554 S
Zn0 O5 2.049 . S
Zn0 O10 2.067 1_554 S
Zn1 O2 1.962 1_455 S
Zn1 O4 1.986 . S
Zn1 O6 1.996 1_455 S
Zn1 O9 1.943 . S
O2 Zn1 1.962 1_655 S
O2 C7 1.254 . S
O3 Zn0 2.031 1_556 S
O3 C7 1.269 1_556 S
O4 Zn1 1.986 . S
O4 C11 1.262 . S
O5 Zn0 2.049 . S
O5 C13 1.260 . S
O6 Zn1 1.996 1_655 S
O6 C13 1.257 . S
C7 O2 1.254 . S
C7 O3 1.269 1_554 S
C8 O9 1.249 1_556 S
C8 O10 1.270 1_455 S
O9 Zn1 1.943 . S
O9 C8 1.249 1_554 S
O10 Zn0 2.067 1_556 S
O10 C8 1.270 1_655 S
C11 O4 1.262 . S
C11 O12 1.232 . S
O12 C11 1.232 . S
C13 O5 1.260 . S
C13 O6 1.257 . S
Zn14 O17 2.031 1_554 S
Zn14 O19 2.049 . S
Zn14 O24 2.067 1_554 S
Zn15 O16 1.962 . S
Zn15 O18 1.986 . S
Zn15 O20 1.996 . S
Zn15 O23 1.943 . S
O16 Zn15 1.962 . S
O16 C21 1.254 . S
O17 Zn14 2.031 1_556 S
O17 C21 1.269 1_556 S
O18 Zn15 1.986 . S
O18 C25 1.262 . S
O19 Zn14 2.049 . S
O19 C27 1.260 . S
O20 Zn15 1.996 . S
O20 C27 1.257 . S
C21 O16 1.254 . S
C21 O17 1.269 1_554 S
C22 O23 1.249 1_556 S
C22 O24 1.270 . S
O23 Zn15 1.943 . S
O23 C22 1.249 1_554 S
O24 Zn14 2.067 1_556 S
O24 C22 1.270 . S
C25 O18 1.262 . S
C25 O26 1.232 . S
O26 C25 1.232 . S
C27 O19 1.260 . S
C27 O20 1.257 . S
Zn28 O31 2.031 . S
Zn28 O33 2.049 1_554 S
Zn28 O38 2.113 . S
Zn29 O30 1.962 1_545 S
Zn29 O32 1.986 1_554 S
Zn29 O34 1.996 1_544 S
Zn29 O37 1.943 . S
O30 Zn29 1.962 1_565 S
O30 C35 1.254 . S
O31 Zn28 2.031 . S
O31 C35 1.269 . S
O32 Zn29 1.986 1_556 S
O32 C39 1.262 1_556 S
O33 Zn28 2.049 1_556 S
O33 C41 1.260 . S
O34 Zn29 1.996 1_566 S
O34 C41 1.257 . S
C35 O30 1.254 . S
C35 O31 1.269 . S
C36 O37 1.249 . S
C36 O38 1.187 1_545 S
O37 Zn29 1.943 . S
O37 C36 1.249 . S
O38 Zn28 2.113 . S
O38 C36 1.187 1_565 S
C39 O32 1.262 1_554 S
C39 O40 1.232 . S
O40 C39 1.232 . S
C41 O33 1.260 . S
C41 O34 1.257 . S
Zn42 O45 2.031 . S
Zn42 O47 2.049 1_554 S
Zn42 O52 2.067 . S
Zn43 O44 1.962 1_655 S
Zn43 O46 1.986 1_554 S
Zn43 O48 1.996 1_654 S
Zn43 O51 1.943 . S
O44 Zn43 1.962 1_455 S
O44 C49 1.254 . S
O45 Zn42 2.031 . S
O45 C49 1.269 . S
O46 Zn43 1.986 1_556 S
O46 C53 1.262 1_556 S
O47 Zn42 2.049 1_556 S
O47 C55 1.260 . S
O48 Zn43 1.996 1_456 S
O48 C55 1.257 . S
C49 O44 1.254 . S
C49 O45 1.269 . S
C50 O51 1.249 . S
C50 O52 1.270 1_655 S
O51 Zn43 1.943 . S
O51 C50 1.249 . S
O52 Zn42 2.067 . S
O52 C50 1.270 1_455 S
C53 O46 1.262 1_554 S
C53 O54 1.232 . S
O54 C53 1.232 . S
C55 O47 1.260 . S
C55 O48 1.257 . S
Zn56 O59 2.031 . S
Zn56 O61 2.049 1_554 S
Zn56 O66 2.067 . S
Zn57 O58 1.962 . S
Zn57 O60 1.986 1_554 S
Zn57 O62 1.996 1_554 S
Zn57 O65 1.943 . S
O58 Zn57 1.962 . S
O58 C63 1.254 . S
O59 Zn56 2.031 . S
O59 C63 1.269 . S
O60 Zn57 1.986 1_556 S
O60 C67 1.244 1_556 S
O61 Zn56 2.049 1_556 S
O61 C69 1.260 . S
O62 Zn57 1.996 1_556 S
O62 C69 1.257 . S
C63 O58 1.254 . S
C63 O59 1.269 . S
C64 O65 1.249 . S
C64 O66 1.270 . S
O65 Zn57 1.943 . S
O65 C64 1.249 . S
O66 Zn56 2.067 . S
O66 C64 1.270 . S
C67 O60 1.244 1_554 S
C67 O68 1.262 . S
O68 C67 1.262 . S
C69 O61 1.260 . S
C69 O62 1.257 . S
Zn70 O73 2.031 . S
Zn70 O75 2.049 . S
Zn70 O80 2.067 . S
Zn71 O72 1.962 1_565 S
Zn71 O74 1.986 . S
Zn71 O76 1.996 1_565 S
Zn71 O79 1.943 . S
O72 Zn71 1.962 1_545 S
O72 C77 1.254 . S
O73 Zn70 2.031 . S
O73 C77 1.269 . S
O74 Zn71 1.986 . S
O74 C81 1.262 . S
O75 Zn70 2.049 . S
O75 C83 1.260 . S
O76 Zn71 1.996 1_545 S
O76 C83 1.257 . S
C77 O72 1.254 . S
C77 O73 1.269 . S
C78 O79 1.249 1_556 S
C78 O80 1.270 1_566 S
O79 Zn71 1.943 . S
O79 C78 1.249 1_554 S
O80 Zn70 2.067 . S
O80 C78 1.270 1_544 S
C81 O74 1.262 . S
C81 O82 1.232 . S
O82 C81 1.232 . S
C83 O75 1.260 . S
C83 O76 1.257 . S
Zn84 O87 2.031 . S
Zn84 O89 2.049 . S
Zn84 O94 2.067 . S
Zn85 O86 1.962 . S
Zn85 O88 1.986 . S
Zn85 O90 1.996 . S
Zn85 O93 1.943 . S
O86 Zn85 1.962 . S
O86 C91 1.254 . S
O87 Zn84 2.031 . S
O87 C91 1.269 . S
O88 Zn85 1.986 . S
O88 C95 1.262 . S
O89 Zn84 2.049 . S
O89 C97 1.260 . S
O90 Zn85 1.996 . S
O90 C97 1.257 . S
C91 O86 1.254 . S
C91 O87 1.269 . S
C92 O93 1.249 . S
C92 O94 1.270 . S
O93 Zn85 1.943 . S
O93 C92 1.249 . S
O94 Zn84 2.067 . S
O94 C92 1.270 . S
C95 O88 1.262 . S
C95 O96 1.232 . S
O96 C95 1.232 . S
C97 O89 1.260 . S
C97 O90 1.257 . S
Zn98 O101 2.031 . S
Zn98 O103 2.049 . S
Zn98 O108 2.067 . S
Zn99 O100 1.962 . S
Zn99 O102 1.986 1_565 S
Zn99 O104 1.996 . S
Zn99 O107 1.943 . S
O100 Zn99 1.962 . S
O100 C105 1.254 . S
O101 Zn98 2.031 . S
O101 C105 1.269 . S
O102 Zn99 1.986 1_545 S
O102 C109 1.262 . S
O103 Zn98 2.049 . S
O103 C111 1.260 . S
O104 Zn99 1.996 . S
O104 C111 1.257 . S
C105 O100 1.254 . S
C105 O101 1.269 . S
C106 O107 1.249 . S
C106 O108 1.270 . S
O107 Zn99 1.943 . S
O107 C106 1.249 . S
O108 Zn98 2.067 . S
O108 C106 1.270 . S
C109 O102 1.262 . S
C109 O110 1.232 . S
O110 C109 1.232 . S
C111 O103 1.260 . S
C111 O104 1.257 . S
Zn112 O115 2.031 . S
Zn112 O117 2.049 . S
Zn112 O122 2.067 . S
Zn113 O114 1.962 1_455 S
Zn113 O116 1.986 . S
Zn113 O118 1.996 . S
Zn113 O121 1.943 . S
O114 Zn113 1.962 1_655 S
O114 C119 1.254 . S
O115 Zn112 2.031 . S
O115 C119 1.269 1_455 S
O116 Zn113 1.986 . S
O116 C123 1.262 . S
O117 Zn112 2.049 . S
O117 C125 1.260 . S
O118 Zn113 1.996 . S
O118 C125 1.257 . S
C119 O114 1.254 . S
C119 O115 1.269 1_655 S
C120 O121 1.249 . S
C120 O122 1.270 . S
O121 Zn113 1.943 . S
O121 C120 1.249 . S
O122 Zn112 2.067 . S
O122 C120 1.270 . S
C123 O116 1.262 . S
C123 O124 1.232 . S
O124 C123 1.232 . S
C125 O117 1.260 . S
C125 O118 1.257 . S
Zn126 O129 2.031 . S
Zn126 O131 2.049 . S
Zn126 O136 2.067 . S
Zn127 O128 1.962 1_565 S
Zn127 O130 1.986 . S
Zn127 O132 1.996 . S
Zn127 O135 1.943 . S
O128 Zn127 1.962 1_545 S
O128 C133 1.254 . S
O129 Zn126 2.031 . S
O129 C133 1.269 1_565 S
O130 Zn127 1.986 . S
O130 C137 1.262 . S
O131 Zn126 2.049 . S
O131 C139 1.260 . S
O132 Zn127 1.996 . S
O132 C139 1.257 . S
C133 O128 1.254 . S
C133 O129 1.269 1_545 S
C134 O135 1.249 . S
C134 O136 1.270 . S
O135 Zn127 1.943 . S
O135 C134 1.249 . S
O136 Zn126 2.067 . S
O136 C134 1.270 . S
C137 O130 1.262 . S
C137 O138 1.232 . S
O138 C137 1.232 . S
C139 O131 1.260 . S
C139 O132 1.257 . S
Zn140 O143 2.031 . S
Zn140 O145 2.049 . S
Zn140 O150 2.067 . S
Zn141 O142 1.962 1_455 S
Zn141 O144 1.986 . S
Zn141 O146 1.996 . S
Zn141 O149 1.943 . S
O142 Zn141 1.962 1_655 S
O142 C147 1.254 . S
O143 Zn140 2.031 . S
O143 C147 1.269 1_455 S
O144 Zn141 1.986 . S
O144 C151 1.262 . S
O145 Zn140 2.049 . S
O145 C153 1.260 . S
O146 Zn141 1.996 . S
O146 C153 1.257 . S
C147 O142 1.254 . S
C147 O143 1.269 1_655 S
C148 O149 1.249 . S
C148 O150 1.270 . S
O149 Zn141 1.943 . S
O149 C148 1.249 . S
O150 Zn140 2.067 . S
O150 C148 1.270 . S
C151 O144 1.262 . S
C151 O152 1.232 . S
O152 C151 1.232 . S
C153 O145 1.260 . S
C153 O146 1.257 . S
Zn154 O157 2.031 . S
Zn154 O159 2.049 . S
Zn154 O164 2.067 . S
Zn155 O156 1.962 . S
Zn155 O158 1.986 . S
Zn155 O160 1.996 . S
Zn155 O163 1.943 . S
O156 Zn155 1.962 . S
O156 C161 1.254 . S
O157 Zn154 2.031 . S
O157 C161 1.269 . S
O158 Zn155 1.986 . S
O158 C165 1.262 . S
O159 Zn154 2.049 . S
O159 C167 1.260 . S
O160 Zn155 1.996 . S
O160 C167 1.257 . S
C161 O156 1.254 . S
C161 O157 1.269 . S
C162 O163 1.249 . S
C162 O164 1.270 . S
O163 Zn155 1.943 . S
O163 C162 1.249 . S
O164 Zn154 2.067 . S
O164 C162 1.270 . S
C165 O158 1.262 . S
C165 O166 1.232 . S
O166 C165 1.232 . S
C167 O159 1.260 . S
C167 O160 1.257 . S
Zn168 O171 2.031 . S
Zn168 O173 2.049 . S
Zn168 O178 2.067 . S
Zn169 O170 1.967 1_545 S
Zn169 O172 1.986 . S
Zn169 O174 1.996 . S
Zn169 O177 1.943 . S
O170 Zn169 1.967 1_565 S
O170 C175 1.285 . S
O171 Zn168 2.031 . S
O171 C175 1.190 1_545 S
O172 Zn169 1.986 . S
O172 C179 1.262 . S
O173 Zn168 2.049 . S
O173 C181 1.260 . S
O174 Zn169 1.996 . S
O174 C181 1.257 . S
C175 O170 1.285 . S
C175 O171 1.190 1_565 S
C176 O177 1.249 . S
C176 O178 1.270 . S
O177 Zn169 1.943 . S
O177 C176 1.249 . S
O178 Zn168 2.067 . S
O178 C176 1.270 . S
C179 O172 1.262 . S
C179 O180 1.232 . S
O180 C179 1.232 . S
C181 O173 1.260 . S
C181 O174 1.257 . S
Zn182 O185 2.031 . S
Zn182 O187 2.049 . S
Zn182 O192 2.067 . S
Zn183 O184 1.962 1_655 S
Zn183 O186 1.986 . S
Zn183 O188 1.996 . S
Zn183 O191 1.943 . S
O184 Zn183 1.962 1_455 S
O184 C189 1.254 . S
O185 Zn182 2.031 . S
O185 C189 1.269 1_655 S
O186 Zn183 1.986 . S
O186 C193 1.262 . S
O187 Zn182 2.049 . S
O187 C195 1.260 . S
O188 Zn183 1.996 . S
O188 C195 1.257 . S
C189 O184 1.254 . S
C189 O185 1.269 1_455 S
C190 O191 1.249 . S
C190 O192 1.270 . S
O191 Zn183 1.943 . S
O191 C190 1.249 . S
O192 Zn182 2.067 . S
O192 C190 1.270 . S
C193 O186 1.262 . S
C193 O194 1.232 . S
O194 C193 1.232 . S
C195 O187 1.260 . S
C195 O188 1.257 . S
Zn196 O199 2.031 . S
Zn196 O201 2.049 . S
Zn196 O206 2.067 . S
Zn197 O198 1.962 . S
Zn197 O200 1.986 . S
Zn197 O202 1.996 . S
Zn197 O205 1.943 . S
O198 Zn197 1.962 . S
O198 C203 1.254 . S
O199 Zn196 2.031 . S
O199 C203 1.269 . S
O200 Zn197 1.986 . S
O200 C207 1.262 . S
O201 Zn196 2.049 . S
O201 C209 1.260 . S
O202 Zn197 1.996 . S
O202 C209 1.257 . S
C203 O198 1.254 . S
C203 O199 1.269 . S
C204 O205 1.249 . S
C204 O206 1.270 . S
O205 Zn197 1.943 . S
O205 C204 1.249 . S
O206 Zn196 2.067 . S
O206 C204 1.270 . S
C207 O200 1.262 . S
C207 O208 1.232 . S
O208 C207 1.232 . S
C209 O201 1.260 . S
C209 O202 1.257 . S
Zn210 O213 2.031 . S
Zn210 O215 2.049 . S
Zn210 O220 2.067 . S
Zn211 O212 1.962 . S
Zn211 O214 1.986 . S
Zn211 O216 1.996 . S
Zn211 O219 1.943 . S
O212 Zn211 1.962 . S
O212 C217 1.254 . S
O213 Zn210 2.031 . S
O213 C217 1.269 . S
O214 Zn211 1.986 . S
O214 C221 1.262 . S
O215 Zn210 2.049 . S
O215 C223 1.260 . S
O216 Zn211 1.996 . S
O216 C223 1.257 . S
C217 O212 1.254 . S
C217 O213 1.269 . S
C218 O219 1.249 . S
C218 O220 1.270 . S
O219 Zn211 1.943 . S
O219 C218 1.249 . S
O220 Zn210 2.067 . S
O220 C218 1.270 . S
C221 O214 1.262 . S
C221 O222 1.232 . S
O222 C221 1.232 . S
C223 O215 1.260 . S
C223 O216 1.257 . S
Zn224 O227 2.031 . S
Zn224 O229 2.049 . S
Zn224 O234 2.067 . S
Zn225 O226 1.962 . S
Zn225 O228 2.019 . S
Zn225 O230 1.996 . S
Zn225 O233 1.943 . S
O226 Zn225 1.962 . S
O226 C231 1.254 . S
O227 Zn224 2.031 . S
O227 C231 1.269 . S
O228 Zn225 2.019 . S
O228 C235 1.230 1_545 S
O229 Zn224 2.049 . S
O229 C237 1.260 . S
O230 Zn225 1.996 . S
O230 C237 1.257 . S
C231 O226 1.254 . S
C231 O227 1.269 . S
C232 O233 1.249 . S
C232 O234 1.270 . S
O233 Zn225 1.943 . S
O233 C232 1.249 . S
O234 Zn224 2.067 . S
O234 C232 1.270 . S
C235 O228 1.230 1_565 S
C235 O236 1.232 . S
O236 C235 1.232 . S
C237 O229 1.260 . S
C237 O230 1.257 . S
Zn238 O241 2.031 . S
Zn238 O243 2.049 . S
Zn238 O248 2.067 . S
Zn239 O240 1.962 1_655 S
Zn239 O242 1.986 . S
Zn239 O244 1.996 . S
Zn239 O247 1.943 . S
O240 Zn239 1.962 1_455 S
O240 C245 1.254 . S
O241 Zn238 2.031 . S
O241 C245 1.269 1_655 S
O242 Zn239 1.986 . S
O242 C249 1.262 . S
O243 Zn238 2.049 . S
O243 C251 1.260 . S
O244 Zn239 1.996 . S
O244 C251 1.257 . S
C245 O240 1.254 . S
C245 O241 1.269 1_455 S
C246 O247 1.249 . S
C246 O248 1.270 . S
O247 Zn239 1.943 . S
O247 C246 1.249 . S
O248 Zn238 2.067 . S
O248 C246 1.270 . S
C249 O242 1.262 . S
C249 O250 1.232 . S
O250 C249 1.232 . S
C251 O243 1.260 . S
C251 O244 1.257 . S
H252 C271 0.949 . S
H253 C272 0.950 . S
H254 C274 0.950 . S
H255 C275 0.950 . S
H256 C277 0.950 . S
H257 C280 0.950 . S
H258 C281 0.950 . S
H259 C283 0.951 . S
H260 C284 0.949 . S
H261 C286 0.949 . S
H262 C287 0.950 . S
H263 C289 0.950 . S
H264 C290 0.950 . S
H265 C292 0.950 . S
H266 C295 0.950 . S
H267 C296 0.950 . S
H268 C298 0.951 . S
H269 C299 0.949 . S
C270 C271 1.376 . S
C270 C275 1.386 . S
C270 C276 1.483 . S
C271 H252 0.949 . S
C271 C270 1.376 . S
C271 C272 1.397 . S
C272 H253 0.950 . S
C272 C271 1.397 . S
C272 C273 1.391 . S
C273 C272 1.391 . S
C273 C274 1.405 . S
C274 H254 0.950 . S
C274 C273 1.405 . S
C274 C275 1.367 . S
C275 H255 0.950 . S
C275 C270 1.386 . S
C275 C274 1.367 . S
C276 C270 1.483 . S
C276 C277 1.382 . S
C276 C278 1.403 . S
C277 H256 0.950 . S
C277 C276 1.382 . S
C277 C293 1.411 . S
C278 C276 1.403 . S
C278 C279 1.489 . S
C278 C292 1.411 . S
C279 C278 1.489 . S
C279 C280 1.383 . S
C279 C284 1.382 . S
C280 H257 0.950 . S
C280 C279 1.383 . S
C280 C281 1.395 . S
C281 H258 0.950 . S
C281 C280 1.395 . S
C281 C282 1.288 . S
C282 C281 1.288 . S
C282 C283 1.392 . S
C283 H259 0.951 . S
C283 C282 1.392 . S
C283 C284 1.392 . S
C284 H260 0.949 . S
C284 C279 1.382 . S
C284 C283 1.392 . S
C285 C286 1.376 . S
C285 C290 1.386 . S
C285 C291 1.483 . S
C286 H261 0.949 . S
C286 C285 1.376 . S
C286 C287 1.397 . S
C287 H262 0.950 . S
C287 C286 1.397 . S
C287 C288 1.391 . S
C288 C287 1.391 . S
C288 C289 1.405 . S
C289 H263 0.950 . S
C289 C288 1.405 . S
C289 C290 1.367 . S
C290 H264 0.950 . S
C290 C285 1.386 . S
C290 C289 1.367 . S
C291 C285 1.483 . S
C291 C292 1.382 . S
C291 C293 1.403 . S
C292 H265 0.950 . S
C292 C278 1.411 . S
C292 C291 1.382 . S
C293 C277 1.411 . S
C293 C291 1.403 . S
C293 C294 1.489 . S
C294 C293 1.489 . S
C294 C295 1.383 . S
C294 C299 1.382 . S
C295 H266 0.950 . S
C295 C294 1.383 . S
C295 C296 1.395 . S
C296 H267 0.950 . S
C296 C295 1.395 . S
C296 C297 1.288 . S
C297 C296 1.288 . S
C297 C298 1.392 . S
C298 H268 0.951 . S
C298 C297 1.392 . S
C298 C299 1.392 . S
C299 H269 0.949 . S
C299 C294 1.382 . S
C299 C298 1.392 . S
H300 C319 0.949 . S
H301 C320 0.950 . S
H302 C322 0.950 . S
H303 C323 0.950 . S
H304 C325 0.950 . S
H305 C328 0.950 . S
H306 C329 0.950 . S
H307 C331 0.951 . S
H308 C332 0.949 . S
H309 C334 0.949 . S
H310 C335 0.950 . S
H311 C337 0.950 . S
H312 C338 0.950 . S
H313 C340 0.950 . S
H314 C343 0.950 . S
H315 C344 0.950 . S
H316 C346 0.951 . S
H317 C347 0.949 . S
C318 C319 1.376 . S
C318 C323 1.386 . S
C318 C324 1.483 . S
C319 H300 0.949 . S
C319 C318 1.376 . S
C319 C320 1.397 . S
C320 H301 0.950 . S
C320 C319 1.397 . S
C320 C321 1.391 . S
C321 C320 1.391 . S
C321 C322 1.405 . S
C322 H302 0.950 . S
C322 C321 1.405 . S
C322 C323 1.367 . S
C323 H303 0.950 . S
C323 C318 1.386 . S
C323 C322 1.367 . S
C324 C318 1.483 . S
C324 C325 1.382 . S
C324 C326 1.403 . S
C325 H304 0.950 . S
C325 C324 1.382 . S
C325 C341 1.411 . S
C326 C324 1.403 . S
C326 C327 1.489 . S
C326 C340 1.411 . S
C327 C326 1.489 . S
C327 C328 1.383 . S
C327 C332 1.382 . S
C328 H305 0.950 . S
C328 C327 1.383 . S
C328 C329 1.395 . S
C329 H306 0.950 . S
C329 C328 1.395 . S
C329 C330 1.288 . S
C330 C329 1.288 . S
C330 C331 1.392 . S
C331 H307 0.951 . S
C331 C330 1.392 . S
C331 C332 1.392 . S
C332 H308 0.949 . S
C332 C327 1.382 . S
C332 C331 1.392 . S
C333 C334 1.376 . S
C333 C338 1.386 . S
C333 C339 1.483 . S
C334 H309 0.949 . S
C334 C333 1.376 . S
C334 C335 1.397 . S
C335 H310 0.950 . S
C335 C334 1.397 . S
C335 C336 1.391 . S
C336 C335 1.391 . S
C336 C337 1.405 . S
C337 H311 0.950 . S
C337 C336 1.405 . S
C337 C338 1.367 . S
C338 H312 0.950 . S
C338 C333 1.386 . S
C338 C337 1.367 . S
C339 C333 1.483 . S
C339 C340 1.382 . S
C339 C341 1.403 . S
C340 H313 0.950 . S
C340 C326 1.411 . S
C340 C339 1.382 . S
C341 C325 1.411 . S
C341 C339 1.403 . S
C341 C342 1.489 . S
C342 C341 1.489 . S
C342 C343 1.383 . S
C342 C347 1.382 . S
C343 H314 0.950 . S
C343 C342 1.383 . S
C343 C344 1.395 . S
C344 H315 0.950 . S
C344 C343 1.395 . S
C344 C345 1.288 . S
C345 C344 1.288 . S
C345 C346 1.392 . S
C346 H316 0.951 . S
C346 C345 1.392 . S
C346 C347 1.392 . S
C347 H317 0.949 . S
C347 C342 1.382 . S
C347 C346 1.392 . S
H348 C367 0.949 . S
H349 C368 0.950 . S
H350 C370 0.950 . S
H351 C371 0.950 . S
H352 C373 0.950 . S
H353 C376 0.950 . S
H354 C377 0.950 . S
H355 C379 0.951 . S
H356 C380 0.949 . S
H357 C382 0.949 . S
H358 C383 0.950 . S
H359 C385 0.950 . S
H360 C386 0.950 . S
H361 C388 0.950 . S
H362 C391 0.950 . S
H363 C392 0.950 . S
H364 C394 0.951 . S
H365 C395 0.949 . S
C366 C367 1.376 . S
C366 C371 1.386 . S
C366 C372 1.483 . S
C367 H348 0.949 . S
C367 C366 1.376 . S
C367 C368 1.397 . S
C368 H349 0.950 . S
C368 C367 1.397 . S
C368 C369 1.391 . S
C369 C368 1.391 . S
C369 C370 1.405 . S
C370 H350 0.950 . S
C370 C369 1.405 . S
C370 C371 1.367 . S
C371 H351 0.950 . S
C371 C366 1.386 . S
C371 C370 1.367 . S
C372 C366 1.483 . S
C372 C373 1.382 . S
C372 C374 1.403 . S
C373 H352 0.950 . S
C373 C372 1.382 . S
C373 C389 1.411 . S
C374 C372 1.403 . S
C374 C375 1.489 . S
C374 C388 1.411 . S
C375 C374 1.489 . S
C375 C376 1.383 . S
C375 C380 1.382 . S
C376 H353 0.950 . S
C376 C375 1.383 . S
C376 C377 1.395 . S
C377 H354 0.950 . S
C377 C376 1.395 . S
C377 C378 1.288 . S
C378 C377 1.288 . S
C378 C379 1.392 . S
C379 H355 0.951 . S
C379 C378 1.392 . S
C379 C380 1.392 . S
C380 H356 0.949 . S
C380 C375 1.382 . S
C380 C379 1.392 . S
C381 C382 1.376 . S
C381 C386 1.386 . S
C381 C387 1.483 . S
C382 H357 0.949 . S
C382 C381 1.376 . S
C382 C383 1.397 . S
C383 H358 0.950 . S
C383 C382 1.397 . S
C383 C384 1.391 . S
C384 C383 1.391 . S
C384 C385 1.405 . S
C385 H359 0.950 . S
C385 C384 1.405 . S
C385 C386 1.367 . S
C386 H360 0.950 . S
C386 C381 1.386 . S
C386 C385 1.367 . S
C387 C381 1.483 . S
C387 C388 1.382 . S
C387 C389 1.403 . S
C388 H361 0.950 . S
C388 C374 1.411 . S
C388 C387 1.382 . S
C389 C373 1.411 . S
C389 C387 1.403 . S
C389 C390 1.489 . S
C390 C389 1.489 . S
C390 C391 1.383 . S
C390 C395 1.382 . S
C391 H362 0.950 . S
C391 C390 1.383 . S
C391 C392 1.395 . S
C392 H363 0.950 . S
C392 C391 1.395 . S
C392 C393 1.288 . S
C393 C392 1.288 . S
C393 C394 1.392 . S
C394 H364 0.951 . S
C394 C393 1.392 . S
C394 C395 1.392 . S
C395 H365 0.949 . S
C395 C390 1.382 . S
C395 C394 1.392 . S
H396 C415 0.949 . S
H397 C416 0.950 . S
H398 C418 0.950 . S
H399 C419 0.950 . S
H400 C421 0.950 . S
H401 C424 0.950 . S
H402 C425 0.950 . S
H403 C427 0.951 . S
H404 C428 0.949 . S
H405 C430 0.949 . S
H406 C431 0.950 . S
H407 C433 0.950 . S
H408 C434 0.950 . S
H409 C436 0.950 . S
H410 C439 0.950 . S
H411 C440 0.950 . S
H412 C442 0.951 . S
H413 C443 0.949 . S
C414 C415 1.376 . S
C414 C419 1.386 . S
C414 C420 1.483 . S
C415 H396 0.949 . S
C415 C414 1.376 . S
C415 C416 1.397 . S
C416 H397 0.950 . S
C416 C415 1.397 . S
C416 C417 1.391 . S
C417 C416 1.391 . S
C417 C418 1.405 . S
C418 H398 0.950 . S
C418 C417 1.405 . S
C418 C419 1.367 . S
C419 H399 0.950 . S
C419 C414 1.386 . S
C419 C418 1.367 . S
C420 C414 1.483 . S
C420 C421 1.382 . S
C420 C422 1.403 . S
C421 H400 0.950 . S
C421 C420 1.382 . S
C421 C437 1.411 . S
C422 C420 1.403 . S
C422 C423 1.489 . S
C422 C436 1.411 . S
C423 C422 1.489 . S
C423 C424 1.383 . S
C423 C428 1.382 . S
C424 H401 0.950 . S
C424 C423 1.383 . S
C424 C425 1.395 . S
C425 H402 0.950 . S
C425 C424 1.395 . S
C425 C426 1.288 . S
C426 C425 1.288 . S
C426 C427 1.392 . S
C427 H403 0.951 . S
C427 C426 1.392 . S
C427 C428 1.392 . S
C428 H404 0.949 . S
C428 C423 1.382 . S
C428 C427 1.392 . S
C429 C430 1.376 . S
C429 C434 1.386 . S
C429 C435 1.483 . S
C430 H405 0.949 . S
C430 C429 1.376 . S
C430 C431 1.397 . S
C431 H406 0.950 . S
C431 C430 1.397 . S
C431 C432 1.391 . S
C432 C431 1.391 . S
C432 C433 1.405 . S
C433 H407 0.950 . S
C433 C432 1.405 . S
C433 C434 1.367 . S
C434 H408 0.950 . S
C434 C429 1.386 . S
C434 C433 1.367 . S
C435 C429 1.483 . S
C435 C436 1.382 . S
C435 C437 1.403 . S
C436 H409 0.950 . S
C436 C422 1.411 . S
C436 C435 1.382 . S
C437 C421 1.411 . S
C437 C435 1.403 . S
C437 C438 1.489 . S
C438 C437 1.489 . S
C438 C439 1.383 . S
C438 C443 1.382 . S
C439 H410 0.950 . S
C439 C438 1.383 . S
C439 C440 1.395 . S
C440 H411 0.950 . S
C440 C439 1.395 . S
C440 C441 1.288 . S
C441 C440 1.288 . S
C441 C442 1.392 . S
C442 H412 0.951 . S
C442 C441 1.392 . S
C442 C443 1.392 . S
C443 H413 0.949 . S
C443 C438 1.382 . S
C443 C442 1.392 . S
H444 C463 0.949 . S
H445 C464 0.950 . S
H446 C466 0.950 . S
H447 C467 0.950 . S
H448 C469 0.950 . S
H449 C472 0.950 . S
H450 C473 0.950 . S
H451 C475 0.951 . S
H452 C476 0.949 . S
H453 C478 0.949 . S
H454 C479 0.950 . S
H455 C481 0.950 . S
H456 C482 0.950 . S
H457 C484 0.950 . S
H458 C487 0.950 . S
H459 C488 0.950 . S
H460 C490 0.951 . S
H461 C491 0.949 . S
C462 C463 1.376 . S
C462 C467 1.386 . S
C462 C468 1.483 . S
C463 H444 0.949 . S
C463 C462 1.376 . S
C463 C464 1.397 . S
C464 H445 0.950 . S
C464 C463 1.397 . S
C464 C465 1.391 . S
C465 C464 1.391 . S
C465 C466 1.405 . S
C466 H446 0.950 . S
C466 C465 1.405 . S
C466 C467 1.367 . S
C467 H447 0.950 . S
C467 C462 1.386 . S
C467 C466 1.367 . S
C468 C462 1.483 . S
C468 C469 1.382 . S
C468 C470 1.403 . S
C469 H448 0.950 . S
C469 C468 1.382 . S
C469 C485 1.411 . S
C470 C468 1.403 . S
C470 C471 1.489 . S
C470 C484 1.411 . S
C471 C470 1.489 . S
C471 C472 1.383 . S
C471 C476 1.382 . S
C472 H449 0.950 . S
C472 C471 1.383 . S
C472 C473 1.395 . S
C473 H450 0.950 . S
C473 C472 1.395 . S
C473 C474 1.288 . S
C474 C473 1.288 . S
C474 C475 1.392 . S
C475 H451 0.951 . S
C475 C474 1.392 . S
C475 C476 1.392 . S
C476 H452 0.949 . S
C476 C471 1.382 . S
C476 C475 1.392 . S
C477 C478 1.376 . S
C477 C482 1.386 . S
C477 C483 1.483 . S
C478 H453 0.949 . S
C478 C477 1.376 . S
C478 C479 1.397 . S
C479 H454 0.950 . S
C479 C478 1.397 . S
C479 C480 1.391 . S
C480 C479 1.391 . S
C480 C481 1.405 . S
C481 H455 0.950 . S
C481 C480 1.405 . S
C481 C482 1.367 . S
C482 H456 0.950 . S
C482 C477 1.386 . S
C482 C481 1.367 . S
C483 C477 1.483 . S
C483 C484 1.382 . S
C483 C485 1.403 . S
C484 H457 0.950 . S
C484 C470 1.411 . S
C484 C483 1.382 . S
C485 C469 1.411 . S
C485 C483 1.403 . S
C485 C486 1.489 . S
C486 C485 1.489 . S
C486 C487 1.383 . S
C486 C491 1.382 . S
C487 H458 0.950 . S
C487 C486 1.383 . S
C487 C488 1.395 . S
C488 H459 0.950 . S
C488 C487 1.395 . S
C488 C489 1.288 . S
C489 C488 1.288 . S
C489 C490 1.392 . S
C490 H460 0.951 . S
C490 C489 1.392 . S
C490 C491 1.392 . S
C491 H461 0.949 . S
C491 C486 1.382 . S
C491 C490 1.392 . S
H492 C511 0.949 . S
H493 C512 0.950 . S
H494 C514 0.950 . S
H495 C515 0.950 . S
H496 C517 0.950 . S
H497 C520 0.950 . S
H498 C521 0.950 . S
H499 C523 0.951 . S
H500 C524 0.949 . S
H501 C526 0.949 . S
H502 C527 0.950 . S
H503 C529 0.950 . S
H504 C530 0.950 . S
H505 C532 0.950 . S
H506 C535 0.950 . S
H507 C536 0.950 . S
H508 C538 0.951 . S
H509 C539 0.949 . S
C510 C511 1.376 . S
C510 C515 1.386 . S
C510 C516 1.483 . S
C511 H492 0.949 . S
C511 C510 1.376 . S
C511 C512 1.397 . S
C512 H493 0.950 . S
C512 C511 1.397 . S
C512 C513 1.391 . S
C513 C512 1.391 . S
C513 C514 1.405 . S
C514 H494 0.950 . S
C514 C513 1.405 . S
C514 C515 1.367 . S
C515 H495 0.950 . S
C515 C510 1.386 . S
C515 C514 1.367 . S
C516 C510 1.483 . S
C516 C517 1.382 . S
C516 C518 1.403 . S
C517 H496 0.950 . S
C517 C516 1.382 . S
C517 C533 1.411 . S
C518 C516 1.403 . S
C518 C519 1.489 . S
C518 C532 1.411 . S
C519 C518 1.489 . S
C519 C520 1.383 . S
C519 C524 1.382 . S
C520 H497 0.950 . S
C520 C519 1.383 . S
C520 C521 1.395 . S
C521 H498 0.950 . S
C521 C520 1.395 . S
C521 C522 1.288 . S
C522 C521 1.288 . S
C522 C523 1.392 . S
C523 H499 0.951 . S
C523 C522 1.392 . S
C523 C524 1.392 . S
C524 H500 0.949 . S
C524 C519 1.382 . S
C524 C523 1.392 . S
C525 C526 1.376 . S
C525 C530 1.386 . S
C525 C531 1.483 . S
C526 H501 0.949 . S
C526 C525 1.376 . S
C526 C527 1.397 . S
C527 H502 0.950 . S
C527 C526 1.397 . S
C527 C528 1.391 . S
C528 C527 1.391 . S
C528 C529 1.405 . S
C529 H503 0.950 . S
C529 C528 1.405 . S
C529 C530 1.367 . S
C530 H504 0.950 . S
C530 C525 1.386 . S
C530 C529 1.367 . S
C531 C525 1.483 . S
C531 C532 1.382 . S
C531 C533 1.403 . S
C532 H505 0.950 . S
C532 C518 1.411 . S
C532 C531 1.382 . S
C533 C517 1.411 . S
C533 C531 1.403 . S
C533 C534 1.489 . S
C534 C533 1.489 . S
C534 C535 1.383 . S
C534 C539 1.382 . S
C535 H506 0.950 . S
C535 C534 1.383 . S
C535 C536 1.395 . S
C536 H507 0.950 . S
C536 C535 1.395 . S
C536 C537 1.288 . S
C537 C536 1.288 . S
C537 C538 1.392 . S
C538 H508 0.951 . S
C538 C537 1.392 . S
C538 C539 1.392 . S
C539 H509 0.949 . S
C539 C534 1.382 . S
C539 C538 1.392 . S
H540 C559 0.949 . S
H541 C560 0.950 . S
H542 C562 0.950 . S
H543 C563 0.950 . S
H544 C565 0.950 . S
H545 C568 0.950 . S
H546 C569 0.950 . S
H547 C571 0.951 . S
H548 C572 0.949 . S
H549 C574 0.949 . S
H550 C575 0.950 . S
H551 C577 0.950 . S
H552 C578 0.950 . S
H553 C580 0.950 . S
H554 C583 0.950 . S
H555 C584 0.950 . S
H556 C586 0.951 . S
H557 C587 0.949 . S
C558 C559 1.376 . S
C558 C563 1.386 . S
C558 C564 1.483 . S
C559 H540 0.949 . S
C559 C558 1.376 . S
C559 C560 1.397 . S
C560 H541 0.950 . S
C560 C559 1.397 . S
C560 C561 1.391 . S
C561 C560 1.391 . S
C561 C562 1.405 . S
C562 H542 0.950 . S
C562 C561 1.405 . S
C562 C563 1.367 . S
C563 H543 0.950 . S
C563 C558 1.386 . S
C563 C562 1.367 . S
C564 C558 1.483 . S
C564 C565 1.382 . S
C564 C566 1.403 . S
C565 H544 0.950 . S
C565 C564 1.382 . S
C565 C581 1.411 . S
C566 C564 1.403 . S
C566 C567 1.489 . S
C566 C580 1.411 . S
C567 C566 1.489 . S
C567 C568 1.383 . S
C567 C572 1.382 . S
C568 H545 0.950 . S
C568 C567 1.383 . S
C568 C569 1.395 . S
C569 H546 0.950 . S
C569 C568 1.395 . S
C569 C570 1.288 . S
C570 C569 1.288 . S
C570 C571 1.392 . S
C571 H547 0.951 . S
C571 C570 1.392 . S
C571 C572 1.392 . S
C572 H548 0.949 . S
C572 C567 1.382 . S
C572 C571 1.392 . S
C573 C574 1.376 . S
C573 C578 1.386 . S
C573 C579 1.483 . S
C574 H549 0.949 . S
C574 C573 1.376 . S
C574 C575 1.397 . S
C575 H550 0.950 . S
C575 C574 1.397 . S
C575 C576 1.391 . S
C576 C575 1.391 . S
C576 C577 1.405 . S
C577 H551 0.950 . S
C577 C576 1.405 . S
C577 C578 1.367 . S
C578 H552 0.950 . S
C578 C573 1.386 . S
C578 C577 1.367 . S
C579 C573 1.483 . S
C579 C580 1.382 . S
C579 C581 1.403 . S
C580 H553 0.950 . S
C580 C566 1.411 . S
C580 C579 1.382 . S
C581 C565 1.411 . S
C581 C579 1.403 . S
C581 C582 1.489 . S
C582 C581 1.489 . S
C582 C583 1.383 . S
C582 C587 1.382 . S
C583 H554 0.950 . S
C583 C582 1.383 . S
C583 C584 1.395 . S
C584 H555 0.950 . S
C584 C583 1.395 . S
C584 C585 1.288 . S
C585 C584 1.288 . S
C585 C586 1.392 . S
C586 H556 0.951 . S
C586 C585 1.392 . S
C586 C587 1.392 . S
C587 H557 0.949 . S
C587 C582 1.382 . S
C587 C586 1.392 . S
H588 C607 0.949 . S
H589 C608 0.950 . S
H590 C610 0.950 . S
H591 C611 0.950 . S
H592 C613 0.950 . S
H593 C616 0.950 . S
H594 C617 0.950 . S
H595 C619 0.951 . S
H596 C620 0.949 . S
H597 C622 0.949 . S
H598 C623 0.950 . S
H599 C625 0.950 . S
H600 C626 0.950 . S
H601 C628 0.950 . S
H602 C631 0.950 . S
H603 C632 0.950 . S
H604 C634 0.951 . S
H605 C635 0.949 . S
C606 C607 1.376 . S
C606 C611 1.386 . S
C606 C612 1.483 . S
C607 H588 0.949 . S
C607 C606 1.376 . S
C607 C608 1.397 . S
C608 H589 0.950 . S
C608 C607 1.397 . S
C608 C609 1.391 . S
C609 C608 1.391 . S
C609 C610 1.405 . S
C610 H590 0.950 . S
C610 C609 1.405 . S
C610 C611 1.367 . S
C611 H591 0.950 . S
C611 C606 1.386 . S
C611 C610 1.367 . S
C612 C606 1.483 . S
C612 C613 1.382 . S
C612 C614 1.403 . S
C613 H592 0.950 . S
C613 C612 1.382 . S
C613 C629 1.411 . S
C614 C612 1.403 . S
C614 C615 1.489 . S
C614 C628 1.411 . S
C615 C614 1.489 . S
C615 C616 1.383 . S
C615 C620 1.382 . S
C616 H593 0.950 . S
C616 C615 1.383 . S
C616 C617 1.395 . S
C617 H594 0.950 . S
C617 C616 1.395 . S
C617 C618 1.288 . S
C618 C617 1.288 . S
C618 C619 1.392 . S
C619 H595 0.951 . S
C619 C618 1.392 . S
C619 C620 1.392 . S
C620 H596 0.949 . S
C620 C615 1.382 . S
C620 C619 1.392 . S
C621 C622 1.376 . S
C621 C626 1.386 . S
C621 C627 1.483 . S
C622 H597 0.949 . S
C622 C621 1.376 . S
C622 C623 1.397 . S
C623 H598 0.950 . S
C623 C622 1.397 . S
C623 C624 1.391 . S
C624 C623 1.391 . S
C624 C625 1.405 . S
C625 H599 0.950 . S
C625 C624 1.405 . S
C625 C626 1.367 . S
C626 H600 0.950 . S
C626 C621 1.386 . S
C626 C625 1.367 . S
C627 C621 1.483 . S
C627 C628 1.382 . S
C627 C629 1.403 . S
C628 H601 0.950 . S
C628 C614 1.411 . S
C628 C627 1.382 . S
C629 C613 1.411 . S
C629 C627 1.403 . S
C629 C630 1.489 . S
C630 C629 1.489 . S
C630 C631 1.383 . S
C630 C635 1.382 . S
C631 H602 0.950 . S
C631 C630 1.383 . S
C631 C632 1.395 . S
C632 H603 0.950 . S
C632 C631 1.395 . S
C632 C633 1.288 . S
C633 C632 1.288 . S
C633 C634 1.392 . S
C634 H604 0.951 . S
C634 C633 1.392 . S
C634 C635 1.392 . S
C635 H605 0.949 . S
C635 C630 1.382 . S
C635 C634 1.392 . S
H636 C655 0.949 . S
H637 C656 0.950 . S
H638 C658 0.950 . S
H639 C659 0.950 . S
H640 C661 0.950 . S
H641 C664 0.950 . S
H642 C665 0.950 . S
H643 C667 0.951 . S
H644 C668 0.949 . S
H645 C670 0.949 . S
H646 C671 0.950 . S
H647 C673 0.950 . S
H648 C674 0.950 . S
H649 C676 0.950 . S
H650 C679 0.950 . S
H651 C680 0.950 . S
H652 C682 0.951 . S
H653 C683 0.949 . S
C654 C655 1.376 . S
C654 C659 1.386 . S
C654 C660 1.483 . S
C655 H636 0.949 . S
C655 C654 1.376 . S
C655 C656 1.397 . S
C656 H637 0.950 . S
C656 C655 1.397 . S
C656 C657 1.391 . S
C657 C656 1.391 . S
C657 C658 1.405 . S
C658 H638 0.950 . S
C658 C657 1.405 . S
C658 C659 1.367 . S
C659 H639 0.950 . S
C659 C654 1.386 . S
C659 C658 1.367 . S
C660 C654 1.483 . S
C660 C661 1.382 . S
C660 C662 1.403 . S
C661 H640 0.950 . S
C661 C660 1.382 . S
C661 C677 1.411 . S
C662 C660 1.403 . S
C662 C663 1.489 . S
C662 C676 1.411 . S
C663 C662 1.489 . S
C663 C664 1.383 . S
C663 C668 1.382 . S
C664 H641 0.950 . S
C664 C663 1.383 . S
C664 C665 1.395 . S
C665 H642 0.950 . S
C665 C664 1.395 . S
C665 C666 1.288 . S
C666 C665 1.288 . S
C666 C667 1.392 . S
C667 H643 0.951 . S
C667 C666 1.392 . S
C667 C668 1.392 . S
C668 H644 0.949 . S
C668 C663 1.382 . S
C668 C667 1.392 . S
C669 C670 1.376 . S
C669 C674 1.386 . S
C669 C675 1.483 . S
C670 H645 0.949 . S
C670 C669 1.376 . S
C670 C671 1.397 . S
C671 H646 0.950 . S
C671 C670 1.397 . S
C671 C672 1.391 . S
C672 C671 1.391 . S
C672 C673 1.405 . S
C673 H647 0.950 . S
C673 C672 1.405 . S
C673 C674 1.367 . S
C674 H648 0.950 . S
C674 C669 1.386 . S
C674 C673 1.367 . S
C675 C669 1.483 . S
C675 C676 1.382 . S
C675 C677 1.403 . S
C676 H649 0.950 . S
C676 C662 1.411 . S
C676 C675 1.382 . S
C677 C661 1.411 . S
C677 C675 1.403 . S
C677 C678 1.489 . S
C678 C677 1.489 . S
C678 C679 1.383 . S
C678 C683 1.382 . S
C679 H650 0.950 . S
C679 C678 1.383 . S
C679 C680 1.395 . S
C680 H651 0.950 . S
C680 C679 1.395 . S
C680 C681 1.288 . S
C681 C680 1.288 . S
C681 C682 1.392 . S
C682 H652 0.951 . S
C682 C681 1.392 . S
C682 C683 1.392 . S
C683 H653 0.949 . S
C683 C678 1.382 . S
C683 C682 1.392 . S
H684 C703 0.949 . S
H685 C704 0.950 . S
H686 C706 0.950 . S
H687 C707 0.950 . S
H688 C709 0.950 . S
H689 C712 0.950 . S
H690 C713 0.950 . S
H691 C715 0.951 . S
H692 C716 0.949 . S
H693 C718 0.949 . S
H694 C719 0.950 . S
H695 C721 0.950 . S
H696 C722 0.950 . S
H697 C724 0.950 . S
H698 C727 0.950 . S
H699 C728 0.950 . S
H700 C730 0.951 . S
H701 C731 0.949 . S
C702 C703 1.376 . S
C702 C707 1.386 1_655 S
C702 C708 1.483 . S
C703 H684 0.949 . S
C703 C702 1.376 . S
C703 C704 1.397 . S
C704 H685 0.950 . S
C704 C703 1.397 . S
C704 C705 1.391 . S
C705 C704 1.391 . S
C705 C706 1.405 1_655 S
C706 H686 0.950 . S
C706 C705 1.405 1_455 S
C706 C707 1.367 . S
C707 H687 0.950 . S
C707 C702 1.386 1_455 S
C707 C706 1.367 . S
C708 C702 1.483 . S
C708 C709 1.382 . S
C708 C710 1.403 1_655 S
C709 H688 0.950 . S
C709 C708 1.382 . S
C709 C725 1.411 . S
C710 C708 1.403 1_455 S
C710 C711 1.489 . S
C710 C724 1.411 . S
C711 C710 1.489 . S
C711 C712 1.383 1_455 S
C711 C716 1.382 . S
C712 H689 0.950 . S
C712 C711 1.383 1_655 S
C712 C713 1.395 . S
C713 H690 0.950 . S
C713 C712 1.395 . S
C713 C714 1.288 1_655 S
C714 C713 1.288 1_455 S
C714 C715 1.392 . S
C715 H691 0.951 . S
C715 C714 1.392 . S
C715 C716 1.392 . S
C716 H692 0.949 . S
C716 C711 1.382 . S
C716 C715 1.392 . S
C717 C718 1.376 . S
C717 C722 1.386 1_455 S
C717 C723 1.483 . S
C718 H693 0.949 . S
C718 C717 1.376 . S
C718 C719 1.397 . S
C719 H694 0.950 . S
C719 C718 1.397 . S
C719 C720 1.391 . S
C720 C719 1.391 . S
C720 C721 1.405 1_455 S
C721 H695 0.950 . S
C721 C720 1.405 1_655 S
C721 C722 1.367 . S
C722 H696 0.950 . S
C722 C717 1.386 1_655 S
C722 C721 1.367 . S
C723 C717 1.483 . S
C723 C724 1.382 . S
C723 C725 1.403 1_455 S
C724 H697 0.950 . S
C724 C710 1.411 . S
C724 C723 1.382 . S
C725 C709 1.411 . S
C725 C723 1.403 1_655 S
C725 C726 1.489 . S
C726 C725 1.489 . S
C726 C727 1.383 1_655 S
C726 C731 1.382 . S
C727 H698 0.950 . S
C727 C726 1.383 1_455 S
C727 C728 1.395 . S
C728 H699 0.950 . S
C728 C727 1.395 . S
C728 C729 1.288 1_455 S
C729 C728 1.288 1_655 S
C729 C730 1.392 . S
C730 H700 0.951 . S
C730 C729 1.392 . S
C730 C731 1.392 . S
C731 H701 0.949 . S
C731 C726 1.382 . S
C731 C730 1.392 . S
H732 C751 0.949 . S
H733 C752 0.950 . S
H734 C754 0.950 . S
H735 C755 0.950 . S
H736 C757 0.950 . S
H737 C760 0.950 . S
H738 C761 0.950 . S
H739 C763 0.951 . S
H740 C764 0.949 . S
H741 C766 0.949 . S
H742 C767 0.950 . S
H743 C769 0.950 . S
H744 C770 0.950 . S
H745 C772 0.950 . S
H746 C775 0.950 . S
H747 C776 0.950 . S
H748 C778 0.951 . S
H749 C779 0.949 . S
C750 C751 1.376 . S
C750 C755 1.386 . S
C750 C756 1.483 . S
C751 H732 0.949 . S
C751 C750 1.376 . S
C751 C752 1.397 . S
C752 H733 0.950 . S
C752 C751 1.397 . S
C752 C753 1.391 . S
C753 C752 1.391 . S
C753 C754 1.405 . S
C754 H734 0.950 . S
C754 C753 1.405 . S
C754 C755 1.367 . S
C755 H735 0.950 . S
C755 C750 1.386 . S
C755 C754 1.367 . S
C756 C750 1.483 . S
C756 C757 1.382 . S
C756 C758 1.403 . S
C757 H736 0.950 . S
C757 C756 1.382 . S
C757 C773 1.411 . S
C758 C756 1.403 . S
C758 C759 1.489 . S
C758 C772 1.411 . S
C759 C758 1.489 . S
C759 C760 1.383 . S
C759 C764 1.382 . S
C760 H737 0.950 . S
C760 C759 1.383 . S
C760 C761 1.395 . S
C761 H738 0.950 . S
C761 C760 1.395 . S
C761 C762 1.288 . S
C762 C761 1.288 . S
C762 C763 1.392 . S
C763 H739 0.951 . S
C763 C762 1.392 . S
C763 C764 1.392 . S
C764 H740 0.949 . S
C764 C759 1.382 . S
C764 C763 1.392 . S
C765 C766 1.376 . S
C765 C770 1.386 . S
C765 C771 1.483 . S
C766 H741 0.949 . S
C766 C765 1.376 . S
C766 C767 1.397 . S
C767 H742 0.950 . S
C767 C766 1.397 . S
C767 C768 1.391 . S
C768 C767 1.391 . S
C768 C769 1.405 . S
C769 H743 0.950 . S
C769 C768 1.405 . S
C769 C770 1.367 . S
C770 H744 0.950 . S
C770 C765 1.386 . S
C770 C769 1.367 . S
C771 C765 1.483 . S
C771 C772 1.382 . S
C771 C773 1.403 . S
C772 H745 0.950 . S
C772 C758 1.411 . S
C772 C771 1.382 . S
C773 C757 1.411 . S
C773 C771 1.403 . S
C773 C774 1.489 . S
C774 C773 1.489 . S
C774 C775 1.383 . S
C774 C779 1.382 . S
C775 H746 0.950 . S
C775 C774 1.383 . S
C775 C776 1.395 . S
C776 H747 0.950 . S
C776 C775 1.395 . S
C776 C777 1.288 . S
C777 C776 1.288 . S
C777 C778 1.392 . S
C778 H748 0.951 . S
C778 C777 1.392 . S
C778 C779 1.392 . S
C779 H749 0.949 . S
C779 C774 1.382 . S
C779 C778 1.392 . S
H780 C799 0.949 . S
H781 C800 0.950 . S
H782 C802 0.950 . S
H783 C803 0.950 . S
H784 C805 0.950 . S
H785 C808 0.950 . S
H786 C809 0.950 . S
H787 C811 0.951 . S
H788 C812 0.949 . S
H789 C814 0.949 . S
H790 C815 0.950 . S
H791 C817 0.950 . S
H792 C818 0.950 . S
H793 C820 0.950 . S
H794 C823 0.950 . S
H795 C824 0.950 . S
H796 C826 0.951 . S
H797 C827 0.949 . S
C798 C799 1.376 . S
C798 C803 1.386 1_545 S
C798 C804 1.483 . S
C799 H780 0.949 . S
C799 C798 1.376 . S
C799 C800 1.397 . S
C800 H781 0.950 . S
C800 C799 1.397 . S
C800 C801 1.391 . S
C801 C800 1.391 . S
C801 C802 1.405 1_545 S
C802 H782 0.950 . S
C802 C801 1.405 1_565 S
C802 C803 1.367 . S
C803 H783 0.950 . S
C803 C798 1.386 1_565 S
C803 C802 1.367 . S
C804 C798 1.483 . S
C804 C805 1.382 . S
C804 C806 1.403 1_545 S
C805 H784 0.950 . S
C805 C804 1.382 . S
C805 C821 1.411 . S
C806 C804 1.403 1_565 S
C806 C807 1.489 . S
C806 C820 1.411 . S
C807 C806 1.489 . S
C807 C808 1.383 1_565 S
C807 C812 1.382 . S
C808 H785 0.950 . S
C808 C807 1.383 1_545 S
C808 C809 1.395 . S
C809 H786 0.950 . S
C809 C808 1.395 . S
C809 C810 1.288 1_545 S
C810 C809 1.288 1_565 S
C810 C811 1.392 . S
C811 H787 0.951 . S
C811 C810 1.392 . S
C811 C812 1.392 . S
C812 H788 0.949 . S
C812 C807 1.382 . S
C812 C811 1.392 . S
C813 C814 1.376 . S
C813 C818 1.386 1_565 S
C813 C819 1.483 . S
C814 H789 0.949 . S
C814 C813 1.376 . S
C814 C815 1.397 . S
C815 H790 0.950 . S
C815 C814 1.397 . S
C815 C816 1.391 . S
C816 C815 1.391 . S
C816 C817 1.405 1_565 S
C817 H791 0.950 . S
C817 C816 1.405 1_545 S
C817 C818 1.367 . S
C818 H792 0.950 . S
C818 C813 1.386 1_545 S
C818 C817 1.367 . S
C819 C813 1.483 . S
C819 C820 1.382 . S
C819 C821 1.403 1_565 S
C820 H793 0.950 . S
C820 C806 1.411 . S
C820 C819 1.382 . S
C821 C805 1.411 . S
C821 C819 1.403 1_545 S
C821 C822 1.489 . S
C822 C821 1.489 . S
C822 C823 1.383 1_545 S
C822 C827 1.382 . S
C823 H794 0.950 . S
C823 C822 1.383 1_565 S
C823 C824 1.395 . S
C824 H795 0.950 . S
C824 C823 1.395 . S
C824 C825 1.288 1_565 S
C825 C824 1.288 1_545 S
C825 C826 1.392 . S
C826 H796 0.951 . S
C826 C825 1.392 . S
C826 C827 1.392 . S
C827 H797 0.949 . S
C827 C822 1.382 . S
C827 C826 1.392 . S
H828 C847 0.949 . S
H829 C848 0.950 . S
H830 C850 0.950 . S
H831 C851 0.950 . S
H832 C853 0.950 . S
H833 C856 0.950 . S
H834 C857 0.950 . S
H835 C859 0.951 . S
H836 C860 0.949 . S
H837 C862 0.949 . S
H838 C863 0.950 . S
H839 C865 0.950 . S
H840 C866 0.950 . S
H841 C868 0.950 . S
H842 C871 0.950 . S
H843 C872 0.950 . S
H844 C874 0.951 . S
H845 C875 0.949 . S
C846 C847 1.414 . S
C846 C851 1.370 1_545 S
C846 C852 1.497 . S
C847 H828 0.949 . S
C847 C846 1.414 . S
C847 C848 1.397 . S
C848 H829 0.950 . S
C848 C847 1.397 . S
C848 C849 1.366 1_545 S
C849 C848 1.366 1_565 S
C849 C850 1.461 . S
C850 H830 0.950 . S
C850 C849 1.461 . S
C850 C851 1.367 . S
C851 H831 0.950 . S
C851 C846 1.370 1_565 S
C851 C850 1.367 . S
C852 C846 1.497 . S
C852 C853 1.349 . S
C852 C854 1.398 1_545 S
C853 H832 0.950 . S
C853 C852 1.349 . S
C853 C869 1.438 . S
C854 C852 1.398 1_565 S
C854 C855 1.476 . S
C854 C868 1.426 . S
C855 C854 1.476 . S
C855 C856 1.384 1_565 S
C855 C860 1.381 . S
C856 H833 0.950 . S
C856 C855 1.384 1_545 S
C856 C857 1.395 . S
C857 H834 0.950 . S
C857 C856 1.395 . S
C857 C858 1.288 . S
C858 C857 1.288 . S
C858 C859 1.392 1_545 S
C859 H835 0.951 . S
C859 C858 1.392 1_565 S
C859 C860 1.392 . S
C860 H836 0.949 . S
C860 C855 1.381 . S
C860 C859 1.392 . S
C861 C862 1.397 . S
C861 C866 1.377 1_565 S
C861 C867 1.497 . S
C862 H837 0.949 . S
C862 C861 1.397 . S
C862 C863 1.397 . S
C863 H838 0.950 . S
C863 C862 1.397 . S
C863 C864 1.359 1_565 S
C864 C863 1.359 1_545 S
C864 C865 1.478 . S
C865 H839 0.950 . S
C865 C864 1.478 . S
C865 C866 1.367 . S
C866 H840 0.950 . S
C866 C861 1.377 1_545 S
C866 C865 1.367 . S
C867 C861 1.497 . S
C867 C868 1.357 . S
C867 C869 1.398 1_565 S
C868 H841 0.950 . S
C868 C854 1.426 . S
C868 C867 1.357 . S
C869 C853 1.438 . S
C869 C867 1.398 1_545 S
C869 C870 1.476 . S
C870 C869 1.476 . S
C870 C871 1.362 1_545 S
C870 C875 1.392 . S
C871 H842 0.950 . S
C871 C870 1.362 1_565 S
C871 C872 1.395 . S
C872 H843 0.950 . S
C872 C871 1.395 . S
C872 C873 1.288 . S
C873 C872 1.288 . S
C873 C874 1.392 1_565 S
C874 H844 0.951 . S
C874 C873 1.392 1_545 S
C874 C875 1.392 . S
C875 H845 0.949 . S
C875 C870 1.392 . S
C875 C874 1.392 . S
H876 C895 0.949 . S
H877 C896 0.950 . S
H878 C898 0.950 . S
H879 C899 0.950 . S
H880 C901 0.950 . S
H881 C904 0.950 . S
H882 C905 0.950 . S
H883 C907 0.951 . S
H884 C908 0.949 . S
H885 C910 0.949 . S
H886 C911 0.950 . S
H887 C913 0.950 . S
H888 C914 0.950 . S
H889 C916 0.950 . S
H890 C919 0.950 . S
H891 C920 0.950 . S
H892 C922 0.951 . S
H893 C923 0.949 . S
C894 C895 1.376 . S
C894 C899 1.386 1_455 S
C894 C900 1.483 . S
C895 H876 0.949 . S
C895 C894 1.376 . S
C895 C896 1.397 . S
C896 H877 0.950 . S
C896 C895 1.397 . S
C896 C897 1.391 . S
C897 C896 1.391 . S
C897 C898 1.405 1_455 S
C898 H878 0.950 . S
C898 C897 1.405 1_655 S
C898 C899 1.367 . S
C899 H879 0.950 . S
C899 C894 1.386 1_655 S
C899 C898 1.367 . S
C900 C894 1.483 . S
C900 C901 1.382 . S
C900 C902 1.403 1_455 S
C901 H880 0.950 . S
C901 C900 1.382 . S
C901 C917 1.411 . S
C902 C900 1.403 1_655 S
C902 C903 1.489 . S
C902 C916 1.411 . S
C903 C902 1.489 . S
C903 C904 1.383 1_655 S
C903 C908 1.382 . S
C904 H881 0.950 . S
C904 C903 1.383 1_455 S
C904 C905 1.395 . S
C905 H882 0.950 . S
C905 C904 1.395 . S
C905 C906 1.288 1_455 S
C906 C905 1.288 1_655 S
C906 C907 1.392 . S
C907 H883 0.951 . S
C907 C906 1.392 . S
C907 C908 1.392 . S
C908 H884 0.949 . S
C908 C903 1.382 . S
C908 C907 1.392 . S
C909 C910 1.376 . S
C909 C914 1.386 1_655 S
C909 C915 1.483 . S
C910 H885 0.949 . S
C910 C909 1.376 . S
C910 C911 1.397 . S
C911 H886 0.950 . S
C911 C910 1.397 . S
C911 C912 1.391 . S
C912 C911 1.391 . S
C912 C913 1.405 1_655 S
C913 H887 0.950 . S
C913 C912 1.405 1_455 S
C913 C914 1.367 . S
C914 H888 0.950 . S
C914 C909 1.386 1_455 S
C914 C913 1.367 . S
C915 C909 1.483 . S
C915 C916 1.382 . S
C915 C917 1.403 1_655 S
C916 H889 0.950 . S
C916 C902 1.411 . S
C916 C915 1.382 . S
C917 C901 1.411 . S
C917 C915 1.403 1_455 S
C917 C918 1.489 . S
C918 C917 1.489 . S
C918 C919 1.383 1_455 S
C918 C923 1.382 . S
C919 H890 0.950 . S
C919 C918 1.383 1_655 S
C919 C920 1.395 . S
C920 H891 0.950 . S
C920 C919 1.395 . S
C920 C921 1.288 1_655 S
C921 C920 1.288 1_455 S
C921 C922 1.392 . S
C922 H892 0.951 . S
C922 C921 1.392 . S
C922 C923 1.392 . S
C923 H893 0.949 . S
C923 C918 1.382 . S
C923 C922 1.392 . S
H924 C943 0.949 . S
H925 C944 0.950 . S
H926 C946 0.950 . S
H927 C947 0.950 . S
H928 C949 0.950 . S
H929 C952 0.950 . S
H930 C953 0.950 . S
H931 C955 0.951 . S
H932 C956 0.949 . S
H933 C958 0.949 . S
H934 C959 0.950 . S
H935 C961 0.950 . S
H936 C962 0.950 . S
H937 C964 0.950 . S
H938 C967 0.950 . S
H939 C968 0.950 . S
H940 C970 0.951 . S
H941 C971 0.949 . S
C942 C943 1.376 . S
C942 C947 1.386 . S
C942 C948 1.483 . S
C943 H924 0.949 . S
C943 C942 1.376 . S
C943 C944 1.397 . S
C944 H925 0.950 . S
C944 C943 1.397 . S
C944 C945 1.391 . S
C945 C944 1.391 . S
C945 C946 1.405 . S
C946 H926 0.950 . S
C946 C945 1.405 . S
C946 C947 1.367 . S
C947 H927 0.950 . S
C947 C942 1.386 . S
C947 C946 1.367 . S
C948 C942 1.483 . S
C948 C949 1.382 . S
C948 C950 1.403 . S
C949 H928 0.950 . S
C949 C948 1.382 . S
C949 C965 1.411 . S
C950 C948 1.403 . S
C950 C951 1.489 . S
C950 C964 1.411 . S
C951 C950 1.489 . S
C951 C952 1.383 . S
C951 C956 1.382 . S
C952 H929 0.950 . S
C952 C951 1.383 . S
C952 C953 1.395 . S
C953 H930 0.950 . S
C953 C952 1.395 . S
C953 C954 1.288 . S
C954 C953 1.288 . S
C954 C955 1.392 . S
C955 H931 0.951 . S
C955 C954 1.392 . S
C955 C956 1.392 . S
C956 H932 0.949 . S
C956 C951 1.382 . S
C956 C955 1.392 . S
C957 C958 1.376 . S
C957 C962 1.386 . S
C957 C963 1.483 . S
C958 H933 0.949 . S
C958 C957 1.376 . S
C958 C959 1.397 . S
C959 H934 0.950 . S
C959 C958 1.397 . S
C959 C960 1.391 . S
C960 C959 1.391 . S
C960 C961 1.405 . S
C961 H935 0.950 . S
C961 C960 1.405 . S
C961 C962 1.367 . S
C962 H936 0.950 . S
C962 C957 1.386 . S
C962 C961 1.367 . S
C963 C957 1.483 . S
C963 C964 1.382 . S
C963 C965 1.403 . S
C964 H937 0.950 . S
C964 C950 1.411 . S
C964 C963 1.382 . S
C965 C949 1.411 . S
C965 C963 1.403 . S
C965 C966 1.489 . S
C966 C965 1.489 . S
C966 C967 1.383 . S
C966 C971 1.382 . S
C967 H938 0.950 . S
C967 C966 1.383 . S
C967 C968 1.395 . S
C968 H939 0.950 . S
C968 C967 1.395 . S
C968 C969 1.288 . S
C969 C968 1.288 . S
C969 C970 1.392 . S
C970 H940 0.951 . S
C970 C969 1.392 . S
C970 C971 1.392 . S
C971 H941 0.949 . S
C971 C966 1.382 . S
C971 C970 1.392 . S
H972 C991 0.949 . S
H973 C992 0.950 . S
H974 C994 0.950 . S
H975 C995 0.950 . S
H976 C997 0.950 . S
H977 C1000 0.950 . S
H978 C1001 0.950 . S
H979 C1003 0.951 . S
H980 C1004 0.949 . S
H981 C1006 0.949 . S
H982 C1007 0.950 . S
H983 C1009 0.950 . S
H984 C1010 0.950 . S
H985 C1012 0.950 . S
H986 C1015 0.950 . S
H987 C1016 0.950 . S
H988 C1018 0.951 . S
H989 C1019 0.949 . S
C990 C991 1.376 . S
C990 C995 1.386 . S
C990 C996 1.483 . S
C991 H972 0.949 . S
C991 C990 1.376 . S
C991 C992 1.397 . S
C992 H973 0.950 . S
C992 C991 1.397 . S
C992 C993 1.391 . S
C993 C992 1.391 . S
C993 C994 1.405 . S
C994 H974 0.950 . S
C994 C993 1.405 . S
C994 C995 1.367 . S
C995 H975 0.950 . S
C995 C990 1.386 . S
C995 C994 1.367 . S
C996 C990 1.483 . S
C996 C997 1.382 . S
C996 C998 1.403 . S
C997 H976 0.950 . S
C997 C996 1.382 . S
C997 C1013 1.411 . S
C998 C996 1.403 . S
C998 C999 1.489 . S
C998 C1012 1.411 . S
C999 C998 1.489 . S
C999 C1000 1.383 . S
C999 C1004 1.382 . S
C1000 H977 0.950 . S
C1000 C999 1.383 . S
C1000 C1001 1.395 . S
C1001 H978 0.950 . S
C1001 C1000 1.395 . S
C1001 C1002 1.288 . S
C1002 C1001 1.288 . S
C1002 C1003 1.392 . S
C1003 H979 0.951 . S
C1003 C1002 1.392 . S
C1003 C1004 1.392 . S
C1004 H980 0.949 . S
C1004 C999 1.382 . S
C1004 C1003 1.392 . S
C1005 C1006 1.376 . S
C1005 C1010 1.386 . S
C1005 C1011 1.483 . S
C1006 H981 0.949 . S
C1006 C1005 1.376 . S
C1006 C1007 1.397 . S
C1007 H982 0.950 . S
C1007 C1006 1.397 . S
C1007 C1008 1.391 . S
C1008 C1007 1.391 . S
C1008 C1009 1.405 . S
C1009 H983 0.950 . S
C1009 C1008 1.405 . S
C1009 C1010 1.367 . S
C1010 H984 0.950 . S
C1010 C1005 1.386 . S
C1010 C1009 1.367 . S
C1011 C1005 1.483 . S
C1011 C1012 1.382 . S
C1011 C1013 1.403 . S
C1012 H985 0.950 . S
C1012 C998 1.411 . S
C1012 C1011 1.382 . S
C1013 C997 1.411 . S
C1013 C1011 1.403 . S
C1013 C1014 1.489 . S
C1014 C1013 1.489 . S
C1014 C1015 1.383 . S
C1014 C1019 1.382 . S
C1015 H986 0.950 . S
C1015 C1014 1.383 . S
C1015 C1016 1.395 . S
C1016 H987 0.950 . S
C1016 C1015 1.395 . S
C1016 C1017 1.288 . S
C1017 C1016 1.288 . S
C1017 C1018 1.392 . S
C1018 H988 0.951 . S
C1018 C1017 1.392 . S
C1018 C1019 1.392 . S
C1019 H989 0.949 . S
C1019 C1014 1.382 . S
C1019 C1018 1.392 . S
H1020 C1039 0.949 . S
H1021 C1040 0.950 . S
H1022 C1042 0.950 . S
H1023 C1043 0.950 . S
H1024 C1045 0.950 . S
H1025 C1048 0.950 . S
H1026 C1049 0.950 . S
H1027 C1051 0.951 . S
H1028 C1052 0.949 . S
H1029 C1054 0.949 . S
H1030 C1055 0.950 . S
H1031 C1057 0.950 . S
H1032 C1058 0.950 . S
H1033 C1060 0.950 . S
H1034 C1063 0.950 . S
H1035 C1064 0.950 . S
H1036 C1066 0.951 . S
H1037 C1067 0.949 . S
C1038 C1039 1.376 . S
C1038 C1043 1.386 . S
C1038 C1044 1.483 . S
C1039 H1020 0.949 . S
C1039 C1038 1.376 . S
C1039 C1040 1.397 . S
C1040 H1021 0.950 . S
C1040 C1039 1.397 . S
C1040 C1041 1.391 . S
C1041 C1040 1.391 . S
C1041 C1042 1.405 . S
C1042 H1022 0.950 . S
C1042 C1041 1.405 . S
C1042 C1043 1.367 . S
C1043 H1023 0.950 . S
C1043 C1038 1.386 . S
C1043 C1042 1.367 . S
C1044 C1038 1.483 . S
C1044 C1045 1.382 . S
C1044 C1046 1.403 . S
C1045 H1024 0.950 . S
C1045 C1044 1.382 . S
C1045 C1061 1.411 . S
C1046 C1044 1.403 . S
C1046 C1047 1.489 . S
C1046 C1060 1.411 . S
C1047 C1046 1.489 . S
C1047 C1048 1.383 . S
C1047 C1052 1.382 . S
C1048 H1025 0.950 . S
C1048 C1047 1.383 . S
C1048 C1049 1.395 . S
C1049 H1026 0.950 . S
C1049 C1048 1.395 . S
C1049 C1050 1.288 . S
C1050 C1049 1.288 . S
C1050 C1051 1.392 . S
C1051 H1027 0.951 . S
C1051 C1050 1.392 . S
C1051 C1052 1.392 . S
C1052 H1028 0.949 . S
C1052 C1047 1.382 . S
C1052 C1051 1.392 . S
C1053 C1054 1.376 . S
C1053 C1058 1.386 . S
C1053 C1059 1.483 . S
C1054 H1029 0.949 . S
C1054 C1053 1.376 . S
C1054 C1055 1.397 . S
C1055 H1030 0.950 . S
C1055 C1054 1.397 . S
C1055 C1056 1.391 . S
C1056 C1055 1.391 . S
C1056 C1057 1.405 . S
C1057 H1031 0.950 . S
C1057 C1056 1.405 . S
C1057 C1058 1.367 . S
C1058 H1032 0.950 . S
C1058 C1053 1.386 . S
C1058 C1057 1.367 . S
C1059 C1053 1.483 . S
C1059 C1060 1.382 . S
C1059 C1061 1.403 . S
C1060 H1033 0.950 . S
C1060 C1046 1.411 . S
C1060 C1059 1.382 . S
C1061 C1045 1.411 . S
C1061 C1059 1.403 . S
C1061 C1062 1.489 . S
C1062 C1061 1.489 . S
C1062 C1063 1.383 . S
C1062 C1067 1.382 . S
C1063 H1034 0.950 . S
C1063 C1062 1.383 . S
C1063 C1064 1.395 . S
C1064 H1035 0.950 . S
C1064 C1063 1.395 . S
C1064 C1065 1.288 . S
C1065 C1064 1.288 . S
C1065 C1066 1.392 . S
C1066 H1036 0.951 . S
C1066 C1065 1.392 . S
C1066 C1067 1.392 . S
C1067 H1037 0.949 . S
C1067 C1062 1.382 . S
C1067 C1066 1.392 . S
H1068 C1087 0.949 . S
H1069 C1088 0.950 . S
H1070 C1090 0.950 . S
H1071 C1091 0.950 . S
H1072 C1093 0.950 . S
H1073 C1096 0.950 . S
H1074 C1097 0.950 . S
H1075 C1099 0.951 . S
H1076 C1100 0.949 . S
H1077 C1102 0.949 . S
H1078 C1103 0.950 . S
H1079 C1105 0.950 . S
H1080 C1106 0.950 . S
H1081 C1108 0.950 . S
H1082 C1111 0.950 . S
H1083 C1112 0.950 . S
H1084 C1114 0.951 . S
H1085 C1115 0.949 . S
C1086 C1087 1.376 . S
C1086 C1091 1.386 . S
C1086 C1092 1.483 . S
C1087 H1068 0.949 . S
C1087 C1086 1.376 . S
C1087 C1088 1.397 . S
C1088 H1069 0.950 . S
C1088 C1087 1.397 . S
C1088 C1089 1.391 . S
C1089 C1088 1.391 . S
C1089 C1090 1.405 . S
C1090 H1070 0.950 . S
C1090 C1089 1.405 . S
C1090 C1091 1.367 . S
C1091 H1071 0.950 . S
C1091 C1086 1.386 . S
C1091 C1090 1.367 . S
C1092 C1086 1.483 . S
C1092 C1093 1.382 . S
C1092 C1094 1.403 . S
C1093 H1072 0.950 . S
C1093 C1092 1.382 . S
C1093 C1109 1.411 . S
C1094 C1092 1.403 . S
C1094 C1095 1.489 . S
C1094 C1108 1.411 . S
C1095 C1094 1.489 . S
C1095 C1096 1.383 . S
C1095 C1100 1.382 . S
C1096 H1073 0.950 . S
C1096 C1095 1.383 . S
C1096 C1097 1.395 . S
C1097 H1074 0.950 . S
C1097 C1096 1.395 . S
C1097 C1098 1.288 . S
C1098 C1097 1.288 . S
C1098 C1099 1.392 . S
C1099 H1075 0.951 . S
C1099 C1098 1.392 . S
C1099 C1100 1.392 . S
C1100 H1076 0.949 . S
C1100 C1095 1.382 . S
C1100 C1099 1.392 . S
C1101 C1102 1.376 . S
C1101 C1106 1.386 . S
C1101 C1107 1.483 . S
C1102 H1077 0.949 . S
C1102 C1101 1.376 . S
C1102 C1103 1.397 . S
C1103 H1078 0.950 . S
C1103 C1102 1.397 . S
C1103 C1104 1.391 . S
C1104 C1103 1.391 . S
C1104 C1105 1.405 . S
C1105 H1079 0.950 . S
C1105 C1104 1.405 . S
C1105 C1106 1.367 . S
C1106 H1080 0.950 . S
C1106 C1101 1.386 . S
C1106 C1105 1.367 . S
C1107 C1101 1.483 . S
C1107 C1108 1.382 . S
C1107 C1109 1.403 . S
C1108 H1081 0.950 . S
C1108 C1094 1.411 . S
C1108 C1107 1.382 . S
C1109 C1093 1.411 . S
C1109 C1107 1.403 . S
C1109 C1110 1.489 . S
C1110 C1109 1.489 . S
C1110 C1111 1.383 . S
C1110 C1115 1.382 . S
C1111 H1082 0.950 . S
C1111 C1110 1.383 . S
C1111 C1112 1.395 . S
C1112 H1083 0.950 . S
C1112 C1111 1.395 . S
C1112 C1113 1.288 . S
C1113 C1112 1.288 . S
C1113 C1114 1.392 . S
C1114 H1084 0.951 . S
C1114 C1113 1.392 . S
C1114 C1115 1.392 . S
C1115 H1085 0.949 . S
C1115 C1110 1.382 . S
C1115 C1114 1.392 . S
H1116 C1124 0.929 . S
H1117 C1126 0.930 . S
H1118 C1128 0.920 1_455 S
H1119 C1131 0.932 . S
H1120 C1134 0.930 . S
H1121 C1136 0.960 . S
H1122 C1136 0.960 . S
H1123 C1136 0.960 . S
C1124 H1116 0.929 . S
C1124 C1125 1.377 . S
C1124 C1126 1.384 . S
C1125 C1124 1.377 . S
C1125 C1131 1.390 . S
C1126 H1117 0.930 . S
C1126 C1124 1.384 . S
C1126 C1127 1.372 . S
C1127 C1126 1.372 . S
C1127 C1128 1.400 . S
C1127 C1132 1.490 . S
C1128 H1118 0.920 1_655 S
C1128 C1127 1.400 . S
C1128 C1131 1.386 . S
H1129 C1145 0.930 . S
H1130 C1146 0.931 . S
C1131 H1119 0.932 . S
C1131 C1125 1.390 . S
C1131 C1128 1.386 . S
C1132 C1127 1.490 . S
C1132 C1134 1.395 . S
C1132 C1135 1.403 1_655 S
H1133 C1139 0.930 . S
C1134 H1120 0.930 . S
C1134 C1132 1.395 . S
C1134 C1137 1.403 . S
C1135 C1132 1.403 1_455 S
C1135 C1136 1.524 . S
C1135 C1139 1.400 . S
C1136 H1121 0.960 . S
C1136 H1122 0.960 . S
C1136 H1123 0.960 . S
C1136 C1135 1.524 . S
C1137 C1134 1.403 . S
C1137 C1138 1.392 . S
C1137 C1141 1.495 . S
C1138 C1137 1.392 . S
C1138 C1139 1.385 1_655 S
C1138 C1140 1.478 . S
C1139 H1133 0.930 . S
C1139 C1135 1.400 . S
C1139 C1138 1.385 1_455 S
C1140 C1138 1.478 . S
C1140 C1142 1.381 . S
C1140 C1146 1.383 . S
C1141 C1137 1.495 . S
C1141 H1147 0.959 . S
C1141 H1148 0.961 . S
C1141 H1149 0.960 . S
C1142 C1140 1.381 . S
C1142 C1143 1.394 . S
C1142 H1150 0.930 . S
C1143 C1142 1.394 . S
C1143 C1144 1.383 . S
C1143 H1151 0.929 . S
C1144 C1143 1.383 . S
C1144 C1145 1.377 . S
C1145 H1129 0.930 . S
C1145 C1144 1.377 . S
C1145 C1146 1.379 . S
C1146 H1130 0.931 . S
C1146 C1140 1.383 . S
C1146 C1145 1.379 . S
H1147 C1141 0.959 . S
H1148 C1141 0.961 . S
H1149 C1141 0.960 . S
H1150 C1142 0.930 . S
H1151 C1143 0.929 . S
H1152 C1160 0.929 . S
H1153 C1162 0.930 . S
H1154 C1164 0.930 . S
H1155 C1167 0.929 . S
H1156 C1170 0.930 . S
H1157 C1172 0.960 . S
H1158 C1172 0.960 . S
H1159 C1172 0.960 . S
C1160 H1152 0.929 . S
C1160 C1161 1.377 . S
C1160 C1162 1.384 . S
C1161 C1160 1.377 . S
C1161 C1167 1.390 . S
C1162 H1153 0.930 . S
C1162 C1160 1.384 . S
C1162 C1163 1.372 . S
C1163 C1162 1.372 . S
C1163 C1164 1.400 . S
C1163 C1168 1.490 . S
C1164 H1154 0.930 . S
C1164 C1163 1.400 . S
C1164 C1167 1.386 . S
H1165 C1181 0.930 . S
H1166 C1182 0.931 . S
C1167 H1155 0.929 . S
C1167 C1161 1.390 . S
C1167 C1164 1.386 . S
C1168 C1163 1.490 . S
C1168 C1170 1.395 . S
C1168 C1171 1.403 . S
H1169 C1175 0.930 . S
C1170 H1156 0.930 . S
C1170 C1168 1.395 . S
C1170 C1173 1.403 . S
C1171 C1168 1.403 . S
C1171 C1172 1.524 . S
C1171 C1175 1.400 . S
C1172 H1157 0.960 . S
C1172 H1158 0.960 . S
C1172 H1159 0.960 . S
C1172 C1171 1.524 . S
C1173 C1170 1.403 . S
C1173 C1174 1.392 . S
C1173 C1177 1.495 . S
C1174 C1173 1.392 . S
C1174 C1175 1.385 . S
C1174 C1176 1.478 . S
C1175 H1169 0.930 . S
C1175 C1171 1.400 . S
C1175 C1174 1.385 . S
C1176 C1174 1.478 . S
C1176 C1178 1.381 . S
C1176 C1182 1.383 . S
C1177 C1173 1.495 . S
C1177 H1183 0.959 . S
C1177 H1184 0.961 . S
C1177 H1185 0.960 . S
C1178 C1176 1.381 . S
C1178 C1179 1.394 . S
C1178 H1186 0.930 . S
C1179 C1178 1.394 . S
C1179 C1180 1.383 . S
C1179 H1187 0.929 . S
C1180 C1179 1.383 . S
C1180 C1181 1.377 . S
C1181 H1165 0.930 . S
C1181 C1180 1.377 . S
C1181 C1182 1.379 . S
C1182 H1166 0.931 . S
C1182 C1176 1.383 . S
C1182 C1181 1.379 . S
H1183 C1177 0.959 . S
H1184 C1177 0.961 . S
H1185 C1177 0.960 . S
H1186 C1178 0.930 . S
H1187 C1179 0.929 . S
H1188 C1196 0.929 . S
H1189 C1198 0.930 . S
H1190 C1200 0.902 1_565 S
H1191 C1203 0.925 . S
H1192 C1206 0.930 . S
H1193 C1208 0.960 . S
H1194 C1208 0.960 . S
H1195 C1208 0.960 . S
C1196 H1188 0.929 . S
C1196 C1197 1.377 . S
C1196 C1198 1.384 . S
C1197 C1196 1.377 . S
C1197 C1203 1.390 . S
C1198 H1189 0.930 . S
C1198 C1196 1.384 . S
C1198 C1199 1.372 . S
C1199 C1198 1.372 . S
C1199 C1200 1.400 . S
C1199 C1204 1.490 . S
C1200 H1190 0.902 1_545 S
C1200 C1199 1.400 . S
C1200 C1203 1.386 . S
H1201 C1217 0.913 1_565 S
H1202 C1218 0.931 1_565 S
C1203 H1191 0.925 . S
C1203 C1197 1.390 . S
C1203 C1200 1.386 . S
C1204 C1199 1.490 . S
C1204 C1206 1.395 . S
C1204 C1207 1.403 1_545 S
H1205 C1211 0.930 . S
C1206 H1192 0.930 . S
C1206 C1204 1.395 . S
C1206 C1209 1.403 . S
C1207 C1204 1.403 1_565 S
C1207 C1208 1.524 . S
C1207 C1211 1.400 . S
C1208 H1193 0.960 . S
C1208 H1194 0.960 . S
C1208 H1195 0.960 . S
C1208 C1207 1.524 . S
C1209 C1206 1.403 . S
C1209 C1210 1.392 . S
C1209 C1213 1.495 . S
C1210 C1209 1.392 . S
C1210 C1211 1.385 1_545 S
C1210 C1212 1.478 . S
C1211 H1205 0.930 . S
C1211 C1207 1.400 . S
C1211 C1210 1.385 1_565 S
C1212 C1210 1.478 . S
C1212 C1214 1.381 . S
C1212 C1218 1.383 . S
C1213 C1209 1.495 . S
C1213 H1219 0.959 . S
C1213 H1220 0.961 . S
C1213 H1221 0.960 . S
C1214 C1212 1.381 . S
C1214 C1215 1.394 . S
C1214 H1222 0.930 . S
C1215 C1214 1.394 . S
C1215 C1216 1.383 . S
C1215 H1223 0.929 . S
C1216 C1215 1.383 . S
C1216 C1217 1.359 . S
C1217 H1201 0.913 1_545 S
C1217 C1216 1.359 . S
C1217 C1218 1.421 . S
C1218 H1202 0.931 1_545 S
C1218 C1212 1.383 . S
C1218 C1217 1.421 . S
H1219 C1213 0.959 . S
H1220 C1213 0.961 . S
H1221 C1213 0.960 . S
H1222 C1214 0.930 . S
H1223 C1215 0.929 . S
H1224 C1232 0.929 . S
H1225 C1234 0.930 . S
H1226 C1236 0.930 . S
H1227 C1239 0.929 . S
H1228 C1242 0.930 . S
H1229 C1244 0.960 . S
H1230 C1244 0.960 . S
H1231 C1244 0.960 . S
C1232 H1224 0.929 . S
C1232 C1233 1.377 1_545 S
C1232 C1234 1.384 . S
C1233 C1232 1.377 1_565 S
C1233 C1239 1.390 . S
C1234 H1225 0.930 . S
C1234 C1232 1.384 . S
C1234 C1235 1.372 1_545 S
C1235 C1234 1.372 1_565 S
C1235 C1236 1.400 . S
C1235 C1240 1.466 . S
C1236 H1226 0.930 . S
C1236 C1235 1.400 . S
C1236 C1239 1.386 . S
H1237 C1253 0.930 . S
H1238 C1254 0.947 . S
C1239 H1227 0.929 . S
C1239 C1233 1.390 . S
C1239 C1236 1.386 . S
C1240 C1235 1.466 . S
C1240 C1242 1.354 1_565 S
C1240 C1243 1.468 . S
H1241 C1247 0.930 . S
C1242 H1228 0.930 . S
C1242 C1240 1.354 1_545 S
C1242 C1245 1.403 . S
C1243 C1240 1.468 . S
C1243 C1244 1.524 . S
C1243 C1247 1.400 . S
C1244 H1229 0.960 . S
C1244 H1230 0.960 . S
C1244 H1231 0.960 . S
C1244 C1243 1.524 . S
C1245 C1242 1.403 . S
C1245 C1246 1.392 . S
C1245 C1249 1.495 . S
C1246 C1245 1.392 . S
C1246 C1247 1.385 1_545 S
C1246 C1248 1.478 . S
C1247 H1241 0.930 . S
C1247 C1243 1.400 . S
C1247 C1246 1.385 1_565 S
C1248 C1246 1.478 . S
C1248 C1250 1.381 . S
C1248 C1254 1.333 1_545 S
C1249 C1245 1.495 . S
C1249 H1255 0.959 . S
C1249 H1256 0.961 . S
C1249 H1257 0.960 . S
C1250 C1248 1.381 . S
C1250 C1251 1.394 . S
C1250 H1258 0.930 . S
C1251 C1250 1.394 . S
C1251 C1252 1.357 1_545 S
C1251 H1259 0.929 . S
C1252 C1251 1.357 1_565 S
C1252 C1253 1.384 . S
C1253 H1237 0.930 . S
C1253 C1252 1.384 . S
C1253 C1254 1.420 . S
C1254 H1238 0.947 . S
C1254 C1248 1.333 1_565 S
C1254 C1253 1.420 . S
H1255 C1249 0.959 . S
H1256 C1249 0.961 . S
H1257 C1249 0.960 . S
H1258 C1250 0.930 . S
H1259 C1251 0.929 . S
H1260 C1268 0.929 . S
H1261 C1270 0.930 . S
H1262 C1272 0.930 . S
H1263 C1275 0.985 . S
H1264 C1278 0.930 . S
H1265 C1280 0.960 . S
H1266 C1280 0.960 . S
H1267 C1280 0.960 . S
C1268 H1260 0.929 . S
C1268 C1269 1.377 . S
C1268 C1270 1.384 . S
C1269 C1268 1.377 . S
C1269 C1275 1.300 1_455 S
C1270 H1261 0.930 . S
C1270 C1268 1.384 . S
C1270 C1271 1.372 . S
C1271 C1270 1.372 . S
C1271 C1272 1.400 1_455 S
C1271 C1276 1.490 . S
C1272 H1262 0.930 . S
C1272 C1271 1.400 1_655 S
C1272 C1275 1.426 . S
H1273 C1289 0.930 . S
H1274 C1290 0.931 . S
C1275 H1263 0.985 . S
C1275 C1269 1.300 1_655 S
C1275 C1272 1.426 . S
C1276 C1271 1.490 . S
C1276 C1278 1.395 . S
C1276 C1279 1.403 . S
H1277 C1283 0.930 . S
C1278 H1264 0.930 . S
C1278 C1276 1.395 . S
C1278 C1281 1.403 . S
C1279 C1276 1.403 . S
C1279 C1280 1.524 . S
C1279 C1283 1.400 . S
C1280 H1265 0.960 . S
C1280 H1266 0.960 . S
C1280 H1267 0.960 . S
C1280 C1279 1.524 . S
C1281 C1278 1.403 . S
C1281 C1282 1.392 . S
C1281 C1285 1.494 1_455 S
C1282 C1281 1.392 . S
C1282 C1283 1.385 . S
C1282 C1284 1.478 . S
C1283 H1277 0.930 . S
C1283 C1279 1.400 . S
C1283 C1282 1.385 . S
C1284 C1282 1.478 . S
C1284 C1286 1.381 . S
C1284 C1290 1.383 1_455 S
C1285 C1281 1.494 1_655 S
C1285 H1291 0.925 . S
C1285 H1292 1.045 . S
C1285 H1293 0.920 1_655 S
C1286 C1284 1.381 . S
C1286 C1287 1.394 . S
C1286 H1294 0.930 . S
C1287 C1286 1.394 . S
C1287 C1288 1.383 . S
C1287 H1295 0.929 . S
C1288 C1287 1.383 . S
C1288 C1289 1.377 1_455 S
C1289 H1273 0.930 . S
C1289 C1288 1.377 1_655 S
C1289 C1290 1.379 . S
C1290 H1274 0.931 . S
C1290 C1284 1.383 1_655 S
C1290 C1289 1.379 . S
H1291 C1285 0.925 . S
H1292 C1285 1.045 . S
H1293 C1285 0.920 1_455 S
H1294 C1286 0.930 . S
H1295 C1287 0.929 . S
H1296 C1304 0.929 . S
H1297 C1306 0.930 . S
H1298 C1308 0.930 . S
H1299 C1311 0.929 . S
H1300 C1314 0.930 . S
H1301 C1316 0.960 . S
H1302 C1316 0.960 . S
H1303 C1316 0.960 . S
C1304 H1296 0.929 . S
C1304 C1305 1.377 . S
C1304 C1306 1.384 . S
C1305 C1304 1.377 . S
C1305 C1311 1.390 . S
C1306 H1297 0.930 . S
C1306 C1304 1.384 . S
C1306 C1307 1.372 . S
C1307 C1306 1.372 . S
C1307 C1308 1.400 . S
C1307 C1312 1.490 . S
C1308 H1298 0.930 . S
C1308 C1307 1.400 . S
C1308 C1311 1.386 . S
H1309 C1325 0.930 . S
H1310 C1326 0.931 . S
C1311 H1299 0.929 . S
C1311 C1305 1.390 . S
C1311 C1308 1.386 . S
C1312 C1307 1.490 . S
C1312 C1314 1.395 . S
C1312 C1315 1.403 . S
H1313 C1319 0.930 . S
C1314 H1300 0.930 . S
C1314 C1312 1.395 . S
C1314 C1317 1.403 . S
C1315 C1312 1.403 . S
C1315 C1316 1.524 . S
C1315 C1319 1.400 . S
C1316 H1301 0.960 . S
C1316 H1302 0.960 . S
C1316 H1303 0.960 . S
C1316 C1315 1.524 . S
C1317 C1314 1.403 . S
C1317 C1318 1.392 . S
C1317 C1321 1.495 . S
C1318 C1317 1.392 . S
C1318 C1319 1.385 . S
C1318 C1320 1.478 . S
C1319 H1313 0.930 . S
C1319 C1315 1.400 . S
C1319 C1318 1.385 . S
C1320 C1318 1.478 . S
C1320 C1322 1.381 . S
C1320 C1326 1.383 . S
C1321 C1317 1.495 . S
C1321 H1327 0.959 . S
C1321 H1328 0.961 . S
C1321 H1329 0.960 . S
C1322 C1320 1.381 . S
C1322 C1323 1.394 . S
C1322 H1330 0.930 . S
C1323 C1322 1.394 . S
C1323 C1324 1.383 . S
C1323 H1331 0.929 . S
C1324 C1323 1.383 . S
C1324 C1325 1.377 . S
C1325 H1309 0.930 . S
C1325 C1324 1.377 . S
C1325 C1326 1.379 . S
C1326 H1310 0.931 . S
C1326 C1320 1.383 . S
C1326 C1325 1.379 . S
H1327 C1321 0.959 . S
H1328 C1321 0.961 . S
H1329 C1321 0.960 . S
H1330 C1322 0.930 . S
H1331 C1323 0.929 . S
H1332 C1340 0.929 . S
H1333 C1342 0.930 . S
H1334 C1344 0.930 . S
H1335 C1347 0.929 . S
H1336 C1350 0.930 . S
H1337 C1352 0.960 . S
H1338 C1352 0.960 . S
H1339 C1352 0.960 1_655 S
C1340 H1332 0.929 . S
C1340 C1341 1.377 . S
C1340 C1342 1.384 . S
C1341 C1340 1.377 . S
C1341 C1347 1.390 1_455 S
C1342 H1333 0.930 . S
C1342 C1340 1.384 . S
C1342 C1343 1.372 . S
C1343 C1342 1.372 . S
C1343 C1344 1.400 1_455 S
C1343 C1348 1.490 . S
C1344 H1334 0.930 . S
C1344 C1343 1.400 1_655 S
C1344 C1347 1.386 . S
H1345 C1361 0.930 . S
H1346 C1362 0.931 . S
C1347 H1335 0.929 . S
C1347 C1341 1.390 1_655 S
C1347 C1344 1.386 . S
C1348 C1343 1.490 . S
C1348 C1350 1.395 . S
C1348 C1351 1.403 . S
H1349 C1355 0.930 . S
C1350 H1336 0.930 . S
C1350 C1348 1.395 . S
C1350 C1353 1.403 . S
C1351 C1348 1.403 . S
C1351 C1352 1.524 . S
C1351 C1355 1.400 . S
C1352 H1337 0.960 . S
C1352 H1338 0.960 . S
C1352 H1339 0.960 1_455 S
C1352 C1351 1.524 . S
C1353 C1350 1.403 . S
C1353 C1354 1.392 . S
C1353 C1357 1.495 . S
C1354 C1353 1.392 . S
C1354 C1355 1.385 . S
C1354 C1356 1.478 . S
C1355 H1349 0.930 . S
C1355 C1351 1.400 . S
C1355 C1354 1.385 . S
C1356 C1354 1.478 . S
C1356 C1358 1.381 . S
C1356 C1362 1.383 1_455 S
C1357 C1353 1.495 . S
C1357 H1363 0.959 . S
C1357 H1364 0.994 . S
C1357 H1365 0.960 . S
C1358 C1356 1.381 . S
C1358 C1359 1.394 . S
C1358 H1366 0.930 . S
C1359 C1358 1.394 . S
C1359 C1360 1.383 . S
C1359 H1367 0.929 . S
C1360 C1359 1.383 . S
C1360 C1361 1.377 1_455 S
C1361 H1345 0.930 . S
C1361 C1360 1.377 1_655 S
C1361 C1362 1.379 . S
C1362 H1346 0.931 . S
C1362 C1356 1.383 1_655 S
C1362 C1361 1.379 . S
H1363 C1357 0.959 . S
H1364 C1357 0.994 . S
H1365 C1357 0.960 . S
H1366 C1358 0.930 . S
H1367 C1359 0.929 . S
H1368 C1376 0.929 . S
H1369 C1378 0.930 . S
H1370 C1380 0.930 . S
H1371 C1383 0.929 . S
H1372 C1386 0.930 . S
H1373 C1388 0.960 . S
H1374 C1388 0.960 . S
H1375 C1388 0.960 . S
C1376 H1368 0.929 . S
C1376 C1377 1.377 . S
C1376 C1378 1.384 . S
C1377 C1376 1.377 . S
C1377 C1383 1.390 . S
C1378 H1369 0.930 . S
C1378 C1376 1.384 . S
C1378 C1379 1.372 . S
C1379 C1378 1.372 . S
C1379 C1380 1.400 . S
C1379 C1384 1.490 . S
C1380 H1370 0.930 . S
C1380 C1379 1.400 . S
C1380 C1383 1.386 . S
H1381 C1397 0.930 . S
H1382 C1398 0.931 . S
C1383 H1371 0.929 . S
C1383 C1377 1.390 . S
C1383 C1380 1.386 . S
C1384 C1379 1.490 . S
C1384 C1386 1.395 . S
C1384 C1387 1.403 . S
H1385 C1391 0.930 . S
C1386 H1372 0.930 . S
C1386 C1384 1.395 . S
C1386 C1389 1.403 . S
C1387 C1384 1.403 . S
C1387 C1388 1.524 . S
C1387 C1391 1.400 . S
C1388 H1373 0.960 . S
C1388 H1374 0.960 . S
C1388 H1375 0.960 . S
C1388 C1387 1.524 . S
C1389 C1386 1.403 . S
C1389 C1390 1.392 . S
C1389 C1393 1.495 . S
C1390 C1389 1.392 . S
C1390 C1391 1.385 . S
C1390 C1392 1.478 . S
C1391 H1385 0.930 . S
C1391 C1387 1.400 . S
C1391 C1390 1.385 . S
C1392 C1390 1.478 . S
C1392 C1394 1.381 . S
C1392 C1398 1.383 . S
C1393 C1389 1.495 . S
C1393 H1399 0.959 . S
C1393 H1400 0.961 . S
C1393 H1401 0.960 . S
C1394 C1392 1.381 . S
C1394 C1395 1.394 . S
C1394 H1402 0.930 . S
C1395 C1394 1.394 . S
C1395 C1396 1.383 . S
C1395 H1403 0.929 . S
C1396 C1395 1.383 . S
C1396 C1397 1.377 . S
C1397 H1381 0.930 . S
C1397 C1396 1.377 . S
C1397 C1398 1.379 . S
C1398 H1382 0.931 . S
C1398 C1392 1.383 . S
C1398 C1397 1.379 . S
H1399 C1393 0.959 . S
H1400 C1393 0.961 . S
H1401 C1393 0.960 . S
H1402 C1394 0.930 . S
H1403 C1395 0.929 . S
H1404 C1412 0.929 . S
H1405 C1414 0.930 . S
H1406 C1416 0.930 . S
H1407 C1419 0.929 . S
H1408 C1422 0.951 1_545 S
H1409 C1424 0.960 . S
H1410 C1424 0.980 . S
H1411 C1424 0.960 . S
C1412 H1404 0.929 . S
C1412 C1413 1.377 1_545 S
C1412 C1414 1.384 . S
C1413 C1412 1.377 1_565 S
C1413 C1419 1.390 . S
C1414 H1405 0.930 . S
C1414 C1412 1.384 . S
C1414 C1415 1.372 1_545 S
C1415 C1414 1.372 1_565 S
C1415 C1416 1.400 . S
C1415 C1420 1.490 . S
C1416 H1406 0.930 . S
C1416 C1415 1.400 . S
C1416 C1419 1.386 . S
H1417 C1433 0.930 . S
H1418 C1434 0.931 . S
C1419 H1407 0.929 . S
C1419 C1413 1.390 . S
C1419 C1416 1.386 . S
C1420 C1415 1.490 . S
C1420 C1422 1.395 . S
C1420 C1423 1.403 . S
H1421 C1427 0.930 . S
C1422 H1408 0.951 1_565 S
C1422 C1420 1.395 . S
C1422 C1425 1.430 . S
C1423 C1420 1.403 . S
C1423 C1424 1.524 . S
C1423 C1427 1.400 . S
C1424 H1409 0.960 . S
C1424 H1410 0.980 . S
C1424 H1411 0.960 . S
C1424 C1423 1.524 . S
C1425 C1422 1.430 . S
C1425 C1426 1.370 . S
C1425 C1429 1.497 1_565 S
C1426 C1425 1.370 . S
C1426 C1427 1.385 . S
C1426 C1428 1.478 . S
C1427 H1421 0.930 . S
C1427 C1423 1.400 . S
C1427 C1426 1.385 . S
C1428 C1426 1.478 . S
C1428 C1430 1.381 1_565 S
C1428 C1434 1.383 . S
C1429 C1425 1.497 1_545 S
C1429 H1435 0.959 . S
C1429 H1436 0.961 1_545 S
C1429 H1437 0.960 . S
C1430 C1428 1.381 1_545 S
C1430 C1431 1.394 . S
C1430 H1438 0.930 . S
C1431 C1430 1.394 . S
C1431 C1432 1.383 1_545 S
C1431 H1439 0.929 . S
C1432 C1431 1.383 1_565 S
C1432 C1433 1.377 . S
C1433 H1417 0.930 . S
C1433 C1432 1.377 . S
C1433 C1434 1.379 . S
C1434 H1418 0.931 . S
C1434 C1428 1.383 . S
C1434 C1433 1.379 . S
H1435 C1429 0.959 . S
H1436 C1429 0.961 1_565 S
H1437 C1429 0.960 . S
H1438 C1430 0.930 . S
H1439 C1431 0.929 . S
H1440 C1448 0.929 1_565 S
H1441 C1450 0.952 . S
H1442 C1452 0.930 . S
H1443 C1455 0.929 . S
H1444 C1458 0.930 . S
H1445 C1460 0.960 . S
H1446 C1460 0.960 . S
H1447 C1460 0.960 . S
C1448 H1440 0.929 1_545 S
C1448 C1449 1.378 . S
C1448 C1450 1.402 1_545 S
C1449 C1448 1.378 . S
C1449 C1455 1.390 . S
C1450 H1441 0.952 . S
C1450 C1448 1.402 1_565 S
C1450 C1451 1.334 1_565 S
C1451 C1450 1.334 1_545 S
C1451 C1452 1.400 . S
C1451 C1456 1.490 . S
C1452 H1442 0.930 . S
C1452 C1451 1.400 . S
C1452 C1455 1.386 . S
H1453 C1469 0.930 . S
H1454 C1470 0.931 . S
C1455 H1443 0.929 . S
C1455 C1449 1.390 . S
C1455 C1452 1.386 . S
C1456 C1451 1.490 . S
C1456 C1458 1.395 . S
C1456 C1459 1.403 1_545 S
H1457 C1463 0.930 . S
C1458 H1444 0.930 . S
C1458 C1456 1.395 . S
C1458 C1461 1.403 . S
C1459 C1456 1.403 1_565 S
C1459 C1460 1.524 . S
C1459 C1463 1.400 . S
C1460 H1445 0.960 . S
C1460 H1446 0.960 . S
C1460 H1447 0.960 . S
C1460 C1459 1.524 . S
C1461 C1458 1.403 . S
C1461 C1462 1.392 . S
C1461 C1465 1.495 . S
C1462 C1461 1.392 . S
C1462 C1463 1.385 1_545 S
C1462 C1464 1.478 . S
C1463 H1457 0.930 . S
C1463 C1459 1.400 . S
C1463 C1462 1.385 1_565 S
C1464 C1462 1.478 . S
C1464 C1466 1.381 1_545 S
C1464 C1470 1.383 . S
C1465 C1461 1.495 . S
C1465 H1471 0.959 . S
C1465 H1472 0.961 . S
C1465 H1473 0.960 . S
C1466 C1464 1.381 1_565 S
C1466 C1467 1.394 . S
C1466 H1474 0.930 . S
C1467 C1466 1.394 . S
C1467 C1468 1.383 1_565 S
C1467 H1475 0.929 . S
C1468 C1467 1.383 1_545 S
C1468 C1469 1.377 . S
C1469 H1453 0.930 . S
C1469 C1468 1.377 . S
C1469 C1470 1.379 . S
C1470 H1454 0.931 . S
C1470 C1464 1.383 . S
C1470 C1469 1.379 . S
H1471 C1465 0.959 . S
H1472 C1465 0.961 . S
H1473 C1465 0.960 . S
H1474 C1466 0.930 . S
H1475 C1467 0.929 . S
H1476 C1484 0.929 . S
H1477 C1486 0.930 . S
H1478 C1488 0.930 . S
H1479 C1491 0.929 . S
H1480 C1494 0.950 . S
H1481 C1496 0.960 . S
H1482 C1496 0.960 . S
H1483 C1496 0.960 . S
C1484 H1476 0.929 . S
C1484 C1485 1.377 . S
C1484 C1486 1.384 . S
C1485 C1484 1.377 . S
C1485 C1491 1.390 1_655 S
C1486 H1477 0.930 . S
C1486 C1484 1.384 . S
C1486 C1487 1.372 . S
C1487 C1486 1.372 . S
C1487 C1488 1.400 1_655 S
C1487 C1492 1.490 . S
C1488 H1478 0.930 . S
C1488 C1487 1.400 1_455 S
C1488 C1491 1.386 . S
H1489 C1505 0.930 . S
H1490 C1506 0.931 . S
C1491 H1479 0.929 . S
C1491 C1485 1.390 1_455 S
C1491 C1488 1.386 . S
C1492 C1487 1.490 . S
C1492 C1494 1.395 . S
C1492 C1495 1.403 . S
H1493 C1499 0.930 . S
C1494 H1480 0.950 . S
C1494 C1492 1.395 . S
C1494 C1497 1.403 . S
C1495 C1492 1.403 . S
C1495 C1496 1.524 . S
C1495 C1499 1.400 . S
C1496 H1481 0.960 . S
C1496 H1482 0.960 . S
C1496 H1483 0.960 . S
C1496 C1495 1.524 . S
C1497 C1494 1.403 . S
C1497 C1498 1.392 . S
C1497 C1501 1.495 1_655 S
C1498 C1497 1.392 . S
C1498 C1499 1.385 . S
C1498 C1500 1.478 . S
C1499 H1493 0.930 . S
C1499 C1495 1.400 . S
C1499 C1498 1.385 . S
C1500 C1498 1.478 . S
C1500 C1502 1.381 . S
C1500 C1506 1.383 1_655 S
C1501 C1497 1.495 1_455 S
C1501 H1507 0.959 . S
C1501 H1508 0.961 . S
C1501 H1509 0.960 1_455 S
C1502 C1500 1.381 . S
C1502 C1503 1.394 . S
C1502 H1510 0.930 . S
C1503 C1502 1.394 . S
C1503 C1504 1.383 . S
C1503 H1511 0.929 . S
C1504 C1503 1.383 . S
C1504 C1505 1.377 1_655 S
C1505 H1489 0.930 . S
C1505 C1504 1.377 1_455 S
C1505 C1506 1.379 . S
C1506 H1490 0.931 . S
C1506 C1500 1.383 1_455 S
C1506 C1505 1.379 . S
H1507 C1501 0.959 . S
H1508 C1501 0.961 . S
H1509 C1501 0.960 1_655 S
H1510 C1502 0.930 . S
H1511 C1503 0.929 . S
H1512 C1520 0.929 . S
H1513 C1522 0.930 . S
H1514 C1524 0.930 . S
H1515 C1527 0.929 . S
H1516 C1530 0.930 . S
H1517 C1532 0.960 . S
H1518 C1532 0.960 . S
H1519 C1532 0.960 . S
C1520 H1512 0.929 . S
C1520 C1521 1.377 . S
C1520 C1522 1.384 . S
C1521 C1520 1.377 . S
C1521 C1527 1.390 . S
C1522 H1513 0.930 . S
C1522 C1520 1.384 . S
C1522 C1523 1.372 . S
C1523 C1522 1.372 . S
C1523 C1524 1.400 . S
C1523 C1528 1.490 . S
C1524 H1514 0.930 . S
C1524 C1523 1.400 . S
C1524 C1527 1.386 . S
H1525 C1541 0.930 . S
H1526 C1542 0.931 . S
C1527 H1515 0.929 . S
C1527 C1521 1.390 . S
C1527 C1524 1.386 . S
C1528 C1523 1.490 . S
C1528 C1530 1.395 . S
C1528 C1531 1.403 . S
H1529 C1535 0.930 . S
C1530 H1516 0.930 . S
C1530 C1528 1.395 . S
C1530 C1533 1.403 . S
C1531 C1528 1.403 . S
C1531 C1532 1.524 . S
C1531 C1535 1.400 . S
C1532 H1517 0.960 . S
C1532 H1518 0.960 . S
C1532 H1519 0.960 . S
C1532 C1531 1.524 . S
C1533 C1530 1.403 . S
C1533 C1534 1.392 . S
C1533 C1537 1.495 . S
C1534 C1533 1.392 . S
C1534 C1535 1.385 . S
C1534 C1536 1.478 . S
C1535 H1529 0.930 . S
C1535 C1531 1.400 . S
C1535 C1534 1.385 . S
C1536 C1534 1.478 . S
C1536 C1538 1.381 . S
C1536 C1542 1.383 . S
C1537 C1533 1.495 . S
C1537 H1543 0.959 . S
C1537 H1544 0.961 . S
C1537 H1545 0.960 . S
C1538 C1536 1.381 . S
C1538 C1539 1.394 . S
C1538 H1546 0.930 . S
C1539 C1538 1.394 . S
C1539 C1540 1.383 . S
C1539 H1547 0.929 . S
C1540 C1539 1.383 . S
C1540 C1541 1.377 . S
C1541 H1525 0.930 . S
C1541 C1540 1.377 . S
C1541 C1542 1.379 . S
C1542 H1526 0.931 . S
C1542 C1536 1.383 . S
C1542 C1541 1.379 . S
H1543 C1537 0.959 . S
H1544 C1537 0.961 . S
H1545 C1537 0.960 . S
H1546 C1538 0.930 . S
H1547 C1539 0.929 . S
H1548 C1556 0.929 . S
H1549 C1558 0.930 . S
H1550 C1560 0.930 . S
H1551 C1563 0.929 . S
H1552 C1566 0.930 . S
H1553 C1568 0.960 . S
H1554 C1568 0.960 . S
H1555 C1568 0.960 . S
C1556 H1548 0.929 . S
C1556 C1557 1.377 . S
C1556 C1558 1.384 . S
C1557 C1556 1.377 . S
C1557 C1563 1.390 . S
C1558 H1549 0.930 . S
C1558 C1556 1.384 . S
C1558 C1559 1.372 . S
C1559 C1558 1.372 . S
C1559 C1560 1.400 . S
C1559 C1564 1.490 . S
C1560 H1550 0.930 . S
C1560 C1559 1.400 . S
C1560 C1563 1.386 . S
H1561 C1577 0.930 . S
H1562 C1578 0.931 . S
C1563 H1551 0.929 . S
C1563 C1557 1.390 . S
C1563 C1560 1.386 . S
C1564 C1559 1.490 . S
C1564 C1566 1.395 . S
C1564 C1567 1.403 . S
H1565 C1571 0.930 . S
C1566 H1552 0.930 . S
C1566 C1564 1.395 . S
C1566 C1569 1.403 . S
C1567 C1564 1.403 . S
C1567 C1568 1.524 . S
C1567 C1571 1.400 . S
C1568 H1553 0.960 . S
C1568 H1554 0.960 . S
C1568 H1555 0.960 . S
C1568 C1567 1.524 . S
C1569 C1566 1.403 . S
C1569 C1570 1.392 . S
C1569 C1573 1.495 . S
C1570 C1569 1.392 . S
C1570 C1571 1.385 . S
C1570 C1572 1.478 . S
C1571 H1565 0.930 . S
C1571 C1567 1.400 . S
C1571 C1570 1.385 . S
C1572 C1570 1.478 . S
C1572 C1574 1.381 . S
C1572 C1578 1.383 . S
C1573 C1569 1.495 . S
C1573 H1579 0.959 . S
C1573 H1580 0.961 . S
C1573 H1581 0.960 . S
C1574 C1572 1.381 . S
C1574 C1575 1.394 . S
C1574 H1582 0.930 . S
C1575 C1574 1.394 . S
C1575 C1576 1.383 . S
C1575 H1583 0.929 . S
C1576 C1575 1.383 . S
C1576 C1577 1.377 . S
C1577 H1561 0.930 . S
C1577 C1576 1.377 . S
C1577 C1578 1.379 . S
C1578 H1562 0.931 . S
C1578 C1572 1.383 . S
C1578 C1577 1.379 . S
H1579 C1573 0.959 . S
H1580 C1573 0.961 . S
H1581 C1573 0.960 . S
H1582 C1574 0.930 . S
H1583 C1575 0.929 . S
H1584 C1592 0.929 . S
H1585 C1594 0.930 . S
H1586 C1596 0.930 . S
H1587 C1599 0.929 . S
H1588 C1602 0.930 . S
H1589 C1604 0.960 . S
H1590 C1604 0.960 . S
H1591 C1604 0.960 . S
C1592 H1584 0.929 . S
C1592 C1593 1.377 . S
C1592 C1594 1.384 . S
C1593 C1592 1.377 . S
C1593 C1599 1.390 . S
C1594 H1585 0.930 . S
C1594 C1592 1.384 . S
C1594 C1595 1.372 . S
C1595 C1594 1.372 . S
C1595 C1596 1.400 . S
C1595 C1600 1.490 . S
C1596 H1586 0.930 . S
C1596 C1595 1.400 . S
C1596 C1599 1.386 . S
H1597 C1613 0.930 . S
H1598 C1614 0.931 . S
C1599 H1587 0.929 . S
C1599 C1593 1.390 . S
C1599 C1596 1.386 . S
C1600 C1595 1.490 . S
C1600 C1602 1.395 . S
C1600 C1603 1.403 . S
H1601 C1607 0.930 . S
C1602 H1588 0.930 . S
C1602 C1600 1.395 . S
C1602 C1605 1.403 . S
C1603 C1600 1.403 . S
C1603 C1604 1.524 . S
C1603 C1607 1.400 . S
C1604 H1589 0.960 . S
C1604 H1590 0.960 . S
C1604 H1591 0.960 . S
C1604 C1603 1.524 . S
C1605 C1602 1.403 . S
C1605 C1606 1.392 . S
C1605 C1609 1.495 . S
C1606 C1605 1.392 . S
C1606 C1607 1.385 . S
C1606 C1608 1.478 . S
C1607 H1601 0.930 . S
C1607 C1603 1.400 . S
C1607 C1606 1.385 . S
C1608 C1606 1.478 . S
C1608 C1610 1.381 . S
C1608 C1614 1.383 . S
C1609 C1605 1.495 . S
C1609 H1615 0.959 . S
C1609 H1616 0.961 . S
C1609 H1617 0.960 . S
C1610 C1608 1.381 . S
C1610 C1611 1.394 . S
C1610 H1618 0.930 . S
C1611 C1610 1.394 . S
C1611 C1612 1.383 . S
C1611 H1619 0.929 . S
C1612 C1611 1.383 . S
C1612 C1613 1.377 . S
C1613 H1597 0.930 . S
C1613 C1612 1.377 . S
C1613 C1614 1.379 . S
C1614 H1598 0.931 . S
C1614 C1608 1.383 . S
C1614 C1613 1.379 . S
H1615 C1609 0.959 . S
H1616 C1609 0.961 . S
H1617 C1609 0.960 . S
H1618 C1610 0.930 . S
H1619 C1611 0.929 . S
H1620 C1628 0.929 . S
H1621 C1630 0.930 . S
H1622 C1632 0.930 . S
H1623 C1635 0.929 . S
H1624 C1638 0.930 . S
H1625 C1640 0.960 . S
H1626 C1640 0.960 . S
H1627 C1640 0.960 . S
C1628 H1620 0.929 . S
C1628 C1629 1.377 . S
C1628 C1630 1.384 . S
C1629 C1628 1.377 . S
C1629 C1635 1.390 . S
C1630 H1621 0.930 . S
C1630 C1628 1.384 . S
C1630 C1631 1.372 . S
C1631 C1630 1.372 . S
C1631 C1632 1.400 . S
C1631 C1636 1.490 . S
C1632 H1622 0.930 . S
C1632 C1631 1.400 . S
C1632 C1635 1.386 . S
H1633 C1649 0.930 . S
H1634 C1650 0.931 . S
C1635 H1623 0.929 . S
C1635 C1629 1.390 . S
C1635 C1632 1.386 . S
C1636 C1631 1.490 . S
C1636 C1638 1.395 . S
C1636 C1639 1.403 . S
H1637 C1643 0.930 . S
C1638 H1624 0.930 . S
C1638 C1636 1.395 . S
C1638 C1641 1.403 . S
C1639 C1636 1.403 . S
C1639 C1640 1.524 . S
C1639 C1643 1.400 . S
C1640 H1625 0.960 . S
C1640 H1626 0.960 . S
C1640 H1627 0.960 . S
C1640 C1639 1.524 . S
C1641 C1638 1.403 . S
C1641 C1642 1.392 . S
C1641 C1645 1.495 . S
C1642 C1641 1.392 . S
C1642 C1643 1.385 . S
C1642 C1644 1.478 . S
C1643 H1637 0.930 . S
C1643 C1639 1.400 . S
C1643 C1642 1.385 . S
C1644 C1642 1.478 . S
C1644 C1646 1.381 . S
C1644 C1650 1.383 . S
C1645 C1641 1.495 . S
C1645 H1651 0.959 . S
C1645 H1652 0.961 . S
C1645 H1653 0.960 . S
C1646 C1644 1.381 . S
C1646 C1647 1.394 . S
C1646 H1654 0.930 . S
C1647 C1646 1.394 . S
C1647 C1648 1.383 . S
C1647 H1655 0.929 . S
C1648 C1647 1.383 . S
C1648 C1649 1.377 . S
C1649 H1633 0.930 . S
C1649 C1648 1.377 . S
C1649 C1650 1.379 . S
C1650 H1634 0.931 . S
C1650 C1644 1.383 . S
C1650 C1649 1.379 . S
H1651 C1645 0.959 . S
H1652 C1645 0.961 . S
H1653 C1645 0.960 . S
H1654 C1646 0.930 . S
H1655 C1647 0.929 . S
H1656 C1664 0.929 . S
H1657 C1666 0.930 . S
H1658 C1668 0.930 . S
H1659 C1671 0.929 . S
H1660 C1674 0.930 . S
H1661 C1676 0.960 . S
H1662 C1676 0.960 . S
H1663 C1676 0.960 . S
C1664 H1656 0.929 . S
C1664 C1665 1.377 . S
C1664 C1666 1.384 . S
C1665 C1664 1.377 . S
C1665 C1671 1.390 . S
C1666 H1657 0.930 . S
C1666 C1664 1.384 . S
C1666 C1667 1.372 . S
C1667 C1666 1.372 . S
C1667 C1668 1.400 . S
C1667 C1672 1.490 . S
C1668 H1658 0.930 . S
C1668 C1667 1.400 . S
C1668 C1671 1.386 . S
H1669 C1685 0.930 . S
H1670 C1686 0.931 . S
C1671 H1659 0.929 . S
C1671 C1665 1.390 . S
C1671 C1668 1.386 . S
C1672 C1667 1.490 . S
C1672 C1674 1.395 . S
C1672 C1675 1.403 . S
H1673 C1679 0.930 . S
C1674 H1660 0.930 . S
C1674 C1672 1.395 . S
C1674 C1677 1.403 . S
C1675 C1672 1.403 . S
C1675 C1676 1.524 . S
C1675 C1679 1.400 . S
C1676 H1661 0.960 . S
C1676 H1662 0.960 . S
C1676 H1663 0.960 . S
C1676 C1675 1.524 . S
C1677 C1674 1.403 . S
C1677 C1678 1.392 . S
C1677 C1681 1.495 . S
C1678 C1677 1.392 . S
C1678 C1679 1.385 . S
C1678 C1680 1.478 . S
C1679 H1673 0.930 . S
C1679 C1675 1.400 . S
C1679 C1678 1.385 . S
C1680 C1678 1.478 . S
C1680 C1682 1.381 . S
C1680 C1686 1.383 . S
C1681 C1677 1.495 . S
C1681 H1687 0.959 . S
C1681 H1688 0.961 . S
C1681 H1689 0.960 . S
C1682 C1680 1.381 . S
C1682 C1683 1.394 . S
C1682 H1690 0.930 . S
C1683 C1682 1.394 . S
C1683 C1684 1.383 . S
C1683 H1691 0.929 . S
C1684 C1683 1.383 . S
C1684 C1685 1.377 . S
C1685 H1669 0.930 . S
C1685 C1684 1.377 . S
C1685 C1686 1.379 . S
C1686 H1670 0.931 . S
C1686 C1680 1.383 . S
C1686 C1685 1.379 . S
H1687 C1681 0.959 . S
H1688 C1681 0.961 . S
H1689 C1681 0.960 . S
H1690 C1682 0.930 . S
H1691 C1683 0.929 . S
H1692 C1700 0.929 . S
H1693 C1702 0.930 . S
H1694 C1704 0.930 . S
H1695 C1707 0.929 . S
H1696 C1710 0.930 . S
H1697 C1712 0.960 . S
H1698 C1712 0.960 . S
H1699 C1712 0.960 . S
C1700 H1692 0.929 . S
C1700 C1701 1.377 . S
C1700 C1702 1.384 . S
C1701 C1700 1.377 . S
C1701 C1707 1.390 . S
C1702 H1693 0.930 . S
C1702 C1700 1.384 . S
C1702 C1703 1.372 . S
C1703 C1702 1.372 . S
C1703 C1704 1.400 . S
C1703 C1708 1.490 . S
C1704 H1694 0.930 . S
C1704 C1703 1.400 . S
C1704 C1707 1.386 . S
H1705 C1721 0.930 . S
H1706 C1722 0.931 . S
C1707 H1695 0.929 . S
C1707 C1701 1.390 . S
C1707 C1704 1.386 . S
C1708 C1703 1.490 . S
C1708 C1710 1.395 . S
C1708 C1711 1.403 . S
H1709 C1715 0.930 . S
C1710 H1696 0.930 . S
C1710 C1708 1.395 . S
C1710 C1713 1.403 . S
C1711 C1708 1.403 . S
C1711 C1712 1.524 . S
C1711 C1715 1.400 . S
C1712 H1697 0.960 . S
C1712 H1698 0.960 . S
C1712 H1699 0.960 . S
C1712 C1711 1.524 . S
C1713 C1710 1.403 . S
C1713 C1714 1.392 . S
C1713 C1717 1.495 . S
C1714 C1713 1.392 . S
C1714 C1715 1.385 . S
C1714 C1716 1.478 . S
C1715 H1709 0.930 . S
C1715 C1711 1.400 . S
C1715 C1714 1.385 . S
C1716 C1714 1.478 . S
C1716 C1718 1.381 . S
C1716 C1722 1.383 . S
C1717 C1713 1.495 . S
C1717 H1723 0.959 . S
C1717 H1724 0.961 . S
C1717 H1725 0.960 . S
C1718 C1716 1.381 . S
C1718 C1719 1.394 . S
C1718 H1726 0.930 . S
C1719 C1718 1.394 . S
C1719 C1720 1.383 . S
C1719 H1727 0.929 . S
C1720 C1719 1.383 . S
C1720 C1721 1.377 . S
C1721 H1705 0.930 . S
C1721 C1720 1.377 . S
C1721 C1722 1.379 . S
C1722 H1706 0.931 . S
C1722 C1716 1.383 . S
C1722 C1721 1.379 . S
H1723 C1717 0.959 . S
H1724 C1717 0.961 . S
H1725 C1717 0.960 . S
H1726 C1718 0.930 . S
H1727 C1719 0.929 . S
H1728 C1736 0.929 . S
H1729 C1738 0.930 . S
H1730 C1740 0.930 . S
H1731 C1743 0.929 . S
H1732 C1746 0.930 . S
H1733 C1748 0.960 . S
H1734 C1748 0.960 . S
H1735 C1748 0.960 . S
C1736 H1728 0.929 . S
C1736 C1737 1.377 . S
C1736 C1738 1.384 . S
C1737 C1736 1.377 . S
C1737 C1743 1.390 . S
C1738 H1729 0.930 . S
C1738 C1736 1.384 . S
C1738 C1739 1.372 . S
C1739 C1738 1.372 . S
C1739 C1740 1.400 . S
C1739 C1744 1.490 . S
C1740 H1730 0.930 . S
C1740 C1739 1.400 . S
C1740 C1743 1.386 . S
H1741 C1757 0.930 . S
H1742 C1758 0.931 . S
C1743 H1731 0.929 . S
C1743 C1737 1.390 . S
C1743 C1740 1.386 . S
C1744 C1739 1.490 . S
C1744 C1746 1.395 . S
C1744 C1747 1.403 . S
H1745 C1751 0.930 . S
C1746 H1732 0.930 . S
C1746 C1744 1.395 . S
C1746 C1749 1.403 . S
C1747 C1744 1.403 . S
C1747 C1748 1.524 . S
C1747 C1751 1.400 . S
C1748 H1733 0.960 . S
C1748 H1734 0.960 . S
C1748 H1735 0.960 . S
C1748 C1747 1.524 . S
C1749 C1746 1.403 . S
C1749 C1750 1.392 . S
C1749 C1753 1.495 . S
C1750 C1749 1.392 . S
C1750 C1751 1.385 . S
C1750 C1752 1.478 . S
C1751 H1745 0.930 . S
C1751 C1747 1.400 . S
C1751 C1750 1.385 . S
C1752 C1750 1.478 . S
C1752 C1754 1.381 . S
C1752 C1758 1.383 . S
C1753 C1749 1.495 . S
C1753 H1759 0.959 . S
C1753 H1760 0.961 . S
C1753 H1761 0.960 . S
C1754 C1752 1.381 . S
C1754 C1755 1.394 . S
C1754 H1762 0.930 . S
C1755 C1754 1.394 . S
C1755 C1756 1.383 . S
C1755 H1763 0.929 . S
C1756 C1755 1.383 . S
C1756 C1757 1.377 . S
C1757 H1741 0.930 . S
C1757 C1756 1.377 . S
C1757 C1758 1.379 . S
C1758 H1742 0.931 . S
C1758 C1752 1.383 . S
C1758 C1757 1.379 . S
H1759 C1753 0.959 . S
H1760 C1753 0.961 . S
H1761 C1753 0.960 . S
H1762 C1754 0.930 . S
H1763 C1755 0.929 . S
H1764 C1772 0.929 . S
H1765 C1774 0.930 . S
H1766 C1776 0.930 . S
H1767 C1779 0.929 . S
H1768 C1782 0.930 . S
H1769 C1784 0.960 . S
H1770 C1784 0.960 . S
H1771 C1784 0.960 . S
C1772 H1764 0.929 . S
C1772 C1773 1.377 . S
C1772 C1774 1.384 . S
C1773 C1772 1.377 . S
C1773 C1779 1.390 . S
C1774 H1765 0.930 . S
C1774 C1772 1.384 . S
C1774 C1775 1.372 . S
C1775 C1774 1.372 . S
C1775 C1776 1.400 . S
C1775 C1780 1.490 . S
C1776 H1766 0.930 . S
C1776 C1775 1.400 . S
C1776 C1779 1.386 . S
H1777 C1793 0.930 . S
H1778 C1794 0.931 . S
C1779 H1767 0.929 . S
C1779 C1773 1.390 . S
C1779 C1776 1.386 . S
C1780 C1775 1.490 . S
C1780 C1782 1.395 . S
C1780 C1783 1.403 . S
H1781 C1787 0.930 . S
C1782 H1768 0.930 . S
C1782 C1780 1.395 . S
C1782 C1785 1.403 . S
C1783 C1780 1.403 . S
C1783 C1784 1.524 . S
C1783 C1787 1.400 . S
C1784 H1769 0.960 . S
C1784 H1770 0.960 . S
C1784 H1771 0.960 . S
C1784 C1783 1.524 . S
C1785 C1782 1.403 . S
C1785 C1786 1.392 . S
C1785 C1789 1.495 . S
C1786 C1785 1.392 . S
C1786 C1787 1.385 . S
C1786 C1788 1.478 . S
C1787 H1781 0.930 . S
C1787 C1783 1.400 . S
C1787 C1786 1.385 . S
C1788 C1786 1.478 . S
C1788 C1790 1.381 . S
C1788 C1794 1.383 . S
C1789 C1785 1.495 . S
C1789 H1795 0.959 . S
C1789 H1796 0.961 . S
C1789 H1797 0.960 . S
C1790 C1788 1.381 . S
C1790 C1791 1.394 . S
C1790 H1798 0.930 . S
C1791 C1790 1.394 . S
C1791 C1792 1.383 . S
C1791 H1799 0.929 . S
C1792 C1791 1.383 . S
C1792 C1793 1.377 . S
C1793 H1777 0.930 . S
C1793 C1792 1.377 . S
C1793 C1794 1.379 . S
C1794 H1778 0.931 . S
C1794 C1788 1.383 . S
C1794 C1793 1.379 . S
H1795 C1789 0.959 . S
H1796 C1789 0.961 . S
H1797 C1789 0.960 . S
H1798 C1790 0.930 . S
H1799 C1791 0.929 . S
H1800 C1808 0.929 . S
H1801 C1810 0.930 . S
H1802 C1812 0.930 . S
H1803 C1815 0.929 . S
H1804 C1818 0.930 . S
H1805 C1820 0.960 . S
H1806 C1820 0.960 . S
H1807 C1820 0.960 . S
C1808 H1800 0.929 . S
C1808 C1809 1.377 . S
C1808 C1810 1.384 . S
C1809 C1808 1.377 . S
C1809 C1815 1.390 . S
C1810 H1801 0.930 . S
C1810 C1808 1.384 . S
C1810 C1811 1.372 . S
C1811 C1810 1.372 . S
C1811 C1812 1.400 . S
C1811 C1816 1.490 . S
C1812 H1802 0.930 . S
C1812 C1811 1.400 . S
C1812 C1815 1.386 . S
H1813 C1829 0.930 . S
H1814 C1830 0.931 . S
C1815 H1803 0.929 . S
C1815 C1809 1.390 . S
C1815 C1812 1.386 . S
C1816 C1811 1.490 . S
C1816 C1818 1.395 . S
C1816 C1819 1.403 . S
H1817 C1823 0.930 . S
C1818 H1804 0.930 . S
C1818 C1816 1.395 . S
C1818 C1821 1.403 . S
C1819 C1816 1.403 . S
C1819 C1820 1.524 . S
C1819 C1823 1.400 . S
C1820 H1805 0.960 . S
C1820 H1806 0.960 . S
C1820 H1807 0.960 . S
C1820 C1819 1.524 . S
C1821 C1818 1.403 . S
C1821 C1822 1.392 . S
C1821 C1825 1.495 . S
C1822 C1821 1.392 . S
C1822 C1823 1.385 . S
C1822 C1824 1.478 . S
C1823 H1817 0.930 . S
C1823 C1819 1.400 . S
C1823 C1822 1.385 . S
C1824 C1822 1.478 . S
C1824 C1826 1.381 . S
C1824 C1830 1.383 . S
C1825 C1821 1.495 . S
C1825 H1831 0.959 . S
C1825 H1832 0.961 . S
C1825 H1833 0.960 . S
C1826 C1824 1.381 . S
C1826 C1827 1.394 . S
C1826 H1834 0.930 . S
C1827 C1826 1.394 . S
C1827 C1828 1.383 . S
C1827 H1835 0.929 . S
C1828 C1827 1.383 . S
C1828 C1829 1.377 . S
C1829 H1813 0.930 . S
C1829 C1828 1.377 . S
C1829 C1830 1.379 . S
C1830 H1814 0.931 . S
C1830 C1824 1.383 . S
C1830 C1829 1.379 . S
H1831 C1825 0.959 . S
H1832 C1825 0.961 . S
H1833 C1825 0.960 . S
H1834 C1826 0.930 . S
H1835 C1827 0.929 . S
H1836 C1844 0.929 . S
H1837 C1846 0.930 . S
H1838 C1848 0.930 . S
H1839 C1851 0.929 . S
H1840 C1854 0.930 . S
H1841 C1856 0.960 . S
H1842 C1856 0.960 . S
H1843 C1856 0.960 . S
C1844 H1836 0.929 . S
C1844 C1845 1.377 . S
C1844 C1846 1.384 . S
C1845 C1844 1.377 . S
C1845 C1851 1.390 . S
C1846 H1837 0.930 . S
C1846 C1844 1.384 . S
C1846 C1847 1.372 . S
C1847 C1846 1.372 . S
C1847 C1848 1.400 . S
C1847 C1852 1.490 . S
C1848 H1838 0.930 . S
C1848 C1847 1.400 . S
C1848 C1851 1.386 . S
H1849 C1865 0.930 . S
H1850 C1866 0.931 . S
C1851 H1839 0.929 . S
C1851 C1845 1.390 . S
C1851 C1848 1.386 . S
C1852 C1847 1.490 . S
C1852 C1854 1.395 . S
C1852 C1855 1.403 . S
H1853 C1859 0.930 . S
C1854 H1840 0.930 . S
C1854 C1852 1.395 . S
C1854 C1857 1.403 . S
C1855 C1852 1.403 . S
C1855 C1856 1.524 . S
C1855 C1859 1.400 . S
C1856 H1841 0.960 . S
C1856 H1842 0.960 . S
C1856 H1843 0.960 . S
C1856 C1855 1.524 . S
C1857 C1854 1.403 . S
C1857 C1858 1.392 . S
C1857 C1861 1.495 . S
C1858 C1857 1.392 . S
C1858 C1859 1.385 . S
C1858 C1860 1.478 . S
C1859 H1853 0.930 . S
C1859 C1855 1.400 . S
C1859 C1858 1.385 . S
C1860 C1858 1.478 . S
C1860 C1862 1.381 . S
C1860 C1866 1.383 . S
C1861 C1857 1.495 . S
C1861 H1867 0.959 . S
C1861 H1868 0.961 . S
C1861 H1869 0.960 . S
C1862 C1860 1.381 . S
C1862 C1863 1.394 . S
C1862 H1870 0.930 . S
C1863 C1862 1.394 . S
C1863 C1864 1.383 . S
C1863 H1871 0.929 . S
C1864 C1863 1.383 . S
C1864 C1865 1.377 . S
C1865 H1849 0.930 . S
C1865 C1864 1.377 . S
C1865 C1866 1.379 . S
C1866 H1850 0.931 . S
C1866 C1860 1.383 . S
C1866 C1865 1.379 . S
H1867 C1861 0.959 . S
H1868 C1861 0.961 . S
H1869 C1861 0.960 . S
H1870 C1862 0.930 . S
H1871 C1863 0.929 . S
H1872 C1880 0.929 . S
H1873 C1882 0.930 . S
H1874 C1884 0.930 . S
H1875 C1887 0.929 . S
H1876 C1890 0.930 . S
H1877 C1892 0.960 . S
H1878 C1892 0.960 . S
H1879 C1892 0.960 . S
C1880 H1872 0.929 . S
C1880 C1881 1.377 . S
C1880 C1882 1.384 . S
C1881 C1880 1.377 . S
C1881 C1887 1.390 . S
C1882 H1873 0.930 . S
C1882 C1880 1.384 . S
C1882 C1883 1.372 . S
C1883 C1882 1.372 . S
C1883 C1884 1.400 . S
C1883 C1888 1.490 . S
C1884 H1874 0.930 . S
C1884 C1883 1.400 . S
C1884 C1887 1.386 . S
H1885 C1901 0.930 . S
H1886 C1902 0.931 . S
C1887 H1875 0.929 . S
C1887 C1881 1.390 . S
C1887 C1884 1.386 . S
C1888 C1883 1.490 . S
C1888 C1890 1.395 . S
C1888 C1891 1.403 . S
H1889 C1895 0.930 . S
C1890 H1876 0.930 . S
C1890 C1888 1.395 . S
C1890 C1893 1.403 . S
C1891 C1888 1.403 . S
C1891 C1892 1.524 . S
C1891 C1895 1.400 . S
C1892 H1877 0.960 . S
C1892 H1878 0.960 . S
C1892 H1879 0.960 . S
C1892 C1891 1.524 . S
C1893 C1890 1.403 . S
C1893 C1894 1.392 . S
C1893 C1897 1.495 . S
C1894 C1893 1.392 . S
C1894 C1895 1.385 . S
C1894 C1896 1.478 . S
C1895 H1889 0.930 . S
C1895 C1891 1.400 . S
C1895 C1894 1.385 . S
C1896 C1894 1.478 . S
C1896 C1898 1.381 . S
C1896 C1902 1.383 . S
C1897 C1893 1.495 . S
C1897 H1903 0.959 . S
C1897 H1904 0.961 . S
C1897 H1905 0.960 . S
C1898 C1896 1.381 . S
C1898 C1899 1.394 . S
C1898 H1906 0.930 . S
C1899 C1898 1.394 . S
C1899 C1900 1.383 . S
C1899 H1907 0.929 . S
C1900 C1899 1.383 . S
C1900 C1901 1.377 . S
C1901 H1885 0.930 . S
C1901 C1900 1.377 . S
C1901 C1902 1.379 . S
C1902 H1886 0.931 . S
C1902 C1896 1.383 . S
C1902 C1901 1.379 . S
H1903 C1897 0.959 . S
H1904 C1897 0.961 . S
H1905 C1897 0.960 . S
H1906 C1898 0.930 . S
H1907 C1899 0.929 . S
H1908 C1916 0.929 . S
H1909 C1918 0.930 . S
H1910 C1920 0.930 . S
H1911 C1923 0.929 . S
H1912 C1926 0.930 . S
H1913 C1928 0.960 . S
H1914 C1928 0.960 . S
H1915 C1928 0.960 . S
C1916 H1908 0.929 . S
C1916 C1917 1.377 . S
C1916 C1918 1.384 . S
C1917 C1916 1.377 . S
C1917 C1923 1.390 . S
C1918 H1909 0.930 . S
C1918 C1916 1.384 . S
C1918 C1919 1.372 . S
C1919 C1918 1.372 . S
C1919 C1920 1.400 . S
C1919 C1924 1.490 . S
C1920 H1910 0.930 . S
C1920 C1919 1.400 . S
C1920 C1923 1.386 . S
H1921 C1937 0.930 . S
H1922 C1938 0.931 . S
C1923 H1911 0.929 . S
C1923 C1917 1.390 . S
C1923 C1920 1.386 . S
C1924 C1919 1.490 . S
C1924 C1926 1.395 . S
C1924 C1927 1.403 . S
H1925 C1931 0.930 . S
C1926 H1912 0.930 . S
C1926 C1924 1.395 . S
C1926 C1929 1.403 . S
C1927 C1924 1.403 . S
C1927 C1928 1.524 . S
C1927 C1931 1.400 . S
C1928 H1913 0.960 . S
C1928 H1914 0.960 . S
C1928 H1915 0.960 . S
C1928 C1927 1.524 . S
C1929 C1926 1.403 . S
C1929 C1930 1.392 . S
C1929 C1933 1.495 . S
C1930 C1929 1.392 . S
C1930 C1931 1.385 . S
C1930 C1932 1.478 . S
C1931 H1925 0.930 . S
C1931 C1927 1.400 . S
C1931 C1930 1.385 . S
C1932 C1930 1.478 . S
C1932 C1934 1.381 . S
C1932 C1938 1.383 . S
C1933 C1929 1.495 . S
C1933 H1939 0.959 . S
C1933 H1940 0.961 . S
C1933 H1941 0.960 . S
C1934 C1932 1.381 . S
C1934 C1935 1.394 . S
C1934 H1942 0.930 . S
C1935 C1934 1.394 . S
C1935 C1936 1.383 . S
C1935 H1943 0.929 . S
C1936 C1935 1.383 . S
C1936 C1937 1.377 . S
C1937 H1921 0.930 . S
C1937 C1936 1.377 . S
C1937 C1938 1.379 . S
C1938 H1922 0.931 . S
C1938 C1932 1.383 . S
C1938 C1937 1.379 . S
H1939 C1933 0.959 . S
H1940 C1933 0.961 . S
H1941 C1933 0.960 . S
H1942 C1934 0.930 . S
H1943 C1935 0.929 . S
H1944 C1952 0.929 . S
H1945 C1954 0.930 . S
H1946 C1956 0.930 . S
H1947 C1959 0.929 . S
H1948 C1962 0.930 . S
H1949 C1964 0.960 . S
H1950 C1964 0.960 . S
H1951 C1964 0.960 . S
C1952 H1944 0.929 . S
C1952 C1953 1.377 . S
C1952 C1954 1.384 . S
C1953 C1952 1.377 . S
C1953 C1959 1.390 . S
C1954 H1945 0.930 . S
C1954 C1952 1.384 . S
C1954 C1955 1.372 . S
C1955 C1954 1.372 . S
C1955 C1956 1.400 . S
C1955 C1960 1.490 . S
C1956 H1946 0.930 . S
C1956 C1955 1.400 . S
C1956 C1959 1.386 . S
H1957 C1973 0.930 . S
H1958 C1974 0.931 . S
C1959 H1947 0.929 . S
C1959 C1953 1.390 . S
C1959 C1956 1.386 . S
C1960 C1955 1.490 . S
C1960 C1962 1.395 . S
C1960 C1963 1.403 . S
H1961 C1967 0.930 . S
C1962 H1948 0.930 . S
C1962 C1960 1.395 . S
C1962 C1965 1.403 . S
C1963 C1960 1.403 . S
C1963 C1964 1.524 . S
C1963 C1967 1.400 . S
C1964 H1949 0.960 . S
C1964 H1950 0.960 . S
C1964 H1951 0.960 . S
C1964 C1963 1.524 . S
C1965 C1962 1.403 . S
C1965 C1966 1.392 . S
C1965 C1969 1.495 . S
C1966 C1965 1.392 . S
C1966 C1967 1.385 . S
C1966 C1968 1.478 . S
C1967 H1961 0.930 . S
C1967 C1963 1.400 . S
C1967 C1966 1.385 . S
C1968 C1966 1.478 . S
C1968 C1970 1.381 . S
C1968 C1974 1.383 . S
C1969 C1965 1.495 . S
C1969 H1975 0.959 . S
C1969 H1976 0.961 . S
C1969 H1977 0.960 . S
C1970 C1968 1.381 . S
C1970 C1971 1.394 . S
C1970 H1978 0.930 . S
C1971 C1970 1.394 . S
C1971 C1972 1.383 . S
C1971 H1979 0.929 . S
C1972 C1971 1.383 . S
C1972 C1973 1.377 . S
C1973 H1957 0.930 . S
C1973 C1972 1.377 . S
C1973 C1974 1.379 . S
C1974 H1958 0.931 . S
C1974 C1968 1.383 . S
C1974 C1973 1.379 . S
H1975 C1969 0.959 . S
H1976 C1969 0.961 . S
H1977 C1969 0.960 . S
H1978 C1970 0.930 . S
H1979 C1971 0.929 . S
H1980 C1988 0.929 . S
H1981 C1990 0.930 . S
H1982 C1992 0.930 . S
H1983 C1995 0.929 . S
H1984 C1998 0.930 . S
H1985 C2000 0.960 . S
H1986 C2000 0.960 . S
H1987 C2000 0.960 . S
C1988 H1980 0.929 . S
C1988 C1989 1.377 . S
C1988 C1990 1.384 . S
C1989 C1988 1.377 . S
C1989 C1995 1.390 . S
C1990 H1981 0.930 . S
C1990 C1988 1.384 . S
C1990 C1991 1.372 . S
C1991 C1990 1.372 . S
C1991 C1992 1.400 . S
C1991 C1996 1.490 . S
C1992 H1982 0.930 . S
C1992 C1991 1.400 . S
C1992 C1995 1.386 . S
H1993 C2009 0.930 . S
H1994 C2010 0.931 . S
C1995 H1983 0.929 . S
C1995 C1989 1.390 . S
C1995 C1992 1.386 . S
C1996 C1991 1.490 . S
C1996 C1998 1.395 . S
C1996 C1999 1.403 . S
H1997 C2003 0.930 . S
C1998 H1984 0.930 . S
C1998 C1996 1.395 . S
C1998 C2001 1.403 . S
C1999 C1996 1.403 . S
C1999 C2000 1.524 . S
C1999 C2003 1.400 . S
C2000 H1985 0.960 . S
C2000 H1986 0.960 . S
C2000 H1987 0.960 . S
C2000 C1999 1.524 . S
C2001 C1998 1.403 . S
C2001 C2002 1.392 . S
C2001 C2005 1.495 . S
C2002 C2001 1.392 . S
C2002 C2003 1.385 . S
C2002 C2004 1.478 . S
C2003 H1997 0.930 . S
C2003 C1999 1.400 . S
C2003 C2002 1.385 . S
C2004 C2002 1.478 . S
C2004 C2006 1.381 . S
C2004 C2010 1.383 . S
C2005 C2001 1.495 . S
C2005 H2011 0.959 . S
C2005 H2012 0.961 . S
C2005 H2013 0.960 . S
C2006 C2004 1.381 . S
C2006 C2007 1.394 . S
C2006 H2014 0.930 . S
C2007 C2006 1.394 . S
C2007 C2008 1.383 . S
C2007 H2015 0.929 . S
C2008 C2007 1.383 . S
C2008 C2009 1.377 . S
C2009 H1993 0.930 . S
C2009 C2008 1.377 . S
C2009 C2010 1.379 . S
C2010 H1994 0.931 . S
C2010 C2004 1.383 . S
C2010 C2009 1.379 . S
H2011 C2005 0.959 . S
H2012 C2005 0.961 . S
H2013 C2005 0.960 . S
H2014 C2006 0.930 . S
H2015 C2007 0.929 . S
H2016 C2024 0.929 . S
H2017 C2026 0.930 . S
H2018 C2028 0.930 . S
H2019 C2031 0.929 . S
H2020 C2034 0.930 . S
H2021 C2036 0.960 . S
H2022 C2036 0.960 . S
H2023 C2036 0.960 . S
C2024 H2016 0.929 . S
C2024 C2025 1.377 . S
C2024 C2026 1.384 . S
C2025 C2024 1.377 . S
C2025 C2031 1.390 . S
C2026 H2017 0.930 . S
C2026 C2024 1.384 . S
C2026 C2027 1.372 . S
C2027 C2026 1.372 . S
C2027 C2028 1.400 . S
C2027 C2032 1.490 . S
C2028 H2018 0.930 . S
C2028 C2027 1.400 . S
C2028 C2031 1.386 . S
H2029 C2045 0.930 . S
H2030 C2046 0.931 . S
C2031 H2019 0.929 . S
C2031 C2025 1.390 . S
C2031 C2028 1.386 . S
C2032 C2027 1.490 . S
C2032 C2034 1.395 . S
C2032 C2035 1.403 . S
H2033 C2039 0.930 . S
C2034 H2020 0.930 . S
C2034 C2032 1.395 . S
C2034 C2037 1.403 . S
C2035 C2032 1.403 . S
C2035 C2036 1.524 . S
C2035 C2039 1.400 . S
C2036 H2021 0.960 . S
C2036 H2022 0.960 . S
C2036 H2023 0.960 . S
C2036 C2035 1.524 . S
C2037 C2034 1.403 . S
C2037 C2038 1.392 . S
C2037 C2041 1.495 . S
C2038 C2037 1.392 . S
C2038 C2039 1.385 . S
C2038 C2040 1.478 . S
C2039 H2033 0.930 . S
C2039 C2035 1.400 . S
C2039 C2038 1.385 . S
C2040 C2038 1.478 . S
C2040 C2042 1.381 . S
C2040 C2046 1.383 . S
C2041 C2037 1.495 . S
C2041 H2047 0.959 . S
C2041 H2048 0.961 . S
C2041 H2049 0.960 . S
C2042 C2040 1.381 . S
C2042 C2043 1.394 . S
C2042 H2050 0.930 . S
C2043 C2042 1.394 . S
C2043 C2044 1.383 . S
C2043 H2051 0.929 . S
C2044 C2043 1.383 . S
C2044 C2045 1.377 . S
C2045 H2029 0.930 . S
C2045 C2044 1.377 . S
C2045 C2046 1.379 . S
C2046 H2030 0.931 . S
C2046 C2040 1.383 . S
C2046 C2045 1.379 . S
H2047 C2041 0.959 . S
H2048 C2041 0.961 . S
H2049 C2041 0.960 . S
H2050 C2042 0.930 . S
H2051 C2043 0.929 . S
H2052 C2060 0.929 . S
H2053 C2062 0.930 . S
H2054 C2064 0.930 . S
H2055 C2067 0.929 . S
H2056 C2070 0.930 . S
H2057 C2072 0.960 . S
H2058 C2072 0.960 . S
H2059 C2072 0.960 . S
C2060 H2052 0.929 . S
C2060 C2061 1.377 . S
C2060 C2062 1.384 . S
C2061 C2060 1.377 . S
C2061 C2067 1.390 . S
C2062 H2053 0.930 . S
C2062 C2060 1.384 . S
C2062 C2063 1.372 . S
C2063 C2062 1.372 . S
C2063 C2064 1.400 . S
C2063 C2068 1.490 . S
C2064 H2054 0.930 . S
C2064 C2063 1.400 . S
C2064 C2067 1.386 . S
H2065 C2081 0.930 . S
H2066 C2082 0.931 . S
C2067 H2055 0.929 . S
C2067 C2061 1.390 . S
C2067 C2064 1.386 . S
C2068 C2063 1.490 . S
C2068 C2070 1.395 . S
C2068 C2071 1.403 . S
H2069 C2075 0.930 . S
C2070 H2056 0.930 . S
C2070 C2068 1.395 . S
C2070 C2073 1.403 . S
C2071 C2068 1.403 . S
C2071 C2072 1.524 . S
C2071 C2075 1.400 . S
C2072 H2057 0.960 . S
C2072 H2058 0.960 . S
C2072 H2059 0.960 . S
C2072 C2071 1.524 . S
C2073 C2070 1.403 . S
C2073 C2074 1.392 . S
C2073 C2077 1.495 . S
C2074 C2073 1.392 . S
C2074 C2075 1.385 . S
C2074 C2076 1.478 . S
C2075 H2069 0.930 . S
C2075 C2071 1.400 . S
C2075 C2074 1.385 . S
C2076 C2074 1.478 . S
C2076 C2078 1.381 . S
C2076 C2082 1.383 . S
C2077 C2073 1.495 . S
C2077 H2083 0.959 . S
C2077 H2084 0.961 . S
C2077 H2085 0.960 . S
C2078 C2076 1.381 . S
C2078 C2079 1.394 . S
C2078 H2086 0.930 . S
C2079 C2078 1.394 . S
C2079 C2080 1.383 . S
C2079 H2087 0.929 . S
C2080 C2079 1.383 . S
C2080 C2081 1.377 . S
C2081 H2065 0.930 . S
C2081 C2080 1.377 . S
C2081 C2082 1.379 . S
C2082 H2066 0.931 . S
C2082 C2076 1.383 . S
C2082 C2081 1.379 . S
H2083 C2077 0.959 . S
H2084 C2077 0.961 . S
H2085 C2077 0.960 . S
H2086 C2078 0.930 . S
H2087 C2079 0.929 . S
H2088 C2096 0.929 . S
H2089 C2098 0.930 . S
H2090 C2100 0.930 . S
H2091 C2103 0.929 . S
H2092 C2106 0.930 . S
H2093 C2108 0.960 . S
H2094 C2108 0.960 . S
H2095 C2108 0.960 . S
C2096 H2088 0.929 . S
C2096 C2097 1.377 . S
C2096 C2098 1.384 . S
C2097 C2096 1.377 . S
C2097 C2103 1.390 . S
C2098 H2089 0.930 . S
C2098 C2096 1.384 . S
C2098 C2099 1.372 . S
C2099 C2098 1.372 . S
C2099 C2100 1.400 . S
C2099 C2104 1.490 . S
C2100 H2090 0.930 . S
C2100 C2099 1.400 . S
C2100 C2103 1.386 . S
H2101 C2117 0.930 . S
H2102 C2118 0.931 . S
C2103 H2091 0.929 . S
C2103 C2097 1.390 . S
C2103 C2100 1.386 . S
C2104 C2099 1.490 . S
C2104 C2106 1.395 . S
C2104 C2107 1.403 . S
H2105 C2111 0.930 . S
C2106 H2092 0.930 . S
C2106 C2104 1.395 . S
C2106 C2109 1.403 . S
C2107 C2104 1.403 . S
C2107 C2108 1.524 . S
C2107 C2111 1.400 . S
C2108 H2093 0.960 . S
C2108 H2094 0.960 . S
C2108 H2095 0.960 . S
C2108 C2107 1.524 . S
C2109 C2106 1.403 . S
C2109 C2110 1.392 . S
C2109 C2113 1.495 . S
C2110 C2109 1.392 . S
C2110 C2111 1.385 . S
C2110 C2112 1.478 . S
C2111 H2105 0.930 . S
C2111 C2107 1.400 . S
C2111 C2110 1.385 . S
C2112 C2110 1.478 . S
C2112 C2114 1.381 . S
C2112 C2118 1.383 . S
C2113 C2109 1.495 . S
C2113 H2119 0.959 . S
C2113 H2120 0.961 . S
C2113 H2121 0.960 . S
C2114 C2112 1.381 . S
C2114 C2115 1.394 . S
C2114 H2122 0.930 . S
C2115 C2114 1.394 . S
C2115 C2116 1.383 . S
C2115 H2123 0.929 . S
C2116 C2115 1.383 . S
C2116 C2117 1.377 . S
C2117 H2101 0.930 . S
C2117 C2116 1.377 . S
C2117 C2118 1.379 . S
C2118 H2102 0.931 . S
C2118 C2112 1.383 . S
C2118 C2117 1.379 . S
H2119 C2113 0.959 . S
H2120 C2113 0.961 . S
H2121 C2113 0.960 . S
H2122 C2114 0.930 . S
H2123 C2115 0.929 . S
H2124 C2132 0.929 . S
H2125 C2134 0.930 . S
H2126 C2136 0.930 . S
H2127 C2139 0.929 . S
H2128 C2142 0.930 . S
H2129 C2144 0.960 . S
H2130 C2144 0.960 . S
H2131 C2144 0.960 . S
C2132 H2124 0.929 . S
C2132 C2133 1.377 . S
C2132 C2134 1.384 . S
C2133 C2132 1.377 . S
C2133 C2139 1.390 . S
C2134 H2125 0.930 . S
C2134 C2132 1.384 . S
C2134 C2135 1.372 . S
C2135 C2134 1.372 . S
C2135 C2136 1.400 . S
C2135 C2140 1.490 . S
C2136 H2126 0.930 . S
C2136 C2135 1.400 . S
C2136 C2139 1.386 . S
H2137 C2153 0.930 . S
H2138 C2154 0.931 . S
C2139 H2127 0.929 . S
C2139 C2133 1.390 . S
C2139 C2136 1.386 . S
C2140 C2135 1.490 . S
C2140 C2142 1.395 . S
C2140 C2143 1.403 . S
H2141 C2147 0.930 . S
C2142 H2128 0.930 . S
C2142 C2140 1.395 . S
C2142 C2145 1.403 . S
C2143 C2140 1.403 . S
C2143 C2144 1.524 . S
C2143 C2147 1.400 . S
C2144 H2129 0.960 . S
C2144 H2130 0.960 . S
C2144 H2131 0.960 . S
C2144 C2143 1.524 . S
C2145 C2142 1.403 . S
C2145 C2146 1.392 . S
C2145 C2149 1.495 . S
C2146 C2145 1.392 . S
C2146 C2147 1.385 . S
C2146 C2148 1.478 . S
C2147 H2141 0.930 . S
C2147 C2143 1.400 . S
C2147 C2146 1.385 . S
C2148 C2146 1.478 . S
C2148 C2150 1.381 . S
C2148 C2154 1.383 . S
C2149 C2145 1.495 . S
C2149 H2155 0.959 . S
C2149 H2156 0.961 . S
C2149 H2157 0.960 . S
C2150 C2148 1.381 . S
C2150 C2151 1.394 . S
C2150 H2158 0.930 . S
C2151 C2150 1.394 . S
C2151 C2152 1.383 . S
C2151 H2159 0.929 . S
C2152 C2151 1.383 . S
C2152 C2153 1.377 . S
C2153 H2137 0.930 . S
C2153 C2152 1.377 . S
C2153 C2154 1.379 . S
C2154 H2138 0.931 . S
C2154 C2148 1.383 . S
C2154 C2153 1.379 . S
H2155 C2149 0.959 . S
H2156 C2149 0.961 . S
H2157 C2149 0.960 . S
H2158 C2150 0.930 . S
H2159 C2151 0.929 . S
H2160 C2168 0.929 . S
H2161 C2170 0.930 . S
H2162 C2172 0.930 . S
H2163 C2175 0.929 . S
H2164 C2178 0.930 . S
H2165 C2180 0.960 . S
H2166 C2180 0.960 . S
H2167 C2180 0.960 . S
C2168 H2160 0.929 . S
C2168 C2169 1.377 . S
C2168 C2170 1.384 . S
C2169 C2168 1.377 . S
C2169 C2175 1.390 . S
C2170 H2161 0.930 . S
C2170 C2168 1.384 . S
C2170 C2171 1.372 . S
C2171 C2170 1.372 . S
C2171 C2172 1.400 . S
C2171 C2176 1.490 . S
C2172 H2162 0.930 . S
C2172 C2171 1.400 . S
C2172 C2175 1.386 . S
H2173 C2189 0.930 . S
H2174 C2190 0.931 . S
C2175 H2163 0.929 . S
C2175 C2169 1.390 . S
C2175 C2172 1.386 . S
C2176 C2171 1.490 . S
C2176 C2178 1.395 . S
C2176 C2179 1.403 . S
H2177 C2183 0.930 . S
C2178 H2164 0.930 . S
C2178 C2176 1.395 . S
C2178 C2181 1.403 . S
C2179 C2176 1.403 . S
C2179 C2180 1.524 . S
C2179 C2183 1.400 . S
C2180 H2165 0.960 . S
C2180 H2166 0.960 . S
C2180 H2167 0.960 . S
C2180 C2179 1.524 . S
C2181 C2178 1.403 . S
C2181 C2182 1.392 . S
C2181 C2185 1.495 . S
C2182 C2181 1.392 . S
C2182 C2183 1.385 . S
C2182 C2184 1.478 . S
C2183 H2177 0.930 . S
C2183 C2179 1.400 . S
C2183 C2182 1.385 . S
C2184 C2182 1.478 . S
C2184 C2186 1.381 . S
C2184 C2190 1.383 . S
C2185 C2181 1.495 . S
C2185 H2191 0.959 . S
C2185 H2192 0.961 . S
C2185 H2193 0.960 . S
C2186 C2184 1.381 . S
C2186 C2187 1.394 . S
C2186 H2194 0.930 . S
C2187 C2186 1.394 . S
C2187 C2188 1.383 . S
C2187 H2195 0.929 . S
C2188 C2187 1.383 . S
C2188 C2189 1.377 . S
C2189 H2173 0.930 . S
C2189 C2188 1.377 . S
C2189 C2190 1.379 . S
C2190 H2174 0.931 . S
C2190 C2184 1.383 . S
C2190 C2189 1.379 . S
H2191 C2185 0.959 . S
H2192 C2185 0.961 . S
H2193 C2185 0.960 . S
H2194 C2186 0.930 . S
H2195 C2187 0.929 . S
H2196 C2204 0.929 . S
H2197 C2206 0.930 . S
H2198 C2208 0.930 . S
H2199 C2211 0.929 . S
H2200 C2214 0.930 . S
H2201 C2216 0.960 . S
H2202 C2216 0.960 . S
H2203 C2216 0.960 . S
C2204 H2196 0.929 . S
C2204 C2205 1.377 . S
C2204 C2206 1.384 . S
C2205 C2204 1.377 . S
C2205 C2211 1.390 . S
C2206 H2197 0.930 . S
C2206 C2204 1.384 . S
C2206 C2207 1.372 . S
C2207 C2206 1.372 . S
C2207 C2208 1.400 . S
C2207 C2212 1.490 . S
C2208 H2198 0.930 . S
C2208 C2207 1.400 . S
C2208 C2211 1.386 . S
H2209 C2225 0.930 . S
H2210 C2226 0.931 . S
C2211 H2199 0.929 . S
C2211 C2205 1.390 . S
C2211 C2208 1.386 . S
C2212 C2207 1.490 . S
C2212 C2214 1.395 . S
C2212 C2215 1.403 . S
H2213 C2219 0.930 . S
C2214 H2200 0.930 . S
C2214 C2212 1.395 . S
C2214 C2217 1.403 . S
C2215 C2212 1.403 . S
C2215 C2216 1.524 . S
C2215 C2219 1.400 . S
C2216 H2201 0.960 . S
C2216 H2202 0.960 . S
C2216 H2203 0.960 . S
C2216 C2215 1.524 . S
C2217 C2214 1.403 . S
C2217 C2218 1.392 . S
C2217 C2221 1.495 . S
C2218 C2217 1.392 . S
C2218 C2219 1.385 . S
C2218 C2220 1.478 . S
C2219 H2213 0.930 . S
C2219 C2215 1.400 . S
C2219 C2218 1.385 . S
C2220 C2218 1.478 . S
C2220 C2222 1.381 . S
C2220 C2226 1.383 . S
C2221 C2217 1.495 . S
C2221 H2227 0.959 . S
C2221 H2228 0.961 . S
C2221 H2229 0.960 . S
C2222 C2220 1.381 . S
C2222 C2223 1.394 . S
C2222 H2230 0.930 . S
C2223 C2222 1.394 . S
C2223 C2224 1.383 . S
C2223 H2231 0.929 . S
C2224 C2223 1.383 . S
C2224 C2225 1.377 . S
C2225 H2209 0.930 . S
C2225 C2224 1.377 . S
C2225 C2226 1.379 . S
C2226 H2210 0.931 . S
C2226 C2220 1.383 . S
C2226 C2225 1.379 . S
H2227 C2221 0.959 . S
H2228 C2221 0.961 . S
H2229 C2221 0.960 . S
H2230 C2222 0.930 . S
H2231 C2223 0.929 . S
H2232 C2240 0.929 . S
H2233 C2242 0.930 . S
H2234 C2244 0.930 . S
H2235 C2247 0.929 . S
H2236 C2250 0.930 . S
H2237 C2252 0.960 . S
H2238 C2252 0.960 . S
H2239 C2252 0.960 . S
C2240 H2232 0.929 . S
C2240 C2241 1.377 . S
C2240 C2242 1.384 . S
C2241 C2240 1.377 . S
C2241 C2247 1.390 . S
C2242 H2233 0.930 . S
C2242 C2240 1.384 . S
C2242 C2243 1.372 . S
C2243 C2242 1.372 . S
C2243 C2244 1.400 . S
C2243 C2248 1.490 . S
C2244 H2234 0.930 . S
C2244 C2243 1.400 . S
C2244 C2247 1.386 . S
H2245 C2261 0.930 . S
H2246 C2262 0.931 . S
C2247 H2235 0.929 . S
C2247 C2241 1.390 . S
C2247 C2244 1.386 . S
C2248 C2243 1.490 . S
C2248 C2250 1.395 . S
C2248 C2251 1.403 . S
H2249 C2255 0.930 . S
C2250 H2236 0.930 . S
C2250 C2248 1.395 . S
C2250 C2253 1.403 . S
C2251 C2248 1.403 . S
C2251 C2252 1.524 . S
C2251 C2255 1.400 . S
C2252 H2237 0.960 . S
C2252 H2238 0.960 . S
C2252 H2239 0.960 . S
C2252 C2251 1.524 . S
C2253 C2250 1.403 . S
C2253 C2254 1.392 . S
C2253 C2257 1.495 . S
C2254 C2253 1.392 . S
C2254 C2255 1.385 . S
C2254 C2256 1.478 . S
C2255 H2249 0.930 . S
C2255 C2251 1.400 . S
C2255 C2254 1.385 . S
C2256 C2254 1.478 . S
C2256 C2258 1.381 . S
C2256 C2262 1.383 . S
C2257 C2253 1.495 . S
C2257 H2263 0.959 . S
C2257 H2264 0.961 . S
C2257 H2265 0.960 . S
C2258 C2256 1.381 . S
C2258 C2259 1.394 . S
C2258 H2266 0.930 . S
C2259 C2258 1.394 . S
C2259 C2260 1.383 . S
C2259 H2267 0.929 . S
C2260 C2259 1.383 . S
C2260 C2261 1.377 . S
C2261 H2245 0.930 . S
C2261 C2260 1.377 . S
C2261 C2262 1.379 . S
C2262 H2246 0.931 . S
C2262 C2256 1.383 . S
C2262 C2261 1.379 . S
H2263 C2257 0.959 . S
H2264 C2257 0.961 . S
H2265 C2257 0.960 . S
H2266 C2258 0.930 . S
H2267 C2259 0.929 . S
H2268 C2276 0.929 . S
H2269 C2278 0.930 . S
H2270 C2280 0.930 . S
H2271 C2283 0.929 . S
H2272 C2286 0.930 . S
H2273 C2288 0.960 . S
H2274 C2288 0.960 . S
H2275 C2288 0.960 . S
C2276 H2268 0.929 . S
C2276 C2277 1.377 . S
C2276 C2278 1.384 . S
C2277 C2276 1.377 . S
C2277 C2283 1.390 . S
C2278 H2269 0.930 . S
C2278 C2276 1.384 . S
C2278 C2279 1.372 . S
C2279 C2278 1.372 . S
C2279 C2280 1.400 . S
C2279 C2284 1.490 . S
C2280 H2270 0.930 . S
C2280 C2279 1.400 . S
C2280 C2283 1.386 . S
H2281 C2297 0.930 . S
H2282 C2298 0.931 . S
C2283 H2271 0.929 . S
C2283 C2277 1.390 . S
C2283 C2280 1.386 . S
C2284 C2279 1.490 . S
C2284 C2286 1.395 . S
C2284 C2287 1.403 . S
H2285 C2291 0.930 . S
C2286 H2272 0.930 . S
C2286 C2284 1.395 . S
C2286 C2289 1.403 . S
C2287 C2284 1.403 . S
C2287 C2288 1.524 . S
C2287 C2291 1.400 . S
C2288 H2273 0.960 . S
C2288 H2274 0.960 . S
C2288 H2275 0.960 . S
C2288 C2287 1.524 . S
C2289 C2286 1.403 . S
C2289 C2290 1.392 . S
C2289 C2293 1.495 . S
C2290 C2289 1.392 . S
C2290 C2291 1.385 . S
C2290 C2292 1.478 . S
C2291 H2285 0.930 . S
C2291 C2287 1.400 . S
C2291 C2290 1.385 . S
C2292 C2290 1.478 . S
C2292 C2294 1.381 . S
C2292 C2298 1.383 . S
C2293 C2289 1.495 . S
C2293 H2299 0.959 . S
C2293 H2300 0.961 . S
C2293 H2301 0.960 . S
C2294 C2292 1.381 . S
C2294 C2295 1.394 . S
C2294 H2302 0.930 . S
C2295 C2294 1.394 . S
C2295 C2296 1.383 . S
C2295 H2303 0.929 . S
C2296 C2295 1.383 . S
C2296 C2297 1.377 . S
C2297 H2281 0.930 . S
C2297 C2296 1.377 . S
C2297 C2298 1.379 . S
C2298 H2282 0.931 . S
C2298 C2292 1.383 . S
C2298 C2297 1.379 . S
H2299 C2293 0.959 . S
H2300 C2293 0.961 . S
H2301 C2293 0.960 . S
H2302 C2294 0.930 . S
H2303 C2295 0.929 . S
H2304 C2312 0.929 . S
H2305 C2314 0.930 . S
H2306 C2316 0.930 . S
H2307 C2319 0.929 . S
H2308 C2322 0.930 . S
H2309 C2324 0.960 . S
H2310 C2324 0.960 . S
H2311 C2324 0.960 . S
C2312 H2304 0.929 . S
C2312 C2313 1.377 . S
C2312 C2314 1.384 . S
C2313 C2312 1.377 . S
C2313 C2319 1.390 . S
C2314 H2305 0.930 . S
C2314 C2312 1.384 . S
C2314 C2315 1.372 . S
C2315 C2314 1.372 . S
C2315 C2316 1.400 . S
C2315 C2320 1.490 . S
C2316 H2306 0.930 . S
C2316 C2315 1.400 . S
C2316 C2319 1.386 . S
H2317 C2333 0.930 . S
H2318 C2334 0.931 . S
C2319 H2307 0.929 . S
C2319 C2313 1.390 . S
C2319 C2316 1.386 . S
C2320 C2315 1.490 . S
C2320 C2322 1.395 . S
C2320 C2323 1.403 . S
H2321 C2327 0.930 . S
C2322 H2308 0.930 . S
C2322 C2320 1.395 . S
C2322 C2325 1.403 . S
C2323 C2320 1.403 . S
C2323 C2324 1.524 . S
C2323 C2327 1.400 . S
C2324 H2309 0.960 . S
C2324 H2310 0.960 . S
C2324 H2311 0.960 . S
C2324 C2323 1.524 . S
C2325 C2322 1.403 . S
C2325 C2326 1.392 . S
C2325 C2329 1.495 . S
C2326 C2325 1.392 . S
C2326 C2327 1.385 . S
C2326 C2328 1.478 . S
C2327 H2321 0.930 . S
C2327 C2323 1.400 . S
C2327 C2326 1.385 . S
C2328 C2326 1.478 . S
C2328 C2330 1.381 . S
C2328 C2334 1.383 . S
C2329 C2325 1.495 . S
C2329 H2335 0.959 . S
C2329 H2336 0.961 . S
C2329 H2337 0.960 . S
C2330 C2328 1.381 . S
C2330 C2331 1.394 . S
C2330 H2338 0.930 . S
C2331 C2330 1.394 . S
C2331 C2332 1.383 . S
C2331 H2339 0.929 . S
C2332 C2331 1.383 . S
C2332 C2333 1.377 . S
C2333 H2317 0.930 . S
C2333 C2332 1.377 . S
C2333 C2334 1.379 . S
C2334 H2318 0.931 . S
C2334 C2328 1.383 . S
C2334 C2333 1.379 . S
H2335 C2329 0.959 . S
H2336 C2329 0.961 . S
H2337 C2329 0.960 . S
H2338 C2330 0.930 . S
H2339 C2331 0.929 . S
H2340 C2348 0.929 . S
H2341 C2350 0.930 . S
H2342 C2352 0.930 . S
H2343 C2355 0.929 . S
H2344 C2358 0.930 . S
H2345 C2360 0.960 . S
H2346 C2360 0.960 . S
H2347 C2360 0.960 . S
C2348 H2340 0.929 . S
C2348 C2349 1.377 . S
C2348 C2350 1.384 . S
C2349 C2348 1.377 . S
C2349 C2355 1.390 . S
C2350 H2341 0.930 . S
C2350 C2348 1.384 . S
C2350 C2351 1.372 . S
C2351 C2350 1.372 . S
C2351 C2352 1.400 . S
C2351 C2356 1.490 . S
C2352 H2342 0.930 . S
C2352 C2351 1.400 . S
C2352 C2355 1.386 . S
H2353 C2369 0.930 . S
H2354 C2370 0.931 . S
C2355 H2343 0.929 . S
C2355 C2349 1.390 . S
C2355 C2352 1.386 . S
C2356 C2351 1.490 . S
C2356 C2358 1.395 . S
C2356 C2359 1.403 . S
H2357 C2363 0.930 . S
C2358 H2344 0.930 . S
C2358 C2356 1.395 . S
C2358 C2361 1.403 . S
C2359 C2356 1.403 . S
C2359 C2360 1.524 . S
C2359 C2363 1.400 . S
C2360 H2345 0.960 . S
C2360 H2346 0.960 . S
C2360 H2347 0.960 . S
C2360 C2359 1.524 . S
C2361 C2358 1.403 . S
C2361 C2362 1.392 . S
C2361 C2365 1.495 . S
C2362 C2361 1.392 . S
C2362 C2363 1.385 . S
C2362 C2364 1.478 . S
C2363 H2357 0.930 . S
C2363 C2359 1.400 . S
C2363 C2362 1.385 . S
C2364 C2362 1.478 . S
C2364 C2366 1.381 . S
C2364 C2370 1.383 . S
C2365 C2361 1.495 . S
C2365 H2371 0.959 . S
C2365 H2372 0.961 . S
C2365 H2373 0.960 . S
C2366 C2364 1.381 . S
C2366 C2367 1.394 . S
C2366 H2374 0.930 . S
C2367 C2366 1.394 . S
C2367 C2368 1.383 . S
C2367 H2375 0.929 . S
C2368 C2367 1.383 . S
C2368 C2369 1.377 . S
C2369 H2353 0.930 . S
C2369 C2368 1.377 . S
C2369 C2370 1.379 . S
C2370 H2354 0.931 . S
C2370 C2364 1.383 . S
C2370 C2369 1.379 . S
H2371 C2365 0.959 . S
H2372 C2365 0.961 . S
H2373 C2365 0.960 . S
H2374 C2366 0.930 . S
H2375 C2367 0.929 . S
H2376 C2384 0.929 . S
H2377 C2386 0.930 . S
H2378 C2388 0.930 . S
H2379 C2391 0.929 . S
H2380 C2394 0.930 . S
H2381 C2396 0.960 . S
H2382 C2396 0.960 . S
H2383 C2396 0.960 . S
C2384 H2376 0.929 . S
C2384 C2385 1.377 . S
C2384 C2386 1.384 . S
C2385 C2384 1.377 . S
C2385 C2391 1.390 . S
C2386 H2377 0.930 . S
C2386 C2384 1.384 . S
C2386 C2387 1.372 . S
C2387 C2386 1.372 . S
C2387 C2388 1.400 . S
C2387 C2392 1.490 . S
C2388 H2378 0.930 . S
C2388 C2387 1.400 . S
C2388 C2391 1.386 . S
H2389 C2405 0.930 . S
H2390 C2406 0.931 . S
C2391 H2379 0.929 . S
C2391 C2385 1.390 . S
C2391 C2388 1.386 . S
C2392 C2387 1.490 . S
C2392 C2394 1.395 . S
C2392 C2395 1.403 . S
H2393 C2399 0.930 . S
C2394 H2380 0.930 . S
C2394 C2392 1.395 . S
C2394 C2397 1.403 . S
C2395 C2392 1.403 . S
C2395 C2396 1.524 . S
C2395 C2399 1.400 . S
C2396 H2381 0.960 . S
C2396 H2382 0.960 . S
C2396 H2383 0.960 . S
C2396 C2395 1.524 . S
C2397 C2394 1.403 . S
C2397 C2398 1.392 . S
C2397 C2401 1.495 . S
C2398 C2397 1.392 . S
C2398 C2399 1.385 . S
C2398 C2400 1.478 . S
C2399 H2393 0.930 . S
C2399 C2395 1.400 . S
C2399 C2398 1.385 . S
C2400 C2398 1.478 . S
C2400 C2402 1.381 . S
C2400 C2406 1.383 . S
C2401 C2397 1.495 . S
C2401 H2407 0.959 . S
C2401 H2408 0.961 . S
C2401 H2409 0.960 . S
C2402 C2400 1.381 . S
C2402 C2403 1.394 . S
C2402 H2410 0.930 . S
C2403 C2402 1.394 . S
C2403 C2404 1.383 . S
C2403 H2411 0.929 . S
C2404 C2403 1.383 . S
C2404 C2405 1.377 . S
C2405 H2389 0.930 . S
C2405 C2404 1.377 . S
C2405 C2406 1.379 . S
C2406 H2390 0.931 . S
C2406 C2400 1.383 . S
C2406 C2405 1.379 . S
H2407 C2401 0.959 . S
H2408 C2401 0.961 . S
H2409 C2401 0.960 . S
H2410 C2402 0.930 . S
H2411 C2403 0.929 . S
H2412 C2420 0.929 . S
H2413 C2422 0.930 . S
H2414 C2424 0.930 . S
H2415 C2427 0.929 . S
H2416 C2430 0.930 . S
H2417 C2432 0.960 . S
H2418 C2432 0.960 . S
H2419 C2432 0.960 . S
C2420 H2412 0.929 . S
C2420 C2421 1.377 . S
C2420 C2422 1.384 . S
C2421 C2420 1.377 . S
C2421 C2427 1.390 . S
C2422 H2413 0.930 . S
C2422 C2420 1.384 . S
C2422 C2423 1.372 . S
C2423 C2422 1.372 . S
C2423 C2424 1.400 . S
C2423 C2428 1.490 . S
C2424 H2414 0.930 . S
C2424 C2423 1.400 . S
C2424 C2427 1.386 . S
H2425 C2441 0.930 . S
H2426 C2442 0.931 . S
C2427 H2415 0.929 . S
C2427 C2421 1.390 . S
C2427 C2424 1.386 . S
C2428 C2423 1.490 . S
C2428 C2430 1.395 . S
C2428 C2431 1.403 . S
H2429 C2435 0.930 . S
C2430 H2416 0.930 . S
C2430 C2428 1.395 . S
C2430 C2433 1.403 . S
C2431 C2428 1.403 . S
C2431 C2432 1.524 . S
C2431 C2435 1.400 . S
C2432 H2417 0.960 . S
C2432 H2418 0.960 . S
C2432 H2419 0.960 . S
C2432 C2431 1.524 . S
C2433 C2430 1.403 . S
C2433 C2434 1.392 . S
C2433 C2437 1.495 . S
C2434 C2433 1.392 . S
C2434 C2435 1.385 . S
C2434 C2436 1.478 . S
C2435 H2429 0.930 . S
C2435 C2431 1.400 . S
C2435 C2434 1.385 . S
C2436 C2434 1.478 . S
C2436 C2438 1.381 . S
C2436 C2442 1.383 . S
C2437 C2433 1.495 . S
C2437 H2443 0.959 . S
C2437 H2444 0.961 . S
C2437 H2445 0.960 . S
C2438 C2436 1.381 . S
C2438 C2439 1.394 . S
C2438 H2446 0.930 . S
C2439 C2438 1.394 . S
C2439 C2440 1.383 . S
C2439 H2447 0.929 . S
C2440 C2439 1.383 . S
C2440 C2441 1.377 . S
C2441 H2425 0.930 . S
C2441 C2440 1.377 . S
C2441 C2442 1.379 . S
C2442 H2426 0.931 . S
C2442 C2436 1.383 . S
C2442 C2441 1.379 . S
H2443 C2437 0.959 . S
H2444 C2437 0.961 . S
H2445 C2437 0.960 . S
H2446 C2438 0.930 . S
H2447 C2439 0.929 . S
H2448 C2456 0.929 . S
H2449 C2458 0.930 . S
H2450 C2460 0.930 . S
H2451 C2463 0.929 . S
H2452 C2466 0.930 . S
H2453 C2468 0.960 . S
H2454 C2468 0.960 . S
H2455 C2468 0.960 . S
C2456 H2448 0.929 . S
C2456 C2457 1.377 . S
C2456 C2458 1.384 . S
C2457 C2456 1.377 . S
C2457 C2463 1.390 . S
C2458 H2449 0.930 . S
C2458 C2456 1.384 . S
C2458 C2459 1.372 . S
C2459 C2458 1.372 . S
C2459 C2460 1.400 . S
C2459 C2464 1.490 . S
C2460 H2450 0.930 . S
C2460 C2459 1.400 . S
C2460 C2463 1.386 . S
H2461 C2477 0.930 . S
H2462 C2478 0.931 . S
C2463 H2451 0.929 . S
C2463 C2457 1.390 . S
C2463 C2460 1.386 . S
C2464 C2459 1.490 . S
C2464 C2466 1.395 . S
C2464 C2467 1.403 . S
H2465 C2471 0.930 . S
C2466 H2452 0.930 . S
C2466 C2464 1.395 . S
C2466 C2469 1.403 . S
C2467 C2464 1.403 . S
C2467 C2468 1.524 . S
C2467 C2471 1.400 . S
C2468 H2453 0.960 . S
C2468 H2454 0.960 . S
C2468 H2455 0.960 . S
C2468 C2467 1.524 . S
C2469 C2466 1.403 . S
C2469 C2470 1.392 . S
C2469 C2473 1.495 . S
C2470 C2469 1.392 . S
C2470 C2471 1.385 . S
C2470 C2472 1.478 . S
C2471 H2465 0.930 . S
C2471 C2467 1.400 . S
C2471 C2470 1.385 . S
C2472 C2470 1.478 . S
C2472 C2474 1.381 . S
C2472 C2478 1.383 . S
C2473 C2469 1.495 . S
C2473 H2479 0.959 . S
C2473 H2480 0.961 . S
C2473 H2481 0.960 . S
C2474 C2472 1.381 . S
C2474 C2475 1.394 . S
C2474 H2482 0.930 . S
C2475 C2474 1.394 . S
C2475 C2476 1.383 . S
C2475 H2483 0.929 . S
C2476 C2475 1.383 . S
C2476 C2477 1.377 . S
C2477 H2461 0.930 . S
C2477 C2476 1.377 . S
C2477 C2478 1.379 . S
C2478 H2462 0.931 . S
C2478 C2472 1.383 . S
C2478 C2477 1.379 . S
H2479 C2473 0.959 . S
H2480 C2473 0.961 . S
H2481 C2473 0.960 . S
H2482 C2474 0.930 . S
H2483 C2475 0.929 . S
H2484 C2492 0.929 . S
H2485 C2494 0.930 . S
H2486 C2496 0.930 . S
H2487 C2499 0.929 . S
H2488 C2502 0.930 . S
H2489 C2504 0.960 . S
H2490 C2504 0.960 . S
H2491 C2504 0.960 . S
C2492 H2484 0.929 . S
C2492 C2493 1.377 . S
C2492 C2494 1.384 . S
C2493 C2492 1.377 . S
C2493 C2499 1.390 . S
C2494 H2485 0.930 . S
C2494 C2492 1.384 . S
C2494 C2495 1.372 . S
C2495 C2494 1.372 . S
C2495 C2496 1.400 . S
C2495 C2500 1.490 . S
C2496 H2486 0.930 . S
C2496 C2495 1.400 . S
C2496 C2499 1.386 . S
H2497 C2513 0.930 . S
H2498 C2514 0.931 . S
C2499 H2487 0.929 . S
C2499 C2493 1.390 . S
C2499 C2496 1.386 . S
C2500 C2495 1.490 . S
C2500 C2502 1.395 . S
C2500 C2503 1.403 . S
H2501 C2507 0.930 . S
C2502 H2488 0.930 . S
C2502 C2500 1.395 . S
C2502 C2505 1.403 . S
C2503 C2500 1.403 . S
C2503 C2504 1.524 . S
C2503 C2507 1.400 . S
C2504 H2489 0.960 . S
C2504 H2490 0.960 . S
C2504 H2491 0.960 . S
C2504 C2503 1.524 . S
C2505 C2502 1.403 . S
C2505 C2506 1.392 . S
C2505 C2509 1.495 . S
C2506 C2505 1.392 . S
C2506 C2507 1.385 . S
C2506 C2508 1.478 . S
C2507 H2501 0.930 . S
C2507 C2503 1.400 . S
C2507 C2506 1.385 . S
C2508 C2506 1.478 . S
C2508 C2510 1.381 . S
C2508 C2514 1.383 . S
C2509 C2505 1.495 . S
C2509 H2515 0.959 . S
C2509 H2516 0.961 . S
C2509 H2517 0.960 . S
C2510 C2508 1.381 . S
C2510 C2511 1.394 . S
C2510 H2518 0.930 . S
C2511 C2510 1.394 . S
C2511 C2512 1.383 . S
C2511 H2519 0.929 . S
C2512 C2511 1.383 . S
C2512 C2513 1.377 . S
C2513 H2497 0.930 . S
C2513 C2512 1.377 . S
C2513 C2514 1.379 . S
C2514 H2498 0.931 . S
C2514 C2508 1.383 . S
C2514 C2513 1.379 . S
H2515 C2509 0.959 . S
H2516 C2509 0.961 . S
H2517 C2509 0.960 . S
H2518 C2510 0.930 . S
H2519 C2511 0.929 . S
H2520 C2528 0.929 . S
H2521 C2530 0.930 . S
H2522 C2532 0.930 . S
H2523 C2535 0.929 1_554 S
H2524 C2538 0.930 . S
H2525 C2540 0.960 1_554 S
H2526 C2540 0.960 1_554 S
H2527 C2540 0.960 1_554 S
C2528 H2520 0.929 . S
C2528 C2529 1.377 . S
C2528 C2530 1.384 . S
C2529 C2528 1.377 . S
C2529 C2535 1.390 . S
C2530 H2521 0.930 . S
C2530 C2528 1.384 . S
C2530 C2531 1.372 . S
C2531 C2530 1.372 . S
C2531 C2532 1.400 . S
C2531 C2536 1.490 . S
C2532 H2522 0.930 . S
C2532 C2531 1.400 . S
C2532 C2535 1.386 . S
H2533 C2549 0.930 . S
H2534 C2550 0.931 . S
C2535 H2523 0.929 1_556 S
C2535 C2529 1.390 . S
C2535 C2532 1.386 . S
C2536 C2531 1.490 . S
C2536 C2538 1.395 . S
C2536 C2539 1.403 . S
H2537 C2543 0.930 . S
C2538 H2524 0.930 . S
C2538 C2536 1.395 . S
C2538 C2541 1.403 . S
C2539 C2536 1.403 . S
C2539 C2540 1.524 . S
C2539 C2543 1.400 . S
C2540 H2525 0.960 1_556 S
C2540 H2526 0.960 1_556 S
C2540 H2527 0.960 1_556 S
C2540 C2539 1.524 . S
C2541 C2538 1.403 . S
C2541 C2542 1.392 . S
C2541 C2545 1.495 . S
C2542 C2541 1.392 . S
C2542 C2543 1.385 . S
C2542 C2544 1.478 . S
C2543 H2537 0.930 . S
C2543 C2539 1.400 . S
C2543 C2542 1.385 . S
C2544 C2542 1.478 . S
C2544 C2546 1.381 . S
C2544 C2550 1.383 . S
C2545 C2541 1.495 . S
C2545 H2551 0.959 . S
C2545 H2552 0.961 . S
C2545 H2553 0.960 . S
C2546 C2544 1.381 . S
C2546 C2547 1.394 . S
C2546 H2554 0.930 . S
C2547 C2546 1.394 . S
C2547 C2548 1.383 . S
C2547 H2555 0.929 . S
C2548 C2547 1.383 . S
C2548 C2549 1.377 . S
C2549 H2533 0.930 . S
C2549 C2548 1.377 . S
C2549 C2550 1.379 . S
C2550 H2534 0.931 . S
C2550 C2544 1.383 . S
C2550 C2549 1.379 . S
H2551 C2545 0.959 . S
H2552 C2545 0.961 . S
H2553 C2545 0.960 . S
H2554 C2546 0.930 . S
H2555 C2547 0.929 . S
H2556 C2564 0.929 . S
H2557 C2566 0.930 1_554 S
H2558 C2568 0.930 . S
H2559 C2571 0.929 . S
H2560 C2574 0.930 . S
H2561 C2576 0.960 . S
H2562 C2576 0.960 . S
H2563 C2576 0.960 . S
C2564 H2556 0.929 . S
C2564 C2565 1.377 1_554 S
C2564 C2566 1.384 1_554 S
C2565 C2564 1.377 1_556 S
C2565 C2571 1.390 . S
C2566 H2557 0.930 1_556 S
C2566 C2564 1.384 1_556 S
C2566 C2567 1.372 . S
C2567 C2566 1.372 . S
C2567 C2568 1.400 . S
C2567 C2572 1.490 . S
C2568 H2558 0.930 . S
C2568 C2567 1.400 . S
C2568 C2571 1.386 . S
H2569 C2585 0.930 . S
H2570 C2586 0.931 . S
C2571 H2559 0.929 . S
C2571 C2565 1.390 . S
C2571 C2568 1.386 . S
C2572 C2567 1.490 . S
C2572 C2574 1.395 . S
C2572 C2575 1.403 . S
H2573 C2579 0.930 . S
C2574 H2560 0.930 . S
C2574 C2572 1.395 . S
C2574 C2577 1.403 . S
C2575 C2572 1.403 . S
C2575 C2576 1.524 . S
C2575 C2579 1.400 . S
C2576 H2561 0.960 . S
C2576 H2562 0.960 . S
C2576 H2563 0.960 . S
C2576 C2575 1.524 . S
C2577 C2574 1.403 . S
C2577 C2578 1.392 . S
C2577 C2581 1.495 . S
C2578 C2577 1.392 . S
C2578 C2579 1.385 . S
C2578 C2580 1.478 . S
C2579 H2573 0.930 . S
C2579 C2575 1.400 . S
C2579 C2578 1.385 . S
C2580 C2578 1.478 . S
C2580 C2582 1.381 . S
C2580 C2586 1.383 . S
C2581 C2577 1.495 . S
C2581 H2587 0.959 . S
C2581 H2588 0.961 . S
C2581 H2589 0.960 . S
C2582 C2580 1.381 . S
C2582 C2583 1.394 . S
C2582 H2590 0.930 . S
C2583 C2582 1.394 . S
C2583 C2584 1.383 . S
C2583 H2591 0.929 . S
C2584 C2583 1.383 . S
C2584 C2585 1.377 . S
C2585 H2569 0.930 . S
C2585 C2584 1.377 . S
C2585 C2586 1.379 . S
C2586 H2570 0.931 . S
C2586 C2580 1.383 . S
C2586 C2585 1.379 . S
H2587 C2581 0.959 . S
H2588 C2581 0.961 . S
H2589 C2581 0.960 . S
H2590 C2582 0.930 . S
H2591 C2583 0.929 . S
H2592 C2600 0.929 1_554 S
H2593 C2602 0.930 . S
H2594 C2604 0.930 . S
H2595 C2607 0.929 . S
H2596 C2610 0.930 . S
H2597 C2612 0.960 . S
H2598 C2612 0.960 . S
H2599 C2612 0.960 . S
C2600 H2592 0.929 1_556 S
C2600 C2601 1.377 . S
C2600 C2602 1.384 . S
C2601 C2600 1.377 . S
C2601 C2607 1.390 . S
C2602 H2593 0.930 . S
C2602 C2600 1.384 . S
C2602 C2603 1.372 . S
C2603 C2602 1.372 . S
C2603 C2604 1.400 . S
C2603 C2608 1.490 . S
C2604 H2594 0.930 . S
C2604 C2603 1.400 . S
C2604 C2607 1.386 . S
H2605 C2621 0.930 . S
H2606 C2622 0.931 . S
C2607 H2595 0.929 . S
C2607 C2601 1.390 . S
C2607 C2604 1.386 . S
C2608 C2603 1.490 . S
C2608 C2610 1.395 . S
C2608 C2611 1.403 . S
H2609 C2615 0.930 . S
C2610 H2596 0.930 . S
C2610 C2608 1.395 . S
C2610 C2613 1.403 . S
C2611 C2608 1.403 . S
C2611 C2612 1.524 . S
C2611 C2615 1.400 . S
C2612 H2597 0.960 . S
C2612 H2598 0.960 . S
C2612 H2599 0.960 . S
C2612 C2611 1.524 . S
C2613 C2610 1.403 . S
C2613 C2614 1.392 . S
C2613 C2617 1.495 . S
C2614 C2613 1.392 . S
C2614 C2615 1.385 . S
C2614 C2616 1.478 . S
C2615 H2609 0.930 . S
C2615 C2611 1.400 . S
C2615 C2614 1.385 . S
C2616 C2614 1.478 . S
C2616 C2618 1.381 . S
C2616 C2622 1.383 . S
C2617 C2613 1.495 . S
C2617 H2623 0.959 . S
C2617 H2624 0.961 . S
C2617 H2625 0.960 . S
C2618 C2616 1.381 . S
C2618 C2619 1.394 . S
C2618 H2626 0.930 . S
C2619 C2618 1.394 . S
C2619 C2620 1.383 . S
C2619 H2627 0.929 . S
C2620 C2619 1.383 . S
C2620 C2621 1.377 . S
C2621 H2605 0.930 . S
C2621 C2620 1.377 . S
C2621 C2622 1.379 . S
C2622 H2606 0.931 . S
C2622 C2616 1.383 . S
C2622 C2621 1.379 . S
H2623 C2617 0.959 . S
H2624 C2617 0.961 . S
H2625 C2617 0.960 . S
H2626 C2618 0.930 . S
H2627 C2619 0.929 . S
H2628 C2636 0.929 . S
H2629 C2638 0.930 . S
H2630 C2640 0.930 . S
H2631 C2643 0.929 1_554 S
H2632 C2646 0.930 . S
H2633 C2648 0.960 . S
H2634 C2648 0.960 . S
H2635 C2648 0.960 . S
C2636 H2628 0.929 . S
C2636 C2637 1.377 . S
C2636 C2638 1.384 . S
C2637 C2636 1.377 . S
C2637 C2643 1.390 . S
C2638 H2629 0.930 . S
C2638 C2636 1.384 . S
C2638 C2639 1.372 . S
C2639 C2638 1.372 . S
C2639 C2640 1.400 . S
C2639 C2644 1.490 . S
C2640 H2630 0.930 . S
C2640 C2639 1.400 . S
C2640 C2643 1.386 . S
H2641 C2657 0.930 . S
H2642 C2658 0.931 . S
C2643 H2631 0.929 1_556 S
C2643 C2637 1.390 . S
C2643 C2640 1.386 . S
C2644 C2639 1.490 . S
C2644 C2646 1.395 . S
C2644 C2647 1.403 . S
H2645 C2651 0.930 . S
C2646 H2632 0.930 . S
C2646 C2644 1.395 . S
C2646 C2649 1.403 . S
C2647 C2644 1.403 . S
C2647 C2648 1.524 . S
C2647 C2651 1.400 . S
C2648 H2633 0.960 . S
C2648 H2634 0.960 . S
C2648 H2635 0.960 . S
C2648 C2647 1.524 . S
C2649 C2646 1.403 . S
C2649 C2650 1.392 . S
C2649 C2653 1.495 . S
C2650 C2649 1.392 . S
C2650 C2651 1.385 . S
C2650 C2652 1.478 . S
C2651 H2645 0.930 . S
C2651 C2647 1.400 . S
C2651 C2650 1.385 . S
C2652 C2650 1.478 . S
C2652 C2654 1.381 . S
C2652 C2658 1.383 . S
C2653 C2649 1.495 . S
C2653 H2659 0.959 . S
C2653 H2660 0.961 . S
C2653 H2661 0.960 . S
C2654 C2652 1.381 . S
C2654 C2655 1.394 . S
C2654 H2662 0.930 . S
C2655 C2654 1.394 . S
C2655 C2656 1.383 . S
C2655 H2663 0.929 . S
C2656 C2655 1.383 . S
C2656 C2657 1.377 . S
C2657 H2641 0.930 . S
C2657 C2656 1.377 . S
C2657 C2658 1.379 . S
C2658 H2642 0.931 . S
C2658 C2652 1.383 . S
C2658 C2657 1.379 . S
H2659 C2653 0.959 . S
H2660 C2653 0.961 . S
H2661 C2653 0.960 . S
H2662 C2654 0.930 . S
H2663 C2655 0.929 . S
H2664 C2672 0.929 . S
H2665 C2674 0.930 . S
H2666 C2676 0.930 . S
H2667 C2679 0.929 . S
H2668 C2682 0.930 . S
H2669 C2684 0.958 1_554 S
H2670 C2684 0.960 1_554 S
H2671 C2684 0.967 . S
C2672 H2664 0.929 . S
C2672 C2673 1.377 . S
C2672 C2674 1.384 . S
C2673 C2672 1.377 . S
C2673 C2679 1.390 . S
C2674 H2665 0.930 . S
C2674 C2672 1.384 . S
C2674 C2675 1.372 . S
C2675 C2674 1.372 . S
C2675 C2676 1.400 . S
C2675 C2680 1.490 . S
C2676 H2666 0.930 . S
C2676 C2675 1.400 . S
C2676 C2679 1.386 . S
H2677 C2693 0.930 . S
H2678 C2694 0.931 . S
C2679 H2667 0.929 . S
C2679 C2673 1.390 . S
C2679 C2676 1.386 . S
C2680 C2675 1.490 . S
C2680 C2682 1.395 . S
C2680 C2683 1.403 . S
H2681 C2687 0.930 . S
C2682 H2668 0.930 . S
C2682 C2680 1.395 . S
C2682 C2685 1.403 . S
C2683 C2680 1.403 . S
C2683 C2684 1.524 . S
C2683 C2687 1.400 . S
C2684 H2669 0.958 1_556 S
C2684 H2670 0.960 1_556 S
C2684 H2671 0.967 . S
C2684 C2683 1.524 . S
C2685 C2682 1.403 . S
C2685 C2686 1.392 . S
C2685 C2689 1.495 . S
C2686 C2685 1.392 . S
C2686 C2687 1.385 . S
C2686 C2688 1.478 . S
C2687 H2681 0.930 . S
C2687 C2683 1.400 . S
C2687 C2686 1.385 . S
C2688 C2686 1.478 . S
C2688 C2690 1.381 . S
C2688 C2694 1.383 . S
C2689 C2685 1.495 . S
C2689 H2695 0.959 . S
C2689 H2696 0.961 . S
C2689 H2697 0.960 . S
C2690 C2688 1.381 . S
C2690 C2691 1.394 . S
C2690 H2698 0.930 . S
C2691 C2690 1.394 . S
C2691 C2692 1.383 . S
C2691 H2699 0.929 . S
C2692 C2691 1.383 . S
C2692 C2693 1.377 . S
C2693 H2677 0.930 . S
C2693 C2692 1.377 . S
C2693 C2694 1.379 . S
C2694 H2678 0.931 . S
C2694 C2688 1.383 . S
C2694 C2693 1.379 . S
H2695 C2689 0.959 . S
H2696 C2689 0.961 . S
H2697 C2689 0.960 . S
H2698 C2690 0.930 . S
H2699 C2691 0.929 . S
H2700 C2708 0.929 . S
H2701 C2710 0.930 1_554 S
H2702 C2712 0.930 . S
H2703 C2715 0.929 . S
H2704 C2718 0.930 . S
H2705 C2720 0.960 . S
H2706 C2720 0.960 . S
H2707 C2720 0.960 . S
C2708 H2700 0.929 . S
C2708 C2709 1.368 1_554 S
C2708 C2710 1.384 1_554 S
C2709 C2708 1.368 1_556 S
C2709 C2715 1.414 . S
C2710 H2701 0.930 1_556 S
C2710 C2708 1.384 1_556 S
C2710 C2711 1.372 . S
C2711 C2710 1.372 . S
C2711 C2712 1.400 . S
C2711 C2716 1.490 . S
C2712 H2702 0.930 . S
C2712 C2711 1.400 . S
C2712 C2715 1.386 . S
H2713 C2729 0.930 . S
H2714 C2730 0.931 . S
C2715 H2703 0.929 . S
C2715 C2709 1.414 . S
C2715 C2712 1.386 . S
C2716 C2711 1.490 . S
C2716 C2718 1.395 . S
C2716 C2719 1.403 . S
H2717 C2723 0.930 . S
C2718 H2704 0.930 . S
C2718 C2716 1.395 . S
C2718 C2721 1.403 . S
C2719 C2716 1.403 . S
C2719 C2720 1.524 . S
C2719 C2723 1.400 . S
C2720 H2705 0.960 . S
C2720 H2706 0.960 . S
C2720 H2707 0.960 . S
C2720 C2719 1.524 . S
C2721 C2718 1.403 . S
C2721 C2722 1.392 . S
C2721 C2725 1.495 . S
C2722 C2721 1.392 . S
C2722 C2723 1.385 . S
C2722 C2724 1.478 . S
C2723 H2717 0.930 . S
C2723 C2719 1.400 . S
C2723 C2722 1.385 . S
C2724 C2722 1.478 . S
C2724 C2726 1.381 . S
C2724 C2730 1.383 . S
C2725 C2721 1.495 . S
C2725 H2731 0.959 . S
C2725 H2732 0.961 . S
C2725 H2733 0.960 . S
C2726 C2724 1.381 . S
C2726 C2727 1.394 . S
C2726 H2734 0.930 . S
C2727 C2726 1.394 . S
C2727 C2728 1.383 . S
C2727 H2735 0.929 . S
C2728 C2727 1.383 . S
C2728 C2729 1.377 . S
C2729 H2713 0.930 . S
C2729 C2728 1.377 . S
C2729 C2730 1.379 . S
C2730 H2714 0.931 . S
C2730 C2724 1.383 . S
C2730 C2729 1.379 . S
H2731 C2725 0.959 . S
H2732 C2725 0.961 . S
H2733 C2725 0.960 . S
H2734 C2726 0.930 . S
H2735 C2727 0.929 . S
H2736 C2744 0.929 . S
H2737 C2746 0.930 . S
H2738 C2748 0.930 . S
H2739 C2751 0.929 . S
H2740 C2754 0.930 . S
H2741 C2756 0.960 . S
H2742 C2756 0.960 . S
H2743 C2756 0.960 . S
C2744 H2736 0.929 . S
C2744 C2745 1.377 . S
C2744 C2746 1.384 . S
C2745 C2744 1.377 . S
C2745 C2751 1.390 . S
C2746 H2737 0.930 . S
C2746 C2744 1.384 . S
C2746 C2747 1.372 . S
C2747 C2746 1.372 . S
C2747 C2748 1.400 . S
C2747 C2752 1.490 . S
C2748 H2738 0.930 . S
C2748 C2747 1.400 . S
C2748 C2751 1.386 . S
H2749 C2765 0.930 . S
H2750 C2766 0.931 . S
C2751 H2739 0.929 . S
C2751 C2745 1.390 . S
C2751 C2748 1.386 . S
C2752 C2747 1.490 . S
C2752 C2754 1.395 . S
C2752 C2755 1.403 . S
H2753 C2759 0.930 . S
C2754 H2740 0.930 . S
C2754 C2752 1.395 . S
C2754 C2757 1.403 . S
C2755 C2752 1.403 . S
C2755 C2756 1.524 . S
C2755 C2759 1.400 . S
C2756 H2741 0.960 . S
C2756 H2742 0.960 . S
C2756 H2743 0.960 . S
C2756 C2755 1.524 . S
C2757 C2754 1.403 . S
C2757 C2758 1.392 . S
C2757 C2761 1.495 . S
C2758 C2757 1.392 . S
C2758 C2759 1.385 . S
C2758 C2760 1.478 . S
C2759 H2753 0.930 . S
C2759 C2755 1.400 . S
C2759 C2758 1.385 . S
C2760 C2758 1.478 . S
C2760 C2762 1.381 . S
C2760 C2766 1.383 . S
C2761 C2757 1.495 . S
C2761 H2767 0.959 . S
C2761 H2768 0.961 . S
C2761 H2769 0.960 . S
C2762 C2760 1.381 . S
C2762 C2763 1.394 . S
C2762 H2770 0.930 . S
C2763 C2762 1.394 . S
C2763 C2764 1.383 . S
C2763 H2771 0.929 . S
C2764 C2763 1.383 . S
C2764 C2765 1.377 . S
C2765 H2749 0.930 . S
C2765 C2764 1.377 . S
C2765 C2766 1.379 . S
C2766 H2750 0.931 . S
C2766 C2760 1.383 . S
C2766 C2765 1.379 . S
H2767 C2761 0.959 . S
H2768 C2761 0.961 . S
H2769 C2761 0.960 . S
H2770 C2762 0.930 . S
H2771 C2763 0.929 . S
H2772 C2780 0.929 . S
H2773 C2782 0.930 . S
H2774 C2784 0.930 . S
H2775 C2787 0.929 . S
H2776 C2790 0.930 . S
H2777 C2792 0.960 . S
H2778 C2792 0.960 . S
H2779 C2792 0.960 . S
C2780 H2772 0.929 . S
C2780 C2781 1.377 . S
C2780 C2782 1.384 . S
C2781 C2780 1.377 . S
C2781 C2787 1.390 . S
C2782 H2773 0.930 . S
C2782 C2780 1.384 . S
C2782 C2783 1.372 . S
C2783 C2782 1.372 . S
C2783 C2784 1.400 . S
C2783 C2788 1.490 . S
C2784 H2774 0.930 . S
C2784 C2783 1.400 . S
C2784 C2787 1.386 . S
H2785 C2801 0.930 . S
H2786 C2802 0.931 . S
C2787 H2775 0.929 . S
C2787 C2781 1.390 . S
C2787 C2784 1.386 . S
C2788 C2783 1.490 . S
C2788 C2790 1.395 . S
C2788 C2791 1.403 . S
H2789 C2795 0.930 . S
C2790 H2776 0.930 . S
C2790 C2788 1.395 . S
C2790 C2793 1.403 . S
C2791 C2788 1.403 . S
C2791 C2792 1.524 . S
C2791 C2795 1.400 . S
C2792 H2777 0.960 . S
C2792 H2778 0.960 . S
C2792 H2779 0.960 . S
C2792 C2791 1.524 . S
C2793 C2790 1.403 . S
C2793 C2794 1.392 . S
C2793 C2797 1.495 . S
C2794 C2793 1.392 . S
C2794 C2795 1.385 . S
C2794 C2796 1.478 . S
C2795 H2789 0.930 . S
C2795 C2791 1.400 . S
C2795 C2794 1.385 . S
C2796 C2794 1.478 . S
C2796 C2798 1.381 . S
C2796 C2802 1.383 . S
C2797 C2793 1.495 . S
C2797 H2803 0.959 . S
C2797 H2804 0.961 . S
C2797 H2805 0.960 . S
C2798 C2796 1.381 . S
C2798 C2799 1.394 . S
C2798 H2806 0.930 . S
C2799 C2798 1.394 . S
C2799 C2800 1.383 . S
C2799 H2807 0.929 . S
C2800 C2799 1.383 . S
C2800 C2801 1.377 . S
C2801 H2785 0.930 . S
C2801 C2800 1.377 . S
C2801 C2802 1.379 . S
C2802 H2786 0.931 . S
C2802 C2796 1.383 . S
C2802 C2801 1.379 . S
H2803 C2797 0.959 . S
H2804 C2797 0.961 . S
H2805 C2797 0.960 . S
H2806 C2798 0.930 . S
H2807 C2799 0.929 . S
H2808 C2816 0.929 . S
H2809 C2818 0.930 . S
H2810 C2820 0.930 . S
H2811 C2823 0.929 . S
H2812 C2826 0.930 . S
H2813 C2828 0.960 . S
H2814 C2828 0.960 . S
H2815 C2828 0.960 . S
C2816 H2808 0.929 . S
C2816 C2817 1.377 . S
C2816 C2818 1.384 . S
C2817 C2816 1.377 . S
C2817 C2823 1.390 . S
C2818 H2809 0.930 . S
C2818 C2816 1.384 . S
C2818 C2819 1.372 . S
C2819 C2818 1.372 . S
C2819 C2820 1.400 . S
C2819 C2824 1.490 . S
C2820 H2810 0.930 . S
C2820 C2819 1.400 . S
C2820 C2823 1.386 . S
H2821 C2837 0.930 . S
H2822 C2838 0.931 . S
C2823 H2811 0.929 . S
C2823 C2817 1.390 . S
C2823 C2820 1.386 . S
C2824 C2819 1.490 . S
C2824 C2826 1.395 . S
C2824 C2827 1.403 . S
H2825 C2831 0.930 . S
C2826 H2812 0.930 . S
C2826 C2824 1.395 . S
C2826 C2829 1.403 . S
C2827 C2824 1.403 . S
C2827 C2828 1.524 . S
C2827 C2831 1.400 . S
C2828 H2813 0.960 . S
C2828 H2814 0.960 . S
C2828 H2815 0.960 . S
C2828 C2827 1.524 . S
C2829 C2826 1.403 . S
C2829 C2830 1.392 . S
C2829 C2833 1.495 . S
C2830 C2829 1.392 . S
C2830 C2831 1.385 . S
C2830 C2832 1.478 . S
C2831 H2825 0.930 . S
C2831 C2827 1.400 . S
C2831 C2830 1.385 . S
C2832 C2830 1.478 . S
C2832 C2834 1.381 . S
C2832 C2838 1.383 . S
C2833 C2829 1.495 . S
C2833 H2839 0.959 . S
C2833 H2840 0.961 . S
C2833 H2841 0.960 . S
C2834 C2832 1.381 . S
C2834 C2835 1.394 . S
C2834 H2842 0.930 . S
C2835 C2834 1.394 . S
C2835 C2836 1.383 . S
C2835 H2843 0.929 . S
C2836 C2835 1.383 . S
C2836 C2837 1.377 . S
C2837 H2821 0.930 . S
C2837 C2836 1.377 . S
C2837 C2838 1.379 . S
C2838 H2822 0.931 . S
C2838 C2832 1.383 . S
C2838 C2837 1.379 . S
H2839 C2833 0.959 . S
H2840 C2833 0.961 . S
H2841 C2833 0.960 . S
H2842 C2834 0.930 . S
H2843 C2835 0.929 . S
H2844 C2852 0.929 . S
H2845 C2854 0.930 . S
H2846 C2856 0.930 . S
H2847 C2859 0.929 . S
H2848 C2862 0.930 . S
H2849 C2864 0.960 . S
H2850 C2864 0.960 . S
H2851 C2864 0.960 . S
C2852 H2844 0.929 . S
C2852 C2853 1.377 . S
C2852 C2854 1.384 . S
C2853 C2852 1.377 . S
C2853 C2859 1.390 . S
C2854 H2845 0.930 . S
C2854 C2852 1.384 . S
C2854 C2855 1.372 . S
C2855 C2854 1.372 . S
C2855 C2856 1.400 . S
C2855 C2860 1.490 . S
C2856 H2846 0.930 . S
C2856 C2855 1.400 . S
C2856 C2859 1.386 . S
H2857 C2873 0.930 . S
H2858 C2874 0.931 . S
C2859 H2847 0.929 . S
C2859 C2853 1.390 . S
C2859 C2856 1.386 . S
C2860 C2855 1.490 . S
C2860 C2862 1.395 . S
C2860 C2863 1.403 . S
H2861 C2867 0.930 . S
C2862 H2848 0.930 . S
C2862 C2860 1.395 . S
C2862 C2865 1.403 . S
C2863 C2860 1.403 . S
C2863 C2864 1.524 . S
C2863 C2867 1.400 . S
C2864 H2849 0.960 . S
C2864 H2850 0.960 . S
C2864 H2851 0.960 . S
C2864 C2863 1.524 . S
C2865 C2862 1.403 . S
C2865 C2866 1.392 . S
C2865 C2869 1.495 . S
C2866 C2865 1.392 . S
C2866 C2867 1.385 . S
C2866 C2868 1.478 . S
C2867 H2861 0.930 . S
C2867 C2863 1.400 . S
C2867 C2866 1.385 . S
C2868 C2866 1.478 . S
C2868 C2870 1.381 . S
C2868 C2874 1.383 . S
C2869 C2865 1.495 . S
C2869 H2875 0.959 . S
C2869 H2876 0.961 . S
C2869 H2877 0.960 . S
C2870 C2868 1.381 . S
C2870 C2871 1.394 . S
C2870 H2878 0.930 . S
C2871 C2870 1.394 . S
C2871 C2872 1.383 . S
C2871 H2879 0.929 . S
C2872 C2871 1.383 . S
C2872 C2873 1.377 . S
C2873 H2857 0.930 . S
C2873 C2872 1.377 . S
C2873 C2874 1.379 . S
C2874 H2858 0.931 . S
C2874 C2868 1.383 . S
C2874 C2873 1.379 . S
H2875 C2869 0.959 . S
H2876 C2869 0.961 . S
H2877 C2869 0.960 . S
H2878 C2870 0.930 . S
H2879 C2871 0.929 . S
H2880 C2888 0.929 . S
H2881 C2890 0.930 . S
H2882 C2892 0.930 . S
H2883 C2895 0.929 . S
H2884 C2898 0.930 . S
H2885 C2900 0.960 . S
H2886 C2900 0.960 . S
H2887 C2900 0.960 . S
C2888 H2880 0.929 . S
C2888 C2889 1.377 . S
C2888 C2890 1.384 . S
C2889 C2888 1.377 . S
C2889 C2895 1.390 . S
C2890 H2881 0.930 . S
C2890 C2888 1.384 . S
C2890 C2891 1.372 . S
C2891 C2890 1.372 . S
C2891 C2892 1.400 . S
C2891 C2896 1.490 . S
C2892 H2882 0.930 . S
C2892 C2891 1.400 . S
C2892 C2895 1.386 . S
H2893 C2909 0.930 . S
H2894 C2910 0.931 . S
C2895 H2883 0.929 . S
C2895 C2889 1.390 . S
C2895 C2892 1.386 . S
C2896 C2891 1.490 . S
C2896 C2898 1.395 . S
C2896 C2899 1.403 . S
H2897 C2903 0.930 . S
C2898 H2884 0.930 . S
C2898 C2896 1.395 . S
C2898 C2901 1.403 . S
C2899 C2896 1.403 . S
C2899 C2900 1.524 . S
C2899 C2903 1.400 . S
C2900 H2885 0.960 . S
C2900 H2886 0.960 . S
C2900 H2887 0.960 . S
C2900 C2899 1.524 . S
C2901 C2898 1.403 . S
C2901 C2902 1.392 . S
C2901 C2905 1.495 . S
C2902 C2901 1.392 . S
C2902 C2903 1.385 . S
C2902 C2904 1.478 . S
C2903 H2897 0.930 . S
C2903 C2899 1.400 . S
C2903 C2902 1.385 . S
C2904 C2902 1.478 . S
C2904 C2906 1.381 . S
C2904 C2910 1.383 . S
C2905 C2901 1.495 . S
C2905 H2911 0.959 . S
C2905 H2912 0.961 . S
C2905 H2913 0.960 . S
C2906 C2904 1.381 . S
C2906 C2907 1.394 . S
C2906 H2914 0.930 . S
C2907 C2906 1.394 . S
C2907 C2908 1.383 . S
C2907 H2915 0.929 . S
C2908 C2907 1.383 . S
C2908 C2909 1.377 . S
C2909 H2893 0.930 . S
C2909 C2908 1.377 . S
C2909 C2910 1.379 . S
C2910 H2894 0.931 . S
C2910 C2904 1.383 . S
C2910 C2909 1.379 . S
H2911 C2905 0.959 . S
H2912 C2905 0.961 . S
H2913 C2905 0.960 . S
H2914 C2906 0.930 . S
H2915 C2907 0.929 . S
H2916 C2924 0.929 . S
H2917 C2926 0.930 . S
H2918 C2928 0.930 . S
H2919 C2931 0.929 . S
H2920 C2934 0.930 . S
H2921 C2936 0.960 . S
H2922 C2936 0.960 . S
H2923 C2936 0.960 . S
C2924 H2916 0.929 . S
C2924 C2925 1.377 . S
C2924 C2926 1.384 . S
C2925 C2924 1.377 . S
C2925 C2931 1.390 . S
C2926 H2917 0.930 . S
C2926 C2924 1.384 . S
C2926 C2927 1.372 . S
C2927 C2926 1.372 . S
C2927 C2928 1.400 . S
C2927 C2932 1.490 . S
C2928 H2918 0.930 . S
C2928 C2927 1.400 . S
C2928 C2931 1.386 . S
H2929 C2945 0.930 . S
H2930 C2946 0.931 . S
C2931 H2919 0.929 . S
C2931 C2925 1.390 . S
C2931 C2928 1.386 . S
C2932 C2927 1.490 . S
C2932 C2934 1.395 . S
C2932 C2935 1.403 . S
H2933 C2939 0.930 . S
C2934 H2920 0.930 . S
C2934 C2932 1.395 . S
C2934 C2937 1.403 . S
C2935 C2932 1.403 . S
C2935 C2936 1.524 . S
C2935 C2939 1.400 . S
C2936 H2921 0.960 . S
C2936 H2922 0.960 . S
C2936 H2923 0.960 . S
C2936 C2935 1.524 . S
C2937 C2934 1.403 . S
C2937 C2938 1.392 . S
C2937 C2941 1.495 . S
C2938 C2937 1.392 . S
C2938 C2939 1.385 . S
C2938 C2940 1.478 . S
C2939 H2933 0.930 . S
C2939 C2935 1.400 . S
C2939 C2938 1.385 . S
C2940 C2938 1.478 . S
C2940 C2942 1.381 . S
C2940 C2946 1.383 . S
C2941 C2937 1.495 . S
C2941 H2947 0.959 . S
C2941 H2948 0.961 . S
C2941 H2949 0.960 . S
C2942 C2940 1.381 . S
C2942 C2943 1.394 . S
C2942 H2950 0.930 . S
C2943 C2942 1.394 . S
C2943 C2944 1.383 . S
C2943 H2951 0.929 . S
C2944 C2943 1.383 . S
C2944 C2945 1.377 . S
C2945 H2929 0.930 . S
C2945 C2944 1.377 . S
C2945 C2946 1.379 . S
C2946 H2930 0.931 . S
C2946 C2940 1.383 . S
C2946 C2945 1.379 . S
H2947 C2941 0.959 . S
H2948 C2941 0.961 . S
H2949 C2941 0.960 . S
H2950 C2942 0.930 . S
H2951 C2943 0.929 . S
H2952 C2960 0.929 . S
H2953 C2962 0.930 . S
H2954 C2964 0.930 . S
H2955 C2967 0.929 . S
H2956 C2970 0.930 . S
H2957 C2972 0.960 . S
H2958 C2972 0.960 . S
H2959 C2972 0.960 . S
C2960 H2952 0.929 . S
C2960 C2961 1.377 . S
C2960 C2962 1.384 . S
C2961 C2960 1.377 . S
C2961 C2967 1.390 . S
C2962 H2953 0.930 . S
C2962 C2960 1.384 . S
C2962 C2963 1.372 . S
C2963 C2962 1.372 . S
C2963 C2964 1.400 . S
C2963 C2968 1.490 . S
C2964 H2954 0.930 . S
C2964 C2963 1.400 . S
C2964 C2967 1.386 . S
H2965 C2981 0.930 . S
H2966 C2982 0.931 . S
C2967 H2955 0.929 . S
C2967 C2961 1.390 . S
C2967 C2964 1.386 . S
C2968 C2963 1.490 . S
C2968 C2970 1.395 . S
C2968 C2971 1.479 . S
H2969 C2975 0.878 1_655 S
C2970 H2956 0.930 . S
C2970 C2968 1.395 . S
C2970 C2973 1.403 . S
C2971 C2968 1.479 . S
C2971 C2972 1.497 1_455 S
C2971 C2975 1.387 . S
C2972 H2957 0.960 . S
C2972 H2958 0.960 . S
C2972 H2959 0.960 . S
C2972 C2971 1.497 1_655 S
C2973 C2970 1.403 . S
C2973 C2974 1.392 . S
C2973 C2977 1.495 . S
C2974 C2973 1.392 . S
C2974 C2975 1.403 . S
C2974 C2976 1.478 . S
C2975 H2969 0.878 1_455 S
C2975 C2971 1.387 . S
C2975 C2974 1.403 . S
C2976 C2974 1.478 . S
C2976 C2978 1.381 . S
C2976 C2982 1.383 . S
C2977 C2973 1.495 . S
C2977 H2983 0.959 . S
C2977 H2984 0.961 . S
C2977 H2985 0.960 . S
C2978 C2976 1.381 . S
C2978 C2979 1.394 . S
C2978 H2986 0.930 . S
C2979 C2978 1.394 . S
C2979 C2980 1.383 . S
C2979 H2987 0.929 . S
C2980 C2979 1.383 . S
C2980 C2981 1.377 . S
C2981 H2965 0.930 . S
C2981 C2980 1.377 . S
C2981 C2982 1.379 . S
C2982 H2966 0.931 . S
C2982 C2976 1.383 . S
C2982 C2981 1.379 . S
H2983 C2977 0.959 . S
H2984 C2977 0.961 . S
H2985 C2977 0.960 . S
H2986 C2978 0.930 . S
H2987 C2979 0.929 . S
H2988 C2996 0.929 . S
H2989 C2998 0.930 . S
H2990 C3000 0.930 . S
H2991 C3003 0.929 . S
H2992 C3006 0.930 . S
H2993 C3008 0.960 . S
H2994 C3008 0.960 . S
H2995 C3008 0.960 . S
C2996 H2988 0.929 . S
C2996 C2997 1.377 . S
C2996 C2998 1.384 . S
C2997 C2996 1.377 . S
C2997 C3003 1.390 . S
C2998 H2989 0.930 . S
C2998 C2996 1.384 . S
C2998 C2999 1.372 . S
C2999 C2998 1.372 . S
C2999 C3000 1.400 . S
C2999 C3004 1.490 . S
C3000 H2990 0.930 . S
C3000 C2999 1.400 . S
C3000 C3003 1.386 . S
H3001 C3017 0.930 . S
H3002 C3018 0.931 . S
C3003 H2991 0.929 . S
C3003 C2997 1.390 . S
C3003 C3000 1.386 . S
C3004 C2999 1.490 . S
C3004 C3006 1.395 . S
C3004 C3007 1.403 . S
H3005 C3011 0.930 . S
C3006 H2992 0.930 . S
C3006 C3004 1.395 . S
C3006 C3009 1.403 . S
C3007 C3004 1.403 . S
C3007 C3008 1.524 . S
C3007 C3011 1.400 . S
C3008 H2993 0.960 . S
C3008 H2994 0.960 . S
C3008 H2995 0.960 . S
C3008 C3007 1.524 . S
C3009 C3006 1.403 . S
C3009 C3010 1.392 . S
C3009 C3013 1.495 . S
C3010 C3009 1.392 . S
C3010 C3011 1.385 . S
C3010 C3012 1.478 . S
C3011 H3005 0.930 . S
C3011 C3007 1.400 . S
C3011 C3010 1.385 . S
C3012 C3010 1.478 . S
C3012 C3014 1.381 . S
C3012 C3018 1.383 . S
C3013 C3009 1.495 . S
C3013 H3019 0.959 . S
C3013 H3020 0.961 . S
C3013 H3021 0.960 . S
C3014 C3012 1.381 . S
C3014 C3015 1.394 . S
C3014 H3022 0.930 . S
C3015 C3014 1.394 . S
C3015 C3016 1.383 . S
C3015 H3023 0.929 . S
C3016 C3015 1.383 . S
C3016 C3017 1.377 . S
C3017 H3001 0.930 . S
C3017 C3016 1.377 . S
C3017 C3018 1.379 . S
C3018 H3002 0.931 . S
C3018 C3012 1.383 . S
C3018 C3017 1.379 . S
H3019 C3013 0.959 . S
H3020 C3013 0.961 . S
H3021 C3013 0.960 . S
H3022 C3014 0.930 . S
H3023 C3015 0.929 . S
H3024 C3032 0.929 . S
H3025 C3034 0.930 . S
H3026 C3036 0.930 . S
H3027 C3039 0.929 . S
H3028 C3042 0.930 . S
H3029 C3044 0.960 1_545 S
H3030 C3044 0.960 . S
H3031 C3044 0.960 1_545 S
C3032 H3024 0.929 . S
C3032 C3033 1.377 . S
C3032 C3034 1.384 . S
C3033 C3032 1.377 . S
C3033 C3039 1.390 1_565 S
C3034 H3025 0.930 . S
C3034 C3032 1.384 . S
C3034 C3035 1.372 . S
C3035 C3034 1.372 . S
C3035 C3036 1.400 1_565 S
C3035 C3040 1.490 . S
C3036 H3026 0.930 . S
C3036 C3035 1.400 1_545 S
C3036 C3039 1.386 . S
H3037 C3053 0.930 . S
H3038 C3054 0.931 . S
C3039 H3027 0.929 . S
C3039 C3033 1.390 1_545 S
C3039 C3036 1.386 . S
C3040 C3035 1.490 . S
C3040 C3042 1.395 . S
C3040 C3043 1.403 . S
H3041 C3047 0.920 . S
C3042 H3028 0.930 . S
C3042 C3040 1.395 . S
C3042 C3045 1.403 . S
C3043 C3040 1.403 . S
C3043 C3044 1.524 . S
C3043 C3047 1.400 . S
C3044 H3029 0.960 1_565 S
C3044 H3030 0.960 . S
C3044 H3031 0.960 1_565 S
C3044 C3043 1.524 . S
C3045 C3042 1.403 . S
C3045 C3046 1.392 . S
C3045 C3049 1.495 . S
C3046 C3045 1.392 . S
C3046 C3047 1.385 . S
C3046 C3048 1.478 . S
C3047 H3041 0.920 . S
C3047 C3043 1.400 . S
C3047 C3046 1.385 . S
C3048 C3046 1.478 . S
C3048 C3050 1.381 . S
C3048 C3054 1.383 1_565 S
C3049 C3045 1.495 . S
C3049 H3055 0.959 . S
C3049 H3056 0.961 . S
C3049 H3057 0.960 . S
C3050 C3048 1.381 . S
C3050 C3051 1.394 . S
C3050 H3058 0.930 . S
C3051 C3050 1.394 . S
C3051 C3052 1.383 . S
C3051 H3059 0.929 . S
C3052 C3051 1.383 . S
C3052 C3053 1.377 1_565 S
C3053 H3037 0.930 . S
C3053 C3052 1.377 1_545 S
C3053 C3054 1.379 . S
C3054 H3038 0.931 . S
C3054 C3048 1.383 1_545 S
C3054 C3053 1.379 . S
H3055 C3049 0.959 . S
H3056 C3049 0.961 . S
H3057 C3049 0.960 . S
H3058 C3050 0.930 . S
H3059 C3051 0.929 . S
H3060 C3068 0.926 1_545 S
H3061 C3070 0.930 1_545 S
H3062 C3072 0.930 . S
H3063 C3075 0.929 . S
H3064 C3078 0.930 . S
H3065 C3080 0.954 . S
H3066 C3080 0.960 1_545 S
H3067 C3080 0.960 . S
C3068 H3060 0.926 1_565 S
C3068 C3069 1.377 . S
C3068 C3070 1.384 . S
C3069 C3068 1.377 . S
C3069 C3075 1.390 . S
C3070 H3061 0.930 1_565 S
C3070 C3068 1.384 . S
C3070 C3071 1.372 . S
C3071 C3070 1.372 . S
C3071 C3072 1.400 . S
C3071 C3076 1.490 . S
C3072 H3062 0.930 . S
C3072 C3071 1.400 . S
C3072 C3075 1.386 . S
H3073 C3089 0.930 . S
H3074 C3090 0.931 . S
C3075 H3063 0.929 . S
C3075 C3069 1.390 . S
C3075 C3072 1.386 . S
C3076 C3071 1.490 . S
C3076 C3078 1.395 . S
C3076 C3079 1.403 . S
H3077 C3083 0.930 . S
C3078 H3064 0.930 . S
C3078 C3076 1.395 . S
C3078 C3081 1.403 . S
C3079 C3076 1.403 . S
C3079 C3080 1.524 . S
C3079 C3083 1.400 . S
C3080 H3065 0.954 . S
C3080 H3066 0.960 1_565 S
C3080 H3067 0.960 . S
C3080 C3079 1.524 . S
C3081 C3078 1.403 . S
C3081 C3082 1.392 . S
C3081 C3085 1.495 . S
C3082 C3081 1.392 . S
C3082 C3083 1.385 . S
C3082 C3084 1.478 . S
C3083 H3077 0.930 . S
C3083 C3079 1.400 . S
C3083 C3082 1.385 . S
C3084 C3082 1.478 . S
C3084 C3086 1.381 1_565 S
C3084 C3090 1.383 . S
C3085 C3081 1.495 . S
C3085 H3091 0.959 . S
C3085 H3092 0.961 . S
C3085 H3093 0.960 . S
C3086 C3084 1.381 1_545 S
C3086 C3087 1.394 . S
C3086 H3094 0.930 . S
C3087 C3086 1.394 . S
C3087 C3088 1.383 1_545 S
C3087 H3095 0.929 . S
C3088 C3087 1.383 1_565 S
C3088 C3089 1.377 . S
C3089 H3073 0.930 . S
C3089 C3088 1.377 . S
C3089 C3090 1.379 . S
C3090 H3074 0.931 . S
C3090 C3084 1.383 . S
C3090 C3089 1.379 . S
H3091 C3085 0.959 . S
H3092 C3085 0.961 . S
H3093 C3085 0.960 . S
H3094 C3086 0.930 . S
H3095 C3087 0.929 . S
H3096 C3104 0.929 1_655 S
H3097 C3106 0.966 . S
H3098 C3108 0.930 . S
H3099 C3111 0.929 . S
H3100 C3114 0.930 . S
H3101 C3116 0.960 . S
H3102 C3116 0.960 . S
H3103 C3116 0.960 . S
C3104 H3096 0.929 1_455 S
C3104 C3105 1.377 . S
C3104 C3106 1.408 1_455 S
C3105 C3104 1.377 . S
C3105 C3111 1.390 . S
C3106 H3097 0.966 . S
C3106 C3104 1.408 1_655 S
C3106 C3107 1.315 1_655 S
C3107 C3106 1.315 1_455 S
C3107 C3108 1.400 . S
C3107 C3112 1.490 . S
C3108 H3098 0.930 . S
C3108 C3107 1.400 . S
C3108 C3111 1.386 . S
H3109 C3125 0.930 . S
H3110 C3126 0.931 . S
C3111 H3099 0.929 . S
C3111 C3105 1.390 . S
C3111 C3108 1.386 . S
C3112 C3107 1.490 . S
C3112 C3114 1.395 1_455 S
C3112 C3115 1.403 . S
H3113 C3119 0.930 . S
C3114 H3100 0.930 . S
C3114 C3112 1.395 1_655 S
C3114 C3117 1.403 . S
C3115 C3112 1.403 . S
C3115 C3116 1.524 . S
C3115 C3119 1.400 . S
C3116 H3101 0.960 . S
C3116 H3102 0.960 . S
C3116 H3103 0.960 . S
C3116 C3115 1.524 . S
C3117 C3114 1.403 . S
C3117 C3118 1.392 1_655 S
C3117 C3121 1.495 . S
C3118 C3117 1.392 1_455 S
C3118 C3119 1.385 . S
C3118 C3120 1.478 . S
C3119 H3113 0.930 . S
C3119 C3115 1.400 . S
C3119 C3118 1.385 . S
C3120 C3118 1.478 . S
C3120 C3122 1.381 1_455 S
C3120 C3126 1.383 . S
C3121 C3117 1.495 . S
C3121 H3127 0.959 . S
C3121 H3128 0.961 . S
C3121 H3129 0.960 . S
C3122 C3120 1.381 1_655 S
C3122 C3123 1.394 . S
C3122 H3130 0.930 . S
C3123 C3122 1.394 . S
C3123 C3124 1.383 1_655 S
C3123 H3131 0.929 . S
C3124 C3123 1.383 1_455 S
C3124 C3125 1.377 . S
C3125 H3109 0.930 . S
C3125 C3124 1.377 . S
C3125 C3126 1.379 . S
C3126 H3110 0.931 . S
C3126 C3120 1.383 . S
C3126 C3125 1.379 . S
H3127 C3121 0.959 . S
H3128 C3121 0.961 . S
H3129 C3121 0.960 . S
H3130 C3122 0.930 . S
H3131 C3123 0.929 . S
H3132 C3140 0.929 . S
H3133 C3142 0.930 . S
H3134 C3144 0.930 . S
H3135 C3147 0.929 . S
H3136 C3150 0.930 . S
H3137 C3152 0.960 . S
H3138 C3152 0.960 . S
H3139 C3152 0.960 . S
C3140 H3132 0.929 . S
C3140 C3141 1.377 . S
C3140 C3142 1.384 . S
C3141 C3140 1.377 . S
C3141 C3147 1.390 . S
C3142 H3133 0.930 . S
C3142 C3140 1.384 . S
C3142 C3143 1.372 . S
C3143 C3142 1.372 . S
C3143 C3144 1.400 . S
C3143 C3148 1.490 . S
C3144 H3134 0.930 . S
C3144 C3143 1.400 . S
C3144 C3147 1.386 . S
H3145 C3161 0.930 . S
H3146 C3162 0.931 . S
C3147 H3135 0.929 . S
C3147 C3141 1.390 . S
C3147 C3144 1.386 . S
C3148 C3143 1.490 . S
C3148 C3150 1.395 . S
C3148 C3151 1.403 . S
H3149 C3155 0.930 . S
C3150 H3136 0.930 . S
C3150 C3148 1.395 . S
C3150 C3153 1.403 . S
C3151 C3148 1.403 . S
C3151 C3152 1.524 . S
C3151 C3155 1.400 . S
C3152 H3137 0.960 . S
C3152 H3138 0.960 . S
C3152 H3139 0.960 . S
C3152 C3151 1.524 . S
C3153 C3150 1.403 . S
C3153 C3154 1.392 . S
C3153 C3157 1.495 . S
C3154 C3153 1.392 . S
C3154 C3155 1.385 . S
C3154 C3156 1.478 . S
C3155 H3149 0.930 . S
C3155 C3151 1.400 . S
C3155 C3154 1.385 . S
C3156 C3154 1.478 . S
C3156 C3158 1.381 . S
C3156 C3162 1.383 . S
C3157 C3153 1.495 . S
C3157 H3163 0.959 . S
C3157 H3164 0.961 . S
C3157 H3165 0.960 . S
C3158 C3156 1.381 . S
C3158 C3159 1.394 . S
C3158 H3166 0.930 . S
C3159 C3158 1.394 . S
C3159 C3160 1.383 . S
C3159 H3167 0.929 . S
C3160 C3159 1.383 . S
C3160 C3161 1.377 . S
C3161 H3145 0.930 . S
C3161 C3160 1.377 . S
C3161 C3162 1.379 . S
C3162 H3146 0.931 . S
C3162 C3156 1.383 . S
C3162 C3161 1.379 . S
H3163 C3157 0.959 . S
H3164 C3157 0.961 . S
H3165 C3157 0.960 . S
H3166 C3158 0.930 . S
H3167 C3159 0.929 . S
H3168 C3176 0.929 . S
H3169 C3178 0.930 . S
H3170 C3180 0.930 . S
H3171 C3183 0.929 . S
H3172 C3186 0.930 . S
H3173 C3188 0.960 . S
H3174 C3188 0.960 . S
H3175 C3188 0.960 . S
C3176 H3168 0.929 . S
C3176 C3177 1.377 . S
C3176 C3178 1.384 . S
C3177 C3176 1.377 . S
C3177 C3183 1.390 . S
C3178 H3169 0.930 . S
C3178 C3176 1.384 . S
C3178 C3179 1.372 . S
C3179 C3178 1.372 . S
C3179 C3180 1.400 . S
C3179 C3184 1.490 . S
C3180 H3170 0.930 . S
C3180 C3179 1.400 . S
C3180 C3183 1.386 . S
H3181 C3197 0.930 . S
H3182 C3198 0.931 . S
C3183 H3171 0.929 . S
C3183 C3177 1.390 . S
C3183 C3180 1.386 . S
C3184 C3179 1.490 . S
C3184 C3186 1.395 . S
C3184 C3187 1.403 . S
H3185 C3191 0.930 . S
C3186 H3172 0.930 . S
C3186 C3184 1.395 . S
C3186 C3189 1.403 . S
C3187 C3184 1.403 . S
C3187 C3188 1.524 . S
C3187 C3191 1.400 . S
C3188 H3173 0.960 . S
C3188 H3174 0.960 . S
C3188 H3175 0.960 . S
C3188 C3187 1.524 . S
C3189 C3186 1.403 . S
C3189 C3190 1.392 . S
C3189 C3193 1.495 . S
C3190 C3189 1.392 . S
C3190 C3191 1.385 . S
C3190 C3192 1.478 . S
C3191 H3185 0.930 . S
C3191 C3187 1.400 . S
C3191 C3190 1.385 . S
C3192 C3190 1.478 . S
C3192 C3194 1.381 . S
C3192 C3198 1.383 . S
C3193 C3189 1.495 . S
C3193 H3199 0.959 . S
C3193 H3200 0.961 . S
C3193 H3201 0.960 . S
C3194 C3192 1.381 . S
C3194 C3195 1.394 . S
C3194 H3202 0.930 . S
C3195 C3194 1.394 . S
C3195 C3196 1.383 . S
C3195 H3203 0.929 . S
C3196 C3195 1.383 . S
C3196 C3197 1.377 . S
C3197 H3181 0.930 . S
C3197 C3196 1.377 . S
C3197 C3198 1.379 . S
C3198 H3182 0.931 . S
C3198 C3192 1.383 . S
C3198 C3197 1.379 . S
H3199 C3193 0.959 . S
H3200 C3193 0.961 . S
H3201 C3193 0.960 . S
H3202 C3194 0.930 . S
H3203 C3195 0.929 . S
H3204 C3212 0.929 . S
H3205 C3214 0.930 . S
H3206 C3216 0.930 . S
H3207 C3219 0.929 . S
H3208 C3222 0.930 . S
H3209 C3224 0.960 . S
H3210 C3224 0.960 . S
H3211 C3224 0.960 . S
C3212 H3204 0.929 . S
C3212 C3213 1.377 . S
C3212 C3214 1.384 . S
C3213 C3212 1.377 . S
C3213 C3219 1.390 . S
C3214 H3205 0.930 . S
C3214 C3212 1.384 . S
C3214 C3215 1.372 . S
C3215 C3214 1.372 . S
C3215 C3216 1.400 . S
C3215 C3220 1.490 . S
C3216 H3206 0.930 . S
C3216 C3215 1.400 . S
C3216 C3219 1.386 . S
H3217 C3233 0.930 . S
H3218 C3234 0.931 . S
C3219 H3207 0.929 . S
C3219 C3213 1.390 . S
C3219 C3216 1.386 . S
C3220 C3215 1.490 . S
C3220 C3222 1.395 . S
C3220 C3223 1.403 . S
H3221 C3227 0.930 . S
C3222 H3208 0.930 . S
C3222 C3220 1.395 . S
C3222 C3225 1.403 . S
C3223 C3220 1.403 . S
C3223 C3224 1.524 . S
C3223 C3227 1.400 . S
C3224 H3209 0.960 . S
C3224 H3210 0.960 . S
C3224 H3211 0.960 . S
C3224 C3223 1.524 . S
C3225 C3222 1.403 . S
C3225 C3226 1.392 . S
C3225 C3229 1.495 . S
C3226 C3225 1.392 . S
C3226 C3227 1.385 . S
C3226 C3228 1.478 . S
C3227 H3221 0.930 . S
C3227 C3223 1.400 . S
C3227 C3226 1.385 . S
C3228 C3226 1.478 . S
C3228 C3230 1.381 . S
C3228 C3234 1.383 . S
C3229 C3225 1.495 . S
C3229 H3235 0.959 . S
C3229 H3236 0.961 . S
C3229 H3237 0.960 . S
C3230 C3228 1.381 . S
C3230 C3231 1.394 . S
C3230 H3238 0.930 . S
C3231 C3230 1.394 . S
C3231 C3232 1.383 . S
C3231 H3239 0.929 . S
C3232 C3231 1.383 . S
C3232 C3233 1.377 . S
C3233 H3217 0.930 . S
C3233 C3232 1.377 . S
C3233 C3234 1.379 . S
C3234 H3218 0.931 . S
C3234 C3228 1.383 . S
C3234 C3233 1.379 . S
H3235 C3229 0.959 . S
H3236 C3229 0.961 . S
H3237 C3229 0.960 . S
H3238 C3230 0.930 . S
H3239 C3231 0.929 . S
H3240 C3248 0.929 . S
H3241 C3250 0.930 . S
H3242 C3252 0.930 . S
H3243 C3255 0.929 . S
H3244 C3258 0.930 . S
H3245 C3260 0.960 . S
H3246 C3260 0.960 . S
H3247 C3260 0.960 . S
C3248 H3240 0.929 . S
C3248 C3249 1.377 . S
C3248 C3250 1.384 . S
C3249 C3248 1.377 . S
C3249 C3255 1.390 . S
C3250 H3241 0.930 . S
C3250 C3248 1.384 . S
C3250 C3251 1.372 . S
C3251 C3250 1.372 . S
C3251 C3252 1.400 . S
C3251 C3256 1.490 . S
C3252 H3242 0.930 . S
C3252 C3251 1.400 . S
C3252 C3255 1.386 . S
H3253 C3269 0.930 . S
H3254 C3270 0.931 . S
C3255 H3243 0.929 . S
C3255 C3249 1.390 . S
C3255 C3252 1.386 . S
C3256 C3251 1.490 . S
C3256 C3258 1.395 . S
C3256 C3259 1.403 . S
H3257 C3263 0.930 . S
C3258 H3244 0.930 . S
C3258 C3256 1.395 . S
C3258 C3261 1.403 . S
C3259 C3256 1.403 . S
C3259 C3260 1.524 . S
C3259 C3263 1.400 . S
C3260 H3245 0.960 . S
C3260 H3246 0.960 . S
C3260 H3247 0.960 . S
C3260 C3259 1.524 . S
C3261 C3258 1.403 . S
C3261 C3262 1.392 . S
C3261 C3265 1.495 . S
C3262 C3261 1.392 . S
C3262 C3263 1.385 . S
C3262 C3264 1.478 . S
C3263 H3257 0.930 . S
C3263 C3259 1.400 . S
C3263 C3262 1.385 . S
C3264 C3262 1.478 . S
C3264 C3266 1.381 . S
C3264 C3270 1.383 . S
C3265 C3261 1.495 . S
C3265 H3271 0.959 . S
C3265 H3272 0.961 . S
C3265 H3273 0.960 . S
C3266 C3264 1.381 . S
C3266 C3267 1.394 . S
C3266 H3274 0.930 . S
C3267 C3266 1.394 . S
C3267 C3268 1.383 . S
C3267 H3275 0.929 . S
C3268 C3267 1.383 . S
C3268 C3269 1.377 . S
C3269 H3253 0.930 . S
C3269 C3268 1.377 . S
C3269 C3270 1.379 . S
C3270 H3254 0.931 . S
C3270 C3264 1.383 . S
C3270 C3269 1.379 . S
H3271 C3265 0.959 . S
H3272 C3265 0.961 . S
H3273 C3265 0.960 . S
H3274 C3266 0.930 . S
H3275 C3267 0.929 . S
H3276 C3284 0.929 . S
H3277 C3286 0.930 . S
H3278 C3288 0.930 . S
H3279 C3291 0.929 . S
H3280 C3294 0.933 1_565 S
H3281 C3296 0.960 . S
H3282 C3296 0.960 . S
H3283 C3296 0.960 . S
C3284 H3276 0.929 . S
C3284 C3285 1.377 . S
C3284 C3286 1.384 . S
C3285 C3284 1.377 . S
C3285 C3291 1.390 . S
C3286 H3277 0.930 . S
C3286 C3284 1.384 . S
C3286 C3287 1.372 . S
C3287 C3286 1.372 . S
C3287 C3288 1.400 . S
C3287 C3292 1.490 . S
C3288 H3278 0.930 . S
C3288 C3287 1.400 . S
C3288 C3291 1.386 . S
H3289 C3305 0.930 . S
H3290 C3306 0.944 . S
C3291 H3279 0.929 . S
C3291 C3285 1.390 . S
C3291 C3288 1.386 . S
C3292 C3287 1.490 . S
C3292 C3294 1.395 . S
C3292 C3295 1.403 . S
H3293 C3299 0.930 . S
C3294 H3280 0.933 1_545 S
C3294 C3292 1.395 . S
C3294 C3297 1.403 . S
C3295 C3292 1.403 . S
C3295 C3296 1.524 . S
C3295 C3299 1.400 . S
C3296 H3281 0.960 . S
C3296 H3282 0.960 . S
C3296 H3283 0.960 . S
C3296 C3295 1.524 . S
C3297 C3294 1.403 . S
C3297 C3298 1.392 . S
C3297 C3301 1.495 1_545 S
C3298 C3297 1.392 . S
C3298 C3299 1.385 . S
C3298 C3300 1.478 . S
C3299 H3293 0.930 . S
C3299 C3295 1.400 . S
C3299 C3298 1.385 . S
C3300 C3298 1.478 . S
C3300 C3302 1.381 . S
C3300 C3306 1.341 1_545 S
C3301 C3297 1.495 1_565 S
C3301 H3307 0.959 . S
C3301 H3308 0.961 . S
C3301 H3309 0.960 . S
C3302 C3300 1.381 . S
C3302 C3303 1.394 . S
C3302 H3310 0.930 . S
C3303 C3302 1.394 . S
C3303 C3304 1.383 . S
C3303 H3311 0.929 . S
C3304 C3303 1.383 . S
C3304 C3305 1.377 1_545 S
C3305 H3289 0.930 . S
C3305 C3304 1.377 1_565 S
C3305 C3306 1.411 . S
C3306 H3290 0.944 . S
C3306 C3300 1.341 1_565 S
C3306 C3305 1.411 . S
H3307 C3301 0.959 . S
H3308 C3301 0.961 . S
H3309 C3301 0.960 . S
H3310 C3302 0.930 . S
H3311 C3303 0.929 . S
H3312 C3320 0.929 . S
H3313 C3322 0.930 . S
H3314 C3324 0.930 . S
H3315 C3327 0.929 . S
H3316 C3330 0.930 . S
H3317 C3332 0.960 . S
H3318 C3332 0.960 . S
H3319 C3332 0.960 . S
C3320 H3312 0.929 . S
C3320 C3321 1.377 . S
C3320 C3322 1.384 . S
C3321 C3320 1.377 . S
C3321 C3327 1.390 . S
C3322 H3313 0.930 . S
C3322 C3320 1.384 . S
C3322 C3323 1.372 . S
C3323 C3322 1.372 . S
C3323 C3324 1.400 . S
C3323 C3328 1.490 . S
C3324 H3314 0.930 . S
C3324 C3323 1.400 . S
C3324 C3327 1.386 . S
H3325 C3341 0.930 . S
H3326 C3342 0.931 . S
C3327 H3315 0.929 . S
C3327 C3321 1.390 . S
C3327 C3324 1.386 . S
C3328 C3323 1.490 . S
C3328 C3330 1.395 . S
C3328 C3331 1.426 . S
H3329 C3335 0.914 1_455 S
C3330 H3316 0.930 . S
C3330 C3328 1.395 . S
C3330 C3333 1.403 . S
C3331 C3328 1.426 . S
C3331 C3332 1.476 1_655 S
C3331 C3335 1.404 . S
C3332 H3317 0.960 . S
C3332 H3318 0.960 . S
C3332 H3319 0.960 . S
C3332 C3331 1.476 1_455 S
C3333 C3330 1.403 . S
C3333 C3334 1.392 . S
C3333 C3337 1.495 . S
C3334 C3333 1.392 . S
C3334 C3335 1.425 . S
C3334 C3336 1.478 . S
C3335 H3329 0.914 1_655 S
C3335 C3331 1.404 . S
C3335 C3334 1.425 . S
C3336 C3334 1.478 . S
C3336 C3338 1.381 1_655 S
C3336 C3342 1.383 . S
C3337 C3333 1.495 . S
C3337 H3343 0.959 . S
C3337 H3344 0.961 . S
C3337 H3345 0.960 . S
C3338 C3336 1.381 1_455 S
C3338 C3339 1.377 . S
C3338 H3346 0.951 . S
C3339 C3338 1.377 . S
C3339 C3340 1.383 1_455 S
C3339 H3347 0.929 . S
C3340 C3339 1.383 1_655 S
C3340 C3341 1.377 . S
C3341 H3325 0.930 . S
C3341 C3340 1.377 . S
C3341 C3342 1.379 . S
C3342 H3326 0.931 . S
C3342 C3336 1.383 . S
C3342 C3341 1.379 . S
H3343 C3337 0.959 . S
H3344 C3337 0.961 . S
H3345 C3337 0.960 . S
H3346 C3338 0.951 . S
H3347 C3339 0.929 . S
H3348 C3356 0.929 . S
H3349 C3358 0.930 . S
H3350 C3360 0.930 . S
H3351 C3363 0.929 . S
H3352 C3366 0.930 . S
H3353 C3368 0.960 . S
H3354 C3368 0.960 . S
H3355 C3368 0.960 . S
C3356 H3348 0.929 . S
C3356 C3357 1.377 . S
C3356 C3358 1.384 . S
C3357 C3356 1.377 . S
C3357 C3363 1.390 . S
C3358 H3349 0.930 . S
C3358 C3356 1.384 . S
C3358 C3359 1.372 . S
C3359 C3358 1.372 . S
C3359 C3360 1.400 . S
C3359 C3364 1.490 . S
C3360 H3350 0.930 . S
C3360 C3359 1.400 . S
C3360 C3363 1.386 . S
H3361 C3377 0.930 . S
H3362 C3378 0.931 . S
C3363 H3351 0.929 . S
C3363 C3357 1.390 . S
C3363 C3360 1.386 . S
C3364 C3359 1.490 . S
C3364 C3366 1.395 . S
C3364 C3367 1.403 . S
H3365 C3371 0.930 . S
C3366 H3352 0.930 . S
C3366 C3364 1.395 . S
C3366 C3369 1.403 . S
C3367 C3364 1.403 . S
C3367 C3368 1.524 . S
C3367 C3371 1.400 . S
C3368 H3353 0.960 . S
C3368 H3354 0.960 . S
C3368 H3355 0.960 . S
C3368 C3367 1.524 . S
C3369 C3366 1.403 . S
C3369 C3370 1.392 . S
C3369 C3373 1.495 . S
C3370 C3369 1.392 . S
C3370 C3371 1.385 . S
C3370 C3372 1.478 . S
C3371 H3365 0.930 . S
C3371 C3367 1.400 . S
C3371 C3370 1.385 . S
C3372 C3370 1.478 . S
C3372 C3374 1.381 . S
C3372 C3378 1.383 . S
C3373 C3369 1.495 . S
C3373 H3379 0.959 . S
C3373 H3380 0.961 . S
C3373 H3381 0.960 . S
C3374 C3372 1.381 . S
C3374 C3375 1.394 . S
C3374 H3382 0.930 . S
C3375 C3374 1.394 . S
C3375 C3376 1.383 . S
C3375 H3383 0.929 . S
C3376 C3375 1.383 . S
C3376 C3377 1.377 . S
C3377 H3361 0.930 . S
C3377 C3376 1.377 . S
C3377 C3378 1.379 . S
C3378 H3362 0.931 . S
C3378 C3372 1.383 . S
C3378 C3377 1.379 . S
H3379 C3373 0.959 . S
H3380 C3373 0.961 . S
H3381 C3373 0.960 . S
H3382 C3374 0.930 . S
H3383 C3375 0.929 . S
H3384 C3392 0.929 . S
H3385 C3394 0.930 . S
H3386 C3396 0.930 . S
H3387 C3399 0.929 . S
H3388 C3402 0.930 . S
H3389 C3404 0.960 . S
H3390 C3404 0.960 . S
H3391 C3404 0.960 . S
C3392 H3384 0.929 . S
C3392 C3393 1.377 . S
C3392 C3394 1.384 . S
C3393 C3392 1.377 . S
C3393 C3399 1.390 . S
C3394 H3385 0.930 . S
C3394 C3392 1.384 . S
C3394 C3395 1.372 . S
C3395 C3394 1.372 . S
C3395 C3396 1.400 . S
C3395 C3400 1.490 . S
C3396 H3386 0.930 . S
C3396 C3395 1.400 . S
C3396 C3399 1.386 . S
H3397 C3413 0.930 . S
H3398 C3414 0.931 . S
C3399 H3387 0.929 . S
C3399 C3393 1.390 . S
C3399 C3396 1.386 . S
C3400 C3395 1.490 . S
C3400 C3402 1.395 . S
C3400 C3403 1.403 . S
H3401 C3407 0.930 . S
C3402 H3388 0.930 . S
C3402 C3400 1.395 . S
C3402 C3405 1.403 . S
C3403 C3400 1.403 . S
C3403 C3404 1.524 . S
C3403 C3407 1.400 . S
C3404 H3389 0.960 . S
C3404 H3390 0.960 . S
C3404 H3391 0.960 . S
C3404 C3403 1.524 . S
C3405 C3402 1.403 . S
C3405 C3406 1.392 . S
C3405 C3409 1.495 . S
C3406 C3405 1.392 . S
C3406 C3407 1.385 . S
C3406 C3408 1.478 . S
C3407 H3401 0.930 . S
C3407 C3403 1.400 . S
C3407 C3406 1.385 . S
C3408 C3406 1.478 . S
C3408 C3410 1.381 . S
C3408 C3414 1.383 . S
C3409 C3405 1.495 . S
C3409 H3415 0.959 . S
C3409 H3416 0.961 . S
C3409 H3417 0.960 . S
C3410 C3408 1.381 . S
C3410 C3411 1.394 . S
C3410 H3418 0.930 . S
C3411 C3410 1.394 . S
C3411 C3412 1.383 . S
C3411 H3419 0.929 . S
C3412 C3411 1.383 . S
C3412 C3413 1.377 . S
C3413 H3397 0.930 . S
C3413 C3412 1.377 . S
C3413 C3414 1.379 . S
C3414 H3398 0.931 . S
C3414 C3408 1.383 . S
C3414 C3413 1.379 . S
H3415 C3409 0.959 . S
H3416 C3409 0.961 . S
H3417 C3409 0.960 . S
H3418 C3410 0.930 . S
H3419 C3411 0.929 . S
H3420 C3428 0.929 . S
H3421 C3430 0.930 . S
H3422 C3432 0.930 . S
H3423 C3435 0.929 . S
H3424 C3438 0.930 . S
H3425 C3440 0.960 . S
H3426 C3440 0.960 . S
H3427 C3440 0.960 . S
C3428 H3420 0.929 . S
C3428 C3429 1.377 . S
C3428 C3430 1.384 . S
C3429 C3428 1.377 . S
C3429 C3435 1.390 . S
C3430 H3421 0.930 . S
C3430 C3428 1.384 . S
C3430 C3431 1.372 . S
C3431 C3430 1.372 . S
C3431 C3432 1.400 . S
C3431 C3436 1.490 . S
C3432 H3422 0.930 . S
C3432 C3431 1.400 . S
C3432 C3435 1.386 . S
H3433 C3449 0.930 . S
H3434 C3450 0.931 . S
C3435 H3423 0.929 . S
C3435 C3429 1.390 . S
C3435 C3432 1.386 . S
C3436 C3431 1.490 . S
C3436 C3438 1.395 . S
C3436 C3439 1.403 . S
H3437 C3443 0.930 . S
C3438 H3424 0.930 . S
C3438 C3436 1.395 . S
C3438 C3441 1.403 . S
C3439 C3436 1.403 . S
C3439 C3440 1.524 . S
C3439 C3443 1.400 . S
C3440 H3425 0.960 . S
C3440 H3426 0.960 . S
C3440 H3427 0.960 . S
C3440 C3439 1.524 . S
C3441 C3438 1.403 . S
C3441 C3442 1.392 . S
C3441 C3445 1.495 . S
C3442 C3441 1.392 . S
C3442 C3443 1.385 . S
C3442 C3444 1.478 . S
C3443 H3437 0.930 . S
C3443 C3439 1.400 . S
C3443 C3442 1.385 . S
C3444 C3442 1.478 . S
C3444 C3446 1.381 . S
C3444 C3450 1.383 . S
C3445 C3441 1.495 . S
C3445 H3451 0.959 . S
C3445 H3452 0.961 . S
C3445 H3453 0.960 . S
C3446 C3444 1.381 . S
C3446 C3447 1.394 . S
C3446 H3454 0.930 . S
C3447 C3446 1.394 . S
C3447 C3448 1.383 . S
C3447 H3455 0.929 . S
C3448 C3447 1.383 . S
C3448 C3449 1.377 . S
C3449 H3433 0.930 . S
C3449 C3448 1.377 . S
C3449 C3450 1.379 . S
C3450 H3434 0.931 . S
C3450 C3444 1.383 . S
C3450 C3449 1.379 . S
H3451 C3445 0.959 . S
H3452 C3445 0.961 . S
H3453 C3445 0.960 . S
H3454 C3446 0.930 . S
H3455 C3447 0.929 . S
H3456 C3464 0.929 . S
H3457 C3466 0.930 . S
H3458 C3468 0.930 . S
H3459 C3471 0.929 . S
H3460 C3474 0.930 . S
H3461 C3476 0.960 . S
H3462 C3476 0.960 . S
H3463 C3476 0.960 . S
C3464 H3456 0.929 . S
C3464 C3465 1.377 . S
C3464 C3466 1.384 . S
C3465 C3464 1.377 . S
C3465 C3471 1.390 . S
C3466 H3457 0.930 . S
C3466 C3464 1.384 . S
C3466 C3467 1.372 . S
C3467 C3466 1.372 . S
C3467 C3468 1.400 . S
C3467 C3472 1.490 . S
C3468 H3458 0.930 . S
C3468 C3467 1.400 . S
C3468 C3471 1.386 . S
H3469 C3485 0.930 . S
H3470 C3486 0.931 . S
C3471 H3459 0.929 . S
C3471 C3465 1.390 . S
C3471 C3468 1.386 . S
C3472 C3467 1.490 . S
C3472 C3474 1.395 . S
C3472 C3475 1.403 . S
H3473 C3479 0.930 . S
C3474 H3460 0.930 . S
C3474 C3472 1.395 . S
C3474 C3477 1.403 . S
C3475 C3472 1.403 . S
C3475 C3476 1.524 . S
C3475 C3479 1.400 . S
C3476 H3461 0.960 . S
C3476 H3462 0.960 . S
C3476 H3463 0.960 . S
C3476 C3475 1.524 . S
C3477 C3474 1.403 . S
C3477 C3478 1.392 . S
C3477 C3481 1.495 . S
C3478 C3477 1.392 . S
C3478 C3479 1.385 . S
C3478 C3480 1.478 . S
C3479 H3473 0.930 . S
C3479 C3475 1.400 . S
C3479 C3478 1.385 . S
C3480 C3478 1.478 . S
C3480 C3482 1.381 . S
C3480 C3486 1.383 . S
C3481 C3477 1.495 . S
C3481 H3487 0.959 . S
C3481 H3488 0.961 . S
C3481 H3489 0.960 . S
C3482 C3480 1.381 . S
C3482 C3483 1.394 . S
C3482 H3490 0.930 . S
C3483 C3482 1.394 . S
C3483 C3484 1.383 . S
C3483 H3491 0.929 . S
C3484 C3483 1.383 . S
C3484 C3485 1.377 . S
C3485 H3469 0.930 . S
C3485 C3484 1.377 . S
C3485 C3486 1.379 . S
C3486 H3470 0.931 . S
C3486 C3480 1.383 . S
C3486 C3485 1.379 . S
H3487 C3481 0.959 . S
H3488 C3481 0.961 . S
H3489 C3481 0.960 . S
H3490 C3482 0.930 . S
H3491 C3483 0.929 . S
H3492 C3500 0.929 . S
H3493 C3502 0.930 . S
H3494 C3504 0.930 . S
H3495 C3507 0.929 . S
H3496 C3510 0.930 . S
H3497 C3512 0.960 . S
H3498 C3512 0.960 . S
H3499 C3512 0.960 . S
C3500 H3492 0.929 . S
C3500 C3501 1.377 . S
C3500 C3502 1.384 . S
C3501 C3500 1.377 . S
C3501 C3507 1.390 . S
C3502 H3493 0.930 . S
C3502 C3500 1.384 . S
C3502 C3503 1.372 . S
C3503 C3502 1.372 . S
C3503 C3504 1.400 . S
C3503 C3508 1.490 . S
C3504 H3494 0.930 . S
C3504 C3503 1.400 . S
C3504 C3507 1.386 . S
H3505 C3521 0.930 . S
H3506 C3522 0.931 . S
C3507 H3495 0.929 . S
C3507 C3501 1.390 . S
C3507 C3504 1.386 . S
C3508 C3503 1.490 . S
C3508 C3510 1.395 . S
C3508 C3511 1.403 . S
H3509 C3515 0.930 . S
C3510 H3496 0.930 . S
C3510 C3508 1.395 . S
C3510 C3513 1.403 . S
C3511 C3508 1.403 . S
C3511 C3512 1.524 . S
C3511 C3515 1.400 . S
C3512 H3497 0.960 . S
C3512 H3498 0.960 . S
C3512 H3499 0.960 . S
C3512 C3511 1.524 . S
C3513 C3510 1.403 . S
C3513 C3514 1.392 . S
C3513 C3517 1.495 . S
C3514 C3513 1.392 . S
C3514 C3515 1.385 . S
C3514 C3516 1.478 . S
C3515 H3509 0.930 . S
C3515 C3511 1.400 . S
C3515 C3514 1.385 . S
C3516 C3514 1.478 . S
C3516 C3518 1.381 . S
C3516 C3522 1.383 . S
C3517 C3513 1.495 . S
C3517 H3523 0.959 . S
C3517 H3524 0.961 . S
C3517 H3525 0.960 . S
C3518 C3516 1.381 . S
C3518 C3519 1.394 . S
C3518 H3526 0.930 . S
C3519 C3518 1.394 . S
C3519 C3520 1.383 . S
C3519 H3527 0.929 . S
C3520 C3519 1.383 . S
C3520 C3521 1.377 . S
C3521 H3505 0.930 . S
C3521 C3520 1.377 . S
C3521 C3522 1.379 . S
C3522 H3506 0.931 . S
C3522 C3516 1.383 . S
C3522 C3521 1.379 . S
H3523 C3517 0.959 . S
H3524 C3517 0.961 . S
H3525 C3517 0.960 . S
H3526 C3518 0.930 . S
H3527 C3519 0.929 . S
H3528 C3536 0.929 . S
H3529 C3538 0.930 . S
H3530 C3540 0.930 . S
H3531 C3543 0.929 . S
H3532 C3546 0.930 . S
H3533 C3548 0.960 . S
H3534 C3548 0.960 . S
H3535 C3548 0.960 . S
C3536 H3528 0.929 . S
C3536 C3537 1.377 . S
C3536 C3538 1.384 . S
C3537 C3536 1.377 . S
C3537 C3543 1.390 . S
C3538 H3529 0.930 . S
C3538 C3536 1.384 . S
C3538 C3539 1.372 . S
C3539 C3538 1.372 . S
C3539 C3540 1.400 . S
C3539 C3544 1.490 . S
C3540 H3530 0.930 . S
C3540 C3539 1.400 . S
C3540 C3543 1.386 . S
H3541 C3557 0.930 . S
H3542 C3558 0.931 . S
C3543 H3531 0.929 . S
C3543 C3537 1.390 . S
C3543 C3540 1.386 . S
C3544 C3539 1.490 . S
C3544 C3546 1.395 . S
C3544 C3547 1.403 . S
H3545 C3551 0.930 . S
C3546 H3532 0.930 . S
C3546 C3544 1.395 . S
C3546 C3549 1.403 . S
C3547 C3544 1.403 . S
C3547 C3548 1.524 . S
C3547 C3551 1.400 . S
C3548 H3533 0.960 . S
C3548 H3534 0.960 . S
C3548 H3535 0.960 . S
C3548 C3547 1.524 . S
C3549 C3546 1.403 . S
C3549 C3550 1.392 . S
C3549 C3553 1.495 . S
C3550 C3549 1.392 . S
C3550 C3551 1.385 . S
C3550 C3552 1.478 . S
C3551 H3545 0.930 . S
C3551 C3547 1.400 . S
C3551 C3550 1.385 . S
C3552 C3550 1.478 . S
C3552 C3554 1.381 . S
C3552 C3558 1.383 . S
C3553 C3549 1.495 . S
C3553 H3559 0.959 . S
C3553 H3560 0.961 . S
C3553 H3561 0.960 . S
C3554 C3552 1.381 . S
C3554 C3555 1.394 . S
C3554 H3562 0.930 . S
C3555 C3554 1.394 . S
C3555 C3556 1.383 . S
C3555 H3563 0.929 . S
C3556 C3555 1.383 . S
C3556 C3557 1.377 . S
C3557 H3541 0.930 . S
C3557 C3556 1.377 . S
C3557 C3558 1.379 . S
C3558 H3542 0.931 . S
C3558 C3552 1.383 . S
C3558 C3557 1.379 . S
H3559 C3553 0.959 . S
H3560 C3553 0.961 . S
H3561 C3553 0.960 . S
H3562 C3554 0.930 . S
H3563 C3555 0.929 . S
H3564 C3572 0.929 . S
H3565 C3574 0.930 . S
H3566 C3576 0.930 . S
H3567 C3579 0.929 . S
H3568 C3582 0.930 . S
H3569 C3584 0.960 . S
H3570 C3584 0.960 . S
H3571 C3584 0.960 . S
C3572 H3564 0.929 . S
C3572 C3573 1.377 . S
C3572 C3574 1.384 . S
C3573 C3572 1.377 . S
C3573 C3579 1.390 . S
C3574 H3565 0.930 . S
C3574 C3572 1.384 . S
C3574 C3575 1.372 . S
C3575 C3574 1.372 . S
C3575 C3576 1.400 . S
C3575 C3580 1.490 . S
C3576 H3566 0.930 . S
C3576 C3575 1.400 . S
C3576 C3579 1.386 . S
H3577 C3593 0.930 . S
H3578 C3594 0.931 . S
C3579 H3567 0.929 . S
C3579 C3573 1.390 . S
C3579 C3576 1.386 . S
C3580 C3575 1.490 . S
C3580 C3582 1.395 . S
C3580 C3583 1.403 . S
H3581 C3587 0.930 . S
C3582 H3568 0.930 . S
C3582 C3580 1.395 . S
C3582 C3585 1.403 . S
C3583 C3580 1.403 . S
C3583 C3584 1.524 . S
C3583 C3587 1.400 . S
C3584 H3569 0.960 . S
C3584 H3570 0.960 . S
C3584 H3571 0.960 . S
C3584 C3583 1.524 . S
C3585 C3582 1.403 . S
C3585 C3586 1.392 . S
C3585 C3589 1.495 . S
C3586 C3585 1.392 . S
C3586 C3587 1.385 . S
C3586 C3588 1.478 . S
C3587 H3581 0.930 . S
C3587 C3583 1.400 . S
C3587 C3586 1.385 . S
C3588 C3586 1.478 . S
C3588 C3590 1.381 . S
C3588 C3594 1.383 . S
C3589 C3585 1.495 . S
C3589 H3595 0.959 . S
C3589 H3596 0.961 . S
C3589 H3597 0.960 . S
C3590 C3588 1.381 . S
C3590 C3591 1.394 . S
C3590 H3598 0.930 . S
C3591 C3590 1.394 . S
C3591 C3592 1.383 . S
C3591 H3599 0.929 . S
C3592 C3591 1.383 . S
C3592 C3593 1.377 . S
C3593 H3577 0.930 . S
C3593 C3592 1.377 . S
C3593 C3594 1.379 . S
C3594 H3578 0.931 . S
C3594 C3588 1.383 . S
C3594 C3593 1.379 . S
H3595 C3589 0.959 . S
H3596 C3589 0.961 . S
H3597 C3589 0.960 . S
H3598 C3590 0.930 . S
H3599 C3591 0.929 . S
H3600 C3608 0.913 1_455 S
H3601 C3610 0.930 1_455 S
H3602 C3612 0.930 . S
H3603 C3615 0.929 . S
H3604 C3618 0.930 . S
H3605 C3620 0.960 . S
H3606 C3620 0.960 . S
H3607 C3620 0.960 . S
C3608 H3600 0.913 1_655 S
C3608 C3609 1.377 . S
C3608 C3610 1.384 . S
C3609 C3608 1.377 . S
C3609 C3615 1.390 . S
C3610 H3601 0.930 1_655 S
C3610 C3608 1.384 . S
C3610 C3611 1.372 . S
C3611 C3610 1.372 . S
C3611 C3612 1.400 . S
C3611 C3616 1.490 . S
C3612 H3602 0.930 . S
C3612 C3611 1.400 . S
C3612 C3615 1.386 . S
H3613 C3629 0.930 . S
H3614 C3630 0.931 . S
C3615 H3603 0.929 . S
C3615 C3609 1.390 . S
C3615 C3612 1.386 . S
C3616 C3611 1.490 . S
C3616 C3618 1.395 1_655 S
C3616 C3619 1.403 . S
H3617 C3623 0.930 . S
C3618 H3604 0.930 . S
C3618 C3616 1.395 1_455 S
C3618 C3621 1.403 . S
C3619 C3616 1.403 . S
C3619 C3620 1.524 . S
C3619 C3623 1.400 . S
C3620 H3605 0.960 . S
C3620 H3606 0.960 . S
C3620 H3607 0.960 . S
C3620 C3619 1.524 . S
C3621 C3618 1.403 . S
C3621 C3622 1.392 1_455 S
C3621 C3625 1.495 . S
C3622 C3621 1.392 1_655 S
C3622 C3623 1.385 . S
C3622 C3624 1.478 . S
C3623 H3617 0.930 . S
C3623 C3619 1.400 . S
C3623 C3622 1.385 . S
C3624 C3622 1.478 . S
C3624 C3626 1.381 1_655 S
C3624 C3630 1.383 . S
C3625 C3621 1.495 . S
C3625 H3631 0.959 . S
C3625 H3632 0.961 . S
C3625 H3633 0.960 . S
C3626 C3624 1.381 1_455 S
C3626 C3627 1.394 . S
C3626 H3634 0.930 . S
C3627 C3626 1.394 . S
C3627 C3628 1.383 1_455 S
C3627 H3635 0.929 . S
C3628 C3627 1.383 1_655 S
C3628 C3629 1.377 . S
C3629 H3613 0.930 . S
C3629 C3628 1.377 . S
C3629 C3630 1.379 . S
C3630 H3614 0.931 . S
C3630 C3624 1.383 . S
C3630 C3629 1.379 . S
H3631 C3625 0.959 . S
H3632 C3625 0.961 . S
H3633 C3625 0.960 . S
H3634 C3626 0.930 . S
H3635 C3627 0.929 . S
H3636 C3644 0.929 . S
H3637 C3646 0.930 . S
H3638 C3648 0.930 . S
H3639 C3651 0.929 . S
H3640 C3654 0.930 . S
H3641 C3656 0.960 . S
H3642 C3656 0.960 . S
H3643 C3656 0.960 . S
C3644 H3636 0.929 . S
C3644 C3645 1.377 . S
C3644 C3646 1.384 . S
C3645 C3644 1.377 . S
C3645 C3651 1.390 . S
C3646 H3637 0.930 . S
C3646 C3644 1.384 . S
C3646 C3647 1.372 . S
C3647 C3646 1.372 . S
C3647 C3648 1.400 . S
C3647 C3652 1.490 . S
C3648 H3638 0.930 . S
C3648 C3647 1.400 . S
C3648 C3651 1.386 . S
H3649 C3665 0.930 . S
H3650 C3666 0.931 . S
C3651 H3639 0.929 . S
C3651 C3645 1.390 . S
C3651 C3648 1.386 . S
C3652 C3647 1.490 . S
C3652 C3654 1.395 . S
C3652 C3655 1.403 . S
H3653 C3659 0.930 . S
C3654 H3640 0.930 . S
C3654 C3652 1.395 . S
C3654 C3657 1.403 . S
C3655 C3652 1.403 . S
C3655 C3656 1.524 . S
C3655 C3659 1.400 . S
C3656 H3641 0.960 . S
C3656 H3642 0.960 . S
C3656 H3643 0.960 . S
C3656 C3655 1.524 . S
C3657 C3654 1.403 . S
C3657 C3658 1.392 . S
C3657 C3661 1.495 . S
C3658 C3657 1.392 . S
C3658 C3659 1.385 . S
C3658 C3660 1.478 . S
C3659 H3653 0.930 . S
C3659 C3655 1.400 . S
C3659 C3658 1.385 . S
C3660 C3658 1.478 . S
C3660 C3662 1.381 . S
C3660 C3666 1.383 . S
C3661 C3657 1.495 . S
C3661 H3667 0.959 . S
C3661 H3668 0.961 . S
C3661 H3669 0.960 . S
C3662 C3660 1.381 . S
C3662 C3663 1.394 . S
C3662 H3670 0.930 . S
C3663 C3662 1.394 . S
C3663 C3664 1.383 . S
C3663 H3671 0.929 . S
C3664 C3663 1.383 . S
C3664 C3665 1.377 . S
C3665 H3649 0.930 . S
C3665 C3664 1.377 . S
C3665 C3666 1.379 . S
C3666 H3650 0.931 . S
C3666 C3660 1.383 . S
C3666 C3665 1.379 . S
H3667 C3661 0.959 . S
H3668 C3661 0.961 . S
H3669 C3661 0.960 . S
H3670 C3662 0.930 . S
H3671 C3663 0.929 . S
H3672 C3680 0.929 . S
H3673 C3682 0.930 . S
H3674 C3684 0.930 1_565 S
H3675 C3687 0.929 1_565 S
H3676 C3690 0.930 . S
H3677 C3692 0.960 . S
H3678 C3692 0.960 . S
H3679 C3692 0.960 . S
C3680 H3672 0.929 . S
C3680 C3681 1.377 . S
C3680 C3682 1.384 . S
C3681 C3680 1.377 . S
C3681 C3687 1.390 . S
C3682 H3673 0.930 . S
C3682 C3680 1.384 . S
C3682 C3683 1.372 . S
C3683 C3682 1.372 . S
C3683 C3684 1.400 . S
C3683 C3688 1.490 . S
C3684 H3674 0.930 1_545 S
C3684 C3683 1.400 . S
C3684 C3687 1.386 . S
H3685 C3701 0.930 . S
H3686 C3702 0.931 . S
C3687 H3675 0.929 1_545 S
C3687 C3681 1.390 . S
C3687 C3684 1.386 . S
C3688 C3683 1.490 . S
C3688 C3690 1.395 . S
C3688 C3691 1.403 1_545 S
H3689 C3695 0.930 . S
C3690 H3676 0.930 . S
C3690 C3688 1.395 . S
C3690 C3693 1.403 . S
C3691 C3688 1.403 1_565 S
C3691 C3692 1.524 . S
C3691 C3695 1.400 . S
C3692 H3677 0.960 . S
C3692 H3678 0.960 . S
C3692 H3679 0.960 . S
C3692 C3691 1.524 . S
C3693 C3690 1.403 . S
C3693 C3694 1.392 . S
C3693 C3697 1.495 . S
C3694 C3693 1.392 . S
C3694 C3695 1.385 1_545 S
C3694 C3696 1.478 . S
C3695 H3689 0.930 . S
C3695 C3691 1.400 . S
C3695 C3694 1.385 1_565 S
C3696 C3694 1.478 . S
C3696 C3698 1.381 . S
C3696 C3702 1.383 1_545 S
C3697 C3693 1.495 . S
C3697 H3703 0.959 . S
C3697 H3704 0.961 . S
C3697 H3705 0.960 . S
C3698 C3696 1.381 . S
C3698 C3699 1.394 . S
C3698 H3706 0.930 . S
C3699 C3698 1.394 . S
C3699 C3700 1.383 . S
C3699 H3707 0.929 . S
C3700 C3699 1.383 . S
C3700 C3701 1.377 1_545 S
C3701 H3685 0.930 . S
C3701 C3700 1.377 1_565 S
C3701 C3702 1.379 . S
C3702 H3686 0.931 . S
C3702 C3696 1.383 1_565 S
C3702 C3701 1.379 . S
H3703 C3697 0.959 . S
H3704 C3697 0.961 . S
H3705 C3697 0.960 . S
H3706 C3698 0.930 . S
H3707 C3699 0.929 . S
C1125 C13 1.419 . S
C1144 C729 1.477 . S
C1161 C27 1.323 . S
C1180 C777 1.411 . S
C1216 C825 1.447 . S
C1197 C36 1.362 . S
C1233 C41 1.406 . S
C1252 C849 1.463 . S
C1269 C8 1.486 . S
C1288 C921 1.591 . S
C1305 C22 1.427 . S
C1324 C969 1.494 . S
C1341 C55 1.416 . S
C1360 C897 1.482 . S
C1396 C945 1.406 . S
C1377 C69 1.331 . S
C1432 C873 1.484 . S
C1413 C78 1.388 . S
C1449 C83 1.396 . S
C1468 C801 1.458 . S
C1504 C705 1.604 . S
C1485 C50 1.511 . S
C1521 C64 1.430 . S
C1540 C753 1.502 . S
C1557 C97 1.543 . S
C1576 C1017 1.657 . S
C1593 C111 1.384 . S
C1612 C1065 1.464 . S
C1648 C1089 1.586 . S
C1629 C120 1.511 . S
C1665 C125 1.464 . S
C1684 C273 1.534 . S
C1701 C92 1.667 . S
C1720 C345 1.730 . S
C1737 C106 1.480 . S
C1756 C393 1.543 . S
C1773 C139 1.495 . S
C1792 C321 1.588 . S
C1809 C153 1.374 . S
C1828 C369 1.451 . S
C1864 C297 1.573 . S
C1845 C162 1.513 . S
C1900 C1113 1.588 . S
C1881 C167 1.518 . S
C1936 C993 1.729 . S
C1917 C134 1.667 . S
C1972 C1041 1.568 . S
C1953 C148 1.512 . S
C1989 C181 1.486 . S
C2008 C441 1.594 . S
C2025 C195 1.372 . S
C2044 C489 1.427 . S
C2061 C204 1.524 . S
C2080 C513 1.570 . S
C2097 C209 1.511 . S
C2116 C561 1.618 . S
C2152 C633 1.747 . S
C2133 C176 1.670 . S
C2188 C681 1.563 . S
C2169 C190 1.512 . S
C2224 C609 1.662 . S
C2205 C223 1.561 . S
C2260 C657 1.486 . S
C2241 C237 1.395 . S
C2277 C246 1.510 . S
C2296 C585 1.536 . S
C2332 C537 1.496 . S
C2313 C251 1.442 . S
C2349 C218 1.673 . S
C2368 C417 1.741 . S
C2404 C465 1.568 . S
C2385 C232 1.486 . S
C2440 C282 1.426 . S
C2421 C11 1.412 . S
C2457 C25 1.266 . S
C2476 C336 1.272 . S
C2512 C384 1.386 . S
C2493 C35 1.412 . S
C2548 C432 1.394 . S
C2529 C39 1.413 1_556 S
C2584 C480 1.492 . S
C2565 C7 1.524 1_556 S
C2620 C522 1.359 . S
C2601 C21 1.360 1_556 S
C2637 C53 1.425 1_556 S
C2656 C528 1.441 . S
C2673 C67 1.242 1_556 S
C2692 C426 1.237 . S
C2709 C77 1.367 1_556 S
C2728 C474 1.361 . S
C2745 C81 1.432 . S
C2764 C330 1.405 . S
C2800 C378 1.469 . S
C2781 C49 1.513 . S
C2817 C63 1.363 . S
C2836 C288 1.337 . S
C2872 C570 1.383 . S
C2853 C95 1.381 . S
C2889 C109 1.363 . S
C2908 C624 1.369 . S
C2925 C119 1.485 . S
C2944 C672 1.469 . S
C2980 C720 1.215 . S
C2961 C123 1.215 . S
C2997 C91 1.476 . S
C3016 C768 1.466 . S
C3033 C105 1.208 . S
C3052 C816 1.201 . S
C3069 C137 1.253 . S
C3088 C810 1.233 . S
C3105 C151 1.100 . S
C3124 C714 1.107 . S
C3160 C762 1.352 . S
C3141 C161 1.373 . S
C3177 C165 1.404 . S
C3196 C618 1.368 . S
C3213 C133 1.564 . S
C3232 C666 1.550 . S
C3268 C576 1.455 . S
C3249 C147 1.473 . S
C3304 C858 1.265 . S
C3285 C179 1.269 . S
C3321 C193 1.089 . S
C3340 C912 1.096 . S
C3357 C203 1.370 . S
C3376 C960 1.341 . S
C3412 C1008 1.396 . S
C3393 C207 1.387 . S
C3448 C1056 1.528 . S
C3429 C175 1.628 . S
C3465 C189 1.475 . S
C3484 C1098 1.473 . S
C3501 C221 1.395 . S
C3520 C1104 1.393 . S
C3537 C235 1.361 . S
C3556 C1002 1.356 . S
C3592 C1050 1.432 . S
C3573 C245 1.464 . S
C3628 C906 1.201 . S
C3609 C249 1.194 . S
C3664 C954 1.445 . S
C3645 C217 1.486 . S
C3681 C231 1.230 . S
C3700 C864 1.210 . S
