# Generated by pormake.
# Topology pth, (4,4)-cn, num edge types: 1
# Building blocks:
#     Node 0, Type 0, BuildingBlock: QUQFOY_clean_sbu_3, # of connection points: 4
#     Node 1, Type 0, BuildingBlock: QUQFOY_clean_sbu_3, # of connection points: 4
#     Node 2, Type 0, BuildingBlock: QUQFOY_clean_sbu_3, # of connection points: 4
#     Node 3, Type 1, BuildingBlock: MUDLON_clean_linker_0, # of connection points: 4
#     Node 4, Type 1, BuildingBlock: MUDLON_clean_linker_0, # of connection points: 4
#     Node 5, Type 1, BuildingBlock: MUDLON_clean_linker_0, # of connection points: 4
#     Edge 6, Type (0, 1), BuildingBlock: EZIPEK_clean_linker_0, # of connection points: 2
#     Edge 7, Type (0, 1), BuildingBlock: EZIPEK_clean_linker_0, # of connection points: 2
#     Edge 8, Type (0, 1), BuildingBlock: EZIPEK_clean_linker_0, # of connection points: 2
#     Edge 9, Type (0, 1), BuildingBlock: EZIPEK_clean_linker_0, # of connection points: 2
#     Edge 10, Type (0, 1), BuildingBlock: EZIPEK_clean_linker_0, # of connection points: 2
#     Edge 11, Type (0, 1), BuildingBlock: EZIPEK_clean_linker_0, # of connection points: 2
#     Edge 12, Type (0, 1), BuildingBlock: EZIPEK_clean_linker_0, # of connection points: 2
#     Edge 13, Type (0, 1), BuildingBlock: EZIPEK_clean_linker_0, # of connection points: 2
#     Edge 14, Type (0, 1), BuildingBlock: EZIPEK_clean_linker_0, # of connection points: 2
#     Edge 15, Type (0, 1), BuildingBlock: EZIPEK_clean_linker_0, # of connection points: 2
#     Edge 16, Type (0, 1), BuildingBlock: EZIPEK_clean_linker_0, # of connection points: 2
#     Edge 17, Type (0, 1), BuildingBlock: EZIPEK_clean_linker_0, # of connection points: 2
# Relax obj value: 0.040
# Max RMSD: 0.099
# Mean RMSD: 0.090
data_MOF--net-pth--node1-QUQFOY_clean_sbu_3--node2-MUDLON_clean_linker_0--edge1-EZIPEK_clean_linker_0
_symmetry_space_group_name_H-M    P1
_symmetry_Int_Tables_number       1
_symmetry_cell_setting            triclinic
loop_
_symmetry_equiv_pos_as_xyz
'x, y, z'
_cell_length_a     27.366568
_cell_length_b     27.126976
_cell_length_c     56.574062
_cell_angle_alpha  90.372672
_cell_angle_beta   90.44141
_cell_angle_gamma 121.01618
loop_
_atom_site_label
_atom_site_type_symbol
_atom_site_fract_x
_atom_site_fract_y
_atom_site_fract_z
_atom_type_partial_charge
C0 C 0.98813 0.10063 0.05876 0.0
O1 O 0.96096 0.10374 0.04111 0.0
Cd2 Cd 0.94461 0.04901 0.00553 0.0
O3 O 0.00517 0.06489 0.05904 0.0
Cd4 Cd 0.00094 0.98648 0.0345 0.0
C5 C 0.08505 0.08677 -0.0042 0.0
O6 O 0.90747 0.95151 0.01611 0.0
O7 O 0.95995 0.92214 0.00049 0.0
O8 O 0.97672 0.93675 0.07178 0.0
C9 C 0.91289 0.92055 0.0007 0.0
O10 O 0.04032 0.08771 0.99033 0.0
C11 C 0.00362 0.91072 0.06854 0.0
O12 O 0.08556 0.05572 0.01252 0.0
O13 O 0.03223 0.92199 0.04967 0.0
C14 C 0.12427 0.03 0.38874 0.0
O15 O 0.15062 0.05457 0.37001 0.0
Cd16 Cd 0.10338 0.05759 0.3346 0.0
O17 O 0.07042 0.00732 0.38998 0.0
Cd18 Cd 0.99009 -0.00204 0.36587 0.0
C19 C 0.00335 0.91344 0.32586 0.0
O20 O 0.04236 0.09116 0.34678 0.0
O21 O 0.95815 0.03215 0.33256 0.0
O22 O 0.96099 0.02677 0.40101 0.0
C23 C 0.00253 0.08187 0.33253 0.0
O24 O 0.04724 0.95945 0.31892 0.0
C25 C 0.90985 0.985 0.40067 0.0
O26 O 0.9762 0.91345 0.34405 0.0
O27 O 0.89554 0.94747 0.38433 0.0
C28 C 0.93222 0.07777 0.67458 0.0
O29 O 0.92939 0.10021 0.6939 0.0
Cd30 Cd 0.98246 0.10692 0.72892 0.0
O31 O 0.96422 0.05663 0.67276 0.0
Cd32 Cd 0.03123 0.04202 0.69719 0.0
C33 C 0.92911 0.96223 0.73669 0.0
O34 O 0.07707 0.13482 0.71765 0.0
O35 O 0.0976 0.07301 0.7308 0.0
O36 O 0.07124 0.9878 0.6791 0.0
C37 C 0.10519 0.12314 0.73209 0.0
O38 O 0.93486 0.00963 0.74369 0.0
C39 C 0.09616 0.02409 0.66279 0.0
O40 O 0.95609 0.95954 0.71894 0.0
O41 O 0.08966 0.06709 0.66225 0.0
H42 H 0.89674 0.71025 0.2023 0.0
N43 N 0.92737 0.63083 0.19705 0.0
H44 H 0.91107 0.77055 0.23684 0.0
H45 H 0.95524 0.61525 0.24292 0.0
H46 H 0.96665 0.67418 0.27749 0.0
H47 H 0.02315 0.73833 0.19358 0.0
H48 H 0.04567 0.80439 0.16059 0.0
H49 H 0.87993 0.60499 0.15402 0.0
H50 H 0.90522 0.66978 0.12021 0.0
H51 H 0.86653 0.51759 0.19103 0.0
H52 H 0.03725 0.65812 0.20513 0.0
H53 H 0.90022 0.44988 0.19193 0.0
H54 H 0.07132 0.59076 0.20712 0.0
H55 H 0.96829 0.25011 0.21064 0.0
H56 H 0.95428 0.18737 0.24388 0.0
H57 H 0.12151 0.31097 0.27116 0.0
H58 H 0.136 0.37438 0.23758 0.0
H59 H 0.14016 0.33527 0.17874 0.0
H60 H 0.12312 0.2756 0.14313 0.0
H61 H 0.95103 0.24135 0.13843 0.0
H62 H 0.9678 0.30068 0.17384 0.0
H63 H 0.96404 0.33681 0.21822 0.0
H64 H 0.93326 0.40601 0.21808 0.0
H65 H 0.08963 0.52914 0.18386 0.0
N66 N 0.06557 0.35317 0.20111 0.0
H67 H 0.12166 0.46004 0.18523 0.0
C68 C 0.92963 0.66101 0.21889 0.0
C69 C 0.91302 0.70235 0.21843 0.0
C70 C 0.92058 0.73652 0.23824 0.0
C71 C 0.94189 0.72812 0.25944 0.0
C72 C 0.95192 0.68247 0.261 0.0
C73 C 0.94592 0.64919 0.24097 0.0
C74 C 0.94838 0.66721 0.1765 0.0
C75 C -0.00259 0.72279 0.17759 0.0
C76 C 0.01047 0.76043 0.15873 0.0
C77 C 0.97653 0.74227 0.13811 0.0
C78 C 0.93147 0.68485 0.1361 0.0
C79 C 0.91703 0.64795 0.1553 0.0
C80 C 0.94913 0.59248 0.19815 0.0
C81 C 0.91124 0.53359 0.19453 0.0
C82 C 0.93062 0.49504 0.19524 0.0
C83 C 0.98851 0.51469 0.1998 0.0
C84 C 0.02663 0.5741 0.20327 0.0
C85 C 0.00725 0.61271 0.20226 0.0
C86 C 0.05365 0.31719 0.22153 0.0
C87 C 0.00197 0.26429 0.22374 0.0
C88 C -0.00623 0.22843 0.24275 0.0
C89 C 0.03688 0.24473 0.25983 0.0
C90 C 0.08779 0.29798 0.25809 0.0
C91 C 0.09601 0.33396 0.23905 0.0
C92 C 0.05563 0.32276 0.1789 0.0
C93 C 0.09911 0.3156 0.16979 0.0
C94 C 0.08939 0.28162 0.14963 0.0
C95 C 0.03586 0.25427 0.13832 0.0
C96 C -0.00739 0.26236 0.14699 0.0
C97 C 0.00233 0.29637 0.16714 0.0
C98 C 0.04594 0.39343 0.20197 0.0
C99 C -0.00766 0.37877 0.21099 0.0
C100 C 0.9743 0.41843 0.21062 0.0
C101 C 0.00878 0.47327 0.20088 0.0
C102 C 0.06229 0.48774 0.19187 0.0
C103 C 0.08059 0.44825 0.1925 0.0
H104 H 0.83761 0.14993 0.53971 0.0
N105 N 0.72874 0.0843 0.52733 0.0
H106 H 0.88449 0.14525 0.57607 0.0
H107 H 0.67675 0.01031 0.56404 0.0
H108 H 0.72309 0.00751 0.60099 0.0
H109 H 0.70459 0.97352 0.52275 0.0
H110 H 0.73808 0.93614 0.49097 0.0
H111 H 0.77897 0.13675 0.48767 0.0
H112 H 0.81279 0.09967 0.45602 0.0
H113 H 0.71059 0.16734 0.54025 0.0
H114 H 0.62277 0.98947 0.51798 0.0
H115 H 0.61976 0.16334 0.54302 0.0
H116 H 0.5319 0.98583 0.51921 0.0
H117 H 0.36384 0.14898 0.56554 0.0
H118 H 0.29871 0.12721 0.59881 0.0
H119 H 0.21264 0.94684 0.58047 0.0
H120 H 0.27781 0.96846 0.5474 0.0
H121 H 0.30172 0.97563 0.5075 0.0
H122 H 0.24219 0.95874 0.47202 0.0
H123 H 0.29132 0.13757 0.47275 0.0
H124 H 0.34839 0.15351 0.50883 0.0
H125 H 0.46062 0.16107 0.5206 0.0
H126 H 0.5495 0.16095 0.51878 0.0
H127 H 0.4617 0.9854 0.54334 0.0
N128 N 0.35905 0.07609 0.53286 0.0
H129 H 0.37229 0.98525 0.54366 0.0
C130 C 0.75382 0.08123 0.54933 0.0
C131 C 0.81243 0.11877 0.55303 0.0
C132 C 0.83903 0.11602 0.57367 0.0
C133 C 0.80716 0.07619 0.5912 0.0
C134 C 0.74831 0.03856 0.58764 0.0
C135 C 0.72188 0.04042 0.56667 0.0
C136 C 0.73952 0.05805 0.50744 0.0
C137 C 0.72696 0.00079 0.50796 0.0
C138 C 0.74608 0.97955 0.48993 0.0
C139 C 0.7782 0.01544 0.47136 0.0
C140 C 0.78811 0.0715 0.47027 0.0
C141 C 0.76883 0.09256 0.4882 0.0
C142 C 0.67378 0.07935 0.52853 0.0
C143 C 0.67161 0.12762 0.53569 0.0
C144 C 0.61959 0.12525 0.53707 0.0
C145 C 0.56826 0.07448 0.53096 0.0
C146 C 0.57038 0.02556 0.52419 0.0
C147 C 0.62258 0.02777 0.52319 0.0
C148 C 0.32572 0.06061 0.55401 0.0
C149 C 0.33174 0.10469 0.56904 0.0
C150 C 0.29468 0.09231 0.58789 0.0
C151 C 0.25098 0.03552 0.59191 0.0
C152 C 0.24628 0.99089 0.57756 0.0
C153 C 0.2835 0.00332 0.55871 0.0
C154 C 0.32849 0.06572 0.51089 0.0
C155 C 0.29937 0.011 0.50007 0.0
C156 C 0.26586 0.0015 0.4798 0.0
C157 C 0.26238 0.04694 0.46986 0.0
C158 C 0.29346 0.10202 0.4802 0.0
C159 C 0.32592 0.11115 0.50065 0.0
C160 C 0.41027 0.07372 0.53257 0.0
C161 C 0.46079 0.12267 0.52557 0.0
C162 C 0.5116 0.12253 0.52475 0.0
C163 C 0.51325 0.07342 0.53127 0.0
C164 C 0.46212 0.0239 0.53805 0.0
C165 C 0.41093 0.02387 0.53849 0.0
H166 H 0.68783 0.84812 0.88055 0.0
N167 N 0.65442 0.74766 0.85972 0.0
H168 H 0.748 0.88845 0.91625 0.0
H169 H 0.69467 0.69356 0.88741 0.0
H170 H 0.75499 0.73394 0.92302 0.0
H171 H 0.73108 0.71553 0.84729 0.0
H172 H 0.79646 0.7526 0.81395 0.0
H173 H 0.65569 0.81386 0.82526 0.0
H174 H 0.72298 0.85301 0.79243 0.0
H175 H 0.55563 0.72909 0.87527 0.0
H176 H 0.63703 0.64095 0.84778 0.0
H177 H 0.4675 0.63693 0.88044 0.0
H178 H 0.54877 0.54924 0.85169 0.0
H179 H 0.2268 0.36334 0.91134 0.0
H180 H 0.19118 0.29236 0.94312 0.0
H181 H 0.29298 0.22443 0.91742 0.0
H182 H 0.32721 0.2941 0.88527 0.0
H183 H 0.34337 0.33159 0.84564 0.0
H184 H 0.30129 0.27331 0.80953 0.0
H185 H 0.14874 0.2799 0.81975 0.0
H186 H 0.19058 0.33757 0.85602 0.0
H187 H 0.3031 0.4692 0.86385 0.0
H188 H 0.39157 0.56117 0.85895 0.0
H189 H 0.48783 0.48246 0.88011 0.0
N190 N 0.29108 0.36948 0.87548 0.0
H191 H 0.39942 0.3904 0.88374 0.0
C192 C 0.68698 0.76819 0.88137 0.0
C193 C 0.70192 0.82285 0.8899 0.0
C194 C 0.73596 0.84565 0.91017 0.0
C195 C 0.75552 0.81392 0.92216 0.0
C196 C 0.73987 0.75872 0.91396 0.0
C197 C 0.70574 0.73589 0.89366 0.0
C198 C 0.68796 0.76166 0.83862 0.0
C199 C 0.72746 0.74384 0.83499 0.0
C200 C 0.76501 0.76515 0.81603 0.0
C201 C 0.76479 0.80588 0.80093 0.0
C202 C 0.72377 0.82163 0.80393 0.0
C203 C 0.68552 0.79943 0.82258 0.0
C204 C 0.60272 0.69233 0.86089 0.0
C205 C 0.55411 0.68987 0.86999 0.0
C206 C 0.50378 0.63715 0.87282 0.0
C207 C 0.50084 0.58552 0.86638 0.0
C208 C 0.54966 0.58804 0.85714 0.0
C209 C 0.60027 0.64085 0.85459 0.0
C210 C 0.27961 0.33426 0.89601 0.0
C211 C 0.2424 0.33402 0.9129 0.0
C212 C 0.22216 0.29364 0.93094 0.0
C213 C 0.23919 0.25304 0.93241 0.0
C214 C 0.27945 0.25551 0.91649 0.0
C215 C 0.29907 0.29546 0.8982 0.0
C216 C 0.26967 0.33852 0.85349 0.0
C217 C 0.30104 0.32074 0.84006 0.0
C218 C 0.27726 0.28781 0.81947 0.0
C219 C 0.22214 0.27267 0.81209 0.0
C220 C 0.19144 0.2915 0.82521 0.0
C221 C 0.2151 0.32414 0.84579 0.0
C222 C 0.3444 0.42319 0.87442 0.0
C223 C 0.34342 0.47212 0.86754 0.0
C224 C 0.39403 0.52462 0.86487 0.0
C225 C 0.44698 0.52942 0.86924 0.0
C226 C 0.4479 0.48022 0.87629 0.0
C227 C 0.39712 0.42746 0.87867 0.0
C228 C 0.03647 0.20012 0.07618 0.0
C229 C 0.00097 0.13985 0.0792 0.0
C230 C -0.00643 0.15465 0.12148 0.0
C231 C 0.02424 0.21498 0.11795 0.0
N232 N 0.06832 0.2957 0.09166 0.0
N233 N 0.93847 0.05959 0.10369 0.0
C234 C 0.04388 0.23793 0.0952 0.0
C235 C 0.97764 0.11697 0.1016 0.0
N236 N 0.06502 0.2211 0.05548 0.0
N237 N 0.98095 0.13344 0.1439 0.0
H238 H 0.92538 0.0306 0.08951 0.0
H239 H 0.91527 0.04146 0.11897 0.0
H240 H 0.99141 0.15968 0.15892 0.0
H241 H 0.96436 0.09025 0.14781 0.0
H242 H 0.0962 0.2641 0.05313 0.0
H243 H 0.06141 0.19474 0.04124 0.0
H244 H 0.0777 0.31422 0.07499 0.0
H245 H 0.07514 0.32482 0.10526 0.0
C246 C 0.88452 0.98323 0.443 0.0
C247 C 0.86944 0.98121 0.41884 0.0
C248 C 0.78511 0.9849 0.43024 0.0
C249 C 0.80573 -0.00326 0.45389 0.0
N250 N 0.87808 0.01255 0.48277 0.0
N251 N 0.80787 0.98501 0.38896 0.0
C252 C 0.85593 -0.00328 0.46037 0.0
C253 C 0.81984 0.98241 0.41227 0.0
N254 N 0.92565 0.97132 0.44934 0.0
N255 N 0.73227 0.97597 0.42505 0.0
H256 H 0.83232 0.98383 0.37519 0.0
H257 H 0.77621 0.9928 0.38328 0.0
H258 H 0.70603 0.97775 0.4379 0.0
H259 H 0.71241 0.96164 0.40858 0.0
H260 H 0.93475 0.96669 0.46681 0.0
H261 H 0.94669 0.96022 0.43703 0.0
H262 H 0.91813 0.02002 0.48765 0.0
H263 H 0.85852 0.02262 0.49613 0.0
C264 C 0.8362 0.87004 0.74265 0.0
C265 C 0.89208 0.91065 0.7507 0.0
C266 C 0.8669 0.87715 0.79121 0.0
C267 C 0.81056 0.8366 0.78336 0.0
N268 N 0.74556 0.78403 0.75123 0.0
N269 N 0.96558 0.94006 0.78033 0.0
C270 C 0.79658 0.82951 0.75886 0.0
C271 C 0.90903 0.90958 0.77426 0.0
N272 N 0.82024 0.87225 0.71992 0.0
N273 N 0.8794 0.88785 0.81482 0.0
H274 H -0.0028 0.96308 0.76792 0.0
H275 H 0.98127 0.93732 0.79679 0.0
H276 H 0.84968 0.86651 0.82803 0.0
H277 H 0.9181 0.92156 0.82133 0.0
H278 H 0.77829 0.84845 0.71374 0.0
H279 H 0.84884 0.90028 0.70748 0.0
H280 H 0.73477 0.77359 0.73346 0.0
H281 H 0.71601 0.75361 0.76279 0.0
C282 C 0.04549 0.86253 0.0928 0.0
C283 C -0.00237 0.86603 0.08533 0.0
C284 C 0.93871 0.79361 0.11436 0.0
C285 C 0.98427 0.78466 0.1197 0.0
N286 N 0.07776 0.80249 0.11003 0.0
N287 N 0.89474 0.8203 0.08405 0.0
C288 C 0.03679 0.81666 0.10771 0.0
C289 C 0.94301 0.82724 0.09463 0.0
N290 N 0.09939 0.9042 0.08675 0.0
N291 N 0.89218 0.77218 0.12861 0.0
H292 H 0.89522 0.84051 0.06836 0.0
H293 H 0.8539 0.78886 0.0892 0.0
H294 H 0.88845 0.75006 0.14413 0.0
H295 H 0.86046 0.78226 0.12641 0.0
H296 H 0.13582 0.90631 0.09368 0.0
H297 H 0.10809 0.94001 0.07683 0.0
H298 H 0.11458 0.82099 0.09992 0.0
H299 H 0.0723 0.76829 0.12033 0.0
C300 C 0.14866 0.04905 0.43209 0.0
C301 C 0.157 0.03017 0.40981 0.0
C302 C 0.2358 0.02293 0.42674 0.0
C303 C 0.22402 0.03698 0.44935 0.0
N304 N 0.15932 0.04793 0.47452 0.0
N305 N 0.19891 0.98517 0.38754 0.0
C306 C 0.17719 0.04503 0.45233 0.0
C307 C 0.19778 0.01294 0.40758 0.0
N308 N 0.11644 0.07415 0.43385 0.0
N309 N 0.28433 0.02135 0.42328 0.0
H310 H 0.17024 0.97494 0.37348 0.0
H311 H 0.22416 0.96688 0.38593 0.0
H312 H 0.31366 0.02906 0.43679 0.0
H313 H 0.29795 0.0174 0.40661 0.0
H314 H 0.1139 0.09363 0.44935 0.0
H315 H 0.09735 0.08141 0.41935 0.0
H316 H 0.12194 0.04814 0.47762 0.0
H317 H 0.17848 0.04397 0.48983 0.0
C318 C 0.18353 0.21751 0.74852 0.0
C319 C 0.13606 0.16163 0.7524 0.0
C320 C 0.15109 0.1763 0.79517 0.0
C321 C 0.19467 0.23409 0.79138 0.0
N322 N 0.24785 0.31284 0.76479 0.0
N323 N 0.06677 0.09256 0.77926 0.0
C324 C 0.2098 0.25565 0.76813 0.0
C325 C 0.11772 0.14214 0.77569 0.0
N326 N 0.20459 0.23344 0.72624 0.0
N327 N 0.14226 0.15369 0.81734 0.0
H328 H 0.03966 0.06761 0.76546 0.0
H329 H 0.04855 0.07939 0.79585 0.0
H330 H 0.166 0.17739 0.83212 0.0
H331 H 0.11515 0.11011 0.8207 0.0
H332 H 0.24269 0.27125 0.72265 0.0
H333 H 0.18642 0.2066 0.71147 0.0
H334 H 0.25585 0.33234 0.74834 0.0
H335 H 0.26839 0.34188 0.77874 0.0
C336 C 0.89961 0.12738 0.64674 0.0
C337 C 0.89818 0.07649 0.65379 0.0
C338 C 0.83946 0.02579 0.61891 0.0
C339 C 0.83596 0.07484 0.61336 0.0
N340 N 0.85117 0.16727 0.62548 0.0
N341 N 0.85454 0.97338 0.64967 0.0
C342 C 0.86244 0.1241 0.62838 0.0
C343 C 0.86455 0.02446 0.64077 0.0
N344 N 0.93852 0.17946 0.65656 0.0
N345 N 0.82099 0.98143 0.60298 0.0
H346 H 0.86987 0.97002 0.66614 0.0
H347 H 0.82589 0.93371 0.64189 0.0
H348 H 0.80354 0.98119 0.5865 0.0
H349 H 0.82809 0.9475 0.60522 0.0
H350 H 0.9448 0.21833 0.6503 0.0
H351 H 0.96886 0.18462 0.66915 0.0
H352 H 0.86513 0.20151 0.63741 0.0
H353 H 0.82297 0.16578 0.61258 0.0
C354 C 0.88998 0.91277 0.95748 0.0
C355 C 0.87173 0.89381 0.98084 0.0
C356 C 0.77543 0.82529 0.96591 0.0
C357 C 0.79546 0.84033 0.94247 0.0
N358 N 0.87363 0.89095 0.9156 0.0
N359 N 0.79964 0.82734 0.0074 0.0
C360 C 0.85333 0.8819 0.93816 0.0
C361 C 0.81502 0.84887 0.98513 0.0
N362 N 0.94125 0.96192 0.95379 0.0
N363 N 0.71845 0.78964 0.96978 0.0
H364 H 0.82745 0.8437 0.02192 0.0
H365 H 0.76087 0.7905 0.0112 0.0
H366 H 0.68842 0.77093 0.95608 0.0
H367 H 0.70034 0.78201 0.98647 0.0
H368 H 0.95416 0.98108 0.93733 0.0
H369 H 0.96858 0.98701 0.96752 0.0
H370 H 0.91679 0.91601 0.91168 0.0
H371 H 0.84803 0.86938 0.90089 0.0
C372 C 0.92757 0.82555 0.30356 0.0
C373 C 0.98453 0.8595 0.31224 0.0
C374 C 0.01338 0.80533 0.28713 0.0
C375 C 0.95589 0.7692 0.2795 0.0
N376 N 0.85637 0.73499 0.28557 0.0
N377 N 0.07661 0.86921 0.31788 0.0
C378 C 0.9123 0.776 0.28948 0.0
C379 C 0.0258 0.84525 0.30584 0.0
N380 N 0.88896 0.84238 0.30727 0.0
N381 N 0.05668 0.80438 0.27567 0.0
H382 H 0.08632 0.89711 0.33229 0.0
H383 H 0.10609 0.85633 0.31527 0.0
H384 H 0.05021 0.77764 0.2612 0.0
H385 H 0.09957 0.83429 0.27908 0.0
H386 H 0.8489 0.82229 0.2991 0.0
H387 H 0.89847 0.87956 0.31661 0.0
H388 H 0.82292 0.73515 0.29418 0.0
H389 H 0.84389 0.69773 0.27561 0.0
C390 C 0.11573 0.01242 0.62078 0.0
C391 C 0.13169 0.01745 0.64497 0.0
C392 C 0.21989 0.02062 0.63414 0.0
C393 C 0.20759 0.02395 0.61003 0.0
N394 N 0.14623 0.02731 0.58002 0.0
N395 N 0.20068 0.03093 0.67507 0.0
C396 C 0.15589 0.0205 0.6032 0.0
C397 C 0.18391 0.02199 0.65182 0.0
N398 N 0.06164 -0.00135 0.61468 0.0
N399 N 0.26579 0.01584 0.64005 0.0
H400 H 0.17556 0.03201 0.68858 0.0
H401 H 0.24115 0.04136 0.68084 0.0
H402 H 0.29327 0.01544 0.62746 0.0
H403 H 0.27389 0.00738 0.65709 0.0
H404 H 0.04544 0.9887 0.59747 0.0
H405 H 0.03098 0.99178 0.62719 0.0
H406 H 0.11273 0.03224 0.57435 0.0
H407 H 0.17395 0.03202 0.56649 0.0
C408 C 0.13412 0.10648 0.9575 0.0
C409 C 0.13622 0.12208 0.98153 0.0
C410 C 0.21985 0.21671 0.97391 0.0
C411 C 0.21014 0.20502 0.94929 0.0
N412 N 0.15579 0.13942 0.91723 0.0
N413 N 0.18077 0.19102 0.01334 0.0
C414 C 0.16744 0.14964 0.94091 0.0
C415 C 0.17981 0.17656 0.99009 0.0
N416 N 0.09948 0.05034 0.95064 0.0
N417 N 0.26715 0.26631 0.98165 0.0
H418 H 0.15306 0.16184 0.02572 0.0
H419 H 0.20702 0.23242 0.02014 0.0
H420 H 0.29707 0.29622 0.97005 0.0
H421 H 0.27934 0.27535 -0.00063 0.0
H422 H 0.09944 0.03502 0.93371 0.0
H423 H 0.07501 0.01805 0.96268 0.0
H424 H 0.1207 0.10211 0.91038 0.0
H425 H 0.17855 0.16982 0.90435 0.0
C426 C 0.00728 0.17241 0.31982 0.0
C427 C 0.01156 0.12381 0.31405 0.0
C428 C 0.03862 0.1582 0.27357 0.0
C429 C 0.02966 0.20417 0.27879 0.0
N430 N -0.00057 0.25236 0.30561 0.0
N431 N 0.0258 0.06646 0.28527 0.0
C432 C 0.01251 0.21071 0.30161 0.0
C433 C 0.02555 0.11549 0.29085 0.0
N434 N -0.0012 0.18216 0.34276 0.0
N435 N 0.06142 0.15654 0.25235 0.0
H436 H 0.01928 0.03547 0.29769 0.0
H437 H 0.02883 0.05446 0.26809 0.0
H438 H 0.07117 0.18685 0.23917 0.0
H439 H 0.07494 0.12796 0.24839 0.0
H440 H 0.00162 0.21999 0.34865 0.0
H441 H -0.0075 0.15379 0.35638 0.0
H442 H 0.98064 0.25552 0.32102 0.0
H443 H 0.00372 0.28175 0.29278 0.0
loop_
_geom_bond_atom_site_label_1
_geom_bond_atom_site_label_2
_geom_bond_distance
_geom_bond_site_symmetry_2
_ccdc_geom_bond_type
C0 O1 1.306 1_455 S
C0 O3 1.160 . S
O1 C0 1.306 1_655 S
O1 Cd2 2.228 . S
Cd2 O1 2.228 . S
Cd2 O6 2.273 1_545 S
Cd2 O10 2.277 1_655 S
O3 C0 1.160 . S
O3 Cd4 2.203 . S
Cd4 O3 2.203 . S
Cd4 O6 2.411 1_445 S
Cd4 O7 2.333 1_445 S
Cd4 O8 2.352 1_445 S
Cd4 O12 2.277 . S
Cd4 O13 2.356 1_545 S
C5 O10 1.209 . S
C5 O12 1.226 . S
O6 Cd2 2.273 1_565 S
O6 Cd4 2.411 1_665 S
O6 C9 1.320 . S
O7 Cd4 2.333 1_665 S
O7 C9 1.214 . S
O8 Cd4 2.352 1_665 S
O8 C11 1.258 1_655 S
C9 O6 1.320 . S
C9 O7 1.214 . S
O10 Cd2 2.277 1_455 S
O10 C5 1.209 . S
C11 O8 1.258 1_455 S
C11 O13 1.282 . S
O12 Cd4 2.277 . S
O12 C5 1.226 . S
O13 Cd4 2.356 1_565 S
O13 C11 1.282 . S
C14 O15 1.306 . S
C14 O17 1.160 1_545 S
O15 C14 1.306 . S
O15 Cd16 2.228 . S
Cd16 O15 2.228 . S
Cd16 O20 2.273 . S
Cd16 O24 2.277 1_545 S
O17 C14 1.160 1_565 S
O17 Cd18 2.203 1_465 S
Cd18 O17 2.203 1_645 S
Cd18 O20 2.411 1_655 S
Cd18 O21 2.333 . S
Cd18 O22 2.352 . S
Cd18 O26 2.277 1_545 S
Cd18 O27 2.356 1_545 S
C19 O24 1.209 . S
C19 O26 1.226 1_455 S
O20 Cd16 2.273 . S
O20 Cd18 2.411 1_455 S
O20 C23 1.320 . S
O21 Cd18 2.333 . S
O21 C23 1.214 1_655 S
O22 Cd18 2.352 . S
O22 C25 1.258 . S
C23 O20 1.320 . S
C23 O21 1.214 1_455 S
O24 Cd16 2.277 1_565 S
O24 C19 1.209 . S
C25 O22 1.258 . S
C25 O27 1.282 1_545 S
O26 Cd18 2.277 1_565 S
O26 C19 1.226 1_655 S
O27 Cd18 2.356 1_565 S
O27 C25 1.282 1_565 S
C28 O29 1.306 . S
C28 O31 1.160 1_545 S
O29 C28 1.306 . S
O29 Cd30 2.228 . S
Cd30 O29 2.228 . S
Cd30 O34 2.273 1_655 S
Cd30 O38 2.277 1_545 S
O31 C28 1.160 1_565 S
O31 Cd32 2.203 1_665 S
Cd32 O31 2.203 1_445 S
Cd32 O34 2.411 . S
Cd32 O35 2.333 . S
Cd32 O36 2.352 . S
Cd32 O40 2.277 1_445 S
Cd32 O41 2.356 1_545 S
C33 O38 1.209 . S
C33 O40 1.226 . S
O34 Cd30 2.273 1_455 S
O34 Cd32 2.411 . S
O34 C37 1.320 . S
O35 Cd32 2.333 . S
O35 C37 1.214 . S
O36 Cd32 2.352 . S
O36 C39 1.258 . S
C37 O34 1.320 . S
C37 O35 1.214 . S
O38 Cd30 2.277 1_565 S
O38 C33 1.209 . S
C39 O36 1.258 . S
C39 O41 1.282 1_545 S
O40 Cd32 2.277 1_665 S
O40 C33 1.226 . S
O41 Cd32 2.356 1_565 S
O41 C39 1.282 1_565 S
H42 C69 0.929 . S
N43 C68 1.433 . S
N43 C74 1.435 . S
N43 C80 1.423 . S
H44 C70 0.949 . S
H45 C73 0.931 . S
H46 C72 0.929 . S
H47 C75 0.930 . S
H48 C76 0.932 . S
H49 C79 0.929 . S
H50 C78 0.931 . S
H51 C81 0.929 . S
H52 C85 0.932 . S
H53 C82 0.931 . S
H54 C84 0.929 . S
H55 C87 0.929 . S
H56 C88 0.928 . S
H57 C90 0.929 . S
H58 C91 0.931 . S
H59 C93 0.930 . S
H60 C94 0.932 . S
H61 C96 0.931 . S
H62 C97 0.929 . S
H63 C99 0.929 . S
H64 C100 0.931 . S
H65 C102 0.929 . S
N66 C86 1.433 . S
N66 C92 1.435 . S
N66 C98 1.423 . S
H67 C103 0.932 . S
C68 N43 1.433 . S
C68 C69 1.363 1_455 S
C68 C73 1.370 . S
C69 H42 0.929 . S
C69 C68 1.363 1_655 S
C69 C70 1.383 . S
C70 H44 0.949 . S
C70 C69 1.383 . S
C70 C71 1.340 1_655 S
C71 C70 1.340 1_455 S
C71 C72 1.406 . S
C72 H46 0.929 . S
C72 C71 1.406 . S
C72 C73 1.391 . S
C73 H45 0.931 . S
C73 C68 1.370 . S
C73 C72 1.391 . S
C74 N43 1.435 . S
C74 C75 1.358 . S
C74 C79 1.371 1_455 S
C75 H47 0.930 . S
C75 C74 1.358 . S
C75 C76 1.405 . S
C76 H48 0.932 . S
C76 C75 1.405 . S
C76 C77 1.383 . S
C77 C76 1.383 . S
C77 C78 1.393 1_455 S
C78 H50 0.931 . S
C78 C77 1.393 1_655 S
C78 C79 1.382 . S
C79 H49 0.929 . S
C79 C74 1.371 1_655 S
C79 C78 1.382 . S
C80 N43 1.423 . S
C80 C81 1.362 1_455 S
C80 C85 1.388 . S
C81 H51 0.929 . S
C81 C80 1.362 1_655 S
C81 C82 1.376 . S
C82 H53 0.931 . S
C82 C81 1.376 . S
C82 C83 1.396 . S
C83 C82 1.396 . S
C83 C84 1.348 1_655 S
C83 C101 1.472 . S
C84 H54 0.929 . S
C84 C83 1.348 1_455 S
C84 C85 1.443 . S
C85 H52 0.932 . S
C85 C80 1.388 . S
C85 C84 1.443 . S
C86 N66 1.433 . S
C86 C87 1.363 1_455 S
C86 C91 1.370 . S
C87 H55 0.929 . S
C87 C86 1.363 1_655 S
C87 C88 1.391 . S
C88 H56 0.928 . S
C88 C87 1.391 . S
C88 C89 1.353 1_655 S
C89 C88 1.353 1_455 S
C89 C90 1.406 . S
C90 H57 0.929 . S
C90 C89 1.406 . S
C90 C91 1.391 . S
C91 H58 0.931 . S
C91 C86 1.370 . S
C91 C90 1.391 . S
C92 N66 1.435 . S
C92 C93 1.358 . S
C92 C97 1.371 1_455 S
C93 H59 0.930 . S
C93 C92 1.358 . S
C93 C94 1.405 . S
C94 H60 0.932 . S
C94 C93 1.405 . S
C94 C95 1.383 . S
C95 C94 1.383 . S
C95 C96 1.393 1_455 S
C96 H61 0.931 . S
C96 C95 1.393 1_655 S
C96 C97 1.382 . S
C97 H62 0.929 . S
C97 C92 1.371 1_655 S
C97 C96 1.382 . S
C98 N66 1.423 . S
C98 C99 1.362 1_455 S
C98 C103 1.388 . S
C99 H63 0.929 . S
C99 C98 1.362 1_655 S
C99 C100 1.376 . S
C100 H64 0.931 . S
C100 C99 1.376 . S
C100 C101 1.396 . S
C101 C83 1.472 . S
C101 C100 1.396 . S
C101 C102 1.348 1_655 S
C102 H65 0.929 . S
C102 C101 1.348 1_455 S
C102 C103 1.443 . S
C103 H67 0.932 . S
C103 C98 1.388 . S
C103 C102 1.443 . S
H104 C131 0.929 . S
N105 C130 1.433 . S
N105 C136 1.435 . S
N105 C142 1.423 . S
H106 C132 0.930 . S
H107 C135 0.931 1_565 S
H108 C134 0.929 . S
H109 C137 0.930 . S
H110 C138 0.932 . S
H111 C141 0.929 . S
H112 C140 0.931 . S
H113 C143 0.929 . S
H114 C147 0.932 1_565 S
H115 C144 0.931 . S
H116 C146 0.929 . S
H117 C149 0.929 . S
H118 C150 0.930 . S
H119 C152 0.929 . S
H120 C153 0.931 1_565 S
H121 C155 0.930 . S
H122 C156 0.932 . S
H123 C158 0.931 . S
H124 C159 0.929 . S
H125 C161 0.929 . S
H126 C162 0.931 . S
H127 C164 0.929 . S
N128 C148 1.433 . S
N128 C154 1.435 . S
N128 C160 1.423 . S
H129 C165 0.932 1_565 S
C130 N105 1.433 . S
C130 C131 1.363 . S
C130 C135 1.370 . S
C131 H104 0.929 . S
C131 C130 1.363 . S
C131 C132 1.385 . S
C132 H106 0.930 . S
C132 C131 1.385 . S
C132 C133 1.357 . S
C133 C132 1.357 . S
C133 C134 1.406 1_545 S
C134 H108 0.929 . S
C134 C133 1.406 1_565 S
C134 C135 1.391 1_565 S
C135 H107 0.931 1_545 S
C135 C130 1.370 . S
C135 C134 1.391 1_545 S
C136 N105 1.435 . S
C136 C137 1.358 1_545 S
C136 C141 1.371 . S
C137 H109 0.930 . S
C137 C136 1.358 1_565 S
C137 C138 1.405 . S
C138 H110 0.932 . S
C138 C137 1.405 . S
C138 C139 1.383 1_565 S
C139 C138 1.383 1_545 S
C139 C140 1.393 . S
C140 H112 0.931 . S
C140 C139 1.393 . S
C140 C141 1.382 . S
C141 H111 0.929 . S
C141 C136 1.371 . S
C141 C140 1.382 . S
C142 N105 1.423 . S
C142 C143 1.362 . S
C142 C147 1.388 . S
C143 H113 0.929 . S
C143 C142 1.362 . S
C143 C144 1.376 . S
C144 H115 0.931 . S
C144 C143 1.376 . S
C144 C145 1.396 . S
C145 C144 1.396 . S
C145 C146 1.348 . S
C145 C163 1.472 . S
C146 H116 0.929 . S
C146 C145 1.348 . S
C146 C147 1.443 . S
C147 H114 0.932 1_545 S
C147 C142 1.388 . S
C147 C146 1.443 . S
C148 N128 1.433 . S
C148 C149 1.363 . S
C148 C153 1.370 . S
C149 H117 0.929 . S
C149 C148 1.363 . S
C149 C150 1.385 . S
C150 H118 0.930 . S
C150 C149 1.385 . S
C150 C151 1.357 . S
C151 C150 1.357 . S
C151 C152 1.406 1_545 S
C152 H119 0.929 . S
C152 C151 1.406 1_565 S
C152 C153 1.391 1_565 S
C153 H120 0.931 1_545 S
C153 C148 1.370 . S
C153 C152 1.391 1_545 S
C154 N128 1.435 . S
C154 C155 1.358 1_545 S
C154 C159 1.371 . S
C155 H121 0.930 . S
C155 C154 1.358 1_565 S
C155 C156 1.405 . S
C156 H122 0.932 . S
C156 C155 1.405 . S
C156 C157 1.383 1_565 S
C157 C156 1.383 1_545 S
C157 C158 1.393 . S
C158 H123 0.931 . S
C158 C157 1.393 . S
C158 C159 1.382 . S
C159 H124 0.929 . S
C159 C154 1.371 . S
C159 C158 1.382 . S
C160 N128 1.423 . S
C160 C161 1.362 . S
C160 C165 1.388 . S
C161 H125 0.929 . S
C161 C160 1.362 . S
C161 C162 1.376 . S
C162 H126 0.931 . S
C162 C161 1.376 . S
C162 C163 1.396 . S
C163 C145 1.472 . S
C163 C162 1.396 . S
C163 C164 1.348 . S
C164 H127 0.929 . S
C164 C163 1.348 . S
C164 C165 1.443 . S
C165 H129 0.932 1_545 S
C165 C160 1.388 . S
C165 C164 1.443 . S
H166 C193 0.929 . S
N167 C192 1.433 . S
N167 C198 1.435 . S
N167 C204 1.423 . S
H168 C194 0.930 . S
H169 C197 0.931 . S
H170 C196 0.929 . S
H171 C199 0.930 . S
H172 C200 0.932 . S
H173 C203 0.929 . S
H174 C202 0.931 . S
H175 C205 0.929 . S
H176 C209 0.932 . S
H177 C206 0.931 . S
H178 C208 0.929 . S
H179 C211 0.929 . S
H180 C212 0.930 . S
H181 C214 0.929 . S
H182 C215 0.931 . S
H183 C217 0.930 . S
H184 C218 0.932 . S
H185 C220 0.931 . S
H186 C221 0.929 . S
H187 C223 0.929 . S
H188 C224 0.931 . S
H189 C226 0.929 . S
N190 C210 1.433 . S
N190 C216 1.435 . S
N190 C222 1.423 . S
H191 C227 0.932 . S
C192 N167 1.433 . S
C192 C193 1.363 . S
C192 C197 1.370 . S
C193 H166 0.929 . S
C193 C192 1.363 . S
C193 C194 1.385 . S
C194 H168 0.930 . S
C194 C193 1.385 . S
C194 C195 1.357 . S
C195 C194 1.357 . S
C195 C196 1.406 . S
C196 H170 0.929 . S
C196 C195 1.406 . S
C196 C197 1.391 . S
C197 H169 0.931 . S
C197 C192 1.370 . S
C197 C196 1.391 . S
C198 N167 1.435 . S
C198 C199 1.358 . S
C198 C203 1.371 . S
C199 H171 0.930 . S
C199 C198 1.358 . S
C199 C200 1.405 . S
C200 H172 0.932 . S
C200 C199 1.405 . S
C200 C201 1.383 . S
C201 C200 1.383 . S
C201 C202 1.393 . S
C202 H174 0.931 . S
C202 C201 1.393 . S
C202 C203 1.382 . S
C203 H173 0.929 . S
C203 C198 1.371 . S
C203 C202 1.382 . S
C204 N167 1.423 . S
C204 C205 1.362 . S
C204 C209 1.388 . S
C205 H175 0.929 . S
C205 C204 1.362 . S
C205 C206 1.376 . S
C206 H177 0.931 . S
C206 C205 1.376 . S
C206 C207 1.396 . S
C207 C206 1.396 . S
C207 C208 1.348 . S
C207 C225 1.472 . S
C208 H178 0.929 . S
C208 C207 1.348 . S
C208 C209 1.443 . S
C209 H176 0.932 . S
C209 C204 1.388 . S
C209 C208 1.443 . S
C210 N190 1.433 . S
C210 C211 1.363 . S
C210 C215 1.370 . S
C211 H179 0.929 . S
C211 C210 1.363 . S
C211 C212 1.385 . S
C212 H180 0.930 . S
C212 C211 1.385 . S
C212 C213 1.357 . S
C213 C212 1.357 . S
C213 C214 1.406 . S
C214 H181 0.929 . S
C214 C213 1.406 . S
C214 C215 1.391 . S
C215 H182 0.931 . S
C215 C210 1.370 . S
C215 C214 1.391 . S
C216 N190 1.435 . S
C216 C217 1.358 . S
C216 C221 1.371 . S
C217 H183 0.930 . S
C217 C216 1.358 . S
C217 C218 1.405 . S
C218 H184 0.932 . S
C218 C217 1.405 . S
C218 C219 1.383 . S
C219 C218 1.383 . S
C219 C220 1.393 . S
C220 H185 0.931 . S
C220 C219 1.393 . S
C220 C221 1.382 . S
C221 H186 0.929 . S
C221 C216 1.371 . S
C221 C220 1.382 . S
C222 N190 1.423 . S
C222 C223 1.362 . S
C222 C227 1.388 . S
C223 H187 0.929 . S
C223 C222 1.362 . S
C223 C224 1.376 . S
C224 H188 0.931 . S
C224 C223 1.376 . S
C224 C225 1.396 . S
C225 C207 1.472 . S
C225 C224 1.396 . S
C225 C226 1.348 . S
C226 H189 0.929 . S
C226 C225 1.348 . S
C226 C227 1.443 . S
C227 H191 0.932 . S
C227 C222 1.388 . S
C227 C226 1.443 . S
C228 C229 1.363 . S
C228 C234 1.379 . S
C228 N236 1.356 . S
C229 C228 1.363 . S
C229 C235 1.363 1_455 S
C230 C231 1.363 1_655 S
C230 C235 1.379 . S
C230 N237 1.356 . S
C231 C230 1.363 1_455 S
C231 C234 1.363 . S
N232 C234 1.356 . S
N232 H244 0.984 . S
N232 H245 0.985 . S
N233 C235 1.356 . S
N233 H238 0.984 . S
N233 H239 0.985 . S
C234 C228 1.379 . S
C234 C231 1.363 . S
C234 N232 1.356 . S
C235 C229 1.363 1_655 S
C235 C230 1.379 . S
C235 N233 1.356 . S
N236 C228 1.356 . S
N236 H242 0.984 . S
N236 H243 0.984 . S
N237 C230 1.356 . S
N237 H240 0.984 . S
N237 H241 0.985 . S
H238 N233 0.984 . S
H239 N233 0.985 . S
H240 N237 0.984 . S
H241 N237 0.985 . S
H242 N236 0.984 . S
H243 N236 0.984 . S
H244 N232 0.984 . S
H245 N232 0.985 . S
C246 C247 1.363 . S
C246 C252 1.379 . S
C246 N254 1.356 . S
C247 C246 1.363 . S
C247 C253 1.363 1_545 S
C248 C249 1.363 1_565 S
C248 C253 1.379 . S
C248 N255 1.356 . S
C249 C248 1.363 1_545 S
C249 C252 1.363 . S
N250 C252 1.356 . S
N250 H262 0.984 . S
N250 H263 0.985 . S
N251 C253 1.356 . S
N251 H256 0.984 . S
N251 H257 0.985 . S
C252 C246 1.379 . S
C252 C249 1.363 . S
C252 N250 1.356 . S
C253 C247 1.363 1_565 S
C253 C248 1.379 . S
C253 N251 1.356 . S
N254 C246 1.356 . S
N254 H260 0.984 . S
N254 H261 0.984 . S
N255 C248 1.356 . S
N255 H258 0.984 . S
N255 H259 0.985 . S
H256 N251 0.984 . S
H257 N251 0.985 . S
H258 N255 0.984 . S
H259 N255 0.985 . S
H260 N254 0.984 . S
H261 N254 0.984 . S
H262 N250 0.984 . S
H263 N250 0.985 . S
C264 C265 1.363 . S
C264 C270 1.379 . S
C264 N272 1.356 . S
C265 C264 1.363 . S
C265 C271 1.363 . S
C266 C267 1.363 . S
C266 C271 1.379 . S
C266 N273 1.356 . S
C267 C266 1.363 . S
C267 C270 1.363 . S
N268 C270 1.356 . S
N268 H280 0.984 . S
N268 H281 0.985 . S
N269 C271 1.356 . S
N269 H274 0.984 . S
N269 H275 0.985 1_565 S
C270 C264 1.379 . S
C270 C267 1.363 . S
C270 N268 1.356 . S
C271 C265 1.363 . S
C271 C266 1.379 . S
C271 N269 1.356 . S
N272 C264 1.356 . S
N272 H278 0.984 . S
N272 H279 0.984 . S
N273 C266 1.356 . S
N273 H276 0.984 . S
N273 H277 0.985 . S
H274 N269 0.984 . S
H275 N269 0.985 1_545 S
H276 N273 0.984 . S
H277 N273 0.985 . S
H278 N272 0.984 . S
H279 N272 0.984 . S
H280 N268 0.984 . S
H281 N268 0.985 . S
C282 C283 1.363 . S
C282 C288 1.379 . S
C282 N290 1.356 . S
C283 C282 1.363 . S
C283 C289 1.363 1_455 S
C284 C285 1.363 1_655 S
C284 C289 1.379 . S
C284 N291 1.356 . S
C285 C284 1.363 1_455 S
C285 C288 1.363 . S
N286 C288 1.356 . S
N286 H298 0.984 . S
N286 H299 0.985 . S
N287 C289 1.356 . S
N287 H292 0.984 . S
N287 H293 0.985 . S
C288 C282 1.379 . S
C288 C285 1.363 . S
C288 N286 1.356 . S
C289 C283 1.363 1_655 S
C289 C284 1.379 . S
C289 N287 1.356 . S
N290 C282 1.356 . S
N290 H296 0.984 1_565 S
N290 H297 0.984 . S
N291 C284 1.356 . S
N291 H294 0.984 . S
N291 H295 0.985 . S
H292 N287 0.984 . S
H293 N287 0.985 . S
H294 N291 0.984 . S
H295 N291 0.985 . S
H296 N290 0.984 1_545 S
H297 N290 0.984 . S
H298 N286 0.984 . S
H299 N286 0.985 . S
C300 C301 1.363 . S
C300 C306 1.379 . S
C300 N308 1.356 . S
C301 C300 1.363 . S
C301 C307 1.363 1_545 S
C302 C303 1.363 1_565 S
C302 C307 1.379 . S
C302 N309 1.356 . S
C303 C302 1.363 1_545 S
C303 C306 1.363 . S
N304 C306 1.356 . S
N304 H316 0.984 . S
N304 H317 0.985 . S
N305 C307 1.356 . S
N305 H310 0.984 . S
N305 H311 0.985 . S
C306 C300 1.379 . S
C306 C303 1.363 . S
C306 N304 1.356 . S
C307 C301 1.363 1_565 S
C307 C302 1.379 . S
C307 N305 1.356 . S
N308 C300 1.356 . S
N308 H314 0.984 . S
N308 H315 0.984 . S
N309 C302 1.356 . S
N309 H312 0.984 . S
N309 H313 0.985 . S
H310 N305 0.984 . S
H311 N305 0.985 . S
H312 N309 0.984 . S
H313 N309 0.985 . S
H314 N308 0.984 . S
H315 N308 0.984 . S
H316 N304 0.984 . S
H317 N304 0.985 . S
C318 C319 1.363 . S
C318 C324 1.379 . S
C318 N326 1.356 . S
C319 C318 1.363 . S
C319 C325 1.363 . S
C320 C321 1.363 . S
C320 C325 1.379 . S
C320 N327 1.356 . S
C321 C320 1.363 . S
C321 C324 1.363 . S
N322 C324 1.356 . S
N322 H334 0.984 . S
N322 H335 0.985 . S
N323 C325 1.356 . S
N323 H328 0.984 . S
N323 H329 0.985 . S
C324 C318 1.379 . S
C324 C321 1.363 . S
C324 N322 1.356 . S
C325 C319 1.363 . S
C325 C320 1.379 . S
C325 N323 1.356 . S
N326 C318 1.356 . S
N326 H332 0.984 . S
N326 H333 0.984 . S
N327 C320 1.356 . S
N327 H330 0.984 . S
N327 H331 0.985 . S
H328 N323 0.984 . S
H329 N323 0.985 . S
H330 N327 0.984 . S
H331 N327 0.985 . S
H332 N326 0.984 . S
H333 N326 0.984 . S
H334 N322 0.984 . S
H335 N322 0.985 . S
C336 C337 1.363 . S
C336 C342 1.379 . S
C336 N344 1.356 . S
C337 C336 1.363 . S
C337 C343 1.363 1_545 S
C338 C339 1.363 1_565 S
C338 C343 1.379 . S
C338 N345 1.356 . S
C339 C338 1.363 1_545 S
C339 C342 1.363 . S
N340 C342 1.356 . S
N340 H352 0.984 . S
N340 H353 0.985 . S
N341 C343 1.356 . S
N341 H346 0.984 . S
N341 H347 0.985 . S
C342 C336 1.379 . S
C342 C339 1.363 . S
C342 N340 1.356 . S
C343 C337 1.363 1_565 S
C343 C338 1.379 . S
C343 N341 1.356 . S
N344 C336 1.356 . S
N344 H350 0.984 . S
N344 H351 0.984 . S
N345 C338 1.356 . S
N345 H348 0.984 . S
N345 H349 0.985 . S
H346 N341 0.984 . S
H347 N341 0.985 . S
H348 N345 0.984 . S
H349 N345 0.985 . S
H350 N344 0.984 . S
H351 N344 0.984 . S
H352 N340 0.984 . S
H353 N340 0.985 . S
C354 C355 1.363 . S
C354 C360 1.379 . S
C354 N362 1.356 . S
C355 C354 1.363 . S
C355 C361 1.353 1_556 S
C356 C357 1.363 . S
C356 C361 1.368 1_556 S
C356 N363 1.356 . S
C357 C356 1.363 . S
C357 C360 1.363 . S
N358 C360 1.356 . S
N358 H370 0.984 . S
N358 H371 0.985 . S
N359 C361 1.377 . S
N359 H364 0.984 . S
N359 H365 0.985 . S
C360 C354 1.379 . S
C360 C357 1.363 . S
C360 N358 1.356 . S
C361 C355 1.353 1_554 S
C361 C356 1.368 1_554 S
C361 N359 1.377 . S
N362 C354 1.356 . S
N362 H368 0.984 . S
N362 H369 0.984 . S
N363 C356 1.356 . S
N363 H366 0.984 . S
N363 H367 0.985 1_556 S
H364 N359 0.984 . S
H365 N359 0.985 . S
H366 N363 0.984 . S
H367 N363 0.985 1_554 S
H368 N362 0.984 . S
H369 N362 0.984 . S
H370 N358 0.984 . S
H371 N358 0.985 . S
C372 C373 1.363 1_655 S
C372 C378 1.379 . S
C372 N380 1.356 . S
C373 C372 1.363 1_455 S
C373 C379 1.363 . S
C374 C375 1.363 . S
C374 C379 1.379 . S
C374 N381 1.356 . S
C375 C374 1.363 . S
C375 C378 1.363 1_455 S
N376 C378 1.356 . S
N376 H388 0.984 . S
N376 H389 0.985 . S
N377 C379 1.356 . S
N377 H382 0.984 . S
N377 H383 0.985 . S
C378 C372 1.379 . S
C378 C375 1.363 1_655 S
C378 N376 1.356 . S
C379 C373 1.363 . S
C379 C374 1.379 . S
C379 N377 1.356 . S
N380 C372 1.356 . S
N380 H386 0.984 . S
N380 H387 0.984 . S
N381 C374 1.356 . S
N381 H384 0.984 . S
N381 H385 0.985 . S
H382 N377 0.984 . S
H383 N377 0.985 . S
H384 N381 0.984 . S
H385 N381 0.985 . S
H386 N380 0.984 . S
H387 N380 0.984 . S
H388 N376 0.984 . S
H389 N376 0.985 . S
C390 C391 1.363 1_565 S
C390 C396 1.379 . S
C390 N398 1.356 . S
C391 C390 1.363 1_545 S
C391 C397 1.363 . S
C392 C393 1.363 . S
C392 C397 1.379 . S
C392 N399 1.356 . S
C393 C392 1.363 . S
C393 C396 1.363 1_545 S
N394 C396 1.356 . S
N394 H406 0.984 . S
N394 H407 0.985 . S
N395 C397 1.356 . S
N395 H400 0.984 . S
N395 H401 0.985 . S
C396 C390 1.379 . S
C396 C393 1.363 1_565 S
C396 N394 1.356 . S
C397 C391 1.363 . S
C397 C392 1.379 . S
C397 N395 1.356 . S
N398 C390 1.356 . S
N398 H404 0.984 . S
N398 H405 0.984 . S
N399 C392 1.356 . S
N399 H402 0.984 . S
N399 H403 0.985 . S
H400 N395 0.984 . S
H401 N395 0.985 . S
H402 N399 0.984 . S
H403 N399 0.985 . S
H404 N398 0.984 . S
H405 N398 0.984 . S
H406 N394 0.984 . S
H407 N394 0.985 . S
C408 C409 1.363 . S
C408 C414 1.379 . S
C408 N416 1.356 . S
C409 C408 1.363 . S
C409 C415 1.363 . S
C410 C411 1.363 . S
C410 C415 1.379 . S
C410 N417 1.356 . S
C411 C410 1.363 . S
C411 C414 1.363 . S
N412 C414 1.356 . S
N412 H424 0.984 . S
N412 H425 0.985 . S
N413 C415 1.356 1_554 S
N413 H418 0.984 . S
N413 H419 0.985 . S
C414 C408 1.379 . S
C414 C411 1.363 . S
C414 N412 1.356 . S
C415 C409 1.363 . S
C415 C410 1.379 . S
C415 N413 1.356 1_556 S
N416 C408 1.356 . S
N416 H422 0.984 . S
N416 H423 0.984 . S
N417 C410 1.356 . S
N417 H420 0.984 . S
N417 H421 0.985 . S
H418 N413 0.984 . S
H419 N413 0.985 . S
H420 N417 0.984 . S
H421 N417 0.985 . S
H422 N416 0.984 . S
H423 N416 0.984 . S
H424 N412 0.984 . S
H425 N412 0.985 . S
C426 C427 1.363 . S
C426 C432 1.379 . S
C426 N434 1.356 . S
C427 C426 1.363 . S
C427 C433 1.363 . S
C428 C429 1.363 . S
C428 C433 1.379 . S
C428 N435 1.356 . S
C429 C428 1.363 . S
C429 C432 1.363 . S
N430 C432 1.356 . S
N430 H442 0.989 . S
N430 H443 0.985 . S
N431 C433 1.356 . S
N431 H436 0.984 . S
N431 H437 0.985 . S
C432 C426 1.379 . S
C432 C429 1.363 . S
C432 N430 1.356 . S
C433 C427 1.363 . S
C433 C428 1.379 . S
C433 N431 1.356 . S
N434 C426 1.356 . S
N434 H440 0.984 1_455 S
N434 H441 0.984 . S
N435 C428 1.356 . S
N435 H438 0.984 . S
N435 H439 0.985 . S
H436 N431 0.984 . S
H437 N431 0.985 . S
H438 N435 0.984 . S
H439 N435 0.985 . S
H440 N434 0.984 1_655 S
H441 N434 0.984 . S
H442 N430 0.989 . S
H443 N430 0.985 . S
C231 C95 1.420 . S
C229 C0 1.426 . S
C247 C25 1.447 . S
C249 C139 1.447 . S
C265 C33 1.479 . S
C267 C201 1.491 . S
C283 C11 1.415 . S
C285 C77 1.414 . S
C303 C157 1.434 . S
C301 C14 1.438 . S
C319 C37 1.487 . S
C321 C219 1.492 . S
C339 C133 1.579 . S
C337 C28 1.676 . S
C355 C9 1.724 1_556 S
C357 C195 1.628 . S
C375 C71 1.633 . S
C373 C19 1.756 . S
C393 C151 1.593 . S
C391 C39 1.696 . S
C411 C213 1.627 . S
C409 C5 1.723 1_556 S
C427 C23 1.753 . S
C429 C89 1.650 . S
