# Generated by pormake.
# Topology eea, (3,6)-cn, num edge types: 1
# Building blocks:
#     Node 0, Type 0, BuildingBlock: KAKCAD_clean_linker_0, # of connection points: 3
#     Node 1, Type 0, BuildingBlock: KAKCAD_clean_linker_0, # of connection points: 3
#     Node 2, Type 0, BuildingBlock: KAKCAD_clean_linker_0, # of connection points: 3
#     Node 3, Type 0, BuildingBlock: KAKCAD_clean_linker_0, # of connection points: 3
#     Node 4, Type 0, BuildingBlock: KAKCAD_clean_linker_0, # of connection points: 3
#     Node 5, Type 0, BuildingBlock: KAKCAD_clean_linker_0, # of connection points: 3
#     Node 6, Type 0, BuildingBlock: KAKCAD_clean_linker_0, # of connection points: 3
#     Node 7, Type 0, BuildingBlock: KAKCAD_clean_linker_0, # of connection points: 3
#     Node 8, Type 0, BuildingBlock: KAKCAD_clean_linker_0, # of connection points: 3
#     Node 9, Type 0, BuildingBlock: KAKCAD_clean_linker_0, # of connection points: 3
#     Node 10, Type 0, BuildingBlock: KAKCAD_clean_linker_0, # of connection points: 3
#     Node 11, Type 0, BuildingBlock: KAKCAD_clean_linker_0, # of connection points: 3
#     Node 12, Type 0, BuildingBlock: KAKCAD_clean_linker_0, # of connection points: 3
#     Node 13, Type 0, BuildingBlock: KAKCAD_clean_linker_0, # of connection points: 3
#     Node 14, Type 0, BuildingBlock: KAKCAD_clean_linker_0, # of connection points: 3
#     Node 15, Type 0, BuildingBlock: KAKCAD_clean_linker_0, # of connection points: 3
#     Node 16, Type 0, BuildingBlock: KAKCAD_clean_linker_0, # of connection points: 3
#     Node 17, Type 0, BuildingBlock: KAKCAD_clean_linker_0, # of connection points: 3
#     Node 18, Type 1, BuildingBlock: HISSIN_clean_sbu_0, # of connection points: 6
#     Node 19, Type 1, BuildingBlock: HISSIN_clean_sbu_0, # of connection points: 6
#     Node 20, Type 1, BuildingBlock: HISSIN_clean_sbu_0, # of connection points: 6
#     Node 21, Type 1, BuildingBlock: HISSIN_clean_sbu_0, # of connection points: 6
#     Node 22, Type 1, BuildingBlock: HISSIN_clean_sbu_0, # of connection points: 6
#     Node 23, Type 1, BuildingBlock: HISSIN_clean_sbu_0, # of connection points: 6
#     Node 24, Type 1, BuildingBlock: HISSIN_clean_sbu_0, # of connection points: 6
#     Node 25, Type 1, BuildingBlock: HISSIN_clean_sbu_0, # of connection points: 6
#     Node 26, Type 1, BuildingBlock: HISSIN_clean_sbu_0, # of connection points: 6
#     Edge 27, Type (0, 1), BuildingBlock: XUDNAN_clean_linker_2, # of connection points: 2
#     Edge 28, Type (0, 1), BuildingBlock: XUDNAN_clean_linker_2, # of connection points: 2
#     Edge 29, Type (0, 1), BuildingBlock: XUDNAN_clean_linker_2, # of connection points: 2
#     Edge 30, Type (0, 1), BuildingBlock: XUDNAN_clean_linker_2, # of connection points: 2
#     Edge 31, Type (0, 1), BuildingBlock: XUDNAN_clean_linker_2, # of connection points: 2
#     Edge 32, Type (0, 1), BuildingBlock: XUDNAN_clean_linker_2, # of connection points: 2
#     Edge 33, Type (0, 1), BuildingBlock: XUDNAN_clean_linker_2, # of connection points: 2
#     Edge 34, Type (0, 1), BuildingBlock: XUDNAN_clean_linker_2, # of connection points: 2
#     Edge 35, Type (0, 1), BuildingBlock: XUDNAN_clean_linker_2, # of connection points: 2
#     Edge 36, Type (0, 1), BuildingBlock: XUDNAN_clean_linker_2, # of connection points: 2
#     Edge 37, Type (0, 1), BuildingBlock: XUDNAN_clean_linker_2, # of connection points: 2
#     Edge 38, Type (0, 1), BuildingBlock: XUDNAN_clean_linker_2, # of connection points: 2
#     Edge 39, Type (0, 1), BuildingBlock: XUDNAN_clean_linker_2, # of connection points: 2
#     Edge 40, Type (0, 1), BuildingBlock: XUDNAN_clean_linker_2, # of connection points: 2
#     Edge 41, Type (0, 1), BuildingBlock: XUDNAN_clean_linker_2, # of connection points: 2
#     Edge 42, Type (0, 1), BuildingBlock: XUDNAN_clean_linker_2, # of connection points: 2
#     Edge 43, Type (0, 1), BuildingBlock: XUDNAN_clean_linker_2, # of connection points: 2
#     Edge 44, Type (0, 1), BuildingBlock: XUDNAN_clean_linker_2, # of connection points: 2
#     Edge 45, Type (0, 1), BuildingBlock: XUDNAN_clean_linker_2, # of connection points: 2
#     Edge 46, Type (0, 1), BuildingBlock: XUDNAN_clean_linker_2, # of connection points: 2
#     Edge 47, Type (0, 1), BuildingBlock: XUDNAN_clean_linker_2, # of connection points: 2
#     Edge 48, Type (0, 1), BuildingBlock: XUDNAN_clean_linker_2, # of connection points: 2
#     Edge 49, Type (0, 1), BuildingBlock: XUDNAN_clean_linker_2, # of connection points: 2
#     Edge 50, Type (0, 1), BuildingBlock: XUDNAN_clean_linker_2, # of connection points: 2
#     Edge 51, Type (0, 1), BuildingBlock: XUDNAN_clean_linker_2, # of connection points: 2
#     Edge 52, Type (0, 1), BuildingBlock: XUDNAN_clean_linker_2, # of connection points: 2
#     Edge 53, Type (0, 1), BuildingBlock: XUDNAN_clean_linker_2, # of connection points: 2
#     Edge 54, Type (0, 1), BuildingBlock: XUDNAN_clean_linker_2, # of connection points: 2
#     Edge 55, Type (0, 1), BuildingBlock: XUDNAN_clean_linker_2, # of connection points: 2
#     Edge 56, Type (0, 1), BuildingBlock: XUDNAN_clean_linker_2, # of connection points: 2
#     Edge 57, Type (0, 1), BuildingBlock: XUDNAN_clean_linker_2, # of connection points: 2
#     Edge 58, Type (0, 1), BuildingBlock: XUDNAN_clean_linker_2, # of connection points: 2
#     Edge 59, Type (0, 1), BuildingBlock: XUDNAN_clean_linker_2, # of connection points: 2
#     Edge 60, Type (0, 1), BuildingBlock: XUDNAN_clean_linker_2, # of connection points: 2
#     Edge 61, Type (0, 1), BuildingBlock: XUDNAN_clean_linker_2, # of connection points: 2
#     Edge 62, Type (0, 1), BuildingBlock: XUDNAN_clean_linker_2, # of connection points: 2
#     Edge 63, Type (0, 1), BuildingBlock: XUDNAN_clean_linker_2, # of connection points: 2
#     Edge 64, Type (0, 1), BuildingBlock: XUDNAN_clean_linker_2, # of connection points: 2
#     Edge 65, Type (0, 1), BuildingBlock: XUDNAN_clean_linker_2, # of connection points: 2
#     Edge 66, Type (0, 1), BuildingBlock: XUDNAN_clean_linker_2, # of connection points: 2
#     Edge 67, Type (0, 1), BuildingBlock: XUDNAN_clean_linker_2, # of connection points: 2
#     Edge 68, Type (0, 1), BuildingBlock: XUDNAN_clean_linker_2, # of connection points: 2
#     Edge 69, Type (0, 1), BuildingBlock: XUDNAN_clean_linker_2, # of connection points: 2
#     Edge 70, Type (0, 1), BuildingBlock: XUDNAN_clean_linker_2, # of connection points: 2
#     Edge 71, Type (0, 1), BuildingBlock: XUDNAN_clean_linker_2, # of connection points: 2
#     Edge 72, Type (0, 1), BuildingBlock: XUDNAN_clean_linker_2, # of connection points: 2
#     Edge 73, Type (0, 1), BuildingBlock: XUDNAN_clean_linker_2, # of connection points: 2
#     Edge 74, Type (0, 1), BuildingBlock: XUDNAN_clean_linker_2, # of connection points: 2
#     Edge 75, Type (0, 1), BuildingBlock: XUDNAN_clean_linker_2, # of connection points: 2
#     Edge 76, Type (0, 1), BuildingBlock: XUDNAN_clean_linker_2, # of connection points: 2
#     Edge 77, Type (0, 1), BuildingBlock: XUDNAN_clean_linker_2, # of connection points: 2
#     Edge 78, Type (0, 1), BuildingBlock: XUDNAN_clean_linker_2, # of connection points: 2
#     Edge 79, Type (0, 1), BuildingBlock: XUDNAN_clean_linker_2, # of connection points: 2
#     Edge 80, Type (0, 1), BuildingBlock: XUDNAN_clean_linker_2, # of connection points: 2
# Relax obj value: 0.034
# Max RMSD: 0.133
# Mean RMSD: 0.074
data_MOF--net-eea--node1-HISSIN_clean_sbu_0--node2-KAKCAD_clean_linker_0--edge1-XUDNAN_clean_linker_2
_symmetry_space_group_name_H-M    P1
_symmetry_Int_Tables_number       1
_symmetry_cell_setting            triclinic
loop_
_symmetry_equiv_pos_as_xyz
'x, y, z'
_cell_length_a     62.71032
_cell_length_b     62.601752
_cell_length_c     89.635148
_cell_angle_alpha  93.493333
_cell_angle_beta   93.598973
_cell_angle_gamma 119.77573
loop_
_atom_site_label
_atom_site_type_symbol
_atom_site_fract_x
_atom_site_fract_y
_atom_site_fract_z
_atom_type_partial_charge
C0 C 0.29399 0.17264 0.4826 0.0
C1 C 0.30647 0.16188 0.48959 0.0
C2 C 0.2898 0.17044 0.46698 0.0
C3 C 0.29823 0.15765 0.45791 0.0
C4 C 0.31142 0.14754 0.46486 0.0
C5 C 0.31552 0.14964 0.48055 0.0
C6 C 0.29187 0.15376 0.44133 0.0
C7 C 0.29144 0.17251 0.43366 0.0
C8 C 0.28189 0.16786 0.41849 0.0
C9 C 0.27362 0.14449 0.41079 0.0
C10 C 0.27426 0.12565 0.41817 0.0
C11 C 0.28361 0.13045 0.4334 0.0
C12 C 0.26313 0.1004 0.41026 0.0
C13 C 0.2398 0.08963 0.40197 0.0
C14 C 0.27547 0.08687 0.411 0.0
C15 C 0.26484 0.06316 0.40329 0.0
C16 C 0.24158 0.05248 0.39483 0.0
C17 C 0.27798 0.18648 0.41124 0.0
C18 C 0.29623 0.21165 0.41318 0.0
C19 C 0.25507 0.17928 0.4032 0.0
C20 C 0.25021 0.19692 0.39763 0.0
C21 C 0.26818 0.2222 0.39991 0.0
C22 C 0.29141 0.22933 0.40752 0.0
C23 C 0.22911 0.06594 0.3944 0.0
H24 H 0.28713 0.18254 0.48922 0.0
H25 H 0.27923 0.17814 0.46207 0.0
H26 H 0.31833 0.13774 0.45819 0.0
H27 H 0.3251 0.14103 0.48559 0.0
H28 H 0.29746 0.19043 0.43969 0.0
H29 H 0.28295 0.11554 0.43928 0.0
H30 H 0.26625 0.1408 0.39907 0.0
H31 H 0.22963 0.09944 0.40148 0.0
H32 H 0.29352 0.09481 0.4173 0.0
H33 H 0.27506 0.05342 0.40375 0.0
H34 H 0.31413 0.21768 0.41922 0.0
H35 H 0.24047 0.16007 0.40176 0.0
H36 H 0.21091 0.05808 0.38832 0.0
H37 H 0.30579 0.24862 0.40926 0.0
H38 H 0.23197 0.19078 0.39208 0.0
C39 C 0.88406 0.16396 0.48183 0.0
C40 C 0.87706 0.14384 0.49043 0.0
C41 C 0.88992 0.16244 0.46711 0.0
C42 C 0.88874 0.14075 0.46082 0.0
C43 C 0.88308 0.12126 0.46965 0.0
C44 C 0.87749 0.12285 0.48432 0.0
C45 C 0.89057 0.1369 0.44466 0.0
C46 C 0.91282 0.15075 0.4384 0.0
C47 C 0.91473 0.14461 0.42337 0.0
C48 C 0.89403 0.125 0.41465 0.0
C49 C 0.87154 0.11134 0.42071 0.0
C50 C 0.87001 0.11762 0.43573 0.0
C51 C 0.85025 0.08966 0.41162 0.0
C52 C 0.84575 0.08969 0.39604 0.0
C53 C 0.8349 0.06825 0.41835 0.0
C54 C 0.81592 0.04731 0.40972 0.0
C55 C 0.81211 0.04695 0.39405 0.0
C56 C 0.93836 0.15782 0.41665 0.0
C57 C 0.95201 0.1838 0.41791 0.0
C58 C 0.94646 0.1443 0.40798 0.0
C59 C 0.96695 0.15639 0.40007 0.0
C60 C 0.97989 0.18231 0.40067 0.0
C61 C 0.97262 0.19595 0.40997 0.0
C62 C 0.82706 0.06854 0.38735 0.0
H63 H 0.88384 0.18036 0.48619 0.0
H64 H 0.89414 0.17761 0.46041 0.0
H65 H 0.88225 0.10444 0.465 0.0
H66 H 0.87286 0.10731 0.49076 0.0
H67 H 0.92881 0.16541 0.44536 0.0
H68 H 0.85282 0.1074 0.44065 0.0
H69 H 0.89567 0.12008 0.40316 0.0
H70 H 0.85685 0.10597 0.39048 0.0
H71 H 0.83789 0.0673 0.43026 0.0
H72 H 0.80444 0.03128 0.41537 0.0
H73 H 0.94612 0.19465 0.42448 0.0
H74 H 0.93661 0.12425 0.40709 0.0
H75 H 0.82486 0.06897 0.37532 0.0
H76 H 0.98221 0.21597 0.41061 0.0
H77 H 0.97247 0.1454 0.39329 0.0
C78 C 0.90407 0.74951 0.49086 0.0
C79 C 0.88051 0.73591 0.49579 0.0
C80 C 0.90664 0.75528 0.476 0.0
C81 C 0.88571 0.74764 0.46568 0.0
C82 C 0.86215 0.73361 0.47052 0.0
C83 C 0.85958 0.72777 0.48538 0.0
C84 C 0.88842 0.75489 0.45007 0.0
C85 C 0.9066 0.75428 0.44187 0.0
C86 C 0.90944 0.76148 0.42722 0.0
C87 C 0.89361 0.76913 0.4208 0.0
C88 C 0.87549 0.77018 0.4288 0.0
C89 C 0.87311 0.76301 0.44346 0.0
C90 C 0.8595 0.77924 0.42189 0.0
C91 C 0.86885 0.79772 0.41203 0.0
C92 C 0.83476 0.76943 0.4249 0.0
C93 C 0.81987 0.77787 0.41824 0.0
C94 C 0.82916 0.79605 0.40816 0.0
C95 C 0.92922 0.76172 0.41863 0.0
C96 C 0.95291 0.76954 0.42582 0.0
C97 C 0.92493 0.75534 0.40297 0.0
C98 C 0.94394 0.75763 0.39466 0.0
C99 C 0.96779 0.76591 0.40177 0.0
C100 C 0.97191 0.7715 0.41751 0.0
C101 C 0.85386 0.80569 0.40511 0.0
H102 H 0.92059 0.75581 0.49853 0.0
H103 H 0.92506 0.76625 0.4727 0.0
H104 H 0.84564 0.72717 0.46282 0.0
H105 H 0.84117 0.71742 0.4888 0.0
H106 H 0.91824 0.74776 0.44682 0.0
H107 H 0.85985 0.76451 0.44997 0.0
H108 H 0.89562 0.77456 0.40952 0.0
H109 H 0.88789 0.80626 0.40961 0.0
H110 H 0.82669 0.75499 0.43228 0.0
H111 H 0.80112 0.77016 0.42111 0.0
H112 H 0.95702 0.77479 0.43783 0.0
H113 H 0.90685 0.74878 0.39703 0.0
H114 H 0.86175 0.81929 0.39721 0.0
H115 H 0.98985 0.77752 0.42346 0.0
H116 H 0.93996 0.75343 0.38257 0.0
C117 C 0.13393 0.26248 0.53022 0.0
C118 C 0.12686 0.28041 0.52886 0.0
C119 C 0.13027 0.25013 0.54317 0.0
C120 C 0.11928 0.25527 0.55505 0.0
C121 C 0.1115 0.27264 0.55348 0.0
C122 C 0.11531 0.2851 0.54058 0.0
C123 C 0.11686 0.24331 0.56925 0.0
C124 C 0.13654 0.24098 0.57571 0.0
C125 C 0.13483 0.23002 0.58916 0.0
C126 C 0.11313 0.22179 0.59629 0.0
C127 C 0.093 0.2237 0.59007 0.0
C128 C 0.09513 0.23451 0.57647 0.0
C129 C 0.06993 0.21428 0.59784 0.0
C130 C 0.06244 0.19401 0.60636 0.0
C131 C 0.05547 0.22574 0.5972 0.0
C132 C 0.03446 0.21738 0.60495 0.0
C133 C 0.02752 0.19766 0.61391 0.0
C134 C 0.15523 0.22626 0.59551 0.0
C135 C 0.16856 0.21983 0.58594 0.0
C136 C 0.16077 0.22781 0.61115 0.0
C137 C 0.17825 0.22197 0.61702 0.0
C138 C 0.19098 0.21475 0.60741 0.0
C139 C 0.18629 0.21437 0.5918 0.0
C140 C 0.04194 0.18615 0.61444 0.0
H141 H 0.143 0.2585 0.52147 0.0
H142 H 0.13621 0.23664 0.54393 0.0
H143 H 0.1031 0.27715 0.56242 0.0
H144 H 0.10936 0.29858 0.53983 0.0
H145 H 0.15348 0.24822 0.57038 0.0
H146 H 0.0797 0.2356 0.57125 0.0
H147 H 0.11188 0.21364 0.60672 0.0
H148 H 0.07243 0.18406 0.60689 0.0
H149 H 0.06054 0.24152 0.59092 0.0
H150 H 0.02373 0.22651 0.60385 0.0
H151 H 0.1648 0.21822 0.57384 0.0
H152 H 0.15137 0.23325 0.61894 0.0
H153 H 0.03778 0.17122 0.62132 0.0
H154 H 0.1961 0.20952 0.584 0.0
H155 H 0.18117 0.2224 0.62909 0.0
C156 C 0.697 0.81598 0.54934 0.0
C157 C 0.70553 0.83339 0.53878 0.0
C158 C 0.70428 0.82356 0.56471 0.0
C159 C 0.72006 0.8487 0.56979 0.0
C160 C 0.72863 0.86605 0.55925 0.0
C161 C 0.72153 0.85849 0.54393 0.0
C162 C 0.72819 0.85698 0.586 0.0
C163 C 0.73728 0.84481 0.5948 0.0
C164 C 0.74764 0.85434 0.60972 0.0
C165 C 0.74808 0.87567 0.61595 0.0
C166 C 0.73863 0.88759 0.60734 0.0
C167 C 0.72876 0.87831 0.59242 0.0
C168 C 0.74121 0.91107 0.61358 0.0
C169 C 0.72321 0.91127 0.62197 0.0
C170 C 0.7624 0.93336 0.61166 0.0
C171 C 0.76591 0.95571 0.61839 0.0
C172 C 0.7482 0.95611 0.62712 0.0
C173 C 0.76016 0.84346 0.61826 0.0
C174 C 0.74847 0.81784 0.61913 0.0
C175 C 0.78452 0.85871 0.62499 0.0
C176 C 0.79724 0.84845 0.63206 0.0
C177 C 0.78571 0.8228 0.63272 0.0
C178 C 0.76108 0.8076 0.62643 0.0
C179 C 0.72663 0.93366 0.62866 0.0
H180 H 0.68445 0.79654 0.54576 0.0
H181 H 0.69734 0.80983 0.57262 0.0
H182 H 0.74125 0.88549 0.56283 0.0
H183 H 0.72891 0.87232 0.53611 0.0
H184 H 0.73771 0.82885 0.58977 0.0
H185 H 0.72197 0.888 0.58575 0.0
H186 H 0.75631 0.88336 0.62739 0.0
H187 H 0.70674 0.89411 0.62351 0.0
H188 H 0.77649 0.93339 0.60525 0.0
H189 H 0.78292 0.97255 0.61718 0.0
H190 H 0.72968 0.80574 0.61405 0.0
H191 H 0.79402 0.87851 0.62435 0.0
H192 H 0.7125 0.93336 0.63515 0.0
H193 H 0.7519 0.78773 0.62671 0.0
H194 H 0.8162 0.86051 0.63687 0.0
C195 C 0.12544 0.84933 0.54463 0.0
C196 C 0.15034 0.85951 0.54203 0.0
C197 C 0.11894 0.84875 0.55933 0.0
C198 C 0.13722 0.85818 0.5717 0.0
C199 C 0.16198 0.86724 0.56904 0.0
C200 C 0.16847 0.86801 0.55438 0.0
C201 C 0.13083 0.86016 0.58726 0.0
C202 C 0.10913 0.84131 0.59218 0.0
C203 C 0.10273 0.84387 0.60672 0.0
C204 C 0.11839 0.86563 0.61628 0.0
C205 C 0.14025 0.88438 0.61164 0.0
C206 C 0.14628 0.88156 0.59714 0.0
C207 C 0.15669 0.90717 0.62184 0.0
C208 C 0.1469 0.9198 0.62974 0.0
C209 C 0.18232 0.91658 0.62361 0.0
C210 C 0.19789 0.9383 0.63301 0.0
C211 C 0.18819 0.9512 0.64076 0.0
C212 C 0.07966 0.82411 0.61196 0.0
C213 C 0.05779 0.81082 0.6021 0.0
C214 C 0.07916 0.81884 0.62703 0.0
C215 C 0.05729 0.80119 0.63218 0.0
C216 C 0.0355 0.78808 0.62233 0.0
C217 C 0.03599 0.7929 0.60721 0.0
C218 C 0.16248 0.94163 0.63905 0.0
H219 H 0.1111 0.84274 0.53531 0.0
H220 H 0.09972 0.84184 0.56096 0.0
H221 H 0.17647 0.8741 0.57829 0.0
H222 H 0.18776 0.8755 0.55271 0.0
H223 H 0.09748 0.82449 0.58478 0.0
H224 H 0.1627 0.89653 0.59339 0.0
H225 H 0.11358 0.8681 0.6274 0.0
H226 H 0.12723 0.91312 0.62844 0.0
H227 H 0.19031 0.90701 0.61779 0.0
H228 H 0.21754 0.9449 0.63425 0.0
H229 H 0.05733 0.81461 0.59049 0.0
H230 H 0.09573 0.82826 0.63489 0.0
H231 H 0.1544 0.9513 0.64461 0.0
H232 H 0.01935 0.78316 0.59941 0.0
H233 H 0.05749 0.79755 0.64383 0.0
C234 C 0.94782 0.50197 0.81267 0.0
C235 C 0.96784 0.50104 0.81988 0.0
C236 C 0.9438 0.49937 0.79704 0.0
C237 C 0.9598 0.49592 0.78819 0.0
C238 C 0.98043 0.49599 0.79538 0.0
C239 C 0.98444 0.49858 0.81108 0.0
C240 C 0.95363 0.49029 0.77162 0.0
C241 C 0.94314 0.50209 0.76366 0.0
C242 C 0.9334 0.49406 0.74853 0.0
C243 C 0.93504 0.47456 0.74121 0.0
C244 C 0.94597 0.46298 0.74888 0.0
C245 C 0.95546 0.47104 0.76402 0.0
C246 C 0.94477 0.44059 0.74157 0.0
C247 C 0.92199 0.4209 0.73498 0.0
C248 C 0.96594 0.43835 0.74154 0.0
C249 C 0.9643 0.41665 0.735 0.0
C250 C 0.94136 0.39667 0.72862 0.0
C251 C 0.91964 0.5045 0.74071 0.0
C252 C 0.90345 0.50956 0.74832 0.0
C253 C 0.9217 0.50843 0.72546 0.0
C254 C 0.90781 0.51716 0.71798 0.0
C255 C 0.89175 0.5223 0.72564 0.0
C256 C 0.88974 0.51846 0.74087 0.0
C257 C 0.92025 0.39913 0.72868 0.0
H258 H 0.93491 0.50422 0.81914 0.0
H259 H 0.92754 0.49908 0.79191 0.0
H260 H 0.9932 0.49358 0.78887 0.0
H261 H 1.0 0.49771 0.81632 0.0
H262 H 0.94206 0.51723 0.76937 0.0
H263 H 0.96262 0.46111 0.77012 0.0
H264 H 0.92693 0.46765 0.72968 0.0
H265 H 0.90533 0.42207 0.7351 0.0
H266 H 0.98372 0.4534 0.74653 0.0
H267 H 0.98098 0.41553 0.735 0.0
H268 H 0.90097 0.5062 0.75996 0.0
H269 H 0.93419 0.50494 0.71932 0.0
H270 H 0.90216 0.38399 0.72427 0.0
H271 H 0.87731 0.52208 0.747 0.0
H272 H 0.90999 0.52034 0.70628 0.0
C273 C 0.54451 0.52724 0.80588 0.0
C274 C 0.53626 0.50775 0.81501 0.0
C275 C 0.54531 0.52289 0.7905 0.0
C276 C 0.53805 0.49897 0.78392 0.0
C277 C 0.52928 0.47939 0.79303 0.0
C278 C 0.52831 0.48373 0.80839 0.0
C279 C 0.54079 0.49462 0.76781 0.0
C280 C 0.56179 0.51173 0.76146 0.0
C281 C 0.56548 0.50713 0.74659 0.0
C282 C 0.5481 0.48482 0.7381 0.0
C283 C 0.5268 0.46743 0.74416 0.0
C284 C 0.52316 0.47282 0.75895 0.0
C285 C 0.50903 0.44324 0.7353 0.0
C286 C 0.50476 0.44128 0.71953 0.0
C287 C 0.49674 0.42163 0.74255 0.0
C288 C 0.48085 0.39881 0.7343 0.0
C289 C 0.47728 0.39667 0.7185 0.0
C290 C 0.58801 0.52536 0.74019 0.0
C291 C 0.59655 0.55082 0.74291 0.0
C292 C 0.60156 0.51757 0.73176 0.0
C293 C 0.62358 0.53492 0.72657 0.0
C294 C 0.63253 0.56039 0.72976 0.0
C295 C 0.61856 0.56813 0.73777 0.0
C296 C 0.48935 0.41829 0.71124 0.0
H297 H 0.55038 0.54589 0.81063 0.0
H298 H 0.55174 0.53831 0.78378 0.0
H299 H 0.52391 0.46081 0.78842 0.0
H300 H 0.52211 0.46839 0.81518 0.0
H301 H 0.57584 0.52828 0.7683 0.0
H302 H 0.50652 0.46005 0.76365 0.0
H303 H 0.55142 0.48097 0.72682 0.0
H304 H 0.5134 0.45747 0.71351 0.0
H305 H 0.49971 0.42211 0.75462 0.0
H306 H 0.47145 0.38283 0.74042 0.0
H307 H 0.58629 0.55738 0.74913 0.0
H308 H 0.59562 0.4981 0.72961 0.0
H309 H 0.48734 0.41751 0.69911 0.0
H310 H 0.62481 0.58763 0.74019 0.0
H311 H 0.63409 0.52841 0.72058 0.0
C312 C 0.59177 0.09451 0.82542 0.0
C313 C 0.56866 0.07945 0.83059 0.0
C314 C 0.59333 0.10292 0.8112 0.0
C315 C 0.57183 0.0962 0.80162 0.0
C316 C 0.54875 0.08031 0.80655 0.0
C317 C 0.54719 0.07226 0.82086 0.0
C318 C 0.57337 0.10644 0.78683 0.0
C319 C 0.5927 0.11067 0.77807 0.0
C320 C 0.59475 0.12125 0.7644 0.0
C321 C 0.5765 0.12687 0.75937 0.0
C322 C 0.55651 0.12187 0.76765 0.0
C323 C 0.55552 0.11227 0.7815 0.0
C324 C 0.53618 0.12595 0.76177 0.0
C325 C 0.54106 0.14706 0.75459 0.0
C326 C 0.51148 0.10849 0.76336 0.0
C327 C 0.49224 0.11225 0.75824 0.0
C328 C 0.4971 0.13353 0.75131 0.0
C329 C 0.61558 0.12586 0.75525 0.0
C330 C 0.63901 0.13199 0.76218 0.0
C331 C 0.6122 0.124 0.73946 0.0
C332 C 0.63152 0.12819 0.7309 0.0
C333 C 0.65474 0.13362 0.73777 0.0
C334 C 0.6582 0.13554 0.75357 0.0
C335 C 0.52172 0.15079 0.74939 0.0
H336 H 0.60878 0.10005 0.83241 0.0
H337 H 0.61145 0.11524 0.80791 0.0
H338 H 0.53175 0.07421 0.79942 0.0
H339 H 0.52902 0.06092 0.82439 0.0
H340 H 0.60584 0.10514 0.78176 0.0
H341 H 0.54089 0.10973 0.78828 0.0
H342 H 0.57759 0.13491 0.74889 0.0
H343 H 0.55986 0.16098 0.75327 0.0
H344 H 0.50696 0.09173 0.7685 0.0
H345 H 0.47346 0.09833 0.75961 0.0
H346 H 0.64269 0.13414 0.77429 0.0
H347 H 0.59448 0.11893 0.73356 0.0
H348 H 0.52608 0.16746 0.74419 0.0
H349 H 0.6756 0.13942 0.75937 0.0
H350 H 0.62807 0.12715 0.71882 0.0
C351 C 0.8074 0.59293 0.86597 0.0
C352 C 0.8017 0.6117 0.86389 0.0
C353 C 0.80165 0.58039 0.87886 0.0
C354 C 0.7901 0.58632 0.89008 0.0
C355 C 0.78359 0.60445 0.88772 0.0
C356 C 0.78925 0.61691 0.87481 0.0
C357 C 0.78622 0.57481 0.90454 0.0
C358 C 0.80434 0.57045 0.91138 0.0
C359 C 0.8018 0.56117 0.9254 0.0
C360 C 0.78101 0.5564 0.93275 0.0
C361 C 0.76183 0.55929 0.9259 0.0
C362 C 0.76482 0.56869 0.91176 0.0
C363 C 0.73859 0.5517 0.93335 0.0
C364 C 0.73043 0.53273 0.94293 0.0
C365 C 0.72421 0.56303 0.93102 0.0
C366 C 0.70237 0.55543 0.93788 0.0
C367 C 0.69448 0.53665 0.94762 0.0
C368 C 0.82015 0.55508 0.93208 0.0
C369 C 0.82528 0.53855 0.92393 0.0
C370 C 0.83133 0.56428 0.9469 0.0
C371 C 0.84699 0.55673 0.95354 0.0
C372 C 0.85126 0.53944 0.94556 0.0
C373 C 0.84046 0.53058 0.93068 0.0
C374 C 0.70919 0.52576 0.95015 0.0
H375 H 0.81708 0.58844 0.85788 0.0
H376 H 0.80658 0.56625 0.88013 0.0
H377 H 0.77483 0.60967 0.8961 0.0
H378 H 0.78412 0.6309 0.87349 0.0
H379 H 0.82086 0.57486 0.90602 0.0
H380 H 0.75026 0.5707 0.9061 0.0
H381 H 0.77973 0.54988 0.94375 0.0
H382 H 0.74025 0.52284 0.94485 0.0
H383 H 0.72979 0.57794 0.92395 0.0
H384 H 0.69166 0.56423 0.93537 0.0
H385 H 0.81673 0.53103 0.91254 0.0
H386 H 0.82765 0.57704 0.9534 0.0
H387 H 0.70455 0.51179 0.95783 0.0
H388 H 0.84343 0.51713 0.92437 0.0
H389 H 0.85499 0.56363 0.96508 0.0
C390 C 0.33459 0.14376 0.8844 0.0
C391 C 0.34005 0.16207 0.87457 0.0
C392 C 0.3435 0.15037 0.89965 0.0
C393 C 0.35806 0.17541 0.90539 0.0
C394 C 0.36305 0.19368 0.8956 0.0
C395 C 0.35416 0.18709 0.88039 0.0
C396 C 0.3694 0.18269 0.92126 0.0
C397 C 0.38037 0.17017 0.92783 0.0
C398 C 0.39391 0.17894 0.94207 0.0
C399 C 0.39615 0.20018 0.94988 0.0
C400 C 0.38489 0.21268 0.94368 0.0
C401 C 0.37128 0.20358 0.92942 0.0
C402 C 0.38902 0.23622 0.95162 0.0
C403 C 0.39038 0.23938 0.96739 0.0
C404 C 0.39316 0.25626 0.94354 0.0
C405 C 0.39925 0.27908 0.95106 0.0
C406 C 0.4017 0.28256 0.96685 0.0
C407 C 0.40736 0.1671 0.94834 0.0
C408 C 0.39518 0.14144 0.94917 0.0
C409 C 0.43267 0.18149 0.95333 0.0
C410 C 0.44567 0.17041 0.95887 0.0
C411 C 0.43354 0.14476 0.95971 0.0
C412 C 0.40813 0.13038 0.95495 0.0
C413 C 0.39678 0.2623 0.97492 0.0
H414 H 0.32352 0.12432 0.88028 0.0
H415 H 0.33913 0.13587 0.90694 0.0
H416 H 0.37463 0.21313 0.89956 0.0
H417 H 0.35912 0.20167 0.8731 0.0
H418 H 0.37967 0.15446 0.92152 0.0
H419 H 0.36236 0.21295 0.92455 0.0
H420 H 0.40731 0.20731 0.96066 0.0
H421 H 0.3869 0.22424 0.97397 0.0
H422 H 0.39254 0.25466 0.93141 0.0
H423 H 0.4024 0.29411 0.94445 0.0
H424 H 0.37565 0.13 0.94542 0.0
H425 H 0.44251 0.20129 0.95268 0.0
H426 H 0.39866 0.26429 0.98709 0.0
H427 H 0.39843 0.11054 0.95539 0.0
H428 H 0.46523 0.18188 0.96253 0.0
C429 C 0.75357 0.15003 0.86981 0.0
C430 C 0.77539 0.15449 0.86372 0.0
C431 C 0.75396 0.15633 0.88512 0.0
C432 C 0.77618 0.16721 0.89468 0.0
C433 C 0.79778 0.17079 0.8887 0.0
C434 C 0.79741 0.1646 0.87342 0.0
C435 C 0.77724 0.17596 0.91067 0.0
C436 C 0.75835 0.16191 0.91953 0.0
C437 C 0.75952 0.17039 0.93463 0.0
C438 C 0.77986 0.19317 0.94083 0.0
C439 C 0.79879 0.20756 0.9321 0.0
C440 C 0.79721 0.19882 0.91704 0.0
C441 C 0.81997 0.23202 0.93848 0.0
C442 C 0.81628 0.24847 0.94789 0.0
C443 C 0.84394 0.23951 0.93469 0.0
C444 C 0.86356 0.26315 0.93973 0.0
C445 C 0.85973 0.27981 0.94877 0.0
C446 C 0.7395 0.15552 0.94394 0.0
C447 C 0.71457 0.14474 0.93817 0.0
C448 C 0.7452 0.15219 0.95873 0.0
C449 C 0.72638 0.13829 0.96753 0.0
C450 C 0.70144 0.12753 0.96177 0.0
C451 C 0.69573 0.13097 0.94701 0.0
C452 C 0.83599 0.27209 0.95302 0.0
H453 H 0.73622 0.14197 0.8627 0.0
H454 H 0.73701 0.15342 0.88934 0.0
H455 H 0.81513 0.17876 0.8958 0.0
H456 H 0.81464 0.16856 0.86914 0.0
H457 H 0.74301 0.14411 0.91479 0.0
H458 H 0.81127 0.21023 0.91008 0.0
H459 H 0.78086 0.19977 0.95246 0.0
H460 H 0.79803 0.24343 0.95088 0.0
H461 H 0.84753 0.22712 0.92773 0.0
H462 H 0.88176 0.26847 0.93648 0.0
H463 H 0.70961 0.14717 0.92686 0.0
H464 H 0.76424 0.16011 0.96344 0.0
H465 H 0.83245 0.28463 0.95987 0.0
H466 H 0.67669 0.1227 0.94221 0.0
H467 H 0.73136 0.13613 0.97889 0.0
C468 C 0.65875 0.86557 0.14086 0.0
C469 C 0.67607 0.85927 0.14644 0.0
C470 C 0.64806 0.85806 0.12601 0.0
C471 C 0.65465 0.8443 0.11628 0.0
C472 C 0.6724 0.83841 0.12179 0.0
C473 C 0.68291 0.84572 0.13675 0.0
C474 C 0.64218 0.83543 0.10067 0.0
C475 C 0.63558 0.85028 0.09264 0.0
C476 C 0.62124 0.84117 0.07866 0.0
C477 C 0.61432 0.81728 0.07242 0.0
C478 C 0.62091 0.80221 0.08012 0.0
C479 C 0.63502 0.81143 0.0942 0.0
C480 C 0.61146 0.77635 0.07367 0.0
C481 C 0.58666 0.76187 0.06758 0.0
C482 C 0.62717 0.76642 0.07275 0.0
C483 C 0.61847 0.74291 0.06511 0.0
C484 C 0.59399 0.7291 0.0583 0.0
C485 C 0.61127 0.8554 0.07124 0.0
C486 C 0.60113 0.86711 0.07972 0.0
C487 C 0.60973 0.85546 0.05553 0.0
C488 C 0.59738 0.86608 0.04841 0.0
C489 C 0.5864 0.87691 0.05686 0.0
C490 C 0.58886 0.87779 0.0726 0.0
C491 C 0.57804 0.73856 0.05997 0.0
H492 H 0.65273 0.87554 0.14816 0.0
H493 H 0.634 0.86241 0.12233 0.0
H494 H 0.6781 0.82809 0.11456 0.0
H495 H 0.69631 0.84069 0.14079 0.0
H496 H 0.64125 0.86891 0.09736 0.0
H497 H 0.63922 0.79942 0.10042 0.0
H498 H 0.60296 0.81 0.06171 0.0
H499 H 0.57396 0.76879 0.06847 0.0
H500 H 0.64637 0.77721 0.07738 0.0
H501 H 0.63112 0.73598 0.064 0.0
H502 H 0.60167 0.86704 0.09182 0.0
H503 H 0.61767 0.84688 0.04872 0.0
H504 H 0.55891 0.72805 0.05517 0.0
H505 H 0.58038 0.8858 0.0794 0.0
H506 H 0.59618 0.86555 0.03627 0.0
C507 C 0.2002 0.81953 0.14712 0.0
C508 C 0.22117 0.82642 0.15722 0.0
C509 C 0.20096 0.81607 0.13167 0.0
C510 C 0.22276 0.81969 0.12599 0.0
C511 C 0.24407 0.82772 0.13601 0.0
C512 C 0.24323 0.8309 0.15151 0.0
C513 C 0.22258 0.81301 0.10983 0.0
C514 C 0.24102 0.82918 0.10139 0.0
C515 C 0.24102 0.82208 0.0862 0.0
C516 C 0.22234 0.79878 0.07945 0.0
C517 C 0.20394 0.78256 0.08781 0.0
C518 C 0.20416 0.78971 0.10295 0.0
C519 C 0.18455 0.7579 0.08089 0.0
C520 C 0.16716 0.75558 0.06932 0.0
C521 C 0.18273 0.73656 0.08631 0.0
C522 C 0.16366 0.71315 0.0803 0.0
C523 C 0.14584 0.7108 0.06902 0.0
C524 C 0.26091 0.83859 0.07744 0.0
C525 C 0.2651 0.86241 0.07549 0.0
C526 C 0.27565 0.8304 0.07084 0.0
C527 C 0.29446 0.84586 0.06251 0.0
C528 C 0.29845 0.86955 0.06037 0.0
C529 C 0.28357 0.87768 0.06685 0.0
C530 C 0.14774 0.73217 0.06354 0.0
H531 H 0.1829 0.81578 0.1512 0.0
H532 H 0.18431 0.80998 0.12415 0.0
H533 H 0.26106 0.8305 0.13191 0.0
H534 H 0.25971 0.83639 0.15905 0.0
H535 H 0.25548 0.84711 0.10665 0.0
H536 H 0.19005 0.77694 0.10942 0.0
H537 H 0.22226 0.79318 0.06774 0.0
H538 H 0.16825 0.77188 0.06507 0.0
H539 H 0.19601 0.73805 0.09525 0.0
H540 H 0.16244 0.69691 0.08473 0.0
H541 H 0.25385 0.86901 0.08046 0.0
H542 H 0.27274 0.81211 0.07226 0.0
H543 H 0.1342 0.73072 0.0548 0.0
H544 H 0.28645 0.89595 0.06539 0.0
H545 H 0.3057 0.83922 0.05757 0.0
C546 C 0.2405 0.40682 0.15927 0.0
C547 C 0.21721 0.38578 0.15996 0.0
C548 C 0.24555 0.41978 0.14649 0.0
C549 C 0.22729 0.41219 0.13424 0.0
C550 C 0.20402 0.39124 0.13502 0.0
C551 C 0.19907 0.37823 0.14767 0.0
C552 C 0.23204 0.42599 0.12068 0.0
C553 C 0.25383 0.43329 0.11366 0.0
C554 C 0.257 0.44432 0.10012 0.0
C555 C 0.23873 0.44906 0.09403 0.0
C556 C 0.2171 0.44215 0.10092 0.0
C557 C 0.21383 0.43056 0.11417 0.0
C558 C 0.19718 0.44542 0.09357 0.0
C559 C 0.20217 0.46865 0.08946 0.0
C560 C 0.17338 0.42489 0.08976 0.0
C561 C 0.15521 0.42734 0.08144 0.0
C562 C 0.16033 0.45046 0.0771 0.0
C563 C 0.27818 0.44921 0.09145 0.0
C564 C 0.3028 0.4637 0.09793 0.0
C565 C 0.27361 0.44016 0.07618 0.0
C566 C 0.29307 0.44613 0.06742 0.0
C567 C 0.31777 0.46167 0.0736 0.0
C568 C 0.32242 0.46998 0.08907 0.0
C569 C 0.18379 0.4712 0.08143 0.0
H570 H 0.25492 0.41302 0.16852 0.0
H571 H 0.26362 0.43592 0.14627 0.0
H572 H 0.1896 0.3847 0.12574 0.0
H573 H 0.18086 0.36228 0.14786 0.0
H574 H 0.26762 0.42915 0.11825 0.0
H575 H 0.197 0.42508 0.11943 0.0
H576 H 0.24098 0.45743 0.08357 0.0
H577 H 0.22039 0.48474 0.09227 0.0
H578 H 0.16913 0.40676 0.0927 0.0
H579 H 0.13725 0.41108 0.07817 0.0
H580 H 0.30683 0.47092 0.10968 0.0
H581 H 0.25483 0.42854 0.07095 0.0
H582 H 0.18819 0.48917 0.07809 0.0
H583 H 0.34115 0.48201 0.09424 0.0
H584 H 0.28866 0.43865 0.05571 0.0
C585 C 0.46336 0.92543 0.19921 0.0
C586 C 0.45876 0.94505 0.19773 0.0
C587 C 0.45761 0.91264 0.21199 0.0
C588 C 0.44696 0.91904 0.22354 0.0
C589 C 0.44173 0.9382 0.22186 0.0
C590 C 0.44761 0.95108 0.20913 0.0
C591 C 0.44222 0.90643 0.23754 0.0
C592 C 0.46016 0.90197 0.24456 0.0
C593 C 0.45643 0.89085 0.25805 0.0
C594 C 0.4341 0.88363 0.26427 0.0
C595 C 0.41608 0.8882 0.25761 0.0
C596 C 0.42031 0.8997 0.24425 0.0
C597 C 0.39348 0.88182 0.26516 0.0
C598 C 0.38092 0.85911 0.27124 0.0
C599 C 0.38553 0.89907 0.26748 0.0
C600 C 0.36629 0.89421 0.27635 0.0
C601 C 0.35459 0.87198 0.28307 0.0
C602 C 0.47628 0.88801 0.26616 0.0
C603 C 0.49145 0.88162 0.25835 0.0
C604 C 0.48041 0.89208 0.28195 0.0
C605 C 0.49903 0.88979 0.2897 0.0
C606 C 0.51448 0.88378 0.28193 0.0
C607 C 0.51035 0.87955 0.26614 0.0
C608 C 0.36172 0.85424 0.28005 0.0
H609 H 0.47206 0.92041 0.19069 0.0
H610 H 0.46164 0.8978 0.21287 0.0
H611 H 0.43371 0.94372 0.23058 0.0
H612 H 0.44356 0.96591 0.20826 0.0
H613 H 0.47754 0.90821 0.23985 0.0
H614 H 0.40638 0.90308 0.23898 0.0
H615 H 0.43091 0.87488 0.2746 0.0
H616 H 0.3863 0.84524 0.26943 0.0
H617 H 0.39495 0.91681 0.26302 0.0
H618 H 0.36133 0.90832 0.27849 0.0
H619 H 0.48868 0.87811 0.2462 0.0
H620 H 0.46948 0.89746 0.2884 0.0
H621 H 0.3527 0.83666 0.28471 0.0
H622 H 0.52196 0.87505 0.25977 0.0
H623 H 0.50125 0.89271 0.30186 0.0
C624 C 0.00562 0.49475 0.2139 0.0
C625 C 0.01824 0.51577 0.20621 0.0
C626 C 0.01301 0.49523 0.22904 0.0
C627 C 0.03318 0.51673 0.23677 0.0
C628 C 0.04585 0.53765 0.22901 0.0
C629 C 0.03845 0.53719 0.21394 0.0
C630 C 0.04143 0.5174 0.25279 0.0
C631 C 0.04338 0.49756 0.25788 0.0
C632 C 0.05334 0.49909 0.27268 0.0
C633 C 0.06097 0.52063 0.28244 0.0
C634 C 0.05955 0.54072 0.27746 0.0
C635 C 0.04929 0.53877 0.26275 0.0
C636 C 0.07163 0.5648 0.28691 0.0
C637 C 0.09593 0.57466 0.29368 0.0
C638 C 0.06008 0.57906 0.28807 0.0
C639 C 0.07297 0.60314 0.29535 0.0
C640 C 0.0977 0.61341 0.30139 0.0
C641 C 0.05779 0.47923 0.27761 0.0
C642 C 0.04098 0.45412 0.27283 0.0
C643 C 0.07948 0.48542 0.28684 0.0
C644 C 0.08424 0.46707 0.2912 0.0
C645 C 0.06763 0.44209 0.28627 0.0
C646 C 0.04594 0.43573 0.27705 0.0
C647 C 0.10887 0.59877 0.30078 0.0
H648 H 0.98986 0.47803 0.20827 0.0
H649 H 1.00279 0.47887 0.23474 0.0
H650 H 0.06184 0.55431 0.23451 0.0
H651 H 0.04889 0.55351 0.20826 0.0
H652 H 0.03847 0.48155 0.25004 0.0
H653 H 0.0484 0.55439 0.25884 0.0
H654 H 0.06859 0.52211 0.2939 0.0
H655 H 0.10539 0.56418 0.29282 0.0
H656 H 0.04133 0.57183 0.28299 0.0
H657 H 0.06402 0.61414 0.2956 0.0
H658 H 0.02399 0.44866 0.26585 0.0
H659 H 0.09322 0.50455 0.29042 0.0
H660 H 0.12789 0.60626 0.30543 0.0
H661 H 0.03281 0.41654 0.27314 0.0
H662 H 0.10133 0.47251 0.29808 0.0
C663 C 0.42513 0.49975 0.19997 0.0
C664 C 0.44797 0.50514 0.19505 0.0
C665 C 0.42315 0.50392 0.21517 0.0
C666 C 0.44389 0.51325 0.2259 0.0
C667 C 0.46658 0.51795 0.22104 0.0
C668 C 0.46863 0.51408 0.20581 0.0
C669 C 0.44201 0.51874 0.242 0.0
C670 C 0.42041 0.50357 0.24866 0.0
C671 C 0.41833 0.50925 0.26367 0.0
C672 C 0.43794 0.53005 0.27212 0.0
C673 C 0.45935 0.54575 0.26564 0.0
C674 C 0.46142 0.53988 0.25063 0.0
C675 C 0.47867 0.569 0.27442 0.0
C676 C 0.47172 0.58354 0.28308 0.0
C677 C 0.50388 0.5766 0.27452 0.0
C678 C 0.52172 0.598 0.2835 0.0
C679 C 0.51457 0.61204 0.29252 0.0
C680 C 0.39515 0.49471 0.27047 0.0
C681 C 0.37293 0.49204 0.26388 0.0
C682 C 0.39564 0.48578 0.28439 0.0
C683 C 0.37438 0.47481 0.29179 0.0
C684 C 0.35238 0.47298 0.2855 0.0
C685 C 0.35173 0.48143 0.27141 0.0
C686 C 0.48943 0.60477 0.29202 0.0
H687 H 0.40871 0.49245 0.19207 0.0
H688 H 0.40543 0.50036 0.21842 0.0
H689 H 0.48287 0.52477 0.229 0.0
H690 H 0.4866 0.5187 0.20246 0.0
H691 H 0.40522 0.48725 0.24226 0.0
H692 H 0.47766 0.55242 0.2455 0.0
H693 H 0.43617 0.53445 0.2837 0.0
H694 H 0.45249 0.57852 0.28293 0.0
H695 H 0.50973 0.5657 0.26795 0.0
H696 H 0.54101 0.60324 0.28367 0.0
H697 H 0.37224 0.49907 0.25322 0.0
H698 H 0.41264 0.48776 0.28969 0.0
H699 H 0.48342 0.61559 0.29852 0.0
H700 H 0.33489 0.47998 0.26628 0.0
H701 H 0.37534 0.4685 0.30267 0.0
Eu702 Eu 0.49308 0.99116 0.99348 0.0
Eu703 Eu 0.50558 0.01761 0.02844 0.0
C704 C 0.49515 0.04201 1.0009 0.0
C705 C 0.49687 0.98721 0.95187 0.0
C706 C 0.50938 0.01313 0.95256 0.0
C707 C 0.50776 0.98528 0.92647 0.0
C708 C 0.52086 0.02503 0.94029 0.0
C709 C 0.49613 0.97335 0.93877 0.0
C710 C 0.52034 0.0113 0.92709 0.0
C711 C 0.48539 0.97486 0.96501 0.0
O712 O 0.46963 0.98198 0.0275 0.0
O713 O 0.45651 0.97952 1.00272 0.0
C714 C 0.45184 0.97366 0.01645 0.0
O715 O 0.49198 0.96231 1.00758 0.0
O716 O 0.4942 0.03245 0.04706 0.0
O717 O 0.52929 0.03341 0.04967 0.0
O718 O 0.51698 0.98862 0.02822 0.0
C719 C 0.5067 0.96712 0.01995 0.0
O720 O 0.53431 0.0105 0.99924 0.0
O721 O 0.53926 0.0413 0.01683 0.0
O722 O 0.48889 0.03543 0.01427 0.0
O723 O 0.49981 0.97196 0.97478 0.0
O724 O 0.47215 0.98278 0.97147 0.0
O725 O 0.50379 0.03088 0.99252 0.0
C726 C 0.5082 0.02912 0.07145 0.0
C727 C 0.51045 0.00924 0.07614 0.0
C728 C 0.49652 0.03515 0.09602 0.0
C729 C 0.50607 0.00259 0.09077 0.0
C730 C 0.501 0.04183 0.08147 0.0
C731 C 0.49929 0.01565 0.10095 0.0
C732 C 0.51329 0.03714 0.05629 0.0
C733 C 0.54813 0.03216 1.00703 0.0
H734 H 0.5103 0.02421 0.9626 0.0
H735 H 0.50723 0.97413 0.91658 0.0
H736 H 0.52996 0.04503 0.94113 0.0
H737 H 0.48675 0.95334 0.93809 0.0
H738 H 0.51582 0.99902 0.06856 0.0
H739 H 0.49081 0.04527 0.1034 0.0
H740 H 0.50853 0.98759 0.0942 0.0
H741 H 0.49893 0.05706 0.07804 0.0
Eu742 Eu 0.02095 0.50555 0.99716 0.0
Eu743 Eu 0.98913 0.48247 0.02555 0.0
C744 C 0.97832 0.44849 0.99441 0.0
C745 C 0.03562 0.52436 0.95849 0.0
C746 C 0.01346 0.52448 0.95539 0.0
C747 C 0.03824 0.51964 0.9317 0.0
C748 C 1.00368 0.52204 0.94057 0.0
C749 C 0.04811 0.52226 0.94657 0.0
C750 C 0.01567 0.51907 0.92854 0.0
C751 C 0.04445 0.52411 0.97401 0.0
O752 O 0.02742 0.48878 0.03211 0.0
O753 O 0.03712 0.48472 1.00833 0.0
C754 C 0.0403 0.48398 0.02286 0.0
O755 O 0.04174 0.53266 0.01757 0.0
O756 O 0.979 0.4581 0.04346 0.0
O757 O 0.96281 0.48136 0.04066 0.0
O758 O 0.0078 0.52406 0.02955 0.0
C759 C 0.03073 0.53928 0.02724 0.0
O760 O 0.98975 0.51398 0.99567 0.0
O761 O 0.96203 0.48166 1.00748 0.0
O762 O 0.97956 0.4494 0.00915 0.0
O763 O 0.04065 0.53702 0.9844 0.0
O764 O 0.03904 0.50234 0.97781 0.0
O765 O 0.9891 0.46857 0.98749 0.0
C766 C 0.97063 0.47418 0.06529 0.0
C767 C 0.98933 0.4982 0.07085 0.0
C768 C 0.9614 0.46488 0.09078 0.0
C769 C 0.99386 0.5056 0.08628 0.0
C770 C 0.95677 0.45754 0.07532 0.0
C771 C 0.97989 0.48904 0.09641 0.0
C772 C 0.96548 0.46639 0.04908 0.0
C773 C 0.96697 0.49891 0.99844 0.0
H774 H 1.00337 0.52587 0.96442 0.0
H775 H 0.04779 0.51713 0.9227 0.0
H776 H 0.9865 0.52209 0.93854 0.0
H777 H 0.06509 0.52186 0.94877 0.0
H778 H 1.00035 0.51122 0.06324 0.0
H779 H 0.95023 0.45179 0.0983 0.0
H780 H 0.00847 0.5242 0.09031 0.0
H781 H 0.94231 0.43892 0.07119 0.0
Eu782 Eu 0.51872 0.50698 0.02702 0.0
Eu783 Eu 0.49822 0.50971 0.99287 0.0
C784 C 0.52796 0.55761 0.01581 0.0
C785 C 0.52151 0.49911 0.06819 0.0
C786 C 0.49565 0.48711 0.06721 0.0
C787 C 0.52345 0.50495 0.09536 0.0
C788 C 0.48378 0.48446 0.0802 0.0
C789 C 0.53534 0.50761 0.08233 0.0
C790 C 0.49757 0.4939 0.09439 0.0
C791 C 0.53403 0.50535 0.05449 0.0
O792 O 0.53857 0.52183 0.99218 0.0
O793 O 0.54263 0.50105 0.01134 0.0
C794 C 0.55015 0.51203 0.99912 0.0
O795 O 0.48686 0.46919 0.01868 0.0
O796 O 0.49936 0.53149 0.97463 0.0
O797 O 0.47463 0.49179 0.9717 0.0
O798 O 0.49379 0.4719 0.99405 0.0
C799 C 0.48418 0.45856 1.00511 0.0
O800 O 0.48403 0.50844 0.03037 0.0
O801 O 0.4653 0.49873 1.00599 0.0
O802 O 0.5075 0.5447 1.0068 0.0
O803 O 0.52671 0.4873 0.0438 0.0
O804 O 0.53641 0.52539 0.04937 0.0
O805 O 0.53902 0.5468 0.02207 0.0
C806 C 0.49227 0.51129 0.95036 0.0
C807 C 0.5161 0.5153 0.9489 0.0
C808 C 0.48458 0.50818 0.92323 0.0
C809 C 0.52428 0.51619 0.93467 0.0
C810 C 0.47648 0.50743 0.93747 0.0
C811 C 0.5087 0.51293 0.92169 0.0
C812 C 0.48413 0.51225 0.96527 0.0
C813 C 0.46472 0.502 0.0206 0.0
H814 H 0.48468 0.48057 0.05636 0.0
H815 H 0.5346 0.51263 0.10611 0.0
H816 H 0.46384 0.47558 0.07912 0.0
H817 H 0.55534 0.51716 0.08324 0.0
H818 H 0.52851 0.51819 0.95876 0.0
H819 H 0.47224 0.50582 0.91346 0.0
H820 H 0.54284 0.51957 0.93383 0.0
H821 H 0.45804 0.50435 0.93842 0.0
Eu822 Eu 0.16542 0.31596 0.32802 0.0
Eu823 Eu 0.16802 0.34821 0.35994 0.0
C824 C 0.14183 0.35091 0.32863 0.0
C825 C 0.17169 0.30256 0.2869 0.0
C826 C 0.17156 0.32358 0.28233 0.0
C827 C 0.18322 0.29573 0.26243 0.0
C828 C 0.17687 0.33041 0.26781 0.0
C829 C 0.17784 0.2889 0.2769 0.0
C830 C 0.18247 0.31638 0.25758 0.0
C831 C 0.1653 0.29455 0.30196 0.0
O832 O 0.14225 0.30821 0.3623 0.0
O833 O 0.12916 0.29309 0.33749 0.0
C834 C 0.1259 0.2916 0.35181 0.0
O835 O 0.17744 0.30018 0.34644 0.0
O836 O 0.14864 0.35739 0.37627 0.0
O837 O 0.18826 0.37311 0.38032 0.0
O838 O 0.19508 0.33477 0.36361 0.0
C839 C 0.19246 0.31336 0.3585 0.0
O840 O 0.20296 0.34999 0.33252 0.0
O841 O 0.19389 0.37651 0.34569 0.0
O842 O 0.14075 0.35009 0.34319 0.0
O843 O 0.1836 0.30335 0.3126 0.0
O844 O 0.14597 0.2946 0.30652 0.0
O845 O 0.15523 0.34392 0.3214 0.0
C846 C 0.16534 0.36327 0.40146 0.0
C847 C 0.1696 0.34464 0.40628 0.0
C848 C 0.15388 0.36877 0.4262 0.0
C849 C 0.16624 0.3383 0.42105 0.0
C850 C 0.15733 0.37514 0.4115 0.0
C851 C 0.15846 0.3504 0.43125 0.0
C852 C 0.16825 0.36992 0.3859 0.0
C853 C 0.20809 0.37247 0.33717 0.0
H854 H 0.16702 0.33452 0.28992 0.0
H855 H 0.18794 0.28476 0.25501 0.0
H856 H 0.17593 0.34629 0.26448 0.0
H857 H 0.1783 0.27278 0.28025 0.0
H858 H 0.17555 0.33504 0.39864 0.0
H859 H 0.14736 0.37814 0.43357 0.0
H860 H 0.17014 0.32421 0.42452 0.0
H861 H 0.1536 0.38931 0.40793 0.0
Eu862 Eu 0.67601 0.82984 0.32515 0.0
Eu863 Eu 0.65586 0.82698 0.35834 0.0
C864 C 0.63412 0.78027 0.33504 0.0
C865 C 0.69197 0.83944 0.28393 0.0
C866 C 0.67418 0.82397 0.27202 0.0
C867 C 0.71269 0.87024 0.26667 0.0
C868 C 0.67572 0.83145 0.2576 0.0
C869 C 0.71117 0.86274 0.28113 0.0
C870 C 0.69518 0.85449 0.25471 0.0
C871 C 0.69162 0.83019 0.29875 0.0
O872 O 0.68297 0.81328 0.36064 0.0
O873 O 0.70614 0.83303 0.34183 0.0
C874 C 0.7035 0.82213 0.35419 0.0
O875 O 0.68786 0.86889 0.33423 0.0
O876 O 0.63409 0.80366 0.3749 0.0
O877 O 0.65144 0.84354 0.37922 0.0
O878 O 0.69146 0.86317 0.35905 0.0
C879 C 0.69684 0.87778 0.34827 0.0
O880 O 0.64176 0.83304 0.32089 0.0
O881 O 0.63865 0.84501 0.34511 0.0
O882 O 0.62785 0.79419 0.34284 0.0
O883 O 0.70504 0.84621 0.31025 0.0
O884 O 0.67037 0.81293 0.30223 0.0
O885 O 0.65582 0.79007 0.33003 0.0
C886 C 0.64725 0.82062 0.40025 0.0
C887 C 0.66672 0.8412 0.40914 0.0
C888 C 0.64158 0.79585 0.4211 0.0
C889 C 0.67345 0.83911 0.4239 0.0
C890 C 0.63472 0.79798 0.40639 0.0
C891 C 0.66094 0.81641 0.43001 0.0
C892 C 0.63941 0.82233 0.3847 0.0
C893 C 0.63289 0.84255 0.3305 0.0
H894 H 0.65931 0.8058 0.27376 0.0
H895 H 0.72801 0.88802 0.26475 0.0
H896 H 0.66172 0.81906 0.24866 0.0
H897 H 0.72536 0.87496 0.29003 0.0
H898 H 0.67672 0.85892 0.40474 0.0
H899 H 0.63139 0.77823 0.42559 0.0
H900 H 0.68857 0.85521 0.43051 0.0
H901 H 0.61949 0.7819 0.39983 0.0
Eu902 Eu 0.17577 0.8296 0.36364 0.0
Eu903 Eu 0.1593 0.83466 0.32894 0.0
C904 C 0.17757 0.87941 0.35471 0.0
C905 C 0.18435 0.83209 0.40663 0.0
C906 C 0.18525 0.85469 0.41024 0.0
C907 C 0.17812 0.82292 0.43246 0.0
C908 C 0.1829 0.86148 0.42495 0.0
C909 C 0.18065 0.81624 0.4178 0.0
C910 C 0.17936 0.84567 0.43622 0.0
C911 C 0.1869 0.82449 0.3913 0.0
O912 O 0.20092 0.85292 0.33098 0.0
O913 O 0.20654 0.83319 0.35032 0.0
C914 C 0.21452 0.84603 0.33878 0.0
O915 O 0.15665 0.79148 0.35076 0.0
O916 O 0.16193 0.85672 0.31051 0.0
O917 O 0.13622 0.81721 0.30763 0.0
O918 O 0.16714 0.80343 0.3275 0.0
C919 C 0.16025 0.78673 0.33699 0.0
O920 O 0.13986 0.82937 0.36417 0.0
O921 O 0.12435 0.81229 0.33996 0.0
O922 O 0.16121 0.86645 0.34315 0.0
O923 O 0.16642 0.80862 0.38313 0.0
O924 O 0.20219 0.84184 0.38368 0.0
O925 O 0.18864 0.87007 0.36268 0.0
C926 C 0.15686 0.83535 0.28692 0.0
C927 C 0.1791 0.83507 0.28722 0.0
C928 C 0.15319 0.83096 0.25965 0.0
C929 C 0.1884 0.83288 0.27382 0.0
C930 C 0.14392 0.83323 0.27309 0.0
C931 C 0.17562 0.83084 0.25984 0.0
C932 C 0.14707 0.83745 0.30104 0.0
C933 C 0.12101 0.8168 0.35388 0.0
H934 H 0.18781 0.86708 0.40172 0.0
H935 H 0.17569 0.81048 0.44092 0.0
H936 H 0.18366 0.879 0.42748 0.0
H937 H 0.17982 0.7987 0.41519 0.0
H938 H 0.1893 0.83658 0.29783 0.0
H939 H 0.14256 0.82893 0.24913 0.0
H940 H 0.20573 0.833 0.27445 0.0
H941 H 0.1266 0.8332 0.27269 0.0
Eu942 Eu 0.82436 0.65907 0.66306 0.0
Eu943 Eu 0.8526 0.6874 0.69712 0.0
C944 C 0.84019 0.71478 0.67256 0.0
C945 C 0.81673 0.65299 0.62093 0.0
C946 C 0.8423 0.66842 0.62076 0.0
C947 C 0.81047 0.65971 0.59496 0.0
C948 C 0.85187 0.67943 0.60784 0.0
C949 C 0.80089 0.64857 0.60792 0.0
C950 C 0.83608 0.67554 0.59482 0.0
C951 C 0.80662 0.643 0.63496 0.0
O952 O 0.8138 0.65986 0.70062 0.0
O953 O 0.79375 0.65433 0.67705 0.0
C954 C 0.79365 0.653 0.69165 0.0
O955 O 0.8201 0.62784 0.67601 0.0
O956 O 0.85575 0.71065 0.71723 0.0
O957 O 0.88036 0.69589 0.71605 0.0
O958 O 0.85204 0.65118 0.69468 0.0
C959 C 0.83576 0.62981 0.68719 0.0
O960 O 0.86425 0.66946 0.6637 0.0
O961 O 0.88192 0.70355 0.6811 0.0
O962 O 0.83787 0.70988 0.68654 0.0
O963 O 0.8186 0.63469 0.64289 0.0
O964 O 0.8006 0.65657 0.64333 0.0
O965 O 0.84242 0.70022 0.6625 0.0
C966 C 0.86661 0.69895 0.73964 0.0
C967 C 0.84538 0.67643 0.74139 0.0
C968 C 0.87614 0.70689 0.7668 0.0
C969 C 0.83941 0.66932 0.75578 0.0
C970 C 0.88206 0.71397 0.75243 0.0
C971 C 0.85456 0.68463 0.76869 0.0
C972 C 0.87225 0.7073 0.72461 0.0
C973 C 0.88337 0.69063 0.66946 0.0
H974 H 0.85488 0.67227 0.63072 0.0
H975 H 0.79773 0.65652 0.58522 0.0
H976 H 0.8717 0.69113 0.6081 0.0
H977 H 0.78109 0.63693 0.60788 0.0
H978 H 0.83319 0.66456 0.73164 0.0
H979 H 0.88849 0.71894 0.77645 0.0
H980 H 0.82257 0.65219 0.75678 0.0
H981 H 0.89857 0.73136 0.75131 0.0
Eu982 Eu 0.35258 0.16745 0.66741 0.0
Eu983 Eu 0.32834 0.17651 0.69693 0.0
C984 C 0.30844 0.12174 0.68069 0.0
C985 C 0.36625 0.16659 0.62744 0.0
C986 C 0.35439 0.18015 0.62465 0.0
C987 C 0.36399 0.15671 0.60059 0.0
C988 C 0.34702 0.18167 0.60993 0.0
C989 C 0.37139 0.15522 0.61536 0.0
C990 C 0.3512 0.16947 0.59775 0.0
C991 C 0.37046 0.16193 0.64287 0.0
O992 O 0.35011 0.15893 0.70508 0.0
O993 O 0.378 0.1708 0.68755 0.0
C994 C 0.37124 0.16281 0.70065 0.0
O995 O 0.36313 0.20766 0.6701 0.0
O996 O 0.29765 0.16763 0.71035 0.0
O997 O 0.33368 0.19917 0.71785 0.0
O998 O 0.3653 0.21016 0.69554 0.0
C999 C 0.37166 0.22081 0.6832 0.0
O1000 O 0.31662 0.16437 0.65873 0.0
O1001 O 0.31331 0.18862 0.6776 0.0
O1002 O 0.3026 0.13699 0.6875 0.0
O1003 O 0.38221 0.18136 0.65275 0.0
O1004 O 0.35107 0.14419 0.64783 0.0
O1005 O 0.32949 0.12968 0.67492 0.0
C1006 C 0.31 0.1769 0.73666 0.0
C1007 C 0.31995 0.19507 0.74901 0.0
C1008 C 0.30011 0.1453 0.75376 0.0
C1009 C 0.32032 0.18852 0.76359 0.0
C1010 C 0.29995 0.15191 0.73914 0.0
C1011 C 0.31054 0.16355 0.76616 0.0
C1012 C 0.3115 0.18457 0.72134 0.0
C1013 C 0.30723 0.17773 0.66374 0.0
H1014 H 0.35008 0.18887 0.63388 0.0
H1015 H 0.36726 0.14693 0.59144 0.0
H1016 H 0.33752 0.19192 0.60811 0.0
H1017 H 0.38026 0.14442 0.61735 0.0
H1018 H 0.32795 0.21447 0.74734 0.0
H1019 H 0.29212 0.12588 0.75531 0.0
H1020 H 0.32893 0.20313 0.77281 0.0
H1021 H 0.29225 0.13747 0.72981 0.0
Eu1022 Eu 0.85548 0.16951 0.69723 0.0
Eu1023 Eu 0.84252 0.18295 0.66416 0.0
C1024 C 0.87703 0.22451 0.68987 0.0
C1025 C 0.84994 0.15372 0.73731 0.0
C1026 C 0.82431 0.14417 0.73541 0.0
C1027 C 0.84897 0.1552 0.76436 0.0
C1028 C 0.8111 0.14035 0.74793 0.0
C1029 C 0.86212 0.1589 0.75183 0.0
C1030 C 0.82334 0.14625 0.76259 0.0
C1031 C 0.86438 0.16072 0.72436 0.0
O1032 O 0.88021 0.18707 0.66378 0.0
O1033 O 0.87942 0.16246 0.68203 0.0
C1034 C 0.88892 0.17443 0.67039 0.0
O1035 O 0.82266 0.13526 0.68546 0.0
O1036 O 0.85425 0.20715 0.64615 0.0
O1037 O 0.81699 0.17593 0.64441 0.0
O1038 O 0.83232 0.1428 0.66147 0.0
C1039 C 0.82064 0.12734 0.67129 0.0
O1040 O 0.82426 0.17725 0.70031 0.0
O1041 O 0.8081 0.17053 0.67566 0.0
O1042 O 0.85692 0.21687 0.68069 0.0
O1043 O 0.85646 0.14422 0.71266 0.0
O1044 O 0.87069 0.18274 0.72061 0.0
O1045 O 0.88335 0.20868 0.69423 0.0
C1046 C 0.8363 0.18577 0.62218 0.0
C1047 C 0.83597 0.16338 0.61895 0.0
C1048 C 0.84168 0.1938 0.59613 0.0
C1049 C 0.83807 0.15606 0.60435 0.0
C1050 C 0.83936 0.20103 0.61073 0.0
C1051 C 0.84079 0.17112 0.59277 0.0
C1052 C 0.8337 0.19332 0.63747 0.0
C1053 C 0.80597 0.17224 0.69009 0.0
H1054 H 0.81462 0.1403 0.72426 0.0
H1055 H 0.8591 0.16036 0.77544 0.0
H1056 H 0.79137 0.13315 0.74612 0.0
H1057 H 0.88196 0.1666 0.75349 0.0
H1058 H 0.83396 0.1515 0.6277 0.0
H1059 H 0.84363 0.20568 0.58739 0.0
H1060 H 0.83769 0.13866 0.60214 0.0
H1061 H 0.8398 0.21843 0.61308 0.0
H1062 H 0.3474 0.88446 0.0652 0.0
H1063 H 0.29406 0.8911 0.03565 0.0
H1064 H 0.32729 0.91732 0.02034 0.0
H1065 H 0.39635 0.94735 0.06514 0.0
H1066 H 0.4204 0.93949 0.06583 0.0
H1067 H 0.39222 0.92059 0.07394 0.0
H1068 H 0.38564 0.88194 0.05737 0.0
H1069 H 0.41375 0.90077 0.04915 0.0
H1070 H 0.38511 0.88223 0.03725 0.0
H1071 H 0.36657 0.94192 1.00793 0.0
H1072 H 0.4092 0.96637 1.00096 0.0
H1073 H 0.43664 0.94523 0.03967 0.0
C1074 C 0.34278 0.89139 0.05545 0.0
C1075 C 0.31828 0.88573 0.05146 0.0
C1076 C 0.31282 0.89535 0.03882 0.0
C1077 C 0.33151 0.9101 0.03006 0.0
C1078 C 0.35553 0.91527 0.03425 0.0
C1079 C 0.36124 0.90647 0.04678 0.0
C1080 C 0.38861 0.91558 0.0493 0.0
C1081 C 0.40006 0.93171 0.06445 0.0
C1082 C 0.39356 0.89383 0.0482 0.0
C1083 C 0.39746 0.93081 0.03621 0.0
C1084 C 0.37812 0.9302 0.02753 0.0
C1085 C 0.38186 0.94264 0.0147 0.0
C1086 C 0.40608 0.95636 0.01078 0.0
C1087 C 0.42617 0.95777 0.01982 0.0
C1088 C 0.42166 0.94466 0.03261 0.0
H1089 H 0.13842 0.47858 0.08232 0.0
H1090 H 0.14089 0.42671 0.04915 0.0
H1091 H 0.11096 0.4302 0.03162 0.0
H1092 H 0.07255 0.45507 0.07458 0.0
H1093 H 0.07525 0.48509 0.07755 0.0
H1094 H 0.09745 0.47917 0.08735 0.0
H1095 H 0.13301 0.51656 0.07673 0.0
H1096 H 0.1109 0.52256 0.06687 0.0
H1097 H 0.13246 0.51799 0.05669 0.0
H1098 H 0.08244 0.44062 0.01737 0.0
H1099 H 0.05377 0.45419 1.00793 0.0
H1100 H 0.06682 0.49698 0.05089 0.0
C1101 C 0.1326 0.46803 0.07134 0.0
C1102 C 0.14192 0.45243 0.06698 0.0
C1103 C 0.13383 0.43867 0.05264 0.0
C1104 C 0.11694 0.44062 0.04263 0.0
C1105 C 0.10805 0.45614 0.04722 0.0
C1106 C 0.1153 0.46936 0.06129 0.0
C1107 C 0.10214 0.48398 0.06354 0.0
C1108 C 0.08588 0.4753 0.07653 0.0
C1109 C 0.12074 0.51193 0.06611 0.0
C1110 C 0.08654 0.47703 0.0485 0.0
C1111 C 0.09052 0.46119 0.03921 0.0
C1112 C 0.07899 0.45284 0.02457 0.0
C1113 C 0.06282 0.46074 0.0193 0.0
C1114 C 0.05797 0.47651 0.02869 0.0
C1115 C 0.06998 0.4847 0.04351 0.0
H1116 H 0.59961 0.68953 0.06465 0.0
H1117 H 0.56806 0.71531 0.03061 0.0
H1118 H 0.55019 0.67502 0.01535 0.0
H1119 H 0.61392 0.65161 0.03829 0.0
H1120 H 0.60577 0.62759 0.0506 0.0
H1121 H 0.61793 0.6592 0.05837 0.0
H1122 H 0.57941 0.64566 0.07279 0.0
H1123 H 0.5671 0.61408 0.06502 0.0
H1124 H 0.54905 0.629 0.06252 0.0
H1125 H 0.5329 0.63155 1.00483 0.0
H1126 H 0.51779 0.58704 0.9992 0.0
H1127 H 0.56097 0.58887 0.03958 0.0
C1128 C 0.58934 0.68678 0.05385 0.0
C1129 C 0.58508 0.70544 0.04882 0.0
C1130 C 0.57125 0.70112 0.03474 0.0
C1131 C 0.56118 0.67838 0.02595 0.0
C1132 C 0.56523 0.66019 0.03134 0.0
C1133 C 0.57908 0.66409 0.04489 0.0
C1134 C 0.57946 0.64086 0.04835 0.0
C1135 C 0.60584 0.64507 0.04893 0.0
C1136 C 0.56807 0.63188 0.06304 0.0
C1137 C 0.56323 0.62323 0.03478 0.0
C1138 C 0.55536 0.63488 0.0251 0.0
C1139 C 0.53915 0.62225 0.01221 0.0
C1140 C 0.53059 0.59695 0.00915 0.0
C1141 C 0.53829 0.58455 0.01892 0.0
C1142 C 0.55505 0.59796 0.03181 0.0
H1143 H 0.87288 0.30658 0.97656 0.0
H1144 H 0.89253 0.31108 0.93083 0.0
H1145 H 0.92583 0.35435 0.93774 0.0
H1146 H 0.8827 0.36779 0.98288 0.0
H1147 H 0.89545 0.37279 1.0022 0.0
H1148 H 0.87364 0.34192 0.99379 0.0
H1149 H 0.90505 0.32775 1.0009 0.0
H1150 H 0.92696 0.35859 0.00934 0.0
H1151 H 0.93556 0.34394 0.99487 0.0
H1152 H 0.9554 0.3976 0.9492 0.0
H1153 H 0.98061 0.43763 0.96477 0.0
H1154 H 0.94254 0.40479 1.00328 0.0
C1155 C 0.88423 0.31669 0.96803 0.0
C1156 C 0.8802 0.30549 0.95317 0.0
C1157 C 0.89552 0.31923 0.94232 0.0
C1158 C 0.91439 0.34383 0.94612 0.0
C1159 C 0.91781 0.35435 0.96084 0.0
C1160 C 0.9033 0.34121 0.97166 0.0
C1161 C 0.91078 0.35697 0.98663 0.0
C1162 C 0.88937 0.36005 0.99167 0.0
C1163 C 0.92015 0.34616 0.99864 0.0
C1164 C 0.93158 0.3811 0.98249 0.0
C1165 C 0.93527 0.37919 0.96754 0.0
C1166 C 0.95284 0.39928 0.96096 0.0
C1167 C 0.96701 0.42195 0.96988 0.0
C1168 C 0.96364 0.42429 0.98526 0.0
C1169 C 0.94577 0.4035 0.99161 0.0
H1170 H 0.671 0.56318 0.95543 0.0
H1171 H 0.66373 0.49044 0.95655 0.0
H1172 H 0.62779 0.47748 0.97058 0.0
H1173 H 0.6515 0.56864 0.99094 0.0
H1174 H 0.6334 0.58212 0.98464 0.0
H1175 H 0.65953 0.58659 0.97511 0.0
H1176 H 0.63156 0.56849 0.94982 0.0
H1177 H 0.60538 0.56421 0.95925 0.0
H1178 H 0.60418 0.53835 0.94843 0.0
H1179 H 0.59408 0.47288 0.98603 0.0
H1180 H 0.56103 0.47504 0.99849 0.0
H1181 H 0.58592 0.5481 0.9844 0.0
C1182 C 0.66181 0.54438 0.95836 0.0
C1183 C 0.67117 0.52827 0.95513 0.0
C1184 C 0.65809 0.50381 0.95937 0.0
C1185 C 0.63729 0.49603 0.96725 0.0
C1186 C 0.62905 0.51254 0.97049 0.0
C1187 C 0.64046 0.53597 0.96586 0.0
C1188 C 0.62694 0.54956 0.97016 0.0
C1189 C 0.64386 0.57312 0.98085 0.0
C1190 C 0.61639 0.5555 0.95608 0.0
C1191 C 0.60645 0.53022 0.97815 0.0
C1192 C 0.60827 0.50913 0.97838 0.0
C1193 C 0.59226 0.48916 0.98574 0.0
C1194 C 0.57365 0.49061 0.99287 0.0
C1195 C 0.57089 0.51165 0.99234 0.0
C1196 C 0.5875 0.53169 0.98485 0.0
H1197 H 0.42209 0.11227 0.98107 0.0
H1198 H 0.4765 0.15073 0.95042 0.0
H1199 H 0.49967 0.13041 0.95883 0.0
H1200 H 0.46592 0.11567 0.01137 0.0
H1201 H 0.44493 0.08541 0.01659 0.0
H1202 H 0.43304 0.10359 1.00854 0.0
H1203 H 0.40641 0.06764 0.98765 0.0
H1204 H 0.41814 0.04935 0.99566 0.0
H1205 H 0.42111 0.05512 0.97623 0.0
H1206 H 0.51489 0.10359 0.96896 0.0
H1207 H 0.52244 0.07325 0.98111 0.0
H1208 H 0.45959 0.05387 1.00634 0.0
C1209 C 0.43893 0.11642 0.9762 0.0
C1210 C 0.44759 0.13302 0.96512 0.0
C1211 C 0.46974 0.1382 0.95902 0.0
C1212 C 0.48296 0.12674 0.9637 0.0
C1213 C 0.47393 0.11043 0.97463 0.0
C1214 C 0.45256 0.10542 0.98091 0.0
C1215 C 0.44676 0.08693 0.99234 0.0
C1216 C 0.44772 0.0986 1.00815 0.0
C1217 C 0.42162 0.06337 0.98769 0.0
C1218 C 0.46791 0.08192 0.99125 0.0
C1219 C 0.48333 0.09565 0.98094 0.0
C1220 C 0.5032 0.09303 0.97723 0.0
C1221 C 0.5073 0.07574 0.98415 0.0
C1222 C 0.49177 0.06154 0.99477 0.0
C1223 C 0.47205 0.06493 0.99851 0.0
H1224 H 0.65846 0.12822 0.96496 0.0
H1225 H 0.69919 0.09241 0.97935 0.0
H1226 H 0.6656 0.06636 0.99428 0.0
H1227 H 0.63244 0.12834 1.00019 0.0
H1228 H 0.60317 0.12197 0.99102 0.0
H1229 H 0.63095 0.13873 0.98204 0.0
H1230 H 0.61111 0.10661 0.95846 0.0
H1231 H 0.58326 0.08987 0.96734 0.0
H1232 H 0.5989 0.07424 0.96054 0.0
H1233 H 0.62625 0.0418 1.00579 0.0
H1234 H 0.58397 0.02114 0.01367 0.0
H1235 H 0.56944 0.07386 0.9928 0.0
C1236 C 0.66032 0.11492 0.97128 0.0
C1237 C 0.68148 0.11239 0.97104 0.0
C1238 C 0.6833 0.0949 0.97954 0.0
C1239 C 0.66429 0.07997 0.98801 0.0
C1240 C 0.64367 0.0829 0.98797 0.0
C1241 C 0.64159 0.09999 0.97988 0.0
C1242 C 0.61715 0.09892 0.98141 0.0
C1243 C 0.62118 0.12345 0.98913 0.0
C1244 C 0.6017 0.09199 0.96602 0.0
C1245 C 0.60567 0.0783 0.99144 0.0
C1246 C 0.62129 0.06929 0.99508 0.0
C1247 C 0.61407 0.04901 1.00329 0.0
C1248 C 0.59015 0.03745 1.00774 0.0
C1249 C 0.57403 0.04648 1.00416 0.0
C1250 C 0.58191 0.06727 0.99607 0.0
H1251 H 0.90061 0.56322 0.95608 0.0
H1252 H 0.83297 0.49218 0.95203 0.0
H1253 H 0.85515 0.47418 0.96528 0.0
H1254 H 0.94084 0.53784 0.94941 0.0
H1255 H 0.96609 0.56092 0.96243 0.0
H1256 H 0.94484 0.56836 0.95288 0.0
H1257 H 0.93573 0.58168 0.97854 0.0
H1258 H 0.95691 0.57423 0.98816 0.0
H1259 H 0.9254 0.56023 0.99258 0.0
H1260 H 0.88407 0.46445 0.97987 0.0
H1261 H 0.91865 0.46245 0.9931 0.0
H1262 H 0.96859 0.53902 0.98629 0.0
C1263 C 0.8906 0.54389 0.95801 0.0
C1264 C 0.86512 0.529 0.95315 0.0
C1265 C 0.85251 0.50376 0.95569 0.0
C1266 C 0.86494 0.49344 0.96322 0.0
C1267 C 0.89006 0.50856 0.96792 0.0
C1268 C 0.90288 0.53314 0.96526 0.0
C1269 C 0.93 0.54503 0.97111 0.0
C1270 C 0.94641 0.55354 0.95818 0.0
C1271 C 0.93744 0.56657 0.98333 0.0
C1272 C 0.93031 0.52339 0.97767 0.0
C1273 C 0.90702 0.50261 0.97579 0.0
C1274 C 0.90244 0.48054 0.98131 0.0
C1275 C 0.92219 0.47963 0.98887 0.0
C1276 C 0.94633 0.50055 0.9907 0.0
C1277 C 0.95038 0.52268 0.98496 0.0
H1278 H 0.43654 0.32757 0.95893 0.0
H1279 H 0.38704 0.29413 0.99303 0.0
H1280 H 0.40338 0.33547 1.00684 0.0
H1281 H 0.48772 0.37419 0.98314 0.0
H1282 H 0.4961 0.39747 0.97028 0.0
H1283 H 0.4807 0.36524 0.96315 0.0
H1284 H 0.44616 0.36952 0.94863 0.0
H1285 H 0.46155 0.40181 0.95562 0.0
H1286 H 0.42978 0.38166 0.95867 0.0
H1287 H 0.42606 0.38049 0.01725 0.0
H1288 H 0.45142 0.42598 0.02264 0.0
H1289 H 0.48406 0.42971 0.98088 0.0
C1290 C 0.42875 0.32885 0.96916 0.0
C1291 C 0.41049 0.30748 0.97488 0.0
C1292 C 0.4013 0.31013 0.98851 0.0
C1293 C 0.41036 0.33355 0.9964 0.0
C1294 C 0.42846 0.35415 0.99045 0.0
C1295 C 0.43736 0.35203 0.97707 0.0
C1296 C 0.45659 0.37704 0.97298 0.0
C1297 C 0.48176 0.37856 0.97236 0.0
C1298 C 0.448 0.38285 0.9581 0.0
C1299 C 0.45716 0.3936 0.98619 0.0
C1300 C 0.44095 0.38005 0.99621 0.0
C1301 C 0.43869 0.3913 0.00944 0.0
C1302 C 0.45324 0.41711 0.01243 0.0
C1303 C 0.46962 0.43134 1.00215 0.0
C1304 C 0.47156 0.41934 0.98889 0.0
H1305 H 0.14791 0.67091 0.05682 0.0
H1306 H 0.09679 0.69529 0.06848 0.0
H1307 H 0.06154 0.65342 0.05986 0.0
H1308 H 0.11149 0.63298 0.02283 0.0
H1309 H 0.11986 0.6096 0.0252 0.0
H1310 H 0.14088 0.64119 0.03276 0.0
H1311 H 0.1422 0.62688 0.05918 0.0
H1312 H 0.12107 0.59526 0.05171 0.0
H1313 H 0.11374 0.60906 0.06734 0.0
H1314 H 0.03214 0.60857 0.05081 0.0
H1315 H 0.01032 0.56509 0.03944 0.0
H1316 H 0.08071 0.57084 0.03224 0.0
C1317 C 0.12926 0.66732 0.05756 0.0
C1318 C 0.12489 0.6861 0.06334 0.0
C1319 C 0.10035 0.68103 0.06402 0.0
C1320 C 0.08031 0.65734 0.05923 0.0
C1321 C 0.08521 0.63913 0.05365 0.0
C1322 C 0.10906 0.64393 0.05259 0.0
C1323 C 0.10926 0.62142 0.04557 0.0
C1324 C 0.12107 0.62661 0.03071 0.0
C1325 C 0.12234 0.61264 0.05661 0.0
C1326 C 0.08179 0.60317 0.0429 0.0
C1327 C 0.06825 0.61364 0.04782 0.0
C1328 C 0.04253 0.60021 0.04683 0.0
C1329 C 0.03032 0.57552 0.04042 0.0
C1330 C 0.04384 0.56469 0.0349 0.0
C1331 C 0.0699 0.57871 0.03626 0.0
H1332 H 0.36504 0.46894 0.08005 0.0
H1333 H 0.3171 0.47305 0.04458 0.0
H1334 H 0.34935 0.48405 0.0275 0.0
H1335 H 0.42138 0.52146 0.07073 0.0
H1336 H 0.44087 0.50846 0.07444 0.0
H1337 H 0.41451 0.50014 0.08477 0.0
H1338 H 0.39663 0.45394 0.07674 0.0
H1339 H 0.42291 0.46087 0.06668 0.0
H1340 H 0.39218 0.44302 0.05708 0.0
H1341 H 0.38593 0.49282 0.01376 0.0
H1342 H 0.42533 0.50076 1.00471 0.0
H1343 H 0.4508 0.49325 0.04921 0.0
C1344 C 0.36139 0.47243 0.06876 0.0
C1345 C 0.33819 0.46966 0.06367 0.0
C1346 C 0.33432 0.47432 0.04872 0.0
C1347 C 0.35266 0.48082 0.03892 0.0
C1348 C 0.37504 0.48296 0.0442 0.0
C1349 C 0.37963 0.47917 0.0588 0.0
C1350 C 0.40538 0.48269 0.06155 0.0
C1351 C 0.42146 0.50447 0.07361 0.0
C1352 C 0.4042 0.45871 0.06577 0.0
C1353 C 0.41434 0.48872 0.04619 0.0
C1354 C 0.39651 0.48874 0.03635 0.0
C1355 C 0.40013 0.49306 0.02139 0.0
C1356 C 0.42257 0.49749 0.01635 0.0
C1357 C 0.44128 0.49779 0.02623 0.0
C1358 C 0.43703 0.49344 0.04139 0.0
H1359 H 0.58639 0.91996 0.06463 0.0
H1360 H 0.55254 0.85482 0.03205 0.0
H1361 H 0.52686 0.86982 0.01972 0.0
H1362 H 0.53129 0.92401 0.06823 0.0
H1363 H 0.54766 0.95735 0.06984 0.0
H1364 H 0.5631 0.9413 0.07627 0.0
H1365 H 0.59753 0.96419 0.05901 0.0
H1366 H 0.58229 0.98041 0.05262 0.0
H1367 H 0.5892 0.96268 0.03919 0.0
H1368 H 0.50523 0.89211 0.01083 0.0
H1369 H 0.49072 0.92117 1.00521 0.0
H1370 H 0.53851 0.97142 0.04386 0.0
C1371 C 0.57344 0.90877 0.05497 0.0
C1372 C 0.57147 0.88626 0.04927 0.0
C1373 C 0.55457 0.87229 0.03647 0.0
C1374 C 0.53976 0.88054 0.02948 0.0
C1375 C 0.54208 0.90275 0.03544 0.0
C1376 C 0.55856 0.91672 0.04786 0.0
C1377 C 0.55798 0.94026 0.05177 0.0
C1378 C 0.54949 0.94074 0.06746 0.0
C1379 C 0.58325 0.96324 0.05057 0.0
C1380 C 0.53873 0.93743 0.03955 0.0
C1381 C 0.52965 0.9156 0.03031 0.0
C1382 C 0.51213 0.90923 0.01802 0.0
C1383 C 0.50398 0.92585 0.01494 0.0
C1384 C 0.51345 0.94859 0.02409 0.0
C1385 C 0.53079 0.95417 0.03667 0.0
H1386 H 0.02512 0.22435 0.40829 0.0
H1387 H 0.98 0.16868 0.37116 0.0
H1388 H 0.0131 0.18955 0.3548 0.0
H1389 H 0.05052 0.27588 0.38661 0.0
H1390 H 0.08063 0.29105 0.39718 0.0
H1391 H 0.05369 0.27121 0.40609 0.0
H1392 H 0.0736 0.24521 0.41369 0.0
H1393 H 0.10056 0.26497 0.40475 0.0
H1394 H 0.08396 0.23203 0.3994 0.0
H1395 H 0.05038 0.21744 0.34216 0.0
H1396 H 0.08951 0.25022 0.33432 0.0
H1397 H 0.11021 0.28721 0.37982 0.0
C1398 C 0.02222 0.21658 0.39672 0.0
C1399 C 1.00007 0.19482 0.39102 0.0
C1400 C 0.99701 0.18512 0.37583 0.0
C1401 C 0.01563 0.19689 0.36642 0.0
C1402 C 0.03725 0.21829 0.37239 0.0
C1403 C 0.04068 0.22802 0.38719 0.0
C1404 C 0.06552 0.25144 0.39075 0.0
C1405 C 0.06239 0.27371 0.39543 0.0
C1406 C 0.08187 0.2482 0.40286 0.0
C1407 C 0.07536 0.25345 0.37559 0.0
C1408 C 0.05882 0.23417 0.36515 0.0
C1409 C 0.06358 0.23255 0.35026 0.0
C1410 C 0.08583 0.25125 0.34591 0.0
C1411 C 0.103 0.2712 0.35645 0.0
C1412 C 0.09764 0.27209 0.37149 0.0
H1413 H 0.77849 0.76994 0.39972 0.0
H1414 H 0.84364 0.84266 0.3999 0.0
H1415 H 0.81864 0.85646 0.38585 0.0
H1416 H 0.74959 0.76599 0.36381 0.0
H1417 H 0.71867 0.75193 0.36927 0.0
H1418 H 0.74157 0.74723 0.37927 0.0
H1419 H 0.73416 0.76401 0.40438 0.0
H1420 H 0.71105 0.76855 0.39448 0.0
H1421 H 0.73672 0.79407 0.40602 0.0
H1422 H 0.78756 0.86168 0.37019 0.0
H1423 H 0.75094 0.85962 0.35664 0.0
H1424 H 0.70482 0.78559 0.3691 0.0
C1425 C 0.78756 0.78891 0.39709 0.0
C1426 C 0.81337 0.80493 0.40073 0.0
C1427 C 0.82421 0.82958 0.39685 0.0
C1428 C 0.81009 0.83776 0.38897 0.0
C1429 C 0.78494 0.82135 0.38532 0.0
C1430 C 0.77362 0.79763 0.38952 0.0
C1431 C 0.74607 0.784 0.38453 0.0
C1432 C 0.73855 0.76093 0.37357 0.0
C1433 C 0.73112 0.77727 0.39816 0.0
C1434 C 0.74383 0.80367 0.37665 0.0
C1435 C 0.76658 0.82496 0.3771 0.0
C1436 C 0.76959 0.84525 0.36992 0.0
C1437 C 0.74875 0.84385 0.36218 0.0
C1438 C 0.72516 0.8225 0.36191 0.0
C1439 C 0.72266 0.80221 0.3693 0.0
H1440 H 0.24224 0.01127 0.4035 0.0
H1441 H 0.21551 0.03719 0.36688 0.0
H1442 H 0.19533 0.99551 0.35312 0.0
H1443 H 0.2561 0.97182 0.37981 0.0
H1444 H 0.24674 0.94829 0.39255 0.0
H1445 H 0.25868 0.9801 0.39972 0.0
H1446 H 0.21896 0.96739 0.41278 0.0
H1447 H 0.20683 0.93555 0.40555 0.0
H1448 H 0.18924 0.95063 0.40176 0.0
H1449 H 0.17756 0.95118 0.34347 0.0
H1450 H 0.16524 0.90732 0.33781 0.0
H1451 H 0.20492 0.9104 0.38014 0.0
C1452 C 0.23237 0.00828 0.39253 0.0
C1453 C 0.23028 0.02752 0.38636 0.0
C1454 C 0.21695 0.02268 0.37201 0.0
C1455 C 0.20553 0.99909 0.36405 0.0
C1456 C 0.20774 0.98054 0.37052 0.0
C1457 C 0.22098 0.98486 0.38436 0.0
C1458 C 0.22082 0.96173 0.38863 0.0
C1459 C 0.24715 0.96573 0.39027 0.0
C1460 C 0.20821 0.95333 0.40303 0.0
C1461 C 0.2054 0.94377 0.37501 0.0
C1462 C 0.19794 0.95499 0.36476 0.0
C1463 C 0.18335 0.94217 0.35138 0.0
C1464 C 0.17638 0.91723 0.34829 0.0
C1465 C 0.18414 0.90541 0.35851 0.0
C1466 C 0.19877 0.91892 0.37207 0.0
H1467 H 0.5591 0.64969 0.28585 0.0
H1468 H 0.51123 0.62481 0.32153 0.0
H1469 H 0.53897 0.66412 0.33717 0.0
H1470 H 0.61847 0.68467 0.31111 0.0
H1471 H 0.63168 0.7088 0.29885 0.0
H1472 H 0.60967 0.67753 0.29112 0.0
H1473 H 0.58245 0.69302 0.27827 0.0
H1474 H 0.60421 0.72425 0.28606 0.0
H1475 H 0.57227 0.71041 0.28954 0.0
H1476 H 0.56811 0.70745 0.34744 0.0
H1477 H 0.59901 0.75189 0.35257 0.0
H1478 H 0.62959 0.74863 0.31095 0.0
C1479 C 0.55488 0.65227 0.29712 0.0
C1480 C 0.53298 0.6343 0.30247 0.0
C1481 C 0.52777 0.6385 0.31716 0.0
C1482 C 0.54349 0.66067 0.32616 0.0
C1483 C 0.56451 0.67833 0.32039 0.0
C1484 C 0.57047 0.67432 0.3063 0.0
C1485 C 0.59337 0.69705 0.30247 0.0
C1486 C 0.61455 0.69169 0.30079 0.0
C1487 C 0.58772 0.70675 0.28825 0.0
C1488 C 0.59877 0.71468 0.31637 0.0
C1489 C 0.58193 0.70341 0.32658 0.0
C1490 C 0.58174 0.71638 0.3397 0.0
C1491 C 0.59922 0.74161 0.34246 0.0
C1492 C 0.61671 0.7535 0.3322 0.0
C1493 C 0.61669 0.73979 0.3191 0.0
H1494 H 0.31675 0.88273 0.28102 0.0
H1495 H 0.3506 0.85181 0.30968 0.0
H1496 H 0.31977 0.84381 0.3275 0.0
H1497 H 0.3019 0.91278 0.31177 0.0
H1498 H 0.27302 0.90636 0.30196 0.0
H1499 H 0.29821 0.91047 0.29152 0.0
H1500 H 0.27019 0.86735 0.27634 0.0
H1501 H 0.24515 0.86409 0.28658 0.0
H1502 H 0.25387 0.84062 0.28637 0.0
H1503 H 0.28477 0.83794 0.34189 0.0
H1504 H 0.24707 0.83357 0.35161 0.0
H1505 H 0.23574 0.8686 0.31391 0.0
C1506 C 0.31782 0.8745 0.29111 0.0
C1507 C 0.33603 0.86771 0.29385 0.0
C1508 C 0.3366 0.85677 0.30715 0.0
C1509 C 0.31928 0.85234 0.31744 0.0
C1510 C 0.30151 0.85906 0.31435 0.0
C1511 C 0.30062 0.86992 0.30154 0.0
C1512 C 0.27922 0.87485 0.30081 0.0
C1513 C 0.28866 0.90278 0.30156 0.0
C1514 C 0.26103 0.86085 0.28668 0.0
C1515 C 0.26787 0.86444 0.31501 0.0
C1516 C 0.28124 0.85572 0.32273 0.0
C1517 C 0.2742 0.84481 0.33599 0.0
C1518 C 0.25272 0.84242 0.34143 0.0
C1519 C 0.23837 0.85077 0.33358 0.0
C1520 C 0.24632 0.86217 0.32027 0.0
H1521 H 0.08353 0.43638 0.31406 0.0
H1522 H 0.06626 0.40546 0.26735 0.0
H1523 H 0.08114 0.37676 0.27346 0.0
H1524 H 0.13883 0.43616 0.32077 0.0
H1525 H 0.13446 0.42764 0.33966 0.0
H1526 H 0.12032 0.44406 0.33194 0.0
H1527 H 0.0773 0.40941 0.33749 0.0
H1528 H 0.09135 0.39295 0.34535 0.0
H1529 H 0.06656 0.3778 0.33032 0.0
H1530 H 0.1024 0.35526 0.28405 0.0
H1531 H 0.12523 0.33951 0.29881 0.0
H1532 H 0.12706 0.38314 0.33892 0.0
C1533 C 0.08255 0.42329 0.30519 0.0
C1534 C 0.07374 0.42303 0.29025 0.0
C1535 C 0.07269 0.4057 0.2789 0.0
C1536 C 0.08119 0.38944 0.28225 0.0
C1537 C 0.09031 0.39057 0.29704 0.0
C1538 C 0.09069 0.40677 0.30838 0.0
C1539 C 0.10218 0.40484 0.32324 0.0
C1540 C 0.12532 0.42965 0.32925 0.0
C1541 C 0.08321 0.3957 0.33478 0.0
C1542 C 0.10884 0.3855 0.31841 0.0
C1543 C 0.10186 0.37754 0.30325 0.0
C1544 C 0.10755 0.361 0.29597 0.0
C1545 C 0.12064 0.35229 0.30443 0.0
C1546 C 0.12769 0.35998 0.32001 0.0
C1547 C 0.12151 0.37664 0.32708 0.0
H1548 H 0.33182 0.42959 0.29817 0.0
H1549 H 0.32336 0.49307 0.29143 0.0
H1550 H 0.28699 0.476 0.30591 0.0
H1551 H 0.26775 0.38519 0.29341 0.0
H1552 H 0.27012 0.3666 0.30728 0.0
H1553 H 0.29612 0.38479 0.29721 0.0
H1554 H 0.32334 0.4063 0.32252 0.0
H1555 H 0.29731 0.38831 0.33267 0.0
H1556 H 0.31372 0.42162 0.33591 0.0
H1557 H 0.25109 0.45128 0.32106 0.0
H1558 H 0.21653 0.41915 0.33321 0.0
H1559 H 0.24881 0.37205 0.32913 0.0
C1560 C 0.32243 0.43998 0.29987 0.0
C1561 C 0.33035 0.46265 0.29381 0.0
C1562 C 0.31739 0.47557 0.29598 0.0
C1563 C 0.2969 0.46613 0.30427 0.0
C1564 C 0.28962 0.44372 0.31019 0.0
C1565 C 0.30188 0.43072 0.30794 0.0
C1566 C 0.2896 0.40639 0.31464 0.0
C1567 C 0.28034 0.38446 0.3024 0.0
C1568 C 0.30704 0.40563 0.32718 0.0
C1569 C 0.26839 0.40759 0.32093 0.0
C1570 C 0.26881 0.42936 0.31848 0.0
C1571 C 0.25062 0.43419 0.32308 0.0
C1572 C 0.23118 0.41596 0.33004 0.0
C1573 C 0.23006 0.3932 0.33206 0.0
C1574 C 0.24917 0.38929 0.32769 0.0
H1575 H 0.5314 0.85104 0.27614 0.0
H1576 H 0.54425 0.91361 0.30696 0.0
H1577 H 0.57588 0.90982 0.32227 0.0
H1578 H 0.53882 0.81567 0.30316 0.0
H1579 H 0.55512 0.80491 0.29189 0.0
H1580 H 0.53367 0.81262 0.28293 0.0
H1581 H 0.56798 0.84357 0.26801 0.0
H1582 H 0.58951 0.83583 0.27685 0.0
H1583 H 0.59669 0.8676 0.278 0.0
H1584 H 0.60385 0.89785 0.33522 0.0
H1585 H 0.62934 0.8804 0.34411 0.0
H1586 H 0.60127 0.82736 0.30425 0.0
C1587 C 0.54112 0.86421 0.28596 0.0
C1588 C 0.53492 0.88239 0.29043 0.0
C1589 C 0.54807 0.89908 0.30347 0.0
C1590 C 0.56626 0.89724 0.3122 0.0
C1591 C 0.57151 0.87885 0.30767 0.0
C1592 C 0.55964 0.86283 0.29476 0.0
C1593 C 0.56894 0.84472 0.29252 0.0
C1594 C 0.54788 0.81789 0.29264 0.0
C1595 C 0.58153 0.84814 0.27798 0.0
C1596 C 0.58756 0.85287 0.30633 0.0
C1597 C 0.58858 0.87252 0.31491 0.0
C1598 C 0.60343 0.88264 0.32853 0.0
C1599 C 0.61773 0.87249 0.33352 0.0
C1600 C 0.61732 0.85257 0.32486 0.0
C1601 C 0.60213 0.84275 0.31102 0.0
H1602 H 0.08596 0.63981 0.32154 0.0
H1603 H 0.1425 0.64684 0.29343 0.0
H1604 H 0.16619 0.69186 0.30097 0.0
H1605 H 0.08675 0.69451 0.31385 0.0
H1606 H 0.0826 0.70263 0.33265 0.0
H1607 H 0.0709 0.67068 0.32596 0.0
H1608 H 0.09588 0.66641 0.34857 0.0
H1609 H 0.10763 0.69838 0.35536 0.0
H1610 H 0.12875 0.68739 0.35198 0.0
H1611 H 0.18111 0.73612 0.30905 0.0
H1612 H 0.18821 0.77712 0.31894 0.0
H1613 H 0.12373 0.74162 0.34325 0.0
C1614 C 0.10349 0.65086 0.31716 0.0
C1615 C 0.11254 0.63995 0.30698 0.0
C1616 C 0.13547 0.65487 0.30141 0.0
C1617 C 0.149 0.68042 0.30558 0.0
C1618 C 0.13948 0.69067 0.3155 0.0
C1619 C 0.11744 0.67638 0.3214 0.0
C1620 C 0.11111 0.69221 0.33156 0.0
C1621 C 0.08638 0.68986 0.32564 0.0
C1622 C 0.11083 0.68571 0.34784 0.0
C1623 C 0.13267 0.71767 0.33009 0.0
C1624 C 0.14876 0.71633 0.32073 0.0
C1625 C 0.16896 0.73743 0.31664 0.0
C1626 C 0.17278 0.76057 0.32224 0.0
C1627 C 0.15669 0.76232 0.33197 0.0
C1628 C 0.13659 0.74065 0.3361 0.0
H1629 H 0.79905 0.99913 0.39851 0.0
H1630 H 0.78257 0.04215 0.36843 0.0
H1631 H 0.75245 0.00361 0.35275 0.0
H1632 H 0.79337 0.95254 0.3711 0.0
H1633 H 0.77863 0.92782 0.38281 0.0
H1634 H 0.79967 0.95887 0.39128 0.0
H1635 H 0.76577 0.95742 0.40704 0.0
H1636 H 0.74468 0.92631 0.3987 0.0
H1637 H 0.73622 0.94985 0.39764 0.0
H1638 H 0.7244 0.96003 0.34016 0.0
H1639 H 0.69852 0.91489 0.33285 0.0
H1640 H 0.73148 0.9011 0.37242 0.0
C1641 C 0.78892 1.0006 0.38877 0.0
C1642 C 0.79333 0.02383 0.38474 0.0
C1643 C 0.77992 0.02469 0.37166 0.0
C1644 C 0.76265 0.00287 0.36271 0.0
C1645 C 0.75883 0.98035 0.36707 0.0
C1646 C 0.77141 0.97909 0.37989 0.0
C1647 C 0.7634 0.95262 0.38245 0.0
C1648 C 0.78506 0.94768 0.38187 0.0
C1649 C 0.75183 0.94618 0.39734 0.0
C1650 C 0.74428 0.93912 0.36906 0.0
C1651 C 0.74209 0.95539 0.36021 0.0
C1652 C 0.72588 0.94712 0.34706 0.0
C1653 C 0.71136 0.92151 0.34296 0.0
C1654 C 0.71297 0.90463 0.35213 0.0
C1655 C 0.72971 0.91362 0.36529 0.0
H1656 H 0.01741 0.80154 0.40683 0.0
H1657 H 0.96485 0.73764 0.37606 0.0
H1658 H 0.99787 0.74466 0.36015 0.0
H1659 H 0.05308 0.83931 0.37973 0.0
H1660 H 0.08234 0.85151 0.39098 0.0
H1661 H 0.05453 0.84185 0.39996 0.0
H1662 H 0.06334 0.81213 0.4146 0.0
H1663 H 0.0913 0.82187 0.40576 0.0
H1664 H 0.06826 0.7895 0.40439 0.0
H1665 H 0.03633 0.75947 0.34698 0.0
H1666 H 0.07828 0.77871 0.33884 0.0
H1667 H 0.10637 0.83097 0.37906 0.0
C1668 C 0.01279 0.78872 0.39689 0.0
C1669 C 0.98824 0.76918 0.39269 0.0
C1670 C 0.98323 0.75315 0.37941 0.0
C1671 C 1.00194 0.75686 0.37031 0.0
C1672 C 0.02575 0.77648 0.37469 0.0
C1673 C 0.03132 0.79193 0.38778 0.0
C1674 C 0.05857 0.81131 0.3901 0.0
C1675 C 0.06234 0.83754 0.3902 0.0
C1676 C 0.0711 0.80852 0.40457 0.0
C1677 C 0.06739 0.80441 0.37622 0.0
C1678 C 0.04812 0.78441 0.36741 0.0
C1679 C 0.0516 0.77504 0.35385 0.0
C1680 C 0.07548 0.78617 0.34928 0.0
C1681 C 0.09563 0.80629 0.35832 0.0
C1682 C 0.09139 0.81552 0.37194 0.0
H1683 H 0.2407 0.21969 0.37401 0.0
H1684 H 0.28105 0.26689 0.41525 0.0
H1685 H 0.26779 0.29641 0.40844 0.0
H1686 H 0.25163 0.269 0.35036 0.0
H1687 H 0.22102 0.25185 0.34044 0.0
H1688 H 0.23569 0.23565 0.34786 0.0
H1689 H 0.19818 0.2107 0.36263 0.0
H1690 H 0.18348 0.22691 0.35535 0.0
H1691 H 0.18867 0.22701 0.37537 0.0
H1692 H 0.24777 0.31922 0.39812 0.0
H1693 H 0.22325 0.33437 0.38467 0.0
H1694 H 0.19493 0.27161 0.35052 0.0
C1695 C 0.24689 0.23629 0.38158 0.0
C1696 C 0.26203 0.24099 0.39514 0.0
C1697 C 0.26985 0.26307 0.40467 0.0
C1698 C 0.26227 0.27988 0.40095 0.0
C1699 C 0.24691 0.27437 0.38767 0.0
C1700 C 0.23941 0.25319 0.37809 0.0
C1701 C 0.22199 0.25106 0.36486 0.0
C1702 C 0.23326 0.25195 0.35 0.0
C1703 C 0.19658 0.22753 0.36454 0.0
C1704 C 0.22052 0.27415 0.36863 0.0
C1705 C 0.23516 0.28742 0.38178 0.0
C1706 C 0.23639 0.30911 0.38774 0.0
C1707 C 0.22234 0.31753 0.38002 0.0
C1708 C 0.20717 0.30422 0.36651 0.0
C1709 C 0.20635 0.28225 0.36079 0.0
H1710 H 0.65243 0.56112 0.70308 0.0
H1711 H 0.66846 0.60095 0.74746 0.0
H1712 H 0.71033 0.63059 0.74159 0.0
H1713 H 0.71102 0.56648 0.70133 0.0
H1714 H 0.71238 0.57072 0.68163 0.0
H1715 H 0.68291 0.55359 0.68879 0.0
H1716 H 0.66922 0.5829 0.67802 0.0
H1717 H 0.69868 0.60015 0.67081 0.0
H1718 H 0.68798 0.61581 0.68315 0.0
H1719 H 0.75114 0.65328 0.73215 0.0
H1720 H 0.7887 0.6693 0.71909 0.0
H1721 H 0.74673 0.61622 0.68027 0.0
C1722 C 0.66472 0.57621 0.7115 0.0
C1723 C 0.65713 0.57885 0.72569 0.0
C1724 C 0.67372 0.59883 0.73642 0.0
C1725 C 0.69757 0.61569 0.73322 0.0
C1726 C 0.70452 0.61247 0.71919 0.0
C1727 C 0.6886 0.59339 0.70843 0.0
C1728 C 0.70116 0.59377 0.69444 0.0
C1729 C 0.70191 0.56971 0.69137 0.0
C1730 C 0.6885 0.59844 0.6808 0.0
C1731 C 0.72677 0.61571 0.69918 0.0
C1732 C 0.7282 0.62616 0.71352 0.0
C1733 C 0.75021 0.64555 0.72083 0.0
C1734 C 0.77143 0.65443 0.71335 0.0
C1735 C 0.77048 0.64411 0.69865 0.0
C1736 C 0.74779 0.62473 0.69139 0.0
H1737 H 0.48944 0.1503 0.72486 0.0
H1738 H 0.45804 0.12615 0.76664 0.0
H1739 H 0.42287 0.13146 0.75833 0.0
H1740 H 0.47157 0.19707 0.72151 0.0
H1741 H 0.4647 0.19074 0.70137 0.0
H1742 H 0.48775 0.18555 0.71072 0.0
H1743 H 0.46442 0.14008 0.69857 0.0
H1744 H 0.44127 0.14511 0.68922 0.0
H1745 H 0.43232 0.12047 0.70113 0.0
H1746 H 0.39076 0.13861 0.74541 0.0
H1747 H 0.3638 0.14725 0.72874 0.0
H1748 H 0.41596 0.16705 0.69529 0.0
C1749 C 0.47531 0.14641 0.73233 0.0
C1750 C 0.47647 0.13771 0.74639 0.0
C1751 C 0.4574 0.13251 0.75574 0.0
C1752 C 0.43741 0.1356 0.75116 0.0
C1753 C 0.4367 0.14395 0.73719 0.0
C1754 C 0.45514 0.14934 0.72791 0.0
C1755 C 0.44961 0.1576 0.71332 0.0
C1756 C 0.4696 0.18433 0.71164 0.0
C1757 C 0.44673 0.13975 0.69976 0.0
C1758 C 0.42516 0.15593 0.71585 0.0
C1759 C 0.4181 0.14807 0.72971 0.0
C1760 C 0.39611 0.14485 0.73454 0.0
C1761 C 0.3809 0.14979 0.72496 0.0
C1762 C 0.38769 0.15785 0.71067 0.0
C1763 C 0.4102 0.16097 0.70613 0.0
H1764 H 0.91051 0.36473 0.70435 0.0
H1765 H 0.9661 0.37406 0.73967 0.0
H1766 H 0.95877 0.33249 0.73147 0.0
H1767 H 0.8683 0.30422 0.70985 0.0
H1768 H 0.85685 0.29379 0.6903 0.0
H1769 H 0.8694 0.32583 0.69707 0.0
H1770 H 0.90064 0.33885 0.67716 0.0
H1771 H 0.88807 0.30678 0.67025 0.0
H1772 H 0.92066 0.32594 0.67618 0.0
H1773 H 0.94239 0.28857 0.72143 0.0
H1774 H 0.91786 0.24514 0.71044 0.0
H1775 H 0.8711 0.26342 0.68265 0.0
C1776 C 0.92136 0.3582 0.7103 0.0
C1777 C 0.93898 0.37283 0.72264 0.0
C1778 C 0.95287 0.36353 0.72999 0.0
C1779 C 0.94875 0.33984 0.72547 0.0
C1780 C 0.93068 0.32567 0.71359 0.0
C1781 C 0.91723 0.3345 0.70608 0.0
C1782 C 0.89726 0.31474 0.69466 0.0
C1783 C 0.87143 0.30933 0.69819 0.0
C1784 C 0.90195 0.32202 0.67861 0.0
C1785 C 0.90108 0.29318 0.69726 0.0
C1786 C 0.92072 0.30001 0.70804 0.0
C1787 C 0.92716 0.28305 0.71285 0.0
C1788 C 0.91304 0.2584 0.70655 0.0
C1789 C 0.89254 0.25087 0.69568 0.0
C1790 C 0.88671 0.26861 0.69089 0.0
H1791 H 0.23357 0.98846 0.63502 0.0
H1792 H 0.18038 0.96785 0.66783 0.0
H1793 H 0.20685 0.00845 0.68261 0.0
H1794 H 0.28904 0.02278 0.66225 0.0
H1795 H 0.30523 0.04573 0.64971 0.0
H1796 H 0.28273 0.01449 0.6422 0.0
H1797 H 0.25909 0.03093 0.62629 0.0
H1798 H 0.28144 0.06216 0.63376 0.0
H1799 H 0.2491 0.05035 0.6355 0.0
H1800 H 0.23737 0.0525 0.69263 0.0
H1801 H 0.27033 0.09638 0.6975 0.0
H1802 H 0.30455 0.08715 0.65889 0.0
C1803 C 0.2277 0.99218 0.64549 0.0
C1804 C 0.20483 0.97492 0.65023 0.0
C1805 C 0.19764 0.98088 0.66384 0.0
C1806 C 0.21265 0.00381 0.67238 0.0
C1807 C 0.23492 0.02047 0.66727 0.0
C1808 C 0.24253 0.01486 0.65421 0.0
C1809 C 0.26681 0.03635 0.65086 0.0
C1810 C 0.28716 0.02942 0.65129 0.0
C1811 C 0.26392 0.04548 0.63571 0.0
C1812 C 0.27143 0.05513 0.66392 0.0
C1813 C 0.25285 0.04561 0.67328 0.0
C1814 C 0.25223 0.06004 0.68552 0.0
C1815 C 0.27096 0.08494 0.68817 0.0
C1816 C 0.2901 0.09505 0.67867 0.0
C1817 C 0.29045 0.07979 0.66654 0.0
H1818 H 0.00782 0.22527 0.62589 0.0
H1819 H 0.99679 0.15075 0.62212 0.0
H1820 H 0.96261 0.13775 0.63785 0.0
H1821 H 0.99215 0.22788 0.66324 0.0
H1822 H 0.97544 0.24372 0.65908 0.0
H1823 H 1.0004 0.24791 0.64841 0.0
H1824 H 0.97116 0.23406 0.62364 0.0
H1825 H 0.94621 0.23013 0.63421 0.0
H1826 H 0.94271 0.20475 0.62164 0.0
H1827 H 0.92962 0.13288 0.65468 0.0
H1828 H 0.89735 0.13542 0.66804 0.0
H1829 H 0.92702 0.21138 0.65814 0.0
C1830 C 0.99819 0.2061 0.62811 0.0
C1831 C 0.00572 0.18932 0.62283 0.0
C1832 C 0.99232 0.16444 0.62635 0.0
C1833 C 0.9726 0.15671 0.63523 0.0
C1834 C 0.96597 0.17384 0.64032 0.0
C1835 C 0.97806 0.19787 0.63663 0.0
C1836 C 0.9663 0.21224 0.64267 0.0
C1837 C 0.98468 0.23424 0.65402 0.0
C1838 C 0.95598 0.22079 0.62977 0.0
C1839 C 0.94574 0.19253 0.65036 0.0
C1840 C 0.94609 0.17061 0.64913 0.0
C1841 C 0.92909 0.14992 0.65562 0.0
C1842 C 0.91095 0.15155 0.66327 0.0
C1843 C 0.90971 0.17354 0.66407 0.0
C1844 C 0.92749 0.19429 0.65763 0.0
H1845 H 0.77256 0.78982 0.65384 0.0
H1846 H 0.83038 0.83064 0.62563 0.0
H1847 H 0.85292 0.81009 0.63473 0.0
H1848 H 0.814 0.79094 0.68562 0.0
H1849 H 0.79197 0.76016 0.6896 0.0
H1850 H 0.78134 0.77949 0.68175 0.0
H1851 H 0.7561 0.74537 0.65967 0.0
H1852 H 0.76662 0.72598 0.66744 0.0
H1853 H 0.77156 0.73355 0.64841 0.0
H1854 H 0.86604 0.78126 0.64411 0.0
H1855 H 0.87059 0.74802 0.65479 0.0
H1856 H 0.8063 0.72828 0.67857 0.0
C1857 C 0.79014 0.79461 0.64977 0.0
C1858 C 0.79985 0.81178 0.63909 0.0
C1859 C 0.82284 0.81768 0.63394 0.0
C1860 C 0.83572 0.8061 0.63902 0.0
C1861 C 0.82554 0.78904 0.64944 0.0
C1862 C 0.80346 0.78355 0.65493 0.0
C1863 C 0.79619 0.76389 0.66568 0.0
C1864 C 0.79587 0.77425 0.68161 0.0
C1865 C 0.77114 0.74084 0.65995 0.0
C1866 C 0.81721 0.75862 0.66498 0.0
C1867 C 0.83393 0.77331 0.65552 0.0
C1868 C 0.8535 0.7701 0.65185 0.0
C1869 C 0.85592 0.75122 0.65791 0.0
C1870 C 0.83913 0.73619 0.66771 0.0
C1871 C 0.81981 0.74018 0.67149 0.0
H1872 H 0.01479 0.79315 0.6474 0.0
H1873 H 1.0039 0.74098 0.60949 0.0
H1874 H 0.96501 0.7097 0.6184 0.0
H1875 H 0.98999 0.74878 0.67491 0.0
H1876 H 0.97513 0.76375 0.68379 0.0
H1877 H 1.00273 0.7817 0.67488 0.0
H1878 H 0.97982 0.79812 0.6583 0.0
H1879 H 0.9522 0.7803 0.66719 0.0
H1880 H 0.95135 0.7764 0.64703 0.0
H1881 H 0.9274 0.68457 0.63103 0.0
H1882 H 0.89179 0.66747 0.64569 0.0
H1883 H 0.92615 0.73619 0.67534 0.0
C1884 C 0.00431 0.77503 0.64109 0.0
C1885 C 0.01233 0.76935 0.6278 0.0
C1886 C 0.99797 0.74566 0.61966 0.0
C1887 C 0.97598 0.72778 0.62468 0.0
C1888 C 0.96857 0.73396 0.63781 0.0
C1889 C 0.98217 0.75703 0.64586 0.0
C1890 C 0.96937 0.75925 0.6592 0.0
C1891 C 0.98526 0.76362 0.67408 0.0
C1892 C 0.96279 0.77973 0.65784 0.0
C1893 C 0.9464 0.73381 0.65734 0.0
C1894 C 0.94649 0.71951 0.64499 0.0
C1895 C 0.92714 0.69555 0.64075 0.0
C1896 C 0.90697 0.68602 0.6492 0.0
C1897 C 0.90611 0.70046 0.66173 0.0
C1898 C 0.9263 0.7246 0.66592 0.0
H1899 H 0.22245 0.23231 0.63401 0.0
H1900 H 0.19805 0.17785 0.59497 0.0
H1901 H 0.22579 0.16371 0.60488 0.0
H1902 H 0.28599 0.2469 0.63867 0.0
H1903 H 0.28811 0.24926 0.65891 0.0
H1904 H 0.26719 0.2562 0.64848 0.0
H1905 H 0.23079 0.22386 0.66153 0.0
H1906 H 0.2516 0.21683 0.67201 0.0
H1907 H 0.2247 0.19245 0.66065 0.0
H1908 H 0.25583 0.15513 0.6188 0.0
H1909 H 0.28532 0.15154 0.63639 0.0
H1910 H 0.28889 0.20965 0.66739 0.0
C1911 C 0.22278 0.21733 0.62755 0.0
C1912 C 0.20814 0.20651 0.61354 0.0
C1913 C 0.20946 0.18703 0.60549 0.0
C1914 C 0.22504 0.17865 0.61109 0.0
C1915 C 0.23912 0.1897 0.62487 0.0
C1916 C 0.23808 0.2085 0.63306 0.0
C1917 C 0.25469 0.21663 0.6478 0.0
C1918 C 0.27521 0.24386 0.6485 0.0
C1919 C 0.23954 0.21217 0.66129 0.0
C1920 C 0.26513 0.19938 0.64659 0.0
C1921 C 0.25599 0.18415 0.6332 0.0
C1922 C 0.26305 0.16688 0.62935 0.0
C1923 C 0.27987 0.16501 0.63945 0.0
C1924 C 0.28939 0.18021 0.65335 0.0
C1925 C 0.28184 0.19763 0.65693 0.0
H1926 H 0.76995 0.00244 0.6173 0.0
H1927 H 0.73838 0.96326 0.65574 0.0
H1928 H 0.7501 0.00283 0.67033 0.0
H1929 H 0.82243 0.05165 0.63764 0.0
H1930 H 0.82376 0.07511 0.6264 0.0
H1931 H 0.8098 0.04356 0.61816 0.0
H1932 H 0.76936 0.04354 0.61013 0.0
H1933 H 0.78327 0.07519 0.61829 0.0
H1934 H 0.75449 0.05187 0.62406 0.0
H1935 H 0.76871 0.04634 0.68154 0.0
H1936 H 0.79282 0.09127 0.68872 0.0
H1937 H 0.8137 0.1027 0.64331 0.0
C1938 C 0.76525 0.00213 0.62874 0.0
C1939 C 0.75307 0.97968 0.63533 0.0
C1940 C 0.7472 0.98012 0.65032 0.0
C1941 C 0.75391 0.00253 0.65873 0.0
C1942 C 0.76639 0.02432 0.652 0.0
C1943 C 0.77192 0.02435 0.63732 0.0
C1944 C 0.78705 0.05049 0.63314 0.0
C1945 C 0.81225 0.05548 0.62857 0.0
C1946 C 0.77268 0.05557 0.62067 0.0
C1947 C 0.78986 0.06514 0.64793 0.0
C1948 C 0.7775 0.04965 0.65857 0.0
C1949 C 0.77823 0.05869 0.67327 0.0
C1950 C 0.79208 0.08427 0.67724 0.0
C1951 C 0.80518 0.10054 0.66658 0.0
C1952 C 0.80379 0.09078 0.65169 0.0
H1953 H 0.47028 0.35154 0.72553 0.0
H1954 H 0.44784 0.38529 0.69158 0.0
H1955 H 0.42144 0.34418 0.67744 0.0
H1956 H 0.46908 0.30265 0.70141 0.0
H1957 H 0.45606 0.28028 0.71475 0.0
H1958 H 0.47541 0.31265 0.72128 0.0
H1959 H 0.44056 0.31131 0.73603 0.0
H1960 H 0.4212 0.27893 0.72964 0.0
H1961 H 0.41034 0.30018 0.72625 0.0
H1962 H 0.39631 0.29865 0.6673 0.0
H1963 H 0.37178 0.25276 0.6636 0.0
H1964 H 0.40785 0.24961 0.7056 0.0
C1965 C 0.45975 0.3505 0.7152 0.0
C1966 C 0.4614 0.37194 0.70972 0.0
C1967 C 0.44748 0.36938 0.69594 0.0
C1968 C 0.43227 0.34604 0.68783 0.0
C1969 C 0.43096 0.32536 0.69369 0.0
C1970 C 0.44414 0.32741 0.70716 0.0
C1971 C 0.43811 0.30232 0.71172 0.0
C1972 C 0.46103 0.29931 0.71232 0.0
C1973 C 0.42688 0.29794 0.7268 0.0
C1974 C 0.4192 0.28576 0.69881 0.0
C1975 C 0.41565 0.29932 0.68834 0.0
C1976 C 0.39895 0.28786 0.67544 0.0
C1977 C 0.3852 0.26186 0.67339 0.0
C1978 C 0.38794 0.24783 0.68435 0.0
C1979 C 0.40534 0.25997 0.69709 0.0
H1980 H 0.70576 0.16326 0.74467 0.0
H1981 H 0.64985 0.1104 0.70962 0.0
H1982 H 0.68232 0.11657 0.69363 0.0
H1983 H 0.74818 0.20442 0.72102 0.0
H1984 H 0.77549 0.20941 0.73219 0.0
H1985 H 0.74791 0.20204 0.74096 0.0
H1986 H 0.7484 0.16473 0.75161 0.0
H1987 H 0.77601 0.17209 0.74287 0.0
H1988 H 0.74916 0.14164 0.73896 0.0
H1989 H 0.72018 0.12898 0.68098 0.0
H1990 H 0.76178 0.14341 0.67338 0.0
H1991 H 0.79418 0.18496 0.71727 0.0
C1992 C 0.70021 0.15271 0.73372 0.0
C1993 C 0.67489 0.13673 0.7284 0.0
C1994 C 0.66883 0.12349 0.71389 0.0
C1995 C 0.68722 0.12666 0.70471 0.0
C1996 C 0.71178 0.14272 0.71023 0.0
C1997 C 0.71841 0.1552 0.72448 0.0
C1998 C 0.74635 0.17053 0.72782 0.0
C1999 C 0.75498 0.19825 0.73067 0.0
C2000 C 0.75549 0.1617 0.74111 0.0
C2001 C 0.75429 0.16472 0.71318 0.0
C2002 C 0.73394 0.1489 0.70316 0.0
C2003 C 0.73628 0.14125 0.68876 0.0
C2004 C 0.76004 0.1497 0.68453 0.0
C2005 C 0.78128 0.16537 0.69471 0.0
C2006 C 0.77831 0.17297 0.70925 0.0
H2007 H 0.88779 0.56179 0.736 0.0
H2008 H 0.86509 0.50642 0.69781 0.0
H2009 H 0.84369 0.52529 0.68463 0.0
H2010 H 0.83194 0.56755 0.73367 0.0
H2011 H 0.84959 0.6005 0.73888 0.0
H2012 H 0.86044 0.58082 0.74587 0.0
H2013 H 0.90213 0.60688 0.73497 0.0
H2014 H 0.89143 0.62661 0.728 0.0
H2015 H 0.90206 0.61137 0.71529 0.0
H2016 H 0.82722 0.55214 0.67508 0.0
H2017 H 0.81991 0.58632 0.6693 0.0
H2018 H 0.85425 0.62388 0.7138 0.0
C2019 C 0.8778 0.55328 0.72501 0.0
C2020 C 0.87783 0.53255 0.71795 0.0
C2021 C 0.86524 0.52235 0.70338 0.0
C2022 C 0.8529 0.5328 0.69588 0.0
C2023 C 0.85339 0.5534 0.70314 0.0
C2024 C 0.8656 0.56354 0.71737 0.0
C2025 C 0.86536 0.58694 0.72222 0.0
C2026 C 0.85097 0.58375 0.73597 0.0
C2027 C 0.89181 0.60926 0.72529 0.0
C2028 C 0.85168 0.58879 0.70835 0.0
C2029 C 0.84448 0.56908 0.69755 0.0
C2030 C 0.83254 0.56753 0.68351 0.0
C2031 C 0.82841 0.58695 0.68034 0.0
C2032 C 0.83659 0.6077 0.6911 0.0
C2033 C 0.84783 0.60825 0.70535 0.0
H2034 H 0.4536 0.92836 0.16776 0.0
H2035 H 0.48177 0.99539 0.19828 0.0
H2036 H 0.49529 0.02044 0.17694 0.0
H2037 H 0.50232 0.95285 0.14342 0.0
H2038 H 0.48207 0.93653 0.12646 0.0
H2039 H 0.47445 0.92368 0.1441 0.0
H2040 H 0.432 0.92132 0.14036 0.0
H2041 H 0.43947 0.93411 0.12269 0.0
H2042 H 0.43084 0.94887 0.13708 0.0
H2043 H 0.50644 0.03833 0.15254 0.0
H2044 H 0.51337 0.04799 0.12645 0.0
H2045 H 0.47721 0.96945 0.11138 0.0
C2046 C 0.46272 0.94831 0.16995 0.0
C2047 C 0.46653 0.9599 0.18471 0.0
C2048 C 0.47831 0.98606 0.18707 0.0
C2049 C 0.48621 1.00047 0.17503 0.0
C2050 C 0.48218 0.98849 0.16066 0.0
C2051 C 0.47063 0.96301 0.15802 0.0
C2052 C 0.46832 0.95484 0.14142 0.0
C2053 C 0.48265 0.94117 0.1387 0.0
C2054 C 0.44103 0.93884 0.13501 0.0
C2055 C 0.48044 0.97972 0.13516 0.0
C2056 C 0.48835 0.99884 0.14648 0.0
C2057 C 0.50017 0.0235 0.14356 0.0
C2058 C 0.50386 0.02878 0.12865 0.0
C2059 C 0.49564 0.00952 0.11676 0.0
C2060 C 0.48389 0.98465 0.12017 0.0
H2061 H 0.00509 0.4788 0.18337 0.0
H2062 H 0.01479 0.55214 0.19267 0.0
H2063 H 0.00496 0.55282 0.16566 0.0
H2064 H 0.03223 0.48893 0.1492 0.0
H2065 H 0.01094 0.45841 0.14 0.0
H2066 H 0.01755 0.46312 0.16015 0.0
H2067 H 0.97083 0.44374 0.16298 0.0
H2068 H 0.96407 0.43886 0.14282 0.0
H2069 H 0.95354 0.45616 0.15387 0.0
H2070 H 0.99595 0.54635 0.1376 0.0
H2071 H 0.98736 0.53268 0.11037 0.0
H2072 H 0.98317 0.46343 0.11938 0.0
C2073 C 0.00472 0.49482 0.17976 0.0
C2074 C 0.01074 0.51544 0.19012 0.0
C2075 C 0.0105 0.53625 0.18491 0.0
C2076 C 0.00481 0.53676 0.16961 0.0
C2077 C 0.9993 0.51627 0.15968 0.0
C2078 C 0.99907 0.49563 0.16453 0.0
C2079 C 0.99322 0.47637 0.15147 0.0
C2080 C 0.01477 0.47143 0.15013 0.0
C2081 C 0.96897 0.45236 0.15287 0.0
C2082 C 0.99043 0.48951 0.13851 0.0
C2083 C 0.99397 0.51249 0.14349 0.0
C2084 C 0.99301 0.52835 0.13357 0.0
C2085 C 0.98829 0.5205 0.11813 0.0
C2086 C 0.98457 0.497 0.11278 0.0
C2087 C 0.98558 0.48134 0.12316 0.0
H2088 H 0.47703 0.48968 0.18146 0.0
H2089 H 0.425 0.51503 0.17165 0.0
H2090 H 0.42986 0.5118 0.14472 0.0
H2091 H 0.51848 0.52439 0.15564 0.0
H2092 H 0.52621 0.50103 0.15031 0.0
H2093 H 0.51695 0.50301 0.16871 0.0
H2094 H 0.48211 0.45709 0.16391 0.0
H2095 H 0.49126 0.45496 0.14547 0.0
H2096 H 0.45985 0.44706 0.14756 0.0
H2097 H 0.44181 0.50807 0.11915 0.0
H2098 H 0.4612 0.50536 0.09661 0.0
H2099 H 0.50647 0.48365 0.12285 0.0
C2100 C 0.46662 0.49456 0.17368 0.0
C2101 C 0.45041 0.50237 0.17874 0.0
C2102 C 0.43707 0.50841 0.16809 0.0
C2103 C 0.43981 0.50679 0.15275 0.0
C2104 C 0.45605 0.49921 0.1482 0.0
C2105 C 0.4693 0.49327 0.15833 0.0
C2106 C 0.48652 0.48691 0.15055 0.0
C2107 C 0.51364 0.50492 0.15667 0.0
C2108 C 0.47951 0.4599 0.15196 0.0
C2109 C 0.48114 0.49063 0.13451 0.0
C2110 C 0.4633 0.49744 0.1334 0.0
C2111 C 0.45561 0.50249 0.11984 0.0
C2112 C 0.46661 0.50073 0.10707 0.0
C2113 C 0.48514 0.49404 0.10791 0.0
C2114 C 0.49236 0.48881 0.12185 0.0
H2115 H 0.01028 0.52618 0.8396 0.0
H2116 H 0.93119 0.47587 0.83755 0.0
H2117 H 0.93489 0.47572 0.86507 0.0
H2118 H 0.0278 0.49874 0.8686 0.0
H2119 H 0.05262 0.52786 0.87767 0.0
H2120 H 0.04381 0.52446 0.85777 0.0
H2121 H 0.0371 0.56203 0.86118 0.0
H2122 H 0.04587 0.56554 0.88109 0.0
H2123 H 0.01648 0.56199 0.87434 0.0
H2124 H 0.94695 0.48024 0.89251 0.0
H2125 H 0.96673 0.48924 0.91848 0.0
H2126 H 0.03809 0.53704 0.90305 0.0
C2127 C 0.99378 0.51507 0.84495 0.0
C2128 C 0.97041 0.5012 0.83645 0.0
C2129 C 0.94921 0.487 0.84387 0.0
C2130 C 0.95113 0.48667 0.85947 0.0
C2131 C 0.97439 0.5006 0.86752 0.0
C2132 C 0.99535 0.51455 0.86056 0.0
C2133 C 0.01811 0.52776 0.8719 0.0
C2134 C 0.03667 0.51918 0.8688 0.0
C2135 C 0.03009 0.55601 0.87214 0.0
C2136 C 0.00661 0.51895 0.88629 0.0
C2137 C 0.98137 0.50332 0.88347 0.0
C2138 C 0.96668 0.4926 0.89489 0.0
C2139 C 0.97808 0.49799 0.90963 0.0
C2140 C 1.00394 0.51404 0.91285 0.0
C2141 C 0.01832 0.52461 0.90096 0.0
H2142 H 0.5002 0.48104 0.83303 0.0
H2143 H 0.57343 0.54533 0.83417 0.0
H2144 H 0.57471 0.55315 0.86166 0.0
H2145 H 0.47838 0.50721 0.86074 0.0
H2146 H 0.46092 0.47867 0.86893 0.0
H2147 H 0.46593 0.47796 0.84939 0.0
H2148 H 0.48514 0.45023 0.85375 0.0
H2149 H 0.48022 0.45089 0.87332 0.0
H2150 H 0.51074 0.46055 0.86806 0.0
H2151 H 0.56821 0.55372 0.889 0.0
H2152 H 0.5535 0.54823 0.91417 0.0
H2153 H 0.48446 0.48361 0.89521 0.0
C2154 C 0.51655 0.49668 0.83909 0.0
C2155 C 0.53672 0.5126 0.83148 0.0
C2156 C 0.55767 0.53306 0.83976 0.0
C2157 C 0.55863 0.53756 0.85537 0.0
C2158 C 0.53846 0.52147 0.86253 0.0
C2159 C 0.51776 0.50152 0.85466 0.0
C2160 C 0.49839 0.48736 0.86501 0.0
C2161 C 0.4745 0.48784 0.86076 0.0
C2162 C 0.49334 0.46068 0.86504 0.0
C2163 C 0.51144 0.50249 0.87993 0.0
C2164 C 0.53459 0.52197 0.87826 0.0
C2165 C 0.55012 0.5385 0.89045 0.0
C2166 C 0.54167 0.53514 0.90471 0.0
C2167 C 0.51786 0.51548 0.90666 0.0
C2168 C 0.50266 0.49893 0.89406 0.0
H2169 H 0.53363 0.03594 0.84073 0.0
H2170 H 0.59929 0.10663 0.85621 0.0
H2171 H 0.59564 0.09547 0.88213 0.0
H2172 H 0.5003 0.03622 0.87133 0.0
H2173 H 0.48538 0.00328 0.87226 0.0
H2174 H 0.4945 0.01567 0.85466 0.0
H2175 H 0.52002 0.99363 0.85224 0.0
H2176 H 0.51103 0.98122 0.86987 0.0
H2177 H 0.54331 0.99914 0.86722 0.0
H2178 H 0.58408 0.07752 0.90659 0.0
H2179 H 0.56456 0.05472 0.92789 0.0
H2180 H 0.50458 0.99724 0.89682 0.0
C2181 C 0.54729 0.04917 0.84952 0.0
C2182 C 0.56693 0.07214 0.84624 0.0
C2183 C 0.58443 0.08866 0.85821 0.0
C2184 C 0.58242 0.08258 0.87306 0.0
C2185 C 0.56272 0.05996 0.87585 0.0
C2186 C 0.54539 0.04356 0.86444 0.0
C2187 C 0.52519 0.02108 0.87059 0.0
C2188 C 0.49985 0.01896 0.867 0.0
C2189 C 0.52488 0.99737 0.86462 0.0
C2190 C 0.53375 0.02758 0.88727 0.0
C2191 C 0.55558 0.04996 0.89003 0.0
C2192 C 0.56694 0.06001 0.90457 0.0
C2193 C 0.55557 0.04698 0.91661 0.0
C2194 C 0.53286 0.02422 0.91411 0.0
C2195 C 0.52204 0.01439 0.89917 0.0
H2196 H 0.12182 0.26382 0.49881 0.0
H2197 H 0.14516 0.33023 0.52901 0.0
H2198 H 0.15559 0.355 0.50746 0.0
H2199 H 0.16907 0.29176 0.47394 0.0
H2200 H 0.14903 0.2741 0.45714 0.0
H2201 H 0.14301 0.26134 0.4749 0.0
H2202 H 0.0987 0.25465 0.4715 0.0
H2203 H 0.10457 0.26733 0.45371 0.0
H2204 H 0.09446 0.28047 0.46816 0.0
H2205 H 0.16461 0.37286 0.48284 0.0
H2206 H 0.17029 0.38251 0.45666 0.0
H2207 H 0.14017 0.30453 0.44201 0.0
C2208 C 0.12919 0.28358 0.50089 0.0
C2209 C 0.13256 0.29504 0.51565 0.0
C2210 C 0.14205 0.32094 0.51783 0.0
C2211 C 0.14819 0.33521 0.50566 0.0
C2212 C 0.14469 0.32337 0.4913 0.0
C2213 C 0.1353 0.29814 0.48882 0.0
C2214 C 0.13321 0.29006 0.47221 0.0
C2215 C 0.14956 0.27864 0.46939 0.0
C2216 C 0.10612 0.27207 0.46603 0.0
C2217 C 0.14304 0.31473 0.46577 0.0
C2218 C 0.14959 0.33367 0.47701 0.0
C2219 C 0.15934 0.35814 0.47392 0.0
C2220 C 0.16234 0.36341 0.45896 0.0
C2221 C 0.15549 0.34432 0.44714 0.0
C2222 C 0.1458 0.31964 0.45072 0.0
H2223 H 0.69383 0.85732 0.51802 0.0
H2224 H 0.70019 0.79199 0.52255 0.0
H2225 H 0.68879 0.78001 0.49519 0.0
H2226 H 0.64238 0.83 0.48927 0.0
H2227 H 0.65403 0.85741 0.47958 0.0
H2228 H 0.66165 0.86012 0.49957 0.0
H2229 H 0.70829 0.8848 0.4961 0.0
H2230 H 0.70082 0.8821 0.4761 0.0
H2231 H 0.72092 0.87149 0.48349 0.0
H2232 H 0.67745 0.77573 0.46718 0.0
H2233 H 0.66709 0.77955 0.44075 0.0
H2234 H 0.66958 0.84837 0.45481 0.0
C2235 C 0.69299 0.84055 0.51328 0.0
C2236 C 0.69793 0.8256 0.52245 0.0
C2237 C 0.69617 0.80357 0.51579 0.0
C2238 C 0.68987 0.7967 0.50026 0.0
C2239 C 0.68542 0.81207 0.49156 0.0
C2240 C 0.6869 0.83353 0.49785 0.0
C2241 C 0.6817 0.84709 0.48605 0.0
C2242 C 0.65856 0.84874 0.48878 0.0
C2243 C 0.70428 0.87289 0.4854 0.0
C2244 C 0.67719 0.82999 0.4721 0.0
C2245 C 0.67929 0.80982 0.47549 0.0
C2246 C 0.67573 0.79143 0.4644 0.0
C2247 C 0.66979 0.79371 0.44945 0.0
C2248 C 0.66763 0.81429 0.44577 0.0
C2249 C 0.67144 0.83262 0.45727 0.0
H2250 H 0.12986 0.82497 0.51721 0.0
H2251 H 0.18732 0.90057 0.5319 0.0
H2252 H 0.20002 0.90573 0.50623 0.0
H2253 H 0.16508 0.81088 0.49274 0.0
H2254 H 0.13936 0.79211 0.4787 0.0
H2255 H 0.13411 0.79465 0.49808 0.0
H2256 H 0.10348 0.80957 0.49052 0.0
H2257 H 0.10865 0.80708 0.4711 0.0
H2258 H 0.11351 0.83599 0.48 0.0
H2259 H 0.20671 0.90264 0.47909 0.0
H2260 H 0.20822 0.89081 0.45254 0.0
H2261 H 0.14672 0.81711 0.45548 0.0
C2262 C 0.14496 0.84265 0.51496 0.0
C2263 C 0.15764 0.86238 0.52652 0.0
C2264 C 0.17754 0.88515 0.52322 0.0
C2265 C 0.18477 0.8883 0.50867 0.0
C2266 C 0.17199 0.86848 0.49754 0.0
C2267 C 0.15258 0.84606 0.5005 0.0
C2268 C 0.14252 0.82747 0.48662 0.0
C2269 C 0.14545 0.80495 0.4892 0.0
C2270 C 0.11543 0.81957 0.48177 0.0
C2271 C 0.1594 0.84292 0.47544 0.0
C2272 C 0.17611 0.86658 0.48193 0.0
C2273 C 0.19366 0.88418 0.47386 0.0
C2274 C 0.19429 0.87735 0.45877 0.0
C2275 C 0.1776 0.85307 0.45194 0.0
C2276 C 0.15985 0.83574 0.46042 0.0
H2277 H 0.67844 0.82831 0.16574 0.0
H2278 H 0.69359 0.90353 0.16362 0.0
H2279 H 0.70383 0.91184 0.19124 0.0
H2280 H 0.64806 0.81786 0.1976 0.0
H2281 H 0.65989 0.79951 0.20548 0.0
H2282 H 0.65727 0.80051 0.18548 0.0
H2283 H 0.70382 0.81512 0.18518 0.0
H2284 H 0.70655 0.81389 0.2052 0.0
H2285 H 0.7264 0.84211 0.19732 0.0
H2286 H 0.7083 0.91051 0.21923 0.0
H2287 H 0.70665 0.89962 0.24538 0.0
H2288 H 0.68863 0.82529 0.22893 0.0
C2289 C 0.68469 0.84676 0.17104 0.0
C2290 C 0.68545 0.86536 0.16259 0.0
C2291 C 0.69293 0.88905 0.16995 0.0
C2292 C 0.69886 0.89395 0.18559 0.0
C2293 C 0.69727 0.87497 0.19366 0.0
C2294 C 0.69052 0.85189 0.18662 0.0
C2295 C 0.68821 0.83406 0.19792 0.0
C2296 C 0.66179 0.81168 0.19653 0.0
C2297 C 0.70739 0.82582 0.19631 0.0
C2298 C 0.69403 0.8505 0.21242 0.0
C2299 C 0.69952 0.87412 0.20976 0.0
C2300 C 0.70437 0.89217 0.22146 0.0
C2301 C 0.70343 0.88585 0.23626 0.0
C2302 C 0.69746 0.86161 0.23917 0.0
C2303 C 0.69303 0.84391 0.22705 0.0
H2304 H 0.20006 0.84801 0.1737 0.0
H2305 H 0.23755 0.80578 0.17765 0.0
H2306 H 0.23119 0.80343 0.20456 0.0
H2307 H 0.22396 0.88307 0.21108 0.0
H2308 H 0.19544 0.88246 0.21384 0.0
H2309 H 0.20433 0.88205 0.19515 0.0
H2310 H 0.16258 0.84184 0.18695 0.0
H2311 H 0.15367 0.84199 0.20565 0.0
H2312 H 0.15386 0.81524 0.19715 0.0
H2313 H 0.21761 0.80262 0.23037 0.0
H2314 H 0.20036 0.8058 0.25378 0.0
H2315 H 0.17347 0.85041 0.2334 0.0
C2316 C 0.20712 0.83848 0.18029 0.0
C2317 C 0.21936 0.82714 0.17363 0.0
C2318 C 0.22843 0.81489 0.18259 0.0
C2319 C 0.22478 0.81333 0.19785 0.0
C2320 C 0.21226 0.82435 0.204 0.0
C2321 C 0.20386 0.83697 0.19556 0.0
C2322 C 0.19065 0.84685 0.20485 0.0
C2323 C 0.20442 0.8753 0.20632 0.0
C2324 C 0.16358 0.83581 0.19825 0.0
C2325 C 0.19243 0.83731 0.21973 0.0
C2326 C 0.20498 0.8244 0.219 0.0
C2327 C 0.20812 0.81305 0.23116 0.0
C2328 C 0.19835 0.8151 0.24446 0.0
C2329 C 0.18569 0.82856 0.24558 0.0
C2330 C 0.18281 0.8398 0.23296 0.0
H2331 H 0.22805 0.40312 0.19022 0.0
H2332 H 0.19363 0.33551 0.15968 0.0
H2333 H 0.1819 0.31085 0.18125 0.0
H2334 H 0.25211 0.38039 0.21983 0.0
H2335 H 0.24604 0.39642 0.23487 0.0
H2336 H 0.25268 0.40895 0.21707 0.0
H2337 H 0.21167 0.40967 0.2151 0.0
H2338 H 0.20484 0.39701 0.23284 0.0
H2339 H 0.18301 0.38154 0.21636 0.0
H2340 H 0.17246 0.29335 0.20583 0.0
H2341 H 0.16628 0.28396 0.232 0.0
H2342 H 0.20735 0.36261 0.24715 0.0
C2343 C 0.21836 0.38313 0.1881 0.0
C2344 C 0.21167 0.37126 0.17321 0.0
C2345 C 0.19868 0.34504 0.17094 0.0
C2346 C 0.19204 0.33085 0.18313 0.0
C2347 C 0.19852 0.34307 0.19761 0.0
C2348 C 0.21146 0.3686 0.2002 0.0
C2349 C 0.21552 0.37697 0.21692 0.0
C2350 C 0.24324 0.39154 0.2225 0.0
C2351 C 0.20301 0.3922 0.22051 0.0
C2352 C 0.20268 0.35215 0.22327 0.0
C2353 C 0.1931 0.33289 0.2119 0.0
C2354 C 0.1801 0.30827 0.21485 0.0
C2355 C 0.17682 0.30313 0.22981 0.0
C2356 C 0.18651 0.32248 0.24176 0.0
C2357 C 0.19959 0.34735 0.23834 0.0
H2358 H 0.80248 0.59593 0.83443 0.0
H2359 H 0.81989 0.66158 0.86378 0.0
H2360 H 0.83422 0.68678 0.84263 0.0
H2361 H 0.85539 0.62545 0.81384 0.0
H2362 H 0.83905 0.60795 0.79609 0.0
H2363 H 0.82916 0.59469 0.81339 0.0
H2364 H 0.78522 0.58709 0.80573 0.0
H2365 H 0.79499 0.60034 0.78841 0.0
H2366 H 0.78139 0.61264 0.80095 0.0
H2367 H 0.84754 0.70523 0.81854 0.0
H2368 H 0.85869 0.71563 0.79304 0.0
H2369 H 0.83416 0.63851 0.77923 0.0
C2370 C 0.80936 0.61561 0.83644 0.0
C2371 C 0.80978 0.62664 0.85084 0.0
C2372 C 0.8188 0.65249 0.85286 0.0
C2373 C 0.8272 0.66705 0.84092 0.0
C2374 C 0.82656 0.65561 0.82695 0.0
C2375 C 0.81788 0.63049 0.82462 0.0
C2376 C 0.81955 0.62295 0.8085 0.0
C2377 C 0.83682 0.61212 0.80793 0.0
C2378 C 0.79375 0.60467 0.80042 0.0
C2379 C 0.83066 0.64778 0.80218 0.0
C2380 C 0.83451 0.66634 0.81303 0.0
C2381 C 0.84468 0.69086 0.80996 0.0
C2382 C 0.85115 0.69661 0.79544 0.0
C2383 C 0.84753 0.67798 0.78408 0.0
C2384 C 0.83702 0.6532 0.78757 0.0
H2385 H 0.32221 0.1837 0.85554 0.0
H2386 H 0.34103 0.12574 0.85644 0.0
H2387 H 0.33201 0.1173 0.82881 0.0
H2388 H 0.27267 0.15375 0.82414 0.0
H2389 H 0.28129 0.18264 0.81657 0.0
H2390 H 0.28656 0.18216 0.83651 0.0
H2391 H 0.33291 0.21436 0.83608 0.0
H2392 H 0.32784 0.21484 0.81615 0.0
H2393 H 0.3508 0.2078 0.82353 0.0
H2394 H 0.32523 0.11823 0.80095 0.0
H2395 H 0.32021 0.12769 0.7751 0.0
H2396 H 0.30503 0.18453 0.79247 0.0
C2397 C 0.32419 0.16905 0.84995 0.0
C2398 C 0.33225 0.15532 0.85817 0.0
C2399 C 0.3345 0.13623 0.85042 0.0
C2400 C 0.32953 0.13138 0.83472 0.0
C2401 C 0.32217 0.14566 0.82695 0.0
C2402 C 0.31931 0.16397 0.83432 0.0
C2403 C 0.31253 0.1776 0.82332 0.0
C2404 C 0.28672 0.1738 0.82525 0.0
C2405 C 0.3322 0.20528 0.82487 0.0
C2406 C 0.31263 0.16451 0.80859 0.0
C2407 C 0.31806 0.14604 0.81091 0.0
C2408 C 0.32052 0.13234 0.79899 0.0
C2409 C 0.31749 0.13778 0.78432 0.0
C2410 C 0.31206 0.15677 0.78167 0.0
C2411 C 0.30931 0.17001 0.79405 0.0
H2412 H 0.80155 0.13645 0.84917 0.0
H2413 H 0.75057 0.16348 0.84094 0.0
H2414 H 0.75413 0.16018 0.81378 0.0
H2415 H 0.84213 0.17042 0.82368 0.0
H2416 H 0.84908 0.1468 0.81756 0.0
H2417 H 0.84001 0.148 0.8361 0.0
H2418 H 0.80427 0.10256 0.83056 0.0
H2419 H 0.8133 0.10118 0.81199 0.0
H2420 H 0.78212 0.09386 0.81429 0.0
H2421 H 0.76668 0.15843 0.78797 0.0
H2422 H 0.78699 0.15796 0.76544 0.0
H2423 H 0.82974 0.13188 0.79025 0.0
C2424 C 0.79092 0.14144 0.84166 0.0
C2425 C 0.77566 0.1501 0.84724 0.0
C2426 C 0.762 0.15633 0.83697 0.0
C2427 C 0.764 0.15464 0.8215 0.0
C2428 C 0.77963 0.14659 0.81644 0.0
C2429 C 0.79275 0.13994 0.8262 0.0
C2430 C 0.80955 0.13348 0.81801 0.0
C2431 C 0.8368 0.15071 0.82421 0.0
C2432 C 0.80184 0.10614 0.81875 0.0
C2433 C 0.80438 0.13826 0.8022 0.0
C2434 C 0.78687 0.14554 0.80151 0.0
C2435 C 0.78007 0.1523 0.78831 0.0
C2436 C 0.79162 0.15182 0.77551 0.0
C2437 C 0.80982 0.14465 0.77594 0.0
C2438 C 0.81596 0.1375 0.78949 0.0
H2439 H 0.34683 0.1696 0.50832 0.0
H2440 H 0.27162 0.15534 0.50846 0.0
H2441 H 0.2755 0.15693 0.53606 0.0
H2442 H 0.34388 0.13201 0.53788 0.0
H2443 H 0.37526 0.15269 0.54596 0.0
H2444 H 0.36692 0.15113 0.52616 0.0
H2445 H 0.38381 0.19843 0.52878 0.0
H2446 H 0.39215 0.20014 0.5486 0.0
H2447 H 0.37227 0.21165 0.54226 0.0
H2448 H 0.28705 0.15956 0.56342 0.0
H2449 H 0.30536 0.16217 0.58907 0.0
H2450 H 0.37303 0.1743 0.57146 0.0
C2451 C 0.33114 0.16668 0.51415 0.0
C2452 C 0.309 0.1626 0.50622 0.0
C2453 C 0.28895 0.15902 0.5143 0.0
C2454 C 0.2909 0.15972 0.52997 0.0
C2455 C 0.31299 0.16393 0.53744 0.0
C2456 C 0.33274 0.16727 0.52983 0.0
C2457 C 0.35427 0.17116 0.54062 0.0
C2458 C 0.36043 0.15051 0.53747 0.0
C2459 C 0.37696 0.19688 0.54003 0.0
C2460 C 0.34343 0.16937 0.55545 0.0
C2461 C 0.31963 0.16529 0.55332 0.0
C2462 C 0.30571 0.16287 0.56526 0.0
C2463 C 0.31635 0.16456 0.57979 0.0
C2464 C 0.3407 0.16863 0.58228 0.0
C2465 C 0.35436 0.17107 0.5699 0.0
H2466 H 0.89486 0.18217 0.51326 0.0
H2467 H 0.83779 0.10544 0.50108 0.0
H2468 H 0.82242 0.10436 0.52576 0.0
H2469 H 0.90733 0.17688 0.55193 0.0
H2470 H 0.91162 0.2066 0.55872 0.0
H2471 H 0.91827 0.2016 0.53999 0.0
H2472 H 0.88816 0.21522 0.52908 0.0
H2473 H 0.88144 0.22029 0.54779 0.0
H2474 H 0.85667 0.19986 0.53359 0.0
H2475 H 0.81365 0.11094 0.55175 0.0
H2476 H 0.81137 0.12536 0.57753 0.0
H2477 H 0.87322 0.1981 0.57292 0.0
C2478 C 0.87901 0.16522 0.51574 0.0
C2479 C 0.86776 0.1438 0.50527 0.0
C2480 C 0.84712 0.12193 0.50902 0.0
C2481 C 0.8381 0.12116 0.52297 0.0
C2482 C 0.84975 0.14246 0.53306 0.0
C2483 C 0.86967 0.16414 0.52965 0.0
C2484 C 0.87877 0.18435 0.54262 0.0
C2485 C 0.90559 0.19285 0.54867 0.0
C2486 C 0.87609 0.20622 0.53799 0.0
C2487 C 0.86094 0.17055 0.55385 0.0
C2488 C 0.84439 0.14641 0.54808 0.0
C2489 C 0.82645 0.12982 0.5564 0.0
C2490 C 0.82539 0.13813 0.57104 0.0
C2491 C 0.84212 0.16281 0.5772 0.0
C2492 C 0.86003 0.17922 0.56843 0.0
H2493 H 0.84738 0.69296 0.50713 0.0
H2494 H 0.90733 0.76791 0.52079 0.0
H2495 H 0.90273 0.7604 0.5474 0.0
H2496 H 0.80971 0.69048 0.53638 0.0
H2497 H 0.79923 0.65854 0.53888 0.0
H2498 H 0.8075 0.66954 0.52084 0.0
H2499 H 0.83882 0.65396 0.52094 0.0
H2500 H 0.83062 0.64287 0.53897 0.0
H2501 H 0.86242 0.66419 0.53657 0.0
H2502 H 0.89107 0.74527 0.5725 0.0
H2503 H 0.87366 0.72331 0.59446 0.0
H2504 H 0.82153 0.65781 0.56472 0.0
C2505 C 0.85948 0.70783 0.51572 0.0
C2506 C 0.87782 0.73102 0.51183 0.0
C2507 C 0.89342 0.74988 0.52344 0.0
C2508 C 0.89085 0.74585 0.53861 0.0
C2509 C 0.87259 0.72283 0.54204 0.0
C2510 C 0.85721 0.7041 0.53094 0.0
C2511 C 0.83909 0.68108 0.53771 0.0
C2512 C 0.8123 0.67454 0.53319 0.0
C2513 C 0.84298 0.65924 0.53329 0.0
C2514 C 0.84662 0.68987 0.55434 0.0
C2515 C 0.86598 0.71401 0.55656 0.0
C2516 C 0.87603 0.72629 0.57091 0.0
C2517 C 0.86609 0.71356 0.58333 0.0
C2518 C 0.84633 0.68869 0.5814 0.0
C2519 C 0.8365 0.67682 0.56664 0.0
loop_
_geom_bond_atom_site_label_1
_geom_bond_atom_site_label_2
_geom_bond_distance
_geom_bond_site_symmetry_2
_ccdc_geom_bond_type
C0 C1 1.386 . S
C0 C2 1.397 . S
C0 H24 0.931 . S
C1 C0 1.386 . S
C1 C5 1.397 . S
C2 C0 1.397 . S
C2 C3 1.384 . S
C2 H25 0.930 . S
C3 C2 1.384 . S
C3 C4 1.377 . S
C3 C6 1.481 . S
C4 C3 1.377 . S
C4 C5 1.389 . S
C4 H26 0.929 . S
C5 C1 1.397 . S
C5 C4 1.389 . S
C5 H27 0.931 . S
C6 C3 1.481 . S
C6 C7 1.387 . S
C6 C11 1.390 . S
C7 C6 1.387 . S
C7 C8 1.401 . S
C7 H28 0.930 . S
C8 C7 1.401 . S
C8 C9 1.376 . S
C8 C17 1.511 . S
C9 C8 1.376 . S
C9 C10 1.392 . S
C9 H30 0.931 . S
C10 C9 1.392 . S
C10 C11 1.361 . S
C10 C12 1.500 . S
C11 C6 1.390 . S
C11 C10 1.361 . S
C11 H29 0.931 . S
C12 C10 1.500 . S
C12 C13 1.371 . S
C12 C14 1.365 . S
C13 C12 1.371 . S
C13 C23 1.386 . S
C13 H31 0.931 . S
C14 C12 1.365 . S
C14 C15 1.409 . S
C14 H32 0.929 . S
C15 C14 1.409 . S
C15 C16 1.380 . S
C15 H33 0.930 . S
C16 C15 1.380 . S
C16 C23 1.357 . S
C17 C8 1.511 . S
C17 C18 1.341 . S
C17 C19 1.371 . S
C18 C17 1.341 . S
C18 C22 1.394 . S
C18 H34 0.930 . S
C19 C17 1.371 . S
C19 C20 1.392 . S
C19 H35 0.931 . S
C20 C19 1.392 . S
C20 C21 1.331 . S
C20 H38 0.932 . S
C21 C20 1.331 . S
C21 C22 1.336 . S
C22 C18 1.394 . S
C22 C21 1.336 . S
C22 H37 0.929 . S
C23 C13 1.386 . S
C23 C16 1.357 . S
C23 H36 0.928 . S
H24 C0 0.931 . S
H25 C2 0.930 . S
H26 C4 0.929 . S
H27 C5 0.931 . S
H28 C7 0.930 . S
H29 C11 0.931 . S
H30 C9 0.931 . S
H31 C13 0.931 . S
H32 C14 0.929 . S
H33 C15 0.930 . S
H34 C18 0.930 . S
H35 C19 0.931 . S
H36 C23 0.928 . S
H37 C22 0.929 . S
H38 C20 0.932 . S
C39 C40 1.386 . S
C39 C41 1.397 . S
C39 H63 0.931 . S
C40 C39 1.386 . S
C40 C44 1.397 . S
C41 C39 1.397 . S
C41 C42 1.384 . S
C41 H64 0.930 . S
C42 C41 1.384 . S
C42 C43 1.377 . S
C42 C45 1.481 . S
C43 C42 1.377 . S
C43 C44 1.389 . S
C43 H65 0.929 . S
C44 C40 1.397 . S
C44 C43 1.389 . S
C44 H66 0.931 . S
C45 C42 1.481 . S
C45 C46 1.387 . S
C45 C50 1.390 . S
C46 C45 1.387 . S
C46 C47 1.401 . S
C46 H67 0.930 . S
C47 C46 1.401 . S
C47 C48 1.376 . S
C47 C56 1.511 . S
C48 C47 1.376 . S
C48 C49 1.392 . S
C48 H69 0.931 . S
C49 C48 1.392 . S
C49 C50 1.361 . S
C49 C51 1.500 . S
C50 C45 1.390 . S
C50 C49 1.361 . S
C50 H68 0.931 . S
C51 C49 1.500 . S
C51 C52 1.371 . S
C51 C53 1.365 . S
C52 C51 1.371 . S
C52 C62 1.386 . S
C52 H70 0.931 . S
C53 C51 1.365 . S
C53 C54 1.409 . S
C53 H71 0.929 . S
C54 C53 1.409 . S
C54 C55 1.380 . S
C54 H72 0.930 . S
C55 C54 1.380 . S
C55 C62 1.357 . S
C56 C47 1.511 . S
C56 C57 1.341 . S
C56 C58 1.371 . S
C57 C56 1.341 . S
C57 C61 1.394 . S
C57 H73 0.930 . S
C58 C56 1.371 . S
C58 C59 1.392 . S
C58 H74 0.931 . S
C59 C58 1.392 . S
C59 C60 1.331 . S
C59 H77 0.932 . S
C60 C59 1.331 . S
C60 C61 1.336 . S
C61 C57 1.394 . S
C61 C60 1.336 . S
C61 H76 0.929 . S
C62 C52 1.386 . S
C62 C55 1.357 . S
C62 H75 0.928 . S
H63 C39 0.931 . S
H64 C41 0.930 . S
H65 C43 0.929 . S
H66 C44 0.931 . S
H67 C46 0.930 . S
H68 C50 0.931 . S
H69 C48 0.931 . S
H70 C52 0.931 . S
H71 C53 0.929 . S
H72 C54 0.930 . S
H73 C57 0.930 . S
H74 C58 0.931 . S
H75 C62 0.928 . S
H76 C61 0.929 . S
H77 C59 0.932 . S
C78 C79 1.386 . S
C78 C80 1.397 . S
C78 H102 0.931 . S
C79 C78 1.386 . S
C79 C83 1.397 . S
C80 C78 1.397 . S
C80 C81 1.384 . S
C80 H103 0.930 . S
C81 C80 1.384 . S
C81 C82 1.377 . S
C81 C84 1.481 . S
C82 C81 1.377 . S
C82 C83 1.389 . S
C82 H104 0.929 . S
C83 C79 1.397 . S
C83 C82 1.389 . S
C83 H105 0.931 . S
C84 C81 1.481 . S
C84 C85 1.387 . S
C84 C89 1.390 . S
C85 C84 1.387 . S
C85 C86 1.401 . S
C85 H106 0.930 . S
C86 C85 1.401 . S
C86 C87 1.376 . S
C86 C95 1.511 . S
C87 C86 1.376 . S
C87 C88 1.392 . S
C87 H108 0.931 . S
C88 C87 1.392 . S
C88 C89 1.361 . S
C88 C90 1.500 . S
C89 C84 1.390 . S
C89 C88 1.361 . S
C89 H107 0.931 . S
C90 C88 1.500 . S
C90 C91 1.371 . S
C90 C92 1.365 . S
C91 C90 1.371 . S
C91 C101 1.386 . S
C91 H109 0.931 . S
C92 C90 1.365 . S
C92 C93 1.409 . S
C92 H110 0.929 . S
C93 C92 1.409 . S
C93 C94 1.380 . S
C93 H111 0.930 . S
C94 C93 1.380 . S
C94 C101 1.357 . S
C95 C86 1.511 . S
C95 C96 1.341 . S
C95 C97 1.371 . S
C96 C95 1.341 . S
C96 C100 1.394 . S
C96 H112 0.930 . S
C97 C95 1.371 . S
C97 C98 1.392 . S
C97 H113 0.931 . S
C98 C97 1.392 . S
C98 C99 1.331 . S
C98 H116 0.932 . S
C99 C98 1.331 . S
C99 C100 1.336 . S
C100 C96 1.394 . S
C100 C99 1.336 . S
C100 H115 0.929 . S
C101 C91 1.386 . S
C101 C94 1.357 . S
C101 H114 0.928 . S
H102 C78 0.931 . S
H103 C80 0.930 . S
H104 C82 0.929 . S
H105 C83 0.931 . S
H106 C85 0.930 . S
H107 C89 0.931 . S
H108 C87 0.931 . S
H109 C91 0.931 . S
H110 C92 0.929 . S
H111 C93 0.930 . S
H112 C96 0.930 . S
H113 C97 0.931 . S
H114 C101 0.928 . S
H115 C100 0.929 . S
H116 C98 0.932 . S
C117 C118 1.386 . S
C117 C119 1.397 . S
C117 H141 0.931 . S
C118 C117 1.386 . S
C118 C122 1.397 . S
C119 C117 1.397 . S
C119 C120 1.384 . S
C119 H142 0.930 . S
C120 C119 1.384 . S
C120 C121 1.377 . S
C120 C123 1.481 . S
C121 C120 1.377 . S
C121 C122 1.389 . S
C121 H143 0.929 . S
C122 C118 1.397 . S
C122 C121 1.389 . S
C122 H144 0.931 . S
C123 C120 1.481 . S
C123 C124 1.387 . S
C123 C128 1.390 . S
C124 C123 1.387 . S
C124 C125 1.401 . S
C124 H145 0.930 . S
C125 C124 1.401 . S
C125 C126 1.376 . S
C125 C134 1.511 . S
C126 C125 1.376 . S
C126 C127 1.392 . S
C126 H147 0.931 . S
C127 C126 1.392 . S
C127 C128 1.361 . S
C127 C129 1.500 . S
C128 C123 1.390 . S
C128 C127 1.361 . S
C128 H146 0.931 . S
C129 C127 1.500 . S
C129 C130 1.371 . S
C129 C131 1.365 . S
C130 C129 1.371 . S
C130 C140 1.386 . S
C130 H148 0.931 . S
C131 C129 1.365 . S
C131 C132 1.409 . S
C131 H149 0.929 . S
C132 C131 1.409 . S
C132 C133 1.380 . S
C132 H150 0.930 . S
C133 C132 1.380 . S
C133 C140 1.357 . S
C134 C125 1.511 . S
C134 C135 1.341 . S
C134 C136 1.371 . S
C135 C134 1.341 . S
C135 C139 1.394 . S
C135 H151 0.930 . S
C136 C134 1.371 . S
C136 C137 1.392 . S
C136 H152 0.931 . S
C137 C136 1.392 . S
C137 C138 1.331 . S
C137 H155 0.932 . S
C138 C137 1.331 . S
C138 C139 1.336 . S
C139 C135 1.394 . S
C139 C138 1.336 . S
C139 H154 0.929 . S
C140 C130 1.386 . S
C140 C133 1.357 . S
C140 H153 0.928 . S
H141 C117 0.931 . S
H142 C119 0.930 . S
H143 C121 0.929 . S
H144 C122 0.931 . S
H145 C124 0.930 . S
H146 C128 0.931 . S
H147 C126 0.931 . S
H148 C130 0.931 . S
H149 C131 0.929 . S
H150 C132 0.930 . S
H151 C135 0.930 . S
H152 C136 0.931 . S
H153 C140 0.928 . S
H154 C139 0.929 . S
H155 C137 0.932 . S
C156 C157 1.386 . S
C156 C158 1.397 . S
C156 H180 0.931 . S
C157 C156 1.386 . S
C157 C161 1.397 . S
C158 C156 1.397 . S
C158 C159 1.384 . S
C158 H181 0.930 . S
C159 C158 1.384 . S
C159 C160 1.377 . S
C159 C162 1.481 . S
C160 C159 1.377 . S
C160 C161 1.389 . S
C160 H182 0.929 . S
C161 C157 1.397 . S
C161 C160 1.389 . S
C161 H183 0.931 . S
C162 C159 1.481 . S
C162 C163 1.387 . S
C162 C167 1.390 . S
C163 C162 1.387 . S
C163 C164 1.401 . S
C163 H184 0.930 . S
C164 C163 1.401 . S
C164 C165 1.376 . S
C164 C173 1.511 . S
C165 C164 1.376 . S
C165 C166 1.392 . S
C165 H186 0.931 . S
C166 C165 1.392 . S
C166 C167 1.361 . S
C166 C168 1.500 . S
C167 C162 1.390 . S
C167 C166 1.361 . S
C167 H185 0.931 . S
C168 C166 1.500 . S
C168 C169 1.371 . S
C168 C170 1.365 . S
C169 C168 1.371 . S
C169 C179 1.386 . S
C169 H187 0.931 . S
C170 C168 1.365 . S
C170 C171 1.409 . S
C170 H188 0.929 . S
C171 C170 1.409 . S
C171 C172 1.380 . S
C171 H189 0.930 . S
C172 C171 1.380 . S
C172 C179 1.357 . S
C173 C164 1.511 . S
C173 C174 1.341 . S
C173 C175 1.371 . S
C174 C173 1.341 . S
C174 C178 1.394 . S
C174 H190 0.930 . S
C175 C173 1.371 . S
C175 C176 1.392 . S
C175 H191 0.931 . S
C176 C175 1.392 . S
C176 C177 1.331 . S
C176 H194 0.932 . S
C177 C176 1.331 . S
C177 C178 1.336 . S
C178 C174 1.394 . S
C178 C177 1.336 . S
C178 H193 0.929 . S
C179 C169 1.386 . S
C179 C172 1.357 . S
C179 H192 0.928 . S
H180 C156 0.931 . S
H181 C158 0.930 . S
H182 C160 0.929 . S
H183 C161 0.931 . S
H184 C163 0.930 . S
H185 C167 0.931 . S
H186 C165 0.931 . S
H187 C169 0.931 . S
H188 C170 0.929 . S
H189 C171 0.930 . S
H190 C174 0.930 . S
H191 C175 0.931 . S
H192 C179 0.928 . S
H193 C178 0.929 . S
H194 C176 0.932 . S
C195 C196 1.386 . S
C195 C197 1.397 . S
C195 H219 0.931 . S
C196 C195 1.386 . S
C196 C200 1.397 . S
C197 C195 1.397 . S
C197 C198 1.384 . S
C197 H220 0.930 . S
C198 C197 1.384 . S
C198 C199 1.377 . S
C198 C201 1.481 . S
C199 C198 1.377 . S
C199 C200 1.389 . S
C199 H221 0.929 . S
C200 C196 1.397 . S
C200 C199 1.389 . S
C200 H222 0.931 . S
C201 C198 1.481 . S
C201 C202 1.387 . S
C201 C206 1.390 . S
C202 C201 1.387 . S
C202 C203 1.401 . S
C202 H223 0.930 . S
C203 C202 1.401 . S
C203 C204 1.376 . S
C203 C212 1.511 . S
C204 C203 1.376 . S
C204 C205 1.392 . S
C204 H225 0.931 . S
C205 C204 1.392 . S
C205 C206 1.361 . S
C205 C207 1.500 . S
C206 C201 1.390 . S
C206 C205 1.361 . S
C206 H224 0.931 . S
C207 C205 1.500 . S
C207 C208 1.371 . S
C207 C209 1.365 . S
C208 C207 1.371 . S
C208 C218 1.386 . S
C208 H226 0.931 . S
C209 C207 1.365 . S
C209 C210 1.409 . S
C209 H227 0.929 . S
C210 C209 1.409 . S
C210 C211 1.380 . S
C210 H228 0.930 . S
C211 C210 1.380 . S
C211 C218 1.357 . S
C212 C203 1.511 . S
C212 C213 1.341 . S
C212 C214 1.371 . S
C213 C212 1.341 . S
C213 C217 1.394 . S
C213 H229 0.930 . S
C214 C212 1.371 . S
C214 C215 1.392 . S
C214 H230 0.931 . S
C215 C214 1.392 . S
C215 C216 1.331 . S
C215 H233 0.932 . S
C216 C215 1.331 . S
C216 C217 1.336 . S
C217 C213 1.394 . S
C217 C216 1.336 . S
C217 H232 0.929 . S
C218 C208 1.386 . S
C218 C211 1.357 . S
C218 H231 0.928 . S
H219 C195 0.931 . S
H220 C197 0.930 . S
H221 C199 0.929 . S
H222 C200 0.931 . S
H223 C202 0.930 . S
H224 C206 0.931 . S
H225 C204 0.931 . S
H226 C208 0.931 . S
H227 C209 0.929 . S
H228 C210 0.930 . S
H229 C213 0.930 . S
H230 C214 0.931 . S
H231 C218 0.928 . S
H232 C217 0.929 . S
H233 C215 0.932 . S
C234 C235 1.386 . S
C234 C236 1.397 . S
C234 H258 0.931 . S
C235 C234 1.386 . S
C235 C239 1.397 1_655 S
C236 C234 1.397 . S
C236 C237 1.384 . S
C236 H259 0.930 . S
C237 C236 1.384 . S
C237 C238 1.377 . S
C237 C240 1.481 . S
C238 C237 1.377 . S
C238 C239 1.389 1_655 S
C238 H260 0.929 1_655 S
C239 C235 1.397 1_455 S
C239 C238 1.389 1_455 S
C239 H261 0.931 . S
C240 C237 1.481 . S
C240 C241 1.387 . S
C240 C245 1.390 . S
C241 C240 1.387 . S
C241 C242 1.401 . S
C241 H262 0.930 . S
C242 C241 1.401 . S
C242 C243 1.376 . S
C242 C251 1.511 . S
C243 C242 1.376 . S
C243 C244 1.392 . S
C243 H264 0.931 . S
C244 C243 1.392 . S
C244 C245 1.361 . S
C244 C246 1.500 . S
C245 C240 1.390 . S
C245 C244 1.361 . S
C245 H263 0.931 . S
C246 C244 1.500 . S
C246 C247 1.371 . S
C246 C248 1.365 . S
C247 C246 1.371 . S
C247 C257 1.386 . S
C247 H265 0.931 . S
C248 C246 1.365 . S
C248 C249 1.409 . S
C248 H266 0.929 . S
C249 C248 1.409 . S
C249 C250 1.380 . S
C249 H267 0.930 . S
C250 C249 1.380 . S
C250 C257 1.357 . S
C251 C242 1.511 . S
C251 C252 1.341 . S
C251 C253 1.371 . S
C252 C251 1.341 . S
C252 C256 1.394 . S
C252 H268 0.930 . S
C253 C251 1.371 . S
C253 C254 1.392 . S
C253 H269 0.931 . S
C254 C253 1.392 . S
C254 C255 1.331 . S
C254 H272 0.932 . S
C255 C254 1.331 . S
C255 C256 1.336 . S
C256 C252 1.394 . S
C256 C255 1.336 . S
C256 H271 0.929 . S
C257 C247 1.386 . S
C257 C250 1.357 . S
C257 H270 0.928 . S
H258 C234 0.931 . S
H259 C236 0.930 . S
H260 C238 0.929 1_455 S
H261 C239 0.931 . S
H262 C241 0.930 . S
H263 C245 0.931 . S
H264 C243 0.931 . S
H265 C247 0.931 . S
H266 C248 0.929 . S
H267 C249 0.930 . S
H268 C252 0.930 . S
H269 C253 0.931 . S
H270 C257 0.928 . S
H271 C256 0.929 . S
H272 C254 0.932 . S
C273 C274 1.386 . S
C273 C275 1.397 . S
C273 H297 0.931 . S
C274 C273 1.386 . S
C274 C278 1.397 . S
C275 C273 1.397 . S
C275 C276 1.384 . S
C275 H298 0.930 . S
C276 C275 1.384 . S
C276 C277 1.377 . S
C276 C279 1.481 . S
C277 C276 1.377 . S
C277 C278 1.389 . S
C277 H299 0.929 . S
C278 C274 1.397 . S
C278 C277 1.389 . S
C278 H300 0.931 . S
C279 C276 1.481 . S
C279 C280 1.387 . S
C279 C284 1.390 . S
C280 C279 1.387 . S
C280 C281 1.401 . S
C280 H301 0.930 . S
C281 C280 1.401 . S
C281 C282 1.376 . S
C281 C290 1.511 . S
C282 C281 1.376 . S
C282 C283 1.392 . S
C282 H303 0.931 . S
C283 C282 1.392 . S
C283 C284 1.361 . S
C283 C285 1.500 . S
C284 C279 1.390 . S
C284 C283 1.361 . S
C284 H302 0.931 . S
C285 C283 1.500 . S
C285 C286 1.371 . S
C285 C287 1.365 . S
C286 C285 1.371 . S
C286 C296 1.386 . S
C286 H304 0.931 . S
C287 C285 1.365 . S
C287 C288 1.409 . S
C287 H305 0.929 . S
C288 C287 1.409 . S
C288 C289 1.380 . S
C288 H306 0.930 . S
C289 C288 1.380 . S
C289 C296 1.357 . S
C290 C281 1.511 . S
C290 C291 1.341 . S
C290 C292 1.371 . S
C291 C290 1.341 . S
C291 C295 1.394 . S
C291 H307 0.930 . S
C292 C290 1.371 . S
C292 C293 1.392 . S
C292 H308 0.931 . S
C293 C292 1.392 . S
C293 C294 1.331 . S
C293 H311 0.932 . S
C294 C293 1.331 . S
C294 C295 1.336 . S
C295 C291 1.394 . S
C295 C294 1.336 . S
C295 H310 0.929 . S
C296 C286 1.386 . S
C296 C289 1.357 . S
C296 H309 0.928 . S
H297 C273 0.931 . S
H298 C275 0.930 . S
H299 C277 0.929 . S
H300 C278 0.931 . S
H301 C280 0.930 . S
H302 C284 0.931 . S
H303 C282 0.931 . S
H304 C286 0.931 . S
H305 C287 0.929 . S
H306 C288 0.930 . S
H307 C291 0.930 . S
H308 C292 0.931 . S
H309 C296 0.928 . S
H310 C295 0.929 . S
H311 C293 0.932 . S
C312 C313 1.386 . S
C312 C314 1.397 . S
C312 H336 0.931 . S
C313 C312 1.386 . S
C313 C317 1.397 . S
C314 C312 1.397 . S
C314 C315 1.384 . S
C314 H337 0.930 . S
C315 C314 1.384 . S
C315 C316 1.377 . S
C315 C318 1.481 . S
C316 C315 1.377 . S
C316 C317 1.389 . S
C316 H338 0.929 . S
C317 C313 1.397 . S
C317 C316 1.389 . S
C317 H339 0.931 . S
C318 C315 1.481 . S
C318 C319 1.387 . S
C318 C323 1.390 . S
C319 C318 1.387 . S
C319 C320 1.401 . S
C319 H340 0.930 . S
C320 C319 1.401 . S
C320 C321 1.376 . S
C320 C329 1.511 . S
C321 C320 1.376 . S
C321 C322 1.392 . S
C321 H342 0.931 . S
C322 C321 1.392 . S
C322 C323 1.361 . S
C322 C324 1.500 . S
C323 C318 1.390 . S
C323 C322 1.361 . S
C323 H341 0.931 . S
C324 C322 1.500 . S
C324 C325 1.371 . S
C324 C326 1.365 . S
C325 C324 1.371 . S
C325 C335 1.386 . S
C325 H343 0.931 . S
C326 C324 1.365 . S
C326 C327 1.409 . S
C326 H344 0.929 . S
C327 C326 1.409 . S
C327 C328 1.380 . S
C327 H345 0.930 . S
C328 C327 1.380 . S
C328 C335 1.357 . S
C329 C320 1.511 . S
C329 C330 1.341 . S
C329 C331 1.371 . S
C330 C329 1.341 . S
C330 C334 1.394 . S
C330 H346 0.930 . S
C331 C329 1.371 . S
C331 C332 1.392 . S
C331 H347 0.931 . S
C332 C331 1.392 . S
C332 C333 1.331 . S
C332 H350 0.932 . S
C333 C332 1.331 . S
C333 C334 1.336 . S
C334 C330 1.394 . S
C334 C333 1.336 . S
C334 H349 0.929 . S
C335 C325 1.386 . S
C335 C328 1.357 . S
C335 H348 0.928 . S
H336 C312 0.931 . S
H337 C314 0.930 . S
H338 C316 0.929 . S
H339 C317 0.931 . S
H340 C319 0.930 . S
H341 C323 0.931 . S
H342 C321 0.931 . S
H343 C325 0.931 . S
H344 C326 0.929 . S
H345 C327 0.930 . S
H346 C330 0.930 . S
H347 C331 0.931 . S
H348 C335 0.928 . S
H349 C334 0.929 . S
H350 C332 0.932 . S
C351 C352 1.386 . S
C351 C353 1.397 . S
C351 H375 0.931 . S
C352 C351 1.386 . S
C352 C356 1.397 . S
C353 C351 1.397 . S
C353 C354 1.384 . S
C353 H376 0.930 . S
C354 C353 1.384 . S
C354 C355 1.377 . S
C354 C357 1.481 . S
C355 C354 1.377 . S
C355 C356 1.389 . S
C355 H377 0.929 . S
C356 C352 1.397 . S
C356 C355 1.389 . S
C356 H378 0.931 . S
C357 C354 1.481 . S
C357 C358 1.387 . S
C357 C362 1.390 . S
C358 C357 1.387 . S
C358 C359 1.401 . S
C358 H379 0.930 . S
C359 C358 1.401 . S
C359 C360 1.376 . S
C359 C368 1.511 . S
C360 C359 1.376 . S
C360 C361 1.392 . S
C360 H381 0.931 . S
C361 C360 1.392 . S
C361 C362 1.361 . S
C361 C363 1.500 . S
C362 C357 1.390 . S
C362 C361 1.361 . S
C362 H380 0.931 . S
C363 C361 1.500 . S
C363 C364 1.371 . S
C363 C365 1.365 . S
C364 C363 1.371 . S
C364 C374 1.386 . S
C364 H382 0.931 . S
C365 C363 1.365 . S
C365 C366 1.409 . S
C365 H383 0.929 . S
C366 C365 1.409 . S
C366 C367 1.380 . S
C366 H384 0.930 . S
C367 C366 1.380 . S
C367 C374 1.357 . S
C368 C359 1.511 . S
C368 C369 1.341 . S
C368 C370 1.371 . S
C369 C368 1.341 . S
C369 C373 1.394 . S
C369 H385 0.930 . S
C370 C368 1.371 . S
C370 C371 1.392 . S
C370 H386 0.931 . S
C371 C370 1.392 . S
C371 C372 1.331 . S
C371 H389 0.932 . S
C372 C371 1.331 . S
C372 C373 1.336 . S
C373 C369 1.394 . S
C373 C372 1.336 . S
C373 H388 0.929 . S
C374 C364 1.386 . S
C374 C367 1.357 . S
C374 H387 0.928 . S
H375 C351 0.931 . S
H376 C353 0.930 . S
H377 C355 0.929 . S
H378 C356 0.931 . S
H379 C358 0.930 . S
H380 C362 0.931 . S
H381 C360 0.931 . S
H382 C364 0.931 . S
H383 C365 0.929 . S
H384 C366 0.930 . S
H385 C369 0.930 . S
H386 C370 0.931 . S
H387 C374 0.928 . S
H388 C373 0.929 . S
H389 C371 0.932 . S
C390 C391 1.386 . S
C390 C392 1.397 . S
C390 H414 0.931 . S
C391 C390 1.386 . S
C391 C395 1.397 . S
C392 C390 1.397 . S
C392 C393 1.384 . S
C392 H415 0.930 . S
C393 C392 1.384 . S
C393 C394 1.377 . S
C393 C396 1.481 . S
C394 C393 1.377 . S
C394 C395 1.389 . S
C394 H416 0.929 . S
C395 C391 1.397 . S
C395 C394 1.389 . S
C395 H417 0.931 . S
C396 C393 1.481 . S
C396 C397 1.387 . S
C396 C401 1.390 . S
C397 C396 1.387 . S
C397 C398 1.401 . S
C397 H418 0.930 . S
C398 C397 1.401 . S
C398 C399 1.376 . S
C398 C407 1.511 . S
C399 C398 1.376 . S
C399 C400 1.392 . S
C399 H420 0.931 . S
C400 C399 1.392 . S
C400 C401 1.361 . S
C400 C402 1.500 . S
C401 C396 1.390 . S
C401 C400 1.361 . S
C401 H419 0.931 . S
C402 C400 1.500 . S
C402 C403 1.371 . S
C402 C404 1.365 . S
C403 C402 1.371 . S
C403 C413 1.386 . S
C403 H421 0.931 . S
C404 C402 1.365 . S
C404 C405 1.409 . S
C404 H422 0.929 . S
C405 C404 1.409 . S
C405 C406 1.380 . S
C405 H423 0.930 . S
C406 C405 1.380 . S
C406 C413 1.357 . S
C407 C398 1.511 . S
C407 C408 1.341 . S
C407 C409 1.371 . S
C408 C407 1.341 . S
C408 C412 1.394 . S
C408 H424 0.930 . S
C409 C407 1.371 . S
C409 C410 1.392 . S
C409 H425 0.931 . S
C410 C409 1.392 . S
C410 C411 1.331 . S
C410 H428 0.932 . S
C411 C410 1.331 . S
C411 C412 1.336 . S
C412 C408 1.394 . S
C412 C411 1.336 . S
C412 H427 0.929 . S
C413 C403 1.386 . S
C413 C406 1.357 . S
C413 H426 0.928 . S
H414 C390 0.931 . S
H415 C392 0.930 . S
H416 C394 0.929 . S
H417 C395 0.931 . S
H418 C397 0.930 . S
H419 C401 0.931 . S
H420 C399 0.931 . S
H421 C403 0.931 . S
H422 C404 0.929 . S
H423 C405 0.930 . S
H424 C408 0.930 . S
H425 C409 0.931 . S
H426 C413 0.928 . S
H427 C412 0.929 . S
H428 C410 0.932 . S
C429 C430 1.386 . S
C429 C431 1.397 . S
C429 H453 0.931 . S
C430 C429 1.386 . S
C430 C434 1.397 . S
C431 C429 1.397 . S
C431 C432 1.384 . S
C431 H454 0.930 . S
C432 C431 1.384 . S
C432 C433 1.377 . S
C432 C435 1.481 . S
C433 C432 1.377 . S
C433 C434 1.389 . S
C433 H455 0.929 . S
C434 C430 1.397 . S
C434 C433 1.389 . S
C434 H456 0.931 . S
C435 C432 1.481 . S
C435 C436 1.387 . S
C435 C440 1.390 . S
C436 C435 1.387 . S
C436 C437 1.401 . S
C436 H457 0.930 . S
C437 C436 1.401 . S
C437 C438 1.376 . S
C437 C446 1.511 . S
C438 C437 1.376 . S
C438 C439 1.392 . S
C438 H459 0.931 . S
C439 C438 1.392 . S
C439 C440 1.361 . S
C439 C441 1.500 . S
C440 C435 1.390 . S
C440 C439 1.361 . S
C440 H458 0.931 . S
C441 C439 1.500 . S
C441 C442 1.371 . S
C441 C443 1.365 . S
C442 C441 1.371 . S
C442 C452 1.386 . S
C442 H460 0.931 . S
C443 C441 1.365 . S
C443 C444 1.409 . S
C443 H461 0.929 . S
C444 C443 1.409 . S
C444 C445 1.380 . S
C444 H462 0.930 . S
C445 C444 1.380 . S
C445 C452 1.357 . S
C446 C437 1.511 . S
C446 C447 1.341 . S
C446 C448 1.371 . S
C447 C446 1.341 . S
C447 C451 1.394 . S
C447 H463 0.930 . S
C448 C446 1.371 . S
C448 C449 1.392 . S
C448 H464 0.931 . S
C449 C448 1.392 . S
C449 C450 1.331 . S
C449 H467 0.932 . S
C450 C449 1.331 . S
C450 C451 1.336 . S
C451 C447 1.394 . S
C451 C450 1.336 . S
C451 H466 0.929 . S
C452 C442 1.386 . S
C452 C445 1.357 . S
C452 H465 0.928 . S
H453 C429 0.931 . S
H454 C431 0.930 . S
H455 C433 0.929 . S
H456 C434 0.931 . S
H457 C436 0.930 . S
H458 C440 0.931 . S
H459 C438 0.931 . S
H460 C442 0.931 . S
H461 C443 0.929 . S
H462 C444 0.930 . S
H463 C447 0.930 . S
H464 C448 0.931 . S
H465 C452 0.928 . S
H466 C451 0.929 . S
H467 C449 0.932 . S
C468 C469 1.386 . S
C468 C470 1.397 . S
C468 H492 0.931 . S
C469 C468 1.386 . S
C469 C473 1.397 . S
C470 C468 1.397 . S
C470 C471 1.384 . S
C470 H493 0.930 . S
C471 C470 1.384 . S
C471 C472 1.377 . S
C471 C474 1.481 . S
C472 C471 1.377 . S
C472 C473 1.389 . S
C472 H494 0.929 . S
C473 C469 1.397 . S
C473 C472 1.389 . S
C473 H495 0.931 . S
C474 C471 1.481 . S
C474 C475 1.387 . S
C474 C479 1.390 . S
C475 C474 1.387 . S
C475 C476 1.401 . S
C475 H496 0.930 . S
C476 C475 1.401 . S
C476 C477 1.376 . S
C476 C485 1.511 . S
C477 C476 1.376 . S
C477 C478 1.392 . S
C477 H498 0.931 . S
C478 C477 1.392 . S
C478 C479 1.361 . S
C478 C480 1.500 . S
C479 C474 1.390 . S
C479 C478 1.361 . S
C479 H497 0.931 . S
C480 C478 1.500 . S
C480 C481 1.371 . S
C480 C482 1.365 . S
C481 C480 1.371 . S
C481 C491 1.386 . S
C481 H499 0.931 . S
C482 C480 1.365 . S
C482 C483 1.409 . S
C482 H500 0.929 . S
C483 C482 1.409 . S
C483 C484 1.380 . S
C483 H501 0.930 . S
C484 C483 1.380 . S
C484 C491 1.357 . S
C485 C476 1.511 . S
C485 C486 1.341 . S
C485 C487 1.371 . S
C486 C485 1.341 . S
C486 C490 1.394 . S
C486 H502 0.930 . S
C487 C485 1.371 . S
C487 C488 1.392 . S
C487 H503 0.931 . S
C488 C487 1.392 . S
C488 C489 1.331 . S
C488 H506 0.932 . S
C489 C488 1.331 . S
C489 C490 1.336 . S
C490 C486 1.394 . S
C490 C489 1.336 . S
C490 H505 0.929 . S
C491 C481 1.386 . S
C491 C484 1.357 . S
C491 H504 0.928 . S
H492 C468 0.931 . S
H493 C470 0.930 . S
H494 C472 0.929 . S
H495 C473 0.931 . S
H496 C475 0.930 . S
H497 C479 0.931 . S
H498 C477 0.931 . S
H499 C481 0.931 . S
H500 C482 0.929 . S
H501 C483 0.930 . S
H502 C486 0.930 . S
H503 C487 0.931 . S
H504 C491 0.928 . S
H505 C490 0.929 . S
H506 C488 0.932 . S
C507 C508 1.386 . S
C507 C509 1.397 . S
C507 H531 0.931 . S
C508 C507 1.386 . S
C508 C512 1.397 . S
C509 C507 1.397 . S
C509 C510 1.384 . S
C509 H532 0.930 . S
C510 C509 1.384 . S
C510 C511 1.377 . S
C510 C513 1.481 . S
C511 C510 1.377 . S
C511 C512 1.389 . S
C511 H533 0.929 . S
C512 C508 1.397 . S
C512 C511 1.389 . S
C512 H534 0.931 . S
C513 C510 1.481 . S
C513 C514 1.387 . S
C513 C518 1.390 . S
C514 C513 1.387 . S
C514 C515 1.401 . S
C514 H535 0.930 . S
C515 C514 1.401 . S
C515 C516 1.376 . S
C515 C524 1.511 . S
C516 C515 1.376 . S
C516 C517 1.392 . S
C516 H537 0.931 . S
C517 C516 1.392 . S
C517 C518 1.361 . S
C517 C519 1.500 . S
C518 C513 1.390 . S
C518 C517 1.361 . S
C518 H536 0.931 . S
C519 C517 1.500 . S
C519 C520 1.371 . S
C519 C521 1.365 . S
C520 C519 1.371 . S
C520 C530 1.386 . S
C520 H538 0.931 . S
C521 C519 1.365 . S
C521 C522 1.409 . S
C521 H539 0.929 . S
C522 C521 1.409 . S
C522 C523 1.380 . S
C522 H540 0.930 . S
C523 C522 1.380 . S
C523 C530 1.357 . S
C524 C515 1.511 . S
C524 C525 1.341 . S
C524 C526 1.371 . S
C525 C524 1.341 . S
C525 C529 1.394 . S
C525 H541 0.930 . S
C526 C524 1.371 . S
C526 C527 1.392 . S
C526 H542 0.931 . S
C527 C526 1.392 . S
C527 C528 1.331 . S
C527 H545 0.932 . S
C528 C527 1.331 . S
C528 C529 1.336 . S
C529 C525 1.394 . S
C529 C528 1.336 . S
C529 H544 0.929 . S
C530 C520 1.386 . S
C530 C523 1.357 . S
C530 H543 0.928 . S
H531 C507 0.931 . S
H532 C509 0.930 . S
H533 C511 0.929 . S
H534 C512 0.931 . S
H535 C514 0.930 . S
H536 C518 0.931 . S
H537 C516 0.931 . S
H538 C520 0.931 . S
H539 C521 0.929 . S
H540 C522 0.930 . S
H541 C525 0.930 . S
H542 C526 0.931 . S
H543 C530 0.928 . S
H544 C529 0.929 . S
H545 C527 0.932 . S
C546 C547 1.386 . S
C546 C548 1.397 . S
C546 H570 0.931 . S
C547 C546 1.386 . S
C547 C551 1.397 . S
C548 C546 1.397 . S
C548 C549 1.384 . S
C548 H571 0.930 . S
C549 C548 1.384 . S
C549 C550 1.377 . S
C549 C552 1.481 . S
C550 C549 1.377 . S
C550 C551 1.389 . S
C550 H572 0.929 . S
C551 C547 1.397 . S
C551 C550 1.389 . S
C551 H573 0.931 . S
C552 C549 1.481 . S
C552 C553 1.387 . S
C552 C557 1.390 . S
C553 C552 1.387 . S
C553 C554 1.401 . S
C553 H574 0.930 . S
C554 C553 1.401 . S
C554 C555 1.376 . S
C554 C563 1.511 . S
C555 C554 1.376 . S
C555 C556 1.392 . S
C555 H576 0.931 . S
C556 C555 1.392 . S
C556 C557 1.361 . S
C556 C558 1.500 . S
C557 C552 1.390 . S
C557 C556 1.361 . S
C557 H575 0.931 . S
C558 C556 1.500 . S
C558 C559 1.371 . S
C558 C560 1.365 . S
C559 C558 1.371 . S
C559 C569 1.386 . S
C559 H577 0.931 . S
C560 C558 1.365 . S
C560 C561 1.409 . S
C560 H578 0.929 . S
C561 C560 1.409 . S
C561 C562 1.380 . S
C561 H579 0.930 . S
C562 C561 1.380 . S
C562 C569 1.357 . S
C563 C554 1.511 . S
C563 C564 1.341 . S
C563 C565 1.371 . S
C564 C563 1.341 . S
C564 C568 1.394 . S
C564 H580 0.930 . S
C565 C563 1.371 . S
C565 C566 1.392 . S
C565 H581 0.931 . S
C566 C565 1.392 . S
C566 C567 1.331 . S
C566 H584 0.932 . S
C567 C566 1.331 . S
C567 C568 1.336 . S
C568 C564 1.394 . S
C568 C567 1.336 . S
C568 H583 0.929 . S
C569 C559 1.386 . S
C569 C562 1.357 . S
C569 H582 0.928 . S
H570 C546 0.931 . S
H571 C548 0.930 . S
H572 C550 0.929 . S
H573 C551 0.931 . S
H574 C553 0.930 . S
H575 C557 0.931 . S
H576 C555 0.931 . S
H577 C559 0.931 . S
H578 C560 0.929 . S
H579 C561 0.930 . S
H580 C564 0.930 . S
H581 C565 0.931 . S
H582 C569 0.928 . S
H583 C568 0.929 . S
H584 C566 0.932 . S
C585 C586 1.386 . S
C585 C587 1.397 . S
C585 H609 0.931 . S
C586 C585 1.386 . S
C586 C590 1.397 . S
C587 C585 1.397 . S
C587 C588 1.384 . S
C587 H610 0.930 . S
C588 C587 1.384 . S
C588 C589 1.377 . S
C588 C591 1.481 . S
C589 C588 1.377 . S
C589 C590 1.389 . S
C589 H611 0.929 . S
C590 C586 1.397 . S
C590 C589 1.389 . S
C590 H612 0.931 . S
C591 C588 1.481 . S
C591 C592 1.387 . S
C591 C596 1.390 . S
C592 C591 1.387 . S
C592 C593 1.401 . S
C592 H613 0.930 . S
C593 C592 1.401 . S
C593 C594 1.376 . S
C593 C602 1.511 . S
C594 C593 1.376 . S
C594 C595 1.392 . S
C594 H615 0.931 . S
C595 C594 1.392 . S
C595 C596 1.361 . S
C595 C597 1.500 . S
C596 C591 1.390 . S
C596 C595 1.361 . S
C596 H614 0.931 . S
C597 C595 1.500 . S
C597 C598 1.371 . S
C597 C599 1.365 . S
C598 C597 1.371 . S
C598 C608 1.386 . S
C598 H616 0.931 . S
C599 C597 1.365 . S
C599 C600 1.409 . S
C599 H617 0.929 . S
C600 C599 1.409 . S
C600 C601 1.380 . S
C600 H618 0.930 . S
C601 C600 1.380 . S
C601 C608 1.357 . S
C602 C593 1.511 . S
C602 C603 1.341 . S
C602 C604 1.371 . S
C603 C602 1.341 . S
C603 C607 1.394 . S
C603 H619 0.930 . S
C604 C602 1.371 . S
C604 C605 1.392 . S
C604 H620 0.931 . S
C605 C604 1.392 . S
C605 C606 1.331 . S
C605 H623 0.932 . S
C606 C605 1.331 . S
C606 C607 1.336 . S
C607 C603 1.394 . S
C607 C606 1.336 . S
C607 H622 0.929 . S
C608 C598 1.386 . S
C608 C601 1.357 . S
C608 H621 0.928 . S
H609 C585 0.931 . S
H610 C587 0.930 . S
H611 C589 0.929 . S
H612 C590 0.931 . S
H613 C592 0.930 . S
H614 C596 0.931 . S
H615 C594 0.931 . S
H616 C598 0.931 . S
H617 C599 0.929 . S
H618 C600 0.930 . S
H619 C603 0.930 . S
H620 C604 0.931 . S
H621 C608 0.928 . S
H622 C607 0.929 . S
H623 C605 0.932 . S
C624 C625 1.386 1_655 S
C624 C626 1.397 1_655 S
C624 H648 0.931 . S
C625 C624 1.386 1_455 S
C625 C629 1.397 . S
C626 C624 1.397 1_455 S
C626 C627 1.384 . S
C626 H649 0.930 1_455 S
C627 C626 1.384 . S
C627 C628 1.377 . S
C627 C630 1.481 . S
C628 C627 1.377 . S
C628 C629 1.389 . S
C628 H650 0.929 . S
C629 C625 1.397 . S
C629 C628 1.389 . S
C629 H651 0.931 . S
C630 C627 1.481 . S
C630 C631 1.387 . S
C630 C635 1.390 . S
C631 C630 1.387 . S
C631 C632 1.401 . S
C631 H652 0.930 . S
C632 C631 1.401 . S
C632 C633 1.376 . S
C632 C641 1.511 . S
C633 C632 1.376 . S
C633 C634 1.392 . S
C633 H654 0.931 . S
C634 C633 1.392 . S
C634 C635 1.361 . S
C634 C636 1.500 . S
C635 C630 1.390 . S
C635 C634 1.361 . S
C635 H653 0.931 . S
C636 C634 1.500 . S
C636 C637 1.371 . S
C636 C638 1.365 . S
C637 C636 1.371 . S
C637 C647 1.386 . S
C637 H655 0.931 . S
C638 C636 1.365 . S
C638 C639 1.409 . S
C638 H656 0.929 . S
C639 C638 1.409 . S
C639 C640 1.380 . S
C639 H657 0.930 . S
C640 C639 1.380 . S
C640 C647 1.357 . S
C641 C632 1.511 . S
C641 C642 1.341 . S
C641 C643 1.371 . S
C642 C641 1.341 . S
C642 C646 1.394 . S
C642 H658 0.930 . S
C643 C641 1.371 . S
C643 C644 1.392 . S
C643 H659 0.931 . S
C644 C643 1.392 . S
C644 C645 1.331 . S
C644 H662 0.932 . S
C645 C644 1.331 . S
C645 C646 1.336 . S
C646 C642 1.394 . S
C646 C645 1.336 . S
C646 H661 0.929 . S
C647 C637 1.386 . S
C647 C640 1.357 . S
C647 H660 0.928 . S
H648 C624 0.931 . S
H649 C626 0.930 1_655 S
H650 C628 0.929 . S
H651 C629 0.931 . S
H652 C631 0.930 . S
H653 C635 0.931 . S
H654 C633 0.931 . S
H655 C637 0.931 . S
H656 C638 0.929 . S
H657 C639 0.930 . S
H658 C642 0.930 . S
H659 C643 0.931 . S
H660 C647 0.928 . S
H661 C646 0.929 . S
H662 C644 0.932 . S
C663 C664 1.386 . S
C663 C665 1.397 . S
C663 H687 0.931 . S
C664 C663 1.386 . S
C664 C668 1.397 . S
C665 C663 1.397 . S
C665 C666 1.384 . S
C665 H688 0.930 . S
C666 C665 1.384 . S
C666 C667 1.377 . S
C666 C669 1.481 . S
C667 C666 1.377 . S
C667 C668 1.389 . S
C667 H689 0.929 . S
C668 C664 1.397 . S
C668 C667 1.389 . S
C668 H690 0.931 . S
C669 C666 1.481 . S
C669 C670 1.387 . S
C669 C674 1.390 . S
C670 C669 1.387 . S
C670 C671 1.401 . S
C670 H691 0.930 . S
C671 C670 1.401 . S
C671 C672 1.376 . S
C671 C680 1.511 . S
C672 C671 1.376 . S
C672 C673 1.392 . S
C672 H693 0.931 . S
C673 C672 1.392 . S
C673 C674 1.361 . S
C673 C675 1.500 . S
C674 C669 1.390 . S
C674 C673 1.361 . S
C674 H692 0.931 . S
C675 C673 1.500 . S
C675 C676 1.371 . S
C675 C677 1.365 . S
C676 C675 1.371 . S
C676 C686 1.386 . S
C676 H694 0.931 . S
C677 C675 1.365 . S
C677 C678 1.409 . S
C677 H695 0.929 . S
C678 C677 1.409 . S
C678 C679 1.380 . S
C678 H696 0.930 . S
C679 C678 1.380 . S
C679 C686 1.357 . S
C680 C671 1.511 . S
C680 C681 1.341 . S
C680 C682 1.371 . S
C681 C680 1.341 . S
C681 C685 1.394 . S
C681 H697 0.930 . S
C682 C680 1.371 . S
C682 C683 1.392 . S
C682 H698 0.931 . S
C683 C682 1.392 . S
C683 C684 1.331 . S
C683 H701 0.932 . S
C684 C683 1.331 . S
C684 C685 1.336 . S
C685 C681 1.394 . S
C685 C684 1.336 . S
C685 H700 0.929 . S
C686 C676 1.386 . S
C686 C679 1.357 . S
C686 H699 0.928 . S
H687 C663 0.931 . S
H688 C665 0.930 . S
H689 C667 0.929 . S
H690 C668 0.931 . S
H691 C670 0.930 . S
H692 C674 0.931 . S
H693 C672 0.931 . S
H694 C676 0.931 . S
H695 C677 0.929 . S
H696 C678 0.930 . S
H697 C681 0.930 . S
H698 C682 0.931 . S
H699 C686 0.928 . S
H700 C685 0.929 . S
H701 C683 0.932 . S
Eu702 C711 2.828 . S
Eu702 O713 2.350 1_556 S
Eu702 O715 2.418 . S
Eu702 O720 2.373 1_565 S
Eu702 O723 2.488 . S
Eu702 O724 2.471 1_565 S
Eu702 O725 2.349 1_565 S
Eu703 O712 2.373 1_545 S
Eu703 O716 2.488 . S
Eu703 O717 2.460 1_545 S
Eu703 O718 2.349 1_545 S
Eu703 O721 2.392 . S
Eu703 O722 2.418 . S
Eu703 C732 2.828 . S
C704 O722 1.260 . S
C704 O725 1.259 1_554 S
C705 C706 1.379 1_565 S
C705 C709 1.373 . S
C705 C711 1.505 . S
C706 C705 1.379 1_545 S
C706 C708 1.369 . S
C706 H734 0.930 . S
C707 C709 1.383 . S
C707 C710 1.382 1_565 S
C707 H735 0.930 . S
C708 C706 1.369 . S
C708 C710 1.392 . S
C708 H736 0.930 . S
C709 C705 1.373 . S
C709 C707 1.383 . S
C709 H737 0.931 . S
C710 C707 1.382 1_545 S
C710 C708 1.392 . S
C711 Eu702 2.828 . S
C711 C705 1.505 . S
C711 O723 1.249 . S
C711 O724 1.244 1_565 S
O712 Eu703 2.373 1_565 S
O712 C714 1.258 . S
O713 Eu702 2.350 1_554 S
O713 C714 1.293 . S
C714 O712 1.258 . S
C714 O713 1.293 . S
O715 Eu702 2.418 . S
O715 C719 1.244 1_556 S
O716 Eu703 2.488 . S
O716 C732 1.249 . S
O717 Eu703 2.460 1_565 S
O717 C732 1.227 1_565 S
O718 Eu703 2.349 1_565 S
O718 C719 1.265 . S
C719 O715 1.244 1_554 S
C719 O718 1.265 . S
O720 Eu702 2.373 1_545 S
O720 C733 1.258 . S
O721 Eu703 2.392 . S
O721 C733 1.242 1_554 S
O722 Eu703 2.418 . S
O722 C704 1.260 . S
O723 Eu702 2.488 . S
O723 C711 1.249 . S
O724 Eu702 2.471 1_545 S
O724 C711 1.244 1_545 S
O725 Eu702 2.349 1_545 S
O725 C704 1.259 1_556 S
C726 C727 1.379 1_545 S
C726 C730 1.373 . S
C726 C732 1.505 . S
C727 C726 1.379 1_565 S
C727 C729 1.369 . S
C727 H738 0.930 . S
C728 C730 1.383 . S
C728 C731 1.382 1_545 S
C728 H739 0.930 . S
C729 C727 1.369 . S
C729 C731 1.392 . S
C729 H740 0.930 . S
C730 C726 1.373 . S
C730 C728 1.383 . S
C730 H741 0.931 . S
C731 C728 1.382 1_565 S
C731 C729 1.392 . S
C732 Eu703 2.828 . S
C732 O716 1.249 . S
C732 O717 1.227 1_545 S
C732 C726 1.505 . S
C733 O720 1.258 . S
C733 O721 1.242 1_556 S
H734 C706 0.930 . S
H735 C707 0.930 . S
H736 C708 0.930 . S
H737 C709 0.931 . S
H738 C727 0.930 . S
H739 C728 0.930 . S
H740 C729 0.930 . S
H741 C730 0.931 . S
Eu742 C751 2.828 . S
Eu742 O753 2.392 1_556 S
Eu742 O755 2.418 . S
Eu742 O760 2.373 1_455 S
Eu742 O763 2.488 . S
Eu742 O764 2.471 1_455 S
Eu742 O765 2.349 1_455 S
Eu743 O752 2.373 1_655 S
Eu743 O756 2.488 . S
Eu743 O757 2.471 1_655 S
Eu743 O758 2.349 1_655 S
Eu743 O761 2.392 . S
Eu743 O762 2.418 . S
Eu743 C772 2.828 . S
C744 O762 1.244 1_556 S
C744 O765 1.265 . S
C745 C746 1.379 1_455 S
C745 C749 1.373 . S
C745 C751 1.505 . S
C746 C745 1.379 1_655 S
C746 C748 1.369 . S
C746 H774 0.930 . S
C747 C749 1.383 . S
C747 C750 1.382 1_455 S
C747 H775 0.930 . S
C748 C746 1.369 . S
C748 C750 1.392 . S
C748 H776 0.930 . S
C749 C745 1.373 . S
C749 C747 1.383 . S
C749 H777 0.931 . S
C750 C747 1.382 1_655 S
C750 C748 1.392 . S
C751 Eu742 2.828 . S
C751 C745 1.505 . S
C751 O763 1.249 . S
C751 O764 1.244 1_455 S
O752 Eu743 2.373 1_455 S
O752 C754 1.258 . S
O753 Eu742 2.392 1_554 S
O753 C754 1.242 . S
C754 O752 1.258 . S
C754 O753 1.242 . S
O755 Eu742 2.418 . S
O755 C759 1.244 1_556 S
O756 Eu743 2.488 . S
O756 C772 1.249 . S
O757 Eu743 2.471 1_455 S
O757 C772 1.244 1_455 S
O758 Eu743 2.349 1_455 S
O758 C759 1.265 . S
C759 O755 1.244 1_554 S
C759 O758 1.265 . S
O760 Eu742 2.373 1_655 S
O760 C773 1.258 . S
O761 Eu743 2.392 . S
O761 C773 1.242 1_554 S
O762 Eu743 2.418 . S
O762 C744 1.244 1_554 S
O763 Eu742 2.488 . S
O763 C751 1.249 . S
O764 Eu742 2.471 1_655 S
O764 C751 1.244 1_655 S
O765 Eu742 2.349 1_655 S
O765 C744 1.265 . S
C766 C767 1.379 1_655 S
C766 C770 1.373 . S
C766 C772 1.505 . S
C767 C766 1.379 1_455 S
C767 C769 1.369 . S
C767 H778 0.930 . S
C768 C770 1.383 . S
C768 C771 1.382 1_655 S
C768 H779 0.930 . S
C769 C767 1.369 . S
C769 C771 1.392 . S
C769 H780 0.930 . S
C770 C766 1.373 . S
C770 C768 1.383 . S
C770 H781 0.931 . S
C771 C768 1.382 1_455 S
C771 C769 1.392 . S
C772 Eu743 2.828 . S
C772 O756 1.249 . S
C772 O757 1.244 1_655 S
C772 C766 1.505 . S
C773 O760 1.258 . S
C773 O761 1.242 1_556 S
H774 C746 0.930 . S
H775 C747 0.930 . S
H776 C748 0.930 . S
H777 C749 0.931 . S
H778 C767 0.930 . S
H779 C768 0.930 . S
H780 C769 0.930 . S
H781 C770 0.931 . S
Eu782 C791 2.828 . S
Eu782 O793 2.392 . S
Eu782 O795 2.418 . S
Eu782 O800 2.373 . S
Eu782 O803 2.488 . S
Eu782 O804 2.471 . S
Eu782 O805 2.349 . S
Eu783 O792 2.373 . S
Eu783 O796 2.488 . S
Eu783 O797 2.471 . S
Eu783 O798 2.349 . S
Eu783 O801 2.392 1_556 S
Eu783 O802 2.418 . S
Eu783 C812 2.828 . S
C784 O802 1.244 1_554 S
C784 O805 1.265 . S
C785 C786 1.379 . S
C785 C789 1.373 . S
C785 C791 1.505 . S
C786 C785 1.379 . S
C786 C788 1.369 . S
C786 H814 0.930 . S
C787 C789 1.383 . S
C787 C790 1.382 . S
C787 H815 0.930 . S
C788 C786 1.369 . S
C788 C790 1.392 . S
C788 H816 0.930 . S
C789 C785 1.373 . S
C789 C787 1.383 . S
C789 H817 0.931 . S
C790 C787 1.382 . S
C790 C788 1.392 . S
C791 Eu782 2.828 . S
C791 C785 1.505 . S
C791 O803 1.249 . S
C791 O804 1.244 . S
O792 Eu783 2.373 . S
O792 C794 1.258 . S
O793 Eu782 2.392 . S
O793 C794 1.242 1_554 S
C794 O792 1.258 . S
C794 O793 1.242 1_556 S
O795 Eu782 2.418 . S
O795 C799 1.244 1_554 S
O796 Eu783 2.488 . S
O796 C812 1.249 . S
O797 Eu783 2.471 . S
O797 C812 1.244 . S
O798 Eu783 2.349 . S
O798 C799 1.265 . S
C799 O795 1.244 1_556 S
C799 O798 1.265 . S
O800 Eu782 2.373 . S
O800 C813 1.258 . S
O801 Eu783 2.392 1_554 S
O801 C813 1.242 . S
O802 Eu783 2.418 . S
O802 C784 1.244 1_556 S
O803 Eu782 2.488 . S
O803 C791 1.249 . S
O804 Eu782 2.471 . S
O804 C791 1.244 . S
O805 Eu782 2.349 . S
O805 C784 1.265 . S
C806 C807 1.379 . S
C806 C810 1.373 . S
C806 C812 1.505 . S
C807 C806 1.379 . S
C807 C809 1.369 . S
C807 H818 0.930 . S
C808 C810 1.383 . S
C808 C811 1.382 . S
C808 H819 0.930 . S
C809 C807 1.369 . S
C809 C811 1.392 . S
C809 H820 0.930 . S
C810 C806 1.373 . S
C810 C808 1.383 . S
C810 H821 0.931 . S
C811 C808 1.382 . S
C811 C809 1.392 . S
C812 Eu783 2.828 . S
C812 O796 1.249 . S
C812 O797 1.244 . S
C812 C806 1.505 . S
C813 O800 1.258 . S
C813 O801 1.242 . S
H814 C786 0.930 . S
H815 C787 0.930 . S
H816 C788 0.930 . S
H817 C789 0.931 . S
H818 C807 0.930 . S
H819 C808 0.930 . S
H820 C809 0.930 . S
H821 C810 0.931 . S
Eu822 C831 2.828 . S
Eu822 O833 2.392 . S
Eu822 O835 2.418 . S
Eu822 O840 2.373 . S
Eu822 O843 2.488 . S
Eu822 O844 2.471 . S
Eu822 O845 2.349 . S
Eu823 O832 2.373 . S
Eu823 O836 2.488 . S
Eu823 O837 2.471 . S
Eu823 O838 2.349 . S
Eu823 O841 2.392 . S
Eu823 O842 2.418 . S
Eu823 C852 2.828 . S
C824 O842 1.244 . S
C824 O845 1.265 . S
C825 C826 1.379 . S
C825 C829 1.373 . S
C825 C831 1.505 . S
C826 C825 1.379 . S
C826 C828 1.369 . S
C826 H854 0.930 . S
C827 C829 1.383 . S
C827 C830 1.382 . S
C827 H855 0.930 . S
C828 C826 1.369 . S
C828 C830 1.392 . S
C828 H856 0.930 . S
C829 C825 1.373 . S
C829 C827 1.383 . S
C829 H857 0.931 . S
C830 C827 1.382 . S
C830 C828 1.392 . S
C831 Eu822 2.828 . S
C831 C825 1.505 . S
C831 O843 1.249 . S
C831 O844 1.244 . S
O832 Eu823 2.373 . S
O832 C834 1.258 . S
O833 Eu822 2.392 . S
O833 C834 1.242 . S
C834 O832 1.258 . S
C834 O833 1.242 . S
O835 Eu822 2.418 . S
O835 C839 1.244 . S
O836 Eu823 2.488 . S
O836 C852 1.249 . S
O837 Eu823 2.471 . S
O837 C852 1.244 . S
O838 Eu823 2.349 . S
O838 C839 1.265 . S
C839 O835 1.244 . S
C839 O838 1.265 . S
O840 Eu822 2.373 . S
O840 C853 1.258 . S
O841 Eu823 2.392 . S
O841 C853 1.242 . S
O842 Eu823 2.418 . S
O842 C824 1.244 . S
O843 Eu822 2.488 . S
O843 C831 1.249 . S
O844 Eu822 2.471 . S
O844 C831 1.244 . S
O845 Eu822 2.349 . S
O845 C824 1.265 . S
C846 C847 1.379 . S
C846 C850 1.373 . S
C846 C852 1.505 . S
C847 C846 1.379 . S
C847 C849 1.369 . S
C847 H858 0.930 . S
C848 C850 1.383 . S
C848 C851 1.382 . S
C848 H859 0.930 . S
C849 C847 1.369 . S
C849 C851 1.392 . S
C849 H860 0.930 . S
C850 C846 1.373 . S
C850 C848 1.383 . S
C850 H861 0.931 . S
C851 C848 1.382 . S
C851 C849 1.392 . S
C852 Eu823 2.828 . S
C852 O836 1.249 . S
C852 O837 1.244 . S
C852 C846 1.505 . S
C853 O840 1.258 . S
C853 O841 1.242 . S
H854 C826 0.930 . S
H855 C827 0.930 . S
H856 C828 0.930 . S
H857 C829 0.931 . S
H858 C847 0.930 . S
H859 C848 0.930 . S
H860 C849 0.930 . S
H861 C850 0.931 . S
Eu862 C871 2.828 . S
Eu862 O873 2.392 . S
Eu862 O875 2.418 . S
Eu862 O880 2.373 . S
Eu862 O883 2.488 . S
Eu862 O884 2.471 . S
Eu862 O885 2.349 . S
Eu863 O872 2.373 . S
Eu863 O876 2.488 . S
Eu863 O877 2.471 . S
Eu863 O878 2.349 . S
Eu863 O881 2.392 . S
Eu863 O882 2.418 . S
Eu863 C892 2.828 . S
C864 O882 1.244 . S
C864 O885 1.265 . S
C865 C866 1.379 . S
C865 C869 1.373 . S
C865 C871 1.505 . S
C866 C865 1.379 . S
C866 C868 1.369 . S
C866 H894 0.930 . S
C867 C869 1.383 . S
C867 C870 1.382 . S
C867 H895 0.930 . S
C868 C866 1.369 . S
C868 C870 1.392 . S
C868 H896 0.930 . S
C869 C865 1.373 . S
C869 C867 1.383 . S
C869 H897 0.931 . S
C870 C867 1.382 . S
C870 C868 1.392 . S
C871 Eu862 2.828 . S
C871 C865 1.505 . S
C871 O883 1.249 . S
C871 O884 1.244 . S
O872 Eu863 2.373 . S
O872 C874 1.258 . S
O873 Eu862 2.392 . S
O873 C874 1.242 . S
C874 O872 1.258 . S
C874 O873 1.242 . S
O875 Eu862 2.418 . S
O875 C879 1.244 . S
O876 Eu863 2.488 . S
O876 C892 1.249 . S
O877 Eu863 2.471 . S
O877 C892 1.244 . S
O878 Eu863 2.349 . S
O878 C879 1.265 . S
C879 O875 1.244 . S
C879 O878 1.265 . S
O880 Eu862 2.373 . S
O880 C893 1.258 . S
O881 Eu863 2.392 . S
O881 C893 1.242 . S
O882 Eu863 2.418 . S
O882 C864 1.244 . S
O883 Eu862 2.488 . S
O883 C871 1.249 . S
O884 Eu862 2.471 . S
O884 C871 1.244 . S
O885 Eu862 2.349 . S
O885 C864 1.265 . S
C886 C887 1.379 . S
C886 C890 1.373 . S
C886 C892 1.505 . S
C887 C886 1.379 . S
C887 C889 1.369 . S
C887 H898 0.930 . S
C888 C890 1.383 . S
C888 C891 1.382 . S
C888 H899 0.930 . S
C889 C887 1.369 . S
C889 C891 1.392 . S
C889 H900 0.930 . S
C890 C886 1.373 . S
C890 C888 1.383 . S
C890 H901 0.931 . S
C891 C888 1.382 . S
C891 C889 1.392 . S
C892 Eu863 2.828 . S
C892 O876 1.249 . S
C892 O877 1.244 . S
C892 C886 1.505 . S
C893 O880 1.258 . S
C893 O881 1.242 . S
H894 C866 0.930 . S
H895 C867 0.930 . S
H896 C868 0.930 . S
H897 C869 0.931 . S
H898 C887 0.930 . S
H899 C888 0.930 . S
H900 C889 0.930 . S
H901 C890 0.931 . S
Eu902 C911 2.828 . S
Eu902 O913 2.392 . S
Eu902 O915 2.418 . S
Eu902 O920 2.373 . S
Eu902 O923 2.488 . S
Eu902 O924 2.471 . S
Eu902 O925 2.349 . S
Eu903 O912 2.373 . S
Eu903 O916 2.488 . S
Eu903 O917 2.471 . S
Eu903 O918 2.349 . S
Eu903 O921 2.392 . S
Eu903 O922 2.418 . S
Eu903 C932 2.828 . S
C904 O922 1.244 . S
C904 O925 1.265 . S
C905 C906 1.379 . S
C905 C909 1.373 . S
C905 C911 1.505 . S
C906 C905 1.379 . S
C906 C908 1.369 . S
C906 H934 0.930 . S
C907 C909 1.383 . S
C907 C910 1.382 . S
C907 H935 0.930 . S
C908 C906 1.369 . S
C908 C910 1.392 . S
C908 H936 0.930 . S
C909 C905 1.373 . S
C909 C907 1.383 . S
C909 H937 0.931 . S
C910 C907 1.382 . S
C910 C908 1.392 . S
C911 Eu902 2.828 . S
C911 C905 1.505 . S
C911 O923 1.249 . S
C911 O924 1.244 . S
O912 Eu903 2.373 . S
O912 C914 1.258 . S
O913 Eu902 2.392 . S
O913 C914 1.242 . S
C914 O912 1.258 . S
C914 O913 1.242 . S
O915 Eu902 2.418 . S
O915 C919 1.244 . S
O916 Eu903 2.488 . S
O916 C932 1.249 . S
O917 Eu903 2.471 . S
O917 C932 1.244 . S
O918 Eu903 2.349 . S
O918 C919 1.265 . S
C919 O915 1.244 . S
C919 O918 1.265 . S
O920 Eu902 2.373 . S
O920 C933 1.258 . S
O921 Eu903 2.392 . S
O921 C933 1.242 . S
O922 Eu903 2.418 . S
O922 C904 1.244 . S
O923 Eu902 2.488 . S
O923 C911 1.249 . S
O924 Eu902 2.471 . S
O924 C911 1.244 . S
O925 Eu902 2.349 . S
O925 C904 1.265 . S
C926 C927 1.379 . S
C926 C930 1.373 . S
C926 C932 1.505 . S
C927 C926 1.379 . S
C927 C929 1.369 . S
C927 H938 0.930 . S
C928 C930 1.383 . S
C928 C931 1.382 . S
C928 H939 0.930 . S
C929 C927 1.369 . S
C929 C931 1.392 . S
C929 H940 0.930 . S
C930 C926 1.373 . S
C930 C928 1.383 . S
C930 H941 0.931 . S
C931 C928 1.382 . S
C931 C929 1.392 . S
C932 Eu903 2.828 . S
C932 O916 1.249 . S
C932 O917 1.244 . S
C932 C926 1.505 . S
C933 O920 1.258 . S
C933 O921 1.242 . S
H934 C906 0.930 . S
H935 C907 0.930 . S
H936 C908 0.930 . S
H937 C909 0.931 . S
H938 C927 0.930 . S
H939 C928 0.930 . S
H940 C929 0.930 . S
H941 C930 0.931 . S
Eu942 C951 2.828 . S
Eu942 O953 2.392 . S
Eu942 O955 2.418 . S
Eu942 O960 2.373 . S
Eu942 O963 2.488 . S
Eu942 O964 2.471 . S
Eu942 O965 2.349 . S
Eu943 O952 2.373 . S
Eu943 O956 2.488 . S
Eu943 O957 2.471 . S
Eu943 O958 2.349 . S
Eu943 O961 2.392 . S
Eu943 O962 2.418 . S
Eu943 C972 2.828 . S
C944 O962 1.244 . S
C944 O965 1.265 . S
C945 C946 1.379 . S
C945 C949 1.373 . S
C945 C951 1.505 . S
C946 C945 1.379 . S
C946 C948 1.369 . S
C946 H974 0.930 . S
C947 C949 1.383 . S
C947 C950 1.382 . S
C947 H975 0.930 . S
C948 C946 1.369 . S
C948 C950 1.392 . S
C948 H976 0.930 . S
C949 C945 1.373 . S
C949 C947 1.383 . S
C949 H977 0.931 . S
C950 C947 1.382 . S
C950 C948 1.392 . S
C951 Eu942 2.828 . S
C951 C945 1.505 . S
C951 O963 1.249 . S
C951 O964 1.244 . S
O952 Eu943 2.373 . S
O952 C954 1.258 . S
O953 Eu942 2.392 . S
O953 C954 1.242 . S
C954 O952 1.258 . S
C954 O953 1.242 . S
O955 Eu942 2.418 . S
O955 C959 1.244 . S
O956 Eu943 2.488 . S
O956 C972 1.249 . S
O957 Eu943 2.471 . S
O957 C972 1.244 . S
O958 Eu943 2.349 . S
O958 C959 1.265 . S
C959 O955 1.244 . S
C959 O958 1.265 . S
O960 Eu942 2.373 . S
O960 C973 1.258 . S
O961 Eu943 2.392 . S
O961 C973 1.242 . S
O962 Eu943 2.418 . S
O962 C944 1.244 . S
O963 Eu942 2.488 . S
O963 C951 1.249 . S
O964 Eu942 2.471 . S
O964 C951 1.244 . S
O965 Eu942 2.349 . S
O965 C944 1.265 . S
C966 C967 1.379 . S
C966 C970 1.373 . S
C966 C972 1.505 . S
C967 C966 1.379 . S
C967 C969 1.369 . S
C967 H978 0.930 . S
C968 C970 1.383 . S
C968 C971 1.382 . S
C968 H979 0.930 . S
C969 C967 1.369 . S
C969 C971 1.392 . S
C969 H980 0.930 . S
C970 C966 1.373 . S
C970 C968 1.383 . S
C970 H981 0.931 . S
C971 C968 1.382 . S
C971 C969 1.392 . S
C972 Eu943 2.828 . S
C972 O956 1.249 . S
C972 O957 1.244 . S
C972 C966 1.505 . S
C973 O960 1.258 . S
C973 O961 1.242 . S
H974 C946 0.930 . S
H975 C947 0.930 . S
H976 C948 0.930 . S
H977 C949 0.931 . S
H978 C967 0.930 . S
H979 C968 0.930 . S
H980 C969 0.930 . S
H981 C970 0.931 . S
Eu982 C991 2.828 . S
Eu982 O993 2.392 . S
Eu982 O995 2.418 . S
Eu982 O1000 2.373 . S
Eu982 O1003 2.488 . S
Eu982 O1004 2.471 . S
Eu982 O1005 2.349 . S
Eu983 O992 2.373 . S
Eu983 O996 2.488 . S
Eu983 O997 2.471 . S
Eu983 O998 2.349 . S
Eu983 O1001 2.392 . S
Eu983 O1002 2.418 . S
Eu983 C1012 2.828 . S
C984 O1002 1.244 . S
C984 O1005 1.265 . S
C985 C986 1.379 . S
C985 C989 1.373 . S
C985 C991 1.505 . S
C986 C985 1.379 . S
C986 C988 1.369 . S
C986 H1014 0.930 . S
C987 C989 1.383 . S
C987 C990 1.382 . S
C987 H1015 0.930 . S
C988 C986 1.369 . S
C988 C990 1.392 . S
C988 H1016 0.930 . S
C989 C985 1.373 . S
C989 C987 1.383 . S
C989 H1017 0.931 . S
C990 C987 1.382 . S
C990 C988 1.392 . S
C991 Eu982 2.828 . S
C991 C985 1.505 . S
C991 O1003 1.249 . S
C991 O1004 1.244 . S
O992 Eu983 2.373 . S
O992 C994 1.258 . S
O993 Eu982 2.392 . S
O993 C994 1.242 . S
C994 O992 1.258 . S
C994 O993 1.242 . S
O995 Eu982 2.418 . S
O995 C999 1.244 . S
O996 Eu983 2.488 . S
O996 C1012 1.249 . S
O997 Eu983 2.471 . S
O997 C1012 1.244 . S
O998 Eu983 2.349 . S
O998 C999 1.265 . S
C999 O995 1.244 . S
C999 O998 1.265 . S
O1000 Eu982 2.373 . S
O1000 C1013 1.258 . S
O1001 Eu983 2.392 . S
O1001 C1013 1.242 . S
O1002 Eu983 2.418 . S
O1002 C984 1.244 . S
O1003 Eu982 2.488 . S
O1003 C991 1.249 . S
O1004 Eu982 2.471 . S
O1004 C991 1.244 . S
O1005 Eu982 2.349 . S
O1005 C984 1.265 . S
C1006 C1007 1.379 . S
C1006 C1010 1.373 . S
C1006 C1012 1.505 . S
C1007 C1006 1.379 . S
C1007 C1009 1.369 . S
C1007 H1018 0.930 . S
C1008 C1010 1.383 . S
C1008 C1011 1.382 . S
C1008 H1019 0.930 . S
C1009 C1007 1.369 . S
C1009 C1011 1.392 . S
C1009 H1020 0.930 . S
C1010 C1006 1.373 . S
C1010 C1008 1.383 . S
C1010 H1021 0.931 . S
C1011 C1008 1.382 . S
C1011 C1009 1.392 . S
C1012 Eu983 2.828 . S
C1012 O996 1.249 . S
C1012 O997 1.244 . S
C1012 C1006 1.505 . S
C1013 O1000 1.258 . S
C1013 O1001 1.242 . S
H1014 C986 0.930 . S
H1015 C987 0.930 . S
H1016 C988 0.930 . S
H1017 C989 0.931 . S
H1018 C1007 0.930 . S
H1019 C1008 0.930 . S
H1020 C1009 0.930 . S
H1021 C1010 0.931 . S
Eu1022 C1031 2.828 . S
Eu1022 O1033 2.392 . S
Eu1022 O1035 2.418 . S
Eu1022 O1040 2.373 . S
Eu1022 O1043 2.488 . S
Eu1022 O1044 2.471 . S
Eu1022 O1045 2.349 . S
Eu1023 O1032 2.373 . S
Eu1023 O1036 2.488 . S
Eu1023 O1037 2.471 . S
Eu1023 O1038 2.349 . S
Eu1023 O1041 2.392 . S
Eu1023 O1042 2.418 . S
Eu1023 C1052 2.828 . S
C1024 O1042 1.244 . S
C1024 O1045 1.265 . S
C1025 C1026 1.379 . S
C1025 C1029 1.373 . S
C1025 C1031 1.505 . S
C1026 C1025 1.379 . S
C1026 C1028 1.369 . S
C1026 H1054 0.930 . S
C1027 C1029 1.383 . S
C1027 C1030 1.382 . S
C1027 H1055 0.930 . S
C1028 C1026 1.369 . S
C1028 C1030 1.392 . S
C1028 H1056 0.930 . S
C1029 C1025 1.373 . S
C1029 C1027 1.383 . S
C1029 H1057 0.931 . S
C1030 C1027 1.382 . S
C1030 C1028 1.392 . S
C1031 Eu1022 2.828 . S
C1031 C1025 1.505 . S
C1031 O1043 1.249 . S
C1031 O1044 1.244 . S
O1032 Eu1023 2.373 . S
O1032 C1034 1.258 . S
O1033 Eu1022 2.392 . S
O1033 C1034 1.242 . S
C1034 O1032 1.258 . S
C1034 O1033 1.242 . S
O1035 Eu1022 2.418 . S
O1035 C1039 1.244 . S
O1036 Eu1023 2.488 . S
O1036 C1052 1.249 . S
O1037 Eu1023 2.471 . S
O1037 C1052 1.244 . S
O1038 Eu1023 2.349 . S
O1038 C1039 1.265 . S
C1039 O1035 1.244 . S
C1039 O1038 1.265 . S
O1040 Eu1022 2.373 . S
O1040 C1053 1.258 . S
O1041 Eu1023 2.392 . S
O1041 C1053 1.242 . S
O1042 Eu1023 2.418 . S
O1042 C1024 1.244 . S
O1043 Eu1022 2.488 . S
O1043 C1031 1.249 . S
O1044 Eu1022 2.471 . S
O1044 C1031 1.244 . S
O1045 Eu1022 2.349 . S
O1045 C1024 1.265 . S
C1046 C1047 1.379 . S
C1046 C1050 1.373 . S
C1046 C1052 1.505 . S
C1047 C1046 1.379 . S
C1047 C1049 1.369 . S
C1047 H1058 0.930 . S
C1048 C1050 1.383 . S
C1048 C1051 1.382 . S
C1048 H1059 0.930 . S
C1049 C1047 1.369 . S
C1049 C1051 1.392 . S
C1049 H1060 0.930 . S
C1050 C1046 1.373 . S
C1050 C1048 1.383 . S
C1050 H1061 0.931 . S
C1051 C1048 1.382 . S
C1051 C1049 1.392 . S
C1052 Eu1023 2.828 . S
C1052 O1036 1.249 . S
C1052 O1037 1.244 . S
C1052 C1046 1.505 . S
C1053 O1040 1.258 . S
C1053 O1041 1.242 . S
H1054 C1026 0.930 . S
H1055 C1027 0.930 . S
H1056 C1028 0.930 . S
H1057 C1029 0.931 . S
H1058 C1047 0.930 . S
H1059 C1048 0.930 . S
H1060 C1049 0.930 . S
H1061 C1050 0.931 . S
H1062 C1074 0.930 . S
H1063 C1076 0.930 . S
H1064 C1077 0.930 . S
H1065 C1081 0.959 . S
H1066 C1081 0.959 . S
H1067 C1081 0.961 . S
H1068 C1082 0.960 . S
H1069 C1082 0.961 1_556 S
H1070 C1082 0.963 . S
H1071 C1085 0.929 . S
H1072 C1086 0.931 . S
H1073 C1088 0.930 . S
C1074 H1062 0.930 . S
C1074 C1075 1.399 . S
C1074 C1079 1.399 . S
C1075 C1074 1.399 . S
C1075 C1076 1.376 . S
C1076 H1063 0.930 . S
C1076 C1075 1.376 . S
C1076 C1077 1.388 . S
C1077 H1064 0.930 . S
C1077 C1076 1.388 . S
C1077 C1078 1.390 . S
C1078 C1077 1.390 . S
C1078 C1079 1.394 . S
C1078 C1084 1.465 . S
C1079 C1074 1.399 . S
C1079 C1078 1.394 . S
C1079 C1080 1.516 . S
C1080 C1079 1.516 . S
C1080 C1081 1.502 . S
C1080 C1082 1.561 . S
C1080 C1083 1.526 . S
C1081 H1065 0.959 . S
C1081 H1066 0.959 . S
C1081 H1067 0.961 . S
C1081 C1080 1.502 . S
C1082 H1068 0.960 . S
C1082 H1069 0.961 1_554 S
C1082 H1070 0.963 . S
C1082 C1080 1.561 . S
C1083 C1080 1.526 . S
C1083 C1084 1.396 . S
C1083 C1088 1.390 . S
C1084 C1078 1.465 . S
C1084 C1083 1.396 . S
C1084 C1085 1.399 . S
C1085 H1071 0.929 . S
C1085 C1084 1.399 . S
C1085 C1086 1.385 . S
C1086 H1072 0.931 . S
C1086 C1085 1.385 . S
C1086 C1087 1.389 . S
C1087 C1086 1.389 . S
C1087 C1088 1.387 . S
C1088 H1073 0.930 . S
C1088 C1083 1.390 . S
C1088 C1087 1.387 . S
H1089 C1101 0.930 . S
H1090 C1103 0.930 . S
H1091 C1104 0.930 . S
H1092 C1108 0.959 . S
H1093 C1108 0.959 . S
H1094 C1108 0.961 . S
H1095 C1109 0.960 . S
H1096 C1109 0.961 . S
H1097 C1109 0.959 . S
H1098 C1112 0.929 . S
H1099 C1113 0.931 . S
H1100 C1115 0.930 . S
C1101 H1089 0.930 . S
C1101 C1102 1.399 . S
C1101 C1106 1.399 . S
C1102 C1101 1.399 . S
C1102 C1103 1.376 . S
C1103 H1090 0.930 . S
C1103 C1102 1.376 . S
C1103 C1104 1.388 . S
C1104 H1091 0.930 . S
C1104 C1103 1.388 . S
C1104 C1105 1.390 . S
C1105 C1104 1.390 . S
C1105 C1106 1.394 . S
C1105 C1111 1.465 . S
C1106 C1101 1.399 . S
C1106 C1105 1.394 . S
C1106 C1107 1.516 . S
C1107 C1106 1.516 . S
C1107 C1108 1.502 . S
C1107 C1109 1.561 . S
C1107 C1110 1.526 . S
C1108 H1092 0.959 . S
C1108 H1093 0.959 . S
C1108 H1094 0.961 . S
C1108 C1107 1.502 . S
C1109 H1095 0.960 . S
C1109 H1096 0.961 . S
C1109 H1097 0.959 . S
C1109 C1107 1.561 . S
C1110 C1107 1.526 . S
C1110 C1111 1.396 . S
C1110 C1115 1.390 . S
C1111 C1105 1.465 . S
C1111 C1110 1.396 . S
C1111 C1112 1.399 . S
C1112 H1098 0.929 . S
C1112 C1111 1.399 . S
C1112 C1113 1.385 . S
C1113 H1099 0.931 . S
C1113 C1112 1.385 . S
C1113 C1114 1.389 . S
C1114 C1113 1.389 . S
C1114 C1115 1.387 . S
C1115 H1100 0.930 . S
C1115 C1110 1.390 . S
C1115 C1114 1.387 . S
H1116 C1128 0.930 . S
H1117 C1130 0.930 . S
H1118 C1131 0.930 1_556 S
H1119 C1135 0.959 . S
H1120 C1135 0.959 . S
H1121 C1135 0.961 . S
H1122 C1136 0.960 . S
H1123 C1136 0.961 . S
H1124 C1136 0.959 . S
H1125 C1139 0.954 . S
H1126 C1140 0.930 . S
H1127 C1142 0.930 . S
C1128 H1116 0.930 . S
C1128 C1129 1.399 . S
C1128 C1133 1.399 . S
C1129 C1128 1.399 . S
C1129 C1130 1.376 . S
C1130 H1117 0.930 . S
C1130 C1129 1.376 . S
C1130 C1131 1.388 . S
C1131 H1118 0.930 1_554 S
C1131 C1130 1.388 . S
C1131 C1132 1.390 . S
C1132 C1131 1.390 . S
C1132 C1133 1.394 . S
C1132 C1138 1.465 . S
C1133 C1128 1.399 . S
C1133 C1132 1.394 . S
C1133 C1134 1.516 . S
C1134 C1133 1.516 . S
C1134 C1135 1.502 . S
C1134 C1136 1.561 . S
C1134 C1137 1.526 . S
C1135 H1119 0.959 . S
C1135 H1120 0.959 . S
C1135 H1121 0.961 . S
C1135 C1134 1.502 . S
C1136 H1122 0.960 . S
C1136 H1123 0.961 . S
C1136 H1124 0.959 . S
C1136 C1134 1.561 . S
C1137 C1134 1.526 . S
C1137 C1138 1.396 . S
C1137 C1142 1.390 . S
C1138 C1132 1.465 . S
C1138 C1137 1.396 . S
C1138 C1139 1.378 1_554 S
C1139 H1125 0.954 . S
C1139 C1138 1.378 1_556 S
C1139 C1140 1.382 . S
C1140 H1126 0.930 . S
C1140 C1139 1.382 . S
C1140 C1141 1.390 1_556 S
C1141 C1140 1.390 1_554 S
C1141 C1142 1.387 . S
C1142 H1127 0.930 . S
C1142 C1137 1.390 . S
C1142 C1141 1.387 . S
H1143 C1155 0.930 . S
H1144 C1157 0.930 . S
H1145 C1158 0.930 . S
H1146 C1162 0.959 1_556 S
H1147 C1162 0.959 . S
H1148 C1162 0.961 . S
H1149 C1163 0.960 . S
H1150 C1163 0.961 . S
H1151 C1163 0.959 . S
H1152 C1166 0.929 . S
H1153 C1167 0.931 . S
H1154 C1169 0.930 1_554 S
C1155 H1143 0.930 . S
C1155 C1156 1.399 . S
C1155 C1160 1.399 . S
C1156 C1155 1.399 . S
C1156 C1157 1.376 . S
C1157 H1144 0.930 . S
C1157 C1156 1.376 . S
C1157 C1158 1.388 . S
C1158 H1145 0.930 . S
C1158 C1157 1.388 . S
C1158 C1159 1.390 . S
C1159 C1158 1.390 . S
C1159 C1160 1.394 . S
C1159 C1165 1.465 . S
C1160 C1155 1.399 . S
C1160 C1159 1.394 . S
C1160 C1161 1.516 . S
C1161 C1160 1.516 . S
C1161 C1162 1.502 1_556 S
C1161 C1163 1.561 1_556 S
C1161 C1164 1.526 . S
C1162 H1146 0.959 1_554 S
C1162 H1147 0.959 . S
C1162 H1148 0.961 . S
C1162 C1161 1.502 1_554 S
C1163 H1149 0.960 . S
C1163 H1150 0.961 . S
C1163 H1151 0.959 . S
C1163 C1161 1.561 1_554 S
C1164 C1161 1.526 . S
C1164 C1165 1.396 . S
C1164 C1169 1.390 . S
C1165 C1159 1.465 . S
C1165 C1164 1.396 . S
C1165 C1166 1.399 . S
C1166 H1152 0.929 . S
C1166 C1165 1.399 . S
C1166 C1167 1.385 . S
C1167 H1153 0.931 . S
C1167 C1166 1.385 . S
C1167 C1168 1.389 . S
C1168 C1167 1.389 . S
C1168 C1169 1.387 . S
C1169 H1154 0.930 1_556 S
C1169 C1164 1.390 . S
C1169 C1168 1.387 . S
H1170 C1182 0.930 . S
H1171 C1184 0.930 . S
H1172 C1185 0.930 . S
H1173 C1189 0.959 . S
H1174 C1189 0.959 1_554 S
H1175 C1189 0.961 . S
H1176 C1190 0.960 . S
H1177 C1190 0.961 1_554 S
H1178 C1190 0.959 . S
H1179 C1193 0.929 . S
H1180 C1194 0.931 . S
H1181 C1196 0.930 . S
C1182 H1170 0.930 . S
C1182 C1183 1.399 . S
C1182 C1187 1.399 . S
C1183 C1182 1.399 . S
C1183 C1184 1.376 . S
C1184 H1171 0.930 . S
C1184 C1183 1.376 . S
C1184 C1185 1.388 . S
C1185 H1172 0.930 . S
C1185 C1184 1.388 . S
C1185 C1186 1.390 . S
C1186 C1185 1.390 . S
C1186 C1187 1.394 . S
C1186 C1192 1.465 . S
C1187 C1182 1.399 . S
C1187 C1186 1.394 . S
C1187 C1188 1.516 . S
C1188 C1187 1.516 . S
C1188 C1189 1.502 . S
C1188 C1190 1.561 . S
C1188 C1191 1.526 . S
C1189 H1173 0.959 . S
C1189 H1174 0.959 1_556 S
C1189 H1175 0.961 . S
C1189 C1188 1.502 . S
C1190 H1176 0.960 . S
C1190 H1177 0.961 1_556 S
C1190 H1178 0.959 . S
C1190 C1188 1.561 . S
C1191 C1188 1.526 . S
C1191 C1192 1.396 . S
C1191 C1196 1.390 . S
C1192 C1186 1.465 . S
C1192 C1191 1.396 . S
C1192 C1193 1.399 . S
C1193 H1179 0.929 . S
C1193 C1192 1.399 . S
C1193 C1194 1.385 . S
C1194 H1180 0.931 . S
C1194 C1193 1.385 . S
C1194 C1195 1.389 . S
C1195 C1194 1.389 . S
C1195 C1196 1.387 . S
C1196 H1181 0.930 . S
C1196 C1191 1.390 . S
C1196 C1195 1.387 . S
H1197 C1209 0.930 . S
H1198 C1211 0.930 . S
H1199 C1212 0.930 . S
H1200 C1216 0.964 1_556 S
H1201 C1216 0.959 . S
H1202 C1216 0.961 . S
H1203 C1217 0.960 . S
H1204 C1217 0.961 . S
H1205 C1217 0.959 . S
H1206 C1220 0.929 . S
H1207 C1221 0.931 . S
H1208 C1223 0.963 . S
C1209 H1197 0.930 . S
C1209 C1210 1.399 . S
C1209 C1214 1.399 . S
C1210 C1209 1.399 . S
C1210 C1211 1.376 . S
C1211 H1198 0.930 . S
C1211 C1210 1.376 . S
C1211 C1212 1.388 . S
C1212 H1199 0.930 . S
C1212 C1211 1.388 . S
C1212 C1213 1.390 . S
C1213 C1212 1.390 . S
C1213 C1214 1.394 . S
C1213 C1219 1.465 . S
C1214 C1209 1.399 . S
C1214 C1213 1.394 . S
C1214 C1215 1.516 1_556 S
C1215 C1214 1.516 1_554 S
C1215 C1216 1.502 . S
C1215 C1217 1.561 . S
C1215 C1218 1.526 1_554 S
C1216 H1200 0.964 1_554 S
C1216 H1201 0.959 . S
C1216 H1202 0.961 . S
C1216 C1215 1.502 . S
C1217 H1203 0.960 . S
C1217 H1204 0.961 . S
C1217 H1205 0.959 . S
C1217 C1215 1.561 . S
C1218 C1215 1.526 1_556 S
C1218 C1219 1.396 . S
C1218 C1223 1.376 1_556 S
C1219 C1213 1.465 . S
C1219 C1218 1.396 . S
C1219 C1220 1.399 . S
C1220 H1206 0.929 . S
C1220 C1219 1.399 . S
C1220 C1221 1.385 . S
C1221 H1207 0.931 . S
C1221 C1220 1.385 . S
C1221 C1222 1.389 . S
C1222 C1221 1.389 . S
C1222 C1223 1.368 1_556 S
C1223 H1208 0.963 . S
C1223 C1218 1.376 1_554 S
C1223 C1222 1.368 1_554 S
H1224 C1236 0.930 . S
H1225 C1238 0.930 . S
H1226 C1239 0.930 . S
H1227 C1243 0.959 . S
H1228 C1243 0.959 . S
H1229 C1243 0.961 . S
H1230 C1244 0.960 . S
H1231 C1244 0.961 . S
H1232 C1244 0.959 . S
H1233 C1247 0.929 . S
H1234 C1248 0.931 . S
H1235 C1250 0.930 1_554 S
C1236 H1224 0.930 . S
C1236 C1237 1.399 . S
C1236 C1241 1.399 . S
C1237 C1236 1.399 . S
C1237 C1238 1.376 . S
C1238 H1225 0.930 . S
C1238 C1237 1.376 . S
C1238 C1239 1.388 . S
C1239 H1226 0.930 . S
C1239 C1238 1.388 . S
C1239 C1240 1.390 . S
C1240 C1239 1.390 . S
C1240 C1241 1.394 . S
C1240 C1246 1.465 . S
C1241 C1236 1.399 . S
C1241 C1240 1.394 . S
C1241 C1242 1.516 . S
C1242 C1241 1.516 . S
C1242 C1243 1.502 1_556 S
C1242 C1244 1.561 . S
C1242 C1245 1.526 . S
C1243 H1227 0.959 . S
C1243 H1228 0.959 . S
C1243 H1229 0.961 . S
C1243 C1242 1.502 1_554 S
C1244 H1230 0.960 . S
C1244 H1231 0.961 . S
C1244 H1232 0.959 . S
C1244 C1242 1.561 . S
C1245 C1242 1.526 . S
C1245 C1246 1.396 . S
C1245 C1250 1.390 . S
C1246 C1240 1.465 . S
C1246 C1245 1.396 . S
C1246 C1247 1.399 . S
C1247 H1233 0.929 . S
C1247 C1246 1.399 . S
C1247 C1248 1.385 . S
C1248 H1234 0.931 . S
C1248 C1247 1.385 . S
C1248 C1249 1.389 . S
C1249 C1248 1.389 . S
C1249 C1250 1.387 . S
C1250 H1235 0.930 1_556 S
C1250 C1245 1.390 . S
C1250 C1249 1.387 . S
H1251 C1263 0.930 . S
H1252 C1265 0.930 . S
H1253 C1266 0.930 . S
H1254 C1270 0.959 . S
H1255 C1270 0.959 1_554 S
H1256 C1270 0.945 1_554 S
H1257 C1271 0.960 . S
H1258 C1271 0.938 1_554 S
H1259 C1271 0.959 . S
H1260 C1274 0.929 . S
H1261 C1275 0.931 . S
H1262 C1277 0.930 . S
C1263 H1251 0.930 . S
C1263 C1264 1.399 . S
C1263 C1268 1.399 . S
C1264 C1263 1.399 . S
C1264 C1265 1.376 . S
C1265 H1252 0.930 . S
C1265 C1264 1.376 . S
C1265 C1266 1.388 . S
C1266 H1253 0.930 . S
C1266 C1265 1.388 . S
C1266 C1267 1.390 . S
C1267 C1266 1.390 . S
C1267 C1268 1.394 . S
C1267 C1273 1.465 . S
C1268 C1263 1.399 . S
C1268 C1267 1.394 . S
C1268 C1269 1.516 . S
C1269 C1268 1.516 . S
C1269 C1270 1.502 . S
C1269 C1271 1.561 . S
C1269 C1272 1.526 . S
C1270 H1254 0.959 . S
C1270 H1255 0.959 1_556 S
C1270 H1256 0.945 1_556 S
C1270 C1269 1.502 . S
C1271 H1257 0.960 . S
C1271 H1258 0.938 1_556 S
C1271 H1259 0.959 . S
C1271 C1269 1.561 . S
C1272 C1269 1.526 . S
C1272 C1273 1.396 . S
C1272 C1277 1.390 . S
C1273 C1267 1.465 . S
C1273 C1272 1.396 . S
C1273 C1274 1.399 . S
C1274 H1260 0.929 . S
C1274 C1273 1.399 . S
C1274 C1275 1.385 . S
C1275 H1261 0.931 . S
C1275 C1274 1.385 . S
C1275 C1276 1.389 . S
C1276 C1275 1.389 . S
C1276 C1277 1.387 . S
C1277 H1262 0.930 . S
C1277 C1272 1.390 . S
C1277 C1276 1.387 . S
H1278 C1290 0.930 . S
H1279 C1292 0.930 . S
H1280 C1293 0.968 . S
H1281 C1297 0.959 . S
H1282 C1297 0.959 . S
H1283 C1297 0.961 . S
H1284 C1298 0.960 . S
H1285 C1298 0.961 . S
H1286 C1298 0.959 . S
H1287 C1301 0.902 1_554 S
H1288 C1302 0.947 . S
H1289 C1304 0.930 . S
C1290 H1278 0.930 . S
C1290 C1291 1.399 . S
C1290 C1295 1.399 . S
C1291 C1290 1.399 . S
C1291 C1292 1.376 . S
C1292 H1279 0.930 . S
C1292 C1291 1.376 . S
C1292 C1293 1.388 . S
C1293 H1280 0.968 . S
C1293 C1292 1.388 . S
C1293 C1294 1.390 . S
C1294 C1293 1.390 . S
C1294 C1295 1.394 . S
C1294 C1300 1.465 . S
C1295 C1290 1.399 . S
C1295 C1294 1.394 . S
C1295 C1296 1.516 . S
C1296 C1295 1.516 . S
C1296 C1297 1.502 . S
C1296 C1298 1.561 . S
C1296 C1299 1.526 . S
C1297 H1281 0.959 . S
C1297 H1282 0.959 . S
C1297 H1283 0.961 . S
C1297 C1296 1.502 . S
C1298 H1284 0.960 . S
C1298 H1285 0.961 . S
C1298 H1286 0.959 . S
C1298 C1296 1.561 . S
C1299 C1296 1.526 . S
C1299 C1300 1.396 . S
C1299 C1304 1.390 . S
C1300 C1294 1.465 . S
C1300 C1299 1.396 . S
C1300 C1301 1.425 . S
C1301 H1287 0.902 1_556 S
C1301 C1300 1.425 . S
C1301 C1302 1.391 1_556 S
C1302 H1288 0.947 . S
C1302 C1301 1.391 1_554 S
C1302 C1303 1.372 1_554 S
C1303 C1302 1.372 1_556 S
C1303 C1304 1.387 . S
C1304 H1289 0.930 . S
C1304 C1299 1.390 . S
C1304 C1303 1.387 . S
H1305 C1317 0.930 . S
H1306 C1319 0.930 . S
H1307 C1320 0.930 . S
H1308 C1324 0.959 . S
H1309 C1324 0.959 . S
H1310 C1324 0.961 . S
H1311 C1325 0.960 . S
H1312 C1325 0.961 . S
H1313 C1325 0.959 . S
H1314 C1328 0.929 . S
H1315 C1329 0.903 1_556 S
H1316 C1331 0.930 . S
C1317 H1305 0.930 . S
C1317 C1318 1.399 . S
C1317 C1322 1.399 . S
C1318 C1317 1.399 . S
C1318 C1319 1.376 . S
C1319 H1306 0.930 . S
C1319 C1318 1.376 . S
C1319 C1320 1.388 . S
C1320 H1307 0.930 . S
C1320 C1319 1.388 . S
C1320 C1321 1.390 . S
C1321 C1320 1.390 . S
C1321 C1322 1.394 . S
C1321 C1327 1.465 . S
C1322 C1317 1.399 . S
C1322 C1321 1.394 . S
C1322 C1323 1.516 . S
C1323 C1322 1.516 . S
C1323 C1324 1.502 . S
C1323 C1325 1.561 . S
C1323 C1326 1.526 . S
C1324 H1308 0.959 . S
C1324 H1309 0.959 . S
C1324 H1310 0.961 . S
C1324 C1323 1.502 . S
C1325 H1311 0.960 . S
C1325 H1312 0.961 . S
C1325 H1313 0.959 . S
C1325 C1323 1.561 . S
C1326 C1323 1.526 . S
C1326 C1327 1.396 . S
C1326 C1331 1.390 . S
C1327 C1321 1.465 . S
C1327 C1326 1.396 . S
C1327 C1328 1.399 . S
C1328 H1314 0.929 . S
C1328 C1327 1.399 . S
C1328 C1329 1.385 . S
C1329 H1315 0.903 1_554 S
C1329 C1328 1.385 . S
C1329 C1330 1.389 . S
C1330 C1329 1.389 . S
C1330 C1331 1.387 . S
C1331 H1316 0.930 . S
C1331 C1326 1.390 . S
C1331 C1330 1.387 . S
H1332 C1344 0.930 . S
H1333 C1346 0.930 . S
H1334 C1347 0.930 . S
H1335 C1351 0.959 . S
H1336 C1351 0.959 . S
H1337 C1351 0.961 . S
H1338 C1352 0.960 . S
H1339 C1352 0.961 . S
H1340 C1352 0.959 . S
H1341 C1355 0.929 . S
H1342 C1356 0.931 . S
H1343 C1358 0.930 . S
C1344 H1332 0.930 . S
C1344 C1345 1.399 . S
C1344 C1349 1.399 . S
C1345 C1344 1.399 . S
C1345 C1346 1.376 . S
C1346 H1333 0.930 . S
C1346 C1345 1.376 . S
C1346 C1347 1.388 . S
C1347 H1334 0.930 . S
C1347 C1346 1.388 . S
C1347 C1348 1.390 . S
C1348 C1347 1.390 . S
C1348 C1349 1.394 . S
C1348 C1354 1.465 . S
C1349 C1344 1.399 . S
C1349 C1348 1.394 . S
C1349 C1350 1.516 . S
C1350 C1349 1.516 . S
C1350 C1351 1.502 . S
C1350 C1352 1.561 . S
C1350 C1353 1.526 . S
C1351 H1335 0.959 . S
C1351 H1336 0.959 . S
C1351 H1337 0.961 . S
C1351 C1350 1.502 . S
C1352 H1338 0.960 . S
C1352 H1339 0.961 . S
C1352 H1340 0.959 . S
C1352 C1350 1.561 . S
C1353 C1350 1.526 . S
C1353 C1354 1.396 . S
C1353 C1358 1.390 . S
C1354 C1348 1.465 . S
C1354 C1353 1.396 . S
C1354 C1355 1.399 . S
C1355 H1341 0.929 . S
C1355 C1354 1.399 . S
C1355 C1356 1.385 . S
C1356 H1342 0.931 . S
C1356 C1355 1.385 . S
C1356 C1357 1.389 . S
C1357 C1356 1.389 . S
C1357 C1358 1.387 . S
C1358 H1343 0.930 . S
C1358 C1353 1.390 . S
C1358 C1357 1.387 . S
H1359 C1371 0.930 . S
H1360 C1373 0.930 . S
H1361 C1374 0.930 . S
H1362 C1378 0.959 . S
H1363 C1378 0.959 . S
H1364 C1378 0.961 . S
H1365 C1379 0.960 . S
H1366 C1379 0.961 . S
H1367 C1379 0.959 . S
H1368 C1382 0.929 . S
H1369 C1383 0.931 . S
H1370 C1385 0.930 . S
C1371 H1359 0.930 . S
C1371 C1372 1.399 . S
C1371 C1376 1.399 . S
C1372 C1371 1.399 . S
C1372 C1373 1.376 . S
C1373 H1360 0.930 . S
C1373 C1372 1.376 . S
C1373 C1374 1.388 . S
C1374 H1361 0.930 . S
C1374 C1373 1.388 . S
C1374 C1375 1.390 . S
C1375 C1374 1.390 . S
C1375 C1376 1.394 . S
C1375 C1381 1.465 . S
C1376 C1371 1.399 . S
C1376 C1375 1.394 . S
C1376 C1377 1.516 . S
C1377 C1376 1.516 . S
C1377 C1378 1.502 . S
C1377 C1379 1.561 1_554 S
C1377 C1380 1.526 . S
C1378 H1362 0.959 . S
C1378 H1363 0.959 . S
C1378 H1364 0.961 . S
C1378 C1377 1.502 . S
C1379 H1365 0.960 . S
C1379 H1366 0.961 . S
C1379 H1367 0.959 . S
C1379 C1377 1.561 1_556 S
C1380 C1377 1.526 . S
C1380 C1381 1.396 . S
C1380 C1385 1.390 . S
C1381 C1375 1.465 . S
C1381 C1380 1.396 . S
C1381 C1382 1.399 . S
C1382 H1368 0.929 . S
C1382 C1381 1.399 . S
C1382 C1383 1.385 . S
C1383 H1369 0.931 . S
C1383 C1382 1.385 . S
C1383 C1384 1.389 . S
C1384 C1383 1.389 . S
C1384 C1385 1.387 . S
C1385 H1370 0.930 . S
C1385 C1380 1.390 . S
C1385 C1384 1.387 . S
H1386 C1398 0.928 . S
H1387 C1400 0.930 . S
H1388 C1401 0.930 . S
H1389 C1405 0.959 . S
H1390 C1405 0.959 . S
H1391 C1405 0.961 . S
H1392 C1406 0.960 . S
H1393 C1406 0.961 . S
H1394 C1406 0.959 . S
H1395 C1409 0.929 . S
H1396 C1410 0.931 . S
H1397 C1412 0.930 . S
C1398 H1386 0.928 . S
C1398 C1399 1.396 1_455 S
C1398 C1403 1.404 . S
C1399 C1398 1.396 1_655 S
C1399 C1400 1.376 . S
C1400 H1387 0.930 . S
C1400 C1399 1.376 . S
C1400 C1401 1.388 . S
C1401 H1388 0.930 . S
C1401 C1400 1.388 . S
C1401 C1402 1.390 1_655 S
C1402 C1401 1.390 1_455 S
C1402 C1403 1.394 . S
C1402 C1408 1.465 . S
C1403 C1398 1.404 . S
C1403 C1402 1.394 . S
C1403 C1404 1.516 . S
C1404 C1403 1.516 . S
C1404 C1405 1.502 . S
C1404 C1406 1.561 . S
C1404 C1407 1.526 . S
C1405 H1389 0.959 . S
C1405 H1390 0.959 . S
C1405 H1391 0.961 . S
C1405 C1404 1.502 . S
C1406 H1392 0.960 . S
C1406 H1393 0.961 . S
C1406 H1394 0.959 . S
C1406 C1404 1.561 . S
C1407 C1404 1.526 . S
C1407 C1408 1.396 . S
C1407 C1412 1.390 . S
C1408 C1402 1.465 . S
C1408 C1407 1.396 . S
C1408 C1409 1.399 . S
C1409 H1395 0.929 . S
C1409 C1408 1.399 . S
C1409 C1410 1.385 . S
C1410 H1396 0.931 . S
C1410 C1409 1.385 . S
C1410 C1411 1.389 . S
C1411 C1410 1.389 . S
C1411 C1412 1.387 . S
C1412 H1397 0.930 . S
C1412 C1407 1.390 . S
C1412 C1411 1.387 . S
H1413 C1425 0.930 . S
H1414 C1427 0.930 . S
H1415 C1428 0.930 . S
H1416 C1432 0.959 . S
H1417 C1432 0.959 . S
H1418 C1432 0.961 . S
H1419 C1433 0.960 . S
H1420 C1433 0.961 . S
H1421 C1433 0.959 . S
H1422 C1436 0.929 . S
H1423 C1437 0.931 . S
H1424 C1439 0.930 . S
C1425 H1413 0.930 . S
C1425 C1426 1.399 . S
C1425 C1430 1.399 . S
C1426 C1425 1.399 . S
C1426 C1427 1.376 . S
C1427 H1414 0.930 . S
C1427 C1426 1.376 . S
C1427 C1428 1.388 . S
C1428 H1415 0.930 . S
C1428 C1427 1.388 . S
C1428 C1429 1.390 . S
C1429 C1428 1.390 . S
C1429 C1430 1.394 . S
C1429 C1435 1.465 . S
C1430 C1425 1.399 . S
C1430 C1429 1.394 . S
C1430 C1431 1.516 . S
C1431 C1430 1.516 . S
C1431 C1432 1.502 . S
C1431 C1433 1.561 . S
C1431 C1434 1.526 . S
C1432 H1416 0.959 . S
C1432 H1417 0.959 . S
C1432 H1418 0.961 . S
C1432 C1431 1.502 . S
C1433 H1419 0.960 . S
C1433 H1420 0.961 . S
C1433 H1421 0.959 . S
C1433 C1431 1.561 . S
C1434 C1431 1.526 . S
C1434 C1435 1.396 . S
C1434 C1439 1.390 . S
C1435 C1429 1.465 . S
C1435 C1434 1.396 . S
C1435 C1436 1.399 . S
C1436 H1422 0.929 . S
C1436 C1435 1.399 . S
C1436 C1437 1.385 . S
C1437 H1423 0.931 . S
C1437 C1436 1.385 . S
C1437 C1438 1.389 . S
C1438 C1437 1.389 . S
C1438 C1439 1.387 . S
C1439 H1424 0.930 . S
C1439 C1434 1.390 . S
C1439 C1438 1.387 . S
H1440 C1452 0.930 . S
H1441 C1454 0.930 . S
H1442 C1455 0.930 . S
H1443 C1459 0.959 . S
H1444 C1459 0.959 . S
H1445 C1459 0.961 . S
H1446 C1460 0.960 . S
H1447 C1460 0.961 . S
H1448 C1460 0.959 . S
H1449 C1463 0.929 . S
H1450 C1464 0.931 . S
H1451 C1466 0.930 . S
C1452 H1440 0.930 . S
C1452 C1453 1.399 . S
C1452 C1457 1.399 1_545 S
C1453 C1452 1.399 . S
C1453 C1454 1.376 . S
C1454 H1441 0.930 . S
C1454 C1453 1.376 . S
C1454 C1455 1.388 . S
C1455 H1442 0.930 . S
C1455 C1454 1.388 . S
C1455 C1456 1.390 1_545 S
C1456 C1455 1.390 1_565 S
C1456 C1457 1.394 . S
C1456 C1462 1.465 . S
C1457 C1452 1.399 1_565 S
C1457 C1456 1.394 . S
C1457 C1458 1.516 . S
C1458 C1457 1.516 . S
C1458 C1459 1.502 . S
C1458 C1460 1.561 . S
C1458 C1461 1.526 . S
C1459 H1443 0.959 . S
C1459 H1444 0.959 . S
C1459 H1445 0.961 . S
C1459 C1458 1.502 . S
C1460 H1446 0.960 . S
C1460 H1447 0.961 . S
C1460 H1448 0.959 . S
C1460 C1458 1.561 . S
C1461 C1458 1.526 . S
C1461 C1462 1.396 . S
C1461 C1466 1.390 . S
C1462 C1456 1.465 . S
C1462 C1461 1.396 . S
C1462 C1463 1.399 . S
C1463 H1449 0.929 . S
C1463 C1462 1.399 . S
C1463 C1464 1.385 . S
C1464 H1450 0.931 . S
C1464 C1463 1.385 . S
C1464 C1465 1.389 . S
C1465 C1464 1.389 . S
C1465 C1466 1.387 . S
C1466 H1451 0.930 . S
C1466 C1461 1.390 . S
C1466 C1465 1.387 . S
H1467 C1479 0.930 . S
H1468 C1481 0.930 . S
H1469 C1482 0.930 . S
H1470 C1486 0.959 . S
H1471 C1486 0.959 . S
H1472 C1486 0.961 . S
H1473 C1487 0.960 . S
H1474 C1487 0.961 . S
H1475 C1487 0.959 . S
H1476 C1490 0.929 . S
H1477 C1491 0.931 . S
H1478 C1493 0.930 . S
C1479 H1467 0.930 . S
C1479 C1480 1.399 . S
C1479 C1484 1.399 . S
C1480 C1479 1.399 . S
C1480 C1481 1.376 . S
C1481 H1468 0.930 . S
C1481 C1480 1.376 . S
C1481 C1482 1.388 . S
C1482 H1469 0.930 . S
C1482 C1481 1.388 . S
C1482 C1483 1.390 . S
C1483 C1482 1.390 . S
C1483 C1484 1.394 . S
C1483 C1489 1.465 . S
C1484 C1479 1.399 . S
C1484 C1483 1.394 . S
C1484 C1485 1.516 . S
C1485 C1484 1.516 . S
C1485 C1486 1.502 . S
C1485 C1487 1.561 . S
C1485 C1488 1.526 . S
C1486 H1470 0.959 . S
C1486 H1471 0.959 . S
C1486 H1472 0.961 . S
C1486 C1485 1.502 . S
C1487 H1473 0.960 . S
C1487 H1474 0.961 . S
C1487 H1475 0.959 . S
C1487 C1485 1.561 . S
C1488 C1485 1.526 . S
C1488 C1489 1.396 . S
C1488 C1493 1.390 . S
C1489 C1483 1.465 . S
C1489 C1488 1.396 . S
C1489 C1490 1.399 . S
C1490 H1476 0.929 . S
C1490 C1489 1.399 . S
C1490 C1491 1.385 . S
C1491 H1477 0.931 . S
C1491 C1490 1.385 . S
C1491 C1492 1.389 . S
C1492 C1491 1.389 . S
C1492 C1493 1.387 . S
C1493 H1478 0.930 . S
C1493 C1488 1.390 . S
C1493 C1492 1.387 . S
H1494 C1506 0.930 . S
H1495 C1508 0.930 . S
H1496 C1509 0.930 . S
H1497 C1513 0.959 . S
H1498 C1513 0.959 . S
H1499 C1513 0.961 . S
H1500 C1514 0.960 . S
H1501 C1514 0.961 . S
H1502 C1514 0.959 . S
H1503 C1517 0.929 . S
H1504 C1518 0.931 . S
H1505 C1520 0.930 . S
C1506 H1494 0.930 . S
C1506 C1507 1.399 . S
C1506 C1511 1.399 . S
C1507 C1506 1.399 . S
C1507 C1508 1.376 . S
C1508 H1495 0.930 . S
C1508 C1507 1.376 . S
C1508 C1509 1.388 . S
C1509 H1496 0.930 . S
C1509 C1508 1.388 . S
C1509 C1510 1.390 . S
C1510 C1509 1.390 . S
C1510 C1511 1.394 . S
C1510 C1516 1.465 . S
C1511 C1506 1.399 . S
C1511 C1510 1.394 . S
C1511 C1512 1.516 . S
C1512 C1511 1.516 . S
C1512 C1513 1.502 . S
C1512 C1514 1.561 . S
C1512 C1515 1.526 . S
C1513 H1497 0.959 . S
C1513 H1498 0.959 . S
C1513 H1499 0.961 . S
C1513 C1512 1.502 . S
C1514 H1500 0.960 . S
C1514 H1501 0.961 . S
C1514 H1502 0.959 . S
C1514 C1512 1.561 . S
C1515 C1512 1.526 . S
C1515 C1516 1.396 . S
C1515 C1520 1.390 . S
C1516 C1510 1.465 . S
C1516 C1515 1.396 . S
C1516 C1517 1.399 . S
C1517 H1503 0.929 . S
C1517 C1516 1.399 . S
C1517 C1518 1.385 . S
C1518 H1504 0.931 . S
C1518 C1517 1.385 . S
C1518 C1519 1.389 . S
C1519 C1518 1.389 . S
C1519 C1520 1.387 . S
C1520 H1505 0.930 . S
C1520 C1515 1.390 . S
C1520 C1519 1.387 . S
H1521 C1533 0.930 . S
H1522 C1535 0.930 . S
H1523 C1536 0.930 . S
H1524 C1540 0.959 . S
H1525 C1540 0.959 . S
H1526 C1540 0.961 . S
H1527 C1541 0.960 . S
H1528 C1541 0.961 . S
H1529 C1541 0.959 . S
H1530 C1544 0.929 . S
H1531 C1545 0.931 . S
H1532 C1547 0.930 . S
C1533 H1521 0.930 . S
C1533 C1534 1.399 . S
C1533 C1538 1.399 . S
C1534 C1533 1.399 . S
C1534 C1535 1.376 . S
C1535 H1522 0.930 . S
C1535 C1534 1.376 . S
C1535 C1536 1.388 . S
C1536 H1523 0.930 . S
C1536 C1535 1.388 . S
C1536 C1537 1.390 . S
C1537 C1536 1.390 . S
C1537 C1538 1.394 . S
C1537 C1543 1.465 . S
C1538 C1533 1.399 . S
C1538 C1537 1.394 . S
C1538 C1539 1.516 . S
C1539 C1538 1.516 . S
C1539 C1540 1.502 . S
C1539 C1541 1.561 . S
C1539 C1542 1.526 . S
C1540 H1524 0.959 . S
C1540 H1525 0.959 . S
C1540 H1526 0.961 . S
C1540 C1539 1.502 . S
C1541 H1527 0.960 . S
C1541 H1528 0.961 . S
C1541 H1529 0.959 . S
C1541 C1539 1.561 . S
C1542 C1539 1.526 . S
C1542 C1543 1.396 . S
C1542 C1547 1.390 . S
C1543 C1537 1.465 . S
C1543 C1542 1.396 . S
C1543 C1544 1.399 . S
C1544 H1530 0.929 . S
C1544 C1543 1.399 . S
C1544 C1545 1.385 . S
C1545 H1531 0.931 . S
C1545 C1544 1.385 . S
C1545 C1546 1.389 . S
C1546 C1545 1.389 . S
C1546 C1547 1.387 . S
C1547 H1532 0.930 . S
C1547 C1542 1.390 . S
C1547 C1546 1.387 . S
H1548 C1560 0.930 . S
H1549 C1562 0.930 . S
H1550 C1563 0.930 . S
H1551 C1567 0.959 . S
H1552 C1567 0.959 . S
H1553 C1567 0.961 . S
H1554 C1568 0.960 . S
H1555 C1568 0.961 . S
H1556 C1568 0.959 . S
H1557 C1571 0.929 . S
H1558 C1572 0.931 . S
H1559 C1574 0.930 . S
C1560 H1548 0.930 . S
C1560 C1561 1.399 . S
C1560 C1565 1.399 . S
C1561 C1560 1.399 . S
C1561 C1562 1.376 . S
C1562 H1549 0.930 . S
C1562 C1561 1.376 . S
C1562 C1563 1.388 . S
C1563 H1550 0.930 . S
C1563 C1562 1.388 . S
C1563 C1564 1.390 . S
C1564 C1563 1.390 . S
C1564 C1565 1.394 . S
C1564 C1570 1.465 . S
C1565 C1560 1.399 . S
C1565 C1564 1.394 . S
C1565 C1566 1.516 . S
C1566 C1565 1.516 . S
C1566 C1567 1.502 . S
C1566 C1568 1.561 . S
C1566 C1569 1.526 . S
C1567 H1551 0.959 . S
C1567 H1552 0.959 . S
C1567 H1553 0.961 . S
C1567 C1566 1.502 . S
C1568 H1554 0.960 . S
C1568 H1555 0.961 . S
C1568 H1556 0.959 . S
C1568 C1566 1.561 . S
C1569 C1566 1.526 . S
C1569 C1570 1.396 . S
C1569 C1574 1.390 . S
C1570 C1564 1.465 . S
C1570 C1569 1.396 . S
C1570 C1571 1.399 . S
C1571 H1557 0.929 . S
C1571 C1570 1.399 . S
C1571 C1572 1.385 . S
C1572 H1558 0.931 . S
C1572 C1571 1.385 . S
C1572 C1573 1.389 . S
C1573 C1572 1.389 . S
C1573 C1574 1.387 . S
C1574 H1559 0.930 . S
C1574 C1569 1.390 . S
C1574 C1573 1.387 . S
H1575 C1587 0.930 . S
H1576 C1589 0.930 . S
H1577 C1590 0.930 . S
H1578 C1594 0.959 . S
H1579 C1594 0.959 . S
H1580 C1594 0.961 . S
H1581 C1595 0.960 . S
H1582 C1595 0.961 . S
H1583 C1595 0.959 . S
H1584 C1598 0.929 . S
H1585 C1599 0.931 . S
H1586 C1601 0.930 . S
C1587 H1575 0.930 . S
C1587 C1588 1.399 . S
C1587 C1592 1.399 . S
C1588 C1587 1.399 . S
C1588 C1589 1.376 . S
C1589 H1576 0.930 . S
C1589 C1588 1.376 . S
C1589 C1590 1.388 . S
C1590 H1577 0.930 . S
C1590 C1589 1.388 . S
C1590 C1591 1.390 . S
C1591 C1590 1.390 . S
C1591 C1592 1.394 . S
C1591 C1597 1.465 . S
C1592 C1587 1.399 . S
C1592 C1591 1.394 . S
C1592 C1593 1.516 . S
C1593 C1592 1.516 . S
C1593 C1594 1.502 . S
C1593 C1595 1.561 . S
C1593 C1596 1.526 . S
C1594 H1578 0.959 . S
C1594 H1579 0.959 . S
C1594 H1580 0.961 . S
C1594 C1593 1.502 . S
C1595 H1581 0.960 . S
C1595 H1582 0.961 . S
C1595 H1583 0.959 . S
C1595 C1593 1.561 . S
C1596 C1593 1.526 . S
C1596 C1597 1.396 . S
C1596 C1601 1.390 . S
C1597 C1591 1.465 . S
C1597 C1596 1.396 . S
C1597 C1598 1.399 . S
C1598 H1584 0.929 . S
C1598 C1597 1.399 . S
C1598 C1599 1.385 . S
C1599 H1585 0.931 . S
C1599 C1598 1.385 . S
C1599 C1600 1.389 . S
C1600 C1599 1.389 . S
C1600 C1601 1.387 . S
C1601 H1586 0.930 . S
C1601 C1596 1.390 . S
C1601 C1600 1.387 . S
H1602 C1614 0.930 . S
H1603 C1616 0.930 . S
H1604 C1617 0.930 . S
H1605 C1621 0.959 . S
H1606 C1621 0.959 . S
H1607 C1621 0.961 . S
H1608 C1622 0.960 . S
H1609 C1622 0.961 . S
H1610 C1622 0.959 . S
H1611 C1625 0.929 . S
H1612 C1626 0.931 . S
H1613 C1628 0.930 . S
C1614 H1602 0.930 . S
C1614 C1615 1.399 . S
C1614 C1619 1.399 . S
C1615 C1614 1.399 . S
C1615 C1616 1.376 . S
C1616 H1603 0.930 . S
C1616 C1615 1.376 . S
C1616 C1617 1.388 . S
C1617 H1604 0.930 . S
C1617 C1616 1.388 . S
C1617 C1618 1.390 . S
C1618 C1617 1.390 . S
C1618 C1619 1.394 . S
C1618 C1624 1.465 . S
C1619 C1614 1.399 . S
C1619 C1618 1.394 . S
C1619 C1620 1.516 . S
C1620 C1619 1.516 . S
C1620 C1621 1.502 . S
C1620 C1622 1.561 . S
C1620 C1623 1.526 . S
C1621 H1605 0.959 . S
C1621 H1606 0.959 . S
C1621 H1607 0.961 . S
C1621 C1620 1.502 . S
C1622 H1608 0.960 . S
C1622 H1609 0.961 . S
C1622 H1610 0.959 . S
C1622 C1620 1.561 . S
C1623 C1620 1.526 . S
C1623 C1624 1.396 . S
C1623 C1628 1.390 . S
C1624 C1618 1.465 . S
C1624 C1623 1.396 . S
C1624 C1625 1.399 . S
C1625 H1611 0.929 . S
C1625 C1624 1.399 . S
C1625 C1626 1.385 . S
C1626 H1612 0.931 . S
C1626 C1625 1.385 . S
C1626 C1627 1.389 . S
C1627 C1626 1.389 . S
C1627 C1628 1.387 . S
C1628 H1613 0.930 . S
C1628 C1623 1.390 . S
C1628 C1627 1.387 . S
H1629 C1641 0.930 . S
H1630 C1643 0.930 . S
H1631 C1644 0.930 . S
H1632 C1648 0.959 . S
H1633 C1648 0.959 . S
H1634 C1648 0.961 . S
H1635 C1649 0.960 . S
H1636 C1649 0.961 . S
H1637 C1649 0.959 . S
H1638 C1652 0.929 . S
H1639 C1653 0.931 . S
H1640 C1655 0.930 . S
C1641 H1629 0.930 . S
C1641 C1642 1.399 . S
C1641 C1646 1.399 1_545 S
C1642 C1641 1.399 . S
C1642 C1643 1.376 . S
C1643 H1630 0.930 . S
C1643 C1642 1.376 . S
C1643 C1644 1.388 . S
C1644 H1631 0.930 . S
C1644 C1643 1.388 . S
C1644 C1645 1.390 1_545 S
C1645 C1644 1.390 1_565 S
C1645 C1646 1.394 . S
C1645 C1651 1.465 . S
C1646 C1641 1.399 1_565 S
C1646 C1645 1.394 . S
C1646 C1647 1.516 . S
C1647 C1646 1.516 . S
C1647 C1648 1.502 . S
C1647 C1649 1.561 . S
C1647 C1650 1.526 . S
C1648 H1632 0.959 . S
C1648 H1633 0.959 . S
C1648 H1634 0.961 . S
C1648 C1647 1.502 . S
C1649 H1635 0.960 . S
C1649 H1636 0.961 . S
C1649 H1637 0.959 . S
C1649 C1647 1.561 . S
C1650 C1647 1.526 . S
C1650 C1651 1.396 . S
C1650 C1655 1.390 . S
C1651 C1645 1.465 . S
C1651 C1650 1.396 . S
C1651 C1652 1.399 . S
C1652 H1638 0.929 . S
C1652 C1651 1.399 . S
C1652 C1653 1.385 . S
C1653 H1639 0.931 . S
C1653 C1652 1.385 . S
C1653 C1654 1.389 . S
C1654 C1653 1.389 . S
C1654 C1655 1.387 . S
C1655 H1640 0.930 . S
C1655 C1650 1.390 . S
C1655 C1654 1.387 . S
H1656 C1668 0.930 . S
H1657 C1670 0.930 . S
H1658 C1671 0.930 . S
H1659 C1675 0.959 . S
H1660 C1675 0.959 . S
H1661 C1675 0.961 . S
H1662 C1676 0.960 . S
H1663 C1676 0.961 . S
H1664 C1676 0.959 . S
H1665 C1679 0.929 . S
H1666 C1680 0.931 . S
H1667 C1682 0.930 . S
C1668 H1656 0.930 . S
C1668 C1669 1.399 1_455 S
C1668 C1673 1.399 . S
C1669 C1668 1.399 1_655 S
C1669 C1670 1.376 . S
C1670 H1657 0.930 . S
C1670 C1669 1.376 . S
C1670 C1671 1.388 1_655 S
C1671 H1658 0.930 . S
C1671 C1670 1.388 1_455 S
C1671 C1672 1.390 . S
C1672 C1671 1.390 . S
C1672 C1673 1.394 . S
C1672 C1678 1.465 . S
C1673 C1668 1.399 . S
C1673 C1672 1.394 . S
C1673 C1674 1.516 . S
C1674 C1673 1.516 . S
C1674 C1675 1.502 . S
C1674 C1676 1.561 . S
C1674 C1677 1.526 . S
C1675 H1659 0.959 . S
C1675 H1660 0.959 . S
C1675 H1661 0.961 . S
C1675 C1674 1.502 . S
C1676 H1662 0.960 . S
C1676 H1663 0.961 . S
C1676 H1664 0.959 . S
C1676 C1674 1.561 . S
C1677 C1674 1.526 . S
C1677 C1678 1.396 . S
C1677 C1682 1.390 . S
C1678 C1672 1.465 . S
C1678 C1677 1.396 . S
C1678 C1679 1.399 . S
C1679 H1665 0.929 . S
C1679 C1678 1.399 . S
C1679 C1680 1.385 . S
C1680 H1666 0.931 . S
C1680 C1679 1.385 . S
C1680 C1681 1.389 . S
C1681 C1680 1.389 . S
C1681 C1682 1.387 . S
C1682 H1667 0.930 . S
C1682 C1677 1.390 . S
C1682 C1681 1.387 . S
H1683 C1695 0.930 . S
H1684 C1697 0.930 . S
H1685 C1698 0.930 . S
H1686 C1702 0.959 . S
H1687 C1702 0.959 . S
H1688 C1702 0.961 . S
H1689 C1703 0.960 . S
H1690 C1703 0.961 . S
H1691 C1703 0.959 . S
H1692 C1706 0.929 . S
H1693 C1707 0.931 . S
H1694 C1709 0.930 . S
C1695 H1683 0.930 . S
C1695 C1696 1.399 . S
C1695 C1700 1.399 . S
C1696 C1695 1.399 . S
C1696 C1697 1.376 . S
C1697 H1684 0.930 . S
C1697 C1696 1.376 . S
C1697 C1698 1.388 . S
C1698 H1685 0.930 . S
C1698 C1697 1.388 . S
C1698 C1699 1.390 . S
C1699 C1698 1.390 . S
C1699 C1700 1.394 . S
C1699 C1705 1.465 . S
C1700 C1695 1.399 . S
C1700 C1699 1.394 . S
C1700 C1701 1.516 . S
C1701 C1700 1.516 . S
C1701 C1702 1.502 . S
C1701 C1703 1.561 . S
C1701 C1704 1.526 . S
C1702 H1686 0.959 . S
C1702 H1687 0.959 . S
C1702 H1688 0.961 . S
C1702 C1701 1.502 . S
C1703 H1689 0.960 . S
C1703 H1690 0.961 . S
C1703 H1691 0.959 . S
C1703 C1701 1.561 . S
C1704 C1701 1.526 . S
C1704 C1705 1.396 . S
C1704 C1709 1.390 . S
C1705 C1699 1.465 . S
C1705 C1704 1.396 . S
C1705 C1706 1.399 . S
C1706 H1692 0.929 . S
C1706 C1705 1.399 . S
C1706 C1707 1.385 . S
C1707 H1693 0.931 . S
C1707 C1706 1.385 . S
C1707 C1708 1.389 . S
C1708 C1707 1.389 . S
C1708 C1709 1.387 . S
C1709 H1694 0.930 . S
C1709 C1704 1.390 . S
C1709 C1708 1.387 . S
H1710 C1722 0.930 . S
H1711 C1724 0.930 . S
H1712 C1725 0.930 . S
H1713 C1729 0.959 . S
H1714 C1729 0.959 . S
H1715 C1729 0.961 . S
H1716 C1730 0.960 . S
H1717 C1730 0.961 . S
H1718 C1730 0.959 . S
H1719 C1733 0.929 . S
H1720 C1734 0.931 . S
H1721 C1736 0.930 . S
C1722 H1710 0.930 . S
C1722 C1723 1.399 . S
C1722 C1727 1.399 . S
C1723 C1722 1.399 . S
C1723 C1724 1.376 . S
C1724 H1711 0.930 . S
C1724 C1723 1.376 . S
C1724 C1725 1.388 . S
C1725 H1712 0.930 . S
C1725 C1724 1.388 . S
C1725 C1726 1.390 . S
C1726 C1725 1.390 . S
C1726 C1727 1.394 . S
C1726 C1732 1.465 . S
C1727 C1722 1.399 . S
C1727 C1726 1.394 . S
C1727 C1728 1.516 . S
C1728 C1727 1.516 . S
C1728 C1729 1.502 . S
C1728 C1730 1.561 . S
C1728 C1731 1.526 . S
C1729 H1713 0.959 . S
C1729 H1714 0.959 . S
C1729 H1715 0.961 . S
C1729 C1728 1.502 . S
C1730 H1716 0.960 . S
C1730 H1717 0.961 . S
C1730 H1718 0.959 . S
C1730 C1728 1.561 . S
C1731 C1728 1.526 . S
C1731 C1732 1.396 . S
C1731 C1736 1.390 . S
C1732 C1726 1.465 . S
C1732 C1731 1.396 . S
C1732 C1733 1.399 . S
C1733 H1719 0.929 . S
C1733 C1732 1.399 . S
C1733 C1734 1.385 . S
C1734 H1720 0.931 . S
C1734 C1733 1.385 . S
C1734 C1735 1.389 . S
C1735 C1734 1.389 . S
C1735 C1736 1.387 . S
C1736 H1721 0.930 . S
C1736 C1731 1.390 . S
C1736 C1735 1.387 . S
H1737 C1749 0.930 . S
H1738 C1751 0.930 . S
H1739 C1752 0.930 . S
H1740 C1756 0.959 . S
H1741 C1756 0.959 . S
H1742 C1756 0.961 . S
H1743 C1757 0.960 . S
H1744 C1757 0.961 . S
H1745 C1757 0.959 . S
H1746 C1760 0.929 . S
H1747 C1761 0.931 . S
H1748 C1763 0.930 . S
C1749 H1737 0.930 . S
C1749 C1750 1.399 . S
C1749 C1754 1.399 . S
C1750 C1749 1.399 . S
C1750 C1751 1.376 . S
C1751 H1738 0.930 . S
C1751 C1750 1.376 . S
C1751 C1752 1.388 . S
C1752 H1739 0.930 . S
C1752 C1751 1.388 . S
C1752 C1753 1.390 . S
C1753 C1752 1.390 . S
C1753 C1754 1.394 . S
C1753 C1759 1.465 . S
C1754 C1749 1.399 . S
C1754 C1753 1.394 . S
C1754 C1755 1.516 . S
C1755 C1754 1.516 . S
C1755 C1756 1.502 . S
C1755 C1757 1.561 . S
C1755 C1758 1.526 . S
C1756 H1740 0.959 . S
C1756 H1741 0.959 . S
C1756 H1742 0.961 . S
C1756 C1755 1.502 . S
C1757 H1743 0.960 . S
C1757 H1744 0.961 . S
C1757 H1745 0.959 . S
C1757 C1755 1.561 . S
C1758 C1755 1.526 . S
C1758 C1759 1.396 . S
C1758 C1763 1.390 . S
C1759 C1753 1.465 . S
C1759 C1758 1.396 . S
C1759 C1760 1.399 . S
C1760 H1746 0.929 . S
C1760 C1759 1.399 . S
C1760 C1761 1.385 . S
C1761 H1747 0.931 . S
C1761 C1760 1.385 . S
C1761 C1762 1.389 . S
C1762 C1761 1.389 . S
C1762 C1763 1.387 . S
C1763 H1748 0.930 . S
C1763 C1758 1.390 . S
C1763 C1762 1.387 . S
H1764 C1776 0.930 . S
H1765 C1778 0.930 . S
H1766 C1779 0.930 . S
H1767 C1783 0.959 . S
H1768 C1783 0.959 . S
H1769 C1783 0.961 . S
H1770 C1784 0.960 . S
H1771 C1784 0.961 . S
H1772 C1784 0.959 . S
H1773 C1787 0.929 . S
H1774 C1788 0.931 . S
H1775 C1790 0.930 . S
C1776 H1764 0.930 . S
C1776 C1777 1.399 . S
C1776 C1781 1.399 . S
C1777 C1776 1.399 . S
C1777 C1778 1.376 . S
C1778 H1765 0.930 . S
C1778 C1777 1.376 . S
C1778 C1779 1.388 . S
C1779 H1766 0.930 . S
C1779 C1778 1.388 . S
C1779 C1780 1.390 . S
C1780 C1779 1.390 . S
C1780 C1781 1.394 . S
C1780 C1786 1.465 . S
C1781 C1776 1.399 . S
C1781 C1780 1.394 . S
C1781 C1782 1.516 . S
C1782 C1781 1.516 . S
C1782 C1783 1.502 . S
C1782 C1784 1.561 . S
C1782 C1785 1.526 . S
C1783 H1767 0.959 . S
C1783 H1768 0.959 . S
C1783 H1769 0.961 . S
C1783 C1782 1.502 . S
C1784 H1770 0.960 . S
C1784 H1771 0.961 . S
C1784 H1772 0.959 . S
C1784 C1782 1.561 . S
C1785 C1782 1.526 . S
C1785 C1786 1.396 . S
C1785 C1790 1.390 . S
C1786 C1780 1.465 . S
C1786 C1785 1.396 . S
C1786 C1787 1.399 . S
C1787 H1773 0.929 . S
C1787 C1786 1.399 . S
C1787 C1788 1.385 . S
C1788 H1774 0.931 . S
C1788 C1787 1.385 . S
C1788 C1789 1.389 . S
C1789 C1788 1.389 . S
C1789 C1790 1.387 . S
C1790 H1775 0.930 . S
C1790 C1785 1.390 . S
C1790 C1789 1.387 . S
H1791 C1803 0.930 . S
H1792 C1805 0.930 . S
H1793 C1806 0.930 . S
H1794 C1810 0.959 . S
H1795 C1810 0.959 . S
H1796 C1810 0.961 . S
H1797 C1811 0.960 . S
H1798 C1811 0.961 . S
H1799 C1811 0.959 . S
H1800 C1814 0.929 . S
H1801 C1815 0.931 . S
H1802 C1817 0.930 . S
C1803 H1791 0.930 . S
C1803 C1804 1.399 . S
C1803 C1808 1.399 1_565 S
C1804 C1803 1.399 . S
C1804 C1805 1.376 . S
C1805 H1792 0.930 . S
C1805 C1804 1.376 . S
C1805 C1806 1.388 . S
C1806 H1793 0.930 . S
C1806 C1805 1.388 . S
C1806 C1807 1.390 1_565 S
C1807 C1806 1.390 1_545 S
C1807 C1808 1.394 . S
C1807 C1813 1.465 . S
C1808 C1803 1.399 1_545 S
C1808 C1807 1.394 . S
C1808 C1809 1.516 . S
C1809 C1808 1.516 . S
C1809 C1810 1.502 . S
C1809 C1811 1.561 . S
C1809 C1812 1.526 . S
C1810 H1794 0.959 . S
C1810 H1795 0.959 . S
C1810 H1796 0.961 . S
C1810 C1809 1.502 . S
C1811 H1797 0.960 . S
C1811 H1798 0.961 . S
C1811 H1799 0.959 . S
C1811 C1809 1.561 . S
C1812 C1809 1.526 . S
C1812 C1813 1.396 . S
C1812 C1817 1.390 . S
C1813 C1807 1.465 . S
C1813 C1812 1.396 . S
C1813 C1814 1.399 . S
C1814 H1800 0.929 . S
C1814 C1813 1.399 . S
C1814 C1815 1.385 . S
C1815 H1801 0.931 . S
C1815 C1814 1.385 . S
C1815 C1816 1.389 . S
C1816 C1815 1.389 . S
C1816 C1817 1.387 . S
C1817 H1802 0.930 . S
C1817 C1812 1.390 . S
C1817 C1816 1.387 . S
H1818 C1830 0.930 . S
H1819 C1832 0.930 . S
H1820 C1833 0.930 . S
H1821 C1837 0.959 . S
H1822 C1837 0.959 . S
H1823 C1837 0.961 . S
H1824 C1838 0.960 . S
H1825 C1838 0.961 . S
H1826 C1838 0.959 . S
H1827 C1841 0.929 . S
H1828 C1842 0.931 . S
H1829 C1844 0.930 . S
C1830 H1818 0.930 . S
C1830 C1831 1.399 . S
C1830 C1835 1.399 1_455 S
C1831 C1830 1.399 . S
C1831 C1832 1.376 1_455 S
C1832 H1819 0.930 . S
C1832 C1831 1.376 1_655 S
C1832 C1833 1.388 . S
C1833 H1820 0.930 . S
C1833 C1832 1.388 . S
C1833 C1834 1.390 . S
C1834 C1833 1.390 . S
C1834 C1835 1.394 . S
C1834 C1840 1.465 . S
C1835 C1830 1.399 1_655 S
C1835 C1834 1.394 . S
C1835 C1836 1.516 . S
C1836 C1835 1.516 . S
C1836 C1837 1.502 . S
C1836 C1838 1.561 . S
C1836 C1839 1.526 . S
C1837 H1821 0.959 . S
C1837 H1822 0.959 . S
C1837 H1823 0.961 . S
C1837 C1836 1.502 . S
C1838 H1824 0.960 . S
C1838 H1825 0.961 . S
C1838 H1826 0.959 . S
C1838 C1836 1.561 . S
C1839 C1836 1.526 . S
C1839 C1840 1.396 . S
C1839 C1844 1.390 . S
C1840 C1834 1.465 . S
C1840 C1839 1.396 . S
C1840 C1841 1.399 . S
C1841 H1827 0.929 . S
C1841 C1840 1.399 . S
C1841 C1842 1.385 . S
C1842 H1828 0.931 . S
C1842 C1841 1.385 . S
C1842 C1843 1.389 . S
C1843 C1842 1.389 . S
C1843 C1844 1.387 . S
C1844 H1829 0.930 . S
C1844 C1839 1.390 . S
C1844 C1843 1.387 . S
H1845 C1857 0.930 . S
H1846 C1859 0.930 . S
H1847 C1860 0.930 . S
H1848 C1864 0.959 . S
H1849 C1864 0.959 . S
H1850 C1864 0.961 . S
H1851 C1865 0.960 . S
H1852 C1865 0.961 . S
H1853 C1865 0.959 . S
H1854 C1868 0.929 . S
H1855 C1869 0.931 . S
H1856 C1871 0.930 . S
C1857 H1845 0.930 . S
C1857 C1858 1.399 . S
C1857 C1862 1.399 . S
C1858 C1857 1.399 . S
C1858 C1859 1.376 . S
C1859 H1846 0.930 . S
C1859 C1858 1.376 . S
C1859 C1860 1.388 . S
C1860 H1847 0.930 . S
C1860 C1859 1.388 . S
C1860 C1861 1.390 . S
C1861 C1860 1.390 . S
C1861 C1862 1.394 . S
C1861 C1867 1.465 . S
C1862 C1857 1.399 . S
C1862 C1861 1.394 . S
C1862 C1863 1.516 . S
C1863 C1862 1.516 . S
C1863 C1864 1.502 . S
C1863 C1865 1.561 . S
C1863 C1866 1.526 . S
C1864 H1848 0.959 . S
C1864 H1849 0.959 . S
C1864 H1850 0.961 . S
C1864 C1863 1.502 . S
C1865 H1851 0.960 . S
C1865 H1852 0.961 . S
C1865 H1853 0.959 . S
C1865 C1863 1.561 . S
C1866 C1863 1.526 . S
C1866 C1867 1.396 . S
C1866 C1871 1.390 . S
C1867 C1861 1.465 . S
C1867 C1866 1.396 . S
C1867 C1868 1.399 . S
C1868 H1854 0.929 . S
C1868 C1867 1.399 . S
C1868 C1869 1.385 . S
C1869 H1855 0.931 . S
C1869 C1868 1.385 . S
C1869 C1870 1.389 . S
C1870 C1869 1.389 . S
C1870 C1871 1.387 . S
C1871 H1856 0.930 . S
C1871 C1866 1.390 . S
C1871 C1870 1.387 . S
H1872 C1884 0.930 . S
H1873 C1886 0.930 . S
H1874 C1887 0.930 . S
H1875 C1891 0.959 . S
H1876 C1891 0.959 . S
H1877 C1891 0.929 1_455 S
H1878 C1892 0.960 . S
H1879 C1892 0.961 . S
H1880 C1892 0.959 . S
H1881 C1895 0.929 . S
H1882 C1896 0.931 . S
H1883 C1898 0.930 . S
C1884 H1872 0.930 . S
C1884 C1885 1.399 . S
C1884 C1889 1.399 1_455 S
C1885 C1884 1.399 . S
C1885 C1886 1.376 . S
C1886 H1873 0.930 . S
C1886 C1885 1.376 . S
C1886 C1887 1.388 1_455 S
C1887 H1874 0.930 . S
C1887 C1886 1.388 1_655 S
C1887 C1888 1.390 . S
C1888 C1887 1.390 . S
C1888 C1889 1.394 . S
C1888 C1894 1.465 . S
C1889 C1884 1.399 1_655 S
C1889 C1888 1.394 . S
C1889 C1890 1.516 . S
C1890 C1889 1.516 . S
C1890 C1891 1.502 . S
C1890 C1892 1.561 . S
C1890 C1893 1.526 . S
C1891 H1875 0.959 . S
C1891 H1876 0.959 . S
C1891 H1877 0.929 1_655 S
C1891 C1890 1.502 . S
C1892 H1878 0.960 . S
C1892 H1879 0.961 . S
C1892 H1880 0.959 . S
C1892 C1890 1.561 . S
C1893 C1890 1.526 . S
C1893 C1894 1.396 . S
C1893 C1898 1.390 . S
C1894 C1888 1.465 . S
C1894 C1893 1.396 . S
C1894 C1895 1.399 . S
C1895 H1881 0.929 . S
C1895 C1894 1.399 . S
C1895 C1896 1.385 . S
C1896 H1882 0.931 . S
C1896 C1895 1.385 . S
C1896 C1897 1.389 . S
C1897 C1896 1.389 . S
C1897 C1898 1.387 . S
C1898 H1883 0.930 . S
C1898 C1893 1.390 . S
C1898 C1897 1.387 . S
H1899 C1911 0.930 . S
H1900 C1913 0.930 . S
H1901 C1914 0.930 . S
H1902 C1918 0.959 . S
H1903 C1918 0.959 . S
H1904 C1918 0.961 . S
H1905 C1919 0.960 . S
H1906 C1919 0.961 . S
H1907 C1919 0.959 . S
H1908 C1922 0.929 . S
H1909 C1923 0.931 . S
H1910 C1925 0.930 . S
C1911 H1899 0.930 . S
C1911 C1912 1.399 . S
C1911 C1916 1.399 . S
C1912 C1911 1.399 . S
C1912 C1913 1.376 . S
C1913 H1900 0.930 . S
C1913 C1912 1.376 . S
C1913 C1914 1.388 . S
C1914 H1901 0.930 . S
C1914 C1913 1.388 . S
C1914 C1915 1.390 . S
C1915 C1914 1.390 . S
C1915 C1916 1.394 . S
C1915 C1921 1.465 . S
C1916 C1911 1.399 . S
C1916 C1915 1.394 . S
C1916 C1917 1.516 . S
C1917 C1916 1.516 . S
C1917 C1918 1.502 . S
C1917 C1919 1.561 . S
C1917 C1920 1.526 . S
C1918 H1902 0.959 . S
C1918 H1903 0.959 . S
C1918 H1904 0.961 . S
C1918 C1917 1.502 . S
C1919 H1905 0.960 . S
C1919 H1906 0.961 . S
C1919 H1907 0.959 . S
C1919 C1917 1.561 . S
C1920 C1917 1.526 . S
C1920 C1921 1.396 . S
C1920 C1925 1.390 . S
C1921 C1915 1.465 . S
C1921 C1920 1.396 . S
C1921 C1922 1.399 . S
C1922 H1908 0.929 . S
C1922 C1921 1.399 . S
C1922 C1923 1.385 . S
C1923 H1909 0.931 . S
C1923 C1922 1.385 . S
C1923 C1924 1.389 . S
C1924 C1923 1.389 . S
C1924 C1925 1.387 . S
C1925 H1910 0.930 . S
C1925 C1920 1.390 . S
C1925 C1924 1.387 . S
H1926 C1938 0.930 . S
H1927 C1940 0.930 . S
H1928 C1941 0.930 . S
H1929 C1945 0.959 . S
H1930 C1945 0.959 . S
H1931 C1945 0.961 . S
H1932 C1946 0.960 . S
H1933 C1946 0.961 . S
H1934 C1946 0.959 . S
H1935 C1949 0.929 . S
H1936 C1950 0.931 . S
H1937 C1952 0.930 . S
C1938 H1926 0.930 . S
C1938 C1939 1.399 . S
C1938 C1943 1.399 1_565 S
C1939 C1938 1.399 . S
C1939 C1940 1.376 . S
C1940 H1927 0.930 . S
C1940 C1939 1.376 . S
C1940 C1941 1.388 . S
C1941 H1928 0.930 . S
C1941 C1940 1.388 . S
C1941 C1942 1.390 1_565 S
C1942 C1941 1.390 1_545 S
C1942 C1943 1.394 . S
C1942 C1948 1.465 . S
C1943 C1938 1.399 1_545 S
C1943 C1942 1.394 . S
C1943 C1944 1.516 . S
C1944 C1943 1.516 . S
C1944 C1945 1.502 . S
C1944 C1946 1.561 . S
C1944 C1947 1.526 . S
C1945 H1929 0.959 . S
C1945 H1930 0.959 . S
C1945 H1931 0.961 . S
C1945 C1944 1.502 . S
C1946 H1932 0.960 . S
C1946 H1933 0.961 . S
C1946 H1934 0.959 . S
C1946 C1944 1.561 . S
C1947 C1944 1.526 . S
C1947 C1948 1.396 . S
C1947 C1952 1.390 . S
C1948 C1942 1.465 . S
C1948 C1947 1.396 . S
C1948 C1949 1.399 . S
C1949 H1935 0.929 . S
C1949 C1948 1.399 . S
C1949 C1950 1.385 . S
C1950 H1936 0.931 . S
C1950 C1949 1.385 . S
C1950 C1951 1.389 . S
C1951 C1950 1.389 . S
C1951 C1952 1.387 . S
C1952 H1937 0.930 . S
C1952 C1947 1.390 . S
C1952 C1951 1.387 . S
H1953 C1965 0.930 . S
H1954 C1967 0.930 . S
H1955 C1968 0.930 . S
H1956 C1972 0.959 . S
H1957 C1972 0.959 . S
H1958 C1972 0.961 . S
H1959 C1973 0.960 . S
H1960 C1973 0.961 . S
H1961 C1973 0.959 . S
H1962 C1976 0.929 . S
H1963 C1977 0.931 . S
H1964 C1979 0.930 . S
C1965 H1953 0.930 . S
C1965 C1966 1.399 . S
C1965 C1970 1.399 . S
C1966 C1965 1.399 . S
C1966 C1967 1.376 . S
C1967 H1954 0.930 . S
C1967 C1966 1.376 . S
C1967 C1968 1.388 . S
C1968 H1955 0.930 . S
C1968 C1967 1.388 . S
C1968 C1969 1.390 . S
C1969 C1968 1.390 . S
C1969 C1970 1.394 . S
C1969 C1975 1.465 . S
C1970 C1965 1.399 . S
C1970 C1969 1.394 . S
C1970 C1971 1.516 . S
C1971 C1970 1.516 . S
C1971 C1972 1.502 . S
C1971 C1973 1.561 . S
C1971 C1974 1.526 . S
C1972 H1956 0.959 . S
C1972 H1957 0.959 . S
C1972 H1958 0.961 . S
C1972 C1971 1.502 . S
C1973 H1959 0.960 . S
C1973 H1960 0.961 . S
C1973 H1961 0.959 . S
C1973 C1971 1.561 . S
C1974 C1971 1.526 . S
C1974 C1975 1.396 . S
C1974 C1979 1.390 . S
C1975 C1969 1.465 . S
C1975 C1974 1.396 . S
C1975 C1976 1.399 . S
C1976 H1962 0.929 . S
C1976 C1975 1.399 . S
C1976 C1977 1.385 . S
C1977 H1963 0.931 . S
C1977 C1976 1.385 . S
C1977 C1978 1.389 . S
C1978 C1977 1.389 . S
C1978 C1979 1.387 . S
C1979 H1964 0.930 . S
C1979 C1974 1.390 . S
C1979 C1978 1.387 . S
H1980 C1992 0.930 . S
H1981 C1994 0.930 . S
H1982 C1995 0.930 . S
H1983 C1999 0.959 . S
H1984 C1999 0.959 . S
H1985 C1999 0.961 . S
H1986 C2000 0.960 . S
H1987 C2000 0.961 . S
H1988 C2000 0.959 . S
H1989 C2003 0.929 . S
H1990 C2004 0.931 . S
H1991 C2006 0.930 . S
C1992 H1980 0.930 . S
C1992 C1993 1.399 . S
C1992 C1997 1.399 . S
C1993 C1992 1.399 . S
C1993 C1994 1.376 . S
C1994 H1981 0.930 . S
C1994 C1993 1.376 . S
C1994 C1995 1.388 . S
C1995 H1982 0.930 . S
C1995 C1994 1.388 . S
C1995 C1996 1.390 . S
C1996 C1995 1.390 . S
C1996 C1997 1.394 . S
C1996 C2002 1.465 . S
C1997 C1992 1.399 . S
C1997 C1996 1.394 . S
C1997 C1998 1.516 . S
C1998 C1997 1.516 . S
C1998 C1999 1.502 . S
C1998 C2000 1.561 . S
C1998 C2001 1.526 . S
C1999 H1983 0.959 . S
C1999 H1984 0.959 . S
C1999 H1985 0.961 . S
C1999 C1998 1.502 . S
C2000 H1986 0.960 . S
C2000 H1987 0.961 . S
C2000 H1988 0.959 . S
C2000 C1998 1.561 . S
C2001 C1998 1.526 . S
C2001 C2002 1.396 . S
C2001 C2006 1.390 . S
C2002 C1996 1.465 . S
C2002 C2001 1.396 . S
C2002 C2003 1.399 . S
C2003 H1989 0.929 . S
C2003 C2002 1.399 . S
C2003 C2004 1.385 . S
C2004 H1990 0.931 . S
C2004 C2003 1.385 . S
C2004 C2005 1.389 . S
C2005 C2004 1.389 . S
C2005 C2006 1.387 . S
C2006 H1991 0.930 . S
C2006 C2001 1.390 . S
C2006 C2005 1.387 . S
H2007 C2019 0.930 . S
H2008 C2021 0.930 . S
H2009 C2022 0.930 . S
H2010 C2026 0.959 . S
H2011 C2026 0.959 . S
H2012 C2026 0.961 . S
H2013 C2027 0.960 . S
H2014 C2027 0.961 . S
H2015 C2027 0.959 . S
H2016 C2030 0.929 . S
H2017 C2031 0.931 . S
H2018 C2033 0.930 . S
C2019 H2007 0.930 . S
C2019 C2020 1.399 . S
C2019 C2024 1.399 . S
C2020 C2019 1.399 . S
C2020 C2021 1.376 . S
C2021 H2008 0.930 . S
C2021 C2020 1.376 . S
C2021 C2022 1.388 . S
C2022 H2009 0.930 . S
C2022 C2021 1.388 . S
C2022 C2023 1.390 . S
C2023 C2022 1.390 . S
C2023 C2024 1.394 . S
C2023 C2029 1.465 . S
C2024 C2019 1.399 . S
C2024 C2023 1.394 . S
C2024 C2025 1.516 . S
C2025 C2024 1.516 . S
C2025 C2026 1.502 . S
C2025 C2027 1.561 . S
C2025 C2028 1.526 . S
C2026 H2010 0.959 . S
C2026 H2011 0.959 . S
C2026 H2012 0.961 . S
C2026 C2025 1.502 . S
C2027 H2013 0.960 . S
C2027 H2014 0.961 . S
C2027 H2015 0.959 . S
C2027 C2025 1.561 . S
C2028 C2025 1.526 . S
C2028 C2029 1.396 . S
C2028 C2033 1.390 . S
C2029 C2023 1.465 . S
C2029 C2028 1.396 . S
C2029 C2030 1.399 . S
C2030 H2016 0.929 . S
C2030 C2029 1.399 . S
C2030 C2031 1.385 . S
C2031 H2017 0.931 . S
C2031 C2030 1.385 . S
C2031 C2032 1.389 . S
C2032 C2031 1.389 . S
C2032 C2033 1.387 . S
C2033 H2018 0.930 . S
C2033 C2028 1.390 . S
C2033 C2032 1.387 . S
H2034 C2046 0.930 . S
H2035 C2048 0.930 . S
H2036 C2049 0.901 1_545 S
H2037 C2053 0.959 . S
H2038 C2053 0.959 . S
H2039 C2053 0.961 . S
H2040 C2054 0.960 . S
H2041 C2054 0.961 . S
H2042 C2054 0.959 . S
H2043 C2057 0.929 . S
H2044 C2058 0.931 . S
H2045 C2060 0.930 . S
C2046 H2034 0.930 . S
C2046 C2047 1.399 . S
C2046 C2051 1.399 . S
C2047 C2046 1.399 . S
C2047 C2048 1.376 . S
C2048 H2035 0.930 . S
C2048 C2047 1.376 . S
C2048 C2049 1.402 . S
C2049 H2036 0.901 1_565 S
C2049 C2048 1.402 . S
C2049 C2050 1.406 . S
C2050 C2049 1.406 . S
C2050 C2051 1.394 . S
C2050 C2056 1.465 . S
C2051 C2046 1.399 . S
C2051 C2050 1.394 . S
C2051 C2052 1.516 . S
C2052 C2051 1.516 . S
C2052 C2053 1.502 . S
C2052 C2054 1.561 . S
C2052 C2055 1.526 . S
C2053 H2037 0.959 . S
C2053 H2038 0.959 . S
C2053 H2039 0.961 . S
C2053 C2052 1.502 . S
C2054 H2040 0.960 . S
C2054 H2041 0.961 . S
C2054 H2042 0.959 . S
C2054 C2052 1.561 . S
C2055 C2052 1.526 . S
C2055 C2056 1.396 . S
C2055 C2060 1.390 . S
C2056 C2050 1.465 . S
C2056 C2055 1.396 . S
C2056 C2057 1.399 1_565 S
C2057 H2043 0.929 . S
C2057 C2056 1.399 1_545 S
C2057 C2058 1.385 . S
C2058 H2044 0.931 . S
C2058 C2057 1.385 . S
C2058 C2059 1.389 1_545 S
C2059 C2058 1.389 1_565 S
C2059 C2060 1.387 . S
C2060 H2045 0.930 . S
C2060 C2055 1.390 . S
C2060 C2059 1.387 . S
H2061 C2073 0.930 . S
H2062 C2075 0.930 . S
H2063 C2076 0.930 . S
H2064 C2080 0.959 . S
H2065 C2080 0.959 . S
H2066 C2080 0.961 . S
H2067 C2081 0.960 . S
H2068 C2081 0.961 . S
H2069 C2081 0.959 . S
H2070 C2084 0.929 . S
H2071 C2085 0.931 . S
H2072 C2087 0.930 . S
C2073 H2061 0.930 . S
C2073 C2074 1.399 . S
C2073 C2078 1.399 . S
C2074 C2073 1.399 . S
C2074 C2075 1.376 . S
C2075 H2062 0.930 . S
C2075 C2074 1.376 . S
C2075 C2076 1.388 . S
C2076 H2063 0.930 . S
C2076 C2075 1.388 . S
C2076 C2077 1.390 . S
C2077 C2076 1.390 . S
C2077 C2078 1.394 . S
C2077 C2083 1.465 . S
C2078 C2073 1.399 . S
C2078 C2077 1.394 . S
C2078 C2079 1.516 . S
C2079 C2078 1.516 . S
C2079 C2080 1.502 . S
C2079 C2081 1.561 1_455 S
C2079 C2082 1.526 . S
C2080 H2064 0.959 . S
C2080 H2065 0.959 . S
C2080 H2066 0.961 . S
C2080 C2079 1.502 . S
C2081 H2067 0.960 . S
C2081 H2068 0.961 . S
C2081 H2069 0.959 . S
C2081 C2079 1.561 1_655 S
C2082 C2079 1.526 . S
C2082 C2083 1.396 . S
C2082 C2087 1.390 . S
C2083 C2077 1.465 . S
C2083 C2082 1.396 . S
C2083 C2084 1.399 . S
C2084 H2070 0.929 . S
C2084 C2083 1.399 . S
C2084 C2085 1.385 . S
C2085 H2071 0.931 . S
C2085 C2084 1.385 . S
C2085 C2086 1.389 . S
C2086 C2085 1.389 . S
C2086 C2087 1.387 . S
C2087 H2072 0.930 . S
C2087 C2082 1.390 . S
C2087 C2086 1.387 . S
H2088 C2100 0.930 . S
H2089 C2102 0.930 . S
H2090 C2103 0.930 . S
H2091 C2107 0.959 . S
H2092 C2107 0.959 . S
H2093 C2107 0.961 . S
H2094 C2108 0.960 . S
H2095 C2108 0.961 . S
H2096 C2108 0.959 . S
H2097 C2111 0.929 . S
H2098 C2112 0.931 . S
H2099 C2114 0.930 . S
C2100 H2088 0.930 . S
C2100 C2101 1.399 . S
C2100 C2105 1.399 . S
C2101 C2100 1.399 . S
C2101 C2102 1.376 . S
C2102 H2089 0.930 . S
C2102 C2101 1.376 . S
C2102 C2103 1.388 . S
C2103 H2090 0.930 . S
C2103 C2102 1.388 . S
C2103 C2104 1.390 . S
C2104 C2103 1.390 . S
C2104 C2105 1.394 . S
C2104 C2110 1.465 . S
C2105 C2100 1.399 . S
C2105 C2104 1.394 . S
C2105 C2106 1.516 . S
C2106 C2105 1.516 . S
C2106 C2107 1.502 . S
C2106 C2108 1.561 . S
C2106 C2109 1.526 . S
C2107 H2091 0.959 . S
C2107 H2092 0.959 . S
C2107 H2093 0.961 . S
C2107 C2106 1.502 . S
C2108 H2094 0.960 . S
C2108 H2095 0.961 . S
C2108 H2096 0.959 . S
C2108 C2106 1.561 . S
C2109 C2106 1.526 . S
C2109 C2110 1.396 . S
C2109 C2114 1.390 . S
C2110 C2104 1.465 . S
C2110 C2109 1.396 . S
C2110 C2111 1.399 . S
C2111 H2097 0.929 . S
C2111 C2110 1.399 . S
C2111 C2112 1.385 . S
C2112 H2098 0.931 . S
C2112 C2111 1.385 . S
C2112 C2113 1.389 . S
C2113 C2112 1.389 . S
C2113 C2114 1.387 . S
C2114 H2099 0.930 . S
C2114 C2109 1.390 . S
C2114 C2113 1.387 . S
H2115 C2127 0.930 . S
H2116 C2129 0.930 . S
H2117 C2130 0.930 . S
H2118 C2134 0.959 . S
H2119 C2134 0.959 . S
H2120 C2134 0.961 . S
H2121 C2135 0.960 . S
H2122 C2135 0.961 . S
H2123 C2135 0.959 1_655 S
H2124 C2138 0.929 . S
H2125 C2139 0.931 . S
H2126 C2141 0.930 . S
C2127 H2115 0.930 . S
C2127 C2128 1.399 1_455 S
C2127 C2132 1.408 . S
C2128 C2127 1.399 1_655 S
C2128 C2129 1.376 . S
C2129 H2116 0.930 . S
C2129 C2128 1.376 . S
C2129 C2130 1.388 . S
C2130 H2117 0.930 . S
C2130 C2129 1.388 . S
C2130 C2131 1.390 . S
C2131 C2130 1.390 . S
C2131 C2132 1.378 1_655 S
C2131 C2137 1.465 . S
C2132 C2127 1.408 . S
C2132 C2131 1.378 1_455 S
C2132 C2133 1.521 . S
C2133 C2132 1.521 . S
C2133 C2134 1.502 . S
C2133 C2135 1.561 . S
C2133 C2136 1.526 1_455 S
C2134 H2118 0.959 . S
C2134 H2119 0.959 . S
C2134 H2120 0.961 . S
C2134 C2133 1.502 . S
C2135 H2121 0.960 . S
C2135 H2122 0.961 . S
C2135 H2123 0.959 1_455 S
C2135 C2133 1.561 . S
C2136 C2133 1.526 1_655 S
C2136 C2137 1.396 . S
C2136 C2141 1.390 1_655 S
C2137 C2131 1.465 . S
C2137 C2136 1.396 . S
C2137 C2138 1.399 . S
C2138 H2124 0.929 . S
C2138 C2137 1.399 . S
C2138 C2139 1.385 . S
C2139 H2125 0.931 . S
C2139 C2138 1.385 . S
C2139 C2140 1.389 . S
C2140 C2139 1.389 . S
C2140 C2141 1.387 1_655 S
C2141 H2126 0.930 . S
C2141 C2136 1.390 1_455 S
C2141 C2140 1.387 1_455 S
H2142 C2154 0.930 . S
H2143 C2156 0.930 . S
H2144 C2157 0.930 . S
H2145 C2161 0.959 . S
H2146 C2161 0.959 . S
H2147 C2161 0.961 . S
H2148 C2162 0.960 . S
H2149 C2162 0.961 . S
H2150 C2162 0.959 . S
H2151 C2165 0.929 . S
H2152 C2166 0.931 . S
H2153 C2168 0.930 . S
C2154 H2142 0.930 . S
C2154 C2155 1.399 . S
C2154 C2159 1.399 . S
C2155 C2154 1.399 . S
C2155 C2156 1.376 . S
C2156 H2143 0.930 . S
C2156 C2155 1.376 . S
C2156 C2157 1.388 . S
C2157 H2144 0.930 . S
C2157 C2156 1.388 . S
C2157 C2158 1.390 . S
C2158 C2157 1.390 . S
C2158 C2159 1.394 . S
C2158 C2164 1.465 . S
C2159 C2154 1.399 . S
C2159 C2158 1.394 . S
C2159 C2160 1.516 . S
C2160 C2159 1.516 . S
C2160 C2161 1.502 . S
C2160 C2162 1.561 . S
C2160 C2163 1.526 . S
C2161 H2145 0.959 . S
C2161 H2146 0.959 . S
C2161 H2147 0.961 . S
C2161 C2160 1.502 . S
C2162 H2148 0.960 . S
C2162 H2149 0.961 . S
C2162 H2150 0.959 . S
C2162 C2160 1.561 . S
C2163 C2160 1.526 . S
C2163 C2164 1.396 . S
C2163 C2168 1.390 . S
C2164 C2158 1.465 . S
C2164 C2163 1.396 . S
C2164 C2165 1.399 . S
C2165 H2151 0.929 . S
C2165 C2164 1.399 . S
C2165 C2166 1.385 . S
C2166 H2152 0.931 . S
C2166 C2165 1.385 . S
C2166 C2167 1.389 . S
C2167 C2166 1.389 . S
C2167 C2168 1.387 . S
C2168 H2153 0.930 . S
C2168 C2163 1.390 . S
C2168 C2167 1.387 . S
H2169 C2181 0.930 . S
H2170 C2183 0.930 . S
H2171 C2184 0.930 . S
H2172 C2188 0.959 . S
H2173 C2188 0.959 . S
H2174 C2188 0.961 . S
H2175 C2189 0.960 . S
H2176 C2189 0.961 . S
H2177 C2189 0.959 . S
H2178 C2192 0.929 . S
H2179 C2193 0.931 . S
H2180 C2195 0.930 . S
C2181 H2169 0.930 . S
C2181 C2182 1.399 . S
C2181 C2186 1.399 . S
C2182 C2181 1.399 . S
C2182 C2183 1.376 . S
C2183 H2170 0.930 . S
C2183 C2182 1.376 . S
C2183 C2184 1.388 . S
C2184 H2171 0.930 . S
C2184 C2183 1.388 . S
C2184 C2185 1.390 . S
C2185 C2184 1.390 . S
C2185 C2186 1.394 . S
C2185 C2191 1.465 . S
C2186 C2181 1.399 . S
C2186 C2185 1.394 . S
C2186 C2187 1.516 1_545 S
C2187 C2186 1.516 1_565 S
C2187 C2188 1.502 . S
C2187 C2189 1.561 . S
C2187 C2190 1.526 1_565 S
C2188 H2172 0.959 . S
C2188 H2173 0.959 . S
C2188 H2174 0.961 . S
C2188 C2187 1.502 . S
C2189 H2175 0.960 . S
C2189 H2176 0.961 . S
C2189 H2177 0.959 . S
C2189 C2187 1.561 . S
C2190 C2187 1.526 1_545 S
C2190 C2191 1.396 . S
C2190 C2195 1.390 1_545 S
C2191 C2185 1.465 . S
C2191 C2190 1.396 . S
C2191 C2192 1.399 . S
C2192 H2178 0.929 . S
C2192 C2191 1.399 . S
C2192 C2193 1.385 . S
C2193 H2179 0.931 . S
C2193 C2192 1.385 . S
C2193 C2194 1.389 . S
C2194 C2193 1.389 . S
C2194 C2195 1.387 1_545 S
C2195 H2180 0.930 . S
C2195 C2190 1.390 1_565 S
C2195 C2194 1.387 1_565 S
H2196 C2208 0.930 . S
H2197 C2210 0.930 . S
H2198 C2211 0.930 . S
H2199 C2215 0.959 . S
H2200 C2215 0.959 . S
H2201 C2215 0.961 . S
H2202 C2216 0.960 . S
H2203 C2216 0.961 . S
H2204 C2216 0.959 . S
H2205 C2219 0.929 . S
H2206 C2220 0.931 . S
H2207 C2222 0.930 . S
C2208 H2196 0.930 . S
C2208 C2209 1.399 . S
C2208 C2213 1.399 . S
C2209 C2208 1.399 . S
C2209 C2210 1.376 . S
C2210 H2197 0.930 . S
C2210 C2209 1.376 . S
C2210 C2211 1.388 . S
C2211 H2198 0.930 . S
C2211 C2210 1.388 . S
C2211 C2212 1.390 . S
C2212 C2211 1.390 . S
C2212 C2213 1.394 . S
C2212 C2218 1.465 . S
C2213 C2208 1.399 . S
C2213 C2212 1.394 . S
C2213 C2214 1.516 . S
C2214 C2213 1.516 . S
C2214 C2215 1.502 . S
C2214 C2216 1.561 . S
C2214 C2217 1.526 . S
C2215 H2199 0.959 . S
C2215 H2200 0.959 . S
C2215 H2201 0.961 . S
C2215 C2214 1.502 . S
C2216 H2202 0.960 . S
C2216 H2203 0.961 . S
C2216 H2204 0.959 . S
C2216 C2214 1.561 . S
C2217 C2214 1.526 . S
C2217 C2218 1.396 . S
C2217 C2222 1.390 . S
C2218 C2212 1.465 . S
C2218 C2217 1.396 . S
C2218 C2219 1.399 . S
C2219 H2205 0.929 . S
C2219 C2218 1.399 . S
C2219 C2220 1.385 . S
C2220 H2206 0.931 . S
C2220 C2219 1.385 . S
C2220 C2221 1.389 . S
C2221 C2220 1.389 . S
C2221 C2222 1.387 . S
C2222 H2207 0.930 . S
C2222 C2217 1.390 . S
C2222 C2221 1.387 . S
H2223 C2235 0.930 . S
H2224 C2237 0.930 . S
H2225 C2238 0.930 . S
H2226 C2242 0.959 . S
H2227 C2242 0.959 . S
H2228 C2242 0.961 . S
H2229 C2243 0.960 . S
H2230 C2243 0.961 . S
H2231 C2243 0.959 . S
H2232 C2246 0.929 . S
H2233 C2247 0.931 . S
H2234 C2249 0.930 . S
C2235 H2223 0.930 . S
C2235 C2236 1.399 . S
C2235 C2240 1.399 . S
C2236 C2235 1.399 . S
C2236 C2237 1.376 . S
C2237 H2224 0.930 . S
C2237 C2236 1.376 . S
C2237 C2238 1.388 . S
C2238 H2225 0.930 . S
C2238 C2237 1.388 . S
C2238 C2239 1.390 . S
C2239 C2238 1.390 . S
C2239 C2240 1.394 . S
C2239 C2245 1.465 . S
C2240 C2235 1.399 . S
C2240 C2239 1.394 . S
C2240 C2241 1.516 . S
C2241 C2240 1.516 . S
C2241 C2242 1.502 . S
C2241 C2243 1.561 . S
C2241 C2244 1.526 . S
C2242 H2226 0.959 . S
C2242 H2227 0.959 . S
C2242 H2228 0.961 . S
C2242 C2241 1.502 . S
C2243 H2229 0.960 . S
C2243 H2230 0.961 . S
C2243 H2231 0.959 . S
C2243 C2241 1.561 . S
C2244 C2241 1.526 . S
C2244 C2245 1.396 . S
C2244 C2249 1.390 . S
C2245 C2239 1.465 . S
C2245 C2244 1.396 . S
C2245 C2246 1.399 . S
C2246 H2232 0.929 . S
C2246 C2245 1.399 . S
C2246 C2247 1.385 . S
C2247 H2233 0.931 . S
C2247 C2246 1.385 . S
C2247 C2248 1.389 . S
C2248 C2247 1.389 . S
C2248 C2249 1.387 . S
C2249 H2234 0.930 . S
C2249 C2244 1.390 . S
C2249 C2248 1.387 . S
H2250 C2262 0.930 . S
H2251 C2264 0.930 . S
H2252 C2265 0.930 . S
H2253 C2269 0.959 . S
H2254 C2269 0.959 . S
H2255 C2269 0.961 . S
H2256 C2270 0.960 . S
H2257 C2270 0.961 . S
H2258 C2270 0.959 . S
H2259 C2273 0.929 . S
H2260 C2274 0.931 . S
H2261 C2276 0.930 . S
C2262 H2250 0.930 . S
C2262 C2263 1.399 . S
C2262 C2267 1.399 . S
C2263 C2262 1.399 . S
C2263 C2264 1.376 . S
C2264 H2251 0.930 . S
C2264 C2263 1.376 . S
C2264 C2265 1.388 . S
C2265 H2252 0.930 . S
C2265 C2264 1.388 . S
C2265 C2266 1.390 . S
C2266 C2265 1.390 . S
C2266 C2267 1.394 . S
C2266 C2272 1.465 . S
C2267 C2262 1.399 . S
C2267 C2266 1.394 . S
C2267 C2268 1.516 . S
C2268 C2267 1.516 . S
C2268 C2269 1.502 . S
C2268 C2270 1.561 . S
C2268 C2271 1.526 . S
C2269 H2253 0.959 . S
C2269 H2254 0.959 . S
C2269 H2255 0.961 . S
C2269 C2268 1.502 . S
C2270 H2256 0.960 . S
C2270 H2257 0.961 . S
C2270 H2258 0.959 . S
C2270 C2268 1.561 . S
C2271 C2268 1.526 . S
C2271 C2272 1.396 . S
C2271 C2276 1.390 . S
C2272 C2266 1.465 . S
C2272 C2271 1.396 . S
C2272 C2273 1.399 . S
C2273 H2259 0.929 . S
C2273 C2272 1.399 . S
C2273 C2274 1.385 . S
C2274 H2260 0.931 . S
C2274 C2273 1.385 . S
C2274 C2275 1.389 . S
C2275 C2274 1.389 . S
C2275 C2276 1.387 . S
C2276 H2261 0.930 . S
C2276 C2271 1.390 . S
C2276 C2275 1.387 . S
H2277 C2289 0.930 . S
H2278 C2291 0.930 . S
H2279 C2292 0.930 . S
H2280 C2296 0.959 . S
H2281 C2296 0.959 . S
H2282 C2296 0.961 . S
H2283 C2297 0.960 . S
H2284 C2297 0.961 . S
H2285 C2297 0.959 . S
H2286 C2300 0.929 . S
H2287 C2301 0.931 . S
H2288 C2303 0.930 . S
C2289 H2277 0.930 . S
C2289 C2290 1.399 . S
C2289 C2294 1.399 . S
C2290 C2289 1.399 . S
C2290 C2291 1.376 . S
C2291 H2278 0.930 . S
C2291 C2290 1.376 . S
C2291 C2292 1.388 . S
C2292 H2279 0.930 . S
C2292 C2291 1.388 . S
C2292 C2293 1.390 . S
C2293 C2292 1.390 . S
C2293 C2294 1.394 . S
C2293 C2299 1.465 . S
C2294 C2289 1.399 . S
C2294 C2293 1.394 . S
C2294 C2295 1.516 . S
C2295 C2294 1.516 . S
C2295 C2296 1.502 . S
C2295 C2297 1.561 . S
C2295 C2298 1.526 . S
C2296 H2280 0.959 . S
C2296 H2281 0.959 . S
C2296 H2282 0.961 . S
C2296 C2295 1.502 . S
C2297 H2283 0.960 . S
C2297 H2284 0.961 . S
C2297 H2285 0.959 . S
C2297 C2295 1.561 . S
C2298 C2295 1.526 . S
C2298 C2299 1.396 . S
C2298 C2303 1.390 . S
C2299 C2293 1.465 . S
C2299 C2298 1.396 . S
C2299 C2300 1.399 . S
C2300 H2286 0.929 . S
C2300 C2299 1.399 . S
C2300 C2301 1.385 . S
C2301 H2287 0.931 . S
C2301 C2300 1.385 . S
C2301 C2302 1.389 . S
C2302 C2301 1.389 . S
C2302 C2303 1.387 . S
C2303 H2288 0.930 . S
C2303 C2298 1.390 . S
C2303 C2302 1.387 . S
H2304 C2316 0.930 . S
H2305 C2318 0.930 . S
H2306 C2319 0.930 . S
H2307 C2323 0.959 . S
H2308 C2323 0.959 . S
H2309 C2323 0.961 . S
H2310 C2324 0.960 . S
H2311 C2324 0.961 . S
H2312 C2324 0.959 . S
H2313 C2327 0.929 . S
H2314 C2328 0.931 . S
H2315 C2330 0.930 . S
C2316 H2304 0.930 . S
C2316 C2317 1.399 . S
C2316 C2321 1.399 . S
C2317 C2316 1.399 . S
C2317 C2318 1.376 . S
C2318 H2305 0.930 . S
C2318 C2317 1.376 . S
C2318 C2319 1.388 . S
C2319 H2306 0.930 . S
C2319 C2318 1.388 . S
C2319 C2320 1.390 . S
C2320 C2319 1.390 . S
C2320 C2321 1.394 . S
C2320 C2326 1.465 . S
C2321 C2316 1.399 . S
C2321 C2320 1.394 . S
C2321 C2322 1.516 . S
C2322 C2321 1.516 . S
C2322 C2323 1.502 . S
C2322 C2324 1.561 . S
C2322 C2325 1.526 . S
C2323 H2307 0.959 . S
C2323 H2308 0.959 . S
C2323 H2309 0.961 . S
C2323 C2322 1.502 . S
C2324 H2310 0.960 . S
C2324 H2311 0.961 . S
C2324 H2312 0.959 . S
C2324 C2322 1.561 . S
C2325 C2322 1.526 . S
C2325 C2326 1.396 . S
C2325 C2330 1.390 . S
C2326 C2320 1.465 . S
C2326 C2325 1.396 . S
C2326 C2327 1.399 . S
C2327 H2313 0.929 . S
C2327 C2326 1.399 . S
C2327 C2328 1.385 . S
C2328 H2314 0.931 . S
C2328 C2327 1.385 . S
C2328 C2329 1.389 . S
C2329 C2328 1.389 . S
C2329 C2330 1.387 . S
C2330 H2315 0.930 . S
C2330 C2325 1.390 . S
C2330 C2329 1.387 . S
H2331 C2343 0.930 . S
H2332 C2345 0.930 . S
H2333 C2346 0.930 . S
H2334 C2350 0.959 . S
H2335 C2350 0.959 . S
H2336 C2350 0.961 . S
H2337 C2351 0.960 . S
H2338 C2351 0.961 . S
H2339 C2351 0.959 . S
H2340 C2354 0.929 . S
H2341 C2355 0.931 . S
H2342 C2357 0.930 . S
C2343 H2331 0.930 . S
C2343 C2344 1.399 . S
C2343 C2348 1.399 . S
C2344 C2343 1.399 . S
C2344 C2345 1.376 . S
C2345 H2332 0.930 . S
C2345 C2344 1.376 . S
C2345 C2346 1.388 . S
C2346 H2333 0.930 . S
C2346 C2345 1.388 . S
C2346 C2347 1.390 . S
C2347 C2346 1.390 . S
C2347 C2348 1.394 . S
C2347 C2353 1.465 . S
C2348 C2343 1.399 . S
C2348 C2347 1.394 . S
C2348 C2349 1.516 . S
C2349 C2348 1.516 . S
C2349 C2350 1.502 . S
C2349 C2351 1.561 . S
C2349 C2352 1.526 . S
C2350 H2334 0.959 . S
C2350 H2335 0.959 . S
C2350 H2336 0.961 . S
C2350 C2349 1.502 . S
C2351 H2337 0.960 . S
C2351 H2338 0.961 . S
C2351 H2339 0.959 . S
C2351 C2349 1.561 . S
C2352 C2349 1.526 . S
C2352 C2353 1.396 . S
C2352 C2357 1.390 . S
C2353 C2347 1.465 . S
C2353 C2352 1.396 . S
C2353 C2354 1.399 . S
C2354 H2340 0.929 . S
C2354 C2353 1.399 . S
C2354 C2355 1.385 . S
C2355 H2341 0.931 . S
C2355 C2354 1.385 . S
C2355 C2356 1.389 . S
C2356 C2355 1.389 . S
C2356 C2357 1.387 . S
C2357 H2342 0.930 . S
C2357 C2352 1.390 . S
C2357 C2356 1.387 . S
H2358 C2370 0.930 . S
H2359 C2372 0.930 . S
H2360 C2373 0.930 . S
H2361 C2377 0.959 . S
H2362 C2377 0.959 . S
H2363 C2377 0.961 . S
H2364 C2378 0.960 . S
H2365 C2378 0.961 . S
H2366 C2378 0.959 . S
H2367 C2381 0.929 . S
H2368 C2382 0.931 . S
H2369 C2384 0.930 . S
C2370 H2358 0.930 . S
C2370 C2371 1.399 . S
C2370 C2375 1.399 . S
C2371 C2370 1.399 . S
C2371 C2372 1.376 . S
C2372 H2359 0.930 . S
C2372 C2371 1.376 . S
C2372 C2373 1.388 . S
C2373 H2360 0.930 . S
C2373 C2372 1.388 . S
C2373 C2374 1.390 . S
C2374 C2373 1.390 . S
C2374 C2375 1.394 . S
C2374 C2380 1.465 . S
C2375 C2370 1.399 . S
C2375 C2374 1.394 . S
C2375 C2376 1.516 . S
C2376 C2375 1.516 . S
C2376 C2377 1.502 . S
C2376 C2378 1.561 . S
C2376 C2379 1.526 . S
C2377 H2361 0.959 . S
C2377 H2362 0.959 . S
C2377 H2363 0.961 . S
C2377 C2376 1.502 . S
C2378 H2364 0.960 . S
C2378 H2365 0.961 . S
C2378 H2366 0.959 . S
C2378 C2376 1.561 . S
C2379 C2376 1.526 . S
C2379 C2380 1.396 . S
C2379 C2384 1.390 . S
C2380 C2374 1.465 . S
C2380 C2379 1.396 . S
C2380 C2381 1.399 . S
C2381 H2367 0.929 . S
C2381 C2380 1.399 . S
C2381 C2382 1.385 . S
C2382 H2368 0.931 . S
C2382 C2381 1.385 . S
C2382 C2383 1.389 . S
C2383 C2382 1.389 . S
C2383 C2384 1.387 . S
C2384 H2369 0.930 . S
C2384 C2379 1.390 . S
C2384 C2383 1.387 . S
H2385 C2397 0.930 . S
H2386 C2399 0.930 . S
H2387 C2400 0.930 . S
H2388 C2404 0.959 . S
H2389 C2404 0.959 . S
H2390 C2404 0.961 . S
H2391 C2405 0.960 . S
H2392 C2405 0.961 . S
H2393 C2405 0.959 . S
H2394 C2408 0.929 . S
H2395 C2409 0.931 . S
H2396 C2411 0.930 . S
C2397 H2385 0.930 . S
C2397 C2398 1.399 . S
C2397 C2402 1.399 . S
C2398 C2397 1.399 . S
C2398 C2399 1.376 . S
C2399 H2386 0.930 . S
C2399 C2398 1.376 . S
C2399 C2400 1.388 . S
C2400 H2387 0.930 . S
C2400 C2399 1.388 . S
C2400 C2401 1.390 . S
C2401 C2400 1.390 . S
C2401 C2402 1.394 . S
C2401 C2407 1.465 . S
C2402 C2397 1.399 . S
C2402 C2401 1.394 . S
C2402 C2403 1.516 . S
C2403 C2402 1.516 . S
C2403 C2404 1.502 . S
C2403 C2405 1.561 . S
C2403 C2406 1.526 . S
C2404 H2388 0.959 . S
C2404 H2389 0.959 . S
C2404 H2390 0.961 . S
C2404 C2403 1.502 . S
C2405 H2391 0.960 . S
C2405 H2392 0.961 . S
C2405 H2393 0.959 . S
C2405 C2403 1.561 . S
C2406 C2403 1.526 . S
C2406 C2407 1.396 . S
C2406 C2411 1.390 . S
C2407 C2401 1.465 . S
C2407 C2406 1.396 . S
C2407 C2408 1.399 . S
C2408 H2394 0.929 . S
C2408 C2407 1.399 . S
C2408 C2409 1.385 . S
C2409 H2395 0.931 . S
C2409 C2408 1.385 . S
C2409 C2410 1.389 . S
C2410 C2409 1.389 . S
C2410 C2411 1.387 . S
C2411 H2396 0.930 . S
C2411 C2406 1.390 . S
C2411 C2410 1.387 . S
H2412 C2424 0.930 . S
H2413 C2426 0.930 . S
H2414 C2427 0.930 . S
H2415 C2431 0.959 . S
H2416 C2431 0.959 . S
H2417 C2431 0.961 . S
H2418 C2432 0.960 . S
H2419 C2432 0.961 . S
H2420 C2432 0.959 . S
H2421 C2435 0.929 . S
H2422 C2436 0.931 . S
H2423 C2438 0.930 . S
C2424 H2412 0.930 . S
C2424 C2425 1.399 . S
C2424 C2429 1.399 . S
C2425 C2424 1.399 . S
C2425 C2426 1.376 . S
C2426 H2413 0.930 . S
C2426 C2425 1.376 . S
C2426 C2427 1.388 . S
C2427 H2414 0.930 . S
C2427 C2426 1.388 . S
C2427 C2428 1.390 . S
C2428 C2427 1.390 . S
C2428 C2429 1.394 . S
C2428 C2434 1.465 . S
C2429 C2424 1.399 . S
C2429 C2428 1.394 . S
C2429 C2430 1.516 . S
C2430 C2429 1.516 . S
C2430 C2431 1.502 . S
C2430 C2432 1.561 . S
C2430 C2433 1.526 . S
C2431 H2415 0.959 . S
C2431 H2416 0.959 . S
C2431 H2417 0.961 . S
C2431 C2430 1.502 . S
C2432 H2418 0.960 . S
C2432 H2419 0.961 . S
C2432 H2420 0.959 . S
C2432 C2430 1.561 . S
C2433 C2430 1.526 . S
C2433 C2434 1.396 . S
C2433 C2438 1.390 . S
C2434 C2428 1.465 . S
C2434 C2433 1.396 . S
C2434 C2435 1.399 . S
C2435 H2421 0.929 . S
C2435 C2434 1.399 . S
C2435 C2436 1.385 . S
C2436 H2422 0.931 . S
C2436 C2435 1.385 . S
C2436 C2437 1.389 . S
C2437 C2436 1.389 . S
C2437 C2438 1.387 . S
C2438 H2423 0.930 . S
C2438 C2433 1.390 . S
C2438 C2437 1.387 . S
H2439 C2451 0.930 . S
H2440 C2453 0.930 . S
H2441 C2454 0.930 . S
H2442 C2458 0.959 . S
H2443 C2458 0.959 . S
H2444 C2458 0.961 . S
H2445 C2459 0.960 . S
H2446 C2459 0.961 . S
H2447 C2459 0.959 . S
H2448 C2462 0.929 . S
H2449 C2463 0.931 . S
H2450 C2465 0.930 . S
C2451 H2439 0.930 . S
C2451 C2452 1.399 . S
C2451 C2456 1.399 . S
C2452 C2451 1.399 . S
C2452 C2453 1.376 . S
C2453 H2440 0.930 . S
C2453 C2452 1.376 . S
C2453 C2454 1.388 . S
C2454 H2441 0.930 . S
C2454 C2453 1.388 . S
C2454 C2455 1.390 . S
C2455 C2454 1.390 . S
C2455 C2456 1.394 . S
C2455 C2461 1.465 . S
C2456 C2451 1.399 . S
C2456 C2455 1.394 . S
C2456 C2457 1.516 . S
C2457 C2456 1.516 . S
C2457 C2458 1.502 . S
C2457 C2459 1.561 . S
C2457 C2460 1.526 . S
C2458 H2442 0.959 . S
C2458 H2443 0.959 . S
C2458 H2444 0.961 . S
C2458 C2457 1.502 . S
C2459 H2445 0.960 . S
C2459 H2446 0.961 . S
C2459 H2447 0.959 . S
C2459 C2457 1.561 . S
C2460 C2457 1.526 . S
C2460 C2461 1.396 . S
C2460 C2465 1.390 . S
C2461 C2455 1.465 . S
C2461 C2460 1.396 . S
C2461 C2462 1.399 . S
C2462 H2448 0.929 . S
C2462 C2461 1.399 . S
C2462 C2463 1.385 . S
C2463 H2449 0.931 . S
C2463 C2462 1.385 . S
C2463 C2464 1.389 . S
C2464 C2463 1.389 . S
C2464 C2465 1.387 . S
C2465 H2450 0.930 . S
C2465 C2460 1.390 . S
C2465 C2464 1.387 . S
H2466 C2478 0.930 . S
H2467 C2480 0.930 . S
H2468 C2481 0.930 . S
H2469 C2485 0.959 . S
H2470 C2485 0.959 . S
H2471 C2485 0.961 . S
H2472 C2486 0.960 . S
H2473 C2486 0.961 . S
H2474 C2486 0.959 . S
H2475 C2489 0.929 . S
H2476 C2490 0.931 . S
H2477 C2492 0.930 . S
C2478 H2466 0.930 . S
C2478 C2479 1.399 . S
C2478 C2483 1.399 . S
C2479 C2478 1.399 . S
C2479 C2480 1.376 . S
C2480 H2467 0.930 . S
C2480 C2479 1.376 . S
C2480 C2481 1.388 . S
C2481 H2468 0.930 . S
C2481 C2480 1.388 . S
C2481 C2482 1.390 . S
C2482 C2481 1.390 . S
C2482 C2483 1.394 . S
C2482 C2488 1.465 . S
C2483 C2478 1.399 . S
C2483 C2482 1.394 . S
C2483 C2484 1.516 . S
C2484 C2483 1.516 . S
C2484 C2485 1.502 . S
C2484 C2486 1.561 . S
C2484 C2487 1.526 . S
C2485 H2469 0.959 . S
C2485 H2470 0.959 . S
C2485 H2471 0.961 . S
C2485 C2484 1.502 . S
C2486 H2472 0.960 . S
C2486 H2473 0.961 . S
C2486 H2474 0.959 . S
C2486 C2484 1.561 . S
C2487 C2484 1.526 . S
C2487 C2488 1.396 . S
C2487 C2492 1.390 . S
C2488 C2482 1.465 . S
C2488 C2487 1.396 . S
C2488 C2489 1.399 . S
C2489 H2475 0.929 . S
C2489 C2488 1.399 . S
C2489 C2490 1.385 . S
C2490 H2476 0.931 . S
C2490 C2489 1.385 . S
C2490 C2491 1.389 . S
C2491 C2490 1.389 . S
C2491 C2492 1.387 . S
C2492 H2477 0.930 . S
C2492 C2487 1.390 . S
C2492 C2491 1.387 . S
H2493 C2505 0.930 . S
H2494 C2507 0.930 . S
H2495 C2508 0.930 . S
H2496 C2512 0.959 . S
H2497 C2512 0.959 . S
H2498 C2512 0.961 . S
H2499 C2513 0.960 . S
H2500 C2513 0.961 . S
H2501 C2513 0.959 . S
H2502 C2516 0.929 . S
H2503 C2517 0.931 . S
H2504 C2519 0.930 . S
C2505 H2493 0.930 . S
C2505 C2506 1.399 . S
C2505 C2510 1.399 . S
C2506 C2505 1.399 . S
C2506 C2507 1.376 . S
C2507 H2494 0.930 . S
C2507 C2506 1.376 . S
C2507 C2508 1.388 . S
C2508 H2495 0.930 . S
C2508 C2507 1.388 . S
C2508 C2509 1.390 . S
C2509 C2508 1.390 . S
C2509 C2510 1.394 . S
C2509 C2515 1.465 . S
C2510 C2505 1.399 . S
C2510 C2509 1.394 . S
C2510 C2511 1.516 . S
C2511 C2510 1.516 . S
C2511 C2512 1.502 . S
C2511 C2513 1.561 . S
C2511 C2514 1.526 . S
C2512 H2496 0.959 . S
C2512 H2497 0.959 . S
C2512 H2498 0.961 . S
C2512 C2511 1.502 . S
C2513 H2499 0.960 . S
C2513 H2500 0.961 . S
C2513 H2501 0.959 . S
C2513 C2511 1.561 . S
C2514 C2511 1.526 . S
C2514 C2515 1.396 . S
C2514 C2519 1.390 . S
C2515 C2509 1.465 . S
C2515 C2514 1.396 . S
C2515 C2516 1.399 . S
C2516 H2502 0.929 . S
C2516 C2515 1.399 . S
C2516 C2517 1.385 . S
C2517 H2503 0.931 . S
C2517 C2516 1.385 . S
C2517 C2518 1.389 . S
C2518 C2517 1.389 . S
C2518 C2519 1.387 . S
C2519 H2504 0.930 . S
C2519 C2514 1.390 . S
C2519 C2518 1.387 . S
C1075 C528 1.681 . S
C1087 C714 1.659 . S
C1102 C562 1.820 . S
C1114 C754 1.798 . S
C1129 C484 1.741 . S
C1141 C784 1.723 . S
C1156 C445 1.565 . S
C1168 C744 1.591 . S
C1195 C794 1.494 . S
C1183 C367 1.495 . S
C1210 C411 1.421 . S
C1222 C704 1.438 1_556 S
C1249 C733 1.692 . S
C1237 C450 1.652 . S
C1276 C773 1.804 . S
C1264 C372 1.766 . S
C1291 C406 1.764 . S
C1303 C799 1.734 . S
C1318 C523 1.590 . S
C1330 C759 1.548 . S
C1345 C567 1.444 . S
C1357 C813 1.483 . S
C1384 C719 1.463 . S
C1372 C489 1.375 . S
C1411 C834 1.676 . S
C1399 C60 1.645 . S
C1426 C94 1.793 . S
C1438 C874 1.813 . S
C1453 C16 1.750 . S
C1465 C904 1.721 . S
C1480 C679 1.565 . S
C1492 C864 1.536 . S
C1507 C601 1.463 . S
C1519 C914 1.505 . S
C1534 C645 1.435 . S
C1546 C824 1.435 . S
C1561 C684 1.634 . S
C1573 C853 1.705 . S
C1588 C606 1.799 . S
C1600 C893 1.781 . S
C1627 C919 1.774 . S
C1615 C640 1.702 . S
C1642 C55 1.593 . S
C1654 C879 1.538 . S
C1681 C933 1.460 . S
C1669 C99 1.484 . S
C1696 C21 1.374 . S
C1708 C839 1.474 . S
C1735 C954 1.671 . S
C1723 C294 1.669 . S
C1750 C328 1.809 . S
C1762 C994 1.817 . S
C1789 C1024 1.774 . S
C1777 C250 1.738 . S
C1816 C984 1.536 . S
C1804 C211 1.566 . S
C1843 C1034 1.506 . S
C1831 C133 1.475 . S
C1858 C177 1.380 . S
C1870 C944 1.452 . S
C1885 C216 1.655 . S
C1897 C973 1.690 . S
C1912 C138 1.763 . S
C1924 C1013 1.804 . S
C1951 C1039 1.723 . S
C1939 C172 1.768 . S
C1966 C289 1.593 . S
C1978 C999 1.541 . S
C1993 C333 1.484 . S
C2005 C1053 1.462 . S
C2020 C255 1.417 . S
C2032 C959 1.431 . S
C2047 C586 1.337 . S
C2059 C731 1.329 . S
C2086 C771 1.825 . S
C2074 C625 1.857 . S
C2101 C664 1.548 . S
C2113 C790 1.580 . S
C2128 C235 1.833 . S
C2140 C750 1.861 . S
C2155 C274 1.544 . S
C2167 C811 1.572 . S
C2194 C710 1.327 . S
C2182 C313 1.320 . S
C2209 C118 1.337 . S
C2221 C851 1.329 . S
C2236 C157 1.842 . S
C2248 C891 1.851 . S
C2263 C196 1.548 . S
C2275 C910 1.579 . S
C2290 C469 1.872 . S
C2302 C870 1.849 . S
C2329 C931 1.550 . S
C2317 C508 1.557 . S
C2344 C547 1.335 . S
C2356 C830 1.307 . S
C2371 C352 1.335 . S
C2383 C971 1.336 . S
C2398 C391 1.842 . S
C2410 C1011 1.851 . S
C2437 C1030 1.579 . S
C2425 C430 1.548 . S
C2452 C1 1.833 . S
C2464 C990 1.861 . S
C2479 C40 1.557 . S
C2491 C1051 1.550 . S
C2506 C79 1.322 . S
C2518 C950 1.309 . S
