# Generated by pormake.
# Topology nom, (4,4)-cn, num edge types: 1
# Building blocks:
#     Node 0, Type 0, BuildingBlock: NAHDIM_clean_linker_0, # of connection points: 4
#     Node 1, Type 0, BuildingBlock: NAHDIM_clean_linker_0, # of connection points: 4
#     Node 2, Type 0, BuildingBlock: NAHDIM_clean_linker_0, # of connection points: 4
#     Node 3, Type 0, BuildingBlock: NAHDIM_clean_linker_0, # of connection points: 4
#     Node 4, Type 0, BuildingBlock: NAHDIM_clean_linker_0, # of connection points: 4
#     Node 5, Type 0, BuildingBlock: NAHDIM_clean_linker_0, # of connection points: 4
#     Node 6, Type 1, BuildingBlock: KUFVIS_clean_sbu_0, # of connection points: 4
#     Node 7, Type 1, BuildingBlock: KUFVIS_clean_sbu_0, # of connection points: 4
#     Node 8, Type 1, BuildingBlock: KUFVIS_clean_sbu_0, # of connection points: 4
#     Node 9, Type 1, BuildingBlock: KUFVIS_clean_sbu_0, # of connection points: 4
#     Node 10, Type 1, BuildingBlock: KUFVIS_clean_sbu_0, # of connection points: 4
#     Node 11, Type 1, BuildingBlock: KUFVIS_clean_sbu_0, # of connection points: 4
#     Edge 12, Type (0, 1), BuildingBlock: XIVTED_clean_linker_0, # of connection points: 2
#     Edge 13, Type (0, 1), BuildingBlock: XIVTED_clean_linker_0, # of connection points: 2
#     Edge 14, Type (0, 1), BuildingBlock: XIVTED_clean_linker_0, # of connection points: 2
#     Edge 15, Type (0, 1), BuildingBlock: XIVTED_clean_linker_0, # of connection points: 2
#     Edge 16, Type (0, 1), BuildingBlock: XIVTED_clean_linker_0, # of connection points: 2
#     Edge 17, Type (0, 1), BuildingBlock: XIVTED_clean_linker_0, # of connection points: 2
#     Edge 18, Type (0, 1), BuildingBlock: XIVTED_clean_linker_0, # of connection points: 2
#     Edge 19, Type (0, 1), BuildingBlock: XIVTED_clean_linker_0, # of connection points: 2
#     Edge 20, Type (0, 1), BuildingBlock: XIVTED_clean_linker_0, # of connection points: 2
#     Edge 21, Type (0, 1), BuildingBlock: XIVTED_clean_linker_0, # of connection points: 2
#     Edge 22, Type (0, 1), BuildingBlock: XIVTED_clean_linker_0, # of connection points: 2
#     Edge 23, Type (0, 1), BuildingBlock: XIVTED_clean_linker_0, # of connection points: 2
#     Edge 24, Type (0, 1), BuildingBlock: XIVTED_clean_linker_0, # of connection points: 2
#     Edge 25, Type (0, 1), BuildingBlock: XIVTED_clean_linker_0, # of connection points: 2
#     Edge 26, Type (0, 1), BuildingBlock: XIVTED_clean_linker_0, # of connection points: 2
#     Edge 27, Type (0, 1), BuildingBlock: XIVTED_clean_linker_0, # of connection points: 2
#     Edge 28, Type (0, 1), BuildingBlock: XIVTED_clean_linker_0, # of connection points: 2
#     Edge 29, Type (0, 1), BuildingBlock: XIVTED_clean_linker_0, # of connection points: 2
#     Edge 30, Type (0, 1), BuildingBlock: XIVTED_clean_linker_0, # of connection points: 2
#     Edge 31, Type (0, 1), BuildingBlock: XIVTED_clean_linker_0, # of connection points: 2
#     Edge 32, Type (0, 1), BuildingBlock: XIVTED_clean_linker_0, # of connection points: 2
#     Edge 33, Type (0, 1), BuildingBlock: XIVTED_clean_linker_0, # of connection points: 2
#     Edge 34, Type (0, 1), BuildingBlock: XIVTED_clean_linker_0, # of connection points: 2
#     Edge 35, Type (0, 1), BuildingBlock: XIVTED_clean_linker_0, # of connection points: 2
# Relax obj value: 0.043
# Max RMSD: 0.131
# Mean RMSD: 0.094
data_MOF--net-nom--node1-KUFVIS_clean_sbu_0--node2-NAHDIM_clean_linker_0--edge1-XIVTED_clean_linker_0
_symmetry_space_group_name_H-M    P1
_symmetry_Int_Tables_number       1
_symmetry_cell_setting            triclinic
loop_
_symmetry_equiv_pos_as_xyz
'x, y, z'
_cell_length_a     57.582712
_cell_length_b     58.293791
_cell_length_c     70.377302
_cell_angle_alpha  90.784397
_cell_angle_beta   90.828249
_cell_angle_gamma 120.00671
loop_
_atom_site_label
_atom_site_type_symbol
_atom_site_fract_x
_atom_site_fract_y
_atom_site_fract_z
_atom_type_partial_charge
C0 C 0.14689 0.62401 0.24084 0.0
C1 C 0.16381 0.61984 0.25599 0.0
C2 C 0.13032 0.60147 0.28026 0.0
C3 C 0.12379 0.57492 0.28097 0.0
C4 C 0.09824 0.55531 0.28653 0.0
C5 C 0.07875 0.56246 0.29103 0.0
C6 C 0.08563 0.58944 0.2907 0.0
C7 C 0.11163 0.60869 0.28573 0.0
C8 C 0.09193 0.52691 0.28719 0.0
C9 C 0.06532 0.59791 0.29487 0.0
C10 C 0.98096 0.44847 0.18371 0.0
C11 C 0.96801 0.46266 0.19357 0.0
C12 C 0.96992 0.46535 0.22812 0.0
C13 C 0.97374 0.49081 0.2313 0.0
C14 C 0.98515 0.50465 0.24852 0.0
C15 C 0.9932 0.49283 0.26268 0.0
C16 C 0.98873 0.46684 0.25961 0.0
C17 C 0.97658 0.45323 0.24247 0.0
C18 C 0.98897 0.53202 0.25147 0.0
C19 C 0.99748 0.45371 0.27415 0.0
C20 C 0.87526 0.43706 0.35344 0.0
C21 C 0.88528 0.46434 0.35146 0.0
C22 C 0.91301 0.48219 0.35193 0.0
C23 C 0.93098 0.47254 0.35455 0.0
C24 C 0.92088 0.44531 0.3578 0.0
C25 C 0.89305 0.42791 0.35733 0.0
C26 C 0.92315 0.51125 0.34899 0.0
C27 C 0.93952 0.43447 0.36098 0.0
C28 C 0.11218 0.61609 0.42147 0.0
C29 C 0.09931 0.58757 0.42826 0.0
C30 C 0.05402 0.56239 0.41551 0.0
C31 C 0.03718 0.57083 0.4078 0.0
C32 C 0.02011 0.5573 0.39215 0.0
C33 C 0.01952 0.53442 0.38449 0.0
C34 C 0.03534 0.52488 0.39309 0.0
C35 C 0.05262 0.53913 0.40846 0.0
C36 C 0.00335 0.56788 0.38344 0.0
C37 C 0.03449 0.50002 0.38575 0.0
C38 C 0.05061 0.54159 0.29434 0.0
C39 C 0.03495 0.52719 0.27848 0.0
C40 C 0.00788 0.50822 0.28011 0.0
C41 C 0.99573 0.50386 0.29801 0.0
C42 C 0.96822 0.486 0.29999 0.0
C43 C 0.95651 0.48163 0.31771 0.0
C44 C 0.9719 0.49489 0.33415 0.0
C45 C 0.96018 0.49051 0.35223 0.0
C46 C 0.97612 0.50357 0.36834 0.0
C47 C 0.00359 0.52136 0.36685 0.0
C48 C 0.01557 0.5265 0.34882 0.0
C49 C 0.04303 0.54477 0.34674 0.0
C50 C 0.05461 0.54962 0.32895 0.0
C51 C 0.03917 0.53651 0.31254 0.0
C52 C 0.01154 0.5178 0.31432 0.0
C53 C 0.99967 0.51303 0.33245 0.0
C54 C 0.81618 0.39644 0.32671 0.0
C55 C 0.83045 0.42119 0.33965 0.0
O56 O 0.15434 0.62039 0.27391 0.0
O57 O 0.07185 0.57717 0.42955 0.0
O58 O 0.84871 0.41903 0.35147 0.0
O59 O 0.95982 0.45201 0.21136 0.0
H60 H 0.16233 0.6003 0.25324 0.0
H61 H 0.12563 0.60793 0.24132 0.0
H62 H 0.14782 0.64332 0.24334 0.0
H63 H 0.15415 0.6236 0.22637 0.0
H64 H 0.13864 0.56956 0.27715 0.0
H65 H 0.11709 0.62936 0.28521 0.0
H66 H 0.07887 0.51566 0.27477 0.0
H67 H 0.11036 0.52531 0.28678 0.0
H68 H 0.0809 0.51745 0.30025 0.0
H69 H 0.07288 0.61903 0.29156 0.0
H70 H 0.04647 0.58546 0.2865 0.0
H71 H 0.06037 0.59518 0.31014 0.0
H72 H 0.98354 0.48407 0.19482 0.0
H73 H 0.98824 0.45694 0.16952 0.0
H74 H 0.99839 0.451 0.1924 0.0
H75 H 0.96635 0.42693 0.18192 0.0
H76 H 0.96774 0.49981 0.22034 0.0
H77 H 0.97321 0.43341 0.23988 0.0
H78 H 0.01065 0.54691 0.25088 0.0
H79 H 0.97805 0.53672 0.24047 0.0
H80 H 0.98195 0.53391 0.26572 0.0
H81 H 0.99519 0.43469 0.2687 0.0
H82 H 0.01879 0.4671 0.2785 0.0
H83 H 0.98525 0.44965 0.28703 0.0
H84 H 0.84086 0.43814 0.32994 0.0
H85 H 0.87154 0.47172 0.34937 0.0
H86 H 0.88507 0.40688 0.35923 0.0
H87 H 0.9339 0.51724 0.33538 0.0
H88 H 0.90666 0.51592 0.3486 0.0
H89 H 0.93769 0.52327 0.36057 0.0
H90 H 0.92852 0.41305 0.36424 0.0
H91 H 0.95144 0.43733 0.34806 0.0
H92 H 0.95384 0.44554 0.3729 0.0
H93 H 0.10377 0.57605 0.41761 0.0
H94 H 0.13422 0.62476 0.42032 0.0
H95 H 0.10378 0.61638 0.40722 0.0
H96 H 0.10815 0.62853 0.43148 0.0
H97 H 0.03826 0.58868 0.41358 0.0
H98 H 0.0652 0.5323 0.41491 0.0
H99 H 0.00793 0.57173 0.36815 0.0
H100 H 0.98176 0.55283 0.38435 0.0
H101 H 0.00689 0.58649 0.39063 0.0
H102 H 0.04518 0.49336 0.39549 0.0
H103 H 0.01337 0.48379 0.38378 0.0
H104 H 0.04402 0.50378 0.37167 0.0
H105 H 0.04398 0.53084 0.26461 0.0
H106 H 0.9554 0.47526 0.28785 0.0
H107 H 0.93524 0.46762 0.31834 0.0
H108 H 0.96701 0.49993 0.38217 0.0
H109 H 0.0559 0.55559 0.35883 0.0
H110 H 0.07584 0.56378 0.32821 0.0
H111 H 0.80605 0.37818 0.33518 0.0
H112 H 0.80106 0.39751 0.31735 0.0
H113 H 0.83105 0.39508 0.31759 0.0
C114 C 0.41796 0.87943 0.571 0.0
C115 C 0.42025 0.86327 0.55445 0.0
C116 C 0.43766 0.89844 0.53145 0.0
C117 C 0.46509 0.90673 0.53187 0.0
C118 C 0.48409 0.93249 0.52665 0.0
C119 C 0.47541 0.95039 0.52132 0.0
C120 C 0.44762 0.94182 0.52064 0.0
C121 C 0.42908 0.91567 0.52528 0.0
C122 C 0.51345 0.94072 0.52718 0.0
C123 C 0.43746 0.96042 0.51564 0.0
C124 C 0.552 0.09099 0.63483 0.0
C125 C 0.53951 0.07175 0.61869 0.0
C126 C 0.54891 0.06389 0.58632 0.0
C127 C 0.52287 0.05452 0.5788 0.0
C128 C 0.51536 0.04236 0.56072 0.0
C129 C 0.53385 0.03837 0.55019 0.0
C130 C 0.5601 0.04774 0.55767 0.0
C131 C 0.56747 0.06099 0.57548 0.0
C132 C 0.48731 0.03317 0.55313 0.0
C133 C 0.58007 0.04303 0.54718 0.0
C134 C 0.5955 0.15053 0.45138 0.0
C135 C 0.56951 0.14133 0.45796 0.0
C136 C 0.55187 0.11411 0.46014 0.0
C137 C 0.56076 0.09591 0.45612 0.0
C138 C 0.58681 0.10521 0.44905 0.0
C139 C 0.60368 0.13244 0.44647 0.0
C140 C 0.52381 0.10486 0.46679 0.0
C141 C 0.59696 0.08644 0.44445 0.0
C142 C 0.41823 0.91393 0.39241 0.0
C143 C 0.44662 0.92742 0.38464 0.0
C144 C 0.47111 0.97232 0.39713 0.0
C145 C 0.46169 0.98795 0.40533 0.0
C146 C 0.47555 0.00521 0.42075 0.0
C147 C 0.49975 0.00725 0.42767 0.0
C148 C 0.51018 0.99263 0.41858 0.0
C149 C 0.49557 0.9751 0.40346 0.0
C150 C 0.46394 0.02062 0.43003 0.0
C151 C 0.53637 0.99502 0.42515 0.0
C152 C 0.49537 0.97857 0.51796 0.0
C153 C 0.50778 0.99497 0.53389 0.0
C154 C 0.5246 0.02228 0.53225 0.0
C155 C 0.52982 0.03365 0.51407 0.0
C156 C 0.54649 0.06105 0.51182 0.0
C157 C 0.55129 0.07201 0.49385 0.0
C158 C 0.53892 0.05611 0.47748 0.0
C159 C 0.5429 0.06715 0.45919 0.0
C160 C 0.52999 0.05075 0.44329 0.0
C161 C 0.51326 0.02346 0.44506 0.0
C162 C 0.5092 0.01201 0.46317 0.0
C163 C 0.49252 0.98457 0.46543 0.0
C164 C 0.48845 0.9735 0.4833 0.0
C165 C 0.50042 0.98949 0.49966 0.0
C166 C 0.51761 0.01715 0.49772 0.0
C167 C 0.52199 0.02842 0.47944 0.0
C168 C 0.64761 0.20952 0.4694 0.0
C169 C 0.61806 0.19614 0.46317 0.0
O170 O 0.41904 0.87412 0.53729 0.0
O171 O 0.45613 0.95436 0.3833 0.0
O172 O 0.61299 0.17674 0.4495 0.0
O173 O 0.55669 0.07561 0.60391 0.0
H174 H 0.43965 0.86356 0.55591 0.0
H175 H 0.43485 0.90018 0.57091 0.0
H176 H 0.39878 0.87961 0.56977 0.0
H177 H 0.41884 0.87099 0.58486 0.0
H178 H 0.47167 0.89309 0.53617 0.0
H179 H 0.40778 0.9089 0.52495 0.0
H180 H 0.52355 0.95455 0.53946 0.0
H181 H 0.51659 0.9235 0.52862 0.0
H182 H 0.5232 0.95134 0.51406 0.0
H183 H 0.41584 0.95188 0.5187 0.0
H184 H 0.44902 0.97953 0.52366 0.0
H185 H 0.44015 0.9647 0.50027 0.0
H186 H 0.52673 0.05057 0.62247 0.0
H187 H 0.53042 0.11412 0.63418 0.0
H188 H 0.55133 0.07866 0.64726 0.0
H189 H 0.57449 0.10085 0.63339 0.0
H190 H 0.50819 0.05662 0.58685 0.0
H191 H 0.58752 0.06828 0.58135 0.0
H192 H 0.4876 0.03782 0.53786 0.0
H193 H 0.47494 0.01135 0.55444 0.0
H194 H 0.47746 0.04243 0.56109 0.0
H195 H 0.59885 0.04959 0.55567 0.0
H196 H 0.5711 0.02163 0.54348 0.0
H197 H 0.58523 0.05396 0.53369 0.0
H198 H 0.60604 0.18717 0.47606 0.0
H199 H 0.56299 0.15543 0.4612 0.0
H200 H 0.6237 0.13984 0.44114 0.0
H201 H 0.52194 0.09792 0.48158 0.0
H202 H 0.51874 0.12091 0.46648 0.0
H203 H 0.50893 0.08793 0.45776 0.0
H204 H 0.61858 0.09708 0.44101 0.0
H205 H 0.59387 0.07338 0.45663 0.0
H206 H 0.5854 0.07358 0.43205 0.0
H207 H 0.45946 0.92374 0.39471 0.0
H208 H 0.41029 0.89229 0.39365 0.0
H209 H 0.41855 0.92227 0.40676 0.0
H210 H 0.40457 0.91715 0.38293 0.0
H211 H 0.44288 0.98579 0.4001 0.0
H212 H 0.50308 0.96341 0.39664 0.0
H213 H 0.4608 0.01589 0.44534 0.0
H214 H 0.4783 0.04218 0.4291 0.0
H215 H 0.44453 0.0162 0.42329 0.0
H216 H 0.54338 0.985 0.41513 0.0
H217 H 0.55209 0.01622 0.42677 0.0
H218 H 0.53384 0.98593 0.43928 0.0
H219 H 0.50335 0.9865 0.54792 0.0
H220 H 0.5561 0.07433 0.52393 0.0
H221 H 0.56457 0.09319 0.49299 0.0
H222 H 0.53299 0.05935 0.42934 0.0
H223 H 0.48238 0.97129 0.45341 0.0
H224 H 0.47554 0.95226 0.48417 0.0
H225 H 0.66076 0.21894 0.45713 0.0
H226 H 0.65219 0.22487 0.48064 0.0
H227 H 0.65213 0.19454 0.47526 0.0
C228 C 0.61143 0.45156 0.72301 0.0
C229 C 0.59768 0.4327 0.70585 0.0
C230 C 0.56232 0.44295 0.69705 0.0
C231 C 0.57945 0.46825 0.6899 0.0
C232 C 0.56941 0.48476 0.6844 0.0
C233 C 0.5417 0.4757 0.68587 0.0
C234 C 0.52426 0.44987 0.69229 0.0
C235 C 0.53485 0.43384 0.6978 0.0
C236 C 0.58851 0.51219 0.67753 0.0
C237 C 0.49455 0.4395 0.69381 0.0
C238 C 0.55535 0.5844 0.7937 0.0
C239 C 0.52887 0.57035 0.78228 0.0
C240 C 0.52803 0.5693 0.74771 0.0
C241 C 0.50588 0.54391 0.74435 0.0
C242 C 0.50274 0.53027 0.72706 0.0
C243 C 0.52229 0.54225 0.71297 0.0
C244 C 0.54405 0.56833 0.71605 0.0
C245 C 0.54633 0.58171 0.73332 0.0
C246 C 0.47894 0.50278 0.72407 0.0
C247 C 0.56543 0.58167 0.70145 0.0
C248 C 0.45531 0.59286 0.62133 0.0
C249 C 0.4378 0.56565 0.62366 0.0
C250 C 0.44739 0.54777 0.62329 0.0
C251 C 0.47498 0.55733 0.62042 0.0
C252 C 0.49225 0.58444 0.61671 0.0
C253 C 0.48208 0.60187 0.61708 0.0
C254 C 0.4283 0.51883 0.62669 0.0
C255 C 0.52165 0.59516 0.61323 0.0
C256 C 0.51074 0.41298 0.55512 0.0
C257 C 0.52624 0.44192 0.5492 0.0
C258 C 0.50614 0.46661 0.56165 0.0
C259 C 0.48089 0.45822 0.56912 0.0
C260 C 0.4778 0.47197 0.58451 0.0
C261 C 0.50049 0.49501 0.59214 0.0
C262 C 0.52581 0.50448 0.58377 0.0
C263 C 0.52839 0.49 0.56868 0.0
C264 C 0.45049 0.46145 0.59297 0.0
C265 C 0.55024 0.52952 0.59103 0.0
C266 C 0.53134 0.49402 0.68232 0.0
C267 C 0.53074 0.50891 0.69781 0.0
C268 C 0.52132 0.52667 0.69581 0.0
C269 C 0.51202 0.52965 0.67784 0.0
C270 C 0.50182 0.54686 0.6754 0.0
C271 C 0.49325 0.55007 0.65757 0.0
C272 C 0.49455 0.53617 0.64147 0.0
C273 C 0.48618 0.53955 0.62324 0.0
C274 C 0.48826 0.5259 0.60748 0.0
C275 C 0.4981 0.50843 0.60947 0.0
C276 C 0.50591 0.50424 0.62768 0.0
C277 C 0.51513 0.4862 0.6303 0.0
C278 C 0.5233 0.48266 0.64819 0.0
C279 C 0.52262 0.49706 0.66414 0.0
C280 C 0.51299 0.51502 0.6619 0.0
C281 C 0.50445 0.51846 0.64367 0.0
C282 C 0.44059 0.63418 0.64887 0.0
C283 C 0.42812 0.60933 0.63596 0.0
O284 O 0.57131 0.4269 0.70372 0.0
O285 O 0.50873 0.45168 0.54784 0.0
O286 O 0.44719 0.61096 0.62339 0.0
O287 O 0.5325 0.58212 0.76476 0.0
H288 H 0.60885 0.44222 0.69281 0.0
H289 H 0.61266 0.47092 0.72078 0.0
H290 H 0.60009 0.44305 0.73616 0.0
H291 H 0.6322 0.45524 0.72509 0.0
H292 H 0.60071 0.47556 0.68887 0.0
H293 H 0.52173 0.41423 0.70315 0.0
H294 H 0.58848 0.52721 0.6874 0.0
H295 H 0.60937 0.51599 0.67655 0.0
H296 H 0.58173 0.51491 0.66332 0.0
H297 H 0.4834 0.41828 0.69764 0.0
H298 H 0.49113 0.45124 0.70482 0.0
H299 H 0.48627 0.44188 0.68011 0.0
H300 H 0.52367 0.54926 0.78054 0.0
H301 H 0.553 0.57527 0.80782 0.0
H302 H 0.57104 0.58253 0.78597 0.0
H303 H 0.56219 0.60581 0.79578 0.0
H304 H 0.49118 0.53469 0.75529 0.0
H305 H 0.56314 0.60148 0.73602 0.0
H306 H 0.48579 0.48808 0.72474 0.0
H307 H 0.46354 0.49794 0.73501 0.0
H308 H 0.46957 0.50078 0.70978 0.0
H309 H 0.58186 0.60138 0.70652 0.0
H310 H 0.57415 0.569 0.69779 0.0
H311 H 0.55639 0.58433 0.68823 0.0
H312 H 0.42197 0.59241 0.64566 0.0
H313 H 0.41673 0.55839 0.62602 0.0
H314 H 0.49529 0.62283 0.61489 0.0
H315 H 0.43358 0.51333 0.64047 0.0
H316 H 0.40709 0.51414 0.62704 0.0
H317 H 0.43021 0.50644 0.61539 0.0
H318 H 0.53208 0.61639 0.60945 0.0
H319 H 0.53149 0.59295 0.62621 0.0
H320 H 0.52409 0.58356 0.60157 0.0
H321 H 0.54206 0.45309 0.56036 0.0
H322 H 0.52445 0.40479 0.55638 0.0
H323 H 0.50162 0.41162 0.56916 0.0
H324 H 0.49447 0.40078 0.54456 0.0
H325 H 0.46381 0.44027 0.56336 0.0
H326 H 0.54777 0.49681 0.56239 0.0
H327 H 0.45155 0.45811 0.60838 0.0
H328 H 0.44394 0.47633 0.59154 0.0
H329 H 0.43513 0.44258 0.58596 0.0
H330 H 0.56737 0.53621 0.58132 0.0
H331 H 0.54547 0.54566 0.59286 0.0
H332 H 0.55654 0.52598 0.60515 0.0
H333 H 0.53787 0.50674 0.71167 0.0
H334 H 0.50042 0.55811 0.68726 0.0
H335 H 0.48574 0.56373 0.65657 0.0
H336 H 0.48214 0.52889 0.59351 0.0
H337 H 0.51616 0.47461 0.61853 0.0
H338 H 0.53032 0.46862 0.64936 0.0
H339 H 0.44866 0.65244 0.64041 0.0
H340 H 0.42543 0.63361 0.65873 0.0
H341 H 0.45738 0.63509 0.65747 0.0
C342 C 0.17443 0.59845 0.90083 0.0
C343 C 0.17646 0.58797 0.88118 0.0
C344 C 0.12954 0.55465 0.87287 0.0
C345 C 0.12039 0.57262 0.86969 0.0
C346 C 0.09342 0.56351 0.86469 0.0
C347 C 0.07533 0.53597 0.86271 0.0
C348 C 0.08449 0.51786 0.86579 0.0
C349 C 0.11151 0.52749 0.87085 0.0
C350 C 0.08419 0.58328 0.86153 0.0
C351 C 0.06573 0.48835 0.86372 0.0
C352 C 0.9071 0.43747 0.9552 0.0
C353 C 0.92196 0.44251 0.93738 0.0
C354 C 0.94958 0.47777 0.91585 0.0
C355 C 0.95176 0.46075 0.90253 0.0
C356 C 0.96835 0.47084 0.88685 0.0
C357 C 0.98245 0.4985 0.884 0.0
C358 C 0.97963 0.51565 0.89698 0.0
C359 C 0.96329 0.50503 0.91281 0.0
C360 C 0.97115 0.45181 0.87356 0.0
C361 C 0.99412 0.54519 0.89426 0.0
C362 C 0.88029 0.46275 0.77799 0.0
C363 C 0.88843 0.4458 0.78569 0.0
C364 C 0.91569 0.45478 0.78946 0.0
C365 C 0.93498 0.48157 0.78608 0.0
C366 C 0.92672 0.49849 0.77792 0.0
C367 C 0.89944 0.48863 0.77362 0.0
C368 C 0.92375 0.43566 0.79718 0.0
C369 C 0.94658 0.52711 0.77403 0.0
C370 C 0.12723 0.53559 0.7378 0.0
C371 C 0.11048 0.54362 0.72545 0.0
C372 C 0.06504 0.51915 0.73706 0.0
C373 C 0.04932 0.49388 0.7443 0.0
C374 C 0.03044 0.48921 0.75829 0.0
C375 C 0.0269 0.51031 0.76482 0.0
C376 C 0.04168 0.53558 0.75673 0.0
C377 C 0.06065 0.53975 0.74291 0.0
C378 C 0.01483 0.46198 0.76651 0.0
C379 C 0.03779 0.55827 0.76298 0.0
C380 C 0.0468 0.52606 0.85737 0.0
C381 C 0.02848 0.51945 0.87197 0.0
C382 C 0.00117 0.5093 0.86797 0.0
C383 C 0.99194 0.50658 0.84889 0.0
C384 C 0.96492 0.49797 0.84438 0.0
C385 C 0.95573 0.49391 0.82555 0.0
C386 C 0.97311 0.49772 0.81054 0.0
C387 C 0.96368 0.49207 0.79139 0.0
C388 C 0.98163 0.49634 0.77686 0.0
C389 C 0.00891 0.50633 0.78086 0.0
C390 C 0.01869 0.51203 0.79989 0.0
C391 C 0.04601 0.522 0.80442 0.0
C392 C 0.05536 0.52704 0.8232 0.0
C393 C 0.0377 0.522 0.8382 0.0
C394 C 0.01015 0.51224 0.83396 0.0
C395 C 0.00066 0.50744 0.81477 0.0
C396 C 0.81965 0.45794 0.78999 0.0
C397 C 0.83397 0.44199 0.7876 0.0
O398 O 0.15534 0.56239 0.87802 0.0
O399 O 0.08412 0.52302 0.72438 0.0
O400 O 0.85405 0.45454 0.77453 0.0
O401 O 0.9349 0.46867 0.93182 0.0
H402 H 0.17614 0.60115 0.87003 0.0
H403 H 0.15561 0.59921 0.90178 0.0
H404 H 0.17454 0.58541 0.91216 0.0
H405 H 0.19155 0.61883 0.90344 0.0
H406 H 0.134 0.59372 0.87114 0.0
H407 H 0.11872 0.51378 0.87331 0.0
H408 H 0.06762 0.57929 0.87125 0.0
H409 H 0.1006 0.60407 0.86395 0.0
H410 H 0.0762 0.58105 0.84675 0.0
H411 H 0.07613 0.4769 0.86621 0.0
H412 H 0.0493 0.48203 0.874 0.0
H413 H 0.05642 0.48337 0.84923 0.0
H414 H 0.93434 0.43273 0.93627 0.0
H415 H 0.91736 0.43038 0.96539 0.0
H416 H 0.91475 0.45725 0.9628 0.0
H417 H 0.86415 0.41235 0.94563 0.0
H418 H 0.94085 0.43954 0.90437 0.0
H419 H 0.96138 0.51803 0.92303 0.0
H420 H 0.96102 0.45055 0.85974 0.0
H421 H 0.99262 0.45897 0.87081 0.0
H422 H 0.96206 0.43154 0.87931 0.0
H423 H 0.98722 0.55543 0.90417 0.0
H424 H 0.01598 0.55338 0.89674 0.0
H425 H 0.9911 0.5496 0.87942 0.0
H426 H 0.84272 0.4417 0.80178 0.0
H427 H 0.87346 0.42551 0.78857 0.0
H428 H 0.89282 0.50138 0.76744 0.0
H429 H 0.92825 0.43955 0.81265 0.0
H430 H 0.90753 0.41473 0.79506 0.0
H431 H 0.94211 0.4383 0.79025 0.0
H432 H 0.93653 0.53839 0.76988 0.0
H433 H 0.95958 0.5369 0.7868 0.0
H434 H 0.95972 0.52807 0.76232 0.0
H435 H 0.11177 0.56159 0.73221 0.0
H436 H 0.14849 0.55182 0.73862 0.0
H437 H 0.11941 0.53163 0.75244 0.0
H438 H 0.12632 0.51736 0.7319 0.0
H439 H 0.05257 0.47802 0.7394 0.0
H440 H 0.07193 0.55905 0.73666 0.0
H441 H 0.01917 0.46315 0.78203 0.0
H442 H 0.99299 0.45436 0.76454 0.0
H443 H 0.01979 0.44764 0.75981 0.0
H444 H 0.04924 0.57609 0.75426 0.0
H445 H 0.01618 0.55215 0.76205 0.0
H446 H 0.04448 0.56368 0.77806 0.0
H447 H 0.03546 0.52141 0.88663 0.0
H448 H 0.95057 0.49423 0.85539 0.0
H449 H 0.93472 0.4873 0.82295 0.0
H450 H 0.97429 0.49182 0.76222 0.0
H451 H 0.0605 0.52591 0.7935 0.0
H452 H 0.07656 0.5346 0.82581 0.0
H453 H 0.81001 0.45846 0.77632 0.0
H454 H 0.80409 0.44916 0.80097 0.0
H455 H 0.83436 0.4786 0.7946 0.0
C456 C 0.47897 0.88184 0.90663 0.0
C457 C 0.45651 0.86666 0.92074 0.0
C458 C 0.4713 0.90162 0.94484 0.0
C459 C 0.4531 0.91069 0.94221 0.0
C460 C 0.46021 0.93676 0.94742 0.0
C461 C 0.48623 0.95417 0.95507 0.0
C462 C 0.50446 0.94482 0.958 0.0
C463 C 0.49645 0.9184 0.95324 0.0
C464 C 0.44008 0.94583 0.94442 0.0
C465 C 0.53268 0.96286 0.96559 0.0
C466 C 0.5839 0.11458 0.85596 0.0
C467 C 0.57861 0.09834 0.87301 0.0
C468 C 0.54343 0.07281 0.8954 0.0
C469 C 0.56067 0.07023 0.90846 0.0
C470 C 0.55067 0.05525 0.92482 0.0
C471 C 0.52291 0.04287 0.9284 0.0
C472 C 0.50554 0.04573 0.91548 0.0
C473 C 0.51607 0.06069 0.8991 0.0
C474 C 0.56981 0.05243 0.9382 0.0
C475 C 0.47588 0.03285 0.91893 0.0
C476 C 0.56091 0.15543 0.02772 0.0
C477 C 0.57763 0.14593 0.02153 0.0
C478 C 0.5678 0.11858 0.01939 0.0
C479 C 0.54044 0.10052 0.02293 0.0
C480 C 0.52376 0.11019 0.02958 0.0
C481 C 0.53443 0.13758 0.03223 0.0
C482 C 0.58665 0.1091 0.01325 0.0
C483 C 0.49458 0.09168 0.03364 0.0
C484 C 0.54224 0.98984 0.11874 0.0
C485 C 0.52119 0.96457 0.10814 0.0
C486 C 0.50593 0.98311 0.08277 0.0
C487 C 0.52904 0.99283 0.07176 0.0
C488 C 0.53185 0.0076 0.0555 0.0
C489 C 0.5111 0.01263 0.05005 0.0
C490 C 0.48775 0.00274 0.06098 0.0
C491 C 0.48547 0.98804 0.07718 0.0
C492 C 0.55703 0.01785 0.04413 0.0
C493 C 0.46525 0.0077 0.05551 0.0
C494 C 0.49498 0.98253 0.95875 0.0
C495 C 0.50221 0.99904 0.9431 0.0
C496 C 0.51219 0.02625 0.94538 0.0
C497 C 0.51466 0.03742 0.96376 0.0
C498 C 0.52385 0.06458 0.9665 0.0
C499 C 0.5278 0.0757 0.98471 0.0
C500 C 0.5233 0.06019 0.00087 0.0
C501 C 0.52911 0.07161 0.01944 0.0
C502 C 0.52455 0.05553 0.03513 0.0
C503 C 0.51391 0.02819 0.03284 0.0
C504 C 0.50755 0.01637 0.01443 0.0
C505 C 0.49628 0.98885 0.01164 0.0
C506 C 0.49136 0.97758 0.99342 0.0
C507 C 0.49798 0.99346 0.9773 0.0
C508 C 0.50822 0.02108 0.9798 0.0
C509 C 0.51284 0.03253 0.99838 0.0
C510 C 0.56702 0.21291 0.01033 0.0
C511 C 0.58387 0.20044 0.01621 0.0
O512 O 0.46536 0.87699 0.93899 0.0
O513 O 0.50251 0.96912 0.09884 0.0
O514 O 0.56999 0.18173 0.0298 0.0
O515 O 0.55241 0.08657 0.87911 0.0
H516 H 0.43885 0.86857 0.9166 0.0
H517 H 0.48456 0.90305 0.90665 0.0
H518 H 0.49702 0.88053 0.91057 0.0
H519 H 0.47225 0.8737 0.89194 0.0
H520 H 0.43334 0.8974 0.93615 0.0
H521 H 0.51024 0.91104 0.95527 0.0
H522 H 0.44635 0.95966 0.9324 0.0
H523 H 0.41962 0.92901 0.94112 0.0
H524 H 0.43935 0.9567 0.95727 0.0
H525 H 0.54549 0.9537 0.96415 0.0
H526 H 0.54217 0.98189 0.958 0.0
H527 H 0.53211 0.96741 0.98087 0.0
H528 H 0.58719 0.08491 0.87291 0.0
H529 H 0.59011 0.10482 0.84472 0.0
H530 H 0.56374 0.10829 0.84897 0.0
H531 H 0.61184 0.15588 0.86686 0.0
H532 H 0.58195 0.07971 0.90596 0.0
H533 H 0.50291 0.06284 0.88902 0.0
H534 H 0.57083 0.06218 0.95209 0.0
H535 H 0.56246 0.03117 0.9408 0.0
H536 H 0.59041 0.06148 0.93259 0.0
H537 H 0.46536 0.03856 0.90829 0.0
H538 H 0.46683 0.01097 0.91832 0.0
H539 H 0.47256 0.03843 0.93337 0.0
H540 H 0.5866 0.19092 0.00324 0.0
H541 H 0.59841 0.15991 0.01861 0.0
H542 H 0.52188 0.14524 0.03728 0.0
H543 H 0.58269 0.10285 0.99803 0.0
H544 H 0.608 0.1249 0.01497 0.0
H545 H 0.58344 0.09172 0.02156 0.0
H546 H 0.48362 0.1025 0.03648 0.0
H547 H 0.48456 0.07761 0.02146 0.0
H548 H 0.49309 0.07988 0.04628 0.0
H549 H 0.53119 0.95814 0.09765 0.0
H550 H 0.55715 0.98618 0.12626 0.0
H551 H 0.55322 0.00607 0.10867 0.0
H552 H 0.53252 0.99647 0.12928 0.0
H553 H 0.54505 0.98912 0.07572 0.0
H554 H 0.4677 0.98046 0.0857 0.0
H555 H 0.55184 0.00861 0.02965 0.0
H556 H 0.56641 0.0396 0.04253 0.0
H557 H 0.57197 0.01352 0.05082 0.0
H558 H 0.44793 0.99776 0.06507 0.0
H559 H 0.4727 0.02934 0.05604 0.0
H560 H 0.45827 0.00053 0.04068 0.0
H561 H 0.50088 0.99071 0.92896 0.0
H562 H 0.52823 0.07757 0.95458 0.0
H563 H 0.53496 0.09674 0.98594 0.0
H564 H 0.52959 0.06447 0.04931 0.0
H565 H 0.49133 0.97574 0.02353 0.0
H566 H 0.4828 0.95632 0.99211 0.0
H567 H 0.56447 0.22356 0.02262 0.0
H568 H 0.57658 0.22702 0.99865 0.0
H569 H 0.54687 0.19719 0.00514 0.0
C570 C 0.57205 0.42403 0.07848 0.0
C571 C 0.58935 0.43637 0.0966 0.0
C572 C 0.57978 0.47179 0.10568 0.0
C573 C 0.55305 0.45516 0.11094 0.0
C574 C 0.5371 0.46585 0.11669 0.0
C575 C 0.54824 0.49367 0.11754 0.0
C576 C 0.57541 0.51043 0.11296 0.0
C577 C 0.59073 0.49922 0.10695 0.0
C578 C 0.5082 0.44745 0.12154 0.0
C579 C 0.58813 0.54019 0.11398 0.0
C580 C 0.47764 0.57226 0.01185 0.0
C581 C 0.48955 0.56345 0.02688 0.0
C582 C 0.48011 0.54562 0.05878 0.0
C583 C 0.50568 0.56189 0.06709 0.0
C584 C 0.51293 0.55551 0.08447 0.0
C585 C 0.49467 0.5318 0.0934 0.0
C586 C 0.46875 0.5155 0.08523 0.0
C587 C 0.46161 0.52299 0.06821 0.0
C588 C 0.54048 0.57389 0.093 0.0
C589 C 0.44893 0.48984 0.09418 0.0
C590 C 0.43144 0.57275 0.19747 0.0
C591 C 0.45726 0.58992 0.19106 0.0
C592 C 0.47537 0.58082 0.18797 0.0
C593 C 0.46695 0.55372 0.19065 0.0
C594 C 0.44094 0.53652 0.19745 0.0
C595 C 0.42372 0.54647 0.20115 0.0
C596 C 0.50335 0.60016 0.18172 0.0
C597 C 0.43112 0.50754 0.20056 0.0
C598 C 0.57625 0.46985 0.24114 0.0
C599 C 0.55774 0.46973 0.25662 0.0
C600 C 0.54539 0.50088 0.24336 0.0
C601 C 0.55791 0.52755 0.23855 0.0
C602 C 0.54731 0.53615 0.224 0.0
C603 C 0.52321 0.51762 0.21442 0.0
C604 C 0.5096 0.49088 0.22001 0.0
C605 C 0.5209 0.48274 0.23433 0.0
C606 C 0.56224 0.56483 0.21847 0.0
C607 C 0.48333 0.47077 0.21057 0.0
C608 C 0.53114 0.50524 0.12223 0.0
C609 C 0.5196 0.51165 0.10715 0.0
C610 C 0.50376 0.52321 0.11033 0.0
C611 C 0.49868 0.528 0.12915 0.0
C612 C 0.48236 0.53904 0.13291 0.0
C613 C 0.47745 0.54357 0.15151 0.0
C614 C 0.48939 0.53807 0.16706 0.0
C615 C 0.485 0.54313 0.18604 0.0
C616 C 0.49691 0.53699 0.20112 0.0
C617 C 0.51296 0.52569 0.19783 0.0
C618 C 0.5179 0.52088 0.17898 0.0
C619 C 0.53437 0.50998 0.17518 0.0
C620 C 0.53873 0.50482 0.15662 0.0
C621 C 0.52685 0.51043 0.14114 0.0
C622 C 0.51043 0.52172 0.14461 0.0
C623 C 0.50597 0.52698 0.16356 0.0
C624 C 0.37599 0.5773 0.18354 0.0
C625 C 0.40639 0.59362 0.18686 0.0
O626 O 0.59565 0.46249 0.09902 0.0
O627 O 0.5575 0.49343 0.2567 0.0
O628 O 0.41369 0.58117 0.20037 0.0
O629 O 0.47259 0.55124 0.04187 0.0
H630 H 0.57817 0.42475 0.10906 0.0
H631 H 0.55254 0.42338 0.07958 0.0
H632 H 0.58233 0.43574 0.06585 0.0
H633 H 0.5679 0.40339 0.07626 0.0
H634 H 0.54429 0.43387 0.11034 0.0
H635 H 0.61139 0.51189 0.103 0.0
H636 H 0.49485 0.45125 0.11217 0.0
H637 H 0.5024 0.42625 0.11994 0.0
H638 H 0.50478 0.45138 0.13642 0.0
H639 H 0.6103 0.55032 0.11283 0.0
H640 H 0.57999 0.54663 0.10213 0.0
H641 H 0.5832 0.54664 0.12751 0.0
H642 H 0.50022 0.55303 0.02191 0.0
H643 H 0.5029 0.61657 0.01344 0.0
H644 H 0.47646 0.5605 0.99862 0.0
H645 H 0.45523 0.56127 0.01393 0.0
H646 H 0.52011 0.57974 0.06025 0.0
H647 H 0.44184 0.51065 0.06179 0.0
H648 H 0.53946 0.57634 0.10859 0.0
H649 H 0.55349 0.56521 0.09052 0.0
H650 H 0.55001 0.59376 0.08654 0.0
H651 H 0.42991 0.47895 0.08571 0.0
H652 H 0.45788 0.47691 0.09568 0.0
H653 H 0.44427 0.49391 0.10866 0.0
H654 H 0.41592 0.59427 0.17304 0.0
H655 H 0.46327 0.61047 0.18869 0.0
H656 H 0.40377 0.53354 0.20634 0.0
H657 H 0.50487 0.5972 0.16628 0.0
H658 H 0.50846 0.62104 0.18425 0.0
H659 H 0.51839 0.59681 0.18932 0.0
H660 H 0.40926 0.49618 0.20322 0.0
H661 H 0.43533 0.49854 0.18802 0.0
H662 H 0.44194 0.50556 0.21304 0.0
H663 H 0.53725 0.45278 0.25372 0.0
H664 H 0.5769 0.45112 0.2412 0.0
H665 H 0.56865 0.47155 0.22693 0.0
H666 H 0.59692 0.48686 0.24342 0.0
H667 H 0.57659 0.54149 0.24578 0.0
H668 H 0.51033 0.46226 0.23843 0.0
H669 H 0.56755 0.56621 0.20326 0.0
H670 H 0.54911 0.57358 0.22016 0.0
H671 H 0.58088 0.57673 0.22718 0.0
H672 H 0.47369 0.45161 0.21802 0.0
H673 H 0.46924 0.47855 0.21012 0.0
H674 H 0.48688 0.46703 0.19568 0.0
H675 H 0.52345 0.50808 0.09266 0.0
H676 H 0.47298 0.54404 0.12151 0.0
H677 H 0.4643 0.55162 0.1535 0.0
H678 H 0.49317 0.54053 0.21564 0.0
H679 H 0.54411 0.50529 0.18651 0.0
H680 H 0.55156 0.49639 0.15456 0.0
H681 H 0.36539 0.57645 0.19682 0.0
H682 H 0.3694 0.58602 0.17219 0.0
H683 H 0.3702 0.55677 0.17897 0.0
Mn684 Mn 0.62098 0.39777 0.41077 0.0
Mn685 Mn 0.6565 0.46416 0.41719 0.0
C686 C 0.60523 0.41841 0.43055 0.0
C687 C 0.61336 0.35607 0.41908 0.0
C688 C 0.62224 0.43714 0.38186 0.0
O689 O 0.65759 0.4075 0.40112 0.0
O690 O 0.68058 0.45156 0.40707 0.0
C691 C 0.693 0.46711 0.44838 0.0
N692 N 0.67399 0.47251 0.44165 0.0
C693 C 0.67435 0.49383 0.47127 0.0
C694 C 0.69408 0.48868 0.47846 0.0
C695 C 0.70341 0.47523 0.46697 0.0
C696 C 0.6649 0.48548 0.45257 0.0
H697 H 0.7001 0.45662 0.43965 0.0
C698 C 0.6791 0.42992 0.4012 0.0
O699 O 0.60659 0.36011 0.40229 0.0
O700 O 0.62441 0.37615 0.4309 0.0
N701 N 0.63585 0.47889 0.42708 0.0
C702 C 0.61562 0.48085 0.41841 0.0
C703 C 0.60341 0.49299 0.42823 0.0
C704 C 0.61219 0.50308 0.44681 0.0
C705 C 0.63319 0.50104 0.45537 0.0
C706 C 0.64477 0.48895 0.44483 0.0
H707 H 0.6087 0.47301 0.40417 0.0
O708 O 0.58895 0.395 0.42333 0.0
O709 O 0.63031 0.42888 0.42605 0.0
O710 O 0.61343 0.41337 0.38712 0.0
O711 O 0.63867 0.45746 0.39189 0.0
C712 C 0.64271 0.51 0.47411 0.0
C713 C 0.66326 0.50639 0.48205 0.0
H714 H 0.70201 0.49472 0.49285 0.0
H715 H 0.71852 0.47104 0.47247 0.0
H716 H 0.58718 0.49446 0.42154 0.0
H717 H 0.60253 0.51219 0.45441 0.0
H718 H 0.63409 0.51936 0.48263 0.0
H719 H 0.67015 0.51304 0.49655 0.0
Mn720 Mn 0.23614 0.63273 0.57235 0.0
Mn721 Mn 0.20697 0.56764 0.5607 0.0
C722 C 0.2008 0.61422 0.55076 0.0
C723 C 0.26997 0.67624 0.56853 0.0
C724 C 0.19733 0.58827 0.59777 0.0
O725 O 0.26338 0.62279 0.58131 0.0
O726 O 0.24368 0.57993 0.57167 0.0
C727 C 0.24232 0.57079 0.52951 0.0
N728 N 0.21736 0.56353 0.53579 0.0
C729 C 0.19757 0.54629 0.50478 0.0
C730 C 0.22304 0.5534 0.49802 0.0
C731 C 0.24551 0.56572 0.51044 0.0
C732 C 0.19559 0.55159 0.52397 0.0
H733 H 0.25966 0.58043 0.53897 0.0
C734 C 0.26328 0.60099 0.5793 0.0
O735 O 0.25769 0.66842 0.5845 0.0
O736 O 0.26243 0.65884 0.55469 0.0
N737 N 0.17165 0.55333 0.54977 0.0
C738 C 0.14877 0.54918 0.55824 0.0
C739 C 0.12459 0.53774 0.5476 0.0
C740 C 0.12417 0.53061 0.52839 0.0
C741 C 0.14792 0.53488 0.52003 0.0
C742 C 0.17136 0.54609 0.5314 0.0
H743 H 0.149 0.55474 0.57297 0.0
O744 O 0.20682 0.63616 0.5598 0.0
O745 O 0.21579 0.60393 0.55459 0.0
O746 O 0.21185 0.61277 0.59422 0.0
O747 O 0.19447 0.56972 0.58639 0.0
C748 C 0.14937 0.52901 0.50074 0.0
C749 C 0.17418 0.53472 0.49312 0.0
H750 H 0.22562 0.54974 0.48329 0.0
H751 H 0.26525 0.57141 0.5053 0.0
H752 H 0.10636 0.53456 0.55414 0.0
H753 H 0.10554 0.52208 0.52017 0.0
H754 H 0.1316 0.52046 0.49158 0.0
H755 H 0.17511 0.53046 0.47821 0.0
Mn756 Mn 0.62103 0.23705 0.73776 0.0
Mn757 Mn 0.65898 0.20936 0.72879 0.0
C758 C 0.60506 0.20152 0.71678 0.0
C759 C 0.61202 0.27092 0.73137 0.0
C760 C 0.62825 0.20144 0.76528 0.0
O761 O 0.65784 0.26367 0.7485 0.0
O762 O 0.68305 0.24696 0.73746 0.0
C763 C 0.68869 0.24042 0.69572 0.0
N764 N 0.67205 0.21659 0.70351 0.0
C765 C 0.66879 0.19337 0.67417 0.0
C766 C 0.68611 0.21765 0.66588 0.0
C767 C 0.69606 0.24128 0.67669 0.0
C768 C 0.66234 0.19373 0.69324 0.0
H769 H 0.69619 0.25864 0.70394 0.0
C770 C 0.6804 0.26515 0.74589 0.0
O771 O 0.60595 0.25904 0.74755 0.0
O772 O 0.623 0.26291 0.71897 0.0
N773 N 0.63827 0.17319 0.72013 0.0
C774 C 0.62052 0.15161 0.7299 0.0
C775 C 0.608 0.12649 0.72089 0.0
C776 C 0.61395 0.12378 0.70199 0.0
C777 C 0.63249 0.14623 0.69229 0.0
C778 C 0.64453 0.17073 0.70206 0.0
H779 H 0.6158 0.15354 0.74441 0.0
O780 O 0.58873 0.20816 0.72426 0.0
O781 O 0.63033 0.21647 0.72137 0.0
O782 O 0.61555 0.21315 0.7602 0.0
O783 O 0.6458 0.20022 0.75502 0.0
C784 C 0.63906 0.14534 0.67319 0.0
C785 C 0.65719 0.16889 0.66414 0.0
H786 H 0.69167 0.21841 0.65116 0.0
H787 H 0.70927 0.26011 0.67035 0.0
H788 H 0.59371 0.10926 0.72846 0.0
H789 H 0.60404 0.10441 0.69502 0.0
H790 H 0.62998 0.12669 0.66525 0.0
H791 H 0.66178 0.16799 0.64937 0.0
Mn792 Mn 0.41378 0.63772 0.90196 0.0
Mn793 Mn 0.38457 0.57288 0.91231 0.0
C794 C 0.43359 0.62381 0.92416 0.0
C795 C 0.41813 0.67929 0.90639 0.0
C796 C 0.41548 0.59592 0.87634 0.0
O797 O 0.37574 0.62258 0.89162 0.0
O798 O 0.35705 0.58043 0.90128 0.0
C799 C 0.34906 0.57116 0.94295 0.0
N800 N 0.36912 0.56713 0.93688 0.0
C801 C 0.37327 0.5515 0.96752 0.0
C802 C 0.35253 0.55531 0.97405 0.0
C803 C 0.34041 0.56522 0.96172 0.0
C804 C 0.38092 0.55759 0.94863 0.0
H805 H 0.33978 0.57891 0.93357 0.0
C806 C 0.35555 0.59948 0.89356 0.0
O807 O 0.42444 0.67245 0.89051 0.0
O808 O 0.4091 0.66191 0.91969 0.0
N809 N 0.40886 0.56311 0.92343 0.0
C810 C 0.42965 0.56206 0.91528 0.0
C811 C 0.44444 0.55332 0.92593 0.0
C812 C 0.43767 0.54566 0.9448 0.0
C813 C 0.41607 0.54671 0.95284 0.0
C814 C 0.40189 0.55535 0.94148 0.0
H815 H 0.43506 0.56803 0.90082 0.0
O816 O 0.44778 0.6462 0.91578 0.0
O817 O 0.40828 0.61041 0.91936 0.0
O818 O 0.42249 0.61993 0.88031 0.0
O819 O 0.40058 0.57669 0.88698 0.0
C820 C 0.40842 0.54005 0.9718 0.0
C821 C 0.38705 0.54245 0.97913 0.0
H822 H 0.34592 0.55093 0.98856 0.0
H823 H 0.32449 0.56835 0.9667 0.0
H824 H 0.46111 0.55261 0.91963 0.0
H825 H 0.44931 0.53922 0.95303 0.0
H826 H 0.41911 0.53344 0.98094 0.0
H827 H 0.38161 0.53764 0.99381 0.0
Mn828 Mn 0.78798 0.41088 0.07589 0.0
Mn829 Mn 0.81416 0.37147 0.08353 0.0
C830 C 0.82319 0.42461 0.09748 0.0
C831 C 0.75401 0.42029 0.08203 0.0
C832 C 0.82336 0.40381 0.04792 0.0
O833 O 0.76074 0.37527 0.06396 0.0
O834 O 0.77592 0.34895 0.07506 0.0
C835 C 0.78281 0.34132 0.1164 0.0
N836 N 0.80694 0.35741 0.10848 0.0
C837 C 0.83077 0.35681 0.13667 0.0
C838 C 0.80617 0.34007 0.14508 0.0
C839 C 0.78209 0.33238 0.13493 0.0
C840 C 0.83022 0.36506 0.11816 0.0
H841 H 0.76428 0.3354 0.10863 0.0
C842 C 0.75822 0.35251 0.06647 0.0
O843 O 0.76697 0.42708 0.06625 0.0
O844 O 0.76113 0.40846 0.09435 0.0
N845 N 0.85098 0.39055 0.0919 0.0
C846 C 0.87291 0.40809 0.08221 0.0
C847 C 0.89857 0.41844 0.09065 0.0
C848 C 0.90145 0.41045 0.10885 0.0
C849 C 0.87861 0.39218 0.11846 0.0
C850 C 0.85357 0.38249 0.10933 0.0
H851 H 0.87088 0.4142 0.06818 0.0
O852 O 0.81723 0.44162 0.09058 0.0
O853 O 0.80782 0.40004 0.09198 0.0
O854 O 0.81281 0.41726 0.05372 0.0
O855 O 0.82333 0.38531 0.0575 0.0
C856 C 0.87969 0.38359 0.1369 0.0
C857 C 0.85578 0.366 0.14603 0.0
H858 H 0.80553 0.3332 0.15939 0.0
H859 H 0.76303 0.31959 0.14137 0.0
H860 H 0.91609 0.43255 0.08314 0.0
H861 H 0.92125 0.41863 0.11537 0.0
H862 H 0.89877 0.39077 0.14433 0.0
H863 H 0.85684 0.35994 0.16035 0.0
Mn864 Mn 0.39962 0.79667 0.23747 0.0
Mn865 Mn 0.46429 0.8226 0.25139 0.0
C866 C 0.41737 0.82962 0.26067 0.0
C867 C 0.35527 0.76313 0.24008 0.0
C868 C 0.44639 0.83529 0.21403 0.0
O869 O 0.41016 0.77064 0.22701 0.0
O870 O 0.45105 0.78605 0.24083 0.0
C871 C 0.45847 0.78752 0.28318 0.0
N872 N 0.46695 0.81228 0.27662 0.0
C873 C 0.48388 0.83191 0.30768 0.0
C874 C 0.47556 0.80664 0.31473 0.0
C875 C 0.46276 0.78436 0.30242 0.0
C876 C 0.47933 0.83387 0.28833 0.0
H877 H 0.4484 0.77032 0.27381 0.0
C878 C 0.43082 0.76872 0.2309 0.0
O879 O 0.36367 0.77643 0.22458 0.0
O880 O 0.37261 0.76923 0.25393 0.0
N881 N 0.47924 0.85769 0.26208 0.0
C882 C 0.4843 0.88041 0.25336 0.0
C883 C 0.49612 0.9044 0.26388 0.0
C884 C 0.50269 0.9048 0.28323 0.0
C885 C 0.49744 0.88121 0.29187 0.0
C886 C 0.48588 0.85794 0.28062 0.0
H887 H 0.47923 0.88025 0.23852 0.0
O888 O 0.39557 0.82448 0.25141 0.0
O889 O 0.42768 0.8149 0.25628 0.0
O890 O 0.4213 0.82299 0.2171 0.0
O891 O 0.46382 0.83507 0.22538 0.0
C892 C 0.50265 0.87976 0.31131 0.0
C893 C 0.49587 0.85514 0.31921 0.0
H894 H 0.4786 0.80409 0.3296 0.0
H895 H 0.4561 0.76477 0.30779 0.0
H896 H 0.50004 0.92251 0.25712 0.0
H897 H 0.51152 0.92329 0.29135 0.0
H898 H 0.51145 0.89741 0.32038 0.0
H899 H 0.49957 0.85422 0.33424 0.0
H900 H 0.19477 0.66409 0.27971 0.0
H901 H 0.31853 0.73379 0.21192 0.0
H902 H 0.19907 0.62459 0.22864 0.0
H903 H 0.32821 0.74459 0.27288 0.0
H904 H 0.27196 0.6983 0.21598 0.0
H905 H 0.24144 0.69851 0.27577 0.0
C906 C 0.2055 0.66248 0.26774 0.0
C907 C 0.19303 0.64113 0.25458 0.0
C908 C 0.28438 0.70849 0.22842 0.0
C909 C 0.24617 0.68104 0.24974 0.0
C910 C 0.31081 0.72876 0.22612 0.0
C911 C 0.32716 0.74203 0.2421 0.0
C912 C 0.27416 0.702 0.24678 0.0
C913 C 0.31627 0.73472 0.2602 0.0
C914 C 0.23214 0.6822 0.26551 0.0
C915 C 0.20799 0.64058 0.23916 0.0
N916 N 0.29035 0.71533 0.26206 0.0
N917 N 0.23372 0.66034 0.23707 0.0
H918 H 0.60097 0.22534 0.48293 0.0
H919 H 0.60514 0.31424 0.3959 0.0
H920 H 0.62219 0.21429 0.42638 0.0
H921 H 0.61298 0.3389 0.45485 0.0
H922 H 0.60223 0.27262 0.40584 0.0
H923 H 0.59583 0.26212 0.4717 0.0
C924 C 0.60405 0.23038 0.46806 0.0
C925 C 0.61164 0.21653 0.45553 0.0
C926 C 0.60441 0.28713 0.41655 0.0
C927 C 0.6062 0.25881 0.44262 0.0
C928 C 0.60596 0.31077 0.41091 0.0
C929 C 0.60949 0.33007 0.42458 0.0
C930 C 0.60597 0.28269 0.43598 0.0
C931 C 0.6105 0.32465 0.44384 0.0
C932 C 0.60128 0.25143 0.46169 0.0
C933 C 0.61591 0.22418 0.43646 0.0
N934 N 0.60875 0.30149 0.44896 0.0
N935 N 0.61315 0.24485 0.43058 0.0
H936 H 0.42591 0.64242 0.60931 0.0
H937 H 0.26747 0.55799 0.58998 0.0
H938 H 0.37549 0.56937 0.63774 0.0
H939 H 0.31423 0.6427 0.58348 0.0
H940 H 0.30796 0.5584 0.60199 0.0
H941 H 0.38593 0.63912 0.59385 0.0
C942 C 0.40641 0.62565 0.61223 0.0
C943 C 0.4039 0.6064 0.62508 0.0
C944 C 0.30926 0.57682 0.59785 0.0
C945 C 0.35825 0.60227 0.60726 0.0
C946 C 0.28625 0.57661 0.59096 0.0
C947 C 0.28745 0.60038 0.58589 0.0
C948 C 0.33366 0.60088 0.59929 0.0
C949 C 0.3123 0.62395 0.58744 0.0
C950 C 0.38365 0.62378 0.60343 0.0
C951 C 0.37822 0.58479 0.62809 0.0
N952 N 0.33441 0.62359 0.59395 0.0
N953 N 0.35633 0.58332 0.61928 0.0
H954 H 0.82448 0.41779 0.75152 0.0
H955 H 0.68493 0.29597 0.77665 0.0
H956 H 0.79747 0.40236 0.80927 0.0
H957 H 0.73081 0.28963 0.73101 0.0
H958 H 0.7243 0.33748 0.7873 0.0
H959 H 0.78891 0.37307 0.74208 0.0
C960 C 0.81135 0.40492 0.76228 0.0
C961 C 0.81407 0.41375 0.78131 0.0
C962 C 0.72581 0.3269 0.77505 0.0
C963 C 0.77298 0.363 0.77041 0.0
C964 C 0.70335 0.30331 0.7689 0.0
C965 C 0.70464 0.28941 0.7529 0.0
C966 C 0.74959 0.33703 0.76487 0.0
C967 C 0.72904 0.29973 0.74345 0.0
C968 C 0.79107 0.37942 0.75685 0.0
C969 C 0.79613 0.39626 0.7945 0.0
N970 N 0.75053 0.32318 0.74942 0.0
N971 N 0.77615 0.37186 0.78878 0.0
H972 H 0.4254 0.83007 0.89332 0.0
H973 H 0.42345 0.70562 0.94004 0.0
H974 H 0.46921 0.83722 0.94545 0.0
H975 H 0.42066 0.71342 0.87929 0.0
H976 H 0.43108 0.75077 0.94435 0.0
H977 H 0.41425 0.7837 0.89004 0.0
C978 C 0.43236 0.82178 0.90418 0.0
C979 C 0.44801 0.8375 0.91975 0.0
C980 C 0.42869 0.74248 0.93011 0.0
C981 C 0.43524 0.7846 0.91614 0.0
C982 C 0.42423 0.71676 0.92764 0.0
C983 C 0.42155 0.70591 0.90928 0.0
C984 C 0.42986 0.7571 0.91412 0.0
C985 C 0.42282 0.72117 0.89368 0.0
C986 C 0.42611 0.79544 0.90226 0.0
C987 C 0.45681 0.82585 0.93333 0.0
N988 N 0.42675 0.74599 0.89644 0.0
N989 N 0.45016 0.80004 0.93126 0.0
H990 H 0.63214 0.46548 0.07364 0.0
H991 H 0.719 0.40213 0.11128 0.0
H992 H 0.60493 0.40544 0.11617 0.0
H993 H 0.737 0.44803 0.06044 0.0
H994 H 0.67977 0.40723 0.11565 0.0
H995 H 0.67325 0.4632 0.07084 0.0
C996 C 0.63492 0.45189 0.08243 0.0
C997 C 0.61516 0.43566 0.09519 0.0
C998 C 0.69235 0.41625 0.10357 0.0
C999 C 0.66209 0.43295 0.09209 0.0
C1000 C 0.7148 0.41344 0.10111 0.0
C1001 C 0.73122 0.4246 0.08543 0.0
C1002 C 0.68637 0.43048 0.09034 0.0
C1003 C 0.72481 0.43901 0.07268 0.0
C1004 C 0.65833 0.45056 0.08081 0.0
C1005 C 0.6197 0.41835 0.10622 0.0
N1006 N 0.70286 0.44152 0.07541 0.0
N1007 N 0.64271 0.41747 0.10444 0.0
H1008 H 0.37378 0.83578 0.53161 0.0
H1009 H 0.30229 0.71088 0.59644 0.0
H1010 H 0.41532 0.82592 0.57961 0.0
H1011 H 0.28781 0.70367 0.53574 0.0
H1012 H 0.33948 0.75617 0.59253 0.0
H1013 H 0.3377 0.78998 0.53472 0.0
C1014 C 0.3755 0.82401 0.54272 0.0
C1015 C 0.39788 0.83467 0.55528 0.0
C1016 C 0.32813 0.7446 0.5801 0.0
C1017 C 0.35615 0.78257 0.55918 0.0
C1018 C 0.30687 0.7189 0.58231 0.0
C1019 C 0.29204 0.70362 0.56637 0.0
C1020 C 0.33411 0.75524 0.56189 0.0
C1021 C 0.29887 0.71484 0.54837 0.0
C1022 C 0.35484 0.79788 0.54446 0.0
C1023 C 0.39854 0.81843 0.56959 0.0
N1024 N 0.3193 0.74014 0.54661 0.0
N1025 N 0.37787 0.79326 0.57127 0.0
H1026 H 0.62733 0.41481 0.68703 0.0
H1027 H 0.58599 0.2903 0.75295 0.0
H1028 H 0.56941 0.39315 0.73126 0.0
H1029 H 0.62837 0.30262 0.70058 0.0
H1030 H 0.58089 0.32872 0.74621 0.0
H1031 H 0.62932 0.37455 0.69269 0.0
C1032 C 0.6149 0.40145 0.69785 0.0
C1033 C 0.59808 0.40722 0.70863 0.0
C1034 C 0.59118 0.32289 0.73616 0.0
C1035 C 0.60049 0.36128 0.71539 0.0
C1036 C 0.59413 0.30102 0.74002 0.0
C1037 C 0.60768 0.29331 0.72733 0.0
C1038 C 0.60209 0.33726 0.71961 0.0
C1039 C 0.61779 0.30786 0.71077 0.0
C1040 C 0.61603 0.37848 0.70109 0.0
C1041 C 0.58257 0.38934 0.72261 0.0
N1042 N 0.61493 0.32921 0.70745 0.0
N1043 N 0.58424 0.36723 0.72565 0.0
H1044 H 0.22392 0.62567 0.8662 0.0
H1045 H 0.30644 0.55544 0.89911 0.0
H1046 H 0.18882 0.55096 0.8946 0.0
H1047 H 0.34314 0.63397 0.87609 0.0
H1048 H 0.26243 0.55106 0.89382 0.0
H1049 H 0.26706 0.62691 0.8664 0.0
C1050 C 0.22526 0.60936 0.87224 0.0
C1051 C 0.20269 0.58797 0.88009 0.0
C1052 C 0.28011 0.56917 0.88979 0.0
C1053 C 0.25199 0.58938 0.88064 0.0
C1054 C 0.30529 0.57165 0.89272 0.0
C1055 C 0.32865 0.59521 0.88819 0.0
C1056 C 0.27818 0.59036 0.88226 0.0
C1057 C 0.32577 0.6155 0.87995 0.0
C1058 C 0.24986 0.6101 0.87241 0.0
C1059 C 0.20562 0.5676 0.88811 0.0
N1060 N 0.30103 0.61267 0.87737 0.0
N1061 N 0.2298 0.56882 0.88818 0.0
H1062 H 0.62441 0.23908 0.99614 0.0
H1063 H 0.73302 0.30224 0.08034 0.0
H1064 H 0.60582 0.21014 0.05324 0.0
H1065 H 0.72717 0.34941 0.03581 0.0
H1066 H 0.69119 0.26393 0.06809 0.0
H1067 H 0.66756 0.27554 0.00805 0.0
C1068 C 0.62948 0.2403 0.01114 0.0
C1069 C 0.61132 0.22161 0.02367 0.0
C1070 C 0.69918 0.2827 0.06104 0.0
C1071 C 0.66079 0.26292 0.03729 0.0
C1072 C 0.72303 0.30448 0.06794 0.0
C1073 C 0.73346 0.32903 0.05911 0.0
C1074 C 0.68615 0.28539 0.04494 0.0
C1075 C 0.71969 0.33089 0.04312 0.0
C1076 C 0.65401 0.26109 0.0179 0.0
C1077 C 0.61904 0.22403 0.043 0.0
N1078 N 0.69683 0.3093 0.03646 0.0
N1079 N 0.64326 0.24428 0.0492 0.0
H1080 H 0.40976 0.63318 0.16484 0.0
H1081 H 0.45618 0.74415 0.2468 0.0
H1082 H 0.4205 0.61753 0.22311 0.0
H1083 H 0.40553 0.73871 0.19912 0.0
H1084 H 0.45328 0.70258 0.23582 0.0
H1085 H 0.41847 0.67727 0.17486 0.0
C1086 C 0.41432 0.63919 0.17969 0.0
C1087 C 0.41451 0.62169 0.1931 0.0
C1088 C 0.44297 0.71066 0.22776 0.0
C1089 C 0.4246 0.67202 0.20462 0.0
C1090 C 0.4447 0.73437 0.23394 0.0
C1091 C 0.43092 0.74476 0.2239 0.0
C1092 C 0.42791 0.69769 0.21122 0.0
C1093 C 0.41626 0.73125 0.20736 0.0
C1094 C 0.41916 0.66423 0.18539 0.0
C1095 C 0.42033 0.63037 0.21223 0.0
N1096 N 0.41522 0.70846 0.20149 0.0
N1097 N 0.42522 0.655 0.21742 0.0
H1098 H 0.79814 0.3892 0.36774 0.0
H1099 H 0.72457 0.47246 0.38764 0.0
H1100 H 0.81752 0.46068 0.33817 0.0
H1101 H 0.68933 0.38906 0.39873 0.0
H1102 H 0.7637 0.47216 0.37454 0.0
H1103 H 0.76309 0.39279 0.38455 0.0
C1104 C 0.79508 0.40572 0.36489 0.0
C1105 C 0.81046 0.42448 0.35138 0.0
C1106 C 0.7474 0.454 0.37993 0.0
C1107 C 0.77068 0.42886 0.37063 0.0
C1108 C 0.72514 0.45416 0.38745 0.0
C1109 C 0.70355 0.4307 0.39413 0.0
C1110 C 0.74822 0.43032 0.37939 0.0
C1111 C 0.70536 0.40755 0.39354 0.0
C1112 C 0.77511 0.40775 0.37444 0.0
C1113 C 0.80593 0.4457 0.34837 0.0
N1114 N 0.72729 0.40796 0.38632 0.0
N1115 N 0.78638 0.4473 0.35788 0.0
H1116 H 0.1395 0.5765 0.43543 0.0
H1117 H 0.15023 0.60692 0.54756 0.0
H1118 H 0.08749 0.59838 0.4641 0.0
H1119 H 0.21281 0.60629 0.51518 0.0
H1120 H 0.12288 0.59699 0.51816 0.0
H1121 H 0.16221 0.5797 0.46581 0.0
C1122 C 0.13264 0.58161 0.44819 0.0
C1123 C 0.1114 0.58687 0.44731 0.0
C1124 C 0.14247 0.59873 0.51754 0.0
C1125 C 0.13762 0.59115 0.48204 0.0
C1126 C 0.15796 0.60431 0.53426 0.0
C1127 C 0.18325 0.60641 0.53373 0.0
C1128 C 0.15267 0.59569 0.50025 0.0
C1129 C 0.19291 0.60374 0.51619 0.0
C1130 C 0.14568 0.5836 0.46549 0.0
C1131 C 0.10356 0.59384 0.46423 0.0
N1132 N 0.17755 0.59838 0.50014 0.0
N1133 N 0.11671 0.59584 0.48092 0.0
H1134 H 0.49071 0.05741 0.64197 0.0
H1135 H 0.62288 0.20856 0.6807 0.0
H1136 H 0.56398 0.12686 0.59973 0.0
H1137 H 0.56378 0.15078 0.7172 0.0
H1138 H 0.6032 0.17693 0.65381 0.0
H1139 H 0.52003 0.09322 0.67337 0.0
C1140 C 0.5077 0.07691 0.63974 0.0
C1141 C 0.52646 0.08631 0.61726 0.0
C1142 C 0.59478 0.17101 0.66775 0.0
C1143 C 0.55788 0.12779 0.65451 0.0
C1144 C 0.60612 0.18893 0.68306 0.0
C1145 C 0.59535 0.18177 0.70117 0.0
C1146 C 0.57219 0.14611 0.67059 0.0
C1147 C 0.57289 0.15668 0.70346 0.0
C1148 C 0.52704 0.09818 0.65902 0.0
C1149 C 0.55404 0.12064 0.61316 0.0
N1150 N 0.56199 0.13966 0.6883 0.0
N1151 N 0.56825 0.13681 0.6329 0.0
H1152 H 0.48867 0.53182 0.80308 0.0
H1153 H 0.44508 0.63037 0.84863 0.0
H1154 H 0.52054 0.6128 0.78638 0.0
H1155 H 0.41261 0.54912 0.86531 0.0
H1156 H 0.46875 0.62265 0.82316 0.0
H1157 H 0.45686 0.53616 0.82336 0.0
C1158 C 0.48865 0.55038 0.80347 0.0
C1159 C 0.50711 0.57193 0.79297 0.0
C1160 C 0.45625 0.60643 0.83227 0.0
C1161 C 0.47114 0.57725 0.81637 0.0
C1162 C 0.44268 0.61081 0.84685 0.0
C1163 C 0.42703 0.59046 0.85935 0.0
C1164 C 0.45437 0.58157 0.83017 0.0
C1165 C 0.42455 0.56548 0.85614 0.0
C1166 C 0.47055 0.55289 0.81508 0.0
C1167 C 0.50648 0.59566 0.79415 0.0
N1168 N 0.43832 0.56183 0.84201 0.0
N1169 N 0.48892 0.59774 0.80574 0.0
H1170 H 0.89316 0.383 0.93662 0.0
H1171 H 0.82991 0.44253 0.02293 0.0
H1172 H 0.88476 0.46673 0.93082 0.0
H1173 H 0.8447 0.37728 0.02943 0.0
H1174 H 0.84833 0.4492 0.99096 0.0
H1175 H 0.87041 0.37783 0.97363 0.0
C1176 C 0.8858 0.39586 0.94142 0.0
C1177 C 0.8956 0.42816 0.93051 0.0
C1178 C 0.84757 0.43352 0.99948 0.0
C1179 C 0.8666 0.41902 0.97309 0.0
C1180 C 0.83708 0.42967 0.01772 0.0
C1181 C 0.8356 0.4092 0.02892 0.0
C1182 C 0.85646 0.4167 0.99244 0.0
C1183 C 0.8453 0.39325 0.02138 0.0
C1184 C 0.87347 0.39396 0.96465 0.0
C1185 C 0.88068 0.44876 0.93788 0.0
N1186 N 0.85517 0.39726 0.00359 0.0
N1187 N 0.86978 0.44305 0.95954 0.0
H1188 H 0.47557 0.95094 0.12881 0.0
H1189 H 0.49477 0.85379 0.19694 0.0
H1190 H 0.53641 0.92952 0.12031 0.0
H1191 H 0.42027 0.85449 0.19229 0.0
H1192 H 0.51149 0.8832 0.16992 0.0
H1193 H 0.45598 0.91739 0.1532 0.0
C1194 C 0.48454 0.93886 0.13185 0.0
C1195 C 0.50732 0.94259 0.1222 0.0
C1196 C 0.49141 0.87675 0.17473 0.0
C1197 C 0.4855 0.90476 0.15051 0.0
C1198 C 0.48187 0.86003 0.19019 0.0
C1199 C 0.45609 0.85169 0.19693 0.0
C1200 C 0.47525 0.88559 0.16612 0.0
C1201 C 0.44024 0.86033 0.18755 0.0
C1202 C 0.4734 0.91977 0.14581 0.0
C1203 C 0.51858 0.92693 0.12718 0.0
N1204 N 0.45017 0.87702 0.17274 0.0
N1205 N 0.50765 0.9088 0.14104 0.0
H1206 H 0.59748 0.50686 0.2809 0.0
H1207 H 0.58568 0.40001 0.35638 0.0
H1208 H 0.54054 0.42322 0.2753 0.0
H1209 H 0.63699 0.48451 0.36496 0.0
H1210 H 0.57002 0.40806 0.32613 0.0
H1211 H 0.61331 0.49905 0.31131 0.0
C1212 C 0.58811 0.48691 0.28621 0.0
C1213 C 0.5672 0.46573 0.27582 0.0
C1214 C 0.58471 0.42484 0.33464 0.0
C1215 C 0.58559 0.45653 0.31034 0.0
C1216 C 0.59371 0.42026 0.35193 0.0
C1217 C 0.61273 0.44159 0.36331 0.0
C1218 C 0.59481 0.45094 0.3286 0.0
C1219 C 0.62233 0.4674 0.35672 0.0
C1220 C 0.59721 0.48243 0.3035 0.0
C1221 C 0.55631 0.44016 0.28306 0.0
N1222 N 0.61329 0.47133 0.33982 0.0
N1223 N 0.56559 0.43628 0.29987 0.0
H1224 H 0.45676 0.88723 0.37666 0.0
H1225 H 0.42686 0.88021 0.26465 0.0
H1226 H 0.43475 0.93957 0.34921 0.0
H1227 H 0.42306 0.81562 0.29613 0.0
H1228 H 0.43701 0.90632 0.2945 0.0
H1229 H 0.45249 0.86504 0.34597 0.0
C1230 C 0.4514 0.89427 0.3641 0.0
C1231 C 0.44649 0.91549 0.36541 0.0
C1232 C 0.43422 0.88653 0.29482 0.0
C1233 C 0.44106 0.88993 0.33037 0.0
C1234 C 0.42853 0.87175 0.27786 0.0
C1235 C 0.42518 0.84626 0.27802 0.0
C1236 C 0.43614 0.87545 0.31197 0.0
C1237 C 0.42661 0.83567 0.29543 0.0
C1238 C 0.44881 0.88152 0.34664 0.0
C1239 C 0.43912 0.92354 0.34876 0.0
N1240 N 0.43217 0.85038 0.31173 0.0
N1241 N 0.43662 0.91074 0.3319 0.0
H1242 H 0.50418 0.43302 0.5128 0.0
H1243 H 0.62899 0.43291 0.46548 0.0
H1244 H 0.57804 0.45421 0.54317 0.0
H1245 H 0.56045 0.42289 0.43297 0.0
H1246 H 0.6118 0.44371 0.4937 0.0
H1247 H 0.52519 0.43195 0.48303 0.0
C1248 C 0.52497 0.43792 0.51313 0.0
C1249 C 0.53953 0.44406 0.53042 0.0
C1250 C 0.60066 0.4396 0.48037 0.0
C1251 C 0.56349 0.44226 0.49655 0.0
C1252 C 0.61063 0.43371 0.46424 0.0
C1253 C 0.59654 0.42799 0.44684 0.0
C1254 C 0.57594 0.43892 0.47921 0.0
C1255 C 0.57213 0.4278 0.44612 0.0
C1256 C 0.53693 0.43723 0.49616 0.0
C1257 C 0.56623 0.44967 0.53011 0.0
N1258 N 0.56253 0.43316 0.46211 0.0
N1259 N 0.57728 0.4485 0.51348 0.0
H1260 H 0.14167 0.59279 0.71055 0.0
H1261 H 0.16335 0.5385 0.61106 0.0
H1262 H 0.10586 0.50965 0.696 0.0
H1263 H 0.19902 0.62156 0.62634 0.0
H1264 H 0.14109 0.52735 0.64161 0.0
H1265 H 0.1618 0.60356 0.67926 0.0
C1266 C 0.13785 0.57681 0.70065 0.0
C1267 C 0.12176 0.55031 0.70574 0.0
C1268 C 0.15377 0.54801 0.63824 0.0
C1269 C 0.14506 0.56242 0.66998 0.0
C1270 C 0.16652 0.55441 0.62079 0.0
C1271 C 0.18322 0.58104 0.61608 0.0
C1272 C 0.15772 0.56836 0.65111 0.0
C1273 C 0.18642 0.60076 0.6293 0.0
C1274 C 0.1494 0.58294 0.68282 0.0
C1275 C 0.11785 0.53034 0.69252 0.0
N1276 N 0.17384 0.59401 0.64618 0.0
N1277 N 0.12941 0.53681 0.67524 0.0
H1278 H 0.55794 0.13725 0.88356 0.0
H1279 H 0.65277 0.17679 0.78221 0.0
H1280 H 0.63867 0.12376 0.87208 0.0
H1281 H 0.59119 0.19723 0.79137 0.0
H1282 H 0.64445 0.15723 0.81351 0.0
H1283 H 0.56931 0.16186 0.84679 0.0
C1284 C 0.57548 0.14088 0.87577 0.0
C1285 C 0.59481 0.12372 0.88075 0.0
C1286 C 0.63277 0.16601 0.80866 0.0
C1287 C 0.60826 0.15531 0.83915 0.0
C1288 C 0.63746 0.17716 0.79075 0.0
C1289 C 0.62276 0.18885 0.7841 0.0
C1290 C 0.6132 0.16642 0.82002 0.0
C1291 C 0.60311 0.18857 0.79589 0.0
C1292 C 0.58169 0.15445 0.85264 0.0
C1293 C 0.6264 0.13242 0.86853 0.0
N1294 N 0.5989 0.17754 0.81332 0.0
N1295 N 0.62819 0.14541 0.84792 0.0
H1296 H 0.47171 0.59842 0.04914 0.0
H1297 H 0.41221 0.61461 0.95901 0.0
H1298 H 0.5375 0.59412 0.0022 0.0
H1299 H 0.4799 0.62211 0.92854 0.0
H1300 H 0.43002 0.60605 0.98794 0.0
H1301 H 0.4479 0.60851 0.01649 0.0
C1302 C 0.48042 0.60125 0.03525 0.0
C1303 C 0.5051 0.59088 0.02888 0.0
C1304 C 0.44123 0.60972 0.97509 0.0
C1305 C 0.47774 0.60541 0.99171 0.0
C1306 C 0.43083 0.61425 0.9585 0.0
C1307 C 0.44427 0.61819 0.9414 0.0
C1308 C 0.46556 0.6097 0.97458 0.0
C1309 C 0.46877 0.6186 0.94147 0.0
C1310 C 0.46485 0.60561 0.01474 0.0
C1311 C 0.52202 0.59873 0.00567 0.0
N1312 N 0.47858 0.61416 0.95784 0.0
N1313 N 0.50458 0.60289 0.98909 0.0
H1314 H 0.91443 0.42348 0.19448 0.0
H1315 H 0.87508 0.46441 0.09691 0.0
H1316 H 0.96869 0.49399 0.16478 0.0
H1317 H 0.81702 0.40478 0.13289 0.0
H1318 H 0.90946 0.47673 0.12211 0.0
H1319 H 0.87813 0.41707 0.17269 0.0
C1320 C 0.91859 0.43789 0.18358 0.0
C1321 C 0.94452 0.45962 0.18164 0.0
C1322 C 0.88919 0.46102 0.12456 0.0
C1323 C 0.90326 0.45188 0.15624 0.0
C1324 C 0.86968 0.45398 0.11018 0.0
C1325 C 0.84371 0.43282 0.11267 0.0
C1326 C 0.88244 0.44696 0.14157 0.0
C1327 C 0.83725 0.42044 0.13025 0.0
C1328 C 0.89788 0.43417 0.1711 0.0
C1329 C 0.94889 0.47723 0.16692 0.0
N1330 N 0.8566 0.42743 0.14398 0.0
N1331 N 0.92854 0.47287 0.15469 0.0
loop_
_geom_bond_atom_site_label_1
_geom_bond_atom_site_label_2
_geom_bond_distance
_geom_bond_site_symmetry_2
_ccdc_geom_bond_type
C0 C1 1.560 . S
C0 H61 0.959 . S
C0 H62 0.959 . S
C0 H63 0.960 . S
C1 C0 1.560 . S
C1 O56 1.426 . S
C1 H60 0.980 . S
C2 C3 1.407 . S
C2 C7 1.418 . S
C2 O56 1.334 . S
C3 C2 1.407 . S
C3 C4 1.360 . S
C3 H64 0.929 . S
C4 C3 1.360 . S
C4 C5 1.401 . S
C4 C8 1.527 . S
C5 C4 1.401 . S
C5 C6 1.405 . S
C5 C38 1.587 . S
C6 C5 1.405 . S
C6 C7 1.332 . S
C6 C9 1.496 . S
C7 C2 1.418 . S
C7 C6 1.332 . S
C7 H65 0.929 . S
C8 C4 1.527 . S
C8 H66 0.959 . S
C8 H67 0.961 . S
C8 H68 0.961 . S
C9 C6 1.496 . S
C9 H69 0.960 . S
C9 H70 0.960 . S
C9 H71 0.961 . S
C10 C11 1.517 . S
C10 H73 0.961 . S
C10 H74 0.960 . S
C10 H75 0.959 . S
C11 C10 1.517 . S
C11 O59 1.468 . S
C11 H72 0.980 . S
C12 C13 1.349 . S
C12 C17 1.367 . S
C12 O59 1.408 . S
C13 C12 1.349 . S
C13 C14 1.407 . S
C13 H76 0.930 . S
C14 C13 1.407 . S
C14 C15 1.449 . S
C14 C18 1.535 . S
C15 C14 1.449 . S
C15 C16 1.384 . S
C15 C40 1.553 1_655 S
C16 C15 1.384 . S
C16 C17 1.364 . S
C16 C19 1.450 . S
C17 C12 1.367 . S
C17 C16 1.364 . S
C17 H77 0.931 . S
C18 C14 1.535 . S
C18 H78 0.959 1_655 S
C18 H79 0.963 . S
C18 H80 0.959 . S
C19 C16 1.450 . S
C19 H81 0.960 . S
C19 H82 0.960 1_655 S
C19 H83 0.960 . S
C20 C21 1.309 . S
C20 C25 1.304 . S
C20 O58 1.435 . S
C21 C20 1.309 . S
C21 C22 1.476 . S
C21 H85 0.930 . S
C22 C21 1.476 . S
C22 C23 1.400 . S
C22 C26 1.567 . S
C23 C22 1.400 . S
C23 C24 1.373 . S
C23 C45 1.432 . S
C24 C23 1.373 . S
C24 C25 1.339 . S
C24 C27 1.530 . S
C25 C20 1.304 . S
C25 C24 1.339 . S
C25 H86 0.930 . S
C26 C22 1.567 . S
C26 H87 0.961 . S
C26 H88 0.960 . S
C26 H89 0.958 . S
C27 C24 1.530 . S
C27 H90 0.961 . S
C27 H91 0.960 . S
C27 H92 0.960 . S
C28 C29 1.530 . S
C28 H94 0.961 . S
C28 H95 0.961 . S
C28 H96 0.959 . S
C29 C28 1.530 . S
C29 O57 1.412 . S
C29 H93 0.980 . S
C30 C31 1.288 . S
C30 C35 1.377 . S
C30 O57 1.393 . S
C31 C30 1.288 . S
C31 C32 1.369 . S
C31 H97 0.932 . S
C32 C31 1.369 . S
C32 C33 1.398 . S
C32 C36 1.527 . S
C33 C32 1.398 . S
C33 C34 1.380 . S
C33 C47 1.497 . S
C34 C33 1.380 . S
C34 C35 1.383 . S
C34 C37 1.603 . S
C35 C30 1.377 . S
C35 C34 1.383 . S
C35 H98 0.929 . S
C36 C32 1.527 . S
C36 H99 0.961 . S
C36 H100 0.959 1_455 S
C36 H101 0.959 . S
C37 C34 1.603 . S
C37 H102 0.960 . S
C37 H103 0.962 . S
C37 H104 0.961 . S
C38 C5 1.587 . S
C38 C39 1.360 . S
C38 C51 1.412 . S
C39 C38 1.360 . S
C39 C40 1.365 . S
C39 H105 0.929 . S
C40 C15 1.553 1_455 S
C40 C39 1.365 . S
C40 C41 1.400 1_455 S
C41 C40 1.400 1_655 S
C41 C42 1.405 . S
C41 C52 1.446 1_655 S
C42 C41 1.405 . S
C42 C43 1.322 . S
C42 H106 0.930 . S
C43 C42 1.322 . S
C43 C44 1.459 . S
C43 H107 0.929 . S
C44 C43 1.459 . S
C44 C45 1.445 . S
C44 C53 1.395 1_655 S
C45 C23 1.432 . S
C45 C44 1.445 . S
C45 C46 1.370 . S
C46 C45 1.370 . S
C46 C47 1.438 1_655 S
C46 H108 0.930 . S
C47 C33 1.497 . S
C47 C46 1.438 1_455 S
C47 C48 1.360 . S
C48 C47 1.360 . S
C48 C49 1.401 . S
C48 C53 1.446 . S
C49 C48 1.401 . S
C49 C50 1.347 . S
C49 H109 0.929 . S
C50 C49 1.347 . S
C50 C51 1.455 . S
C50 H110 0.930 . S
C51 C38 1.412 . S
C51 C50 1.455 . S
C51 C52 1.331 . S
C52 C41 1.446 1_455 S
C52 C51 1.331 . S
C52 C53 1.497 . S
C53 C44 1.395 1_455 S
C53 C48 1.446 . S
C53 C52 1.497 . S
C54 C55 1.582 . S
C54 H111 0.962 . S
C54 H112 0.959 . S
C54 H113 0.958 . S
C55 C54 1.582 . S
C55 O58 1.458 . S
C55 H84 0.980 . S
O56 C1 1.426 . S
O56 C2 1.334 . S
O57 C29 1.412 . S
O57 C30 1.393 . S
O58 C20 1.435 . S
O58 C55 1.458 . S
O59 C11 1.468 . S
O59 C12 1.408 . S
H60 C1 0.980 . S
H61 C0 0.959 . S
H62 C0 0.959 . S
H63 C0 0.960 . S
H64 C3 0.929 . S
H65 C7 0.929 . S
H66 C8 0.959 . S
H67 C8 0.961 . S
H68 C8 0.961 . S
H69 C9 0.960 . S
H70 C9 0.960 . S
H71 C9 0.961 . S
H72 C11 0.980 . S
H73 C10 0.961 . S
H74 C10 0.960 . S
H75 C10 0.959 . S
H76 C13 0.930 . S
H77 C17 0.931 . S
H78 C18 0.959 1_455 S
H79 C18 0.963 . S
H80 C18 0.959 . S
H81 C19 0.960 . S
H82 C19 0.960 1_455 S
H83 C19 0.960 . S
H84 C55 0.980 . S
H85 C21 0.930 . S
H86 C25 0.930 . S
H87 C26 0.961 . S
H88 C26 0.960 . S
H89 C26 0.958 . S
H90 C27 0.961 . S
H91 C27 0.960 . S
H92 C27 0.960 . S
H93 C29 0.980 . S
H94 C28 0.961 . S
H95 C28 0.961 . S
H96 C28 0.959 . S
H97 C31 0.932 . S
H98 C35 0.929 . S
H99 C36 0.961 . S
H100 C36 0.959 1_655 S
H101 C36 0.959 . S
H102 C37 0.960 . S
H103 C37 0.962 . S
H104 C37 0.961 . S
H105 C39 0.929 . S
H106 C42 0.930 . S
H107 C43 0.929 . S
H108 C46 0.930 . S
H109 C49 0.929 . S
H110 C50 0.930 . S
H111 C54 0.962 . S
H112 C54 0.959 . S
H113 C54 0.958 . S
C114 C115 1.560 . S
C114 H175 0.959 . S
C114 H176 0.959 . S
C114 H177 0.960 . S
C115 C114 1.560 . S
C115 O170 1.426 . S
C115 H174 0.980 . S
C116 C117 1.407 . S
C116 C121 1.418 . S
C116 O170 1.334 . S
C117 C116 1.407 . S
C117 C118 1.360 . S
C117 H178 0.929 . S
C118 C117 1.360 . S
C118 C119 1.401 . S
C118 C122 1.527 . S
C119 C118 1.401 . S
C119 C120 1.405 . S
C119 C152 1.587 . S
C120 C119 1.405 . S
C120 C121 1.332 . S
C120 C123 1.496 . S
C121 C116 1.418 . S
C121 C120 1.332 . S
C121 H179 0.929 . S
C122 C118 1.527 . S
C122 H180 0.959 . S
C122 H181 0.961 . S
C122 H182 0.961 . S
C123 C120 1.496 . S
C123 H183 0.960 . S
C123 H184 0.960 . S
C123 H185 0.961 . S
C124 C125 1.517 . S
C124 H187 0.961 . S
C124 H188 0.960 . S
C124 H189 0.959 . S
C125 C124 1.517 . S
C125 O173 1.468 . S
C125 H186 0.980 . S
C126 C127 1.349 . S
C126 C131 1.367 . S
C126 O173 1.408 . S
C127 C126 1.349 . S
C127 C128 1.407 . S
C127 H190 0.930 . S
C128 C127 1.407 . S
C128 C129 1.449 . S
C128 C132 1.535 . S
C129 C128 1.449 . S
C129 C130 1.384 . S
C129 C154 1.553 . S
C130 C129 1.384 . S
C130 C131 1.364 . S
C130 C133 1.450 . S
C131 C126 1.367 . S
C131 C130 1.364 . S
C131 H191 0.931 . S
C132 C128 1.535 . S
C132 H192 0.959 . S
C132 H193 0.961 . S
C132 H194 0.959 . S
C133 C130 1.450 . S
C133 H195 0.960 . S
C133 H196 0.960 . S
C133 H197 0.960 . S
C134 C135 1.309 . S
C134 C139 1.304 . S
C134 O172 1.435 . S
C135 C134 1.309 . S
C135 C136 1.476 . S
C135 H199 0.930 . S
C136 C135 1.476 . S
C136 C137 1.400 . S
C136 C140 1.567 . S
C137 C136 1.400 . S
C137 C138 1.373 . S
C137 C159 1.432 . S
C138 C137 1.373 . S
C138 C139 1.339 . S
C138 C141 1.530 . S
C139 C134 1.304 . S
C139 C138 1.339 . S
C139 H200 0.930 . S
C140 C136 1.567 . S
C140 H201 0.961 . S
C140 H202 0.960 . S
C140 H203 0.958 . S
C141 C138 1.530 . S
C141 H204 0.961 . S
C141 H205 0.960 . S
C141 H206 0.960 . S
C142 C143 1.530 . S
C142 H208 0.961 . S
C142 H209 0.961 . S
C142 H210 0.959 . S
C143 C142 1.530 . S
C143 O171 1.412 . S
C143 H207 0.980 . S
C144 C145 1.288 . S
C144 C149 1.377 . S
C144 O171 1.393 . S
C145 C144 1.288 . S
C145 C146 1.369 . S
C145 H211 0.932 . S
C146 C145 1.369 . S
C146 C147 1.398 . S
C146 C150 1.527 1_565 S
C147 C146 1.398 . S
C147 C148 1.380 . S
C147 C161 1.497 1_565 S
C148 C147 1.380 . S
C148 C149 1.383 . S
C148 C151 1.603 . S
C149 C144 1.377 . S
C149 C148 1.383 . S
C149 H212 0.929 . S
C150 C146 1.527 1_545 S
C150 H213 0.961 . S
C150 H214 0.959 . S
C150 H215 0.959 . S
C151 C148 1.603 . S
C151 H216 0.960 . S
C151 H217 0.962 1_565 S
C151 H218 0.961 . S
C152 C119 1.587 . S
C152 C153 1.360 . S
C152 C165 1.412 . S
C153 C152 1.360 . S
C153 C154 1.365 1_565 S
C153 H219 0.929 . S
C154 C129 1.553 . S
C154 C153 1.365 1_545 S
C154 C155 1.404 . S
C155 C154 1.404 . S
C155 C156 1.395 . S
C155 C166 1.451 . S
C156 C155 1.395 . S
C156 C157 1.322 . S
C156 H220 0.930 . S
C157 C156 1.322 . S
C157 C158 1.459 . S
C157 H221 0.929 . S
C158 C157 1.459 . S
C158 C159 1.445 . S
C158 C167 1.395 . S
C159 C137 1.432 . S
C159 C158 1.445 . S
C159 C160 1.370 . S
C160 C159 1.370 . S
C160 C161 1.438 . S
C160 H222 0.930 . S
C161 C147 1.497 1_545 S
C161 C160 1.438 . S
C161 C162 1.360 . S
C162 C161 1.360 . S
C162 C163 1.401 1_545 S
C162 C167 1.446 . S
C163 C162 1.401 1_565 S
C163 C164 1.347 . S
C163 H223 0.929 . S
C164 C163 1.347 . S
C164 C165 1.455 . S
C164 H224 0.930 . S
C165 C152 1.412 . S
C165 C164 1.455 . S
C165 C166 1.331 1_565 S
C166 C155 1.451 . S
C166 C165 1.331 1_545 S
C166 C167 1.497 . S
C167 C158 1.395 . S
C167 C162 1.446 . S
C167 C166 1.497 . S
C168 C169 1.582 . S
C168 H225 0.962 . S
C168 H226 0.959 . S
C168 H227 0.958 . S
C169 C168 1.582 . S
C169 O172 1.458 . S
C169 H198 0.980 . S
O170 C115 1.426 . S
O170 C116 1.334 . S
O171 C143 1.412 . S
O171 C144 1.393 . S
O172 C134 1.435 . S
O172 C169 1.458 . S
O173 C125 1.468 . S
O173 C126 1.408 . S
H174 C115 0.980 . S
H175 C114 0.959 . S
H176 C114 0.959 . S
H177 C114 0.960 . S
H178 C117 0.929 . S
H179 C121 0.929 . S
H180 C122 0.959 . S
H181 C122 0.961 . S
H182 C122 0.961 . S
H183 C123 0.960 . S
H184 C123 0.960 . S
H185 C123 0.961 . S
H186 C125 0.980 . S
H187 C124 0.961 . S
H188 C124 0.960 . S
H189 C124 0.959 . S
H190 C127 0.930 . S
H191 C131 0.931 . S
H192 C132 0.959 . S
H193 C132 0.961 . S
H194 C132 0.959 . S
H195 C133 0.960 . S
H196 C133 0.960 . S
H197 C133 0.960 . S
H198 C169 0.980 . S
H199 C135 0.930 . S
H200 C139 0.930 . S
H201 C140 0.961 . S
H202 C140 0.960 . S
H203 C140 0.958 . S
H204 C141 0.961 . S
H205 C141 0.960 . S
H206 C141 0.960 . S
H207 C143 0.980 . S
H208 C142 0.961 . S
H209 C142 0.961 . S
H210 C142 0.959 . S
H211 C145 0.932 . S
H212 C149 0.929 . S
H213 C150 0.961 . S
H214 C150 0.959 . S
H215 C150 0.959 . S
H216 C151 0.960 . S
H217 C151 0.962 1_545 S
H218 C151 0.961 . S
H219 C153 0.929 . S
H220 C156 0.930 . S
H221 C157 0.929 . S
H222 C160 0.930 . S
H223 C163 0.929 . S
H224 C164 0.930 . S
H225 C168 0.962 . S
H226 C168 0.959 . S
H227 C168 0.958 . S
C228 C229 1.560 . S
C228 H289 0.959 . S
C228 H290 0.959 . S
C228 H291 0.960 . S
C229 C228 1.560 . S
C229 O284 1.426 . S
C229 H288 0.980 . S
C230 C231 1.407 . S
C230 C235 1.418 . S
C230 O284 1.334 . S
C231 C230 1.407 . S
C231 C232 1.360 . S
C231 H292 0.929 . S
C232 C231 1.360 . S
C232 C233 1.401 . S
C232 C236 1.527 . S
C233 C232 1.401 . S
C233 C234 1.405 . S
C233 C266 1.587 . S
C234 C233 1.405 . S
C234 C235 1.332 . S
C234 C237 1.496 . S
C235 C230 1.418 . S
C235 C234 1.332 . S
C235 H293 0.929 . S
C236 C232 1.527 . S
C236 H294 0.959 . S
C236 H295 0.961 . S
C236 H296 0.961 . S
C237 C234 1.496 . S
C237 H297 0.960 . S
C237 H298 0.960 . S
C237 H299 0.961 . S
C238 C239 1.517 . S
C238 H301 0.961 . S
C238 H302 0.960 . S
C238 H303 0.959 . S
C239 C238 1.517 . S
C239 O287 1.468 . S
C239 H300 0.980 . S
C240 C241 1.349 . S
C240 C245 1.367 . S
C240 O287 1.408 . S
C241 C240 1.349 . S
C241 C242 1.407 . S
C241 H304 0.930 . S
C242 C241 1.407 . S
C242 C243 1.449 . S
C242 C246 1.535 . S
C243 C242 1.449 . S
C243 C244 1.384 . S
C243 C268 1.553 . S
C244 C243 1.384 . S
C244 C245 1.364 . S
C244 C247 1.450 . S
C245 C240 1.367 . S
C245 C244 1.364 . S
C245 H305 0.931 . S
C246 C242 1.535 . S
C246 H306 0.959 . S
C246 H307 0.961 . S
C246 H308 0.959 . S
C247 C244 1.450 . S
C247 H309 0.960 . S
C247 H310 0.960 . S
C247 H311 0.960 . S
C248 C249 1.309 . S
C248 C253 1.304 . S
C248 O286 1.435 . S
C249 C248 1.309 . S
C249 C250 1.476 . S
C249 H313 0.930 . S
C250 C249 1.476 . S
C250 C251 1.400 . S
C250 C254 1.567 . S
C251 C250 1.400 . S
C251 C252 1.373 . S
C251 C273 1.432 . S
C252 C251 1.373 . S
C252 C253 1.339 . S
C252 C255 1.530 . S
C253 C248 1.304 . S
C253 C252 1.339 . S
C253 H314 0.930 . S
C254 C250 1.567 . S
C254 H315 0.961 . S
C254 H316 0.960 . S
C254 H317 0.958 . S
C255 C252 1.530 . S
C255 H318 0.961 . S
C255 H319 0.960 . S
C255 H320 0.960 . S
C256 C257 1.530 . S
C256 H322 0.961 . S
C256 H323 0.961 . S
C256 H324 0.959 . S
C257 C256 1.530 . S
C257 O285 1.412 . S
C257 H321 0.980 . S
C258 C259 1.288 . S
C258 C263 1.377 . S
C258 O285 1.393 . S
C259 C258 1.288 . S
C259 C260 1.369 . S
C259 H325 0.932 . S
C260 C259 1.369 . S
C260 C261 1.398 . S
C260 C264 1.527 . S
C261 C260 1.398 . S
C261 C262 1.380 . S
C261 C275 1.497 . S
C262 C261 1.380 . S
C262 C263 1.383 . S
C262 C265 1.603 . S
C263 C258 1.377 . S
C263 C262 1.383 . S
C263 H326 0.929 . S
C264 C260 1.527 . S
C264 H327 0.961 . S
C264 H328 0.959 . S
C264 H329 0.959 . S
C265 C262 1.603 . S
C265 H330 0.960 . S
C265 H331 0.962 . S
C265 H332 0.961 . S
C266 C233 1.587 . S
C266 C267 1.360 . S
C266 C279 1.412 . S
C267 C266 1.360 . S
C267 C268 1.365 . S
C267 H333 0.929 . S
C268 C243 1.553 . S
C268 C267 1.365 . S
C268 C269 1.404 . S
C269 C268 1.404 . S
C269 C270 1.395 . S
C269 C280 1.451 . S
C270 C269 1.395 . S
C270 C271 1.322 . S
C270 H334 0.930 . S
C271 C270 1.322 . S
C271 C272 1.459 . S
C271 H335 0.929 . S
C272 C271 1.459 . S
C272 C273 1.445 . S
C272 C281 1.395 . S
C273 C251 1.432 . S
C273 C272 1.445 . S
C273 C274 1.370 . S
C274 C273 1.370 . S
C274 C275 1.438 . S
C274 H336 0.930 . S
C275 C261 1.497 . S
C275 C274 1.438 . S
C275 C276 1.360 . S
C276 C275 1.360 . S
C276 C277 1.401 . S
C276 C281 1.446 . S
C277 C276 1.401 . S
C277 C278 1.347 . S
C277 H337 0.929 . S
C278 C277 1.347 . S
C278 C279 1.455 . S
C278 H338 0.930 . S
C279 C266 1.412 . S
C279 C278 1.455 . S
C279 C280 1.331 . S
C280 C269 1.451 . S
C280 C279 1.331 . S
C280 C281 1.497 . S
C281 C272 1.395 . S
C281 C276 1.446 . S
C281 C280 1.497 . S
C282 C283 1.582 . S
C282 H339 0.962 . S
C282 H340 0.959 . S
C282 H341 0.958 . S
C283 C282 1.582 . S
C283 O286 1.458 . S
C283 H312 0.980 . S
O284 C229 1.426 . S
O284 C230 1.334 . S
O285 C257 1.412 . S
O285 C258 1.393 . S
O286 C248 1.435 . S
O286 C283 1.458 . S
O287 C239 1.468 . S
O287 C240 1.408 . S
H288 C229 0.980 . S
H289 C228 0.959 . S
H290 C228 0.959 . S
H291 C228 0.960 . S
H292 C231 0.929 . S
H293 C235 0.929 . S
H294 C236 0.959 . S
H295 C236 0.961 . S
H296 C236 0.961 . S
H297 C237 0.960 . S
H298 C237 0.960 . S
H299 C237 0.961 . S
H300 C239 0.980 . S
H301 C238 0.961 . S
H302 C238 0.960 . S
H303 C238 0.959 . S
H304 C241 0.930 . S
H305 C245 0.931 . S
H306 C246 0.959 . S
H307 C246 0.961 . S
H308 C246 0.959 . S
H309 C247 0.960 . S
H310 C247 0.960 . S
H311 C247 0.960 . S
H312 C283 0.980 . S
H313 C249 0.930 . S
H314 C253 0.930 . S
H315 C254 0.961 . S
H316 C254 0.960 . S
H317 C254 0.958 . S
H318 C255 0.961 . S
H319 C255 0.960 . S
H320 C255 0.960 . S
H321 C257 0.980 . S
H322 C256 0.961 . S
H323 C256 0.961 . S
H324 C256 0.959 . S
H325 C259 0.932 . S
H326 C263 0.929 . S
H327 C264 0.961 . S
H328 C264 0.959 . S
H329 C264 0.959 . S
H330 C265 0.960 . S
H331 C265 0.962 . S
H332 C265 0.961 . S
H333 C267 0.929 . S
H334 C270 0.930 . S
H335 C271 0.929 . S
H336 C274 0.930 . S
H337 C277 0.929 . S
H338 C278 0.930 . S
H339 C282 0.962 . S
H340 C282 0.959 . S
H341 C282 0.958 . S
C342 C343 1.560 . S
C342 H403 0.959 . S
C342 H404 0.959 . S
C342 H405 0.960 . S
C343 C342 1.560 . S
C343 O398 1.426 . S
C343 H402 0.980 . S
C344 C345 1.407 . S
C344 C349 1.418 . S
C344 O398 1.334 . S
C345 C344 1.407 . S
C345 C346 1.360 . S
C345 H406 0.929 . S
C346 C345 1.360 . S
C346 C347 1.401 . S
C346 C350 1.527 . S
C347 C346 1.401 . S
C347 C348 1.405 . S
C347 C380 1.587 . S
C348 C347 1.405 . S
C348 C349 1.332 . S
C348 C351 1.496 . S
C349 C344 1.418 . S
C349 C348 1.332 . S
C349 H407 0.929 . S
C350 C346 1.527 . S
C350 H408 0.959 . S
C350 H409 0.961 . S
C350 H410 0.961 . S
C351 C348 1.496 . S
C351 H411 0.960 . S
C351 H412 0.960 . S
C351 H413 0.961 . S
C352 C353 1.517 . S
C352 H415 0.961 . S
C352 H416 0.960 . S
C352 H417 0.959 . S
C353 C352 1.517 . S
C353 O401 1.468 . S
C353 H414 0.980 . S
C354 C355 1.349 . S
C354 C359 1.367 . S
C354 O401 1.408 . S
C355 C354 1.349 . S
C355 C356 1.407 . S
C355 H418 0.930 . S
C356 C355 1.407 . S
C356 C357 1.447 . S
C356 C360 1.535 1_655 S
C357 C356 1.447 . S
C357 C358 1.393 . S
C357 C382 1.547 1_655 S
C358 C357 1.393 . S
C358 C359 1.364 . S
C358 C361 1.446 . S
C359 C354 1.367 . S
C359 C358 1.364 . S
C359 H419 0.931 . S
C360 C356 1.535 1_455 S
C360 H420 0.959 . S
C360 H421 0.961 . S
C360 H422 0.959 1_455 S
C361 C358 1.446 . S
C361 H423 0.987 . S
C361 H424 0.921 1_655 S
C361 H425 0.978 . S
C362 C363 1.309 . S
C362 C367 1.304 . S
C362 O400 1.435 . S
C363 C362 1.309 . S
C363 C364 1.476 . S
C363 H427 0.930 . S
C364 C363 1.476 . S
C364 C365 1.400 . S
C364 C368 1.567 . S
C365 C364 1.400 . S
C365 C366 1.373 . S
C365 C387 1.432 . S
C366 C365 1.373 . S
C366 C367 1.339 . S
C366 C369 1.530 . S
C367 C362 1.304 . S
C367 C366 1.339 . S
C367 H428 0.930 . S
C368 C364 1.567 . S
C368 H429 0.961 . S
C368 H430 0.960 . S
C368 H431 0.958 . S
C369 C366 1.530 . S
C369 H432 0.961 . S
C369 H433 0.960 . S
C369 H434 0.960 . S
C370 C371 1.530 . S
C370 H436 0.961 . S
C370 H437 0.961 . S
C370 H438 0.959 . S
C371 C370 1.530 . S
C371 O399 1.412 . S
C371 H435 0.980 . S
C372 C373 1.288 . S
C372 C377 1.377 . S
C372 O399 1.393 . S
C373 C372 1.288 . S
C373 C374 1.369 . S
C373 H439 0.932 . S
C374 C373 1.369 . S
C374 C375 1.398 . S
C374 C378 1.527 . S
C375 C374 1.398 . S
C375 C376 1.380 . S
C375 C389 1.497 . S
C376 C375 1.380 . S
C376 C377 1.383 . S
C376 C379 1.603 . S
C377 C372 1.377 . S
C377 C376 1.383 . S
C377 H440 0.929 . S
C378 C374 1.527 . S
C378 H441 0.961 . S
C378 H442 0.959 . S
C378 H443 0.959 . S
C379 C376 1.603 . S
C379 H444 0.960 . S
C379 H445 0.962 . S
C379 H446 0.961 . S
C380 C347 1.587 . S
C380 C381 1.360 . S
C380 C393 1.412 . S
C381 C380 1.360 . S
C381 C382 1.365 . S
C381 H447 0.929 . S
C382 C357 1.547 1_455 S
C382 C381 1.365 . S
C382 C383 1.404 . S
C383 C382 1.404 . S
C383 C384 1.395 1_455 S
C383 C394 1.451 . S
C384 C383 1.395 1_655 S
C384 C385 1.322 . S
C384 H448 0.930 . S
C385 C384 1.322 . S
C385 C386 1.459 . S
C385 H449 0.929 . S
C386 C385 1.459 . S
C386 C387 1.445 . S
C386 C395 1.395 1_655 S
C387 C365 1.432 . S
C387 C386 1.445 . S
C387 C388 1.370 . S
C388 C387 1.370 . S
C388 C389 1.438 1_655 S
C388 H450 0.930 . S
C389 C375 1.497 . S
C389 C388 1.438 1_455 S
C389 C390 1.360 . S
C390 C389 1.360 . S
C390 C391 1.401 . S
C390 C395 1.446 . S
C391 C390 1.401 . S
C391 C392 1.347 . S
C391 H451 0.929 . S
C392 C391 1.347 . S
C392 C393 1.455 . S
C392 H452 0.930 . S
C393 C380 1.412 . S
C393 C392 1.455 . S
C393 C394 1.331 . S
C394 C383 1.451 . S
C394 C393 1.331 . S
C394 C395 1.497 . S
C395 C386 1.395 1_455 S
C395 C390 1.446 . S
C395 C394 1.497 . S
C396 C397 1.582 . S
C396 H453 0.962 . S
C396 H454 0.959 . S
C396 H455 0.958 . S
C397 C396 1.582 . S
C397 O400 1.458 . S
C397 H426 0.980 . S
O398 C343 1.426 . S
O398 C344 1.334 . S
O399 C371 1.412 . S
O399 C372 1.393 . S
O400 C362 1.435 . S
O400 C397 1.458 . S
O401 C353 1.468 . S
O401 C354 1.408 . S
H402 C343 0.980 . S
H403 C342 0.959 . S
H404 C342 0.959 . S
H405 C342 0.960 . S
H406 C345 0.929 . S
H407 C349 0.929 . S
H408 C350 0.959 . S
H409 C350 0.961 . S
H410 C350 0.961 . S
H411 C351 0.960 . S
H412 C351 0.960 . S
H413 C351 0.961 . S
H414 C353 0.980 . S
H415 C352 0.961 . S
H416 C352 0.960 . S
H417 C352 0.959 . S
H418 C355 0.930 . S
H419 C359 0.931 . S
H420 C360 0.959 . S
H421 C360 0.961 . S
H422 C360 0.959 1_655 S
H423 C361 0.987 . S
H424 C361 0.921 1_455 S
H425 C361 0.978 . S
H426 C397 0.980 . S
H427 C363 0.930 . S
H428 C367 0.930 . S
H429 C368 0.961 . S
H430 C368 0.960 . S
H431 C368 0.958 . S
H432 C369 0.961 . S
H433 C369 0.960 . S
H434 C369 0.960 . S
H435 C371 0.980 . S
H436 C370 0.961 . S
H437 C370 0.961 . S
H438 C370 0.959 . S
H439 C373 0.932 . S
H440 C377 0.929 . S
H441 C378 0.961 . S
H442 C378 0.959 . S
H443 C378 0.959 . S
H444 C379 0.960 . S
H445 C379 0.962 . S
H446 C379 0.961 . S
H447 C381 0.929 . S
H448 C384 0.930 . S
H449 C385 0.929 . S
H450 C388 0.930 . S
H451 C391 0.929 . S
H452 C392 0.930 . S
H453 C396 0.962 . S
H454 C396 0.959 . S
H455 C396 0.958 . S
C456 C457 1.560 . S
C456 H517 0.959 . S
C456 H518 0.959 . S
C456 H519 0.960 . S
C457 C456 1.560 . S
C457 O512 1.426 . S
C457 H516 0.980 . S
C458 C459 1.407 . S
C458 C463 1.418 . S
C458 O512 1.334 . S
C459 C458 1.407 . S
C459 C460 1.360 . S
C459 H520 0.929 . S
C460 C459 1.360 . S
C460 C461 1.401 . S
C460 C464 1.527 . S
C461 C460 1.401 . S
C461 C462 1.405 . S
C461 C494 1.587 . S
C462 C461 1.405 . S
C462 C463 1.332 . S
C462 C465 1.496 . S
C463 C458 1.418 . S
C463 C462 1.332 . S
C463 H521 0.929 . S
C464 C460 1.527 . S
C464 H522 0.959 . S
C464 H523 0.961 . S
C464 H524 0.961 . S
C465 C462 1.496 . S
C465 H525 0.960 . S
C465 H526 0.960 . S
C465 H527 0.961 . S
C466 C467 1.517 . S
C466 H529 0.961 . S
C466 H530 0.960 . S
C466 H531 0.959 . S
C467 C466 1.517 . S
C467 O515 1.468 . S
C467 H528 0.980 . S
C468 C469 1.349 . S
C468 C473 1.367 . S
C468 O515 1.408 . S
C469 C468 1.349 . S
C469 C470 1.407 . S
C469 H532 0.930 . S
C470 C469 1.407 . S
C470 C471 1.449 . S
C470 C474 1.535 . S
C471 C470 1.449 . S
C471 C472 1.384 . S
C471 C496 1.553 . S
C472 C471 1.384 . S
C472 C473 1.364 . S
C472 C475 1.450 . S
C473 C468 1.367 . S
C473 C472 1.364 . S
C473 H533 0.931 . S
C474 C470 1.535 . S
C474 H534 0.959 . S
C474 H535 0.961 . S
C474 H536 0.959 . S
C475 C472 1.450 . S
C475 H537 0.960 . S
C475 H538 0.960 . S
C475 H539 0.960 . S
C476 C477 1.309 . S
C476 C481 1.304 . S
C476 O514 1.435 . S
C477 C476 1.309 . S
C477 C478 1.476 . S
C477 H541 0.930 . S
C478 C477 1.476 . S
C478 C479 1.400 . S
C478 C482 1.567 . S
C479 C478 1.400 . S
C479 C480 1.373 . S
C479 C501 1.432 . S
C480 C479 1.373 . S
C480 C481 1.339 . S
C480 C483 1.530 . S
C481 C476 1.304 . S
C481 C480 1.339 . S
C481 H542 0.930 . S
C482 C478 1.567 . S
C482 H543 0.961 . S
C482 H544 0.960 . S
C482 H545 0.958 . S
C483 C480 1.530 . S
C483 H546 0.961 . S
C483 H547 0.960 . S
C483 H548 0.960 . S
C484 C485 1.530 . S
C484 H550 0.961 . S
C484 H551 0.961 . S
C484 H552 0.959 . S
C485 C484 1.530 . S
C485 O513 1.412 . S
C485 H549 0.980 . S
C486 C487 1.288 . S
C486 C491 1.377 . S
C486 O513 1.393 . S
C487 C486 1.288 . S
C487 C488 1.369 1_565 S
C487 H553 0.932 . S
C488 C487 1.369 1_545 S
C488 C489 1.398 . S
C488 C492 1.527 . S
C489 C488 1.398 . S
C489 C490 1.380 1_545 S
C489 C503 1.497 . S
C490 C489 1.380 1_565 S
C490 C491 1.383 . S
C490 C493 1.603 . S
C491 C486 1.377 . S
C491 C490 1.383 . S
C491 H554 0.929 . S
C492 C488 1.527 . S
C492 H555 0.961 . S
C492 H556 0.959 . S
C492 H557 0.959 . S
C493 C490 1.603 . S
C493 H558 0.960 . S
C493 H559 0.962 1_565 S
C493 H560 0.961 . S
C494 C461 1.587 . S
C494 C495 1.360 . S
C494 C507 1.412 . S
C495 C494 1.360 . S
C495 C496 1.365 1_565 S
C495 H561 0.929 . S
C496 C471 1.553 . S
C496 C495 1.365 1_545 S
C496 C497 1.404 . S
C497 C496 1.404 . S
C497 C498 1.395 . S
C497 C508 1.451 . S
C498 C497 1.395 . S
C498 C499 1.322 . S
C498 H562 0.930 . S
C499 C498 1.322 . S
C499 C500 1.489 . S
C499 H563 0.929 . S
C500 C499 1.489 . S
C500 C501 1.411 1_556 S
C500 C509 1.400 . S
C501 C479 1.432 . S
C501 C500 1.411 1_554 S
C501 C502 1.370 . S
C502 C501 1.370 . S
C502 C503 1.438 . S
C502 H564 0.930 . S
C503 C489 1.497 . S
C503 C502 1.438 . S
C503 C504 1.360 . S
C504 C503 1.360 . S
C504 C505 1.401 1_545 S
C504 C509 1.446 1_554 S
C505 C504 1.401 1_565 S
C505 C506 1.347 1_554 S
C505 H565 0.929 . S
C506 C505 1.347 1_556 S
C506 C507 1.455 . S
C506 H566 0.930 . S
C507 C494 1.412 . S
C507 C506 1.455 . S
C507 C508 1.331 1_565 S
C508 C497 1.451 . S
C508 C507 1.331 1_545 S
C508 C509 1.497 . S
C509 C500 1.400 . S
C509 C504 1.446 1_556 S
C509 C508 1.497 . S
C510 C511 1.582 . S
C510 H567 0.962 . S
C510 H568 0.959 . S
C510 H569 0.958 . S
C511 C510 1.582 . S
C511 O514 1.458 . S
C511 H540 0.980 . S
O512 C457 1.426 . S
O512 C458 1.334 . S
O513 C485 1.412 . S
O513 C486 1.393 . S
O514 C476 1.435 . S
O514 C511 1.458 . S
O515 C467 1.468 . S
O515 C468 1.408 . S
H516 C457 0.980 . S
H517 C456 0.959 . S
H518 C456 0.959 . S
H519 C456 0.960 . S
H520 C459 0.929 . S
H521 C463 0.929 . S
H522 C464 0.959 . S
H523 C464 0.961 . S
H524 C464 0.961 . S
H525 C465 0.960 . S
H526 C465 0.960 . S
H527 C465 0.961 . S
H528 C467 0.980 . S
H529 C466 0.961 . S
H530 C466 0.960 . S
H531 C466 0.959 . S
H532 C469 0.930 . S
H533 C473 0.931 . S
H534 C474 0.959 . S
H535 C474 0.961 . S
H536 C474 0.959 . S
H537 C475 0.960 . S
H538 C475 0.960 . S
H539 C475 0.960 . S
H540 C511 0.980 . S
H541 C477 0.930 . S
H542 C481 0.930 . S
H543 C482 0.961 . S
H544 C482 0.960 . S
H545 C482 0.958 . S
H546 C483 0.961 . S
H547 C483 0.960 . S
H548 C483 0.960 . S
H549 C485 0.980 . S
H550 C484 0.961 . S
H551 C484 0.961 . S
H552 C484 0.959 . S
H553 C487 0.932 . S
H554 C491 0.929 . S
H555 C492 0.961 . S
H556 C492 0.959 . S
H557 C492 0.959 . S
H558 C493 0.960 . S
H559 C493 0.962 1_545 S
H560 C493 0.961 . S
H561 C495 0.929 . S
H562 C498 0.930 . S
H563 C499 0.929 . S
H564 C502 0.930 . S
H565 C505 0.929 . S
H566 C506 0.930 . S
H567 C510 0.962 . S
H568 C510 0.959 . S
H569 C510 0.958 . S
C570 C571 1.560 . S
C570 H631 0.959 . S
C570 H632 0.959 . S
C570 H633 0.960 . S
C571 C570 1.560 . S
C571 O626 1.426 . S
C571 H630 0.980 . S
C572 C573 1.407 . S
C572 C577 1.418 . S
C572 O626 1.334 . S
C573 C572 1.407 . S
C573 C574 1.360 . S
C573 H634 0.929 . S
C574 C573 1.360 . S
C574 C575 1.401 . S
C574 C578 1.527 . S
C575 C574 1.401 . S
C575 C576 1.405 . S
C575 C608 1.587 . S
C576 C575 1.405 . S
C576 C577 1.332 . S
C576 C579 1.496 . S
C577 C572 1.418 . S
C577 C576 1.332 . S
C577 H635 0.929 . S
C578 C574 1.527 . S
C578 H636 0.959 . S
C578 H637 0.961 . S
C578 H638 0.961 . S
C579 C576 1.496 . S
C579 H639 0.960 . S
C579 H640 0.960 . S
C579 H641 0.961 . S
C580 C581 1.517 . S
C580 H643 0.961 . S
C580 H644 0.960 . S
C580 H645 0.959 . S
C581 C580 1.517 . S
C581 O629 1.468 . S
C581 H642 0.980 . S
C582 C583 1.349 . S
C582 C587 1.367 . S
C582 O629 1.408 . S
C583 C582 1.349 . S
C583 C584 1.407 . S
C583 H646 0.930 . S
C584 C583 1.407 . S
C584 C585 1.449 . S
C584 C588 1.535 . S
C585 C584 1.449 . S
C585 C586 1.384 . S
C585 C610 1.553 . S
C586 C585 1.384 . S
C586 C587 1.364 . S
C586 C589 1.450 . S
C587 C582 1.367 . S
C587 C586 1.364 . S
C587 H647 0.931 . S
C588 C584 1.535 . S
C588 H648 0.959 . S
C588 H649 0.961 . S
C588 H650 0.959 . S
C589 C586 1.450 . S
C589 H651 0.960 . S
C589 H652 0.960 . S
C589 H653 0.960 . S
C590 C591 1.309 . S
C590 C595 1.304 . S
C590 O628 1.435 . S
C591 C590 1.309 . S
C591 C592 1.476 . S
C591 H655 0.930 . S
C592 C591 1.476 . S
C592 C593 1.400 . S
C592 C596 1.567 . S
C593 C592 1.400 . S
C593 C594 1.373 . S
C593 C615 1.432 . S
C594 C593 1.373 . S
C594 C595 1.339 . S
C594 C597 1.530 . S
C595 C590 1.304 . S
C595 C594 1.339 . S
C595 H656 0.930 . S
C596 C592 1.567 . S
C596 H657 0.961 . S
C596 H658 0.960 . S
C596 H659 0.958 . S
C597 C594 1.530 . S
C597 H660 0.961 . S
C597 H661 0.960 . S
C597 H662 0.960 . S
C598 C599 1.530 . S
C598 H664 0.961 . S
C598 H665 0.961 . S
C598 H666 0.959 . S
C599 C598 1.530 . S
C599 O627 1.412 . S
C599 H663 0.980 . S
C600 C601 1.288 . S
C600 C605 1.377 . S
C600 O627 1.393 . S
C601 C600 1.288 . S
C601 C602 1.369 . S
C601 H667 0.932 . S
C602 C601 1.369 . S
C602 C603 1.398 . S
C602 C606 1.527 . S
C603 C602 1.398 . S
C603 C604 1.380 . S
C603 C617 1.497 . S
C604 C603 1.380 . S
C604 C605 1.383 . S
C604 C607 1.603 . S
C605 C600 1.377 . S
C605 C604 1.383 . S
C605 H668 0.929 . S
C606 C602 1.527 . S
C606 H669 0.961 . S
C606 H670 0.959 . S
C606 H671 0.959 . S
C607 C604 1.603 . S
C607 H672 0.960 . S
C607 H673 0.962 . S
C607 H674 0.961 . S
C608 C575 1.587 . S
C608 C609 1.360 . S
C608 C621 1.412 . S
C609 C608 1.360 . S
C609 C610 1.365 . S
C609 H675 0.929 . S
C610 C585 1.553 . S
C610 C609 1.365 . S
C610 C611 1.404 . S
C611 C610 1.404 . S
C611 C612 1.395 . S
C611 C622 1.451 . S
C612 C611 1.395 . S
C612 C613 1.322 . S
C612 H676 0.930 . S
C613 C612 1.322 . S
C613 C614 1.459 . S
C613 H677 0.929 . S
C614 C613 1.459 . S
C614 C615 1.445 . S
C614 C623 1.395 . S
C615 C593 1.432 . S
C615 C614 1.445 . S
C615 C616 1.370 . S
C616 C615 1.370 . S
C616 C617 1.438 . S
C616 H678 0.930 . S
C617 C603 1.497 . S
C617 C616 1.438 . S
C617 C618 1.360 . S
C618 C617 1.360 . S
C618 C619 1.401 . S
C618 C623 1.446 . S
C619 C618 1.401 . S
C619 C620 1.347 . S
C619 H679 0.929 . S
C620 C619 1.347 . S
C620 C621 1.455 . S
C620 H680 0.930 . S
C621 C608 1.412 . S
C621 C620 1.455 . S
C621 C622 1.331 . S
C622 C611 1.451 . S
C622 C621 1.331 . S
C622 C623 1.497 . S
C623 C614 1.395 . S
C623 C618 1.446 . S
C623 C622 1.497 . S
C624 C625 1.582 . S
C624 H681 0.962 . S
C624 H682 0.959 . S
C624 H683 0.958 . S
C625 C624 1.582 . S
C625 O628 1.458 . S
C625 H654 0.980 . S
O626 C571 1.426 . S
O626 C572 1.334 . S
O627 C599 1.412 . S
O627 C600 1.393 . S
O628 C590 1.435 . S
O628 C625 1.458 . S
O629 C581 1.468 . S
O629 C582 1.408 . S
H630 C571 0.980 . S
H631 C570 0.959 . S
H632 C570 0.959 . S
H633 C570 0.960 . S
H634 C573 0.929 . S
H635 C577 0.929 . S
H636 C578 0.959 . S
H637 C578 0.961 . S
H638 C578 0.961 . S
H639 C579 0.960 . S
H640 C579 0.960 . S
H641 C579 0.961 . S
H642 C581 0.980 . S
H643 C580 0.961 . S
H644 C580 0.960 . S
H645 C580 0.959 . S
H646 C583 0.930 . S
H647 C587 0.931 . S
H648 C588 0.959 . S
H649 C588 0.961 . S
H650 C588 0.959 . S
H651 C589 0.960 . S
H652 C589 0.960 . S
H653 C589 0.960 . S
H654 C625 0.980 . S
H655 C591 0.930 . S
H656 C595 0.930 . S
H657 C596 0.961 . S
H658 C596 0.960 . S
H659 C596 0.958 . S
H660 C597 0.961 . S
H661 C597 0.960 . S
H662 C597 0.960 . S
H663 C599 0.980 . S
H664 C598 0.961 . S
H665 C598 0.961 . S
H666 C598 0.959 . S
H667 C601 0.932 . S
H668 C605 0.929 . S
H669 C606 0.961 . S
H670 C606 0.959 . S
H671 C606 0.959 . S
H672 C607 0.960 . S
H673 C607 0.962 . S
H674 C607 0.961 . S
H675 C609 0.929 . S
H676 C612 0.930 . S
H677 C613 0.929 . S
H678 C616 0.930 . S
H679 C619 0.929 . S
H680 C620 0.930 . S
H681 C624 0.962 . S
H682 C624 0.959 . S
H683 C624 0.958 . S
Mn684 O689 2.095 . S
Mn684 O699 2.162 . S
Mn684 O700 2.297 . S
Mn684 O708 2.385 . S
Mn684 O709 2.209 . S
Mn684 O710 2.094 . S
Mn685 O690 2.121 . S
Mn685 N692 2.257 . S
Mn685 N701 2.282 . S
Mn685 O709 2.215 . S
Mn685 O711 2.117 . S
C686 O708 1.234 . S
C686 O709 1.283 . S
C687 O699 1.281 . S
C687 O700 1.236 . S
C688 O710 1.240 . S
C688 O711 1.264 . S
O689 Mn684 2.095 . S
O689 C698 1.250 . S
O690 Mn685 2.121 . S
O690 C698 1.258 . S
C691 N692 1.326 . S
C691 C695 1.460 . S
C691 H697 0.929 . S
N692 Mn685 2.257 . S
N692 C691 1.326 . S
N692 C696 1.362 . S
C693 C694 1.258 . S
C693 C696 1.431 . S
C693 C713 1.449 . S
C694 C693 1.258 . S
C694 C695 1.477 . S
C694 H714 0.931 . S
C695 C691 1.460 . S
C695 C694 1.477 . S
C695 H715 0.930 . S
C696 N692 1.362 . S
C696 C693 1.431 . S
C696 C706 1.476 . S
H697 C691 0.929 . S
C698 O689 1.250 . S
C698 O690 1.258 . S
O699 Mn684 2.162 . S
O699 C687 1.281 . S
O700 Mn684 2.297 . S
O700 C687 1.236 . S
N701 Mn685 2.282 . S
N701 C702 1.328 . S
N701 C706 1.318 . S
C702 N701 1.328 . S
C702 C703 1.457 . S
C702 H707 0.929 . S
C703 C702 1.457 . S
C703 C704 1.291 . S
C703 H716 0.931 . S
C704 C703 1.291 . S
C704 C705 1.373 . S
C704 H717 0.929 . S
C705 C704 1.373 . S
C705 C706 1.396 . S
C705 C712 1.403 . S
C706 C696 1.476 . S
C706 N701 1.318 . S
C706 C705 1.396 . S
H707 C702 0.929 . S
O708 Mn684 2.385 . S
O708 C686 1.234 . S
O709 Mn684 2.209 . S
O709 Mn685 2.215 . S
O709 C686 1.283 . S
O710 Mn684 2.094 . S
O710 C688 1.240 . S
O711 Mn685 2.117 . S
O711 C688 1.264 . S
C712 C705 1.403 . S
C712 C713 1.399 . S
C712 H718 0.929 . S
C713 C693 1.449 . S
C713 C712 1.399 . S
C713 H719 0.930 . S
H714 C694 0.931 . S
H715 C695 0.930 . S
H716 C703 0.931 . S
H717 C704 0.929 . S
H718 C712 0.929 . S
H719 C713 0.930 . S
Mn720 O725 2.095 . S
Mn720 O735 2.162 . S
Mn720 O736 2.297 . S
Mn720 O744 2.385 . S
Mn720 O745 2.209 . S
Mn720 O746 2.094 . S
Mn721 O726 2.121 . S
Mn721 N728 2.257 . S
Mn721 N737 2.282 . S
Mn721 O745 2.215 . S
Mn721 O747 2.117 . S
C722 O744 1.234 . S
C722 O745 1.283 . S
C723 O735 1.281 . S
C723 O736 1.236 . S
C724 O746 1.240 . S
C724 O747 1.264 . S
O725 Mn720 2.095 . S
O725 C734 1.250 . S
O726 Mn721 2.121 . S
O726 C734 1.258 . S
C727 N728 1.326 . S
C727 C731 1.460 . S
C727 H733 0.929 . S
N728 Mn721 2.257 . S
N728 C727 1.326 . S
N728 C732 1.362 . S
C729 C730 1.258 . S
C729 C732 1.431 . S
C729 C749 1.449 . S
C730 C729 1.258 . S
C730 C731 1.477 . S
C730 H750 0.931 . S
C731 C727 1.460 . S
C731 C730 1.477 . S
C731 H751 0.930 . S
C732 N728 1.362 . S
C732 C729 1.431 . S
C732 C742 1.476 . S
H733 C727 0.929 . S
C734 O725 1.250 . S
C734 O726 1.258 . S
O735 Mn720 2.162 . S
O735 C723 1.281 . S
O736 Mn720 2.297 . S
O736 C723 1.236 . S
N737 Mn721 2.282 . S
N737 C738 1.328 . S
N737 C742 1.318 . S
C738 N737 1.328 . S
C738 C739 1.457 . S
C738 H743 0.929 . S
C739 C738 1.457 . S
C739 C740 1.291 . S
C739 H752 0.931 . S
C740 C739 1.291 . S
C740 C741 1.373 . S
C740 H753 0.929 . S
C741 C740 1.373 . S
C741 C742 1.396 . S
C741 C748 1.403 . S
C742 C732 1.476 . S
C742 N737 1.318 . S
C742 C741 1.396 . S
H743 C738 0.929 . S
O744 Mn720 2.385 . S
O744 C722 1.234 . S
O745 Mn720 2.209 . S
O745 Mn721 2.215 . S
O745 C722 1.283 . S
O746 Mn720 2.094 . S
O746 C724 1.240 . S
O747 Mn721 2.117 . S
O747 C724 1.264 . S
C748 C741 1.403 . S
C748 C749 1.399 . S
C748 H754 0.929 . S
C749 C729 1.449 . S
C749 C748 1.399 . S
C749 H755 0.930 . S
H750 C730 0.931 . S
H751 C731 0.930 . S
H752 C739 0.931 . S
H753 C740 0.929 . S
H754 C748 0.929 . S
H755 C749 0.930 . S
Mn756 O761 2.095 . S
Mn756 O771 2.162 . S
Mn756 O772 2.297 . S
Mn756 O780 2.385 . S
Mn756 O781 2.209 . S
Mn756 O782 2.094 . S
Mn757 O762 2.121 . S
Mn757 N764 2.257 . S
Mn757 N773 2.282 . S
Mn757 O781 2.215 . S
Mn757 O783 2.117 . S
C758 O780 1.234 . S
C758 O781 1.283 . S
C759 O771 1.281 . S
C759 O772 1.236 . S
C760 O782 1.240 . S
C760 O783 1.264 . S
O761 Mn756 2.095 . S
O761 C770 1.250 . S
O762 Mn757 2.121 . S
O762 C770 1.258 . S
C763 N764 1.326 . S
C763 C767 1.460 . S
C763 H769 0.929 . S
N764 Mn757 2.257 . S
N764 C763 1.326 . S
N764 C768 1.362 . S
C765 C766 1.258 . S
C765 C768 1.431 . S
C765 C785 1.449 . S
C766 C765 1.258 . S
C766 C767 1.477 . S
C766 H786 0.931 . S
C767 C763 1.460 . S
C767 C766 1.477 . S
C767 H787 0.930 . S
C768 N764 1.362 . S
C768 C765 1.431 . S
C768 C778 1.476 . S
H769 C763 0.929 . S
C770 O761 1.250 . S
C770 O762 1.258 . S
O771 Mn756 2.162 . S
O771 C759 1.281 . S
O772 Mn756 2.297 . S
O772 C759 1.236 . S
N773 Mn757 2.282 . S
N773 C774 1.328 . S
N773 C778 1.318 . S
C774 N773 1.328 . S
C774 C775 1.457 . S
C774 H779 0.929 . S
C775 C774 1.457 . S
C775 C776 1.291 . S
C775 H788 0.931 . S
C776 C775 1.291 . S
C776 C777 1.373 . S
C776 H789 0.929 . S
C777 C776 1.373 . S
C777 C778 1.396 . S
C777 C784 1.403 . S
C778 C768 1.476 . S
C778 N773 1.318 . S
C778 C777 1.396 . S
H779 C774 0.929 . S
O780 Mn756 2.385 . S
O780 C758 1.234 . S
O781 Mn756 2.209 . S
O781 Mn757 2.215 . S
O781 C758 1.283 . S
O782 Mn756 2.094 . S
O782 C760 1.240 . S
O783 Mn757 2.117 . S
O783 C760 1.264 . S
C784 C777 1.403 . S
C784 C785 1.399 . S
C784 H790 0.929 . S
C785 C765 1.449 . S
C785 C784 1.399 . S
C785 H791 0.930 . S
H786 C766 0.931 . S
H787 C767 0.930 . S
H788 C775 0.931 . S
H789 C776 0.929 . S
H790 C784 0.929 . S
H791 C785 0.930 . S
Mn792 O797 2.095 . S
Mn792 O807 2.162 . S
Mn792 O808 2.297 . S
Mn792 O816 2.385 . S
Mn792 O817 2.209 . S
Mn792 O818 2.094 . S
Mn793 O798 2.121 . S
Mn793 N800 2.257 . S
Mn793 N809 2.282 . S
Mn793 O817 2.215 . S
Mn793 O819 2.117 . S
C794 O816 1.234 . S
C794 O817 1.283 . S
C795 O807 1.281 . S
C795 O808 1.236 . S
C796 O818 1.240 . S
C796 O819 1.264 . S
O797 Mn792 2.095 . S
O797 C806 1.250 . S
O798 Mn793 2.121 . S
O798 C806 1.258 . S
C799 N800 1.326 . S
C799 C803 1.460 . S
C799 H805 0.929 . S
N800 Mn793 2.257 . S
N800 C799 1.326 . S
N800 C804 1.362 . S
C801 C802 1.258 . S
C801 C804 1.431 . S
C801 C821 1.449 . S
C802 C801 1.258 . S
C802 C803 1.477 . S
C802 H822 0.931 . S
C803 C799 1.460 . S
C803 C802 1.477 . S
C803 H823 0.930 . S
C804 N800 1.362 . S
C804 C801 1.431 . S
C804 C814 1.476 . S
H805 C799 0.929 . S
C806 O797 1.250 . S
C806 O798 1.258 . S
O807 Mn792 2.162 . S
O807 C795 1.281 . S
O808 Mn792 2.297 . S
O808 C795 1.236 . S
N809 Mn793 2.282 . S
N809 C810 1.328 . S
N809 C814 1.318 . S
C810 N809 1.328 . S
C810 C811 1.457 . S
C810 H815 0.929 . S
C811 C810 1.457 . S
C811 C812 1.291 . S
C811 H824 0.931 . S
C812 C811 1.291 . S
C812 C813 1.373 . S
C812 H825 0.929 . S
C813 C812 1.373 . S
C813 C814 1.396 . S
C813 C820 1.403 . S
C814 C804 1.476 . S
C814 N809 1.318 . S
C814 C813 1.396 . S
H815 C810 0.929 . S
O816 Mn792 2.385 . S
O816 C794 1.234 . S
O817 Mn792 2.209 . S
O817 Mn793 2.215 . S
O817 C794 1.283 . S
O818 Mn792 2.094 . S
O818 C796 1.240 . S
O819 Mn793 2.117 . S
O819 C796 1.264 . S
C820 C813 1.403 . S
C820 C821 1.399 . S
C820 H826 0.929 . S
C821 C801 1.449 . S
C821 C820 1.399 . S
C821 H827 0.930 . S
H822 C802 0.931 . S
H823 C803 0.930 . S
H824 C811 0.931 . S
H825 C812 0.929 . S
H826 C820 0.929 . S
H827 C821 0.930 . S
Mn828 O833 2.095 . S
Mn828 O843 2.162 . S
Mn828 O844 2.297 . S
Mn828 O852 2.385 . S
Mn828 O853 2.209 . S
Mn828 O854 2.094 . S
Mn829 O834 2.121 . S
Mn829 N836 2.257 . S
Mn829 N845 2.282 . S
Mn829 O853 2.215 . S
Mn829 O855 2.117 . S
C830 O852 1.234 . S
C830 O853 1.283 . S
C831 O843 1.281 . S
C831 O844 1.236 . S
C832 O854 1.240 . S
C832 O855 1.264 . S
O833 Mn828 2.095 . S
O833 C842 1.250 . S
O834 Mn829 2.121 . S
O834 C842 1.258 . S
C835 N836 1.326 . S
C835 C839 1.460 . S
C835 H841 0.929 . S
N836 Mn829 2.257 . S
N836 C835 1.326 . S
N836 C840 1.362 . S
C837 C838 1.258 . S
C837 C840 1.431 . S
C837 C857 1.449 . S
C838 C837 1.258 . S
C838 C839 1.477 . S
C838 H858 0.931 . S
C839 C835 1.460 . S
C839 C838 1.477 . S
C839 H859 0.930 . S
C840 N836 1.362 . S
C840 C837 1.431 . S
C840 C850 1.476 . S
H841 C835 0.929 . S
C842 O833 1.250 . S
C842 O834 1.258 . S
O843 Mn828 2.162 . S
O843 C831 1.281 . S
O844 Mn828 2.297 . S
O844 C831 1.236 . S
N845 Mn829 2.282 . S
N845 C846 1.328 . S
N845 C850 1.318 . S
C846 N845 1.328 . S
C846 C847 1.457 . S
C846 H851 0.929 . S
C847 C846 1.457 . S
C847 C848 1.291 . S
C847 H860 0.931 . S
C848 C847 1.291 . S
C848 C849 1.373 . S
C848 H861 0.929 . S
C849 C848 1.373 . S
C849 C850 1.396 . S
C849 C856 1.403 . S
C850 C840 1.476 . S
C850 N845 1.318 . S
C850 C849 1.396 . S
H851 C846 0.929 . S
O852 Mn828 2.385 . S
O852 C830 1.234 . S
O853 Mn828 2.209 . S
O853 Mn829 2.215 . S
O853 C830 1.283 . S
O854 Mn828 2.094 . S
O854 C832 1.240 . S
O855 Mn829 2.117 . S
O855 C832 1.264 . S
C856 C849 1.403 . S
C856 C857 1.399 . S
C856 H862 0.929 . S
C857 C837 1.449 . S
C857 C856 1.399 . S
C857 H863 0.930 . S
H858 C838 0.931 . S
H859 C839 0.930 . S
H860 C847 0.931 . S
H861 C848 0.929 . S
H862 C856 0.929 . S
H863 C857 0.930 . S
Mn864 O869 2.095 . S
Mn864 O879 2.162 . S
Mn864 O880 2.297 . S
Mn864 O888 2.385 . S
Mn864 O889 2.209 . S
Mn864 O890 2.094 . S
Mn865 O870 2.121 . S
Mn865 N872 2.257 . S
Mn865 N881 2.282 . S
Mn865 O889 2.215 . S
Mn865 O891 2.117 . S
C866 O888 1.234 . S
C866 O889 1.283 . S
C867 O879 1.281 . S
C867 O880 1.236 . S
C868 O890 1.240 . S
C868 O891 1.264 . S
O869 Mn864 2.095 . S
O869 C878 1.250 . S
O870 Mn865 2.121 . S
O870 C878 1.258 . S
C871 N872 1.326 . S
C871 C875 1.460 . S
C871 H877 0.929 . S
N872 Mn865 2.257 . S
N872 C871 1.326 . S
N872 C876 1.362 . S
C873 C874 1.258 . S
C873 C876 1.431 . S
C873 C893 1.449 . S
C874 C873 1.258 . S
C874 C875 1.477 . S
C874 H894 0.931 . S
C875 C871 1.460 . S
C875 C874 1.477 . S
C875 H895 0.930 . S
C876 N872 1.362 . S
C876 C873 1.431 . S
C876 C886 1.476 . S
H877 C871 0.929 . S
C878 O869 1.250 . S
C878 O870 1.258 . S
O879 Mn864 2.162 . S
O879 C867 1.281 . S
O880 Mn864 2.297 . S
O880 C867 1.236 . S
N881 Mn865 2.282 . S
N881 C882 1.328 . S
N881 C886 1.318 . S
C882 N881 1.328 . S
C882 C883 1.457 . S
C882 H887 0.929 . S
C883 C882 1.457 . S
C883 C884 1.291 . S
C883 H896 0.931 . S
C884 C883 1.291 . S
C884 C885 1.373 . S
C884 H897 0.929 . S
C885 C884 1.373 . S
C885 C886 1.396 . S
C885 C892 1.403 . S
C886 C876 1.476 . S
C886 N881 1.318 . S
C886 C885 1.396 . S
H887 C882 0.929 . S
O888 Mn864 2.385 . S
O888 C866 1.234 . S
O889 Mn864 2.209 . S
O889 Mn865 2.215 . S
O889 C866 1.283 . S
O890 Mn864 2.094 . S
O890 C868 1.240 . S
O891 Mn865 2.117 . S
O891 C868 1.264 . S
C892 C885 1.403 . S
C892 C893 1.399 . S
C892 H898 0.929 . S
C893 C873 1.449 . S
C893 C892 1.399 . S
C893 H899 0.930 . S
H894 C874 0.931 . S
H895 C875 0.930 . S
H896 C883 0.931 . S
H897 C884 0.929 . S
H898 C892 0.929 . S
H899 C893 0.930 . S
H900 C906 0.930 . S
H901 C910 0.930 . S
H902 C915 0.929 . S
H903 C913 0.929 . S
H904 C908 0.929 . S
H905 C914 0.929 . S
C906 H900 0.930 . S
C906 C907 1.367 . S
C906 C914 1.378 . S
C907 C906 1.367 . S
C907 C915 1.433 . S
C908 H904 0.929 . S
C908 C910 1.378 . S
C908 C912 1.350 . S
C909 C912 1.463 . S
C909 C914 1.350 . S
C909 N917 1.427 . S
C910 H901 0.930 . S
C910 C908 1.378 . S
C910 C911 1.367 . S
C911 C910 1.367 . S
C911 C913 1.433 . S
C912 C908 1.350 . S
C912 C909 1.463 . S
C912 N916 1.427 . S
C913 H903 0.929 . S
C913 C911 1.433 . S
C913 N916 1.384 . S
C914 H905 0.929 . S
C914 C906 1.378 . S
C914 C909 1.350 . S
C915 H902 0.929 . S
C915 C907 1.433 . S
C915 N917 1.384 . S
N916 C912 1.427 . S
N916 C913 1.384 . S
N917 C909 1.427 . S
N917 C915 1.384 . S
H918 C924 0.930 . S
H919 C928 0.930 . S
H920 C933 0.929 . S
H921 C931 0.929 . S
H922 C926 0.929 . S
H923 C932 0.929 . S
C924 H918 0.930 . S
C924 C925 1.367 . S
C924 C932 1.378 . S
C925 C924 1.367 . S
C925 C933 1.433 . S
C926 H922 0.929 . S
C926 C928 1.378 . S
C926 C930 1.350 . S
C927 C930 1.463 . S
C927 C932 1.350 . S
C927 N935 1.427 . S
C928 H919 0.930 . S
C928 C926 1.378 . S
C928 C929 1.367 . S
C929 C928 1.367 . S
C929 C931 1.433 . S
C930 C926 1.350 . S
C930 C927 1.463 . S
C930 N934 1.427 . S
C931 H921 0.929 . S
C931 C929 1.433 . S
C931 N934 1.384 . S
C932 H923 0.929 . S
C932 C924 1.378 . S
C932 C927 1.350 . S
C933 H920 0.929 . S
C933 C925 1.433 . S
C933 N935 1.384 . S
N934 C930 1.427 . S
N934 C931 1.384 . S
N935 C927 1.427 . S
N935 C933 1.384 . S
H936 C942 0.930 . S
H937 C946 0.930 . S
H938 C951 0.929 . S
H939 C949 0.929 . S
H940 C944 0.929 . S
H941 C950 0.929 . S
C942 H936 0.930 . S
C942 C943 1.367 . S
C942 C950 1.378 . S
C943 C942 1.367 . S
C943 C951 1.433 . S
C944 H940 0.929 . S
C944 C946 1.378 . S
C944 C948 1.350 . S
C945 C948 1.463 . S
C945 C950 1.350 . S
C945 N953 1.427 . S
C946 H937 0.930 . S
C946 C944 1.378 . S
C946 C947 1.367 . S
C947 C946 1.367 . S
C947 C949 1.433 . S
C948 C944 1.350 . S
C948 C945 1.463 . S
C948 N952 1.427 . S
C949 H939 0.929 . S
C949 C947 1.433 . S
C949 N952 1.384 . S
C950 H941 0.929 . S
C950 C942 1.378 . S
C950 C945 1.350 . S
C951 H938 0.929 . S
C951 C943 1.433 . S
C951 N953 1.384 . S
N952 C948 1.427 . S
N952 C949 1.384 . S
N953 C945 1.427 . S
N953 C951 1.384 . S
H954 C960 0.930 . S
H955 C964 0.930 . S
H956 C969 0.929 . S
H957 C967 0.929 . S
H958 C962 0.929 . S
H959 C968 0.929 . S
C960 H954 0.930 . S
C960 C961 1.367 . S
C960 C968 1.378 . S
C961 C960 1.367 . S
C961 C969 1.433 . S
C962 H958 0.929 . S
C962 C964 1.378 . S
C962 C966 1.350 . S
C963 C966 1.463 . S
C963 C968 1.350 . S
C963 N971 1.427 . S
C964 H955 0.930 . S
C964 C962 1.378 . S
C964 C965 1.367 . S
C965 C964 1.367 . S
C965 C967 1.433 . S
C966 C962 1.350 . S
C966 C963 1.463 . S
C966 N970 1.427 . S
C967 H957 0.929 . S
C967 C965 1.433 . S
C967 N970 1.384 . S
C968 H959 0.929 . S
C968 C960 1.378 . S
C968 C963 1.350 . S
C969 H956 0.929 . S
C969 C961 1.433 . S
C969 N971 1.384 . S
N970 C966 1.427 . S
N970 C967 1.384 . S
N971 C963 1.427 . S
N971 C969 1.384 . S
H972 C978 0.930 . S
H973 C982 0.930 . S
H974 C987 0.929 . S
H975 C985 0.929 . S
H976 C980 0.929 . S
H977 C986 0.929 . S
C978 H972 0.930 . S
C978 C979 1.367 . S
C978 C986 1.378 . S
C979 C978 1.367 . S
C979 C987 1.433 . S
C980 H976 0.929 . S
C980 C982 1.378 . S
C980 C984 1.350 . S
C981 C984 1.463 . S
C981 C986 1.350 . S
C981 N989 1.427 . S
C982 H973 0.930 . S
C982 C980 1.378 . S
C982 C983 1.367 . S
C983 C982 1.367 . S
C983 C985 1.433 . S
C984 C980 1.350 . S
C984 C981 1.463 . S
C984 N988 1.427 . S
C985 H975 0.929 . S
C985 C983 1.433 . S
C985 N988 1.384 . S
C986 H977 0.929 . S
C986 C978 1.378 . S
C986 C981 1.350 . S
C987 H974 0.929 . S
C987 C979 1.433 . S
C987 N989 1.384 . S
N988 C984 1.427 . S
N988 C985 1.384 . S
N989 C981 1.427 . S
N989 C987 1.384 . S
H990 C996 0.930 . S
H991 C1000 0.930 . S
H992 C1005 0.929 . S
H993 C1003 0.929 . S
H994 C998 0.929 . S
H995 C1004 0.929 . S
C996 H990 0.930 . S
C996 C997 1.367 . S
C996 C1004 1.378 . S
C997 C996 1.367 . S
C997 C1005 1.433 . S
C998 H994 0.929 . S
C998 C1000 1.378 . S
C998 C1002 1.350 . S
C999 C1002 1.463 . S
C999 C1004 1.350 . S
C999 N1007 1.427 . S
C1000 H991 0.930 . S
C1000 C998 1.378 . S
C1000 C1001 1.367 . S
C1001 C1000 1.367 . S
C1001 C1003 1.433 . S
C1002 C998 1.350 . S
C1002 C999 1.463 . S
C1002 N1006 1.427 . S
C1003 H993 0.929 . S
C1003 C1001 1.433 . S
C1003 N1006 1.384 . S
C1004 H995 0.929 . S
C1004 C996 1.378 . S
C1004 C999 1.350 . S
C1005 H992 0.929 . S
C1005 C997 1.433 . S
C1005 N1007 1.384 . S
N1006 C1002 1.427 . S
N1006 C1003 1.384 . S
N1007 C999 1.427 . S
N1007 C1005 1.384 . S
H1008 C1014 0.930 . S
H1009 C1018 0.930 . S
H1010 C1023 0.929 . S
H1011 C1021 0.929 . S
H1012 C1016 0.929 . S
H1013 C1022 0.929 . S
C1014 H1008 0.930 . S
C1014 C1015 1.367 . S
C1014 C1022 1.378 . S
C1015 C1014 1.367 . S
C1015 C1023 1.433 . S
C1016 H1012 0.929 . S
C1016 C1018 1.378 . S
C1016 C1020 1.350 . S
C1017 C1020 1.463 . S
C1017 C1022 1.350 . S
C1017 N1025 1.427 . S
C1018 H1009 0.930 . S
C1018 C1016 1.378 . S
C1018 C1019 1.367 . S
C1019 C1018 1.367 . S
C1019 C1021 1.433 . S
C1020 C1016 1.350 . S
C1020 C1017 1.463 . S
C1020 N1024 1.427 . S
C1021 H1011 0.929 . S
C1021 C1019 1.433 . S
C1021 N1024 1.384 . S
C1022 H1013 0.929 . S
C1022 C1014 1.378 . S
C1022 C1017 1.350 . S
C1023 H1010 0.929 . S
C1023 C1015 1.433 . S
C1023 N1025 1.384 . S
N1024 C1020 1.427 . S
N1024 C1021 1.384 . S
N1025 C1017 1.427 . S
N1025 C1023 1.384 . S
H1026 C1032 0.930 . S
H1027 C1036 0.930 . S
H1028 C1041 0.929 . S
H1029 C1039 0.929 . S
H1030 C1034 0.929 . S
H1031 C1040 0.929 . S
C1032 H1026 0.930 . S
C1032 C1033 1.367 . S
C1032 C1040 1.378 . S
C1033 C1032 1.367 . S
C1033 C1041 1.433 . S
C1034 H1030 0.929 . S
C1034 C1036 1.378 . S
C1034 C1038 1.350 . S
C1035 C1038 1.463 . S
C1035 C1040 1.350 . S
C1035 N1043 1.427 . S
C1036 H1027 0.930 . S
C1036 C1034 1.378 . S
C1036 C1037 1.367 . S
C1037 C1036 1.367 . S
C1037 C1039 1.433 . S
C1038 C1034 1.350 . S
C1038 C1035 1.463 . S
C1038 N1042 1.427 . S
C1039 H1029 0.929 . S
C1039 C1037 1.433 . S
C1039 N1042 1.384 . S
C1040 H1031 0.929 . S
C1040 C1032 1.378 . S
C1040 C1035 1.350 . S
C1041 H1028 0.929 . S
C1041 C1033 1.433 . S
C1041 N1043 1.384 . S
N1042 C1038 1.427 . S
N1042 C1039 1.384 . S
N1043 C1035 1.427 . S
N1043 C1041 1.384 . S
H1044 C1050 0.930 . S
H1045 C1054 0.930 . S
H1046 C1059 0.929 . S
H1047 C1057 0.929 . S
H1048 C1052 0.929 . S
H1049 C1058 0.929 . S
C1050 H1044 0.930 . S
C1050 C1051 1.367 . S
C1050 C1058 1.378 . S
C1051 C1050 1.367 . S
C1051 C1059 1.433 . S
C1052 H1048 0.929 . S
C1052 C1054 1.378 . S
C1052 C1056 1.350 . S
C1053 C1056 1.463 . S
C1053 C1058 1.350 . S
C1053 N1061 1.427 . S
C1054 H1045 0.930 . S
C1054 C1052 1.378 . S
C1054 C1055 1.367 . S
C1055 C1054 1.367 . S
C1055 C1057 1.433 . S
C1056 C1052 1.350 . S
C1056 C1053 1.463 . S
C1056 N1060 1.427 . S
C1057 H1047 0.929 . S
C1057 C1055 1.433 . S
C1057 N1060 1.384 . S
C1058 H1049 0.929 . S
C1058 C1050 1.378 . S
C1058 C1053 1.350 . S
C1059 H1046 0.929 . S
C1059 C1051 1.433 . S
C1059 N1061 1.384 . S
N1060 C1056 1.427 . S
N1060 C1057 1.384 . S
N1061 C1053 1.427 . S
N1061 C1059 1.384 . S
H1062 C1068 0.930 . S
H1063 C1072 0.930 . S
H1064 C1077 0.929 . S
H1065 C1075 0.929 . S
H1066 C1070 0.929 . S
H1067 C1076 0.929 . S
C1068 H1062 0.930 . S
C1068 C1069 1.367 . S
C1068 C1076 1.378 . S
C1069 C1068 1.367 . S
C1069 C1077 1.433 . S
C1070 H1066 0.929 . S
C1070 C1072 1.378 . S
C1070 C1074 1.350 . S
C1071 C1074 1.463 . S
C1071 C1076 1.350 . S
C1071 N1079 1.427 . S
C1072 H1063 0.930 . S
C1072 C1070 1.378 . S
C1072 C1073 1.367 . S
C1073 C1072 1.367 . S
C1073 C1075 1.433 . S
C1074 C1070 1.350 . S
C1074 C1071 1.463 . S
C1074 N1078 1.427 . S
C1075 H1065 0.929 . S
C1075 C1073 1.433 . S
C1075 N1078 1.384 . S
C1076 H1067 0.929 . S
C1076 C1068 1.378 . S
C1076 C1071 1.350 . S
C1077 H1064 0.929 . S
C1077 C1069 1.433 . S
C1077 N1079 1.384 . S
N1078 C1074 1.427 . S
N1078 C1075 1.384 . S
N1079 C1071 1.427 . S
N1079 C1077 1.384 . S
H1080 C1086 0.930 . S
H1081 C1090 0.930 . S
H1082 C1095 0.929 . S
H1083 C1093 0.929 . S
H1084 C1088 0.929 . S
H1085 C1094 0.929 . S
C1086 H1080 0.930 . S
C1086 C1087 1.367 . S
C1086 C1094 1.378 . S
C1087 C1086 1.367 . S
C1087 C1095 1.433 . S
C1088 H1084 0.929 . S
C1088 C1090 1.378 . S
C1088 C1092 1.350 . S
C1089 C1092 1.463 . S
C1089 C1094 1.350 . S
C1089 N1097 1.427 . S
C1090 H1081 0.930 . S
C1090 C1088 1.378 . S
C1090 C1091 1.367 . S
C1091 C1090 1.367 . S
C1091 C1093 1.433 . S
C1092 C1088 1.350 . S
C1092 C1089 1.463 . S
C1092 N1096 1.427 . S
C1093 H1083 0.929 . S
C1093 C1091 1.433 . S
C1093 N1096 1.384 . S
C1094 H1085 0.929 . S
C1094 C1086 1.378 . S
C1094 C1089 1.350 . S
C1095 H1082 0.929 . S
C1095 C1087 1.433 . S
C1095 N1097 1.384 . S
N1096 C1092 1.427 . S
N1096 C1093 1.384 . S
N1097 C1089 1.427 . S
N1097 C1095 1.384 . S
H1098 C1104 0.930 . S
H1099 C1108 0.930 . S
H1100 C1113 0.929 . S
H1101 C1111 0.929 . S
H1102 C1106 0.929 . S
H1103 C1112 0.929 . S
C1104 H1098 0.930 . S
C1104 C1105 1.367 . S
C1104 C1112 1.378 . S
C1105 C1104 1.367 . S
C1105 C1113 1.433 . S
C1106 H1102 0.929 . S
C1106 C1108 1.378 . S
C1106 C1110 1.350 . S
C1107 C1110 1.463 . S
C1107 C1112 1.350 . S
C1107 N1115 1.427 . S
C1108 H1099 0.930 . S
C1108 C1106 1.378 . S
C1108 C1109 1.367 . S
C1109 C1108 1.367 . S
C1109 C1111 1.433 . S
C1110 C1106 1.350 . S
C1110 C1107 1.463 . S
C1110 N1114 1.427 . S
C1111 H1101 0.929 . S
C1111 C1109 1.433 . S
C1111 N1114 1.384 . S
C1112 H1103 0.929 . S
C1112 C1104 1.378 . S
C1112 C1107 1.350 . S
C1113 H1100 0.929 . S
C1113 C1105 1.433 . S
C1113 N1115 1.384 . S
N1114 C1110 1.427 . S
N1114 C1111 1.384 . S
N1115 C1107 1.427 . S
N1115 C1113 1.384 . S
H1116 C1122 0.930 . S
H1117 C1126 0.930 . S
H1118 C1131 0.929 . S
H1119 C1129 0.929 . S
H1120 C1124 0.929 . S
H1121 C1130 0.929 . S
C1122 H1116 0.930 . S
C1122 C1123 1.367 . S
C1122 C1130 1.378 . S
C1123 C1122 1.367 . S
C1123 C1131 1.433 . S
C1124 H1120 0.929 . S
C1124 C1126 1.378 . S
C1124 C1128 1.350 . S
C1125 C1128 1.463 . S
C1125 C1130 1.350 . S
C1125 N1133 1.427 . S
C1126 H1117 0.930 . S
C1126 C1124 1.378 . S
C1126 C1127 1.367 . S
C1127 C1126 1.367 . S
C1127 C1129 1.433 . S
C1128 C1124 1.350 . S
C1128 C1125 1.463 . S
C1128 N1132 1.427 . S
C1129 H1119 0.929 . S
C1129 C1127 1.433 . S
C1129 N1132 1.384 . S
C1130 H1121 0.929 . S
C1130 C1122 1.378 . S
C1130 C1125 1.350 . S
C1131 H1118 0.929 . S
C1131 C1123 1.433 . S
C1131 N1133 1.384 . S
N1132 C1128 1.427 . S
N1132 C1129 1.384 . S
N1133 C1125 1.427 . S
N1133 C1131 1.384 . S
H1134 C1140 0.930 . S
H1135 C1144 0.930 . S
H1136 C1149 0.929 . S
H1137 C1147 0.929 . S
H1138 C1142 0.929 . S
H1139 C1148 0.929 . S
C1140 H1134 0.930 . S
C1140 C1141 1.367 . S
C1140 C1148 1.378 . S
C1141 C1140 1.367 . S
C1141 C1149 1.433 . S
C1142 H1138 0.929 . S
C1142 C1144 1.378 . S
C1142 C1146 1.350 . S
C1143 C1146 1.463 . S
C1143 C1148 1.350 . S
C1143 N1151 1.427 . S
C1144 H1135 0.930 . S
C1144 C1142 1.378 . S
C1144 C1145 1.367 . S
C1145 C1144 1.367 . S
C1145 C1147 1.433 . S
C1146 C1142 1.350 . S
C1146 C1143 1.463 . S
C1146 N1150 1.427 . S
C1147 H1137 0.929 . S
C1147 C1145 1.433 . S
C1147 N1150 1.384 . S
C1148 H1139 0.929 . S
C1148 C1140 1.378 . S
C1148 C1143 1.350 . S
C1149 H1136 0.929 . S
C1149 C1141 1.433 . S
C1149 N1151 1.384 . S
N1150 C1146 1.427 . S
N1150 C1147 1.384 . S
N1151 C1143 1.427 . S
N1151 C1149 1.384 . S
H1152 C1158 0.930 . S
H1153 C1162 0.930 . S
H1154 C1167 0.929 . S
H1155 C1165 0.929 . S
H1156 C1160 0.929 . S
H1157 C1166 0.929 . S
C1158 H1152 0.930 . S
C1158 C1159 1.367 . S
C1158 C1166 1.378 . S
C1159 C1158 1.367 . S
C1159 C1167 1.433 . S
C1160 H1156 0.929 . S
C1160 C1162 1.378 . S
C1160 C1164 1.350 . S
C1161 C1164 1.463 . S
C1161 C1166 1.350 . S
C1161 N1169 1.427 . S
C1162 H1153 0.930 . S
C1162 C1160 1.378 . S
C1162 C1163 1.367 . S
C1163 C1162 1.367 . S
C1163 C1165 1.433 . S
C1164 C1160 1.350 . S
C1164 C1161 1.463 . S
C1164 N1168 1.427 . S
C1165 H1155 0.929 . S
C1165 C1163 1.433 . S
C1165 N1168 1.384 . S
C1166 H1157 0.929 . S
C1166 C1158 1.378 . S
C1166 C1161 1.350 . S
C1167 H1154 0.929 . S
C1167 C1159 1.433 . S
C1167 N1169 1.384 . S
N1168 C1164 1.427 . S
N1168 C1165 1.384 . S
N1169 C1161 1.427 . S
N1169 C1167 1.384 . S
H1170 C1176 0.930 . S
H1171 C1180 0.930 . S
H1172 C1185 0.929 . S
H1173 C1183 0.929 . S
H1174 C1178 0.941 . S
H1175 C1184 0.929 . S
C1176 H1170 0.930 . S
C1176 C1177 1.367 . S
C1176 C1184 1.378 . S
C1177 C1176 1.367 . S
C1177 C1185 1.433 . S
C1178 H1174 0.941 . S
C1178 C1180 1.378 . S
C1178 C1182 1.350 1_554 S
C1179 C1182 1.463 . S
C1179 C1184 1.350 . S
C1179 N1187 1.427 . S
C1180 H1171 0.930 . S
C1180 C1178 1.378 . S
C1180 C1181 1.367 . S
C1181 C1180 1.367 . S
C1181 C1183 1.433 . S
C1182 C1178 1.350 1_556 S
C1182 C1179 1.463 . S
C1182 N1186 1.427 . S
C1183 H1173 0.929 . S
C1183 C1181 1.433 . S
C1183 N1186 1.384 1_554 S
C1184 H1175 0.929 . S
C1184 C1176 1.378 . S
C1184 C1179 1.350 . S
C1185 H1172 0.929 . S
C1185 C1177 1.433 . S
C1185 N1187 1.384 . S
N1186 C1182 1.427 . S
N1186 C1183 1.384 1_556 S
N1187 C1179 1.427 . S
N1187 C1185 1.384 . S
H1188 C1194 0.930 . S
H1189 C1198 0.930 . S
H1190 C1203 0.929 . S
H1191 C1201 0.929 . S
H1192 C1196 0.929 . S
H1193 C1202 0.929 . S
C1194 H1188 0.930 . S
C1194 C1195 1.367 . S
C1194 C1202 1.378 . S
C1195 C1194 1.367 . S
C1195 C1203 1.433 . S
C1196 H1192 0.929 . S
C1196 C1198 1.378 . S
C1196 C1200 1.350 . S
C1197 C1200 1.463 . S
C1197 C1202 1.350 . S
C1197 N1205 1.427 . S
C1198 H1189 0.930 . S
C1198 C1196 1.378 . S
C1198 C1199 1.367 . S
C1199 C1198 1.367 . S
C1199 C1201 1.433 . S
C1200 C1196 1.350 . S
C1200 C1197 1.463 . S
C1200 N1204 1.427 . S
C1201 H1191 0.929 . S
C1201 C1199 1.433 . S
C1201 N1204 1.384 . S
C1202 H1193 0.929 . S
C1202 C1194 1.378 . S
C1202 C1197 1.350 . S
C1203 H1190 0.929 . S
C1203 C1195 1.433 . S
C1203 N1205 1.384 . S
N1204 C1200 1.427 . S
N1204 C1201 1.384 . S
N1205 C1197 1.427 . S
N1205 C1203 1.384 . S
H1206 C1212 0.930 . S
H1207 C1216 0.930 . S
H1208 C1221 0.929 . S
H1209 C1219 0.929 . S
H1210 C1214 0.929 . S
H1211 C1220 0.929 . S
C1212 H1206 0.930 . S
C1212 C1213 1.367 . S
C1212 C1220 1.378 . S
C1213 C1212 1.367 . S
C1213 C1221 1.433 . S
C1214 H1210 0.929 . S
C1214 C1216 1.378 . S
C1214 C1218 1.350 . S
C1215 C1218 1.463 . S
C1215 C1220 1.350 . S
C1215 N1223 1.427 . S
C1216 H1207 0.930 . S
C1216 C1214 1.378 . S
C1216 C1217 1.367 . S
C1217 C1216 1.367 . S
C1217 C1219 1.433 . S
C1218 C1214 1.350 . S
C1218 C1215 1.463 . S
C1218 N1222 1.427 . S
C1219 H1209 0.929 . S
C1219 C1217 1.433 . S
C1219 N1222 1.384 . S
C1220 H1211 0.929 . S
C1220 C1212 1.378 . S
C1220 C1215 1.350 . S
C1221 H1208 0.929 . S
C1221 C1213 1.433 . S
C1221 N1223 1.384 . S
N1222 C1218 1.427 . S
N1222 C1219 1.384 . S
N1223 C1215 1.427 . S
N1223 C1221 1.384 . S
H1224 C1230 0.930 . S
H1225 C1234 0.930 . S
H1226 C1239 0.929 . S
H1227 C1237 0.929 . S
H1228 C1232 0.929 . S
H1229 C1238 0.929 . S
C1230 H1224 0.930 . S
C1230 C1231 1.367 . S
C1230 C1238 1.378 . S
C1231 C1230 1.367 . S
C1231 C1239 1.433 . S
C1232 H1228 0.929 . S
C1232 C1234 1.378 . S
C1232 C1236 1.350 . S
C1233 C1236 1.463 . S
C1233 C1238 1.350 . S
C1233 N1241 1.427 . S
C1234 H1225 0.930 . S
C1234 C1232 1.378 . S
C1234 C1235 1.367 . S
C1235 C1234 1.367 . S
C1235 C1237 1.433 . S
C1236 C1232 1.350 . S
C1236 C1233 1.463 . S
C1236 N1240 1.427 . S
C1237 H1227 0.929 . S
C1237 C1235 1.433 . S
C1237 N1240 1.384 . S
C1238 H1229 0.929 . S
C1238 C1230 1.378 . S
C1238 C1233 1.350 . S
C1239 H1226 0.929 . S
C1239 C1231 1.433 . S
C1239 N1241 1.384 . S
N1240 C1236 1.427 . S
N1240 C1237 1.384 . S
N1241 C1233 1.427 . S
N1241 C1239 1.384 . S
H1242 C1248 0.930 . S
H1243 C1252 0.930 . S
H1244 C1257 0.929 . S
H1245 C1255 0.929 . S
H1246 C1250 0.929 . S
H1247 C1256 0.929 . S
C1248 H1242 0.930 . S
C1248 C1249 1.367 . S
C1248 C1256 1.378 . S
C1249 C1248 1.367 . S
C1249 C1257 1.433 . S
C1250 H1246 0.929 . S
C1250 C1252 1.378 . S
C1250 C1254 1.350 . S
C1251 C1254 1.463 . S
C1251 C1256 1.350 . S
C1251 N1259 1.427 . S
C1252 H1243 0.930 . S
C1252 C1250 1.378 . S
C1252 C1253 1.367 . S
C1253 C1252 1.367 . S
C1253 C1255 1.433 . S
C1254 C1250 1.350 . S
C1254 C1251 1.463 . S
C1254 N1258 1.427 . S
C1255 H1245 0.929 . S
C1255 C1253 1.433 . S
C1255 N1258 1.384 . S
C1256 H1247 0.929 . S
C1256 C1248 1.378 . S
C1256 C1251 1.350 . S
C1257 H1244 0.929 . S
C1257 C1249 1.433 . S
C1257 N1259 1.384 . S
N1258 C1254 1.427 . S
N1258 C1255 1.384 . S
N1259 C1251 1.427 . S
N1259 C1257 1.384 . S
H1260 C1266 0.930 . S
H1261 C1270 0.930 . S
H1262 C1275 0.929 . S
H1263 C1273 0.929 . S
H1264 C1268 0.929 . S
H1265 C1274 0.929 . S
C1266 H1260 0.930 . S
C1266 C1267 1.367 . S
C1266 C1274 1.378 . S
C1267 C1266 1.367 . S
C1267 C1275 1.433 . S
C1268 H1264 0.929 . S
C1268 C1270 1.378 . S
C1268 C1272 1.350 . S
C1269 C1272 1.463 . S
C1269 C1274 1.350 . S
C1269 N1277 1.427 . S
C1270 H1261 0.930 . S
C1270 C1268 1.378 . S
C1270 C1271 1.367 . S
C1271 C1270 1.367 . S
C1271 C1273 1.433 . S
C1272 C1268 1.350 . S
C1272 C1269 1.463 . S
C1272 N1276 1.427 . S
C1273 H1263 0.929 . S
C1273 C1271 1.433 . S
C1273 N1276 1.384 . S
C1274 H1265 0.929 . S
C1274 C1266 1.378 . S
C1274 C1269 1.350 . S
C1275 H1262 0.929 . S
C1275 C1267 1.433 . S
C1275 N1277 1.384 . S
N1276 C1272 1.427 . S
N1276 C1273 1.384 . S
N1277 C1269 1.427 . S
N1277 C1275 1.384 . S
H1278 C1284 0.930 . S
H1279 C1288 0.930 . S
H1280 C1293 0.929 . S
H1281 C1291 0.929 . S
H1282 C1286 0.929 . S
H1283 C1292 0.929 . S
C1284 H1278 0.930 . S
C1284 C1285 1.367 . S
C1284 C1292 1.378 . S
C1285 C1284 1.367 . S
C1285 C1293 1.433 . S
C1286 H1282 0.929 . S
C1286 C1288 1.378 . S
C1286 C1290 1.350 . S
C1287 C1290 1.463 . S
C1287 C1292 1.350 . S
C1287 N1295 1.427 . S
C1288 H1279 0.930 . S
C1288 C1286 1.378 . S
C1288 C1289 1.367 . S
C1289 C1288 1.367 . S
C1289 C1291 1.433 . S
C1290 C1286 1.350 . S
C1290 C1287 1.463 . S
C1290 N1294 1.427 . S
C1291 H1281 0.929 . S
C1291 C1289 1.433 . S
C1291 N1294 1.384 . S
C1292 H1283 0.929 . S
C1292 C1284 1.378 . S
C1292 C1287 1.350 . S
C1293 H1280 0.929 . S
C1293 C1285 1.433 . S
C1293 N1295 1.384 . S
N1294 C1290 1.427 . S
N1294 C1291 1.384 . S
N1295 C1287 1.427 . S
N1295 C1293 1.384 . S
H1296 C1302 0.930 . S
H1297 C1306 0.930 . S
H1298 C1311 0.929 . S
H1299 C1309 0.929 . S
H1300 C1304 0.929 . S
H1301 C1310 0.929 . S
C1302 H1296 0.930 . S
C1302 C1303 1.367 . S
C1302 C1310 1.378 . S
C1303 C1302 1.367 . S
C1303 C1311 1.433 . S
C1304 H1300 0.929 . S
C1304 C1306 1.378 . S
C1304 C1308 1.350 . S
C1305 C1308 1.463 1_554 S
C1305 C1310 1.350 . S
C1305 N1313 1.427 . S
C1306 H1297 0.930 . S
C1306 C1304 1.378 . S
C1306 C1307 1.367 . S
C1307 C1306 1.367 . S
C1307 C1309 1.433 . S
C1308 C1304 1.350 . S
C1308 C1305 1.463 1_556 S
C1308 N1312 1.427 . S
C1309 H1299 0.929 . S
C1309 C1307 1.433 . S
C1309 N1312 1.384 . S
C1310 H1301 0.929 . S
C1310 C1302 1.378 . S
C1310 C1305 1.350 . S
C1311 H1298 0.929 . S
C1311 C1303 1.433 . S
C1311 N1313 1.384 . S
N1312 C1308 1.427 . S
N1312 C1309 1.384 . S
N1313 C1305 1.427 . S
N1313 C1311 1.384 . S
H1314 C1320 0.930 . S
H1315 C1324 0.930 . S
H1316 C1329 0.929 . S
H1317 C1327 0.929 . S
H1318 C1322 0.929 . S
H1319 C1328 0.929 . S
C1320 H1314 0.930 . S
C1320 C1321 1.367 . S
C1320 C1328 1.378 . S
C1321 C1320 1.367 . S
C1321 C1329 1.433 . S
C1322 H1318 0.929 . S
C1322 C1324 1.378 . S
C1322 C1326 1.350 . S
C1323 C1326 1.463 . S
C1323 C1328 1.350 . S
C1323 N1331 1.427 . S
C1324 H1315 0.930 . S
C1324 C1322 1.378 . S
C1324 C1325 1.367 . S
C1325 C1324 1.367 . S
C1325 C1327 1.433 . S
C1326 C1322 1.350 . S
C1326 C1323 1.463 . S
C1326 N1330 1.427 . S
C1327 H1317 0.929 . S
C1327 C1325 1.433 . S
C1327 N1330 1.384 . S
C1328 H1319 0.929 . S
C1328 C1320 1.378 . S
C1328 C1323 1.350 . S
C1329 H1316 0.929 . S
C1329 C1321 1.433 . S
C1329 N1331 1.384 . S
N1330 C1326 1.427 . S
N1330 C1327 1.384 . S
N1331 C1323 1.427 . S
N1331 C1329 1.384 . S
C911 C867 1.676 . S
C907 C1 1.254 . S
C925 C169 1.553 . S
C929 C687 1.839 . S
C943 C283 1.497 . S
C947 C734 1.818 . S
C961 C397 1.313 . S
C965 C770 1.587 . S
C983 C795 1.510 . S
C979 C457 1.112 . S
C997 C571 1.127 . S
C1001 C831 1.521 . S
C1015 C115 1.281 . S
C1019 C723 1.701 . S
C1033 C229 1.148 . S
C1037 C759 1.548 . S
C1051 C343 1.132 . S
C1055 C806 1.464 . S
C1073 C842 1.671 . S
C1069 C511 1.367 . S
C1091 C878 1.790 . S
C1087 C625 1.477 . S
C1109 C698 1.853 . S
C1105 C55 1.544 . S
C1123 C29 1.143 . S
C1127 C722 1.415 . S
C1141 C125 0.934 . S
C1145 C758 1.520 . S
C1163 C796 1.479 . S
C1159 C239 0.910 . S
C1177 C353 0.933 . S
C1181 C832 1.467 . S
C1199 C868 1.368 . S
C1195 C485 1.096 . S
C1217 C688 1.420 . S
C1213 C599 1.108 . S
C1235 C866 1.416 . S
C1231 C143 1.118 . S
C1249 C257 1.110 . S
C1253 C686 1.415 . S
C1271 C724 1.365 . S
C1267 C371 1.089 . S
C1285 C467 0.900 . S
C1289 C760 1.466 . S
C1303 C581 0.929 . S
C1307 C794 1.490 . S
C1321 C11 0.959 . S
C1325 C830 1.527 . S
