# Generated by pormake.
# Topology tsx, (6,3)-cn, num edge types: 1
# Building blocks:
#     Node 0, Type 0, BuildingBlock: MIDCAF_clean_sbu_0, # of connection points: 6
#     Node 1, Type 0, BuildingBlock: MIDCAF_clean_sbu_0, # of connection points: 6
#     Node 2, Type 1, BuildingBlock: PAMTOO_clean_linker_0, # of connection points: 3
#     Node 3, Type 1, BuildingBlock: PAMTOO_clean_linker_0, # of connection points: 3
#     Node 4, Type 1, BuildingBlock: PAMTOO_clean_linker_0, # of connection points: 3
#     Node 5, Type 1, BuildingBlock: PAMTOO_clean_linker_0, # of connection points: 3
#     Edge 6, Type (0, 1), BuildingBlock: TEMPAE_clean_linker_10, # of connection points: 2
#     Edge 7, Type (0, 1), BuildingBlock: TEMPAE_clean_linker_10, # of connection points: 2
#     Edge 8, Type (0, 1), BuildingBlock: TEMPAE_clean_linker_10, # of connection points: 2
#     Edge 9, Type (0, 1), BuildingBlock: TEMPAE_clean_linker_10, # of connection points: 2
#     Edge 10, Type (0, 1), BuildingBlock: TEMPAE_clean_linker_10, # of connection points: 2
#     Edge 11, Type (0, 1), BuildingBlock: TEMPAE_clean_linker_10, # of connection points: 2
#     Edge 12, Type (0, 1), BuildingBlock: TEMPAE_clean_linker_10, # of connection points: 2
#     Edge 13, Type (0, 1), BuildingBlock: TEMPAE_clean_linker_10, # of connection points: 2
#     Edge 14, Type (0, 1), BuildingBlock: TEMPAE_clean_linker_10, # of connection points: 2
#     Edge 15, Type (0, 1), BuildingBlock: TEMPAE_clean_linker_10, # of connection points: 2
#     Edge 16, Type (0, 1), BuildingBlock: TEMPAE_clean_linker_10, # of connection points: 2
#     Edge 17, Type (0, 1), BuildingBlock: TEMPAE_clean_linker_10, # of connection points: 2
# Relax obj value: 0.096
# Max RMSD: 0.163
# Mean RMSD: 0.128
data_MOF--net-tsx--node1-MIDCAF_clean_sbu_0--node2-PAMTOO_clean_linker_0--edge1-TEMPAE_clean_linker_10
_symmetry_space_group_name_H-M    P1
_symmetry_Int_Tables_number       1
_symmetry_cell_setting            triclinic
loop_
_symmetry_equiv_pos_as_xyz
'x, y, z'
_cell_length_a     20.169041
_cell_length_b     20.899509
_cell_length_c     35.406924
_cell_angle_alpha  82.277172
_cell_angle_beta   95.726611
_cell_angle_gamma 90.081728
loop_
_atom_site_label
_atom_site_type_symbol
_atom_site_fract_x
_atom_site_fract_y
_atom_site_fract_z
_atom_type_partial_charge
Zn0 Zn 0.9902 0.06473 0.95038 0.0
Zn1 Zn 0.19383 0.06705 0.04025 0.0
Zn2 Zn 0.08179 0.06549 0.9978 0.0
C3 C 0.1618 0.19519 0.01246 0.0
C4 C 0.22184 0.9912 0.98784 0.0
O5 O 1.00754 0.00553 0.02785 0.0
O6 O 0.95336 0.98312 0.9741 0.0
C7 C 0.98531 0.18658 0.96423 0.0
O8 O 0.10877 0.16915 0.998 0.0
O9 O 0.20783 0.16074 0.0317 0.0
O10 O 0.25209 0.01218 0.01646 0.0
O11 O 0.16036 0.00717 0.97709 0.0
O12 O 0.94418 0.14547 0.95368 0.0
O13 O 0.04439 0.16766 0.97895 0.0
O14 O 0.10744 0.01652 0.94838 0.0
O15 O 0.0324 0.0607 0.90287 0.0
C16 C 0.08413 0.02646 0.91277 0.0
O17 O 0.05804 0.02291 0.0558 0.0
O18 O 0.15685 0.03043 0.08805 0.0
C19 C 0.96477 0.97142 0.01004 0.0
C20 C 0.0961 0.01543 0.08762 0.0
Zn21 Zn 0.5481 0.40027 0.55136 0.0
Zn22 Zn 0.37428 0.47144 0.46804 0.0
Zn23 Zn 0.47821 0.45394 0.50516 0.0
C24 C 0.47396 0.46746 0.41703 0.0
C25 C 0.40213 0.5824 0.50595 0.0
O26 O 0.48637 0.50869 0.55462 0.0
O27 O 0.49158 0.4181 0.59424 0.0
C28 C 0.56801 0.34608 0.49128 0.0
O29 O 0.51124 0.45385 0.44861 0.0
O30 O 0.41258 0.47885 0.41782 0.0
O31 O 0.35527 0.55395 0.48864 0.0
O32 O 0.4593 0.55404 0.51543 0.0
O33 O 0.54926 0.32252 0.52334 0.0
O34 O 0.55461 0.4058 0.47866 0.0
O35 O 0.53679 0.53316 0.52672 0.0
O36 O 0.62244 0.46674 0.53966 0.0
C37 C 0.60069 0.5244 0.5322 0.0
O38 O 0.42204 0.3741 0.52994 0.0
O39 O 0.33518 0.38614 0.48683 0.0
C40 C 0.48241 0.47883 0.58859 0.0
C41 C 0.3669 0.35353 0.51559 0.0
H42 H 0.1229 0.91645 0.36838 0.0
H43 H 0.97055 0.06027 0.36717 0.0
H44 H 0.08204 0.98497 0.47355 0.0
H45 H 0.94201 0.01851 0.48673 0.0
C46 C 0.92847 0.0405 0.45655 0.0
O47 O 0.98538 0.06369 0.44105 0.0
H48 H 0.90567 1.00167 0.44096 0.0
C49 C 0.0946 0.94653 0.38382 0.0
C50 C 0.10924 0.94507 0.4237 0.0
C51 C 0.04484 0.98778 0.36329 0.0
C52 C 1.0093 0.02835 0.38269 0.0
C53 C 0.02255 0.0269 0.42238 0.0
C54 C 0.07289 0.98601 0.44279 0.0
H55 H 0.19302 0.9515 0.66006 0.0
H56 H 0.02876 0.81932 0.65971 0.0
H57 H 0.08104 0.92319 0.55405 0.0
H58 H 0.93899 0.91043 0.55228 0.0
C59 C 0.93686 0.87269 0.57747 0.0
O60 O 0.99775 0.84105 0.58558 0.0
H61 H 0.9251 0.89745 0.60202 0.0
C62 C 0.1551 0.92535 0.64467 0.0
C63 C 0.1436 0.94064 0.60478 0.0
C64 C 0.1139 0.88209 0.66514 0.0
C65 C 0.0618 0.85231 0.64468 0.0
C66 C 0.05031 0.86692 0.60471 0.0
C67 C 0.09135 0.9108 0.5848 0.0
H68 H 0.73547 0.56117 0.84211 0.0
H69 H 0.55474 0.66453 0.85382 0.0
H70 H 0.70004 0.6209 0.94992 0.0
H71 H 0.55451 0.62374 0.97116 0.0
C72 C 0.53493 0.64783 0.94229 0.0
O73 O 0.58636 0.67852 0.92452 0.0
H74 H 0.51286 0.60977 0.92583 0.0
C75 C 0.70413 0.5857 0.85881 0.0
C76 C 0.72486 0.58681 0.89792 0.0
C77 C 0.64209 0.61255 0.84198 0.0
C78 C 0.60341 0.64462 0.86482 0.0
C79 C 0.62501 0.6484 0.90321 0.0
C80 C 0.68514 0.61928 0.9198 0.0
H81 H 0.68114 0.61825 0.15895 0.0
H82 H 0.50981 0.50496 0.12989 0.0
H83 H 0.59555 0.62962 0.0418 0.0
H84 H 0.43653 0.61455 0.02659 0.0
C85 C 0.43706 0.57365 0.05007 0.0
O86 O 0.5006 0.54689 0.05665 0.0
H87 H 0.4224 0.59241 0.07606 0.0
C88 C 0.64441 0.60285 0.13763 0.0
C89 C 0.64494 0.62909 0.09904 0.0
C90 C 0.59587 0.55833 0.14923 0.0
C91 C 0.5482 0.53874 0.1215 0.0
C92 C 0.54756 0.56523 0.08295 0.0
C93 C 0.59585 0.61022 0.07174 0.0
C94 C 0.21377 0.28966 0.97834 0.0
C95 C 0.17294 0.26503 0.00642 0.0
C96 C 0.2476 0.34796 0.98079 0.0
C97 C 0.23989 0.38224 0.01202 0.0
C98 C 0.19298 0.36084 0.03807 0.0
C99 C 0.16097 0.30168 0.03537 0.0
C100 C 0.29734 0.36858 0.95252 0.0
C101 C 0.18156 0.39681 0.07109 0.0
C102 C 0.39543 0.45887 0.05496 0.0
C103 C 0.38667 0.52392 0.03936 0.0
C104 C 0.34821 0.41259 0.0459 0.0
C105 C 0.28951 0.432 0.0216 0.0
C106 C 0.27921 0.49797 0.00675 0.0
C107 C 0.32808 0.54318 0.01576 0.0
C108 C 0.36137 0.34271 0.06236 0.0
C109 C 0.21659 0.52072 0.9816 0.0
H110 H 0.22418 0.26033 0.95652 0.0
H111 H 0.13034 0.28184 0.05751 0.0
H112 H 0.29447 0.42146 0.94343 0.0
H113 H 0.34845 0.35686 0.96643 0.0
H114 H 0.28946 0.34357 0.92668 0.0
H115 H 0.13421 0.38244 0.08327 0.0
H116 H 0.22314 0.38599 0.09406 0.0
H117 H 0.18032 0.44974 0.062 0.0
H118 H 0.43954 0.44395 0.07417 0.0
H119 H 0.32042 0.59378 0.0045 0.0
H120 H 0.36013 0.31233 0.0389 0.0
H121 H 0.32184 0.32528 0.08073 0.0
H122 H 0.41039 0.33541 0.07978 0.0
H123 H 0.21315 0.49774 0.95501 0.0
H124 H 0.21498 0.574 0.97361 0.0
H125 H 0.17208 0.50587 0.99652 0.0
C126 C 0.23275 0.88115 0.97021 0.0
C127 C 0.25652 0.9442 0.96929 0.0
C128 C 0.27301 0.83152 0.96139 0.0
C129 C 0.33797 0.84598 0.95104 0.0
C130 C 0.35991 0.91072 0.94723 0.0
C131 C 0.31922 0.95897 0.95704 0.0
C132 C 0.24814 0.76303 0.96623 0.0
C133 C 0.42813 0.92838 0.93533 0.0
C134 C 0.47701 0.72179 0.97928 0.0
C135 C 0.48181 0.69685 0.94493 0.0
C136 C 0.42868 0.76862 0.9819 0.0
C137 C 0.38597 0.79301 0.94887 0.0
C138 C 0.39139 0.76871 0.91386 0.0
C139 C 0.4392 0.72058 0.91235 0.0
C140 C 0.42394 0.79248 0.01998 0.0
C141 C 0.34799 0.79474 0.87787 0.0
H142 H 0.18462 0.86982 0.98044 0.0
H143 H 0.33748 0.00787 0.95665 0.0
H144 H 0.25717 0.73887 0.94115 0.0
H145 H 0.27596 0.73517 0.99182 0.0
H146 H 0.1941 0.76089 0.96995 0.0
H147 H 0.43376 0.98145 0.92848 0.0
H148 H 0.46667 0.91029 0.95892 0.0
H149 H 0.43792 0.90536 0.90994 0.0
H150 H 0.51104 0.70446 0.00418 0.0
H151 H 0.4441 0.70202 0.88559 0.0
H152 H 0.37207 0.7881 0.02784 0.0
H153 H 0.43705 0.84431 0.01782 0.0
H154 H 0.45767 0.76524 0.04338 0.0
H155 H 0.29467 0.79228 0.88305 0.0
H156 H 0.35552 0.76796 0.85354 0.0
H157 H 0.35943 0.84635 0.86954 0.0
C158 C 0.91693 0.86247 0.01088 0.0
C159 C 0.92941 0.91687 0.02965 0.0
C160 C 0.87441 0.81382 0.02467 0.0
C161 C 0.84321 0.8198 0.05806 0.0
C162 C 0.85826 0.87299 0.07835 0.0
C163 C 0.90133 0.92117 0.06379 0.0
C164 C 0.86052 0.75756 0.00242 0.0
C165 C 0.82623 0.88079 0.11421 0.0
C166 C 0.6775 0.73427 0.06332 0.0
C167 C 0.69585 0.67756 0.08799 0.0
C168 C 0.72471 0.78179 0.0542 0.0
C169 C 0.79191 0.7722 0.07002 0.0
C170 C 0.81071 0.71504 0.09492 0.0
C171 C 0.76249 0.66838 0.10356 0.0
C172 C 0.70278 0.84204 0.02737 0.0
C173 C 0.88195 0.70273 0.11195 0.0
H174 H 0.93903 0.85893 0.98452 0.0
H175 H 0.90976 0.96374 0.07779 0.0
H176 H 0.86843 0.71119 0.02167 0.0
H177 H 0.80767 0.7594 0.99009 0.0
H178 H 0.89266 0.75772 0.97869 0.0
H179 H 0.84953 0.91986 0.12919 0.0
H180 H 0.77251 0.89253 0.10661 0.0
H181 H 0.82977 0.83506 0.13428 0.0
H182 H 0.62593 0.74198 0.05164 0.0
H183 H 0.77708 0.62425 0.12231 0.0
H184 H 0.72898 0.84485 0.0011 0.0
H185 H 0.71637 0.88552 0.04117 0.0
H186 H 0.64821 0.84336 0.01885 0.0
H187 H 0.91445 0.69942 0.08877 0.0
H188 H 0.8877 0.65741 0.13241 0.0
H189 H 0.90002 0.74356 0.12708 0.0
C190 C 0.91047 0.27357 0.92943 0.0
C191 C 0.96397 0.2554 0.95726 0.0
C192 C 0.88369 0.3361 0.9237 0.0
C193 C 0.91151 0.38269 0.946 0.0
C194 C 0.96768 0.36585 0.97297 0.0
C195 C 0.99283 0.30194 0.97858 0.0
C196 C 0.8238 0.35144 0.89454 0.0
C197 C 0.99978 0.41393 0.99705 0.0
C198 C 0.84139 0.54368 0.89867 0.0
C199 C 0.78267 0.54629 0.91662 0.0
C200 C 0.88932 0.49472 0.91131 0.0
C201 C 0.87745 0.44678 0.94204 0.0
C202 C 0.82219 0.4537 0.96293 0.0
C203 C 0.77542 0.5034 0.94997 0.0
C204 C 0.94939 0.49076 0.88951 0.0
C205 C 0.8084 0.40444 0.99638 0.0
H206 H 0.88828 0.23823 0.91238 0.0
H207 H 0.03322 0.28798 1.00053 0.0
H208 H 0.78077 0.36565 0.90895 0.0
H209 H 0.83468 0.3927 0.87299 0.0
H210 H 0.80888 0.30981 0.87925 0.0
H211 H 0.9762 0.41073 0.02423 0.0
H212 H 0.05375 0.40306 0.00443 0.0
H213 H 0.9938 0.46422 0.98234 0.0
H214 H 0.84813 0.57777 0.87347 0.0
H215 H 0.73037 0.50516 0.96415 0.0
H216 H 0.94101 0.45365 0.86993 0.0
H217 H 0.99441 0.47607 0.90947 0.0
H218 H 0.95889 0.53756 0.87211 0.0
H219 H 0.7908 0.35921 0.98565 0.0
H220 H 0.7697 0.42165 0.01301 0.0
H221 H 0.85457 0.39266 0.01585 0.0
C222 C 0.62358 0.64235 0.53409 0.0
C223 C 0.6472 0.57876 0.536 0.0
C224 C 0.66773 0.69313 0.53989 0.0
C225 C 0.73708 0.68003 0.54738 0.0
C226 C 0.76116 0.61617 0.54852 0.0
C227 C 0.71603 0.56645 0.54287 0.0
C228 C 0.64009 0.7605 0.5387 0.0
C229 C 0.83466 0.60005 0.55647 0.0
C230 C 0.86479 0.81267 0.53182 0.0
C231 C 0.88304 0.82496 0.56936 0.0
C232 C 0.8158 0.76703 0.52409 0.0
C233 C 0.78497 0.73243 0.55472 0.0
C234 C 0.80341 0.74481 0.59272 0.0
C235 C 0.85238 0.79085 0.59957 0.0
C236 C 0.79798 0.75491 0.48325 0.0
C237 C 0.77151 0.70951 0.6262 0.0
H238 H 0.57048 0.65229 0.52879 0.0
H239 H 0.73487 0.51757 0.54421 0.0
H240 H 0.65014 0.77644 0.56735 0.0
H241 H 0.66521 0.79483 0.5182 0.0
H242 H 0.58549 0.76337 0.53029 0.0
H243 H 0.84547 0.54826 0.55536 0.0
H244 H 0.86292 0.62974 0.53531 0.0
H245 H 0.85339 0.61174 0.58527 0.0
H246 H 0.88914 0.83866 0.50853 0.0
H247 H 0.86702 0.80014 0.62862 0.0
H248 H 0.74342 0.76061 0.47556 0.0
H249 H 0.81149 0.70451 0.48026 0.0
H250 H 0.82392 0.7882 0.46253 0.0
H251 H 0.71853 0.72477 0.62424 0.0
H252 H 0.79638 0.71965 0.65417 0.0
H253 H 0.77267 0.6566 0.62552 0.0
C254 C 0.60866 0.23955 0.47884 0.0
C255 C 0.61333 0.30699 0.473 0.0
C256 C 0.65962 0.20012 0.47012 0.0
C257 C 0.71702 0.22884 0.45544 0.0
C258 C 0.7199 0.29697 0.44693 0.0
C259 C 0.66783 0.33537 0.45581 0.0
C260 C 0.65406 0.12774 0.4793 0.0
C261 C 0.77996 0.32936 0.43096 0.0
C262 C 0.87318 0.12646 0.48652 0.0
C263 C 0.87815 0.09434 0.45468 0.0
C264 C 0.82271 0.1727 0.4864 0.0
C265 C 0.77647 0.18752 0.45346 0.0
C266 C 0.78385 0.15791 0.42039 0.0
C267 C 0.8348 0.11166 0.42138 0.0
C268 C 0.81702 0.20342 0.5222 0.0
C269 C 0.73611 0.17272 0.38465 0.0
H270 H 0.56647 0.21752 0.49208 0.0
H271 H 0.67228 0.38745 0.45198 0.0
H272 H 0.66564 0.10378 0.45459 0.0
H273 H 0.69089 0.10985 0.50385 0.0
H274 H 0.60358 0.11296 0.48685 0.0
H275 H 0.77229 0.38228 0.4231 0.0
H276 H 0.82393 0.32086 0.45255 0.0
H277 H 0.7918 0.30826 0.40527 0.0
H278 H 0.90752 0.11381 0.51201 0.0
H279 H 0.83955 0.08745 0.39654 0.0
H280 H 0.77051 0.18739 0.53474 0.0
H281 H 0.81402 0.25676 0.5152 0.0
H282 H 0.85983 0.19057 0.54419 0.0
H283 H 0.68679 0.15178 0.39 0.0
H284 H 0.75381 0.15254 0.35992 0.0
H285 H 0.72873 0.22562 0.37691 0.0
C286 C 0.33093 0.24511 0.50218 0.0
C287 C 0.34313 0.2887 0.5288 0.0
C288 C 0.30354 0.18445 0.51268 0.0
C289 C 0.28574 0.16813 0.55037 0.0
C290 C 0.29914 0.21171 0.5776 0.0
C291 C 0.32885 0.27135 0.56659 0.0
C292 C 0.29234 0.13847 0.48323 0.0
C293 C 0.27961 0.19645 0.61786 0.0
C294 C 0.14577 0.04892 0.56598 0.0
C295 C 0.18064 0.99452 0.58551 0.0
C296 C 0.17952 0.10554 0.55389 0.0
C297 C 0.24992 0.10703 0.5607 0.0
C298 C 0.28558 0.05077 0.57831 0.0
C299 C 0.25035 0.99544 0.59113 0.0
C300 C 0.13956 0.16469 0.53558 0.0
C301 C 0.36072 0.04954 0.58456 0.0
H302 H 0.3427 0.25874 0.47297 0.0
H303 H 0.33817 0.30548 0.58697 0.0
H304 H 0.31348 0.09006 0.49504 0.0
H305 H 0.23813 0.13247 0.4759 0.0
H306 H 0.31515 0.15582 0.45649 0.0
H307 H 0.29444 0.23494 0.63571 0.0
H308 H 0.22481 0.19042 0.61696 0.0
H309 H 0.30304 0.15021 0.63192 0.0
H310 H 0.09175 0.0484 0.56215 0.0
H311 H 0.27716 0.95319 0.60626 0.0
H312 H 0.15649 0.18264 0.50726 0.0
H313 H 0.14766 0.20389 0.55375 0.0
H314 H 0.08529 0.15504 0.53159 0.0
H315 H 0.38211 0.06822 0.5576 0.0
H316 H 0.38094 1.00012 0.59471 0.0
H317 H 0.3777 0.08145 0.60614 0.0
C318 C 0.33613 0.65795 0.53539 0.0
C319 C 0.38847 0.64835 0.5135 0.0
C320 C 0.30016 0.71653 0.52949 0.0
C321 C 0.31592 0.76553 0.50022 0.0
C322 C 0.37473 0.75925 0.48206 0.0
C323 C 0.4106 0.70044 0.48903 0.0
C324 C 0.23987 0.72235 0.55086 0.0
C325 C 0.39451 0.81097 0.45144 0.0
C326 C 0.16605 0.83695 0.4351 0.0
C327 C 0.16121 0.89941 0.44495 0.0
C328 C 0.21626 0.79373 0.45286 0.0
C329 C 0.26293 0.81274 0.48181 0.0
C330 C 0.2578 0.87534 0.49259 0.0
C331 C 0.20675 0.91789 0.47414 0.0
C332 C 0.2193 0.72747 0.44035 0.0
C333 C 0.30541 0.89739 0.52374 0.0
H334 H 0.31903 0.61749 0.55433 0.0
H335 H 0.45089 0.69284 0.47193 0.0
H336 H 0.23491 0.77199 0.55817 0.0
H337 H 0.19434 0.71227 0.53239 0.0
H338 H 0.24242 0.68752 0.57761 0.0
H339 H 0.44734 0.80526 0.44596 0.0
H340 H 0.36249 0.80781 0.42439 0.0
H341 H 0.38718 0.85973 0.45956 0.0
H342 H 0.13013 0.82155 0.41337 0.0
H343 H 0.20339 0.96603 0.48206 0.0
H344 H 0.21287 0.68978 0.4649 0.0
H345 H 0.26873 0.71932 0.43048 0.0
H346 H 0.18027 0.72097 0.41677 0.0
H347 H 0.28923 0.87782 0.55201 0.0
H348 H 0.30628 0.95089 0.52169 0.0
H349 H 0.35682 0.87936 0.52273 0.0
C350 C 1.00698 0.01308 0.13253 0.0
C351 C 0.0705 0.99438 0.12497 0.0
C352 C 0.98912 0.00604 0.17033 0.0
C353 C 0.03678 0.98184 0.2011 0.0
C354 C 0.09936 0.95918 0.19321 0.0
C355 C 0.11503 0.96507 0.15529 0.0
C356 C 0.92094 0.02828 0.17747 0.0
C357 C 0.1521 0.93353 0.22499 0.0
C358 C 0.04779 0.0446 0.29706 0.0
C359 C 0.03209 0.98944 0.32132 0.0
C360 C 0.04564 0.04398 0.25736 0.0
C361 C 0.02569 0.98721 0.24157 0.0
C362 C 1.00492 0.93299 0.26582 0.0
C363 C 1.00956 0.93433 0.30559 0.0
C364 C 0.06943 0.10249 0.23274 0.0
C365 C 0.98122 0.87241 0.25008 0.0
H366 H 0.97304 0.03725 0.10939 0.0
H367 H 0.16414 0.95025 0.14955 0.0
H368 H 0.89933 0.99301 0.19906 0.0
H369 H 0.92501 0.07503 0.18905 0.0
H370 H 0.88624 0.03492 0.15079 0.0
H371 H 0.19678 0.91469 0.21391 0.0
H372 H 0.16795 0.9727 0.24208 0.0
H373 H 0.13179 0.89426 0.24465 0.0
H374 H 0.0654 0.08702 0.30941 0.0
H375 H 0.997 0.89182 0.32452 0.0
H376 H 0.03229 0.11733 0.20786 0.0
H377 H 0.11646 0.09028 0.22135 0.0
H378 H 0.07868 0.14417 0.24892 0.0
H379 H 0.94806 0.88443 0.22309 0.0
H380 H 0.95409 0.84055 0.27091 0.0
H381 H 0.02465 0.84502 0.24341 0.0
C382 C 0.12331 0.92841 0.88802 0.0
C383 C 0.11341 0.99543 0.88332 0.0
C384 C 0.13439 0.89666 0.85656 0.0
C385 C 0.13517 0.93314 0.81986 0.0
C386 C 0.13102 1.00142 0.81594 0.0
C387 C 0.11956 0.03163 0.84769 0.0
C388 C 0.13959 0.82397 0.8621 0.0
C389 C 0.13336 0.04246 0.77757 0.0
C390 C 0.18273 0.87792 0.72871 0.0
C391 C 0.11987 0.87682 0.70773 0.0
C392 C 0.1889 0.8902 0.76694 0.0
C393 C 0.13083 0.90122 0.78458 0.0
C394 C 0.06733 0.89284 0.76496 0.0
C395 C 0.06259 0.88106 0.72672 0.0
C396 C 0.25759 0.89741 0.78693 0.0
C397 C 1.00403 0.90269 0.78303 0.0
H398 H 0.11704 0.90036 0.91544 0.0
H399 H 0.11187 0.08354 0.84421 0.0
H400 H 0.09047 0.80376 0.85322 0.0
H401 H 0.17632 0.80706 0.84419 0.0
H402 H 0.15408 0.80445 0.89256 0.0
H403 H 0.13652 0.09478 0.78019 0.0
H404 H 0.17683 0.02847 0.76348 0.0
H405 H 0.08775 0.03453 0.75858 0.0
H406 H 0.22734 0.87309 0.71454 0.0
H407 H 0.01378 0.88041 0.71092 0.0
H408 H 0.25902 0.88198 0.81821 0.0
H409 H 0.27181 0.94898 0.7825 0.0
H410 H 0.29528 0.86899 0.77518 0.0
H411 H 1.00736 0.87718 0.81273 0.0
H412 H 0.95954 0.88526 0.76644 0.0
H413 H 0.99682 0.95492 0.78447 0.0
C414 C 0.53188 0.56667 0.62241 0.0
C415 C 0.48807 0.51466 0.62189 0.0
C416 C 0.55298 0.59062 0.6567 0.0
C417 C 0.5271 0.56374 0.69101 0.0
C418 C 0.47721 0.51597 0.68972 0.0
C419 C 0.45961 0.49068 0.65533 0.0
C420 C 0.60806 0.63962 0.65647 0.0
C421 C 0.44541 0.48872 0.72516 0.0
C422 C 0.63479 0.54844 0.78601 0.0
C423 C 0.61538 0.60278 0.80198 0.0
C424 C 0.60858 0.53715 0.74934 0.0
C425 C 0.55831 0.57872 0.7287 0.0
C426 C 0.53764 0.63321 0.74442 0.0
C427 C 0.56778 0.64566 0.78022 0.0
C428 C 0.63429 0.47994 0.73292 0.0
C429 C 0.48274 0.67761 0.72378 0.0
H430 H 0.55434 0.58499 0.59669 0.0
H431 H 0.4254 0.45065 0.65489 0.0
H432 H 0.6021 0.67455 0.67685 0.0
H433 H 0.65644 0.61398 0.66529 0.0
H434 H 0.61041 0.66675 0.62742 0.0
H435 H 0.3993 0.46183 0.71802 0.0
H436 H 0.48087 0.45512 0.74399 0.0
H437 H 0.43301 0.52792 0.74164 0.0
H438 H 0.66957 0.51331 0.80225 0.0
H439 H 0.55315 0.68891 0.79111 0.0
H440 H 0.64778 0.49517 0.70343 0.0
H441 H 0.5948 0.4432 0.73113 0.0
H442 H 0.6787 0.45686 0.75058 0.0
H443 H 0.49756 0.70035 0.69579 0.0
H444 H 0.47034 0.71638 0.74061 0.0
H445 H 0.43714 0.64936 0.71778 0.0
C446 C 0.4565 0.48443 0.34588 0.0
C447 C 0.50043 0.47029 0.37931 0.0
C448 C 0.47946 0.4916 0.30964 0.0
C449 C 0.54822 0.48382 0.30648 0.0
C450 C 0.59272 0.4668 0.3399 0.0
C451 C 0.56831 0.46076 0.37607 0.0
C452 C 0.43023 0.51014 0.27478 0.0
C453 C 0.66623 0.45712 0.33756 0.0
C454 C 0.58044 0.47185 0.20409 0.0
C455 C 0.59204 0.53667 0.19059 0.0
C456 C 0.57132 0.4526 0.24278 0.0
C457 C 0.57291 0.49951 0.26823 0.0
C458 C 0.58789 0.56436 0.25509 0.0
C459 C 0.59722 0.58212 0.21646 0.0
C460 C 0.55646 0.38282 0.25593 0.0
C461 C 0.58937 0.61605 0.28117 0.0
H462 H 0.40381 0.49147 0.34792 0.0
H463 H 0.60248 0.4499 0.4017 0.0
H464 H 0.44245 0.55854 0.2603 0.0
H465 H 0.43345 0.47542 0.25392 0.0
H466 H 0.37802 0.51153 0.28212 0.0
H467 H 0.69196 0.43397 0.36521 0.0
H468 H 0.67443 0.4269 0.31493 0.0
H469 H 0.6895 0.50456 0.32977 0.0
H470 H 0.57739 0.43644 0.18427 0.0
H471 H 0.60547 0.63243 0.20613 0.0
H472 H 0.50296 0.3781 0.26054 0.0
H473 H 0.58581 0.36574 0.28364 0.0
H474 H 0.56752 0.35092 0.2346 0.0
H475 H 0.53816 0.62472 0.28843 0.0
H476 H 0.60888 0.66244 0.2677 0.0
H477 H 0.62066 0.6002 0.30838 0.0
loop_
_geom_bond_atom_site_label_1
_geom_bond_atom_site_label_2
_geom_bond_distance
_geom_bond_site_symmetry_2
_ccdc_geom_bond_type
Zn0 O6 1.920 1_545 S
Zn0 O12 1.898 . S
Zn0 O15 1.905 1_545 S
Zn1 O9 1.897 1_565 S
Zn1 O10 1.905 . S
Zn1 O18 1.922 . S
Zn2 O5 2.080 1_445 S
Zn2 O8 2.114 1_554 S
Zn2 O11 2.120 1_545 S
Zn2 O13 2.120 1_455 S
Zn2 O14 2.114 1_554 S
Zn2 O17 2.080 . S
C3 O8 1.166 1_554 S
C3 O9 1.182 . S
C4 O10 1.167 . S
C4 O11 1.299 . S
O5 Zn2 2.080 1_665 S
O5 C19 1.305 . S
O6 Zn0 1.920 1_565 S
O6 C19 1.234 1_556 S
C7 O12 1.167 . S
C7 O13 1.299 1_556 S
O8 Zn2 2.114 1_556 S
O8 C3 1.166 1_556 S
O9 Zn1 1.897 1_545 S
O9 C3 1.182 . S
O10 Zn1 1.905 . S
O10 C4 1.167 . S
O11 Zn2 2.120 1_565 S
O11 C4 1.299 . S
O12 Zn0 1.898 . S
O12 C7 1.167 . S
O13 Zn2 2.120 1_655 S
O13 C7 1.299 1_554 S
O14 Zn2 2.114 1_556 S
O14 C16 1.166 1_545 S
O15 Zn0 1.905 1_565 S
O15 C16 1.182 1_655 S
C16 O14 1.166 1_565 S
C16 O15 1.182 1_455 S
O17 Zn2 2.080 . S
O17 C20 1.305 1_545 S
O18 Zn1 1.922 . S
O18 C20 1.234 . S
C19 O5 1.305 . S
C19 O6 1.234 1_554 S
C20 O17 1.305 1_565 S
C20 O18 1.234 . S
Zn21 O27 1.920 . S
Zn21 O33 1.898 . S
Zn21 O36 1.905 . S
Zn22 O30 1.905 . S
Zn22 O31 1.898 . S
Zn22 O39 1.920 . S
Zn23 O26 2.080 . S
Zn23 O29 2.114 . S
Zn23 O32 2.120 . S
Zn23 O34 2.120 . S
Zn23 O35 2.114 . S
Zn23 O38 2.080 . S
C24 O29 1.166 . S
C24 O30 1.182 . S
C25 O31 1.167 . S
C25 O32 1.299 . S
O26 Zn23 2.080 . S
O26 C40 1.305 . S
O27 Zn21 1.920 . S
O27 C40 1.234 . S
C28 O33 1.167 . S
C28 O34 1.299 . S
O29 Zn23 2.114 . S
O29 C24 1.166 . S
O30 Zn22 1.905 . S
O30 C24 1.182 . S
O31 Zn22 1.898 . S
O31 C25 1.167 . S
O32 Zn23 2.120 . S
O32 C25 1.299 . S
O33 Zn21 1.898 . S
O33 C28 1.167 . S
O34 Zn23 2.120 . S
O34 C28 1.299 . S
O35 Zn23 2.114 . S
O35 C37 1.166 . S
O36 Zn21 1.905 . S
O36 C37 1.182 . S
C37 O35 1.166 . S
C37 O36 1.182 . S
O38 Zn23 2.080 . S
O38 C41 1.305 . S
O39 Zn22 1.920 . S
O39 C41 1.234 . S
C40 O26 1.305 . S
C40 O27 1.234 . S
C41 O38 1.305 . S
C41 O39 1.234 . S
H42 C49 0.929 . S
H43 C52 0.930 . S
H44 C54 0.929 . S
H45 C46 0.969 . S
C46 H45 0.969 . S
C46 O47 1.550 1_655 S
C46 H48 0.973 . S
O47 C46 1.550 1_455 S
O47 C53 1.412 . S
H48 C46 0.973 . S
C49 H42 0.929 . S
C49 C50 1.400 . S
C49 C51 1.364 1_565 S
C50 C49 1.400 . S
C50 C54 1.377 . S
C51 C49 1.364 1_545 S
C51 C52 1.374 . S
C52 H43 0.930 . S
C52 C51 1.374 . S
C52 C53 1.383 . S
C53 O47 1.412 . S
C53 C52 1.383 . S
C53 C54 1.394 1_545 S
C54 H44 0.929 . S
C54 C50 1.377 . S
C54 C53 1.394 1_565 S
H55 C62 0.929 . S
H56 C65 0.930 1_565 S
H57 C67 0.929 . S
H58 C59 0.969 . S
C59 H58 0.969 . S
C59 O60 1.550 . S
C59 H61 0.973 . S
O60 C59 1.550 . S
O60 C66 1.412 1_565 S
H61 C59 0.973 . S
C62 H55 0.929 . S
C62 C63 1.400 . S
C62 C64 1.364 . S
C63 C62 1.400 . S
C63 C67 1.377 . S
C64 C62 1.364 . S
C64 C65 1.374 1_455 S
C65 H56 0.930 1_545 S
C65 C64 1.374 1_655 S
C65 C66 1.383 . S
C66 O60 1.412 1_545 S
C66 C65 1.383 . S
C66 C67 1.394 1_655 S
C67 H57 0.929 . S
C67 C63 1.377 . S
C67 C66 1.394 1_455 S
H68 C75 0.929 . S
H69 C78 0.930 . S
H70 C80 0.929 . S
H71 C72 0.969 . S
C72 H71 0.969 . S
C72 O73 1.550 . S
C72 H74 0.973 . S
O73 C72 1.550 . S
O73 C79 1.412 . S
H74 C72 0.973 . S
C75 H68 0.929 . S
C75 C76 1.400 . S
C75 C77 1.364 . S
C76 C75 1.400 . S
C76 C80 1.377 . S
C77 C75 1.364 . S
C77 C78 1.374 . S
C78 H69 0.930 . S
C78 C77 1.374 . S
C78 C79 1.383 . S
C79 O73 1.412 . S
C79 C78 1.383 . S
C79 C80 1.394 . S
C80 H70 0.929 . S
C80 C76 1.377 . S
C80 C79 1.394 . S
H81 C88 0.929 . S
H82 C91 0.930 . S
H83 C93 0.929 . S
H84 C85 0.969 . S
C85 H84 0.969 . S
C85 O86 1.550 . S
C85 H87 0.973 . S
O86 C85 1.550 . S
O86 C92 1.412 . S
H87 C85 0.973 . S
C88 H81 0.929 . S
C88 C89 1.400 . S
C88 C90 1.364 . S
C89 C88 1.400 . S
C89 C93 1.377 . S
C90 C88 1.364 . S
C90 C91 1.374 . S
C91 H82 0.930 . S
C91 C90 1.374 . S
C91 C92 1.383 . S
C92 O86 1.412 . S
C92 C91 1.383 . S
C92 C93 1.394 . S
C93 H83 0.929 . S
C93 C89 1.377 . S
C93 C92 1.394 . S
C94 C95 1.391 . S
C94 C96 1.394 . S
C94 H110 0.931 . S
C95 C94 1.391 . S
C95 C99 1.376 . S
C96 C94 1.394 . S
C96 C97 1.369 . S
C96 C100 1.531 . S
C97 C96 1.369 . S
C97 C98 1.410 . S
C97 C105 1.503 . S
C98 C97 1.410 . S
C98 C99 1.392 . S
C98 C101 1.511 . S
C99 C95 1.376 . S
C99 C98 1.392 . S
C99 H111 0.929 . S
C100 C96 1.531 . S
C100 H112 0.960 . S
C100 H113 0.962 . S
C100 H114 0.960 . S
C101 C98 1.511 . S
C101 H115 0.961 . S
C101 H116 0.961 . S
C101 H117 0.961 1_554 S
C102 C103 1.370 . S
C102 C104 1.363 . S
C102 H118 0.931 . S
C103 C102 1.370 . S
C103 C107 1.408 . S
C104 C102 1.363 . S
C104 C105 1.370 . S
C104 C108 1.524 . S
C105 C97 1.503 . S
C105 C104 1.370 . S
C105 C106 1.415 . S
C106 C105 1.415 . S
C106 C107 1.410 . S
C106 C109 1.521 1_554 S
C107 C103 1.408 . S
C107 C106 1.410 . S
C107 H119 0.930 1_554 S
C108 C104 1.524 . S
C108 H120 0.956 . S
C108 H121 0.961 . S
C108 H122 0.961 . S
C109 C106 1.521 1_556 S
C109 H123 0.958 . S
C109 H124 0.961 . S
C109 H125 0.960 . S
H110 C94 0.931 . S
H111 C99 0.929 . S
H112 C100 0.960 . S
H113 C100 0.962 . S
H114 C100 0.960 . S
H115 C101 0.961 . S
H116 C101 0.961 . S
H117 C101 0.961 1_556 S
H118 C102 0.931 . S
H119 C107 0.930 1_556 S
H120 C108 0.956 . S
H121 C108 0.961 . S
H122 C108 0.961 . S
H123 C109 0.958 . S
H124 C109 0.961 . S
H125 C109 0.960 . S
C126 C127 1.391 . S
C126 C128 1.394 . S
C126 H142 0.931 . S
C127 C126 1.391 . S
C127 C131 1.376 . S
C128 C126 1.394 . S
C128 C129 1.369 . S
C128 C132 1.531 . S
C129 C128 1.369 . S
C129 C130 1.410 . S
C129 C137 1.503 . S
C130 C129 1.410 . S
C130 C131 1.392 . S
C130 C133 1.511 . S
C131 C127 1.376 . S
C131 C130 1.392 . S
C131 H143 0.929 . S
C132 C128 1.531 . S
C132 H144 0.960 . S
C132 H145 0.962 . S
C132 H146 0.960 . S
C133 C130 1.511 . S
C133 H147 0.961 . S
C133 H148 0.961 . S
C133 H149 0.961 . S
C134 C135 1.370 . S
C134 C136 1.363 . S
C134 H150 0.931 1_556 S
C135 C134 1.370 . S
C135 C139 1.408 . S
C136 C134 1.363 . S
C136 C137 1.370 . S
C136 C140 1.524 1_556 S
C137 C129 1.503 . S
C137 C136 1.370 . S
C137 C138 1.403 . S
C138 C137 1.403 . S
C138 C139 1.404 . S
C138 C141 1.539 . S
C139 C135 1.408 . S
C139 C138 1.404 . S
C139 H151 0.930 . S
C140 C136 1.524 1_554 S
C140 H152 0.956 . S
C140 H153 0.961 . S
C140 H154 0.961 . S
C141 C138 1.539 . S
C141 H155 0.958 . S
C141 H156 0.961 . S
C141 H157 0.960 . S
H142 C126 0.931 . S
H143 C131 0.929 . S
H144 C132 0.960 . S
H145 C132 0.962 . S
H146 C132 0.960 . S
H147 C133 0.961 . S
H148 C133 0.961 . S
H149 C133 0.961 . S
H150 C134 0.931 1_554 S
H151 C139 0.930 . S
H152 C140 0.956 . S
H153 C140 0.961 . S
H154 C140 0.961 . S
H155 C141 0.958 . S
H156 C141 0.961 . S
H157 C141 0.960 . S
C158 C159 1.391 . S
C158 C160 1.394 . S
C158 H174 0.931 . S
C159 C158 1.391 . S
C159 C163 1.376 . S
C160 C158 1.394 . S
C160 C161 1.369 . S
C160 C164 1.531 . S
C161 C160 1.369 . S
C161 C162 1.410 . S
C161 C169 1.503 . S
C162 C161 1.410 . S
C162 C163 1.392 . S
C162 C165 1.511 . S
C163 C159 1.376 . S
C163 C162 1.392 . S
C163 H175 0.929 . S
C164 C160 1.531 . S
C164 H176 0.960 . S
C164 H177 0.962 1_554 S
C164 H178 0.960 . S
C165 C162 1.511 . S
C165 H179 0.961 . S
C165 H180 0.961 . S
C165 H181 0.961 . S
C166 C167 1.370 . S
C166 C168 1.363 . S
C166 H182 0.931 . S
C167 C166 1.370 . S
C167 C171 1.408 . S
C168 C166 1.363 . S
C168 C169 1.370 . S
C168 C172 1.534 . S
C169 C161 1.503 . S
C169 C168 1.370 . S
C169 C170 1.403 . S
C170 C169 1.403 . S
C170 C171 1.404 . S
C170 C173 1.539 . S
C171 C167 1.408 . S
C171 C170 1.404 . S
C171 H183 0.930 . S
C172 C168 1.534 . S
C172 H184 0.945 1_554 S
C172 H185 0.967 . S
C172 H186 0.955 1_554 S
C173 C170 1.539 . S
C173 H187 0.958 . S
C173 H188 0.961 . S
C173 H189 0.960 . S
H174 C158 0.931 . S
H175 C163 0.929 . S
H176 C164 0.960 . S
H177 C164 0.962 1_556 S
H178 C164 0.960 . S
H179 C165 0.961 . S
H180 C165 0.961 . S
H181 C165 0.961 . S
H182 C166 0.931 . S
H183 C171 0.930 . S
H184 C172 0.945 1_556 S
H185 C172 0.967 . S
H186 C172 0.955 1_556 S
H187 C173 0.958 . S
H188 C173 0.961 . S
H189 C173 0.960 . S
C190 C191 1.391 . S
C190 C192 1.394 . S
C190 H206 0.931 . S
C191 C190 1.391 . S
C191 C195 1.376 . S
C192 C190 1.394 . S
C192 C193 1.369 . S
C192 C196 1.531 . S
C193 C192 1.369 . S
C193 C194 1.410 . S
C193 C201 1.503 . S
C194 C193 1.410 . S
C194 C195 1.392 . S
C194 C197 1.511 . S
C195 C191 1.376 . S
C195 C194 1.392 . S
C195 H207 0.929 . S
C196 C192 1.531 . S
C196 H208 0.960 . S
C196 H209 0.962 . S
C196 H210 0.960 . S
C197 C194 1.511 . S
C197 H211 0.961 . S
C197 H212 0.961 . S
C197 H213 0.961 1_556 S
C198 C199 1.370 . S
C198 C200 1.363 . S
C198 H214 0.931 . S
C199 C198 1.370 . S
C199 C203 1.408 . S
C200 C198 1.363 . S
C200 C201 1.370 . S
C200 C204 1.524 . S
C201 C193 1.503 . S
C201 C200 1.370 . S
C201 C202 1.403 . S
C202 C201 1.403 . S
C202 C203 1.404 . S
C202 C205 1.539 1_556 S
C203 C199 1.408 . S
C203 C202 1.404 . S
C203 H215 0.930 . S
C204 C200 1.524 . S
C204 H216 0.956 . S
C204 H217 0.961 . S
C204 H218 0.961 . S
C205 C202 1.539 1_554 S
C205 H219 0.958 . S
C205 H220 0.961 . S
C205 H221 0.960 . S
H206 C190 0.931 . S
H207 C195 0.929 . S
H208 C196 0.960 . S
H209 C196 0.962 . S
H210 C196 0.960 . S
H211 C197 0.961 . S
H212 C197 0.961 . S
H213 C197 0.961 1_554 S
H214 C198 0.931 . S
H215 C203 0.930 . S
H216 C204 0.956 . S
H217 C204 0.961 . S
H218 C204 0.961 . S
H219 C205 0.958 . S
H220 C205 0.961 . S
H221 C205 0.960 . S
C222 C223 1.391 . S
C222 C224 1.394 . S
C222 H238 0.931 . S
C223 C222 1.391 . S
C223 C227 1.376 . S
C224 C222 1.394 . S
C224 C225 1.369 . S
C224 C228 1.531 . S
C225 C224 1.369 . S
C225 C226 1.410 . S
C225 C233 1.503 . S
C226 C225 1.410 . S
C226 C227 1.392 . S
C226 C229 1.511 . S
C227 C223 1.376 . S
C227 C226 1.392 . S
C227 H239 0.929 . S
C228 C224 1.531 . S
C228 H240 0.960 . S
C228 H241 0.962 . S
C228 H242 0.960 . S
C229 C226 1.511 . S
C229 H243 0.961 . S
C229 H244 0.961 . S
C229 H245 0.961 . S
C230 C231 1.370 . S
C230 C232 1.363 . S
C230 H246 0.931 . S
C231 C230 1.370 . S
C231 C235 1.408 . S
C232 C230 1.363 . S
C232 C233 1.370 . S
C232 C236 1.524 . S
C233 C225 1.503 . S
C233 C232 1.370 . S
C233 C234 1.403 . S
C234 C233 1.403 . S
C234 C235 1.404 . S
C234 C237 1.539 . S
C235 C231 1.408 . S
C235 C234 1.404 . S
C235 H247 0.930 . S
C236 C232 1.524 . S
C236 H248 0.956 . S
C236 H249 0.961 . S
C236 H250 0.961 . S
C237 C234 1.539 . S
C237 H251 0.958 . S
C237 H252 0.961 . S
C237 H253 0.960 . S
H238 C222 0.931 . S
H239 C227 0.929 . S
H240 C228 0.960 . S
H241 C228 0.962 . S
H242 C228 0.960 . S
H243 C229 0.961 . S
H244 C229 0.961 . S
H245 C229 0.961 . S
H246 C230 0.931 . S
H247 C235 0.930 . S
H248 C236 0.956 . S
H249 C236 0.961 . S
H250 C236 0.961 . S
H251 C237 0.958 . S
H252 C237 0.961 . S
H253 C237 0.960 . S
C254 C255 1.391 . S
C254 C256 1.394 . S
C254 H270 0.931 . S
C255 C254 1.391 . S
C255 C259 1.376 . S
C256 C254 1.394 . S
C256 C257 1.369 . S
C256 C260 1.531 . S
C257 C256 1.369 . S
C257 C258 1.410 . S
C257 C265 1.503 . S
C258 C257 1.410 . S
C258 C259 1.392 . S
C258 C261 1.511 . S
C259 C255 1.376 . S
C259 C258 1.392 . S
C259 H271 0.929 . S
C260 C256 1.531 . S
C260 H272 0.960 . S
C260 H273 0.962 . S
C260 H274 0.960 . S
C261 C258 1.511 . S
C261 H275 0.961 . S
C261 H276 0.961 . S
C261 H277 0.961 . S
C262 C263 1.370 . S
C262 C264 1.363 . S
C262 H278 0.931 . S
C263 C262 1.370 . S
C263 C267 1.408 . S
C264 C262 1.363 . S
C264 C265 1.370 . S
C264 C268 1.524 . S
C265 C257 1.503 . S
C265 C264 1.370 . S
C265 C266 1.403 . S
C266 C265 1.403 . S
C266 C267 1.404 . S
C266 C269 1.539 . S
C267 C263 1.408 . S
C267 C266 1.404 . S
C267 H279 0.930 . S
C268 C264 1.524 . S
C268 H280 0.956 . S
C268 H281 0.961 . S
C268 H282 0.961 . S
C269 C266 1.539 . S
C269 H283 0.958 . S
C269 H284 0.961 . S
C269 H285 0.960 . S
H270 C254 0.931 . S
H271 C259 0.929 . S
H272 C260 0.960 . S
H273 C260 0.962 . S
H274 C260 0.960 . S
H275 C261 0.961 . S
H276 C261 0.961 . S
H277 C261 0.961 . S
H278 C262 0.931 . S
H279 C267 0.930 . S
H280 C268 0.956 . S
H281 C268 0.961 . S
H282 C268 0.961 . S
H283 C269 0.958 . S
H284 C269 0.961 . S
H285 C269 0.960 . S
C286 C287 1.391 . S
C286 C288 1.394 . S
C286 H302 0.931 . S
C287 C286 1.391 . S
C287 C291 1.376 . S
C288 C286 1.394 . S
C288 C289 1.369 . S
C288 C292 1.531 . S
C289 C288 1.369 . S
C289 C290 1.410 . S
C289 C297 1.503 . S
C290 C289 1.410 . S
C290 C291 1.392 . S
C290 C293 1.511 . S
C291 C287 1.376 . S
C291 C290 1.392 . S
C291 H303 0.929 . S
C292 C288 1.531 . S
C292 H304 0.960 . S
C292 H305 0.962 . S
C292 H306 0.960 . S
C293 C290 1.511 . S
C293 H307 0.961 . S
C293 H308 0.961 . S
C293 H309 0.961 . S
C294 C295 1.370 . S
C294 C296 1.363 . S
C294 H310 0.931 . S
C295 C294 1.370 . S
C295 C299 1.408 . S
C296 C294 1.363 . S
C296 C297 1.370 . S
C296 C300 1.524 . S
C297 C289 1.503 . S
C297 C296 1.370 . S
C297 C298 1.403 . S
C298 C297 1.403 . S
C298 C299 1.404 . S
C298 C301 1.539 . S
C299 C295 1.408 . S
C299 C298 1.404 . S
C299 H311 0.930 . S
C300 C296 1.524 . S
C300 H312 0.956 . S
C300 H313 0.961 . S
C300 H314 0.961 . S
C301 C298 1.539 . S
C301 H315 0.958 . S
C301 H316 0.961 . S
C301 H317 0.960 . S
H302 C286 0.931 . S
H303 C291 0.929 . S
H304 C292 0.960 . S
H305 C292 0.962 . S
H306 C292 0.960 . S
H307 C293 0.961 . S
H308 C293 0.961 . S
H309 C293 0.961 . S
H310 C294 0.931 . S
H311 C299 0.930 . S
H312 C300 0.956 . S
H313 C300 0.961 . S
H314 C300 0.961 . S
H315 C301 0.958 . S
H316 C301 0.961 . S
H317 C301 0.960 . S
C318 C319 1.391 . S
C318 C320 1.394 . S
C318 H334 0.931 . S
C319 C318 1.391 . S
C319 C323 1.376 . S
C320 C318 1.394 . S
C320 C321 1.369 . S
C320 C324 1.531 . S
C321 C320 1.369 . S
C321 C322 1.410 . S
C321 C329 1.503 . S
C322 C321 1.410 . S
C322 C323 1.392 . S
C322 C325 1.511 . S
C323 C319 1.376 . S
C323 C322 1.392 . S
C323 H335 0.929 . S
C324 C320 1.531 . S
C324 H336 0.960 . S
C324 H337 0.962 . S
C324 H338 0.960 . S
C325 C322 1.511 . S
C325 H339 0.961 . S
C325 H340 0.961 . S
C325 H341 0.961 . S
C326 C327 1.370 . S
C326 C328 1.363 . S
C326 H342 0.931 . S
C327 C326 1.370 . S
C327 C331 1.408 . S
C328 C326 1.363 . S
C328 C329 1.370 . S
C328 C332 1.524 . S
C329 C321 1.503 . S
C329 C328 1.370 . S
C329 C330 1.403 . S
C330 C329 1.403 . S
C330 C331 1.404 . S
C330 C333 1.539 . S
C331 C327 1.408 . S
C331 C330 1.404 . S
C331 H343 0.930 . S
C332 C328 1.524 . S
C332 H344 0.956 . S
C332 H345 0.961 . S
C332 H346 0.961 . S
C333 C330 1.539 . S
C333 H347 0.958 . S
C333 H348 0.961 . S
C333 H349 0.960 . S
H334 C318 0.931 . S
H335 C323 0.929 . S
H336 C324 0.960 . S
H337 C324 0.962 . S
H338 C324 0.960 . S
H339 C325 0.961 . S
H340 C325 0.961 . S
H341 C325 0.961 . S
H342 C326 0.931 . S
H343 C331 0.930 . S
H344 C332 0.956 . S
H345 C332 0.961 . S
H346 C332 0.961 . S
H347 C333 0.958 . S
H348 C333 0.961 . S
H349 C333 0.960 . S
C350 C351 1.391 . S
C350 C352 1.394 . S
C350 H366 0.931 1_455 S
C351 C350 1.391 . S
C351 C355 1.376 . S
C352 C350 1.394 . S
C352 C353 1.369 . S
C352 C356 1.531 1_455 S
C353 C352 1.369 . S
C353 C354 1.410 . S
C353 C361 1.503 . S
C354 C353 1.410 . S
C354 C355 1.392 . S
C354 C357 1.511 1_565 S
C355 C351 1.376 . S
C355 C354 1.392 . S
C355 H367 0.929 . S
C356 C352 1.531 1_655 S
C356 H368 0.960 . S
C356 H369 0.962 . S
C356 H370 0.960 . S
C357 C354 1.511 1_545 S
C357 H371 0.961 . S
C357 H372 0.961 . S
C357 H373 0.961 1_545 S
C358 C359 1.370 . S
C358 C360 1.363 . S
C358 H374 0.931 . S
C359 C358 1.370 . S
C359 C363 1.408 1_545 S
C360 C358 1.363 . S
C360 C361 1.370 1_545 S
C360 C364 1.524 . S
C361 C353 1.503 . S
C361 C360 1.370 1_565 S
C361 C362 1.403 . S
C362 C361 1.403 . S
C362 C363 1.404 . S
C362 C365 1.539 . S
C363 C359 1.408 1_565 S
C363 C362 1.404 . S
C363 H375 0.930 . S
C364 C360 1.524 . S
C364 H376 0.956 1_455 S
C364 H377 0.961 . S
C364 H378 0.961 . S
C365 C362 1.539 . S
C365 H379 0.958 . S
C365 H380 0.961 . S
C365 H381 0.960 . S
H366 C350 0.931 1_655 S
H367 C355 0.929 . S
H368 C356 0.960 . S
H369 C356 0.962 . S
H370 C356 0.960 . S
H371 C357 0.961 . S
H372 C357 0.961 . S
H373 C357 0.961 1_565 S
H374 C358 0.931 . S
H375 C363 0.930 . S
H376 C364 0.956 1_655 S
H377 C364 0.961 . S
H378 C364 0.961 . S
H379 C365 0.958 . S
H380 C365 0.961 . S
H381 C365 0.960 . S
C382 C383 1.391 . S
C382 C384 1.394 . S
C382 H398 0.931 . S
C383 C382 1.391 . S
C383 C387 1.376 1_465 S
C384 C382 1.394 . S
C384 C385 1.369 . S
C384 C388 1.531 . S
C385 C384 1.369 . S
C385 C386 1.410 1_465 S
C385 C393 1.503 1_565 S
C386 C385 1.410 1_645 S
C386 C387 1.392 . S
C386 C389 1.511 . S
C387 C383 1.376 1_645 S
C387 C386 1.392 . S
C387 H399 0.929 . S
C388 C384 1.531 . S
C388 H400 0.960 . S
C388 H401 0.962 . S
C388 H402 0.960 . S
C389 C386 1.511 . S
C389 H403 0.961 . S
C389 H404 0.961 . S
C389 H405 0.961 . S
C390 C391 1.370 . S
C390 C392 1.363 . S
C390 H406 0.931 . S
C391 C390 1.370 . S
C391 C395 1.408 1_445 S
C392 C390 1.363 . S
C392 C393 1.370 . S
C392 C396 1.524 . S
C393 C385 1.503 1_545 S
C393 C392 1.370 . S
C393 C394 1.403 1_445 S
C394 C393 1.403 1_665 S
C394 C395 1.404 . S
C394 C397 1.539 . S
C395 C391 1.408 1_665 S
C395 C394 1.404 . S
C395 H407 0.930 . S
C396 C392 1.524 . S
C396 H408 0.956 . S
C396 H409 0.961 . S
C396 H410 0.961 . S
C397 C394 1.539 . S
C397 H411 0.958 . S
C397 H412 0.961 . S
C397 H413 0.960 . S
H398 C382 0.931 . S
H399 C387 0.929 . S
H400 C388 0.960 . S
H401 C388 0.962 . S
H402 C388 0.960 . S
H403 C389 0.961 . S
H404 C389 0.961 . S
H405 C389 0.961 . S
H406 C390 0.931 . S
H407 C395 0.930 . S
H408 C396 0.956 . S
H409 C396 0.961 . S
H410 C396 0.961 . S
H411 C397 0.958 . S
H412 C397 0.961 . S
H413 C397 0.960 . S
C414 C415 1.391 . S
C414 C416 1.394 . S
C414 H430 0.931 . S
C415 C414 1.391 . S
C415 C419 1.376 . S
C416 C414 1.394 . S
C416 C417 1.369 . S
C416 C420 1.531 . S
C417 C416 1.369 . S
C417 C418 1.410 . S
C417 C425 1.503 . S
C418 C417 1.410 . S
C418 C419 1.392 . S
C418 C421 1.511 . S
C419 C415 1.376 . S
C419 C418 1.392 . S
C419 H431 0.929 . S
C420 C416 1.531 . S
C420 H432 0.960 . S
C420 H433 0.962 . S
C420 H434 0.960 . S
C421 C418 1.511 . S
C421 H435 0.961 . S
C421 H436 0.961 . S
C421 H437 0.961 . S
C422 C423 1.370 . S
C422 C424 1.363 . S
C422 H438 0.931 . S
C423 C422 1.370 . S
C423 C427 1.408 . S
C424 C422 1.363 . S
C424 C425 1.370 . S
C424 C428 1.524 . S
C425 C417 1.503 . S
C425 C424 1.370 . S
C425 C426 1.403 . S
C426 C425 1.403 . S
C426 C427 1.404 . S
C426 C429 1.539 . S
C427 C423 1.408 . S
C427 C426 1.404 . S
C427 H439 0.930 . S
C428 C424 1.524 . S
C428 H440 0.956 . S
C428 H441 0.961 . S
C428 H442 0.961 . S
C429 C426 1.539 . S
C429 H443 0.958 . S
C429 H444 0.961 . S
C429 H445 0.960 . S
H430 C414 0.931 . S
H431 C419 0.929 . S
H432 C420 0.960 . S
H433 C420 0.962 . S
H434 C420 0.960 . S
H435 C421 0.961 . S
H436 C421 0.961 . S
H437 C421 0.961 . S
H438 C422 0.931 . S
H439 C427 0.930 . S
H440 C428 0.956 . S
H441 C428 0.961 . S
H442 C428 0.961 . S
H443 C429 0.958 . S
H444 C429 0.961 . S
H445 C429 0.960 . S
C446 C447 1.391 . S
C446 C448 1.394 . S
C446 H462 0.931 . S
C447 C446 1.391 . S
C447 C451 1.376 . S
C448 C446 1.394 . S
C448 C449 1.369 . S
C448 C452 1.531 . S
C449 C448 1.369 . S
C449 C450 1.410 . S
C449 C457 1.503 . S
C450 C449 1.410 . S
C450 C451 1.392 . S
C450 C453 1.511 . S
C451 C447 1.376 . S
C451 C450 1.392 . S
C451 H463 0.929 . S
C452 C448 1.531 . S
C452 H464 0.960 . S
C452 H465 0.962 . S
C452 H466 0.960 . S
C453 C450 1.511 . S
C453 H467 0.961 . S
C453 H468 0.961 . S
C453 H469 0.961 . S
C454 C455 1.370 . S
C454 C456 1.363 . S
C454 H470 0.931 . S
C455 C454 1.370 . S
C455 C459 1.408 . S
C456 C454 1.363 . S
C456 C457 1.370 . S
C456 C460 1.524 . S
C457 C449 1.503 . S
C457 C456 1.370 . S
C457 C458 1.403 . S
C458 C457 1.403 . S
C458 C459 1.404 . S
C458 C461 1.539 . S
C459 C455 1.408 . S
C459 C458 1.404 . S
C459 H471 0.930 . S
C460 C456 1.524 . S
C460 H472 0.956 . S
C460 H473 0.961 . S
C460 H474 0.961 . S
C461 C458 1.539 . S
C461 H475 0.958 . S
C461 H476 0.961 . S
C461 H477 0.960 . S
H462 C446 0.931 . S
H463 C451 0.929 . S
H464 C452 0.960 . S
H465 C452 0.962 . S
H466 C452 0.960 . S
H467 C453 0.961 . S
H468 C453 0.961 . S
H469 C453 0.961 . S
H470 C454 0.931 . S
H471 C459 0.930 . S
H472 C460 0.956 . S
H473 C460 0.961 . S
H474 C460 0.961 . S
H475 C461 0.958 . S
H476 C461 0.961 . S
H477 C461 0.960 . S
C103 C85 1.196 . S
C95 C3 1.166 . S
C127 C4 1.481 1_556 S
C135 C72 1.426 . S
C159 C19 1.582 . S
C167 C89 1.663 . S
C191 C7 1.212 . S
C199 C76 1.344 . S
C223 C37 1.070 . S
C231 C59 1.171 . S
C255 C28 1.465 . S
C263 C46 1.434 . S
C295 C63 1.666 . S
C287 C41 1.569 . S
C327 C50 1.342 . S
C319 C25 1.244 . S
C351 C20 1.347 . S
C359 C51 1.501 . S
C383 C16 1.364 . S
C391 C64 1.532 . S
C423 C77 1.513 . S
C415 C40 1.351 . S
C447 C24 1.370 . S
C455 C90 1.529 . S
