# Generated by pormake.
# Topology anh, (6,3)-cn, num edge types: 1
# Building blocks:
#     Node 0, Type 0, BuildingBlock: PAMTUU_clean_sbu_0, # of connection points: 6
#     Node 1, Type 0, BuildingBlock: PAMTUU_clean_sbu_0, # of connection points: 6
#     Node 2, Type 0, BuildingBlock: PAMTUU_clean_sbu_0, # of connection points: 6
#     Node 3, Type 1, BuildingBlock: PAMTOO_clean_linker_0, # of connection points: 3
#     Node 4, Type 1, BuildingBlock: PAMTOO_clean_linker_0, # of connection points: 3
#     Node 5, Type 1, BuildingBlock: PAMTOO_clean_linker_0, # of connection points: 3
#     Node 6, Type 1, BuildingBlock: PAMTOO_clean_linker_0, # of connection points: 3
#     Node 7, Type 1, BuildingBlock: PAMTOO_clean_linker_0, # of connection points: 3
#     Node 8, Type 1, BuildingBlock: PAMTOO_clean_linker_0, # of connection points: 3
#     Edge 9, Type (0, 1), BuildingBlock: XIVTED_clean_linker_0, # of connection points: 2
#     Edge 10, Type (0, 1), BuildingBlock: XIVTED_clean_linker_0, # of connection points: 2
#     Edge 11, Type (0, 1), BuildingBlock: XIVTED_clean_linker_0, # of connection points: 2
#     Edge 12, Type (0, 1), BuildingBlock: XIVTED_clean_linker_0, # of connection points: 2
#     Edge 13, Type (0, 1), BuildingBlock: XIVTED_clean_linker_0, # of connection points: 2
#     Edge 14, Type (0, 1), BuildingBlock: XIVTED_clean_linker_0, # of connection points: 2
#     Edge 15, Type (0, 1), BuildingBlock: XIVTED_clean_linker_0, # of connection points: 2
#     Edge 16, Type (0, 1), BuildingBlock: XIVTED_clean_linker_0, # of connection points: 2
#     Edge 17, Type (0, 1), BuildingBlock: XIVTED_clean_linker_0, # of connection points: 2
#     Edge 18, Type (0, 1), BuildingBlock: XIVTED_clean_linker_0, # of connection points: 2
#     Edge 19, Type (0, 1), BuildingBlock: XIVTED_clean_linker_0, # of connection points: 2
#     Edge 20, Type (0, 1), BuildingBlock: XIVTED_clean_linker_0, # of connection points: 2
#     Edge 21, Type (0, 1), BuildingBlock: XIVTED_clean_linker_0, # of connection points: 2
#     Edge 22, Type (0, 1), BuildingBlock: XIVTED_clean_linker_0, # of connection points: 2
#     Edge 23, Type (0, 1), BuildingBlock: XIVTED_clean_linker_0, # of connection points: 2
#     Edge 24, Type (0, 1), BuildingBlock: XIVTED_clean_linker_0, # of connection points: 2
#     Edge 25, Type (0, 1), BuildingBlock: XIVTED_clean_linker_0, # of connection points: 2
#     Edge 26, Type (0, 1), BuildingBlock: XIVTED_clean_linker_0, # of connection points: 2
# Relax obj value: 0.266
# Max RMSD: 0.156
# Mean RMSD: 0.127
data_MOF--net-anh--node1-PAMTUU_clean_sbu_0--node2-PAMTOO_clean_linker_0--edge1-XIVTED_clean_linker_0
_symmetry_space_group_name_H-M    P1
_symmetry_Int_Tables_number       1
_symmetry_cell_setting            triclinic
loop_
_symmetry_equiv_pos_as_xyz
'x, y, z'
_cell_length_a     30.617473
_cell_length_b     30.4701
_cell_length_c     50.038904
_cell_angle_alpha  90.073765
_cell_angle_beta   92.001605
_cell_angle_gamma 119.91653
loop_
_atom_site_label
_atom_site_type_symbol
_atom_site_fract_x
_atom_site_fract_y
_atom_site_fract_z
_atom_type_partial_charge
Tb0 Tb 0.13422 0.65127 0.14519 0.0
Tb1 Tb 0.19553 0.59107 0.15912 0.0
C2 C 0.17115 0.60951 0.09844 0.0
C3 C 1.04403 0.69878 0.14964 0.0
C4 C 0.95067 0.68577 0.16494 0.0
C5 C 0.97281 0.7116 0.14146 0.0
C6 C 1.01908 0.7181 0.13396 0.0
C7 C 1.02316 0.67441 0.17354 0.0
C8 C 0.97698 0.66822 0.1812 0.0
C9 C 1.09053 0.70252 0.14016 0.0
O10 O 1.07144 0.57173 0.14457 0.0
O11 O 1.11497 0.53196 0.15889 0.0
O12 O 0.19436 0.62947 0.19575 0.0
O13 O 1.11899 0.62371 0.18538 0.0
O14 O 0.24916 0.56921 0.15173 0.0
O15 O 0.19755 0.53661 0.18397 0.0
O16 O 0.25892 0.66932 0.15846 0.0
O17 O 0.21498 0.71124 0.14937 0.0
O18 O 0.15454 0.63952 0.10607 0.0
O19 O 0.18515 0.58535 0.1154 0.0
C20 C 1.07208 0.53039 0.15211 0.0
O21 O 0.12566 0.71168 0.15843 0.0
O22 O 1.08458 0.66745 0.12303 0.0
C23 C 0.15358 0.6291 0.20313 0.0
C24 C 0.27279 0.53147 0.18734 0.0
C25 C 0.33517 0.49337 0.20575 0.0
C26 C 0.28716 0.47513 0.21602 0.0
C27 C 0.25621 0.49395 0.20684 0.0
C28 C 0.32279 0.5537 0.17938 0.0
C29 C 0.3538 0.53494 0.1886 0.0
C30 C 0.23478 0.53778 0.17152 0.0
C31 C 0.25803 0.71169 0.15439 0.0
H32 H 0.95334 0.7247 0.12809 0.0
H33 H 1.03466 0.73688 0.11542 0.0
H34 H 1.04199 0.65922 0.18595 0.0
H35 H 0.96133 0.64861 0.19951 0.0
H36 H 0.27201 0.44352 0.22947 0.0
H37 H 0.21774 0.47599 0.21327 0.0
H38 H 0.33666 0.58258 0.16433 0.0
H39 H 0.39049 0.5497 0.18014 0.0
Tb40 Tb 0.65259 1.04639 0.47648 0.0
Tb41 Tb 0.77355 0.10872 0.48301 0.0
C42 C 0.71863 0.08717 0.42697 0.0
C43 C 0.51892 1.01226 0.46175 0.0
C44 C 0.43684 1.02563 0.44666 0.0
C45 C 0.44322 0.98785 0.43424 0.0
C46 C 0.48374 0.98118 0.44179 0.0
C47 C 0.51427 1.05185 0.47324 0.0
C48 C 0.4734 1.05831 0.46582 0.0
C49 C 0.55796 1.00057 0.47133 0.0
O50 O 0.67393 0.98709 0.47129 0.0
O51 O 0.7563 1.02969 0.48764 0.0
O52 O 0.74162 0.11006 0.52124 0.0
O53 O 0.67379 1.03194 0.51545 0.0
O54 O 0.8439 0.15777 0.46729 0.0
O55 O 0.8387 0.13119 0.50759 0.0
O56 O 0.75327 0.16809 0.47704 0.0
O57 O 0.67005 0.12449 0.4876 0.0
O58 O 0.68022 0.08424 0.43918 0.0
O59 O 0.75531 0.08583 0.44071 0.0
C60 C 0.71534 0.98699 0.47997 0.0
O61 O 0.58689 0.9987 0.45332 0.0
O62 O 0.58313 1.0233 0.49344 0.0
C63 C 0.70516 1.06901 0.53134 0.0
C64 C 0.89397 0.21757 0.50007 0.0
C65 C 0.93266 0.32239 0.50641 0.0
C66 C 0.88713 0.28797 0.51787 0.0
C67 C 0.86789 0.236 0.51467 0.0
C68 C 0.9413 0.25169 0.49043 0.0
C69 C 0.9607 0.30386 0.49369 0.0
C70 C 0.86726 0.16466 0.4905 0.0
C71 C 0.71161 0.16787 0.48324 0.0
H72 H 0.41529 0.96142 0.41975 0.0
H73 H 0.48658 0.95044 0.43269 0.0
H74 H 0.5412 1.0768 0.48854 0.0
H75 H 0.46955 0.08784 0.47563 0.0
H76 H 0.86495 0.30119 0.52793 0.0
H77 H 0.83097 0.21034 0.52204 0.0
H78 H 0.96156 0.23814 0.4788 0.0
H79 H 0.99566 0.32952 0.48441 0.0
Tb80 Tb 0.68131 0.54494 0.81522 0.0
Tb81 Tb 0.74612 0.66707 0.82006 0.0
C82 C 0.7157 0.60993 0.7642 0.0
C83 C 0.61793 0.40494 0.82994 0.0
C84 C 0.58173 0.30811 0.85167 0.0
C85 C 0.6164 0.32452 0.83114 0.0
C86 C 0.63407 0.37239 0.82025 0.0
C87 C 0.58674 0.39014 0.85205 0.0
C88 C 0.56877 0.34215 0.86277 0.0
C89 C 0.62648 0.44972 0.81452 0.0
O90 O 0.76034 0.56048 0.81343 0.0
O91 O 0.80373 0.64436 0.82689 0.0
O92 O 0.71123 0.63817 0.85822 0.0
O93 O 0.71211 0.56433 0.85559 0.0
O94 O 0.77213 0.73823 0.80315 0.0
O95 O 0.79604 0.73154 0.84332 0.0
O96 O 0.66811 0.65278 0.81332 0.0
O97 O 0.62523 0.56868 0.82367 0.0
O98 O 0.67833 0.57112 0.77532 0.0
O99 O 0.75198 0.64659 0.77892 0.0
C100 C 0.80314 0.60175 0.82098 0.0
O101 O 0.61533 0.48086 0.82613 0.0
O102 O 0.66732 0.47354 0.80098 0.0
C103 C 0.70892 0.59849 0.86976 0.0
C104 C 0.78791 0.8029 0.83405 0.0
C105 C 0.77158 0.88427 0.84452 0.0
C106 C 0.82088 0.892 0.8444 0.0
C107 C 0.82893 0.85159 0.83911 0.0
C108 C 0.73869 0.79429 0.83579 0.0
C109 C 0.73056 0.83463 0.84091 0.0
C110 C 0.79684 0.76236 0.82507 0.0
C111 C 0.62557 0.61155 0.81903 0.0
H112 H 0.62658 0.29886 0.82191 0.0
H113 H 0.65772 0.38254 0.80314 0.0
H114 H 0.57347 0.41425 0.86005 0.0
H115 H 0.54225 0.33051 0.87864 0.0
H116 H 0.85325 0.92955 0.84748 0.0
H117 H 0.8672 0.85869 0.83803 0.0
H118 H 0.70655 0.75679 0.83203 0.0
H119 H 0.69208 0.82721 0.84045 0.0
H120 H 0.78762 0.20904 0.228 0.0
H121 H 0.64818 1.06745 0.22032 0.0
H122 H 0.70718 0.16022 0.15129 0.0
H123 H 0.57728 0.08743 0.15638 0.0
C124 C 0.5814 1.06192 0.17082 0.0
O125 O 0.631 1.07106 0.16982 0.0
H126 H 0.57512 1.07273 0.19097 0.0
C127 C 0.75594 0.18145 0.21561 0.0
C128 C 0.75353 0.19079 0.18812 0.0
C129 C 0.71787 0.13792 0.22754 0.0
C130 C 0.67678 0.10195 0.21154 0.0
C131 C 0.67151 0.10929 0.18426 0.0
C132 C 0.71005 0.15448 0.17248 0.0
H133 H 0.7197 0.68617 0.56031 0.0
H134 H 0.70547 0.53843 0.55707 0.0
H135 H 0.71056 0.61522 0.48396 0.0
H136 H 0.76742 0.53203 0.52182 0.0
C137 C 0.74338 0.51984 0.50308 0.0
O138 O 0.70342 0.52952 0.5055 0.0
H139 H 0.76722 0.54392 0.48689 0.0
C140 C 0.71695 0.65479 0.54866 0.0
C141 C 0.71563 0.65691 0.52054 0.0
C142 C 0.71311 0.61248 0.56208 0.0
C143 C 0.70816 0.57109 0.54698 0.0
C144 C 0.70819 0.57149 0.51893 0.0
C145 C 0.71133 0.61461 0.5056 0.0
H146 H 1.10975 0.60174 0.89455 0.0
H147 H 0.24326 0.58812 0.89333 0.0
H148 H 0.17565 0.60386 0.8196 0.0
H149 H 0.31479 0.65689 0.8612 0.0
C150 C 0.30378 0.63673 0.84144 0.0
O151 O 0.25419 0.59578 0.84208 0.0
H152 H 0.30384 0.66389 0.82661 0.0
C153 C 0.13843 0.59944 0.88355 0.0
C154 C 0.13633 0.60194 0.85554 0.0
C155 C 0.17633 0.59427 0.89758 0.0
C156 C 0.21435 0.59301 0.883 0.0
C157 C 0.21585 0.59771 0.85503 0.0
C158 C 0.17593 0.60152 0.84118 0.0
H159 H 1.04843 0.61347 0.3991 0.0
H160 H 0.126 0.7747 0.38773 0.0
H161 H 1.0613 0.71425 0.46304 0.0
H162 H 1.06552 0.82186 0.44815 0.0
C163 C 1.09093 0.82665 0.4317 0.0
O164 O 1.11254 0.7968 0.4362 0.0
H165 H 1.0683 0.81595 0.41245 0.0
C166 C 1.06031 0.65149 0.40638 0.0
C167 C 1.05114 0.6589 0.43281 0.0
C168 C 1.08752 0.69295 0.38989 0.0
C169 C 1.10457 0.74212 0.40002 0.0
C170 C 1.09377 0.74949 0.4261 0.0
C171 C 1.06758 0.70803 0.44254 0.0
H172 H 0.6695 1.06411 0.7363 0.0
H173 H 0.5276 1.04896 0.70941 0.0
H174 H 0.56793 1.06524 0.7931 0.0
H175 H 0.46843 0.97809 0.77293 0.0
C176 C 0.45889 1.00861 0.76982 0.0
O177 O 0.49685 1.0499 0.7573 0.0
H178 H 0.42373 0.99243 0.75701 0.0
C179 C 0.635 1.0638 0.74081 0.0
C180 C 0.62245 1.06399 0.76755 0.0
C181 C 0.60172 1.05963 0.71963 0.0
C182 C 0.55433 1.05332 0.7254 0.0
C183 C 0.54197 1.05469 0.7519 0.0
C184 C 0.57702 1.06254 0.77274 0.0
H185 H 0.66011 0.57929 0.07358 0.0
H186 H 0.53095 0.43767 0.04801 0.0
H187 H 0.55854 0.47995 0.1313 0.0
H188 H 0.54094 0.37848 0.1132 0.0
C189 C 0.50139 0.37026 0.10965 0.0
O190 O 0.49943 0.40902 0.09624 0.0
H191 H 0.48119 0.33487 0.09728 0.0
C192 C 0.62557 0.54519 0.07828 0.0
C193 C 0.61337 0.53341 0.1051 0.0
C194 C 0.59578 0.51143 0.05747 0.0
C195 C 0.55395 0.46468 0.06373 0.0
C196 C 0.54057 0.45334 0.09035 0.0
C197 C 0.56923 0.48853 0.11081 0.0
H198 H 0.43644 0.52614 0.21362 0.0
H199 H 0.40074 0.31697 0.11857 0.0
H200 H 0.29172 0.39076 0.20087 0.0
H201 H 0.54466 0.41161 0.15919 0.0
H202 H 0.35929 0.33243 0.15519 0.0
H203 H 0.47753 0.47813 0.20145 0.0
C204 C 0.41339 0.48598 0.20909 0.0
C205 C 0.3606 0.46279 0.20762 0.0
C206 C 0.39985 0.34867 0.15663 0.0
C207 C 0.40714 0.40789 0.19326 0.0
C208 C 0.42341 0.33954 0.13574 0.0
C209 C 0.4761 0.364 0.13568 0.0
C210 C 0.42944 0.38394 0.17701 0.0
C211 C 0.50389 0.39308 0.15829 0.0
C212 C 0.43682 0.45849 0.20223 0.0
C213 C 0.33253 0.41044 0.20206 0.0
N214 N 0.48038 0.40372 0.1777 0.0
N215 N 0.35609 0.3851 0.19432 0.0
H216 H 0.87084 0.35931 0.49212 0.0
H217 H 1.09342 0.64436 0.47818 0.0
H218 H 1.02611 0.40754 0.51391 0.0
H219 H 0.95875 0.57418 0.42705 0.0
H220 H 1.06139 0.56528 0.50301 0.0
H221 H 0.89549 0.44615 0.48044 0.0
C222 C 0.90996 0.38843 0.4951 0.0
C223 C 0.94658 0.37619 0.50385 0.0
C224 C 1.03853 0.56765 0.48668 0.0
C225 C 0.975 0.4754 0.49023 0.0
C226 C 1.05655 0.61262 0.47268 0.0
C227 C 1.02852 0.61529 0.45063 0.0
C228 C 0.99197 0.52565 0.4787 0.0
C229 C 0.98133 0.57325 0.44395 0.0
C230 C 0.92401 0.43785 0.48821 0.0
C231 C 0.99686 0.41536 0.50694 0.0
N232 N 0.96453 0.52996 0.45789 0.0
N233 N 1.00973 0.46331 0.49994 0.0
H234 H 0.82558 0.97555 0.82016 0.0
H235 H 0.58846 1.00737 0.81259 0.0
H236 H 0.69655 0.89253 0.8688 0.0
H237 H 0.72584 0.10577 0.77281 0.0
H238 H 0.63499 0.98028 0.84178 0.0
H239 H 0.79884 1.03723 0.81146 0.0
C240 C 0.79236 0.97093 0.82968 0.0
C241 C 0.76253 0.92788 0.84469 0.0
C242 C 0.65532 1.0086 0.82705 0.0
C243 C 0.73084 0.9979 0.83404 0.0
C244 C 0.62873 1.02454 0.8104 0.0
C245 C 0.65288 1.05793 0.78956 0.0
C246 C 0.7062 1.02535 0.82256 0.0
C247 C 0.70519 1.07848 0.7879 0.0
C248 C 0.77689 1.00617 0.82452 0.0
C249 C 0.71979 0.92416 0.85635 0.0
N250 N 0.72987 1.06093 0.80372 0.0
N251 N 0.7046 0.95805 0.85029 0.0
H252 H 0.87624 0.5971 0.18501 0.0
H253 H 0.67181 0.63703 0.11065 0.0
H254 H 0.90404 0.74241 0.15688 0.0
H255 H 0.6422 0.49808 0.14835 0.0
H256 H 0.75024 0.68234 0.13772 0.0
H257 H 0.78642 0.56723 0.18303 0.0
C258 C 0.86373 0.62335 0.17911 0.0
C259 C 0.89791 0.67196 0.17029 0.0
C260 C 0.72594 0.64217 0.14062 0.0
C261 C 0.79439 0.63713 0.16706 0.0
C262 C 0.68118 0.6163 0.12512 0.0
C263 C 0.65121 0.5635 0.12668 0.0
C264 C 0.74106 0.61482 0.15743 0.0
C265 C 0.66442 0.5387 0.14623 0.0
C266 C 0.81211 0.60604 0.1778 0.0
C267 C 0.87897 0.70396 0.16286 0.0
N268 N 0.70901 0.56435 0.16034 0.0
N269 N 0.82841 0.68558 0.16075 0.0
H270 H 0.37889 1.03505 0.4841 0.0
H271 H 0.14237 0.87896 0.38834 0.0
H272 H 0.38437 1.01472 0.39918 0.0
H273 H 0.13773 0.89333 0.47369 0.0
H274 H 0.22717 0.9529 0.38961 0.0
H275 H 0.29001 1.00971 0.47819 0.0
C276 C 0.36186 1.02687 0.46405 0.0
C277 C 0.38866 1.02549 0.44218 0.0
C278 C 0.20708 0.94103 0.40798 0.0
C279 C 0.28654 0.99508 0.43541 0.0
C280 C 0.15854 0.89909 0.40719 0.0
C281 C 0.13334 0.88027 0.43096 0.0
C282 C 0.23089 0.96326 0.43282 0.0
C283 C 0.15609 0.90694 0.45496 0.0
C284 C 0.31089 1.01201 0.46072 0.0
C285 C 0.36457 1.01465 0.4167 0.0
N286 N 0.20407 0.9465 0.45537 0.0
N287 N 0.31454 0.99867 0.41409 0.0
H288 H 0.47973 0.25005 0.85402 0.0
H289 H 0.50044 1.00865 0.8195 0.0
H290 H 0.61602 0.24132 0.86099 0.0
H291 H 0.40285 1.05367 0.77921 0.0
H292 H 0.519 1.07206 0.85488 0.0
H293 H 0.43088 0.15815 0.84809 0.0
C294 C 0.49926 0.22865 0.85546 0.0
C295 C 0.55217 0.25338 0.85731 0.0
C296 C 0.49182 1.06644 0.83888 0.0
C297 C 0.49644 0.14851 0.85034 0.0
C298 C 0.48121 1.03036 0.81873 0.0
C299 C 0.45153 1.02747 0.79607 0.0
C300 C 0.47168 0.09878 0.83637 0.0
C301 C 0.42664 1.05551 0.7962 0.0
C302 C 0.47127 0.1762 0.85196 0.0
C303 C 0.57537 0.2237 0.85894 0.0
N304 N 0.43813 0.0909 0.81577 0.0
N305 N 0.54741 0.17276 0.85483 0.0
H306 H 0.63942 0.88801 0.46656 0.0
H307 H 0.79217 0.7552 0.52768 0.0
H308 H 0.79163 0.97048 0.49979 0.0
H309 H 0.64614 0.66882 0.48792 0.0
H310 H 0.79259 0.83355 0.51611 0.0
H311 H 0.64051 0.8083 0.47298 0.0
C312 C 0.67325 0.88973 0.47506 0.0
C313 C 0.71555 0.93707 0.48252 0.0
C314 C 0.76058 0.79769 0.50951 0.0
C315 C 0.71687 0.84438 0.49019 0.0
C316 C 0.76052 0.7526 0.51596 0.0
C317 C 0.71951 0.70463 0.50843 0.0
C318 C 0.71886 0.79594 0.49564 0.0
C319 C 0.67917 0.70449 0.49374 0.0
C320 C 0.67379 0.84383 0.47875 0.0
C321 C 0.75796 0.93567 0.49357 0.0
N322 N 0.6797 0.74901 0.48807 0.0
N323 N 0.75738 0.89071 0.49709 0.0
H324 H 0.82231 0.52216 0.81159 0.0
H325 H 1.11969 0.68273 0.85612 0.0
H326 H 0.89917 0.67953 0.83609 0.0
H327 H 1.04777 0.52676 0.83009 0.0
H328 H 1.0404 0.68267 0.84643 0.0
H329 H 0.90316 0.52285 0.81639 0.0
C330 C 0.85592 0.55698 0.81793 0.0
C331 C 0.85279 0.60085 0.82341 0.0
C332 C 1.04185 0.64854 0.84231 0.0
C333 C 0.94718 0.60188 0.82901 0.0
C334 C 1.08768 0.64879 0.84753 0.0
C335 C 1.09174 0.60523 0.84313 0.0
C336 C 0.9982 0.60401 0.83295 0.0
C337 C 1.04755 0.56184 0.83303 0.0
C338 C 0.90245 0.55732 0.82066 0.0
C339 C 0.89865 0.64453 0.83157 0.0
N340 N 1.0031 0.56229 0.82845 0.0
N341 N 0.94312 0.64382 0.83411 0.0
H342 H 0.27552 0.80646 0.13911 0.0
H343 H 0.56874 0.969 0.19001 0.0
H344 H 0.35467 0.73439 0.17276 0.0
H345 H 0.49315 1.02818 0.14054 0.0
H346 H 0.49251 0.88393 0.18555 0.0
H347 H 0.35452 0.88783 0.14147 0.0
C348 C 0.30935 0.80741 0.14704 0.0
C349 C 0.30741 0.76243 0.15568 0.0
C350 C 0.49286 0.91538 0.17532 0.0
C351 C 0.39995 0.85766 0.15871 0.0
C352 C 0.5368 0.9641 0.17766 0.0
C353 C 0.53873 1.00634 0.16495 0.0
C354 C 0.44941 0.90842 0.16067 0.0
C355 C 0.49465 0.99714 0.15017 0.0
C356 C 0.3549 0.85434 0.14834 0.0
C357 C 0.35354 0.76739 0.16572 0.0
N358 N 0.45248 0.95 0.14858 0.0
N359 N 0.39733 0.81365 0.16707 0.0
H360 H 0.78586 0.26251 0.46823 0.0
H361 H 0.66645 0.42772 0.52375 0.0
H362 H 0.64025 0.19043 0.50332 0.0
H363 H 0.79106 0.48432 0.47149 0.0
H364 H 0.65578 0.34188 0.51864 0.0
H365 H 0.78855 0.34391 0.47154 0.0
C366 C 0.75425 0.26346 0.47668 0.0
C367 C 0.71259 0.21842 0.48535 0.0
C368 C 0.68496 0.37296 0.50795 0.0
C369 C 0.71608 0.314 0.48976 0.0
C370 C 0.69077 0.42212 0.51069 0.0
C371 C 0.7287 0.46382 0.49732 0.0
C372 C 0.71815 0.3651 0.4923 0.0
C373 C 0.7603 0.45372 0.48162 0.0
C374 C 0.7559 0.31047 0.4786 0.0
C375 C 0.67318 0.22349 0.4962 0.0
N376 N 0.75448 0.40623 0.47969 0.0
N377 N 0.67603 0.26999 0.49823 0.0
H378 H 0.60553 0.68875 0.80551 0.0
H379 H 0.32115 0.55788 0.85914 0.0
H380 H 0.53251 0.53887 0.83782 0.0
H381 H 0.38661 0.69079 0.81093 0.0
H382 H 0.39711 0.55012 0.85328 0.0
H383 H 0.52682 0.69096 0.80938 0.0
C384 C 0.57315 0.65614 0.81342 0.0
C385 C 0.57668 0.61346 0.82119 0.0
C386 C 0.39456 0.58059 0.84363 0.0
C387 C 0.4846 0.61599 0.82604 0.0
C388 C 0.35069 0.58472 0.84677 0.0
C389 C 0.34584 0.6241 0.83478 0.0
C390 C 0.43523 0.61685 0.82894 0.0
C391 C 0.38721 0.65885 0.81998 0.0
C392 C 0.52776 0.65742 0.81562 0.0
C393 C 0.5324 0.5727 0.83138 0.0
N394 N 0.42945 0.65454 0.81762 0.0
N395 N 0.4889 0.57508 0.83359 0.0
H396 H 0.97136 0.50614 0.14226 0.0
H397 H 0.85316 0.21695 0.19156 0.0
H398 H 1.05914 0.43756 0.1676 0.0
H399 H 0.75852 0.27448 0.16142 0.0
H400 H 0.9278 0.29732 0.18135 0.0
H401 H 0.89368 0.42396 0.14788 0.0
C402 C 0.97467 0.47407 0.14886 0.0
C403 C 1.02293 0.47986 0.15436 0.0
C404 C 0.89092 0.29264 0.17662 0.0
C405 C 0.9327 0.38427 0.16103 0.0
C406 C 0.84788 0.24622 0.18234 0.0
C407 C 0.79866 0.23781 0.17716 0.0
C408 C 0.886 0.33269 0.16577 0.0
C409 C 0.79521 0.27826 0.16545 0.0
C410 C 0.92995 0.42683 0.1521 0.0
C411 C 1.0236 0.43601 0.16299 0.0
N412 N 0.8379 0.32365 0.16039 0.0
N413 N 0.97987 0.39096 0.16605 0.0
H414 H 0.24039 0.59654 0.07065 0.0
H415 H 1.09406 0.54892 0.92954 0.0
H416 H 1.10506 0.60603 0.05964 0.0
H417 H 0.25703 0.62994 0.93469 0.0
H418 H 1.09341 0.54994 0.97819 0.0
H419 H 0.24296 0.58943 0.02161 0.0
C420 C 0.21103 0.59661 0.05796 0.0
C421 C 0.17256 0.60209 0.0692 0.0
C422 C 0.12928 0.56731 0.96861 0.0
C423 C 0.17479 0.59307 0.01347 0.0
C424 C 0.12984 0.56721 0.94072 0.0
C425 C 0.17575 0.59047 0.92756 0.0
C426 C 0.17483 0.58966 0.98381 0.0
C427 C 0.22062 0.61139 0.94365 0.0
C428 C 0.2127 0.59286 0.03007 0.0
C429 C 0.1356 0.60226 0.05184 0.0
N430 N 0.21905 0.61053 0.97089 0.0
N431 N 0.13741 0.59745 0.02495 0.0
H432 H 0.64219 1.07672 0.3932 0.0
H433 H 0.80008 0.15488 0.26003 0.0
H434 H 0.79699 0.11083 0.3931 0.0
H435 H 0.64099 0.10339 0.26233 0.0
H436 H 0.80185 0.14178 0.30842 0.0
H437 H 0.64315 0.08851 0.34524 0.0
C438 C 0.67656 0.08669 0.38311 0.0
C439 C 0.71967 0.09288 0.3974 0.0
C440 C 0.76658 0.13323 0.29828 0.0
C441 C 0.72098 0.10669 0.34182 0.0
C442 C 0.76557 0.14098 0.27067 0.0
C443 C 0.72024 0.13011 0.25696 0.0
C444 C 0.72204 0.11483 0.31236 0.0
C445 C 0.67667 0.11166 0.27184 0.0
C446 C 0.67701 0.09336 0.35556 0.0
C447 C 0.76286 0.10557 0.38295 0.0
N448 N 0.67873 0.10479 0.29859 0.0
N449 N 0.76251 0.11228 0.35596 0.0
H450 H 0.78227 0.68666 0.7325 0.0
H451 H 0.65408 0.53353 0.59454 0.0
H452 H 0.65168 0.53669 0.72777 0.0
H453 H 0.77407 0.68929 0.59802 0.0
H454 H 0.65562 0.533 0.64342 0.0
H455 H 0.7825 0.68759 0.68349 0.0
C456 C 0.75368 0.65391 0.72123 0.0
C457 C 0.71688 0.61155 0.73443 0.0
C458 C 0.68164 0.56735 0.63353 0.0
C459 C 0.71702 0.61233 0.67817 0.0
C460 C 0.681 0.56757 0.60555 0.0
C461 C 0.71397 0.61152 0.592 0.0
C462 C 0.7157 0.61132 0.64828 0.0
C463 C 0.74751 0.65469 0.60751 0.0
C464 C 0.7538 0.6545 0.6932 0.0
C465 C 0.68078 0.57028 0.71862 0.0
N466 N 0.74757 0.65347 0.63474 0.0
N467 N 0.68184 0.5717 0.69146 0.0
H468 H 0.64101 0.98489 0.55795 0.0
H469 H 0.54388 0.99781 0.67767 0.0
H470 H 0.7445 0.14499 0.57005 0.0
H471 H 0.69244 0.12301 0.6979 0.0
H472 H 0.56925 0.99828 0.63199 0.0
H473 H 0.61529 0.98002 0.60369 0.0
C474 C 0.65829 1.01917 0.57025 0.0
C475 C 0.69441 1.06564 0.56002 0.0
C476 C 0.59668 1.02508 0.64649 0.0
C477 C 0.66374 1.06055 0.61236 0.0
C478 C 0.58188 1.02535 0.67248 0.0
C479 C 0.61621 1.06014 0.69164 0.0
C480 C 0.64626 1.05978 0.6396 0.0
C481 C 0.66508 0.09497 0.68381 0.0
C482 C 0.64306 1.01642 0.59632 0.0
C483 C 0.71626 0.10849 0.5771 0.0
N484 N 0.67864 0.09403 0.65833 0.0
N485 N 0.70038 0.10497 0.6025 0.0
H486 H 0.69392 0.51568 0.89774 0.0
H487 H 0.62497 0.60172 0.03323 0.0
H488 H 0.69362 0.65663 0.90627 0.0
H489 H 0.60054 0.4515 0.01815 0.0
H490 H 0.65461 0.62486 0.98785 0.0
H491 H 0.6656 0.49464 0.94311 0.0
C492 C 0.68831 0.54251 0.90922 0.0
C493 C 0.69614 0.58807 0.89812 0.0
C494 C 0.64255 0.58679 -0.00558 0.0
C495 C 0.6632 0.56377 0.95024 0.0
C496 C 0.62576 0.57359 0.02031 0.0
C497 C 0.61036 0.52463 0.02944 0.0
C498 C 0.64434 0.55088 0.97762 0.0
C499 C 0.61162 0.4895 0.01183 0.0
C500 C 0.67182 0.53024 0.93513 0.0
C501 C 0.68808 0.62113 0.91402 0.0
N502 N 0.62861 0.50341 0.98681 0.0
N503 N 0.67196 0.60829 0.93932 0.0
H504 H 1.06377 0.59787 0.22558 0.0
H505 H 0.17833 0.74126 0.36553 0.0
H506 H 0.22366 0.67379 0.245 0.0
H507 H 1.02303 0.62457 0.35218 0.0
H508 H 0.19642 0.72357 0.32056 0.0
H509 H 1.0488 0.6129 0.27119 0.0
C510 C 1.09581 0.61753 0.23954 0.0
C511 C 0.14509 0.6347 0.23149 0.0
C512 C 0.15847 0.70182 0.32757 0.0
C513 C 0.12813 0.65259 0.28387 0.0
C514 C 0.14803 0.71219 0.35306 0.0
C515 C 1.09907 0.68437 0.3625 0.0
C516 C 1.11947 0.6639 0.31136 0.0
C517 C 1.06133 0.64669 0.34572 0.0
C518 C 1.08718 0.62602 0.26562 0.0
C519 C 0.18508 0.65974 0.25048 0.0
N520 N 1.07227 0.63776 0.32095 0.0
N521 N 0.17578 0.66844 0.27582 0.0
loop_
_geom_bond_atom_site_label_1
_geom_bond_atom_site_label_2
_geom_bond_distance
_geom_bond_site_symmetry_2
_ccdc_geom_bond_type
Tb0 C9 2.764 . S
Tb0 O10 2.325 . S
Tb0 O13 2.303 . S
Tb0 O17 2.322 1_655 S
Tb0 O18 2.349 . S
Tb0 O21 2.415 . S
Tb0 O22 2.399 . S
Tb1 O11 2.322 1_455 S
Tb1 O12 2.349 . S
Tb1 O14 2.415 . S
Tb1 O15 2.399 . S
Tb1 O16 2.325 . S
Tb1 O19 2.303 . S
Tb1 C30 2.764 . S
C2 O18 1.261 1_455 S
C2 O19 1.257 . S
C3 C6 1.358 . S
C3 C7 1.332 . S
C3 C9 1.504 . S
C4 C5 1.373 . S
C4 C8 1.308 . S
C5 C4 1.373 . S
C5 C6 1.429 . S
C5 H32 0.932 . S
C6 C3 1.358 . S
C6 C5 1.429 . S
C6 H33 0.930 . S
C7 C3 1.332 . S
C7 C8 1.394 . S
C7 H34 0.932 . S
C8 C4 1.308 . S
C8 C7 1.394 . S
C8 H35 0.929 . S
C9 Tb0 2.764 . S
C9 C3 1.504 . S
C9 O21 1.239 . S
C9 O22 1.263 . S
O10 Tb0 2.325 . S
O10 C20 1.236 . S
O11 Tb1 2.322 1_655 S
O11 C20 1.257 . S
O12 Tb1 2.349 . S
O12 C23 1.261 . S
O13 Tb0 2.303 . S
O13 C23 1.257 1_655 S
O14 Tb1 2.415 . S
O14 C30 1.239 . S
O15 Tb1 2.399 . S
O15 C30 1.263 . S
O16 Tb1 2.325 . S
O16 C31 1.236 . S
O17 Tb0 2.322 1_455 S
O17 C31 1.257 . S
O18 Tb0 2.349 . S
O18 C2 1.261 1_655 S
O19 Tb1 2.303 . S
O19 C2 1.257 . S
C20 O10 1.236 . S
C20 O11 1.257 . S
O21 Tb0 2.415 . S
O21 C9 1.239 . S
O22 Tb0 2.399 . S
O22 C9 1.263 . S
C23 O12 1.261 . S
C23 O13 1.257 1_455 S
C24 C27 1.358 . S
C24 C28 1.332 . S
C24 C30 1.504 . S
C25 C26 1.373 . S
C25 C29 1.308 . S
C26 C25 1.373 . S
C26 C27 1.429 . S
C26 H36 0.932 . S
C27 C24 1.358 . S
C27 C26 1.429 . S
C27 H37 0.930 . S
C28 C24 1.332 . S
C28 C29 1.394 . S
C28 H38 0.932 . S
C29 C25 1.308 . S
C29 C28 1.394 . S
C29 H39 0.929 . S
C30 Tb1 2.764 . S
C30 O14 1.239 . S
C30 O15 1.263 . S
C30 C24 1.504 . S
C31 O16 1.236 . S
C31 O17 1.257 . S
H32 C5 0.932 . S
H33 C6 0.930 . S
H34 C7 0.932 . S
H35 C8 0.929 . S
H36 C26 0.932 . S
H37 C27 0.930 . S
H38 C28 0.932 . S
H39 C29 0.929 . S
Tb40 C49 2.764 . S
Tb40 O50 2.325 . S
Tb40 O53 2.303 1_565 S
Tb40 O57 2.322 1_565 S
Tb40 O58 2.349 1_565 S
Tb40 O61 2.415 . S
Tb40 O62 2.399 . S
Tb41 O51 2.322 1_545 S
Tb41 O52 2.349 . S
Tb41 O54 2.415 . S
Tb41 O55 2.399 . S
Tb41 O56 2.325 . S
Tb41 O59 2.303 . S
Tb41 C70 2.764 . S
C42 O58 1.261 . S
C42 O59 1.257 . S
C43 C46 1.358 . S
C43 C47 1.332 . S
C43 C49 1.504 . S
C44 C45 1.373 . S
C44 C48 1.308 . S
C45 C44 1.373 . S
C45 C46 1.429 . S
C45 H72 0.932 . S
C46 C43 1.358 . S
C46 C45 1.429 . S
C46 H73 0.930 . S
C47 C43 1.332 . S
C47 C48 1.394 . S
C47 H74 0.932 . S
C48 C44 1.308 . S
C48 C47 1.394 . S
C48 H75 0.929 . S
C49 Tb40 2.764 . S
C49 C43 1.504 . S
C49 O61 1.239 . S
C49 O62 1.263 . S
O50 Tb40 2.325 . S
O50 C60 1.236 . S
O51 Tb41 2.322 1_565 S
O51 C60 1.257 . S
O52 Tb41 2.349 . S
O52 C63 1.261 . S
O53 Tb40 2.303 1_545 S
O53 C63 1.257 . S
O54 Tb41 2.415 . S
O54 C70 1.239 . S
O55 Tb41 2.399 . S
O55 C70 1.263 . S
O56 Tb41 2.325 . S
O56 C71 1.236 . S
O57 Tb40 2.322 1_545 S
O57 C71 1.257 . S
O58 Tb40 2.349 1_545 S
O58 C42 1.261 . S
O59 Tb41 2.303 . S
O59 C42 1.257 . S
C60 O50 1.236 . S
C60 O51 1.257 . S
O61 Tb40 2.415 . S
O61 C49 1.239 . S
O62 Tb40 2.399 . S
O62 C49 1.263 . S
C63 O52 1.261 . S
C63 O53 1.257 . S
C64 C67 1.358 . S
C64 C68 1.332 . S
C64 C70 1.504 . S
C65 C66 1.373 . S
C65 C69 1.308 . S
C66 C65 1.373 . S
C66 C67 1.429 . S
C66 H76 0.932 . S
C67 C64 1.358 . S
C67 C66 1.429 . S
C67 H77 0.930 . S
C68 C64 1.332 . S
C68 C69 1.394 . S
C68 H78 0.932 . S
C69 C65 1.308 . S
C69 C68 1.394 . S
C69 H79 0.929 . S
C70 Tb41 2.764 . S
C70 O54 1.239 . S
C70 O55 1.263 . S
C70 C64 1.504 . S
C71 O56 1.236 . S
C71 O57 1.257 . S
H72 C45 0.932 . S
H73 C46 0.930 . S
H74 C47 0.932 . S
H75 C48 0.929 . S
H76 C66 0.932 . S
H77 C67 0.930 . S
H78 C68 0.932 . S
H79 C69 0.929 . S
Tb80 C89 2.764 . S
Tb80 O90 2.325 . S
Tb80 O93 2.303 . S
Tb80 O97 2.322 . S
Tb80 O98 2.349 . S
Tb80 O101 2.415 . S
Tb80 O102 2.399 . S
Tb81 O91 2.322 . S
Tb81 O92 2.349 . S
Tb81 O94 2.415 . S
Tb81 O95 2.399 . S
Tb81 O96 2.325 . S
Tb81 O99 2.303 . S
Tb81 C110 2.764 . S
C82 O98 1.261 . S
C82 O99 1.257 . S
C83 C86 1.358 . S
C83 C87 1.332 . S
C83 C89 1.504 . S
C84 C85 1.373 . S
C84 C88 1.308 . S
C85 C84 1.373 . S
C85 C86 1.429 . S
C85 H112 0.932 . S
C86 C83 1.358 . S
C86 C85 1.429 . S
C86 H113 0.930 . S
C87 C83 1.332 . S
C87 C88 1.394 . S
C87 H114 0.932 . S
C88 C84 1.308 . S
C88 C87 1.394 . S
C88 H115 0.929 . S
C89 Tb80 2.764 . S
C89 C83 1.504 . S
C89 O101 1.239 . S
C89 O102 1.263 . S
O90 Tb80 2.325 . S
O90 C100 1.236 . S
O91 Tb81 2.322 . S
O91 C100 1.257 . S
O92 Tb81 2.349 . S
O92 C103 1.261 . S
O93 Tb80 2.303 . S
O93 C103 1.257 . S
O94 Tb81 2.415 . S
O94 C110 1.239 . S
O95 Tb81 2.399 . S
O95 C110 1.263 . S
O96 Tb81 2.325 . S
O96 C111 1.236 . S
O97 Tb80 2.322 . S
O97 C111 1.257 . S
O98 Tb80 2.349 . S
O98 C82 1.261 . S
O99 Tb81 2.303 . S
O99 C82 1.257 . S
C100 O90 1.236 . S
C100 O91 1.257 . S
O101 Tb80 2.415 . S
O101 C89 1.239 . S
O102 Tb80 2.399 . S
O102 C89 1.263 . S
C103 O92 1.261 . S
C103 O93 1.257 . S
C104 C107 1.358 . S
C104 C108 1.332 . S
C104 C110 1.504 . S
C105 C106 1.373 . S
C105 C109 1.308 . S
C106 C105 1.373 . S
C106 C107 1.429 . S
C106 H116 0.932 . S
C107 C104 1.358 . S
C107 C106 1.429 . S
C107 H117 0.930 . S
C108 C104 1.332 . S
C108 C109 1.394 . S
C108 H118 0.932 . S
C109 C105 1.308 . S
C109 C108 1.394 . S
C109 H119 0.929 . S
C110 Tb81 2.764 . S
C110 O94 1.239 . S
C110 O95 1.263 . S
C110 C104 1.504 . S
C111 O96 1.236 . S
C111 O97 1.257 . S
H112 C85 0.932 . S
H113 C86 0.930 . S
H114 C87 0.932 . S
H115 C88 0.929 . S
H116 C106 0.932 . S
H117 C107 0.930 . S
H118 C108 0.932 . S
H119 C109 0.929 . S
H120 C127 0.929 . S
H121 C130 0.930 . S
H122 C132 0.929 . S
H123 C124 0.969 . S
C124 H123 0.969 . S
C124 O125 1.550 . S
C124 H126 0.973 . S
O125 C124 1.550 . S
O125 C131 1.410 . S
H126 C124 0.973 . S
C127 H120 0.929 . S
C127 C128 1.400 . S
C127 C129 1.364 . S
C128 C127 1.400 . S
C128 C132 1.377 . S
C129 C127 1.364 . S
C129 C130 1.374 1_545 S
C130 H121 0.930 . S
C130 C129 1.374 1_565 S
C130 C131 1.383 . S
C131 O125 1.410 . S
C131 C130 1.383 . S
C131 C132 1.396 1_565 S
C132 H122 0.929 . S
C132 C128 1.377 . S
C132 C131 1.396 1_545 S
H133 C140 0.929 . S
H134 C143 0.930 . S
H135 C145 0.929 . S
H136 C137 0.969 . S
C137 H136 0.969 . S
C137 O138 1.550 . S
C137 H139 0.973 . S
O138 C137 1.550 . S
O138 C144 1.412 . S
H139 C137 0.973 . S
C140 H133 0.929 . S
C140 C141 1.400 . S
C140 C142 1.364 . S
C141 C140 1.400 . S
C141 C145 1.377 . S
C142 C140 1.364 . S
C142 C143 1.374 . S
C143 H134 0.930 . S
C143 C142 1.374 . S
C143 C144 1.383 . S
C144 O138 1.412 . S
C144 C143 1.383 . S
C144 C145 1.394 . S
C145 H135 0.929 . S
C145 C141 1.377 . S
C145 C144 1.394 . S
H146 C153 0.931 . S
H147 C156 0.930 . S
H148 C158 0.929 . S
H149 C150 0.969 . S
C150 H149 0.969 . S
C150 O151 1.550 . S
C150 H152 0.973 . S
O151 C150 1.550 . S
O151 C157 1.412 . S
H152 C150 0.973 . S
C153 H146 0.931 . S
C153 C154 1.400 . S
C153 C155 1.364 . S
C154 C153 1.400 . S
C154 C158 1.377 . S
C155 C153 1.364 . S
C155 C156 1.374 . S
C156 H147 0.930 . S
C156 C155 1.374 . S
C156 C157 1.383 . S
C157 O151 1.412 . S
C157 C156 1.383 . S
C157 C158 1.394 . S
C158 H148 0.929 . S
C158 C154 1.377 . S
C158 C157 1.394 . S
H159 C166 0.929 . S
H160 C169 0.930 . S
H161 C171 0.929 . S
H162 C163 0.969 . S
C163 H162 0.969 . S
C163 O164 1.550 . S
C163 H165 0.973 . S
O164 C163 1.550 . S
O164 C170 1.412 . S
H165 C163 0.973 . S
C166 H159 0.929 . S
C166 C167 1.400 . S
C166 C168 1.364 . S
C167 C166 1.400 . S
C167 C171 1.377 . S
C168 C166 1.364 . S
C168 C169 1.374 1_655 S
C169 H160 0.930 . S
C169 C168 1.374 1_455 S
C169 C170 1.383 . S
C170 O164 1.412 . S
C170 C169 1.383 . S
C170 C171 1.394 1_455 S
C171 H161 0.929 . S
C171 C167 1.377 . S
C171 C170 1.394 1_655 S
H172 C179 0.929 . S
H173 C182 0.930 . S
H174 C184 0.929 . S
H175 C176 0.969 . S
C176 H175 0.969 . S
C176 O177 1.550 . S
C176 H178 0.973 . S
O177 C176 1.550 . S
O177 C183 1.412 . S
H178 C176 0.973 . S
C179 H172 0.929 . S
C179 C180 1.400 . S
C179 C181 1.364 . S
C180 C179 1.400 . S
C180 C184 1.377 . S
C181 C179 1.364 . S
C181 C182 1.374 1_565 S
C182 H173 0.930 . S
C182 C181 1.374 1_545 S
C182 C183 1.383 . S
C183 O177 1.412 . S
C183 C182 1.383 . S
C183 C184 1.394 1_545 S
C184 H174 0.929 . S
C184 C180 1.377 . S
C184 C183 1.394 1_565 S
H185 C192 0.929 . S
H186 C195 0.930 . S
H187 C197 0.929 . S
H188 C189 0.969 . S
C189 H188 0.969 . S
C189 O190 1.550 . S
C189 H191 0.973 . S
O190 C189 1.550 . S
O190 C196 1.412 . S
H191 C189 0.973 . S
C192 H185 0.929 . S
C192 C193 1.400 . S
C192 C194 1.364 . S
C193 C192 1.400 . S
C193 C197 1.377 . S
C194 C192 1.364 . S
C194 C195 1.374 . S
C195 H186 0.930 . S
C195 C194 1.374 . S
C195 C196 1.383 . S
C196 O190 1.412 . S
C196 C195 1.383 . S
C196 C197 1.394 . S
C197 H187 0.929 . S
C197 C193 1.377 . S
C197 C196 1.394 . S
H198 C204 0.930 . S
H199 C208 0.930 . S
H200 C213 0.929 . S
H201 C211 0.929 . S
H202 C206 0.929 . S
H203 C212 0.929 . S
C204 H198 0.930 . S
C204 C205 1.367 . S
C204 C212 1.378 . S
C205 C204 1.367 . S
C205 C213 1.433 . S
C206 H202 0.929 . S
C206 C208 1.378 . S
C206 C210 1.350 . S
C207 C210 1.463 . S
C207 C212 1.350 . S
C207 N215 1.427 . S
C208 H199 0.930 . S
C208 C206 1.378 . S
C208 C209 1.367 . S
C209 C208 1.367 . S
C209 C211 1.433 . S
C210 C206 1.350 . S
C210 C207 1.463 . S
C210 N214 1.427 . S
C211 H201 0.929 . S
C211 C209 1.433 . S
C211 N214 1.384 . S
C212 H203 0.929 . S
C212 C204 1.378 . S
C212 C207 1.350 . S
C213 H200 0.929 . S
C213 C205 1.433 . S
C213 N215 1.384 . S
N214 C210 1.427 . S
N214 C211 1.384 . S
N215 C207 1.427 . S
N215 C213 1.384 . S
H216 C222 0.930 . S
H217 C226 0.927 1_455 S
H218 C231 0.929 . S
H219 C229 0.929 . S
H220 C224 0.929 . S
H221 C230 0.929 . S
C222 H216 0.930 . S
C222 C223 1.367 . S
C222 C230 1.378 . S
C223 C222 1.367 . S
C223 C231 1.433 . S
C224 H220 0.929 . S
C224 C226 1.378 . S
C224 C228 1.350 . S
C225 C228 1.463 . S
C225 C230 1.350 . S
C225 N233 1.427 . S
C226 H217 0.927 1_655 S
C226 C224 1.378 . S
C226 C227 1.367 . S
C227 C226 1.367 . S
C227 C229 1.433 . S
C228 C224 1.350 . S
C228 C225 1.463 . S
C228 N232 1.427 . S
C229 H219 0.929 . S
C229 C227 1.433 . S
C229 N232 1.384 . S
C230 H221 0.929 . S
C230 C222 1.378 . S
C230 C225 1.350 . S
C231 H218 0.929 . S
C231 C223 1.433 . S
C231 N233 1.384 . S
N232 C228 1.427 . S
N232 C229 1.384 . S
N233 C225 1.427 . S
N233 C231 1.384 . S
H234 C240 0.930 . S
H235 C244 0.930 . S
H236 C249 0.929 . S
H237 C247 0.929 . S
H238 C242 0.929 . S
H239 C248 0.929 . S
C240 H234 0.930 . S
C240 C241 1.367 . S
C240 C248 1.378 . S
C241 C240 1.367 . S
C241 C249 1.433 . S
C242 H238 0.929 . S
C242 C244 1.378 . S
C242 C246 1.350 . S
C243 C246 1.463 . S
C243 C248 1.350 . S
C243 N251 1.427 . S
C244 H235 0.930 . S
C244 C242 1.378 . S
C244 C245 1.367 . S
C245 C244 1.367 . S
C245 C247 1.433 . S
C246 C242 1.350 . S
C246 C243 1.463 . S
C246 N250 1.427 . S
C247 H237 0.929 . S
C247 C245 1.433 . S
C247 N250 1.384 . S
C248 H239 0.929 . S
C248 C240 1.378 . S
C248 C243 1.350 . S
C249 H236 0.929 . S
C249 C241 1.433 . S
C249 N251 1.384 . S
N250 C246 1.427 . S
N250 C247 1.384 . S
N251 C243 1.427 . S
N251 C249 1.384 . S
H252 C258 0.930 . S
H253 C262 0.930 . S
H254 C267 0.929 . S
H255 C265 0.929 . S
H256 C260 0.929 . S
H257 C266 0.929 . S
C258 H252 0.930 . S
C258 C259 1.367 . S
C258 C266 1.378 . S
C259 C258 1.367 . S
C259 C267 1.433 . S
C260 H256 0.929 . S
C260 C262 1.378 . S
C260 C264 1.350 . S
C261 C264 1.463 . S
C261 C266 1.350 . S
C261 N269 1.427 . S
C262 H253 0.930 . S
C262 C260 1.378 . S
C262 C263 1.367 . S
C263 C262 1.367 . S
C263 C265 1.433 . S
C264 C260 1.350 . S
C264 C261 1.463 . S
C264 N268 1.427 . S
C265 H255 0.929 . S
C265 C263 1.433 . S
C265 N268 1.384 . S
C266 H257 0.929 . S
C266 C258 1.378 . S
C266 C261 1.350 . S
C267 H254 0.929 . S
C267 C259 1.433 . S
C267 N269 1.384 . S
N268 C264 1.427 . S
N268 C265 1.384 . S
N269 C261 1.427 . S
N269 C267 1.384 . S
H270 C276 0.930 . S
H271 C280 0.930 . S
H272 C285 0.929 . S
H273 C283 0.929 . S
H274 C278 0.929 . S
H275 C284 0.929 . S
C276 H270 0.930 . S
C276 C277 1.367 . S
C276 C284 1.378 . S
C277 C276 1.367 . S
C277 C285 1.433 . S
C278 H274 0.929 . S
C278 C280 1.378 . S
C278 C282 1.350 . S
C279 C282 1.463 . S
C279 C284 1.350 . S
C279 N287 1.427 . S
C280 H271 0.930 . S
C280 C278 1.378 . S
C280 C281 1.367 . S
C281 C280 1.367 . S
C281 C283 1.433 . S
C282 C278 1.350 . S
C282 C279 1.463 . S
C282 N286 1.427 . S
C283 H273 0.929 . S
C283 C281 1.433 . S
C283 N286 1.384 . S
C284 H275 0.929 . S
C284 C276 1.378 . S
C284 C279 1.350 . S
C285 H272 0.929 . S
C285 C277 1.433 . S
C285 N287 1.384 . S
N286 C282 1.427 . S
N286 C283 1.384 . S
N287 C279 1.427 . S
N287 C285 1.384 . S
H288 C294 0.930 . S
H289 C298 0.930 . S
H290 C303 0.929 . S
H291 C301 0.929 . S
H292 C296 0.929 . S
H293 C302 0.929 . S
C294 H288 0.930 . S
C294 C295 1.367 . S
C294 C302 1.378 . S
C295 C294 1.367 . S
C295 C303 1.433 . S
C296 H292 0.929 . S
C296 C298 1.378 . S
C296 C300 1.350 . S
C297 C300 1.463 . S
C297 C302 1.350 . S
C297 N305 1.427 . S
C298 H289 0.930 . S
C298 C296 1.378 . S
C298 C299 1.367 . S
C299 C298 1.367 . S
C299 C301 1.433 . S
C300 C296 1.350 . S
C300 C297 1.463 . S
C300 N304 1.427 . S
C301 H291 0.929 . S
C301 C299 1.433 . S
C301 N304 1.384 . S
C302 H293 0.929 . S
C302 C294 1.378 . S
C302 C297 1.350 . S
C303 H290 0.929 . S
C303 C295 1.433 . S
C303 N305 1.384 . S
N304 C300 1.427 . S
N304 C301 1.384 . S
N305 C297 1.427 . S
N305 C303 1.384 . S
H306 C312 0.930 . S
H307 C316 0.930 . S
H308 C321 0.929 . S
H309 C319 0.929 . S
H310 C314 0.929 . S
H311 C320 0.929 . S
C312 H306 0.930 . S
C312 C313 1.367 . S
C312 C320 1.378 . S
C313 C312 1.367 . S
C313 C321 1.433 . S
C314 H310 0.929 . S
C314 C316 1.378 . S
C314 C318 1.350 . S
C315 C318 1.463 . S
C315 C320 1.350 . S
C315 N323 1.427 . S
C316 H307 0.930 . S
C316 C314 1.378 . S
C316 C317 1.367 . S
C317 C316 1.367 . S
C317 C319 1.433 . S
C318 C314 1.350 . S
C318 C315 1.463 . S
C318 N322 1.427 . S
C319 H309 0.929 . S
C319 C317 1.433 . S
C319 N322 1.384 . S
C320 H311 0.929 . S
C320 C312 1.378 . S
C320 C315 1.350 . S
C321 H308 0.929 . S
C321 C313 1.433 . S
C321 N323 1.384 . S
N322 C318 1.427 . S
N322 C319 1.384 . S
N323 C315 1.427 . S
N323 C321 1.384 . S
H324 C330 0.930 . S
H325 C334 0.930 . S
H326 C339 0.929 . S
H327 C337 0.929 . S
H328 C332 0.929 . S
H329 C338 0.929 . S
C330 H324 0.930 . S
C330 C331 1.367 . S
C330 C338 1.378 . S
C331 C330 1.367 . S
C331 C339 1.433 . S
C332 H328 0.929 . S
C332 C334 1.378 . S
C332 C336 1.350 . S
C333 C336 1.463 . S
C333 C338 1.350 . S
C333 N341 1.427 . S
C334 H325 0.930 . S
C334 C332 1.378 . S
C334 C335 1.367 . S
C335 C334 1.367 . S
C335 C337 1.433 . S
C336 C332 1.350 . S
C336 C333 1.463 . S
C336 N340 1.427 . S
C337 H327 0.929 . S
C337 C335 1.433 . S
C337 N340 1.384 . S
C338 H329 0.929 . S
C338 C330 1.378 . S
C338 C333 1.350 . S
C339 H326 0.929 . S
C339 C331 1.433 . S
C339 N341 1.384 . S
N340 C336 1.427 . S
N340 C337 1.384 . S
N341 C333 1.427 . S
N341 C339 1.384 . S
H342 C348 0.930 . S
H343 C352 0.930 . S
H344 C357 0.929 . S
H345 C355 0.929 . S
H346 C350 0.929 . S
H347 C356 0.929 . S
C348 H342 0.930 . S
C348 C349 1.367 . S
C348 C356 1.378 . S
C349 C348 1.367 . S
C349 C357 1.433 . S
C350 H346 0.929 . S
C350 C352 1.378 . S
C350 C354 1.350 . S
C351 C354 1.463 . S
C351 C356 1.350 . S
C351 N359 1.427 . S
C352 H343 0.930 . S
C352 C350 1.378 . S
C352 C353 1.367 . S
C353 C352 1.367 . S
C353 C355 1.433 . S
C354 C350 1.350 . S
C354 C351 1.463 . S
C354 N358 1.427 . S
C355 H345 0.929 . S
C355 C353 1.433 . S
C355 N358 1.384 . S
C356 H347 0.929 . S
C356 C348 1.378 . S
C356 C351 1.350 . S
C357 H344 0.929 . S
C357 C349 1.433 . S
C357 N359 1.384 . S
N358 C354 1.427 . S
N358 C355 1.384 . S
N359 C351 1.427 . S
N359 C357 1.384 . S
H360 C366 0.930 . S
H361 C370 0.930 . S
H362 C375 0.929 . S
H363 C373 0.929 . S
H364 C368 0.929 . S
H365 C374 0.929 . S
C366 H360 0.930 . S
C366 C367 1.367 . S
C366 C374 1.378 . S
C367 C366 1.367 . S
C367 C375 1.433 . S
C368 H364 0.929 . S
C368 C370 1.378 . S
C368 C372 1.350 . S
C369 C372 1.463 . S
C369 C374 1.350 . S
C369 N377 1.427 . S
C370 H361 0.930 . S
C370 C368 1.378 . S
C370 C371 1.367 . S
C371 C370 1.367 . S
C371 C373 1.433 . S
C372 C368 1.350 . S
C372 C369 1.463 . S
C372 N376 1.427 . S
C373 H363 0.929 . S
C373 C371 1.433 . S
C373 N376 1.384 . S
C374 H365 0.929 . S
C374 C366 1.378 . S
C374 C369 1.350 . S
C375 H362 0.929 . S
C375 C367 1.433 . S
C375 N377 1.384 . S
N376 C372 1.427 . S
N376 C373 1.384 . S
N377 C369 1.427 . S
N377 C375 1.384 . S
H378 C384 0.930 . S
H379 C388 0.930 . S
H380 C393 0.929 . S
H381 C391 0.929 . S
H382 C386 0.929 . S
H383 C392 0.929 . S
C384 H378 0.930 . S
C384 C385 1.367 . S
C384 C392 1.378 . S
C385 C384 1.367 . S
C385 C393 1.433 . S
C386 H382 0.929 . S
C386 C388 1.378 . S
C386 C390 1.350 . S
C387 C390 1.463 . S
C387 C392 1.350 . S
C387 N395 1.427 . S
C388 H379 0.930 . S
C388 C386 1.378 . S
C388 C389 1.367 . S
C389 C388 1.367 . S
C389 C391 1.433 . S
C390 C386 1.350 . S
C390 C387 1.463 . S
C390 N394 1.427 . S
C391 H381 0.929 . S
C391 C389 1.433 . S
C391 N394 1.384 . S
C392 H383 0.929 . S
C392 C384 1.378 . S
C392 C387 1.350 . S
C393 H380 0.929 . S
C393 C385 1.433 . S
C393 N395 1.384 . S
N394 C390 1.427 . S
N394 C391 1.384 . S
N395 C387 1.427 . S
N395 C393 1.384 . S
H396 C402 0.930 . S
H397 C406 0.930 . S
H398 C411 0.929 . S
H399 C409 0.929 . S
H400 C404 0.929 . S
H401 C410 0.929 . S
C402 H396 0.930 . S
C402 C403 1.367 . S
C402 C410 1.378 . S
C403 C402 1.367 . S
C403 C411 1.433 . S
C404 H400 0.929 . S
C404 C406 1.378 . S
C404 C408 1.350 . S
C405 C408 1.463 . S
C405 C410 1.350 . S
C405 N413 1.427 . S
C406 H397 0.930 . S
C406 C404 1.378 . S
C406 C407 1.367 . S
C407 C406 1.367 . S
C407 C409 1.433 . S
C408 C404 1.350 . S
C408 C405 1.463 . S
C408 N412 1.427 . S
C409 H399 0.929 . S
C409 C407 1.433 . S
C409 N412 1.384 . S
C410 H401 0.929 . S
C410 C402 1.378 . S
C410 C405 1.350 . S
C411 H398 0.929 . S
C411 C403 1.433 . S
C411 N413 1.384 . S
N412 C408 1.427 . S
N412 C409 1.384 . S
N413 C405 1.427 . S
N413 C411 1.384 . S
H414 C420 0.930 . S
H415 C424 0.930 1_655 S
H416 C429 0.929 . S
H417 C427 0.929 . S
H418 C422 0.929 1_655 S
H419 C428 0.929 . S
C420 H414 0.930 . S
C420 C421 1.367 . S
C420 C428 1.378 . S
C421 C420 1.367 . S
C421 C429 1.433 1_455 S
C422 H418 0.929 1_455 S
C422 C424 1.378 . S
C422 C426 1.350 . S
C423 C426 1.463 1_554 S
C423 C428 1.350 . S
C423 N431 1.427 1_455 S
C424 H415 0.930 1_455 S
C424 C422 1.378 . S
C424 C425 1.367 . S
C425 C424 1.367 . S
C425 C427 1.433 . S
C426 C422 1.350 . S
C426 C423 1.463 1_556 S
C426 N430 1.427 . S
C427 H417 0.929 . S
C427 C425 1.433 . S
C427 N430 1.384 . S
C428 H419 0.929 . S
C428 C420 1.378 . S
C428 C423 1.350 . S
C429 H416 0.929 . S
C429 C421 1.433 1_655 S
C429 N431 1.384 . S
N430 C426 1.427 . S
N430 C427 1.384 . S
N431 C423 1.427 1_655 S
N431 C429 1.384 . S
H432 C438 0.930 1_565 S
H433 C442 0.930 . S
H434 C447 0.929 . S
H435 C445 0.929 1_565 S
H436 C440 0.929 . S
H437 C446 0.929 1_565 S
C438 H432 0.930 1_545 S
C438 C439 1.367 . S
C438 C446 1.378 . S
C439 C438 1.367 . S
C439 C447 1.433 . S
C440 H436 0.929 . S
C440 C442 1.378 . S
C440 C444 1.350 . S
C441 C444 1.463 . S
C441 C446 1.350 . S
C441 N449 1.427 . S
C442 H433 0.930 . S
C442 C440 1.378 . S
C442 C443 1.367 . S
C443 C442 1.367 . S
C443 C445 1.433 . S
C444 C440 1.350 . S
C444 C441 1.463 . S
C444 N448 1.427 . S
C445 H435 0.929 1_545 S
C445 C443 1.433 . S
C445 N448 1.384 . S
C446 H437 0.929 1_545 S
C446 C438 1.378 . S
C446 C441 1.350 . S
C447 H434 0.929 . S
C447 C439 1.433 . S
C447 N449 1.384 . S
N448 C444 1.427 . S
N448 C445 1.384 . S
N449 C441 1.427 . S
N449 C447 1.384 . S
H450 C456 0.930 . S
H451 C460 0.930 . S
H452 C465 0.929 . S
H453 C463 0.929 . S
H454 C458 0.929 . S
H455 C464 0.929 . S
C456 H450 0.930 . S
C456 C457 1.367 . S
C456 C464 1.378 . S
C457 C456 1.367 . S
C457 C465 1.433 . S
C458 H454 0.929 . S
C458 C460 1.378 . S
C458 C462 1.350 . S
C459 C462 1.463 . S
C459 C464 1.350 . S
C459 N467 1.427 . S
C460 H451 0.930 . S
C460 C458 1.378 . S
C460 C461 1.367 . S
C461 C460 1.367 . S
C461 C463 1.433 . S
C462 C458 1.350 . S
C462 C459 1.463 . S
C462 N466 1.427 . S
C463 H453 0.929 . S
C463 C461 1.433 . S
C463 N466 1.384 . S
C464 H455 0.929 . S
C464 C456 1.378 . S
C464 C459 1.350 . S
C465 H452 0.929 . S
C465 C457 1.433 . S
C465 N467 1.384 . S
N466 C462 1.427 . S
N466 C463 1.384 . S
N467 C459 1.427 . S
N467 C465 1.384 . S
H468 C474 0.930 . S
H469 C478 0.930 . S
H470 C483 0.929 . S
H471 C481 0.929 . S
H472 C476 0.929 . S
H473 C482 0.929 . S
C474 H468 0.930 . S
C474 C475 1.367 1_565 S
C474 C482 1.378 . S
C475 C474 1.367 1_545 S
C475 C483 1.433 . S
C476 H472 0.929 . S
C476 C478 1.378 . S
C476 C480 1.350 . S
C477 C480 1.463 . S
C477 C482 1.350 1_545 S
C477 N485 1.427 . S
C478 H469 0.930 . S
C478 C476 1.378 . S
C478 C479 1.359 1_545 S
C479 C478 1.359 1_565 S
C479 C481 1.441 . S
C480 C476 1.350 . S
C480 C477 1.463 . S
C480 N484 1.427 1_545 S
C481 H471 0.929 . S
C481 C479 1.441 . S
C481 N484 1.384 . S
C482 H473 0.929 . S
C482 C474 1.378 . S
C482 C477 1.350 1_565 S
C483 H470 0.929 . S
C483 C475 1.433 . S
C483 N485 1.384 . S
N484 C480 1.427 1_565 S
N484 C481 1.384 . S
N485 C477 1.427 . S
N485 C483 1.384 . S
H486 C492 0.930 . S
H487 C496 0.930 . S
H488 C501 0.929 . S
H489 C499 0.929 . S
H490 C494 0.929 . S
H491 C500 0.929 . S
C492 H486 0.930 . S
C492 C493 1.367 . S
C492 C500 1.378 . S
C493 C492 1.367 . S
C493 C501 1.433 . S
C494 H490 0.929 . S
C494 C496 1.378 . S
C494 C498 1.350 1_554 S
C495 C498 1.463 . S
C495 C500 1.350 . S
C495 N503 1.427 . S
C496 H487 0.930 . S
C496 C494 1.378 . S
C496 C497 1.367 . S
C497 C496 1.367 . S
C497 C499 1.433 . S
C498 C494 1.350 1_556 S
C498 C495 1.463 . S
C498 N502 1.427 1_556 S
C499 H489 0.929 . S
C499 C497 1.433 . S
C499 N502 1.384 . S
C500 H491 0.929 . S
C500 C492 1.378 . S
C500 C495 1.350 . S
C501 H488 0.929 . S
C501 C493 1.433 . S
C501 N503 1.384 . S
N502 C498 1.427 1_554 S
N502 C499 1.384 . S
N503 C495 1.427 . S
N503 C501 1.384 . S
H504 C510 0.930 . S
H505 C514 0.930 . S
H506 C519 0.929 . S
H507 C517 0.929 . S
H508 C512 0.929 . S
H509 C518 0.929 . S
C510 H504 0.930 . S
C510 C511 1.367 . S
C510 C518 1.378 . S
C511 C510 1.367 . S
C511 C519 1.433 1_655 S
C512 H508 0.929 . S
C512 C514 1.378 . S
C512 C516 1.350 1_455 S
C513 C516 1.463 . S
C513 C518 1.350 . S
C513 N521 1.427 1_655 S
C514 H505 0.930 . S
C514 C512 1.378 . S
C514 C515 1.367 1_455 S
C515 C514 1.367 1_655 S
C515 C517 1.433 . S
C516 C512 1.350 1_655 S
C516 C513 1.463 . S
C516 N520 1.427 . S
C517 H507 0.929 . S
C517 C515 1.433 . S
C517 N520 1.384 . S
C518 H509 0.929 . S
C518 C510 1.378 . S
C518 C513 1.350 . S
C519 H506 0.929 . S
C519 C511 1.433 1_455 S
C519 N521 1.384 . S
N520 C516 1.427 . S
N520 C517 1.384 . S
N521 C513 1.427 1_455 S
N521 C519 1.384 . S
C205 C25 0.404 . S
C209 C189 0.502 . S
C223 C65 0.340 . S
C227 C167 0.258 . S
C241 C105 0.413 . S
C245 C180 0.336 . S
C259 C4 0.362 . S
C263 C193 0.205 . S
C281 C163 0.530 . S
C277 C44 0.472 . S
C299 C176 0.521 . S
C295 C84 0.477 . S
C313 C60 2.897 . S
C317 C141 2.863 . S
C331 C100 3.015 . S
C335 C154 2.969 1_655 S
C349 C31 3.126 . S
C353 C124 2.916 . S
C371 C137 2.945 . S
C367 C71 3.137 . S
C389 C150 2.825 . S
C385 C111 3.003 . S
C403 C20 2.908 . S
C407 C128 2.870 . S
C425 C155 1.761 . S
C421 C2 1.722 . S
C439 C42 1.704 . S
C443 C129 1.783 . S
C457 C82 1.733 . S
C461 C142 1.814 . S
C479 C181 1.254 . S
C475 C63 1.244 . S
C497 C194 1.299 . S
C493 C103 1.285 . S
C511 C23 1.233 1_655 S
C515 C168 1.249 . S
