# Generated by pormake.
# Topology pyr, (3,6)-cn, num edge types: 1
# Building blocks:
#     Node 0, Type 0, BuildingBlock: CUQRIR_clean_linker_1, # of connection points: 3
#     Node 1, Type 0, BuildingBlock: CUQRIR_clean_linker_1, # of connection points: 3
#     Node 2, Type 0, BuildingBlock: CUQRIR_clean_linker_1, # of connection points: 3
#     Node 3, Type 0, BuildingBlock: CUQRIR_clean_linker_1, # of connection points: 3
#     Node 4, Type 0, BuildingBlock: CUQRIR_clean_linker_1, # of connection points: 3
#     Node 5, Type 0, BuildingBlock: CUQRIR_clean_linker_1, # of connection points: 3
#     Node 6, Type 0, BuildingBlock: CUQRIR_clean_linker_1, # of connection points: 3
#     Node 7, Type 0, BuildingBlock: CUQRIR_clean_linker_1, # of connection points: 3
#     Node 8, Type 1, BuildingBlock: BETDEL_clean_sbu_0, # of connection points: 6
#     Node 9, Type 1, BuildingBlock: BETDEL_clean_sbu_0, # of connection points: 6
#     Node 10, Type 1, BuildingBlock: BETDEL_clean_sbu_0, # of connection points: 6
#     Node 11, Type 1, BuildingBlock: BETDEL_clean_sbu_0, # of connection points: 6
#     Edge 12, Type (0, 1), BuildingBlock: MIFKUJ_clean_linker_0, # of connection points: 2
#     Edge 13, Type (0, 1), BuildingBlock: MIFKUJ_clean_linker_0, # of connection points: 2
#     Edge 14, Type (0, 1), BuildingBlock: MIFKUJ_clean_linker_0, # of connection points: 2
#     Edge 15, Type (0, 1), BuildingBlock: MIFKUJ_clean_linker_0, # of connection points: 2
#     Edge 16, Type (0, 1), BuildingBlock: MIFKUJ_clean_linker_0, # of connection points: 2
#     Edge 17, Type (0, 1), BuildingBlock: MIFKUJ_clean_linker_0, # of connection points: 2
#     Edge 18, Type (0, 1), BuildingBlock: MIFKUJ_clean_linker_0, # of connection points: 2
#     Edge 19, Type (0, 1), BuildingBlock: MIFKUJ_clean_linker_0, # of connection points: 2
#     Edge 20, Type (0, 1), BuildingBlock: MIFKUJ_clean_linker_0, # of connection points: 2
#     Edge 21, Type (0, 1), BuildingBlock: MIFKUJ_clean_linker_0, # of connection points: 2
#     Edge 22, Type (0, 1), BuildingBlock: MIFKUJ_clean_linker_0, # of connection points: 2
#     Edge 23, Type (0, 1), BuildingBlock: MIFKUJ_clean_linker_0, # of connection points: 2
#     Edge 24, Type (0, 1), BuildingBlock: MIFKUJ_clean_linker_0, # of connection points: 2
#     Edge 25, Type (0, 1), BuildingBlock: MIFKUJ_clean_linker_0, # of connection points: 2
#     Edge 26, Type (0, 1), BuildingBlock: MIFKUJ_clean_linker_0, # of connection points: 2
#     Edge 27, Type (0, 1), BuildingBlock: MIFKUJ_clean_linker_0, # of connection points: 2
#     Edge 28, Type (0, 1), BuildingBlock: MIFKUJ_clean_linker_0, # of connection points: 2
#     Edge 29, Type (0, 1), BuildingBlock: MIFKUJ_clean_linker_0, # of connection points: 2
#     Edge 30, Type (0, 1), BuildingBlock: MIFKUJ_clean_linker_0, # of connection points: 2
#     Edge 31, Type (0, 1), BuildingBlock: MIFKUJ_clean_linker_0, # of connection points: 2
#     Edge 32, Type (0, 1), BuildingBlock: MIFKUJ_clean_linker_0, # of connection points: 2
#     Edge 33, Type (0, 1), BuildingBlock: MIFKUJ_clean_linker_0, # of connection points: 2
#     Edge 34, Type (0, 1), BuildingBlock: MIFKUJ_clean_linker_0, # of connection points: 2
#     Edge 35, Type (0, 1), BuildingBlock: MIFKUJ_clean_linker_0, # of connection points: 2
# Relax obj value: 0.093
# Max RMSD: 0.226
# Mean RMSD: 0.154
data_MOF--net-pyr--node1-BETDEL_clean_sbu_0--node2-CUQRIR_clean_linker_1--edge1-MIFKUJ_clean_linker_0
_symmetry_space_group_name_H-M    P1
_symmetry_Int_Tables_number       1
_symmetry_cell_setting            triclinic
loop_
_symmetry_equiv_pos_as_xyz
'x, y, z'
_cell_length_a     45.054967
_cell_length_b     46.865126
_cell_length_c     42.291515
_cell_angle_alpha  90.26014
_cell_angle_beta   91.018191
_cell_angle_gamma 98.167902
loop_
_atom_site_label
_atom_site_type_symbol
_atom_site_fract_x
_atom_site_fract_y
_atom_site_fract_z
_atom_type_partial_charge
C0 C 0.20035 0.23601 0.15522 0.0
N1 N 0.21823 0.21589 0.16198 0.0
N2 N 0.20776 0.2486 0.1272 0.0
C3 C 0.17369 0.24133 0.17426 0.0
C4 C 0.23041 0.23516 0.11681 0.0
N5 N 0.23667 0.21517 0.13795 0.0
C6 C 0.24691 0.24214 0.08664 0.0
H7 H 0.16289 0.22111 0.18521 0.0
H8 H 0.15675 0.25029 0.15939 0.0
H9 H 0.18137 0.25702 0.19344 0.0
H10 H 0.27087 0.23942 0.08957 0.0
H11 H 0.24519 0.26448 0.07902 0.0
H12 H 0.2368 0.22703 0.06784 0.0
C13 C 0.29896 0.84504 0.64295 0.0
N14 N 0.29526 0.8674 0.66229 0.0
N15 N 0.31936 0.82946 0.65552 0.0
C16 C 0.28282 0.83836 0.61176 0.0
C17 C 0.32772 0.84304 0.68328 0.0
N18 N 0.31299 0.86596 0.68749 0.0
C19 C 0.35072 0.8342 0.70603 0.0
H20 H 0.26339 0.82139 0.61543 0.0
H21 H 0.29784 0.82996 0.59458 0.0
H22 H 0.27428 0.85748 0.6017 0.0
H23 H 0.37309 0.84563 0.69977 0.0
H24 H 0.35134 0.81065 0.70459 0.0
H25 H 0.34609 0.84013 0.73069 0.0
C26 C 0.61239 0.35462 0.85569 0.0
N27 N 0.63083 0.35006 0.88032 0.0
N28 N 0.62412 0.37801 0.83896 0.0
C29 C 0.5846 0.33453 0.84593 0.0
C30 C 0.65043 0.38739 0.85413 0.0
N31 N 0.65472 0.37022 0.87896 0.0
C32 C 0.6709 0.41456 0.84612 0.0
H33 H 0.58051 0.3353 0.82002 0.0
H34 H 0.56502 0.34121 0.85803 0.0
H35 H 0.5865 0.31201 0.85272 0.0
H36 H 0.65822 0.43042 0.83459 0.0
H37 H 0.68817 0.4092 0.82959 0.0
H38 H 0.68248 0.42453 0.86768 0.0
C39 C 0.827 0.67151 0.31494 0.0
N40 N 0.85247 0.6901 0.30993 0.0
N41 N 0.81406 0.67788 0.34231 0.0
C42 C 0.81536 0.64641 0.29371 0.0
C43 C 0.83266 0.701 0.35382 0.0
N44 N 0.85619 0.70834 0.33441 0.0
C45 C 0.82669 0.71774 0.38291 0.0
H46 H 0.80027 0.65377 0.2754 0.0
H47 H 0.80242 0.6288 0.3073 0.0
H48 H 0.8339 0.63792 0.28152 0.0
H49 H 0.83906 0.71007 0.40337 0.0
H50 H 0.80244 0.71485 0.38825 0.0
H51 H 0.83467 0.74099 0.37968 0.0
C52 C 0.81561 0.86969 0.88295 0.0
N53 N 0.83864 0.86223 0.86623 0.0
N54 N 0.80324 0.89059 0.86789 0.0
C55 C 0.80403 0.85544 0.91301 0.0
C56 C 0.81937 0.89553 0.84132 0.0
N57 N 0.84084 0.87802 0.84013 0.0
C58 C 0.81578 0.91916 0.81821 0.0
H59 H 0.80737 0.83244 0.91333 0.0
H60 H 0.77984 0.85689 0.91582 0.0
H61 H 0.81658 0.86654 0.93343 0.0
H62 H 0.80505 0.93646 0.8294 0.0
H63 H 0.80127 0.91001 0.79812 0.0
H64 H 0.83781 0.92865 0.80882 0.0
C65 C 0.76411 0.2464 0.40149 0.0
N66 N 0.76622 0.22145 0.38572 0.0
N67 N 0.73862 0.25687 0.39284 0.0
C68 C 0.78672 0.26031 0.42539 0.0
C69 C 0.72516 0.23726 0.37173 0.0
N70 N 0.7417 0.21572 0.36757 0.0
C71 C 0.69573 0.23896 0.35497 0.0
H72 H 0.77735 0.27651 0.43995 0.0
H73 H 0.80652 0.27122 0.4128 0.0
H74 H 0.79439 0.24368 0.44094 0.0
H75 H 0.69951 0.24118 0.32918 0.0
H76 H 0.68477 0.2572 0.36346 0.0
H77 H 0.68042 0.21858 0.35867 0.0
C78 C 0.33644 0.68035 0.18174 0.0
N79 N 0.36172 0.69819 0.19003 0.0
N80 N 0.31876 0.69393 0.16244 0.0
C81 C 0.32834 0.65021 0.19394 0.0
C82 C 0.33412 0.72071 0.15939 0.0
N83 N 0.36003 0.72347 0.17656 0.0
C84 C 0.32491 0.74344 0.1377 0.0
H85 H 0.33982 0.63534 0.17959 0.0
H86 H 0.3038 0.64312 0.19241 0.0
H87 H 0.33604 0.64887 0.21888 0.0
H88 H 0.31156 0.75732 0.1512 0.0
H89 H 0.311 0.73355 0.11752 0.0
H90 H 0.34479 0.75727 0.12839 0.0
C91 C 0.14906 0.35266 0.70103 0.0
N92 N 0.16682 0.34809 0.67637 0.0
N93 N 0.15584 0.37995 0.71239 0.0
C94 C 0.1234 0.33128 0.71238 0.0
C95 C 0.17826 0.39193 0.6936 0.0
N96 N 0.18481 0.37275 0.67147 0.0
C97 C 0.19523 0.42173 0.69849 0.0
H98 H 0.11298 0.31757 0.69257 0.0
H99 H 0.10598 0.34233 0.72349 0.0
H100 H 0.13203 0.31712 0.73027 0.0
H101 H 0.19397 0.42895 0.72339 0.0
H102 H 0.18518 0.437 0.68301 0.0
H103 H 0.21912 0.42238 0.69223 0.0
Dy104 Dy 0.04596 0.03785 0.46193 0.0
C105 C 0.00599 0.9875 0.58515 0.0
C106 C 0.06066 0.06224 0.40508 0.0
Dy107 Dy 0.01605 0.01424 0.52856 0.0
O108 O 0.05762 0.03475 0.4108 0.0
O109 O 0.05468 0.07632 0.43022 0.0
O110 O 0.09196 0.02454 0.47299 0.0
O111 O 0.05755 0.01617 0.50396 0.0
C112 C 0.0845 0.01345 0.5003 0.0
C113 C 0.97775 0.04083 0.49257 0.0
O114 O 0.04636 0.0553 0.54269 0.0
O115 O 0.05276 0.07719 0.49309 0.0
O116 O 1.00285 0.01418 0.5795 0.0
O117 O 0.01484 0.97546 0.55991 0.0
O118 O 0.97089 0.02919 0.51984 0.0
O119 O 1.00405 0.03661 0.48662 0.0
O120 O 0.01533 0.99751 0.4469 0.0
O121 O 0.00585 0.97563 0.49615 0.0
C122 C 0.05506 0.07811 0.52452 0.0
C123 C 0.00494 0.97494 0.46462 0.0
Dy124 Dy 0.54146 0.04619 0.06592 0.0
C125 C 0.46117 1.00014 0.96036 0.0
C126 C 0.58372 0.07669 0.10463 0.0
Dy127 Dy 0.49515 0.02493 0.0102 0.0
O128 O 0.58385 0.05032 0.09515 0.0
O129 O 0.56057 0.08678 0.09249 0.0
O130 O 0.53348 0.00709 0.09693 0.0
O131 O 0.50965 0.00824 0.05463 0.0
C132 C 0.5135 0.9928 0.07823 0.0
C133 C 0.51952 0.08089 0.01073 0.0
O134 O 0.46412 0.03496 0.04765 0.0
O135 O 0.49948 0.06385 0.07935 0.0
O136 O 0.48527 0.01878 0.95822 0.0
O137 O 0.45559 0.99464 0.99003 0.0
O138 O 0.49241 0.0718 1.00071 0.0
O139 O 0.53253 0.05974 0.01796 0.0
O140 O 0.57123 0.03116 0.02972 0.0
O141 O 0.53471 1.0029 0.99899 0.0
C142 C 0.47128 0.05388 0.07096 0.0
C143 C 0.5631 0.01138 0.00751 0.0
Dy144 Dy 0.50565 0.49974 0.48145 0.0
C145 C 0.45586 0.58949 0.54555 0.0
C146 C 0.54543 0.46569 0.45915 0.0
Dy147 Dy 0.48581 0.54869 0.51888 0.0
O148 O 0.51685 0.46219 0.45209 0.0
O149 O 0.552 0.48787 0.47769 0.0
O150 O 0.4588 0.47637 0.47682 0.0
O151 O 0.47107 0.50202 0.51705 0.0
C152 C 0.44925 0.48732 0.50245 0.0
C153 C 0.54213 0.55894 0.49647 0.0
O154 O 0.49864 0.52329 0.56013 0.0
O155 O 0.5239 0.49296 0.53058 0.0
O156 O 0.48477 0.59101 0.54398 0.0
O157 O 0.44318 0.5654 0.53287 0.0
O158 O 0.53451 0.56862 0.5235 0.0
O159 O 0.51921 0.546 0.48252 0.0
O160 O 0.49179 0.52602 0.44088 0.0
O161 O 0.46435 0.55389 0.47116 0.0
C162 C 0.51656 0.5033 0.5582 0.0
C163 C 0.47247 0.54485 0.44325 0.0
Dy164 Dy 1.00114 0.50757 0.0218 0.0
C165 C 0.95756 0.61256 0.97175 0.0
C166 C 0.02941 0.4614 0.03451 0.0
Dy167 Dy 0.97787 0.56225 0.98612 0.0
O168 O 0.03478 0.48621 0.04883 0.0
O169 O 0.00813 0.46152 0.01329 0.0
O170 O 0.98743 0.51933 0.07123 0.0
O171 O 0.97991 0.54471 0.03312 0.0
C172 C 0.97719 0.5428 0.06261 0.0
C173 C 1.00428 0.52836 0.94582 0.0
O174 O 0.01991 0.58083 0.01218 0.0
O175 O 0.04233 0.53909 0.01404 0.0
O176 O 0.98552 0.60865 0.97215 0.0
O177 O 0.94049 0.58895 0.97957 0.0
O178 O 0.99267 0.55094 0.93689 0.0
O179 O 1.00016 0.52584 0.97502 0.0
O180 O 0.95469 0.48861 0.00663 0.0
O181 O 0.93586 0.53018 0.98872 0.0
C182 C 0.04374 0.56748 0.01634 0.0
C183 C 0.93259 0.50222 0.99582 0.0
H184 H 0.20784 0.15798 0.15707 0.0
H185 H 0.18788 0.12485 0.1988 0.0
H186 H 0.19751 0.19573 0.26547 0.0
H187 H 0.21868 0.2284 0.22402 0.0
H188 H 0.20439 0.14691 0.29512 0.0
H189 H 0.13323 0.17895 0.22104 0.0
H190 H 0.11197 0.18527 0.16779 0.0
H191 H 0.09711 0.09347 0.15395 0.0
H192 H 0.11871 0.08666 0.20699 0.0
H193 H 0.08176 0.1189 0.39659 0.0
H194 H 0.11345 0.13981 0.35375 0.0
H195 H 0.10473 0.05677 0.30747 0.0
H196 H 0.07327 0.03559 0.35055 0.0
H197 H 0.09986 0.10504 0.26628 0.0
H198 H 0.16516 0.07471 0.34647 0.0
H199 H 0.1847 0.07145 0.40096 0.0
H200 H 0.20874 0.16342 0.40473 0.0
H201 H 0.18889 0.16727 0.35041 0.0
C202 C 0.20686 0.16609 0.18098 0.0
C203 C 0.21428 0.19564 0.1875 0.0
C204 C 0.19518 0.14729 0.2047 0.0
C205 C 0.19037 0.15802 0.23499 0.0
C206 C 0.20077 0.18702 0.24222 0.0
C207 C 0.21274 0.20568 0.21862 0.0
C208 C 0.17097 0.14047 0.25774 0.0
C209 C 0.18156 0.13775 0.28881 0.0
C210 C 0.14121 0.1283 0.24946 0.0
C211 C 0.12787 0.13231 0.21778 0.0
C212 C 0.12558 0.16013 0.20654 0.0
C213 C 0.11348 0.1638 0.17642 0.0
C214 C 0.10328 0.13978 0.15746 0.0
C215 C 0.10508 0.11205 0.16863 0.0
C216 C 0.11725 0.10827 0.19872 0.0
C217 C 0.08615 0.10522 0.37701 0.0
C218 C 0.07519 0.07565 0.37685 0.0
C219 C 0.1044 0.11713 0.3527 0.0
C220 C 0.11175 0.09969 0.32779 0.0
C221 C 0.09941 0.07049 0.32663 0.0
C222 C 0.08143 0.05848 0.35116 0.0
C223 C 0.13319 0.11187 0.30365 0.0
C224 C 0.12289 0.11367 0.27239 0.0
C225 C 0.16304 0.12355 0.3119 0.0
C226 C 0.17531 0.12129 0.34445 0.0
C227 C 0.1744 0.09426 0.359 0.0
C228 C 0.18556 0.0923 0.38985 0.0
C229 C 0.1979 0.11721 0.40632 0.0
C230 C 0.19916 0.14414 0.39195 0.0
C231 C 0.18798 0.14622 0.36111 0.0
H232 H 0.20652 0.11565 0.43021 0.0
H233 H 0.09392 0.14266 0.13414 0.0
H234 H 0.35252 0.91431 0.68728 0.0
H235 H 0.37343 0.94145 0.73435 0.0
H236 H 0.3095 0.88922 0.79241 0.0
H237 H 0.28854 0.86245 0.74501 0.0
H238 H 0.32137 0.94524 0.81494 0.0
H239 H 0.37833 0.8697 0.78576 0.0
H240 H 0.40682 0.84222 0.75021 0.0
H241 H 0.4686 0.91874 0.7324 0.0
H242 H 0.44064 0.9466 0.76816 0.0
H243 H 0.40845 0.96258 0.96004 0.0
H244 H 0.37858 0.94302 0.91362 0.0
H245 H 0.44263 0.99119 0.85231 0.0
H246 H 0.47248 0.01043 0.89836 0.0
H247 H 0.42911 0.93716 0.83202 0.0
H248 H 0.37367 0.0119 0.8655 0.0
H249 H 0.34582 0.03802 0.90302 0.0
H250 H 0.28064 0.96255 0.91352 0.0
H251 H 0.30835 0.93584 0.87637 0.0
C252 C 0.34225 0.9096 0.70997 0.0
C253 C 0.3188 0.88672 0.71274 0.0
C254 C 0.35437 0.92476 0.73688 0.0
C255 C 0.34341 0.91701 0.76704 0.0
C256 C 0.31836 0.89559 0.76945 0.0
C257 C 0.30624 0.88046 0.74246 0.0
C258 C 0.35989 0.92915 0.79604 0.0
C259 C 0.34485 0.94327 0.81886 0.0
C260 C 0.3906 0.92683 0.80111 0.0
C261 C 0.40726 0.91026 0.77936 0.0
C262 C 0.39789 0.88068 0.77411 0.0
C263 C 0.414 0.86503 0.75402 0.0
C264 C 0.43938 0.87876 0.73888 0.0
C265 C 0.44888 0.90814 0.74406 0.0
C266 C 0.43301 0.92384 0.76435 0.0
C267 C 0.41606 0.96896 0.93663 0.0
C268 C 0.4428 0.98798 0.93281 0.0
C269 C 0.39891 0.95793 0.91013 0.0
C270 C 0.40819 0.96582 0.87939 0.0
C271 C 0.43495 0.98477 0.8757 0.0
C272 C 0.45201 0.99578 0.90208 0.0
C273 C 0.3908 0.9537 0.85089 0.0
C274 C 0.40566 0.93935 0.82816 0.0
C275 C 0.35996 0.95578 0.8461 0.0
C276 C 0.34327 0.97178 0.86842 0.0
C277 C 0.35354 1.0008 0.87602 0.0
C278 C 0.33775 0.01572 0.89718 0.0
C279 C 0.31153 1.00193 0.91072 0.0
C280 C 0.30099 0.9732 0.90306 0.0
C281 C 0.31671 0.95816 0.88193 0.0
H282 H 0.29933 0.01353 0.92709 0.0
H283 H 0.45174 0.86662 0.72324 0.0
H284 H 0.56845 0.39195 0.83002 0.0
H285 H 0.54864 0.41285 0.78218 0.0
H286 H 0.6336 0.41198 0.73701 0.0
H287 H 0.65296 0.39027 0.78435 0.0
H288 H 0.61108 0.46491 0.73131 0.0
H289 H 0.57874 0.36307 0.71659 0.0
H290 H 0.55322 0.31519 0.73184 0.0
H291 H 0.46926 0.34835 0.73555 0.0
H292 H 0.49439 0.39659 0.72083 0.0
H293 H 0.5406 0.45325 0.56418 0.0
H294 H 0.55743 0.43179 0.61266 0.0
H295 H 0.53327 0.50269 0.66718 0.0
H296 H 0.51599 0.52426 0.61874 0.0
H297 H 0.52504 0.41479 0.66828 0.0
H298 H 0.59091 0.51704 0.72467 0.0
H299 H 0.61768 0.5642 0.70853 0.0
H300 H 0.63708 0.52823 0.61894 0.0
H301 H 0.61083 0.4808 0.63472 0.0
C302 C 0.58265 0.39597 0.80968 0.0
C303 C 0.6122 0.38966 0.81076 0.0
C304 C 0.57144 0.40799 0.78252 0.0
C305 C 0.58972 0.41402 0.75614 0.0
C306 C 0.61924 0.4077 0.75722 0.0
C307 C 0.63028 0.39539 0.7842 0.0
C308 C 0.57818 0.42687 0.72728 0.0
C309 C 0.59218 0.45401 0.71761 0.0
C310 C 0.55368 0.41254 0.70933 0.0
C311 C 0.53851 0.38351 0.71797 0.0
C312 C 0.55489 0.36022 0.72094 0.0
C313 C 0.54049 0.33301 0.72944 0.0
C314 C 0.50966 0.32875 0.73476 0.0
C315 C 0.49315 0.35169 0.73149 0.0
C316 C 0.50746 0.37897 0.72306 0.0
C317 C 0.53886 0.46435 0.58645 0.0
C318 C 0.52706 0.49055 0.58759 0.0
C319 C 0.54832 0.45193 0.61414 0.0
C320 C 0.54663 0.46568 0.64342 0.0
C321 C 0.53483 0.49181 0.64474 0.0
C322 C 0.52498 0.50408 0.61706 0.0
C323 C 0.55783 0.45288 0.67246 0.0
C324 C 0.54375 0.42578 0.68217 0.0
C325 C 0.58238 0.46717 0.69036 0.0
C326 C 0.5986 0.49548 0.68076 0.0
C327 C 0.60098 0.51919 0.70157 0.0
C328 C 0.61605 0.54597 0.69248 0.0
C329 C 0.62897 0.54924 0.66268 0.0
C330 C 0.62695 0.52571 0.64196 0.0
C331 C 0.61193 0.49888 0.65095 0.0
H332 H 0.64061 0.56999 0.65568 0.0
H333 H 0.49854 0.30766 0.74132 0.0
H334 H 0.89865 0.6599 0.31194 0.0
H335 H 0.92395 0.64281 0.26629 0.0
H336 H 0.87675 0.69519 0.20486 0.0
H337 H 0.85044 0.71096 0.25085 0.0
H338 H 0.8725 0.64653 0.17906 0.0
H339 H 0.95732 0.70722 0.21999 0.0
H340 H 0.99484 0.72922 0.25932 0.0
H341 H 0.02391 0.64702 0.27519 0.0
H342 H 0.98625 0.6244 0.23632 0.0
H343 H 0.953 0.59264 0.04924 0.0
H344 H 0.93582 0.62631 0.08759 0.0
H345 H 0.96055 0.57356 0.1643 0.0
H346 H 0.97749 0.54025 0.12644 0.0
H347 H 0.97887 0.63059 0.17643 0.0
H348 H 0.88673 0.57089 0.13873 0.0
H349 H 0.85084 0.55173 0.09642 0.0
H350 H 0.83865 0.63788 0.07062 0.0
H351 H 0.87471 0.65755 0.1126 0.0
C352 C 0.89472 0.66859 0.2888 0.0
C353 C 0.8733 0.68733 0.28494 0.0
C354 C 0.90908 0.65875 0.26256 0.0
C355 C 0.90274 0.66784 0.23173 0.0
C356 C 0.88224 0.68774 0.22816 0.0
C357 C 0.86754 0.69719 0.25445 0.0
C358 C 0.91546 0.65464 0.20335 0.0
C359 C 0.89595 0.6437 0.17834 0.0
C360 C 0.94605 0.65059 0.20189 0.0
C361 C 0.96876 0.66407 0.22537 0.0
C362 C 0.97155 0.69378 0.23203 0.0
C363 C 0.99287 0.70637 0.25423 0.0
C364 C 0.01171 0.68952 0.26978 0.0
C365 C 0.00929 0.66004 0.26313 0.0
C366 C 0.98798 0.64733 0.24099 0.0
C367 C 0.95467 0.5883 0.07429 0.0
C368 C 0.96642 0.56368 0.08479 0.0
C369 C 0.94485 0.60752 0.09622 0.0
C370 C 0.94674 0.60249 0.129 0.0
C371 C 0.95887 0.57808 0.13927 0.0
C372 C 0.96843 0.55891 0.11751 0.0
C373 C 0.93574 0.62195 0.15302 0.0
C374 C 0.95557 0.63399 0.17714 0.0
C375 C 0.90567 0.62752 0.15332 0.0
C376 C 0.88356 0.61567 0.1286 0.0
C377 C 0.87647 0.58573 0.12394 0.0
C378 C 0.8561 0.57479 0.10005 0.0
C379 C 0.84253 0.59358 0.08081 0.0
C380 C 0.8492 0.62336 0.08553 0.0
C381 C 0.86956 0.63441 0.10939 0.0
H382 H 0.82682 0.58508 0.06229 0.0
H383 H 0.02821 0.69931 0.28695 0.0
H384 H 0.24118 0.17389 0.09485 0.0
H385 H 0.28202 0.14433 0.091 0.0
H386 H 0.32595 0.18833 0.17261 0.0
H387 H 0.28451 0.21723 0.17688 0.0
H388 H 0.36156 0.1825 0.11054 0.0
H389 H 0.29965 0.13049 0.18966 0.0
H390 H 0.25085 0.10778 0.20946 0.0
H391 H 0.24173 0.04812 0.13136 0.0
H392 H 0.29017 0.07096 0.11065 0.0
H393 H 0.47575 0.09538 0.11737 0.0
H394 H 0.43562 0.12031 0.13697 0.0
H395 H 0.37121 0.06586 0.07865 0.0
H396 H 0.41095 0.04046 0.05932 0.0
H397 H 0.34688 0.0778 0.13429 0.0
H398 H 0.40129 0.12949 0.05143 0.0
H399 H 0.44681 0.15202 0.02469 0.0
H400 H 0.46695 0.21159 0.10213 0.0
H401 H 0.42171 0.18907 0.12961 0.0
C402 C 0.25958 0.17699 0.1119 0.0
C403 C 0.2601 0.19755 0.13611 0.0
C404 C 0.28274 0.16025 0.10976 0.0
C405 C 0.30686 0.1643 0.13152 0.0
C406 C 0.30747 0.18502 0.15563 0.0
C407 C 0.28395 0.20132 0.15815 0.0
C408 C 0.33147 0.14684 0.1288 0.0
C409 C 0.3587 0.15977 0.11641 0.0
C410 C 0.32708 0.11704 0.13546 0.0
C411 C 0.29844 0.10262 0.14845 0.0
C412 C 0.28714 0.11268 0.17656 0.0
C413 C 0.25954 0.09978 0.18796 0.0
C414 C 0.24317 0.07656 0.17164 0.0
C415 C 0.25442 0.06613 0.14396 0.0
C416 C 0.28196 0.07905 0.13238 0.0
C417 C 0.45299 0.08832 0.10911 0.0
C418 C 0.44667 0.0662 0.08637 0.0
C419 C 0.43008 0.10263 0.12034 0.0
C420 C 0.40055 0.09523 0.10885 0.0
C421 C 0.39386 0.07194 0.08777 0.0
C422 C 0.4167 0.05756 0.0766 0.0
C423 C 0.37725 0.11348 0.11623 0.0
C424 C 0.3501 0.10068 0.12914 0.0
C425 C 0.38144 0.14333 0.10939 0.0
C426 C 0.40832 0.15739 0.09274 0.0
C427 C 0.41553 0.14728 0.06286 0.0
C428 C 0.44127 0.16003 0.04757 0.0
C429 C 0.45983 0.18313 0.06176 0.0
C430 C 0.45259 0.19363 0.09121 0.0
C431 C 0.42689 0.18089 0.10666 0.0
H432 H 0.47973 0.19291 0.04983 0.0
H433 H 0.22179 0.06662 0.18048 0.0
H434 H 0.24149 0.87002 0.68773 0.0
H435 H 0.20401 0.89974 0.66877 0.0
H436 H 0.26793 0.94125 0.6027 0.0
H437 H 0.30527 0.91179 0.62223 0.0
H438 H 0.23335 0.97915 0.62445 0.0
H439 H 0.21803 0.88296 0.58113 0.0
H440 H 0.20984 0.82989 0.58379 0.0
H441 H 0.12748 0.83236 0.63263 0.0
H442 H 0.13545 0.88554 0.63071 0.0
H443 H 0.1441 0.01259 0.49388 0.0
H444 H 0.17846 0.99197 0.52968 0.0
H445 H 0.10577 0.9658 0.59297 0.0
H446 H 0.07136 0.9871 0.55731 0.0
H447 H 0.14133 0.92169 0.57894 0.0
H448 H 0.15499 0.01936 0.6153 0.0
H449 H 0.16414 0.0722 0.60972 0.0
H450 H 0.25052 0.06676 0.57072 0.0
H451 H 0.24168 0.01381 0.57557 0.0
C452 C 0.24761 0.8862 0.6699 0.0
C453 C 0.27601 0.88886 0.65635 0.0
C454 C 0.22623 0.90296 0.65886 0.0
C455 C 0.23293 0.9224 0.63385 0.0
C456 C 0.26215 0.92643 0.62194 0.0
C457 C 0.28348 0.90973 0.63307 0.0
C458 C 0.209 0.93648 0.61801 0.0
C459 C 0.21328 0.96657 0.61444 0.0
C460 C 0.18252 0.92018 0.60525 0.0
C461 C 0.17751 0.88822 0.60612 0.0
C462 C 0.19828 0.8722 0.59264 0.0
C463 C 0.19367 0.8421 0.594 0.0
C464 C 0.1682 0.82777 0.60845 0.0
C465 C 0.14723 0.8435 0.6215 0.0
C466 C 0.15178 0.87362 0.62029 0.0
C467 C 0.13543 1.00257 0.5155 0.0
C468 C 0.10494 1.00129 0.52273 0.0
C469 C 0.15513 0.99086 0.53599 0.0
C470 C 0.14476 0.97744 0.5641 0.0
C471 C 0.11427 0.97605 0.5714 0.0
C472 C 0.0946 0.98816 0.55103 0.0
C473 C 0.16583 0.96428 0.58518 0.0
C474 C 0.1611 0.93433 0.58951 0.0
C475 C 0.19202 0.98068 0.5983 0.0
C476 C 0.19756 0.01256 0.59559 0.0
C477 C 0.17584 0.02939 0.6053 0.0
C478 C 0.18099 0.05938 0.60231 0.0
C479 C 0.20787 0.07282 0.58982 0.0
C480 C 0.2297 0.05631 0.58037 0.0
C481 C 0.22464 0.02631 0.58327 0.0
H482 H 0.21182 0.09604 0.58752 0.0
H483 H 0.16466 0.80446 0.60947 0.0
H484 H 0.71108 0.36904 0.86099 0.0
H485 H 0.75662 0.38413 0.89237 0.0
H486 H 0.70303 0.39333 0.97448 0.0
H487 H 0.65717 0.3791 0.94219 0.0
H488 H 0.74097 0.43947 0.96847 0.0
H489 H 0.7515 0.34121 0.97048 0.0
H490 H 0.75161 0.29182 0.95024 0.0
H491 H 0.82486 0.32187 0.88975 0.0
H492 H 0.82489 0.37154 0.90918 0.0
H493 H 0.91215 0.44873 0.01929 0.0
H494 H 0.86271 0.4204 0.011 0.0
H495 H 0.83602 0.488 0.95265 0.0
H496 H 0.8849 0.51679 0.96169 0.0
H497 H 0.83553 0.39713 0.96187 0.0
H498 H 0.76321 0.49127 0.95516 0.0
H499 H 0.76219 0.53864 0.98041 0.0
H500 H 0.81055 0.51249 0.06112 0.0
H501 H 0.81143 0.46477 0.03662 0.0
C502 C 0.70921 0.37369 0.88592 0.0
C503 C 0.6809 0.3731 0.89931 0.0
C504 C 0.73518 0.38213 0.90394 0.0
C505 C 0.7334 0.3897 0.93596 0.0
C506 C 0.70501 0.38758 0.94985 0.0
C507 C 0.67889 0.37925 0.93161 0.0
C508 C 0.76104 0.4027 0.95345 0.0
C509 C 0.76156 0.43003 0.96738 0.0
C510 C 0.78781 0.3901 0.95294 0.0
C511 C 0.78812 0.36018 0.94126 0.0
C512 C 0.76753 0.33734 0.95272 0.0
C513 C 0.76757 0.30927 0.9414 0.0
C514 C 0.78822 0.30372 0.91871 0.0
C515 C 0.80889 0.32621 0.90734 0.0
C516 C 0.80892 0.35433 0.91855 0.0
C517 C 0.89568 0.45766 0.00486 0.0
C518 C 0.90249 0.48511 0.99124 0.0
C519 C 0.8674 0.4414 1.00013 0.0
C520 C 0.84538 0.45216 0.98159 0.0
C521 C 0.85227 0.47947 0.96776 0.0
C522 C 0.88036 0.49588 0.9728 0.0
C523 C 0.81568 0.43448 0.97537 0.0
C524 C 0.81482 0.4063 0.96358 0.0
C525 C 0.78845 0.44594 0.97874 0.0
C526 C 0.78751 0.47445 0.99393 0.0
C527 C 0.77343 0.49552 0.97839 0.0
C528 C 0.77293 0.52246 0.99256 0.0
C529 C 0.78634 0.52858 0.02232 0.0
C530 C 0.80023 0.50774 0.03803 0.0
C531 C 0.80075 0.48075 0.024 0.0
H532 H 0.78591 0.54945 0.03323 0.0
H533 H 0.78821 0.28197 0.90997 0.0
H534 H 0.8088 0.65603 0.40121 0.0
H535 H 0.76285 0.63315 0.42638 0.0
H536 H 0.71263 0.64343 0.34036 0.0
H537 H 0.75864 0.66686 0.31554 0.0
H538 H 0.68347 0.65968 0.38924 0.0
H539 H 0.72907 0.57712 0.36443 0.0
H540 H 0.76796 0.54512 0.36275 0.0
H541 H 0.76867 0.54019 0.4641 0.0
H542 H 0.73014 0.57259 0.46645 0.0
H543 H 0.55255 0.56089 0.43306 0.0
H544 H 0.59911 0.58 0.40655 0.0
H545 H 0.64327 0.59812 0.49712 0.0
H546 H 0.59634 0.57995 0.52386 0.0
H547 H 0.67457 0.56609 0.44513 0.0
H548 H 0.63065 0.65194 0.46851 0.0
H549 H 0.59141 0.68363 0.46846 0.0
H550 H 0.58655 0.68019 0.36701 0.0
H551 H 0.62554 0.64812 0.36648 0.0
C552 C 0.7879 0.65329 0.38777 0.0
C553 C 0.78719 0.66317 0.35648 0.0
C554 C 0.76169 0.64002 0.40203 0.0
C555 C 0.73415 0.63622 0.38525 0.0
C556 C 0.73351 0.64598 0.35385 0.0
C557 C 0.75978 0.65921 0.33958 0.0
C558 C 0.70588 0.62333 0.4009 0.0
C559 C 0.6815 0.639 0.40103 0.0
C560 C 0.70322 0.59654 0.41688 0.0
C561 C 0.72696 0.57762 0.41562 0.0
C562 C 0.73779 0.56954 0.38639 0.0
C563 C 0.75972 0.55126 0.38532 0.0
C564 C 0.77086 0.54072 0.41331 0.0
C565 C 0.76009 0.54845 0.44244 0.0
C566 C 0.7382 0.56677 0.44366 0.0
C567 C 0.5722 0.56886 0.44735 0.0
C568 C 0.57081 0.56898 0.48057 0.0
C569 C 0.59875 0.57982 0.43216 0.0
C570 C 0.62463 0.59054 0.44985 0.0
C571 C 0.62355 0.58997 0.48303 0.0
C572 C 0.59676 0.57963 0.49826 0.0
C573 C 0.65263 0.60264 0.4336 0.0
C574 C 0.67678 0.58675 0.43328 0.0
C575 C 0.65504 0.62908 0.4172 0.0
C576 C 0.63075 0.64735 0.41749 0.0
C577 C 0.62091 0.65758 0.44622 0.0
C578 C 0.59884 0.67575 0.44629 0.0
C579 C 0.58659 0.684 0.41775 0.0
C580 C 0.59615 0.67386 0.38909 0.0
C581 C 0.61822 0.65568 0.38889 0.0
H582 H 0.56966 0.69823 0.41785 0.0
H583 H 0.78776 0.52648 0.41242 0.0
H584 H 0.17845 0.24462 0.071 0.0
H585 H 0.14751 0.27948 0.04947 0.0
H586 H 0.17438 0.33641 0.12864 0.0
H587 H 0.2047 0.30129 0.15013 0.0
H588 H 0.1151 0.32674 0.12175 0.0
H589 H 0.19924 0.35176 0.05342 0.0
H590 H 0.23653 0.34222 0.0142 0.0
H591 H 0.16581 0.31259 0.94743 0.0
H592 H 0.12806 0.32156 0.98646 0.0
H593 H 0.07088 0.45865 0.08092 0.0
H594 H 0.09998 0.41956 0.09156 0.0
H595 H 0.05563 0.37087 0.01308 0.0
H596 H 0.02623 0.41028 1.00219 0.0
H597 H 0.11881 0.37157 0.01558 0.0
H598 H 0.03491 0.35044 0.0834 0.0
H599 H 0.99832 0.36118 0.12283 0.0
H600 H 0.06957 0.38429 0.19097 0.0
H601 H 0.10665 0.3741 0.15179 0.0
C602 C 0.17813 0.26494 0.08318 0.0
C603 C 0.19372 0.2706 0.11202 0.0
C604 C 0.16053 0.28476 0.07101 0.0
C605 C 0.15864 0.31052 0.08751 0.0
C606 C 0.17541 0.31661 0.11564 0.0
C607 C 0.19277 0.29677 0.12781 0.0
C608 C 0.13755 0.33023 0.07706 0.0
C609 C 0.11613 0.33674 0.09863 0.0
C610 C 0.13815 0.34238 0.04646 0.0
C611 C 0.16082 0.337 0.02299 0.0
C612 C 0.19163 0.34295 0.03048 0.0
C613 C 0.21285 0.3377 0.00826 0.0
C614 C 0.20354 0.32672 0.97838 0.0
C615 C 0.17299 0.32104 0.97062 0.0
C616 C 0.15167 0.32622 0.99277 0.0
C617 C 0.06722 0.43959 0.06598 0.0
C618 C 0.0462 0.4373 0.0409 0.0
C619 C 0.08383 0.41729 0.0721 0.0
C620 C 0.07971 0.39228 0.05328 0.0
C621 C 0.05901 0.39003 0.02788 0.0
C622 C 0.04218 0.41239 0.02182 0.0
C623 C 0.09714 0.36865 0.06067 0.0
C624 C 0.11766 0.36129 0.03854 0.0
C625 C 0.09586 0.35572 0.09082 0.0
C626 C 0.07359 0.36167 0.11456 0.0
C627 C 0.0428 0.35801 0.10672 0.0
C628 C 0.02197 0.36397 0.12904 0.0
C629 C 0.03161 0.37346 0.15937 0.0
C630 C 0.06212 0.37695 0.16746 0.0
C631 C 0.08306 0.37104 0.14522 0.0
H632 H 0.01545 0.37807 0.17662 0.0
H633 H 0.22001 0.32268 0.9612 0.0
H634 H 0.66838 0.31164 0.89513 0.0
H635 H 0.65654 0.26824 0.92745 0.0
H636 H 0.56956 0.29219 0.94673 0.0
H637 H 0.58219 0.3362 0.91593 0.0
H638 H 0.58819 0.2666 0.99644 0.0
H639 H 0.58171 0.2462 0.8845 0.0
H640 H 0.60083 0.24593 0.83024 0.0
H641 H 0.66836 0.19554 0.86086 0.0
H642 H 0.6499 0.19589 0.91545 0.0
H643 H 0.49403 0.12964 1.00194 0.0
H644 H 0.5195 0.17795 0.98937 0.0
H645 H 0.60508 0.14701 0.9961 0.0
H646 H 0.57976 0.09886 0.00952 0.0
H647 H 0.59333 0.17551 0.93789 0.0
H648 H 0.59146 0.18988 0.04951 0.0
H649 H 0.56851 0.18954 0.10197 0.0
H650 H 0.51232 0.25081 0.07027 0.0
H651 H 0.53435 0.25096 0.0173 0.0
C652 C 0.64716 0.30796 0.90711 0.0
C653 C 0.626 0.32695 0.90286 0.0
C654 C 0.64024 0.28306 0.92528 0.0
C655 C 0.61182 0.27652 0.93894 0.0
C656 C 0.59153 0.29656 0.93634 0.0
C657 C 0.59862 0.32157 0.91857 0.0
C658 C 0.60201 0.24789 0.95345 0.0
C659 C 0.58922 0.24669 0.98359 0.0
C660 C 0.60368 0.22179 0.93693 0.0
C661 C 0.61466 0.22136 0.9041 0.0
C662 C 0.60076 0.23522 0.87969 0.0
C663 C 0.61147 0.23505 0.84888 0.0
C664 C 0.63585 0.2208 0.84212 0.0
C665 C 0.64952 0.20662 0.86615 0.0
C666 C 0.63895 0.2068 0.89703 0.0
C667 C 0.51829 0.1333 1.00122 0.0
C668 C 0.53493 0.11055 0.0065 0.0
C669 C 0.53281 0.16087 0.99411 0.0
C670 C 0.56417 0.16601 0.99176 0.0
C671 C 0.58087 0.14346 0.99782 0.0
C672 C 0.5664 0.11603 0.00553 0.0
C673 C 0.57919 0.1943 0.98061 0.0
C674 C 0.59279 0.19539 0.95099 0.0
C675 C 0.57773 0.22023 0.99738 0.0
C676 C 0.5644 0.22022 0.02926 0.0
C677 C 0.57397 0.20305 0.05357 0.0
C678 C 0.56115 0.20291 0.08344 0.0
C679 C 0.53894 0.22012 0.08944 0.0
C680 C 0.52956 0.23753 0.06559 0.0
C681 C 0.54216 0.23759 0.03561 0.0
H682 H 0.52903 0.21998 0.11257 0.0
H683 H 0.64411 0.22067 0.81825 0.0
H684 H 0.89557 0.7153 0.38314 0.0
H685 H 0.9244 0.76099 0.40114 0.0
H686 H 0.89725 0.80242 0.31676 0.0
H687 H 0.86805 0.75641 0.29896 0.0
H688 H 0.95845 0.82275 0.33804 0.0
H689 H 0.85798 0.81167 0.37968 0.0
H690 H 0.814 0.78625 0.40689 0.0
H691 H 0.8687 0.77641 0.4892 0.0
H692 H 0.91293 0.80205 0.46255 0.0
H693 H 0.98816 0.96608 0.40194 0.0
H694 H 0.96628 0.92104 0.37597 0.0
H695 H 0.97091 0.87606 0.46429 0.0
H696 H 0.99173 0.92114 0.49056 0.0
H697 H 0.9205 0.85793 0.43831 0.0
H698 H 0.02064 0.87132 0.39885 0.0
H699 H 0.06495 0.89716 0.37267 0.0
H700 H 0.01329 0.90141 0.28695 0.0
H701 H 0.96854 0.87591 0.31276 0.0
C702 C 0.89668 0.73395 0.36796 0.0
C703 C 0.87979 0.73232 0.33959 0.0
C704 C 0.91287 0.76014 0.37838 0.0
C705 C 0.91264 0.78537 0.36062 0.0
C706 C 0.89775 0.78331 0.33096 0.0
C707 C 0.88133 0.757 0.3206 0.0
C708 C 0.92575 0.81399 0.37444 0.0
C709 C 0.94995 0.83067 0.35974 0.0
C710 C 0.91516 0.82418 0.40311 0.0
C711 C 0.88875 0.80853 0.41906 0.0
C712 C 0.86062 0.80397 0.40353 0.0
C713 C 0.83563 0.78968 0.41891 0.0
C714 C 0.83858 0.77962 0.4497 0.0
C715 C 0.86646 0.78414 0.46532 0.0
C716 C 0.89146 0.79868 0.45016 0.0
C717 C 0.98458 0.94661 0.41587 0.0
C718 C 0.99178 0.94743 0.44846 0.0
C719 C 0.97221 0.92069 0.40087 0.0
C720 C 0.96723 0.89473 0.41789 0.0
C721 C 0.97441 0.89559 0.45044 0.0
C722 C 0.98641 0.92152 0.4655 0.0
C723 C 0.95372 0.86686 0.40228 0.0
C724 C 0.92924 0.85022 0.41662 0.0
C725 C 0.9643 0.85671 0.37343 0.0
C726 C 0.99117 0.87197 0.35784 0.0
C727 C 0.01867 0.87795 0.37449 0.0
C728 C 0.04387 0.89251 0.35971 0.0
C729 C 0.04191 0.901 0.3282 0.0
C730 C 0.01476 0.89487 0.31137 0.0
C731 C 0.98948 0.88034 0.32606 0.0
H732 H 0.06145 0.91226 0.3168 0.0
H733 H 0.81924 0.7684 0.46148 0.0
H734 H 0.2882 0.77875 0.6359 0.0
H735 H 0.30891 0.73695 0.61473 0.0
H736 H 0.39824 0.78403 0.62409 0.0
H737 H 0.3773 0.82599 0.64401 0.0
H738 H 0.39314 0.75499 0.57055 0.0
H739 H 0.3693 0.73296 0.6787 0.0
H740 H 0.33672 0.72606 0.72508 0.0
H741 H 0.27906 0.65864 0.67611 0.0
H742 H 0.31109 0.66543 0.62923 0.0
H743 H 0.48083 0.64161 0.56922 0.0
H744 H 0.45512 0.68141 0.58642 0.0
H745 H 0.36959 0.63008 0.56605 0.0
H746 H 0.39533 0.58997 0.54895 0.0
H747 H 0.37003 0.65995 0.62261 0.0
H748 H 0.3978 0.68097 0.51512 0.0
H749 H 0.43289 0.68785 0.47082 0.0
H750 H 0.48577 0.75778 0.52087 0.0
H751 H 0.45128 0.751 0.56573 0.0
C752 C 0.31218 0.78013 0.63298 0.0
C753 C 0.33124 0.80537 0.64174 0.0
C754 C 0.32405 0.75624 0.62119 0.0
C755 C 0.35523 0.75712 0.61826 0.0
C756 C 0.37415 0.78271 0.62622 0.0
C757 C 0.36226 0.80658 0.63781 0.0
C758 C 0.36834 0.73136 0.60748 0.0
C759 C 0.38826 0.7343 0.58214 0.0
C760 C 0.36161 0.70413 0.62215 0.0
C761 C 0.3424 0.69992 0.65034 0.0
C762 C 0.34954 0.71681 0.67773 0.0
C763 C 0.3312 0.7129 0.70412 0.0
C764 C 0.30579 0.69198 0.70351 0.0
C765 C 0.29872 0.67487 0.67653 0.0
C766 C 0.31696 0.67873 0.65004 0.0
C767 C 0.45654 0.63873 0.56858 0.0
C768 C 0.44006 0.61276 0.55764 0.0
C769 C 0.44187 0.66154 0.57828 0.0
C770 C 0.41043 0.65889 0.5771 0.0
C771 C 0.39387 0.63264 0.56705 0.0
C772 C 0.40857 0.60978 0.55725 0.0
C773 C 0.395 0.68374 0.58595 0.0
C774 C 0.37468 0.68061 0.61089 0.0
C775 C 0.40159 0.71088 0.57113 0.0
C776 C 0.42207 0.71532 0.54391 0.0
C777 C 0.41702 0.6977 0.51677 0.0
C778 C 0.43679 0.7016 0.49154 0.0
C779 C 0.46158 0.72321 0.49306 0.0
C780 C 0.46657 0.74104 0.51975 0.0
C781 C 0.4469 0.73719 0.54507 0.0
H782 H 0.4769 0.7262 0.47355 0.0
H783 H 0.29162 0.68898 0.72397 0.0
H784 H 0.83282 0.87393 0.77705 0.0
H785 H 0.87155 0.88367 0.73733 0.0
H786 H 0.93982 0.8918 0.81112 0.0
H787 H 0.90063 0.88391 0.85095 0.0
H788 H 0.9504 0.93497 0.77573 0.0
H789 H 0.93275 0.83635 0.75428 0.0
H790 H 0.90456 0.78794 0.74474 0.0
H791 H 0.86773 0.81715 0.65843 0.0
H792 H 0.89524 0.86587 0.66768 0.0
H793 H 0.01734 0.93411 0.60293 0.0
H794 H 1.00078 0.908 0.6511 0.0
H795 H 0.95831 0.98029 0.6812 0.0
H796 H 0.97594 0.0067 0.63407 0.0
H797 H 0.94903 0.88833 0.67012 0.0
H798 H 0.9532 0.98658 0.75744 0.0
H799 H 0.98653 0.03189 0.76943 0.0
H800 H 0.06053 0.99719 0.72879 0.0
H801 H 0.02779 0.95151 0.71696 0.0
C802 C 0.85614 0.87751 0.78461 0.0
C803 C 0.86385 0.87855 0.81688 0.0
C804 C 0.87833 0.8827 0.76195 0.0
C805 C 0.90876 0.88831 0.77112 0.0
C806 C 0.91655 0.88758 0.80342 0.0
C807 C 0.89423 0.88282 0.82613 0.0
C808 C 0.9317 0.8983 0.74725 0.0
C809 C 0.95038 0.92454 0.75278 0.0
C810 C 0.93265 0.88421 0.71767 0.0
C811 C 0.91609 0.85485 0.71174 0.0
C812 C 0.91853 0.83251 0.73333 0.0
C813 C 0.90267 0.805 0.72798 0.0
C814 C 0.88439 0.79948 0.70099 0.0
C815 C 0.88194 0.82145 0.6793 0.0
C816 C 0.89771 0.84902 0.68456 0.0
C817 C 0.00489 0.9445 0.62019 0.0
C818 C 0.99798 0.97242 0.61495 0.0
C819 C 0.99537 0.92957 0.64762 0.0
C820 C 0.97863 0.94226 0.67011 0.0
C821 C 0.97192 0.97026 0.66479 0.0
C822 C 0.98182 0.98531 0.63769 0.0
C823 C 0.96622 0.92582 0.69807 0.0
C824 C 0.94959 0.89837 0.69331 0.0
C825 C 0.96801 0.93826 0.72874 0.0
C826 C 0.98795 0.96562 0.73619 0.0
C827 C 0.97663 0.98851 0.75126 0.0
C828 C 0.99541 0.0143 0.75798 0.0
C829 C 0.02561 0.01743 0.74983 0.0
C830 C 0.03711 0.99476 0.73501 0.0
C831 C 0.01844 0.96893 0.72826 0.0
H832 H 0.04011 0.03742 0.75502 0.0
H833 H 0.87212 0.77816 0.69689 0.0
H834 H 0.7039 0.16609 0.36972 0.0
H835 H 0.68185 0.13865 0.32334 0.0
H836 H 0.74231 0.19249 0.26307 0.0
H837 H 0.76479 0.21904 0.30975 0.0
H838 H 0.7315 0.14105 0.23799 0.0
H839 H 0.61493 0.12698 0.29313 0.0
H840 H 0.58574 0.15013 0.33216 0.0
H841 H 0.63868 0.23198 0.31478 0.0
H842 H 0.66858 0.20918 0.27613 0.0
H843 H 0.62751 0.05414 0.13676 0.0
H844 H 0.65943 0.07624 0.18003 0.0
H845 H 0.62008 0.15454 0.16973 0.0
H846 H 0.58731 0.13203 0.12689 0.0
H847 H 0.62159 0.14132 0.22881 0.0
H848 H 0.69379 0.14881 0.14707 0.0
H849 H 0.72268 0.1319 0.10352 0.0
H850 H 0.75908 0.07363 0.16655 0.0
H851 H 0.73008 0.08991 0.21041 0.0
C852 C 0.71327 0.17098 0.34664 0.0
C853 C 0.73615 0.19426 0.34305 0.0
C854 C 0.70039 0.15575 0.32012 0.0
C855 C 0.70981 0.16405 0.28956 0.0
C856 C 0.73451 0.18573 0.28631 0.0
C857 C 0.74757 0.20072 0.31291 0.0
C858 C 0.6924 0.15209 0.26106 0.0
C859 C 0.70744 0.14096 0.23604 0.0
C860 C 0.66112 0.15267 0.25798 0.0
C861 C 0.64409 0.16634 0.28202 0.0
C862 C 0.62042 0.14989 0.29781 0.0
C863 C 0.60384 0.16292 0.31992 0.0
C864 C 0.61048 0.19248 0.32608 0.0
C865 C 0.63374 0.20905 0.31017 0.0
C866 C 0.65065 0.19605 0.28834 0.0
C867 C 0.62591 0.07619 0.14348 0.0
C868 C 0.60493 0.09139 0.12851 0.0
C869 C 0.6443 0.08887 0.16815 0.0
C870 C 0.64245 0.11719 0.17805 0.0
C871 C 0.62193 0.13265 0.16256 0.0
C872 C 0.6033 0.11985 0.13803 0.0
C873 C 0.66058 0.12998 0.20573 0.0
C874 C 0.64563 0.14124 0.23069 0.0
C875 C 0.69204 0.13022 0.20827 0.0
C876 C 0.70954 0.1204 0.18196 0.0
C877 C 0.70777 0.13223 0.15159 0.0
C878 C 0.7242 0.12278 0.12686 0.0
C879 C 0.74264 0.10165 0.13224 0.0
C880 C 0.74475 0.08997 0.16241 0.0
C881 C 0.72835 0.09932 0.18722 0.0
H882 H 0.75534 0.09437 0.11306 0.0
H883 H 0.59752 0.20256 0.34308 0.0
H884 H 0.40524 0.66607 0.17929 0.0
H885 H 0.43234 0.64227 0.22003 0.0
H886 H 0.39187 0.6885 0.29237 0.0
H887 H 0.36594 0.713 0.25131 0.0
H888 H 0.44529 0.68049 0.312 0.0
H889 H 0.35988 0.6175 0.26684 0.0
H890 H 0.32932 0.59119 0.22407 0.0
H891 H 0.40412 0.54932 0.19781 0.0
H892 H 0.43501 0.57517 0.24065 0.0
H893 H 0.43371 0.58461 0.43977 0.0
H894 H 0.42141 0.61221 0.3939 0.0
H895 H 0.47636 0.56603 0.33557 0.0
H896 H 0.48888 0.53805 0.38158 0.0
H897 H 0.42217 0.5738 0.30632 0.0
H898 H 0.50261 0.63028 0.36245 0.0
H899 H 0.52779 0.65305 0.4101 0.0
H900 H 0.45991 0.70831 0.41767 0.0
H901 H 0.43328 0.68466 0.37109 0.0
C902 C 0.40337 0.67196 0.20389 0.0
C903 C 0.38402 0.69151 0.2124 0.0
C904 C 0.41836 0.65806 0.22717 0.0
C905 C 0.4135 0.66292 0.2594 0.0
C906 C 0.39595 0.68423 0.26775 0.0
C907 C 0.38134 0.69843 0.24439 0.0
C908 C 0.42437 0.64424 0.28428 0.0
C909 C 0.4401 0.65718 0.31082 0.0
C910 C 0.41817 0.61372 0.28261 0.0
C911 C 0.3998 0.59848 0.25664 0.0
C912 C 0.36983 0.6028 0.25181 0.0
C913 C 0.35244 0.58792 0.22763 0.0
C914 C 0.36484 0.56877 0.2081 0.0
C915 C 0.39458 0.56424 0.21288 0.0
C916 C 0.41199 0.5789 0.23717 0.0
C917 C 0.44305 0.58004 0.41719 0.0
C918 C 0.4625 0.55918 0.41448 0.0
C919 C 0.43606 0.59598 0.39098 0.0
C920 C 0.4484 0.59156 0.36144 0.0
C921 C 0.46675 0.56991 0.35822 0.0
C922 C 0.47386 0.55392 0.38454 0.0
C923 C 0.44251 0.61009 0.33424 0.0
C924 C 0.42776 0.5971 0.3073 0.0
C925 C 0.44928 0.64055 0.33581 0.0
C926 C 0.46576 0.65546 0.36334 0.0
C927 C 0.49284 0.64708 0.37442 0.0
C928 C 0.50739 0.66015 0.40131 0.0
C929 C 0.49556 0.68222 0.4169 0.0
C930 C 0.46905 0.69117 0.40566 0.0
C931 C 0.45413 0.67783 0.37907 0.0
H932 H 0.50694 0.69238 0.43767 0.0
H933 H 0.35136 0.55735 0.18934 0.0
H934 H 0.14926 0.36176 0.77281 0.0
H935 H 0.12534 0.38487 0.81593 0.0
H936 H 0.10619 0.45172 0.75201 0.0
H937 H 0.1306 0.42876 0.70927 0.0
H938 H 0.12538 0.47524 0.80594 0.0
H939 H 0.05189 0.39413 0.77633 0.0
H940 H 0.03341 0.3427 0.76655 0.0
H941 H 0.05298 0.32345 0.86322 0.0
H942 H 0.07201 0.37473 0.87346 0.0
H943 H 0.01145 0.53459 0.88278 0.0
H944 H 0.03893 0.50735 0.84704 0.0
H945 H 0.06105 0.45425 0.92455 0.0
H946 H 0.03348 0.48193 0.96077 0.0
H947 H 0.04354 0.42226 0.86872 0.0
H948 H 0.11362 0.50438 0.8989 0.0
H949 H 0.13128 0.55601 0.9083 0.0
H950 H 0.11741 0.57344 0.80996 0.0
H951 H 0.09922 0.52196 0.80005 0.0
C952 C 0.1398 0.38133 0.76812 0.0
C953 C 0.14169 0.3935 0.73778 0.0
C954 C 0.12605 0.39452 0.79269 0.0
C955 C 0.11351 0.41998 0.78732 0.0
C956 C 0.11565 0.43218 0.75695 0.0
C957 C 0.12958 0.4191 0.7325 0.0
C958 C 0.09836 0.43414 0.81317 0.0
C959 C 0.10729 0.46363 0.81938 0.0
C960 C 0.0753 0.41899 0.83163 0.0
C961 C 0.06367 0.38821 0.82557 0.0
C962 C 0.05246 0.37889 0.79544 0.0
C963 C 0.04186 0.34978 0.78982 0.0
C964 C 0.0421 0.32981 0.81422 0.0
C965 C 0.05286 0.33893 0.84433 0.0
C966 C 0.06354 0.36802 0.85006 0.0
C967 C 0.02205 0.51706 0.89231 0.0
C968 C 0.02021 0.51039 0.92466 0.0
C969 C 0.03787 0.50152 0.8718 0.0
C970 C 0.05239 0.47888 0.88304 0.0
C971 C 0.05007 0.47164 0.91527 0.0
C972 C 0.03428 0.48741 0.93597 0.0
C973 C 0.07021 0.46337 0.86087 0.0
C974 C 0.06181 0.43372 0.8554 0.0
C975 C 0.09371 0.47835 0.84298 0.0
C976 C 0.10483 0.50932 0.84879 0.0
C977 C 0.11412 0.51925 0.87932 0.0
C978 C 0.12426 0.54849 0.88474 0.0
C979 C 0.12541 0.568 0.85976 0.0
C980 C 0.11649 0.5583 0.82929 0.0
C981 C 0.10629 0.52909 0.82376 0.0
H982 H 0.13327 0.59063 0.864 0.0
H983 H 0.03388 0.30728 0.80983 0.0
H984 H 0.80227 0.92068 0.92171 0.0
H985 H 0.75967 0.94165 0.94251 0.0
H986 H 0.70723 0.91269 0.85899 0.0
H987 H 0.75038 0.89228 0.838 0.0
H988 H 0.69702 0.96555 0.87701 0.0
H989 H 0.69875 0.87457 0.92629 0.0
H990 H 0.72147 0.83719 0.95502 0.0
H991 H 0.73915 0.8937 0.03544 0.0
H992 H 0.71705 0.93165 0.00696 0.0
H993 H 0.55819 0.9799 0.95252 0.0
H994 H 0.59796 0.95904 0.92586 0.0
H995 H 0.66108 0.99278 0.9993 0.0
H996 H 0.62167 0.01377 0.02606 0.0
H997 H 0.66266 0.9345 0.98397 0.0
H998 H 0.66291 0.02631 0.93195 0.0
H999 H 0.63977 0.06288 0.90229 0.0
H1000 H 0.61629 1.00248 0.82617 0.0
H1001 H 0.63894 0.9654 0.85562 0.0
C1002 C 0.78165 0.91913 0.90786 0.0
C1003 C 0.77915 0.90485 0.87858 0.0
C1004 C 0.75739 0.93094 0.91966 0.0
C1005 C 0.73013 0.92818 0.90254 0.0
C1006 C 0.72804 0.91491 0.87259 0.0
C1007 C 0.7525 0.90331 0.86066 0.0
C1008 C 0.70361 0.93822 0.91661 0.0
C1009 C 0.68919 0.95843 0.90017 0.0
C1010 C 0.69357 0.92901 0.94693 0.0
C1011 C 0.70644 0.90605 0.96437 0.0
C1012 C 0.70765 0.8791 0.95003 0.0
C1013 C 0.72042 0.85781 0.96627 0.0
C1014 C 0.73179 0.86308 0.99701 0.0
C1015 C 0.73035 0.88965 0.01161 0.0
C1016 C 0.71769 0.91106 0.99543 0.0
C1017 C 0.58053 0.98284 0.96302 0.0
C1018 C 0.58682 0.99853 0.99136 0.0
C1019 C 0.60319 0.97101 0.9477 0.0
C1020 C 0.63238 0.97455 0.96061 0.0
C1021 C 0.63864 0.98988 0.98903 0.0
C1022 C 0.61612 1.00194 0.00419 0.0
C1023 C 0.65654 0.96221 0.94465 0.0
C1024 C 0.6704 0.94144 0.96072 0.0
C1025 C 0.66581 0.97068 0.9139 0.0
C1026 C 0.65231 0.99299 0.89614 0.0
C1027 C 0.65258 0.02075 0.90902 0.0
C1028 C 0.6396 0.04159 0.89222 0.0
C1029 C 0.62648 0.03498 0.8624 0.0
C1030 C 0.6264 0.00755 0.84929 0.0
C1031 C 0.63933 0.98662 0.86601 0.0
H1032 H 0.61645 0.05115 0.84943 0.0
H1033 H 0.74167 0.84657 0.00955 0.0
H1034 H 0.82547 0.23343 0.37405 0.0
H1035 H 0.86426 0.20268 0.38632 0.0
H1036 H 0.79619 0.13715 0.42159 0.0
H1037 H 0.7575 0.16761 0.40849 0.0
H1038 H 0.85032 0.15849 0.46402 0.0
H1039 H 0.82098 0.12119 0.35906 0.0
H1040 H 0.81283 0.1263 0.30169 0.0
H1041 H 0.90571 0.16048 0.29126 0.0
H1042 H 0.9143 0.15605 0.34872 0.0
H1043 H 0.91824 0.03916 0.49917 0.0
H1044 H 0.88537 0.07038 0.47536 0.0
H1045 H 0.95922 0.11316 0.42195 0.0
H1046 H 0.99241 0.08099 0.44546 0.0
H1047 H 0.90683 0.10798 0.38697 0.0
H1048 H 0.93872 0.14466 0.48826 0.0
H1049 H 0.94964 0.14347 0.5455 0.0
H1050 H 0.85637 0.1164 0.5632 0.0
H1051 H 0.84492 0.11696 0.50596 0.0
C1052 C 0.81894 0.21228 0.38402 0.0
C1053 C 0.78867 0.2027 0.39033 0.0
C1054 C 0.84099 0.19477 0.39099 0.0
C1055 C 0.8331 0.16763 0.40488 0.0
C1056 C 0.80276 0.15798 0.41083 0.0
C1057 C 0.78071 0.17523 0.40326 0.0
C1058 C 0.85652 0.14988 0.41479 0.0
C1059 C 0.86245 0.1472 0.44721 0.0
C1060 C 0.8733 0.13622 0.39279 0.0
C1061 C 0.8682 0.13863 0.35825 0.0
C1062 C 0.8396 0.13009 0.3446 0.0
C1063 C 0.83491 0.13279 0.31205 0.0
C1064 C 0.85872 0.14379 0.29286 0.0
C1065 C 0.88728 0.15201 0.30617 0.0
C1066 C 0.89207 0.1494 0.33872 0.0
C1067 C 0.92748 0.05494 0.48203 0.0
C1068 C 0.95796 0.05776 0.47435 0.0
C1069 C 0.90865 0.07292 0.46852 0.0
C1070 C 0.91986 0.09468 0.44739 0.0
C1071 C 0.95004 0.09668 0.43835 0.0
C1072 C 0.96899 0.07831 0.45174 0.0
C1073 C 0.90004 0.11584 0.43638 0.0
C1074 C 0.89486 0.11936 0.40384 0.0
C1075 C 0.88433 0.13088 0.45826 0.0
C1076 C 0.891 0.13064 0.49277 0.0
C1077 C 0.92055 0.13826 0.50433 0.0
C1078 C 0.92684 0.13773 0.53679 0.0
C1079 C 0.90372 0.12984 0.55798 0.0
C1080 C 0.87425 0.1225 0.54675 0.0
C1081 C 0.86785 0.12295 0.5143 0.0
H1082 H 0.90864 0.12944 0.5831 0.0
H1083 H 0.85505 0.14586 0.26766 0.0
H1084 H 0.30674 0.64557 0.12725 0.0
H1085 H 0.25908 0.62723 0.10047 0.0
H1086 H 0.22002 0.69939 0.1369 0.0
H1087 H 0.26741 0.7169 0.16477 0.0
H1088 H 0.18138 0.65179 0.14064 0.0
H1089 H 0.24317 0.69793 0.06035 0.0
H1090 H 0.2887 0.70887 0.02862 0.0
H1091 H 0.27791 0.62134 0.99503 0.0
H1092 H 0.23257 0.60973 0.02699 0.0
H1093 H 0.05386 0.62325 0.03788 0.0
H1094 H 0.10083 0.64902 0.05981 0.0
H1095 H 0.14559 0.57578 0.0393 0.0
H1096 H 0.09892 0.5499 0.01729 0.0
H1097 H 0.18016 0.6287 0.02591 0.0
H1098 H 0.11969 0.58312 0.11078 0.0
H1099 H 0.07344 0.574 0.1417 0.0
H1100 H 0.08124 0.66397 0.16542 0.0
H1101 H 0.12731 0.67369 0.13419 0.0
C1102 C 0.28778 0.65717 0.12976 0.0
C1103 C 0.29051 0.68259 0.14783 0.0
C1104 C 0.26073 0.64694 0.11427 0.0
C1105 C 0.23616 0.66226 0.11621 0.0
C1106 C 0.23872 0.68733 0.13492 0.0
C1107 C 0.26572 0.6974 0.15063 0.0
C1108 C 0.20787 0.6521 0.09864 0.0
C1109 C 0.18106 0.64721 0.11545 0.0
C1110 C 0.20747 0.64596 0.0658 0.0
C1111 C 0.23458 0.65291 0.04628 0.0
C1112 C 0.25061 0.68096 0.04637 0.0
C1113 C 0.27638 0.68729 0.02832 0.0
C1114 C 0.28622 0.6658 0.00986 0.0
C1115 C 0.27027 0.63796 0.00936 0.0
C1116 C 0.24452 0.63149 0.02741 0.0
C1117 C 0.0738 0.61279 0.03758 0.0
C1118 C 0.07262 0.58442 0.02614 0.0
C1119 C 0.10056 0.62751 0.0502 0.0
C1120 C 0.1265 0.61412 0.05146 0.0
C1121 C 0.12575 0.58642 0.03857 0.0
C1122 C 0.09902 0.57163 0.02616 0.0
C1123 C 0.15396 0.62803 0.06802 0.0
C1124 C 0.18056 0.63361 0.05102 0.0
C1125 C 0.15411 0.63512 0.10058 0.0
C1126 C 0.12676 0.62918 0.11987 0.0
C1127 C 0.11143 0.60098 0.12241 0.0
C1128 C 0.08526 0.59571 0.14001 0.0
C1129 C 0.07436 0.61841 0.15544 0.0
C1130 C 0.08968 0.64642 0.15341 0.0
C1131 C 0.11583 0.65182 0.13578 0.0
H1132 H 0.05407 0.61429 0.16901 0.0
H1133 H 0.30618 0.67075 0.99591 0.0
H1134 H 0.19093 0.41485 0.62807 0.0
H1135 H 0.23529 0.43082 0.59683 0.0
H1136 H 0.27656 0.35909 0.63145 0.0
H1137 H 0.23219 0.34382 0.66378 0.0
H1138 H 0.31597 0.40531 0.63527 0.0
H1139 H 0.25135 0.36363 0.55258 0.0
H1140 H 0.20495 0.35396 0.52018 0.0
H1141 H 0.21404 0.44302 0.49347 0.0
H1142 H 0.26028 0.45334 0.5261 0.0
H1143 H 0.40713 0.44381 0.48037 0.0
H1144 H 0.36216 0.42095 0.50669 0.0
H1145 H 0.38091 0.48074 0.58479 0.0
H1146 H 0.42671 0.50298 0.55893 0.0
H1147 H 0.31251 0.43527 0.5231 0.0
H1148 H 0.3549 0.45083 0.65338 0.0
H1149 H 0.40269 0.45496 0.68362 0.0
H1150 H 0.44052 0.40737 0.6113 0.0
H1151 H 0.39284 0.40259 0.58087 0.0
C1152 C 0.20929 0.40224 0.6285 0.0
C1153 C 0.20816 0.37811 0.64827 0.0
C1154 C 0.23468 0.41131 0.61057 0.0
C1155 C 0.25951 0.3962 0.61148 0.0
C1156 C 0.25786 0.37127 0.63028 0.0
C1157 C 0.23238 0.36227 0.64843 0.0
C1158 C 0.28752 0.4074 0.5941 0.0
C1159 C 0.31515 0.41175 0.6107 0.0
C1160 C 0.28692 0.4154 0.56181 0.0
C1161 C 0.25918 0.4093 0.542 0.0
C1162 C 0.24336 0.3812 0.53997 0.0
C1163 C 0.21709 0.3756 0.52154 0.0
C1164 C 0.20652 0.39787 0.50482 0.0
C1165 C 0.22224 0.42579 0.50645 0.0
C1166 C 0.24851 0.43152 0.52489 0.0
C1167 C 0.40168 0.45215 0.50315 0.0
C1168 C 0.42068 0.47511 0.51764 0.0
C1169 C 0.37583 0.43906 0.51821 0.0
C1170 C 0.3681 0.44865 0.54812 0.0
C1171 C 0.38656 0.47231 0.56214 0.0
C1172 C 0.41267 0.48522 0.54721 0.0
C1173 C 0.34086 0.43379 0.56444 0.0
C1174 C 0.31336 0.42878 0.54764 0.0
C1175 C 0.34179 0.42438 0.59626 0.0
C1176 C 0.37037 0.42662 0.61472 0.0
C1177 C 0.37336 0.44112 0.64402 0.0
C1178 C 0.40045 0.4436 0.66117 0.0
C1179 C 0.42466 0.43152 0.64934 0.0
C1180 C 0.42179 0.41681 0.6204 0.0
C1181 C 0.39474 0.41422 0.60318 0.0
H1182 H 0.44562 0.43351 0.66262 0.0
H1183 H 0.18618 0.39349 0.49057 0.0
H1184 H 0.87251 0.85994 0.91862 0.0
H1185 H 0.89726 0.81919 0.93602 0.0
H1186 H 0.86756 0.77335 0.84975 0.0
H1187 H 0.84339 0.81456 0.8323 0.0
H1188 H 0.87175 0.76701 0.94919 0.0
H1189 H 0.91631 0.72615 0.83171 0.0
H1190 H 0.93603 0.74596 0.78109 0.0
H1191 H 0.96471 0.82792 0.82578 0.0
H1192 H 0.94574 0.80846 0.87681 0.0
H1193 H 0.89971 0.62273 0.96466 0.0
H1194 H 0.8825 0.66706 0.94574 0.0
H1195 H 0.9744 0.7071 0.93764 0.0
H1196 H 0.99165 0.66272 0.95592 0.0
H1197 H 0.94231 0.71821 0.88677 0.0
H1198 H 0.93257 0.72332 0.9992 0.0
H1199 H 0.91591 0.70518 0.05156 0.0
H1200 H 0.82396 0.69971 0.02071 0.0
H1201 H 0.84008 0.71741 0.96799 0.0
C1202 C 0.87183 0.84124 0.90333 0.0
C1203 C 0.85624 0.84003 0.87429 0.0
C1204 C 0.88575 0.81802 0.91324 0.0
C1205 C 0.88423 0.79322 0.89421 0.0
C1206 C 0.86936 0.7924 0.86464 0.0
C1207 C 0.85562 0.8158 0.85465 0.0
C1208 C 0.89681 0.7677 0.90614 0.0
C1209 C 0.88725 0.7564 0.93555 0.0
C1210 C 0.91727 0.75407 0.88852 0.0
C1211 C 0.92936 0.76587 0.85806 0.0
C1212 C 0.927 0.74834 0.8308 0.0
C1213 C 0.93805 0.75951 0.80203 0.0
C1214 C 0.95162 0.78816 0.80024 0.0
C1215 C 0.95418 0.80572 0.82721 0.0
C1216 C 0.94328 0.79463 0.85606 0.0
C1217 C 0.91617 0.64106 0.95895 0.0
C1218 C 0.94695 0.63944 0.96181 0.0
C1219 C 0.90636 0.66633 0.94818 0.0
C1220 C 0.92721 0.69041 0.94048 0.0
C1221 C 0.95797 0.68874 0.94336 0.0
C1222 C 0.96776 0.66347 0.95397 0.0
C1223 C 0.91699 0.71744 0.9296 0.0
C1224 C 0.92689 0.72893 0.90038 0.0
C1225 C 0.89734 0.73165 0.94769 0.0
C1226 C 0.88754 0.72148 0.97956 0.0
C1227 C 0.90879 0.71809 0.00352 0.0
C1228 C 0.89945 0.7079 0.03327 0.0
C1229 C 0.8689 0.70125 0.03944 0.0
C1230 C 0.84762 0.70485 0.01589 0.0
C1231 C 0.85685 0.71499 0.98608 0.0
H1232 H 0.86171 0.69338 0.06249 0.0
H1233 H 0.9602 0.79673 0.77796 0.0
H1234 H 0.35425 0.7751 0.20077 0.0
H1235 H 0.38335 0.82082 0.18513 0.0
H1236 H 0.44449 0.77414 0.13561 0.0
H1237 H 0.41461 0.72837 0.15085 0.0
H1238 H 0.43679 0.84972 0.18948 0.0
H1239 H 0.46202 0.80677 0.06592 0.0
H1240 H 0.44153 0.768 0.02857 0.0
H1241 H 0.354 0.76666 0.06757 0.0
H1242 H 0.37394 0.80559 0.10494 0.0
H1243 H 0.53526 0.95532 0.11692 0.0
H1244 H 0.51105 0.90831 0.13377 0.0
H1245 H 0.43506 0.9162 0.07251 0.0
H1246 H 0.46003 0.96355 0.05463 0.0
H1247 H 0.44725 0.8611 0.07336 0.0
H1248 H 0.43209 0.93151 0.15059 0.0
H1249 H 0.44647 0.97238 0.18727 0.0
H1250 H 0.50269 0.92242 0.24019 0.0
H1251 H 0.48898 0.88137 0.20353 0.0
C1252 C 0.37464 0.77479 0.18767 0.0
C1253 C 0.38244 0.7485 0.17707 0.0
C1254 C 0.39111 0.80083 0.17848 0.0
C1255 C 0.41568 0.80096 0.15848 0.0
C1256 C 0.42523 0.77458 0.15047 0.0
C1257 C 0.40859 0.74848 0.15961 0.0
C1258 C 0.42952 0.82852 0.14417 0.0
C1259 C 0.43924 0.85211 0.16412 0.0
C1260 C 0.43179 0.83205 0.11096 0.0
C1261 C 0.41956 0.80884 0.08842 0.0
C1262 C 0.4384 0.79823 0.06646 0.0
C1263 C 0.42688 0.77622 0.04532 0.0
C1264 C 0.39651 0.76479 0.0458 0.0
C1265 C 0.37755 0.77543 0.06734 0.0
C1266 C 0.38896 0.79743 0.08853 0.0
C1267 C 0.51351 0.94696 0.10672 0.0
C1268 C 0.49931 0.96315 0.08474 0.0
C1269 C 0.49965 0.9201 0.11647 0.0
C1270 C 0.47092 0.90902 0.10505 0.0
C1271 C 0.45718 0.92446 0.08181 0.0
C1272 C 0.47137 0.95143 0.07162 0.0
C1273 C 0.45513 0.88201 0.11877 0.0
C1274 C 0.44496 0.85861 0.09873 0.0
C1275 C 0.45155 0.87888 0.15187 0.0
C1276 C 0.45968 0.90344 0.17416 0.0
C1277 C 0.44767 0.9293 0.16993 0.0
C1278 C 0.45568 0.9525 0.19073 0.0
C1279 C 0.47552 0.95002 0.21601 0.0
C1280 C 0.48734 0.92431 0.22058 0.0
C1281 C 0.47943 0.90106 0.19982 0.0
H1282 H 0.48171 0.968 0.23208 0.0
H1283 H 0.38764 0.74775 0.02943 0.0
H1284 H 0.1723 0.29491 0.69708 0.0
H1285 H 0.15717 0.24936 0.66872 0.0
H1286 H 0.13921 0.29648 0.58475 0.0
H1287 H 0.1538 0.34219 0.61375 0.0
H1288 H 0.09314 0.25632 0.59566 0.0
H1289 H 0.19867 0.25612 0.59048 0.0
H1290 H 0.25076 0.25975 0.61061 0.0
H1291 H 0.22612 0.18677 0.67046 0.0
H1292 H 0.17374 0.18296 0.65106 0.0
H1293 H 0.0653 0.13144 0.49723 0.0
H1294 H 0.08763 0.17709 0.52127 0.0
H1295 H 0.09795 0.13432 0.60996 0.0
H1296 H 0.07545 0.08828 0.58603 0.0
H1297 H 0.14907 0.17246 0.59454 0.0
H1298 H 0.04325 0.17472 0.60178 0.0
H1299 H 0.99128 0.1707 0.58123 0.0
H1300 H 0.01722 0.23973 0.51652 0.0
H1301 H 0.06948 0.24399 0.53653 0.0
C1302 C 0.16581 0.29543 0.67234 0.0
C1303 C 0.16434 0.32198 0.65753 0.0
C1304 C 0.15716 0.2694 0.65607 0.0
C1305 C 0.14705 0.26923 0.62439 0.0
C1306 C 0.14685 0.29588 0.60913 0.0
C1307 C 0.15553 0.32201 0.62552 0.0
C1308 C 0.13485 0.24137 0.60817 0.0
C1309 C 0.10569 0.23822 0.59493 0.0
C1310 C 0.15069 0.21726 0.60782 0.0
C1311 C 0.18219 0.21942 0.6195 0.0
C1312 C 0.20429 0.24098 0.60812 0.0
C1313 C 0.23389 0.24305 0.61938 0.0
C1314 C 0.24173 0.22354 0.64185 0.0
C1315 C 0.22 0.20188 0.65307 0.0
C1316 C 0.19036 0.19974 0.64193 0.0
C1317 C 0.07225 0.13159 0.52188 0.0
C1318 C 0.06839 0.10601 0.53966 0.0
C1319 C 0.085 0.15785 0.53564 0.0
C1320 C 0.09436 0.15933 0.56754 0.0
C1321 C 0.09091 0.13381 0.58532 0.0
C1322 C 0.07786 0.10749 0.57162 0.0
C1323 C 0.10749 0.18756 0.58221 0.0
C1324 C 0.13671 0.1907 0.59516 0.0
C1325 C 0.09178 0.2117 0.58225 0.0
C1326 C 0.06033 0.20947 0.57043 0.0
C1327 C 0.03792 0.18892 0.58302 0.0
C1328 C 0.0084 0.18661 0.57149 0.0
C1329 C 1.00096 0.20486 0.54748 0.0
C1330 C 0.02302 0.22557 0.53508 0.0
C1331 C 0.05259 0.22797 0.54654 0.0
H1332 H 0.9781 0.203 0.53854 0.0
H1333 H 0.26466 0.22518 0.65053 0.0
H1334 H 0.71269 0.26595 0.44804 0.0
H1335 H 0.68328 0.30506 0.45949 0.0
H1336 H 0.70821 0.3438 0.36967 0.0
H1337 H 0.73782 0.30482 0.3587 0.0
H1338 H 0.70446 0.38504 0.41315 0.0
H1339 H 0.64373 0.30002 0.37554 0.0
H1340 H 0.62397 0.24822 0.37417 0.0
H1341 H 0.58853 0.25463 0.46711 0.0
H1342 H 0.60859 0.30644 0.46928 0.0
H1343 H 0.53793 0.42135 0.41577 0.0
H1344 H 0.57415 0.38881 0.40252 0.0
H1345 H 0.6372 0.43277 0.47076 0.0
H1346 H 0.60178 0.46589 0.48283 0.0
H1347 H 0.59717 0.35072 0.43333 0.0
H1348 H 0.7086 0.4294 0.45245 0.0
H1349 H 0.72715 0.48118 0.44627 0.0
H1350 H 0.65848 0.48799 0.37616 0.0
H1351 H 0.6398 0.4362 0.38154 0.0
C1352 C 0.71263 0.28345 0.43142 0.0
C1353 C 0.72762 0.28278 0.40273 0.0
C1354 C 0.69564 0.30557 0.43772 0.0
C1355 C 0.69313 0.32718 0.41521 0.0
C1356 C 0.70979 0.32746 0.38742 0.0
C1357 C 0.72677 0.30535 0.38118 0.0
C1358 C 0.67116 0.34784 0.41928 0.0
C1359 C 0.68103 0.37759 0.41773 0.0
C1360 C 0.64033 0.33814 0.424 0.0
C1361 C 0.62792 0.30706 0.4227 0.0
C1362 C 0.63191 0.29035 0.39579 0.0
C1363 C 0.62063 0.26099 0.39485 0.0
C1364 C 0.60505 0.24812 0.42056 0.0
C1365 C 0.60065 0.26462 0.44723 0.0
C1366 C 0.61196 0.29399 0.44833 0.0
C1367 C 0.55967 0.42419 0.4276 0.0
C1368 C 0.56713 0.44627 0.45012 0.0
C1369 C 0.58034 0.40553 0.42015 0.0
C1370 C 0.60873 0.40847 0.43527 0.0
C1371 C 0.6159 0.4304 0.45806 0.0
C1372 C 0.5955 0.44927 0.4651 0.0
C1373 C 0.63051 0.38815 0.42809 0.0
C1374 C 0.62059 0.35835 0.42891 0.0
C1375 C 0.66108 0.39786 0.42159 0.0
C1376 C 0.67262 0.42893 0.41766 0.0
C1377 C 0.69756 0.4419 0.43559 0.0
C1378 C 0.70808 0.47127 0.43225 0.0
C1379 C 0.69391 0.48787 0.41094 0.0
C1380 C 0.66934 0.47512 0.39276 0.0
C1381 C 0.65877 0.44577 0.39596 0.0
H1382 H 0.70197 0.51061 0.40848 0.0
H1383 H 0.59633 0.22538 0.41978 0.0
loop_
_geom_bond_atom_site_label_1
_geom_bond_atom_site_label_2
_geom_bond_distance
_geom_bond_site_symmetry_2
_ccdc_geom_bond_type
C0 N1 1.317 . S
C0 N2 1.348 . S
C0 C3 1.485 . S
N1 C0 1.317 . S
N1 N5 1.370 . S
N2 C0 1.348 . S
N2 C4 1.346 . S
C3 C0 1.485 . S
C3 H7 0.960 . S
C3 H8 0.961 . S
C3 H9 0.960 . S
C4 N2 1.346 . S
C4 N5 1.307 . S
C4 C6 1.486 . S
N5 N1 1.370 . S
N5 C4 1.307 . S
C6 C4 1.486 . S
C6 H10 0.960 . S
C6 H11 0.960 . S
C6 H12 0.959 . S
H7 C3 0.960 . S
H8 C3 0.961 . S
H9 C3 0.960 . S
H10 C6 0.960 . S
H11 C6 0.960 . S
H12 C6 0.959 . S
C13 N14 1.317 . S
C13 N15 1.348 . S
C13 C16 1.485 . S
N14 C13 1.317 . S
N14 N18 1.370 . S
N15 C13 1.348 . S
N15 C17 1.346 . S
C16 C13 1.485 . S
C16 H20 0.960 . S
C16 H21 0.961 . S
C16 H22 0.960 . S
C17 N15 1.346 . S
C17 N18 1.307 . S
C17 C19 1.486 . S
N18 N14 1.370 . S
N18 C17 1.307 . S
C19 C17 1.486 . S
C19 H23 0.960 . S
C19 H24 0.960 . S
C19 H25 0.959 . S
H20 C16 0.960 . S
H21 C16 0.961 . S
H22 C16 0.960 . S
H23 C19 0.960 . S
H24 C19 0.960 . S
H25 C19 0.959 . S
C26 N27 1.317 . S
C26 N28 1.348 . S
C26 C29 1.485 . S
N27 C26 1.317 . S
N27 N31 1.370 . S
N28 C26 1.348 . S
N28 C30 1.346 . S
C29 C26 1.485 . S
C29 H33 0.960 . S
C29 H34 0.961 . S
C29 H35 0.960 . S
C30 N28 1.346 . S
C30 N31 1.307 . S
C30 C32 1.486 . S
N31 N27 1.370 . S
N31 C30 1.307 . S
C32 C30 1.486 . S
C32 H36 0.960 . S
C32 H37 0.960 . S
C32 H38 0.959 . S
H33 C29 0.960 . S
H34 C29 0.961 . S
H35 C29 0.960 . S
H36 C32 0.960 . S
H37 C32 0.960 . S
H38 C32 0.959 . S
C39 N40 1.317 . S
C39 N41 1.348 . S
C39 C42 1.485 . S
N40 C39 1.317 . S
N40 N44 1.370 . S
N41 C39 1.348 . S
N41 C43 1.346 . S
C42 C39 1.485 . S
C42 H46 0.960 . S
C42 H47 0.961 . S
C42 H48 0.960 . S
C43 N41 1.346 . S
C43 N44 1.307 . S
C43 C45 1.486 . S
N44 N40 1.370 . S
N44 C43 1.307 . S
C45 C43 1.486 . S
C45 H49 0.960 . S
C45 H50 0.960 . S
C45 H51 0.959 . S
H46 C42 0.960 . S
H47 C42 0.961 . S
H48 C42 0.960 . S
H49 C45 0.960 . S
H50 C45 0.960 . S
H51 C45 0.959 . S
C52 N53 1.317 . S
C52 N54 1.348 . S
C52 C55 1.485 . S
N53 C52 1.317 . S
N53 N57 1.370 . S
N54 C52 1.348 . S
N54 C56 1.346 . S
C55 C52 1.485 . S
C55 H59 0.960 . S
C55 H60 0.961 . S
C55 H61 0.960 . S
C56 N54 1.346 . S
C56 N57 1.307 . S
C56 C58 1.486 . S
N57 N53 1.370 . S
N57 C56 1.307 . S
C58 C56 1.486 . S
C58 H62 0.960 . S
C58 H63 0.960 . S
C58 H64 0.959 . S
H59 C55 0.960 . S
H60 C55 0.961 . S
H61 C55 0.960 . S
H62 C58 0.960 . S
H63 C58 0.960 . S
H64 C58 0.959 . S
C65 N66 1.317 . S
C65 N67 1.348 . S
C65 C68 1.485 . S
N66 C65 1.317 . S
N66 N70 1.370 . S
N67 C65 1.348 . S
N67 C69 1.346 . S
C68 C65 1.485 . S
C68 H72 0.960 . S
C68 H73 0.961 . S
C68 H74 0.960 . S
C69 N67 1.346 . S
C69 N70 1.307 . S
C69 C71 1.486 . S
N70 N66 1.370 . S
N70 C69 1.307 . S
C71 C69 1.486 . S
C71 H75 0.960 . S
C71 H76 0.960 . S
C71 H77 0.959 . S
H72 C68 0.960 . S
H73 C68 0.961 . S
H74 C68 0.960 . S
H75 C71 0.960 . S
H76 C71 0.960 . S
H77 C71 0.959 . S
C78 N79 1.317 . S
C78 N80 1.348 . S
C78 C81 1.485 . S
N79 C78 1.317 . S
N79 N83 1.370 . S
N80 C78 1.348 . S
N80 C82 1.346 . S
C81 C78 1.485 . S
C81 H85 0.960 . S
C81 H86 0.961 . S
C81 H87 0.960 . S
C82 N80 1.346 . S
C82 N83 1.307 . S
C82 C84 1.486 . S
N83 N79 1.370 . S
N83 C82 1.307 . S
C84 C82 1.486 . S
C84 H88 0.960 . S
C84 H89 0.960 . S
C84 H90 0.959 . S
H85 C81 0.960 . S
H86 C81 0.961 . S
H87 C81 0.960 . S
H88 C84 0.960 . S
H89 C84 0.960 . S
H90 C84 0.959 . S
C91 N92 1.317 . S
C91 N93 1.348 . S
C91 C94 1.485 . S
N92 C91 1.317 . S
N92 N96 1.370 . S
N93 C91 1.348 . S
N93 C95 1.346 . S
C94 C91 1.485 . S
C94 H98 0.960 . S
C94 H99 0.961 . S
C94 H100 0.960 . S
C95 N93 1.346 . S
C95 N96 1.307 . S
C95 C97 1.486 . S
N96 N92 1.370 . S
N96 C95 1.307 . S
C97 C95 1.486 . S
C97 H101 0.960 . S
C97 H102 0.960 . S
C97 H103 0.959 . S
H98 C94 0.960 . S
H99 C94 0.961 . S
H100 C94 0.960 . S
H101 C97 0.960 . S
H102 C97 0.960 . S
H103 C97 0.959 . S
Dy104 O108 2.398 . S
Dy104 O109 2.491 . S
Dy104 O110 2.403 . S
Dy104 O111 2.648 1_545 S
Dy104 O115 2.326 . S
Dy104 O119 2.310 . S
Dy104 O120 2.351 1_545 S
C105 O116 1.185 . S
C105 O117 1.355 1_655 S
C106 O108 1.185 . S
C106 O109 1.355 . S
Dy107 O111 2.297 1_545 S
Dy107 O114 2.351 . S
Dy107 O116 2.398 1_445 S
Dy107 O117 2.491 1_545 S
Dy107 O118 2.403 1_455 S
Dy107 O119 2.664 . S
Dy107 O121 2.326 1_445 S
O108 Dy104 2.398 . S
O108 C106 1.185 . S
O109 Dy104 2.491 . S
O109 C106 1.355 . S
O110 Dy104 2.403 . S
O110 C112 1.254 1_545 S
O111 Dy104 2.648 1_565 S
O111 Dy107 2.297 1_565 S
O111 C112 1.279 . S
C112 O110 1.254 1_565 S
C112 O111 1.279 . S
C113 O118 1.254 . S
C113 O119 1.268 1_655 S
O114 Dy107 2.351 . S
O114 C122 1.249 . S
O115 Dy104 2.326 . S
O115 C122 1.267 . S
O116 C105 1.185 . S
O116 Dy107 2.398 1_665 S
O117 C105 1.355 1_455 S
O117 Dy107 2.491 1_565 S
O118 Dy107 2.403 1_655 S
O118 C113 1.254 . S
O119 Dy104 2.310 . S
O119 Dy107 2.664 . S
O119 C113 1.268 1_455 S
O120 Dy104 2.351 1_565 S
O120 C123 1.249 . S
O121 Dy107 2.326 1_665 S
O121 C123 1.267 1_655 S
C122 O114 1.249 . S
C122 O115 1.267 . S
C123 O120 1.249 . S
C123 O121 1.267 1_455 S
Dy124 O128 2.398 . S
Dy124 O129 2.491 . S
Dy124 O130 2.403 1_545 S
Dy124 O131 2.663 . S
Dy124 O135 2.326 . S
Dy124 O139 2.310 . S
Dy124 O140 2.351 . S
C125 O136 1.185 1_565 S
C125 O137 1.355 . S
C126 O128 1.185 . S
C126 O129 1.355 . S
Dy127 O131 2.309 1_556 S
Dy127 O134 2.351 1_556 S
Dy127 O136 2.398 . S
Dy127 O137 2.491 1_545 S
Dy127 O138 2.403 . S
Dy127 O139 2.664 1_556 S
Dy127 O141 2.326 . S
O128 Dy124 2.398 . S
O128 C126 1.185 . S
O129 Dy124 2.491 . S
O129 C126 1.355 . S
O130 Dy124 2.403 1_565 S
O130 C132 1.254 . S
O131 Dy124 2.663 . S
O131 Dy127 2.309 1_554 S
O131 C132 1.269 1_545 S
C132 O130 1.254 . S
C132 O131 1.269 1_565 S
C133 O138 1.254 1_554 S
C133 O139 1.268 . S
O134 Dy127 2.351 1_554 S
O134 C142 1.249 . S
O135 Dy124 2.326 . S
O135 C142 1.267 . S
O136 C125 1.185 1_545 S
O136 Dy127 2.398 . S
O137 C125 1.355 . S
O137 Dy127 2.491 1_565 S
O138 Dy127 2.403 . S
O138 C133 1.254 1_556 S
O139 Dy124 2.310 . S
O139 Dy127 2.664 1_554 S
O139 C133 1.268 . S
O140 Dy124 2.351 . S
O140 C143 1.251 . S
O141 Dy127 2.326 . S
O141 C143 1.275 1_556 S
C142 O134 1.249 . S
C142 O135 1.267 . S
C143 O140 1.251 . S
C143 O141 1.275 1_554 S
Dy144 O148 2.398 . S
Dy144 O149 2.491 . S
Dy144 O150 2.403 . S
Dy144 O151 2.664 . S
Dy144 O155 2.326 . S
Dy144 O159 2.310 . S
Dy144 O160 2.351 . S
C145 O156 1.185 . S
C145 O157 1.355 . S
C146 O148 1.185 . S
C146 O149 1.355 . S
Dy147 O151 2.310 . S
Dy147 O154 2.351 . S
Dy147 O156 2.398 . S
Dy147 O157 2.491 . S
Dy147 O158 2.403 . S
Dy147 O159 2.664 . S
Dy147 O161 2.326 . S
O148 Dy144 2.398 . S
O148 C146 1.185 . S
O149 Dy144 2.491 . S
O149 C146 1.355 . S
O150 Dy144 2.403 . S
O150 C152 1.254 . S
O151 Dy144 2.664 . S
O151 Dy147 2.310 . S
O151 C152 1.268 . S
C152 O150 1.254 . S
C152 O151 1.268 . S
C153 O158 1.254 . S
C153 O159 1.268 . S
O154 Dy147 2.351 . S
O154 C162 1.249 . S
O155 Dy144 2.326 . S
O155 C162 1.267 . S
O156 C145 1.185 . S
O156 Dy147 2.398 . S
O157 C145 1.355 . S
O157 Dy147 2.491 . S
O158 Dy147 2.403 . S
O158 C153 1.254 . S
O159 Dy144 2.310 . S
O159 Dy147 2.664 . S
O159 C153 1.268 . S
O160 Dy144 2.351 . S
O160 C163 1.249 . S
O161 Dy147 2.326 . S
O161 C163 1.267 . S
C162 O154 1.249 . S
C162 O155 1.267 . S
C163 O160 1.249 . S
C163 O161 1.267 . S
Dy164 O168 2.398 . S
Dy164 O169 2.491 . S
Dy164 O170 2.403 1_455 S
Dy164 O171 2.664 1_455 S
Dy164 O175 2.326 . S
Dy164 O179 2.310 1_554 S
Dy164 O180 2.351 1_454 S
C165 O176 1.185 . S
C165 O177 1.355 . S
C166 O168 1.185 . S
C166 O169 1.355 . S
Dy167 O171 2.310 1_556 S
Dy167 O174 2.351 1_656 S
Dy167 O176 2.398 . S
Dy167 O177 2.491 . S
Dy167 O178 2.403 1_655 S
Dy167 O179 2.664 1_655 S
Dy167 O181 2.326 . S
O168 Dy164 2.398 . S
O168 C166 1.185 . S
O169 Dy164 2.491 . S
O169 C166 1.355 . S
O170 Dy164 2.403 1_655 S
O170 C172 1.254 . S
O171 Dy164 2.664 1_655 S
O171 Dy167 2.310 1_554 S
O171 C172 1.268 . S
C172 O170 1.254 . S
C172 O171 1.268 . S
C173 O178 1.254 . S
C173 O179 1.268 . S
O174 Dy167 2.351 1_454 S
O174 C182 1.249 . S
O175 Dy164 2.326 . S
O175 C182 1.267 . S
O176 C165 1.185 . S
O176 Dy167 2.398 . S
O177 C165 1.355 . S
O177 Dy167 2.491 . S
O178 Dy167 2.403 1_455 S
O178 C173 1.254 . S
O179 Dy164 2.310 1_556 S
O179 Dy167 2.664 1_455 S
O179 C173 1.268 . S
O180 Dy164 2.351 1_656 S
O180 C183 1.249 . S
O181 Dy167 2.326 . S
O181 C183 1.267 . S
C182 O174 1.249 . S
C182 O175 1.267 . S
C183 O180 1.249 . S
C183 O181 1.267 . S
H184 C202 0.951 . S
H185 C204 0.951 . S
H186 C206 0.950 . S
H187 C207 0.950 . S
H188 C209 0.950 . S
H189 C212 0.950 . S
H190 C213 0.950 . S
H191 C215 0.950 . S
H192 C216 0.950 . S
H193 C217 0.951 . S
H194 C219 0.951 . S
H195 C221 0.950 . S
H196 C222 0.950 . S
H197 C224 0.950 . S
H198 C227 0.950 . S
H199 C228 0.950 . S
H200 C230 0.950 . S
H201 C231 0.950 . S
C202 H184 0.951 . S
C202 C203 1.366 . S
C202 C204 1.388 . S
C203 C202 1.366 . S
C203 C207 1.385 . S
C204 H185 0.951 . S
C204 C202 1.388 . S
C204 C205 1.366 . S
C205 C204 1.366 . S
C205 C206 1.414 . S
C205 C208 1.499 . S
C206 H186 0.950 . S
C206 C205 1.414 . S
C206 C207 1.374 . S
C207 H187 0.950 . S
C207 C203 1.385 . S
C207 C206 1.374 . S
C208 C205 1.499 . S
C208 C209 1.373 . S
C208 C210 1.389 . S
C209 H188 0.950 . S
C209 C208 1.373 . S
C209 C225 1.377 . S
C210 C208 1.389 . S
C210 C211 1.524 . S
C210 C224 1.377 . S
C211 C210 1.524 . S
C211 C212 1.397 . S
C211 C216 1.363 . S
C212 H189 0.950 . S
C212 C211 1.397 . S
C212 C213 1.334 . S
C213 H190 0.950 . S
C213 C212 1.334 . S
C213 C214 1.287 . S
C214 C213 1.287 . S
C214 C215 1.524 . S
C214 H233 0.913 . S
C215 H191 0.950 . S
C215 C214 1.524 . S
C215 C216 1.415 . S
C216 H192 0.950 . S
C216 C211 1.363 . S
C216 C215 1.415 . S
C217 H193 0.951 . S
C217 C218 1.366 . S
C217 C219 1.388 . S
C218 C217 1.366 . S
C218 C222 1.385 . S
C219 H194 0.951 . S
C219 C217 1.388 . S
C219 C220 1.366 . S
C220 C219 1.366 . S
C220 C221 1.414 . S
C220 C223 1.499 . S
C221 H195 0.950 . S
C221 C220 1.414 . S
C221 C222 1.374 . S
C222 H196 0.950 . S
C222 C218 1.385 . S
C222 C221 1.374 . S
C223 C220 1.499 . S
C223 C224 1.373 . S
C223 C225 1.389 . S
C224 H197 0.950 . S
C224 C210 1.377 . S
C224 C223 1.373 . S
C225 C209 1.377 . S
C225 C223 1.389 . S
C225 C226 1.524 . S
C226 C225 1.524 . S
C226 C227 1.397 . S
C226 C231 1.363 . S
C227 H198 0.950 . S
C227 C226 1.397 . S
C227 C228 1.334 . S
C228 H199 0.950 . S
C228 C227 1.334 . S
C228 C229 1.287 . S
C229 C228 1.287 . S
C229 C230 1.524 . S
C229 H232 0.999 . S
C230 H200 0.950 . S
C230 C229 1.524 . S
C230 C231 1.415 . S
C231 H201 0.950 . S
C231 C226 1.363 . S
C231 C230 1.415 . S
H232 C229 0.999 . S
H233 C214 0.913 . S
H234 C252 0.951 . S
H235 C254 0.951 . S
H236 C256 0.950 . S
H237 C257 0.950 . S
H238 C259 0.950 . S
H239 C262 0.950 . S
H240 C263 0.950 . S
H241 C265 0.950 . S
H242 C266 0.950 . S
H243 C267 0.951 . S
H244 C269 0.951 . S
H245 C271 0.950 . S
H246 C272 0.950 . S
H247 C274 0.950 . S
H248 C277 0.950 . S
H249 C278 0.950 . S
H250 C280 0.950 . S
H251 C281 0.950 . S
C252 H234 0.951 . S
C252 C253 1.366 . S
C252 C254 1.388 . S
C253 C252 1.366 . S
C253 C257 1.385 . S
C254 H235 0.951 . S
C254 C252 1.388 . S
C254 C255 1.366 . S
C255 C254 1.366 . S
C255 C256 1.414 . S
C255 C258 1.499 . S
C256 H236 0.950 . S
C256 C255 1.414 . S
C256 C257 1.374 . S
C257 H237 0.950 . S
C257 C253 1.385 . S
C257 C256 1.374 . S
C258 C255 1.499 . S
C258 C259 1.373 . S
C258 C260 1.389 . S
C259 H238 0.950 . S
C259 C258 1.373 . S
C259 C275 1.377 . S
C260 C258 1.389 . S
C260 C261 1.524 . S
C260 C274 1.377 . S
C261 C260 1.524 . S
C261 C262 1.397 . S
C261 C266 1.363 . S
C262 H239 0.950 . S
C262 C261 1.397 . S
C262 C263 1.334 . S
C263 H240 0.950 . S
C263 C262 1.334 . S
C263 C264 1.287 . S
C264 C263 1.287 . S
C264 C265 1.524 . S
C264 H283 0.913 . S
C265 H241 0.950 . S
C265 C264 1.524 . S
C265 C266 1.415 . S
C266 H242 0.950 . S
C266 C261 1.363 . S
C266 C265 1.415 . S
C267 H243 0.951 . S
C267 C268 1.366 . S
C267 C269 1.388 . S
C268 C267 1.366 . S
C268 C272 1.385 . S
C269 H244 0.951 . S
C269 C267 1.388 . S
C269 C270 1.366 . S
C270 C269 1.366 . S
C270 C271 1.414 . S
C270 C273 1.499 . S
C271 H245 0.950 . S
C271 C270 1.414 . S
C271 C272 1.374 . S
C272 H246 0.950 . S
C272 C268 1.385 . S
C272 C271 1.374 . S
C273 C270 1.499 . S
C273 C274 1.373 . S
C273 C275 1.389 . S
C274 H247 0.950 . S
C274 C260 1.377 . S
C274 C273 1.373 . S
C275 C259 1.377 . S
C275 C273 1.389 . S
C275 C276 1.524 . S
C276 C275 1.524 . S
C276 C277 1.397 1_565 S
C276 C281 1.363 . S
C277 H248 0.950 . S
C277 C276 1.397 1_545 S
C277 C278 1.334 . S
C278 H249 0.950 . S
C278 C277 1.334 . S
C278 C279 1.287 . S
C279 C278 1.287 . S
C279 C280 1.524 . S
C279 H282 0.999 . S
C280 H250 0.950 . S
C280 C279 1.524 . S
C280 C281 1.415 1_545 S
C281 H251 0.950 . S
C281 C276 1.363 . S
C281 C280 1.415 1_565 S
H282 C279 0.999 . S
H283 C264 0.913 . S
H284 C302 0.951 . S
H285 C304 0.951 . S
H286 C306 0.950 . S
H287 C307 0.950 . S
H288 C309 0.950 . S
H289 C312 0.950 . S
H290 C313 0.950 . S
H291 C315 0.950 . S
H292 C316 0.950 . S
H293 C317 0.951 . S
H294 C319 0.951 . S
H295 C321 0.950 . S
H296 C322 0.950 . S
H297 C324 0.950 . S
H298 C327 0.950 . S
H299 C328 0.950 . S
H300 C330 0.950 . S
H301 C331 0.950 . S
C302 H284 0.951 . S
C302 C303 1.366 . S
C302 C304 1.388 . S
C303 C302 1.366 . S
C303 C307 1.385 . S
C304 H285 0.951 . S
C304 C302 1.388 . S
C304 C305 1.366 . S
C305 C304 1.366 . S
C305 C306 1.414 . S
C305 C308 1.499 . S
C306 H286 0.950 . S
C306 C305 1.414 . S
C306 C307 1.374 . S
C307 H287 0.950 . S
C307 C303 1.385 . S
C307 C306 1.374 . S
C308 C305 1.499 . S
C308 C309 1.373 . S
C308 C310 1.389 . S
C309 H288 0.950 . S
C309 C308 1.373 . S
C309 C325 1.377 . S
C310 C308 1.389 . S
C310 C311 1.524 . S
C310 C324 1.377 . S
C311 C310 1.524 . S
C311 C312 1.397 . S
C311 C316 1.363 . S
C312 H289 0.950 . S
C312 C311 1.397 . S
C312 C313 1.334 . S
C313 H290 0.950 . S
C313 C312 1.334 . S
C313 C314 1.287 . S
C314 C313 1.287 . S
C314 C315 1.524 . S
C314 H333 0.913 . S
C315 H291 0.950 . S
C315 C314 1.524 . S
C315 C316 1.415 . S
C316 H292 0.950 . S
C316 C311 1.363 . S
C316 C315 1.415 . S
C317 H293 0.951 . S
C317 C318 1.366 . S
C317 C319 1.388 . S
C318 C317 1.366 . S
C318 C322 1.385 . S
C319 H294 0.951 . S
C319 C317 1.388 . S
C319 C320 1.366 . S
C320 C319 1.366 . S
C320 C321 1.414 . S
C320 C323 1.499 . S
C321 H295 0.950 . S
C321 C320 1.414 . S
C321 C322 1.374 . S
C322 H296 0.950 . S
C322 C318 1.385 . S
C322 C321 1.374 . S
C323 C320 1.499 . S
C323 C324 1.373 . S
C323 C325 1.389 . S
C324 H297 0.950 . S
C324 C310 1.377 . S
C324 C323 1.373 . S
C325 C309 1.377 . S
C325 C323 1.389 . S
C325 C326 1.524 . S
C326 C325 1.524 . S
C326 C327 1.397 . S
C326 C331 1.363 . S
C327 H298 0.950 . S
C327 C326 1.397 . S
C327 C328 1.334 . S
C328 H299 0.950 . S
C328 C327 1.334 . S
C328 C329 1.287 . S
C329 C328 1.287 . S
C329 C330 1.524 . S
C329 H332 0.999 . S
C330 H300 0.950 . S
C330 C329 1.524 . S
C330 C331 1.415 . S
C331 H301 0.950 . S
C331 C326 1.363 . S
C331 C330 1.415 . S
H332 C329 0.999 . S
H333 C314 0.913 . S
H334 C352 0.951 . S
H335 C354 0.951 . S
H336 C356 0.950 . S
H337 C357 0.950 . S
H338 C359 0.950 . S
H339 C362 0.950 . S
H340 C363 0.950 . S
H341 C365 0.950 . S
H342 C366 0.950 . S
H343 C367 0.951 . S
H344 C369 0.951 . S
H345 C371 0.950 . S
H346 C372 0.950 . S
H347 C374 0.950 . S
H348 C377 0.950 . S
H349 C378 0.950 . S
H350 C380 0.950 . S
H351 C381 0.950 . S
C352 H334 0.951 . S
C352 C353 1.366 . S
C352 C354 1.388 . S
C353 C352 1.366 . S
C353 C357 1.385 . S
C354 H335 0.951 . S
C354 C352 1.388 . S
C354 C355 1.366 . S
C355 C354 1.366 . S
C355 C356 1.414 . S
C355 C358 1.499 . S
C356 H336 0.950 . S
C356 C355 1.414 . S
C356 C357 1.374 . S
C357 H337 0.950 . S
C357 C353 1.385 . S
C357 C356 1.374 . S
C358 C355 1.499 . S
C358 C359 1.373 . S
C358 C360 1.389 . S
C359 H338 0.950 . S
C359 C358 1.373 . S
C359 C375 1.377 . S
C360 C358 1.389 . S
C360 C361 1.524 . S
C360 C374 1.377 . S
C361 C360 1.524 . S
C361 C362 1.397 . S
C361 C366 1.363 . S
C362 H339 0.950 . S
C362 C361 1.397 . S
C362 C363 1.334 . S
C363 H340 0.950 . S
C363 C362 1.334 . S
C363 C364 1.287 1_655 S
C364 C363 1.287 1_455 S
C364 C365 1.524 . S
C364 H383 0.913 . S
C365 H341 0.950 . S
C365 C364 1.524 . S
C365 C366 1.415 1_455 S
C366 H342 0.950 . S
C366 C361 1.363 . S
C366 C365 1.415 1_655 S
C367 H343 0.951 . S
C367 C368 1.366 . S
C367 C369 1.388 . S
C368 C367 1.366 . S
C368 C372 1.385 . S
C369 H344 0.951 . S
C369 C367 1.388 . S
C369 C370 1.366 . S
C370 C369 1.366 . S
C370 C371 1.414 . S
C370 C373 1.499 . S
C371 H345 0.950 . S
C371 C370 1.414 . S
C371 C372 1.374 . S
C372 H346 0.950 . S
C372 C368 1.385 . S
C372 C371 1.374 . S
C373 C370 1.499 . S
C373 C374 1.373 . S
C373 C375 1.389 . S
C374 H347 0.950 . S
C374 C360 1.377 . S
C374 C373 1.373 . S
C375 C359 1.377 . S
C375 C373 1.389 . S
C375 C376 1.524 . S
C376 C375 1.524 . S
C376 C377 1.397 . S
C376 C381 1.363 . S
C377 H348 0.950 . S
C377 C376 1.397 . S
C377 C378 1.334 . S
C378 H349 0.950 . S
C378 C377 1.334 . S
C378 C379 1.287 . S
C379 C378 1.287 . S
C379 C380 1.524 . S
C379 H382 0.999 . S
C380 H350 0.950 . S
C380 C379 1.524 . S
C380 C381 1.415 . S
C381 H351 0.950 . S
C381 C376 1.363 . S
C381 C380 1.415 . S
H382 C379 0.999 . S
H383 C364 0.913 . S
H384 C402 0.951 . S
H385 C404 0.951 . S
H386 C406 0.950 . S
H387 C407 0.950 . S
H388 C409 0.950 . S
H389 C412 0.950 . S
H390 C413 0.950 . S
H391 C415 0.950 . S
H392 C416 0.950 . S
H393 C417 0.951 . S
H394 C419 0.951 . S
H395 C421 0.950 . S
H396 C422 0.950 . S
H397 C424 0.950 . S
H398 C427 0.950 . S
H399 C428 0.950 . S
H400 C430 0.950 . S
H401 C431 0.950 . S
C402 H384 0.951 . S
C402 C403 1.366 . S
C402 C404 1.388 . S
C403 C402 1.366 . S
C403 C407 1.385 . S
C404 H385 0.951 . S
C404 C402 1.388 . S
C404 C405 1.366 . S
C405 C404 1.366 . S
C405 C406 1.414 . S
C405 C408 1.499 . S
C406 H386 0.950 . S
C406 C405 1.414 . S
C406 C407 1.374 . S
C407 H387 0.950 . S
C407 C403 1.385 . S
C407 C406 1.374 . S
C408 C405 1.499 . S
C408 C409 1.373 . S
C408 C410 1.389 . S
C409 H388 0.950 . S
C409 C408 1.373 . S
C409 C425 1.377 . S
C410 C408 1.389 . S
C410 C411 1.524 . S
C410 C424 1.377 . S
C411 C410 1.524 . S
C411 C412 1.397 . S
C411 C416 1.363 . S
C412 H389 0.950 . S
C412 C411 1.397 . S
C412 C413 1.334 . S
C413 H390 0.950 . S
C413 C412 1.334 . S
C413 C414 1.287 . S
C414 C413 1.287 . S
C414 C415 1.524 . S
C414 H433 0.913 . S
C415 H391 0.950 . S
C415 C414 1.524 . S
C415 C416 1.415 . S
C416 H392 0.950 . S
C416 C411 1.363 . S
C416 C415 1.415 . S
C417 H393 0.951 . S
C417 C418 1.366 . S
C417 C419 1.388 . S
C418 C417 1.366 . S
C418 C422 1.385 . S
C419 H394 0.951 . S
C419 C417 1.388 . S
C419 C420 1.366 . S
C420 C419 1.366 . S
C420 C421 1.414 . S
C420 C423 1.499 . S
C421 H395 0.950 . S
C421 C420 1.414 . S
C421 C422 1.374 . S
C422 H396 0.950 . S
C422 C418 1.385 . S
C422 C421 1.374 . S
C423 C420 1.499 . S
C423 C424 1.373 . S
C423 C425 1.389 . S
C424 H397 0.950 . S
C424 C410 1.377 . S
C424 C423 1.373 . S
C425 C409 1.377 . S
C425 C423 1.389 . S
C425 C426 1.524 . S
C426 C425 1.524 . S
C426 C427 1.397 . S
C426 C431 1.363 . S
C427 H398 0.950 . S
C427 C426 1.397 . S
C427 C428 1.334 . S
C428 H399 0.950 . S
C428 C427 1.334 . S
C428 C429 1.287 . S
C429 C428 1.287 . S
C429 C430 1.524 . S
C429 H432 0.999 1_554 S
C430 H400 0.950 . S
C430 C429 1.524 . S
C430 C431 1.415 . S
C431 H401 0.950 . S
C431 C426 1.363 . S
C431 C430 1.415 . S
H432 C429 0.999 1_556 S
H433 C414 0.913 . S
H434 C452 0.951 . S
H435 C454 0.951 . S
H436 C456 0.950 . S
H437 C457 0.950 . S
H438 C459 0.950 . S
H439 C462 0.950 . S
H440 C463 0.950 . S
H441 C465 0.950 . S
H442 C466 0.950 . S
H443 C467 0.951 . S
H444 C469 0.951 . S
H445 C471 0.950 . S
H446 C472 0.950 . S
H447 C474 0.950 . S
H448 C477 0.950 . S
H449 C478 0.950 . S
H450 C480 0.950 . S
H451 C481 0.936 1_565 S
C452 H434 0.951 . S
C452 C453 1.366 . S
C452 C454 1.388 . S
C453 C452 1.366 . S
C453 C457 1.385 . S
C454 H435 0.951 . S
C454 C452 1.388 . S
C454 C455 1.366 . S
C455 C454 1.366 . S
C455 C456 1.414 . S
C455 C458 1.499 . S
C456 H436 0.950 . S
C456 C455 1.414 . S
C456 C457 1.374 . S
C457 H437 0.950 . S
C457 C453 1.385 . S
C457 C456 1.374 . S
C458 C455 1.499 . S
C458 C459 1.373 . S
C458 C460 1.389 . S
C459 H438 0.950 . S
C459 C458 1.373 . S
C459 C475 1.377 . S
C460 C458 1.389 . S
C460 C461 1.524 . S
C460 C474 1.377 . S
C461 C460 1.524 . S
C461 C462 1.397 . S
C461 C466 1.363 . S
C462 H439 0.950 . S
C462 C461 1.397 . S
C462 C463 1.334 . S
C463 H440 0.950 . S
C463 C462 1.334 . S
C463 C464 1.287 . S
C464 C463 1.287 . S
C464 C465 1.524 . S
C464 H483 0.913 . S
C465 H441 0.950 . S
C465 C464 1.524 . S
C465 C466 1.415 . S
C466 H442 0.950 . S
C466 C461 1.363 . S
C466 C465 1.415 . S
C467 H443 0.951 . S
C467 C468 1.366 . S
C467 C469 1.388 . S
C468 C467 1.366 . S
C468 C472 1.385 . S
C469 H444 0.951 . S
C469 C467 1.388 . S
C469 C470 1.366 . S
C470 C469 1.366 . S
C470 C471 1.414 . S
C470 C473 1.499 . S
C471 H445 0.950 . S
C471 C470 1.414 . S
C471 C472 1.374 . S
C472 H446 0.950 . S
C472 C468 1.385 . S
C472 C471 1.374 . S
C473 C470 1.499 . S
C473 C474 1.373 . S
C473 C475 1.389 . S
C474 H447 0.950 . S
C474 C460 1.377 . S
C474 C473 1.373 . S
C475 C459 1.377 . S
C475 C473 1.389 . S
C475 C476 1.524 . S
C476 C475 1.524 . S
C476 C477 1.397 1_565 S
C476 C481 1.361 1_565 S
C477 H448 0.950 . S
C477 C476 1.397 1_545 S
C477 C478 1.334 . S
C478 H449 0.950 . S
C478 C477 1.334 . S
C478 C479 1.287 . S
C479 C478 1.287 . S
C479 C480 1.524 . S
C479 H482 0.999 . S
C480 H450 0.950 . S
C480 C479 1.524 . S
C480 C481 1.431 . S
C481 H451 0.936 1_545 S
C481 C476 1.361 1_545 S
C481 C480 1.431 . S
H482 C479 0.999 . S
H483 C464 0.913 . S
H484 C502 0.951 . S
H485 C504 0.951 . S
H486 C506 0.950 . S
H487 C507 0.950 . S
H488 C509 0.950 . S
H489 C512 0.950 . S
H490 C513 0.950 . S
H491 C515 0.950 . S
H492 C516 0.950 . S
H493 C517 0.951 1_554 S
H494 C519 0.951 . S
H495 C521 0.950 . S
H496 C522 0.950 . S
H497 C524 0.950 . S
H498 C527 0.950 . S
H499 C528 0.950 . S
H500 C530 0.950 . S
H501 C531 0.951 . S
C502 H484 0.951 . S
C502 C503 1.366 . S
C502 C504 1.388 . S
C503 C502 1.366 . S
C503 C507 1.385 . S
C504 H485 0.951 . S
C504 C502 1.388 . S
C504 C505 1.366 . S
C505 C504 1.366 . S
C505 C506 1.414 . S
C505 C508 1.499 . S
C506 H486 0.950 . S
C506 C505 1.414 . S
C506 C507 1.374 . S
C507 H487 0.950 . S
C507 C503 1.385 . S
C507 C506 1.374 . S
C508 C505 1.499 . S
C508 C509 1.373 . S
C508 C510 1.389 . S
C509 H488 0.950 . S
C509 C508 1.373 . S
C509 C525 1.377 . S
C510 C508 1.389 . S
C510 C511 1.524 . S
C510 C524 1.377 . S
C511 C510 1.524 . S
C511 C512 1.397 . S
C511 C516 1.363 . S
C512 H489 0.950 . S
C512 C511 1.397 . S
C512 C513 1.334 . S
C513 H490 0.950 . S
C513 C512 1.334 . S
C513 C514 1.287 . S
C514 C513 1.287 . S
C514 C515 1.524 . S
C514 H533 0.913 . S
C515 H491 0.950 . S
C515 C514 1.524 . S
C515 C516 1.415 . S
C516 H492 0.950 . S
C516 C511 1.363 . S
C516 C515 1.415 . S
C517 H493 0.951 1_556 S
C517 C518 1.366 . S
C517 C519 1.388 . S
C518 C517 1.366 . S
C518 C522 1.385 . S
C519 H494 0.951 . S
C519 C517 1.388 . S
C519 C520 1.366 . S
C520 C519 1.366 . S
C520 C521 1.414 . S
C520 C523 1.499 . S
C521 H495 0.950 . S
C521 C520 1.414 . S
C521 C522 1.374 . S
C522 H496 0.950 . S
C522 C518 1.385 . S
C522 C521 1.374 . S
C523 C520 1.499 . S
C523 C524 1.373 . S
C523 C525 1.389 . S
C524 H497 0.950 . S
C524 C510 1.377 . S
C524 C523 1.373 . S
C525 C509 1.377 . S
C525 C523 1.389 . S
C525 C526 1.524 . S
C526 C525 1.524 . S
C526 C527 1.397 . S
C526 C531 1.366 . S
C527 H498 0.950 . S
C527 C526 1.397 . S
C527 C528 1.334 1_556 S
C528 H499 0.950 . S
C528 C527 1.334 1_554 S
C528 C529 1.287 . S
C529 C528 1.287 . S
C529 C530 1.524 . S
C529 H532 0.999 . S
C530 H500 0.950 . S
C530 C529 1.524 . S
C530 C531 1.411 1_554 S
C531 H501 0.951 . S
C531 C526 1.366 . S
C531 C530 1.411 1_556 S
H532 C529 0.999 . S
H533 C514 0.913 . S
H534 C552 0.951 . S
H535 C554 0.951 . S
H536 C556 0.950 . S
H537 C557 0.950 . S
H538 C559 0.950 . S
H539 C562 0.950 . S
H540 C563 0.950 . S
H541 C565 0.950 . S
H542 C566 0.950 . S
H543 C567 0.951 . S
H544 C569 0.951 . S
H545 C571 0.950 . S
H546 C572 0.950 . S
H547 C574 0.950 . S
H548 C577 0.950 . S
H549 C578 0.950 . S
H550 C580 0.950 . S
H551 C581 0.950 . S
C552 H534 0.951 . S
C552 C553 1.366 . S
C552 C554 1.388 . S
C553 C552 1.366 . S
C553 C557 1.385 . S
C554 H535 0.951 . S
C554 C552 1.388 . S
C554 C555 1.366 . S
C555 C554 1.366 . S
C555 C556 1.414 . S
C555 C558 1.499 . S
C556 H536 0.950 . S
C556 C555 1.414 . S
C556 C557 1.374 . S
C557 H537 0.950 . S
C557 C553 1.385 . S
C557 C556 1.374 . S
C558 C555 1.499 . S
C558 C559 1.373 . S
C558 C560 1.389 . S
C559 H538 0.950 . S
C559 C558 1.373 . S
C559 C575 1.377 . S
C560 C558 1.389 . S
C560 C561 1.524 . S
C560 C574 1.377 . S
C561 C560 1.524 . S
C561 C562 1.397 . S
C561 C566 1.363 . S
C562 H539 0.950 . S
C562 C561 1.397 . S
C562 C563 1.334 . S
C563 H540 0.950 . S
C563 C562 1.334 . S
C563 C564 1.287 . S
C564 C563 1.287 . S
C564 C565 1.524 . S
C564 H583 0.913 . S
C565 H541 0.950 . S
C565 C564 1.524 . S
C565 C566 1.415 . S
C566 H542 0.950 . S
C566 C561 1.363 . S
C566 C565 1.415 . S
C567 H543 0.951 . S
C567 C568 1.366 . S
C567 C569 1.388 . S
C568 C567 1.366 . S
C568 C572 1.385 . S
C569 H544 0.951 . S
C569 C567 1.388 . S
C569 C570 1.366 . S
C570 C569 1.366 . S
C570 C571 1.414 . S
C570 C573 1.499 . S
C571 H545 0.950 . S
C571 C570 1.414 . S
C571 C572 1.374 . S
C572 H546 0.950 . S
C572 C568 1.385 . S
C572 C571 1.374 . S
C573 C570 1.499 . S
C573 C574 1.373 . S
C573 C575 1.389 . S
C574 H547 0.950 . S
C574 C560 1.377 . S
C574 C573 1.373 . S
C575 C559 1.377 . S
C575 C573 1.389 . S
C575 C576 1.524 . S
C576 C575 1.524 . S
C576 C577 1.397 . S
C576 C581 1.363 . S
C577 H548 0.950 . S
C577 C576 1.397 . S
C577 C578 1.334 . S
C578 H549 0.950 . S
C578 C577 1.334 . S
C578 C579 1.287 . S
C579 C578 1.287 . S
C579 C580 1.524 . S
C579 H582 0.999 . S
C580 H550 0.950 . S
C580 C579 1.524 . S
C580 C581 1.415 . S
C581 H551 0.950 . S
C581 C576 1.363 . S
C581 C580 1.415 . S
H582 C579 0.999 . S
H583 C564 0.913 . S
H584 C602 0.951 . S
H585 C604 0.951 . S
H586 C606 0.950 . S
H587 C607 0.950 . S
H588 C609 0.950 . S
H589 C612 0.950 . S
H590 C613 0.950 . S
H591 C615 0.950 . S
H592 C616 0.950 . S
H593 C617 0.951 . S
H594 C619 0.951 . S
H595 C621 0.950 . S
H596 C622 0.950 . S
H597 C624 0.950 . S
H598 C627 0.950 . S
H599 C628 0.950 . S
H600 C630 0.950 . S
H601 C631 0.950 . S
C602 H584 0.951 . S
C602 C603 1.366 . S
C602 C604 1.388 . S
C603 C602 1.366 . S
C603 C607 1.385 . S
C604 H585 0.951 . S
C604 C602 1.388 . S
C604 C605 1.366 . S
C605 C604 1.366 . S
C605 C606 1.414 . S
C605 C608 1.499 . S
C606 H586 0.950 . S
C606 C605 1.414 . S
C606 C607 1.374 . S
C607 H587 0.950 . S
C607 C603 1.385 . S
C607 C606 1.374 . S
C608 C605 1.499 . S
C608 C609 1.373 . S
C608 C610 1.389 . S
C609 H588 0.950 . S
C609 C608 1.373 . S
C609 C625 1.377 . S
C610 C608 1.389 . S
C610 C611 1.524 . S
C610 C624 1.377 . S
C611 C610 1.524 . S
C611 C612 1.397 . S
C611 C616 1.363 . S
C612 H589 0.950 . S
C612 C611 1.397 . S
C612 C613 1.334 . S
C613 H590 0.950 . S
C613 C612 1.334 . S
C613 C614 1.287 . S
C614 C613 1.287 . S
C614 C615 1.524 . S
C614 H633 0.913 . S
C615 H591 0.950 . S
C615 C614 1.524 . S
C615 C616 1.415 . S
C616 H592 0.950 . S
C616 C611 1.363 . S
C616 C615 1.415 . S
C617 H593 0.951 . S
C617 C618 1.366 . S
C617 C619 1.388 . S
C618 C617 1.366 . S
C618 C622 1.385 . S
C619 H594 0.951 . S
C619 C617 1.388 . S
C619 C620 1.366 . S
C620 C619 1.366 . S
C620 C621 1.414 . S
C620 C623 1.499 . S
C621 H595 0.950 . S
C621 C620 1.414 . S
C621 C622 1.374 . S
C622 H596 0.950 . S
C622 C618 1.385 . S
C622 C621 1.374 . S
C623 C620 1.499 . S
C623 C624 1.373 . S
C623 C625 1.389 . S
C624 H597 0.950 . S
C624 C610 1.377 . S
C624 C623 1.373 . S
C625 C609 1.377 . S
C625 C623 1.389 . S
C625 C626 1.524 . S
C626 C625 1.524 . S
C626 C627 1.397 . S
C626 C631 1.363 . S
C627 H598 0.950 . S
C627 C626 1.397 . S
C627 C628 1.334 . S
C628 H599 0.950 . S
C628 C627 1.334 . S
C628 C629 1.287 . S
C629 C628 1.287 . S
C629 C630 1.524 . S
C629 H632 0.999 . S
C630 H600 0.950 . S
C630 C629 1.524 . S
C630 C631 1.415 . S
C631 H601 0.950 . S
C631 C626 1.363 . S
C631 C630 1.415 . S
H632 C629 0.999 . S
H633 C614 0.913 . S
H634 C652 0.951 . S
H635 C654 0.951 . S
H636 C656 0.950 . S
H637 C657 0.950 . S
H638 C659 0.950 . S
H639 C662 0.950 . S
H640 C663 0.950 . S
H641 C665 0.950 . S
H642 C666 0.950 . S
H643 C667 0.951 . S
H644 C669 0.951 . S
H645 C671 0.950 . S
H646 C672 0.950 1_554 S
H647 C674 0.950 . S
H648 C677 0.950 . S
H649 C678 0.950 . S
H650 C680 0.950 . S
H651 C681 0.950 . S
C652 H634 0.951 . S
C652 C653 1.366 . S
C652 C654 1.388 . S
C653 C652 1.366 . S
C653 C657 1.385 . S
C654 H635 0.951 . S
C654 C652 1.388 . S
C654 C655 1.366 . S
C655 C654 1.366 . S
C655 C656 1.414 . S
C655 C658 1.499 . S
C656 H636 0.950 . S
C656 C655 1.414 . S
C656 C657 1.374 . S
C657 H637 0.950 . S
C657 C653 1.385 . S
C657 C656 1.374 . S
C658 C655 1.499 . S
C658 C659 1.373 . S
C658 C660 1.389 . S
C659 H638 0.950 . S
C659 C658 1.373 . S
C659 C675 1.377 . S
C660 C658 1.389 . S
C660 C661 1.524 . S
C660 C674 1.377 . S
C661 C660 1.524 . S
C661 C662 1.397 . S
C661 C666 1.363 . S
C662 H639 0.950 . S
C662 C661 1.397 . S
C662 C663 1.334 . S
C663 H640 0.950 . S
C663 C662 1.334 . S
C663 C664 1.287 . S
C664 C663 1.287 . S
C664 C665 1.524 . S
C664 H683 0.913 . S
C665 H641 0.950 . S
C665 C664 1.524 . S
C665 C666 1.415 . S
C666 H642 0.950 . S
C666 C661 1.363 . S
C666 C665 1.415 . S
C667 H643 0.951 . S
C667 C668 1.366 . S
C667 C669 1.388 . S
C668 C667 1.366 . S
C668 C672 1.385 . S
C669 H644 0.951 . S
C669 C667 1.388 . S
C669 C670 1.366 . S
C670 C669 1.366 . S
C670 C671 1.414 . S
C670 C673 1.499 . S
C671 H645 0.950 . S
C671 C670 1.414 . S
C671 C672 1.374 . S
C672 H646 0.950 1_556 S
C672 C668 1.385 . S
C672 C671 1.374 . S
C673 C670 1.499 . S
C673 C674 1.373 . S
C673 C675 1.389 . S
C674 H647 0.950 . S
C674 C660 1.377 . S
C674 C673 1.373 . S
C675 C659 1.377 . S
C675 C673 1.389 . S
C675 C676 1.524 . S
C676 C675 1.524 . S
C676 C677 1.397 1_556 S
C676 C681 1.363 . S
C677 H648 0.950 . S
C677 C676 1.397 1_554 S
C677 C678 1.334 . S
C678 H649 0.950 . S
C678 C677 1.334 . S
C678 C679 1.287 . S
C679 C678 1.287 . S
C679 C680 1.524 1_554 S
C679 H682 0.999 . S
C680 H650 0.950 . S
C680 C679 1.524 1_556 S
C680 C681 1.415 . S
C681 H651 0.950 . S
C681 C676 1.363 . S
C681 C680 1.415 . S
H682 C679 0.999 . S
H683 C664 0.913 . S
H684 C702 0.951 . S
H685 C704 0.951 . S
H686 C706 0.950 . S
H687 C707 0.950 . S
H688 C709 0.950 . S
H689 C712 0.950 . S
H690 C713 0.950 . S
H691 C715 0.950 . S
H692 C716 0.950 . S
H693 C717 0.951 . S
H694 C719 0.951 . S
H695 C721 0.950 . S
H696 C722 0.950 . S
H697 C724 0.950 . S
H698 C727 0.950 . S
H699 C728 0.950 . S
H700 C730 0.950 . S
H701 C731 0.950 . S
C702 H684 0.951 . S
C702 C703 1.366 . S
C702 C704 1.388 . S
C703 C702 1.366 . S
C703 C707 1.385 . S
C704 H685 0.951 . S
C704 C702 1.388 . S
C704 C705 1.366 . S
C705 C704 1.366 . S
C705 C706 1.414 . S
C705 C708 1.499 . S
C706 H686 0.950 . S
C706 C705 1.414 . S
C706 C707 1.374 . S
C707 H687 0.950 . S
C707 C703 1.385 . S
C707 C706 1.374 . S
C708 C705 1.499 . S
C708 C709 1.373 . S
C708 C710 1.389 . S
C709 H688 0.950 . S
C709 C708 1.373 . S
C709 C725 1.377 . S
C710 C708 1.389 . S
C710 C711 1.524 . S
C710 C724 1.377 . S
C711 C710 1.524 . S
C711 C712 1.397 . S
C711 C716 1.363 . S
C712 H689 0.950 . S
C712 C711 1.397 . S
C712 C713 1.334 . S
C713 H690 0.950 . S
C713 C712 1.334 . S
C713 C714 1.287 . S
C714 C713 1.287 . S
C714 C715 1.524 . S
C714 H733 0.913 . S
C715 H691 0.950 . S
C715 C714 1.524 . S
C715 C716 1.415 . S
C716 H692 0.950 . S
C716 C711 1.363 . S
C716 C715 1.415 . S
C717 H693 0.951 . S
C717 C718 1.366 . S
C717 C719 1.388 . S
C718 C717 1.366 . S
C718 C722 1.385 . S
C719 H694 0.951 . S
C719 C717 1.388 . S
C719 C720 1.366 . S
C720 C719 1.366 . S
C720 C721 1.414 . S
C720 C723 1.499 . S
C721 H695 0.950 . S
C721 C720 1.414 . S
C721 C722 1.374 . S
C722 H696 0.950 . S
C722 C718 1.385 . S
C722 C721 1.374 . S
C723 C720 1.499 . S
C723 C724 1.373 . S
C723 C725 1.389 . S
C724 H697 0.950 . S
C724 C710 1.377 . S
C724 C723 1.373 . S
C725 C709 1.377 . S
C725 C723 1.389 . S
C725 C726 1.524 . S
C726 C725 1.524 . S
C726 C727 1.397 1_655 S
C726 C731 1.363 . S
C727 H698 0.950 . S
C727 C726 1.397 1_455 S
C727 C728 1.334 . S
C728 H699 0.950 . S
C728 C727 1.334 . S
C728 C729 1.287 . S
C729 C728 1.287 . S
C729 C730 1.524 . S
C729 H732 0.999 . S
C730 H700 0.950 . S
C730 C729 1.524 . S
C730 C731 1.415 1_455 S
C731 H701 0.950 . S
C731 C726 1.363 . S
C731 C730 1.415 1_655 S
H732 C729 0.999 . S
H733 C714 0.913 . S
H734 C752 0.951 . S
H735 C754 0.951 . S
H736 C756 0.950 . S
H737 C757 0.950 . S
H738 C759 0.950 . S
H739 C762 0.950 . S
H740 C763 0.950 . S
H741 C765 0.950 . S
H742 C766 0.950 . S
H743 C767 0.951 . S
H744 C769 0.951 . S
H745 C771 0.950 . S
H746 C772 0.950 . S
H747 C774 0.950 . S
H748 C777 0.950 . S
H749 C778 0.950 . S
H750 C780 0.950 . S
H751 C781 0.950 . S
C752 H734 0.951 . S
C752 C753 1.366 . S
C752 C754 1.388 . S
C753 C752 1.366 . S
C753 C757 1.385 . S
C754 H735 0.951 . S
C754 C752 1.388 . S
C754 C755 1.366 . S
C755 C754 1.366 . S
C755 C756 1.414 . S
C755 C758 1.499 . S
C756 H736 0.950 . S
C756 C755 1.414 . S
C756 C757 1.374 . S
C757 H737 0.950 . S
C757 C753 1.385 . S
C757 C756 1.374 . S
C758 C755 1.499 . S
C758 C759 1.373 . S
C758 C760 1.389 . S
C759 H738 0.950 . S
C759 C758 1.373 . S
C759 C775 1.377 . S
C760 C758 1.389 . S
C760 C761 1.524 . S
C760 C774 1.377 . S
C761 C760 1.524 . S
C761 C762 1.397 . S
C761 C766 1.363 . S
C762 H739 0.950 . S
C762 C761 1.397 . S
C762 C763 1.334 . S
C763 H740 0.950 . S
C763 C762 1.334 . S
C763 C764 1.287 . S
C764 C763 1.287 . S
C764 C765 1.524 . S
C764 H783 0.913 . S
C765 H741 0.950 . S
C765 C764 1.524 . S
C765 C766 1.415 . S
C766 H742 0.950 . S
C766 C761 1.363 . S
C766 C765 1.415 . S
C767 H743 0.951 . S
C767 C768 1.366 . S
C767 C769 1.388 . S
C768 C767 1.366 . S
C768 C772 1.385 . S
C769 H744 0.951 . S
C769 C767 1.388 . S
C769 C770 1.366 . S
C770 C769 1.366 . S
C770 C771 1.414 . S
C770 C773 1.499 . S
C771 H745 0.950 . S
C771 C770 1.414 . S
C771 C772 1.374 . S
C772 H746 0.950 . S
C772 C768 1.385 . S
C772 C771 1.374 . S
C773 C770 1.499 . S
C773 C774 1.373 . S
C773 C775 1.389 . S
C774 H747 0.950 . S
C774 C760 1.377 . S
C774 C773 1.373 . S
C775 C759 1.377 . S
C775 C773 1.389 . S
C775 C776 1.524 . S
C776 C775 1.524 . S
C776 C777 1.397 . S
C776 C781 1.363 . S
C777 H748 0.950 . S
C777 C776 1.397 . S
C777 C778 1.334 . S
C778 H749 0.950 . S
C778 C777 1.334 . S
C778 C779 1.287 . S
C779 C778 1.287 . S
C779 C780 1.524 . S
C779 H782 0.999 . S
C780 H750 0.950 . S
C780 C779 1.524 . S
C780 C781 1.415 . S
C781 H751 0.950 . S
C781 C776 1.363 . S
C781 C780 1.415 . S
H782 C779 0.999 . S
H783 C764 0.913 . S
H784 C802 0.951 . S
H785 C804 0.951 . S
H786 C806 0.950 . S
H787 C807 0.950 . S
H788 C809 0.950 . S
H789 C812 0.950 . S
H790 C813 0.950 . S
H791 C815 0.950 . S
H792 C816 0.950 . S
H793 C817 0.951 . S
H794 C819 0.951 . S
H795 C821 0.950 . S
H796 C822 0.950 . S
H797 C824 0.950 . S
H798 C827 0.950 . S
H799 C828 0.950 . S
H800 C830 0.950 . S
H801 C831 0.950 . S
C802 H784 0.951 . S
C802 C803 1.366 . S
C802 C804 1.388 . S
C803 C802 1.366 . S
C803 C807 1.385 . S
C804 H785 0.951 . S
C804 C802 1.388 . S
C804 C805 1.366 . S
C805 C804 1.366 . S
C805 C806 1.414 . S
C805 C808 1.499 . S
C806 H786 0.950 . S
C806 C805 1.414 . S
C806 C807 1.374 . S
C807 H787 0.950 . S
C807 C803 1.385 . S
C807 C806 1.374 . S
C808 C805 1.499 . S
C808 C809 1.373 . S
C808 C810 1.389 . S
C809 H788 0.950 . S
C809 C808 1.373 . S
C809 C825 1.377 . S
C810 C808 1.389 . S
C810 C811 1.524 . S
C810 C824 1.377 . S
C811 C810 1.524 . S
C811 C812 1.397 . S
C811 C816 1.363 . S
C812 H789 0.950 . S
C812 C811 1.397 . S
C812 C813 1.334 . S
C813 H790 0.950 . S
C813 C812 1.334 . S
C813 C814 1.287 . S
C814 C813 1.287 . S
C814 C815 1.524 . S
C814 H833 0.913 . S
C815 H791 0.950 . S
C815 C814 1.524 . S
C815 C816 1.415 . S
C816 H792 0.950 . S
C816 C811 1.363 . S
C816 C815 1.415 . S
C817 H793 0.951 . S
C817 C818 1.366 . S
C817 C819 1.388 . S
C818 C817 1.366 . S
C818 C822 1.385 . S
C819 H794 0.951 . S
C819 C817 1.388 . S
C819 C820 1.366 . S
C820 C819 1.366 . S
C820 C821 1.414 . S
C820 C823 1.499 . S
C821 H795 0.950 . S
C821 C820 1.414 . S
C821 C822 1.374 . S
C822 H796 0.950 . S
C822 C818 1.385 . S
C822 C821 1.374 . S
C823 C820 1.499 . S
C823 C824 1.373 . S
C823 C825 1.389 . S
C824 H797 0.950 . S
C824 C810 1.377 . S
C824 C823 1.373 . S
C825 C809 1.377 . S
C825 C823 1.389 . S
C825 C826 1.524 . S
C826 C825 1.524 . S
C826 C827 1.397 . S
C826 C831 1.363 . S
C827 H798 0.950 . S
C827 C826 1.397 . S
C827 C828 1.334 . S
C828 H799 0.950 . S
C828 C827 1.334 . S
C828 C829 1.287 . S
C829 C828 1.287 . S
C829 C830 1.524 . S
C829 H832 0.999 . S
C830 H800 0.950 . S
C830 C829 1.524 . S
C830 C831 1.415 . S
C831 H801 0.950 . S
C831 C826 1.363 . S
C831 C830 1.415 . S
H832 C829 0.999 . S
H833 C814 0.913 . S
H834 C852 0.951 . S
H835 C854 0.951 . S
H836 C856 0.950 . S
H837 C857 0.950 . S
H838 C859 0.950 . S
H839 C862 0.950 . S
H840 C863 0.950 . S
H841 C865 0.950 . S
H842 C866 0.950 . S
H843 C867 0.951 . S
H844 C869 0.951 . S
H845 C871 0.950 . S
H846 C872 0.950 . S
H847 C874 0.950 . S
H848 C877 0.950 . S
H849 C878 0.950 . S
H850 C880 0.950 . S
H851 C881 0.950 . S
C852 H834 0.951 . S
C852 C853 1.366 . S
C852 C854 1.388 . S
C853 C852 1.366 . S
C853 C857 1.385 . S
C854 H835 0.951 . S
C854 C852 1.388 . S
C854 C855 1.366 . S
C855 C854 1.366 . S
C855 C856 1.414 . S
C855 C858 1.499 . S
C856 H836 0.950 . S
C856 C855 1.414 . S
C856 C857 1.374 . S
C857 H837 0.950 . S
C857 C853 1.385 . S
C857 C856 1.374 . S
C858 C855 1.499 . S
C858 C859 1.373 . S
C858 C860 1.389 . S
C859 H838 0.950 . S
C859 C858 1.373 . S
C859 C875 1.377 . S
C860 C858 1.389 . S
C860 C861 1.524 . S
C860 C874 1.377 . S
C861 C860 1.524 . S
C861 C862 1.397 . S
C861 C866 1.363 . S
C862 H839 0.950 . S
C862 C861 1.397 . S
C862 C863 1.334 . S
C863 H840 0.950 . S
C863 C862 1.334 . S
C863 C864 1.287 . S
C864 C863 1.287 . S
C864 C865 1.524 . S
C864 H883 0.913 . S
C865 H841 0.950 . S
C865 C864 1.524 . S
C865 C866 1.415 . S
C866 H842 0.950 . S
C866 C861 1.363 . S
C866 C865 1.415 . S
C867 H843 0.951 . S
C867 C868 1.366 . S
C867 C869 1.388 . S
C868 C867 1.366 . S
C868 C872 1.385 . S
C869 H844 0.951 . S
C869 C867 1.388 . S
C869 C870 1.366 . S
C870 C869 1.366 . S
C870 C871 1.414 . S
C870 C873 1.499 . S
C871 H845 0.950 . S
C871 C870 1.414 . S
C871 C872 1.374 . S
C872 H846 0.950 . S
C872 C868 1.385 . S
C872 C871 1.374 . S
C873 C870 1.499 . S
C873 C874 1.373 . S
C873 C875 1.389 . S
C874 H847 0.950 . S
C874 C860 1.377 . S
C874 C873 1.373 . S
C875 C859 1.377 . S
C875 C873 1.389 . S
C875 C876 1.524 . S
C876 C875 1.524 . S
C876 C877 1.397 . S
C876 C881 1.363 . S
C877 H848 0.950 . S
C877 C876 1.397 . S
C877 C878 1.334 . S
C878 H849 0.950 . S
C878 C877 1.334 . S
C878 C879 1.287 . S
C879 C878 1.287 . S
C879 C880 1.524 . S
C879 H882 0.999 . S
C880 H850 0.950 . S
C880 C879 1.524 . S
C880 C881 1.415 . S
C881 H851 0.950 . S
C881 C876 1.363 . S
C881 C880 1.415 . S
H882 C879 0.999 . S
H883 C864 0.913 . S
H884 C902 0.951 . S
H885 C904 0.951 . S
H886 C906 0.950 . S
H887 C907 0.950 . S
H888 C909 0.950 . S
H889 C912 0.950 . S
H890 C913 0.950 . S
H891 C915 0.950 . S
H892 C916 0.950 . S
H893 C917 0.951 . S
H894 C919 0.951 . S
H895 C921 0.950 . S
H896 C922 0.950 . S
H897 C924 0.950 . S
H898 C927 0.950 . S
H899 C928 0.950 . S
H900 C930 0.950 . S
H901 C931 0.950 . S
C902 H884 0.951 . S
C902 C903 1.366 . S
C902 C904 1.388 . S
C903 C902 1.366 . S
C903 C907 1.385 . S
C904 H885 0.951 . S
C904 C902 1.388 . S
C904 C905 1.366 . S
C905 C904 1.366 . S
C905 C906 1.414 . S
C905 C908 1.499 . S
C906 H886 0.950 . S
C906 C905 1.414 . S
C906 C907 1.374 . S
C907 H887 0.950 . S
C907 C903 1.385 . S
C907 C906 1.374 . S
C908 C905 1.499 . S
C908 C909 1.373 . S
C908 C910 1.389 . S
C909 H888 0.950 . S
C909 C908 1.373 . S
C909 C925 1.377 . S
C910 C908 1.389 . S
C910 C911 1.524 . S
C910 C924 1.377 . S
C911 C910 1.524 . S
C911 C912 1.397 . S
C911 C916 1.363 . S
C912 H889 0.950 . S
C912 C911 1.397 . S
C912 C913 1.334 . S
C913 H890 0.950 . S
C913 C912 1.334 . S
C913 C914 1.287 . S
C914 C913 1.287 . S
C914 C915 1.524 . S
C914 H933 0.913 . S
C915 H891 0.950 . S
C915 C914 1.524 . S
C915 C916 1.415 . S
C916 H892 0.950 . S
C916 C911 1.363 . S
C916 C915 1.415 . S
C917 H893 0.951 . S
C917 C918 1.366 . S
C917 C919 1.388 . S
C918 C917 1.366 . S
C918 C922 1.385 . S
C919 H894 0.951 . S
C919 C917 1.388 . S
C919 C920 1.366 . S
C920 C919 1.366 . S
C920 C921 1.414 . S
C920 C923 1.499 . S
C921 H895 0.950 . S
C921 C920 1.414 . S
C921 C922 1.374 . S
C922 H896 0.950 . S
C922 C918 1.385 . S
C922 C921 1.374 . S
C923 C920 1.499 . S
C923 C924 1.373 . S
C923 C925 1.389 . S
C924 H897 0.950 . S
C924 C910 1.377 . S
C924 C923 1.373 . S
C925 C909 1.377 . S
C925 C923 1.389 . S
C925 C926 1.524 . S
C926 C925 1.524 . S
C926 C927 1.397 . S
C926 C931 1.363 . S
C927 H898 0.950 . S
C927 C926 1.397 . S
C927 C928 1.334 . S
C928 H899 0.950 . S
C928 C927 1.334 . S
C928 C929 1.287 . S
C929 C928 1.287 . S
C929 C930 1.524 . S
C929 H932 0.999 . S
C930 H900 0.950 . S
C930 C929 1.524 . S
C930 C931 1.415 . S
C931 H901 0.950 . S
C931 C926 1.363 . S
C931 C930 1.415 . S
H932 C929 0.999 . S
H933 C914 0.913 . S
H934 C952 0.951 . S
H935 C954 0.951 . S
H936 C956 0.950 . S
H937 C957 0.950 . S
H938 C959 0.950 . S
H939 C962 0.950 . S
H940 C963 0.950 . S
H941 C965 0.950 . S
H942 C966 0.950 . S
H943 C967 0.951 . S
H944 C969 0.951 . S
H945 C971 0.950 . S
H946 C972 0.950 . S
H947 C974 0.950 . S
H948 C977 0.950 . S
H949 C978 0.950 . S
H950 C980 0.950 . S
H951 C981 0.950 . S
C952 H934 0.951 . S
C952 C953 1.366 . S
C952 C954 1.388 . S
C953 C952 1.366 . S
C953 C957 1.385 . S
C954 H935 0.951 . S
C954 C952 1.388 . S
C954 C955 1.366 . S
C955 C954 1.366 . S
C955 C956 1.414 . S
C955 C958 1.499 . S
C956 H936 0.950 . S
C956 C955 1.414 . S
C956 C957 1.374 . S
C957 H937 0.950 . S
C957 C953 1.385 . S
C957 C956 1.374 . S
C958 C955 1.499 . S
C958 C959 1.373 . S
C958 C960 1.389 . S
C959 H938 0.950 . S
C959 C958 1.373 . S
C959 C975 1.377 . S
C960 C958 1.389 . S
C960 C961 1.524 . S
C960 C974 1.377 . S
C961 C960 1.524 . S
C961 C962 1.397 . S
C961 C966 1.363 . S
C962 H939 0.950 . S
C962 C961 1.397 . S
C962 C963 1.334 . S
C963 H940 0.950 . S
C963 C962 1.334 . S
C963 C964 1.287 . S
C964 C963 1.287 . S
C964 C965 1.524 . S
C964 H983 0.913 . S
C965 H941 0.950 . S
C965 C964 1.524 . S
C965 C966 1.415 . S
C966 H942 0.950 . S
C966 C961 1.363 . S
C966 C965 1.415 . S
C967 H943 0.951 . S
C967 C968 1.366 . S
C967 C969 1.388 . S
C968 C967 1.366 . S
C968 C972 1.385 . S
C969 H944 0.951 . S
C969 C967 1.388 . S
C969 C970 1.366 . S
C970 C969 1.366 . S
C970 C971 1.414 . S
C970 C973 1.499 . S
C971 H945 0.950 . S
C971 C970 1.414 . S
C971 C972 1.374 . S
C972 H946 0.950 . S
C972 C968 1.385 . S
C972 C971 1.374 . S
C973 C970 1.499 . S
C973 C974 1.373 . S
C973 C975 1.389 . S
C974 H947 0.950 . S
C974 C960 1.377 . S
C974 C973 1.373 . S
C975 C959 1.377 . S
C975 C973 1.389 . S
C975 C976 1.524 . S
C976 C975 1.524 . S
C976 C977 1.397 . S
C976 C981 1.363 . S
C977 H948 0.950 . S
C977 C976 1.397 . S
C977 C978 1.334 . S
C978 H949 0.950 . S
C978 C977 1.334 . S
C978 C979 1.287 . S
C979 C978 1.287 . S
C979 C980 1.524 . S
C979 H982 0.999 . S
C980 H950 0.950 . S
C980 C979 1.524 . S
C980 C981 1.415 . S
C981 H951 0.950 . S
C981 C976 1.363 . S
C981 C980 1.415 . S
H982 C979 0.999 . S
H983 C964 0.913 . S
H984 C1002 0.951 . S
H985 C1004 0.951 . S
H986 C1006 0.950 . S
H987 C1007 0.950 . S
H988 C1009 0.950 . S
H989 C1012 0.950 . S
H990 C1013 0.950 . S
H991 C1015 0.950 1_554 S
H992 C1016 0.950 . S
H993 C1017 0.951 . S
H994 C1019 0.951 . S
H995 C1021 0.950 . S
H996 C1022 0.950 1_554 S
H997 C1024 0.950 . S
H998 C1027 0.950 . S
H999 C1028 0.950 . S
H1000 C1030 0.950 . S
H1001 C1031 0.950 . S
C1002 H984 0.951 . S
C1002 C1003 1.366 . S
C1002 C1004 1.388 . S
C1003 C1002 1.366 . S
C1003 C1007 1.385 . S
C1004 H985 0.951 . S
C1004 C1002 1.388 . S
C1004 C1005 1.366 . S
C1005 C1004 1.366 . S
C1005 C1006 1.414 . S
C1005 C1008 1.499 . S
C1006 H986 0.950 . S
C1006 C1005 1.414 . S
C1006 C1007 1.374 . S
C1007 H987 0.950 . S
C1007 C1003 1.385 . S
C1007 C1006 1.374 . S
C1008 C1005 1.499 . S
C1008 C1009 1.373 . S
C1008 C1010 1.389 . S
C1009 H988 0.950 . S
C1009 C1008 1.373 . S
C1009 C1025 1.377 . S
C1010 C1008 1.389 . S
C1010 C1011 1.524 . S
C1010 C1024 1.377 . S
C1011 C1010 1.524 . S
C1011 C1012 1.397 . S
C1011 C1016 1.363 . S
C1012 H989 0.950 . S
C1012 C1011 1.397 . S
C1012 C1013 1.334 . S
C1013 H990 0.950 . S
C1013 C1012 1.334 . S
C1013 C1014 1.287 . S
C1014 C1013 1.287 . S
C1014 C1015 1.524 . S
C1014 H1033 0.913 . S
C1015 H991 0.950 1_556 S
C1015 C1014 1.524 . S
C1015 C1016 1.415 . S
C1016 H992 0.950 . S
C1016 C1011 1.363 . S
C1016 C1015 1.415 . S
C1017 H993 0.951 . S
C1017 C1018 1.366 . S
C1017 C1019 1.388 . S
C1018 C1017 1.366 . S
C1018 C1022 1.385 . S
C1019 H994 0.951 . S
C1019 C1017 1.388 . S
C1019 C1020 1.366 . S
C1020 C1019 1.366 . S
C1020 C1021 1.414 . S
C1020 C1023 1.499 . S
C1021 H995 0.950 . S
C1021 C1020 1.414 . S
C1021 C1022 1.374 . S
C1022 H996 0.950 1_556 S
C1022 C1018 1.385 . S
C1022 C1021 1.374 . S
C1023 C1020 1.499 . S
C1023 C1024 1.373 . S
C1023 C1025 1.389 . S
C1024 H997 0.950 . S
C1024 C1010 1.377 . S
C1024 C1023 1.373 . S
C1025 C1009 1.377 . S
C1025 C1023 1.389 . S
C1025 C1026 1.524 . S
C1026 C1025 1.524 . S
C1026 C1027 1.397 . S
C1026 C1031 1.363 . S
C1027 H998 0.950 . S
C1027 C1026 1.397 . S
C1027 C1028 1.334 1_565 S
C1028 H999 0.950 . S
C1028 C1027 1.334 1_545 S
C1028 C1029 1.287 . S
C1029 C1028 1.287 . S
C1029 C1030 1.524 1_545 S
C1029 H1032 0.999 . S
C1030 H1000 0.950 . S
C1030 C1029 1.524 1_565 S
C1030 C1031 1.415 . S
C1031 H1001 0.950 . S
C1031 C1026 1.363 . S
C1031 C1030 1.415 . S
H1032 C1029 0.999 . S
H1033 C1014 0.913 . S
H1034 C1052 0.951 . S
H1035 C1054 0.951 . S
H1036 C1056 0.950 . S
H1037 C1057 0.950 . S
H1038 C1059 0.950 . S
H1039 C1062 0.950 . S
H1040 C1063 0.950 . S
H1041 C1065 0.950 . S
H1042 C1066 0.950 . S
H1043 C1067 0.951 . S
H1044 C1069 0.951 . S
H1045 C1071 0.950 . S
H1046 C1072 0.950 . S
H1047 C1074 0.950 . S
H1048 C1077 0.950 . S
H1049 C1078 0.950 . S
H1050 C1080 0.950 . S
H1051 C1081 0.950 . S
C1052 H1034 0.951 . S
C1052 C1053 1.366 . S
C1052 C1054 1.388 . S
C1053 C1052 1.366 . S
C1053 C1057 1.385 . S
C1054 H1035 0.951 . S
C1054 C1052 1.388 . S
C1054 C1055 1.366 . S
C1055 C1054 1.366 . S
C1055 C1056 1.414 . S
C1055 C1058 1.499 . S
C1056 H1036 0.950 . S
C1056 C1055 1.414 . S
C1056 C1057 1.374 . S
C1057 H1037 0.950 . S
C1057 C1053 1.385 . S
C1057 C1056 1.374 . S
C1058 C1055 1.499 . S
C1058 C1059 1.373 . S
C1058 C1060 1.389 . S
C1059 H1038 0.950 . S
C1059 C1058 1.373 . S
C1059 C1075 1.377 . S
C1060 C1058 1.389 . S
C1060 C1061 1.524 . S
C1060 C1074 1.377 . S
C1061 C1060 1.524 . S
C1061 C1062 1.397 . S
C1061 C1066 1.363 . S
C1062 H1039 0.950 . S
C1062 C1061 1.397 . S
C1062 C1063 1.334 . S
C1063 H1040 0.950 . S
C1063 C1062 1.334 . S
C1063 C1064 1.287 . S
C1064 C1063 1.287 . S
C1064 C1065 1.524 . S
C1064 H1083 0.913 . S
C1065 H1041 0.950 . S
C1065 C1064 1.524 . S
C1065 C1066 1.415 . S
C1066 H1042 0.950 . S
C1066 C1061 1.363 . S
C1066 C1065 1.415 . S
C1067 H1043 0.951 . S
C1067 C1068 1.366 . S
C1067 C1069 1.388 . S
C1068 C1067 1.366 . S
C1068 C1072 1.385 . S
C1069 H1044 0.951 . S
C1069 C1067 1.388 . S
C1069 C1070 1.366 . S
C1070 C1069 1.366 . S
C1070 C1071 1.414 . S
C1070 C1073 1.499 . S
C1071 H1045 0.950 . S
C1071 C1070 1.414 . S
C1071 C1072 1.374 . S
C1072 H1046 0.950 . S
C1072 C1068 1.385 . S
C1072 C1071 1.374 . S
C1073 C1070 1.499 . S
C1073 C1074 1.373 . S
C1073 C1075 1.389 . S
C1074 H1047 0.950 . S
C1074 C1060 1.377 . S
C1074 C1073 1.373 . S
C1075 C1059 1.377 . S
C1075 C1073 1.389 . S
C1075 C1076 1.524 . S
C1076 C1075 1.524 . S
C1076 C1077 1.397 . S
C1076 C1081 1.363 . S
C1077 H1048 0.950 . S
C1077 C1076 1.397 . S
C1077 C1078 1.334 . S
C1078 H1049 0.950 . S
C1078 C1077 1.334 . S
C1078 C1079 1.287 . S
C1079 C1078 1.287 . S
C1079 C1080 1.524 . S
C1079 H1082 0.999 . S
C1080 H1050 0.950 . S
C1080 C1079 1.524 . S
C1080 C1081 1.415 . S
C1081 H1051 0.950 . S
C1081 C1076 1.363 . S
C1081 C1080 1.415 . S
H1082 C1079 0.999 . S
H1083 C1064 0.913 . S
H1084 C1102 0.951 . S
H1085 C1104 0.951 . S
H1086 C1106 0.950 . S
H1087 C1107 0.950 . S
H1088 C1109 0.950 . S
H1089 C1112 0.950 . S
H1090 C1113 0.950 . S
H1091 C1115 0.950 . S
H1092 C1116 0.950 . S
H1093 C1117 0.951 . S
H1094 C1119 0.951 . S
H1095 C1121 0.950 . S
H1096 C1122 0.950 . S
H1097 C1124 0.950 . S
H1098 C1127 0.950 . S
H1099 C1128 0.950 . S
H1100 C1130 0.950 . S
H1101 C1131 0.950 . S
C1102 H1084 0.951 . S
C1102 C1103 1.366 . S
C1102 C1104 1.388 . S
C1103 C1102 1.366 . S
C1103 C1107 1.385 . S
C1104 H1085 0.951 . S
C1104 C1102 1.388 . S
C1104 C1105 1.366 . S
C1105 C1104 1.366 . S
C1105 C1106 1.414 . S
C1105 C1108 1.499 . S
C1106 H1086 0.950 . S
C1106 C1105 1.414 . S
C1106 C1107 1.374 . S
C1107 H1087 0.950 . S
C1107 C1103 1.385 . S
C1107 C1106 1.374 . S
C1108 C1105 1.499 . S
C1108 C1109 1.373 . S
C1108 C1110 1.389 . S
C1109 H1088 0.950 . S
C1109 C1108 1.373 . S
C1109 C1125 1.377 . S
C1110 C1108 1.389 . S
C1110 C1111 1.524 . S
C1110 C1124 1.377 . S
C1111 C1110 1.524 . S
C1111 C1112 1.397 . S
C1111 C1116 1.363 . S
C1112 H1089 0.950 . S
C1112 C1111 1.397 . S
C1112 C1113 1.334 . S
C1113 H1090 0.950 . S
C1113 C1112 1.334 . S
C1113 C1114 1.287 . S
C1114 C1113 1.287 . S
C1114 C1115 1.524 . S
C1114 H1133 0.913 . S
C1115 H1091 0.950 . S
C1115 C1114 1.524 . S
C1115 C1116 1.415 . S
C1116 H1092 0.950 . S
C1116 C1111 1.363 . S
C1116 C1115 1.415 . S
C1117 H1093 0.951 . S
C1117 C1118 1.366 . S
C1117 C1119 1.388 . S
C1118 C1117 1.366 . S
C1118 C1122 1.385 . S
C1119 H1094 0.951 . S
C1119 C1117 1.388 . S
C1119 C1120 1.366 . S
C1120 C1119 1.366 . S
C1120 C1121 1.414 . S
C1120 C1123 1.499 . S
C1121 H1095 0.950 . S
C1121 C1120 1.414 . S
C1121 C1122 1.374 . S
C1122 H1096 0.950 . S
C1122 C1118 1.385 . S
C1122 C1121 1.374 . S
C1123 C1120 1.499 . S
C1123 C1124 1.373 . S
C1123 C1125 1.389 . S
C1124 H1097 0.950 . S
C1124 C1110 1.377 . S
C1124 C1123 1.373 . S
C1125 C1109 1.377 . S
C1125 C1123 1.389 . S
C1125 C1126 1.524 . S
C1126 C1125 1.524 . S
C1126 C1127 1.397 . S
C1126 C1131 1.363 . S
C1127 H1098 0.950 . S
C1127 C1126 1.397 . S
C1127 C1128 1.334 . S
C1128 H1099 0.950 . S
C1128 C1127 1.334 . S
C1128 C1129 1.287 . S
C1129 C1128 1.287 . S
C1129 C1130 1.524 . S
C1129 H1132 0.999 . S
C1130 H1100 0.950 . S
C1130 C1129 1.524 . S
C1130 C1131 1.415 . S
C1131 H1101 0.950 . S
C1131 C1126 1.363 . S
C1131 C1130 1.415 . S
H1132 C1129 0.999 . S
H1133 C1114 0.913 . S
H1134 C1152 0.951 . S
H1135 C1154 0.951 . S
H1136 C1156 0.950 . S
H1137 C1157 0.950 . S
H1138 C1159 0.950 . S
H1139 C1162 0.950 . S
H1140 C1163 0.950 . S
H1141 C1165 0.950 . S
H1142 C1166 0.950 . S
H1143 C1167 0.951 . S
H1144 C1169 0.951 . S
H1145 C1171 0.950 . S
H1146 C1172 0.950 . S
H1147 C1174 0.950 . S
H1148 C1177 0.950 . S
H1149 C1178 0.950 . S
H1150 C1180 0.950 . S
H1151 C1181 0.950 . S
C1152 H1134 0.951 . S
C1152 C1153 1.366 . S
C1152 C1154 1.388 . S
C1153 C1152 1.366 . S
C1153 C1157 1.385 . S
C1154 H1135 0.951 . S
C1154 C1152 1.388 . S
C1154 C1155 1.366 . S
C1155 C1154 1.366 . S
C1155 C1156 1.414 . S
C1155 C1158 1.499 . S
C1156 H1136 0.950 . S
C1156 C1155 1.414 . S
C1156 C1157 1.374 . S
C1157 H1137 0.950 . S
C1157 C1153 1.385 . S
C1157 C1156 1.374 . S
C1158 C1155 1.499 . S
C1158 C1159 1.373 . S
C1158 C1160 1.389 . S
C1159 H1138 0.950 . S
C1159 C1158 1.373 . S
C1159 C1175 1.377 . S
C1160 C1158 1.389 . S
C1160 C1161 1.524 . S
C1160 C1174 1.377 . S
C1161 C1160 1.524 . S
C1161 C1162 1.397 . S
C1161 C1166 1.363 . S
C1162 H1139 0.950 . S
C1162 C1161 1.397 . S
C1162 C1163 1.334 . S
C1163 H1140 0.950 . S
C1163 C1162 1.334 . S
C1163 C1164 1.287 . S
C1164 C1163 1.287 . S
C1164 C1165 1.524 . S
C1164 H1183 0.913 . S
C1165 H1141 0.950 . S
C1165 C1164 1.524 . S
C1165 C1166 1.415 . S
C1166 H1142 0.950 . S
C1166 C1161 1.363 . S
C1166 C1165 1.415 . S
C1167 H1143 0.951 . S
C1167 C1168 1.366 . S
C1167 C1169 1.388 . S
C1168 C1167 1.366 . S
C1168 C1172 1.385 . S
C1169 H1144 0.951 . S
C1169 C1167 1.388 . S
C1169 C1170 1.366 . S
C1170 C1169 1.366 . S
C1170 C1171 1.414 . S
C1170 C1173 1.499 . S
C1171 H1145 0.950 . S
C1171 C1170 1.414 . S
C1171 C1172 1.374 . S
C1172 H1146 0.950 . S
C1172 C1168 1.385 . S
C1172 C1171 1.374 . S
C1173 C1170 1.499 . S
C1173 C1174 1.373 . S
C1173 C1175 1.389 . S
C1174 H1147 0.950 . S
C1174 C1160 1.377 . S
C1174 C1173 1.373 . S
C1175 C1159 1.377 . S
C1175 C1173 1.389 . S
C1175 C1176 1.524 . S
C1176 C1175 1.524 . S
C1176 C1177 1.397 . S
C1176 C1181 1.363 . S
C1177 H1148 0.950 . S
C1177 C1176 1.397 . S
C1177 C1178 1.334 . S
C1178 H1149 0.950 . S
C1178 C1177 1.334 . S
C1178 C1179 1.287 . S
C1179 C1178 1.287 . S
C1179 C1180 1.524 . S
C1179 H1182 0.999 . S
C1180 H1150 0.950 . S
C1180 C1179 1.524 . S
C1180 C1181 1.415 . S
C1181 H1151 0.950 . S
C1181 C1176 1.363 . S
C1181 C1180 1.415 . S
H1182 C1179 0.999 . S
H1183 C1164 0.913 . S
H1184 C1202 0.951 . S
H1185 C1204 0.951 . S
H1186 C1206 0.950 . S
H1187 C1207 0.950 . S
H1188 C1209 0.950 . S
H1189 C1212 0.950 . S
H1190 C1213 0.950 . S
H1191 C1215 0.950 . S
H1192 C1216 0.950 . S
H1193 C1217 0.951 . S
H1194 C1219 0.951 . S
H1195 C1221 0.950 . S
H1196 C1222 0.950 . S
H1197 C1224 0.950 . S
H1198 C1227 0.950 . S
H1199 C1228 0.950 1_554 S
H1200 C1230 0.950 . S
H1201 C1231 0.950 . S
C1202 H1184 0.951 . S
C1202 C1203 1.366 . S
C1202 C1204 1.388 . S
C1203 C1202 1.366 . S
C1203 C1207 1.385 . S
C1204 H1185 0.951 . S
C1204 C1202 1.388 . S
C1204 C1205 1.366 . S
C1205 C1204 1.366 . S
C1205 C1206 1.414 . S
C1205 C1208 1.499 . S
C1206 H1186 0.950 . S
C1206 C1205 1.414 . S
C1206 C1207 1.374 . S
C1207 H1187 0.950 . S
C1207 C1203 1.385 . S
C1207 C1206 1.374 . S
C1208 C1205 1.499 . S
C1208 C1209 1.373 . S
C1208 C1210 1.389 . S
C1209 H1188 0.950 . S
C1209 C1208 1.373 . S
C1209 C1225 1.377 . S
C1210 C1208 1.389 . S
C1210 C1211 1.524 . S
C1210 C1224 1.377 . S
C1211 C1210 1.524 . S
C1211 C1212 1.397 . S
C1211 C1216 1.363 . S
C1212 H1189 0.950 . S
C1212 C1211 1.397 . S
C1212 C1213 1.334 . S
C1213 H1190 0.950 . S
C1213 C1212 1.334 . S
C1213 C1214 1.287 . S
C1214 C1213 1.287 . S
C1214 C1215 1.524 . S
C1214 H1233 0.913 . S
C1215 H1191 0.950 . S
C1215 C1214 1.524 . S
C1215 C1216 1.415 . S
C1216 H1192 0.950 . S
C1216 C1211 1.363 . S
C1216 C1215 1.415 . S
C1217 H1193 0.951 . S
C1217 C1218 1.366 . S
C1217 C1219 1.388 . S
C1218 C1217 1.366 . S
C1218 C1222 1.385 . S
C1219 H1194 0.951 . S
C1219 C1217 1.388 . S
C1219 C1220 1.366 . S
C1220 C1219 1.366 . S
C1220 C1221 1.414 . S
C1220 C1223 1.499 . S
C1221 H1195 0.950 . S
C1221 C1220 1.414 . S
C1221 C1222 1.374 . S
C1222 H1196 0.950 . S
C1222 C1218 1.385 . S
C1222 C1221 1.374 . S
C1223 C1220 1.499 . S
C1223 C1224 1.373 . S
C1223 C1225 1.389 . S
C1224 H1197 0.950 . S
C1224 C1210 1.377 . S
C1224 C1223 1.373 . S
C1225 C1209 1.377 . S
C1225 C1223 1.389 . S
C1225 C1226 1.524 . S
C1226 C1225 1.524 . S
C1226 C1227 1.397 . S
C1226 C1231 1.363 . S
C1227 H1198 0.950 . S
C1227 C1226 1.397 . S
C1227 C1228 1.334 . S
C1228 H1199 0.950 1_556 S
C1228 C1227 1.334 . S
C1228 C1229 1.282 1_556 S
C1229 C1228 1.282 1_554 S
C1229 C1230 1.517 1_554 S
C1229 H1232 1.012 . S
C1230 H1200 0.950 . S
C1230 C1229 1.517 1_556 S
C1230 C1231 1.415 . S
C1231 H1201 0.950 . S
C1231 C1226 1.363 . S
C1231 C1230 1.415 . S
H1232 C1229 1.012 . S
H1233 C1214 0.913 . S
H1234 C1252 0.951 . S
H1235 C1254 0.951 . S
H1236 C1256 0.950 . S
H1237 C1257 0.950 . S
H1238 C1259 0.950 . S
H1239 C1262 0.950 . S
H1240 C1263 0.950 . S
H1241 C1265 0.950 . S
H1242 C1266 0.950 . S
H1243 C1267 0.951 . S
H1244 C1269 0.951 . S
H1245 C1271 0.950 . S
H1246 C1272 0.950 . S
H1247 C1274 0.950 . S
H1248 C1277 0.950 . S
H1249 C1278 0.950 . S
H1250 C1280 0.950 . S
H1251 C1281 0.950 . S
C1252 H1234 0.951 . S
C1252 C1253 1.366 . S
C1252 C1254 1.388 . S
C1253 C1252 1.366 . S
C1253 C1257 1.385 . S
C1254 H1235 0.951 . S
C1254 C1252 1.388 . S
C1254 C1255 1.366 . S
C1255 C1254 1.366 . S
C1255 C1256 1.414 . S
C1255 C1258 1.499 . S
C1256 H1236 0.950 . S
C1256 C1255 1.414 . S
C1256 C1257 1.374 . S
C1257 H1237 0.950 . S
C1257 C1253 1.385 . S
C1257 C1256 1.374 . S
C1258 C1255 1.499 . S
C1258 C1259 1.373 . S
C1258 C1260 1.389 . S
C1259 H1238 0.950 . S
C1259 C1258 1.373 . S
C1259 C1275 1.377 . S
C1260 C1258 1.389 . S
C1260 C1261 1.524 . S
C1260 C1274 1.377 . S
C1261 C1260 1.524 . S
C1261 C1262 1.397 . S
C1261 C1266 1.363 . S
C1262 H1239 0.950 . S
C1262 C1261 1.397 . S
C1262 C1263 1.334 . S
C1263 H1240 0.950 . S
C1263 C1262 1.334 . S
C1263 C1264 1.287 . S
C1264 C1263 1.287 . S
C1264 C1265 1.524 . S
C1264 H1283 0.913 . S
C1265 H1241 0.950 . S
C1265 C1264 1.524 . S
C1265 C1266 1.415 . S
C1266 H1242 0.950 . S
C1266 C1261 1.363 . S
C1266 C1265 1.415 . S
C1267 H1243 0.951 . S
C1267 C1268 1.366 . S
C1267 C1269 1.388 . S
C1268 C1267 1.366 . S
C1268 C1272 1.385 . S
C1269 H1244 0.951 . S
C1269 C1267 1.388 . S
C1269 C1270 1.366 . S
C1270 C1269 1.366 . S
C1270 C1271 1.414 . S
C1270 C1273 1.499 . S
C1271 H1245 0.950 . S
C1271 C1270 1.414 . S
C1271 C1272 1.374 . S
C1272 H1246 0.950 . S
C1272 C1268 1.385 . S
C1272 C1271 1.374 . S
C1273 C1270 1.499 . S
C1273 C1274 1.373 . S
C1273 C1275 1.389 . S
C1274 H1247 0.950 . S
C1274 C1260 1.377 . S
C1274 C1273 1.373 . S
C1275 C1259 1.377 . S
C1275 C1273 1.389 . S
C1275 C1276 1.524 . S
C1276 C1275 1.524 . S
C1276 C1277 1.397 . S
C1276 C1281 1.363 . S
C1277 H1248 0.950 . S
C1277 C1276 1.397 . S
C1277 C1278 1.334 . S
C1278 H1249 0.950 . S
C1278 C1277 1.334 . S
C1278 C1279 1.287 . S
C1279 C1278 1.287 . S
C1279 C1280 1.524 . S
C1279 H1282 0.999 . S
C1280 H1250 0.950 . S
C1280 C1279 1.524 . S
C1280 C1281 1.415 . S
C1281 H1251 0.950 . S
C1281 C1276 1.363 . S
C1281 C1280 1.415 . S
H1282 C1279 0.999 . S
H1283 C1264 0.913 . S
H1284 C1302 0.951 . S
H1285 C1304 0.951 . S
H1286 C1306 0.950 . S
H1287 C1307 0.950 . S
H1288 C1309 0.950 . S
H1289 C1312 0.950 . S
H1290 C1313 0.950 . S
H1291 C1315 0.950 . S
H1292 C1316 0.950 . S
H1293 C1317 0.951 . S
H1294 C1319 0.951 . S
H1295 C1321 0.950 . S
H1296 C1322 0.950 . S
H1297 C1324 0.950 . S
H1298 C1327 0.950 . S
H1299 C1328 0.950 1_655 S
H1300 C1330 0.950 . S
H1301 C1331 0.950 . S
C1302 H1284 0.951 . S
C1302 C1303 1.366 . S
C1302 C1304 1.388 . S
C1303 C1302 1.366 . S
C1303 C1307 1.385 . S
C1304 H1285 0.951 . S
C1304 C1302 1.388 . S
C1304 C1305 1.366 . S
C1305 C1304 1.366 . S
C1305 C1306 1.414 . S
C1305 C1308 1.499 . S
C1306 H1286 0.950 . S
C1306 C1305 1.414 . S
C1306 C1307 1.374 . S
C1307 H1287 0.950 . S
C1307 C1303 1.385 . S
C1307 C1306 1.374 . S
C1308 C1305 1.499 . S
C1308 C1309 1.373 . S
C1308 C1310 1.389 . S
C1309 H1288 0.950 . S
C1309 C1308 1.373 . S
C1309 C1325 1.377 . S
C1310 C1308 1.389 . S
C1310 C1311 1.524 . S
C1310 C1324 1.377 . S
C1311 C1310 1.524 . S
C1311 C1312 1.397 . S
C1311 C1316 1.363 . S
C1312 H1289 0.950 . S
C1312 C1311 1.397 . S
C1312 C1313 1.334 . S
C1313 H1290 0.950 . S
C1313 C1312 1.334 . S
C1313 C1314 1.287 . S
C1314 C1313 1.287 . S
C1314 C1315 1.524 . S
C1314 H1333 0.913 . S
C1315 H1291 0.950 . S
C1315 C1314 1.524 . S
C1315 C1316 1.415 . S
C1316 H1292 0.950 . S
C1316 C1311 1.363 . S
C1316 C1315 1.415 . S
C1317 H1293 0.951 . S
C1317 C1318 1.366 . S
C1317 C1319 1.388 . S
C1318 C1317 1.366 . S
C1318 C1322 1.385 . S
C1319 H1294 0.951 . S
C1319 C1317 1.388 . S
C1319 C1320 1.366 . S
C1320 C1319 1.366 . S
C1320 C1321 1.414 . S
C1320 C1323 1.499 . S
C1321 H1295 0.950 . S
C1321 C1320 1.414 . S
C1321 C1322 1.374 . S
C1322 H1296 0.950 . S
C1322 C1318 1.385 . S
C1322 C1321 1.374 . S
C1323 C1320 1.499 . S
C1323 C1324 1.373 . S
C1323 C1325 1.389 . S
C1324 H1297 0.950 . S
C1324 C1310 1.377 . S
C1324 C1323 1.373 . S
C1325 C1309 1.377 . S
C1325 C1323 1.389 . S
C1325 C1326 1.524 . S
C1326 C1325 1.524 . S
C1326 C1327 1.397 . S
C1326 C1331 1.363 . S
C1327 H1298 0.950 . S
C1327 C1326 1.397 . S
C1327 C1328 1.334 . S
C1328 H1299 0.950 1_455 S
C1328 C1327 1.334 . S
C1328 C1329 1.287 1_455 S
C1329 C1328 1.287 1_655 S
C1329 C1330 1.524 . S
C1329 H1332 0.999 . S
C1330 H1300 0.950 . S
C1330 C1329 1.524 . S
C1330 C1331 1.415 1_655 S
C1331 H1301 0.950 . S
C1331 C1326 1.363 . S
C1331 C1330 1.415 1_455 S
H1332 C1329 0.999 . S
H1333 C1314 0.913 . S
H1334 C1352 0.951 . S
H1335 C1354 0.951 . S
H1336 C1356 0.950 . S
H1337 C1357 0.950 . S
H1338 C1359 0.950 . S
H1339 C1362 0.950 . S
H1340 C1363 0.950 . S
H1341 C1365 0.950 . S
H1342 C1366 0.950 . S
H1343 C1367 0.951 . S
H1344 C1369 0.951 . S
H1345 C1371 0.950 . S
H1346 C1372 0.950 . S
H1347 C1374 0.950 . S
H1348 C1377 0.950 . S
H1349 C1378 0.950 . S
H1350 C1380 0.950 . S
H1351 C1381 0.950 . S
C1352 H1334 0.951 . S
C1352 C1353 1.366 . S
C1352 C1354 1.388 . S
C1353 C1352 1.366 . S
C1353 C1357 1.385 . S
C1354 H1335 0.951 . S
C1354 C1352 1.388 . S
C1354 C1355 1.366 . S
C1355 C1354 1.366 . S
C1355 C1356 1.414 . S
C1355 C1358 1.499 . S
C1356 H1336 0.950 . S
C1356 C1355 1.414 . S
C1356 C1357 1.374 . S
C1357 H1337 0.950 . S
C1357 C1353 1.385 . S
C1357 C1356 1.374 . S
C1358 C1355 1.499 . S
C1358 C1359 1.373 . S
C1358 C1360 1.389 . S
C1359 H1338 0.950 . S
C1359 C1358 1.373 . S
C1359 C1375 1.377 . S
C1360 C1358 1.389 . S
C1360 C1361 1.524 . S
C1360 C1374 1.377 . S
C1361 C1360 1.524 . S
C1361 C1362 1.397 . S
C1361 C1366 1.363 . S
C1362 H1339 0.950 . S
C1362 C1361 1.397 . S
C1362 C1363 1.334 . S
C1363 H1340 0.950 . S
C1363 C1362 1.334 . S
C1363 C1364 1.287 . S
C1364 C1363 1.287 . S
C1364 C1365 1.524 . S
C1364 H1383 0.913 . S
C1365 H1341 0.950 . S
C1365 C1364 1.524 . S
C1365 C1366 1.415 . S
C1366 H1342 0.950 . S
C1366 C1361 1.363 . S
C1366 C1365 1.415 . S
C1367 H1343 0.951 . S
C1367 C1368 1.366 . S
C1367 C1369 1.388 . S
C1368 C1367 1.366 . S
C1368 C1372 1.385 . S
C1369 H1344 0.951 . S
C1369 C1367 1.388 . S
C1369 C1370 1.366 . S
C1370 C1369 1.366 . S
C1370 C1371 1.414 . S
C1370 C1373 1.499 . S
C1371 H1345 0.950 . S
C1371 C1370 1.414 . S
C1371 C1372 1.374 . S
C1372 H1346 0.950 . S
C1372 C1368 1.385 . S
C1372 C1371 1.374 . S
C1373 C1370 1.499 . S
C1373 C1374 1.373 . S
C1373 C1375 1.389 . S
C1374 H1347 0.950 . S
C1374 C1360 1.377 . S
C1374 C1373 1.373 . S
C1375 C1359 1.377 . S
C1375 C1373 1.389 . S
C1375 C1376 1.524 . S
C1376 C1375 1.524 . S
C1376 C1377 1.397 . S
C1376 C1381 1.363 . S
C1377 H1348 0.950 . S
C1377 C1376 1.397 . S
C1377 C1378 1.334 . S
C1378 H1349 0.950 . S
C1378 C1377 1.334 . S
C1378 C1379 1.287 . S
C1379 C1378 1.287 . S
C1379 C1380 1.524 . S
C1379 H1382 0.999 . S
C1380 H1350 0.950 . S
C1380 C1379 1.524 . S
C1380 C1381 1.415 . S
C1381 H1351 0.950 . S
C1381 C1376 1.363 . S
C1381 C1380 1.415 . S
H1382 C1379 0.999 . S
H1383 C1364 0.913 . S
C203 N1 1.375 . S
C218 C106 1.390 . S
C253 N18 1.638 . S
C268 C125 1.649 . S
C318 C162 1.261 . S
C303 N28 1.279 . S
C353 N40 1.836 . S
C368 C172 1.821 . S
C418 C142 2.323 . S
C403 N5 2.308 . S
C468 C112 1.502 . S
C453 N14 1.532 . S
C518 C183 1.572 . S
C503 N31 1.564 . S
C568 C153 0.979 . S
C553 N41 0.995 . S
C603 N2 1.563 . S
C618 C166 1.563 . S
C668 C133 1.800 1_556 S
C653 N27 1.849 . S
C703 N44 1.804 . S
C718 C123 1.822 1_655 S
C753 N15 1.039 . S
C768 C145 1.020 . S
C818 C105 1.756 . S
C803 N57 1.774 . S
C853 N70 1.217 . S
C868 C126 1.226 . S
C903 N79 1.570 . S
C918 C163 1.592 . S
C953 N93 1.564 . S
C968 C173 1.542 . S
C1003 N54 1.734 . S
C1018 C143 1.745 1_566 S
C1068 C113 1.985 . S
C1053 N66 2.062 . S
C1118 C182 0.861 . S
C1103 N80 0.867 . S
C1168 C152 1.397 . S
C1153 N96 1.401 . S
C1203 N53 1.575 . S
C1218 C165 1.595 . S
C1268 C132 1.593 . S
C1253 N83 1.592 . S
C1318 C122 1.983 . S
C1303 N92 1.958 . S
C1353 N67 1.118 . S
C1368 C146 1.125 . S
