# Generated by pormake.
# Topology ctn, (3,4)-cn, num edge types: 1
# Building blocks:
#     Node 0, Type 0, BuildingBlock: BETDAH_clean_linker_0, # of connection points: 3
#     Node 1, Type 0, BuildingBlock: BETDAH_clean_linker_0, # of connection points: 3
#     Node 2, Type 0, BuildingBlock: BETDAH_clean_linker_0, # of connection points: 3
#     Node 3, Type 0, BuildingBlock: BETDAH_clean_linker_0, # of connection points: 3
#     Node 4, Type 0, BuildingBlock: BETDAH_clean_linker_0, # of connection points: 3
#     Node 5, Type 0, BuildingBlock: BETDAH_clean_linker_0, # of connection points: 3
#     Node 6, Type 0, BuildingBlock: BETDAH_clean_linker_0, # of connection points: 3
#     Node 7, Type 0, BuildingBlock: BETDAH_clean_linker_0, # of connection points: 3
#     Node 8, Type 0, BuildingBlock: BETDAH_clean_linker_0, # of connection points: 3
#     Node 9, Type 0, BuildingBlock: BETDAH_clean_linker_0, # of connection points: 3
#     Node 10, Type 0, BuildingBlock: BETDAH_clean_linker_0, # of connection points: 3
#     Node 11, Type 0, BuildingBlock: BETDAH_clean_linker_0, # of connection points: 3
#     Node 12, Type 0, BuildingBlock: BETDAH_clean_linker_0, # of connection points: 3
#     Node 13, Type 0, BuildingBlock: BETDAH_clean_linker_0, # of connection points: 3
#     Node 14, Type 0, BuildingBlock: BETDAH_clean_linker_0, # of connection points: 3
#     Node 15, Type 0, BuildingBlock: BETDAH_clean_linker_0, # of connection points: 3
#     Node 16, Type 1, BuildingBlock: TATPOV_clean_sbu_0, # of connection points: 4
#     Node 17, Type 1, BuildingBlock: TATPOV_clean_sbu_0, # of connection points: 4
#     Node 18, Type 1, BuildingBlock: TATPOV_clean_sbu_0, # of connection points: 4
#     Node 19, Type 1, BuildingBlock: TATPOV_clean_sbu_0, # of connection points: 4
#     Node 20, Type 1, BuildingBlock: TATPOV_clean_sbu_0, # of connection points: 4
#     Node 21, Type 1, BuildingBlock: TATPOV_clean_sbu_0, # of connection points: 4
#     Node 22, Type 1, BuildingBlock: TATPOV_clean_sbu_0, # of connection points: 4
#     Node 23, Type 1, BuildingBlock: TATPOV_clean_sbu_0, # of connection points: 4
#     Node 24, Type 1, BuildingBlock: TATPOV_clean_sbu_0, # of connection points: 4
#     Node 25, Type 1, BuildingBlock: TATPOV_clean_sbu_0, # of connection points: 4
#     Node 26, Type 1, BuildingBlock: TATPOV_clean_sbu_0, # of connection points: 4
#     Node 27, Type 1, BuildingBlock: TATPOV_clean_sbu_0, # of connection points: 4
#     Edge 28, Type (0, 1), BuildingBlock: AJUNOK_clean_linker_0, # of connection points: 2
#     Edge 29, Type (0, 1), BuildingBlock: AJUNOK_clean_linker_0, # of connection points: 2
#     Edge 30, Type (0, 1), BuildingBlock: AJUNOK_clean_linker_0, # of connection points: 2
#     Edge 31, Type (0, 1), BuildingBlock: AJUNOK_clean_linker_0, # of connection points: 2
#     Edge 32, Type (0, 1), BuildingBlock: AJUNOK_clean_linker_0, # of connection points: 2
#     Edge 33, Type (0, 1), BuildingBlock: AJUNOK_clean_linker_0, # of connection points: 2
#     Edge 34, Type (0, 1), BuildingBlock: AJUNOK_clean_linker_0, # of connection points: 2
#     Edge 35, Type (0, 1), BuildingBlock: AJUNOK_clean_linker_0, # of connection points: 2
#     Edge 36, Type (0, 1), BuildingBlock: AJUNOK_clean_linker_0, # of connection points: 2
#     Edge 37, Type (0, 1), BuildingBlock: AJUNOK_clean_linker_0, # of connection points: 2
#     Edge 38, Type (0, 1), BuildingBlock: AJUNOK_clean_linker_0, # of connection points: 2
#     Edge 39, Type (0, 1), BuildingBlock: AJUNOK_clean_linker_0, # of connection points: 2
#     Edge 40, Type (0, 1), BuildingBlock: AJUNOK_clean_linker_0, # of connection points: 2
#     Edge 41, Type (0, 1), BuildingBlock: AJUNOK_clean_linker_0, # of connection points: 2
#     Edge 42, Type (0, 1), BuildingBlock: AJUNOK_clean_linker_0, # of connection points: 2
#     Edge 43, Type (0, 1), BuildingBlock: AJUNOK_clean_linker_0, # of connection points: 2
#     Edge 44, Type (0, 1), BuildingBlock: AJUNOK_clean_linker_0, # of connection points: 2
#     Edge 45, Type (0, 1), BuildingBlock: AJUNOK_clean_linker_0, # of connection points: 2
#     Edge 46, Type (0, 1), BuildingBlock: AJUNOK_clean_linker_0, # of connection points: 2
#     Edge 47, Type (0, 1), BuildingBlock: AJUNOK_clean_linker_0, # of connection points: 2
#     Edge 48, Type (0, 1), BuildingBlock: AJUNOK_clean_linker_0, # of connection points: 2
#     Edge 49, Type (0, 1), BuildingBlock: AJUNOK_clean_linker_0, # of connection points: 2
#     Edge 50, Type (0, 1), BuildingBlock: AJUNOK_clean_linker_0, # of connection points: 2
#     Edge 51, Type (0, 1), BuildingBlock: AJUNOK_clean_linker_0, # of connection points: 2
#     Edge 52, Type (0, 1), BuildingBlock: AJUNOK_clean_linker_0, # of connection points: 2
#     Edge 53, Type (0, 1), BuildingBlock: AJUNOK_clean_linker_0, # of connection points: 2
#     Edge 54, Type (0, 1), BuildingBlock: AJUNOK_clean_linker_0, # of connection points: 2
#     Edge 55, Type (0, 1), BuildingBlock: AJUNOK_clean_linker_0, # of connection points: 2
#     Edge 56, Type (0, 1), BuildingBlock: AJUNOK_clean_linker_0, # of connection points: 2
#     Edge 57, Type (0, 1), BuildingBlock: AJUNOK_clean_linker_0, # of connection points: 2
#     Edge 58, Type (0, 1), BuildingBlock: AJUNOK_clean_linker_0, # of connection points: 2
#     Edge 59, Type (0, 1), BuildingBlock: AJUNOK_clean_linker_0, # of connection points: 2
#     Edge 60, Type (0, 1), BuildingBlock: AJUNOK_clean_linker_0, # of connection points: 2
#     Edge 61, Type (0, 1), BuildingBlock: AJUNOK_clean_linker_0, # of connection points: 2
#     Edge 62, Type (0, 1), BuildingBlock: AJUNOK_clean_linker_0, # of connection points: 2
#     Edge 63, Type (0, 1), BuildingBlock: AJUNOK_clean_linker_0, # of connection points: 2
#     Edge 64, Type (0, 1), BuildingBlock: AJUNOK_clean_linker_0, # of connection points: 2
#     Edge 65, Type (0, 1), BuildingBlock: AJUNOK_clean_linker_0, # of connection points: 2
#     Edge 66, Type (0, 1), BuildingBlock: AJUNOK_clean_linker_0, # of connection points: 2
#     Edge 67, Type (0, 1), BuildingBlock: AJUNOK_clean_linker_0, # of connection points: 2
#     Edge 68, Type (0, 1), BuildingBlock: AJUNOK_clean_linker_0, # of connection points: 2
#     Edge 69, Type (0, 1), BuildingBlock: AJUNOK_clean_linker_0, # of connection points: 2
#     Edge 70, Type (0, 1), BuildingBlock: AJUNOK_clean_linker_0, # of connection points: 2
#     Edge 71, Type (0, 1), BuildingBlock: AJUNOK_clean_linker_0, # of connection points: 2
#     Edge 72, Type (0, 1), BuildingBlock: AJUNOK_clean_linker_0, # of connection points: 2
#     Edge 73, Type (0, 1), BuildingBlock: AJUNOK_clean_linker_0, # of connection points: 2
#     Edge 74, Type (0, 1), BuildingBlock: AJUNOK_clean_linker_0, # of connection points: 2
#     Edge 75, Type (0, 1), BuildingBlock: AJUNOK_clean_linker_0, # of connection points: 2
# Relax obj value: 0.049
# Max RMSD: 0.161
# Mean RMSD: 0.095
data_MOF--net-ctn--node1-TATPOV_clean_sbu_0--node2-BETDAH_clean_linker_0--edge1-AJUNOK_clean_linker_0
_symmetry_space_group_name_H-M    P1
_symmetry_Int_Tables_number       1
_symmetry_cell_setting            triclinic
loop_
_symmetry_equiv_pos_as_xyz
'x, y, z'
_cell_length_a     38.793711
_cell_length_b     39.028077
_cell_length_c     39.453085
_cell_angle_alpha  100.58229
_cell_angle_beta   91.610303
_cell_angle_gamma 96.328728
loop_
_atom_site_label
_atom_site_type_symbol
_atom_site_fract_x
_atom_site_fract_y
_atom_site_fract_z
_atom_type_partial_charge
H0 H 0.07395 0.99108 0.096 0.0
H1 H 0.10953 0.01167 0.99864 0.0
H2 H 0.02673 0.06477 0.04553 0.0
C3 C 0.07254 0.00499 0.07474 0.0
C4 C 0.04752 0.0287 0.07431 0.0
C5 C 0.09533 0.99872 0.04766 0.0
C6 C 0.09278 0.01668 0.02011 0.0
C7 C 0.06868 0.04076 0.01927 0.0
C8 C 0.04593 0.04675 0.0464 0.0
N9 N 0.06725 0.0565 0.9895 0.0
C10 C 0.05358 0.08742 0.98635 0.0
H11 H 0.31784 0.672 0.28912 0.0
H12 H 0.32535 0.7558 0.23085 0.0
H13 H 0.22778 0.69349 0.23454 0.0
C14 C 0.3062 0.68683 0.27209 0.0
C15 C 0.27081 0.67852 0.26207 0.0
C16 C 0.32632 0.71485 0.26136 0.0
C17 C 0.31031 0.73452 0.23988 0.0
C18 C 0.27449 0.72713 0.23086 0.0
C19 C 0.2552 0.69932 0.2421 0.0
N20 N 0.25621 0.7476 0.21181 0.0
C21 C 0.27047 0.76914 0.19011 0.0
H22 H 0.06748 0.40007 0.06636 0.0
H23 H 0.04406 0.49748 0.1264 0.0
H24 H 0.99813 0.46232 0.02394 0.0
C25 C 0.05373 0.42307 0.0689 0.0
C26 C 0.03271 0.42839 0.0411 0.0
C27 C 0.05816 0.44809 0.09956 0.0
C28 C 0.04101 0.47818 0.10262 0.0
C29 C 0.01929 0.48346 0.07572 0.0
C30 C 0.01498 0.45844 0.04492 0.0
N31 N 1.00267 0.51448 0.08082 0.0
C32 C 0.97773 0.52234 0.05842 0.0
H33 H 0.82465 0.80761 0.16742 0.0
H34 H 0.77301 0.72316 0.21092 0.0
H35 H 0.79398 0.82624 0.27262 0.0
C36 C 0.81217 0.79813 0.18871 0.0
C37 C 0.80969 0.82162 0.21987 0.0
C38 C 0.79886 0.76249 0.18507 0.0
C39 C 0.78326 0.75051 0.21318 0.0
C40 C 0.78149 0.77351 0.2446 0.0
C41 C 0.7949 0.80882 0.24795 0.0
N42 N 0.76846 0.76076 0.27366 0.0
C43 C 0.73306 0.7531 0.27721 0.0
H44 H 0.10848 0.04047 0.40505 0.0
H45 H 0.1323 0.96237 0.46385 0.0
H46 H 0.03037 0.95665 0.4165 0.0
C47 C 0.10047 0.01727 0.41566 0.0
C48 C 0.06638 1.00065 0.40907 0.0
C49 C 0.12438 1.0036 0.43552 0.0
C50 C 0.11386 0.9734 0.44905 0.0
C51 C 0.07989 0.95662 0.44229 0.0
C52 C 0.05647 0.97009 0.42209 0.0
N53 N 0.06967 0.92444 0.45288 0.0
C54 C 0.07089 0.9205 0.48717 0.0
H55 H 0.29767 0.69652 0.84159 0.0
H56 H 0.21919 0.74775 0.7972 0.0
H57 H 0.26099 0.66055 0.73612 0.0
C58 C 0.28104 0.69912 0.8199 0.0
C59 C 0.28144 0.67506 0.78877 0.0
C60 C 0.25873 0.72573 0.82347 0.0
C61 C 0.2372 0.72826 0.79478 0.0
C62 C 0.23856 0.7051 0.76305 0.0
C63 C 0.26057 0.67873 0.76042 0.0
N64 N 0.21814 0.70693 0.73311 0.0
C65 C 0.19247 0.72885 0.73133 0.0
H66 H 0.90837 0.58991 0.53909 0.0
H67 H 0.96756 0.64008 0.46749 0.0
H68 H 0.9328 0.52988 0.44131 0.0
C69 C 0.92047 0.58833 0.5145 0.0
C70 C 0.91758 0.55625 0.49094 0.0
C71 C 0.9385 0.61858 0.50612 0.0
C72 C 0.95384 0.61671 0.47423 0.0
C73 C 0.95271 0.58471 0.45138 0.0
C74 C 0.93472 0.55439 0.45973 0.0
N75 N 0.96823 0.58412 0.4193 0.0
C76 C 0.99209 0.56123 0.40749 0.0
H77 H 0.91601 0.77902 0.82843 0.0
H78 H 0.89281 0.88609 0.84246 0.0
H79 H 0.86089 0.82274 0.91637 0.0
C80 C 0.90496 0.80096 0.8434 0.0
C81 C 0.88829 0.79681 0.87382 0.0
C82 C 0.90653 0.83299 0.83164 0.0
C83 C 0.89176 0.86116 0.85101 0.0
C84 C 0.87562 0.85738 0.88162 0.0
C85 C 0.87437 0.82555 0.89316 0.0
N86 N 0.8589 0.88485 0.90017 0.0
C87 C 0.83141 0.89718 0.88474 0.0
H88 H 0.40518 0.26284 0.33002 0.0
H89 H 0.37261 0.36607 0.33985 0.0
H90 H 0.34555 0.30319 0.41569 0.0
C91 C 0.39222 0.28383 0.34416 0.0
C92 C 0.37522 0.27893 0.37419 0.0
C93 C 0.39169 0.31529 0.33168 0.0
C94 C 0.37372 0.34189 0.34946 0.0
C95 C 0.35767 0.33761 0.38008 0.0
C96 C 0.35898 0.30652 0.39257 0.0
N97 N 0.3392 0.36389 0.39823 0.0
C98 C 0.31346 0.37772 0.38174 0.0
H99 H 0.58016 0.88463 0.56373 0.0
H100 H 0.55753 0.98433 0.61929 0.0
H101 H 0.5109 0.94453 0.5178 0.0
C102 C 0.56625 0.90742 0.56519 0.0
C103 C 0.54475 0.91117 0.53706 0.0
C104 C 0.57107 0.93386 0.59475 0.0
C105 C 0.55412 0.96393 0.59634 0.0
C106 C 0.5323 0.96793 0.56903 0.0
C107 C 0.52756 0.9415 0.53927 0.0
N108 N 0.51619 0.99923 0.57262 0.0
C109 C 0.4905 0.00585 0.55031 0.0
H110 H 0.32593 0.27981 0.67428 0.0
H111 H 0.27225 0.18937 0.70599 0.0
H112 H 0.27285 0.29077 0.76982 0.0
C113 C 0.31032 0.26848 0.69272 0.0
C114 C 0.30061 0.29023 0.72268 0.0
C115 C 0.30049 0.23204 0.68664 0.0
C116 C 0.28038 0.21738 0.71055 0.0
C117 C 0.26954 0.23854 0.73985 0.0
C118 C 0.27981 0.2749 0.74607 0.0
N119 N 0.2498 0.2222 0.76347 0.0
C120 C 0.22026 0.2347 0.77785 0.0
H121 H 0.81405 0.17291 0.77642 0.0
H122 H 0.82165 0.27234 0.74254 0.0
H123 H 0.72445 0.20612 0.73111 0.0
C124 C 0.80232 0.19205 0.76461 0.0
C125 C 0.76706 0.1854 0.75377 0.0
C126 C 0.82229 0.22356 0.76146 0.0
C127 C 0.80687 0.24778 0.74502 0.0
C128 C 0.7715 0.24131 0.73398 0.0
C129 C 0.7518 0.21056 0.73908 0.0
N130 N 0.75406 0.26662 0.72086 0.0
C131 C 0.76602 0.28391 0.69485 0.0
H132 H 0.5738 0.48139 0.59455 0.0
H133 H 0.58437 0.53639 0.50906 0.0
H134 H 0.50026 0.55144 0.5767 0.0
C135 C 0.56514 0.50003 0.57989 0.0
C136 C 0.53566 0.51657 0.59005 0.0
C137 C 0.58331 0.50709 0.55089 0.0
C138 C 0.57095 0.53081 0.53149 0.0
C139 C 0.54095 0.54691 0.54103 0.0
C140 C 0.52368 0.53946 0.57002 0.0
N141 N 0.52603 0.56982 0.52203 0.0
C142 C 0.54055 0.58599 0.49617 0.0
H143 H 0.59808 0.53641 0.909 0.0
H144 H 0.63484 0.53147 0.0114 0.0
H145 H 0.53054 0.48869 0.97714 0.0
C146 C 0.59369 0.52762 0.93319 0.0
C147 C 0.56083 0.51115 0.93937 0.0
C148 C 0.62047 0.53483 0.95903 0.0
C149 C 0.61439 0.52564 0.99116 0.0
C150 C 0.58242 0.5087 0.99767 0.0
C151 C 0.55563 0.5011 0.97171 0.0
N152 N 0.57751 0.50254 0.0316 0.0
C153 C 0.55891 0.47292 0.03974 0.0
H154 H 0.79649 0.22278 0.33578 0.0
H155 H 0.72305 0.27651 0.28769 0.0
H156 H 0.7754 0.19706 0.22619 0.0
C157 C 0.78272 0.22713 0.31295 0.0
C158 C 0.78816 0.20646 0.28087 0.0
C159 C 0.75946 0.25274 0.31596 0.0
C160 C 0.74174 0.25767 0.28585 0.0
C161 C 0.74802 0.23802 0.25333 0.0
C162 C 0.77152 0.2129 0.25109 0.0
N163 N 0.73093 0.2423 0.22231 0.0
C164 C 0.70063 0.25806 0.22046 0.0
H165 H 0.41417 0.07946 0.03571 0.0
H166 H 0.46994 0.13311 0.96445 0.0
H167 H 0.43844 0.02231 0.93653 0.0
C168 C 0.42585 0.07877 0.01098 0.0
C169 C 0.42344 0.04713 0.98684 0.0
C170 C 0.44273 0.10975 1.00305 0.0
C171 C 0.45732 0.10912 0.97093 0.0
C172 C 0.45678 0.07756 0.94746 0.0
C173 C 0.43999 0.04647 0.95542 0.0
N174 N 0.47139 0.07818 0.91511 0.0
C175 C 0.49661 0.05714 0.90274 0.0
Zn176 Zn 0.32819 0.84698 0.01224 0.0
Zn177 Zn 0.27005 0.87833 0.01845 0.0
O178 O 0.27337 0.85523 0.06247 0.0
O179 O 0.32351 0.83368 0.05866 0.0
O180 O 0.22831 0.90697 0.02469 0.0
O181 O 0.35728 0.89151 0.0071 0.0
O182 O 0.30984 0.9174 0.01463 0.0
C183 C 0.2965 0.83937 0.07498 0.0
C184 C 0.27688 0.81828 0.9571 0.0
O185 O 0.25971 0.84253 0.97183 0.0
O186 O 0.30594 0.814 0.9701 0.0
C187 C 0.19993 0.89963 0.0388 0.0
O188 O 0.19515 0.87025 0.0507 0.0
C189 C 0.34231 0.91901 0.00964 0.0
Zn190 Zn 0.1227 0.42269 0.29817 0.0
Zn191 Zn 0.16176 0.48527 0.29647 0.0
O192 O 0.12385 0.5006 0.32884 0.0
O193 O 0.09132 0.45105 0.33044 0.0
O194 O 0.19263 0.52931 0.29286 0.0
O195 O 0.16587 0.40559 0.31721 0.0
O196 O 0.19579 0.45623 0.31494 0.0
C197 C 0.09738 0.48415 0.33953 0.0
C198 C 0.1242 0.44076 0.23046 0.0
O199 O 0.143 0.46776 0.24696 0.0
O200 O 0.11257 0.41665 0.24616 0.0
C201 C 0.18197 0.55902 0.29343 0.0
O202 O 0.14895 0.56218 0.29781 0.0
C203 C 0.19434 0.42558 0.32189 0.0
Zn204 Zn 0.83415 0.59312 0.92561 0.0
Zn205 Zn 0.8269 0.6389 0.98668 0.0
O206 O 0.86097 0.60744 1.00054 0.0
O207 O 0.86867 0.57053 0.95282 0.0
O208 O 0.82015 0.67274 0.03036 0.0
O209 O 0.85111 0.63637 0.90505 0.0
O210 O 0.84629 0.67089 0.95511 0.0
C211 C 0.87536 0.58168 0.9849 0.0
C212 C 0.76367 0.59136 0.94866 0.0
O213 O 0.77818 0.61484 0.97309 0.0
O214 O 0.78175 0.57715 0.9249 0.0
C215 C 0.81616 0.66286 0.05908 0.0
O216 O 0.81712 0.62963 0.06059 0.0
C217 C 0.85432 0.66681 0.92372 0.0
Zn218 Zn 0.88444 0.02757 0.30486 0.0
Zn219 Zn 0.91964 0.03388 0.25243 0.0
O220 O 0.88837 0.07641 0.25719 0.0
O221 O 0.8614 0.06979 0.30417 0.0
O222 O 0.95217 0.03887 0.2126 0.0
O223 O 0.92452 0.02958 0.33762 0.0
O224 O 0.95627 0.0351 0.29335 0.0
C225 C 0.86652 0.0863 0.27977 0.0
C226 C 0.86788 0.96755 0.25288 0.0
O227 O 0.89125 0.98375 0.23744 0.0
O228 O 0.85958 0.98138 0.28259 0.0
C229 C 0.94392 0.0333 0.18037 0.0
O230 O 0.91107 0.0246 0.17021 0.0
C231 C 0.95407 0.033 0.32522 0.0
Zn232 Zn 0.33877 0.07285 0.42373 0.0
Zn233 Zn 0.32971 0.11465 0.48608 0.0
O234 O 0.36728 0.08443 0.49647 0.0
O235 O 0.3765 0.05149 0.44679 0.0
O236 O 0.32379 0.14652 0.53162 0.0
O237 O 0.35074 0.11741 0.40423 0.0
O238 O 0.34484 0.14954 0.45529 0.0
C239 C 0.38344 0.06102 0.47894 0.0
C240 C 0.26893 0.06385 0.44806 0.0
O241 O 0.2812 0.088 0.47309 0.0
O242 O 0.2883 0.05225 0.42429 0.0
C243 C 0.32869 0.13761 0.56064 0.0
O244 O 0.33744 0.10616 0.56126 0.0
C245 C 0.35185 0.14726 0.4237 0.0
Zn246 Zn 0.37069 0.49725 0.82106 0.0
Zn247 Zn 0.41114 0.50222 0.76774 0.0
O248 O 0.38153 0.54485 0.77203 0.0
O249 O 0.34788 0.53952 0.81537 0.0
O250 O 0.44171 0.50942 0.72723 0.0
O251 O 0.41332 0.50157 0.85283 0.0
O252 O 0.44667 0.50409 0.8089 0.0
C253 C 0.35777 0.55565 0.79172 0.0
C254 C 0.35843 0.43626 0.76718 0.0
O255 O 0.38259 0.45257 0.75278 0.0
O256 O 0.3486 0.44996 0.79637 0.0
C257 C 0.45541 0.48575 0.70715 0.0
O258 O 0.44991 0.45316 0.71182 0.0
C259 C 0.44332 0.50363 0.84095 0.0
Zn260 Zn 0.81772 0.35637 0.51099 0.0
Zn261 Zn 0.76091 0.38888 0.51962 0.0
O262 O 0.76552 0.36329 0.56211 0.0
O263 O 0.81435 0.33963 0.55581 0.0
O264 O 0.71865 0.41612 0.53043 0.0
O265 O 0.84698 0.40158 0.50835 0.0
O266 O 0.80039 0.42869 0.51722 0.0
C267 C 0.78811 0.34581 0.57317 0.0
C268 C 0.76674 0.33217 0.45492 0.0
O269 O 0.75007 0.35611 0.47113 0.0
O270 O 0.79532 0.32613 0.46749 0.0
C271 C 0.69966 0.42699 0.50865 0.0
O272 O 0.70593 0.41939 0.47573 0.0
C273 C 0.83281 0.42964 0.51212 0.0
Zn274 Zn 0.63551 0.92479 0.79799 0.0
Zn275 Zn 0.67042 0.98842 0.7922 0.0
O276 O 0.63128 1.00285 0.82351 0.0
O277 O 0.60212 0.9524 0.82821 0.0
O278 O 0.69741 0.03342 0.78477 0.0
O279 O 0.68039 0.91298 0.81901 0.0
O280 O 0.70719 0.96417 0.8135 0.0
C281 C 0.60591 0.9857 0.83521 0.0
C282 C 0.63596 0.93707 0.72832 0.0
O283 O 0.65289 0.96587 0.74337 0.0
O284 O 0.62558 0.91402 0.74575 0.0
C285 C 0.68365 0.06084 0.78169 0.0
O286 O 0.65009 0.06115 0.78513 0.0
C287 C 0.70772 0.93463 0.82268 0.0
Zn288 Zn 0.02693 0.30381 0.83775 0.0
Zn289 Zn 0.0241 0.25111 0.87335 0.0
O290 O 0.07037 0.24885 0.8473 0.0
O291 O 0.07244 0.29225 0.81864 0.0
O292 O 0.02235 0.20924 0.89868 0.0
O293 O 0.02688 0.33778 0.88294 0.0
O294 O 0.02577 0.2948 0.91214 0.0
C295 C 0.08609 0.26693 0.82719 0.0
C296 C 0.96475 0.25758 0.82009 0.0
O297 O 0.97752 0.24279 0.84318 0.0
O298 O 0.98178 0.28396 0.81154 0.0
C299 C 0.0379 0.211 0.928 0.0
O300 O 0.05552 0.24093 0.94289 0.0
C301 C 0.0267 0.32747 0.91156 0.0
Zn302 Zn 0.5346 0.79124 0.33363 0.0
Zn303 Zn 0.53181 0.73568 0.36369 0.0
O304 O 0.57739 0.73445 0.33628 0.0
O305 O 0.57662 0.77826 0.30833 0.0
O306 O 0.53076 0.69325 0.38819 0.0
O307 O 0.54002 0.82368 0.37967 0.0
O308 O 0.53468 0.77772 0.40485 0.0
C309 C 0.59106 0.75268 0.31522 0.0
C310 C 0.47017 0.74848 0.31662 0.0
O311 O 0.48411 0.72898 0.3346 0.0
O312 O 0.48688 0.77683 0.31208 0.0
C313 C 0.55671 0.68894 0.40695 0.0
O314 O 0.58469 0.7117 0.4095 0.0
C315 C 0.53824 0.81097 0.40694 0.0
Zn316 Zn 0.96067 0.82741 0.6239 0.0
Zn317 Zn 0.01852 0.80497 0.64622 0.0
O318 O 0.03695 0.842 0.61726 0.0
O319 O 0.98959 0.86336 0.6029 0.0
O320 O 0.06155 0.7871 0.66382 0.0
O321 O 0.94487 0.83852 0.67228 0.0
O322 O 0.99269 0.82087 0.69058 0.0
C323 C 0.02215 0.86302 0.602 0.0
C324 C 0.96554 0.75467 0.59624 0.0
O325 O 0.99339 0.76064 0.61535 0.0
O326 O 0.94682 0.77906 0.59496 0.0
C327 C 0.07925 0.80069 0.69165 0.0
O328 O 0.07028 0.82931 0.7107 0.0
C329 C 0.96379 0.83291 0.69685 0.0
Zn330 Zn 0.44149 0.31452 0.12332 0.0
Zn331 Zn 0.50511 0.30153 0.14581 0.0
O332 O 0.51616 0.34319 0.12068 0.0
O333 O 0.46501 0.35443 0.10296 0.0
O334 O 0.5519 0.29 0.16189 0.0
O335 O 0.42738 0.32202 0.17307 0.0
O336 O 0.47885 0.31134 0.19037 0.0
C337 C 0.49779 0.36111 0.10488 0.0
C338 C 0.45784 0.24526 0.0949 0.0
O339 O 0.48565 0.25568 0.11361 0.0
O340 O 0.43469 0.26562 0.09399 0.0
C341 C 0.57214 0.30922 0.18552 0.0
O342 O 0.56309 0.33949 0.20084 0.0
C343 C 0.44831 0.31876 0.1972 0.0
C344 C 0.25996 0.73663 0.88834 0.0
C345 C 0.25781 0.74996 0.85754 0.0
C346 C 0.26384 0.75894 0.92071 0.0
C347 C 0.26465 0.79544 0.92384 0.0
H348 H 0.25976 0.70871 0.88745 0.0
H349 H 0.26741 0.74761 0.94349 0.0
S350 S 0.25794 0.84408 0.85215 0.0
N351 N 0.25571 0.80254 0.8328 0.0
N352 N 0.26136 0.8441 0.89398 0.0
C353 C 0.2604 0.80915 0.89371 0.0
C354 C 0.25725 0.7865 0.8605 0.0
C355 C 0.01337 0.50527 0.38201 0.0
C356 C 0.01954 0.54165 0.39354 0.0
C357 C 0.03922 0.48664 0.36572 0.0
C358 C 0.07198 0.50389 0.36026 0.0
H359 H 0.98822 0.49127 0.38487 0.0
H360 H 0.03301 0.45868 0.35644 0.0
S361 S 0.10088 0.59922 0.3882 0.0
N362 N 0.06049 0.59428 0.40026 0.0
N363 N 0.10925 0.55967 0.3698 0.0
C364 C 0.07855 0.54033 0.37289 0.0
C365 C 0.05222 0.55912 0.38948 0.0
C366 C 0.88935 0.76038 0.91967 0.0
C367 C 0.88336 0.76222 0.88478 0.0
C368 C 0.88089 0.72908 0.93169 0.0
C369 C 0.86635 0.69824 0.90926 0.0
H370 H 0.89999 0.78356 0.93804 0.0
H371 H 0.88527 0.72926 0.95897 0.0
S372 S 0.84605 0.68885 0.81532 0.0
N373 N 0.86224 0.73036 0.82777 0.0
N374 N 0.84718 0.67122 0.85025 0.0
C375 C 0.86143 0.6993 0.87403 0.0
C376 C 0.86974 0.73135 0.86182 0.0
C377 C 0.04332 0.01286 0.35294 0.0
C378 C 0.04057 0.01471 0.38868 0.0
C379 C 0.01605 0.02089 0.33256 0.0
C380 C 0.98521 0.03103 0.34736 0.0
H381 H 0.06593 1.00349 0.34046 0.0
H382 H 0.01845 0.01738 0.30489 0.0
S383 S 0.96811 0.04489 0.4409 0.0
N384 N 1.0067 0.03076 0.43857 0.0
N385 N 0.95574 0.04645 0.40089 0.0
C386 C 0.98344 0.03525 0.38356 0.0
C387 C 0.01102 0.02687 0.40405 0.0
C388 C 0.30288 0.21663 0.62232 0.0
C389 C 0.31043 0.20903 0.655 0.0
C390 C 0.30932 0.19365 0.59201 0.0
C391 C 0.32362 0.16218 0.59321 0.0
H392 H 0.29097 0.24002 0.62014 0.0
H393 H 0.30237 0.20036 0.56747 0.0
S394 S 0.35135 0.13224 0.67277 0.0
N395 N 0.33534 0.16941 0.687 0.0
N396 N 0.34735 0.12607 0.63025 0.0
C397 C 0.33236 0.15494 0.62587 0.0
C398 C 0.32579 0.17837 0.65668 0.0
C399 C 0.50729 0.47473 0.62557 0.0
C400 C 0.51663 0.50942 0.62101 0.0
C401 C 0.48782 0.46745 0.65352 0.0
C402 C 0.47684 0.49452 0.67823 0.0
H403 H 0.51441 0.45294 0.60695 0.0
H404 H 0.48098 0.44023 0.65543 0.0
S405 S 0.49722 0.59011 0.6797 0.0
N406 N 0.51538 0.57125 0.64486 0.0
N407 N 0.47865 0.55772 0.69699 0.0
C408 C 0.48675 0.5294 0.67436 0.0
C409 C 0.50662 0.53678 0.64593 0.0
C410 C 0.74659 0.31696 0.65158 0.0
C411 C 0.77297 0.30125 0.66588 0.0
C412 C 0.75185 0.33203 0.6221 0.0
C413 C 0.78367 0.33172 0.60574 0.0
H414 H 0.72149 0.31712 0.66295 0.0
H415 H 0.73056 0.34334 0.61169 0.0
S416 S 0.86151 0.29487 0.63494 0.0
N417 N 0.83209 0.28708 0.66287 0.0
N418 N 0.84256 0.31524 0.60767 0.0
C419 C 0.81052 0.31657 0.62058 0.0
C420 C 0.80502 0.30135 0.6506 0.0
C421 C 0.58352 0.90403 0.64372 0.0
C422 C 0.59304 0.93048 0.62485 0.0
C423 C 0.59919 0.90501 0.67643 0.0
C424 C 0.62491 0.9325 0.69126 0.0
H425 H 0.56234 0.88374 0.63413 0.0
H426 H 0.58965 0.88518 0.69089 0.0
S427 S 0.66292 1.00451 0.64887 0.0
N428 N 0.63242 0.98218 0.62086 0.0
N429 N 0.66232 0.9841 0.68202 0.0
C430 C 0.63657 0.95742 0.67113 0.0
C431 C 0.62048 0.95642 0.63801 0.0
C432 C 0.88549 0.24534 0.75804 0.0
C433 C 0.8587 0.23137 0.77662 0.0
C434 C 0.91985 0.25275 0.7719 0.0
C435 C 0.92895 0.24614 0.80475 0.0
H436 H 0.87991 0.25051 0.73251 0.0
H437 H 0.93945 0.26392 0.75676 0.0
S438 S 0.86834 0.21199 0.86504 0.0
N439 N 0.84351 0.21324 0.83072 0.0
N440 N 0.90815 0.22586 0.85595 0.0
C441 C 0.90253 0.23202 0.82355 0.0
C442 C 0.86744 0.22503 0.80973 0.0
C443 C 0.54688 0.89594 0.47294 0.0
C444 C 0.54211 0.8847 0.5045 0.0
C445 C 0.54575 0.87185 0.44184 0.0
C446 C 0.53978 0.83537 0.44083 0.0
H447 H 0.55209 0.92365 0.47228 0.0
H448 H 0.54976 0.88212 0.41836 0.0
S449 S 0.52426 0.79241 0.51647 0.0
N450 N 0.53008 0.8348 0.53301 0.0
N451 N 0.52829 0.78929 0.47449 0.0
C452 C 0.53476 0.82372 0.47228 0.0
C453 C 0.53588 0.84841 0.50408 0.0
C454 C 0.16949 0.22389 0.81237 0.0
C455 C 0.18755 0.24408 0.79111 0.0
C456 C 0.1367 0.23136 0.82391 0.0
C457 C 0.1208 0.25924 0.81442 0.0
H458 H 0.18063 0.20198 0.81991 0.0
H459 H 0.12373 0.21506 0.84026 0.0
S460 S 0.15859 0.31982 0.75877 0.0
N461 N 0.18807 0.29275 0.76091 0.0
N462 N 0.12666 0.30726 0.78222 0.0
C463 C 0.1391 0.27967 0.79308 0.0
C464 C 0.17244 0.27196 0.78151 0.0
C465 C 0.52011 0.61191 0.44785 0.0
C466 C 0.54729 0.60825 0.47073 0.0
C467 C 0.52372 0.63725 0.4266 0.0
C468 C 0.55467 0.66014 0.42754 0.0
H469 H 0.49538 0.59584 0.44717 0.0
H470 H 0.50167 0.63951 0.41004 0.0
S471 S 0.63425 0.65955 0.48233 0.0
N472 N 0.60642 0.6283 0.49251 0.0
N473 N 0.61378 0.67577 0.4527 0.0
C474 C 0.5825 0.65574 0.44971 0.0
C475 C 0.57866 0.62989 0.47131 0.0
C476 C 0.95464 0.82475 0.79083 0.0
C477 C 0.92209 0.83623 0.79824 0.0
C478 C 0.96867 0.82523 0.75851 0.0
C479 C 0.95057 0.83703 0.73224 0.0
H480 H 0.96921 0.81487 0.81005 0.0
H481 H 0.99343 0.81529 0.75384 0.0
S482 S 0.8646 0.87094 0.73922 0.0
N483 N 0.87236 0.86033 0.77708 0.0
N484 N 0.89874 0.86195 0.71665 0.0
C485 C 0.9184 0.84966 0.73981 0.0
C486 C 0.90416 0.84908 0.77269 0.0
C487 C 0.03805 0.9253 0.53967 0.0
C488 C 0.06533 0.91202 0.52088 0.0
C489 C 0.02623 0.91128 0.56808 0.0
C490 C 0.04123 0.88337 0.5786 0.0
H491 H 0.02432 0.94515 0.5311 0.0
H492 H 1.00378 0.92099 0.58058 0.0
S493 S 0.11631 0.84234 0.53962 0.0
N494 N 0.1092 0.87194 0.516 0.0
N495 N 0.08731 0.84548 0.56959 0.0
C496 C 0.07045 0.87185 0.56149 0.0
C497 C 0.08234 0.88612 0.53242 0.0
C498 C 0.14191 0.73268 0.69418 0.0
C499 C 0.16425 0.74758 0.72289 0.0
C500 C 0.11473 0.75017 0.6843 0.0
C501 C 0.10879 0.7833 0.70285 0.0
H502 H 0.14553 0.70728 0.67909 0.0
H503 H 0.09819 0.73744 0.66196 0.0
S504 S 0.16108 0.83346 0.78019 0.0
N505 N 0.17954 0.79704 0.76973 0.0
N506 N 0.12836 0.83029 0.7516 0.0
C507 C 0.13124 0.79845 0.73182 0.0
C508 C 0.15903 0.78049 0.74174 0.0
C509 C 0.96203 0.6568 0.56149 0.0
C510 C 0.94188 0.65241 0.53054 0.0
C511 C 0.96912 0.68991 0.58294 0.0
C512 C 0.95582 0.71956 0.57438 0.0
H513 H 0.97337 0.63477 0.56851 0.0
H514 H 0.98545 0.69233 0.60618 0.0
S515 S 0.90009 0.72084 0.49658 0.0
N516 N 0.90784 0.67958 0.4927 0.0
N517 N 0.92043 0.74175 0.5331 0.0
C518 C 0.93458 0.71504 0.54395 0.0
C519 C 0.92784 0.68146 0.52197 0.0
C520 C 0.8569 0.87008 0.21482 0.0
C521 C 0.82287 0.85948 0.22353 0.0
C522 C 0.87086 0.90568 0.22197 0.0
C523 C 0.85122 0.9317 0.23811 0.0
H524 H 0.87338 0.8506 0.20394 0.0
H525 H 0.89775 0.91256 0.21673 0.0
S526 S 0.759 0.91826 0.26037 0.0
N527 N 0.76858 0.8784 0.24476 0.0
N528 N 0.79477 0.9449 0.25861 0.0
C529 C 0.81647 0.9216 0.2447 0.0
C530 C 0.80232 0.8856 0.23734 0.0
C531 C 0.83642 0.17079 0.25837 0.0
C532 C 0.80785 0.17556 0.27935 0.0
C533 C 0.85523 0.14168 0.25793 0.0
C534 C 0.8459 0.11628 0.2783 0.0
H535 H 0.84464 0.18999 0.24272 0.0
H536 H 0.87748 0.1394 0.24204 0.0
S537 S 0.76997 0.1149 0.33414 0.0
N538 N 0.76938 0.15119 0.31847 0.0
N539 N 0.80376 0.09683 0.31772 0.0
C540 C 0.81638 0.12037 0.29829 0.0
C541 C 0.79763 0.14987 0.29881 0.0
C542 C 0.4168 0.98316 0.98973 0.0
C543 C 0.40257 0.01515 0.99386 0.0
C544 C 0.39729 0.95252 0.99551 0.0
C545 C 0.36259 0.95249 0.00533 0.0
H546 H 0.4433 0.98184 0.98206 0.0
H547 H 0.40953 0.92856 0.99179 0.0
S548 S 0.31306 0.02971 0.01883 0.0
N549 N 0.35166 0.04512 0.00785 0.0
N550 N 0.31493 0.98765 0.01884 0.0
C551 C 0.34809 0.98446 0.00962 0.0
C552 C 0.36808 0.01571 1.00388 0.0
C553 C 0.25195 0.3698 0.3625 0.0
C554 C 0.28454 0.38983 0.36565 0.0
C555 C 0.22303 0.38138 0.34794 0.0
C556 C 0.22576 0.4135 0.33613 0.0
H557 H 0.2487 0.34513 0.37161 0.0
H558 H 0.1983 0.36516 0.34634 0.0
S559 S 0.30668 0.47474 0.33792 0.0
N560 N 0.31879 0.44237 0.35544 0.0
N561 N 0.2647 0.4646 0.32797 0.0
C562 C 0.25871 0.4335 0.33886 0.0
C563 C 0.28808 0.42152 0.35367 0.0
C564 C 0.18713 0.9997 0.42615 0.0
C565 C 0.16099 0.01939 0.44016 0.0
C566 C 0.22195 0.01435 0.42892 0.0
C567 C 0.23197 0.049 0.44641 0.0
H568 H 0.1805 0.97297 0.4124 0.0
H569 H 0.24119 0.99831 0.41737 0.0
S570 S 0.17308 0.11104 0.48838 0.0
N571 N 0.14706 0.07494 0.47229 0.0
N572 N 0.2127 0.10244 0.47836 0.0
C573 C 0.20602 0.06874 0.46111 0.0
C574 C 0.17046 0.05396 0.4577 0.0
C575 C 0.71342 0.15523 0.77457 0.0
C576 C 0.74577 0.15301 0.7595 0.0
C577 C 0.69344 0.12529 0.78145 0.0
C578 C 0.70515 0.092 0.77382 0.0
H579 H 0.70371 0.18042 0.7817 0.0
H580 H 0.66888 0.12841 0.79338 0.0
S581 S 0.78665 0.07153 0.73146 0.0
N582 N 0.78746 0.11442 0.73498 0.0
N583 N 0.75039 0.05831 0.74862 0.0
C584 C 0.73721 0.08931 0.75825 0.0
C585 C 0.75738 0.11975 0.75094 0.0
C586 C 0.44325 0.04237 0.54955 0.0
C587 C 0.46318 0.0178 0.53164 0.0
C588 C 0.41741 0.05591 0.53228 0.0
C589 C 0.41057 0.04533 0.49637 0.0
H590 H 0.44788 0.05148 0.57713 0.0
H591 H 0.4029 0.07501 0.54729 0.0
S592 S 0.4561 0.98071 0.43813 0.0
N593 N 0.47486 0.9829 0.47669 0.0
N594 N 0.42617 0.00798 0.44371 0.0
C595 C 0.43039 0.02029 0.47827 0.0
C596 C 0.45677 0.0066 0.49605 0.0
C597 C 0.61742 0.47248 0.50583 0.0
C598 C 0.61432 0.48853 0.54045 0.0
C599 C 0.64507 0.45289 0.49586 0.0
C600 C 0.67082 0.44829 0.52007 0.0
H601 H 0.59786 0.47435 0.48633 0.0
H602 H 0.64589 0.44078 0.46895 0.0
S603 S 0.67671 0.48789 0.61347 0.0
N604 N 0.64109 0.50076 0.59854 0.0
N605 N 0.69239 0.46351 0.58005 0.0
C606 C 0.66846 0.4649 0.55466 0.0
C607 C 0.64046 0.48507 0.56475 0.0
C608 C 0.7522 0.25665 0.37961 0.0
C609 C 0.75394 0.27349 0.35088 0.0
C610 C 0.75338 0.27586 0.41343 0.0
C611 C 0.75527 0.31264 0.41998 0.0
H612 H 0.75151 0.22839 0.37608 0.0
H613 H 0.75451 0.26192 0.43472 0.0
S614 S 0.75728 0.36961 0.35446 0.0
N615 N 0.7557 0.32945 0.33161 0.0
N616 N 0.75645 0.36523 0.3953 0.0
C617 C 0.75434 0.32976 0.39168 0.0
C618 C 0.75389 0.31026 0.35709 0.0
C619 C 0.52179 1.00271 0.8795 0.0
C620 C 0.52503 0.03939 0.88826 0.0
C621 C 0.54856 0.98551 0.86328 0.0
C622 C 0.57938 1.00451 0.85514 0.0
H623 H 0.49823 0.98725 0.88465 0.0
H624 H 0.54463 0.95714 0.85637 0.0
S625 S 0.60031 0.10158 0.87483 0.0
N626 N 0.56111 0.09437 0.88921 0.0
N627 N 0.61158 0.06249 0.85882 0.0
C628 C 0.58298 0.0414 0.86477 0.0
C629 C 0.55572 0.05874 0.8813 0.0
C630 C 0.37799 0.24314 0.42056 0.0
C631 C 0.37231 0.2445 0.38549 0.0
C632 C 0.37201 0.21146 0.43248 0.0
C633 C 0.36034 0.17979 0.40978 0.0
H634 H 0.38665 0.2669 0.43906 0.0
H635 H 0.37627 0.21189 0.45982 0.0
S636 S 0.34113 0.16918 0.31547 0.0
N637 N 0.35391 0.21148 0.32819 0.0
N638 N 0.34352 0.15175 0.35044 0.0
C639 C 0.35537 0.1806 0.37448 0.0
C640 C 0.36116 0.21297 0.36238 0.0
C641 C 0.49888 0.51741 0.92436 0.0
C642 C 0.5312 0.50759 0.91344 0.0
C643 C 0.47093 0.51614 0.90069 0.0
C644 C 0.47406 0.50533 0.86493 0.0
H645 H 0.49523 0.52684 0.95145 0.0
H646 H 0.44672 0.52416 0.9106 0.0
S647 S 0.55244 0.47482 0.82288 0.0
N648 N 0.56416 0.48488 0.86441 0.0
N649 N 0.51184 0.48339 0.81983 0.0
C650 C 0.50614 0.49524 0.85356 0.0
C651 C 0.5346 0.49616 0.87779 0.0
C652 C 0.81465 0.70497 0.15362 0.0
C653 C 0.8024 0.73739 0.15246 0.0
C654 C 0.81874 0.68096 0.12332 0.0
C655 C 0.81104 0.68855 0.09064 0.0
H656 H 0.82162 0.69826 0.17817 0.0
H657 H 0.82856 0.6565 0.12558 0.0
S658 S 0.77568 0.76867 0.07349 0.0
N659 N 0.78061 0.7749 0.11596 0.0
N660 N 0.78905 0.73019 0.05895 0.0
C661 C 0.79841 0.72072 0.08907 0.0
C662 C 0.79394 0.74503 0.11997 0.0
C663 C 0.98604 0.0289 0.09332 0.0
C664 C 0.02188 0.03284 0.10207 0.0
C665 C 0.96126 0.02967 0.11876 0.0
C666 C 0.97113 0.03469 0.1542 0.0
H667 H 0.97699 0.02411 0.06646 0.0
H668 H 0.93405 0.02578 0.11039 0.0
S669 S 0.06202 0.04923 0.19094 0.0
N670 N 0.06611 0.04404 0.14882 0.0
N671 N 0.01985 0.0455 0.19656 0.0
C672 C 0.00702 0.03978 0.16334 0.0
C673 C 0.03223 0.0388 0.13736 0.0
C674 C 0.25161 0.80351 0.14798 0.0
C675 C 0.27855 0.79011 0.16409 0.0
C676 C 0.25783 0.82085 0.12013 0.0
C677 C 0.29121 0.82512 0.10727 0.0
H678 H 0.22532 0.79971 0.15634 0.0
H679 H 0.23606 0.82977 0.10783 0.0
S680 S 0.37102 0.79699 0.14313 0.0
N681 N 0.33986 0.78384 0.16712 0.0
N682 N 0.35211 0.81642 0.11502 0.0
C683 C 0.31863 0.8129 0.12436 0.0
C684 C 0.31215 0.79534 0.1527 0.0
C685 C 0.07088 0.41446 0.14559 0.0
C686 C 0.07989 0.44298 0.1292 0.0
C687 C 0.08688 0.4128 0.17749 0.0
C688 C 0.1125 0.43959 0.19402 0.0
H689 H 0.04998 0.39437 0.13467 0.0
H690 H 0.07781 0.39124 0.19001 0.0
S691 S 0.14902 0.51683 0.1582 0.0
N692 N 0.11853 0.49626 0.12926 0.0
N693 N 0.14903 0.49326 0.18892 0.0
C694 C 0.12352 0.46684 0.17633 0.0
C695 C 0.10705 0.46854 0.14402 0.0
C696 C 0.38494 0.69726 0.27601 0.0
C697 C 0.36351 0.72396 0.27413 0.0
C698 C 0.41925 0.70505 0.29017 0.0
C699 C 0.43367 0.73991 0.30248 0.0
H700 H 0.37514 0.67001 0.26644 0.0
H701 H 0.43471 0.68372 0.29102 0.0
S702 S 0.38816 0.81935 0.30599 0.0
N703 N 0.35899 0.78657 0.28804 0.0
N704 N 0.4235 0.80129 0.31324 0.0
C705 C 0.41258 0.76682 0.30081 0.0
C706 C 0.37759 0.75887 0.28694 0.0
C707 C 0.02395 0.36681 0.00708 0.0
C708 C 0.03036 0.40314 0.00778 0.0
C709 C 0.0227 0.34253 0.97592 0.0
C710 C 0.02785 0.35366 0.94424 0.0
H711 H 0.01972 0.35706 0.03081 0.0
H712 H 0.01761 0.31486 0.97674 0.0
S713 S 0.04749 0.44612 0.93256 0.0
N714 N 0.04338 0.44906 0.97447 0.0
N715 N 0.04063 0.40382 0.91592 0.0
C716 C 0.03445 0.39004 0.94472 0.0
C717 C 0.03578 0.41466 0.97644 0.0
C718 C 0.68494 0.73343 0.31147 0.0
C719 C 0.69644 0.74813 0.28327 0.0
C720 C 0.65005 0.73272 0.3204 0.0
C721 C 0.62575 0.74712 0.30159 0.0
H722 H 0.70324 0.7236 0.32749 0.0
H723 H 0.64257 0.72261 0.34326 0.0
S724 S 0.64297 0.78525 0.22316 0.0
N725 N 0.68098 0.77469 0.23498 0.0
N726 N 0.61552 0.77362 0.25142 0.0
C727 C 0.6369 0.76019 0.27216 0.0
C728 C 0.67228 0.76069 0.26311 0.0
C729 C 0.06216 0.15178 0.9899 0.0
C730 C 0.04474 0.11883 0.97489 0.0
C731 C 0.05881 0.18154 0.97516 0.0
C732 C 0.03821 0.17943 0.94456 0.0
H733 H 0.07951 0.15437 0.01247 0.0
H734 H 0.07346 0.20616 0.98735 0.0
S735 S 0.98592 0.09874 0.89643 0.0
N736 N 1.00519 0.08562 0.92886 0.0
N737 N 0.99869 0.14121 0.901 0.0
C738 C 0.01972 0.14657 0.93006 0.0
C739 C 0.0231 0.11637 0.94524 0.0
C740 C 0.38856 0.32873 0.27221 0.0
C741 C 0.40804 0.3193 0.29887 0.0
C742 C 0.40226 0.32957 0.23985 0.0
C743 C 0.4361 0.32116 0.23288 0.0
H744 H 0.36203 0.33435 0.27598 0.0
H745 H 0.38577 0.33608 0.21994 0.0
S746 S 0.49897 0.29833 0.29561 0.0
N747 N 0.46366 0.30402 0.31737 0.0
N748 N 0.48962 0.30549 0.2566 0.0
C749 C 0.45639 0.31314 0.25995 0.0
C750 C 0.44231 0.31217 0.29287 0.0
C751 C 0.5081 0.43437 0.05269 0.0
C752 C 0.54408 0.44355 0.05418 0.0
C753 C 0.49345 0.40765 0.06914 0.0
C754 C 0.51434 0.3893 0.0878 0.0
H755 H 0.49113 0.44819 0.03913 0.0
H756 H 0.46547 0.40154 0.06733 0.0
S757 S 0.61059 0.40441 0.09893 0.0
N758 N 0.60052 0.43298 0.07523 0.0
N759 N 0.57337 0.38275 0.10624 0.0
C760 C 0.5506 0.3984 0.08911 0.0
C761 C 0.56537 0.42557 0.07228 0.0
C762 C 0.6427 0.24975 0.19138 0.0
C763 C 0.66828 0.27135 0.21368 0.0
C764 C 0.61176 0.26225 0.1826 0.0
C765 C 0.60523 0.2969 0.19585 0.0
H766 H 0.64675 0.22303 0.18032 0.0
H767 H 0.59287 0.24452 0.16518 0.0
S768 S 0.66489 0.36374 0.25566 0.0
N769 N 0.68578 0.32862 0.24903 0.0
N770 N 0.62764 0.35253 0.23286 0.0
C771 C 0.63081 0.31867 0.21856 0.0
C772 C 0.66238 0.30579 0.22738 0.0
C773 C 0.4282 0.17092 0.02013 0.0
C774 C 0.44505 0.14314 0.02802 0.0
C775 C 0.4318 0.20361 0.04242 0.0
C776 C 0.45302 0.20982 0.07299 0.0
H777 H 0.41234 0.1674 0.99642 0.0
H778 H 0.41861 0.22442 0.03513 0.0
S779 S 0.50206 0.1449 0.10533 0.0
N780 N 0.48282 0.1232 0.06854 0.0
N781 N 0.49036 0.1849 0.1103 0.0
C782 C 0.46974 0.18198 0.08126 0.0
C783 C 0.46553 0.14853 0.0588 0.0
C784 C 0.34901 0.33964 0.7257 0.0
C785 C 0.3139 0.32843 0.73047 0.0
C786 C 0.36295 0.37503 0.7357 0.0
C787 C 0.34241 0.40044 0.75129 0.0
H788 H 0.36629 0.32073 0.7154 0.0
H789 H 0.39035 0.38218 0.73284 0.0
S790 S 0.24804 0.3861 0.76491 0.0
N791 N 0.25811 0.34679 0.7479 0.0
N792 N 0.28456 0.41279 0.76792 0.0
C793 C 0.30699 0.38997 0.75471 0.0
C794 C 0.29269 0.35413 0.74406 0.0
C795 C 0.33775 0.64916 0.79393 0.0
C796 C 0.3016 0.64447 0.78655 0.0
C797 C 0.35653 0.62016 0.79351 0.0
C798 C 0.33957 0.58568 0.78631 0.0
H799 H 0.35148 0.6754 0.80043 0.0
H800 H 0.38413 0.62476 0.80024 0.0
S801 S 0.24558 0.55931 0.76536 0.0
N802 N 0.24991 0.6026 0.7713 0.0
N803 N 0.28495 0.54846 0.77136 0.0
C804 C 0.30364 0.58073 0.77851 0.0
C805 C 0.28471 0.61003 0.77838 0.0
C806 C 0.90943 0.4926 0.49474 0.0
C807 C 0.89589 0.52491 0.49829 0.0
C808 C 0.88903 0.46231 0.50006 0.0
C809 C 0.85407 0.46295 0.50887 0.0
H810 H 0.93605 0.49069 0.4877 0.0
H811 H 0.90078 0.43807 0.49668 0.0
S812 S 0.80622 0.54134 0.52101 0.0
N813 N 0.84547 0.55601 0.51102 0.0
N814 N 0.80701 0.49915 0.52115 0.0
C815 C 0.84031 0.4953 0.51285 0.0
C816 C 0.86123 0.52622 0.50756 0.0
C817 C 0.76907 0.8867 0.86874 0.0
C818 C 0.80111 0.90715 0.86887 0.0
C819 C 0.73908 0.89571 0.85356 0.0
C820 C 0.74015 0.92559 0.83807 0.0
H821 H 0.76712 0.86359 0.8805 0.0
H822 H 0.71486 0.8792 0.85425 0.0
S823 S 0.81899 0.9869 0.83109 0.0
N824 N 0.83306 0.95771 0.85195 0.0
N825 N 0.77688 0.97513 0.82335 0.0
C826 C 0.77248 0.94609 0.83794 0.0
C827 C 0.80297 0.93672 0.85335 0.0
C828 C 0.67555 0.53666 0.92751 0.0
C829 C 0.65504 0.55244 0.95332 0.0
C830 C 0.71039 0.55004 0.92541 0.0
C831 C 0.72587 0.57972 0.94903 0.0
H832 H 0.66506 0.51292 0.90983 0.0
H833 H 0.72556 0.53628 0.90585 0.0
S834 S 0.68116 0.63305 0.01859 0.0
N835 N 0.65123 0.60092 1.00079 0.0
N836 N 0.71641 0.62634 0.99704 0.0
C837 C 0.7048 0.59679 0.97377 0.0
C838 C 0.66948 0.58308 0.97587 0.0
C839 C 0.21672 0.65189 0.28521 0.0
C840 C 0.2498 0.64812 0.27224 0.0
C841 C 0.19531 0.6231 0.29258 0.0
C842 C 0.20613 0.58934 0.28737 0.0
H843 H 0.20716 0.67731 0.28947 0.0
H844 H 0.16994 0.62737 0.30215 0.0
S845 S 0.29058 0.56547 0.25381 0.0
N846 N 0.29237 0.60802 0.25436 0.0
N847 N 0.25256 0.55398 0.26874 0.0
C848 C 0.23951 0.58534 0.27507 0.0
C849 C 0.26123 0.61469 0.26741 0.0
C850 C 0.9459 0.52613 1.00416 0.0
C851 C 0.95102 0.53562 0.04013 0.0
C852 C 0.92094 0.54068 0.98645 0.0
C853 C 0.90052 0.56532 1.00421 0.0
H854 H 0.96151 0.50774 0.98963 0.0
H855 H 0.91806 0.53297 0.95862 0.0
S856 S 0.90412 0.59736 0.09922 0.0
N857 N 0.93381 0.5699 0.09319 0.0
N858 N 0.88703 0.59743 0.06045 0.0
C859 C 0.90538 0.57441 0.04047 0.0
C860 C 0.93064 0.55949 0.05829 0.0
C861 C 0.15591 0.98246 0.03805 0.0
C862 C 0.12175 0.97331 0.04733 0.0
C863 C 0.18081 0.95863 0.03548 0.0
C864 C 0.17285 0.92447 0.0422 0.0
H865 H 0.16355 0.00839 0.03267 0.0
H866 H 0.2066 0.9672 0.02818 0.0
S867 S 0.08688 0.88688 0.06663 0.0
N868 N 0.0811 0.92722 0.06249 0.0
N869 N 0.12786 0.88271 0.05838 0.0
C870 C 0.13884 0.91503 0.05182 0.0
C871 C 0.11339 0.93932 0.05426 0.0
loop_
_geom_bond_atom_site_label_1
_geom_bond_atom_site_label_2
_geom_bond_distance
_geom_bond_site_symmetry_2
_ccdc_geom_bond_type
H0 C3 0.929 . S
H1 C6 0.929 . S
H2 C8 0.930 . S
C3 H0 0.929 . S
C3 C4 1.398 . S
C3 C5 1.396 . S
C4 C3 1.398 . S
C4 C8 1.407 . S
C5 C3 1.396 . S
C5 C6 1.394 . S
C6 H1 0.929 . S
C6 C5 1.394 . S
C6 C7 1.382 . S
C7 C6 1.382 . S
C7 C8 1.392 . S
C7 N9 1.420 . S
C8 H2 0.930 . S
C8 C4 1.407 . S
C8 C7 1.392 . S
N9 C7 1.420 . S
N9 C10 1.244 . S
C10 N9 1.244 . S
H11 C14 0.929 . S
H12 C17 0.929 . S
H13 C19 0.930 . S
C14 H11 0.929 . S
C14 C15 1.398 . S
C14 C16 1.396 . S
C15 C14 1.398 . S
C15 C19 1.407 . S
C16 C14 1.396 . S
C16 C17 1.394 . S
C17 H12 0.929 . S
C17 C16 1.394 . S
C17 C18 1.382 . S
C18 C17 1.382 . S
C18 C19 1.392 . S
C18 N20 1.420 . S
C19 H13 0.930 . S
C19 C15 1.407 . S
C19 C18 1.392 . S
N20 C18 1.420 . S
N20 C21 1.244 . S
C21 N20 1.244 . S
H22 C25 0.929 . S
H23 C28 0.929 . S
H24 C30 0.930 1_556 S
C25 H22 0.929 . S
C25 C26 1.398 1_455 S
C25 C27 1.396 . S
C26 C25 1.398 1_655 S
C26 C30 1.407 . S
C27 C25 1.396 . S
C27 C28 1.394 1_455 S
C28 H23 0.929 . S
C28 C27 1.394 1_655 S
C28 C29 1.382 . S
C29 C28 1.382 . S
C29 C30 1.392 . S
C29 N31 1.420 . S
C30 H24 0.930 1_554 S
C30 C26 1.407 . S
C30 C29 1.392 . S
N31 C29 1.420 . S
N31 C32 1.244 . S
C32 N31 1.244 . S
H33 C36 0.929 . S
H34 C39 0.929 . S
H35 C41 0.930 . S
C36 H33 0.929 . S
C36 C37 1.398 . S
C36 C38 1.396 . S
C37 C36 1.398 . S
C37 C41 1.407 . S
C38 C36 1.396 . S
C38 C39 1.394 . S
C39 H34 0.929 . S
C39 C38 1.394 . S
C39 C40 1.382 . S
C40 C39 1.382 . S
C40 C41 1.392 . S
C40 N42 1.420 . S
C41 H35 0.930 . S
C41 C37 1.407 . S
C41 C40 1.392 . S
N42 C40 1.420 . S
N42 C43 1.244 . S
C43 N42 1.244 . S
H44 C47 0.929 1_545 S
H45 C50 0.929 . S
H46 C52 0.930 . S
C47 H44 0.929 1_565 S
C47 C48 1.398 . S
C47 C49 1.396 . S
C48 C47 1.398 . S
C48 C52 1.407 . S
C49 C47 1.396 . S
C49 C50 1.394 . S
C50 H45 0.929 . S
C50 C49 1.394 . S
C50 C51 1.382 . S
C51 C50 1.382 . S
C51 C52 1.392 . S
C51 N53 1.420 . S
C52 H46 0.930 . S
C52 C48 1.407 . S
C52 C51 1.392 . S
N53 C51 1.420 . S
N53 C54 1.244 . S
C54 N53 1.244 . S
H55 C58 0.929 . S
H56 C61 0.929 . S
H57 C63 0.930 . S
C58 H55 0.929 . S
C58 C59 1.398 . S
C58 C60 1.396 . S
C59 C58 1.398 . S
C59 C63 1.407 . S
C60 C58 1.396 . S
C60 C61 1.394 . S
C61 H56 0.929 . S
C61 C60 1.394 . S
C61 C62 1.382 . S
C62 C61 1.382 . S
C62 C63 1.392 . S
C62 N64 1.420 . S
C63 H57 0.930 . S
C63 C59 1.407 . S
C63 C62 1.392 . S
N64 C62 1.420 . S
N64 C65 1.244 . S
C65 N64 1.244 . S
H66 C69 0.929 . S
H67 C72 0.929 1_455 S
H68 C74 0.930 . S
C69 H66 0.929 . S
C69 C70 1.398 . S
C69 C71 1.396 . S
C70 C69 1.398 . S
C70 C74 1.407 . S
C71 C69 1.396 . S
C71 C72 1.394 . S
C72 H67 0.929 1_655 S
C72 C71 1.394 . S
C72 C73 1.382 . S
C73 C72 1.382 . S
C73 C74 1.392 . S
C73 N75 1.420 1_655 S
C74 H68 0.930 . S
C74 C70 1.407 . S
C74 C73 1.392 . S
N75 C73 1.420 1_455 S
N75 C76 1.244 . S
C76 N75 1.244 . S
H77 C80 0.929 . S
H78 C83 0.929 . S
H79 C85 0.930 . S
C80 H77 0.929 . S
C80 C81 1.398 . S
C80 C82 1.396 . S
C81 C80 1.398 . S
C81 C85 1.407 . S
C82 C80 1.396 . S
C82 C83 1.394 . S
C83 H78 0.929 . S
C83 C82 1.394 . S
C83 C84 1.382 . S
C84 C83 1.382 . S
C84 C85 1.392 . S
C84 N86 1.420 . S
C85 H79 0.930 . S
C85 C81 1.407 . S
C85 C84 1.392 . S
N86 C84 1.420 . S
N86 C87 1.244 . S
C87 N86 1.244 . S
H88 C91 0.929 . S
H89 C94 0.929 . S
H90 C96 0.930 . S
C91 H88 0.929 . S
C91 C92 1.398 . S
C91 C93 1.396 . S
C92 C91 1.398 . S
C92 C96 1.407 . S
C93 C91 1.396 . S
C93 C94 1.394 . S
C94 H89 0.929 . S
C94 C93 1.394 . S
C94 C95 1.382 . S
C95 C94 1.382 . S
C95 C96 1.392 . S
C95 N97 1.420 . S
C96 H90 0.930 . S
C96 C92 1.407 . S
C96 C95 1.392 . S
N97 C95 1.420 . S
N97 C98 1.244 . S
C98 N97 1.244 . S
H99 C102 0.929 . S
H100 C105 0.929 1_545 S
H101 C107 0.930 . S
C102 H99 0.929 . S
C102 C103 1.398 . S
C102 C104 1.396 . S
C103 C102 1.398 . S
C103 C107 1.407 . S
C104 C102 1.396 . S
C104 C105 1.394 . S
C105 H100 0.929 1_565 S
C105 C104 1.394 . S
C105 C106 1.382 . S
C106 C105 1.382 . S
C106 C107 1.392 . S
C106 N108 1.446 . S
C107 H101 0.930 . S
C107 C103 1.407 . S
C107 C106 1.392 . S
N108 C106 1.446 . S
N108 C109 1.228 1_565 S
C109 N108 1.228 1_545 S
H110 C113 0.929 . S
H111 C116 0.929 . S
H112 C118 0.930 . S
C113 H110 0.929 . S
C113 C114 1.398 . S
C113 C115 1.396 . S
C114 C113 1.398 . S
C114 C118 1.407 . S
C115 C113 1.396 . S
C115 C116 1.394 . S
C116 H111 0.929 . S
C116 C115 1.394 . S
C116 C117 1.382 . S
C117 C116 1.382 . S
C117 C118 1.392 . S
C117 N119 1.420 . S
C118 H112 0.930 . S
C118 C114 1.407 . S
C118 C117 1.392 . S
N119 C117 1.420 . S
N119 C120 1.244 . S
C120 N119 1.244 . S
H121 C124 0.929 . S
H122 C127 0.929 . S
H123 C129 0.930 . S
C124 H121 0.929 . S
C124 C125 1.398 . S
C124 C126 1.396 . S
C125 C124 1.398 . S
C125 C129 1.407 . S
C126 C124 1.396 . S
C126 C127 1.394 . S
C127 H122 0.929 . S
C127 C126 1.394 . S
C127 C128 1.382 . S
C128 C127 1.382 . S
C128 C129 1.392 . S
C128 N130 1.420 . S
C129 H123 0.930 . S
C129 C125 1.407 . S
C129 C128 1.392 . S
N130 C128 1.420 . S
N130 C131 1.244 . S
C131 N130 1.244 . S
H132 C135 0.929 . S
H133 C138 0.929 . S
H134 C140 0.930 . S
C135 H132 0.929 . S
C135 C136 1.398 . S
C135 C137 1.396 . S
C136 C135 1.398 . S
C136 C140 1.407 . S
C137 C135 1.396 . S
C137 C138 1.394 . S
C138 H133 0.929 . S
C138 C137 1.394 . S
C138 C139 1.382 . S
C139 C138 1.382 . S
C139 C140 1.392 . S
C139 N141 1.420 . S
C140 H134 0.930 . S
C140 C136 1.407 . S
C140 C139 1.392 . S
N141 C139 1.420 . S
N141 C142 1.244 . S
C142 N141 1.244 . S
H143 C146 0.929 . S
H144 C149 0.929 1_554 S
H145 C151 0.930 . S
C146 H143 0.929 . S
C146 C147 1.398 . S
C146 C148 1.396 . S
C147 C146 1.398 . S
C147 C151 1.407 . S
C148 C146 1.396 . S
C148 C149 1.394 . S
C149 H144 0.929 1_556 S
C149 C148 1.394 . S
C149 C150 1.382 . S
C150 C149 1.382 . S
C150 C151 1.392 . S
C150 N152 1.420 1_556 S
C151 H145 0.930 . S
C151 C147 1.407 . S
C151 C150 1.392 . S
N152 C150 1.420 1_554 S
N152 C153 1.244 . S
C153 N152 1.244 . S
H154 C157 0.929 . S
H155 C160 0.929 . S
H156 C162 0.930 . S
C157 H154 0.929 . S
C157 C158 1.398 . S
C157 C159 1.396 . S
C158 C157 1.398 . S
C158 C162 1.407 . S
C159 C157 1.396 . S
C159 C160 1.394 . S
C160 H155 0.929 . S
C160 C159 1.394 . S
C160 C161 1.382 . S
C161 C160 1.382 . S
C161 C162 1.392 . S
C161 N163 1.420 . S
C162 H156 0.930 . S
C162 C158 1.407 . S
C162 C161 1.392 . S
N163 C161 1.420 . S
N163 C164 1.244 . S
C164 N163 1.244 . S
H165 C168 0.929 1_554 S
H166 C171 0.929 . S
H167 C173 0.930 1_565 S
C168 H165 0.929 1_556 S
C168 C169 1.398 . S
C168 C170 1.396 . S
C169 C168 1.398 . S
C169 C173 1.407 . S
C170 C168 1.396 . S
C170 C171 1.394 . S
C171 H166 0.929 . S
C171 C170 1.394 . S
C171 C172 1.382 . S
C172 C171 1.382 . S
C172 C173 1.392 . S
C172 N174 1.420 . S
C173 H167 0.930 1_545 S
C173 C169 1.407 . S
C173 C172 1.392 . S
N174 C172 1.420 . S
N174 C175 1.244 . S
C175 N174 1.244 . S
Zn176 O179 2.031 . S
Zn176 O181 2.049 . S
Zn176 O186 2.067 1_554 S
Zn177 O178 1.962 . S
Zn177 O180 1.986 . S
Zn177 O182 1.996 . S
Zn177 O185 1.943 . S
O178 Zn177 1.962 . S
O178 C183 1.254 . S
O179 Zn176 2.031 . S
O179 C183 1.269 . S
O180 Zn177 1.986 . S
O180 C187 1.262 . S
O181 Zn176 2.049 . S
O181 C189 1.260 . S
O182 Zn177 1.996 . S
O182 C189 1.257 . S
C183 O178 1.254 . S
C183 O179 1.269 . S
C184 O185 1.249 1_556 S
C184 O186 1.270 . S
O185 Zn177 1.943 . S
O185 C184 1.249 1_554 S
O186 Zn176 2.067 1_556 S
O186 C184 1.270 . S
C187 O180 1.262 . S
C187 O188 1.232 . S
O188 C187 1.232 . S
C189 O181 1.260 . S
C189 O182 1.257 . S
Zn190 O193 2.031 . S
Zn190 O195 2.049 . S
Zn190 O200 2.067 . S
Zn191 O192 1.962 . S
Zn191 O194 1.986 . S
Zn191 O196 1.996 . S
Zn191 O199 1.943 . S
O192 Zn191 1.962 . S
O192 C197 1.254 . S
O193 Zn190 2.031 . S
O193 C197 1.269 . S
O194 Zn191 1.986 . S
O194 C201 1.262 . S
O195 Zn190 2.049 . S
O195 C203 1.260 . S
O196 Zn191 1.996 . S
O196 C203 1.257 . S
C197 O192 1.254 . S
C197 O193 1.269 . S
C198 O199 1.249 . S
C198 O200 1.270 . S
O199 Zn191 1.943 . S
O199 C198 1.249 . S
O200 Zn190 2.067 . S
O200 C198 1.270 . S
C201 O194 1.262 . S
C201 O202 1.232 . S
O202 C201 1.232 . S
C203 O195 1.260 . S
C203 O196 1.257 . S
Zn204 O207 2.031 . S
Zn204 O209 2.049 . S
Zn204 O214 2.067 . S
Zn205 O206 1.962 . S
Zn205 O208 1.986 . S
Zn205 O210 1.996 1_554 S
Zn205 O213 1.943 . S
O206 Zn205 1.962 . S
O206 C211 1.254 . S
O207 Zn204 2.031 . S
O207 C211 1.269 1_556 S
O208 Zn205 1.986 . S
O208 C215 1.262 . S
O209 Zn204 2.049 . S
O209 C217 1.260 . S
O210 Zn205 1.996 1_556 S
O210 C217 1.257 . S
C211 O206 1.254 . S
C211 O207 1.269 1_554 S
C212 O213 1.249 1_556 S
C212 O214 1.270 . S
O213 Zn205 1.943 . S
O213 C212 1.249 1_554 S
O214 Zn204 2.067 . S
O214 C212 1.270 . S
C215 O208 1.262 . S
C215 O216 1.232 . S
O216 C215 1.232 . S
C217 O209 1.260 . S
C217 O210 1.257 . S
Zn218 O221 2.031 . S
Zn218 O223 2.049 . S
Zn218 O228 2.067 1_545 S
Zn219 O220 1.962 . S
Zn219 O222 1.986 . S
Zn219 O224 1.996 . S
Zn219 O227 1.943 1_545 S
O220 Zn219 1.962 . S
O220 C225 1.254 . S
O221 Zn218 2.031 . S
O221 C225 1.269 . S
O222 Zn219 1.986 . S
O222 C229 1.262 . S
O223 Zn218 2.049 . S
O223 C231 1.260 . S
O224 Zn219 1.996 . S
O224 C231 1.257 . S
C225 O220 1.254 . S
C225 O221 1.269 . S
C226 O227 1.249 . S
C226 O228 1.270 . S
O227 Zn219 1.943 1_565 S
O227 C226 1.249 . S
O228 Zn218 2.067 1_565 S
O228 C226 1.270 . S
C229 O222 1.262 . S
C229 O230 1.232 . S
O230 C229 1.232 . S
C231 O223 1.260 . S
C231 O224 1.257 . S
Zn232 O235 2.031 . S
Zn232 O237 2.049 . S
Zn232 O242 2.067 . S
Zn233 O234 1.962 . S
Zn233 O236 1.986 . S
Zn233 O238 1.996 . S
Zn233 O241 1.943 . S
O234 Zn233 1.962 . S
O234 C239 1.254 . S
O235 Zn232 2.031 . S
O235 C239 1.269 . S
O236 Zn233 1.986 . S
O236 C243 1.262 . S
O237 Zn232 2.049 . S
O237 C245 1.260 . S
O238 Zn233 1.996 . S
O238 C245 1.257 . S
C239 O234 1.254 . S
C239 O235 1.269 . S
C240 O241 1.249 . S
C240 O242 1.270 . S
O241 Zn233 1.943 . S
O241 C240 1.249 . S
O242 Zn232 2.067 . S
O242 C240 1.270 . S
C243 O236 1.262 . S
C243 O244 1.232 . S
O244 C243 1.232 . S
C245 O237 1.260 . S
C245 O238 1.257 . S
Zn246 O249 2.031 . S
Zn246 O251 2.049 . S
Zn246 O256 2.067 . S
Zn247 O248 1.962 . S
Zn247 O250 1.986 . S
Zn247 O252 1.996 . S
Zn247 O255 1.943 . S
O248 Zn247 1.962 . S
O248 C253 1.254 . S
O249 Zn246 2.031 . S
O249 C253 1.269 . S
O250 Zn247 1.986 . S
O250 C257 1.262 . S
O251 Zn246 2.049 . S
O251 C259 1.260 . S
O252 Zn247 1.996 . S
O252 C259 1.257 . S
C253 O248 1.254 . S
C253 O249 1.269 . S
C254 O255 1.249 . S
C254 O256 1.270 . S
O255 Zn247 1.943 . S
O255 C254 1.249 . S
O256 Zn246 2.067 . S
O256 C254 1.270 . S
C257 O250 1.262 . S
C257 O258 1.232 . S
O258 C257 1.232 . S
C259 O251 1.260 . S
C259 O252 1.257 . S
Zn260 O263 2.031 . S
Zn260 O265 2.049 . S
Zn260 O270 2.067 . S
Zn261 O262 1.962 . S
Zn261 O264 1.986 . S
Zn261 O266 1.996 . S
Zn261 O269 1.943 . S
O262 Zn261 1.962 . S
O262 C267 1.254 . S
O263 Zn260 2.031 . S
O263 C267 1.269 . S
O264 Zn261 1.986 . S
O264 C271 1.262 . S
O265 Zn260 2.049 . S
O265 C273 1.260 . S
O266 Zn261 1.996 . S
O266 C273 1.257 . S
C267 O262 1.254 . S
C267 O263 1.269 . S
C268 O269 1.249 . S
C268 O270 1.270 . S
O269 Zn261 1.943 . S
O269 C268 1.249 . S
O270 Zn260 2.067 . S
O270 C268 1.270 . S
C271 O264 1.262 . S
C271 O272 1.232 . S
O272 C271 1.232 . S
C273 O265 1.260 . S
C273 O266 1.257 . S
Zn274 O277 2.031 . S
Zn274 O279 2.049 . S
Zn274 O284 2.067 . S
Zn275 O276 1.962 . S
Zn275 O278 1.986 . S
Zn275 O280 1.996 1_545 S
Zn275 O283 1.942 . S
O276 Zn275 1.962 . S
O276 C281 1.254 . S
O277 Zn274 2.031 . S
O277 C281 1.269 1_565 S
O278 Zn275 1.986 . S
O278 C285 1.262 . S
O279 Zn274 2.049 . S
O279 C287 1.260 . S
O280 Zn275 1.996 1_565 S
O280 C287 1.257 . S
C281 O276 1.254 . S
C281 O277 1.269 1_545 S
C282 O283 1.233 1_565 S
C282 O284 1.270 . S
O283 Zn275 1.942 . S
O283 C282 1.233 1_545 S
O284 Zn274 2.067 . S
O284 C282 1.270 . S
C285 O278 1.262 . S
C285 O286 1.232 . S
O286 C285 1.232 . S
C287 O279 1.260 . S
C287 O280 1.257 . S
Zn288 O291 2.031 . S
Zn288 O293 2.044 1_455 S
Zn288 O298 2.067 1_455 S
Zn289 O290 1.962 . S
Zn289 O292 1.986 . S
Zn289 O294 1.996 . S
Zn289 O297 1.943 1_455 S
O290 Zn289 1.962 . S
O290 C295 1.254 . S
O291 Zn288 2.031 . S
O291 C295 1.269 . S
O292 Zn289 1.986 . S
O292 C299 1.262 . S
O293 Zn288 2.044 1_655 S
O293 C301 1.257 1_655 S
O294 Zn289 1.996 . S
O294 C301 1.257 . S
C295 O290 1.254 . S
C295 O291 1.269 . S
C296 O297 1.249 . S
C296 O298 1.270 . S
O297 Zn289 1.943 1_655 S
O297 C296 1.249 . S
O298 Zn288 2.067 1_655 S
O298 C296 1.270 . S
C299 O292 1.262 . S
C299 O300 1.232 . S
O300 C299 1.232 . S
C301 O293 1.257 1_455 S
C301 O294 1.257 . S
Zn302 O305 2.031 . S
Zn302 O307 2.049 . S
Zn302 O312 2.067 . S
Zn303 O304 1.962 . S
Zn303 O306 1.986 . S
Zn303 O308 1.996 . S
Zn303 O311 1.943 . S
O304 Zn303 1.962 . S
O304 C309 1.254 . S
O305 Zn302 2.031 . S
O305 C309 1.269 . S
O306 Zn303 1.986 . S
O306 C313 1.262 . S
O307 Zn302 2.049 . S
O307 C315 1.260 . S
O308 Zn303 1.996 . S
O308 C315 1.257 . S
C309 O304 1.254 . S
C309 O305 1.269 . S
C310 O311 1.249 . S
C310 O312 1.270 . S
O311 Zn303 1.943 . S
O311 C310 1.249 . S
O312 Zn302 2.067 . S
O312 C310 1.270 . S
C313 O306 1.262 . S
C313 O314 1.232 . S
O314 C313 1.232 . S
C315 O307 1.260 . S
C315 O308 1.257 . S
Zn316 O319 2.031 1_655 S
Zn316 O321 2.049 . S
Zn316 O326 2.067 . S
Zn317 O318 1.962 . S
Zn317 O320 1.986 . S
Zn317 O322 1.996 1_455 S
Zn317 O325 1.943 . S
O318 Zn317 1.962 . S
O318 C323 1.254 . S
O319 Zn316 2.031 1_455 S
O319 C323 1.269 . S
O320 Zn317 1.986 . S
O320 C327 1.262 . S
O321 Zn316 2.049 . S
O321 C329 1.260 . S
O322 Zn317 1.996 1_655 S
O322 C329 1.257 . S
C323 O318 1.254 . S
C323 O319 1.269 . S
C324 O325 1.249 1_655 S
C324 O326 1.270 . S
O325 Zn317 1.943 . S
O325 C324 1.249 1_455 S
O326 Zn316 2.067 . S
O326 C324 1.270 . S
C327 O320 1.262 . S
C327 O328 1.232 . S
O328 C327 1.232 . S
C329 O321 1.260 . S
C329 O322 1.257 . S
Zn330 O333 2.031 . S
Zn330 O335 2.049 . S
Zn330 O340 2.067 . S
Zn331 O332 1.962 . S
Zn331 O334 1.986 . S
Zn331 O336 1.996 . S
Zn331 O339 1.943 . S
O332 Zn331 1.962 . S
O332 C337 1.254 . S
O333 Zn330 2.031 . S
O333 C337 1.269 . S
O334 Zn331 1.986 . S
O334 C341 1.262 . S
O335 Zn330 2.049 . S
O335 C343 1.260 . S
O336 Zn331 1.996 . S
O336 C343 1.257 . S
C337 O332 1.254 . S
C337 O333 1.269 . S
C338 O339 1.249 . S
C338 O340 1.270 . S
O339 Zn331 1.943 . S
O339 C338 1.249 . S
O340 Zn330 2.067 . S
O340 C338 1.270 . S
C341 O334 1.262 . S
C341 O342 1.232 . S
O342 C341 1.232 . S
C343 O335 1.260 . S
C343 O336 1.257 . S
C344 C345 1.369 . S
C344 C346 1.419 . S
C344 H348 0.930 . S
C345 C344 1.369 . S
C345 C354 1.429 . S
C346 C344 1.419 . S
C346 C347 1.363 . S
C346 H349 0.929 . S
C347 C346 1.363 . S
C347 C353 1.428 . S
H348 C344 0.930 . S
H349 C346 0.929 . S
S350 N351 1.613 . S
S350 N352 1.610 . S
N351 S350 1.613 . S
N351 C354 1.350 . S
N352 S350 1.610 . S
N352 C353 1.351 . S
C353 C347 1.428 . S
C353 N352 1.351 . S
C353 C354 1.434 . S
C354 C345 1.429 . S
C354 N351 1.350 . S
C354 C353 1.434 . S
C355 C356 1.369 . S
C355 C357 1.419 . S
C355 H359 0.930 . S
C356 C355 1.369 . S
C356 C365 1.429 . S
C357 C355 1.419 . S
C357 C358 1.363 . S
C357 H360 0.929 . S
C358 C357 1.363 . S
C358 C364 1.428 . S
H359 C355 0.930 . S
H360 C357 0.929 . S
S361 N362 1.612 1_455 S
S361 N363 1.610 . S
N362 S361 1.612 1_655 S
N362 C365 1.340 1_655 S
N363 S361 1.610 . S
N363 C364 1.351 . S
C364 C358 1.428 . S
C364 N363 1.351 . S
C364 C365 1.434 . S
C365 C356 1.429 . S
C365 N362 1.340 1_455 S
C365 C364 1.434 . S
C366 C367 1.369 . S
C366 C368 1.419 . S
C366 H370 0.930 . S
C367 C366 1.369 . S
C367 C376 1.429 . S
C368 C366 1.419 . S
C368 C369 1.363 . S
C368 H371 0.929 . S
C369 C368 1.363 . S
C369 C375 1.428 . S
H370 C366 0.930 . S
H371 C368 0.929 . S
S372 N373 1.613 . S
S372 N374 1.610 . S
N373 S372 1.613 . S
N373 C376 1.350 . S
N374 S372 1.610 . S
N374 C375 1.351 . S
C375 C369 1.428 . S
C375 N374 1.351 . S
C375 C376 1.434 . S
C376 C367 1.429 . S
C376 N373 1.350 . S
C376 C375 1.434 . S
C377 C378 1.369 . S
C377 C379 1.419 . S
C377 H381 0.930 . S
C378 C377 1.369 . S
C378 C387 1.429 1_565 S
C379 C377 1.419 . S
C379 C380 1.339 1_465 S
C379 H382 0.929 . S
C380 C379 1.339 1_645 S
C380 C386 1.435 . S
H381 C377 0.930 . S
H382 C379 0.929 . S
S383 N384 1.613 1_655 S
S383 N385 1.610 . S
N384 S383 1.613 1_455 S
N384 C387 1.350 . S
N385 S383 1.610 . S
N385 C386 1.351 . S
C386 C380 1.435 . S
C386 N385 1.351 . S
C386 C387 1.434 1_655 S
C387 C378 1.429 1_545 S
C387 N384 1.350 . S
C387 C386 1.434 1_455 S
C388 C389 1.369 . S
C388 C390 1.419 . S
C388 H392 0.930 . S
C389 C388 1.369 . S
C389 C398 1.429 . S
C390 C388 1.419 . S
C390 C391 1.363 . S
C390 H393 0.929 . S
C391 C390 1.363 . S
C391 C397 1.428 . S
H392 C388 0.930 . S
H393 C390 0.929 . S
S394 N395 1.613 . S
S394 N396 1.610 . S
N395 S394 1.613 . S
N395 C398 1.350 . S
N396 S394 1.610 . S
N396 C397 1.351 . S
C397 C391 1.428 . S
C397 N396 1.351 . S
C397 C398 1.434 . S
C398 C389 1.429 . S
C398 N395 1.350 . S
C398 C397 1.434 . S
C399 C400 1.369 . S
C399 C401 1.419 . S
C399 H403 0.930 . S
C400 C399 1.369 . S
C400 C409 1.429 . S
C401 C399 1.419 . S
C401 C402 1.363 . S
C401 H404 0.929 . S
C402 C401 1.363 . S
C402 C408 1.428 . S
H403 C399 0.930 . S
H404 C401 0.929 . S
S405 N406 1.613 . S
S405 N407 1.610 . S
N406 S405 1.613 . S
N406 C409 1.350 . S
N407 S405 1.610 . S
N407 C408 1.351 . S
C408 C402 1.428 . S
C408 N407 1.351 . S
C408 C409 1.434 . S
C409 C400 1.429 . S
C409 N406 1.350 . S
C409 C408 1.434 . S
C410 C411 1.369 . S
C410 C412 1.419 . S
C410 H414 0.930 . S
C411 C410 1.369 . S
C411 C420 1.429 . S
C412 C410 1.419 . S
C412 C413 1.363 . S
C412 H415 0.929 . S
C413 C412 1.363 . S
C413 C419 1.428 . S
H414 C410 0.930 . S
H415 C412 0.929 . S
S416 N417 1.613 . S
S416 N418 1.610 . S
N417 S416 1.613 . S
N417 C420 1.350 . S
N418 S416 1.610 . S
N418 C419 1.351 . S
C419 C413 1.428 . S
C419 N418 1.351 . S
C419 C420 1.434 . S
C420 C411 1.429 . S
C420 N417 1.350 . S
C420 C419 1.434 . S
C421 C422 1.369 . S
C421 C423 1.419 . S
C421 H425 0.930 . S
C422 C421 1.369 . S
C422 C431 1.429 . S
C423 C421 1.419 . S
C423 C424 1.363 . S
C423 H426 0.929 . S
C424 C423 1.363 . S
C424 C430 1.428 . S
H425 C421 0.930 . S
H426 C423 0.929 . S
S427 N428 1.613 . S
S427 N429 1.610 . S
N428 S427 1.613 . S
N428 C431 1.350 . S
N429 S427 1.610 . S
N429 C430 1.351 . S
C430 C424 1.428 . S
C430 N429 1.351 . S
C430 C431 1.434 . S
C431 C422 1.429 . S
C431 N428 1.350 . S
C431 C430 1.434 . S
C432 C433 1.369 . S
C432 C434 1.419 . S
C432 H436 0.930 . S
C433 C432 1.369 . S
C433 C442 1.429 . S
C434 C432 1.419 . S
C434 C435 1.363 . S
C434 H437 0.929 . S
C435 C434 1.363 . S
C435 C441 1.428 . S
H436 C432 0.930 . S
H437 C434 0.929 . S
S438 N439 1.613 . S
S438 N440 1.610 . S
N439 S438 1.613 . S
N439 C442 1.350 . S
N440 S438 1.610 . S
N440 C441 1.351 . S
C441 C435 1.428 . S
C441 N440 1.351 . S
C441 C442 1.434 . S
C442 C433 1.429 . S
C442 N439 1.350 . S
C442 C441 1.434 . S
C443 C444 1.369 . S
C443 C445 1.419 . S
C443 H447 0.930 . S
C444 C443 1.369 . S
C444 C453 1.429 . S
C445 C443 1.419 . S
C445 C446 1.363 . S
C445 H448 0.929 . S
C446 C445 1.363 . S
C446 C452 1.428 . S
H447 C443 0.930 . S
H448 C445 0.929 . S
S449 N450 1.613 . S
S449 N451 1.610 . S
N450 S449 1.613 . S
N450 C453 1.350 . S
N451 S449 1.610 . S
N451 C452 1.351 . S
C452 C446 1.428 . S
C452 N451 1.351 . S
C452 C453 1.434 . S
C453 C444 1.429 . S
C453 N450 1.350 . S
C453 C452 1.434 . S
C454 C455 1.369 . S
C454 C456 1.419 . S
C454 H458 0.930 . S
C455 C454 1.369 . S
C455 C464 1.429 . S
C456 C454 1.419 . S
C456 C457 1.363 . S
C456 H459 0.929 . S
C457 C456 1.363 . S
C457 C463 1.428 . S
H458 C454 0.930 . S
H459 C456 0.929 . S
S460 N461 1.613 . S
S460 N462 1.610 . S
N461 S460 1.613 . S
N461 C464 1.350 . S
N462 S460 1.610 . S
N462 C463 1.351 . S
C463 C457 1.428 . S
C463 N462 1.351 . S
C463 C464 1.434 . S
C464 C455 1.429 . S
C464 N461 1.350 . S
C464 C463 1.434 . S
C465 C466 1.369 . S
C465 C467 1.419 . S
C465 H469 0.930 . S
C466 C465 1.369 . S
C466 C475 1.429 . S
C467 C465 1.419 . S
C467 C468 1.363 . S
C467 H470 0.929 . S
C468 C467 1.363 . S
C468 C474 1.428 . S
H469 C465 0.930 . S
H470 C467 0.929 . S
S471 N472 1.613 . S
S471 N473 1.610 . S
N472 S471 1.613 . S
N472 C475 1.350 . S
N473 S471 1.610 . S
N473 C474 1.351 . S
C474 C468 1.428 . S
C474 N473 1.351 . S
C474 C475 1.434 . S
C475 C466 1.429 . S
C475 N472 1.350 . S
C475 C474 1.434 . S
C476 C477 1.369 . S
C476 C478 1.419 . S
C476 H480 0.930 . S
C477 C476 1.369 . S
C477 C486 1.429 . S
C478 C476 1.419 . S
C478 C479 1.363 . S
C478 H481 0.929 . S
C479 C478 1.363 . S
C479 C485 1.428 . S
H480 C476 0.930 . S
H481 C478 0.929 . S
S482 N483 1.613 . S
S482 N484 1.610 . S
N483 S482 1.613 . S
N483 C486 1.350 . S
N484 S482 1.610 . S
N484 C485 1.351 . S
C485 C479 1.428 . S
C485 N484 1.351 . S
C485 C486 1.434 . S
C486 C477 1.429 . S
C486 N483 1.350 . S
C486 C485 1.434 . S
C487 C488 1.369 . S
C487 C489 1.419 . S
C487 H491 0.930 . S
C488 C487 1.369 . S
C488 C497 1.429 . S
C489 C487 1.419 . S
C489 C490 1.363 . S
C489 H492 0.929 1_455 S
C490 C489 1.363 . S
C490 C496 1.428 . S
H491 C487 0.930 . S
H492 C489 0.929 1_655 S
S493 N494 1.613 . S
S493 N495 1.610 . S
N494 S493 1.613 . S
N494 C497 1.350 . S
N495 S493 1.610 . S
N495 C496 1.351 . S
C496 C490 1.428 . S
C496 N495 1.351 . S
C496 C497 1.434 . S
C497 C488 1.429 . S
C497 N494 1.350 . S
C497 C496 1.434 . S
C498 C499 1.369 . S
C498 C500 1.419 . S
C498 H502 0.930 . S
C499 C498 1.369 . S
C499 C508 1.429 . S
C500 C498 1.419 . S
C500 C501 1.363 . S
C500 H503 0.929 . S
C501 C500 1.363 . S
C501 C507 1.428 . S
H502 C498 0.930 . S
H503 C500 0.929 . S
S504 N505 1.613 . S
S504 N506 1.610 . S
N505 S504 1.613 . S
N505 C508 1.350 . S
N506 S504 1.610 . S
N506 C507 1.351 . S
C507 C501 1.428 . S
C507 N506 1.351 . S
C507 C508 1.434 . S
C508 C499 1.429 . S
C508 N505 1.350 . S
C508 C507 1.434 . S
C509 C510 1.369 . S
C509 C511 1.419 . S
C509 H513 0.930 . S
C510 C509 1.369 . S
C510 C519 1.429 . S
C511 C509 1.419 . S
C511 C512 1.363 . S
C511 H514 0.929 . S
C512 C511 1.363 . S
C512 C518 1.428 . S
H513 C509 0.930 . S
H514 C511 0.929 . S
S515 N516 1.613 . S
S515 N517 1.610 . S
N516 S515 1.613 . S
N516 C519 1.350 . S
N517 S515 1.610 . S
N517 C518 1.351 . S
C518 C512 1.428 . S
C518 N517 1.351 . S
C518 C519 1.434 . S
C519 C510 1.429 . S
C519 N516 1.350 . S
C519 C518 1.434 . S
C520 C521 1.369 . S
C520 C522 1.419 . S
C520 H524 0.930 . S
C521 C520 1.369 . S
C521 C530 1.429 . S
C522 C520 1.419 . S
C522 C523 1.363 . S
C522 H525 0.929 . S
C523 C522 1.363 . S
C523 C529 1.428 . S
H524 C520 0.930 . S
H525 C522 0.929 . S
S526 N527 1.613 . S
S526 N528 1.610 . S
N527 S526 1.613 . S
N527 C530 1.350 . S
N528 S526 1.610 . S
N528 C529 1.351 . S
C529 C523 1.428 . S
C529 N528 1.351 . S
C529 C530 1.434 . S
C530 C521 1.429 . S
C530 N527 1.350 . S
C530 C529 1.434 . S
C531 C532 1.369 . S
C531 C533 1.419 . S
C531 H535 0.930 . S
C532 C531 1.369 . S
C532 C541 1.429 . S
C533 C531 1.419 . S
C533 C534 1.363 . S
C533 H536 0.929 . S
C534 C533 1.363 . S
C534 C540 1.428 . S
H535 C531 0.930 . S
H536 C533 0.929 . S
S537 N538 1.613 . S
S537 N539 1.610 . S
N538 S537 1.613 . S
N538 C541 1.350 . S
N539 S537 1.610 . S
N539 C540 1.351 . S
C540 C534 1.428 . S
C540 N539 1.351 . S
C540 C541 1.434 . S
C541 C532 1.429 . S
C541 N538 1.350 . S
C541 C540 1.434 . S
C542 C543 1.369 1_554 S
C542 C544 1.419 1_545 S
C542 H546 0.930 . S
C543 C542 1.369 1_556 S
C543 C552 1.429 1_545 S
C544 C542 1.419 1_565 S
C544 C545 1.363 . S
C544 H547 0.928 1_565 S
C545 C544 1.363 . S
C545 C551 1.428 1_554 S
H546 C542 0.930 . S
H547 C544 0.928 1_545 S
S548 N549 1.613 . S
S548 N550 1.610 . S
N549 S548 1.613 . S
N549 C552 1.350 . S
N550 S548 1.610 . S
N550 C551 1.351 . S
C551 C545 1.428 1_556 S
C551 N550 1.351 . S
C551 C552 1.434 . S
C552 C543 1.429 1_565 S
C552 N549 1.350 . S
C552 C551 1.434 . S
C553 C554 1.369 . S
C553 C555 1.419 . S
C553 H557 0.930 . S
C554 C553 1.369 . S
C554 C563 1.429 . S
C555 C553 1.419 . S
C555 C556 1.363 . S
C555 H558 0.929 . S
C556 C555 1.363 . S
C556 C562 1.428 . S
H557 C553 0.930 . S
H558 C555 0.929 . S
S559 N560 1.613 . S
S559 N561 1.610 . S
N560 S559 1.613 . S
N560 C563 1.350 . S
N561 S559 1.610 . S
N561 C562 1.351 . S
C562 C556 1.428 . S
C562 N561 1.351 . S
C562 C563 1.434 . S
C563 C554 1.429 . S
C563 N560 1.350 . S
C563 C562 1.434 . S
C564 C565 1.369 . S
C564 C566 1.419 . S
C564 H568 0.930 1_545 S
C565 C564 1.369 . S
C565 C574 1.429 . S
C566 C564 1.419 . S
C566 C567 1.363 . S
C566 H569 0.929 . S
C567 C566 1.363 . S
C567 C573 1.428 . S
H568 C564 0.930 1_565 S
H569 C566 0.929 . S
S570 N571 1.613 . S
S570 N572 1.610 . S
N571 S570 1.613 . S
N571 C574 1.350 . S
N572 S570 1.610 . S
N572 C573 1.351 . S
C573 C567 1.428 . S
C573 N572 1.351 . S
C573 C574 1.434 . S
C574 C565 1.429 . S
C574 N571 1.350 . S
C574 C573 1.434 . S
C575 C576 1.369 . S
C575 C577 1.419 . S
C575 H579 0.930 . S
C576 C575 1.369 . S
C576 C585 1.429 . S
C577 C575 1.419 . S
C577 C578 1.363 . S
C577 H580 0.929 . S
C578 C577 1.363 . S
C578 C584 1.428 . S
H579 C575 0.930 . S
H580 C577 0.929 . S
S581 N582 1.613 . S
S581 N583 1.610 . S
N582 S581 1.613 . S
N582 C585 1.350 . S
N583 S581 1.610 . S
N583 C584 1.351 . S
C584 C578 1.428 . S
C584 N583 1.351 . S
C584 C585 1.434 . S
C585 C576 1.429 . S
C585 N582 1.350 . S
C585 C584 1.434 . S
C586 C587 1.369 . S
C586 C588 1.419 . S
C586 H590 0.930 . S
C587 C586 1.369 . S
C587 C596 1.429 . S
C588 C586 1.419 . S
C588 C589 1.363 . S
C588 H591 0.929 . S
C589 C588 1.363 . S
C589 C595 1.428 . S
H590 C586 0.930 . S
H591 C588 0.929 . S
S592 N593 1.613 . S
S592 N594 1.610 . S
N593 S592 1.613 . S
N593 C596 1.350 . S
N594 S592 1.610 . S
N594 C595 1.351 . S
C595 C589 1.428 . S
C595 N594 1.351 . S
C595 C596 1.434 . S
C596 C587 1.429 . S
C596 N593 1.350 . S
C596 C595 1.434 . S
C597 C598 1.369 . S
C597 C599 1.419 . S
C597 H601 0.930 . S
C598 C597 1.369 . S
C598 C607 1.429 . S
C599 C597 1.419 . S
C599 C600 1.363 . S
C599 H602 0.929 . S
C600 C599 1.363 . S
C600 C606 1.428 . S
H601 C597 0.930 . S
H602 C599 0.929 . S
S603 N604 1.613 . S
S603 N605 1.610 . S
N604 S603 1.613 . S
N604 C607 1.350 . S
N605 S603 1.610 . S
N605 C606 1.351 . S
C606 C600 1.428 . S
C606 N605 1.351 . S
C606 C607 1.434 . S
C607 C598 1.429 . S
C607 N604 1.350 . S
C607 C606 1.434 . S
C608 C609 1.369 . S
C608 C610 1.419 . S
C608 H612 0.930 . S
C609 C608 1.369 . S
C609 C618 1.429 . S
C610 C608 1.419 . S
C610 C611 1.363 . S
C610 H613 0.929 . S
C611 C610 1.363 . S
C611 C617 1.428 . S
H612 C608 0.930 . S
H613 C610 0.929 . S
S614 N615 1.613 . S
S614 N616 1.610 . S
N615 S614 1.613 . S
N615 C618 1.350 . S
N616 S614 1.610 . S
N616 C617 1.351 . S
C617 C611 1.428 . S
C617 N616 1.351 . S
C617 C618 1.434 . S
C618 C609 1.429 . S
C618 N615 1.350 . S
C618 C617 1.434 . S
C619 C620 1.369 . S
C619 C621 1.419 . S
C619 H623 0.930 . S
C620 C619 1.369 . S
C620 C629 1.429 . S
C621 C619 1.419 . S
C621 C622 1.363 . S
C621 H624 0.929 . S
C622 C621 1.363 . S
C622 C628 1.428 . S
H623 C619 0.930 . S
H624 C621 0.929 . S
S625 N626 1.613 1_565 S
S625 N627 1.610 . S
N626 S625 1.613 1_545 S
N626 C629 1.350 . S
N627 S625 1.610 . S
N627 C628 1.351 1_565 S
C628 C622 1.428 . S
C628 N627 1.351 1_545 S
C628 C629 1.434 . S
C629 C620 1.429 . S
C629 N626 1.350 . S
C629 C628 1.434 . S
C630 C631 1.369 . S
C630 C632 1.419 . S
C630 H634 0.930 . S
C631 C630 1.369 . S
C631 C640 1.429 . S
C632 C630 1.419 . S
C632 C633 1.363 . S
C632 H635 0.929 . S
C633 C632 1.363 . S
C633 C639 1.428 . S
H634 C630 0.930 . S
H635 C632 0.929 . S
S636 N637 1.613 . S
S636 N638 1.610 . S
N637 S636 1.613 . S
N637 C640 1.350 . S
N638 S636 1.610 . S
N638 C639 1.351 . S
C639 C633 1.428 . S
C639 N638 1.351 . S
C639 C640 1.434 . S
C640 C631 1.429 . S
C640 N637 1.350 . S
C640 C639 1.434 . S
C641 C642 1.369 . S
C641 C643 1.419 . S
C641 H645 0.930 . S
C642 C641 1.369 . S
C642 C651 1.429 . S
C643 C641 1.419 . S
C643 C644 1.363 . S
C643 H646 0.929 . S
C644 C643 1.363 . S
C644 C650 1.428 . S
H645 C641 0.930 . S
H646 C643 0.929 . S
S647 N648 1.613 . S
S647 N649 1.610 . S
N648 S647 1.613 . S
N648 C651 1.350 . S
N649 S647 1.610 . S
N649 C650 1.351 . S
C650 C644 1.428 . S
C650 N649 1.351 . S
C650 C651 1.434 . S
C651 C642 1.429 . S
C651 N648 1.350 . S
C651 C650 1.434 . S
C652 C653 1.369 . S
C652 C654 1.419 . S
C652 H656 0.930 . S
C653 C652 1.369 . S
C653 C662 1.429 . S
C654 C652 1.419 . S
C654 C655 1.363 . S
C654 H657 0.929 . S
C655 C654 1.363 . S
C655 C661 1.428 . S
H656 C652 0.930 . S
H657 C654 0.929 . S
S658 N659 1.613 . S
S658 N660 1.610 . S
N659 S658 1.613 . S
N659 C662 1.350 . S
N660 S658 1.610 . S
N660 C661 1.351 . S
C661 C655 1.428 . S
C661 N660 1.351 . S
C661 C662 1.434 . S
C662 C653 1.429 . S
C662 N659 1.350 . S
C662 C661 1.434 . S
C663 C664 1.369 . S
C663 C665 1.419 1_455 S
C663 H667 0.930 1_545 S
C664 C663 1.369 . S
C664 C673 1.429 . S
C665 C663 1.419 1_655 S
C665 C666 1.363 . S
C665 H668 0.929 1_545 S
C666 C665 1.363 . S
C666 C672 1.430 1_655 S
H667 C663 0.930 1_565 S
H668 C665 0.929 1_565 S
S669 N670 1.613 . S
S669 N671 1.610 . S
N670 S669 1.613 . S
N670 C673 1.350 . S
N671 S669 1.610 . S
N671 C672 1.351 . S
C672 C666 1.430 1_455 S
C672 N671 1.351 . S
C672 C673 1.434 . S
C673 C664 1.429 . S
C673 N670 1.350 . S
C673 C672 1.434 . S
C674 C675 1.369 . S
C674 C676 1.419 . S
C674 H678 0.930 . S
C675 C674 1.369 . S
C675 C684 1.429 . S
C676 C674 1.419 . S
C676 C677 1.363 . S
C676 H679 0.929 . S
C677 C676 1.363 . S
C677 C683 1.428 . S
H678 C674 0.930 . S
H679 C676 0.929 . S
S680 N681 1.613 . S
S680 N682 1.610 . S
N681 S680 1.613 . S
N681 C684 1.350 . S
N682 S680 1.610 . S
N682 C683 1.351 . S
C683 C677 1.428 . S
C683 N682 1.351 . S
C683 C684 1.434 . S
C684 C675 1.429 . S
C684 N681 1.350 . S
C684 C683 1.434 . S
C685 C686 1.369 . S
C685 C687 1.419 . S
C685 H689 0.942 . S
C686 C685 1.369 . S
C686 C695 1.429 . S
C687 C685 1.419 . S
C687 C688 1.363 . S
C687 H690 0.929 . S
C688 C687 1.363 . S
C688 C694 1.428 . S
H689 C685 0.942 . S
H690 C687 0.929 . S
S691 N692 1.613 . S
S691 N693 1.610 . S
N692 S691 1.613 . S
N692 C695 1.350 . S
N693 S691 1.610 . S
N693 C694 1.351 . S
C694 C688 1.428 . S
C694 N693 1.351 . S
C694 C695 1.434 . S
C695 C686 1.429 . S
C695 N692 1.350 . S
C695 C694 1.434 . S
C696 C697 1.369 . S
C696 C698 1.419 . S
C696 H700 0.930 . S
C697 C696 1.369 . S
C697 C706 1.429 . S
C698 C696 1.419 . S
C698 C699 1.363 . S
C698 H701 0.929 . S
C699 C698 1.363 . S
C699 C705 1.428 . S
H700 C696 0.930 . S
H701 C698 0.929 . S
S702 N703 1.613 . S
S702 N704 1.610 . S
N703 S702 1.613 . S
N703 C706 1.350 . S
N704 S702 1.610 . S
N704 C705 1.351 . S
C705 C699 1.428 . S
C705 N704 1.351 . S
C705 C706 1.434 . S
C706 C697 1.429 . S
C706 N703 1.350 . S
C706 C705 1.434 . S
C707 C708 1.369 . S
C707 C709 1.419 1_554 S
C707 H711 0.930 . S
C708 C707 1.369 . S
C708 C717 1.429 1_654 S
C709 C707 1.419 1_556 S
C709 C710 1.363 1_655 S
C709 H712 0.929 . S
C710 C709 1.363 1_455 S
C710 C716 1.428 . S
H711 C707 0.930 . S
H712 C709 0.929 . S
S713 N714 1.613 . S
S713 N715 1.610 . S
N714 S713 1.613 . S
N714 C717 1.350 . S
N715 S713 1.610 . S
N715 C716 1.351 . S
C716 C710 1.428 . S
C716 N715 1.351 . S
C716 C717 1.434 . S
C717 C708 1.429 1_456 S
C717 N714 1.350 . S
C717 C716 1.434 . S
C718 C719 1.369 . S
C718 C720 1.419 . S
C718 H722 0.930 . S
C719 C718 1.369 . S
C719 C728 1.429 . S
C720 C718 1.419 . S
C720 C721 1.363 . S
C720 H723 0.929 . S
C721 C720 1.363 . S
C721 C727 1.428 . S
H722 C718 0.930 . S
H723 C720 0.929 . S
S724 N725 1.613 . S
S724 N726 1.610 . S
N725 S724 1.613 . S
N725 C728 1.350 . S
N726 S724 1.610 . S
N726 C727 1.351 . S
C727 C721 1.428 . S
C727 N726 1.351 . S
C727 C728 1.434 . S
C728 C719 1.429 . S
C728 N725 1.350 . S
C728 C727 1.434 . S
C729 C730 1.369 . S
C729 C731 1.419 . S
C729 H733 0.930 . S
C730 C729 1.369 . S
C730 C739 1.427 1_556 S
C731 C729 1.419 . S
C731 C732 1.363 . S
C731 H734 0.929 . S
C732 C731 1.363 . S
C732 C738 1.428 . S
H733 C729 0.930 . S
H734 C731 0.929 . S
S735 N736 1.613 . S
S735 N737 1.610 1_554 S
N736 S735 1.613 . S
N736 C739 1.358 . S
N737 S735 1.610 1_556 S
N737 C738 1.351 . S
C738 C732 1.428 . S
C738 N737 1.351 . S
C738 C739 1.428 1_556 S
C739 C730 1.427 1_554 S
C739 N736 1.358 . S
C739 C738 1.428 1_554 S
C740 C741 1.369 . S
C740 C742 1.419 . S
C740 H744 0.930 . S
C741 C740 1.369 . S
C741 C750 1.429 . S
C742 C740 1.419 . S
C742 C743 1.363 . S
C742 H745 0.929 . S
C743 C742 1.363 . S
C743 C749 1.428 . S
H744 C740 0.930 . S
H745 C742 0.929 . S
S746 N747 1.613 . S
S746 N748 1.610 . S
N747 S746 1.613 . S
N747 C750 1.350 . S
N748 S746 1.610 . S
N748 C749 1.351 . S
C749 C743 1.428 . S
C749 N748 1.351 . S
C749 C750 1.434 . S
C750 C741 1.429 . S
C750 N747 1.350 . S
C750 C749 1.434 . S
C751 C752 1.369 . S
C751 C753 1.419 . S
C751 H755 0.930 . S
C752 C751 1.369 . S
C752 C761 1.429 . S
C753 C751 1.419 . S
C753 C754 1.363 . S
C753 H756 0.929 . S
C754 C753 1.363 . S
C754 C760 1.428 . S
H755 C751 0.930 . S
H756 C753 0.929 . S
S757 N758 1.613 . S
S757 N759 1.610 . S
N758 S757 1.613 . S
N758 C761 1.350 . S
N759 S757 1.610 . S
N759 C760 1.351 . S
C760 C754 1.428 . S
C760 N759 1.351 . S
C760 C761 1.434 . S
C761 C752 1.429 . S
C761 N758 1.350 . S
C761 C760 1.434 . S
C762 C763 1.369 . S
C762 C764 1.419 . S
C762 H766 0.930 . S
C763 C762 1.369 . S
C763 C772 1.429 . S
C764 C762 1.419 . S
C764 C765 1.363 . S
C764 H767 0.929 . S
C765 C764 1.363 . S
C765 C771 1.428 . S
H766 C762 0.930 . S
H767 C764 0.929 . S
S768 N769 1.613 . S
S768 N770 1.610 . S
N769 S768 1.613 . S
N769 C772 1.350 . S
N770 S768 1.610 . S
N770 C771 1.351 . S
C771 C765 1.428 . S
C771 N770 1.351 . S
C771 C772 1.434 . S
C772 C763 1.429 . S
C772 N769 1.350 . S
C772 C771 1.434 . S
C773 C774 1.369 . S
C773 C775 1.419 . S
C773 H777 0.930 1_554 S
C774 C773 1.369 . S
C774 C783 1.429 . S
C775 C773 1.419 . S
C775 C776 1.363 . S
C775 H778 0.929 . S
C776 C775 1.363 . S
C776 C782 1.428 . S
H777 C773 0.930 1_556 S
H778 C775 0.929 . S
S779 N780 1.613 . S
S779 N781 1.610 . S
N780 S779 1.613 . S
N780 C783 1.350 . S
N781 S779 1.610 . S
N781 C782 1.351 . S
C782 C776 1.428 . S
C782 N781 1.351 . S
C782 C783 1.434 . S
C783 C774 1.429 . S
C783 N780 1.350 . S
C783 C782 1.434 . S
C784 C785 1.369 . S
C784 C786 1.419 . S
C784 H788 0.930 . S
C785 C784 1.369 . S
C785 C794 1.429 . S
C786 C784 1.419 . S
C786 C787 1.363 . S
C786 H789 0.929 . S
C787 C786 1.363 . S
C787 C793 1.428 . S
H788 C784 0.930 . S
H789 C786 0.929 . S
S790 N791 1.613 . S
S790 N792 1.610 . S
N791 S790 1.613 . S
N791 C794 1.350 . S
N792 S790 1.610 . S
N792 C793 1.351 . S
C793 C787 1.428 . S
C793 N792 1.351 . S
C793 C794 1.434 . S
C794 C785 1.429 . S
C794 N791 1.350 . S
C794 C793 1.434 . S
C795 C796 1.369 . S
C795 C797 1.419 . S
C795 H799 0.930 . S
C796 C795 1.369 . S
C796 C805 1.429 . S
C797 C795 1.419 . S
C797 C798 1.363 . S
C797 H800 0.929 . S
C798 C797 1.363 . S
C798 C804 1.428 . S
H799 C795 0.930 . S
H800 C797 0.929 . S
S801 N802 1.613 . S
S801 N803 1.610 . S
N802 S801 1.613 . S
N802 C805 1.350 . S
N803 S801 1.610 . S
N803 C804 1.351 . S
C804 C798 1.428 . S
C804 N803 1.351 . S
C804 C805 1.434 . S
C805 C796 1.429 . S
C805 N802 1.350 . S
C805 C804 1.434 . S
C806 C807 1.369 . S
C806 C808 1.419 . S
C806 H810 0.930 . S
C807 C806 1.369 . S
C807 C816 1.429 . S
C808 C806 1.419 . S
C808 C809 1.363 . S
C808 H811 0.929 . S
C809 C808 1.363 . S
C809 C815 1.428 . S
H810 C806 0.930 . S
H811 C808 0.929 . S
S812 N813 1.613 . S
S812 N814 1.610 . S
N813 S812 1.613 . S
N813 C816 1.350 . S
N814 S812 1.610 . S
N814 C815 1.351 . S
C815 C809 1.428 . S
C815 N814 1.351 . S
C815 C816 1.434 . S
C816 C807 1.429 . S
C816 N813 1.350 . S
C816 C815 1.434 . S
C817 C818 1.369 . S
C817 C819 1.419 . S
C817 H821 0.930 . S
C818 C817 1.369 . S
C818 C827 1.429 . S
C819 C817 1.419 . S
C819 C820 1.363 . S
C819 H822 0.929 . S
C820 C819 1.363 . S
C820 C826 1.428 . S
H821 C817 0.930 . S
H822 C819 0.929 . S
S823 N824 1.613 . S
S823 N825 1.610 . S
N824 S823 1.613 . S
N824 C827 1.350 . S
N825 S823 1.610 . S
N825 C826 1.351 . S
C826 C820 1.428 . S
C826 N825 1.351 . S
C826 C827 1.434 . S
C827 C818 1.429 . S
C827 N824 1.350 . S
C827 C826 1.434 . S
C828 C829 1.369 1_554 S
C828 C830 1.419 . S
C828 H832 0.930 . S
C829 C828 1.369 1_556 S
C829 C838 1.429 . S
C830 C828 1.419 . S
C830 C831 1.363 1_554 S
C830 H833 0.929 . S
C831 C830 1.363 1_556 S
C831 C837 1.428 . S
H832 C828 0.930 . S
H833 C830 0.929 . S
S834 N835 1.613 . S
S834 N836 1.610 . S
N835 S834 1.613 . S
N835 C838 1.350 . S
N836 S834 1.610 . S
N836 C837 1.351 . S
C837 C831 1.428 . S
C837 N836 1.351 . S
C837 C838 1.434 . S
C838 C829 1.429 . S
C838 N835 1.350 . S
C838 C837 1.434 . S
C839 C840 1.369 . S
C839 C841 1.419 . S
C839 H843 0.930 . S
C840 C839 1.369 . S
C840 C849 1.429 . S
C841 C839 1.419 . S
C841 C842 1.363 . S
C841 H844 0.929 . S
C842 C841 1.363 . S
C842 C848 1.428 . S
H843 C839 0.930 . S
H844 C841 0.929 . S
S845 N846 1.613 . S
S845 N847 1.610 . S
N846 S845 1.613 . S
N846 C849 1.350 . S
N847 S845 1.610 . S
N847 C848 1.351 . S
C848 C842 1.428 . S
C848 N847 1.351 . S
C848 C849 1.434 . S
C849 C840 1.429 . S
C849 N846 1.350 . S
C849 C848 1.434 . S
C850 C851 1.369 . S
C850 C852 1.419 . S
C850 H854 0.930 . S
C851 C850 1.369 . S
C851 C860 1.429 . S
C852 C850 1.419 . S
C852 C853 1.363 . S
C852 H855 0.929 1_554 S
C853 C852 1.363 . S
C853 C859 1.428 . S
H854 C850 0.930 . S
H855 C852 0.929 1_556 S
S856 N857 1.613 . S
S856 N858 1.610 . S
N857 S856 1.613 . S
N857 C860 1.350 . S
N858 S856 1.610 . S
N858 C859 1.351 . S
C859 C853 1.428 . S
C859 N858 1.351 . S
C859 C860 1.434 . S
C860 C851 1.429 . S
C860 N857 1.350 . S
C860 C859 1.434 . S
C861 C862 1.368 1_545 S
C861 C863 1.419 1_545 S
C861 H865 0.930 . S
C862 C861 1.368 1_565 S
C862 C871 1.432 . S
C863 C861 1.419 1_565 S
C863 C864 1.363 . S
C863 H866 0.929 1_565 S
C864 C863 1.363 . S
C864 C870 1.428 . S
H865 C861 0.930 . S
H866 C863 0.929 1_545 S
S867 N868 1.613 . S
S867 N869 1.610 . S
N868 S867 1.613 . S
N868 C871 1.350 . S
N869 S867 1.610 . S
N869 C870 1.351 . S
C870 C864 1.428 . S
C870 N869 1.351 . S
C870 C871 1.434 . S
C871 C862 1.432 . S
C871 N868 1.350 . S
C871 C870 1.434 . S
C347 C184 1.579 . S
C345 C60 1.626 . S
C358 C197 1.362 . S
C356 C76 1.368 . S
C367 C81 1.767 . S
C369 C217 1.619 . S
C380 C231 1.434 . S
C378 C48 1.503 . S
C391 C243 1.522 . S
C389 C115 1.530 . S
C402 C257 1.550 . S
C400 C136 1.553 . S
C411 C131 1.368 . S
C413 C267 1.353 . S
C424 C282 1.552 . S
C422 C104 1.543 . S
C433 C126 1.500 . S
C435 C296 1.442 . S
C446 C315 1.284 . S
C444 C103 1.371 . S
C455 C120 1.420 . S
C457 C295 1.402 . S
C468 C313 1.401 . S
C466 C142 1.411 . S
C477 C82 1.647 . S
C479 C329 1.534 . S
C488 C54 1.715 . S
C490 C323 1.708 . S
C499 C65 1.449 . S
C501 C327 1.454 . S
C510 C71 1.348 . S
C512 C324 1.340 . S
C521 C37 1.564 . S
C523 C226 1.546 . S
C532 C158 1.816 . S
C534 C225 1.804 . S
C545 C189 1.342 . S
C543 C169 1.388 . S
C556 C203 1.348 . S
C554 C98 1.456 . S
C565 C49 1.686 1_545 S
C567 C240 1.701 . S
C578 C285 1.470 . S
C576 C125 1.475 . S
C589 C239 1.415 . S
C587 C109 1.420 . S
C600 C271 1.675 . S
C598 C137 1.666 . S
C611 C268 1.578 . S
C609 C159 1.626 . S
C620 C175 1.368 . S
C622 C281 1.361 . S
C631 C92 1.767 . S
C633 C245 1.619 . S
C644 C259 1.417 . S
C642 C147 1.503 . S
C653 C38 1.528 . S
C655 C215 1.526 . S
C666 C229 1.549 . S
C664 C4 1.553 . S
C677 C183 1.354 . S
C675 C21 1.368 . S
C688 C198 1.553 . S
C686 C27 1.543 . S
C697 C16 1.501 . S
C699 C310 1.441 . S
C708 C26 1.370 . S
C710 C301 1.281 . S
C719 C43 1.420 . S
C721 C309 1.402 . S
C730 C10 1.413 1_556 S
C732 C299 1.404 . S
C743 C343 1.542 . S
C741 C93 1.643 . S
C754 C337 1.709 . S
C752 C153 1.715 . S
C765 C341 1.455 . S
C763 C164 1.448 . S
C774 C170 1.341 1_554 S
C776 C338 1.340 . S
C785 C114 1.563 . S
C787 C254 1.546 . S
C798 C253 1.804 . S
C796 C59 1.817 . S
C809 C273 1.344 . S
C807 C70 1.388 . S
C820 C287 1.351 . S
C818 C87 1.455 . S
C829 C148 1.685 . S
C831 C212 1.700 . S
C842 C201 1.470 . S
C840 C15 1.475 . S
C851 C32 1.418 . S
C853 C211 1.417 . S
C864 C187 1.673 . S
C862 C5 1.662 1_565 S
