# Generated by pormake.
# Topology rtl, (3,6)-cn, num edge types: 1
# Building blocks:
#     Node 0, Type 0, BuildingBlock: KAKCAD_clean_linker_0, # of connection points: 3
#     Node 1, Type 0, BuildingBlock: KAKCAD_clean_linker_0, # of connection points: 3
#     Node 2, Type 0, BuildingBlock: KAKCAD_clean_linker_0, # of connection points: 3
#     Node 3, Type 0, BuildingBlock: KAKCAD_clean_linker_0, # of connection points: 3
#     Node 4, Type 1, BuildingBlock: KUMJIN_clean_sbu_1, # of connection points: 6
#     Node 5, Type 1, BuildingBlock: KUMJIN_clean_sbu_1, # of connection points: 6
#     Edge 6, Type (0, 1), BuildingBlock: XIVTED_clean_linker_0, # of connection points: 2
#     Edge 7, Type (0, 1), BuildingBlock: XIVTED_clean_linker_0, # of connection points: 2
#     Edge 8, Type (0, 1), BuildingBlock: XIVTED_clean_linker_0, # of connection points: 2
#     Edge 9, Type (0, 1), BuildingBlock: XIVTED_clean_linker_0, # of connection points: 2
#     Edge 10, Type (0, 1), BuildingBlock: XIVTED_clean_linker_0, # of connection points: 2
#     Edge 11, Type (0, 1), BuildingBlock: XIVTED_clean_linker_0, # of connection points: 2
#     Edge 12, Type (0, 1), BuildingBlock: XIVTED_clean_linker_0, # of connection points: 2
#     Edge 13, Type (0, 1), BuildingBlock: XIVTED_clean_linker_0, # of connection points: 2
#     Edge 14, Type (0, 1), BuildingBlock: XIVTED_clean_linker_0, # of connection points: 2
#     Edge 15, Type (0, 1), BuildingBlock: XIVTED_clean_linker_0, # of connection points: 2
#     Edge 16, Type (0, 1), BuildingBlock: XIVTED_clean_linker_0, # of connection points: 2
#     Edge 17, Type (0, 1), BuildingBlock: XIVTED_clean_linker_0, # of connection points: 2
# Relax obj value: 0.018
# Max RMSD: 0.097
# Mean RMSD: 0.059
data_MOF--net-rtl--node1-KUMJIN_clean_sbu_1--node2-KAKCAD_clean_linker_0--edge1-XIVTED_clean_linker_0
_symmetry_space_group_name_H-M    P1
_symmetry_Int_Tables_number       1
_symmetry_cell_setting            triclinic
loop_
_symmetry_equiv_pos_as_xyz
'x, y, z'
_cell_length_a     40.078996
_cell_length_b     40.669155
_cell_length_c     35.365494
_cell_angle_alpha  80.090663
_cell_angle_beta   99.888086
_cell_angle_gamma 90.413192
loop_
_atom_site_label
_atom_site_type_symbol
_atom_site_fract_x
_atom_site_fract_y
_atom_site_fract_z
_atom_type_partial_charge
C0 C 0.16866 0.86466 0.8838 0.0
C1 C 0.15903 0.89854 0.87204 0.0
C2 C 0.18545 0.85282 0.92161 0.0
C3 C 0.19335 0.87458 0.9486 0.0
C4 C 0.18406 0.90854 0.93678 0.0
C5 C 0.16704 0.92038 0.89895 0.0
C6 C 0.21058 0.86154 0.9891 0.0
C7 C 0.23598 0.83658 0.99612 0.0
C8 C 0.25055 0.82199 0.03429 0.0
C9 C 0.24024 0.83345 0.06583 0.0
C10 C 0.21525 0.85885 0.05937 0.0
C11 C 0.20059 0.87272 0.02096 0.0
C12 C 0.20277 0.86963 0.09253 0.0
C13 C 0.19468 0.84588 0.12322 0.0
C14 C 0.19707 0.90366 0.0926 0.0
C15 C 0.18269 0.91369 0.12219 0.0
C16 C 0.1735 0.88989 0.15225 0.0
C17 C 0.27552 0.79393 0.0407 0.0
C18 C 0.27003 0.76884 0.01768 0.0
C19 C 0.30514 0.79226 0.06889 0.0
C20 C 0.32934 0.76663 0.07289 0.0
C21 C 0.32431 0.74237 0.04868 0.0
C22 C 0.29414 0.74344 0.02157 0.0
C23 C 0.18013 0.85589 0.15271 0.0
H24 H 0.16335 0.8472 0.86374 0.0
H25 H 0.19175 0.82641 0.92983 0.0
H26 H 0.19001 0.92604 0.95672 0.0
H27 H 0.15971 0.94657 0.89103 0.0
H28 H 0.24451 0.82842 0.9717 0.0
H29 H 0.18025 0.8912 0.01596 0.0
H30 H 0.25117 0.8222 0.09538 0.0
H31 H 0.19838 0.81945 0.12366 0.0
H32 H 0.20349 0.92254 0.06954 0.0
H33 H 0.17854 0.94012 0.12133 0.0
H34 H 0.24707 0.76891 0.99642 0.0
H35 H 0.31009 0.81129 0.08699 0.0
H36 H 0.17294 0.83684 0.17507 0.0
H37 H 0.28921 0.72464 0.00314 0.0
H38 H 0.35243 0.76644 0.09396 0.0
C39 C 0.63729 0.67787 0.74182 0.0
C40 C 0.63623 0.64303 0.75313 0.0
C41 C 0.64752 0.69169 0.70665 0.0
C42 C 0.65651 0.67095 0.68189 0.0
C43 C 0.65588 0.63614 0.69348 0.0
C44 C 0.64595 0.62235 0.7287 0.0
C45 C 0.66578 0.68536 0.64361 0.0
C46 C 0.68857 0.71177 0.64039 0.0
C47 C 0.69833 0.72436 0.60438 0.0
C48 C 0.68421 0.71086 0.5713 0.0
C49 C 0.66145 0.68453 0.57398 0.0
C50 C 0.65238 0.67196 0.61024 0.0
C51 C 0.64855 0.66912 0.53927 0.0
C52 C 0.63758 0.68903 0.50262 0.0
C53 C 0.64843 0.63423 0.54232 0.0
C54 C 0.63826 0.61956 0.50939 0.0
C55 C 0.62773 0.6394 0.47254 0.0
C56 C 0.72436 0.75052 0.60122 0.0
C57 C 0.72404 0.77837 0.61989 0.0
C58 C 0.7496 0.74791 0.5787 0.0
C59 C 0.77323 0.77295 0.57388 0.0
C60 C 0.77239 0.80128 0.59154 0.0
C61 C 0.74786 0.80351 0.61513 0.0
C62 C 0.62721 0.67435 0.46965 0.0
H63 H 0.63022 0.69446 0.76016 0.0
H64 H 0.64764 0.7186 0.69841 0.0
H65 H 0.66304 0.6195 0.67523 0.0
H66 H 0.64511 0.59544 0.73635 0.0
H67 H 0.69977 0.72154 0.66621 0.0
H68 H 0.63449 0.65188 0.61241 0.0
H69 H 0.69153 0.72042 0.54343 0.0
H70 H 0.63702 0.716 0.49945 0.0
H71 H 0.65724 0.61821 0.57002 0.0
H72 H 0.63969 0.59262 0.51271 0.0
H73 H 0.70486 0.78117 0.63734 0.0
H74 H 0.75117 0.72638 0.56476 0.0
H75 H 0.61878 0.6904 0.4419 0.0
H76 H 0.74649 0.8251 0.62899 0.0
H77 H 0.79229 0.77005 0.55631 0.0
C78 C 0.82241 0.10185 0.17909 0.0
C79 C 0.8579 0.10281 0.18844 0.0
C80 C 0.80574 0.11336 0.14109 0.0
C81 C 0.82418 0.12594 0.11154 0.0
C82 C 0.8597 0.1264 0.12072 0.0
C83 C 0.87637 0.11504 0.1588 0.0
C84 C 0.8063 0.1396 0.07161 0.0
C85 C 0.77773 0.16077 0.06636 0.0
C86 C 0.76118 0.17493 0.02883 0.0
C87 C 0.77315 0.16718 0.9963 0.0
C88 C 0.80172 0.14614 1.00097 0.0
C89 C 0.81827 0.13254 0.0387 0.0
C90 C 0.81493 0.1396 0.96627 0.0
C91 C 0.79284 0.13092 0.93432 0.0
C92 C 0.84943 0.14359 0.9641 0.0
C93 C 0.86141 0.14001 0.93015 0.0
C94 C 0.8392 0.13195 0.89793 0.0
C95 C 0.73278 0.19939 0.02385 0.0
C96 C 0.70766 0.19384 0.04734 0.0
C97 C 0.73163 0.22933 0.99698 0.0
C98 C 0.7066 0.25369 0.99459 0.0
C99 C 0.68215 0.24864 0.01902 0.0
C100 C 0.6826 0.21817 0.04492 0.0
C101 C 0.80489 0.12694 0.90056 0.0
H102 H 0.80744 0.09283 0.20133 0.0
H103 H 0.77836 0.11245 0.13482 0.0
H104 H 0.87458 0.13621 0.09866 0.0
H105 H 0.90376 0.11575 0.165 0.0
H106 H 0.76924 0.16741 0.09161 0.0
H107 H 0.8402 0.11611 0.04241 0.0
H108 H 0.76061 0.1781 0.96723 0.0
H109 H 0.76616 0.1275 0.93536 0.0
H110 H 0.86695 0.1505 0.98823 0.0
H111 H 0.88803 0.14375 0.92899 0.0
H112 H 0.70759 0.17078 0.06789 0.0
H113 H 0.75089 0.23454 0.97883 0.0
H114 H 0.78717 0.12093 0.87607 0.0
H115 H 0.66376 0.21327 0.06366 0.0
H116 H 0.70728 0.27704 0.97471 0.0
C117 C 0.35661 0.34331 0.32488 0.0
C118 C 0.39052 0.35292 0.32619 0.0
C119 C 0.34471 0.32976 0.3591 0.0
C120 C 0.36638 0.32569 0.39543 0.0
C121 C 0.40035 0.33499 0.39666 0.0
C122 C 0.41228 0.34839 0.36249 0.0
C123 C 0.35345 0.31268 0.43206 0.0
C124 C 0.33159 0.28542 0.43405 0.0
C125 C 0.31869 0.27353 0.46837 0.0
C126 C 0.3282 0.28938 0.50086 0.0
C127 C 0.35031 0.31636 0.49969 0.0
C128 C 0.3627 0.32787 0.46506 0.0
C129 C 0.36021 0.3325 0.53466 0.0
C130 C 0.33647 0.33691 0.55853 0.0
C131 C 0.39355 0.34312 0.54487 0.0
C132 C 0.40287 0.35768 0.57813 0.0
C133 C 0.37918 0.36161 0.60215 0.0
C134 C 0.2949 0.24501 0.47052 0.0
C135 C 0.27078 0.24048 0.43798 0.0
C136 C 0.2952 0.22277 0.50578 0.0
C137 C 0.2711 0.19796 0.50903 0.0
C138 C 0.24647 0.19378 0.47678 0.0
C139 C 0.24715 0.21503 0.44096 0.0
C140 C 0.34589 0.35109 0.59195 0.0
H141 H 0.33927 0.34616 0.29738 0.0
H142 H 0.31833 0.32309 0.35717 0.0
H143 H 0.41779 0.33188 0.42411 0.0
H144 H 0.43844 0.35582 0.36464 0.0
H145 H 0.32522 0.27309 0.40902 0.0
H146 H 0.37884 0.34938 0.46341 0.0
H147 H 0.31828 0.28077 0.52734 0.0
H148 H 0.31039 0.32977 0.55119 0.0
H149 H 0.41263 0.33971 0.52752 0.0
H150 H 0.42877 0.36539 0.58541 0.0
H151 H 0.26946 0.25711 0.41033 0.0
H152 H 0.31386 0.22465 0.53131 0.0
H153 H 0.3269 0.35441 0.60948 0.0
H154 H 0.22928 0.21233 0.41509 0.0
H155 H 0.27147 0.18269 0.53735 0.0
Eu156 Eu 0.02378 0.96354 0.51382 0.0
C157 C 0.94838 0.09816 0.47965 0.0
N158 N 0.97954 0.09094 0.50183 0.0
C159 C 0.00158 0.14063 0.46899 0.0
C160 C 0.9429 0.12682 0.45041 0.0
C161 C 0.0059 0.11183 0.49748 0.0
C162 C 0.97 0.14809 0.44522 0.0
C163 C 0.88964 0.08323 0.46304 0.0
C164 C 0.92218 0.07629 0.4857 0.0
C165 C 0.88421 0.11148 0.43346 0.0
C166 C 0.91076 0.1332 0.42716 0.0
Eu167 Eu 0.98475 0.0417 0.54874 0.0
N168 N 0.92824 0.04881 0.51426 0.0
C169 C 0.86325 0.06201 0.47139 0.0
C170 C 0.90189 0.02998 0.5247 0.0
C171 C 0.86928 0.03567 0.50286 0.0
H172 H 0.03024 0.10622 0.51605 0.0
H173 H 0.84867 0.02015 0.51083 0.0
H174 H 0.96989 0.90044 0.52195 0.0
H175 H 0.15554 0.97104 0.58551 0.0
H176 H 0.90539 0.01123 0.5506 0.0
H177 H 0.8379 0.06651 0.45471 0.0
H178 H 0.10382 0.9903 0.53904 0.0
H179 H 0.0226 0.15705 0.46536 0.0
H180 H 0.85944 0.117 0.41561 0.0
H181 H 0.90611 0.15498 0.40438 0.0
H182 H 0.96814 0.84396 0.56075 0.0
H183 H 0.96679 0.17035 0.42304 0.0
H184 H 0.1578 0.91547 0.62738 0.0
N185 N 0.02021 0.90897 0.54808 0.0
C186 C 0.04848 0.8963 0.57332 0.0
C187 C 0.99082 0.85847 0.56471 0.0
C188 C 0.04872 0.86409 0.59584 0.0
C189 C 0.99172 0.89057 0.54312 0.0
C190 C 0.0194 0.8452 0.59129 0.0
N191 N 0.07572 0.94742 0.55615 0.0
C192 C 0.10378 0.96664 0.55794 0.0
C193 C 0.10645 0.90368 0.60398 0.0
C194 C 0.07703 0.91599 0.57741 0.0
C195 C 0.13474 0.92401 0.60728 0.0
C196 C 0.13349 0.95547 0.58387 0.0
H197 H 0.01859 0.82035 0.60806 0.0
H198 H 0.07859 0.82722 0.63996 0.0
H199 H 0.12909 0.86182 0.64705 0.0
O200 O 0.05317 0.96636 0.46674 0.0
O201 O 0.02485 0.96046 0.57886 0.0
O202 O 0.02995 0.01474 0.58899 0.0
O203 O 0.0209 0.9244 0.47836 0.0
O204 O 0.04882 0.01396 0.50093 0.0
O205 O 0.04133 0.04292 0.55001 0.0
O206 O 0.95817 0.04786 0.59633 0.0
O207 O 0.98841 0.04394 0.4847 0.0
O208 O 0.97726 0.9904 0.47642 0.0
O209 O 0.99418 0.08445 0.5785 0.0
O210 O 0.96304 0.99001 0.56572 0.0
O211 O 0.96741 0.96434 0.51347 0.0
C212 C 0.03463 0.98254 0.60126 0.0
C213 C 0.02634 0.94339 0.41305 0.0
C214 C 0.03554 0.94214 0.34688 0.0
C215 C 1.00119 0.95108 0.33297 0.0
C216 C 0.99214 0.95206 0.39867 0.0
C217 C 0.97971 0.95603 0.35878 0.0
C218 C 0.04794 0.93857 0.38715 0.0
C219 C 0.05709 0.03762 0.52185 0.0
C220 C 0.03989 0.93978 0.4549 0.0
C221 C 0.07798 0.85188 0.62236 0.0
C222 C 0.10674 0.8716 0.62642 0.0
C223 C 0.97553 0.02248 0.46287 0.0
C224 C 0.948 0.10348 0.60308 0.0
C225 C 0.91527 0.1296 0.64249 0.0
C226 C 0.90512 0.15532 0.61056 0.0
C227 C 0.93748 0.12927 0.57141 0.0
C228 C 0.93662 0.10363 0.6384 0.0
C229 C 0.91607 0.15499 0.57519 0.0
C230 C 0.95341 0.96733 0.54376 0.0
C231 C 0.97139 0.07663 0.60039 0.0
H232 H 0.99072 0.95361 0.30225 0.0
H233 H 0.97505 0.95556 0.41829 0.0
H234 H 0.95329 0.9627 0.34785 0.0
H235 H 0.07444 0.9323 0.39842 0.0
H236 H 0.88851 0.1755 0.61287 0.0
H237 H 0.94602 0.12977 0.54395 0.0
H238 H 0.94505 0.08391 0.66298 0.0
H239 H 0.90808 0.17483 0.55071 0.0
Eu240 Eu 0.46883 0.49113 0.99769 0.0
C241 C 0.61431 0.54053 0.04201 0.0
N242 N 0.60228 0.5098 0.05387 0.0
C243 C 0.65073 0.48358 0.03929 0.0
C244 C 0.64494 0.54385 0.02731 0.0
C245 C 0.62009 0.48147 0.05331 0.0
C246 C 0.66314 0.51489 0.02607 0.0
C247 C 0.6071 0.6008 0.03089 0.0
C248 C 0.59524 0.56867 0.04338 0.0
C249 C 0.63736 0.60417 0.01572 0.0
C250 C 0.65621 0.5758 0.01393 0.0
Eu251 Eu 0.55039 0.50848 0.0768 0.0
N252 N 0.56573 0.56472 0.05782 0.0
C253 C 0.58864 0.62868 0.03487 0.0
C254 C 0.54952 0.59184 0.065 0.0
C255 C 0.56011 0.62414 0.05271 0.0
H256 H 0.61056 0.4573 0.0637 0.0
H257 H 0.54664 0.64551 0.05775 0.0
H258 H 0.40884 0.54212 0.0117 0.0
H259 H 0.47104 0.35444 0.01201 0.0
H260 H 0.52908 0.58899 0.08135 0.0
H261 H 0.59692 0.65375 0.02567 0.0
H262 H 0.48929 0.41115 0.99044 0.0
H263 H 0.66471 0.46108 0.03862 0.0
H264 H 0.64665 0.62867 0.00574 0.0
H265 H 0.67958 0.57884 1.00231 0.0
H266 H 0.3545 0.53809 0.03637 0.0
H267 H 0.68678 0.51642 0.01497 0.0
H268 H 0.42054 0.34576 0.04366 0.0
N269 N 0.41682 0.48965 0.02036 0.0
C270 C 0.40447 0.45886 0.03122 0.0
C271 C 0.36837 0.51565 0.03523 0.0
C272 C 0.37366 0.45539 0.04555 0.0
C273 C 0.39914 0.5179 0.0215 0.0
C274 C 0.35564 0.48427 0.04748 0.0
N275 N 0.45283 0.43488 0.01474 0.0
C276 C 0.46877 0.408 0.00664 0.0
C277 C 0.41099 0.3986 0.04032 0.0
C278 C 0.42326 0.43079 0.02902 0.0
C279 C 0.42915 0.37086 0.03539 0.0
C280 C 0.45779 0.37564 0.01778 0.0
H281 H 0.33188 0.48262 0.05832 0.0
H282 H 0.3385 0.4202 0.06914 0.0
H283 H 0.37099 0.37052 0.06427 0.0
O284 O 0.46093 0.4764 0.93931 0.0
O285 O 0.4628 0.4857 0.06153 0.0
O286 O 0.51537 0.46677 0.09424 0.0
O287 O 0.42901 0.51505 0.95193 0.0
O288 O 0.51754 0.46111 1.00108 0.0
O289 O 0.54229 0.45561 0.06594 0.0
O290 O 0.55861 0.52448 0.13437 0.0
O291 O 0.55622 0.51284 0.0131 0.0
O292 O 0.50406 0.53282 0.98055 0.0
O293 O 0.59045 0.48522 0.12293 0.0
O294 O 0.50148 0.53797 0.07418 0.0
O295 O 0.47773 0.54363 0.00921 0.0
C296 C 0.48246 0.46893 0.0922 0.0
C297 C 0.41654 0.50358 0.88619 0.0
C298 C 0.40394 0.49004 0.82061 0.0
C299 C 0.3817 0.51789 0.80908 0.0
C300 C 0.3939 0.53113 0.87394 0.0
C301 C 0.37662 0.53814 0.83567 0.0
C302 C 0.42121 0.48278 0.85941 0.0
C303 C 0.53826 0.44562 0.03204 0.0
C304 C 0.436 0.49803 0.92631 0.0
C305 C 0.36199 0.42336 0.05781 0.0
C306 C 0.38059 0.39507 0.05521 0.0
C307 C 0.53693 0.5302 0.98263 0.0
C308 C 0.60331 0.49879 0.18783 0.0
C309 C 0.61508 0.51372 0.25277 0.0
C310 C 0.63896 0.48722 0.26465 0.0
C311 C 0.62754 0.47261 0.20039 0.0
C312 C 0.59742 0.51961 0.21411 0.0
C313 C 0.64524 0.46697 0.23853 0.0
C314 C 0.48062 0.55318 0.04322 0.0
C315 C 0.58368 0.50309 0.14785 0.0
H316 H 0.36792 0.52376 0.77949 0.0
H317 H 0.38981 0.54761 0.89381 0.0
H318 H 0.35933 0.55946 0.82653 0.0
H319 H 0.43863 0.4615 0.86839 0.0
H320 H 0.65307 0.4824 0.29414 0.0
H321 H 0.63264 0.45619 0.18087 0.0
H322 H 0.57876 0.53983 0.20488 0.0
H323 H 0.66378 0.4467 0.24792 0.0
H324 H 0.25044 0.13294 0.52671 0.0
H325 H 0.07027 0.06684 0.45085 0.0
H326 H 0.18056 0.19566 0.43671 0.0
H327 H 0.10824 0.057 0.57402 0.0
H328 H 0.11724 0.10412 0.4378 0.0
H329 H 0.20466 0.09446 0.53732 0.0
C330 C 0.22566 0.1389 0.50917 0.0
C331 C 0.21961 0.16825 0.48108 0.0
C332 C 0.11525 0.0936 0.4676 0.0
C333 C 0.16752 0.12308 0.49217 0.0
C334 C 0.08872 0.07233 0.47503 0.0
C335 C 0.0856 0.05905 0.51352 0.0
C336 C 0.13924 0.10063 0.49887 0.0
C337 C 0.10983 0.06701 0.54397 0.0
C338 C 0.19964 0.11665 0.51516 0.0
C339 C 0.18695 0.1734 0.45837 0.0
N340 N 0.13593 0.08706 0.53599 0.0
N341 N 0.1622 0.151 0.46433 0.0
H342 H 0.362 0.70347 0.11316 0.0
H343 H 0.45132 0.60048 0.98297 0.0
H344 H 0.34691 0.72296 0.9875 0.0
H345 H 0.46544 0.57441 0.10835 0.0
H346 H 0.41638 0.6482 0.98561 0.0
H347 H 0.40334 0.65897 0.11357 0.0
C348 C 0.36759 0.69855 0.08573 0.0
C349 C 0.35073 0.71662 0.05022 0.0
C350 C 0.42713 0.6322 0.01267 0.0
C351 C 0.3977 0.66599 0.05045 0.0
C352 C 0.44711 0.60484 0.01117 0.0
C353 C 0.46111 0.58325 0.0455 0.0
C354 C 0.42082 0.63817 0.04876 0.0
C355 C 0.45506 0.59044 0.0812 0.0
C356 C 0.39102 0.67311 0.08598 0.0
C357 C 0.3588 0.70922 0.01552 0.0
N358 N 0.43513 0.61725 0.08192 0.0
N359 N 0.38156 0.68447 0.01653 0.0
H360 H 0.79155 0.82774 0.52246 0.0
H361 H 0.92902 0.95006 0.61246 0.0
H362 H 0.80831 0.83707 0.64394 0.0
H363 H 0.91227 0.93543 0.49274 0.0
H364 H 0.8828 0.91177 0.62457 0.0
H365 H 0.83366 0.87001 0.51101 0.0
C366 C 0.80421 0.83864 0.54681 0.0
C367 C 0.79667 0.82851 0.58432 0.0
C368 C 0.88924 0.91705 0.59566 0.0
C369 C 0.84498 0.8774 0.57134 0.0
C370 C 0.91553 0.93892 0.58873 0.0
C371 C 0.92474 0.9456 0.55167 0.0
C372 C 0.872 0.90199 0.56521 0.0
C373 C 0.90639 0.93062 0.52192 0.0
C374 C 0.82818 0.86295 0.54022 0.0
C375 C 0.81331 0.84417 0.61454 0.0
N376 N 0.88106 0.90949 0.52938 0.0
N377 N 0.83688 0.8677 0.60746 0.0
H378 H 0.64723 0.29204 0.95662 0.0
H379 H 0.56877 0.39838 0.092 0.0
H380 H 0.66188 0.26769 0.08215 0.0
H381 H 0.55074 0.42356 0.96642 0.0
H382 H 0.60134 0.34923 0.08812 0.0
H383 H 0.61024 0.33912 0.95876 0.0
C384 C 0.64261 0.29653 0.9846 0.0
C385 C 0.65773 0.27586 0.01927 0.0
C386 C 0.5902 0.36537 0.06133 0.0
C387 C 0.61538 0.32957 0.0219 0.0
C388 C 0.57163 0.39355 0.06353 0.0
C389 C 0.55707 0.41518 0.02945 0.0
C390 C 0.59449 0.3587 0.02479 0.0
C391 C 0.56147 0.40748 0.9934 0.0
C392 C 0.62139 0.32331 0.98578 0.0
C393 C 0.65048 0.28261 0.05465 0.0
N394 N 0.57993 0.37989 0.992 0.0
N395 N 0.62999 0.30893 0.05503 0.0
H396 H 0.12441 0.93887 0.14145 0.0
H397 H 0.08486 0.89331 0.35786 0.0
H398 H 0.18129 0.86441 0.23058 0.0
H399 H 0.03786 0.97677 0.27352 0.0
H400 H 0.12078 0.88266 0.31193 0.0
H401 H 0.09302 0.95358 0.18963 0.0
C402 C 0.13064 0.92586 0.17126 0.0
C403 C 0.15557 0.90029 0.18189 0.0
C404 C 0.10272 0.9034 0.30352 0.0
C405 C 0.11911 0.91664 0.23716 0.0
C406 C 0.08229 0.90962 0.32983 0.0
C407 C 0.0582 0.93597 0.31956 0.0
C408 C 0.09898 0.92353 0.26652 0.0
C409 C 0.05567 0.95586 0.28251 0.0
C410 C 0.1125 0.93415 0.19872 0.0
C411 C 0.16196 0.88392 0.22086 0.0
N412 N 0.07571 0.94916 0.25731 0.0
N413 N 0.14376 0.89227 0.24702 0.0
H414 H 0.66277 0.58899 0.80747 0.0
H415 H 0.51115 0.58437 0.92882 0.0
H416 H 0.58162 0.66288 0.78161 0.0
H417 H 0.59808 0.51723 0.96287 0.0
H418 H 0.53679 0.61359 0.87496 0.0
H419 H 0.63994 0.56267 0.86489 0.0
C420 C 0.64016 0.59971 0.81391 0.0
C421 C 0.624 0.62812 0.78957 0.0
C422 C 0.55039 0.5926 0.89433 0.0
C423 C 0.59771 0.59809 0.85533 0.0
C424 C 0.53569 0.57581 0.92499 0.0
C425 C 0.55258 0.54839 0.95044 0.0
C426 C 0.58211 0.58172 0.88877 0.0
C427 C 0.58439 0.53851 0.94423 0.0
C428 C 0.62722 0.58475 0.8468 0.0
C429 C 0.59507 0.64119 0.79968 0.0
N430 N 0.59806 0.55507 0.91393 0.0
N431 N 0.58273 0.62595 0.8316 0.0
H432 H 0.91051 0.13234 0.22958 0.0
H433 H 0.92457 0.99222 0.42113 0.0
H434 H 0.84526 0.04756 0.23997 0.0
H435 H 0.9854 0.08025 0.41413 0.0
H436 H 0.89569 0.01187 0.35445 0.0
H437 H 0.93891 0.11336 0.29669 0.0
C438 C 0.90229 0.10961 0.24591 0.0
C439 C 0.8755 0.09147 0.22909 0.0
C440 C 0.91529 0.02697 0.36746 0.0
C441 C 0.90771 0.06976 0.30606 0.0
C442 C 0.9319 0.01567 0.40543 0.0
C443 C 0.95752 0.03457 0.42296 0.0
C444 C 0.92442 0.0574 0.3468 0.0
C445 C 0.96567 0.06502 0.40164 0.0
C446 C 0.91837 0.09892 0.28431 0.0
C447 C 0.86556 0.06251 0.25186 0.0
N448 N 0.94923 0.07546 0.36459 0.0
N449 N 0.88172 0.05252 0.2891 0.0
H450 H 0.36449 0.34084 0.67524 0.0
H451 H 0.42047 0.50987 0.74876 0.0
H452 H 0.41533 0.41834 0.60882 0.0
H453 H 0.39666 0.42243 0.82634 0.0
H454 H 0.41992 0.4763 0.69757 0.0
H455 H 0.37657 0.36967 0.73126 0.0
C456 C 0.37833 0.36386 0.67254 0.0
C457 C 0.3887 0.37737 0.63724 0.0
C458 C 0.41525 0.46428 0.7259 0.0
C459 C 0.40255 0.4105 0.70115 0.0
C460 C 0.41553 0.48344 0.75507 0.0
C461 C 0.40842 0.46886 0.79165 0.0
C462 C 0.4072 0.43037 0.73311 0.0
C463 C 0.40234 0.43453 0.7985 0.0
C464 C 0.3854 0.38018 0.70458 0.0
C465 C 0.40697 0.407 0.6355 0.0
N466 N 0.40137 0.4165 0.76928 0.0
N467 N 0.41295 0.42277 0.66684 0.0
H468 H 0.59338 0.5814 0.46558 0.0
H469 H 0.61692 0.5819 0.24507 0.0
H470 H 0.64154 0.66109 0.39878 0.0
H471 H 0.60025 0.4933 0.32533 0.0
H472 H 0.61417 0.6153 0.29626 0.0
H473 H 0.58429 0.55284 0.40948 0.0
C474 C 0.60201 0.59298 0.43915 0.0
C475 C 0.61876 0.62353 0.43726 0.0
C476 C 0.61076 0.58859 0.30246 0.0
C477 C 0.60784 0.59109 0.37257 0.0
C478 C 0.61211 0.56963 0.27326 0.0
C479 C 0.60908 0.53485 0.28123 0.0
C480 C 0.60592 0.57262 0.3396 0.0
C481 C 0.60308 0.52003 0.31823 0.0
C482 C 0.59663 0.57671 0.40704 0.0
C483 C 0.62841 0.6377 0.40168 0.0
N484 N 0.60181 0.53896 0.34607 0.0
N485 N 0.62303 0.62125 0.37085 0.0
H486 H 0.82649 0.08407 0.85177 0.0
H487 H 0.9155 0.18208 0.68153 0.0
H488 H 0.87926 0.17607 0.86008 0.0
H489 H 0.88991 0.0782 0.68925 0.0
H490 H 0.89763 0.18222 0.7443 0.0
H491 H 0.84517 0.0831 0.78951 0.0
C492 C 0.84203 0.10403 0.84047 0.0
C493 C 0.85141 0.13016 0.86107 0.0
C494 C 0.89597 0.15938 0.73229 0.0
C495 C 0.87266 0.12934 0.78996 0.0
C496 C 0.90593 0.15936 0.69639 0.0
C497 C 0.90413 0.13009 0.68023 0.0
C498 C 0.88374 0.13003 0.75197 0.0
C499 C 0.89193 0.10122 0.70088 0.0
C500 C 0.85279 0.1034 0.80508 0.0
C501 C 0.87177 0.15529 0.8453 0.0
N502 N 0.88203 0.10195 0.73562 0.0
N503 N 0.88154 0.15437 0.81056 0.0
H504 H 0.45146 0.34124 0.30493 0.0
H505 H 0.41957 0.47866 0.1099 0.0
H506 H 0.35849 0.3993 0.26502 0.0
H507 H 0.51122 0.41862 0.14983 0.0
H508 H 0.39562 0.44861 0.16481 0.0
H509 H 0.47289 0.36833 0.24705 0.0
C510 C 0.43555 0.35975 0.28403 0.0
C511 C 0.40317 0.36811 0.29005 0.0
C512 C 0.42091 0.44191 0.16146 0.0
C513 C 0.42753 0.39918 0.22332 0.0
C514 C 0.43449 0.4589 0.12992 0.0
C515 C 0.4673 0.45094 0.125 0.0
C516 C 0.44043 0.41696 0.1885 0.0
C517 C 0.48585 0.42569 0.15248 0.0
C518 C 0.44775 0.37511 0.25083 0.0
C519 C 0.38348 0.39185 0.26149 0.0
N520 N 0.47218 0.40968 0.18301 0.0
N521 N 0.39603 0.40666 0.2295 0.0
H522 H 0.10937 0.86712 0.8287 0.0
H523 H 0.07626 0.01807 0.64829 0.0
H524 H 0.16599 0.95807 0.82392 0.0
H525 H 0.03502 0.92006 0.64494 0.0
H526 H 0.10684 0.99781 0.71415 0.0
H527 H 0.07969 0.88725 0.76265 0.0
C528 C 0.11577 0.89124 0.81371 0.0
C529 C 0.1404 0.91084 0.83198 0.0
C530 C 0.09116 0.98072 0.69896 0.0
C531 C 0.10593 0.93431 0.75638 0.0
C532 C 0.07357 0.99231 0.66145 0.0
C533 C 0.05308 0.9707 0.64111 0.0
C534 C 0.088 0.94737 0.71638 0.0
C535 C 0.05074 0.93751 0.65944 0.0
C536 C 0.09865 0.90278 0.77602 0.0
C537 C 0.14695 0.94224 0.81129 0.0
N538 N 0.06791 0.92689 0.69608 0.0
N539 N 0.12981 0.953 0.77463 0.0
loop_
_geom_bond_atom_site_label_1
_geom_bond_atom_site_label_2
_geom_bond_distance
_geom_bond_site_symmetry_2
_ccdc_geom_bond_type
C0 C1 1.386 . S
C0 C2 1.397 . S
C0 H24 0.931 . S
C1 C0 1.386 . S
C1 C5 1.397 . S
C2 C0 1.397 . S
C2 C3 1.384 . S
C2 H25 0.930 . S
C3 C2 1.384 . S
C3 C4 1.377 . S
C3 C6 1.481 . S
C4 C3 1.377 . S
C4 C5 1.389 . S
C4 H26 0.929 . S
C5 C1 1.397 . S
C5 C4 1.389 . S
C5 H27 0.931 . S
C6 C3 1.481 . S
C6 C7 1.387 . S
C6 C11 1.390 1_556 S
C7 C6 1.387 . S
C7 C8 1.401 1_556 S
C7 H28 0.930 . S
C8 C7 1.401 1_554 S
C8 C9 1.376 . S
C8 C17 1.511 . S
C9 C8 1.376 . S
C9 C10 1.392 . S
C9 H30 0.931 . S
C10 C9 1.392 . S
C10 C11 1.361 . S
C10 C12 1.500 . S
C11 C6 1.390 1_554 S
C11 C10 1.361 . S
C11 H29 0.931 . S
C12 C10 1.500 . S
C12 C13 1.371 . S
C12 C14 1.365 . S
C13 C12 1.371 . S
C13 C23 1.386 . S
C13 H31 0.931 . S
C14 C12 1.365 . S
C14 C15 1.409 . S
C14 H32 0.929 . S
C15 C14 1.409 . S
C15 C16 1.380 . S
C15 H33 0.930 . S
C16 C15 1.380 . S
C16 C23 1.357 . S
C17 C8 1.511 . S
C17 C18 1.341 . S
C17 C19 1.371 . S
C18 C17 1.341 . S
C18 C22 1.394 . S
C18 H34 0.931 1_554 S
C19 C17 1.371 . S
C19 C20 1.392 . S
C19 H35 0.931 . S
C20 C19 1.392 . S
C20 C21 1.331 . S
C20 H38 0.932 . S
C21 C20 1.331 . S
C21 C22 1.336 . S
C22 C18 1.394 . S
C22 C21 1.336 . S
C22 H37 0.929 1_554 S
C23 C13 1.386 . S
C23 C16 1.357 . S
C23 H36 0.928 . S
H24 C0 0.931 . S
H25 C2 0.930 . S
H26 C4 0.929 . S
H27 C5 0.931 . S
H28 C7 0.930 . S
H29 C11 0.931 . S
H30 C9 0.931 . S
H31 C13 0.931 . S
H32 C14 0.929 . S
H33 C15 0.930 . S
H34 C18 0.931 1_556 S
H35 C19 0.931 . S
H36 C23 0.928 . S
H37 C22 0.929 1_556 S
H38 C20 0.932 . S
C39 C40 1.386 . S
C39 C41 1.397 . S
C39 H63 0.931 . S
C40 C39 1.386 . S
C40 C44 1.397 . S
C41 C39 1.397 . S
C41 C42 1.384 . S
C41 H64 0.930 . S
C42 C41 1.384 . S
C42 C43 1.377 . S
C42 C45 1.481 . S
C43 C42 1.377 . S
C43 C44 1.389 . S
C43 H65 0.929 . S
C44 C40 1.397 . S
C44 C43 1.389 . S
C44 H66 0.931 . S
C45 C42 1.481 . S
C45 C46 1.387 . S
C45 C50 1.390 . S
C46 C45 1.387 . S
C46 C47 1.401 . S
C46 H67 0.930 . S
C47 C46 1.401 . S
C47 C48 1.376 . S
C47 C56 1.511 . S
C48 C47 1.376 . S
C48 C49 1.392 . S
C48 H69 0.931 . S
C49 C48 1.392 . S
C49 C50 1.361 . S
C49 C51 1.500 . S
C50 C45 1.390 . S
C50 C49 1.361 . S
C50 H68 0.931 . S
C51 C49 1.500 . S
C51 C52 1.371 . S
C51 C53 1.365 . S
C52 C51 1.371 . S
C52 C62 1.386 . S
C52 H70 0.931 . S
C53 C51 1.365 . S
C53 C54 1.409 . S
C53 H71 0.929 . S
C54 C53 1.409 . S
C54 C55 1.380 . S
C54 H72 0.930 . S
C55 C54 1.380 . S
C55 C62 1.357 . S
C56 C47 1.511 . S
C56 C57 1.341 . S
C56 C58 1.371 . S
C57 C56 1.341 . S
C57 C61 1.394 . S
C57 H73 0.930 . S
C58 C56 1.371 . S
C58 C59 1.392 . S
C58 H74 0.931 . S
C59 C58 1.392 . S
C59 C60 1.331 . S
C59 H77 0.932 . S
C60 C59 1.331 . S
C60 C61 1.336 . S
C61 C57 1.394 . S
C61 C60 1.336 . S
C61 H76 0.929 . S
C62 C52 1.386 . S
C62 C55 1.357 . S
C62 H75 0.928 . S
H63 C39 0.931 . S
H64 C41 0.930 . S
H65 C43 0.929 . S
H66 C44 0.931 . S
H67 C46 0.930 . S
H68 C50 0.931 . S
H69 C48 0.931 . S
H70 C52 0.931 . S
H71 C53 0.929 . S
H72 C54 0.930 . S
H73 C57 0.930 . S
H74 C58 0.931 . S
H75 C62 0.928 . S
H76 C61 0.929 . S
H77 C59 0.932 . S
C78 C79 1.386 . S
C78 C80 1.397 . S
C78 H102 0.931 . S
C79 C78 1.386 . S
C79 C83 1.397 . S
C80 C78 1.397 . S
C80 C81 1.384 . S
C80 H103 0.930 . S
C81 C80 1.384 . S
C81 C82 1.377 . S
C81 C84 1.481 . S
C82 C81 1.377 . S
C82 C83 1.389 . S
C82 H104 0.929 . S
C83 C79 1.397 . S
C83 C82 1.389 . S
C83 H105 0.931 . S
C84 C81 1.481 . S
C84 C85 1.387 . S
C84 C89 1.390 . S
C85 C84 1.387 . S
C85 C86 1.401 . S
C85 H106 0.930 . S
C86 C85 1.401 . S
C86 C87 1.376 . S
C86 C95 1.511 . S
C87 C86 1.376 . S
C87 C88 1.392 . S
C87 H108 0.931 1_554 S
C88 C87 1.392 . S
C88 C89 1.361 . S
C88 C90 1.500 1_554 S
C89 C84 1.390 . S
C89 C88 1.361 . S
C89 H107 0.931 . S
C90 C88 1.500 1_556 S
C90 C91 1.371 . S
C90 C92 1.365 . S
C91 C90 1.371 . S
C91 C101 1.386 . S
C91 H109 0.931 . S
C92 C90 1.365 . S
C92 C93 1.409 . S
C92 H110 0.929 . S
C93 C92 1.409 . S
C93 C94 1.380 . S
C93 H111 0.930 . S
C94 C93 1.380 . S
C94 C101 1.357 . S
C95 C86 1.511 . S
C95 C96 1.341 . S
C95 C97 1.371 1_554 S
C96 C95 1.341 . S
C96 C100 1.394 . S
C96 H112 0.930 . S
C97 C95 1.371 1_556 S
C97 C98 1.392 . S
C97 H113 0.931 . S
C98 C97 1.392 . S
C98 C99 1.331 1_556 S
C98 H116 0.932 . S
C99 C98 1.331 1_554 S
C99 C100 1.336 . S
C100 C96 1.394 . S
C100 C99 1.336 . S
C100 H115 0.929 . S
C101 C91 1.386 . S
C101 C94 1.357 . S
C101 H114 0.928 . S
H102 C78 0.931 . S
H103 C80 0.930 . S
H104 C82 0.929 . S
H105 C83 0.931 . S
H106 C85 0.930 . S
H107 C89 0.931 . S
H108 C87 0.931 1_556 S
H109 C91 0.931 . S
H110 C92 0.929 . S
H111 C93 0.930 . S
H112 C96 0.930 . S
H113 C97 0.931 . S
H114 C101 0.928 . S
H115 C100 0.929 . S
H116 C98 0.932 . S
C117 C118 1.386 . S
C117 C119 1.397 . S
C117 H141 0.931 . S
C118 C117 1.386 . S
C118 C122 1.397 . S
C119 C117 1.397 . S
C119 C120 1.384 . S
C119 H142 0.930 . S
C120 C119 1.384 . S
C120 C121 1.377 . S
C120 C123 1.481 . S
C121 C120 1.377 . S
C121 C122 1.389 . S
C121 H143 0.929 . S
C122 C118 1.397 . S
C122 C121 1.389 . S
C122 H144 0.931 . S
C123 C120 1.481 . S
C123 C124 1.387 . S
C123 C128 1.390 . S
C124 C123 1.387 . S
C124 C125 1.401 . S
C124 H145 0.930 . S
C125 C124 1.401 . S
C125 C126 1.376 . S
C125 C134 1.511 . S
C126 C125 1.376 . S
C126 C127 1.392 . S
C126 H147 0.931 . S
C127 C126 1.392 . S
C127 C128 1.361 . S
C127 C129 1.500 . S
C128 C123 1.390 . S
C128 C127 1.361 . S
C128 H146 0.931 . S
C129 C127 1.500 . S
C129 C130 1.371 . S
C129 C131 1.365 . S
C130 C129 1.371 . S
C130 C140 1.386 . S
C130 H148 0.931 . S
C131 C129 1.365 . S
C131 C132 1.409 . S
C131 H149 0.929 . S
C132 C131 1.409 . S
C132 C133 1.380 . S
C132 H150 0.930 . S
C133 C132 1.380 . S
C133 C140 1.357 . S
C134 C125 1.511 . S
C134 C135 1.341 . S
C134 C136 1.371 . S
C135 C134 1.341 . S
C135 C139 1.394 . S
C135 H151 0.930 . S
C136 C134 1.371 . S
C136 C137 1.392 . S
C136 H152 0.931 . S
C137 C136 1.392 . S
C137 C138 1.331 . S
C137 H155 0.932 . S
C138 C137 1.331 . S
C138 C139 1.336 . S
C139 C135 1.394 . S
C139 C138 1.336 . S
C139 H154 0.929 . S
C140 C130 1.386 . S
C140 C133 1.357 . S
C140 H153 0.928 . S
H141 C117 0.931 . S
H142 C119 0.930 . S
H143 C121 0.929 . S
H144 C122 0.931 . S
H145 C124 0.930 . S
H146 C128 0.931 . S
H147 C126 0.931 . S
H148 C130 0.931 . S
H149 C131 0.929 . S
H150 C132 0.930 . S
H151 C135 0.930 . S
H152 C136 0.931 . S
H153 C140 0.928 . S
H154 C139 0.929 . S
H155 C137 0.932 . S
Eu156 N185 2.600 . S
Eu156 N191 2.562 . S
Eu156 O200 2.462 . S
Eu156 O201 2.373 . S
Eu156 O203 2.432 . S
Eu156 O204 2.291 1_565 S
Eu156 O208 2.335 1_455 S
Eu156 O211 2.372 1_455 S
Eu156 C220 2.787 . S
C157 N158 1.365 . S
C157 C160 1.405 . S
C157 C164 1.448 . S
N158 C157 1.365 . S
N158 C161 1.301 1_655 S
N158 Eu167 2.600 . S
C159 C161 1.398 1_655 S
C159 C162 1.367 . S
C159 H179 0.931 1_655 S
C160 C157 1.405 . S
C160 C162 1.403 . S
C160 C166 1.439 . S
C161 N158 1.301 1_455 S
C161 C159 1.398 1_455 S
C161 H172 0.948 . S
C162 C159 1.367 . S
C162 C160 1.403 . S
C162 H183 0.929 . S
C163 C164 1.430 . S
C163 C165 1.387 . S
C163 C169 1.404 . S
C164 C157 1.448 . S
C164 C163 1.430 . S
C164 N168 1.351 . S
C165 C163 1.387 . S
C165 C166 1.374 . S
C165 H180 0.931 . S
C166 C160 1.439 . S
C166 C165 1.374 . S
C166 H181 0.931 . S
Eu167 N158 2.600 . S
Eu167 N168 2.562 . S
Eu167 O202 2.335 1_655 S
Eu167 O205 2.372 1_655 S
Eu167 O206 2.462 . S
Eu167 O207 2.373 . S
Eu167 O209 2.432 . S
Eu167 O210 2.291 1_545 S
Eu167 C231 2.787 . S
N168 C164 1.351 . S
N168 Eu167 2.562 . S
N168 C170 1.325 . S
C169 C163 1.404 . S
C169 C171 1.366 . S
C169 H177 0.930 . S
C170 N168 1.325 . S
C170 C171 1.416 . S
C170 H176 0.929 . S
C171 C169 1.366 . S
C171 C170 1.416 . S
C171 H173 0.930 . S
H172 C161 0.948 . S
H173 C171 0.930 . S
H174 C189 0.930 1_655 S
H175 C196 0.930 . S
H176 C170 0.929 . S
H177 C169 0.930 . S
H178 C192 0.929 . S
H179 C159 0.931 1_455 S
H180 C165 0.931 . S
H181 C166 0.931 . S
H182 C187 0.931 1_655 S
H183 C162 0.929 . S
H184 C195 0.930 . S
N185 Eu156 2.600 . S
N185 C186 1.365 . S
N185 C189 1.319 . S
C186 N185 1.365 . S
C186 C188 1.405 . S
C186 C194 1.448 . S
C187 H182 0.931 1_455 S
C187 C189 1.397 . S
C187 C190 1.367 . S
C188 C186 1.405 . S
C188 C190 1.403 . S
C188 C221 1.439 . S
C189 H174 0.930 1_455 S
C189 N185 1.319 . S
C189 C187 1.397 . S
C190 C187 1.367 . S
C190 C188 1.403 . S
C190 H197 0.929 . S
N191 Eu156 2.562 . S
N191 C192 1.325 . S
N191 C194 1.351 . S
C192 H178 0.929 . S
C192 N191 1.325 . S
C192 C196 1.416 . S
C193 C194 1.430 . S
C193 C195 1.404 . S
C193 C222 1.387 . S
C194 C186 1.448 . S
C194 N191 1.351 . S
C194 C193 1.430 . S
C195 H184 0.930 . S
C195 C193 1.404 . S
C195 C196 1.366 . S
C196 H175 0.930 . S
C196 C192 1.416 . S
C196 C195 1.366 . S
H197 C190 0.929 . S
H198 C221 0.931 . S
H199 C222 0.931 . S
O200 Eu156 2.462 . S
O200 C220 1.252 . S
O201 Eu156 2.373 . S
O201 C212 1.249 . S
O202 Eu167 2.335 1_455 S
O202 C212 1.264 1_545 S
O203 Eu156 2.432 . S
O203 C220 1.268 . S
O204 Eu156 2.291 1_545 S
O204 C219 1.255 . S
O205 Eu167 2.372 1_455 S
O205 C219 1.257 . S
O206 Eu167 2.462 . S
O206 C231 1.252 . S
O207 Eu167 2.373 . S
O207 C223 1.249 . S
O208 Eu156 2.335 1_655 S
O208 C223 1.264 1_565 S
O209 Eu167 2.432 . S
O209 C231 1.268 . S
O210 Eu167 2.291 1_565 S
O210 C230 1.255 . S
O211 Eu156 2.372 1_655 S
O211 C230 1.257 . S
C212 O201 1.249 . S
C212 O202 1.264 1_565 S
C213 C216 1.382 . S
C213 C218 1.390 . S
C213 C220 1.506 . S
C214 C215 1.398 . S
C214 C218 1.392 . S
C215 C214 1.398 . S
C215 C217 1.372 . S
C215 H232 0.931 . S
C216 C213 1.382 . S
C216 C217 1.390 . S
C216 H233 0.931 . S
C217 C215 1.372 . S
C217 C216 1.390 . S
C217 H234 0.929 . S
C218 C213 1.390 . S
C218 C214 1.392 . S
C218 H235 0.930 . S
C219 O204 1.255 . S
C219 O205 1.257 . S
C220 Eu156 2.787 . S
C220 O200 1.252 . S
C220 O203 1.268 . S
C220 C213 1.506 . S
C221 C188 1.439 . S
C221 H198 0.931 . S
C221 C222 1.374 . S
C222 C193 1.387 . S
C222 H199 0.931 . S
C222 C221 1.374 . S
C223 O207 1.249 . S
C223 O208 1.264 1_545 S
C224 C227 1.382 . S
C224 C228 1.390 . S
C224 C231 1.506 . S
C225 C226 1.398 . S
C225 C228 1.392 . S
C226 C225 1.398 . S
C226 C229 1.372 . S
C226 H236 0.931 . S
C227 C224 1.382 . S
C227 C229 1.390 . S
C227 H237 0.931 . S
C228 C224 1.390 . S
C228 C225 1.392 . S
C228 H238 0.930 . S
C229 C226 1.372 . S
C229 C227 1.390 . S
C229 H239 0.929 . S
C230 O210 1.255 . S
C230 O211 1.257 . S
C231 Eu167 2.787 . S
C231 O206 1.252 . S
C231 O209 1.268 . S
C231 C224 1.506 . S
H232 C215 0.931 . S
H233 C216 0.931 . S
H234 C217 0.929 . S
H235 C218 0.930 . S
H236 C226 0.931 . S
H237 C227 0.931 . S
H238 C228 0.930 . S
H239 C229 0.929 . S
Eu240 N269 2.600 . S
Eu240 N275 2.562 1_556 S
Eu240 O284 2.462 . S
Eu240 O285 2.373 1_556 S
Eu240 O287 2.432 . S
Eu240 O288 2.291 1_556 S
Eu240 O292 2.335 . S
Eu240 O295 2.380 . S
Eu240 C304 2.787 . S
C241 N242 1.365 . S
C241 C244 1.405 . S
C241 C248 1.448 . S
N242 C241 1.365 . S
N242 C245 1.319 . S
N242 Eu251 2.600 . S
C243 C245 1.397 . S
C243 C246 1.367 . S
C243 H263 0.931 . S
C244 C241 1.405 . S
C244 C246 1.403 . S
C244 C250 1.439 . S
C245 N242 1.319 . S
C245 C243 1.397 . S
C245 H256 0.930 . S
C246 C243 1.367 . S
C246 C244 1.403 . S
C246 H267 0.929 . S
C247 C248 1.430 . S
C247 C249 1.387 . S
C247 C253 1.404 . S
C248 C241 1.448 . S
C248 C247 1.430 . S
C248 N252 1.351 . S
C249 C247 1.387 . S
C249 C250 1.374 . S
C249 H264 0.931 . S
C250 C244 1.439 . S
C250 C249 1.374 . S
C250 H265 0.931 . S
Eu251 N242 2.600 . S
Eu251 N252 2.562 . S
Eu251 O286 2.335 . S
Eu251 O289 2.372 . S
Eu251 O290 2.462 . S
Eu251 O291 2.373 1_554 S
Eu251 O293 2.432 . S
Eu251 O294 2.291 . S
Eu251 C315 2.787 . S
N252 C248 1.351 . S
N252 Eu251 2.562 . S
N252 C254 1.325 . S
C253 C247 1.404 . S
C253 C255 1.366 . S
C253 H261 0.930 . S
C254 N252 1.325 . S
C254 C255 1.416 . S
C254 H260 0.929 . S
C255 C253 1.366 . S
C255 C254 1.416 . S
C255 H257 0.930 . S
H256 C245 0.930 . S
H257 C255 0.930 . S
H258 C273 0.930 . S
H259 C280 0.930 . S
H260 C254 0.929 . S
H261 C253 0.930 . S
H262 C276 0.929 . S
H263 C243 0.931 . S
H264 C249 0.931 . S
H265 C250 0.931 . S
H266 C271 0.931 . S
H267 C246 0.929 . S
H268 C279 0.930 . S
N269 Eu240 2.600 . S
N269 C270 1.365 1_556 S
N269 C273 1.319 . S
C270 N269 1.365 1_554 S
C270 C272 1.405 . S
C270 C278 1.448 . S
C271 H266 0.931 . S
C271 C273 1.397 . S
C271 C274 1.367 1_556 S
C272 C270 1.405 . S
C272 C274 1.403 . S
C272 C305 1.439 . S
C273 H258 0.930 . S
C273 N269 1.319 . S
C273 C271 1.397 . S
C274 C271 1.367 1_554 S
C274 C272 1.403 . S
C274 H281 0.929 . S
N275 Eu240 2.562 1_554 S
N275 C276 1.325 . S
N275 C278 1.351 . S
C276 H262 0.929 . S
C276 N275 1.325 . S
C276 C280 1.416 . S
C277 C278 1.430 . S
C277 C279 1.404 . S
C277 C306 1.387 . S
C278 C270 1.448 . S
C278 N275 1.351 . S
C278 C277 1.430 . S
C279 H268 0.930 . S
C279 C277 1.404 . S
C279 C280 1.366 . S
C280 H259 0.930 . S
C280 C276 1.416 . S
C280 C279 1.366 . S
H281 C274 0.929 . S
H282 C305 0.931 . S
H283 C306 0.931 . S
O284 Eu240 2.462 . S
O284 C304 1.252 . S
O285 Eu240 2.373 1_554 S
O285 C296 1.249 . S
O286 Eu251 2.335 . S
O286 C296 1.264 . S
O287 Eu240 2.432 . S
O287 C304 1.268 . S
O288 Eu240 2.291 1_554 S
O288 C303 1.255 . S
O289 Eu251 2.372 . S
O289 C303 1.257 . S
O290 Eu251 2.462 . S
O290 C315 1.252 . S
O291 Eu251 2.373 1_556 S
O291 C307 1.249 . S
O292 Eu240 2.335 . S
O292 C307 1.264 . S
O293 Eu251 2.432 . S
O293 C315 1.268 . S
O294 Eu251 2.291 . S
O294 C314 1.255 . S
O295 Eu240 2.380 . S
O295 C314 1.239 1_556 S
C296 O285 1.249 . S
C296 O286 1.264 . S
C297 C300 1.382 . S
C297 C302 1.390 . S
C297 C304 1.506 . S
C298 C299 1.398 . S
C298 C302 1.392 . S
C299 C298 1.398 . S
C299 C301 1.372 . S
C299 H316 0.931 . S
C300 C297 1.382 . S
C300 C301 1.390 . S
C300 H317 0.931 . S
C301 C299 1.372 . S
C301 C300 1.390 . S
C301 H318 0.929 . S
C302 C297 1.390 . S
C302 C298 1.392 . S
C302 H319 0.930 . S
C303 O288 1.255 . S
C303 O289 1.257 . S
C304 Eu240 2.787 . S
C304 O284 1.252 . S
C304 O287 1.268 . S
C304 C297 1.506 . S
C305 C272 1.439 . S
C305 H282 0.931 . S
C305 C306 1.374 . S
C306 C277 1.387 . S
C306 H283 0.931 . S
C306 C305 1.374 . S
C307 O291 1.249 . S
C307 O292 1.264 . S
C308 C311 1.382 . S
C308 C312 1.390 . S
C308 C315 1.506 . S
C309 C310 1.398 . S
C309 C312 1.392 . S
C310 C309 1.398 . S
C310 C313 1.372 . S
C310 H320 0.931 . S
C311 C308 1.382 . S
C311 C313 1.390 . S
C311 H321 0.931 . S
C312 C308 1.390 . S
C312 C309 1.392 . S
C312 H322 0.930 . S
C313 C310 1.372 . S
C313 C311 1.390 . S
C313 H323 0.929 . S
C314 O294 1.255 . S
C314 O295 1.239 1_554 S
C315 Eu251 2.787 . S
C315 O290 1.252 . S
C315 O293 1.268 . S
C315 C308 1.506 . S
H316 C299 0.931 . S
H317 C300 0.931 . S
H318 C301 0.929 . S
H319 C302 0.930 . S
H320 C310 0.931 . S
H321 C311 0.931 . S
H322 C312 0.930 . S
H323 C313 0.929 . S
H324 C330 0.930 . S
H325 C334 0.930 . S
H326 C339 0.929 . S
H327 C337 0.929 . S
H328 C332 0.929 . S
H329 C338 0.929 . S
C330 H324 0.930 . S
C330 C331 1.367 . S
C330 C338 1.378 . S
C331 C330 1.367 . S
C331 C339 1.433 . S
C332 H328 0.929 . S
C332 C334 1.378 . S
C332 C336 1.350 . S
C333 C336 1.463 . S
C333 C338 1.350 . S
C333 N341 1.427 . S
C334 H325 0.930 . S
C334 C332 1.378 . S
C334 C335 1.367 . S
C335 C334 1.367 . S
C335 C337 1.433 . S
C336 C332 1.350 . S
C336 C333 1.463 . S
C336 N340 1.427 . S
C337 H327 0.929 . S
C337 C335 1.433 . S
C337 N340 1.384 . S
C338 H329 0.929 . S
C338 C330 1.378 . S
C338 C333 1.350 . S
C339 H326 0.929 . S
C339 C331 1.433 . S
C339 N341 1.384 . S
N340 C336 1.427 . S
N340 C337 1.384 . S
N341 C333 1.427 . S
N341 C339 1.384 . S
H342 C348 0.930 . S
H343 C352 0.930 . S
H344 C357 0.929 . S
H345 C355 0.929 . S
H346 C350 0.929 . S
H347 C356 0.929 . S
C348 H342 0.930 . S
C348 C349 1.367 . S
C348 C356 1.378 . S
C349 C348 1.367 . S
C349 C357 1.433 . S
C350 H346 0.929 . S
C350 C352 1.378 . S
C350 C354 1.350 . S
C351 C354 1.463 . S
C351 C356 1.350 . S
C351 N359 1.427 . S
C352 H343 0.930 . S
C352 C350 1.378 . S
C352 C353 1.367 . S
C353 C352 1.367 . S
C353 C355 1.433 . S
C354 C350 1.350 . S
C354 C351 1.463 . S
C354 N358 1.427 . S
C355 H345 0.929 . S
C355 C353 1.433 . S
C355 N358 1.384 . S
C356 H347 0.929 . S
C356 C348 1.378 . S
C356 C351 1.350 . S
C357 H344 0.929 . S
C357 C349 1.433 . S
C357 N359 1.384 . S
N358 C354 1.427 . S
N358 C355 1.384 . S
N359 C351 1.427 . S
N359 C357 1.384 . S
H360 C366 0.930 . S
H361 C370 0.930 . S
H362 C375 0.929 . S
H363 C373 0.929 . S
H364 C368 0.929 . S
H365 C374 0.929 . S
C366 H360 0.930 . S
C366 C367 1.367 . S
C366 C374 1.378 . S
C367 C366 1.367 . S
C367 C375 1.433 . S
C368 H364 0.929 . S
C368 C370 1.378 . S
C368 C372 1.350 . S
C369 C372 1.463 . S
C369 C374 1.350 . S
C369 N377 1.427 . S
C370 H361 0.930 . S
C370 C368 1.378 . S
C370 C371 1.367 . S
C371 C370 1.367 . S
C371 C373 1.433 . S
C372 C368 1.350 . S
C372 C369 1.463 . S
C372 N376 1.427 . S
C373 H363 0.929 . S
C373 C371 1.433 . S
C373 N376 1.384 . S
C374 H365 0.929 . S
C374 C366 1.378 . S
C374 C369 1.350 . S
C375 H362 0.929 . S
C375 C367 1.433 . S
C375 N377 1.384 . S
N376 C372 1.427 . S
N376 C373 1.384 . S
N377 C369 1.427 . S
N377 C375 1.384 . S
H378 C384 0.930 . S
H379 C388 0.930 . S
H380 C393 0.929 . S
H381 C391 0.930 1_556 S
H382 C386 0.929 . S
H383 C392 0.929 . S
C384 H378 0.930 . S
C384 C385 1.367 1_556 S
C384 C392 1.378 . S
C385 C384 1.367 1_554 S
C385 C393 1.433 . S
C386 H382 0.929 . S
C386 C388 1.378 . S
C386 C390 1.350 . S
C387 C390 1.463 . S
C387 C392 1.350 1_554 S
C387 N395 1.427 . S
C388 H379 0.930 . S
C388 C386 1.378 . S
C388 C389 1.367 . S
C389 C388 1.367 . S
C389 C391 1.432 . S
C390 C386 1.350 . S
C390 C387 1.463 . S
C390 N394 1.427 1_554 S
C391 H381 0.930 1_554 S
C391 C389 1.432 . S
C391 N394 1.384 1_554 S
C392 H383 0.929 . S
C392 C384 1.378 . S
C392 C387 1.350 1_556 S
C393 H380 0.929 . S
C393 C385 1.433 . S
C393 N395 1.384 . S
N394 C390 1.427 1_556 S
N394 C391 1.384 1_556 S
N395 C387 1.427 . S
N395 C393 1.384 . S
H396 C402 0.930 . S
H397 C406 0.930 . S
H398 C411 0.929 . S
H399 C409 0.929 . S
H400 C404 0.929 . S
H401 C410 0.929 . S
C402 H396 0.930 . S
C402 C403 1.367 . S
C402 C410 1.378 . S
C403 C402 1.367 . S
C403 C411 1.433 . S
C404 H400 0.929 . S
C404 C406 1.378 . S
C404 C408 1.350 . S
C405 C408 1.463 . S
C405 C410 1.350 . S
C405 N413 1.427 . S
C406 H397 0.930 . S
C406 C404 1.378 . S
C406 C407 1.367 . S
C407 C406 1.367 . S
C407 C409 1.433 . S
C408 C404 1.350 . S
C408 C405 1.463 . S
C408 N412 1.427 . S
C409 H399 0.929 . S
C409 C407 1.433 . S
C409 N412 1.384 . S
C410 H401 0.929 . S
C410 C402 1.378 . S
C410 C405 1.350 . S
C411 H398 0.929 . S
C411 C403 1.433 . S
C411 N413 1.384 . S
N412 C408 1.427 . S
N412 C409 1.384 . S
N413 C405 1.427 . S
N413 C411 1.384 . S
H414 C420 0.930 . S
H415 C424 0.930 . S
H416 C429 0.929 . S
H417 C427 0.929 . S
H418 C422 0.929 . S
H419 C428 0.929 . S
C420 H414 0.930 . S
C420 C421 1.367 . S
C420 C428 1.378 . S
C421 C420 1.367 . S
C421 C429 1.433 . S
C422 H418 0.929 . S
C422 C424 1.378 . S
C422 C426 1.350 . S
C423 C426 1.463 . S
C423 C428 1.350 . S
C423 N431 1.427 . S
C424 H415 0.930 . S
C424 C422 1.378 . S
C424 C425 1.367 . S
C425 C424 1.367 . S
C425 C427 1.433 . S
C426 C422 1.350 . S
C426 C423 1.463 . S
C426 N430 1.427 . S
C427 H417 0.929 . S
C427 C425 1.433 . S
C427 N430 1.384 . S
C428 H419 0.929 . S
C428 C420 1.378 . S
C428 C423 1.350 . S
C429 H416 0.929 . S
C429 C421 1.433 . S
C429 N431 1.384 . S
N430 C426 1.427 . S
N430 C427 1.384 . S
N431 C423 1.427 . S
N431 C429 1.384 . S
H432 C438 0.930 . S
H433 C442 0.930 1_565 S
H434 C447 0.929 . S
H435 C445 0.929 . S
H436 C440 0.929 1_565 S
H437 C446 0.929 . S
C438 H432 0.930 . S
C438 C439 1.367 . S
C438 C446 1.378 . S
C439 C438 1.367 . S
C439 C447 1.433 . S
C440 H436 0.929 1_545 S
C440 C442 1.378 . S
C440 C444 1.350 . S
C441 C444 1.463 . S
C441 C446 1.350 . S
C441 N449 1.427 . S
C442 H433 0.930 1_545 S
C442 C440 1.378 . S
C442 C443 1.367 . S
C443 C442 1.367 . S
C443 C445 1.433 . S
C444 C440 1.350 . S
C444 C441 1.463 . S
C444 N448 1.427 . S
C445 H435 0.929 . S
C445 C443 1.433 . S
C445 N448 1.384 . S
C446 H437 0.929 . S
C446 C438 1.378 . S
C446 C441 1.350 . S
C447 H434 0.929 . S
C447 C439 1.433 . S
C447 N449 1.384 . S
N448 C444 1.427 . S
N448 C445 1.384 . S
N449 C441 1.427 . S
N449 C447 1.384 . S
H450 C456 0.930 . S
H451 C460 0.930 . S
H452 C465 0.929 . S
H453 C463 0.929 . S
H454 C458 0.929 . S
H455 C464 0.929 . S
C456 H450 0.930 . S
C456 C457 1.367 . S
C456 C464 1.378 . S
C457 C456 1.367 . S
C457 C465 1.433 . S
C458 H454 0.929 . S
C458 C460 1.378 . S
C458 C462 1.350 . S
C459 C462 1.463 . S
C459 C464 1.350 . S
C459 N467 1.427 . S
C460 H451 0.930 . S
C460 C458 1.378 . S
C460 C461 1.367 . S
C461 C460 1.367 . S
C461 C463 1.433 . S
C462 C458 1.350 . S
C462 C459 1.463 . S
C462 N466 1.427 . S
C463 H453 0.929 . S
C463 C461 1.433 . S
C463 N466 1.384 . S
C464 H455 0.929 . S
C464 C456 1.378 . S
C464 C459 1.350 . S
C465 H452 0.929 . S
C465 C457 1.433 . S
C465 N467 1.384 . S
N466 C462 1.427 . S
N466 C463 1.384 . S
N467 C459 1.427 . S
N467 C465 1.384 . S
H468 C474 0.930 . S
H469 C478 0.930 . S
H470 C483 0.929 . S
H471 C481 0.929 . S
H472 C476 0.929 . S
H473 C482 0.929 . S
C474 H468 0.930 . S
C474 C475 1.367 . S
C474 C482 1.378 . S
C475 C474 1.367 . S
C475 C483 1.433 . S
C476 H472 0.929 . S
C476 C478 1.378 . S
C476 C480 1.350 . S
C477 C480 1.463 . S
C477 C482 1.350 . S
C477 N485 1.427 . S
C478 H469 0.930 . S
C478 C476 1.378 . S
C478 C479 1.367 . S
C479 C478 1.367 . S
C479 C481 1.433 . S
C480 C476 1.350 . S
C480 C477 1.463 . S
C480 N484 1.427 . S
C481 H471 0.929 . S
C481 C479 1.433 . S
C481 N484 1.384 . S
C482 H473 0.929 . S
C482 C474 1.378 . S
C482 C477 1.350 . S
C483 H470 0.929 . S
C483 C475 1.433 . S
C483 N485 1.384 . S
N484 C480 1.427 . S
N484 C481 1.384 . S
N485 C477 1.427 . S
N485 C483 1.384 . S
H486 C492 0.930 . S
H487 C496 0.930 . S
H488 C501 0.929 . S
H489 C499 0.929 . S
H490 C494 0.929 . S
H491 C500 0.929 . S
C492 H486 0.930 . S
C492 C493 1.367 . S
C492 C500 1.378 . S
C493 C492 1.367 . S
C493 C501 1.433 . S
C494 H490 0.929 . S
C494 C496 1.378 . S
C494 C498 1.350 . S
C495 C498 1.463 . S
C495 C500 1.350 . S
C495 N503 1.427 . S
C496 H487 0.930 . S
C496 C494 1.378 . S
C496 C497 1.367 . S
C497 C496 1.367 . S
C497 C499 1.433 . S
C498 C494 1.350 . S
C498 C495 1.463 . S
C498 N502 1.427 . S
C499 H489 0.929 . S
C499 C497 1.433 . S
C499 N502 1.384 . S
C500 H491 0.929 . S
C500 C492 1.378 . S
C500 C495 1.350 . S
C501 H488 0.929 . S
C501 C493 1.433 . S
C501 N503 1.384 . S
N502 C498 1.427 . S
N502 C499 1.384 . S
N503 C495 1.427 . S
N503 C501 1.384 . S
H504 C510 0.930 . S
H505 C514 0.930 . S
H506 C519 0.929 . S
H507 C517 0.929 . S
H508 C512 0.929 . S
H509 C518 0.929 . S
C510 H504 0.930 . S
C510 C511 1.367 . S
C510 C518 1.378 . S
C511 C510 1.367 . S
C511 C519 1.433 . S
C512 H508 0.929 . S
C512 C514 1.378 . S
C512 C516 1.350 . S
C513 C516 1.463 . S
C513 C518 1.350 . S
C513 N521 1.427 . S
C514 H505 0.930 . S
C514 C512 1.378 . S
C514 C515 1.367 . S
C515 C514 1.367 . S
C515 C517 1.433 . S
C516 C512 1.350 . S
C516 C513 1.463 . S
C516 N520 1.427 . S
C517 H507 0.929 . S
C517 C515 1.433 . S
C517 N520 1.384 . S
C518 H509 0.929 . S
C518 C510 1.378 . S
C518 C513 1.350 . S
C519 H506 0.929 . S
C519 C511 1.433 . S
C519 N521 1.384 . S
N520 C516 1.427 . S
N520 C517 1.384 . S
N521 C513 1.427 . S
N521 C519 1.384 . S
H522 C528 0.930 . S
H523 C532 0.901 1_545 S
H524 C537 0.929 . S
H525 C535 0.929 . S
H526 C530 0.929 1_545 S
H527 C536 0.929 . S
C528 H522 0.930 . S
C528 C529 1.367 . S
C528 C536 1.378 . S
C529 C528 1.367 . S
C529 C537 1.433 . S
C530 H526 0.929 1_565 S
C530 C532 1.378 . S
C530 C534 1.350 . S
C531 C534 1.463 . S
C531 C536 1.350 . S
C531 N539 1.427 . S
C532 H523 0.901 1_565 S
C532 C530 1.378 . S
C532 C533 1.397 . S
C533 C532 1.397 . S
C533 C535 1.433 . S
C534 C530 1.350 . S
C534 C531 1.463 . S
C534 N538 1.427 . S
C535 H525 0.929 . S
C535 C533 1.433 . S
C535 N538 1.384 . S
C536 H527 0.929 . S
C536 C528 1.378 . S
C536 C531 1.350 . S
C537 H524 0.929 . S
C537 C529 1.433 . S
C537 N539 1.384 . S
N538 C534 1.427 . S
N538 C535 1.384 . S
N539 C531 1.427 . S
N539 C537 1.384 . S
C335 C219 1.640 . S
C331 C138 1.633 . S
C349 C21 1.616 . S
C353 C314 1.624 . S
C367 C60 1.633 . S
C371 C230 1.643 . S
C385 C99 1.633 . S
C389 C303 1.625 . S
C407 C214 1.413 . S
C403 C16 1.556 . S
C425 C307 1.617 . S
C421 C40 1.603 . S
C439 C79 1.601 . S
C443 C223 1.623 . S
C457 C133 1.539 . S
C461 C298 1.406 . S
C479 C309 1.404 . S
C475 C55 1.542 . S
C497 C225 1.408 . S
C493 C94 1.557 . S
C515 C296 1.616 . S
C511 C118 1.605 . S
C529 C1 1.595 . S
C533 C212 1.623 . S
