# Generated by pormake.
# Topology zzz, (3,6)-cn, num edge types: 1
# Building blocks:
#     Node 0, Type 0, BuildingBlock: BETDIP_clean_linker_0, # of connection points: 3
#     Node 1, Type 0, BuildingBlock: BETDIP_clean_linker_0, # of connection points: 3
#     Node 2, Type 0, BuildingBlock: BETDIP_clean_linker_0, # of connection points: 3
#     Node 3, Type 0, BuildingBlock: BETDIP_clean_linker_0, # of connection points: 3
#     Node 4, Type 0, BuildingBlock: BETDIP_clean_linker_0, # of connection points: 3
#     Node 5, Type 0, BuildingBlock: BETDIP_clean_linker_0, # of connection points: 3
#     Node 6, Type 0, BuildingBlock: BETDIP_clean_linker_0, # of connection points: 3
#     Node 7, Type 0, BuildingBlock: BETDIP_clean_linker_0, # of connection points: 3
#     Node 8, Type 1, BuildingBlock: LEVNOQ01_clean_sbu_1, # of connection points: 6
#     Node 9, Type 1, BuildingBlock: LEVNOQ01_clean_sbu_1, # of connection points: 6
#     Node 10, Type 1, BuildingBlock: LEVNOQ01_clean_sbu_1, # of connection points: 6
#     Node 11, Type 1, BuildingBlock: LEVNOQ01_clean_sbu_1, # of connection points: 6
#     Edge 12, Type (0, 1), BuildingBlock: ZUJKAS_clean_linker_0, # of connection points: 2
#     Edge 13, Type (0, 1), BuildingBlock: ZUJKAS_clean_linker_0, # of connection points: 2
#     Edge 14, Type (0, 1), BuildingBlock: ZUJKAS_clean_linker_0, # of connection points: 2
#     Edge 15, Type (0, 1), BuildingBlock: ZUJKAS_clean_linker_0, # of connection points: 2
#     Edge 16, Type (0, 1), BuildingBlock: ZUJKAS_clean_linker_0, # of connection points: 2
#     Edge 17, Type (0, 1), BuildingBlock: ZUJKAS_clean_linker_0, # of connection points: 2
#     Edge 18, Type (0, 1), BuildingBlock: ZUJKAS_clean_linker_0, # of connection points: 2
#     Edge 19, Type (0, 1), BuildingBlock: ZUJKAS_clean_linker_0, # of connection points: 2
#     Edge 20, Type (0, 1), BuildingBlock: ZUJKAS_clean_linker_0, # of connection points: 2
#     Edge 21, Type (0, 1), BuildingBlock: ZUJKAS_clean_linker_0, # of connection points: 2
#     Edge 22, Type (0, 1), BuildingBlock: ZUJKAS_clean_linker_0, # of connection points: 2
#     Edge 23, Type (0, 1), BuildingBlock: ZUJKAS_clean_linker_0, # of connection points: 2
#     Edge 24, Type (0, 1), BuildingBlock: ZUJKAS_clean_linker_0, # of connection points: 2
#     Edge 25, Type (0, 1), BuildingBlock: ZUJKAS_clean_linker_0, # of connection points: 2
#     Edge 26, Type (0, 1), BuildingBlock: ZUJKAS_clean_linker_0, # of connection points: 2
#     Edge 27, Type (0, 1), BuildingBlock: ZUJKAS_clean_linker_0, # of connection points: 2
#     Edge 28, Type (0, 1), BuildingBlock: ZUJKAS_clean_linker_0, # of connection points: 2
#     Edge 29, Type (0, 1), BuildingBlock: ZUJKAS_clean_linker_0, # of connection points: 2
#     Edge 30, Type (0, 1), BuildingBlock: ZUJKAS_clean_linker_0, # of connection points: 2
#     Edge 31, Type (0, 1), BuildingBlock: ZUJKAS_clean_linker_0, # of connection points: 2
#     Edge 32, Type (0, 1), BuildingBlock: ZUJKAS_clean_linker_0, # of connection points: 2
#     Edge 33, Type (0, 1), BuildingBlock: ZUJKAS_clean_linker_0, # of connection points: 2
#     Edge 34, Type (0, 1), BuildingBlock: ZUJKAS_clean_linker_0, # of connection points: 2
#     Edge 35, Type (0, 1), BuildingBlock: ZUJKAS_clean_linker_0, # of connection points: 2
# Relax obj value: 0.140
# Max RMSD: 0.184
# Mean RMSD: 0.106
data_MOF--net-zzz--node1-LEVNOQ01_clean_sbu_1--node2-BETDIP_clean_linker_0--edge1-ZUJKAS_clean_linker_0
_symmetry_space_group_name_H-M    P1
_symmetry_Int_Tables_number       1
_symmetry_cell_setting            triclinic
loop_
_symmetry_equiv_pos_as_xyz
'x, y, z'
_cell_length_a     65.278512
_cell_length_b     65.507151
_cell_length_c     20.487835
_cell_angle_alpha  89.9918
_cell_angle_beta   89.890998
_cell_angle_gamma 89.918503
loop_
_atom_site_label
_atom_site_type_symbol
_atom_site_fract_x
_atom_site_fract_y
_atom_site_fract_z
_atom_type_partial_charge
H0 H 0.76508 0.5464 0.27343 0.0
H1 H 0.77577 0.56244 0.07186 0.0
H2 H 0.82518 0.56424 0.20929 0.0
H3 H 0.74136 0.58058 0.10786 0.0
C4 C 0.73537 0.56533 0.11647 0.0
C5 C 0.77526 0.55173 0.23526 0.0
C6 C 0.79599 0.55573 0.24939 0.0
C7 C 0.76763 0.55511 0.17173 0.0
C8 C 0.7812 0.56105 0.12162 0.0
C9 C 0.80194 0.56444 0.1353 0.0
C10 C 0.80897 0.56227 0.19926 0.0
N11 N 0.74653 0.55184 0.1578 0.0
H12 H 0.9658 0.76039 0.28358 0.0
H13 H 0.9518 0.77127 0.08049 0.0
H14 H 0.95292 0.82116 0.21556 0.0
H15 H 0.93185 0.73969 0.10952 0.0
C16 C 0.94598 0.73197 0.12303 0.0
C17 C 0.96157 0.77071 0.24454 0.0
C18 C 0.95917 0.79173 0.25733 0.0
C19 C 0.95794 0.76304 0.18113 0.0
C20 C 0.9534 0.77676 0.13011 0.0
C21 C 0.95142 0.79766 0.14274 0.0
C22 C 0.95388 0.80486 0.20632 0.0
N23 N 0.95935 0.74169 0.16833 0.0
H24 H 0.75473 0.96731 0.28062 0.0
H25 H 0.74645 0.95725 0.07407 0.0
H26 H 0.69501 0.9537 0.20401 0.0
H27 H 0.77962 0.93545 0.11622 0.0
C28 C 0.78589 0.95056 0.12538 0.0
C29 C 0.74491 0.96359 0.23976 0.0
C30 C 0.72386 0.96004 0.25 0.0
C31 C 0.75331 0.96167 0.17649 0.0
C32 C 0.74031 0.95764 0.12324 0.0
C33 C 0.71931 0.9547 0.13332 0.0
C34 C 0.71139 0.95547 0.19662 0.0
N35 N 0.7747 0.96424 0.16604 0.0
H36 H 0.55191 0.75297 0.28499 0.0
H37 H 0.55824 0.74219 0.07773 0.0
H38 H 0.56023 0.69202 0.21142 0.0
H39 H 0.57898 0.77276 0.09546 0.0
C40 C 0.56628 0.78115 0.11708 0.0
C41 C 0.55433 0.74264 0.24443 0.0
C42 C 0.55644 0.72151 0.25589 0.0
C43 C 0.55593 0.75038 0.1802 0.0
C44 C 0.55816 0.73665 0.12756 0.0
C45 C 0.55995 0.71569 0.13909 0.0
C46 C 0.55942 0.70838 0.20298 0.0
N47 N 0.55491 0.77182 0.16854 0.0
H48 H 0.25591 0.46177 0.15244 0.0
H49 H 0.24154 0.45403 0.35701 0.0
H50 H 0.19439 0.44814 0.21329 0.0
H51 H 0.26616 0.48126 0.35633 0.0
C52 C 0.27782 0.47234 0.33116 0.0
C53 C 0.24505 0.45814 0.19076 0.0
C54 C 0.22439 0.45434 0.17511 0.0
C55 C 0.25147 0.45794 0.25656 0.0
C56 C 0.23697 0.45404 0.30622 0.0
C57 C 0.21646 0.45018 0.29058 0.0
C58 C 0.21047 0.45009 0.2252 0.0
N59 N 0.27233 0.46197 0.27263 0.0
H60 H 0.0496 0.25584 0.13619 0.0
H61 H 0.05347 0.24629 0.34438 0.0
H62 H 0.06164 0.19596 0.21318 0.0
H63 H 0.02217 0.27128 0.31727 0.0
C64 C 0.03418 0.28165 0.30134 0.0
C65 C 0.05249 0.24588 0.17738 0.0
C66 C 0.0561 0.2249 0.16717 0.0
C67 C 0.05181 0.25378 0.2415 0.0
C68 C 0.05447 0.2405 0.29493 0.0
C69 C 0.05853 0.21977 0.28457 0.0
C70 C 0.05958 0.21224 0.22089 0.0
N71 N 0.04815 0.27493 0.25239 0.0
H72 H 0.26169 0.05169 0.14896 0.0
H73 H 0.2745 0.05729 0.35503 0.0
H74 H 0.32244 0.06608 0.21497 0.0
H75 H 0.25028 0.02935 0.34865 0.0
C76 C 0.23872 0.03854 0.32423 0.0
C77 C 0.27219 0.0552 0.18825 0.0
C78 C 0.29287 0.05959 0.17421 0.0
C79 C 0.26532 0.05456 0.25362 0.0
C80 C 0.27939 0.05814 0.30455 0.0
C81 C 0.29989 0.06266 0.29053 0.0
C82 C 0.30631 0.0637 0.22557 0.0
N83 N 0.24445 0.04992 0.26784 0.0
H84 H 0.4659 0.2608 0.15876 0.0
H85 H 0.45222 0.27677 0.35899 0.0
H86 H 0.44861 0.32212 0.20901 0.0
H87 H 0.47844 0.25273 0.37173 0.0
C88 C 0.47158 0.24062 0.34281 0.0
C89 C 0.46086 0.27183 0.1948 0.0
C90 C 0.45674 0.29211 0.17594 0.0
C91 C 0.45913 0.26602 0.261 0.0
C92 C 0.4534 0.2808 0.30786 0.0
C93 C 0.44932 0.30095 0.28902 0.0
C94 C 0.4507 0.30628 0.22318 0.0
N95 N 0.4635 0.24551 0.28011 0.0
O96 O 0.03298 0.97646 0.85222 0.0
Mg97 Mg 0.04486 0.97782 0.7562 0.0
O98 O 0.00469 0.98782 0.80705 0.0
Mg99 Mg 0.00942 0.00749 0.71476 0.0
O100 O 0.04497 0.00536 0.70996 0.0
O101 O 0.0737 0.98913 0.73784 0.0
O102 O 0.01468 0.02703 0.6217 0.0
O103 O 0.0131 0.03759 0.77642 0.0
Mg104 Mg 0.97642 0.03546 0.66895 0.0
O105 O 0.97343 0.00946 0.72294 0.0
O106 O 0.98601 0.03355 0.57099 0.0
O107 O 0.99082 0.05815 0.72749 0.0
O108 O 0.94673 0.02808 0.6886 0.0
C109 C 0.01587 0.96031 0.65164 0.0
C110 C 0.01369 0.97834 0.85309 0.0
C111 C 0.06484 0.00401 0.70771 0.0
C112 C 0.00533 0.03422 0.57231 0.0
C113 C 0.005 0.05529 0.76904 0.0
C114 C 0.95373 0.01283 0.72169 0.0
O115 O 0.03132 0.95729 0.68827 0.0
O116 O 0.00606 0.97731 0.65264 0.0
O117 O 0.45663 0.98536 0.73814 0.0
Mg118 Mg 0.47949 0.97143 0.67896 0.0
O119 O 0.47655 0.01039 0.77362 0.0
Mg120 Mg 0.50676 0.00619 0.71215 0.0
O121 O 0.50658 0.97037 0.728 0.0
O122 O 0.48822 0.94259 0.70212 0.0
O123 O 0.53686 0.00176 0.64961 0.0
O124 O 0.52617 0.00254 0.80615 0.0
Mg125 Mg 0.53375 0.03811 0.74853 0.0
O126 O 0.5065 0.04265 0.69998 0.0
O127 O 0.55688 0.0263 0.68692 0.0
O128 O 0.53627 0.03129 0.84866 0.0
O129 O 0.52765 0.0677 0.73236 0.0
C130 C 0.48044 -0.00257 0.57076 0.0
C131 C 0.45932 0.00106 0.77353 0.0
C132 C 0.50383 0.95064 0.7308 0.0
C133 C 0.55408 0.01108 0.6498 0.0
C134 C 0.53511 0.01212 0.85191 0.0
C135 C 0.51116 0.06207 0.70282 0.0
O136 O 0.47983 0.97837 0.57926 0.0
O137 O 0.48777 0.00882 0.61548 0.0
O138 O 0.53222 0.45348 0.73478 0.0
Mg139 Mg 0.54541 0.47596 0.67339 0.0
O140 O 0.50701 0.47342 0.76969 0.0
Mg141 Mg 0.51118 0.50385 0.70918 0.0
O142 O 0.5473 0.50319 0.72191 0.0
O143 O 0.57461 0.48429 0.69339 0.0
O144 O 0.51547 0.53426 0.64864 0.0
O145 O 0.51506 0.52277 0.80462 0.0
Mg146 Mg 0.47952 0.52979 0.74946 0.0
O147 O 0.47463 0.50362 0.69644 0.0
O148 O 0.49164 0.5539 0.69276 0.0
O149 O 0.4858 0.53023 0.85005 0.0
O150 O 0.44977 0.52472 0.73131 0.0
C151 C 0.5185 0.47758 0.56651 0.0
C152 C 0.51649 0.45627 0.7703 0.0
C153 C 0.56708 0.50004 0.72278 0.0
C154 C 0.50643 0.55156 0.65323 0.0
C155 C 0.50508 0.53043 0.85211 0.0
C156 C 0.45522 0.50859 0.69959 0.0
O157 O 0.53755 0.47528 0.57411 0.0
O158 O 0.50793 0.4858 0.61175 0.0
O159 O 0.98082 0.48047 0.85829 0.0
Mg160 Mg 0.98112 0.47064 0.76039 0.0
O161 O 0.99067 0.51037 0.82087 0.0
Mg162 Mg 0.0091 0.50781 0.7238 0.0
O163 O 0.00842 0.47247 0.71301 0.0
O164 O 0.99343 0.44273 0.73566 0.0
O165 O 0.02728 0.50401 0.6269 0.0
O166 O 0.03972 0.50349 0.7834 0.0
Mg167 Mg 0.03615 0.53982 0.6853 0.0
O168 O 0.00911 0.54421 0.73549 0.0
O169 O 0.03742 0.53293 0.58517 0.0
O170 O 0.05978 0.52773 0.74425 0.0
O171 O 0.03012 0.56937 0.70302 0.0
C172 C 0.96159 0.50075 0.66327 0.0
C173 C 0.98236 0.49958 0.86547 0.0
C174 C 0.00795 0.4527 0.70725 0.0
C175 C 0.03567 0.51383 0.58044 0.0
C176 C 0.05709 0.51252 0.78154 0.0
C177 C 0.01373 0.56364 0.73315 0.0
O178 O 0.95936 0.48457 0.69698 0.0
O179 O 0.97826 0.51108 0.66529 0.0
H180 H 0.22407 0.01327 0.41667 0.0
H181 H 0.19008 0.01299 0.46686 0.0
H182 H 0.17167 0.06336 0.3448 0.0
H183 H 0.20587 0.06358 0.29356 0.0
H184 H 0.1628 0.06698 0.48774 0.0
H185 H 0.13498 0.9947 0.3789 0.0
H186 H 0.16039 0.99311 0.41218 0.0
H187 H 0.15556 0.00947 0.34345 0.0
C188 C 0.21273 0.02416 0.39999 0.0
C189 C 0.21756 0.03831 0.35087 0.0
C190 C 0.1933 0.02396 0.42864 0.0
C191 C 0.17827 0.038 0.40914 0.0
C192 C 0.18302 0.0523 0.36023 0.0
H193 H 0.05725 0.0137 0.58077 0.0
H194 H 0.08216 0.02675 0.50105 0.0
C195 C 0.20251 0.05236 0.33086 0.0
C196 C 0.15793 0.03781 0.44193 0.0
H197 H 0.11773 0.00619 0.47542 0.0
C198 C 0.15271 0.05389 0.48417 0.0
C199 C 0.14465 0.02087 0.43668 0.0
C200 C 0.14902 0.00362 0.38991 0.0
C201 C 0.13521 0.05282 0.52433 0.0
C202 C 0.12275 0.03514 0.52262 0.0
C203 C 0.12729 0.01971 0.47721 0.0
C204 C 0.10634 0.03126 0.57174 0.0
C205 C 0.13045 0.07044 0.56922 0.0
C206 C 0.11141 0.02993 0.63822 0.0
C207 C 0.09715 0.02268 0.68365 0.0
C208 C 0.07747 0.01673 0.66375 0.0
C209 C 0.07205 0.0189 0.5978 0.0
C210 C 0.08637 0.02611 0.55213 0.0
H211 H 0.1368 0.08497 0.54988 0.0
H212 H 0.11368 0.07225 0.57641 0.0
H213 H 0.1376 0.06758 0.61747 0.0
H214 H 0.12682 0.03324 0.65448 0.0
H215 H 0.10189 0.02064 0.73389 0.0
H216 H 0.48755 0.22913 0.45791 0.0
H217 H 0.48692 0.19556 0.50946 0.0
H218 H 0.45369 0.17132 0.34509 0.0
H219 H 0.45458 0.20512 0.29246 0.0
H220 H 0.4532 0.17273 0.54659 0.0
H221 H 0.50078 0.13032 0.36566 0.0
H222 H 0.49968 0.15785 0.36717 0.0
H223 H 0.47859 0.14348 0.33508 0.0
C224 C 0.48022 0.21662 0.43244 0.0
C225 C 0.47124 0.21973 0.37102 0.0
C226 C 0.4798 0.19744 0.46208 0.0
C227 C 0.4704 0.18081 0.43111 0.0
C228 C 0.46133 0.18382 0.36955 0.0
H229 H 0.47951 0.05746 0.61444 0.0
H230 H 0.46491 0.08425 0.5433 0.0
C231 C 0.46179 0.20314 0.33961 0.0
C232 C 0.47011 0.16064 0.46486 0.0
H233 H 0.49142 0.1129 0.46132 0.0
C234 C 0.46124 0.15953 0.52732 0.0
C235 C 0.48047 0.14331 0.43972 0.0
C236 C 0.49056 0.14368 0.37344 0.0
C237 C 0.46341 0.14207 0.56656 0.0
C238 C 0.47486 0.12527 0.54311 0.0
C239 C 0.48257 0.12578 0.47908 0.0
C240 C 0.48196 0.10887 0.58792 0.0
C241 C 0.4542 0.14206 0.63412 0.0
C242 C 0.49606 0.11384 0.6368 0.0
C243 C 0.50458 0.09867 0.67602 0.0
C244 C 0.49924 0.07801 0.66755 0.0
C245 C 0.48426 0.07312 0.62089 0.0
C246 C 0.47588 0.0884 0.58057 0.0
H247 H 0.44127 0.15304 0.63799 0.0
H248 H 0.44866 0.12659 0.64759 0.0
H249 H 0.46608 0.14664 0.66989 0.0
H250 H 0.50106 0.12948 0.6432 0.0
H251 H 0.51591 0.10316 0.71176 0.0
H252 H 0.31184 0.44993 0.29174 0.0
H253 H 0.34508 0.44761 0.34836 0.0
H254 H 0.32333 0.48995 0.49405 0.0
H255 H 0.29037 0.49211 0.43866 0.0
H256 H 0.37399 0.47838 0.38201 0.0
H257 H 0.34299 0.44174 0.60383 0.0
H258 H 0.32893 0.44266 0.52803 0.0
H259 H 0.32873 0.4642 0.5827 0.0
C260 C 0.31423 0.45873 0.33578 0.0
C261 C 0.29849 0.47114 0.36108 0.0
C262 C 0.33319 0.45738 0.3681 0.0
C263 C 0.33655 0.46826 0.42632 0.0
C264 C 0.32097 0.48101 0.45024 0.0
H265 H 0.41492 0.51846 0.69091 0.0
H266 H 0.38887 0.50355 0.62178 0.0
C267 C 0.30217 0.48235 0.41824 0.0
C268 C 0.35626 0.46685 0.46262 0.0
H269 H 0.37463 0.46059 0.61738 0.0
C270 C 0.37433 0.47394 0.43299 0.0
C271 C 0.35679 0.46082 0.52898 0.0
C272 C 0.33835 0.45172 0.56253 0.0
C273 C 0.39236 0.47688 0.46958 0.0
C274 C 0.39226 0.47256 0.53726 0.0
C275 C 0.37468 0.46399 0.56555 0.0
C276 C 0.40859 0.48023 0.58138 0.0
C277 C 0.41095 0.48598 0.43696 0.0
C278 C 0.42837 0.47171 0.58312 0.0
C279 C 0.44359 0.48026 0.62338 0.0
C280 C 0.43919 0.49749 0.66206 0.0
C281 C 0.41907 0.50532 0.66167 0.0
C282 C 0.40404 0.49681 0.62196 0.0
H283 H 0.40838 0.48904 0.38427 0.0
H284 H 0.41518 0.50049 0.46143 0.0
H285 H 0.42413 0.47536 0.44186 0.0
H286 H 0.43202 0.4586 0.55319 0.0
H287 H 0.45876 0.47359 0.62368 0.0
H288 H 0.00364 0.30123 0.36365 0.0
H289 H 0.00506 0.33334 0.4238 0.0
H290 H 0.069 0.3396 0.37374 0.0
H291 H 0.06723 0.30781 0.31028 0.0
H292 H 0.02557 0.34074 0.5277 0.0
H293 H 0.05081 0.39683 0.34153 0.0
H294 H 0.04257 0.37141 0.32029 0.0
H295 H 0.06801 0.37566 0.35107 0.0
C296 C 0.01789 0.3097 0.36433 0.0
C297 C 0.03525 0.30214 0.3319 0.0
C298 C 0.01874 0.32803 0.39898 0.0
C299 C 0.0371 0.33914 0.40324 0.0
C300 C 0.0545 0.33171 0.37006 0.0
H301 H 0.0386 0.42548 0.7311 0.0
H302 H 0.05075 0.39917 0.65496 0.0
C303 C 0.05352 0.31347 0.33402 0.0
C304 C 0.03799 0.35753 0.44646 0.0
H305 H 0.0487 0.40868 0.45077 0.0
C306 C 0.03068 0.35557 0.5107 0.0
C307 C 0.04459 0.37698 0.42458 0.0
C308 C 0.05176 0.38046 0.35545 0.0
C309 C 0.0291 0.37242 0.55276 0.0
C310 C 0.03596 0.39184 0.53139 0.0
C311 C 0.04373 0.39378 0.4676 0.0
C312 C 0.03329 0.41045 0.57268 0.0
C313 C 0.01904 0.36931 0.61849 0.0
C314 C 0.021 0.42664 0.5504 0.0
C315 C 0.01463 0.44203 0.5934 0.0
C316 C 0.02055 0.44158 0.65924 0.0
C317 C 0.03417 0.42637 0.68025 0.0
C318 C 0.04082 0.41116 0.63696 0.0
H319 H 0.00996 0.35499 0.62018 0.0
H320 H 0.03102 0.36827 0.65668 0.0
H321 H 0.00869 0.38224 0.63067 0.0
H322 H 0.01503 0.42657 0.50109 0.0
H323 H 0.00374 0.45335 0.57645 0.0
H324 H 0.81432 0.92443 0.07881 0.0
H325 H 0.84602 0.93234 0.02047 0.0
H326 H 0.83304 -0.00329 0.03929 0.0
H327 H 0.80187 0.98873 0.10113 0.0
H328 H 0.85094 0.94848 0.90989 0.0
H329 H 0.89184 -0.00191 0.08394 0.0
H330 H 0.86936 0.98382 0.10706 0.0
H331 H 0.8669 0.00815 0.06657 0.0
C332 C 0.81851 0.94028 0.07168 0.0
C333 C 0.80579 0.95595 0.09505 0.0
C334 C 0.8366 0.94481 0.03807 0.0
C335 C 0.84225 0.96516 0.02593 0.0
C336 C 0.82951 0.98089 0.0496 0.0
H337 H 0.91369 0.00507 0.69737 0.0
H338 H 0.88807 0.99181 0.77285 0.0
C339 C 0.81158 0.97634 0.08463 0.0
C340 C 0.86054 0.96968 0.98432 0.0
H341 H 0.90322 -0.00033 0.97221 0.0
C342 C 0.86248 0.95951 0.92416 0.0
C343 C 0.87598 0.98372 0.00288 0.0
C344 C 0.87605 0.99387 0.06897 0.0
C345 C 0.8789 0.9634 0.88151 0.0
C346 C 0.89344 0.97858 0.89783 0.0
C347 C 0.89197 0.98824 0.95896 0.0
C348 C 0.90953 0.98545 0.85079 0.0
C349 C 0.88051 0.95097 0.81969 0.0
C350 C 0.93021 0.98691 0.86955 0.0
C351 C 0.94489 0.99497 0.82654 0.0
C352 C 0.93924 0.00141 0.7637 0.0
C353 C 0.91862 -0.00026 0.74488 0.0
C354 C 0.90395 0.99201 0.78799 0.0
H355 H 0.87353 0.93564 0.82614 0.0
H356 H 0.87201 0.95881 0.78009 0.0
H357 H 0.89669 0.94895 0.80416 0.0
H358 H 0.93492 0.98228 0.91803 0.0
H359 H 0.96041 -0.00283 0.84359 0.0
H360 H 0.58692 0.80101 0.02259 0.0
H361 H 0.5783 0.83327 0.96961 0.0
H362 H 0.52557 0.83961 0.09519 0.0
H363 H 0.53406 0.80697 0.14808 0.0
H364 H 0.51609 0.84572 0.9677 0.0
H365 H 0.58427 0.89194 0.02781 0.0
H366 H 0.59113 0.86797 0.99156 0.0
H367 H 0.57833 0.86838 0.06947 0.0
C368 C 0.57364 0.80942 0.03957 0.0
C369 C 0.56124 0.80152 0.08966 0.0
C370 C 0.56881 0.82796 0.00956 0.0
C371 C 0.55152 0.83916 0.02918 0.0
C372 C 0.53913 0.83137 0.07967 0.0
H373 H 0.51582 0.95745 0.85667 0.0
H374 H 0.52886 0.93175 0.93382 0.0
C375 C 0.54399 0.81274 0.10991 0.0
C376 C 0.5456 0.85801 0.99298 0.0
H377 H 0.56409 0.90362 0.9365 0.0
C378 C 0.5265 0.85849 0.96171 0.0
C379 C 0.55905 0.87484 0.98552 0.0
C380 C 0.57925 0.87589 0.02096 0.0
C381 C 0.52088 0.8748 0.92095 0.0
C382 C 0.53485 0.89098 0.91018 0.0
C383 C 0.55354 0.89105 0.94387 0.0
C384 C 0.53036 0.90747 0.86234 0.0
C385 C 0.50004 0.87448 0.88917 0.0
C386 C 0.5279 0.90264 0.79609 0.0
C387 C 0.5208 0.91732 0.75207 0.0
C388 C 0.5163 0.93724 0.77313 0.0
C389 C 0.51989 0.94243 0.83867 0.0
C390 C 0.52705 0.92768 0.88291 0.0
H391 H 0.4893 0.86418 0.91535 0.0
H392 H 0.49326 0.89003 0.88753 0.0
H393 H 0.5016 0.86886 0.83831 0.0
H394 H 0.5306 0.88722 0.77896 0.0
H395 H 0.51788 0.91284 0.70205 0.0
H396 H 0.70658 0.59119 0.07078 0.0
H397 H 0.67478 0.583 0.0138 0.0
H398 H 0.68853 0.51876 0.03129 0.0
H399 H 0.71979 0.527 0.09192 0.0
H400 H 0.6693 0.56704 0.90365 0.0
H401 H 0.63007 0.51652 0.07938 0.0
H402 H 0.65251 0.53098 0.10125 0.0
H403 H 0.655 0.50678 0.05996 0.0
C404 C 0.70256 0.5753 0.06361 0.0
C405 C 0.71551 0.55974 0.08636 0.0
C406 C 0.68441 0.57062 0.03077 0.0
C407 C 0.67891 0.55022 0.01873 0.0
C408 C 0.69192 0.5346 0.04159 0.0
H409 H 0.60644 0.50955 0.69481 0.0
H410 H 0.63207 0.52365 0.76831 0.0
C411 C 0.70991 0.53931 0.0759 0.0
C412 C 0.66044 0.54554 0.97825 0.0
H413 H 0.61807 0.51504 0.96845 0.0
C414 C 0.65799 0.55584 0.9185 0.0
C415 C 0.64528 0.53127 -0.00244 0.0
C416 C 0.64572 0.52095 0.06338 0.0
C417 C 0.64137 0.55184 0.87695 0.0
C418 C 0.62711 0.53645 0.89392 0.0
C419 C 0.62908 0.52666 0.9547 0.0
C420 C 0.61089 0.5294 0.84776 0.0
C421 C 0.63924 0.56441 0.81557 0.0
C422 C 0.59034 0.52741 0.86785 0.0
C423 C 0.57566 0.5189 0.82588 0.0
C424 C 0.58118 0.5125 0.76283 0.0
C425 C 0.60161 0.51485 0.74251 0.0
C426 C 0.61629 0.52305 0.78452 0.0
H427 H 0.64596 0.57985 0.82205 0.0
H428 H 0.6477 0.55683 0.77528 0.0
H429 H 0.62295 0.56617 0.80102 0.0
H430 H 0.58578 0.53187 0.91669 0.0
H431 H 0.56034 0.51614 0.84408 0.0
H432 H 0.92081 0.71016 0.04597 0.0
H433 H 0.92818 0.67878 0.98584 0.0
H434 H 0.98932 0.67798 0.06534 0.0
H435 H 0.98177 0.70925 0.12709 0.0
H436 H 0.95565 0.6739 0.89185 0.0
H437 H 0.97287 0.61896 0.08974 0.0
H438 H 0.96084 0.64334 0.10499 0.0
H439 H 0.98816 0.64166 0.09428 0.0
C440 C 0.93573 0.7031 0.05147 0.0
C441 C 0.95066 0.7121 0.09145 0.0
C442 C 0.93994 0.68517 0.01698 0.0
C443 C 0.95922 0.67577 0.02148 0.0
C444 C 0.97415 0.6846 0.06217 0.0
H445 H 0.02296 0.60392 0.74437 0.0
H446 H 0.00698 0.62944 0.81337 0.0
C447 C 0.96988 0.70256 0.09718 0.0
C448 C 0.96405 0.65777 0.97951 0.0
H449 H 0.98279 0.60894 0.98142 0.0
C450 C 0.96135 0.65964 0.91172 0.0
C451 C 0.97119 0.63896 0.00512 0.0
C452 C 0.97324 0.63548 0.07757 0.0
C453 C 0.96637 0.64365 0.86889 0.0
C454 C 0.97462 0.62532 0.89414 0.0
C455 C 0.97654 0.62304 0.96204 0.0
C456 C 0.98339 0.60941 0.85036 0.0
C457 C 0.96305 0.64662 0.79665 0.0
C458 C 0.9754 0.58949 0.8478 0.0
C459 C 0.98459 0.57459 0.80775 0.0
C460 C 0.00205 0.57936 0.77039 0.0
C461 C 0.00957 0.59952 0.77227 0.0
C462 C 0.00043 0.61426 0.81184 0.0
H463 H 0.95132 0.65853 0.78689 0.0
H464 H 0.97763 0.65162 0.77375 0.0
H465 H 0.95821 0.63217 0.77297 0.0
H466 H 0.9621 0.58554 0.87669 0.0
H467 H 0.97823 0.55935 0.80658 0.0
H468 H 0.08904 0.19312 0.3135 0.0
H469 H 0.08465 0.16094 0.3727 0.0
H470 H 0.02396 0.17967 0.43103 0.0
H471 H 0.02841 0.212 0.37241 0.0
H472 H 0.04635 0.15444 0.52546 0.0
H473 H 0.04371 0.12278 0.27362 0.0
H474 H 0.06646 0.13687 0.29359 0.0
H475 H 0.04219 0.14978 0.29026 0.0
C476 C 0.07516 0.19071 0.34152 0.0
C477 C 0.05901 0.20486 0.33838 0.0
C478 C 0.0726 0.17232 0.37473 0.0
C479 C 0.05381 0.16784 0.40464 0.0
C480 C 0.03853 0.18289 0.40782 0.0
H481 H 0.99035 0.0548 0.46596 0.0
H482 H 0.00407 0.08665 0.42149 0.0
C483 C 0.04113 0.20138 0.37484 0.0
C484 C 0.049 0.14668 0.42383 0.0
H485 H 0.0403 0.09931 0.36021 0.0
C486 C 0.04516 0.14232 0.48961 0.0
C487 C 0.04702 0.13111 0.37634 0.0
C488 C 0.04987 0.1353 0.3044 0.0
C489 C 0.0395 0.12261 0.50942 0.0
C490 C 0.03803 0.10691 0.46208 0.0
C491 C 0.04174 0.11134 0.39627 0.0
C492 C 0.03166 0.08602 0.47988 0.0
C493 C 0.03456 0.11894 0.58052 0.0
C494 C 0.04326 0.07459 0.52418 0.0
C495 C 0.03542 0.05654 0.54996 0.0
C496 C 0.016 0.04938 0.53096 0.0
C497 C 0.00535 0.05986 0.48162 0.0
C498 C 0.01312 0.0781 0.45635 0.0
H499 H 0.03169 0.13344 0.60716 0.0
H500 H 0.02089 0.109 0.58581 0.0
H501 H 0.04771 0.11117 0.60416 0.0
H502 H 0.05781 0.08027 0.54185 0.0
H503 H 0.04383 0.04926 0.58891 0.0
H504 H 0.30789 0.03324 0.38001 0.0
H505 H 0.34111 0.02768 0.43248 0.0
H506 H 0.36181 0.08636 0.36402 0.0
H507 H 0.32859 0.09203 0.31148 0.0
H508 H 0.37751 0.0351 0.32245 0.0
H509 H 0.38463 0.07158 0.56726 0.0
H510 H 0.36051 0.06087 0.54098 0.0
H511 H 0.37001 0.08357 0.50294 0.0
C512 C 0.31912 0.04541 0.3792 0.0
C513 C 0.3158 0.06302 0.34161 0.0
C514 C 0.33812 0.04215 0.4087 0.0
C515 C 0.3538 0.05659 0.40156 0.0
C516 C 0.34977 0.07515 0.3702 0.0
H517 H 0.4804 0.03679 0.52565 0.0
H518 H 0.45132 0.05381 0.47254 0.0
C519 C 0.33082 0.07839 0.34051 0.0
C520 C 0.37512 0.05058 0.41488 0.0
H521 H 0.41263 0.05189 0.53001 0.0
C522 C 0.38531 0.03887 0.36758 0.0
C523 C 0.38519 0.05593 0.47309 0.0
C524 C 0.37466 0.0687 0.52435 0.0
C525 C 0.40525 0.0317 0.37807 0.0
C526 C 0.41502 0.0361 0.43788 0.0
C527 C 0.40511 0.0486 0.48404 0.0
C528 C 0.4343 0.02591 0.45709 0.0
C529 C 0.41553 0.01924 0.32541 0.0
C530 C 0.43471 0.0046 0.46313 0.0
C531 C 0.45112 0.99497 0.49383 0.0
C532 C 0.46725 0.00656 0.52003 0.0
C533 C 0.46779 0.02767 0.50802 0.0
C534 C 0.45129 0.03734 0.47744 0.0
H535 H 0.4095 0.02323 0.27635 0.0
H536 H 0.43238 0.0215 0.3255 0.0
H537 H 0.41233 0.00282 0.33396 0.0
H538 H 0.42166 0.9955 0.44852 0.0
H539 H 0.45018 0.97867 0.50206 0.0
H540 H 0.42 0.3306 0.29119 0.0
H541 H 0.42421 0.36444 0.34014 0.0
H542 H 0.4782 0.3434 0.44075 0.0
H543 H 0.47421 0.30962 0.39144 0.0
H544 H 0.44963 0.37563 0.50764 0.0
H545 H 0.47817 0.3925 0.25648 0.0
H546 H 0.45352 0.38051 0.26522 0.0
H547 H 0.47623 0.36674 0.28709 0.0
C548 C 0.43223 0.33297 0.32606 0.0
C549 C 0.44694 0.31764 0.33701 0.0
C550 C 0.43465 0.35228 0.35368 0.0
C551 C 0.4517 0.35638 0.39288 0.0
C552 C 0.46496 0.34043 0.41037 0.0
H553 H 0.5345 0.44734 0.49022 0.0
H554 H 0.51492 0.42052 0.43681 0.0
C555 C 0.46258 0.3211 0.38261 0.0
C556 C 0.45777 0.37763 0.40617 0.0
H557 H 0.48228 0.41806 0.33562 0.0
C558 C 0.45639 0.38512 0.47 0.0
C559 C 0.46677 0.38974 0.35664 0.0
C560 C 0.46893 0.38206 0.28745 0.0
C561 C 0.46438 0.40434 0.48614 0.0
C562 C 0.47389 0.41623 0.43695 0.0
C563 C 0.47472 0.40896 0.37275 0.0
C564 C 0.48549 0.4348 0.45365 0.0
C565 C 0.4636 0.41137 0.55629 0.0
C566 C 0.47546 0.45236 0.47627 0.0
C567 C 0.48665 0.46783 0.50676 0.0
C568 C 0.50792 0.46576 0.51529 0.0
C569 C 0.51811 0.44933 0.48516 0.0
C570 C 0.50693 0.43391 0.45478 0.0
H571 H 0.45766 0.39935 0.58957 0.0
H572 H 0.4791 0.41595 0.57299 0.0
H573 H 0.45346 0.42492 0.56027 0.0
H574 H 0.45894 0.45348 0.47396 0.0
H575 H 0.4785 0.48065 0.52773 0.0
H576 H 0.20909 0.47712 0.38886 0.0
H577 H 0.1763 0.48163 0.44524 0.0
H578 H 0.15383 0.42608 0.3582 0.0
H579 H 0.18662 0.42145 0.30205 0.0
H580 H 0.13219 0.46261 0.32419 0.0
H581 H 0.14171 0.45435 0.59238 0.0
H582 H 0.16094 0.46947 0.5522 0.0
H583 H 0.15903 0.4427 0.53429 0.0
C584 C 0.19752 0.46535 0.38442 0.0
C585 C 0.20026 0.44901 0.34092 0.0
C586 C 0.17877 0.46799 0.41638 0.0
C587 C 0.16267 0.45422 0.40548 0.0
C588 C 0.1661 0.43684 0.3671 0.0
H589 H 0.04247 0.47289 0.5756 0.0
H590 H 0.0713 0.45581 0.5234 0.0
C591 C 0.18482 0.43418 0.33533 0.0
C592 C 0.14157 0.45972 0.42463 0.0
H593 H 0.11127 0.47085 0.55547 0.0
C594 C 0.12749 0.46414 0.37477 0.0
C595 C 0.13559 0.46171 0.49051 0.0
C596 C 0.15002 0.45666 0.54559 0.0
C597 C 0.10769 0.47113 0.38917 0.0
C598 C 0.10194 0.4738 0.455 0.0
C599 C 0.11579 0.46876 0.50492 0.0
C600 C 0.08207 0.48287 0.47365 0.0
C601 C 0.09315 0.47582 0.33402 0.0
C602 C 0.07802 0.50349 0.46021 0.0
C603 C 0.06136 0.51328 0.48958 0.0
C604 C 0.04865 0.5026 0.53328 0.0
C605 C 0.05177 0.48151 0.54178 0.0
C606 C 0.0684 0.47175 0.51251 0.0
H607 H 0.098 0.46835 0.28782 0.0
H608 H 0.07736 0.47081 0.34625 0.0
H609 H 0.09281 0.49256 0.32572 0.0
H610 H 0.08855 0.51236 0.43076 0.0
H611 H 0.05945 0.52955 0.4821 0.0
H612 H 0.92183 0.82647 0.12892 0.0
H613 H 0.92559 0.85851 0.06866 0.0
H614 H 0.98184 0.83617 0.98363 0.0
H615 H 0.97783 0.80401 0.04278 0.0
H616 H 0.95819 0.88199 0.09953 0.0
H617 H 0.95762 0.86804 0.83307 0.0
H618 H 0.9473 0.84995 0.89095 0.0
H619 H 0.97444 0.85093 0.87556 0.0
C620 C 0.93441 0.82808 0.09473 0.0
C621 C 0.94953 0.81287 0.09011 0.0
C622 C 0.93664 0.8464 0.0608 0.0
C623 C 0.95401 0.84974 0.02188 0.0
C624 C 0.96813 0.8338 0.01247 0.0
H625 H 0.0257 0.95769 0.96325 0.0
H626 H 0.00866 0.92779 0.01022 0.0
C627 C 0.96581 0.81539 0.04609 0.0
C628 C 0.95918 0.87069 0.00065 0.0
H629 H 0.97418 0.8988 0.86916 0.0
C630 C 0.96135 0.88578 0.04896 0.0
C631 C 0.96329 0.87558 0.93483 0.0
C632 C 0.96035 0.86031 0.88056 0.0
C633 C 0.96811 0.90548 0.03342 0.0
C634 C 0.97318 0.91007 0.96806 0.0
C635 C 0.97041 0.89519 0.91944 0.0
C636 C 0.98182 0.93002 0.94862 0.0
C637 C 0.96982 0.92116 0.08705 0.0
C638 C 0.97224 0.94132 0.89938 0.0
C639 C 0.98205 0.95811 0.87197 0.0
C640 C 0.00152 0.96421 0.89388 0.0
C641 C 0.01055 0.95362 0.94612 0.0
C642 C 0.00081 0.93656 0.97308 0.0
H643 H 0.95992 0.91724 0.1294 0.0
H644 H 0.9859 0.92172 0.10441 0.0
H645 H 0.96554 0.9366 0.06922 0.0
H646 H 0.9577 0.93642 0.8794 0.0
H647 H 0.9751 0.96511 0.82968 0.0
H648 H 0.69225 0.92429 0.10865 0.0
H649 H 0.6601 0.92834 0.04879 0.0
H650 H 0.67989 0.98762 0.98218 0.0
H651 H 0.71217 0.98339 0.04104 0.0
H652 H 0.6353 0.95952 0.09041 0.0
H653 H 0.64893 0.96618 0.82408 0.0
H654 H 0.66738 0.95477 0.87876 0.0
H655 H 0.66548 0.98208 0.87193 0.0
C656 C 0.69012 0.93767 0.07833 0.0
C657 C 0.70459 0.95351 0.07904 0.0
C658 C 0.67172 0.94006 0.04468 0.0
C659 C 0.66759 0.95831 0.01133 0.0
C660 C 0.68289 0.97329 0.00671 0.0
H661 H 0.55644 0.02619 0.95815 0.0
H662 H 0.58752 0.01073 0.00362 0.0
C663 C 0.70138 0.97083 0.0401 0.0
C664 C 0.64634 0.96315 0.99177 0.0
H665 H 0.61699 0.97926 0.86432 0.0
C666 C 0.63122 0.96355 0.04075 0.0
C667 C 0.6411 0.96848 0.92714 0.0
C668 C 0.65654 0.96769 0.87231 0.0
C669 C 0.61109 0.96964 0.02707 0.0
C670 C 0.60606 0.97562 0.96299 0.0
C671 C 0.621 0.97474 0.91361 0.0
C672 C 0.58545 0.98317 0.94579 0.0
C673 C 0.59535 0.96968 0.08105 0.0
C674 C 0.57378 0.97247 0.90001 0.0
C675 C 0.55614 0.98123 0.87407 0.0
C676 C 0.5498 0.00087 0.89344 0.0
C677 C 0.56077 0.01096 0.94282 0.0
C678 C 0.57852 0.00216 0.96874 0.0
H679 H 0.60052 0.96071 0.12403 0.0
H680 H 0.59255 0.98563 0.09706 0.0
H681 H 0.58059 0.96333 0.06349 0.0
H682 H 0.57898 0.95786 0.88148 0.0
H683 H 0.54864 0.97333 0.83448 0.0
H684 H 0.58929 0.68742 0.11491 0.0
H685 H 0.58407 0.65532 0.05624 0.0
H686 H 0.52509 0.67676 0.99057 0.0
H687 H 0.53041 0.70899 0.04876 0.0
H688 H 0.55059 0.63187 0.09885 0.0
H689 H 0.54775 0.64532 0.83123 0.0
H690 H 0.56016 0.66275 0.8869 0.0
H691 H 0.53274 0.66272 0.87951 0.0
C692 C 0.57569 0.68562 0.08524 0.0
C693 C 0.56026 0.70057 0.08594 0.0
C694 C 0.57265 0.66727 0.05227 0.0
C695 C 0.55418 0.66368 0.01945 0.0
C696 C 0.53957 0.67936 0.01493 0.0
H697 H 0.48964 0.55007 0.9599 0.0
H698 H 0.50299 0.58168 0.00728 0.0
C699 C 0.54264 0.6978 0.04783 0.0
C700 C 0.54888 0.64268 -0.0004 0.0
H701 H 0.53535 0.61335 0.86946 0.0
C702 C 0.54744 0.62773 0.04858 0.0
C703 C 0.54472 0.63745 0.93419 0.0
C704 C 0.54656 0.65283 0.87971 0.0
C705 C 0.54178 0.60762 0.03389 0.0
C706 C 0.53723 0.60248 0.96865 0.0
C707 C 0.53884 0.61739 0.91956 0.0
C708 C 0.53081 0.58171 0.94957 0.0
C709 C 0.54088 0.59204 0.08806 0.0
C710 C 0.54226 0.57107 0.90283 0.0
C711 C 0.5346 0.55323 0.87534 0.0
C712 C 0.5154 0.5455 0.89449 0.0
C713 C 0.5046 0.55544 0.94478 0.0
C714 C 0.51221 0.5735 0.97189 0.0
H715 H 0.54961 0.59709 0.13167 0.0
H716 H 0.52469 0.58979 0.10292 0.0
H717 H 0.54705 0.5771 0.0715 0.0
H718 H 0.55658 0.57723 0.88472 0.0
H719 H 0.54292 0.54666 0.83485 0.0
H720 H 0.83 0.59488 0.12342 0.0
H721 H 0.863 0.59167 0.06743 0.0
H722 H 0.84281 0.53524 0.98023 0.0
H723 H 0.80977 0.53866 0.03508 0.0
H724 H 0.88628 0.55975 0.10388 0.0
H725 H 0.87773 0.55828 0.8355 0.0
H726 H 0.85828 0.5688 0.88864 0.0
H727 H 0.85969 0.54168 0.87468 0.0
C728 C 0.83227 0.5824 0.08943 0.0
C729 C 0.81743 0.56701 0.08339 0.0
C730 C 0.85115 0.58049 0.05792 0.0
C731 C 0.85541 0.56319 0.01985 0.0
C732 C 0.83978 0.54891 0.00835 0.0
H733 H 0.95106 0.4827 0.93545 0.0
H734 H 0.92212 0.50131 0.98164 0.0
C735 C 0.82084 0.55089 0.03958 0.0
C736 C 0.87688 0.55801 0.00306 0.0
H737 H 0.90719 0.54033 0.87955 0.0
C738 C 0.891 0.55599 0.05452 0.0
C739 C 0.883 0.55301 0.93881 0.0
C740 C 0.86891 0.55575 0.88122 0.0
C741 C 0.91068 0.54806 0.04384 0.0
C742 C 0.91631 0.54203 0.98038 0.0
C743 C 0.90265 0.54493 0.92836 0.0
C744 C 0.93561 0.53109 0.96738 0.0
C745 C 0.92511 0.54529 0.10051 0.0
C746 C 0.95319 0.54173 0.94806 0.0
C747 C 0.96989 0.53113 0.92181 0.0
C748 C 0.96901 0.50981 0.9139 0.0
C749 C 0.95224 0.49912 0.94033 0.0
C750 C 0.93559 0.50972 0.96636 0.0
H751 H 0.91891 0.55189 0.14643 0.0
H752 H 0.92802 0.52875 0.10813 0.0
H753 H 0.94005 0.5526 0.08933 0.0
H754 H 0.95347 0.55824 0.94979 0.0
H755 H 0.98283 0.5397 0.90343 0.0
H756 H 0.02101 0.22008 0.09824 0.0
H757 H 0.01439 0.19242 0.02025 0.0
H758 H 0.07862 0.1771 0.01948 0.0
H759 H 0.08523 0.20464 0.09769 0.0
H760 H 0.05576 0.17333 0.89109 0.0
H761 H 0.02119 0.13291 0.1031 0.0
H762 H 0.01181 0.15829 0.08747 0.0
H763 H 0.0379 0.15466 0.11238 0.0
C764 C 0.03383 0.21149 0.07879 0.0
C765 C 0.05366 0.21467 0.1032 0.0
C766 C 0.03001 0.19549 0.03507 0.0
C767 C 0.04598 0.18253 0.01497 0.0
C768 C 0.06609 0.18691 0.03445 0.0
H769 H 0.03184 0.05636 0.87342 0.0
H770 H 0.04365 0.08675 0.93313 0.0
C771 C 0.06989 0.20278 0.07849 0.0
C772 C 0.04147 0.16318 0.98 0.0
H773 H 0.01913 0.11643 0.00063 0.0
C774 C 0.04777 0.16088 0.91493 0.0
C775 C 0.0315 0.14676 0.01181 0.0
C776 C 0.02531 0.14808 0.08271 0.0
C777 C 0.04369 0.14282 0.88009 0.0
C778 C 0.03295 0.12672 0.91108 0.0
C779 C 0.02728 0.12879 0.97684 0.0
C780 C 0.0263 0.10821 0.87487 0.0
C781 C 0.05097 0.14108 0.81037 0.0
C782 C 0.01241 0.11016 0.82319 0.0
C783 C 0.00557 0.09296 0.78957 0.0
C784 C 0.0124 0.07325 0.80674 0.0
C785 C 0.02629 0.07127 0.85883 0.0
C786 C 0.03305 0.08861 0.89294 0.0
H787 H 0.06364 0.15192 0.79985 0.0
H788 H 0.05629 0.12534 0.7994 0.0
H789 H 0.0381 0.14473 0.77705 0.0
H790 H 0.00668 0.12505 0.80916 0.0
H791 H 0.99492 0.09519 0.74973 0.0
H792 H 0.29494 0.0251 0.10046 0.0
H793 H 0.3215 0.01791 0.01856 0.0
H794 H 0.34014 0.08097 0.02312 0.0
H795 H 0.31361 0.08821 0.10463 0.0
H796 H 0.33601 0.0387 0.88926 0.0
H797 H 0.38862 0.04426 0.10229 0.0
H798 H 0.36141 0.04026 0.11174 0.0
H799 H 0.37093 0.06498 0.08961 0.0
C800 C 0.30397 0.03762 0.08134 0.0
C801 C 0.30216 0.05723 0.10853 0.0
C802 C 0.31931 0.03346 0.03517 0.0
C803 C 0.33299 0.04885 0.01577 0.0
C804 C 0.32983 0.06886 0.03786 0.0
H805 H 0.4552 0.03797 0.83733 0.0
H806 H 0.4246 0.05103 0.89377 0.0
C807 C 0.31452 0.07303 0.0838 0.0
C808 C 0.35198 0.04353 0.97958 0.0
H809 H 0.4035 0.03672 0.0005 0.0
C810 C 0.35078 0.03832 0.91338 0.0
C811 C 0.37125 0.04319 0.01121 0.0
C812 C 0.37329 0.04834 0.08273 0.0
C813 C 0.36839 0.03273 0.87786 0.0
C814 C 0.38761 0.0318 0.90994 0.0
C815 C 0.38881 0.03742 0.97591 0.0
C816 C 0.40637 0.02397 0.87688 0.0
C817 C 0.36625 0.02809 0.80606 0.0
C818 C 0.40654 0.00422 0.8505 0.0
C819 C 0.42388 -0.00323 0.81837 0.0
C820 C 0.44166 0.00879 0.8124 0.0
C821 C 0.44178 0.02833 0.84095 0.0
C822 C 0.42428 0.03583 0.873 0.0
H823 H 0.35256 0.0357 0.78494 0.0
H824 H 0.38001 0.03303 0.77832 0.0
H825 H 0.36436 0.01139 0.79944 0.0
H826 H 0.39319 0.99451 0.85466 0.0
H827 H 0.42325 0.98156 0.79778 0.0
H828 H 0.49379 0.29578 0.1163 0.0
H829 H 0.50224 0.32179 0.0342 0.0
H830 H 0.43806 0.33526 0.01057 0.0
H831 H 0.42958 0.30926 0.09216 0.0
H832 H 0.48302 0.33314 0.89239 0.0
H833 H 0.47053 0.38689 0.0997 0.0
H834 H 0.47706 0.3604 0.11264 0.0
H835 H 0.45185 0.36715 0.08571 0.0
C836 C 0.48146 0.30347 0.09082 0.0
C837 C 0.46102 0.30036 0.10998 0.0
C838 C 0.4863 0.31852 0.04462 0.0
C839 C 0.47077 0.33061 0.01714 0.0
C840 C 0.45025 0.32612 0.0314 0.0
H841 H 0.4789 0.45129 0.83038 0.0
H842 H 0.46649 0.42082 0.88844 0.0
C843 C 0.44541 0.31109 0.07734 0.0
C844 C 0.47602 0.34946 0.98065 0.0
H845 H 0.48009 0.40118 -0.00114 0.0
C846 C 0.48236 0.34803 0.91546 0.0
C847 C 0.47492 0.36886 0.01087 0.0
C848 C 0.46832 0.37111 0.08117 0.0
C849 C 0.48772 0.36555 0.87958 0.0
C850 C 0.48724 0.38495 0.91034 0.0
C851 C 0.48049 0.38636 0.97529 0.0
C852 C 0.4947 0.40375 0.87696 0.0
C853 C 0.49361 0.3631 0.80875 0.0
C854 C 0.51483 0.40457 0.85318 0.0
C855 C 0.52188 0.42181 0.82006 0.0
C856 C 0.50908 0.43887 0.81054 0.0
C857 C 0.48914 0.43843 0.83676 0.0
C858 C 0.48202 0.421 0.86973 0.0
H859 H 0.48696 0.34899 0.78754 0.0
H860 H 0.48847 0.37637 0.77925 0.0
H861 H 0.51052 0.36192 0.80481 0.0
H862 H 0.52514 0.39178 0.85998 0.0
H863 H 0.53742 0.42167 0.80144 0.0
H864 H 0.22159 0.48963 0.10582 0.0
H865 H 0.195 0.49697 0.02449 0.0
H866 H 0.17876 0.43325 0.01977 0.0
H867 H 0.20532 0.42588 0.10074 0.0
H868 H 0.18123 0.47704 0.89172 0.0
H869 H 0.12906 0.46749 0.1051 0.0
H870 H 0.1561 0.47241 0.11458 0.0
H871 H 0.14753 0.44762 0.08971 0.0
C872 C 0.21314 0.47706 0.08463 0.0
C873 C 0.21562 0.45717 0.10907 0.0
C874 C 0.19777 0.48129 0.03883 0.0
C875 C 0.18471 0.46569 0.01706 0.0
C876 C 0.18859 0.44551 0.03629 0.0
H877 H 0.06187 0.47541 0.84356 0.0
H878 H 0.09281 0.46257 0.89832 0.0
C879 C 0.20394 0.44127 0.08186 0.0
C880 C 0.16553 0.47082 0.98185 0.0
H881 H 0.11389 0.47604 0.00481 0.0
C882 C 0.16649 0.47677 0.91623 0.0
C883 C 0.14631 0.47028 0.01395 0.0
C884 C 0.14452 0.46423 0.08483 0.0
C885 C 0.14869 0.48226 0.88177 0.0
C886 C 0.1295 0.48238 0.91445 0.0
C887 C 0.12855 0.476 0.97978 0.0
C888 C 0.11049 0.4901 0.88276 0.0
C889 C 0.15061 0.48766 0.81042 0.0
C890 C 0.10987 0.51003 0.85784 0.0
C891 C 0.09234 0.51732 0.82659 0.0
C892 C 0.07481 0.50499 0.82021 0.0
C893 C 0.07509 0.4853 0.8476 0.0
C894 C 0.09279 0.47792 0.87865 0.0
H895 H 0.16438 0.4805 0.78814 0.0
H896 H 0.13688 0.48277 0.78257 0.0
H897 H 0.15221 0.50445 0.80546 0.0
H898 H 0.12302 0.51998 0.86233 0.0
H899 H 0.09263 0.53267 0.80691 0.0
H900 H 0.99599 0.79518 0.31846 0.0
H901 H 0.00493 0.82181 0.39771 0.0
H902 H 0.94125 0.83891 0.41207 0.0
H903 H 0.93236 0.81209 0.33452 0.0
H904 H -0.00087 0.8612 0.36729 0.0
H905 H 0.95811 0.84576 0.59871 0.0
H906 H 0.96158 0.82647 0.53674 0.0
H907 H 0.94141 0.8451 0.52938 0.0
C908 C 0.98383 0.80386 0.34153 0.0
C909 C 0.96346 0.80137 0.32128 0.0
C910 C 0.98895 0.81929 0.38606 0.0
C911 C 0.97377 0.83242 0.41119 0.0
C912 C 0.95322 0.8288 0.3948 0.0
H913 H 0.97789 0.95353 0.59654 0.0
H914 H 0.96686 0.92305 0.53555 0.0
C915 C 0.94812 0.81338 0.35058 0.0
C916 C 0.97959 0.8515 0.44628 0.0
H917 H 0.97033 0.87993 0.58336 0.0
C918 C 0.99297 0.86514 0.41485 0.0
C919 C 0.97131 0.85691 0.50789 0.0
C920 C 0.95746 0.8427 0.54542 0.0
C921 C 0.9982 0.88398 0.44298 0.0
C922 C 0.98997 0.88935 0.5045 0.0
C923 C 0.97647 0.87585 0.53587 0.0
C924 C 0.99647 0.90821 0.53901 0.0
C925 C 0.01236 0.89814 0.40634 0.0
C926 C 0.01672 0.90997 0.56081 0.0
C927 C 0.02299 0.92718 0.59552 0.0
C928 C 0.00918 0.94315 0.6093 0.0
C929 C 0.98894 0.9416 0.58628 0.0
C930 C 0.98259 0.92416 0.55186 0.0
H931 H 0.01331 0.89417 0.35369 0.0
H932 H 0.00722 0.91424 0.41105 0.0
H933 H 0.02799 0.89696 0.42728 0.0
H934 H 0.02763 0.89779 0.55199 0.0
H935 H 0.0387 0.92783 0.61234 0.0
H936 H 0.71981 0.99457 0.32323 0.0
H937 H 0.69273 0.00076 0.40427 0.0
H938 H 0.6759 0.93719 0.39682 0.0
H939 H 0.70291 0.931 0.3162 0.0
H940 H 0.64425 0.96544 0.36154 0.0
H941 H 0.68033 0.98554 0.59822 0.0
H942 H 0.69073 -0.00182 0.52763 0.0
H943 H 0.69354 0.97104 0.53594 0.0
C944 C 0.71103 0.98176 0.34155 0.0
C945 C 0.71357 0.96228 0.3141 0.0
C946 C 0.69545 0.98532 0.38742 0.0
C947 C 0.68226 0.96942 0.40647 0.0
C948 C 0.6859 0.94965 0.38294 0.0
H949 H 0.56013 0.97347 0.59228 0.0
H950 H 0.59083 0.96176 0.53361 0.0
C951 C 0.70146 0.94609 0.33743 0.0
C952 C 0.66313 0.97387 0.44324 0.0
H953 H 0.64473 0.99217 0.58785 0.0
C954 C 0.6443 0.9711 0.41129 0.0
C955 C 0.66327 0.98135 0.50784 0.0
C956 C 0.68301 0.98409 0.54485 0.0
C957 C 0.62563 0.97626 0.44143 0.0
C958 C 0.62574 0.98392 0.50603 0.0
C959 C 0.6446 0.98629 0.53837 0.0
C960 C 0.60668 0.99073 0.53979 0.0
C961 C 0.60609 0.97424 0.40273 0.0
C962 C 0.6054 0.01078 0.56343 0.0
C963 C 0.58808 0.01737 0.59746 0.0
C964 C 0.57149 0.00411 0.60863 0.0
C965 C 0.57254 0.98411 0.58387 0.0
C966 C 0.59007 0.97743 0.55021 0.0
H967 H 0.60913 0.97329 0.34943 0.0
H968 H 0.59807 0.96006 0.41761 0.0
H969 H 0.59568 0.98736 0.41192 0.0
H970 H 0.61792 0.02137 0.55588 0.0
H971 H 0.58779 0.0329 0.61558 0.0
H972 H 0.5849 0.69908 0.32004 0.0
H973 H 0.57743 0.67201 0.39856 0.0
H974 H 0.51519 0.69361 0.41454 0.0
H975 H 0.52251 0.72037 0.33386 0.0
H976 H 0.56271 0.66579 0.5206 0.0
H977 H 0.50716 0.63743 0.33716 0.0
H978 H 0.5244 0.65827 0.32058 0.0
H979 H 0.50131 0.66254 0.36678 0.0
C980 C 0.56986 0.69858 0.34249 0.0
C981 C 0.55426 0.71179 0.32088 0.0
C982 C 0.56555 0.68297 0.38694 0.0
C983 C 0.54557 0.68031 0.41079 0.0
C984 C 0.53058 0.695 0.39528 0.0
H985 H 0.48508 0.58662 0.63253 0.0
H986 H 0.49588 0.61711 0.57392 0.0
C987 C 0.53486 0.71057 0.35023 0.0
C988 C 0.54011 0.66109 0.44569 0.0
H989 H 0.50911 0.61912 0.43642 0.0
C990 C 0.55101 0.65559 0.50217 0.0
C991 C 0.52513 0.6475 0.42087 0.0
C992 C 0.51397 0.65157 0.35768 0.0
C993 C 0.5469 0.63721 0.53539 0.0
C994 C 0.53158 0.62397 0.51137 0.0
C995 C 0.52084 0.62934 0.4547 0.0
C996 C 0.5255 0.60507 0.54646 0.0
C997 C 0.55862 0.63223 0.59672 0.0
C998 C 0.53847 0.58794 0.54956 0.0
C999 C 0.53225 0.57022 0.58284 0.0
C1000 C 0.51301 0.56947 0.61386 0.0
C1001 C 0.50005 0.58664 0.60963 0.0
C1002 C 0.50618 0.60414 0.5761 0.0
H1003 H 0.56804 0.64529 0.61374 0.0
H1004 H 0.54791 0.62774 0.63637 0.0
H1005 H 0.56895 0.61908 0.58724 0.0
H1006 H 0.55337 0.58827 0.52621 0.0
H1007 H 0.5426 0.55731 0.58527 0.0
H1008 H 0.81683 0.5824 0.32559 0.0
H1009 H 0.84291 0.5734 0.40611 0.0
H1010 H 0.82403 0.51041 0.39657 0.0
H1011 H 0.79822 0.51936 0.31425 0.0
H1012 H 0.8467 0.55461 0.52469 0.0
H1013 H 0.88258 0.50782 0.32947 0.0
H1014 H 0.86128 0.52468 0.31414 0.0
H1015 H 0.85706 0.50001 0.35029 0.0
C1016 C 0.81774 0.56675 0.34258 0.0
C1017 C 0.80557 0.55155 0.31361 0.0
C1018 C 0.83275 0.5616 0.38827 0.0
C1019 C 0.83587 0.54114 0.40588 0.0
C1020 C 0.82224 0.52623 0.38237 0.0
H1021 H 0.92877 0.4781 0.62553 0.0
H1022 H 0.89884 0.48903 0.56379 0.0
C1023 C 0.80724 0.53139 0.33626 0.0
C1024 C 0.85456 0.53535 0.44321 0.0
H1025 H 0.89861 0.50719 0.43281 0.0
C1026 C 0.85804 0.54424 0.50462 0.0
C1027 C 0.86961 0.52214 0.41642 0.0
C1028 C 0.86761 0.51326 0.34872 0.0
C1029 C 0.87587 0.53983 0.5406 0.0
C1030 C 0.89062 0.52631 0.51429 0.0
C1031 C 0.88724 0.51755 0.45282 0.0
C1032 C 0.90917 0.52011 0.55122 0.0
C1033 C 0.87866 0.54932 0.60706 0.0
C1034 C 0.92517 0.53391 0.56368 0.0
C1035 C 0.94254 0.52765 0.59876 0.0
C1036 C 0.94408 0.50752 0.6223 0.0
C1037 C 0.92809 0.49375 0.60865 0.0
C1038 C 0.91093 0.49995 0.57328 0.0
H1039 H 0.86451 0.55703 0.62457 0.0
H1040 H 0.8832 0.53752 0.6432 0.0
H1041 H 0.89112 0.5608 0.6047 0.0
H1042 H 0.92421 0.54949 0.54626 0.0
H1043 H 0.95455 0.53863 0.60848 0.0
loop_
_geom_bond_atom_site_label_1
_geom_bond_atom_site_label_2
_geom_bond_distance
_geom_bond_site_symmetry_2
_ccdc_geom_bond_type
H0 C5 0.930 . S
H1 C8 0.930 . S
H2 C10 0.930 . S
H3 C4 1.016 . S
C4 H3 1.016 . S
C4 N11 1.286 . S
C5 H0 0.930 . S
C5 C6 1.397 . S
C5 C7 1.361 . S
C6 C5 1.397 . S
C6 C10 1.390 . S
C7 C5 1.361 . S
C7 C8 1.393 . S
C7 N11 1.413 . S
C8 H1 0.930 . S
C8 C7 1.393 . S
C8 C9 1.399 . S
C9 C8 1.399 . S
C9 C10 1.381 . S
C10 H2 0.930 . S
C10 C6 1.390 . S
C10 C9 1.381 . S
N11 C4 1.286 . S
N11 C7 1.413 . S
H12 C17 0.930 . S
H13 C20 0.930 . S
H14 C22 0.930 . S
H15 C16 1.016 . S
C16 H15 1.016 . S
C16 N23 1.286 . S
C17 H12 0.930 . S
C17 C18 1.397 . S
C17 C19 1.361 . S
C18 C17 1.397 . S
C18 C22 1.390 . S
C19 C17 1.361 . S
C19 C20 1.393 . S
C19 N23 1.413 . S
C20 H13 0.930 . S
C20 C19 1.393 . S
C20 C21 1.399 . S
C21 C20 1.399 . S
C21 C22 1.381 . S
C22 H14 0.930 . S
C22 C18 1.390 . S
C22 C21 1.381 . S
N23 C16 1.286 . S
N23 C19 1.413 . S
H24 C29 0.930 . S
H25 C32 0.930 . S
H26 C34 0.930 . S
H27 C28 1.016 . S
C28 H27 1.016 . S
C28 N35 1.286 . S
C29 H24 0.930 . S
C29 C30 1.397 . S
C29 C31 1.361 . S
C30 C29 1.397 . S
C30 C34 1.390 . S
C31 C29 1.361 . S
C31 C32 1.393 . S
C31 N35 1.413 . S
C32 H25 0.930 . S
C32 C31 1.393 . S
C32 C33 1.399 . S
C33 C32 1.399 . S
C33 C34 1.381 . S
C34 H26 0.930 . S
C34 C30 1.390 . S
C34 C33 1.381 . S
N35 C28 1.286 . S
N35 C31 1.413 . S
H36 C41 0.930 . S
H37 C44 0.930 . S
H38 C46 0.930 . S
H39 C40 1.016 . S
C40 H39 1.016 . S
C40 N47 1.286 . S
C41 H36 0.930 . S
C41 C42 1.397 . S
C41 C43 1.361 . S
C42 C41 1.397 . S
C42 C46 1.390 . S
C43 C41 1.361 . S
C43 C44 1.393 . S
C43 N47 1.413 . S
C44 H37 0.930 . S
C44 C43 1.393 . S
C44 C45 1.399 . S
C45 C44 1.399 . S
C45 C46 1.381 . S
C46 H38 0.930 . S
C46 C42 1.390 . S
C46 C45 1.381 . S
N47 C40 1.286 . S
N47 C43 1.413 . S
H48 C53 0.930 . S
H49 C56 0.930 . S
H50 C58 0.930 . S
H51 C52 1.016 . S
C52 H51 1.016 . S
C52 N59 1.286 . S
C53 H48 0.930 . S
C53 C54 1.397 . S
C53 C55 1.361 . S
C54 C53 1.397 . S
C54 C58 1.390 . S
C55 C53 1.361 . S
C55 C56 1.393 . S
C55 N59 1.413 . S
C56 H49 0.930 . S
C56 C55 1.393 . S
C56 C57 1.399 . S
C57 C56 1.399 . S
C57 C58 1.381 . S
C58 H50 0.930 . S
C58 C54 1.390 . S
C58 C57 1.381 . S
N59 C52 1.286 . S
N59 C55 1.413 . S
H60 C65 0.930 . S
H61 C68 0.930 . S
H62 C70 0.930 . S
H63 C64 1.016 . S
C64 H63 1.016 . S
C64 N71 1.286 . S
C65 H60 0.930 . S
C65 C66 1.397 . S
C65 C67 1.361 . S
C66 C65 1.397 . S
C66 C70 1.390 . S
C67 C65 1.361 . S
C67 C68 1.393 . S
C67 N71 1.413 . S
C68 H61 0.930 . S
C68 C67 1.393 . S
C68 C69 1.399 . S
C69 C68 1.399 . S
C69 C70 1.381 . S
C70 H62 0.930 . S
C70 C66 1.390 . S
C70 C69 1.381 . S
N71 C64 1.286 . S
N71 C67 1.413 . S
H72 C77 0.930 . S
H73 C80 0.930 . S
H74 C82 0.930 . S
H75 C76 1.016 . S
C76 H75 1.016 . S
C76 N83 1.286 . S
C77 H72 0.930 . S
C77 C78 1.397 . S
C77 C79 1.361 . S
C78 C77 1.397 . S
C78 C82 1.390 . S
C79 C77 1.361 . S
C79 C80 1.393 . S
C79 N83 1.413 . S
C80 H73 0.930 . S
C80 C79 1.393 . S
C80 C81 1.399 . S
C81 C80 1.399 . S
C81 C82 1.381 . S
C82 H74 0.930 . S
C82 C78 1.390 . S
C82 C81 1.381 . S
N83 C76 1.286 . S
N83 C79 1.413 . S
H84 C89 0.930 . S
H85 C92 0.930 . S
H86 C94 0.930 . S
H87 C88 1.016 . S
C88 H87 1.016 . S
C88 N95 1.286 . S
C89 H84 0.930 . S
C89 C90 1.397 . S
C89 C91 1.361 . S
C90 C89 1.397 . S
C90 C94 1.390 . S
C91 C89 1.361 . S
C91 C92 1.393 . S
C91 N95 1.413 . S
C92 H85 0.930 . S
C92 C91 1.393 . S
C92 C93 1.399 . S
C93 C92 1.399 . S
C93 C94 1.381 . S
C94 H86 0.930 . S
C94 C90 1.390 . S
C94 C93 1.381 . S
N95 C88 1.286 . S
N95 C91 1.413 . S
O96 Mg97 1.990 . S
O96 C110 1.253 . S
Mg97 O96 1.990 . S
Mg97 O100 2.180 1_565 S
Mg97 O101 2.117 . S
Mg97 O115 2.030 . S
O98 Mg99 2.072 1_565 S
O98 C110 1.260 . S
Mg99 O98 2.072 1_545 S
Mg99 O100 2.099 . S
Mg99 O102 2.079 . S
Mg99 O103 2.072 . S
Mg99 O105 2.099 1_455 S
Mg99 O116 2.079 1_445 S
O100 Mg97 2.180 1_545 S
O100 Mg99 2.099 . S
O100 C111 1.279 . S
O101 Mg97 2.117 . S
O101 C111 1.250 1_565 S
O102 Mg99 2.079 . S
O102 C112 1.264 . S
O103 Mg99 2.072 . S
O103 C113 1.260 . S
Mg104 O105 2.180 . S
Mg104 O106 2.030 . S
Mg104 O107 1.990 . S
Mg104 O108 2.117 . S
O105 Mg99 2.099 1_655 S
O105 Mg104 2.180 . S
O105 C114 1.279 . S
O106 Mg104 2.030 . S
O106 C112 1.248 1_655 S
O107 Mg104 1.990 . S
O107 C113 1.253 1_655 S
O108 Mg104 2.117 . S
O108 C114 1.250 . S
C109 O115 1.248 . S
C109 O116 1.264 1_455 S
C110 O96 1.253 . S
C110 O98 1.260 . S
C111 O100 1.279 . S
C111 O101 1.250 1_545 S
C112 O102 1.264 . S
C112 O106 1.248 1_455 S
C113 O103 1.260 . S
C113 O107 1.253 1_455 S
C114 O105 1.279 . S
C114 O108 1.250 . S
O115 Mg97 2.030 . S
O115 C109 1.248 . S
O116 Mg99 2.079 1_665 S
O116 C109 1.264 1_655 S
O117 Mg118 2.026 . S
O117 C131 1.209 1_565 S
Mg118 O117 2.026 . S
Mg118 O121 2.180 . S
Mg118 O122 2.117 . S
Mg118 O136 2.030 . S
O119 Mg120 2.072 . S
O119 C131 1.260 . S
Mg120 O119 2.072 . S
Mg120 O121 2.099 1_545 S
Mg120 O123 2.068 1_545 S
Mg120 O124 2.072 . S
Mg120 O126 2.099 . S
Mg120 O137 2.079 . S
O121 Mg118 2.180 . S
O121 Mg120 2.099 1_565 S
O121 C132 1.279 . S
O122 Mg118 2.117 . S
O122 C132 1.250 . S
O123 Mg120 2.068 1_565 S
O123 C133 1.258 1_565 S
O124 Mg120 2.072 . S
O124 C134 1.260 . S
Mg125 O126 2.180 . S
Mg125 O127 2.030 . S
Mg125 O128 1.990 . S
Mg125 O129 2.117 . S
O126 Mg120 2.099 . S
O126 Mg125 2.180 . S
O126 C135 1.279 . S
O127 Mg125 2.030 . S
O127 C133 1.248 . S
O128 Mg125 1.990 . S
O128 C134 1.253 . S
O129 Mg125 2.117 . S
O129 C135 1.250 . S
C130 O136 1.248 1_545 S
C130 O137 1.264 . S
C131 O117 1.209 1_545 S
C131 O119 1.260 . S
C132 O121 1.279 . S
C132 O122 1.250 . S
C133 O123 1.258 1_545 S
C133 O127 1.248 . S
C134 O124 1.260 . S
C134 O128 1.253 . S
C135 O126 1.279 . S
C135 O129 1.250 . S
O136 Mg118 2.030 . S
O136 C130 1.248 1_565 S
O137 Mg120 2.079 . S
O137 C130 1.264 . S
O138 Mg139 1.990 . S
O138 C152 1.253 . S
Mg139 O138 1.990 . S
Mg139 O142 2.180 . S
Mg139 O143 2.117 . S
Mg139 O157 2.030 . S
O140 Mg141 2.072 . S
O140 C152 1.260 . S
Mg141 O140 2.072 . S
Mg141 O142 2.099 . S
Mg141 O144 2.079 . S
Mg141 O145 2.072 . S
Mg141 O147 2.099 . S
Mg141 O158 2.079 . S
O142 Mg139 2.180 . S
O142 Mg141 2.099 . S
O142 C153 1.279 . S
O143 Mg139 2.117 . S
O143 C153 1.250 . S
O144 Mg141 2.079 . S
O144 C154 1.264 . S
O145 Mg141 2.072 . S
O145 C155 1.260 . S
Mg146 O147 2.180 . S
Mg146 O148 2.030 . S
Mg146 O149 1.990 . S
Mg146 O150 2.117 . S
O147 Mg141 2.099 . S
O147 Mg146 2.180 . S
O147 C156 1.279 . S
O148 Mg146 2.030 . S
O148 C154 1.248 . S
O149 Mg146 1.990 . S
O149 C155 1.253 . S
O150 Mg146 2.117 . S
O150 C156 1.250 . S
C151 O157 1.248 . S
C151 O158 1.264 . S
C152 O138 1.253 . S
C152 O140 1.260 . S
C153 O142 1.279 . S
C153 O143 1.250 . S
C154 O144 1.264 . S
C154 O148 1.248 . S
C155 O145 1.260 . S
C155 O149 1.253 . S
C156 O147 1.279 . S
C156 O150 1.250 . S
O157 Mg139 2.030 . S
O157 C151 1.248 . S
O158 Mg141 2.079 . S
O158 C151 1.264 . S
O159 Mg160 1.990 . S
O159 C173 1.253 . S
Mg160 O159 1.990 . S
Mg160 O163 2.180 1_655 S
Mg160 O164 2.117 . S
Mg160 O178 2.030 . S
O161 Mg162 2.072 1_655 S
O161 C173 1.260 . S
Mg162 O161 2.072 1_455 S
Mg162 O163 2.099 . S
Mg162 O165 2.079 . S
Mg162 O166 2.072 . S
Mg162 O168 2.099 . S
Mg162 O179 2.079 1_455 S
O163 Mg160 2.180 1_455 S
O163 Mg162 2.099 . S
O163 C174 1.279 . S
O164 Mg160 2.117 . S
O164 C174 1.250 1_655 S
O165 Mg162 2.079 . S
O165 C175 1.264 . S
O166 Mg162 2.072 . S
O166 C176 1.260 . S
Mg167 O168 2.180 . S
Mg167 O169 2.030 . S
Mg167 O170 1.990 . S
Mg167 O171 2.117 . S
O168 Mg162 2.099 . S
O168 Mg167 2.180 . S
O168 C177 1.279 . S
O169 Mg167 2.030 . S
O169 C175 1.248 . S
O170 Mg167 1.990 . S
O170 C176 1.253 . S
O171 Mg167 2.117 . S
O171 C177 1.250 . S
C172 O178 1.248 . S
C172 O179 1.264 . S
C173 O159 1.253 . S
C173 O161 1.260 . S
C174 O163 1.279 . S
C174 O164 1.250 1_455 S
C175 O165 1.264 . S
C175 O169 1.248 . S
C176 O166 1.260 . S
C176 O170 1.253 . S
C177 O168 1.279 . S
C177 O171 1.250 . S
O178 Mg160 2.030 . S
O178 C172 1.248 . S
O179 Mg162 2.079 1_655 S
O179 C172 1.264 . S
H180 C188 0.929 . S
H181 C190 0.930 . S
H182 C192 0.930 . S
H183 C195 0.929 . S
H184 C198 0.930 . S
H185 C200 0.960 . S
H186 C200 0.960 . S
H187 C200 0.960 1_545 S
C188 H180 0.929 . S
C188 C189 1.377 . S
C188 C190 1.384 . S
C189 C188 1.377 . S
C189 C195 1.390 . S
C190 H181 0.930 . S
C190 C188 1.384 . S
C190 C191 1.372 . S
C191 C190 1.372 . S
C191 C192 1.400 . S
C191 C196 1.490 . S
C192 H182 0.930 . S
C192 C191 1.400 . S
C192 C195 1.386 . S
H193 C209 0.930 . S
H194 C210 0.931 . S
C195 H183 0.929 . S
C195 C189 1.390 . S
C195 C192 1.386 . S
C196 C191 1.490 . S
C196 C198 1.395 . S
C196 C199 1.403 . S
H197 C203 0.930 . S
C198 H184 0.930 . S
C198 C196 1.395 . S
C198 C201 1.403 . S
C199 C196 1.403 . S
C199 C200 1.524 1_545 S
C199 C203 1.400 . S
C200 H185 0.960 . S
C200 H186 0.960 . S
C200 H187 0.960 1_565 S
C200 C199 1.524 1_565 S
C201 C198 1.403 . S
C201 C202 1.392 . S
C201 C205 1.495 . S
C202 C201 1.392 . S
C202 C203 1.385 . S
C202 C204 1.478 . S
C203 H197 0.930 . S
C203 C199 1.400 . S
C203 C202 1.385 . S
C204 C202 1.478 . S
C204 C206 1.381 . S
C204 C210 1.383 . S
C205 C201 1.495 . S
C205 H211 0.959 . S
C205 H212 0.961 . S
C205 H213 0.960 . S
C206 C204 1.381 . S
C206 C207 1.394 . S
C206 H214 0.930 . S
C207 C206 1.394 . S
C207 C208 1.383 . S
C207 H215 0.929 . S
C208 C207 1.383 . S
C208 C209 1.377 . S
C209 H193 0.930 . S
C209 C208 1.377 . S
C209 C210 1.379 . S
C210 H194 0.931 . S
C210 C204 1.383 . S
C210 C209 1.379 . S
H211 C205 0.959 . S
H212 C205 0.961 . S
H213 C205 0.960 . S
H214 C206 0.930 . S
H215 C207 0.929 . S
H216 C224 0.929 . S
H217 C226 0.930 . S
H218 C228 0.930 . S
H219 C231 0.929 . S
H220 C234 0.930 . S
H221 C236 0.960 . S
H222 C236 0.960 . S
H223 C236 0.960 . S
C224 H216 0.929 . S
C224 C225 1.377 . S
C224 C226 1.384 . S
C225 C224 1.377 . S
C225 C231 1.390 . S
C226 H217 0.930 . S
C226 C224 1.384 . S
C226 C227 1.372 . S
C227 C226 1.372 . S
C227 C228 1.400 . S
C227 C232 1.490 . S
C228 H218 0.930 . S
C228 C227 1.400 . S
C228 C231 1.386 . S
H229 C245 0.930 . S
H230 C246 0.931 . S
C231 H219 0.929 . S
C231 C225 1.390 . S
C231 C228 1.386 . S
C232 C227 1.490 . S
C232 C234 1.395 . S
C232 C235 1.403 . S
H233 C239 0.930 . S
C234 H220 0.930 . S
C234 C232 1.395 . S
C234 C237 1.403 . S
C235 C232 1.403 . S
C235 C236 1.524 . S
C235 C239 1.400 . S
C236 H221 0.960 . S
C236 H222 0.960 . S
C236 H223 0.960 . S
C236 C235 1.524 . S
C237 C234 1.403 . S
C237 C238 1.392 . S
C237 C241 1.495 . S
C238 C237 1.392 . S
C238 C239 1.385 . S
C238 C240 1.478 . S
C239 H233 0.930 . S
C239 C235 1.400 . S
C239 C238 1.385 . S
C240 C238 1.478 . S
C240 C242 1.381 . S
C240 C246 1.383 . S
C241 C237 1.495 . S
C241 H247 0.959 . S
C241 H248 0.961 . S
C241 H249 0.960 . S
C242 C240 1.381 . S
C242 C243 1.394 . S
C242 H250 0.930 . S
C243 C242 1.394 . S
C243 C244 1.383 . S
C243 H251 0.929 . S
C244 C243 1.383 . S
C244 C245 1.377 . S
C245 H229 0.930 . S
C245 C244 1.377 . S
C245 C246 1.379 . S
C246 H230 0.931 . S
C246 C240 1.383 . S
C246 C245 1.379 . S
H247 C241 0.959 . S
H248 C241 0.961 . S
H249 C241 0.960 . S
H250 C242 0.930 . S
H251 C243 0.929 . S
H252 C260 0.929 . S
H253 C262 0.930 . S
H254 C264 0.930 . S
H255 C267 0.929 . S
H256 C270 0.930 . S
H257 C272 0.960 . S
H258 C272 0.960 . S
H259 C272 0.960 . S
C260 H252 0.929 . S
C260 C261 1.377 . S
C260 C262 1.384 . S
C261 C260 1.377 . S
C261 C267 1.390 . S
C262 H253 0.930 . S
C262 C260 1.384 . S
C262 C263 1.372 . S
C263 C262 1.372 . S
C263 C264 1.400 . S
C263 C268 1.490 . S
C264 H254 0.930 . S
C264 C263 1.400 . S
C264 C267 1.386 . S
H265 C281 0.930 . S
H266 C282 0.931 . S
C267 H255 0.929 . S
C267 C261 1.390 . S
C267 C264 1.386 . S
C268 C263 1.490 . S
C268 C270 1.395 . S
C268 C271 1.403 . S
H269 C275 0.930 . S
C270 H256 0.930 . S
C270 C268 1.395 . S
C270 C273 1.403 . S
C271 C268 1.403 . S
C271 C272 1.524 . S
C271 C275 1.400 . S
C272 H257 0.960 . S
C272 H258 0.960 . S
C272 H259 0.960 . S
C272 C271 1.524 . S
C273 C270 1.403 . S
C273 C274 1.392 . S
C273 C277 1.495 . S
C274 C273 1.392 . S
C274 C275 1.385 . S
C274 C276 1.478 . S
C275 H269 0.930 . S
C275 C271 1.400 . S
C275 C274 1.385 . S
C276 C274 1.478 . S
C276 C278 1.381 . S
C276 C282 1.383 . S
C277 C273 1.495 . S
C277 H283 0.959 . S
C277 H284 0.961 . S
C277 H285 0.960 . S
C278 C276 1.381 . S
C278 C279 1.394 . S
C278 H286 0.930 . S
C279 C278 1.394 . S
C279 C280 1.383 . S
C279 H287 0.929 . S
C280 C279 1.383 . S
C280 C281 1.377 . S
C281 H265 0.930 . S
C281 C280 1.377 . S
C281 C282 1.379 . S
C282 H266 0.931 . S
C282 C276 1.383 . S
C282 C281 1.379 . S
H283 C277 0.959 . S
H284 C277 0.961 . S
H285 C277 0.960 . S
H286 C278 0.930 . S
H287 C279 0.929 . S
H288 C296 0.929 . S
H289 C298 0.930 . S
H290 C300 0.930 . S
H291 C303 0.929 . S
H292 C306 0.930 . S
H293 C308 0.960 . S
H294 C308 0.960 . S
H295 C308 0.960 . S
C296 H288 0.929 . S
C296 C297 1.377 . S
C296 C298 1.384 . S
C297 C296 1.377 . S
C297 C303 1.390 . S
C298 H289 0.930 . S
C298 C296 1.384 . S
C298 C299 1.372 . S
C299 C298 1.372 . S
C299 C300 1.400 . S
C299 C304 1.490 . S
C300 H290 0.930 . S
C300 C299 1.400 . S
C300 C303 1.386 . S
H301 C317 0.930 . S
H302 C318 0.931 . S
C303 H291 0.929 . S
C303 C297 1.390 . S
C303 C300 1.386 . S
C304 C299 1.490 . S
C304 C306 1.395 . S
C304 C307 1.403 . S
H305 C311 0.930 . S
C306 H292 0.930 . S
C306 C304 1.395 . S
C306 C309 1.403 . S
C307 C304 1.403 . S
C307 C308 1.524 . S
C307 C311 1.400 . S
C308 H293 0.960 . S
C308 H294 0.960 . S
C308 H295 0.960 . S
C308 C307 1.524 . S
C309 C306 1.403 . S
C309 C310 1.392 . S
C309 C313 1.495 1_455 S
C310 C309 1.392 . S
C310 C311 1.385 . S
C310 C312 1.478 . S
C311 H305 0.930 . S
C311 C307 1.400 . S
C311 C310 1.385 . S
C312 C310 1.478 . S
C312 C314 1.381 . S
C312 C318 1.383 . S
C313 C309 1.495 1_655 S
C313 H319 0.959 . S
C313 H320 0.961 . S
C313 H321 0.960 . S
C314 C312 1.381 . S
C314 C315 1.399 . S
C314 H322 0.930 1_455 S
C315 C314 1.399 . S
C315 C316 1.408 . S
C315 H323 0.901 1_455 S
C316 C315 1.408 . S
C316 C317 1.377 . S
C317 H301 0.930 . S
C317 C316 1.377 . S
C317 C318 1.379 . S
C318 H302 0.931 . S
C318 C312 1.383 . S
C318 C317 1.379 . S
H319 C313 0.959 . S
H320 C313 0.961 . S
H321 C313 0.960 . S
H322 C314 0.930 1_655 S
H323 C315 0.901 1_655 S
H324 C332 0.929 . S
H325 C334 0.930 . S
H326 C336 0.897 1_545 S
H327 C339 0.929 . S
H328 C342 0.930 . S
H329 C344 0.960 . S
H330 C344 0.960 1_554 S
H331 C344 0.960 . S
C332 H324 0.929 . S
C332 C333 1.377 . S
C332 C334 1.384 . S
C333 C332 1.377 . S
C333 C339 1.390 1_554 S
C334 H325 0.930 . S
C334 C332 1.384 . S
C334 C335 1.372 1_554 S
C335 C334 1.372 1_556 S
C335 C336 1.400 . S
C335 C340 1.490 . S
C336 H326 0.897 1_565 S
C336 C335 1.400 . S
C336 C339 1.386 . S
H337 C353 0.930 . S
H338 C354 0.931 . S
C339 H327 0.929 . S
C339 C333 1.390 1_556 S
C339 C336 1.386 . S
C340 C335 1.490 . S
C340 C342 1.395 . S
C340 C343 1.403 1_565 S
H341 C347 0.930 . S
C342 H328 0.930 . S
C342 C340 1.395 . S
C342 C345 1.403 . S
C343 C340 1.403 1_545 S
C343 C344 1.524 . S
C343 C347 1.400 . S
C344 H329 0.960 . S
C344 H330 0.960 1_556 S
C344 H331 0.960 . S
C344 C343 1.524 . S
C345 C342 1.403 . S
C345 C346 1.392 . S
C345 C349 1.495 . S
C346 C345 1.392 . S
C346 C347 1.385 1_565 S
C346 C348 1.478 . S
C347 H341 0.930 . S
C347 C343 1.400 . S
C347 C346 1.385 1_545 S
C348 C346 1.478 . S
C348 C350 1.381 . S
C348 C354 1.383 1_565 S
C349 C345 1.495 . S
C349 H355 0.959 . S
C349 H356 0.961 . S
C349 H357 0.960 . S
C350 C348 1.381 . S
C350 C351 1.394 . S
C350 H358 0.930 . S
C351 C350 1.394 . S
C351 C352 1.383 1_565 S
C351 H359 0.929 . S
C352 C351 1.383 1_545 S
C352 C353 1.377 . S
C353 H337 0.930 . S
C353 C352 1.377 . S
C353 C354 1.379 . S
C354 H338 0.931 . S
C354 C348 1.383 1_545 S
C354 C353 1.379 . S
H355 C349 0.959 . S
H356 C349 0.961 . S
H357 C349 0.960 . S
H358 C350 0.930 . S
H359 C351 0.929 . S
H360 C368 0.929 . S
H361 C370 0.930 . S
H362 C372 0.930 . S
H363 C375 0.929 . S
H364 C378 0.930 . S
H365 C380 0.960 . S
H366 C380 0.960 . S
H367 C380 0.960 . S
C368 H360 0.929 . S
C368 C369 1.377 1_556 S
C368 C370 1.384 . S
C369 C368 1.377 1_554 S
C369 C375 1.390 . S
C370 H361 0.930 . S
C370 C368 1.384 . S
C370 C371 1.372 . S
C371 C370 1.372 . S
C371 C372 1.400 1_556 S
C371 C376 1.490 . S
C372 H362 0.930 . S
C372 C371 1.400 1_554 S
C372 C375 1.386 . S
H373 C389 0.930 . S
H374 C390 0.931 . S
C375 H363 0.929 . S
C375 C369 1.390 . S
C375 C372 1.386 . S
C376 C371 1.490 . S
C376 C378 1.395 . S
C376 C379 1.403 . S
H377 C383 0.930 . S
C378 H364 0.930 . S
C378 C376 1.395 . S
C378 C381 1.403 . S
C379 C376 1.403 . S
C379 C380 1.524 . S
C379 C383 1.400 . S
C380 H365 0.960 . S
C380 H366 0.960 . S
C380 H367 0.960 . S
C380 C379 1.524 . S
C381 C378 1.403 . S
C381 C382 1.392 . S
C381 C385 1.495 . S
C382 C381 1.392 . S
C382 C383 1.385 . S
C382 C384 1.478 . S
C383 H377 0.930 . S
C383 C379 1.400 . S
C383 C382 1.385 . S
C384 C382 1.478 . S
C384 C386 1.381 . S
C384 C390 1.383 . S
C385 C381 1.495 . S
C385 H391 0.959 . S
C385 H392 0.961 . S
C385 H393 0.960 . S
C386 C384 1.381 . S
C386 C387 1.394 . S
C386 H394 0.930 . S
C387 C386 1.394 . S
C387 C388 1.383 . S
C387 H395 0.929 . S
C388 C387 1.383 . S
C388 C389 1.377 . S
C389 H373 0.930 . S
C389 C388 1.377 . S
C389 C390 1.379 . S
C390 H374 0.931 . S
C390 C384 1.383 . S
C390 C389 1.379 . S
H391 C385 0.959 . S
H392 C385 0.961 . S
H393 C385 0.960 . S
H394 C386 0.930 . S
H395 C387 0.929 . S
H396 C404 0.929 . S
H397 C406 0.930 . S
H398 C408 0.930 . S
H399 C411 0.929 . S
H400 C414 0.930 . S
H401 C416 0.960 . S
H402 C416 0.960 1_554 S
H403 C416 0.960 . S
C404 H396 0.929 . S
C404 C405 1.377 . S
C404 C406 1.384 . S
C405 C404 1.377 . S
C405 C411 1.390 1_554 S
C406 H397 0.930 . S
C406 C404 1.384 . S
C406 C407 1.372 1_554 S
C407 C406 1.372 1_556 S
C407 C408 1.400 . S
C407 C412 1.490 . S
C408 H398 0.930 . S
C408 C407 1.400 . S
C408 C411 1.386 . S
H409 C425 0.930 . S
H410 C426 0.931 . S
C411 H399 0.929 . S
C411 C405 1.390 1_556 S
C411 C408 1.386 . S
C412 C407 1.490 . S
C412 C414 1.395 . S
C412 C415 1.403 . S
H413 C419 0.930 . S
C414 H400 0.930 . S
C414 C412 1.395 . S
C414 C417 1.403 . S
C415 C412 1.403 . S
C415 C416 1.524 . S
C415 C419 1.400 . S
C416 H401 0.960 . S
C416 H402 0.960 1_556 S
C416 H403 0.960 . S
C416 C415 1.524 . S
C417 C414 1.403 . S
C417 C418 1.392 . S
C417 C421 1.495 . S
C418 C417 1.392 . S
C418 C419 1.385 . S
C418 C420 1.478 . S
C419 H413 0.930 . S
C419 C415 1.400 . S
C419 C418 1.385 . S
C420 C418 1.478 . S
C420 C422 1.381 . S
C420 C426 1.383 . S
C421 C417 1.495 . S
C421 H427 0.959 . S
C421 H428 0.961 . S
C421 H429 0.960 . S
C422 C420 1.381 . S
C422 C423 1.394 . S
C422 H430 0.930 . S
C423 C422 1.394 . S
C423 C424 1.383 . S
C423 H431 0.929 . S
C424 C423 1.383 . S
C424 C425 1.377 . S
C425 H409 0.930 . S
C425 C424 1.377 . S
C425 C426 1.379 . S
C426 H410 0.931 . S
C426 C420 1.383 . S
C426 C425 1.379 . S
H427 C421 0.959 . S
H428 C421 0.961 . S
H429 C421 0.960 . S
H430 C422 0.930 . S
H431 C423 0.929 . S
H432 C440 0.929 . S
H433 C442 0.930 . S
H434 C444 0.930 1_455 S
H435 C447 0.929 . S
H436 C450 0.930 . S
H437 C452 0.960 . S
H438 C452 0.960 1_554 S
H439 C452 0.960 . S
C440 H432 0.929 . S
C440 C441 1.377 . S
C440 C442 1.384 . S
C441 C440 1.377 . S
C441 C447 1.390 1_554 S
C442 H433 0.930 . S
C442 C440 1.384 . S
C442 C443 1.372 1_554 S
C443 C442 1.372 1_556 S
C443 C444 1.400 . S
C443 C448 1.490 . S
C444 H434 0.930 1_655 S
C444 C443 1.400 . S
C444 C447 1.386 . S
H445 C461 0.930 . S
H446 C462 0.931 . S
C447 H435 0.929 . S
C447 C441 1.390 1_556 S
C447 C444 1.386 . S
C448 C443 1.490 . S
C448 C450 1.395 . S
C448 C451 1.403 1_655 S
H449 C455 0.930 . S
C450 H436 0.930 . S
C450 C448 1.395 . S
C450 C453 1.403 . S
C451 C448 1.403 1_455 S
C451 C452 1.524 . S
C451 C455 1.400 . S
C452 H437 0.960 . S
C452 H438 0.960 1_556 S
C452 H439 0.960 . S
C452 C451 1.524 . S
C453 C450 1.403 . S
C453 C454 1.392 . S
C453 C457 1.495 . S
C454 C453 1.392 . S
C454 C455 1.385 1_655 S
C454 C456 1.478 . S
C455 H449 0.930 . S
C455 C451 1.400 . S
C455 C454 1.385 1_455 S
C456 C454 1.478 . S
C456 C458 1.381 . S
C456 C462 1.383 1_655 S
C457 C453 1.495 . S
C457 H463 0.959 . S
C457 H464 0.961 . S
C457 H465 0.960 . S
C458 C456 1.381 . S
C458 C459 1.394 . S
C458 H466 0.930 . S
C459 C458 1.394 . S
C459 C460 1.383 1_655 S
C459 H467 0.929 . S
C460 C459 1.383 1_455 S
C460 C461 1.377 . S
C461 H445 0.930 . S
C461 C460 1.377 . S
C461 C462 1.379 . S
C462 H446 0.931 . S
C462 C456 1.383 1_455 S
C462 C461 1.379 . S
H463 C457 0.959 . S
H464 C457 0.961 . S
H465 C457 0.960 . S
H466 C458 0.930 . S
H467 C459 0.929 . S
H468 C476 0.929 . S
H469 C478 0.930 . S
H470 C480 0.930 . S
H471 C483 0.929 . S
H472 C486 0.930 . S
H473 C488 0.960 . S
H474 C488 0.960 . S
H475 C488 0.960 . S
C476 H468 0.929 . S
C476 C477 1.377 . S
C476 C478 1.384 . S
C477 C476 1.377 . S
C477 C483 1.390 . S
C478 H469 0.930 . S
C478 C476 1.384 . S
C478 C479 1.372 . S
C479 C478 1.372 . S
C479 C480 1.400 . S
C479 C484 1.490 . S
C480 H470 0.930 . S
C480 C479 1.400 . S
C480 C483 1.386 . S
H481 C497 0.902 1_655 S
H482 C498 0.931 . S
C483 H471 0.929 . S
C483 C477 1.390 . S
C483 C480 1.386 . S
C484 C479 1.490 . S
C484 C486 1.395 . S
C484 C487 1.403 . S
H485 C491 0.930 1_655 S
C486 H472 0.930 . S
C486 C484 1.395 . S
C486 C489 1.403 . S
C487 C484 1.403 . S
C487 C488 1.524 1_455 S
C487 C491 1.400 . S
C488 H473 0.960 . S
C488 H474 0.960 . S
C488 H475 0.960 . S
C488 C487 1.524 1_655 S
C489 C486 1.403 . S
C489 C490 1.392 . S
C489 C493 1.495 . S
C490 C489 1.392 . S
C490 C491 1.385 . S
C490 C492 1.478 . S
C491 H485 0.930 1_455 S
C491 C487 1.400 . S
C491 C490 1.385 . S
C492 C490 1.478 . S
C492 C494 1.381 . S
C492 C498 1.383 . S
C493 C489 1.495 . S
C493 H499 0.959 . S
C493 H500 0.961 . S
C493 H501 0.960 . S
C494 C492 1.381 . S
C494 C495 1.394 . S
C494 H502 0.930 . S
C495 C494 1.394 . S
C495 C496 1.383 . S
C495 H503 0.929 . S
C496 C495 1.383 . S
C496 C497 1.390 . S
C497 H481 0.902 1_455 S
C497 C496 1.390 . S
C497 C498 1.396 . S
C498 H482 0.931 . S
C498 C492 1.383 . S
C498 C497 1.396 . S
H499 C493 0.959 . S
H500 C493 0.961 . S
H501 C493 0.960 . S
H502 C494 0.930 . S
H503 C495 0.929 . S
H504 C512 0.929 . S
H505 C514 0.930 . S
H506 C516 0.930 . S
H507 C519 0.929 . S
H508 C522 0.930 . S
H509 C524 0.960 . S
H510 C524 0.960 . S
H511 C524 0.960 . S
C512 H504 0.929 . S
C512 C513 1.377 . S
C512 C514 1.384 . S
C513 C512 1.377 . S
C513 C519 1.390 . S
C514 H505 0.930 . S
C514 C512 1.384 . S
C514 C515 1.372 . S
C515 C514 1.372 . S
C515 C516 1.400 . S
C515 C520 1.490 . S
C516 H506 0.930 . S
C516 C515 1.400 . S
C516 C519 1.386 . S
H517 C533 0.930 . S
H518 C534 0.931 . S
C519 H507 0.929 . S
C519 C513 1.390 . S
C519 C516 1.386 . S
C520 C515 1.490 . S
C520 C522 1.395 . S
C520 C523 1.403 . S
H521 C527 0.930 . S
C522 H508 0.930 . S
C522 C520 1.395 . S
C522 C525 1.403 . S
C523 C520 1.403 . S
C523 C524 1.524 . S
C523 C527 1.400 . S
C524 H509 0.960 . S
C524 H510 0.960 . S
C524 H511 0.960 . S
C524 C523 1.524 . S
C525 C522 1.403 . S
C525 C526 1.392 . S
C525 C529 1.495 1_545 S
C526 C525 1.392 . S
C526 C527 1.385 . S
C526 C528 1.478 . S
C527 H521 0.930 . S
C527 C523 1.400 . S
C527 C526 1.385 . S
C528 C526 1.478 . S
C528 C530 1.395 . S
C528 C534 1.383 . S
C529 C525 1.495 1_565 S
C529 H535 0.959 . S
C529 H536 0.961 . S
C529 H537 0.960 . S
C530 C528 1.395 . S
C530 C531 1.390 1_545 S
C530 H538 0.921 1_545 S
C531 C530 1.390 1_565 S
C531 C532 1.383 1_565 S
C531 H539 0.929 . S
C532 C531 1.383 1_545 S
C532 C533 1.377 . S
C533 H517 0.930 . S
C533 C532 1.377 . S
C533 C534 1.379 . S
C534 H518 0.931 . S
C534 C528 1.383 . S
C534 C533 1.379 . S
H535 C529 0.959 . S
H536 C529 0.961 . S
H537 C529 0.960 . S
H538 C530 0.921 1_565 S
H539 C531 0.929 . S
H540 C548 0.929 . S
H541 C550 0.930 . S
H542 C552 0.930 . S
H543 C555 0.929 . S
H544 C558 0.930 . S
H545 C560 0.960 . S
H546 C560 0.960 . S
H547 C560 0.960 . S
C548 H540 0.929 . S
C548 C549 1.377 . S
C548 C550 1.384 . S
C549 C548 1.377 . S
C549 C555 1.390 . S
C550 H541 0.930 . S
C550 C548 1.384 . S
C550 C551 1.372 . S
C551 C550 1.372 . S
C551 C552 1.400 . S
C551 C556 1.490 . S
C552 H542 0.930 . S
C552 C551 1.400 . S
C552 C555 1.386 . S
H553 C569 0.930 . S
H554 C570 0.931 . S
C555 H543 0.929 . S
C555 C549 1.390 . S
C555 C552 1.386 . S
C556 C551 1.490 . S
C556 C558 1.395 . S
C556 C559 1.403 . S
H557 C563 0.930 . S
C558 H544 0.930 . S
C558 C556 1.395 . S
C558 C561 1.403 . S
C559 C556 1.403 . S
C559 C560 1.524 . S
C559 C563 1.400 . S
C560 H545 0.960 . S
C560 H546 0.960 . S
C560 H547 0.960 . S
C560 C559 1.524 . S
C561 C558 1.403 . S
C561 C562 1.392 . S
C561 C565 1.495 . S
C562 C561 1.392 . S
C562 C563 1.385 . S
C562 C564 1.478 . S
C563 H557 0.930 . S
C563 C559 1.400 . S
C563 C562 1.385 . S
C564 C562 1.478 . S
C564 C566 1.381 . S
C564 C570 1.383 . S
C565 C561 1.495 . S
C565 H571 0.959 . S
C565 H572 0.961 . S
C565 H573 0.960 . S
C566 C564 1.381 . S
C566 C567 1.394 . S
C566 H574 0.930 . S
C567 C566 1.394 . S
C567 C568 1.383 . S
C567 H575 0.929 . S
C568 C567 1.383 . S
C568 C569 1.377 . S
C569 H553 0.930 . S
C569 C568 1.377 . S
C569 C570 1.379 . S
C570 H554 0.931 . S
C570 C564 1.383 . S
C570 C569 1.379 . S
H571 C565 0.959 . S
H572 C565 0.961 . S
H573 C565 0.960 . S
H574 C566 0.930 . S
H575 C567 0.929 . S
H576 C584 0.929 . S
H577 C586 0.930 . S
H578 C588 0.930 . S
H579 C591 0.929 . S
H580 C594 0.930 . S
H581 C596 0.960 . S
H582 C596 0.960 . S
H583 C596 0.960 . S
C584 H576 0.929 . S
C584 C585 1.377 . S
C584 C586 1.384 . S
C585 C584 1.377 . S
C585 C591 1.390 . S
C586 H577 0.930 . S
C586 C584 1.384 . S
C586 C587 1.372 . S
C587 C586 1.372 . S
C587 C588 1.400 . S
C587 C592 1.490 . S
C588 H578 0.930 . S
C588 C587 1.400 . S
C588 C591 1.386 . S
H589 C605 0.930 . S
H590 C606 0.931 . S
C591 H579 0.929 . S
C591 C585 1.390 . S
C591 C588 1.386 . S
C592 C587 1.490 . S
C592 C594 1.395 . S
C592 C595 1.403 . S
H593 C599 0.930 . S
C594 H580 0.930 . S
C594 C592 1.395 . S
C594 C597 1.403 . S
C595 C592 1.403 . S
C595 C596 1.524 . S
C595 C599 1.400 . S
C596 H581 0.960 . S
C596 H582 0.960 . S
C596 H583 0.960 . S
C596 C595 1.524 . S
C597 C594 1.403 . S
C597 C598 1.392 . S
C597 C601 1.495 . S
C598 C597 1.392 . S
C598 C599 1.385 . S
C598 C600 1.478 . S
C599 H593 0.930 . S
C599 C595 1.400 . S
C599 C598 1.385 . S
C600 C598 1.478 . S
C600 C602 1.381 . S
C600 C606 1.383 . S
C601 C597 1.495 . S
C601 H607 0.959 . S
C601 H608 0.961 . S
C601 H609 0.960 . S
C602 C600 1.381 . S
C602 C603 1.394 . S
C602 H610 0.930 . S
C603 C602 1.394 . S
C603 C604 1.383 . S
C603 H611 0.929 . S
C604 C603 1.383 . S
C604 C605 1.377 . S
C605 H589 0.930 . S
C605 C604 1.377 . S
C605 C606 1.379 . S
C606 H590 0.931 . S
C606 C600 1.383 . S
C606 C605 1.379 . S
H607 C601 0.959 . S
H608 C601 0.961 . S
H609 C601 0.960 . S
H610 C602 0.930 . S
H611 C603 0.929 . S
H612 C620 0.929 . S
H613 C622 0.930 . S
H614 C624 0.930 . S
H615 C627 0.929 . S
H616 C630 0.929 1_454 S
H617 C632 0.960 . S
H618 C632 0.960 . S
H619 C632 0.960 . S
C620 H612 0.929 . S
C620 C621 1.377 . S
C620 C622 1.384 . S
C621 C620 1.377 . S
C621 C627 1.390 1_554 S
C622 H613 0.930 . S
C622 C620 1.384 . S
C622 C623 1.372 1_554 S
C623 C622 1.372 1_556 S
C623 C624 1.400 . S
C623 C628 1.490 . S
C624 H614 0.930 . S
C624 C623 1.400 . S
C624 C627 1.386 . S
H625 C641 0.930 . S
H626 C642 0.931 . S
C627 H615 0.929 . S
C627 C621 1.390 1_556 S
C627 C624 1.386 . S
C628 C623 1.490 . S
C628 C630 1.395 . S
C628 C631 1.403 . S
H629 C635 0.930 . S
C630 H616 0.929 1_656 S
C630 C628 1.395 . S
C630 C633 1.403 1_655 S
C631 C628 1.403 . S
C631 C632 1.524 . S
C631 C635 1.400 . S
C632 H617 0.960 . S
C632 H618 0.960 . S
C632 H619 0.960 . S
C632 C631 1.524 . S
C633 C630 1.403 1_455 S
C633 C634 1.392 1_455 S
C633 C637 1.495 1_556 S
C634 C633 1.392 1_655 S
C634 C635 1.385 . S
C634 C636 1.478 1_655 S
C635 H629 0.930 . S
C635 C631 1.400 . S
C635 C634 1.385 . S
C636 C634 1.478 1_455 S
C636 C638 1.381 1_455 S
C636 C642 1.383 . S
C637 C633 1.495 1_554 S
C637 H643 0.959 . S
C637 H644 0.961 1_554 S
C637 H645 0.960 . S
C638 C636 1.381 1_655 S
C638 C639 1.394 . S
C638 H646 0.930 . S
C639 C638 1.394 . S
C639 C640 1.383 1_655 S
C639 H647 0.929 . S
C640 C639 1.383 1_455 S
C640 C641 1.377 . S
C641 H625 0.930 . S
C641 C640 1.377 . S
C641 C642 1.379 . S
C642 H626 0.931 . S
C642 C636 1.383 . S
C642 C641 1.379 . S
H643 C637 0.959 . S
H644 C637 0.961 1_556 S
H645 C637 0.960 . S
H646 C638 0.930 . S
H647 C639 0.929 . S
H648 C656 0.929 . S
H649 C658 0.930 . S
H650 C660 0.930 . S
H651 C663 0.929 . S
H652 C666 0.930 . S
H653 C668 0.960 . S
H654 C668 0.960 . S
H655 C668 0.960 1_554 S
C656 H648 0.929 . S
C656 C657 1.377 1_556 S
C656 C658 1.384 . S
C657 C656 1.377 1_554 S
C657 C663 1.390 . S
C658 H649 0.930 . S
C658 C656 1.384 . S
C658 C659 1.372 . S
C659 C658 1.372 . S
C659 C660 1.400 1_556 S
C659 C664 1.490 . S
C660 H650 0.930 . S
C660 C659 1.400 1_554 S
C660 C663 1.386 . S
H661 C677 0.930 . S
H662 C678 0.931 . S
C663 H651 0.929 . S
C663 C657 1.390 . S
C663 C660 1.386 . S
C664 C659 1.490 . S
C664 C666 1.395 . S
C664 C667 1.403 1_565 S
H665 C671 0.930 . S
C666 H652 0.930 . S
C666 C664 1.395 . S
C666 C669 1.403 . S
C667 C664 1.403 1_545 S
C667 C668 1.524 . S
C667 C671 1.400 . S
C668 H653 0.960 . S
C668 H654 0.960 . S
C668 H655 0.960 1_556 S
C668 C667 1.524 . S
C669 C666 1.403 . S
C669 C670 1.392 . S
C669 C673 1.495 . S
C670 C669 1.392 . S
C670 C671 1.385 1_565 S
C670 C672 1.478 . S
C671 H665 0.930 . S
C671 C667 1.400 . S
C671 C670 1.385 1_545 S
C672 C670 1.478 . S
C672 C674 1.381 . S
C672 C678 1.383 1_565 S
C673 C669 1.495 . S
C673 H679 0.959 . S
C673 H680 0.961 . S
C673 H681 0.960 . S
C674 C672 1.381 . S
C674 C675 1.394 1_565 S
C674 H682 0.930 . S
C675 C674 1.394 1_545 S
C675 C676 1.383 . S
C675 H683 0.929 . S
C676 C675 1.383 . S
C676 C677 1.377 . S
C677 H661 0.930 . S
C677 C676 1.377 . S
C677 C678 1.379 . S
C678 H662 0.931 . S
C678 C672 1.383 1_545 S
C678 C677 1.379 . S
H679 C673 0.959 . S
H680 C673 0.961 . S
H681 C673 0.960 . S
H682 C674 0.930 . S
H683 C675 0.929 . S
H684 C692 0.929 . S
H685 C694 0.930 . S
H686 C696 0.930 . S
H687 C699 0.929 . S
H688 C702 0.930 1_554 S
H689 C704 0.960 . S
H690 C704 0.960 . S
H691 C704 0.960 . S
C692 H684 0.929 . S
C692 C693 1.377 . S
C692 C694 1.384 . S
C693 C692 1.377 . S
C693 C699 1.390 1_554 S
C694 H685 0.930 . S
C694 C692 1.384 . S
C694 C695 1.372 1_554 S
C695 C694 1.372 1_556 S
C695 C696 1.400 . S
C695 C700 1.490 . S
C696 H686 0.930 . S
C696 C695 1.400 . S
C696 C699 1.386 . S
H697 C713 0.930 . S
H698 C714 0.931 . S
C699 H687 0.929 . S
C699 C693 1.390 1_556 S
C699 C696 1.386 . S
C700 C695 1.490 . S
C700 C702 1.395 . S
C700 C703 1.403 . S
H701 C707 0.930 . S
C702 H688 0.930 1_556 S
C702 C700 1.395 . S
C702 C705 1.403 . S
C703 C700 1.403 . S
C703 C704 1.524 . S
C703 C707 1.400 . S
C704 H689 0.960 . S
C704 H690 0.960 . S
C704 H691 0.960 . S
C704 C703 1.524 . S
C705 C702 1.403 . S
C705 C706 1.392 . S
C705 C709 1.495 . S
C706 C705 1.392 . S
C706 C707 1.385 . S
C706 C708 1.478 . S
C707 H701 0.930 . S
C707 C703 1.400 . S
C707 C706 1.385 . S
C708 C706 1.478 . S
C708 C710 1.381 . S
C708 C714 1.383 . S
C709 C705 1.495 . S
C709 H715 0.959 1_556 S
C709 H716 0.961 . S
C709 H717 0.960 1_556 S
C710 C708 1.381 . S
C710 C711 1.394 . S
C710 H718 0.930 . S
C711 C710 1.394 . S
C711 C712 1.383 . S
C711 H719 0.929 . S
C712 C711 1.383 . S
C712 C713 1.377 . S
C713 H697 0.930 . S
C713 C712 1.377 . S
C713 C714 1.379 . S
C714 H698 0.931 . S
C714 C708 1.383 . S
C714 C713 1.379 . S
H715 C709 0.959 1_554 S
H716 C709 0.961 . S
H717 C709 0.960 1_554 S
H718 C710 0.930 . S
H719 C711 0.929 . S
H720 C728 0.929 . S
H721 C730 0.930 . S
H722 C732 0.930 . S
H723 C735 0.929 1_556 S
H724 C738 0.930 1_554 S
H725 C740 0.960 . S
H726 C740 0.960 . S
H727 C740 0.960 . S
C728 H720 0.929 . S
C728 C729 1.377 . S
C728 C730 1.384 . S
C729 C728 1.377 . S
C729 C735 1.390 . S
C730 H721 0.930 . S
C730 C728 1.384 . S
C730 C731 1.372 1_554 S
C731 C730 1.372 1_556 S
C731 C732 1.400 . S
C731 C736 1.490 . S
C732 H722 0.930 . S
C732 C731 1.400 . S
C732 C735 1.386 1_556 S
H733 C749 0.930 . S
H734 C750 0.931 . S
C735 H723 0.929 1_554 S
C735 C729 1.390 . S
C735 C732 1.386 1_554 S
C736 C731 1.490 . S
C736 C738 1.395 . S
C736 C739 1.403 . S
H737 C743 0.930 . S
C738 H724 0.930 1_556 S
C738 C736 1.395 . S
C738 C741 1.403 . S
C739 C736 1.403 . S
C739 C740 1.524 . S
C739 C743 1.400 . S
C740 H725 0.960 . S
C740 H726 0.960 . S
C740 H727 0.960 . S
C740 C739 1.524 . S
C741 C738 1.403 . S
C741 C742 1.392 . S
C741 C745 1.495 1_556 S
C742 C741 1.392 . S
C742 C743 1.385 . S
C742 C744 1.478 . S
C743 H737 0.930 . S
C743 C739 1.400 . S
C743 C742 1.385 . S
C744 C742 1.478 . S
C744 C746 1.381 . S
C744 C750 1.383 . S
C745 C741 1.495 1_554 S
C745 H751 0.959 . S
C745 H752 0.961 . S
C745 H753 0.960 . S
C746 C744 1.381 . S
C746 C747 1.394 . S
C746 H754 0.930 . S
C747 C746 1.394 . S
C747 C748 1.383 . S
C747 H755 0.929 . S
C748 C747 1.383 . S
C748 C749 1.377 . S
C749 H733 0.930 . S
C749 C748 1.377 . S
C749 C750 1.379 . S
C750 H734 0.931 . S
C750 C744 1.383 . S
C750 C749 1.379 . S
H751 C745 0.959 . S
H752 C745 0.961 . S
H753 C745 0.960 . S
H754 C746 0.930 . S
H755 C747 0.929 . S
H756 C764 0.929 . S
H757 C766 0.930 . S
H758 C768 0.930 . S
H759 C771 0.929 . S
H760 C774 0.930 . S
H761 C776 0.960 1_655 S
H762 C776 0.960 1_655 S
H763 C776 0.960 . S
C764 H756 0.929 . S
C764 C765 1.377 . S
C764 C766 1.384 . S
C765 C764 1.377 . S
C765 C771 1.390 . S
C766 H757 0.930 . S
C766 C764 1.384 . S
C766 C767 1.372 . S
C767 C766 1.372 . S
C767 C768 1.400 . S
C767 C772 1.490 . S
C768 H758 0.930 . S
C768 C767 1.400 . S
C768 C771 1.386 . S
H769 C785 0.930 . S
H770 C786 0.931 1_554 S
C771 H759 0.929 . S
C771 C765 1.390 . S
C771 C768 1.386 . S
C772 C767 1.490 . S
C772 C774 1.395 . S
C772 C775 1.403 . S
H773 C779 0.930 . S
C774 H760 0.930 . S
C774 C772 1.395 . S
C774 C777 1.403 1_554 S
C775 C772 1.403 . S
C775 C776 1.524 . S
C775 C779 1.400 . S
C776 H761 0.960 1_455 S
C776 H762 0.960 1_455 S
C776 H763 0.960 . S
C776 C775 1.524 . S
C777 C774 1.403 1_556 S
C777 C778 1.392 . S
C777 C781 1.495 . S
C778 C777 1.392 . S
C778 C779 1.385 1_556 S
C778 C780 1.478 . S
C779 H773 0.930 . S
C779 C775 1.400 . S
C779 C778 1.385 1_554 S
C780 C778 1.478 . S
C780 C782 1.381 . S
C780 C786 1.383 . S
C781 C777 1.495 . S
C781 H787 0.959 . S
C781 H788 0.961 . S
C781 H789 0.960 . S
C782 C780 1.381 . S
C782 C783 1.394 . S
C782 H790 0.930 . S
C783 C782 1.394 . S
C783 C784 1.383 . S
C783 H791 0.929 . S
C784 C783 1.383 . S
C784 C785 1.377 . S
C785 H769 0.930 . S
C785 C784 1.377 . S
C785 C786 1.379 . S
C786 H770 0.931 1_556 S
C786 C780 1.383 . S
C786 C785 1.379 . S
H787 C781 0.959 . S
H788 C781 0.961 . S
H789 C781 0.960 . S
H790 C782 0.930 . S
H791 C783 0.929 . S
H792 C800 0.929 . S
H793 C802 0.930 . S
H794 C804 0.930 . S
H795 C807 0.929 . S
H796 C810 0.930 1_556 S
H797 C812 0.960 . S
H798 C812 0.960 . S
H799 C812 0.960 . S
C800 H792 0.929 . S
C800 C801 1.377 . S
C800 C802 1.384 . S
C801 C800 1.377 . S
C801 C807 1.390 . S
C802 H793 0.930 . S
C802 C800 1.384 . S
C802 C803 1.372 . S
C803 C802 1.372 . S
C803 C804 1.400 . S
C803 C808 1.490 . S
C804 H794 0.930 . S
C804 C803 1.400 . S
C804 C807 1.386 . S
H805 C821 0.930 . S
H806 C822 0.931 . S
C807 H795 0.929 . S
C807 C801 1.390 . S
C807 C804 1.386 . S
C808 C803 1.490 . S
C808 C810 1.394 . S
C808 C811 1.403 . S
H809 C815 0.930 . S
C810 H796 0.930 1_554 S
C810 C808 1.394 . S
C810 C813 1.404 1_554 S
C811 C808 1.403 . S
C811 C812 1.524 . S
C811 C815 1.400 . S
C812 H797 0.960 . S
C812 H798 0.960 . S
C812 H799 0.960 . S
C812 C811 1.524 . S
C813 C810 1.404 1_556 S
C813 C814 1.392 . S
C813 C817 1.495 . S
C814 C813 1.392 . S
C814 C815 1.385 1_556 S
C814 C816 1.478 . S
C815 H809 0.930 . S
C815 C811 1.400 . S
C815 C814 1.385 1_554 S
C816 C814 1.478 . S
C816 C818 1.381 . S
C816 C822 1.383 . S
C817 C813 1.495 . S
C817 H823 0.959 . S
C817 H824 0.961 . S
C817 H825 0.960 . S
C818 C816 1.381 . S
C818 C819 1.394 . S
C818 H826 0.930 . S
C819 C818 1.394 . S
C819 C820 1.383 . S
C819 H827 0.929 . S
C820 C819 1.383 . S
C820 C821 1.377 . S
C821 H805 0.930 . S
C821 C820 1.377 . S
C821 C822 1.379 . S
C822 H806 0.931 . S
C822 C816 1.383 . S
C822 C821 1.379 . S
H823 C817 0.959 . S
H824 C817 0.961 . S
H825 C817 0.960 . S
H826 C818 0.930 . S
H827 C819 0.929 . S
H828 C836 0.929 . S
H829 C838 0.930 . S
H830 C840 0.930 . S
H831 C843 0.929 . S
H832 C846 0.930 . S
H833 C848 0.960 . S
H834 C848 0.960 . S
H835 C848 0.960 . S
C836 H828 0.929 . S
C836 C837 1.377 . S
C836 C838 1.384 . S
C837 C836 1.377 . S
C837 C843 1.390 . S
C838 H829 0.930 . S
C838 C836 1.384 . S
C838 C839 1.372 . S
C839 C838 1.372 . S
C839 C840 1.400 . S
C839 C844 1.490 . S
C840 H830 0.930 . S
C840 C839 1.400 . S
C840 C843 1.386 . S
H841 C857 0.930 . S
H842 C858 0.931 . S
C843 H831 0.929 . S
C843 C837 1.390 . S
C843 C840 1.386 . S
C844 C839 1.490 . S
C844 C846 1.395 . S
C844 C847 1.403 . S
H845 C851 0.930 . S
C846 H832 0.930 . S
C846 C844 1.395 . S
C846 C849 1.403 1_554 S
C847 C844 1.403 . S
C847 C848 1.524 . S
C847 C851 1.400 . S
C848 H833 0.960 . S
C848 H834 0.960 . S
C848 H835 0.960 . S
C848 C847 1.524 . S
C849 C846 1.403 1_556 S
C849 C850 1.392 . S
C849 C853 1.495 . S
C850 C849 1.392 . S
C850 C851 1.385 1_556 S
C850 C852 1.478 . S
C851 H845 0.930 . S
C851 C847 1.400 . S
C851 C850 1.385 1_554 S
C852 C850 1.478 . S
C852 C854 1.381 . S
C852 C858 1.383 . S
C853 C849 1.495 . S
C853 H859 0.959 . S
C853 H860 0.961 . S
C853 H861 0.960 . S
C854 C852 1.381 . S
C854 C855 1.394 . S
C854 H862 0.930 . S
C855 C854 1.394 . S
C855 C856 1.383 . S
C855 H863 0.929 . S
C856 C855 1.383 . S
C856 C857 1.377 . S
C857 H841 0.930 . S
C857 C856 1.377 . S
C857 C858 1.379 . S
C858 H842 0.931 . S
C858 C852 1.383 . S
C858 C857 1.379 . S
H859 C853 0.959 . S
H860 C853 0.961 . S
H861 C853 0.960 . S
H862 C854 0.930 . S
H863 C855 0.929 . S
H864 C872 0.929 . S
H865 C874 0.930 . S
H866 C876 0.930 . S
H867 C879 0.929 . S
H868 C882 0.930 . S
H869 C884 0.960 . S
H870 C884 0.960 . S
H871 C884 0.960 . S
C872 H864 0.929 . S
C872 C873 1.377 . S
C872 C874 1.384 . S
C873 C872 1.377 . S
C873 C879 1.390 . S
C874 H865 0.930 . S
C874 C872 1.384 . S
C874 C875 1.372 . S
C875 C874 1.372 . S
C875 C876 1.400 . S
C875 C880 1.490 . S
C876 H866 0.930 . S
C876 C875 1.400 . S
C876 C879 1.386 . S
H877 C893 0.930 . S
H878 C894 0.931 . S
C879 H867 0.929 . S
C879 C873 1.390 . S
C879 C876 1.386 . S
C880 C875 1.490 . S
C880 C882 1.395 . S
C880 C883 1.403 . S
H881 C887 0.930 . S
C882 H868 0.930 . S
C882 C880 1.395 . S
C882 C885 1.403 1_554 S
C883 C880 1.403 . S
C883 C884 1.524 . S
C883 C887 1.400 . S
C884 H869 0.960 . S
C884 H870 0.960 . S
C884 H871 0.960 . S
C884 C883 1.524 . S
C885 C882 1.403 1_556 S
C885 C886 1.392 . S
C885 C889 1.495 . S
C886 C885 1.392 . S
C886 C887 1.385 1_556 S
C886 C888 1.478 . S
C887 H881 0.930 . S
C887 C883 1.400 . S
C887 C886 1.385 1_554 S
C888 C886 1.478 . S
C888 C890 1.381 . S
C888 C894 1.383 . S
C889 C885 1.495 . S
C889 H895 0.959 . S
C889 H896 0.961 . S
C889 H897 0.960 . S
C890 C888 1.381 . S
C890 C891 1.394 . S
C890 H898 0.930 . S
C891 C890 1.394 . S
C891 C892 1.383 . S
C891 H899 0.929 . S
C892 C891 1.383 . S
C892 C893 1.377 . S
C893 H877 0.930 . S
C893 C892 1.377 . S
C893 C894 1.379 . S
C894 H878 0.931 . S
C894 C888 1.383 . S
C894 C893 1.379 . S
H895 C889 0.959 . S
H896 C889 0.961 . S
H897 C889 0.960 . S
H898 C890 0.930 . S
H899 C891 0.929 . S
H900 C908 0.929 . S
H901 C910 0.930 1_455 S
H902 C912 0.930 . S
H903 C915 0.929 . S
H904 C918 0.958 . S
H905 C920 0.960 . S
H906 C920 0.960 . S
H907 C920 0.960 . S
C908 H900 0.929 . S
C908 C909 1.377 . S
C908 C910 1.384 . S
C909 C908 1.377 . S
C909 C915 1.390 . S
C910 H901 0.930 1_655 S
C910 C908 1.384 . S
C910 C911 1.372 . S
C911 C910 1.372 . S
C911 C912 1.400 . S
C911 C916 1.490 . S
C912 H902 0.930 . S
C912 C911 1.400 . S
C912 C915 1.386 . S
H913 C929 0.930 . S
H914 C930 0.931 . S
C915 H903 0.929 . S
C915 C909 1.390 . S
C915 C912 1.386 . S
C916 C911 1.490 . S
C916 C918 1.360 1_655 S
C916 C919 1.403 . S
H917 C923 0.930 . S
C918 H904 0.958 . S
C918 C916 1.360 1_455 S
C918 C921 1.412 . S
C919 C916 1.403 . S
C919 C920 1.524 . S
C919 C923 1.400 . S
C920 H905 0.960 . S
C920 H906 0.960 . S
C920 H907 0.960 . S
C920 C919 1.524 . S
C921 C918 1.412 . S
C921 C922 1.392 1_455 S
C921 C925 1.495 . S
C922 C921 1.392 1_655 S
C922 C923 1.385 . S
C922 C924 1.478 . S
C923 H917 0.930 . S
C923 C919 1.400 . S
C923 C922 1.385 . S
C924 C922 1.478 . S
C924 C926 1.381 1_655 S
C924 C930 1.383 . S
C925 C921 1.495 . S
C925 H931 0.959 . S
C925 H932 0.961 . S
C925 H933 0.960 . S
C926 C924 1.381 1_455 S
C926 C927 1.394 . S
C926 H934 0.930 . S
C927 C926 1.394 . S
C927 C928 1.383 1_455 S
C927 H935 0.929 . S
C928 C927 1.383 1_655 S
C928 C929 1.377 . S
C929 H913 0.930 . S
C929 C928 1.377 . S
C929 C930 1.379 . S
C930 H914 0.931 . S
C930 C924 1.383 . S
C930 C929 1.379 . S
H931 C925 0.959 . S
H932 C925 0.961 . S
H933 C925 0.960 . S
H934 C926 0.930 . S
H935 C927 0.929 . S
H936 C944 0.929 . S
H937 C946 0.930 . S
H938 C948 0.930 . S
H939 C951 0.929 . S
H940 C954 0.930 . S
H941 C956 0.960 1_545 S
H942 C956 0.960 1_545 S
H943 C956 0.960 . S
C944 H936 0.929 . S
C944 C945 1.377 . S
C944 C946 1.384 . S
C945 C944 1.377 . S
C945 C951 1.390 . S
C946 H937 0.930 . S
C946 C944 1.384 . S
C946 C947 1.372 . S
C947 C946 1.372 . S
C947 C948 1.400 . S
C947 C952 1.490 . S
C948 H938 0.930 . S
C948 C947 1.400 . S
C948 C951 1.386 . S
H949 C965 0.930 . S
H950 C966 0.931 . S
C951 H939 0.929 . S
C951 C945 1.390 . S
C951 C948 1.386 . S
C952 C947 1.490 . S
C952 C954 1.395 . S
C952 C955 1.403 . S
H953 C959 0.930 . S
C954 H940 0.930 . S
C954 C952 1.395 . S
C954 C957 1.403 . S
C955 C952 1.403 . S
C955 C956 1.524 . S
C955 C959 1.400 . S
C956 H941 0.960 1_565 S
C956 H942 0.960 1_565 S
C956 H943 0.960 . S
C956 C955 1.524 . S
C957 C954 1.403 . S
C957 C958 1.392 . S
C957 C961 1.495 . S
C958 C957 1.392 . S
C958 C959 1.385 . S
C958 C960 1.478 . S
C959 H953 0.930 . S
C959 C955 1.400 . S
C959 C958 1.385 . S
C960 C958 1.478 . S
C960 C962 1.381 1_565 S
C960 C966 1.383 . S
C961 C957 1.495 . S
C961 H967 0.959 . S
C961 H968 0.961 . S
C961 H969 0.960 . S
C962 C960 1.381 1_545 S
C962 C963 1.394 . S
C962 H970 0.930 . S
C963 C962 1.394 . S
C963 C964 1.383 1_545 S
C963 H971 0.929 . S
C964 C963 1.383 1_565 S
C964 C965 1.377 . S
C965 H949 0.930 . S
C965 C964 1.377 . S
C965 C966 1.379 . S
C966 H950 0.931 . S
C966 C960 1.383 . S
C966 C965 1.379 . S
H967 C961 0.959 . S
H968 C961 0.961 . S
H969 C961 0.960 . S
H970 C962 0.930 . S
H971 C963 0.929 . S
H972 C980 0.929 . S
H973 C982 0.930 . S
H974 C984 0.930 . S
H975 C987 0.929 . S
H976 C990 0.930 . S
H977 C992 0.960 . S
H978 C992 0.960 . S
H979 C992 0.960 . S
C980 H972 0.929 . S
C980 C981 1.377 . S
C980 C982 1.384 . S
C981 C980 1.377 . S
C981 C987 1.390 . S
C982 H973 0.930 . S
C982 C980 1.384 . S
C982 C983 1.372 . S
C983 C982 1.372 . S
C983 C984 1.400 . S
C983 C988 1.490 . S
C984 H974 0.930 . S
C984 C983 1.400 . S
C984 C987 1.386 . S
H985 C1001 0.930 . S
H986 C1002 0.931 . S
C987 H975 0.929 . S
C987 C981 1.390 . S
C987 C984 1.386 . S
C988 C983 1.490 . S
C988 C990 1.395 . S
C988 C991 1.403 . S
H989 C995 0.930 . S
C990 H976 0.930 . S
C990 C988 1.395 . S
C990 C993 1.403 . S
C991 C988 1.403 . S
C991 C992 1.524 . S
C991 C995 1.400 . S
C992 H977 0.960 . S
C992 H978 0.960 . S
C992 H979 0.960 . S
C992 C991 1.524 . S
C993 C990 1.403 . S
C993 C994 1.392 . S
C993 C997 1.495 . S
C994 C993 1.392 . S
C994 C995 1.385 . S
C994 C996 1.478 . S
C995 H989 0.930 . S
C995 C991 1.400 . S
C995 C994 1.385 . S
C996 C994 1.478 . S
C996 C998 1.381 . S
C996 C1002 1.383 . S
C997 C993 1.495 . S
C997 H1003 0.959 . S
C997 H1004 0.961 . S
C997 H1005 0.960 . S
C998 C996 1.381 . S
C998 C999 1.394 . S
C998 H1006 0.930 . S
C999 C998 1.394 . S
C999 C1000 1.383 . S
C999 H1007 0.929 . S
C1000 C999 1.383 . S
C1000 C1001 1.377 . S
C1001 H985 0.930 . S
C1001 C1000 1.377 . S
C1001 C1002 1.379 . S
C1002 H986 0.931 . S
C1002 C996 1.383 . S
C1002 C1001 1.379 . S
H1003 C997 0.959 . S
H1004 C997 0.961 . S
H1005 C997 0.960 . S
H1006 C998 0.930 . S
H1007 C999 0.929 . S
H1008 C1016 0.929 . S
H1009 C1018 0.930 . S
H1010 C1020 0.930 . S
H1011 C1023 0.929 . S
H1012 C1026 0.930 . S
H1013 C1028 0.960 . S
H1014 C1028 0.960 . S
H1015 C1028 0.960 . S
C1016 H1008 0.929 . S
C1016 C1017 1.377 . S
C1016 C1018 1.384 . S
C1017 C1016 1.377 . S
C1017 C1023 1.390 . S
C1018 H1009 0.930 . S
C1018 C1016 1.384 . S
C1018 C1019 1.372 . S
C1019 C1018 1.372 . S
C1019 C1020 1.400 . S
C1019 C1024 1.490 . S
C1020 H1010 0.930 . S
C1020 C1019 1.400 . S
C1020 C1023 1.386 . S
H1021 C1037 0.930 . S
H1022 C1038 0.931 . S
C1023 H1011 0.929 . S
C1023 C1017 1.390 . S
C1023 C1020 1.386 . S
C1024 C1019 1.490 . S
C1024 C1026 1.395 . S
C1024 C1027 1.403 . S
H1025 C1031 0.930 . S
C1026 H1012 0.930 . S
C1026 C1024 1.395 . S
C1026 C1029 1.403 . S
C1027 C1024 1.403 . S
C1027 C1028 1.524 . S
C1027 C1031 1.400 . S
C1028 H1013 0.960 . S
C1028 H1014 0.960 . S
C1028 H1015 0.960 . S
C1028 C1027 1.524 . S
C1029 C1026 1.403 . S
C1029 C1030 1.392 . S
C1029 C1033 1.495 . S
C1030 C1029 1.392 . S
C1030 C1031 1.385 . S
C1030 C1032 1.478 . S
C1031 H1025 0.930 . S
C1031 C1027 1.400 . S
C1031 C1030 1.385 . S
C1032 C1030 1.478 . S
C1032 C1034 1.381 . S
C1032 C1038 1.383 . S
C1033 C1029 1.495 . S
C1033 H1039 0.959 . S
C1033 H1040 0.961 . S
C1033 H1041 0.960 . S
C1034 C1032 1.381 . S
C1034 C1035 1.394 . S
C1034 H1042 0.930 . S
C1035 C1034 1.394 . S
C1035 C1036 1.383 . S
C1035 H1043 0.929 . S
C1036 C1035 1.383 . S
C1036 C1037 1.377 . S
C1037 H1021 0.930 . S
C1037 C1036 1.377 . S
C1037 C1038 1.379 . S
C1038 H1022 0.931 . S
C1038 C1032 1.383 . S
C1038 C1037 1.379 . S
H1039 C1033 0.959 . S
H1040 C1033 0.961 . S
H1041 C1033 0.960 . S
H1042 C1034 0.930 . S
H1043 C1035 0.929 . S
C189 C76 1.535 . S
C208 C111 1.440 . S
C244 C135 1.399 . S
C225 C88 1.541 . S
C280 C156 1.380 . S
C261 C52 1.540 . S
C316 C174 1.370 . S
C297 C64 1.543 . S
C352 C114 1.382 . S
C333 C28 1.489 . S
C369 C40 1.481 . S
C388 C132 1.289 . S
C405 C4 1.489 . S
C424 C153 1.382 . S
C441 C16 1.489 . S
C460 C177 1.381 . S
C496 C112 0.425 . S
C477 C69 0.411 . S
C532 C130 0.446 . S
C513 C81 0.448 . S
C568 C151 0.427 . S
C549 C93 0.411 . S
C585 C57 0.446 . S
C604 C175 0.466 . S
C621 C21 0.523 . S
C640 C110 0.517 . S
C676 C134 0.523 . S
C657 C33 0.524 . S
C712 C155 0.505 . S
C693 C45 0.520 . S
C729 C9 0.530 . S
C748 C173 0.540 . S
C765 C66 1.611 . S
C784 C113 1.582 . S
C801 C78 1.607 . S
C820 C131 1.559 . S
C856 C152 1.532 . S
C837 C90 1.604 . S
C892 C176 1.539 . S
C873 C54 1.605 . S
C909 C18 1.447 . S
C928 C109 1.386 1_655 S
C964 C133 1.435 1_565 S
C945 C30 1.439 . S
C1000 C154 1.435 . S
C981 C42 1.435 . S
C1017 C6 1.437 . S
C1036 C172 1.412 . S
