# Generated by pormake.
# Topology zzz, (3,6)-cn, num edge types: 1
# Building blocks:
#     Node 0, Type 0, BuildingBlock: BETDIP_clean_linker_0, # of connection points: 3
#     Node 1, Type 0, BuildingBlock: BETDIP_clean_linker_0, # of connection points: 3
#     Node 2, Type 0, BuildingBlock: BETDIP_clean_linker_0, # of connection points: 3
#     Node 3, Type 0, BuildingBlock: BETDIP_clean_linker_0, # of connection points: 3
#     Node 4, Type 0, BuildingBlock: BETDIP_clean_linker_0, # of connection points: 3
#     Node 5, Type 0, BuildingBlock: BETDIP_clean_linker_0, # of connection points: 3
#     Node 6, Type 0, BuildingBlock: BETDIP_clean_linker_0, # of connection points: 3
#     Node 7, Type 0, BuildingBlock: BETDIP_clean_linker_0, # of connection points: 3
#     Node 8, Type 1, BuildingBlock: KUMBUR_clean_sbu_0, # of connection points: 6
#     Node 9, Type 1, BuildingBlock: KUMBUR_clean_sbu_0, # of connection points: 6
#     Node 10, Type 1, BuildingBlock: KUMBUR_clean_sbu_0, # of connection points: 6
#     Node 11, Type 1, BuildingBlock: KUMBUR_clean_sbu_0, # of connection points: 6
#     Edge 12, Type (0, 1), BuildingBlock: MIFKUJ_clean_linker_0, # of connection points: 2
#     Edge 13, Type (0, 1), BuildingBlock: MIFKUJ_clean_linker_0, # of connection points: 2
#     Edge 14, Type (0, 1), BuildingBlock: MIFKUJ_clean_linker_0, # of connection points: 2
#     Edge 15, Type (0, 1), BuildingBlock: MIFKUJ_clean_linker_0, # of connection points: 2
#     Edge 16, Type (0, 1), BuildingBlock: MIFKUJ_clean_linker_0, # of connection points: 2
#     Edge 17, Type (0, 1), BuildingBlock: MIFKUJ_clean_linker_0, # of connection points: 2
#     Edge 18, Type (0, 1), BuildingBlock: MIFKUJ_clean_linker_0, # of connection points: 2
#     Edge 19, Type (0, 1), BuildingBlock: MIFKUJ_clean_linker_0, # of connection points: 2
#     Edge 20, Type (0, 1), BuildingBlock: MIFKUJ_clean_linker_0, # of connection points: 2
#     Edge 21, Type (0, 1), BuildingBlock: MIFKUJ_clean_linker_0, # of connection points: 2
#     Edge 22, Type (0, 1), BuildingBlock: MIFKUJ_clean_linker_0, # of connection points: 2
#     Edge 23, Type (0, 1), BuildingBlock: MIFKUJ_clean_linker_0, # of connection points: 2
#     Edge 24, Type (0, 1), BuildingBlock: MIFKUJ_clean_linker_0, # of connection points: 2
#     Edge 25, Type (0, 1), BuildingBlock: MIFKUJ_clean_linker_0, # of connection points: 2
#     Edge 26, Type (0, 1), BuildingBlock: MIFKUJ_clean_linker_0, # of connection points: 2
#     Edge 27, Type (0, 1), BuildingBlock: MIFKUJ_clean_linker_0, # of connection points: 2
#     Edge 28, Type (0, 1), BuildingBlock: MIFKUJ_clean_linker_0, # of connection points: 2
#     Edge 29, Type (0, 1), BuildingBlock: MIFKUJ_clean_linker_0, # of connection points: 2
#     Edge 30, Type (0, 1), BuildingBlock: MIFKUJ_clean_linker_0, # of connection points: 2
#     Edge 31, Type (0, 1), BuildingBlock: MIFKUJ_clean_linker_0, # of connection points: 2
#     Edge 32, Type (0, 1), BuildingBlock: MIFKUJ_clean_linker_0, # of connection points: 2
#     Edge 33, Type (0, 1), BuildingBlock: MIFKUJ_clean_linker_0, # of connection points: 2
#     Edge 34, Type (0, 1), BuildingBlock: MIFKUJ_clean_linker_0, # of connection points: 2
#     Edge 35, Type (0, 1), BuildingBlock: MIFKUJ_clean_linker_0, # of connection points: 2
# Relax obj value: 0.146
# Max RMSD: 0.151
# Mean RMSD: 0.112
data_MOF--net-zzz--node1-KUMBUR_clean_sbu_0--node2-BETDIP_clean_linker_0--edge1-MIFKUJ_clean_linker_0
_symmetry_space_group_name_H-M    P1
_symmetry_Int_Tables_number       1
_symmetry_cell_setting            triclinic
loop_
_symmetry_equiv_pos_as_xyz
'x, y, z'
_cell_length_a     65.810125
_cell_length_b     65.450097
_cell_length_c     18.965824
_cell_angle_alpha  90.90489
_cell_angle_beta   90.067604
_cell_angle_gamma 90.043246
loop_
_atom_site_label
_atom_site_type_symbol
_atom_site_fract_x
_atom_site_fract_y
_atom_site_fract_z
_atom_type_partial_charge
H0 H 0.75475 0.53853 0.27027 0.0
H1 H 0.74636 0.57969 0.09671 0.0
H2 H 0.80312 0.57819 0.20627 0.0
H3 H 0.71394 0.57966 0.13193 0.0
C4 C 0.71168 0.56335 0.13812 0.0
C5 C 0.76021 0.55084 0.23785 0.0
C6 C 0.78054 0.55791 0.24571 0.0
C7 C 0.74721 0.55936 0.18571 0.0
C8 C 0.75525 0.57425 0.14057 0.0
C9 C 0.77533 0.58106 0.14731 0.0
C10 C 0.78736 0.57347 0.20191 0.0
N11 N 0.72694 0.55172 0.17398 0.0
H12 H 0.99884 0.76466 0.30122 0.0
H13 H 0.96475 0.76054 0.10691 0.0
H14 H 0.96695 0.81707 0.22404 0.0
H15 H 0.95803 0.72796 0.15775 0.0
C16 C 0.97415 0.72431 0.15817 0.0
C17 C 0.98896 0.77152 0.26253 0.0
C18 C 0.98281 0.79226 0.27118 0.0
C19 C 0.98179 0.75961 0.20398 0.0
C20 C 0.96953 0.76912 0.15329 0.0
C21 C 0.96432 0.78983 0.15929 0.0
C22 C 0.9705 0.80093 0.21938 0.0
N23 N 0.98754 0.73857 0.19321 0.0
H24 H 0.77337 1.00661 0.31896 0.0
H25 H 0.78149 0.9694 0.13144 0.0
H26 H 0.72329 0.97229 0.2332 0.0
H27 H 0.81411 0.96531 0.20065 0.0
C28 C 0.81629 0.98153 0.19163 0.0
C29 C 0.76739 0.99592 0.28003 0.0
C30 C 0.74696 0.98901 0.2852 0.0
C31 C 0.78016 0.98841 0.22489 0.0
C32 C 0.77198 0.97476 0.1744 0.0
C33 C 0.75143 0.96909 0.1758 0.0
C34 C 0.73934 0.97596 0.23225 0.0
N35 N 0.80079 0.9952 0.21687 0.0
H36 H 0.54398 0.78462 0.33187 0.0
H37 H 0.57392 0.7957 0.1338 0.0
H38 H 0.57725 0.73659 0.22677 0.0
H39 H 0.58163 0.82751 0.22119 0.0
C40 C 0.5655 0.82953 0.21086 0.0
C41 C 0.55352 0.77937 0.28881 0.0
C42 C 0.56108 0.75905 0.2878 0.0
C43 C 0.55897 0.793 0.2343 0.0
C44 C 0.57074 0.78575 0.17758 0.0
C45 C 0.57719 0.76547 0.17409 0.0
C46 C 0.57289 0.75255 0.23034 0.0
N47 N 0.5521 0.81372 0.23346 0.0
H48 H 0.27706 0.49443 0.92664 0.0
H49 H 0.28597 0.47831 0.14476 0.0
H50 H 0.22739 0.47214 0.05291 0.0
H51 H 0.30229 0.51249 0.13173 0.0
C52 C 0.313 0.50494 0.09628 0.0
C53 C 0.2711 0.48856 0.97548 0.0
C54 C 0.25031 0.48235 0.97977 0.0
C55 C 0.28405 0.48753 0.03592 0.0
C56 C 0.2763 0.47961 0.09875 0.0
C57 C 0.25613 0.47364 0.10358 0.0
C58 C 0.24334 0.47543 0.04528 0.0
N59 N 0.3047 0.4946 0.03547 0.0
H60 H 0.04022 0.28121 0.92375 0.0
H61 H 0.05732 0.28951 0.14249 0.0
H62 H 0.064 0.23089 0.04325 0.0
H63 H 0.02004 0.30805 0.11525 0.0
C64 C 0.03113 0.31796 0.09059 0.0
C65 C 0.04648 0.27518 0.97196 0.0
C66 C 0.0523 0.25414 0.9748 0.0
C67 C 0.04849 0.28822 0.03297 0.0
C68 C 0.05608 0.27999 0.09537 0.0
C69 C 0.06194 0.2596 0.09815 0.0
C70 C 0.06024 0.24695 0.03846 0.0
N71 N 0.04293 0.30944 0.03362 0.0
H72 H 0.25917 0.04125 0.92205 0.0
H73 H 0.25454 0.07533 0.11843 0.0
H74 H 0.31105 0.07327 1.00682 0.0
H75 H 0.23848 0.04329 0.14298 0.0
C76 C 0.22692 0.04594 0.10311 0.0
C77 C 0.26585 0.05118 0.96198 0.0
C78 C 0.28644 0.05753 0.95562 0.0
C79 C 0.25418 0.0574 0.0218 0.0
C80 C 0.26327 0.07021 0.0731 0.0
C81 C 0.28373 0.07576 0.06872 0.0
C82 C 0.29498 0.06965 0.00945 0.0
N83 N 0.23377 0.05032 0.03311 0.0
H84 H 0.48724 0.26014 0.92624 0.0
H85 H 0.45614 0.25597 0.12544 0.0
H86 H 0.45683 0.31262 0.01456 0.0
H87 H 0.49604 0.24254 0.13006 0.0
C88 C 0.48887 0.23012 0.10038 0.0
C89 C 0.47743 0.26686 0.96611 0.0
C90 C 0.47184 0.28771 0.96212 0.0
C91 C 0.47154 0.25525 0.02527 0.0
C92 C 0.45993 0.26457 0.07887 0.0
C93 C 0.45467 0.28524 0.07583 0.0
C94 C 0.46002 0.29636 0.01607 0.0
N95 N 0.47892 0.235 0.03575 0.0
Tb96 Tb 0.03498 0.01891 0.68403 0.0
C97 C 0.96412 0.99146 0.51909 0.0
C98 C 0.97822 0.96763 0.4337 0.0
C99 C 0.94432 0.96198 0.4793 0.0
C100 C 0.98012 0.98524 0.47746 0.0
C101 C 0.94575 0.98025 0.51871 0.0
C102 C 0.9605 0.95575 0.43643 0.0
C103 C 0.93023 1.00782 0.5846 0.0
N104 N 0.9658 1.00958 0.55414 0.0
C105 C 0.94855 0.01856 0.58168 0.0
C106 C 0.92895 0.98834 0.55439 0.0
Tb107 Tb 0.99736 0.02549 0.55133 0.0
N108 N 0.99703 0.99714 0.47626 0.0
C109 C 0.0117 0.99306 0.42657 0.0
C110 C 0.99389 0.9628 0.38684 0.0
C111 C 1.01051 0.97583 0.38231 0.0
H112 H 0.94909 0.03396 0.60329 0.0
H113 H 0.0225 0.9726 0.34474 0.0
H114 H 0.95887 0.94213 0.4037 0.0
H115 H 0.91704 0.01473 0.60922 0.0
H116 H 0.02467 1.00261 0.41991 0.0
H117 H 1.00291 0.06821 0.88691 0.0
H118 H 0.99303 0.94942 0.35259 0.0
H119 H 0.08239 1.01307 0.62574 0.0
H120 H 1.00154 0.04283 0.79215 0.0
H121 H 0.11599 0.02849 0.64952 0.0
H122 H 0.93044 0.95307 0.479 0.0
H123 H 0.03536 0.08538 0.91677 0.0
H124 H 0.07217 0.09067 0.89044 0.0
H125 H 0.91463 0.98017 0.5555 0.0
H126 H 0.10269 0.08048 0.82413 0.0
N127 N 0.03295 0.04508 0.76544 0.0
C128 C 0.01586 0.04994 0.80318 0.0
C129 C 0.03479 0.07433 0.87373 0.0
C130 C 0.05224 0.06945 0.83518 0.0
C131 C 0.01651 0.06461 0.85736 0.0
C132 C 0.05091 0.0544 0.78125 0.0
H133 H 0.11917 0.05736 0.73453 0.0
N134 N 0.06642 0.03383 0.69351 0.0
C135 C 0.10264 0.0345 0.67583 0.0
C136 C 0.0681 0.04877 0.74359 0.0
C137 C 0.08357 0.02587 0.66239 0.0
C138 C 0.10435 0.05078 0.72379 0.0
C139 C 0.08706 0.05786 0.75934 0.0
O140 O 0.05642 0.99672 0.70981 0.0
O141 O 0.01394 1.00304 0.61217 0.0
O142 O 0.98142 0.02329 0.65251 0.0
O143 O 1.0053 1.01039 0.73048 0.0
O144 O 0.04343 0.99307 0.61504 0.0
O145 O 0.03513 1.0082 0.78821 0.0
O146 O 0.97459 0.03899 0.49002 0.0
O147 O 0.01758 0.04094 0.6253 0.0
O148 O 0.04963 0.03568 0.59825 0.0
O149 O 0.02845 0.02645 0.50549 0.0
O150 O 0.99034 0.05443 0.60729 0.0
O151 O 1.00602 0.04346 0.46555 0.0
C152 C 0.02581 0.98932 0.58857 0.0
C153 C 0.05127 0.97629 0.80797 0.0
C154 C 0.03752 0.94257 0.82907 0.0
C155 C 0.03539 0.96213 0.80059 0.0
C156 C 0.0555 0.93748 0.86505 0.0
C157 C 0.06907 0.971 0.84399 0.0
C158 C 0.07116 0.95166 0.87246 0.0
C159 C 0.98634 0.01499 0.71303 0.0
C160 C 0.05067 0.99627 0.77536 0.0
C161 C 0.08829 0.07323 0.81162 0.0
C162 C 0.07093 0.07899 0.84954 0.0
C163 C 1.00719 0.05674 0.64112 0.0
C164 C 0.98379 0.07118 0.44614 0.0
C165 C 0.99974 0.08415 0.42692 0.0
C166 C 0.99635 0.10508 0.41905 0.0
C167 C 0.97684 0.11313 0.43062 0.0
C168 C 0.9643 0.07942 0.45751 0.0
C169 C 0.96091 0.10032 0.45002 0.0
C170 C 0.04618 0.03328 0.52985 0.0
C171 C 0.98748 0.0491 0.45257 0.0
H172 H 0.0217 0.96618 0.77212 0.0
H173 H 0.05732 0.9226 0.88848 0.0
H174 H 0.08148 0.98181 0.84942 0.0
H175 H 0.08492 0.94764 0.90026 0.0
H176 H 0.01477 0.07798 0.41682 0.0
H177 H 0.97397 0.12932 0.42507 0.0
H178 H 0.95166 0.06974 0.472 0.0
H179 H 0.94591 0.10659 0.45901 0.0
Tb180 Tb 0.52401 0.04029 0.68958 0.0
C181 C 0.5449 0.97583 0.50088 0.0
C182 C 0.56034 0.99364 0.40394 0.0
C183 C 0.57365 0.96072 0.43812 0.0
C184 C 0.5458 0.9927 0.45857 0.0
C185 C 0.55853 0.95938 0.4899 0.0
C186 C 0.57446 0.97778 0.39486 0.0
C187 C 0.53939 0.94006 0.57368 0.0
N188 N 0.52985 0.97491 0.54947 0.0
C189 C 0.52607 0.95654 0.58143 0.0
C190 C 0.556 0.94165 0.5289 0.0
Tb191 Tb 0.50925 1.00365 0.56062 0.0
N192 N 0.53203 1.00788 0.46917 0.0
C193 C 0.53113 0.02361 0.42228 0.0
C194 C 0.55994 1.01023 0.35882 0.0
C195 C 0.5452 0.02519 0.36772 0.0
H196 H 0.51261 0.95424 0.613 0.0
H197 H 0.54431 0.03773 0.33147 0.0
H198 H 0.58575 0.97831 0.35346 0.0
H199 H 0.53654 0.92597 0.60115 0.0
H200 H 0.51933 0.03481 0.42369 0.0
H201 H 0.48407 1.00486 0.90669 0.0
H202 H 0.57038 1.01119 0.31528 0.0
H203 H 0.52579 0.08974 0.64459 0.0
H204 H 0.50909 1.00688 0.81413 0.0
H205 H 0.50706 0.12126 0.6698 0.0
H206 H 0.58431 0.94834 0.42943 0.0
H207 H 0.46249 0.03465 0.93529 0.0
H208 H 0.45534 0.07148 0.91813 0.0
H209 H 0.56614 0.92874 0.52203 0.0
H210 H 0.46184 0.10326 0.85387 0.0
N211 N 0.50069 0.03665 0.77976 0.0
C212 C 0.4993 0.01967 0.82094 0.0
C213 C 0.47311 0.03538 0.89178 0.0
C214 C 0.47555 0.05325 0.85357 0.0
C215 C 0.48521 0.01856 0.87574 0.0
C216 C 0.48944 0.05338 0.7968 0.0
H217 H 0.47958 0.12151 0.75832 0.0
N218 N 0.50704 0.07086 0.70891 0.0
C219 C 0.50257 0.10721 0.69478 0.0
C220 C 0.49268 0.07104 0.75994 0.0
C221 C 0.5128 0.08903 0.67923 0.0
C222 C 0.48715 0.10729 0.74476 0.0
C223 C 0.48248 0.08924 0.77958 0.0
O224 O 0.54255 0.06385 0.72903 0.0
O225 O 0.53551 0.01869 0.60997 0.0
O226 O 0.51318 0.98729 0.65894 0.0
O227 O 0.53372 1.00946 0.7232 0.0
O228 O 0.54719 0.04795 0.61274 0.0
O229 O 0.54408 0.034 0.77311 0.0
O230 O 0.49252 0.97809 0.52583 0.0
O231 O 0.49812 0.026 0.63783 0.0
O232 O 0.51711 0.05742 0.59397 0.0
O233 O 0.49949 0.03408 0.52344 0.0
O234 O 0.48357 0.99844 0.63194 0.0
O235 O 0.49053 1.00655 0.47159 0.0
C236 C 0.54891 0.03026 0.58268 0.0
C237 C 0.57492 0.05245 0.76086 0.0
C238 C 0.60794 0.03562 0.76355 0.0
C239 C 0.58678 0.03502 0.77266 0.0
C240 C 0.6171 0.05383 0.7411 0.0
C241 C 0.58443 0.07055 0.73924 0.0
C242 C 0.60537 0.07113 0.72888 0.0
C243 C 0.52607 0.99103 0.71048 0.0
C244 C 0.55268 0.05187 0.76961 0.0
C245 C 0.46887 0.0892 0.83619 0.0
C246 C 0.4653 0.07121 0.87285 0.0
C247 C 0.48325 0.01608 0.6629 0.0
C248 C 0.46058 0.98652 0.47935 0.0
C249 C 0.44823 1.00355 0.46682 0.0
C250 C 0.42699 1.00158 0.4642 0.0
C251 C 0.41818 0.98241 0.47736 0.0
C252 C 0.4515 0.96752 0.49194 0.0
C253 C 0.4304 0.96556 0.4917 0.0
C254 C 0.5061 0.05287 0.53768 0.0
C255 C 0.48289 0.98834 0.47837 0.0
H256 H 0.57958 0.02098 0.7891 0.0
H257 H 0.63343 0.05495 0.73512 0.0
H258 H 0.57566 0.08426 0.73004 0.0
H259 H 0.61257 0.08513 0.71228 0.0
H260 H 0.45514 0.01833 0.45835 0.0
H261 H 0.40189 0.98021 0.47446 0.0
H262 H 0.46073 0.95415 0.50173 0.0
H263 H 0.4235 0.95085 0.50121 0.0
Tb264 Tb 0.53222 0.51327 0.5667 0.0
C265 C 0.44627 0.51733 0.67934 0.0
C266 C 0.4279 0.53394 0.58576 0.0
C267 C 0.41058 0.50939 0.65917 0.0
C268 C 0.44607 0.53073 0.62387 0.0
C269 C 0.42838 0.50697 0.69901 0.0
C270 C 0.41035 0.52282 0.60253 0.0
C271 C 0.44634 0.49419 0.8002 0.0
N272 N 0.46369 0.51535 0.71667 0.0
C273 C 0.46363 0.5048 0.77883 0.0
C274 C 0.42871 0.49498 0.75944 0.0
Tb275 Tb 0.49171 0.53237 0.6747 0.0
N276 N 0.46343 0.54105 0.60858 0.0
C277 C 0.46285 0.55608 0.55887 0.0
C278 C 0.42776 0.54843 0.53256 0.0
C279 C 0.44523 0.55974 0.51986 0.0
H280 H 0.47725 0.50414 0.81069 0.0
H281 H 0.44523 0.57123 0.47942 0.0
H282 H 0.3964 0.52487 0.57305 0.0
H283 H 0.44661 0.48543 0.84813 0.0
H284 H 0.47587 0.56503 0.54573 0.0
H285 H 0.5835 0.47518 0.74611 0.0
H286 H 0.41417 0.55126 0.50194 0.0
H287 H 0.54136 0.54277 0.43004 0.0
H288 H 0.55058 0.4831 0.69426 0.0
H289 H 0.57082 0.5594 0.37498 0.0
H290 H 0.39678 0.50134 0.67282 0.0
H291 H 0.61462 0.49212 0.70343 0.0
H292 H 0.63085 0.5163 0.61876 0.0
H293 H 0.41528 0.48681 0.77622 0.0
H294 H 0.62742 0.53937 0.51815 0.0
N295 N 0.56225 0.50488 0.62153 0.0
C296 C 0.56376 0.49066 0.6736 0.0
C297 C 0.60008 0.49566 0.67972 0.0
C298 C 0.59865 0.50953 0.62465 0.0
C299 C 0.58256 0.48607 0.70386 0.0
C300 C 0.57933 0.51369 0.59596 0.0
H301 H 0.60513 0.55537 0.42642 0.0
N302 N 0.55864 0.52975 0.51316 0.0
C303 C 0.5729 0.55032 0.42162 0.0
C304 C 0.57743 0.52669 0.54004 0.0
C305 C 0.55624 0.54082 0.45299 0.0
C306 C 0.59222 0.54804 0.45087 0.0
C307 C 0.59473 0.5359 0.51029 0.0
O308 O 0.53302 0.50223 0.462 0.0
O309 O 0.49951 0.51734 0.57666 0.0
O310 O 0.48992 0.49885 0.67855 0.0
O311 O 0.52082 0.48807 0.63134 0.0
O312 O 0.51231 0.52412 0.48229 0.0
O313 O 0.5361 0.4819 0.55094 0.0
O314 O 0.47745 0.5443 0.76562 0.0
O315 O 0.52396 0.52697 0.66658 0.0
O316 O 0.53719 0.54635 0.57883 0.0
O317 O 0.50408 0.55643 0.60533 0.0
O318 O 0.511 0.52114 0.761 0.0
O319 O 0.49879 0.56234 0.70893 0.0
C320 C 0.49528 0.52269 0.51464 0.0
C321 C 0.54948 0.47056 0.44299 0.0
C322 C 0.55235 0.44022 0.3693 0.0
C323 C 0.54053 0.45495 0.40382 0.0
C324 C 0.5736 0.44124 0.37434 0.0
C325 C 0.57069 0.47195 0.44766 0.0
C326 C 0.58273 0.45728 0.41289 0.0
C327 C 0.50356 0.48457 0.66469 0.0
C328 C 0.5356 0.48354 0.48268 0.0
C329 C 0.61395 0.53232 0.53984 0.0
C330 C 0.61591 0.51916 0.59701 0.0
C331 C 0.52814 0.52175 0.72873 0.0
C332 C 0.50007 0.56476 0.83251 0.0
C333 C 0.50994 0.58354 0.84022 0.0
C334 C 0.52158 0.58801 0.90056 0.0
C335 C 0.52371 0.57315 0.95273 0.0
C336 C 0.50201 0.55014 0.88575 0.0
C337 C 0.51394 0.55431 0.94517 0.0
C338 C 0.52279 0.5605 0.58253 0.0
C339 C 0.48867 0.56052 0.76712 0.0
H340 H 0.52406 0.45375 0.40271 0.0
H341 H 0.58301 0.42977 0.34873 0.0
H342 H 0.57781 0.48395 0.47879 0.0
H343 H 0.59912 0.45814 0.41676 0.0
H344 H 0.50869 0.59466 0.79859 0.0
H345 H 0.53253 0.57625 0.99995 0.0
H346 H 0.49453 0.53544 0.8813 0.0
H347 H 0.51552 0.54295 0.98567 0.0
Tb348 Tb 0.02419 0.54353 0.54736 0.0
C349 C 0.02227 0.46128 0.67492 0.0
C350 C 1.00094 0.44307 0.59141 0.0
C351 C 0.02677 0.4247 0.65592 0.0
C352 C 1.00701 0.46145 0.62545 0.0
C353 C 0.03193 0.44277 0.69246 0.0
C354 C 0.01139 0.42487 0.60503 0.0
C355 C 0.04791 0.46037 0.79024 0.0
N356 N 0.02592 0.47877 0.71172 0.0
C357 C 0.03744 0.4781 0.77213 0.0
C358 C 0.04544 0.44268 0.74935 0.0
Tb359 Tb 1.00885 0.50772 0.67648 0.0
N360 N 0.99678 0.47919 0.61598 0.0
C361 C 0.97918 0.47896 0.57711 0.0
C362 C 0.98373 0.44321 0.54838 0.0
C363 C 0.97253 0.46113 0.5427 0.0
H364 H 0.03916 0.49156 0.80533 0.0
H365 H 0.95883 0.4613 0.51119 0.0
H366 H 1.00699 0.41066 0.57918 0.0
H367 H 0.05764 0.46031 0.8363 0.0
H368 H 0.96995 0.49228 0.57146 0.0
H369 H 0.0762 0.58762 0.7129 0.0
H370 H 0.97853 0.42943 0.52156 0.0
H371 H 0.98949 0.56145 0.43272 0.0
H372 H 0.06447 0.55758 0.64942 0.0
H373 H 0.96916 0.59243 0.41767 0.0
H374 H 0.03383 0.41033 0.66926 0.0
H375 H 0.05651 0.6195 0.70939 0.0
H376 H 0.02663 0.63885 0.66325 0.0
H377 H 0.05319 0.42881 0.76432 0.0
H378 H 0.99664 0.63981 0.58678 0.0
N379 N 0.03715 0.57127 0.60991 0.0
C380 C 0.05514 0.57093 0.64669 0.0
C381 C 0.05099 0.60619 0.68144 0.0
C382 C 0.03315 0.60691 0.64186 0.0
C383 C 0.06215 0.58821 0.68325 0.0
C384 C 0.02667 0.58906 0.60562 0.0
H385 H 0.97505 0.62261 0.4949 0.0
N386 N 1.00525 0.57259 0.52442 0.0
C387 C 0.9803 0.59179 0.4596 0.0
C388 C 1.00991 0.58962 0.56245 0.0
C389 C 0.99173 0.57409 0.4693 0.0
C390 C 0.98367 0.60875 0.50318 0.0
C391 C 0.99912 0.60808 0.55363 0.0
O392 O 0.02668 0.55045 0.43999 0.0
O393 O 0.02201 0.51125 0.5723 0.0
O394 O 0.0421 0.50699 0.67987 0.0
O395 O 0.05208 0.52949 0.59227 0.0
O396 O 0.01386 0.51979 0.47308 0.0
O397 O 0.05326 0.54818 0.50489 0.0
O398 O 1.00568 0.5074 0.78714 0.0
O399 O 1.01121 0.54022 0.65219 0.0
O400 O 0.99147 0.53932 0.53246 0.0
O401 O 0.98105 0.52159 0.6312 0.0
O402 O 0.02192 0.53057 0.74797 0.0
O403 O 0.97969 0.5017 0.71748 0.0
C404 C 0.01603 0.50425 0.51288 0.0
C405 C 0.05523 0.53532 0.38773 0.0
C406 C 0.07931 0.5085 0.35557 0.0
C407 C 0.07068 0.52164 0.40623 0.0
C408 C 0.07169 0.50857 0.28617 0.0
C409 C 0.04796 0.53532 0.31814 0.0
C410 C 0.05603 0.52185 0.26786 0.0
C411 C 0.05627 0.51689 0.64473 0.0
C412 C 0.04632 0.54927 0.44078 0.0
C413 C 1.00482 0.62557 0.59244 0.0
C414 C 0.02191 0.62501 0.6361 0.0
C415 C 0.01866 0.54646 0.71075 0.0
C416 C 0.97353 0.50057 0.8432 0.0
C417 C 0.95575 0.51209 0.84885 0.0
C418 C 0.94482 0.51257 0.91211 0.0
C419 C 0.95134 0.5007 0.96891 0.0
C420 C 0.98005 0.48878 0.90003 0.0
C421 C 0.96878 0.48865 0.96243 0.0
C422 C 0.97713 0.53159 0.57242 0.0
C423 C 0.98651 0.50322 0.78181 0.0
H424 H 0.07619 0.52131 0.45994 0.0
H425 H 0.0783 0.49893 0.24534 0.0
H426 H 0.03598 0.5457 0.30276 0.0
H427 H 0.05039 0.52195 0.21423 0.0
H428 H 0.95111 0.52168 0.80551 0.0
H429 H 0.94297 0.5008 0.01808 0.0
H430 H 0.99397 0.48 0.8965 0.0
H431 H 0.97382 0.47956 1.00631 0.0
H432 H 0.21742 0.06399 0.22658 0.0
H433 H 0.18473 0.06521 0.2867 0.0
H434 H 0.15618 0.03622 0.10649 0.0
H435 H 0.18923 0.03577 0.04437 0.0
H436 H 0.12948 0.06392 0.17558 0.0
H437 H 0.17128 1.00732 0.24301 0.0
H438 H 0.20299 0.99089 0.28208 0.0
H439 H 0.20226 0.02709 0.47287 0.0
H440 H 0.17068 0.04393 0.4345 0.0
H441 H 0.04752 0.02554 0.38605 0.0
H442 H 0.07612 0.02952 0.30608 0.0
H443 H 0.11144 0.05664 0.47467 0.0
H444 H 0.08278 0.05269 0.55502 0.0
H445 H 0.1336 0.02868 0.40503 0.0
H446 H 0.09038 0.08419 0.33939 0.0
H447 H 0.05708 0.09798 0.3044 0.0
H448 H 0.05933 0.06294 0.11128 0.0
H449 H 0.09241 0.04848 0.14598 0.0
C450 C 0.2041 0.05831 0.19888 0.0
C451 C 0.20596 0.04972 0.13079 0.0
C452 C 0.18536 0.05892 0.23356 0.0
C453 C 0.16789 0.05034 0.20229 0.0
C454 C 0.16937 0.04287 0.13222 0.0
C455 C 0.18826 0.04262 0.09659 0.0
C456 C 0.14904 0.04751 0.24617 0.0
C457 C 0.13033 0.05598 0.22524 0.0
C458 C 0.14994 0.03738 0.31177 0.0
C459 C 0.1687 0.02697 0.33566 0.0
C460 C 0.17793 1.01183 0.29316 0.0
C461 C 0.19588 1.00245 0.31518 0.0
C462 C 0.20465 1.00797 0.37986 0.0
C463 C 0.19545 0.02283 0.42278 0.0
C464 C 0.17751 0.03228 0.40097 0.0
C465 C 0.06134 0.03215 0.40679 0.0
C466 C 0.06295 0.0378 0.47865 0.0
C467 C 0.07776 0.03463 0.36037 0.0
C468 C 0.09618 0.04326 0.38394 0.0
C469 C 0.09759 0.04963 0.45498 0.0
C470 C 0.08116 0.04716 0.50134 0.0
C471 C 0.1141 0.04533 0.33532 0.0
C472 C 0.13268 0.03664 0.35538 0.0
C473 C 0.11293 0.05517 0.26915 0.0
C474 C 0.0938 0.06503 0.24573 0.0
C475 C 0.08372 0.0793 0.28967 0.0
C476 C 0.06482 0.08715 0.27012 0.0
C477 C 0.05598 0.08114 0.20609 0.0
C478 C 0.06613 0.06745 0.16114 0.0
C479 C 0.08497 0.05943 0.18071 0.0
H480 H 0.04138 0.0873 0.19089 0.0
H481 H 0.21856 1.00071 0.39677 0.0
H482 H 0.46476 0.19597 0.07068 0.0
H483 H 0.46476 0.1633 0.13415 0.0
H484 H 0.51338 0.18558 0.26724 0.0
H485 H 0.51326 0.21792 0.20508 0.0
H486 H 0.52074 0.14682 0.21993 0.0
H487 H 0.46448 0.18465 0.32381 0.0
H488 H 0.4313 0.20211 0.3226 0.0
H489 H 0.40261 0.14708 0.24649 0.0
H490 H 0.43571 0.12937 0.24622 0.0
H491 H 0.52702 0.08857 0.52231 0.0
H492 H 0.52115 0.11575 0.43895 0.0
H493 H 0.47083 0.08204 0.3491 0.0
H494 H 0.47622 0.05482 0.43527 0.0
H495 H 0.46173 0.12259 0.3581 0.0
H496 H 0.5161 0.08407 0.25702 0.0
H497 H 0.54881 0.06571 0.25314 0.0
H498 H 0.58008 0.12033 0.31917 0.0
H499 H 0.54758 0.13914 0.32232 0.0
C500 C 0.47556 0.19374 0.11296 0.0
C501 C 0.48916 0.20946 0.13248 0.0
C502 C 0.47545 0.17513 0.14962 0.0
C503 C 0.48905 0.17191 0.2059 0.0
C504 C 0.50278 0.18755 0.22413 0.0
C505 C 0.50271 0.20607 0.1884 0.0
C506 C 0.48943 0.15244 0.24651 0.0
C507 C 0.50781 0.14161 0.25025 0.0
C508 C 0.47244 0.14506 0.28443 0.0
C509 C 0.45262 0.15578 0.28397 0.0
C510 C 0.45114 0.17634 0.30603 0.0
C511 C 0.43234 0.18627 0.30579 0.0
C512 C 0.41487 0.17574 0.2842 0.0
C513 C 0.41616 0.15524 0.26298 0.0
C514 C 0.43494 0.14525 0.263 0.0
C515 C 0.51438 0.08702 0.48615 0.0
C516 C 0.50189 0.06956 0.48671 0.0
C517 C 0.51123 0.10252 0.43738 0.0
C518 C 0.49571 0.10096 0.38664 0.0
C519 C 0.48296 0.08367 0.38743 0.0
C520 C 0.4861 0.06807 0.43662 0.0
C521 C 0.49323 0.11739 0.33297 0.0
C522 C 0.47453 0.12761 0.32682 0.0
C523 C 0.50984 0.12415 0.29197 0.0
C524 C 0.52941 0.11295 0.29041 0.0
C525 C 0.52994 0.09213 0.27108 0.0
C526 C 0.54843 0.08165 0.26895 0.0
C527 C 0.56646 0.09179 0.28661 0.0
C528 C 0.56608 0.11249 0.3057 0.0
C529 C 0.54765 0.1231 0.30727 0.0
H530 H 0.58072 0.08364 0.28521 0.0
H531 H 0.40033 0.18345 0.28414 0.0
H532 H 0.31917 0.48636 0.22067 0.0
H533 H 0.35058 0.48476 0.28936 0.0
H534 H 0.38316 0.51284 0.11906 0.0
H535 H 0.35165 0.51348 0.04873 0.0
H536 H 0.40784 0.48704 0.18321 0.0
H537 H 0.36305 0.54041 0.26736 0.0
H538 H 0.33083 0.55452 0.31313 0.0
H539 H 0.33499 0.51601 0.4938 0.0
H540 H 0.36709 0.50146 0.4486 0.0
H541 H 0.48457 0.53813 0.38856 0.0
H542 H 0.45459 0.53037 0.31632 0.0
H543 H 0.43294 0.48936 0.47511 0.0
H544 H 0.46363 0.49634 0.5463 0.0
H545 H 0.40299 0.51956 0.42078 0.0
H546 H 0.44805 0.46751 0.34278 0.0
H547 H 0.48009 0.45252 0.29934 0.0
H548 H 0.47566 0.48769 0.11073 0.0
H549 H 0.44375 0.50323 0.15373 0.0
C550 C 0.33317 0.49161 0.197 0.0
C551 C 0.33297 0.49985 0.12898 0.0
C552 C 0.35114 0.49097 0.2368 0.0
C553 C 0.36933 0.49929 0.21084 0.0
C554 C 0.36941 0.50644 0.141 0.0
C555 C 0.35141 0.50671 0.10046 0.0
C556 C 0.38771 0.50163 0.25797 0.0
C557 C 0.40675 0.49439 0.23472 0.0
C558 C 0.38649 0.51072 0.32652 0.0
C559 C 0.36735 0.51968 0.35417 0.0
C560 C 0.35703 0.53486 0.31663 0.0
C561 C 0.33879 0.54294 0.34249 0.0
C562 C 0.33084 0.53611 0.40621 0.0
C563 C 0.34115 0.52125 0.44437 0.0
C564 C 0.35936 0.51309 0.41868 0.0
C565 C 0.47342 0.52745 0.4082 0.0
C566 C 0.47621 0.51833 0.47423 0.0
C567 C 0.45629 0.52299 0.3667 0.0
C568 C 0.4414 0.50932 0.3901 0.0
C569 C 0.44415 0.50003 0.45593 0.0
C570 C 0.4616 0.50417 0.49691 0.0
C571 C 0.42296 0.50511 0.34568 0.0
C572 C 0.404 0.51214 0.36934 0.0
C573 C 0.42427 0.49581 0.27782 0.0
C574 C 0.4436 0.48674 0.25191 0.0
C575 C 0.45403 0.47227 0.29244 0.0
C576 C 0.47214 0.46361 0.2678 0.0
C577 C 0.47993 0.46917 0.20236 0.0
C578 C 0.46962 0.48342 0.16147 0.0
C579 C 0.45151 0.49216 0.18596 0.0
H580 H 0.49393 0.4624 0.18328 0.0
H581 H 0.31671 0.54238 0.42611 0.0
H582 H 1.0013 0.34043 0.1501 0.0
H583 H 1.00351 0.3729 0.21499 0.0
H584 H 0.06774 0.37571 0.1723 0.0
H585 H 0.06539 0.34307 0.10499 0.0
H586 H 0.05844 0.38499 0.31604 0.0
H587 H 0.03929 0.409 0.0929 0.0
H588 H 0.02031 0.41108 0.98112 0.0
H589 H 0.96523 0.42321 0.09544 0.0
H590 H 0.98384 0.42095 0.20805 0.0
H591 H 0.05182 0.48187 0.51121 0.0
H592 H 0.06014 0.45316 0.43277 0.0
H593 H 0.99766 0.4513 0.36164 0.0
H594 H 0.99096 0.48227 0.42895 0.0
H595 H 0.01375 0.44326 0.25951 0.0
H596 H 0.03716 0.40738 0.48851 0.0
H597 H 0.06078 0.40479 0.58995 0.0
H598 H 0.11125 0.41794 0.4554 0.0
H599 H 0.08815 0.4201 0.35318 0.0
C600 C 0.01586 0.34814 0.15307 0.0
C601 C 0.03305 0.33926 0.12094 0.0
C602 C 0.01713 0.36675 0.19067 0.0
C603 C 0.03577 0.37703 0.19898 0.0
C604 C 0.05312 0.36824 0.16684 0.0
C605 C 0.05174 0.34967 0.12755 0.0
C606 C 0.03669 0.39663 0.24227 0.0
C607 C 0.0486 0.39775 0.30381 0.0
C608 C 0.02433 0.41364 0.22641 0.0
C609 C 0.01294 0.41463 0.15896 0.0
C610 C 0.02309 0.4119 0.09426 0.0
C611 C 0.0124 0.41317 0.03073 0.0
C612 C 0.99157 0.41723 0.03118 0.0
C613 C 0.98137 0.42004 0.09519 0.0
C614 C 0.99199 0.41879 0.15888 0.0
C615 C 0.03983 0.47495 0.47972 0.0
C616 C 0.02035 0.48381 0.47935 0.0
C617 C 0.04453 0.45811 0.43472 0.0
C618 C 0.02956 0.44885 0.39063 0.0
C619 C 1.00996 0.45767 0.39289 0.0
C620 C 1.0058 0.47525 0.43354 0.0
C621 C 0.03375 0.43106 0.33908 0.0
C622 C 0.02307 0.43038 0.27422 0.0
C623 C 0.04743 0.41459 0.35173 0.0
C624 C 0.06095 0.41408 0.41375 0.0
C625 C 0.05327 0.40986 0.48095 0.0
C626 C 0.06654 0.40844 0.53839 0.0
C627 C 0.0874 0.41136 0.52919 0.0
C628 C 0.0951 0.41571 0.46251 0.0
C629 C 0.08196 0.41691 0.40479 0.0
H630 H 0.09763 0.41007 0.57361 0.0
H631 H 0.98333 0.41825 0.98193 0.0
H632 H 0.82653 0.01914 0.13236 0.0
H633 H 0.85577 0.02631 0.05522 0.0
H634 H 0.87569 0.96388 0.07403 0.0
H635 H 0.84696 0.95688 0.15101 0.0
H636 H 0.90766 0.98715 0.07992 0.0
H637 H 0.8498 0.98251 0.9244 0.0
H638 H 0.81579 0.99198 0.881 0.0
H639 H 0.83623 0.05345 0.84863 0.0
H640 H 0.8703 0.04439 0.89272 0.0
H641 H 0.97929 0.98203 0.79796 0.0
H642 H 0.95069 0.97674 0.87824 0.0
H643 H 0.92776 0.03672 0.8297 0.0
H644 H 0.9553 0.04106 0.74493 0.0
H645 H 0.89734 0.01576 0.84222 0.0
H646 H 0.9558 0.02015 0.99853 0.0
H647 H 0.98983 1.00986 0.03968 0.0
H648 H 0.96844 0.94862 0.06996 0.0
H649 H 0.93432 0.95852 0.02855 0.0
C650 C 0.83728 1.00705 0.12055 0.0
C651 C 0.83439 0.98743 0.14824 0.0
C652 C 0.85397 1.01109 0.07588 0.0
C653 C 0.86808 0.9956 0.05765 0.0
C654 C 0.86527 0.9762 0.0868 0.0
C655 C 0.84871 0.97219 0.13096 0.0
C656 C 0.88557 0.99912 0.00766 0.0
C657 C 0.90533 0.99334 0.02782 0.0
C658 C 0.88291 1.00742 0.93963 0.0
C659 C 0.86252 1.01283 0.91257 0.0
C660 C 0.847 0.99808 0.90846 0.0
C661 C 0.82772 1.00337 0.88368 0.0
C662 C 0.82383 0.02332 0.86228 0.0
C663 C 0.83925 0.03801 0.86536 0.0
C664 C 0.85855 0.03281 0.89019 0.0
C665 C 0.96815 0.99408 0.80479 0.0
C666 C 0.96967 1.01202 0.76539 0.0
C667 C 0.95179 0.99117 0.85147 0.0
C668 C 0.937 1.00655 0.86276 0.0
C669 C 0.9387 0.02449 0.82302 0.0
C670 C 0.9546 0.02706 0.77455 0.0
C671 C 0.91964 1.00402 0.91454 0.0
C672 C 0.89983 1.00986 0.89462 0.0
C673 C 0.92227 0.99581 0.98295 0.0
C674 C 0.94256 0.99006 0.01014 0.0
C675 C 0.95837 1.0045 0.01402 0.0
C676 C 0.97767 0.99873 0.03732 0.0
C677 C 0.98129 0.9786 0.05734 0.0
C678 C 0.9656 0.96421 0.05448 0.0
C679 C 0.94628 0.9699 0.03128 0.0
H680 H 0.99626 0.97415 0.07513 0.0
H681 H 0.8089 0.02739 0.84315 0.0
H682 H 0.52732 0.84057 0.15955 0.0
H683 H 0.51973 0.86805 0.07628 0.0
H684 H 0.58357 0.88274 0.06547 0.0
H685 H 0.59096 0.85604 0.14971 0.0
H686 H 0.5643 0.9164 0.07079 0.0
H687 H 0.55584 0.85464 0.93103 0.0
H688 H 0.54108 0.82092 0.90145 0.0
H689 H 0.48153 0.84756 0.89262 0.0
H690 H 0.49593 0.88141 0.923 0.0
H691 H 0.56239 0.98118 0.7727 0.0
H692 H 0.56914 0.95328 0.85419 0.0
H693 H 0.5057 0.93634 0.84671 0.0
H694 H 0.49952 0.96296 0.76052 0.0
H695 H 0.52422 0.90396 0.85298 0.0
H696 H 0.53331 0.96637 0.99224 0.0
H697 H 0.54891 0.99992 0.019 0.0
H698 H 0.60786 0.97196 0.02806 0.0
H699 H 0.59263 0.93832 1.00071 0.0
C700 C 0.53966 0.84977 0.13963 0.0
C701 C 0.55975 0.84617 0.16156 0.0
C702 C 0.53536 0.86542 0.09149 0.0
C703 C 0.55109 0.87754 0.06346 0.0
C704 C 0.57107 0.87385 0.08601 0.0
C705 C 0.5753 0.85847 0.13426 0.0
C706 C 0.54712 0.89409 0.01094 0.0
C707 C 0.55563 0.91358 0.02293 0.0
C708 C 0.53557 0.89079 0.94866 0.0
C709 C 0.52693 0.87049 0.93002 0.0
C710 C 0.53959 0.85327 0.92323 0.0
C711 C 0.53129 0.83415 0.90625 0.0
C712 C 0.51037 0.83209 0.89537 0.0
C713 C 0.49772 0.84917 0.90119 0.0
C714 C 0.50594 0.86833 0.91824 0.0
C715 C 0.54996 0.97141 0.78846 0.0
C716 C 0.53042 0.97429 0.76048 0.0
C717 C 0.55374 0.95553 0.83582 0.0
C718 C 0.53784 0.94281 0.85917 0.0
C719 C 0.51834 0.94575 0.83037 0.0
C720 C 0.51476 0.96107 0.78109 0.0
C721 C 0.54128 0.92641 0.91291 0.0
C722 C 0.53273 0.9069 0.9011 0.0
C723 C 0.55282 0.92971 0.97544 0.0
C724 C 0.56185 0.94987 0.99382 0.0
C725 C 0.5496 0.96741 0.99979 0.0
C726 C 0.55838 0.98644 0.01501 0.0
C727 C 0.57937 0.98809 0.02497 0.0
C728 C 0.59161 0.97069 0.02014 0.0
C729 C 0.58291 0.95163 1.00487 0.0
H730 H 0.58615 1.00284 0.0366 0.0
H731 H 0.50398 0.81727 0.88226 0.0
H732 H 0.67685 0.54495 0.18548 0.0
H733 H 0.64598 0.53757 0.1169 0.0
H734 H 0.67702 0.55494 0.92661 0.0
H735 H 0.70729 0.56352 0.99627 0.0
H736 H 0.64224 0.57036 0.9193 0.0
H737 H 0.66297 0.50144 0.97955 0.0
H738 H 0.67239 0.47434 0.06248 0.0
H739 H 0.61496 0.48108 0.16759 0.0
H740 H 0.6053 0.50835 0.0857 0.0
H741 H 0.56295 0.5418 0.6859 0.0
H742 H 0.59537 0.5439 0.74678 0.0
H743 H 0.56764 0.51833 0.93206 0.0
H744 H 0.53686 0.51146 0.86395 0.0
H745 H 0.60154 0.50707 0.94174 0.0
H746 H 0.58087 0.57672 0.88543 0.0
H747 H 0.56881 0.59984 0.79241 0.0
H748 H 0.6247 0.59103 0.67945 0.0
H749 H 0.63708 0.56809 0.77212 0.0
C750 C 0.6772 0.5466 0.12877 0.0
C751 C 0.69469 0.55423 0.096 0.0
C752 C 0.65947 0.54242 0.08922 0.0
C753 C 0.65894 0.54528 0.0155 0.0
C754 C 0.67673 0.5525 0.98296 0.0
C755 C 0.69421 0.55713 0.02271 0.0
C756 C 0.63986 0.54155 0.97245 0.0
C757 C 0.63346 0.55642 0.9242 0.0
C758 C 0.62781 0.52367 0.97871 0.0
C759 C 0.63348 0.507 0.02683 0.0
C760 C 0.65239 0.49716 0.02047 0.0
C761 C 0.65776 0.48178 0.06729 0.0
C762 C 0.6443 0.47602 0.12034 0.0
C763 C 0.62538 0.48556 0.1265 0.0
C764 C 0.61993 0.50095 0.07984 0.0
C765 C 0.56411 0.53566 0.7383 0.0
C766 C 0.54765 0.52523 0.76797 0.0
C767 C 0.58258 0.53776 0.77499 0.0
C768 C 0.58435 0.53213 0.84639 0.0
C769 C 0.5673 0.52275 0.87731 0.0
C770 C 0.54945 0.519 0.83837 0.0
C771 C 0.60359 0.536 0.88919 0.0
C772 C 0.61009 0.52116 0.93735 0.0
C773 C 0.61557 0.55405 0.88359 0.0
C774 C 0.60981 0.5707 0.83552 0.0
C775 C 0.59074 0.58021 0.84168 0.0
C776 C 0.58377 0.59306 0.78865 0.0
C777 C 0.59584 0.59655 0.7295 0.0
C778 C 0.61528 0.58807 0.72491 0.0
C779 C 0.62235 0.57529 0.77796 0.0
H780 H 0.59019 0.60594 0.68736 0.0
H781 H 0.6485 0.46414 0.1566 0.0
H782 H 0.95026 0.70164 0.07226 0.0
H783 H 0.95877 0.67235 0.99753 0.0
H784 H 0.02078 0.67529 0.07123 0.0
H785 H 0.01231 0.7056 0.14417 0.0
H786 H 0.02274 0.66678 0.94333 0.0
H787 H 0.98209 0.6368 0.11974 0.0
H788 H 0.95284 0.63028 0.19731 0.0
H789 H 0.91525 0.61791 0.01644 0.0
H790 H 0.94403 0.62497 0.93778 0.0
H791 H 0.04181 0.56233 0.8157 0.0
H792 H 0.03609 0.59281 0.88876 0.0
H793 H 0.98273 0.60682 0.76725 0.0
H794 H 0.98815 0.57565 0.69461 0.0
H795 H 0.9779 0.60616 0.92089 0.0
H796 H 0.02259 0.6617 0.77766 0.0
H797 H 0.05475 0.67061 0.71854 0.0
H798 H 0.08742 0.63067 0.85585 0.0
H799 H 0.0555 0.62203 0.91666 0.0
C800 C 0.96574 0.69603 0.07294 0.0
C801 C 0.98054 0.706 0.11481 0.0
C802 C 0.97058 0.67901 0.03039 0.0
C803 C 0.99036 0.67089 0.02923 0.0
C804 C 1.00532 0.68094 0.0709 0.0
C805 C 1.00049 0.69831 0.11299 0.0
C806 C 0.99547 0.65269 0.98208 0.0
C807 C 0.01295 0.65346 0.93965 0.0
C808 C 0.98284 0.63506 0.97547 0.0
C809 C 0.96522 0.63166 0.02274 0.0
C810 C 0.9675 0.63301 0.09644 0.0
C811 C 0.95098 0.6292 0.14066 0.0
C812 C 0.93214 0.62382 0.11186 0.0
C813 C 0.92977 0.62226 0.03877 0.0
C814 C 0.94618 0.62618 0.99432 0.0
C815 C 0.02909 0.57214 0.80329 0.0
C816 C 0.01585 0.5668 0.74753 0.0
C817 C 0.02598 0.58983 0.84482 0.0
C818 C 1.00944 0.60285 0.83243 0.0
C819 C 0.99594 0.59744 0.77718 0.0
C820 C 0.99907 0.57962 0.73533 0.0
C821 C 1.00498 0.62048 0.8824 0.0
C822 C 0.98756 0.61956 0.9251 0.0
C823 C 0.01796 0.63767 0.89116 0.0
C824 C 0.03658 0.64047 0.84926 0.0
C825 C 0.03661 0.65453 0.79415 0.0
C826 C 0.05482 0.65979 0.76111 0.0
C827 C 0.07313 0.65116 0.78324 0.0
C828 C 0.07322 0.63722 0.83834 0.0
C829 C 0.05505 0.63204 0.87181 0.0
H830 H 0.08722 0.65523 0.75762 0.0
H831 H 0.91939 0.62077 0.14617 0.0
H832 H 0.03618 0.25423 0.2055 0.0
H833 H 0.03966 0.22903 0.29684 0.0
H834 H 0.1021 0.21867 0.23534 0.0
H835 H 0.09787 0.24297 0.13941 0.0
H836 H 0.08357 0.18608 0.22119 0.0
H837 H 0.08615 0.23121 0.41951 0.0
H838 H 0.07719 0.26151 0.49186 0.0
H839 H 0.01579 0.23996 0.50902 0.0
H840 H 0.02427 0.20967 0.43627 0.0
H841 H 0.03386 0.10855 0.47941 0.0
H842 H 0.06056 0.13331 0.44972 0.0
H843 H 0.02312 0.15596 0.28134 0.0
H844 H 0.99651 0.13151 0.31084 0.0
H845 H 0.04583 0.17892 0.44534 0.0
H846 H 0.04683 0.15308 0.17729 0.0
H847 H 0.05594 0.12631 0.08967 0.0
H848 H 0.11027 0.1131 0.20595 0.0
H849 H 0.10118 0.1395 0.29502 0.0
C850 C 0.0509 0.24722 0.21371 0.0
C851 C 0.06674 0.2503 0.16591 0.0
C852 C 0.05302 0.23293 0.26667 0.0
C853 C 0.07125 0.22194 0.27379 0.0
C854 C 0.08791 0.22694 0.23097 0.0
C855 C 0.08555 0.2408 0.1764 0.0
C856 C 0.07087 0.20225 0.31127 0.0
C857 C 0.07602 0.18466 0.27171 0.0
C858 C 0.06104 0.20009 0.37717 0.0
C859 C 0.05594 0.21805 0.42269 0.0
C860 C 0.07074 0.23292 0.43873 0.0
C861 C 0.06573 0.25011 0.4798 0.0
C862 C 0.04595 0.25263 0.50515 0.0
C863 C 0.03114 0.23794 0.48965 0.0
C864 C 0.03607 0.2207 0.44876 0.0
C865 C 0.03161 0.11859 0.43519 0.0
C866 C 0.01315 0.11845 0.39774 0.0
C867 C 0.04684 0.13254 0.41817 0.0
C868 C 0.04386 0.14606 0.36263 0.0
C869 C 0.02582 0.14524 0.32329 0.0
C870 C 1.01054 0.13155 0.34078 0.0
C871 C 0.05741 0.16357 0.3527 0.0
C872 C 0.0546 0.1806 0.39735 0.0
C873 C 0.06913 0.1654 0.29125 0.0
C874 C 0.07317 0.14792 0.24318 0.0
C875 C 0.06049 0.14416 0.18479 0.0
C876 C 0.06572 0.12918 0.13466 0.0
C877 C 0.08375 0.11812 0.14198 0.0
C878 C 0.09637 0.12174 0.20019 0.0
C879 C 0.09108 0.13655 0.25085 0.0
H880 H 0.08786 0.10665 0.10286 0.0
H881 H 0.04209 0.26599 0.5367 0.0
H882 H 0.27871 0.06577 0.20672 0.0
H883 H 0.30446 0.06927 0.29768 0.0
H884 H 0.33998 0.10766 0.16229 0.0
H885 H 0.31377 0.10493 0.07131 0.0
H886 H 0.35368 0.06667 0.18077 0.0
H887 H 0.33412 0.12433 0.32099 0.0
H888 H 0.31077 0.14621 0.39002 0.0
H889 H 0.30146 0.09784 0.5369 0.0
H890 H 0.32448 0.07553 0.46817 0.0
H891 H 0.43613 0.03071 0.36692 0.0
H892 H 0.41374 0.05663 0.32012 0.0
H893 H 0.36598 0.03712 0.45959 0.0
H894 H 0.38891 1.01217 0.51132 0.0
H895 H 0.36237 0.07633 0.43888 0.0
H896 H 0.3714 0.01683 0.29294 0.0
H897 H 0.38928 0.99056 0.22214 0.0
H898 H 0.41191 0.03679 0.08448 0.0
H899 H 0.39444 0.0634 0.15529 0.0
C900 C 0.29133 0.07602 0.19757 0.0
C901 C 0.29455 0.08453 0.13085 0.0
C902 C 0.30608 0.07804 0.25 0.0
C903 C 0.32422 0.08845 0.23608 0.0
C904 C 0.32606 0.09952 0.17373 0.0
C905 C 0.31117 0.09774 0.12157 0.0
C906 C 0.34268 0.08222 0.27409 0.0
C907 C 0.35606 0.06939 0.23682 0.0
C908 C 0.34492 0.08489 0.34767 0.0
C909 C 0.33099 0.09822 0.38915 0.0
C910 C 0.32696 0.11828 0.36767 0.0
C911 C 0.31381 0.13078 0.40683 0.0
C912 C 0.30463 0.12341 0.46777 0.0
C913 C 0.30859 0.10353 0.4897 0.0
C914 C 0.32172 0.09096 0.45071 0.0
C915 C 0.42114 0.03234 0.38975 0.0
C916 C 0.41422 0.01905 0.44225 0.0
C917 C 0.40827 0.04708 0.36225 0.0
C918 C 0.38806 0.04841 0.38504 0.0
C919 C 0.3815 0.03622 0.4408 0.0
C920 C 0.39452 0.02173 0.46952 0.0
C921 C 0.37319 0.06066 0.34547 0.0
C922 C 0.36044 0.07428 0.38241 0.0
C923 C 0.37085 0.05807 0.27164 0.0
C924 C 0.38192 0.04216 0.23023 0.0
C925 C 0.38042 0.02143 0.24818 0.0
C926 C 0.39044 1.00647 0.20793 0.0
C927 C 0.40181 1.01201 0.14907 0.0
C928 C 0.40318 0.03253 0.13031 0.0
C929 C 0.39325 0.04756 0.17054 0.0
H930 H 0.40949 1.0004 0.11782 0.0
H931 H 0.29446 0.13312 0.49804 0.0
H932 H 0.47072 0.28104 0.20688 0.0
H933 H 0.47644 0.30972 0.28584 0.0
H934 H 0.43297 0.34542 0.17032 0.0
H935 H 0.42692 0.31639 0.09073 0.0
H936 H 0.47164 0.35615 0.14357 0.0
H937 H 0.43263 0.34592 0.34992 0.0
H938 H 0.41779 0.32725 0.44922 0.0
H939 H 0.47741 0.31639 0.53263 0.0
H940 H 0.49268 0.33463 0.43317 0.0
H941 H 0.52209 0.44364 0.27431 0.0
H942 H 0.497 0.41764 0.24518 0.0
H943 H 0.53256 0.37265 0.35454 0.0
H944 H 0.55714 0.39931 0.38885 0.0
H945 H 0.49262 0.37084 0.39048 0.0
H946 H 0.52902 0.36614 0.16272 0.0
H947 H 0.54682 0.38311 0.06505 0.0
H948 H 0.49456 0.42084 0.02952 0.0
H949 H 0.4764 0.4038 0.12623 0.0
C950 C 0.46124 0.29442 0.20088 0.0
C951 C 0.44904 0.29681 0.14067 0.0
C952 C 0.46457 0.31096 0.24649 0.0
C953 C 0.45562 0.3299 0.23244 0.0
C954 C 0.44025 0.33097 0.18124 0.0
C955 C 0.43684 0.31437 0.13572 0.0
C956 C 0.46691 0.34857 0.25301 0.0
C957 C 0.47561 0.35974 0.19793 0.0
C958 C 0.47292 0.35265 0.32348 0.0
C959 C 0.46382 0.34161 0.38363 0.0
C960 C 0.44261 0.33941 0.38904 0.0
C961 C 0.43411 0.32891 0.44547 0.0
C962 C 0.44665 0.32061 0.49715 0.0
C963 C 0.46772 0.32282 0.49255 0.0
C964 C 0.4763 0.33327 0.43617 0.0
C965 C 0.52484 0.42808 0.29054 0.0
C966 C 0.54153 0.42337 0.33349 0.0
C967 C 0.51049 0.41325 0.27392 0.0
C968 C 0.51304 0.3932 0.29712 0.0
C969 C 0.53037 0.3881 0.33637 0.0
C970 C 0.54457 0.40316 0.35464 0.0
C971 C 0.49729 0.3778 0.2811 0.0
C972 C 0.48804 0.36738 0.33664 0.0
C973 C 0.49093 0.37402 0.21115 0.0
C974 C 0.50131 0.38355 0.15077 0.0
C975 C 0.52129 0.3779 0.13341 0.0
C976 C 0.53143 0.38752 0.07833 0.0
C977 C 0.52177 0.40295 0.04079 0.0
C978 C 0.50196 0.40877 0.05826 0.0
C979 C 0.49165 0.39898 0.11262 0.0
H980 H 0.52967 0.41046 0.99838 0.0
H981 H 0.44003 0.3125 0.5408 0.0
H982 H 0.23381 0.43979 0.13004 0.0
H983 H 0.2075 0.43815 0.22017 0.0
H984 H 0.23113 0.49301 0.31873 0.0
H985 H 0.25738 0.49493 0.2278 0.0
H986 H 0.20409 0.45829 0.40646 0.0
H987 H 0.20568 0.51036 0.22302 0.0
H988 H 0.2125 0.52284 0.10327 0.0
H989 H 0.17416 0.47581 0.01545 0.0
H990 H 0.16756 0.46273 0.13474 0.0
H991 H 0.11142 0.52034 0.43832 0.0
H992 H 0.14491 0.50469 0.44079 0.0
H993 H 0.12286 0.45447 0.3123 0.0
H994 H 0.08891 0.46959 0.31171 0.0
H995 H 0.15049 0.48616 0.25072 0.0
H996 H 0.14359 0.44005 0.44394 0.0
H997 H 0.13823 0.42823 0.56529 0.0
H998 H 0.1862 0.46756 0.63961 0.0
H999 H 0.19168 0.47981 0.51883 0.0
C1000 C 0.23407 0.45084 0.17319 0.0
C1001 C 0.24716 0.46776 0.1714 0.0
C1002 C 0.21914 0.44983 0.22481 0.0
C1003 C 0.2173 0.46567 0.2749 0.0
C1004 C 0.23246 0.48066 0.2803 0.0
C1005 C 0.2474 0.48176 0.22828 0.0
C1006 C 0.19706 0.4699 0.30385 0.0
C1007 C 0.19234 0.46462 0.37316 0.0
C1008 C 0.18191 0.47805 0.25963 0.0
C1009 C 0.18642 0.48537 0.18761 0.0
C1010 C 0.19899 0.50247 0.17807 0.0
C1011 C 0.20273 0.50972 0.11034 0.0
C1012 C 0.19374 0.50014 0.05181 0.0
C1013 C 0.18112 0.4832 0.06084 0.0
C1014 C 0.17742 0.47583 0.12847 0.0
C1015 C 0.11333 0.50546 0.41347 0.0
C1016 C 0.09765 0.49646 0.37294 0.0
C1017 C 0.13253 0.4965 0.41532 0.0
C1018 C 0.13627 0.47856 0.37641 0.0
C1019 C 0.12013 0.46834 0.3428 0.0
C1020 C 0.10086 0.47716 0.34152 0.0
C1021 C 0.15716 0.4742 0.35349 0.0
C1022 C 0.1621 0.47977 0.28461 0.0
C1023 C 0.17243 0.4669 0.39901 0.0
C1024 C 0.168 0.46088 0.47234 0.0
C1025 C 0.15277 0.44643 0.4863 0.0
C1026 C 0.14982 0.43953 0.5549 0.0
C1027 C 0.16205 0.44695 0.6099 0.0
C1028 C 0.17688 0.46169 0.59683 0.0
C1029 C 0.17991 0.4686 0.52832 0.0
H1030 H 0.16002 0.4413 0.66272 0.0
H1031 H 0.19661 0.50582 0.99951 0.0
H1032 H 0.97226 0.78316 0.0191 0.0
H1033 H 0.96998 0.80862 0.92865 0.0
H1034 H 0.93665 0.84837 0.06973 0.0
H1035 H 0.93742 0.82222 0.15999 0.0
H1036 H 0.93652 0.85421 0.89252 0.0
H1037 H 0.97912 0.85897 0.11771 0.0
H1038 H 0.99897 0.84163 0.20969 0.0
H1039 H 0.03217 0.8085 0.05025 0.0
H1040 H 0.01263 0.82587 0.95743 0.0
H1041 H 0.99761 0.94802 0.86373 0.0
H1042 H 0.97317 0.92069 0.88823 0.0
H1043 H 0.016 0.87594 0.80991 0.0
H1044 H 0.0405 0.90286 0.78799 0.0
H1045 H 1.00743 0.87388 0.95301 0.0
H1046 H 0.97277 0.87884 0.73123 0.0
H1047 H 0.95479 0.89787 0.63906 0.0
H1048 H 0.90709 0.91275 0.78542 0.0
H1049 H 0.925 0.89409 0.87892 0.0
C1050 C 0.96314 0.7966 0.02996 0.0
C1051 C 0.95575 0.80096 0.09818 0.0
C1052 C 0.96179 0.8112 0.97754 0.0
C1053 C 0.95354 0.83046 0.99322 0.0
C1054 C 0.94311 0.83356 0.05681 0.0
C1055 C 0.94398 0.81872 0.10887 0.0
C1056 C 0.96252 0.84819 0.95815 0.0
C1057 C 0.95192 0.85874 0.90582 0.0
C1058 C 0.98263 0.85391 0.97551 0.0
C1059 C 0.99438 0.84355 0.03103 0.0
C1060 C 0.99064 0.84796 0.10251 0.0
C1061 C 1.00186 0.83818 0.15469 0.0
C1062 C 0.01677 0.82391 0.13581 0.0
C1063 C 0.0206 0.81952 0.06475 0.0
C1064 C 1.00953 0.82938 0.01238 0.0
C1065 C 1.00142 0.93241 0.84921 0.0
C1066 C 0.02097 0.92744 0.82465 0.0
C1067 C 0.98746 0.91686 0.86298 0.0
C1068 C 0.99294 0.89638 0.8512 0.0
C1069 C 0.01157 0.8917 0.81926 0.0
C1070 C 0.02555 0.9071 0.80663 0.0
C1071 C 0.98172 0.87987 0.88574 0.0
C1072 C 0.99198 0.86957 0.93915 0.0
C1073 C 0.96144 0.87462 0.8689 0.0
C1074 C 0.95028 0.88519 0.81222 0.0
C1075 C 0.95849 0.88626 0.74389 0.0
C1076 C 0.94832 0.89697 0.69138 0.0
C1077 C 0.92982 0.90654 0.70641 0.0
C1078 C 0.92142 0.90533 0.77388 0.0
C1079 C 0.93157 0.89466 0.82664 0.0
H1080 H 0.92197 0.91487 0.66574 0.0
H1081 H 0.02546 0.81632 0.17605 0.0
H1082 H 0.76153 0.97328 0.03592 0.0
H1083 H 0.73799 0.97009 0.93885 0.0
H1084 H 0.69408 0.9418 0.07465 0.0
H1085 H 0.71856 0.94266 0.17112 0.0
H1086 H 0.68339 0.93551 0.93846 0.0
H1087 H 0.69834 0.99135 0.0897 0.0
H1088 H 0.72003 0.01568 0.15592 0.0
H1089 H 0.74228 0.03989 0.96151 0.0
H1090 H 0.72098 0.01538 0.89408 0.0
H1091 H 0.60302 1.0104 0.87597 0.0
H1092 H 0.62774 0.9862 0.92138 0.0
H1093 H 0.66686 0.9974 0.74399 0.0
H1094 H 0.64183 0.02104 0.69606 0.0
H1095 H 0.67927 1.01002 0.89492 0.0
H1096 H 0.65245 0.95313 0.75323 0.0
H1097 H 0.62382 0.93122 0.71559 0.0
H1098 H 0.61487 0.9125 0.92931 0.0
H1099 H 0.64323 0.93461 0.96845 0.0
C1100 C 0.74751 0.96508 0.04488 0.0
C1101 C 0.7415 0.95936 0.11303 0.0
C1102 C 0.73393 0.96337 0.98877 0.0
C1103 C 0.71396 0.95682 1.0009 0.0
C1104 C 0.70927 0.94748 0.06479 0.0
C1105 C 0.72319 0.94839 0.12036 0.0
C1106 C 0.6974 0.96492 0.95677 0.0
C1107 C 0.68255 0.95175 0.92832 0.0
C1108 C 0.6957 0.98627 0.94677 0.0
C1109 C 0.7083 1.00133 0.98683 0.0
C1110 C 0.70797 1.00176 0.06106 0.0
C1111 C 0.72018 0.01558 0.09882 0.0
C1112 C 0.73259 0.02927 0.06293 0.0
C1113 C 0.73272 0.02922 0.98921 0.0
C1114 C 0.72059 0.01536 0.95117 0.0
C1115 C 0.61646 1.00712 0.84488 0.0
C1116 C 0.62068 0.01796 0.78304 0.0
C1117 C 0.63054 0.99327 0.87104 0.0
C1118 C 0.649 0.99017 0.83593 0.0
C1119 C 0.65259 0.99966 0.77145 0.0
C1120 C 0.63841 1.01331 0.74472 0.0
C1121 C 0.66594 0.98054 0.87328 0.0
C1122 C 0.68055 0.99366 0.90263 0.0
C1123 C 0.66647 0.95945 0.88774 0.0
C1124 C 0.64998 0.94553 0.86372 0.0
C1125 C 0.64436 0.94438 0.79222 0.0
C1126 C 0.62815 0.93195 0.77065 0.0
C1127 C 0.61751 0.9205 0.82006 0.0
C1128 C 0.62313 0.92138 0.89111 0.0
C1129 C 0.63929 0.93383 0.91299 0.0
H1130 H 0.60493 0.91093 0.8033 0.0
H1131 H 0.74205 0.03995 0.09223 0.0
H1132 H 0.56216 0.77244 0.04267 0.0
H1133 H 0.55973 0.74582 0.9527 0.0
H1134 H 0.60383 0.70989 0.06433 0.0
H1135 H 0.60725 0.73702 0.15283 0.0
H1136 H 0.59919 0.69766 0.92228 0.0
H1137 H 0.5564 0.71508 0.12995 0.0
H1138 H 0.53236 0.73619 0.19881 0.0
H1139 H 0.49186 0.73812 0.02176 0.0
H1140 H 0.5155 0.71668 0.95198 0.0
H1141 H 0.5594 0.59759 0.95204 0.0
H1142 H 0.57459 0.63155 0.96388 0.0
H1143 H 0.51973 0.65832 0.88146 0.0
H1144 H 0.50442 0.6246 0.8709 0.0
H1145 H 0.52935 0.67725 0.9901 0.0
H1146 H 0.56742 0.66171 0.78084 0.0
H1147 H 0.59016 0.64395 0.69689 0.0
H1148 H 0.6363 0.64021 0.8566 0.0
H1149 H 0.61399 0.65857 0.94086 0.0
C1150 C 0.57249 0.75961 0.04568 0.0
C1151 C 0.58415 0.75625 0.10665 0.0
C1152 C 0.57095 0.7443 0.99417 0.0
C1153 C 0.58082 0.72562 1.0043 0.0
C1154 C 0.59574 0.7241 0.05671 0.0
C1155 C 0.5976 0.73959 0.1075 0.0
C1156 C 0.57178 0.70667 0.97595 0.0
C1157 C 0.58389 0.69315 0.9366 0.0
C1158 C 0.55165 0.70106 0.99379 0.0
C1159 C 0.53782 0.71442 0.03555 0.0
C1160 C 0.5424 0.71999 0.10565 0.0
C1161 C 0.52884 0.73202 0.14488 0.0
C1162 C 0.51069 0.73862 0.11463 0.0
C1163 C 0.50597 0.73308 0.0451 0.0
C1164 C 0.51941 0.72094 1.00575 0.0
C1165 C 0.55072 0.61071 0.93565 0.0
C1166 C 0.53093 0.60841 0.909 0.0
C1167 C 0.55949 0.63008 0.94159 0.0
C1168 C 0.5485 0.64741 0.92153 0.0
C1169 C 0.52861 0.64511 0.8961 0.0
C1170 C 0.51991 0.62583 0.88993 0.0
C1171 C 0.55662 0.66811 0.93512 0.0
C1172 C 0.54444 0.68183 0.97346 0.0
C1173 C 0.57638 0.67404 0.91472 0.0
C1174 C 0.58905 0.66135 0.86703 0.0
C1175 C 0.58234 0.6569 0.79818 0.0
C1176 C 0.59523 0.64694 0.75038 0.0
C1177 C 0.6147 0.64101 0.77136 0.0
C1178 C 0.62126 0.6449 0.84036 0.0
C1179 C 0.60856 0.65521 0.88798 0.0
H1180 H 0.6247 0.63338 0.73417 0.0
H1181 H 0.50025 0.74796 0.14517 0.0
H1182 H 0.8044 0.61128 0.1553 0.0
H1183 H 0.83312 0.61114 0.07517 0.0
H1184 H 0.79832 0.57593 0.92351 0.0
H1185 H 0.77027 0.57449 1.00551 0.0
H1186 H 0.82498 0.55302 0.98989 0.0
H1187 H 0.82927 0.61748 0.8718 0.0
H1188 H 0.82885 0.65506 0.86372 0.0
H1189 H 0.87876 0.65929 0.00932 0.0
H1190 H 0.87914 0.62178 0.01941 0.0
H1191 H 0.91236 0.51468 0.82429 0.0
H1192 H 0.88248 0.53673 0.83718 0.0
H1193 H 0.9081 0.56367 0.0264 0.0
H1194 H 0.93795 0.54137 0.01432 0.0
H1195 H 0.88664 0.5922 0.92621 0.0
H1196 H 0.87873 0.53169 0.06367 0.0
H1197 H 0.87969 0.4947 0.08612 0.0
H1198 H 0.83623 0.48406 0.92049 0.0
H1199 H 0.83527 0.52102 0.89633 0.0
C1200 C 0.8025 0.60434 0.10346 0.0
C1201 C 0.78564 0.59173 0.08871 0.0
C1202 C 0.81894 0.60448 0.05708 0.0
C1203 C 0.81813 0.59275 0.99456 0.0
C1204 C 0.79938 0.58465 0.97243 0.0
C1205 C 0.78321 0.58393 0.01968 0.0
C1206 C 0.83703 0.58304 0.96837 0.0
C1207 C 0.83818 0.56166 0.97339 0.0
C1208 C 0.85468 0.59428 0.95152 0.0
C1209 C 0.85433 0.61683 0.94602 0.0
C1210 C 0.84008 0.62644 0.90235 0.0
C1211 C 0.83984 0.64773 0.89744 0.0
C1212 C 0.8538 0.65956 0.93586 0.0
C1213 C 0.868 0.65012 0.97938 0.0
C1214 C 0.86828 0.62885 0.98456 0.0
C1215 C 0.91163 0.52543 0.86826 0.0
C1216 C 0.92714 0.52618 0.91908 0.0
C1217 C 0.89473 0.53807 0.87521 0.0
C1218 C 0.89327 0.55178 0.9325 0.0
C1219 C 0.90915 0.55324 0.98163 0.0
C1220 C 0.92594 0.54034 0.97531 0.0
C1221 C 0.87402 0.56248 0.94588 0.0
C1222 C 0.87305 0.58378 0.94005 0.0
C1223 C 0.85649 0.55132 0.9637 0.0
C1224 C 0.85718 0.52906 0.97741 0.0
C1225 C 0.86959 0.52143 0.03139 0.0
C1226 C 0.87008 0.50049 0.0446 0.0
C1227 C 0.85809 0.48703 1.00453 0.0
C1228 C 0.84555 0.4945 0.9513 0.0
C1229 C 0.84503 0.51545 0.93783 0.0
H1230 H 0.85846 0.47082 0.01491 0.0
H1231 H 0.85359 0.67604 0.93195 0.0
H1232 H 0.08014 0.22681 0.92276 0.0
H1233 H 0.07366 0.19508 0.85796 0.0
H1234 H 1.01108 0.21272 0.83036 0.0
H1235 H 0.01741 0.24422 0.89938 0.0
H1236 H 1.01112 0.17616 0.8718 0.0
H1237 H 0.05141 0.20675 0.68607 0.0
H1238 H 0.08186 0.22332 0.63696 0.0
H1239 H 0.11878 0.17312 0.70385 0.0
H1240 H 0.08858 0.1563 0.7535 0.0
H1241 H 0.98236 0.08711 0.6852 0.0
H1242 H 0.99031 0.12157 0.72384 0.0
H1243 H 0.05436 0.10817 0.70745 0.0
H1244 H 0.04591 0.07472 0.65477 0.0
H1245 H 0.05417 0.14335 0.68842 0.0
H1246 H 0.01837 0.11541 0.88886 0.0
H1247 H 0.99034 0.09811 0.95119 0.0
H1248 H 0.9481 0.14231 0.87293 0.0
H1249 H 0.97595 0.15981 0.81089 0.0
C1250 C 0.06508 0.22427 0.90118 0.0
C1251 C 0.04936 0.23837 0.91637 0.0
C1252 C 0.06137 0.20595 0.86344 0.0
C1253 C 0.04184 0.20111 0.83767 0.0
C1254 C 0.02634 0.21578 0.84915 0.0
C1255 C 0.03002 0.23409 0.88786 0.0
C1256 C 0.03718 0.18017 0.80532 0.0
C1257 C 0.02039 0.16923 0.83067 0.0
C1258 C 0.04965 0.17022 0.754 0.0
C1259 C 0.06775 0.18034 0.72385 0.0
C1260 C 0.06604 0.1993 0.69056 0.0
C1261 C 0.08325 0.20872 0.66255 0.0
C1262 C 0.10225 0.19931 0.66746 0.0
C1263 C 0.10406 0.18041 0.7001 0.0
C1264 C 0.0869 0.1709 0.72799 0.0
C1265 C 0.99821 0.09139 0.6902 0.0
C1266 C 0.01351 0.07735 0.67099 0.0
C1267 C 1.00285 0.11126 0.71434 0.0
C1268 C 0.0231 0.11781 0.72458 0.0
C1269 C 0.03851 0.10395 0.70268 0.0
C1270 C 0.03374 0.08436 0.67413 0.0
C1271 C 0.02797 0.13912 0.75492 0.0
C1272 C 0.04481 0.15017 0.72941 0.0
C1273 C 0.01589 0.14905 0.80775 0.0
C1274 C 0.99913 0.13856 0.84441 0.0
C1275 C 1.00305 0.12117 0.88451 0.0
C1276 C 0.98723 0.11142 0.91986 0.0
C1277 C 0.96742 0.11896 0.91532 0.0
C1278 C 0.96343 0.13641 0.87611 0.0
C1279 C 0.97924 0.1463 0.84114 0.0
H1280 H 0.95518 0.11137 0.94256 0.0
H1281 H 0.11556 0.20664 0.64585 0.0
H1282 H 0.30449 0.02019 0.93237 0.0
H1283 H 0.33642 0.01421 0.86814 0.0
H1284 H 0.33427 0.07574 0.79068 0.0
H1285 H 0.30256 0.08164 0.85493 0.0
H1286 H 0.36898 0.07024 0.84901 0.0
H1287 H 0.36764 0.98435 0.76049 0.0
H1288 H 0.34335 0.95959 0.7086 0.0
H1289 H 0.30777 1.00881 0.62666 0.0
H1290 H 0.33195 0.03381 0.67711 0.0
H1291 H 0.45786 0.99574 0.74841 0.0
H1292 H 0.42375 1.00514 0.78767 0.0
H1293 H 0.42932 0.06279 0.68261 0.0
H1294 H 0.46393 0.05352 0.64499 0.0
H1295 H 0.39182 1.01129 0.70289 0.0
H1296 H 0.40674 0.08898 0.72338 0.0
H1297 H 0.42131 0.12078 0.7733 0.0
H1298 H 0.42272 0.09414 0.97867 0.0
H1299 H 0.40897 0.06188 0.92911 0.0
C1300 C 0.31029 0.03205 0.89865 0.0
C1301 C 0.30062 0.05123 0.89743 0.0
C1302 C 0.32874 0.02872 0.86239 0.0
C1303 C 0.33805 0.04453 0.8243 0.0
C1304 C 0.32764 0.06323 0.81949 0.0
C1305 C 0.30924 0.06652 0.85542 0.0
C1306 C 0.35948 0.04251 0.79652 0.0
C1307 C 0.37385 0.05739 0.81635 0.0
C1308 C 0.36612 0.02595 0.75346 0.0
C1309 C 0.35149 1.01095 0.7234 0.0
C1310 C 0.35465 0.98987 0.73133 0.0
C1311 C 0.3409 0.9758 0.70213 0.0
C1312 C 0.32399 0.98262 0.6646 0.0
C1313 C 0.32081 1.00353 0.65604 0.0
C1314 C 0.33451 0.01766 0.68507 0.0
C1315 C 0.45205 1.0107 0.73533 0.0
C1316 C 0.4639 0.02403 0.69492 0.0
C1317 C 0.43241 0.01608 0.75771 0.0
C1318 C 0.42368 0.03493 0.73978 0.0
C1319 C 0.43564 0.0485 0.69998 0.0
C1320 C 0.45551 0.04313 0.67792 0.0
C1321 C 0.40154 0.03886 0.75687 0.0
C1322 C 0.38695 0.02416 0.7354 0.0
C1323 C 0.39449 0.05596 0.79677 0.0
C1324 C 0.4077 0.07275 0.82195 0.0
C1325 C 0.41108 0.08959 0.77848 0.0
C1326 C 0.41885 0.10781 0.80694 0.0
C1327 C 0.42277 0.10954 0.87923 0.0
C1328 C 0.41959 0.09282 0.92275 0.0
C1329 C 0.41216 0.07445 0.89427 0.0
H1330 H 0.4285 0.12376 0.90136 0.0
H1331 H 0.31338 0.9717 0.642 0.0
H1332 H 0.50108 0.31591 0.98615 0.0
H1333 H 0.50642 0.34739 0.92067 0.0
H1334 H 0.46581 0.32548 0.75798 0.0
H1335 H 0.45982 0.29409 0.82518 0.0
H1336 H 0.51 0.35192 0.72797 0.0
H1337 H 0.44127 0.35106 0.82628 0.0
H1338 H 0.418 0.34297 0.92383 0.0
H1339 H 0.45084 0.38382 0.06155 0.0
H1340 H 0.47457 0.39184 0.96462 0.0
H1341 H 0.49924 0.45061 0.58163 0.0
H1342 H 0.4927 0.41552 0.61814 0.0
H1343 H 0.49378 0.43542 0.83635 0.0
H1344 H 0.49846 0.47083 0.7988 0.0
H1345 H 0.4679 0.40788 0.83001 0.0
H1346 H 0.53655 0.40886 0.73469 0.0
H1347 H 0.56164 0.4158 0.64143 0.0
H1348 H 0.53029 0.3746 0.50023 0.0
H1349 H 0.50495 0.36754 0.59253 0.0
C1350 C 0.49398 0.31738 0.93489 0.0
C1351 C 0.48035 0.30229 0.91013 0.0
C1352 C 0.4969 0.33549 0.89781 0.0
C1353 C 0.48648 0.33887 0.83449 0.0
C1354 C 0.47411 0.32316 0.80654 0.0
C1355 C 0.47086 0.30511 0.84451 0.0
C1356 C 0.48677 0.35969 0.80317 0.0
C1357 C 0.50056 0.36412 0.74922 0.0
C1358 C 0.47479 0.37572 0.83191 0.0
C1359 C 0.45992 0.37177 0.88882 0.0
C1360 C 0.44366 0.35817 0.87756 0.0
C1361 C 0.43038 0.35361 0.93263 0.0
C1362 C 0.43306 0.36277 0.99901 0.0
C1363 C 0.44891 0.37666 0.01021 0.0
C1364 C 0.46226 0.38121 0.9553 0.0
C1365 C 0.49792 0.44743 0.63733 0.0
C1366 C 0.4994 0.46338 0.68741 0.0
C1367 C 0.49442 0.42727 0.65847 0.0
C1368 C 0.49339 0.42233 0.73053 0.0
C1369 C 0.49457 0.4385 0.78048 0.0
C1370 C 0.49732 0.4588 0.75912 0.0
C1371 C 0.4913 0.40048 0.75403 0.0
C1372 C 0.47724 0.39581 0.80749 0.0
C1373 C 0.50309 0.38421 0.72465 0.0
C1374 C 0.51882 0.38777 0.67032 0.0
C1375 C 0.53505 0.40127 0.68377 0.0
C1376 C 0.54929 0.40524 0.63107 0.0
C1377 C 0.54755 0.39567 0.56493 0.0
C1378 C 0.53163 0.382 0.55148 0.0
C1379 C 0.51735 0.37796 0.60401 0.0
H1380 H 0.55855 0.39884 0.52417 0.0
H1381 H 0.4228 0.35919 0.04164 0.0
H1382 H 0.24757 0.50954 0.86656 0.0
H1383 H 0.21897 0.5138 0.78581 0.0
H1384 H 0.18754 0.46439 0.88801 0.0
H1385 H 0.21743 0.45717 0.95406 0.0
H1386 H 0.17034 0.46357 0.78854 0.0
H1387 H 0.18332 0.52987 0.90849 0.0
H1388 H 0.20397 0.56039 0.93771 0.0
H1389 H 0.21028 0.57313 0.71731 0.0
H1390 H 0.18983 0.54258 0.68702 0.0
H1391 H 0.07035 0.50342 0.77168 0.0
H1392 H 0.10507 0.49749 0.80942 0.0
H1393 H 0.12706 0.5193 0.6104 0.0
H1394 H 0.09186 0.52505 0.57159 0.0
H1395 H 0.14937 0.53421 0.73446 0.0
H1396 H 0.12245 0.4708 0.63987 0.0
H1397 H 0.09685 0.44347 0.63617 0.0
H1398 H 0.11184 0.42726 0.84837 0.0
H1399 H 0.13696 0.45517 0.85473 0.0
C1400 C 0.2348 0.49919 0.87004 0.0
C1401 C 0.23475 0.48365 0.92061 0.0
C1402 C 0.21784 0.50211 0.82511 0.0
C1403 C 0.19971 0.49056 0.83261 0.0
C1404 C 0.20057 0.47411 0.87954 0.0
C1405 C 0.21789 0.47026 0.91995 0.0
C1406 C 0.17976 0.49532 0.79451 0.0
C1407 C 0.16592 0.47922 0.77928 0.0
C1408 C 0.17332 0.51547 0.7774 0.0
C1409 C 0.18537 0.53385 0.7956 0.0
C1410 C 0.18922 0.53916 0.86642 0.0
C1411 C 0.20087 0.55644 0.88311 0.0
C1412 C 0.20851 0.56864 0.82938 0.0
C1413 C 0.20441 0.56364 0.75886 0.0
C1414 C 0.1928 0.54636 0.7419 0.0
C1415 C 0.08237 0.50649 0.73482 0.0
C1416 C 0.07797 0.51388 0.6671 0.0
C1417 C 0.1024 0.50339 0.75715 0.0
C1418 C 0.11884 0.50763 0.71262 0.0
C1419 C 0.11469 0.51578 0.64582 0.0
C1420 C 0.09449 0.5189 0.62336 0.0
C1421 C 0.14013 0.50278 0.73559 0.0
C1422 C 0.15409 0.51875 0.74617 0.0
C1423 C 0.14612 0.48272 0.75309 0.0
C1424 C 0.13162 0.46525 0.74787 0.0
C1425 C 0.12021 0.46157 0.6861 0.0
C1426 C 0.10577 0.44592 0.68347 0.0
C1427 C 0.1028 0.43352 0.74181 0.0
C1428 C 0.11422 0.43682 0.80308 0.0
C1429 C 0.12855 0.4526 0.80625 0.0
H1430 H 0.09164 0.42137 0.73955 0.0
H1431 H 0.21755 0.582 0.84239 0.0
H1432 H 0.9592 0.80922 0.37433 0.0
H1433 H 0.96619 0.84056 0.44205 0.0
H1434 H 0.02731 0.84115 0.3603 0.0
H1435 H 0.0206 0.80891 0.29648 0.0
H1436 H 0.02889 0.85768 0.48242 0.0
H1437 H 0.98398 0.8692 0.28725 0.0
H1438 H 0.95312 0.86366 0.21536 0.0
H1439 H 0.91593 0.88283 0.39008 0.0
H1440 H 0.94654 0.88801 0.46351 0.0
H1441 H 0.04813 0.96427 0.50415 0.0
H1442 H 0.04047 0.92952 0.46267 0.0
H1443 H 0.9841 0.93088 0.57831 0.0
H1444 H 0.99169 0.96606 0.61903 0.0
H1445 H 0.9788 0.91315 0.44722 0.0
H1446 H 0.02695 0.9065 0.6352 0.0
H1447 H 0.05945 0.91466 0.69436 0.0
H1448 H 0.09234 0.88727 0.52236 0.0
H1449 H 0.06024 0.88019 0.45964 0.0
C1450 C 0.97442 0.81554 0.37334 0.0
C1451 C 0.98937 0.8064 0.33007 0.0
C1452 C 0.9783 0.83383 0.41087 0.0
C1453 C 0.99707 0.84401 0.40456 0.0
C1454 C 0.01257 0.83399 0.36591 0.0
C1455 C 1.00879 0.81539 0.32954 0.0
C1456 C 1.00022 0.86534 0.43508 0.0
C1457 C 0.01797 0.86979 0.47392 0.0
C1458 C 0.98594 0.88143 0.42565 0.0
C1459 C 0.96754 0.87872 0.38114 0.0
C1460 C 0.96921 0.87208 0.31046 0.0
C1461 C 0.95177 0.86901 0.26943 0.0
C1462 C 0.93259 0.87285 0.29819 0.0
C1463 C 0.9308 0.87982 0.36794 0.0
C1464 C 0.94819 0.8828 0.40931 0.0
C1465 C 0.03405 0.9572 0.5206 0.0
C1466 C 0.02031 0.96818 0.56338 0.0
C1467 C 0.02969 0.93722 0.497 0.0
C1468 C 0.01173 0.92724 0.51739 0.0
C1469 C 0.99804 0.93808 0.5613 0.0
C1470 C 1.00237 0.95824 0.58459 0.0
C1471 C 1.00757 0.90549 0.49344 0.0
C1472 C 0.98962 0.90099 0.45598 0.0
C1473 C 0.02185 0.88948 0.50294 0.0
C1474 C 0.04111 0.89291 0.54238 0.0
C1475 C 0.0411 0.90232 0.60967 0.0
C1476 C 0.05945 0.90678 0.64386 0.0
C1477 C 0.07788 0.90129 0.61255 0.0
C1478 C 0.07804 0.89147 0.54664 0.0
C1479 C 0.05977 0.88735 0.51151 0.0
H1480 H 0.09205 0.9047 0.63928 0.0
H1481 H 0.9191 0.87046 0.26636 0.0
H1482 H 0.73154 0.02735 0.31392 0.0
H1483 H 0.69998 0.03515 0.37792 0.0
H1484 H 0.69533 0.97209 0.43863 0.0
H1485 H 0.72709 0.96462 0.37721 0.0
H1486 H 0.66512 0.02261 0.34344 0.0
H1487 H 0.65964 0.96492 0.57143 0.0
H1488 H 0.68112 0.94908 0.66197 0.0
H1489 H 0.7232 0.99906 0.65065 0.0
H1490 H 0.70187 0.01535 0.56052 0.0
H1491 H 0.57189 0.99485 0.59916 0.0
H1492 H 0.60602 0.98786 0.55232 0.0
H1493 H 0.60734 0.0482 0.46393 0.0
H1494 H 0.57266 0.05385 0.50214 0.0
H1495 H 0.63995 0.99935 0.57466 0.0
H1496 H 0.63727 0.06019 0.37311 0.0
H1497 H 0.6183 0.07432 0.27265 0.0
H1498 H 0.59553 0.01451 0.22013 0.0
H1499 H 0.61386 1.00023 0.32206 0.0
C1500 C 0.72434 0.01544 0.34403 0.0
C1501 C 0.73215 0.99546 0.34151 0.0
C1502 C 0.70603 0.01979 0.37986 0.0
C1503 C 0.69495 1.00428 0.41395 0.0
C1504 C 0.70347 0.98457 0.41473 0.0
C1505 C 0.72179 0.98028 0.37945 0.0
C1506 C 0.67354 1.00809 0.44011 0.0
C1507 C 0.65983 0.01777 0.39473 0.0
C1508 C 0.66596 1.00112 0.50573 0.0
C1509 C 0.67925 0.99125 0.5585 0.0
C1510 C 0.67348 0.97254 0.58818 0.0
C1511 C 0.68562 0.96349 0.63951 0.0
C1512 C 0.70353 0.97304 0.66198 0.0
C1513 C 0.70936 0.99165 0.633 0.0
C1514 C 0.69728 1.00077 0.58159 0.0
C1515 C 0.57915 1.00614 0.5665 0.0
C1516 C 0.56902 0.02446 0.55107 0.0
C1517 C 0.59895 1.00234 0.54059 0.0
C1518 C 0.60957 0.01712 0.50113 0.0
C1519 C 0.59957 0.03576 0.48907 0.0
C1520 C 0.57963 0.0392 0.51249 0.0
C1521 C 0.63142 1.01374 0.47757 0.0
C1522 C 0.64523 1.00413 0.52336 0.0
C1523 C 0.63916 0.0205 0.41184 0.0
C1524 C 0.62624 0.02931 0.35643 0.0
C1525 C 0.6278 0.05018 0.34102 0.0
C1526 C 0.61718 0.05821 0.28395 0.0
C1527 C 0.6054 0.04538 0.24078 0.0
C1528 C 0.60431 0.02449 0.25452 0.0
C1529 C 0.61454 0.01648 0.31257 0.0
H1530 H 0.59731 0.05157 0.19626 0.0
H1531 H 0.71286 0.96605 0.70195 0.0
H1532 H 0.58791 0.73642 0.36224 0.0
H1533 H 0.5815 0.70376 0.41882 0.0
H1534 H 0.51716 0.71162 0.38716 0.0
H1535 H 0.52359 0.74449 0.32944 0.0
H1536 H 0.52862 0.69396 0.52272 0.0
H1537 H 0.54044 0.67876 0.26895 0.0
H1538 H 0.56022 0.68051 0.15853 0.0
H1539 H 0.61362 0.6604 0.26733 0.0
H1540 H 0.59396 0.65769 0.37764 0.0
H1541 H 0.49641 0.59272 0.56801 0.0
H1542 H 0.50324 0.62668 0.52426 0.0
H1543 H 0.56678 0.61176 0.50341 0.0
H1544 H 0.55983 0.57716 0.54475 0.0
H1545 H 0.55702 0.63347 0.3962 0.0
H1546 H 0.5478 0.64291 0.63912 0.0
H1547 H 0.53125 0.63813 0.75311 0.0
H1548 H 0.47896 0.67133 0.68201 0.0
H1549 H 0.49503 0.67557 0.56559 0.0
C1550 C 0.57232 0.73154 0.3693 0.0
C1551 C 0.55627 0.74319 0.3415 0.0
C1552 C 0.5687 0.71268 0.40084 0.0
C1553 C 0.54888 0.7049 0.40594 0.0
C1554 C 0.53261 0.71719 0.38342 0.0
C1555 C 0.53627 0.73614 0.35126 0.0
C1556 C 0.54545 0.68364 0.43189 0.0
C1557 C 0.53451 0.68072 0.49441 0.0
C1558 C 0.55398 0.6663 0.39727 0.0
C1559 C 0.56581 0.6682 0.33142 0.0
C1560 C 0.55642 0.67481 0.26926 0.0
C1561 C 0.56759 0.67595 0.20674 0.0
C1562 C 0.58822 0.67091 0.20615 0.0
C1563 C 0.59767 0.66439 0.26789 0.0
C1564 C 0.58649 0.66287 0.33024 0.0
C1565 C 0.51184 0.59641 0.55355 0.0
C1566 C 0.52744 0.58179 0.55887 0.0
C1567 C 0.5158 0.61612 0.52904 0.0
C1568 C 0.53561 0.62216 0.5109 0.0
C1569 C 0.55132 0.60765 0.51652 0.0
C1570 C 0.5473 0.58777 0.54034 0.0
C1571 C 0.53975 0.6436 0.48665 0.0
C1572 C 0.55096 0.64662 0.42462 0.0
C1573 C 0.53203 0.66109 0.52305 0.0
C1574 C 0.52252 0.65936 0.59344 0.0
C1575 C 0.53272 0.64911 0.64757 0.0
C1576 C 0.52339 0.64649 0.71275 0.0
C1577 C 0.50401 0.65447 0.7252 0.0
C1578 C 0.49396 0.66514 0.67229 0.0
C1579 C 0.50315 0.6676 0.60655 0.0
H1580 H 0.49674 0.65239 0.7757 0.0
H1581 H 0.59684 0.67192 0.15775 0.0
H1582 H 0.78412 0.55796 0.39174 0.0
H1583 H 0.8152 0.55084 0.45937 0.0
H1584 H 0.84548 0.5327 0.26645 0.0
H1585 H 0.81423 0.53803 0.20132 0.0
H1586 H 0.86143 0.51198 0.35168 0.0
H1587 H 0.84825 0.58431 0.36522 0.0
H1588 H 0.82948 0.61591 0.3949 0.0
H1589 H 0.83 0.60025 0.61392 0.0
H1590 H 0.84857 0.56844 0.5854 0.0
H1591 H 0.96369 0.53621 0.437 0.0
H1592 H 0.92889 0.53878 0.39369 0.0
H1593 H 0.90632 0.53284 0.60552 0.0
H1594 H 0.94145 0.53043 0.64972 0.0
H1595 H 0.88589 0.56416 0.52404 0.0
H1596 H 0.90356 0.49231 0.49855 0.0
H1597 H 0.92544 0.4639 0.45815 0.0
H1598 H 0.91994 0.48383 0.24436 0.0
H1599 H 0.89792 0.51232 0.28349 0.0
C1600 C 0.79717 0.55158 0.36462 0.0
C1601 C 0.79651 0.54828 0.29115 0.0
C1602 C 0.81525 0.54802 0.403 0.0
C1603 C 0.83334 0.54179 0.3685 0.0
C1604 C 0.83212 0.53746 0.29562 0.0
C1605 C 0.81405 0.54042 0.258 0.0
C1606 C 0.85365 0.54012 0.40615 0.0
C1607 C 0.86663 0.52365 0.3887 0.0
C1608 C 0.86095 0.55493 0.45599 0.0
C1609 C 0.84952 0.57386 0.47304 0.0
C1610 C 0.84419 0.58752 0.41961 0.0
C1611 C 0.83363 0.60549 0.43624 0.0
C1612 C 0.82848 0.61004 0.50621 0.0
C1613 C 0.83394 0.59667 0.55973 0.0
C1614 C 0.84448 0.57867 0.54336 0.0
C1615 C 0.95143 0.53581 0.47489 0.0
C1616 C 0.95556 0.53341 0.54725 0.0
C1617 C 0.93141 0.53708 0.44974 0.0
C1618 C 0.91478 0.53595 0.49601 0.0
C1619 C 0.91879 0.5338 0.56853 0.0
C1620 C 0.93892 0.53234 0.59377 0.0
C1621 C 0.89339 0.53644 0.46779 0.0
C1622 C 0.88037 0.55259 0.48716 0.0
C1623 C 0.88629 0.52182 0.41769 0.0
C1624 C 0.8992 0.50449 0.39403 0.0
C1625 C 0.90709 0.49067 0.44298 0.0
C1626 C 0.91952 0.47456 0.4203 0.0
C1627 C 0.92421 0.47214 0.34882 0.0
C1628 C 0.91633 0.48574 0.29974 0.0
C1629 C 0.90381 0.50182 0.3221 0.0
H1630 H 0.93389 0.45969 0.33143 0.0
H1631 H 0.82032 0.62396 0.51899 0.0
loop_
_geom_bond_atom_site_label_1
_geom_bond_atom_site_label_2
_geom_bond_distance
_geom_bond_site_symmetry_2
_ccdc_geom_bond_type
H0 C5 0.930 . S
H1 C8 0.930 . S
H2 C10 0.930 . S
H3 C4 1.016 . S
C4 H3 1.016 . S
C4 N11 1.286 . S
C5 H0 0.930 . S
C5 C6 1.397 . S
C5 C7 1.361 . S
C6 C5 1.397 . S
C6 C10 1.390 . S
C7 C5 1.361 . S
C7 C8 1.393 . S
C7 N11 1.413 . S
C8 H1 0.930 . S
C8 C7 1.393 . S
C8 C9 1.399 . S
C9 C8 1.399 . S
C9 C10 1.381 . S
C10 H2 0.930 . S
C10 C6 1.390 . S
C10 C9 1.381 . S
N11 C4 1.286 . S
N11 C7 1.413 . S
H12 C17 0.930 . S
H13 C20 0.930 . S
H14 C22 0.930 . S
H15 C16 1.016 . S
C16 H15 1.016 . S
C16 N23 1.286 . S
C17 H12 0.930 . S
C17 C18 1.397 . S
C17 C19 1.361 . S
C18 C17 1.397 . S
C18 C22 1.390 . S
C19 C17 1.361 . S
C19 C20 1.393 . S
C19 N23 1.413 . S
C20 H13 0.930 . S
C20 C19 1.393 . S
C20 C21 1.399 . S
C21 C20 1.399 . S
C21 C22 1.381 . S
C22 H14 0.930 . S
C22 C18 1.390 . S
C22 C21 1.381 . S
N23 C16 1.286 . S
N23 C19 1.413 . S
H24 C29 0.930 . S
H25 C32 0.930 . S
H26 C34 0.930 . S
H27 C28 1.016 . S
C28 H27 1.016 . S
C28 N35 1.286 . S
C29 H24 0.930 . S
C29 C30 1.397 . S
C29 C31 1.361 . S
C30 C29 1.397 . S
C30 C34 1.390 . S
C31 C29 1.361 . S
C31 C32 1.393 . S
C31 N35 1.413 . S
C32 H25 0.930 . S
C32 C31 1.393 . S
C32 C33 1.399 . S
C33 C32 1.399 . S
C33 C34 1.381 . S
C34 H26 0.930 . S
C34 C30 1.390 . S
C34 C33 1.381 . S
N35 C28 1.286 . S
N35 C31 1.413 . S
H36 C41 0.930 . S
H37 C44 0.930 . S
H38 C46 0.930 . S
H39 C40 1.016 . S
C40 H39 1.016 . S
C40 N47 1.286 . S
C41 H36 0.930 . S
C41 C42 1.397 . S
C41 C43 1.361 . S
C42 C41 1.397 . S
C42 C46 1.390 . S
C43 C41 1.361 . S
C43 C44 1.393 . S
C43 N47 1.413 . S
C44 H37 0.930 . S
C44 C43 1.393 . S
C44 C45 1.399 . S
C45 C44 1.399 . S
C45 C46 1.381 . S
C46 H38 0.930 . S
C46 C42 1.390 . S
C46 C45 1.381 . S
N47 C40 1.286 . S
N47 C43 1.413 . S
H48 C53 0.930 . S
H49 C56 0.930 . S
H50 C58 0.930 . S
H51 C52 1.016 . S
C52 H51 1.016 . S
C52 N59 1.286 . S
C53 H48 0.930 . S
C53 C54 1.397 . S
C53 C55 1.361 1_556 S
C54 C53 1.397 . S
C54 C58 1.390 . S
C55 C53 1.361 1_554 S
C55 C56 1.393 . S
C55 N59 1.413 . S
C56 H49 0.930 . S
C56 C55 1.393 . S
C56 C57 1.399 . S
C57 C56 1.399 . S
C57 C58 1.381 1_554 S
C58 H50 0.930 . S
C58 C54 1.390 . S
C58 C57 1.381 1_556 S
N59 C52 1.286 . S
N59 C55 1.413 . S
H60 C65 0.930 . S
H61 C68 0.930 . S
H62 C70 0.930 . S
H63 C64 1.016 . S
C64 H63 1.016 . S
C64 N71 1.286 . S
C65 H60 0.930 . S
C65 C66 1.397 . S
C65 C67 1.361 1_556 S
C66 C65 1.397 . S
C66 C70 1.390 . S
C67 C65 1.361 1_554 S
C67 C68 1.393 . S
C67 N71 1.413 . S
C68 H61 0.930 . S
C68 C67 1.393 . S
C68 C69 1.399 . S
C69 C68 1.399 . S
C69 C70 1.381 1_554 S
C70 H62 0.930 . S
C70 C66 1.390 . S
C70 C69 1.381 1_556 S
N71 C64 1.286 . S
N71 C67 1.413 . S
H72 C77 0.930 . S
H73 C80 0.930 . S
H74 C82 0.930 . S
H75 C76 1.016 . S
C76 H75 1.016 . S
C76 N83 1.286 . S
C77 H72 0.930 . S
C77 C78 1.397 . S
C77 C79 1.361 1_556 S
C78 C77 1.397 . S
C78 C82 1.390 . S
C79 C77 1.361 1_554 S
C79 C80 1.393 . S
C79 N83 1.413 . S
C80 H73 0.930 . S
C80 C79 1.393 . S
C80 C81 1.399 . S
C81 C80 1.399 . S
C81 C82 1.381 1_554 S
C82 H74 0.930 . S
C82 C78 1.390 . S
C82 C81 1.381 1_556 S
N83 C76 1.286 . S
N83 C79 1.413 . S
H84 C89 0.930 . S
H85 C92 0.930 . S
H86 C94 0.930 . S
H87 C88 1.016 . S
C88 H87 1.016 . S
C88 N95 1.286 . S
C89 H84 0.930 . S
C89 C90 1.397 . S
C89 C91 1.361 1_556 S
C90 C89 1.397 . S
C90 C94 1.390 . S
C91 C89 1.361 1_554 S
C91 C92 1.393 . S
C91 N95 1.413 . S
C92 H85 0.930 . S
C92 C91 1.393 . S
C92 C93 1.399 . S
C93 C92 1.399 . S
C93 C94 1.381 1_554 S
C94 H86 0.930 . S
C94 C90 1.390 . S
C94 C93 1.381 1_556 S
N95 C88 1.286 . S
N95 C91 1.413 . S
Tb96 N127 2.660 1_565 S
Tb96 N134 2.593 1_565 S
Tb96 O140 2.546 . S
Tb96 O141 2.610 1_455 S
Tb96 O143 2.330 1_455 S
Tb96 O144 2.552 . S
Tb96 O145 2.413 . S
Tb96 O147 2.362 1_565 S
Tb96 O148 2.421 . S
Tb96 C160 2.833 . S
C97 C100 1.412 1_545 S
C97 C101 1.414 . S
C97 N104 1.359 . S
C98 C100 1.448 . S
C98 C102 1.432 . S
C98 C110 1.410 . S
C99 C101 1.444 1_565 S
C99 C102 1.317 . S
C99 H122 0.929 . S
C100 C97 1.412 1_565 S
C100 C98 1.448 . S
C100 N108 1.350 1_565 S
C101 C97 1.414 . S
C101 C99 1.444 1_545 S
C101 C106 1.385 . S
C102 C98 1.432 . S
C102 C99 1.317 . S
C102 H114 0.930 . S
C103 C105 1.392 . S
C103 C106 1.370 . S
C103 H115 0.931 . S
N104 C97 1.359 . S
N104 C105 1.327 . S
N104 Tb107 2.600 . S
C105 C103 1.392 . S
C105 N104 1.327 . S
C105 H112 0.930 . S
C106 C101 1.385 . S
C106 C103 1.370 . S
C106 H125 0.930 . S
Tb107 N104 2.600 . S
Tb107 N108 2.660 . S
Tb107 O141 2.362 1_545 S
Tb107 O142 2.421 . S
Tb107 O146 2.546 . S
Tb107 O147 2.610 1_655 S
Tb107 O149 2.320 1_655 S
Tb107 O150 2.552 1_655 S
Tb107 O151 2.413 . S
Tb107 C171 2.833 . S
N108 C100 1.350 1_545 S
N108 Tb107 2.660 . S
N108 C109 1.305 1_645 S
C109 N108 1.305 1_465 S
C109 C111 1.407 . S
C109 H116 0.930 . S
C110 C98 1.410 . S
C110 C111 1.345 1_655 S
C110 H118 0.930 . S
C111 C109 1.407 . S
C111 C110 1.345 1_455 S
C111 H113 0.930 . S
H112 C105 0.930 . S
H113 C111 0.930 . S
H114 C102 0.930 . S
H115 C103 0.931 . S
H116 C109 0.930 . S
H117 C131 0.930 1_655 S
H118 C110 0.930 . S
H119 C137 0.930 . S
H120 C128 0.930 1_655 S
H121 C135 0.931 . S
H122 C99 0.929 . S
H123 C129 0.930 . S
H124 C162 0.930 . S
H125 C106 0.930 . S
H126 C161 0.929 . S
N127 Tb96 2.660 1_545 S
N127 C128 1.305 . S
N127 C132 1.360 . S
C128 H120 0.930 1_455 S
C128 N127 1.305 . S
C128 C131 1.407 . S
C129 H123 0.930 . S
C129 C130 1.410 . S
C129 C131 1.345 . S
C130 C129 1.410 . S
C130 C132 1.417 . S
C130 C162 1.432 . S
C131 H117 0.930 1_455 S
C131 C128 1.407 . S
C131 C129 1.345 . S
C132 N127 1.360 . S
C132 C130 1.417 . S
C132 C136 1.432 . S
H133 C138 0.930 . S
N134 Tb96 2.593 1_545 S
N134 C136 1.375 . S
N134 C137 1.315 1_545 S
C135 H121 0.931 . S
C135 C137 1.392 . S
C135 C138 1.370 1_565 S
C136 C132 1.432 . S
C136 N134 1.375 . S
C136 C139 1.414 . S
C137 H119 0.930 . S
C137 N134 1.315 1_565 S
C137 C135 1.392 . S
C138 H133 0.930 . S
C138 C135 1.370 1_545 S
C138 C139 1.385 . S
C139 C136 1.414 . S
C139 C138 1.385 . S
C139 C161 1.444 . S
O140 Tb96 2.546 . S
O140 C160 1.251 . S
O141 Tb96 2.610 1_655 S
O141 Tb107 2.362 1_565 S
O141 C152 1.283 . S
O142 Tb107 2.421 . S
O142 C159 1.262 . S
O143 Tb96 2.330 1_655 S
O143 C159 1.245 1_565 S
O144 Tb96 2.552 . S
O144 C152 1.243 1_455 S
O145 Tb96 2.413 . S
O145 C160 1.256 . S
O146 Tb107 2.546 . S
O146 C171 1.251 . S
O147 Tb96 2.362 1_545 S
O147 Tb107 2.610 1_455 S
O147 C163 1.283 . S
O148 Tb96 2.421 . S
O148 C170 1.262 1_565 S
O149 Tb107 2.320 1_455 S
O149 C170 1.260 . S
O150 Tb107 2.552 1_455 S
O150 C163 1.243 . S
O151 Tb107 2.413 . S
O151 C171 1.253 . S
C152 O141 1.283 . S
C152 O144 1.243 1_655 S
C153 C155 1.382 . S
C153 C157 1.393 . S
C153 C160 1.500 . S
C154 C155 1.400 . S
C154 C156 1.384 . S
C155 C153 1.382 . S
C155 C154 1.400 . S
C155 H172 0.930 1_455 S
C156 C154 1.384 . S
C156 C158 1.392 . S
C156 H173 0.931 . S
C157 C153 1.393 . S
C157 C158 1.401 . S
C157 H174 0.930 . S
C158 C156 1.392 . S
C158 C157 1.401 . S
C158 H175 0.930 . S
C159 O142 1.262 . S
C159 O143 1.245 1_545 S
C160 Tb96 2.833 . S
C160 O140 1.251 . S
C160 O145 1.256 . S
C160 C153 1.500 . S
C161 H126 0.929 . S
C161 C139 1.444 . S
C161 C162 1.317 . S
C162 H124 0.930 . S
C162 C130 1.432 . S
C162 C161 1.317 . S
C163 O147 1.283 . S
C163 O150 1.243 . S
C164 C165 1.346 1_655 S
C164 C168 1.393 . S
C164 C171 1.500 . S
C165 C164 1.346 1_455 S
C165 C166 1.398 1_455 S
C165 H176 0.969 . S
C166 C165 1.398 1_655 S
C166 C167 1.398 . S
C167 C166 1.398 . S
C167 C169 1.392 . S
C167 H177 0.931 . S
C168 C164 1.393 . S
C168 C169 1.401 . S
C168 H178 0.930 . S
C169 C167 1.392 . S
C169 C168 1.401 . S
C169 H179 0.930 . S
C170 O148 1.262 1_545 S
C170 O149 1.260 . S
C171 Tb107 2.833 . S
C171 O146 1.251 . S
C171 O151 1.253 . S
C171 C164 1.500 . S
H172 C155 0.930 1_655 S
H173 C156 0.931 . S
H174 C157 0.930 . S
H175 C158 0.930 . S
H176 C165 0.969 . S
H177 C167 0.931 . S
H178 C168 0.930 . S
H179 C169 0.930 . S
Tb180 N211 2.660 . S
Tb180 N218 2.600 . S
Tb180 O224 2.546 . S
Tb180 O225 2.610 . S
Tb180 O227 2.320 1_545 S
Tb180 O228 2.552 . S
Tb180 O229 2.413 . S
Tb180 O231 2.362 . S
Tb180 O232 2.421 . S
Tb180 C244 2.833 . S
C181 C184 1.432 . S
C181 C185 1.414 . S
C181 N188 1.359 . S
C182 C184 1.417 . S
C182 C186 1.432 . S
C182 C194 1.410 . S
C183 C185 1.444 . S
C183 C186 1.317 . S
C183 H206 0.929 . S
C184 C181 1.432 . S
C184 C182 1.417 . S
C184 N192 1.360 . S
C185 C181 1.414 . S
C185 C183 1.444 . S
C185 C190 1.385 . S
C186 C182 1.432 . S
C186 C183 1.317 . S
C186 H198 0.930 . S
C187 C189 1.392 . S
C187 C190 1.370 . S
C187 H199 0.931 . S
N188 C181 1.359 . S
N188 C189 1.327 . S
N188 Tb191 2.600 . S
C189 C187 1.392 . S
C189 N188 1.327 . S
C189 H196 0.930 . S
C190 C185 1.385 . S
C190 C187 1.370 . S
C190 H209 0.930 . S
Tb191 N188 2.600 . S
Tb191 N192 2.660 . S
Tb191 O225 2.362 1_565 S
Tb191 O226 2.421 . S
Tb191 O230 2.546 . S
Tb191 O231 2.610 1_565 S
Tb191 O233 2.320 1_565 S
Tb191 O234 2.552 1_565 S
Tb191 O235 2.413 1_565 S
Tb191 C255 2.833 . S
N192 C184 1.360 . S
N192 Tb191 2.660 . S
N192 C193 1.305 1_565 S
C193 N192 1.305 1_545 S
C193 C195 1.407 . S
C193 H200 0.930 . S
C194 C182 1.410 . S
C194 C195 1.345 1_565 S
C194 H202 0.930 . S
C195 C193 1.407 . S
C195 C194 1.345 1_545 S
C195 H197 0.930 . S
H196 C189 0.930 . S
H197 C195 0.930 . S
H198 C186 0.930 . S
H199 C187 0.931 . S
H200 C193 0.930 . S
H201 C215 0.930 1_565 S
H202 C194 0.930 . S
H203 C221 0.930 . S
H204 C212 0.930 1_565 S
H205 C219 0.931 . S
H206 C183 0.929 . S
H207 C213 0.930 . S
H208 C246 0.930 . S
H209 C190 0.930 . S
H210 C245 0.929 . S
N211 Tb180 2.660 . S
N211 C212 1.305 . S
N211 C216 1.360 . S
C212 H204 0.930 1_545 S
C212 N211 1.305 . S
C212 C215 1.407 . S
C213 H207 0.930 . S
C213 C214 1.410 . S
C213 C215 1.345 . S
C214 C213 1.410 . S
C214 C216 1.417 . S
C214 C246 1.432 . S
C215 H201 0.930 1_545 S
C215 C212 1.407 . S
C215 C213 1.345 . S
C216 N211 1.360 . S
C216 C214 1.417 . S
C216 C220 1.432 . S
H217 C222 0.930 . S
N218 Tb180 2.600 . S
N218 C220 1.359 . S
N218 C221 1.327 . S
C219 H205 0.931 . S
C219 C221 1.392 . S
C219 C222 1.370 . S
C220 C216 1.432 . S
C220 N218 1.359 . S
C220 C223 1.414 . S
C221 H203 0.930 . S
C221 N218 1.327 . S
C221 C219 1.392 . S
C222 H217 0.930 . S
C222 C219 1.370 . S
C222 C223 1.385 . S
C223 C220 1.414 . S
C223 C222 1.385 . S
C223 C245 1.444 . S
O224 Tb180 2.546 . S
O224 C244 1.251 . S
O225 Tb180 2.610 . S
O225 Tb191 2.362 1_545 S
O225 C236 1.282 . S
O226 Tb191 2.421 . S
O226 C243 1.262 . S
O227 Tb180 2.320 1_565 S
O227 C243 1.260 . S
O228 Tb180 2.552 . S
O228 C236 1.260 . S
O229 Tb180 2.413 . S
O229 C244 1.256 . S
O230 Tb191 2.546 . S
O230 C255 1.251 . S
O231 Tb180 2.362 . S
O231 Tb191 2.610 1_545 S
O231 C247 1.283 . S
O232 Tb180 2.421 . S
O232 C254 1.262 . S
O233 Tb191 2.320 1_545 S
O233 C254 1.260 . S
O234 Tb191 2.552 1_545 S
O234 C247 1.243 . S
O235 Tb191 2.413 1_545 S
O235 C255 1.256 1_545 S
C236 O225 1.282 . S
C236 O228 1.260 . S
C237 C239 1.382 . S
C237 C241 1.393 . S
C237 C244 1.500 . S
C238 C239 1.400 . S
C238 C240 1.384 . S
C239 C237 1.382 . S
C239 C238 1.400 . S
C239 H256 0.930 . S
C240 C238 1.384 . S
C240 C242 1.392 . S
C240 H257 0.931 . S
C241 C237 1.393 . S
C241 C242 1.401 . S
C241 H258 0.930 . S
C242 C240 1.392 . S
C242 C241 1.401 . S
C242 H259 0.930 . S
C243 O226 1.262 . S
C243 O227 1.260 . S
C244 Tb180 2.833 . S
C244 O224 1.251 . S
C244 O229 1.256 . S
C244 C237 1.500 . S
C245 H210 0.929 . S
C245 C223 1.444 . S
C245 C246 1.317 . S
C246 H208 0.930 . S
C246 C214 1.432 . S
C246 C245 1.317 . S
C247 O231 1.283 . S
C247 O234 1.243 . S
C248 C249 1.382 1_565 S
C248 C252 1.393 . S
C248 C255 1.500 . S
C249 C248 1.382 1_545 S
C249 C250 1.400 . S
C249 H260 0.930 . S
C250 C249 1.400 . S
C250 C251 1.384 1_545 S
C251 C250 1.384 1_565 S
C251 C253 1.392 . S
C251 H261 0.931 . S
C252 C248 1.393 . S
C252 C253 1.401 . S
C252 H262 0.930 . S
C253 C251 1.392 . S
C253 C252 1.401 . S
C253 H263 0.930 . S
C254 O232 1.262 . S
C254 O233 1.260 . S
C255 Tb191 2.833 . S
C255 O230 1.251 . S
C255 O235 1.256 1_565 S
C255 C248 1.500 . S
H256 C239 0.930 . S
H257 C240 0.931 . S
H258 C241 0.930 . S
H259 C242 0.930 . S
H260 C249 0.930 . S
H261 C251 0.931 . S
H262 C252 0.930 . S
H263 C253 0.930 . S
Tb264 N295 2.660 . S
Tb264 N302 2.600 . S
Tb264 O308 2.546 . S
Tb264 O309 2.610 . S
Tb264 O311 2.320 . S
Tb264 O312 2.552 . S
Tb264 O313 2.413 . S
Tb264 O315 2.362 . S
Tb264 O316 2.421 . S
Tb264 C328 2.833 . S
C265 C268 1.432 . S
C265 C269 1.414 . S
C265 N272 1.359 . S
C266 C268 1.417 . S
C266 C270 1.432 . S
C266 C278 1.410 . S
C267 C269 1.444 . S
C267 C270 1.317 . S
C267 H290 0.929 . S
C268 C265 1.432 . S
C268 C266 1.417 . S
C268 N276 1.360 . S
C269 C265 1.414 . S
C269 C267 1.444 . S
C269 C274 1.385 . S
C270 C266 1.432 . S
C270 C267 1.317 . S
C270 H282 0.930 . S
C271 C273 1.392 . S
C271 C274 1.370 . S
C271 H283 0.931 . S
N272 C265 1.359 . S
N272 C273 1.327 . S
N272 Tb275 2.600 . S
C273 C271 1.392 . S
C273 N272 1.327 . S
C273 H280 0.930 . S
C274 C269 1.385 . S
C274 C271 1.370 . S
C274 H293 0.930 . S
Tb275 N272 2.600 . S
Tb275 N276 2.660 . S
Tb275 O309 2.362 . S
Tb275 O310 2.421 . S
Tb275 O314 2.546 . S
Tb275 O315 2.610 . S
Tb275 O317 2.320 . S
Tb275 O318 2.552 . S
Tb275 O319 2.413 . S
Tb275 C339 2.833 . S
N276 C268 1.360 . S
N276 Tb275 2.660 . S
N276 C277 1.305 . S
C277 N276 1.305 . S
C277 C279 1.407 . S
C277 H284 0.930 . S
C278 C266 1.410 . S
C278 C279 1.345 . S
C278 H286 0.930 . S
C279 C277 1.407 . S
C279 C278 1.345 . S
C279 H281 0.930 . S
H280 C273 0.930 . S
H281 C279 0.930 . S
H282 C270 0.930 . S
H283 C271 0.931 . S
H284 C277 0.930 . S
H285 C299 0.930 . S
H286 C278 0.930 . S
H287 C305 0.930 . S
H288 C296 0.930 . S
H289 C303 0.931 . S
H290 C267 0.929 . S
H291 C297 0.930 . S
H292 C330 0.930 . S
H293 C274 0.930 . S
H294 C329 0.929 . S
N295 Tb264 2.660 . S
N295 C296 1.305 . S
N295 C300 1.360 . S
C296 H288 0.930 . S
C296 N295 1.305 . S
C296 C299 1.407 . S
C297 H291 0.930 . S
C297 C298 1.410 . S
C297 C299 1.345 . S
C298 C297 1.410 . S
C298 C300 1.417 . S
C298 C330 1.432 . S
C299 H285 0.930 . S
C299 C296 1.407 . S
C299 C297 1.345 . S
C300 N295 1.360 . S
C300 C298 1.417 . S
C300 C304 1.432 . S
H301 C306 0.930 . S
N302 Tb264 2.600 . S
N302 C304 1.359 . S
N302 C305 1.327 . S
C303 H289 0.931 . S
C303 C305 1.392 . S
C303 C306 1.370 . S
C304 C300 1.432 . S
C304 N302 1.359 . S
C304 C307 1.414 . S
C305 H287 0.930 . S
C305 N302 1.327 . S
C305 C303 1.392 . S
C306 H301 0.930 . S
C306 C303 1.370 . S
C306 C307 1.385 . S
C307 C304 1.414 . S
C307 C306 1.385 . S
C307 C329 1.444 . S
O308 Tb264 2.546 . S
O308 C328 1.251 . S
O309 Tb264 2.610 . S
O309 Tb275 2.362 . S
O309 C320 1.283 . S
O310 Tb275 2.421 . S
O310 C327 1.262 . S
O311 Tb264 2.320 . S
O311 C327 1.260 . S
O312 Tb264 2.552 . S
O312 C320 1.243 . S
O313 Tb264 2.413 . S
O313 C328 1.256 . S
O314 Tb275 2.546 . S
O314 C339 1.251 . S
O315 Tb264 2.362 . S
O315 Tb275 2.610 . S
O315 C331 1.283 . S
O316 Tb264 2.421 . S
O316 C338 1.262 . S
O317 Tb275 2.320 . S
O317 C338 1.260 . S
O318 Tb275 2.552 . S
O318 C331 1.243 . S
O319 Tb275 2.413 . S
O319 C339 1.256 . S
C320 O309 1.283 . S
C320 O312 1.243 . S
C321 C323 1.382 . S
C321 C325 1.393 . S
C321 C328 1.500 . S
C322 C323 1.400 . S
C322 C324 1.384 . S
C323 C321 1.382 . S
C323 C322 1.400 . S
C323 H340 0.930 . S
C324 C322 1.384 . S
C324 C326 1.392 . S
C324 H341 0.931 . S
C325 C321 1.393 . S
C325 C326 1.401 . S
C325 H342 0.930 . S
C326 C324 1.392 . S
C326 C325 1.401 . S
C326 H343 0.930 . S
C327 O310 1.262 . S
C327 O311 1.260 . S
C328 Tb264 2.833 . S
C328 O308 1.251 . S
C328 O313 1.256 . S
C328 C321 1.500 . S
C329 H294 0.929 . S
C329 C307 1.444 . S
C329 C330 1.317 . S
C330 H292 0.930 . S
C330 C298 1.432 . S
C330 C329 1.317 . S
C331 O315 1.283 . S
C331 O318 1.243 . S
C332 C333 1.382 . S
C332 C336 1.393 . S
C332 C339 1.500 . S
C333 C332 1.382 . S
C333 C334 1.400 . S
C333 H344 0.930 . S
C334 C333 1.400 . S
C334 C335 1.384 . S
C335 C334 1.384 . S
C335 C337 1.392 . S
C335 H345 0.931 . S
C336 C332 1.393 . S
C336 C337 1.401 . S
C336 H346 0.930 . S
C337 C335 1.392 . S
C337 C336 1.401 . S
C337 H347 0.930 1_556 S
C338 O316 1.262 . S
C338 O317 1.260 . S
C339 Tb275 2.833 . S
C339 O314 1.251 . S
C339 O319 1.256 . S
C339 C332 1.500 . S
H340 C323 0.930 . S
H341 C324 0.931 . S
H342 C325 0.930 . S
H343 C326 0.930 . S
H344 C333 0.930 . S
H345 C335 0.931 . S
H346 C336 0.930 . S
H347 C337 0.930 1_554 S
Tb348 N379 2.660 . S
Tb348 N386 2.600 . S
Tb348 O392 2.546 . S
Tb348 O393 2.610 . S
Tb348 O395 2.320 . S
Tb348 O396 2.552 . S
Tb348 O397 2.413 . S
Tb348 O399 2.362 . S
Tb348 O400 2.421 1_455 S
Tb348 C412 2.833 . S
C349 C352 1.432 . S
C349 C353 1.414 . S
C349 N356 1.359 . S
C350 C352 1.417 . S
C350 C354 1.432 . S
C350 C362 1.410 . S
C351 C353 1.444 . S
C351 C354 1.317 . S
C351 H374 0.929 . S
C352 C349 1.432 . S
C352 C350 1.417 . S
C352 N360 1.360 . S
C353 C349 1.414 . S
C353 C351 1.444 . S
C353 C358 1.385 1_655 S
C354 C350 1.432 . S
C354 C351 1.317 . S
C354 H366 0.930 . S
C355 C357 1.392 . S
C355 C358 1.370 . S
C355 H367 0.931 . S
N356 C349 1.359 . S
N356 C357 1.327 1_655 S
N356 Tb359 2.600 . S
C357 C355 1.392 . S
C357 N356 1.327 1_455 S
C357 H364 0.930 . S
C358 C353 1.385 1_455 S
C358 C355 1.370 . S
C358 H377 0.930 . S
Tb359 N356 2.600 . S
Tb359 N360 2.660 . S
Tb359 O393 2.362 1_655 S
Tb359 O394 2.421 1_655 S
Tb359 O398 2.546 . S
Tb359 O399 2.610 1_655 S
Tb359 O401 2.320 . S
Tb359 O402 2.552 . S
Tb359 O403 2.413 . S
Tb359 C423 2.833 . S
N360 C352 1.360 . S
N360 Tb359 2.660 . S
N360 C361 1.305 . S
C361 N360 1.305 . S
C361 C363 1.407 . S
C361 H368 0.930 . S
C362 C350 1.410 . S
C362 C363 1.345 . S
C362 H370 0.930 . S
C363 C361 1.407 . S
C363 C362 1.345 . S
C363 H365 0.930 . S
H364 C357 0.930 . S
H365 C363 0.930 . S
H366 C354 0.930 . S
H367 C355 0.931 . S
H368 C361 0.930 . S
H369 C383 0.930 . S
H370 C362 0.930 . S
H371 C389 0.930 1_655 S
H372 C380 0.930 . S
H373 C387 0.931 1_655 S
H374 C351 0.929 . S
H375 C381 0.930 . S
H376 C414 0.930 . S
H377 C358 0.930 . S
H378 C413 0.929 . S
N379 Tb348 2.660 . S
N379 C380 1.305 . S
N379 C384 1.360 . S
C380 H372 0.930 . S
C380 N379 1.305 . S
C380 C383 1.407 . S
C381 H375 0.930 . S
C381 C382 1.410 . S
C381 C383 1.345 . S
C382 C381 1.410 . S
C382 C384 1.417 . S
C382 C414 1.432 . S
C383 H369 0.930 . S
C383 C380 1.407 . S
C383 C381 1.345 . S
C384 N379 1.360 . S
C384 C382 1.417 . S
C384 C388 1.432 . S
H385 C390 0.930 . S
N386 Tb348 2.600 . S
N386 C388 1.359 . S
N386 C389 1.327 . S
C387 H373 0.931 1_455 S
C387 C389 1.392 . S
C387 C390 1.370 . S
C388 C384 1.432 . S
C388 N386 1.359 . S
C388 C391 1.414 . S
C389 H371 0.930 1_455 S
C389 N386 1.327 . S
C389 C387 1.392 . S
C390 H385 0.930 . S
C390 C387 1.370 . S
C390 C391 1.385 . S
C391 C388 1.414 . S
C391 C390 1.385 . S
C391 C413 1.444 . S
O392 Tb348 2.546 . S
O392 C412 1.251 . S
O393 Tb348 2.610 . S
O393 Tb359 2.362 1_455 S
O393 C404 1.283 . S
O394 Tb359 2.421 1_455 S
O394 C411 1.262 . S
O395 Tb348 2.320 . S
O395 C411 1.260 . S
O396 Tb348 2.552 . S
O396 C404 1.243 . S
O397 Tb348 2.413 . S
O397 C412 1.256 . S
O398 Tb359 2.546 . S
O398 C423 1.251 . S
O399 Tb348 2.362 . S
O399 Tb359 2.610 1_455 S
O399 C415 1.283 1_455 S
O400 Tb348 2.421 1_655 S
O400 C422 1.262 . S
O401 Tb359 2.320 . S
O401 C422 1.260 . S
O402 Tb359 2.552 . S
O402 C415 1.243 . S
O403 Tb359 2.413 . S
O403 C423 1.256 . S
C404 O393 1.283 . S
C404 O396 1.243 . S
C405 C407 1.382 . S
C405 C409 1.393 . S
C405 C412 1.500 . S
C406 C407 1.400 . S
C406 C408 1.384 . S
C407 C405 1.382 . S
C407 C406 1.400 . S
C407 H424 0.930 . S
C408 C406 1.384 . S
C408 C410 1.392 . S
C408 H425 0.931 . S
C409 C405 1.393 . S
C409 C410 1.401 . S
C409 H426 0.930 . S
C410 C408 1.392 . S
C410 C409 1.401 . S
C410 H427 0.930 . S
C411 O394 1.262 . S
C411 O395 1.260 . S
C412 Tb348 2.833 . S
C412 O392 1.251 . S
C412 O397 1.256 . S
C412 C405 1.500 . S
C413 H378 0.929 . S
C413 C391 1.444 . S
C413 C414 1.317 . S
C414 H376 0.930 . S
C414 C382 1.432 . S
C414 C413 1.317 . S
C415 O399 1.283 1_655 S
C415 O402 1.243 . S
C416 C417 1.382 . S
C416 C420 1.393 . S
C416 C423 1.500 . S
C417 C416 1.382 . S
C417 C418 1.400 . S
C417 H428 0.930 . S
C418 C417 1.400 . S
C418 C419 1.384 . S
C419 C418 1.384 . S
C419 C421 1.392 . S
C419 H429 0.931 . S
C420 C416 1.393 . S
C420 C421 1.401 . S
C420 H430 0.930 . S
C421 C419 1.392 . S
C421 C420 1.401 . S
C421 H431 0.930 1_556 S
C422 O400 1.262 . S
C422 O401 1.260 . S
C423 Tb359 2.833 . S
C423 O398 1.251 . S
C423 O403 1.256 . S
C423 C416 1.500 . S
H424 C407 0.930 . S
H425 C408 0.931 . S
H426 C409 0.930 . S
H427 C410 0.930 . S
H428 C417 0.930 . S
H429 C419 0.931 . S
H430 C420 0.930 . S
H431 C421 0.930 1_554 S
H432 C450 0.951 . S
H433 C452 0.951 . S
H434 C454 0.950 . S
H435 C455 0.950 . S
H436 C457 0.950 . S
H437 C460 0.950 . S
H438 C461 0.950 1_565 S
H439 C463 0.950 . S
H440 C464 0.950 . S
H441 C465 0.951 . S
H442 C467 0.951 . S
H443 C469 0.950 . S
H444 C470 0.950 . S
H445 C472 0.950 . S
H446 C475 0.950 . S
H447 C476 0.950 . S
H448 C478 0.950 . S
H449 C479 0.950 . S
C450 H432 0.951 . S
C450 C451 1.366 . S
C450 C452 1.388 . S
C451 C450 1.366 . S
C451 C455 1.385 . S
C452 H433 0.951 . S
C452 C450 1.388 . S
C452 C453 1.366 . S
C453 C452 1.366 . S
C453 C454 1.414 . S
C453 C456 1.499 . S
C454 H434 0.950 . S
C454 C453 1.414 . S
C454 C455 1.374 . S
C455 H435 0.950 . S
C455 C451 1.385 . S
C455 C454 1.374 . S
C456 C453 1.499 . S
C456 C457 1.373 . S
C456 C458 1.389 . S
C457 H436 0.950 . S
C457 C456 1.373 . S
C457 C473 1.377 . S
C458 C456 1.389 . S
C458 C459 1.524 . S
C458 C472 1.377 . S
C459 C458 1.524 . S
C459 C460 1.397 . S
C459 C464 1.363 . S
C460 H437 0.950 . S
C460 C459 1.397 . S
C460 C461 1.334 . S
C461 H438 0.950 1_545 S
C461 C460 1.334 . S
C461 C462 1.287 . S
C462 C461 1.287 . S
C462 C463 1.524 . S
C462 H481 0.913 . S
C463 H439 0.950 . S
C463 C462 1.524 . S
C463 C464 1.415 . S
C464 H440 0.950 . S
C464 C459 1.363 . S
C464 C463 1.415 . S
C465 H441 0.951 . S
C465 C466 1.366 . S
C465 C467 1.388 . S
C466 C465 1.366 . S
C466 C470 1.385 . S
C467 H442 0.951 . S
C467 C465 1.388 . S
C467 C468 1.366 . S
C468 C467 1.366 . S
C468 C469 1.414 . S
C468 C471 1.499 . S
C469 H443 0.950 . S
C469 C468 1.414 . S
C469 C470 1.374 . S
C470 H444 0.950 . S
C470 C466 1.385 . S
C470 C469 1.374 . S
C471 C468 1.499 . S
C471 C472 1.373 . S
C471 C473 1.389 . S
C472 H445 0.950 . S
C472 C458 1.377 . S
C472 C471 1.373 . S
C473 C457 1.377 . S
C473 C471 1.389 . S
C473 C474 1.524 . S
C474 C473 1.524 . S
C474 C475 1.397 . S
C474 C479 1.363 . S
C475 H446 0.950 . S
C475 C474 1.397 . S
C475 C476 1.334 . S
C476 H447 0.950 . S
C476 C475 1.334 . S
C476 C477 1.287 . S
C477 C476 1.287 . S
C477 C478 1.524 . S
C477 H480 0.999 . S
C478 H448 0.950 . S
C478 C477 1.524 . S
C478 C479 1.415 . S
C479 H449 0.950 . S
C479 C474 1.363 . S
C479 C478 1.415 . S
H480 C477 0.999 . S
H481 C462 0.913 . S
H482 C500 0.951 . S
H483 C502 0.951 . S
H484 C504 0.950 . S
H485 C505 0.950 . S
H486 C507 0.950 . S
H487 C510 0.950 . S
H488 C511 0.950 . S
H489 C513 0.950 . S
H490 C514 0.950 . S
H491 C515 0.951 . S
H492 C517 0.951 . S
H493 C519 0.950 . S
H494 C520 0.950 . S
H495 C522 0.950 . S
H496 C525 0.950 . S
H497 C526 0.950 . S
H498 C528 0.950 . S
H499 C529 0.950 . S
C500 H482 0.951 . S
C500 C501 1.366 . S
C500 C502 1.388 . S
C501 C500 1.366 . S
C501 C505 1.385 . S
C502 H483 0.951 . S
C502 C500 1.388 . S
C502 C503 1.366 . S
C503 C502 1.366 . S
C503 C504 1.414 . S
C503 C506 1.499 . S
C504 H484 0.950 . S
C504 C503 1.414 . S
C504 C505 1.374 . S
C505 H485 0.950 . S
C505 C501 1.385 . S
C505 C504 1.374 . S
C506 C503 1.499 . S
C506 C507 1.373 . S
C506 C508 1.389 . S
C507 H486 0.950 . S
C507 C506 1.373 . S
C507 C523 1.377 . S
C508 C506 1.389 . S
C508 C509 1.524 . S
C508 C522 1.377 . S
C509 C508 1.524 . S
C509 C510 1.397 . S
C509 C514 1.363 . S
C510 H487 0.950 . S
C510 C509 1.397 . S
C510 C511 1.334 . S
C511 H488 0.950 . S
C511 C510 1.334 . S
C511 C512 1.287 . S
C512 C511 1.287 . S
C512 C513 1.524 . S
C512 H531 0.913 . S
C513 H489 0.950 . S
C513 C512 1.524 . S
C513 C514 1.415 . S
C514 H490 0.950 . S
C514 C509 1.363 . S
C514 C513 1.415 . S
C515 H491 0.951 . S
C515 C516 1.366 . S
C515 C517 1.388 . S
C516 C515 1.366 . S
C516 C520 1.385 . S
C517 H492 0.951 . S
C517 C515 1.388 . S
C517 C518 1.366 . S
C518 C517 1.366 . S
C518 C519 1.414 . S
C518 C521 1.499 . S
C519 H493 0.950 . S
C519 C518 1.414 . S
C519 C520 1.374 . S
C520 H494 0.950 . S
C520 C516 1.385 . S
C520 C519 1.374 . S
C521 C518 1.499 . S
C521 C522 1.373 . S
C521 C523 1.389 . S
C522 H495 0.950 . S
C522 C508 1.377 . S
C522 C521 1.373 . S
C523 C507 1.377 . S
C523 C521 1.389 . S
C523 C524 1.524 . S
C524 C523 1.524 . S
C524 C525 1.397 . S
C524 C529 1.363 . S
C525 H496 0.950 . S
C525 C524 1.397 . S
C525 C526 1.334 . S
C526 H497 0.950 . S
C526 C525 1.334 . S
C526 C527 1.287 . S
C527 C526 1.287 . S
C527 C528 1.524 . S
C527 H530 0.999 . S
C528 H498 0.950 . S
C528 C527 1.524 . S
C528 C529 1.415 . S
C529 H499 0.950 . S
C529 C524 1.363 . S
C529 C528 1.415 . S
H530 C527 0.999 . S
H531 C512 0.913 . S
H532 C550 0.951 . S
H533 C552 0.951 . S
H534 C554 0.950 . S
H535 C555 0.950 . S
H536 C557 0.950 . S
H537 C560 0.950 . S
H538 C561 0.950 . S
H539 C563 0.950 . S
H540 C564 0.950 . S
H541 C565 0.951 . S
H542 C567 0.951 . S
H543 C569 0.950 . S
H544 C570 0.950 . S
H545 C572 0.950 . S
H546 C575 0.950 . S
H547 C576 0.950 . S
H548 C578 0.950 . S
H549 C579 0.950 . S
C550 H532 0.951 . S
C550 C551 1.366 . S
C550 C552 1.388 . S
C551 C550 1.366 . S
C551 C555 1.385 . S
C552 H533 0.951 . S
C552 C550 1.388 . S
C552 C553 1.366 . S
C553 C552 1.366 . S
C553 C554 1.414 . S
C553 C556 1.499 . S
C554 H534 0.950 . S
C554 C553 1.414 . S
C554 C555 1.374 . S
C555 H535 0.950 . S
C555 C551 1.385 . S
C555 C554 1.374 . S
C556 C553 1.499 . S
C556 C557 1.373 . S
C556 C558 1.389 . S
C557 H536 0.950 . S
C557 C556 1.373 . S
C557 C573 1.377 . S
C558 C556 1.389 . S
C558 C559 1.524 . S
C558 C572 1.377 . S
C559 C558 1.524 . S
C559 C560 1.397 . S
C559 C564 1.363 . S
C560 H537 0.950 . S
C560 C559 1.397 . S
C560 C561 1.334 . S
C561 H538 0.950 . S
C561 C560 1.334 . S
C561 C562 1.287 . S
C562 C561 1.287 . S
C562 C563 1.524 . S
C562 H581 0.913 . S
C563 H539 0.950 . S
C563 C562 1.524 . S
C563 C564 1.415 . S
C564 H540 0.950 . S
C564 C559 1.363 . S
C564 C563 1.415 . S
C565 H541 0.951 . S
C565 C566 1.366 . S
C565 C567 1.388 . S
C566 C565 1.366 . S
C566 C570 1.385 . S
C567 H542 0.951 . S
C567 C565 1.388 . S
C567 C568 1.366 . S
C568 C567 1.366 . S
C568 C569 1.414 . S
C568 C571 1.499 . S
C569 H543 0.950 . S
C569 C568 1.414 . S
C569 C570 1.374 . S
C570 H544 0.950 . S
C570 C566 1.385 . S
C570 C569 1.374 . S
C571 C568 1.499 . S
C571 C572 1.373 . S
C571 C573 1.389 . S
C572 H545 0.950 . S
C572 C558 1.377 . S
C572 C571 1.373 . S
C573 C557 1.377 . S
C573 C571 1.389 . S
C573 C574 1.524 . S
C574 C573 1.524 . S
C574 C575 1.397 . S
C574 C579 1.363 . S
C575 H546 0.950 . S
C575 C574 1.397 . S
C575 C576 1.334 . S
C576 H547 0.950 . S
C576 C575 1.334 . S
C576 C577 1.287 . S
C577 C576 1.287 . S
C577 C578 1.524 . S
C577 H580 0.999 . S
C578 H548 0.950 . S
C578 C577 1.524 . S
C578 C579 1.415 . S
C579 H549 0.950 . S
C579 C574 1.363 . S
C579 C578 1.415 . S
H580 C577 0.999 . S
H581 C562 0.913 . S
H582 C600 0.951 . S
H583 C602 0.951 . S
H584 C604 0.950 . S
H585 C605 0.950 . S
H586 C607 0.950 . S
H587 C610 0.950 . S
H588 C611 0.950 . S
H589 C613 0.950 . S
H590 C614 0.950 . S
H591 C615 0.951 . S
H592 C617 0.951 . S
H593 C619 0.980 . S
H594 C620 0.950 1_655 S
H595 C622 0.950 . S
H596 C625 0.950 . S
H597 C626 0.950 . S
H598 C628 0.950 . S
H599 C629 0.950 . S
C600 H582 0.951 . S
C600 C601 1.366 . S
C600 C602 1.388 . S
C601 C600 1.366 . S
C601 C605 1.385 . S
C602 H583 0.951 . S
C602 C600 1.388 . S
C602 C603 1.366 . S
C603 C602 1.366 . S
C603 C604 1.414 . S
C603 C606 1.499 . S
C604 H584 0.950 . S
C604 C603 1.414 . S
C604 C605 1.374 . S
C605 H585 0.950 . S
C605 C601 1.385 . S
C605 C604 1.374 . S
C606 C603 1.499 . S
C606 C607 1.373 . S
C606 C608 1.389 . S
C607 H586 0.950 . S
C607 C606 1.373 . S
C607 C623 1.377 . S
C608 C606 1.389 . S
C608 C609 1.524 . S
C608 C622 1.377 . S
C609 C608 1.524 . S
C609 C610 1.397 . S
C609 C614 1.363 1_455 S
C610 H587 0.950 . S
C610 C609 1.397 . S
C610 C611 1.334 . S
C611 H588 0.950 . S
C611 C610 1.334 . S
C611 C612 1.287 1_455 S
C612 C611 1.287 1_655 S
C612 C613 1.524 . S
C612 H631 0.913 . S
C613 H589 0.950 . S
C613 C612 1.524 . S
C613 C614 1.415 . S
C614 H590 0.950 . S
C614 C609 1.363 1_655 S
C614 C613 1.415 . S
C615 H591 0.951 . S
C615 C616 1.366 . S
C615 C617 1.388 . S
C616 C615 1.366 . S
C616 C620 1.385 . S
C617 H592 0.951 . S
C617 C615 1.388 . S
C617 C618 1.366 . S
C618 C617 1.366 . S
C618 C619 1.414 . S
C618 C621 1.499 . S
C619 H593 0.980 . S
C619 C618 1.414 . S
C619 C620 1.374 . S
C620 H594 0.950 1_455 S
C620 C616 1.385 . S
C620 C619 1.374 . S
C621 C618 1.499 . S
C621 C622 1.373 . S
C621 C623 1.389 . S
C622 H595 0.950 . S
C622 C608 1.377 . S
C622 C621 1.373 . S
C623 C607 1.377 . S
C623 C621 1.389 . S
C623 C624 1.524 . S
C624 C623 1.524 . S
C624 C625 1.397 . S
C624 C629 1.363 . S
C625 H596 0.950 . S
C625 C624 1.397 . S
C625 C626 1.334 . S
C626 H597 0.950 . S
C626 C625 1.334 . S
C626 C627 1.287 . S
C627 C626 1.287 . S
C627 C628 1.524 . S
C627 H630 0.999 . S
C628 H598 0.950 . S
C628 C627 1.524 . S
C628 C629 1.415 . S
C629 H599 0.950 . S
C629 C624 1.363 . S
C629 C628 1.415 . S
H630 C627 0.999 . S
H631 C612 0.913 . S
H632 C650 0.951 . S
H633 C652 0.951 . S
H634 C654 0.950 . S
H635 C655 0.950 . S
H636 C657 0.950 1_554 S
H637 C660 0.950 . S
H638 C661 0.950 . S
H639 C663 0.950 . S
H640 C664 0.950 . S
H641 C665 0.951 . S
H642 C667 0.951 . S
H643 C669 0.950 . S
H644 C670 0.950 . S
H645 C672 0.950 . S
H646 C675 0.950 . S
H647 C676 0.950 . S
H648 C678 0.950 . S
H649 C679 0.950 . S
C650 H632 0.951 . S
C650 C651 1.366 . S
C650 C652 1.388 . S
C651 C650 1.366 . S
C651 C655 1.385 . S
C652 H633 0.951 . S
C652 C650 1.388 . S
C652 C653 1.366 . S
C653 C652 1.366 . S
C653 C654 1.414 . S
C653 C656 1.499 1_554 S
C654 H634 0.950 . S
C654 C653 1.414 . S
C654 C655 1.374 . S
C655 H635 0.950 . S
C655 C651 1.385 . S
C655 C654 1.374 . S
C656 C653 1.499 1_556 S
C656 C657 1.373 . S
C656 C658 1.389 . S
C657 H636 0.950 1_556 S
C657 C656 1.373 . S
C657 C673 1.377 . S
C658 C656 1.389 . S
C658 C659 1.524 . S
C658 C672 1.377 . S
C659 C658 1.524 . S
C659 C660 1.397 . S
C659 C664 1.363 1_565 S
C660 H637 0.950 . S
C660 C659 1.397 . S
C660 C661 1.334 . S
C661 H638 0.950 . S
C661 C660 1.334 . S
C661 C662 1.335 . S
C662 C661 1.335 . S
C662 C663 1.484 1_565 S
C662 H681 0.902 1_565 S
C663 H639 0.950 . S
C663 C662 1.484 1_545 S
C663 C664 1.415 . S
C664 H640 0.950 . S
C664 C659 1.363 1_545 S
C664 C663 1.415 . S
C665 H641 0.951 . S
C665 C666 1.366 . S
C665 C667 1.388 . S
C666 C665 1.366 . S
C666 C670 1.385 1_565 S
C667 H642 0.951 . S
C667 C665 1.388 . S
C667 C668 1.366 . S
C668 C667 1.366 . S
C668 C669 1.414 1_565 S
C668 C671 1.499 . S
C669 H643 0.950 . S
C669 C668 1.414 1_545 S
C669 C670 1.374 . S
C670 H644 0.950 . S
C670 C666 1.385 1_545 S
C670 C669 1.374 . S
C671 C668 1.499 . S
C671 C672 1.373 . S
C671 C673 1.389 . S
C672 H645 0.950 . S
C672 C658 1.377 . S
C672 C671 1.373 . S
C673 C657 1.377 . S
C673 C671 1.389 . S
C673 C674 1.524 . S
C674 C673 1.524 . S
C674 C675 1.397 . S
C674 C679 1.363 . S
C675 H646 0.950 . S
C675 C674 1.397 . S
C675 C676 1.334 . S
C676 H647 0.950 . S
C676 C675 1.334 . S
C676 C677 1.287 1_556 S
C677 C676 1.287 1_554 S
C677 C678 1.524 . S
C677 H680 0.999 . S
C678 H648 0.950 . S
C678 C677 1.524 . S
C678 C679 1.415 1_554 S
C679 H649 0.950 . S
C679 C674 1.363 . S
C679 C678 1.415 1_556 S
H680 C677 0.999 . S
H681 C662 0.902 1_545 S
H682 C700 0.951 . S
H683 C702 0.951 . S
H684 C704 0.950 1_556 S
H685 C705 0.950 . S
H686 C707 0.950 . S
H687 C710 0.950 . S
H688 C711 0.950 . S
H689 C713 0.950 . S
H690 C714 0.950 . S
H691 C715 0.951 . S
H692 C717 0.951 . S
H693 C719 0.950 . S
H694 C720 0.950 . S
H695 C722 0.950 . S
H696 C725 0.950 . S
H697 C726 0.950 . S
H698 C728 0.950 . S
H699 C729 0.950 . S
C700 H682 0.951 . S
C700 C701 1.366 . S
C700 C702 1.388 . S
C701 C700 1.366 . S
C701 C705 1.385 . S
C702 H683 0.951 . S
C702 C700 1.388 . S
C702 C703 1.366 . S
C703 C702 1.366 . S
C703 C704 1.414 . S
C703 C706 1.499 1_554 S
C704 H684 0.950 1_554 S
C704 C703 1.414 . S
C704 C705 1.374 . S
C705 H685 0.950 . S
C705 C701 1.385 . S
C705 C704 1.374 . S
C706 C703 1.499 1_556 S
C706 C707 1.373 . S
C706 C708 1.389 . S
C707 H686 0.950 . S
C707 C706 1.373 . S
C707 C723 1.377 . S
C708 C706 1.389 . S
C708 C709 1.524 . S
C708 C722 1.377 . S
C709 C708 1.524 . S
C709 C710 1.397 . S
C709 C714 1.363 . S
C710 H687 0.950 . S
C710 C709 1.397 . S
C710 C711 1.334 . S
C711 H688 0.950 . S
C711 C710 1.334 . S
C711 C712 1.287 . S
C712 C711 1.287 . S
C712 C713 1.524 . S
C712 H731 0.913 . S
C713 H689 0.950 . S
C713 C712 1.524 . S
C713 C714 1.415 . S
C714 H690 0.950 . S
C714 C709 1.363 . S
C714 C713 1.415 . S
C715 H691 0.951 . S
C715 C716 1.366 . S
C715 C717 1.388 . S
C716 C715 1.366 . S
C716 C720 1.385 . S
C717 H692 0.951 . S
C717 C715 1.388 . S
C717 C718 1.366 . S
C718 C717 1.366 . S
C718 C719 1.414 . S
C718 C721 1.499 . S
C719 H693 0.950 . S
C719 C718 1.414 . S
C719 C720 1.374 . S
C720 H694 0.950 . S
C720 C716 1.385 . S
C720 C719 1.374 . S
C721 C718 1.499 . S
C721 C722 1.373 . S
C721 C723 1.389 . S
C722 H695 0.950 . S
C722 C708 1.377 . S
C722 C721 1.373 . S
C723 C707 1.377 . S
C723 C721 1.389 . S
C723 C724 1.524 . S
C724 C723 1.524 . S
C724 C725 1.397 . S
C724 C729 1.363 . S
C725 H696 0.950 . S
C725 C724 1.397 . S
C725 C726 1.334 . S
C726 H697 0.950 . S
C726 C725 1.334 . S
C726 C727 1.287 . S
C727 C726 1.287 . S
C727 C728 1.524 . S
C727 H730 0.999 . S
C728 H698 0.950 . S
C728 C727 1.524 . S
C728 C729 1.415 . S
C729 H699 0.950 . S
C729 C724 1.363 . S
C729 C728 1.415 . S
H730 C727 0.999 . S
H731 C712 0.913 . S
H732 C750 0.951 . S
H733 C752 0.951 . S
H734 C754 0.950 1_556 S
H735 C755 0.950 . S
H736 C757 0.950 . S
H737 C760 0.950 . S
H738 C761 0.950 . S
H739 C763 0.950 . S
H740 C764 0.950 . S
H741 C765 0.951 . S
H742 C767 0.951 . S
H743 C769 0.950 . S
H744 C770 0.950 . S
H745 C772 0.950 . S
H746 C775 0.950 . S
H747 C776 0.950 . S
H748 C778 0.950 . S
H749 C779 0.950 . S
C750 H732 0.951 . S
C750 C751 1.366 . S
C750 C752 1.388 . S
C751 C750 1.366 . S
C751 C755 1.385 . S
C752 H733 0.951 . S
C752 C750 1.388 . S
C752 C753 1.366 . S
C753 C752 1.366 . S
C753 C754 1.414 . S
C753 C756 1.499 1_554 S
C754 H734 0.950 1_554 S
C754 C753 1.414 . S
C754 C755 1.374 . S
C755 H735 0.950 . S
C755 C751 1.385 . S
C755 C754 1.374 . S
C756 C753 1.499 1_556 S
C756 C757 1.373 . S
C756 C758 1.389 . S
C757 H736 0.950 . S
C757 C756 1.373 . S
C757 C773 1.377 . S
C758 C756 1.389 . S
C758 C759 1.524 1_556 S
C758 C772 1.377 . S
C759 C758 1.524 1_554 S
C759 C760 1.397 . S
C759 C764 1.363 . S
C760 H737 0.950 . S
C760 C759 1.397 . S
C760 C761 1.334 . S
C761 H738 0.950 . S
C761 C760 1.334 . S
C761 C762 1.287 . S
C762 C761 1.287 . S
C762 C763 1.524 . S
C762 H781 0.913 . S
C763 H739 0.950 . S
C763 C762 1.524 . S
C763 C764 1.415 . S
C764 H740 0.950 . S
C764 C759 1.363 . S
C764 C763 1.415 . S
C765 H741 0.951 . S
C765 C766 1.366 . S
C765 C767 1.388 . S
C766 C765 1.366 . S
C766 C770 1.385 . S
C767 H742 0.951 . S
C767 C765 1.388 . S
C767 C768 1.366 . S
C768 C767 1.366 . S
C768 C769 1.414 . S
C768 C771 1.499 . S
C769 H743 0.950 . S
C769 C768 1.414 . S
C769 C770 1.374 . S
C770 H744 0.950 . S
C770 C766 1.385 . S
C770 C769 1.374 . S
C771 C768 1.499 . S
C771 C772 1.373 . S
C771 C773 1.389 . S
C772 H745 0.950 . S
C772 C758 1.377 . S
C772 C771 1.373 . S
C773 C757 1.377 . S
C773 C771 1.389 . S
C773 C774 1.524 . S
C774 C773 1.524 . S
C774 C775 1.397 . S
C774 C779 1.363 . S
C775 H746 0.950 . S
C775 C774 1.397 . S
C775 C776 1.334 . S
C776 H747 0.950 . S
C776 C775 1.334 . S
C776 C777 1.287 . S
C777 C776 1.287 . S
C777 C778 1.524 . S
C777 H780 0.999 . S
C778 H748 0.950 . S
C778 C777 1.524 . S
C778 C779 1.415 . S
C779 H749 0.950 . S
C779 C774 1.363 . S
C779 C778 1.415 . S
H780 C777 0.999 . S
H781 C762 0.913 . S
H782 C800 0.951 . S
H783 C802 0.951 . S
H784 C804 0.950 . S
H785 C805 0.950 . S
H786 C807 0.950 . S
H787 C810 0.950 . S
H788 C811 0.950 . S
H789 C813 0.950 . S
H790 C814 0.950 . S
H791 C815 0.951 . S
H792 C817 0.969 . S
H793 C819 0.950 . S
H794 C820 0.950 . S
H795 C822 0.950 . S
H796 C825 0.950 1_655 S
H797 C826 0.950 . S
H798 C828 0.950 . S
H799 C829 0.950 . S
C800 H782 0.951 . S
C800 C801 1.366 . S
C800 C802 1.388 . S
C801 C800 1.366 . S
C801 C805 1.385 . S
C802 H783 0.951 . S
C802 C800 1.388 . S
C802 C803 1.366 . S
C803 C802 1.366 . S
C803 C804 1.414 . S
C803 C806 1.499 1_554 S
C804 H784 0.950 . S
C804 C803 1.414 . S
C804 C805 1.374 . S
C805 H785 0.950 . S
C805 C801 1.385 . S
C805 C804 1.374 . S
C806 C803 1.499 1_556 S
C806 C807 1.373 . S
C806 C808 1.389 . S
C807 H786 0.950 . S
C807 C806 1.373 . S
C807 C823 1.377 . S
C808 C806 1.389 . S
C808 C809 1.524 1_556 S
C808 C822 1.377 . S
C809 C808 1.524 1_554 S
C809 C810 1.397 . S
C809 C814 1.363 1_554 S
C810 H787 0.950 . S
C810 C809 1.397 . S
C810 C811 1.334 . S
C811 H788 0.950 . S
C811 C810 1.334 . S
C811 C812 1.287 . S
C812 C811 1.287 . S
C812 C813 1.524 . S
C812 H831 0.913 . S
C813 H789 0.950 . S
C813 C812 1.524 . S
C813 C814 1.415 1_554 S
C814 H790 0.950 . S
C814 C809 1.363 1_556 S
C814 C813 1.415 1_556 S
C815 H791 0.951 . S
C815 C816 1.366 1_455 S
C815 C817 1.394 . S
C816 C815 1.366 1_655 S
C816 C820 1.385 . S
C817 H792 0.969 . S
C817 C815 1.394 . S
C817 C818 1.342 1_455 S
C818 C817 1.342 1_655 S
C818 C819 1.414 . S
C818 C821 1.499 . S
C819 H793 0.950 . S
C819 C818 1.414 . S
C819 C820 1.374 . S
C820 H794 0.950 . S
C820 C816 1.385 . S
C820 C819 1.374 . S
C821 C818 1.499 . S
C821 C822 1.373 . S
C821 C823 1.389 . S
C822 H795 0.950 . S
C822 C808 1.377 . S
C822 C821 1.373 . S
C823 C807 1.377 . S
C823 C821 1.389 . S
C823 C824 1.524 1_655 S
C824 C823 1.524 1_455 S
C824 C825 1.397 . S
C824 C829 1.363 . S
C825 H796 0.950 1_455 S
C825 C824 1.397 . S
C825 C826 1.334 . S
C826 H797 0.950 . S
C826 C825 1.334 . S
C826 C827 1.287 . S
C827 C826 1.287 . S
C827 C828 1.524 . S
C827 H830 0.999 . S
C828 H798 0.950 . S
C828 C827 1.524 . S
C828 C829 1.415 . S
C829 H799 0.950 . S
C829 C824 1.363 . S
C829 C828 1.415 . S
H830 C827 0.999 . S
H831 C812 0.913 . S
H832 C850 0.951 . S
H833 C852 0.951 . S
H834 C854 0.950 . S
H835 C855 0.950 . S
H836 C857 0.950 . S
H837 C860 0.950 . S
H838 C861 0.950 . S
H839 C863 0.950 . S
H840 C864 0.982 . S
H841 C865 0.951 . S
H842 C867 0.951 . S
H843 C869 0.915 1_655 S
H844 C870 0.950 . S
H845 C872 0.950 . S
H846 C875 0.950 . S
H847 C876 0.950 . S
H848 C878 0.950 . S
H849 C879 0.950 . S
C850 H832 0.951 . S
C850 C851 1.366 . S
C850 C852 1.388 . S
C851 C850 1.366 . S
C851 C855 1.385 . S
C852 H833 0.951 . S
C852 C850 1.388 . S
C852 C853 1.366 . S
C853 C852 1.366 . S
C853 C854 1.414 . S
C853 C856 1.499 . S
C854 H834 0.950 . S
C854 C853 1.414 . S
C854 C855 1.374 . S
C855 H835 0.950 . S
C855 C851 1.385 . S
C855 C854 1.374 . S
C856 C853 1.499 . S
C856 C857 1.373 . S
C856 C858 1.389 . S
C857 H836 0.950 . S
C857 C856 1.373 . S
C857 C873 1.377 . S
C858 C856 1.389 . S
C858 C859 1.524 . S
C858 C872 1.377 . S
C859 C858 1.524 . S
C859 C860 1.397 . S
C859 C864 1.312 1_455 S
C860 H837 0.950 . S
C860 C859 1.397 . S
C860 C861 1.334 . S
C861 H838 0.950 . S
C861 C860 1.334 . S
C861 C862 1.287 . S
C862 C861 1.287 . S
C862 C863 1.524 1_455 S
C862 H881 0.913 . S
C863 H839 0.950 . S
C863 C862 1.524 1_655 S
C863 C864 1.436 . S
C864 H840 0.982 . S
C864 C859 1.312 1_655 S
C864 C863 1.436 . S
C865 H841 0.951 . S
C865 C866 1.366 . S
C865 C867 1.388 . S
C866 C865 1.366 . S
C866 C870 1.385 1_455 S
C867 H842 0.951 . S
C867 C865 1.388 . S
C867 C868 1.366 . S
C868 C867 1.366 . S
C868 C869 1.469 . S
C868 C871 1.499 . S
C869 H843 0.915 1_455 S
C869 C868 1.469 . S
C869 C870 1.356 1_455 S
C870 H844 0.950 . S
C870 C866 1.385 1_655 S
C870 C869 1.356 1_655 S
C871 C868 1.499 . S
C871 C872 1.373 . S
C871 C873 1.389 . S
C872 H845 0.950 . S
C872 C858 1.377 . S
C872 C871 1.373 . S
C873 C857 1.377 . S
C873 C871 1.389 . S
C873 C874 1.524 . S
C874 C873 1.524 . S
C874 C875 1.397 . S
C874 C879 1.363 . S
C875 H846 0.950 . S
C875 C874 1.397 . S
C875 C876 1.334 . S
C876 H847 0.950 . S
C876 C875 1.334 . S
C876 C877 1.287 . S
C877 C876 1.287 . S
C877 C878 1.524 . S
C877 H880 0.999 . S
C878 H848 0.950 . S
C878 C877 1.524 . S
C878 C879 1.415 . S
C879 H849 0.950 . S
C879 C874 1.363 . S
C879 C878 1.415 . S
H880 C877 0.999 . S
H881 C862 0.913 . S
H882 C900 0.951 . S
H883 C902 0.951 . S
H884 C904 0.950 . S
H885 C905 0.950 1_556 S
H886 C907 0.950 . S
H887 C910 0.950 . S
H888 C911 0.950 . S
H889 C913 0.950 . S
H890 C914 0.950 . S
H891 C915 0.951 . S
H892 C917 0.951 . S
H893 C919 0.950 . S
H894 C920 0.950 . S
H895 C922 0.950 . S
H896 C925 0.950 . S
H897 C926 0.950 . S
H898 C928 0.950 . S
H899 C929 0.950 . S
C900 H882 0.951 . S
C900 C901 1.366 . S
C900 C902 1.388 . S
C901 C900 1.366 . S
C901 C905 1.385 . S
C902 H883 0.951 . S
C902 C900 1.388 . S
C902 C903 1.366 . S
C903 C902 1.366 . S
C903 C904 1.414 . S
C903 C906 1.499 . S
C904 H884 0.950 . S
C904 C903 1.414 . S
C904 C905 1.374 . S
C905 H885 0.950 1_554 S
C905 C901 1.385 . S
C905 C904 1.374 . S
C906 C903 1.499 . S
C906 C907 1.373 . S
C906 C908 1.389 . S
C907 H886 0.950 . S
C907 C906 1.373 . S
C907 C923 1.377 . S
C908 C906 1.389 . S
C908 C909 1.524 . S
C908 C922 1.377 . S
C909 C908 1.524 . S
C909 C910 1.397 . S
C909 C914 1.363 . S
C910 H887 0.950 . S
C910 C909 1.397 . S
C910 C911 1.334 . S
C911 H888 0.950 . S
C911 C910 1.334 . S
C911 C912 1.287 . S
C912 C911 1.287 . S
C912 C913 1.524 . S
C912 H931 0.913 . S
C913 H889 0.950 . S
C913 C912 1.524 . S
C913 C914 1.415 . S
C914 H890 0.950 . S
C914 C909 1.363 . S
C914 C913 1.415 . S
C915 H891 0.951 . S
C915 C916 1.366 . S
C915 C917 1.388 . S
C916 C915 1.366 . S
C916 C920 1.385 . S
C917 H892 0.951 . S
C917 C915 1.388 . S
C917 C918 1.366 . S
C918 C917 1.366 . S
C918 C919 1.414 . S
C918 C921 1.499 . S
C919 H893 0.950 . S
C919 C918 1.414 . S
C919 C920 1.374 . S
C920 H894 0.950 . S
C920 C916 1.385 . S
C920 C919 1.374 . S
C921 C918 1.499 . S
C921 C922 1.373 . S
C921 C923 1.389 . S
C922 H895 0.950 . S
C922 C908 1.377 . S
C922 C921 1.373 . S
C923 C907 1.377 . S
C923 C921 1.389 . S
C923 C924 1.524 . S
C924 C923 1.524 . S
C924 C925 1.397 1_545 S
C924 C929 1.363 . S
C925 H896 0.950 . S
C925 C924 1.397 1_565 S
C925 C926 1.334 . S
C926 H897 0.950 . S
C926 C925 1.334 . S
C926 C927 1.287 . S
C927 C926 1.287 . S
C927 C928 1.524 . S
C927 H930 0.999 . S
C928 H898 0.950 . S
C928 C927 1.524 . S
C928 C929 1.415 1_565 S
C929 H899 0.950 . S
C929 C924 1.363 . S
C929 C928 1.415 1_545 S
H930 C927 0.999 . S
H931 C912 0.913 . S
H932 C950 0.951 . S
H933 C952 0.951 . S
H934 C954 0.950 . S
H935 C955 0.950 . S
H936 C957 0.950 . S
H937 C960 0.950 . S
H938 C961 0.950 . S
H939 C963 0.950 . S
H940 C964 0.950 . S
H941 C965 0.951 . S
H942 C967 0.951 . S
H943 C969 0.950 . S
H944 C970 0.950 . S
H945 C972 0.950 . S
H946 C975 0.950 . S
H947 C976 0.950 . S
H948 C978 0.950 1_556 S
H949 C979 0.950 . S
C950 H932 0.951 . S
C950 C951 1.366 . S
C950 C952 1.388 . S
C951 C950 1.366 . S
C951 C955 1.385 . S
C952 H933 0.951 . S
C952 C950 1.388 . S
C952 C953 1.366 . S
C953 C952 1.366 . S
C953 C954 1.414 . S
C953 C956 1.499 . S
C954 H934 0.950 . S
C954 C953 1.414 . S
C954 C955 1.374 . S
C955 H935 0.950 . S
C955 C951 1.385 . S
C955 C954 1.374 . S
C956 C953 1.499 . S
C956 C957 1.373 . S
C956 C958 1.389 . S
C957 H936 0.950 . S
C957 C956 1.373 . S
C957 C973 1.377 . S
C958 C956 1.389 . S
C958 C959 1.524 . S
C958 C972 1.377 . S
C959 C958 1.524 . S
C959 C960 1.397 . S
C959 C964 1.363 . S
C960 H937 0.950 . S
C960 C959 1.397 . S
C960 C961 1.334 . S
C961 H938 0.950 . S
C961 C960 1.334 . S
C961 C962 1.287 . S
C962 C961 1.287 . S
C962 C963 1.524 . S
C962 H981 0.913 . S
C963 H939 0.950 . S
C963 C962 1.524 . S
C963 C964 1.415 . S
C964 H940 0.950 . S
C964 C959 1.363 . S
C964 C963 1.415 . S
C965 H941 0.951 . S
C965 C966 1.366 . S
C965 C967 1.388 . S
C966 C965 1.366 . S
C966 C970 1.385 . S
C967 H942 0.951 . S
C967 C965 1.388 . S
C967 C968 1.366 . S
C968 C967 1.366 . S
C968 C969 1.414 . S
C968 C971 1.499 . S
C969 H943 0.950 . S
C969 C968 1.414 . S
C969 C970 1.374 . S
C970 H944 0.950 . S
C970 C966 1.385 . S
C970 C969 1.374 . S
C971 C968 1.499 . S
C971 C972 1.373 . S
C971 C973 1.389 . S
C972 H945 0.950 . S
C972 C958 1.377 . S
C972 C971 1.373 . S
C973 C957 1.377 . S
C973 C971 1.389 . S
C973 C974 1.524 . S
C974 C973 1.524 . S
C974 C975 1.397 . S
C974 C979 1.363 . S
C975 H946 0.950 . S
C975 C974 1.397 . S
C975 C976 1.334 . S
C976 H947 0.950 . S
C976 C975 1.334 . S
C976 C977 1.287 . S
C977 C976 1.287 . S
C977 C978 1.524 . S
C977 H980 0.999 . S
C978 H948 0.950 1_554 S
C978 C977 1.524 . S
C978 C979 1.415 . S
C979 H949 0.950 . S
C979 C974 1.363 . S
C979 C978 1.415 . S
H980 C977 0.999 . S
H981 C962 0.913 . S
H982 C1000 0.951 . S
H983 C1002 0.951 . S
H984 C1004 0.950 . S
H985 C1005 0.950 . S
H986 C1007 0.950 . S
H987 C1010 0.950 . S
H988 C1011 0.950 . S
H989 C1013 0.950 . S
H990 C1014 0.950 . S
H991 C1015 0.951 . S
H992 C1017 0.951 . S
H993 C1019 0.950 . S
H994 C1020 0.950 . S
H995 C1022 0.950 . S
H996 C1025 0.950 . S
H997 C1026 0.950 . S
H998 C1028 0.950 . S
H999 C1029 0.950 . S
C1000 H982 0.951 . S
C1000 C1001 1.366 . S
C1000 C1002 1.388 . S
C1001 C1000 1.366 . S
C1001 C1005 1.385 . S
C1002 H983 0.951 . S
C1002 C1000 1.388 . S
C1002 C1003 1.366 . S
C1003 C1002 1.366 . S
C1003 C1004 1.414 . S
C1003 C1006 1.499 . S
C1004 H984 0.950 . S
C1004 C1003 1.414 . S
C1004 C1005 1.374 . S
C1005 H985 0.950 . S
C1005 C1001 1.385 . S
C1005 C1004 1.374 . S
C1006 C1003 1.499 . S
C1006 C1007 1.373 . S
C1006 C1008 1.389 . S
C1007 H986 0.950 . S
C1007 C1006 1.373 . S
C1007 C1023 1.377 . S
C1008 C1006 1.389 . S
C1008 C1009 1.524 . S
C1008 C1022 1.377 . S
C1009 C1008 1.524 . S
C1009 C1010 1.397 . S
C1009 C1014 1.363 . S
C1010 H987 0.950 . S
C1010 C1009 1.397 . S
C1010 C1011 1.334 1_554 S
C1011 H988 0.950 . S
C1011 C1010 1.334 1_556 S
C1011 C1012 1.287 . S
C1012 C1011 1.287 . S
C1012 C1013 1.524 . S
C1012 H1031 0.913 . S
C1013 H989 0.950 . S
C1013 C1012 1.524 . S
C1013 C1014 1.415 1_556 S
C1014 H990 0.950 . S
C1014 C1009 1.363 . S
C1014 C1013 1.415 1_554 S
C1015 H991 0.951 . S
C1015 C1016 1.366 . S
C1015 C1017 1.388 . S
C1016 C1015 1.366 . S
C1016 C1020 1.385 . S
C1017 H992 0.951 . S
C1017 C1015 1.388 . S
C1017 C1018 1.366 . S
C1018 C1017 1.366 . S
C1018 C1019 1.414 . S
C1018 C1021 1.499 . S
C1019 H993 0.950 . S
C1019 C1018 1.414 . S
C1019 C1020 1.374 . S
C1020 H994 0.950 . S
C1020 C1016 1.385 . S
C1020 C1019 1.374 . S
C1021 C1018 1.499 . S
C1021 C1022 1.373 . S
C1021 C1023 1.389 . S
C1022 H995 0.950 . S
C1022 C1008 1.377 . S
C1022 C1021 1.373 . S
C1023 C1007 1.377 . S
C1023 C1021 1.389 . S
C1023 C1024 1.524 . S
C1024 C1023 1.524 . S
C1024 C1025 1.397 . S
C1024 C1029 1.363 . S
C1025 H996 0.950 . S
C1025 C1024 1.397 . S
C1025 C1026 1.334 . S
C1026 H997 0.950 . S
C1026 C1025 1.334 . S
C1026 C1027 1.287 . S
C1027 C1026 1.287 . S
C1027 C1028 1.524 . S
C1027 H1030 0.999 . S
C1028 H998 0.950 . S
C1028 C1027 1.524 . S
C1028 C1029 1.415 . S
C1029 H999 0.950 . S
C1029 C1024 1.363 . S
C1029 C1028 1.415 . S
H1030 C1027 0.999 . S
H1031 C1012 0.913 . S
H1032 C1050 0.951 . S
H1033 C1052 0.951 . S
H1034 C1054 0.950 . S
H1035 C1055 0.950 . S
H1036 C1057 0.950 . S
H1037 C1060 0.950 . S
H1038 C1061 0.950 1_655 S
H1039 C1063 0.950 . S
H1040 C1064 0.950 . S
H1041 C1065 0.951 . S
H1042 C1067 0.951 . S
H1043 C1069 0.950 . S
H1044 C1070 0.950 . S
H1045 C1072 0.950 1_455 S
H1046 C1075 0.950 . S
H1047 C1076 0.950 . S
H1048 C1078 0.950 . S
H1049 C1079 0.950 . S
C1050 H1032 0.951 . S
C1050 C1051 1.366 . S
C1050 C1052 1.388 . S
C1051 C1050 1.366 . S
C1051 C1055 1.385 . S
C1052 H1033 0.951 . S
C1052 C1050 1.388 . S
C1052 C1053 1.366 . S
C1053 C1052 1.366 . S
C1053 C1054 1.414 . S
C1053 C1056 1.499 . S
C1054 H1034 0.950 . S
C1054 C1053 1.414 . S
C1054 C1055 1.374 . S
C1055 H1035 0.950 . S
C1055 C1051 1.385 . S
C1055 C1054 1.374 . S
C1056 C1053 1.499 . S
C1056 C1057 1.373 1_554 S
C1056 C1058 1.389 . S
C1057 H1036 0.950 . S
C1057 C1056 1.373 1_556 S
C1057 C1073 1.377 . S
C1058 C1056 1.389 . S
C1058 C1059 1.508 1_655 S
C1058 C1072 1.377 . S
C1059 C1058 1.508 1_455 S
C1059 C1060 1.386 1_455 S
C1059 C1064 1.390 . S
C1060 H1037 0.950 . S
C1060 C1059 1.386 1_655 S
C1060 C1061 1.334 1_655 S
C1061 H1038 0.950 1_455 S
C1061 C1060 1.334 1_455 S
C1061 C1062 1.287 . S
C1062 C1061 1.287 . S
C1062 C1063 1.524 . S
C1062 H1081 0.913 . S
C1063 H1039 0.950 . S
C1063 C1062 1.524 . S
C1063 C1064 1.415 . S
C1064 H1040 0.950 . S
C1064 C1059 1.390 . S
C1064 C1063 1.415 . S
C1065 H1041 0.951 . S
C1065 C1066 1.366 1_655 S
C1065 C1067 1.388 . S
C1066 C1065 1.366 1_455 S
C1066 C1070 1.385 . S
C1067 H1042 0.951 . S
C1067 C1065 1.388 . S
C1067 C1068 1.366 . S
C1068 C1067 1.366 . S
C1068 C1069 1.414 1_655 S
C1068 C1071 1.499 . S
C1069 H1043 0.950 . S
C1069 C1068 1.414 1_455 S
C1069 C1070 1.374 . S
C1070 H1044 0.950 . S
C1070 C1066 1.385 . S
C1070 C1069 1.374 . S
C1071 C1068 1.499 . S
C1071 C1072 1.373 1_556 S
C1071 C1073 1.389 . S
C1072 H1045 0.950 1_655 S
C1072 C1058 1.377 . S
C1072 C1071 1.373 1_554 S
C1073 C1057 1.377 . S
C1073 C1071 1.389 . S
C1073 C1074 1.524 . S
C1074 C1073 1.524 . S
C1074 C1075 1.397 . S
C1074 C1079 1.363 . S
C1075 H1046 0.950 . S
C1075 C1074 1.397 . S
C1075 C1076 1.334 . S
C1076 H1047 0.950 . S
C1076 C1075 1.334 . S
C1076 C1077 1.287 . S
C1077 C1076 1.287 . S
C1077 C1078 1.524 . S
C1077 H1080 0.999 . S
C1078 H1048 0.950 . S
C1078 C1077 1.524 . S
C1078 C1079 1.415 . S
C1079 H1049 0.950 . S
C1079 C1074 1.363 . S
C1079 C1078 1.415 . S
H1080 C1077 0.999 . S
H1081 C1062 0.913 . S
H1082 C1100 0.951 . S
H1083 C1102 0.951 . S
H1084 C1104 0.950 . S
H1085 C1105 0.950 . S
H1086 C1107 0.950 . S
H1087 C1110 0.950 . S
H1088 C1111 0.950 . S
H1089 C1113 0.950 . S
H1090 C1114 0.950 . S
H1091 C1115 0.951 . S
H1092 C1117 0.936 1_554 S
H1093 C1119 0.950 . S
H1094 C1120 0.950 . S
H1095 C1122 0.961 . S
H1096 C1125 0.950 . S
H1097 C1126 0.950 . S
H1098 C1128 0.950 . S
H1099 C1129 0.950 . S
C1100 H1082 0.951 . S
C1100 C1101 1.366 . S
C1100 C1102 1.388 . S
C1101 C1100 1.366 . S
C1101 C1105 1.385 . S
C1102 H1083 0.951 . S
C1102 C1100 1.388 . S
C1102 C1103 1.366 . S
C1103 C1102 1.366 . S
C1103 C1104 1.414 . S
C1103 C1106 1.499 . S
C1104 H1084 0.950 . S
C1104 C1103 1.414 . S
C1104 C1105 1.374 . S
C1105 H1085 0.950 . S
C1105 C1101 1.385 . S
C1105 C1104 1.374 . S
C1106 C1103 1.499 . S
C1106 C1107 1.373 . S
C1106 C1108 1.389 . S
C1107 H1086 0.950 . S
C1107 C1106 1.373 . S
C1107 C1123 1.377 1_554 S
C1108 C1106 1.389 . S
C1108 C1109 1.524 1_565 S
C1108 C1122 1.373 1_564 S
C1109 C1108 1.524 1_545 S
C1109 C1110 1.397 . S
C1109 C1114 1.363 1_554 S
C1110 H1087 0.950 . S
C1110 C1109 1.397 . S
C1110 C1111 1.334 . S
C1111 H1088 0.950 . S
C1111 C1110 1.334 . S
C1111 C1112 1.287 . S
C1112 C1111 1.287 . S
C1112 C1113 1.524 1_554 S
C1112 H1131 0.913 . S
C1113 H1089 0.950 . S
C1113 C1112 1.524 1_556 S
C1113 C1114 1.415 . S
C1114 H1090 0.950 . S
C1114 C1109 1.363 1_556 S
C1114 C1113 1.415 . S
C1115 H1091 0.951 . S
C1115 C1116 1.366 1_565 S
C1115 C1117 1.388 . S
C1116 C1115 1.366 1_545 S
C1116 C1120 1.385 . S
C1117 H1092 0.936 1_556 S
C1117 C1115 1.388 . S
C1117 C1118 1.366 . S
C1118 C1117 1.366 . S
C1118 C1119 1.414 1_565 S
C1118 C1121 1.499 . S
C1119 H1093 0.950 . S
C1119 C1118 1.414 1_545 S
C1119 C1120 1.374 . S
C1120 H1094 0.950 . S
C1120 C1116 1.385 . S
C1120 C1119 1.374 . S
C1121 C1118 1.499 . S
C1121 C1122 1.366 1_565 S
C1121 C1123 1.389 . S
C1122 H1095 0.961 . S
C1122 C1108 1.373 1_546 S
C1122 C1121 1.366 1_545 S
C1123 C1107 1.377 1_556 S
C1123 C1121 1.389 . S
C1123 C1124 1.524 . S
C1124 C1123 1.524 . S
C1124 C1125 1.397 . S
C1124 C1129 1.363 1_556 S
C1125 H1096 0.950 . S
C1125 C1124 1.397 . S
C1125 C1126 1.334 . S
C1126 H1097 0.950 . S
C1126 C1125 1.334 . S
C1126 C1127 1.287 . S
C1127 C1126 1.287 . S
C1127 C1128 1.524 1_556 S
C1127 H1130 0.999 . S
C1128 H1098 0.950 . S
C1128 C1127 1.524 1_554 S
C1128 C1129 1.415 . S
C1129 H1099 0.950 . S
C1129 C1124 1.363 1_554 S
C1129 C1128 1.415 . S
H1130 C1127 0.999 . S
H1131 C1112 0.913 . S
H1132 C1150 0.951 . S
H1133 C1152 0.951 . S
H1134 C1154 0.950 . S
H1135 C1155 0.950 . S
H1136 C1157 0.950 . S
H1137 C1160 0.950 . S
H1138 C1161 0.950 . S
H1139 C1163 0.950 . S
H1140 C1164 0.950 . S
H1141 C1165 0.951 . S
H1142 C1167 0.951 . S
H1143 C1169 0.950 . S
H1144 C1170 0.950 . S
H1145 C1172 0.950 . S
H1146 C1175 0.950 . S
H1147 C1176 0.950 . S
H1148 C1178 0.950 . S
H1149 C1179 0.950 1_554 S
C1150 H1132 0.951 . S
C1150 C1151 1.366 . S
C1150 C1152 1.388 . S
C1151 C1150 1.366 . S
C1151 C1155 1.385 . S
C1152 H1133 0.951 . S
C1152 C1150 1.388 . S
C1152 C1153 1.366 . S
C1153 C1152 1.366 . S
C1153 C1154 1.414 . S
C1153 C1156 1.499 . S
C1154 H1134 0.950 . S
C1154 C1153 1.414 . S
C1154 C1155 1.374 . S
C1155 H1135 0.950 . S
C1155 C1151 1.385 . S
C1155 C1154 1.374 . S
C1156 C1153 1.499 . S
C1156 C1157 1.373 . S
C1156 C1158 1.389 . S
C1157 H1136 0.950 . S
C1157 C1156 1.373 . S
C1157 C1173 1.377 1_554 S
C1158 C1156 1.389 . S
C1158 C1159 1.524 . S
C1158 C1172 1.377 . S
C1159 C1158 1.524 . S
C1159 C1160 1.397 . S
C1159 C1164 1.363 . S
C1160 H1137 0.950 . S
C1160 C1159 1.397 . S
C1160 C1161 1.334 . S
C1161 H1138 0.950 . S
C1161 C1160 1.334 . S
C1161 C1162 1.287 . S
C1162 C1161 1.287 . S
C1162 C1163 1.524 . S
C1162 H1181 0.913 . S
C1163 H1139 0.950 . S
C1163 C1162 1.524 . S
C1163 C1164 1.415 . S
C1164 H1140 0.950 . S
C1164 C1159 1.363 . S
C1164 C1163 1.415 . S
C1165 H1141 0.951 . S
C1165 C1166 1.366 . S
C1165 C1167 1.388 . S
C1166 C1165 1.366 . S
C1166 C1170 1.385 . S
C1167 H1142 0.951 . S
C1167 C1165 1.388 . S
C1167 C1168 1.366 . S
C1168 C1167 1.366 . S
C1168 C1169 1.414 . S
C1168 C1171 1.499 . S
C1169 H1143 0.950 . S
C1169 C1168 1.414 . S
C1169 C1170 1.374 . S
C1170 H1144 0.950 . S
C1170 C1166 1.385 . S
C1170 C1169 1.374 . S
C1171 C1168 1.499 . S
C1171 C1172 1.373 1_556 S
C1171 C1173 1.389 . S
C1172 H1145 0.950 . S
C1172 C1158 1.377 . S
C1172 C1171 1.373 1_554 S
C1173 C1157 1.377 1_556 S
C1173 C1171 1.389 . S
C1173 C1174 1.524 . S
C1174 C1173 1.524 . S
C1174 C1175 1.397 . S
C1174 C1179 1.363 . S
C1175 H1146 0.950 . S
C1175 C1174 1.397 . S
C1175 C1176 1.334 . S
C1176 H1147 0.950 . S
C1176 C1175 1.334 . S
C1176 C1177 1.287 . S
C1177 C1176 1.287 . S
C1177 C1178 1.524 . S
C1177 H1180 0.999 . S
C1178 H1148 0.950 . S
C1178 C1177 1.524 . S
C1178 C1179 1.415 . S
C1179 H1149 0.950 1_556 S
C1179 C1174 1.363 . S
C1179 C1178 1.415 . S
H1180 C1177 0.999 . S
H1181 C1162 0.913 . S
H1182 C1200 0.951 . S
H1183 C1202 0.951 . S
H1184 C1204 0.950 . S
H1185 C1205 0.950 . S
H1186 C1207 0.950 . S
H1187 C1210 0.950 . S
H1188 C1211 0.950 . S
H1189 C1213 0.950 . S
H1190 C1214 0.950 . S
H1191 C1215 0.951 . S
H1192 C1217 0.951 . S
H1193 C1219 0.950 . S
H1194 C1220 0.950 . S
H1195 C1222 0.950 . S
H1196 C1225 0.950 . S
H1197 C1226 0.950 . S
H1198 C1228 0.950 . S
H1199 C1229 0.950 . S
C1200 H1182 0.951 . S
C1200 C1201 1.366 . S
C1200 C1202 1.388 . S
C1201 C1200 1.366 . S
C1201 C1205 1.385 . S
C1202 H1183 0.951 . S
C1202 C1200 1.388 . S
C1202 C1203 1.366 . S
C1203 C1202 1.366 . S
C1203 C1204 1.414 . S
C1203 C1206 1.499 . S
C1204 H1184 0.950 . S
C1204 C1203 1.414 . S
C1204 C1205 1.374 . S
C1205 H1185 0.950 . S
C1205 C1201 1.385 . S
C1205 C1204 1.374 . S
C1206 C1203 1.499 . S
C1206 C1207 1.373 . S
C1206 C1208 1.389 . S
C1207 H1186 0.950 . S
C1207 C1206 1.373 . S
C1207 C1223 1.377 . S
C1208 C1206 1.389 . S
C1208 C1209 1.524 . S
C1208 C1222 1.377 1_554 S
C1209 C1208 1.524 . S
C1209 C1210 1.397 1_554 S
C1209 C1214 1.363 . S
C1210 H1187 0.950 . S
C1210 C1209 1.397 1_556 S
C1210 C1211 1.334 . S
C1211 H1188 0.950 . S
C1211 C1210 1.334 . S
C1211 C1212 1.287 . S
C1212 C1211 1.287 . S
C1212 C1213 1.524 1_556 S
C1212 H1231 0.913 . S
C1213 H1189 0.950 . S
C1213 C1212 1.524 1_554 S
C1213 C1214 1.415 . S
C1214 H1190 0.950 . S
C1214 C1209 1.363 . S
C1214 C1213 1.415 . S
C1215 H1191 0.951 . S
C1215 C1216 1.366 . S
C1215 C1217 1.388 . S
C1216 C1215 1.366 . S
C1216 C1220 1.385 . S
C1217 H1192 0.951 . S
C1217 C1215 1.388 . S
C1217 C1218 1.366 . S
C1218 C1217 1.366 . S
C1218 C1219 1.414 . S
C1218 C1221 1.499 . S
C1219 H1193 0.950 . S
C1219 C1218 1.414 . S
C1219 C1220 1.374 . S
C1220 H1194 0.950 . S
C1220 C1216 1.385 . S
C1220 C1219 1.374 . S
C1221 C1218 1.499 . S
C1221 C1222 1.373 . S
C1221 C1223 1.389 1_556 S
C1222 H1195 0.950 . S
C1222 C1208 1.377 1_556 S
C1222 C1221 1.373 . S
C1223 C1207 1.377 . S
C1223 C1221 1.389 1_554 S
C1223 C1224 1.524 . S
C1224 C1223 1.524 . S
C1224 C1225 1.397 . S
C1224 C1229 1.363 1_554 S
C1225 H1196 0.950 . S
C1225 C1224 1.397 . S
C1225 C1226 1.334 . S
C1226 H1197 0.950 . S
C1226 C1225 1.334 . S
C1226 C1227 1.287 . S
C1227 C1226 1.287 . S
C1227 C1228 1.524 1_554 S
C1227 H1230 0.999 . S
C1228 H1198 0.950 . S
C1228 C1227 1.524 1_556 S
C1228 C1229 1.415 . S
C1229 H1199 0.950 . S
C1229 C1224 1.363 1_556 S
C1229 C1228 1.415 . S
H1230 C1227 0.999 . S
H1231 C1212 0.913 . S
H1232 C1250 0.951 . S
H1233 C1252 0.951 . S
H1234 C1254 0.950 . S
H1235 C1255 0.950 . S
H1236 C1257 0.950 . S
H1237 C1260 0.950 . S
H1238 C1261 0.950 . S
H1239 C1263 0.950 . S
H1240 C1264 0.950 . S
H1241 C1265 0.951 . S
H1242 C1267 0.951 . S
H1243 C1269 0.950 . S
H1244 C1270 0.950 . S
H1245 C1272 0.950 . S
H1246 C1275 0.950 1_455 S
H1247 C1276 0.950 . S
H1248 C1278 0.950 . S
H1249 C1279 0.950 . S
C1250 H1232 0.951 . S
C1250 C1251 1.366 . S
C1250 C1252 1.388 . S
C1251 C1250 1.366 . S
C1251 C1255 1.385 . S
C1252 H1233 0.951 . S
C1252 C1250 1.388 . S
C1252 C1253 1.366 . S
C1253 C1252 1.366 . S
C1253 C1254 1.414 . S
C1253 C1256 1.499 . S
C1254 H1234 0.950 . S
C1254 C1253 1.414 . S
C1254 C1255 1.374 . S
C1255 H1235 0.950 . S
C1255 C1251 1.385 . S
C1255 C1254 1.374 . S
C1256 C1253 1.499 . S
C1256 C1257 1.373 . S
C1256 C1258 1.389 . S
C1257 H1236 0.950 . S
C1257 C1256 1.373 . S
C1257 C1273 1.377 . S
C1258 C1256 1.389 . S
C1258 C1259 1.524 . S
C1258 C1272 1.377 . S
C1259 C1258 1.524 . S
C1259 C1260 1.397 . S
C1259 C1264 1.363 . S
C1260 H1237 0.950 . S
C1260 C1259 1.397 . S
C1260 C1261 1.334 . S
C1261 H1238 0.950 . S
C1261 C1260 1.334 . S
C1261 C1262 1.287 . S
C1262 C1261 1.287 . S
C1262 C1263 1.524 . S
C1262 H1281 0.913 . S
C1263 H1239 0.950 . S
C1263 C1262 1.524 . S
C1263 C1264 1.415 . S
C1264 H1240 0.950 . S
C1264 C1259 1.363 . S
C1264 C1263 1.415 . S
C1265 H1241 0.951 . S
C1265 C1266 1.366 . S
C1265 C1267 1.388 . S
C1266 C1265 1.366 . S
C1266 C1270 1.385 . S
C1267 H1242 0.951 . S
C1267 C1265 1.388 . S
C1267 C1268 1.366 . S
C1268 C1267 1.366 . S
C1268 C1269 1.414 . S
C1268 C1271 1.499 . S
C1269 H1243 0.950 . S
C1269 C1268 1.414 . S
C1269 C1270 1.374 . S
C1270 H1244 0.950 . S
C1270 C1266 1.385 . S
C1270 C1269 1.374 . S
C1271 C1268 1.499 . S
C1271 C1272 1.373 . S
C1271 C1273 1.389 . S
C1272 H1245 0.950 . S
C1272 C1258 1.377 . S
C1272 C1271 1.373 . S
C1273 C1257 1.377 . S
C1273 C1271 1.389 . S
C1273 C1274 1.524 . S
C1274 C1273 1.524 . S
C1274 C1275 1.397 1_455 S
C1274 C1279 1.363 1_455 S
C1275 H1246 0.950 1_655 S
C1275 C1274 1.397 1_655 S
C1275 C1276 1.334 . S
C1276 H1247 0.950 . S
C1276 C1275 1.334 . S
C1276 C1277 1.287 . S
C1277 C1276 1.287 . S
C1277 C1278 1.524 . S
C1277 H1280 0.999 . S
C1278 H1248 0.950 . S
C1278 C1277 1.524 . S
C1278 C1279 1.415 . S
C1279 H1249 0.950 . S
C1279 C1274 1.363 1_655 S
C1279 C1278 1.415 . S
H1280 C1277 0.999 . S
H1281 C1262 0.913 . S
H1282 C1300 0.951 . S
H1283 C1302 0.951 . S
H1284 C1304 0.950 . S
H1285 C1305 0.950 . S
H1286 C1307 0.950 . S
H1287 C1310 0.950 . S
H1288 C1311 0.950 . S
H1289 C1313 0.950 . S
H1290 C1314 0.950 . S
H1291 C1315 0.951 . S
H1292 C1317 0.951 . S
H1293 C1319 0.950 . S
H1294 C1320 0.950 . S
H1295 C1322 0.950 . S
H1296 C1325 0.950 . S
H1297 C1326 0.950 . S
H1298 C1328 0.952 . S
H1299 C1329 0.950 . S
C1300 H1282 0.951 . S
C1300 C1301 1.366 . S
C1300 C1302 1.388 . S
C1301 C1300 1.366 . S
C1301 C1305 1.385 . S
C1302 H1283 0.951 . S
C1302 C1300 1.388 . S
C1302 C1303 1.366 . S
C1303 C1302 1.366 . S
C1303 C1304 1.414 . S
C1303 C1306 1.499 . S
C1304 H1284 0.950 . S
C1304 C1303 1.414 . S
C1304 C1305 1.374 . S
C1305 H1285 0.950 . S
C1305 C1301 1.385 . S
C1305 C1304 1.374 . S
C1306 C1303 1.499 . S
C1306 C1307 1.373 . S
C1306 C1308 1.389 . S
C1307 H1286 0.950 . S
C1307 C1306 1.373 . S
C1307 C1323 1.377 . S
C1308 C1306 1.389 . S
C1308 C1309 1.524 . S
C1308 C1322 1.377 . S
C1309 C1308 1.524 . S
C1309 C1310 1.397 . S
C1309 C1314 1.363 . S
C1310 H1287 0.950 . S
C1310 C1309 1.397 . S
C1310 C1311 1.334 1_545 S
C1311 H1288 0.950 . S
C1311 C1310 1.334 1_565 S
C1311 C1312 1.287 . S
C1312 C1311 1.287 . S
C1312 C1313 1.524 1_565 S
C1312 H1331 0.913 . S
C1313 H1289 0.950 . S
C1313 C1312 1.524 1_545 S
C1313 C1314 1.415 . S
C1314 H1290 0.950 . S
C1314 C1309 1.363 . S
C1314 C1313 1.415 . S
C1315 H1291 0.951 . S
C1315 C1316 1.366 . S
C1315 C1317 1.388 . S
C1316 C1315 1.366 . S
C1316 C1320 1.385 . S
C1317 H1292 0.951 . S
C1317 C1315 1.388 . S
C1317 C1318 1.366 . S
C1318 C1317 1.366 . S
C1318 C1319 1.414 . S
C1318 C1321 1.499 . S
C1319 H1293 0.950 . S
C1319 C1318 1.414 . S
C1319 C1320 1.374 . S
C1320 H1294 0.950 . S
C1320 C1316 1.385 . S
C1320 C1319 1.374 . S
C1321 C1318 1.499 . S
C1321 C1322 1.373 . S
C1321 C1323 1.389 . S
C1322 H1295 0.950 . S
C1322 C1308 1.377 . S
C1322 C1321 1.373 . S
C1323 C1307 1.377 . S
C1323 C1321 1.389 . S
C1323 C1324 1.524 . S
C1324 C1323 1.524 . S
C1324 C1325 1.397 . S
C1324 C1329 1.363 . S
C1325 H1296 0.950 . S
C1325 C1324 1.397 . S
C1325 C1326 1.334 . S
C1326 H1297 0.950 . S
C1326 C1325 1.334 . S
C1326 C1327 1.287 . S
C1327 C1326 1.287 . S
C1327 C1328 1.524 . S
C1327 H1330 0.999 . S
C1328 H1298 0.952 . S
C1328 C1327 1.524 . S
C1328 C1329 1.415 . S
C1329 H1299 0.950 . S
C1329 C1324 1.363 . S
C1329 C1328 1.415 . S
H1330 C1327 0.999 . S
H1331 C1312 0.913 . S
H1332 C1350 0.951 . S
H1333 C1352 0.951 . S
H1334 C1354 0.950 . S
H1335 C1355 0.950 . S
H1336 C1357 0.950 . S
H1337 C1360 0.950 . S
H1338 C1361 0.950 . S
H1339 C1363 0.950 . S
H1340 C1364 0.950 . S
H1341 C1365 0.951 . S
H1342 C1367 0.951 . S
H1343 C1369 0.950 . S
H1344 C1370 0.950 . S
H1345 C1372 0.950 . S
H1346 C1375 0.950 . S
H1347 C1376 0.950 . S
H1348 C1378 0.950 . S
H1349 C1379 0.950 . S
C1350 H1332 0.951 . S
C1350 C1351 1.366 . S
C1350 C1352 1.388 . S
C1351 C1350 1.366 . S
C1351 C1355 1.385 . S
C1352 H1333 0.951 . S
C1352 C1350 1.388 . S
C1352 C1353 1.366 . S
C1353 C1352 1.366 . S
C1353 C1354 1.414 . S
C1353 C1356 1.499 . S
C1354 H1334 0.950 . S
C1354 C1353 1.414 . S
C1354 C1355 1.374 . S
C1355 H1335 0.950 . S
C1355 C1351 1.385 . S
C1355 C1354 1.374 . S
C1356 C1353 1.499 . S
C1356 C1357 1.373 . S
C1356 C1358 1.389 . S
C1357 H1336 0.950 . S
C1357 C1356 1.373 . S
C1357 C1373 1.377 . S
C1358 C1356 1.389 . S
C1358 C1359 1.524 . S
C1358 C1372 1.377 . S
C1359 C1358 1.524 . S
C1359 C1360 1.397 . S
C1359 C1364 1.363 . S
C1360 H1337 0.950 . S
C1360 C1359 1.397 . S
C1360 C1361 1.334 . S
C1361 H1338 0.950 . S
C1361 C1360 1.334 . S
C1361 C1362 1.287 1_556 S
C1362 C1361 1.287 1_554 S
C1362 C1363 1.524 . S
C1362 H1381 0.913 . S
C1363 H1339 0.950 . S
C1363 C1362 1.524 . S
C1363 C1364 1.415 1_554 S
C1364 H1340 0.950 . S
C1364 C1359 1.363 . S
C1364 C1363 1.415 1_556 S
C1365 H1341 0.951 . S
C1365 C1366 1.366 . S
C1365 C1367 1.388 . S
C1366 C1365 1.366 . S
C1366 C1370 1.385 . S
C1367 H1342 0.951 . S
C1367 C1365 1.388 . S
C1367 C1368 1.366 . S
C1368 C1367 1.366 . S
C1368 C1369 1.414 . S
C1368 C1371 1.499 . S
C1369 H1343 0.950 . S
C1369 C1368 1.414 . S
C1369 C1370 1.374 . S
C1370 H1344 0.950 . S
C1370 C1366 1.385 . S
C1370 C1369 1.374 . S
C1371 C1368 1.499 . S
C1371 C1372 1.373 . S
C1371 C1373 1.389 . S
C1372 H1345 0.950 . S
C1372 C1358 1.377 . S
C1372 C1371 1.373 . S
C1373 C1357 1.377 . S
C1373 C1371 1.389 . S
C1373 C1374 1.524 . S
C1374 C1373 1.524 . S
C1374 C1375 1.397 . S
C1374 C1379 1.363 . S
C1375 H1346 0.950 . S
C1375 C1374 1.397 . S
C1375 C1376 1.334 . S
C1376 H1347 0.950 . S
C1376 C1375 1.334 . S
C1376 C1377 1.287 . S
C1377 C1376 1.287 . S
C1377 C1378 1.524 . S
C1377 H1380 0.999 . S
C1378 H1348 0.950 . S
C1378 C1377 1.524 . S
C1378 C1379 1.415 . S
C1379 H1349 0.950 . S
C1379 C1374 1.363 . S
C1379 C1378 1.415 . S
H1380 C1377 0.999 . S
H1381 C1362 0.913 . S
H1382 C1400 0.951 . S
H1383 C1402 0.951 . S
H1384 C1404 0.950 . S
H1385 C1405 0.950 . S
H1386 C1407 0.950 . S
H1387 C1410 0.950 . S
H1388 C1411 0.950 . S
H1389 C1413 0.950 . S
H1390 C1414 0.950 . S
H1391 C1415 0.951 . S
H1392 C1417 0.951 . S
H1393 C1419 0.950 . S
H1394 C1420 0.950 . S
H1395 C1422 0.950 . S
H1396 C1425 0.950 . S
H1397 C1426 0.950 . S
H1398 C1428 0.950 . S
H1399 C1429 0.950 . S
C1400 H1382 0.951 . S
C1400 C1401 1.366 . S
C1400 C1402 1.388 . S
C1401 C1400 1.366 . S
C1401 C1405 1.385 . S
C1402 H1383 0.951 . S
C1402 C1400 1.388 . S
C1402 C1403 1.366 . S
C1403 C1402 1.366 . S
C1403 C1404 1.414 . S
C1403 C1406 1.499 . S
C1404 H1384 0.950 . S
C1404 C1403 1.414 . S
C1404 C1405 1.374 . S
C1405 H1385 0.950 . S
C1405 C1401 1.385 . S
C1405 C1404 1.374 . S
C1406 C1403 1.499 . S
C1406 C1407 1.373 . S
C1406 C1408 1.389 . S
C1407 H1386 0.950 . S
C1407 C1406 1.373 . S
C1407 C1423 1.377 . S
C1408 C1406 1.389 . S
C1408 C1409 1.524 . S
C1408 C1422 1.377 . S
C1409 C1408 1.524 . S
C1409 C1410 1.397 . S
C1409 C1414 1.363 . S
C1410 H1387 0.950 . S
C1410 C1409 1.397 . S
C1410 C1411 1.334 . S
C1411 H1388 0.950 . S
C1411 C1410 1.334 . S
C1411 C1412 1.287 . S
C1412 C1411 1.287 . S
C1412 C1413 1.524 . S
C1412 H1431 0.913 . S
C1413 H1389 0.950 . S
C1413 C1412 1.524 . S
C1413 C1414 1.415 . S
C1414 H1390 0.950 . S
C1414 C1409 1.363 . S
C1414 C1413 1.415 . S
C1415 H1391 0.951 . S
C1415 C1416 1.366 . S
C1415 C1417 1.388 . S
C1416 C1415 1.366 . S
C1416 C1420 1.385 . S
C1417 H1392 0.951 . S
C1417 C1415 1.388 . S
C1417 C1418 1.366 . S
C1418 C1417 1.366 . S
C1418 C1419 1.414 . S
C1418 C1421 1.499 . S
C1419 H1393 0.950 . S
C1419 C1418 1.414 . S
C1419 C1420 1.374 . S
C1420 H1394 0.950 . S
C1420 C1416 1.385 . S
C1420 C1419 1.374 . S
C1421 C1418 1.499 . S
C1421 C1422 1.373 . S
C1421 C1423 1.389 . S
C1422 H1395 0.950 . S
C1422 C1408 1.377 . S
C1422 C1421 1.373 . S
C1423 C1407 1.377 . S
C1423 C1421 1.389 . S
C1423 C1424 1.524 . S
C1424 C1423 1.524 . S
C1424 C1425 1.397 . S
C1424 C1429 1.363 . S
C1425 H1396 0.950 . S
C1425 C1424 1.397 . S
C1425 C1426 1.334 . S
C1426 H1397 0.950 . S
C1426 C1425 1.334 . S
C1426 C1427 1.287 . S
C1427 C1426 1.287 . S
C1427 C1428 1.524 . S
C1427 H1430 0.999 . S
C1428 H1398 0.950 . S
C1428 C1427 1.524 . S
C1428 C1429 1.415 . S
C1429 H1399 0.950 . S
C1429 C1424 1.363 . S
C1429 C1428 1.415 . S
H1430 C1427 0.999 . S
H1431 C1412 0.913 . S
H1432 C1450 0.951 . S
H1433 C1452 0.951 . S
H1434 C1454 0.950 . S
H1435 C1455 0.950 . S
H1436 C1457 0.950 . S
H1437 C1460 0.950 . S
H1438 C1461 0.950 . S
H1439 C1463 0.950 . S
H1440 C1464 0.950 . S
H1441 C1465 0.951 1_455 S
H1442 C1467 0.951 1_455 S
H1443 C1469 0.950 . S
H1444 C1470 0.950 . S
H1445 C1472 0.950 . S
H1446 C1475 0.953 1_655 S
H1447 C1476 0.950 . S
H1448 C1478 0.950 . S
H1449 C1479 0.950 . S
C1450 H1432 0.951 . S
C1450 C1451 1.366 . S
C1450 C1452 1.388 . S
C1451 C1450 1.366 . S
C1451 C1455 1.385 . S
C1452 H1433 0.951 . S
C1452 C1450 1.388 . S
C1452 C1453 1.366 . S
C1453 C1452 1.366 . S
C1453 C1454 1.414 . S
C1453 C1456 1.499 . S
C1454 H1434 0.950 . S
C1454 C1453 1.414 . S
C1454 C1455 1.374 . S
C1455 H1435 0.950 . S
C1455 C1451 1.385 . S
C1455 C1454 1.374 . S
C1456 C1453 1.499 . S
C1456 C1457 1.373 . S
C1456 C1458 1.389 . S
C1457 H1436 0.950 . S
C1457 C1456 1.373 . S
C1457 C1473 1.377 . S
C1458 C1456 1.389 . S
C1458 C1459 1.524 . S
C1458 C1472 1.377 . S
C1459 C1458 1.524 . S
C1459 C1460 1.397 . S
C1459 C1464 1.363 . S
C1460 H1437 0.950 . S
C1460 C1459 1.397 . S
C1460 C1461 1.334 . S
C1461 H1438 0.950 . S
C1461 C1460 1.334 . S
C1461 C1462 1.287 . S
C1462 C1461 1.287 . S
C1462 C1463 1.524 . S
C1462 H1481 0.913 . S
C1463 H1439 0.950 . S
C1463 C1462 1.524 . S
C1463 C1464 1.415 . S
C1464 H1440 0.950 . S
C1464 C1459 1.363 . S
C1464 C1463 1.415 . S
C1465 H1441 0.951 1_655 S
C1465 C1466 1.366 . S
C1465 C1467 1.388 . S
C1466 C1465 1.366 . S
C1466 C1470 1.385 . S
C1467 H1442 0.951 1_655 S
C1467 C1465 1.388 . S
C1467 C1468 1.366 . S
C1468 C1467 1.366 . S
C1468 C1469 1.414 . S
C1468 C1471 1.499 . S
C1469 H1443 0.950 . S
C1469 C1468 1.414 . S
C1469 C1470 1.374 . S
C1470 H1444 0.950 . S
C1470 C1466 1.385 . S
C1470 C1469 1.374 . S
C1471 C1468 1.499 . S
C1471 C1472 1.373 . S
C1471 C1473 1.389 . S
C1472 H1445 0.950 . S
C1472 C1458 1.377 . S
C1472 C1471 1.373 . S
C1473 C1457 1.377 . S
C1473 C1471 1.389 . S
C1473 C1474 1.524 1_655 S
C1474 C1473 1.524 1_455 S
C1474 C1475 1.397 . S
C1474 C1479 1.363 . S
C1475 H1446 0.953 1_455 S
C1475 C1474 1.397 . S
C1475 C1476 1.334 . S
C1476 H1447 0.950 . S
C1476 C1475 1.334 . S
C1476 C1477 1.287 . S
C1477 C1476 1.287 . S
C1477 C1478 1.524 . S
C1477 H1480 0.999 . S
C1478 H1448 0.950 . S
C1478 C1477 1.524 . S
C1478 C1479 1.415 . S
C1479 H1449 0.950 . S
C1479 C1474 1.363 . S
C1479 C1478 1.415 . S
H1480 C1477 0.999 . S
H1481 C1462 0.913 . S
H1482 C1500 0.951 . S
H1483 C1502 0.951 . S
H1484 C1504 0.950 . S
H1485 C1505 0.950 . S
H1486 C1507 0.950 . S
H1487 C1510 0.950 . S
H1488 C1511 0.950 . S
H1489 C1513 0.950 . S
H1490 C1514 0.950 . S
H1491 C1515 0.951 . S
H1492 C1517 0.951 . S
H1493 C1519 0.950 . S
H1494 C1520 0.950 1_545 S
H1495 C1522 0.950 . S
H1496 C1525 0.950 . S
H1497 C1526 0.950 . S
H1498 C1528 0.950 1_565 S
H1499 C1529 0.950 . S
C1500 H1482 0.951 . S
C1500 C1501 1.366 . S
C1500 C1502 1.388 . S
C1501 C1500 1.366 . S
C1501 C1505 1.385 . S
C1502 H1483 0.951 . S
C1502 C1500 1.388 . S
C1502 C1503 1.366 . S
C1503 C1502 1.366 . S
C1503 C1504 1.414 . S
C1503 C1506 1.499 . S
C1504 H1484 0.950 . S
C1504 C1503 1.414 . S
C1504 C1505 1.374 . S
C1505 H1485 0.950 . S
C1505 C1501 1.385 . S
C1505 C1504 1.374 . S
C1506 C1503 1.499 . S
C1506 C1507 1.373 . S
C1506 C1508 1.389 . S
C1507 H1486 0.950 . S
C1507 C1506 1.373 . S
C1507 C1523 1.377 . S
C1508 C1506 1.389 . S
C1508 C1509 1.524 . S
C1508 C1522 1.377 . S
C1509 C1508 1.524 . S
C1509 C1510 1.397 . S
C1509 C1514 1.363 . S
C1510 H1487 0.950 . S
C1510 C1509 1.397 . S
C1510 C1511 1.334 . S
C1511 H1488 0.950 . S
C1511 C1510 1.334 . S
C1511 C1512 1.287 . S
C1512 C1511 1.287 . S
C1512 C1513 1.524 . S
C1512 H1531 0.913 . S
C1513 H1489 0.950 . S
C1513 C1512 1.524 . S
C1513 C1514 1.415 . S
C1514 H1490 0.950 . S
C1514 C1509 1.363 . S
C1514 C1513 1.415 . S
C1515 H1491 0.951 . S
C1515 C1516 1.366 . S
C1515 C1517 1.388 . S
C1516 C1515 1.366 . S
C1516 C1520 1.385 . S
C1517 H1492 0.951 . S
C1517 C1515 1.388 . S
C1517 C1518 1.366 . S
C1518 C1517 1.366 . S
C1518 C1519 1.414 . S
C1518 C1521 1.499 . S
C1519 H1493 0.950 . S
C1519 C1518 1.414 . S
C1519 C1520 1.374 . S
C1520 H1494 0.950 1_565 S
C1520 C1516 1.385 . S
C1520 C1519 1.374 . S
C1521 C1518 1.499 . S
C1521 C1522 1.373 . S
C1521 C1523 1.389 . S
C1522 H1495 0.950 . S
C1522 C1508 1.377 . S
C1522 C1521 1.373 . S
C1523 C1507 1.377 . S
C1523 C1521 1.389 . S
C1523 C1524 1.524 . S
C1524 C1523 1.524 . S
C1524 C1525 1.397 1_565 S
C1524 C1529 1.363 . S
C1525 H1496 0.950 . S
C1525 C1524 1.397 1_545 S
C1525 C1526 1.334 . S
C1526 H1497 0.950 . S
C1526 C1525 1.334 . S
C1526 C1527 1.287 . S
C1527 C1526 1.287 . S
C1527 C1528 1.524 . S
C1527 H1530 0.999 . S
C1528 H1498 0.950 1_545 S
C1528 C1527 1.524 . S
C1528 C1529 1.415 1_545 S
C1529 H1499 0.950 . S
C1529 C1524 1.363 . S
C1529 C1528 1.415 1_565 S
H1530 C1527 0.999 . S
H1531 C1512 0.913 . S
H1532 C1550 0.951 . S
H1533 C1552 0.951 . S
H1534 C1554 0.950 . S
H1535 C1555 0.950 . S
H1536 C1557 0.950 . S
H1537 C1560 0.950 . S
H1538 C1561 0.950 . S
H1539 C1563 0.950 . S
H1540 C1564 0.950 . S
H1541 C1565 0.951 . S
H1542 C1567 0.951 . S
H1543 C1569 0.950 . S
H1544 C1570 0.950 . S
H1545 C1572 0.950 . S
H1546 C1575 0.950 . S
H1547 C1576 0.950 . S
H1548 C1578 0.950 . S
H1549 C1579 0.950 . S
C1550 H1532 0.951 . S
C1550 C1551 1.366 . S
C1550 C1552 1.388 . S
C1551 C1550 1.366 . S
C1551 C1555 1.385 . S
C1552 H1533 0.951 . S
C1552 C1550 1.388 . S
C1552 C1553 1.366 . S
C1553 C1552 1.366 . S
C1553 C1554 1.414 . S
C1553 C1556 1.499 . S
C1554 H1534 0.950 . S
C1554 C1553 1.414 . S
C1554 C1555 1.374 . S
C1555 H1535 0.950 . S
C1555 C1551 1.385 . S
C1555 C1554 1.374 . S
C1556 C1553 1.499 . S
C1556 C1557 1.373 . S
C1556 C1558 1.389 . S
C1557 H1536 0.950 . S
C1557 C1556 1.373 . S
C1557 C1573 1.377 . S
C1558 C1556 1.389 . S
C1558 C1559 1.524 . S
C1558 C1572 1.377 . S
C1559 C1558 1.524 . S
C1559 C1560 1.397 . S
C1559 C1564 1.363 . S
C1560 H1537 0.950 . S
C1560 C1559 1.397 . S
C1560 C1561 1.334 . S
C1561 H1538 0.950 . S
C1561 C1560 1.334 . S
C1561 C1562 1.287 . S
C1562 C1561 1.287 . S
C1562 C1563 1.524 . S
C1562 H1581 0.913 . S
C1563 H1539 0.950 . S
C1563 C1562 1.524 . S
C1563 C1564 1.415 . S
C1564 H1540 0.950 . S
C1564 C1559 1.363 . S
C1564 C1563 1.415 . S
C1565 H1541 0.951 . S
C1565 C1566 1.366 . S
C1565 C1567 1.388 . S
C1566 C1565 1.366 . S
C1566 C1570 1.385 . S
C1567 H1542 0.951 . S
C1567 C1565 1.388 . S
C1567 C1568 1.366 . S
C1568 C1567 1.366 . S
C1568 C1569 1.414 . S
C1568 C1571 1.499 . S
C1569 H1543 0.950 . S
C1569 C1568 1.414 . S
C1569 C1570 1.374 . S
C1570 H1544 0.950 . S
C1570 C1566 1.385 . S
C1570 C1569 1.374 . S
C1571 C1568 1.499 . S
C1571 C1572 1.373 . S
C1571 C1573 1.389 . S
C1572 H1545 0.950 . S
C1572 C1558 1.377 . S
C1572 C1571 1.373 . S
C1573 C1557 1.377 . S
C1573 C1571 1.389 . S
C1573 C1574 1.524 . S
C1574 C1573 1.524 . S
C1574 C1575 1.397 . S
C1574 C1579 1.363 . S
C1575 H1546 0.950 . S
C1575 C1574 1.397 . S
C1575 C1576 1.334 . S
C1576 H1547 0.950 . S
C1576 C1575 1.334 . S
C1576 C1577 1.287 . S
C1577 C1576 1.287 . S
C1577 C1578 1.524 . S
C1577 H1580 0.999 . S
C1578 H1548 0.950 . S
C1578 C1577 1.524 . S
C1578 C1579 1.415 . S
C1579 H1549 0.950 . S
C1579 C1574 1.363 . S
C1579 C1578 1.415 . S
H1580 C1577 0.999 . S
H1581 C1562 0.913 . S
H1582 C1600 0.951 . S
H1583 C1602 0.951 . S
H1584 C1604 0.950 . S
H1585 C1605 0.950 . S
H1586 C1607 0.950 . S
H1587 C1610 0.950 . S
H1588 C1611 0.950 . S
H1589 C1613 0.950 . S
H1590 C1614 0.950 . S
H1591 C1615 0.951 . S
H1592 C1617 0.951 . S
H1593 C1619 0.950 . S
H1594 C1620 0.950 . S
H1595 C1622 0.950 . S
H1596 C1625 0.950 . S
H1597 C1626 0.950 . S
H1598 C1628 0.950 . S
H1599 C1629 0.950 . S
C1600 H1582 0.951 . S
C1600 C1601 1.366 . S
C1600 C1602 1.388 . S
C1601 C1600 1.366 . S
C1601 C1605 1.385 . S
C1602 H1583 0.951 . S
C1602 C1600 1.388 . S
C1602 C1603 1.366 . S
C1603 C1602 1.366 . S
C1603 C1604 1.414 . S
C1603 C1606 1.499 . S
C1604 H1584 0.950 . S
C1604 C1603 1.414 . S
C1604 C1605 1.374 . S
C1605 H1585 0.950 . S
C1605 C1601 1.385 . S
C1605 C1604 1.374 . S
C1606 C1603 1.499 . S
C1606 C1607 1.373 . S
C1606 C1608 1.389 . S
C1607 H1586 0.950 . S
C1607 C1606 1.373 . S
C1607 C1623 1.377 . S
C1608 C1606 1.389 . S
C1608 C1609 1.524 . S
C1608 C1622 1.377 . S
C1609 C1608 1.524 . S
C1609 C1610 1.397 . S
C1609 C1614 1.363 . S
C1610 H1587 0.950 . S
C1610 C1609 1.397 . S
C1610 C1611 1.334 . S
C1611 H1588 0.950 . S
C1611 C1610 1.334 . S
C1611 C1612 1.287 . S
C1612 C1611 1.287 . S
C1612 C1613 1.524 . S
C1612 H1631 0.913 . S
C1613 H1589 0.950 . S
C1613 C1612 1.524 . S
C1613 C1614 1.415 . S
C1614 H1590 0.950 . S
C1614 C1609 1.363 . S
C1614 C1613 1.415 . S
C1615 H1591 0.951 . S
C1615 C1616 1.366 . S
C1615 C1617 1.388 . S
C1616 C1615 1.366 . S
C1616 C1620 1.385 . S
C1617 H1592 0.951 . S
C1617 C1615 1.388 . S
C1617 C1618 1.366 . S
C1618 C1617 1.366 . S
C1618 C1619 1.414 . S
C1618 C1621 1.499 . S
C1619 H1593 0.950 . S
C1619 C1618 1.414 . S
C1619 C1620 1.374 . S
C1620 H1594 0.950 . S
C1620 C1616 1.385 . S
C1620 C1619 1.374 . S
C1621 C1618 1.499 . S
C1621 C1622 1.373 . S
C1621 C1623 1.389 . S
C1622 H1595 0.950 . S
C1622 C1608 1.377 . S
C1622 C1621 1.373 . S
C1623 C1607 1.377 . S
C1623 C1621 1.389 . S
C1623 C1624 1.524 . S
C1624 C1623 1.524 . S
C1624 C1625 1.397 . S
C1624 C1629 1.363 . S
C1625 H1596 0.950 . S
C1625 C1624 1.397 . S
C1625 C1626 1.334 . S
C1626 H1597 0.950 . S
C1626 C1625 1.334 . S
C1626 C1627 1.287 . S
C1627 C1626 1.287 . S
C1627 C1628 1.524 . S
C1627 H1630 0.999 . S
C1628 H1598 0.950 . S
C1628 C1627 1.524 . S
C1628 C1629 1.415 . S
C1629 H1599 0.950 . S
C1629 C1624 1.363 . S
C1629 C1628 1.415 . S
H1630 C1627 0.999 . S
H1631 C1612 0.913 . S
C451 C76 1.791 . S
C466 C170 1.858 . S
C516 C254 1.890 . S
C501 C88 1.820 . S
C566 C320 1.909 . S
C551 C52 1.938 . S
C616 C404 1.880 . S
C601 C64 1.910 . S
C666 C159 1.858 1_565 S
C651 C28 1.802 . S
C701 C40 1.833 . S
C716 C243 1.890 . S
C751 C4 1.951 . S
C766 C331 1.908 . S
C801 C16 1.922 . S
C816 C415 1.880 . S
C866 C166 0.511 1_455 S
C851 C69 0.478 . S
C916 C250 0.514 . S
C901 C81 0.447 . S
C966 C322 0.504 . S
C951 C93 0.426 . S
C1001 C57 0.457 . S
C1016 C406 0.511 . S
C1051 C21 0.496 . S
C1066 C154 0.525 . S
C1116 C238 0.510 . S
C1101 C33 0.467 . S
C1166 C334 0.500 . S
C1151 C45 0.451 . S
C1201 C9 0.472 . S
C1216 C418 0.515 . S
C1251 C66 1.969 . S
C1266 C163 2.004 . S
C1301 C78 1.930 . S
C1316 C247 1.964 . S
C1366 C327 1.947 . S
C1351 C90 1.824 . S
C1416 C411 1.983 . S
C1401 C54 1.858 . S
C1451 C18 1.952 . S
C1466 C152 2.004 . S
C1516 C236 1.954 1_565 S
C1501 C30 1.914 . S
C1566 C338 1.948 . S
C1551 C42 1.807 . S
C1601 C6 1.839 . S
C1616 C422 1.983 . S
