# Generated by pormake.
# Topology cml, (3,6)-cn, num edge types: 1
# Building blocks:
#     Node 0, Type 0, BuildingBlock: CUQRIR_clean_linker_1, # of connection points: 3
#     Node 1, Type 0, BuildingBlock: CUQRIR_clean_linker_1, # of connection points: 3
#     Node 2, Type 0, BuildingBlock: CUQRIR_clean_linker_1, # of connection points: 3
#     Node 3, Type 0, BuildingBlock: CUQRIR_clean_linker_1, # of connection points: 3
#     Node 4, Type 0, BuildingBlock: CUQRIR_clean_linker_1, # of connection points: 3
#     Node 5, Type 0, BuildingBlock: CUQRIR_clean_linker_1, # of connection points: 3
#     Node 6, Type 0, BuildingBlock: CUQRIR_clean_linker_1, # of connection points: 3
#     Node 7, Type 0, BuildingBlock: CUQRIR_clean_linker_1, # of connection points: 3
#     Node 8, Type 1, BuildingBlock: OJICUG_clean_sbu_0, # of connection points: 6
#     Node 9, Type 1, BuildingBlock: OJICUG_clean_sbu_0, # of connection points: 6
#     Node 10, Type 1, BuildingBlock: OJICUG_clean_sbu_0, # of connection points: 6
#     Node 11, Type 1, BuildingBlock: OJICUG_clean_sbu_0, # of connection points: 6
#     Edge 12, Type (0, 1), BuildingBlock: CIFDUS_clean_linker_0, # of connection points: 2
#     Edge 13, Type (0, 1), BuildingBlock: CIFDUS_clean_linker_0, # of connection points: 2
#     Edge 14, Type (0, 1), BuildingBlock: CIFDUS_clean_linker_0, # of connection points: 2
#     Edge 15, Type (0, 1), BuildingBlock: CIFDUS_clean_linker_0, # of connection points: 2
#     Edge 16, Type (0, 1), BuildingBlock: CIFDUS_clean_linker_0, # of connection points: 2
#     Edge 17, Type (0, 1), BuildingBlock: CIFDUS_clean_linker_0, # of connection points: 2
#     Edge 18, Type (0, 1), BuildingBlock: CIFDUS_clean_linker_0, # of connection points: 2
#     Edge 19, Type (0, 1), BuildingBlock: CIFDUS_clean_linker_0, # of connection points: 2
#     Edge 20, Type (0, 1), BuildingBlock: CIFDUS_clean_linker_0, # of connection points: 2
#     Edge 21, Type (0, 1), BuildingBlock: CIFDUS_clean_linker_0, # of connection points: 2
#     Edge 22, Type (0, 1), BuildingBlock: CIFDUS_clean_linker_0, # of connection points: 2
#     Edge 23, Type (0, 1), BuildingBlock: CIFDUS_clean_linker_0, # of connection points: 2
#     Edge 24, Type (0, 1), BuildingBlock: CIFDUS_clean_linker_0, # of connection points: 2
#     Edge 25, Type (0, 1), BuildingBlock: CIFDUS_clean_linker_0, # of connection points: 2
#     Edge 26, Type (0, 1), BuildingBlock: CIFDUS_clean_linker_0, # of connection points: 2
#     Edge 27, Type (0, 1), BuildingBlock: CIFDUS_clean_linker_0, # of connection points: 2
#     Edge 28, Type (0, 1), BuildingBlock: CIFDUS_clean_linker_0, # of connection points: 2
#     Edge 29, Type (0, 1), BuildingBlock: CIFDUS_clean_linker_0, # of connection points: 2
#     Edge 30, Type (0, 1), BuildingBlock: CIFDUS_clean_linker_0, # of connection points: 2
#     Edge 31, Type (0, 1), BuildingBlock: CIFDUS_clean_linker_0, # of connection points: 2
#     Edge 32, Type (0, 1), BuildingBlock: CIFDUS_clean_linker_0, # of connection points: 2
#     Edge 33, Type (0, 1), BuildingBlock: CIFDUS_clean_linker_0, # of connection points: 2
#     Edge 34, Type (0, 1), BuildingBlock: CIFDUS_clean_linker_0, # of connection points: 2
#     Edge 35, Type (0, 1), BuildingBlock: CIFDUS_clean_linker_0, # of connection points: 2
# Relax obj value: 0.003
# Max RMSD: 0.057
# Mean RMSD: 0.045
data_MOF--net-cml--node1-OJICUG_clean_sbu_0--node2-CUQRIR_clean_linker_1--edge1-CIFDUS_clean_linker_0
_symmetry_space_group_name_H-M    P1
_symmetry_Int_Tables_number       1
_symmetry_cell_setting            triclinic
loop_
_symmetry_equiv_pos_as_xyz
'x, y, z'
_cell_length_a     33.375786
_cell_length_b     32.244833
_cell_length_c     27.518963
_cell_angle_alpha  89.787687
_cell_angle_beta   89.865024
_cell_angle_gamma 89.847606
loop_
_atom_site_label
_atom_site_type_symbol
_atom_site_fract_x
_atom_site_fract_y
_atom_site_fract_z
_atom_type_partial_charge
C0 C 0.23195 0.37136 0.04931 0.0
N1 N 0.26009 0.40128 0.0545 0.0
N2 N 0.21259 0.37581 1.00634 0.0
C3 C 0.22594 0.33553 0.08381 0.0
C4 C 0.22987 0.40956 0.98588 0.0
N5 N 0.25878 0.425 0.01494 0.0
C6 C 0.21917 0.42707 0.93684 0.0
H7 H 0.23622 0.30653 0.06608 0.0
H8 H 0.19374 0.33191 0.09255 0.0
H9 H 0.24237 0.33978 0.11837 0.0
H10 H 0.18754 0.42007 0.92767 0.0
H11 H 0.23885 0.41302 0.9088 0.0
H12 H 0.22388 0.46113 0.93616 0.0
C13 C 0.74032 0.6572 0.52053 0.0
N14 N 0.71132 0.62799 0.52421 0.0
N15 N 0.75676 0.65709 0.47534 0.0
C16 C 0.75148 0.68709 0.56019 0.0
C17 C 0.73654 0.62674 0.4519 0.0
N18 N 0.70895 0.60922 0.48146 0.0
C19 C 0.74391 0.61355 0.40028 0.0
H20 H 0.75611 0.71859 0.54483 0.0
H21 H 0.78001 0.67676 0.57694 0.0
H22 H 0.72869 0.6886 0.58941 0.0
H23 H 0.73773 0.57994 0.39607 0.0
H24 H 0.77525 0.62004 0.38913 0.0
H25 H 0.72328 0.63078 0.3759 0.0
C26 C 0.74235 0.34796 0.04355 0.0
N27 N 0.7097 0.37271 0.04642 0.0
N28 N 0.7655 0.35884 1.00508 0.0
C29 C 0.75165 0.31336 0.07854 0.0
C30 C 0.74557 0.39099 0.98447 0.0
N31 N 0.71159 0.39942 0.00961 0.0
C32 C 0.75871 0.41278 0.93861 0.0
H33 H 0.7843 0.30685 0.07955 0.0
H34 H 0.73581 0.28494 0.06673 0.0
H35 H 0.74094 0.32127 0.11558 0.0
H36 H 0.76534 0.38955 0.91001 0.0
H37 H 0.7867 0.4301 0.94582 0.0
H38 H 0.73619 0.43521 0.925 0.0
C39 C 0.22868 0.64427 0.5444 0.0
N40 N 0.26008 0.61761 0.54276 0.0
N41 N 0.20856 0.6443 0.50162 0.0
C42 C 0.21886 0.67192 0.58683 0.0
C43 C 0.22924 0.61683 0.47388 0.0
N44 N 0.2606 0.60069 0.49882 0.0
C45 C 0.21809 0.60451 0.42304 0.0
H46 H 0.19402 0.65783 0.60797 0.0
H47 H 0.2089 0.7029 0.57388 0.0
H48 H 0.24464 0.67577 0.61165 0.0
H49 H 0.23425 0.62462 0.39678 0.0
H50 H 0.1854 0.60812 0.41705 0.0
H51 H 0.22697 0.57188 0.41598 0.0
C52 C 0.74504 0.84397 0.02352 0.0
N53 N 0.77901 0.86668 0.02509 0.0
N54 N 0.72649 0.84876 0.98009 0.0
C55 C 0.72949 0.81808 0.065 0.0
C56 C 0.75058 0.87514 0.95521 0.0
N57 N 0.78239 0.88608 0.98265 0.0
C58 C 0.74393 0.88857 0.9034 0.0
H59 H 0.74283 0.78659 0.06287 0.0
H60 H 0.69639 0.81527 0.06333 0.0
H61 H 0.73819 0.83185 0.10033 0.0
H62 H 0.72142 0.91393 0.90283 0.0
H63 H 0.73205 0.86244 0.88165 0.0
H64 H 0.77177 0.90025 0.88621 0.0
C65 C 0.26371 0.12739 0.55814 0.0
N66 N 0.23271 0.10059 0.56258 0.0
N67 N 0.28345 0.12137 0.51561 0.0
C68 C 0.27534 0.15871 0.59586 0.0
C69 C 0.26328 0.08994 0.49431 0.0
N70 N 0.23259 0.07715 0.52291 0.0
C71 C 0.27204 0.07383 0.44405 0.0
H72 H 0.25836 0.18784 0.5895 0.0
H73 H 0.30784 0.16571 0.59365 0.0
H74 H 0.26794 0.14719 0.63285 0.0
H75 H 0.30031 0.0557 0.44489 0.0
H76 H 0.27632 0.10015 0.41848 0.0
H77 H 0.24811 0.05329 0.43023 0.0
C78 C 0.24971 0.85156 0.03306 0.0
N79 N 0.22098 0.88122 0.03641 0.0
N80 N 0.26726 0.85256 0.98856 0.0
C81 C 0.25919 0.82005 0.0719 0.0
C82 C 0.24818 0.88393 0.96526 0.0
N83 N 0.22001 0.90116 0.99414 0.0
C84 C 0.25661 0.89778 0.91399 0.0
H85 H 0.28912 0.82687 0.08729 0.0
H86 H 0.26041 0.78855 0.05584 0.0
H87 H 0.23722 0.82048 0.1021 0.0
H88 H 0.23601 0.88158 0.88887 0.0
H89 H 0.28797 0.89055 0.90345 0.0
H90 H 0.25121 0.93162 0.9102 0.0
C91 C 0.74128 0.14702 0.55661 0.0
N92 N 0.77001 0.11735 0.55697 0.0
N93 N 0.72378 0.14987 0.51228 0.0
C94 C 0.72982 0.17244 0.60024 0.0
C95 C 0.74306 0.12054 0.48563 0.0
N96 N 0.77104 0.10074 0.51289 0.0
C97 C 0.73567 0.11256 0.43253 0.0
H98 H 0.73503 0.15456 0.63419 0.0
H99 H 0.69789 0.182 0.59843 0.0
H100 H 0.74873 0.20065 0.60144 0.0
H101 H 0.72967 0.14212 0.41307 0.0
H102 H 0.70892 0.0925 0.4289 0.0
H103 H 0.76119 0.09649 0.41493 0.0
Sc104 Sc 0.98846 0.82707 0.30665 0.0
Sc105 Sc -0.00138 0.9357 0.3056 0.0
Sc106 Sc -0.00396 0.88118 0.41747 0.0
O107 O -0.00568 0.88136 0.3433 0.0
C108 C 0.93218 0.80967 0.39819 0.0
C109 C 0.93295 0.88674 0.24337 0.0
C110 C 0.94087 0.9601 0.39435 0.0
C111 C 0.05106 0.87554 0.23911 0.0
C112 C 0.05101 0.80346 0.39058 0.0
C113 C 0.05896 0.95298 0.3927 0.0
O114 O 0.94216 0.80386 0.35418 0.0
O115 O 0.95059 0.91971 0.25671 0.0
O116 O 0.95145 0.93019 0.422 0.0
O117 O 0.0335 0.84303 0.25415 0.0
O118 O 0.04043 0.83215 0.41964 0.0
O119 O 0.04648 0.95922 0.34971 0.0
O120 O 0.03506 0.79796 0.34914 0.0
O121 O 0.0429 0.91152 0.25531 0.0
O122 O 0.04393 0.92583 0.42085 0.0
O123 O 0.94238 0.85099 0.25945 0.0
O124 O 0.94903 0.83613 0.42531 0.0
O125 O 0.95543 0.96579 0.35203 0.0
Sc126 Sc -0.00066 0.192 0.82178 0.0
Sc127 Sc -0.00036 0.08231 0.82131 0.0
Sc128 Sc -0.00684 0.13681 0.93163 0.0
O129 O -0.00252 0.13698 0.85806 0.0
C130 C 0.0501 0.21524 0.91422 0.0
C131 C 0.06142 0.13744 0.75991 0.0
C132 C 0.05764 0.06668 0.9127 0.0
C133 C 0.94249 0.13771 0.7538 0.0
C134 C 0.93202 0.2072 0.90334 0.0
C135 C 0.93882 0.05854 0.90558 0.0
O136 O 0.04442 0.2178 0.8687 0.0
O137 O 0.0483 0.10274 0.77521 0.0
O138 O 0.04418 0.09647 0.93823 0.0
O139 O 0.95493 0.17204 0.77059 0.0
O140 O 0.94179 0.17633 0.9295 0.0
O141 O 0.95145 0.05437 0.86231 0.0
O142 O 0.95151 0.21857 0.86571 0.0
O143 O 0.95572 0.10266 0.76826 0.0
O144 O 0.95242 0.08561 0.93437 0.0
O145 O 0.04666 0.17197 0.77344 0.0
O146 O 0.03213 0.18917 0.9411 0.0
O147 O 0.04345 0.05702 0.87125 0.0
Sc148 Sc 0.48862 0.3143 0.31737 0.0
Sc149 Sc 0.48503 0.42378 0.32506 0.0
Sc150 Sc 0.4894 0.36358 0.43182 0.0
O151 O 0.48764 0.36715 0.35803 0.0
C152 C 0.42899 0.29089 0.40438 0.0
C153 C 0.42847 0.37072 0.25537 0.0
C154 C 0.42689 0.43838 0.41509 0.0
C155 C 0.54739 0.37448 0.25803 0.0
C156 C 0.54803 0.28874 0.4031 0.0
C157 C 0.54674 0.44015 0.4121 0.0
O158 O 0.44251 0.28521 0.36154 0.0
O159 O 0.43983 0.40504 0.27329 0.0
O160 O 0.44328 0.41036 0.44106 0.0
O161 O 0.53496 0.33834 0.2694 0.0
O162 O 0.53551 0.31611 0.43267 0.0
O163 O 0.53003 0.44989 0.37213 0.0
O164 O 0.53417 0.28478 0.36047 0.0
O165 O 0.53237 0.40756 0.27545 0.0
O166 O 0.53638 0.4088 0.43721 0.0
O167 O 0.44311 0.33605 0.26842 0.0
O168 O 0.44257 0.31809 0.43326 0.0
O169 O 0.4378 0.44604 0.37169 0.0
Sc170 Sc 0.49238 0.68323 0.80899 0.0
Sc171 Sc 0.49228 0.57426 0.79821 0.0
Sc172 Sc 0.4964 0.62096 0.91354 0.0
O173 O 0.49369 0.62606 0.84006 0.0
C174 C 0.55732 0.69345 0.89402 0.0
C175 C 0.5499 0.63442 0.73663 0.0
C176 C 0.55119 0.54417 0.88118 0.0
C177 C 0.43203 0.6333 0.7406 0.0
C178 C 0.43877 0.69958 0.90124 0.0
C179 C 0.43333 0.55171 0.88722 0.0
O180 O 0.53826 0.70698 0.85712 0.0
O181 O 0.53602 0.59862 0.74692 0.0
O182 O 0.53653 0.5689 0.91228 0.0
O183 O 0.44726 0.66659 0.75676 0.0
O184 O 0.45696 0.67275 0.92689 0.0
O185 O 0.44856 0.54492 0.8454 0.0
O186 O 0.4454 0.70466 0.85619 0.0
O187 O 0.44366 0.59748 0.75409 0.0
O188 O 0.44547 0.58035 0.91525 0.0
O189 O 0.53829 0.66739 0.75768 0.0
O190 O 0.54774 0.66051 0.91664 0.0
O191 O 0.5404 0.54415 0.83693 0.0
H192 H 0.14212 0.34749 0.03966 0.0
H193 H 0.22548 0.3381 0.92066 0.0
H194 H 0.18155 0.28866 0.87975 0.0
H195 H 0.11963 0.24712 0.87877 0.0
H196 H 0.04018 0.25076 1.0025 0.0
H197 H 0.08271 0.3024 0.04145 0.0
C198 C 0.15086 0.33395 1.00525 0.0
C199 C 0.18673 0.34635 0.98302 0.0
C200 C 0.12624 0.30437 0.98301 0.0
C201 C 0.19752 0.32944 0.93787 0.0
C202 C 0.17262 0.30098 0.91473 0.0
C203 C 0.11177 0.25928 0.91425 0.0
C204 C 0.0769 0.24536 0.93773 0.0
C205 C 0.13689 0.28817 0.93699 0.0
C206 C 0.0671 0.26091 0.98391 0.0
C207 C 0.09127 0.29053 1.00611 0.0
H208 H 0.82746 0.68009 0.51336 0.0
H209 H 0.74872 0.70044 0.3918 0.0
H210 H 0.79686 0.74856 0.35562 0.0
H211 H 0.8616 0.78523 0.35897 0.0
H212 H 0.93576 0.77206 0.48614 0.0
H213 H 0.88869 0.72192 0.52076 0.0
C214 C 0.82058 0.69565 0.47945 0.0
C215 C 0.78492 0.68625 0.45493 0.0
C216 C 0.84746 0.72483 0.46015 0.0
C217 C 0.77657 0.70622 0.41059 0.0
C218 C 0.80386 0.73408 0.39019 0.0
C219 C 0.86718 0.77147 0.39435 0.0
C220 C 0.90197 0.78204 0.41999 0.0
C221 C 0.83946 0.74357 0.4146 0.0
C222 C 0.90892 0.76447 0.466 0.0
C223 C 0.88218 0.73568 0.48564 0.0
H224 H 0.76932 0.27837 0.98317 0.0
H225 H 0.83794 0.39112 0.98364 0.0
H226 H 0.89502 0.3549 0.94678 0.0
H227 H 0.92596 0.29008 0.91687 0.0
H228 H 0.85917 0.17604 0.92487 0.0
H229 H 0.80073 0.21342 0.95618 0.0
C230 C 0.79701 0.2947 0.97565 0.0
C231 C 0.79963 0.33719 0.98568 0.0
C232 C 0.82981 0.27341 0.95584 0.0
C233 C 0.83527 0.35848 0.97532 0.0
C234 C 0.86785 0.33775 0.95455 0.0
C235 C 0.89835 0.27373 0.92494 0.0
C236 C 0.89636 0.23069 0.91818 0.0
C237 C 0.86547 0.29517 0.94466 0.0
C238 C 0.86099 0.20934 0.92967 0.0
C239 C 0.82773 0.23061 0.94767 0.0
H240 H 0.20398 0.69129 0.42089 0.0
H241 H 0.13939 0.65723 0.55056 0.0
H242 H 0.08572 0.70597 0.52954 0.0
H243 H 0.05698 0.75826 0.4735 0.0
H244 H 0.11791 0.78553 0.33898 0.0
H245 H 0.17291 0.73898 0.36186 0.0
C246 C 0.17778 0.69397 0.44398 0.0
C247 C 0.17575 0.67096 0.4874 0.0
C248 C 0.14648 0.7209 0.43071 0.0
C249 C 0.14195 0.67527 0.51748 0.0
C250 C 0.11119 0.70291 0.5053 0.0
C251 C 0.08245 0.75398 0.44945 0.0
C252 C 0.08387 0.77545 0.40498 0.0
C253 C 0.11321 0.72606 0.46209 0.0
C254 C 0.11646 0.76928 0.37348 0.0
C255 C 0.14782 0.74273 0.38654 0.0
H256 H 0.71627 0.76661 0.98163 0.0
H257 H 0.66063 0.88126 0.93774 0.0
H258 H 0.60358 0.84305 0.90436 0.0
H259 H 0.56935 0.77668 0.88898 0.0
H260 H 0.62326 0.66257 0.93921 0.0
H261 H 0.68096 0.70081 0.9697 0.0
C262 C 0.69129 0.78311 0.96543 0.0
C263 C 0.69237 0.8265 0.96206 0.0
C264 C 0.65842 0.76102 0.94757 0.0
C265 C 0.6604 0.84775 0.94012 0.0
C266 C 0.62783 0.82595 0.92132 0.0
C267 C 0.59386 0.76026 0.90639 0.0
C268 C 0.59222 0.71692 0.91166 0.0
C269 C 0.62654 0.78253 0.92482 0.0
C270 C 0.62384 0.69598 0.93489 0.0
C271 C 0.65684 0.71778 0.95225 0.0
H272 H 0.28153 0.20391 0.50447 0.0
H273 H 0.35386 0.09566 0.47776 0.0
H274 H 0.40402 0.13826 0.43588 0.0
H275 H 0.42794 0.20704 0.40863 0.0
H276 H 0.35859 0.31593 0.44322 0.0
H277 H 0.30657 0.27273 0.48047 0.0
C278 C 0.3086 0.1899 0.49009 0.0
C279 C 0.31411 0.14684 0.49393 0.0
C280 C 0.33758 0.21473 0.46722 0.0
C281 C 0.34888 0.12873 0.47449 0.0
C282 C 0.37754 0.15307 0.45077 0.0
C283 C 0.40111 0.22104 0.42379 0.0
C284 C 0.39651 0.26432 0.42266 0.0
C285 C 0.37217 0.19613 0.44681 0.0
C286 C 0.36231 0.28253 0.44342 0.0
C287 C 0.33276 0.25791 0.46485 0.0
H288 H 0.33795 0.82695 0.02459 0.0
H289 H 0.2559 0.80996 0.90586 0.0
H290 H 0.30252 0.76177 0.86702 0.0
H291 H 0.36716 0.72508 0.86654 0.0
H292 H 0.44586 0.73553 0.98981 0.0
H293 H 0.39971 0.7848 0.02808 0.0
C294 C 0.33013 0.81209 0.99069 0.0
C295 C 0.29405 0.82249 0.96756 0.0
C296 C 0.3564 0.7832 0.9696 0.0
C297 C 0.28417 0.80332 0.92344 0.0
C298 C 0.3106 0.77552 0.9015 0.0
C299 C 0.37401 0.73813 0.90184 0.0
C300 C 0.40978 0.72717 0.92527 0.0
C301 C 0.34694 0.7655 0.92406 0.0
C302 C 0.4183 0.74362 0.97128 0.0
C303 C 0.39206 0.77183 0.99303 0.0
H304 H 0.65642 0.13582 0.46133 0.0
H305 H 0.72695 0.23276 0.52556 0.0
H306 H 0.67759 0.28458 0.5001 0.0
H307 H 0.61438 0.30247 0.45822 0.0
H308 H 0.54862 0.20628 0.38514 0.0
H309 H 0.59637 0.15421 0.41406 0.0
C310 C 0.66121 0.16834 0.46906 0.0
C311 C 0.69496 0.18034 0.4959 0.0
C312 C 0.6336 0.19814 0.45241 0.0
C313 C 0.70061 0.22261 0.50617 0.0
C314 C 0.6726 0.25229 0.49118 0.0
C315 C 0.61065 0.27009 0.44872 0.0
C316 C 0.57804 0.25813 0.41982 0.0
C317 C 0.63891 0.24043 0.4643 0.0
C318 C 0.57367 0.21619 0.40717 0.0
C319 C 0.60086 0.1864 0.42382 0.0
H320 H 0.31142 0.4103 0.94453 0.0
H321 H 0.27415 0.5019 0.04843 0.0
H322 H 0.326 0.54964 0.01877 0.0
H323 H 0.38085 0.56537 0.96156 0.0
H324 H 0.41429 0.47486 0.85334 0.0
H325 H 0.36433 0.42691 0.88536 0.0
C326 C 0.31496 0.44076 0.96052 0.0
C327 C 0.28999 0.45255 0.99913 0.0
C328 C 0.34363 0.46826 0.942 0.0
C329 C 0.29409 0.49198 0.01969 0.0
C330 C 0.32331 0.51931 1.00228 0.0
C331 C 0.3772 0.53517 0.94494 0.0
C332 C 0.40139 0.52375 0.90514 0.0
C333 C 0.34815 0.50781 0.96327 0.0
C334 C 0.39597 0.48461 0.88379 0.0
C335 C 0.36756 0.45704 0.90223 0.0
H336 H 0.69655 0.52946 0.50498 0.0
H337 H 0.6495 0.63173 0.42208 0.0
H338 H 0.59485 0.58809 0.39209 0.0
H339 H 0.56097 0.52077 0.38955 0.0
H340 H 0.60605 0.41893 0.47592 0.0
H341 H 0.66062 0.46248 0.50538 0.0
C342 C 0.67379 0.5421 0.48113 0.0
C343 C 0.67636 0.58353 0.46594 0.0
C344 C 0.64234 0.51694 0.46473 0.0
C345 C 0.6476 0.59975 0.43401 0.0
C346 C 0.61655 0.57488 0.417 0.0
C347 C 0.58278 0.50806 0.41472 0.0
C348 C 0.57956 0.46663 0.43029 0.0
C349 C 0.61371 0.53338 0.432 0.0
C350 C 0.60779 0.45078 0.46343 0.0
C351 C 0.63906 0.47561 0.48023 0.0
H352 H 0.66607 0.39366 0.9305 0.0
H353 H 0.68971 0.46943 0.05533 0.0
H354 H 0.64077 0.52094 0.02723 0.0
H355 H 0.59392 0.5456 0.96497 0.0
H356 H 0.57431 0.47241 0.83612 0.0
H357 H 0.61996 0.41915 0.86696 0.0
C358 C 0.65993 0.42136 0.9515 0.0
C359 C 0.68048 0.42771 0.99526 0.0
C360 C 0.6333 0.45152 0.93382 0.0
C361 C 0.67318 0.46364 0.02231 0.0
C362 C 0.64574 0.49324 1.00582 0.0
C363 C 0.59958 0.51801 0.94357 0.0
C364 C 0.58066 0.51302 0.89829 0.0
C365 C 0.62601 0.48771 0.96132 0.0
C366 C 0.58866 0.47721 0.8709 0.0
C367 C 0.61454 0.4466 0.88865 0.0
H368 H 0.28309 0.52418 0.52733 0.0
H369 H 0.30909 0.62157 0.42493 0.0
H370 H 0.36247 0.57941 0.38861 0.0
H371 H 0.40181 0.51499 0.38654 0.0
H372 H 0.37853 0.41879 0.49227 0.0
H373 H 0.32464 0.46054 0.52761 0.0
C374 C 0.30109 0.53632 0.49781 0.0
C375 C 0.29265 0.5759 0.47898 0.0
C376 C 0.3321 0.51211 0.47779 0.0
C377 C 0.3152 0.59102 0.43968 0.0
C378 C 0.34567 0.567 0.4191 0.0
C379 C 0.38487 0.50304 0.41721 0.0
C380 C 0.39412 0.46368 0.43652 0.0
C381 C 0.35434 0.52745 0.4378 0.0
C382 C 0.37214 0.44899 0.4767 0.0
C383 C 0.34126 0.47282 0.49691 0.0
H384 H 0.7939 0.96539 1.00474 0.0
H385 H 0.84334 0.86291 0.92515 0.0
H386 H 0.89626 0.90781 0.8919 0.0
H387 H 0.92723 0.97708 0.88465 0.0
H388 H 0.87936 0.07859 0.96855 0.0
H389 H 0.82704 0.03355 1.00128 0.0
C390 C 0.81687 0.95305 0.98087 0.0
C391 C 0.8155 0.91128 0.96749 0.0
C392 C 0.84702 0.97897 0.96245 0.0
C393 C 0.84456 0.89515 0.93591 0.0
C394 C 0.87446 0.9208 0.91685 0.0
C395 C 0.90517 0.98926 0.90988 0.0
C396 C 0.90685 0.03107 0.92388 0.0
C397 C 0.87575 0.96291 0.92951 0.0
C398 C 0.87859 0.04644 0.95726 0.0
C399 C 0.84871 0.02075 0.97601 0.0
H400 H 0.17632 0.09533 0.45815 0.0
H401 H 0.21997 0.99832 0.55159 0.0
H402 H 0.16847 0.9509 0.52106 0.0
H403 H 0.11266 0.9367 0.46482 0.0
H404 H 0.07465 0.03217 0.36452 0.0
H405 H 0.12279 0.08034 0.39948 0.0
C406 C 0.1739 0.06391 0.47202 0.0
C407 C 0.20057 0.05042 0.50804 0.0
C408 C 0.14586 0.03647 0.45227 0.0
C409 C 0.19851 0.00952 0.5252 0.0
C410 C 0.16955 0.98238 0.50718 0.0
C411 C 0.11501 0.96803 0.45062 0.0
C412 C 0.09015 0.98082 0.41213 0.0
C413 C 0.14329 0.99542 0.47033 0.0
C414 C 0.09372 0.02141 0.3938 0.0
C415 C 0.12102 0.04909 0.41399 0.0
H416 H 0.20528 0.98074 0.01586 0.0
H417 H 0.16246 0.87685 0.93364 0.0
H418 H 0.10837 0.91944 0.89958 0.0
H419 H 0.07406 0.98635 0.89288 0.0
H420 H 0.11449 0.09 0.97833 0.0
H421 H 0.16859 0.0475 0.0121 0.0
C422 C 0.18357 0.9676 0.99115 0.0
C423 C 0.18721 0.92605 0.97719 0.0
C424 C 0.15248 0.99221 0.97227 0.0
C425 C 0.15971 0.90898 0.94452 0.0
C426 C 0.12902 0.93325 0.92515 0.0
C427 C 0.09484 0.9997 0.9187 0.0
C428 C 0.09055 0.04128 0.93278 0.0
C429 C 0.12529 0.97497 0.93854 0.0
C430 C 0.11724 0.058 0.96692 0.0
C431 C 0.14816 0.03376 0.98621 0.0
H432 H 0.8322 0.11338 0.45177 0.0
H433 H 0.77277 0.01998 0.53696 0.0
H434 H 0.82156 0.96769 0.51005 0.0
H435 H 0.88055 0.94857 0.46035 0.0
H436 H 0.93596 0.04151 0.36935 0.0
H437 H 0.88927 0.09377 0.39954 0.0
C438 C 0.83019 0.08149 0.46418 0.0
C439 C 0.79965 0.0703 0.49668 0.0
C440 C 0.85742 0.05156 0.44714 0.0
C441 C 0.79674 0.02909 0.51267 0.0
C442 C 0.82437 0.99929 0.49698 0.0
C443 C 0.88238 0.98028 0.44726 0.0
C444 C 0.91172 0.99109 0.41269 0.0
C445 C 0.85482 0.01013 0.46405 0.0
C446 C 0.91349 0.03225 0.39568 0.0
C447 C 0.8869 0.06225 0.41306 0.0
H448 H 0.31611 0.34423 0.07354 0.0
H449 H 0.26989 0.46216 0.11994 0.0
H450 H 0.3194 0.46467 0.18567 0.0
H451 H 0.37442 0.43151 0.23167 0.0
H452 H 0.41609 0.31014 0.18857 0.0
H453 H 0.36938 0.31015 0.12076 0.0
C454 C 0.31721 0.37041 0.09813 0.0
C455 C 0.2902 0.40334 0.09176 0.0
C456 C 0.34451 0.37063 0.13682 0.0
C457 C 0.29131 0.43712 0.12364 0.0
C458 C 0.31921 0.43823 0.16147 0.0
C459 C 0.37325 0.40509 0.20743 0.0
C460 C 0.39873 0.37088 0.21538 0.0
C461 C 0.3458 0.40496 0.16867 0.0
C462 C 0.39663 0.33677 0.18371 0.0
C463 C 0.37006 0.33678 0.14467 0.0
H464 H 0.65664 0.68223 0.55528 0.0
H465 H 0.70531 0.56082 0.58205 0.0
H466 H 0.65808 0.55043 0.64957 0.0
H467 H 0.60369 0.5773 0.70224 0.0
H468 H 0.56002 0.70194 0.67898 0.0
H469 H 0.60489 0.71022 0.60979 0.0
C470 C 0.65675 0.65367 0.57623 0.0
C471 C 0.68378 0.62212 0.56389 0.0
C472 C 0.63073 0.64879 0.61591 0.0
C473 C 0.68405 0.58508 0.59074 0.0
C474 C 0.65737 0.57939 0.62947 0.0
C475 C 0.60409 0.60622 0.682 0.0
C476 C 0.57857 0.63892 0.69584 0.0
C477 C 0.63063 0.61116 0.64256 0.0
C478 C 0.5796 0.67637 0.66944 0.0
C479 C 0.60511 0.68113 0.62966 0.0
H480 H 0.69233 0.42254 0.12089 0.0
H481 H 0.65575 0.31121 0.04832 0.0
H482 H 0.60264 0.30022 0.10905 0.0
H483 H 0.56676 0.32292 0.18304 0.0
H484 H 0.60197 0.43672 0.25286 0.0
H485 H 0.65513 0.4466 0.19295 0.0
C486 C 0.67196 0.39657 0.11795 0.0
C487 C 0.67693 0.36819 0.08 0.0
C488 C 0.64158 0.39082 0.15271 0.0
C489 C 0.65172 0.33358 0.07719 0.0
C490 C 0.62163 0.32731 0.1119 0.0
C491 C 0.58627 0.3497 0.18525 0.0
C492 C 0.58052 0.37893 0.22248 0.0
C493 C 0.61634 0.3557 0.14998 0.0
C494 C 0.60569 0.4138 0.22451 0.0
C495 C 0.63611 0.41951 0.19026 0.0
H496 H 0.31716 0.67221 0.56376 0.0
H497 H 0.26926 0.55348 0.60438 0.0
H498 H 0.31951 0.54659 0.66899 0.0
H499 H 0.37598 0.57584 0.71522 0.0
H500 H 0.41951 0.69804 0.67867 0.0
H501 H 0.37173 0.70272 0.61198 0.0
C502 C 0.31823 0.64483 0.58674 0.0
C503 C 0.29064 0.61287 0.57904 0.0
C504 C 0.34594 0.64213 0.6249 0.0
C505 C 0.29122 0.57775 0.60916 0.0
C506 C 0.31956 0.57413 0.64629 0.0
C507 C 0.37495 0.60349 0.69268 0.0
C508 C 0.4013 0.63651 0.70198 0.0
C509 C 0.34694 0.60629 0.65471 0.0
C510 C 0.39936 0.67229 0.67265 0.0
C511 C 0.37221 0.67493 0.63426 0.0
H512 H 0.80339 0.92878 0.08256 0.0
H513 H 0.82091 0.79945 0.05121 0.0
H514 H 0.86919 0.79352 0.11786 0.0
H515 H 0.9061 0.82524 0.18481 0.0
H516 H 0.89066 0.95559 0.21499 0.0
H517 H 0.84204 0.96129 0.14895 0.0
C518 C 0.81844 0.89966 0.09003 0.0
C519 C 0.80918 0.86463 0.06221 0.0
C520 C 0.84616 0.89667 0.1283 0.0
C521 C 0.8279 0.82664 0.07251 0.0
C522 C 0.85533 0.82331 0.11051 0.0
C523 C 0.89189 0.85486 0.17729 0.0
C524 C 0.90186 0.88985 0.2051 0.0
C525 C 0.86452 0.85807 0.13882 0.0
C526 C 0.88352 0.92812 0.19424 0.0
C527 C 0.85576 0.93144 0.15641 0.0
H528 H 0.18556 0.16426 0.5883 0.0
H529 H 0.21376 0.03732 0.62253 0.0
H530 H 0.16258 0.03686 0.6865 0.0
H531 H 0.11022 0.07317 0.73317 0.0
H532 H 0.08536 0.2021 0.70228 0.0
H533 H 0.13547 0.20167 0.63766 0.0
C534 C 0.18044 0.13667 0.61003 0.0
C535 C 0.20254 0.10053 0.60017 0.0
C536 C 0.15193 0.13723 0.64771 0.0
C537 C 0.19597 0.06491 0.62842 0.0
C538 C 0.16714 0.0649 0.66539 0.0
C539 C 0.11579 0.10124 0.71243 0.0
C540 C 0.09382 0.13757 0.72269 0.0
C541 C 0.14489 0.10091 0.67535 0.0
C542 C 0.1018 0.1737 0.69551 0.0
C543 C 0.13038 0.17347 0.6583 0.0
H544 H 0.1648 0.82731 0.06406 0.0
H545 H 0.21369 0.94752 0.09457 0.0
H546 H 0.16433 0.95773 0.15984 0.0
H547 H 0.10777 0.93134 0.20896 0.0
H548 H 0.06172 0.80879 0.18015 0.0
H549 H 0.10966 0.8002 0.11426 0.0
C550 C 0.16451 0.85552 0.08539 0.0
C551 C 0.1924 0.88671 0.075 0.0
C552 C 0.13677 0.86056 0.12329 0.0
C553 C 0.19202 0.92342 0.10211 0.0
C554 C 0.16403 0.92907 0.13942 0.0
C555 C 0.10822 0.90279 0.18826 0.0
C556 C 0.08111 0.87082 0.19968 0.0
C557 C 0.13628 0.89774 0.15046 0.0
C558 C 0.08232 0.83389 0.17253 0.0
C559 C 0.10967 0.82891 0.13462 0.0
H560 H 0.82265 0.17499 0.58184 0.0
H561 H 0.78491 0.05056 0.61404 0.0
H562 H 0.83675 0.04449 0.67691 0.0
H563 H 0.89161 0.07615 0.72442 0.0
H564 H 0.92534 0.20299 0.6946 0.0
H565 H 0.87602 0.20694 0.62981 0.0
C566 C 0.82603 0.14664 0.60277 0.0
C567 C 0.8008 0.11302 0.59314 0.0
C568 C 0.85488 0.14405 0.63955 0.0
C569 C 0.80489 0.07634 0.6202 0.0
C570 C 0.83419 0.07312 0.65639 0.0
C571 C 0.88822 0.10457 0.70362 0.0
C572 C 0.91218 0.13921 0.71452 0.0
C573 C 0.85927 0.10692 0.66657 0.0
C574 C 0.90717 0.17592 0.68737 0.0
C575 C 0.87905 0.17824 0.65012 0.0
loop_
_geom_bond_atom_site_label_1
_geom_bond_atom_site_label_2
_geom_bond_distance
_geom_bond_site_symmetry_2
_ccdc_geom_bond_type
C0 N1 1.317 . S
C0 N2 1.348 1_554 S
C0 C3 1.485 . S
N1 C0 1.317 . S
N1 N5 1.370 1_554 S
N2 C0 1.348 1_556 S
N2 C4 1.346 . S
C3 C0 1.485 . S
C3 H7 0.960 . S
C3 H8 0.961 . S
C3 H9 0.960 . S
C4 N2 1.346 . S
C4 N5 1.307 . S
C4 C6 1.486 . S
N5 N1 1.370 1_556 S
N5 C4 1.307 . S
C6 C4 1.486 . S
C6 H10 0.960 . S
C6 H11 0.960 . S
C6 H12 0.959 . S
H7 C3 0.960 . S
H8 C3 0.961 . S
H9 C3 0.960 . S
H10 C6 0.960 . S
H11 C6 0.960 . S
H12 C6 0.959 . S
C13 N14 1.317 . S
C13 N15 1.348 . S
C13 C16 1.485 . S
N14 C13 1.317 . S
N14 N18 1.370 . S
N15 C13 1.348 . S
N15 C17 1.346 . S
C16 C13 1.485 . S
C16 H20 0.960 . S
C16 H21 0.961 . S
C16 H22 0.960 . S
C17 N15 1.346 . S
C17 N18 1.307 . S
C17 C19 1.486 . S
N18 N14 1.370 . S
N18 C17 1.307 . S
C19 C17 1.486 . S
C19 H23 0.960 . S
C19 H24 0.960 . S
C19 H25 0.959 . S
H20 C16 0.960 . S
H21 C16 0.961 . S
H22 C16 0.960 . S
H23 C19 0.960 . S
H24 C19 0.960 . S
H25 C19 0.959 . S
C26 N27 1.317 . S
C26 N28 1.348 1_554 S
C26 C29 1.485 . S
N27 C26 1.317 . S
N27 N31 1.370 1_554 S
N28 C26 1.348 1_556 S
N28 C30 1.346 . S
C29 C26 1.485 . S
C29 H33 0.960 . S
C29 H34 0.961 . S
C29 H35 0.960 . S
C30 N28 1.346 . S
C30 N31 1.307 . S
C30 C32 1.486 . S
N31 N27 1.370 1_556 S
N31 C30 1.307 . S
C32 C30 1.486 . S
C32 H36 0.960 . S
C32 H37 0.960 . S
C32 H38 0.959 . S
H33 C29 0.960 . S
H34 C29 0.961 . S
H35 C29 0.960 . S
H36 C32 0.960 . S
H37 C32 0.960 . S
H38 C32 0.959 . S
C39 N40 1.317 . S
C39 N41 1.348 . S
C39 C42 1.485 . S
N40 C39 1.317 . S
N40 N44 1.370 . S
N41 C39 1.348 . S
N41 C43 1.346 . S
C42 C39 1.485 . S
C42 H46 0.960 . S
C42 H47 0.961 . S
C42 H48 0.960 . S
C43 N41 1.346 . S
C43 N44 1.307 . S
C43 C45 1.486 . S
N44 N40 1.370 . S
N44 C43 1.307 . S
C45 C43 1.486 . S
C45 H49 0.960 . S
C45 H50 0.960 . S
C45 H51 0.959 . S
H46 C42 0.960 . S
H47 C42 0.961 . S
H48 C42 0.960 . S
H49 C45 0.960 . S
H50 C45 0.960 . S
H51 C45 0.959 . S
C52 N53 1.317 . S
C52 N54 1.348 1_554 S
C52 C55 1.485 . S
N53 C52 1.317 . S
N53 N57 1.370 1_554 S
N54 C52 1.348 1_556 S
N54 C56 1.346 . S
C55 C52 1.485 . S
C55 H59 0.960 . S
C55 H60 0.961 . S
C55 H61 0.960 . S
C56 N54 1.346 . S
C56 N57 1.307 . S
C56 C58 1.486 . S
N57 N53 1.370 1_556 S
N57 C56 1.307 . S
C58 C56 1.486 . S
C58 H62 0.960 . S
C58 H63 0.960 . S
C58 H64 0.959 . S
H59 C55 0.960 . S
H60 C55 0.961 . S
H61 C55 0.960 . S
H62 C58 0.960 . S
H63 C58 0.960 . S
H64 C58 0.959 . S
C65 N66 1.317 . S
C65 N67 1.348 . S
C65 C68 1.485 . S
N66 C65 1.317 . S
N66 N70 1.370 . S
N67 C65 1.348 . S
N67 C69 1.346 . S
C68 C65 1.485 . S
C68 H72 0.960 . S
C68 H73 0.961 . S
C68 H74 0.960 . S
C69 N67 1.346 . S
C69 N70 1.307 . S
C69 C71 1.486 . S
N70 N66 1.370 . S
N70 C69 1.307 . S
C71 C69 1.486 . S
C71 H75 0.960 . S
C71 H76 0.960 . S
C71 H77 0.959 . S
H72 C68 0.960 . S
H73 C68 0.961 . S
H74 C68 0.960 . S
H75 C71 0.960 . S
H76 C71 0.960 . S
H77 C71 0.959 . S
C78 N79 1.317 . S
C78 N80 1.348 1_554 S
C78 C81 1.485 . S
N79 C78 1.317 . S
N79 N83 1.370 1_554 S
N80 C78 1.348 1_556 S
N80 C82 1.346 . S
C81 C78 1.485 . S
C81 H85 0.960 . S
C81 H86 0.961 . S
C81 H87 0.960 . S
C82 N80 1.346 . S
C82 N83 1.307 . S
C82 C84 1.486 . S
N83 N79 1.370 1_556 S
N83 C82 1.307 . S
C84 C82 1.486 . S
C84 H88 0.960 . S
C84 H89 0.960 . S
C84 H90 0.959 . S
H85 C81 0.960 . S
H86 C81 0.961 . S
H87 C81 0.960 . S
H88 C84 0.960 . S
H89 C84 0.960 . S
H90 C84 0.959 . S
C91 N92 1.317 . S
C91 N93 1.348 . S
C91 C94 1.485 . S
N92 C91 1.317 . S
N92 N96 1.370 . S
N93 C91 1.348 . S
N93 C95 1.346 . S
C94 C91 1.485 . S
C94 H98 0.960 . S
C94 H99 0.961 . S
C94 H100 0.960 . S
C95 N93 1.346 . S
C95 N96 1.307 . S
C95 C97 1.486 . S
N96 N92 1.370 . S
N96 C95 1.307 . S
C97 C95 1.486 . S
C97 H101 0.960 . S
C97 H102 0.960 . S
C97 H103 0.959 . S
H98 C94 0.960 . S
H99 C94 0.961 . S
H100 C94 0.960 . S
H101 C97 0.960 . S
H102 C97 0.960 . S
H103 C97 0.959 . S
Sc104 O107 2.025 . S
Sc104 O114 2.105 1_455 S
Sc104 O117 2.105 . S
Sc104 O120 2.105 . S
Sc104 O123 2.105 1_455 S
Sc105 O107 2.025 . S
Sc105 O115 2.105 1_455 S
Sc105 O119 2.105 . S
Sc105 O121 2.105 . S
Sc105 O125 2.105 1_455 S
Sc106 O107 2.025 . S
Sc106 O116 2.105 1_455 S
Sc106 O118 2.105 . S
Sc106 O122 2.105 . S
Sc106 O124 2.105 1_455 S
O107 Sc104 2.025 . S
O107 Sc105 2.025 . S
O107 Sc106 2.025 . S
C108 O114 1.268 . S
C108 O124 1.268 . S
C109 O115 1.268 . S
C109 O123 1.268 . S
C110 O116 1.268 . S
C110 O125 1.268 . S
C111 O117 1.268 . S
C111 O121 1.268 . S
C112 O118 1.268 . S
C112 O120 1.268 . S
C113 O119 1.268 . S
C113 O122 1.268 . S
O114 Sc104 2.105 1_655 S
O114 C108 1.268 . S
O115 Sc105 2.105 1_655 S
O115 C109 1.268 . S
O116 Sc106 2.105 1_655 S
O116 C110 1.268 . S
O117 Sc104 2.105 . S
O117 C111 1.268 . S
O118 Sc106 2.105 . S
O118 C112 1.268 . S
O119 Sc105 2.105 . S
O119 C113 1.268 . S
O120 Sc104 2.105 . S
O120 C112 1.268 . S
O121 Sc105 2.105 . S
O121 C111 1.268 . S
O122 Sc106 2.105 . S
O122 C113 1.268 . S
O123 Sc104 2.105 1_655 S
O123 C109 1.268 . S
O124 Sc106 2.105 1_655 S
O124 C108 1.268 . S
O125 Sc105 2.105 1_655 S
O125 C110 1.268 . S
Sc126 O129 2.025 . S
Sc126 O136 2.105 . S
Sc126 O139 2.105 1_455 S
Sc126 O142 2.105 1_455 S
Sc126 O145 2.105 . S
Sc127 O129 2.025 . S
Sc127 O137 2.105 . S
Sc127 O141 2.105 1_455 S
Sc127 O143 2.105 1_455 S
Sc127 O147 2.105 . S
Sc128 O129 2.025 . S
Sc128 O138 2.105 . S
Sc128 O140 2.105 1_455 S
Sc128 O144 2.105 1_455 S
Sc128 O146 2.105 . S
O129 Sc126 2.025 . S
O129 Sc127 2.025 . S
O129 Sc128 2.025 . S
C130 O136 1.268 . S
C130 O146 1.268 . S
C131 O137 1.268 . S
C131 O145 1.268 . S
C132 O138 1.268 . S
C132 O147 1.268 . S
C133 O139 1.268 . S
C133 O143 1.268 . S
C134 O140 1.268 . S
C134 O142 1.268 . S
C135 O141 1.268 . S
C135 O144 1.268 . S
O136 Sc126 2.105 . S
O136 C130 1.268 . S
O137 Sc127 2.105 . S
O137 C131 1.268 . S
O138 Sc128 2.105 . S
O138 C132 1.268 . S
O139 Sc126 2.105 1_655 S
O139 C133 1.268 . S
O140 Sc128 2.105 1_655 S
O140 C134 1.268 . S
O141 Sc127 2.105 1_655 S
O141 C135 1.268 . S
O142 Sc126 2.105 1_655 S
O142 C134 1.268 . S
O143 Sc127 2.105 1_655 S
O143 C133 1.268 . S
O144 Sc128 2.105 1_655 S
O144 C135 1.268 . S
O145 Sc126 2.105 . S
O145 C131 1.268 . S
O146 Sc128 2.105 . S
O146 C130 1.268 . S
O147 Sc127 2.105 . S
O147 C132 1.268 . S
Sc148 O151 2.025 . S
Sc148 O158 2.105 . S
Sc148 O161 2.105 . S
Sc148 O164 2.105 . S
Sc148 O167 2.105 . S
Sc149 O151 2.025 . S
Sc149 O159 2.105 . S
Sc149 O163 2.105 . S
Sc149 O165 2.105 . S
Sc149 O169 2.105 . S
Sc150 O151 2.025 . S
Sc150 O160 2.105 . S
Sc150 O162 2.105 . S
Sc150 O166 2.105 . S
Sc150 O168 2.105 . S
O151 Sc148 2.025 . S
O151 Sc149 2.025 . S
O151 Sc150 2.025 . S
C152 O158 1.268 . S
C152 O168 1.268 . S
C153 O159 1.268 . S
C153 O167 1.268 . S
C154 O160 1.268 . S
C154 O169 1.268 . S
C155 O161 1.268 . S
C155 O165 1.268 . S
C156 O162 1.268 . S
C156 O164 1.268 . S
C157 O163 1.268 . S
C157 O166 1.268 . S
O158 Sc148 2.105 . S
O158 C152 1.268 . S
O159 Sc149 2.105 . S
O159 C153 1.268 . S
O160 Sc150 2.105 . S
O160 C154 1.268 . S
O161 Sc148 2.105 . S
O161 C155 1.268 . S
O162 Sc150 2.105 . S
O162 C156 1.268 . S
O163 Sc149 2.105 . S
O163 C157 1.268 . S
O164 Sc148 2.105 . S
O164 C156 1.268 . S
O165 Sc149 2.105 . S
O165 C155 1.268 . S
O166 Sc150 2.105 . S
O166 C157 1.268 . S
O167 Sc148 2.105 . S
O167 C153 1.268 . S
O168 Sc150 2.105 . S
O168 C152 1.268 . S
O169 Sc149 2.105 . S
O169 C154 1.268 . S
Sc170 O173 2.025 . S
Sc170 O180 2.105 . S
Sc170 O183 2.105 . S
Sc170 O186 2.105 . S
Sc170 O189 2.105 . S
Sc171 O173 2.025 . S
Sc171 O181 2.105 . S
Sc171 O185 2.105 . S
Sc171 O187 2.105 . S
Sc171 O191 2.105 . S
Sc172 O173 2.025 . S
Sc172 O182 2.105 . S
Sc172 O184 2.105 . S
Sc172 O188 2.105 . S
Sc172 O190 2.105 . S
O173 Sc170 2.025 . S
O173 Sc171 2.025 . S
O173 Sc172 2.025 . S
C174 O180 1.268 . S
C174 O190 1.268 . S
C175 O181 1.268 . S
C175 O189 1.268 . S
C176 O182 1.268 . S
C176 O191 1.268 . S
C177 O183 1.268 . S
C177 O187 1.268 . S
C178 O184 1.268 . S
C178 O186 1.268 . S
C179 O185 1.268 . S
C179 O188 1.268 . S
O180 Sc170 2.105 . S
O180 C174 1.268 . S
O181 Sc171 2.105 . S
O181 C175 1.268 . S
O182 Sc172 2.105 . S
O182 C176 1.268 . S
O183 Sc170 2.105 . S
O183 C177 1.268 . S
O184 Sc172 2.105 . S
O184 C178 1.268 . S
O185 Sc171 2.105 . S
O185 C179 1.268 . S
O186 Sc170 2.105 . S
O186 C178 1.268 . S
O187 Sc171 2.105 . S
O187 C177 1.268 . S
O188 Sc172 2.105 . S
O188 C179 1.268 . S
O189 Sc170 2.105 . S
O189 C175 1.268 . S
O190 Sc172 2.105 . S
O190 C174 1.268 . S
O191 Sc171 2.105 . S
O191 C176 1.268 . S
H192 C198 0.930 . S
H193 C201 0.930 . S
H194 C202 0.930 . S
H195 C203 0.930 . S
H196 C206 0.930 . S
H197 C207 0.930 . S
C198 H192 0.930 . S
C198 C199 1.355 . S
C198 C200 1.415 . S
C199 C198 1.355 . S
C199 C201 1.419 . S
C200 C198 1.415 . S
C200 C205 1.425 . S
C200 C207 1.409 . S
C201 H193 0.930 . S
C201 C199 1.419 . S
C201 C202 1.362 . S
C202 H194 0.930 . S
C202 C201 1.362 . S
C202 C205 1.409 . S
C203 H195 0.930 . S
C203 C204 1.355 . S
C203 C205 1.415 . S
C204 C203 1.355 . S
C204 C206 1.419 . S
C205 C200 1.425 . S
C205 C202 1.409 . S
C205 C203 1.415 . S
C206 H196 0.930 . S
C206 C204 1.419 . S
C206 C207 1.362 . S
C207 H197 0.930 . S
C207 C200 1.409 . S
C207 C206 1.362 . S
H208 C214 0.930 . S
H209 C217 0.930 . S
H210 C218 0.930 . S
H211 C219 0.930 . S
H212 C222 0.930 . S
H213 C223 0.930 . S
C214 H208 0.930 . S
C214 C215 1.355 . S
C214 C216 1.415 . S
C215 C214 1.355 . S
C215 C217 1.419 . S
C216 C214 1.415 . S
C216 C221 1.425 . S
C216 C223 1.409 . S
C217 H209 0.930 . S
C217 C215 1.419 . S
C217 C218 1.362 . S
C218 H210 0.930 . S
C218 C217 1.362 . S
C218 C221 1.409 . S
C219 H211 0.930 . S
C219 C220 1.355 . S
C219 C221 1.415 . S
C220 C219 1.355 . S
C220 C222 1.419 . S
C221 C216 1.425 . S
C221 C218 1.409 . S
C221 C219 1.415 . S
C222 H212 0.930 . S
C222 C220 1.419 . S
C222 C223 1.362 . S
C223 H213 0.930 . S
C223 C216 1.409 . S
C223 C222 1.362 . S
H224 C230 0.930 1_554 S
H225 C233 0.930 . S
H226 C234 0.930 . S
H227 C235 0.930 . S
H228 C238 0.930 . S
H229 C239 0.930 1_554 S
C230 H224 0.930 1_556 S
C230 C231 1.355 . S
C230 C232 1.415 . S
C231 C230 1.355 . S
C231 C233 1.419 . S
C232 C230 1.415 . S
C232 C237 1.425 . S
C232 C239 1.409 . S
C233 H225 0.930 . S
C233 C231 1.419 . S
C233 C234 1.362 . S
C234 H226 0.930 . S
C234 C233 1.362 . S
C234 C237 1.409 . S
C235 H227 0.930 . S
C235 C236 1.355 . S
C235 C237 1.415 . S
C236 C235 1.355 . S
C236 C238 1.419 . S
C237 C232 1.425 . S
C237 C234 1.409 . S
C237 C235 1.415 . S
C238 H228 0.930 . S
C238 C236 1.419 . S
C238 C239 1.362 . S
C239 H229 0.930 1_556 S
C239 C232 1.409 . S
C239 C238 1.362 . S
H240 C246 0.930 . S
H241 C249 0.930 . S
H242 C250 0.930 . S
H243 C251 0.930 . S
H244 C254 0.930 . S
H245 C255 0.930 . S
C246 H240 0.930 . S
C246 C247 1.355 . S
C246 C248 1.415 . S
C247 C246 1.355 . S
C247 C249 1.419 . S
C248 C246 1.415 . S
C248 C253 1.425 . S
C248 C255 1.409 . S
C249 H241 0.930 . S
C249 C247 1.419 . S
C249 C250 1.362 . S
C250 H242 0.930 . S
C250 C249 1.362 . S
C250 C253 1.409 . S
C251 H243 0.930 . S
C251 C252 1.355 . S
C251 C253 1.415 . S
C252 C251 1.355 . S
C252 C254 1.419 . S
C253 C248 1.425 . S
C253 C250 1.409 . S
C253 C251 1.415 . S
C254 H244 0.930 . S
C254 C252 1.419 . S
C254 C255 1.362 . S
C255 H245 0.930 . S
C255 C248 1.409 . S
C255 C254 1.362 . S
H256 C262 0.930 . S
H257 C265 0.930 . S
H258 C266 0.930 . S
H259 C267 0.930 . S
H260 C270 0.930 . S
H261 C271 0.930 . S
C262 H256 0.930 . S
C262 C263 1.355 . S
C262 C264 1.415 . S
C263 C262 1.355 . S
C263 C265 1.419 . S
C264 C262 1.415 . S
C264 C269 1.425 . S
C264 C271 1.409 . S
C265 H257 0.930 . S
C265 C263 1.419 . S
C265 C266 1.362 . S
C266 H258 0.930 . S
C266 C265 1.362 . S
C266 C269 1.409 . S
C267 H259 0.930 . S
C267 C268 1.355 . S
C267 C269 1.415 . S
C268 C267 1.355 . S
C268 C270 1.419 . S
C269 C264 1.425 . S
C269 C266 1.409 . S
C269 C267 1.415 . S
C270 H260 0.930 . S
C270 C268 1.419 . S
C270 C271 1.362 . S
C271 H261 0.930 . S
C271 C264 1.409 . S
C271 C270 1.362 . S
H272 C278 0.930 . S
H273 C281 0.930 . S
H274 C282 0.930 . S
H275 C283 0.930 . S
H276 C286 0.930 . S
H277 C287 0.930 . S
C278 H272 0.930 . S
C278 C279 1.355 . S
C278 C280 1.415 . S
C279 C278 1.355 . S
C279 C281 1.419 . S
C280 C278 1.415 . S
C280 C285 1.425 . S
C280 C287 1.409 . S
C281 H273 0.930 . S
C281 C279 1.419 . S
C281 C282 1.362 . S
C282 H274 0.930 . S
C282 C281 1.362 . S
C282 C285 1.409 . S
C283 H275 0.930 . S
C283 C284 1.355 . S
C283 C285 1.415 . S
C284 C283 1.355 . S
C284 C286 1.419 . S
C285 C280 1.425 . S
C285 C282 1.409 . S
C285 C283 1.415 . S
C286 H276 0.930 . S
C286 C284 1.419 . S
C286 C287 1.362 . S
C287 H277 0.930 . S
C287 C280 1.409 . S
C287 C286 1.362 . S
H288 C294 0.930 1_554 S
H289 C297 0.930 . S
H290 C298 0.930 . S
H291 C299 0.930 . S
H292 C302 0.930 . S
H293 C303 0.930 1_554 S
C294 H288 0.930 1_556 S
C294 C295 1.355 . S
C294 C296 1.415 . S
C295 C294 1.355 . S
C295 C297 1.419 . S
C296 C294 1.415 . S
C296 C301 1.425 . S
C296 C303 1.409 . S
C297 H289 0.930 . S
C297 C295 1.419 . S
C297 C298 1.362 . S
C298 H290 0.930 . S
C298 C297 1.362 . S
C298 C301 1.409 . S
C299 H291 0.930 . S
C299 C300 1.355 . S
C299 C301 1.415 . S
C300 C299 1.355 . S
C300 C302 1.419 . S
C301 C296 1.425 . S
C301 C298 1.409 . S
C301 C299 1.415 . S
C302 H292 0.930 . S
C302 C300 1.419 . S
C302 C303 1.362 . S
C303 H293 0.930 1_556 S
C303 C296 1.409 . S
C303 C302 1.362 . S
H304 C310 0.930 . S
H305 C313 0.930 . S
H306 C314 0.930 . S
H307 C315 0.930 . S
H308 C318 0.930 . S
H309 C319 0.930 . S
C310 H304 0.930 . S
C310 C311 1.355 . S
C310 C312 1.415 . S
C311 C310 1.355 . S
C311 C313 1.419 . S
C312 C310 1.415 . S
C312 C317 1.425 . S
C312 C319 1.409 . S
C313 H305 0.930 . S
C313 C311 1.419 . S
C313 C314 1.362 . S
C314 H306 0.930 . S
C314 C313 1.362 . S
C314 C317 1.409 . S
C315 H307 0.930 . S
C315 C316 1.355 . S
C315 C317 1.415 . S
C316 C315 1.355 . S
C316 C318 1.419 . S
C317 C312 1.425 . S
C317 C314 1.409 . S
C317 C315 1.415 . S
C318 H308 0.930 . S
C318 C316 1.419 . S
C318 C319 1.362 . S
C319 H309 0.930 . S
C319 C312 1.409 . S
C319 C318 1.362 . S
H320 C326 0.930 . S
H321 C329 0.930 . S
H322 C330 0.930 . S
H323 C331 0.930 . S
H324 C334 0.930 . S
H325 C335 0.930 . S
C326 H320 0.930 . S
C326 C327 1.355 . S
C326 C328 1.415 . S
C327 C326 1.355 . S
C327 C329 1.419 . S
C328 C326 1.415 . S
C328 C333 1.425 . S
C328 C335 1.409 . S
C329 H321 0.930 . S
C329 C327 1.419 . S
C329 C330 1.362 . S
C330 H322 0.930 . S
C330 C329 1.362 . S
C330 C333 1.409 . S
C331 H323 0.930 . S
C331 C332 1.355 . S
C331 C333 1.415 . S
C332 C331 1.355 . S
C332 C334 1.419 . S
C333 C328 1.425 . S
C333 C330 1.409 . S
C333 C331 1.415 . S
C334 H324 0.930 . S
C334 C332 1.419 . S
C334 C335 1.362 . S
C335 H325 0.930 . S
C335 C328 1.409 . S
C335 C334 1.362 . S
H336 C342 0.930 . S
H337 C345 0.930 . S
H338 C346 0.930 . S
H339 C347 0.930 . S
H340 C350 0.930 . S
H341 C351 0.930 . S
C342 H336 0.930 . S
C342 C343 1.355 . S
C342 C344 1.415 . S
C343 C342 1.355 . S
C343 C345 1.419 . S
C344 C342 1.415 . S
C344 C349 1.425 . S
C344 C351 1.409 . S
C345 H337 0.930 . S
C345 C343 1.419 . S
C345 C346 1.362 . S
C346 H338 0.930 . S
C346 C345 1.362 . S
C346 C349 1.409 . S
C347 H339 0.930 . S
C347 C348 1.355 . S
C347 C349 1.415 . S
C348 C347 1.355 . S
C348 C350 1.419 . S
C349 C344 1.425 . S
C349 C346 1.409 . S
C349 C347 1.415 . S
C350 H340 0.930 . S
C350 C348 1.419 . S
C350 C351 1.362 . S
C351 H341 0.930 . S
C351 C344 1.409 . S
C351 C350 1.362 . S
H352 C358 0.930 1_554 S
H353 C361 0.930 . S
H354 C362 0.930 . S
H355 C363 0.930 . S
H356 C366 0.930 . S
H357 C367 0.932 . S
C358 H352 0.930 1_556 S
C358 C359 1.355 . S
C358 C360 1.415 . S
C359 C358 1.355 . S
C359 C361 1.419 . S
C360 C358 1.415 . S
C360 C365 1.425 . S
C360 C367 1.409 . S
C361 H353 0.930 . S
C361 C359 1.419 . S
C361 C362 1.362 . S
C362 H354 0.930 . S
C362 C361 1.362 . S
C362 C365 1.409 . S
C363 H355 0.930 . S
C363 C364 1.355 . S
C363 C365 1.415 . S
C364 C363 1.355 . S
C364 C366 1.419 . S
C365 C360 1.425 . S
C365 C362 1.409 . S
C365 C363 1.415 . S
C366 H356 0.930 . S
C366 C364 1.419 . S
C366 C367 1.362 . S
C367 H357 0.932 . S
C367 C360 1.409 . S
C367 C366 1.362 . S
H368 C374 0.930 . S
H369 C377 0.930 . S
H370 C378 0.930 . S
H371 C379 0.930 . S
H372 C382 0.930 . S
H373 C383 0.930 . S
C374 H368 0.930 . S
C374 C375 1.355 . S
C374 C376 1.415 . S
C375 C374 1.355 . S
C375 C377 1.419 . S
C376 C374 1.415 . S
C376 C381 1.425 . S
C376 C383 1.409 . S
C377 H369 0.930 . S
C377 C375 1.419 . S
C377 C378 1.362 . S
C378 H370 0.930 . S
C378 C377 1.362 . S
C378 C381 1.409 . S
C379 H371 0.930 . S
C379 C380 1.355 . S
C379 C381 1.415 . S
C380 C379 1.355 . S
C380 C382 1.419 . S
C381 C376 1.425 . S
C381 C378 1.409 . S
C381 C379 1.415 . S
C382 H372 0.930 . S
C382 C380 1.419 . S
C382 C383 1.362 . S
C383 H373 0.930 . S
C383 C376 1.409 . S
C383 C382 1.362 . S
H384 C390 0.930 1_554 S
H385 C393 0.930 . S
H386 C394 0.930 . S
H387 C395 0.930 . S
H388 C398 0.930 . S
H389 C399 0.928 1_564 S
C390 H384 0.930 1_556 S
C390 C391 1.355 . S
C390 C392 1.415 . S
C391 C390 1.355 . S
C391 C393 1.419 . S
C392 C390 1.415 . S
C392 C397 1.425 . S
C392 C399 1.409 1_565 S
C393 H385 0.930 . S
C393 C391 1.419 . S
C393 C394 1.362 . S
C394 H386 0.930 . S
C394 C393 1.362 . S
C394 C397 1.409 . S
C395 H387 0.930 . S
C395 C396 1.355 . S
C395 C397 1.415 1_545 S
C396 C395 1.355 . S
C396 C398 1.419 . S
C397 C392 1.425 . S
C397 C394 1.409 . S
C397 C395 1.415 1_565 S
C398 H388 0.930 . S
C398 C396 1.419 . S
C398 C399 1.362 . S
C399 H389 0.928 1_546 S
C399 C392 1.409 1_545 S
C399 C398 1.362 . S
H400 C406 0.930 . S
H401 C409 0.930 . S
H402 C410 0.930 . S
H403 C411 0.930 . S
H404 C414 0.930 . S
H405 C415 0.930 . S
C406 H400 0.930 . S
C406 C407 1.355 . S
C406 C408 1.415 . S
C407 C406 1.355 . S
C407 C409 1.419 . S
C408 C406 1.415 . S
C408 C413 1.425 1_545 S
C408 C415 1.409 . S
C409 H401 0.930 . S
C409 C407 1.419 . S
C409 C410 1.362 1_545 S
C410 H402 0.930 . S
C410 C409 1.362 1_565 S
C410 C413 1.409 . S
C411 H403 0.930 . S
C411 C412 1.355 . S
C411 C413 1.415 . S
C412 C411 1.355 . S
C412 C414 1.405 1_565 S
C413 C408 1.425 1_565 S
C413 C410 1.409 . S
C413 C411 1.415 . S
C414 H404 0.930 . S
C414 C412 1.405 1_545 S
C414 C415 1.376 . S
C415 H405 0.930 . S
C415 C408 1.409 . S
C415 C414 1.376 . S
H416 C422 0.930 1_554 S
H417 C425 0.930 . S
H418 C426 0.930 . S
H419 C427 0.930 . S
H420 C430 0.930 . S
H421 C431 0.930 1_554 S
C422 H416 0.930 1_556 S
C422 C423 1.355 . S
C422 C424 1.415 . S
C423 C422 1.355 . S
C423 C425 1.419 . S
C424 C422 1.415 . S
C424 C429 1.425 . S
C424 C431 1.409 . S
C425 H417 0.930 . S
C425 C423 1.419 . S
C425 C426 1.362 . S
C426 H418 0.930 . S
C426 C425 1.362 . S
C426 C429 1.409 . S
C427 H419 0.930 . S
C427 C428 1.355 . S
C427 C429 1.415 1_545 S
C428 C427 1.355 . S
C428 C430 1.419 . S
C429 C424 1.425 . S
C429 C426 1.409 . S
C429 C427 1.415 1_565 S
C430 H420 0.930 . S
C430 C428 1.419 . S
C430 C431 1.362 1_545 S
C431 H421 0.930 1_556 S
C431 C424 1.409 . S
C431 C430 1.362 1_565 S
H432 C438 0.930 . S
H433 C441 0.930 . S
H434 C442 0.930 1_565 S
H435 C443 0.930 . S
H436 C446 0.930 . S
H437 C447 0.930 . S
C438 H432 0.930 . S
C438 C439 1.355 . S
C438 C440 1.415 . S
C439 C438 1.355 . S
C439 C441 1.419 . S
C440 C438 1.415 . S
C440 C445 1.425 . S
C440 C447 1.409 . S
C441 H433 0.930 . S
C441 C439 1.419 . S
C441 C442 1.362 . S
C442 H434 0.930 1_545 S
C442 C441 1.362 . S
C442 C445 1.409 . S
C443 H435 0.930 . S
C443 C444 1.355 . S
C443 C445 1.415 1_565 S
C444 C443 1.355 . S
C444 C446 1.419 . S
C445 C440 1.425 . S
C445 C442 1.409 . S
C445 C443 1.415 1_545 S
C446 H436 0.930 . S
C446 C444 1.419 . S
C446 C447 1.362 1_565 S
C447 H437 0.930 . S
C447 C440 1.409 . S
C447 C446 1.362 1_545 S
H448 C454 0.930 . S
H449 C457 0.930 . S
H450 C458 0.930 . S
H451 C459 0.930 . S
H452 C462 0.930 . S
H453 C463 0.930 . S
C454 H448 0.930 . S
C454 C455 1.355 . S
C454 C456 1.415 . S
C455 C454 1.355 . S
C455 C457 1.419 . S
C456 C454 1.415 . S
C456 C461 1.425 . S
C456 C463 1.409 . S
C457 H449 0.930 . S
C457 C455 1.419 . S
C457 C458 1.362 . S
C458 H450 0.930 . S
C458 C457 1.362 . S
C458 C461 1.409 . S
C459 H451 0.930 . S
C459 C460 1.355 . S
C459 C461 1.415 . S
C460 C459 1.355 . S
C460 C462 1.419 . S
C461 C456 1.425 . S
C461 C458 1.409 . S
C461 C459 1.415 . S
C462 H452 0.930 . S
C462 C460 1.419 . S
C462 C463 1.362 . S
C463 H453 0.930 . S
C463 C456 1.409 . S
C463 C462 1.362 . S
H464 C470 0.930 . S
H465 C473 0.930 . S
H466 C474 0.930 . S
H467 C475 0.930 . S
H468 C478 0.930 . S
H469 C479 0.930 . S
C470 H464 0.930 . S
C470 C471 1.355 . S
C470 C472 1.415 . S
C471 C470 1.355 . S
C471 C473 1.419 . S
C472 C470 1.415 . S
C472 C477 1.425 . S
C472 C479 1.409 . S
C473 H465 0.930 . S
C473 C471 1.419 . S
C473 C474 1.362 . S
C474 H466 0.930 . S
C474 C473 1.362 . S
C474 C477 1.409 . S
C475 H467 0.930 . S
C475 C476 1.355 . S
C475 C477 1.415 . S
C476 C475 1.355 . S
C476 C478 1.419 . S
C477 C472 1.425 . S
C477 C474 1.409 . S
C477 C475 1.415 . S
C478 H468 0.930 . S
C478 C476 1.419 . S
C478 C479 1.362 . S
C479 H469 0.930 . S
C479 C472 1.409 . S
C479 C478 1.362 . S
H480 C486 0.930 . S
H481 C489 0.930 . S
H482 C490 0.930 . S
H483 C491 0.930 . S
H484 C494 0.930 . S
H485 C495 0.930 . S
C486 H480 0.930 . S
C486 C487 1.355 . S
C486 C488 1.415 . S
C487 C486 1.355 . S
C487 C489 1.419 . S
C488 C486 1.415 . S
C488 C493 1.425 . S
C488 C495 1.409 . S
C489 H481 0.930 . S
C489 C487 1.419 . S
C489 C490 1.362 . S
C490 H482 0.930 . S
C490 C489 1.362 . S
C490 C493 1.409 . S
C491 H483 0.930 . S
C491 C492 1.355 . S
C491 C493 1.415 . S
C492 C491 1.355 . S
C492 C494 1.419 . S
C493 C488 1.425 . S
C493 C490 1.409 . S
C493 C491 1.415 . S
C494 H484 0.930 . S
C494 C492 1.419 . S
C494 C495 1.362 . S
C495 H485 0.930 . S
C495 C488 1.409 . S
C495 C494 1.362 . S
H496 C502 0.930 . S
H497 C505 0.930 . S
H498 C506 0.930 . S
H499 C507 0.930 . S
H500 C510 0.930 . S
H501 C511 0.930 . S
C502 H496 0.930 . S
C502 C503 1.355 . S
C502 C504 1.415 . S
C503 C502 1.355 . S
C503 C505 1.419 . S
C504 C502 1.415 . S
C504 C509 1.425 . S
C504 C511 1.409 . S
C505 H497 0.930 . S
C505 C503 1.419 . S
C505 C506 1.362 . S
C506 H498 0.930 . S
C506 C505 1.362 . S
C506 C509 1.409 . S
C507 H499 0.930 . S
C507 C508 1.355 . S
C507 C509 1.415 . S
C508 C507 1.355 . S
C508 C510 1.419 . S
C509 C504 1.425 . S
C509 C506 1.409 . S
C509 C507 1.415 . S
C510 H500 0.930 . S
C510 C508 1.419 . S
C510 C511 1.362 . S
C511 H501 0.930 . S
C511 C504 1.409 . S
C511 C510 1.362 . S
H512 C518 0.930 . S
H513 C521 0.930 . S
H514 C522 0.930 . S
H515 C523 0.930 . S
H516 C526 0.930 . S
H517 C527 0.930 . S
C518 H512 0.930 . S
C518 C519 1.355 . S
C518 C520 1.415 . S
C519 C518 1.355 . S
C519 C521 1.419 . S
C520 C518 1.415 . S
C520 C525 1.425 . S
C520 C527 1.409 . S
C521 H513 0.930 . S
C521 C519 1.419 . S
C521 C522 1.362 . S
C522 H514 0.930 . S
C522 C521 1.362 . S
C522 C525 1.409 . S
C523 H515 0.930 . S
C523 C524 1.355 . S
C523 C525 1.415 . S
C524 C523 1.355 . S
C524 C526 1.419 . S
C525 C520 1.425 . S
C525 C522 1.409 . S
C525 C523 1.415 . S
C526 H516 0.930 . S
C526 C524 1.419 . S
C526 C527 1.362 . S
C527 H517 0.930 . S
C527 C520 1.409 . S
C527 C526 1.362 . S
H528 C534 0.930 . S
H529 C537 0.930 . S
H530 C538 0.930 . S
H531 C539 0.930 . S
H532 C542 0.930 . S
H533 C543 0.930 . S
C534 H528 0.930 . S
C534 C535 1.355 . S
C534 C536 1.415 . S
C535 C534 1.355 . S
C535 C537 1.419 . S
C536 C534 1.415 . S
C536 C541 1.425 . S
C536 C543 1.409 . S
C537 H529 0.930 . S
C537 C535 1.419 . S
C537 C538 1.362 . S
C538 H530 0.930 . S
C538 C537 1.362 . S
C538 C541 1.409 . S
C539 H531 0.930 . S
C539 C540 1.355 . S
C539 C541 1.415 . S
C540 C539 1.355 . S
C540 C542 1.419 . S
C541 C536 1.425 . S
C541 C538 1.409 . S
C541 C539 1.415 . S
C542 H532 0.930 . S
C542 C540 1.419 . S
C542 C543 1.362 . S
C543 H533 0.930 . S
C543 C536 1.409 . S
C543 C542 1.362 . S
H544 C550 0.930 . S
H545 C553 0.930 . S
H546 C554 0.930 . S
H547 C555 0.930 . S
H548 C558 0.930 . S
H549 C559 0.930 . S
C550 H544 0.930 . S
C550 C551 1.355 . S
C550 C552 1.415 . S
C551 C550 1.355 . S
C551 C553 1.419 . S
C552 C550 1.415 . S
C552 C557 1.425 . S
C552 C559 1.409 . S
C553 H545 0.930 . S
C553 C551 1.419 . S
C553 C554 1.362 . S
C554 H546 0.930 . S
C554 C553 1.362 . S
C554 C557 1.409 . S
C555 H547 0.930 . S
C555 C556 1.355 . S
C555 C557 1.415 . S
C556 C555 1.355 . S
C556 C558 1.419 . S
C557 C552 1.425 . S
C557 C554 1.409 . S
C557 C555 1.415 . S
C558 H548 0.930 . S
C558 C556 1.419 . S
C558 C559 1.362 . S
C559 H549 0.930 . S
C559 C552 1.409 . S
C559 C558 1.362 . S
H560 C566 0.930 . S
H561 C569 0.930 . S
H562 C570 0.930 . S
H563 C571 0.930 . S
H564 C574 0.930 . S
H565 C575 0.930 . S
C566 H560 0.930 . S
C566 C567 1.355 . S
C566 C568 1.415 . S
C567 C566 1.355 . S
C567 C569 1.419 . S
C568 C566 1.415 . S
C568 C573 1.425 . S
C568 C575 1.409 . S
C569 H561 0.930 . S
C569 C567 1.419 . S
C569 C570 1.362 . S
C570 H562 0.930 . S
C570 C569 1.362 . S
C570 C573 1.409 . S
C571 H563 0.930 . S
C571 C572 1.355 . S
C571 C573 1.415 . S
C572 C571 1.355 . S
C572 C574 1.419 . S
C573 C568 1.425 . S
C573 C570 1.409 . S
C573 C571 1.415 . S
C574 H564 0.930 . S
C574 C572 1.419 . S
C574 C575 1.362 . S
C575 H565 0.930 . S
C575 C568 1.409 . S
C575 C574 1.362 . S
C199 N2 1.518 . S
C204 C130 1.478 . S
C220 C108 1.481 . S
C215 N15 1.521 . S
C236 C134 1.512 . S
C231 N28 1.528 . S
C252 C112 1.508 . S
C247 N41 1.517 . S
C268 C174 1.525 . S
C263 N54 1.535 . S
C284 C152 1.511 . S
C279 N67 1.531 . S
C295 N80 1.521 . S
C300 C178 1.503 . S
C316 C156 1.479 . S
C311 N93 1.503 . S
C327 N5 1.510 . S
C332 C179 1.473 . S
C348 C157 1.508 . S
C343 N18 1.496 . S
C359 N31 1.489 . S
C364 C176 1.470 . S
C375 N44 1.488 . S
C380 C154 1.507 . S
C396 C135 1.468 . S
C391 N57 1.495 . S
C407 N70 1.505 . S
C412 C113 1.464 . S
C428 C132 1.475 . S
C423 N83 1.485 . S
C444 C110 1.468 . S
C439 N96 1.493 . S
C460 C153 1.491 . S
C455 N1 1.510 . S
C476 C175 1.466 . S
C471 N14 1.503 . S
C487 N27 1.476 . S
C492 C155 1.506 . S
C508 C177 1.463 . S
C503 N40 1.489 . S
C524 C109 1.481 . S
C519 N53 1.492 . S
C535 N66 1.504 . S
C540 C131 1.465 . S
C551 N79 1.495 . S
C556 C111 1.461 . S
C567 N92 1.504 . S
C572 C133 1.470 . S
