# Generated by pormake.
# Topology zzz, (3,6)-cn, num edge types: 1
# Building blocks:
#     Node 0, Type 0, BuildingBlock: CUQRIR_clean_linker_1, # of connection points: 3
#     Node 1, Type 0, BuildingBlock: CUQRIR_clean_linker_1, # of connection points: 3
#     Node 2, Type 0, BuildingBlock: CUQRIR_clean_linker_1, # of connection points: 3
#     Node 3, Type 0, BuildingBlock: CUQRIR_clean_linker_1, # of connection points: 3
#     Node 4, Type 0, BuildingBlock: CUQRIR_clean_linker_1, # of connection points: 3
#     Node 5, Type 0, BuildingBlock: CUQRIR_clean_linker_1, # of connection points: 3
#     Node 6, Type 0, BuildingBlock: CUQRIR_clean_linker_1, # of connection points: 3
#     Node 7, Type 0, BuildingBlock: CUQRIR_clean_linker_1, # of connection points: 3
#     Node 8, Type 1, BuildingBlock: BETDAH_clean_sbu_0, # of connection points: 6
#     Node 9, Type 1, BuildingBlock: BETDAH_clean_sbu_0, # of connection points: 6
#     Node 10, Type 1, BuildingBlock: BETDAH_clean_sbu_0, # of connection points: 6
#     Node 11, Type 1, BuildingBlock: BETDAH_clean_sbu_0, # of connection points: 6
#     Edge 12, Type (0, 1), BuildingBlock: OJICUG_clean_linker_0, # of connection points: 2
#     Edge 13, Type (0, 1), BuildingBlock: OJICUG_clean_linker_0, # of connection points: 2
#     Edge 14, Type (0, 1), BuildingBlock: OJICUG_clean_linker_0, # of connection points: 2
#     Edge 15, Type (0, 1), BuildingBlock: OJICUG_clean_linker_0, # of connection points: 2
#     Edge 16, Type (0, 1), BuildingBlock: OJICUG_clean_linker_0, # of connection points: 2
#     Edge 17, Type (0, 1), BuildingBlock: OJICUG_clean_linker_0, # of connection points: 2
#     Edge 18, Type (0, 1), BuildingBlock: OJICUG_clean_linker_0, # of connection points: 2
#     Edge 19, Type (0, 1), BuildingBlock: OJICUG_clean_linker_0, # of connection points: 2
#     Edge 20, Type (0, 1), BuildingBlock: OJICUG_clean_linker_0, # of connection points: 2
#     Edge 21, Type (0, 1), BuildingBlock: OJICUG_clean_linker_0, # of connection points: 2
#     Edge 22, Type (0, 1), BuildingBlock: OJICUG_clean_linker_0, # of connection points: 2
#     Edge 23, Type (0, 1), BuildingBlock: OJICUG_clean_linker_0, # of connection points: 2
#     Edge 24, Type (0, 1), BuildingBlock: OJICUG_clean_linker_0, # of connection points: 2
#     Edge 25, Type (0, 1), BuildingBlock: OJICUG_clean_linker_0, # of connection points: 2
#     Edge 26, Type (0, 1), BuildingBlock: OJICUG_clean_linker_0, # of connection points: 2
#     Edge 27, Type (0, 1), BuildingBlock: OJICUG_clean_linker_0, # of connection points: 2
#     Edge 28, Type (0, 1), BuildingBlock: OJICUG_clean_linker_0, # of connection points: 2
#     Edge 29, Type (0, 1), BuildingBlock: OJICUG_clean_linker_0, # of connection points: 2
#     Edge 30, Type (0, 1), BuildingBlock: OJICUG_clean_linker_0, # of connection points: 2
#     Edge 31, Type (0, 1), BuildingBlock: OJICUG_clean_linker_0, # of connection points: 2
#     Edge 32, Type (0, 1), BuildingBlock: OJICUG_clean_linker_0, # of connection points: 2
#     Edge 33, Type (0, 1), BuildingBlock: OJICUG_clean_linker_0, # of connection points: 2
#     Edge 34, Type (0, 1), BuildingBlock: OJICUG_clean_linker_0, # of connection points: 2
#     Edge 35, Type (0, 1), BuildingBlock: OJICUG_clean_linker_0, # of connection points: 2
# Relax obj value: 0.452
# Max RMSD: 0.223
# Mean RMSD: 0.157
data_MOF--net-zzz--node1-BETDAH_clean_sbu_0--node2-CUQRIR_clean_linker_1--edge1-OJICUG_clean_linker_0
_symmetry_space_group_name_H-M    P1
_symmetry_Int_Tables_number       1
_symmetry_cell_setting            triclinic
loop_
_symmetry_equiv_pos_as_xyz
'x, y, z'
_cell_length_a     34.34692
_cell_length_b     34.192407
_cell_length_c     8.8660697
_cell_angle_alpha  89.866814
_cell_angle_beta   90.18891
_cell_angle_gamma 90.307322
loop_
_atom_site_label
_atom_site_type_symbol
_atom_site_fract_x
_atom_site_fract_y
_atom_site_fract_z
_atom_type_partial_charge
C0 C 0.76387 0.54561 0.41908 0.0
N1 N 0.78966 0.51768 0.46773 0.0
N2 N 0.73378 0.52934 0.33795 0.0
C3 C 0.76953 0.58862 0.4411 0.0
C4 C 0.74278 0.49103 0.33645 0.0
N5 N 0.7758 0.48383 0.41514 0.0
C6 C 0.72216 0.46155 0.23858 0.0
H7 H 0.78229 0.5944 0.5541 0.0
H8 H 0.74153 0.60433 0.42805 0.0
H9 H 0.79025 0.59965 0.35496 0.0
H10 H 0.73359 0.46361 0.12198 0.0
H11 H 0.69083 0.46839 0.23167 0.0
H12 H 0.72662 0.43135 0.28083 0.0
C13 C 1.00928 0.76447 0.41976 0.0
N14 N 0.03622 0.79132 0.46964 0.0
N15 N 1.02634 0.73567 0.33566 0.0
C16 C 0.96636 0.76774 0.44466 0.0
C17 C 0.06414 0.74644 0.33395 0.0
N18 N 0.07031 0.77936 0.4152 0.0
C19 C 0.09418 0.72744 0.23544 0.0
H20 H 0.96054 0.77982 0.55841 0.0
H21 H 0.95191 0.73883 0.43168 0.0
H22 H 0.95409 0.78819 0.35981 0.0
H23 H 0.09234 0.73998 0.12018 0.0
H24 H 0.08806 0.69583 0.2247 0.0
H25 H 0.12401 0.73243 0.27995 0.0
C26 C 0.78673 1.01594 0.38771 0.0
N27 N 0.75081 0.03308 0.37305 0.0
N28 N 0.80797 1.01938 0.25708 0.0
C29 C 0.80194 0.99784 0.52985 0.0
C30 C 0.78306 0.03827 0.1642 0.0
N31 N 0.75067 0.0494 0.23681 0.0
C32 C 0.79187 0.0489 1.00237 0.0
H33 H 0.80941 1.02137 0.61114 0.0
H34 H 0.82843 0.98039 0.50721 0.0
H35 H 0.77923 0.97896 0.58157 0.0
H36 H 0.817 0.03229 0.95798 0.0
H37 H 0.79785 0.08074 0.99297 0.0
H38 H 0.76625 0.042 0.93123 0.0
C39 C 0.54498 0.79406 0.42241 0.0
N40 N 0.51684 0.7682 0.46972 0.0
N41 N 0.52924 0.82417 0.3404 0.0
C42 C 0.5877 0.78851 0.44707 0.0
C43 C 0.49101 0.81517 0.33682 0.0
N44 N 0.48337 0.78204 0.41531 0.0
C45 C 0.46217 0.83558 0.23588 0.0
H46 H 0.59307 0.77582 0.56055 0.0
H47 H 0.60361 0.81666 0.43467 0.0
H48 H 0.59874 0.76764 0.36183 0.0
H49 H 0.46441 0.8236 0.12014 0.0
H50 H 0.46926 0.86701 0.22674 0.0
H51 H 0.43194 0.83132 0.27643 0.0
C52 C 0.29102 0.51313 0.29128 0.0
N53 N 0.26515 0.541 0.24265 0.0
N54 N 0.32099 0.52945 0.37288 0.0
C55 C 0.28554 0.47012 0.26875 0.0
C56 C 0.31185 0.56772 0.37473 0.0
N57 N 0.27886 0.57485 0.29574 0.0
C58 C 0.33229 0.59721 0.47321 0.0
H59 H 0.26483 0.45894 0.35462 0.0
H60 H 0.3136 0.45451 0.28182 0.0
H61 H 0.27286 0.46436 0.15559 0.0
H62 H 0.36364 0.59046 0.48062 0.0
H63 H 0.32074 0.59504 0.5896 0.0
H64 H 0.32778 0.62742 0.43118 0.0
C65 C 0.04461 0.29386 0.28681 0.0
N66 N 1.01754 0.26719 0.23641 0.0
N67 N 0.02771 0.32254 0.37207 0.0
C68 C 0.08749 0.29052 0.26127 0.0
C69 C 0.98987 0.31187 0.37389 0.0
N70 N 0.98353 0.27916 0.29164 0.0
C71 C 0.95996 0.3308 0.47316 0.0
H72 H 0.09977 0.26987 0.34539 0.0
H73 H 0.10204 0.31936 0.27489 0.0
H74 H 0.09318 0.27863 0.1471 0.0
H75 H 0.9662 0.36237 0.48479 0.0
H76 H 0.96181 0.31804 0.58805 0.0
H77 H 0.93009 0.32602 0.42875 0.0
C78 C 0.26619 0.0425 0.31478 0.0
N79 N 0.30211 1.02534 0.32936 0.0
N80 N 0.24498 0.03908 0.4455 0.0
C81 C 0.25096 0.06056 0.17262 0.0
C82 C 0.26991 1.02019 0.53831 0.0
N83 N 0.30227 1.00902 0.46559 0.0
C84 C 0.26118 1.00965 0.70028 0.0
H85 H 0.22448 0.07803 0.19525 0.0
H86 H 0.24348 0.03702 0.09144 0.0
H87 H 0.27367 0.07942 0.12074 0.0
H88 H 0.25521 0.97781 0.71 0.0
H89 H 0.23606 1.02628 0.74471 0.0
H90 H 0.28682 1.01661 0.77118 0.0
C91 C 0.50907 0.26478 0.28387 0.0
N92 N 0.53732 0.29065 0.23768 0.0
N93 N 0.52465 0.23451 0.36544 0.0
C94 C 0.46639 0.27048 0.25868 0.0
C95 C 0.56289 0.24342 0.36994 0.0
N96 N 0.5707 0.27665 0.29237 0.0
C97 C 0.59158 0.22283 0.47102 0.0
H98 H 0.45527 0.29108 0.34471 0.0
H99 H 0.45043 0.2423 0.2695 0.0
H100 H 0.46117 0.28352 0.1457 0.0
H101 H 0.58434 0.19142 0.47998 0.0
H102 H 0.58934 0.23479 0.5868 0.0
H103 H 0.62185 0.22697 0.43073 0.0
Ho104 Ho 0.04694 1.01774 0.96941 0.0
Ho105 Ho 1.00603 0.04101 0.73412 0.0
C106 C 1.02586 0.94735 0.75182 0.0
C107 C 0.08094 1.00624 0.22524 0.0
C108 C 0.10662 0.97599 0.28467 0.0
C109 C 0.09349 0.95427 0.40747 0.0
C110 C 0.11337 0.92124 0.45344 0.0
C111 C 0.14668 0.90882 0.37554 0.0
C112 C 0.16173 0.93237 0.25918 0.0
C113 C 0.14171 0.96587 0.21352 0.0
C114 C 0.09552 1.02401 0.72786 0.0
C115 C 0.02726 0.11138 0.95201 0.0
C116 C 0.97191 0.0525 0.47845 0.0
C117 C 0.94629 0.08277 0.41873 0.0
C118 C 0.95951 0.10446 0.29598 0.0
C119 C 0.93971 0.13754 0.24987 0.0
C120 C 0.90641 0.15003 0.32765 0.0
C121 C 0.89121 0.12645 0.44367 0.0
C122 C 0.91115 0.09292 0.48947 0.0
C123 C 0.95761 0.03472 0.97611 0.0
O124 O 0.03642 0.95476 0.8925 0.0
O125 O 1.01706 0.97747 0.66495 0.0
O126 O 0.09517 1.02875 0.12033 0.0
O127 O 0.04538 0.99474 0.19602 0.0
O128 O 0.09354 0.99457 0.81922 0.0
O129 O 0.06989 0.04894 0.76397 0.0
O130 O 1.01668 0.104 0.81127 0.0
O131 O 0.03597 0.08123 0.0388 0.0
O132 O 0.95766 0.03011 0.58373 0.0
O133 O 1.00751 0.0639 0.50733 0.0
O134 O 0.9596 0.06423 0.88509 0.0
O135 O 0.98312 1.00976 0.93911 0.0
H136 H 0.06679 0.962 0.46352 0.0
H137 H 0.10053 0.9036 0.54183 0.0
H138 H 0.18678 0.92293 0.19516 0.0
H139 H 0.15243 0.98231 0.11758 0.0
H140 H 0.98622 0.09669 0.24014 0.0
H141 H 0.95264 0.15516 0.16164 0.0
H142 H 0.86615 0.13593 0.50752 0.0
H143 H 0.90034 0.07648 0.58526 0.0
Ho144 Ho 0.53803 0.05045 0.96766 0.0
Ho145 Ho 0.51502 1.00777 0.7357 0.0
C146 C 0.60283 0.03374 0.71197 0.0
C147 C 0.56483 0.08588 0.20369 0.0
C148 C 0.58803 0.1207 0.23361 0.0
C149 C 0.59367 0.14938 0.12211 0.0
C150 C 0.62594 0.17429 0.13188 0.0
C151 C 0.65414 0.16692 0.24387 0.0
C152 C 0.64195 0.14665 0.37465 0.0
C153 C 0.60951 0.12232 0.36696 0.0
C154 C 0.50889 0.09932 0.74532 0.0
C155 C 0.45016 1.02456 0.991 0.0
C156 C 0.48828 0.97225 0.4997 0.0
C157 C 0.46499 0.93752 0.46941 0.0
C158 C 0.44351 0.93608 0.33603 0.0
C159 C 0.41102 0.91182 0.32793 0.0
C160 C 0.39876 0.89147 0.45844 0.0
C161 C 0.42691 0.88398 0.57051 0.0
C162 C 0.45925 0.90878 0.58058 0.0
C163 C 0.54429 0.95912 0.95848 0.0
O164 O 0.59834 0.03854 0.85939 0.0
O165 O 0.57091 0.02942 0.63153 0.0
O166 O 0.53064 0.09213 0.146 0.0
O167 O 0.58304 0.05725 0.13728 0.0
O168 O 0.50148 0.10131 0.88712 0.0
O169 O 0.53145 0.07061 0.72569 0.0
O170 O 0.45467 1.01969 0.84364 0.0
O171 O 0.48205 1.02891 0.07156 0.0
O172 O 0.52238 0.96591 0.55803 0.0
O173 O 0.4701 1.00097 0.56566 0.0
O174 O 0.55179 0.9571 0.81675 0.0
O175 O 0.52152 0.98768 0.97753 0.0
H176 H 0.57598 0.14959 0.02069 0.0
H177 H 0.6333 0.19195 0.03433 0.0
H178 H 0.66105 0.14316 0.47112 0.0
H179 H 0.60361 0.10218 0.4586 0.0
H180 H 0.44946 0.9563 0.24467 0.0
H181 H 0.39196 0.91546 0.23145 0.0
H182 H 0.41946 0.86626 0.66778 0.0
H183 H 0.47693 0.90844 0.68203 0.0
Ho184 Ho 0.50669 0.53858 0.97583 0.0
Ho185 Ho 0.54826 0.52062 0.73481 0.0
C186 C 0.52289 0.60975 0.73721 0.0
C187 C 0.47563 0.56254 0.2234 0.0
C188 C 0.44579 0.58942 0.27342 0.0
C189 C 0.44854 0.60404 0.41936 0.0
C190 C 0.42691 0.63635 0.46038 0.0
C191 C 0.40194 0.65431 0.35458 0.0
C192 C 0.39396 0.63468 0.21804 0.0
C193 C 0.41664 0.60285 0.17575 0.0
C194 C 0.45687 0.51318 0.75097 0.0
C195 C 0.53193 0.44939 0.97276 0.0
C196 C 0.57956 0.49671 0.48763 0.0
C197 C 0.60917 0.46957 0.43773 0.0
C198 C 0.6063 0.45496 0.29181 0.0
C199 C 0.62764 0.42245 0.25089 0.0
C200 C 0.65244 0.40427 0.35675 0.0
C201 C 0.66051 0.42378 0.49345 0.0
C202 C 0.63814 0.45584 0.53559 0.0
C203 C 0.59786 0.54609 0.96029 0.0
O204 O 0.51483 0.6014 0.88018 0.0
O205 O 0.5314 0.58035 0.64819 0.0
O206 O 0.46333 0.53234 0.14812 0.0
O207 O 0.50689 0.57836 0.16538 0.0
O208 O 0.45539 0.50332 0.89104 0.0
O209 O 0.48549 0.53651 0.73451 0.0
O210 O 0.54 0.45779 0.82988 0.0
O211 O 0.52348 0.47876 0.06202 0.0
O212 O 0.59203 0.52666 0.56397 0.0
O213 O 0.54803 0.48113 0.54439 0.0
O214 O 0.5993 0.55617 0.82043 0.0
O215 O 0.56937 0.52256 0.97594 0.0
H216 H 0.46963 0.59237 0.49756 0.0
H217 H 0.43345 0.6495 0.5685 0.0
H218 H 0.37374 0.64681 0.13665 0.0
H219 H 0.41333 0.59065 0.06373 0.0
H220 H 0.58531 0.4668 0.21355 0.0
H221 H 0.621 0.40934 0.14279 0.0
H222 H 0.68055 0.41142 0.575 0.0
H223 H 0.64152 0.468 0.64766 0.0
Ho224 Ho 1.01832 0.508 0.97558 0.0
Ho225 Ho 0.0366 0.55013 0.73334 0.0
C226 C 0.94766 0.52403 0.73564 0.0
C227 C 0.99449 0.47638 0.22358 0.0
C228 C 0.96778 0.44617 0.27515 0.0
C229 C 0.95376 0.44867 0.42182 0.0
C230 C 0.92158 0.42679 0.46444 0.0
C231 C 0.90304 0.40195 0.35928 0.0
C232 C 0.92221 0.39396 0.22232 0.0
C233 C 0.95396 0.41687 0.17847 0.0
C234 C 0.04365 0.45852 0.75112 0.0
C235 C 0.10727 0.53417 0.9735 0.0
C236 C 0.06033 0.58191 0.48548 0.0
C237 C 0.08698 0.61217 0.43389 0.0
C238 C 0.10108 0.60965 0.28732 0.0
C239 C 0.13317 0.63167 0.24471 0.0
C240 C 0.15156 0.65665 0.34981 0.0
C241 C 0.13229 0.66462 0.48655 0.0
C242 C 0.10063 0.6416 0.5304 0.0
C243 C 1.01104 0.59941 0.95788 0.0
O244 O 0.95586 0.51603 0.87898 0.0
O245 O 0.97706 0.53262 0.64667 0.0
O246 O 1.02443 0.4643 0.14808 0.0
O247 O 0.97872 0.50763 0.16506 0.0
O248 O 0.05333 0.45687 0.89135 0.0
O249 O 1.0205 0.48706 0.7344 0.0
O250 O 0.09908 0.54223 0.83018 0.0
O251 O 0.07788 0.52547 0.06232 0.0
O252 O 0.03043 0.59394 0.56132 0.0
O253 O 0.07614 0.55063 0.5436 0.0
O254 O 1.00126 0.60099 0.81775 0.0
O255 O 0.03443 0.57104 0.97423 0.0
H256 H 0.96576 0.46985 0.49937 0.0
H257 H 0.90888 0.43324 0.57305 0.0
H258 H 0.90973 0.37371 0.14157 0.0
H259 H 0.96575 0.41366 0.066 0.0
H260 H 0.08921 0.58837 0.20988 0.0
H261 H 0.14595 0.62521 0.13624 0.0
H262 H 0.14465 0.68497 0.56723 0.0
H263 H 0.08877 0.64482 0.64275 0.0
C264 C 0.18013 0.07021 0.49887 0.0
C265 C 0.20302 0.03681 0.47019 0.0
H266 H 0.12692 0.09283 0.59645 0.0
C267 C 0.18761 1.00033 0.5135 0.0
H268 H 0.19141 0.09896 0.47136 0.0
C269 C 0.15398 0.99752 0.60037 0.0
C270 C 0.13067 0.03013 0.62938 0.0
H271 H 0.20455 0.97408 0.49662 0.0
H272 H 0.14669 0.96933 0.64835 0.0
C273 C 0.14359 0.06674 0.57358 0.0
C274 C 0.50245 0.20565 0.60694 0.0
C275 C 0.50742 0.20217 0.44996 0.0
H276 H 0.49894 0.17653 0.8218 0.0
C277 C 0.50861 0.1641 0.38972 0.0
H278 H 0.50282 0.23438 0.65807 0.0
C279 C 0.5078 0.13065 0.48412 0.0
C280 C 0.50539 0.13428 0.64177 0.0
H281 H 0.51317 0.16051 0.26996 0.0
H282 H 0.51028 0.1019 0.43463 0.0
C283 C 0.50104 0.1723 0.70107 0.0
C284 C 0.39082 0.5117 0.39802 0.0
C285 C 0.35309 0.51284 0.46016 0.0
H286 H 0.45295 0.51006 0.44007 0.0
C287 C 0.35013 0.51037 0.61838 0.0
H288 H 0.39425 0.51449 0.27722 0.0
C289 C 0.38362 0.50904 0.71117 0.0
C290 C 0.42144 0.51071 0.64932 0.0
H291 H 0.3218 0.51253 0.67082 0.0
H292 H 0.3798 0.50885 0.83239 0.0
C293 C 0.42444 0.51037 0.49117 0.0
C294 C 0.04538 0.35161 0.61901 0.0
C295 C 0.04368 0.35483 0.46069 0.0
H296 H 0.0464 0.38109 0.83299 0.0
C297 C 0.04563 0.39276 0.3984 0.0
H298 H 0.04268 0.32307 0.67128 0.0
C299 C 0.04702 0.42639 0.49156 0.0
C300 C 0.04597 0.42313 0.64968 0.0
H301 H 0.04356 0.39632 0.27739 0.0
H302 H 0.04794 0.4551 0.4404 0.0
C303 C 0.04678 0.38508 0.71177 0.0
C304 C 0.86536 0.05819 0.18981 0.0
C305 C 0.84995 1.02169 0.23266 0.0
H306 H 0.90634 0.08931 0.05566 0.0
C307 C 0.87286 0.98832 0.20376 0.0
H308 H 0.84838 0.08442 0.2068 0.0
C309 C 0.90945 0.99185 0.12941 0.0
C310 C 0.92239 1.02851 0.07416 0.0
H311 H 0.86158 0.95954 0.23087 0.0
H312 H 0.92614 0.96579 0.1064 0.0
C313 C 0.89904 0.06109 0.10331 0.0
C314 C 0.54504 0.8946 0.31485 0.0
C315 C 0.54628 0.85647 0.25509 0.0
H316 H 0.54315 0.95675 0.26923 0.0
C317 C 0.55108 0.85289 0.09806 0.0
H318 H 0.54058 0.89826 0.43462 0.0
C319 C 0.55231 0.88617 1.00349 0.0
C320 C 0.54793 0.92423 0.06238 0.0
H321 H 0.55074 0.82412 0.04727 0.0
H322 H 0.55431 0.88185 0.88278 0.0
C323 C 0.54565 0.92797 0.22003 0.0
C324 C 0.70465 0.5484 0.09242 0.0
C325 C 0.70172 0.54602 0.25067 0.0
H326 H 0.67492 0.54996 0.87853 0.0
C327 C 0.66402 0.54737 0.31296 0.0
H328 H 0.73295 0.54607 0.03989 0.0
C329 C 0.63038 0.54882 0.21995 0.0
C330 C 0.63333 0.5484 0.06178 0.0
H331 H 0.66061 0.54468 0.4338 0.0
H332 H 0.60188 0.5493 0.27117 0.0
C333 C 0.67114 0.54985 0.99977 0.0
C334 C 1.0089 0.66532 0.31009 0.0
C335 C 1.01053 0.70322 0.24746 0.0
H336 H 1.00699 0.60294 0.26862 0.0
C337 C 1.00869 0.70636 0.08916 0.0
H338 H 1.0111 0.66184 0.43111 0.0
C339 C 1.00746 0.67282 0.9967 0.0
C340 C 1.00859 0.63482 0.05909 0.0
H341 H 1.01115 0.73489 0.03663 0.0
H342 H 1.00772 0.67676 0.87544 0.0
C343 C 1.00768 0.63163 0.21724 0.0
C344 C 0.92881 0.24326 0.17503 0.0
C345 C 0.94928 0.25533 0.30366 0.0
H346 H 0.89207 0.19857 0.083 0.0
C347 C 0.93788 0.24146 0.44575 0.0
H348 H 0.93574 0.25538 0.06551 0.0
C349 C 0.9107 0.2115 0.45677 0.0
C350 C 0.89874 0.19227 0.32486 0.0
H351 H 0.95287 0.25083 0.547 0.0
H352 H 0.90667 0.19806 0.56652 0.0
C353 C 0.90258 0.212 0.18605 0.0
C354 C 0.31064 0.94096 0.38434 0.0
C355 C 0.31782 0.97072 0.49006 0.0
H356 H 0.32869 0.8852 0.3029 0.0
C357 C 0.33841 0.96196 0.62143 0.0
H358 H 0.29229 0.94636 0.287 0.0
C359 C 0.35715 0.92622 0.63489 0.0
C360 C 0.35885 0.90116 0.50873 0.0
H361 H 0.34228 0.98365 0.70799 0.0
H362 H 0.3765 0.92253 0.73052 0.0
C363 C 0.33005 0.90535 0.39695 0.0
C364 C 0.61622 0.31126 0.45661 0.0
C365 C 0.60546 0.29928 0.31148 0.0
H366 H 0.64724 0.35211 0.58826 0.0
C367 C 0.62667 0.31262 0.18695 0.0
H368 H 0.60049 0.30106 0.55469 0.0
C369 C 0.65345 0.34312 0.20592 0.0
C370 C 0.6567 0.36133 0.34796 0.0
H371 H 0.61993 0.30208 0.07479 0.0
H372 H 0.66548 0.35699 0.10633 0.0
C373 C 0.6436 0.34066 0.47532 0.0
C374 C 0.24419 0.62102 0.45485 0.0
C375 C 0.25626 0.6096 0.31105 0.0
H376 H 0.20341 0.65237 0.58279 0.0
C377 C 0.24306 0.63011 0.18426 0.0
H378 H 0.25436 0.6059 0.55463 0.0
C379 C 0.21269 0.65679 0.20004 0.0
C380 C 0.19443 0.66068 0.3414 0.0
H381 H 0.25367 0.62291 0.07297 0.0
H382 H 0.19909 0.66835 0.09904 0.0
C383 C 0.21485 0.64824 0.47037 0.0
C384 C 0.12493 0.81571 0.5304 0.0
C385 C 0.10443 0.80333 0.40227 0.0
H386 H 0.1615 0.86073 0.62099 0.0
C387 C 0.11566 0.81704 0.25974 0.0
H388 H 0.11813 0.80373 0.64028 0.0
C389 C 0.14265 0.84716 0.24774 0.0
C390 C 0.1546 0.86663 0.37909 0.0
H391 H 0.10065 0.80742 0.15888 0.0
H392 H 0.1465 0.86047 0.13767 0.0
C393 C 0.15098 0.84709 0.51838 0.0
C394 C 0.71445 0.09637 0.08084 0.0
C395 C 0.73508 0.08768 0.21219 0.0
H396 H 0.67631 0.13573 0.97165 0.0
C397 C 0.74227 0.11749 0.31767 0.0
H398 H 0.71057 0.07465 0.99444 0.0
C399 C 0.72286 0.1531 0.30488 0.0
C400 C 0.69402 0.15722 0.19321 0.0
H401 H 0.76066 0.11214 0.41495 0.0
H402 H 0.72425 0.17331 0.39872 0.0
C403 C 0.6957 0.13211 0.0672 0.0
C404 C 0.42763 0.7461 0.52278 0.0
C405 C 0.44859 0.75935 0.3975 0.0
H406 H 0.38901 0.70176 0.60501 0.0
C407 C 0.43752 0.74727 0.25282 0.0
H408 H 0.43455 0.75674 0.63462 0.0
C409 C 0.41008 0.71789 0.23523 0.0
C410 C 0.39733 0.69724 0.36318 0.0
H411 H 0.45303 0.75742 0.15412 0.0
H412 H 0.40616 0.70642 0.12247 0.0
C413 C 0.40083 0.71557 0.5049 0.0
C414 C 0.81164 0.42852 0.526 0.0
C415 C 0.79834 0.44905 0.39944 0.0
H416 H 0.85566 0.39027 0.6106 0.0
C417 C 0.81031 0.43768 0.25546 0.0
H418 H 0.80111 0.43569 0.63744 0.0
C419 C 0.83968 0.4105 0.2395 0.0
C420 C 0.86016 0.398 0.36822 0.0
H421 H 0.80007 0.45283 0.15586 0.0
H422 H 0.85105 0.40642 0.12695 0.0
C423 C 0.842 0.40185 0.50977 0.0
C424 C 1.01143 0.22324 1.00907 0.0
C425 C 1.02374 0.22947 0.15959 0.0
H426 H 1.0026 0.18241 0.82588 0.0
C427 C 0.03882 0.19689 0.23735 0.0
H428 H 0.99966 0.24747 0.94504 0.0
C429 C 0.0408 0.15948 0.16871 0.0
C430 C 0.02744 0.15272 0.01934 0.0
H431 H 0.04819 0.20017 0.35335 0.0
H432 H 0.05212 0.13543 0.23498 0.0
C433 C 1.0132 0.1857 0.94032 0.0
C434 C 0.37425 0.03041 0.30918 0.0
C435 C 0.33775 1.02732 0.23635 0.0
H436 H 0.43638 0.03212 0.29322 0.0
C437 C 0.33838 1.02376 0.07736 0.0
H438 H 0.37556 0.03338 0.43066 0.0
C439 C 0.3743 1.02315 0.99616 0.0
C440 C 0.41073 1.0254 0.071 0.0
H441 H 0.31136 1.02061 1.01611 0.0
H442 H 0.37369 1.02111 0.87478 0.0
C443 C 0.40959 0.02961 0.2292 0.0
C444 C 0.52234 0.36237 0.25307 0.0
C445 C 0.53291 0.32952 0.16723 0.0
H446 H 0.51383 0.42463 0.26162 0.0
C447 C 0.54317 0.33636 1.01499 0.0
H448 H 0.51507 0.3586 0.37095 0.0
C449 C 0.5428 0.37462 0.95105 0.0
C450 C 0.53236 0.40769 0.03723 0.0
H451 H 0.55208 0.312 0.94565 0.0
H452 H 0.5511 0.37828 0.83414 0.0
C453 C 0.52198 0.4005 0.1896 0.0
C454 C 0.22003 0.54542 1.01779 0.0
C455 C 0.22653 0.53591 0.17124 0.0
H456 H 0.17864 0.55258 0.83508 0.0
C457 C 0.19352 0.52586 0.25715 0.0
H458 H 0.24448 0.554 0.94822 0.0
C459 C 0.15562 0.52524 0.19266 0.0
C460 C 0.14877 0.5349 0.03909 0.0
H461 H 0.19697 0.51924 0.3759 0.0
H462 H 0.1314 0.51751 0.26488 0.0
C463 C 0.182 0.54484 0.95287 0.0
C464 C 0.04219 0.83555 0.69612 0.0
C465 C 0.02987 0.82911 0.54577 0.0
H466 H 0.05085 0.87659 0.87866 0.0
C467 C 1.01462 0.86154 0.46755 0.0
H468 H 0.05409 0.81145 0.76046 0.0
C469 C 1.01248 0.89902 0.53563 0.0
C470 C 1.02583 0.90597 0.68486 0.0
H471 H 1.00523 0.85809 0.35163 0.0
H472 H 1.00103 0.92296 0.46907 0.0
C473 C 0.04025 0.87314 0.7643 0.0
C474 C 0.71458 0.03455 0.62517 0.0
C475 C 0.71518 0.03112 0.46612 0.0
H476 H 0.67932 0.03702 0.82791 0.0
C477 C 0.67865 1.02811 0.39338 0.0
H478 H 0.74161 0.03762 0.6864 0.0
C479 C 0.64333 1.02885 0.47352 0.0
C480 C 0.64223 0.03295 0.63178 0.0
H481 H 0.67731 1.02522 0.27188 0.0
H482 H 0.61652 1.0264 0.40959 0.0
C483 C 0.67868 0.03511 0.7065 0.0
C484 C 0.51128 0.72272 0.69331 0.0
C485 C 0.52143 0.72943 0.54086 0.0
H486 H 0.50356 0.68097 0.87492 0.0
C487 C 0.5321 0.69653 0.45556 0.0
H488 H 0.50231 0.74713 0.76231 0.0
C489 C 0.53264 0.65847 0.51968 0.0
C490 C 0.52233 0.6514 0.67222 0.0
H491 H 0.53932 0.70018 0.33757 0.0
H492 H 0.54085 0.6343 0.44801 0.0
C493 C 0.51181 0.68453 0.75791 0.0
C494 C 0.83488 0.51317 0.69223 0.0
C495 C 0.82833 0.52267 0.5388 0.0
H496 H 0.87633 0.5059 0.87463 0.0
C497 C 0.86132 0.53257 0.45258 0.0
H498 H 0.81043 0.50469 0.76201 0.0
C499 C 0.89926 0.53307 0.51677 0.0
C500 C 0.90615 0.52343 0.67031 0.0
H501 H 0.85783 0.53918 0.33384 0.0
H502 H 0.92347 0.5407 0.44434 0.0
C503 C 0.87294 0.51363 0.75683 0.0
loop_
_geom_bond_atom_site_label_1
_geom_bond_atom_site_label_2
_geom_bond_distance
_geom_bond_site_symmetry_2
_ccdc_geom_bond_type
C0 N1 1.317 . S
C0 N2 1.348 . S
C0 C3 1.485 . S
N1 C0 1.317 . S
N1 N5 1.370 . S
N2 C0 1.348 . S
N2 C4 1.346 . S
C3 C0 1.485 . S
C3 H7 0.960 . S
C3 H8 0.961 . S
C3 H9 0.960 . S
C4 N2 1.346 . S
C4 N5 1.307 . S
C4 C6 1.486 . S
N5 N1 1.370 . S
N5 C4 1.307 . S
C6 C4 1.486 . S
C6 H10 0.960 . S
C6 H11 0.960 . S
C6 H12 0.959 . S
H7 C3 0.960 . S
H8 C3 0.961 . S
H9 C3 0.960 . S
H10 C6 0.960 . S
H11 C6 0.960 . S
H12 C6 0.959 . S
C13 N14 1.317 . S
C13 N15 1.348 . S
C13 C16 1.485 . S
N14 C13 1.317 . S
N14 N18 1.371 . S
N15 C13 1.348 . S
N15 C17 1.346 1_655 S
C16 C13 1.485 . S
C16 H20 0.960 1_655 S
C16 H21 0.961 . S
C16 H22 0.960 . S
C17 N15 1.346 1_455 S
C17 N18 1.307 1_455 S
C17 C19 1.486 . S
N18 N14 1.371 . S
N18 C17 1.307 1_655 S
C19 C17 1.486 . S
C19 H23 0.960 1_455 S
C19 H24 0.960 . S
C19 H25 0.959 . S
H20 C16 0.960 1_455 S
H21 C16 0.961 . S
H22 C16 0.960 . S
H23 C19 0.960 1_655 S
H24 C19 0.960 . S
H25 C19 0.959 . S
C26 N27 1.317 . S
C26 N28 1.348 . S
C26 C29 1.485 . S
N27 C26 1.317 . S
N27 N31 1.371 . S
N28 C26 1.348 . S
N28 C30 1.346 1_565 S
C29 C26 1.485 . S
C29 H33 0.960 1_565 S
C29 H34 0.961 . S
C29 H35 0.960 . S
C30 N28 1.346 1_545 S
C30 N31 1.307 1_545 S
C30 C32 1.486 . S
N31 N27 1.371 . S
N31 C30 1.307 1_565 S
C32 C30 1.486 . S
C32 H36 0.960 1_545 S
C32 H37 0.960 . S
C32 H38 0.959 . S
H33 C29 0.960 1_545 S
H34 C29 0.961 . S
H35 C29 0.960 . S
H36 C32 0.960 1_565 S
H37 C32 0.960 . S
H38 C32 0.959 . S
C39 N40 1.317 . S
C39 N41 1.348 . S
C39 C42 1.485 . S
N40 C39 1.317 . S
N40 N44 1.370 . S
N41 C39 1.348 . S
N41 C43 1.346 . S
C42 C39 1.485 . S
C42 H46 0.960 . S
C42 H47 0.961 . S
C42 H48 0.960 . S
C43 N41 1.346 . S
C43 N44 1.307 . S
C43 C45 1.486 . S
N44 N40 1.370 . S
N44 C43 1.307 . S
C45 C43 1.486 . S
C45 H49 0.960 . S
C45 H50 0.960 . S
C45 H51 0.959 . S
H46 C42 0.960 . S
H47 C42 0.961 . S
H48 C42 0.960 . S
H49 C45 0.960 . S
H50 C45 0.960 . S
H51 C45 0.959 . S
C52 N53 1.317 . S
C52 N54 1.348 1_556 S
C52 C55 1.485 . S
N53 C52 1.317 . S
N53 N57 1.370 1_556 S
N54 C52 1.348 1_554 S
N54 C56 1.346 . S
C55 C52 1.485 . S
C55 H59 0.960 . S
C55 H60 0.961 . S
C55 H61 0.960 . S
C56 N54 1.346 . S
C56 N57 1.307 . S
C56 C58 1.486 . S
N57 N53 1.370 1_554 S
N57 C56 1.307 . S
C58 C56 1.486 . S
C58 H62 0.960 . S
C58 H63 0.960 . S
C58 H64 0.959 . S
H59 C55 0.960 . S
H60 C55 0.961 . S
H61 C55 0.960 . S
H62 C58 0.960 . S
H63 C58 0.960 . S
H64 C58 0.959 . S
C65 N66 1.317 . S
C65 N67 1.350 1_556 S
C65 C68 1.485 . S
N66 C65 1.317 . S
N66 N70 1.371 1_556 S
N67 C65 1.350 1_554 S
N67 C69 1.345 1_655 S
C68 C65 1.485 . S
C68 H72 0.960 1_655 S
C68 H73 0.961 . S
C68 H74 0.960 . S
C69 N67 1.345 1_455 S
C69 N70 1.307 1_455 S
C69 C71 1.486 . S
N70 N66 1.371 1_554 S
N70 C69 1.307 1_655 S
C71 C69 1.486 . S
C71 H75 0.960 1_455 S
C71 H76 0.960 . S
C71 H77 0.959 . S
H72 C68 0.960 1_455 S
H73 C68 0.961 . S
H74 C68 0.960 . S
H75 C71 0.960 1_655 S
H76 C71 0.960 . S
H77 C71 0.959 . S
C78 N79 1.317 . S
C78 N80 1.350 1_556 S
C78 C81 1.485 . S
N79 C78 1.317 . S
N79 N83 1.371 1_556 S
N80 C78 1.350 1_554 S
N80 C82 1.345 1_565 S
C81 C78 1.485 . S
C81 H85 0.960 1_565 S
C81 H86 0.961 . S
C81 H87 0.960 . S
C82 N80 1.345 1_545 S
C82 N83 1.307 1_545 S
C82 C84 1.487 . S
N83 N79 1.371 1_554 S
N83 C82 1.307 1_565 S
C84 C82 1.487 . S
C84 H88 0.960 1_545 S
C84 H89 0.960 . S
C84 H90 0.959 . S
H85 C81 0.960 1_545 S
H86 C81 0.961 . S
H87 C81 0.960 . S
H88 C84 0.960 1_565 S
H89 C84 0.960 . S
H90 C84 0.959 . S
C91 N92 1.317 . S
C91 N93 1.348 1_556 S
C91 C94 1.485 . S
N92 C91 1.317 . S
N92 N96 1.370 1_556 S
N93 C91 1.348 1_554 S
N93 C95 1.346 . S
C94 C91 1.485 . S
C94 H98 0.960 . S
C94 H99 0.961 . S
C94 H100 0.960 . S
C95 N93 1.346 . S
C95 N96 1.307 . S
C95 C97 1.486 . S
N96 N92 1.370 1_554 S
N96 C95 1.307 . S
C97 C95 1.486 . S
C97 H101 0.960 . S
C97 H102 0.960 . S
C97 H103 0.959 . S
H98 C94 0.960 . S
H99 C94 0.961 . S
H100 C94 0.960 . S
H101 C97 0.960 . S
H102 C97 0.960 . S
H103 C97 0.959 . S
Ho104 C107 2.811 1_556 S
Ho104 O124 2.322 . S
Ho104 O126 2.378 1_556 S
Ho104 O127 2.524 1_556 S
Ho104 O128 2.381 . S
Ho104 O129 2.669 1_565 S
Ho104 O131 2.346 1_565 S
Ho104 O135 2.305 1_455 S
Ho105 C116 2.811 . S
Ho105 O125 2.346 1_545 S
Ho105 O129 2.305 1_655 S
Ho105 O130 2.322 . S
Ho105 O132 2.378 . S
Ho105 O133 2.524 . S
Ho105 O134 2.381 . S
Ho105 O135 2.669 1_545 S
C106 O124 1.259 1_655 S
C106 O125 1.268 . S
C107 Ho104 2.811 1_554 S
C107 C108 1.488 . S
C107 O126 1.215 . S
C107 O127 1.289 . S
C108 C107 1.488 . S
C108 C109 1.348 . S
C108 C113 1.413 . S
C109 C108 1.348 . S
C109 C110 1.442 . S
C109 H136 0.930 1_455 S
C110 C109 1.442 . S
C110 C111 1.381 . S
C110 H137 0.931 . S
C111 C110 1.381 . S
C111 C112 1.321 . S
C112 C111 1.321 . S
C112 C113 1.403 . S
C112 H138 0.934 . S
C113 C108 1.413 . S
C113 C112 1.403 . S
C113 H139 0.930 . S
C114 O128 1.275 . S
C114 O129 1.256 1_565 S
C115 O130 1.259 1_455 S
C115 O131 1.268 . S
C116 Ho105 2.811 . S
C116 C117 1.488 . S
C116 O132 1.215 . S
C116 O133 1.289 . S
C117 C116 1.488 . S
C117 C118 1.348 . S
C117 C122 1.413 . S
C118 C117 1.348 . S
C118 C119 1.442 . S
C118 H140 0.930 1_655 S
C119 C118 1.442 . S
C119 C120 1.381 . S
C119 H141 0.931 . S
C120 C119 1.381 . S
C120 C121 1.321 . S
C121 C120 1.321 . S
C121 C122 1.403 . S
C121 H142 0.934 . S
C122 C117 1.413 . S
C122 C121 1.403 . S
C122 H143 0.930 . S
C123 O134 1.275 . S
C123 O135 1.256 1_545 S
O124 Ho104 2.322 . S
O124 C106 1.259 1_455 S
O125 Ho105 2.346 1_565 S
O125 C106 1.268 . S
O126 Ho104 2.378 1_554 S
O126 C107 1.215 . S
O127 Ho104 2.524 1_554 S
O127 C107 1.289 . S
O128 Ho104 2.381 . S
O128 C114 1.275 . S
O129 Ho104 2.669 1_545 S
O129 Ho105 2.305 1_455 S
O129 C114 1.256 1_545 S
O130 Ho105 2.322 . S
O130 C115 1.259 1_655 S
O131 Ho104 2.346 1_545 S
O131 C115 1.268 . S
O132 Ho105 2.378 . S
O132 C116 1.215 . S
O133 Ho105 2.524 . S
O133 C116 1.289 . S
O134 Ho105 2.381 . S
O134 C123 1.275 . S
O135 Ho104 2.305 1_655 S
O135 Ho105 2.669 1_565 S
O135 C123 1.256 1_565 S
H136 C109 0.930 1_655 S
H137 C110 0.931 . S
H138 C112 0.934 . S
H139 C113 0.930 . S
H140 C118 0.930 1_455 S
H141 C119 0.931 . S
H142 C121 0.934 . S
H143 C122 0.930 . S
Ho144 C147 2.811 1_556 S
Ho144 O164 2.322 . S
Ho144 O166 2.378 1_556 S
Ho144 O167 2.524 1_556 S
Ho144 O168 2.381 . S
Ho144 O169 2.669 . S
Ho144 O171 2.346 . S
Ho144 O175 2.305 1_545 S
Ho145 C156 2.811 . S
Ho145 O165 2.346 . S
Ho145 O169 2.305 1_565 S
Ho145 O170 2.322 . S
Ho145 O172 2.378 . S
Ho145 O173 2.524 . S
Ho145 O174 2.381 . S
Ho145 O175 2.669 . S
C146 O164 1.259 1_565 S
C146 O165 1.268 . S
C147 Ho144 2.811 1_554 S
C147 C148 1.488 . S
C147 O166 1.215 . S
C147 O167 1.289 . S
C148 C147 1.488 . S
C148 C149 1.348 . S
C148 C153 1.413 . S
C149 C148 1.348 . S
C149 C150 1.442 . S
C149 H176 0.930 1_545 S
C150 C149 1.442 . S
C150 C151 1.381 . S
C150 H177 0.931 . S
C151 C150 1.381 . S
C151 C152 1.321 . S
C152 C151 1.321 . S
C152 C153 1.403 . S
C152 H178 0.934 . S
C153 C148 1.413 . S
C153 C152 1.403 . S
C153 H179 0.930 . S
C154 O168 1.275 . S
C154 O169 1.256 . S
C155 O170 1.259 1_545 S
C155 O171 1.268 . S
C156 Ho145 2.811 . S
C156 C157 1.488 . S
C156 O172 1.215 . S
C156 O173 1.289 . S
C157 C156 1.488 . S
C157 C158 1.348 . S
C157 C162 1.413 . S
C158 C157 1.348 . S
C158 C159 1.442 . S
C158 H180 0.930 1_565 S
C159 C158 1.442 . S
C159 C160 1.381 . S
C159 H181 0.931 . S
C160 C159 1.381 . S
C160 C161 1.321 . S
C161 C160 1.321 . S
C161 C162 1.403 . S
C161 H182 0.934 . S
C162 C157 1.413 . S
C162 C161 1.403 . S
C162 H183 0.930 . S
C163 O174 1.275 . S
C163 O175 1.256 . S
O164 Ho144 2.322 . S
O164 C146 1.259 1_545 S
O165 Ho145 2.346 . S
O165 C146 1.268 . S
O166 Ho144 2.378 1_554 S
O166 C147 1.215 . S
O167 Ho144 2.524 1_554 S
O167 C147 1.289 . S
O168 Ho144 2.381 . S
O168 C154 1.275 . S
O169 Ho144 2.669 . S
O169 Ho145 2.305 1_545 S
O169 C154 1.256 . S
O170 Ho145 2.322 . S
O170 C155 1.259 1_565 S
O171 Ho144 2.346 . S
O171 C155 1.268 . S
O172 Ho145 2.378 . S
O172 C156 1.215 . S
O173 Ho145 2.524 . S
O173 C156 1.289 . S
O174 Ho145 2.381 . S
O174 C163 1.275 . S
O175 Ho144 2.305 1_565 S
O175 Ho145 2.669 . S
O175 C163 1.256 . S
H176 C149 0.930 1_565 S
H177 C150 0.931 . S
H178 C152 0.934 . S
H179 C153 0.930 . S
H180 C158 0.930 1_545 S
H181 C159 0.931 . S
H182 C161 0.934 . S
H183 C162 0.930 . S
Ho184 C187 2.811 1_556 S
Ho184 O204 2.322 . S
Ho184 O206 2.378 1_556 S
Ho184 O207 2.524 1_556 S
Ho184 O208 2.381 . S
Ho184 O209 2.669 . S
Ho184 O211 2.346 . S
Ho184 O215 2.305 . S
Ho185 C196 2.811 . S
Ho185 O205 2.346 . S
Ho185 O209 2.305 . S
Ho185 O210 2.322 . S
Ho185 O212 2.378 . S
Ho185 O213 2.524 . S
Ho185 O214 2.381 . S
Ho185 O215 2.669 . S
C186 O204 1.259 . S
C186 O205 1.268 . S
C187 Ho184 2.811 1_554 S
C187 C188 1.488 . S
C187 O206 1.215 . S
C187 O207 1.289 . S
C188 C187 1.488 . S
C188 C189 1.348 . S
C188 C193 1.413 . S
C189 C188 1.348 . S
C189 C190 1.442 . S
C189 H216 0.930 . S
C190 C189 1.442 . S
C190 C191 1.381 . S
C190 H217 0.931 . S
C191 C190 1.381 . S
C191 C192 1.321 . S
C192 C191 1.321 . S
C192 C193 1.403 . S
C192 H218 0.934 . S
C193 C188 1.413 . S
C193 C192 1.403 . S
C193 H219 0.930 . S
C194 O208 1.275 . S
C194 O209 1.256 . S
C195 O210 1.259 . S
C195 O211 1.268 . S
C196 Ho185 2.811 . S
C196 C197 1.488 . S
C196 O212 1.215 . S
C196 O213 1.289 . S
C197 C196 1.488 . S
C197 C198 1.348 . S
C197 C202 1.413 . S
C198 C197 1.348 . S
C198 C199 1.442 . S
C198 H220 0.930 . S
C199 C198 1.442 . S
C199 C200 1.381 . S
C199 H221 0.931 . S
C200 C199 1.381 . S
C200 C201 1.321 . S
C201 C200 1.321 . S
C201 C202 1.403 . S
C201 H222 0.934 . S
C202 C197 1.413 . S
C202 C201 1.403 . S
C202 H223 0.930 . S
C203 O214 1.275 . S
C203 O215 1.256 . S
O204 Ho184 2.322 . S
O204 C186 1.259 . S
O205 Ho185 2.346 . S
O205 C186 1.268 . S
O206 Ho184 2.378 1_554 S
O206 C187 1.215 . S
O207 Ho184 2.524 1_554 S
O207 C187 1.289 . S
O208 Ho184 2.381 . S
O208 C194 1.275 . S
O209 Ho184 2.669 . S
O209 Ho185 2.305 . S
O209 C194 1.256 . S
O210 Ho185 2.322 . S
O210 C195 1.259 . S
O211 Ho184 2.346 . S
O211 C195 1.268 . S
O212 Ho185 2.378 . S
O212 C196 1.215 . S
O213 Ho185 2.524 . S
O213 C196 1.289 . S
O214 Ho185 2.381 . S
O214 C203 1.275 . S
O215 Ho184 2.305 . S
O215 Ho185 2.669 . S
O215 C203 1.256 . S
H216 C189 0.930 . S
H217 C190 0.931 . S
H218 C192 0.934 . S
H219 C193 0.930 . S
H220 C198 0.930 . S
H221 C199 0.931 . S
H222 C201 0.934 . S
H223 C202 0.930 . S
Ho224 C227 2.811 1_556 S
Ho224 O244 2.322 . S
Ho224 O246 2.378 1_556 S
Ho224 O247 2.524 1_556 S
Ho224 O248 2.381 . S
Ho224 O249 2.669 1_655 S
Ho224 O251 2.346 1_655 S
Ho224 O255 2.305 . S
Ho225 C236 2.811 . S
Ho225 O245 2.346 1_455 S
Ho225 O249 2.305 . S
Ho225 O250 2.322 . S
Ho225 O252 2.378 . S
Ho225 O253 2.524 . S
Ho225 O254 2.381 . S
Ho225 O255 2.669 1_455 S
C226 O244 1.259 . S
C226 O245 1.268 . S
C227 Ho224 2.811 1_554 S
C227 C228 1.488 . S
C227 O246 1.215 . S
C227 O247 1.289 . S
C228 C227 1.488 . S
C228 C229 1.348 . S
C228 C233 1.413 . S
C229 C228 1.348 . S
C229 C230 1.442 . S
C229 H256 0.930 . S
C230 C229 1.442 . S
C230 C231 1.381 . S
C230 H257 0.931 . S
C231 C230 1.381 . S
C231 C232 1.321 . S
C232 C231 1.321 . S
C232 C233 1.403 . S
C232 H258 0.934 . S
C233 C228 1.413 . S
C233 C232 1.403 . S
C233 H259 0.930 . S
C234 O248 1.282 . S
C234 O249 1.252 1_655 S
C235 O250 1.259 . S
C235 O251 1.268 . S
C236 Ho225 2.811 . S
C236 C237 1.488 . S
C236 O252 1.215 . S
C236 O253 1.289 . S
C237 C236 1.488 . S
C237 C238 1.348 . S
C237 C242 1.413 . S
C238 C237 1.348 . S
C238 C239 1.442 . S
C238 H260 0.930 . S
C239 C238 1.442 . S
C239 C240 1.381 . S
C239 H261 0.931 . S
C240 C239 1.381 . S
C240 C241 1.321 . S
C241 C240 1.321 . S
C241 C242 1.403 . S
C241 H262 0.934 . S
C242 C237 1.413 . S
C242 C241 1.403 . S
C242 H263 0.930 . S
C243 O254 1.285 . S
C243 O255 1.250 1_455 S
O244 Ho224 2.322 . S
O244 C226 1.259 . S
O245 Ho225 2.346 1_655 S
O245 C226 1.268 . S
O246 Ho224 2.378 1_554 S
O246 C227 1.215 . S
O247 Ho224 2.524 1_554 S
O247 C227 1.289 . S
O248 Ho224 2.381 . S
O248 C234 1.282 . S
O249 Ho224 2.669 1_455 S
O249 Ho225 2.305 . S
O249 C234 1.252 1_455 S
O250 Ho225 2.322 . S
O250 C235 1.259 . S
O251 Ho224 2.346 1_455 S
O251 C235 1.268 . S
O252 Ho225 2.378 . S
O252 C236 1.215 . S
O253 Ho225 2.524 . S
O253 C236 1.289 . S
O254 Ho225 2.381 . S
O254 C243 1.285 . S
O255 Ho224 2.305 . S
O255 Ho225 2.669 1_655 S
O255 C243 1.250 1_655 S
H256 C229 0.930 . S
H257 C230 0.931 . S
H258 C232 0.934 . S
H259 C233 0.930 . S
H260 C238 0.930 . S
H261 C239 0.931 . S
H262 C241 0.934 . S
H263 C242 0.930 . S
C264 C265 1.394 . S
C264 H268 0.950 . S
C264 C273 1.390 . S
C265 C264 1.394 . S
C265 C267 1.381 1_545 S
H266 C273 0.950 . S
C267 C265 1.381 1_565 S
C267 C269 1.390 . S
C267 H271 0.950 . S
H268 C264 0.950 . S
C269 C267 1.390 . S
C269 C270 1.369 1_565 S
C269 H272 0.950 . S
C270 C269 1.369 1_545 S
C270 C273 1.406 . S
H271 C267 0.950 . S
H272 C269 0.950 . S
C273 C264 1.390 . S
C273 H266 0.950 . S
C273 C270 1.406 . S
C274 C275 1.387 . S
C274 H278 0.950 . S
C274 C283 1.390 . S
C275 C274 1.387 . S
C275 C277 1.387 . S
H276 C283 0.950 . S
C277 C275 1.387 . S
C277 C279 1.390 . S
C277 H281 0.950 . S
H278 C274 0.950 . S
C279 C277 1.390 . S
C279 C280 1.387 . S
C279 H282 0.950 . S
C280 C279 1.387 . S
C280 C283 1.387 . S
H281 C277 0.950 . S
H282 C279 0.950 . S
C283 C274 1.390 . S
C283 H276 0.950 . S
C283 C280 1.387 . S
C284 C285 1.387 . S
C284 H288 0.950 . S
C284 C293 1.390 . S
C285 C284 1.387 . S
C285 C287 1.387 . S
H286 C293 0.950 . S
C287 C285 1.387 . S
C287 C289 1.390 . S
C287 H291 0.950 . S
H288 C284 0.950 . S
C289 C287 1.390 . S
C289 C290 1.387 . S
C289 H292 0.950 . S
C290 C289 1.387 . S
C290 C293 1.387 . S
H291 C287 0.950 . S
H292 C289 0.950 . S
C293 C284 1.390 . S
C293 H286 0.950 . S
C293 C290 1.387 . S
C294 C295 1.408 . S
C294 H298 0.950 . S
C294 C303 1.390 . S
C295 C294 1.408 . S
C295 C297 1.367 1_455 S
H296 C303 0.950 . S
C297 C295 1.367 1_655 S
C297 C299 1.390 . S
C297 H301 0.950 . S
H298 C294 0.950 . S
C299 C297 1.390 . S
C299 C300 1.387 1_655 S
C299 H302 0.950 . S
C300 C299 1.387 1_455 S
C300 C303 1.387 . S
H301 C297 0.950 . S
H302 C299 0.950 . S
C303 C294 1.390 . S
C303 H296 0.950 . S
C303 C300 1.387 . S
C304 C305 1.387 1_545 S
C304 H308 0.950 . S
C304 C313 1.390 . S
C305 C304 1.387 1_565 S
C305 C307 1.388 . S
H306 C313 0.950 . S
C307 C305 1.388 . S
C307 C309 1.390 . S
C307 H311 0.950 . S
H308 C304 0.950 . S
C309 C307 1.390 . S
C309 C310 1.400 . S
C309 H312 0.950 . S
C310 C309 1.400 . S
C310 C313 1.375 1_565 S
H311 C307 0.950 . S
H312 C309 0.950 . S
C313 C304 1.390 . S
C313 H306 0.950 . S
C313 C310 1.375 1_545 S
C314 C315 1.387 . S
C314 H318 0.950 . S
C314 C323 1.390 . S
C315 C314 1.387 . S
C315 C317 1.387 . S
H316 C323 0.950 . S
C317 C315 1.387 . S
C317 C319 1.390 . S
C317 H321 0.950 . S
H318 C314 0.950 . S
C319 C317 1.390 . S
C319 C320 1.387 . S
C319 H322 0.950 . S
C320 C319 1.387 . S
C320 C323 1.387 . S
H321 C317 0.950 . S
H322 C319 0.950 . S
C323 C314 1.390 . S
C323 H316 0.950 . S
C323 C320 1.387 . S
C324 C325 1.387 . S
C324 H328 0.950 . S
C324 C333 1.390 . S
C325 C324 1.387 . S
C325 C327 1.387 . S
H326 C333 0.950 . S
C327 C325 1.387 . S
C327 C329 1.390 . S
C327 H331 0.950 . S
H328 C324 0.950 . S
C329 C327 1.390 . S
C329 C330 1.387 . S
C329 H332 0.950 . S
C330 C329 1.387 . S
C330 C333 1.387 . S
H331 C327 0.950 . S
H332 C329 0.950 . S
C333 C324 1.390 . S
C333 H326 0.950 . S
C333 C330 1.387 . S
C334 C335 1.368 1_455 S
C334 H338 0.950 . S
C334 C343 1.390 . S
C335 C334 1.368 1_655 S
C335 C337 1.407 . S
H336 C343 0.950 . S
C337 C335 1.407 . S
C337 C339 1.390 . S
C337 H341 0.950 . S
H338 C334 0.950 . S
C339 C337 1.390 . S
C339 C340 1.387 . S
C339 H342 0.950 . S
C340 C339 1.387 . S
C340 C343 1.387 1_655 S
H341 C337 0.950 . S
H342 C339 0.950 . S
C343 C334 1.390 . S
C343 H336 0.950 . S
C343 C340 1.387 1_455 S
C344 C345 1.387 . S
C344 H348 0.950 . S
C344 C353 1.390 . S
C345 C344 1.387 . S
C345 C347 1.387 1_655 S
H346 C353 0.950 . S
C347 C345 1.387 1_455 S
C347 C349 1.390 1_455 S
C347 H351 0.950 . S
H348 C344 0.950 . S
C349 C347 1.390 1_655 S
C349 C350 1.387 . S
C349 H352 0.950 . S
C350 C349 1.387 . S
C350 C353 1.387 . S
H351 C347 0.950 . S
H352 C349 0.950 . S
C353 C344 1.390 . S
C353 H346 0.950 . S
C353 C350 1.387 . S
C354 C355 1.387 . S
C354 H358 0.950 1_554 S
C354 C363 1.390 . S
C355 C354 1.387 . S
C355 C357 1.387 . S
H356 C363 0.950 . S
C357 C355 1.387 . S
C357 C359 1.390 . S
C357 H361 0.950 1_565 S
H358 C354 0.950 1_556 S
C359 C357 1.390 . S
C359 C360 1.387 . S
C359 H362 0.950 . S
C360 C359 1.387 . S
C360 C363 1.387 . S
H361 C357 0.950 1_545 S
H362 C359 0.950 . S
C363 C354 1.390 . S
C363 H356 0.950 . S
C363 C360 1.387 . S
C364 C365 1.387 . S
C364 H368 0.950 . S
C364 C373 1.390 . S
C365 C364 1.387 . S
C365 C367 1.387 . S
H366 C373 0.950 . S
C367 C365 1.387 . S
C367 C369 1.390 . S
C367 H371 0.950 1_554 S
H368 C364 0.950 . S
C369 C367 1.390 . S
C369 C370 1.387 . S
C369 H372 0.950 . S
C370 C369 1.387 . S
C370 C373 1.387 . S
H371 C367 0.950 1_556 S
H372 C369 0.950 . S
C373 C364 1.390 . S
C373 H366 0.950 . S
C373 C370 1.387 . S
C374 C375 1.387 . S
C374 H378 0.950 . S
C374 C383 1.390 . S
C375 C374 1.387 . S
C375 C377 1.387 . S
H376 C383 0.950 . S
C377 C375 1.387 . S
C377 C379 1.390 . S
C377 H381 0.950 1_554 S
H378 C374 0.950 . S
C379 C377 1.390 . S
C379 C380 1.387 . S
C379 H382 0.950 . S
C380 C379 1.387 . S
C380 C383 1.387 . S
H381 C377 0.950 1_556 S
H382 C379 0.950 . S
C383 C374 1.390 . S
C383 H376 0.950 . S
C383 C380 1.387 . S
C384 C385 1.387 . S
C384 H388 0.950 . S
C384 C393 1.390 . S
C385 C384 1.387 . S
C385 C387 1.387 . S
H386 C393 0.950 . S
C387 C385 1.387 . S
C387 C389 1.390 . S
C387 H391 0.950 . S
H388 C384 0.950 . S
C389 C387 1.390 . S
C389 C390 1.387 . S
C389 H392 0.950 . S
C390 C389 1.387 . S
C390 C393 1.387 . S
H391 C387 0.950 . S
H392 C389 0.950 . S
C393 C384 1.390 . S
C393 H386 0.950 . S
C393 C390 1.387 . S
C394 C395 1.385 1_565 S
C394 H398 0.974 . S
C394 C403 1.369 1_565 S
C395 C394 1.385 1_545 S
C395 C397 1.387 . S
H396 C403 0.950 . S
C397 C395 1.387 . S
C397 C399 1.390 . S
C397 H401 0.950 . S
H398 C394 0.974 . S
C399 C397 1.390 . S
C399 C400 1.387 . S
C399 H402 0.950 . S
C400 C399 1.387 . S
C400 C403 1.387 . S
H401 C397 0.950 . S
H402 C399 0.950 . S
C403 C394 1.369 1_545 S
C403 H396 0.950 . S
C403 C400 1.387 . S
C404 C405 1.387 . S
C404 H408 0.950 . S
C404 C413 1.390 . S
C405 C404 1.387 . S
C405 C407 1.387 . S
H406 C413 0.950 . S
C407 C405 1.387 . S
C407 C409 1.390 . S
C407 H411 0.950 . S
H408 C404 0.950 . S
C409 C407 1.390 . S
C409 C410 1.387 . S
C409 H412 0.950 . S
C410 C409 1.387 . S
C410 C413 1.387 . S
H411 C407 0.950 . S
H412 C409 0.950 . S
C413 C404 1.390 . S
C413 H406 0.950 . S
C413 C410 1.387 . S
C414 C415 1.387 . S
C414 H418 0.950 . S
C414 C423 1.390 . S
C415 C414 1.387 . S
C415 C417 1.387 . S
H416 C423 0.950 . S
C417 C415 1.387 . S
C417 C419 1.390 . S
C417 H421 0.950 . S
H418 C414 0.950 . S
C419 C417 1.390 . S
C419 C420 1.387 . S
C419 H422 0.950 . S
C420 C419 1.387 . S
C420 C423 1.387 . S
H421 C417 0.950 . S
H422 C419 0.950 . S
C423 C414 1.390 . S
C423 H416 0.950 . S
C423 C420 1.387 . S
C424 C425 1.387 . S
C424 H428 0.950 . S
C424 C433 1.390 . S
C425 C424 1.387 . S
C425 C427 1.387 1_556 S
H426 C433 0.950 . S
C427 C425 1.387 1_554 S
C427 C429 1.390 . S
C427 H431 0.950 . S
H428 C424 0.950 . S
C429 C427 1.390 . S
C429 C430 1.387 1_554 S
C429 H432 0.950 . S
C430 C429 1.387 1_556 S
C430 C433 1.387 . S
H431 C427 0.950 . S
H432 C429 0.950 . S
C433 C424 1.390 . S
C433 H426 0.950 . S
C433 C430 1.387 . S
C434 C435 1.387 1_554 S
C434 H438 0.950 . S
C434 C443 1.390 . S
C435 C434 1.387 1_556 S
C435 C437 1.387 . S
H436 C443 0.950 . S
C437 C435 1.387 . S
C437 C439 1.390 . S
C437 H441 0.950 . S
H438 C434 0.950 . S
C439 C437 1.390 . S
C439 C440 1.387 . S
C439 H442 0.950 . S
C440 C439 1.387 . S
C440 C443 1.387 1_556 S
H441 C437 0.950 . S
H442 C439 0.950 . S
C443 C434 1.390 . S
C443 H436 0.950 . S
C443 C440 1.387 1_554 S
C444 C445 1.387 1_554 S
C444 H448 0.950 . S
C444 C453 1.390 . S
C445 C444 1.387 1_556 S
C445 C447 1.387 . S
H446 C453 0.950 . S
C447 C445 1.387 . S
C447 C449 1.390 . S
C447 H451 0.950 . S
H448 C444 0.950 . S
C449 C447 1.390 . S
C449 C450 1.387 . S
C449 H452 0.950 . S
C450 C449 1.387 . S
C450 C453 1.387 1_556 S
H451 C447 0.950 . S
H452 C449 0.950 . S
C453 C444 1.390 . S
C453 H446 0.950 . S
C453 C450 1.387 1_554 S
C454 C455 1.387 . S
C454 H458 0.950 . S
C454 C463 1.390 . S
C455 C454 1.387 . S
C455 C457 1.387 1_556 S
H456 C463 0.950 . S
C457 C455 1.387 1_554 S
C457 C459 1.390 . S
C457 H461 0.950 . S
H458 C454 0.950 . S
C459 C457 1.390 . S
C459 C460 1.387 1_554 S
C459 H462 0.950 . S
C460 C459 1.387 1_556 S
C460 C463 1.387 . S
H461 C457 0.950 . S
H462 C459 0.950 . S
C463 C454 1.390 . S
C463 H456 0.950 . S
C463 C460 1.387 . S
C464 C465 1.387 . S
C464 H468 0.950 . S
C464 C473 1.390 . S
C465 C464 1.387 . S
C465 C467 1.387 . S
H466 C473 0.950 . S
C467 C465 1.387 . S
C467 C469 1.390 . S
C467 H471 0.950 . S
H468 C464 0.950 . S
C469 C467 1.390 . S
C469 C470 1.387 . S
C469 H472 0.950 . S
C470 C469 1.387 . S
C470 C473 1.387 . S
H471 C467 0.950 . S
H472 C469 0.950 . S
C473 C464 1.390 . S
C473 H466 0.950 . S
C473 C470 1.387 . S
C474 C475 1.387 . S
C474 H478 0.950 . S
C474 C483 1.390 . S
C475 C474 1.387 . S
C475 C477 1.387 . S
H476 C483 0.950 . S
C477 C475 1.387 . S
C477 C479 1.390 . S
C477 H481 0.950 . S
H478 C474 0.950 . S
C479 C477 1.390 . S
C479 C480 1.387 . S
C479 H482 0.950 . S
C480 C479 1.387 . S
C480 C483 1.387 . S
H481 C477 0.950 . S
H482 C479 0.950 . S
C483 C474 1.390 . S
C483 H476 0.950 . S
C483 C480 1.387 . S
C484 C485 1.387 . S
C484 H488 0.950 . S
C484 C493 1.390 . S
C485 C484 1.387 . S
C485 C487 1.387 . S
H486 C493 0.950 . S
C487 C485 1.387 . S
C487 C489 1.390 . S
C487 H491 0.950 . S
H488 C484 0.950 . S
C489 C487 1.390 . S
C489 C490 1.387 . S
C489 H492 0.950 . S
C490 C489 1.387 . S
C490 C493 1.387 . S
H491 C487 0.950 . S
H492 C489 0.950 . S
C493 C484 1.390 . S
C493 H486 0.950 . S
C493 C490 1.387 . S
C494 C495 1.387 . S
C494 H498 0.950 . S
C494 C503 1.390 . S
C495 C494 1.387 . S
C495 C497 1.387 . S
H496 C503 0.950 . S
C497 C495 1.387 . S
C497 C499 1.390 . S
C497 H501 0.950 . S
H498 C494 0.950 . S
C499 C497 1.390 . S
C499 C500 1.387 . S
C499 H502 0.950 . S
C500 C499 1.387 . S
C500 C503 1.387 . S
H501 C497 0.950 . S
H502 C499 0.950 . S
C503 C494 1.390 . S
C503 H496 0.950 . S
C503 C500 1.387 . S
C265 N80 1.996 1_545 S
C270 C114 2.170 1_545 S
C280 C154 2.189 . S
C275 N93 2.017 . S
C290 C194 2.202 . S
C285 N54 2.038 . S
C300 C234 2.185 1_455 S
C295 N67 2.013 1_455 S
C310 C123 2.173 1_564 S
C305 N28 2.000 . S
C315 N41 2.016 . S
C320 C163 2.191 1_554 S
C325 N2 2.032 . S
C330 C203 2.201 1_554 S
C335 N15 2.013 . S
C340 C243 2.185 1_654 S
C350 C120 0.834 . S
C345 N70 0.850 . S
C360 C160 0.829 . S
C355 N83 0.846 . S
C370 C200 0.831 . S
C365 N96 0.849 . S
C375 N57 0.852 . S
C380 C240 0.830 . S
C385 N18 0.860 1_455 S
C390 C111 0.843 . S
C400 C151 0.836 . S
C395 N31 0.854 1_545 S
C410 C191 0.831 . S
C405 N44 0.851 . S
C415 N5 0.855 . S
C420 C231 0.835 . S
C425 N66 2.414 1_455 S
C430 C115 2.530 . S
C435 N79 2.374 1_545 S
C440 C155 2.489 . S
C450 C195 2.475 . S
C445 N92 2.364 . S
C460 C235 2.520 . S
C455 N53 2.402 . S
C465 N14 2.402 . S
C470 C106 2.536 . S
C480 C146 2.490 . S
C475 N27 2.360 . S
C490 C186 2.475 . S
C485 N40 2.344 . S
C495 N1 2.384 . S
C500 C226 2.520 . S
