# Generated by pormake.
# Topology nom, (4,4)-cn, num edge types: 1
# Building blocks:
#     Node 0, Type 0, BuildingBlock: GIZVER_clean_linker_0, # of connection points: 4
#     Node 1, Type 0, BuildingBlock: GIZVER_clean_linker_0, # of connection points: 4
#     Node 2, Type 0, BuildingBlock: GIZVER_clean_linker_0, # of connection points: 4
#     Node 3, Type 0, BuildingBlock: GIZVER_clean_linker_0, # of connection points: 4
#     Node 4, Type 0, BuildingBlock: GIZVER_clean_linker_0, # of connection points: 4
#     Node 5, Type 0, BuildingBlock: GIZVER_clean_linker_0, # of connection points: 4
#     Node 6, Type 1, BuildingBlock: QUQFOY_clean_sbu_1, # of connection points: 4
#     Node 7, Type 1, BuildingBlock: QUQFOY_clean_sbu_1, # of connection points: 4
#     Node 8, Type 1, BuildingBlock: QUQFOY_clean_sbu_1, # of connection points: 4
#     Node 9, Type 1, BuildingBlock: QUQFOY_clean_sbu_1, # of connection points: 4
#     Node 10, Type 1, BuildingBlock: QUQFOY_clean_sbu_1, # of connection points: 4
#     Node 11, Type 1, BuildingBlock: QUQFOY_clean_sbu_1, # of connection points: 4
#     Edge 12, Type (0, 1), BuildingBlock: ZUJKAS_clean_linker_0, # of connection points: 2
#     Edge 13, Type (0, 1), BuildingBlock: ZUJKAS_clean_linker_0, # of connection points: 2
#     Edge 14, Type (0, 1), BuildingBlock: ZUJKAS_clean_linker_0, # of connection points: 2
#     Edge 15, Type (0, 1), BuildingBlock: ZUJKAS_clean_linker_0, # of connection points: 2
#     Edge 16, Type (0, 1), BuildingBlock: ZUJKAS_clean_linker_0, # of connection points: 2
#     Edge 17, Type (0, 1), BuildingBlock: ZUJKAS_clean_linker_0, # of connection points: 2
#     Edge 18, Type (0, 1), BuildingBlock: ZUJKAS_clean_linker_0, # of connection points: 2
#     Edge 19, Type (0, 1), BuildingBlock: ZUJKAS_clean_linker_0, # of connection points: 2
#     Edge 20, Type (0, 1), BuildingBlock: ZUJKAS_clean_linker_0, # of connection points: 2
#     Edge 21, Type (0, 1), BuildingBlock: ZUJKAS_clean_linker_0, # of connection points: 2
#     Edge 22, Type (0, 1), BuildingBlock: ZUJKAS_clean_linker_0, # of connection points: 2
#     Edge 23, Type (0, 1), BuildingBlock: ZUJKAS_clean_linker_0, # of connection points: 2
#     Edge 24, Type (0, 1), BuildingBlock: ZUJKAS_clean_linker_0, # of connection points: 2
#     Edge 25, Type (0, 1), BuildingBlock: ZUJKAS_clean_linker_0, # of connection points: 2
#     Edge 26, Type (0, 1), BuildingBlock: ZUJKAS_clean_linker_0, # of connection points: 2
#     Edge 27, Type (0, 1), BuildingBlock: ZUJKAS_clean_linker_0, # of connection points: 2
#     Edge 28, Type (0, 1), BuildingBlock: ZUJKAS_clean_linker_0, # of connection points: 2
#     Edge 29, Type (0, 1), BuildingBlock: ZUJKAS_clean_linker_0, # of connection points: 2
#     Edge 30, Type (0, 1), BuildingBlock: ZUJKAS_clean_linker_0, # of connection points: 2
#     Edge 31, Type (0, 1), BuildingBlock: ZUJKAS_clean_linker_0, # of connection points: 2
#     Edge 32, Type (0, 1), BuildingBlock: ZUJKAS_clean_linker_0, # of connection points: 2
#     Edge 33, Type (0, 1), BuildingBlock: ZUJKAS_clean_linker_0, # of connection points: 2
#     Edge 34, Type (0, 1), BuildingBlock: ZUJKAS_clean_linker_0, # of connection points: 2
#     Edge 35, Type (0, 1), BuildingBlock: ZUJKAS_clean_linker_0, # of connection points: 2
# Relax obj value: 0.004
# Max RMSD: 0.089
# Mean RMSD: 0.076
data_MOF--net-nom--node1-QUQFOY_clean_sbu_1--node2-GIZVER_clean_linker_0--edge1-ZUJKAS_clean_linker_0
_symmetry_space_group_name_H-M    P1
_symmetry_Int_Tables_number       1
_symmetry_cell_setting            triclinic
loop_
_symmetry_equiv_pos_as_xyz
'x, y, z'
_cell_length_a     61.76828
_cell_length_b     61.828278
_cell_length_c     57.056364
_cell_angle_alpha  89.81649
_cell_angle_beta   90.000822
_cell_angle_gamma 120.03374
loop_
_atom_site_label
_atom_site_type_symbol
_atom_site_fract_x
_atom_site_fract_y
_atom_site_fract_z
_atom_type_partial_charge
H0 H 0.99659 0.56056 0.34814 0.0
H1 H 0.99868 0.56569 0.27274 0.0
H2 H 0.93467 0.50654 0.30748 0.0
H3 H 0.02628 0.59962 0.32763 0.0
H4 H 0.02735 0.60121 0.2964 0.0
H5 H 0.04269 0.574 0.34852 0.0
H6 H 0.10908 0.58215 0.31628 0.0
H7 H 0.05917 0.59738 0.27638 0.0
C8 C 0.98834 0.55284 0.33127 0.0
C9 C 0.96438 0.53156 0.33029 0.0
C10 C 1.00116 0.56483 0.31048 0.0
C11 C 0.98951 0.55569 0.28867 0.0
C12 C 0.96527 0.53494 0.28758 0.0
C13 C 0.95346 0.52247 0.30835 0.0
C14 C 0.02569 0.58913 0.3116 0.0
C15 C 0.04775 0.58492 0.31204 0.0
C16 C 0.05416 0.57753 0.33303 0.0
C17 C 0.07608 0.57612 0.33449 0.0
C18 C 0.09136 0.58169 0.31465 0.0
C19 C 0.08565 0.5896 0.29365 0.0
C20 C 0.06353 0.59081 0.29234 0.0
H21 H 0.44689 0.98684 0.50507 0.0
H22 H 0.4713 1.00287 0.43317 0.0
H23 H 0.46014 0.93541 0.46578 0.0
H24 H 0.44537 0.02024 0.48474 0.0
H25 H 0.44826 0.02198 0.45354 0.0
H26 H 0.48599 0.03833 0.50912 0.0
H27 H 0.54455 0.1073 0.48073 0.0
H28 H 0.48397 0.05683 0.43656 0.0
C29 C 0.45321 0.9821 0.4892 0.0
C30 C 0.45357 0.95955 0.4881 0.0
C31 C 0.46002 0.99804 0.46952 0.0
C32 C 0.46704 0.99118 0.44863 0.0
C33 C 0.46749 0.96876 0.44737 0.0
C34 C 0.46123 0.95341 0.46725 0.0
C35 C 0.45752 0.02109 0.46995 0.0
C36 C 0.48272 0.04444 0.47232 0.0
C37 C 0.4947 0.05062 0.49422 0.0
C38 C 0.51723 0.07313 0.49721 0.0
C39 C 0.52796 0.08924 0.47801 0.0
C40 C 0.5161 0.08373 0.45612 0.0
C41 C 0.49353 0.06109 0.45329 0.0
H42 H 0.44754 0.47689 0.61415 0.0
H43 H 0.47072 0.48429 0.68633 0.0
H44 H 0.46008 0.54101 0.654 0.0
H45 H 0.44634 0.4419 0.63397 0.0
H46 H 0.44836 0.44236 0.66524 0.0
H47 H 0.4874 0.46495 0.61036 0.0
H48 H 0.54711 0.45762 0.64051 0.0
H49 H 0.48422 0.44416 0.68304 0.0
C50 C 0.45354 0.48771 0.63016 0.0
C51 C 0.45381 0.51056 0.63143 0.0
C52 C 0.46007 0.47833 0.64982 0.0
C53 C 0.46668 0.4919 0.67087 0.0
C54 C 0.46713 0.51475 0.67226 0.0
C55 C 0.46116 0.5241 0.65241 0.0
C56 C 0.45797 0.45296 0.64908 0.0
C57 C 0.48344 0.45534 0.64716 0.0
C58 C 0.49601 0.46167 0.62549 0.0
C59 C 0.51916 0.46282 0.6231 0.0
C60 C 0.52988 0.45805 0.64264 0.0
C61 C 0.51741 0.45112 0.66424 0.0
C62 C 0.49418 0.44993 0.6665 0.0
H63 H 0.98781 0.43683 0.77793 0.0
H64 H 1.00931 0.45481 0.85035 0.0
H65 H 0.93518 0.43471 0.82836 0.0
H66 H 0.02611 0.44031 0.7913 0.0
H67 H 0.03041 0.43897 0.82201 0.0
H68 H 0.04193 0.48168 0.77134 0.0
H69 H 0.10826 0.54107 0.80242 0.0
H70 H 0.0602 0.47559 0.84299 0.0
C71 C 0.98365 0.44027 0.79551 0.0
C72 C 0.95931 0.435 0.80103 0.0
C73 C 1.00202 0.44795 0.81322 0.0
C74 C 0.99581 0.45046 0.83643 0.0
C75 C 0.97155 0.44525 0.84192 0.0
C76 C 0.95394 0.43869 0.824 0.0
C77 C 0.02675 0.44951 0.80822 0.0
C78 C 0.04808 0.47616 0.80758 0.0
C79 C 0.05367 0.48991 0.7866 0.0
C80 C 0.07522 0.51353 0.7848 0.0
C81 C 0.09079 0.5236 0.80437 0.0
C82 C 0.08577 0.51011 0.82543 0.0
C83 C 0.06405 0.48647 0.82703 0.0
H84 H 0.61178 0.06257 0.00794 0.0
H85 H 0.58095 0.03651 0.9391 0.0
H86 H 0.5989 0.1098 0.96157 0.0
H87 H 0.60674 0.02386 -0.00556 0.0
H88 H 0.60604 0.02008 0.96343 0.0
H89 H 0.56612 1.00577 0.01701 0.0
H90 H 0.5059 0.93904 -0.01278 0.0
H91 H 0.56925 0.98763 0.94464 0.0
C92 C 0.60443 0.06522 -0.00839 0.0
C93 C 0.60624 0.08837 -0.01319 0.0
C94 C 0.5949 0.04617 0.97455 0.0
C95 C 0.58707 0.05051 0.95274 0.0
C96 C 0.58807 0.0733 0.94822 0.0
C97 C 0.59718 0.09181 0.96546 0.0
C98 C 0.59591 0.02251 0.97839 0.0
C99 C 0.57006 0.9999 0.98031 0.0
C100 C 0.5574 0.99393 0.00193 0.0
C101 C 0.53409 0.97209 0.00441 0.0
C102 C 0.52324 0.95659 0.98497 0.0
C103 C 0.53578 0.96186 0.96342 0.0
C104 C 0.55919 0.98369 0.9611 0.0
H105 H 0.59519 0.55437 0.10252 0.0
H106 H 0.59254 0.55696 0.17781 0.0
H107 H 0.59778 0.49774 0.14411 0.0
H108 H 0.60373 0.59288 0.12314 0.0
H109 H 0.60205 0.59341 0.15434 0.0
H110 H 0.56082 0.56328 0.10141 0.0
H111 H 0.50424 0.57836 0.12631 0.0
H112 H 0.56866 0.59769 0.16884 0.0
C113 C 0.59412 0.5459 0.11945 0.0
C114 C 0.59602 0.52421 0.1208 0.0
C115 C 0.59197 0.55733 0.13999 0.0
C116 C 0.59256 0.54729 0.16201 0.0
C117 C 0.59527 0.52609 0.16358 0.0
C118 C 0.59571 0.51411 0.14291 0.0
C119 C 0.59252 0.58203 0.13859 0.0
C120 C 0.56664 0.57872 0.13634 0.0
C121 C 0.5531 0.56915 0.11542 0.0
C122 C 0.53044 0.56875 0.11184 0.0
C123 C 0.52124 0.57772 0.12944 0.0
C124 C 0.53517 0.58888 0.14969 0.0
C125 C 0.55751 0.58861 0.15348 0.0
O126 O 0.62448 0.38929 0.4258 0.0
Cd127 Cd 0.63515 0.37832 0.39583 0.0
Cd128 Cd 0.68019 0.42171 0.40624 0.0
O129 O 0.66129 0.42056 0.43625 0.0
O130 O 0.6062 0.34438 0.38957 0.0
O131 O 0.64406 0.35099 0.3972 0.0
C132 C 0.62086 0.33543 0.39263 0.0
C133 C 0.72249 0.43327 0.40944 0.0
C134 C 0.63803 0.40662 0.44005 0.0
C135 C 0.65277 0.42118 0.36221 0.0
O136 O 0.67025 0.43389 0.37662 0.0
O137 O 0.63783 0.39804 0.3657 0.0
O138 O 0.71498 0.44907 0.41255 0.0
O139 O 0.70582 0.41047 0.40474 0.0
O140 O 0.25339 0.6153 0.58832 0.0
Cd141 Cd 0.27442 0.62246 0.55817 0.0
Cd142 Cd 0.27411 0.66804 0.56159 0.0
O143 O 0.25556 0.65183 0.59237 0.0
O144 O 0.27974 0.59326 0.5562 0.0
O145 O 0.31091 0.63199 0.55956 0.0
C146 C 0.30342 0.60846 0.55786 0.0
C147 C 0.30292 0.71109 0.56198 0.0
C148 C 0.24795 0.62969 0.59952 0.0
C149 C 0.24846 0.63452 0.52003 0.0
O150 O 0.25351 0.65421 0.53129 0.0
O151 O 0.25621 0.62013 0.52725 0.0
O152 O 0.27921 0.70248 0.56353 0.0
O153 O 0.31056 0.69514 0.56041 0.0
O154 O 0.66004 0.24684 0.74708 0.0
Cd155 Cd 0.67205 0.26993 0.71798 0.0
Cd156 Cd 0.62826 0.2708 0.72665 0.0
O157 O 0.62763 0.25114 0.75608 0.0
O158 O 0.70682 0.27707 0.71189 0.0
O159 O 0.69801 0.30643 0.72155 0.0
C160 C 0.71449 0.30021 0.71626 0.0
C161 C 0.61719 0.30178 0.7303 0.0
C162 C 0.64161 0.24198 0.76038 0.0
C163 C 0.63132 0.24614 0.68223 0.0
O164 O 0.61786 0.25071 0.69589 0.0
O165 O 0.65406 0.25375 0.68714 0.0
O166 O 0.60087 0.2784 0.73209 0.0
O167 O 0.6402 0.30779 0.7268 0.0
O168 O 0.43142 0.65653 0.92356 0.0
Cd169 Cd 0.42311 0.67015 0.8939 0.0
Cd170 Cd 0.37797 0.625 0.89886 0.0
O171 O 0.39479 0.62253 0.92912 0.0
O172 O 0.45123 0.70533 0.89158 0.0
O173 O 0.41187 0.6957 0.89574 0.0
C174 C 0.43513 0.71265 0.89368 0.0
C175 C 0.33498 0.61117 0.90006 0.0
C176 C 0.41733 0.63688 0.93528 0.0
C177 C 0.41029 0.6319 0.85637 0.0
O178 O 0.39092 0.6176 0.86833 0.0
O179 O 0.42495 0.65422 0.86289 0.0
O180 O 0.34337 0.5959 0.90149 0.0
O181 O 0.35112 0.6347 0.89827 0.0
O182 O 0.79998 0.38765 0.04341 0.0
Cd183 Cd 0.77231 0.37722 0.06841 0.0
Cd184 Cd 0.77211 0.41731 0.04978 0.0
O185 O 0.79157 0.41275 0.02274 0.0
O186 O 0.76439 0.3431 0.07855 0.0
O187 O 0.73688 0.35058 0.06103 0.0
C188 C 0.74229 0.33467 0.07004 0.0
C189 C 0.74074 0.42718 0.04242 0.0
C190 C 0.8038 0.40143 0.02553 0.0
C191 C 0.794 0.42199 0.09801 0.0
O192 O 0.79288 0.43313 0.07969 0.0
O193 O 0.78356 0.39832 0.09844 0.0
O194 O 0.76397 0.44295 0.03845 0.0
O195 O 0.73506 0.40518 0.0498 0.0
O196 O 0.43261 0.78952 0.19979 0.0
Cd197 Cd 0.42324 0.76719 0.22931 0.0
Cd198 Cd 0.37802 0.76735 0.22301 0.0
O199 O 0.39588 0.78617 0.19281 0.0
O200 O 0.45191 0.76126 0.23363 0.0
O201 O 0.41347 0.73079 0.22658 0.0
C202 C 0.43668 0.73783 0.23035 0.0
C203 C 0.335 0.73839 0.2212 0.0
C204 C 0.41868 0.79465 0.18733 0.0
C205 C 0.40889 0.79233 0.26612 0.0
O206 O 0.3902 0.78791 0.25346 0.0
O207 O 0.42335 0.78419 0.26028 0.0
O208 O 0.34359 0.76204 0.2192 0.0
O209 O 0.35097 0.73089 0.22387 0.0
H210 H 0.10225 0.6337 0.27012 0.0
H211 H 0.14151 0.65676 0.24844 0.0
H212 H 0.15383 0.59426 0.25535 0.0
H213 H 0.11417 0.57079 0.27624 0.0
H214 H 0.18431 0.66892 0.27116 0.0
H215 H 0.18066 0.61826 0.19009 0.0
H216 H 0.15284 0.61247 0.20576 0.0
H217 H 0.17075 0.59847 0.21553 0.0
C218 C 0.11271 0.62441 0.26607 0.0
C219 C 0.10518 0.60047 0.27506 0.0
C220 C 0.13529 0.63771 0.25383 0.0
C221 C 0.15068 0.62728 0.25025 0.0
C222 C 0.14217 0.60261 0.25752 0.0
H223 H 0.31002 0.68801 0.23074 0.0
H224 H 0.26469 0.66054 0.23543 0.0
C225 C 0.11955 0.58926 0.26965 0.0
C226 C 0.17707 0.64342 0.24267 0.0
H227 H 0.22165 0.64807 0.20415 0.0
C228 C 0.19234 0.66453 0.25628 0.0
C229 C 0.18767 0.63749 0.22348 0.0
C230 C 0.17207 0.61556 0.20774 0.0
C231 C 0.21795 0.67957 0.25159 0.0
C232 C 0.2286 0.67359 0.23252 0.0
C233 C 0.2134 0.65257 0.21877 0.0
C234 C 0.25557 0.68916 0.22687 0.0
C235 C 0.23357 0.70138 0.26753 0.0
C236 C 0.26531 0.71409 0.21985 0.0
C237 C 0.29108 0.72978 0.21729 0.0
C238 C 0.30765 0.72083 0.22154 0.0
C239 C 0.29776 0.69549 0.22742 0.0
C240 C 0.27189 0.67977 0.23005 0.0
H241 H 0.22383 0.70004 0.2843 0.0
H242 H 0.25173 0.70256 0.27152 0.0
H243 H 0.23752 0.71897 0.25863 0.0
H244 H 0.253 0.7216 0.21702 0.0
H245 H 0.29802 0.74913 0.21251 0.0
H246 H 0.48962 0.10024 0.43085 0.0
H247 H 0.50674 0.14023 0.41021 0.0
H248 H 0.58148 0.15361 0.42165 0.0
H249 H 0.56444 0.11334 0.44157 0.0
H250 H 0.53508 0.1822 0.43487 0.0
H251 H 0.58868 0.18295 0.35687 0.0
H252 H 0.56582 0.15435 0.37102 0.0
H253 H 0.59696 0.17214 0.38271 0.0
C254 C 0.50963 0.11114 0.42799 0.0
C255 C 0.5257 0.10373 0.43798 0.0
C256 C 0.51941 0.13412 0.41634 0.0
C257 C 0.54541 0.14998 0.41435 0.0
C258 C 0.56138 0.14161 0.42257 0.0
H259 H 0.64505 0.30955 0.40332 0.0
H260 H 0.62655 0.26403 0.40607 0.0
C261 C 0.55161 0.11863 0.43413 0.0
C262 C 0.55582 0.17659 0.40754 0.0
H263 H 0.59871 0.22317 0.37224 0.0
C264 C 0.54868 0.19103 0.4209 0.0
C265 C 0.57386 0.18822 0.38957 0.0
C266 C 0.58161 0.17355 0.37408 0.0
C267 C 0.55949 0.21682 0.41723 0.0
C268 C 0.57772 0.22852 0.39946 0.0
C269 C 0.58475 0.21413 0.38588 0.0
C270 C 0.58967 0.25577 0.39507 0.0
C271 C 0.5519 0.23151 0.43295 0.0
C272 C 0.57524 0.26609 0.38735 0.0
C273 C 0.58566 0.29197 0.38588 0.0
C274 C 0.61082 0.30808 0.39197 0.0
C275 C 0.62561 0.29766 0.39859 0.0
C276 C 0.61509 0.27168 0.40012 0.0
H277 H 0.54201 0.22083 0.44895 0.0
H278 H 0.56848 0.24937 0.43836 0.0
H279 H 0.53908 0.23602 0.42324 0.0
H280 H 0.55567 0.25411 0.38308 0.0
H281 H 0.57379 0.29934 0.38049 0.0
H282 H 0.41002 0.48242 0.60784 0.0
H283 H 0.38661 0.49804 0.58592 0.0
H284 H 0.44837 0.57333 0.59256 0.0
H285 H 0.47216 0.55773 0.61375 0.0
H286 H 0.3739 0.52835 0.60867 0.0
H287 H 0.42429 0.5756 0.52718 0.0
H288 H 0.43033 0.55377 0.54292 0.0
H289 H 0.4441 0.58565 0.55252 0.0
C290 C 0.41907 0.50215 0.60367 0.0
C291 C 0.44286 0.51887 0.61268 0.0
C292 C 0.40558 0.5111 0.59129 0.0
C293 C 0.4157 0.53687 0.58758 0.0
C294 C 0.44028 0.55335 0.59483 0.0
H295 H 0.35387 0.63423 0.56701 0.0
H296 H 0.38157 0.61671 0.57196 0.0
C297 C 0.4538 0.54442 0.60713 0.0
C298 C 0.3993 0.54675 0.57996 0.0
H299 H 0.39416 0.58632 0.5413 0.0
C300 C 0.37815 0.54071 0.5937 0.0
C301 C 0.40507 0.56323 0.56068 0.0
C302 C 0.42706 0.56978 0.54484 0.0
C303 C 0.36292 0.55105 0.58906 0.0
C304 C 0.36873 0.56762 0.56989 0.0
C305 C 0.38978 0.57362 0.55599 0.0
C306 C 0.35295 0.57875 0.56424 0.0
C307 C 0.34113 0.54472 0.60518 0.0
C308 C 0.32795 0.56332 0.55764 0.0
C309 C 0.31212 0.57319 0.55496 0.0
C310 C 0.32103 0.59877 0.55865 0.0
C311 C 0.34643 0.61445 0.56415 0.0
C312 C 0.36228 0.60449 0.56691 0.0
H313 H 0.34272 0.53659 0.62204 0.0
H314 H 0.33969 0.56156 0.60898 0.0
H315 H 0.32354 0.53078 0.59654 0.0
H316 H 0.32049 0.54346 0.55517 0.0
H317 H 0.29274 0.56062 0.55047 0.0
H318 H 0.95559 0.44725 0.75507 0.0
H319 H 0.91803 0.42707 0.73002 0.0
H320 H 0.87804 0.37409 0.78535 0.0
H321 H 0.91524 0.39318 0.80956 0.0
H322 H 0.8681 0.35156 0.74427 0.0
H323 H 0.85755 0.43572 0.7381 0.0
H324 H 0.88611 0.43872 0.72683 0.0
H325 H 0.87966 0.43421 0.75771 0.0
C326 C 0.93881 0.43109 0.7616 0.0
C327 C 0.93815 0.42209 0.78441 0.0
C328 C 0.91732 0.41975 0.74744 0.0
C329 C 0.895 0.39938 0.756 0.0
C330 C 0.8949 0.38985 0.77835 0.0
H331 H 0.73952 0.34121 0.74412 0.0
H332 H 0.78493 0.367 0.74873 0.0
C333 C 0.91617 0.40092 0.79227 0.0
C334 C 0.87122 0.38776 0.74254 0.0
H335 H 0.82452 0.39805 0.72397 0.0
C336 C 0.85868 0.36176 0.73948 0.0
C337 C 0.85891 0.40111 0.73648 0.0
C338 C 0.87107 0.42895 0.74004 0.0
C339 C 0.83367 0.34848 0.73219 0.0
C340 C 0.82109 0.36172 0.72658 0.0
C341 C 0.83414 0.38792 0.72823 0.0
C342 C 0.79383 0.34853 0.72129 0.0
C343 C 0.82057 0.32027 0.73234 0.0
C344 C 0.78366 0.33027 0.70371 0.0
C345 C 0.75776 0.31506 0.70158 0.0
C346 C 0.74154 0.3185 0.71635 0.0
C347 C 0.75164 0.33817 0.73254 0.0
C348 C 0.77758 0.35292 0.73514 0.0
H349 H 0.83089 0.31321 0.74287 0.0
H350 H 0.80136 0.31205 0.73959 0.0
H351 H 0.81931 0.31347 0.71414 0.0
H352 H 0.79574 0.32711 0.69221 0.0
H353 H 0.7504 0.30025 0.68868 0.0
H354 H 0.48853 0.93742 0.94548 0.0
H355 H 0.46888 0.89716 0.92521 0.0
H356 H 0.54019 0.90046 0.92146 0.0
H357 H 0.55997 0.94086 0.94153 0.0
H358 H 0.50743 0.87705 0.88131 0.0
H359 H 0.46121 0.83894 0.96733 0.0
H360 H 0.45595 0.86255 0.95465 0.0
H361 H 0.48684 0.87048 0.96394 0.0
C362 C 0.50013 0.92994 0.9396 0.0
C363 C 0.52572 0.94214 0.94522 0.0
C364 C 0.48888 0.9069 0.92817 0.0
C365 C 0.50299 0.89559 0.92236 0.0
C366 C 0.52896 0.90884 0.92591 0.0
H367 H 0.48279 0.75173 0.88964 0.0
H368 H 0.49726 0.79614 0.89361 0.0
C369 C 0.54028 0.93199 0.93724 0.0
C370 C 0.49036 0.86891 0.91549 0.0
H371 H 0.45258 0.81011 0.93712 0.0
C372 C 0.49528 0.86239 0.89341 0.0
C373 C 0.47457 0.84982 0.93137 0.0
C374 C 0.46941 0.85566 0.95573 0.0
C375 C 0.48486 0.83722 0.8868 0.0
C376 C 0.46954 0.81814 0.9029 0.0
C377 C 0.4642 0.82473 0.92475 0.0
C378 C 0.46031 0.79127 0.89829 0.0
C379 C 0.49031 0.83131 0.86263 0.0
C380 C 0.43469 0.77359 0.89998 0.0
C381 C 0.42632 0.74802 0.89795 0.0
C382 C 0.44347 0.73968 0.89437 0.0
C383 C 0.46905 0.75748 0.89231 0.0
C384 C 0.47737 0.78296 0.89436 0.0
H385 H 0.49506 0.84695 0.8502 0.0
H386 H 0.50662 0.8284 0.86353 0.0
H387 H 0.47413 0.81407 0.85559 0.0
H388 H 0.42121 0.77958 0.90325 0.0
H389 H 0.40651 0.7348 0.89965 0.0
H390 H 0.57709 0.47525 0.10842 0.0
H391 H 0.59842 0.45905 0.08427 0.0
H392 H 0.65154 0.53396 0.06197 0.0
H393 H 0.63106 0.55042 0.08704 0.0
H394 H 0.61579 0.46022 0.03906 0.0
H395 H 0.69397 0.51415 0.10113 0.0
H396 H 0.66336 0.5104 0.10523 0.0
H397 H 0.68473 0.53278 0.08436 0.0
C398 C 0.59293 0.48823 0.09788 0.0
C399 C 0.60279 0.51417 0.10014 0.0
C400 C 0.60506 0.47893 0.08402 0.0
C401 C 0.62707 0.49538 0.07197 0.0
C402 C 0.63495 0.521 0.07165 0.0
H403 H 0.74762 0.47168 0.02609 0.0
H404 H 0.71859 0.48751 0.02867 0.0
C405 C 0.623 0.53037 0.08577 0.0
C406 C 0.64355 0.48614 0.06302 0.0
H407 H 0.70016 0.4905 0.07275 0.0
C408 C 0.63434 0.46698 0.04624 0.0
C409 C 0.6676 0.49467 0.07273 0.0
C410 C 0.67798 0.51394 0.092 0.0
C411 C 0.64861 0.45624 0.03887 0.0
C412 C 0.67255 0.46478 0.04866 0.0
C413 C 0.68186 0.48415 0.06513 0.0
C414 C 0.68815 0.45343 0.04308 0.0
C415 C 0.63802 0.43586 0.02071 0.0
C416 C 0.68051 0.42877 0.0499 0.0
C417 C 0.69715 0.41962 0.04851 0.0
C418 C 0.72175 0.43507 0.04043 0.0
C419 C 0.72886 0.4593 0.03249 0.0
C420 C 0.71226 0.4684 0.03389 0.0
H421 H 0.62242 0.43566 0.01083 0.0
H422 H 0.65274 0.43811 0.00813 0.0
H423 H 0.63071 0.41749 0.02956 0.0
H424 H 0.66214 0.41704 0.05746 0.0
H425 H 0.69111 0.40091 0.05483 0.0
H426 H 0.40935 0.9437 0.51113 0.0
H427 H 0.38569 0.90463 0.53303 0.0
H428 H 0.44775 0.89141 0.52745 0.0
H429 H 0.47176 0.93082 0.50627 0.0
H430 H 0.37347 0.86159 0.51057 0.0
H431 H 0.42277 0.86511 0.59274 0.0
H432 H 0.42893 0.89292 0.5768 0.0
H433 H 0.44296 0.87489 0.5676 0.0
C434 C 0.41839 0.93307 0.51553 0.0
C435 C 0.44235 0.94025 0.50683 0.0
C436 C 0.40477 0.91062 0.52789 0.0
C437 C 0.41491 0.89504 0.53191 0.0
C438 C 0.43962 0.90323 0.52495 0.0
H439 H 0.3535 0.73599 0.55324 0.0
H440 H 0.38106 0.78123 0.54819 0.0
C441 C 0.45327 0.9257 0.51266 0.0
C442 C 0.39848 0.86875 0.53956 0.0
H443 H 0.393 0.82419 0.57861 0.0
C444 C 0.37755 0.85354 0.52567 0.0
C445 C 0.40404 0.85813 0.55903 0.0
C446 C 0.42578 0.87367 0.57503 0.0
C447 C 0.36235 0.82798 0.53037 0.0
C448 C 0.36795 0.8173 0.54973 0.0
C449 C 0.38877 0.83244 0.56376 0.0
C450 C 0.3522 0.79038 0.55542 0.0
C451 C 0.34081 0.81242 0.51411 0.0
C452 C 0.32709 0.7807 0.56178 0.0
C453 C 0.31134 0.75498 0.56453 0.0
C454 C 0.32043 0.73841 0.56114 0.0
C455 C 0.34591 0.74825 0.55588 0.0
C456 C 0.36169 0.77407 0.55305 0.0
H457 H 0.34258 0.82211 0.49717 0.0
H458 H 0.33952 0.79418 0.51045 0.0
H459 H 0.32307 0.80868 0.52254 0.0
H460 H 0.3195 0.79301 0.56402 0.0
H461 H 0.29188 0.74808 0.56884 0.0
H462 H 0.56453 0.47422 0.68241 0.0
H463 H 0.5843 0.45376 0.70295 0.0
H464 H 0.51316 0.38554 0.70676 0.0
H465 H 0.49325 0.40602 0.68645 0.0
H466 H 0.54641 0.39498 0.74694 0.0
H467 H 0.59159 0.40341 0.66035 0.0
H468 H 0.59684 0.43218 0.67308 0.0
H469 H 0.56589 0.40914 0.66406 0.0
C470 C 0.55298 0.45513 0.68841 0.0
C471 C 0.52742 0.44162 0.68271 0.0
C472 C 0.56429 0.44343 0.7 0.0
C473 C 0.55028 0.418 0.70587 0.0
C474 C 0.52431 0.40517 0.70229 0.0
H475 H 0.57005 0.29385 0.73688 0.0
H476 H 0.55603 0.32426 0.73437 0.0
C477 C 0.51292 0.41692 0.6908 0.0
C478 C 0.56302 0.40398 0.71256 0.0
H479 H 0.6004 0.38294 0.69027 0.0
C480 C 0.55839 0.39249 0.73467 0.0
C481 C 0.57859 0.40073 0.69646 0.0
C482 C 0.58344 0.41181 0.67208 0.0
C483 C 0.56887 0.37769 0.74106 0.0
C484 C 0.58393 0.37393 0.72471 0.0
C485 C 0.589 0.38595 0.70285 0.0
C486 C 0.59302 0.35611 0.72897 0.0
C487 C 0.56373 0.36625 0.76525 0.0
C488 C 0.61851 0.36376 0.72648 0.0
C489 C 0.6266 0.34628 0.72764 0.0
C490 C 0.6093 0.32081 0.73115 0.0
C491 C 0.5839 0.31333 0.73423 0.0
C492 C 0.57585 0.33076 0.73303 0.0
H493 H 0.55945 0.37729 0.77784 0.0
H494 H 0.54719 0.34716 0.76453 0.0
H495 H 0.57987 0.36487 0.77196 0.0
H496 H 0.63207 0.3832 0.72311 0.0
H497 H 0.64628 0.35264 0.72517 0.0
H498 H 0.1146 0.55788 0.84184 0.0
H499 H 0.15467 0.57453 0.86212 0.0
H500 H 0.14217 0.49984 0.87079 0.0
H501 H 0.10265 0.48313 0.84963 0.0
H502 H 0.17419 0.56788 0.90454 0.0
H503 H 0.20338 0.53356 0.82767 0.0
H504 H 0.17446 0.53407 0.82831 0.0
H505 H 0.17683 0.50965 0.84317 0.0
C506 C 0.12014 0.54494 0.84848 0.0
C507 C 0.10566 0.51922 0.84365 0.0
C508 C 0.14301 0.55449 0.86016 0.0
C509 C 0.1517 0.53848 0.86735 0.0
C510 C 0.13602 0.51256 0.8649 0.0
H511 H 0.29764 0.5629 0.90507 0.0
H512 H 0.25281 0.54606 0.90016 0.0
C513 C 0.11325 0.503 0.85304 0.0
C514 C 0.17816 0.54902 0.8746 0.0
H515 H 0.23287 0.55242 0.8579 0.0
C516 C 0.18704 0.56447 0.89442 0.0
C517 C 0.19499 0.54488 0.86111 0.0
C518 C 0.18707 0.52985 0.83876 0.0
C519 C 0.21222 0.57544 0.90137 0.0
C520 C 0.22888 0.57099 0.88801 0.0
C521 C 0.21999 0.55563 0.8682 0.0
C522 C 0.2557 0.58194 0.89401 0.0
C523 C 0.22079 0.5914 0.92307 0.0
C524 C 0.27224 0.60781 0.89243 0.0
C525 C 0.29804 0.61757 0.89517 0.0
C526 C 0.30767 0.60157 0.89941 0.0
C527 C 0.29091 0.57577 0.90174 0.0
C528 C 0.26523 0.56608 0.89899 0.0
H529 H 0.20478 0.58869 0.9341 0.0
H530 H 0.23324 0.58714 0.93375 0.0
H531 H 0.23159 0.61137 0.91785 0.0
H532 H 0.26531 0.62034 0.88818 0.0
H533 H 0.31046 0.63751 0.89323 0.0
H534 H 0.64461 0.13337 0.97392 0.0
H535 H 0.66585 0.17139 -0.00295 0.0
H536 H 0.62172 0.13167 0.05752 0.0
H537 H 0.59986 0.09314 0.03399 0.0
H538 H 0.62324 0.17748 0.04863 0.0
H539 H 0.71857 0.19087 0.04789 0.0
H540 H 0.70563 0.18538 0.01894 0.0
H541 H 0.69126 0.1613 0.04094 0.0
C542 C 0.63953 0.13264 -0.0078 0.0
C543 C 0.62049 0.11037 0.00216 0.0
C544 C 0.65183 0.15435 0.00546 0.0
C545 C 0.64561 0.15433 0.02908 0.0
C546 C 0.6269 0.13201 0.03933 0.0
H547 H 0.74475 0.2982 0.09486 0.0
H548 H 0.71861 0.25301 0.09033 0.0
C549 C 0.61454 0.11006 0.02597 0.0
C550 C 0.65797 0.17821 0.04221 0.0
H551 H 0.71573 0.2282 0.05285 0.0
C552 C 0.64344 0.18841 0.05006 0.0
C553 C 0.68427 0.19232 0.04443 0.0
C554 C 0.7008 0.18178 0.03782 0.0
C555 C 0.65467 0.213 0.05861 0.0
C556 C 0.68109 0.22789 0.0588 0.0
C557 C 0.69548 0.21702 0.05242 0.0
C558 C 0.69438 0.2551 0.06412 0.0
C559 C 0.63807 0.2228 0.06705 0.0
C560 C 0.68925 0.27145 0.05124 0.0
C561 C 0.70401 0.29736 0.05402 0.0
C562 C 0.72451 0.30742 0.06939 0.0
C563 C 0.72914 0.29103 0.08279 0.0
C564 C 0.7142 0.26517 0.08023 0.0
H565 H 0.61999 0.20741 0.0738 0.0
H566 H 0.64721 0.2369 0.0811 0.0
H567 H 0.63384 0.23166 0.05215 0.0
H568 H 0.67455 0.26428 0.03822 0.0
H569 H 0.7001 0.30949 0.0433 0.0
H570 H 0.5313 0.5901 0.19795 0.0
H571 H 0.51722 0.61486 0.22049 0.0
H572 H 0.50919 0.64692 0.15608 0.0
H573 H 0.52383 0.62327 0.13394 0.0
H574 H 0.53247 0.68177 0.18982 0.0
H575 H 0.44484 0.60086 0.22424 0.0
H576 H 0.47372 0.60169 0.23089 0.0
H577 H 0.46294 0.59757 0.20115 0.0
C578 C 0.52666 0.6026 0.18877 0.0
C579 C 0.52817 0.60438 0.16418 0.0
C580 C 0.51842 0.61653 0.20158 0.0
C581 C 0.5117 0.6324 0.18991 0.0
C582 C 0.51406 0.63469 0.16548 0.0
H583 H 0.41576 0.69224 0.20888 0.0
H584 H 0.43483 0.66607 0.20348 0.0
C585 C 0.52227 0.62099 0.15281 0.0
C586 C 0.50212 0.64692 0.20247 0.0
H587 H 0.4507 0.64091 0.23097 0.0
C588 C 0.51478 0.67291 0.19917 0.0
C589 C 0.47889 0.63524 0.2144 0.0
C590 C 0.46411 0.6073 0.21783 0.0
C591 C 0.50432 0.6874 0.20628 0.0
C592 C 0.48086 0.6757 0.21788 0.0
C593 C 0.46869 0.64985 0.22216 0.0
C594 C 0.46789 0.68975 0.22392 0.0
C595 C 0.51783 0.71482 0.19989 0.0
C596 C 0.47963 0.71121 0.23793 0.0
C597 C 0.46903 0.72642 0.2406 0.0
C598 C 0.44613 0.72008 0.22986 0.0
C599 C 0.43346 0.69761 0.2173 0.0
C600 C 0.44433 0.68264 0.21425 0.0
H601 H 0.53207 0.71931 0.18598 0.0
H602 H 0.50453 0.72071 0.19368 0.0
H603 H 0.52764 0.72601 0.21557 0.0
H604 H 0.49743 0.71668 0.24617 0.0
H605 H 0.47903 0.74343 0.25071 0.0
H606 H 0.93517 0.48242 0.3425 0.0
H607 H 0.89757 0.46554 0.36682 0.0
H608 H 0.919 0.53993 0.3899 0.0
H609 H 0.95618 0.55702 0.36489 0.0
H610 H 0.8806 0.4668 0.41292 0.0
H611 H 0.85761 0.51966 0.34807 0.0
H612 H 0.88441 0.51564 0.34486 0.0
H613 H 0.88528 0.53837 0.36501 0.0
C614 C 0.93232 0.49509 0.35342 0.0
C615 C 0.94828 0.52108 0.35138 0.0
C616 C 0.91083 0.48541 0.36734 0.0
C617 C 0.90513 0.50157 0.37957 0.0
C618 C 0.92284 0.5272 0.38017 0.0
H619 H 0.76056 0.47904 0.42212 0.0
H620 H 0.80539 0.49479 0.41898 0.0
C621 C 0.94425 0.53694 0.36607 0.0
C622 C 0.87917 0.49222 0.38791 0.0
H623 H 0.82703 0.4961 0.3761 0.0
C624 C 0.86891 0.47334 0.40506 0.0
C625 C 0.86382 0.50044 0.37728 0.0
C626 C 0.87317 0.51946 0.35764 0.0
C627 C 0.84373 0.46267 0.41203 0.0
C628 C 0.82848 0.47094 0.40134 0.0
C629 C 0.83884 0.48994 0.38439 0.0
C630 C 0.80149 0.45993 0.40678 0.0
C631 C 0.83366 0.44275 0.43077 0.0
C632 C 0.78434 0.43493 0.40128 0.0
C633 C 0.75855 0.42581 0.40303 0.0
C634 C 0.74955 0.44164 0.41012 0.0
C635 C 0.76683 0.46637 0.41648 0.0
C636 C 0.7925 0.47541 0.41477 0.0
H637 H 0.84893 0.44295 0.44124 0.0
H638 H 0.82087 0.44516 0.44276 0.0
H639 H 0.82288 0.42415 0.42239 0.0
H640 H 0.79084 0.42279 0.39462 0.0
H641 H 0.74572 0.4067 0.39796 0.0
H642 H 0.09503 0.54572 0.34505 0.0
H643 H 0.12044 0.54901 0.37927 0.0
H644 H 0.10602 0.60478 0.4087 0.0
H645 H 0.08034 0.60122 0.37483 0.0
H646 H 0.16281 0.59157 0.38837 0.0
H647 H 0.10164 0.56537 0.46645 0.0
H648 H 0.08931 0.55742 0.43707 0.0
H649 H 0.09923 0.58804 0.44868 0.0
C650 C 0.09662 0.55803 0.35924 0.0
C651 C 0.08572 0.57319 0.35734 0.0
C652 C 0.11117 0.55995 0.37872 0.0
C653 C 0.11505 0.57705 0.39661 0.0
C654 C 0.10284 0.59104 0.39542 0.0
H655 H 0.22312 0.65711 0.50339 0.0
H656 H 0.19113 0.64182 0.47285 0.0
C657 C 0.08814 0.58899 0.37603 0.0
C658 C 0.13449 0.58291 0.41463 0.0
H659 H 0.14592 0.59111 0.4734 0.0
C660 C 0.15903 0.59104 0.40699 0.0
C661 C 0.12956 0.58236 0.43889 0.0
C662 C 0.10345 0.57258 0.44827 0.0
C663 C 0.17891 0.59952 0.4229 0.0
C664 C 0.17408 0.59974 0.44705 0.0
C665 C 0.14952 0.59107 0.45479 0.0
C666 C 0.1944 0.60948 0.46454 0.0
C667 C 0.20508 0.60902 0.41377 0.0
C668 C 0.20701 0.59647 0.46968 0.0
C669 C 0.22532 0.60513 0.48712 0.0
C670 C 0.23131 0.62696 0.49971 0.0
C671 C 0.21907 0.64029 0.494 0.0
C672 C 0.20068 0.63154 0.47665 0.0
H673 H 0.20621 0.61141 0.39442 0.0
H674 H 0.2183 0.6272 0.42198 0.0
H675 H 0.21127 0.59552 0.41844 0.0
H676 H 0.20225 0.5793 0.46058 0.0
H677 H 0.23432 0.59436 0.49111 0.0
H678 H 0.56587 0.09358 0.51097 0.0
H679 H 0.58465 0.11937 0.54574 0.0
H680 H 0.51136 0.10047 0.57078 0.0
H681 H 0.49249 0.07484 0.53594 0.0
H682 H 0.54575 0.15267 0.56243 0.0
H683 H 0.58774 0.1089 0.61748 0.0
H684 H 0.59399 0.11022 0.58656 0.0
H685 H 0.56257 0.09123 0.59712 0.0
C686 C 0.55374 0.09425 0.52433 0.0
C687 C 0.52776 0.08232 0.52078 0.0
C688 C 0.56447 0.1089 0.54418 0.0
C689 C 0.54935 0.11176 0.56078 0.0
C690 C 0.52328 0.09835 0.55817 0.0
H691 H 0.58191 0.22105 0.67002 0.0
H692 H 0.56203 0.18895 0.64006 0.0
C693 C 0.51252 0.08357 0.53838 0.0
C694 C 0.56089 0.1316 0.57864 0.0
H695 H 0.59961 0.15099 0.62604 0.0
C696 C 0.55734 0.15223 0.57651 0.0
C697 C 0.57628 0.13106 0.59664 0.0
C698 C 0.5803 0.1091 0.5998 0.0
C699 C 0.56913 0.17263 0.59174 0.0
C700 C 0.5844 0.17206 0.60991 0.0
C701 C 0.58791 0.15137 0.61207 0.0
C702 C 0.59663 0.19259 0.62709 0.0
C703 C 0.56569 0.19488 0.58779 0.0
C704 C 0.62269 0.20525 0.62979 0.0
C705 C 0.63415 0.22353 0.64702 0.0
C706 C 0.61969 0.2294 0.66194 0.0
C707 C 0.59363 0.21716 0.65872 0.0
C708 C 0.58221 0.19881 0.64156 0.0
H709 H 0.55971 0.19549 0.56955 0.0
H710 H 0.55095 0.19358 0.59979 0.0
H711 H 0.58322 0.21265 0.5914 0.0
H712 H 0.63414 0.2007 0.61877 0.0
H713 H 0.65424 0.23254 0.64906 0.0
H714 H 0.44097 0.49404 0.71231 0.0
H715 H 0.43662 0.51655 0.74551 0.0
H716 H 0.49415 0.58629 0.71634 0.0
H717 H 0.49812 0.56386 0.68278 0.0
H718 H 0.46668 0.55003 0.77961 0.0
H719 H 0.43297 0.59488 0.716 0.0
H720 H 0.43783 0.56943 0.70802 0.0
H721 H 0.46401 0.60064 0.71037 0.0
C722 C 0.45325 0.51407 0.7134 0.0
C723 C 0.46973 0.52729 0.69496 0.0
C724 C 0.45065 0.52693 0.73228 0.0
C725 C 0.46456 0.55313 0.733 0.0
C726 C 0.48278 0.56612 0.71576 0.0
H727 H 0.44959 0.65687 0.82596 0.0
H728 H 0.46388 0.63863 0.7959 0.0
C729 C 0.4852 0.55331 0.69675 0.0
C730 C 0.45826 0.56678 0.75047 0.0
H731 H 0.43499 0.6064 0.75563 0.0
C732 C 0.45987 0.56244 0.77439 0.0
C733 C 0.44914 0.5828 0.74356 0.0
C734 C 0.44563 0.58709 0.71811 0.0
C735 C 0.45262 0.57374 0.7916 0.0
C736 C 0.44338 0.58957 0.78464 0.0
C737 C 0.44217 0.59428 0.7608 0.0
C738 C 0.43406 0.60074 0.80189 0.0
C739 C 0.45483 0.56867 0.81711 0.0
C740 C 0.41211 0.58549 0.81454 0.0
C741 C 0.40374 0.59582 0.83153 0.0
C742 C 0.41726 0.62161 0.83621 0.0
C743 C 0.43877 0.63695 0.82283 0.0
C744 C 0.44702 0.62658 0.80572 0.0
H745 H 0.46703 0.56041 0.81966 0.0
H746 H 0.46244 0.58614 0.82748 0.0
H747 H 0.43599 0.55533 0.82411 0.0
H748 H 0.40165 0.56553 0.81149 0.0
H749 H 0.38711 0.58345 0.84146 0.0
H750 H 0.99018 0.47975 0.87761 0.0
H751 H 0.97057 0.47586 0.91625 0.0
H752 H 0.91278 0.40107 0.89865 0.0
H753 H 0.93259 0.40456 0.86103 0.0
H754 H 0.92584 0.4703 0.92375 0.0
H755 H 0.92583 0.38965 0.96422 0.0
H756 H 0.94534 0.40577 0.93928 0.0
H757 H 0.91343 0.38105 0.93525 0.0
C758 C 0.97371 0.46231 0.88245 0.0
C759 C 0.96274 0.44252 0.86641 0.0
C760 C 0.96248 0.46012 0.90438 0.0
C761 C 0.94039 0.43801 0.91052 0.0
C762 C 0.93016 0.41802 0.89472 0.0
H763 H 0.80908 0.41567 0.97948 0.0
H764 H 0.84499 0.42669 0.95396 0.0
C765 C 0.94133 0.42015 0.87306 0.0
C766 C 0.92601 0.43632 0.93194 0.0
H767 H 0.88964 0.39444 0.97387 0.0
C768 C 0.91841 0.45404 0.93513 0.0
C769 C 0.91672 0.41547 0.94721 0.0
C770 C 0.92605 0.39712 0.94643 0.0
C771 C 0.90028 0.45042 0.95194 0.0
C772 C 0.88875 0.42799 0.96521 0.0
C773 C 0.89785 0.41131 0.96329 0.0
C774 C 0.86674 0.42098 0.98055 0.0
C775 C 0.89363 0.47063 0.95504 0.0
C776 C 0.86627 0.41264 0.00356 0.0
C777 C 0.84536 0.40537 0.01782 0.0
C778 C 0.82462 0.40666 0.00949 0.0
C779 C 0.82489 0.41466 -0.01361 0.0
C780 C 0.84558 0.42133 0.97192 0.0
H781 H 0.90985 0.48932 0.95088 0.0
H782 H 0.87837 0.46733 0.94274 0.0
H783 H 0.88737 0.47097 0.97321 0.0
H784 H 0.88222 0.41199 0.01062 0.0
H785 H 0.84578 0.39949 0.03564 0.0
H786 H 0.55655 0.96654 0.04311 0.0
H787 H 0.53534 0.9395 0.07678 0.0
H788 H 0.4646 0.92821 0.05158 0.0
H789 H 0.48571 0.95493 0.01762 0.0
H790 H 0.50239 0.93548 0.11294 0.0
H791 H 0.4567 0.85839 0.04833 0.0
H792 H 0.48207 0.88893 0.0405 0.0
H793 H 0.45089 0.88379 0.04379 0.0
C794 C 0.53662 0.95905 0.04522 0.0
C795 C 0.5227 0.96261 0.02771 0.0
C796 C 0.5245 0.94346 0.06437 0.0
C797 C 0.49835 0.93133 0.06627 0.0
C798 C 0.48474 0.93694 0.05009 0.0
H799 H 0.39457 0.80921 0.15625 0.0
H800 H 0.41357 0.84269 0.12704 0.0
C801 C 0.49681 0.95234 0.03085 0.0
C802 C 0.48526 0.91095 0.0836 0.0
H803 H 0.44584 0.84792 0.08804 0.0
C804 C 0.48997 0.91635 0.10754 0.0
C805 C 0.46924 0.88596 0.07642 0.0
C806 C 0.46454 0.87878 0.05087 0.0
C807 C 0.47887 0.89741 0.12454 0.0
C808 C 0.46295 0.87246 0.11733 0.0
C809 C 0.45803 0.8671 0.09344 0.0
C810 C 0.4515 0.85157 0.13431 0.0
C811 C 0.48407 0.9042 0.1501 0.0
C812 C 0.46652 0.84499 0.14746 0.0
C813 C 0.45575 0.82575 0.16403 0.0
C814 C 0.42973 0.81276 0.16775 0.0
C815 C 0.41467 0.81885 0.15389 0.0
C816 C 0.42547 0.83802 0.13725 0.0
H817 H 0.49194 0.92455 0.15296 0.0
H818 H 0.46675 0.89381 0.16071 0.0
H819 H 0.49784 0.89906 0.15658 0.0
H820 H 0.48663 0.85493 0.14507 0.0
H821 H 0.46792 0.82155 0.17435 0.0
H822 H 0.62984 0.51194 0.17155 0.0
H823 H 0.63804 0.49639 0.20749 0.0
H824 H 0.58408 0.50884 0.244 0.0
H825 H 0.57434 0.52293 0.2072 0.0
H826 H 0.65632 0.51797 0.24744 0.0
H827 H 0.56063 0.43772 0.26233 0.0
H828 H 0.56949 0.45551 0.23545 0.0
H829 H 0.56257 0.46766 0.2612 0.0
C830 C 0.61919 0.51086 0.18702 0.0
C831 C 0.60083 0.51798 0.18628 0.0
C832 C 0.62419 0.50226 0.20771 0.0
C833 C 0.61138 0.50098 0.2284 0.0
C834 C 0.59373 0.50903 0.2281 0.0
H835 H 0.66765 0.47062 0.35832 0.0
H836 H 0.65722 0.49112 0.32731 0.0
C837 C 0.58839 0.51735 0.20714 0.0
C838 C 0.61698 0.4912 0.24997 0.0
H839 H 0.59133 0.44386 0.29017 0.0
C840 C 0.64209 0.50182 0.25686 0.0
C841 C 0.59842 0.46995 0.26207 0.0
C842 C 0.5713 0.45686 0.25482 0.0
C843 C 0.64931 0.49134 0.27492 0.0
C844 C 0.63075 0.47023 0.28718 0.0
C845 C 0.60554 0.46005 0.28078 0.0
C846 C 0.63711 0.45786 0.30614 0.0
C847 C 0.67687 0.50232 0.27981 0.0
C848 C 0.62867 0.43214 0.30496 0.0
C849 C 0.63413 0.42024 0.32296 0.0
C850 C 0.6484 0.4339 0.34234 0.0
C851 C 0.65703 0.45967 0.34339 0.0
C852 C 0.65113 0.47145 0.32563 0.0
H853 H 0.68849 0.51304 0.26452 0.0
H854 H 0.68222 0.5154 0.29479 0.0
H855 H 0.68141 0.48755 0.28429 0.0
H856 H 0.61779 0.42125 0.29012 0.0
H857 H 0.62713 0.40034 0.32174 0.0
H858 H 0.49735 0.94912 0.43751 0.0
H859 H 0.49329 0.92277 0.40394 0.0
H860 H 0.43826 0.93795 0.37359 0.0
H861 H 0.44262 0.96459 0.40684 0.0
H862 H 0.44964 0.88075 0.39609 0.0
H863 H 0.47683 0.93944 0.31608 0.0
H864 H 0.4854 0.95261 0.34509 0.0
H865 H 0.45477 0.94307 0.33361 0.0
C866 C 0.48509 0.94752 0.42322 0.0
C867 C 0.4703 0.95886 0.42471 0.0
C868 C 0.48271 0.93243 0.40412 0.0
C869 C 0.46553 0.92844 0.38622 0.0
C870 C 0.45203 0.94116 0.38691 0.0
H871 H 0.38613 0.81835 0.2802 0.0
H872 H 0.40058 0.85082 0.31015 0.0
C873 C 0.45454 0.95642 0.40593 0.0
C874 C 0.459 0.90833 0.36887 0.0
H875 H 0.45086 0.89513 0.31042 0.0
C876 C 0.45028 0.88397 0.37733 0.0
C877 C 0.45965 0.91252 0.34444 0.0
C878 C 0.4699 0.93838 0.33426 0.0
C879 C 0.44149 0.86358 0.36206 0.0
C880 C 0.44159 0.86771 0.33771 0.0
C881 C 0.45068 0.89207 0.32917 0.0
C882 C 0.43206 0.84693 0.32078 0.0
C883 C 0.43142 0.83766 0.37208 0.0
C884 C 0.44481 0.83378 0.31719 0.0
C885 C 0.43661 0.81518 0.30012 0.0
C886 C 0.41553 0.80946 0.28632 0.0
C887 C 0.40236 0.82219 0.29055 0.0
C888 C 0.41066 0.84085 0.30755 0.0
H889 H 0.42825 0.83711 0.39129 0.0
H890 H 0.41355 0.82428 0.36346 0.0
H891 H 0.44504 0.83129 0.36876 0.0
H892 H 0.46151 0.83839 0.32713 0.0
H893 H 0.44724 0.80582 0.29728 0.0
H894 H 0.56792 0.49315 0.6106 0.0
H895 H 0.58883 0.48813 0.57634 0.0
H896 H 0.51759 0.43106 0.54975 0.0
H897 H 0.49662 0.43621 0.58381 0.0
H898 H 0.58637 0.4431 0.56992 0.0
H899 H 0.55272 0.46859 0.49018 0.0
H900 H 0.54977 0.47855 0.51914 0.0
H901 H 0.52798 0.44749 0.5093 0.0
C902 C 0.55668 0.48019 0.597 0.0
C903 C 0.53069 0.46502 0.59984 0.0
C904 C 0.56862 0.47729 0.5775 0.0
C905 C 0.55477 0.45924 0.5605 0.0
C906 C 0.5286 0.44542 0.56241 0.0
H907 H 0.58828 0.38366 0.45136 0.0
H908 H 0.56858 0.39639 0.48129 0.0
C909 C 0.51662 0.4484 0.58188 0.0
C910 C 0.56783 0.45226 0.54295 0.0
H911 H 0.57269 0.44436 0.4844 0.0
C912 C 0.58362 0.44366 0.5512 0.0
C913 C 0.56394 0.45272 0.51859 0.0
C914 C 0.54786 0.46255 0.50873 0.0
C915 C 0.59528 0.43505 0.53577 0.0
C916 C 0.59128 0.43536 0.51143 0.0
C917 C 0.57561 0.44408 0.50312 0.0
C918 C 0.60338 0.4269 0.49427 0.0
C919 C 0.61123 0.42507 0.54568 0.0
C920 C 0.62948 0.4397 0.49189 0.0
C921 C 0.64083 0.43244 0.47491 0.0
C922 C 0.62624 0.41231 0.45987 0.0
C923 C 0.60009 0.39918 0.46269 0.0
C924 C 0.58877 0.40648 0.47968 0.0
H925 H 0.60744 0.42041 0.56461 0.0
H926 H 0.60802 0.4081 0.53611 0.0
H927 H 0.63125 0.43947 0.54373 0.0
H928 H 0.64105 0.45572 0.50279 0.0
H929 H 0.66098 0.44307 0.47315 0.0
H930 H 0.09294 0.56262 0.7739 0.0
H931 H 0.11814 0.58492 0.73955 0.0
H932 H 0.10523 0.51511 0.7105 0.0
H933 H 0.07975 0.4928 0.74449 0.0
H934 H 0.161 0.58562 0.73069 0.0
H935 H 0.10053 0.54952 0.65246 0.0
H936 H 0.08795 0.54497 0.68178 0.0
H937 H 0.09853 0.52471 0.67039 0.0
C938 C 0.09477 0.552 0.75974 0.0
C939 C 0.08439 0.52601 0.7618 0.0
C940 C 0.10922 0.56474 0.74019 0.0
C941 C 0.1135 0.55169 0.72239 0.0
C942 C 0.10174 0.52554 0.72371 0.0
H943 H 0.22298 0.58165 0.61604 0.0
H944 H 0.19065 0.56441 0.64636 0.0
C945 C 0.08714 0.51277 0.74317 0.0
C946 C 0.133 0.56551 0.70439 0.0
H947 H 0.14494 0.56883 0.64567 0.0
C948 C 0.15739 0.58228 0.71207 0.0
C949 C 0.12831 0.56101 0.68012 0.0
C950 C 0.10234 0.54426 0.67069 0.0
C951 C 0.17736 0.59396 0.69621 0.0
C952 C 0.17278 0.58883 0.67207 0.0
C953 C 0.14836 0.57255 0.66428 0.0
C954 C 0.19324 0.59973 0.65464 0.0
C955 C 0.20338 0.61101 0.70541 0.0
C956 C 0.20555 0.62536 0.64953 0.0
C957 C 0.22406 0.63532 0.63221 0.0
C958 C 0.23054 0.61978 0.6197 0.0
C959 C 0.21855 0.59419 0.62536 0.0
C960 C 0.19998 0.58425 0.64259 0.0
H961 H 0.20441 0.60973 0.72477 0.0
H962 H 0.21693 0.60645 0.69726 0.0
H963 H 0.2092 0.63062 0.70076 0.0
H964 H 0.20044 0.63754 0.65857 0.0
H965 H 0.23284 0.65508 0.62826 0.0
H966 H 0.61185 0.07393 0.90803 0.0
H967 H 0.61569 0.09854 0.87292 0.0
H968 H 0.55967 0.11384 0.90033 0.0
H969 H 0.55626 0.08976 0.93573 0.0
H970 H 0.5851 0.10216 0.83784 0.0
H971 H 0.62374 0.18237 0.89944 0.0
H972 H 0.61776 0.15177 0.90802 0.0
H973 H 0.59243 0.15815 0.90606 0.0
C974 C 0.59964 0.0817 0.90608 0.0
C975 C 0.58388 0.08016 0.92454 0.0
C976 C 0.60196 0.09588 0.88612 0.0
C977 C 0.58846 0.10854 0.88439 0.0
C978 C 0.57064 0.10464 0.90162 0.0
H979 H 0.60494 0.22873 0.79341 0.0
H980 H 0.59136 0.1957 0.82295 0.0
C981 C 0.56852 0.09072 0.92168 0.0
C982 C 0.59537 0.12818 0.86635 0.0
H983 H 0.62071 0.19123 0.85976 0.0
C984 C 0.59281 0.12163 0.84258 0.0
C985 C 0.60573 0.15362 0.87266 0.0
C986 C 0.61033 0.16202 0.89791 0.0
C987 C 0.60004 0.13985 0.82492 0.0
C988 C 0.61032 0.16521 0.83128 0.0
C989 C 0.61274 0.17173 0.85501 0.0
C990 C 0.61891 0.18539 0.8136 0.0
C991 C 0.59642 0.13186 0.79959 0.0
C992 C 0.63937 0.19096 0.79906 0.0
C993 C 0.64734 0.20996 0.78228 0.0
C994 C 0.63495 0.22371 0.77975 0.0
C995 C 0.61488 0.21849 0.79484 0.0
C996 C 0.60702 0.19957 0.81168 0.0
H997 H 0.58334 0.11148 0.7977 0.0
H998 H 0.58914 0.14213 0.7893 0.0
H999 H 0.61471 0.13626 0.79198 0.0
H1000 H 0.64911 0.18053 0.80064 0.0
H1001 H 0.66286 0.21348 0.77097 0.0
H1002 H 0.48125 0.53922 0.10018 0.0
H1003 H 0.46108 0.54547 0.06593 0.0
H1004 H 0.53342 0.59712 0.03695 0.0
H1005 H 0.55366 0.59101 0.07111 0.0
H1006 H 0.49968 0.61633 0.05092 0.0
H1007 H 0.45428 0.53349 -0.00764 0.0
H1008 H 0.45155 0.52799 0.02353 0.0
H1009 H 0.48156 0.54067 0.00972 0.0
C1010 C 0.49282 0.55095 0.08595 0.0
C1011 C 0.51898 0.56472 0.08831 0.0
C1012 C 0.48129 0.55452 0.06642 0.0
C1013 C 0.4958 0.57182 0.04902 0.0
C1014 C 0.52196 0.58359 0.05018 0.0
H1015 H 0.46633 0.6587 0.94843 0.0
H1016 H 0.48482 0.64282 0.97646 0.0
C1017 C 0.5335 0.57992 0.06962 0.0
C1018 C 0.484 0.58132 0.03259 0.0
H1019 H 0.44515 0.56586 0.98545 0.0
C1020 C 0.48789 0.6054 0.03647 0.0
C1021 C 0.46826 0.56674 0.01419 0.0
C1022 C 0.46365 0.5408 0.00948 0.0
C1023 C 0.47634 0.61535 0.02247 0.0
C1024 C 0.46102 0.60105 0.00363 0.0
C1025 C 0.45695 0.57682 -0.00014 0.0
C1026 C 0.44956 0.61116 -0.01266 0.0
C1027 C 0.48019 0.64082 0.02837 0.0
C1028 C 0.42358 0.59851 0.98396 0.0
C1029 C 0.41291 0.60744 0.96774 0.0
C1030 C 0.42808 0.62917 0.95458 0.0
C1031 C 0.45405 0.64208 0.95843 0.0
C1032 C 0.46468 0.63304 0.9745 0.0
H1033 H 0.4856 0.64566 0.04702 0.0
H1034 H 0.49553 0.65511 0.01737 0.0
H1035 H 0.46303 0.64185 0.02498 0.0
H1036 H 0.41158 0.58157 -0.00631 0.0
H1037 H 0.39286 0.59697 0.96514 0.0
H1038 H 0.91747 0.52473 0.28183 0.0
H1039 H 0.89146 0.50911 0.24713 0.0
H1040 H 0.954 0.51517 0.20791 0.0
H1041 H 0.9801 0.52973 0.24335 0.0
H1042 H 0.89375 0.5283 0.20496 0.0
H1043 H 0.90174 0.44292 0.19714 0.0
H1044 H 0.91301 0.46304 0.22238 0.0
H1045 H 0.93083 0.47191 0.19563 0.0
C1046 C 0.9257 0.52246 0.26592 0.0
C1047 C 0.95066 0.52776 0.26549 0.0
C1048 C 0.91084 0.51379 0.246 0.0
C1049 C 0.9206 0.51047 0.22504 0.0
C1050 C 0.94592 0.517 0.22409 0.0
H1051 H 0.82949 0.47143 0.09784 0.0
H1052 H 0.86079 0.49419 0.12785 0.0
C1053 C 0.96086 0.52553 0.24423 0.0
C1054 C 0.90365 0.49949 0.2047 0.0
H1055 H 0.87636 0.44805 0.16957 0.0
C1056 C 0.89005 0.51083 0.19709 0.0
C1057 C 0.89859 0.4765 0.19473 0.0
C1058 C 0.91161 0.4627 0.20297 0.0
C1059 C 0.87107 0.49953 0.18026 0.0
C1060 C 0.86613 0.47662 0.17019 0.0
C1061 C 0.88016 0.4656 0.17735 0.0
C1062 C 0.84616 0.4634 0.15254 0.0
C1063 C 0.85586 0.51173 0.17424 0.0
C1064 C 0.82758 0.43841 0.15631 0.0
C1065 C 0.80986 0.42517 0.139 0.0
C1066 C 0.8103 0.43675 0.11763 0.0
C1067 C 0.8284 0.46204 0.11423 0.0
C1068 C 0.84632 0.47514 0.13141 0.0
H1069 H 0.85693 0.52467 0.18826 0.0
H1070 H 0.8633 0.52281 0.1579 0.0
H1071 H 0.8359 0.49757 0.1714 0.0
H1072 H 0.82709 0.42898 0.17251 0.0
H1073 H 0.79621 0.40572 0.14213 0.0
loop_
_geom_bond_atom_site_label_1
_geom_bond_atom_site_label_2
_geom_bond_distance
_geom_bond_site_symmetry_2
_ccdc_geom_bond_type
H0 C8 0.930 . S
H1 C11 0.930 . S
H2 C13 0.930 . S
H3 C14 0.970 . S
H4 C14 0.970 . S
H5 C16 0.930 . S
H6 C18 0.930 . S
H7 C20 0.930 . S
C8 H0 0.930 . S
C8 C9 1.382 . S
C8 C10 1.426 . S
C9 C8 1.382 . S
C9 C13 1.389 . S
C10 C8 1.426 . S
C10 C11 1.375 . S
C10 C14 1.532 1_655 S
C11 H1 0.930 . S
C11 C10 1.375 . S
C11 C12 1.416 . S
C12 C11 1.416 . S
C12 C13 1.371 . S
C13 H2 0.930 . S
C13 C9 1.389 . S
C13 C12 1.371 . S
C14 H3 0.970 . S
C14 H4 0.970 . S
C14 C10 1.532 1_455 S
C14 C15 1.499 . S
C15 C14 1.499 . S
C15 C16 1.370 . S
C15 C20 1.415 . S
C16 H5 0.930 . S
C16 C15 1.370 . S
C16 C17 1.407 . S
C17 C16 1.407 . S
C17 C18 1.365 . S
C18 H6 0.930 . S
C18 C17 1.365 . S
C18 C19 1.393 . S
C19 C18 1.393 . S
C19 C20 1.387 . S
C20 H7 0.930 . S
C20 C15 1.415 . S
C20 C19 1.387 . S
H21 C29 0.930 . S
H22 C32 0.930 . S
H23 C34 0.930 . S
H24 C35 0.970 . S
H25 C35 0.970 . S
H26 C37 0.930 . S
H27 C39 0.930 . S
H28 C41 0.930 . S
C29 H21 0.930 . S
C29 C30 1.382 . S
C29 C31 1.426 . S
C30 C29 1.382 . S
C30 C34 1.389 . S
C31 C29 1.426 . S
C31 C32 1.375 . S
C31 C35 1.532 1_565 S
C32 H22 0.930 . S
C32 C31 1.375 . S
C32 C33 1.416 . S
C33 C32 1.416 . S
C33 C34 1.371 . S
C34 H23 0.930 . S
C34 C30 1.389 . S
C34 C33 1.371 . S
C35 H24 0.970 . S
C35 H25 0.970 . S
C35 C31 1.532 1_545 S
C35 C36 1.499 . S
C36 C35 1.499 . S
C36 C37 1.370 . S
C36 C41 1.415 . S
C37 H26 0.930 . S
C37 C36 1.370 . S
C37 C38 1.407 . S
C38 C37 1.407 . S
C38 C39 1.365 . S
C39 H27 0.930 . S
C39 C38 1.365 . S
C39 C40 1.393 . S
C40 C39 1.393 . S
C40 C41 1.387 . S
C41 H28 0.930 . S
C41 C36 1.415 . S
C41 C40 1.387 . S
H42 C50 0.930 . S
H43 C53 0.930 . S
H44 C55 0.930 . S
H45 C56 0.970 . S
H46 C56 0.970 . S
H47 C58 0.930 . S
H48 C60 0.930 . S
H49 C62 0.930 . S
C50 H42 0.930 . S
C50 C51 1.382 . S
C50 C52 1.426 . S
C51 C50 1.382 . S
C51 C55 1.389 . S
C52 C50 1.426 . S
C52 C53 1.375 . S
C52 C56 1.532 . S
C53 H43 0.930 . S
C53 C52 1.375 . S
C53 C54 1.416 . S
C54 C53 1.416 . S
C54 C55 1.371 . S
C55 H44 0.930 . S
C55 C51 1.389 . S
C55 C54 1.371 . S
C56 H45 0.970 . S
C56 H46 0.970 . S
C56 C52 1.532 . S
C56 C57 1.499 . S
C57 C56 1.499 . S
C57 C58 1.370 . S
C57 C62 1.415 . S
C58 H47 0.930 . S
C58 C57 1.370 . S
C58 C59 1.407 . S
C59 C58 1.407 . S
C59 C60 1.365 . S
C60 H48 0.930 . S
C60 C59 1.365 . S
C60 C61 1.393 . S
C61 C60 1.393 . S
C61 C62 1.387 . S
C62 H49 0.930 . S
C62 C57 1.415 . S
C62 C61 1.387 . S
H63 C71 0.930 . S
H64 C74 0.930 . S
H65 C76 0.930 . S
H66 C77 0.970 . S
H67 C77 0.970 . S
H68 C79 0.930 . S
H69 C81 0.930 . S
H70 C83 0.930 . S
C71 H63 0.930 . S
C71 C72 1.382 . S
C71 C73 1.426 . S
C72 C71 1.382 . S
C72 C76 1.389 . S
C73 C71 1.426 . S
C73 C74 1.375 . S
C73 C77 1.532 1_655 S
C74 H64 0.930 . S
C74 C73 1.375 . S
C74 C75 1.416 . S
C75 C74 1.416 . S
C75 C76 1.371 . S
C76 H65 0.930 . S
C76 C72 1.389 . S
C76 C75 1.371 . S
C77 H66 0.970 . S
C77 H67 0.970 . S
C77 C73 1.532 1_455 S
C77 C78 1.499 . S
C78 C77 1.499 . S
C78 C79 1.370 . S
C78 C83 1.415 . S
C79 H68 0.930 . S
C79 C78 1.370 . S
C79 C80 1.407 . S
C80 C79 1.407 . S
C80 C81 1.365 . S
C81 H69 0.930 . S
C81 C80 1.365 . S
C81 C82 1.393 . S
C82 C81 1.393 . S
C82 C83 1.387 . S
C83 H70 0.930 . S
C83 C78 1.415 . S
C83 C82 1.387 . S
H84 C92 0.930 . S
H85 C95 0.930 . S
H86 C97 0.930 . S
H87 C98 0.970 1_554 S
H88 C98 0.970 . S
H89 C100 0.930 . S
H90 C102 0.930 . S
H91 C104 0.930 . S
C92 H84 0.930 . S
C92 C93 1.382 1_554 S
C92 C94 1.426 1_554 S
C93 C92 1.382 1_556 S
C93 C97 1.389 . S
C94 C92 1.426 1_556 S
C94 C95 1.375 . S
C94 C98 1.532 . S
C95 H85 0.930 . S
C95 C94 1.375 . S
C95 C96 1.416 . S
C96 C95 1.416 . S
C96 C97 1.371 . S
C97 H86 0.930 . S
C97 C93 1.389 . S
C97 C96 1.371 . S
C98 H87 0.970 1_556 S
C98 H88 0.970 . S
C98 C94 1.532 . S
C98 C99 1.499 1_545 S
C99 C98 1.499 1_565 S
C99 C100 1.370 1_556 S
C99 C104 1.415 . S
C100 H89 0.930 . S
C100 C99 1.370 1_554 S
C100 C101 1.407 . S
C101 C100 1.407 . S
C101 C102 1.365 . S
C102 H90 0.930 . S
C102 C101 1.365 . S
C102 C103 1.393 1_554 S
C103 C102 1.393 1_556 S
C103 C104 1.387 . S
C104 H91 0.930 . S
C104 C99 1.415 . S
C104 C103 1.387 . S
H105 C113 0.930 . S
H106 C116 0.930 . S
H107 C118 0.930 . S
H108 C119 0.970 . S
H109 C119 0.970 . S
H110 C121 0.930 . S
H111 C123 0.930 . S
H112 C125 0.930 . S
C113 H105 0.930 . S
C113 C114 1.382 . S
C113 C115 1.426 . S
C114 C113 1.382 . S
C114 C118 1.389 . S
C115 C113 1.426 . S
C115 C116 1.375 . S
C115 C119 1.532 . S
C116 H106 0.930 . S
C116 C115 1.375 . S
C116 C117 1.416 . S
C117 C116 1.416 . S
C117 C118 1.371 . S
C118 H107 0.930 . S
C118 C114 1.389 . S
C118 C117 1.371 . S
C119 H108 0.970 . S
C119 H109 0.970 . S
C119 C115 1.532 . S
C119 C120 1.499 . S
C120 C119 1.499 . S
C120 C121 1.370 . S
C120 C125 1.415 . S
C121 H110 0.930 . S
C121 C120 1.370 . S
C121 C122 1.407 . S
C122 C121 1.407 . S
C122 C123 1.365 . S
C123 H111 0.930 . S
C123 C122 1.365 . S
C123 C124 1.393 . S
C124 C123 1.393 . S
C124 C125 1.387 . S
C125 H112 0.930 . S
C125 C120 1.415 . S
C125 C124 1.387 . S
O126 Cd127 2.223 . S
O126 C134 1.315 . S
Cd127 O126 2.223 . S
Cd127 O130 2.297 . S
Cd127 O131 2.439 . S
Cd127 O137 2.240 . S
Cd128 O129 2.240 . S
Cd128 O136 2.223 . S
Cd128 O138 2.297 . S
Cd128 O139 2.439 . S
O129 Cd128 2.240 . S
O129 C134 1.279 . S
O130 Cd127 2.297 . S
O130 C132 1.247 . S
O131 Cd127 2.439 . S
O131 C132 1.208 . S
C132 O130 1.247 . S
C132 O131 1.208 . S
C133 O138 1.247 . S
C133 O139 1.208 . S
C134 O126 1.315 . S
C134 O129 1.279 . S
C135 O136 1.315 . S
C135 O137 1.279 . S
O136 Cd128 2.223 . S
O136 C135 1.315 . S
O137 Cd127 2.240 . S
O137 C135 1.279 . S
O138 Cd128 2.297 . S
O138 C133 1.247 . S
O139 Cd128 2.439 . S
O139 C133 1.208 . S
O140 Cd141 2.223 . S
O140 C148 1.315 . S
Cd141 O140 2.223 . S
Cd141 O144 2.297 . S
Cd141 O145 2.439 . S
Cd141 O151 2.240 . S
Cd142 O143 2.240 . S
Cd142 O150 2.223 . S
Cd142 O152 2.297 . S
Cd142 O153 2.439 . S
O143 Cd142 2.240 . S
O143 C148 1.279 . S
O144 Cd141 2.297 . S
O144 C146 1.247 . S
O145 Cd141 2.439 . S
O145 C146 1.208 . S
C146 O144 1.247 . S
C146 O145 1.208 . S
C147 O152 1.247 . S
C147 O153 1.208 . S
C148 O140 1.315 . S
C148 O143 1.279 . S
C149 O150 1.315 . S
C149 O151 1.279 . S
O150 Cd142 2.223 . S
O150 C149 1.315 . S
O151 Cd141 2.240 . S
O151 C149 1.279 . S
O152 Cd142 2.297 . S
O152 C147 1.247 . S
O153 Cd142 2.439 . S
O153 C147 1.208 . S
O154 Cd155 2.223 . S
O154 C162 1.315 . S
Cd155 O154 2.223 . S
Cd155 O158 2.297 . S
Cd155 O159 2.439 . S
Cd155 O165 2.240 . S
Cd156 O157 2.240 . S
Cd156 O164 2.223 . S
Cd156 O166 2.297 . S
Cd156 O167 2.439 . S
O157 Cd156 2.240 . S
O157 C162 1.279 . S
O158 Cd155 2.297 . S
O158 C160 1.247 . S
O159 Cd155 2.439 . S
O159 C160 1.208 . S
C160 O158 1.247 . S
C160 O159 1.208 . S
C161 O166 1.247 . S
C161 O167 1.208 . S
C162 O154 1.315 . S
C162 O157 1.279 . S
C163 O164 1.315 . S
C163 O165 1.279 . S
O164 Cd156 2.223 . S
O164 C163 1.315 . S
O165 Cd155 2.240 . S
O165 C163 1.279 . S
O166 Cd156 2.297 . S
O166 C161 1.247 . S
O167 Cd156 2.439 . S
O167 C161 1.208 . S
O168 Cd169 2.223 . S
O168 C176 1.315 . S
Cd169 O168 2.223 . S
Cd169 O172 2.297 . S
Cd169 O173 2.439 . S
Cd169 O179 2.240 . S
Cd170 O171 2.240 . S
Cd170 O178 2.223 . S
Cd170 O180 2.297 . S
Cd170 O181 2.439 . S
O171 Cd170 2.240 . S
O171 C176 1.279 . S
O172 Cd169 2.297 . S
O172 C174 1.247 . S
O173 Cd169 2.439 . S
O173 C174 1.208 . S
C174 O172 1.247 . S
C174 O173 1.208 . S
C175 O180 1.247 . S
C175 O181 1.208 . S
C176 O168 1.315 . S
C176 O171 1.279 . S
C177 O178 1.315 . S
C177 O179 1.279 . S
O178 Cd170 2.223 . S
O178 C177 1.315 . S
O179 Cd169 2.240 . S
O179 C177 1.279 . S
O180 Cd170 2.297 . S
O180 C175 1.247 . S
O181 Cd170 2.439 . S
O181 C175 1.208 . S
O182 Cd183 2.223 . S
O182 C190 1.315 . S
Cd183 O182 2.223 . S
Cd183 O186 2.297 . S
Cd183 O187 2.439 . S
Cd183 O193 2.240 . S
Cd184 O185 2.240 . S
Cd184 O192 2.223 . S
Cd184 O194 2.297 . S
Cd184 O195 2.439 . S
O185 Cd184 2.240 . S
O185 C190 1.279 . S
O186 Cd183 2.297 . S
O186 C188 1.247 . S
O187 Cd183 2.439 . S
O187 C188 1.208 . S
C188 O186 1.247 . S
C188 O187 1.208 . S
C189 O194 1.247 . S
C189 O195 1.208 . S
C190 O182 1.315 . S
C190 O185 1.279 . S
C191 O192 1.315 . S
C191 O193 1.279 . S
O192 Cd184 2.223 . S
O192 C191 1.315 . S
O193 Cd183 2.240 . S
O193 C191 1.279 . S
O194 Cd184 2.297 . S
O194 C189 1.247 . S
O195 Cd184 2.439 . S
O195 C189 1.208 . S
O196 Cd197 2.223 . S
O196 C204 1.315 . S
Cd197 O196 2.223 . S
Cd197 O200 2.297 . S
Cd197 O201 2.439 . S
Cd197 O207 2.240 . S
Cd198 O199 2.240 . S
Cd198 O206 2.223 . S
Cd198 O208 2.297 . S
Cd198 O209 2.439 . S
O199 Cd198 2.240 . S
O199 C204 1.279 . S
O200 Cd197 2.297 . S
O200 C202 1.247 . S
O201 Cd197 2.439 . S
O201 C202 1.208 . S
C202 O200 1.247 . S
C202 O201 1.208 . S
C203 O208 1.247 . S
C203 O209 1.208 . S
C204 O196 1.315 . S
C204 O199 1.279 . S
C205 O206 1.315 . S
C205 O207 1.279 . S
O206 Cd198 2.223 . S
O206 C205 1.315 . S
O207 Cd197 2.240 . S
O207 C205 1.279 . S
O208 Cd198 2.297 . S
O208 C203 1.247 . S
O209 Cd198 2.439 . S
O209 C203 1.208 . S
H210 C218 0.929 . S
H211 C220 0.930 . S
H212 C222 0.930 . S
H213 C225 0.929 . S
H214 C228 0.930 . S
H215 C230 0.960 . S
H216 C230 0.960 . S
H217 C230 0.960 . S
C218 H210 0.929 . S
C218 C219 1.377 . S
C218 C220 1.384 . S
C219 C218 1.377 . S
C219 C225 1.390 . S
C220 H211 0.930 . S
C220 C218 1.384 . S
C220 C221 1.372 . S
C221 C220 1.372 . S
C221 C222 1.400 . S
C221 C226 1.490 . S
C222 H212 0.930 . S
C222 C221 1.400 . S
C222 C225 1.386 . S
H223 C239 0.930 . S
H224 C240 0.931 . S
C225 H213 0.929 . S
C225 C219 1.390 . S
C225 C222 1.386 . S
C226 C221 1.490 . S
C226 C228 1.395 . S
C226 C229 1.403 . S
H227 C233 0.930 . S
C228 H214 0.930 . S
C228 C226 1.395 . S
C228 C231 1.403 . S
C229 C226 1.403 . S
C229 C230 1.524 . S
C229 C233 1.400 . S
C230 H215 0.960 . S
C230 H216 0.960 . S
C230 H217 0.960 . S
C230 C229 1.524 . S
C231 C228 1.403 . S
C231 C232 1.392 . S
C231 C235 1.495 . S
C232 C231 1.392 . S
C232 C233 1.385 . S
C232 C234 1.478 . S
C233 H227 0.930 . S
C233 C229 1.400 . S
C233 C232 1.385 . S
C234 C232 1.478 . S
C234 C236 1.381 . S
C234 C240 1.383 . S
C235 C231 1.495 . S
C235 H241 0.959 . S
C235 H242 0.961 . S
C235 H243 0.960 . S
C236 C234 1.381 . S
C236 C237 1.394 . S
C236 H244 0.930 . S
C237 C236 1.394 . S
C237 C238 1.383 . S
C237 H245 0.929 . S
C238 C237 1.383 . S
C238 C239 1.377 . S
C239 H223 0.930 . S
C239 C238 1.377 . S
C239 C240 1.379 . S
C240 H224 0.931 . S
C240 C234 1.383 . S
C240 C239 1.379 . S
H241 C235 0.959 . S
H242 C235 0.961 . S
H243 C235 0.960 . S
H244 C236 0.930 . S
H245 C237 0.929 . S
H246 C254 0.929 . S
H247 C256 0.930 . S
H248 C258 0.930 . S
H249 C261 0.929 . S
H250 C264 0.930 . S
H251 C266 0.960 . S
H252 C266 0.960 . S
H253 C266 0.960 . S
C254 H246 0.929 . S
C254 C255 1.377 . S
C254 C256 1.384 . S
C255 C254 1.377 . S
C255 C261 1.390 . S
C256 H247 0.930 . S
C256 C254 1.384 . S
C256 C257 1.372 . S
C257 C256 1.372 . S
C257 C258 1.400 . S
C257 C262 1.490 . S
C258 H248 0.930 . S
C258 C257 1.400 . S
C258 C261 1.386 . S
H259 C275 0.930 . S
H260 C276 0.931 . S
C261 H249 0.929 . S
C261 C255 1.390 . S
C261 C258 1.386 . S
C262 C257 1.490 . S
C262 C264 1.395 . S
C262 C265 1.403 . S
H263 C269 0.930 . S
C264 H250 0.930 . S
C264 C262 1.395 . S
C264 C267 1.403 . S
C265 C262 1.403 . S
C265 C266 1.524 . S
C265 C269 1.400 . S
C266 H251 0.960 . S
C266 H252 0.960 . S
C266 H253 0.960 . S
C266 C265 1.524 . S
C267 C264 1.403 . S
C267 C268 1.392 . S
C267 C271 1.495 . S
C268 C267 1.392 . S
C268 C269 1.385 . S
C268 C270 1.478 . S
C269 H263 0.930 . S
C269 C265 1.400 . S
C269 C268 1.385 . S
C270 C268 1.478 . S
C270 C272 1.381 . S
C270 C276 1.383 . S
C271 C267 1.495 . S
C271 H277 0.959 . S
C271 H278 0.961 . S
C271 H279 0.960 . S
C272 C270 1.381 . S
C272 C273 1.394 . S
C272 H280 0.930 . S
C273 C272 1.394 . S
C273 C274 1.383 . S
C273 H281 0.929 . S
C274 C273 1.383 . S
C274 C275 1.377 . S
C275 H259 0.930 . S
C275 C274 1.377 . S
C275 C276 1.379 . S
C276 H260 0.931 . S
C276 C270 1.383 . S
C276 C275 1.379 . S
H277 C271 0.959 . S
H278 C271 0.961 . S
H279 C271 0.960 . S
H280 C272 0.930 . S
H281 C273 0.929 . S
H282 C290 0.929 . S
H283 C292 0.930 . S
H284 C294 0.930 . S
H285 C297 0.929 . S
H286 C300 0.930 . S
H287 C302 0.960 . S
H288 C302 0.960 . S
H289 C302 0.960 . S
C290 H282 0.929 . S
C290 C291 1.377 . S
C290 C292 1.384 . S
C291 C290 1.377 . S
C291 C297 1.390 . S
C292 H283 0.930 . S
C292 C290 1.384 . S
C292 C293 1.372 . S
C293 C292 1.372 . S
C293 C294 1.400 . S
C293 C298 1.490 . S
C294 H284 0.930 . S
C294 C293 1.400 . S
C294 C297 1.386 . S
H295 C311 0.930 . S
H296 C312 0.931 . S
C297 H285 0.929 . S
C297 C291 1.390 . S
C297 C294 1.386 . S
C298 C293 1.490 . S
C298 C300 1.395 . S
C298 C301 1.403 . S
H299 C305 0.930 . S
C300 H286 0.930 . S
C300 C298 1.395 . S
C300 C303 1.403 . S
C301 C298 1.403 . S
C301 C302 1.524 . S
C301 C305 1.400 . S
C302 H287 0.960 . S
C302 H288 0.960 . S
C302 H289 0.960 . S
C302 C301 1.524 . S
C303 C300 1.403 . S
C303 C304 1.392 . S
C303 C307 1.495 . S
C304 C303 1.392 . S
C304 C305 1.385 . S
C304 C306 1.478 . S
C305 H299 0.930 . S
C305 C301 1.400 . S
C305 C304 1.385 . S
C306 C304 1.478 . S
C306 C308 1.381 . S
C306 C312 1.383 . S
C307 C303 1.495 . S
C307 H313 0.959 . S
C307 H314 0.961 . S
C307 H315 0.960 . S
C308 C306 1.381 . S
C308 C309 1.394 . S
C308 H316 0.930 . S
C309 C308 1.394 . S
C309 C310 1.383 . S
C309 H317 0.929 . S
C310 C309 1.383 . S
C310 C311 1.377 . S
C311 H295 0.930 . S
C311 C310 1.377 . S
C311 C312 1.379 . S
C312 H296 0.931 . S
C312 C306 1.383 . S
C312 C311 1.379 . S
H313 C307 0.959 . S
H314 C307 0.961 . S
H315 C307 0.960 . S
H316 C308 0.930 . S
H317 C309 0.929 . S
H318 C326 0.929 . S
H319 C328 0.930 . S
H320 C330 0.930 . S
H321 C333 0.929 . S
H322 C336 0.930 . S
H323 C338 0.960 . S
H324 C338 0.960 . S
H325 C338 0.960 . S
C326 H318 0.929 . S
C326 C327 1.377 . S
C326 C328 1.384 . S
C327 C326 1.377 . S
C327 C333 1.390 . S
C328 H319 0.930 . S
C328 C326 1.384 . S
C328 C329 1.372 . S
C329 C328 1.372 . S
C329 C330 1.400 . S
C329 C334 1.490 . S
C330 H320 0.930 . S
C330 C329 1.400 . S
C330 C333 1.386 . S
H331 C347 0.930 . S
H332 C348 0.931 . S
C333 H321 0.929 . S
C333 C327 1.390 . S
C333 C330 1.386 . S
C334 C329 1.490 . S
C334 C336 1.395 . S
C334 C337 1.403 . S
H335 C341 0.930 . S
C336 H322 0.930 . S
C336 C334 1.395 . S
C336 C339 1.403 . S
C337 C334 1.403 . S
C337 C338 1.524 . S
C337 C341 1.400 . S
C338 H323 0.960 . S
C338 H324 0.960 . S
C338 H325 0.960 . S
C338 C337 1.524 . S
C339 C336 1.403 . S
C339 C340 1.392 . S
C339 C343 1.495 . S
C340 C339 1.392 . S
C340 C341 1.385 . S
C340 C342 1.478 . S
C341 H335 0.930 . S
C341 C337 1.400 . S
C341 C340 1.385 . S
C342 C340 1.478 . S
C342 C344 1.381 . S
C342 C348 1.383 . S
C343 C339 1.495 . S
C343 H349 0.959 . S
C343 H350 0.961 . S
C343 H351 0.960 . S
C344 C342 1.381 . S
C344 C345 1.394 . S
C344 H352 0.930 . S
C345 C344 1.394 . S
C345 C346 1.383 . S
C345 H353 0.929 . S
C346 C345 1.383 . S
C346 C347 1.377 . S
C347 H331 0.930 . S
C347 C346 1.377 . S
C347 C348 1.379 . S
C348 H332 0.931 . S
C348 C342 1.383 . S
C348 C347 1.379 . S
H349 C343 0.959 . S
H350 C343 0.961 . S
H351 C343 0.960 . S
H352 C344 0.930 . S
H353 C345 0.929 . S
H354 C362 0.929 . S
H355 C364 0.930 . S
H356 C366 0.930 . S
H357 C369 0.929 1_554 S
H358 C372 0.930 . S
H359 C374 0.960 1_554 S
H360 C374 0.960 . S
H361 C374 0.960 1_554 S
C362 H354 0.929 . S
C362 C363 1.377 . S
C362 C364 1.384 . S
C363 C362 1.377 . S
C363 C369 1.390 . S
C364 H355 0.930 . S
C364 C362 1.384 . S
C364 C365 1.372 . S
C365 C364 1.372 . S
C365 C366 1.400 . S
C365 C370 1.490 . S
C366 H356 0.930 . S
C366 C365 1.400 . S
C366 C369 1.386 . S
H367 C383 0.930 . S
H368 C384 0.931 . S
C369 H357 0.929 1_556 S
C369 C363 1.390 . S
C369 C366 1.386 . S
C370 C365 1.490 . S
C370 C372 1.395 . S
C370 C373 1.403 . S
H371 C377 0.930 . S
C372 H358 0.930 . S
C372 C370 1.395 . S
C372 C375 1.403 . S
C373 C370 1.403 . S
C373 C374 1.524 . S
C373 C377 1.400 . S
C374 H359 0.960 1_556 S
C374 H360 0.960 . S
C374 H361 0.960 1_556 S
C374 C373 1.524 . S
C375 C372 1.403 . S
C375 C376 1.392 . S
C375 C379 1.495 . S
C376 C375 1.392 . S
C376 C377 1.385 . S
C376 C378 1.478 . S
C377 H371 0.930 . S
C377 C373 1.400 . S
C377 C376 1.385 . S
C378 C376 1.478 . S
C378 C380 1.381 . S
C378 C384 1.383 . S
C379 C375 1.495 . S
C379 H385 0.959 . S
C379 H386 0.961 . S
C379 H387 0.960 . S
C380 C378 1.381 . S
C380 C381 1.394 . S
C380 H388 0.930 . S
C381 C380 1.394 . S
C381 C382 1.383 . S
C381 H389 0.929 . S
C382 C381 1.383 . S
C382 C383 1.377 . S
C383 H367 0.930 . S
C383 C382 1.377 . S
C383 C384 1.379 . S
C384 H368 0.931 . S
C384 C378 1.383 . S
C384 C383 1.379 . S
H385 C379 0.959 . S
H386 C379 0.961 . S
H387 C379 0.960 . S
H388 C380 0.930 . S
H389 C381 0.929 . S
H390 C398 0.929 . S
H391 C400 0.930 . S
H392 C402 0.930 . S
H393 C405 0.929 . S
H394 C408 0.930 . S
H395 C410 0.960 . S
H396 C410 0.960 . S
H397 C410 0.960 . S
C398 H390 0.929 . S
C398 C399 1.377 . S
C398 C400 1.384 . S
C399 C398 1.377 . S
C399 C405 1.390 . S
C400 H391 0.930 . S
C400 C398 1.384 . S
C400 C401 1.372 . S
C401 C400 1.372 . S
C401 C402 1.400 . S
C401 C406 1.490 . S
C402 H392 0.930 . S
C402 C401 1.400 . S
C402 C405 1.386 . S
H403 C419 0.930 . S
H404 C420 0.931 . S
C405 H393 0.929 . S
C405 C399 1.390 . S
C405 C402 1.386 . S
C406 C401 1.490 . S
C406 C408 1.395 . S
C406 C409 1.403 . S
H407 C413 0.930 . S
C408 H394 0.930 . S
C408 C406 1.395 . S
C408 C411 1.403 . S
C409 C406 1.403 . S
C409 C410 1.524 . S
C409 C413 1.400 . S
C410 H395 0.960 . S
C410 H396 0.960 . S
C410 H397 0.960 . S
C410 C409 1.524 . S
C411 C408 1.403 . S
C411 C412 1.392 . S
C411 C415 1.495 . S
C412 C411 1.392 . S
C412 C413 1.385 . S
C412 C414 1.478 . S
C413 H407 0.930 . S
C413 C409 1.400 . S
C413 C412 1.385 . S
C414 C412 1.478 . S
C414 C416 1.381 . S
C414 C420 1.383 . S
C415 C411 1.495 . S
C415 H421 0.959 . S
C415 H422 0.961 . S
C415 H423 0.960 . S
C416 C414 1.381 . S
C416 C417 1.394 . S
C416 H424 0.930 . S
C417 C416 1.394 . S
C417 C418 1.383 . S
C417 H425 0.929 . S
C418 C417 1.383 . S
C418 C419 1.377 . S
C419 H403 0.930 . S
C419 C418 1.377 . S
C419 C420 1.379 . S
C420 H404 0.931 . S
C420 C414 1.383 . S
C420 C419 1.379 . S
H421 C415 0.959 . S
H422 C415 0.961 . S
H423 C415 0.960 . S
H424 C416 0.930 . S
H425 C417 0.929 . S
H426 C434 0.929 . S
H427 C436 0.930 . S
H428 C438 0.930 . S
H429 C441 0.929 . S
H430 C444 0.930 . S
H431 C446 0.960 . S
H432 C446 0.960 . S
H433 C446 0.960 . S
C434 H426 0.929 . S
C434 C435 1.377 . S
C434 C436 1.384 . S
C435 C434 1.377 . S
C435 C441 1.390 . S
C436 H427 0.930 . S
C436 C434 1.384 . S
C436 C437 1.372 . S
C437 C436 1.372 . S
C437 C438 1.400 . S
C437 C442 1.490 . S
C438 H428 0.930 . S
C438 C437 1.400 . S
C438 C441 1.386 . S
H439 C455 0.930 . S
H440 C456 0.931 . S
C441 H429 0.929 . S
C441 C435 1.390 . S
C441 C438 1.386 . S
C442 C437 1.490 . S
C442 C444 1.395 . S
C442 C445 1.403 . S
H443 C449 0.930 . S
C444 H430 0.930 . S
C444 C442 1.395 . S
C444 C447 1.403 . S
C445 C442 1.403 . S
C445 C446 1.524 . S
C445 C449 1.400 . S
C446 H431 0.960 . S
C446 H432 0.960 . S
C446 H433 0.960 . S
C446 C445 1.524 . S
C447 C444 1.403 . S
C447 C448 1.392 . S
C447 C451 1.495 . S
C448 C447 1.392 . S
C448 C449 1.385 . S
C448 C450 1.478 . S
C449 H443 0.930 . S
C449 C445 1.400 . S
C449 C448 1.385 . S
C450 C448 1.478 . S
C450 C452 1.381 . S
C450 C456 1.383 . S
C451 C447 1.495 . S
C451 H457 0.959 . S
C451 H458 0.961 . S
C451 H459 0.960 . S
C452 C450 1.381 . S
C452 C453 1.394 . S
C452 H460 0.930 . S
C453 C452 1.394 . S
C453 C454 1.383 . S
C453 H461 0.929 . S
C454 C453 1.383 . S
C454 C455 1.377 . S
C455 H439 0.930 . S
C455 C454 1.377 . S
C455 C456 1.379 . S
C456 H440 0.931 . S
C456 C450 1.383 . S
C456 C455 1.379 . S
H457 C451 0.959 . S
H458 C451 0.961 . S
H459 C451 0.960 . S
H460 C452 0.930 . S
H461 C453 0.929 . S
H462 C470 0.929 . S
H463 C472 0.930 . S
H464 C474 0.930 . S
H465 C477 0.929 . S
H466 C480 0.930 . S
H467 C482 0.960 . S
H468 C482 0.960 . S
H469 C482 0.960 . S
C470 H462 0.929 . S
C470 C471 1.377 . S
C470 C472 1.384 . S
C471 C470 1.377 . S
C471 C477 1.390 . S
C472 H463 0.930 . S
C472 C470 1.384 . S
C472 C473 1.372 . S
C473 C472 1.372 . S
C473 C474 1.400 . S
C473 C478 1.490 . S
C474 H464 0.930 . S
C474 C473 1.400 . S
C474 C477 1.386 . S
H475 C491 0.930 . S
H476 C492 0.931 . S
C477 H465 0.929 . S
C477 C471 1.390 . S
C477 C474 1.386 . S
C478 C473 1.490 . S
C478 C480 1.395 . S
C478 C481 1.403 . S
H479 C485 0.930 . S
C480 H466 0.930 . S
C480 C478 1.395 . S
C480 C483 1.403 . S
C481 C478 1.403 . S
C481 C482 1.524 . S
C481 C485 1.400 . S
C482 H467 0.960 . S
C482 H468 0.960 . S
C482 H469 0.960 . S
C482 C481 1.524 . S
C483 C480 1.403 . S
C483 C484 1.392 . S
C483 C487 1.495 . S
C484 C483 1.392 . S
C484 C485 1.385 . S
C484 C486 1.478 . S
C485 H479 0.930 . S
C485 C481 1.400 . S
C485 C484 1.385 . S
C486 C484 1.478 . S
C486 C488 1.381 . S
C486 C492 1.383 . S
C487 C483 1.495 . S
C487 H493 0.959 . S
C487 H494 0.961 . S
C487 H495 0.960 . S
C488 C486 1.381 . S
C488 C489 1.394 . S
C488 H496 0.930 . S
C489 C488 1.394 . S
C489 C490 1.383 . S
C489 H497 0.929 . S
C490 C489 1.383 . S
C490 C491 1.377 . S
C491 H475 0.930 . S
C491 C490 1.377 . S
C491 C492 1.379 . S
C492 H476 0.931 . S
C492 C486 1.383 . S
C492 C491 1.379 . S
H493 C487 0.959 . S
H494 C487 0.961 . S
H495 C487 0.960 . S
H496 C488 0.930 . S
H497 C489 0.929 . S
H498 C506 0.929 . S
H499 C508 0.930 . S
H500 C510 0.930 . S
H501 C513 0.929 . S
H502 C516 0.930 . S
H503 C518 0.960 . S
H504 C518 0.960 . S
H505 C518 0.960 . S
C506 H498 0.929 . S
C506 C507 1.377 . S
C506 C508 1.384 . S
C507 C506 1.377 . S
C507 C513 1.390 . S
C508 H499 0.930 . S
C508 C506 1.384 . S
C508 C509 1.372 . S
C509 C508 1.372 . S
C509 C510 1.400 . S
C509 C514 1.490 . S
C510 H500 0.930 . S
C510 C509 1.400 . S
C510 C513 1.386 . S
H511 C527 0.930 . S
H512 C528 0.931 . S
C513 H501 0.929 . S
C513 C507 1.390 . S
C513 C510 1.386 . S
C514 C509 1.490 . S
C514 C516 1.395 . S
C514 C517 1.403 . S
H515 C521 0.930 . S
C516 H502 0.930 . S
C516 C514 1.395 . S
C516 C519 1.403 . S
C517 C514 1.403 . S
C517 C518 1.524 . S
C517 C521 1.400 . S
C518 H503 0.960 . S
C518 H504 0.960 . S
C518 H505 0.960 . S
C518 C517 1.524 . S
C519 C516 1.403 . S
C519 C520 1.392 . S
C519 C523 1.495 . S
C520 C519 1.392 . S
C520 C521 1.385 . S
C520 C522 1.478 . S
C521 H515 0.930 . S
C521 C517 1.400 . S
C521 C520 1.385 . S
C522 C520 1.478 . S
C522 C524 1.381 . S
C522 C528 1.383 . S
C523 C519 1.495 . S
C523 H529 0.959 . S
C523 H530 0.961 . S
C523 H531 0.960 . S
C524 C522 1.381 . S
C524 C525 1.394 . S
C524 H532 0.930 . S
C525 C524 1.394 . S
C525 C526 1.383 . S
C525 H533 0.929 . S
C526 C525 1.383 . S
C526 C527 1.377 . S
C527 H511 0.930 . S
C527 C526 1.377 . S
C527 C528 1.379 . S
C528 H512 0.931 . S
C528 C522 1.383 . S
C528 C527 1.379 . S
H529 C523 0.959 . S
H530 C523 0.961 . S
H531 C523 0.960 . S
H532 C524 0.930 . S
H533 C525 0.929 . S
H534 C542 0.929 . S
H535 C544 0.930 . S
H536 C546 0.930 . S
H537 C549 0.929 . S
H538 C552 0.930 . S
H539 C554 0.960 . S
H540 C554 0.960 . S
H541 C554 0.960 . S
C542 H534 0.929 . S
C542 C543 1.377 1_556 S
C542 C544 1.384 . S
C543 C542 1.377 1_554 S
C543 C549 1.390 . S
C544 H535 0.930 . S
C544 C542 1.384 . S
C544 C545 1.372 1_556 S
C545 C544 1.372 1_554 S
C545 C546 1.400 . S
C545 C550 1.490 . S
C546 H536 0.930 . S
C546 C545 1.400 . S
C546 C549 1.386 . S
H547 C563 0.930 . S
H548 C564 0.931 . S
C549 H537 0.929 . S
C549 C543 1.390 . S
C549 C546 1.386 . S
C550 C545 1.490 . S
C550 C552 1.395 . S
C550 C553 1.403 . S
H551 C557 0.930 . S
C552 H538 0.930 . S
C552 C550 1.395 . S
C552 C555 1.403 . S
C553 C550 1.403 . S
C553 C554 1.524 . S
C553 C557 1.400 . S
C554 H539 0.960 . S
C554 H540 0.960 . S
C554 H541 0.960 . S
C554 C553 1.524 . S
C555 C552 1.403 . S
C555 C556 1.392 . S
C555 C559 1.495 . S
C556 C555 1.392 . S
C556 C557 1.385 . S
C556 C558 1.478 . S
C557 H551 0.930 . S
C557 C553 1.400 . S
C557 C556 1.385 . S
C558 C556 1.478 . S
C558 C560 1.381 . S
C558 C564 1.383 . S
C559 C555 1.495 . S
C559 H565 0.959 . S
C559 H566 0.961 . S
C559 H567 0.935 1_554 S
C560 C558 1.381 . S
C560 C561 1.394 . S
C560 H568 0.930 . S
C561 C560 1.394 . S
C561 C562 1.383 . S
C561 H569 0.929 . S
C562 C561 1.383 . S
C562 C563 1.377 . S
C563 H547 0.930 . S
C563 C562 1.377 . S
C563 C564 1.379 . S
C564 H548 0.931 . S
C564 C558 1.383 . S
C564 C563 1.379 . S
H565 C559 0.959 . S
H566 C559 0.961 . S
H567 C559 0.935 1_556 S
H568 C560 0.930 . S
H569 C561 0.929 . S
H570 C578 0.929 . S
H571 C580 0.930 . S
H572 C582 0.930 . S
H573 C585 0.929 . S
H574 C588 0.930 . S
H575 C590 0.960 . S
H576 C590 0.960 . S
H577 C590 0.960 . S
C578 H570 0.929 . S
C578 C579 1.377 . S
C578 C580 1.384 . S
C579 C578 1.377 . S
C579 C585 1.390 . S
C580 H571 0.930 . S
C580 C578 1.384 . S
C580 C581 1.372 . S
C581 C580 1.372 . S
C581 C582 1.400 . S
C581 C586 1.490 . S
C582 H572 0.930 . S
C582 C581 1.400 . S
C582 C585 1.386 . S
H583 C599 0.930 . S
H584 C600 0.931 . S
C585 H573 0.929 . S
C585 C579 1.390 . S
C585 C582 1.386 . S
C586 C581 1.490 . S
C586 C588 1.395 . S
C586 C589 1.403 . S
H587 C593 0.930 . S
C588 H574 0.930 . S
C588 C586 1.395 . S
C588 C591 1.403 . S
C589 C586 1.403 . S
C589 C590 1.524 . S
C589 C593 1.400 . S
C590 H575 0.960 . S
C590 H576 0.960 . S
C590 H577 0.960 . S
C590 C589 1.524 . S
C591 C588 1.403 . S
C591 C592 1.392 . S
C591 C595 1.495 . S
C592 C591 1.392 . S
C592 C593 1.385 . S
C592 C594 1.478 . S
C593 H587 0.930 . S
C593 C589 1.400 . S
C593 C592 1.385 . S
C594 C592 1.478 . S
C594 C596 1.381 . S
C594 C600 1.383 . S
C595 C591 1.495 . S
C595 H601 0.959 . S
C595 H602 0.961 . S
C595 H603 0.960 . S
C596 C594 1.381 . S
C596 C597 1.394 . S
C596 H604 0.930 . S
C597 C596 1.394 . S
C597 C598 1.383 . S
C597 H605 0.929 . S
C598 C597 1.383 . S
C598 C599 1.377 . S
C599 H583 0.930 . S
C599 C598 1.377 . S
C599 C600 1.379 . S
C600 H584 0.931 . S
C600 C594 1.383 . S
C600 C599 1.379 . S
H601 C595 0.959 . S
H602 C595 0.961 . S
H603 C595 0.960 . S
H604 C596 0.930 . S
H605 C597 0.929 . S
H606 C614 0.929 . S
H607 C616 0.930 . S
H608 C618 0.930 . S
H609 C621 0.929 . S
H610 C624 0.930 . S
H611 C626 0.960 . S
H612 C626 0.960 . S
H613 C626 0.960 . S
C614 H606 0.929 . S
C614 C615 1.377 . S
C614 C616 1.384 . S
C615 C614 1.377 . S
C615 C621 1.390 . S
C616 H607 0.930 . S
C616 C614 1.384 . S
C616 C617 1.372 . S
C617 C616 1.372 . S
C617 C618 1.400 . S
C617 C622 1.490 . S
C618 H608 0.930 . S
C618 C617 1.400 . S
C618 C621 1.386 . S
H619 C635 0.930 . S
H620 C636 0.931 . S
C621 H609 0.929 . S
C621 C615 1.390 . S
C621 C618 1.386 . S
C622 C617 1.490 . S
C622 C624 1.395 . S
C622 C625 1.403 . S
H623 C629 0.930 . S
C624 H610 0.930 . S
C624 C622 1.395 . S
C624 C627 1.403 . S
C625 C622 1.403 . S
C625 C626 1.524 . S
C625 C629 1.400 . S
C626 H611 0.960 . S
C626 H612 0.960 . S
C626 H613 0.960 . S
C626 C625 1.524 . S
C627 C624 1.403 . S
C627 C628 1.392 . S
C627 C631 1.495 . S
C628 C627 1.392 . S
C628 C629 1.385 . S
C628 C630 1.478 . S
C629 H623 0.930 . S
C629 C625 1.400 . S
C629 C628 1.385 . S
C630 C628 1.478 . S
C630 C632 1.381 . S
C630 C636 1.383 . S
C631 C627 1.495 . S
C631 H637 0.959 . S
C631 H638 0.961 . S
C631 H639 0.960 . S
C632 C630 1.381 . S
C632 C633 1.394 . S
C632 H640 0.930 . S
C633 C632 1.394 . S
C633 C634 1.383 . S
C633 H641 0.929 . S
C634 C633 1.383 . S
C634 C635 1.377 . S
C635 H619 0.930 . S
C635 C634 1.377 . S
C635 C636 1.379 . S
C636 H620 0.931 . S
C636 C630 1.383 . S
C636 C635 1.379 . S
H637 C631 0.959 . S
H638 C631 0.961 . S
H639 C631 0.960 . S
H640 C632 0.930 . S
H641 C633 0.929 . S
H642 C650 0.929 . S
H643 C652 0.930 . S
H644 C654 0.930 . S
H645 C657 0.929 . S
H646 C660 0.930 . S
H647 C662 0.960 . S
H648 C662 0.960 . S
H649 C662 0.960 . S
C650 H642 0.929 . S
C650 C651 1.377 . S
C650 C652 1.384 . S
C651 C650 1.377 . S
C651 C657 1.390 . S
C652 H643 0.930 . S
C652 C650 1.384 . S
C652 C653 1.372 . S
C653 C652 1.372 . S
C653 C654 1.400 . S
C653 C658 1.490 . S
C654 H644 0.930 . S
C654 C653 1.400 . S
C654 C657 1.386 . S
H655 C671 0.930 . S
H656 C672 0.931 . S
C657 H645 0.929 . S
C657 C651 1.390 . S
C657 C654 1.386 . S
C658 C653 1.490 . S
C658 C660 1.395 . S
C658 C661 1.403 . S
H659 C665 0.930 . S
C660 H646 0.930 . S
C660 C658 1.395 . S
C660 C663 1.403 . S
C661 C658 1.403 . S
C661 C662 1.524 . S
C661 C665 1.400 . S
C662 H647 0.960 . S
C662 H648 0.960 . S
C662 H649 0.960 . S
C662 C661 1.524 . S
C663 C660 1.403 . S
C663 C664 1.392 . S
C663 C667 1.495 . S
C664 C663 1.392 . S
C664 C665 1.385 . S
C664 C666 1.478 . S
C665 H659 0.930 . S
C665 C661 1.400 . S
C665 C664 1.385 . S
C666 C664 1.478 . S
C666 C668 1.381 . S
C666 C672 1.383 . S
C667 C663 1.495 . S
C667 H673 0.959 . S
C667 H674 0.961 . S
C667 H675 0.960 . S
C668 C666 1.381 . S
C668 C669 1.394 . S
C668 H676 0.930 . S
C669 C668 1.394 . S
C669 C670 1.383 . S
C669 H677 0.929 . S
C670 C669 1.383 . S
C670 C671 1.377 . S
C671 H655 0.930 . S
C671 C670 1.377 . S
C671 C672 1.379 . S
C672 H656 0.931 . S
C672 C666 1.383 . S
C672 C671 1.379 . S
H673 C667 0.959 . S
H674 C667 0.961 . S
H675 C667 0.960 . S
H676 C668 0.930 . S
H677 C669 0.929 . S
H678 C686 0.929 . S
H679 C688 0.930 . S
H680 C690 0.930 . S
H681 C693 0.929 . S
H682 C696 0.930 . S
H683 C698 0.960 . S
H684 C698 0.960 . S
H685 C698 0.960 . S
C686 H678 0.929 . S
C686 C687 1.377 . S
C686 C688 1.384 . S
C687 C686 1.377 . S
C687 C693 1.390 . S
C688 H679 0.930 . S
C688 C686 1.384 . S
C688 C689 1.372 . S
C689 C688 1.372 . S
C689 C690 1.400 . S
C689 C694 1.490 . S
C690 H680 0.930 . S
C690 C689 1.400 . S
C690 C693 1.386 . S
H691 C707 0.930 . S
H692 C708 0.931 . S
C693 H681 0.929 . S
C693 C687 1.390 . S
C693 C690 1.386 . S
C694 C689 1.490 . S
C694 C696 1.395 . S
C694 C697 1.403 . S
H695 C701 0.930 . S
C696 H682 0.930 . S
C696 C694 1.395 . S
C696 C699 1.403 . S
C697 C694 1.403 . S
C697 C698 1.524 . S
C697 C701 1.400 . S
C698 H683 0.960 . S
C698 H684 0.960 . S
C698 H685 0.960 . S
C698 C697 1.524 . S
C699 C696 1.403 . S
C699 C700 1.392 . S
C699 C703 1.495 . S
C700 C699 1.392 . S
C700 C701 1.385 . S
C700 C702 1.478 . S
C701 H695 0.930 . S
C701 C697 1.400 . S
C701 C700 1.385 . S
C702 C700 1.478 . S
C702 C704 1.381 . S
C702 C708 1.383 . S
C703 C699 1.495 . S
C703 H709 0.959 . S
C703 H710 0.961 . S
C703 H711 0.960 . S
C704 C702 1.381 . S
C704 C705 1.394 . S
C704 H712 0.930 . S
C705 C704 1.394 . S
C705 C706 1.383 . S
C705 H713 0.929 . S
C706 C705 1.383 . S
C706 C707 1.377 . S
C707 H691 0.930 . S
C707 C706 1.377 . S
C707 C708 1.379 . S
C708 H692 0.931 . S
C708 C702 1.383 . S
C708 C707 1.379 . S
H709 C703 0.959 . S
H710 C703 0.961 . S
H711 C703 0.960 . S
H712 C704 0.930 . S
H713 C705 0.929 . S
H714 C722 0.929 . S
H715 C724 0.930 . S
H716 C726 0.930 . S
H717 C729 0.929 . S
H718 C732 0.930 . S
H719 C734 0.960 . S
H720 C734 0.960 . S
H721 C734 0.960 . S
C722 H714 0.929 . S
C722 C723 1.377 . S
C722 C724 1.384 . S
C723 C722 1.377 . S
C723 C729 1.390 . S
C724 H715 0.930 . S
C724 C722 1.384 . S
C724 C725 1.372 . S
C725 C724 1.372 . S
C725 C726 1.400 . S
C725 C730 1.490 . S
C726 H716 0.930 . S
C726 C725 1.400 . S
C726 C729 1.386 . S
H727 C743 0.930 . S
H728 C744 0.931 . S
C729 H717 0.929 . S
C729 C723 1.390 . S
C729 C726 1.386 . S
C730 C725 1.490 . S
C730 C732 1.395 . S
C730 C733 1.403 . S
H731 C737 0.930 . S
C732 H718 0.930 . S
C732 C730 1.395 . S
C732 C735 1.403 . S
C733 C730 1.403 . S
C733 C734 1.524 . S
C733 C737 1.400 . S
C734 H719 0.960 . S
C734 H720 0.960 . S
C734 H721 0.960 . S
C734 C733 1.524 . S
C735 C732 1.403 . S
C735 C736 1.392 . S
C735 C739 1.495 . S
C736 C735 1.392 . S
C736 C737 1.385 . S
C736 C738 1.478 . S
C737 H731 0.930 . S
C737 C733 1.400 . S
C737 C736 1.385 . S
C738 C736 1.478 . S
C738 C740 1.381 . S
C738 C744 1.383 . S
C739 C735 1.495 . S
C739 H745 0.959 . S
C739 H746 0.961 . S
C739 H747 0.960 . S
C740 C738 1.381 . S
C740 C741 1.394 . S
C740 H748 0.930 . S
C741 C740 1.394 . S
C741 C742 1.383 . S
C741 H749 0.929 . S
C742 C741 1.383 . S
C742 C743 1.377 . S
C743 H727 0.930 . S
C743 C742 1.377 . S
C743 C744 1.379 . S
C744 H728 0.931 . S
C744 C738 1.383 . S
C744 C743 1.379 . S
H745 C739 0.959 . S
H746 C739 0.961 . S
H747 C739 0.960 . S
H748 C740 0.930 . S
H749 C741 0.929 . S
H750 C758 0.929 . S
H751 C760 0.930 . S
H752 C762 0.930 . S
H753 C765 0.929 . S
H754 C768 0.930 . S
H755 C770 0.960 . S
H756 C770 0.960 . S
H757 C770 0.960 . S
C758 H750 0.929 . S
C758 C759 1.377 . S
C758 C760 1.384 . S
C759 C758 1.377 . S
C759 C765 1.390 . S
C760 H751 0.930 . S
C760 C758 1.384 . S
C760 C761 1.372 . S
C761 C760 1.372 . S
C761 C762 1.400 . S
C761 C766 1.490 . S
C762 H752 0.930 . S
C762 C761 1.400 . S
C762 C765 1.386 . S
H763 C779 0.930 1_556 S
H764 C780 0.931 . S
C765 H753 0.929 . S
C765 C759 1.390 . S
C765 C762 1.386 . S
C766 C761 1.490 . S
C766 C768 1.395 . S
C766 C769 1.403 . S
H767 C773 0.930 . S
C768 H754 0.930 . S
C768 C766 1.395 . S
C768 C771 1.403 . S
C769 C766 1.403 . S
C769 C770 1.524 . S
C769 C773 1.400 . S
C770 H755 0.960 . S
C770 H756 0.960 . S
C770 H757 0.960 . S
C770 C769 1.524 . S
C771 C768 1.403 . S
C771 C772 1.392 . S
C771 C775 1.495 . S
C772 C771 1.392 . S
C772 C773 1.385 . S
C772 C774 1.478 . S
C773 H767 0.930 . S
C773 C769 1.400 . S
C773 C772 1.385 . S
C774 C772 1.478 . S
C774 C776 1.381 1_556 S
C774 C780 1.383 . S
C775 C771 1.495 . S
C775 H781 0.959 . S
C775 H782 0.961 . S
C775 H783 0.960 1_556 S
C776 C774 1.381 1_554 S
C776 C777 1.394 . S
C776 H784 0.930 . S
C777 C776 1.394 . S
C777 C778 1.383 . S
C777 H785 0.929 . S
C778 C777 1.383 . S
C778 C779 1.377 . S
C779 H763 0.930 1_554 S
C779 C778 1.377 . S
C779 C780 1.379 1_554 S
C780 H764 0.931 . S
C780 C774 1.383 . S
C780 C779 1.379 1_556 S
H781 C775 0.959 . S
H782 C775 0.961 . S
H783 C775 0.960 1_554 S
H784 C776 0.930 . S
H785 C777 0.929 . S
H786 C794 0.929 . S
H787 C796 0.930 . S
H788 C798 0.930 . S
H789 C801 0.929 . S
H790 C804 0.930 . S
H791 C806 0.960 . S
H792 C806 0.960 . S
H793 C806 0.960 . S
C794 H786 0.929 . S
C794 C795 1.377 . S
C794 C796 1.384 . S
C795 C794 1.377 . S
C795 C801 1.390 . S
C796 H787 0.930 . S
C796 C794 1.384 . S
C796 C797 1.372 . S
C797 C796 1.372 . S
C797 C798 1.400 . S
C797 C802 1.490 . S
C798 H788 0.930 . S
C798 C797 1.400 . S
C798 C801 1.386 . S
H799 C815 0.930 . S
H800 C816 0.931 . S
C801 H789 0.929 . S
C801 C795 1.390 . S
C801 C798 1.386 . S
C802 C797 1.490 . S
C802 C804 1.395 . S
C802 C805 1.403 . S
H803 C809 0.930 . S
C804 H790 0.930 . S
C804 C802 1.395 . S
C804 C807 1.403 . S
C805 C802 1.403 . S
C805 C806 1.524 . S
C805 C809 1.400 . S
C806 H791 0.960 . S
C806 H792 0.960 . S
C806 H793 0.960 . S
C806 C805 1.524 . S
C807 C804 1.403 . S
C807 C808 1.392 . S
C807 C811 1.495 . S
C808 C807 1.392 . S
C808 C809 1.385 . S
C808 C810 1.478 . S
C809 H803 0.930 . S
C809 C805 1.400 . S
C809 C808 1.385 . S
C810 C808 1.478 . S
C810 C812 1.381 . S
C810 C816 1.383 . S
C811 C807 1.495 . S
C811 H817 0.959 . S
C811 H818 0.961 . S
C811 H819 0.960 . S
C812 C810 1.381 . S
C812 C813 1.394 . S
C812 H820 0.930 . S
C813 C812 1.394 . S
C813 C814 1.383 . S
C813 H821 0.929 . S
C814 C813 1.383 . S
C814 C815 1.377 . S
C815 H799 0.930 . S
C815 C814 1.377 . S
C815 C816 1.379 . S
C816 H800 0.931 . S
C816 C810 1.383 . S
C816 C815 1.379 . S
H817 C811 0.959 . S
H818 C811 0.961 . S
H819 C811 0.960 . S
H820 C812 0.930 . S
H821 C813 0.929 . S
H822 C830 0.929 . S
H823 C832 0.930 . S
H824 C834 0.930 . S
H825 C837 0.929 . S
H826 C840 0.930 . S
H827 C842 0.960 . S
H828 C842 0.960 . S
H829 C842 0.960 . S
C830 H822 0.929 . S
C830 C831 1.377 . S
C830 C832 1.384 . S
C831 C830 1.377 . S
C831 C837 1.390 . S
C832 H823 0.930 . S
C832 C830 1.384 . S
C832 C833 1.372 . S
C833 C832 1.372 . S
C833 C834 1.400 . S
C833 C838 1.490 . S
C834 H824 0.930 . S
C834 C833 1.400 . S
C834 C837 1.386 . S
H835 C851 0.930 . S
H836 C852 0.931 . S
C837 H825 0.929 . S
C837 C831 1.390 . S
C837 C834 1.386 . S
C838 C833 1.490 . S
C838 C840 1.395 . S
C838 C841 1.403 . S
H839 C845 0.930 . S
C840 H826 0.930 . S
C840 C838 1.395 . S
C840 C843 1.403 . S
C841 C838 1.403 . S
C841 C842 1.524 . S
C841 C845 1.400 . S
C842 H827 0.960 . S
C842 H828 0.960 . S
C842 H829 0.960 . S
C842 C841 1.524 . S
C843 C840 1.403 . S
C843 C844 1.392 . S
C843 C847 1.495 . S
C844 C843 1.392 . S
C844 C845 1.385 . S
C844 C846 1.478 . S
C845 H839 0.930 . S
C845 C841 1.400 . S
C845 C844 1.385 . S
C846 C844 1.478 . S
C846 C848 1.381 . S
C846 C852 1.383 . S
C847 C843 1.495 . S
C847 H853 0.959 . S
C847 H854 0.961 . S
C847 H855 0.960 . S
C848 C846 1.381 . S
C848 C849 1.394 . S
C848 H856 0.930 . S
C849 C848 1.394 . S
C849 C850 1.383 . S
C849 H857 0.929 . S
C850 C849 1.383 . S
C850 C851 1.377 . S
C851 H835 0.930 . S
C851 C850 1.377 . S
C851 C852 1.379 . S
C852 H836 0.931 . S
C852 C846 1.383 . S
C852 C851 1.379 . S
H853 C847 0.959 . S
H854 C847 0.961 . S
H855 C847 0.960 . S
H856 C848 0.930 . S
H857 C849 0.929 . S
H858 C866 0.929 . S
H859 C868 0.930 . S
H860 C870 0.930 . S
H861 C873 0.929 . S
H862 C876 0.930 . S
H863 C878 0.960 . S
H864 C878 0.960 . S
H865 C878 0.960 . S
C866 H858 0.929 . S
C866 C867 1.377 . S
C866 C868 1.384 . S
C867 C866 1.377 . S
C867 C873 1.390 . S
C868 H859 0.930 . S
C868 C866 1.384 . S
C868 C869 1.372 . S
C869 C868 1.372 . S
C869 C870 1.400 . S
C869 C874 1.490 . S
C870 H860 0.930 . S
C870 C869 1.400 . S
C870 C873 1.386 . S
H871 C887 0.930 . S
H872 C888 0.931 . S
C873 H861 0.929 . S
C873 C867 1.390 . S
C873 C870 1.386 . S
C874 C869 1.490 . S
C874 C876 1.395 . S
C874 C877 1.403 . S
H875 C881 0.930 . S
C876 H862 0.930 . S
C876 C874 1.395 . S
C876 C879 1.403 . S
C877 C874 1.403 . S
C877 C878 1.524 . S
C877 C881 1.400 . S
C878 H863 0.960 . S
C878 H864 0.960 . S
C878 H865 0.960 . S
C878 C877 1.524 . S
C879 C876 1.403 . S
C879 C880 1.392 . S
C879 C883 1.495 . S
C880 C879 1.392 . S
C880 C881 1.385 . S
C880 C882 1.478 . S
C881 H875 0.930 . S
C881 C877 1.400 . S
C881 C880 1.385 . S
C882 C880 1.478 . S
C882 C884 1.381 . S
C882 C888 1.383 . S
C883 C879 1.495 . S
C883 H889 0.959 . S
C883 H890 0.961 . S
C883 H891 0.960 . S
C884 C882 1.381 . S
C884 C885 1.394 . S
C884 H892 0.930 . S
C885 C884 1.394 . S
C885 C886 1.383 . S
C885 H893 0.929 . S
C886 C885 1.383 . S
C886 C887 1.377 . S
C887 H871 0.930 . S
C887 C886 1.377 . S
C887 C888 1.379 . S
C888 H872 0.931 . S
C888 C882 1.383 . S
C888 C887 1.379 . S
H889 C883 0.959 . S
H890 C883 0.961 . S
H891 C883 0.960 . S
H892 C884 0.930 . S
H893 C885 0.929 . S
H894 C902 0.929 . S
H895 C904 0.930 . S
H896 C906 0.930 . S
H897 C909 0.929 . S
H898 C912 0.930 . S
H899 C914 0.960 . S
H900 C914 0.960 . S
H901 C914 0.960 . S
C902 H894 0.929 . S
C902 C903 1.377 . S
C902 C904 1.384 . S
C903 C902 1.377 . S
C903 C909 1.390 . S
C904 H895 0.930 . S
C904 C902 1.384 . S
C904 C905 1.372 . S
C905 C904 1.372 . S
C905 C906 1.400 . S
C905 C910 1.490 . S
C906 H896 0.930 . S
C906 C905 1.400 . S
C906 C909 1.386 . S
H907 C923 0.930 . S
H908 C924 0.931 . S
C909 H897 0.929 . S
C909 C903 1.390 . S
C909 C906 1.386 . S
C910 C905 1.490 . S
C910 C912 1.395 . S
C910 C913 1.403 . S
H911 C917 0.930 . S
C912 H898 0.930 . S
C912 C910 1.395 . S
C912 C915 1.403 . S
C913 C910 1.403 . S
C913 C914 1.524 . S
C913 C917 1.400 . S
C914 H899 0.960 . S
C914 H900 0.960 . S
C914 H901 0.960 . S
C914 C913 1.524 . S
C915 C912 1.403 . S
C915 C916 1.392 . S
C915 C919 1.495 . S
C916 C915 1.392 . S
C916 C917 1.385 . S
C916 C918 1.478 . S
C917 H911 0.930 . S
C917 C913 1.400 . S
C917 C916 1.385 . S
C918 C916 1.478 . S
C918 C920 1.381 . S
C918 C924 1.383 . S
C919 C915 1.495 . S
C919 H925 0.959 . S
C919 H926 0.961 . S
C919 H927 0.960 . S
C920 C918 1.381 . S
C920 C921 1.394 . S
C920 H928 0.930 . S
C921 C920 1.394 . S
C921 C922 1.383 . S
C921 H929 0.929 . S
C922 C921 1.383 . S
C922 C923 1.377 . S
C923 H907 0.930 . S
C923 C922 1.377 . S
C923 C924 1.379 . S
C924 H908 0.931 . S
C924 C918 1.383 . S
C924 C923 1.379 . S
H925 C919 0.959 . S
H926 C919 0.961 . S
H927 C919 0.960 . S
H928 C920 0.930 . S
H929 C921 0.929 . S
H930 C938 0.929 . S
H931 C940 0.930 . S
H932 C942 0.930 . S
H933 C945 0.929 . S
H934 C948 0.930 . S
H935 C950 0.960 . S
H936 C950 0.960 . S
H937 C950 0.960 . S
C938 H930 0.929 . S
C938 C939 1.377 . S
C938 C940 1.384 . S
C939 C938 1.377 . S
C939 C945 1.390 . S
C940 H931 0.930 . S
C940 C938 1.384 . S
C940 C941 1.372 . S
C941 C940 1.372 . S
C941 C942 1.400 . S
C941 C946 1.490 . S
C942 H932 0.930 . S
C942 C941 1.400 . S
C942 C945 1.386 . S
H943 C959 0.930 . S
H944 C960 0.931 . S
C945 H933 0.929 . S
C945 C939 1.390 . S
C945 C942 1.386 . S
C946 C941 1.490 . S
C946 C948 1.395 . S
C946 C949 1.403 . S
H947 C953 0.930 . S
C948 H934 0.930 . S
C948 C946 1.395 . S
C948 C951 1.403 . S
C949 C946 1.403 . S
C949 C950 1.524 . S
C949 C953 1.400 . S
C950 H935 0.960 . S
C950 H936 0.960 . S
C950 H937 0.960 . S
C950 C949 1.524 . S
C951 C948 1.403 . S
C951 C952 1.392 . S
C951 C955 1.495 . S
C952 C951 1.392 . S
C952 C953 1.385 . S
C952 C954 1.478 . S
C953 H947 0.930 . S
C953 C949 1.400 . S
C953 C952 1.385 . S
C954 C952 1.478 . S
C954 C956 1.381 . S
C954 C960 1.383 . S
C955 C951 1.495 . S
C955 H961 0.959 . S
C955 H962 0.961 . S
C955 H963 0.960 . S
C956 C954 1.381 . S
C956 C957 1.394 . S
C956 H964 0.930 . S
C957 C956 1.394 . S
C957 C958 1.383 . S
C957 H965 0.929 . S
C958 C957 1.383 . S
C958 C959 1.377 . S
C959 H943 0.930 . S
C959 C958 1.377 . S
C959 C960 1.379 . S
C960 H944 0.931 . S
C960 C954 1.383 . S
C960 C959 1.379 . S
H961 C955 0.959 . S
H962 C955 0.961 . S
H963 C955 0.960 . S
H964 C956 0.930 . S
H965 C957 0.929 . S
H966 C974 0.929 . S
H967 C976 0.930 . S
H968 C978 0.930 . S
H969 C981 0.929 . S
H970 C984 0.930 . S
H971 C986 0.960 . S
H972 C986 0.960 . S
H973 C986 0.960 . S
C974 H966 0.929 . S
C974 C975 1.377 . S
C974 C976 1.384 . S
C975 C974 1.377 . S
C975 C981 1.390 . S
C976 H967 0.930 . S
C976 C974 1.384 . S
C976 C977 1.372 . S
C977 C976 1.372 . S
C977 C978 1.400 . S
C977 C982 1.490 . S
C978 H968 0.930 . S
C978 C977 1.400 . S
C978 C981 1.386 . S
H979 C995 0.930 . S
H980 C996 0.931 . S
C981 H969 0.929 . S
C981 C975 1.390 . S
C981 C978 1.386 . S
C982 C977 1.490 . S
C982 C984 1.395 . S
C982 C985 1.403 . S
H983 C989 0.930 . S
C984 H970 0.930 . S
C984 C982 1.395 . S
C984 C987 1.403 . S
C985 C982 1.403 . S
C985 C986 1.524 . S
C985 C989 1.400 . S
C986 H971 0.960 . S
C986 H972 0.960 . S
C986 H973 0.960 . S
C986 C985 1.524 . S
C987 C984 1.403 . S
C987 C988 1.392 . S
C987 C991 1.495 . S
C988 C987 1.392 . S
C988 C989 1.385 . S
C988 C990 1.478 . S
C989 H983 0.930 . S
C989 C985 1.400 . S
C989 C988 1.385 . S
C990 C988 1.478 . S
C990 C992 1.381 . S
C990 C996 1.383 . S
C991 C987 1.495 . S
C991 H997 0.959 . S
C991 H998 0.961 . S
C991 H999 0.960 . S
C992 C990 1.381 . S
C992 C993 1.394 . S
C992 H1000 0.930 . S
C993 C992 1.394 . S
C993 C994 1.383 . S
C993 H1001 0.929 . S
C994 C993 1.383 . S
C994 C995 1.377 . S
C995 H979 0.930 . S
C995 C994 1.377 . S
C995 C996 1.379 . S
C996 H980 0.931 . S
C996 C990 1.383 . S
C996 C995 1.379 . S
H997 C991 0.959 . S
H998 C991 0.961 . S
H999 C991 0.960 . S
H1000 C992 0.930 . S
H1001 C993 0.929 . S
H1002 C1010 0.929 . S
H1003 C1012 0.930 . S
H1004 C1014 0.930 . S
H1005 C1017 0.929 . S
H1006 C1020 0.930 . S
H1007 C1022 0.960 . S
H1008 C1022 0.960 . S
H1009 C1022 0.960 . S
C1010 H1002 0.929 . S
C1010 C1011 1.377 . S
C1010 C1012 1.384 . S
C1011 C1010 1.377 . S
C1011 C1017 1.390 . S
C1012 H1003 0.930 . S
C1012 C1010 1.384 . S
C1012 C1013 1.372 . S
C1013 C1012 1.372 . S
C1013 C1014 1.400 . S
C1013 C1018 1.490 . S
C1014 H1004 0.930 . S
C1014 C1013 1.400 . S
C1014 C1017 1.386 . S
H1015 C1031 0.930 . S
H1016 C1032 0.931 . S
C1017 H1005 0.929 . S
C1017 C1011 1.390 . S
C1017 C1014 1.386 . S
C1018 C1013 1.490 . S
C1018 C1020 1.395 . S
C1018 C1021 1.403 . S
H1019 C1025 0.930 1_556 S
C1020 H1006 0.930 . S
C1020 C1018 1.395 . S
C1020 C1023 1.403 . S
C1021 C1018 1.403 . S
C1021 C1022 1.524 . S
C1021 C1025 1.400 . S
C1022 H1007 0.960 . S
C1022 H1008 0.960 . S
C1022 H1009 0.960 . S
C1022 C1021 1.524 . S
C1023 C1020 1.403 . S
C1023 C1024 1.392 . S
C1023 C1027 1.495 . S
C1024 C1023 1.392 . S
C1024 C1025 1.385 . S
C1024 C1026 1.478 1_554 S
C1025 H1019 0.930 1_554 S
C1025 C1021 1.400 . S
C1025 C1024 1.385 . S
C1026 C1024 1.478 1_556 S
C1026 C1028 1.381 . S
C1026 C1032 1.383 . S
C1027 C1023 1.495 . S
C1027 H1033 0.959 . S
C1027 H1034 0.961 . S
C1027 H1035 0.960 . S
C1028 C1026 1.381 . S
C1028 C1029 1.394 . S
C1028 H1036 0.930 1_556 S
C1029 C1028 1.394 . S
C1029 C1030 1.383 . S
C1029 H1037 0.929 . S
C1030 C1029 1.383 . S
C1030 C1031 1.377 . S
C1031 H1015 0.930 . S
C1031 C1030 1.377 . S
C1031 C1032 1.379 . S
C1032 H1016 0.931 . S
C1032 C1026 1.383 . S
C1032 C1031 1.379 . S
H1033 C1027 0.959 . S
H1034 C1027 0.961 . S
H1035 C1027 0.960 . S
H1036 C1028 0.930 1_554 S
H1037 C1029 0.929 . S
H1038 C1046 0.929 . S
H1039 C1048 0.930 . S
H1040 C1050 0.930 . S
H1041 C1053 0.929 . S
H1042 C1056 0.930 . S
H1043 C1058 0.960 . S
H1044 C1058 0.960 . S
H1045 C1058 0.960 . S
C1046 H1038 0.929 . S
C1046 C1047 1.377 . S
C1046 C1048 1.384 . S
C1047 C1046 1.377 . S
C1047 C1053 1.390 . S
C1048 H1039 0.930 . S
C1048 C1046 1.384 . S
C1048 C1049 1.372 . S
C1049 C1048 1.372 . S
C1049 C1050 1.400 . S
C1049 C1054 1.490 . S
C1050 H1040 0.930 . S
C1050 C1049 1.400 . S
C1050 C1053 1.386 . S
H1051 C1067 0.930 . S
H1052 C1068 0.931 . S
C1053 H1041 0.929 . S
C1053 C1047 1.390 . S
C1053 C1050 1.386 . S
C1054 C1049 1.490 . S
C1054 C1056 1.395 . S
C1054 C1057 1.403 . S
H1055 C1061 0.930 . S
C1056 H1042 0.930 . S
C1056 C1054 1.395 . S
C1056 C1059 1.403 . S
C1057 C1054 1.403 . S
C1057 C1058 1.524 . S
C1057 C1061 1.400 . S
C1058 H1043 0.960 . S
C1058 H1044 0.960 . S
C1058 H1045 0.960 . S
C1058 C1057 1.524 . S
C1059 C1056 1.403 . S
C1059 C1060 1.392 . S
C1059 C1063 1.495 . S
C1060 C1059 1.392 . S
C1060 C1061 1.385 . S
C1060 C1062 1.478 . S
C1061 H1055 0.930 . S
C1061 C1057 1.400 . S
C1061 C1060 1.385 . S
C1062 C1060 1.478 . S
C1062 C1064 1.381 . S
C1062 C1068 1.383 . S
C1063 C1059 1.495 . S
C1063 H1069 0.959 . S
C1063 H1070 0.961 . S
C1063 H1071 0.960 . S
C1064 C1062 1.381 . S
C1064 C1065 1.394 . S
C1064 H1072 0.930 . S
C1065 C1064 1.394 . S
C1065 C1066 1.383 . S
C1065 H1073 0.929 . S
C1066 C1065 1.383 . S
C1066 C1067 1.377 . S
C1067 H1051 0.930 . S
C1067 C1066 1.377 . S
C1067 C1068 1.379 . S
C1068 H1052 0.931 . S
C1068 C1062 1.383 . S
C1068 C1067 1.379 . S
H1069 C1063 0.959 . S
H1070 C1063 0.961 . S
H1071 C1063 0.960 . S
H1072 C1064 0.930 . S
H1073 C1065 0.929 . S
C238 C203 1.481 . S
C219 C19 1.457 . S
C255 C40 1.454 . S
C274 C132 1.511 . S
C291 C51 1.458 . S
C310 C146 1.496 . S
C327 C72 1.450 . S
C346 C160 1.482 . S
C382 C174 1.476 . S
C363 C103 1.456 . S
C399 C114 1.440 . S
C418 C189 1.504 . S
C435 C30 1.452 . S
C454 C147 1.521 . S
C471 C61 1.457 . S
C490 C161 1.478 . S
C507 C82 1.444 . S
C526 C175 1.510 . S
C562 C188 1.523 . S
C543 C93 1.438 1_554 S
C598 C202 1.474 . S
C579 C124 1.458 . S
C634 C133 1.515 . S
C615 C9 1.436 . S
C651 C17 1.487 . S
C670 C149 1.543 . S
C687 C38 1.481 . S
C706 C163 1.535 . S
C742 C177 1.521 . S
C723 C54 1.468 . S
C759 C75 1.480 . S
C778 C190 1.558 . S
C814 C204 1.533 . S
C795 C101 1.471 . S
C850 C135 1.526 . S
C831 C117 1.473 . S
C886 C205 1.537 . S
C867 C33 1.478 . S
C903 C59 1.485 . S
C922 C134 1.548 . S
C958 C148 1.555 . S
C939 C80 1.489 . S
C975 C96 1.467 . S
C994 C162 1.525 . S
C1011 C122 1.479 . S
C1030 C176 1.531 . S
C1047 C12 1.480 . S
C1066 C191 1.534 . S
