# Generated by pormake.
# Topology pyr, (3,6)-cn, num edge types: 1
# Building blocks:
#     Node 0, Type 0, BuildingBlock: BETDAH_clean_linker_0, # of connection points: 3
#     Node 1, Type 0, BuildingBlock: BETDAH_clean_linker_0, # of connection points: 3
#     Node 2, Type 0, BuildingBlock: BETDAH_clean_linker_0, # of connection points: 3
#     Node 3, Type 0, BuildingBlock: BETDAH_clean_linker_0, # of connection points: 3
#     Node 4, Type 0, BuildingBlock: BETDAH_clean_linker_0, # of connection points: 3
#     Node 5, Type 0, BuildingBlock: BETDAH_clean_linker_0, # of connection points: 3
#     Node 6, Type 0, BuildingBlock: BETDAH_clean_linker_0, # of connection points: 3
#     Node 7, Type 0, BuildingBlock: BETDAH_clean_linker_0, # of connection points: 3
#     Node 8, Type 1, BuildingBlock: INOVEN_clean_sbu_0, # of connection points: 6
#     Node 9, Type 1, BuildingBlock: INOVEN_clean_sbu_0, # of connection points: 6
#     Node 10, Type 1, BuildingBlock: INOVEN_clean_sbu_0, # of connection points: 6
#     Node 11, Type 1, BuildingBlock: INOVEN_clean_sbu_0, # of connection points: 6
#     Edge 12, Type (0, 1), BuildingBlock: OJICUG_clean_linker_0, # of connection points: 2
#     Edge 13, Type (0, 1), BuildingBlock: OJICUG_clean_linker_0, # of connection points: 2
#     Edge 14, Type (0, 1), BuildingBlock: OJICUG_clean_linker_0, # of connection points: 2
#     Edge 15, Type (0, 1), BuildingBlock: OJICUG_clean_linker_0, # of connection points: 2
#     Edge 16, Type (0, 1), BuildingBlock: OJICUG_clean_linker_0, # of connection points: 2
#     Edge 17, Type (0, 1), BuildingBlock: OJICUG_clean_linker_0, # of connection points: 2
#     Edge 18, Type (0, 1), BuildingBlock: OJICUG_clean_linker_0, # of connection points: 2
#     Edge 19, Type (0, 1), BuildingBlock: OJICUG_clean_linker_0, # of connection points: 2
#     Edge 20, Type (0, 1), BuildingBlock: OJICUG_clean_linker_0, # of connection points: 2
#     Edge 21, Type (0, 1), BuildingBlock: OJICUG_clean_linker_0, # of connection points: 2
#     Edge 22, Type (0, 1), BuildingBlock: OJICUG_clean_linker_0, # of connection points: 2
#     Edge 23, Type (0, 1), BuildingBlock: OJICUG_clean_linker_0, # of connection points: 2
#     Edge 24, Type (0, 1), BuildingBlock: OJICUG_clean_linker_0, # of connection points: 2
#     Edge 25, Type (0, 1), BuildingBlock: OJICUG_clean_linker_0, # of connection points: 2
#     Edge 26, Type (0, 1), BuildingBlock: OJICUG_clean_linker_0, # of connection points: 2
#     Edge 27, Type (0, 1), BuildingBlock: OJICUG_clean_linker_0, # of connection points: 2
#     Edge 28, Type (0, 1), BuildingBlock: OJICUG_clean_linker_0, # of connection points: 2
#     Edge 29, Type (0, 1), BuildingBlock: OJICUG_clean_linker_0, # of connection points: 2
#     Edge 30, Type (0, 1), BuildingBlock: OJICUG_clean_linker_0, # of connection points: 2
#     Edge 31, Type (0, 1), BuildingBlock: OJICUG_clean_linker_0, # of connection points: 2
#     Edge 32, Type (0, 1), BuildingBlock: OJICUG_clean_linker_0, # of connection points: 2
#     Edge 33, Type (0, 1), BuildingBlock: OJICUG_clean_linker_0, # of connection points: 2
#     Edge 34, Type (0, 1), BuildingBlock: OJICUG_clean_linker_0, # of connection points: 2
#     Edge 35, Type (0, 1), BuildingBlock: OJICUG_clean_linker_0, # of connection points: 2
# Relax obj value: 0.207
# Max RMSD: 0.193
# Mean RMSD: 0.143
data_MOF--net-pyr--node1-INOVEN_clean_sbu_0--node2-BETDAH_clean_linker_0--edge1-OJICUG_clean_linker_0
_symmetry_space_group_name_H-M    P1
_symmetry_Int_Tables_number       1
_symmetry_cell_setting            triclinic
loop_
_symmetry_equiv_pos_as_xyz
'x, y, z'
_cell_length_a     27.302882
_cell_length_b     30.156411
_cell_length_c     27.419264
_cell_angle_alpha  91.760324
_cell_angle_beta   89.810246
_cell_angle_gamma 109.30532
loop_
_atom_site_label
_atom_site_type_symbol
_atom_site_fract_x
_atom_site_fract_y
_atom_site_fract_z
_atom_type_partial_charge
H0 H 0.44536 0.28615 0.33319 0.0
H1 H 0.49884 0.35897 0.2009 0.0
H2 H 0.39662 0.40256 0.29622 0.0
C3 C 0.44816 0.31525 0.30981 0.0
C4 C 0.41941 0.34506 0.32091 0.0
C5 C 0.47592 0.31918 0.26624 0.0
C6 C 0.47852 0.35614 0.2353 0.0
C7 C 0.44984 0.38619 0.24572 0.0
C8 C 0.42006 0.38039 0.28856 0.0
N9 N 0.44778 0.41907 0.21054 0.0
C10 C 0.40289 0.42999 0.20259 0.0
H11 H 0.2643 0.84265 0.8117 0.0
H12 H 0.11978 0.86985 0.79982 0.0
H13 H 0.16697 0.7922 0.68545 0.0
C14 C 0.22812 0.83805 0.79267 0.0
C15 C 0.21915 0.81413 0.74725 0.0
C16 C 0.19236 0.85791 0.81245 0.0
C17 C 0.14748 0.85415 0.78553 0.0
C18 C 0.1384 0.8308 0.7396 0.0
C19 C 0.17347 0.80946 0.72125 0.0
N20 N 0.09655 0.83207 0.7099 0.0
C21 C 0.08407 0.87305 0.70738 0.0
H22 H 0.73677 0.37711 1.01364 0.0
H23 H 0.73657 0.48284 0.9101 0.0
H24 H 0.61049 0.35161 0.91229 0.0
C25 C 0.71874 0.38871 0.98376 0.0
C26 C 0.67107 0.35804 0.96516 0.0
C27 C 0.74372 0.43377 0.96444 0.0
C28 C 0.71859 0.44871 0.92556 0.0
C29 C 0.67025 0.41875 0.90646 0.0
C30 C 0.64764 0.37401 0.92666 0.0
N31 N 0.64126 0.43047 0.86785 0.0
C32 C 0.65135 0.469 0.8369 0.0
H33 H 0.84242 0.79712 0.52161 0.0
H34 H 0.93001 0.82523 0.38913 0.0
H35 H 0.80428 0.69517 0.40192 0.0
C36 C 0.8488 0.78655 0.48477 0.0
C37 C 0.81599 0.74295 0.46521 0.0
C38 C 0.88871 0.81786 0.45765 0.0
C39 C 0.90066 0.80157 0.4115 0.0
C40 C 0.87256 0.75598 0.39211 0.0
C41 C 0.82926 0.72764 0.41883 0.0
N42 N 0.87797 0.74568 0.34104 0.0
C43 C 0.90258 0.71567 0.31886 0.0
H44 H 0.75449 0.81677 0.90394 0.0
H45 H 0.64515 0.77319 1.02051 0.0
H46 H 0.61402 0.8514 0.90272 0.0
C47 C 0.71685 0.81354 0.91934 0.0
C48 C 0.68508 0.83536 0.8971 0.0
C49 C 0.70272 0.79117 0.96372 0.0
C50 C 0.6554 0.78903 0.98534 0.0
C51 C 0.62344 0.81105 0.96359 0.0
C52 C 0.63827 0.83382 0.91928 0.0
N53 N 0.57917 0.81395 0.98881 0.0
C54 C 0.56643 0.8549 0.98855 0.0
H55 H 0.944 0.26291 0.38991 0.0
H56 H 0.97648 0.34861 0.52186 0.0
H57 H 0.89424 0.38381 0.40395 0.0
C58 C 0.9441 0.29443 0.4101 0.0
C59 C 0.91886 0.32356 0.39034 0.0
C60 C 0.96419 0.30258 0.45776 0.0
C61 C 0.9616 0.3421 0.48477 0.0
C62 C 0.93601 0.37111 0.46584 0.0
C63 C 0.91465 0.36178 0.41853 0.0
N64 N 0.92909 0.40739 0.49629 0.0
C65 C 0.88406 0.41917 0.49471 0.0
H66 H 0.34214 0.82354 0.1923 0.0
H67 H 0.34274 0.71683 0.29442 0.0
H68 H 0.46755 0.84894 0.29475 0.0
C69 C 0.36014 0.81181 0.22211 0.0
C70 C 0.4074 0.84271 0.24141 0.0
C71 C 0.33551 0.76631 0.24064 0.0
C72 C 0.36048 0.75123 0.27948 0.0
C73 C 0.40834 0.78132 0.29927 0.0
C74 C 0.43072 0.82646 0.27983 0.0
N75 N 0.43695 0.76919 0.33791 0.0
C76 C 0.42635 0.72995 0.36796 0.0
H77 H 0.23124 0.39569 0.68136 0.0
H78 H 0.26479 0.49739 0.80127 0.0
H79 H 0.13962 0.36638 0.81145 0.0
C80 C 0.22328 0.40599 0.71786 0.0
C81 C 0.18246 0.37449 0.74385 0.0
C82 C 0.25506 0.44974 0.73806 0.0
C83 C 0.2405 0.46478 0.78406 0.0
C84 C 0.19695 0.43572 0.80997 0.0
C85 C 0.16952 0.39029 0.78981 0.0
N86 N 0.18959 0.44499 0.86094 0.0
C87 C 0.17058 0.47894 0.88336 0.0
Gd88 Gd 0.08298 0.10358 0.57421 0.0
Gd89 Gd 0.98601 0.09072 0.62394 0.0
C90 C 0.08534 0.1847 0.65369 0.0
C91 C 0.15647 0.11955 0.51117 0.0
C92 C 0.19504 0.16169 0.49198 0.0
C93 C 0.24508 0.16102 0.48211 0.0
C94 C 0.18275 0.20257 0.48356 0.0
C95 C 0.2697 0.24068 0.4528 0.0
C96 C 0.21976 0.2417 0.46375 0.0
C97 C 0.28214 0.20016 0.46278 0.0
C98 C 0.07252 0.04974 0.65387 0.0
C99 C 0.98416 1.00893 0.54518 0.0
C100 C 0.91131 0.07748 0.68553 0.0
C101 C 0.87144 1.03729 0.70647 0.0
C102 C 0.82186 1.03986 0.71513 0.0
C103 C 0.88259 0.9969 0.71907 0.0
C104 C 0.79627 0.96391 0.75335 0.0
C105 C 0.84543 0.96064 0.74255 0.0
C106 C 0.78445 1.00339 0.73819 0.0
C107 C 0.99604 0.14254 0.54291 0.0
O108 O 0.10864 0.174 0.61495 0.0
O109 O 0.03925 0.15573 0.66663 0.0
O110 O 0.16272 0.11119 0.55683 0.0
O111 O 0.10795 0.11235 0.49926 0.0
O112 O 0.11541 0.08144 0.64132 0.0
O113 O 0.0377 0.04846 0.62348 0.0
O114 O 0.96118 1.01956 0.58429 0.0
O115 O 0.02994 1.0382 0.53176 0.0
O116 O 0.90596 0.08387 0.63919 0.0
O117 O 0.95942 0.08394 0.69841 0.0
O118 O 0.95387 0.11026 0.5558 0.0
O119 O 0.03074 0.14562 0.57411 0.0
H120 H 0.25527 0.12987 0.48862 0.0
H121 H 0.14442 0.20402 0.49163 0.0
H122 H 0.20922 0.27249 0.45648 0.0
H123 H 0.31997 0.19797 0.45388 0.0
H124 H 0.81245 0.07057 0.705 0.0
H125 H 0.92051 0.99397 0.71213 0.0
H126 H 0.85617 0.93109 0.75418 0.0
H127 H 0.7467 1.00662 0.74516 0.0
Gd128 Gd 0.58565 0.10555 0.1251 0.0
Gd129 Gd 0.49048 0.09746 0.08331 0.0
C130 C 0.52689 0.16543 0.17737 0.0
C131 C 0.6824 0.12073 0.14547 0.0
C132 C 0.72385 0.15991 0.16825 0.0
C133 C 0.71704 0.20355 0.17723 0.0
C134 C 0.76835 0.15221 0.18564 0.0
C135 C 0.7969 0.23003 0.22509 0.0
C136 C 0.80467 0.18699 0.21378 0.0
C137 C 0.75337 0.23843 0.20542 0.0
C138 C 0.5079 1.03311 0.16577 0.0
C139 C 0.54634 1.03295 1.03354 0.0
C140 C 0.39518 0.08734 0.06071 0.0
C141 C 0.35242 0.05285 1.03313 0.0
C142 C 0.33715 0.06554 0.98837 0.0
C143 C 0.32841 1.00697 1.04925 0.0
C144 C 0.27882 0.98568 0.97339 0.0
C145 C 0.29171 0.97376 1.01973 0.0
C146 C 0.30114 1.03232 0.95865 0.0
C147 C 0.56924 0.1693 1.0434 0.0
O148 O 0.57392 0.1669 0.16541 0.0
O149 O 0.48686 0.13423 0.15556 0.0
O150 O 0.64449 0.09957 0.17454 0.0
O151 O 0.66617 0.12807 0.10266 0.0
O152 O 0.54473 0.06437 0.18993 0.0
O153 O 0.51286 1.0425 0.12096 0.0
O154 O 0.50006 1.03531 1.04313 0.0
O155 O 0.58729 0.0631 0.05557 0.0
O156 O 0.43498 0.11068 1.03481 0.0
O157 O 0.40883 0.07473 0.10231 0.0
O158 O 0.53379 0.13724 1.01872 0.0
O159 O 0.56294 0.16046 0.08825 0.0
H160 H 0.68272 0.20998 0.16401 0.0
H161 H 0.77388 0.11855 0.17927 0.0
H162 H 0.83726 0.17903 0.22899 0.0
H163 H 0.74655 0.27133 0.21313 0.0
H164 H 0.35476 0.10083 0.97536 0.0
H165 H 0.33895 0.99628 0.08393 0.0
H166 H 0.27455 0.93844 1.03267 0.0
H167 H 0.29301 1.04284 0.92301 0.0
Gd168 Gd 0.53097 0.5557 0.5723 0.0
Gd169 Gd 0.54022 0.63767 0.63162 0.0
C170 C 0.58731 0.56587 0.67968 0.0
C171 C 0.5504 0.48864 0.52315 0.0
C172 C 0.59808 0.47644 0.51881 0.0
C173 C 0.59894 0.43725 0.49051 0.0
C174 C 0.64376 0.50523 0.54193 0.0
C175 C 0.69136 0.45636 0.50774 0.0
C176 C 0.68991 0.49532 0.53649 0.0
C177 C 0.64525 0.42718 0.48507 0.0
C178 C 0.44073 0.54658 0.62271 0.0
C179 C 0.4851 0.62862 0.52419 0.0
C180 C 0.52233 0.70527 0.68104 0.0
C181 C 0.47799 0.72248 0.68406 0.0
C182 C 0.48131 0.76203 0.71356 0.0
C183 C 0.43146 0.69846 0.65918 0.0
C184 C 0.3914 0.75318 0.69407 0.0
C185 C 0.38854 0.71373 0.66405 0.0
C186 C 0.43842 0.77723 0.71863 0.0
C187 C 0.63038 0.64648 0.58138 0.0
O188 O 0.58458 0.54895 0.63419 0.0
O189 O 0.56804 0.5998 0.6899 0.0
O190 O 0.52851 0.48299 0.56594 0.0
O191 O 0.55309 0.52871 0.5047 0.0
O192 O 0.4433 0.53058 0.57863 0.0
O193 O 0.48669 0.5648 0.63869 0.0
O194 O 0.48735 0.64521 0.56973 0.0
O195 O 0.50417 0.59451 0.51402 0.0
O196 O 0.54738 0.71142 0.63983 0.0
O197 O 0.51395 0.6634 0.69775 0.0
O198 O 0.62782 0.66194 0.62569 0.0
O199 O 0.58445 0.62852 0.56517 0.0
H200 H 0.56402 0.41478 0.47224 0.0
H201 H 0.64389 0.53573 0.56385 0.0
H202 H 0.72442 0.51805 0.55512 0.0
H203 H 0.64517 0.39711 0.46241 0.0
H204 H 0.51681 0.78069 0.73334 0.0
H205 H 0.42808 0.66755 0.63651 0.0
H206 H 0.35319 0.69463 0.64433 0.0
H207 H 0.44177 0.80717 0.74282 0.0
Gd208 Gd 0.04002 0.55365 0.13109 0.0
Gd209 Gd 0.04021 0.64441 0.07362 0.0
C210 C 0.13826 0.65239 0.14504 0.0
C211 C 0.06151 0.48023 0.15579 0.0
C212 C 0.1102 0.46958 0.15707 0.0
C213 C 0.11342 0.43203 0.18416 0.0
C214 C 0.15494 0.49944 0.13505 0.0
C215 C 0.20635 0.45513 0.16869 0.0
C216 C 0.20257 0.49222 0.14069 0.0
C217 C 0.16106 0.42478 0.18989 0.0
C218 C 0.98874 0.60418 0.18479 0.0
C219 C 0.94197 0.54589 0.05949 0.0
C220 C 1.0199 0.71868 1.05007 0.0
C221 C 0.97207 0.73065 1.04891 0.0
C222 C 0.97269 0.77302 1.02909 0.0
C223 C 0.92482 0.69819 0.06361 0.0
C224 C 0.87861 0.74932 1.03584 0.0
C225 C 0.87838 0.70737 0.05698 0.0
C226 C 0.92636 0.78238 1.02273 0.0
C227 C 0.09104 0.59368 1.01964 0.0
O228 O 0.1206 0.6059 0.14865 0.0
O229 O 0.11252 0.67513 0.1205 0.0
O230 O 0.0595 0.51325 0.187 0.0
O231 O 0.04352 0.48435 0.1125 0.0
O232 O 0.99356 0.56471 0.19748 0.0
O233 O 1.00955 0.61245 0.14307 0.0
O234 O 0.95969 0.59239 0.05605 0.0
O235 O 0.9677 0.52296 0.08391 0.0
O236 O 1.02123 0.68572 1.01845 0.0
O237 O 0.03734 0.71369 0.09332 0.0
O238 O 0.08631 0.63321 1.00702 0.0
O239 O 0.07046 0.58548 0.06148 0.0
H240 H 0.07936 0.40906 0.20195 0.0
H241 H 0.15324 0.52894 0.11435 0.0
H242 H 0.23647 0.51585 0.12334 0.0
H243 H 0.16268 0.39628 0.2122 0.0
H244 H 1.00881 0.79822 1.01717 0.0
H245 H 0.92373 0.66523 0.07902 0.0
H246 H 0.84227 0.68144 0.06775 0.0
H247 H 0.92776 0.81471 1.0057 0.0
C248 C 0.39746 0.32015 0.4064 0.0
C249 C 0.38203 0.33264 0.3615 0.0
H250 H 0.3734 0.28159 0.47144 0.0
C251 C 0.32895 0.3231 0.352 0.0
H252 H 0.43822 0.32759 0.41473 0.0
C253 C 0.29186 0.29657 0.3843 0.0
C254 C 0.30743 0.2793 0.42647 0.0
H255 H 0.31602 0.33207 0.31749 0.0
H256 H 0.25127 0.28603 0.37397 0.0
C257 C 0.36044 0.29364 0.43864 0.0
C258 C 0.23209 0.87344 0.89624 0.0
C259 C 0.20508 0.8864 0.85871 0.0
H260 H 0.27729 0.89471 0.96132 0.0
C261 C 0.19537 0.92928 0.86358 0.0
H262 H 0.23906 0.8401 0.89427 0.0
C263 C 0.21578 0.96005 0.90312 0.0
C264 C 0.24718 0.94905 0.93813 0.0
H265 H 0.17473 0.94051 0.83544 0.0
H266 H 0.20902 0.99348 0.9049 0.0
C267 C 0.25332 0.90455 0.93525 0.0
C268 C 0.62499 0.53629 0.80752 0.0
C269 C 0.64376 0.49875 0.79746 0.0
H270 H 0.59327 0.58697 0.77917 0.0
C271 C 0.64658 0.48535 0.74811 0.0
H272 H 0.62112 0.54701 0.845 0.0
C273 C 0.63012 0.50799 0.71009 0.0
C274 C 0.60992 0.5448 0.72002 0.0
H275 H 0.65974 0.45598 0.73887 0.0
H276 H 0.63185 0.49557 0.67284 0.0
C277 C 0.60862 0.55907 0.7695 0.0
C278 C 0.94235 0.70418 0.2381 0.0
C279 C 0.92546 0.68827 0.28526 0.0
H280 H 0.97494 0.69101 0.16934 0.0
C281 C 0.9291 0.64475 0.29813 0.0
H282 H 0.93972 0.73737 0.2266 0.0
C283 C 0.94916 0.61816 0.2652 0.0
C284 C 0.96635 0.63389 0.21799 0.0
H285 H 0.9162 0.63102 0.33371 0.0
H286 H 0.95128 0.5849 0.277 0.0
C287 C 0.96252 0.6775 0.20501 0.0
C288 C 0.45769 0.2335 0.25051 0.0
C289 C 0.49297 0.27958 0.24913 0.0
H290 H 0.44121 0.16122 0.22933 0.0
C291 C 0.54199 0.28709 0.22827 0.0
H292 H 0.4193 0.22667 0.2657 0.0
C293 C 0.55479 0.24921 0.20787 0.0
C294 C 0.51826 0.20357 0.20718 0.0
H295 H 0.56978 0.32227 0.22677 0.0
H296 H 0.59203 0.25603 0.19027 0.0
C297 C 0.47011 0.19598 0.22958 0.0
C298 C 0.0311 0.92221 0.68695 0.0
C299 C 0.0783 0.91849 0.70248 0.0
H300 H 0.99187 0.96765 0.66069 0.0
C301 C 0.12169 0.95911 0.70889 0.0
H302 H 0.99721 0.89109 0.68195 0.0
C303 C 0.1189 1.00293 0.69672 0.0
C304 C 0.0726 1.00651 0.67786 0.0
H305 H 0.15843 0.95669 0.72109 0.0
H306 H 0.1537 1.03345 0.69941 0.0
C307 C 0.02815 0.96601 0.67499 0.0
C308 C 0.83155 0.44271 1.00285 0.0
C309 C 0.79594 0.46388 0.98586 0.0
H310 H 0.90356 0.45089 1.03926 0.0
C311 C 0.81005 0.51317 0.99218 0.0
H312 H 0.8237 0.40527 0.99768 0.0
C313 C 0.85716 0.53984 1.01572 0.0
C314 C 0.89163 0.5181 1.03407 0.0
H315 H 0.78412 0.53116 0.98007 0.0
H316 H 0.86614 0.5775 1.02021 0.0
C317 C 0.878 0.46912 1.02678 0.0
C318 C 0.74198 0.66731 0.48863 0.0
C319 C 0.76655 0.71663 0.49275 0.0
H320 H 0.67959 0.60651 0.51223 0.0
C321 C 0.74309 0.74162 0.52448 0.0
H322 H 0.75779 0.64624 0.4648 0.0
C323 C 0.69976 0.71862 0.55284 0.0
C324 C 0.67613 0.66966 0.54951 0.0
H325 H 0.75777 0.77958 0.5276 0.0
H326 H 0.68414 0.73954 0.57714 0.0
C327 C 0.6971 0.64428 0.51618 0.0
C328 C 0.30949 0.39759 0.18512 0.0
C329 C 0.35391 0.43673 0.19386 0.0
H330 H 0.22801 0.37266 0.16943 0.0
C331 C 0.35029 0.48195 0.19408 0.0
H332 H 0.31181 0.36238 0.18481 0.0
C333 C 0.30241 0.48799 0.18562 0.0
C334 C 0.25746 0.44881 0.17681 0.0
H335 H 0.38435 0.51253 0.20098 0.0
H336 H 0.30046 0.5233 0.18679 0.0
C337 C 0.26164 0.40353 0.17662 0.0
C338 C 0.64915 0.30067 1.03571 0.0
C339 C 0.64602 0.30931 0.98555 0.0
H340 H 0.62815 0.25064 0.09314 0.0
C341 C 0.61869 0.27058 0.95491 0.0
H342 H 0.66907 0.32915 0.061 0.0
C343 C 0.59502 0.22546 0.97357 0.0
C344 C 0.59764 0.21709 1.02363 0.0
H345 H 0.61586 0.27489 0.91609 0.0
H346 H 0.57417 0.19702 0.94858 0.0
C347 C 0.62541 0.25542 0.05437 0.0
C348 C 0.88502 0.89028 0.50602 0.0
C349 C 0.91397 0.86825 0.47716 0.0
H350 H 0.88375 0.95016 0.54958 0.0
C351 C 0.96636 0.89486 0.46838 0.0
H352 H 0.84419 0.87257 0.51259 0.0
C353 C 0.98902 0.94083 0.48908 0.0
C354 C 0.96016 0.96162 0.51947 0.0
H355 H 0.99034 0.87982 0.4465 0.0
H356 H 0.02959 0.95959 0.48228 0.0
C357 C 0.9077 0.93554 0.52709 0.0
C358 C 0.30964 0.83128 0.71843 0.0
C359 C 0.26048 0.79819 0.72613 0.0
H360 H 0.38912 0.84312 0.70079 0.0
C361 C 0.25318 0.75021 0.7189 0.0
H362 H 0.31593 0.86853 0.72361 0.0
C363 C 0.29535 0.73545 0.70673 0.0
C364 C 0.34534 0.76855 0.70133 0.0
H365 H 0.21557 0.72418 0.72509 0.0
H366 H 0.28923 0.69811 0.70387 0.0
C367 C 0.35154 0.81666 0.70585 0.0
C368 C 0.72906 0.84975 0.81605 0.0
C369 C 0.70489 0.86544 0.855 0.0
H370 H 0.77553 0.86829 0.75206 0.0
C371 C 0.70546 0.91216 0.85668 0.0
H372 H 0.72865 0.8137 0.81376 0.0
C373 C 0.73281 0.94353 0.82195 0.0
C374 C 0.75986 0.92871 0.78461 0.0
H375 H 0.68768 0.92533 0.88667 0.0
H376 H 0.73539 0.98004 0.82633 0.0
C377 C 0.75606 0.88105 0.78098 0.0
C378 C 0.91401 0.29323 0.30387 0.0
C379 C 0.89081 0.30942 0.34326 0.0
H380 H 0.90268 0.25647 0.2346 0.0
C381 C 0.83829 0.3057 0.33983 0.0
H382 H 0.95464 0.29625 0.30539 0.0
C383 C 0.80848 0.28269 0.29956 0.0
C384 C 0.8307 0.26309 0.26191 0.0
H385 H 0.81925 0.31744 0.36984 0.0
H386 H 0.76726 0.27734 0.29974 0.0
C387 C 0.88426 0.27038 0.26351 0.0
C388 C 0.45141 0.66159 0.39635 0.0
C389 C 0.43267 0.69909 0.40682 0.0
H390 H 0.48186 0.60986 0.42426 0.0
C391 C 0.42842 0.71123 0.45631 0.0
H392 H 0.45632 0.65182 0.35876 0.0
C393 C 0.44353 0.68744 0.49411 0.0
C394 C 0.46372 0.65067 0.48384 0.0
H395 H 0.4152 0.74049 0.4659 0.0
H396 H 0.44078 0.69895 0.53152 0.0
C397 C 0.46641 0.63764 0.43416 0.0
C398 C 0.15002 0.55271 0.906 0.0
C399 C 0.15049 0.50785 0.91775 0.0
H400 H 0.13156 0.61421 0.92851 0.0
C401 C 0.1321 0.49137 0.96436 0.0
H402 H 0.16401 0.56684 0.87082 0.0
C403 C 0.11342 0.51871 0.99795 0.0
C404 C 0.1126 0.5636 0.9861 0.0
H405 H 0.1321 0.45705 0.97494 0.0
H406 H 0.09939 0.50453 1.033 0.0
C407 C 0.13142 0.57998 0.93948 0.0
C408 C 0.51126 0.90515 0.9945 0.0
C409 C 0.5605 0.9006 0.9909 0.0
H410 H 0.46796 0.95152 1.00935 0.0
C411 C 0.6048 0.94073 0.99372 0.0
H412 H 0.47667 0.87437 0.99223 0.0
C413 C 0.60011 0.9849 1.00352 0.0
C414 C 0.55093 0.98944 1.01059 0.0
H415 H 0.64316 0.93767 0.99069 0.0
H416 H 0.6351 1.01499 1.0083 0.0
C417 C 0.50644 0.94936 1.00398 0.0
C418 C 0.95685 0.24924 0.52692 0.0
C419 C 0.97884 0.26532 0.4817 0.0
H420 H 0.9449 0.1972 0.58107 0.0
C421 C 1.00914 0.24176 0.4575 0.0
H422 H 0.93262 0.26606 0.54606 0.0
C423 C 1.01607 0.20208 0.47771 0.0
C424 C 0.99197 0.1852 0.52176 0.0
H425 H 0.0265 0.25347 0.42258 0.0
H426 H 0.03893 0.18394 0.45844 0.0
C427 C 0.96323 0.20951 0.54663 0.0
C428 C 0.24783 0.75644 0.20139 0.0
C429 C 0.28375 0.73578 0.21866 0.0
H430 H 0.17574 0.74742 0.16482 0.0
C431 C 0.27022 0.68649 0.21248 0.0
H432 H 0.25517 0.79382 0.20643 0.0
C433 C 0.22331 0.65934 0.18894 0.0
C434 C 0.18847 0.68057 0.17043 0.0
H435 H 0.29642 0.66887 0.22478 0.0
H436 H 0.21474 0.62171 0.18461 0.0
C437 C 0.20159 0.72955 0.17746 0.0
C438 C 0.32676 0.52599 0.71269 0.0
C439 C 0.30492 0.47637 0.7115 0.0
H440 H 0.38674 0.58723 0.68623 0.0
C441 C 0.331 0.45127 0.68301 0.0
H442 H 0.30865 0.54702 0.73402 0.0
C443 C 0.37446 0.47426 0.65478 0.0
C444 C 0.39527 0.52347 0.6549 0.0
H445 H 0.31795 0.41324 0.68223 0.0
H446 H 0.39219 0.45323 0.63289 0.0
C447 C 0.37154 0.54918 0.68504 0.0
C448 C 0.74452 0.73193 0.98445 0.0
C449 C 0.74191 0.7774 0.99023 0.0
H450 H 0.79023 0.68722 0.99476 0.0
C451 C 0.78181 0.81229 1.01521 0.0
H452 H 0.71437 0.70485 0.96454 0.0
C453 C 0.82511 0.8025 1.03226 0.0
C454 C 0.82931 0.75764 1.02446 0.0
H455 H 0.78055 0.84774 1.01947 0.0
H456 H 0.85613 0.83048 1.05011 0.0
C457 C 0.78786 0.72201 1.00171 0.0
C458 C 0.42881 0.9013 0.17183 0.0
C459 C 0.43218 0.89189 0.22176 0.0
H460 H 0.44919 0.95221 0.11522 0.0
C461 C 0.45951 0.93031 0.25284 0.0
H462 H 0.40898 0.87317 0.14614 0.0
C463 C 0.4829 0.97579 0.23483 0.0
C464 C 0.4799 0.98492 0.185 0.0
H465 H 0.46258 0.92548 0.29152 0.0
H466 H 0.50375 1.00393 0.26014 0.0
C467 C 0.45216 0.94691 0.15385 0.0
C468 C 0.10413 0.29832 0.73151 0.0
C469 C 0.15685 0.32444 0.72349 0.0
H470 H 0.04026 0.23433 0.71649 0.0
C471 C 0.18565 0.30222 0.69468 0.0
H472 H 0.08019 0.31353 0.75324 0.0
C473 C 0.16254 0.25723 0.67304 0.0
C474 C 0.10978 0.23167 0.67997 0.0
H475 H 0.22666 0.31951 0.68865 0.0
H476 H 0.18641 0.24243 0.65065 0.0
C477 C 0.08105 0.25266 0.71024 0.0
C478 C 0.83493 0.4744 0.49243 0.0
C479 C 0.83558 0.42838 0.49533 0.0
H480 H 0.78844 0.51932 0.4932 0.0
C481 C 0.78895 0.39125 0.50058 0.0
H482 H 0.87073 0.50343 0.48825 0.0
C483 C 0.7419 0.40015 0.50376 0.0
C484 C 0.74091 0.44642 0.50182 0.0
H485 H 0.78899 0.35545 0.503 0.0
H486 H 0.70652 0.37098 0.50903 0.0
C487 C 0.78794 0.48339 0.49559 0.0
loop_
_geom_bond_atom_site_label_1
_geom_bond_atom_site_label_2
_geom_bond_distance
_geom_bond_site_symmetry_2
_ccdc_geom_bond_type
H0 C3 0.929 . S
H1 C6 0.929 . S
H2 C8 0.930 . S
C3 H0 0.929 . S
C3 C4 1.398 . S
C3 C5 1.396 . S
C4 C3 1.398 . S
C4 C8 1.407 . S
C5 C3 1.396 . S
C5 C6 1.394 . S
C6 H1 0.929 . S
C6 C5 1.394 . S
C6 C7 1.382 . S
C7 C6 1.382 . S
C7 C8 1.392 . S
C7 N9 1.420 . S
C8 H2 0.930 . S
C8 C4 1.407 . S
C8 C7 1.392 . S
N9 C7 1.420 . S
N9 C10 1.244 . S
C10 N9 1.244 . S
H11 C14 0.929 . S
H12 C17 0.929 . S
H13 C19 0.930 . S
C14 H11 0.929 . S
C14 C15 1.398 . S
C14 C16 1.396 . S
C15 C14 1.398 . S
C15 C19 1.407 . S
C16 C14 1.396 . S
C16 C17 1.394 . S
C17 H12 0.929 . S
C17 C16 1.394 . S
C17 C18 1.382 . S
C18 C17 1.382 . S
C18 C19 1.392 . S
C18 N20 1.420 . S
C19 H13 0.930 . S
C19 C15 1.407 . S
C19 C18 1.392 . S
N20 C18 1.420 . S
N20 C21 1.244 . S
C21 N20 1.244 . S
H22 C25 0.929 . S
H23 C28 0.929 . S
H24 C30 0.930 . S
C25 H22 0.929 . S
C25 C26 1.398 . S
C25 C27 1.396 . S
C26 C25 1.398 . S
C26 C30 1.407 . S
C27 C25 1.396 . S
C27 C28 1.394 . S
C28 H23 0.929 . S
C28 C27 1.394 . S
C28 C29 1.382 . S
C29 C28 1.382 . S
C29 C30 1.392 . S
C29 N31 1.420 . S
C30 H24 0.930 . S
C30 C26 1.407 . S
C30 C29 1.392 . S
N31 C29 1.420 . S
N31 C32 1.244 . S
C32 N31 1.244 . S
H33 C36 0.929 . S
H34 C39 0.929 . S
H35 C41 0.930 . S
C36 H33 0.929 . S
C36 C37 1.398 . S
C36 C38 1.396 . S
C37 C36 1.398 . S
C37 C41 1.407 . S
C38 C36 1.396 . S
C38 C39 1.394 . S
C39 H34 0.929 . S
C39 C38 1.394 . S
C39 C40 1.382 . S
C40 C39 1.382 . S
C40 C41 1.392 . S
C40 N42 1.420 . S
C41 H35 0.930 . S
C41 C37 1.407 . S
C41 C40 1.392 . S
N42 C40 1.420 . S
N42 C43 1.244 . S
C43 N42 1.244 . S
H44 C47 0.929 . S
H45 C50 0.929 . S
H46 C52 0.930 . S
C47 H44 0.929 . S
C47 C48 1.398 . S
C47 C49 1.396 . S
C48 C47 1.398 . S
C48 C52 1.407 . S
C49 C47 1.396 . S
C49 C50 1.394 . S
C50 H45 0.929 . S
C50 C49 1.394 . S
C50 C51 1.382 . S
C51 C50 1.382 . S
C51 C52 1.392 . S
C51 N53 1.420 . S
C52 H46 0.930 . S
C52 C48 1.407 . S
C52 C51 1.392 . S
N53 C51 1.420 . S
N53 C54 1.244 . S
C54 N53 1.244 . S
H55 C58 0.929 . S
H56 C61 0.929 . S
H57 C63 0.930 . S
C58 H55 0.929 . S
C58 C59 1.398 . S
C58 C60 1.396 . S
C59 C58 1.398 . S
C59 C63 1.407 . S
C60 C58 1.396 . S
C60 C61 1.394 . S
C61 H56 0.929 . S
C61 C60 1.394 . S
C61 C62 1.382 . S
C62 C61 1.382 . S
C62 C63 1.392 . S
C62 N64 1.420 . S
C63 H57 0.930 . S
C63 C59 1.407 . S
C63 C62 1.392 . S
N64 C62 1.420 . S
N64 C65 1.244 . S
C65 N64 1.244 . S
H66 C69 0.929 . S
H67 C72 0.929 . S
H68 C74 0.930 . S
C69 H66 0.929 . S
C69 C70 1.398 . S
C69 C71 1.396 . S
C70 C69 1.398 . S
C70 C74 1.407 . S
C71 C69 1.396 . S
C71 C72 1.394 . S
C72 H67 0.929 . S
C72 C71 1.394 . S
C72 C73 1.382 . S
C73 C72 1.382 . S
C73 C74 1.392 . S
C73 N75 1.420 . S
C74 H68 0.930 . S
C74 C70 1.407 . S
C74 C73 1.392 . S
N75 C73 1.420 . S
N75 C76 1.244 . S
C76 N75 1.244 . S
H77 C80 0.929 . S
H78 C83 0.929 . S
H79 C85 0.930 . S
C80 H77 0.929 . S
C80 C81 1.398 . S
C80 C82 1.396 . S
C81 C80 1.398 . S
C81 C85 1.407 . S
C82 C80 1.396 . S
C82 C83 1.394 . S
C83 H78 0.929 . S
C83 C82 1.394 . S
C83 C84 1.382 . S
C84 C83 1.382 . S
C84 C85 1.392 . S
C84 N86 1.420 . S
C85 H79 0.930 . S
C85 C81 1.407 . S
C85 C84 1.392 . S
N86 C84 1.420 . S
N86 C87 1.244 . S
C87 N86 1.244 . S
Gd88 C91 2.818 . S
Gd88 O108 2.377 . S
Gd88 O110 2.448 . S
Gd88 O111 2.506 . S
Gd88 O112 2.435 . S
Gd88 O113 2.717 . S
Gd88 O115 2.395 1_445 S
Gd88 O119 2.327 1_455 S
Gd89 C100 2.818 1_545 S
Gd89 O109 2.395 1_655 S
Gd89 O113 2.327 1_655 S
Gd89 O114 2.377 1_545 S
Gd89 O116 2.448 1_545 S
Gd89 O117 2.506 1_545 S
Gd89 O118 2.435 . S
Gd89 O119 2.717 . S
C90 O108 1.240 . S
C90 O109 1.240 . S
C91 Gd88 2.818 . S
C91 C92 1.510 . S
C91 O110 1.249 . S
C91 O111 1.252 . S
C92 C91 1.510 . S
C92 C93 1.404 . S
C92 C94 1.352 . S
C93 C92 1.404 . S
C93 C97 1.389 . S
C93 H120 0.930 . S
C94 C92 1.352 . S
C94 C96 1.374 . S
C94 H121 0.931 . S
C95 C96 1.359 . S
C95 C97 1.364 . S
C96 C94 1.374 . S
C96 C95 1.359 . S
C96 H122 0.931 . S
C97 C93 1.389 . S
C97 C95 1.364 . S
C97 H123 0.931 . S
C98 O112 1.256 1_565 S
C98 O113 1.257 1_565 S
C99 O114 1.240 . S
C99 O115 1.240 . S
C100 Gd89 2.818 1_565 S
C100 C101 1.510 . S
C100 O116 1.249 . S
C100 O117 1.252 . S
C101 C100 1.510 . S
C101 C102 1.404 . S
C101 C103 1.352 . S
C102 C101 1.404 . S
C102 C106 1.389 . S
C102 H124 0.930 . S
C103 C101 1.352 . S
C103 C105 1.374 . S
C103 H125 0.931 . S
C104 C105 1.359 . S
C104 C106 1.364 . S
C105 C103 1.374 . S
C105 C104 1.359 . S
C105 H126 0.931 . S
C106 C102 1.389 . S
C106 C104 1.364 . S
C106 H127 0.931 . S
C107 O118 1.256 . S
C107 O119 1.257 . S
O108 Gd88 2.377 . S
O108 C90 1.240 . S
O109 Gd89 2.395 1_455 S
O109 C90 1.240 . S
O110 Gd88 2.448 . S
O110 C91 1.249 . S
O111 Gd88 2.506 . S
O111 C91 1.252 . S
O112 Gd88 2.435 . S
O112 C98 1.256 1_545 S
O113 Gd88 2.717 . S
O113 Gd89 2.327 1_455 S
O113 C98 1.257 1_545 S
O114 Gd89 2.377 1_565 S
O114 C99 1.240 . S
O115 Gd88 2.395 1_665 S
O115 C99 1.240 . S
O116 Gd89 2.448 1_565 S
O116 C100 1.249 . S
O117 Gd89 2.506 1_565 S
O117 C100 1.252 . S
O118 Gd89 2.435 . S
O118 C107 1.256 . S
O119 Gd88 2.327 1_655 S
O119 Gd89 2.717 . S
O119 C107 1.257 . S
H120 C93 0.930 . S
H121 C94 0.931 . S
H122 C96 0.931 . S
H123 C97 0.931 . S
H124 C102 0.930 . S
H125 C103 0.931 . S
H126 C105 0.931 . S
H127 C106 0.931 . S
Gd128 C131 2.818 . S
Gd128 O148 2.377 . S
Gd128 O150 2.448 . S
Gd128 O151 2.506 . S
Gd128 O152 2.435 1_545 S
Gd128 O153 2.717 1_545 S
Gd128 O155 2.395 1_545 S
Gd128 O159 2.327 . S
Gd129 C140 2.818 1_544 S
Gd129 O149 2.395 . S
Gd129 O153 2.327 1_545 S
Gd129 O154 2.377 1_554 S
Gd129 O156 2.448 1_554 S
Gd129 O157 2.506 1_544 S
Gd129 O158 2.435 1_554 S
Gd129 O159 2.717 . S
C130 O148 1.240 . S
C130 O149 1.240 . S
C131 Gd128 2.818 . S
C131 C132 1.510 . S
C131 O150 1.249 . S
C131 O151 1.252 . S
C132 C131 1.510 . S
C132 C133 1.404 . S
C132 C134 1.352 . S
C133 C132 1.404 . S
C133 C137 1.389 . S
C133 H160 0.930 . S
C134 C132 1.352 . S
C134 C136 1.374 . S
C134 H161 0.931 . S
C135 C136 1.359 . S
C135 C137 1.364 . S
C136 C134 1.374 . S
C136 C135 1.359 . S
C136 H162 0.931 . S
C137 C133 1.389 . S
C137 C135 1.364 . S
C137 H163 0.931 . S
C138 O152 1.256 . S
C138 O153 1.257 . S
C139 O154 1.249 1_565 S
C139 O155 1.219 1_556 S
C140 Gd129 2.818 1_566 S
C140 C141 1.510 . S
C140 O156 1.249 1_565 S
C140 O157 1.252 . S
C141 C140 1.510 . S
C141 C142 1.404 . S
C141 C143 1.352 . S
C142 C141 1.404 . S
C142 C146 1.389 . S
C142 H164 0.942 . S
C143 C141 1.352 . S
C143 C145 1.374 . S
C143 H165 0.931 . S
C144 C145 1.359 . S
C144 C146 1.364 . S
C145 C143 1.374 . S
C145 C144 1.359 . S
C145 H166 0.931 . S
C146 C142 1.389 . S
C146 C144 1.364 . S
C146 H167 0.931 . S
C147 O158 1.256 1_554 S
C147 O159 1.257 . S
O148 Gd128 2.377 . S
O148 C130 1.240 . S
O149 Gd129 2.395 . S
O149 C130 1.240 . S
O150 Gd128 2.448 . S
O150 C131 1.249 . S
O151 Gd128 2.506 . S
O151 C131 1.252 . S
O152 Gd128 2.435 1_565 S
O152 C138 1.256 . S
O153 Gd128 2.717 1_565 S
O153 Gd129 2.327 1_565 S
O153 C138 1.257 . S
O154 Gd129 2.377 1_556 S
O154 C139 1.249 1_545 S
O155 Gd128 2.395 1_565 S
O155 C139 1.219 1_554 S
O156 Gd129 2.448 1_556 S
O156 C140 1.249 1_545 S
O157 Gd129 2.506 1_566 S
O157 C140 1.252 . S
O158 Gd129 2.435 1_556 S
O158 C147 1.256 1_556 S
O159 Gd128 2.327 . S
O159 Gd129 2.717 . S
O159 C147 1.257 . S
H160 C133 0.930 . S
H161 C134 0.931 . S
H162 C136 0.931 . S
H163 C137 0.931 . S
H164 C142 0.942 . S
H165 C143 0.931 . S
H166 C145 0.931 . S
H167 C146 0.931 . S
Gd168 C171 2.818 . S
Gd168 O188 2.377 . S
Gd168 O190 2.448 . S
Gd168 O191 2.506 . S
Gd168 O192 2.435 . S
Gd168 O193 2.717 . S
Gd168 O195 2.395 . S
Gd168 O199 2.327 . S
Gd169 C180 2.818 . S
Gd169 O189 2.395 . S
Gd169 O193 2.327 . S
Gd169 O194 2.377 . S
Gd169 O196 2.448 . S
Gd169 O197 2.506 . S
Gd169 O198 2.435 . S
Gd169 O199 2.717 . S
C170 O188 1.240 . S
C170 O189 1.240 . S
C171 Gd168 2.818 . S
C171 C172 1.510 . S
C171 O190 1.249 . S
C171 O191 1.252 . S
C172 C171 1.510 . S
C172 C173 1.404 . S
C172 C174 1.352 . S
C173 C172 1.404 . S
C173 C177 1.389 . S
C173 H200 0.930 . S
C174 C172 1.352 . S
C174 C176 1.374 . S
C174 H201 0.931 . S
C175 C176 1.359 . S
C175 C177 1.364 . S
C176 C174 1.374 . S
C176 C175 1.359 . S
C176 H202 0.931 . S
C177 C173 1.389 . S
C177 C175 1.364 . S
C177 H203 0.931 . S
C178 O192 1.256 . S
C178 O193 1.257 . S
C179 O194 1.240 . S
C179 O195 1.240 . S
C180 Gd169 2.818 . S
C180 C181 1.510 . S
C180 O196 1.249 . S
C180 O197 1.252 . S
C181 C180 1.510 . S
C181 C182 1.404 . S
C181 C183 1.352 . S
C182 C181 1.404 . S
C182 C186 1.389 . S
C182 H204 0.930 . S
C183 C181 1.352 . S
C183 C185 1.374 . S
C183 H205 0.931 . S
C184 C185 1.359 . S
C184 C186 1.364 . S
C185 C183 1.374 . S
C185 C184 1.359 . S
C185 H206 0.931 . S
C186 C182 1.389 . S
C186 C184 1.364 . S
C186 H207 0.931 . S
C187 O198 1.256 . S
C187 O199 1.257 . S
O188 Gd168 2.377 . S
O188 C170 1.240 . S
O189 Gd169 2.395 . S
O189 C170 1.240 . S
O190 Gd168 2.448 . S
O190 C171 1.249 . S
O191 Gd168 2.506 . S
O191 C171 1.252 . S
O192 Gd168 2.435 . S
O192 C178 1.256 . S
O193 Gd168 2.717 . S
O193 Gd169 2.327 . S
O193 C178 1.257 . S
O194 Gd169 2.377 . S
O194 C179 1.240 . S
O195 Gd168 2.395 . S
O195 C179 1.240 . S
O196 Gd169 2.448 . S
O196 C180 1.249 . S
O197 Gd169 2.506 . S
O197 C180 1.252 . S
O198 Gd169 2.435 . S
O198 C187 1.256 . S
O199 Gd168 2.327 . S
O199 Gd169 2.717 . S
O199 C187 1.257 . S
H200 C173 0.930 . S
H201 C174 0.931 . S
H202 C176 0.931 . S
H203 C177 0.931 . S
H204 C182 0.930 . S
H205 C183 0.931 . S
H206 C185 0.931 . S
H207 C186 0.931 . S
Gd208 C211 2.818 . S
Gd208 O228 2.377 . S
Gd208 O230 2.448 . S
Gd208 O231 2.506 . S
Gd208 O232 2.435 1_455 S
Gd208 O233 2.717 1_455 S
Gd208 O235 2.395 1_455 S
Gd208 O239 2.327 1_554 S
Gd209 C220 2.818 1_455 S
Gd209 O229 2.395 1_556 S
Gd209 O233 2.327 1_456 S
Gd209 O234 2.377 1_455 S
Gd209 O236 2.448 1_455 S
Gd209 O237 2.506 1_455 S
Gd209 O238 2.435 . S
Gd209 O239 2.717 . S
C210 O228 1.240 . S
C210 O229 1.240 . S
C211 Gd208 2.818 . S
C211 C212 1.510 . S
C211 O230 1.249 . S
C211 O231 1.252 . S
C212 C211 1.510 . S
C212 C213 1.404 . S
C212 C214 1.352 . S
C213 C212 1.404 . S
C213 C217 1.389 . S
C213 H240 0.930 . S
C214 C212 1.352 . S
C214 C216 1.374 . S
C214 H241 0.931 . S
C215 C216 1.359 . S
C215 C217 1.364 . S
C216 C214 1.374 . S
C216 C215 1.359 . S
C216 H242 0.931 . S
C217 C213 1.389 . S
C217 C215 1.364 . S
C217 H243 0.931 . S
C218 O232 1.256 . S
C218 O233 1.257 . S
C219 O234 1.240 . S
C219 O235 1.240 1_556 S
C220 Gd209 2.818 1_655 S
C220 C221 1.510 . S
C220 O236 1.249 . S
C220 O237 1.252 . S
C221 C220 1.510 . S
C221 C222 1.404 . S
C221 C223 1.352 . S
C222 C221 1.404 . S
C222 C226 1.389 . S
C222 H244 0.930 . S
C223 C221 1.352 . S
C223 C225 1.374 . S
C223 H245 0.931 . S
C224 C225 1.359 . S
C224 C226 1.364 . S
C225 C223 1.374 . S
C225 C224 1.359 . S
C225 H246 0.931 . S
C226 C222 1.389 . S
C226 C224 1.364 . S
C226 H247 0.931 . S
C227 O238 1.256 . S
C227 O239 1.257 . S
O228 Gd208 2.377 . S
O228 C210 1.240 . S
O229 Gd209 2.395 1_554 S
O229 C210 1.240 . S
O230 Gd208 2.448 . S
O230 C211 1.249 . S
O231 Gd208 2.506 . S
O231 C211 1.252 . S
O232 Gd208 2.435 1_655 S
O232 C218 1.256 . S
O233 Gd208 2.717 1_655 S
O233 Gd209 2.327 1_654 S
O233 C218 1.257 . S
O234 Gd209 2.377 1_655 S
O234 C219 1.240 . S
O235 Gd208 2.395 1_655 S
O235 C219 1.240 1_554 S
O236 Gd209 2.448 1_655 S
O236 C220 1.249 . S
O237 Gd209 2.506 1_655 S
O237 C220 1.252 . S
O238 Gd209 2.435 . S
O238 C227 1.256 . S
O239 Gd208 2.327 1_556 S
O239 Gd209 2.717 . S
O239 C227 1.257 . S
H240 C213 0.930 . S
H241 C214 0.931 . S
H242 C216 0.931 . S
H243 C217 0.931 . S
H244 C222 0.930 . S
H245 C223 0.931 . S
H246 C225 0.931 . S
H247 C226 0.931 . S
C248 C249 1.387 . S
C248 H252 0.950 . S
C248 C257 1.390 . S
C249 C248 1.387 . S
C249 C251 1.387 . S
H250 C257 0.950 . S
C251 C249 1.387 . S
C251 C253 1.390 . S
C251 H255 0.950 . S
H252 C248 0.950 . S
C253 C251 1.390 . S
C253 C254 1.387 . S
C253 H256 0.950 . S
C254 C253 1.387 . S
C254 C257 1.387 . S
H255 C251 0.950 . S
H256 C253 0.950 . S
C257 C248 1.390 . S
C257 H250 0.950 . S
C257 C254 1.387 . S
C258 C259 1.387 . S
C258 H262 0.950 . S
C258 C267 1.390 . S
C259 C258 1.387 . S
C259 C261 1.387 . S
H260 C267 0.950 . S
C261 C259 1.387 . S
C261 C263 1.390 . S
C261 H265 0.950 . S
H262 C258 0.950 . S
C263 C261 1.390 . S
C263 C264 1.387 . S
C263 H266 0.950 . S
C264 C263 1.387 . S
C264 C267 1.387 . S
H265 C261 0.950 . S
H266 C263 0.950 . S
C267 C258 1.390 . S
C267 H260 0.950 . S
C267 C264 1.387 . S
C268 C269 1.387 . S
C268 H272 0.950 . S
C268 C277 1.390 . S
C269 C268 1.387 . S
C269 C271 1.387 . S
H270 C277 0.950 . S
C271 C269 1.387 . S
C271 C273 1.390 . S
C271 H275 0.950 . S
H272 C268 0.950 . S
C273 C271 1.390 . S
C273 C274 1.387 . S
C273 H276 0.950 . S
C274 C273 1.387 . S
C274 C277 1.387 . S
H275 C271 0.950 . S
H276 C273 0.950 . S
C277 C268 1.390 . S
C277 H270 0.950 . S
C277 C274 1.387 . S
C278 C279 1.387 . S
C278 H282 0.950 . S
C278 C287 1.390 . S
C279 C278 1.387 . S
C279 C281 1.387 . S
H280 C287 0.950 . S
C281 C279 1.387 . S
C281 C283 1.390 . S
C281 H285 0.950 . S
H282 C278 0.950 . S
C283 C281 1.390 . S
C283 C284 1.387 . S
C283 H286 0.950 . S
C284 C283 1.387 . S
C284 C287 1.387 . S
H285 C281 0.950 . S
H286 C283 0.950 . S
C287 C278 1.390 . S
C287 H280 0.950 . S
C287 C284 1.387 . S
C288 C289 1.387 . S
C288 H292 0.950 . S
C288 C297 1.390 . S
C289 C288 1.387 . S
C289 C291 1.387 . S
H290 C297 0.950 . S
C291 C289 1.387 . S
C291 C293 1.390 . S
C291 H295 0.950 . S
H292 C288 0.950 . S
C293 C291 1.390 . S
C293 C294 1.387 . S
C293 H296 0.950 . S
C294 C293 1.387 . S
C294 C297 1.387 . S
H295 C291 0.950 . S
H296 C293 0.950 . S
C297 C288 1.390 . S
C297 H290 0.950 . S
C297 C294 1.387 . S
C298 C299 1.387 . S
C298 H302 0.950 . S
C298 C307 1.390 . S
C299 C298 1.387 . S
C299 C301 1.387 . S
H300 C307 0.950 . S
C301 C299 1.387 . S
C301 C303 1.390 . S
C301 H305 0.950 . S
H302 C298 0.950 . S
C303 C301 1.390 . S
C303 C304 1.387 . S
C303 H306 0.950 . S
C304 C303 1.387 . S
C304 C307 1.387 . S
H305 C301 0.950 . S
H306 C303 0.950 . S
C307 C298 1.390 . S
C307 H300 0.950 . S
C307 C304 1.387 . S
C308 C309 1.387 . S
C308 H312 0.950 . S
C308 C317 1.390 . S
C309 C308 1.387 . S
C309 C311 1.387 . S
H310 C317 0.950 . S
C311 C309 1.387 . S
C311 C313 1.390 . S
C311 H315 0.950 . S
H312 C308 0.950 . S
C313 C311 1.390 . S
C313 C314 1.387 . S
C313 H316 0.950 1_556 S
C314 C313 1.387 . S
C314 C317 1.387 . S
H315 C311 0.950 . S
H316 C313 0.950 1_554 S
C317 C308 1.390 . S
C317 H310 0.950 . S
C317 C314 1.387 . S
C318 C319 1.387 . S
C318 H322 0.950 . S
C318 C327 1.390 . S
C319 C318 1.387 . S
C319 C321 1.387 . S
H320 C327 0.950 . S
C321 C319 1.387 . S
C321 C323 1.390 . S
C321 H325 0.950 . S
H322 C318 0.950 . S
C323 C321 1.390 . S
C323 C324 1.387 . S
C323 H326 0.950 . S
C324 C323 1.387 . S
C324 C327 1.387 . S
H325 C321 0.950 . S
H326 C323 0.950 . S
C327 C318 1.390 . S
C327 H320 0.950 . S
C327 C324 1.387 . S
C328 C329 1.387 . S
C328 H332 0.950 . S
C328 C337 1.390 . S
C329 C328 1.387 . S
C329 C331 1.387 . S
H330 C337 0.950 . S
C331 C329 1.387 . S
C331 C333 1.390 . S
C331 H335 0.950 . S
H332 C328 0.950 . S
C333 C331 1.390 . S
C333 C334 1.387 . S
C333 H336 0.950 . S
C334 C333 1.387 . S
C334 C337 1.387 . S
H335 C331 0.950 . S
H336 C333 0.950 . S
C337 C328 1.390 . S
C337 H330 0.950 . S
C337 C334 1.387 . S
C338 C339 1.387 . S
C338 H342 0.950 . S
C338 C347 1.392 . S
C339 C338 1.387 . S
C339 C341 1.387 . S
H340 C347 0.947 1_554 S
C341 C339 1.387 . S
C341 C343 1.390 . S
C341 H345 0.950 . S
H342 C338 0.950 . S
C343 C341 1.390 . S
C343 C344 1.387 . S
C343 H346 0.950 . S
C344 C343 1.387 . S
C344 C347 1.389 . S
H345 C341 0.950 . S
H346 C343 0.950 . S
C347 C338 1.392 . S
C347 H340 0.947 1_556 S
C347 C344 1.389 . S
C348 C349 1.387 . S
C348 H352 0.950 . S
C348 C357 1.390 . S
C349 C348 1.387 . S
C349 C351 1.387 . S
H350 C357 0.950 . S
C351 C349 1.387 . S
C351 C353 1.390 . S
C351 H355 0.950 . S
H352 C348 0.950 . S
C353 C351 1.390 . S
C353 C354 1.387 . S
C353 H356 0.950 . S
C354 C353 1.387 . S
C354 C357 1.387 . S
H355 C351 0.950 . S
H356 C353 0.950 . S
C357 C348 1.390 . S
C357 H350 0.950 . S
C357 C354 1.387 . S
C358 C359 1.387 . S
C358 H362 0.950 . S
C358 C367 1.390 . S
C359 C358 1.387 . S
C359 C361 1.387 . S
H360 C367 0.950 . S
C361 C359 1.387 . S
C361 C363 1.390 . S
C361 H365 0.950 . S
H362 C358 0.950 . S
C363 C361 1.390 . S
C363 C364 1.387 . S
C363 H366 0.950 . S
C364 C363 1.387 . S
C364 C367 1.387 . S
H365 C361 0.950 . S
H366 C363 0.950 . S
C367 C358 1.390 . S
C367 H360 0.950 . S
C367 C364 1.387 . S
C368 C369 1.387 . S
C368 H372 0.950 . S
C368 C377 1.390 . S
C369 C368 1.387 . S
C369 C371 1.387 . S
H370 C377 0.950 . S
C371 C369 1.387 . S
C371 C373 1.390 . S
C371 H375 0.950 . S
H372 C368 0.950 . S
C373 C371 1.390 . S
C373 C374 1.387 . S
C373 H376 0.950 . S
C374 C373 1.387 . S
C374 C377 1.387 . S
H375 C371 0.950 . S
H376 C373 0.950 . S
C377 C368 1.390 . S
C377 H370 0.950 . S
C377 C374 1.387 . S
C378 C379 1.387 . S
C378 H382 0.950 . S
C378 C387 1.390 . S
C379 C378 1.387 . S
C379 C381 1.387 . S
H380 C387 0.950 . S
C381 C379 1.387 . S
C381 C383 1.390 . S
C381 H385 0.950 . S
H382 C378 0.950 . S
C383 C381 1.390 . S
C383 C384 1.387 . S
C383 H386 0.950 . S
C384 C383 1.387 . S
C384 C387 1.387 . S
H385 C381 0.950 . S
H386 C383 0.950 . S
C387 C378 1.390 . S
C387 H380 0.950 . S
C387 C384 1.387 . S
C388 C389 1.387 . S
C388 H392 0.950 . S
C388 C397 1.390 . S
C389 C388 1.387 . S
C389 C391 1.387 . S
H390 C397 0.950 . S
C391 C389 1.387 . S
C391 C393 1.390 . S
C391 H395 0.950 . S
H392 C388 0.950 . S
C393 C391 1.390 . S
C393 C394 1.387 . S
C393 H396 0.950 . S
C394 C393 1.387 . S
C394 C397 1.387 . S
H395 C391 0.950 . S
H396 C393 0.950 . S
C397 C388 1.390 . S
C397 H390 0.950 . S
C397 C394 1.387 . S
C398 C399 1.387 . S
C398 H402 0.950 . S
C398 C407 1.390 . S
C399 C398 1.387 . S
C399 C401 1.387 . S
H400 C407 0.950 . S
C401 C399 1.387 . S
C401 C403 1.390 . S
C401 H405 0.950 . S
H402 C398 0.950 . S
C403 C401 1.390 . S
C403 C404 1.387 . S
C403 H406 0.950 . S
C404 C403 1.387 . S
C404 C407 1.387 . S
H405 C401 0.950 . S
H406 C403 0.950 . S
C407 C398 1.390 . S
C407 H400 0.950 . S
C407 C404 1.387 . S
C408 C409 1.387 . S
C408 H412 0.950 . S
C408 C417 1.390 . S
C409 C408 1.387 . S
C409 C411 1.387 . S
H410 C417 0.950 . S
C411 C409 1.387 . S
C411 C413 1.390 . S
C411 H415 0.950 . S
H412 C408 0.950 . S
C413 C411 1.390 . S
C413 C414 1.387 . S
C413 H416 0.950 . S
C414 C413 1.387 . S
C414 C417 1.387 . S
H415 C411 0.950 . S
H416 C413 0.950 . S
C417 C408 1.390 . S
C417 H410 0.950 . S
C417 C414 1.387 . S
C418 C419 1.387 . S
C418 H422 0.950 . S
C418 C427 1.390 . S
C419 C418 1.387 . S
C419 C421 1.387 . S
H420 C427 0.950 . S
C421 C419 1.387 . S
C421 C423 1.390 . S
C421 H425 0.950 . S
H422 C418 0.950 . S
C423 C421 1.390 . S
C423 C424 1.387 . S
C423 H426 0.950 . S
C424 C423 1.387 . S
C424 C427 1.387 . S
H425 C421 0.950 . S
H426 C423 0.950 . S
C427 C418 1.390 . S
C427 H420 0.950 . S
C427 C424 1.387 . S
C428 C429 1.387 . S
C428 H432 0.950 . S
C428 C437 1.390 . S
C429 C428 1.387 . S
C429 C431 1.387 . S
H430 C437 0.950 . S
C431 C429 1.387 . S
C431 C433 1.390 . S
C431 H435 0.950 . S
H432 C428 0.950 . S
C433 C431 1.390 . S
C433 C434 1.387 . S
C433 H436 0.950 . S
C434 C433 1.387 . S
C434 C437 1.387 . S
H435 C431 0.950 . S
H436 C433 0.950 . S
C437 C428 1.390 . S
C437 H430 0.950 . S
C437 C434 1.387 . S
C438 C439 1.387 . S
C438 H442 0.950 . S
C438 C447 1.390 . S
C439 C438 1.387 . S
C439 C441 1.387 . S
H440 C447 0.950 . S
C441 C439 1.387 . S
C441 C443 1.390 . S
C441 H445 0.950 . S
H442 C438 0.950 . S
C443 C441 1.390 . S
C443 C444 1.387 . S
C443 H446 0.950 . S
C444 C443 1.387 . S
C444 C447 1.387 . S
H445 C441 0.950 . S
H446 C443 0.950 . S
C447 C438 1.390 . S
C447 H440 0.950 . S
C447 C444 1.387 . S
C448 C449 1.387 . S
C448 H452 0.950 . S
C448 C457 1.390 . S
C449 C448 1.387 . S
C449 C451 1.387 . S
H450 C457 0.950 . S
C451 C449 1.387 . S
C451 C453 1.390 . S
C451 H455 0.950 . S
H452 C448 0.950 . S
C453 C451 1.390 . S
C453 C454 1.387 . S
C453 H456 0.950 . S
C454 C453 1.387 . S
C454 C457 1.387 . S
H455 C451 0.950 . S
H456 C453 0.950 . S
C457 C448 1.390 . S
C457 H450 0.950 . S
C457 C454 1.387 . S
C458 C459 1.387 . S
C458 H462 0.950 . S
C458 C467 1.390 . S
C459 C458 1.387 . S
C459 C461 1.387 . S
H460 C467 0.950 . S
C461 C459 1.387 . S
C461 C463 1.390 . S
C461 H465 0.950 . S
H462 C458 0.950 . S
C463 C461 1.390 . S
C463 C464 1.387 . S
C463 H466 0.950 . S
C464 C463 1.387 . S
C464 C467 1.387 . S
H465 C461 0.950 . S
H466 C463 0.950 . S
C467 C458 1.390 . S
C467 H460 0.950 . S
C467 C464 1.387 . S
C468 C469 1.387 . S
C468 H472 0.950 . S
C468 C477 1.390 . S
C469 C468 1.387 . S
C469 C471 1.387 . S
H470 C477 0.950 . S
C471 C469 1.387 . S
C471 C473 1.390 . S
C471 H475 0.950 . S
H472 C468 0.950 . S
C473 C471 1.390 . S
C473 C474 1.387 . S
C473 H476 0.950 . S
C474 C473 1.387 . S
C474 C477 1.387 . S
H475 C471 0.950 . S
H476 C473 0.950 . S
C477 C468 1.390 . S
C477 H470 0.950 . S
C477 C474 1.387 . S
C478 C479 1.387 . S
C478 H482 0.950 . S
C478 C487 1.390 . S
C479 C478 1.387 . S
C479 C481 1.387 . S
H480 C487 0.950 . S
C481 C479 1.387 . S
C481 C483 1.390 . S
C481 H485 0.950 . S
H482 C478 0.950 . S
C483 C481 1.390 . S
C483 C484 1.387 . S
C483 H486 0.950 . S
C484 C483 1.387 . S
C484 C487 1.387 . S
H485 C481 0.950 . S
H486 C483 0.950 . S
C487 C478 1.390 . S
C487 H480 0.950 . S
C487 C484 1.387 . S
C249 C4 1.130 . S
C254 C95 1.163 . S
C259 C16 1.272 . S
C264 C144 1.299 . S
C274 C170 2.159 . S
C269 C32 2.184 . S
C279 C43 2.369 . S
C284 C218 2.318 . S
C294 C130 2.510 . S
C289 C5 2.347 . S
C304 C98 0.648 . S
C299 C21 0.677 . S
C314 C219 1.959 . S
C309 C27 2.004 . S
C324 C187 1.746 . S
C319 C37 1.742 . S
C329 C10 1.455 . S
C334 C215 1.490 . S
C344 C147 2.513 1_556 S
C339 C26 2.594 . S
C349 C38 2.137 . S
C354 C99 2.139 . S
C359 C15 1.381 . S
C364 C184 1.399 . S
C374 C104 1.238 . S
C369 C48 1.219 . S
C379 C59 1.190 . S
C384 C135 1.201 . S
C389 C76 2.482 . S
C394 C179 2.445 . S
C399 C87 2.232 . S
C404 C227 2.221 . S
C409 C54 1.897 . S
C414 C139 2.076 . S
C424 C107 1.358 . S
C419 C60 1.372 . S
C434 C210 1.861 . S
C429 C71 1.888 . S
C444 C178 1.702 . S
C439 C82 1.765 . S
C449 C49 1.668 . S
C454 C224 1.805 . S
C464 C138 2.042 . S
C459 C70 2.116 . S
C474 C90 2.521 . S
C469 C81 2.531 . S
C479 C65 1.129 . S
C484 C175 1.142 . S
