# Generated by pormake.
# Topology pyr, (3,6)-cn, num edge types: 1
# Building blocks:
#     Node 0, Type 0, BuildingBlock: CUQRIR_clean_linker_1, # of connection points: 3
#     Node 1, Type 0, BuildingBlock: CUQRIR_clean_linker_1, # of connection points: 3
#     Node 2, Type 0, BuildingBlock: CUQRIR_clean_linker_1, # of connection points: 3
#     Node 3, Type 0, BuildingBlock: CUQRIR_clean_linker_1, # of connection points: 3
#     Node 4, Type 0, BuildingBlock: CUQRIR_clean_linker_1, # of connection points: 3
#     Node 5, Type 0, BuildingBlock: CUQRIR_clean_linker_1, # of connection points: 3
#     Node 6, Type 0, BuildingBlock: CUQRIR_clean_linker_1, # of connection points: 3
#     Node 7, Type 0, BuildingBlock: CUQRIR_clean_linker_1, # of connection points: 3
#     Node 8, Type 1, BuildingBlock: GEDQOX_clean_sbu_0, # of connection points: 6
#     Node 9, Type 1, BuildingBlock: GEDQOX_clean_sbu_0, # of connection points: 6
#     Node 10, Type 1, BuildingBlock: GEDQOX_clean_sbu_0, # of connection points: 6
#     Node 11, Type 1, BuildingBlock: GEDQOX_clean_sbu_0, # of connection points: 6
#     Edge 12, Type (0, 1), BuildingBlock: AJUNOK_clean_linker_0, # of connection points: 2
#     Edge 13, Type (0, 1), BuildingBlock: AJUNOK_clean_linker_0, # of connection points: 2
#     Edge 14, Type (0, 1), BuildingBlock: AJUNOK_clean_linker_0, # of connection points: 2
#     Edge 15, Type (0, 1), BuildingBlock: AJUNOK_clean_linker_0, # of connection points: 2
#     Edge 16, Type (0, 1), BuildingBlock: AJUNOK_clean_linker_0, # of connection points: 2
#     Edge 17, Type (0, 1), BuildingBlock: AJUNOK_clean_linker_0, # of connection points: 2
#     Edge 18, Type (0, 1), BuildingBlock: AJUNOK_clean_linker_0, # of connection points: 2
#     Edge 19, Type (0, 1), BuildingBlock: AJUNOK_clean_linker_0, # of connection points: 2
#     Edge 20, Type (0, 1), BuildingBlock: AJUNOK_clean_linker_0, # of connection points: 2
#     Edge 21, Type (0, 1), BuildingBlock: AJUNOK_clean_linker_0, # of connection points: 2
#     Edge 22, Type (0, 1), BuildingBlock: AJUNOK_clean_linker_0, # of connection points: 2
#     Edge 23, Type (0, 1), BuildingBlock: AJUNOK_clean_linker_0, # of connection points: 2
#     Edge 24, Type (0, 1), BuildingBlock: AJUNOK_clean_linker_0, # of connection points: 2
#     Edge 25, Type (0, 1), BuildingBlock: AJUNOK_clean_linker_0, # of connection points: 2
#     Edge 26, Type (0, 1), BuildingBlock: AJUNOK_clean_linker_0, # of connection points: 2
#     Edge 27, Type (0, 1), BuildingBlock: AJUNOK_clean_linker_0, # of connection points: 2
#     Edge 28, Type (0, 1), BuildingBlock: AJUNOK_clean_linker_0, # of connection points: 2
#     Edge 29, Type (0, 1), BuildingBlock: AJUNOK_clean_linker_0, # of connection points: 2
#     Edge 30, Type (0, 1), BuildingBlock: AJUNOK_clean_linker_0, # of connection points: 2
#     Edge 31, Type (0, 1), BuildingBlock: AJUNOK_clean_linker_0, # of connection points: 2
#     Edge 32, Type (0, 1), BuildingBlock: AJUNOK_clean_linker_0, # of connection points: 2
#     Edge 33, Type (0, 1), BuildingBlock: AJUNOK_clean_linker_0, # of connection points: 2
#     Edge 34, Type (0, 1), BuildingBlock: AJUNOK_clean_linker_0, # of connection points: 2
#     Edge 35, Type (0, 1), BuildingBlock: AJUNOK_clean_linker_0, # of connection points: 2
# Relax obj value: 0.273
# Max RMSD: 0.239
# Mean RMSD: 0.173
data_MOF--net-pyr--node1-GEDQOX_clean_sbu_0--node2-CUQRIR_clean_linker_1--edge1-AJUNOK_clean_linker_0
_symmetry_space_group_name_H-M    P1
_symmetry_Int_Tables_number       1
_symmetry_cell_setting            triclinic
loop_
_symmetry_equiv_pos_as_xyz
'x, y, z'
_cell_length_a     26.745525
_cell_length_b     26.674958
_cell_length_c     22.671076
_cell_angle_alpha  86.276363
_cell_angle_beta   91.638312
_cell_angle_gamma 87.718692
loop_
_atom_site_label
_atom_site_type_symbol
_atom_site_fract_x
_atom_site_fract_y
_atom_site_fract_z
_atom_type_partial_charge
C0 C 0.21606 0.22327 0.21479 0.0
N1 N 0.24837 0.1814 0.22587 0.0
N2 N 0.22746 0.25341 0.1658 0.0
C3 C 0.17229 0.23529 0.25271 0.0
C4 C 0.2689 0.22705 0.14682 0.0
N5 N 0.28327 0.18428 0.18277 0.0
C6 C 0.29209 0.23956 0.08818 0.0
H7 H 0.13868 0.21752 0.23507 0.0
H8 H 0.16452 0.27645 0.2522 0.0
H9 H 0.1785 0.22101 0.29929 0.0
H10 H 0.32576 0.26169 0.09487 0.0
H11 H 0.26535 0.26178 0.05747 0.0
H12 H 0.30402 0.20469 0.06736 0.0
C13 C 0.43884 0.7602 0.80914 0.0
N14 N 0.43042 0.80146 0.83971 0.0
N15 N 0.48811 0.74661 0.811 0.0
C16 C 0.40007 0.73886 0.76878 0.0
C17 C 0.50965 0.78195 0.84238 0.0
N18 N 0.47454 0.8156 0.85947 0.0
C19 C 0.56489 0.7836 0.85551 0.0
H20 H 0.37478 0.71558 0.79598 0.0
H21 H 0.41671 0.71549 0.73524 0.0
H22 H 0.37697 0.76942 0.74461 0.0
H23 H 0.58259 0.80488 0.81857 0.0
H24 H 0.58218 0.74496 0.85938 0.0
H25 H 0.57229 0.80251 0.89686 0.0
C26 C 0.7789 0.39953 0.81137 0.0
N27 N 0.81519 0.3977 0.85427 0.0
N28 N 0.78639 0.437 0.77012 0.0
C29 C 0.73361 0.36741 0.81275 0.0
C30 C 0.82759 0.45902 0.79029 0.0
N31 N 0.84531 0.43508 0.84177 0.0
C32 C 0.8512 0.50284 0.75845 0.0
H33 H 0.74383 0.33032 0.79603 0.0
H34 H 0.70184 0.38497 0.78535 0.0
H35 H 0.7207 0.36092 0.85847 0.0
H36 H 0.8427 0.50356 0.7102 0.0
H37 H 0.89238 0.50101 0.76651 0.0
H38 H 0.83571 0.53831 0.77499 0.0
C39 C 0.82142 0.89948 0.27401 0.0
N40 N 0.87179 0.89758 0.27112 0.0
N41 N 0.80512 0.93455 0.31081 0.0
C42 C 0.78859 0.86176 0.24678 0.0
C43 C 0.84723 0.95991 0.32037 0.0
N44 N 0.88796 0.93617 0.29924 0.0
C45 C 0.84961 1.00306 0.3599 0.0
H46 H 0.75549 0.88147 0.22406 0.0
H47 H 0.77553 0.83449 0.28144 0.0
H48 H 0.80891 0.84071 0.21358 0.0
H49 H 0.8726 0.99178 0.40047 0.0
H50 H 0.81156 1.01591 0.37228 0.0
H51 H 0.86806 0.0347 0.33637 0.0
C52 C 0.88141 0.86635 0.928 0.0
N53 N 0.92221 0.85611 0.89302 0.0
N54 N 0.85517 0.91074 0.91119 0.0
C55 C 0.8668 0.83314 0.98037 0.0
C56 C 0.88303 0.92791 0.8643 0.0
N57 N 0.92309 0.89566 0.85149 0.0
C58 C 0.87403 0.97995 0.83514 0.0
H59 H 0.82551 0.83038 0.98035 0.0
H60 H 0.87828 0.85066 1.02143 0.0
H61 H 0.88457 0.7949 0.98167 0.0
H62 H 0.8549 1.00506 0.86534 0.0
H63 H 0.84966 0.97826 0.79499 0.0
H64 H 0.90983 0.99649 0.82214 0.0
C65 C 0.73824 0.33608 0.30442 0.0
N66 N 0.74561 0.29411 0.27488 0.0
N67 N 0.69174 0.35661 0.29237 0.0
C68 C 0.77365 0.35228 0.35206 0.0
C69 C 0.67097 0.32543 0.25492 0.0
N70 N 0.70348 0.28701 0.24471 0.0
C71 C 0.61824 0.33194 0.22994 0.0
H72 H 0.75457 0.37585 0.38377 0.0
H73 H 0.80339 0.37426 0.33082 0.0
H74 H 0.79199 0.31924 0.37738 0.0
H75 H 0.60645 0.37241 0.22525 0.0
H76 H 0.59253 0.31257 0.26054 0.0
H77 H 0.6151 0.31549 0.18632 0.0
C78 C 0.33493 0.60584 0.2636 0.0
N79 N 0.37729 0.6296 0.27579 0.0
N80 N 0.317 0.6207 0.20847 0.0
C81 C 0.30969 0.57073 0.30667 0.0
C82 C 0.35004 0.65375 0.18747 0.0
N83 N 0.3868 0.65896 0.22825 0.0
C84 C 0.34381 0.6842 0.12923 0.0
H85 H 0.27578 0.55524 0.28662 0.0
H86 H 0.2993 0.59115 0.34594 0.0
H87 H 0.33611 0.53921 0.32213 0.0
H88 H 0.3145 0.71434 0.13309 0.0
H89 H 0.33132 0.66024 0.09393 0.0
H90 H 0.37924 0.70152 0.11624 0.0
C91 C 0.2948 0.16349 0.8108 0.0
N92 N 0.29582 0.1524 0.75338 0.0
N93 N 0.30593 0.21212 0.81689 0.0
C94 C 0.27494 0.12962 0.8594 0.0
C95 C 0.31272 0.23053 0.76053 0.0
N96 N 0.30842 0.19367 0.72269 0.0
C97 C 0.3021 0.28692 0.73659 0.0
H98 H 0.23395 0.13692 0.86186 0.0
H99 H 0.29257 0.13741 0.90259 0.0
H100 H 0.28199 0.08957 0.85048 0.0
H101 H 0.30766 0.30836 0.77713 0.0
H102 H 0.22881 0.31425 0.65747 0.0
H103 H 0.34136 0.29561 0.72367 0.0
Nd104 Nd 0.13149 0.97402 0.53451 0.0
Nd105 Nd 0.07329 0.05638 0.53189 0.0
C106 C 0.17712 0.88539 0.55346 0.0
C107 C 0.20198 0.87299 0.61129 0.0
C108 C 0.22973 0.82796 0.62464 0.0
C109 C 0.25749 0.82123 0.67814 0.0
C110 C 0.25757 0.85958 0.71807 0.0
C111 C 0.22791 0.90334 0.70576 0.0
C112 C 0.20039 0.9099 0.65285 0.0
C113 C 0.17921 0.04418 0.5964 0.0
C114 C 1.04571 0.97104 0.64092 0.0
C115 C 1.01248 0.13613 0.53378 0.0
C116 C 0.97703 0.15517 0.48612 0.0
C117 C 0.9662 0.20677 0.4754 0.0
C118 C 0.93203 0.2239 0.42997 0.0
C119 C 0.90843 0.18953 0.39495 0.0
C120 C 0.92055 0.1381 0.40459 0.0
C121 C 0.95455 0.12106 0.44974 0.0
C122 C 1.0479 0.99957 0.4381 0.0
C123 C 0.16171 0.06157 0.43279 0.0
O124 O 0.12863 0.8915 0.55497 0.0
O125 O 0.19695 0.92203 0.52266 0.0
O126 O 0.1991 1.01923 0.55576 0.0
O127 O 0.13362 0.0349 0.60134 0.0
O128 O 0.08774 0.94971 0.6226 0.0
O129 O 1.02981 1.01322 0.61023 0.0
O130 O 1.05992 0.13959 0.52267 0.0
O131 O 1.00236 0.09235 0.55839 0.0
O132 O 1.05448 0.04708 0.43355 0.0
O133 O 1.05551 0.9831 0.49078 0.0
O134 O 0.13949 0.08853 0.47296 0.0
O135 O 0.1563 1.01189 0.44058 0.0
H136 H 0.23164 0.79926 0.59301 0.0
H137 H 0.28134 0.7876 0.6867 0.0
H138 H 0.22843 0.93365 0.73536 0.0
H139 H 0.17986 0.94519 0.64318 0.0
H140 H 0.98353 0.2336 0.50257 0.0
H141 H 0.92274 0.26382 0.42344 0.0
H142 H 0.90299 0.11109 0.37792 0.0
H143 H 0.96259 0.08097 0.45676 0.0
Nd144 Nd 0.57146 1.025 0.10404 0.0
Nd145 Nd 0.57943 0.07811 1.01972 0.0
C146 C 0.58398 0.96227 0.19863 0.0
C147 C 0.56476 0.91243 0.21184 0.0
C148 C 0.57481 0.87307 0.175 0.0
C149 C 0.55241 0.82731 0.18502 0.0
C150 C 0.51966 0.82059 0.23166 0.0
C151 C 0.5115 0.85894 0.27018 0.0
C152 C 0.53383 0.90475 0.2602 0.0
C153 C 0.47575 0.07769 0.10137 0.0
C154 C 0.52089 0.98332 0.993 0.0
C155 C 0.58755 0.1604 0.95005 0.0
C156 C 0.63167 0.19144 0.94553 0.0
C157 C 0.62562 0.24387 0.94282 0.0
C158 C 0.66734 0.27347 0.9469 0.0
C159 C 0.71597 0.25116 0.95458 0.0
C160 C 0.72185 0.19851 0.95642 0.0
C161 C 0.68011 0.16893 0.95247 0.0
C162 C 0.65876 1.00581 1.00176 0.0
C163 C 0.63587 0.11614 0.12928 0.0
O164 O 0.61656 0.9661 0.15725 0.0
O165 O 0.55037 0.99883 0.19434 0.0
O166 O 0.48302 1.02902 0.10333 0.0
O167 O 0.51884 0.09664 0.09116 0.0
O168 O 0.54704 0.96777 0.04039 0.0
O169 O 0.5192 1.03149 0.97751 0.0
O170 O 0.56643 0.16036 1.00098 0.0
O171 O 0.59192 0.11546 0.93104 0.0
O172 O 0.6231 1.02121 0.96402 0.0
O173 O 0.64789 1.02498 0.0515 0.0
O174 O 0.64229 0.11227 0.07313 0.0
O175 O 0.60212 0.08882 0.15367 0.0
H176 H 0.59841 0.8781 0.13721 0.0
H177 H 0.55821 0.79838 0.15421 0.0
H178 H 0.48602 0.85417 0.30625 0.0
H179 H 0.526 0.93462 0.28923 0.0
H180 H 0.58856 0.26191 0.9383 0.0
H181 H 0.66144 0.31395 0.9426 0.0
H182 H 0.75872 0.18016 0.96149 0.0
H183 H 0.6857 0.12838 0.95609 0.0
Nd184 Nd 0.53212 0.5175 0.55803 0.0
Nd185 Nd 0.61567 0.58876 0.5241 0.0
C186 C 0.44592 0.47626 0.57844 0.0
C187 C 0.42063 0.42905 0.57264 0.0
C188 C 0.36917 0.43099 0.55933 0.0
C189 C 0.34245 0.38718 0.5637 0.0
C190 C 0.36685 0.34089 0.582 0.0
C191 C 0.41911 0.33848 0.59083 0.0
C192 C 0.4459 0.38236 0.58608 0.0
C193 C 0.62262 0.49182 0.61093 0.0
C194 C 0.54725 0.62216 0.62771 0.0
C195 C 0.69853 0.63395 0.49725 0.0
C196 C 0.7116 0.68627 0.4837 0.0
C197 C 0.70669 0.72295 0.52539 0.0
C198 C 0.71463 0.77338 0.50898 0.0
C199 C 0.72649 0.78742 0.45065 0.0
C200 C 0.73271 0.75064 0.40969 0.0
C201 C 0.72577 0.70043 0.42621 0.0
C202 C 0.52494 0.60878 0.46513 0.0
C203 C 0.60821 0.48217 0.46214 0.0
O204 O 0.48296 0.4753 0.61754 0.0
O205 O 0.45398 0.50345 0.52973 0.0
O206 O 0.59166 0.45848 0.59468 0.0
O207 O 0.60394 0.53584 0.60272 0.0
O208 O 0.51664 0.58724 0.61175 0.0
O209 O 0.59036 0.62907 0.60284 0.0
O210 O 0.66913 0.61529 0.45791 0.0
O211 O 0.68697 0.62109 0.55171 0.0
O212 O 0.55352 0.64424 0.48089 0.0
O213 O 0.54611 0.56681 0.47814 0.0
O214 O 0.63832 0.51471 0.48425 0.0
O215 O 0.56175 0.47795 0.47931 0.0
H216 H 0.34921 0.4667 0.54843 0.0
H217 H 0.30225 0.38986 0.55581 0.0
H218 H 0.43881 0.30338 0.60527 0.0
H219 H 0.48583 0.3801 0.59598 0.0
H220 H 0.69583 0.71297 0.57015 0.0
H221 H 0.71047 0.80142 0.54118 0.0
H222 H 0.74287 0.76088 0.36468 0.0
H223 H 0.73015 0.67279 0.39354 0.0
Nd224 Nd 1.03914 0.549 0.06751 0.0
Nd225 Nd 0.10687 0.55697 0.97699 0.0
C226 C 0.96243 0.56009 0.13537 0.0
C227 C 0.94763 0.60763 0.16164 0.0
C228 C 0.92469 0.64795 0.12632 0.0
C229 C 0.92006 0.6958 0.14765 0.0
C230 C 0.93812 0.70438 0.20471 0.0
C231 C 0.96017 0.66403 0.24046 0.0
C232 C 0.96445 0.61608 0.21937 0.0
C233 C 0.12531 0.58761 0.10698 0.0
C234 C 1.03142 0.65682 0.97338 0.0
C235 C 0.18185 0.53985 0.90821 0.0
C236 C 0.20151 0.48811 0.90411 0.0
C237 C 0.2507 0.47712 0.88839 0.0
C238 C 0.26902 0.42703 0.89105 0.0
C239 C 0.23907 0.38759 0.91212 0.0
C240 C 0.19023 0.39948 0.92907 0.0
C241 C 0.17127 0.44878 0.92324 0.0
C242 C 1.01937 0.51404 0.94503 0.0
C243 C 0.11954 0.45202 0.07138 0.0
O244 O 0.95709 0.55942 0.07782 0.0
O245 O 1.00525 0.53949 0.15524 0.0
O246 O 0.10041 0.55523 0.13729 0.0
O247 O 0.10442 0.60102 0.0575 0.0
O248 O 1.00796 0.62496 1.01047 0.0
O249 O 0.07691 0.6417 0.95764 0.0
O250 O 0.18836 0.5571 0.96029 0.0
O251 O 0.13612 0.54844 0.88728 0.0
O252 O 1.03753 0.55192 0.9157 0.0
O253 O 1.04503 0.50155 0.99115 0.0
O254 O 0.14267 0.48624 1.0377 0.0
O255 O 0.07224 0.46427 0.08369 0.0
H256 H 0.91168 0.64304 0.08146 0.0
H257 H 0.90213 0.72612 0.11957 0.0
H258 H 0.97468 0.66969 0.28452 0.0
H259 H 0.98283 0.58604 0.24745 0.0
H260 H 0.27462 0.50698 0.87371 0.0
H261 H 0.30607 0.41932 0.87503 0.0
H262 H 0.16607 0.37053 0.94578 0.0
H263 H 0.13282 0.45628 0.93486 0.0
C264 C 0.20749 0.10224 0.27004 0.0
C265 C 0.2402 0.14282 0.27632 0.0
C266 C 0.18491 0.07502 0.31943 0.0
C267 C 0.19095 0.08747 0.37956 0.0
H268 H 0.19709 0.09276 0.22577 0.0
H269 H 0.16003 0.0454 0.30972 0.0
S270 S 0.27169 0.19056 0.42333 0.0
N271 N 0.27714 0.1923 0.35079 0.0
N272 N 0.23412 0.14447 0.44051 0.0
C273 C 0.22386 0.12757 0.38646 0.0
C274 C 0.24821 0.15395 0.33651 0.0
C275 C 0.46247 0.86544 0.94582 0.0
C276 C 0.48265 0.86032 0.89 0.0
C277 C 0.47281 0.90714 0.9781 0.0
C278 C 0.50182 0.9459 0.95428 0.0
H279 H 0.44037 0.83595 0.96544 0.0
H280 H 0.45916 0.90851 1.02254 0.0
S281 S 0.56055 0.95138 0.80818 0.0
N282 N 0.5319 0.89759 0.81157 0.0
N283 N 0.54908 0.97738 0.87085 0.0
C284 C 0.52021 0.94225 0.89734 0.0
C285 C 0.51123 0.89901 0.86549 0.0
C286 C 0.72856 0.50153 0.722 0.0
C287 C 0.75278 0.45395 0.72206 0.0
C288 C 0.6877 0.51451 0.68347 0.0
C289 C 0.66945 0.47978 0.64487 0.0
H290 H 0.73943 0.52756 0.75429 0.0
H291 H 0.66865 0.55086 0.68631 0.0
S292 S 0.72465 0.35301 0.6232 0.0
N293 N 0.76003 0.37451 0.67609 0.0
N294 N 0.68174 0.39801 0.60476 0.0
C295 C 0.69529 0.43327 0.64213 0.0
C296 C 0.73751 0.4206 0.68045 0.0
C297 C 0.9271 0.84645 0.21154 0.0
C298 C 0.89991 0.85152 0.26291 0.0
C299 C 0.942 0.79858 0.1942 0.0
C300 C 0.93034 0.75458 0.22811 0.0
H301 H 0.93366 0.87933 0.18268 0.0
H302 H 0.96081 0.79583 0.15277 0.0
S303 S 0.86133 0.74845 0.36765 0.0
N304 N 0.86318 0.80897 0.34823 0.0
N305 N 0.89197 0.71963 0.31664 0.0
C306 C 0.90583 0.75959 0.28139 0.0
C307 C 0.89044 0.80793 0.29859 0.0
C308 C 0.33391 0.1049 0.15214 0.0
C309 C 0.33182 0.15402 0.17384 0.0
C310 C 0.37926 0.08121 0.1302 0.0
C311 C 0.42654 0.10483 0.12579 0.0
H312 H 0.29963 0.08476 0.15025 0.0
H313 H 0.37667 0.04376 0.11493 0.0
S314 S 0.44385 0.23346 0.17637 0.0
N315 N 0.38435 0.22432 0.1896 0.0
N316 N 0.46594 0.18194 0.14782 0.0
C317 C 0.42478 0.15379 0.14753 0.0
C318 C 0.37911 0.17742 0.17099 0.0
C319 C 0.34002 0.81083 0.8474 0.0
C320 C 0.38539 0.83245 0.83201 0.0
C321 C 0.29616 0.8228 0.81328 0.0
C322 C 0.29648 0.85842 0.76505 0.0
H323 H 0.34037 0.77918 0.87986 0.0
H324 H 0.26335 0.8011 0.82127 0.0
S325 S 0.40242 0.93406 0.71619 0.0
N326 N 0.42568 0.89646 0.77174 0.0
N327 N 0.34256 0.92171 0.71037 0.0
C328 C 0.33935 0.88599 0.75556 0.0
C329 C 0.38409 0.87277 0.78909 0.0
C330 C 0.88605 0.5011 0.89348 0.0
C331 C 0.88573 0.45081 0.8784 0.0
C332 C 0.92932 0.521 0.9169 0.0
C333 C 0.97301 0.49069 0.92793 0.0
H334 H 0.85328 0.5258 0.88412 0.0
H335 H 0.92898 0.56057 0.92518 0.0
S336 S 0.99027 0.35573 0.90158 0.0
N337 N 0.93203 0.37068 0.87866 0.0
N338 N 1.01279 0.40739 0.92662 0.0
C339 C 0.97221 0.43951 0.91735 0.0
C340 C 0.92851 0.41959 0.89178 0.0
C341 C 0.79834 0.9006 0.41359 0.0
C342 C 0.77434 0.91852 0.35935 0.0
C343 C 0.77877 0.86169 0.44889 0.0
C344 C 0.73461 0.8399 0.43112 0.0
H345 H 0.83582 0.91123 0.4248 0.0
H346 H 0.80142 0.84453 0.48576 0.0
S347 S 0.65131 0.88213 0.30429 0.0
N348 N 0.69827 0.92023 0.29906 0.0
N349 N 0.6625 0.8447 0.36419 0.0
C350 C 0.70638 0.86279 0.38315 0.0
C351 C 0.72578 0.90326 0.34793 0.0
C352 C 0.14785 0.3099 0.13633 0.0
C353 C 0.20119 0.30234 0.14061 0.0
C354 C 0.12233 0.35694 0.1153 0.0
C355 C 0.14759 0.40061 0.09499 0.0
H356 H 0.1249 0.27882 0.14915 0.0
H357 H 0.08181 0.35868 0.11428 0.0
S358 S 0.287 0.40409 0.09522 0.0
N359 N 0.27758 0.34652 0.12278 0.0
N360 N 0.23097 0.43102 0.08063 0.0
C361 C 0.20081 0.39334 0.09778 0.0
C362 C 0.22687 0.34594 0.12072 0.0
C363 C 0.8275 0.31083 0.88916 0.0
C364 C 0.81839 0.36082 0.90323 0.0
C365 C 0.79814 0.27252 0.91248 0.0
C366 C 0.76023 0.2832 0.95213 0.0
H367 H 0.85019 0.3032 0.8517 0.0
H368 H 0.80061 0.23654 0.89298 0.0
S369 S 0.74004 0.40308 1.02355 0.0
N370 N 0.78185 0.41554 0.9729 0.0
N371 N 0.72852 0.34289 1.02025 0.0
C372 C 0.7598 0.33025 0.97693 0.0
C373 C 0.78918 0.36931 0.95214 0.0
C374 C 0.96393 0.98375 0.30483 0.0
C375 C 0.93765 0.9413 0.32302 0.0
C376 C 1.00286 1.00037 0.34032 0.0
C377 C 1.01649 0.97491 0.39512 0.0
H378 H 0.95131 1.00656 0.26556 0.0
H379 H 1.01991 0.03526 0.3267 0.0
S380 S 0.96213 0.85889 0.45962 0.0
N381 N 0.92993 0.87267 0.39716 0.0
N382 N 1.00437 0.90213 0.46265 0.0
C383 C 0.99352 0.92986 0.41107 0.0
C384 C 0.95362 0.91349 0.37529 0.0
C385 C 0.53915 0.7317 0.72531 0.0
C386 C 0.51146 0.7126 0.77274 0.0
C387 C 0.55116 0.70187 0.67873 0.0
C388 C 0.53474 0.65246 0.6776 0.0
H389 H 0.54904 0.77073 0.72265 0.0
H390 H 0.57172 0.71825 0.64228 0.0
S391 S 0.46517 0.5841 0.79463 0.0
N392 N 0.47174 0.64065 0.81877 0.0
N393 N 0.49287 0.58456 0.73041 0.0
C394 C 0.5089 0.63234 0.72615 0.0
C395 C 0.49787 0.66237 0.77412 0.0
C396 C 0.9345 0.92417 0.74204 0.0
C397 C 0.9559 0.90552 0.79831 0.0
C398 C 0.96279 0.94493 0.69353 0.0
C399 C 1.01587 0.94732 0.69508 0.0
H400 H 0.8943 0.92398 0.73549 0.0
H401 H 0.94231 0.95914 0.65364 0.0
S402 S 0.09398 0.90196 0.82858 0.0
N403 N 1.0365 0.89174 0.85005 0.0
N404 N 0.08874 0.92584 0.75943 0.0
C405 C 1.03841 0.9266 0.74982 0.0
C406 C 1.00922 0.90711 0.80043 0.0
C407 C 0.65003 0.21483 0.23911 0.0
C408 C 0.69088 0.24146 0.21844 0.0
C409 C 0.63426 0.1728 0.21147 0.0
C410 C 0.6587 0.15595 0.16186 0.0
H411 H 0.62978 0.2271 0.27662 0.0
H412 H 0.60142 0.15465 0.2279 0.0
S413 S 0.77271 0.20852 0.09698 0.0
N414 N 0.75889 0.24564 0.15027 0.0
N415 N 0.72949 0.16586 0.09754 0.0
C416 C 0.70149 0.18061 0.14284 0.0
C417 C 0.71765 0.22351 0.17148 0.0
C418 C 0.43472 0.57808 0.34276 0.0
C419 C 0.40817 0.62377 0.32895 0.0
C420 C 0.47119 0.5735 0.38833 0.0
C421 C 0.48318 0.61487 0.42098 0.0
H422 H 0.4287 0.54635 0.31633 0.0
H423 H 0.49151 0.53764 0.39632 0.0
S424 S 0.42063 0.74157 0.40522 0.0
N425 N 0.39229 0.70978 0.35474 0.0
N426 N 0.46332 0.70217 0.43859 0.0
C427 C 0.45572 0.66042 0.40883 0.0
C428 C 0.41754 0.66462 0.36326 0.0
C429 C 0.23767 0.25519 0.86406 0.0
C430 C 0.2889 0.24256 0.86258 0.0
C431 C 0.22114 0.30044 0.88593 0.0
C432 C 0.25546 0.33405 0.90789 0.0
H433 H 0.21094 0.23338 0.84105 0.0
H434 H 0.18186 0.31123 0.87911 0.0
S435 S 0.39191 0.30789 0.9327 0.0
N436 N 0.37257 0.25985 0.89691 0.0
N437 N 0.34148 0.344 0.94206 0.0
C438 C 0.30592 0.31726 0.91581 0.0
C439 C 0.32269 0.27149 0.89233 0.0
C440 C 0.79965 0.94334 0.99572 0.0
C441 C 0.80691 0.93349 0.93495 0.0
C442 C 0.7536 0.96603 1.0175 0.0
C443 C 0.71026 0.98047 0.98069 0.0
H444 H 0.83029 0.93414 1.02724 0.0
H445 H 0.75221 0.97228 0.06413 0.0
S446 S 0.70651 0.96091 0.81859 0.0
N447 N 0.76337 0.93938 0.83964 0.0
N448 N 0.68017 0.98024 0.87852 0.0
C449 C 0.71728 0.96992 0.92018 0.0
C450 C 0.76391 0.94733 0.89817 0.0
C451 C 0.8349 0.27097 0.27812 0.0
C452 C 0.78562 0.25754 0.28896 0.0
C453 C 0.87543 0.24641 0.30984 0.0
C454 C 0.86768 0.20722 0.3526 0.0
H455 H 0.84154 0.30368 0.249 0.0
H456 H 0.91264 0.26006 0.3035 0.0
S457 S 0.74602 0.15487 0.39275 0.0
N458 N 0.73148 0.20082 0.34212 0.0
N459 N 0.80767 0.153 0.40019 0.0
C460 C 0.81895 0.19045 0.3598 0.0
C461 C 0.77778 0.216 0.32816 0.0
C462 C 0.26434 0.58784 0.13104 0.0
C463 C 0.26869 0.6135 0.18282 0.0
C464 C 0.21742 0.58236 0.10404 0.0
C465 C 0.17395 0.60289 0.1279 0.0
H466 H 0.29737 0.57136 0.11213 0.0
H467 H 0.21502 0.55987 0.06624 0.0
S468 S 0.16624 0.6741 0.26228 0.0
N469 N 0.22666 0.66068 0.25619 0.0
N470 N 0.13786 0.64936 0.20602 0.0
C471 C 0.17797 0.62891 0.17939 0.0
C472 C 0.22566 0.63463 0.20669 0.0
C473 C 0.33219 0.20454 0.62066 0.0
C474 C 0.29395 0.20722 0.66223 0.0
C475 C 0.35205 0.24731 0.59018 0.0
C476 C 0.33708 0.29742 0.60004 0.0
H477 H 0.3532 0.16922 0.61886 0.0
H478 H 0.38383 0.2408 0.5627 0.0
S479 S 0.22707 0.33844 0.73821 0.0
N480 N 0.22503 0.26222 0.71461 0.0
N481 N 0.28223 0.35374 0.67361 0.0
C482 C 0.29641 0.30408 0.6351 0.0
C483 C 0.26319 0.24994 0.65926 0.0
C484 C 0.9999 0.80415 0.93674 0.0
C485 C 0.95447 0.80799 0.90166 0.0
C486 C 1.02502 0.75667 0.95735 0.0
C487 C 1.00549 0.70865 0.94778 0.0
H488 H 1.01561 0.8384 0.95057 0.0
H489 H 1.05937 0.75786 0.98356 0.0
S490 S 0.88592 0.69498 0.8629 0.0
N491 N 0.89127 0.75659 0.86044 0.0
N492 N 0.93556 0.67014 0.90081 0.0
C493 C 0.95974 0.71201 0.91378 0.0
C494 C 0.93524 0.76017 0.89095 0.0
C495 C 0.40287 0.74822 0.22495 0.0
C496 C 0.42143 0.69828 0.22718 0.0
C497 C 0.43528 0.78744 0.22815 0.0
C498 C 0.48722 0.77776 0.23342 0.0
H499 H 0.36291 0.7567 0.22188 0.0
H500 H 0.41966 0.82567 0.22558 0.0
S501 S 0.55395 0.65308 0.24143 0.0
N502 N 0.49407 0.64057 0.23503 0.0
N503 N 0.55598 0.71497 0.24104 0.0
C504 C 0.50635 0.72792 0.23554 0.0
C505 C 0.4731 0.68788 0.23249 0.0
C506 C 0.21537 0.11795 0.72687 0.0
C507 C 0.26794 0.11475 0.72651 0.0
C508 C 0.18663 0.09354 0.68576 0.0
C509 C 0.20976 0.06601 0.64254 0.0
H510 H 0.19657 0.14249 0.75618 0.0
H511 H 0.14622 0.09833 0.68597 0.0
S512 S 0.34664 0.04364 0.62708 0.0
N513 N 0.3419 0.07955 0.68344 0.0
N514 N 0.28864 0.03399 0.60507 0.0
C515 C 0.26242 0.06047 0.64403 0.0
C516 C 0.29133 0.08475 0.68642 0.0
C517 C 0.62872 0.37323 0.36597 0.0
C518 C 0.66572 0.39083 0.32798 0.0
C519 C 0.60911 0.4035 0.4086 0.0
C520 C 0.62684 0.45174 0.41509 0.0
H521 H 0.61662 0.33508 0.36436 0.0
H522 H 0.58147 0.38833 0.43808 0.0
S523 S 0.72058 0.51587 0.32247 0.0
N524 N 0.71677 0.45978 0.29622 0.0
N525 N 0.68089 0.51702 0.37691 0.0
C526 C 0.66259 0.47027 0.37573 0.0
C527 C 0.68177 0.43969 0.3319 0.0
loop_
_geom_bond_atom_site_label_1
_geom_bond_atom_site_label_2
_geom_bond_distance
_geom_bond_site_symmetry_2
_ccdc_geom_bond_type
C0 N1 1.317 . S
C0 N2 1.348 . S
C0 C3 1.485 . S
N1 C0 1.317 . S
N1 N5 1.370 . S
N2 C0 1.348 . S
N2 C4 1.346 . S
C3 C0 1.485 . S
C3 H7 0.960 . S
C3 H8 0.961 . S
C3 H9 0.960 . S
C4 N2 1.346 . S
C4 N5 1.307 . S
C4 C6 1.486 . S
N5 N1 1.370 . S
N5 C4 1.307 . S
C6 C4 1.486 . S
C6 H10 0.960 . S
C6 H11 0.960 . S
C6 H12 0.959 . S
H7 C3 0.960 . S
H8 C3 0.961 . S
H9 C3 0.960 . S
H10 C6 0.960 . S
H11 C6 0.960 . S
H12 C6 0.959 . S
C13 N14 1.317 . S
C13 N15 1.348 . S
C13 C16 1.485 . S
N14 C13 1.317 . S
N14 N18 1.370 . S
N15 C13 1.348 . S
N15 C17 1.346 . S
C16 C13 1.485 . S
C16 H20 0.960 . S
C16 H21 0.961 . S
C16 H22 0.960 . S
C17 N15 1.346 . S
C17 N18 1.307 . S
C17 C19 1.486 . S
N18 N14 1.370 . S
N18 C17 1.307 . S
C19 C17 1.486 . S
C19 H23 0.960 . S
C19 H24 0.960 . S
C19 H25 0.959 . S
H20 C16 0.960 . S
H21 C16 0.961 . S
H22 C16 0.960 . S
H23 C19 0.960 . S
H24 C19 0.960 . S
H25 C19 0.959 . S
C26 N27 1.317 . S
C26 N28 1.348 . S
C26 C29 1.485 . S
N27 C26 1.317 . S
N27 N31 1.370 . S
N28 C26 1.348 . S
N28 C30 1.346 . S
C29 C26 1.485 . S
C29 H33 0.960 . S
C29 H34 0.961 . S
C29 H35 0.960 . S
C30 N28 1.346 . S
C30 N31 1.307 . S
C30 C32 1.486 . S
N31 N27 1.370 . S
N31 C30 1.307 . S
C32 C30 1.486 . S
C32 H36 0.960 . S
C32 H37 0.960 . S
C32 H38 0.959 . S
H33 C29 0.960 . S
H34 C29 0.961 . S
H35 C29 0.960 . S
H36 C32 0.960 . S
H37 C32 0.960 . S
H38 C32 0.959 . S
C39 N40 1.317 . S
C39 N41 1.348 . S
C39 C42 1.485 . S
N40 C39 1.317 . S
N40 N44 1.370 . S
N41 C39 1.348 . S
N41 C43 1.346 . S
C42 C39 1.485 . S
C42 H46 0.960 . S
C42 H47 0.961 . S
C42 H48 0.960 . S
C43 N41 1.346 . S
C43 N44 1.307 . S
C43 C45 1.486 . S
N44 N40 1.370 . S
N44 C43 1.307 . S
C45 C43 1.486 . S
C45 H49 0.960 . S
C45 H50 0.960 . S
C45 H51 0.959 . S
H46 C42 0.960 . S
H47 C42 0.961 . S
H48 C42 0.960 . S
H49 C45 0.960 . S
H50 C45 0.960 . S
H51 C45 0.959 . S
C52 N53 1.317 . S
C52 N54 1.348 . S
C52 C55 1.485 . S
N53 C52 1.317 . S
N53 N57 1.370 . S
N54 C52 1.348 . S
N54 C56 1.346 . S
C55 C52 1.485 . S
C55 H59 0.960 . S
C55 H60 0.961 . S
C55 H61 0.960 . S
C56 N54 1.346 . S
C56 N57 1.307 . S
C56 C58 1.486 . S
N57 N53 1.370 . S
N57 C56 1.307 . S
C58 C56 1.486 . S
C58 H62 0.960 . S
C58 H63 0.960 . S
C58 H64 0.959 . S
H59 C55 0.960 . S
H60 C55 0.961 . S
H61 C55 0.960 . S
H62 C58 0.960 . S
H63 C58 0.960 . S
H64 C58 0.959 . S
C65 N66 1.317 . S
C65 N67 1.348 . S
C65 C68 1.485 . S
N66 C65 1.317 . S
N66 N70 1.370 . S
N67 C65 1.348 . S
N67 C69 1.346 . S
C68 C65 1.485 . S
C68 H72 0.960 . S
C68 H73 0.961 . S
C68 H74 0.960 . S
C69 N67 1.346 . S
C69 N70 1.307 . S
C69 C71 1.486 . S
N70 N66 1.370 . S
N70 C69 1.307 . S
C71 C69 1.486 . S
C71 H75 0.960 . S
C71 H76 0.960 . S
C71 H77 0.959 . S
H72 C68 0.960 . S
H73 C68 0.961 . S
H74 C68 0.960 . S
H75 C71 0.960 . S
H76 C71 0.960 . S
H77 C71 0.959 . S
C78 N79 1.317 . S
C78 N80 1.348 . S
C78 C81 1.485 . S
N79 C78 1.317 . S
N79 N83 1.370 . S
N80 C78 1.348 . S
N80 C82 1.346 . S
C81 C78 1.485 . S
C81 H85 0.960 . S
C81 H86 0.961 . S
C81 H87 0.960 . S
C82 N80 1.346 . S
C82 N83 1.307 . S
C82 C84 1.486 . S
N83 N79 1.370 . S
N83 C82 1.307 . S
C84 C82 1.486 . S
C84 H88 0.960 . S
C84 H89 0.960 . S
C84 H90 0.959 . S
H85 C81 0.960 . S
H86 C81 0.961 . S
H87 C81 0.960 . S
H88 C84 0.960 . S
H89 C84 0.960 . S
H90 C84 0.959 . S
C91 N92 1.317 . S
C91 N93 1.348 . S
C91 C94 1.485 . S
N92 C91 1.317 . S
N92 N96 1.370 . S
N93 C91 1.348 . S
N93 C95 1.346 . S
C94 C91 1.485 . S
C94 H98 0.960 . S
C94 H99 0.961 . S
C94 H100 0.960 . S
C95 N93 1.346 . S
C95 N96 1.307 . S
C95 C97 1.486 . S
N96 N92 1.370 . S
N96 C95 1.307 . S
C97 C95 1.486 . S
C97 H101 0.960 . S
C97 H102 0.960 . S
C97 H103 0.959 . S
H98 C94 0.960 . S
H99 C94 0.961 . S
H100 C94 0.960 . S
H101 C97 0.960 . S
H102 C97 0.960 . S
H103 C97 0.959 . S
Nd104 C106 2.836 . S
Nd104 O124 2.500 . S
Nd104 O125 2.492 . S
Nd104 O126 2.487 1_565 S
Nd104 O127 2.682 1_565 S
Nd104 O128 2.410 . S
Nd104 O133 2.414 . S
Nd104 O135 2.424 1_565 S
Nd105 C115 2.836 . S
Nd105 O127 2.414 1_655 S
Nd105 O129 2.424 1_545 S
Nd105 O130 2.500 . S
Nd105 O131 2.492 . S
Nd105 O132 2.487 1_545 S
Nd105 O133 2.682 1_645 S
Nd105 O134 2.410 1_655 S
C106 Nd104 2.836 . S
C106 C107 1.498 . S
C106 O124 1.258 . S
C106 O125 1.239 . S
C107 C106 1.498 . S
C107 C108 1.366 . S
C107 C112 1.407 . S
C108 C107 1.366 . S
C108 C109 1.392 . S
C108 H136 0.930 . S
C109 C108 1.392 . S
C109 C110 1.398 . S
C109 H137 0.929 . S
C110 C109 1.398 . S
C110 C111 1.352 . S
C111 C110 1.352 . S
C111 C112 1.384 . S
C111 H138 0.930 . S
C112 C107 1.407 . S
C112 C111 1.384 . S
C112 H139 0.929 . S
C113 O126 1.241 . S
C113 O127 1.273 . S
C114 O128 1.251 . S
C114 O129 1.268 1_455 S
C115 Nd105 2.836 . S
C115 C116 1.498 . S
C115 O130 1.258 . S
C115 O131 1.239 . S
C116 C115 1.498 . S
C116 C117 1.366 . S
C116 C121 1.407 . S
C117 C116 1.366 . S
C117 C118 1.392 . S
C117 H140 0.930 . S
C118 C117 1.392 . S
C118 C119 1.398 . S
C118 H141 0.929 . S
C119 C118 1.398 . S
C119 C120 1.352 . S
C120 C119 1.352 . S
C120 C121 1.384 . S
C120 H142 0.930 . S
C121 C116 1.407 . S
C121 C120 1.384 . S
C121 H143 0.929 . S
C122 O132 1.241 . S
C122 O133 1.273 1_655 S
C123 O134 1.251 . S
C123 O135 1.268 . S
O124 Nd104 2.500 . S
O124 C106 1.258 . S
O125 Nd104 2.492 . S
O125 C106 1.239 . S
O126 Nd104 2.487 1_545 S
O126 C113 1.241 . S
O127 Nd104 2.682 1_545 S
O127 Nd105 2.414 1_455 S
O127 C113 1.273 . S
O128 Nd104 2.410 . S
O128 C114 1.251 . S
O129 Nd105 2.424 1_565 S
O129 C114 1.268 1_655 S
O130 Nd105 2.500 . S
O130 C115 1.258 . S
O131 Nd105 2.492 . S
O131 C115 1.239 . S
O132 Nd105 2.487 1_565 S
O132 C122 1.241 . S
O133 Nd104 2.414 . S
O133 Nd105 2.682 1_465 S
O133 C122 1.273 1_455 S
O134 Nd105 2.410 1_455 S
O134 C123 1.251 . S
O135 Nd104 2.424 1_545 S
O135 C123 1.268 . S
H136 C108 0.930 . S
H137 C109 0.929 . S
H138 C111 0.930 . S
H139 C112 0.929 . S
H140 C117 0.930 . S
H141 C118 0.929 . S
H142 C120 0.930 . S
H143 C121 0.929 . S
Nd144 C146 2.836 . S
Nd144 O164 2.500 . S
Nd144 O165 2.492 . S
Nd144 O166 2.487 1_565 S
Nd144 O167 2.682 1_565 S
Nd144 O168 2.410 . S
Nd144 O173 2.414 . S
Nd144 O175 2.424 1_565 S
Nd145 C155 2.836 . S
Nd145 O167 2.414 1_556 S
Nd145 O169 2.424 1_545 S
Nd145 O170 2.500 . S
Nd145 O171 2.492 . S
Nd145 O172 2.487 . S
Nd145 O173 2.682 1_546 S
Nd145 O174 2.410 1_556 S
C146 Nd144 2.836 . S
C146 C147 1.498 . S
C146 O164 1.258 . S
C146 O165 1.239 . S
C147 C146 1.498 . S
C147 C148 1.366 . S
C147 C152 1.407 . S
C148 C147 1.366 . S
C148 C149 1.392 . S
C148 H176 0.930 . S
C149 C148 1.392 . S
C149 C150 1.398 . S
C149 H177 0.929 . S
C150 C149 1.398 . S
C150 C151 1.352 . S
C151 C150 1.352 . S
C151 C152 1.384 . S
C151 H178 0.930 . S
C152 C147 1.407 . S
C152 C151 1.384 . S
C152 H179 0.929 . S
C153 O166 1.241 . S
C153 O167 1.273 . S
C154 O168 1.251 1_556 S
C154 O169 1.268 . S
C155 Nd145 2.836 . S
C155 C156 1.498 . S
C155 O170 1.258 . S
C155 O171 1.239 . S
C156 C155 1.498 . S
C156 C157 1.366 . S
C156 C161 1.407 . S
C157 C156 1.366 . S
C157 C158 1.392 . S
C157 H180 0.930 . S
C158 C157 1.392 . S
C158 C159 1.398 . S
C158 H181 0.929 . S
C159 C158 1.398 . S
C159 C160 1.352 . S
C160 C159 1.352 . S
C160 C161 1.384 . S
C160 H182 0.930 . S
C161 C156 1.407 . S
C161 C160 1.384 . S
C161 H183 0.929 . S
C162 O172 1.241 1_564 S
C162 O173 1.273 . S
C163 O174 1.251 . S
C163 O175 1.268 . S
O164 Nd144 2.500 . S
O164 C146 1.258 . S
O165 Nd144 2.492 . S
O165 C146 1.239 . S
O166 Nd144 2.487 1_545 S
O166 C153 1.241 . S
O167 Nd144 2.682 1_545 S
O167 Nd145 2.414 1_554 S
O167 C153 1.273 . S
O168 Nd144 2.410 . S
O168 C154 1.251 1_554 S
O169 Nd145 2.424 1_565 S
O169 C154 1.268 . S
O170 Nd145 2.500 . S
O170 C155 1.258 . S
O171 Nd145 2.492 . S
O171 C155 1.239 . S
O172 Nd145 2.487 . S
O172 C162 1.241 1_546 S
O173 Nd144 2.414 . S
O173 Nd145 2.682 1_564 S
O173 C162 1.273 . S
O174 Nd145 2.410 1_554 S
O174 C163 1.251 . S
O175 Nd144 2.424 1_545 S
O175 C163 1.268 . S
H176 C148 0.930 . S
H177 C149 0.929 . S
H178 C151 0.930 . S
H179 C152 0.929 . S
H180 C157 0.930 . S
H181 C158 0.929 . S
H182 C160 0.930 . S
H183 C161 0.929 . S
Nd184 C186 2.836 . S
Nd184 O204 2.500 . S
Nd184 O205 2.492 . S
Nd184 O206 2.487 . S
Nd184 O207 2.682 . S
Nd184 O208 2.410 . S
Nd184 O213 2.414 . S
Nd184 O215 2.424 . S
Nd185 C195 2.836 . S
Nd185 O207 2.414 . S
Nd185 O209 2.424 . S
Nd185 O210 2.500 . S
Nd185 O211 2.492 . S
Nd185 O212 2.487 . S
Nd185 O213 2.682 . S
Nd185 O214 2.410 . S
C186 Nd184 2.836 . S
C186 C187 1.498 . S
C186 O204 1.258 . S
C186 O205 1.239 . S
C187 C186 1.498 . S
C187 C188 1.366 . S
C187 C192 1.407 . S
C188 C187 1.366 . S
C188 C189 1.392 . S
C188 H216 0.930 . S
C189 C188 1.392 . S
C189 C190 1.398 . S
C189 H217 0.929 . S
C190 C189 1.398 . S
C190 C191 1.352 . S
C191 C190 1.352 . S
C191 C192 1.384 . S
C191 H218 0.930 . S
C192 C187 1.407 . S
C192 C191 1.384 . S
C192 H219 0.929 . S
C193 O206 1.241 . S
C193 O207 1.273 . S
C194 O208 1.251 . S
C194 O209 1.268 . S
C195 Nd185 2.836 . S
C195 C196 1.498 . S
C195 O210 1.258 . S
C195 O211 1.239 . S
C196 C195 1.498 . S
C196 C197 1.366 . S
C196 C201 1.407 . S
C197 C196 1.366 . S
C197 C198 1.392 . S
C197 H220 0.930 . S
C198 C197 1.392 . S
C198 C199 1.398 . S
C198 H221 0.929 . S
C199 C198 1.398 . S
C199 C200 1.352 . S
C200 C199 1.352 . S
C200 C201 1.384 . S
C200 H222 0.930 . S
C201 C196 1.407 . S
C201 C200 1.384 . S
C201 H223 0.929 . S
C202 O212 1.241 . S
C202 O213 1.273 . S
C203 O214 1.251 . S
C203 O215 1.268 . S
O204 Nd184 2.500 . S
O204 C186 1.258 . S
O205 Nd184 2.492 . S
O205 C186 1.239 . S
O206 Nd184 2.487 . S
O206 C193 1.241 . S
O207 Nd184 2.682 . S
O207 Nd185 2.414 . S
O207 C193 1.273 . S
O208 Nd184 2.410 . S
O208 C194 1.251 . S
O209 Nd185 2.424 . S
O209 C194 1.268 . S
O210 Nd185 2.500 . S
O210 C195 1.258 . S
O211 Nd185 2.492 . S
O211 C195 1.239 . S
O212 Nd185 2.487 . S
O212 C202 1.241 . S
O213 Nd184 2.414 . S
O213 Nd185 2.682 . S
O213 C202 1.273 . S
O214 Nd185 2.410 . S
O214 C203 1.251 . S
O215 Nd184 2.424 . S
O215 C203 1.268 . S
H216 C188 0.930 . S
H217 C189 0.929 . S
H218 C191 0.930 . S
H219 C192 0.929 . S
H220 C197 0.930 . S
H221 C198 0.929 . S
H222 C200 0.930 . S
H223 C201 0.929 . S
Nd224 C226 2.836 . S
Nd224 O244 2.500 . S
Nd224 O245 2.492 . S
Nd224 O246 2.487 1_655 S
Nd224 O247 2.682 1_655 S
Nd224 O248 2.410 . S
Nd224 O253 2.414 1_554 S
Nd224 O255 2.424 1_655 S
Nd225 C235 2.836 . S
Nd225 O247 2.414 1_556 S
Nd225 O249 2.424 1_455 S
Nd225 O250 2.500 . S
Nd225 O251 2.492 . S
Nd225 O252 2.487 1_455 S
Nd225 O253 2.682 1_455 S
Nd225 O254 2.410 . S
C226 Nd224 2.836 . S
C226 C227 1.498 . S
C226 O244 1.258 . S
C226 O245 1.239 . S
C227 C226 1.498 . S
C227 C228 1.366 . S
C227 C232 1.407 . S
C228 C227 1.366 . S
C228 C229 1.392 . S
C228 H256 0.930 . S
C229 C228 1.392 . S
C229 C230 1.398 . S
C229 H257 0.929 . S
C230 C229 1.398 . S
C230 C231 1.352 . S
C231 C230 1.352 . S
C231 C232 1.384 . S
C231 H258 0.930 . S
C232 C227 1.407 . S
C232 C231 1.384 . S
C232 H259 0.929 . S
C233 O246 1.241 . S
C233 O247 1.273 . S
C234 O248 1.251 1_556 S
C234 O249 1.268 . S
C235 Nd225 2.836 . S
C235 C236 1.498 . S
C235 O250 1.258 . S
C235 O251 1.239 . S
C236 C235 1.498 . S
C236 C237 1.366 . S
C236 C241 1.407 . S
C237 C236 1.366 . S
C237 C238 1.392 . S
C237 H260 0.930 . S
C238 C237 1.392 . S
C238 C239 1.398 . S
C238 H261 0.929 . S
C239 C238 1.398 . S
C239 C240 1.352 . S
C240 C239 1.352 . S
C240 C241 1.384 . S
C240 H262 0.930 . S
C241 C236 1.407 . S
C241 C240 1.384 . S
C241 H263 0.929 . S
C242 O252 1.241 . S
C242 O253 1.273 . S
C243 O254 1.251 1_554 S
C243 O255 1.268 . S
O244 Nd224 2.500 . S
O244 C226 1.258 . S
O245 Nd224 2.492 . S
O245 C226 1.239 . S
O246 Nd224 2.487 1_455 S
O246 C233 1.241 . S
O247 Nd224 2.682 1_455 S
O247 Nd225 2.414 1_554 S
O247 C233 1.273 . S
O248 Nd224 2.410 . S
O248 C234 1.251 1_554 S
O249 Nd225 2.424 1_655 S
O249 C234 1.268 . S
O250 Nd225 2.500 . S
O250 C235 1.258 . S
O251 Nd225 2.492 . S
O251 C235 1.239 . S
O252 Nd225 2.487 1_655 S
O252 C242 1.241 . S
O253 Nd224 2.414 1_556 S
O253 Nd225 2.682 1_655 S
O253 C242 1.273 . S
O254 Nd225 2.410 . S
O254 C243 1.251 1_556 S
O255 Nd224 2.424 1_455 S
O255 C243 1.268 . S
H256 C228 0.930 . S
H257 C229 0.929 . S
H258 C231 0.930 . S
H259 C232 0.929 . S
H260 C237 0.930 . S
H261 C238 0.929 . S
H262 C240 0.930 . S
H263 C241 0.929 . S
C264 C265 1.369 . S
C264 C266 1.419 . S
C264 H268 0.930 . S
C265 C264 1.369 . S
C265 C274 1.429 . S
C266 C264 1.419 . S
C266 C267 1.363 . S
C266 H269 0.929 . S
C267 C266 1.363 . S
C267 C273 1.428 . S
H268 C264 0.930 . S
H269 C266 0.929 . S
S270 N271 1.613 1_565 S
S270 N272 1.610 1_565 S
N271 S270 1.613 1_545 S
N271 C274 1.350 . S
N272 S270 1.610 1_545 S
N272 C273 1.351 . S
C273 C267 1.428 . S
C273 N272 1.351 . S
C273 C274 1.434 . S
C274 C265 1.429 . S
C274 N271 1.350 . S
C274 C273 1.434 . S
C275 C276 1.369 . S
C275 C277 1.419 . S
C275 H279 0.930 . S
C276 C275 1.369 . S
C276 C285 1.429 . S
C277 C275 1.419 . S
C277 C278 1.363 . S
C277 H280 0.929 . S
C278 C277 1.363 . S
C278 C284 1.428 . S
H279 C275 0.930 . S
H280 C277 0.929 . S
S281 N282 1.613 . S
S281 N283 1.610 . S
N282 S281 1.613 . S
N282 C285 1.350 . S
N283 S281 1.610 . S
N283 C284 1.351 . S
C284 C278 1.428 . S
C284 N283 1.351 . S
C284 C285 1.434 . S
C285 C276 1.429 . S
C285 N282 1.350 . S
C285 C284 1.434 . S
C286 C287 1.369 . S
C286 C288 1.419 . S
C286 H290 0.930 . S
C287 C286 1.369 . S
C287 C296 1.429 . S
C288 C286 1.419 . S
C288 C289 1.363 . S
C288 H291 0.929 . S
C289 C288 1.363 . S
C289 C295 1.428 . S
H290 C286 0.930 . S
H291 C288 0.929 . S
S292 N293 1.613 . S
S292 N294 1.610 . S
N293 S292 1.613 . S
N293 C296 1.350 . S
N294 S292 1.610 . S
N294 C295 1.351 . S
C295 C289 1.428 . S
C295 N294 1.351 . S
C295 C296 1.434 . S
C296 C287 1.429 . S
C296 N293 1.350 . S
C296 C295 1.434 . S
C297 C298 1.369 . S
C297 C299 1.419 . S
C297 H301 0.930 . S
C298 C297 1.369 . S
C298 C307 1.429 . S
C299 C297 1.419 . S
C299 C300 1.363 . S
C299 H302 0.929 . S
C300 C299 1.363 . S
C300 C306 1.428 . S
H301 C297 0.930 . S
H302 C299 0.929 . S
S303 N304 1.613 . S
S303 N305 1.610 . S
N304 S303 1.613 . S
N304 C307 1.350 . S
N305 S303 1.610 . S
N305 C306 1.351 . S
C306 C300 1.428 . S
C306 N305 1.351 . S
C306 C307 1.434 . S
C307 C298 1.429 . S
C307 N304 1.350 . S
C307 C306 1.434 . S
C308 C309 1.369 . S
C308 C310 1.419 . S
C308 H312 0.930 . S
C309 C308 1.369 . S
C309 C318 1.429 . S
C310 C308 1.419 . S
C310 C311 1.363 . S
C310 H313 0.929 . S
C311 C310 1.363 . S
C311 C317 1.428 . S
H312 C308 0.930 . S
H313 C310 0.929 . S
S314 N315 1.613 . S
S314 N316 1.610 . S
N315 S314 1.613 . S
N315 C318 1.350 . S
N316 S314 1.610 . S
N316 C317 1.351 . S
C317 C311 1.428 . S
C317 N316 1.351 . S
C317 C318 1.434 . S
C318 C309 1.429 . S
C318 N315 1.350 . S
C318 C317 1.434 . S
C319 C320 1.369 . S
C319 C321 1.419 . S
C319 H323 0.930 . S
C320 C319 1.369 . S
C320 C329 1.429 . S
C321 C319 1.419 . S
C321 C322 1.363 . S
C321 H324 0.929 . S
C322 C321 1.363 . S
C322 C328 1.428 . S
H323 C319 0.930 . S
H324 C321 0.929 . S
S325 N326 1.613 . S
S325 N327 1.610 . S
N326 S325 1.613 . S
N326 C329 1.350 . S
N327 S325 1.610 . S
N327 C328 1.351 . S
C328 C322 1.428 . S
C328 N327 1.351 . S
C328 C329 1.434 . S
C329 C320 1.429 . S
C329 N326 1.350 . S
C329 C328 1.434 . S
C330 C331 1.369 . S
C330 C332 1.419 . S
C330 H334 0.930 . S
C331 C330 1.369 . S
C331 C340 1.429 . S
C332 C330 1.419 . S
C332 C333 1.363 . S
C332 H335 0.929 . S
C333 C332 1.363 . S
C333 C339 1.428 . S
H334 C330 0.930 . S
H335 C332 0.929 . S
S336 N337 1.613 . S
S336 N338 1.610 . S
N337 S336 1.613 . S
N337 C340 1.350 . S
N338 S336 1.610 . S
N338 C339 1.351 . S
C339 C333 1.428 . S
C339 N338 1.351 . S
C339 C340 1.434 . S
C340 C331 1.429 . S
C340 N337 1.350 . S
C340 C339 1.434 . S
C341 C342 1.369 . S
C341 C343 1.419 . S
C341 H345 0.930 . S
C342 C341 1.369 . S
C342 C351 1.429 . S
C343 C341 1.419 . S
C343 C344 1.363 . S
C343 H346 0.929 . S
C344 C343 1.363 . S
C344 C350 1.428 . S
H345 C341 0.930 . S
H346 C343 0.929 . S
S347 N348 1.613 . S
S347 N349 1.610 . S
N348 S347 1.613 . S
N348 C351 1.350 . S
N349 S347 1.610 . S
N349 C350 1.351 . S
C350 C344 1.428 . S
C350 N349 1.351 . S
C350 C351 1.434 . S
C351 C342 1.429 . S
C351 N348 1.350 . S
C351 C350 1.434 . S
C352 C353 1.369 . S
C352 C354 1.419 . S
C352 H356 0.930 . S
C353 C352 1.369 . S
C353 C362 1.429 . S
C354 C352 1.419 . S
C354 C355 1.363 . S
C354 H357 0.929 . S
C355 C354 1.363 . S
C355 C361 1.428 . S
H356 C352 0.930 . S
H357 C354 0.929 . S
S358 N359 1.613 . S
S358 N360 1.610 . S
N359 S358 1.613 . S
N359 C362 1.350 . S
N360 S358 1.610 . S
N360 C361 1.351 . S
C361 C355 1.428 . S
C361 N360 1.351 . S
C361 C362 1.434 . S
C362 C353 1.429 . S
C362 N359 1.350 . S
C362 C361 1.434 . S
C363 C364 1.369 . S
C363 C365 1.419 . S
C363 H367 0.930 . S
C364 C363 1.369 . S
C364 C373 1.429 . S
C365 C363 1.419 . S
C365 C366 1.363 . S
C365 H368 0.929 . S
C366 C365 1.363 . S
C366 C372 1.428 . S
H367 C363 0.930 . S
H368 C365 0.929 . S
S369 N370 1.613 . S
S369 N371 1.610 . S
N370 S369 1.613 . S
N370 C373 1.350 . S
N371 S369 1.610 . S
N371 C372 1.351 . S
C372 C366 1.428 . S
C372 N371 1.351 . S
C372 C373 1.434 . S
C373 C364 1.429 . S
C373 N370 1.350 . S
C373 C372 1.434 . S
C374 C375 1.369 . S
C374 C376 1.419 . S
C374 H378 0.930 . S
C375 C374 1.369 . S
C375 C384 1.429 . S
C376 C374 1.419 . S
C376 C377 1.363 . S
C376 H379 0.929 . S
C377 C376 1.363 . S
C377 C383 1.428 . S
H378 C374 0.930 . S
H379 C376 0.929 . S
S380 N381 1.613 . S
S380 N382 1.610 1_655 S
N381 S380 1.613 . S
N381 C384 1.350 . S
N382 S380 1.610 1_455 S
N382 C383 1.351 1_455 S
C383 C377 1.428 . S
C383 N382 1.351 1_655 S
C383 C384 1.434 . S
C384 C375 1.429 . S
C384 N381 1.350 . S
C384 C383 1.434 . S
C385 C386 1.369 . S
C385 C387 1.419 . S
C385 H389 0.930 . S
C386 C385 1.369 . S
C386 C395 1.429 . S
C387 C385 1.419 . S
C387 C388 1.363 . S
C387 H390 0.929 . S
C388 C387 1.363 . S
C388 C394 1.428 . S
H389 C385 0.930 . S
H390 C387 0.929 . S
S391 N392 1.613 . S
S391 N393 1.610 . S
N392 S391 1.613 . S
N392 C395 1.350 . S
N393 S391 1.610 . S
N393 C394 1.351 . S
C394 C388 1.428 . S
C394 N393 1.351 . S
C394 C395 1.434 . S
C395 C386 1.429 . S
C395 N392 1.350 . S
C395 C394 1.434 . S
C396 C397 1.369 . S
C396 C398 1.419 . S
C396 H400 0.930 . S
C397 C396 1.369 . S
C397 C406 1.429 . S
C398 C396 1.419 . S
C398 C399 1.363 . S
C398 H401 0.929 . S
C399 C398 1.363 . S
C399 C405 1.428 1_655 S
H400 C396 0.930 . S
H401 C398 0.929 . S
S402 N403 1.613 . S
S402 N404 1.610 . S
N403 S402 1.613 . S
N403 C406 1.350 1_455 S
N404 S402 1.610 . S
N404 C405 1.351 . S
C405 C399 1.428 1_455 S
C405 N404 1.351 . S
C405 C406 1.434 1_455 S
C406 C397 1.429 . S
C406 N403 1.350 1_655 S
C406 C405 1.434 1_655 S
C407 C408 1.369 . S
C407 C409 1.419 . S
C407 H411 0.930 . S
C408 C407 1.369 . S
C408 C417 1.429 . S
C409 C407 1.419 . S
C409 C410 1.363 . S
C409 H412 0.929 . S
C410 C409 1.363 . S
C410 C416 1.428 . S
H411 C407 0.930 . S
H412 C409 0.929 . S
S413 N414 1.613 . S
S413 N415 1.610 . S
N414 S413 1.613 . S
N414 C417 1.350 . S
N415 S413 1.610 . S
N415 C416 1.351 . S
C416 C410 1.428 . S
C416 N415 1.351 . S
C416 C417 1.434 . S
C417 C408 1.429 . S
C417 N414 1.350 . S
C417 C416 1.434 . S
C418 C419 1.369 . S
C418 C420 1.419 . S
C418 H422 0.930 . S
C419 C418 1.369 . S
C419 C428 1.429 . S
C420 C418 1.419 . S
C420 C421 1.363 . S
C420 H423 0.929 . S
C421 C420 1.363 . S
C421 C427 1.428 . S
H422 C418 0.930 . S
H423 C420 0.929 . S
S424 N425 1.613 . S
S424 N426 1.610 . S
N425 S424 1.613 . S
N425 C428 1.350 . S
N426 S424 1.610 . S
N426 C427 1.351 . S
C427 C421 1.428 . S
C427 N426 1.351 . S
C427 C428 1.434 . S
C428 C419 1.429 . S
C428 N425 1.350 . S
C428 C427 1.434 . S
C429 C430 1.369 . S
C429 C431 1.419 . S
C429 H433 0.930 . S
C430 C429 1.369 . S
C430 C439 1.429 . S
C431 C429 1.419 . S
C431 C432 1.363 . S
C431 H434 0.929 . S
C432 C431 1.363 . S
C432 C438 1.428 . S
H433 C429 0.930 . S
H434 C431 0.929 . S
S435 N436 1.613 . S
S435 N437 1.610 . S
N436 S435 1.613 . S
N436 C439 1.350 . S
N437 S435 1.610 . S
N437 C438 1.351 . S
C438 C432 1.428 . S
C438 N437 1.351 . S
C438 C439 1.434 . S
C439 C430 1.429 . S
C439 N436 1.350 . S
C439 C438 1.434 . S
C440 C441 1.369 . S
C440 C442 1.419 1_556 S
C440 H444 0.930 1_556 S
C441 C440 1.369 . S
C441 C450 1.429 . S
C442 C440 1.419 1_554 S
C442 C443 1.363 1_554 S
C442 H445 0.929 . S
C443 C442 1.363 1_556 S
C443 C449 1.428 . S
H444 C440 0.930 1_554 S
H445 C442 0.929 . S
S446 N447 1.613 . S
S446 N448 1.610 . S
N447 S446 1.613 . S
N447 C450 1.350 . S
N448 S446 1.610 . S
N448 C449 1.351 . S
C449 C443 1.428 . S
C449 N448 1.351 . S
C449 C450 1.434 . S
C450 C441 1.429 . S
C450 N447 1.350 . S
C450 C449 1.434 . S
C451 C452 1.369 . S
C451 C453 1.419 . S
C451 H455 0.930 . S
C452 C451 1.369 . S
C452 C461 1.429 . S
C453 C451 1.419 . S
C453 C454 1.363 . S
C453 H456 0.929 . S
C454 C453 1.363 . S
C454 C460 1.428 . S
H455 C451 0.930 . S
H456 C453 0.929 . S
S457 N458 1.613 . S
S457 N459 1.610 . S
N458 S457 1.613 . S
N458 C461 1.350 . S
N459 S457 1.610 . S
N459 C460 1.351 . S
C460 C454 1.428 . S
C460 N459 1.351 . S
C460 C461 1.434 . S
C461 C452 1.429 . S
C461 N458 1.350 . S
C461 C460 1.434 . S
C462 C463 1.369 . S
C462 C464 1.419 . S
C462 H466 0.930 . S
C463 C462 1.369 . S
C463 C472 1.429 . S
C464 C462 1.419 . S
C464 C465 1.363 . S
C464 H467 0.929 . S
C465 C464 1.363 . S
C465 C471 1.428 . S
H466 C462 0.930 . S
H467 C464 0.929 . S
S468 N469 1.613 . S
S468 N470 1.610 . S
N469 S468 1.613 . S
N469 C472 1.350 . S
N470 S468 1.610 . S
N470 C471 1.351 . S
C471 C465 1.428 . S
C471 N470 1.351 . S
C471 C472 1.434 . S
C472 C463 1.429 . S
C472 N469 1.350 . S
C472 C471 1.434 . S
C473 C474 1.369 . S
C473 C475 1.419 . S
C473 H477 0.930 . S
C474 C473 1.369 . S
C474 C483 1.429 . S
C475 C473 1.419 . S
C475 C476 1.363 . S
C475 H478 0.929 . S
C476 C475 1.363 . S
C476 C482 1.428 . S
H477 C473 0.930 . S
H478 C475 0.929 . S
S479 N480 1.613 . S
S479 N481 1.610 . S
N480 S479 1.613 . S
N480 C483 1.350 . S
N481 S479 1.610 . S
N481 C482 1.351 . S
C482 C476 1.428 . S
C482 N481 1.351 . S
C482 C483 1.434 . S
C483 C474 1.429 . S
C483 N480 1.350 . S
C483 C482 1.434 . S
C484 C485 1.369 . S
C484 C486 1.419 . S
C484 H488 0.930 . S
C485 C484 1.369 . S
C485 C494 1.429 . S
C486 C484 1.419 . S
C486 C487 1.363 . S
C486 H489 0.929 1_655 S
C487 C486 1.363 . S
C487 C493 1.428 . S
H488 C484 0.930 . S
H489 C486 0.929 1_455 S
S490 N491 1.613 . S
S490 N492 1.610 . S
N491 S490 1.613 . S
N491 C494 1.350 . S
N492 S490 1.610 . S
N492 C493 1.351 . S
C493 C487 1.428 . S
C493 N492 1.351 . S
C493 C494 1.434 . S
C494 C485 1.429 . S
C494 N491 1.350 . S
C494 C493 1.434 . S
C495 C496 1.369 . S
C495 C497 1.419 . S
C495 H499 0.930 . S
C496 C495 1.369 . S
C496 C505 1.429 . S
C497 C495 1.419 . S
C497 C498 1.363 . S
C497 H500 0.929 . S
C498 C497 1.363 . S
C498 C504 1.428 . S
H499 C495 0.930 . S
H500 C497 0.929 . S
S501 N502 1.613 . S
S501 N503 1.610 . S
N502 S501 1.613 . S
N502 C505 1.350 . S
N503 S501 1.610 . S
N503 C504 1.351 . S
C504 C498 1.428 . S
C504 N503 1.351 . S
C504 C505 1.434 . S
C505 C496 1.429 . S
C505 N502 1.350 . S
C505 C504 1.434 . S
C506 C507 1.369 . S
C506 C508 1.419 . S
C506 H510 0.930 . S
C507 C506 1.369 . S
C507 C516 1.429 . S
C508 C506 1.419 . S
C508 C509 1.363 . S
C508 H511 0.929 . S
C509 C508 1.363 . S
C509 C515 1.428 . S
H510 C506 0.930 . S
H511 C508 0.929 . S
S512 N513 1.613 . S
S512 N514 1.610 . S
N513 S512 1.613 . S
N513 C516 1.350 . S
N514 S512 1.610 . S
N514 C515 1.351 . S
C515 C509 1.428 . S
C515 N514 1.351 . S
C515 C516 1.434 . S
C516 C507 1.429 . S
C516 N513 1.350 . S
C516 C515 1.434 . S
C517 C518 1.369 . S
C517 C519 1.419 . S
C517 H521 0.930 . S
C518 C517 1.369 . S
C518 C527 1.429 . S
C519 C517 1.419 . S
C519 C520 1.363 . S
C519 H522 0.929 . S
C520 C519 1.363 . S
C520 C526 1.428 . S
H521 C517 0.930 . S
H522 C519 0.929 . S
S523 N524 1.613 . S
S523 N525 1.610 . S
N524 S523 1.613 . S
N524 C527 1.350 . S
N525 S523 1.610 . S
N525 C526 1.351 . S
C526 C520 1.428 . S
C526 N525 1.351 . S
C526 C527 1.434 . S
C527 C518 1.429 . S
C527 N524 1.350 . S
C527 C526 1.434 . S
C265 N1 2.742 . S
C267 C123 2.790 . S
C276 N18 2.304 . S
C278 C154 2.374 . S
C289 C193 1.052 . S
C287 N28 1.064 . S
C298 N40 0.830 . S
C300 C230 0.870 . S
C311 C153 3.048 . S
C309 N5 3.114 . S
C322 C110 1.283 . S
C320 N14 1.285 . S
C333 C242 1.507 . S
C331 N31 1.591 . S
C344 C199 0.981 . S
C342 N41 0.986 . S
C353 N2 2.264 . S
C355 C243 2.281 . S
C366 C159 1.428 . S
C364 N27 1.396 . S
C375 N44 0.623 . S
C377 C122 0.699 . S
C386 N15 2.018 . S
C388 C194 2.044 . S
C399 C114 3.160 1_655 S
C397 N57 3.189 . S
C408 N70 1.931 . S
C410 C163 2.009 . S
C419 N79 1.311 . S
C421 C202 1.282 . S
C430 N93 0.619 . S
C432 C239 0.600 . S
C441 N54 2.863 . S
C443 C162 2.710 1_556 S
C454 C119 1.588 . S
C452 N66 1.675 . S
C465 C233 1.044 . S
C463 N80 1.065 . S
C476 C190 1.267 . S
C474 N96 1.168 . S
C485 N53 2.293 . S
C487 C234 2.321 . S
C498 C150 1.507 . S
C496 N83 1.572 . S
C509 C113 0.522 . S
C507 N92 0.509 . S
C518 N67 2.066 . S
C520 C203 2.101 . S
