# Generated by pormake.
# Topology pto, (3,4)-cn, num edge types: 1
# Building blocks:
#     Node 0, Type 0, BuildingBlock: WUSLED_clean_sbu_0, # of connection points: 3
#     Node 1, Type 0, BuildingBlock: WUSLED_clean_sbu_0, # of connection points: 3
#     Node 2, Type 0, BuildingBlock: WUSLED_clean_sbu_0, # of connection points: 3
#     Node 3, Type 0, BuildingBlock: WUSLED_clean_sbu_0, # of connection points: 3
#     Node 4, Type 0, BuildingBlock: WUSLED_clean_sbu_0, # of connection points: 3
#     Node 5, Type 0, BuildingBlock: WUSLED_clean_sbu_0, # of connection points: 3
#     Node 6, Type 0, BuildingBlock: WUSLED_clean_sbu_0, # of connection points: 3
#     Node 7, Type 0, BuildingBlock: WUSLED_clean_sbu_0, # of connection points: 3
#     Node 8, Type 1, BuildingBlock: NAWXER_clean_linker_0, # of connection points: 4
#     Node 9, Type 1, BuildingBlock: NAWXER_clean_linker_0, # of connection points: 4
#     Node 10, Type 1, BuildingBlock: NAWXER_clean_linker_0, # of connection points: 4
#     Node 11, Type 1, BuildingBlock: NAWXER_clean_linker_0, # of connection points: 4
#     Node 12, Type 1, BuildingBlock: NAWXER_clean_linker_0, # of connection points: 4
#     Node 13, Type 1, BuildingBlock: NAWXER_clean_linker_0, # of connection points: 4
#     Edge 14, Type (0, 1), BuildingBlock: XIVTED_clean_linker_0, # of connection points: 2
#     Edge 15, Type (0, 1), BuildingBlock: XIVTED_clean_linker_0, # of connection points: 2
#     Edge 16, Type (0, 1), BuildingBlock: XIVTED_clean_linker_0, # of connection points: 2
#     Edge 17, Type (0, 1), BuildingBlock: XIVTED_clean_linker_0, # of connection points: 2
#     Edge 18, Type (0, 1), BuildingBlock: XIVTED_clean_linker_0, # of connection points: 2
#     Edge 19, Type (0, 1), BuildingBlock: XIVTED_clean_linker_0, # of connection points: 2
#     Edge 20, Type (0, 1), BuildingBlock: XIVTED_clean_linker_0, # of connection points: 2
#     Edge 21, Type (0, 1), BuildingBlock: XIVTED_clean_linker_0, # of connection points: 2
#     Edge 22, Type (0, 1), BuildingBlock: XIVTED_clean_linker_0, # of connection points: 2
#     Edge 23, Type (0, 1), BuildingBlock: XIVTED_clean_linker_0, # of connection points: 2
#     Edge 24, Type (0, 1), BuildingBlock: XIVTED_clean_linker_0, # of connection points: 2
#     Edge 25, Type (0, 1), BuildingBlock: XIVTED_clean_linker_0, # of connection points: 2
#     Edge 26, Type (0, 1), BuildingBlock: XIVTED_clean_linker_0, # of connection points: 2
#     Edge 27, Type (0, 1), BuildingBlock: XIVTED_clean_linker_0, # of connection points: 2
#     Edge 28, Type (0, 1), BuildingBlock: XIVTED_clean_linker_0, # of connection points: 2
#     Edge 29, Type (0, 1), BuildingBlock: XIVTED_clean_linker_0, # of connection points: 2
#     Edge 30, Type (0, 1), BuildingBlock: XIVTED_clean_linker_0, # of connection points: 2
#     Edge 31, Type (0, 1), BuildingBlock: XIVTED_clean_linker_0, # of connection points: 2
#     Edge 32, Type (0, 1), BuildingBlock: XIVTED_clean_linker_0, # of connection points: 2
#     Edge 33, Type (0, 1), BuildingBlock: XIVTED_clean_linker_0, # of connection points: 2
#     Edge 34, Type (0, 1), BuildingBlock: XIVTED_clean_linker_0, # of connection points: 2
#     Edge 35, Type (0, 1), BuildingBlock: XIVTED_clean_linker_0, # of connection points: 2
#     Edge 36, Type (0, 1), BuildingBlock: XIVTED_clean_linker_0, # of connection points: 2
#     Edge 37, Type (0, 1), BuildingBlock: XIVTED_clean_linker_0, # of connection points: 2
# Relax obj value: 0.000
# Max RMSD: 0.010
# Mean RMSD: 0.005
data_MOF--net-pto--node1-WUSLED_clean_sbu_0--node2-NAWXER_clean_linker_0--edge1-XIVTED_clean_linker_0
_symmetry_space_group_name_H-M    P1
_symmetry_Int_Tables_number       1
_symmetry_cell_setting            triclinic
loop_
_symmetry_equiv_pos_as_xyz
'x, y, z'
_cell_length_a     52.193109
_cell_length_b     71.176616
_cell_length_c     61.806976
_cell_angle_alpha  89.518397
_cell_angle_beta   90.629819
_cell_angle_gamma 90.590701
loop_
_atom_site_label
_atom_site_type_symbol
_atom_site_fract_x
_atom_site_fract_y
_atom_site_fract_z
_atom_type_partial_charge
C0 C 0.23925 0.23102 0.34476 0.0
C1 C 0.25769 0.21741 0.34036 0.0
C2 C 0.24281 0.19836 0.37079 0.0
C3 C 0.25947 0.20123 0.35327 0.0
C4 C 0.2243 0.21207 0.37501 0.0
C5 C 0.22256 0.22825 0.3621 0.0
U6 U 0.25956 0.26028 0.296 0.0
O7 O 0.23666 0.27732 0.27329 0.0
O8 O 0.26698 0.29066 0.29287 0.0
C9 C 0.24775 0.29313 0.27928 0.0
C10 C 0.23724 0.24809 0.33136 0.0
C11 C 0.23039 0.3085 0.28457 0.0
C12 C 0.19575 0.32135 0.30565 0.0
C13 C 0.21196 0.30643 0.3008 0.0
C14 C 0.2164 0.34048 0.27816 0.0
C15 C 0.19787 0.33859 0.29443 0.0
C16 C 0.23249 0.32558 0.2733 0.0
C17 C 0.31021 0.24156 0.25804 0.0
C18 C 0.32184 0.25793 0.22486 0.0
C19 C 0.34499 0.23012 0.23616 0.0
C20 C 0.32958 0.22852 0.25445 0.0
C21 C 0.34126 0.2448 0.22107 0.0
C22 C 0.30646 0.25633 0.24321 0.0
C23 C 0.29412 0.23958 0.2773 0.0
O24 O 0.25762 0.2591 0.33151 0.0
O25 O 0.22747 0.24562 0.31189 0.0
O26 O 0.26939 0.23781 0.27346 0.0
O27 O 0.29956 0.25124 0.29311 0.0
H28 H 0.27075 0.21936 0.327 0.0
H29 H 0.27414 0.19109 0.3497 0.0
H30 H 0.21092 0.2102 0.38814 0.0
H31 H 0.20814 0.23859 0.36565 0.0
H32 H 0.18186 0.31949 0.3184 0.0
H33 H 0.21018 0.29333 0.30973 0.0
H34 H 0.21829 0.35344 0.26898 0.0
H35 H 0.24659 0.32738 0.2607 0.0
H36 H 0.31824 0.26928 0.21348 0.0
H37 H 0.36001 0.21995 0.23396 0.0
H38 H 0.33281 0.2171 0.26583 0.0
H39 H 0.29157 0.26654 0.24577 0.0
C40 C 0.24179 0.79436 0.67768 0.0
C41 C 0.25557 0.81 0.6854 0.0
C42 C 0.2461 0.82721 0.65205 0.0
C43 C 0.25764 0.82631 0.67272 0.0
C44 C 0.23246 0.81141 0.64438 0.0
C45 C 0.23032 0.79514 0.6571 0.0
U46 U 0.26126 0.76467 0.72653 0.0
O47 O 0.23797 0.74758 0.74878 0.0
O48 O 0.26758 0.7342 0.7294 0.0
C49 C 0.24833 0.73174 0.74269 0.0
C50 C 0.23936 0.77716 0.69086 0.0
C51 C 0.23029 0.7165 0.73707 0.0
C52 C 0.19144 0.70512 0.71927 0.0
C53 C 0.20858 0.71981 0.72404 0.0
C54 C 0.21782 0.68364 0.74016 0.0
C55 C 0.19586 0.68686 0.72731 0.0
C56 C 0.23483 0.69834 0.74501 0.0
C57 C 0.31246 0.78308 0.76561 0.0
C58 C 0.32445 0.76595 0.7983 0.0
C59 C 0.34662 0.79491 0.78888 0.0
C60 C 0.3313 0.79663 0.77029 0.0
C61 C 0.34334 0.77959 0.80316 0.0
C62 C 0.30914 0.76769 0.77967 0.0
C63 C 0.29646 0.78519 0.74606 0.0
O64 O 0.25946 0.76619 0.69096 0.0
O65 O 0.2296 0.77941 0.71017 0.0
O66 O 0.27179 0.78699 0.74945 0.0
O67 O 0.30154 0.77359 0.73028 0.0
H68 H 0.2647 0.80957 0.70122 0.0
H69 H 0.26854 0.83813 0.679 0.0
H70 H 0.22309 0.81171 0.62866 0.0
H71 H 0.21962 0.78318 0.65091 0.0
H72 H 0.17486 0.70801 0.70913 0.0
H73 H 0.20485 0.73374 0.71762 0.0
H74 H 0.22163 0.66982 0.74683 0.0
H75 H 0.2515 0.69554 0.7551 0.0
H76 H 0.32122 0.75409 0.80905 0.0
H77 H 0.36123 0.80551 0.79192 0.0
H78 H 0.33418 0.80855 0.75953 0.0
H79 H 0.29463 0.75708 0.77627 0.0
C80 C 0.71997 0.78311 0.26076 0.0
C81 C 0.72383 0.76878 0.24573 0.0
C82 C 0.68738 0.7797 0.22423 0.0
C83 C 0.7077 0.7671 0.22761 0.0
C84 C 0.68352 0.79392 0.23953 0.0
C85 C 0.69969 0.7956 0.25761 0.0
U86 U 0.77312 0.76482 0.29772 0.0
O87 O 0.80591 0.77964 0.3126 0.0
O88 O 0.77717 0.7659 0.33318 0.0
C89 C 0.79729 0.77713 0.33234 0.0
C90 C 0.73696 0.78521 0.27971 0.0
C91 C 0.79566 0.79425 0.34537 0.0
C92 C 0.7802 0.82599 0.35039 0.0
C93 C 0.78149 0.80971 0.33794 0.0
C94 C 0.80697 0.81142 0.37794 0.0
C95 C 0.79294 0.82704 0.37054 0.0
C96 C 0.80833 0.79518 0.36543 0.0
C97 C 0.8028 0.71713 0.28494 0.0
C98 C 0.83811 0.70355 0.30549 0.0
C99 C 0.81962 0.68679 0.27503 0.0
C100 C 0.80229 0.70136 0.27158 0.0
C101 C 0.83786 0.68773 0.29194 0.0
C102 C 0.82072 0.71816 0.30199 0.0
C103 C 0.78464 0.73237 0.28063 0.0
O104 O 0.73272 0.77331 0.29567 0.0
O105 O 0.76141 0.78744 0.2754 0.0
O106 O 0.79488 0.74843 0.27433 0.0
O107 O 0.76651 0.73435 0.295 0.0
H108 H 0.73942 0.75899 0.24796 0.0
H109 H 0.71142 0.75613 0.21605 0.0
H110 H 0.66784 0.80366 0.23766 0.0
H111 H 0.69637 0.80668 0.26914 0.0
H112 H 0.76896 0.83766 0.34436 0.0
H113 H 0.77144 0.80917 0.32252 0.0
H114 H 0.81723 0.81185 0.39325 0.0
H115 H 0.81935 0.78337 0.37139 0.0
H116 H 0.85203 0.7048 0.31853 0.0
H117 H 0.81858 0.67469 0.26453 0.0
H118 H 0.78849 0.70032 0.2584 0.0
H119 H 0.82136 0.7303 0.31246 0.0
C120 C 0.7595 0.20768 0.70465 0.0
C121 C 0.75601 0.211 0.68235 0.0
C122 C 0.76711 0.17857 0.67455 0.0
C123 C 0.75973 0.19659 0.66748 0.0
C124 C 0.77111 0.17545 0.69685 0.0
C125 C 0.76723 0.18981 0.7117 0.0
U126 U 0.77141 0.25622 0.72973 0.0
O127 O 0.74389 0.2766 0.74226 0.0
O128 O 0.77333 0.26466 0.76383 0.0
C129 C 0.75255 0.27491 0.76222 0.0
C130 C 0.75433 0.22232 0.72085 0.0
C131 C 0.73294 0.27195 0.779 0.0
C132 C 0.71451 0.25387 0.80871 0.0
C133 C 0.73257 0.25579 0.79224 0.0
C134 C 0.6965 0.28393 0.79857 0.0
C135 C 0.69637 0.268 0.81222 0.0
C136 C 0.71464 0.2859 0.78223 0.0
C137 C 0.82153 0.28951 0.70611 0.0
C138 C 0.83002 0.32016 0.72177 0.0
C139 C 0.85431 0.30995 0.69089 0.0
C140 C 0.84057 0.29298 0.69076 0.0
C141 C 0.84923 0.32375 0.70642 0.0
C142 C 0.81628 0.30318 0.72161 0.0
C143 C 0.80752 0.27151 0.70595 0.0
O144 O 0.77276 0.22559 0.73505 0.0
O145 O 0.74322 0.23772 0.71373 0.0
O146 O 0.78301 0.27252 0.701 0.0
O147 O 0.81225 0.26035 0.72254 0.0
H148 H 0.75003 0.22462 0.67636 0.0
H149 H 0.75617 0.19947 0.65049 0.0
H150 H 0.77723 0.16187 0.70288 0.0
H151 H 0.77007 0.1869 0.7288 0.0
H152 H 0.71519 0.2415 0.81901 0.0
H153 H 0.74642 0.24475 0.79009 0.0
H154 H 0.68255 0.29494 0.80049 0.0
H155 H 0.7145 0.29844 0.77217 0.0
H156 H 0.82541 0.33056 0.73378 0.0
H157 H 0.8692 0.31212 0.67904 0.0
H158 H 0.84492 0.28252 0.67875 0.0
H159 H 0.80157 0.3007 0.73357 0.0
C160 C 0.80123 0.71475 0.74198 0.0
C161 C 0.81829 0.71645 0.72467 0.0
C162 C 0.83646 0.68593 0.73382 0.0
C163 C 0.83576 0.70213 0.72059 0.0
C164 C 0.81903 0.68428 0.75097 0.0
C165 C 0.8016 0.69857 0.75499 0.0
U166 U 0.77137 0.76284 0.73081 0.0
O167 O 0.73137 0.77183 0.73353 0.0
O168 O 0.7612 0.78488 0.75391 0.0
C169 C 0.73654 0.78299 0.7499 0.0
C170 C 0.78328 0.72982 0.74703 0.0
C171 C 0.72024 0.78071 0.76911 0.0
C172 C 0.69291 0.7617 0.79247 0.0
C173 C 0.70834 0.76345 0.77417 0.0
C174 C 0.70147 0.79431 0.80114 0.0
C175 C 0.68934 0.77711 0.80617 0.0
C176 C 0.71669 0.79609 0.78275 0.0
C177 C 0.79289 0.79305 0.68303 0.0
C178 C 0.77331 0.82313 0.67478 0.0
C179 C 0.8087 0.81225 0.6533 0.0
C180 C 0.80991 0.79588 0.66593 0.0
C181 C 0.79038 0.82608 0.65756 0.0
C182 C 0.77458 0.80676 0.68743 0.0
C183 C 0.79443 0.77577 0.69613 0.0
O184 O 0.79389 0.74562 0.75359 0.0
O185 O 0.76447 0.73233 0.73303 0.0
O186 O 0.77403 0.7648 0.69538 0.0
O187 O 0.80373 0.77789 0.71581 0.0
H188 H 0.81825 0.72892 0.71448 0.0
H189 H 0.84905 0.70391 0.70738 0.0
H190 H 0.81873 0.67188 0.76123 0.0
H191 H 0.78848 0.69702 0.76837 0.0
H192 H 0.68406 0.74822 0.79606 0.0
H193 H 0.71099 0.7513 0.76403 0.0
H194 H 0.69889 0.80648 0.81126 0.0
H195 H 0.72571 0.80952 0.77915 0.0
H196 H 0.75918 0.83358 0.67865 0.0
H197 H 0.82189 0.81394 0.64001 0.0
H198 H 0.82411 0.78541 0.6623 0.0
H199 H 0.76134 0.8048 0.70066 0.0
C200 C 0.72054 0.23953 0.2602 0.0
C201 C 0.70729 0.25629 0.25608 0.0
C202 C 0.68832 0.24297 0.2233 0.0
C203 C 0.69126 0.25796 0.23789 0.0
C204 C 0.70187 0.22629 0.22743 0.0
C205 C 0.71771 0.22459 0.24571 0.0
U206 U 0.77295 0.25793 0.29837 0.0
O207 O 0.77674 0.25589 0.33379 0.0
O208 O 0.80579 0.24333 0.31316 0.0
C209 C 0.7971 0.24522 0.3329 0.0
C210 C 0.73749 0.23735 0.27932 0.0
C211 C 0.7959 0.22785 0.3459 0.0
C212 C 0.77747 0.19698 0.35324 0.0
C213 C 0.77841 0.21344 0.3407 0.0
C214 C 0.8115 0.20921 0.37627 0.0
C215 C 0.79404 0.19465 0.37119 0.0
C216 C 0.8124 0.22564 0.36373 0.0
C217 C 0.80192 0.3068 0.2867 0.0
C218 C 0.83849 0.32011 0.30609 0.0
C219 C 0.81735 0.33817 0.27782 0.0
C220 C 0.80005 0.32336 0.27444 0.0
C221 C 0.83695 0.33668 0.29354 0.0
C222 C 0.82112 0.30526 0.30267 0.0
C223 C 0.78407 0.2912 0.28211 0.0
O224 O 0.76202 0.23584 0.27518 0.0
O225 O 0.73289 0.24829 0.29585 0.0
O226 O 0.76587 0.28835 0.29633 0.0
O227 O 0.79464 0.2756 0.27555 0.0
H228 H 0.70922 0.2681 0.26694 0.0
H229 H 0.68092 0.27093 0.23544 0.0
H230 H 0.70051 0.21458 0.2164 0.0
H231 H 0.72789 0.21158 0.2485 0.0
H232 H 0.76401 0.18599 0.34871 0.0
H233 H 0.76556 0.21491 0.32692 0.0
H234 H 0.82427 0.20802 0.39013 0.0
H235 H 0.82596 0.23667 0.368 0.0
H236 H 0.85346 0.31845 0.31821 0.0
H237 H 0.81531 0.35083 0.26814 0.0
H238 H 0.78526 0.3248 0.2621 0.0
H239 H 0.82283 0.29252 0.31227 0.0
C240 C 0.24137 0.22997 0.6774 0.0
C241 C 0.25914 0.21606 0.68303 0.0
C242 C 0.24415 0.19675 0.65295 0.0
C243 C 0.26054 0.19959 0.6709 0.0
C244 C 0.22644 0.21083 0.64739 0.0
C245 C 0.22508 0.22727 0.65952 0.0
U246 U 0.26272 0.26029 0.72486 0.0
O247 O 0.26866 0.29088 0.72697 0.0
O248 O 0.2401 0.27685 0.74749 0.0
C249 C 0.25021 0.2929 0.74103 0.0
C250 C 0.23946 0.24721 0.69017 0.0
C251 C 0.23195 0.30798 0.73626 0.0
C252 C 0.19578 0.32068 0.71602 0.0
C253 C 0.21332 0.30622 0.71984 0.0
C254 C 0.2156 0.33879 0.74484 0.0
C255 C 0.1966 0.33709 0.72862 0.0
C256 C 0.23307 0.32437 0.74861 0.0
C257 C 0.31502 0.24356 0.76348 0.0
C258 C 0.32324 0.25859 0.79806 0.0
C259 C 0.35307 0.23574 0.78452 0.0
C260 C 0.3377 0.23338 0.76604 0.0
C261 C 0.34592 0.24828 0.80082 0.0
C262 C 0.30798 0.2563 0.77951 0.0
C263 C 0.29885 0.24073 0.74412 0.0
O264 O 0.23054 0.24486 0.70983 0.0
O265 O 0.25949 0.25853 0.68941 0.0
O266 O 0.3033 0.25235 0.72793 0.0
O267 O 0.2743 0.23814 0.74781 0.0
H268 H 0.27182 0.2179 0.69687 0.0
H269 H 0.27419 0.18897 0.67579 0.0
H270 H 0.21379 0.20923 0.6335 0.0
H271 H 0.21128 0.2379 0.65494 0.0
H272 H 0.18128 0.31886 0.70353 0.0
H273 H 0.21222 0.29362 0.71014 0.0
H274 H 0.2171 0.35134 0.75457 0.0
H275 H 0.24743 0.32598 0.76127 0.0
H276 H 0.31738 0.26853 0.81018 0.0
H277 H 0.37028 0.22747 0.78626 0.0
H278 H 0.34344 0.2235 0.7538 0.0
H279 H 0.29062 0.26442 0.77771 0.0
C280 C 0.21053 0.73466 0.32173 0.0
C281 C 0.21508 0.72091 0.30615 0.0
C282 C 0.18182 0.70084 0.32173 0.0
C283 C 0.20086 0.70415 0.30614 0.0
C284 C 0.17741 0.71472 0.33732 0.0
C285 C 0.19166 0.73148 0.3373 0.0
U286 U 0.26059 0.76687 0.29655 0.0
O287 O 0.26075 0.79745 0.29126 0.0
O288 O 0.29057 0.78453 0.31161 0.0
C289 C 0.28033 0.80022 0.30445 0.0
C290 C 0.22523 0.75238 0.32174 0.0
C291 C 0.27693 0.81492 0.32068 0.0
C292 C 0.25545 0.82734 0.35211 0.0
C293 C 0.25864 0.81299 0.33704 0.0
C294 C 0.28892 0.84557 0.33464 0.0
C295 C 0.27047 0.84387 0.35101 0.0
C296 C 0.29208 0.83123 0.31964 0.0
C297 C 0.2942 0.75059 0.24535 0.0
C298 C 0.32871 0.76823 0.22827 0.0
C299 C 0.31107 0.74046 0.21098 0.0
C300 C 0.29407 0.73798 0.22809 0.0
C301 C 0.32857 0.75564 0.21081 0.0
C302 C 0.31159 0.76575 0.24538 0.0
C303 C 0.27589 0.74775 0.263 0.0
O304 O 0.24992 0.75074 0.32566 0.0
O305 O 0.22009 0.76388 0.30556 0.0
O306 O 0.25585 0.75878 0.26245 0.0
O307 O 0.28597 0.74585 0.28247 0.0
H308 H 0.22964 0.72316 0.29401 0.0
H309 H 0.20499 0.69369 0.29408 0.0
H310 H 0.16268 0.71277 0.34936 0.0
H311 H 0.18785 0.742 0.34939 0.0
H312 H 0.24092 0.82565 0.36437 0.0
H313 H 0.24674 0.80045 0.33804 0.0
H314 H 0.30112 0.85793 0.33352 0.0
H315 H 0.30637 0.83291 0.30715 0.0
H316 H 0.34176 0.78016 0.22853 0.0
H317 H 0.31069 0.73035 0.19798 0.0
H318 H 0.28078 0.72618 0.22784 0.0
H319 H 0.31185 0.77568 0.25858 0.0
C320 C 0.97844 0.44956 0.29859 0.0
C321 C 0.95841 0.44621 0.31323 0.0
C322 C 0.99386 0.46566 0.30031 0.0
C323 C 0.98983 0.47866 0.31688 0.0
C324 C 0.95435 0.4593 0.32974 0.0
C325 C 0.96981 0.47541 0.33145 0.0
C326 C 1.00528 0.49621 0.31829 0.0
C327 C 0.06043 0.44861 0.32989 0.0
C328 C 0.08046 0.4479 0.31487 0.0
C329 C 0.04466 0.46438 0.33081 0.0
C330 C 0.04837 0.47959 0.31649 0.0
C331 C 0.08422 0.46323 0.30073 0.0
C332 C 0.06843 0.47891 0.3016 0.0
C333 C 0.03236 0.49666 0.31737 0.0
C334 C 0.05729 0.57836 0.33425 0.0
C335 C 0.07712 0.5812 0.31929 0.0
C336 C 0.0426 0.56182 0.334 0.0
C337 C 0.04727 0.54784 0.31866 0.0
C338 C 0.08203 0.56702 0.30422 0.0
C339 C 0.06736 0.55047 0.30401 0.0
C340 C 0.03188 0.53021 0.31814 0.0
C341 C 0.978 0.57635 0.29925 0.0
C342 C 0.95729 0.5788 0.3133 0.0
C343 C 0.99351 0.56054 0.30108 0.0
C344 C 0.98896 0.54694 0.31723 0.0
C345 C 0.95265 0.56509 0.32936 0.0
C346 C 0.96825 0.54926 0.33121 0.0
C347 C 1.0048 0.52979 0.31874 0.0
H348 H 0.98222 0.43973 0.28576 0.0
H349 H 0.00871 0.46808 0.28847 0.0
H350 H 0.93884 0.45734 0.34106 0.0
H351 H 0.96609 0.48537 0.34417 0.0
H352 H 0.05729 0.43716 0.34123 0.0
H353 H 0.02982 0.46477 0.3429 0.0
H354 H 0.09924 0.46305 0.28879 0.0
H355 H 0.07176 0.49049 0.29045 0.0
H356 H 0.05291 0.58902 0.346 0.0
H357 H 0.02763 0.55994 0.34585 0.0
H358 H 0.09744 0.56859 0.29273 0.0
H359 H 0.07154 0.5398 0.2922 0.0
H360 H 0.98226 0.58668 0.2868 0.0
H361 H 0.00888 0.55883 0.28965 0.0
H362 H 0.93663 0.56636 0.34021 0.0
H363 H 0.96413 0.53882 0.34357 0.0
N364 N 0.9926 0.5128 0.31902 0.0
N365 N 0.04452 0.51364 0.31728 0.0
C366 C 0.97355 0.44602 0.69025 0.0
C367 C 0.95405 0.44327 0.70553 0.0
C368 C 0.98856 0.4624 0.69041 0.0
C369 C 0.98456 0.4763 0.70598 0.0
C370 C 0.94983 0.45737 0.72087 0.0
C371 C 0.96484 0.47375 0.721 0.0
C372 C 1.00026 0.49379 0.70628 0.0
C373 C 0.05431 0.44745 0.72417 0.0
C374 C 0.07475 0.4449 0.70987 0.0
C375 C 0.03872 0.46323 0.72236 0.0
C376 C 0.04291 0.47669 0.706 0.0
C377 C 0.07895 0.45842 0.69351 0.0
C378 C 0.06328 0.47421 0.69169 0.0
C379 C 0.02727 0.49396 0.70475 0.0
C380 C 0.05649 0.5741 0.7228 0.0
C381 C 0.07559 0.57698 0.7072 0.0
C382 C 0.0406 0.55818 0.72207 0.0
C383 C 0.04319 0.54495 0.70551 0.0
C384 C 0.0782 0.56365 0.6907 0.0
C385 C 0.06224 0.54777 0.68994 0.0
C386 C 0.02737 0.52754 0.70508 0.0
C387 C 0.97261 0.57579 0.69674 0.0
C388 C 0.95478 0.57703 0.71357 0.0
C389 C 0.98749 0.55968 0.69449 0.0
C390 C 0.98491 0.54456 0.70911 0.0
C391 C 0.95191 0.56169 0.72786 0.0
C392 C 0.96672 0.54562 0.72558 0.0
C393 C 1.00042 0.52734 0.7072 0.0
H394 H 0.97742 0.43541 0.67829 0.0
H395 H 1.00321 0.46422 0.67827 0.0
H396 H 0.9347 0.45585 0.73262 0.0
H397 H 0.96118 0.48438 0.733 0.0
H398 H 0.05039 0.43727 0.73685 0.0
H399 H 0.02365 0.46504 0.73405 0.0
H400 H 0.09475 0.45706 0.68244 0.0
H401 H 0.06713 0.48455 0.67914 0.0
H402 H 0.05431 0.58388 0.73597 0.0
H403 H 0.02665 0.55602 0.73472 0.0
H404 H 0.09257 0.56551 0.67834 0.0
H405 H 0.06476 0.53767 0.67714 0.0
H406 H 0.9753 0.58736 0.68547 0.0
H407 H 1.00095 0.55902 0.68132 0.0
H408 H 0.93801 0.56202 0.74073 0.0
H409 H 0.96415 0.53405 0.73689 0.0
N410 N 0.98796 0.51047 0.70771 0.0
N411 N 0.03971 0.51083 0.70393 0.0
C412 C 0.23434 0.07774 0.47851 0.0
C413 C 0.25268 0.08092 0.46234 0.0
C414 C 0.23495 0.06139 0.49119 0.0
C415 C 0.25415 0.04799 0.48819 0.0
C416 C 0.27165 0.06735 0.45918 0.0
C417 C 0.2723 0.05103 0.47191 0.0
C418 C 0.25466 0.03034 0.50111 0.0
C419 C 0.26892 0.07731 0.54782 0.0
C420 C 0.24989 0.07919 0.56358 0.0
C421 C 0.26977 0.06126 0.53497 0.0
C422 C 0.25142 0.04683 0.53741 0.0
C423 C 0.23189 0.06452 0.5663 0.0
C424 C 0.23275 0.04847 0.55343 0.0
C425 C 0.25206 0.02975 0.52386 0.0
C426 C 0.27129 0.94836 0.54592 0.0
C427 C 0.25258 0.94555 0.56187 0.0
C428 C 0.27149 0.96475 0.53325 0.0
C429 C 0.25271 0.97851 0.53601 0.0
C430 C 0.23405 0.95949 0.5648 0.0
C431 C 0.23419 0.97581 0.55207 0.0
C432 C 0.2529 0.99617 0.52312 0.0
C433 C 0.23968 0.94977 0.47451 0.0
C434 C 0.2582 0.94898 0.45818 0.0
C435 C 0.23895 0.96514 0.48848 0.0
C436 C 0.257 0.97985 0.48663 0.0
C437 C 0.27621 0.96373 0.4564 0.0
C438 C 0.27553 0.97901 0.4704 0.0
C439 C 0.25578 0.99679 0.50039 0.0
H440 H 0.21916 0.08771 0.48107 0.0
H441 H 0.22017 0.05911 0.50312 0.0
H442 H 0.28618 0.06942 0.44699 0.0
H443 H 0.28714 0.04082 0.46916 0.0
H444 H 0.28301 0.08835 0.54521 0.0
H445 H 0.28482 0.06012 0.52314 0.0
H446 H 0.21727 0.06534 0.57854 0.0
H447 H 0.21863 0.03741 0.55583 0.0
H448 H 0.28611 0.93807 0.54353 0.0
H449 H 0.28653 0.96675 0.5215 0.0
H450 H 0.21923 0.95769 0.57679 0.0
H451 H 0.21965 0.98628 0.55464 0.0
H452 H 0.2253 0.93879 0.47609 0.0
H453 H 0.22393 0.9657 0.50041 0.0
H454 H 0.29091 0.96346 0.44418 0.0
H455 H 0.28954 0.99023 0.46854 0.0
N456 N 0.25663 0.01386 0.49035 0.0
N457 N 0.25105 0.01269 0.53391 0.0
C458 C 0.47594 0.78191 0.93903 0.0
C459 C 0.45651 0.76839 0.93553 0.0
C460 C 0.4913 0.7812 0.95768 0.0
C461 C 0.48778 0.76683 0.97312 0.0
C462 C 0.45301 0.75403 0.95103 0.0
C463 C 0.46838 0.75335 0.9697 0.0
C464 C 0.503 0.76658 0.99352 0.0
C465 C 0.55945 0.75617 0.94059 0.0
C466 C 0.57797 0.77051 0.938 0.0
C467 C 0.54368 0.75571 0.95875 0.0
C468 C 0.546 0.76962 0.97466 0.0
C469 C 0.58031 0.78434 0.95408 0.0
C470 C 0.56463 0.7838 0.97227 0.0
C471 C 0.52989 0.76904 0.99425 0.0
C472 C 0.55595 0.75772 0.0888 0.0
C473 C 0.57444 0.77209 0.09137 0.0
C474 C 0.54104 0.75665 0.06989 0.0
C475 C 0.54408 0.77007 0.05328 0.0
C476 C 0.5777 0.78529 0.07453 0.0
C477 C 0.56276 0.78424 0.05568 0.0
C478 C 0.52891 0.76901 0.03289 0.0
C479 C 0.47124 0.77893 0.08548 0.0
C480 C 0.45236 0.76477 0.0874 0.0
C481 C 0.48763 0.77941 0.06771 0.0
C482 C 0.48573 0.76557 0.05167 0.0
C483 C 0.45051 0.75099 0.07126 0.0
C484 C 0.46692 0.75145 0.05355 0.0
C485 C 0.50202 0.76631 0.03217 0.0
H486 H 0.47927 0.79308 0.92737 0.0
H487 H 0.50561 0.79211 0.96019 0.0
H488 H 0.43799 0.74357 0.94899 0.0
H489 H 0.46507 0.74229 0.98153 0.0
H490 H 0.55743 0.74507 0.92881 0.0
H491 H 0.52993 0.74431 0.96051 0.0
H492 H 0.59408 0.79574 0.95253 0.0
H493 H 0.56686 0.79462 0.98439 0.0
H494 H 0.55286 0.74737 0.10146 0.0
H495 H 0.52729 0.74525 0.0682 0.0
H496 H 0.59209 0.79631 0.07576 0.0
H497 H 0.56573 0.79458 0.04297 0.0
H498 H 0.4729 0.78994 0.09742 0.0
H499 H 0.50144 0.7908 0.06632 0.0
H500 H 0.43642 0.73976 0.07234 0.0
H501 H 0.46495 0.74071 0.04131 0.0
N502 N 0.49018 0.76514 0.0125 0.0
N503 N 0.54173 0.77032 0.01389 0.0
C504 C 0.76723 0.0744 0.47873 0.0
C505 C 0.78648 0.07724 0.46324 0.0
C506 C 0.76661 0.05801 0.49138 0.0
C507 C 0.78541 0.0442 0.48899 0.0
C508 C 0.80503 0.06325 0.46069 0.0
C509 C 0.80441 0.04689 0.47335 0.0
C510 C 0.78476 0.02653 0.50189 0.0
C511 C 0.79778 0.07258 0.55118 0.0
C512 C 0.77835 0.07375 0.56672 0.0
C513 C 0.79865 0.05729 0.53711 0.0
C514 C 0.77997 0.04297 0.53818 0.0
C515 C 0.75957 0.05944 0.56754 0.0
C516 C 0.7605 0.04418 0.55354 0.0
C517 C 0.78147 0.02599 0.52457 0.0
C518 C 0.80301 0.94526 0.54714 0.0
C519 C 0.78478 0.9422 0.56344 0.0
C520 C 0.80226 0.96147 0.53424 0.0
C521 C 0.78305 0.97487 0.53713 0.0
C522 C 0.76574 0.95575 0.56644 0.0
C523 C 0.76498 0.97195 0.5535 0.0
C524 C 0.78252 0.99245 0.52406 0.0
C525 C 0.76778 0.94528 0.47797 0.0
C526 C 0.78648 0.94326 0.46197 0.0
C527 C 0.76721 0.96143 0.49065 0.0
C528 C 0.7856 0.97579 0.48787 0.0
C529 C 0.80445 0.95788 0.45883 0.0
C530 C 0.80394 0.974 0.4716 0.0
C531 C 0.78527 0.99294 0.50132 0.0
H532 H 0.75271 0.0849 0.48121 0.0
H533 H 0.75128 0.05606 0.50287 0.0
H534 H 0.81984 0.0648 0.44865 0.0
H535 H 0.81889 0.03632 0.47097 0.0
H536 H 0.81276 0.08319 0.55031 0.0
H537 H 0.81427 0.05644 0.52578 0.0
H538 H 0.74409 0.06001 0.57903 0.0
H539 H 0.74595 0.03326 0.55472 0.0
H540 H 0.81785 0.93508 0.54428 0.0
H541 H 0.8169 0.96362 0.52216 0.0
H542 H 0.75167 0.95403 0.57907 0.0
H543 H 0.7502 0.98221 0.55626 0.0
H544 H 0.75332 0.93449 0.48049 0.0
H545 H 0.75228 0.96274 0.50256 0.0
H546 H 0.81919 0.95672 0.44673 0.0
H547 H 0.81816 0.98496 0.46899 0.0
N548 N 0.78657 0.00997 0.49118 0.0
N549 N 0.78046 0.00898 0.5347 0.0
C550 C 0.47493 0.26935 0.93848 0.0
C551 C 0.45535 0.25587 0.93548 0.0
C552 C 0.4898 0.26939 0.95746 0.0
C553 C 0.48574 0.25569 0.97361 0.0
C554 C 0.451 0.24243 0.95187 0.0
C555 C 0.46599 0.24239 0.97074 0.0
C556 C 0.50109 0.25551 0.99396 0.0
C557 C 0.55685 0.24626 0.93998 0.0
C558 C 0.57627 0.26006 0.93849 0.0
C559 C 0.54117 0.24519 0.95818 0.0
C560 C 0.54432 0.25809 0.97512 0.0
C561 C 0.57971 0.27266 0.95573 0.0
C562 C 0.56397 0.27164 0.97385 0.0
C563 C 0.52812 0.25714 0.99467 0.0
C564 C 0.55308 0.23959 0.08807 0.0
C565 C 0.57375 0.25214 0.09138 0.0
C566 C 0.53793 0.24072 0.06931 0.0
C567 C 0.5427 0.2547 0.05365 0.0
C568 C 0.57871 0.26593 0.07547 0.0
C569 C 0.56339 0.26716 0.05682 0.0
C570 C 0.52731 0.25575 0.03333 0.0
C571 C 0.47218 0.2656 0.08742 0.0
C572 C 0.45249 0.25201 0.08905 0.0
C573 C 0.4877 0.26647 0.06912 0.0
C574 C 0.48408 0.25362 0.05219 0.0
C575 C 0.44856 0.23947 0.07182 0.0
C576 C 0.46411 0.24033 0.05357 0.0
C577 C 0.50026 0.25433 0.03262 0.0
H578 H 0.47844 0.28009 0.92632 0.0
H579 H 0.5043 0.28023 0.95956 0.0
H580 H 0.4362 0.23177 0.94999 0.0
H581 H 0.46231 0.23179 0.98304 0.0
H582 H 0.55357 0.23637 0.927 0.0
H583 H 0.52666 0.23424 0.95903 0.0
H584 H 0.59482 0.2832 0.95539 0.0
H585 H 0.56706 0.28154 0.98686 0.0
H586 H 0.54852 0.22886 0.09998 0.0
H587 H 0.52266 0.23049 0.06699 0.0
H588 H 0.59474 0.2756 0.0772 0.0
H589 H 0.56775 0.27787 0.04481 0.0
H590 H 0.47582 0.27543 0.10039 0.0
H591 H 0.50249 0.27722 0.0682 0.0
H592 H 0.43327 0.22908 0.07232 0.0
H593 H 0.46068 0.23046 0.04058 0.0
N594 N 0.4883 0.2541 0.01296 0.0
N595 N 0.54009 0.25727 0.01433 0.0
H596 H 0.21088 0.37584 0.29758 0.0
H597 H 0.0675 0.41041 0.31769 0.0
H598 H 0.14624 0.33786 0.30299 0.0
H599 H 0.13254 0.4477 0.31002 0.0
H600 H 0.09611 0.38351 0.31463 0.0
H601 H 0.18255 0.40218 0.3041 0.0
C602 C 0.19069 0.37303 0.30009 0.0
C603 C 0.18091 0.35459 0.29954 0.0
C604 C 0.10412 0.39758 0.31368 0.0
C605 C 0.14827 0.38478 0.30723 0.0
C606 C 0.08781 0.41295 0.31554 0.0
C607 C 0.0976 0.43136 0.31396 0.0
C608 C 0.13041 0.40065 0.31028 0.0
C609 C 0.12406 0.43378 0.31096 0.0
C610 C 0.17452 0.38809 0.30393 0.0
C611 C 0.15465 0.35181 0.30339 0.0
N612 N 0.13949 0.41864 0.30917 0.0
N613 N 0.13922 0.36674 0.30695 0.0
H614 H 0.14327 0.6875 0.72755 0.0
H615 H 0.12742 0.57803 0.70052 0.0
H616 H 0.20675 0.65056 0.71644 0.0
H617 H 0.06412 0.6135 0.71709 0.0
H618 H 0.15637 0.60504 0.70375 0.0
H619 H 0.11365 0.66119 0.72122 0.0
C620 C 0.15098 0.6739 0.72359 0.0
C621 C 0.17756 0.67123 0.72262 0.0
C622 C 0.13615 0.60695 0.70664 0.0
C623 C 0.14376 0.641 0.71553 0.0
C624 C 0.11955 0.59154 0.70465 0.0
C625 C 0.09326 0.59347 0.70855 0.0
C626 C 0.12645 0.62449 0.71253 0.0
C627 C 0.08428 0.6113 0.7142 0.0
C628 C 0.13406 0.65885 0.72012 0.0
C629 C 0.18644 0.65322 0.71768 0.0
N630 N 0.10083 0.6261 0.71603 0.0
N631 N 0.1696 0.63882 0.71435 0.0
H632 H 0.86363 0.66835 0.26103 0.0
H633 H 0.93575 0.60019 0.3451 0.0
H634 H 0.85486 0.67192 0.33023 0.0
H635 H 0.93976 0.5951 0.27568 0.0
H636 H 0.90731 0.62708 0.3403 0.0
H637 H 0.89295 0.64224 0.26639 0.0
C638 C 0.86778 0.66359 0.27737 0.0
C639 C 0.85655 0.67228 0.29519 0.0
C640 C 0.91447 0.62009 0.32613 0.0
C641 C 0.89048 0.6424 0.30149 0.0
C642 C 0.9306 0.60467 0.32886 0.0
C643 C 0.94023 0.59534 0.31077 0.0
C644 C 0.90787 0.62625 0.30516 0.0
C645 C 0.93317 0.60198 0.29011 0.0
C646 C 0.88465 0.64872 0.28043 0.0
C647 C 0.86316 0.66575 0.31601 0.0
N648 N 0.91743 0.61697 0.28789 0.0
N649 N 0.87961 0.65116 0.31859 0.0
H650 H 0.8679 0.34311 0.74158 0.0
H651 H 0.93424 0.42437 0.67051 0.0
H652 H 0.86449 0.34537 0.67179 0.0
H653 H 0.9375 0.42235 0.7403 0.0
H654 H 0.9085 0.39552 0.67069 0.0
H655 H 0.89275 0.37239 0.7415 0.0
C656 C 0.87221 0.34982 0.72623 0.0
C657 C 0.86408 0.34171 0.70665 0.0
C658 C 0.91482 0.40138 0.68598 0.0
C659 C 0.89283 0.3752 0.70645 0.0
C660 C 0.92966 0.41782 0.68588 0.0
C661 C 0.93813 0.42581 0.70542 0.0
C662 C 0.90837 0.3928 0.70576 0.0
C663 C 0.93118 0.41683 0.72485 0.0
C664 C 0.88655 0.3665 0.7262 0.0
C665 C 0.87063 0.35093 0.68727 0.0
N666 N 0.91677 0.40081 0.72452 0.0
N667 N 0.8846 0.36715 0.68766 0.0
H668 H 0.23809 0.19538 0.4149 0.0
H669 H 0.2605 0.08419 0.41862 0.0
H670 H 0.25185 0.16209 0.35821 0.0
H671 H 0.24279 0.11704 0.47479 0.0
H672 H 0.25876 0.11271 0.3964 0.0
H673 H 0.24062 0.16696 0.43718 0.0
C674 C 0.24151 0.18209 0.4071 0.0
C675 C 0.24469 0.18117 0.38459 0.0
C676 C 0.25526 0.11369 0.41358 0.0
C677 C 0.24792 0.14851 0.41012 0.0
C678 C 0.25641 0.09742 0.42632 0.0
C679 C 0.2518 0.09819 0.44864 0.0
C680 C 0.24951 0.13094 0.4232 0.0
C681 C 0.24617 0.11571 0.45763 0.0
C682 C 0.2431 0.16586 0.41987 0.0
C683 C 0.24957 0.16356 0.3755 0.0
N684 N 0.24521 0.13137 0.4449 0.0
N685 N 0.251 0.14795 0.38827 0.0
H686 H 0.35885 0.80761 0.83071 0.0
H687 H 0.43887 0.73967 0.9097 0.0
H688 H 0.36472 0.74781 0.8211 0.0
H689 H 0.43536 0.79983 0.91702 0.0
H690 H 0.41079 0.7421 0.87785 0.0
H691 H 0.38618 0.80481 0.86281 0.0
C692 C 0.36599 0.79389 0.83527 0.0
C693 C 0.35953 0.77794 0.82306 0.0
C694 C 0.41619 0.75477 0.88642 0.0
C695 C 0.3907 0.77459 0.86009 0.0
C696 C 0.43212 0.75338 0.90467 0.0
C697 C 0.43958 0.76958 0.91605 0.0
C698 C 0.40754 0.77248 0.8795 0.0
C699 C 0.43047 0.787 0.9086 0.0
C700 C 0.38151 0.79228 0.8537 0.0
C701 C 0.36896 0.76047 0.83009 0.0
N702 N 0.41494 0.78797 0.89084 0.0
N703 N 0.3841 0.75927 0.8481 0.0
H704 H 0.7962 0.86374 0.35677 0.0
H705 H 0.77974 0.90669 0.47521 0.0
H706 H 0.78687 0.82989 0.41445 0.0
H707 H 0.79486 0.94042 0.41833 0.0
H708 H 0.78082 0.87847 0.45301 0.0
H709 H 0.79425 0.89203 0.37882 0.0
C710 C 0.79359 0.86225 0.37406 0.0
C711 C 0.7917 0.84438 0.38376 0.0
C712 C 0.78392 0.89203 0.44537 0.0
C713 C 0.78966 0.87676 0.40916 0.0
C714 C 0.78316 0.90818 0.45802 0.0
C715 C 0.7872 0.92598 0.44863 0.0
C716 C 0.78867 0.89365 0.4231 0.0
C717 C 0.79193 0.92699 0.42632 0.0
C718 C 0.79264 0.87842 0.38666 0.0
C719 C 0.78872 0.84334 0.4063 0.0
N720 N 0.79248 0.91107 0.41432 0.0
N721 N 0.78775 0.85928 0.41821 0.0
H722 H 0.67103 0.23642 0.82729 0.0
H723 H 0.59439 0.29177 0.91796 0.0
H724 H 0.67943 0.29595 0.83869 0.0
H725 H 0.59641 0.23123 0.9148 0.0
H726 H 0.62303 0.29361 0.88709 0.0
H727 H 0.64133 0.23427 0.85758 0.0
C728 C 0.66674 0.24903 0.83617 0.0
C729 C 0.67782 0.26641 0.83033 0.0
C730 C 0.61722 0.27991 0.89313 0.0
C731 C 0.6435 0.26406 0.86489 0.0
C732 C 0.60093 0.27884 0.91086 0.0
C733 C 0.59304 0.26131 0.91916 0.0
C734 C 0.62568 0.26334 0.88347 0.0
C735 C 0.60174 0.24506 0.90888 0.0
C736 C 0.64967 0.2478 0.8534 0.0
C737 C 0.67111 0.28231 0.84228 0.0
N738 N 0.61761 0.24647 0.89161 0.0
N739 N 0.65443 0.28074 0.85893 0.0
H740 H 0.25456 0.83021 0.60839 0.0
H741 H 0.24405 0.94244 0.60547 0.0
H742 H 0.24208 0.86384 0.66501 0.0
H743 H 0.26081 0.90919 0.5494 0.0
H744 H 0.24303 0.91378 0.62748 0.0
H745 H 0.2567 0.85892 0.58647 0.0
C746 C 0.25218 0.84363 0.61621 0.0
C747 C 0.24807 0.84459 0.63859 0.0
C748 C 0.24698 0.91273 0.61037 0.0
C749 C 0.25068 0.87758 0.61358 0.0
C750 C 0.24741 0.9291 0.59776 0.0
C751 C 0.25243 0.92823 0.57551 0.0
C752 C 0.2515 0.8953 0.6007 0.0
C753 C 0.25709 0.91056 0.56651 0.0
C754 C 0.25355 0.86003 0.6037 0.0
C755 C 0.24554 0.86241 0.64787 0.0
N756 N 0.25642 0.8948 0.57911 0.0
N757 N 0.2468 0.87817 0.63533 0.0
H758 H 0.66848 0.7477 0.20483 0.0
H759 H 0.58939 0.80367 0.11354 0.0
H760 H 0.66759 0.80819 0.19916 0.0
H761 H 0.59607 0.74326 0.11496 0.0
H762 H 0.61671 0.80546 0.14576 0.0
H763 H 0.64084 0.74565 0.17272 0.0
C764 C 0.6626 0.76056 0.1968 0.0
C765 C 0.67042 0.77816 0.20478 0.0
C766 C 0.6122 0.7918 0.13905 0.0
C767 C 0.63846 0.77589 0.16811 0.0
C768 C 0.59669 0.79077 0.12056 0.0
C769 C 0.59046 0.77329 0.11141 0.0
C770 C 0.62161 0.77523 0.14858 0.0
C771 C 0.6001 0.75704 0.12154 0.0
C772 C 0.64669 0.75937 0.17852 0.0
C773 C 0.66179 0.79433 0.19384 0.0
N774 N 0.61521 0.75841 0.13954 0.0
N775 N 0.64632 0.7928 0.17611 0.0
H776 H 0.75341 0.14151 0.67985 0.0
H777 H 0.78942 0.11122 0.55962 0.0
H778 H 0.78673 0.1799 0.6333 0.0
H779 H 0.76649 0.07219 0.6098 0.0
H780 H 0.78791 0.13676 0.58586 0.0
H781 H 0.75736 0.11615 0.65394 0.0
C782 C 0.7618 0.14461 0.66426 0.0
C783 C 0.76983 0.16294 0.65886 0.0
C784 C 0.78324 0.12259 0.59111 0.0
C785 C 0.77396 0.13386 0.6288 0.0
C786 C 0.78421 0.10798 0.57615 0.0
C787 C 0.77791 0.0895 0.58243 0.0
C788 C 0.77588 0.11872 0.6125 0.0
C789 C 0.77101 0.08623 0.60406 0.0
C790 C 0.76389 0.1301 0.64938 0.0
C791 C 0.77999 0.16608 0.63814 0.0
N792 N 0.77012 0.10067 0.61824 0.0
N793 N 0.78172 0.15171 0.62387 0.0
H794 H 0.36127 0.27667 0.2019 0.0
H795 H 0.43477 0.22041 0.11001 0.0
H796 H 0.3583 0.21634 0.19539 0.0
H797 H 0.43287 0.28096 0.11279 0.0
H798 H 0.40747 0.21874 0.14176 0.0
H799 H 0.38806 0.27863 0.16974 0.0
C800 C 0.3661 0.26383 0.19367 0.0
C801 C 0.3575 0.2463 0.20145 0.0
C802 C 0.413 0.2324 0.13544 0.0
C803 C 0.38848 0.24845 0.16471 0.0
C804 C 0.4285 0.23338 0.1172 0.0
C805 C 0.43611 0.25086 0.1086 0.0
C806 C 0.40501 0.24903 0.14528 0.0
C807 C 0.42775 0.26717 0.11896 0.0
C808 C 0.38154 0.26497 0.17536 0.0
C809 C 0.36476 0.23014 0.19024 0.0
N810 N 0.41265 0.26586 0.13671 0.0
N811 N 0.37981 0.23162 0.17248 0.0
H812 H 0.85197 0.6713 0.69507 0.0
H813 H 0.943 0.59469 0.75129 0.0
H814 H 0.86429 0.66623 0.76403 0.0
H815 H 0.93086 0.59847 0.68221 0.0
H816 H 0.9155 0.62181 0.7559 0.0
H817 H 0.88231 0.64577 0.68964 0.0
C818 C 0.86118 0.66492 0.70906 0.0
C819 C 0.85541 0.67086 0.73006 0.0
C820 C 0.91887 0.61677 0.73971 0.0
C821 C 0.89 0.64153 0.72396 0.0
C822 C 0.93449 0.6012 0.73707 0.0
C823 C 0.9391 0.59416 0.71634 0.0
C824 C 0.90764 0.62545 0.72149 0.0
C825 C 0.92797 0.60346 0.69849 0.0
C826 C 0.87839 0.65028 0.70595 0.0
C827 C 0.86775 0.66193 0.74757 0.0
N828 N 0.91264 0.61856 0.70148 0.0
N829 N 0.88437 0.64773 0.74413 0.0
H830 H 0.85995 0.35817 0.26218 0.0
H831 H 0.9386 0.42334 0.34518 0.0
H832 H 0.85722 0.35075 0.3315 0.0
H833 H 0.93904 0.43089 0.27582 0.0
H834 H 0.90967 0.39633 0.34072 0.0
H835 H 0.88986 0.38436 0.26707 0.0
C836 C 0.86554 0.36211 0.27846 0.0
C837 C 0.85585 0.3523 0.29646 0.0
C838 C 0.91616 0.40387 0.32648 0.0
C839 C 0.89048 0.38227 0.30219 0.0
C840 C 0.93259 0.41936 0.32902 0.0
C841 C 0.94132 0.42944 0.31085 0.0
C842 C 0.90833 0.39841 0.30562 0.0
C843 C 0.93314 0.42344 0.29029 0.0
C844 C 0.88276 0.37702 0.28124 0.0
C845 C 0.86429 0.35781 0.31714 0.0
N846 N 0.91711 0.40838 0.28826 0.0
N847 N 0.88104 0.37247 0.31945 0.0
H848 H 0.17762 0.35126 0.69013 0.0
H849 H 0.09332 0.42955 0.74762 0.0
H850 H 0.17222 0.35767 0.7593 0.0
H851 H 0.096 0.42304 0.67831 0.0
H852 H 0.1218 0.40286 0.75193 0.0
H853 H 0.14725 0.377 0.68518 0.0
C854 C 0.16994 0.35798 0.70427 0.0
C855 C 0.17764 0.35234 0.72517 0.0
C856 C 0.11615 0.40721 0.73575 0.0
C857 C 0.14306 0.38193 0.71961 0.0
C858 C 0.09971 0.42241 0.73328 0.0
C859 C 0.0921 0.42855 0.71256 0.0
C860 C 0.12519 0.39798 0.71739 0.0
C861 C 0.10154 0.41893 0.69459 0.0
C862 C 0.15271 0.37275 0.70143 0.0
C863 C 0.16724 0.36172 0.74289 0.0
N864 N 0.11758 0.40413 0.69742 0.0
N865 N 0.15056 0.37603 0.7397 0.0
H866 H 0.1664 0.67948 0.35655 0.0
H867 H 0.09386 0.60195 0.28449 0.0
H868 H 0.16236 0.68158 0.28677 0.0
H869 H 0.0958 0.60075 0.35432 0.0
H870 H 0.1196 0.6308 0.285 0.0
H871 H 0.14089 0.65052 0.35606 0.0
C872 C 0.16005 0.67392 0.34112 0.0
C873 C 0.16655 0.68305 0.32167 0.0
C874 C 0.11439 0.62424 0.30022 0.0
C875 C 0.13749 0.64969 0.32099 0.0
C876 C 0.09981 0.60769 0.29994 0.0
C877 C 0.09264 0.59886 0.31939 0.0
C878 C 0.12198 0.63208 0.3201 0.0
C879 C 0.10058 0.60716 0.33892 0.0
C880 C 0.14558 0.65731 0.34085 0.0
C881 C 0.15812 0.67495 0.30216 0.0
N882 N 0.11484 0.62326 0.33877 0.0
N883 N 0.14402 0.65877 0.30233 0.0
H884 H 0.74761 0.84429 0.64227 0.0
H885 H 0.82728 0.92501 0.58075 0.0
H886 H 0.83023 0.84752 0.64201 0.0
H887 H 0.74476 0.9204 0.57827 0.0
H888 H 0.82864 0.89693 0.60367 0.0
H889 H 0.74607 0.87266 0.61973 0.0
C890 C 0.76543 0.85102 0.63759 0.0
C891 C 0.78909 0.84346 0.64404 0.0
C892 C 0.81023 0.90205 0.59811 0.0
C893 C 0.78746 0.8759 0.61803 0.0
C894 C 0.80943 0.91804 0.58489 0.0
C895 C 0.78586 0.9251 0.57747 0.0
C896 C 0.78729 0.89299 0.60404 0.0
C897 C 0.76336 0.91563 0.58377 0.0
C898 C 0.76454 0.86717 0.6246 0.0
C899 C 0.81156 0.85267 0.6372 0.0
N900 N 0.76463 0.90007 0.59666 0.0
N901 N 0.81018 0.86838 0.6246 0.0
H902 H 0.6802 0.27402 0.19729 0.0
H903 H 0.58947 0.22016 0.11281 0.0
H904 H 0.65727 0.21587 0.20489 0.0
H905 H 0.59615 0.28066 0.11505 0.0
H906 H 0.61671 0.21803 0.14504 0.0
H907 H 0.65194 0.27644 0.16565 0.0
C908 C 0.66913 0.26178 0.19246 0.0
C909 C 0.67121 0.2447 0.2039 0.0
C910 C 0.61215 0.23177 0.1385 0.0
C911 C 0.6391 0.24734 0.16732 0.0
C912 C 0.59644 0.23303 0.12013 0.0
C913 C 0.59033 0.25064 0.11112 0.0
C914 C 0.6221 0.24821 0.14792 0.0
C915 C 0.60056 0.26676 0.12116 0.0
C916 C 0.65309 0.26317 0.17428 0.0
C917 C 0.6567 0.22925 0.19646 0.0
N918 N 0.61596 0.26515 0.13896 0.0
N919 N 0.64136 0.23093 0.17865 0.0
H920 H 0.28688 0.17743 0.64068 0.0
H921 H 0.20735 0.09848 0.57613 0.0
H922 H 0.20431 0.17595 0.63589 0.0
H923 H 0.28985 0.09918 0.58182 0.0
H924 H 0.2059 0.12671 0.59824 0.0
H925 H 0.28841 0.14867 0.61943 0.0
C926 C 0.26905 0.17101 0.63528 0.0
C927 C 0.24542 0.17918 0.6401 0.0
C928 C 0.22434 0.1207 0.59467 0.0
C929 C 0.24706 0.14628 0.61552 0.0
C930 C 0.22517 0.10449 0.58214 0.0
C931 C 0.24876 0.09638 0.57709 0.0
C932 C 0.24726 0.12894 0.60228 0.0
C933 C 0.27124 0.10504 0.58505 0.0
C934 C 0.26995 0.15463 0.62303 0.0
C935 C 0.22299 0.17034 0.63234 0.0
N936 N 0.26993 0.12081 0.59724 0.0
N937 N 0.22436 0.1544 0.62047 0.0
H938 H 0.31839 0.75134 0.16755 0.0
H939 H 0.46263 0.77204 0.1303 0.0
H940 H 0.37953 0.7659 0.2121 0.0
H941 H 0.40081 0.75705 0.0866 0.0
H942 H 0.43247 0.77104 0.16036 0.0
H943 H 0.3483 0.75432 0.13765 0.0
C944 C 0.33815 0.75511 0.17107 0.0
C945 C 0.34647 0.75824 0.19243 0.0
C946 C 0.42552 0.76799 0.14419 0.0
C947 C 0.38091 0.76185 0.15812 0.0
C948 C 0.4427 0.76865 0.12699 0.0
C949 C 0.4343 0.76452 0.10587 0.0
C950 C 0.3997 0.76322 0.14025 0.0
C951 C 0.40829 0.76002 0.10263 0.0
C952 C 0.35522 0.7569 0.15395 0.0
C953 C 0.37221 0.76348 0.1959 0.0
N954 N 0.39197 0.75947 0.1196 0.0
N955 N 0.38854 0.76503 0.17894 0.0
H956 H 0.83434 0.17502 0.38872 0.0
H957 H 0.74602 0.09603 0.44455 0.0
H958 H 0.75175 0.17432 0.38419 0.0
H959 H 0.82844 0.09815 0.45088 0.0
H960 H 0.74766 0.12452 0.42222 0.0
H961 H 0.8325 0.14666 0.41118 0.0
C962 C 0.81579 0.16897 0.39253 0.0
C963 C 0.79316 0.17716 0.38457 0.0
C964 C 0.76539 0.11875 0.4285 0.0
C965 C 0.79092 0.14446 0.41017 0.0
C966 C 0.76446 0.10253 0.44138 0.0
C967 C 0.78713 0.09463 0.44966 0.0
C968 C 0.78916 0.1272 0.42383 0.0
C969 C 0.81049 0.10355 0.44465 0.0
C970 C 0.81476 0.1527 0.40528 0.0
C971 C 0.76971 0.16843 0.38974 0.0
N972 N 0.81089 0.11933 0.43209 0.0
N973 N 0.76921 0.1526 0.40223 0.0
H974 H 0.32974 0.25032 0.84275 0.0
H975 H 0.47109 0.26057 0.89355 0.0
H976 H 0.39832 0.25088 0.80438 0.0
H977 H 0.40335 0.25099 0.93166 0.0
H978 H 0.44453 0.25964 0.86067 0.0
H979 H 0.35621 0.25314 0.87545 0.0
C980 C 0.35037 0.25118 0.84119 0.0
C981 C 0.36183 0.25035 0.82078 0.0
C982 C 0.43548 0.25775 0.87622 0.0
C983 C 0.3923 0.25344 0.85821 0.0
C984 C 0.45061 0.25839 0.895 0.0
C985 C 0.43944 0.25579 0.91539 0.0
C986 C 0.40894 0.25462 0.87782 0.0
C987 C 0.41283 0.25282 0.91628 0.0
C988 C 0.36549 0.25266 0.85989 0.0
C989 C 0.38869 0.25126 0.81979 0.0
N990 N 0.39851 0.25233 0.89779 0.0
N991 N 0.403 0.25278 0.83822 0.0
H992 H 0.27084 0.88177 0.34289 0.0
H993 H 0.25123 0.91123 0.46647 0.0
H994 H 0.2619 0.84141 0.39484 0.0
H995 H 0.26559 0.9506 0.41442 0.0
H996 H 0.25259 0.88546 0.44047 0.0
H997 H 0.26677 0.90712 0.36886 0.0
C998 C 0.26813 0.87822 0.35979 0.0
C999 C 0.26694 0.85938 0.36668 0.0
C1000 C 0.25542 0.89975 0.43476 0.0
C1001 C 0.26196 0.88848 0.3966 0.0
C1002 C 0.25452 0.91447 0.44957 0.0
C1003 C 0.25846 0.93312 0.44266 0.0
C1004 C 0.26017 0.9037 0.41284 0.0
C1005 C 0.26288 0.93645 0.42057 0.0
C1006 C 0.26567 0.89273 0.37462 0.0
C1007 C 0.26278 0.8557 0.38875 0.0
N1008 N 0.26362 0.92191 0.4065 0.0
N1009 N 0.26054 0.87011 0.40293 0.0
H1010 H 0.64225 0.75996 0.80961 0.0
H1011 H 0.62895 0.78046 0.93611 0.0
H1012 H 0.69919 0.79019 0.84703 0.0
H1013 H 0.56581 0.76154 0.89585 0.0
H1014 H 0.65614 0.78172 0.90426 0.0
H1015 H 0.61533 0.75769 0.84174 0.0
C1016 C 0.64915 0.76602 0.82462 0.0
C1017 C 0.67298 0.77532 0.82563 0.0
C1018 C 0.63632 0.7773 0.90239 0.0
C1019 C 0.64225 0.77284 0.86244 0.0
C1020 C 0.6207 0.77668 0.92058 0.0
C1021 C 0.59492 0.77098 0.91874 0.0
C1022 C 0.62623 0.77208 0.88215 0.0
C1023 C 0.5856 0.76581 0.89817 0.0
C1024 C 0.63371 0.76482 0.84292 0.0
C1025 C 0.68083 0.78309 0.84546 0.0
N1026 N 0.60123 0.76649 0.88071 0.0
N1027 N 0.66555 0.78164 0.86307 0.0
loop_
_geom_bond_atom_site_label_1
_geom_bond_atom_site_label_2
_geom_bond_distance
_geom_bond_site_symmetry_2
_ccdc_geom_bond_type
C0 C1 1.264 . S
C0 C5 1.479 . S
C0 C10 1.465 . S
C1 C0 1.264 . S
C1 C3 1.339 . S
C1 H28 0.931 . S
C2 C3 1.395 . S
C2 C4 1.320 . S
C3 C1 1.339 . S
C3 C2 1.395 . S
C3 H29 0.929 . S
C4 C2 1.320 . S
C4 C5 1.405 . S
C4 H30 0.930 . S
C5 C0 1.479 . S
C5 C4 1.405 . S
C5 H31 0.931 . S
U6 O7 2.454 . S
U6 O8 2.458 . S
U6 C9 2.984 . S
U6 C10 2.847 . S
U6 C23 2.882 . S
U6 O24 2.441 . S
U6 O25 2.420 . S
U6 O26 2.455 . S
U6 O27 2.449 . S
O7 U6 2.454 . S
O7 C9 1.353 . S
O8 U6 2.458 . S
O8 C9 1.286 . S
C9 U6 2.984 . S
C9 O7 1.353 . S
C9 O8 1.286 . S
C9 C11 1.363 . S
C10 C0 1.465 . S
C10 U6 2.847 . S
C10 O24 1.249 . S
C10 O25 1.202 . S
C11 C9 1.363 . S
C11 C13 1.408 . S
C11 C16 1.342 . S
C12 C13 1.310 . S
C12 C15 1.461 . S
C12 H32 0.932 . S
C13 C11 1.408 . S
C13 C12 1.310 . S
C13 H33 0.930 . S
C14 C15 1.474 . S
C14 C16 1.285 . S
C14 H34 0.929 . S
C15 C12 1.461 . S
C15 C14 1.474 . S
C16 C11 1.342 . S
C16 C14 1.285 . S
C16 H35 0.930 . S
C17 C20 1.424 . S
C17 C22 1.245 . S
C17 C23 1.428 . S
C18 C21 1.260 . S
C18 C22 1.477 . S
C18 H36 0.932 . S
C19 C20 1.384 . S
C19 C21 1.479 . S
C19 H37 0.929 . S
C20 C17 1.424 . S
C20 C19 1.384 . S
C20 H38 0.928 . S
C21 C18 1.260 . S
C21 C19 1.479 . S
C22 C17 1.245 . S
C22 C18 1.477 . S
C22 H39 0.932 . S
C23 U6 2.882 . S
C23 C17 1.428 . S
C23 O26 1.301 . S
C23 O27 1.282 . S
O24 U6 2.441 . S
O24 C10 1.249 . S
O25 U6 2.420 . S
O25 C10 1.202 . S
O26 U6 2.455 . S
O26 C23 1.301 . S
O27 U6 2.449 . S
O27 C23 1.282 . S
H28 C1 0.931 . S
H29 C3 0.929 . S
H30 C4 0.930 . S
H31 C5 0.931 . S
H32 C12 0.932 . S
H33 C13 0.930 . S
H34 C14 0.929 . S
H35 C16 0.930 . S
H36 C18 0.932 . S
H37 C19 0.929 . S
H38 C20 0.928 . S
H39 C22 0.932 . S
C40 C41 1.264 . S
C40 C45 1.479 . S
C40 C50 1.465 . S
C41 C40 1.264 . S
C41 C43 1.339 . S
C41 H68 0.931 . S
C42 C43 1.395 . S
C42 C44 1.320 . S
C43 C41 1.339 . S
C43 C42 1.395 . S
C43 H69 0.929 . S
C44 C42 1.320 . S
C44 C45 1.405 . S
C44 H70 0.930 . S
C45 C40 1.479 . S
C45 C44 1.405 . S
C45 H71 0.931 . S
U46 O47 2.454 . S
U46 O48 2.458 . S
U46 C49 2.984 . S
U46 C50 2.847 . S
U46 C63 2.882 . S
U46 O64 2.441 . S
U46 O65 2.420 . S
U46 O66 2.455 . S
U46 O67 2.449 . S
O47 U46 2.454 . S
O47 C49 1.353 . S
O48 U46 2.458 . S
O48 C49 1.286 . S
C49 U46 2.984 . S
C49 O47 1.353 . S
C49 O48 1.286 . S
C49 C51 1.363 . S
C50 C40 1.465 . S
C50 U46 2.847 . S
C50 O64 1.249 . S
C50 O65 1.202 . S
C51 C49 1.363 . S
C51 C53 1.408 . S
C51 C56 1.342 . S
C52 C53 1.310 . S
C52 C55 1.461 . S
C52 H72 0.932 . S
C53 C51 1.408 . S
C53 C52 1.310 . S
C53 H73 0.930 . S
C54 C55 1.474 . S
C54 C56 1.285 . S
C54 H74 0.929 . S
C55 C52 1.461 . S
C55 C54 1.474 . S
C56 C51 1.342 . S
C56 C54 1.285 . S
C56 H75 0.930 . S
C57 C60 1.424 . S
C57 C62 1.245 . S
C57 C63 1.428 . S
C58 C61 1.260 . S
C58 C62 1.477 . S
C58 H76 0.932 . S
C59 C60 1.384 . S
C59 C61 1.479 . S
C59 H77 0.929 . S
C60 C57 1.424 . S
C60 C59 1.384 . S
C60 H78 0.928 . S
C61 C58 1.260 . S
C61 C59 1.479 . S
C62 C57 1.245 . S
C62 C58 1.477 . S
C62 H79 0.932 . S
C63 U46 2.882 . S
C63 C57 1.428 . S
C63 O66 1.301 . S
C63 O67 1.282 . S
O64 U46 2.441 . S
O64 C50 1.249 . S
O65 U46 2.420 . S
O65 C50 1.202 . S
O66 U46 2.455 . S
O66 C63 1.301 . S
O67 U46 2.449 . S
O67 C63 1.282 . S
H68 C41 0.931 . S
H69 C43 0.929 . S
H70 C44 0.930 . S
H71 C45 0.931 . S
H72 C52 0.932 . S
H73 C53 0.930 . S
H74 C54 0.929 . S
H75 C56 0.930 . S
H76 C58 0.932 . S
H77 C59 0.929 . S
H78 C60 0.928 . S
H79 C62 0.932 . S
C80 C81 1.264 . S
C80 C85 1.479 . S
C80 C90 1.465 . S
C81 C80 1.264 . S
C81 C83 1.339 . S
C81 H108 0.931 . S
C82 C83 1.395 . S
C82 C84 1.320 . S
C83 C81 1.339 . S
C83 C82 1.395 . S
C83 H109 0.929 . S
C84 C82 1.320 . S
C84 C85 1.405 . S
C84 H110 0.930 . S
C85 C80 1.479 . S
C85 C84 1.405 . S
C85 H111 0.931 . S
U86 O87 2.454 . S
U86 O88 2.458 . S
U86 C89 2.984 . S
U86 C90 2.847 . S
U86 C103 2.882 . S
U86 O104 2.441 . S
U86 O105 2.420 . S
U86 O106 2.455 . S
U86 O107 2.449 . S
O87 U86 2.454 . S
O87 C89 1.353 . S
O88 U86 2.458 . S
O88 C89 1.286 . S
C89 U86 2.984 . S
C89 O87 1.353 . S
C89 O88 1.286 . S
C89 C91 1.363 . S
C90 C80 1.465 . S
C90 U86 2.847 . S
C90 O104 1.249 . S
C90 O105 1.202 . S
C91 C89 1.363 . S
C91 C93 1.408 . S
C91 C96 1.342 . S
C92 C93 1.310 . S
C92 C95 1.461 . S
C92 H112 0.932 . S
C93 C91 1.408 . S
C93 C92 1.310 . S
C93 H113 0.930 . S
C94 C95 1.474 . S
C94 C96 1.285 . S
C94 H114 0.929 . S
C95 C92 1.461 . S
C95 C94 1.474 . S
C96 C91 1.342 . S
C96 C94 1.285 . S
C96 H115 0.930 . S
C97 C100 1.424 . S
C97 C102 1.245 . S
C97 C103 1.428 . S
C98 C101 1.260 . S
C98 C102 1.477 . S
C98 H116 0.932 . S
C99 C100 1.384 . S
C99 C101 1.479 . S
C99 H117 0.929 . S
C100 C97 1.424 . S
C100 C99 1.384 . S
C100 H118 0.928 . S
C101 C98 1.260 . S
C101 C99 1.479 . S
C102 C97 1.245 . S
C102 C98 1.477 . S
C102 H119 0.932 . S
C103 U86 2.882 . S
C103 C97 1.428 . S
C103 O106 1.301 . S
C103 O107 1.282 . S
O104 U86 2.441 . S
O104 C90 1.249 . S
O105 U86 2.420 . S
O105 C90 1.202 . S
O106 U86 2.455 . S
O106 C103 1.301 . S
O107 U86 2.449 . S
O107 C103 1.282 . S
H108 C81 0.931 . S
H109 C83 0.929 . S
H110 C84 0.930 . S
H111 C85 0.931 . S
H112 C92 0.932 . S
H113 C93 0.930 . S
H114 C94 0.929 . S
H115 C96 0.930 . S
H116 C98 0.932 . S
H117 C99 0.929 . S
H118 C100 0.928 . S
H119 C102 0.932 . S
C120 C121 1.264 . S
C120 C125 1.479 . S
C120 C130 1.465 . S
C121 C120 1.264 . S
C121 C123 1.339 . S
C121 H148 0.931 . S
C122 C123 1.395 . S
C122 C124 1.320 . S
C123 C121 1.339 . S
C123 C122 1.395 . S
C123 H149 0.929 . S
C124 C122 1.320 . S
C124 C125 1.405 . S
C124 H150 0.930 . S
C125 C120 1.479 . S
C125 C124 1.405 . S
C125 H151 0.931 . S
U126 O127 2.454 . S
U126 O128 2.458 . S
U126 C129 2.984 . S
U126 C130 2.847 . S
U126 C143 2.882 . S
U126 O144 2.441 . S
U126 O145 2.420 . S
U126 O146 2.455 . S
U126 O147 2.449 . S
O127 U126 2.454 . S
O127 C129 1.353 . S
O128 U126 2.458 . S
O128 C129 1.286 . S
C129 U126 2.984 . S
C129 O127 1.353 . S
C129 O128 1.286 . S
C129 C131 1.363 . S
C130 C120 1.465 . S
C130 U126 2.847 . S
C130 O144 1.249 . S
C130 O145 1.202 . S
C131 C129 1.363 . S
C131 C133 1.408 . S
C131 C136 1.342 . S
C132 C133 1.310 . S
C132 C135 1.461 . S
C132 H152 0.932 . S
C133 C131 1.408 . S
C133 C132 1.310 . S
C133 H153 0.930 . S
C134 C135 1.474 . S
C134 C136 1.285 . S
C134 H154 0.929 . S
C135 C132 1.461 . S
C135 C134 1.474 . S
C136 C131 1.342 . S
C136 C134 1.285 . S
C136 H155 0.930 . S
C137 C140 1.424 . S
C137 C142 1.245 . S
C137 C143 1.428 . S
C138 C141 1.260 . S
C138 C142 1.477 . S
C138 H156 0.932 . S
C139 C140 1.384 . S
C139 C141 1.479 . S
C139 H157 0.929 . S
C140 C137 1.424 . S
C140 C139 1.384 . S
C140 H158 0.928 . S
C141 C138 1.260 . S
C141 C139 1.479 . S
C142 C137 1.245 . S
C142 C138 1.477 . S
C142 H159 0.932 . S
C143 U126 2.882 . S
C143 C137 1.428 . S
C143 O146 1.301 . S
C143 O147 1.282 . S
O144 U126 2.441 . S
O144 C130 1.249 . S
O145 U126 2.420 . S
O145 C130 1.202 . S
O146 U126 2.455 . S
O146 C143 1.301 . S
O147 U126 2.449 . S
O147 C143 1.282 . S
H148 C121 0.931 . S
H149 C123 0.929 . S
H150 C124 0.930 . S
H151 C125 0.931 . S
H152 C132 0.932 . S
H153 C133 0.930 . S
H154 C134 0.929 . S
H155 C136 0.930 . S
H156 C138 0.932 . S
H157 C139 0.929 . S
H158 C140 0.928 . S
H159 C142 0.932 . S
C160 C161 1.264 . S
C160 C165 1.479 . S
C160 C170 1.465 . S
C161 C160 1.264 . S
C161 C163 1.339 . S
C161 H188 0.931 . S
C162 C163 1.395 . S
C162 C164 1.320 . S
C163 C161 1.339 . S
C163 C162 1.395 . S
C163 H189 0.929 . S
C164 C162 1.320 . S
C164 C165 1.405 . S
C164 H190 0.930 . S
C165 C160 1.479 . S
C165 C164 1.405 . S
C165 H191 0.931 . S
U166 O167 2.454 . S
U166 O168 2.458 . S
U166 C169 2.984 . S
U166 C170 2.847 . S
U166 C183 2.882 . S
U166 O184 2.441 . S
U166 O185 2.420 . S
U166 O186 2.455 . S
U166 O187 2.449 . S
O167 U166 2.454 . S
O167 C169 1.353 . S
O168 U166 2.458 . S
O168 C169 1.286 . S
C169 U166 2.984 . S
C169 O167 1.353 . S
C169 O168 1.286 . S
C169 C171 1.363 . S
C170 C160 1.465 . S
C170 U166 2.847 . S
C170 O184 1.249 . S
C170 O185 1.202 . S
C171 C169 1.363 . S
C171 C173 1.408 . S
C171 C176 1.342 . S
C172 C173 1.310 . S
C172 C175 1.461 . S
C172 H192 0.932 . S
C173 C171 1.408 . S
C173 C172 1.310 . S
C173 H193 0.930 . S
C174 C175 1.474 . S
C174 C176 1.285 . S
C174 H194 0.929 . S
C175 C172 1.461 . S
C175 C174 1.474 . S
C176 C171 1.342 . S
C176 C174 1.285 . S
C176 H195 0.930 . S
C177 C180 1.424 . S
C177 C182 1.245 . S
C177 C183 1.428 . S
C178 C181 1.260 . S
C178 C182 1.477 . S
C178 H196 0.932 . S
C179 C180 1.384 . S
C179 C181 1.479 . S
C179 H197 0.929 . S
C180 C177 1.424 . S
C180 C179 1.384 . S
C180 H198 0.928 . S
C181 C178 1.260 . S
C181 C179 1.479 . S
C182 C177 1.245 . S
C182 C178 1.477 . S
C182 H199 0.932 . S
C183 U166 2.882 . S
C183 C177 1.428 . S
C183 O186 1.301 . S
C183 O187 1.282 . S
O184 U166 2.441 . S
O184 C170 1.249 . S
O185 U166 2.420 . S
O185 C170 1.202 . S
O186 U166 2.455 . S
O186 C183 1.301 . S
O187 U166 2.449 . S
O187 C183 1.282 . S
H188 C161 0.931 . S
H189 C163 0.929 . S
H190 C164 0.930 . S
H191 C165 0.931 . S
H192 C172 0.932 . S
H193 C173 0.930 . S
H194 C174 0.929 . S
H195 C176 0.930 . S
H196 C178 0.932 . S
H197 C179 0.929 . S
H198 C180 0.928 . S
H199 C182 0.932 . S
C200 C201 1.264 . S
C200 C205 1.479 . S
C200 C210 1.465 . S
C201 C200 1.264 . S
C201 C203 1.339 . S
C201 H228 0.931 . S
C202 C203 1.395 . S
C202 C204 1.320 . S
C203 C201 1.339 . S
C203 C202 1.395 . S
C203 H229 0.929 . S
C204 C202 1.320 . S
C204 C205 1.405 . S
C204 H230 0.930 . S
C205 C200 1.479 . S
C205 C204 1.405 . S
C205 H231 0.931 . S
U206 O207 2.454 . S
U206 O208 2.458 . S
U206 C209 2.984 . S
U206 C210 2.847 . S
U206 C223 2.882 . S
U206 O224 2.441 . S
U206 O225 2.420 . S
U206 O226 2.455 . S
U206 O227 2.449 . S
O207 U206 2.454 . S
O207 C209 1.353 . S
O208 U206 2.458 . S
O208 C209 1.286 . S
C209 U206 2.984 . S
C209 O207 1.353 . S
C209 O208 1.286 . S
C209 C211 1.363 . S
C210 C200 1.465 . S
C210 U206 2.847 . S
C210 O224 1.249 . S
C210 O225 1.202 . S
C211 C209 1.363 . S
C211 C213 1.408 . S
C211 C216 1.342 . S
C212 C213 1.310 . S
C212 C215 1.461 . S
C212 H232 0.932 . S
C213 C211 1.408 . S
C213 C212 1.310 . S
C213 H233 0.930 . S
C214 C215 1.474 . S
C214 C216 1.285 . S
C214 H234 0.929 . S
C215 C212 1.461 . S
C215 C214 1.474 . S
C216 C211 1.342 . S
C216 C214 1.285 . S
C216 H235 0.930 . S
C217 C220 1.424 . S
C217 C222 1.245 . S
C217 C223 1.428 . S
C218 C221 1.260 . S
C218 C222 1.477 . S
C218 H236 0.932 . S
C219 C220 1.384 . S
C219 C221 1.479 . S
C219 H237 0.929 . S
C220 C217 1.424 . S
C220 C219 1.384 . S
C220 H238 0.928 . S
C221 C218 1.260 . S
C221 C219 1.479 . S
C222 C217 1.245 . S
C222 C218 1.477 . S
C222 H239 0.932 . S
C223 U206 2.882 . S
C223 C217 1.428 . S
C223 O226 1.301 . S
C223 O227 1.282 . S
O224 U206 2.441 . S
O224 C210 1.249 . S
O225 U206 2.420 . S
O225 C210 1.202 . S
O226 U206 2.455 . S
O226 C223 1.301 . S
O227 U206 2.449 . S
O227 C223 1.282 . S
H228 C201 0.931 . S
H229 C203 0.929 . S
H230 C204 0.930 . S
H231 C205 0.931 . S
H232 C212 0.932 . S
H233 C213 0.930 . S
H234 C214 0.929 . S
H235 C216 0.930 . S
H236 C218 0.932 . S
H237 C219 0.929 . S
H238 C220 0.928 . S
H239 C222 0.932 . S
C240 C241 1.264 . S
C240 C245 1.479 . S
C240 C250 1.465 . S
C241 C240 1.264 . S
C241 C243 1.339 . S
C241 H268 0.931 . S
C242 C243 1.395 . S
C242 C244 1.320 . S
C243 C241 1.339 . S
C243 C242 1.395 . S
C243 H269 0.929 . S
C244 C242 1.320 . S
C244 C245 1.405 . S
C244 H270 0.930 . S
C245 C240 1.479 . S
C245 C244 1.405 . S
C245 H271 0.931 . S
U246 O247 2.454 . S
U246 O248 2.458 . S
U246 C249 2.984 . S
U246 C250 2.847 . S
U246 C263 2.882 . S
U246 O264 2.441 . S
U246 O265 2.420 . S
U246 O266 2.455 . S
U246 O267 2.449 . S
O247 U246 2.454 . S
O247 C249 1.353 . S
O248 U246 2.458 . S
O248 C249 1.286 . S
C249 U246 2.984 . S
C249 O247 1.353 . S
C249 O248 1.286 . S
C249 C251 1.363 . S
C250 C240 1.465 . S
C250 U246 2.847 . S
C250 O264 1.249 . S
C250 O265 1.202 . S
C251 C249 1.363 . S
C251 C253 1.408 . S
C251 C256 1.342 . S
C252 C253 1.310 . S
C252 C255 1.461 . S
C252 H272 0.932 . S
C253 C251 1.408 . S
C253 C252 1.310 . S
C253 H273 0.930 . S
C254 C255 1.474 . S
C254 C256 1.285 . S
C254 H274 0.929 . S
C255 C252 1.461 . S
C255 C254 1.474 . S
C256 C251 1.342 . S
C256 C254 1.285 . S
C256 H275 0.930 . S
C257 C260 1.424 . S
C257 C262 1.245 . S
C257 C263 1.428 . S
C258 C261 1.260 . S
C258 C262 1.477 . S
C258 H276 0.932 . S
C259 C260 1.384 . S
C259 C261 1.479 . S
C259 H277 0.929 . S
C260 C257 1.424 . S
C260 C259 1.384 . S
C260 H278 0.928 . S
C261 C258 1.260 . S
C261 C259 1.479 . S
C262 C257 1.245 . S
C262 C258 1.477 . S
C262 H279 0.932 . S
C263 U246 2.882 . S
C263 C257 1.428 . S
C263 O266 1.301 . S
C263 O267 1.282 . S
O264 U246 2.441 . S
O264 C250 1.249 . S
O265 U246 2.420 . S
O265 C250 1.202 . S
O266 U246 2.455 . S
O266 C263 1.301 . S
O267 U246 2.449 . S
O267 C263 1.282 . S
H268 C241 0.931 . S
H269 C243 0.929 . S
H270 C244 0.930 . S
H271 C245 0.931 . S
H272 C252 0.932 . S
H273 C253 0.930 . S
H274 C254 0.929 . S
H275 C256 0.930 . S
H276 C258 0.932 . S
H277 C259 0.929 . S
H278 C260 0.928 . S
H279 C262 0.932 . S
C280 C281 1.264 . S
C280 C285 1.479 . S
C280 C290 1.465 . S
C281 C280 1.264 . S
C281 C283 1.339 . S
C281 H308 0.931 . S
C282 C283 1.395 . S
C282 C284 1.320 . S
C283 C281 1.339 . S
C283 C282 1.395 . S
C283 H309 0.929 . S
C284 C282 1.320 . S
C284 C285 1.405 . S
C284 H310 0.930 . S
C285 C280 1.479 . S
C285 C284 1.405 . S
C285 H311 0.931 . S
U286 O287 2.454 . S
U286 O288 2.458 . S
U286 C289 2.984 . S
U286 C290 2.847 . S
U286 C303 2.882 . S
U286 O304 2.441 . S
U286 O305 2.420 . S
U286 O306 2.455 . S
U286 O307 2.449 . S
O287 U286 2.454 . S
O287 C289 1.353 . S
O288 U286 2.458 . S
O288 C289 1.286 . S
C289 U286 2.984 . S
C289 O287 1.353 . S
C289 O288 1.286 . S
C289 C291 1.363 . S
C290 C280 1.465 . S
C290 U286 2.847 . S
C290 O304 1.249 . S
C290 O305 1.202 . S
C291 C289 1.363 . S
C291 C293 1.408 . S
C291 C296 1.342 . S
C292 C293 1.310 . S
C292 C295 1.461 . S
C292 H312 0.932 . S
C293 C291 1.408 . S
C293 C292 1.310 . S
C293 H313 0.930 . S
C294 C295 1.474 . S
C294 C296 1.285 . S
C294 H314 0.929 . S
C295 C292 1.461 . S
C295 C294 1.474 . S
C296 C291 1.342 . S
C296 C294 1.285 . S
C296 H315 0.930 . S
C297 C300 1.424 . S
C297 C302 1.245 . S
C297 C303 1.428 . S
C298 C301 1.260 . S
C298 C302 1.477 . S
C298 H316 0.932 . S
C299 C300 1.384 . S
C299 C301 1.479 . S
C299 H317 0.929 . S
C300 C297 1.424 . S
C300 C299 1.384 . S
C300 H318 0.928 . S
C301 C298 1.260 . S
C301 C299 1.479 . S
C302 C297 1.245 . S
C302 C298 1.477 . S
C302 H319 0.932 . S
C303 U286 2.882 . S
C303 C297 1.428 . S
C303 O306 1.301 . S
C303 O307 1.282 . S
O304 U286 2.441 . S
O304 C290 1.249 . S
O305 U286 2.420 . S
O305 C290 1.202 . S
O306 U286 2.455 . S
O306 C303 1.301 . S
O307 U286 2.449 . S
O307 C303 1.282 . S
H308 C281 0.931 . S
H309 C283 0.929 . S
H310 C284 0.930 . S
H311 C285 0.931 . S
H312 C292 0.932 . S
H313 C293 0.930 . S
H314 C294 0.929 . S
H315 C296 0.930 . S
H316 C298 0.932 . S
H317 C299 0.929 . S
H318 C300 0.928 . S
H319 C302 0.932 . S
C320 C321 1.384 . S
C320 C322 1.384 . S
C320 H348 0.931 . S
C321 C320 1.384 . S
C321 C324 1.382 . S
C322 C320 1.384 . S
C322 C323 1.381 . S
C322 H349 0.930 . S
C323 C322 1.381 . S
C323 C325 1.381 . S
C323 C326 1.487 . S
C324 C321 1.382 . S
C324 C325 1.387 . S
C324 H350 0.930 . S
C325 C323 1.381 . S
C325 C324 1.387 . S
C325 H351 0.931 . S
C326 C323 1.487 . S
C326 C333 1.399 1_655 S
C326 N364 1.343 . S
C327 C328 1.384 . S
C327 C329 1.384 . S
C327 H352 0.931 . S
C328 C327 1.384 . S
C328 C331 1.382 . S
C329 C327 1.384 . S
C329 C330 1.381 . S
C329 H353 0.930 . S
C330 C329 1.381 . S
C330 C332 1.381 . S
C330 C333 1.487 . S
C331 C328 1.382 . S
C331 C332 1.387 . S
C331 H354 0.930 . S
C332 C330 1.381 . S
C332 C331 1.387 . S
C332 H355 0.931 . S
C333 C326 1.399 1_455 S
C333 C330 1.487 . S
C333 N365 1.343 . S
C334 C335 1.384 . S
C334 C336 1.384 . S
C334 H356 0.931 . S
C335 C334 1.384 . S
C335 C338 1.382 . S
C336 C334 1.384 . S
C336 C337 1.381 . S
C336 H357 0.930 . S
C337 C336 1.381 . S
C337 C339 1.381 . S
C337 C340 1.487 . S
C338 C335 1.382 . S
C338 C339 1.387 . S
C338 H358 0.930 . S
C339 C337 1.381 . S
C339 C338 1.387 . S
C339 H359 0.931 . S
C340 C337 1.487 . S
C340 C347 1.399 1_455 S
C340 N365 1.343 . S
C341 C342 1.384 . S
C341 C343 1.384 . S
C341 H360 0.931 . S
C342 C341 1.384 . S
C342 C345 1.382 . S
C343 C341 1.384 . S
C343 C344 1.381 . S
C343 H361 0.930 . S
C344 C343 1.381 . S
C344 C346 1.381 . S
C344 C347 1.487 . S
C345 C342 1.382 . S
C345 C346 1.387 . S
C345 H362 0.930 . S
C346 C344 1.381 . S
C346 C345 1.387 . S
C346 H363 0.931 . S
C347 C340 1.399 1_655 S
C347 C344 1.487 . S
C347 N364 1.343 . S
H348 C320 0.931 . S
H349 C322 0.930 . S
H350 C324 0.930 . S
H351 C325 0.931 . S
H352 C327 0.931 . S
H353 C329 0.930 . S
H354 C331 0.930 . S
H355 C332 0.931 . S
H356 C334 0.931 . S
H357 C336 0.930 . S
H358 C338 0.930 . S
H359 C339 0.931 . S
H360 C341 0.931 . S
H361 C343 0.930 . S
H362 C345 0.930 . S
H363 C346 0.931 . S
N364 C326 1.343 . S
N364 C347 1.343 . S
N365 C333 1.343 . S
N365 C340 1.343 . S
C366 C367 1.384 . S
C366 C368 1.384 . S
C366 H394 0.931 . S
C367 C366 1.384 . S
C367 C370 1.382 . S
C368 C366 1.384 . S
C368 C369 1.381 . S
C368 H395 0.930 . S
C369 C368 1.381 . S
C369 C371 1.381 . S
C369 C372 1.487 . S
C370 C367 1.382 . S
C370 C371 1.387 . S
C370 H396 0.930 . S
C371 C369 1.381 . S
C371 C370 1.387 . S
C371 H397 0.931 . S
C372 C369 1.487 . S
C372 C379 1.399 1_655 S
C372 N410 1.343 . S
C373 C374 1.384 . S
C373 C375 1.384 . S
C373 H398 0.931 . S
C374 C373 1.384 . S
C374 C377 1.382 . S
C375 C373 1.384 . S
C375 C376 1.381 . S
C375 H399 0.930 . S
C376 C375 1.381 . S
C376 C378 1.381 . S
C376 C379 1.487 . S
C377 C374 1.382 . S
C377 C378 1.387 . S
C377 H400 0.930 . S
C378 C376 1.381 . S
C378 C377 1.387 . S
C378 H401 0.931 . S
C379 C372 1.399 1_455 S
C379 C376 1.487 . S
C379 N411 1.343 . S
C380 C381 1.384 . S
C380 C382 1.384 . S
C380 H402 0.931 . S
C381 C380 1.384 . S
C381 C384 1.382 . S
C382 C380 1.384 . S
C382 C383 1.381 . S
C382 H403 0.930 . S
C383 C382 1.381 . S
C383 C385 1.381 . S
C383 C386 1.487 . S
C384 C381 1.382 . S
C384 C385 1.387 . S
C384 H404 0.930 . S
C385 C383 1.381 . S
C385 C384 1.387 . S
C385 H405 0.931 . S
C386 C383 1.487 . S
C386 C393 1.399 1_455 S
C386 N411 1.343 . S
C387 C388 1.384 . S
C387 C389 1.384 . S
C387 H406 0.931 . S
C388 C387 1.384 . S
C388 C391 1.382 . S
C389 C387 1.384 . S
C389 C390 1.381 . S
C389 H407 0.930 . S
C390 C389 1.381 . S
C390 C392 1.381 . S
C390 C393 1.487 . S
C391 C388 1.382 . S
C391 C392 1.387 . S
C391 H408 0.930 . S
C392 C390 1.381 . S
C392 C391 1.387 . S
C392 H409 0.931 . S
C393 C386 1.399 1_655 S
C393 C390 1.487 . S
C393 N410 1.343 . S
H394 C366 0.931 . S
H395 C368 0.930 . S
H396 C370 0.930 . S
H397 C371 0.931 . S
H398 C373 0.931 . S
H399 C375 0.930 . S
H400 C377 0.930 . S
H401 C378 0.931 . S
H402 C380 0.931 . S
H403 C382 0.930 . S
H404 C384 0.930 . S
H405 C385 0.931 . S
H406 C387 0.931 . S
H407 C389 0.930 . S
H408 C391 0.930 . S
H409 C392 0.931 . S
N410 C372 1.343 . S
N410 C393 1.343 . S
N411 C379 1.343 . S
N411 C386 1.343 . S
C412 C413 1.384 . S
C412 C414 1.384 . S
C412 H440 0.931 . S
C413 C412 1.384 . S
C413 C416 1.382 . S
C414 C412 1.384 . S
C414 C415 1.381 . S
C414 H441 0.930 . S
C415 C414 1.381 . S
C415 C417 1.381 . S
C415 C418 1.487 . S
C416 C413 1.382 . S
C416 C417 1.387 . S
C416 H442 0.930 . S
C417 C415 1.381 . S
C417 C416 1.387 . S
C417 H443 0.931 . S
C418 C415 1.487 . S
C418 C425 1.399 . S
C418 N456 1.343 . S
C419 C420 1.384 . S
C419 C421 1.384 . S
C419 H444 0.931 . S
C420 C419 1.384 . S
C420 C423 1.382 . S
C421 C419 1.384 . S
C421 C422 1.381 . S
C421 H445 0.930 . S
C422 C421 1.381 . S
C422 C424 1.381 . S
C422 C425 1.487 . S
C423 C420 1.382 . S
C423 C424 1.387 . S
C423 H446 0.930 . S
C424 C422 1.381 . S
C424 C423 1.387 . S
C424 H447 0.931 . S
C425 C418 1.399 . S
C425 C422 1.487 . S
C425 N457 1.343 . S
C426 C427 1.384 . S
C426 C428 1.384 . S
C426 H448 0.931 . S
C427 C426 1.384 . S
C427 C430 1.382 . S
C428 C426 1.384 . S
C428 C429 1.381 . S
C428 H449 0.930 . S
C429 C428 1.381 . S
C429 C431 1.381 . S
C429 C432 1.487 . S
C430 C427 1.382 . S
C430 C431 1.387 . S
C430 H450 0.930 . S
C431 C429 1.381 . S
C431 C430 1.387 . S
C431 H451 0.931 . S
C432 C429 1.487 . S
C432 C439 1.399 . S
C432 N457 1.343 1_565 S
C433 C434 1.384 . S
C433 C435 1.384 . S
C433 H452 0.931 . S
C434 C433 1.384 . S
C434 C437 1.382 . S
C435 C433 1.384 . S
C435 C436 1.381 . S
C435 H453 0.930 . S
C436 C435 1.381 . S
C436 C438 1.381 . S
C436 C439 1.487 . S
C437 C434 1.382 . S
C437 C438 1.387 . S
C437 H454 0.930 . S
C438 C436 1.381 . S
C438 C437 1.387 . S
C438 H455 0.931 . S
C439 C432 1.399 . S
C439 C436 1.487 . S
C439 N456 1.343 1_565 S
H440 C412 0.931 . S
H441 C414 0.930 . S
H442 C416 0.930 . S
H443 C417 0.931 . S
H444 C419 0.931 . S
H445 C421 0.930 . S
H446 C423 0.930 . S
H447 C424 0.931 . S
H448 C426 0.931 . S
H449 C428 0.930 . S
H450 C430 0.930 . S
H451 C431 0.931 . S
H452 C433 0.931 . S
H453 C435 0.930 . S
H454 C437 0.930 . S
H455 C438 0.931 . S
N456 C418 1.343 . S
N456 C439 1.343 1_545 S
N457 C425 1.343 . S
N457 C432 1.343 1_545 S
C458 C459 1.384 . S
C458 C460 1.384 . S
C458 H486 0.931 . S
C459 C458 1.384 . S
C459 C462 1.382 . S
C460 C458 1.384 . S
C460 C461 1.381 . S
C460 H487 0.930 . S
C461 C460 1.381 . S
C461 C463 1.381 . S
C461 C464 1.487 . S
C462 C459 1.382 . S
C462 C463 1.387 . S
C462 H488 0.930 . S
C463 C461 1.381 . S
C463 C462 1.387 . S
C463 H489 0.931 . S
C464 C461 1.487 . S
C464 C471 1.399 . S
C464 N502 1.343 1_556 S
C465 C466 1.384 . S
C465 C467 1.384 . S
C465 H490 0.931 . S
C466 C465 1.384 . S
C466 C469 1.382 . S
C467 C465 1.384 . S
C467 C468 1.381 . S
C467 H491 0.930 . S
C468 C467 1.381 . S
C468 C470 1.381 . S
C468 C471 1.487 . S
C469 C466 1.382 . S
C469 C470 1.387 . S
C469 H492 0.930 . S
C470 C468 1.381 . S
C470 C469 1.387 . S
C470 H493 0.931 . S
C471 C464 1.399 . S
C471 C468 1.487 . S
C471 N503 1.343 1_556 S
C472 C473 1.384 . S
C472 C474 1.384 . S
C472 H494 0.931 . S
C473 C472 1.384 . S
C473 C476 1.382 . S
C474 C472 1.384 . S
C474 C475 1.381 . S
C474 H495 0.930 . S
C475 C474 1.381 . S
C475 C477 1.381 . S
C475 C478 1.487 . S
C476 C473 1.382 . S
C476 C477 1.387 . S
C476 H496 0.930 . S
C477 C475 1.381 . S
C477 C476 1.387 . S
C477 H497 0.931 . S
C478 C475 1.487 . S
C478 C485 1.399 . S
C478 N503 1.343 . S
C479 C480 1.384 . S
C479 C481 1.384 . S
C479 H498 0.931 . S
C480 C479 1.384 . S
C480 C483 1.382 . S
C481 C479 1.384 . S
C481 C482 1.381 . S
C481 H499 0.930 . S
C482 C481 1.381 . S
C482 C484 1.381 . S
C482 C485 1.487 . S
C483 C480 1.382 . S
C483 C484 1.387 . S
C483 H500 0.930 . S
C484 C482 1.381 . S
C484 C483 1.387 . S
C484 H501 0.931 . S
C485 C478 1.399 . S
C485 C482 1.487 . S
C485 N502 1.343 . S
H486 C458 0.931 . S
H487 C460 0.930 . S
H488 C462 0.930 . S
H489 C463 0.931 . S
H490 C465 0.931 . S
H491 C467 0.930 . S
H492 C469 0.930 . S
H493 C470 0.931 . S
H494 C472 0.931 . S
H495 C474 0.930 . S
H496 C476 0.930 . S
H497 C477 0.931 . S
H498 C479 0.931 . S
H499 C481 0.930 . S
H500 C483 0.930 . S
H501 C484 0.931 . S
N502 C464 1.343 1_554 S
N502 C485 1.343 . S
N503 C471 1.343 1_554 S
N503 C478 1.343 . S
C504 C505 1.384 . S
C504 C506 1.384 . S
C504 H532 0.931 . S
C505 C504 1.384 . S
C505 C508 1.382 . S
C506 C504 1.384 . S
C506 C507 1.381 . S
C506 H533 0.930 . S
C507 C506 1.381 . S
C507 C509 1.381 . S
C507 C510 1.487 . S
C508 C505 1.382 . S
C508 C509 1.387 . S
C508 H534 0.930 . S
C509 C507 1.381 . S
C509 C508 1.387 . S
C509 H535 0.931 . S
C510 C507 1.487 . S
C510 C517 1.399 . S
C510 N548 1.343 . S
C511 C512 1.384 . S
C511 C513 1.384 . S
C511 H536 0.931 . S
C512 C511 1.384 . S
C512 C515 1.382 . S
C513 C511 1.384 . S
C513 C514 1.381 . S
C513 H537 0.930 . S
C514 C513 1.381 . S
C514 C516 1.381 . S
C514 C517 1.487 . S
C515 C512 1.382 . S
C515 C516 1.387 . S
C515 H538 0.930 . S
C516 C514 1.381 . S
C516 C515 1.387 . S
C516 H539 0.931 . S
C517 C510 1.399 . S
C517 C514 1.487 . S
C517 N549 1.398 . S
C518 C519 1.384 . S
C518 C520 1.384 . S
C518 H540 0.931 . S
C519 C518 1.384 . S
C519 C522 1.382 . S
C520 C518 1.384 . S
C520 C521 1.381 . S
C520 H541 0.930 . S
C521 C520 1.381 . S
C521 C523 1.381 . S
C521 C524 1.487 . S
C522 C519 1.382 . S
C522 C523 1.387 . S
C522 H542 0.930 . S
C523 C521 1.381 . S
C523 C522 1.387 . S
C523 H543 0.931 . S
C524 C521 1.487 . S
C524 C531 1.399 . S
C524 N549 1.289 1_565 S
C525 C526 1.384 . S
C525 C527 1.384 . S
C525 H544 0.931 . S
C526 C525 1.384 . S
C526 C529 1.382 . S
C527 C525 1.384 . S
C527 C528 1.381 . S
C527 H545 0.930 . S
C528 C527 1.381 . S
C528 C530 1.381 . S
C528 C531 1.487 . S
C529 C526 1.382 . S
C529 C530 1.387 . S
C529 H546 0.930 . S
C530 C528 1.381 . S
C530 C529 1.387 . S
C530 H547 0.931 . S
C531 C524 1.399 . S
C531 C528 1.487 . S
C531 N548 1.343 1_565 S
H532 C504 0.931 . S
H533 C506 0.930 . S
H534 C508 0.930 . S
H535 C509 0.931 . S
H536 C511 0.931 . S
H537 C513 0.930 . S
H538 C515 0.930 . S
H539 C516 0.931 . S
H540 C518 0.931 . S
H541 C520 0.930 . S
H542 C522 0.930 . S
H543 C523 0.931 . S
H544 C525 0.931 . S
H545 C527 0.930 . S
H546 C529 0.930 . S
H547 C530 0.931 . S
N548 C510 1.343 . S
N548 C531 1.343 1_545 S
N549 C517 1.398 . S
N549 C524 1.289 1_545 S
C550 C551 1.384 . S
C550 C552 1.384 . S
C550 H578 0.931 . S
C551 C550 1.384 . S
C551 C554 1.382 . S
C552 C550 1.384 . S
C552 C553 1.381 . S
C552 H579 0.930 . S
C553 C552 1.381 . S
C553 C555 1.381 . S
C553 C556 1.487 . S
C554 C551 1.382 . S
C554 C555 1.387 . S
C554 H580 0.930 . S
C555 C553 1.381 . S
C555 C554 1.387 . S
C555 H581 0.931 . S
C556 C553 1.487 . S
C556 C563 1.399 . S
C556 N594 1.343 1_556 S
C557 C558 1.384 . S
C557 C559 1.384 . S
C557 H582 0.931 . S
C558 C557 1.384 . S
C558 C561 1.382 . S
C559 C557 1.384 . S
C559 C560 1.381 . S
C559 H583 0.930 . S
C560 C559 1.381 . S
C560 C562 1.381 . S
C560 C563 1.487 . S
C561 C558 1.382 . S
C561 C562 1.387 . S
C561 H584 0.930 . S
C562 C560 1.381 . S
C562 C561 1.387 . S
C562 H585 0.931 . S
C563 C556 1.399 . S
C563 C560 1.487 . S
C563 N595 1.343 1_556 S
C564 C565 1.384 . S
C564 C566 1.384 . S
C564 H586 0.931 . S
C565 C564 1.384 . S
C565 C568 1.382 . S
C566 C564 1.384 . S
C566 C567 1.381 . S
C566 H587 0.930 . S
C567 C566 1.381 . S
C567 C569 1.381 . S
C567 C570 1.487 . S
C568 C565 1.382 . S
C568 C569 1.387 . S
C568 H588 0.930 . S
C569 C567 1.381 . S
C569 C568 1.387 . S
C569 H589 0.931 . S
C570 C567 1.487 . S
C570 C577 1.399 . S
C570 N595 1.343 . S
C571 C572 1.384 . S
C571 C573 1.384 . S
C571 H590 0.931 . S
C572 C571 1.384 . S
C572 C575 1.382 . S
C573 C571 1.384 . S
C573 C574 1.381 . S
C573 H591 0.930 . S
C574 C573 1.381 . S
C574 C576 1.381 . S
C574 C577 1.487 . S
C575 C572 1.382 . S
C575 C576 1.387 . S
C575 H592 0.930 . S
C576 C574 1.381 . S
C576 C575 1.387 . S
C576 H593 0.931 . S
C577 C570 1.399 . S
C577 C574 1.487 . S
C577 N594 1.343 . S
H578 C550 0.931 . S
H579 C552 0.930 . S
H580 C554 0.930 . S
H581 C555 0.931 . S
H582 C557 0.931 . S
H583 C559 0.930 . S
H584 C561 0.930 . S
H585 C562 0.931 . S
H586 C564 0.931 . S
H587 C566 0.930 . S
H588 C568 0.930 . S
H589 C569 0.931 . S
H590 C571 0.931 . S
H591 C573 0.930 . S
H592 C575 0.930 . S
H593 C576 0.931 . S
N594 C556 1.343 1_554 S
N594 C577 1.343 . S
N595 C563 1.343 1_554 S
N595 C570 1.343 . S
H596 C602 0.930 . S
H597 C606 0.930 . S
H598 C611 0.929 . S
H599 C609 0.929 . S
H600 C604 0.929 . S
H601 C610 0.929 . S
C602 H596 0.930 . S
C602 C603 1.367 . S
C602 C610 1.378 . S
C603 C602 1.367 . S
C603 C611 1.433 . S
C604 H600 0.929 . S
C604 C606 1.378 . S
C604 C608 1.350 . S
C605 C608 1.463 . S
C605 C610 1.350 . S
C605 N613 1.427 . S
C606 H597 0.930 . S
C606 C604 1.378 . S
C606 C607 1.367 . S
C607 C606 1.367 . S
C607 C609 1.433 . S
C608 C604 1.350 . S
C608 C605 1.463 . S
C608 N612 1.427 . S
C609 H599 0.929 . S
C609 C607 1.433 . S
C609 N612 1.384 . S
C610 H601 0.929 . S
C610 C602 1.378 . S
C610 C605 1.350 . S
C611 H598 0.929 . S
C611 C603 1.433 . S
C611 N613 1.384 . S
N612 C608 1.427 . S
N612 C609 1.384 . S
N613 C605 1.427 . S
N613 C611 1.384 . S
H614 C620 0.930 . S
H615 C624 0.930 . S
H616 C629 0.929 . S
H617 C627 0.929 . S
H618 C622 0.929 . S
H619 C628 0.929 . S
C620 H614 0.930 . S
C620 C621 1.367 . S
C620 C628 1.378 . S
C621 C620 1.367 . S
C621 C629 1.433 . S
C622 H618 0.929 . S
C622 C624 1.378 . S
C622 C626 1.350 . S
C623 C626 1.463 . S
C623 C628 1.350 . S
C623 N631 1.427 . S
C624 H615 0.930 . S
C624 C622 1.378 . S
C624 C625 1.367 . S
C625 C624 1.367 . S
C625 C627 1.433 . S
C626 C622 1.350 . S
C626 C623 1.463 . S
C626 N630 1.427 . S
C627 H617 0.929 . S
C627 C625 1.433 . S
C627 N630 1.384 . S
C628 H619 0.929 . S
C628 C620 1.378 . S
C628 C623 1.350 . S
C629 H616 0.929 . S
C629 C621 1.433 . S
C629 N631 1.384 . S
N630 C626 1.427 . S
N630 C627 1.384 . S
N631 C623 1.427 . S
N631 C629 1.384 . S
H632 C638 0.930 . S
H633 C642 0.930 . S
H634 C647 0.929 . S
H635 C645 0.929 . S
H636 C640 0.929 . S
H637 C646 0.929 . S
C638 H632 0.930 . S
C638 C639 1.367 . S
C638 C646 1.378 . S
C639 C638 1.367 . S
C639 C647 1.433 . S
C640 H636 0.929 . S
C640 C642 1.378 . S
C640 C644 1.350 . S
C641 C644 1.463 . S
C641 C646 1.350 . S
C641 N649 1.427 . S
C642 H633 0.930 . S
C642 C640 1.378 . S
C642 C643 1.367 . S
C643 C642 1.367 . S
C643 C645 1.433 . S
C644 C640 1.350 . S
C644 C641 1.463 . S
C644 N648 1.427 . S
C645 H635 0.929 . S
C645 C643 1.433 . S
C645 N648 1.384 . S
C646 H637 0.929 . S
C646 C638 1.378 . S
C646 C641 1.350 . S
C647 H634 0.929 . S
C647 C639 1.433 . S
C647 N649 1.384 . S
N648 C644 1.427 . S
N648 C645 1.384 . S
N649 C641 1.427 . S
N649 C647 1.384 . S
H650 C656 0.930 . S
H651 C660 0.930 . S
H652 C665 0.929 . S
H653 C663 0.929 . S
H654 C658 0.929 . S
H655 C664 0.929 . S
C656 H650 0.930 . S
C656 C657 1.367 . S
C656 C664 1.378 . S
C657 C656 1.367 . S
C657 C665 1.433 . S
C658 H654 0.929 . S
C658 C660 1.378 . S
C658 C662 1.350 . S
C659 C662 1.463 . S
C659 C664 1.350 . S
C659 N667 1.427 . S
C660 H651 0.930 . S
C660 C658 1.378 . S
C660 C661 1.367 . S
C661 C660 1.367 . S
C661 C663 1.433 . S
C662 C658 1.350 . S
C662 C659 1.463 . S
C662 N666 1.427 . S
C663 H653 0.929 . S
C663 C661 1.433 . S
C663 N666 1.384 . S
C664 H655 0.929 . S
C664 C656 1.378 . S
C664 C659 1.350 . S
C665 H652 0.929 . S
C665 C657 1.433 . S
C665 N667 1.384 . S
N666 C662 1.427 . S
N666 C663 1.384 . S
N667 C659 1.427 . S
N667 C665 1.384 . S
H668 C674 0.930 . S
H669 C678 0.930 . S
H670 C683 0.929 . S
H671 C681 0.929 . S
H672 C676 0.929 . S
H673 C682 0.929 . S
C674 H668 0.930 . S
C674 C675 1.367 . S
C674 C682 1.378 . S
C675 C674 1.367 . S
C675 C683 1.433 . S
C676 H672 0.929 . S
C676 C678 1.378 . S
C676 C680 1.350 . S
C677 C680 1.463 . S
C677 C682 1.350 . S
C677 N685 1.427 . S
C678 H669 0.930 . S
C678 C676 1.378 . S
C678 C679 1.367 . S
C679 C678 1.367 . S
C679 C681 1.433 . S
C680 C676 1.350 . S
C680 C677 1.463 . S
C680 N684 1.427 . S
C681 H671 0.929 . S
C681 C679 1.433 . S
C681 N684 1.384 . S
C682 H673 0.929 . S
C682 C674 1.378 . S
C682 C677 1.350 . S
C683 H670 0.929 . S
C683 C675 1.433 . S
C683 N685 1.384 . S
N684 C680 1.427 . S
N684 C681 1.384 . S
N685 C677 1.427 . S
N685 C683 1.384 . S
H686 C692 0.930 . S
H687 C696 0.930 . S
H688 C701 0.929 . S
H689 C699 0.929 . S
H690 C694 0.929 . S
H691 C700 0.929 . S
C692 H686 0.930 . S
C692 C693 1.367 . S
C692 C700 1.378 . S
C693 C692 1.367 . S
C693 C701 1.433 . S
C694 H690 0.929 . S
C694 C696 1.378 . S
C694 C698 1.350 . S
C695 C698 1.463 . S
C695 C700 1.350 . S
C695 N703 1.427 . S
C696 H687 0.930 . S
C696 C694 1.378 . S
C696 C697 1.367 . S
C697 C696 1.367 . S
C697 C699 1.433 . S
C698 C694 1.350 . S
C698 C695 1.463 . S
C698 N702 1.427 . S
C699 H689 0.929 . S
C699 C697 1.433 . S
C699 N702 1.384 . S
C700 H691 0.929 . S
C700 C692 1.378 . S
C700 C695 1.350 . S
C701 H688 0.929 . S
C701 C693 1.433 . S
C701 N703 1.384 . S
N702 C698 1.427 . S
N702 C699 1.384 . S
N703 C695 1.427 . S
N703 C701 1.384 . S
H704 C710 0.930 . S
H705 C714 0.930 . S
H706 C719 0.929 . S
H707 C717 0.929 . S
H708 C712 0.929 . S
H709 C718 0.929 . S
C710 H704 0.930 . S
C710 C711 1.367 . S
C710 C718 1.378 . S
C711 C710 1.367 . S
C711 C719 1.433 . S
C712 H708 0.929 . S
C712 C714 1.378 . S
C712 C716 1.350 . S
C713 C716 1.463 . S
C713 C718 1.350 . S
C713 N721 1.427 . S
C714 H705 0.930 . S
C714 C712 1.378 . S
C714 C715 1.367 . S
C715 C714 1.367 . S
C715 C717 1.433 . S
C716 C712 1.350 . S
C716 C713 1.463 . S
C716 N720 1.427 . S
C717 H707 0.929 . S
C717 C715 1.433 . S
C717 N720 1.384 . S
C718 H709 0.929 . S
C718 C710 1.378 . S
C718 C713 1.350 . S
C719 H706 0.929 . S
C719 C711 1.433 . S
C719 N721 1.384 . S
N720 C716 1.427 . S
N720 C717 1.384 . S
N721 C713 1.427 . S
N721 C719 1.384 . S
H722 C728 0.930 . S
H723 C732 0.930 . S
H724 C737 0.929 . S
H725 C735 0.929 . S
H726 C730 0.929 . S
H727 C736 0.929 . S
C728 H722 0.930 . S
C728 C729 1.367 . S
C728 C736 1.378 . S
C729 C728 1.367 . S
C729 C737 1.433 . S
C730 H726 0.929 . S
C730 C732 1.378 . S
C730 C734 1.350 . S
C731 C734 1.463 . S
C731 C736 1.350 . S
C731 N739 1.427 . S
C732 H723 0.930 . S
C732 C730 1.378 . S
C732 C733 1.367 . S
C733 C732 1.367 . S
C733 C735 1.433 . S
C734 C730 1.350 . S
C734 C731 1.463 . S
C734 N738 1.427 . S
C735 H725 0.929 . S
C735 C733 1.433 . S
C735 N738 1.384 . S
C736 H727 0.929 . S
C736 C728 1.378 . S
C736 C731 1.350 . S
C737 H724 0.929 . S
C737 C729 1.433 . S
C737 N739 1.384 . S
N738 C734 1.427 . S
N738 C735 1.384 . S
N739 C731 1.427 . S
N739 C737 1.384 . S
H740 C746 0.930 . S
H741 C750 0.930 . S
H742 C755 0.929 . S
H743 C753 0.929 . S
H744 C748 0.929 . S
H745 C754 0.929 . S
C746 H740 0.930 . S
C746 C747 1.367 . S
C746 C754 1.378 . S
C747 C746 1.367 . S
C747 C755 1.433 . S
C748 H744 0.929 . S
C748 C750 1.378 . S
C748 C752 1.350 . S
C749 C752 1.463 . S
C749 C754 1.350 . S
C749 N757 1.427 . S
C750 H741 0.930 . S
C750 C748 1.378 . S
C750 C751 1.367 . S
C751 C750 1.367 . S
C751 C753 1.433 . S
C752 C748 1.350 . S
C752 C749 1.463 . S
C752 N756 1.427 . S
C753 H743 0.929 . S
C753 C751 1.433 . S
C753 N756 1.384 . S
C754 H745 0.929 . S
C754 C746 1.378 . S
C754 C749 1.350 . S
C755 H742 0.929 . S
C755 C747 1.433 . S
C755 N757 1.384 . S
N756 C752 1.427 . S
N756 C753 1.384 . S
N757 C749 1.427 . S
N757 C755 1.384 . S
H758 C764 0.930 . S
H759 C768 0.930 . S
H760 C773 0.929 . S
H761 C771 0.929 . S
H762 C766 0.929 . S
H763 C772 0.929 . S
C764 H758 0.930 . S
C764 C765 1.367 . S
C764 C772 1.378 . S
C765 C764 1.367 . S
C765 C773 1.433 . S
C766 H762 0.929 . S
C766 C768 1.378 . S
C766 C770 1.350 . S
C767 C770 1.463 . S
C767 C772 1.350 . S
C767 N775 1.427 . S
C768 H759 0.930 . S
C768 C766 1.378 . S
C768 C769 1.367 . S
C769 C768 1.367 . S
C769 C771 1.433 . S
C770 C766 1.350 . S
C770 C767 1.463 . S
C770 N774 1.427 . S
C771 H761 0.929 . S
C771 C769 1.433 . S
C771 N774 1.384 . S
C772 H763 0.929 . S
C772 C764 1.378 . S
C772 C767 1.350 . S
C773 H760 0.929 . S
C773 C765 1.433 . S
C773 N775 1.384 . S
N774 C770 1.427 . S
N774 C771 1.384 . S
N775 C767 1.427 . S
N775 C773 1.384 . S
H776 C782 0.930 . S
H777 C786 0.930 . S
H778 C791 0.929 . S
H779 C789 0.929 . S
H780 C784 0.929 . S
H781 C790 0.929 . S
C782 H776 0.930 . S
C782 C783 1.367 . S
C782 C790 1.378 . S
C783 C782 1.367 . S
C783 C791 1.433 . S
C784 H780 0.929 . S
C784 C786 1.378 . S
C784 C788 1.350 . S
C785 C788 1.463 . S
C785 C790 1.350 . S
C785 N793 1.427 . S
C786 H777 0.930 . S
C786 C784 1.378 . S
C786 C787 1.367 . S
C787 C786 1.367 . S
C787 C789 1.433 . S
C788 C784 1.350 . S
C788 C785 1.463 . S
C788 N792 1.427 . S
C789 H779 0.929 . S
C789 C787 1.433 . S
C789 N792 1.384 . S
C790 H781 0.929 . S
C790 C782 1.378 . S
C790 C785 1.350 . S
C791 H778 0.929 . S
C791 C783 1.433 . S
C791 N793 1.384 . S
N792 C788 1.427 . S
N792 C789 1.384 . S
N793 C785 1.427 . S
N793 C791 1.384 . S
H794 C800 0.930 . S
H795 C804 0.930 . S
H796 C809 0.929 . S
H797 C807 0.929 . S
H798 C802 0.929 . S
H799 C808 0.929 . S
C800 H794 0.930 . S
C800 C801 1.367 . S
C800 C808 1.378 . S
C801 C800 1.367 . S
C801 C809 1.433 . S
C802 H798 0.929 . S
C802 C804 1.378 . S
C802 C806 1.350 . S
C803 C806 1.463 . S
C803 C808 1.350 . S
C803 N811 1.427 . S
C804 H795 0.930 . S
C804 C802 1.378 . S
C804 C805 1.367 . S
C805 C804 1.367 . S
C805 C807 1.433 . S
C806 C802 1.350 . S
C806 C803 1.463 . S
C806 N810 1.427 . S
C807 H797 0.929 . S
C807 C805 1.433 . S
C807 N810 1.384 . S
C808 H799 0.929 . S
C808 C800 1.378 . S
C808 C803 1.350 . S
C809 H796 0.929 . S
C809 C801 1.433 . S
C809 N811 1.384 . S
N810 C806 1.427 . S
N810 C807 1.384 . S
N811 C803 1.427 . S
N811 C809 1.384 . S
H812 C818 0.930 . S
H813 C822 0.930 . S
H814 C827 0.929 . S
H815 C825 0.929 . S
H816 C820 0.929 . S
H817 C826 0.929 . S
C818 H812 0.930 . S
C818 C819 1.367 . S
C818 C826 1.378 . S
C819 C818 1.367 . S
C819 C827 1.433 . S
C820 H816 0.929 . S
C820 C822 1.378 . S
C820 C824 1.350 . S
C821 C824 1.463 . S
C821 C826 1.350 . S
C821 N829 1.427 . S
C822 H813 0.930 . S
C822 C820 1.378 . S
C822 C823 1.367 . S
C823 C822 1.367 . S
C823 C825 1.433 . S
C824 C820 1.350 . S
C824 C821 1.463 . S
C824 N828 1.427 . S
C825 H815 0.929 . S
C825 C823 1.433 . S
C825 N828 1.384 . S
C826 H817 0.929 . S
C826 C818 1.378 . S
C826 C821 1.350 . S
C827 H814 0.929 . S
C827 C819 1.433 . S
C827 N829 1.384 . S
N828 C824 1.427 . S
N828 C825 1.384 . S
N829 C821 1.427 . S
N829 C827 1.384 . S
H830 C836 0.930 . S
H831 C840 0.930 . S
H832 C845 0.929 . S
H833 C843 0.929 . S
H834 C838 0.929 . S
H835 C844 0.929 . S
C836 H830 0.930 . S
C836 C837 1.367 . S
C836 C844 1.378 . S
C837 C836 1.367 . S
C837 C845 1.433 . S
C838 H834 0.929 . S
C838 C840 1.378 . S
C838 C842 1.350 . S
C839 C842 1.463 . S
C839 C844 1.350 . S
C839 N847 1.427 . S
C840 H831 0.930 . S
C840 C838 1.378 . S
C840 C841 1.367 . S
C841 C840 1.367 . S
C841 C843 1.433 . S
C842 C838 1.350 . S
C842 C839 1.463 . S
C842 N846 1.427 . S
C843 H833 0.929 . S
C843 C841 1.433 . S
C843 N846 1.384 . S
C844 H835 0.929 . S
C844 C836 1.378 . S
C844 C839 1.350 . S
C845 H832 0.929 . S
C845 C837 1.433 . S
C845 N847 1.384 . S
N846 C842 1.427 . S
N846 C843 1.384 . S
N847 C839 1.427 . S
N847 C845 1.384 . S
H848 C854 0.930 . S
H849 C858 0.930 . S
H850 C863 0.929 . S
H851 C861 0.929 . S
H852 C856 0.929 . S
H853 C862 0.929 . S
C854 H848 0.930 . S
C854 C855 1.367 . S
C854 C862 1.378 . S
C855 C854 1.367 . S
C855 C863 1.433 . S
C856 H852 0.929 . S
C856 C858 1.378 . S
C856 C860 1.350 . S
C857 C860 1.463 . S
C857 C862 1.350 . S
C857 N865 1.427 . S
C858 H849 0.930 . S
C858 C856 1.378 . S
C858 C859 1.367 . S
C859 C858 1.367 . S
C859 C861 1.433 . S
C860 C856 1.350 . S
C860 C857 1.463 . S
C860 N864 1.427 . S
C861 H851 0.929 . S
C861 C859 1.433 . S
C861 N864 1.384 . S
C862 H853 0.929 . S
C862 C854 1.378 . S
C862 C857 1.350 . S
C863 H850 0.929 . S
C863 C855 1.433 . S
C863 N865 1.384 . S
N864 C860 1.427 . S
N864 C861 1.384 . S
N865 C857 1.427 . S
N865 C863 1.384 . S
H866 C872 0.930 . S
H867 C876 0.930 . S
H868 C881 0.929 . S
H869 C879 0.929 . S
H870 C874 0.929 . S
H871 C880 0.929 . S
C872 H866 0.930 . S
C872 C873 1.367 . S
C872 C880 1.378 . S
C873 C872 1.367 . S
C873 C881 1.433 . S
C874 H870 0.929 . S
C874 C876 1.378 . S
C874 C878 1.350 . S
C875 C878 1.463 . S
C875 C880 1.350 . S
C875 N883 1.427 . S
C876 H867 0.930 . S
C876 C874 1.378 . S
C876 C877 1.367 . S
C877 C876 1.367 . S
C877 C879 1.433 . S
C878 C874 1.350 . S
C878 C875 1.463 . S
C878 N882 1.427 . S
C879 H869 0.929 . S
C879 C877 1.433 . S
C879 N882 1.384 . S
C880 H871 0.929 . S
C880 C872 1.378 . S
C880 C875 1.350 . S
C881 H868 0.929 . S
C881 C873 1.433 . S
C881 N883 1.384 . S
N882 C878 1.427 . S
N882 C879 1.384 . S
N883 C875 1.427 . S
N883 C881 1.384 . S
H884 C890 0.930 . S
H885 C894 0.930 . S
H886 C899 0.929 . S
H887 C897 0.929 . S
H888 C892 0.929 . S
H889 C898 0.929 . S
C890 H884 0.930 . S
C890 C891 1.367 . S
C890 C898 1.378 . S
C891 C890 1.367 . S
C891 C899 1.433 . S
C892 H888 0.929 . S
C892 C894 1.378 . S
C892 C896 1.350 . S
C893 C896 1.463 . S
C893 C898 1.350 . S
C893 N901 1.427 . S
C894 H885 0.930 . S
C894 C892 1.378 . S
C894 C895 1.367 . S
C895 C894 1.367 . S
C895 C897 1.433 . S
C896 C892 1.350 . S
C896 C893 1.463 . S
C896 N900 1.427 . S
C897 H887 0.929 . S
C897 C895 1.433 . S
C897 N900 1.384 . S
C898 H889 0.929 . S
C898 C890 1.378 . S
C898 C893 1.350 . S
C899 H886 0.929 . S
C899 C891 1.433 . S
C899 N901 1.384 . S
N900 C896 1.427 . S
N900 C897 1.384 . S
N901 C893 1.427 . S
N901 C899 1.384 . S
H902 C908 0.930 . S
H903 C912 0.930 . S
H904 C917 0.929 . S
H905 C915 0.929 . S
H906 C910 0.929 . S
H907 C916 0.929 . S
C908 H902 0.930 . S
C908 C909 1.367 . S
C908 C916 1.378 . S
C909 C908 1.367 . S
C909 C917 1.433 . S
C910 H906 0.929 . S
C910 C912 1.378 . S
C910 C914 1.350 . S
C911 C914 1.463 . S
C911 C916 1.350 . S
C911 N919 1.427 . S
C912 H903 0.930 . S
C912 C910 1.378 . S
C912 C913 1.367 . S
C913 C912 1.367 . S
C913 C915 1.433 . S
C914 C910 1.350 . S
C914 C911 1.463 . S
C914 N918 1.427 . S
C915 H905 0.929 . S
C915 C913 1.433 . S
C915 N918 1.384 . S
C916 H907 0.929 . S
C916 C908 1.378 . S
C916 C911 1.350 . S
C917 H904 0.929 . S
C917 C909 1.433 . S
C917 N919 1.384 . S
N918 C914 1.427 . S
N918 C915 1.384 . S
N919 C911 1.427 . S
N919 C917 1.384 . S
H920 C926 0.930 . S
H921 C930 0.930 . S
H922 C935 0.929 . S
H923 C933 0.929 . S
H924 C928 0.929 . S
H925 C934 0.929 . S
C926 H920 0.930 . S
C926 C927 1.367 . S
C926 C934 1.378 . S
C927 C926 1.367 . S
C927 C935 1.433 . S
C928 H924 0.929 . S
C928 C930 1.378 . S
C928 C932 1.350 . S
C929 C932 1.463 . S
C929 C934 1.350 . S
C929 N937 1.427 . S
C930 H921 0.930 . S
C930 C928 1.378 . S
C930 C931 1.367 . S
C931 C930 1.367 . S
C931 C933 1.433 . S
C932 C928 1.350 . S
C932 C929 1.463 . S
C932 N936 1.427 . S
C933 H923 0.929 . S
C933 C931 1.433 . S
C933 N936 1.384 . S
C934 H925 0.929 . S
C934 C926 1.378 . S
C934 C929 1.350 . S
C935 H922 0.929 . S
C935 C927 1.433 . S
C935 N937 1.384 . S
N936 C932 1.427 . S
N936 C933 1.384 . S
N937 C929 1.427 . S
N937 C935 1.384 . S
H938 C944 0.930 . S
H939 C948 0.930 . S
H940 C953 0.929 . S
H941 C951 0.929 . S
H942 C946 0.929 . S
H943 C952 0.929 . S
C944 H938 0.930 . S
C944 C945 1.367 . S
C944 C952 1.378 . S
C945 C944 1.367 . S
C945 C953 1.433 . S
C946 H942 0.929 . S
C946 C948 1.378 . S
C946 C950 1.350 . S
C947 C950 1.463 . S
C947 C952 1.350 . S
C947 N955 1.427 . S
C948 H939 0.930 . S
C948 C946 1.378 . S
C948 C949 1.367 . S
C949 C948 1.367 . S
C949 C951 1.433 . S
C950 C946 1.350 . S
C950 C947 1.463 . S
C950 N954 1.427 . S
C951 H941 0.929 . S
C951 C949 1.433 . S
C951 N954 1.384 . S
C952 H943 0.929 . S
C952 C944 1.378 . S
C952 C947 1.350 . S
C953 H940 0.929 . S
C953 C945 1.433 . S
C953 N955 1.384 . S
N954 C950 1.427 . S
N954 C951 1.384 . S
N955 C947 1.427 . S
N955 C953 1.384 . S
H956 C962 0.930 . S
H957 C966 0.930 . S
H958 C971 0.929 . S
H959 C969 0.929 . S
H960 C964 0.929 . S
H961 C970 0.929 . S
C962 H956 0.930 . S
C962 C963 1.367 . S
C962 C970 1.378 . S
C963 C962 1.367 . S
C963 C971 1.433 . S
C964 H960 0.929 . S
C964 C966 1.378 . S
C964 C968 1.350 . S
C965 C968 1.463 . S
C965 C970 1.350 . S
C965 N973 1.427 . S
C966 H957 0.930 . S
C966 C964 1.378 . S
C966 C967 1.367 . S
C967 C966 1.367 . S
C967 C969 1.433 . S
C968 C964 1.350 . S
C968 C965 1.463 . S
C968 N972 1.427 . S
C969 H959 0.929 . S
C969 C967 1.433 . S
C969 N972 1.384 . S
C970 H961 0.929 . S
C970 C962 1.378 . S
C970 C965 1.350 . S
C971 H958 0.929 . S
C971 C963 1.433 . S
C971 N973 1.384 . S
N972 C968 1.427 . S
N972 C969 1.384 . S
N973 C965 1.427 . S
N973 C971 1.384 . S
H974 C980 0.930 . S
H975 C984 0.930 . S
H976 C989 0.929 . S
H977 C987 0.929 . S
H978 C982 0.929 . S
H979 C988 0.929 . S
C980 H974 0.930 . S
C980 C981 1.367 . S
C980 C988 1.378 . S
C981 C980 1.367 . S
C981 C989 1.433 . S
C982 H978 0.929 . S
C982 C984 1.378 . S
C982 C986 1.350 . S
C983 C986 1.463 . S
C983 C988 1.350 . S
C983 N991 1.427 . S
C984 H975 0.930 . S
C984 C982 1.378 . S
C984 C985 1.367 . S
C985 C984 1.367 . S
C985 C987 1.433 . S
C986 C982 1.350 . S
C986 C983 1.463 . S
C986 N990 1.427 . S
C987 H977 0.929 . S
C987 C985 1.433 . S
C987 N990 1.384 . S
C988 H979 0.929 . S
C988 C980 1.378 . S
C988 C983 1.350 . S
C989 H976 0.929 . S
C989 C981 1.433 . S
C989 N991 1.384 . S
N990 C986 1.427 . S
N990 C987 1.384 . S
N991 C983 1.427 . S
N991 C989 1.384 . S
H992 C998 0.930 . S
H993 C1002 0.930 . S
H994 C1007 0.929 . S
H995 C1005 0.929 . S
H996 C1000 0.929 . S
H997 C1006 0.929 . S
C998 H992 0.930 . S
C998 C999 1.367 . S
C998 C1006 1.378 . S
C999 C998 1.367 . S
C999 C1007 1.433 . S
C1000 H996 0.929 . S
C1000 C1002 1.378 . S
C1000 C1004 1.350 . S
C1001 C1004 1.463 . S
C1001 C1006 1.350 . S
C1001 N1009 1.427 . S
C1002 H993 0.930 . S
C1002 C1000 1.378 . S
C1002 C1003 1.367 . S
C1003 C1002 1.367 . S
C1003 C1005 1.433 . S
C1004 C1000 1.350 . S
C1004 C1001 1.463 . S
C1004 N1008 1.427 . S
C1005 H995 0.929 . S
C1005 C1003 1.433 . S
C1005 N1008 1.384 . S
C1006 H997 0.929 . S
C1006 C998 1.378 . S
C1006 C1001 1.350 . S
C1007 H994 0.929 . S
C1007 C999 1.433 . S
C1007 N1009 1.384 . S
N1008 C1004 1.427 . S
N1008 C1005 1.384 . S
N1009 C1001 1.427 . S
N1009 C1007 1.384 . S
H1010 C1016 0.930 . S
H1011 C1020 0.930 . S
H1012 C1025 0.929 . S
H1013 C1023 0.929 . S
H1014 C1018 0.929 . S
H1015 C1024 0.929 . S
C1016 H1010 0.930 . S
C1016 C1017 1.367 . S
C1016 C1024 1.378 . S
C1017 C1016 1.367 . S
C1017 C1025 1.433 . S
C1018 H1014 0.929 . S
C1018 C1020 1.378 . S
C1018 C1022 1.350 . S
C1019 C1022 1.463 . S
C1019 C1024 1.350 . S
C1019 N1027 1.427 . S
C1020 H1011 0.930 . S
C1020 C1018 1.378 . S
C1020 C1021 1.367 . S
C1021 C1020 1.367 . S
C1021 C1023 1.433 . S
C1022 C1018 1.350 . S
C1022 C1019 1.463 . S
C1022 N1026 1.427 . S
C1023 H1013 0.929 . S
C1023 C1021 1.433 . S
C1023 N1026 1.384 . S
C1024 H1015 0.929 . S
C1024 C1016 1.378 . S
C1024 C1019 1.350 . S
C1025 H1012 0.929 . S
C1025 C1017 1.433 . S
C1025 N1027 1.384 . S
N1026 C1022 1.427 . S
N1026 C1023 1.384 . S
N1027 C1019 1.427 . S
N1027 C1025 1.384 . S
C607 C328 1.537 . S
C603 C15 1.546 . S
C625 C381 1.558 . S
C621 C55 1.560 . S
C643 C342 1.583 . S
C639 C101 1.561 . S
C661 C367 1.596 . S
C657 C141 1.597 . S
C679 C413 1.517 . S
C675 C2 1.497 . S
C697 C459 1.516 . S
C693 C61 1.499 . S
C711 C95 1.620 . S
C715 C526 1.617 . S
C733 C558 1.514 . S
C729 C135 1.520 . S
C751 C427 1.514 . S
C747 C42 1.489 . S
C765 C82 1.518 . S
C769 C473 1.542 . S
C787 C512 1.604 . S
C783 C122 1.621 . S
C805 C572 1.533 . S
C801 C21 1.514 . S
C819 C162 1.592 . S
C823 C388 1.585 . S
C841 C321 1.578 . S
C837 C221 1.575 . S
C855 C255 1.561 . S
C859 C374 1.555 . S
C873 C282 1.527 . S
C877 C335 1.534 . S
C895 C519 1.618 . S
C891 C181 1.636 . S
C913 C565 1.531 . S
C909 C202 1.532 . S
C931 C420 1.520 . S
C927 C242 1.514 . S
C945 C301 1.510 . S
C949 C480 1.527 . S
C967 C505 1.616 . S
C963 C215 1.623 . S
C985 C551 1.525 . S
C981 C261 1.526 . S
C1003 C434 1.512 . S
C999 C295 1.517 . S
C1017 C175 1.526 . S
C1021 C466 1.525 . S
