# Generated by pormake.
# Topology ctn, (3,4)-cn, num edge types: 1
# Building blocks:
#     Node 0, Type 0, BuildingBlock: KAKCAD_clean_linker_0, # of connection points: 3
#     Node 1, Type 0, BuildingBlock: KAKCAD_clean_linker_0, # of connection points: 3
#     Node 2, Type 0, BuildingBlock: KAKCAD_clean_linker_0, # of connection points: 3
#     Node 3, Type 0, BuildingBlock: KAKCAD_clean_linker_0, # of connection points: 3
#     Node 4, Type 0, BuildingBlock: KAKCAD_clean_linker_0, # of connection points: 3
#     Node 5, Type 0, BuildingBlock: KAKCAD_clean_linker_0, # of connection points: 3
#     Node 6, Type 0, BuildingBlock: KAKCAD_clean_linker_0, # of connection points: 3
#     Node 7, Type 0, BuildingBlock: KAKCAD_clean_linker_0, # of connection points: 3
#     Node 8, Type 0, BuildingBlock: KAKCAD_clean_linker_0, # of connection points: 3
#     Node 9, Type 0, BuildingBlock: KAKCAD_clean_linker_0, # of connection points: 3
#     Node 10, Type 0, BuildingBlock: KAKCAD_clean_linker_0, # of connection points: 3
#     Node 11, Type 0, BuildingBlock: KAKCAD_clean_linker_0, # of connection points: 3
#     Node 12, Type 0, BuildingBlock: KAKCAD_clean_linker_0, # of connection points: 3
#     Node 13, Type 0, BuildingBlock: KAKCAD_clean_linker_0, # of connection points: 3
#     Node 14, Type 0, BuildingBlock: KAKCAD_clean_linker_0, # of connection points: 3
#     Node 15, Type 0, BuildingBlock: KAKCAD_clean_linker_0, # of connection points: 3
#     Node 16, Type 1, BuildingBlock: QUQFOY_clean_sbu_1, # of connection points: 4
#     Node 17, Type 1, BuildingBlock: QUQFOY_clean_sbu_1, # of connection points: 4
#     Node 18, Type 1, BuildingBlock: QUQFOY_clean_sbu_1, # of connection points: 4
#     Node 19, Type 1, BuildingBlock: QUQFOY_clean_sbu_1, # of connection points: 4
#     Node 20, Type 1, BuildingBlock: QUQFOY_clean_sbu_1, # of connection points: 4
#     Node 21, Type 1, BuildingBlock: QUQFOY_clean_sbu_1, # of connection points: 4
#     Node 22, Type 1, BuildingBlock: QUQFOY_clean_sbu_1, # of connection points: 4
#     Node 23, Type 1, BuildingBlock: QUQFOY_clean_sbu_1, # of connection points: 4
#     Node 24, Type 1, BuildingBlock: QUQFOY_clean_sbu_1, # of connection points: 4
#     Node 25, Type 1, BuildingBlock: QUQFOY_clean_sbu_1, # of connection points: 4
#     Node 26, Type 1, BuildingBlock: QUQFOY_clean_sbu_1, # of connection points: 4
#     Node 27, Type 1, BuildingBlock: QUQFOY_clean_sbu_1, # of connection points: 4
#     Edge 28, Type (0, 1), BuildingBlock: AJUNOK_clean_linker_0, # of connection points: 2
#     Edge 29, Type (0, 1), BuildingBlock: AJUNOK_clean_linker_0, # of connection points: 2
#     Edge 30, Type (0, 1), BuildingBlock: AJUNOK_clean_linker_0, # of connection points: 2
#     Edge 31, Type (0, 1), BuildingBlock: AJUNOK_clean_linker_0, # of connection points: 2
#     Edge 32, Type (0, 1), BuildingBlock: AJUNOK_clean_linker_0, # of connection points: 2
#     Edge 33, Type (0, 1), BuildingBlock: AJUNOK_clean_linker_0, # of connection points: 2
#     Edge 34, Type (0, 1), BuildingBlock: AJUNOK_clean_linker_0, # of connection points: 2
#     Edge 35, Type (0, 1), BuildingBlock: AJUNOK_clean_linker_0, # of connection points: 2
#     Edge 36, Type (0, 1), BuildingBlock: AJUNOK_clean_linker_0, # of connection points: 2
#     Edge 37, Type (0, 1), BuildingBlock: AJUNOK_clean_linker_0, # of connection points: 2
#     Edge 38, Type (0, 1), BuildingBlock: AJUNOK_clean_linker_0, # of connection points: 2
#     Edge 39, Type (0, 1), BuildingBlock: AJUNOK_clean_linker_0, # of connection points: 2
#     Edge 40, Type (0, 1), BuildingBlock: AJUNOK_clean_linker_0, # of connection points: 2
#     Edge 41, Type (0, 1), BuildingBlock: AJUNOK_clean_linker_0, # of connection points: 2
#     Edge 42, Type (0, 1), BuildingBlock: AJUNOK_clean_linker_0, # of connection points: 2
#     Edge 43, Type (0, 1), BuildingBlock: AJUNOK_clean_linker_0, # of connection points: 2
#     Edge 44, Type (0, 1), BuildingBlock: AJUNOK_clean_linker_0, # of connection points: 2
#     Edge 45, Type (0, 1), BuildingBlock: AJUNOK_clean_linker_0, # of connection points: 2
#     Edge 46, Type (0, 1), BuildingBlock: AJUNOK_clean_linker_0, # of connection points: 2
#     Edge 47, Type (0, 1), BuildingBlock: AJUNOK_clean_linker_0, # of connection points: 2
#     Edge 48, Type (0, 1), BuildingBlock: AJUNOK_clean_linker_0, # of connection points: 2
#     Edge 49, Type (0, 1), BuildingBlock: AJUNOK_clean_linker_0, # of connection points: 2
#     Edge 50, Type (0, 1), BuildingBlock: AJUNOK_clean_linker_0, # of connection points: 2
#     Edge 51, Type (0, 1), BuildingBlock: AJUNOK_clean_linker_0, # of connection points: 2
#     Edge 52, Type (0, 1), BuildingBlock: AJUNOK_clean_linker_0, # of connection points: 2
#     Edge 53, Type (0, 1), BuildingBlock: AJUNOK_clean_linker_0, # of connection points: 2
#     Edge 54, Type (0, 1), BuildingBlock: AJUNOK_clean_linker_0, # of connection points: 2
#     Edge 55, Type (0, 1), BuildingBlock: AJUNOK_clean_linker_0, # of connection points: 2
#     Edge 56, Type (0, 1), BuildingBlock: AJUNOK_clean_linker_0, # of connection points: 2
#     Edge 57, Type (0, 1), BuildingBlock: AJUNOK_clean_linker_0, # of connection points: 2
#     Edge 58, Type (0, 1), BuildingBlock: AJUNOK_clean_linker_0, # of connection points: 2
#     Edge 59, Type (0, 1), BuildingBlock: AJUNOK_clean_linker_0, # of connection points: 2
#     Edge 60, Type (0, 1), BuildingBlock: AJUNOK_clean_linker_0, # of connection points: 2
#     Edge 61, Type (0, 1), BuildingBlock: AJUNOK_clean_linker_0, # of connection points: 2
#     Edge 62, Type (0, 1), BuildingBlock: AJUNOK_clean_linker_0, # of connection points: 2
#     Edge 63, Type (0, 1), BuildingBlock: AJUNOK_clean_linker_0, # of connection points: 2
#     Edge 64, Type (0, 1), BuildingBlock: AJUNOK_clean_linker_0, # of connection points: 2
#     Edge 65, Type (0, 1), BuildingBlock: AJUNOK_clean_linker_0, # of connection points: 2
#     Edge 66, Type (0, 1), BuildingBlock: AJUNOK_clean_linker_0, # of connection points: 2
#     Edge 67, Type (0, 1), BuildingBlock: AJUNOK_clean_linker_0, # of connection points: 2
#     Edge 68, Type (0, 1), BuildingBlock: AJUNOK_clean_linker_0, # of connection points: 2
#     Edge 69, Type (0, 1), BuildingBlock: AJUNOK_clean_linker_0, # of connection points: 2
#     Edge 70, Type (0, 1), BuildingBlock: AJUNOK_clean_linker_0, # of connection points: 2
#     Edge 71, Type (0, 1), BuildingBlock: AJUNOK_clean_linker_0, # of connection points: 2
#     Edge 72, Type (0, 1), BuildingBlock: AJUNOK_clean_linker_0, # of connection points: 2
#     Edge 73, Type (0, 1), BuildingBlock: AJUNOK_clean_linker_0, # of connection points: 2
#     Edge 74, Type (0, 1), BuildingBlock: AJUNOK_clean_linker_0, # of connection points: 2
#     Edge 75, Type (0, 1), BuildingBlock: AJUNOK_clean_linker_0, # of connection points: 2
# Relax obj value: 0.036
# Max RMSD: 0.146
# Mean RMSD: 0.065
data_MOF--net-ctn--node1-QUQFOY_clean_sbu_1--node2-KAKCAD_clean_linker_0--edge1-AJUNOK_clean_linker_0
_symmetry_space_group_name_H-M    P1
_symmetry_Int_Tables_number       1
_symmetry_cell_setting            triclinic
loop_
_symmetry_equiv_pos_as_xyz
'x, y, z'
_cell_length_a     53.346875
_cell_length_b     53.293158
_cell_length_c     53.348058
_cell_angle_alpha  93.036729
_cell_angle_beta   90.412483
_cell_angle_gamma 94.909686
loop_
_atom_site_label
_atom_site_type_symbol
_atom_site_fract_x
_atom_site_fract_y
_atom_site_fract_z
_atom_type_partial_charge
C0 C 0.0379 0.13685 0.97543 0.0
C1 C 0.0301 0.16001 0.98476 0.0
C2 C 0.04186 0.11783 0.99173 0.0
C3 C 0.0381 0.12161 0.0177 0.0
C4 C 0.03085 0.14505 0.02702 0.0
C5 C 0.02682 0.164 0.01072 0.0
C6 C 0.04104 0.101 0.03495 0.0
C7 C 0.06073 0.0853 0.03178 0.0
C8 C 0.0633 0.06547 0.04767 0.0
C9 C 0.04624 0.06183 0.06735 0.0
C10 C 0.02608 0.07705 0.07066 0.0
C11 C 0.02368 0.09656 0.05426 0.0
C12 C 0.00698 0.07196 0.0905 0.0
C13 C 2e-05 0.04711 0.09703 0.0
C14 C 0.99528 0.09177 0.10288 0.0
C15 C 0.97689 0.0868 0.12095 0.0
C16 C 0.96995 0.06193 0.12735 0.0
C17 C 0.08312 0.0479 0.04297 0.0
C18 C 0.08757 0.03869 0.01838 0.0
C19 C 0.09732 0.03979 0.06285 0.0
C20 C 0.11582 0.02309 0.05815 0.0
C21 C 0.12047 0.01423 0.03349 0.0
C22 C 0.10596 0.02198 0.01371 0.0
C23 C 0.98208 0.04222 0.11544 0.0
H24 H 0.04012 0.13314 0.95544 0.0
H25 H 0.0471 0.09988 0.98388 0.0
H26 H 0.0282 0.14874 0.04694 0.0
H27 H 0.02093 0.18176 0.01839 0.0
H28 H 0.07429 0.08865 0.01703 0.0
H29 H 0.00774 0.10781 0.05591 0.0
H30 H 0.04845 0.04672 0.07976 0.0
H31 H 0.0082 0.03124 0.08778 0.0
H32 H 0.00042 0.11121 0.09878 0.0
H33 H 0.96803 0.10245 0.12986 0.0
H34 H 0.07656 0.04411 0.00273 0.0
H35 H 0.09439 0.04665 0.08199 0.0
H36 H 0.97792 0.02291 0.1205 0.0
H37 H 0.10872 0.01496 0.99459 0.0
H38 H 0.12678 0.01742 0.07373 0.0
C39 C 0.35403 0.76641 0.27526 0.0
C40 C 0.3673 0.74572 0.28096 0.0
C41 C 0.33159 0.76278 0.26134 0.0
C42 C 0.32195 0.73838 0.25299 0.0
C43 C 0.33567 0.7178 0.25809 0.0
C44 C 0.35806 0.72143 0.27201 0.0
C45 C 0.29707 0.73415 0.24011 0.0
C46 C 0.29016 0.75004 0.22151 0.0
C47 C 0.26662 0.74574 0.20927 0.0
C48 C 0.24987 0.72551 0.21606 0.0
C49 C 0.25648 0.70955 0.23465 0.0
C50 C 0.28004 0.71405 0.24661 0.0
C51 C 0.23896 0.68795 0.24143 0.0
C52 C 0.21325 0.69083 0.24482 0.0
C53 C 0.24793 0.66428 0.24467 0.0
C54 C 0.23153 0.6439 0.25116 0.0
C55 C 0.20583 0.64677 0.25448 0.0
C56 C 0.2599 0.76167 0.18868 0.0
C57 C 0.26494 0.78802 0.1909 0.0
C58 C 0.2489 0.75045 0.16634 0.0
C59 C 0.24358 0.76519 0.14645 0.0
C60 C 0.249 0.79147 0.14851 0.0
C61 C 0.25949 0.8028 0.171 0.0
C62 C 0.19685 0.67044 0.25137 0.0
H63 H 0.36053 0.78529 0.28233 0.0
H64 H 0.32131 0.77896 0.25795 0.0
H65 H 0.32894 0.69881 0.25154 0.0
H66 H 0.36803 0.7052 0.27602 0.0
H67 H 0.30344 0.76523 0.21597 0.0
H68 H 0.28492 0.70214 0.26144 0.0
H69 H 0.23172 0.72202 0.20667 0.0
H70 H 0.20589 0.70895 0.24282 0.0
H71 H 0.2676 0.66142 0.24188 0.0
H72 H 0.23887 0.62579 0.2533 0.0
H73 H 0.27324 0.79719 0.20796 0.0
H74 H 0.24506 0.73017 0.16395 0.0
H75 H 0.17719 0.67326 0.25433 0.0
H76 H 0.26423 0.82299 0.17289 0.0
H77 H 0.23559 0.75602 0.12925 0.0
C78 C 0.9862 0.49042 0.14746 0.0
C79 C 0.01216 0.48782 0.14894 0.0
C80 C 0.97392 0.48942 0.12419 0.0
C81 C 0.98735 0.48578 0.10192 0.0
C82 C 0.01319 0.48255 0.10344 0.0
C83 C 0.02548 0.48364 0.12672 0.0
C84 C 0.97464 0.48602 0.07713 0.0
C85 C 0.95794 0.50432 0.07251 0.0
C86 C 0.94645 0.50507 0.04884 0.0
C87 C 0.95153 0.48706 0.02978 0.0
C88 C 0.96798 0.46853 0.03416 0.0
C89 C 0.97953 0.46821 0.05784 0.0
C90 C 0.97274 0.44912 0.01422 0.0
C91 C 0.95264 0.43666 5e-05 0.0
C92 C 0.99728 0.44238 0.00975 0.0
C93 C 0.0016 0.42331 0.99171 0.0
C94 C 0.98145 0.41061 0.97786 0.0
C95 C 0.92917 0.52465 0.0439 0.0
C96 C 0.91006 0.52987 0.06091 0.0
C97 C 0.93128 0.53778 0.02177 0.0
C98 C 0.91431 0.55538 0.01648 0.0
C99 C 0.89478 0.56016 0.03314 0.0
C100 C 0.89292 0.54735 0.05551 0.0
C101 C 0.95695 0.4175 0.98212 0.0
H102 H 0.97548 0.49358 0.16434 0.0
H103 H 0.95392 0.49161 0.1236 0.0
H104 H 0.02409 0.48005 0.08658 0.0
H105 H 0.04561 0.48219 0.12726 0.0
H106 H 0.95446 0.51848 0.08712 0.0
H107 H 0.99188 0.45365 0.06149 0.0
H108 H 0.94259 0.48743 0.0115 0.0
H109 H 0.93351 0.44127 0.00328 0.0
H110 H 0.01314 0.45179 0.02028 0.0
H111 H 0.02061 0.41809 0.989 0.0
H112 H 0.90785 0.51982 0.07799 0.0
H113 H 0.94605 0.53438 0.00849 0.0
H114 H 0.94112 0.40793 0.97168 0.0
H115 H 0.87774 0.55018 0.06843 0.0
H116 H 0.9163 0.5651 -0.00082 0.0
C117 C 0.73877 0.77212 0.15752 0.0
C118 C 0.7383 0.74573 0.15652 0.0
C119 C 0.73548 0.7855 0.18023 0.0
C120 C 0.73174 0.7728 0.20251 0.0
C121 C 0.73173 0.74638 0.20161 0.0
C122 C 0.73516 0.73295 0.17878 0.0
C123 C 0.72724 0.78735 0.22632 0.0
C124 C 0.70727 0.77968 0.24198 0.0
C125 C 0.70128 0.795 0.263 0.0
C126 C 0.71573 0.81799 0.26844 0.0
C127 C 0.73579 0.82582 0.25302 0.0
C128 C 0.74158 0.81024 0.23222 0.0
C129 C 0.7495 0.85112 0.25717 0.0
C130 C 0.73628 0.87259 0.26183 0.0
C131 C 0.77575 0.85419 0.2546 0.0
C132 C 0.78843 0.87824 0.25589 0.0
C133 C 0.77515 0.89973 0.25983 0.0
C134 C 0.67844 0.78847 0.27783 0.0
C135 C 0.65543 0.78097 0.26551 0.0
C136 C 0.67892 0.79181 0.30417 0.0
C137 C 0.65668 0.78869 0.31781 0.0
C138 C 0.63357 0.78234 0.30532 0.0
C139 C 0.63322 0.77805 0.27912 0.0
C140 C 0.74899 0.89669 0.26311 0.0
H141 H 0.7414 0.78239 0.14061 0.0
H142 H 0.73527 0.80581 0.18022 0.0
H143 H 0.72905 0.73614 0.21853 0.0
H144 H 0.73474 0.71257 0.17839 0.0
H145 H 0.69578 0.76227 0.23727 0.0
H146 H 0.75676 0.81641 0.21998 0.0
H147 H 0.71083 0.83023 0.2842 0.0
H148 H 0.71599 0.87083 0.2635 0.0
H149 H 0.78646 0.83799 0.25125 0.0
H150 H 0.80865 0.88008 0.25358 0.0
H151 H 0.65439 0.77855 0.24523 0.0
H152 H 0.69642 0.79748 0.31415 0.0
H153 H 0.73827 0.91297 0.26582 0.0
H154 H 0.61559 0.77316 0.26909 0.0
H155 H 0.65738 0.79237 0.33798 0.0
C156 C 0.97232 0.98868 0.39546 0.0
C157 C 0.98224 -0.00223 0.37303 0.0
C158 C 0.9883 0.98256 0.41466 0.0
C159 C 0.01455 0.98552 0.41185 0.0
C160 C 0.02443 0.99418 0.38919 0.0
C161 C 0.00845 0.00032 0.37001 0.0
C162 C 0.03153 0.98118 0.43309 0.0
C163 C 0.02641 0.96061 0.44826 0.0
C164 C 0.04136 0.95766 0.46962 0.0
C165 C 0.06189 0.97551 0.47525 0.0
C166 C 0.06768 0.99568 0.45986 0.0
C167 C 0.05234 -0.00154 0.43894 0.0
C168 C 0.08964 0.01406 0.46575 0.0
C169 C 0.09468 0.0235 0.49054 0.0
C170 C 0.1058 0.02217 0.44656 0.0
C171 C 0.12659 0.03935 0.45204 0.0
C172 C 0.13154 0.04884 0.47679 0.0
C173 C 0.03521 0.9366 0.48656 0.0
C174 C 0.01008 0.92738 0.49033 0.0
C175 C 0.05432 0.92624 0.50001 0.0
C176 C 0.04841 0.90808 0.51747 0.0
C177 C 0.0233 0.89901 0.52129 0.0
C178 C 0.00426 0.90865 0.50721 0.0
C179 C 0.11547 0.0407 0.49602 0.0
H180 H 0.95217 0.98646 0.39821 0.0
H181 H 0.9801 0.97626 0.43199 0.0
H182 H 0.04457 0.99648 0.38637 0.0
H183 H 0.01662 0.00761 0.35306 0.0
H184 H 0.01084 0.94684 0.44322 0.0
H185 H 0.05613 0.01469 0.42771 0.0
H186 H 0.07343 0.97391 0.49177 0.0
H187 H 0.08244 0.01775 0.50569 0.0
H188 H 0.10254 0.015 0.42732 0.0
H189 H 0.13872 0.04537 0.4369 0.0
H190 H 0.99471 0.93502 0.48078 0.0
H191 H 0.07395 0.9323 0.49734 0.0
H192 H 0.11913 0.04745 0.51531 0.0
H193 H 0.9847 0.90194 0.50946 0.0
H194 H 0.06357 0.90167 0.52836 0.0
C195 C 0.15432 0.74655 0.71872 0.0
C196 C 0.14607 0.77051 0.71545 0.0
C197 C 0.17582 0.74391 0.73305 0.0
C198 C 0.18963 0.76521 0.74442 0.0
C199 C 0.18221 0.7893 0.73987 0.0
C200 C 0.16059 0.79193 0.72559 0.0
C201 C 0.20987 0.76203 0.76302 0.0
C202 C 0.22608 0.74267 0.75947 0.0
C203 C 0.24294 0.73757 0.77855 0.0
C204 C 0.2437 0.75226 0.80122 0.0
C205 C 0.22777 0.77169 0.80501 0.0
C206 C 0.21116 0.77668 0.78579 0.0
C207 C 0.22703 0.78544 0.8298 0.0
C208 C 0.22445 0.77201 0.85171 0.0
C209 C 0.22834 0.81189 0.83171 0.0
C210 C 0.22777 0.82472 0.85523 0.0
C211 C 0.22563 0.8113 0.87722 0.0
C212 C 0.25809 0.71548 0.77597 0.0
C213 C 0.24675 0.69184 0.76716 0.0
C214 C 0.28328 0.71732 0.78432 0.0
C215 C 0.2965 0.69579 0.78487 0.0
C216 C 0.28467 0.67203 0.77733 0.0
C217 C 0.25991 0.67032 0.76789 0.0
C218 C 0.22352 0.7848 0.87515 0.0
H219 H 0.14353 0.72973 0.71099 0.0
H220 H 0.18075 0.72506 0.73635 0.0
H221 H 0.19262 0.80611 0.74809 0.0
H222 H 0.15453 0.81061 0.7236 0.0
H223 H 0.22531 0.73127 0.742 0.0
H224 H 0.1981 0.79094 0.78927 0.0
H225 H 0.2561 0.74803 0.81633 0.0
H226 H 0.22281 0.75158 0.85067 0.0
H227 H 0.23026 0.82264 0.81505 0.0
H228 H 0.22949 0.84515 0.85625 0.0
H229 H 0.22732 0.68977 0.7608 0.0
H230 H 0.29256 0.73533 0.791 0.0
H231 H 0.22107 0.77392 0.89167 0.0
H232 H 0.2505 0.6522 0.76172 0.0
H233 H 0.3156 0.69755 0.7922 0.0
C234 C 0.96707 0.64294 0.53305 0.0
C235 C 0.96307 0.64363 0.55903 0.0
C236 C 0.96385 0.62014 0.51884 0.0
C237 C 0.95653 0.59758 0.53035 0.0
C238 C 0.95214 0.59836 0.55631 0.0
C239 C 0.95536 0.6212 0.57052 0.0
C240 C 0.95332 0.5734 0.51519 0.0
C241 C 0.97063 0.56798 0.49639 0.0
C242 C 0.96705 0.54579 0.48098 0.0
C243 C 0.94609 0.52871 0.48473 0.0
C244 C 0.9286 0.53385 0.50345 0.0
C245 C 0.93244 0.55613 0.51873 0.0
C246 C 0.90545 0.51683 0.50597 0.0
C247 C 0.89132 0.50786 0.48452 0.0
C248 C 0.89689 0.51009 0.52975 0.0
C249 C 0.87451 0.49478 0.53203 0.0
C250 C 0.86021 0.48625 0.51059 0.0
C251 C 0.98436 0.54123 0.45999 0.0
C252 C 0.9916 0.56075 0.44415 0.0
C253 C 0.99316 0.51735 0.45517 0.0
C254 C 0.00874 0.51303 0.4347 0.0
C255 C 0.01544 0.53244 0.41862 0.0
C256 C 0.00698 0.55638 0.42366 0.0
C257 C 0.86891 0.49271 0.48682 0.0
H258 H 0.97302 0.66001 0.52376 0.0
H259 H 0.96693 0.62022 0.4988 0.0
H260 H 0.94654 0.58127 0.5657 0.0
H261 H 0.95176 0.62133 0.59048 0.0
H262 H 0.98698 0.58106 0.49375 0.0
H263 H 0.91853 0.56058 0.53262 0.0
H264 H 0.94304 0.5117 0.47265 0.0
H265 H 0.89734 0.51295 0.46598 0.0
H266 H 0.90754 0.51663 0.54656 0.0
H267 H 0.86816 0.48991 0.55054 0.0
H268 H 0.98491 0.57928 0.44729 0.0
H269 H 0.98802 0.50205 0.46722 0.0
H270 H 0.85837 0.486 0.47 0.0
H271 H 0.01222 0.57171 0.41167 0.0
H272 H 0.01516 0.49444 0.43115 0.0
C273 C 0.80937 0.77477 0.88458 0.0
C274 C 0.78633 0.76243 0.89135 0.0
C275 C 0.81072 0.78975 0.86383 0.0
C276 C 0.78909 0.79239 0.84925 0.0
C277 C 0.76607 0.77985 0.85606 0.0
C278 C 0.76471 0.76508 0.87693 0.0
C279 C 0.79051 0.80778 0.82677 0.0
C280 C 0.81132 0.8075 0.81084 0.0
C281 C 0.81259 0.82162 0.78937 0.0
C282 C 0.79261 0.83588 0.78354 0.0
C283 C 0.77175 0.83673 0.79941 0.0
C284 C 0.77097 0.8227 0.82104 0.0
C285 C 0.75133 0.85317 0.79423 0.0
C286 C 0.75704 0.87726 0.78507 0.0
C287 C 0.72616 0.84558 0.79987 0.0
C288 C 0.70748 0.86222 0.79787 0.0
C289 C 0.71354 0.8866 0.78983 0.0
C290 C 0.83494 0.82142 0.77312 0.0
C291 C 0.85923 0.82495 0.78376 0.0
C292 C 0.83216 0.81721 0.74701 0.0
C293 C 0.85331 0.81575 0.7319 0.0
C294 C 0.87761 0.81862 0.74261 0.0
C295 C 0.88037 0.82374 0.76863 0.0
C296 C 0.73828 0.89375 0.78277 0.0
H297 H 0.82627 0.773 0.8955 0.0
H298 H 0.82868 0.79942 0.85933 0.0
H299 H 0.74915 0.78103 0.845 0.0
H300 H 0.74681 0.75533 0.88154 0.0
H301 H 0.82637 0.79579 0.81478 0.0
H302 H 0.75546 0.82394 0.8339 0.0
H303 H 0.79353 0.84655 0.76679 0.0
H304 H 0.77621 0.88391 0.78083 0.0
H305 H 0.72097 0.82697 0.80641 0.0
H306 H 0.68843 0.85634 0.80329 0.0
H307 H 0.86185 0.82867 0.80381 0.0
H308 H 0.81363 0.81433 0.73837 0.0
H309 H 0.74336 0.91261 0.77677 0.0
H310 H 0.89888 0.82669 0.77731 0.0
H311 H 0.85064 0.81168 0.7119 0.0
C312 C 0.30905 0.26645 0.38195 0.0
C313 C 0.28545 0.25493 0.38819 0.0
C314 C 0.31112 0.28354 0.36296 0.0
C315 C 0.28962 0.28944 0.34982 0.0
C316 C 0.26598 0.27795 0.35618 0.0
C317 C 0.26392 0.26091 0.37523 0.0
C318 C 0.29195 0.30769 0.32971 0.0
C319 C 0.3119 0.30725 0.31273 0.0
C320 C 0.31526 0.3252 0.29439 0.0
C321 C 0.29784 0.34347 0.29289 0.0
C322 C 0.27726 0.34366 0.30918 0.0
C323 C 0.27455 0.32582 0.32763 0.0
C324 C 0.25875 0.36273 0.30724 0.0
C325 C 0.2669 0.3882 0.30454 0.0
C326 C 0.2328 0.35563 0.3085 0.0
C327 C 0.21538 0.3737 0.30736 0.0
C328 C 0.2236 0.3992 0.30503 0.0
C329 C 0.3367 0.32444 0.27667 0.0
C330 C 0.35989 0.31654 0.28452 0.0
C331 C 0.33403 0.33082 0.25159 0.0
C332 C 0.35374 0.3287 0.23471 0.0
C333 C 0.37634 0.31943 0.24227 0.0
C334 C 0.37933 0.31382 0.26749 0.0
C335 C 0.2495 0.40627 0.30355 0.0
H336 H 0.32586 0.26255 0.39202 0.0
H337 H 0.32954 0.29243 0.35885 0.0
H338 H 0.24911 0.28189 0.34624 0.0
H339 H 0.24551 0.25217 0.37967 0.0
H340 H 0.32455 0.29246 0.31358 0.0
H341 H 0.25928 0.32655 0.34086 0.0
H342 H 0.30016 0.35756 0.279 0.0
H343 H 0.28678 0.39426 0.30376 0.0
H344 H 0.22598 0.3361 0.31039 0.0
H345 H 0.19552 0.36784 0.30889 0.0
H346 H 0.36303 0.31217 0.30382 0.0
H347 H 0.31651 0.33687 0.2447 0.0
H348 H 0.25628 0.42583 0.30177 0.0
H349 H 0.39652 0.30672 0.274 0.0
H350 H 0.3511 0.33403 0.21563 0.0
C351 C 0.48383 0.99288 0.65437 0.0
C352 C 0.50956 0.98905 0.65416 0.0
C353 C 0.4695 0.98966 0.63223 0.0
C354 C 0.48065 0.98258 0.60945 0.0
C355 C 0.50633 0.97841 0.60934 0.0
C356 C 0.52065 0.98166 0.63147 0.0
C357 C 0.46577 0.98007 0.58572 0.0
C358 C 0.44911 -0.00188 0.58015 0.0
C359 C 0.43585 0.99637 0.55721 0.0
C360 C 0.43907 0.97614 0.53991 0.0
C361 C 0.45542 0.95779 0.54531 0.0
C362 C 0.46869 0.95992 0.56824 0.0
C363 C 0.4587 0.93638 0.52705 0.0
C364 C 0.43775 0.92325 0.51476 0.0
C365 C 0.48283 0.92879 0.52198 0.0
C366 C 0.48592 0.90837 0.50511 0.0
C367 C 0.46495 0.89505 0.49313 0.0
C368 C 0.41892 0.01587 0.55105 0.0
C369 C 0.40093 0.02349 0.56832 0.0
C370 C 0.4203 0.02655 0.52756 0.0
C371 C 0.40371 0.04415 0.52124 0.0
C372 C 0.38524 0.05132 0.5382 0.0
C373 C 0.38412 0.04092 0.56189 0.0
C374 C 0.44085 0.90277 0.49796 0.0
H375 H 0.47482 -0.00147 0.67166 0.0
H376 H 0.4497 0.99271 0.63295 0.0
H377 H 0.51555 0.97332 0.59201 0.0
H378 H 0.54057 0.97918 0.63066 0.0
H379 H 0.4471 0.01404 0.59328 0.0
H380 H 0.48101 0.94559 0.5727 0.0
H381 H 0.4289 0.97473 0.52217 0.0
H382 H 0.41892 0.92858 0.51841 0.0
H383 H 0.49935 0.93875 0.53093 0.0
H384 H 0.5047 0.9028 0.50164 0.0
H385 H 0.39934 0.01535 0.58649 0.0
H386 H 0.43423 0.02126 0.51404 0.0
H387 H 0.42442 0.89303 0.48864 0.0
H388 H 0.36973 0.0456 0.57514 0.0
H389 H 0.40518 0.052 0.50293 0.0
C390 C 0.25762 0.26715 0.65421 0.0
C391 C 0.25511 0.2407 0.65343 0.0
C392 C 0.2553 0.28107 0.67682 0.0
C393 C 0.25036 0.26885 0.6992 0.0
C394 C 0.24851 0.24233 0.69854 0.0
C395 C 0.25093 0.22836 0.67584 0.0
C396 C 0.24564 0.28392 0.72265 0.0
C397 C 0.22489 0.27701 0.73767 0.0
C398 C 0.21846 0.29283 0.75813 0.0
C399 C 0.23325 0.31557 0.76367 0.0
C400 C 0.25403 0.32273 0.74887 0.0
C401 C 0.26033 0.30662 0.72867 0.0
C402 C 0.26785 0.34798 0.75305 0.0
C403 C 0.25456 0.36952 0.75666 0.0
C404 C 0.29425 0.35088 0.75235 0.0
C405 C 0.3071 0.37487 0.75504 0.0
C406 C 0.29377 0.39644 0.75821 0.0
C407 C 0.19486 0.28715 0.7721 0.0
C408 C 0.17227 0.27977 0.75896 0.0
C409 C 0.19423 0.29126 0.79835 0.0
C410 C 0.17136 0.28906 0.81104 0.0
C411 C 0.14871 0.28284 0.79768 0.0
C412 C 0.14944 0.27773 0.77161 0.0
C413 C 0.26739 0.39349 0.75921 0.0
H414 H 0.26082 0.27709 0.63717 0.0
H415 H 0.25644 0.30144 0.67656 0.0
H416 H 0.24482 0.2324 0.71551 0.0
H417 H 0.24861 0.20796 0.67565 0.0
H418 H 0.21311 0.25983 0.73284 0.0
H419 H 0.2761 0.31229 0.71693 0.0
H420 H 0.22802 0.32822 0.77896 0.0
H421 H 0.23418 0.36791 0.7569 0.0
H422 H 0.30496 0.33457 0.74983 0.0
H423 H 0.32747 0.37651 0.75486 0.0
H424 H 0.17207 0.27678 0.73871 0.0
H425 H 0.21137 0.29684 0.80897 0.0
H426 H 0.25664 0.40979 0.76153 0.0
H427 H 0.1322 0.27291 0.76091 0.0
H428 H 0.17126 0.29338 0.83111 0.0
C429 C 0.86338 0.26694 0.77162 0.0
C430 C 0.87736 0.24712 0.77834 0.0
C431 C 0.84063 0.2619 0.75841 0.0
C432 C 0.83141 0.23692 0.75174 0.0
C433 C 0.84573 0.21715 0.75804 0.0
C434 C 0.86842 0.2222 0.77129 0.0
C435 C 0.80651 0.2314 0.73909 0.0
C436 C 0.79909 0.24618 0.71974 0.0
C437 C 0.77552 0.24086 0.70777 0.0
C438 C 0.75925 0.2207 0.71552 0.0
C439 C 0.76639 0.20577 0.73479 0.0
C440 C 0.78999 0.21126 0.74648 0.0
C441 C 0.74934 0.18425 0.74255 0.0
C442 C 0.72369 0.18698 0.74647 0.0
C443 C 0.75863 0.16075 0.74592 0.0
C444 C 0.74255 0.14035 0.75299 0.0
C445 C 0.71693 0.14312 0.75707 0.0
C446 C 0.76832 0.25569 0.68649 0.0
C447 C 0.77288 0.28211 0.68757 0.0
C448 C 0.75735 0.24337 0.66463 0.0
C449 C 0.75169 0.25708 0.64406 0.0
C450 C 0.75688 0.28338 0.64493 0.0
C451 C 0.76709 0.29585 0.667 0.0
C452 C 0.70765 0.16661 0.7537 0.0
H453 H 0.86963 0.28631 0.77726 0.0
H454 H 0.82989 0.27752 0.75413 0.0
H455 H 0.83935 0.19772 0.75282 0.0
H456 H 0.87895 0.2066 0.77616 0.0
H457 H 0.81199 0.26132 0.71345 0.0
H458 H 0.79526 0.20011 0.76179 0.0
H459 H 0.74106 0.21644 0.70637 0.0
H460 H 0.7161 0.20495 0.74422 0.0
H461 H 0.77825 0.15803 0.74264 0.0
H462 H 0.75009 0.12229 0.75482 0.0
H463 H 0.78103 0.29212 0.70429 0.0
H464 H 0.75378 0.22302 0.66315 0.0
H465 H 0.68798 0.16927 0.75682 0.0
H466 H 0.77127 0.31613 0.66806 0.0
H467 H 0.74358 0.2471 0.62731 0.0
C468 C 0.51851 0.6206 0.47847 0.0
C469 C 0.52008 0.64629 0.48609 0.0
C470 C 0.52309 0.6026 0.49568 0.0
C471 C 0.52877 0.60999 0.5209 0.0
C472 C 0.53049 0.63573 0.52847 0.0
C473 C 0.52639 0.65378 0.51113 0.0
C474 C 0.53213 0.59074 0.53937 0.0
C475 C 0.54871 0.57204 0.53441 0.0
C476 C 0.5515 0.55327 0.55148 0.0
C477 C 0.53713 0.5531 0.57341 0.0
C478 C 0.52005 0.57136 0.57841 0.0
C479 C 0.51802 0.59045 0.56151 0.0
C480 C 0.50359 0.56958 0.60067 0.0
C481 C 0.49186 0.54607 0.60664 0.0
C482 C 0.4997 0.591 0.61624 0.0
C483 C 0.48498 0.58875 0.63779 0.0
C484 C 0.47381 0.56507 0.644 0.0
C485 C 0.56911 0.53357 0.5463 0.0
C486 C 0.5698 0.52133 0.52237 0.0
C487 C 0.58527 0.52682 0.56526 0.0
C488 C 0.60199 0.5084 0.56032 0.0
C489 C 0.6027 0.49618 0.53638 0.0
C490 C 0.58639 0.50281 0.51748 0.0
C491 C 0.47718 0.54385 0.62803 0.0
H492 H 0.51349 0.61448 0.45926 0.0
H493 H 0.52148 0.58284 0.48946 0.0
H494 H 0.53493 0.64186 0.5478 0.0
H495 H 0.52741 0.67351 0.5174 0.0
H496 H 0.55975 0.57239 0.51743 0.0
H497 H 0.50464 0.6044 0.565 0.0
H498 H 0.53895 0.53843 0.58645 0.0
H499 H 0.49405 0.52931 0.59474 0.0
H500 H 0.5086 0.60934 0.61215 0.0
H501 H 0.48296 0.60536 0.64997 0.0
H502 H 0.55734 0.52592 0.50748 0.0
H503 H 0.58537 0.53618 0.5838 0.0
H504 H 0.46853 0.52542 0.63221 0.0
H505 H 0.58645 0.49363 0.49887 0.0
H506 H 0.61478 0.50419 0.57508 0.0
C507 C 0.47129 0.52202 0.92978 0.0
C508 C 0.47529 0.51965 0.90374 0.0
C509 C 0.48868 0.51392 0.94666 0.0
C510 C 0.51065 0.50396 0.93783 0.0
C511 C 0.51498 0.50201 0.91196 0.0
C512 C 0.49737 0.50954 0.89506 0.0
C513 C 0.52945 0.49624 0.95558 0.0
C514 C 0.52337 0.47632 0.97119 0.0
C515 C 0.54136 0.46892 0.98806 0.0
C516 C 0.56532 0.48212 0.98951 0.0
C517 C 0.57143 0.50244 0.97431 0.0
C518 C 0.55347 0.50909 0.95706 0.0
C519 C 0.59588 0.51775 0.97758 0.0
C520 C 0.60533 0.52485 0.00181 0.0
C521 C 0.60924 0.52652 0.95669 0.0
C522 C 0.63117 0.54271 0.96002 0.0
C523 C 0.63998 0.55051 0.98428 0.0
C524 C 0.53513 0.4477 0.00447 0.0
C525 C 0.51193 0.44539 0.01679 0.0
C526 C 0.55248 0.42976 0.00813 0.0
C527 C 0.54675 0.40993 0.02381 0.0
C528 C 0.52361 0.40773 0.03622 0.0
C529 C 0.50623 0.4256 0.0325 0.0
C530 C 0.6272 0.54101 0.00512 0.0
H531 H 0.4549 0.53039 0.93716 0.0
H532 H 0.48524 0.51589 0.96663 0.0
H533 H 0.53188 0.49436 0.90484 0.0
H534 H 0.50093 0.5072 0.87515 0.0
H535 H 0.50481 0.46629 0.96978 0.0
H536 H 0.55776 0.52496 0.94544 0.0
H537 H 0.57912 0.47683 0.00281 0.0
H538 H 0.59538 0.5186 0.01829 0.0
H539 H 0.60256 0.5211 0.93779 0.0
H540 H 0.6408 0.54975 0.94367 0.0
H541 H 0.49832 0.4591 0.01459 0.0
H542 H 0.57036 0.43083 -0.00142 0.0
H543 H 0.6339 0.54646 0.02401 0.0
H544 H 0.48828 0.42437 0.04193 0.0
H545 H 0.56024 0.39608 0.02588 0.0
C546 C 0.65555 0.24202 0.21524 0.0
C547 C 0.6474 0.26623 0.21321 0.0
C548 C 0.67737 0.23866 0.22886 0.0
C549 C 0.69139 0.25947 0.24082 0.0
C550 C 0.68422 0.28384 0.23723 0.0
C551 C 0.6624 0.2872 0.22359 0.0
C552 C 0.71102 0.25552 0.25976 0.0
C553 C 0.72843 0.23738 0.25549 0.0
C554 C 0.74513 0.232 0.27469 0.0
C555 C 0.74406 0.24498 0.29829 0.0
C556 C 0.72688 0.26317 0.30273 0.0
C557 C 0.71062 0.26842 0.28335 0.0
C558 C 0.72494 0.27591 0.32794 0.0
C559 C 0.72441 0.26198 0.3496 0.0
C560 C 0.72285 0.30202 0.33042 0.0
C561 C 0.72022 0.31396 0.35406 0.0
C562 C 0.71936 0.3 0.3757 0.0
C563 C 0.7628 0.21197 0.27087 0.0
C564 C 0.75514 0.18909 0.25748 0.0
C565 C 0.7869 0.21486 0.28213 0.0
C566 C 0.80237 0.19497 0.28117 0.0
C567 C 0.7943 0.1719 0.26858 0.0
C568 C 0.77077 0.16928 0.2563 0.0
C569 C 0.72164 0.27392 0.37326 0.0
H570 H 0.64435 0.22555 0.20729 0.0
H571 H 0.68229 0.21965 0.2314 0.0
H572 H 0.69482 0.30026 0.24604 0.0
H573 H 0.65645 0.30605 0.22253 0.0
H574 H 0.72889 0.22748 0.23725 0.0
H575 H 0.6966 0.28167 0.28714 0.0
H576 H 0.75629 0.24062 0.31347 0.0
H577 H 0.72566 0.24178 0.34822 0.0
H578 H 0.72353 0.31327 0.31406 0.0
H579 H 0.71924 0.33421 0.35544 0.0
H580 H 0.73661 0.18604 0.24886 0.0
H581 H 0.79366 0.23237 0.29214 0.0
H582 H 0.72104 0.26272 0.38964 0.0
H583 H 0.76399 0.15152 0.24676 0.0
H584 H 0.82051 0.19746 0.29067 0.0
C585 C 0.48691 0.13502 0.04319 0.0
C586 C 0.48098 0.13684 0.06876 0.0
C587 C 0.48614 0.11155 0.03028 0.0
C588 C 0.47968 0.08935 0.04273 0.0
C589 C 0.47444 0.09114 0.06853 0.0
C590 C 0.47516 0.1147 0.08145 0.0
C591 C 0.47706 0.06467 0.02835 0.0
C592 C 0.49394 0.05943 0.0091 0.0
C593 C 0.48962 0.0378 0.993 0.0
C594 C 0.46873 0.02071 0.99698 0.0
C595 C 0.45175 0.02554 0.01628 0.0
C596 C 0.45617 0.04745 0.03203 0.0
C597 C 0.428 0.00925 0.01828 0.0
C598 C 0.41384 0.00129 0.99655 0.0
C599 C 0.41859 0.00275 0.04184 0.0
C600 C 0.39534 0.98877 0.04361 0.0
C601 C 0.38113 0.98113 0.02185 0.0
C602 C 0.50521 0.03454 0.97039 0.0
C603 C 0.5113 0.05515 0.95553 0.0
C604 C 0.51279 0.01075 0.96264 0.0
C605 C 0.52587 0.0076 0.94024 0.0
C606 C 0.5313 0.02813 0.92514 0.0
C607 C 0.52426 0.05198 0.93317 0.0
C608 C 0.39065 0.98739 -0.00167 0.0
H609 H 0.49198 0.1518 0.03311 0.0
H610 H 0.48995 0.11089 0.01035 0.0
H611 H 0.46962 0.07434 0.07866 0.0
H612 H 0.47064 0.11566 0.10123 0.0
H613 H 0.51017 0.07259 0.0062 0.0
H614 H 0.44241 0.05192 0.04606 0.0
H615 H 0.46503 0.0042 0.98432 0.0
H616 H 0.42035 0.00639 0.97817 0.0
H617 H 0.42914 0.00863 0.05888 0.0
H618 H 0.38823 0.98442 0.06198 0.0
H619 H 0.50544 0.07365 0.96082 0.0
H620 H 0.50847 0.99459 0.97382 0.0
H621 H 0.38004 0.98164 0.98129 0.0
H622 H 0.52866 0.06818 0.92205 0.0
H623 H 0.53126 0.98905 0.93442 0.0
O624 O 0.23978 0.86027 0.99272 0.0
Cd625 Cd 0.24886 0.8777 0.02732 0.0
Cd626 Cd 0.22879 0.91787 0.00325 0.0
O627 O 0.22349 0.89106 0.97389 0.0
O628 O 0.26128 0.84925 0.04499 0.0
O629 O 0.2295 0.86973 0.05884 0.0
C630 C 0.24446 0.85229 0.06175 0.0
C631 C 0.19711 0.94476 0.01179 0.0
C632 C 0.22998 0.86865 0.97343 0.0
C633 C 0.28286 0.92501 0.02125 0.0
O634 O 0.26482 0.934 0.01008 0.0
O635 O 0.27999 0.90316 0.02967 0.0
O636 O 0.21106 0.9468 0.99229 0.0
O637 O 0.20067 0.92674 0.02634 0.0
O638 O 0.14833 0.5459 0.29855 0.0
Cd639 Cd 0.13072 0.51276 0.31028 0.0
Cd640 Cd 0.09261 0.52497 0.27774 0.0
O641 O 0.11905 0.55436 0.27174 0.0
O642 O 0.15805 0.49588 0.32608 0.0
O643 O 0.13722 0.48 0.29208 0.0
C644 C 0.15475 0.47825 0.30858 0.0
C645 C 0.06863 0.51078 0.24212 0.0
C646 C 0.14041 0.55984 0.28216 0.0
C647 C 0.08059 0.51985 0.33291 0.0
O648 O 0.07345 0.52457 0.31104 0.0
O649 O 0.10295 0.51435 0.33676 0.0
O650 O 0.06561 0.53192 0.25398 0.0
O651 O 0.08538 0.49725 0.25068 0.0
O652 O 0.76252 0.69685 0.99054 0.0
Cd653 Cd 0.75213 0.67367 0.01909 0.0
Cd654 Cd 0.78082 0.64168 0.99078 0.0
O655 O 0.78611 0.67206 0.96849 0.0
O656 O 0.73274 0.69617 0.04087 0.0
O657 O 0.76677 0.68008 0.0542 0.0
C658 C 0.74843 0.69389 0.05883 0.0
C659 C 0.81549 0.62174 0.0038 0.0
C660 C 0.77633 0.6929 0.9717 0.0
C661 C 0.72686 0.62386 -0.00196 0.0
O662 O 0.74736 0.61938 0.98746 0.0
O663 O 0.72549 0.64403 0.01152 0.0
O664 O 0.80692 0.61873 0.98108 0.0
O665 O 0.80458 0.63676 0.01919 0.0
O666 O 0.91138 0.01528 0.27531 0.0
Cd667 Cd 0.88662 0.02064 0.24667 0.0
Cd668 Cd 0.86221 0.04269 0.28344 0.0
O669 O 0.89415 0.03879 0.30444 0.0
O670 O 0.9046 0.01155 0.21537 0.0
O671 O 0.89449 0.05026 0.22517 0.0
C672 C 0.90498 0.03483 0.20992 0.0
C673 C 0.84682 0.08169 0.27835 0.0
C674 C 0.91153 0.02513 0.29752 0.0
C675 C 0.83697 0.99491 0.26074 0.0
O676 O 0.83706 0.01117 0.27903 0.0
O677 O 0.85418 0.99666 0.24441 0.0
O678 O 0.84414 0.07053 0.29918 0.0
O679 O 0.85899 0.07091 0.26052 0.0
O680 O 0.25814 0.18975 0.48573 0.0
Cd681 Cd 0.24744 0.16782 0.51512 0.0
Cd682 Cd 0.27483 0.13459 0.49028 0.0
O683 O 0.28193 0.16332 0.46625 0.0
O684 O 0.23366 0.19185 0.53995 0.0
O685 O 0.2667 0.17112 0.54793 0.0
C686 C 0.25107 0.18709 0.55542 0.0
C687 C 0.30821 0.11373 0.50495 0.0
C688 C 0.27253 0.18445 0.4677 0.0
C689 C 0.21986 0.11919 0.49638 0.0
O690 O 0.24063 0.11358 0.48706 0.0
O691 O 0.21863 0.13999 0.50883 0.0
O692 O 0.2998 0.10992 0.48223 0.0
O693 O 0.29788 0.13003 0.5194 0.0
O694 O 0.41369 0.53644 0.80352 0.0
Cd695 Cd 0.3942 0.53224 0.76978 0.0
Cd696 Cd 0.35672 0.5462 0.80009 0.0
O697 O 0.38271 0.54552 0.82869 0.0
O698 O 0.42147 0.52514 0.74594 0.0
O699 O 0.39937 0.55801 0.74328 0.0
C700 C 0.41703 0.54502 0.73459 0.0
C701 C 0.33656 0.58241 0.79366 0.0
C702 C 0.4055 0.54107 0.82543 0.0
C703 C 0.34767 0.49589 0.77313 0.0
O704 O 0.33876 0.51201 0.7882 0.0
O705 O 0.36926 0.50051 0.76369 0.0
O706 O 0.33012 0.56788 0.81154 0.0
O707 O 0.35505 0.57657 0.77957 0.0
O708 O 0.73335 0.34961 0.48967 0.0
Cd709 Cd 0.74323 0.36806 0.52366 0.0
Cd710 Cd 0.71376 0.40426 0.50266 0.0
O711 O 0.70914 0.37664 0.47409 0.0
O712 O 0.76115 0.34215 0.54021 0.0
O713 O 0.72732 0.3576 0.55621 0.0
C714 C 0.74487 0.34249 0.55785 0.0
C715 C 0.67943 0.42737 0.51264 0.0
C716 C 0.71933 0.35595 0.47216 0.0
C717 C 0.76866 0.41944 0.51516 0.0
O718 O 0.74803 0.4251 0.50591 0.0
O719 O 0.77034 0.39787 0.52374 0.0
O720 O 0.69157 0.43001 0.49206 0.0
O721 O 0.68641 0.4109 0.52756 0.0
O722 O 0.65479 0.04054 0.79555 0.0
Cd723 Cd 0.63345 0.00821 0.80435 0.0
Cd724 Cd 0.59689 0.02895 0.7781 0.0
O725 O 0.62582 0.0562 0.77286 0.0
O726 O 0.65772 0.98617 0.81795 0.0
O727 O 0.63592 0.97633 0.78278 0.0
C728 C 0.65214 0.97052 0.79912 0.0
C729 C 0.57217 0.01531 0.743 0.0
C730 C 0.64799 0.05766 0.78198 0.0
C731 C 0.58671 0.0196 0.83218 0.0
O732 O 0.57907 0.02842 0.81214 0.0
O733 O 0.60781 0.0103 0.83277 0.0
O734 O 0.57028 0.03697 0.75441 0.0
O735 O 0.58839 0.00118 0.75161 0.0
O736 O 0.98664 0.30334 0.91485 0.0
Cd737 Cd 0.98853 0.26913 0.89544 0.0
Cd738 Cd 0.01274 0.29827 0.8624 0.0
O739 O 0.00902 0.32702 0.88917 0.0
O740 O 0.97935 0.24405 0.92079 0.0
O741 O 0.0166 0.24756 0.90291 0.0
C742 C 0.00166 0.23668 0.91876 0.0
C743 C 0.05229 0.29285 0.84582 0.0
C744 C 0.99672 0.32478 0.90934 0.0
C745 C 0.96414 0.27012 0.84486 0.0
O746 O 0.98197 0.28636 0.83989 0.0
O747 O 0.96369 0.26008 0.86595 0.0
O748 O 0.03922 0.31067 0.83906 0.0
O749 O 0.04291 0.27811 0.86247 0.0
O750 O 0.46888 0.78882 0.42512 0.0
Cd751 Cd 0.47315 0.75669 0.40287 0.0
Cd752 Cd 0.49845 0.78921 0.37393 0.0
O753 O 0.49323 0.81484 0.40334 0.0
O754 O 0.46514 0.72794 0.42456 0.0
O755 O 0.50308 0.73734 0.40932 0.0
C756 C 0.48841 0.72327 0.42295 0.0
C757 C 0.53843 0.78696 0.35713 0.0
C758 C 0.47942 0.81075 0.42226 0.0
C759 C 0.45114 0.76207 0.35197 0.0
O760 O 0.46867 0.77941 0.34956 0.0
O761 O 0.45012 0.74961 0.37165 0.0
O762 O 0.52494 0.80518 0.35258 0.0
O763 O 0.52934 0.77007 0.37187 0.0
O764 O 0.97756 0.78783 0.6805 0.0
Cd765 Cd 0.00469 0.77422 0.65744 0.0
Cd766 Cd 0.9778 0.79571 0.62168 0.0
O767 O 0.95651 0.80599 0.65191 0.0
O768 O 0.02793 0.7609 0.68164 0.0
O769 O 0.0401 0.79105 0.65651 0.0
C770 C 0.04571 0.77622 0.67369 0.0
C771 C 0.99306 0.82628 0.5951 0.0
C772 C 0.9594 0.80029 0.67449 0.0
C773 C 0.98106 0.74033 0.6148 0.0
O774 O 0.97174 0.75942 0.60643 0.0
O775 O 0.99478 0.7427 0.63446 0.0
O776 O 0.96952 0.81846 0.59515 0.0
O777 O 0.00812 0.81693 0.6105 0.0
O778 O 0.47632 0.28921 0.18279 0.0
Cd779 Cd 0.50396 0.27262 0.16241 0.0
Cd780 Cd 0.48024 0.29117 0.12329 0.0
O781 O 0.45395 0.29828 0.15004 0.0
O782 O 0.52731 0.26182 0.18804 0.0
O783 O 0.53943 0.28872 0.15954 0.0
C784 C 0.5452 0.2755 0.17801 0.0
C785 C 0.49465 0.32415 0.09886 0.0
C786 C 0.45662 0.29716 0.1736 0.0
C787 C 0.48573 0.23626 0.11956 0.0
O788 O 0.47987 0.25513 0.10798 0.0
O789 O 0.49451 0.23922 0.1418 0.0
O790 O 0.47278 0.31222 0.09509 0.0
O791 O 0.50856 0.31715 0.1167 0.0
C792 C 0.21158 0.84553 0.90663 0.0
C793 C 0.22612 0.82495 0.90226 0.0
C794 C 0.21248 0.85922 0.92986 0.0
C795 C 0.22786 0.85276 0.94967 0.0
H796 H 0.19942 0.85115 0.89196 0.0
H797 H 0.20114 0.87507 0.93223 0.0
S798 S 0.27038 0.80097 0.94742 0.0
N799 N 0.25698 0.79928 0.91935 0.0
N800 N 0.25829 0.82449 0.96312 0.0
C801 C 0.24231 0.83201 0.94559 0.0
C802 C 0.24154 0.81825 0.92188 0.0
C803 C 0.05473 0.51854 0.39909 0.0
C804 C 0.03107 0.52781 0.39638 0.0
C805 C 0.07047 0.51564 0.3784 0.0
C806 C 0.06298 0.52172 0.35421 0.0
H807 H 0.06139 0.51412 0.41744 0.0
H808 H 0.08876 0.5089 0.38151 0.0
S809 S 0.00152 0.54471 0.33722 0.0
N810 N 8e-05 0.54161 0.3678 0.0
N811 N 0.0294 0.53619 0.32879 0.0
C812 C 0.03888 0.53025 0.35124 0.0
C813 C 0.023 0.53331 0.37235 0.0
C814 C 0.80022 0.72616 0.91411 0.0
C815 C 0.78484 0.74621 0.91303 0.0
C816 C 0.79772 0.70935 0.93345 0.0
C817 C 0.77993 0.71213 0.95258 0.0
H818 H 0.81376 0.72301 0.89948 0.0
H819 H 0.8096 0.69384 0.93315 0.0
S820 S 0.73658 0.76309 0.95908 0.0
N821 N 0.75231 0.76894 0.93321 0.0
N822 N 0.74755 0.73758 0.96971 0.0
C823 C 0.76506 0.73276 0.95212 0.0
C824 C 0.76751 0.7497 0.93229 0.0
C825 C 0.94625 0.02118 0.35944 0.0
C826 C 0.96519 0.00523 0.35317 0.0
C827 C 0.92952 0.02809 0.3412 0.0
C828 C 0.93094 0.01923 0.31594 0.0
H829 H 0.94435 0.02838 0.37863 0.0
H830 H 0.91506 0.04016 0.34712 0.0
S831 S 0.97747 0.97699 0.28991 0.0
N832 N 0.9846 0.98077 0.3201 0.0
N833 N 0.95339 0.99385 0.28565 0.0
C834 C 0.95015 0.00354 0.30937 0.0
C835 C 0.9672 0.99654 0.32801 0.0
C836 C 0.23839 0.23262 0.60985 0.0
C837 C 0.25469 0.22633 0.62887 0.0
C838 C 0.23741 0.21971 0.58634 0.0
C839 C 0.25282 0.20003 0.58075 0.0
H840 H 0.2261 0.24758 0.61324 0.0
H841 H 0.22446 0.22538 0.5724 0.0
S842 S 0.29906 0.17646 0.6242 0.0
N843 N 0.28672 0.1993 0.64079 0.0
N844 N 0.28502 0.17489 0.59639 0.0
C845 C 0.26928 0.19351 0.59965 0.0
C846 C 0.27013 0.20664 0.62377 0.0
C847 C 0.46563 0.54268 0.68331 0.0
C848 C 0.45977 0.56181 0.66768 0.0
C849 C 0.45196 0.53787 0.70502 0.0
C850 C 0.43177 0.55198 0.71211 0.0
H851 H 0.4809 0.53117 0.67862 0.0
H852 H 0.45721 0.52271 0.71618 0.0
S853 S 0.40911 0.60465 0.67779 0.0
N854 N 0.43271 0.5953 0.66082 0.0
N855 N 0.40695 0.58642 0.70192 0.0
C856 C 0.42601 0.57161 0.69695 0.0
C857 C 0.44004 0.57652 0.67471 0.0
C858 C 0.73854 0.31851 0.62354 0.0
C859 C 0.75299 0.29763 0.62234 0.0
C860 C 0.73535 0.33256 0.60238 0.0
C861 C 0.74688 0.32644 0.57947 0.0
H862 H 0.72966 0.32401 0.64095 0.0
H863 H 0.72427 0.34866 0.60418 0.0
S864 S 0.78657 0.27329 0.56678 0.0
N865 N 0.77878 0.27138 0.59655 0.0
N866 N 0.77294 0.29767 0.55685 0.0
C867 C 0.76121 0.30542 0.57807 0.0
C868 C 0.76422 0.29104 0.59949 0.0
C869 C 0.52378 0.01755 0.69099 0.0
C870 C 0.52513 0.99451 0.67724 0.0
C871 C 0.53897 0.02389 0.71223 0.0
C872 C 0.55614 0.00743 0.72066 0.0
H873 H 0.51122 0.03107 0.685 0.0
H874 H 0.53731 0.04203 0.72195 0.0
S875 S 0.56583 0.94406 0.6919 0.0
N876 N 0.54413 0.95464 0.67396 0.0
N877 N 0.57294 0.96657 0.71391 0.0
C878 C 0.55741 0.98409 0.70728 0.0
C879 C 0.54188 0.97765 0.68555 0.0
C880 C 0.90286 0.2396 0.8162 0.0
C881 C 0.90046 0.25229 0.794 0.0
C882 C 0.92373 0.24516 0.8322 0.0
C883 C 0.94314 0.26357 0.82659 0.0
H884 H 0.88815 0.2257 0.82159 0.0
H885 H 0.92439 0.23515 0.84932 0.0
S886 S 0.94657 0.30068 0.76944 0.0
N887 N 0.9197 0.28293 0.76631 0.0
N888 N 0.95904 0.29357 0.7963 0.0
C889 C 0.94128 0.27587 0.80396 0.0
C890 C 0.91991 0.27023 0.78773 0.0
C891 C 0.48562 0.87572 0.45584 0.0
C892 C 0.46833 0.87324 0.47547 0.0
C893 C 0.48906 0.85544 0.43879 0.0
C894 C 0.47547 0.83178 0.44083 0.0
H895 H 0.49638 0.89361 0.45345 0.0
H896 H 0.50252 0.8584 0.42391 0.0
S897 S 0.42856 0.81541 0.48985 0.0
N898 N 0.43799 0.84533 0.49661 0.0
N899 N 0.44427 0.80709 0.46464 0.0
C900 C 0.45826 0.82903 0.46064 0.0
C901 C 0.45471 0.84978 0.47791 0.0
C902 C 0.10672 0.29972 0.80077 0.0
C903 C 0.12419 0.28429 0.8103 0.0
C904 C 0.08367 0.30235 0.81251 0.0
C905 C 0.07701 0.28945 0.83417 0.0
H906 H 0.11106 0.31022 0.78427 0.0
H907 H 0.07096 0.31457 0.8044 0.0
S908 S 0.11608 0.24616 0.86627 0.0
N909 N 0.13337 0.25565 0.84243 0.0
N910 N 0.08981 0.26034 0.86454 0.0
C911 C 0.09425 0.27372 0.84381 0.0
C912 C 0.11792 0.27125 0.83191 0.0
C913 C 0.48853 0.66393 0.45897 0.0
C914 C 0.51324 0.6651 0.46844 0.0
C915 C 0.48086 0.68259 0.44381 0.0
C916 C 0.49779 0.70282 0.43716 0.0
H917 H 0.47482 0.64887 0.46396 0.0
H918 H 0.46144 0.68127 0.43745 0.0
S919 S 0.56506 0.71355 0.45616 0.0
N920 N 0.55486 0.68747 0.46968 0.0
N921 N 0.5407 0.72234 0.44056 0.0
C922 C 0.52284 0.70369 0.44583 0.0
C923 C 0.53049 0.68491 0.46169 0.0
C924 C 0.9022 0.8273 0.70378 0.0
C925 C 0.89988 0.8154 0.72665 0.0
C926 C 0.92202 0.823 0.68747 0.0
C927 C 0.94032 0.80662 0.69338 0.0
H928 H 0.88841 0.83982 0.69831 0.0
H929 H 0.92269 0.83226 0.66987 0.0
S930 S 0.94272 0.77094 0.75122 0.0
N931 N 0.91748 0.78663 0.7545 0.0
N932 N 0.955 0.77884 0.72415 0.0
C933 C 0.93858 0.79514 0.71658 0.0
C934 C 0.9183 0.79945 0.73312 0.0
C935 C 0.99547 0.88323 0.55576 0.0
C936 C 0.01667 0.88039 0.54059 0.0
C937 C 0.9882 0.86577 0.57359 0.0
C938 C 0.00224 0.8452 0.57747 0.0
H939 H 0.98431 0.89909 0.5539 0.0
H940 H 0.9715 0.86846 0.58452 0.0
S941 S 0.05865 0.82832 0.54252 0.0
N942 N 0.05095 0.85439 0.53011 0.0
N943 N 0.03796 0.82247 0.5648 0.0
C944 C 0.02369 0.84224 0.56294 0.0
C945 C 0.03076 0.85963 0.54424 0.0
C946 C 0.10013 0.75776 0.71265 0.0
C947 C 0.12096 0.7727 0.70405 0.0
C948 C 0.07602 0.75936 0.70282 0.0
C949 C 0.07162 0.77596 0.68392 0.0
H950 H 0.10242 0.74485 0.72736 0.0
H951 H 0.06072 0.74733 0.7102 0.0
S952 S 0.11999 0.81909 0.65471 0.0
N953 N 0.13586 0.80456 0.67545 0.0
N954 N 0.09033 0.80771 0.65688 0.0
C955 C 0.09229 0.79116 0.67516 0.0
C956 C 0.11698 0.78953 0.68528 0.0
C957 C 0.95633 0.68924 0.56636 0.0
C958 C 0.96727 0.6678 0.57404 0.0
C959 C 0.96068 0.71251 0.5798 0.0
C960 C 0.97624 0.71525 0.60139 0.0
H961 H 0.94426 0.688 0.54985 0.0
H962 H 0.95184 0.72847 0.57307 0.0
S963 S 0.00989 0.66464 0.62876 0.0
N964 N 0.99465 0.65064 0.60411 0.0
N965 N 0.00279 0.69422 0.62963 0.0
C966 C 0.98724 0.6938 0.60928 0.0
C967 C 0.98275 0.67012 0.59556 0.0
C968 C 0.80515 0.93086 0.23978 0.0
C969 C 0.78871 0.92516 0.25953 0.0
C970 C 0.81971 0.95396 0.23979 0.0
C971 C 0.81855 0.97232 0.25964 0.0
H972 H 0.80706 0.91715 0.22432 0.0
H973 H 0.83254 0.95707 0.22438 0.0
S974 S 0.77722 0.967 0.31526 0.0
N975 N 0.77115 0.93993 0.29894 0.0
N976 N 0.7984 0.98356 0.29905 0.0
C977 C 0.80135 0.96723 0.27907 0.0
C978 C 0.78647 0.94362 0.27899 0.0
C979 C 0.8159 0.14199 0.29393 0.0
C980 C 0.80938 0.14993 0.27022 0.0
C981 C 0.82846 0.12019 0.29628 0.0
C982 C 0.83533 0.10569 0.27501 0.0
H983 H 0.81058 0.15231 0.31083 0.0
H984 H 0.83257 0.11454 0.31498 0.0
S985 S 0.82379 0.1194 0.20859 0.0
N986 N 0.81142 0.14231 0.22505 0.0
N987 N 0.83543 0.10146 0.22934 0.0
C988 C 0.82962 0.11391 0.25113 0.0
C989 C 0.81648 0.13596 0.24877 0.0
C990 C 0.33544 0.97578 0.01091 0.0
C991 C 0.35606 0.96721 0.02344 0.0
C992 C 0.31175 0.96236 0.0109 0.0
C993 C 0.30776 0.9397 0.02331 0.0
H994 H 0.33769 0.99297 0.00087 0.0
H995 H 0.29658 0.96962 0.00064 0.0
S996 S 0.35583 0.90963 0.05948 0.0
N997 N 0.37115 0.93511 0.04895 0.0
N998 N 0.32658 0.90974 0.04919 0.0
C999 C 0.32822 0.93121 0.03641 0.0
C1000 C 0.35235 0.94501 0.03644 0.0
C1001 C 0.20909 0.4396 0.32268 0.0
C1002 C 0.2054 0.4187 0.3055 0.0
C1003 C 0.19238 0.45845 0.32367 0.0
C1004 C 0.17137 0.4573 0.30736 0.0
H1005 H 0.22497 0.44132 0.33562 0.0
H1006 H 0.19619 0.47419 0.33724 0.0
S1007 S 0.15353 0.40639 0.25867 0.0
N1008 N 0.1794 0.39778 0.27173 0.0
N1009 N 0.14786 0.43331 0.27344 0.0
C1010 C 0.16742 0.4364 0.29008 0.0
C1011 C 0.18443 0.41706 0.28921 0.0
C1012 C 0.17748 0.06151 0.47362 0.0
C1013 C 0.1537 0.06694 0.48247 0.0
C1014 C 0.19872 0.0784 0.47845 0.0
C1015 C 0.19701 0.10147 0.49224 0.0
H1016 H 0.17972 0.04397 0.46299 0.0
H1017 H 0.2166 0.07329 0.47117 0.0
S1018 S 0.13859 0.12475 0.51895 0.0
N1019 N 0.12934 0.09701 0.50517 0.0
N1020 N 0.16923 0.12884 0.5145 0.0
C1021 C 0.17322 0.10709 0.50123 0.0
C1022 C 0.1516 0.08981 0.49631 0.0
C1023 C 0.67671 0.11574 0.75115 0.0
C1024 C 0.69969 0.12138 0.76412 0.0
C1025 C 0.66016 0.09518 0.75715 0.0
C1026 C 0.66595 0.07938 0.77633 0.0
H1027 H 0.67159 0.12712 0.73597 0.0
H1028 H 0.64279 0.09156 0.74642 0.0
S1029 S 0.72324 0.08706 0.81696 0.0
N1030 N 0.72698 0.11035 0.79776 0.0
N1031 N 0.69608 0.07142 0.80889 0.0
C1032 C 0.68883 0.08497 0.78962 0.0
C1033 C 0.70564 0.10601 0.78354 0.0
C1034 C 0.35441 0.06364 0.50666 0.0
C1035 C 0.36619 0.0682 0.53031 0.0
C1036 C 0.33601 0.07869 0.49867 0.0
C1037 C 0.32845 0.09892 0.51402 0.0
H1038 H 0.35912 0.04798 0.49431 0.0
H1039 H 0.3274 0.07409 0.48036 0.0
S1040 S 0.35438 0.11965 0.57724 0.0
N1041 N 0.36981 0.09507 0.56868 0.0
N1042 N 0.33478 0.12321 0.55384 0.0
C1043 C 0.34022 0.10391 0.53768 0.0
C1044 C 0.35914 0.08857 0.54579 0.0
C1045 C 0.63593 0.47973 0.50884 0.0
C1046 C 0.62137 0.47759 0.53058 0.0
C1047 C 0.65426 0.46314 0.50314 0.0
C1048 C 0.65891 0.44367 0.51897 0.0
H1049 H 0.6335 0.49472 0.49631 0.0
H1050 H 0.66515 0.46594 0.4863 0.0
S1051 S 0.62474 0.42898 0.5775 0.0
N1052 N 0.61184 0.45374 0.56745 0.0
N1053 N 0.64664 0.42264 0.55695 0.0
C1054 C 0.64419 0.44102 0.54062 0.0
C1055 C 0.62539 0.45796 0.54639 0.0
C1056 C 0.73403 0.30829 0.42018 0.0
C1057 C 0.71724 0.31284 0.40085 0.0
C1058 C 0.73384 0.32162 0.44349 0.0
C1059 C 0.71691 0.34013 0.44838 0.0
H1060 H 0.74803 0.29492 0.41701 0.0
H1061 H 0.74773 0.31796 0.45744 0.0
S1062 S 0.66691 0.35673 0.40497 0.0
N1063 N 0.68158 0.33524 0.38883 0.0
N1064 N 0.68139 0.36065 0.43254 0.0
C1065 C 0.69926 0.34406 0.42954 0.0
C1066 C 0.69941 0.33037 0.40581 0.0
C1067 C 0.56728 0.01379 0.90011 0.0
C1068 C 0.5443 0.0248 0.90098 0.0
C1069 C 0.58063 0.01187 0.8777 0.0
C1070 C 0.57143 0.02077 0.85527 0.0
H1071 H 0.57529 0.00719 0.91702 0.0
H1072 H 0.59849 0.00365 0.87812 0.0
S1073 S 0.51075 0.04912 0.84749 0.0
N1074 N 0.51196 0.04321 0.87751 0.0
N1075 N 0.53694 0.03973 0.83529 0.0
C1076 C 0.54799 0.03114 0.85583 0.0
C1077 C 0.53448 0.03314 0.8787 0.0
C1078 C 0.26589 0.24052 0.42787 0.0
C1079 C 0.28313 0.23702 0.4085 0.0
C1080 C 0.26305 0.22373 0.44715 0.0
C1081 C 0.27718 0.20259 0.44771 0.0
H1082 H 0.25454 0.25645 0.42818 0.0
H1083 H 0.24934 0.22722 0.46152 0.0
S1084 S 0.32492 0.18507 0.40104 0.0
N1085 N 0.31456 0.21104 0.39082 0.0
N1086 N 0.30936 0.17936 0.42706 0.0
C1087 C 0.29468 0.199 0.42846 0.0
C1088 C 0.29763 0.21624 0.40888 0.0
C1089 C 0.46498 0.54021 0.8642 0.0
C1090 C 0.45662 0.52742 0.88544 0.0
C1091 C 0.44815 0.54549 0.84531 0.0
C1092 C 0.42223 0.53871 0.84718 0.0
H1093 H 0.48481 0.54574 0.86186 0.0
H1094 H 0.45555 0.55457 0.82889 0.0
S1095 S 0.39041 0.50522 0.8989 0.0
N1096 N 0.42048 0.50805 0.90705 0.0
N1097 N 0.38878 0.51904 0.87203 0.0
C1098 C 0.4134 0.52688 0.86873 0.0
C1099 C 0.43059 0.52101 0.88776 0.0
C1100 C 0.75891 0.71518 0.12767 0.0
C1101 C 0.74008 0.73175 0.13197 0.0
C1102 C 0.76155 0.70298 0.10396 0.0
C1103 C 0.74528 0.70675 0.08384 0.0
H1104 H 0.772 0.71206 0.14259 0.0
H1105 H 0.77651 0.69059 0.1014 0.0
S1106 S 0.69175 0.74716 0.08633 0.0
N1107 N 0.70421 0.75043 0.11484 0.0
N1108 N 0.70894 0.72768 0.07039 0.0
C1109 C 0.72599 0.72291 0.08822 0.0
C1110 C 0.72345 0.73536 0.11225 0.0
C1111 C 0.95145 0.07159 0.16964 0.0
C1112 C 0.95089 0.05653 0.14706 0.0
C1113 C 0.9354 0.06529 0.1895 0.0
C1114 C 0.91857 0.04351 0.18761 0.0
H1115 H 0.9651 0.08776 0.17243 0.0
H1116 H 0.93713 0.07678 0.2069 0.0
S1117 S 0.90671 5e-05 0.13148 0.0
N1118 N 0.92939 0.02082 0.12298 0.0
N1119 N 0.90032 0.00833 0.16085 0.0
C1120 C 0.9169 0.029 0.16486 0.0
C1121 C 0.93279 0.03568 0.14445 0.0
C1122 C 0.25677 0.79943 0.10358 0.0
C1123 C 0.24581 0.80662 0.12641 0.0
C1124 C 0.25563 0.81409 0.0827 0.0
C1125 C 0.24327 0.83642 0.08373 0.0
H1126 H 0.26695 0.78269 0.10202 0.0
H1127 H 0.26482 0.80795 0.06569 0.0
S1128 S 0.21018 0.86264 0.13883 0.0
N1129 N 0.22128 0.83685 0.14871 0.0
N1130 N 0.21895 0.86449 0.1093 0.0
C1131 C 0.23153 0.84345 0.10625 0.0
C1132 C 0.23292 0.82857 0.12766 0.0
C1133 C 0.02179 0.51331 0.18884 0.0
C1134 C 0.02565 0.49185 0.17341 0.0
C1135 C 0.03546 0.51884 0.21117 0.0
C1136 C 0.0536 0.50314 0.21906 0.0
H1137 H 0.00858 0.52639 0.18327 0.0
H1138 H 0.032 0.53589 0.22208 0.0
S1139 S 0.06943 0.44348 0.1862 0.0
N1140 N 0.04778 0.45394 0.1681 0.0
N1141 N 0.07376 0.4644 0.21015 0.0
C1142 C 0.05718 0.48117 0.20414 0.0
C1143 C 0.04319 0.47555 0.18128 0.0
C1144 C 0.39092 0.73467 0.31881 0.0
C1145 C 0.38977 0.7492 0.29767 0.0
C1146 C 0.4111 0.7386 0.33588 0.0
C1147 C 0.43102 0.75718 0.33247 0.0
H1148 H 0.37573 0.72059 0.32258 0.0
H1149 H 0.41076 0.72723 0.35214 0.0
S1150 S 0.43782 0.79875 0.27867 0.0
N1151 N 0.41082 0.78171 0.27323 0.0
N1152 N 0.44887 0.78929 0.30525 0.0
C1153 C 0.43045 0.77131 0.31087 0.0
C1154 C 0.40979 0.76731 0.29353 0.0
C1155 C 0.97177 0.36595 0.96207 0.0
C1156 C 0.98571 0.38929 0.95992 0.0
C1157 C 0.97565 0.34526 0.94574 0.0
C1158 C 0.99346 0.34715 0.92641 0.0
H1159 H 0.95795 0.36355 0.97674 0.0
H1160 H 0.96441 0.32769 0.94827 0.0
S1161 S 0.0344 0.4046 0.91258 0.0
N1162 N 0.01771 0.41345 0.93693 0.0
N1163 N 0.02508 0.3746 0.90604 0.0
C1164 C 0.00744 0.37054 0.92397 0.0
C1165 C 0.00358 0.39157 0.94078 0.0
C1166 C 0.59144 0.79831 0.31119 0.0
C1167 C 0.6096 0.78274 0.31908 0.0
C1168 C 0.56871 0.79966 0.32386 0.0
C1169 C 0.56307 0.78528 0.34479 0.0
H1170 H 0.59495 0.80978 0.2952 0.0
H1171 H 0.55536 0.81195 0.31695 0.0
S1172 S 0.60443 0.74141 0.37286 0.0
N1173 N 0.62068 0.75267 0.34907 0.0
N1174 N 0.57768 0.75491 0.37289 0.0
C1175 C 0.58107 0.76953 0.35288 0.0
C1176 C 0.60443 0.76839 0.34007 0.0
C1177 C 0.00015 0.18932 0.96942 0.0
C1178 C 0.02366 0.17942 0.96745 0.0
C1179 C 0.99325 0.20755 0.95339 0.0
C1180 C 0.00966 0.21681 0.93479 0.0
H1181 H 0.98682 0.18273 0.98336 0.0
H1182 H 0.97489 0.21451 0.95579 0.0
S1183 S 0.07376 0.19726 0.92229 0.0
N1184 N 0.06359 0.18025 0.94575 0.0
N1185 N 0.05072 0.21468 0.9155 0.0
C1186 C 0.03332 0.20707 0.93262 0.0
C1187 C 0.04028 0.18831 0.94893 0.0
C1188 C 0.42197 0.32107 0.23061 0.0
C1189 C 0.39651 0.31479 0.22391 0.0
C1190 C 0.44137 0.31546 0.2142 0.0
C1191 C 0.43601 0.30382 0.1903 0.0
H1192 H 0.42698 0.33032 0.24874 0.0
H1193 H 0.46069 0.32037 0.22022 0.0
S1194 S 0.37282 0.28223 0.16399 0.0
N1195 N 0.36724 0.29497 0.19205 0.0
N1196 N 0.40367 0.28558 0.16085 0.0
C1197 C 0.41073 0.29768 0.18319 0.0
C1198 C 0.39099 0.3029 0.20006 0.0
C1199 C 0.49385 0.37213 0.04894 0.0
C1200 C 0.5171 0.3864 0.05238 0.0
C1201 C 0.48698 0.352 0.06395 0.0
C1202 C 0.50305 0.34533 0.08312 0.0
H1203 H 0.48088 0.37643 0.03436 0.0
H1204 H 0.46881 0.34164 0.06046 0.0
S1205 S 0.56596 0.37725 0.10009 0.0
N1206 N 0.55614 0.39292 0.07654 0.0
N1207 N 0.54336 0.35488 0.10477 0.0
C1208 C 0.52645 0.35946 0.08675 0.0
C1209 C 0.53345 0.38001 0.07137 0.0
C1210 C 0.60122 0.25466 0.21294 0.0
C1211 C 0.62182 0.26917 0.20332 0.0
C1212 C 0.57665 0.25733 0.20493 0.0
C1213 C 0.57154 0.27454 0.18681 0.0
H1214 H 0.60408 0.24129 0.22709 0.0
H1215 H 0.56156 0.24553 0.21296 0.0
S1216 S 0.61904 0.31703 0.15563 0.0
N1217 N 0.63572 0.30142 0.17476 0.0
N1218 N 0.58936 0.30646 0.15947 0.0
C1219 C 0.59199 0.2893 0.17704 0.0
C1220 C 0.61714 0.28664 0.18538 0.0
C1221 C 0.49426 0.1671 0.10474 0.0
C1222 C 0.48082 0.16189 0.08206 0.0
C1223 C 0.49539 0.1911 0.11694 0.0
C1224 C 0.48312 0.21075 0.10689 0.0
H1225 H 0.50447 0.1527 0.1128 0.0
H1226 H 0.50641 0.19435 0.13411 0.0
S1227 S 0.44321 0.20576 0.04918 0.0
N1228 N 0.45339 0.17751 0.05097 0.0
N1229 N 0.45565 0.22273 0.07368 0.0
C1230 C 0.46898 0.20549 0.08455 0.0
C1231 C 0.46781 0.18104 0.0722 0.0
C1232 C 0.30088 0.43903 0.78038 0.0
C1233 C 0.30728 0.42199 0.76092 0.0
C1234 C 0.31367 0.46304 0.78378 0.0
C1235 C 0.33344 0.47098 0.7679 0.0
H1236 H 0.28619 0.43358 0.79344 0.0
H1237 H 0.30832 0.47524 0.79936 0.0
S1238 S 0.35587 0.43423 0.71265 0.0
N1239 N 0.33341 0.41526 0.72445 0.0
N1240 N 0.35778 0.46027 0.73101 0.0
C1241 C 0.33964 0.45431 0.74797 0.0
C1242 C 0.3265 0.42986 0.74447 0.0
C1243 C 0.32126 0.64588 0.77078 0.0
C1244 C 0.29746 0.64888 0.78109 0.0
C1245 C 0.3337 0.62419 0.77466 0.0
C1246 C 0.32296 0.60499 0.7894 0.0
H1247 H 0.33024 0.66033 0.75951 0.0
H1248 H 0.35199 0.62264 0.76631 0.0
S1249 S 0.26108 0.60436 0.82103 0.0
N1250 N 0.26373 0.63121 0.80684 0.0
N1251 N 0.28697 0.59061 0.81435 0.0
C1252 C 0.29916 0.60794 0.79991 0.0
C1253 C 0.28645 0.62983 0.79569 0.0
C1254 C 0.83583 0.44803 0.5257 0.0
C1255 C 0.83632 0.4704 0.51288 0.0
C1256 C 0.81375 0.43192 0.5267 0.0
C1257 C 0.79128 0.43769 0.51508 0.0
H1258 H 0.8528 0.44263 0.53445 0.0
H1259 H 0.81445 0.41464 0.5364 0.0
S1260 S 0.78256 0.4954 0.48092 0.0
N1261 N 0.81246 0.49845 0.48965 0.0
N1262 N 0.77083 0.46832 0.49144 0.0
C1263 C 0.79143 0.46053 0.50288 0.0
C1264 C 0.81399 0.47682 0.50177 0.0
C1265 C 0.68836 0.91829 0.77047 0.0
C1266 C 0.69503 0.90565 0.7917 0.0
C1267 C 0.67312 0.93849 0.77272 0.0
C1268 C 0.66476 0.94703 0.79635 0.0
H1269 H 0.69545 0.91286 0.75217 0.0
H1270 H 0.66893 0.94825 0.75609 0.0
S1271 S 0.67612 0.91945 0.85735 0.0
N1272 N 0.69115 0.90222 0.83674 0.0
N1273 N 0.66308 0.94052 0.84108 0.0
C1274 C 0.67071 0.93404 0.81753 0.0
C1275 C 0.68573 0.91324 0.81517 0.0
C1276 C 0.68466 0.56567 0.97583 0.0
C1277 C 0.66186 0.56939 0.98791 0.0
C1278 C 0.70558 0.58334 0.97926 0.0
C1279 C 0.7044 0.60548 0.99473 0.0
H1280 H 0.68641 0.54884 0.96389 0.0
H1281 H 0.7228 0.57955 0.96968 0.0
S1282 S 0.64818 0.62447 0.02937 0.0
N1283 N 0.63877 0.59706 0.01502 0.0
N1284 N 0.67793 0.63028 0.02167 0.0
C1285 C 0.68145 0.60949 0.00665 0.0
C1286 C 0.66024 0.59144 0.00319 0.0
C1287 C 0.19485 0.61058 0.2814 0.0
C1288 C 0.18857 0.62505 0.26138 0.0
C1289 C 0.17908 0.5897 0.28807 0.0
C1290 C 0.1564 0.58242 0.27493 0.0
H1291 H 0.21206 0.61554 0.29211 0.0
H1292 H 0.1848 0.57921 0.30367 0.0
S1293 S 0.13199 0.61371 0.22023 0.0
N1294 N 0.15867 0.63043 0.22795 0.0
N1295 N 0.12878 0.59133 0.24048 0.0
C1296 C 0.14993 0.5968 0.25478 0.0
C1297 C 0.16605 0.61808 0.24803 0.0
C1298 C 0.8645 0.57423 0.00201 0.0
C1299 C 0.8754 0.57706 0.02617 0.0
C1300 C 0.84553 0.58908 0.99498 0.0
C1301 C 0.83654 0.60739 0.01181 0.0
H1302 H 0.8703 0.55999 0.98853 0.0
H1303 H 0.83759 0.58579 0.97623 0.0
S1304 S 0.86 0.62339 0.0769 0.0
N1305 N 0.87682 0.60042 0.06662 0.0
N1306 N 0.84079 0.62821 0.05355 0.0
C1307 C 0.84757 0.61077 0.03595 0.0
C1308 C 0.86703 0.59561 0.0431 0.0
C1309 C 0.14178 0.97519 0.04168 0.0
C1310 C 0.14053 -0.00292 0.02825 0.0
C1311 C 0.16013 0.95837 0.03631 0.0
C1312 C 0.17793 0.96284 0.01733 0.0
H1313 H 0.12819 0.97081 0.05614 0.0
H1314 H 0.1602 0.94163 0.04696 0.0
S1315 S 0.18394 0.01879 0.97833 0.0
N1316 N 0.15956 0.02323 0.99638 0.0
N1317 N 0.19384 0.99169 0.98603 0.0
C1318 C 0.17714 0.985 0.00414 0.0
C1319 C 0.15851 0.00209 0.00966 0.0
loop_
_geom_bond_atom_site_label_1
_geom_bond_atom_site_label_2
_geom_bond_distance
_geom_bond_site_symmetry_2
_ccdc_geom_bond_type
C0 C1 1.386 . S
C0 C2 1.397 . S
C0 H24 0.931 . S
C1 C0 1.386 . S
C1 C5 1.397 . S
C2 C0 1.397 . S
C2 C3 1.384 . S
C2 H25 0.930 . S
C3 C2 1.384 . S
C3 C4 1.377 . S
C3 C6 1.481 . S
C4 C3 1.377 . S
C4 C5 1.389 . S
C4 H26 0.929 . S
C5 C1 1.397 . S
C5 C4 1.389 . S
C5 H27 0.931 . S
C6 C3 1.481 . S
C6 C7 1.387 . S
C6 C11 1.390 . S
C7 C6 1.387 . S
C7 C8 1.401 . S
C7 H28 0.930 . S
C8 C7 1.401 . S
C8 C9 1.376 . S
C8 C17 1.511 . S
C9 C8 1.376 . S
C9 C10 1.392 . S
C9 H30 0.931 . S
C10 C9 1.392 . S
C10 C11 1.361 . S
C10 C12 1.500 . S
C11 C6 1.390 . S
C11 C10 1.361 . S
C11 H29 0.931 . S
C12 C10 1.500 . S
C12 C13 1.371 . S
C12 C14 1.365 . S
C13 C12 1.371 . S
C13 C23 1.386 . S
C13 H31 0.931 . S
C14 C12 1.365 . S
C14 C15 1.409 . S
C14 H32 0.929 . S
C15 C14 1.409 . S
C15 C16 1.380 . S
C15 H33 0.930 . S
C16 C15 1.380 . S
C16 C23 1.357 . S
C17 C8 1.511 . S
C17 C18 1.341 . S
C17 C19 1.371 . S
C18 C17 1.341 . S
C18 C22 1.394 . S
C18 H34 0.930 . S
C19 C17 1.371 . S
C19 C20 1.392 . S
C19 H35 0.931 . S
C20 C19 1.392 . S
C20 C21 1.331 . S
C20 H38 0.932 . S
C21 C20 1.331 . S
C21 C22 1.336 . S
C22 C18 1.394 . S
C22 C21 1.336 . S
C22 H37 0.929 . S
C23 C13 1.386 . S
C23 C16 1.357 . S
C23 H36 0.928 . S
H24 C0 0.931 . S
H25 C2 0.930 . S
H26 C4 0.929 . S
H27 C5 0.931 . S
H28 C7 0.930 . S
H29 C11 0.931 . S
H30 C9 0.931 . S
H31 C13 0.931 . S
H32 C14 0.929 . S
H33 C15 0.930 . S
H34 C18 0.930 . S
H35 C19 0.931 . S
H36 C23 0.928 . S
H37 C22 0.929 . S
H38 C20 0.932 . S
C39 C40 1.386 . S
C39 C41 1.397 . S
C39 H63 0.931 . S
C40 C39 1.386 . S
C40 C44 1.397 . S
C41 C39 1.397 . S
C41 C42 1.384 . S
C41 H64 0.930 . S
C42 C41 1.384 . S
C42 C43 1.377 . S
C42 C45 1.481 . S
C43 C42 1.377 . S
C43 C44 1.389 . S
C43 H65 0.929 . S
C44 C40 1.397 . S
C44 C43 1.389 . S
C44 H66 0.931 . S
C45 C42 1.481 . S
C45 C46 1.387 . S
C45 C50 1.390 . S
C46 C45 1.387 . S
C46 C47 1.401 . S
C46 H67 0.930 . S
C47 C46 1.401 . S
C47 C48 1.376 . S
C47 C56 1.511 . S
C48 C47 1.376 . S
C48 C49 1.392 . S
C48 H69 0.931 . S
C49 C48 1.392 . S
C49 C50 1.361 . S
C49 C51 1.500 . S
C50 C45 1.390 . S
C50 C49 1.361 . S
C50 H68 0.931 . S
C51 C49 1.500 . S
C51 C52 1.371 . S
C51 C53 1.365 . S
C52 C51 1.371 . S
C52 C62 1.386 . S
C52 H70 0.931 . S
C53 C51 1.365 . S
C53 C54 1.409 . S
C53 H71 0.929 . S
C54 C53 1.409 . S
C54 C55 1.380 . S
C54 H72 0.930 . S
C55 C54 1.380 . S
C55 C62 1.357 . S
C56 C47 1.511 . S
C56 C57 1.341 . S
C56 C58 1.371 . S
C57 C56 1.341 . S
C57 C61 1.394 . S
C57 H73 0.930 . S
C58 C56 1.371 . S
C58 C59 1.392 . S
C58 H74 0.931 . S
C59 C58 1.392 . S
C59 C60 1.331 . S
C59 H77 0.932 . S
C60 C59 1.331 . S
C60 C61 1.336 . S
C61 C57 1.394 . S
C61 C60 1.336 . S
C61 H76 0.929 . S
C62 C52 1.386 . S
C62 C55 1.357 . S
C62 H75 0.928 . S
H63 C39 0.931 . S
H64 C41 0.930 . S
H65 C43 0.929 . S
H66 C44 0.931 . S
H67 C46 0.930 . S
H68 C50 0.931 . S
H69 C48 0.931 . S
H70 C52 0.931 . S
H71 C53 0.929 . S
H72 C54 0.930 . S
H73 C57 0.930 . S
H74 C58 0.931 . S
H75 C62 0.928 . S
H76 C61 0.929 . S
H77 C59 0.932 . S
C78 C79 1.386 . S
C78 C80 1.397 . S
C78 H102 0.931 . S
C79 C78 1.386 . S
C79 C83 1.397 . S
C80 C78 1.397 . S
C80 C81 1.384 . S
C80 H103 0.930 . S
C81 C80 1.384 . S
C81 C82 1.377 . S
C81 C84 1.481 . S
C82 C81 1.377 . S
C82 C83 1.389 . S
C82 H104 0.929 . S
C83 C79 1.397 . S
C83 C82 1.389 . S
C83 H105 0.931 . S
C84 C81 1.481 . S
C84 C85 1.387 . S
C84 C89 1.390 . S
C85 C84 1.387 . S
C85 C86 1.401 . S
C85 H106 0.930 . S
C86 C85 1.401 . S
C86 C87 1.376 . S
C86 C95 1.511 . S
C87 C86 1.376 . S
C87 C88 1.392 . S
C87 H108 0.931 . S
C88 C87 1.392 . S
C88 C89 1.361 . S
C88 C90 1.500 . S
C89 C84 1.390 . S
C89 C88 1.361 . S
C89 H107 0.931 . S
C90 C88 1.500 . S
C90 C91 1.371 . S
C90 C92 1.365 . S
C91 C90 1.371 . S
C91 C101 1.386 . S
C91 H109 0.931 . S
C92 C90 1.365 . S
C92 C93 1.409 . S
C92 H110 0.929 . S
C93 C92 1.409 . S
C93 C94 1.380 . S
C93 H111 0.930 . S
C94 C93 1.380 . S
C94 C101 1.357 . S
C95 C86 1.511 . S
C95 C96 1.341 . S
C95 C97 1.371 . S
C96 C95 1.341 . S
C96 C100 1.394 . S
C96 H112 0.930 . S
C97 C95 1.371 . S
C97 C98 1.392 . S
C97 H113 0.931 . S
C98 C97 1.392 . S
C98 C99 1.331 . S
C98 H116 0.932 . S
C99 C98 1.331 . S
C99 C100 1.336 . S
C100 C96 1.394 . S
C100 C99 1.336 . S
C100 H115 0.929 . S
C101 C91 1.386 . S
C101 C94 1.357 . S
C101 H114 0.928 . S
H102 C78 0.931 . S
H103 C80 0.930 . S
H104 C82 0.929 . S
H105 C83 0.931 . S
H106 C85 0.930 . S
H107 C89 0.931 . S
H108 C87 0.931 . S
H109 C91 0.931 . S
H110 C92 0.929 . S
H111 C93 0.930 . S
H112 C96 0.930 . S
H113 C97 0.931 . S
H114 C101 0.928 . S
H115 C100 0.929 . S
H116 C98 0.932 . S
C117 C118 1.386 . S
C117 C119 1.397 . S
C117 H141 0.931 . S
C118 C117 1.386 . S
C118 C122 1.397 . S
C119 C117 1.397 . S
C119 C120 1.384 . S
C119 H142 0.930 . S
C120 C119 1.384 . S
C120 C121 1.377 . S
C120 C123 1.481 . S
C121 C120 1.377 . S
C121 C122 1.389 . S
C121 H143 0.929 . S
C122 C118 1.397 . S
C122 C121 1.389 . S
C122 H144 0.931 . S
C123 C120 1.481 . S
C123 C124 1.387 . S
C123 C128 1.390 . S
C124 C123 1.387 . S
C124 C125 1.401 . S
C124 H145 0.930 . S
C125 C124 1.401 . S
C125 C126 1.376 . S
C125 C134 1.511 . S
C126 C125 1.376 . S
C126 C127 1.392 . S
C126 H147 0.931 . S
C127 C126 1.392 . S
C127 C128 1.361 . S
C127 C129 1.500 . S
C128 C123 1.390 . S
C128 C127 1.361 . S
C128 H146 0.931 . S
C129 C127 1.500 . S
C129 C130 1.371 . S
C129 C131 1.365 . S
C130 C129 1.371 . S
C130 C140 1.386 . S
C130 H148 0.931 . S
C131 C129 1.365 . S
C131 C132 1.409 . S
C131 H149 0.929 . S
C132 C131 1.409 . S
C132 C133 1.380 . S
C132 H150 0.930 . S
C133 C132 1.380 . S
C133 C140 1.357 . S
C134 C125 1.511 . S
C134 C135 1.341 . S
C134 C136 1.371 . S
C135 C134 1.341 . S
C135 C139 1.394 . S
C135 H151 0.930 . S
C136 C134 1.371 . S
C136 C137 1.392 . S
C136 H152 0.931 . S
C137 C136 1.392 . S
C137 C138 1.331 . S
C137 H155 0.932 . S
C138 C137 1.331 . S
C138 C139 1.336 . S
C139 C135 1.394 . S
C139 C138 1.336 . S
C139 H154 0.929 . S
C140 C130 1.386 . S
C140 C133 1.357 . S
C140 H153 0.928 . S
H141 C117 0.931 . S
H142 C119 0.930 . S
H143 C121 0.929 . S
H144 C122 0.931 . S
H145 C124 0.930 . S
H146 C128 0.931 . S
H147 C126 0.931 . S
H148 C130 0.931 . S
H149 C131 0.929 . S
H150 C132 0.930 . S
H151 C135 0.930 . S
H152 C136 0.931 . S
H153 C140 0.928 . S
H154 C139 0.929 . S
H155 C137 0.932 . S
C156 C157 1.386 . S
C156 C158 1.397 . S
C156 H180 0.931 1_455 S
C157 C156 1.386 . S
C157 C161 1.397 . S
C158 C156 1.397 . S
C158 C159 1.384 . S
C158 H181 0.930 . S
C159 C158 1.384 . S
C159 C160 1.377 . S
C159 C162 1.481 . S
C160 C159 1.377 . S
C160 C161 1.389 . S
C160 H182 0.929 . S
C161 C157 1.397 . S
C161 C160 1.389 . S
C161 H183 0.931 . S
C162 C159 1.481 . S
C162 C163 1.387 . S
C162 C167 1.390 . S
C163 C162 1.387 . S
C163 C164 1.401 . S
C163 H184 0.930 . S
C164 C163 1.401 . S
C164 C165 1.376 . S
C164 C173 1.511 . S
C165 C164 1.376 . S
C165 C166 1.392 . S
C165 H186 0.931 . S
C166 C165 1.392 . S
C166 C167 1.361 . S
C166 C168 1.500 . S
C167 C162 1.390 . S
C167 C166 1.361 . S
C167 H185 0.931 . S
C168 C166 1.500 . S
C168 C169 1.371 . S
C168 C170 1.365 . S
C169 C168 1.371 . S
C169 C179 1.386 1_565 S
C169 H187 0.931 . S
C170 C168 1.365 . S
C170 C171 1.409 1_565 S
C170 H188 0.929 . S
C171 C170 1.409 1_545 S
C171 C172 1.380 . S
C171 H189 0.930 . S
C172 C171 1.380 . S
C172 C179 1.357 . S
C173 C164 1.511 . S
C173 C174 1.341 . S
C173 C175 1.371 . S
C174 C173 1.341 . S
C174 C178 1.394 . S
C174 H190 0.930 . S
C175 C173 1.371 . S
C175 C176 1.392 . S
C175 H191 0.931 . S
C176 C175 1.392 . S
C176 C177 1.331 . S
C176 H194 0.932 . S
C177 C176 1.331 . S
C177 C178 1.336 . S
C178 C174 1.394 . S
C178 C177 1.336 . S
C178 H193 0.929 . S
C179 C169 1.386 1_545 S
C179 C172 1.357 . S
C179 H192 0.928 . S
H180 C156 0.931 1_655 S
H181 C158 0.930 . S
H182 C160 0.929 . S
H183 C161 0.931 . S
H184 C163 0.930 . S
H185 C167 0.931 . S
H186 C165 0.931 . S
H187 C169 0.931 . S
H188 C170 0.929 . S
H189 C171 0.930 . S
H190 C174 0.930 . S
H191 C175 0.931 . S
H192 C179 0.928 . S
H193 C178 0.929 . S
H194 C176 0.932 . S
C195 C196 1.386 . S
C195 C197 1.397 . S
C195 H219 0.931 . S
C196 C195 1.386 . S
C196 C200 1.397 . S
C197 C195 1.397 . S
C197 C198 1.384 . S
C197 H220 0.930 . S
C198 C197 1.384 . S
C198 C199 1.377 . S
C198 C201 1.481 . S
C199 C198 1.377 . S
C199 C200 1.389 . S
C199 H221 0.929 . S
C200 C196 1.397 . S
C200 C199 1.389 . S
C200 H222 0.931 . S
C201 C198 1.481 . S
C201 C202 1.387 . S
C201 C206 1.390 . S
C202 C201 1.387 . S
C202 C203 1.401 . S
C202 H223 0.930 . S
C203 C202 1.401 . S
C203 C204 1.376 . S
C203 C212 1.511 . S
C204 C203 1.376 . S
C204 C205 1.392 . S
C204 H225 0.931 . S
C205 C204 1.392 . S
C205 C206 1.361 . S
C205 C207 1.500 . S
C206 C201 1.390 . S
C206 C205 1.361 . S
C206 H224 0.931 . S
C207 C205 1.500 . S
C207 C208 1.371 . S
C207 C209 1.365 . S
C208 C207 1.371 . S
C208 C218 1.386 . S
C208 H226 0.931 . S
C209 C207 1.365 . S
C209 C210 1.409 . S
C209 H227 0.929 . S
C210 C209 1.409 . S
C210 C211 1.380 . S
C210 H228 0.930 . S
C211 C210 1.380 . S
C211 C218 1.357 . S
C212 C203 1.511 . S
C212 C213 1.341 . S
C212 C214 1.371 . S
C213 C212 1.341 . S
C213 C217 1.394 . S
C213 H229 0.930 . S
C214 C212 1.371 . S
C214 C215 1.392 . S
C214 H230 0.931 . S
C215 C214 1.392 . S
C215 C216 1.331 . S
C215 H233 0.932 . S
C216 C215 1.331 . S
C216 C217 1.336 . S
C217 C213 1.394 . S
C217 C216 1.336 . S
C217 H232 0.929 . S
C218 C208 1.386 . S
C218 C211 1.357 . S
C218 H231 0.928 . S
H219 C195 0.931 . S
H220 C197 0.930 . S
H221 C199 0.929 . S
H222 C200 0.931 . S
H223 C202 0.930 . S
H224 C206 0.931 . S
H225 C204 0.931 . S
H226 C208 0.931 . S
H227 C209 0.929 . S
H228 C210 0.930 . S
H229 C213 0.930 . S
H230 C214 0.931 . S
H231 C218 0.928 . S
H232 C217 0.929 . S
H233 C215 0.932 . S
C234 C235 1.386 . S
C234 C236 1.397 . S
C234 H258 0.931 . S
C235 C234 1.386 . S
C235 C239 1.397 . S
C236 C234 1.397 . S
C236 C237 1.384 . S
C236 H259 0.930 . S
C237 C236 1.384 . S
C237 C238 1.377 . S
C237 C240 1.481 . S
C238 C237 1.377 . S
C238 C239 1.389 . S
C238 H260 0.929 . S
C239 C235 1.397 . S
C239 C238 1.389 . S
C239 H261 0.931 . S
C240 C237 1.481 . S
C240 C241 1.387 . S
C240 C245 1.390 . S
C241 C240 1.387 . S
C241 C242 1.401 . S
C241 H262 0.930 . S
C242 C241 1.401 . S
C242 C243 1.376 . S
C242 C251 1.511 . S
C243 C242 1.376 . S
C243 C244 1.392 . S
C243 H264 0.931 . S
C244 C243 1.392 . S
C244 C245 1.361 . S
C244 C246 1.500 . S
C245 C240 1.390 . S
C245 C244 1.361 . S
C245 H263 0.931 . S
C246 C244 1.500 . S
C246 C247 1.371 . S
C246 C248 1.365 . S
C247 C246 1.371 . S
C247 C257 1.386 . S
C247 H265 0.931 . S
C248 C246 1.365 . S
C248 C249 1.409 . S
C248 H266 0.929 . S
C249 C248 1.409 . S
C249 C250 1.380 . S
C249 H267 0.930 . S
C250 C249 1.380 . S
C250 C257 1.357 . S
C251 C242 1.511 . S
C251 C252 1.341 . S
C251 C253 1.371 . S
C252 C251 1.341 . S
C252 C256 1.394 . S
C252 H268 0.930 . S
C253 C251 1.371 . S
C253 C254 1.392 . S
C253 H269 0.931 . S
C254 C253 1.392 . S
C254 C255 1.331 . S
C254 H272 0.932 . S
C255 C254 1.331 . S
C255 C256 1.336 . S
C256 C252 1.394 . S
C256 C255 1.336 . S
C256 H271 0.929 . S
C257 C247 1.386 . S
C257 C250 1.357 . S
C257 H270 0.928 . S
H258 C234 0.931 . S
H259 C236 0.930 . S
H260 C238 0.929 . S
H261 C239 0.931 . S
H262 C241 0.930 . S
H263 C245 0.931 . S
H264 C243 0.931 . S
H265 C247 0.931 . S
H266 C248 0.929 . S
H267 C249 0.930 . S
H268 C252 0.930 . S
H269 C253 0.931 . S
H270 C257 0.928 . S
H271 C256 0.929 . S
H272 C254 0.932 . S
C273 C274 1.386 . S
C273 C275 1.397 . S
C273 H297 0.931 . S
C274 C273 1.386 . S
C274 C278 1.397 . S
C275 C273 1.397 . S
C275 C276 1.384 . S
C275 H298 0.930 . S
C276 C275 1.384 . S
C276 C277 1.377 . S
C276 C279 1.481 . S
C277 C276 1.377 . S
C277 C278 1.389 . S
C277 H299 0.929 . S
C278 C274 1.397 . S
C278 C277 1.389 . S
C278 H300 0.931 . S
C279 C276 1.481 . S
C279 C280 1.387 . S
C279 C284 1.390 . S
C280 C279 1.387 . S
C280 C281 1.401 . S
C280 H301 0.930 . S
C281 C280 1.401 . S
C281 C282 1.376 . S
C281 C290 1.511 . S
C282 C281 1.376 . S
C282 C283 1.392 . S
C282 H303 0.931 . S
C283 C282 1.392 . S
C283 C284 1.361 . S
C283 C285 1.500 . S
C284 C279 1.390 . S
C284 C283 1.361 . S
C284 H302 0.931 . S
C285 C283 1.500 . S
C285 C286 1.371 . S
C285 C287 1.365 . S
C286 C285 1.371 . S
C286 C296 1.386 . S
C286 H304 0.931 . S
C287 C285 1.365 . S
C287 C288 1.409 . S
C287 H305 0.929 . S
C288 C287 1.409 . S
C288 C289 1.380 . S
C288 H306 0.930 . S
C289 C288 1.380 . S
C289 C296 1.357 . S
C290 C281 1.511 . S
C290 C291 1.341 . S
C290 C292 1.371 . S
C291 C290 1.341 . S
C291 C295 1.394 . S
C291 H307 0.930 . S
C292 C290 1.371 . S
C292 C293 1.392 . S
C292 H308 0.931 . S
C293 C292 1.392 . S
C293 C294 1.331 . S
C293 H311 0.932 . S
C294 C293 1.331 . S
C294 C295 1.336 . S
C295 C291 1.394 . S
C295 C294 1.336 . S
C295 H310 0.929 . S
C296 C286 1.386 . S
C296 C289 1.357 . S
C296 H309 0.928 . S
H297 C273 0.931 . S
H298 C275 0.930 . S
H299 C277 0.929 . S
H300 C278 0.931 . S
H301 C280 0.930 . S
H302 C284 0.931 . S
H303 C282 0.931 . S
H304 C286 0.931 . S
H305 C287 0.929 . S
H306 C288 0.930 . S
H307 C291 0.930 . S
H308 C292 0.931 . S
H309 C296 0.928 . S
H310 C295 0.929 . S
H311 C293 0.932 . S
C312 C313 1.386 . S
C312 C314 1.397 . S
C312 H336 0.931 . S
C313 C312 1.386 . S
C313 C317 1.397 . S
C314 C312 1.397 . S
C314 C315 1.384 . S
C314 H337 0.930 . S
C315 C314 1.384 . S
C315 C316 1.377 . S
C315 C318 1.481 . S
C316 C315 1.377 . S
C316 C317 1.389 . S
C316 H338 0.929 . S
C317 C313 1.397 . S
C317 C316 1.389 . S
C317 H339 0.931 . S
C318 C315 1.481 . S
C318 C319 1.387 . S
C318 C323 1.390 . S
C319 C318 1.387 . S
C319 C320 1.401 . S
C319 H340 0.930 . S
C320 C319 1.401 . S
C320 C321 1.376 . S
C320 C329 1.511 . S
C321 C320 1.376 . S
C321 C322 1.392 . S
C321 H342 0.931 . S
C322 C321 1.392 . S
C322 C323 1.361 . S
C322 C324 1.500 . S
C323 C318 1.390 . S
C323 C322 1.361 . S
C323 H341 0.931 . S
C324 C322 1.500 . S
C324 C325 1.371 . S
C324 C326 1.365 . S
C325 C324 1.371 . S
C325 C335 1.386 . S
C325 H343 0.931 . S
C326 C324 1.365 . S
C326 C327 1.409 . S
C326 H344 0.929 . S
C327 C326 1.409 . S
C327 C328 1.380 . S
C327 H345 0.930 . S
C328 C327 1.380 . S
C328 C335 1.357 . S
C329 C320 1.511 . S
C329 C330 1.341 . S
C329 C331 1.371 . S
C330 C329 1.341 . S
C330 C334 1.394 . S
C330 H346 0.930 . S
C331 C329 1.371 . S
C331 C332 1.392 . S
C331 H347 0.931 . S
C332 C331 1.392 . S
C332 C333 1.331 . S
C332 H350 0.932 . S
C333 C332 1.331 . S
C333 C334 1.336 . S
C334 C330 1.394 . S
C334 C333 1.336 . S
C334 H349 0.929 . S
C335 C325 1.386 . S
C335 C328 1.357 . S
C335 H348 0.928 . S
H336 C312 0.931 . S
H337 C314 0.930 . S
H338 C316 0.929 . S
H339 C317 0.931 . S
H340 C319 0.930 . S
H341 C323 0.931 . S
H342 C321 0.931 . S
H343 C325 0.931 . S
H344 C326 0.929 . S
H345 C327 0.930 . S
H346 C330 0.930 . S
H347 C331 0.931 . S
H348 C335 0.928 . S
H349 C334 0.929 . S
H350 C332 0.932 . S
C351 C352 1.386 . S
C351 C353 1.397 . S
C351 H375 0.931 . S
C352 C351 1.386 . S
C352 C356 1.397 . S
C353 C351 1.397 . S
C353 C354 1.384 . S
C353 H376 0.930 . S
C354 C353 1.384 . S
C354 C355 1.377 . S
C354 C357 1.481 . S
C355 C354 1.377 . S
C355 C356 1.389 . S
C355 H377 0.929 . S
C356 C352 1.397 . S
C356 C355 1.389 . S
C356 H378 0.931 . S
C357 C354 1.481 . S
C357 C358 1.387 . S
C357 C362 1.390 . S
C358 C357 1.387 . S
C358 C359 1.401 . S
C358 H379 0.930 . S
C359 C358 1.401 . S
C359 C360 1.376 . S
C359 C368 1.511 . S
C360 C359 1.376 . S
C360 C361 1.392 . S
C360 H381 0.931 . S
C361 C360 1.392 . S
C361 C362 1.361 . S
C361 C363 1.500 . S
C362 C357 1.390 . S
C362 C361 1.361 . S
C362 H380 0.931 . S
C363 C361 1.500 . S
C363 C364 1.371 . S
C363 C365 1.365 . S
C364 C363 1.371 . S
C364 C374 1.386 . S
C364 H382 0.931 . S
C365 C363 1.365 . S
C365 C366 1.409 . S
C365 H383 0.929 . S
C366 C365 1.409 . S
C366 C367 1.380 . S
C366 H384 0.930 . S
C367 C366 1.380 . S
C367 C374 1.357 . S
C368 C359 1.511 . S
C368 C369 1.341 . S
C368 C370 1.371 . S
C369 C368 1.341 . S
C369 C373 1.394 . S
C369 H385 0.930 . S
C370 C368 1.371 . S
C370 C371 1.392 . S
C370 H386 0.931 . S
C371 C370 1.392 . S
C371 C372 1.331 . S
C371 H389 0.932 . S
C372 C371 1.331 . S
C372 C373 1.336 . S
C373 C369 1.394 . S
C373 C372 1.336 . S
C373 H388 0.929 1_565 S
C374 C364 1.386 . S
C374 C367 1.357 . S
C374 H387 0.928 . S
H375 C351 0.931 . S
H376 C353 0.930 . S
H377 C355 0.929 . S
H378 C356 0.931 . S
H379 C358 0.930 . S
H380 C362 0.931 . S
H381 C360 0.931 . S
H382 C364 0.931 . S
H383 C365 0.929 . S
H384 C366 0.930 . S
H385 C369 0.930 . S
H386 C370 0.931 . S
H387 C374 0.928 . S
H388 C373 0.929 1_545 S
H389 C371 0.932 . S
C390 C391 1.386 . S
C390 C392 1.397 . S
C390 H414 0.931 . S
C391 C390 1.386 . S
C391 C395 1.397 . S
C392 C390 1.397 . S
C392 C393 1.384 . S
C392 H415 0.930 . S
C393 C392 1.384 . S
C393 C394 1.377 . S
C393 C396 1.481 . S
C394 C393 1.377 . S
C394 C395 1.389 . S
C394 H416 0.929 . S
C395 C391 1.397 . S
C395 C394 1.389 . S
C395 H417 0.931 . S
C396 C393 1.481 . S
C396 C397 1.387 . S
C396 C401 1.390 . S
C397 C396 1.387 . S
C397 C398 1.401 . S
C397 H418 0.930 . S
C398 C397 1.401 . S
C398 C399 1.376 . S
C398 C407 1.511 . S
C399 C398 1.376 . S
C399 C400 1.392 . S
C399 H420 0.931 . S
C400 C399 1.392 . S
C400 C401 1.361 . S
C400 C402 1.500 . S
C401 C396 1.390 . S
C401 C400 1.361 . S
C401 H419 0.931 . S
C402 C400 1.500 . S
C402 C403 1.371 . S
C402 C404 1.365 . S
C403 C402 1.371 . S
C403 C413 1.386 . S
C403 H421 0.931 . S
C404 C402 1.365 . S
C404 C405 1.409 . S
C404 H422 0.929 . S
C405 C404 1.409 . S
C405 C406 1.380 . S
C405 H423 0.930 . S
C406 C405 1.380 . S
C406 C413 1.357 . S
C407 C398 1.511 . S
C407 C408 1.341 . S
C407 C409 1.371 . S
C408 C407 1.341 . S
C408 C412 1.394 . S
C408 H424 0.930 . S
C409 C407 1.371 . S
C409 C410 1.392 . S
C409 H425 0.931 . S
C410 C409 1.392 . S
C410 C411 1.331 . S
C410 H428 0.932 . S
C411 C410 1.331 . S
C411 C412 1.336 . S
C412 C408 1.394 . S
C412 C411 1.336 . S
C412 H427 0.929 . S
C413 C403 1.386 . S
C413 C406 1.357 . S
C413 H426 0.928 . S
H414 C390 0.931 . S
H415 C392 0.930 . S
H416 C394 0.929 . S
H417 C395 0.931 . S
H418 C397 0.930 . S
H419 C401 0.931 . S
H420 C399 0.931 . S
H421 C403 0.931 . S
H422 C404 0.929 . S
H423 C405 0.930 . S
H424 C408 0.930 . S
H425 C409 0.931 . S
H426 C413 0.928 . S
H427 C412 0.929 . S
H428 C410 0.932 . S
C429 C430 1.386 . S
C429 C431 1.397 . S
C429 H453 0.931 . S
C430 C429 1.386 . S
C430 C434 1.397 . S
C431 C429 1.397 . S
C431 C432 1.384 . S
C431 H454 0.930 . S
C432 C431 1.384 . S
C432 C433 1.377 . S
C432 C435 1.481 . S
C433 C432 1.377 . S
C433 C434 1.389 . S
C433 H455 0.929 . S
C434 C430 1.397 . S
C434 C433 1.389 . S
C434 H456 0.931 . S
C435 C432 1.481 . S
C435 C436 1.387 . S
C435 C440 1.390 . S
C436 C435 1.387 . S
C436 C437 1.401 . S
C436 H457 0.930 . S
C437 C436 1.401 . S
C437 C438 1.376 . S
C437 C446 1.511 . S
C438 C437 1.376 . S
C438 C439 1.392 . S
C438 H459 0.931 . S
C439 C438 1.392 . S
C439 C440 1.361 . S
C439 C441 1.500 . S
C440 C435 1.390 . S
C440 C439 1.361 . S
C440 H458 0.931 . S
C441 C439 1.500 . S
C441 C442 1.371 . S
C441 C443 1.365 . S
C442 C441 1.371 . S
C442 C452 1.386 . S
C442 H460 0.931 . S
C443 C441 1.365 . S
C443 C444 1.409 . S
C443 H461 0.929 . S
C444 C443 1.409 . S
C444 C445 1.380 . S
C444 H462 0.930 . S
C445 C444 1.380 . S
C445 C452 1.357 . S
C446 C437 1.511 . S
C446 C447 1.341 . S
C446 C448 1.371 . S
C447 C446 1.341 . S
C447 C451 1.394 . S
C447 H463 0.930 . S
C448 C446 1.371 . S
C448 C449 1.392 . S
C448 H464 0.931 . S
C449 C448 1.392 . S
C449 C450 1.331 . S
C449 H467 0.932 . S
C450 C449 1.331 . S
C450 C451 1.336 . S
C451 C447 1.394 . S
C451 C450 1.336 . S
C451 H466 0.929 . S
C452 C442 1.386 . S
C452 C445 1.357 . S
C452 H465 0.928 . S
H453 C429 0.931 . S
H454 C431 0.930 . S
H455 C433 0.929 . S
H456 C434 0.931 . S
H457 C436 0.930 . S
H458 C440 0.931 . S
H459 C438 0.931 . S
H460 C442 0.931 . S
H461 C443 0.929 . S
H462 C444 0.930 . S
H463 C447 0.930 . S
H464 C448 0.931 . S
H465 C452 0.928 . S
H466 C451 0.929 . S
H467 C449 0.932 . S
C468 C469 1.386 . S
C468 C470 1.397 . S
C468 H492 0.931 . S
C469 C468 1.386 . S
C469 C473 1.397 . S
C470 C468 1.397 . S
C470 C471 1.384 . S
C470 H493 0.930 . S
C471 C470 1.384 . S
C471 C472 1.377 . S
C471 C474 1.481 . S
C472 C471 1.377 . S
C472 C473 1.389 . S
C472 H494 0.929 . S
C473 C469 1.397 . S
C473 C472 1.389 . S
C473 H495 0.931 . S
C474 C471 1.481 . S
C474 C475 1.387 . S
C474 C479 1.390 . S
C475 C474 1.387 . S
C475 C476 1.401 . S
C475 H496 0.930 . S
C476 C475 1.401 . S
C476 C477 1.376 . S
C476 C485 1.511 . S
C477 C476 1.376 . S
C477 C478 1.392 . S
C477 H498 0.931 . S
C478 C477 1.392 . S
C478 C479 1.361 . S
C478 C480 1.500 . S
C479 C474 1.390 . S
C479 C478 1.361 . S
C479 H497 0.931 . S
C480 C478 1.500 . S
C480 C481 1.371 . S
C480 C482 1.365 . S
C481 C480 1.371 . S
C481 C491 1.386 . S
C481 H499 0.931 . S
C482 C480 1.365 . S
C482 C483 1.409 . S
C482 H500 0.929 . S
C483 C482 1.409 . S
C483 C484 1.380 . S
C483 H501 0.930 . S
C484 C483 1.380 . S
C484 C491 1.357 . S
C485 C476 1.511 . S
C485 C486 1.341 . S
C485 C487 1.371 . S
C486 C485 1.341 . S
C486 C490 1.394 . S
C486 H502 0.930 . S
C487 C485 1.371 . S
C487 C488 1.392 . S
C487 H503 0.931 . S
C488 C487 1.392 . S
C488 C489 1.331 . S
C488 H506 0.932 . S
C489 C488 1.331 . S
C489 C490 1.336 . S
C490 C486 1.394 . S
C490 C489 1.336 . S
C490 H505 0.929 . S
C491 C481 1.386 . S
C491 C484 1.357 . S
C491 H504 0.928 . S
H492 C468 0.931 . S
H493 C470 0.930 . S
H494 C472 0.929 . S
H495 C473 0.931 . S
H496 C475 0.930 . S
H497 C479 0.931 . S
H498 C477 0.931 . S
H499 C481 0.931 . S
H500 C482 0.929 . S
H501 C483 0.930 . S
H502 C486 0.930 . S
H503 C487 0.931 . S
H504 C491 0.928 . S
H505 C490 0.929 . S
H506 C488 0.932 . S
C507 C508 1.386 . S
C507 C509 1.397 . S
C507 H531 0.931 . S
C508 C507 1.386 . S
C508 C512 1.397 . S
C509 C507 1.397 . S
C509 C510 1.384 . S
C509 H532 0.930 . S
C510 C509 1.384 . S
C510 C511 1.377 . S
C510 C513 1.481 . S
C511 C510 1.377 . S
C511 C512 1.389 . S
C511 H533 0.929 . S
C512 C508 1.397 . S
C512 C511 1.389 . S
C512 H534 0.931 . S
C513 C510 1.481 . S
C513 C514 1.387 . S
C513 C518 1.390 . S
C514 C513 1.387 . S
C514 C515 1.401 . S
C514 H535 0.930 . S
C515 C514 1.401 . S
C515 C516 1.376 . S
C515 C524 1.511 . S
C516 C515 1.376 . S
C516 C517 1.392 . S
C516 H537 0.931 . S
C517 C516 1.392 . S
C517 C518 1.361 . S
C517 C519 1.500 . S
C518 C513 1.390 . S
C518 C517 1.361 . S
C518 H536 0.931 . S
C519 C517 1.500 . S
C519 C520 1.371 . S
C519 C521 1.365 . S
C520 C519 1.371 . S
C520 C530 1.386 . S
C520 H538 0.931 . S
C521 C519 1.365 . S
C521 C522 1.409 . S
C521 H539 0.929 . S
C522 C521 1.409 . S
C522 C523 1.380 . S
C522 H540 0.930 . S
C523 C522 1.380 . S
C523 C530 1.357 . S
C524 C515 1.511 . S
C524 C525 1.341 . S
C524 C526 1.371 . S
C525 C524 1.341 . S
C525 C529 1.394 . S
C525 H541 0.930 . S
C526 C524 1.371 . S
C526 C527 1.392 . S
C526 H542 0.931 . S
C527 C526 1.392 . S
C527 C528 1.331 . S
C527 H545 0.932 . S
C528 C527 1.331 . S
C528 C529 1.336 . S
C529 C525 1.394 . S
C529 C528 1.336 . S
C529 H544 0.929 . S
C530 C520 1.386 . S
C530 C523 1.357 . S
C530 H543 0.928 . S
H531 C507 0.931 . S
H532 C509 0.930 . S
H533 C511 0.929 . S
H534 C512 0.931 . S
H535 C514 0.930 . S
H536 C518 0.931 . S
H537 C516 0.931 . S
H538 C520 0.931 . S
H539 C521 0.929 . S
H540 C522 0.930 . S
H541 C525 0.930 . S
H542 C526 0.931 . S
H543 C530 0.928 . S
H544 C529 0.929 . S
H545 C527 0.932 . S
C546 C547 1.386 . S
C546 C548 1.397 . S
C546 H570 0.931 . S
C547 C546 1.386 . S
C547 C551 1.397 . S
C548 C546 1.397 . S
C548 C549 1.384 . S
C548 H571 0.930 . S
C549 C548 1.384 . S
C549 C550 1.377 . S
C549 C552 1.481 . S
C550 C549 1.377 . S
C550 C551 1.389 . S
C550 H572 0.929 . S
C551 C547 1.397 . S
C551 C550 1.389 . S
C551 H573 0.931 . S
C552 C549 1.481 . S
C552 C553 1.387 . S
C552 C557 1.390 . S
C553 C552 1.387 . S
C553 C554 1.401 . S
C553 H574 0.930 . S
C554 C553 1.401 . S
C554 C555 1.376 . S
C554 C563 1.511 . S
C555 C554 1.376 . S
C555 C556 1.392 . S
C555 H576 0.931 . S
C556 C555 1.392 . S
C556 C557 1.361 . S
C556 C558 1.500 . S
C557 C552 1.390 . S
C557 C556 1.361 . S
C557 H575 0.931 . S
C558 C556 1.500 . S
C558 C559 1.371 . S
C558 C560 1.365 . S
C559 C558 1.371 . S
C559 C569 1.386 . S
C559 H577 0.931 . S
C560 C558 1.365 . S
C560 C561 1.409 . S
C560 H578 0.929 . S
C561 C560 1.409 . S
C561 C562 1.380 . S
C561 H579 0.930 . S
C562 C561 1.380 . S
C562 C569 1.357 . S
C563 C554 1.511 . S
C563 C564 1.341 . S
C563 C565 1.371 . S
C564 C563 1.341 . S
C564 C568 1.394 . S
C564 H580 0.930 . S
C565 C563 1.371 . S
C565 C566 1.392 . S
C565 H581 0.931 . S
C566 C565 1.392 . S
C566 C567 1.331 . S
C566 H584 0.932 . S
C567 C566 1.331 . S
C567 C568 1.336 . S
C568 C564 1.394 . S
C568 C567 1.336 . S
C568 H583 0.929 . S
C569 C559 1.386 . S
C569 C562 1.357 . S
C569 H582 0.928 . S
H570 C546 0.931 . S
H571 C548 0.930 . S
H572 C550 0.929 . S
H573 C551 0.931 . S
H574 C553 0.930 . S
H575 C557 0.931 . S
H576 C555 0.931 . S
H577 C559 0.931 . S
H578 C560 0.929 . S
H579 C561 0.930 . S
H580 C564 0.930 . S
H581 C565 0.931 . S
H582 C569 0.928 . S
H583 C568 0.929 . S
H584 C566 0.932 . S
C585 C586 1.386 1_556 S
C585 C587 1.397 . S
C585 H609 0.931 . S
C586 C585 1.386 1_554 S
C586 C590 1.397 . S
C587 C585 1.397 . S
C587 C588 1.384 . S
C587 H610 0.930 . S
C588 C587 1.384 . S
C588 C589 1.377 . S
C588 C591 1.481 . S
C589 C588 1.377 . S
C589 C590 1.389 1_556 S
C589 H611 0.929 1_556 S
C590 C586 1.397 . S
C590 C589 1.389 1_554 S
C590 H612 0.931 . S
C591 C588 1.481 . S
C591 C592 1.387 . S
C591 C596 1.390 . S
C592 C591 1.387 . S
C592 C593 1.401 . S
C592 H613 0.930 . S
C593 C592 1.401 . S
C593 C594 1.376 . S
C593 C602 1.511 . S
C594 C593 1.376 . S
C594 C595 1.392 . S
C594 H615 0.931 . S
C595 C594 1.392 . S
C595 C596 1.361 . S
C595 C597 1.500 . S
C596 C591 1.390 . S
C596 C595 1.361 . S
C596 H614 0.931 . S
C597 C595 1.500 . S
C597 C598 1.371 . S
C597 C599 1.365 . S
C598 C597 1.371 . S
C598 C608 1.386 . S
C598 H616 0.931 . S
C599 C597 1.365 . S
C599 C600 1.409 . S
C599 H617 0.929 . S
C600 C599 1.409 . S
C600 C601 1.380 . S
C600 H618 0.930 1_556 S
C601 C600 1.380 . S
C601 C608 1.357 . S
C602 C593 1.511 . S
C602 C603 1.341 . S
C602 C604 1.371 . S
C603 C602 1.341 . S
C603 C607 1.394 . S
C603 H619 0.930 . S
C604 C602 1.371 . S
C604 C605 1.392 . S
C604 H620 0.931 . S
C605 C604 1.392 . S
C605 C606 1.331 . S
C605 H623 0.932 . S
C606 C605 1.331 . S
C606 C607 1.336 . S
C607 C603 1.394 . S
C607 C606 1.336 . S
C607 H622 0.929 . S
C608 C598 1.386 . S
C608 C601 1.357 . S
C608 H621 0.928 . S
H609 C585 0.931 . S
H610 C587 0.930 . S
H611 C589 0.929 1_554 S
H612 C590 0.931 . S
H613 C592 0.930 . S
H614 C596 0.931 . S
H615 C594 0.931 . S
H616 C598 0.931 . S
H617 C599 0.929 . S
H618 C600 0.930 1_554 S
H619 C603 0.930 . S
H620 C604 0.931 . S
H621 C608 0.928 . S
H622 C607 0.929 . S
H623 C605 0.932 . S
O624 Cd625 2.223 . S
O624 C632 1.315 . S
Cd625 O624 2.223 . S
Cd625 O628 2.297 . S
Cd625 O629 2.439 . S
Cd625 O635 2.240 . S
Cd626 O627 2.240 . S
Cd626 O634 2.223 . S
Cd626 O636 2.297 . S
Cd626 O637 2.439 . S
O627 Cd626 2.240 . S
O627 C632 1.279 . S
O628 Cd625 2.297 . S
O628 C630 1.247 . S
O629 Cd625 2.439 . S
O629 C630 1.208 . S
C630 O628 1.247 . S
C630 O629 1.208 . S
C631 O636 1.247 . S
C631 O637 1.208 . S
C632 O624 1.315 . S
C632 O627 1.279 . S
C633 O634 1.315 . S
C633 O635 1.279 . S
O634 Cd626 2.223 . S
O634 C633 1.315 . S
O635 Cd625 2.240 . S
O635 C633 1.279 . S
O636 Cd626 2.297 . S
O636 C631 1.247 . S
O637 Cd626 2.439 . S
O637 C631 1.208 . S
O638 Cd639 2.223 . S
O638 C646 1.315 . S
Cd639 O638 2.223 . S
Cd639 O642 2.297 . S
Cd639 O643 2.439 . S
Cd639 O649 2.240 . S
Cd640 O641 2.240 . S
Cd640 O648 2.223 . S
Cd640 O650 2.297 . S
Cd640 O651 2.439 . S
O641 Cd640 2.240 . S
O641 C646 1.279 . S
O642 Cd639 2.297 . S
O642 C644 1.247 . S
O643 Cd639 2.439 . S
O643 C644 1.208 . S
C644 O642 1.247 . S
C644 O643 1.208 . S
C645 O650 1.247 . S
C645 O651 1.208 . S
C646 O638 1.315 . S
C646 O641 1.279 . S
C647 O648 1.315 . S
C647 O649 1.279 . S
O648 Cd640 2.223 . S
O648 C647 1.315 . S
O649 Cd639 2.240 . S
O649 C647 1.279 . S
O650 Cd640 2.297 . S
O650 C645 1.247 . S
O651 Cd640 2.439 . S
O651 C645 1.208 . S
O652 Cd653 2.223 1_556 S
O652 C660 1.315 . S
Cd653 O652 2.223 1_554 S
Cd653 O656 2.297 . S
Cd653 O657 2.439 . S
Cd653 O663 2.240 . S
Cd654 O655 2.240 . S
Cd654 O662 2.223 . S
Cd654 O664 2.297 1_556 S
Cd654 O665 2.439 1_556 S
O655 Cd654 2.240 . S
O655 C660 1.279 . S
O656 Cd653 2.297 . S
O656 C658 1.247 . S
O657 Cd653 2.439 . S
O657 C658 1.208 . S
C658 O656 1.247 . S
C658 O657 1.208 . S
C659 O664 1.247 . S
C659 O665 1.208 . S
C660 O652 1.315 . S
C660 O655 1.279 . S
C661 O662 1.315 . S
C661 O663 1.279 1_556 S
O662 Cd654 2.223 . S
O662 C661 1.315 . S
O663 Cd653 2.240 . S
O663 C661 1.279 1_554 S
O664 Cd654 2.297 1_554 S
O664 C659 1.247 . S
O665 Cd654 2.439 1_554 S
O665 C659 1.208 . S
O666 Cd667 2.223 . S
O666 C674 1.315 . S
Cd667 O666 2.223 . S
Cd667 O670 2.297 . S
Cd667 O671 2.439 . S
Cd667 O677 2.240 . S
Cd668 O669 2.240 . S
Cd668 O676 2.223 . S
Cd668 O678 2.297 . S
Cd668 O679 2.439 . S
O669 Cd668 2.240 . S
O669 C674 1.279 . S
O670 Cd667 2.297 . S
O670 C672 1.247 . S
O671 Cd667 2.439 . S
O671 C672 1.208 . S
C672 O670 1.247 . S
C672 O671 1.208 . S
C673 O678 1.247 . S
C673 O679 1.208 . S
C674 O666 1.315 . S
C674 O669 1.279 . S
C675 O676 1.315 . S
C675 O677 1.279 . S
O676 Cd668 2.223 . S
O676 C675 1.315 . S
O677 Cd667 2.240 . S
O677 C675 1.279 . S
O678 Cd668 2.297 . S
O678 C673 1.247 . S
O679 Cd668 2.439 . S
O679 C673 1.208 . S
O680 Cd681 2.223 . S
O680 C688 1.315 . S
Cd681 O680 2.223 . S
Cd681 O684 2.297 . S
Cd681 O685 2.439 . S
Cd681 O691 2.240 . S
Cd682 O683 2.240 . S
Cd682 O690 2.223 . S
Cd682 O692 2.297 . S
Cd682 O693 2.439 . S
O683 Cd682 2.240 . S
O683 C688 1.279 . S
O684 Cd681 2.297 . S
O684 C686 1.247 . S
O685 Cd681 2.439 . S
O685 C686 1.208 . S
C686 O684 1.247 . S
C686 O685 1.208 . S
C687 O692 1.247 . S
C687 O693 1.208 . S
C688 O680 1.315 . S
C688 O683 1.279 . S
C689 O690 1.315 . S
C689 O691 1.279 . S
O690 Cd682 2.223 . S
O690 C689 1.315 . S
O691 Cd681 2.240 . S
O691 C689 1.279 . S
O692 Cd682 2.297 . S
O692 C687 1.247 . S
O693 Cd682 2.439 . S
O693 C687 1.208 . S
O694 Cd695 2.223 . S
O694 C702 1.315 . S
Cd695 O694 2.223 . S
Cd695 O698 2.297 . S
Cd695 O699 2.439 . S
Cd695 O705 2.240 . S
Cd696 O697 2.240 . S
Cd696 O704 2.223 . S
Cd696 O706 2.297 . S
Cd696 O707 2.439 . S
O697 Cd696 2.240 . S
O697 C702 1.279 . S
O698 Cd695 2.297 . S
O698 C700 1.247 . S
O699 Cd695 2.439 . S
O699 C700 1.208 . S
C700 O698 1.247 . S
C700 O699 1.208 . S
C701 O706 1.247 . S
C701 O707 1.208 . S
C702 O694 1.315 . S
C702 O697 1.279 . S
C703 O704 1.315 . S
C703 O705 1.279 . S
O704 Cd696 2.223 . S
O704 C703 1.315 . S
O705 Cd695 2.240 . S
O705 C703 1.279 . S
O706 Cd696 2.297 . S
O706 C701 1.247 . S
O707 Cd696 2.439 . S
O707 C701 1.208 . S
O708 Cd709 2.223 . S
O708 C716 1.315 . S
Cd709 O708 2.223 . S
Cd709 O712 2.297 . S
Cd709 O713 2.439 . S
Cd709 O719 2.240 . S
Cd710 O711 2.240 . S
Cd710 O718 2.223 . S
Cd710 O720 2.297 . S
Cd710 O721 2.439 . S
O711 Cd710 2.240 . S
O711 C716 1.279 . S
O712 Cd709 2.297 . S
O712 C714 1.247 . S
O713 Cd709 2.439 . S
O713 C714 1.208 . S
C714 O712 1.247 . S
C714 O713 1.208 . S
C715 O720 1.247 . S
C715 O721 1.208 . S
C716 O708 1.315 . S
C716 O711 1.279 . S
C717 O718 1.315 . S
C717 O719 1.279 . S
O718 Cd710 2.223 . S
O718 C717 1.315 . S
O719 Cd709 2.240 . S
O719 C717 1.279 . S
O720 Cd710 2.297 . S
O720 C715 1.247 . S
O721 Cd710 2.439 . S
O721 C715 1.208 . S
O722 Cd723 2.223 1_545 S
O722 C730 1.315 . S
Cd723 O722 2.223 1_565 S
Cd723 O726 2.297 . S
Cd723 O727 2.439 . S
Cd723 O733 2.240 1_565 S
Cd724 O725 2.240 . S
Cd724 O732 2.223 . S
Cd724 O734 2.297 . S
Cd724 O735 2.439 1_545 S
O725 Cd724 2.240 . S
O725 C730 1.279 . S
O726 Cd723 2.297 . S
O726 C728 1.247 . S
O727 Cd723 2.439 . S
O727 C728 1.208 . S
C728 O726 1.247 . S
C728 O727 1.208 . S
C729 O734 1.247 1_565 S
C729 O735 1.208 . S
C730 O722 1.315 . S
C730 O725 1.279 . S
C731 O732 1.315 . S
C731 O733 1.279 . S
O732 Cd724 2.223 . S
O732 C731 1.315 . S
O733 Cd723 2.240 1_545 S
O733 C731 1.279 . S
O734 Cd724 2.297 . S
O734 C729 1.247 1_545 S
O735 Cd724 2.439 1_565 S
O735 C729 1.208 . S
O736 Cd737 2.223 . S
O736 C744 1.315 . S
Cd737 O736 2.223 . S
Cd737 O740 2.297 1_655 S
Cd737 O741 2.439 1_655 S
Cd737 O747 2.240 . S
Cd738 O739 2.240 . S
Cd738 O746 2.223 1_455 S
Cd738 O748 2.297 . S
Cd738 O749 2.439 . S
O739 Cd738 2.240 . S
O739 C744 1.279 1_455 S
O740 Cd737 2.297 1_455 S
O740 C742 1.247 . S
O741 Cd737 2.439 1_455 S
O741 C742 1.208 . S
C742 O740 1.247 . S
C742 O741 1.208 . S
C743 O748 1.247 . S
C743 O749 1.208 . S
C744 O736 1.315 . S
C744 O739 1.279 1_655 S
C745 O746 1.315 . S
C745 O747 1.279 . S
O746 Cd738 2.223 1_655 S
O746 C745 1.315 . S
O747 Cd737 2.240 . S
O747 C745 1.279 . S
O748 Cd738 2.297 . S
O748 C743 1.247 . S
O749 Cd738 2.439 . S
O749 C743 1.208 . S
O750 Cd751 2.223 . S
O750 C758 1.315 . S
Cd751 O750 2.223 . S
Cd751 O754 2.297 . S
Cd751 O755 2.439 . S
Cd751 O761 2.240 . S
Cd752 O753 2.240 . S
Cd752 O760 2.223 . S
Cd752 O762 2.297 . S
Cd752 O763 2.439 . S
O753 Cd752 2.240 . S
O753 C758 1.279 . S
O754 Cd751 2.297 . S
O754 C756 1.247 . S
O755 Cd751 2.439 . S
O755 C756 1.208 . S
C756 O754 1.247 . S
C756 O755 1.208 . S
C757 O762 1.247 . S
C757 O763 1.208 . S
C758 O750 1.315 . S
C758 O753 1.279 . S
C759 O760 1.315 . S
C759 O761 1.279 . S
O760 Cd752 2.223 . S
O760 C759 1.315 . S
O761 Cd751 2.240 . S
O761 C759 1.279 . S
O762 Cd752 2.297 . S
O762 C757 1.247 . S
O763 Cd752 2.439 . S
O763 C757 1.208 . S
O764 Cd765 2.223 1_655 S
O764 C772 1.315 . S
Cd765 O764 2.223 1_455 S
Cd765 O768 2.297 . S
Cd765 O769 2.439 . S
Cd765 O775 2.240 . S
Cd766 O767 2.240 . S
Cd766 O774 2.223 . S
Cd766 O776 2.297 1_655 S
Cd766 O777 2.439 1_655 S
O767 Cd766 2.240 . S
O767 C772 1.279 . S
O768 Cd765 2.297 . S
O768 C770 1.247 . S
O769 Cd765 2.439 . S
O769 C770 1.208 . S
C770 O768 1.247 . S
C770 O769 1.208 . S
C771 O776 1.247 . S
C771 O777 1.208 . S
C772 O764 1.315 . S
C772 O767 1.279 . S
C773 O774 1.315 . S
C773 O775 1.279 1_655 S
O774 Cd766 2.223 . S
O774 C773 1.315 . S
O775 Cd765 2.240 . S
O775 C773 1.279 1_455 S
O776 Cd766 2.297 1_455 S
O776 C771 1.247 . S
O777 Cd766 2.439 1_455 S
O777 C771 1.208 . S
O778 Cd779 2.223 . S
O778 C786 1.315 . S
Cd779 O778 2.223 . S
Cd779 O782 2.297 . S
Cd779 O783 2.439 . S
Cd779 O789 2.240 . S
Cd780 O781 2.240 . S
Cd780 O788 2.223 . S
Cd780 O790 2.297 . S
Cd780 O791 2.439 . S
O781 Cd780 2.240 . S
O781 C786 1.279 . S
O782 Cd779 2.297 . S
O782 C784 1.247 . S
O783 Cd779 2.439 . S
O783 C784 1.208 . S
C784 O782 1.247 . S
C784 O783 1.208 . S
C785 O790 1.247 . S
C785 O791 1.208 . S
C786 O778 1.315 . S
C786 O781 1.279 . S
C787 O788 1.315 . S
C787 O789 1.279 . S
O788 Cd780 2.223 . S
O788 C787 1.315 . S
O789 Cd779 2.240 . S
O789 C787 1.279 . S
O790 Cd780 2.297 . S
O790 C785 1.247 . S
O791 Cd780 2.439 . S
O791 C785 1.208 . S
C792 C793 1.369 . S
C792 C794 1.419 . S
C792 H796 0.930 . S
C793 C792 1.369 . S
C793 C802 1.429 . S
C794 C792 1.419 . S
C794 C795 1.363 . S
C794 H797 0.929 . S
C795 C794 1.363 . S
C795 C801 1.428 . S
H796 C792 0.930 . S
H797 C794 0.929 . S
S798 N799 1.613 . S
S798 N800 1.610 . S
N799 S798 1.613 . S
N799 C802 1.350 . S
N800 S798 1.610 . S
N800 C801 1.351 . S
C801 C795 1.428 . S
C801 N800 1.351 . S
C801 C802 1.434 . S
C802 C793 1.429 . S
C802 N799 1.350 . S
C802 C801 1.434 . S
C803 C804 1.369 . S
C803 C805 1.419 . S
C803 H807 0.930 . S
C804 C803 1.369 . S
C804 C813 1.429 . S
C805 C803 1.419 . S
C805 C806 1.363 . S
C805 H808 0.929 . S
C806 C805 1.363 . S
C806 C812 1.428 . S
H807 C803 0.930 . S
H808 C805 0.929 . S
S809 N810 1.613 . S
S809 N811 1.610 1_655 S
N810 S809 1.613 . S
N810 C813 1.350 1_655 S
N811 S809 1.610 1_455 S
N811 C812 1.351 . S
C812 C806 1.428 . S
C812 N811 1.351 . S
C812 C813 1.434 . S
C813 C804 1.429 . S
C813 N810 1.350 1_455 S
C813 C812 1.434 . S
C814 C815 1.369 . S
C814 C816 1.419 . S
C814 H818 0.930 . S
C815 C814 1.369 . S
C815 C824 1.429 . S
C816 C814 1.419 . S
C816 C817 1.363 . S
C816 H819 0.929 . S
C817 C816 1.363 . S
C817 C823 1.428 . S
H818 C814 0.930 . S
H819 C816 0.929 . S
S820 N821 1.613 . S
S820 N822 1.610 . S
N821 S820 1.613 . S
N821 C824 1.350 . S
N822 S820 1.610 . S
N822 C823 1.351 . S
C823 C817 1.428 . S
C823 N822 1.351 . S
C823 C824 1.434 . S
C824 C815 1.429 . S
C824 N821 1.350 . S
C824 C823 1.434 . S
C825 C826 1.369 1_545 S
C825 C827 1.419 . S
C825 H829 0.930 . S
C826 C825 1.369 1_565 S
C826 C835 1.429 . S
C827 C825 1.419 . S
C827 C828 1.363 . S
C827 H830 0.929 . S
C828 C827 1.363 . S
C828 C834 1.428 1_545 S
H829 C825 0.930 . S
H830 C827 0.929 . S
S831 N832 1.613 . S
S831 N833 1.610 . S
N832 S831 1.613 . S
N832 C835 1.350 . S
N833 S831 1.610 . S
N833 C834 1.351 . S
C834 C828 1.428 1_565 S
C834 N833 1.351 . S
C834 C835 1.434 . S
C835 C826 1.429 . S
C835 N832 1.350 . S
C835 C834 1.434 . S
C836 C837 1.369 . S
C836 C838 1.419 . S
C836 H840 0.930 . S
C837 C836 1.369 . S
C837 C846 1.429 . S
C838 C836 1.419 . S
C838 C839 1.363 . S
C838 H841 0.929 . S
C839 C838 1.363 . S
C839 C845 1.428 . S
H840 C836 0.930 . S
H841 C838 0.929 . S
S842 N843 1.613 . S
S842 N844 1.610 . S
N843 S842 1.613 . S
N843 C846 1.350 . S
N844 S842 1.610 . S
N844 C845 1.351 . S
C845 C839 1.428 . S
C845 N844 1.351 . S
C845 C846 1.434 . S
C846 C837 1.429 . S
C846 N843 1.350 . S
C846 C845 1.434 . S
C847 C848 1.369 . S
C847 C849 1.419 . S
C847 H851 0.930 . S
C848 C847 1.369 . S
C848 C857 1.429 . S
C849 C847 1.419 . S
C849 C850 1.363 . S
C849 H852 0.929 . S
C850 C849 1.363 . S
C850 C856 1.428 . S
H851 C847 0.930 . S
H852 C849 0.929 . S
S853 N854 1.613 . S
S853 N855 1.610 . S
N854 S853 1.613 . S
N854 C857 1.350 . S
N855 S853 1.610 . S
N855 C856 1.351 . S
C856 C850 1.428 . S
C856 N855 1.351 . S
C856 C857 1.434 . S
C857 C848 1.429 . S
C857 N854 1.350 . S
C857 C856 1.434 . S
C858 C859 1.369 . S
C858 C860 1.419 . S
C858 H862 0.930 . S
C859 C858 1.369 . S
C859 C868 1.429 . S
C860 C858 1.419 . S
C860 C861 1.363 . S
C860 H863 0.929 . S
C861 C860 1.363 . S
C861 C867 1.428 . S
H862 C858 0.930 . S
H863 C860 0.929 . S
S864 N865 1.613 . S
S864 N866 1.610 . S
N865 S864 1.613 . S
N865 C868 1.350 . S
N866 S864 1.610 . S
N866 C867 1.351 . S
C867 C861 1.428 . S
C867 N866 1.351 . S
C867 C868 1.434 . S
C868 C859 1.429 . S
C868 N865 1.350 . S
C868 C867 1.434 . S
C869 C870 1.369 . S
C869 C871 1.419 . S
C869 H873 0.930 . S
C870 C869 1.369 . S
C870 C879 1.429 . S
C871 C869 1.419 . S
C871 C872 1.363 . S
C871 H874 0.929 1_565 S
C872 C871 1.363 . S
C872 C878 1.428 . S
H873 C869 0.930 . S
H874 C871 0.929 1_545 S
S875 N876 1.613 . S
S875 N877 1.610 . S
N876 S875 1.613 . S
N876 C879 1.350 . S
N877 S875 1.610 . S
N877 C878 1.351 . S
C878 C872 1.428 . S
C878 N877 1.351 . S
C878 C879 1.434 . S
C879 C870 1.429 . S
C879 N876 1.350 . S
C879 C878 1.434 . S
C880 C881 1.369 . S
C880 C882 1.419 . S
C880 H884 0.930 . S
C881 C880 1.369 . S
C881 C890 1.429 . S
C882 C880 1.419 . S
C882 C883 1.363 . S
C882 H885 0.929 . S
C883 C882 1.363 . S
C883 C889 1.428 . S
H884 C880 0.930 . S
H885 C882 0.929 . S
S886 N887 1.613 . S
S886 N888 1.610 . S
N887 S886 1.613 . S
N887 C890 1.350 . S
N888 S886 1.610 . S
N888 C889 1.351 . S
C889 C883 1.428 . S
C889 N888 1.351 . S
C889 C890 1.434 . S
C890 C881 1.429 . S
C890 N887 1.350 . S
C890 C889 1.434 . S
C891 C892 1.369 . S
C891 C893 1.419 . S
C891 H895 0.930 . S
C892 C891 1.369 . S
C892 C901 1.429 . S
C893 C891 1.419 . S
C893 C894 1.363 . S
C893 H896 0.929 . S
C894 C893 1.363 . S
C894 C900 1.428 . S
H895 C891 0.930 . S
H896 C893 0.929 . S
S897 N898 1.613 . S
S897 N899 1.610 . S
N898 S897 1.613 . S
N898 C901 1.350 . S
N899 S897 1.610 . S
N899 C900 1.351 . S
C900 C894 1.428 . S
C900 N899 1.351 . S
C900 C901 1.434 . S
C901 C892 1.429 . S
C901 N898 1.350 . S
C901 C900 1.434 . S
C902 C903 1.369 . S
C902 C904 1.419 . S
C902 H906 0.930 . S
C903 C902 1.369 . S
C903 C912 1.429 . S
C904 C902 1.419 . S
C904 C905 1.363 . S
C904 H907 0.929 . S
C905 C904 1.363 . S
C905 C911 1.428 . S
H906 C902 0.930 . S
H907 C904 0.929 . S
S908 N909 1.613 . S
S908 N910 1.610 . S
N909 S908 1.613 . S
N909 C912 1.350 . S
N910 S908 1.610 . S
N910 C911 1.351 . S
C911 C905 1.428 . S
C911 N910 1.351 . S
C911 C912 1.434 . S
C912 C903 1.429 . S
C912 N909 1.350 . S
C912 C911 1.434 . S
C913 C914 1.369 . S
C913 C915 1.419 . S
C913 H917 0.930 . S
C914 C913 1.369 . S
C914 C923 1.429 . S
C915 C913 1.419 . S
C915 C916 1.363 . S
C915 H918 0.929 . S
C916 C915 1.363 . S
C916 C922 1.428 . S
H917 C913 0.930 . S
H918 C915 0.929 . S
S919 N920 1.613 . S
S919 N921 1.610 . S
N920 S919 1.613 . S
N920 C923 1.350 . S
N921 S919 1.610 . S
N921 C922 1.351 . S
C922 C916 1.428 . S
C922 N921 1.351 . S
C922 C923 1.434 . S
C923 C914 1.429 . S
C923 N920 1.350 . S
C923 C922 1.434 . S
C924 C925 1.369 . S
C924 C926 1.419 . S
C924 H928 0.930 . S
C925 C924 1.369 . S
C925 C934 1.429 . S
C926 C924 1.419 . S
C926 C927 1.363 . S
C926 H929 0.929 . S
C927 C926 1.363 . S
C927 C933 1.428 . S
H928 C924 0.930 . S
H929 C926 0.929 . S
S930 N931 1.613 . S
S930 N932 1.610 . S
N931 S930 1.613 . S
N931 C934 1.350 . S
N932 S930 1.610 . S
N932 C933 1.351 . S
C933 C927 1.428 . S
C933 N932 1.351 . S
C933 C934 1.434 . S
C934 C925 1.429 . S
C934 N931 1.350 . S
C934 C933 1.434 . S
C935 C936 1.369 . S
C935 C937 1.419 . S
C935 H939 0.930 . S
C936 C935 1.369 . S
C936 C945 1.429 . S
C937 C935 1.419 . S
C937 C938 1.363 . S
C937 H940 0.929 . S
C938 C937 1.363 . S
C938 C944 1.428 . S
H939 C935 0.930 . S
H940 C937 0.929 . S
S941 N942 1.613 . S
S941 N943 1.610 . S
N942 S941 1.613 . S
N942 C945 1.350 . S
N943 S941 1.610 . S
N943 C944 1.351 . S
C944 C938 1.428 . S
C944 N943 1.351 . S
C944 C945 1.434 . S
C945 C936 1.429 . S
C945 N942 1.350 . S
C945 C944 1.434 . S
C946 C947 1.369 . S
C946 C948 1.419 . S
C946 H950 0.930 . S
C947 C946 1.369 . S
C947 C956 1.429 . S
C948 C946 1.419 . S
C948 C949 1.363 . S
C948 H951 0.929 . S
C949 C948 1.363 . S
C949 C955 1.428 . S
H950 C946 0.930 . S
H951 C948 0.929 . S
S952 N953 1.613 . S
S952 N954 1.610 . S
N953 S952 1.613 . S
N953 C956 1.350 . S
N954 S952 1.610 . S
N954 C955 1.351 . S
C955 C949 1.428 . S
C955 N954 1.351 . S
C955 C956 1.434 . S
C956 C947 1.429 . S
C956 N953 1.350 . S
C956 C955 1.434 . S
C957 C958 1.369 . S
C957 C959 1.419 . S
C957 H961 0.930 . S
C958 C957 1.369 . S
C958 C967 1.429 . S
C959 C957 1.419 . S
C959 C960 1.363 . S
C959 H962 0.929 . S
C960 C959 1.363 . S
C960 C966 1.428 . S
H961 C957 0.930 . S
H962 C959 0.929 . S
S963 N964 1.613 . S
S963 N965 1.610 . S
N964 S963 1.613 . S
N964 C967 1.350 1_455 S
N965 S963 1.610 . S
N965 C966 1.351 1_455 S
C966 C960 1.428 . S
C966 N965 1.351 1_655 S
C966 C967 1.434 . S
C967 C958 1.429 . S
C967 N964 1.350 1_655 S
C967 C966 1.434 . S
C968 C969 1.369 . S
C968 C970 1.419 . S
C968 H972 0.930 . S
C969 C968 1.369 . S
C969 C978 1.429 . S
C970 C968 1.419 . S
C970 C971 1.363 . S
C970 H973 0.929 . S
C971 C970 1.363 . S
C971 C977 1.428 . S
H972 C968 0.930 . S
H973 C970 0.929 . S
S974 N975 1.613 . S
S974 N976 1.610 . S
N975 S974 1.613 . S
N975 C978 1.350 . S
N976 S974 1.610 . S
N976 C977 1.351 . S
C977 C971 1.428 . S
C977 N976 1.351 . S
C977 C978 1.434 . S
C978 C969 1.429 . S
C978 N975 1.350 . S
C978 C977 1.434 . S
C979 C980 1.369 . S
C979 C981 1.419 . S
C979 H983 0.930 . S
C980 C979 1.369 . S
C980 C989 1.429 . S
C981 C979 1.419 . S
C981 C982 1.363 . S
C981 H984 0.929 . S
C982 C981 1.363 . S
C982 C988 1.428 . S
H983 C979 0.930 . S
H984 C981 0.929 . S
S985 N986 1.613 . S
S985 N987 1.610 . S
N986 S985 1.613 . S
N986 C989 1.350 . S
N987 S985 1.610 . S
N987 C988 1.351 . S
C988 C982 1.428 . S
C988 N987 1.351 . S
C988 C989 1.434 . S
C989 C980 1.429 . S
C989 N986 1.350 . S
C989 C988 1.434 . S
C990 C991 1.369 1_565 S
C990 C992 1.419 . S
C990 H994 0.930 . S
C991 C990 1.369 1_545 S
C991 C1000 1.429 1_556 S
C992 C990 1.419 . S
C992 C993 1.363 1_556 S
C992 H995 0.929 . S
C993 C992 1.363 1_554 S
C993 C999 1.428 . S
H994 C990 0.930 . S
H995 C992 0.929 . S
S996 N997 1.613 . S
S996 N998 1.610 1_545 S
N997 S996 1.613 . S
N997 C1000 1.350 . S
N998 S996 1.610 1_565 S
N998 C999 1.351 . S
C999 C993 1.428 . S
C999 N998 1.351 . S
C999 C1000 1.434 1_565 S
C1000 C991 1.429 1_554 S
C1000 N997 1.350 . S
C1000 C999 1.434 1_545 S
C1001 C1002 1.369 . S
C1001 C1003 1.419 . S
C1001 H1005 0.930 . S
C1002 C1001 1.369 . S
C1002 C1011 1.429 . S
C1003 C1001 1.419 . S
C1003 C1004 1.363 . S
C1003 H1006 0.929 . S
C1004 C1003 1.363 . S
C1004 C1010 1.428 . S
H1005 C1001 0.930 . S
H1006 C1003 0.929 . S
S1007 N1008 1.613 . S
S1007 N1009 1.610 . S
N1008 S1007 1.613 . S
N1008 C1011 1.350 . S
N1009 S1007 1.610 . S
N1009 C1010 1.351 . S
C1010 C1004 1.428 . S
C1010 N1009 1.351 . S
C1010 C1011 1.434 . S
C1011 C1002 1.429 . S
C1011 N1008 1.350 . S
C1011 C1010 1.434 . S
C1012 C1013 1.369 . S
C1012 C1014 1.419 . S
C1012 H1016 0.930 . S
C1013 C1012 1.369 . S
C1013 C1022 1.429 . S
C1014 C1012 1.419 . S
C1014 C1015 1.363 . S
C1014 H1017 0.929 . S
C1015 C1014 1.363 . S
C1015 C1021 1.428 . S
H1016 C1012 0.930 . S
H1017 C1014 0.929 . S
S1018 N1019 1.613 . S
S1018 N1020 1.610 . S
N1019 S1018 1.613 . S
N1019 C1022 1.350 . S
N1020 S1018 1.610 . S
N1020 C1021 1.351 . S
C1021 C1015 1.428 . S
C1021 N1020 1.351 . S
C1021 C1022 1.434 . S
C1022 C1013 1.429 . S
C1022 N1019 1.350 . S
C1022 C1021 1.434 . S
C1023 C1024 1.369 . S
C1023 C1025 1.419 . S
C1023 H1027 0.930 . S
C1024 C1023 1.369 . S
C1024 C1033 1.429 . S
C1025 C1023 1.419 . S
C1025 C1026 1.363 . S
C1025 H1028 0.929 . S
C1026 C1025 1.363 . S
C1026 C1032 1.428 . S
H1027 C1023 0.930 . S
H1028 C1025 0.929 . S
S1029 N1030 1.613 . S
S1029 N1031 1.610 . S
N1030 S1029 1.613 . S
N1030 C1033 1.350 . S
N1031 S1029 1.610 . S
N1031 C1032 1.351 . S
C1032 C1026 1.428 . S
C1032 N1031 1.351 . S
C1032 C1033 1.434 . S
C1033 C1024 1.429 . S
C1033 N1030 1.350 . S
C1033 C1032 1.434 . S
C1034 C1035 1.369 . S
C1034 C1036 1.419 . S
C1034 H1038 0.930 . S
C1035 C1034 1.369 . S
C1035 C1044 1.429 . S
C1036 C1034 1.419 . S
C1036 C1037 1.363 . S
C1036 H1039 0.929 . S
C1037 C1036 1.363 . S
C1037 C1043 1.428 . S
H1038 C1034 0.930 . S
H1039 C1036 0.929 . S
S1040 N1041 1.613 . S
S1040 N1042 1.610 . S
N1041 S1040 1.613 . S
N1041 C1044 1.350 . S
N1042 S1040 1.610 . S
N1042 C1043 1.351 . S
C1043 C1037 1.428 . S
C1043 N1042 1.351 . S
C1043 C1044 1.434 . S
C1044 C1035 1.429 . S
C1044 N1041 1.350 . S
C1044 C1043 1.434 . S
C1045 C1046 1.369 . S
C1045 C1047 1.419 . S
C1045 H1049 0.930 . S
C1046 C1045 1.369 . S
C1046 C1055 1.429 . S
C1047 C1045 1.419 . S
C1047 C1048 1.363 . S
C1047 H1050 0.929 . S
C1048 C1047 1.363 . S
C1048 C1054 1.428 . S
H1049 C1045 0.930 . S
H1050 C1047 0.929 . S
S1051 N1052 1.613 . S
S1051 N1053 1.610 . S
N1052 S1051 1.613 . S
N1052 C1055 1.350 . S
N1053 S1051 1.610 . S
N1053 C1054 1.351 . S
C1054 C1048 1.428 . S
C1054 N1053 1.351 . S
C1054 C1055 1.434 . S
C1055 C1046 1.429 . S
C1055 N1052 1.350 . S
C1055 C1054 1.434 . S
C1056 C1057 1.369 . S
C1056 C1058 1.419 . S
C1056 H1060 0.930 . S
C1057 C1056 1.369 . S
C1057 C1066 1.429 . S
C1058 C1056 1.419 . S
C1058 C1059 1.363 . S
C1058 H1061 0.929 . S
C1059 C1058 1.363 . S
C1059 C1065 1.428 . S
H1060 C1056 0.930 . S
H1061 C1058 0.929 . S
S1062 N1063 1.613 . S
S1062 N1064 1.610 . S
N1063 S1062 1.613 . S
N1063 C1066 1.350 . S
N1064 S1062 1.610 . S
N1064 C1065 1.351 . S
C1065 C1059 1.428 . S
C1065 N1064 1.351 . S
C1065 C1066 1.434 . S
C1066 C1057 1.429 . S
C1066 N1063 1.350 . S
C1066 C1065 1.434 . S
C1067 C1068 1.369 . S
C1067 C1069 1.419 . S
C1067 H1071 0.930 . S
C1068 C1067 1.369 . S
C1068 C1077 1.429 . S
C1069 C1067 1.419 . S
C1069 C1070 1.363 . S
C1069 H1072 0.929 . S
C1070 C1069 1.363 . S
C1070 C1076 1.428 . S
H1071 C1067 0.930 . S
H1072 C1069 0.929 . S
S1073 N1074 1.613 . S
S1073 N1075 1.610 . S
N1074 S1073 1.613 . S
N1074 C1077 1.350 . S
N1075 S1073 1.610 . S
N1075 C1076 1.351 . S
C1076 C1070 1.428 . S
C1076 N1075 1.351 . S
C1076 C1077 1.434 . S
C1077 C1068 1.429 . S
C1077 N1074 1.350 . S
C1077 C1076 1.434 . S
C1078 C1079 1.369 . S
C1078 C1080 1.419 . S
C1078 H1082 0.930 . S
C1079 C1078 1.369 . S
C1079 C1088 1.429 . S
C1080 C1078 1.419 . S
C1080 C1081 1.363 . S
C1080 H1083 0.929 . S
C1081 C1080 1.363 . S
C1081 C1087 1.428 . S
H1082 C1078 0.930 . S
H1083 C1080 0.929 . S
S1084 N1085 1.613 . S
S1084 N1086 1.610 . S
N1085 S1084 1.613 . S
N1085 C1088 1.350 . S
N1086 S1084 1.610 . S
N1086 C1087 1.351 . S
C1087 C1081 1.428 . S
C1087 N1086 1.351 . S
C1087 C1088 1.434 . S
C1088 C1079 1.429 . S
C1088 N1085 1.350 . S
C1088 C1087 1.434 . S
C1089 C1090 1.369 . S
C1089 C1091 1.419 . S
C1089 H1093 0.930 . S
C1090 C1089 1.369 . S
C1090 C1099 1.429 . S
C1091 C1089 1.419 . S
C1091 C1092 1.363 . S
C1091 H1094 0.929 . S
C1092 C1091 1.363 . S
C1092 C1098 1.428 . S
H1093 C1089 0.930 . S
H1094 C1091 0.929 . S
S1095 N1096 1.613 . S
S1095 N1097 1.610 . S
N1096 S1095 1.613 . S
N1096 C1099 1.350 . S
N1097 S1095 1.610 . S
N1097 C1098 1.351 . S
C1098 C1092 1.428 . S
C1098 N1097 1.351 . S
C1098 C1099 1.434 . S
C1099 C1090 1.429 . S
C1099 N1096 1.350 . S
C1099 C1098 1.434 . S
C1100 C1101 1.369 . S
C1100 C1102 1.419 . S
C1100 H1104 0.930 . S
C1101 C1100 1.369 . S
C1101 C1110 1.429 . S
C1102 C1100 1.419 . S
C1102 C1103 1.363 . S
C1102 H1105 0.929 . S
C1103 C1102 1.363 . S
C1103 C1109 1.428 . S
H1104 C1100 0.930 . S
H1105 C1102 0.929 . S
S1106 N1107 1.613 . S
S1106 N1108 1.610 . S
N1107 S1106 1.613 . S
N1107 C1110 1.350 . S
N1108 S1106 1.610 . S
N1108 C1109 1.351 . S
C1109 C1103 1.428 . S
C1109 N1108 1.351 . S
C1109 C1110 1.434 . S
C1110 C1101 1.429 . S
C1110 N1107 1.350 . S
C1110 C1109 1.434 . S
C1111 C1112 1.369 . S
C1111 C1113 1.419 1_455 S
C1111 H1115 0.930 . S
C1112 C1111 1.369 . S
C1112 C1121 1.437 . S
C1113 C1111 1.419 1_655 S
C1113 C1114 1.363 . S
C1113 H1116 0.929 . S
C1114 C1113 1.363 . S
C1114 C1120 1.428 . S
H1115 C1111 0.930 . S
H1116 C1113 0.929 . S
S1117 N1118 1.613 1_655 S
S1117 N1119 1.610 . S
N1118 S1117 1.613 1_455 S
N1118 C1121 1.356 . S
N1119 S1117 1.610 . S
N1119 C1120 1.351 . S
C1120 C1114 1.428 . S
C1120 N1119 1.351 . S
C1120 C1121 1.418 1_655 S
C1121 C1112 1.437 . S
C1121 N1118 1.356 . S
C1121 C1120 1.418 1_455 S
C1122 C1123 1.369 . S
C1122 C1124 1.419 . S
C1122 H1126 0.930 . S
C1123 C1122 1.369 . S
C1123 C1132 1.429 . S
C1124 C1122 1.419 . S
C1124 C1125 1.363 . S
C1124 H1127 0.929 . S
C1125 C1124 1.363 . S
C1125 C1131 1.428 . S
H1126 C1122 0.930 . S
H1127 C1124 0.929 . S
S1128 N1129 1.613 . S
S1128 N1130 1.610 . S
N1129 S1128 1.613 . S
N1129 C1132 1.350 . S
N1130 S1128 1.610 . S
N1130 C1131 1.351 . S
C1131 C1125 1.428 . S
C1131 N1130 1.351 . S
C1131 C1132 1.434 . S
C1132 C1123 1.429 . S
C1132 N1129 1.350 . S
C1132 C1131 1.434 . S
C1133 C1134 1.369 1_455 S
C1133 C1135 1.419 . S
C1133 H1137 0.930 . S
C1134 C1133 1.369 1_655 S
C1134 C1143 1.429 . S
C1135 C1133 1.419 . S
C1135 C1136 1.363 . S
C1135 H1138 0.929 . S
C1136 C1135 1.363 . S
C1136 C1142 1.428 . S
H1137 C1133 0.930 . S
H1138 C1135 0.929 . S
S1139 N1140 1.613 . S
S1139 N1141 1.610 1_655 S
N1140 S1139 1.613 . S
N1140 C1143 1.350 . S
N1141 S1139 1.610 1_455 S
N1141 C1142 1.351 . S
C1142 C1136 1.428 . S
C1142 N1141 1.351 . S
C1142 C1143 1.434 1_455 S
C1143 C1134 1.429 . S
C1143 N1140 1.350 . S
C1143 C1142 1.434 1_655 S
C1144 C1145 1.369 . S
C1144 C1146 1.419 . S
C1144 H1148 0.930 . S
C1145 C1144 1.369 . S
C1145 C1154 1.429 . S
C1146 C1144 1.419 . S
C1146 C1147 1.363 . S
C1146 H1149 0.929 . S
C1147 C1146 1.363 . S
C1147 C1153 1.428 . S
H1148 C1144 0.930 . S
H1149 C1146 0.929 . S
S1150 N1151 1.613 . S
S1150 N1152 1.610 . S
N1151 S1150 1.613 . S
N1151 C1154 1.350 . S
N1152 S1150 1.610 . S
N1152 C1153 1.351 . S
C1153 C1147 1.428 . S
C1153 N1152 1.351 . S
C1153 C1154 1.434 . S
C1154 C1145 1.429 . S
C1154 N1151 1.350 . S
C1154 C1153 1.434 . S
C1155 C1156 1.369 . S
C1155 C1157 1.419 . S
C1155 H1159 0.930 . S
C1156 C1155 1.369 . S
C1156 C1165 1.429 . S
C1157 C1155 1.419 . S
C1157 C1158 1.363 . S
C1157 H1160 0.929 . S
C1158 C1157 1.363 . S
C1158 C1164 1.428 . S
H1159 C1155 0.930 . S
H1160 C1157 0.929 . S
S1161 N1162 1.641 1_556 S
S1161 N1163 1.609 . S
N1162 S1161 1.641 1_554 S
N1162 C1165 1.350 1_554 S
N1163 S1161 1.609 . S
N1163 C1164 1.351 . S
C1164 C1158 1.428 . S
C1164 N1163 1.351 . S
C1164 C1165 1.434 . S
C1165 C1156 1.429 . S
C1165 N1162 1.350 1_556 S
C1165 C1164 1.434 . S
C1166 C1167 1.369 . S
C1166 C1168 1.419 . S
C1166 H1170 0.930 . S
C1167 C1166 1.369 . S
C1167 C1176 1.429 . S
C1168 C1166 1.419 . S
C1168 C1169 1.363 . S
C1168 H1171 0.929 . S
C1169 C1168 1.363 . S
C1169 C1175 1.428 . S
H1170 C1166 0.930 . S
H1171 C1168 0.929 . S
S1172 N1173 1.613 . S
S1172 N1174 1.610 . S
N1173 S1172 1.613 . S
N1173 C1176 1.350 . S
N1174 S1172 1.610 . S
N1174 C1175 1.351 . S
C1175 C1169 1.428 . S
C1175 N1174 1.351 . S
C1175 C1176 1.434 . S
C1176 C1167 1.429 . S
C1176 N1173 1.350 . S
C1176 C1175 1.434 . S
C1177 C1178 1.369 . S
C1177 C1179 1.419 1_554 S
C1177 H1181 0.930 . S
C1178 C1177 1.369 . S
C1178 C1187 1.429 . S
C1179 C1177 1.419 1_556 S
C1179 C1180 1.363 . S
C1179 H1182 0.929 . S
C1180 C1179 1.363 . S
C1180 C1186 1.428 . S
H1181 C1177 0.930 . S
H1182 C1179 0.929 . S
S1183 N1184 1.613 1_556 S
S1183 N1185 1.610 . S
N1184 S1183 1.613 1_554 S
N1184 C1187 1.350 . S
N1185 S1183 1.610 . S
N1185 C1186 1.351 . S
C1186 C1180 1.428 . S
C1186 N1185 1.351 . S
C1186 C1187 1.434 1_556 S
C1187 C1178 1.429 . S
C1187 N1184 1.350 . S
C1187 C1186 1.434 1_554 S
C1188 C1189 1.369 . S
C1188 C1190 1.419 . S
C1188 H1192 0.930 . S
C1189 C1188 1.369 . S
C1189 C1198 1.429 . S
C1190 C1188 1.419 . S
C1190 C1191 1.363 . S
C1190 H1193 0.929 . S
C1191 C1190 1.363 . S
C1191 C1197 1.428 . S
H1192 C1188 0.930 . S
H1193 C1190 0.929 . S
S1194 N1195 1.613 . S
S1194 N1196 1.610 . S
N1195 S1194 1.613 . S
N1195 C1198 1.350 . S
N1196 S1194 1.610 . S
N1196 C1197 1.351 . S
C1197 C1191 1.428 . S
C1197 N1196 1.351 . S
C1197 C1198 1.434 . S
C1198 C1189 1.429 . S
C1198 N1195 1.350 . S
C1198 C1197 1.434 . S
C1199 C1200 1.369 . S
C1199 C1201 1.419 . S
C1199 H1203 0.930 1_554 S
C1200 C1199 1.369 . S
C1200 C1209 1.429 . S
C1201 C1199 1.419 . S
C1201 C1202 1.363 . S
C1201 H1204 0.929 . S
C1202 C1201 1.363 . S
C1202 C1208 1.428 . S
H1203 C1199 0.930 1_556 S
H1204 C1201 0.929 . S
S1205 N1206 1.613 . S
S1205 N1207 1.610 . S
N1206 S1205 1.613 . S
N1206 C1209 1.350 . S
N1207 S1205 1.610 . S
N1207 C1208 1.351 . S
C1208 C1202 1.428 . S
C1208 N1207 1.351 . S
C1208 C1209 1.434 . S
C1209 C1200 1.429 . S
C1209 N1206 1.350 . S
C1209 C1208 1.434 . S
C1210 C1211 1.369 . S
C1210 C1212 1.419 . S
C1210 H1214 0.930 . S
C1211 C1210 1.369 . S
C1211 C1220 1.429 . S
C1212 C1210 1.419 . S
C1212 C1213 1.363 . S
C1212 H1215 0.929 . S
C1213 C1212 1.363 . S
C1213 C1219 1.428 . S
H1214 C1210 0.930 . S
H1215 C1212 0.929 . S
S1216 N1217 1.613 . S
S1216 N1218 1.610 . S
N1217 S1216 1.613 . S
N1217 C1220 1.350 . S
N1218 S1216 1.610 . S
N1218 C1219 1.351 . S
C1219 C1213 1.428 . S
C1219 N1218 1.351 . S
C1219 C1220 1.434 . S
C1220 C1211 1.429 . S
C1220 N1217 1.350 . S
C1220 C1219 1.434 . S
C1221 C1222 1.369 . S
C1221 C1223 1.419 . S
C1221 H1225 0.930 . S
C1222 C1221 1.369 . S
C1222 C1231 1.429 . S
C1223 C1221 1.419 . S
C1223 C1224 1.363 . S
C1223 H1226 0.929 . S
C1224 C1223 1.363 . S
C1224 C1230 1.428 . S
H1225 C1221 0.930 . S
H1226 C1223 0.929 . S
S1227 N1228 1.613 . S
S1227 N1229 1.610 . S
N1228 S1227 1.613 . S
N1228 C1231 1.350 . S
N1229 S1227 1.610 . S
N1229 C1230 1.351 . S
C1230 C1224 1.428 . S
C1230 N1229 1.351 . S
C1230 C1231 1.434 . S
C1231 C1222 1.429 . S
C1231 N1228 1.350 . S
C1231 C1230 1.434 . S
C1232 C1233 1.369 . S
C1232 C1234 1.419 . S
C1232 H1236 0.930 . S
C1233 C1232 1.369 . S
C1233 C1242 1.429 . S
C1234 C1232 1.419 . S
C1234 C1235 1.363 . S
C1234 H1237 0.929 . S
C1235 C1234 1.363 . S
C1235 C1241 1.428 . S
H1236 C1232 0.930 . S
H1237 C1234 0.929 . S
S1238 N1239 1.613 . S
S1238 N1240 1.610 . S
N1239 S1238 1.613 . S
N1239 C1242 1.350 . S
N1240 S1238 1.610 . S
N1240 C1241 1.351 . S
C1241 C1235 1.428 . S
C1241 N1240 1.351 . S
C1241 C1242 1.434 . S
C1242 C1233 1.429 . S
C1242 N1239 1.350 . S
C1242 C1241 1.434 . S
C1243 C1244 1.369 . S
C1243 C1245 1.419 . S
C1243 H1247 0.930 . S
C1244 C1243 1.369 . S
C1244 C1253 1.429 . S
C1245 C1243 1.419 . S
C1245 C1246 1.363 . S
C1245 H1248 0.929 . S
C1246 C1245 1.363 . S
C1246 C1252 1.428 . S
H1247 C1243 0.930 . S
H1248 C1245 0.929 . S
S1249 N1250 1.613 . S
S1249 N1251 1.610 . S
N1250 S1249 1.613 . S
N1250 C1253 1.350 . S
N1251 S1249 1.610 . S
N1251 C1252 1.351 . S
C1252 C1246 1.428 . S
C1252 N1251 1.351 . S
C1252 C1253 1.434 . S
C1253 C1244 1.429 . S
C1253 N1250 1.350 . S
C1253 C1252 1.434 . S
C1254 C1255 1.369 . S
C1254 C1256 1.419 . S
C1254 H1258 0.930 . S
C1255 C1254 1.369 . S
C1255 C1264 1.429 . S
C1256 C1254 1.419 . S
C1256 C1257 1.363 . S
C1256 H1259 0.929 . S
C1257 C1256 1.363 . S
C1257 C1263 1.428 . S
H1258 C1254 0.930 . S
H1259 C1256 0.929 . S
S1260 N1261 1.613 . S
S1260 N1262 1.610 . S
N1261 S1260 1.613 . S
N1261 C1264 1.350 . S
N1262 S1260 1.610 . S
N1262 C1263 1.351 . S
C1263 C1257 1.428 . S
C1263 N1262 1.351 . S
C1263 C1264 1.434 . S
C1264 C1255 1.429 . S
C1264 N1261 1.350 . S
C1264 C1263 1.434 . S
C1265 C1266 1.369 . S
C1265 C1267 1.419 . S
C1265 H1269 0.930 . S
C1266 C1265 1.369 . S
C1266 C1275 1.429 . S
C1267 C1265 1.419 . S
C1267 C1268 1.363 . S
C1267 H1270 0.929 . S
C1268 C1267 1.363 . S
C1268 C1274 1.428 . S
H1269 C1265 0.930 . S
H1270 C1267 0.929 . S
S1271 N1272 1.613 . S
S1271 N1273 1.610 . S
N1272 S1271 1.613 . S
N1272 C1275 1.350 . S
N1273 S1271 1.610 . S
N1273 C1274 1.351 . S
C1274 C1268 1.428 . S
C1274 N1273 1.351 . S
C1274 C1275 1.434 . S
C1275 C1266 1.429 . S
C1275 N1272 1.350 . S
C1275 C1274 1.434 . S
C1276 C1277 1.369 . S
C1276 C1278 1.419 . S
C1276 H1280 0.930 . S
C1277 C1276 1.369 . S
C1277 C1286 1.429 . S
C1278 C1276 1.419 . S
C1278 C1279 1.363 . S
C1278 H1281 0.929 . S
C1279 C1278 1.363 . S
C1279 C1285 1.428 . S
H1280 C1276 0.930 . S
H1281 C1278 0.929 . S
S1282 N1283 1.613 . S
S1282 N1284 1.610 . S
N1283 S1282 1.613 . S
N1283 C1286 1.350 . S
N1284 S1282 1.610 . S
N1284 C1285 1.351 . S
C1285 C1279 1.428 . S
C1285 N1284 1.351 . S
C1285 C1286 1.434 . S
C1286 C1277 1.429 . S
C1286 N1283 1.350 . S
C1286 C1285 1.434 . S
C1287 C1288 1.369 . S
C1287 C1289 1.419 . S
C1287 H1291 0.930 . S
C1288 C1287 1.369 . S
C1288 C1297 1.429 . S
C1289 C1287 1.419 . S
C1289 C1290 1.363 . S
C1289 H1292 0.929 . S
C1290 C1289 1.363 . S
C1290 C1296 1.428 . S
H1291 C1287 0.930 . S
H1292 C1289 0.929 . S
S1293 N1294 1.613 . S
S1293 N1295 1.610 . S
N1294 S1293 1.613 . S
N1294 C1297 1.350 . S
N1295 S1293 1.610 . S
N1295 C1296 1.351 . S
C1296 C1290 1.428 . S
C1296 N1295 1.351 . S
C1296 C1297 1.434 . S
C1297 C1288 1.429 . S
C1297 N1294 1.350 . S
C1297 C1296 1.434 . S
C1298 C1299 1.369 . S
C1298 C1300 1.419 . S
C1298 H1302 0.930 . S
C1299 C1298 1.369 . S
C1299 C1308 1.429 . S
C1300 C1298 1.419 . S
C1300 C1301 1.363 . S
C1300 H1303 0.929 . S
C1301 C1300 1.363 . S
C1301 C1307 1.428 . S
H1302 C1298 0.930 . S
H1303 C1300 0.929 . S
S1304 N1305 1.613 . S
S1304 N1306 1.610 . S
N1305 S1304 1.613 . S
N1305 C1308 1.350 . S
N1306 S1304 1.610 . S
N1306 C1307 1.351 . S
C1307 C1301 1.428 . S
C1307 N1306 1.351 . S
C1307 C1308 1.434 . S
C1308 C1299 1.429 . S
C1308 N1305 1.350 . S
C1308 C1307 1.434 . S
C1309 C1310 1.369 . S
C1309 C1311 1.456 . S
C1309 H1313 0.930 . S
C1310 C1309 1.369 . S
C1310 C1319 1.429 . S
C1311 C1309 1.456 . S
C1311 C1312 1.355 1_545 S
C1311 H1314 0.899 1_545 S
C1312 C1311 1.355 1_565 S
C1312 C1318 1.428 1_565 S
H1313 C1309 0.930 . S
H1314 C1311 0.899 1_565 S
S1315 N1316 1.613 . S
S1315 N1317 1.610 . S
N1316 S1315 1.613 . S
N1316 C1319 1.350 . S
N1317 S1315 1.610 . S
N1317 C1318 1.351 . S
C1318 C1312 1.428 1_545 S
C1318 N1317 1.351 . S
C1318 C1319 1.434 . S
C1319 C1310 1.429 . S
C1319 N1316 1.350 . S
C1319 C1318 1.434 . S
C795 C632 1.600 1_556 S
C793 C211 1.598 . S
C806 C647 1.731 . S
C804 C255 1.791 1_455 S
C815 C274 1.681 . S
C817 C660 1.682 . S
C828 C674 1.618 . S
C826 C157 1.667 1_655 S
C839 C686 1.612 . S
C837 C391 1.686 . S
C850 C700 1.529 . S
C848 C484 1.466 . S
C859 C450 1.722 . S
C861 C714 1.688 . S
C872 C729 1.608 . S
C870 C352 1.578 . S
C881 C430 1.642 . S
C883 C745 1.639 . S
C894 C758 1.622 . S
C892 C367 1.635 . S
C903 C411 1.596 . S
C905 C743 1.540 . S
C916 C756 1.705 . S
C914 C469 1.624 . S
C925 C294 1.792 . S
C927 C772 1.790 . S
C936 C177 1.657 . S
C938 C771 1.681 . S
C947 C196 1.704 . S
C949 C770 1.637 . S
C958 C235 1.683 . S
C960 C773 1.651 . S
C969 C133 1.677 . S
C971 C675 1.678 1_565 S
C980 C567 1.498 . S
C982 C673 1.472 . S
C993 C633 1.585 . S
C991 C601 1.609 . S
C1004 C644 1.730 . S
C1002 C328 1.748 . S
C1013 C172 1.676 . S
C1015 C689 1.661 . S
C1026 C730 1.831 . S
C1024 C445 1.833 . S
C1037 C687 1.682 . S
C1035 C372 1.651 1_545 S
C1048 C715 1.664 . S
C1046 C489 1.599 . S
C1059 C716 1.602 . S
C1057 C562 1.599 . S
C1068 C606 1.793 . S
C1070 C731 1.729 . S
C1079 C313 1.684 . S
C1081 C688 1.683 . S
C1092 C702 1.622 . S
C1090 C508 1.665 . S
C1101 C118 1.687 . S
C1103 C658 1.606 . S
C1114 C672 1.528 . S
C1112 C16 1.457 . S
C1125 C630 1.688 . S
C1123 C60 1.724 . S
C1136 C645 1.605 . S
C1134 C79 1.578 . S
C1145 C40 1.642 . S
C1147 C759 1.641 . S
C1156 C94 1.625 1_556 S
C1158 C744 1.629 . S
C1167 C138 1.596 . S
C1169 C757 1.540 . S
C1178 C1 1.623 . S
C1180 C742 1.705 . S
C1191 C786 1.791 . S
C1189 C333 1.793 . S
C1202 C785 1.683 . S
C1200 C528 1.653 1_554 S
C1213 C784 1.639 . S
C1211 C547 1.704 . S
C1222 C586 1.689 . S
C1224 C787 1.647 . S
C1233 C406 1.678 . S
C1235 C703 1.680 . S
C1246 C701 1.468 . S
C1244 C216 1.497 . S
C1257 C717 1.579 . S
C1255 C250 1.615 . S
C1268 C728 1.729 . S
C1266 C289 1.748 . S
C1277 C523 1.678 . S
C1279 C661 1.659 . S
C1290 C646 1.833 . S
C1288 C55 1.834 . S
C1299 C99 1.648 . S
C1301 C659 1.683 . S
C1312 C631 1.659 . S
C1310 C21 1.597 . S
