# Generated by pormake.
# Topology anh, (6,3)-cn, num edge types: 1
# Building blocks:
#     Node 0, Type 0, BuildingBlock: GEDQOX_clean_sbu_0, # of connection points: 6
#     Node 1, Type 0, BuildingBlock: GEDQOX_clean_sbu_0, # of connection points: 6
#     Node 2, Type 0, BuildingBlock: GEDQOX_clean_sbu_0, # of connection points: 6
#     Node 3, Type 1, BuildingBlock: KAKCAD_clean_linker_0, # of connection points: 3
#     Node 4, Type 1, BuildingBlock: KAKCAD_clean_linker_0, # of connection points: 3
#     Node 5, Type 1, BuildingBlock: KAKCAD_clean_linker_0, # of connection points: 3
#     Node 6, Type 1, BuildingBlock: KAKCAD_clean_linker_0, # of connection points: 3
#     Node 7, Type 1, BuildingBlock: KAKCAD_clean_linker_0, # of connection points: 3
#     Node 8, Type 1, BuildingBlock: KAKCAD_clean_linker_0, # of connection points: 3
#     Edge 9, Type (0, 1), BuildingBlock: EZIPEK_clean_linker_0, # of connection points: 2
#     Edge 10, Type (0, 1), BuildingBlock: EZIPEK_clean_linker_0, # of connection points: 2
#     Edge 11, Type (0, 1), BuildingBlock: EZIPEK_clean_linker_0, # of connection points: 2
#     Edge 12, Type (0, 1), BuildingBlock: EZIPEK_clean_linker_0, # of connection points: 2
#     Edge 13, Type (0, 1), BuildingBlock: EZIPEK_clean_linker_0, # of connection points: 2
#     Edge 14, Type (0, 1), BuildingBlock: EZIPEK_clean_linker_0, # of connection points: 2
#     Edge 15, Type (0, 1), BuildingBlock: EZIPEK_clean_linker_0, # of connection points: 2
#     Edge 16, Type (0, 1), BuildingBlock: EZIPEK_clean_linker_0, # of connection points: 2
#     Edge 17, Type (0, 1), BuildingBlock: EZIPEK_clean_linker_0, # of connection points: 2
#     Edge 18, Type (0, 1), BuildingBlock: EZIPEK_clean_linker_0, # of connection points: 2
#     Edge 19, Type (0, 1), BuildingBlock: EZIPEK_clean_linker_0, # of connection points: 2
#     Edge 20, Type (0, 1), BuildingBlock: EZIPEK_clean_linker_0, # of connection points: 2
#     Edge 21, Type (0, 1), BuildingBlock: EZIPEK_clean_linker_0, # of connection points: 2
#     Edge 22, Type (0, 1), BuildingBlock: EZIPEK_clean_linker_0, # of connection points: 2
#     Edge 23, Type (0, 1), BuildingBlock: EZIPEK_clean_linker_0, # of connection points: 2
#     Edge 24, Type (0, 1), BuildingBlock: EZIPEK_clean_linker_0, # of connection points: 2
#     Edge 25, Type (0, 1), BuildingBlock: EZIPEK_clean_linker_0, # of connection points: 2
#     Edge 26, Type (0, 1), BuildingBlock: EZIPEK_clean_linker_0, # of connection points: 2
# Relax obj value: 0.207
# Max RMSD: 0.226
# Mean RMSD: 0.165
data_MOF--net-anh--node1-GEDQOX_clean_sbu_0--node2-KAKCAD_clean_linker_0--edge1-EZIPEK_clean_linker_0
_symmetry_space_group_name_H-M    P1
_symmetry_Int_Tables_number       1
_symmetry_cell_setting            triclinic
loop_
_symmetry_equiv_pos_as_xyz
'x, y, z'
_cell_length_a     28.390309
_cell_length_b     27.639213
_cell_length_c     52.968704
_cell_angle_alpha  93.013243
_cell_angle_beta   89.541561
_cell_angle_gamma 101.35017
loop_
_atom_site_label
_atom_site_type_symbol
_atom_site_fract_x
_atom_site_fract_y
_atom_site_fract_z
_atom_type_partial_charge
Nd0 Nd 0.11834 0.58286 0.1487 0.0
Nd1 Nd 0.09377 0.4721 0.14645 0.0
C2 C 0.15706 0.67746 0.14463 0.0
C3 C 0.20567 0.70726 0.1489 0.0
C4 C 0.22022 0.7517 0.13681 0.0
C5 C 0.26461 0.78238 0.14275 0.0
C6 C 0.29466 0.76902 0.16101 0.0
C7 C 0.28084 0.72379 0.17243 0.0
C8 C 0.23679 0.69302 0.16635 0.0
C9 C 1.09043 0.54345 0.19421 0.0
C10 C 0.20879 0.52334 0.14942 0.0
C11 C 1.07499 0.37681 0.1555 0.0
C12 C 1.03117 0.34002 0.16043 0.0
C13 C 0.99021 0.35502 0.1707 0.0
C14 C 0.95026 0.31994 0.17749 0.0
C15 C 0.95024 0.26932 0.17366 0.0
C16 C 0.99032 0.25426 0.16237 0.0
C17 C 1.0307 0.28944 0.15597 0.0
C18 C 0.09695 0.5134 0.10002 0.0
C19 C 1.00525 0.53107 0.14377 0.0
O20 O 0.1511 0.64552 0.12524 0.0
O21 O 0.13519 0.65953 0.16484 0.0
O22 O 1.07682 0.58185 0.18599 0.0
O23 O 0.11819 0.52757 0.17856 0.0
O24 O 0.19483 0.56611 0.1534 0.0
O25 O 0.17701 0.48168 0.14496 0.0
O26 O 1.08674 0.41212 0.17304 0.0
O27 O 1.08027 0.39296 0.1327 0.0
O28 O 1.06479 0.4755 0.10605 0.0
O29 O 0.12615 0.5265 0.11792 0.0
O30 O 1.01879 0.49227 0.15294 0.0
O31 O 1.03799 0.56879 0.1363 0.0
H32 H 0.19674 0.76328 0.12331 0.0
H33 H 0.27483 0.81723 0.13379 0.0
H34 H 0.30366 0.71292 0.18651 0.0
H35 H 0.22641 0.65883 0.17588 0.0
H36 H 0.98944 0.39384 0.17392 0.0
H37 H 0.91953 0.33222 0.18601 0.0
H38 H 0.99079 0.21532 0.1592 0.0
H39 H 1.06184 0.27715 0.14798 0.0
Nd40 Nd 0.53891 0.99994 0.52313 0.0
Nd41 Nd 0.64649 0.02247 0.51461 0.0
C42 C 0.45147 0.96388 0.53909 0.0
C43 C 0.41778 0.91877 0.53079 0.0
C44 C 0.37567 0.90223 0.5444 0.0
C45 C 0.34327 0.8598 0.53571 0.0
C46 C 0.35289 0.83391 0.51335 0.0
C47 C 0.39545 0.85 0.50006 0.0
C48 C 0.42777 0.89214 0.50876 0.0
C49 C 0.56398 1.00625 0.47294 0.0
C50 C 0.59805 0.90759 0.51707 0.0
C51 C 0.73367 0.05497 0.4973 0.0
C52 C 0.76459 0.10311 0.49276 0.0
C53 C 0.75054 0.13559 0.47603 0.0
C54 C 0.78136 0.18 0.47113 0.0
C55 C 0.82628 0.19272 0.48307 0.0
C56 C 0.83984 0.1612 0.50033 0.0
C57 C 0.80926 0.11651 0.50503 0.0
C58 C 0.62045 1.01179 0.56419 0.0
C59 C 0.58852 0.11532 0.52229 0.0
O60 O 0.49019 0.95699 0.55044 0.0
O61 O 0.46062 0.99742 0.52226 0.0
O62 O 0.52469 0.01702 0.48218 0.0
O63 O 0.58505 0.9873 0.48955 0.0
O64 O 0.55898 0.92308 0.52491 0.0
O65 O 0.63602 0.93836 0.50896 0.0
O66 O 0.69597 0.04096 0.48265 0.0
O67 O 0.72507 0.04475 0.52093 0.0
O68 O 0.65669 0.99591 0.55404 0.0
O69 O 0.60058 0.03475 0.54867 0.0
O70 O 0.62765 0.10014 0.51422 0.0
O71 O 0.55017 0.08379 0.52943 0.0
H72 H 0.36765 0.92237 0.56147 0.0
H73 H 0.31039 0.84768 0.54608 0.0
H74 H 0.40326 0.83032 0.48279 0.0
H75 H 0.46026 0.90447 0.49811 0.0
H76 H 0.71612 0.12649 0.46645 0.0
H77 H 0.77056 0.20412 0.45775 0.0
H78 H 0.87456 0.17065 0.50959 0.0
H79 H 0.82074 0.09208 0.51802 0.0
Nd80 Nd 0.51851 0.50959 0.83704 0.0
Nd81 Nd 0.62374 0.52747 0.84306 0.0
C82 C 0.42877 0.49326 0.82138 0.0
C83 C 0.40501 0.52705 0.80781 0.0
C84 C 0.42643 0.55024 0.78629 0.0
C85 C 0.41166 0.59196 0.77779 0.0
C86 C 0.37623 0.6115 0.79107 0.0
C87 C 0.352 0.58575 0.81104 0.0
C88 C 0.36613 0.54373 0.81928 0.0
C89 C 0.54822 0.52512 0.88673 0.0
C90 C 0.57213 0.62243 0.8403 0.0
C91 C 0.71583 0.55024 0.85441 0.0
C92 C 0.75497 0.52432 0.84854 0.0
C93 C 0.74582 0.47845 0.83482 0.0
C94 C 0.78348 0.45423 0.82863 0.0
C95 C 0.83041 0.4759 0.83611 0.0
C96 C 0.83939 0.52175 0.84975 0.0
C97 C 0.80183 0.54588 0.85593 0.0
C98 C 0.59423 0.51045 0.79358 0.0
C99 C 0.57161 0.41326 0.83833 0.0
O100 O 0.46226 0.47559 0.80913 0.0
O101 O 0.44135 0.50819 0.84462 0.0
O102 O 0.51255 0.54164 0.87775 0.0
O103 O 0.56506 0.499 0.87014 0.0
O104 O 0.53599 0.59177 0.82927 0.0
O105 O 0.60726 0.60568 0.8509 0.0
O106 O 0.6833 0.52875 0.86999 0.0
O107 O 0.6974 0.56673 0.83489 0.0
O108 O 0.62829 0.49219 0.80324 0.0
O109 O 0.57754 0.53771 0.80979 0.0
O110 O 0.61156 0.44372 0.84533 0.0
O111 O 0.53237 0.42949 0.83255 0.0
H112 H 0.45666 0.53827 0.77705 0.0
H113 H 0.43007 0.61088 0.76204 0.0
H114 H 0.32399 0.59994 0.8213 0.0
H115 H 0.34915 0.52659 0.83586 0.0
H116 H 0.70963 0.46157 0.82888 0.0
H117 H 0.77615 0.41881 0.81817 0.0
H118 H 0.8756 0.53876 0.85566 0.0
H119 H 0.80935 0.58132 0.86638 0.0
C120 C 0.62979 0.05684 0.35356 0.0
C121 C 0.60721 0.01403 0.36531 0.0
C122 C 0.63471 0.05656 0.32723 0.0
C123 C 0.61804 0.01312 0.31212 0.0
C124 C 0.59698 0.9699 0.32419 0.0
C125 C 0.59119 0.97051 0.35041 0.0
C126 C 0.62148 1.01293 0.28392 0.0
C127 C 0.66046 0.04245 0.27193 0.0
C128 C 0.66344 0.04244 0.24541 0.0
C129 C 0.6272 1.01199 0.2307 0.0
C130 C 0.58796 0.98225 0.24228 0.0
C131 C 0.58528 0.98334 0.2688 0.0
C132 C 0.54889 0.95059 0.22696 0.0
C133 C 0.52807 0.9695 0.20657 0.0
C134 C 0.53036 0.90188 0.23358 0.0
C135 C 0.49098 0.87327 0.22065 0.0
C136 C 0.46928 0.89286 0.20094 0.0
C137 C 0.70451 0.07451 0.23319 0.0
C138 C 0.71781 0.12475 0.24097 0.0
C139 C 0.73119 0.05507 0.21408 0.0
C140 C 0.77107 0.08509 0.20338 0.0
C141 C 0.7843 0.13519 0.21129 0.0
C142 C 0.75714 0.1549 0.22998 0.0
C143 C 0.48838 0.9409 0.19373 0.0
H144 H 0.64251 0.09079 0.36475 0.0
H145 H 0.65054 0.09076 0.31876 0.0
H146 H 0.58483 0.93537 0.31341 0.0
H147 H 0.57396 0.93697 0.35911 0.0
H148 H 0.68923 0.06481 0.28316 0.0
H149 H 0.55399 0.96194 0.27763 0.0
H150 H 0.62943 1.01168 0.21025 0.0
H151 H 0.54131 1.00699 0.20117 0.0
H152 H 0.54598 0.88614 0.24902 0.0
H153 H 0.47659 0.83626 0.22645 0.0
H154 H 0.69764 0.14073 0.25553 0.0
H155 H 0.72186 0.01641 0.20786 0.0
H156 H 0.47182 0.95659 0.17861 0.0
H157 H 0.76692 0.19346 0.23633 0.0
H158 H 0.79179 0.06926 0.18904 0.0
C159 C 0.55693 0.54672 0.6723 0.0
C160 C 0.59002 0.52561 0.68528 0.0
C161 C 0.55757 0.54611 0.64589 0.0
C162 C 0.5912 0.52416 0.63214 0.0
C163 C 0.62474 0.50375 0.64534 0.0
C164 C 0.62417 0.50454 0.67171 0.0
C165 C 0.59058 0.52138 0.60409 0.0
C166 C 0.58543 0.56234 0.59069 0.0
C167 C 0.58387 0.55987 0.56407 0.0
C168 C 0.58817 0.51521 0.55084 0.0
C169 C 0.59423 0.47399 0.56415 0.0
C170 C 0.59498 0.47751 0.59069 0.0
C171 C 0.59881 0.42619 0.55112 0.0
C172 C 0.56452 0.40231 0.53322 0.0
C173 C 0.6341 0.4011 0.55921 0.0
C174 C 0.63307 0.35206 0.55109 0.0
C175 C 0.59695 0.32722 0.53459 0.0
C176 C 0.57979 0.60513 0.55075 0.0
C177 C 0.55125 0.63752 0.56111 0.0
C178 C 0.60784 0.61909 0.52931 0.0
C179 C 0.60976 0.66572 0.51962 0.0
C180 C 0.58428 0.69929 0.5315 0.0
C181 C 0.55392 0.68424 0.55177 0.0
C182 C 0.56355 0.35299 0.52503 0.0
H183 H 0.53031 0.56302 0.6826 0.0
H184 H 0.53106 0.56174 0.63621 0.0
H185 H 0.65143 0.48717 0.63527 0.0
H186 H 0.65 0.48821 0.68155 0.0
H187 H 0.584 0.59678 0.60116 0.0
H188 H 0.59787 0.44538 0.60103 0.0
H189 H 0.58709 0.51254 0.53037 0.0
H190 H 0.53676 0.42064 0.52682 0.0
H191 H 0.66123 0.41877 0.5728 0.0
H192 H 0.65915 0.33274 0.5586 0.0
H193 H 0.52811 0.6275 0.57713 0.0
H194 H 0.63031 0.59522 0.52087 0.0
H195 H 0.53531 0.33419 0.51233 0.0
H196 H 0.53344 0.70937 0.56093 0.0
H197 H 0.63315 0.67669 0.50381 0.0
C198 C 0.17965 0.60278 0.99097 0.0
C199 C 0.16075 0.55437 -0.00219 0.0
C200 C 0.18826 0.61291 0.96555 0.0
C201 C 0.17931 0.57453 0.94661 0.0
C202 C 0.16478 0.52557 0.95397 0.0
C203 C 0.15461 0.51574 0.97918 0.0
C204 C 0.17905 0.58557 0.91937 0.0
C205 C 0.21087 0.62598 0.90947 0.0
C206 C 0.20603 0.6382 0.88426 0.0
C207 C 0.17016 0.60931 0.86885 0.0
C208 C 0.13982 0.56827 0.87817 0.0
C209 C 0.1439 0.55688 0.90331 0.0
C210 C 0.10067 0.53953 0.86249 0.0
C211 C 1.0632 0.56206 0.85533 0.0
C212 C 0.09774 0.48869 0.85711 0.0
C213 C 1.05642 0.46019 0.84575 0.0
C214 C 1.0172 0.48217 0.84074 0.0
C215 C 0.24085 0.67729 0.87244 0.0
C216 C 0.28882 0.67235 0.87044 0.0
C217 C 0.2245 0.7119 0.85796 0.0
C218 C 0.25387 0.73629 0.83936 0.0
C219 C 0.29946 0.72531 0.83456 0.0
C220 C 0.31787 0.69604 0.85165 0.0
C221 C 1.0216 0.5335 0.8447 0.0
H222 H 0.18514 0.63305 0.00516 0.0
H223 H 0.19929 0.65104 0.96071 0.0
H224 H 0.15923 0.49477 0.9401 0.0
H225 H 0.14071 0.47804 0.98408 0.0
H226 H 0.23914 0.64788 0.92119 0.0
H227 H 0.11777 0.5268 0.91053 0.0
H228 H 0.16664 0.6179 0.84928 0.0
H229 H 1.0649 0.60121 0.85941 0.0
H230 H 0.12665 0.47092 0.8625 0.0
H231 H 1.05378 0.42074 0.84243 0.0
H232 H 0.30223 0.64586 0.88138 0.0
H233 H 0.18765 0.71685 0.85957 0.0
H234 H 0.99175 0.55113 0.84075 0.0
H235 H 0.35298 0.68685 0.84892 0.0
H236 H 0.23939 0.76071 0.82765 0.0
C237 C 1.05187 0.52395 0.31567 0.0
C238 C 0.09465 0.52424 0.30219 0.0
C239 C 1.05142 0.52199 0.34195 0.0
C240 C 0.09391 0.52102 0.35516 0.0
C241 C 0.1367 0.5212 0.34163 0.0
C242 C 0.13697 0.52236 0.3153 0.0
C243 C 0.09348 0.51997 0.38304 0.0
C244 C 1.05884 0.48561 0.3951 0.0
C245 C 1.05784 0.48439 0.42156 0.0
C246 C 1.09153 0.51851 0.43599 0.0
C247 C 0.12613 0.55355 0.42418 0.0
C248 C 0.12719 0.55366 0.39765 0.0
C249 C 0.15999 0.59121 0.4395 0.0
C250 C 0.14339 0.61619 0.46054 0.0
C251 C 0.20866 0.60383 0.43266 0.0
C252 C 0.23982 0.64147 0.44622 0.0
C253 C 0.22271 0.66703 0.46675 0.0
C254 C 1.02234 0.44645 0.43392 0.0
C255 C 0.97419 0.43569 0.42581 0.0
C256 C 1.03693 0.41884 0.4529 0.0
C257 C 1.00444 0.37983 0.46281 0.0
C258 C 0.95695 0.36822 0.45398 0.0
C259 C 0.9417 0.39685 0.43581 0.0
C260 C 0.17454 0.6539 0.47404 0.0
H261 H 1.01895 0.52554 0.30582 0.0
H262 H 1.01807 0.52217 0.35201 0.0
H263 H 0.16979 0.52005 0.35143 0.0
H264 H 0.17026 0.52248 0.30513 0.0
H265 H 1.03344 0.45887 0.38379 0.0
H266 H 0.15316 0.5811 0.38834 0.0
H267 H 1.09072 0.51786 0.45643 0.0
H268 H 0.10598 0.60766 0.46608 0.0
H269 H 0.22253 0.58485 0.41671 0.0
H270 H 0.27699 0.65139 0.44041 0.0
H271 H 0.96191 0.45679 0.41142 0.0
H272 H 1.0739 0.42609 0.45933 0.0
H273 H 0.16089 0.67362 0.48979 0.0
H274 H 0.90508 0.3881 0.42882 0.0
H275 H 1.01664 0.35771 0.47675 0.0
C276 C 0.55306 0.98519 0.68428 0.0
C277 C 0.59355 0.01324 0.6729 0.0
C278 C 0.54955 0.98471 0.71063 0.0
C279 C 0.58594 0.01317 0.72598 0.0
C280 C 0.62603 0.04185 0.71457 0.0
C281 C 0.63003 0.04148 0.68825 0.0
C282 C 0.58194 0.01336 0.75386 0.0
C283 C 0.57464 0.969 0.76627 0.0
C284 C 0.57099 0.96869 0.79282 0.0
C285 C 0.5739 0.01413 0.80688 0.0
C286 C 0.58142 0.05898 0.79451 0.0
C287 C 0.58573 0.05805 0.76806 0.0
C288 C 0.58374 0.10752 0.80839 0.0
C289 C 0.54496 0.11691 0.82326 0.0
C290 C 0.6217 0.14695 0.80356 0.0
C291 C 0.61954 0.1952 0.81197 0.0
C292 C 0.5793 0.20506 0.82529 0.0
C293 C 0.5663 0.92073 0.80531 0.0
C294 C 0.53804 0.87744 0.79407 0.0
C295 C 0.59355 0.91664 0.82694 0.0
C296 C 0.5945 0.87012 0.83616 0.0
C297 C 0.56837 0.827 0.82386 0.0
C298 C 0.53945 0.83115 0.80309 0.0
C299 C 0.54263 0.16548 0.83156 0.0
H300 H 0.52451 0.96326 0.67274 0.0
H301 H 0.51816 0.96261 0.71904 0.0
H302 H 0.65457 0.06395 0.72605 0.0
H303 H 0.6616 0.06323 0.67982 0.0
H304 H 0.57349 0.93475 0.75513 0.0
H305 H 0.59079 0.0923 0.75837 0.0
H306 H 0.57061 0.01471 0.82728 0.0
H307 H 0.51504 0.08725 0.82701 0.0
H308 H 0.65202 0.14069 0.79217 0.0
H309 H 0.64812 0.22524 0.80692 0.0
H310 H 0.51589 0.87915 0.77771 0.0
H311 H 0.61598 0.94906 0.83596 0.0
H312 H 0.51118 0.17245 0.84171 0.0
H313 H 0.51911 0.79839 0.79329 0.0
H314 H 0.61714 0.86758 0.8522 0.0
C315 C 0.6125 0.49396 0.00501 0.0
C316 C 0.58412 0.52383 -0.00569 0.0
C317 C 0.61822 0.49479 0.03129 0.0
C318 C 0.59584 0.52574 0.0473 0.0
C319 C 0.56829 0.55634 0.03634 0.0
C320 C 0.56235 0.55522 0.01015 0.0
C321 C 0.59997 0.52547 0.07536 0.0
C322 C 0.64362 0.5229 0.08694 0.0
C323 C 0.64814 0.52333 0.11345 0.0
C324 C 0.60693 0.52671 0.12861 0.0
C325 C 0.56228 0.52909 0.11702 0.0
C326 C 0.55984 0.5281 0.09055 0.0
C327 C 0.51651 0.5327 0.13095 0.0
C328 C 0.48914 0.49156 0.14247 0.0
C329 C 0.49411 0.57291 0.12687 0.0
C330 C 0.4454 0.57109 0.13277 0.0
C331 C 0.41735 0.52899 0.14296 0.0
C332 C 0.69693 0.52063 0.12388 0.0
C333 C 0.72136 0.48412 0.11387 0.0
C334 C 0.7228 0.55834 0.14021 0.0
C335 C 0.77213 0.56064 0.14531 0.0
C336 C 0.79679 0.52514 0.13433 0.0
C337 C 0.77028 0.48627 0.11904 0.0
C338 C 0.44019 0.48979 0.14847 0.0
H339 H 0.62966 0.46959 -0.00698 0.0
H340 H 0.63931 0.47045 0.03907 0.0
H341 H 0.55132 0.58134 0.048 0.0
H342 H 0.54062 0.5788 0.00221 0.0
H343 H 0.6749 0.5218 0.07521 0.0
H344 H 0.52571 0.52869 0.08163 0.0
H345 H 0.60952 0.52734 0.14902 0.0
H346 H 0.50462 0.45941 0.14523 0.0
H347 H 0.51363 0.60471 0.11753 0.0
H348 H 0.42898 0.60179 0.12825 0.0
H349 H 0.7029 0.45465 0.10112 0.0
H350 H 0.70563 0.58752 0.14794 0.0
H351 H 0.41948 0.45672 0.1562 0.0
H352 H 0.78795 0.45829 0.11034 0.0
H353 H 0.79146 0.5911 0.15717 0.0
C354 C 0.29227 0.54051 0.16963 0.0
C355 C 0.26204 0.5229 0.14841 0.0
C356 C 0.33263 0.50334 0.12523 0.0
C357 C 0.36349 0.52476 0.14559 0.0
N358 N 0.37343 0.56897 0.18616 0.0
N359 N 0.25587 0.49716 0.1042 0.0
C360 C 0.34342 0.54484 0.16751 0.0
C361 C 0.28288 0.50653 0.12579 0.0
N362 N 0.27191 0.55145 0.19215 0.0
N363 N 0.35084 0.47971 0.10522 0.0
H364 H 0.22026 0.50133 0.10354 0.0
H365 H 0.2699 0.49031 0.08644 0.0
H366 H 0.38715 0.47813 0.10356 0.0
H367 H 0.32945 0.45833 0.09126 0.0
H368 H 0.29101 0.55964 0.20903 0.0
H369 H 0.23493 0.54834 0.19447 0.0
H370 H 0.36212 0.58958 0.20121 0.0
H371 H 0.41052 0.57106 0.1857 0.0
C372 C 0.85747 0.28409 0.48829 0.0
C373 C 0.86043 0.23773 0.47622 0.0
C374 C 0.9253 0.27735 0.44902 0.0
C375 C 0.92421 0.32328 0.46206 0.0
N376 N 0.89438 0.37066 0.49585 0.0
N377 N 0.90008 0.18821 0.44744 0.0
C378 C 0.89169 0.32677 0.48222 0.0
C379 C 0.8953 0.23377 0.45728 0.0
N380 N 0.82137 0.2873 0.50518 0.0
N381 N 0.95392 0.27573 0.4282 0.0
H382 H 0.87729 0.15548 0.45206 0.0
H383 H 0.9285 0.18226 0.43594 0.0
H384 H 0.97739 0.30664 0.42189 0.0
H385 H 0.95221 0.24461 0.41603 0.0
H386 H 0.81375 0.32054 0.51254 0.0
H387 H 0.79682 0.25648 0.51078 0.0
H388 H 0.87525 0.37469 0.5124 0.0
H389 H 0.91846 0.40281 0.49154 0.0
C390 C 0.60813 0.70317 0.82166 0.0
C391 C 0.57517 0.67657 0.83872 0.0
C392 C 0.54081 0.75057 0.84831 0.0
C393 C 0.57374 0.77697 0.8312 0.0
N394 N 0.64454 0.78228 0.80531 0.0
N395 N 0.5154 0.6759 0.87125 0.0
C396 C 0.60932 0.75442 0.81911 0.0
C397 C 0.54305 0.70064 0.85296 0.0
N398 N 0.6366 0.67875 0.8069 0.0
N399 N 0.5064 0.77286 0.85941 0.0
H400 H 0.51595 0.63931 0.87489 0.0
H401 H 0.49447 0.69222 0.88403 0.0
H402 H 0.50522 0.80992 0.85727 0.0
H403 H 0.47752 0.75438 0.86961 0.0
H404 H 0.65687 0.69407 0.7918 0.0
H405 H 0.63766 0.64164 0.80868 0.0
H406 H 0.67458 0.76974 0.7983 0.0
H407 H 0.64589 0.81959 0.80248 0.0
C408 C 0.93114 0.53686 0.1179 0.0
C409 C 0.95208 0.53167 0.1417 0.0
C410 C 0.87075 0.52004 0.16076 0.0
C411 C 0.85067 0.52958 0.13743 0.0
N412 N 0.86431 0.55714 0.0951 0.0
N413 N 0.94218 0.52716 0.18682 0.0
C414 C 0.88174 0.54105 0.11643 0.0
C415 C 0.92189 0.52566 0.16341 0.0
N416 N 0.95759 0.53486 0.09636 0.0
N417 N 0.84087 0.50389 0.18021 0.0
H418 H 0.97916 0.53224 0.18962 0.0
H419 H 0.92291 0.52813 0.20358 0.0
H420 H 0.80361 0.49969 0.17908 0.0
H421 H 0.8526 0.49083 0.19665 0.0
H422 H 0.9431 0.53326 0.07826 0.0
H423 H 0.99283 0.52936 0.09647 0.0
H424 H 0.88613 0.57109 0.0802 0.0
H425 H 0.82871 0.56108 0.09331 0.0
C426 C 0.28239 0.7993 0.48555 0.0
C427 C 0.31744 0.79116 0.50291 0.0
C428 C 0.28679 0.70182 0.49869 0.0
C429 C 0.25468 0.70975 0.47967 0.0
N430 N 0.22526 0.76463 0.45248 0.0
N431 N 0.35711 0.73563 0.52444 0.0
C432 C 0.25323 0.75816 0.47247 0.0
C433 C 0.32073 0.74263 0.50912 0.0
N434 N 0.27668 0.84642 0.48182 0.0
N435 N 0.28404 0.65541 0.50711 0.0
H436 H 0.3816 0.76479 0.53309 0.0
H437 H 0.365 0.70113 0.52736 0.0
H438 H 0.26006 0.6246 0.49958 0.0
H439 H 0.30286 0.64786 0.52274 0.0
H440 H 0.24831 0.85463 0.47163 0.0
H441 H 0.29831 0.87762 0.49052 0.0
H442 H 0.22683 0.7984 0.44436 0.0
H443 H 0.20277 0.73546 0.44264 0.0
C444 C 0.57795 0.33261 0.85711 0.0
C445 C 0.57179 0.3594 0.8356 0.0
C446 C 0.5623 0.28308 0.80876 0.0
C447 C 0.57342 0.25727 0.82966 0.0
N448 N 0.59701 0.25796 0.87326 0.0
N449 N 0.57023 0.36222 0.79021 0.0
C450 C 0.58249 0.28212 0.85379 0.0
C451 C 0.56697 0.33516 0.81122 0.0
N452 N 0.57851 0.35515 0.88073 0.0
N453 N 0.54677 0.25772 0.78655 0.0
H454 H 0.57739 0.40065 0.79126 0.0
H455 H 0.57165 0.34702 0.77187 0.0
H456 H 0.5428 0.21945 0.78397 0.0
H457 H 0.53343 0.274 0.77156 0.0
H458 H 0.57766 0.33642 0.89732 0.0
H459 H 0.57634 0.39222 0.88377 0.0
H460 H 0.60937 0.27536 0.89053 0.0
H461 H 0.59976 0.22083 0.87156 0.0
C462 C 0.63412 0.83745 0.53196 0.0
C463 C 0.59853 0.85385 0.5177 0.0
C464 C 0.5554 0.76788 0.51058 0.0
C465 C 0.59157 0.7516 0.52429 0.0
N466 N 0.66959 0.76934 0.5443 0.0
N467 N 0.53101 0.83431 0.48905 0.0
C468 C 0.63245 0.78592 0.53358 0.0
C469 C 0.5608 0.81888 0.50572 0.0
N470 N 0.6676 0.8709 0.54553 0.0
N471 N 0.5153 0.73465 0.50269 0.0
H472 H 0.53421 0.87116 0.48474 0.0
H473 H 0.50581 0.81039 0.4778 0.0
H474 H 0.51153 0.69666 0.50449 0.0
H475 H 0.4847 0.74476 0.49565 0.0
H476 H 0.69006 0.86115 0.559 0.0
H477 H 0.67071 0.90891 0.545 0.0
H478 H 0.70289 0.79181 0.54837 0.0
H479 H 0.6687 0.73229 0.54749 0.0
C480 C 0.90033 0.46464 0.80935 0.0
C481 C 0.87125 0.45129 0.83064 0.0
C482 C 0.93868 0.43119 0.85312 0.0
C483 C 0.96927 0.45284 0.8337 0.0
N484 N 0.97945 0.47173 0.79015 0.0
N485 N 0.8566 0.4039 0.86748 0.0
C486 C 0.94974 0.46227 0.81043 0.0
C487 C 0.88843 0.42756 0.85056 0.0
N488 N 0.88133 0.48301 0.78918 0.0
N489 N 0.95779 0.41873 0.87487 0.0
H490 H 0.81965 0.40183 0.86571 0.0
H491 H 0.8661 0.38281 0.88161 0.0
H492 H 0.9943 0.41934 0.87707 0.0
H493 H 0.93775 0.40897 0.89101 0.0
H494 H 0.90154 0.49837 0.77407 0.0
H495 H 0.84475 0.48356 0.78799 0.0
H496 H 0.96763 0.47678 0.77211 0.0
H497 H 1.01591 0.47041 0.79128 0.0
C498 C 0.3364 0.84049 0.18888 0.0
C499 C 0.33928 0.80359 0.16955 0.0
C500 C 0.42704 0.83023 0.16831 0.0
C501 C 0.42441 0.86399 0.18915 0.0
N502 N 0.37794 0.89914 0.22092 0.0
N503 N 0.38641 0.76022 0.1418 0.0
C504 C 0.37939 0.86879 0.19979 0.0
C505 C 0.38439 0.79772 0.15943 0.0
N506 N 0.29243 0.84868 0.19666 0.0
N507 N 0.47029 0.82993 0.15681 0.0
H508 H 0.35579 0.73713 0.13412 0.0
H509 H 0.4182 0.75003 0.13574 0.0
H510 H 0.50225 0.85262 0.16317 0.0
H511 H 0.47428 0.80995 0.14 0.0
H512 H 0.28767 0.87862 0.20847 0.0
H513 H 0.26007 0.82736 0.18996 0.0
H514 H 0.34706 0.89987 0.23153 0.0
H515 H 0.40847 0.92178 0.22896 0.0
C516 C 0.56988 0.19054 0.54674 0.0
C517 C 0.58882 0.16961 0.52465 0.0
C518 C 0.61412 0.25318 0.50897 0.0
C519 C 0.59137 0.27286 0.52988 0.0
N520 N 0.53919 0.25944 0.56601 0.0
N521 N 0.62057 0.18109 0.48227 0.0
C522 C 0.56641 0.24117 0.54783 0.0
C523 C 0.6087 0.20097 0.50506 0.0
N524 N 0.55824 0.16333 0.56753 0.0
N525 N 0.64179 0.28443 0.4931 0.0
H526 H 0.61647 0.1433 0.47812 0.0
H527 H 0.63021 0.20188 0.46654 0.0
H528 H 0.64506 0.32273 0.49486 0.0
H529 H 0.66419 0.27268 0.4794 0.0
H530 H 0.54977 0.17858 0.58498 0.0
H531 H 0.56202 0.12684 0.56848 0.0
H532 H 0.51576 0.23699 0.57775 0.0
H533 H 0.53657 0.29658 0.56786 0.0
C534 C 0.39601 0.70311 0.79876 0.0
C535 C 0.36639 0.66104 0.78656 0.0
C536 C 0.29904 0.7034 0.78905 0.0
C537 C 0.32307 0.73303 0.80936 0.0
N538 N 0.39826 0.78212 0.82234 0.0
N539 N 0.29392 0.62672 0.76365 0.0
C540 C 0.37358 0.74119 0.80942 0.0
C541 C 0.31951 0.66384 0.77885 0.0
N542 N 0.44363 0.70387 0.80234 0.0
N543 N 0.25692 0.71262 0.78029 0.0
H544 H 0.30963 0.5983 0.75574 0.0
H545 H 0.25762 0.62368 0.7595 0.0
H546 H 0.24382 0.7436 0.78694 0.0
H547 H 0.23842 0.69323 0.76482 0.0
H548 H 0.46619 0.73141 0.81298 0.0
H549 H 0.46069 0.67669 0.79435 0.0
H550 H 0.43554 0.79191 0.82303 0.0
H551 H 0.37998 0.80775 0.83111 0.0
C552 C 0.91206 0.20956 0.20558 0.0
C553 C 0.90867 0.23228 0.18238 0.0
C554 C 0.82527 0.18729 0.17682 0.0
C555 C 0.82776 0.16695 0.20074 0.0
N556 N 0.87176 0.15874 0.23848 0.0
N557 N 0.86288 0.24516 0.1461 0.0
C558 C 0.87082 0.17791 0.21522 0.0
C559 C 0.8655 0.22158 0.16798 0.0
N560 N 0.95495 0.21814 0.21828 0.0
N561 N 0.78444 0.17335 0.16253 0.0
H562 H 0.89237 0.26824 0.13835 0.0
H563 H 0.83136 0.24384 0.13601 0.0
H564 H 0.75357 0.15024 0.16888 0.0
H565 H 0.78146 0.18236 0.14387 0.0
H566 H 0.96193 0.19887 0.2337 0.0
H567 H 0.98509 0.2433 0.21269 0.0
H568 H 0.89955 0.16945 0.2515 0.0
H569 H 0.84342 0.13302 0.24547 0.0
C570 C 0.14298 0.49494 0.06138 0.0
C571 C 0.11143 0.52264 0.07355 0.0
C572 C 0.1079 0.56687 0.03506 0.0
C573 C 0.14451 0.54414 0.02414 0.0
N574 N 0.20413 0.49402 0.02939 0.0
N575 N 1.07252 0.59281 0.0738 0.0
C576 C 0.16409 0.51013 0.03798 0.0
C577 C 0.09646 0.561 0.06097 0.0
N578 N 0.15247 0.45383 0.07195 0.0
N579 N 1.08243 0.59218 0.02054 0.0
H580 H 1.06462 0.59044 0.09295 0.0
H581 H 1.06496 0.62432 0.06604 0.0
H582 H 1.08788 0.59542 0.00117 0.0
H583 H 1.05239 0.60529 0.0272 0.0
H584 H 0.17125 0.42951 0.06254 0.0
H585 H 0.13855 0.44194 0.08934 0.0
H586 H 0.22257 0.47302 0.04001 0.0
H587 H 0.22183 0.50588 0.01283 0.0
C588 C 0.56425 0.04708 0.43133 0.0
C589 C 0.57773 1.00962 0.44562 0.0
C590 C 0.61968 0.98319 0.40816 0.0
C591 C 0.59911 0.01462 0.39317 0.0
N592 N 0.54293 0.0693 0.39003 0.0
N593 N 0.60878 0.93357 0.44452 0.0
C594 C 0.56888 0.04461 0.4046 0.0
C595 C 0.60317 0.97544 0.4333 0.0
N596 N 0.54872 0.08628 0.44308 0.0
N597 N 0.65534 0.96095 0.39853 0.0
H598 H 0.59321 0.92288 0.46164 0.0
H599 H 0.62347 0.90587 0.43517 0.0
H600 H 0.66895 0.96645 0.38032 0.0
H601 H 0.67468 0.94148 0.40954 0.0
H602 H 0.54313 0.11658 0.43345 0.0
H603 H 0.54696 0.09176 0.46262 0.0
H604 H 0.5166 0.08747 0.39746 0.0
H605 H 0.54399 0.06747 0.37033 0.0
C606 C 0.62518 0.55282 0.7543 0.0
C607 C 0.59128 0.51596 0.766 0.0
C608 C 0.55629 0.48541 0.72459 0.0
C609 C 0.58835 0.52406 0.71319 0.0
N610 N 0.64723 0.59975 0.7171 0.0
N611 N 0.52105 0.45085 0.76306 0.0
C612 C 0.62095 0.55941 0.72805 0.0
C613 C 0.55562 0.48349 0.75136 0.0
N614 N 0.66254 0.58028 0.76805 0.0
N615 N 0.52787 0.44941 0.70974 0.0
H616 H 0.52149 0.44624 0.7824 0.0
H617 H 0.49059 0.43046 0.75398 0.0
H618 H 0.52655 0.45013 0.69009 0.0
H619 H 0.50795 0.41706 0.71661 0.0
H620 H 0.69135 0.60376 0.76006 0.0
H621 H 0.66689 0.57683 0.78733 0.0
H622 H 0.66767 0.62967 0.72735 0.0
H623 H 0.6454 0.60537 0.69784 0.0
C624 C 0.61329 0.05747 0.60604 0.0
C625 C 0.61133 1.01216 0.59182 0.0
C626 C 0.60256 0.96805 0.6311 0.0
C627 C 0.59835 1.01248 0.64486 0.0
N628 N 0.58941 0.09753 0.64438 0.0
N629 N 0.59571 0.92299 0.59047 0.0
C630 C 0.60054 0.05663 0.632 0.0
C631 C 0.60348 0.96701 0.60426 0.0
N632 N 0.63038 0.10137 0.59533 0.0
N633 N 0.60793 0.92743 0.6436 0.0
H634 H 0.59559 0.92069 0.5708 0.0
H635 H 0.58487 0.88896 0.59848 0.0
H636 H 0.60886 0.92696 0.66326 0.0
H637 H 0.61622 0.89583 0.6345 0.0
H638 H 0.63702 0.13515 0.60567 0.0
H639 H 0.64248 0.10375 0.57671 0.0
H640 H 0.58598 0.12906 0.63516 0.0
H641 H 0.57889 0.09811 0.66329 0.0
C642 C 0.53962 0.48087 0.92734 0.0
C643 C 0.55749 0.52422 0.91422 0.0
C644 C 0.59791 0.56416 0.95281 0.0
C645 C 0.57678 0.5226 0.96646 0.0
N646 N 0.52175 0.44427 0.96785 0.0
N647 N 0.59551 0.6104 0.91546 0.0
C648 C 0.54626 0.48152 0.95401 0.0
C649 C 0.58425 0.56685 0.92725 0.0
N650 N 0.51588 0.43923 0.91438 0.0
N651 N 0.63212 0.60045 0.96409 0.0
H652 H 0.58568 0.61395 0.89687 0.0
H653 H 0.61047 0.64397 0.92476 0.0
H654 H 0.64338 0.59951 0.98273 0.0
H655 H 0.65253 0.62904 0.95434 0.0
H656 H 0.50737 0.40478 0.92216 0.0
H657 H 0.50706 0.43826 0.89526 0.0
H658 H 0.49487 0.41608 0.9604 0.0
H659 H 0.5255 0.44345 0.98738 0.0
C660 C 0.12373 0.57336 0.23696 0.0
C661 C 0.09336 0.53675 0.22159 0.0
C662 C 1.06996 0.48823 0.25863 0.0
C663 C 0.09525 0.52792 0.27434 0.0
N664 N 0.1394 0.61208 0.27885 0.0
N665 N 1.03298 0.46214 0.21782 0.0
C666 C 0.12042 0.57155 0.26363 0.0
C667 C 1.06524 0.49482 0.23241 0.0
N668 N 0.15671 0.6091 0.22611 0.0
N669 N 1.05174 0.44381 0.26862 0.0
H670 H 1.02898 0.46586 0.19855 0.0
H671 H 1.00774 0.43376 0.22513 0.0
H672 H 1.05511 0.43744 0.2877 0.0
H673 H 1.0372 0.41207 0.25766 0.0
H674 H 0.18312 0.63357 0.23641 0.0
H675 H 0.16091 0.61121 0.2066 0.0
H676 H 0.15356 0.64649 0.2719 0.0
H677 H 0.13699 0.61277 0.29851 0.0
loop_
_geom_bond_atom_site_label_1
_geom_bond_atom_site_label_2
_geom_bond_distance
_geom_bond_site_symmetry_2
_ccdc_geom_bond_type
Nd0 C2 2.836 . S
Nd0 O20 2.500 . S
Nd0 O21 2.492 . S
Nd0 O22 2.487 . S
Nd0 O23 2.682 . S
Nd0 O24 2.410 . S
Nd0 O29 2.414 . S
Nd0 O31 2.424 1_455 S
Nd1 C11 2.836 . S
Nd1 O23 2.414 1_655 S
Nd1 O25 2.424 1_655 S
Nd1 O26 2.500 . S
Nd1 O27 2.492 . S
Nd1 O28 2.487 . S
Nd1 O29 2.682 1_655 S
Nd1 O30 2.410 . S
C2 Nd0 2.836 . S
C2 C3 1.498 . S
C2 O20 1.258 . S
C2 O21 1.239 . S
C3 C2 1.498 . S
C3 C4 1.366 . S
C3 C8 1.407 . S
C4 C3 1.366 . S
C4 C5 1.392 . S
C4 H32 0.930 . S
C5 C4 1.392 . S
C5 C6 1.398 . S
C5 H33 0.929 . S
C6 C5 1.398 . S
C6 C7 1.352 . S
C7 C6 1.352 . S
C7 C8 1.384 . S
C7 H34 0.930 . S
C8 C3 1.407 . S
C8 C7 1.384 . S
C8 H35 0.929 . S
C9 O22 1.241 . S
C9 O23 1.273 . S
C10 O24 1.251 . S
C10 O25 1.268 . S
C11 Nd1 2.836 . S
C11 C12 1.498 . S
C11 O26 1.258 . S
C11 O27 1.239 . S
C12 C11 1.498 . S
C12 C13 1.366 . S
C12 C17 1.407 . S
C13 C12 1.366 . S
C13 C14 1.392 . S
C13 H36 0.930 . S
C14 C13 1.392 . S
C14 C15 1.398 . S
C14 H37 0.929 . S
C15 C14 1.398 . S
C15 C16 1.352 . S
C16 C15 1.352 . S
C16 C17 1.384 . S
C16 H38 0.930 . S
C17 C12 1.407 . S
C17 C16 1.384 . S
C17 H39 0.929 . S
C18 O28 1.241 1_455 S
C18 O29 1.273 . S
C19 O30 1.251 . S
C19 O31 1.268 . S
O20 Nd0 2.500 . S
O20 C2 1.258 . S
O21 Nd0 2.492 . S
O21 C2 1.239 . S
O22 Nd0 2.487 . S
O22 C9 1.241 . S
O23 Nd0 2.682 . S
O23 Nd1 2.414 1_455 S
O23 C9 1.273 . S
O24 Nd0 2.410 . S
O24 C10 1.251 . S
O25 Nd1 2.424 1_455 S
O25 C10 1.268 . S
O26 Nd1 2.500 . S
O26 C11 1.258 . S
O27 Nd1 2.492 . S
O27 C11 1.239 . S
O28 Nd1 2.487 . S
O28 C18 1.241 1_655 S
O29 Nd0 2.414 . S
O29 Nd1 2.682 1_455 S
O29 C18 1.273 . S
O30 Nd1 2.410 . S
O30 C19 1.251 . S
O31 Nd0 2.424 1_655 S
O31 C19 1.268 . S
H32 C4 0.930 . S
H33 C5 0.929 . S
H34 C7 0.930 . S
H35 C8 0.929 . S
H36 C13 0.930 . S
H37 C14 0.929 . S
H38 C16 0.930 . S
H39 C17 0.929 . S
Nd40 C42 2.826 1_545 S
Nd40 O60 2.490 1_545 S
Nd40 O61 2.483 1_545 S
Nd40 O62 2.487 1_545 S
Nd40 O63 2.683 . S
Nd40 O64 2.396 1_545 S
Nd40 O69 2.412 . S
Nd40 O71 2.439 . S
Nd41 C51 2.836 . S
Nd41 O63 2.414 . S
Nd41 O65 2.424 1_545 S
Nd41 O66 2.500 . S
Nd41 O67 2.492 . S
Nd41 O68 2.487 . S
Nd41 O69 2.682 . S
Nd41 O70 2.410 . S
C42 Nd40 2.826 1_565 S
C42 C43 1.498 . S
C42 O60 1.258 . S
C42 O61 1.239 . S
C43 C42 1.498 . S
C43 C44 1.366 . S
C43 C48 1.407 . S
C44 C43 1.366 . S
C44 C45 1.392 . S
C44 H72 0.930 . S
C45 C44 1.392 . S
C45 C46 1.398 . S
C45 H73 0.929 . S
C46 C45 1.398 . S
C46 C47 1.352 . S
C47 C46 1.352 . S
C47 C48 1.384 . S
C47 H74 0.930 . S
C48 C43 1.407 . S
C48 C47 1.384 . S
C48 H75 0.929 . S
C49 O62 1.238 1_545 S
C49 O63 1.273 . S
C50 O64 1.251 . S
C50 O65 1.268 . S
C51 Nd41 2.836 . S
C51 C52 1.498 . S
C51 O66 1.258 . S
C51 O67 1.239 . S
C52 C51 1.498 . S
C52 C53 1.366 . S
C52 C57 1.407 . S
C53 C52 1.366 . S
C53 C54 1.392 . S
C53 H76 0.930 . S
C54 C53 1.392 . S
C54 C55 1.398 . S
C54 H77 0.929 . S
C55 C54 1.398 . S
C55 C56 1.352 . S
C56 C55 1.352 . S
C56 C57 1.384 . S
C56 H78 0.930 . S
C57 C52 1.407 . S
C57 C56 1.384 . S
C57 H79 0.929 . S
C58 O68 1.241 . S
C58 O69 1.273 . S
C59 O70 1.251 . S
C59 O71 1.268 . S
O60 Nd40 2.490 1_565 S
O60 C42 1.258 . S
O61 Nd40 2.483 1_565 S
O61 C42 1.239 . S
O62 Nd40 2.487 1_565 S
O62 C49 1.238 1_565 S
O63 Nd40 2.683 . S
O63 Nd41 2.414 . S
O63 C49 1.273 . S
O64 Nd40 2.396 1_565 S
O64 C50 1.251 . S
O65 Nd41 2.424 1_565 S
O65 C50 1.268 . S
O66 Nd41 2.500 . S
O66 C51 1.258 . S
O67 Nd41 2.492 . S
O67 C51 1.239 . S
O68 Nd41 2.487 . S
O68 C58 1.241 . S
O69 Nd40 2.412 . S
O69 Nd41 2.682 . S
O69 C58 1.273 . S
O70 Nd41 2.410 . S
O70 C59 1.251 . S
O71 Nd40 2.439 . S
O71 C59 1.268 . S
H72 C44 0.930 . S
H73 C45 0.929 . S
H74 C47 0.930 . S
H75 C48 0.929 . S
H76 C53 0.930 . S
H77 C54 0.929 . S
H78 C56 0.930 . S
H79 C57 0.929 . S
Nd80 C82 2.836 . S
Nd80 O100 2.500 . S
Nd80 O101 2.492 . S
Nd80 O102 2.487 . S
Nd80 O103 2.682 . S
Nd80 O104 2.410 . S
Nd80 O109 2.414 . S
Nd80 O111 2.424 . S
Nd81 C91 2.836 . S
Nd81 O103 2.414 . S
Nd81 O105 2.424 . S
Nd81 O106 2.500 . S
Nd81 O107 2.492 . S
Nd81 O108 2.487 . S
Nd81 O109 2.682 . S
Nd81 O110 2.410 . S
C82 Nd80 2.836 . S
C82 C83 1.498 . S
C82 O100 1.258 . S
C82 O101 1.239 . S
C83 C82 1.498 . S
C83 C84 1.366 . S
C83 C88 1.407 . S
C84 C83 1.366 . S
C84 C85 1.392 . S
C84 H112 0.930 . S
C85 C84 1.392 . S
C85 C86 1.398 . S
C85 H113 0.929 . S
C86 C85 1.398 . S
C86 C87 1.352 . S
C87 C86 1.352 . S
C87 C88 1.384 . S
C87 H114 0.930 . S
C88 C83 1.407 . S
C88 C87 1.384 . S
C88 H115 0.929 . S
C89 O102 1.241 . S
C89 O103 1.273 . S
C90 O104 1.251 . S
C90 O105 1.268 . S
C91 Nd81 2.836 . S
C91 C92 1.498 . S
C91 O106 1.258 . S
C91 O107 1.239 . S
C92 C91 1.498 . S
C92 C93 1.366 . S
C92 C97 1.407 . S
C93 C92 1.366 . S
C93 C94 1.392 . S
C93 H116 0.930 . S
C94 C93 1.392 . S
C94 C95 1.398 . S
C94 H117 0.929 . S
C95 C94 1.398 . S
C95 C96 1.352 . S
C96 C95 1.352 . S
C96 C97 1.384 . S
C96 H118 0.930 . S
C97 C92 1.407 . S
C97 C96 1.384 . S
C97 H119 0.929 . S
C98 O108 1.241 . S
C98 O109 1.273 . S
C99 O110 1.251 . S
C99 O111 1.268 . S
O100 Nd80 2.500 . S
O100 C82 1.258 . S
O101 Nd80 2.492 . S
O101 C82 1.239 . S
O102 Nd80 2.487 . S
O102 C89 1.241 . S
O103 Nd80 2.682 . S
O103 Nd81 2.414 . S
O103 C89 1.273 . S
O104 Nd80 2.410 . S
O104 C90 1.251 . S
O105 Nd81 2.424 . S
O105 C90 1.268 . S
O106 Nd81 2.500 . S
O106 C91 1.258 . S
O107 Nd81 2.492 . S
O107 C91 1.239 . S
O108 Nd81 2.487 . S
O108 C98 1.241 . S
O109 Nd80 2.414 . S
O109 Nd81 2.682 . S
O109 C98 1.273 . S
O110 Nd81 2.410 . S
O110 C99 1.251 . S
O111 Nd80 2.424 . S
O111 C99 1.268 . S
H112 C84 0.930 . S
H113 C85 0.929 . S
H114 C87 0.930 . S
H115 C88 0.929 . S
H116 C93 0.930 . S
H117 C94 0.929 . S
H118 C96 0.930 . S
H119 C97 0.929 . S
C120 C121 1.386 . S
C120 C122 1.397 . S
C120 H144 0.931 . S
C121 C120 1.386 . S
C121 C125 1.397 1_545 S
C122 C120 1.397 . S
C122 C123 1.384 . S
C122 H145 0.930 . S
C123 C122 1.384 . S
C123 C124 1.377 1_545 S
C123 C126 1.481 . S
C124 C123 1.377 1_565 S
C124 C125 1.389 . S
C124 H146 0.929 . S
C125 C121 1.397 1_565 S
C125 C124 1.389 . S
C125 H147 0.931 . S
C126 C123 1.481 . S
C126 C127 1.387 . S
C126 C131 1.388 1_545 S
C127 C126 1.387 . S
C127 C128 1.401 . S
C127 H148 0.930 . S
C128 C127 1.401 . S
C128 C129 1.376 . S
C128 C137 1.511 . S
C129 C128 1.376 . S
C129 C130 1.392 1_545 S
C129 H150 0.931 . S
C130 C129 1.392 1_565 S
C130 C131 1.361 . S
C130 C132 1.500 . S
C131 C126 1.388 1_565 S
C131 C130 1.361 . S
C131 H149 0.934 . S
C132 C130 1.500 . S
C132 C133 1.371 . S
C132 C134 1.365 . S
C133 C132 1.371 . S
C133 C143 1.386 . S
C133 H151 0.931 . S
C134 C132 1.365 . S
C134 C135 1.409 . S
C134 H152 0.929 . S
C135 C134 1.409 . S
C135 C136 1.380 . S
C135 H153 0.930 . S
C136 C135 1.380 . S
C136 C143 1.357 . S
C137 C128 1.511 . S
C137 C138 1.341 . S
C137 C139 1.371 . S
C138 C137 1.341 . S
C138 C142 1.394 . S
C138 H154 0.930 . S
C139 C137 1.371 . S
C139 C140 1.392 . S
C139 H155 0.931 . S
C140 C139 1.392 . S
C140 C141 1.331 . S
C140 H158 0.932 . S
C141 C140 1.331 . S
C141 C142 1.336 . S
C142 C138 1.394 . S
C142 C141 1.336 . S
C142 H157 0.929 . S
C143 C133 1.386 . S
C143 C136 1.357 . S
C143 H156 0.928 . S
H144 C120 0.931 . S
H145 C122 0.930 . S
H146 C124 0.929 . S
H147 C125 0.931 . S
H148 C127 0.930 . S
H149 C131 0.934 . S
H150 C129 0.931 . S
H151 C133 0.931 . S
H152 C134 0.929 . S
H153 C135 0.930 . S
H154 C138 0.930 . S
H155 C139 0.931 . S
H156 C143 0.928 . S
H157 C142 0.929 . S
H158 C140 0.932 . S
C159 C160 1.386 . S
C159 C161 1.397 . S
C159 H183 0.931 . S
C160 C159 1.386 . S
C160 C164 1.397 . S
C161 C159 1.397 . S
C161 C162 1.384 . S
C161 H184 0.930 . S
C162 C161 1.384 . S
C162 C163 1.377 . S
C162 C165 1.481 . S
C163 C162 1.377 . S
C163 C164 1.389 . S
C163 H185 0.929 . S
C164 C160 1.397 . S
C164 C163 1.389 . S
C164 H186 0.931 . S
C165 C162 1.481 . S
C165 C166 1.387 . S
C165 C170 1.390 . S
C166 C165 1.387 . S
C166 C167 1.401 . S
C166 H187 0.930 . S
C167 C166 1.401 . S
C167 C168 1.376 . S
C167 C176 1.511 . S
C168 C167 1.376 . S
C168 C169 1.392 . S
C168 H189 0.931 . S
C169 C168 1.392 . S
C169 C170 1.361 . S
C169 C171 1.500 . S
C170 C165 1.390 . S
C170 C169 1.361 . S
C170 H188 0.931 . S
C171 C169 1.500 . S
C171 C172 1.371 . S
C171 C173 1.365 . S
C172 C171 1.371 . S
C172 C182 1.386 . S
C172 H190 0.931 . S
C173 C171 1.365 . S
C173 C174 1.409 . S
C173 H191 0.929 . S
C174 C173 1.409 . S
C174 C175 1.380 . S
C174 H192 0.930 . S
C175 C174 1.380 . S
C175 C182 1.357 . S
C176 C167 1.511 . S
C176 C177 1.341 . S
C176 C178 1.371 . S
C177 C176 1.341 . S
C177 C181 1.394 . S
C177 H193 0.930 . S
C178 C176 1.371 . S
C178 C179 1.392 . S
C178 H194 0.931 . S
C179 C178 1.392 . S
C179 C180 1.331 . S
C179 H197 0.932 . S
C180 C179 1.331 . S
C180 C181 1.336 . S
C181 C177 1.394 . S
C181 C180 1.336 . S
C181 H196 0.929 . S
C182 C172 1.386 . S
C182 C175 1.357 . S
C182 H195 0.928 . S
H183 C159 0.931 . S
H184 C161 0.930 . S
H185 C163 0.929 . S
H186 C164 0.931 . S
H187 C166 0.930 . S
H188 C170 0.931 . S
H189 C168 0.931 . S
H190 C172 0.931 . S
H191 C173 0.929 . S
H192 C174 0.930 . S
H193 C177 0.930 . S
H194 C178 0.931 . S
H195 C182 0.928 . S
H196 C181 0.929 . S
H197 C179 0.932 . S
C198 C199 1.386 . S
C198 C200 1.397 1_554 S
C198 H222 0.931 . S
C199 C198 1.386 . S
C199 C203 1.397 1_455 S
C200 C198 1.397 1_556 S
C200 C201 1.384 . S
C200 H223 0.930 . S
C201 C200 1.384 . S
C201 C202 1.377 1_455 S
C201 C204 1.481 . S
C202 C201 1.377 1_655 S
C202 C203 1.389 1_556 S
C202 H224 0.929 . S
C203 C199 1.397 1_655 S
C203 C202 1.389 1_554 S
C203 H225 0.931 . S
C204 C201 1.481 . S
C204 C205 1.387 . S
C204 C209 1.390 1_455 S
C205 C204 1.387 . S
C205 C206 1.401 . S
C205 H226 0.930 . S
C206 C205 1.401 . S
C206 C207 1.376 . S
C206 C215 1.511 . S
C207 C206 1.376 . S
C207 C208 1.392 1_455 S
C207 H228 0.931 . S
C208 C207 1.392 1_655 S
C208 C209 1.361 . S
C208 C210 1.500 . S
C209 C204 1.390 1_655 S
C209 C208 1.361 . S
C209 H227 0.931 . S
C210 C208 1.500 . S
C210 C211 1.371 . S
C210 C212 1.365 . S
C211 C210 1.371 . S
C211 C221 1.386 . S
C211 H229 0.931 . S
C212 C210 1.365 . S
C212 C213 1.409 . S
C212 H230 0.929 . S
C213 C212 1.409 . S
C213 C214 1.380 . S
C213 H231 0.930 . S
C214 C213 1.380 . S
C214 C221 1.357 . S
C215 C206 1.511 . S
C215 C216 1.341 . S
C215 C217 1.371 . S
C216 C215 1.341 . S
C216 C220 1.394 . S
C216 H232 0.930 . S
C217 C215 1.371 . S
C217 C218 1.392 . S
C217 H233 0.931 . S
C218 C217 1.392 . S
C218 C219 1.331 . S
C218 H236 0.932 . S
C219 C218 1.331 . S
C219 C220 1.336 . S
C220 C216 1.394 . S
C220 C219 1.336 . S
C220 H235 0.929 . S
C221 C211 1.386 . S
C221 C214 1.357 . S
C221 H234 0.928 . S
H222 C198 0.931 . S
H223 C200 0.930 . S
H224 C202 0.929 . S
H225 C203 0.931 . S
H226 C205 0.930 . S
H227 C209 0.931 . S
H228 C207 0.931 . S
H229 C211 0.931 . S
H230 C212 0.929 . S
H231 C213 0.930 . S
H232 C216 0.930 . S
H233 C217 0.931 . S
H234 C221 0.928 . S
H235 C220 0.929 . S
H236 C218 0.932 . S
C237 C238 1.386 1_655 S
C237 C239 1.397 . S
C237 H261 0.931 . S
C238 C237 1.386 1_455 S
C238 C242 1.397 . S
C239 C237 1.397 . S
C239 C240 1.398 . S
C239 H262 0.930 . S
C240 C239 1.398 . S
C240 C241 1.363 1_655 S
C240 C243 1.481 . S
C241 C240 1.363 1_455 S
C241 C242 1.389 . S
C241 H263 0.929 . S
C242 C238 1.397 . S
C242 C241 1.389 . S
C242 H264 0.931 . S
C243 C240 1.481 . S
C243 C244 1.387 . S
C243 C248 1.390 1_655 S
C244 C243 1.387 . S
C244 C245 1.401 . S
C244 H265 0.930 . S
C245 C244 1.401 . S
C245 C246 1.376 . S
C245 C254 1.511 . S
C246 C245 1.376 . S
C246 C247 1.392 1_655 S
C246 H267 0.931 . S
C247 C246 1.392 1_455 S
C247 C248 1.361 . S
C247 C249 1.500 . S
C248 C243 1.390 1_455 S
C248 C247 1.361 . S
C248 H266 0.931 . S
C249 C247 1.500 . S
C249 C250 1.371 . S
C249 C251 1.365 . S
C250 C249 1.371 . S
C250 C260 1.386 . S
C250 H268 0.931 . S
C251 C249 1.365 . S
C251 C252 1.409 . S
C251 H269 0.929 . S
C252 C251 1.409 . S
C252 C253 1.380 . S
C252 H270 0.930 . S
C253 C252 1.380 . S
C253 C260 1.357 . S
C254 C245 1.511 . S
C254 C255 1.341 . S
C254 C256 1.371 . S
C255 C254 1.341 . S
C255 C259 1.394 . S
C255 H271 0.930 . S
C256 C254 1.371 . S
C256 C257 1.392 . S
C256 H272 0.931 . S
C257 C256 1.392 . S
C257 C258 1.331 . S
C257 H275 0.932 . S
C258 C257 1.331 . S
C258 C259 1.336 . S
C259 C255 1.394 . S
C259 C258 1.336 . S
C259 H274 0.929 . S
C260 C250 1.386 . S
C260 C253 1.357 . S
C260 H273 0.928 . S
H261 C237 0.931 . S
H262 C239 0.930 . S
H263 C241 0.929 . S
H264 C242 0.931 . S
H265 C244 0.930 . S
H266 C248 0.931 . S
H267 C246 0.931 . S
H268 C250 0.931 . S
H269 C251 0.929 . S
H270 C252 0.930 . S
H271 C255 0.930 . S
H272 C256 0.931 . S
H273 C260 0.928 . S
H274 C259 0.929 . S
H275 C257 0.932 . S
C276 C277 1.383 1_565 S
C276 C278 1.397 . S
C276 H300 0.931 . S
C277 C276 1.383 1_545 S
C277 C281 1.400 . S
C278 C276 1.397 . S
C278 C279 1.384 1_565 S
C278 H301 0.930 . S
C279 C278 1.384 1_545 S
C279 C280 1.377 . S
C279 C282 1.481 . S
C280 C279 1.377 . S
C280 C281 1.389 . S
C280 H302 0.929 . S
C281 C277 1.400 . S
C281 C280 1.389 . S
C281 H303 0.931 . S
C282 C279 1.481 . S
C282 C283 1.387 1_545 S
C282 C287 1.390 . S
C283 C282 1.387 1_565 S
C283 C284 1.401 . S
C283 H304 0.930 . S
C284 C283 1.401 . S
C284 C285 1.376 1_565 S
C284 C293 1.511 . S
C285 C284 1.376 1_545 S
C285 C286 1.392 . S
C285 H306 0.931 . S
C286 C285 1.392 . S
C286 C287 1.361 . S
C286 C288 1.500 . S
C287 C282 1.390 . S
C287 C286 1.361 . S
C287 H305 0.931 . S
C288 C286 1.500 . S
C288 C289 1.371 . S
C288 C290 1.365 . S
C289 C288 1.371 . S
C289 C299 1.386 . S
C289 H307 0.931 . S
C290 C288 1.365 . S
C290 C291 1.409 . S
C290 H308 0.929 . S
C291 C290 1.409 . S
C291 C292 1.380 . S
C291 H309 0.930 . S
C292 C291 1.380 . S
C292 C299 1.357 . S
C293 C284 1.511 . S
C293 C294 1.341 . S
C293 C295 1.371 . S
C294 C293 1.341 . S
C294 C298 1.394 . S
C294 H310 0.930 . S
C295 C293 1.371 . S
C295 C296 1.392 . S
C295 H311 0.931 . S
C296 C295 1.392 . S
C296 C297 1.331 . S
C296 H314 0.932 . S
C297 C296 1.331 . S
C297 C298 1.336 . S
C298 C294 1.394 . S
C298 C297 1.336 . S
C298 H313 0.929 . S
C299 C289 1.386 . S
C299 C292 1.357 . S
C299 H312 0.928 . S
H300 C276 0.931 . S
H301 C278 0.930 . S
H302 C280 0.929 . S
H303 C281 0.931 . S
H304 C283 0.930 . S
H305 C287 0.931 . S
H306 C285 0.931 . S
H307 C289 0.931 . S
H308 C290 0.929 . S
H309 C291 0.930 . S
H310 C294 0.930 . S
H311 C295 0.931 . S
H312 C299 0.928 . S
H313 C298 0.929 . S
H314 C296 0.932 . S
C315 C316 1.386 1_554 S
C315 C317 1.397 . S
C315 H339 0.931 1_554 S
C316 C315 1.386 1_556 S
C316 C320 1.397 1_556 S
C317 C315 1.397 . S
C317 C318 1.384 . S
C317 H340 0.930 . S
C318 C317 1.384 . S
C318 C319 1.377 . S
C318 C321 1.481 . S
C319 C318 1.377 . S
C319 C320 1.389 . S
C319 H341 0.929 . S
C320 C316 1.397 1_554 S
C320 C319 1.389 . S
C320 H342 0.931 . S
C321 C318 1.481 . S
C321 C322 1.387 . S
C321 C326 1.390 . S
C322 C321 1.387 . S
C322 C323 1.401 . S
C322 H343 0.930 . S
C323 C322 1.401 . S
C323 C324 1.376 . S
C323 C332 1.511 . S
C324 C323 1.376 . S
C324 C325 1.392 . S
C324 H345 0.931 . S
C325 C324 1.392 . S
C325 C326 1.361 . S
C325 C327 1.500 . S
C326 C321 1.390 . S
C326 C325 1.361 . S
C326 H344 0.931 . S
C327 C325 1.500 . S
C327 C328 1.371 . S
C327 C329 1.365 . S
C328 C327 1.371 . S
C328 C338 1.386 . S
C328 H346 0.931 . S
C329 C327 1.365 . S
C329 C330 1.409 . S
C329 H347 0.929 . S
C330 C329 1.409 . S
C330 C331 1.380 . S
C330 H348 0.930 . S
C331 C330 1.380 . S
C331 C338 1.357 . S
C332 C323 1.511 . S
C332 C333 1.341 . S
C332 C334 1.371 . S
C333 C332 1.341 . S
C333 C337 1.394 . S
C333 H349 0.930 . S
C334 C332 1.371 . S
C334 C335 1.392 . S
C334 H350 0.931 . S
C335 C334 1.392 . S
C335 C336 1.331 . S
C335 H353 0.932 . S
C336 C335 1.331 . S
C336 C337 1.336 . S
C337 C333 1.394 . S
C337 C336 1.336 . S
C337 H352 0.929 . S
C338 C328 1.386 . S
C338 C331 1.357 . S
C338 H351 0.928 . S
H339 C315 0.931 1_556 S
H340 C317 0.930 . S
H341 C319 0.929 . S
H342 C320 0.931 . S
H343 C322 0.930 . S
H344 C326 0.931 . S
H345 C324 0.931 . S
H346 C328 0.931 . S
H347 C329 0.929 . S
H348 C330 0.930 . S
H349 C333 0.930 . S
H350 C334 0.931 . S
H351 C338 0.928 . S
H352 C337 0.929 . S
H353 C335 0.932 . S
C354 C355 1.363 . S
C354 C360 1.379 . S
C354 N362 1.356 . S
C355 C354 1.363 . S
C355 C361 1.363 . S
C356 C357 1.363 . S
C356 C361 1.379 . S
C356 N363 1.356 . S
C357 C356 1.363 . S
C357 C360 1.363 . S
N358 C360 1.356 . S
N358 H370 0.984 . S
N358 H371 0.985 . S
N359 C361 1.356 . S
N359 H364 0.984 . S
N359 H365 0.985 . S
C360 C354 1.379 . S
C360 C357 1.363 . S
C360 N358 1.356 . S
C361 C355 1.363 . S
C361 C356 1.379 . S
C361 N359 1.356 . S
N362 C354 1.356 . S
N362 H368 0.984 . S
N362 H369 0.984 . S
N363 C356 1.356 . S
N363 H366 0.984 . S
N363 H367 0.985 . S
H364 N359 0.984 . S
H365 N359 0.985 . S
H366 N363 0.984 . S
H367 N363 0.985 . S
H368 N362 0.984 . S
H369 N362 0.984 . S
H370 N358 0.984 . S
H371 N358 0.985 . S
C372 C373 1.363 . S
C372 C378 1.379 . S
C372 N380 1.356 . S
C373 C372 1.363 . S
C373 C379 1.363 . S
C374 C375 1.363 . S
C374 C379 1.379 . S
C374 N381 1.356 . S
C375 C374 1.363 . S
C375 C378 1.363 . S
N376 C378 1.356 . S
N376 H388 0.984 . S
N376 H389 0.985 . S
N377 C379 1.356 . S
N377 H382 0.984 . S
N377 H383 0.985 . S
C378 C372 1.379 . S
C378 C375 1.363 . S
C378 N376 1.356 . S
C379 C373 1.363 . S
C379 C374 1.379 . S
C379 N377 1.356 . S
N380 C372 1.356 . S
N380 H386 0.984 . S
N380 H387 0.984 . S
N381 C374 1.356 . S
N381 H384 0.984 . S
N381 H385 0.985 . S
H382 N377 0.984 . S
H383 N377 0.985 . S
H384 N381 0.984 . S
H385 N381 0.985 . S
H386 N380 0.984 . S
H387 N380 0.984 . S
H388 N376 0.984 . S
H389 N376 0.985 . S
C390 C391 1.363 . S
C390 C396 1.379 . S
C390 N398 1.356 . S
C391 C390 1.363 . S
C391 C397 1.363 . S
C392 C393 1.363 . S
C392 C397 1.379 . S
C392 N399 1.356 . S
C393 C392 1.363 . S
C393 C396 1.363 . S
N394 C396 1.356 . S
N394 H406 0.984 . S
N394 H407 0.985 . S
N395 C397 1.356 . S
N395 H400 0.984 . S
N395 H401 0.985 . S
C396 C390 1.379 . S
C396 C393 1.363 . S
C396 N394 1.356 . S
C397 C391 1.363 . S
C397 C392 1.379 . S
C397 N395 1.356 . S
N398 C390 1.356 . S
N398 H404 0.984 . S
N398 H405 0.984 . S
N399 C392 1.356 . S
N399 H402 0.984 . S
N399 H403 0.985 . S
H400 N395 0.984 . S
H401 N395 0.985 . S
H402 N399 0.984 . S
H403 N399 0.985 . S
H404 N398 0.984 . S
H405 N398 0.984 . S
H406 N394 0.984 . S
H407 N394 0.985 . S
C408 C409 1.363 . S
C408 C414 1.379 . S
C408 N416 1.356 . S
C409 C408 1.363 . S
C409 C415 1.363 . S
C410 C411 1.363 . S
C410 C415 1.379 . S
C410 N417 1.356 . S
C411 C410 1.363 . S
C411 C414 1.363 . S
N412 C414 1.356 . S
N412 H424 0.984 . S
N412 H425 0.985 . S
N413 C415 1.356 . S
N413 H418 0.984 . S
N413 H419 0.985 . S
C414 C408 1.379 . S
C414 C411 1.363 . S
C414 N412 1.356 . S
C415 C409 1.363 . S
C415 C410 1.379 . S
C415 N413 1.356 . S
N416 C408 1.356 . S
N416 H422 0.984 . S
N416 H423 0.984 . S
N417 C410 1.356 . S
N417 H420 0.984 . S
N417 H421 0.985 . S
H418 N413 0.984 . S
H419 N413 0.985 . S
H420 N417 0.984 . S
H421 N417 0.985 . S
H422 N416 0.984 . S
H423 N416 0.984 . S
H424 N412 0.984 . S
H425 N412 0.985 . S
C426 C427 1.363 . S
C426 C432 1.379 . S
C426 N434 1.356 . S
C427 C426 1.363 . S
C427 C433 1.363 . S
C428 C429 1.363 . S
C428 C433 1.379 . S
C428 N435 1.356 . S
C429 C428 1.363 . S
C429 C432 1.363 . S
N430 C432 1.356 . S
N430 H442 0.984 . S
N430 H443 0.985 . S
N431 C433 1.356 . S
N431 H436 0.984 . S
N431 H437 0.985 . S
C432 C426 1.379 . S
C432 C429 1.363 . S
C432 N430 1.356 . S
C433 C427 1.363 . S
C433 C428 1.379 . S
C433 N431 1.356 . S
N434 C426 1.356 . S
N434 H440 0.984 . S
N434 H441 0.984 . S
N435 C428 1.356 . S
N435 H438 0.984 . S
N435 H439 0.985 . S
H436 N431 0.984 . S
H437 N431 0.985 . S
H438 N435 0.984 . S
H439 N435 0.985 . S
H440 N434 0.984 . S
H441 N434 0.984 . S
H442 N430 0.984 . S
H443 N430 0.985 . S
C444 C445 1.363 . S
C444 C450 1.379 . S
C444 N452 1.356 . S
C445 C444 1.363 . S
C445 C451 1.363 . S
C446 C447 1.363 . S
C446 C451 1.379 . S
C446 N453 1.356 . S
C447 C446 1.363 . S
C447 C450 1.363 . S
N448 C450 1.356 . S
N448 H460 0.984 . S
N448 H461 0.985 . S
N449 C451 1.356 . S
N449 H454 0.984 . S
N449 H455 0.985 . S
C450 C444 1.379 . S
C450 C447 1.363 . S
C450 N448 1.356 . S
C451 C445 1.363 . S
C451 C446 1.379 . S
C451 N449 1.356 . S
N452 C444 1.356 . S
N452 H458 0.984 . S
N452 H459 0.984 . S
N453 C446 1.356 . S
N453 H456 0.984 . S
N453 H457 0.985 . S
H454 N449 0.984 . S
H455 N449 0.985 . S
H456 N453 0.984 . S
H457 N453 0.985 . S
H458 N452 0.984 . S
H459 N452 0.984 . S
H460 N448 0.984 . S
H461 N448 0.985 . S
C462 C463 1.363 . S
C462 C468 1.379 . S
C462 N470 1.356 . S
C463 C462 1.363 . S
C463 C469 1.363 . S
C464 C465 1.363 . S
C464 C469 1.379 . S
C464 N471 1.356 . S
C465 C464 1.363 . S
C465 C468 1.363 . S
N466 C468 1.356 . S
N466 H478 0.984 . S
N466 H479 0.985 . S
N467 C469 1.356 . S
N467 H472 0.984 . S
N467 H473 0.985 . S
C468 C462 1.379 . S
C468 C465 1.363 . S
C468 N466 1.356 . S
C469 C463 1.363 . S
C469 C464 1.379 . S
C469 N467 1.356 . S
N470 C462 1.356 . S
N470 H476 0.984 . S
N470 H477 0.984 . S
N471 C464 1.356 . S
N471 H474 0.984 . S
N471 H475 0.985 . S
H472 N467 0.984 . S
H473 N467 0.985 . S
H474 N471 0.984 . S
H475 N471 0.985 . S
H476 N470 0.984 . S
H477 N470 0.984 . S
H478 N466 0.984 . S
H479 N466 0.985 . S
C480 C481 1.363 . S
C480 C486 1.379 . S
C480 N488 1.356 . S
C481 C480 1.363 . S
C481 C487 1.363 . S
C482 C483 1.363 . S
C482 C487 1.379 . S
C482 N489 1.356 . S
C483 C482 1.363 . S
C483 C486 1.363 . S
N484 C486 1.356 . S
N484 H496 0.984 . S
N484 H497 0.985 . S
N485 C487 1.356 . S
N485 H490 0.984 . S
N485 H491 0.985 . S
C486 C480 1.379 . S
C486 C483 1.363 . S
C486 N484 1.356 . S
C487 C481 1.363 . S
C487 C482 1.379 . S
C487 N485 1.356 . S
N488 C480 1.356 . S
N488 H494 0.984 . S
N488 H495 0.984 . S
N489 C482 1.356 . S
N489 H492 0.984 . S
N489 H493 0.985 . S
H490 N485 0.984 . S
H491 N485 0.985 . S
H492 N489 0.984 . S
H493 N489 0.985 . S
H494 N488 0.984 . S
H495 N488 0.984 . S
H496 N484 0.984 . S
H497 N484 0.985 . S
C498 C499 1.363 . S
C498 C504 1.379 . S
C498 N506 1.356 . S
C499 C498 1.363 . S
C499 C505 1.363 . S
C500 C501 1.363 . S
C500 C505 1.379 . S
C500 N507 1.356 . S
C501 C500 1.363 . S
C501 C504 1.363 . S
N502 C504 1.356 . S
N502 H514 0.984 . S
N502 H515 0.985 . S
N503 C505 1.356 . S
N503 H508 0.984 . S
N503 H509 0.985 . S
C504 C498 1.379 . S
C504 C501 1.363 . S
C504 N502 1.356 . S
C505 C499 1.363 . S
C505 C500 1.379 . S
C505 N503 1.356 . S
N506 C498 1.356 . S
N506 H512 0.984 . S
N506 H513 0.984 . S
N507 C500 1.356 . S
N507 H510 0.984 . S
N507 H511 0.985 . S
H508 N503 0.984 . S
H509 N503 0.985 . S
H510 N507 0.984 . S
H511 N507 0.985 . S
H512 N506 0.984 . S
H513 N506 0.984 . S
H514 N502 0.984 . S
H515 N502 0.985 . S
C516 C517 1.363 . S
C516 C522 1.379 . S
C516 N524 1.356 . S
C517 C516 1.363 . S
C517 C523 1.363 . S
C518 C519 1.363 . S
C518 C523 1.379 . S
C518 N525 1.356 . S
C519 C518 1.363 . S
C519 C522 1.363 . S
N520 C522 1.356 . S
N520 H532 0.984 . S
N520 H533 0.985 . S
N521 C523 1.356 . S
N521 H526 0.984 . S
N521 H527 0.985 . S
C522 C516 1.379 . S
C522 C519 1.363 . S
C522 N520 1.356 . S
C523 C517 1.363 . S
C523 C518 1.379 . S
C523 N521 1.356 . S
N524 C516 1.356 . S
N524 H530 0.984 . S
N524 H531 0.984 . S
N525 C518 1.356 . S
N525 H528 0.984 . S
N525 H529 0.985 . S
H526 N521 0.984 . S
H527 N521 0.985 . S
H528 N525 0.984 . S
H529 N525 0.985 . S
H530 N524 0.984 . S
H531 N524 0.984 . S
H532 N520 0.984 . S
H533 N520 0.985 . S
C534 C535 1.363 . S
C534 C540 1.379 . S
C534 N542 1.356 . S
C535 C534 1.363 . S
C535 C541 1.363 . S
C536 C537 1.363 . S
C536 C541 1.379 . S
C536 N543 1.356 . S
C537 C536 1.363 . S
C537 C540 1.363 . S
N538 C540 1.356 . S
N538 H550 0.984 . S
N538 H551 0.985 . S
N539 C541 1.356 . S
N539 H544 0.984 . S
N539 H545 0.985 . S
C540 C534 1.379 . S
C540 C537 1.363 . S
C540 N538 1.356 . S
C541 C535 1.363 . S
C541 C536 1.379 . S
C541 N539 1.356 . S
N542 C534 1.356 . S
N542 H548 0.984 . S
N542 H549 0.984 . S
N543 C536 1.356 . S
N543 H546 0.984 . S
N543 H547 0.985 . S
H544 N539 0.984 . S
H545 N539 0.985 . S
H546 N543 0.984 . S
H547 N543 0.985 . S
H548 N542 0.984 . S
H549 N542 0.984 . S
H550 N538 0.984 . S
H551 N538 0.985 . S
C552 C553 1.363 . S
C552 C558 1.379 . S
C552 N560 1.356 . S
C553 C552 1.363 . S
C553 C559 1.363 . S
C554 C555 1.363 . S
C554 C559 1.379 . S
C554 N561 1.356 . S
C555 C554 1.363 . S
C555 C558 1.363 . S
N556 C558 1.356 . S
N556 H568 0.984 . S
N556 H569 0.985 . S
N557 C559 1.356 . S
N557 H562 0.984 . S
N557 H563 0.985 . S
C558 C552 1.379 . S
C558 C555 1.363 . S
C558 N556 1.356 . S
C559 C553 1.363 . S
C559 C554 1.379 . S
C559 N557 1.356 . S
N560 C552 1.356 . S
N560 H566 0.984 . S
N560 H567 0.984 . S
N561 C554 1.356 . S
N561 H564 0.984 . S
N561 H565 0.985 . S
H562 N557 0.984 . S
H563 N557 0.985 . S
H564 N561 0.984 . S
H565 N561 0.985 . S
H566 N560 0.984 . S
H567 N560 0.984 . S
H568 N556 0.984 . S
H569 N556 0.985 . S
C570 C571 1.363 . S
C570 C576 1.379 . S
C570 N578 1.356 . S
C571 C570 1.363 . S
C571 C577 1.363 . S
C572 C573 1.363 . S
C572 C577 1.379 . S
C572 N579 1.356 . S
C573 C572 1.363 . S
C573 C576 1.363 . S
N574 C576 1.356 . S
N574 H586 0.984 . S
N574 H587 0.985 . S
N575 C577 1.356 . S
N575 H580 0.984 . S
N575 H581 0.985 . S
C576 C570 1.379 . S
C576 C573 1.363 . S
C576 N574 1.356 . S
C577 C571 1.363 . S
C577 C572 1.379 . S
C577 N575 1.356 . S
N578 C570 1.356 . S
N578 H584 0.984 . S
N578 H585 0.984 . S
N579 C572 1.356 . S
N579 H582 0.984 . S
N579 H583 0.985 . S
H580 N575 0.984 . S
H581 N575 0.985 . S
H582 N579 0.984 . S
H583 N579 0.985 . S
H584 N578 0.984 . S
H585 N578 0.984 . S
H586 N574 0.984 . S
H587 N574 0.985 . S
C588 C589 1.363 . S
C588 C594 1.379 . S
C588 N596 1.356 . S
C589 C588 1.363 . S
C589 C595 1.363 1_545 S
C590 C591 1.363 . S
C590 C595 1.379 1_545 S
C590 N597 1.356 1_545 S
C591 C590 1.363 . S
C591 C594 1.363 . S
N592 C594 1.356 . S
N592 H604 0.984 . S
N592 H605 0.985 . S
N593 C595 1.356 . S
N593 H598 0.984 . S
N593 H599 0.985 . S
C594 C588 1.379 . S
C594 C591 1.363 . S
C594 N592 1.356 . S
C595 C589 1.363 1_565 S
C595 C590 1.379 1_565 S
C595 N593 1.356 . S
N596 C588 1.356 . S
N596 H602 0.984 . S
N596 H603 0.984 . S
N597 C590 1.356 1_565 S
N597 H600 0.984 . S
N597 H601 0.985 . S
H598 N593 0.984 . S
H599 N593 0.985 . S
H600 N597 0.984 . S
H601 N597 0.985 . S
H602 N596 0.984 . S
H603 N596 0.984 . S
H604 N592 0.984 . S
H605 N592 0.985 . S
C606 C607 1.363 . S
C606 C612 1.379 . S
C606 N614 1.356 . S
C607 C606 1.363 . S
C607 C613 1.363 . S
C608 C609 1.363 . S
C608 C613 1.379 . S
C608 N615 1.356 . S
C609 C608 1.363 . S
C609 C612 1.363 . S
N610 C612 1.356 . S
N610 H622 0.984 . S
N610 H623 0.985 . S
N611 C613 1.356 . S
N611 H616 0.984 . S
N611 H617 0.985 . S
C612 C606 1.379 . S
C612 C609 1.363 . S
C612 N610 1.356 . S
C613 C607 1.363 . S
C613 C608 1.379 . S
C613 N611 1.356 . S
N614 C606 1.356 . S
N614 H620 0.984 . S
N614 H621 0.984 . S
N615 C608 1.356 . S
N615 H618 0.984 . S
N615 H619 0.985 . S
H616 N611 0.984 . S
H617 N611 0.985 . S
H618 N615 0.984 . S
H619 N615 0.985 . S
H620 N614 0.984 . S
H621 N614 0.984 . S
H622 N610 0.984 . S
H623 N610 0.985 . S
C624 C625 1.363 . S
C624 C630 1.379 . S
C624 N632 1.356 . S
C625 C624 1.363 . S
C625 C631 1.363 1_545 S
C626 C627 1.363 1_565 S
C626 C631 1.379 . S
C626 N633 1.356 . S
C627 C626 1.363 1_545 S
C627 C630 1.363 . S
N628 C630 1.356 . S
N628 H640 0.984 . S
N628 H641 0.985 . S
N629 C631 1.356 . S
N629 H634 0.984 . S
N629 H635 0.985 . S
C630 C624 1.379 . S
C630 C627 1.363 . S
C630 N628 1.356 . S
C631 C625 1.363 1_565 S
C631 C626 1.379 . S
C631 N629 1.356 . S
N632 C624 1.356 . S
N632 H638 0.984 . S
N632 H639 0.984 . S
N633 C626 1.356 . S
N633 H636 0.984 . S
N633 H637 0.985 . S
H634 N629 0.984 . S
H635 N629 0.985 . S
H636 N633 0.984 . S
H637 N633 0.985 . S
H638 N632 0.984 . S
H639 N632 0.984 . S
H640 N628 0.984 . S
H641 N628 0.985 . S
C642 C643 1.363 . S
C642 C648 1.379 . S
C642 N650 1.356 . S
C643 C642 1.363 . S
C643 C649 1.363 . S
C644 C645 1.363 . S
C644 C649 1.379 . S
C644 N651 1.356 . S
C645 C644 1.363 . S
C645 C648 1.363 . S
N646 C648 1.356 . S
N646 H658 0.984 . S
N646 H659 0.985 . S
N647 C649 1.356 . S
N647 H652 0.984 . S
N647 H653 0.985 . S
C648 C642 1.379 . S
C648 C645 1.363 . S
C648 N646 1.356 . S
C649 C643 1.363 . S
C649 C644 1.379 . S
C649 N647 1.356 . S
N650 C642 1.356 . S
N650 H656 0.984 . S
N650 H657 0.984 . S
N651 C644 1.356 . S
N651 H654 0.984 . S
N651 H655 0.985 . S
H652 N647 0.984 . S
H653 N647 0.985 . S
H654 N651 0.984 . S
H655 N651 0.985 . S
H656 N650 0.984 . S
H657 N650 0.984 . S
H658 N646 0.984 . S
H659 N646 0.985 . S
C660 C661 1.363 . S
C660 C666 1.379 . S
C660 N668 1.356 . S
C661 C660 1.363 . S
C661 C667 1.363 1_455 S
C662 C663 1.363 1_655 S
C662 C667 1.379 . S
C662 N669 1.356 . S
C663 C662 1.363 1_455 S
C663 C666 1.363 . S
N664 C666 1.356 . S
N664 H676 0.984 . S
N664 H677 0.985 . S
N665 C667 1.356 . S
N665 H670 0.984 . S
N665 H671 0.985 . S
C666 C660 1.379 . S
C666 C663 1.363 . S
C666 N664 1.356 . S
C667 C661 1.363 1_655 S
C667 C662 1.379 . S
C667 N665 1.356 . S
N668 C660 1.356 . S
N668 H674 0.984 . S
N668 H675 0.984 . S
N669 C662 1.356 . S
N669 H672 0.984 . S
N669 H673 0.985 . S
H670 N665 0.984 . S
H671 N665 0.985 . S
H672 N669 0.984 . S
H673 N669 0.985 . S
H674 N668 0.984 . S
H675 N668 0.984 . S
H676 N664 0.984 . S
H677 N664 0.985 . S
C355 C10 3.201 . S
C357 C331 3.136 . S
C373 C55 1.296 . S
C375 C258 1.327 . S
C391 C90 2.019 . S
C393 C297 1.981 . S
C409 C19 3.108 . S
C411 C336 3.049 . S
C429 C253 1.386 . S
C427 C46 1.345 . S
C447 C292 2.120 . S
C445 C99 2.204 . S
C463 C50 2.022 . S
C465 C180 1.968 . S
C481 C95 0.929 . S
C483 C214 0.993 . S
C499 C6 1.363 . S
C501 C136 1.384 . S
C519 C175 2.066 . S
C517 C59 2.171 . S
C537 C219 0.560 . S
C535 C86 0.648 . S
C553 C15 1.407 . S
C555 C141 1.448 . S
C573 C199 1.107 . S
C571 C18 1.109 . S
C589 C49 1.457 . S
C591 C121 1.497 . S
C607 C98 1.328 . S
C609 C160 1.361 . S
C627 C277 1.376 . S
C625 C58 1.332 . S
C645 C316 1.794 . S
C643 C89 1.718 . S
C661 C9 1.451 . S
C663 C238 1.508 . S
