# Generated by pormake.
# Topology pyr, (3,6)-cn, num edge types: 1
# Building blocks:
#     Node 0, Type 0, BuildingBlock: MIDCAF_clean_linker_0, # of connection points: 3
#     Node 1, Type 0, BuildingBlock: MIDCAF_clean_linker_0, # of connection points: 3
#     Node 2, Type 0, BuildingBlock: MIDCAF_clean_linker_0, # of connection points: 3
#     Node 3, Type 0, BuildingBlock: MIDCAF_clean_linker_0, # of connection points: 3
#     Node 4, Type 0, BuildingBlock: MIDCAF_clean_linker_0, # of connection points: 3
#     Node 5, Type 0, BuildingBlock: MIDCAF_clean_linker_0, # of connection points: 3
#     Node 6, Type 0, BuildingBlock: MIDCAF_clean_linker_0, # of connection points: 3
#     Node 7, Type 0, BuildingBlock: MIDCAF_clean_linker_0, # of connection points: 3
#     Node 8, Type 1, BuildingBlock: MIDCAF_clean_sbu_0, # of connection points: 6
#     Node 9, Type 1, BuildingBlock: MIDCAF_clean_sbu_0, # of connection points: 6
#     Node 10, Type 1, BuildingBlock: MIDCAF_clean_sbu_0, # of connection points: 6
#     Node 11, Type 1, BuildingBlock: MIDCAF_clean_sbu_0, # of connection points: 6
#     Edge 12, Type (0, 1), BuildingBlock: CIFDUS_clean_linker_0, # of connection points: 2
#     Edge 13, Type (0, 1), BuildingBlock: CIFDUS_clean_linker_0, # of connection points: 2
#     Edge 14, Type (0, 1), BuildingBlock: CIFDUS_clean_linker_0, # of connection points: 2
#     Edge 15, Type (0, 1), BuildingBlock: CIFDUS_clean_linker_0, # of connection points: 2
#     Edge 16, Type (0, 1), BuildingBlock: CIFDUS_clean_linker_0, # of connection points: 2
#     Edge 17, Type (0, 1), BuildingBlock: CIFDUS_clean_linker_0, # of connection points: 2
#     Edge 18, Type (0, 1), BuildingBlock: CIFDUS_clean_linker_0, # of connection points: 2
#     Edge 19, Type (0, 1), BuildingBlock: CIFDUS_clean_linker_0, # of connection points: 2
#     Edge 20, Type (0, 1), BuildingBlock: CIFDUS_clean_linker_0, # of connection points: 2
#     Edge 21, Type (0, 1), BuildingBlock: CIFDUS_clean_linker_0, # of connection points: 2
#     Edge 22, Type (0, 1), BuildingBlock: CIFDUS_clean_linker_0, # of connection points: 2
#     Edge 23, Type (0, 1), BuildingBlock: CIFDUS_clean_linker_0, # of connection points: 2
#     Edge 24, Type (0, 1), BuildingBlock: CIFDUS_clean_linker_0, # of connection points: 2
#     Edge 25, Type (0, 1), BuildingBlock: CIFDUS_clean_linker_0, # of connection points: 2
#     Edge 26, Type (0, 1), BuildingBlock: CIFDUS_clean_linker_0, # of connection points: 2
#     Edge 27, Type (0, 1), BuildingBlock: CIFDUS_clean_linker_0, # of connection points: 2
#     Edge 28, Type (0, 1), BuildingBlock: CIFDUS_clean_linker_0, # of connection points: 2
#     Edge 29, Type (0, 1), BuildingBlock: CIFDUS_clean_linker_0, # of connection points: 2
#     Edge 30, Type (0, 1), BuildingBlock: CIFDUS_clean_linker_0, # of connection points: 2
#     Edge 31, Type (0, 1), BuildingBlock: CIFDUS_clean_linker_0, # of connection points: 2
#     Edge 32, Type (0, 1), BuildingBlock: CIFDUS_clean_linker_0, # of connection points: 2
#     Edge 33, Type (0, 1), BuildingBlock: CIFDUS_clean_linker_0, # of connection points: 2
#     Edge 34, Type (0, 1), BuildingBlock: CIFDUS_clean_linker_0, # of connection points: 2
#     Edge 35, Type (0, 1), BuildingBlock: CIFDUS_clean_linker_0, # of connection points: 2
# Relax obj value: 0.019
# Max RMSD: 0.062
# Mean RMSD: 0.023
data_MOF--net-pyr--node1-MIDCAF_clean_sbu_0--node2-MIDCAF_clean_linker_0--edge1-CIFDUS_clean_linker_0
_symmetry_space_group_name_H-M    P1
_symmetry_Int_Tables_number       1
_symmetry_cell_setting            triclinic
loop_
_symmetry_equiv_pos_as_xyz
'x, y, z'
_cell_length_a     39.212941
_cell_length_b     39.220321
_cell_length_c     39.178349
_cell_angle_alpha  89.780131
_cell_angle_beta   90.097406
_cell_angle_gamma 90.161882
loop_
_atom_site_label
_atom_site_type_symbol
_atom_site_fract_x
_atom_site_fract_y
_atom_site_fract_z
_atom_type_partial_charge
C0 C 0.18364 0.20993 0.34474 0.0
C1 C 0.19105 0.17541 0.35134 0.0
C2 C 0.21397 0.1586 0.32949 0.0
C3 C 0.22917 0.1757 0.30213 0.0
H4 H 0.3223 0.17994 0.24567 0.0
H5 H 0.37025 0.15408 0.21578 0.0
H6 H 0.34775 0.21579 0.12692 0.0
H7 H 0.30114 0.24243 0.15708 0.0
H8 H 0.2604 0.31414 0.17427 0.0
H9 H 0.23096 0.36063 0.14539 0.0
H10 H 0.1414 0.34116 0.2067 0.0
H11 H 0.17122 0.29565 0.23639 0.0
H12 H 0.19212 0.25346 0.31248 0.0
H13 H 0.16648 0.22393 0.36111 0.0
H14 H 0.21971 0.13182 0.33292 0.0
H15 H 0.24637 0.16165 0.28583 0.0
N16 N 0.26476 0.21405 0.24985 0.0
N17 N 0.2632 0.25729 0.20845 0.0
N18 N 0.22208 0.25588 0.25185 0.0
C19 C 0.2782 0.22888 0.22149 0.0
C20 C 0.23523 0.27103 0.22344 0.0
C21 C 0.23676 0.22741 0.26526 0.0
C22 C 0.30787 0.2134 0.20387 0.0
C23 C 0.32779 0.18812 0.21982 0.0
C24 C 0.35521 0.17314 0.20259 0.0
C25 C 0.36318 0.18287 0.16891 0.0
C26 C 0.34312 0.20814 0.15309 0.0
C27 C 0.31607 0.22333 0.17038 0.0
C28 C 0.21816 0.30095 0.2076 0.0
C29 C 0.23452 0.31999 0.18184 0.0
C30 C 0.21756 0.3466 0.16512 0.0
C31 C 0.18367 0.35471 0.17349 0.0
C32 C 0.16765 0.33618 0.19987 0.0
C33 C 0.18473 0.30981 0.21682 0.0
C34 C 0.22146 0.21 0.2953 0.0
C35 C 0.1985 0.22695 0.31692 0.0
C36 C 0.18647 0.88284 0.7036 0.0
C37 C 0.1774 0.8769 0.66937 0.0
C38 C 0.19542 0.8519 0.65109 0.0
C39 C 0.22219 0.83393 0.66632 0.0
H40 H 0.2778 0.74106 0.6636 0.0
H41 H 0.30481 0.69376 0.63394 0.0
H42 H 0.3967 0.7097 0.69292 0.0
H43 H 0.36943 0.75591 0.72327 0.0
H44 H 0.36298 0.80311 0.79257 0.0
H45 H 0.39626 0.83562 0.83441 0.0
H46 H 0.3287 0.92125 0.82116 0.0
H47 H 0.29529 0.88917 0.77991 0.0
H48 H 0.22027 0.87091 0.74489 0.0
H49 H 0.17285 0.90138 0.71874 0.0
H50 H 0.18977 0.84697 0.6245 0.0
H51 H 0.23598 0.81554 0.65112 0.0
N52 N 0.27638 0.79613 0.70052 0.0
N53 N 0.32143 0.7973 0.74007 0.0
N54 N 0.27869 0.83889 0.74208 0.0
C55 C 0.30567 0.78229 0.71298 0.0
C56 C 0.30804 0.82558 0.75482 0.0
C57 C 0.26265 0.82435 0.71506 0.0
C58 C 0.32139 0.75242 0.69589 0.0
C59 C 0.30369 0.73428 0.67045 0.0
C60 C 0.31925 0.70721 0.65327 0.0
C61 C 0.35299 0.69771 0.66096 0.0
C62 C 0.37046 0.71566 0.6867 0.0
C63 C 0.35485 0.74247 0.70404 0.0
C64 C 0.32658 0.84357 0.78257 0.0
C65 C 0.35498 0.82873 0.79886 0.0
C66 C 0.37395 0.8472 0.82293 0.0
C67 C 0.36513 0.88096 0.83073 0.0
C68 C 0.33617 0.89534 0.81535 0.0
C69 C 0.317 0.87684 0.79175 0.0
C70 C 0.23204 0.84083 0.70008 0.0
C71 C 0.21358 0.86518 0.71869 0.0
C72 C 0.71207 0.18218 0.86366 0.0
C73 C 0.67833 0.17347 0.85493 0.0
C74 C 0.66101 0.19408 0.83108 0.0
C75 C 0.67695 0.22223 0.81607 0.0
H76 H 0.6585 0.31189 0.75312 0.0
H77 H 0.63255 0.34799 0.70925 0.0
H78 H 0.73292 0.37312 0.67087 0.0
H79 H 0.75851 0.33886 0.71584 0.0
H80 H 0.78854 0.37018 0.80562 0.0
H81 H 0.83437 0.3988 0.83544 0.0
H82 H 0.86801 0.30201 0.87666 0.0
H83 H 0.82033 0.27369 0.84829 0.0
H84 H 0.754 0.21661 0.85606 0.0
H85 H 0.72633 0.16683 0.88171 0.0
H86 H 0.63472 0.18889 0.82432 0.0
H87 H 0.66253 0.23742 0.79801 0.0
N88 N 0.71212 0.27722 0.78174 0.0
N89 N 0.7557 0.31819 0.78112 0.0
N90 N 0.75632 0.27465 0.82233 0.0
C91 C 0.72663 0.30532 0.76744 0.0
C92 C 0.77065 0.3032 0.80858 0.0
C93 C 0.727 0.26148 0.80902 0.0
C94 C 0.71051 0.32303 0.73819 0.0
C95 C 0.67487 0.32492 0.73501 0.0
C96 C 0.66003 0.3455 0.70971 0.0
C97 C 0.68057 0.36411 0.68671 0.0
C98 C 0.71621 0.36019 0.68871 0.0
C99 C 0.73096 0.34032 0.71437 0.0
C100 C 0.80064 0.31965 0.82474 0.0
C101 C 0.80586 0.35491 0.82083 0.0
C102 C 0.83251 0.37135 0.83781 0.0
C103 C 0.85524 0.35294 0.85868 0.0
C104 C 0.85072 0.31733 0.86151 0.0
C105 C 0.82349 0.30096 0.84507 0.0
C106 C 0.71061 0.23101 0.82475 0.0
C107 C 0.72799 0.21068 0.84881 0.0
C108 C 0.69438 0.72679 0.3674 0.0
C109 C 0.69096 0.69112 0.37006 0.0
C110 C 0.71247 0.67054 0.35011 0.0
C111 C 0.73741 0.68523 0.32904 0.0
H112 H 0.80306 0.66706 0.24486 0.0
H113 H 0.83329 0.63675 0.20006 0.0
H114 H 0.88741 0.72922 0.17351 0.0
H115 H 0.85801 0.75925 0.21888 0.0
H116 H 0.87152 0.80822 0.28293 0.0
H117 H 0.8999 0.85792 0.30569 0.0
H118 H 0.81247 0.87867 0.36935 0.0
H119 H 0.78441 0.82754 0.34741 0.0
H120 H 0.72196 0.76892 0.34609 0.0
H121 H 0.67777 0.7436 0.38154 0.0
H122 H 0.71098 0.64301 0.35166 0.0
H123 H 0.75414 0.66862 0.31477 0.0
N124 N 0.78488 0.71963 0.28171 0.0
N125 N 0.82396 0.76444 0.27463 0.0
N126 N 0.78293 0.76731 0.31785 0.0
C127 C 0.8116 0.73374 0.2645 0.0
C128 C 0.80994 0.78139 0.30126 0.0
C129 C 0.77023 0.73646 0.30825 0.0
C130 C 0.82819 0.71557 0.23575 0.0
C131 C 0.82122 0.68102 0.22934 0.0
C132 C 0.83846 0.66367 0.20343 0.0
C133 C 0.86292 0.68049 0.18308 0.0
C134 C 0.86921 0.71527 0.18897 0.0
C135 C 0.85217 0.73254 0.21499 0.0
C136 C 0.82566 0.81367 0.31338 0.0
C137 C 0.85806 0.82344 0.30154 0.0
C138 C 0.87432 0.85231 0.31448 0.0
C139 C 0.85852 0.87266 0.33934 0.0
C140 C 0.82566 0.86343 0.35058 0.0
C141 C 0.80947 0.83418 0.33786 0.0
C142 C 0.74178 0.72081 0.32781 0.0
C143 C 0.71965 0.74139 0.34686 0.0
C144 C 0.80032 0.97095 0.90432 0.0
C145 C 0.78447 0.96197 0.93519 0.0
C146 C 0.79982 0.9372 0.95617 0.0
C147 C 0.83022 0.92155 0.94645 0.0
H148 H 0.88678 0.83407 0.96352 0.0
H149 H 0.9073 0.78356 0.99383 0.0
H150 H 0.9985 0.78438 0.93222 0.0
H151 H 0.97846 0.8348 0.90227 0.0
H152 H 0.97737 0.8811 0.83118 0.0
H153 H 0.0079 0.90553 0.78219 0.0
H154 H 0.94941 0.9981 0.79183 0.0
H155 H 0.91929 0.97418 0.84028 0.0
H156 H 0.84248 0.96302 0.87072 0.0
H157 H 0.78909 0.99 0.8877 0.0
H158 H 0.78792 0.92934 0.97988 0.0
H159 H 0.84115 0.90243 0.96319 0.0
N160 N 0.88955 0.88525 0.9217 0.0
N161 N 0.93697 0.88262 0.88529 0.0
N162 N 0.89671 0.92623 0.87864 0.0
C163 C 0.91884 0.86958 0.91197 0.0
C164 C 0.92608 0.91102 0.86856 0.0
C165 C 0.87828 0.91357 0.9051 0.0
C166 C 0.93099 0.8387 0.93042 0.0
C167 C 0.91128 0.82356 0.95647 0.0
C168 C 0.92292 0.79451 0.9738 0.0
C169 C 0.95463 0.78013 0.96568 0.0
C170 C 0.97422 0.79519 0.93959 0.0
C171 C 0.96257 0.82404 0.92219 0.0
C172 C 0.94578 0.92562 0.83965 0.0
C173 C 0.97127 0.90677 0.82296 0.0
C174 C 0.98867 0.92066 0.79487 0.0
C175 C 0.98128 0.95382 0.78336 0.0
C176 C 0.95617 0.9727 0.80042 0.0
C177 C 0.93863 0.9588 0.82808 0.0
C178 C 0.84616 0.93047 0.91558 0.0
C179 C 0.83096 0.95553 0.89471 0.0
C180 C 0.58007 0.07489 0.29986 0.0
C181 C 0.55793 0.09718 0.28253 0.0
C182 C 0.5503 0.12882 0.29724 0.0
C183 C 0.56449 0.13794 0.32871 0.0
H184 H 0.54502 0.19625 0.41462 0.0
H185 H 0.52345 0.24633 0.44359 0.0
H186 H 0.61168 0.24687 0.5097 0.0
H187 H 0.63368 0.19654 0.48047 0.0
H188 H 0.67546 0.12626 0.48344 0.0
H189 H 0.72643 0.09882 0.50499 0.0
H190 H 0.73443 0.04048 0.41209 0.0
H191 H 0.6832 0.06845 0.38999 0.0
H192 H 0.61173 0.06641 0.34356 0.0
H193 H 0.58682 0.05051 0.28889 0.0
H194 H 0.53328 0.14645 0.28445 0.0
H195 H 0.55816 0.16257 0.33931 0.0
N196 N 0.59038 0.15279 0.3964 0.0
N197 N 0.63207 0.14515 0.43858 0.0
N198 N 0.63015 0.10853 0.3914 0.0
C199 C 0.60479 0.16259 0.42635 0.0
C200 C 0.64491 0.11806 0.42134 0.0
C201 C 0.60282 0.12582 0.37878 0.0
C202 C 0.59117 0.19235 0.44509 0.0
C203 C 0.55987 0.20683 0.43541 0.0
C204 C 0.54731 0.23541 0.45224 0.0
C205 C 0.56577 0.2504 0.47909 0.0
C206 C 0.59696 0.23589 0.48904 0.0
C207 C 0.60946 0.20701 0.47234 0.0
C208 C 0.67517 0.09974 0.43487 0.0
C209 C 0.68782 0.10749 0.46753 0.0
C210 C 0.71698 0.09148 0.48007 0.0
C211 C 0.73439 0.06726 0.46036 0.0
C212 C 0.72165 0.05913 0.42782 0.0
C213 C 0.69222 0.07509 0.41527 0.0
C214 C 0.58703 0.11579 0.34587 0.0
C215 C 0.59457 0.08413 0.33108 0.0
C216 C 0.28408 0.55517 0.14392 0.0
C217 C 0.26732 0.55989 0.11258 0.0
C218 C 0.28212 0.58142 0.08792 0.0
C219 C 0.3129 0.59814 0.0945 0.0
H220 H 0.35841 0.69853 0.08506 0.0
H221 H 0.37289 0.75282 0.05764 0.0
H222 H 0.47839 0.73903 0.08594 0.0
H223 H 0.46409 0.68507 0.11356 0.0
H224 H 0.46693 0.64981 0.1953 0.0
H225 H 0.50149 0.62997 0.24352 0.0
H226 H 0.44486 0.53538 0.24492 0.0
H227 H 0.41069 0.55482 0.19705 0.0
H228 H 0.32759 0.56736 0.17474 0.0
H229 H 0.27318 0.53873 0.16334 0.0
H230 H 0.26949 0.58588 0.0637 0.0
H231 H 0.32344 0.6147 0.07498 0.0
N232 N 0.37129 0.63953 0.11442 0.0
N233 N 0.42199 0.64444 0.14598 0.0
N234 N 0.38361 0.59998 0.1577 0.0
C235 C 0.40105 0.65618 0.12088 0.0
C236 C 0.41346 0.61632 0.16447 0.0
C237 C 0.36244 0.61133 0.1327 0.0
C238 C 0.41007 0.68759 0.10174 0.0
C239 C 0.38477 0.70686 0.08507 0.0
C240 C 0.39299 0.73796 0.06943 0.0
C241 C 0.42674 0.75004 0.0696 0.0
C242 C 0.45221 0.73014 0.08508 0.0
C243 C 0.44395 0.69937 0.10116 0.0
C244 C 0.4359 0.60396 0.19236 0.0
C245 C 0.46212 0.62463 0.20569 0.0
C246 C 0.48185 0.61337 0.23336 0.0
C247 C 0.47605 0.58106 0.24785 0.0
C248 C 0.45038 0.56019 0.23397 0.0
C249 C 0.43052 0.5715 0.20667 0.0
C250 C 0.32986 0.59337 0.12575 0.0
C251 C 0.31524 0.57149 0.15032 0.0
C252 C 0.14109 0.29977 0.56583 0.0
C253 C 0.10874 0.28472 0.56955 0.0
C254 C 0.08506 0.29995 0.59162 0.0
C255 C 0.09355 0.32928 0.60984 0.0
H256 H 0.07311 0.37566 0.7048 0.0
H257 H 0.03796 0.3937 0.75312 0.0
H258 H 0.08829 0.49173 0.75234 0.0
H259 H 0.12321 0.47402 0.7045 0.0
H260 H 0.20594 0.46695 0.67859 0.0
H261 H 0.25818 0.49861 0.66533 0.0
H262 H 0.26027 0.45288 0.56533 0.0
H263 H 0.20844 0.42112 0.57844 0.0
H264 H 0.17472 0.3403 0.58057 0.0
H265 H 0.15983 0.28861 0.54898 0.0
H266 H 0.06011 0.28867 0.59553 0.0
H267 H 0.07467 0.34001 0.62682 0.0
N268 N 0.11497 0.38477 0.65313 0.0
N269 N 0.15159 0.43079 0.66414 0.0
N270 N 0.16342 0.39347 0.61908 0.0
C271 C 0.12305 0.41266 0.67198 0.0
C272 C 0.17189 0.42141 0.63776 0.0
C273 C 0.13499 0.375 0.62661 0.0
C274 C 0.10105 0.42338 0.70076 0.0
C275 C 0.07652 0.40113 0.71484 0.0
C276 C 0.05646 0.41136 0.74254 0.0
C277 C 0.06016 0.44419 0.75627 0.0
C278 C 0.08443 0.46645 0.74195 0.0
C279 C 0.10469 0.45616 0.71467 0.0
C280 C 0.20302 0.44139 0.62959 0.0
C281 C 0.21743 0.4638 0.65368 0.0
C282 C 0.24736 0.48189 0.64619 0.0
C283 C 0.2631 0.47842 0.61424 0.0
C284 C 0.24841 0.45646 0.59 0.0
C285 C 0.21885 0.43802 0.59764 0.0
C286 C 0.12593 0.34433 0.60636 0.0
C287 C 0.14952 0.32943 0.58386 0.0
Zn288 Zn 0.97158 0.06969 0.55878 0.0
Zn289 Zn 0.0446 0.9971 0.4718 0.0
Zn290 Zn 0.00819 0.03426 0.51618 0.0
C291 C 0.0689 0.06435 0.46815 0.0
C292 C 0.97639 0.99084 0.45278 0.0
O293 O 0.01609 0.01346 0.5686 0.0
O294 O 0.98927 0.05002 0.60187 0.0
C295 C 0.0132 0.11616 0.52496 0.0
O296 O 0.0442 0.06902 0.4893 0.0
O297 O 0.07571 0.03476 0.45758 0.0
O298 O 0.00576 0.98382 0.44169 0.0
O299 O 0.97292 0.00876 0.48008 0.0
O300 O 0.98781 0.11537 0.54468 0.0
O301 O 0.02536 0.08829 0.51267 0.0
O302 O 0.9536 0.03058 0.50103 0.0
O303 O 0.92571 0.05553 0.54305 0.0
C304 C 0.92534 0.0397 0.51507 0.0
O305 O 0.03634 0.99507 0.5456 0.0
O306 O 0.06096 0.96324 0.50613 0.0
C307 C 0.00737 0.02368 0.59858 0.0
C308 C 0.05475 0.96928 0.53715 0.0
Zn309 Zn 0.49738 0.04824 0.98854 0.0
Zn310 Zn 0.56318 0.96243 0.0652 0.0
Zn311 Zn 0.52928 0.00309 0.02703 0.0
C312 C 0.61211 0.99639 0.02928 0.0
C313 C 0.52155 0.92097 0.02701 0.0
O314 O 0.50077 0.03864 0.06064 0.0
O315 O 0.47673 0.07587 0.02557 0.0
C316 C 0.56522 0.05434 0.97121 0.0
O317 O 0.58475 0.00727 0.01452 0.0
O318 O 0.61004 0.97745 0.05526 0.0
O319 O 0.54777 0.91895 0.04554 0.0
O320 O 0.50969 0.95036 0.01805 0.0
O321 O 0.53668 0.06686 0.96332 0.0
O322 O 0.5673 0.03084 0.99428 0.0
O323 O 0.49318 0.97332 0.99451 0.0
O324 O 0.46947 0.01433 0.9637 0.0
C325 C 0.47259 0.98302 0.97065 0.0
O326 O 0.5206 0.01719 0.08141 0.0
O327 O 0.54433 0.97477 0.11004 0.0
C328 C 0.48201 0.06514 0.05554 0.0
C329 C 0.52759 0.00217 0.10991 0.0
Zn330 Zn 0.55529 0.56019 0.55902 0.0
Zn331 Zn 0.47521 0.48801 0.48009 0.0
Zn332 Zn 0.5147 0.5232 0.51857 0.0
C333 C 0.51511 0.44059 0.51226 0.0
C334 C 0.51102 0.52936 0.43615 0.0
O335 O 0.48204 0.5517 0.55491 0.0
O336 O 0.51848 0.57998 0.58758 0.0
C337 C 0.57183 0.49132 0.56976 0.0
O338 O 0.52901 0.46839 0.52309 0.0
O339 O 0.48834 0.44177 0.49442 0.0
O340 O 0.49173 0.50362 0.43543 0.0
O341 O 0.52172 0.54117 0.46495 0.0
O342 O 0.58085 0.521 0.57843 0.0
O343 O 0.54785 0.48719 0.54754 0.0
O344 O 0.54606 0.55787 0.48586 0.0
O345 O 0.57704 0.58791 0.52225 0.0
C346 C 0.56891 0.58086 0.49186 0.0
O347 O 0.46068 0.53178 0.53454 0.0
O348 O 0.43062 0.50541 0.49478 0.0
C349 C 0.48817 0.57211 0.57992 0.0
C350 C 0.43169 0.52352 0.52127 0.0
Zn351 Zn 0.04797 0.54563 0.98294 0.0
Zn352 Zn 0.97499 0.47506 0.06615 0.0
Zn353 Zn 0.0119 0.51058 0.02271 0.0
C354 C 0.04128 0.47139 0.09022 0.0
C355 C 0.96669 0.44436 0.00229 0.0
O356 O 0.9938 0.56483 0.02372 0.0
O357 O 0.03473 0.59204 0.99612 0.0
C358 C 0.09445 0.51491 0.02453 0.0
O359 O 0.04614 0.4878 0.06204 0.0
O360 O 0.01142 0.46395 0.0997 0.0
O361 O 0.96007 0.43953 0.03348 0.0
O362 O 0.98525 0.47002 0.99311 0.0
O363 O 0.09385 0.53027 0.99623 0.0
O364 O 0.06627 0.50693 0.03954 0.0
O365 O 0.00697 0.48846 0.97043 0.0
O366 O 0.03084 0.52876 0.93894 0.0
C367 C 0.01532 0.50063 0.94095 0.0
O368 O 0.97401 0.54545 0.04654 0.0
O369 O 0.9417 0.51102 0.07768 0.0
C370 C 0.00731 0.59289 0.01284 0.0
C371 C 0.94829 0.5405 0.06648 0.0
H372 H 0.12594 0.1826 0.37659 0.0
H373 H 0.21883 0.12533 0.39157 0.0
H374 H 0.18973 0.08775 0.43153 0.0
H375 H 0.13657 0.06718 0.45732 0.0
H376 H 0.04443 0.12564 0.44577 0.0
H377 H 0.07493 0.16755 0.4105 0.0
C378 C 0.14016 0.16248 0.38915 0.0
C379 C 0.1744 0.15631 0.37997 0.0
C380 C 0.1234 0.14116 0.41284 0.0
C381 C 0.19216 0.13 0.39686 0.0
C382 C 0.17563 0.10859 0.42005 0.0
C383 C 0.1234 0.08952 0.44763 0.0
C384 C 0.08835 0.09329 0.45379 0.0
C385 C 0.14103 0.11327 0.42737 0.0
C386 C 0.0715 0.12238 0.44146 0.0
C387 C 0.08887 0.14612 0.42103 0.0
H388 H 0.38762 0.86743 0.89558 0.0
H389 H 0.39201 0.94247 0.81492 0.0
H390 H 0.4266 0.97978 0.85075 0.0
H391 H 0.45422 0.99187 0.90507 0.0
H392 H 0.44704 0.92004 0.98777 0.0
H393 H 0.41562 0.88016 0.95121 0.0
C394 C 0.39643 0.89186 0.88593 0.0
C395 C 0.38721 0.90233 0.85276 0.0
C396 C 0.41594 0.91353 0.90696 0.0
C397 C 0.39852 0.93409 0.8405 0.0
C398 C 0.41835 0.95537 0.86091 0.0
C399 C 0.44582 0.96746 0.91517 0.0
C400 C 0.45376 0.95837 0.94901 0.0
C401 C 0.4269 0.94552 0.89424 0.0
C402 C 0.44259 0.92677 0.96155 0.0
C403 C 0.42411 0.90434 0.9407 0.0
H404 H 0.61966 0.36042 0.65153 0.0
H405 H 0.70694 0.42595 0.66808 0.0
H406 H 0.6825 0.46877 0.63068 0.0
H407 H 0.63529 0.48961 0.59604 0.0
H408 H 0.54494 0.42806 0.5839 0.0
H409 H 0.57163 0.38177 0.61639 0.0
C410 C 0.63331 0.38408 0.64708 0.0
C411 C 0.66541 0.3895 0.66256 0.0
C412 C 0.61859 0.40939 0.62613 0.0
C413 C 0.68271 0.42037 0.65604 0.0
C414 C 0.66858 0.4452 0.63484 0.0
C415 C 0.6215 0.46595 0.60025 0.0
C416 C 0.5885 0.46196 0.58679 0.0
C417 C 0.63645 0.44016 0.62008 0.0
C418 C 0.57086 0.43129 0.59282 0.0
C419 C 0.58595 0.40503 0.61189 0.0
H420 H 0.84006 0.63088 0.14001 0.0
H421 H 0.93079 0.68717 0.16723 0.0
H422 H 0.96449 0.65243 0.1284 0.0
H423 H 0.96958 0.60117 0.09225 0.0
H424 H 0.87959 0.54212 0.06959 0.0
H425 H 0.84433 0.58267 0.10081 0.0
C426 C 0.86721 0.63558 0.13752 0.0
C427 C 0.88279 0.66142 0.15693 0.0
C428 C 0.88668 0.61485 0.11588 0.0
C429 C 0.91792 0.66764 0.15256 0.0
C430 C 0.93735 0.64759 0.13048 0.0
C431 C 0.94214 0.59783 0.09345 0.0
C432 C 0.92707 0.56891 0.07863 0.0
C433 C 0.92219 0.62054 0.11268 0.0
C434 C 0.89161 0.56435 0.08079 0.0
C435 C 0.8715 0.58737 0.0988 0.0
H436 H 0.38374 0.11593 0.17111 0.0
H437 H 0.4071 0.21273 0.12343 0.0
H438 H 0.44772 0.18501 0.08587 0.0
H439 H 0.47273 0.13273 0.06287 0.0
H440 H 0.4519 0.03621 0.11146 0.0
H441 H 0.41516 0.06454 0.15319 0.0
C442 C 0.39822 0.13117 0.15308 0.0
C443 C 0.39149 0.16636 0.14964 0.0
C444 C 0.42209 0.11511 0.13171 0.0
C445 C 0.4107 0.18548 0.12597 0.0
C446 C 0.43421 0.16969 0.10458 0.0
C447 C 0.46052 0.11802 0.08295 0.0
C448 C 0.4648 0.0825 0.08409 0.0
C449 C 0.43939 0.13443 0.10658 0.0
C450 C 0.44915 0.06366 0.1103 0.0
C451 C 0.42792 0.07982 0.13394 0.0
H452 H 0.1313 0.85656 0.62115 0.0
H453 H 0.16334 0.94493 0.67843 0.0
H454 H 0.12409 0.98053 0.64584 0.0
H455 H 0.08589 0.98799 0.5962 0.0
H456 H 0.05883 0.90053 0.53555 0.0
H457 H 0.09117 0.86336 0.57386 0.0
C458 C 0.12989 0.88362 0.6265 0.0
C459 C 0.15072 0.89791 0.65205 0.0
C460 C 0.10828 0.90428 0.60674 0.0
C461 C 0.14757 0.93295 0.65918 0.0
C462 C 0.1253 0.95351 0.64029 0.0
C463 C 0.0866 0.96069 0.5919 0.0
C464 C 0.07005 0.94688 0.56326 0.0
C465 C 0.10624 0.93963 0.61338 0.0
C466 C 0.07148 0.91161 0.55749 0.0
C467 C 0.08999 0.8904 0.57932 0.0
H468 H 0.87953 0.33664 0.92218 0.0
H469 H 0.89143 0.41094 0.8413 0.0
H470 H 0.92802 0.44532 0.878 0.0
H471 H 0.9515 0.45708 0.93528 0.0
H472 H 0.94444 0.3797 0.01344 0.0
H473 H 0.91098 0.34376 0.97541 0.0
C474 C 0.89074 0.35981 0.91198 0.0
C475 C 0.88184 0.3713 0.87905 0.0
C476 C 0.9124 0.37919 0.93292 0.0
C477 C 0.89667 0.4018 0.86688 0.0
C478 C 0.91787 0.42148 0.88778 0.0
C479 C 0.94401 0.43179 0.94346 0.0
C480 C 0.95095 0.42105 0.97703 0.0
C481 C 0.92521 0.41084 0.92118 0.0
C482 C 0.93946 0.38872 0.98775 0.0
C483 C 0.92029 0.36808 0.96601 0.0
H484 H 0.65306 0.6322 0.36377 0.0
H485 H 0.67411 0.71488 0.43339 0.0
H486 H 0.63596 0.68968 0.47526 0.0
H487 H 0.599 0.64293 0.49383 0.0
H488 H 0.58248 0.55701 0.42759 0.0
H489 H 0.61605 0.58473 0.38278 0.0
C490 C 0.64949 0.64467 0.38813 0.0
C491 C 0.66649 0.67568 0.39503 0.0
C492 C 0.62806 0.62951 0.41277 0.0
C493 C 0.66098 0.6915 0.42676 0.0
C494 C 0.63933 0.67693 0.45101 0.0
C495 C 0.60251 0.63035 0.46947 0.0
C496 C 0.5873 0.59836 0.4637 0.0
C497 C 0.62302 0.64582 0.44445 0.0
C498 C 0.59253 0.58227 0.43216 0.0
C499 C 0.61229 0.59789 0.40674 0.0
H500 H 0.13669 0.40019 0.19713 0.0
H501 H 0.1869 0.36814 0.1047 0.0
H502 H 0.15077 0.40614 0.0712 0.0
H503 H 0.09967 0.44248 0.06722 0.0
H504 H 0.04644 0.47014 0.15913 0.0
H505 H 0.08859 0.4397 0.19362 0.0
C506 C 0.13977 0.40142 0.16966 0.0
C507 C 0.16431 0.38086 0.1536 0.0
C508 C 0.11807 0.42242 0.15033 0.0
C509 C 0.16847 0.3837 0.11798 0.0
C510 C 0.14756 0.40526 0.09866 0.0
C511 C 0.09793 0.44257 0.09484 0.0
C512 C 0.07018 0.45859 0.11071 0.0
C513 C 0.12162 0.42398 0.11443 0.0
C514 C 0.06767 0.45795 0.14645 0.0
C515 C 0.09167 0.44046 0.16614 0.0
H516 H 0.68282 0.14993 0.92114 0.0
H517 H 0.63399 0.12912 0.82445 0.0
H518 H 0.59737 0.08696 0.85165 0.0
H519 H 0.57409 0.06159 0.90385 0.0
H520 H 0.62334 0.07973 1.00038 0.0
H521 H 0.66581 0.11635 0.97214 0.0
C522 C 0.66478 0.13563 0.90581 0.0
C523 C 0.66051 0.14369 0.87089 0.0
C524 C 0.64387 0.11088 0.92159 0.0
C525 C 0.63702 0.12457 0.85157 0.0
C526 C 0.61619 0.10017 0.86704 0.0
C527 C 0.59472 0.07288 0.9185 0.0
C528 C 0.59563 0.06831 0.95402 0.0
C529 C 0.61857 0.09403 0.90218 0.0
C530 C 0.62237 0.08284 0.97291 0.0
C531 C 0.64637 0.10403 0.95679 0.0
H532 H 0.85765 0.89482 0.40569 0.0
H533 H 0.90199 0.91724 0.30722 0.0
H534 H 0.94062 0.95818 0.33344 0.0
H535 H 0.96623 0.98273 0.38511 0.0
H536 H 0.9205 0.96279 0.48311 0.0
H537 H 0.87715 0.92677 0.45612 0.0
C538 C 0.87506 0.90925 0.38972 0.0
C539 C 0.87743 0.90203 0.35456 0.0
C540 C 0.89703 0.93325 0.40491 0.0
C541 C 0.90033 0.9212 0.3345 0.0
C542 C 0.92234 0.94487 0.34943 0.0
C543 C 0.94632 0.971 0.40039 0.0
C544 C 0.94657 0.97515 0.43597 0.0
C545 C 0.92168 0.95025 0.38473 0.0
C546 C 0.92063 0.96008 0.45561 0.0
C547 C 0.89604 0.93926 0.44021 0.0
H548 H 0.39795 0.65049 0.68518 0.0
H549 H 0.34784 0.68306 0.59249 0.0
H550 H 0.3816 0.64257 0.55965 0.0
H551 H 0.43074 0.60318 0.55625 0.0
H552 H 0.4843 0.57589 0.64847 0.0
H553 H 0.44413 0.60902 0.68237 0.0
C554 C 0.3944 0.64889 0.65778 0.0
C555 C 0.37064 0.6703 0.64143 0.0
C556 C 0.41479 0.62652 0.63885 0.0
C557 C 0.36576 0.66691 0.60597 0.0
C558 C 0.3853 0.64391 0.58704 0.0
C559 C 0.43302 0.60398 0.58383 0.0
C560 C 0.4603 0.58722 0.59997 0.0
C561 C 0.41059 0.62428 0.60306 0.0
C562 C 0.46345 0.58872 0.63562 0.0
C563 C 0.44059 0.60773 0.65497 0.0
H564 H 0.99241 0.92362 0.72163 0.0
H565 H 0.00753 0.01775 0.77634 0.0
H566 H 0.02311 0.0467 0.72342 0.0
H567 H 0.02277 0.04748 0.66099 0.0
H568 H 0.00616 0.95433 0.60543 0.0
H569 H 0.00211 0.92246 0.65919 0.0
C570 C 9e-05 0.9502 0.72207 0.0
C571 C 0.99804 0.96873 0.75273 0.0
C572 C 0.00858 0.96688 0.69134 0.0
C573 C 0.00811 0.00316 0.75292 0.0
C574 C 0.01707 0.01972 0.72269 0.0
C575 C 0.01919 0.02003 0.66072 0.0
C576 C 0.01454 0.00326 0.62946 0.0
C577 C 0.01588 0.00222 0.69162 0.0
C578 C 0.01009 0.96772 0.62925 0.0
C579 C 0.00734 0.94959 0.66 0.0
H580 H 0.52902 0.03712 0.26448 0.0
H581 H 0.5562 0.136 0.2244 0.0
H582 H 0.54241 0.11697 0.16654 0.0
H583 H 0.53188 0.06921 0.12682 0.0
H584 H 0.50792 0.96975 0.16756 0.0
H585 H 0.51064 0.992 0.22558 0.0
C586 C 0.53153 0.05459 0.24308 0.0
C587 C 0.5442 0.08764 0.24855 0.0
C588 C 0.52425 0.04327 0.20996 0.0
C589 C 0.54661 0.11034 0.22078 0.0
C590 C 0.53891 0.09941 0.18768 0.0
C591 C 0.52615 0.05279 0.14841 0.0
C592 C 0.51992 0.01791 0.1431 0.0
C593 C 0.52894 0.06553 0.18183 0.0
C594 C 0.51292 0.99668 0.17119 0.0
C595 C 0.51468 0.00932 0.20434 0.0
H596 H 0.49007 0.61723 0.30561 0.0
H597 H 0.50392 0.51856 0.25934 0.0
H598 H 0.52268 0.49506 0.31391 0.0
H599 H 0.52494 0.50016 0.37604 0.0
H600 H 0.50986 0.59788 0.42336 0.0
H601 H 0.50297 0.62455 0.36702 0.0
C602 C 0.49819 0.59087 0.30728 0.0
C603 C 0.49482 0.56943 0.27869 0.0
C604 C 0.5085 0.57735 0.33896 0.0
C605 C 0.50549 0.53533 0.28121 0.0
C606 C 0.51626 0.52189 0.31237 0.0
C607 C 0.52113 0.52749 0.37388 0.0
C608 C 0.51744 0.54705 0.40355 0.0
C609 C 0.5163 0.54226 0.34165 0.0
C610 C 0.51278 0.58241 0.40071 0.0
C611 C 0.5085 0.59753 0.36855 0.0
H612 H 0.04888 0.40956 0.81583 0.0
H613 H 0.02659 0.50418 0.764 0.0
H614 H 0.0039 0.52796 0.81668 0.0
H615 H -0.00012 0.52527 0.87885 0.0
H616 H 0.02436 0.43213 0.93196 0.0
H617 H 0.03547 0.40384 0.87739 0.0
C618 C 0.03817 0.43502 0.81592 0.0
C619 C 0.04007 0.45538 0.78628 0.0
C620 C 0.0257 0.44881 0.84658 0.0
C621 C 0.0261 0.48833 0.78671 0.0
C622 C 0.01307 0.50191 0.81679 0.0
C623 C 0.0067 0.49848 0.87834 0.0
C624 C 0.01163 0.48084 0.90921 0.0
C625 C 0.01417 0.48293 0.84712 0.0
C626 C 0.02031 0.44615 0.90843 0.0
C627 C 0.02704 0.43013 0.87726 0.0
H628 H 0.76697 0.98667 0.99716 0.0
H629 H 0.72765 0.97122 0.89556 0.0
H630 H 0.67056 0.98748 0.91461 0.0
H631 H 0.63048 0.99676 0.96236 0.0
H632 H 0.6702 0.00848 0.06434 0.0
H633 H 0.72837 0.00353 0.043 0.0
C634 C 0.74594 0.9872 0.97913 0.0
C635 C 0.75134 0.97714 0.94521 0.0
C636 C 0.71317 0.99579 0.99042 0.0
C637 C 0.72409 0.97875 0.92188 0.0
C638 C 0.6914 0.98785 0.9328 0.0
C639 C 0.65198 0.99934 0.97963 0.0
C640 C 0.64622 0.00274 0.01484 0.0
C641 C 0.6854 0.99518 0.96731 0.0
C642 C 0.67416 0.00566 0.03712 0.0
C643 C 0.70738 0.00263 0.02498 0.0
H644 H 0.794 0.0572 0.42584 0.0
H645 H 0.74717 0.04353 0.52459 0.0
H646 H 0.80232 0.02898 0.54939 0.0
H647 H 0.86451 0.02797 0.54467 0.0
H648 H 0.91208 0.04249 0.4466 0.0
H649 H 0.85594 0.04764 0.41959 0.0
C650 C 0.79572 0.05017 0.45258 0.0
C651 C 0.76661 0.05218 0.47349 0.0
C652 C 0.82768 0.04207 0.4668 0.0
C653 C 0.76932 0.04302 0.50812 0.0
C654 C 0.80083 0.03459 0.52232 0.0
C655 C 0.86251 0.03155 0.51726 0.0
C656 C 0.89227 0.03503 0.49765 0.0
C657 C 0.8303 0.0353 0.50218 0.0
C658 C 0.88947 0.03944 0.46217 0.0
C659 C 0.85739 0.04276 0.4468 0.0
H660 H 0.24917 0.52411 0.05659 0.0
H661 H 0.2105 0.55955 0.15297 0.0
H662 H 0.15271 0.54198 0.13666 0.0
H663 H 0.11229 0.52579 0.09078 0.0
H664 H 0.15175 0.49337 0.99359 0.0
H665 H 0.21003 0.49976 0.0145 0.0
C666 C 0.22812 0.52749 0.07418 0.0
C667 C 0.23385 0.54365 0.10559 0.0
C668 C 0.19506 0.51796 0.06437 0.0
C669 C 0.2066 0.54729 0.12854 0.0
C670 C 0.17356 0.53742 0.11914 0.0
C671 C 0.13371 0.51904 0.07471 0.0
C672 C 0.12793 0.50938 0.04068 0.0
C673 C 0.16728 0.52398 0.08656 0.0
C674 C 0.15576 0.50102 0.01984 0.0
C675 C 0.18905 0.50489 0.0317 0.0
H676 H 0.27868 0.51456 0.55732 0.0
H677 H 0.32072 0.4814 0.65353 0.0
H678 H 0.3775 0.50046 0.6357 0.0
H679 H 0.41634 0.51629 0.58846 0.0
H680 H 0.37382 0.54548 0.4912 0.0
H681 H 0.3162 0.53924 0.51383 0.0
C682 C 0.30022 0.51205 0.57456 0.0
C683 C 0.29573 0.49601 0.60635 0.0
C684 C 0.33279 0.52233 0.56384 0.0
C685 C 0.32362 0.49353 0.62882 0.0
C686 C 0.35612 0.50426 0.61855 0.0
C687 C 0.3944 0.52252 0.57275 0.0
C688 C 0.39911 0.53107 0.53822 0.0
C689 C 0.36125 0.51733 0.58554 0.0
C690 C 0.37063 0.53876 0.51786 0.0
C691 C 0.33771 0.53487 0.53069 0.0
H692 H 0.9193 0.72213 0.98279 0.0
H693 H 0.01893 0.76881 0.98927 0.0
H694 H 0.0429 0.71553 0.01047 0.0
H695 H 0.03726 0.65417 0.01927 0.0
H696 H 0.93866 0.60607 0.01138 0.0
H697 H 0.91226 0.66162 1.00013 0.0
C698 C 0.94608 0.72083 0.98959 0.0
C699 C 0.96746 0.74922 0.98367 0.0
C700 C 0.95985 0.68987 0.00158 0.0
C701 C 0.00211 0.7471 0.99268 0.0
C702 C 0.01582 0.7167 0.00499 0.0
C703 C 0.00985 0.65598 0.0159 0.0
C704 C 0.98995 0.62613 0.01586 0.0
C705 C 0.9952 0.68766 0.00832 0.0
C706 C 0.95447 0.62875 0.01177 0.0
C707 C 0.93947 0.66047 0.00487 0.0
H708 H 0.47862 0.76801 0.0271 0.0
H709 H 0.39402 0.80947 0.08337 0.0
H710 H 0.41325 0.86734 0.07017 0.0
H711 H 0.45889 0.90566 0.05008 0.0
H712 H 0.5439 0.86447 0.99461 0.0
H713 H 0.51983 0.80698 0.99978 0.0
C714 C 0.46415 0.78978 0.03596 0.0
C715 C 0.4352 0.78455 0.05647 0.0
C716 C 0.47553 0.82297 0.0285 0.0
C717 C 0.41635 0.81287 0.06746 0.0
C718 C 0.42745 0.84596 0.06011 0.0
C719 C 0.47131 0.88419 0.03795 0.0
C720 C 0.50256 0.88917 0.02121 0.0
C721 C 0.45759 0.85128 0.0416 0.0
C722 C 0.51932 0.86116 0.00679 0.0
C723 C 0.50574 0.82833 0.01007 0.0
H724 H 0.05 0.26954 0.5363 0.0
H725 H 0.14745 0.22695 0.56406 0.0
H726 H 0.12843 0.17056 0.54523 0.0
H727 H 0.08049 0.13194 0.53064 0.0
H728 H 0.982 0.17489 0.50783 0.0
H729 H 0.00498 0.23241 0.51426 0.0
C730 C 0.06721 0.24797 0.53782 0.0
C731 C 0.0998 0.25226 0.55217 0.0
C732 C 0.05577 0.21557 0.52791 0.0
C733 C 0.12216 0.2243 0.55321 0.0
C734 C 0.11121 0.19199 0.54265 0.0
C735 C 0.06451 0.15401 0.52597 0.0
C736 C 0.02965 0.14942 0.51893 0.0
C737 C 0.07759 0.18706 0.53128 0.0
C738 C 0.00892 0.17802 0.51332 0.0
C739 C 0.02198 0.21085 0.51726 0.0
H740 H 0.60146 0.30826 0.49403 0.0
H741 H 0.50097 0.2635 0.49999 0.0
H742 H 0.47712 0.31842 0.51633 0.0
H743 H 0.48354 0.38025 0.52064 0.0
H744 H 0.58326 0.42606 0.51291 0.0
H745 H 0.60897 0.36952 0.50673 0.0
C746 C 0.5745 0.31037 0.49978 0.0
C747 C 0.55288 0.28203 0.49516 0.0
C748 C 0.56085 0.34223 0.50872 0.0
C749 C 0.51798 0.28514 0.50263 0.0
C750 C 0.50435 0.3165 0.51205 0.0
C751 C 0.511 0.37774 0.51835 0.0
C752 C 0.5315 0.40711 0.51698 0.0
C753 C 0.52532 0.34541 0.51386 0.0
C754 C 0.56702 0.4037 0.51419 0.0
C755 C 0.58165 0.37142 0.51033 0.0
loop_
_geom_bond_atom_site_label_1
_geom_bond_atom_site_label_2
_geom_bond_distance
_geom_bond_site_symmetry_2
_ccdc_geom_bond_type
C0 C1 1.384 . S
C0 H13 0.947 . S
C0 C35 1.382 . S
C1 C0 1.384 . S
C1 C2 1.378 . S
C2 C1 1.378 . S
C2 C3 1.378 . S
C2 H14 0.952 . S
C3 C2 1.378 . S
C3 H15 0.950 . S
C3 C34 1.383 . S
H4 C23 0.947 . S
H5 C24 0.946 . S
H6 C26 0.953 . S
H7 C27 0.945 . S
H8 C29 0.952 . S
H9 C30 0.949 . S
H10 C32 0.950 . S
H11 C33 0.948 . S
H12 C35 0.951 . S
H13 C0 0.947 . S
H14 C2 0.952 . S
H15 C3 0.950 . S
N16 C19 1.382 . S
N16 C21 1.363 . S
N17 C19 1.371 . S
N17 C20 1.372 . S
N18 C20 1.361 . S
N18 C21 1.377 . S
C19 N16 1.382 . S
C19 N17 1.371 . S
C19 C22 1.480 . S
C20 N17 1.372 . S
C20 N18 1.361 . S
C20 C28 1.457 . S
C21 N16 1.363 . S
C21 N18 1.377 . S
C21 C34 1.479 . S
C22 C19 1.480 . S
C22 C23 1.383 . S
C22 C27 1.385 . S
C23 H4 0.947 . S
C23 C22 1.383 . S
C23 C24 1.388 . S
C24 H5 0.946 . S
C24 C23 1.388 . S
C24 C25 1.384 . S
C25 C24 1.384 . S
C25 C26 1.377 . S
C26 H6 0.953 . S
C26 C25 1.377 . S
C26 C27 1.369 . S
C27 H7 0.945 . S
C27 C22 1.385 . S
C27 C26 1.369 . S
C28 C20 1.457 . S
C28 C29 1.372 . S
C28 C33 1.364 . S
C29 H8 0.952 . S
C29 C28 1.372 . S
C29 C30 1.389 . S
C30 H9 0.949 . S
C30 C29 1.389 . S
C30 C31 1.387 . S
C31 C30 1.387 . S
C31 C32 1.372 . S
C32 H10 0.950 . S
C32 C31 1.372 . S
C32 C33 1.379 . S
C33 H11 0.948 . S
C33 C28 1.364 . S
C33 C32 1.379 . S
C34 C3 1.383 . S
C34 C21 1.479 . S
C34 C35 1.398 . S
C35 C0 1.382 . S
C35 H12 0.951 . S
C35 C34 1.398 . S
C36 C37 1.384 . S
C36 H49 0.947 . S
C36 C71 1.382 . S
C37 C36 1.384 . S
C37 C38 1.378 . S
C38 C37 1.378 . S
C38 C39 1.378 . S
C38 H50 0.952 . S
C39 C38 1.378 . S
C39 H51 0.950 . S
C39 C70 1.383 . S
H40 C59 0.947 . S
H41 C60 0.946 . S
H42 C62 0.953 . S
H43 C63 0.945 . S
H44 C65 0.952 . S
H45 C66 0.949 . S
H46 C68 0.950 . S
H47 C69 0.948 . S
H48 C71 0.951 . S
H49 C36 0.947 . S
H50 C38 0.952 . S
H51 C39 0.950 . S
N52 C55 1.382 . S
N52 C57 1.363 . S
N53 C55 1.371 . S
N53 C56 1.372 . S
N54 C56 1.361 . S
N54 C57 1.377 . S
C55 N52 1.382 . S
C55 N53 1.371 . S
C55 C58 1.480 . S
C56 N53 1.372 . S
C56 N54 1.361 . S
C56 C64 1.457 . S
C57 N52 1.363 . S
C57 N54 1.377 . S
C57 C70 1.479 . S
C58 C55 1.480 . S
C58 C59 1.383 . S
C58 C63 1.385 . S
C59 H40 0.947 . S
C59 C58 1.383 . S
C59 C60 1.388 . S
C60 H41 0.946 . S
C60 C59 1.388 . S
C60 C61 1.384 . S
C61 C60 1.384 . S
C61 C62 1.377 . S
C62 H42 0.953 . S
C62 C61 1.377 . S
C62 C63 1.369 . S
C63 H43 0.945 . S
C63 C58 1.385 . S
C63 C62 1.369 . S
C64 C56 1.457 . S
C64 C65 1.372 . S
C64 C69 1.364 . S
C65 H44 0.952 . S
C65 C64 1.372 . S
C65 C66 1.389 . S
C66 H45 0.949 . S
C66 C65 1.389 . S
C66 C67 1.387 . S
C67 C66 1.387 . S
C67 C68 1.372 . S
C68 H46 0.950 . S
C68 C67 1.372 . S
C68 C69 1.379 . S
C69 H47 0.948 . S
C69 C64 1.364 . S
C69 C68 1.379 . S
C70 C39 1.383 . S
C70 C57 1.479 . S
C70 C71 1.398 . S
C71 C36 1.382 . S
C71 H48 0.951 . S
C71 C70 1.398 . S
C72 C73 1.384 . S
C72 H85 0.947 . S
C72 C107 1.382 . S
C73 C72 1.384 . S
C73 C74 1.378 . S
C74 C73 1.378 . S
C74 C75 1.378 . S
C74 H86 0.952 . S
C75 C74 1.378 . S
C75 H87 0.950 . S
C75 C106 1.383 . S
H76 C95 0.947 . S
H77 C96 0.946 . S
H78 C98 0.953 . S
H79 C99 0.945 . S
H80 C101 0.952 . S
H81 C102 0.949 . S
H82 C104 0.950 . S
H83 C105 0.948 . S
H84 C107 0.951 . S
H85 C72 0.947 . S
H86 C74 0.952 . S
H87 C75 0.950 . S
N88 C91 1.382 . S
N88 C93 1.363 . S
N89 C91 1.371 . S
N89 C92 1.372 . S
N90 C92 1.361 . S
N90 C93 1.377 . S
C91 N88 1.382 . S
C91 N89 1.371 . S
C91 C94 1.480 . S
C92 N89 1.372 . S
C92 N90 1.361 . S
C92 C100 1.457 . S
C93 N88 1.363 . S
C93 N90 1.377 . S
C93 C106 1.479 . S
C94 C91 1.480 . S
C94 C95 1.383 . S
C94 C99 1.385 . S
C95 H76 0.947 . S
C95 C94 1.383 . S
C95 C96 1.388 . S
C96 H77 0.946 . S
C96 C95 1.388 . S
C96 C97 1.384 . S
C97 C96 1.384 . S
C97 C98 1.377 . S
C98 H78 0.953 . S
C98 C97 1.377 . S
C98 C99 1.369 . S
C99 H79 0.945 . S
C99 C94 1.385 . S
C99 C98 1.369 . S
C100 C92 1.457 . S
C100 C101 1.372 . S
C100 C105 1.364 . S
C101 H80 0.952 . S
C101 C100 1.372 . S
C101 C102 1.389 . S
C102 H81 0.949 . S
C102 C101 1.389 . S
C102 C103 1.387 . S
C103 C102 1.387 . S
C103 C104 1.372 . S
C104 H82 0.950 . S
C104 C103 1.372 . S
C104 C105 1.379 . S
C105 H83 0.948 . S
C105 C100 1.364 . S
C105 C104 1.379 . S
C106 C75 1.383 . S
C106 C93 1.479 . S
C106 C107 1.398 . S
C107 C72 1.382 . S
C107 H84 0.951 . S
C107 C106 1.398 . S
C108 C109 1.384 . S
C108 H121 0.947 . S
C108 C143 1.382 . S
C109 C108 1.384 . S
C109 C110 1.378 . S
C110 C109 1.378 . S
C110 C111 1.378 . S
C110 H122 0.952 . S
C111 C110 1.378 . S
C111 H123 0.950 . S
C111 C142 1.383 . S
H112 C131 0.947 . S
H113 C132 0.946 . S
H114 C134 0.953 . S
H115 C135 0.945 . S
H116 C137 0.952 . S
H117 C138 0.949 . S
H118 C140 0.950 . S
H119 C141 0.948 . S
H120 C143 0.951 . S
H121 C108 0.947 . S
H122 C110 0.952 . S
H123 C111 0.950 . S
N124 C127 1.382 . S
N124 C129 1.363 . S
N125 C127 1.371 . S
N125 C128 1.372 . S
N126 C128 1.361 . S
N126 C129 1.377 . S
C127 N124 1.382 . S
C127 N125 1.371 . S
C127 C130 1.480 . S
C128 N125 1.372 . S
C128 N126 1.361 . S
C128 C136 1.457 . S
C129 N124 1.363 . S
C129 N126 1.377 . S
C129 C142 1.479 . S
C130 C127 1.480 . S
C130 C131 1.383 . S
C130 C135 1.385 . S
C131 H112 0.947 . S
C131 C130 1.383 . S
C131 C132 1.388 . S
C132 H113 0.946 . S
C132 C131 1.388 . S
C132 C133 1.384 . S
C133 C132 1.384 . S
C133 C134 1.377 . S
C134 H114 0.953 . S
C134 C133 1.377 . S
C134 C135 1.369 . S
C135 H115 0.945 . S
C135 C130 1.385 . S
C135 C134 1.369 . S
C136 C128 1.457 . S
C136 C137 1.372 . S
C136 C141 1.364 . S
C137 H116 0.952 . S
C137 C136 1.372 . S
C137 C138 1.389 . S
C138 H117 0.949 . S
C138 C137 1.389 . S
C138 C139 1.387 . S
C139 C138 1.387 . S
C139 C140 1.372 . S
C140 H118 0.950 . S
C140 C139 1.372 . S
C140 C141 1.379 . S
C141 H119 0.948 . S
C141 C136 1.364 . S
C141 C140 1.379 . S
C142 C111 1.383 . S
C142 C129 1.479 . S
C142 C143 1.398 . S
C143 C108 1.382 . S
C143 H120 0.951 . S
C143 C142 1.398 . S
C144 C145 1.397 . S
C144 H157 0.922 1_565 S
C144 C179 1.395 . S
C145 C144 1.397 . S
C145 C146 1.378 1_556 S
C146 C145 1.378 1_554 S
C146 C147 1.378 1_554 S
C146 H158 0.952 . S
C147 C146 1.378 1_556 S
C147 H159 0.950 1_556 S
C147 C178 1.383 . S
H148 C167 0.951 . S
H149 C168 0.926 1_554 S
H150 C170 0.953 . S
H151 C171 0.945 1_455 S
H152 C173 0.952 . S
H153 C174 0.949 1_455 S
H154 C176 0.950 . S
H155 C177 0.948 1_545 S
H156 C179 0.951 . S
H157 C144 0.922 1_545 S
H158 C146 0.952 . S
H159 C147 0.950 1_554 S
N160 C163 1.382 . S
N160 C165 1.363 . S
N161 C163 1.371 . S
N161 C164 1.372 . S
N162 C164 1.361 . S
N162 C165 1.377 . S
C163 N160 1.382 . S
C163 N161 1.371 . S
C163 C166 1.480 . S
C164 N161 1.372 . S
C164 N162 1.361 . S
C164 C172 1.457 . S
C165 N160 1.363 . S
C165 N162 1.377 . S
C165 C178 1.479 . S
C166 C163 1.480 . S
C166 C167 1.383 . S
C166 C171 1.385 . S
C167 H148 0.951 . S
C167 C166 1.383 . S
C167 C168 1.397 . S
C168 H149 0.926 1_556 S
C168 C167 1.397 . S
C168 C169 1.395 . S
C169 C168 1.395 . S
C169 C170 1.377 1_655 S
C170 H150 0.953 . S
C170 C169 1.377 1_455 S
C170 C171 1.369 1_455 S
C171 H151 0.945 1_655 S
C171 C166 1.385 . S
C171 C170 1.369 1_655 S
C172 C164 1.457 . S
C172 C173 1.372 . S
C172 C177 1.364 . S
C173 H152 0.952 . S
C173 C172 1.372 . S
C173 C174 1.389 . S
C174 H153 0.949 1_655 S
C174 C173 1.389 . S
C174 C175 1.387 . S
C175 C174 1.387 . S
C175 C176 1.372 1_565 S
C176 H154 0.950 . S
C176 C175 1.372 1_545 S
C176 C177 1.379 1_545 S
C177 H155 0.948 1_565 S
C177 C172 1.364 . S
C177 C176 1.379 1_565 S
C178 C147 1.383 . S
C178 C165 1.479 . S
C178 C179 1.398 . S
C179 C144 1.395 . S
C179 H156 0.951 . S
C179 C178 1.398 . S
C180 C181 1.384 . S
C180 H193 0.947 . S
C180 C215 1.382 . S
C181 C180 1.384 . S
C181 C182 1.378 . S
C182 C181 1.378 . S
C182 C183 1.378 . S
C182 H194 0.952 . S
C183 C182 1.378 . S
C183 H195 0.950 . S
C183 C214 1.383 . S
H184 C203 0.947 . S
H185 C204 0.946 . S
H186 C206 0.953 . S
H187 C207 0.945 . S
H188 C209 0.952 . S
H189 C210 0.949 . S
H190 C212 0.950 . S
H191 C213 0.948 . S
H192 C215 0.951 . S
H193 C180 0.947 . S
H194 C182 0.952 . S
H195 C183 0.950 . S
N196 C199 1.382 . S
N196 C201 1.363 . S
N197 C199 1.371 . S
N197 C200 1.372 . S
N198 C200 1.361 . S
N198 C201 1.377 . S
C199 N196 1.382 . S
C199 N197 1.371 . S
C199 C202 1.480 . S
C200 N197 1.372 . S
C200 N198 1.361 . S
C200 C208 1.457 . S
C201 N196 1.363 . S
C201 N198 1.377 . S
C201 C214 1.479 . S
C202 C199 1.480 . S
C202 C203 1.383 . S
C202 C207 1.385 . S
C203 H184 0.947 . S
C203 C202 1.383 . S
C203 C204 1.388 . S
C204 H185 0.946 . S
C204 C203 1.388 . S
C204 C205 1.384 . S
C205 C204 1.384 . S
C205 C206 1.377 . S
C206 H186 0.953 . S
C206 C205 1.377 . S
C206 C207 1.369 . S
C207 H187 0.945 . S
C207 C202 1.385 . S
C207 C206 1.369 . S
C208 C200 1.457 . S
C208 C209 1.372 . S
C208 C213 1.364 . S
C209 H188 0.952 . S
C209 C208 1.372 . S
C209 C210 1.389 . S
C210 H189 0.949 . S
C210 C209 1.389 . S
C210 C211 1.387 . S
C211 C210 1.387 . S
C211 C212 1.372 . S
C212 H190 0.950 . S
C212 C211 1.372 . S
C212 C213 1.379 . S
C213 H191 0.948 . S
C213 C208 1.364 . S
C213 C212 1.379 . S
C214 C183 1.383 . S
C214 C201 1.479 . S
C214 C215 1.398 . S
C215 C180 1.382 . S
C215 H192 0.951 . S
C215 C214 1.398 . S
C216 C217 1.384 . S
C216 H229 0.947 . S
C216 C251 1.382 . S
C217 C216 1.384 . S
C217 C218 1.378 . S
C218 C217 1.378 . S
C218 C219 1.378 . S
C218 H230 0.952 . S
C219 C218 1.378 . S
C219 H231 0.950 . S
C219 C250 1.383 . S
H220 C239 0.947 . S
H221 C240 0.946 . S
H222 C242 0.953 . S
H223 C243 0.945 . S
H224 C245 0.952 . S
H225 C246 0.949 . S
H226 C248 0.950 . S
H227 C249 0.948 . S
H228 C251 0.951 . S
H229 C216 0.947 . S
H230 C218 0.952 . S
H231 C219 0.950 . S
N232 C235 1.382 . S
N232 C237 1.363 . S
N233 C235 1.371 . S
N233 C236 1.372 . S
N234 C236 1.361 . S
N234 C237 1.377 . S
C235 N232 1.382 . S
C235 N233 1.371 . S
C235 C238 1.480 . S
C236 N233 1.372 . S
C236 N234 1.361 . S
C236 C244 1.457 . S
C237 N232 1.363 . S
C237 N234 1.377 . S
C237 C250 1.479 . S
C238 C235 1.480 . S
C238 C239 1.383 . S
C238 C243 1.385 . S
C239 H220 0.947 . S
C239 C238 1.383 . S
C239 C240 1.388 . S
C240 H221 0.946 . S
C240 C239 1.388 . S
C240 C241 1.384 . S
C241 C240 1.384 . S
C241 C242 1.377 . S
C242 H222 0.953 . S
C242 C241 1.377 . S
C242 C243 1.369 . S
C243 H223 0.945 . S
C243 C238 1.385 . S
C243 C242 1.369 . S
C244 C236 1.457 . S
C244 C245 1.372 . S
C244 C249 1.364 . S
C245 H224 0.952 . S
C245 C244 1.372 . S
C245 C246 1.389 . S
C246 H225 0.949 . S
C246 C245 1.389 . S
C246 C247 1.387 . S
C247 C246 1.387 . S
C247 C248 1.372 . S
C248 H226 0.950 . S
C248 C247 1.372 . S
C248 C249 1.379 . S
C249 H227 0.948 . S
C249 C244 1.364 . S
C249 C248 1.379 . S
C250 C219 1.383 . S
C250 C237 1.479 . S
C250 C251 1.398 . S
C251 C216 1.382 . S
C251 H228 0.951 . S
C251 C250 1.398 . S
C252 C253 1.384 . S
C252 H265 0.947 . S
C252 C287 1.382 . S
C253 C252 1.384 . S
C253 C254 1.378 . S
C254 C253 1.378 . S
C254 C255 1.378 . S
C254 H266 0.952 . S
C255 C254 1.378 . S
C255 H267 0.950 . S
C255 C286 1.383 . S
H256 C275 0.947 . S
H257 C276 0.946 . S
H258 C278 0.953 . S
H259 C279 0.945 . S
H260 C281 0.952 . S
H261 C282 0.949 . S
H262 C284 0.950 . S
H263 C285 0.948 . S
H264 C287 0.951 . S
H265 C252 0.947 . S
H266 C254 0.952 . S
H267 C255 0.950 . S
N268 C271 1.382 . S
N268 C273 1.363 . S
N269 C271 1.371 . S
N269 C272 1.372 . S
N270 C272 1.361 . S
N270 C273 1.377 . S
C271 N268 1.382 . S
C271 N269 1.371 . S
C271 C274 1.480 . S
C272 N269 1.372 . S
C272 N270 1.361 . S
C272 C280 1.457 . S
C273 N268 1.363 . S
C273 N270 1.377 . S
C273 C286 1.479 . S
C274 C271 1.480 . S
C274 C275 1.383 . S
C274 C279 1.385 . S
C275 H256 0.947 . S
C275 C274 1.383 . S
C275 C276 1.388 . S
C276 H257 0.946 . S
C276 C275 1.388 . S
C276 C277 1.384 . S
C277 C276 1.384 . S
C277 C278 1.377 . S
C278 H258 0.953 . S
C278 C277 1.377 . S
C278 C279 1.369 . S
C279 H259 0.945 . S
C279 C274 1.385 . S
C279 C278 1.369 . S
C280 C272 1.457 . S
C280 C281 1.372 . S
C280 C285 1.364 . S
C281 H260 0.952 . S
C281 C280 1.372 . S
C281 C282 1.389 . S
C282 H261 0.949 . S
C282 C281 1.389 . S
C282 C283 1.387 . S
C283 C282 1.387 . S
C283 C284 1.372 . S
C284 H262 0.950 . S
C284 C283 1.372 . S
C284 C285 1.379 . S
C285 H263 0.948 . S
C285 C280 1.364 . S
C285 C284 1.379 . S
C286 C255 1.383 . S
C286 C273 1.479 . S
C286 C287 1.398 . S
C287 C252 1.382 . S
C287 H264 0.951 . S
C287 C286 1.398 . S
Zn288 O294 1.920 . S
Zn288 O300 1.898 . S
Zn288 O303 1.905 . S
Zn289 O297 1.905 1_565 S
Zn289 O298 1.898 . S
Zn289 O306 1.920 . S
Zn290 O293 2.080 1_455 S
Zn290 O296 2.114 . S
Zn290 O299 2.120 1_445 S
Zn290 O301 2.120 . S
Zn290 O302 2.114 1_455 S
Zn290 O305 2.080 . S
C291 O296 1.166 . S
C291 O297 1.182 . S
C292 O298 1.167 1_655 S
C292 O299 1.299 . S
O293 Zn290 2.080 1_655 S
O293 C307 1.305 . S
O294 Zn288 1.920 . S
O294 C307 1.234 . S
C295 O300 1.167 1_455 S
C295 O301 1.299 . S
O296 Zn290 2.114 . S
O296 C291 1.166 . S
O297 Zn289 1.905 1_545 S
O297 C291 1.182 . S
O298 Zn289 1.898 . S
O298 C292 1.167 1_455 S
O299 Zn290 2.120 1_665 S
O299 C292 1.299 . S
O300 Zn288 1.898 . S
O300 C295 1.167 1_655 S
O301 Zn290 2.120 . S
O301 C295 1.299 . S
O302 Zn290 2.114 1_655 S
O302 C304 1.166 . S
O303 Zn288 1.905 . S
O303 C304 1.182 . S
C304 O302 1.166 . S
C304 O303 1.182 . S
O305 Zn290 2.080 . S
O305 C308 1.305 1_545 S
O306 Zn289 1.920 . S
O306 C308 1.234 . S
C307 O293 1.305 . S
C307 O294 1.234 . S
C308 O305 1.305 1_565 S
C308 O306 1.234 . S
Zn309 O315 1.920 1_556 S
Zn309 O321 1.898 . S
Zn309 O324 1.905 . S
Zn310 O318 1.905 . S
Zn310 O319 1.898 . S
Zn310 O327 1.920 . S
Zn311 O314 2.080 . S
Zn311 O317 2.114 1_545 S
Zn311 O320 2.120 1_545 S
Zn311 O322 2.120 . S
Zn311 O323 2.114 1_544 S
Zn311 O326 2.080 . S
C312 O317 1.166 . S
C312 O318 1.182 . S
C313 O319 1.167 . S
C313 O320 1.299 . S
O314 Zn311 2.080 . S
O314 C328 1.305 . S
O315 Zn309 1.920 1_554 S
O315 C328 1.234 . S
C316 O321 1.167 . S
C316 O322 1.299 1_556 S
O317 Zn311 2.114 1_565 S
O317 C312 1.166 . S
O318 Zn310 1.905 . S
O318 C312 1.182 . S
O319 Zn310 1.898 . S
O319 C313 1.167 . S
O320 Zn311 2.120 1_565 S
O320 C313 1.299 . S
O321 Zn309 1.898 . S
O321 C316 1.167 . S
O322 Zn311 2.120 . S
O322 C316 1.299 1_554 S
O323 Zn311 2.114 1_566 S
O323 C325 1.166 . S
O324 Zn309 1.905 . S
O324 C325 1.182 1_545 S
C325 O323 1.166 . S
C325 O324 1.182 1_565 S
O326 Zn311 2.080 . S
O326 C329 1.305 . S
O327 Zn310 1.920 . S
O327 C329 1.234 1_565 S
C328 O314 1.305 . S
C328 O315 1.234 . S
C329 O326 1.305 . S
C329 O327 1.234 1_545 S
Zn330 O336 1.920 . S
Zn330 O342 1.898 . S
Zn330 O345 1.905 . S
Zn331 O339 1.905 . S
Zn331 O340 1.898 . S
Zn331 O348 1.920 . S
Zn332 O335 2.080 . S
Zn332 O338 2.114 . S
Zn332 O341 2.120 . S
Zn332 O343 2.120 . S
Zn332 O344 2.114 . S
Zn332 O347 2.080 . S
C333 O338 1.166 . S
C333 O339 1.182 . S
C334 O340 1.167 . S
C334 O341 1.299 . S
O335 Zn332 2.080 . S
O335 C349 1.305 . S
O336 Zn330 1.920 . S
O336 C349 1.234 . S
C337 O342 1.167 . S
C337 O343 1.299 . S
O338 Zn332 2.114 . S
O338 C333 1.166 . S
O339 Zn331 1.905 . S
O339 C333 1.182 . S
O340 Zn331 1.898 . S
O340 C334 1.167 . S
O341 Zn332 2.120 . S
O341 C334 1.299 . S
O342 Zn330 1.898 . S
O342 C337 1.167 . S
O343 Zn332 2.120 . S
O343 C337 1.299 . S
O344 Zn332 2.114 . S
O344 C346 1.166 . S
O345 Zn330 1.905 . S
O345 C346 1.182 . S
C346 O344 1.166 . S
C346 O345 1.182 . S
O347 Zn332 2.080 . S
O347 C350 1.305 . S
O348 Zn331 1.920 . S
O348 C350 1.234 . S
C349 O335 1.305 . S
C349 O336 1.234 . S
C350 O347 1.305 . S
C350 O348 1.234 . S
Zn351 O357 1.920 . S
Zn351 O363 1.898 . S
Zn351 O366 1.905 . S
Zn352 O360 1.905 1_655 S
Zn352 O361 1.898 . S
Zn352 O369 1.920 . S
Zn353 O356 2.080 1_554 S
Zn353 O359 2.114 . S
Zn353 O362 2.120 1_454 S
Zn353 O364 2.120 . S
Zn353 O365 2.114 1_554 S
Zn353 O368 2.080 . S
C354 O359 1.166 . S
C354 O360 1.182 . S
C355 O361 1.167 1_556 S
C355 O362 1.299 . S
O356 Zn353 2.080 1_556 S
O356 C370 1.305 . S
O357 Zn351 1.920 . S
O357 C370 1.234 . S
C358 O363 1.167 1_554 S
C358 O364 1.299 . S
O359 Zn353 2.114 . S
O359 C354 1.166 . S
O360 Zn352 1.905 1_455 S
O360 C354 1.182 . S
O361 Zn352 1.898 . S
O361 C355 1.167 1_554 S
O362 Zn353 2.120 1_656 S
O362 C355 1.299 . S
O363 Zn351 1.898 . S
O363 C358 1.167 1_556 S
O364 Zn353 2.120 . S
O364 C358 1.299 . S
O365 Zn353 2.114 1_556 S
O365 C367 1.166 . S
O366 Zn351 1.905 . S
O366 C367 1.182 . S
C367 O365 1.166 . S
C367 O366 1.182 . S
O368 Zn353 2.080 . S
O368 C371 1.305 1_455 S
O369 Zn352 1.920 . S
O369 C371 1.234 . S
C370 O356 1.305 . S
C370 O357 1.234 . S
C371 O368 1.305 1_655 S
C371 O369 1.234 . S
H372 C378 0.930 . S
H373 C381 0.930 . S
H374 C382 0.930 . S
H375 C383 0.930 . S
H376 C386 0.930 . S
H377 C387 0.930 . S
C378 H372 0.930 . S
C378 C379 1.355 . S
C378 C380 1.415 . S
C379 C378 1.355 . S
C379 C381 1.419 . S
C380 C378 1.415 . S
C380 C385 1.425 . S
C380 C387 1.409 . S
C381 H373 0.930 . S
C381 C379 1.419 . S
C381 C382 1.362 . S
C382 H374 0.930 . S
C382 C381 1.362 . S
C382 C385 1.409 . S
C383 H375 0.930 . S
C383 C384 1.355 . S
C383 C385 1.415 . S
C384 C383 1.355 . S
C384 C386 1.419 . S
C385 C380 1.425 . S
C385 C382 1.409 . S
C385 C383 1.415 . S
C386 H376 0.930 . S
C386 C384 1.419 . S
C386 C387 1.362 . S
C387 H377 0.930 . S
C387 C380 1.409 . S
C387 C386 1.362 . S
H388 C394 0.930 . S
H389 C397 0.930 . S
H390 C398 0.930 . S
H391 C399 0.930 1_545 S
H392 C402 0.930 . S
H393 C403 0.930 . S
C394 H388 0.930 . S
C394 C395 1.355 . S
C394 C396 1.415 . S
C395 C394 1.355 . S
C395 C397 1.419 . S
C396 C394 1.415 . S
C396 C401 1.425 . S
C396 C403 1.409 . S
C397 H389 0.930 . S
C397 C395 1.419 . S
C397 C398 1.362 . S
C398 H390 0.930 . S
C398 C397 1.362 . S
C398 C401 1.409 . S
C399 H391 0.930 1_565 S
C399 C400 1.355 . S
C399 C401 1.415 . S
C400 C399 1.355 . S
C400 C402 1.419 . S
C401 C396 1.425 . S
C401 C398 1.409 . S
C401 C399 1.415 . S
C402 H392 0.930 . S
C402 C400 1.419 . S
C402 C403 1.362 . S
C403 H393 0.930 . S
C403 C396 1.409 . S
C403 C402 1.362 . S
H404 C410 0.930 . S
H405 C413 0.930 . S
H406 C414 0.930 . S
H407 C415 0.930 . S
H408 C418 0.930 . S
H409 C419 0.930 . S
C410 H404 0.930 . S
C410 C411 1.355 . S
C410 C412 1.415 . S
C411 C410 1.355 . S
C411 C413 1.419 . S
C412 C410 1.415 . S
C412 C417 1.425 . S
C412 C419 1.409 . S
C413 H405 0.930 . S
C413 C411 1.419 . S
C413 C414 1.362 . S
C414 H406 0.930 . S
C414 C413 1.362 . S
C414 C417 1.409 . S
C415 H407 0.930 . S
C415 C416 1.355 . S
C415 C417 1.415 . S
C416 C415 1.355 . S
C416 C418 1.419 . S
C417 C412 1.425 . S
C417 C414 1.409 . S
C417 C415 1.415 . S
C418 H408 0.930 . S
C418 C416 1.419 . S
C418 C419 1.362 . S
C419 H409 0.930 . S
C419 C412 1.409 . S
C419 C418 1.362 . S
H420 C426 0.930 . S
H421 C429 0.930 . S
H422 C430 0.930 . S
H423 C431 0.930 . S
H424 C434 0.930 . S
H425 C435 0.930 . S
C426 H420 0.930 . S
C426 C427 1.355 . S
C426 C428 1.415 . S
C427 C426 1.355 . S
C427 C429 1.419 . S
C428 C426 1.415 . S
C428 C433 1.425 . S
C428 C435 1.409 . S
C429 H421 0.930 . S
C429 C427 1.419 . S
C429 C430 1.362 . S
C430 H422 0.930 . S
C430 C429 1.362 . S
C430 C433 1.409 . S
C431 H423 0.930 . S
C431 C432 1.355 . S
C431 C433 1.415 . S
C432 C431 1.355 . S
C432 C434 1.419 . S
C433 C428 1.425 . S
C433 C430 1.409 . S
C433 C431 1.415 . S
C434 H424 0.930 . S
C434 C432 1.419 . S
C434 C435 1.362 . S
C435 H425 0.930 . S
C435 C428 1.409 . S
C435 C434 1.362 . S
H436 C442 0.930 . S
H437 C445 0.930 . S
H438 C446 0.930 . S
H439 C447 0.930 . S
H440 C450 0.930 . S
H441 C451 0.930 . S
C442 H436 0.930 . S
C442 C443 1.355 . S
C442 C444 1.415 . S
C443 C442 1.355 . S
C443 C445 1.419 . S
C444 C442 1.415 . S
C444 C449 1.425 . S
C444 C451 1.409 . S
C445 H437 0.930 . S
C445 C443 1.419 . S
C445 C446 1.362 . S
C446 H438 0.930 . S
C446 C445 1.362 . S
C446 C449 1.409 . S
C447 H439 0.930 . S
C447 C448 1.355 . S
C447 C449 1.415 . S
C448 C447 1.355 . S
C448 C450 1.419 . S
C449 C444 1.425 . S
C449 C446 1.409 . S
C449 C447 1.415 . S
C450 H440 0.930 . S
C450 C448 1.419 . S
C450 C451 1.362 . S
C451 H441 0.930 . S
C451 C444 1.409 . S
C451 C450 1.362 . S
H452 C458 0.930 . S
H453 C461 0.930 . S
H454 C462 0.930 1_545 S
H455 C463 0.930 1_545 S
H456 C466 0.930 . S
H457 C467 0.930 . S
C458 H452 0.930 . S
C458 C459 1.355 . S
C458 C460 1.415 . S
C459 C458 1.355 . S
C459 C461 1.419 . S
C460 C458 1.415 . S
C460 C465 1.425 . S
C460 C467 1.409 . S
C461 H453 0.930 . S
C461 C459 1.419 . S
C461 C462 1.362 . S
C462 H454 0.930 1_565 S
C462 C461 1.362 . S
C462 C465 1.409 . S
C463 H455 0.930 1_565 S
C463 C464 1.355 . S
C463 C465 1.415 . S
C464 C463 1.355 . S
C464 C466 1.419 . S
C465 C460 1.425 . S
C465 C462 1.409 . S
C465 C463 1.415 . S
C466 H456 0.930 . S
C466 C464 1.419 . S
C466 C467 1.362 . S
C467 H457 0.930 . S
C467 C460 1.409 . S
C467 C466 1.362 . S
H468 C474 0.930 . S
H469 C477 0.930 . S
H470 C478 0.930 . S
H471 C479 0.930 . S
H472 C482 0.930 1_554 S
H473 C483 0.930 . S
C474 H468 0.930 . S
C474 C475 1.355 . S
C474 C476 1.415 . S
C475 C474 1.355 . S
C475 C477 1.419 . S
C476 C474 1.415 . S
C476 C481 1.425 . S
C476 C483 1.409 . S
C477 H469 0.930 . S
C477 C475 1.419 . S
C477 C478 1.362 . S
C478 H470 0.930 . S
C478 C477 1.362 . S
C478 C481 1.409 . S
C479 H471 0.930 . S
C479 C480 1.355 . S
C479 C481 1.415 . S
C480 C479 1.355 . S
C480 C482 1.419 . S
C481 C476 1.425 . S
C481 C478 1.409 . S
C481 C479 1.415 . S
C482 H472 0.930 1_556 S
C482 C480 1.419 . S
C482 C483 1.362 . S
C483 H473 0.930 . S
C483 C476 1.409 . S
C483 C482 1.362 . S
H484 C490 0.930 . S
H485 C493 0.930 . S
H486 C494 0.930 . S
H487 C495 0.930 . S
H488 C498 0.930 . S
H489 C499 0.930 . S
C490 H484 0.930 . S
C490 C491 1.355 . S
C490 C492 1.415 . S
C491 C490 1.355 . S
C491 C493 1.419 . S
C492 C490 1.415 . S
C492 C497 1.425 . S
C492 C499 1.409 . S
C493 H485 0.930 . S
C493 C491 1.419 . S
C493 C494 1.362 . S
C494 H486 0.930 . S
C494 C493 1.362 . S
C494 C497 1.409 . S
C495 H487 0.930 . S
C495 C496 1.355 . S
C495 C497 1.415 . S
C496 C495 1.355 . S
C496 C498 1.419 . S
C497 C492 1.425 . S
C497 C494 1.409 . S
C497 C495 1.415 . S
C498 H488 0.930 . S
C498 C496 1.419 . S
C498 C499 1.362 . S
C499 H489 0.930 . S
C499 C492 1.409 . S
C499 C498 1.362 . S
H500 C506 0.930 . S
H501 C509 0.930 . S
H502 C510 0.930 . S
H503 C511 0.930 . S
H504 C514 0.930 . S
H505 C515 0.930 . S
C506 H500 0.930 . S
C506 C507 1.355 . S
C506 C508 1.415 . S
C507 C506 1.355 . S
C507 C509 1.419 . S
C508 C506 1.415 . S
C508 C513 1.425 . S
C508 C515 1.409 . S
C509 H501 0.930 . S
C509 C507 1.419 . S
C509 C510 1.362 . S
C510 H502 0.930 . S
C510 C509 1.362 . S
C510 C513 1.409 . S
C511 H503 0.930 . S
C511 C512 1.355 . S
C511 C513 1.415 . S
C512 C511 1.355 . S
C512 C514 1.419 . S
C513 C508 1.425 . S
C513 C510 1.409 . S
C513 C511 1.415 . S
C514 H504 0.930 . S
C514 C512 1.419 . S
C514 C515 1.362 . S
C515 H505 0.930 . S
C515 C508 1.409 . S
C515 C514 1.362 . S
H516 C522 0.930 . S
H517 C525 0.930 . S
H518 C526 0.930 . S
H519 C527 0.930 . S
H520 C530 0.930 1_554 S
H521 C531 0.930 1_554 S
C522 H516 0.930 . S
C522 C523 1.355 . S
C522 C524 1.415 . S
C523 C522 1.355 . S
C523 C525 1.419 . S
C524 C522 1.415 . S
C524 C529 1.425 . S
C524 C531 1.409 . S
C525 H517 0.930 . S
C525 C523 1.419 . S
C525 C526 1.362 . S
C526 H518 0.930 . S
C526 C525 1.362 . S
C526 C529 1.409 . S
C527 H519 0.930 . S
C527 C528 1.355 . S
C527 C529 1.415 . S
C528 C527 1.355 . S
C528 C530 1.419 . S
C529 C524 1.425 . S
C529 C526 1.409 . S
C529 C527 1.415 . S
C530 H520 0.930 1_556 S
C530 C528 1.419 . S
C530 C531 1.362 . S
C531 H521 0.930 1_556 S
C531 C524 1.409 . S
C531 C530 1.362 . S
H532 C538 0.930 . S
H533 C541 0.930 . S
H534 C542 0.930 . S
H535 C543 0.930 . S
H536 C546 0.930 . S
H537 C547 0.930 . S
C538 H532 0.930 . S
C538 C539 1.355 . S
C538 C540 1.415 . S
C539 C538 1.355 . S
C539 C541 1.419 . S
C540 C538 1.415 . S
C540 C545 1.425 . S
C540 C547 1.409 . S
C541 H533 0.930 . S
C541 C539 1.419 . S
C541 C542 1.362 . S
C542 H534 0.930 . S
C542 C541 1.362 . S
C542 C545 1.409 . S
C543 H535 0.930 . S
C543 C544 1.355 . S
C543 C545 1.415 . S
C544 C543 1.355 . S
C544 C546 1.419 . S
C545 C540 1.425 . S
C545 C542 1.409 . S
C545 C543 1.415 . S
C546 H536 0.930 . S
C546 C544 1.419 . S
C546 C547 1.362 . S
C547 H537 0.930 . S
C547 C540 1.409 . S
C547 C546 1.362 . S
H548 C554 0.930 . S
H549 C557 0.930 . S
H550 C558 0.930 . S
H551 C559 0.930 . S
H552 C562 0.930 . S
H553 C563 0.930 . S
C554 H548 0.930 . S
C554 C555 1.355 . S
C554 C556 1.415 . S
C555 C554 1.355 . S
C555 C557 1.419 . S
C556 C554 1.415 . S
C556 C561 1.425 . S
C556 C563 1.409 . S
C557 H549 0.930 . S
C557 C555 1.419 . S
C557 C558 1.362 . S
C558 H550 0.930 . S
C558 C557 1.362 . S
C558 C561 1.409 . S
C559 H551 0.930 . S
C559 C560 1.355 . S
C559 C561 1.415 . S
C560 C559 1.355 . S
C560 C562 1.419 . S
C561 C556 1.425 . S
C561 C558 1.409 . S
C561 C559 1.415 . S
C562 H552 0.930 . S
C562 C560 1.419 . S
C562 C563 1.362 . S
C563 H553 0.930 . S
C563 C556 1.409 . S
C563 C562 1.362 . S
H564 C570 0.930 . S
H565 C573 0.930 . S
H566 C574 0.930 . S
H567 C575 0.930 1_455 S
H568 C578 0.930 . S
H569 C579 0.930 . S
C570 H564 0.930 . S
C570 C571 1.355 1_565 S
C570 C572 1.415 . S
C571 C570 1.355 1_545 S
C571 C573 1.419 1_655 S
C572 C570 1.415 . S
C572 C577 1.425 1_565 S
C572 C579 1.409 . S
C573 H565 0.930 . S
C573 C571 1.419 1_455 S
C573 C574 1.362 . S
C574 H566 0.930 . S
C574 C573 1.362 . S
C574 C577 1.409 1_455 S
C575 H567 0.930 1_655 S
C575 C576 1.355 . S
C575 C577 1.415 . S
C576 C575 1.355 . S
C576 C578 1.419 1_545 S
C577 C572 1.425 1_545 S
C577 C574 1.409 1_655 S
C577 C575 1.415 . S
C578 H568 0.930 . S
C578 C576 1.419 1_565 S
C578 C579 1.362 . S
C579 H569 0.930 . S
C579 C572 1.409 . S
C579 C578 1.362 . S
H580 C586 0.930 1_565 S
H581 C589 0.930 . S
H582 C590 0.930 . S
H583 C591 0.930 . S
H584 C594 0.930 . S
H585 C595 0.930 . S
C586 H580 0.930 1_545 S
C586 C587 1.355 . S
C586 C588 1.415 . S
C587 C586 1.355 . S
C587 C589 1.419 . S
C588 C586 1.415 . S
C588 C593 1.425 . S
C588 C595 1.409 1_545 S
C589 H581 0.930 . S
C589 C587 1.419 . S
C589 C590 1.362 . S
C590 H582 0.930 . S
C590 C589 1.362 . S
C590 C593 1.409 . S
C591 H583 0.930 . S
C591 C592 1.355 . S
C591 C593 1.415 . S
C592 C591 1.355 . S
C592 C594 1.419 1_545 S
C593 C588 1.425 . S
C593 C590 1.409 . S
C593 C591 1.415 . S
C594 H584 0.930 . S
C594 C592 1.419 1_565 S
C594 C595 1.362 . S
C595 H585 0.930 . S
C595 C588 1.409 1_565 S
C595 C594 1.362 . S
H596 C602 0.930 . S
H597 C605 0.930 . S
H598 C606 0.930 . S
H599 C607 0.930 . S
H600 C610 0.930 . S
H601 C611 0.930 . S
C602 H596 0.930 . S
C602 C603 1.355 . S
C602 C604 1.415 . S
C603 C602 1.355 . S
C603 C605 1.419 . S
C604 C602 1.415 . S
C604 C609 1.425 . S
C604 C611 1.409 . S
C605 H597 0.930 . S
C605 C603 1.419 . S
C605 C606 1.362 . S
C606 H598 0.930 . S
C606 C605 1.362 . S
C606 C609 1.409 . S
C607 H599 0.930 . S
C607 C608 1.355 . S
C607 C609 1.415 . S
C608 C607 1.355 . S
C608 C610 1.419 . S
C609 C604 1.425 . S
C609 C606 1.409 . S
C609 C607 1.415 . S
C610 H600 0.930 . S
C610 C608 1.419 . S
C610 C611 1.362 . S
C611 H601 0.930 . S
C611 C604 1.409 . S
C611 C610 1.362 . S
H612 C618 0.930 . S
H613 C621 0.930 . S
H614 C622 0.930 . S
H615 C623 0.930 . S
H616 C626 0.930 . S
H617 C627 0.930 . S
C618 H612 0.930 . S
C618 C619 1.355 . S
C618 C620 1.415 . S
C619 C618 1.355 . S
C619 C621 1.419 . S
C620 C618 1.415 . S
C620 C625 1.425 . S
C620 C627 1.409 . S
C621 H613 0.930 . S
C621 C619 1.419 . S
C621 C622 1.362 . S
C622 H614 0.930 . S
C622 C621 1.362 . S
C622 C625 1.409 . S
C623 H615 0.930 . S
C623 C624 1.355 . S
C623 C625 1.415 . S
C624 C623 1.355 . S
C624 C626 1.419 . S
C625 C620 1.425 . S
C625 C622 1.409 . S
C625 C623 1.415 . S
C626 H616 0.930 . S
C626 C624 1.419 . S
C626 C627 1.362 . S
C627 H617 0.930 . S
C627 C620 1.409 . S
C627 C626 1.362 . S
H628 C634 0.929 . S
H629 C637 0.930 . S
H630 C638 0.930 . S
H631 C639 0.930 . S
H632 C642 0.930 . S
H633 C643 0.930 . S
C634 H628 0.929 . S
C634 C635 1.355 1_545 S
C634 C636 1.415 1_545 S
C635 C634 1.355 1_565 S
C635 C637 1.419 1_554 S
C636 C634 1.415 1_565 S
C636 C641 1.425 1_554 S
C636 C643 1.409 1_565 S
C637 H629 0.930 . S
C637 C635 1.419 1_556 S
C637 C638 1.362 . S
C638 H630 0.930 . S
C638 C637 1.362 . S
C638 C641 1.409 . S
C639 H631 0.930 . S
C639 C640 1.355 1_556 S
C639 C641 1.415 . S
C640 C639 1.355 1_554 S
C640 C642 1.419 1_565 S
C641 C636 1.425 1_556 S
C641 C638 1.409 . S
C641 C639 1.415 . S
C642 H632 0.930 . S
C642 C640 1.419 1_545 S
C642 C643 1.362 . S
C643 H633 0.930 . S
C643 C636 1.409 1_545 S
C643 C642 1.362 . S
H644 C650 0.930 . S
H645 C653 0.930 . S
H646 C654 0.930 . S
H647 C655 0.930 . S
H648 C658 0.930 . S
H649 C659 0.930 . S
C650 H644 0.930 . S
C650 C651 1.355 . S
C650 C652 1.415 . S
C651 C650 1.355 . S
C651 C653 1.419 . S
C652 C650 1.415 . S
C652 C657 1.425 . S
C652 C659 1.409 . S
C653 H645 0.930 . S
C653 C651 1.419 . S
C653 C654 1.362 . S
C654 H646 0.930 . S
C654 C653 1.362 . S
C654 C657 1.409 . S
C655 H647 0.930 . S
C655 C656 1.355 . S
C655 C657 1.415 . S
C656 C655 1.355 . S
C656 C658 1.419 . S
C657 C652 1.425 . S
C657 C654 1.409 . S
C657 C655 1.415 . S
C658 H648 0.930 . S
C658 C656 1.419 . S
C658 C659 1.362 . S
C659 H649 0.930 . S
C659 C652 1.409 . S
C659 C658 1.362 . S
H660 C666 0.930 1_556 S
H661 C669 0.930 . S
H662 C670 0.930 . S
H663 C671 0.930 . S
H664 C674 0.930 . S
H665 C675 0.930 . S
C666 H660 0.930 1_554 S
C666 C667 1.355 . S
C666 C668 1.415 . S
C667 C666 1.355 . S
C667 C669 1.419 . S
C668 C666 1.415 . S
C668 C673 1.425 . S
C668 C675 1.409 1_554 S
C669 H661 0.930 . S
C669 C667 1.419 . S
C669 C670 1.362 . S
C670 H662 0.930 . S
C670 C669 1.362 . S
C670 C673 1.409 . S
C671 H663 0.930 . S
C671 C672 1.355 . S
C671 C673 1.415 . S
C672 C671 1.355 . S
C672 C674 1.419 1_554 S
C673 C668 1.425 . S
C673 C670 1.409 . S
C673 C671 1.415 . S
C674 H664 0.930 . S
C674 C672 1.419 1_556 S
C674 C675 1.362 . S
C675 H665 0.930 . S
C675 C668 1.409 1_556 S
C675 C674 1.362 . S
H676 C682 0.930 . S
H677 C685 0.930 . S
H678 C686 0.930 . S
H679 C687 0.930 . S
H680 C690 0.930 . S
H681 C691 0.930 . S
C682 H676 0.930 . S
C682 C683 1.355 . S
C682 C684 1.415 . S
C683 C682 1.355 . S
C683 C685 1.419 . S
C684 C682 1.415 . S
C684 C689 1.425 . S
C684 C691 1.409 . S
C685 H677 0.930 . S
C685 C683 1.419 . S
C685 C686 1.362 . S
C686 H678 0.930 . S
C686 C685 1.362 . S
C686 C689 1.409 . S
C687 H679 0.930 . S
C687 C688 1.355 . S
C687 C689 1.415 . S
C688 C687 1.355 . S
C688 C690 1.419 . S
C689 C684 1.425 . S
C689 C686 1.409 . S
C689 C687 1.415 . S
C690 H680 0.930 . S
C690 C688 1.419 . S
C690 C691 1.362 . S
C691 H681 0.930 . S
C691 C684 1.409 . S
C691 C690 1.362 . S
H692 C698 0.939 . S
H693 C701 0.930 . S
H694 C702 0.930 . S
H695 C703 0.930 . S
H696 C706 0.930 . S
H697 C707 0.930 . S
C698 H692 0.939 . S
C698 C699 1.349 1_654 S
C698 C700 1.412 1_554 S
C699 C698 1.349 1_456 S
C699 C701 1.419 . S
C700 C698 1.412 1_556 S
C700 C705 1.425 1_655 S
C700 C707 1.409 1_556 S
C701 H693 0.930 . S
C701 C699 1.419 . S
C701 C702 1.362 . S
C702 H694 0.930 . S
C702 C701 1.362 . S
C702 C705 1.409 . S
C703 H695 0.930 . S
C703 C704 1.355 . S
C703 C705 1.415 . S
C704 C703 1.355 . S
C704 C706 1.419 1_456 S
C705 C700 1.425 1_455 S
C705 C702 1.409 . S
C705 C703 1.415 . S
C706 H696 0.930 . S
C706 C704 1.419 1_654 S
C706 C707 1.362 . S
C707 H697 0.930 . S
C707 C700 1.409 1_554 S
C707 C706 1.362 . S
H708 C714 0.930 . S
H709 C717 0.930 . S
H710 C718 0.930 . S
H711 C719 0.930 . S
H712 C722 0.930 . S
H713 C723 0.930 . S
C714 H708 0.930 . S
C714 C715 1.355 . S
C714 C716 1.415 . S
C715 C714 1.355 . S
C715 C717 1.419 . S
C716 C714 1.415 . S
C716 C721 1.425 . S
C716 C723 1.409 . S
C717 H709 0.930 . S
C717 C715 1.419 . S
C717 C718 1.362 . S
C718 H710 0.930 . S
C718 C717 1.362 . S
C718 C721 1.409 . S
C719 H711 0.930 . S
C719 C720 1.355 . S
C719 C721 1.415 . S
C720 C719 1.355 . S
C720 C722 1.419 . S
C721 C716 1.425 . S
C721 C718 1.409 . S
C721 C719 1.415 . S
C722 H712 0.930 . S
C722 C720 1.419 . S
C722 C723 1.362 . S
C723 H713 0.930 . S
C723 C716 1.409 . S
C723 C722 1.362 . S
H724 C730 0.930 1_655 S
H725 C733 0.930 . S
H726 C734 0.930 . S
H727 C735 0.930 . S
H728 C738 0.930 . S
H729 C739 0.930 . S
C730 H724 0.930 1_455 S
C730 C731 1.355 . S
C730 C732 1.415 . S
C731 C730 1.355 . S
C731 C733 1.419 . S
C732 C730 1.415 . S
C732 C737 1.425 . S
C732 C739 1.409 1_455 S
C733 H725 0.930 . S
C733 C731 1.419 . S
C733 C734 1.362 . S
C734 H726 0.930 . S
C734 C733 1.362 . S
C734 C737 1.409 . S
C735 H727 0.930 . S
C735 C736 1.355 . S
C735 C737 1.415 . S
C736 C735 1.355 . S
C736 C738 1.419 1_455 S
C737 C732 1.425 . S
C737 C734 1.409 . S
C737 C735 1.415 . S
C738 H728 0.930 . S
C738 C736 1.419 1_655 S
C738 C739 1.362 . S
C739 H729 0.930 . S
C739 C732 1.409 1_655 S
C739 C738 1.362 . S
H740 C746 0.930 . S
H741 C749 0.930 . S
H742 C750 0.930 . S
H743 C751 0.930 . S
H744 C754 0.930 . S
H745 C755 0.930 . S
C746 H740 0.930 . S
C746 C747 1.355 . S
C746 C748 1.415 . S
C747 C746 1.355 . S
C747 C749 1.419 . S
C748 C746 1.415 . S
C748 C753 1.425 . S
C748 C755 1.409 . S
C749 H741 0.930 . S
C749 C747 1.419 . S
C749 C750 1.362 . S
C750 H742 0.930 . S
C750 C749 1.362 . S
C750 C753 1.409 . S
C751 H743 0.930 . S
C751 C752 1.355 . S
C751 C753 1.415 . S
C752 C751 1.355 . S
C752 C754 1.419 . S
C753 C748 1.425 . S
C753 C750 1.409 . S
C753 C751 1.415 . S
C754 H744 0.930 . S
C754 C752 1.419 . S
C754 C755 1.362 . S
C755 H745 0.930 . S
C755 C748 1.409 . S
C755 C754 1.362 . S
C379 C1 1.519 . S
C384 C291 1.393 . S
C395 C67 1.509 . S
C400 C325 1.460 . S
C416 C337 1.425 . S
C411 C97 1.474 . S
C427 C133 1.496 . S
C432 C371 1.447 . S
C448 C328 1.374 . S
C443 C25 1.511 . S
C464 C308 1.404 . S
C459 C37 1.511 . S
C480 C355 1.342 . S
C475 C103 1.489 . S
C496 C346 1.451 . S
C491 C109 1.498 . S
C507 C31 1.534 . S
C512 C354 1.404 . S
C528 C316 1.362 . S
C523 C73 1.484 . S
C539 C139 1.521 . S
C544 C292 1.366 . S
C555 C61 1.511 . S
C560 C349 1.372 . S
C576 C307 1.656 . S
C571 C175 1.772 1_545 S
C587 C181 1.637 . S
C592 C329 1.608 . S
C603 C247 1.781 . S
C608 C334 1.694 . S
C619 C277 1.787 . S
C624 C367 1.685 . S
C635 C145 1.717 1_554 S
C640 C312 1.634 . S
C656 C304 1.674 . S
C651 C211 1.733 . S
C672 C358 1.634 . S
C667 C217 1.719 . S
C688 C350 1.661 . S
C683 C283 1.731 . S
C699 C169 1.745 1_455 S
C704 C370 1.664 . S
C720 C313 1.612 . S
C715 C241 1.738 . S
C736 C295 1.585 . S
C731 C253 1.716 . S
C747 C205 1.671 . S
C752 C333 1.604 . S
