# Generated by pormake.
# Topology anh, (6,3)-cn, num edge types: 1
# Building blocks:
#     Node 0, Type 0, BuildingBlock: MIFKUJ_clean_sbu_0, # of connection points: 6
#     Node 1, Type 0, BuildingBlock: MIFKUJ_clean_sbu_0, # of connection points: 6
#     Node 2, Type 0, BuildingBlock: MIFKUJ_clean_sbu_0, # of connection points: 6
#     Node 3, Type 1, BuildingBlock: ESEHIV_clean_linker_0, # of connection points: 3
#     Node 4, Type 1, BuildingBlock: ESEHIV_clean_linker_0, # of connection points: 3
#     Node 5, Type 1, BuildingBlock: ESEHIV_clean_linker_0, # of connection points: 3
#     Node 6, Type 1, BuildingBlock: ESEHIV_clean_linker_0, # of connection points: 3
#     Node 7, Type 1, BuildingBlock: ESEHIV_clean_linker_0, # of connection points: 3
#     Node 8, Type 1, BuildingBlock: ESEHIV_clean_linker_0, # of connection points: 3
#     Edge 9, Type (0, 1), BuildingBlock: UVAHIK_clean_linker_0, # of connection points: 2
#     Edge 10, Type (0, 1), BuildingBlock: UVAHIK_clean_linker_0, # of connection points: 2
#     Edge 11, Type (0, 1), BuildingBlock: UVAHIK_clean_linker_0, # of connection points: 2
#     Edge 12, Type (0, 1), BuildingBlock: UVAHIK_clean_linker_0, # of connection points: 2
#     Edge 13, Type (0, 1), BuildingBlock: UVAHIK_clean_linker_0, # of connection points: 2
#     Edge 14, Type (0, 1), BuildingBlock: UVAHIK_clean_linker_0, # of connection points: 2
#     Edge 15, Type (0, 1), BuildingBlock: UVAHIK_clean_linker_0, # of connection points: 2
#     Edge 16, Type (0, 1), BuildingBlock: UVAHIK_clean_linker_0, # of connection points: 2
#     Edge 17, Type (0, 1), BuildingBlock: UVAHIK_clean_linker_0, # of connection points: 2
#     Edge 18, Type (0, 1), BuildingBlock: UVAHIK_clean_linker_0, # of connection points: 2
#     Edge 19, Type (0, 1), BuildingBlock: UVAHIK_clean_linker_0, # of connection points: 2
#     Edge 20, Type (0, 1), BuildingBlock: UVAHIK_clean_linker_0, # of connection points: 2
#     Edge 21, Type (0, 1), BuildingBlock: UVAHIK_clean_linker_0, # of connection points: 2
#     Edge 22, Type (0, 1), BuildingBlock: UVAHIK_clean_linker_0, # of connection points: 2
#     Edge 23, Type (0, 1), BuildingBlock: UVAHIK_clean_linker_0, # of connection points: 2
#     Edge 24, Type (0, 1), BuildingBlock: UVAHIK_clean_linker_0, # of connection points: 2
#     Edge 25, Type (0, 1), BuildingBlock: UVAHIK_clean_linker_0, # of connection points: 2
#     Edge 26, Type (0, 1), BuildingBlock: UVAHIK_clean_linker_0, # of connection points: 2
# Relax obj value: 0.135
# Max RMSD: 0.184
# Mean RMSD: 0.144
data_MOF--net-anh--node1-MIFKUJ_clean_sbu_0--node2-ESEHIV_clean_linker_0--edge1-UVAHIK_clean_linker_0
_symmetry_space_group_name_H-M    P1
_symmetry_Int_Tables_number       1
_symmetry_cell_setting            triclinic
loop_
_symmetry_equiv_pos_as_xyz
'x, y, z'
_cell_length_a     37.236155
_cell_length_b     37.263334
_cell_length_c     64.431605
_cell_angle_alpha  93.67866
_cell_angle_beta   90.749382
_cell_angle_gamma 119.88862
loop_
_atom_site_label
_atom_site_type_symbol
_atom_site_fract_x
_atom_site_fract_y
_atom_site_fract_z
_atom_type_partial_charge
Zn0 Zn 0.04071 0.56623 0.15698 0.0
Zn1 Zn 0.96557 0.47506 0.15677 0.0
C2 C 0.1135 0.56311 0.16901 0.0
O3 O 0.11443 0.58986 0.18364 0.0
C4 C 0.89299 0.47826 0.14601 0.0
O5 O 0.88965 0.44806 0.13295 0.0
O6 O 0.07399 0.62759 0.1556 0.0
O7 O 0.00363 0.54688 0.13084 0.0
O8 O 0.99186 0.483 0.12921 0.0
C9 C 0.09577 0.64123 0.13991 0.0
O10 O 0.0953 0.6147 0.1253 0.0
O11 O 0.08321 0.54653 0.15548 0.0
C12 C 0.90896 0.40384 0.17448 0.0
O13 O 0.91624 0.43306 0.18923 0.0
O14 O 0.92827 0.414 0.15785 0.0
O15 O 1.00227 0.49226 0.18294 0.0
O16 O 0.01592 0.55684 0.18521 0.0
O17 O 0.9256 0.49807 0.158 0.0
C18 C 0.99762 0.51445 0.1201 0.0
C19 C 0.01014 0.52498 0.194 0.0
Zn20 Zn 0.52976 0.05509 0.5003 0.0
Zn21 Zn 0.53315 0.96761 0.50149 0.0
C22 C 0.61249 0.12224 0.50787 0.0
O23 O 0.59346 0.12952 0.5232 0.0
C24 C 0.45658 0.89552 0.48723 0.0
O25 O 0.48201 0.89372 0.4738 0.0
O26 O 0.51073 0.09614 0.49723 0.0
O27 O 0.49896 0.01082 0.47714 0.0
O28 O 0.5479 0.99479 0.47447 0.0
C29 C 0.51735 0.11299 0.48009 0.0
O30 O 0.53372 0.1009 0.46521 0.0
O31 O 0.59195 0.08925 0.49579 0.0
C32 C 0.55229 0.91162 0.51804 0.0
O33 O 0.52942 0.91559 0.53236 0.0
O34 O 0.55941 0.9321 0.50211 0.0
O35 O 0.55203 0.00198 0.52915 0.0
O36 O 0.52019 0.03865 0.52962 0.0
O37 O 0.47079 0.92631 0.50088 0.0
C38 C 0.5208 1.00092 0.46588 0.0
C39 C 0.53807 0.02256 0.53913 0.0
Zn40 Zn 0.57647 0.53971 0.83721 0.0
Zn41 Zn 0.48422 0.52703 0.8313 0.0
C42 C 0.56654 0.46096 0.84711 0.0
O43 O 0.58557 0.48345 0.8645 0.0
C44 C 0.49842 0.60383 0.81619 0.0
O45 O 0.47443 0.57727 0.80083 0.0
O46 O 0.63827 0.56892 0.83843 0.0
O47 O 0.56275 0.55969 0.81179 0.0
O48 O 0.50151 0.50463 0.8064 0.0
C49 C 0.65495 0.56195 0.82278 0.0
O50 O 0.63111 0.53592 0.80723 0.0
O51 O 0.55755 0.47783 0.83288 0.0
C52 C 0.40764 0.52395 0.83578 0.0
O53 O 0.43175 0.55727 0.84814 0.0
O54 O 0.42291 0.50367 0.82677 0.0
O55 O 0.49178 0.51235 0.86003 0.0
O56 O 0.55971 0.55199 0.86503 0.0
O57 O 0.50959 0.59019 0.83116 0.0
C58 C 0.53548 0.53103 0.79935 0.0
C59 C 0.52402 0.53151 0.87221 0.0
H60 H 0.43483 0.96395 0.23789 0.0
H61 H 0.5601 0.06504 0.24482 0.0
H62 H 0.49785 0.02382 0.18399 0.0
C63 C 0.46248 0.98707 0.23102 0.0
C64 C 0.46255 0.98994 0.20938 0.0
C65 C 0.49736 0.01431 0.24393 0.0
C66 C 0.5325 0.04484 0.23499 0.0
C67 C 0.53286 0.04891 0.21345 0.0
C68 C 0.49775 0.0212 0.20065 0.0
H69 H 0.61934 0.59278 0.58722 0.0
H70 H 0.59706 0.46932 0.57221 0.0
H71 H 0.5981 0.54302 0.52321 0.0
C72 C 0.61362 0.56786 0.57563 0.0
C73 C 0.60942 0.57264 0.55444 0.0
C74 C 0.60867 0.5306 0.58217 0.0
C75 C 0.60127 0.49837 0.56723 0.0
C76 C 0.59814 0.50299 0.54592 0.0
C77 C 0.60185 0.54001 0.5396 0.0
H78 H 0.98837 0.56557 0.89768 0.0
H79 H 0.05787 0.50187 0.89338 0.0
H80 H 0.03258 0.54779 0.83874 0.0
C81 C 0.0054 0.5542 0.88853 0.0
C82 C 0.00861 0.55944 0.86712 0.0
C83 C 0.02286 0.53331 0.89815 0.0
C84 C 0.04324 0.51703 0.88601 0.0
C85 C 0.04695 0.52231 0.86461 0.0
C86 C 0.02956 0.5435 0.85524 0.0
H87 H 0.95906 0.45538 0.41737 0.0
H88 H 0.07325 0.57173 0.42243 0.0
H89 H 0.02045 0.51027 0.47771 0.0
C90 C 0.98432 0.48053 0.42693 0.0
C91 C 0.98519 0.47894 0.4487 0.0
C92 C 0.01606 0.51361 0.4173 0.0
C93 C 0.04895 0.54568 0.42972 0.0
C94 C 0.05097 0.54488 0.45145 0.0
C95 C 0.0193 0.51095 0.46093 0.0
H96 H 0.55459 0.0971 0.76733 0.0
H97 H 0.54801 0.97854 0.76471 0.0
H98 H 0.5503 0.04021 0.82406 0.0
C99 C 0.55264 0.07131 0.77515 0.0
C100 C 0.55248 0.07272 0.79697 0.0
C101 C 0.5508 0.03747 0.76335 0.0
C102 C 0.54967 0.005 0.7737 0.0
C103 C 0.54969 0.00564 0.79553 0.0
C104 C 0.55016 0.0393 0.80721 0.0
H105 H 0.45019 0.53168 0.09778 0.0
H106 H 0.55373 0.51106 0.09735 0.0
H107 H 0.50357 0.52266 0.15564 0.0
C108 C 0.4734 0.52791 0.10615 0.0
C109 C 0.47356 0.52841 0.12798 0.0
C110 C 0.50183 0.5212 0.09497 0.0
C111 C 0.53101 0.51528 0.10587 0.0
C112 C 0.53211 0.51583 0.12769 0.0
C113 C 0.50315 0.52236 0.13881 0.0
C114 C 0.1819 0.57429 0.1829 0.0
C115 C 0.14892 0.55518 0.16772 0.0
C116 C 0.2168 0.56961 0.18122 0.0
C117 C 0.25663 0.50564 0.15483 0.0
H118 H 0.36369 0.60492 0.16699 0.0
C119 C 0.41122 0.50301 0.14983 0.0
C120 C 0.44157 0.53441 0.13868 0.0
C121 C 0.37621 0.50507 0.15606 0.0
C122 C 0.33408 0.57686 0.16355 0.0
H123 H 0.12654 0.51514 0.13905 0.0
H124 H 0.18767 0.50708 0.13604 0.0
H125 H 0.30047 0.60804 0.17168 0.0
H126 H 0.46012 0.59331 0.12611 0.0
H127 H 0.39985 0.59742 0.13724 0.0
H128 H 0.29051 0.47481 0.14616 0.0
C129 C 0.18632 0.52552 0.14938 0.0
C130 C 0.29772 0.57855 0.16641 0.0
C131 C 0.15131 0.53027 0.15105 0.0
C132 C 0.43735 0.56886 0.13485 0.0
C133 C 0.40276 0.57116 0.14124 0.0
C134 C 0.29309 0.50391 0.15208 0.0
C135 C 0.21983 0.54564 0.1643 0.0
C136 C 0.25845 0.54308 0.16191 0.0
C137 C 0.37116 0.53883 0.15147 0.0
C138 C 0.33233 0.53964 0.15617 0.0
H139 H 0.18113 0.59349 0.19605 0.0
H140 H 0.24156 0.58497 0.1932 0.0
H141 H 0.22699 0.47762 0.15141 0.0
H142 H 0.41345 0.47585 0.15273 0.0
H143 H 0.35268 0.47983 0.16409 0.0
C144 C 0.67407 0.15169 0.48518 0.0
C145 C 0.65543 0.15458 0.50358 0.0
C146 C 0.71272 0.18457 0.48036 0.0
C147 C 0.80517 0.28321 0.50296 0.0
H148 H 0.8154 0.31292 0.44593 0.0
C149 C 0.95554 0.42061 0.4727 0.0
C150 C 0.94954 0.4438 0.45806 0.0
C151 C 0.92157 0.38453 0.47929 0.0
C152 C 0.81306 0.30526 0.46198 0.0
H153 H 0.6638 0.1939 0.53167 0.0
H154 H 0.7305 0.25091 0.52322 0.0
H155 H 0.75373 0.25082 0.45531 0.0
H156 H 0.90296 0.44884 0.43999 0.0
H157 H 0.84421 0.38682 0.45157 0.0
H158 H 0.86411 0.33859 0.50968 0.0
C159 C 0.71566 0.22323 0.51255 0.0
C160 C 0.77783 0.26918 0.4673 0.0
C161 C 0.67711 0.19049 0.51734 0.0
C162 C 0.90877 0.43123 0.45096 0.0
C163 C 0.87504 0.39546 0.45752 0.0
C164 C 0.84053 0.31937 0.49761 0.0
C165 C 0.73376 0.22112 0.49382 0.0
C166 C 0.77305 0.25786 0.48792 0.0
C167 C 0.88093 0.37099 0.4714 0.0
C168 C 0.84464 0.33125 0.47709 0.0
H169 H 0.65832 0.12451 0.47423 0.0
H170 H 0.72591 0.18152 0.46593 0.0
H171 H 0.80288 0.27529 0.51895 0.0
H172 H 0.98656 0.42937 0.47839 0.0
H173 H 0.92732 0.36648 0.48999 0.0
C174 C 0.532 0.67679 0.83359 0.0
C175 C 0.50769 0.64768 0.81704 0.0
C176 C 0.53809 0.71725 0.83479 0.0
C177 C 0.49124 0.7776 0.81599 0.0
H178 H 0.60003 0.87385 0.82898 0.0
C179 C 0.51675 0.94417 0.81712 0.0
C180 C 0.54983 0.97073 0.80541 0.0
C181 C 0.51298 0.9066 0.82264 0.0
C182 C 0.56939 0.84728 0.82541 0.0
H183 H 0.47128 0.63878 0.78861 0.0
H184 H 0.48194 0.70881 0.79069 0.0
H185 H 0.59061 0.80413 0.82974 0.0
H186 H 0.60603 0.98017 0.79132 0.0
H187 H 0.59989 0.9153 0.80109 0.0
H188 H 0.47019 0.82054 0.81102 0.0
C189 C 0.49595 0.70038 0.80289 0.0
C190 C 0.56394 0.8073 0.82599 0.0
C191 C 0.49014 0.66021 0.80162 0.0
C192 C 0.58031 0.9603 0.80044 0.0
C193 C 0.57681 0.92313 0.8061 0.0
C194 C 0.4966 0.8175 0.81556 0.0
C195 C 0.51966 0.72936 0.81957 0.0
C196 C 0.52496 0.77194 0.82084 0.0
C197 C 0.54247 0.89515 0.81673 0.0
C198 C 0.53591 0.85292 0.81985 0.0
H199 H 0.54589 0.66818 0.84577 0.0
H200 H 0.55645 0.73876 0.84787 0.0
H201 H 0.46064 0.75107 0.81224 0.0
H202 H 0.49266 0.95132 0.82099 0.0
H203 H 0.48636 0.88597 0.83101 0.0
C204 C 0.8598 0.51904 0.16057 0.0
C205 C 0.85733 0.48573 0.14776 0.0
C206 C 0.82495 0.52412 0.16254 0.0
C207 C 0.71031 0.46427 0.15662 0.0
H208 H 0.71626 0.56951 0.14938 0.0
C209 C 0.56748 0.4746 0.13166 0.0
C210 C 0.56436 0.50966 0.13802 0.0
C211 C 0.60252 0.47223 0.13738 0.0
C212 C 0.71406 0.54004 0.15189 0.0
H213 H 0.81615 0.43193 0.1269 0.0
H214 H 0.75608 0.44062 0.13045 0.0
H215 H 0.77993 0.56558 0.15041 0.0
H216 H 0.59479 0.5691 0.15608 0.0
H217 H 0.65622 0.56483 0.16649 0.0
H218 H 0.64468 0.43844 0.15785 0.0
C219 C 0.78469 0.46272 0.13908 0.0
C220 C 0.75063 0.5378 0.15241 0.0
C221 C 0.81939 0.45795 0.13692 0.0
C222 C 0.59619 0.54148 0.15119 0.0
C223 C 0.63158 0.53924 0.15687 0.0
C224 C 0.67392 0.46653 0.15625 0.0
C225 C 0.78682 0.49562 0.152 0.0
C226 C 0.74903 0.49961 0.15416 0.0
C227 C 0.63565 0.50498 0.14961 0.0
C228 C 0.67505 0.50416 0.15325 0.0
H229 H 0.88852 0.54099 0.16915 0.0
H230 H 0.8276 0.54981 0.17262 0.0
H231 H 0.70805 0.43452 0.15844 0.0
H232 H 0.54359 0.44983 0.12132 0.0
H233 H 0.60451 0.4456 0.1312 0.0
C234 C 0.39874 0.82698 0.47186 0.0
C235 C 0.41303 0.8606 0.48708 0.0
C236 C 0.35864 0.7929 0.47199 0.0
C237 C 0.2543 0.7593 0.49133 0.0
H238 H 0.23758 0.64963 0.47551 0.0
C239 C 0.09661 0.62116 0.46021 0.0
C240 C 0.08671 0.58038 0.46353 0.0
C241 C 0.13465 0.65506 0.46766 0.0
C242 C 0.24158 0.67984 0.48031 0.0
H243 H 0.39582 0.88474 0.5143 0.0
H244 H 0.32553 0.82503 0.51455 0.0
H245 H 0.30762 0.70902 0.47936 0.0
H246 H 0.10789 0.54326 0.4783 0.0
H247 H 0.17453 0.60272 0.49167 0.0
H248 H 0.18814 0.73003 0.49219 0.0
C249 C 0.34548 0.82523 0.50242 0.0
C250 C 0.28185 0.71411 0.48222 0.0
C251 C 0.38582 0.85946 0.50231 0.0
C252 C 0.11463 0.57437 0.47563 0.0
C253 C 0.15296 0.60842 0.48304 0.0
C254 C 0.21396 0.72498 0.48941 0.0
C255 C 0.33149 0.7913 0.48735 0.0
C256 C 0.28875 0.75446 0.48729 0.0
C257 C 0.16399 0.64915 0.47859 0.0
C258 C 0.20696 0.68486 0.48344 0.0
H259 H 0.41865 0.82675 0.45981 0.0
H260 H 0.34878 0.76789 0.45986 0.0
H261 H 0.25833 0.78984 0.49522 0.0
H262 H 0.07566 0.62667 0.4509 0.0
H263 H 0.14196 0.68571 0.46372 0.0
C264 C 0.56846 0.39954 0.85979 0.0
C265 C 0.55899 0.41779 0.8437 0.0
C266 C 0.56455 0.36023 0.85632 0.0
C267 C 0.56453 0.28907 0.81375 0.0
H268 H 0.52788 0.20931 0.85561 0.0
C269 C 0.5897 0.14947 0.80481 0.0
C270 C 0.55598 0.11042 0.8083 0.0
C271 C 0.58943 0.18588 0.81116 0.0
C272 C 0.538 0.23115 0.84373 0.0
H273 H 0.53666 0.40816 0.81145 0.0
H274 H 0.52961 0.33947 0.80541 0.0
H275 H 0.52545 0.27356 0.86195 0.0
H276 H 0.4964 0.07883 0.82205 0.0
H277 H 0.49582 0.14281 0.83335 0.0
H278 H 0.57677 0.24682 0.79544 0.0
C279 C 0.54058 0.35585 0.82069 0.0
C280 C 0.53692 0.26815 0.84741 0.0
C281 C 0.54436 0.39516 0.82419 0.0
C282 C 0.523 0.10859 0.81942 0.0
C283 C 0.52265 0.14523 0.82578 0.0
C284 C 0.56579 0.25231 0.81012 0.0
C285 C 0.55118 0.33808 0.83663 0.0
C286 C 0.55036 0.29771 0.83249 0.0
C287 C 0.55527 0.18426 0.82106 0.0
C288 C 0.55292 0.22299 0.82511 0.0
H289 H 0.57977 0.41599 0.87504 0.0
H290 H 0.57339 0.34783 0.86891 0.0
H291 H 0.57556 0.31117 0.80199 0.0
H292 H 0.61551 0.15171 0.79626 0.0
H293 H 0.61555 0.21535 0.80773 0.0
C294 C 0.56193 0.86239 0.53858 0.0
C295 C 0.56821 0.88281 0.52027 0.0
C296 C 0.5754 0.83396 0.54063 0.0
C297 C 0.59834 0.76245 0.51016 0.0
H298 H 0.64005 0.75424 0.56408 0.0
C299 C 0.63085 0.62999 0.53039 0.0
C300 C 0.6107 0.6109 0.5482 0.0
C301 C 0.63276 0.66681 0.52519 0.0
C302 C 0.62872 0.75636 0.54889 0.0
H303 H 0.59412 0.88991 0.48983 0.0
H304 H 0.6178 0.8399 0.49348 0.0
H305 H 0.6322 0.81406 0.55837 0.0
H306 H 0.57491 0.61436 0.57382 0.0
H307 H 0.57933 0.67877 0.56509 0.0
H308 H 0.59393 0.70393 0.50097 0.0
C309 C 0.60223 0.84592 0.50617 0.0
C310 C 0.62409 0.79045 0.54564 0.0
C311 C 0.58882 0.87461 0.50413 0.0
C312 C 0.59182 0.62887 0.56039 0.0
C313 C 0.5942 0.66571 0.55537 0.0
C314 C 0.60325 0.72834 0.5134 0.0
C315 C 0.59551 0.82523 0.52443 0.0
C316 C 0.60735 0.79307 0.52651 0.0
C317 C 0.61498 0.68522 0.53787 0.0
C318 C 0.61702 0.72437 0.53304 0.0
H319 H 0.54612 0.86796 0.55129 0.0
H320 H 0.56904 0.81796 0.55475 0.0
H321 H 0.58523 0.76356 0.49527 0.0
H322 H 0.64579 0.61696 0.52072 0.0
H323 H 0.64879 0.68132 0.51156 0.0
C324 C 0.71802 0.5643 0.80857 0.0
C325 C 0.70036 0.5805 0.82272 0.0
C326 C 0.7605 0.57852 0.81003 0.0
C327 C 0.84484 0.62321 0.85019 0.0
H328 H 0.90781 0.61558 0.80435 0.0
C329 C 0.99065 0.61583 0.86716 0.0
C330 C 0.98831 0.57998 0.85724 0.0
C331 C 0.96572 0.63096 0.85985 0.0
C332 C 0.89075 0.61825 0.81728 0.0
H333 H 0.7136 0.62672 0.84835 0.0
H334 H 0.78798 0.65233 0.85059 0.0
H335 H 0.8432 0.61558 0.7971 0.0
H336 H 0.96066 0.53381 0.83098 0.0
H337 H 0.9168 0.55991 0.81832 0.0
H338 H 0.89115 0.62409 0.87035 0.0
C339 C 0.76889 0.62776 0.83876 0.0
C340 C 0.85373 0.61809 0.81316 0.0
C341 C 0.7263 0.61314 0.83747 0.0
C342 C 0.96316 0.56157 0.8389 0.0
C343 C 0.93817 0.57666 0.8316 0.0
C344 C 0.88187 0.62366 0.85429 0.0
C345 C 0.78626 0.60961 0.82554 0.0
C346 C 0.82951 0.61885 0.82958 0.0
C347 C 0.93795 0.61045 0.84252 0.0
C348 C 0.90437 0.61954 0.83789 0.0
H349 H 0.69879 0.53922 0.79698 0.0
H350 H 0.7726 0.5634 0.79976 0.0
H351 H 0.82685 0.62325 0.86325 0.0
H352 H 0.01049 0.63114 0.88109 0.0
H353 H 0.96665 0.65747 0.86837 0.0
C354 C 0.12126 0.71476 0.15306 0.0
C355 C 0.12547 0.68598 0.13968 0.0
C356 C 0.1531 0.75604 0.15569 0.0
C357 C 0.23683 0.81989 0.17388 0.0
H358 H 0.31987 0.88212 0.13488 0.0
C359 C 0.40535 0.91776 0.20002 0.0
C360 C 0.42542 0.95992 0.19624 0.0
C361 C 0.36733 0.88987 0.18992 0.0
C362 C 0.2966 0.86534 0.14584 0.0
H363 H 0.16439 0.67843 0.11712 0.0
H364 H 0.2207 0.75005 0.12233 0.0
H365 H 0.25154 0.82495 0.12175 0.0
H366 H 0.42295 0.00554 0.17791 0.0
H367 H 0.35594 0.95593 0.15983 0.0
H368 H 0.28211 0.85896 0.19792 0.0
C369 C 0.19262 0.74112 0.13052 0.0
C370 C 0.25771 0.8326 0.13839 0.0
C371 C 0.16046 0.69992 0.12766 0.0
C372 C 0.40804 0.97316 0.18109 0.0
C373 C 0.36983 0.94497 0.17082 0.0
C374 C 0.27549 0.85225 0.18125 0.0
C375 C 0.19004 0.76911 0.14529 0.0
C376 C 0.22788 0.80875 0.1524 0.0
C377 C 0.3487 0.90344 0.17572 0.0
C378 C 0.30613 0.87425 0.16735 0.0
H379 H 0.09418 0.70499 0.16221 0.0
H380 H 0.14979 0.77715 0.1668 0.0
H381 H 0.21499 0.80195 0.18516 0.0
H382 H 0.41853 0.90655 0.21126 0.0
H383 H 0.3519 0.85773 0.1936 0.0
C384 C 0.49585 0.1631 0.49418 0.0
C385 C 0.51294 0.1499 0.47819 0.0
C386 C 0.49785 0.20147 0.49409 0.0
C387 C 0.56735 0.30332 0.47754 0.0
H388 H 0.48761 0.32937 0.50198 0.0
C389 C 0.55502 0.45242 0.51608 0.0
C390 C 0.58904 0.46808 0.53051 0.0
C391 C 0.54352 0.41619 0.5033 0.0
C392 C 0.50994 0.3227 0.49471 0.0
H393 H 0.54263 0.16509 0.44874 0.0
H394 H 0.54632 0.23235 0.44871 0.0
H395 H 0.46628 0.25748 0.49048 0.0
H396 H 0.63911 0.45998 0.54219 0.0
H397 H 0.61932 0.39696 0.51985 0.0
H398 H 0.61153 0.36821 0.48273 0.0
C399 C 0.5317 0.21309 0.46136 0.0
C400 C 0.49781 0.28154 0.4883 0.0
C401 C 0.52948 0.17455 0.46138 0.0
C402 C 0.61264 0.44831 0.53123 0.0
C403 C 0.60151 0.41251 0.51832 0.0
C404 C 0.57951 0.34439 0.48406 0.0
C405 C 0.5171 0.22749 0.47806 0.0
C406 C 0.52684 0.27128 0.48041 0.0
C407 C 0.56629 0.39554 0.50458 0.0
C408 C 0.55135 0.35421 0.49346 0.0
H409 H 0.48265 0.14468 0.50727 0.0
H410 H 0.48667 0.21185 0.50729 0.0
H411 H 0.59052 0.2964 0.47164 0.0
H412 H 0.53626 0.46712 0.51535 0.0
H413 H 0.51628 0.40374 0.49281 0.0
C414 C 0.35327 0.54328 0.83184 0.0
C415 C 0.36422 0.51228 0.83133 0.0
C416 C 0.31213 0.53278 0.82813 0.0
C417 C 0.21145 0.45824 0.83883 0.0
H418 H 0.1769 0.51329 0.80085 0.0
C419 C 0.06598 0.46848 0.85377 0.0
C420 C 0.07193 0.50854 0.85252 0.0
C421 C 0.09339 0.4576 0.84461 0.0
C422 C 0.18595 0.4976 0.81155 0.0
H423 H 0.3413 0.44617 0.82628 0.0
H424 H 0.26829 0.42752 0.82081 0.0
H425 H 0.24344 0.51619 0.797 0.0
H426 H 0.10977 0.56803 0.8401 0.0
H427 H 0.15844 0.54998 0.82488 0.0
H428 H 0.15653 0.44317 0.85478 0.0
C429 C 0.29194 0.45992 0.82357 0.0
C430 C 0.22379 0.49895 0.80918 0.0
C431 C 0.33345 0.47056 0.82674 0.0
C432 C 0.10435 0.53682 0.84111 0.0
C433 C 0.1321 0.52624 0.83225 0.0
C434 C 0.174 0.45759 0.84148 0.0
C435 C 0.28112 0.49104 0.82429 0.0
C436 C 0.23744 0.48064 0.8233 0.0
C437 C 0.12769 0.48687 0.83438 0.0
C438 C 0.1617 0.4789 0.82844 0.0
H439 H 0.37653 0.57571 0.83514 0.0
H440 H 0.30429 0.55719 0.82904 0.0
H441 H 0.22166 0.44422 0.84999 0.0
H442 H 0.04079 0.446 0.86231 0.0
H443 H 0.08852 0.42676 0.84619 0.0
C444 C 0.8626 0.33055 0.15959 0.0
C445 C 0.87598 0.36075 0.17654 0.0
C446 C 0.82862 0.29088 0.16117 0.0
C447 C 0.76175 0.22034 0.19968 0.0
H448 H 0.67471 0.17934 0.15591 0.0
C449 C 0.59231 0.12143 0.21552 0.0
C450 C 0.57061 0.08191 0.20473 0.0
C451 C 0.63089 0.15101 0.20934 0.0
C452 C 0.69908 0.19012 0.16803 0.0
H453 H 0.86538 0.3727 0.20863 0.0
H454 H 0.8062 0.3041 0.2113 0.0
H455 H 0.74298 0.23905 0.15068 0.0
H456 H 0.57103 0.0433 0.17816 0.0
H457 H 0.63871 0.09621 0.16691 0.0
H458 H 0.71708 0.17309 0.21749 0.0
C459 C 0.82205 0.31065 0.19687 0.0
C460 C 0.73811 0.22409 0.16507 0.0
C461 C 0.85581 0.35015 0.19529 0.0
C462 C 0.58706 0.07355 0.18673 0.0
C463 C 0.62571 0.10357 0.18036 0.0
C464 C 0.72278 0.18683 0.2027 0.0
C465 C 0.80771 0.28076 0.17976 0.0
C466 C 0.76933 0.2404 0.18118 0.0
C467 C 0.64831 0.14195 0.19206 0.0
C468 C 0.69085 0.17238 0.18718 0.0
H469 H 0.87761 0.33786 0.14494 0.0
H470 H 0.8184 0.26835 0.14779 0.0
H471 H 0.78548 0.23164 0.21218 0.0
H472 H 0.57993 0.12912 0.22914 0.0
H473 H 0.64758 0.18082 0.21831 0.0
C474 C 0.99191 0.47845 0.08493 0.0
C475 C 0.99876 0.51413 0.09717 0.0
C476 C 0.99455 0.47891 0.06332 0.0
C477 C 0.04051 0.55111 0.02237 0.0
H478 H 0.95919 0.4591 0.98531 0.0
C479 C 0.02772 0.56373 0.93455 0.0
C480 C 0.02071 0.52962 0.92094 0.0
C481 C 0.02567 0.56055 0.956 0.0
C482 C 0.98244 0.48479 0.99547 0.0
H483 H 0.01313 0.57807 0.09626 0.0
H484 H 0.01735 0.57868 0.05864 0.0
H485 H 0.9539 0.45571 0.02296 0.0
H486 H 0.0059 0.46533 0.91913 0.0
H487 H 1.00287 0.45993 0.95675 0.0
H488 H 0.06895 0.58032 0.99497 0.0
C489 C 0.01051 0.55054 0.06576 0.0
C490 C 0.97939 0.48285 0.01702 0.0
C491 C 0.00779 0.55007 0.08732 0.0
C492 C 0.01173 0.49223 0.92926 0.0
C493 C 0.0096 0.48902 0.95076 0.0
C494 C 0.04356 0.55303 0.00088 0.0
C495 C 0.00422 0.51509 0.05354 0.0
C496 C 0.00816 0.5162 0.03068 0.0
C497 C 0.0166 0.52319 0.96435 0.0
C498 C 0.01433 0.5201 0.98718 0.0
H499 H 0.98491 0.45027 0.09205 0.0
H500 H 0.98985 0.45121 0.05431 0.0
H501 H 0.06363 0.57695 0.03251 0.0
H502 H 0.03519 0.59311 0.92864 0.0
H503 H 0.03074 0.58729 0.96604 0.0
C504 C 0.54324 0.993 0.43023 0.0
C505 C 0.51575 0.99847 0.44299 0.0
C506 C 0.53926 0.99243 0.4086 0.0
C507 C 0.49497 0.02677 0.36807 0.0
H508 H 0.515 0.95289 0.3312 0.0
C509 C 0.47985 0.97196 0.27485 0.0
C510 C 0.49727 0.01098 0.26673 0.0
C511 C 0.48046 0.96901 0.29634 0.0
C512 C 0.50889 0.97342 0.34129 0.0
H513 H 0.46185 0.00646 0.44308 0.0
H514 H 0.45448 0.00465 0.40542 0.0
H515 H 0.51798 0.94894 0.36876 0.0
H516 H 0.52832 0.07745 0.27478 0.0
H517 H 0.53041 0.07237 0.31219 0.0
H518 H 0.48502 0.05066 0.34065 0.0
C519 C 0.47964 0.0017 0.4121 0.0
C520 C 0.51111 0.97151 0.36281 0.0
C521 C 0.48373 0.0025 0.43369 0.0
C522 C 0.51507 0.04695 0.28055 0.0
C523 C 0.5158 0.04401 0.302 0.0
C524 C 0.4926 0.02856 0.34658 0.0
C525 C 0.50761 0.99711 0.39932 0.0
C526 C 0.50435 0.9983 0.37644 0.0
C527 C 0.49855 0.00502 0.31014 0.0
C528 C 0.49979 0.00211 0.33295 0.0
H529 H 0.56828 0.98989 0.43694 0.0
H530 H 0.56161 0.98932 0.3992 0.0
H531 H 0.49009 0.0482 0.37814 0.0
H532 H 0.46625 0.94369 0.26459 0.0
H533 H 0.46653 0.9385 0.30214 0.0
C534 C 0.5157 0.49509 0.76329 0.0
C535 C 0.54421 0.52814 0.77719 0.0
C536 C 0.52462 0.49265 0.74239 0.0
C537 C 0.58822 0.55839 0.70226 0.0
H538 H 0.56623 0.45473 0.67289 0.0
C539 C 0.63741 0.55573 0.61884 0.0
C540 C 0.60748 0.52457 0.60469 0.0
C541 C 0.63259 0.55329 0.64023 0.0
C542 C 0.5723 0.48384 0.68086 0.0
H543 H 0.60458 0.58428 0.7801 0.0
H544 H 0.62 0.57992 0.74381 0.0
H545 H 0.55054 0.45614 0.70959 0.0
H546 H 0.55008 0.46551 0.60173 0.0
H547 H 0.54134 0.4614 0.63913 0.0
H548 H 0.60922 0.58609 0.67366 0.0
C549 C 0.59062 0.55613 0.74897 0.0
C550 C 0.56326 0.48462 0.70184 0.0
C551 C 0.58181 0.55852 0.76979 0.0
C552 C 0.57382 0.48978 0.61233 0.0
C553 C 0.56883 0.48745 0.63375 0.0
C554 C 0.59711 0.5576 0.68135 0.0
C555 C 0.56208 0.52333 0.73501 0.0
C556 C 0.57122 0.52196 0.71274 0.0
C557 C 0.59754 0.51981 0.64791 0.0
C558 C 0.58936 0.52037 0.67039 0.0
H559 H 0.48651 0.47115 0.76853 0.0
H560 H 0.50188 0.46721 0.73193 0.0
H561 H 0.59399 0.58748 0.71014 0.0
H562 H 0.66391 0.58263 0.61332 0.0
H563 H 0.65579 0.57825 0.65075 0.0
C564 C 0.5228 0.04522 0.57382 0.0
C565 C 0.54177 0.02663 0.56218 0.0
C566 C 0.52495 0.0474 0.59558 0.0
C567 C 0.54403 0.99851 0.63943 0.0
H568 H 0.55673 0.09555 0.67215 0.0
C569 C 0.57317 0.02181 0.7289 0.0
C570 C 0.55024 0.03629 0.74022 0.0
C571 C 0.57278 0.02101 0.70718 0.0
C572 C 0.55283 0.0681 0.66321 0.0
H573 H 0.57873 0.99662 0.56437 0.0
H574 H 0.58316 1.00119 0.60222 0.0
H575 H 0.55562 0.09421 0.63424 0.0
H576 H 0.50828 0.06055 0.7375 0.0
H577 H 0.50804 0.05961 0.69964 0.0
H578 H 0.54155 0.97259 0.66845 0.0
C579 C 0.56584 0.01329 0.59455 0.0
C580 C 0.55212 0.06729 0.64149 0.0
C581 C 0.56354 0.01093 0.57281 0.0
C582 C 0.52688 0.0499 0.7293 0.0
C583 C 0.52669 0.04933 0.70761 0.0
C584 C 0.54497 0.99943 0.66115 0.0
C585 C 0.54628 0.03122 0.6062 0.0
C586 C 0.5476 0.03243 0.62933 0.0
C587 C 0.54963 0.03489 0.69631 0.0
C588 C 0.54924 0.03418 0.67326 0.0
H589 H 0.50567 0.05752 0.56613 0.0
H590 H 0.5091 0.06097 0.60405 0.0
H591 H 0.53976 0.97085 0.63056 0.0
H592 H 0.592 0.0117 0.73683 0.0
H593 H 0.59115 0.01017 0.6989 0.0
C594 C 0.55578 0.5484 0.90856 0.0
C595 C 0.52015 0.52961 0.89502 0.0
C596 C 0.55232 0.54638 0.93005 0.0
C597 C 0.53682 0.51573 0.97326 0.0
H598 H 0.45354 0.5325 0.0006 0.0
C599 C 0.50626 0.49036 0.05999 0.0
C600 C 0.50114 0.52032 0.07189 0.0
C601 C 0.50682 0.49017 0.03832 0.0
C602 C 0.47709 0.52796 0.9932 0.0
H603 H 0.45286 0.49405 0.89353 0.0
H604 H 0.4469 0.49035 0.9311 0.0
H605 H 0.45855 0.5355 0.96293 0.0
H606 H 0.49248 0.57349 0.07035 0.0
H607 H 0.49349 0.57319 0.03247 0.0
H608 H 0.55596 0.50905 0.00352 0.0
C609 C 0.4775 0.50696 0.92504 0.0
C610 C 0.47966 0.52924 0.9716 0.0
C611 C 0.48095 0.50889 0.90351 0.0
C612 C 0.49599 0.54972 0.0616 0.0
C613 C 0.49655 0.54952 0.0399 0.0
C614 C 0.53418 0.51436 0.99482 0.0
C615 C 0.51317 0.52558 0.93854 0.0
C616 C 0.50971 0.52334 0.96141 0.0
C617 C 0.50227 0.51993 0.02803 0.0
C618 C 0.50439 0.5206 0.00505 0.0
H619 H 0.58647 0.56467 0.90257 0.0
H620 H 0.58038 0.56154 0.94005 0.0
H621 H 0.56 0.5106 0.96585 0.0
H622 H 0.50957 0.46684 0.06743 0.0
H623 H 0.51057 0.46652 0.02959 0.0
C624 C 1.00138 0.48865 0.2265 0.0
C625 C 0.01148 0.52526 0.217 0.0
C626 C 1.00158 0.48829 0.24815 0.0
C627 C 0.97977 0.49024 0.29324 0.0
H628 H 0.06953 0.58012 0.32778 0.0
C629 C 0.97763 0.50372 0.38309 0.0
C630 C 0.0149 0.51497 0.39428 0.0
C631 C 0.97681 0.50566 0.3615 0.0
C632 C 0.04435 0.5547 0.31834 0.0
H633 H 0.0301 0.59034 0.2229 0.0
H634 H 0.03042 0.58965 0.2608 0.0
H635 H 0.06929 0.58224 0.28998 0.0
H636 H 0.08037 0.53627 0.39145 0.0
H637 H 0.07893 0.53979 0.35383 0.0
H638 H 0.95519 0.46232 0.32154 0.0
C639 C 0.02255 0.56129 0.25142 0.0
C640 C 0.04399 0.55613 0.2967 0.0
C641 C 0.02218 0.56163 0.22971 0.0
C642 C 0.05127 0.52805 0.38336 0.0
C643 C 0.05047 0.5301 0.3618 0.0
C644 C 0.98004 0.48889 0.31486 0.0
C645 C 0.01201 0.52453 0.26087 0.0
C646 C 0.01184 0.52377 0.2839 0.0
C647 C 0.01325 0.51898 0.35061 0.0
C648 C 0.01245 0.52097 0.32766 0.0
H649 H 0.99307 0.46007 0.21721 0.0
H650 H 0.99392 0.45962 0.25494 0.0
H651 H 0.95431 0.46504 0.28383 0.0
H652 H 0.9492 0.49409 0.39106 0.0
H653 H 0.94774 0.49737 0.35336 0.0
loop_
_geom_bond_atom_site_label_1
_geom_bond_atom_site_label_2
_geom_bond_distance
_geom_bond_site_symmetry_2
_ccdc_geom_bond_type
Zn0 O6 1.969 . S
Zn0 O7 1.965 . S
Zn0 O11 2.024 . S
Zn0 O16 1.969 . S
Zn1 O8 1.969 . S
Zn1 O14 1.969 . S
Zn1 O15 1.965 . S
Zn1 O17 2.024 . S
C2 O3 1.229 . S
C2 O11 1.058 . S
O3 C2 1.229 . S
C4 O5 1.229 . S
C4 O17 1.058 . S
O5 C4 1.229 . S
O6 Zn0 1.969 . S
O6 C9 1.267 . S
O7 Zn0 1.965 . S
O7 C18 1.260 1_455 S
O8 Zn1 1.969 . S
O8 C18 1.258 . S
C9 O6 1.267 . S
C9 O10 1.228 . S
O10 C9 1.228 . S
O11 Zn0 2.024 . S
O11 C2 1.058 . S
C12 O13 1.228 . S
C12 O14 1.267 . S
O13 C12 1.228 . S
O14 Zn1 1.969 . S
O14 C12 1.267 . S
O15 Zn1 1.965 . S
O15 C19 1.260 1_655 S
O16 Zn0 1.969 . S
O16 C19 1.258 . S
O17 Zn1 2.024 . S
O17 C4 1.058 . S
C18 O7 1.260 1_655 S
C18 O8 1.258 . S
C19 O15 1.260 1_455 S
C19 O16 1.258 . S
Zn20 O26 1.969 . S
Zn20 O27 1.965 . S
Zn20 O31 2.024 . S
Zn20 O36 1.969 . S
Zn21 O28 1.969 . S
Zn21 O34 1.969 . S
Zn21 O35 1.965 . S
Zn21 O37 2.024 . S
C22 O23 1.229 . S
C22 O31 1.058 . S
O23 C22 1.229 . S
C24 O25 1.229 . S
C24 O37 1.058 . S
O25 C24 1.229 . S
O26 Zn20 1.969 . S
O26 C29 1.267 . S
O27 Zn20 1.965 . S
O27 C38 1.260 . S
O28 Zn21 1.969 . S
O28 C38 1.258 1_565 S
C29 O26 1.267 . S
C29 O30 1.228 . S
O30 C29 1.228 . S
O31 Zn20 2.024 . S
O31 C22 1.058 . S
C32 O33 1.228 . S
C32 O34 1.267 . S
O33 C32 1.228 . S
O34 Zn21 1.969 . S
O34 C32 1.267 . S
O35 Zn21 1.965 . S
O35 C39 1.260 1_565 S
O36 Zn20 1.969 . S
O36 C39 1.258 . S
O37 Zn21 2.024 . S
O37 C24 1.058 . S
C38 O27 1.260 . S
C38 O28 1.258 1_545 S
C39 O35 1.260 1_545 S
C39 O36 1.258 . S
Zn40 O46 1.969 . S
Zn40 O47 1.965 . S
Zn40 O51 2.024 . S
Zn40 O56 1.969 . S
Zn41 O48 1.969 . S
Zn41 O54 1.969 . S
Zn41 O55 1.965 . S
Zn41 O57 2.024 . S
C42 O43 1.229 . S
C42 O51 1.058 . S
O43 C42 1.229 . S
C44 O45 1.229 . S
C44 O57 1.058 . S
O45 C44 1.229 . S
O46 Zn40 1.969 . S
O46 C49 1.267 . S
O47 Zn40 1.965 . S
O47 C58 1.260 . S
O48 Zn41 1.969 . S
O48 C58 1.258 . S
C49 O46 1.267 . S
C49 O50 1.228 . S
O50 C49 1.228 . S
O51 Zn40 2.024 . S
O51 C42 1.058 . S
C52 O53 1.228 . S
C52 O54 1.267 . S
O53 C52 1.228 . S
O54 Zn41 1.969 . S
O54 C52 1.267 . S
O55 Zn41 1.965 . S
O55 C59 1.260 . S
O56 Zn40 1.969 . S
O56 C59 1.258 . S
O57 Zn41 2.024 . S
O57 C44 1.058 . S
C58 O47 1.260 . S
C58 O48 1.258 . S
C59 O55 1.260 . S
C59 O56 1.258 . S
H60 C63 0.930 1_565 S
H61 C66 0.928 . S
H62 C68 0.930 . S
C63 H60 0.930 1_545 S
C63 C64 1.415 1_545 S
C63 C65 1.360 . S
C64 C63 1.415 1_565 S
C64 C68 1.421 1_565 S
C65 C63 1.360 . S
C65 C66 1.372 . S
C66 H61 0.928 . S
C66 C65 1.372 . S
C66 C67 1.404 . S
C67 C66 1.404 . S
C67 C68 1.391 . S
C68 H62 0.930 . S
C68 C64 1.421 1_545 S
C68 C67 1.391 . S
H69 C72 0.931 . S
H70 C75 0.928 . S
H71 C77 0.930 . S
C72 H69 0.931 . S
C72 C73 1.413 . S
C72 C74 1.360 . S
C73 C72 1.413 . S
C73 C77 1.429 . S
C74 C72 1.360 . S
C74 C75 1.372 . S
C75 H70 0.928 . S
C75 C74 1.372 . S
C75 C76 1.404 . S
C76 C75 1.404 . S
C76 C77 1.391 . S
C77 H71 0.930 . S
C77 C73 1.429 . S
C77 C76 1.391 . S
H78 C81 0.931 1_655 S
H79 C84 0.928 . S
H80 C86 0.930 . S
C81 H78 0.931 1_455 S
C81 C82 1.413 . S
C81 C83 1.360 . S
C82 C81 1.413 . S
C82 C86 1.429 . S
C83 C81 1.360 . S
C83 C84 1.372 . S
C84 H79 0.928 . S
C84 C83 1.372 . S
C84 C85 1.404 . S
C85 C84 1.404 . S
C85 C86 1.391 . S
C86 H80 0.930 . S
C86 C82 1.429 . S
C86 C85 1.391 . S
H87 C90 0.931 . S
H88 C93 0.928 . S
H89 C95 0.930 . S
C90 H87 0.931 . S
C90 C91 1.413 . S
C90 C92 1.360 1_655 S
C91 C90 1.413 . S
C91 C95 1.429 1_655 S
C92 C90 1.360 1_455 S
C92 C93 1.372 . S
C93 H88 0.928 . S
C93 C92 1.372 . S
C93 C94 1.404 . S
C94 C93 1.404 . S
C94 C95 1.391 . S
C95 H89 0.930 . S
C95 C91 1.429 1_455 S
C95 C94 1.391 . S
H96 C99 0.931 . S
H97 C102 0.928 . S
H98 C104 0.930 . S
C99 H96 0.931 . S
C99 C100 1.413 . S
C99 C101 1.360 . S
C100 C99 1.413 . S
C100 C104 1.429 . S
C101 C99 1.360 . S
C101 C102 1.372 1_545 S
C102 H97 0.928 . S
C102 C101 1.372 1_565 S
C102 C103 1.404 . S
C103 C102 1.404 . S
C103 C104 1.391 1_565 S
C104 H98 0.930 . S
C104 C100 1.429 . S
C104 C103 1.391 1_545 S
H105 C108 0.931 . S
H106 C111 0.928 . S
H107 C113 0.930 . S
C108 H105 0.931 . S
C108 C109 1.413 . S
C108 C110 1.360 . S
C109 C108 1.413 . S
C109 C113 1.429 . S
C110 C108 1.360 . S
C110 C111 1.372 . S
C111 H106 0.928 . S
C111 C110 1.372 . S
C111 C112 1.404 . S
C112 C111 1.404 . S
C112 C113 1.391 . S
C113 H107 0.930 . S
C113 C109 1.429 . S
C113 C112 1.391 . S
C114 C115 1.349 . S
C114 C116 1.327 . S
C114 H139 0.950 . S
C115 C114 1.349 . S
C115 C131 1.349 . S
C116 C114 1.327 . S
C116 C135 1.429 . S
C116 H140 0.950 . S
C117 C134 1.574 . S
C117 C136 1.368 . S
C117 H141 0.949 . S
H118 C122 0.949 . S
C119 C120 1.349 . S
C119 C121 1.327 . S
C119 H142 0.950 . S
C120 C119 1.349 . S
C120 C132 1.349 . S
C121 C119 1.327 . S
C121 C137 1.429 . S
C121 H143 0.950 . S
C122 H118 0.949 . S
C122 C130 1.574 . S
C122 C138 1.368 . S
H123 C131 0.950 . S
H124 C129 0.950 . S
H125 C130 0.949 . S
H126 C132 0.950 . S
H127 C133 0.950 . S
H128 C134 0.949 . S
C129 H124 0.950 . S
C129 C131 1.327 . S
C129 C135 1.429 . S
C130 C122 1.574 . S
C130 H125 0.949 . S
C130 C136 1.368 . S
C131 C115 1.349 . S
C131 H123 0.950 . S
C131 C129 1.327 . S
C132 C120 1.349 . S
C132 H126 0.950 . S
C132 C133 1.327 . S
C133 H127 0.950 . S
C133 C132 1.327 . S
C133 C137 1.429 . S
C134 C117 1.574 . S
C134 H128 0.949 . S
C134 C138 1.368 . S
C135 C116 1.429 . S
C135 C129 1.429 . S
C135 C136 1.523 . S
C136 C117 1.368 . S
C136 C130 1.368 . S
C136 C135 1.523 . S
C137 C121 1.429 . S
C137 C133 1.429 . S
C137 C138 1.523 . S
C138 C122 1.368 . S
C138 C134 1.368 . S
C138 C137 1.523 . S
H139 C114 0.950 . S
H140 C116 0.950 . S
H141 C117 0.949 . S
H142 C119 0.950 . S
H143 C121 0.950 . S
C144 C145 1.349 . S
C144 C146 1.327 . S
C144 H169 0.950 . S
C145 C144 1.349 . S
C145 C161 1.349 . S
C146 C144 1.327 . S
C146 C165 1.429 . S
C146 H170 0.950 . S
C147 C164 1.574 . S
C147 C166 1.368 . S
C147 H171 0.949 . S
H148 C152 0.949 . S
C149 C150 1.349 . S
C149 C151 1.327 . S
C149 H172 0.950 . S
C150 C149 1.349 . S
C150 C162 1.349 . S
C151 C149 1.327 . S
C151 C167 1.429 . S
C151 H173 0.950 . S
C152 H148 0.949 . S
C152 C160 1.574 . S
C152 C168 1.368 . S
H153 C161 0.950 . S
H154 C159 0.950 . S
H155 C160 0.949 . S
H156 C162 0.950 . S
H157 C163 0.950 . S
H158 C164 0.949 . S
C159 H154 0.950 . S
C159 C161 1.327 . S
C159 C165 1.429 . S
C160 C152 1.574 . S
C160 H155 0.949 . S
C160 C166 1.368 . S
C161 C145 1.349 . S
C161 H153 0.950 . S
C161 C159 1.327 . S
C162 C150 1.349 . S
C162 H156 0.950 . S
C162 C163 1.327 . S
C163 H157 0.950 . S
C163 C162 1.327 . S
C163 C167 1.429 . S
C164 C147 1.574 . S
C164 H158 0.949 . S
C164 C168 1.368 . S
C165 C146 1.429 . S
C165 C159 1.429 . S
C165 C166 1.523 . S
C166 C147 1.368 . S
C166 C160 1.368 . S
C166 C165 1.523 . S
C167 C151 1.429 . S
C167 C163 1.429 . S
C167 C168 1.523 . S
C168 C152 1.368 . S
C168 C164 1.368 . S
C168 C167 1.523 . S
H169 C144 0.950 . S
H170 C146 0.950 . S
H171 C147 0.949 . S
H172 C149 0.950 . S
H173 C151 0.950 . S
C174 C175 1.349 . S
C174 C176 1.327 . S
C174 H199 0.950 . S
C175 C174 1.349 . S
C175 C191 1.349 . S
C176 C174 1.327 . S
C176 C195 1.429 . S
C176 H200 0.950 . S
C177 C194 1.574 . S
C177 C196 1.368 . S
C177 H201 0.949 . S
H178 C182 0.949 . S
C179 C180 1.349 . S
C179 C181 1.327 . S
C179 H202 0.950 . S
C180 C179 1.349 . S
C180 C192 1.349 . S
C181 C179 1.327 . S
C181 C197 1.429 . S
C181 H203 0.950 . S
C182 H178 0.949 . S
C182 C190 1.574 . S
C182 C198 1.368 . S
H183 C191 0.950 . S
H184 C189 0.950 . S
H185 C190 0.949 . S
H186 C192 0.950 . S
H187 C193 0.950 . S
H188 C194 0.949 . S
C189 H184 0.950 . S
C189 C191 1.327 . S
C189 C195 1.429 . S
C190 C182 1.574 . S
C190 H185 0.949 . S
C190 C196 1.368 . S
C191 C175 1.349 . S
C191 H183 0.950 . S
C191 C189 1.327 . S
C192 C180 1.349 . S
C192 H186 0.950 . S
C192 C193 1.327 . S
C193 H187 0.950 . S
C193 C192 1.327 . S
C193 C197 1.429 . S
C194 C177 1.574 . S
C194 H188 0.949 . S
C194 C198 1.368 . S
C195 C176 1.429 . S
C195 C189 1.429 . S
C195 C196 1.523 . S
C196 C177 1.368 . S
C196 C190 1.368 . S
C196 C195 1.523 . S
C197 C181 1.429 . S
C197 C193 1.429 . S
C197 C198 1.523 . S
C198 C182 1.368 . S
C198 C194 1.368 . S
C198 C197 1.523 . S
H199 C174 0.950 . S
H200 C176 0.950 . S
H201 C177 0.949 . S
H202 C179 0.950 . S
H203 C181 0.950 . S
C204 C205 1.349 . S
C204 C206 1.327 . S
C204 H229 0.950 . S
C205 C204 1.349 . S
C205 C221 1.349 . S
C206 C204 1.327 . S
C206 C225 1.429 . S
C206 H230 0.950 . S
C207 C224 1.574 . S
C207 C226 1.368 . S
C207 H231 0.949 . S
H208 C212 0.949 . S
C209 C210 1.349 . S
C209 C211 1.327 . S
C209 H232 0.950 . S
C210 C209 1.349 . S
C210 C222 1.349 . S
C211 C209 1.327 . S
C211 C227 1.429 . S
C211 H233 0.950 . S
C212 H208 0.949 . S
C212 C220 1.574 . S
C212 C228 1.368 . S
H213 C221 0.950 . S
H214 C219 0.950 . S
H215 C220 0.949 . S
H216 C222 0.950 . S
H217 C223 0.950 . S
H218 C224 0.949 . S
C219 H214 0.950 . S
C219 C221 1.327 . S
C219 C225 1.429 . S
C220 C212 1.574 . S
C220 H215 0.949 . S
C220 C226 1.368 . S
C221 C205 1.349 . S
C221 H213 0.950 . S
C221 C219 1.327 . S
C222 C210 1.349 . S
C222 H216 0.950 . S
C222 C223 1.327 . S
C223 H217 0.950 . S
C223 C222 1.327 . S
C223 C227 1.429 . S
C224 C207 1.574 . S
C224 H218 0.949 . S
C224 C228 1.368 . S
C225 C206 1.429 . S
C225 C219 1.429 . S
C225 C226 1.523 . S
C226 C207 1.368 . S
C226 C220 1.368 . S
C226 C225 1.523 . S
C227 C211 1.429 . S
C227 C223 1.429 . S
C227 C228 1.523 . S
C228 C212 1.368 . S
C228 C224 1.368 . S
C228 C227 1.523 . S
H229 C204 0.950 . S
H230 C206 0.950 . S
H231 C207 0.949 . S
H232 C209 0.950 . S
H233 C211 0.950 . S
C234 C235 1.349 . S
C234 C236 1.327 . S
C234 H259 0.950 . S
C235 C234 1.349 . S
C235 C251 1.349 . S
C236 C234 1.327 . S
C236 C255 1.429 . S
C236 H260 0.950 . S
C237 C254 1.574 . S
C237 C256 1.368 . S
C237 H261 0.949 . S
H238 C242 0.949 . S
C239 C240 1.349 . S
C239 C241 1.327 . S
C239 H262 0.950 . S
C240 C239 1.349 . S
C240 C252 1.349 . S
C241 C239 1.327 . S
C241 C257 1.429 . S
C241 H263 0.950 . S
C242 H238 0.949 . S
C242 C250 1.574 . S
C242 C258 1.368 . S
H243 C251 0.950 . S
H244 C249 0.950 . S
H245 C250 0.949 . S
H246 C252 0.950 . S
H247 C253 0.950 . S
H248 C254 0.949 . S
C249 H244 0.950 . S
C249 C251 1.327 . S
C249 C255 1.429 . S
C250 C242 1.574 . S
C250 H245 0.949 . S
C250 C256 1.368 . S
C251 C235 1.349 . S
C251 H243 0.950 . S
C251 C249 1.327 . S
C252 C240 1.349 . S
C252 H246 0.950 . S
C252 C253 1.327 . S
C253 H247 0.950 . S
C253 C252 1.327 . S
C253 C257 1.429 . S
C254 C237 1.574 . S
C254 H248 0.949 . S
C254 C258 1.368 . S
C255 C236 1.429 . S
C255 C249 1.429 . S
C255 C256 1.523 . S
C256 C237 1.368 . S
C256 C250 1.368 . S
C256 C255 1.523 . S
C257 C241 1.429 . S
C257 C253 1.429 . S
C257 C258 1.523 . S
C258 C242 1.368 . S
C258 C254 1.368 . S
C258 C257 1.523 . S
H259 C234 0.950 . S
H260 C236 0.950 . S
H261 C237 0.949 . S
H262 C239 0.950 . S
H263 C241 0.950 . S
C264 C265 1.349 . S
C264 C266 1.327 . S
C264 H289 0.950 . S
C265 C264 1.349 . S
C265 C281 1.349 . S
C266 C264 1.327 . S
C266 C285 1.429 . S
C266 H290 0.950 . S
C267 C284 1.574 . S
C267 C286 1.368 . S
C267 H291 0.949 . S
H268 C272 0.949 . S
C269 C270 1.349 . S
C269 C271 1.327 . S
C269 H292 0.950 . S
C270 C269 1.349 . S
C270 C282 1.349 . S
C271 C269 1.327 . S
C271 C287 1.429 . S
C271 H293 0.950 . S
C272 H268 0.949 . S
C272 C280 1.574 . S
C272 C288 1.368 . S
H273 C281 0.950 . S
H274 C279 0.950 . S
H275 C280 0.949 . S
H276 C282 0.950 . S
H277 C283 0.950 . S
H278 C284 0.949 . S
C279 H274 0.950 . S
C279 C281 1.327 . S
C279 C285 1.429 . S
C280 C272 1.574 . S
C280 H275 0.949 . S
C280 C286 1.368 . S
C281 C265 1.349 . S
C281 H273 0.950 . S
C281 C279 1.327 . S
C282 C270 1.349 . S
C282 H276 0.950 . S
C282 C283 1.327 . S
C283 H277 0.950 . S
C283 C282 1.327 . S
C283 C287 1.429 . S
C284 C267 1.574 . S
C284 H278 0.949 . S
C284 C288 1.368 . S
C285 C266 1.429 . S
C285 C279 1.429 . S
C285 C286 1.523 . S
C286 C267 1.368 . S
C286 C280 1.368 . S
C286 C285 1.523 . S
C287 C271 1.429 . S
C287 C283 1.429 . S
C287 C288 1.523 . S
C288 C272 1.368 . S
C288 C284 1.368 . S
C288 C287 1.523 . S
H289 C264 0.950 . S
H290 C266 0.950 . S
H291 C267 0.949 . S
H292 C269 0.950 . S
H293 C271 0.950 . S
C294 C295 1.349 . S
C294 C296 1.327 . S
C294 H319 0.950 . S
C295 C294 1.349 . S
C295 C311 1.349 . S
C296 C294 1.327 . S
C296 C315 1.429 . S
C296 H320 0.950 . S
C297 C314 1.574 . S
C297 C316 1.368 . S
C297 H321 0.949 . S
H298 C302 0.949 . S
C299 C300 1.349 . S
C299 C301 1.327 . S
C299 H322 0.950 . S
C300 C299 1.349 . S
C300 C312 1.349 . S
C301 C299 1.327 . S
C301 C317 1.429 . S
C301 H323 0.950 . S
C302 H298 0.949 . S
C302 C310 1.574 . S
C302 C318 1.368 . S
H303 C311 0.950 . S
H304 C309 0.950 . S
H305 C310 0.949 . S
H306 C312 0.950 . S
H307 C313 0.950 . S
H308 C314 0.949 . S
C309 H304 0.950 . S
C309 C311 1.327 . S
C309 C315 1.429 . S
C310 C302 1.574 . S
C310 H305 0.949 . S
C310 C316 1.368 . S
C311 C295 1.349 . S
C311 H303 0.950 . S
C311 C309 1.327 . S
C312 C300 1.349 . S
C312 H306 0.950 . S
C312 C313 1.327 . S
C313 H307 0.950 . S
C313 C312 1.327 . S
C313 C317 1.429 . S
C314 C297 1.574 . S
C314 H308 0.949 . S
C314 C318 1.368 . S
C315 C296 1.429 . S
C315 C309 1.429 . S
C315 C316 1.523 . S
C316 C297 1.368 . S
C316 C310 1.368 . S
C316 C315 1.523 . S
C317 C301 1.429 . S
C317 C313 1.429 . S
C317 C318 1.523 . S
C318 C302 1.368 . S
C318 C314 1.368 . S
C318 C317 1.523 . S
H319 C294 0.950 . S
H320 C296 0.950 . S
H321 C297 0.949 . S
H322 C299 0.950 . S
H323 C301 0.950 . S
C324 C325 1.349 . S
C324 C326 1.327 . S
C324 H349 0.950 . S
C325 C324 1.349 . S
C325 C341 1.349 . S
C326 C324 1.327 . S
C326 C345 1.429 . S
C326 H350 0.950 . S
C327 C344 1.574 . S
C327 C346 1.368 . S
C327 H351 0.949 . S
H328 C332 0.949 . S
C329 C330 1.349 . S
C329 C331 1.327 . S
C329 H352 0.950 . S
C330 C329 1.349 . S
C330 C342 1.349 . S
C331 C329 1.327 . S
C331 C347 1.429 . S
C331 H353 0.950 . S
C332 H328 0.949 . S
C332 C340 1.574 . S
C332 C348 1.368 . S
H333 C341 0.950 . S
H334 C339 0.950 . S
H335 C340 0.949 . S
H336 C342 0.950 . S
H337 C343 0.950 . S
H338 C344 0.949 . S
C339 H334 0.950 . S
C339 C341 1.327 . S
C339 C345 1.429 . S
C340 C332 1.574 . S
C340 H335 0.949 . S
C340 C346 1.368 . S
C341 C325 1.349 . S
C341 H333 0.950 . S
C341 C339 1.327 . S
C342 C330 1.349 . S
C342 H336 0.950 . S
C342 C343 1.327 . S
C343 H337 0.950 . S
C343 C342 1.327 . S
C343 C347 1.429 . S
C344 C327 1.574 . S
C344 H338 0.949 . S
C344 C348 1.368 . S
C345 C326 1.429 . S
C345 C339 1.429 . S
C345 C346 1.523 . S
C346 C327 1.368 . S
C346 C340 1.368 . S
C346 C345 1.523 . S
C347 C331 1.429 . S
C347 C343 1.429 . S
C347 C348 1.523 . S
C348 C332 1.368 . S
C348 C344 1.368 . S
C348 C347 1.523 . S
H349 C324 0.950 . S
H350 C326 0.950 . S
H351 C327 0.949 . S
H352 C329 0.950 . S
H353 C331 0.950 . S
C354 C355 1.349 . S
C354 C356 1.327 . S
C354 H379 0.950 . S
C355 C354 1.349 . S
C355 C371 1.349 . S
C356 C354 1.327 . S
C356 C375 1.429 . S
C356 H380 0.950 . S
C357 C374 1.574 . S
C357 C376 1.368 . S
C357 H381 0.949 . S
H358 C362 0.949 . S
C359 C360 1.349 . S
C359 C361 1.327 . S
C359 H382 0.950 . S
C360 C359 1.349 . S
C360 C372 1.349 . S
C361 C359 1.327 . S
C361 C377 1.429 . S
C361 H383 0.950 . S
C362 H358 0.949 . S
C362 C370 1.574 . S
C362 C378 1.368 . S
H363 C371 0.950 . S
H364 C369 0.950 . S
H365 C370 0.949 . S
H366 C372 0.950 . S
H367 C373 0.950 . S
H368 C374 0.949 . S
C369 H364 0.950 . S
C369 C371 1.327 . S
C369 C375 1.429 . S
C370 C362 1.574 . S
C370 H365 0.949 . S
C370 C376 1.368 . S
C371 C355 1.349 . S
C371 H363 0.950 . S
C371 C369 1.327 . S
C372 C360 1.349 . S
C372 H366 0.950 . S
C372 C373 1.327 . S
C373 H367 0.950 . S
C373 C372 1.327 . S
C373 C377 1.429 . S
C374 C357 1.574 . S
C374 H368 0.949 . S
C374 C378 1.368 . S
C375 C356 1.429 . S
C375 C369 1.429 . S
C375 C376 1.523 . S
C376 C357 1.368 . S
C376 C370 1.368 . S
C376 C375 1.523 . S
C377 C361 1.429 . S
C377 C373 1.429 . S
C377 C378 1.523 . S
C378 C362 1.368 . S
C378 C374 1.368 . S
C378 C377 1.523 . S
H379 C354 0.950 . S
H380 C356 0.950 . S
H381 C357 0.949 . S
H382 C359 0.950 . S
H383 C361 0.950 . S
C384 C385 1.349 . S
C384 C386 1.327 . S
C384 H409 0.950 . S
C385 C384 1.349 . S
C385 C401 1.349 . S
C386 C384 1.327 . S
C386 C405 1.429 . S
C386 H410 0.950 . S
C387 C404 1.574 . S
C387 C406 1.368 . S
C387 H411 0.949 . S
H388 C392 0.949 . S
C389 C390 1.349 . S
C389 C391 1.327 . S
C389 H412 0.950 . S
C390 C389 1.349 . S
C390 C402 1.349 . S
C391 C389 1.327 . S
C391 C407 1.429 . S
C391 H413 0.950 . S
C392 H388 0.949 . S
C392 C400 1.574 . S
C392 C408 1.368 . S
H393 C401 0.950 . S
H394 C399 0.950 . S
H395 C400 0.949 . S
H396 C402 0.950 . S
H397 C403 0.950 . S
H398 C404 0.949 . S
C399 H394 0.950 . S
C399 C401 1.327 . S
C399 C405 1.429 . S
C400 C392 1.574 . S
C400 H395 0.949 . S
C400 C406 1.368 . S
C401 C385 1.349 . S
C401 H393 0.950 . S
C401 C399 1.327 . S
C402 C390 1.349 . S
C402 H396 0.950 . S
C402 C403 1.327 . S
C403 H397 0.950 . S
C403 C402 1.327 . S
C403 C407 1.429 . S
C404 C387 1.574 . S
C404 H398 0.949 . S
C404 C408 1.368 . S
C405 C386 1.429 . S
C405 C399 1.429 . S
C405 C406 1.523 . S
C406 C387 1.368 . S
C406 C400 1.368 . S
C406 C405 1.523 . S
C407 C391 1.429 . S
C407 C403 1.429 . S
C407 C408 1.523 . S
C408 C392 1.368 . S
C408 C404 1.368 . S
C408 C407 1.523 . S
H409 C384 0.950 . S
H410 C386 0.950 . S
H411 C387 0.949 . S
H412 C389 0.950 . S
H413 C391 0.950 . S
C414 C415 1.349 . S
C414 C416 1.327 . S
C414 H439 0.950 . S
C415 C414 1.349 . S
C415 C431 1.349 . S
C416 C414 1.327 . S
C416 C435 1.429 . S
C416 H440 0.950 . S
C417 C434 1.574 . S
C417 C436 1.368 . S
C417 H441 0.949 . S
H418 C422 0.949 . S
C419 C420 1.349 . S
C419 C421 1.327 . S
C419 H442 0.950 . S
C420 C419 1.349 . S
C420 C432 1.349 . S
C421 C419 1.327 . S
C421 C437 1.429 . S
C421 H443 0.950 . S
C422 H418 0.949 . S
C422 C430 1.574 . S
C422 C438 1.368 . S
H423 C431 0.950 . S
H424 C429 0.950 . S
H425 C430 0.949 . S
H426 C432 0.950 . S
H427 C433 0.950 . S
H428 C434 0.949 . S
C429 H424 0.950 . S
C429 C431 1.327 . S
C429 C435 1.429 . S
C430 C422 1.574 . S
C430 H425 0.949 . S
C430 C436 1.368 . S
C431 C415 1.349 . S
C431 H423 0.950 . S
C431 C429 1.327 . S
C432 C420 1.349 . S
C432 H426 0.950 . S
C432 C433 1.327 . S
C433 H427 0.950 . S
C433 C432 1.327 . S
C433 C437 1.429 . S
C434 C417 1.574 . S
C434 H428 0.949 . S
C434 C438 1.368 . S
C435 C416 1.429 . S
C435 C429 1.429 . S
C435 C436 1.523 . S
C436 C417 1.368 . S
C436 C430 1.368 . S
C436 C435 1.523 . S
C437 C421 1.429 . S
C437 C433 1.429 . S
C437 C438 1.523 . S
C438 C422 1.368 . S
C438 C434 1.368 . S
C438 C437 1.523 . S
H439 C414 0.950 . S
H440 C416 0.950 . S
H441 C417 0.949 . S
H442 C419 0.950 . S
H443 C421 0.950 . S
C444 C445 1.349 . S
C444 C446 1.327 . S
C444 H469 0.950 . S
C445 C444 1.349 . S
C445 C461 1.349 . S
C446 C444 1.327 . S
C446 C465 1.429 . S
C446 H470 0.950 . S
C447 C464 1.574 . S
C447 C466 1.368 . S
C447 H471 0.949 . S
H448 C452 0.949 . S
C449 C450 1.349 . S
C449 C451 1.327 . S
C449 H472 0.950 . S
C450 C449 1.349 . S
C450 C462 1.349 . S
C451 C449 1.327 . S
C451 C467 1.429 . S
C451 H473 0.950 . S
C452 H448 0.949 . S
C452 C460 1.574 . S
C452 C468 1.368 . S
H453 C461 0.950 . S
H454 C459 0.950 . S
H455 C460 0.949 . S
H456 C462 0.950 . S
H457 C463 0.950 . S
H458 C464 0.949 . S
C459 H454 0.950 . S
C459 C461 1.327 . S
C459 C465 1.429 . S
C460 C452 1.574 . S
C460 H455 0.949 . S
C460 C466 1.368 . S
C461 C445 1.349 . S
C461 H453 0.950 . S
C461 C459 1.327 . S
C462 C450 1.349 . S
C462 H456 0.950 . S
C462 C463 1.327 . S
C463 H457 0.950 . S
C463 C462 1.327 . S
C463 C467 1.429 . S
C464 C447 1.574 . S
C464 H458 0.949 . S
C464 C468 1.368 . S
C465 C446 1.429 . S
C465 C459 1.429 . S
C465 C466 1.523 . S
C466 C447 1.368 . S
C466 C460 1.368 . S
C466 C465 1.523 . S
C467 C451 1.429 . S
C467 C463 1.429 . S
C467 C468 1.523 . S
C468 C452 1.368 . S
C468 C464 1.368 . S
C468 C467 1.523 . S
H469 C444 0.950 . S
H470 C446 0.950 . S
H471 C447 0.949 . S
H472 C449 0.950 . S
H473 C451 0.950 . S
C474 C475 1.349 1_655 S
C474 C476 1.327 . S
C474 H499 0.950 . S
C475 C474 1.349 1_455 S
C475 C491 1.349 . S
C476 C474 1.327 . S
C476 C495 1.429 1_655 S
C476 H500 0.950 . S
C477 C494 1.574 . S
C477 C496 1.368 . S
C477 H501 0.949 . S
H478 C482 0.976 . S
C479 C480 1.349 . S
C479 C481 1.327 . S
C479 H502 0.950 . S
C480 C479 1.349 . S
C480 C492 1.349 1_455 S
C481 C479 1.327 . S
C481 C497 1.429 . S
C481 H503 0.950 . S
C482 H478 0.976 . S
C482 C490 1.574 . S
C482 C498 1.368 1_655 S
H483 C491 0.950 . S
H484 C489 0.950 . S
H485 C490 0.949 . S
H486 C492 0.950 . S
H487 C493 0.950 . S
H488 C494 0.949 . S
C489 H484 0.950 . S
C489 C491 1.327 . S
C489 C495 1.429 . S
C490 C482 1.574 . S
C490 H485 0.949 . S
C490 C496 1.368 1_655 S
C491 C475 1.349 . S
C491 H483 0.950 . S
C491 C489 1.327 . S
C492 C480 1.349 1_655 S
C492 H486 0.950 . S
C492 C493 1.327 . S
C493 H487 0.950 . S
C493 C492 1.327 . S
C493 C497 1.429 1_655 S
C494 C477 1.574 . S
C494 H488 0.949 . S
C494 C498 1.368 . S
C495 C476 1.429 1_455 S
C495 C489 1.429 . S
C495 C496 1.523 . S
C496 C477 1.368 . S
C496 C490 1.368 1_455 S
C496 C495 1.523 . S
C497 C481 1.429 . S
C497 C493 1.429 1_455 S
C497 C498 1.523 1_556 S
C498 C482 1.368 1_455 S
C498 C494 1.368 . S
C498 C497 1.523 1_554 S
H499 C474 0.950 . S
H500 C476 0.950 . S
H501 C477 0.949 . S
H502 C479 0.950 . S
H503 C481 0.950 . S
C504 C505 1.349 . S
C504 C506 1.327 . S
C504 H529 0.950 . S
C505 C504 1.349 . S
C505 C521 1.349 1_545 S
C506 C504 1.327 . S
C506 C525 1.429 . S
C506 H530 0.950 . S
C507 C524 1.574 . S
C507 C526 1.368 1_565 S
C507 H531 0.949 . S
H508 C512 0.949 . S
C509 C510 1.337 1_565 S
C509 C511 1.331 . S
C509 H532 0.958 . S
C510 C509 1.337 1_545 S
C510 C522 1.349 . S
C511 C509 1.331 . S
C511 C527 1.429 1_565 S
C511 H533 0.950 . S
C512 H508 0.949 . S
C512 C520 1.574 . S
C512 C528 1.368 . S
H513 C521 0.950 . S
H514 C519 0.950 . S
H515 C520 0.949 . S
H516 C522 0.950 . S
H517 C523 0.950 . S
H518 C524 0.949 . S
C519 H514 0.950 . S
C519 C521 1.327 . S
C519 C525 1.429 1_565 S
C520 C512 1.574 . S
C520 H515 0.949 . S
C520 C526 1.368 . S
C521 C505 1.349 1_565 S
C521 H513 0.950 . S
C521 C519 1.327 . S
C522 C510 1.349 . S
C522 H516 0.950 . S
C522 C523 1.327 . S
C523 H517 0.950 . S
C523 C522 1.327 . S
C523 C527 1.429 . S
C524 C507 1.574 . S
C524 H518 0.949 . S
C524 C528 1.368 1_565 S
C525 C506 1.429 . S
C525 C519 1.429 1_545 S
C525 C526 1.523 . S
C526 C507 1.368 1_545 S
C526 C520 1.368 . S
C526 C525 1.523 . S
C527 C511 1.429 1_545 S
C527 C523 1.429 . S
C527 C528 1.523 . S
C528 C512 1.368 . S
C528 C524 1.368 1_545 S
C528 C527 1.523 . S
H529 C504 0.950 . S
H530 C506 0.950 . S
H531 C507 0.949 . S
H532 C509 0.958 . S
H533 C511 0.950 . S
C534 C535 1.349 . S
C534 C536 1.327 . S
C534 H559 0.950 . S
C535 C534 1.349 . S
C535 C551 1.349 . S
C536 C534 1.327 . S
C536 C555 1.429 . S
C536 H560 0.950 . S
C537 C554 1.574 . S
C537 C556 1.368 . S
C537 H561 0.949 . S
H538 C542 0.949 . S
C539 C540 1.349 . S
C539 C541 1.327 . S
C539 H562 0.950 . S
C540 C539 1.349 . S
C540 C552 1.349 . S
C541 C539 1.327 . S
C541 C557 1.429 . S
C541 H563 0.950 . S
C542 H538 0.949 . S
C542 C550 1.574 . S
C542 C558 1.368 . S
H543 C551 0.950 . S
H544 C549 0.950 . S
H545 C550 0.949 . S
H546 C552 0.950 . S
H547 C553 0.950 . S
H548 C554 0.949 . S
C549 H544 0.950 . S
C549 C551 1.327 . S
C549 C555 1.429 . S
C550 C542 1.574 . S
C550 H545 0.949 . S
C550 C556 1.368 . S
C551 C535 1.349 . S
C551 H543 0.950 . S
C551 C549 1.327 . S
C552 C540 1.349 . S
C552 H546 0.950 . S
C552 C553 1.327 . S
C553 H547 0.950 . S
C553 C552 1.327 . S
C553 C557 1.429 . S
C554 C537 1.574 . S
C554 H548 0.949 . S
C554 C558 1.368 . S
C555 C536 1.429 . S
C555 C549 1.429 . S
C555 C556 1.523 . S
C556 C537 1.368 . S
C556 C550 1.368 . S
C556 C555 1.523 . S
C557 C541 1.429 . S
C557 C553 1.429 . S
C557 C558 1.523 . S
C558 C542 1.368 . S
C558 C554 1.368 . S
C558 C557 1.523 . S
H559 C534 0.950 . S
H560 C536 0.950 . S
H561 C537 0.949 . S
H562 C539 0.950 . S
H563 C541 0.950 . S
C564 C565 1.349 . S
C564 C566 1.327 . S
C564 H589 0.950 . S
C565 C564 1.349 . S
C565 C581 1.349 1_545 S
C566 C564 1.327 . S
C566 C585 1.429 . S
C566 H590 0.950 . S
C567 C584 1.574 . S
C567 C586 1.368 1_565 S
C567 H591 0.949 . S
H568 C572 0.949 . S
C569 C570 1.349 1_565 S
C569 C571 1.327 . S
C569 H592 0.950 . S
C570 C569 1.349 1_545 S
C570 C582 1.349 . S
C571 C569 1.327 . S
C571 C587 1.429 1_565 S
C571 H593 0.950 . S
C572 H568 0.949 . S
C572 C580 1.574 . S
C572 C588 1.368 . S
H573 C581 0.950 . S
H574 C579 0.950 . S
H575 C580 0.949 . S
H576 C582 0.950 . S
H577 C583 0.950 . S
H578 C584 0.949 . S
C579 H574 0.950 . S
C579 C581 1.327 . S
C579 C585 1.429 1_565 S
C580 C572 1.574 . S
C580 H575 0.949 . S
C580 C586 1.368 . S
C581 C565 1.349 1_565 S
C581 H573 0.950 . S
C581 C579 1.327 . S
C582 C570 1.349 . S
C582 H576 0.950 . S
C582 C583 1.327 . S
C583 H577 0.950 . S
C583 C582 1.327 . S
C583 C587 1.429 . S
C584 C567 1.574 . S
C584 H578 0.949 . S
C584 C588 1.368 1_565 S
C585 C566 1.429 . S
C585 C579 1.429 1_545 S
C585 C586 1.523 . S
C586 C567 1.368 1_545 S
C586 C580 1.368 . S
C586 C585 1.523 . S
C587 C571 1.429 1_545 S
C587 C583 1.429 . S
C587 C588 1.523 . S
C588 C572 1.368 . S
C588 C584 1.368 1_545 S
C588 C587 1.523 . S
H589 C564 0.950 . S
H590 C566 0.950 . S
H591 C567 0.949 . S
H592 C569 0.950 . S
H593 C571 0.950 . S
C594 C595 1.349 . S
C594 C596 1.327 . S
C594 H619 0.950 . S
C595 C594 1.349 . S
C595 C611 1.349 . S
C596 C594 1.327 . S
C596 C615 1.429 . S
C596 H620 0.950 . S
C597 C614 1.574 . S
C597 C616 1.368 . S
C597 H621 0.949 . S
H598 C602 0.949 . S
C599 C600 1.349 . S
C599 C601 1.327 . S
C599 H622 0.950 . S
C600 C599 1.349 . S
C600 C612 1.349 . S
C601 C599 1.327 . S
C601 C617 1.429 . S
C601 H623 0.950 . S
C602 H598 0.949 . S
C602 C610 1.574 . S
C602 C618 1.368 . S
H603 C611 0.950 . S
H604 C609 0.950 . S
H605 C610 0.949 . S
H606 C612 0.950 . S
H607 C613 0.950 . S
H608 C614 0.949 . S
C609 H604 0.950 . S
C609 C611 1.327 . S
C609 C615 1.429 . S
C610 C602 1.574 . S
C610 H605 0.949 . S
C610 C616 1.368 . S
C611 C595 1.349 . S
C611 H603 0.950 . S
C611 C609 1.327 . S
C612 C600 1.349 . S
C612 H606 0.950 . S
C612 C613 1.327 . S
C613 H607 0.950 . S
C613 C612 1.327 . S
C613 C617 1.429 . S
C614 C597 1.574 . S
C614 H608 0.949 . S
C614 C618 1.368 . S
C615 C596 1.429 . S
C615 C609 1.429 . S
C615 C616 1.523 . S
C616 C597 1.368 . S
C616 C610 1.368 . S
C616 C615 1.523 . S
C617 C601 1.429 . S
C617 C613 1.429 . S
C617 C618 1.523 1_554 S
C618 C602 1.368 . S
C618 C614 1.368 . S
C618 C617 1.523 1_556 S
H619 C594 0.950 . S
H620 C596 0.950 . S
H621 C597 0.949 . S
H622 C599 0.950 . S
H623 C601 0.950 . S
C624 C625 1.348 . S
C624 C626 1.327 . S
C624 H649 0.950 . S
C625 C624 1.348 . S
C625 C641 1.349 1_455 S
C626 C624 1.327 . S
C626 C645 1.429 . S
C626 H650 0.950 . S
C627 C644 1.574 . S
C627 C646 1.368 1_655 S
C627 H651 0.949 . S
H628 C632 0.949 . S
C629 C630 1.349 1_655 S
C629 C631 1.327 . S
C629 H652 0.950 . S
C630 C629 1.349 1_455 S
C630 C642 1.349 . S
C631 C629 1.327 . S
C631 C647 1.429 1_655 S
C631 H653 0.950 . S
C632 H628 0.949 . S
C632 C640 1.574 . S
C632 C648 1.368 . S
H633 C641 0.950 . S
H634 C639 0.950 . S
H635 C640 0.949 . S
H636 C642 0.950 . S
H637 C643 0.950 . S
H638 C644 0.949 . S
C639 H634 0.950 . S
C639 C641 1.327 . S
C639 C645 1.429 1_655 S
C640 C632 1.574 . S
C640 H635 0.949 . S
C640 C646 1.368 . S
C641 C625 1.349 1_655 S
C641 H633 0.950 . S
C641 C639 1.327 . S
C642 C630 1.349 . S
C642 H636 0.950 . S
C642 C643 1.327 . S
C643 H637 0.950 . S
C643 C642 1.327 . S
C643 C647 1.429 . S
C644 C627 1.574 . S
C644 H638 0.949 . S
C644 C648 1.368 1_655 S
C645 C626 1.429 . S
C645 C639 1.429 1_455 S
C645 C646 1.523 . S
C646 C627 1.368 1_455 S
C646 C640 1.368 . S
C646 C645 1.523 . S
C647 C631 1.429 1_455 S
C647 C643 1.429 . S
C647 C648 1.523 . S
C648 C632 1.368 . S
C648 C644 1.368 1_455 S
C648 C647 1.523 . S
H649 C624 0.950 . S
H650 C626 0.950 . S
H651 C627 0.949 . S
H652 C629 0.950 . S
H653 C631 0.950 . S
C115 C2 1.268 . S
C120 C109 1.346 . S
C145 C22 1.257 . S
C150 C91 1.346 . S
C175 C44 1.265 . S
C180 C103 1.353 . S
C205 C4 1.389 . S
C210 C112 1.482 . S
C240 C94 1.493 . S
C235 C24 1.415 . S
C270 C100 1.469 . S
C265 C42 1.385 . S
C295 C32 1.196 . S
C300 C73 1.229 . S
C325 C49 1.168 . S
C330 C82 1.188 1_655 S
C355 C9 1.157 . S
C360 C64 1.187 . S
C390 C76 1.156 . S
C385 C29 1.124 . S
C420 C85 1.192 . S
C415 C52 1.143 . S
C445 C12 1.138 . S
C450 C67 1.183 . S
C480 C83 1.436 . S
C475 C18 1.422 1_455 S
C505 C38 1.420 . S
C510 C65 1.439 . S
C535 C58 1.418 . S
C540 C74 1.440 . S
C570 C101 1.505 . S
C565 C39 1.487 . S
C600 C110 1.494 . S
C595 C59 1.467 . S
C625 C19 1.468 . S
C630 C92 1.496 . S
