# Generated by pormake.
# Topology csq, (4,8)-cn, num edge types: 1
# Building blocks:
#     Node 0, Type 0, BuildingBlock: NAHDIM_clean_linker_0, # of connection points: 4
#     Node 1, Type 0, BuildingBlock: NAHDIM_clean_linker_0, # of connection points: 4
#     Node 2, Type 0, BuildingBlock: NAHDIM_clean_linker_0, # of connection points: 4
#     Node 3, Type 0, BuildingBlock: NAHDIM_clean_linker_0, # of connection points: 4
#     Node 4, Type 0, BuildingBlock: NAHDIM_clean_linker_0, # of connection points: 4
#     Node 5, Type 0, BuildingBlock: NAHDIM_clean_linker_0, # of connection points: 4
#     Node 6, Type 1, BuildingBlock: TAGTUT_clean_sbu_3, # of connection points: 8
#     Node 7, Type 1, BuildingBlock: TAGTUT_clean_sbu_3, # of connection points: 8
#     Node 8, Type 1, BuildingBlock: TAGTUT_clean_sbu_3, # of connection points: 8
#     Edge 9, Type (0, 1), BuildingBlock: AJUNOK_clean_linker_0, # of connection points: 2
#     Edge 10, Type (0, 1), BuildingBlock: AJUNOK_clean_linker_0, # of connection points: 2
#     Edge 11, Type (0, 1), BuildingBlock: AJUNOK_clean_linker_0, # of connection points: 2
#     Edge 12, Type (0, 1), BuildingBlock: AJUNOK_clean_linker_0, # of connection points: 2
#     Edge 13, Type (0, 1), BuildingBlock: AJUNOK_clean_linker_0, # of connection points: 2
#     Edge 14, Type (0, 1), BuildingBlock: AJUNOK_clean_linker_0, # of connection points: 2
#     Edge 15, Type (0, 1), BuildingBlock: AJUNOK_clean_linker_0, # of connection points: 2
#     Edge 16, Type (0, 1), BuildingBlock: AJUNOK_clean_linker_0, # of connection points: 2
#     Edge 17, Type (0, 1), BuildingBlock: AJUNOK_clean_linker_0, # of connection points: 2
#     Edge 18, Type (0, 1), BuildingBlock: AJUNOK_clean_linker_0, # of connection points: 2
#     Edge 19, Type (0, 1), BuildingBlock: AJUNOK_clean_linker_0, # of connection points: 2
#     Edge 20, Type (0, 1), BuildingBlock: AJUNOK_clean_linker_0, # of connection points: 2
#     Edge 21, Type (0, 1), BuildingBlock: AJUNOK_clean_linker_0, # of connection points: 2
#     Edge 22, Type (0, 1), BuildingBlock: AJUNOK_clean_linker_0, # of connection points: 2
#     Edge 23, Type (0, 1), BuildingBlock: AJUNOK_clean_linker_0, # of connection points: 2
#     Edge 24, Type (0, 1), BuildingBlock: AJUNOK_clean_linker_0, # of connection points: 2
#     Edge 25, Type (0, 1), BuildingBlock: AJUNOK_clean_linker_0, # of connection points: 2
#     Edge 26, Type (0, 1), BuildingBlock: AJUNOK_clean_linker_0, # of connection points: 2
#     Edge 27, Type (0, 1), BuildingBlock: AJUNOK_clean_linker_0, # of connection points: 2
#     Edge 28, Type (0, 1), BuildingBlock: AJUNOK_clean_linker_0, # of connection points: 2
#     Edge 29, Type (0, 1), BuildingBlock: AJUNOK_clean_linker_0, # of connection points: 2
#     Edge 30, Type (0, 1), BuildingBlock: AJUNOK_clean_linker_0, # of connection points: 2
#     Edge 31, Type (0, 1), BuildingBlock: AJUNOK_clean_linker_0, # of connection points: 2
#     Edge 32, Type (0, 1), BuildingBlock: AJUNOK_clean_linker_0, # of connection points: 2
# Relax obj value: 0.052
# Max RMSD: 0.122
# Mean RMSD: 0.092
data_MOF--net-csq--node1-TAGTUT_clean_sbu_3--node2-NAHDIM_clean_linker_0--edge1-AJUNOK_clean_linker_0
_symmetry_space_group_name_H-M    P1
_symmetry_Int_Tables_number       1
_symmetry_cell_setting            triclinic
loop_
_symmetry_equiv_pos_as_xyz
'x, y, z'
_cell_length_a     56.01381
_cell_length_b     55.211497
_cell_length_c     21.644802
_cell_angle_alpha  92.56074
_cell_angle_beta   92.421624
_cell_angle_gamma 119.95596
loop_
_atom_site_label
_atom_site_type_symbol
_atom_site_fract_x
_atom_site_fract_y
_atom_site_fract_z
_atom_type_partial_charge
C0 C 0.39682 0.55566 0.51227 0.0
C1 C 0.38109 0.52684 0.47641 0.0
C2 C 0.35447 0.51753 0.37864 0.0
C3 C 0.33548 0.48892 0.38133 0.0
C4 C 0.30994 0.4762 0.34652 0.0
C5 C 0.30325 0.49257 0.30884 0.0
C6 C 0.32248 0.52148 0.30599 0.0
C7 C 0.34815 0.53345 0.34011 0.0
C8 C 0.29014 0.44527 0.34985 0.0
C9 C 0.3159 0.53977 0.26727 0.0
C10 C 0.17434 0.49228 0.50345 0.0
C11 C 0.15607 0.49358 0.45034 0.0
C12 C 0.16577 0.46908 0.36843 0.0
C13 C 0.18319 0.49125 0.33385 0.0
C14 C 0.20274 0.48943 0.29874 0.0
C15 C 0.20488 0.46495 0.29862 0.0
C16 C 0.1865 0.44207 0.33128 0.0
C17 C 0.16684 0.44433 0.36533 0.0
C18 C 0.22156 0.51395 0.263 0.0
C19 C 0.18816 0.41564 0.33147 0.0
C20 C 0.1362 0.39462 0.92259 0.0
C21 C 0.14991 0.42374 0.93621 0.0
C22 C 0.17769 0.43841 0.9594 0.0
C23 C 0.19158 0.42339 0.97134 0.0
C24 C 0.17825 0.39429 0.95396 0.0
C25 C 0.15077 0.38035 0.9287 0.0
C26 C 0.19169 0.4697 0.97393 0.0
C27 C 0.19256 0.37767 0.96489 0.0
C28 C 0.41278 0.52231 0.06799 0.0
C29 C 0.39492 0.50029 0.01524 0.0
C30 C 0.35155 0.49548 0.97246 0.0
C31 C 0.33824 0.51111 0.96993 0.0
C32 C 0.30955 0.49811 0.973 0.0
C33 C 0.2941 0.46885 0.97865 0.0
C34 C 0.30691 0.45252 0.97113 0.0
C35 C 0.33565 0.46606 0.96807 0.0
C36 C 0.2963 0.51605 0.97788 0.0
C37 C 0.29078 0.42114 0.97395 0.0
C38 C 0.27639 0.47934 0.27137 0.0
C39 C 0.25309 0.4755 0.30038 0.0
C40 C 0.22744 0.46421 0.26699 0.0
C41 C 0.22459 0.45567 0.20334 0.0
C42 C 0.19884 0.44303 0.16911 0.0
C43 C 0.19659 0.4359 0.10577 0.0
C44 C 0.22019 0.44234 0.07373 0.0
C45 C 0.21857 0.43726 0.00845 0.0
C46 C 0.24274 0.44546 0.97795 0.0
C47 C 0.26844 0.45759 0.01153 0.0
C48 C 0.27017 0.46108 0.07701 0.0
C49 C 0.29556 0.47165 0.11233 0.0
C50 C 0.29744 0.47662 0.17619 0.0
C51 C 0.27421 0.47208 0.20717 0.0
C52 C 0.24825 0.46041 0.17296 0.0
C53 C 0.24615 0.45438 0.1079 0.0
C54 C 0.06321 0.35514 0.9382 0.0
C55 C 0.08895 0.38366 0.93246 0.0
O56 O 0.37873 0.53037 0.41399 0.0
O57 O 0.3795 0.50946 0.98238 0.0
O58 O 0.1088 0.37968 0.90519 0.0
O59 O 0.1483 0.47137 0.40644 0.0
H60 H 0.36027 0.51627 0.49495 0.0
H61 H 0.38478 0.56658 0.50779 0.0
H62 H 0.41722 0.56887 0.49377 0.0
H63 H 0.3999 0.5534 0.5623 0.0
H64 H 0.34074 0.47653 0.41031 0.0
H65 H 0.36306 0.55553 0.33843 0.0
H66 H 0.27109 0.44221 0.37045 0.0
H67 H 0.29919 0.43513 0.37821 0.0
H68 H 0.28403 0.43459 0.30242 0.0
H69 H 0.33127 0.5624 0.27718 0.0
H70 H 0.29507 0.53633 0.27584 0.0
H71 H 0.31574 0.5341 0.21737 0.0
H72 H 0.16791 0.5138 0.42889 0.0
H73 H 0.18057 0.50974 0.53949 0.0
H74 H 0.19347 0.4942 0.48556 0.0
H75 H 0.16314 0.47203 0.52514 0.0
H76 H 0.18161 0.51001 0.3344 0.0
H77 H 0.15299 0.42723 0.39177 0.0
H78 H 0.22044 0.50679 0.21365 0.0
H79 H 0.24325 0.52289 0.28216 0.0
H80 H 0.21619 0.53079 0.26511 0.0
H81 H 0.17173 0.39935 0.35744 0.0
H82 H 0.20862 0.4206 0.35287 0.0
H83 H 0.18635 0.40699 0.28309 0.0
H84 H 0.09667 0.39335 0.98072 0.0
H85 H 0.13885 0.43495 0.92948 0.0
H86 H 0.14005 0.35793 0.91689 0.0
H87 H 0.19186 0.47425 0.02446 0.0
H88 H 0.18074 0.47892 0.94903 0.0
H89 H 0.21345 0.48013 0.96133 0.0
H90 H 0.17914 0.35508 0.9497 0.0
H91 H 0.19895 0.37964 0.01498 0.0
H92 H 0.21153 0.38625 0.93928 0.0
H93 H 0.38134 0.48108 0.03874 0.0
H94 H 0.42658 0.51615 0.09235 0.0
H95 H 0.39926 0.52392 0.10209 0.0
H96 H 0.42551 0.54333 0.05059 0.0
H97 H 0.3506 0.53375 0.97083 0.0
H98 H 0.34567 0.45368 0.96561 0.0
H99 H 0.29354 0.51951 0.02738 0.0
H100 H 0.27558 0.50536 0.95232 0.0
H101 H 0.30924 0.53681 0.95947 0.0
H102 H 0.30212 0.41102 0.95527 0.0
H103 H 0.27037 0.41213 0.94751 0.0
H104 H 0.28705 0.41616 0.02298 0.0
H105 H 0.25513 0.48223 0.34916 0.0
H106 H 0.18015 0.43844 0.191 0.0
H107 H 0.17617 0.42597 0.08213 0.0
H108 H 0.24157 0.4426 0.92779 0.0
H109 H 0.31443 0.47637 0.09129 0.0
H110 H 0.31753 0.48478 0.20066 0.0
H111 H 0.04713 0.35787 0.96062 0.0
H112 H 0.06862 0.34226 0.96731 0.0
H113 H 0.05458 0.34366 0.89196 0.0
C114 C 0.86529 0.3479 0.52809 0.0
C115 C 0.88578 0.35227 0.47927 0.0
C116 C 0.86383 0.33236 0.37504 0.0
C117 C 0.87699 0.31725 0.35908 0.0
C118 C 0.86519 0.29548 0.31171 0.0
C119 C 0.83974 0.28874 0.28006 0.0
C120 C 0.82711 0.30482 0.29449 0.0
C121 C 0.83969 0.3268 0.3411 0.0
C122 C 0.87954 0.27922 0.29652 0.0
C123 C 0.79975 0.29814 0.26268 0.0
C124 C 0.72784 0.11313 0.47707 0.0
C125 C 0.71677 0.11901 0.41712 0.0
C126 C 0.74556 0.14072 0.3324 0.0
C127 C 0.73453 0.15766 0.31606 0.0
C128 C 0.74946 0.18109 0.28233 0.0
C129 C 0.77569 0.1873 0.26353 0.0
C130 C 0.78624 0.16947 0.27723 0.0
C131 C 0.77088 0.14621 0.31132 0.0
C132 C 0.73737 0.19941 0.26751 0.0
C133 C 0.81389 0.17528 0.25665 0.0
C134 C 0.70639 0.13713 0.88797 0.0
C135 C 0.69968 0.15602 0.91681 0.0
C136 C 0.72055 0.18257 0.94164 0.0
C137 C 0.74858 0.1903 0.93739 0.0
C138 C 0.75533 0.17201 0.9049 0.0
C139 C 0.73405 0.1457 0.8801 0.0
C140 C 0.71269 0.20195 0.97461 0.0
C141 C 0.785 0.17971 0.89909 0.0
C142 C 0.84617 0.40177 0.85005 0.0
C143 C 0.86545 0.39098 0.87064 0.0
C144 C 0.84298 0.34057 0.88257 0.0
C145 C 0.82448 0.33757 0.92725 0.0
C146 C 0.81136 0.31299 0.95871 0.0
C147 C 0.81801 0.29161 0.9473 0.0
C148 C 0.83699 0.29488 0.90264 0.0
C149 C 0.84869 0.31906 0.86984 0.0
C150 C 0.79012 0.30985 0.00325 0.0
C151 C 0.84484 0.27281 0.88904 0.0
C152 C 0.82456 0.2629 0.2378 0.0
C153 C 0.81025 0.23756 0.26541 0.0
C154 C 0.79212 0.21271 0.23018 0.0
C155 C 0.78795 0.21293 0.16556 0.0
C156 C 0.76924 0.18836 0.12926 0.0
C157 C 0.76384 0.18909 0.06645 0.0
C158 C 0.77707 0.21441 0.03741 0.0
C159 C 0.77053 0.21555 0.9743 0.0
C160 C 0.78413 0.2409 0.94652 0.0
C161 C 0.80449 0.26543 0.98017 0.0
C162 C 0.81116 0.26472 0.04374 0.0
C163 C 0.83145 0.28883 0.07942 0.0
C164 C 0.83623 0.28826 0.14294 0.0
C165 C 0.82135 0.26343 0.17279 0.0
C166 C 0.80238 0.23845 0.13684 0.0
C167 C 0.79702 0.23917 0.07251 0.0
C168 C 0.66586 0.07417 0.93331 0.0
C169 C 0.66194 0.0931 0.8895 0.0
O170 O 0.874 0.35278 0.42201 0.0
O171 O 0.8546 0.36325 0.84868 0.0
O172 O 0.68699 0.11082 0.86563 0.0
O173 O 0.73254 0.1193 0.36926 0.0
H174 H 0.8898 0.33449 0.47968 0.0
H175 H 0.84531 0.32844 0.51484 0.0
H176 H 0.86154 0.36585 0.53189 0.0
H177 H 0.87319 0.34559 0.57406 0.0
H178 H 0.89646 0.32244 0.38332 0.0
H179 H 0.83008 0.33905 0.35312 0.0
H180 H 0.86809 0.25819 0.31466 0.0
H181 H 0.90116 0.28992 0.31733 0.0
H182 H 0.87963 0.27613 0.24548 0.0
H183 H 0.79134 0.3107 0.28414 0.0
H184 H 0.78435 0.27556 0.26435 0.0
H185 H 0.80238 0.30259 0.21318 0.0
H186 H 0.71905 0.14009 0.4268 0.0
H187 H 0.71513 0.11232 0.51582 0.0
H188 H 0.74944 0.13019 0.4894 0.0
H189 H 0.7278 0.09301 0.47181 0.0
H190 H 0.71433 0.15272 0.32995 0.0
H191 H 0.77897 0.1327 0.32334 0.0
H192 H 0.73486 0.19979 0.21648 0.0
H193 H 0.75171 0.22127 0.28669 0.0
H194 H 0.71696 0.19201 0.28666 0.0
H195 H 0.81872 0.15879 0.26893 0.0
H196 H 0.83039 0.19579 0.27868 0.0
H197 H 0.81416 0.17673 0.20565 0.0
H198 H 0.65429 0.10511 0.91622 0.0
H199 H 0.67833 0.15036 0.92 0.0
H200 H 0.73896 0.1312 0.85637 0.0
H201 H 0.71817 0.20361 0.02513 0.0
H202 H 0.69023 0.1944 0.96745 0.0
H203 H 0.72444 0.22331 0.95813 0.0
H204 H 0.78681 0.16394 0.86907 0.0
H205 H 0.79501 0.18153 0.94579 0.0
H206 H 0.79648 0.20044 0.8796 0.0
H207 H 0.8677 0.39287 0.92233 0.0
H208 H 0.85529 0.42421 0.86647 0.0
H209 H 0.82593 0.38972 0.87009 0.0
H210 H 0.84249 0.39961 0.79877 0.0
H211 H 0.8196 0.35399 0.93621 0.0
H212 H 0.8628 0.32153 0.83466 0.0
H213 H 0.79958 0.3144 0.05148 0.0
H214 H 0.77222 0.28814 0.99908 0.0
H215 H 0.78246 0.32462 0.99525 0.0
H216 H 0.86349 0.2808 0.86229 0.0
H217 H 0.82749 0.25466 0.86137 0.0
H218 H 0.84881 0.26517 0.93276 0.0
H219 H 0.81234 0.23737 0.31546 0.0
H220 H 0.7582 0.16834 0.14919 0.0
H221 H 0.74889 0.16953 0.0412 0.0
H222 H 0.7787 0.24158 0.89816 0.0
H223 H 0.84344 0.30854 0.05892 0.0
H224 H 0.85155 0.30755 0.16859 0.0
H225 H 0.67337 0.06152 0.90833 0.0
H226 H 0.64607 0.0598 0.95313 0.0
H227 H 0.68128 0.08719 0.97215 0.0
C228 C 0.48446 0.8173 0.36647 0.0
C229 C 0.51356 0.83822 0.34929 0.0
C230 C 0.52293 0.82215 0.25131 0.0
C231 C 0.54851 0.82412 0.26569 0.0
C232 C 0.55729 0.80875 0.22921 0.0
C233 C 0.53996 0.7909 0.17781 0.0
C234 C 0.51422 0.78914 0.16308 0.0
C235 C 0.50635 0.80531 0.19938 0.0
C236 C 0.58506 0.81157 0.24557 0.0
C237 C 0.49481 0.76991 0.1096 0.0
C238 C 0.53927 0.66076 0.36445 0.0
C239 C 0.51605 0.63521 0.32503 0.0
C240 C 0.52937 0.6563 0.2278 0.0
C241 C 0.50823 0.65886 0.19806 0.0
C242 C 0.51441 0.68189 0.16337 0.0
C243 C 0.54235 0.70307 0.16008 0.0
C244 C 0.56377 0.70009 0.1892 0.0
C245 C 0.55695 0.6763 0.2216 0.0
C246 C 0.49101 0.68399 0.13193 0.0
C247 C 0.59372 0.72252 0.18837 0.0
C248 C 0.6052 0.70565 0.75973 0.0
C249 C 0.57885 0.70244 0.75591 0.0
C250 C 0.57121 0.71598 0.80054 0.0
C251 C 0.59083 0.73386 0.84893 0.0
C252 C 0.61751 0.73693 0.85327 0.0
C253 C 0.62438 0.72264 0.80864 0.0
C254 C 0.54249 0.71196 0.79461 0.0
C255 C 0.63916 0.75635 0.90324 0.0
C256 C 0.59294 0.91592 0.827 0.0
C257 C 0.58022 0.8997 0.76338 0.0
C258 C 0.56827 0.85303 0.79697 0.0
C259 C 0.54573 0.82823 0.81291 0.0
C260 C 0.54942 0.80864 0.84435 0.0
C261 C 0.57655 0.81443 0.86148 0.0
C262 C 0.59956 0.8391 0.84353 0.0
C263 C 0.59515 0.85796 0.81025 0.0
C264 C 0.52421 0.78181 0.85923 0.0
C265 C 0.62872 0.84559 0.8598 0.0
C266 C 0.54811 0.77316 0.14098 0.0
C267 C 0.54403 0.74851 0.16538 0.0
C268 C 0.54884 0.72941 0.13146 0.0
C269 C 0.5584 0.73512 0.07141 0.0
C270 C 0.56309 0.71623 0.0354 0.0
C271 C 0.57224 0.72202 0.97605 0.0
C272 C 0.57646 0.74661 0.95003 0.0
C273 C 0.58479 0.75234 0.88903 0.0
C274 C 0.58639 0.77573 0.86291 0.0
C275 C 0.58041 0.79398 0.89626 0.0
C276 C 0.57429 0.78994 0.95886 0.0
C277 C 0.57019 0.80916 0.99504 0.0
C278 C 0.56236 0.8041 0.05536 0.0
C279 C 0.55785 0.77939 0.08127 0.0
C280 C 0.56287 0.76021 0.04629 0.0
C281 C 0.57154 0.76575 0.98532 0.0
C282 C 0.64409 0.68072 0.6761 0.0
C283 C 0.62288 0.67596 0.72333 0.0
O284 O 0.51414 0.83702 0.28528 0.0
O285 O 0.56283 0.87135 0.76881 0.0
O286 O 0.61215 0.69337 0.71388 0.0
O287 O 0.52333 0.63509 0.26453 0.0
H288 H 0.52799 0.83212 0.37094 0.0
H289 H 0.47878 0.79578 0.34863 0.0
H290 H 0.46912 0.82241 0.34595 0.0
H291 H 0.48357 0.81764 0.41768 0.0
H292 H 0.56178 0.83799 0.30471 0.0
H293 H 0.48681 0.8043 0.18834 0.0
H294 H 0.58202 0.79156 0.26226 0.0
H295 H 0.5974 0.82865 0.28228 0.0
H296 H 0.59699 0.81575 0.20378 0.0
H297 H 0.47416 0.76814 0.10966 0.0
H298 H 0.49214 0.74863 0.11134 0.0
H299 H 0.50369 0.77809 0.06518 0.0
H300 H 0.49678 0.63639 0.32466 0.0
H301 H 0.53437 0.66077 0.41358 0.0
H302 H 0.54201 0.68053 0.34692 0.0
H303 H 0.55909 0.66078 0.36277 0.0
H304 H 0.48694 0.64301 0.20283 0.0
H305 H 0.57307 0.67385 0.24478 0.0
H306 H 0.49588 0.69089 0.08438 0.0
H307 H 0.48816 0.69989 0.15863 0.0
H308 H 0.47123 0.66371 0.12907 0.0
H309 H 0.6076 0.71815 0.21803 0.0
H310 H 0.59655 0.74322 0.20464 0.0
H311 H 0.60011 0.72404 0.14022 0.0
H312 H 0.63416 0.68112 0.76999 0.0
H313 H 0.56429 0.68934 0.71762 0.0
H314 H 0.64504 0.72564 0.81042 0.0
H315 H 0.53377 0.70915 0.84062 0.0
H316 H 0.5283 0.69358 0.76231 0.0
H317 H 0.54347 0.73094 0.77664 0.0
H318 H 0.65893 0.75639 0.90028 0.0
H319 H 0.63149 0.74998 0.94959 0.0
H320 H 0.64321 0.77806 0.89945 0.0
H321 H 0.59705 0.90253 0.7337 0.0
H322 H 0.60398 0.93888 0.82197 0.0
H323 H 0.60828 0.91094 0.84755 0.0
H324 H 0.57673 0.91087 0.86002 0.0
H325 H 0.52507 0.82442 0.80107 0.0
H326 H 0.61268 0.87645 0.79505 0.0
H327 H 0.52123 0.78282 0.90944 0.0
H328 H 0.5269 0.76349 0.84864 0.0
H329 H 0.50516 0.77832 0.83289 0.0
H330 H 0.6443 0.86718 0.84937 0.0
H331 H 0.63266 0.8305 0.83293 0.0
H332 H 0.63152 0.84318 0.90981 0.0
H333 H 0.53628 0.74374 0.21101 0.0
H334 H 0.55969 0.69675 0.05273 0.0
H335 H 0.57554 0.70679 0.95035 0.0
H336 H 0.59123 0.77911 0.8149 0.0
H337 H 0.5729 0.82827 0.9769 0.0
H338 H 0.5594 0.81956 0.08106 0.0
H339 H 0.65244 0.66642 0.68258 0.0
H340 H 0.66152 0.70267 0.6829 0.0
H341 H 0.63482 0.67709 0.62784 0.0
C342 C 0.94943 0.5714 0.19317 0.0
C343 C 0.9415 0.57282 0.2596 0.0
C344 C 0.89089 0.55155 0.26465 0.0
C345 C 0.86681 0.52622 0.27163 0.0
C346 C 0.84072 0.52366 0.26258 0.0
C347 C 0.83884 0.54719 0.24644 0.0
C348 C 0.86311 0.57364 0.24622 0.0
C349 C 0.88898 0.57553 0.25424 0.0
C350 C 0.81522 0.49525 0.26439 0.0
C351 C 0.86172 0.59934 0.23112 0.0
C352 C 0.65573 0.54678 0.41594 0.0
C353 C 0.68294 0.55586 0.39012 0.0
C354 C 0.70557 0.53572 0.32935 0.0
C355 C 0.72698 0.56155 0.31256 0.0
C356 C 0.74723 0.56264 0.2749 0.0
C357 C 0.7462 0.53746 0.25412 0.0
C358 C 0.72481 0.51147 0.27129 0.0
C359 C 0.70469 0.51097 0.30848 0.0
C360 C 0.76979 0.59068 0.25733 0.0
C361 C 0.72333 0.48425 0.25061 0.0
C362 C 0.68451 0.51247 0.84285 0.0
C363 C 0.70923 0.53803 0.84834 0.0
C364 C 0.73187 0.54165 0.88603 0.0
C365 C 0.72993 0.51864 0.91648 0.0
C366 C 0.7051 0.49242 0.90955 0.0
C367 C 0.68242 0.48974 0.87337 0.0
C368 C 0.75787 0.57 0.89286 0.0
C369 C 0.70267 0.4672 0.93952 0.0
C370 C 0.91566 0.52263 0.94402 0.0
C371 C 0.90575 0.51578 0.87501 0.0
C372 C 0.86897 0.52771 0.87245 0.0
C373 C 0.86496 0.55067 0.87011 0.0
C374 C 0.84129 0.54963 0.89208 0.0
C375 C 0.82087 0.52465 0.9154 0.0
C376 C 0.82365 0.50055 0.91278 0.0
C377 C 0.84783 0.50238 0.89201 0.0
C378 C 0.83881 0.57562 0.89348 0.0
C379 C 0.80183 0.47331 0.93546 0.0
C380 C 0.81317 0.54267 0.21314 0.0
C381 C 0.79229 0.54249 0.2464 0.0
C382 C 0.76787 0.53831 0.21571 0.0
C383 C 0.76427 0.53452 0.1501 0.0
C384 C 0.74036 0.53104 0.11749 0.0
C385 C 0.7371 0.52713 0.05292 0.0
C386 C 0.75746 0.52619 0.0186 0.0
C387 C 0.75434 0.5218 0.95312 0.0
C388 C 0.77507 0.52113 0.92054 0.0
C389 C 0.79919 0.52507 0.95165 0.0
C390 C 0.80277 0.52959 0.01693 0.0
C391 C 0.82696 0.53383 0.04934 0.0
C392 C 0.83027 0.53788 0.11334 0.0
C393 C 0.80971 0.53829 0.14781 0.0
C394 C 0.78524 0.53428 0.1162 0.0
C395 C 0.78178 0.52996 0.05054 0.0
C396 C 0.61847 0.50447 0.78239 0.0
C397 C 0.63768 0.50271 0.829 0.0
O398 O 0.91496 0.55117 0.2659 0.0
O399 O 0.89366 0.53117 0.85671 0.0
O400 O 0.66303 0.50997 0.80682 0.0
O401 O 0.68541 0.5337 0.36522 0.0
H402 H 0.94339 0.59365 0.26765 0.0
H403 H 0.97175 0.58643 0.18968 0.0
H404 H 0.93733 0.57712 0.16109 0.0
H405 H 0.94476 0.54993 0.17775 0.0
H406 H 0.86849 0.50796 0.2808 0.0
H407 H 0.90713 0.59554 0.24929 0.0
H408 H 0.79957 0.49707 0.29088 0.0
H409 H 0.81992 0.48002 0.28574 0.0
H410 H 0.80599 0.48688 0.21639 0.0
H411 H 0.88127 0.61895 0.24643 0.0
H412 H 0.84437 0.59966 0.2534 0.0
H413 H 0.85799 0.59888 0.18018 0.0
H414 H 0.70137 0.57109 0.421 0.0
H415 H 0.66069 0.5529 0.46717 0.0
H416 H 0.64593 0.52359 0.42127 0.0
H417 H 0.63772 0.56369 0.35836 0.0
H418 H 0.72801 0.58092 0.32857 0.0
H419 H 0.68814 0.49117 0.32172 0.0
H420 H 0.77038 0.59058 0.2061 0.0
H421 H 0.79012 0.59448 0.2769 0.0
H422 H 0.7669 0.60824 0.27445 0.0
H423 H 0.70593 0.46588 0.26974 0.0
H424 H 0.74295 0.48506 0.26548 0.0
H425 H 0.72075 0.48121 0.19921 0.0
H426 H 0.62864 0.48312 0.85384 0.0
H427 H 0.71058 0.55532 0.82388 0.0
H428 H 0.66331 0.4698 0.8676 0.0
H429 H 0.76576 0.57597 0.94234 0.0
H430 H 0.75449 0.58664 0.87464 0.0
H431 H 0.77404 0.569 0.86687 0.0
H432 H 0.68281 0.44779 0.92505 0.0
H433 H 0.70415 0.4709 0.99071 0.0
H434 H 0.71996 0.4639 0.92742 0.0
H435 H 0.89048 0.49302 0.86755 0.0
H436 H 0.92624 0.51099 0.95773 0.0
H437 H 0.89776 0.51626 0.97266 0.0
H438 H 0.93013 0.54545 0.95427 0.0
H439 H 0.88116 0.56995 0.85388 0.0
H440 H 0.85007 0.48406 0.89239 0.0
H441 H 0.83775 0.58219 0.94205 0.0
H442 H 0.81938 0.57093 0.86707 0.0
H443 H 0.85645 0.59335 0.87332 0.0
H444 H 0.80445 0.45539 0.91982 0.0
H445 H 0.78087 0.4688 0.91887 0.0
H446 H 0.80318 0.47508 0.98693 0.0
H447 H 0.79503 0.54552 0.29662 0.0
H448 H 0.72396 0.53138 0.14153 0.0
H449 H 0.71833 0.52467 0.03025 0.0
H450 H 0.77252 0.51775 0.87035 0.0
H451 H 0.84371 0.53402 0.0258 0.0
H452 H 0.84929 0.54065 0.13514 0.0
H453 H 0.61376 0.53724 0.82024 0.0
H454 H 0.60068 0.48235 0.77362 0.0
H455 H 0.62683 0.50489 0.73574 0.0
C456 C 0.29641 0.91414 0.7273 0.0
C457 C 0.31882 0.91719 0.77557 0.0
C458 C 0.2977 0.87385 0.83108 0.0
C459 C 0.27943 0.87925 0.86367 0.0
C460 C 0.2623 0.8605 0.90554 0.0
C461 C 0.26355 0.83597 0.91534 0.0
C462 C 0.28219 0.83071 0.88332 0.0
C463 C 0.29891 0.84967 0.84146 0.0
C464 C 0.24253 0.86664 0.93869 0.0
C465 C 0.28418 0.80485 0.89276 0.0
C466 C 0.07634 0.67715 0.73054 0.0
C467 C 0.10004 0.67837 0.77091 0.0
C468 C 0.12536 0.70963 0.86283 0.0
C469 C 0.14958 0.70809 0.8607 0.0
C470 C 0.17394 0.72792 0.89529 0.0
C471 C 0.17415 0.74996 0.93186 0.0
C472 C 0.1496 0.75126 0.93472 0.0
C473 C 0.12536 0.73067 0.90104 0.0
C474 C 0.19955 0.72554 0.89198 0.0
C475 C 0.14909 0.77472 0.97212 0.0
C476 C 0.17392 0.71766 0.34864 0.0
C477 C 0.1917 0.71225 0.31441 0.0
C478 C 0.2083 0.73098 0.27208 0.0
C479 C 0.20713 0.75566 0.26396 0.0
C480 C 0.18953 0.76137 0.29919 0.0
C481 C 0.17331 0.74237 0.34162 0.0
C482 C 0.22739 0.72461 0.2366 0.0
C483 C 0.18797 0.78762 0.29219 0.0
C484 C 0.4157 0.92144 0.39813 0.0
C485 C 0.39505 0.89891 0.35275 0.0
C486 C 0.34647 0.87856 0.31545 0.0
C487 C 0.3453 0.85685 0.27655 0.0
C488 C 0.32064 0.83739 0.24247 0.0
C489 C 0.29697 0.84023 0.24593 0.0
C490 C 0.2984 0.86266 0.28331 0.0
C491 C 0.32312 0.88139 0.31804 0.0
C492 C 0.31971 0.8134 0.20394 0.0
C493 C 0.27368 0.86654 0.28759 0.0
C494 C 0.24438 0.81506 0.95652 0.0
C495 C 0.21923 0.79325 0.92942 0.0
C496 C 0.20034 0.77237 0.96456 0.0
C497 C 0.20655 0.77315 0.02891 0.0
C498 C 0.18815 0.75236 0.06566 0.0
C499 C 0.19431 0.75354 0.12914 0.0
C500 C 0.21932 0.77528 0.15809 0.0
C501 C 0.22595 0.77658 0.22245 0.0
C502 C 0.2513 0.79809 0.24919 0.0
C503 C 0.27026 0.81871 0.21383 0.0
C504 C 0.26384 0.8182 0.14977 0.0
C505 C 0.28224 0.83901 0.11314 0.0
C506 C 0.27594 0.83803 0.04985 0.0
C507 C 0.25091 0.81632 0.02088 0.0
C508 C 0.2319 0.79527 0.05714 0.0
C509 C 0.23834 0.79626 0.12171 0.0
C510 C 0.11249 0.66763 0.33753 0.0
C511 C 0.1389 0.67108 0.37058 0.0
O512 O 0.31411 0.89083 0.78858 0.0
O513 O 0.36937 0.89688 0.35198 0.0
O514 O 0.15697 0.69918 0.38802 0.0
O515 O 0.10172 0.6913 0.82856 0.0
H516 H 0.31771 0.92859 0.81805 0.0
H517 H 0.27582 0.90316 0.74633 0.0
H518 H 0.29563 0.9016 0.68487 0.0
H519 H 0.30035 0.93509 0.71511 0.0
H520 H 0.27799 0.89771 0.85611 0.0
H521 H 0.31303 0.84563 0.81625 0.0
H522 H 0.22099 0.84945 0.92648 0.0
H523 H 0.24423 0.88678 0.92675 0.0
H524 H 0.24663 0.86748 0.98961 0.0
H525 H 0.30085 0.8046 0.86716 0.0
H526 H 0.26423 0.78589 0.87668 0.0
H527 H 0.28813 0.80358 0.94289 0.0
H528 H 0.11929 0.69133 0.74732 0.0
H529 H 0.07492 0.66748 0.68337 0.0
H530 H 0.08004 0.6987 0.72596 0.0
H531 H 0.05635 0.66472 0.75157 0.0
H532 H 0.14946 0.69138 0.83229 0.0
H533 H 0.10645 0.73148 0.90266 0.0
H534 H 0.20949 0.7282 0.9392 0.0
H535 H 0.2146 0.74248 0.86491 0.0
H536 H 0.19497 0.70506 0.86935 0.0
H537 H 0.12915 0.77428 0.9643 0.0
H538 H 0.16607 0.79532 0.96007 0.0
H539 H 0.15245 0.77298 0.02223 0.0
H540 H 0.14821 0.66324 0.33652 0.0
H541 H 0.1929 0.69358 0.3214 0.0
H542 H 0.15965 0.74644 0.36862 0.0
H543 H 0.22241 0.72358 0.18601 0.0
H544 H 0.22583 0.70447 0.24804 0.0
H545 H 0.24908 0.74175 0.24712 0.0
H546 H 0.17164 0.7879 0.3191 0.0
H547 H 0.18381 0.7895 0.24253 0.0
H548 H 0.20816 0.80623 0.30844 0.0
H549 H 0.39419 0.87837 0.3554 0.0
H550 H 0.4448 0.95008 0.34217 0.0
H551 H 0.42111 0.91019 0.43333 0.0
H552 H 0.40386 0.92724 0.43067 0.0
H553 H 0.36332 0.8546 0.27339 0.0
H554 H 0.32429 0.89831 0.34786 0.0
H555 H 0.31603 0.81539 0.15414 0.0
H556 H 0.30233 0.79313 0.21639 0.0
H557 H 0.33921 0.81284 0.21027 0.0
H558 H 0.27928 0.8872 0.31102 0.0
H559 H 0.25814 0.84982 0.31431 0.0
H560 H 0.26386 0.86463 0.24059 0.0
H561 H 0.21431 0.79245 0.88006 0.0
H562 H 0.16871 0.73498 0.04576 0.0
H563 H 0.17931 0.73712 0.15524 0.0
H564 H 0.25642 0.79872 0.29839 0.0
H565 H 0.30178 0.85625 0.13302 0.0
H566 H 0.29094 0.85452 0.02388 0.0
H567 H 0.09754 0.64511 0.32457 0.0
H568 H 0.11752 0.67887 0.29443 0.0
H569 H 0.10263 0.67639 0.36769 0.0
C570 C 0.42913 0.30647 0.59235 0.0
C571 C 0.44644 0.31881 0.53703 0.0
C572 C 0.4395 0.29328 0.43665 0.0
C573 C 0.46737 0.30536 0.42376 0.0
C574 C 0.47587 0.29179 0.38114 0.0
C575 C 0.45611 0.2656 0.35081 0.0
C576 C 0.42777 0.25435 0.36054 0.0
C577 C 0.41981 0.26857 0.40291 0.0
C578 C 0.50617 0.30487 0.37067 0.0
C579 C 0.40607 0.2266 0.32867 0.0
C580 C 0.54297 0.17605 0.59807 0.0
C581 C 0.52525 0.16103 0.53794 0.0
C582 C 0.52278 0.18623 0.44873 0.0
C583 C 0.49415 0.17042 0.43326 0.0
C584 C 0.4813 0.17992 0.39135 0.0
C585 C 0.49746 0.20549 0.36414 0.0
C586 C 0.52641 0.22086 0.37806 0.0
C587 C 0.53866 0.21086 0.41982 0.0
C588 C 0.45049 0.16277 0.37627 0.0
C589 C 0.54438 0.24812 0.34965 0.0
C590 C 0.49643 0.14737 0.95717 0.0
C591 C 0.472 0.13787 0.98679 0.0
C592 C 0.46663 0.15662 0.02082 0.0
C593 C 0.48686 0.18548 0.02751 0.0
C594 C 0.51218 0.19507 -0.00037 0.0
C595 C 0.51658 0.17594 0.96411 0.0
C596 C 0.43908 0.14559 0.04837 0.0
C597 C 0.53449 0.22555 0.00675 0.0
C598 C 0.44929 0.34809 0.95624 0.0
C599 C 0.46904 0.34463 0.9146 0.0
C600 C 0.46153 0.29856 0.93472 0.0
C601 C 0.43844 0.27238 0.94169 0.0
C602 C 0.44005 0.25377 0.98165 0.0
C603 C 0.46549 0.26152 0.01467 0.0
C604 C 0.48911 0.28765 0.0063 0.0
C605 C 0.48692 0.30579 0.96613 0.0
C606 C 0.41463 0.22585 0.98868 0.0
C607 C 0.51682 0.29627 0.03921 0.0
C608 C 0.46543 0.24832 0.31621 0.0
C609 C 0.47481 0.23365 0.35135 0.0
C610 C 0.48423 0.21705 0.32325 0.0
C611 C 0.48316 0.21383 0.25791 0.0
C612 C 0.49124 0.19622 0.22808 0.0
C613 C 0.49043 0.19341 0.16371 0.0
C614 C 0.48185 0.20839 0.12679 0.0
C615 C 0.48101 0.20573 0.06134 0.0
C616 C 0.47443 0.22253 0.0263 0.0
C617 C 0.46819 0.24172 0.05463 0.0
C618 C 0.46701 0.24328 0.11979 0.0
C619 C 0.45919 0.26112 0.14971 0.0
C620 C 0.45828 0.26257 0.21402 0.0
C621 C 0.46576 0.24671 0.25082 0.0
C622 C 0.47419 0.22897 0.2216 0.0
C623 C 0.47418 0.22675 0.15599 0.0
C624 C 0.51093 0.10881 0.83499 0.0
C625 C 0.51588 0.13446 0.87191 0.0
O626 O 0.43106 0.30446 0.4822 0.0
O627 O 0.45877 0.31644 0.89777 0.0
O628 O 0.49971 0.12845 0.92198 0.0
O629 O 0.53614 0.17854 0.49033 0.0
H630 H 0.46426 0.31529 0.54447 0.0
H631 H 0.42519 0.28482 0.59664 0.0
H632 H 0.40881 0.30529 0.58664 0.0
H633 H 0.44041 0.31924 0.63605 0.0
H634 H 0.48262 0.32514 0.44767 0.0
H635 H 0.39828 0.25968 0.41223 0.0
H636 H 0.51482 0.29341 0.39524 0.0
H637 H 0.51806 0.32729 0.38829 0.0
H638 H 0.50906 0.30319 0.32052 0.0
H639 H 0.38486 0.22097 0.34021 0.0
H640 H 0.41016 0.2098 0.34253 0.0
H641 H 0.40711 0.22735 0.27765 0.0
H642 H 0.50407 0.15688 0.54567 0.0
H643 H 0.5345 0.16279 0.63758 0.0
H644 H 0.54303 0.19598 0.60828 0.0
H645 H 0.56463 0.18096 0.59393 0.0
H646 H 0.48178 0.15064 0.45321 0.0
H647 H 0.56079 0.22262 0.43126 0.0
H648 H 0.44591 0.15847 0.32525 0.0
H649 H 0.4407 0.17488 0.39248 0.0
H650 H 0.44102 0.14252 0.39827 0.0
H651 H 0.56647 0.2579 0.36658 0.0
H652 H 0.53715 0.26314 0.36054 0.0
H653 H 0.54266 0.24438 0.29842 0.0
H654 H 0.51562 0.15091 0.84415 0.0
H655 H 0.45669 0.11573 0.98133 0.0
H656 H 0.5358 0.18333 0.9422 0.0
H657 H 0.44208 0.14668 0.09962 0.0
H658 H 0.42427 0.12348 0.03153 0.0
H659 H 0.4298 0.15867 0.03687 0.0
H660 H 0.55454 0.22874 0.99184 0.0
H661 H 0.53748 0.23403 0.05573 0.0
H662 H 0.52815 0.2378 0.97792 0.0
H663 H 0.48911 0.35359 0.94249 0.0
H664 H 0.45696 0.37067 0.96851 0.0
H665 H 0.448 0.33779 -0.00011 0.0
H666 H 0.42818 0.33837 0.93293 0.0
H667 H 0.41901 0.2668 0.91662 0.0
H668 H 0.50523 0.32539 0.95864 0.0
H669 H 0.41064 0.22332 0.03847 0.0
H670 H 0.41815 0.20871 0.97163 0.0
H671 H 0.39602 0.22358 0.9626 0.0
H672 H 0.53324 0.31727 0.02757 0.0
H673 H 0.52312 0.28067 0.02656 0.0
H674 H 0.51519 0.29667 0.09014 0.0
H675 H 0.47545 0.23577 0.40159 0.0
H676 H 0.4981 0.18426 0.25422 0.0
H677 H 0.49687 0.17954 0.14325 0.0
H678 H 0.47473 0.22106 0.97619 0.0
H679 H 0.45343 0.27394 0.12358 0.0
H680 H 0.45196 0.27651 0.23468 0.0
H681 H 0.50154 0.1096 0.78862 0.0
H682 H 0.49116 0.09081 0.8495 0.0
H683 H 0.54896 0.11029 0.84555 0.0
C684 C 0.06229 0.48591 0.57266 0.0
C685 C 0.05239 0.45023 0.7974 0.0
C686 C 0.97621 0.45295 0.78214 0.0
Mg687 Mg 0.03539 0.52035 0.50813 0.0
Mg688 Mg 0.0256 0.5645 0.597 0.0
O689 O 0.01751 0.52739 0.57946 0.0
Mg690 Mg 0.02867 0.51013 0.64503 0.0
O691 O 0.03996 0.49138 0.70746 0.0
Mg692 Mg 0.01617 0.45172 0.67032 0.0
Mg693 Mg 0.03773 0.49773 0.79287 0.0
C694 C 0.99406 0.53573 0.71446 0.0
O695 O 0.06127 0.55209 0.69389 0.0
O696 O 0.01178 0.53687 0.44771 0.0
O697 O 0.05883 0.54382 0.79546 0.0
O698 O 0.07186 0.56525 0.51582 0.0
O699 O 0.00499 0.56551 0.51278 0.0
O700 O 0.0687 0.59405 0.58575 0.0
O701 O 0.99573 0.46751 0.60166 0.0
O702 O 0.99818 0.47568 0.50162 0.0
C703 C 0.98742 0.45915 0.54467 0.0
C704 C 0.00247 0.55367 0.45873 0.0
O705 O 0.99905 0.51558 0.70517 0.0
O706 O 0.03895 0.44004 0.74427 0.0
O707 O 0.00451 0.55757 0.68314 0.0
O708 O 0.98154 0.44205 0.73528 0.0
O709 O 0.05527 0.47279 0.82469 0.0
O710 O 0.99462 0.47593 0.81077 0.0
O711 O 0.05732 0.5061 0.58014 0.0
O712 O 0.05029 0.46398 0.60308 0.0
C713 C 0.08182 0.58948 0.54418 0.0
C714 C 0.06708 0.56062 0.75166 0.0
C715 C 0.52783 0.05654 0.51461 0.0
C716 C 0.60456 0.03525 0.42952 0.0
C717 C 0.54371 0.94992 0.45926 0.0
Mg718 Mg 0.48106 0.02112 0.60934 0.0
Mg719 Mg 0.4931 0.98886 0.72066 0.0
O720 O 0.49239 0.99345 0.63565 0.0
Mg721 Mg 0.52599 0.00539 0.58734 0.0
O722 O 0.55745 0.01771 0.53283 0.0
Mg723 Mg 0.53702 0.00765 0.44844 0.0
Mg724 Mg 0.57964 0.00156 0.54425 0.0
C725 C 0.52384 0.95663 0.67195 0.0
O726 O 0.55957 0.0278 0.67031 0.0
O727 O 0.4404 0.99483 0.66055 0.0
O728 O 0.59073 0.01558 0.64126 0.0
O729 O 0.50231 0.05089 0.69697 0.0
O730 O 0.44985 0.97133 0.73089 0.0
O731 O 0.51301 0.02963 0.76932 0.0
O732 O 0.49691 0.98426 0.50061 0.0
O733 O 0.46254 0.99252 0.51933 0.0
C734 C 0.47357 0.98196 0.4848 0.0
C735 C 0.43311 0.97755 0.70352 0.0
O736 O 0.52756 0.96682 0.6185 0.0
O737 O 0.58101 0.03221 0.41077 0.0
O738 O 0.51325 0.96387 0.71568 0.0
O739 O 0.53674 0.96567 0.43161 0.0
O740 O 0.60809 0.02468 0.47808 0.0
O741 O 0.55811 0.9583 0.51092 0.0
O742 O 0.52255 0.04305 0.56336 0.0
O743 O 0.53558 0.04856 0.46673 0.0
C744 C 0.51312 0.05115 0.75019 0.0
C745 C 0.58211 0.02706 0.68058 0.0
C746 C 0.536 0.55806 0.70454 0.0
C747 C 0.45533 0.48059 0.82674 0.0
C748 C 0.4805 0.42584 0.74363 0.0
Mg749 Mg 0.55873 0.55023 0.57737 0.0
Mg750 Mg 0.5249 0.49636 0.47184 0.0
O751 O 0.53615 0.50875 0.55581 0.0
Mg752 Mg 0.50994 0.49862 0.62325 0.0
O753 O 0.48641 0.49078 0.69449 0.0
Mg754 Mg 0.51466 0.4979 0.7632 0.0
Mg755 Mg 0.45309 0.45625 0.69269 0.0
C756 C 0.49062 0.43943 0.53749 0.0
O757 O 0.47254 0.49511 0.56373 0.0
O758 O 0.588 0.55174 0.50313 0.0
O759 O 0.43551 0.46136 0.60656 0.0
O760 O 0.53401 0.55894 0.503 0.0
O761 O 0.56541 0.51307 0.4373 0.0
O762 O 0.50838 0.52138 0.43663 0.0
O763 O 0.54481 0.50211 0.6895 0.0
O764 O 0.58065 0.53916 0.65269 0.0
C765 C 0.57063 0.52062 0.69229 0.0
C766 C 0.58716 0.53621 0.45624 0.0
O767 O 0.49337 0.45242 0.5904 0.0
O768 O 0.48183 0.49408 0.82917 0.0
O769 O 0.49953 0.45183 0.48757 0.0
O770 O 0.49863 0.45026 0.7672 0.0
O771 O 0.44015 0.46471 0.77944 0.0
O772 O 0.4612 0.42257 0.70478 0.0
O773 O 0.52832 0.54487 0.6507 0.0
O774 O 0.53105 0.54482 0.75394 0.0
C775 C 0.51654 0.54666 0.4563 0.0
C776 C 0.44617 0.47919 0.56549 0.0
C777 C 0.10573 0.46688 0.47551 0.0
C778 C 0.13078 0.49249 0.47571 0.0
C779 C 0.08316 0.46529 0.50437 0.0
C780 C 0.08481 0.48913 0.53489 0.0
H781 H 0.10367 0.44771 0.4544 0.0
H782 H 0.06449 0.44505 0.50425 0.0
S783 S 0.14648 0.56038 0.55468 0.0
N784 N 0.15624 0.54185 0.51178 0.0
N785 N 0.11384 0.53872 0.56685 0.0
C786 C 0.10959 0.51486 0.53541 0.0
C787 C 0.13258 0.51651 0.50589 0.0
C788 C 0.66618 0.10466 0.4107 0.0
C789 C 0.6866 0.09731 0.40173 0.0
C790 C 0.63823 0.08406 0.41064 0.0
C791 C 0.62993 0.05549 0.40251 0.0
H792 H 0.67203 0.12632 0.42206 0.0
H793 H 0.62354 0.09042 0.42337 0.0
S794 S 0.67429 0.02546 0.36614 0.0
N795 N 0.6958 0.05966 0.37451 0.0
N796 N 0.64337 0.02094 0.37726 0.0
C797 C 0.64964 0.04801 0.38768 0.0
C798 C 0.67799 0.06894 0.38658 0.0
C799 C 0.5204 0.59136 0.32756 0.0
C800 C 0.51073 0.60845 0.35372 0.0
C801 C 0.51956 0.56935 0.35899 0.0
C802 C 0.50988 0.56418 0.41841 0.0
H803 H 0.5298 0.5956 0.28372 0.0
H804 H 0.52849 0.55768 0.33861 0.0
S805 S 0.48016 0.6008 0.50548 0.0
N806 N 0.48838 0.6164 0.44004 0.0
N807 N 0.48905 0.57643 0.50108 0.0
C808 C 0.49911 0.58011 0.44413 0.0
C809 C 0.49895 0.60184 0.41121 0.0
C810 C 0.96816 0.54997 0.30065 0.0
C811 C 0.9603 0.57046 0.30822 0.0
C812 C 0.98229 0.5451 0.349 0.0
C813 C 0.9885 0.55998 0.40741 0.0
H814 H 0.96283 0.53702 0.25769 0.0
H815 H 0.98773 0.52902 0.34082 0.0
S816 S 0.97125 0.61505 0.45202 0.0
N817 N 0.95908 0.60516 0.37903 0.0
N818 N 0.98547 0.59612 0.47 0.0
C819 C 0.98068 0.58052 0.41563 0.0
C820 C 0.96653 0.58559 0.36622 0.0
C821 C 0.44342 0.91444 0.33177 0.0
C822 C 0.412 0.91664 0.3092 0.0
C823 C 0.46483 0.93832 0.39702 0.0
C824 C 0.45828 0.96547 0.42753 0.0
H825 H 0.44507 0.89631 0.31777 0.0
H826 H 0.48079 0.93555 0.41953 0.0
S827 S 0.39693 0.98105 0.36227 0.0
N828 N 0.38907 0.95339 0.3121 0.0
N829 N 0.42484 0.98988 0.41099 0.0
C830 C 0.43189 0.971 0.39161 0.0
C831 C 0.40983 0.94872 0.32744 0.0
C832 C 0.48565 0.36882 0.53782 0.0
C833 C 0.45696 0.35 0.53539 0.0
C834 C 0.49631 0.39777 0.53733 0.0
C835 C 0.47869 0.40895 0.53522 0.0
H836 H 0.50005 0.36114 0.54039 0.0
H837 H 0.51851 0.41155 0.53952 0.0
S838 S 0.40232 0.36945 0.52685 0.0
N839 N 0.41116 0.34504 0.52798 0.0
N840 N 0.43157 0.39973 0.53038 0.0
C841 C 0.45011 0.3907 0.53267 0.0
C842 C 0.43914 0.36112 0.53178 0.0
C843 C 0.57406 0.92993 0.68695 0.0
C844 C 0.56329 0.91107 0.73342 0.0
C845 C 0.56014 0.94322 0.66394 0.0
C846 C 0.53515 0.93836 0.68717 0.0
H847 H 0.59385 0.9352 0.66982 0.0
H848 H 0.56988 0.95861 0.6305 0.0
S849 S 0.49712 0.88921 0.80533 0.0
N850 N 0.52522 0.88695 0.79912 0.0
N851 N 0.49919 0.91195 0.75581 0.0
C852 C 0.52357 0.91866 0.73162 0.0
C853 C 0.53762 0.90507 0.75485 0.0
C854 C 0.65143 0.5516 0.79914 0.0
C855 C 0.63738 0.52564 0.85942 0.0
C856 C 0.62621 0.54713 0.73795 0.0
C857 C 0.58959 0.52289 0.744 0.0
H858 H 0.67334 0.5646 0.79452 0.0
H859 H 0.63309 0.55903 0.69762 0.0
S860 S 0.55451 0.47601 0.89397 0.0
N861 N 0.58791 0.49024 0.92023 0.0
N862 N 0.55077 0.48675 0.82424 0.0
C863 C 0.57707 0.50416 0.81276 0.0
C864 C 0.6003 0.50712 0.87503 0.0
C865 C 0.10606 0.63826 0.73151 0.0
C866 C 0.09537 0.64899 0.7758 0.0
C867 C 0.09845 0.6099 0.7271 0.0
C868 C 0.07989 0.59113 0.76691 0.0
H869 H 0.1194 0.65165 0.69797 0.0
H870 H 0.10618 0.60233 0.69037 0.0
S871 S 0.04673 0.60866 0.8925 0.0
N872 N 0.06581 0.63866 0.86156 0.0
N873 N 0.05183 0.58539 0.85377 0.0
C874 C 0.07009 0.60178 0.81346 0.0
C875 C 0.07762 0.63065 0.81758 0.0
C876 C 0.55337 0.14266 0.80517 0.0
C877 C 0.54203 0.13753 0.88605 0.0
C878 C 0.54144 0.1104 0.75711 0.0
C879 C 0.525 0.0768 0.79105 0.0
H880 H 0.56077 0.16249 0.78479 0.0
H881 H 0.54357 0.11116 0.70769 0.0
S882 S 0.51005 0.06354 0.97591 0.0
N883 N 0.525 0.09878 0.98227 0.0
N884 N 0.5091 0.05075 0.90301 0.0
C885 C 0.52169 0.07439 0.87341 0.0
C886 C 0.53261 0.10475 0.92436 0.0
C887 C 0.43273 0.51716 0.94086 0.0
C888 C 0.41224 0.49485 0.9711 0.0
C889 C 0.44753 0.51243 0.89611 0.0
C890 C 0.44167 0.48515 0.87849 0.0
H891 H 0.43695 0.53839 0.95073 0.0
H892 H 0.46283 0.53009 0.87324 0.0
S893 S 0.39079 0.4196 0.94347 0.0
N894 N 0.38789 0.4445 0.98159 0.0
N895 N 0.41479 0.43564 0.89456 0.0
C896 C 0.42149 0.46268 0.90811 0.0
C897 C 0.40695 0.46751 0.95506 0.0
C898 C 0.91647 0.42749 0.8861 0.0
C899 C 0.89368 0.40823 0.84599 0.0
C900 C 0.94304 0.44237 0.86495 0.0
C901 C 0.9478 0.43845 0.80295 0.0
H902 H 0.91382 0.43072 0.93448 0.0
H903 H 0.96006 0.45654 0.89777 0.0
S904 S 0.89456 0.39324 0.67743 0.0
N905 N 0.87728 0.388 0.74004 0.0
N906 N 0.92706 0.41593 0.70035 0.0
C907 C 0.925 0.42019 0.76177 0.0
C908 C 0.89799 0.40517 0.7832 0.0
C909 C 0.9319 0.49975 0.80876 0.0
C910 C 0.92967 0.52206 0.83589 0.0
C911 C 0.9531 0.50462 0.77059 0.0
C912 C 0.97325 0.53198 0.75863 0.0
H913 H 0.91678 0.47826 0.81597 0.0
H914 H 0.95308 0.48666 0.74849 0.0
S915 S 0.9776 0.59784 0.82109 0.0
N916 N 0.94994 0.57272 0.84996 0.0
N917 N 0.99015 0.58183 0.77849 0.0
C918 C 0.97169 0.55459 0.78647 0.0
C919 C 0.94993 0.54964 0.82528 0.0
C920 C 0.35472 0.94258 0.69531 0.0
C921 C 0.34833 0.93428 0.75619 0.0
C922 C 0.3822 0.95737 0.67909 0.0
C923 C 0.40435 0.96393 0.72244 0.0
H924 H 0.33866 0.93761 0.65927 0.0
H925 H 0.38604 0.96296 0.63171 0.0
S926 S 0.39913 0.94799 0.88786 0.0
N927 N 0.3668 0.9347 0.85997 0.0
N928 N 0.41822 0.96196 0.82929 0.0
C929 C 0.39836 0.95609 0.78335 0.0
C930 C 0.37049 0.94141 0.80008 0.0
C931 C 0.49883 0.38617 0.85467 0.0
C932 C 0.47351 0.36126 0.85791 0.0
C933 C 0.50182 0.40554 0.81184 0.0
C934 C 0.47945 0.40123 0.77151 0.0
H935 H 0.51607 0.3916 0.88793 0.0
H936 H 0.52135 0.42494 0.81333 0.0
S937 S 0.4109 0.33614 0.75082 0.0
N938 N 0.42736 0.33068 0.80879 0.0
N939 N 0.4327 0.3676 0.72923 0.0
C940 C 0.45502 0.37494 0.76916 0.0
C941 C 0.45208 0.35492 0.81241 0.0
C942 C 0.0787 0.42318 0.92633 0.0
C943 C 0.08172 0.40204 0.89527 0.0
C944 C 0.0701 0.43925 0.89406 0.0
C945 C 0.06378 0.43457 0.82947 0.0
H946 H 0.08262 0.42704 0.97624 0.0
H947 H 0.06761 0.4549 0.92038 0.0
S948 S 0.06957 0.38246 0.726 0.0
N949 N 0.07866 0.37786 0.79611 0.0
N950 N 0.06241 0.40793 0.73517 0.0
C951 C 0.06727 0.41383 0.79762 0.0
C952 C 0.07619 0.39758 0.83055 0.0
C953 C 0.64891 0.06866 0.78137 0.0
C954 C 0.64063 0.07547 0.8368 0.0
C955 C 0.62967 0.05283 0.73196 0.0
C956 C 0.6012 0.04261 0.73594 0.0
H957 H 0.67049 0.07583 0.77561 0.0
H958 H 0.63741 0.04899 0.6898 0.0
S959 S 0.56844 0.05017 0.87499 0.0
N960 N 0.60187 0.06815 0.89558 0.0
N961 N 0.5655 0.03765 0.80258 0.0
C962 C 0.59246 0.04799 0.79213 0.0
C963 C 0.61218 0.06441 0.84261 0.0
C964 C 0.59724 0.62811 0.76493 0.0
C965 C 0.59952 0.64575 0.71795 0.0
C966 C 0.576 0.60009 0.76115 0.0
C967 C 0.55631 0.58848 0.70991 0.0
H968 H 0.61214 0.63597 0.8048 0.0
H969 H 0.57557 0.58724 0.79796 0.0
S970 S 0.55235 0.62622 0.57587 0.0
N971 N 0.57968 0.64998 0.61968 0.0
N972 N 0.53982 0.59715 0.61236 0.0
C973 C 0.55807 0.60599 0.66303 0.0
C974 C 0.57964 0.63462 0.66707 0.0
C975 C 0.5053 0.10956 0.5521 0.0
C976 C 0.52482 0.13355 0.5247 0.0
C977 C 0.50602 0.08454 0.54752 0.0
C978 C 0.52614 0.08242 0.5148 0.0
H979 H 0.48975 0.11038 0.57878 0.0
H980 H 0.49082 0.06681 0.57022 0.0
S981 S 0.58273 0.13922 0.43657 0.0
N982 N 0.56564 0.15375 0.46555 0.0
N983 N 0.5663 0.1064 0.45523 0.0
C984 C 0.54557 0.10604 0.48639 0.0
C985 C 0.54517 0.13171 0.49198 0.0
C986 C 0.42274 0.52032 0.46993 0.0
C987 C 0.39556 0.51016 0.48691 0.0
C988 C 0.43835 0.50834 0.49039 0.0
C989 C 0.42731 0.48559 0.52804 0.0
H990 H 0.43253 0.53868 0.44372 0.0
H991 H 0.45973 0.51812 0.47985 0.0
S992 S 0.35449 0.44655 0.57066 0.0
N993 N 0.35658 0.47293 0.53359 0.0
N994 N 0.38539 0.44978 0.57014 0.0
C995 C 0.39898 0.47308 0.53844 0.0
C996 C 0.38327 0.48556 0.51849 0.0
C997 C 0.91894 0.40381 0.46489 0.0
C998 C 0.9128 0.37951 0.49521 0.0
C999 C 0.94347 0.42913 0.48045 0.0
C1000 C 0.96251 0.43151 0.52815 0.0
H1001 H 0.90473 0.40348 0.42893 0.0
H1002 H 0.94716 0.44723 0.45588 0.0
S1003 S 0.95612 0.37451 0.62285 0.0
N1004 N 0.92788 0.35954 0.57526 0.0
N1005 N 0.97364 0.40751 0.60571 0.0
C1006 C 0.95658 0.40761 0.55944 0.0
C1007 C 0.93182 0.38158 0.54274 0.0
C1008 C 0.53495 0.87713 0.435 0.0
C1009 C 0.52169 0.8676 0.37505 0.0
C1010 C 0.54176 0.90358 0.46186 0.0
C1011 C 0.53551 0.92166 0.43 0.0
H1012 H 0.54 0.86391 0.46157 0.0
H1013 H 0.55202 0.90982 0.50811 0.0
S1014 S 0.50016 0.90637 0.27196 0.0
N1015 N 0.50156 0.87791 0.28535 0.0
N1016 N 0.5151 0.92791 0.33466 0.0
C1017 C 0.522 0.91227 0.37004 0.0
C1018 C 0.51483 0.88519 0.34297 0.0
C1019 C 0.64131 0.53519 0.31161 0.0
C1020 C 0.67309 0.56746 0.3463 0.0
C1021 C 0.61135 0.52379 0.35627 0.0
C1022 C 0.61184 0.54592 0.42159 0.0
H1023 H 0.64213 0.52146 0.27555 0.0
H1024 H 0.59308 0.50367 0.34375 0.0
S1025 S 0.67685 0.62449 0.48483 0.0
N1026 N 0.69248 0.61787 0.42684 0.0
N1027 N 0.64392 0.59853 0.48892 0.0
C1028 C 0.64116 0.5805 0.44162 0.0
C1029 C 0.67153 0.59353 0.40079 0.0
C1030 C 0.12031 0.65982 0.47727 0.0
C1031 C 0.13182 0.65362 0.42649 0.0
C1032 C 0.10695 0.64009 0.52098 0.0
C1033 C 0.10451 0.61339 0.51516 0.0
H1034 H 0.11977 0.67917 0.48053 0.0
H1035 H 0.09633 0.64488 0.55591 0.0
S1036 S 0.1366 0.58942 0.39849 0.0
N1037 N 0.14406 0.6209 0.37932 0.0
N1038 N 0.11901 0.58395 0.4606 0.0
C1039 C 0.11882 0.6084 0.46882 0.0
C1040 C 0.13236 0.62842 0.42456 0.0
loop_
_geom_bond_atom_site_label_1
_geom_bond_atom_site_label_2
_geom_bond_distance
_geom_bond_site_symmetry_2
_ccdc_geom_bond_type
C0 C1 1.560 . S
C0 H61 0.959 . S
C0 H62 0.959 . S
C0 H63 0.960 . S
C1 C0 1.560 . S
C1 O56 1.426 . S
C1 H60 0.980 . S
C2 C3 1.407 . S
C2 C7 1.418 . S
C2 O56 1.334 . S
C3 C2 1.407 . S
C3 C4 1.360 . S
C3 H64 0.929 . S
C4 C3 1.360 . S
C4 C5 1.401 . S
C4 C8 1.527 . S
C5 C4 1.401 . S
C5 C6 1.405 . S
C5 C38 1.587 . S
C6 C5 1.405 . S
C6 C7 1.332 . S
C6 C9 1.496 . S
C7 C2 1.418 . S
C7 C6 1.332 . S
C7 H65 0.929 . S
C8 C4 1.527 . S
C8 H66 0.959 . S
C8 H67 0.961 . S
C8 H68 0.961 . S
C9 C6 1.496 . S
C9 H69 0.960 . S
C9 H70 0.960 . S
C9 H71 0.961 . S
C10 C11 1.517 . S
C10 H73 0.961 . S
C10 H74 0.960 . S
C10 H75 0.959 . S
C11 C10 1.517 . S
C11 O59 1.468 . S
C11 H72 0.980 . S
C12 C13 1.349 . S
C12 C17 1.367 . S
C12 O59 1.408 . S
C13 C12 1.349 . S
C13 C14 1.407 . S
C13 H76 0.930 . S
C14 C13 1.407 . S
C14 C15 1.449 . S
C14 C18 1.535 . S
C15 C14 1.449 . S
C15 C16 1.384 . S
C15 C40 1.553 . S
C16 C15 1.384 . S
C16 C17 1.364 . S
C16 C19 1.450 . S
C17 C12 1.367 . S
C17 C16 1.364 . S
C17 H77 0.931 . S
C18 C14 1.535 . S
C18 H78 0.959 . S
C18 H79 0.961 . S
C18 H80 0.959 . S
C19 C16 1.450 . S
C19 H81 0.960 . S
C19 H82 0.960 . S
C19 H83 0.960 . S
C20 C21 1.309 . S
C20 C25 1.304 . S
C20 O58 1.435 . S
C21 C20 1.309 . S
C21 C22 1.476 1_556 S
C21 H85 0.930 . S
C22 C21 1.476 1_554 S
C22 C23 1.400 . S
C22 C26 1.567 . S
C23 C22 1.400 . S
C23 C24 1.373 . S
C23 C45 1.432 . S
C24 C23 1.373 . S
C24 C25 1.339 1_554 S
C24 C27 1.530 . S
C25 C20 1.304 . S
C25 C24 1.339 1_556 S
C25 H86 0.930 . S
C26 C22 1.567 . S
C26 H87 0.961 . S
C26 H88 0.960 . S
C26 H89 0.958 . S
C27 C24 1.530 . S
C27 H90 0.961 . S
C27 H91 0.960 . S
C27 H92 0.960 . S
C28 C29 1.530 . S
C28 H94 0.961 . S
C28 H95 0.961 . S
C28 H96 0.959 . S
C29 C28 1.530 . S
C29 O57 1.412 . S
C29 H93 0.980 . S
C30 C31 1.288 . S
C30 C35 1.377 . S
C30 O57 1.393 . S
C31 C30 1.288 . S
C31 C32 1.369 1_556 S
C31 H97 0.932 . S
C32 C31 1.369 1_554 S
C32 C33 1.398 . S
C32 C36 1.527 . S
C33 C32 1.398 . S
C33 C34 1.380 . S
C33 C47 1.497 . S
C34 C33 1.380 . S
C34 C35 1.383 1_554 S
C34 C37 1.603 . S
C35 C30 1.377 . S
C35 C34 1.383 1_556 S
C35 H98 0.929 . S
C36 C32 1.527 . S
C36 H99 0.961 . S
C36 H100 0.959 . S
C36 H101 0.959 . S
C37 C34 1.603 . S
C37 H102 0.960 1_554 S
C37 H103 0.962 . S
C37 H104 0.961 . S
C38 C5 1.587 . S
C38 C39 1.360 . S
C38 C51 1.412 . S
C39 C38 1.360 . S
C39 C40 1.365 . S
C39 H105 0.929 . S
C40 C15 1.553 . S
C40 C39 1.365 . S
C40 C41 1.404 . S
C41 C40 1.404 . S
C41 C42 1.395 . S
C41 C52 1.451 . S
C42 C41 1.395 . S
C42 C43 1.322 . S
C42 H106 0.930 . S
C43 C42 1.322 . S
C43 C44 1.459 . S
C43 H107 0.929 . S
C44 C43 1.459 . S
C44 C45 1.445 . S
C44 C53 1.395 . S
C45 C23 1.432 . S
C45 C44 1.445 . S
C45 C46 1.370 . S
C46 C45 1.370 . S
C46 C47 1.438 . S
C46 H108 0.930 . S
C47 C33 1.497 . S
C47 C46 1.438 . S
C47 C48 1.360 . S
C48 C47 1.360 . S
C48 C49 1.401 . S
C48 C53 1.446 . S
C49 C48 1.401 . S
C49 C50 1.347 . S
C49 H109 0.929 . S
C50 C49 1.347 . S
C50 C51 1.455 . S
C50 H110 0.930 . S
C51 C38 1.412 . S
C51 C50 1.455 . S
C51 C52 1.331 . S
C52 C41 1.451 . S
C52 C51 1.331 . S
C52 C53 1.497 . S
C53 C44 1.395 . S
C53 C48 1.446 . S
C53 C52 1.497 . S
C54 C55 1.582 . S
C54 H111 0.962 . S
C54 H112 0.959 . S
C54 H113 0.958 . S
C55 C54 1.582 . S
C55 O58 1.458 . S
C55 H84 0.980 . S
O56 C1 1.426 . S
O56 C2 1.334 . S
O57 C29 1.412 . S
O57 C30 1.393 . S
O58 C20 1.435 . S
O58 C55 1.458 . S
O59 C11 1.468 . S
O59 C12 1.408 . S
H60 C1 0.980 . S
H61 C0 0.959 . S
H62 C0 0.959 . S
H63 C0 0.960 . S
H64 C3 0.929 . S
H65 C7 0.929 . S
H66 C8 0.959 . S
H67 C8 0.961 . S
H68 C8 0.961 . S
H69 C9 0.960 . S
H70 C9 0.960 . S
H71 C9 0.961 . S
H72 C11 0.980 . S
H73 C10 0.961 . S
H74 C10 0.960 . S
H75 C10 0.959 . S
H76 C13 0.930 . S
H77 C17 0.931 . S
H78 C18 0.959 . S
H79 C18 0.961 . S
H80 C18 0.959 . S
H81 C19 0.960 . S
H82 C19 0.960 . S
H83 C19 0.960 . S
H84 C55 0.980 . S
H85 C21 0.930 . S
H86 C25 0.930 . S
H87 C26 0.961 . S
H88 C26 0.960 . S
H89 C26 0.958 . S
H90 C27 0.961 . S
H91 C27 0.960 . S
H92 C27 0.960 . S
H93 C29 0.980 . S
H94 C28 0.961 . S
H95 C28 0.961 . S
H96 C28 0.959 . S
H97 C31 0.932 . S
H98 C35 0.929 . S
H99 C36 0.961 . S
H100 C36 0.959 . S
H101 C36 0.959 . S
H102 C37 0.960 1_556 S
H103 C37 0.962 . S
H104 C37 0.961 . S
H105 C39 0.929 . S
H106 C42 0.930 . S
H107 C43 0.929 . S
H108 C46 0.930 . S
H109 C49 0.929 . S
H110 C50 0.930 . S
H111 C54 0.962 . S
H112 C54 0.959 . S
H113 C54 0.958 . S
C114 C115 1.560 . S
C114 H175 0.959 . S
C114 H176 0.959 . S
C114 H177 0.960 . S
C115 C114 1.560 . S
C115 O170 1.426 . S
C115 H174 0.980 . S
C116 C117 1.407 . S
C116 C121 1.418 . S
C116 O170 1.334 . S
C117 C116 1.407 . S
C117 C118 1.360 . S
C117 H178 0.929 . S
C118 C117 1.360 . S
C118 C119 1.401 . S
C118 C122 1.527 . S
C119 C118 1.401 . S
C119 C120 1.405 . S
C119 C152 1.587 . S
C120 C119 1.405 . S
C120 C121 1.332 . S
C120 C123 1.496 . S
C121 C116 1.418 . S
C121 C120 1.332 . S
C121 H179 0.929 . S
C122 C118 1.527 . S
C122 H180 0.959 . S
C122 H181 0.961 . S
C122 H182 0.961 . S
C123 C120 1.496 . S
C123 H183 0.960 . S
C123 H184 0.960 . S
C123 H185 0.961 . S
C124 C125 1.517 . S
C124 H187 0.961 . S
C124 H188 0.960 . S
C124 H189 0.959 . S
C125 C124 1.517 . S
C125 O173 1.468 . S
C125 H186 0.980 . S
C126 C127 1.349 . S
C126 C131 1.367 . S
C126 O173 1.408 . S
C127 C126 1.349 . S
C127 C128 1.407 . S
C127 H190 0.930 . S
C128 C127 1.407 . S
C128 C129 1.449 . S
C128 C132 1.535 . S
C129 C128 1.449 . S
C129 C130 1.384 . S
C129 C154 1.553 . S
C130 C129 1.384 . S
C130 C131 1.364 . S
C130 C133 1.450 . S
C131 C126 1.367 . S
C131 C130 1.364 . S
C131 H191 0.931 . S
C132 C128 1.535 . S
C132 H192 0.959 . S
C132 H193 0.961 . S
C132 H194 0.959 . S
C133 C130 1.450 . S
C133 H195 0.960 . S
C133 H196 0.960 . S
C133 H197 0.960 . S
C134 C135 1.309 . S
C134 C139 1.304 . S
C134 O172 1.435 . S
C135 C134 1.309 . S
C135 C136 1.476 . S
C135 H199 0.930 . S
C136 C135 1.476 . S
C136 C137 1.400 . S
C136 C140 1.567 . S
C137 C136 1.400 . S
C137 C138 1.373 . S
C137 C159 1.432 . S
C138 C137 1.373 . S
C138 C139 1.339 . S
C138 C141 1.530 . S
C139 C134 1.304 . S
C139 C138 1.339 . S
C139 H200 0.930 . S
C140 C136 1.567 . S
C140 H201 0.955 1_556 S
C140 H202 0.960 . S
C140 H203 0.958 . S
C141 C138 1.530 . S
C141 H204 0.961 . S
C141 H205 0.960 . S
C141 H206 0.960 . S
C142 C143 1.530 . S
C142 H208 0.961 . S
C142 H209 0.961 . S
C142 H210 0.959 . S
C143 C142 1.530 . S
C143 O171 1.412 . S
C143 H207 0.980 . S
C144 C145 1.288 . S
C144 C149 1.377 . S
C144 O171 1.393 . S
C145 C144 1.288 . S
C145 C146 1.369 . S
C145 H211 0.932 . S
C146 C145 1.369 . S
C146 C147 1.398 . S
C146 C150 1.527 . S
C147 C146 1.398 . S
C147 C148 1.380 . S
C147 C161 1.497 . S
C148 C147 1.380 . S
C148 C149 1.383 . S
C148 C151 1.603 . S
C149 C144 1.377 . S
C149 C148 1.383 . S
C149 H212 0.929 . S
C150 C146 1.527 . S
C150 H213 0.961 . S
C150 H214 0.959 . S
C150 H215 0.959 . S
C151 C148 1.603 . S
C151 H216 0.960 . S
C151 H217 0.962 . S
C151 H218 0.961 . S
C152 C119 1.587 . S
C152 C153 1.360 . S
C152 C165 1.412 . S
C153 C152 1.360 . S
C153 C154 1.365 . S
C153 H219 0.929 . S
C154 C129 1.553 . S
C154 C153 1.365 . S
C154 C155 1.404 . S
C155 C154 1.404 . S
C155 C156 1.395 . S
C155 C166 1.451 . S
C156 C155 1.395 . S
C156 C157 1.322 . S
C156 H220 0.930 . S
C157 C156 1.322 . S
C157 C158 1.459 . S
C157 H221 0.929 . S
C158 C157 1.459 . S
C158 C159 1.445 1_554 S
C158 C167 1.395 . S
C159 C137 1.432 . S
C159 C158 1.445 1_556 S
C159 C160 1.370 . S
C160 C159 1.370 . S
C160 C161 1.438 . S
C160 H222 0.930 . S
C161 C147 1.497 . S
C161 C160 1.438 . S
C161 C162 1.360 1_556 S
C162 C161 1.360 1_554 S
C162 C163 1.401 . S
C162 C167 1.446 . S
C163 C162 1.401 . S
C163 C164 1.347 . S
C163 H223 0.929 . S
C164 C163 1.347 . S
C164 C165 1.455 . S
C164 H224 0.930 . S
C165 C152 1.412 . S
C165 C164 1.455 . S
C165 C166 1.331 . S
C166 C155 1.451 . S
C166 C165 1.331 . S
C166 C167 1.497 . S
C167 C158 1.395 . S
C167 C162 1.446 . S
C167 C166 1.497 . S
C168 C169 1.582 . S
C168 H225 0.962 . S
C168 H226 0.959 . S
C168 H227 0.958 . S
C169 C168 1.582 . S
C169 O172 1.458 . S
C169 H198 0.980 . S
O170 C115 1.426 . S
O170 C116 1.334 . S
O171 C143 1.412 . S
O171 C144 1.393 . S
O172 C134 1.435 . S
O172 C169 1.458 . S
O173 C125 1.468 . S
O173 C126 1.408 . S
H174 C115 0.980 . S
H175 C114 0.959 . S
H176 C114 0.959 . S
H177 C114 0.960 . S
H178 C117 0.929 . S
H179 C121 0.929 . S
H180 C122 0.959 . S
H181 C122 0.961 . S
H182 C122 0.961 . S
H183 C123 0.960 . S
H184 C123 0.960 . S
H185 C123 0.961 . S
H186 C125 0.980 . S
H187 C124 0.961 . S
H188 C124 0.960 . S
H189 C124 0.959 . S
H190 C127 0.930 . S
H191 C131 0.931 . S
H192 C132 0.959 . S
H193 C132 0.961 . S
H194 C132 0.959 . S
H195 C133 0.960 . S
H196 C133 0.960 . S
H197 C133 0.960 . S
H198 C169 0.980 . S
H199 C135 0.930 . S
H200 C139 0.930 . S
H201 C140 0.955 1_554 S
H202 C140 0.960 . S
H203 C140 0.958 . S
H204 C141 0.961 . S
H205 C141 0.960 . S
H206 C141 0.960 . S
H207 C143 0.980 . S
H208 C142 0.961 . S
H209 C142 0.961 . S
H210 C142 0.959 . S
H211 C145 0.932 . S
H212 C149 0.929 . S
H213 C150 0.961 . S
H214 C150 0.959 . S
H215 C150 0.959 . S
H216 C151 0.960 . S
H217 C151 0.962 . S
H218 C151 0.961 . S
H219 C153 0.929 . S
H220 C156 0.930 . S
H221 C157 0.929 . S
H222 C160 0.930 . S
H223 C163 0.929 . S
H224 C164 0.930 . S
H225 C168 0.962 . S
H226 C168 0.959 . S
H227 C168 0.958 . S
C228 C229 1.560 . S
C228 H289 0.959 . S
C228 H290 0.959 . S
C228 H291 0.960 . S
C229 C228 1.560 . S
C229 O284 1.426 . S
C229 H288 0.980 . S
C230 C231 1.407 . S
C230 C235 1.418 . S
C230 O284 1.334 . S
C231 C230 1.407 . S
C231 C232 1.360 . S
C231 H292 0.929 . S
C232 C231 1.360 . S
C232 C233 1.401 . S
C232 C236 1.527 . S
C233 C232 1.401 . S
C233 C234 1.405 . S
C233 C266 1.587 . S
C234 C233 1.405 . S
C234 C235 1.332 . S
C234 C237 1.496 . S
C235 C230 1.418 . S
C235 C234 1.332 . S
C235 H293 0.929 . S
C236 C232 1.527 . S
C236 H294 0.959 . S
C236 H295 0.961 . S
C236 H296 0.961 . S
C237 C234 1.496 . S
C237 H297 0.960 . S
C237 H298 0.960 . S
C237 H299 0.961 . S
C238 C239 1.517 . S
C238 H301 0.961 . S
C238 H302 0.960 . S
C238 H303 0.959 . S
C239 C238 1.517 . S
C239 O287 1.468 . S
C239 H300 0.980 . S
C240 C241 1.349 . S
C240 C245 1.367 . S
C240 O287 1.408 . S
C241 C240 1.349 . S
C241 C242 1.407 . S
C241 H304 0.930 . S
C242 C241 1.407 . S
C242 C243 1.449 . S
C242 C246 1.535 . S
C243 C242 1.449 . S
C243 C244 1.384 . S
C243 C268 1.553 . S
C244 C243 1.384 . S
C244 C245 1.364 . S
C244 C247 1.450 . S
C245 C240 1.367 . S
C245 C244 1.364 . S
C245 H305 0.931 . S
C246 C242 1.535 . S
C246 H306 0.959 . S
C246 H307 0.961 . S
C246 H308 0.959 . S
C247 C244 1.450 . S
C247 H309 0.960 . S
C247 H310 0.960 . S
C247 H311 0.960 . S
C248 C249 1.309 . S
C248 C253 1.304 . S
C248 O286 1.435 . S
C249 C248 1.309 . S
C249 C250 1.476 . S
C249 H313 0.930 . S
C250 C249 1.476 . S
C250 C251 1.400 . S
C250 C254 1.567 . S
C251 C250 1.400 . S
C251 C252 1.373 . S
C251 C273 1.432 . S
C252 C251 1.373 . S
C252 C253 1.339 . S
C252 C255 1.530 . S
C253 C248 1.304 . S
C253 C252 1.339 . S
C253 H314 0.930 . S
C254 C250 1.567 . S
C254 H315 0.961 . S
C254 H316 0.960 . S
C254 H317 0.958 . S
C255 C252 1.530 . S
C255 H318 0.961 . S
C255 H319 0.960 . S
C255 H320 0.960 . S
C256 C257 1.530 . S
C256 H322 0.961 . S
C256 H323 0.961 . S
C256 H324 0.959 . S
C257 C256 1.530 . S
C257 O285 1.412 . S
C257 H321 0.980 . S
C258 C259 1.288 . S
C258 C263 1.377 . S
C258 O285 1.393 . S
C259 C258 1.288 . S
C259 C260 1.369 . S
C259 H325 0.932 . S
C260 C259 1.369 . S
C260 C261 1.398 . S
C260 C264 1.527 . S
C261 C260 1.398 . S
C261 C262 1.380 . S
C261 C275 1.497 . S
C262 C261 1.380 . S
C262 C263 1.383 . S
C262 C265 1.603 . S
C263 C258 1.377 . S
C263 C262 1.383 . S
C263 H326 0.929 . S
C264 C260 1.527 . S
C264 H327 0.961 . S
C264 H328 0.959 . S
C264 H329 0.959 . S
C265 C262 1.603 . S
C265 H330 0.960 . S
C265 H331 0.962 . S
C265 H332 0.961 . S
C266 C233 1.587 . S
C266 C267 1.360 . S
C266 C279 1.412 . S
C267 C266 1.360 . S
C267 C268 1.365 . S
C267 H333 0.929 . S
C268 C243 1.553 . S
C268 C267 1.365 . S
C268 C269 1.404 . S
C269 C268 1.404 . S
C269 C270 1.395 . S
C269 C280 1.451 . S
C270 C269 1.395 . S
C270 C271 1.322 . S
C270 H334 0.930 . S
C271 C270 1.322 . S
C271 C272 1.459 1_554 S
C271 H335 0.929 . S
C272 C271 1.459 1_556 S
C272 C273 1.445 . S
C272 C281 1.395 1_556 S
C273 C251 1.432 . S
C273 C272 1.445 . S
C273 C274 1.370 . S
C274 C273 1.370 . S
C274 C275 1.438 . S
C274 H336 0.930 . S
C275 C261 1.497 . S
C275 C274 1.438 . S
C275 C276 1.360 . S
C276 C275 1.360 . S
C276 C277 1.401 1_556 S
C276 C281 1.446 1_556 S
C277 C276 1.401 1_554 S
C277 C278 1.347 . S
C277 H337 0.924 1_554 S
C278 C277 1.347 . S
C278 C279 1.455 . S
C278 H338 0.930 . S
C279 C266 1.412 . S
C279 C278 1.455 . S
C279 C280 1.331 . S
C280 C269 1.451 . S
C280 C279 1.331 . S
C280 C281 1.497 . S
C281 C272 1.395 1_554 S
C281 C276 1.446 1_554 S
C281 C280 1.497 . S
C282 C283 1.582 . S
C282 H339 0.962 . S
C282 H340 0.959 . S
C282 H341 0.958 . S
C283 C282 1.582 . S
C283 O286 1.458 . S
C283 H312 0.980 . S
O284 C229 1.426 . S
O284 C230 1.334 . S
O285 C257 1.412 . S
O285 C258 1.393 . S
O286 C248 1.435 . S
O286 C283 1.458 . S
O287 C239 1.468 . S
O287 C240 1.408 . S
H288 C229 0.980 . S
H289 C228 0.959 . S
H290 C228 0.959 . S
H291 C228 0.960 . S
H292 C231 0.929 . S
H293 C235 0.929 . S
H294 C236 0.959 . S
H295 C236 0.961 . S
H296 C236 0.961 . S
H297 C237 0.960 . S
H298 C237 0.960 . S
H299 C237 0.961 . S
H300 C239 0.980 . S
H301 C238 0.961 . S
H302 C238 0.960 . S
H303 C238 0.959 . S
H304 C241 0.930 . S
H305 C245 0.931 . S
H306 C246 0.959 . S
H307 C246 0.961 . S
H308 C246 0.959 . S
H309 C247 0.960 . S
H310 C247 0.960 . S
H311 C247 0.960 . S
H312 C283 0.980 . S
H313 C249 0.930 . S
H314 C253 0.930 . S
H315 C254 0.961 . S
H316 C254 0.960 . S
H317 C254 0.958 . S
H318 C255 0.961 . S
H319 C255 0.960 . S
H320 C255 0.960 . S
H321 C257 0.980 . S
H322 C256 0.961 . S
H323 C256 0.961 . S
H324 C256 0.959 . S
H325 C259 0.932 . S
H326 C263 0.929 . S
H327 C264 0.961 . S
H328 C264 0.959 . S
H329 C264 0.959 . S
H330 C265 0.960 . S
H331 C265 0.962 . S
H332 C265 0.961 . S
H333 C267 0.929 . S
H334 C270 0.930 . S
H335 C271 0.929 . S
H336 C274 0.930 . S
H337 C277 0.924 1_556 S
H338 C278 0.930 . S
H339 C282 0.962 . S
H340 C282 0.959 . S
H341 C282 0.958 . S
C342 C343 1.560 . S
C342 H403 0.959 . S
C342 H404 0.959 . S
C342 H405 0.960 . S
C343 C342 1.560 . S
C343 O398 1.426 . S
C343 H402 0.980 . S
C344 C345 1.407 . S
C344 C349 1.418 . S
C344 O398 1.334 . S
C345 C344 1.407 . S
C345 C346 1.360 . S
C345 H406 0.929 . S
C346 C345 1.360 . S
C346 C347 1.401 . S
C346 C350 1.527 . S
C347 C346 1.401 . S
C347 C348 1.405 . S
C347 C380 1.587 . S
C348 C347 1.405 . S
C348 C349 1.332 . S
C348 C351 1.496 . S
C349 C344 1.418 . S
C349 C348 1.332 . S
C349 H407 0.929 . S
C350 C346 1.527 . S
C350 H408 0.959 . S
C350 H409 0.961 . S
C350 H410 0.961 . S
C351 C348 1.496 . S
C351 H411 0.960 . S
C351 H412 0.960 . S
C351 H413 0.961 . S
C352 C353 1.517 . S
C352 H415 0.961 . S
C352 H416 0.960 . S
C352 H417 0.959 . S
C353 C352 1.517 . S
C353 O401 1.468 . S
C353 H414 0.980 . S
C354 C355 1.349 . S
C354 C359 1.367 . S
C354 O401 1.408 . S
C355 C354 1.349 . S
C355 C356 1.407 . S
C355 H418 0.930 . S
C356 C355 1.407 . S
C356 C357 1.449 . S
C356 C360 1.535 . S
C357 C356 1.449 . S
C357 C358 1.384 . S
C357 C382 1.553 . S
C358 C357 1.384 . S
C358 C359 1.364 . S
C358 C361 1.450 . S
C359 C354 1.367 . S
C359 C358 1.364 . S
C359 H419 0.931 . S
C360 C356 1.535 . S
C360 H420 0.959 . S
C360 H421 0.961 . S
C360 H422 0.959 . S
C361 C358 1.450 . S
C361 H423 0.960 . S
C361 H424 0.960 . S
C361 H425 0.960 . S
C362 C363 1.309 . S
C362 C367 1.304 . S
C362 O400 1.435 . S
C363 C362 1.309 . S
C363 C364 1.476 . S
C363 H427 0.930 . S
C364 C363 1.476 . S
C364 C365 1.400 . S
C364 C368 1.567 . S
C365 C364 1.400 . S
C365 C366 1.373 . S
C365 C387 1.432 . S
C366 C365 1.373 . S
C366 C367 1.339 . S
C366 C369 1.530 . S
C367 C362 1.304 . S
C367 C366 1.339 . S
C367 H428 0.930 . S
C368 C364 1.567 . S
C368 H429 0.961 . S
C368 H430 0.960 . S
C368 H431 0.958 . S
C369 C366 1.530 . S
C369 H432 0.961 . S
C369 H433 0.960 . S
C369 H434 0.960 . S
C370 C371 1.530 . S
C370 H436 0.961 . S
C370 H437 0.961 . S
C370 H438 0.959 . S
C371 C370 1.530 . S
C371 O399 1.412 . S
C371 H435 0.980 . S
C372 C373 1.288 . S
C372 C377 1.377 . S
C372 O399 1.393 . S
C373 C372 1.288 . S
C373 C374 1.369 . S
C373 H439 0.932 . S
C374 C373 1.369 . S
C374 C375 1.398 . S
C374 C378 1.527 . S
C375 C374 1.398 . S
C375 C376 1.380 . S
C375 C389 1.497 . S
C376 C375 1.380 . S
C376 C377 1.383 . S
C376 C379 1.603 . S
C377 C372 1.377 . S
C377 C376 1.383 . S
C377 H440 0.929 . S
C378 C374 1.527 . S
C378 H441 0.961 . S
C378 H442 0.959 . S
C378 H443 0.959 . S
C379 C376 1.603 . S
C379 H444 0.960 . S
C379 H445 0.962 . S
C379 H446 0.961 . S
C380 C347 1.587 . S
C380 C381 1.360 . S
C380 C393 1.412 . S
C381 C380 1.360 . S
C381 C382 1.365 . S
C381 H447 0.929 . S
C382 C357 1.553 . S
C382 C381 1.365 . S
C382 C383 1.404 . S
C383 C382 1.404 . S
C383 C384 1.395 . S
C383 C394 1.451 . S
C384 C383 1.395 . S
C384 C385 1.322 . S
C384 H448 0.930 . S
C385 C384 1.322 . S
C385 C386 1.459 1_554 S
C385 H449 0.929 1_554 S
C386 C385 1.459 1_556 S
C386 C387 1.445 . S
C386 C395 1.395 1_556 S
C387 C365 1.432 . S
C387 C386 1.445 . S
C387 C388 1.370 . S
C388 C387 1.370 . S
C388 C389 1.438 . S
C388 H450 0.930 . S
C389 C375 1.497 . S
C389 C388 1.438 . S
C389 C390 1.360 . S
C390 C389 1.360 . S
C390 C391 1.401 1_556 S
C390 C395 1.446 1_556 S
C391 C390 1.401 1_554 S
C391 C392 1.347 . S
C391 H451 0.929 1_554 S
C392 C391 1.347 . S
C392 C393 1.455 . S
C392 H452 0.930 . S
C393 C380 1.412 . S
C393 C392 1.455 . S
C393 C394 1.331 . S
C394 C383 1.451 . S
C394 C393 1.331 . S
C394 C395 1.497 . S
C395 C386 1.395 1_554 S
C395 C390 1.446 1_554 S
C395 C394 1.497 . S
C396 C397 1.582 . S
C396 H453 0.962 . S
C396 H454 0.959 . S
C396 H455 0.958 . S
C397 C396 1.582 . S
C397 O400 1.458 . S
C397 H426 0.980 . S
O398 C343 1.426 . S
O398 C344 1.334 . S
O399 C371 1.412 . S
O399 C372 1.393 . S
O400 C362 1.435 . S
O400 C397 1.458 . S
O401 C353 1.468 . S
O401 C354 1.408 . S
H402 C343 0.980 . S
H403 C342 0.959 . S
H404 C342 0.959 . S
H405 C342 0.960 . S
H406 C345 0.929 . S
H407 C349 0.929 . S
H408 C350 0.959 . S
H409 C350 0.961 . S
H410 C350 0.961 . S
H411 C351 0.960 . S
H412 C351 0.960 . S
H413 C351 0.961 . S
H414 C353 0.980 . S
H415 C352 0.961 . S
H416 C352 0.960 . S
H417 C352 0.959 . S
H418 C355 0.930 . S
H419 C359 0.931 . S
H420 C360 0.959 . S
H421 C360 0.961 . S
H422 C360 0.959 . S
H423 C361 0.960 . S
H424 C361 0.960 . S
H425 C361 0.960 . S
H426 C397 0.980 . S
H427 C363 0.930 . S
H428 C367 0.930 . S
H429 C368 0.961 . S
H430 C368 0.960 . S
H431 C368 0.958 . S
H432 C369 0.961 . S
H433 C369 0.960 . S
H434 C369 0.960 . S
H435 C371 0.980 . S
H436 C370 0.961 . S
H437 C370 0.961 . S
H438 C370 0.959 . S
H439 C373 0.932 . S
H440 C377 0.929 . S
H441 C378 0.961 . S
H442 C378 0.959 . S
H443 C378 0.959 . S
H444 C379 0.960 . S
H445 C379 0.962 . S
H446 C379 0.961 . S
H447 C381 0.929 . S
H448 C384 0.930 . S
H449 C385 0.929 1_556 S
H450 C388 0.930 . S
H451 C391 0.929 1_556 S
H452 C392 0.930 . S
H453 C396 0.962 . S
H454 C396 0.959 . S
H455 C396 0.958 . S
C456 C457 1.560 . S
C456 H517 0.959 . S
C456 H518 0.959 . S
C456 H519 0.960 . S
C457 C456 1.560 . S
C457 O512 1.426 . S
C457 H516 0.980 . S
C458 C459 1.407 . S
C458 C463 1.418 . S
C458 O512 1.334 . S
C459 C458 1.407 . S
C459 C460 1.360 . S
C459 H520 0.929 . S
C460 C459 1.360 . S
C460 C461 1.401 . S
C460 C464 1.527 . S
C461 C460 1.401 . S
C461 C462 1.405 . S
C461 C494 1.587 . S
C462 C461 1.405 . S
C462 C463 1.332 . S
C462 C465 1.496 . S
C463 C458 1.418 . S
C463 C462 1.332 . S
C463 H521 0.929 . S
C464 C460 1.527 . S
C464 H522 0.959 . S
C464 H523 0.961 . S
C464 H524 0.961 . S
C465 C462 1.496 . S
C465 H525 0.960 . S
C465 H526 0.960 . S
C465 H527 0.961 1_556 S
C466 C467 1.517 . S
C466 H529 0.961 . S
C466 H530 0.960 . S
C466 H531 0.959 . S
C467 C466 1.517 . S
C467 O515 1.468 . S
C467 H528 0.980 . S
C468 C469 1.349 . S
C468 C473 1.367 . S
C468 O515 1.408 . S
C469 C468 1.349 . S
C469 C470 1.407 . S
C469 H532 0.930 . S
C470 C469 1.407 . S
C470 C471 1.449 . S
C470 C474 1.535 . S
C471 C470 1.449 . S
C471 C472 1.384 . S
C471 C496 1.553 . S
C472 C471 1.384 . S
C472 C473 1.364 . S
C472 C475 1.450 . S
C473 C468 1.367 . S
C473 C472 1.364 . S
C473 H533 0.931 . S
C474 C470 1.535 . S
C474 H534 0.959 . S
C474 H535 0.961 . S
C474 H536 0.959 . S
C475 C472 1.450 . S
C475 H537 0.960 . S
C475 H538 0.960 . S
C475 H539 0.960 1_556 S
C476 C477 1.309 . S
C476 C481 1.304 . S
C476 O514 1.435 . S
C477 C476 1.309 . S
C477 C478 1.476 . S
C477 H541 0.930 . S
C478 C477 1.476 . S
C478 C479 1.400 . S
C478 C482 1.567 . S
C479 C478 1.400 . S
C479 C480 1.373 . S
C479 C501 1.432 . S
C480 C479 1.373 . S
C480 C481 1.339 . S
C480 C483 1.530 . S
C481 C476 1.304 . S
C481 C480 1.339 . S
C481 H542 0.930 . S
C482 C478 1.567 . S
C482 H543 0.961 . S
C482 H544 0.960 . S
C482 H545 0.958 . S
C483 C480 1.530 . S
C483 H546 0.961 . S
C483 H547 0.960 . S
C483 H548 0.960 . S
C484 C485 1.530 . S
C484 H550 0.961 . S
C484 H551 0.961 . S
C484 H552 0.959 . S
C485 C484 1.530 . S
C485 O513 1.412 . S
C485 H549 0.980 . S
C486 C487 1.288 . S
C486 C491 1.377 . S
C486 O513 1.393 . S
C487 C486 1.288 . S
C487 C488 1.369 . S
C487 H553 0.932 . S
C488 C487 1.369 . S
C488 C489 1.398 . S
C488 C492 1.527 . S
C489 C488 1.398 . S
C489 C490 1.380 . S
C489 C503 1.497 . S
C490 C489 1.380 . S
C490 C491 1.383 . S
C490 C493 1.603 . S
C491 C486 1.377 . S
C491 C490 1.383 . S
C491 H554 0.929 . S
C492 C488 1.527 . S
C492 H555 0.961 . S
C492 H556 0.959 . S
C492 H557 0.959 . S
C493 C490 1.603 . S
C493 H558 0.960 . S
C493 H559 0.962 . S
C493 H560 0.961 . S
C494 C461 1.587 . S
C494 C495 1.360 . S
C494 C507 1.412 1_556 S
C495 C494 1.360 . S
C495 C496 1.365 . S
C495 H561 0.929 . S
C496 C471 1.553 . S
C496 C495 1.365 . S
C496 C497 1.404 1_556 S
C497 C496 1.404 1_554 S
C497 C498 1.395 . S
C497 C508 1.451 . S
C498 C497 1.395 . S
C498 C499 1.322 . S
C498 H562 0.930 . S
C499 C498 1.322 . S
C499 C500 1.459 . S
C499 H563 0.929 . S
C500 C499 1.459 . S
C500 C501 1.445 . S
C500 C509 1.395 . S
C501 C479 1.432 . S
C501 C500 1.445 . S
C501 C502 1.370 . S
C502 C501 1.370 . S
C502 C503 1.438 . S
C502 H564 0.930 . S
C503 C489 1.497 . S
C503 C502 1.438 . S
C503 C504 1.360 . S
C504 C503 1.360 . S
C504 C505 1.401 . S
C504 C509 1.446 . S
C505 C504 1.401 . S
C505 C506 1.347 . S
C505 H565 0.929 . S
C506 C505 1.347 . S
C506 C507 1.455 . S
C506 H566 0.930 . S
C507 C494 1.412 1_554 S
C507 C506 1.455 . S
C507 C508 1.331 . S
C508 C497 1.451 . S
C508 C507 1.331 . S
C508 C509 1.497 . S
C509 C500 1.395 . S
C509 C504 1.446 . S
C509 C508 1.497 . S
C510 C511 1.582 . S
C510 H567 0.962 . S
C510 H568 0.959 . S
C510 H569 0.958 . S
C511 C510 1.582 . S
C511 O514 1.458 . S
C511 H540 0.980 . S
O512 C457 1.426 . S
O512 C458 1.334 . S
O513 C485 1.412 . S
O513 C486 1.393 . S
O514 C476 1.435 . S
O514 C511 1.458 . S
O515 C467 1.468 . S
O515 C468 1.408 . S
H516 C457 0.980 . S
H517 C456 0.959 . S
H518 C456 0.959 . S
H519 C456 0.960 . S
H520 C459 0.929 . S
H521 C463 0.929 . S
H522 C464 0.959 . S
H523 C464 0.961 . S
H524 C464 0.961 . S
H525 C465 0.960 . S
H526 C465 0.960 . S
H527 C465 0.961 1_554 S
H528 C467 0.980 . S
H529 C466 0.961 . S
H530 C466 0.960 . S
H531 C466 0.959 . S
H532 C469 0.930 . S
H533 C473 0.931 . S
H534 C474 0.959 . S
H535 C474 0.961 . S
H536 C474 0.959 . S
H537 C475 0.960 . S
H538 C475 0.960 . S
H539 C475 0.960 1_554 S
H540 C511 0.980 . S
H541 C477 0.930 . S
H542 C481 0.930 . S
H543 C482 0.961 . S
H544 C482 0.960 . S
H545 C482 0.958 . S
H546 C483 0.961 . S
H547 C483 0.960 . S
H548 C483 0.960 . S
H549 C485 0.980 . S
H550 C484 0.961 . S
H551 C484 0.961 . S
H552 C484 0.959 . S
H553 C487 0.932 . S
H554 C491 0.929 . S
H555 C492 0.961 . S
H556 C492 0.959 . S
H557 C492 0.959 . S
H558 C493 0.960 . S
H559 C493 0.962 . S
H560 C493 0.961 . S
H561 C495 0.929 . S
H562 C498 0.930 . S
H563 C499 0.929 . S
H564 C502 0.930 . S
H565 C505 0.929 . S
H566 C506 0.930 . S
H567 C510 0.962 . S
H568 C510 0.959 . S
H569 C510 0.958 . S
C570 C571 1.560 . S
C570 H631 0.959 . S
C570 H632 0.959 . S
C570 H633 0.960 . S
C571 C570 1.560 . S
C571 O626 1.426 . S
C571 H630 0.980 . S
C572 C573 1.407 . S
C572 C577 1.418 . S
C572 O626 1.334 . S
C573 C572 1.407 . S
C573 C574 1.360 . S
C573 H634 0.929 . S
C574 C573 1.360 . S
C574 C575 1.401 . S
C574 C578 1.527 . S
C575 C574 1.401 . S
C575 C576 1.405 . S
C575 C608 1.587 . S
C576 C575 1.405 . S
C576 C577 1.332 . S
C576 C579 1.496 . S
C577 C572 1.418 . S
C577 C576 1.332 . S
C577 H635 0.929 . S
C578 C574 1.527 . S
C578 H636 0.959 . S
C578 H637 0.961 . S
C578 H638 0.961 . S
C579 C576 1.496 . S
C579 H639 0.960 . S
C579 H640 0.960 . S
C579 H641 0.961 . S
C580 C581 1.517 . S
C580 H643 0.961 . S
C580 H644 0.960 . S
C580 H645 0.959 . S
C581 C580 1.517 . S
C581 O629 1.468 . S
C581 H642 0.980 . S
C582 C583 1.349 . S
C582 C587 1.367 . S
C582 O629 1.408 . S
C583 C582 1.349 . S
C583 C584 1.407 . S
C583 H646 0.930 . S
C584 C583 1.407 . S
C584 C585 1.449 . S
C584 C588 1.535 . S
C585 C584 1.449 . S
C585 C586 1.384 . S
C585 C610 1.553 . S
C586 C585 1.384 . S
C586 C587 1.364 . S
C586 C589 1.450 . S
C587 C582 1.367 . S
C587 C586 1.364 . S
C587 H647 0.931 . S
C588 C584 1.535 . S
C588 H648 0.959 . S
C588 H649 0.961 . S
C588 H650 0.959 . S
C589 C586 1.450 . S
C589 H651 0.960 . S
C589 H652 0.960 . S
C589 H653 0.960 . S
C590 C591 1.309 . S
C590 C595 1.304 . S
C590 O628 1.435 . S
C591 C590 1.309 . S
C591 C592 1.476 1_556 S
C591 H655 0.930 . S
C592 C591 1.476 1_554 S
C592 C593 1.400 . S
C592 C596 1.567 . S
C593 C592 1.400 . S
C593 C594 1.373 . S
C593 C615 1.432 . S
C594 C593 1.373 . S
C594 C595 1.339 1_554 S
C594 C597 1.530 . S
C595 C590 1.304 . S
C595 C594 1.339 1_556 S
C595 H656 0.930 . S
C596 C592 1.567 . S
C596 H657 0.961 . S
C596 H658 0.960 . S
C596 H659 0.958 . S
C597 C594 1.530 . S
C597 H660 0.961 . S
C597 H661 0.960 . S
C597 H662 0.960 . S
C598 C599 1.530 . S
C598 H664 0.961 . S
C598 H665 0.961 . S
C598 H666 0.959 . S
C599 C598 1.530 . S
C599 O627 1.412 . S
C599 H663 0.980 . S
C600 C601 1.288 . S
C600 C605 1.377 . S
C600 O627 1.393 . S
C601 C600 1.288 . S
C601 C602 1.369 1_556 S
C601 H667 0.932 . S
C602 C601 1.369 1_554 S
C602 C603 1.398 . S
C602 C606 1.527 . S
C603 C602 1.398 . S
C603 C604 1.380 . S
C603 C617 1.497 . S
C604 C603 1.380 . S
C604 C605 1.383 1_554 S
C604 C607 1.603 . S
C605 C600 1.377 . S
C605 C604 1.383 1_556 S
C605 H668 0.929 . S
C606 C602 1.527 . S
C606 H669 0.961 . S
C606 H670 0.959 1_554 S
C606 H671 0.959 . S
C607 C604 1.603 . S
C607 H672 0.960 1_554 S
C607 H673 0.962 . S
C607 H674 0.961 . S
C608 C575 1.587 . S
C608 C609 1.360 . S
C608 C621 1.412 . S
C609 C608 1.360 . S
C609 C610 1.365 . S
C609 H675 0.929 . S
C610 C585 1.553 . S
C610 C609 1.365 . S
C610 C611 1.404 . S
C611 C610 1.404 . S
C611 C612 1.395 . S
C611 C622 1.451 . S
C612 C611 1.395 . S
C612 C613 1.322 . S
C612 H676 0.930 . S
C613 C612 1.322 . S
C613 C614 1.459 . S
C613 H677 0.929 . S
C614 C613 1.459 . S
C614 C615 1.445 . S
C614 C623 1.395 . S
C615 C593 1.432 . S
C615 C614 1.445 . S
C615 C616 1.370 . S
C616 C615 1.370 . S
C616 C617 1.438 . S
C616 H678 0.930 1_554 S
C617 C603 1.497 . S
C617 C616 1.438 . S
C617 C618 1.360 . S
C618 C617 1.360 . S
C618 C619 1.401 . S
C618 C623 1.446 . S
C619 C618 1.401 . S
C619 C620 1.347 . S
C619 H679 0.929 . S
C620 C619 1.347 . S
C620 C621 1.455 . S
C620 H680 0.930 . S
C621 C608 1.412 . S
C621 C620 1.455 . S
C621 C622 1.331 . S
C622 C611 1.451 . S
C622 C621 1.331 . S
C622 C623 1.497 . S
C623 C614 1.395 . S
C623 C618 1.446 . S
C623 C622 1.497 . S
C624 C625 1.582 . S
C624 H681 0.962 . S
C624 H682 0.959 . S
C624 H683 0.958 . S
C625 C624 1.582 . S
C625 O628 1.458 . S
C625 H654 0.980 . S
O626 C571 1.426 . S
O626 C572 1.334 . S
O627 C599 1.412 . S
O627 C600 1.393 . S
O628 C590 1.435 . S
O628 C625 1.458 . S
O629 C581 1.468 . S
O629 C582 1.408 . S
H630 C571 0.980 . S
H631 C570 0.959 . S
H632 C570 0.959 . S
H633 C570 0.960 . S
H634 C573 0.929 . S
H635 C577 0.929 . S
H636 C578 0.959 . S
H637 C578 0.961 . S
H638 C578 0.961 . S
H639 C579 0.960 . S
H640 C579 0.960 . S
H641 C579 0.961 . S
H642 C581 0.980 . S
H643 C580 0.961 . S
H644 C580 0.960 . S
H645 C580 0.959 . S
H646 C583 0.930 . S
H647 C587 0.931 . S
H648 C588 0.959 . S
H649 C588 0.961 . S
H650 C588 0.959 . S
H651 C589 0.960 . S
H652 C589 0.960 . S
H653 C589 0.960 . S
H654 C625 0.980 . S
H655 C591 0.930 . S
H656 C595 0.930 . S
H657 C596 0.961 . S
H658 C596 0.960 . S
H659 C596 0.958 . S
H660 C597 0.961 . S
H661 C597 0.960 . S
H662 C597 0.960 . S
H663 C599 0.980 . S
H664 C598 0.961 . S
H665 C598 0.961 . S
H666 C598 0.959 . S
H667 C601 0.932 . S
H668 C605 0.929 . S
H669 C606 0.961 . S
H670 C606 0.959 1_556 S
H671 C606 0.959 . S
H672 C607 0.960 1_556 S
H673 C607 0.962 . S
H674 C607 0.961 . S
H675 C609 0.929 . S
H676 C612 0.930 . S
H677 C613 0.929 . S
H678 C616 0.930 1_556 S
H679 C619 0.929 . S
H680 C620 0.930 . S
H681 C624 0.962 . S
H682 C624 0.959 . S
H683 C624 0.958 . S
C684 O711 1.312 . S
C684 O712 1.208 . S
C685 O706 1.331 . S
C685 O709 1.244 . S
C686 O708 1.264 . S
C686 O710 1.273 . S
Mg687 O689 1.936 . S
Mg687 O696 2.081 1_455 S
Mg687 O698 2.023 . S
Mg687 O702 2.031 1_455 S
Mg687 O711 2.291 . S
Mg688 O689 1.963 . S
Mg688 O699 1.942 1_455 S
Mg688 O700 1.955 . S
Mg688 O707 1.986 1_455 S
O689 Mg687 1.936 . S
O689 Mg688 1.963 . S
O689 Mg690 1.915 . S
Mg690 O689 1.915 . S
Mg690 O691 1.915 . S
Mg690 O695 2.013 . S
Mg690 O701 2.114 1_455 S
Mg690 O705 2.013 1_455 S
Mg690 O711 2.114 . S
O691 Mg690 1.915 . S
O691 Mg692 1.936 . S
O691 Mg693 1.963 . S
Mg692 O691 1.936 . S
Mg692 O701 2.291 1_455 S
Mg692 O706 2.081 . S
Mg692 O708 2.023 1_455 S
Mg692 O712 2.031 . S
Mg693 O691 1.963 . S
Mg693 O697 1.986 . S
Mg693 O709 1.942 . S
Mg693 O710 1.955 1_455 S
C694 O705 1.191 . S
C694 O707 1.307 . S
O695 Mg690 2.013 . S
O695 C714 1.191 . S
O696 Mg687 2.081 1_655 S
O696 C704 1.331 . S
O697 Mg693 1.986 . S
O697 C714 1.307 . S
O698 Mg687 2.023 . S
O698 C713 1.264 . S
O699 Mg688 1.942 1_655 S
O699 C704 1.244 . S
O700 Mg688 1.955 . S
O700 C713 1.273 . S
O701 Mg690 2.114 1_655 S
O701 Mg692 2.291 1_655 S
O701 C703 1.312 . S
O702 Mg687 2.031 1_655 S
O702 C703 1.208 . S
C703 O701 1.312 . S
C703 O702 1.208 . S
C704 O696 1.331 . S
C704 O699 1.244 . S
O705 Mg690 2.013 1_655 S
O705 C694 1.191 . S
O706 C685 1.331 . S
O706 Mg692 2.081 . S
O707 Mg688 1.986 1_655 S
O707 C694 1.307 . S
O708 C686 1.264 . S
O708 Mg692 2.023 1_655 S
O709 C685 1.244 . S
O709 Mg693 1.942 . S
O710 C686 1.273 . S
O710 Mg693 1.955 1_655 S
O711 C684 1.312 . S
O711 Mg687 2.291 . S
O711 Mg690 2.114 . S
O712 C684 1.208 . S
O712 Mg692 2.031 . S
C713 O698 1.264 . S
C713 O700 1.273 . S
C714 O695 1.191 . S
C714 O697 1.307 . S
C715 O742 1.312 . S
C715 O743 1.208 . S
C716 O737 1.331 . S
C716 O740 1.244 . S
C717 O739 1.264 . S
C717 O741 1.273 . S
Mg718 O720 1.936 1_545 S
Mg718 O727 2.081 1_545 S
Mg718 O729 2.023 . S
Mg718 O733 2.031 1_545 S
Mg718 O742 2.291 . S
Mg719 O720 1.963 . S
Mg719 O730 1.942 . S
Mg719 O731 1.955 1_565 S
Mg719 O738 1.986 . S
O720 Mg718 1.936 1_565 S
O720 Mg719 1.963 . S
O720 Mg721 1.915 1_565 S
Mg721 O720 1.915 1_545 S
Mg721 O722 1.915 . S
Mg721 O726 2.013 . S
Mg721 O732 2.114 1_545 S
Mg721 O736 2.013 1_545 S
Mg721 O742 2.114 . S
O722 Mg721 1.915 . S
O722 Mg723 1.936 . S
O722 Mg724 1.963 . S
Mg723 O722 1.936 . S
Mg723 O732 2.291 1_545 S
Mg723 O737 2.081 . S
Mg723 O739 2.023 1_545 S
Mg723 O743 2.031 . S
Mg724 O722 1.963 . S
Mg724 O728 1.986 . S
Mg724 O740 1.942 . S
Mg724 O741 1.955 1_545 S
C725 O736 1.191 . S
C725 O738 1.307 . S
O726 Mg721 2.013 . S
O726 C745 1.191 . S
O727 Mg718 2.081 1_565 S
O727 C735 1.331 . S
O728 Mg724 1.986 . S
O728 C745 1.307 . S
O729 Mg718 2.023 . S
O729 C744 1.264 . S
O730 Mg719 1.942 . S
O730 C735 1.244 . S
O731 Mg719 1.955 1_545 S
O731 C744 1.273 . S
O732 Mg721 2.114 1_565 S
O732 Mg723 2.291 1_565 S
O732 C734 1.312 . S
O733 Mg718 2.031 1_565 S
O733 C734 1.208 . S
C734 O732 1.312 . S
C734 O733 1.208 . S
C735 O727 1.331 . S
C735 O730 1.244 . S
O736 Mg721 2.013 1_565 S
O736 C725 1.191 . S
O737 C716 1.331 . S
O737 Mg723 2.081 . S
O738 Mg719 1.986 . S
O738 C725 1.307 . S
O739 C717 1.264 . S
O739 Mg723 2.023 1_565 S
O740 C716 1.244 . S
O740 Mg724 1.942 . S
O741 C717 1.273 . S
O741 Mg724 1.955 1_565 S
O742 C715 1.312 . S
O742 Mg718 2.291 . S
O742 Mg721 2.114 . S
O743 C715 1.208 . S
O743 Mg723 2.031 . S
C744 O729 1.264 . S
C744 O731 1.273 . S
C745 O726 1.191 . S
C745 O728 1.307 . S
C746 O773 1.312 . S
C746 O774 1.208 . S
C747 O768 1.331 . S
C747 O771 1.244 . S
C748 O770 1.264 . S
C748 O772 1.273 . S
Mg749 O751 1.936 . S
Mg749 O758 2.081 . S
Mg749 O760 2.023 . S
Mg749 O764 2.031 . S
Mg749 O773 2.291 . S
Mg750 O751 1.963 . S
Mg750 O761 1.942 . S
Mg750 O762 1.955 . S
Mg750 O769 1.986 . S
O751 Mg749 1.936 . S
O751 Mg750 1.963 . S
O751 Mg752 1.915 . S
Mg752 O751 1.915 . S
Mg752 O753 1.915 . S
Mg752 O757 2.013 . S
Mg752 O763 2.114 . S
Mg752 O767 2.013 . S
Mg752 O773 2.114 . S
O753 Mg752 1.915 . S
O753 Mg754 1.936 . S
O753 Mg755 1.963 . S
Mg754 O753 1.936 . S
Mg754 O763 2.291 . S
Mg754 O768 2.081 . S
Mg754 O770 2.023 . S
Mg754 O774 2.031 . S
Mg755 O753 1.963 . S
Mg755 O759 1.986 . S
Mg755 O771 1.942 . S
Mg755 O772 1.955 . S
C756 O767 1.191 . S
C756 O769 1.307 . S
O757 Mg752 2.013 . S
O757 C776 1.191 . S
O758 Mg749 2.081 . S
O758 C766 1.331 . S
O759 Mg755 1.986 . S
O759 C776 1.307 . S
O760 Mg749 2.023 . S
O760 C775 1.264 . S
O761 Mg750 1.942 . S
O761 C766 1.244 . S
O762 Mg750 1.955 . S
O762 C775 1.273 . S
O763 Mg752 2.114 . S
O763 Mg754 2.291 . S
O763 C765 1.312 . S
O764 Mg749 2.031 . S
O764 C765 1.208 . S
C765 O763 1.312 . S
C765 O764 1.208 . S
C766 O758 1.331 . S
C766 O761 1.244 . S
O767 Mg752 2.013 . S
O767 C756 1.191 . S
O768 C747 1.331 . S
O768 Mg754 2.081 . S
O769 Mg750 1.986 . S
O769 C756 1.307 . S
O770 C748 1.264 . S
O770 Mg754 2.023 . S
O771 C747 1.244 . S
O771 Mg755 1.942 . S
O772 C748 1.273 . S
O772 Mg755 1.955 . S
O773 C746 1.312 . S
O773 Mg749 2.291 . S
O773 Mg752 2.114 . S
O774 C746 1.208 . S
O774 Mg754 2.031 . S
C775 O760 1.264 . S
C775 O762 1.273 . S
C776 O757 1.191 . S
C776 O759 1.307 . S
C777 C778 1.369 . S
C777 C779 1.419 . S
C777 H781 0.930 . S
C778 C777 1.369 . S
C778 C787 1.429 . S
C779 C777 1.419 . S
C779 C780 1.363 . S
C779 H782 0.929 . S
C780 C779 1.363 . S
C780 C786 1.428 . S
H781 C777 0.930 . S
H782 C779 0.929 . S
S783 N784 1.613 . S
S783 N785 1.610 . S
N784 S783 1.613 . S
N784 C787 1.350 . S
N785 S783 1.610 . S
N785 C786 1.351 . S
C786 C780 1.428 . S
C786 N785 1.351 . S
C786 C787 1.434 . S
C787 C778 1.429 . S
C787 N784 1.350 . S
C787 C786 1.434 . S
C788 C789 1.369 . S
C788 C790 1.419 . S
C788 H792 0.930 . S
C789 C788 1.369 . S
C789 C798 1.429 . S
C790 C788 1.419 . S
C790 C791 1.363 . S
C790 H793 0.929 . S
C791 C790 1.363 . S
C791 C797 1.428 . S
H792 C788 0.930 . S
H793 C790 0.929 . S
S794 N795 1.613 . S
S794 N796 1.610 . S
N795 S794 1.613 . S
N795 C798 1.350 . S
N796 S794 1.610 . S
N796 C797 1.351 . S
C797 C791 1.428 . S
C797 N796 1.351 . S
C797 C798 1.434 . S
C798 C789 1.429 . S
C798 N795 1.350 . S
C798 C797 1.434 . S
C799 C800 1.369 . S
C799 C801 1.419 . S
C799 H803 0.930 . S
C800 C799 1.369 . S
C800 C809 1.429 . S
C801 C799 1.419 . S
C801 C802 1.363 . S
C801 H804 0.929 . S
C802 C801 1.363 . S
C802 C808 1.428 . S
H803 C799 0.930 . S
H804 C801 0.929 . S
S805 N806 1.613 . S
S805 N807 1.610 . S
N806 S805 1.613 . S
N806 C809 1.350 . S
N807 S805 1.610 . S
N807 C808 1.351 . S
C808 C802 1.428 . S
C808 N807 1.351 . S
C808 C809 1.434 . S
C809 C800 1.429 . S
C809 N806 1.350 . S
C809 C808 1.434 . S
C810 C811 1.369 . S
C810 C812 1.419 . S
C810 H814 0.930 . S
C811 C810 1.369 . S
C811 C820 1.429 . S
C812 C810 1.419 . S
C812 C813 1.363 . S
C812 H815 0.929 . S
C813 C812 1.363 . S
C813 C819 1.428 . S
H814 C810 0.930 . S
H815 C812 0.929 . S
S816 N817 1.613 . S
S816 N818 1.610 . S
N817 S816 1.613 . S
N817 C820 1.350 . S
N818 S816 1.610 . S
N818 C819 1.351 . S
C819 C813 1.428 . S
C819 N818 1.351 . S
C819 C820 1.434 . S
C820 C811 1.429 . S
C820 N817 1.350 . S
C820 C819 1.434 . S
C821 C822 1.369 . S
C821 C823 1.419 . S
C821 H825 0.930 . S
C822 C821 1.369 . S
C822 C831 1.429 . S
C823 C821 1.419 . S
C823 C824 1.363 . S
C823 H826 0.929 . S
C824 C823 1.363 . S
C824 C830 1.428 . S
H825 C821 0.930 . S
H826 C823 0.929 . S
S827 N828 1.613 . S
S827 N829 1.610 . S
N828 S827 1.613 . S
N828 C831 1.350 . S
N829 S827 1.610 . S
N829 C830 1.351 . S
C830 C824 1.428 . S
C830 N829 1.351 . S
C830 C831 1.434 . S
C831 C822 1.429 . S
C831 N828 1.350 . S
C831 C830 1.434 . S
C832 C833 1.369 . S
C832 C834 1.419 . S
C832 H836 0.930 . S
C833 C832 1.369 . S
C833 C842 1.429 . S
C834 C832 1.419 . S
C834 C835 1.363 . S
C834 H837 0.929 . S
C835 C834 1.363 . S
C835 C841 1.428 . S
H836 C832 0.930 . S
H837 C834 0.929 . S
S838 N839 1.613 . S
S838 N840 1.610 . S
N839 S838 1.613 . S
N839 C842 1.350 . S
N840 S838 1.610 . S
N840 C841 1.351 . S
C841 C835 1.428 . S
C841 N840 1.351 . S
C841 C842 1.434 . S
C842 C833 1.429 . S
C842 N839 1.350 . S
C842 C841 1.434 . S
C843 C844 1.369 . S
C843 C845 1.419 . S
C843 H847 0.930 . S
C844 C843 1.369 . S
C844 C853 1.429 . S
C845 C843 1.419 . S
C845 C846 1.363 . S
C845 H848 0.929 . S
C846 C845 1.363 . S
C846 C852 1.428 . S
H847 C843 0.930 . S
H848 C845 0.929 . S
S849 N850 1.613 . S
S849 N851 1.610 . S
N850 S849 1.613 . S
N850 C853 1.350 . S
N851 S849 1.610 . S
N851 C852 1.351 . S
C852 C846 1.428 . S
C852 N851 1.351 . S
C852 C853 1.434 . S
C853 C844 1.429 . S
C853 N850 1.350 . S
C853 C852 1.434 . S
C854 C855 1.369 . S
C854 C856 1.419 . S
C854 H858 0.930 . S
C855 C854 1.369 . S
C855 C864 1.429 . S
C856 C854 1.419 . S
C856 C857 1.363 . S
C856 H859 0.929 . S
C857 C856 1.363 . S
C857 C863 1.428 . S
H858 C854 0.930 . S
H859 C856 0.929 . S
S860 N861 1.613 . S
S860 N862 1.610 . S
N861 S860 1.613 . S
N861 C864 1.350 . S
N862 S860 1.610 . S
N862 C863 1.351 . S
C863 C857 1.428 . S
C863 N862 1.351 . S
C863 C864 1.434 . S
C864 C855 1.429 . S
C864 N861 1.350 . S
C864 C863 1.434 . S
C865 C866 1.369 . S
C865 C867 1.419 . S
C865 H869 0.930 . S
C866 C865 1.369 . S
C866 C875 1.429 . S
C867 C865 1.419 . S
C867 C868 1.363 . S
C867 H870 0.929 . S
C868 C867 1.363 . S
C868 C874 1.428 . S
H869 C865 0.930 . S
H870 C867 0.929 . S
S871 N872 1.613 . S
S871 N873 1.610 . S
N872 S871 1.613 . S
N872 C875 1.350 . S
N873 S871 1.610 . S
N873 C874 1.351 . S
C874 C868 1.428 . S
C874 N873 1.351 . S
C874 C875 1.434 . S
C875 C866 1.429 . S
C875 N872 1.350 . S
C875 C874 1.434 . S
C876 C877 1.369 . S
C876 C878 1.419 . S
C876 H880 0.930 . S
C877 C876 1.369 . S
C877 C886 1.429 . S
C878 C876 1.419 . S
C878 C879 1.363 . S
C878 H881 0.929 . S
C879 C878 1.363 . S
C879 C885 1.428 . S
H880 C876 0.930 . S
H881 C878 0.929 . S
S882 N883 1.613 . S
S882 N884 1.610 . S
N883 S882 1.613 . S
N883 C886 1.350 . S
N884 S882 1.610 . S
N884 C885 1.351 . S
C885 C879 1.428 . S
C885 N884 1.351 . S
C885 C886 1.434 . S
C886 C877 1.429 . S
C886 N883 1.350 . S
C886 C885 1.434 . S
C887 C888 1.369 . S
C887 C889 1.419 . S
C887 H891 0.930 . S
C888 C887 1.369 . S
C888 C897 1.429 . S
C889 C887 1.419 . S
C889 C890 1.363 . S
C889 H892 0.929 . S
C890 C889 1.363 . S
C890 C896 1.428 . S
H891 C887 0.930 . S
H892 C889 0.929 . S
S893 N894 1.613 . S
S893 N895 1.610 . S
N894 S893 1.613 . S
N894 C897 1.350 . S
N895 S893 1.610 . S
N895 C896 1.351 . S
C896 C890 1.428 . S
C896 N895 1.351 . S
C896 C897 1.434 . S
C897 C888 1.429 . S
C897 N894 1.350 . S
C897 C896 1.434 . S
C898 C899 1.369 . S
C898 C900 1.419 . S
C898 H902 0.930 . S
C899 C898 1.369 . S
C899 C908 1.429 . S
C900 C898 1.419 . S
C900 C901 1.363 . S
C900 H903 0.929 . S
C901 C900 1.363 . S
C901 C907 1.428 . S
H902 C898 0.930 . S
H903 C900 0.929 . S
S904 N905 1.613 . S
S904 N906 1.610 . S
N905 S904 1.613 . S
N905 C908 1.350 . S
N906 S904 1.610 . S
N906 C907 1.351 . S
C907 C901 1.428 . S
C907 N906 1.351 . S
C907 C908 1.434 . S
C908 C899 1.429 . S
C908 N905 1.350 . S
C908 C907 1.434 . S
C909 C910 1.369 . S
C909 C911 1.419 . S
C909 H913 0.930 . S
C910 C909 1.369 . S
C910 C919 1.429 . S
C911 C909 1.419 . S
C911 C912 1.363 . S
C911 H914 0.929 . S
C912 C911 1.363 . S
C912 C918 1.428 . S
H913 C909 0.930 . S
H914 C911 0.929 . S
S915 N916 1.613 . S
S915 N917 1.610 . S
N916 S915 1.613 . S
N916 C919 1.350 . S
N917 S915 1.610 . S
N917 C918 1.351 . S
C918 C912 1.428 . S
C918 N917 1.351 . S
C918 C919 1.434 . S
C919 C910 1.429 . S
C919 N916 1.350 . S
C919 C918 1.434 . S
C920 C921 1.369 . S
C920 C922 1.419 . S
C920 H924 0.930 . S
C921 C920 1.369 . S
C921 C930 1.429 . S
C922 C920 1.419 . S
C922 C923 1.363 . S
C922 H925 0.929 . S
C923 C922 1.363 . S
C923 C929 1.428 . S
H924 C920 0.930 . S
H925 C922 0.929 . S
S926 N927 1.613 . S
S926 N928 1.610 . S
N927 S926 1.613 . S
N927 C930 1.350 . S
N928 S926 1.610 . S
N928 C929 1.351 . S
C929 C923 1.428 . S
C929 N928 1.351 . S
C929 C930 1.434 . S
C930 C921 1.429 . S
C930 N927 1.350 . S
C930 C929 1.434 . S
C931 C932 1.369 . S
C931 C933 1.419 . S
C931 H935 0.930 . S
C932 C931 1.369 . S
C932 C941 1.429 . S
C933 C931 1.419 . S
C933 C934 1.363 . S
C933 H936 0.929 . S
C934 C933 1.363 . S
C934 C940 1.428 . S
H935 C931 0.930 . S
H936 C933 0.929 . S
S937 N938 1.613 . S
S937 N939 1.610 . S
N938 S937 1.613 . S
N938 C941 1.350 . S
N939 S937 1.610 . S
N939 C940 1.351 . S
C940 C934 1.428 . S
C940 N939 1.351 . S
C940 C941 1.434 . S
C941 C932 1.429 . S
C941 N938 1.350 . S
C941 C940 1.434 . S
C942 C943 1.369 . S
C942 C944 1.419 . S
C942 H946 0.930 . S
C943 C942 1.369 . S
C943 C952 1.429 . S
C944 C942 1.419 . S
C944 C945 1.363 . S
C944 H947 0.929 . S
C945 C944 1.363 . S
C945 C951 1.428 . S
H946 C942 0.930 . S
H947 C944 0.929 . S
S948 N949 1.613 . S
S948 N950 1.610 . S
N949 S948 1.613 . S
N949 C952 1.350 . S
N950 S948 1.610 . S
N950 C951 1.351 . S
C951 C945 1.428 . S
C951 N950 1.351 . S
C951 C952 1.434 . S
C952 C943 1.429 . S
C952 N949 1.350 . S
C952 C951 1.434 . S
C953 C954 1.369 . S
C953 C955 1.419 . S
C953 H957 0.930 . S
C954 C953 1.369 . S
C954 C963 1.429 . S
C955 C953 1.419 . S
C955 C956 1.363 . S
C955 H958 0.929 . S
C956 C955 1.363 . S
C956 C962 1.428 . S
H957 C953 0.930 . S
H958 C955 0.929 . S
S959 N960 1.613 . S
S959 N961 1.610 . S
N960 S959 1.613 . S
N960 C963 1.350 . S
N961 S959 1.610 . S
N961 C962 1.351 . S
C962 C956 1.428 . S
C962 N961 1.351 . S
C962 C963 1.434 . S
C963 C954 1.429 . S
C963 N960 1.350 . S
C963 C962 1.434 . S
C964 C965 1.369 . S
C964 C966 1.419 . S
C964 H968 0.930 . S
C965 C964 1.369 . S
C965 C974 1.429 . S
C966 C964 1.419 . S
C966 C967 1.363 . S
C966 H969 0.929 . S
C967 C966 1.363 . S
C967 C973 1.428 . S
H968 C964 0.930 . S
H969 C966 0.929 . S
S970 N971 1.613 . S
S970 N972 1.610 . S
N971 S970 1.613 . S
N971 C974 1.350 . S
N972 S970 1.610 . S
N972 C973 1.351 . S
C973 C967 1.428 . S
C973 N972 1.351 . S
C973 C974 1.434 . S
C974 C965 1.429 . S
C974 N971 1.350 . S
C974 C973 1.434 . S
C975 C976 1.369 . S
C975 C977 1.419 . S
C975 H979 0.930 . S
C976 C975 1.369 . S
C976 C985 1.429 . S
C977 C975 1.419 . S
C977 C978 1.363 . S
C977 H980 0.929 . S
C978 C977 1.363 . S
C978 C984 1.428 . S
H979 C975 0.930 . S
H980 C977 0.929 . S
S981 N982 1.613 . S
S981 N983 1.610 . S
N982 S981 1.613 . S
N982 C985 1.350 . S
N983 S981 1.610 . S
N983 C984 1.351 . S
C984 C978 1.428 . S
C984 N983 1.351 . S
C984 C985 1.434 . S
C985 C976 1.429 . S
C985 N982 1.350 . S
C985 C984 1.434 . S
C986 C987 1.369 . S
C986 C988 1.419 . S
C986 H990 0.930 . S
C987 C986 1.369 . S
C987 C996 1.429 . S
C988 C986 1.419 . S
C988 C989 1.363 . S
C988 H991 0.929 . S
C989 C988 1.363 . S
C989 C995 1.428 . S
H990 C986 0.930 . S
H991 C988 0.929 . S
S992 N993 1.613 . S
S992 N994 1.610 . S
N993 S992 1.613 . S
N993 C996 1.350 . S
N994 S992 1.610 . S
N994 C995 1.351 . S
C995 C989 1.428 . S
C995 N994 1.351 . S
C995 C996 1.434 . S
C996 C987 1.429 . S
C996 N993 1.350 . S
C996 C995 1.434 . S
C997 C998 1.369 . S
C997 C999 1.419 . S
C997 H1001 0.930 . S
C998 C997 1.369 . S
C998 C1007 1.429 . S
C999 C997 1.419 . S
C999 C1000 1.363 . S
C999 H1002 0.929 . S
C1000 C999 1.363 . S
C1000 C1006 1.428 . S
H1001 C997 0.930 . S
H1002 C999 0.929 . S
S1003 N1004 1.613 . S
S1003 N1005 1.610 . S
N1004 S1003 1.613 . S
N1004 C1007 1.350 . S
N1005 S1003 1.610 . S
N1005 C1006 1.351 . S
C1006 C1000 1.428 . S
C1006 N1005 1.351 . S
C1006 C1007 1.434 . S
C1007 C998 1.429 . S
C1007 N1004 1.350 . S
C1007 C1006 1.434 . S
C1008 C1009 1.369 . S
C1008 C1010 1.419 . S
C1008 H1012 0.930 . S
C1009 C1008 1.369 . S
C1009 C1018 1.429 . S
C1010 C1008 1.419 . S
C1010 C1011 1.363 . S
C1010 H1013 0.929 . S
C1011 C1010 1.363 . S
C1011 C1017 1.428 . S
H1012 C1008 0.930 . S
H1013 C1010 0.929 . S
S1014 N1015 1.613 . S
S1014 N1016 1.610 . S
N1015 S1014 1.613 . S
N1015 C1018 1.350 . S
N1016 S1014 1.610 . S
N1016 C1017 1.351 . S
C1017 C1011 1.428 . S
C1017 N1016 1.351 . S
C1017 C1018 1.434 . S
C1018 C1009 1.429 . S
C1018 N1015 1.350 . S
C1018 C1017 1.434 . S
C1019 C1020 1.369 . S
C1019 C1021 1.419 . S
C1019 H1023 0.930 . S
C1020 C1019 1.369 . S
C1020 C1029 1.429 . S
C1021 C1019 1.419 . S
C1021 C1022 1.363 . S
C1021 H1024 0.929 . S
C1022 C1021 1.363 . S
C1022 C1028 1.428 . S
H1023 C1019 0.930 . S
H1024 C1021 0.929 . S
S1025 N1026 1.613 . S
S1025 N1027 1.610 . S
N1026 S1025 1.613 . S
N1026 C1029 1.350 . S
N1027 S1025 1.610 . S
N1027 C1028 1.351 . S
C1028 C1022 1.428 . S
C1028 N1027 1.351 . S
C1028 C1029 1.434 . S
C1029 C1020 1.429 . S
C1029 N1026 1.350 . S
C1029 C1028 1.434 . S
C1030 C1031 1.369 . S
C1030 C1032 1.419 . S
C1030 H1034 0.930 . S
C1031 C1030 1.369 . S
C1031 C1040 1.429 . S
C1032 C1030 1.419 . S
C1032 C1033 1.363 . S
C1032 H1035 0.929 . S
C1033 C1032 1.363 . S
C1033 C1039 1.428 . S
H1034 C1030 0.930 . S
H1035 C1032 0.929 . S
S1036 N1037 1.613 . S
S1036 N1038 1.610 . S
N1037 S1036 1.613 . S
N1037 C1040 1.350 . S
N1038 S1036 1.610 . S
N1038 C1039 1.351 . S
C1039 C1033 1.428 . S
C1039 N1038 1.351 . S
C1039 C1040 1.434 . S
C1040 C1031 1.429 . S
C1040 N1037 1.350 . S
C1040 C1039 1.434 . S
C778 C11 1.724 . S
C780 C684 1.852 . S
C789 C125 1.363 . S
C791 C716 1.628 . S
C802 C775 1.993 . S
C800 C239 1.524 . S
C813 C704 1.379 . S
C811 C343 1.290 . S
C822 C485 1.306 . S
C824 C734 1.805 . S
C835 C756 1.432 . S
C833 C571 1.413 . S
C846 C725 1.998 . S
C844 C257 1.266 . S
C855 C397 0.751 . S
C857 C765 1.483 . S
C868 C714 1.896 . S
C866 C467 1.592 . S
C877 C625 1.039 . S
C879 C744 1.604 . S
C888 C29 1.433 . S
C890 C747 1.904 . S
C901 C686 1.752 . S
C899 C143 1.147 . S
C912 C694 1.755 . S
C910 C371 1.564 . S
C923 C735 1.399 . S
C921 C457 1.097 . S
C934 C748 1.879 . S
C932 C599 1.683 . S
C945 C685 1.472 . S
C943 C55 1.275 . S
C956 C745 1.665 . S
C954 C169 1.528 . S
C965 C283 1.157 . S
C967 C746 1.355 . S
C978 C715 1.696 . S
C976 C581 1.071 . S
C989 C776 1.224 . S
C987 C1 1.084 . S
C1000 C703 1.543 . S
C998 C115 1.151 . S
C1011 C717 1.343 . S
C1009 C229 1.018 . S
C1020 C353 1.029 . S
C1022 C766 1.843 . S
C1031 C511 1.378 . S
C1033 C713 1.631 . S
