# Generated by pormake.
# Topology tbo, (3,4)-cn, num edge types: 1
# Building blocks:
#     Node 0, Type 0, BuildingBlock: BELTOD_clean_linker_0, # of connection points: 3
#     Node 1, Type 0, BuildingBlock: BELTOD_clean_linker_0, # of connection points: 3
#     Node 2, Type 0, BuildingBlock: BELTOD_clean_linker_0, # of connection points: 3
#     Node 3, Type 0, BuildingBlock: BELTOD_clean_linker_0, # of connection points: 3
#     Node 4, Type 0, BuildingBlock: BELTOD_clean_linker_0, # of connection points: 3
#     Node 5, Type 0, BuildingBlock: BELTOD_clean_linker_0, # of connection points: 3
#     Node 6, Type 0, BuildingBlock: BELTOD_clean_linker_0, # of connection points: 3
#     Node 7, Type 0, BuildingBlock: BELTOD_clean_linker_0, # of connection points: 3
#     Node 8, Type 0, BuildingBlock: BELTOD_clean_linker_0, # of connection points: 3
#     Node 9, Type 0, BuildingBlock: BELTOD_clean_linker_0, # of connection points: 3
#     Node 10, Type 0, BuildingBlock: BELTOD_clean_linker_0, # of connection points: 3
#     Node 11, Type 0, BuildingBlock: BELTOD_clean_linker_0, # of connection points: 3
#     Node 12, Type 0, BuildingBlock: BELTOD_clean_linker_0, # of connection points: 3
#     Node 13, Type 0, BuildingBlock: BELTOD_clean_linker_0, # of connection points: 3
#     Node 14, Type 0, BuildingBlock: BELTOD_clean_linker_0, # of connection points: 3
#     Node 15, Type 0, BuildingBlock: BELTOD_clean_linker_0, # of connection points: 3
#     Node 16, Type 0, BuildingBlock: BELTOD_clean_linker_0, # of connection points: 3
#     Node 17, Type 0, BuildingBlock: BELTOD_clean_linker_0, # of connection points: 3
#     Node 18, Type 0, BuildingBlock: BELTOD_clean_linker_0, # of connection points: 3
#     Node 19, Type 0, BuildingBlock: BELTOD_clean_linker_0, # of connection points: 3
#     Node 20, Type 0, BuildingBlock: BELTOD_clean_linker_0, # of connection points: 3
#     Node 21, Type 0, BuildingBlock: BELTOD_clean_linker_0, # of connection points: 3
#     Node 22, Type 0, BuildingBlock: BELTOD_clean_linker_0, # of connection points: 3
#     Node 23, Type 0, BuildingBlock: BELTOD_clean_linker_0, # of connection points: 3
#     Node 24, Type 0, BuildingBlock: BELTOD_clean_linker_0, # of connection points: 3
#     Node 25, Type 0, BuildingBlock: BELTOD_clean_linker_0, # of connection points: 3
#     Node 26, Type 0, BuildingBlock: BELTOD_clean_linker_0, # of connection points: 3
#     Node 27, Type 0, BuildingBlock: BELTOD_clean_linker_0, # of connection points: 3
#     Node 28, Type 0, BuildingBlock: BELTOD_clean_linker_0, # of connection points: 3
#     Node 29, Type 0, BuildingBlock: BELTOD_clean_linker_0, # of connection points: 3
#     Node 30, Type 0, BuildingBlock: BELTOD_clean_linker_0, # of connection points: 3
#     Node 31, Type 0, BuildingBlock: BELTOD_clean_linker_0, # of connection points: 3
#     Node 32, Type 1, BuildingBlock: ESEHIV_clean_sbu_0, # of connection points: 4
#     Node 33, Type 1, BuildingBlock: ESEHIV_clean_sbu_0, # of connection points: 4
#     Node 34, Type 1, BuildingBlock: ESEHIV_clean_sbu_0, # of connection points: 4
#     Node 35, Type 1, BuildingBlock: ESEHIV_clean_sbu_0, # of connection points: 4
#     Node 36, Type 1, BuildingBlock: ESEHIV_clean_sbu_0, # of connection points: 4
#     Node 37, Type 1, BuildingBlock: ESEHIV_clean_sbu_0, # of connection points: 4
#     Node 38, Type 1, BuildingBlock: ESEHIV_clean_sbu_0, # of connection points: 4
#     Node 39, Type 1, BuildingBlock: ESEHIV_clean_sbu_0, # of connection points: 4
#     Node 40, Type 1, BuildingBlock: ESEHIV_clean_sbu_0, # of connection points: 4
#     Node 41, Type 1, BuildingBlock: ESEHIV_clean_sbu_0, # of connection points: 4
#     Node 42, Type 1, BuildingBlock: ESEHIV_clean_sbu_0, # of connection points: 4
#     Node 43, Type 1, BuildingBlock: ESEHIV_clean_sbu_0, # of connection points: 4
#     Node 44, Type 1, BuildingBlock: ESEHIV_clean_sbu_0, # of connection points: 4
#     Node 45, Type 1, BuildingBlock: ESEHIV_clean_sbu_0, # of connection points: 4
#     Node 46, Type 1, BuildingBlock: ESEHIV_clean_sbu_0, # of connection points: 4
#     Node 47, Type 1, BuildingBlock: ESEHIV_clean_sbu_0, # of connection points: 4
#     Node 48, Type 1, BuildingBlock: ESEHIV_clean_sbu_0, # of connection points: 4
#     Node 49, Type 1, BuildingBlock: ESEHIV_clean_sbu_0, # of connection points: 4
#     Node 50, Type 1, BuildingBlock: ESEHIV_clean_sbu_0, # of connection points: 4
#     Node 51, Type 1, BuildingBlock: ESEHIV_clean_sbu_0, # of connection points: 4
#     Node 52, Type 1, BuildingBlock: ESEHIV_clean_sbu_0, # of connection points: 4
#     Node 53, Type 1, BuildingBlock: ESEHIV_clean_sbu_0, # of connection points: 4
#     Node 54, Type 1, BuildingBlock: ESEHIV_clean_sbu_0, # of connection points: 4
#     Node 55, Type 1, BuildingBlock: ESEHIV_clean_sbu_0, # of connection points: 4
#     Edge 56, Type (0, 1), BuildingBlock: OJICUG_clean_linker_0, # of connection points: 2
#     Edge 57, Type (0, 1), BuildingBlock: OJICUG_clean_linker_0, # of connection points: 2
#     Edge 58, Type (0, 1), BuildingBlock: OJICUG_clean_linker_0, # of connection points: 2
#     Edge 59, Type (0, 1), BuildingBlock: OJICUG_clean_linker_0, # of connection points: 2
#     Edge 60, Type (0, 1), BuildingBlock: OJICUG_clean_linker_0, # of connection points: 2
#     Edge 61, Type (0, 1), BuildingBlock: OJICUG_clean_linker_0, # of connection points: 2
#     Edge 62, Type (0, 1), BuildingBlock: OJICUG_clean_linker_0, # of connection points: 2
#     Edge 63, Type (0, 1), BuildingBlock: OJICUG_clean_linker_0, # of connection points: 2
#     Edge 64, Type (0, 1), BuildingBlock: OJICUG_clean_linker_0, # of connection points: 2
#     Edge 65, Type (0, 1), BuildingBlock: OJICUG_clean_linker_0, # of connection points: 2
#     Edge 66, Type (0, 1), BuildingBlock: OJICUG_clean_linker_0, # of connection points: 2
#     Edge 67, Type (0, 1), BuildingBlock: OJICUG_clean_linker_0, # of connection points: 2
#     Edge 68, Type (0, 1), BuildingBlock: OJICUG_clean_linker_0, # of connection points: 2
#     Edge 69, Type (0, 1), BuildingBlock: OJICUG_clean_linker_0, # of connection points: 2
#     Edge 70, Type (0, 1), BuildingBlock: OJICUG_clean_linker_0, # of connection points: 2
#     Edge 71, Type (0, 1), BuildingBlock: OJICUG_clean_linker_0, # of connection points: 2
#     Edge 72, Type (0, 1), BuildingBlock: OJICUG_clean_linker_0, # of connection points: 2
#     Edge 73, Type (0, 1), BuildingBlock: OJICUG_clean_linker_0, # of connection points: 2
#     Edge 74, Type (0, 1), BuildingBlock: OJICUG_clean_linker_0, # of connection points: 2
#     Edge 75, Type (0, 1), BuildingBlock: OJICUG_clean_linker_0, # of connection points: 2
#     Edge 76, Type (0, 1), BuildingBlock: OJICUG_clean_linker_0, # of connection points: 2
#     Edge 77, Type (0, 1), BuildingBlock: OJICUG_clean_linker_0, # of connection points: 2
#     Edge 78, Type (0, 1), BuildingBlock: OJICUG_clean_linker_0, # of connection points: 2
#     Edge 79, Type (0, 1), BuildingBlock: OJICUG_clean_linker_0, # of connection points: 2
#     Edge 80, Type (0, 1), BuildingBlock: OJICUG_clean_linker_0, # of connection points: 2
#     Edge 81, Type (0, 1), BuildingBlock: OJICUG_clean_linker_0, # of connection points: 2
#     Edge 82, Type (0, 1), BuildingBlock: OJICUG_clean_linker_0, # of connection points: 2
#     Edge 83, Type (0, 1), BuildingBlock: OJICUG_clean_linker_0, # of connection points: 2
#     Edge 84, Type (0, 1), BuildingBlock: OJICUG_clean_linker_0, # of connection points: 2
#     Edge 85, Type (0, 1), BuildingBlock: OJICUG_clean_linker_0, # of connection points: 2
#     Edge 86, Type (0, 1), BuildingBlock: OJICUG_clean_linker_0, # of connection points: 2
#     Edge 87, Type (0, 1), BuildingBlock: OJICUG_clean_linker_0, # of connection points: 2
#     Edge 88, Type (0, 1), BuildingBlock: OJICUG_clean_linker_0, # of connection points: 2
#     Edge 89, Type (0, 1), BuildingBlock: OJICUG_clean_linker_0, # of connection points: 2
#     Edge 90, Type (0, 1), BuildingBlock: OJICUG_clean_linker_0, # of connection points: 2
#     Edge 91, Type (0, 1), BuildingBlock: OJICUG_clean_linker_0, # of connection points: 2
#     Edge 92, Type (0, 1), BuildingBlock: OJICUG_clean_linker_0, # of connection points: 2
#     Edge 93, Type (0, 1), BuildingBlock: OJICUG_clean_linker_0, # of connection points: 2
#     Edge 94, Type (0, 1), BuildingBlock: OJICUG_clean_linker_0, # of connection points: 2
#     Edge 95, Type (0, 1), BuildingBlock: OJICUG_clean_linker_0, # of connection points: 2
#     Edge 96, Type (0, 1), BuildingBlock: OJICUG_clean_linker_0, # of connection points: 2
#     Edge 97, Type (0, 1), BuildingBlock: OJICUG_clean_linker_0, # of connection points: 2
#     Edge 98, Type (0, 1), BuildingBlock: OJICUG_clean_linker_0, # of connection points: 2
#     Edge 99, Type (0, 1), BuildingBlock: OJICUG_clean_linker_0, # of connection points: 2
#     Edge 100, Type (0, 1), BuildingBlock: OJICUG_clean_linker_0, # of connection points: 2
#     Edge 101, Type (0, 1), BuildingBlock: OJICUG_clean_linker_0, # of connection points: 2
#     Edge 102, Type (0, 1), BuildingBlock: OJICUG_clean_linker_0, # of connection points: 2
#     Edge 103, Type (0, 1), BuildingBlock: OJICUG_clean_linker_0, # of connection points: 2
#     Edge 104, Type (0, 1), BuildingBlock: OJICUG_clean_linker_0, # of connection points: 2
#     Edge 105, Type (0, 1), BuildingBlock: OJICUG_clean_linker_0, # of connection points: 2
#     Edge 106, Type (0, 1), BuildingBlock: OJICUG_clean_linker_0, # of connection points: 2
#     Edge 107, Type (0, 1), BuildingBlock: OJICUG_clean_linker_0, # of connection points: 2
#     Edge 108, Type (0, 1), BuildingBlock: OJICUG_clean_linker_0, # of connection points: 2
#     Edge 109, Type (0, 1), BuildingBlock: OJICUG_clean_linker_0, # of connection points: 2
#     Edge 110, Type (0, 1), BuildingBlock: OJICUG_clean_linker_0, # of connection points: 2
#     Edge 111, Type (0, 1), BuildingBlock: OJICUG_clean_linker_0, # of connection points: 2
#     Edge 112, Type (0, 1), BuildingBlock: OJICUG_clean_linker_0, # of connection points: 2
#     Edge 113, Type (0, 1), BuildingBlock: OJICUG_clean_linker_0, # of connection points: 2
#     Edge 114, Type (0, 1), BuildingBlock: OJICUG_clean_linker_0, # of connection points: 2
#     Edge 115, Type (0, 1), BuildingBlock: OJICUG_clean_linker_0, # of connection points: 2
#     Edge 116, Type (0, 1), BuildingBlock: OJICUG_clean_linker_0, # of connection points: 2
#     Edge 117, Type (0, 1), BuildingBlock: OJICUG_clean_linker_0, # of connection points: 2
#     Edge 118, Type (0, 1), BuildingBlock: OJICUG_clean_linker_0, # of connection points: 2
#     Edge 119, Type (0, 1), BuildingBlock: OJICUG_clean_linker_0, # of connection points: 2
#     Edge 120, Type (0, 1), BuildingBlock: OJICUG_clean_linker_0, # of connection points: 2
#     Edge 121, Type (0, 1), BuildingBlock: OJICUG_clean_linker_0, # of connection points: 2
#     Edge 122, Type (0, 1), BuildingBlock: OJICUG_clean_linker_0, # of connection points: 2
#     Edge 123, Type (0, 1), BuildingBlock: OJICUG_clean_linker_0, # of connection points: 2
#     Edge 124, Type (0, 1), BuildingBlock: OJICUG_clean_linker_0, # of connection points: 2
#     Edge 125, Type (0, 1), BuildingBlock: OJICUG_clean_linker_0, # of connection points: 2
#     Edge 126, Type (0, 1), BuildingBlock: OJICUG_clean_linker_0, # of connection points: 2
#     Edge 127, Type (0, 1), BuildingBlock: OJICUG_clean_linker_0, # of connection points: 2
#     Edge 128, Type (0, 1), BuildingBlock: OJICUG_clean_linker_0, # of connection points: 2
#     Edge 129, Type (0, 1), BuildingBlock: OJICUG_clean_linker_0, # of connection points: 2
#     Edge 130, Type (0, 1), BuildingBlock: OJICUG_clean_linker_0, # of connection points: 2
#     Edge 131, Type (0, 1), BuildingBlock: OJICUG_clean_linker_0, # of connection points: 2
#     Edge 132, Type (0, 1), BuildingBlock: OJICUG_clean_linker_0, # of connection points: 2
#     Edge 133, Type (0, 1), BuildingBlock: OJICUG_clean_linker_0, # of connection points: 2
#     Edge 134, Type (0, 1), BuildingBlock: OJICUG_clean_linker_0, # of connection points: 2
#     Edge 135, Type (0, 1), BuildingBlock: OJICUG_clean_linker_0, # of connection points: 2
#     Edge 136, Type (0, 1), BuildingBlock: OJICUG_clean_linker_0, # of connection points: 2
#     Edge 137, Type (0, 1), BuildingBlock: OJICUG_clean_linker_0, # of connection points: 2
#     Edge 138, Type (0, 1), BuildingBlock: OJICUG_clean_linker_0, # of connection points: 2
#     Edge 139, Type (0, 1), BuildingBlock: OJICUG_clean_linker_0, # of connection points: 2
#     Edge 140, Type (0, 1), BuildingBlock: OJICUG_clean_linker_0, # of connection points: 2
#     Edge 141, Type (0, 1), BuildingBlock: OJICUG_clean_linker_0, # of connection points: 2
#     Edge 142, Type (0, 1), BuildingBlock: OJICUG_clean_linker_0, # of connection points: 2
#     Edge 143, Type (0, 1), BuildingBlock: OJICUG_clean_linker_0, # of connection points: 2
#     Edge 144, Type (0, 1), BuildingBlock: OJICUG_clean_linker_0, # of connection points: 2
#     Edge 145, Type (0, 1), BuildingBlock: OJICUG_clean_linker_0, # of connection points: 2
#     Edge 146, Type (0, 1), BuildingBlock: OJICUG_clean_linker_0, # of connection points: 2
#     Edge 147, Type (0, 1), BuildingBlock: OJICUG_clean_linker_0, # of connection points: 2
#     Edge 148, Type (0, 1), BuildingBlock: OJICUG_clean_linker_0, # of connection points: 2
#     Edge 149, Type (0, 1), BuildingBlock: OJICUG_clean_linker_0, # of connection points: 2
#     Edge 150, Type (0, 1), BuildingBlock: OJICUG_clean_linker_0, # of connection points: 2
#     Edge 151, Type (0, 1), BuildingBlock: OJICUG_clean_linker_0, # of connection points: 2
# Relax obj value: 0.004
# Max RMSD: 0.126
# Mean RMSD: 0.052
data_MOF--net-tbo--node1-ESEHIV_clean_sbu_0--node2-BELTOD_clean_linker_0--edge1-OJICUG_clean_linker_0
_symmetry_space_group_name_H-M    P1
_symmetry_Int_Tables_number       1
_symmetry_cell_setting            triclinic
loop_
_symmetry_equiv_pos_as_xyz
'x, y, z'
_cell_length_a     64.32471
_cell_length_b     65.084679
_cell_length_c     63.582811
_cell_angle_alpha  90.010773
_cell_angle_beta   92.902763
_cell_angle_gamma 90.94911
loop_
_atom_site_label
_atom_site_type_symbol
_atom_site_fract_x
_atom_site_fract_y
_atom_site_fract_z
_atom_type_partial_charge
P0 P 0.20629 0.16569 0.21851 0.0
H1 H 0.17916 0.14485 0.24765 0.0
H2 H 0.14531 0.15363 0.26087 0.0
H3 H 0.14149 0.20487 0.21775 0.0
H4 H 0.17529 0.19625 0.2049 0.0
H5 H 0.24132 0.14222 0.23628 0.0
H6 H 0.24763 0.10562 0.23944 0.0
H7 H 0.19164 0.09287 0.20074 0.0
H8 H 0.18486 0.12972 0.19875 0.0
H9 H 0.22482 0.20596 0.21111 0.0
H10 H 0.19929 0.15573 0.17329 0.0
O11 O 0.22102 0.17622 0.23816 0.0
H12 H 0.23112 0.22555 0.17943 0.0
H13 H 0.20598 0.1752 0.14123 0.0
C14 C 0.17966 0.16964 0.22502 0.0
C15 C 0.1708 0.15768 0.24071 0.0
C16 C 0.15144 0.16273 0.24827 0.0
C17 C 0.14073 0.18004 0.24048 0.0
C18 C 0.14943 0.19161 0.22432 0.0
C19 C 0.16873 0.18653 0.21677 0.0
C20 C 0.21241 0.13871 0.21759 0.0
C21 C 0.23045 0.13158 0.22834 0.0
C22 C 0.23419 0.11051 0.22992 0.0
C23 C 0.22009 0.09605 0.22053 0.0
C24 C 0.20265 0.10342 0.20861 0.0
C25 C 0.1988 0.12454 0.20728 0.0
C26 C 0.21209 0.17913 0.1946 0.0
C27 C 0.2209 0.19896 0.19595 0.0
C28 C 0.22451 0.2102 0.17776 0.0
C29 C 0.21929 0.20191 0.15771 0.0
C30 C 0.21013 0.1821 0.1564 0.0
C31 C 0.2065 0.17084 0.17471 0.0
P32 P 0.87677 0.18602 0.14935 0.0
H33 H 0.90851 0.16631 0.17571 0.0
H34 H 0.93485 0.17901 0.20174 0.0
H35 H 0.91099 0.24036 0.19448 0.0
H36 H 0.88436 0.22746 0.16855 0.0
H37 H 0.85265 0.15394 0.12728 0.0
H38 H 0.82723 0.12856 0.13808 0.0
H39 H 0.83765 0.14847 0.20278 0.0
H40 H 0.86203 0.17493 0.19136 0.0
H41 H 0.88953 0.22388 0.12849 0.0
H42 H 0.83209 0.19062 0.13729 0.0
O43 O 0.89158 0.17487 0.13197 0.0
H44 H 0.87117 0.24737 0.10454 0.0
H45 H 0.8142 0.21226 0.11182 0.0
C46 C 0.8945 0.19588 0.17008 0.0
C47 C 0.9088 0.18247 0.17984 0.0
C48 C 0.92387 0.18977 0.19471 0.0
C49 C 0.9251 0.21074 0.20011 0.0
C50 C 0.91063 0.22419 0.19043 0.0
C51 C 0.89533 0.21678 0.17566 0.0
C52 C 0.8594 0.1662 0.15851 0.0
C53 C 0.84953 0.15276 0.14382 0.0
C54 C 0.83501 0.13809 0.15011 0.0
C55 C 0.83029 0.13614 0.17142 0.0
C56 C 0.84049 0.14958 0.18619 0.0
C57 C 0.85471 0.16462 0.17974 0.0
C58 C 0.8623 0.20549 0.13488 0.0
C59 C 0.87292 0.22173 0.12543 0.0
C60 C 0.86239 0.23494 0.11133 0.0
C61 C 0.84108 0.23171 0.10569 0.0
C62 C 0.83043 0.2157 0.11577 0.0
C63 C 0.84085 0.20295 0.13033 0.0
P64 P 0.86295 0.89471 0.16179 0.0
H65 H 0.87507 0.93547 0.17677 0.0
H66 H 0.85952 0.96015 0.1998 0.0
H67 H 0.80745 0.91842 0.20716 0.0
H68 H 0.82351 0.89344 0.18421 0.0
H69 H 0.90434 0.87887 0.15561 0.0
H70 H 0.92852 0.85883 0.17784 0.0
H71 H 0.88395 0.85666 0.22642 0.0
H72 H 0.85975 0.87675 0.20402 0.0
H73 H 0.82063 0.89924 0.14258 0.0
H74 H 0.86975 0.85505 0.14184 0.0
O75 O 0.8774 0.90848 0.14569 0.0
H76 H 0.80122 0.88011 0.11481 0.0
H77 H 0.85104 0.83643 0.11338 0.0
C78 C 0.85013 0.91288 0.17816 0.0
C79 C 0.86018 0.93167 0.18311 0.0
C80 C 0.85126 0.94581 0.19635 0.0
C81 C 0.83208 0.94145 0.2052 0.0
C82 C 0.82226 0.92229 0.20069 0.0
C83 C 0.83127 0.90809 0.18735 0.0
C84 C 0.88039 0.87958 0.17829 0.0
C85 C 0.89977 0.87414 0.17106 0.0
C86 C 0.91353 0.86257 0.18373 0.0
C87 C 0.90817 0.85624 0.20392 0.0
C88 C 0.88862 0.86155 0.21105 0.0
C89 C 0.87476 0.87299 0.19824 0.0
C90 C 0.84642 0.87835 0.14481 0.0
C91 C 0.82705 0.88516 0.13682 0.0
C92 C 0.81613 0.87434 0.12058 0.0
C93 C 0.82461 0.85674 0.1115 0.0
C94 C 0.84379 0.84968 0.12002 0.0
C95 C 0.85456 0.86039 0.13642 0.0
P96 P 0.12908 0.84528 0.15217 0.0
H97 H 0.12073 0.88805 0.16336 0.0
H98 H 0.13744 0.91188 0.18903 0.0
H99 H 0.18185 0.86548 0.20768 0.0
H100 H 0.1654 0.84179 0.18154 0.0
H101 H 0.14321 0.86393 0.11397 0.0
H102 H 0.17074 0.85588 0.09054 0.0
H103 H 0.18613 0.80241 0.12813 0.0
H104 H 0.15798 0.81045 0.15139 0.0
H105 H 0.12783 0.83322 0.19689 0.0
H106 H 0.10065 0.8122 0.13715 0.0
O107 O 0.11052 0.85771 0.13826 0.0
H108 H 0.1057 0.80964 0.21514 0.0
H109 H 0.07812 0.78808 0.15563 0.0
C110 C 0.14178 0.8631 0.1706 0.0
C111 C 0.13414 0.883 0.17283 0.0
C112 C 0.14371 0.89664 0.18746 0.0
C113 C 0.16085 0.89046 0.20037 0.0
C114 C 0.16855 0.87055 0.19803 0.0
C115 C 0.15923 0.85706 0.18307 0.0
C116 C 0.14821 0.83751 0.13411 0.0
C117 C 0.15227 0.85028 0.11701 0.0
C118 C 0.16826 0.8458 0.10375 0.0
C119 C 0.18079 0.82854 0.10745 0.0
C120 C 0.17664 0.81569 0.12466 0.0
C121 C 0.16056 0.82023 0.13796 0.0
C122 C 0.11612 0.8245 0.16552 0.0
C123 C 0.11757 0.82313 0.18754 0.0
C124 C 0.10478 0.80946 0.19808 0.0
C125 C 0.09007 0.79683 0.1869 0.0
C126 C 0.08918 0.79764 0.16475 0.0
C127 C 0.10217 0.81131 0.15417 0.0
P128 P 0.19459 0.85102 0.8221 0.0
H129 H 0.17752 0.82678 0.78616 0.0
H130 H 0.14214 0.81634 0.77474 0.0
H131 H 0.1185 0.84912 0.8274 0.0
H132 H 0.15411 0.85903 0.83902 0.0
H133 H 0.22828 0.87962 0.83556 0.0
H134 H 0.23612 0.9153 0.82589 0.0
H135 H 0.17742 0.91784 0.78994 0.0
H136 H 0.16974 0.88249 0.79958 0.0
H137 H 0.21294 0.81321 0.83848 0.0
H138 H 0.18726 0.86799 0.86406 0.0
O139 O 0.21114 0.83975 0.80651 0.0
H140 H 0.2207 0.80025 0.87393 0.0
H141 H 0.19419 0.8548 0.89978 0.0
C142 C 0.16845 0.84335 0.81367 0.0
C143 C 0.16475 0.83168 0.79529 0.0
C144 C 0.14444 0.82594 0.78861 0.0
C145 C 0.12743 0.83188 0.80013 0.0
C146 C 0.13124 0.84403 0.8183 0.0
C147 C 0.15158 0.84968 0.82501 0.0
C148 C 0.19826 0.87841 0.81871 0.0
C149 C 0.2169 0.88804 0.82602 0.0
C150 C 0.22144 0.90837 0.82029 0.0
C151 C 0.20741 0.91945 0.80707 0.0
C152 C 0.18845 0.90992 0.80036 0.0
C153 C 0.18402 0.88959 0.80595 0.0
C154 C 0.20007 0.84184 0.84862 0.0
C155 C 0.20894 0.82247 0.85178 0.0
C156 C 0.2131 0.8149 0.87215 0.0
C157 C 0.20819 0.82643 0.8899 0.0
C158 C 0.19859 0.8456 0.88658 0.0
C159 C 0.19457 0.85321 0.86615 0.0
P160 P 0.22001 0.20205 0.87011 0.0
H161 H 0.23552 0.23808 0.89365 0.0
H162 H 0.2507 0.24282 0.92931 0.0
H163 H 0.24204 0.17793 0.94132 0.0
H164 H 0.22631 0.17348 0.9057 0.0
H165 H 0.26015 0.18552 0.86132 0.0
H166 H 0.27142 0.15222 0.84896 0.0
H167 H 0.20756 0.13015 0.84661 0.0
H168 H 0.1966 0.16335 0.85988 0.0
H169 H 0.18967 0.22028 0.89773 0.0
H170 H 0.19011 0.19689 0.83434 0.0
O171 O 0.23212 0.2193 0.85543 0.0
H172 H 0.15437 0.23263 0.89079 0.0
H173 H 0.15453 0.20861 0.82743 0.0
C174 C 0.23006 0.20539 0.89693 0.0
C175 C 0.2369 0.22487 0.90396 0.0
C176 C 0.24578 0.22751 0.92432 0.0
C177 C 0.24796 0.21069 0.93815 0.0
C178 C 0.24061 0.19123 0.93115 0.0
C179 C 0.23166 0.18864 0.91075 0.0
C180 C 0.22749 0.17708 0.86102 0.0
C181 C 0.24857 0.17349 0.85811 0.0
C182 C 0.25499 0.15443 0.85096 0.0
C183 C 0.24042 0.13846 0.8465 0.0
C184 C 0.21929 0.14198 0.84999 0.0
C185 C 0.21291 0.16108 0.85734 0.0
C186 C 0.19249 0.20729 0.86667 0.0
C187 C 0.182 0.21728 0.88247 0.0
C188 C 0.16171 0.22436 0.87847 0.0
C189 C 0.15149 0.22176 0.85848 0.0
C190 C 0.16192 0.2112 0.8429 0.0
C191 C 0.18222 0.20421 0.84692 0.0
P192 P 0.88096 0.15705 0.8641 0.0
H193 H 0.86767 0.11532 0.87345 0.0
H194 H 0.84107 0.0923 0.85765 0.0
H195 H 0.82596 0.13799 0.8102 0.0
H196 H 0.85328 0.16082 0.82591 0.0
H197 H 0.89263 0.20076 0.86544 0.0
H198 H 0.91684 0.22131 0.84622 0.0
H199 H 0.9291 0.16912 0.80701 0.0
H200 H 0.90424 0.14829 0.82654 0.0
H201 H 0.88186 0.16119 0.91016 0.0
H202 H 0.84858 0.18754 0.85639 0.0
O203 O 0.89801 0.14317 0.87847 0.0
H204 H 0.86448 0.18449 0.9335 0.0
H205 H 0.83109 0.21093 0.8797 0.0
C206 C 0.86275 0.13961 0.8506 0.0
C207 C 0.85889 0.12029 0.85943 0.0
C208 C 0.84343 0.10721 0.85052 0.0
C209 C 0.83119 0.11329 0.8327 0.0
C210 C 0.83521 0.13269 0.82377 0.0
C211 C 0.85081 0.14578 0.83272 0.0
C212 C 0.89602 0.17304 0.84707 0.0
C213 C 0.89984 0.19374 0.85229 0.0
C214 C 0.91386 0.20557 0.84123 0.0
C215 C 0.92478 0.19698 0.82484 0.0
C216 C 0.92088 0.17623 0.81948 0.0
C217 C 0.90657 0.16437 0.8305 0.0
C218 C 0.86658 0.17271 0.88152 0.0
C219 C 0.87065 0.17183 0.90338 0.0
C220 C 0.86064 0.18512 0.91673 0.0
C221 C 0.8465 0.19963 0.90843 0.0
C222 C 0.84208 0.20008 0.88654 0.0
C223 C 0.85194 0.18664 0.87322 0.0
P224 P 0.86853 0.88285 0.85209 0.0
H225 H 0.91194 0.88646 0.84231 0.0
H226 H 0.93682 0.86242 0.82912 0.0
H227 H 0.88818 0.81592 0.82232 0.0
H228 H 0.8633 0.84022 0.83596 0.0
H229 H 0.87542 0.92686 0.84562 0.0
H230 H 0.85732 0.95208 0.82346 0.0
H231 H 0.81995 0.90357 0.79357 0.0
H232 H 0.83841 0.87814 0.81587 0.0
H233 H 0.86804 0.84704 0.87981 0.0
H234 H 0.82481 0.89323 0.85795 0.0
O235 O 0.88284 0.89632 0.87005 0.0
H236 H 0.84267 0.83403 0.90403 0.0
H237 H 0.79916 0.87997 0.88162 0.0
C238 C 0.88588 0.86503 0.84049 0.0
C239 C 0.90658 0.87111 0.83794 0.0
C240 C 0.9208 0.85734 0.83025 0.0
C241 C 0.91458 0.83714 0.82471 0.0
C242 C 0.89359 0.83124 0.82675 0.0
C243 C 0.87932 0.84513 0.83444 0.0
C244 C 0.85801 0.90063 0.83266 0.0
C245 C 0.86362 0.92151 0.83408 0.0
C246 C 0.85324 0.93596 0.82138 0.0
C247 C 0.83702 0.92986 0.80696 0.0
C248 C 0.83244 0.90874 0.80446 0.0
C249 C 0.84289 0.89422 0.81725 0.0
C250 C 0.84817 0.87069 0.86651 0.0
C251 C 0.85283 0.85395 0.87969 0.0
C252 C 0.83827 0.84654 0.89359 0.0
C253 C 0.81877 0.85591 0.89481 0.0
C254 C 0.81404 0.87247 0.88128 0.0
C255 C 0.82865 0.87989 0.86743 0.0
P256 P 0.21021 0.69702 0.69141 0.0
H257 H 0.17876 0.72719 0.67859 0.0
H258 H 0.14363 0.73316 0.69007 0.0
H259 H 0.14674 0.67745 0.72695 0.0
H260 H 0.1816 0.67146 0.71513 0.0
H261 H 0.24533 0.68164 0.71726 0.0
H262 H 0.26001 0.64765 0.72211 0.0
H263 H 0.21213 0.62218 0.67912 0.0
H264 H 0.19767 0.65665 0.67402 0.0
H265 H 0.25024 0.7109 0.67786 0.0
H266 H 0.18923 0.69907 0.64886 0.0
O267 O 0.22185 0.71276 0.70925 0.0
H268 H 0.26337 0.71991 0.64377 0.0
H269 H 0.20202 0.70892 0.61454 0.0
C270 C 0.18265 0.69856 0.69545 0.0
C271 C 0.1716 0.71591 0.68858 0.0
C272 C 0.1516 0.71945 0.69543 0.0
C273 C 0.14231 0.70585 0.70957 0.0
C274 C 0.1532 0.68811 0.71585 0.0
C275 C 0.1732 0.68462 0.70901 0.0
C276 C 0.2201 0.67156 0.69569 0.0
C277 C 0.23782 0.66876 0.70902 0.0
C278 C 0.24623 0.64926 0.71178 0.0
C279 C 0.23712 0.63213 0.70118 0.0
C280 C 0.21956 0.63506 0.68745 0.0
C281 C 0.21116 0.65467 0.68469 0.0
C282 C 0.21862 0.70495 0.66599 0.0
C283 C 0.23955 0.71063 0.66414 0.0
C284 C 0.24705 0.71582 0.64458 0.0
C285 C 0.23377 0.7154 0.62631 0.0
C286 C 0.21278 0.7093 0.6282 0.0
C287 C 0.20532 0.70394 0.64786 0.0
P288 P 0.87419 0.69667 0.6278 0.0
H289 H 0.91975 0.69874 0.62772 0.0
H290 H 0.94604 0.71655 0.65038 0.0
H291 H 0.89739 0.7461 0.68302 0.0
H292 H 0.8711 0.72823 0.6602 0.0
H293 H 0.88223 0.65299 0.63411 0.0
H294 H 0.87184 0.62818 0.66047 0.0
H295 H 0.8346 0.67431 0.68872 0.0
H296 H 0.84506 0.69919 0.66204 0.0
H297 H 0.87443 0.73932 0.61291 0.0
H298 H 0.83152 0.68772 0.61194 0.0
O299 O 0.88582 0.6842 0.60882 0.0
H300 H 0.85059 0.75818 0.58917 0.0
H301 H 0.80749 0.70655 0.58821 0.0
C302 C 0.89346 0.71214 0.64232 0.0
C303 C 0.91471 0.70936 0.63945 0.0
C304 C 0.92976 0.71966 0.65233 0.0
C305 C 0.92379 0.73271 0.66849 0.0
C306 C 0.90245 0.73605 0.67077 0.0
C307 C 0.88743 0.72584 0.65778 0.0
C308 C 0.86417 0.6779 0.64585 0.0
C309 C 0.87153 0.65774 0.64571 0.0
C310 C 0.86558 0.64352 0.66085 0.0
C311 C 0.85235 0.6492 0.67673 0.0
C312 C 0.84494 0.66946 0.67682 0.0
C313 C 0.85078 0.68366 0.66149 0.0
C314 C 0.85455 0.71226 0.61465 0.0
C315 C 0.85957 0.73227 0.60814 0.0
C316 C 0.84593 0.74306 0.59447 0.0
C317 C 0.82716 0.73386 0.58667 0.0
C318 C 0.82192 0.71401 0.59373 0.0
C319 C 0.83552 0.70331 0.60752 0.0
P320 P 0.88297 0.3894 0.68106 0.0
H321 H 0.87087 0.42577 0.65762 0.0
H322 H 0.84971 0.4553 0.66539 0.0
H323 H 0.83436 0.42748 0.72442 0.0
H324 H 0.85526 0.39752 0.71617 0.0
H325 H 0.89974 0.34822 0.68612 0.0
H326 H 0.92146 0.33224 0.71356 0.0
H327 H 0.9163 0.38606 0.75267 0.0
H328 H 0.89499 0.4023 0.72458 0.0
H329 H 0.88221 0.38697 0.63521 0.0
H330 H 0.85545 0.35321 0.68582 0.0
O331 O 0.90287 0.4004 0.66923 0.0
H332 H 0.86701 0.36228 0.60978 0.0
H333 H 0.83989 0.32835 0.66028 0.0
C334 C 0.86529 0.40979 0.68667 0.0
C335 C 0.86287 0.42593 0.67221 0.0
C336 C 0.85074 0.44285 0.67667 0.0
C337 C 0.84062 0.44401 0.69571 0.0
C338 C 0.84193 0.42712 0.7096 0.0
C339 C 0.85409 0.41008 0.70504 0.0
C340 C 0.89486 0.37617 0.70353 0.0
C341 C 0.90262 0.35638 0.70084 0.0
C342 C 0.9152 0.34721 0.71665 0.0
C343 C 0.92062 0.3577 0.73556 0.0
C344 C 0.91259 0.37749 0.73834 0.0
C345 C 0.90004 0.38669 0.72239 0.0
C346 C 0.87031 0.37169 0.66245 0.0
C347 C 0.873 0.37424 0.64087 0.0
C348 C 0.86417 0.36014 0.62629 0.0
C349 C 0.85233 0.34322 0.63298 0.0
C350 C 0.84921 0.34101 0.65464 0.0
C351 C 0.85798 0.35525 0.66923 0.0
P352 P 0.15111 0.37379 0.67662 0.0
H353 H 0.15184 0.41769 0.68652 0.0
H354 H 0.17675 0.43997 0.70618 0.0
H355 H 0.21454 0.38733 0.72191 0.0
H356 H 0.18954 0.36511 0.70183 0.0
H357 H 0.13649 0.33636 0.65512 0.0
H358 H 0.15133 0.31449 0.62886 0.0
H359 H 0.20684 0.35292 0.63079 0.0
H360 H 0.19205 0.37443 0.65764 0.0
H361 H 0.11227 0.38414 0.69527 0.0
H362 H 0.15404 0.33296 0.69657 0.0
O363 O 0.13602 0.38896 0.66145 0.0
H364 H 0.08922 0.3654 0.71822 0.0
H365 H 0.13075 0.31392 0.71936 0.0
C366 C 0.16915 0.38982 0.69222 0.0
C367 C 0.16547 0.4109 0.6942 0.0
C368 C 0.17964 0.42363 0.70569 0.0
C369 C 0.19776 0.41551 0.71555 0.0
C370 C 0.20092 0.39416 0.71424 0.0
C371 C 0.18667 0.38143 0.70278 0.0
C372 C 0.16344 0.35661 0.65895 0.0
C373 C 0.15207 0.33981 0.6503 0.0
C374 C 0.16048 0.32746 0.63501 0.0
C375 C 0.18031 0.3319 0.62765 0.0
C376 C 0.19169 0.34881 0.63635 0.0
C377 C 0.18325 0.36114 0.65175 0.0
C378 C 0.13462 0.35978 0.69387 0.0
C379 C 0.1164 0.3688 0.70037 0.0
C380 C 0.10326 0.35809 0.71349 0.0
C381 C 0.1081 0.33812 0.72036 0.0
C382 C 0.12647 0.32914 0.71397 0.0
C383 C 0.1398 0.34003 0.70105 0.0
P384 P 0.19971 0.34303 0.34239 0.0
H385 H 0.16722 0.35777 0.31177 0.0
H386 H 0.13358 0.34264 0.29921 0.0
H387 H 0.14043 0.29524 0.34651 0.0
H388 H 0.17404 0.30978 0.35816 0.0
H389 H 0.21648 0.36256 0.30544 0.0
H390 H 0.23128 0.39665 0.2997 0.0
H391 H 0.2117 0.41601 0.36056 0.0
H392 H 0.19724 0.38153 0.36635 0.0
H393 H 0.24058 0.33538 0.36203 0.0
H394 H 0.17824 0.34248 0.38243 0.0
O395 O 0.214 0.32817 0.32757 0.0
H396 H 0.2532 0.32964 0.39831 0.0
H397 H 0.19043 0.33559 0.41871 0.0
C398 C 0.17294 0.33529 0.33636 0.0
C399 C 0.16119 0.34441 0.31973 0.0
C400 C 0.14197 0.3357 0.31251 0.0
C401 C 0.13435 0.31754 0.32164 0.0
C402 C 0.14592 0.30898 0.33878 0.0
C403 C 0.16506 0.31754 0.34579 0.0
C404 C 0.206 0.36942 0.33642 0.0
C405 C 0.21505 0.37421 0.31742 0.0
C406 C 0.22349 0.3938 0.31415 0.0
C407 C 0.22292 0.40908 0.32978 0.0
C408 C 0.21279 0.40451 0.34837 0.0
C409 C 0.20432 0.38485 0.35161 0.0
C410 C 0.20835 0.33855 0.36943 0.0
C411 C 0.22953 0.33536 0.37433 0.0
C412 C 0.23672 0.33202 0.39513 0.0
C413 C 0.22284 0.33179 0.41155 0.0
C414 C 0.20166 0.33574 0.4066 0.0
C415 C 0.19455 0.33935 0.38576 0.0
P416 P 0.19698 0.69287 0.33285 0.0
H417 H 0.23583 0.70093 0.35771 0.0
H418 H 0.2431 0.71548 0.39282 0.0
H419 H 0.17712 0.71487 0.40299 0.0
H420 H 0.17022 0.69934 0.36859 0.0
H421 H 0.18812 0.66998 0.29398 0.0
H422 H 0.19758 0.63569 0.28222 0.0
H423 H 0.22685 0.62413 0.34368 0.0
H424 H 0.21696 0.65818 0.35533 0.0
H425 H 0.17904 0.73256 0.3232 0.0
H426 H 0.157 0.67001 0.32903 0.0
O427 O 0.21273 0.70739 0.31876 0.0
H428 H 0.14323 0.7441 0.31789 0.0
H429 H 0.12098 0.68147 0.32377 0.0
C430 C 0.20249 0.69931 0.3603 0.0
C431 C 0.223 0.70353 0.36772 0.0
C432 C 0.22709 0.71213 0.38775 0.0
C433 C 0.21069 0.71687 0.40075 0.0
C434 C 0.19023 0.71145 0.39364 0.0
C435 C 0.18621 0.70262 0.37374 0.0
C436 C 0.20152 0.66652 0.32564 0.0
C437 C 0.19622 0.65986 0.30503 0.0
C438 C 0.20182 0.64031 0.29825 0.0
C439 C 0.21294 0.62702 0.31196 0.0
C440 C 0.21793 0.63372 0.33275 0.0
C441 C 0.21234 0.65328 0.33948 0.0
C442 C 0.17069 0.70039 0.32595 0.0
C443 C 0.16648 0.72126 0.32294 0.0
C444 C 0.14599 0.72787 0.32018 0.0
C445 C 0.12927 0.7137 0.32049 0.0
C446 C 0.13355 0.69271 0.32323 0.0
C447 C 0.15411 0.68613 0.32615 0.0
P448 P 0.8539 0.64816 0.3551 0.0
H449 H 0.8557 0.60318 0.3562 0.0
H450 H 0.83689 0.57624 0.33598 0.0
H451 H 0.80474 0.62245 0.29872 0.0
H452 H 0.82344 0.64948 0.31933 0.0
H453 H 0.88469 0.67873 0.36942 0.0
H454 H 0.90947 0.7005 0.35159 0.0
H455 H 0.88724 0.67522 0.29164 0.0
H456 H 0.86237 0.65335 0.30965 0.0
H457 H 0.81578 0.63371 0.37318 0.0
H458 H 0.84788 0.6919 0.36658 0.0
O459 O 0.86853 0.63687 0.37405 0.0
H460 H 0.78981 0.65021 0.39362 0.0
H461 H 0.82258 0.70834 0.38805 0.0
C462 C 0.84129 0.62836 0.33895 0.0
C463 C 0.84469 0.60758 0.34364 0.0
C464 C 0.83373 0.59217 0.33225 0.0
C465 C 0.81927 0.59725 0.31586 0.0
C466 C 0.81585 0.6181 0.31124 0.0
C467 C 0.82662 0.63352 0.32286 0.0
C468 C 0.87126 0.66472 0.34094 0.0
C469 C 0.88491 0.67802 0.35241 0.0
C470 C 0.89911 0.69047 0.34217 0.0
C471 C 0.90021 0.68976 0.32014 0.0
C472 C 0.88679 0.67612 0.30862 0.0
C473 C 0.87239 0.66374 0.31893 0.0
C474 C 0.83374 0.66153 0.36809 0.0
C475 C 0.81718 0.65011 0.37596 0.0
C476 C 0.80243 0.65955 0.38793 0.0
C477 C 0.80412 0.68063 0.39273 0.0
C478 C 0.82058 0.69214 0.3845 0.0
C479 C 0.83524 0.68267 0.37229 0.0
P480 P 0.87666 0.36891 0.38573 0.0
H481 H 0.92144 0.37286 0.38035 0.0
H482 H 0.94696 0.34965 0.36652 0.0
H483 H 0.89807 0.30481 0.35203 0.0
H484 H 0.87254 0.32823 0.36582 0.0
H485 H 0.8871 0.40893 0.36858 0.0
H486 H 0.87286 0.42886 0.33895 0.0
H487 H 0.82685 0.38091 0.32533 0.0
H488 H 0.84117 0.36107 0.35542 0.0
H489 H 0.8816 0.33187 0.41079 0.0
H490 H 0.83311 0.3755 0.39691 0.0
O491 O 0.88955 0.38503 0.40234 0.0
H492 H 0.85936 0.31364 0.43449 0.0
H493 H 0.81045 0.35709 0.42097 0.0
C494 C 0.89519 0.35205 0.37459 0.0
C495 C 0.91619 0.35804 0.37421 0.0
C496 C 0.93076 0.3448 0.36619 0.0
C497 C 0.92457 0.3253 0.35837 0.0
C498 C 0.90337 0.31958 0.35827 0.0
C499 C 0.88877 0.33296 0.36609 0.0
C500 C 0.86483 0.38378 0.36455 0.0
C501 C 0.87378 0.40278 0.3594 0.0
C502 C 0.86577 0.41407 0.34225 0.0
C503 C 0.8487 0.40651 0.3297 0.0
C504 C 0.83984 0.38732 0.33482 0.0
C505 C 0.84796 0.37597 0.35201 0.0
C506 C 0.85873 0.35453 0.40129 0.0
C507 C 0.86591 0.33723 0.41238 0.0
C508 C 0.85315 0.32683 0.42605 0.0
C509 C 0.83294 0.33367 0.42936 0.0
C510 C 0.82587 0.35136 0.41865 0.0
C511 C 0.83872 0.36174 0.40474 0.0
P512 P 0.71033 0.19548 0.68813 0.0
H513 H 0.70108 0.19615 0.73243 0.0
H514 H 0.66936 0.20251 0.75085 0.0
H515 H 0.63492 0.20789 0.69102 0.0
H516 H 0.66683 0.20169 0.67272 0.0
H517 H 0.74555 0.17284 0.7071 0.0
H518 H 0.75221 0.13637 0.71149 0.0
H519 H 0.69582 0.12196 0.67409 0.0
H520 H 0.68887 0.15872 0.67053 0.0
H521 H 0.70145 0.23689 0.67368 0.0
H522 H 0.71751 0.17937 0.64557 0.0
O523 O 0.729 0.20836 0.70204 0.0
H524 H 0.70334 0.25391 0.63947 0.0
H525 H 0.71942 0.19624 0.61139 0.0
C526 C 0.68641 0.19893 0.70124 0.0
C527 C 0.68668 0.19868 0.72329 0.0
C528 C 0.66848 0.20216 0.7338 0.0
C529 C 0.64958 0.20588 0.72244 0.0
C530 C 0.64927 0.20545 0.70027 0.0
C531 C 0.6675 0.20187 0.68977 0.0
C532 C 0.71665 0.16852 0.68854 0.0
C533 C 0.73471 0.16188 0.69961 0.0
C534 C 0.73863 0.1409 0.70195 0.0
C535 C 0.72456 0.12605 0.69322 0.0
C536 C 0.70688 0.13287 0.68134 0.0
C537 C 0.70291 0.1539 0.67915 0.0
C538 C 0.70916 0.20683 0.66218 0.0
C539 C 0.70507 0.22786 0.66007 0.0
C540 C 0.70627 0.2376 0.64054 0.0
C541 C 0.71152 0.22645 0.62268 0.0
C542 C 0.71503 0.20522 0.62475 0.0
C543 C 0.71399 0.19553 0.64435 0.0
P544 P 0.38237 0.19568 0.65974 0.0
H545 H 0.40252 0.1818 0.69908 0.0
H546 H 0.4291 0.19717 0.7231 0.0
H547 H 0.42724 0.25318 0.68659 0.0
H548 H 0.40086 0.23742 0.66229 0.0
H549 H 0.36388 0.15678 0.64513 0.0
H550 H 0.33907 0.13273 0.65982 0.0
H551 H 0.33361 0.17301 0.71326 0.0
H552 H 0.35899 0.19685 0.69855 0.0
H553 H 0.39065 0.21047 0.61756 0.0
H554 H 0.34509 0.2206 0.66377 0.0
O555 O 0.39782 0.18148 0.64546 0.0
H556 H 0.37147 0.23263 0.59274 0.0
H557 H 0.32559 0.2427 0.63884 0.0
C558 C 0.39922 0.20862 0.67924 0.0
C559 C 0.40746 0.19755 0.6965 0.0
C560 C 0.42273 0.2064 0.71024 0.0
C561 C 0.43026 0.22654 0.70693 0.0
C562 C 0.4219 0.23764 0.68958 0.0
C563 C 0.40659 0.22872 0.67582 0.0
C564 C 0.36366 0.17837 0.67098 0.0
C565 C 0.35744 0.16041 0.66008 0.0
C566 C 0.34303 0.14673 0.66842 0.0
C567 C 0.33429 0.15082 0.68781 0.0
C568 C 0.34025 0.16915 0.69848 0.0
C569 C 0.35473 0.18284 0.69008 0.0
C570 C 0.36901 0.2135 0.64232 0.0
C571 C 0.37651 0.21749 0.62239 0.0
C572 C 0.36552 0.23017 0.60819 0.0
C573 C 0.34687 0.23925 0.61371 0.0
C574 C 0.33995 0.23602 0.63412 0.0
C575 C 0.35097 0.22326 0.64833 0.0
P576 P 0.36468 0.8988 0.68241 0.0
H577 H 0.38063 0.93957 0.69396 0.0
H578 H 0.36861 0.96639 0.71702 0.0
H579 H 0.31648 0.92758 0.7326 0.0
H580 H 0.32877 0.90062 0.70946 0.0
H581 H 0.40441 0.88059 0.67321 0.0
H582 H 0.42978 0.86102 0.69436 0.0
H583 H 0.3887 0.86071 0.74609 0.0
H584 H 0.36347 0.88069 0.72483 0.0
H585 H 0.32322 0.91027 0.66555 0.0
H586 H 0.36208 0.85699 0.66528 0.0
O587 O 0.37843 0.91079 0.66438 0.0
H588 H 0.29829 0.89343 0.64063 0.0
H589 H 0.3377 0.8403 0.63983 0.0
C590 C 0.35526 0.91833 0.69954 0.0
C591 C 0.36653 0.93685 0.70221 0.0
C592 C 0.35965 0.95218 0.71544 0.0
C593 C 0.34148 0.94922 0.72653 0.0
C594 C 0.33059 0.93032 0.72436 0.0
C595 C 0.33746 0.91498 0.71099 0.0
C596 C 0.38219 0.88241 0.69754 0.0
C597 C 0.4008 0.87627 0.68907 0.0
C598 C 0.41527 0.86494 0.70118 0.0
C599 C 0.41139 0.85938 0.72203 0.0
C600 C 0.39237 0.86504 0.73024 0.0
C601 C 0.37786 0.87636 0.71805 0.0
C602 C 0.34426 0.88468 0.66781 0.0
C603 C 0.32615 0.89473 0.66054 0.0
C604 C 0.31203 0.88517 0.64598 0.0
C605 C 0.31591 0.86546 0.63804 0.0
C606 C 0.33389 0.85529 0.64579 0.0
C607 C 0.34793 0.86484 0.66042 0.0
P608 P 0.62966 0.85954 0.64894 0.0
H609 H 0.63274 0.90424 0.64462 0.0
H610 H 0.65167 0.9308 0.66519 0.0
H611 H 0.68243 0.88403 0.70287 0.0
H612 H 0.66318 0.85734 0.68221 0.0
H613 H 0.61389 0.8388 0.61091 0.0
H614 H 0.63021 0.81908 0.58386 0.0
H615 H 0.69002 0.82755 0.61707 0.0
H616 H 0.67348 0.84755 0.64414 0.0
H617 H 0.61689 0.86743 0.6914 0.0
H618 H 0.61487 0.81623 0.64822 0.0
O619 O 0.61006 0.87173 0.63641 0.0
H620 H 0.59795 0.84707 0.71642 0.0
H621 H 0.59574 0.79565 0.67336 0.0
C622 C 0.6464 0.87877 0.66197 0.0
C623 C 0.64369 0.8996 0.65714 0.0
C624 C 0.65446 0.91482 0.669 0.0
C625 C 0.66836 0.90953 0.68583 0.0
C626 C 0.67187 0.8886 0.68997 0.0
C627 C 0.6609 0.87334 0.67818 0.0
C628 C 0.64247 0.84489 0.62942 0.0
C629 C 0.63053 0.83648 0.61238 0.0
C630 C 0.63987 0.82503 0.59699 0.0
C631 C 0.66144 0.82169 0.59829 0.0
C632 C 0.67341 0.83002 0.6155 0.0
C633 C 0.66396 0.84142 0.63103 0.0
C634 C 0.61795 0.84322 0.66817 0.0
C635 C 0.61282 0.85164 0.68747 0.0
C636 C 0.60191 0.83995 0.70178 0.0
C637 C 0.59554 0.81962 0.69699 0.0
C638 C 0.60046 0.81124 0.67751 0.0
C639 C 0.61157 0.82296 0.66321 0.0
P640 P 0.68819 0.84281 0.30956 0.0
H641 H 0.66832 0.82039 0.27392 0.0
H642 H 0.63305 0.80715 0.26646 0.0
H643 H 0.61426 0.83299 0.32507 0.0
H644 H 0.64992 0.84566 0.33268 0.0
H645 H 0.72385 0.87096 0.31132 0.0
H646 H 0.7296 0.90515 0.29644 0.0
H647 H 0.66487 0.90683 0.27488 0.0
H648 H 0.6592 0.87285 0.28994 0.0
H649 H 0.70494 0.8066 0.33059 0.0
H650 H 0.68937 0.86815 0.3483 0.0
O651 O 0.70375 0.82949 0.29458 0.0
H652 H 0.71645 0.7992 0.36689 0.0
H653 H 0.70117 0.86096 0.38487 0.0
C654 C 0.66187 0.83351 0.30414 0.0
C655 C 0.65664 0.82312 0.28524 0.0
C656 C 0.63633 0.81578 0.28084 0.0
C657 C 0.62072 0.81888 0.29518 0.0
C658 C 0.62592 0.82998 0.31382 0.0
C659 C 0.64631 0.83724 0.31823 0.0
C660 C 0.69111 0.86937 0.30191 0.0
C661 C 0.71082 0.87886 0.30372 0.0
C662 C 0.71412 0.89831 0.295 0.0
C663 C 0.69773 0.90866 0.28427 0.0
C664 C 0.6778 0.89937 0.28315 0.0
C665 C 0.67454 0.87987 0.2918 0.0
C666 C 0.69662 0.83803 0.33665 0.0
C667 C 0.70421 0.81863 0.34229 0.0
C668 C 0.71094 0.81445 0.36309 0.0
C669 C 0.71006 0.82956 0.37885 0.0
C670 C 0.70209 0.84896 0.37318 0.0
C671 C 0.69541 0.85314 0.35226 0.0
P672 P 0.69704 0.19489 0.33516 0.0
H673 H 0.73921 0.20217 0.35149 0.0
H674 H 0.75493 0.20728 0.38687 0.0
H675 H 0.69472 0.19805 0.41288 0.0
H676 H 0.67905 0.19272 0.37717 0.0
H677 H 0.71901 0.18483 0.29741 0.0
H678 H 0.7352 0.15359 0.28555 0.0
H679 H 0.71112 0.12038 0.33807 0.0
H680 H 0.69503 0.15204 0.35015 0.0
H681 H 0.67256 0.232 0.33536 0.0
H682 H 0.66023 0.16692 0.32973 0.0
O683 O 0.7078 0.21376 0.32139 0.0
H684 H 0.63592 0.2389 0.32712 0.0
H685 H 0.62325 0.17355 0.32245 0.0
C686 C 0.70792 0.19753 0.3617 0.0
C687 C 0.72937 0.20124 0.3648 0.0
C688 C 0.73833 0.20419 0.38504 0.0
C689 C 0.72604 0.20334 0.40268 0.0
C690 C 0.70461 0.19877 0.39961 0.0
C691 C 0.69561 0.19588 0.37922 0.0
C692 C 0.70578 0.17083 0.32471 0.0
C693 C 0.71699 0.17086 0.30636 0.0
C694 C 0.72643 0.15298 0.29965 0.0
C695 C 0.72472 0.13456 0.31104 0.0
C696 C 0.71274 0.13433 0.32898 0.0
C697 C 0.70348 0.15237 0.33584 0.0
C698 C 0.66924 0.19897 0.33271 0.0
C699 C 0.66185 0.21914 0.33271 0.0
C700 C 0.64075 0.22307 0.32816 0.0
C701 C 0.62645 0.20685 0.32375 0.0
C702 C 0.6338 0.18652 0.32517 0.0
C703 C 0.65499 0.18264 0.32951 0.0
P704 P 0.35879 0.14084 0.38414 0.0
H705 H 0.35578 0.09649 0.39125 0.0
H706 H 0.33084 0.07018 0.37859 0.0
H707 H 0.29828 0.11555 0.34042 0.0
H708 H 0.32321 0.14202 0.35365 0.0
H709 H 0.38357 0.17887 0.3855 0.0
H710 H 0.40776 0.19401 0.36116 0.0
H711 H 0.39018 0.14699 0.31536 0.0
H712 H 0.36645 0.13174 0.33994 0.0
H713 H 0.34104 0.13309 0.42416 0.0
H714 H 0.34089 0.18237 0.37885 0.0
O715 O 0.37676 0.12986 0.4001 0.0
H716 H 0.31789 0.15242 0.44577 0.0
H717 H 0.31777 0.20204 0.40067 0.0
C718 C 0.34151 0.12114 0.37313 0.0
C719 C 0.34342 0.10078 0.38 0.0
C720 C 0.32912 0.08571 0.37271 0.0
C721 C 0.31256 0.09071 0.35842 0.0
C722 C 0.31071 0.1112 0.35158 0.0
C723 C 0.32505 0.1263 0.35893 0.0
C724 C 0.37279 0.15447 0.3644 0.0
C725 C 0.38452 0.17216 0.37 0.0
C726 C 0.39839 0.18078 0.35604 0.0
C727 C 0.40101 0.1717 0.33627 0.0
C728 C 0.38877 0.15427 0.33053 0.0
C729 C 0.37493 0.14567 0.3445 0.0
C730 C 0.3431 0.15651 0.4002 0.0
C731 C 0.33621 0.14822 0.419 0.0
C732 C 0.3228 0.15918 0.43123 0.0
C733 C 0.31599 0.17873 0.4249 0.0
C734 C 0.32293 0.18708 0.40602 0.0
C735 C 0.3362 0.17591 0.3936 0.0
P736 P 0.37341 0.8578 0.37614 0.0
H737 H 0.41328 0.8637 0.35703 0.0
H738 H 0.43532 0.84066 0.33814 0.0
H739 H 0.38718 0.79354 0.33843 0.0
H740 H 0.36525 0.81675 0.35766 0.0
H741 H 0.35824 0.89799 0.38671 0.0
H742 H 0.33497 0.92208 0.36852 0.0
H743 H 0.3278 0.8806 0.31553 0.0
H744 H 0.35145 0.85639 0.33395 0.0
H745 H 0.38542 0.82186 0.40102 0.0
H746 H 0.33168 0.86041 0.39322 0.0
O747 O 0.39078 0.87192 0.39047 0.0
H748 H 0.36877 0.80291 0.42904 0.0
H749 H 0.31504 0.84161 0.42123 0.0
C750 C 0.38784 0.84177 0.35914 0.0
C751 C 0.40736 0.84849 0.35284 0.0
C752 C 0.41993 0.8353 0.34192 0.0
C753 C 0.41314 0.81513 0.33696 0.0
C754 C 0.39305 0.80883 0.34237 0.0
C755 C 0.38045 0.82211 0.35325 0.0
C756 C 0.3567 0.87546 0.36166 0.0
C757 C 0.35185 0.8941 0.3711 0.0
C758 C 0.33846 0.90785 0.3607 0.0
C759 C 0.3295 0.90326 0.34057 0.0
C760 C 0.33464 0.88467 0.33092 0.0
C761 C 0.34803 0.87079 0.34147 0.0
C762 C 0.35967 0.84232 0.39471 0.0
C763 C 0.36987 0.826 0.40504 0.0
C764 C 0.36036 0.81518 0.42109 0.0
C765 C 0.34061 0.82078 0.42741 0.0
C766 C 0.33035 0.83704 0.41687 0.0
C767 C 0.33981 0.84772 0.4007 0.0
P768 P 0.70218 0.68523 0.1864 0.0
H769 H 0.68776 0.68109 0.22887 0.0
H770 H 0.65362 0.68403 0.24352 0.0
H771 H 0.62561 0.69032 0.18063 0.0
H772 H 0.66002 0.68795 0.16618 0.0
H773 H 0.74393 0.67074 0.18101 0.0
H774 H 0.75876 0.63641 0.18017 0.0
H775 H 0.69702 0.60948 0.18146 0.0
H776 H 0.68225 0.64398 0.1823 0.0
H777 H 0.71218 0.7286 0.18073 0.0
H778 H 0.69372 0.677 0.14114 0.0
O779 O 0.71811 0.69607 0.20492 0.0
H780 H 0.71495 0.75031 0.14966 0.0
H781 H 0.6963 0.69884 0.10978 0.0
C782 C 0.67649 0.6848 0.19649 0.0
C783 C 0.67425 0.68301 0.21823 0.0
C784 C 0.65464 0.68452 0.22658 0.0
C785 C 0.6368 0.68764 0.2133 0.0
C786 C 0.63904 0.68837 0.19137 0.0
C787 C 0.65871 0.68692 0.18305 0.0
C788 C 0.71206 0.65989 0.18207 0.0
C789 C 0.73356 0.65745 0.18082 0.0
C790 C 0.74202 0.63783 0.1804 0.0
C791 C 0.72908 0.62023 0.181 0.0
C792 C 0.70738 0.62274 0.18092 0.0
C793 C 0.69892 0.64246 0.1815 0.0
C794 C 0.70321 0.70108 0.1632 0.0
C795 C 0.70875 0.72191 0.16532 0.0
C796 C 0.71032 0.73434 0.14755 0.0
C797 C 0.70603 0.72624 0.12727 0.0
C798 C 0.69966 0.70551 0.12521 0.0
C799 C 0.69832 0.69299 0.14307 0.0
P800 P 0.36613 0.66821 0.13914 0.0
H801 H 0.41114 0.66581 0.13536 0.0
H802 H 0.44057 0.68265 0.15431 0.0
H803 H 0.39831 0.72044 0.18732 0.0
H804 H 0.36867 0.70353 0.16801 0.0
H805 H 0.37959 0.62919 0.15636 0.0
H806 H 0.36978 0.6089 0.18656 0.0
H807 H 0.32365 0.65379 0.20045 0.0
H808 H 0.33352 0.67404 0.16974 0.0
H809 H 0.36893 0.70764 0.11777 0.0
H810 H 0.32181 0.66107 0.12684 0.0
O811 O 0.37522 0.65213 0.12146 0.0
H812 H 0.34606 0.72433 0.09153 0.0
H813 H 0.29863 0.6779 0.10034 0.0
C814 C 0.38768 0.68347 0.15021 0.0
C815 C 0.40812 0.67803 0.14629 0.0
C816 C 0.42499 0.68763 0.15721 0.0
C817 C 0.42178 0.7028 0.1724 0.0
C818 C 0.4013 0.70897 0.17556 0.0
C819 C 0.38436 0.69927 0.16461 0.0
C820 C 0.35686 0.65281 0.16042 0.0
C821 C 0.36714 0.63455 0.16569 0.0
C822 C 0.36172 0.62309 0.1832 0.0
C823 C 0.34597 0.62971 0.19604 0.0
C824 C 0.33569 0.64812 0.19077 0.0
C825 C 0.34125 0.65968 0.1732 0.0
C826 C 0.34694 0.68337 0.12472 0.0
C827 C 0.3534 0.70134 0.11463 0.0
C828 C 0.34039 0.71073 0.09936 0.0
C829 C 0.32063 0.70227 0.09364 0.0
C830 C 0.31372 0.68479 0.10446 0.0
C831 C 0.3269 0.67527 0.1197 0.0
P832 P 0.38319 0.37812 0.18986 0.0
H833 H 0.37168 0.41938 0.17601 0.0
H834 H 0.35063 0.44617 0.19087 0.0
H835 H 0.33744 0.4061 0.24287 0.0
H836 H 0.35881 0.3795 0.22803 0.0
H837 H 0.42733 0.37814 0.20416 0.0
H838 H 0.4481 0.3541 0.2254 0.0
H839 H 0.39196 0.32084 0.24013 0.0
H840 H 0.3714 0.3445 0.218 0.0
H841 H 0.34219 0.3827 0.16797 0.0
H842 H 0.39033 0.33733 0.1722 0.0
O843 O 0.40022 0.39005 0.1749 0.0
H844 H 0.32234 0.36148 0.14245 0.0
H845 H 0.37014 0.31555 0.14696 0.0
C846 C 0.36739 0.39762 0.20123 0.0
C847 C 0.36436 0.41638 0.19068 0.0
C848 C 0.35204 0.43162 0.19904 0.0
C849 C 0.3424 0.42841 0.21815 0.0
C850 C 0.3449 0.40926 0.22829 0.0
C851 C 0.35718 0.394 0.21985 0.0
C852 C 0.39779 0.36299 0.20925 0.0
C853 C 0.41942 0.36585 0.21219 0.0
C854 C 0.43133 0.35212 0.22455 0.0
C855 C 0.42184 0.33526 0.23436 0.0
C856 C 0.39993 0.33334 0.2325 0.0
C857 C 0.38807 0.347 0.21999 0.0
C858 C 0.36753 0.3614 0.17251 0.0
C859 C 0.34835 0.36797 0.16377 0.0
C860 C 0.33694 0.35572 0.14912 0.0
C861 C 0.34447 0.33661 0.14277 0.0
C862 C 0.36386 0.33017 0.15141 0.0
C863 C 0.37531 0.34252 0.16604 0.0
P864 P 0.63902 0.37028 0.15338 0.0
H865 H 0.64708 0.41457 0.156 0.0
H866 H 0.67028 0.43572 0.17886 0.0
H867 H 0.68902 0.38161 0.21383 0.0
H868 H 0.66577 0.36044 0.19064 0.0
H869 H 0.6276 0.34218 0.11932 0.0
H870 H 0.64751 0.32385 0.09382 0.0
H871 H 0.70445 0.35088 0.12116 0.0
H872 H 0.68432 0.36948 0.1465 0.0
H873 H 0.59889 0.37358 0.17231 0.0
H874 H 0.64473 0.32686 0.16501 0.0
O875 O 0.62293 0.38549 0.13936 0.0
H876 H 0.57605 0.34845 0.18856 0.0
H877 H 0.62196 0.3016 0.18132 0.0
C878 C 0.65462 0.38594 0.17171 0.0
C879 C 0.6559 0.40726 0.16879 0.0
C880 C 0.66909 0.4194 0.182 0.0
C881 C 0.68145 0.4104 0.19826 0.0
C882 C 0.67976 0.38902 0.20141 0.0
C883 C 0.66645 0.3769 0.18823 0.0
C884 C 0.65445 0.35703 0.13492 0.0
C885 C 0.64438 0.34413 0.11986 0.0
C886 C 0.65581 0.33357 0.10536 0.0
C887 C 0.67762 0.33574 0.10556 0.0
C888 C 0.68768 0.34894 0.12053 0.0
C889 C 0.67617 0.35949 0.13512 0.0
C890 C 0.6233 0.352 0.16709 0.0
C891 C 0.60407 0.35792 0.1743 0.0
C892 C 0.59107 0.34354 0.18366 0.0
C893 C 0.5971 0.32295 0.18604 0.0
C894 C 0.6167 0.31723 0.17935 0.0
C895 C 0.62976 0.33168 0.17011 0.0
P896 P 0.71195 0.35734 0.81905 0.0
H897 H 0.68914 0.33986 0.78208 0.0
H898 H 0.65271 0.33013 0.77539 0.0
H899 H 0.63741 0.36062 0.83286 0.0
H900 H 0.67417 0.36963 0.83983 0.0
H901 H 0.75345 0.37028 0.80837 0.0
H902 H 0.77068 0.4036 0.80551 0.0
H903 H 0.71415 0.43336 0.82206 0.0
H904 H 0.69671 0.39968 0.82404 0.0
H905 H 0.72262 0.31758 0.83756 0.0
H906 H 0.71069 0.37865 0.85976 0.0
O907 O 0.72441 0.34124 0.80377 0.0
H908 H 0.73054 0.30641 0.87363 0.0
H909 H 0.71793 0.36746 0.89605 0.0
C910 C 0.68449 0.35514 0.81168 0.0
C911 C 0.67793 0.34479 0.79309 0.0
C912 C 0.65695 0.33934 0.78917 0.0
C913 C 0.64203 0.34426 0.80373 0.0
C914 C 0.64849 0.35613 0.82152 0.0
C915 C 0.66953 0.36145 0.82548 0.0
C916 C 0.72363 0.38249 0.81591 0.0
C917 C 0.74463 0.38397 0.8111 0.0
C918 C 0.75461 0.40311 0.80979 0.0
C919 C 0.74392 0.42131 0.81364 0.0
C920 C 0.72284 0.41974 0.81869 0.0
C921 C 0.7128 0.40049 0.81984 0.0
C922 C 0.71651 0.34905 0.84592 0.0
C923 C 0.7216 0.32858 0.85023 0.0
C924 C 0.72593 0.32215 0.87094 0.0
C925 C 0.725 0.33604 0.88783 0.0
C926 C 0.7192 0.35643 0.88344 0.0
C927 C 0.71498 0.36285 0.86267 0.0
P928 P 0.71236 0.7033 0.83857 0.0
H929 H 0.74548 0.7308 0.85605 0.0
H930 H 0.75717 0.73953 0.89195 0.0
H931 H 0.71716 0.69153 0.91525 0.0
H932 H 0.70477 0.6836 0.87914 0.0
H933 H 0.73669 0.69109 0.80309 0.0
H934 H 0.74496 0.65801 0.78811 0.0
H935 H 0.70792 0.62739 0.83391 0.0
H936 H 0.69991 0.66077 0.84909 0.0
H937 H 0.68997 0.73641 0.85734 0.0
H938 H 0.67442 0.68272 0.8197 0.0
O939 O 0.72235 0.72132 0.82316 0.0
H940 H 0.65374 0.74687 0.85456 0.0
H941 H 0.63793 0.69245 0.8177 0.0
C942 C 0.72413 0.70657 0.86483 0.0
C943 C 0.73943 0.72189 0.86882 0.0
C944 C 0.74629 0.72678 0.88949 0.0
C945 C 0.73805 0.71639 0.9067 0.0
C946 C 0.72364 0.70015 0.90249 0.0
C947 C 0.71665 0.69541 0.88179 0.0
C948 C 0.71777 0.67848 0.82737 0.0
C949 C 0.73021 0.67732 0.80992 0.0
C950 C 0.73478 0.65831 0.80115 0.0
C951 C 0.72705 0.63994 0.80967 0.0
C952 C 0.71431 0.64118 0.82702 0.0
C953 C 0.70974 0.66027 0.83579 0.0
C954 C 0.68492 0.70862 0.83904 0.0
C955 C 0.67863 0.72656 0.84894 0.0
C956 C 0.6578 0.73249 0.84739 0.0
C957 C 0.64272 0.72055 0.83588 0.0
C958 C 0.64906 0.70224 0.82643 0.0
C959 C 0.66998 0.69646 0.82781 0.0
P960 P 0.37235 0.65741 0.86704 0.0
H961 H 0.36669 0.61309 0.8732 0.0
H962 H 0.34482 0.58711 0.85497 0.0
H963 H 0.31569 0.63445 0.81668 0.0
H964 H 0.33788 0.66047 0.83498 0.0
H965 H 0.41567 0.65117 0.85623 0.0
H966 H 0.4389 0.67072 0.83418 0.0
H967 H 0.38725 0.7079 0.81202 0.0
H968 H 0.36425 0.68863 0.83459 0.0
H969 H 0.33135 0.66133 0.88541 0.0
H970 H 0.38745 0.69787 0.88084 0.0
O971 O 0.38794 0.64543 0.8847 0.0
H972 H 0.31689 0.68785 0.90746 0.0
H973 H 0.37298 0.72461 0.90235 0.0
C974 C 0.35412 0.63875 0.8553 0.0
C975 C 0.35542 0.61799 0.86109 0.0
C976 C 0.34273 0.60309 0.85075 0.0
C977 C 0.32851 0.60862 0.83428 0.0
C978 C 0.32664 0.62961 0.82913 0.0
C979 C 0.33931 0.64452 0.83957 0.0
C980 C 0.38829 0.66866 0.84732 0.0
C981 C 0.40925 0.66328 0.84635 0.0
C982 C 0.42252 0.67439 0.83357 0.0
C983 C 0.41503 0.69107 0.8215 0.0
C984 C 0.39362 0.69537 0.82137 0.0
C985 C 0.3804 0.68427 0.83417 0.0
C986 C 0.36028 0.6778 0.88105 0.0
C987 C 0.34038 0.67523 0.88876 0.0
C988 C 0.33213 0.69046 0.90137 0.0
C989 C 0.34374 0.70845 0.9067 0.0
C990 C 0.36365 0.71093 0.89879 0.0
C991 C 0.37186 0.69572 0.88624 0.0
P992 P 0.38701 0.37313 0.89464 0.0
H993 H 0.43132 0.37833 0.88923 0.0
H994 H 0.45741 0.35665 0.87425 0.0
H995 H 0.41058 0.30931 0.86157 0.0
H996 H 0.38439 0.33127 0.87664 0.0
H997 H 0.39665 0.41518 0.88187 0.0
H998 H 0.38378 0.43659 0.85273 0.0
H999 H 0.34397 0.38644 0.82978 0.0
H1000 H 0.35675 0.36516 0.85939 0.0
H1001 H 0.38588 0.33564 0.92002 0.0
H1002 H 0.3434 0.38327 0.90034 0.0
O1003 O 0.39912 0.38842 0.9126 0.0
H1004 H 0.35977 0.32099 0.94247 0.0
H1005 H 0.31705 0.36857 0.92259 0.0
C1006 C 0.40605 0.35618 0.88457 0.0
C1007 C 0.42668 0.36319 0.88346 0.0
C1008 C 0.44156 0.35085 0.87472 0.0
C1009 C 0.43609 0.33122 0.86679 0.0
C1010 C 0.41534 0.32424 0.86784 0.0
C1011 C 0.40037 0.33674 0.87644 0.0
C1012 C 0.37727 0.38875 0.87305 0.0
C1013 C 0.38506 0.4088 0.87065 0.0
C1014 C 0.37785 0.42098 0.85381 0.0
C1015 C 0.3628 0.41327 0.8389 0.0
C1016 C 0.35534 0.39296 0.84114 0.0
C1017 C 0.36263 0.38076 0.85802 0.0
C1018 C 0.36639 0.36015 0.90791 0.0
C1019 C 0.37069 0.34258 0.92 0.0
C1020 C 0.35572 0.33423 0.9329 0.0
C1021 C 0.33622 0.34353 0.93429 0.0
C1022 C 0.3319 0.36106 0.92198 0.0
C1023 C 0.34689 0.36934 0.90902 0.0
Cu1024 Cu 0.27933 0.27081 0.04435 0.0
N1025 N 0.27567 0.29252 0.02546 0.0
N1026 N 0.28371 0.3124 0.99822 0.0
C1027 C 0.28789 0.29503 0.00908 0.0
C1028 C 0.26813 0.32124 0.00826 0.0
C1029 C 0.26313 0.30887 0.02507 0.0
O1030 O 0.28641 0.24821 0.02601 0.0
C1031 C 0.29422 0.29338 0.07815 0.0
O1032 O 0.27503 0.29985 0.07534 0.0
H1033 H 0.30028 0.28463 1.00578 0.0
H1034 H 0.25159 0.31183 0.03643 0.0
N1035 N 0.25548 0.26374 0.05861 0.0
N1036 N 0.23693 0.24887 0.08346 0.0
C1037 C 0.25611 0.25362 0.07708 0.0
C1038 C 0.23515 0.2656 0.053 0.0
C1039 C 0.22364 0.25639 0.06833 0.0
C1040 C 0.2748 0.23226 0.02334 0.0
O1041 O 0.26186 0.22724 0.03787 0.0
H1042 H 0.27051 0.24915 0.08521 0.0
H1043 H 0.22917 0.2727 0.0386 0.0
O1044 O 0.30054 0.27976 0.06563 0.0
H1045 H 0.26101 0.33569 1.00395 0.0
H1046 H 0.20683 0.25526 0.06825 0.0
Cu1047 Cu 0.76641 0.27818 1.00215 0.0
N1048 N 0.74153 0.28188 0.01802 0.0
N1049 N 0.71922 0.29203 0.04156 0.0
C1050 C 0.73852 0.29459 0.0343 0.0
C1051 C 0.70991 0.27728 0.02926 0.0
C1052 C 0.7237 0.27106 0.01481 0.0
O1053 O 0.78152 0.26674 0.02852 0.0
C1054 C 0.75283 0.30834 0.97111 0.0
O1055 O 0.76351 0.32078 0.98404 0.0
H1056 H 0.7503 0.30515 0.04087 0.0
H1057 H 0.72099 0.25941 1.0028 0.0
N1058 N 0.7908 0.27373 0.98565 0.0
N1059 N 0.81173 0.25893 0.96335 0.0
C1060 C 0.79574 0.25612 0.97611 0.0
C1061 C 0.80399 0.28817 0.97872 0.0
C1062 C 0.81698 0.27906 0.96502 0.0
C1063 C 0.79886 0.27406 0.0359 0.0
O1064 O 0.80766 0.28964 0.02648 0.0
H1065 H 0.78709 0.24184 0.97764 0.0
H1066 H 0.80372 0.30429 0.98281 0.0
O1067 O 0.75128 0.28941 0.97583 0.0
H1068 H 0.69412 0.27153 0.03043 0.0
H1069 H 0.82911 0.28675 0.95665 0.0
Cu1070 Cu 0.7607 0.79255 0.01094 0.0
N1071 N 0.75782 0.81277 0.99015 0.0
N1072 N 0.76658 0.83015 0.96145 0.0
C1073 C 0.77083 0.8141 0.97428 0.0
C1074 C 0.75012 0.83935 0.96962 0.0
C1075 C 0.74466 0.82851 0.9873 0.0
O1076 O 0.76451 0.76742 0.99461 0.0
C1077 C 0.77981 0.81907 0.03927 0.0
O1078 O 0.76309 0.82901 0.03276 0.0
H1079 H 0.78364 0.80374 0.97261 0.0
H1080 H 0.73227 0.83208 0.99752 0.0
N1081 N 0.73765 0.78852 0.02742 0.0
N1082 N 0.72017 0.77524 0.05386 0.0
C1083 C 0.73882 0.77751 0.04532 0.0
C1084 C 0.7175 0.79366 0.02455 0.0
C1085 C 0.70661 0.78531 0.04083 0.0
C1086 C 0.74787 0.7611 0.98464 0.0
O1087 O 0.73048 0.77069 0.98763 0.0
H1088 H 0.75307 0.77068 0.05158 0.0
H1089 H 0.71107 0.8023 0.01131 0.0
O1090 O 0.78308 0.80153 0.03114 0.0
H1091 H 0.74261 0.85295 0.96334 0.0
H1092 H 0.69007 0.78648 0.04287 0.0
Cu1093 Cu 0.26314 0.777 1.00138 0.0
N1094 N 0.25944 0.79717 0.02187 0.0
N1095 N 0.24399 0.81216 0.04855 0.0
C1096 C 0.2437 0.79617 0.03501 0.0
C1097 C 0.26068 0.82376 0.04364 0.0
C1098 C 0.27024 0.81444 0.02721 0.0
O1099 O 0.26477 0.75117 0.0172 0.0
C1100 C 0.24257 0.79914 0.97112 0.0
O1101 O 0.2561 0.81226 0.97992 0.0
H1102 H 0.23202 0.784 0.0343 0.0
H1103 H 0.28394 0.81995 0.01968 0.0
N1104 N 0.28795 0.77809 0.98726 0.0
N1105 N 0.31049 0.76622 0.96462 0.0
C1106 C 0.29099 0.76495 0.97141 0.0
C1107 C 0.3062 0.78826 0.9907 0.0
C1108 C 0.32018 0.78091 0.97674 0.0
C1109 C 0.2803 0.75182 0.03058 0.0
O1110 O 0.29188 0.76861 0.03192 0.0
H1111 H 0.27929 0.75385 0.96578 0.0
H1112 H 0.30943 0.79951 1.00298 0.0
O1113 O 0.2417 0.78097 0.97873 0.0
H1114 H 0.26576 0.83789 0.05142 0.0
H1115 H 0.3363 0.78571 0.97591 0.0
Cu1116 Cu 0.02384 0.25218 0.28389 0.0
N1117 N 0.03916 0.22788 0.28412 0.0
N1118 N 0.06517 0.20718 0.27631 0.0
C1119 C 0.05692 0.22603 0.27401 0.0
C1120 C 0.05189 0.19663 0.28827 0.0
C1121 C 0.03586 0.20945 0.29308 0.0
O1122 O 0.04493 0.27428 0.28368 0.0
C1123 C 0.98967 0.23577 0.26263 0.0
O1124 O 0.99093 0.22509 0.28016 0.0
H1125 H 0.06348 0.23835 0.2649 0.0
H1126 H 0.02277 0.20553 0.30238 0.0
N1127 N 0.00883 0.25599 0.30802 0.0
N1128 N 0.98596 0.2702 0.32879 0.0
C1129 C 0.9953 0.2713 0.31027 0.0
C1130 C 1.00818 0.24481 0.32579 0.0
C1131 C 0.99399 0.25351 0.33861 0.0
C1132 C 0.05817 0.27284 0.29925 0.0
O1133 O 0.05542 0.2583 0.31322 0.0
H1134 H 0.99206 0.28278 0.29829 0.0
H1135 H 0.01731 0.23132 0.32921 0.0
O1136 O 1.00325 0.24999 0.26013 0.0
H1137 H 0.05373 0.18089 0.29341 0.0
H1138 H 0.99007 0.2481 0.35404 0.0
Cu1139 Cu 0.75688 0.03352 0.24204 0.0
N1140 N 0.75781 0.05068 0.21849 0.0
N1141 N 0.77133 0.07427 0.19728 0.0
C1142 C 0.76954 0.06798 0.21732 0.0
C1143 C 0.7602 0.06048 0.18531 0.0
C1144 C 0.75183 0.04596 0.19846 0.0
O1145 O 0.75217 0.05079 0.26639 0.0
C1146 C 0.78826 1.00234 0.252 0.0
O1147 O 0.77887 0.9977 0.2693 0.0
H1148 H 0.77813 0.07482 0.23062 0.0
H1149 H 0.74332 0.03214 0.19366 0.0
N1150 N 0.73408 0.0152 0.23953 0.0
N1151 N 0.71481 0.98705 0.24586 0.0
C1152 C 0.73418 0.99497 0.24405 0.0
C1153 C 0.71385 0.02021 0.23792 0.0
C1154 C 0.70193 1.0029 0.24179 0.0
C1155 C 0.76427 0.06463 0.27448 0.0
O1156 O 0.78359 0.06594 0.26877 0.0
H1157 H 0.74818 0.98648 0.24741 0.0
H1158 H 0.70824 0.03565 0.23553 0.0
O1159 O 0.78245 0.01786 0.24118 0.0
H1160 H 0.75906 0.06033 0.16827 0.0
H1161 H 0.68516 1.00234 0.24252 0.0
Cu1162 Cu 0.99822 0.75808 0.26791 0.0
N1163 N 0.98696 0.78437 0.26699 0.0
N1164 N 0.96694 0.81012 0.25534 0.0
C1165 C 0.97204 0.79028 0.2528 0.0
C1166 C 0.97917 0.81697 0.27183 0.0
C1167 C 0.99161 0.80106 0.27892 0.0
O1168 O 0.97527 0.73837 0.27138 0.0
C1169 C 0.02998 0.76813 0.24305 0.0
O1170 O 0.03351 0.78018 0.25946 0.0
H1171 H 0.96501 0.78011 0.24088 0.0
H1172 H 1.0034 0.80175 0.29164 0.0
N1173 N 0.01723 0.7546 0.29085 0.0
N1174 N 0.04625 0.74457 0.3085 0.0
C1175 C 0.03467 0.74352 0.29023 0.0
C1176 C 0.01754 0.76271 0.31034 0.0
C1177 C 0.03552 0.75664 0.32124 0.0
C1178 C 0.96359 0.74293 0.2863 0.0
O1179 O 0.96783 0.75988 0.29701 0.0
H1180 H 0.03918 0.73555 0.27627 0.0
H1181 H 1.00576 0.7726 0.31613 0.0
O1182 O 0.01417 0.75597 0.24259 0.0
H1183 H 0.97949 0.83249 0.27798 0.0
H1184 H 0.04036 0.76091 0.33721 0.0
Cu1185 Cu 0.24414 0.98565 0.28116 0.0
N1186 N 0.24311 1.00329 0.30415 0.0
N1187 N 0.25501 0.02836 0.3258 0.0
C1188 C 0.25991 0.01401 0.31166 0.0
C1189 C 0.23418 0.02656 0.32727 0.0
C1190 C 0.22685 0.01105 0.31383 0.0
O1191 O 0.24489 1.00462 0.25734 0.0
C1192 C 0.26733 0.95873 0.3047 0.0
O1193 O 0.25125 0.96203 0.3161 0.0
H1194 H 0.27524 0.01217 0.30572 0.0
H1195 H 0.21076 1.00653 0.31055 0.0
N1196 N 0.2207 0.96834 0.27772 0.0
N1197 N 0.19843 0.94551 0.26247 0.0
C1198 C 0.21461 0.95851 0.25975 0.0
C1199 C 0.20784 0.9614 0.2923 0.0
C1200 C 0.19412 0.94721 0.28294 0.0
C1201 C 0.22765 0.01357 0.2531 0.0
O1202 O 0.2112 1.00744 0.26296 0.0
H1203 H 0.22243 0.96031 0.24516 0.0
H1204 H 0.20875 0.9659 0.3087 0.0
O1205 O 0.26815 0.96798 0.28703 0.0
H1206 H 0.22482 0.03612 0.33685 0.0
H1207 H 0.18205 0.93869 0.2906 0.0
Cu1208 Cu 0.02055 0.76708 0.75664 0.0
N1209 N 0.0375 0.74398 0.75612 0.0
N1210 N 0.06484 0.72566 0.74689 0.0
C1211 C 0.05571 0.7442 0.74656 0.0
C1212 C 0.0517 0.7132 0.75712 0.0
C1213 C 0.03483 0.72455 0.76279 0.0
O1214 O 0.04014 0.79011 0.75985 0.0
C1215 C 0.98797 0.75289 0.73196 0.0
O1216 O 0.98771 0.74075 0.74845 0.0
H1217 H 0.06179 0.75772 0.73893 0.0
H1218 H 0.02146 0.71893 0.77084 0.0
N1219 N 1.00264 0.7686 0.77901 0.0
N1220 N 0.97724 0.78161 0.79762 0.0
C1221 C 0.98876 0.78371 0.78054 0.0
C1222 C 0.99988 0.75632 0.79569 0.0
C1223 C 0.9842 0.76431 0.80721 0.0
C1224 C 0.04926 0.79087 0.77813 0.0
O1225 O 0.04379 0.77741 0.7923 0.0
H1226 H 0.98701 0.79586 0.76901 0.0
H1227 H 0.00864 0.74261 0.79926 0.0
O1228 O 1.00239 0.7665 0.73118 0.0
H1229 H 0.05404 0.69705 0.7603 0.0
H1230 H 0.97862 0.758 0.82166 0.0
Cu1231 Cu 0.27147 0.04504 0.76597 0.0
N1232 N 0.2699 0.06338 0.74334 0.0
N1233 N 0.28023 0.08895 0.72245 0.0
C1234 C 0.28433 0.07817 0.74031 0.0
C1235 C 0.26239 0.08047 0.71392 0.0
C1236 C 0.25608 0.06471 0.72684 0.0
O1237 O 0.27385 0.06269 0.79082 0.0
C1238 C 0.30335 0.01419 0.77241 0.0
O1239 O 0.2975 0.0119 0.79178 0.0
H1240 H 0.29793 0.08051 0.75081 0.0
H1241 H 0.24256 0.05477 0.7242 0.0
N1242 N 0.24801 0.02744 0.76672 0.0
N1243 N 0.22878 0.99965 0.77459 0.0
C1244 C 0.24812 0.00797 0.77394 0.0
C1245 C 0.22782 0.03165 0.76248 0.0
C1246 C 0.21593 0.01455 0.7673 0.0
C1247 C 0.26084 0.06243 0.8053 0.0
O1248 O 0.24743 0.04707 0.80619 0.0
H1249 H 0.26207 1.00029 0.77941 0.0
H1250 H 0.22209 0.04631 0.75693 0.0
O1251 O 0.29537 0.02821 0.76081 0.0
H1252 H 0.25444 0.08524 0.69938 0.0
H1253 H 0.19912 0.01336 0.76575 0.0
Cu1254 Cu 0.02522 0.27533 0.79756 0.0
N1255 N 1.00831 0.29838 0.80025 0.0
N1256 N 0.98334 0.32064 0.79083 0.0
C1257 C 0.9921 0.30246 0.78674 0.0
C1258 C 0.99454 0.32836 0.80765 0.0
C1259 C 0.00989 0.31452 0.8135 0.0
O1260 O 1.00607 0.25187 0.79325 0.0
C1261 C 0.05456 0.298 0.77887 0.0
O1262 O 0.05357 0.30657 0.79749 0.0
H1263 H 0.98733 0.29256 0.77363 0.0
H1264 H 0.02168 0.31637 0.82614 0.0
N1265 N 0.04304 0.26991 0.82114 0.0
N1266 N 0.07111 0.25816 0.83947 0.0
C1267 C 0.06162 0.26073 0.82021 0.0
C1268 C 0.04058 0.27329 0.84173 0.0
C1269 C 0.05786 0.26605 0.85308 0.0
C1270 C 0.9918 0.25123 0.80646 0.0
O1271 O 0.99191 0.26517 0.8214 0.0
H1272 H 0.06784 0.25573 0.8056 0.0
H1273 H 0.02718 0.28044 0.84804 0.0
O1274 O 0.0431 0.2822 0.77463 0.0
H1275 H 0.99195 0.343 0.81507 0.0
H1276 H 0.06051 0.26677 0.87 0.0
Cu1277 Cu 0.752 0.015 0.75292 0.0
N1278 N 0.75424 0.03197 0.77678 0.0
N1279 N 0.76883 0.05597 0.79837 0.0
C1280 C 0.76919 0.0466 0.77943 0.0
C1281 C 0.75289 0.0468 0.80801 0.0
C1282 C 0.74395 0.03199 0.79469 0.0
O1283 O 0.75106 0.03453 0.7295 0.0
C1284 C 0.77636 0.98673 0.77277 0.0
O1285 O 0.76115 0.98901 0.78555 0.0
H1286 H 0.78066 0.04965 0.76791 0.0
H1287 H 0.73138 0.02155 0.79822 0.0
N1288 N 0.72801 0.99804 0.75106 0.0
N1289 N 0.70565 0.97364 0.73864 0.0
C1290 C 0.72497 0.98199 0.73775 0.0
C1291 C 0.71004 0.99978 0.76084 0.0
C1292 C 0.69623 0.98481 0.75319 0.0
C1293 C 0.73413 0.0445 0.72756 0.0
O1294 O 0.71894 0.03943 0.73967 0.0
H1295 H 0.73644 0.97709 0.727 0.0
H1296 H 0.70681 0.01158 0.7721 0.0
O1297 O 0.7759 0.99684 0.75556 0.0
H1298 H 0.74816 0.05026 0.82369 0.0
H1299 H 0.68038 0.98254 0.75777 0.0
Cu1300 Cu 0.26581 0.78355 0.5245 0.0
N1301 N 0.26135 0.80628 0.54154 0.0
N1302 N 0.26813 0.82847 0.56805 0.0
C1303 C 0.27222 0.80991 0.55986 0.0
C1304 C 0.254 0.83684 0.55425 0.0
C1305 C 0.24983 0.82309 0.5379 0.0
O1306 O 0.27046 0.76139 0.54476 0.0
C1307 C 0.29917 0.78042 0.4955 0.0
O1308 O 0.29625 0.76039 0.49551 0.0
H1309 H 0.2838 0.79952 0.56645 0.0
H1310 H 0.23974 0.82549 0.52402 0.0
N1311 N 0.24303 0.77717 0.5059 0.0
N1312 N 0.22553 0.7626 0.47825 0.0
C1313 C 0.24432 0.76867 0.48667 0.0
C1314 C 0.22263 0.77673 0.50969 0.0
C1315 C 0.21179 0.76767 0.49268 0.0
C1316 C 0.25888 0.74533 0.54541 0.0
O1317 O 0.24684 0.74032 0.52886 0.0
H1318 H 0.25886 0.76589 0.47947 0.0
H1319 H 0.21623 0.78168 0.52422 0.0
O1320 O 0.289 0.79155 0.50767 0.0
H1321 H 0.24747 0.85197 0.55562 0.0
H1322 H 0.19519 0.76461 0.49127 0.0
Cu1323 Cu 0.74117 0.76631 0.48883 0.0
N1324 N 0.73953 0.74226 0.47292 0.0
N1325 N 0.74988 0.71868 0.4503 0.0
C1326 C 0.75139 0.73849 0.45655 0.0
C1327 C 0.73641 0.70966 0.46322 0.0
C1328 C 0.73009 0.72425 0.4772 0.0
O1329 O 0.74319 0.78833 0.46792 0.0
C1330 C 0.77355 0.77311 0.52266 0.0
O1331 O 0.76736 0.79208 0.52488 0.0
H1332 H 0.76208 0.74973 0.45038 0.0
H1333 H 0.72026 0.72163 0.49027 0.0
N1334 N 0.71739 0.76882 0.50448 0.0
N1335 N 0.696 0.77861 0.52922 0.0
C1336 C 0.71565 0.77932 0.52258 0.0
C1337 C 0.69821 0.76121 0.49947 0.0
C1338 C 0.68502 0.76718 0.51467 0.0
C1339 C 0.72852 0.80095 0.46396 0.0
O1340 O 0.71333 0.80205 0.47692 0.0
H1341 H 0.72849 0.7874 0.53065 0.0
H1342 H 0.69402 0.75234 0.48547 0.0
O1343 O 0.76525 0.76186 0.50805 0.0
H1344 H 0.73204 0.69353 0.46309 0.0
H1345 H 0.66848 0.76385 0.5146 0.0
Cu1346 Cu 0.77448 0.27033 0.52666 0.0
N1347 N 0.77154 0.24546 0.51184 0.0
N1348 N 0.76147 0.22485 0.48493 0.0
C1349 C 0.76502 0.24436 0.49142 0.0
C1350 C 0.76585 0.21308 0.50202 0.0
C1351 C 0.77212 0.22587 0.51864 0.0
O1352 O 0.77932 0.29156 0.50558 0.0
C1353 C 0.7353 0.26079 0.54358 0.0
O1354 O 0.73153 0.24973 0.5265 0.0
H1355 H 0.76187 0.25777 0.48178 0.0
H1356 H 0.77592 0.22129 0.53471 0.0
N1357 N 0.79744 0.27134 0.54578 0.0
N1358 N 0.81846 0.28476 0.57154 0.0
C1359 C 0.80266 0.28818 0.55726 0.0
C1360 C 0.81038 0.25659 0.55296 0.0
C1361 C 0.82339 0.26485 0.5689 0.0
C1362 C 0.79501 0.28746 0.4949 0.0
O1363 O 0.80577 0.27102 0.49986 0.0
H1364 H 0.79435 0.30246 0.55568 0.0
H1365 H 0.81004 0.24088 0.5474 0.0
O1366 O 0.75084 0.27323 0.54443 0.0
H1367 H 0.7643 0.19651 0.50257 0.0
H1368 H 0.83542 0.25677 0.57791 0.0
Cu1369 Cu 0.25724 0.26932 0.52074 0.0
N1370 N 0.23381 0.27213 0.53685 0.0
N1371 N 0.21231 0.28371 0.56065 0.0
C1372 C 0.23182 0.2844 0.5537 0.0
C1373 C 0.20164 0.27043 0.54766 0.0
C1374 C 0.21491 0.26336 0.53302 0.0
O1375 O 0.28226 0.26644 0.53885 0.0
C1376 C 0.24477 0.30423 0.49619 0.0
O1377 O 0.23085 0.30693 0.51029 0.0
H1378 H 0.24411 0.29433 0.56018 0.0
H1379 H 0.21093 0.2529 0.52017 0.0
N1380 N 0.25565 0.24477 0.50566 0.0
N1381 N 0.26545 0.221 0.48283 0.0
C1382 C 0.2664 0.24105 0.48848 0.0
C1383 C 0.24747 0.22655 0.51116 0.0
C1384 C 0.25337 0.21189 0.49708 0.0
C1385 C 0.29025 0.27826 0.55311 0.0
O1386 O 0.28238 0.29645 0.55609 0.0
H1387 H 0.27549 0.2528 0.48097 0.0
H1388 H 0.23887 0.22388 0.52512 0.0
O1389 O 0.25855 0.29057 0.49928 0.0
H1390 H 0.18536 0.26621 0.54854 0.0
H1391 H 0.25002 0.1956 0.49815 0.0
Cu1392 Cu 0.79308 0.54425 0.75823 0.0
N1393 N 0.81434 0.56401 0.75566 0.0
N1394 N 0.83107 0.59003 0.7403 0.0
C1395 C 0.81747 0.5741 0.73756 0.0
C1396 C 0.83673 0.58993 0.76107 0.0
C1397 C 0.82634 0.57388 0.77051 0.0
O1398 O 0.7683 0.56052 0.76274 0.0
C1399 C 0.81164 0.5188 0.73121 0.0
O1400 O 0.82752 0.52629 0.74272 0.0
H1401 H 0.80893 0.57052 0.72288 0.0
H1402 H 0.82675 0.57031 0.78714 0.0
N1403 N 0.79608 0.52588 0.78071 0.0
N1404 N 0.7873 0.49798 0.7991 0.0
C1405 C 0.78164 0.5111 0.78351 0.0
C1406 C 0.81168 0.52211 0.795 0.0
C1407 C 0.80627 0.50487 0.80643 0.0
C1408 C 0.76735 0.56728 0.78155 0.0
O1409 O 0.7816 0.56156 0.79578 0.0
H1410 H 0.76767 0.5095 0.77339 0.0
H1411 H 0.82615 0.5308 0.79655 0.0
O1412 O 0.79348 0.5256 0.73409 0.0
H1413 H 0.84723 0.60093 0.76897 0.0
H1414 H 0.81578 0.4978 0.81885 0.0
Cu1415 Cu 0.28278 0.50796 0.76039 0.0
N1416 N 0.30715 0.49274 0.76282 0.0
N1417 N 0.32934 0.46981 0.77681 0.0
C1418 C 0.31023 0.47797 0.77736 0.0
C1419 C 0.3387 0.47996 0.76124 0.0
C1420 C 0.32492 0.49411 0.75259 0.0
O1421 O 0.25943 0.48825 0.75888 0.0
C1422 C 0.29908 0.54137 0.78113 0.0
O1423 O 0.31075 0.53966 0.76487 0.0
H1424 H 0.2988 0.4738 0.7886 0.0
H1425 H 0.3278 0.50484 0.74004 0.0
N1426 N 0.28008 0.52405 0.73612 0.0
N1427 N 0.27055 0.55179 0.71755 0.0
C1428 C 0.26953 0.54168 0.73595 0.0
C1429 C 0.28785 0.52259 0.71692 0.0
C1430 C 0.28192 0.53976 0.70535 0.0
C1431 C 0.26134 0.47418 0.74513 0.0
O1432 O 0.2781 0.4744 0.73414 0.0
H1433 H 0.26152 0.54713 0.74938 0.0
H1434 H 0.2975 0.51025 0.71188 0.0
O1435 O 0.28472 0.52789 0.78359 0.0
H1436 H 0.35438 0.47746 0.75651 0.0
H1437 H 0.28626 0.54345 0.68955 0.0
Cu1438 Cu 0.28418 0.52824 0.27564 0.0
N1439 N 0.28185 0.51163 0.2995 0.0
N1440 N 0.2688 0.48462 0.31658 0.0
C1441 C 0.26669 0.49721 0.29978 0.0
C1442 C 0.28598 0.49173 0.32758 0.0
C1443 C 0.29406 0.5084 0.31696 0.0
O1444 O 0.29005 0.50808 0.25376 0.0
C1445 C 0.25561 0.55361 0.29125 0.0
O1446 O 0.26801 0.54964 0.30773 0.0
H1447 H 0.25469 0.49573 0.28732 0.0
H1448 H 0.30829 0.51683 0.32115 0.0
N1449 N 0.30566 0.54792 0.27571 0.0
N1450 N 0.32323 0.57429 0.26203 0.0
C1451 C 0.30602 0.56218 0.26043 0.0
C1452 C 0.32328 0.55108 0.28768 0.0
C1453 C 0.33424 0.56733 0.27918 0.0
C1454 C 0.30675 0.49848 0.25896 0.0
O1455 O 0.31766 0.50461 0.27589 0.0
H1456 H 0.29416 0.56301 0.24778 0.0
H1457 H 0.32813 0.54195 0.3012 0.0
O1458 O 0.25902 0.54493 0.27373 0.0
H1459 H 0.29288 0.48481 0.34168 0.0
H1460 H 0.34922 0.57335 0.28502 0.0
Cu1461 Cu 0.77098 0.49763 0.24299 0.0
N1462 N 0.79443 0.48116 0.24686 0.0
N1463 N 0.81562 0.45859 0.26312 0.0
C1464 C 0.79746 0.46863 0.26353 0.0
C1465 C 0.82443 0.46519 0.24542 0.0
C1466 C 0.81126 0.47909 0.23537 0.0
O1467 O 0.74635 0.47957 0.24216 0.0
C1468 C 0.78974 0.52946 0.26397 0.0
O1469 O 0.80223 0.52595 0.24869 0.0
H1470 H 0.78663 0.46731 0.27596 0.0
H1471 H 0.81381 0.48719 0.22085 0.0
N1472 N 0.76963 0.51281 0.21791 0.0
N1473 N 0.76131 0.53963 0.19732 0.0
C1474 C 0.76494 0.53289 0.21716 0.0
C1475 C 0.76874 0.5065 0.19769 0.0
C1476 C 0.76355 0.52308 0.18491 0.0
C1477 C 0.74793 0.46289 0.23183 0.0
O1478 O 0.76563 0.45896 0.22335 0.0
H1479 H 0.76286 0.54214 0.23101 0.0
H1480 H 0.7707 0.4908 0.19268 0.0
O1481 O 0.77362 0.51796 0.26554 0.0
H1482 H 0.83925 0.46027 0.24004 0.0
H1483 H 0.7611 0.52287 0.16794 0.0
Cu1484 Cu 0.5349 0.26974 0.78171 0.0
N1485 N 0.52144 0.27125 0.80718 0.0
N1486 N 0.49892 0.28241 0.83013 0.0
C1487 C 0.50698 0.28526 0.81113 0.0
C1488 C 0.50875 0.26593 0.83849 0.0
C1489 C 0.5227 0.2591 0.82432 0.0
O1490 O 0.51276 0.26715 0.75953 0.0
C1491 C 0.56573 0.29594 0.79688 0.0
O1492 O 0.56372 0.28305 0.81257 0.0
H1493 H 0.50213 0.29702 0.79998 0.0
H1494 H 0.53295 0.24619 0.82638 0.0
N1495 N 0.55195 0.24689 0.77962 0.0
N1496 N 0.57755 0.22788 0.76764 0.0
C1497 C 0.56856 0.24649 0.76757 0.0
C1498 C 0.55026 0.22783 0.78763 0.0
C1499 C 0.56612 0.2161 0.78036 0.0
C1500 C 0.49922 0.25318 0.76313 0.0
O1501 O 0.50176 0.24215 0.78034 0.0
H1502 H 0.57384 0.25968 0.75884 0.0
H1503 H 0.53809 0.22263 0.79757 0.0
O1504 O 0.55367 0.29364 0.78044 0.0
H1505 H 0.50621 0.25939 0.85382 0.0
H1506 H 0.56862 0.19999 0.78367 0.0
Cu1507 Cu 0.51216 0.76837 0.78113 0.0
N1508 N 0.5309 0.76395 0.80418 0.0
N1509 N 0.55975 0.75271 0.82158 0.0
C1510 C 0.5492 0.75443 0.80274 0.0
C1511 C 0.54735 0.76153 0.83547 0.0
C1512 C 0.52958 0.7684 0.82471 0.0
O1513 O 0.52897 0.77083 0.75649 0.0
C1514 C 0.47774 0.74862 0.79517 0.0
O1515 O 0.47956 0.76471 0.80765 0.0
H1516 H 0.55463 0.74913 0.78791 0.0
H1517 H 0.51662 0.77599 0.83139 0.0
N1518 N 0.49795 0.7932 0.78216 0.0
N1519 N 0.47497 0.8171 0.77183 0.0
C1520 C 0.48267 0.79836 0.76802 0.0
C1521 C 0.50015 0.80921 0.79552 0.0
C1522 C 0.48593 0.82398 0.78921 0.0
C1523 C 0.54311 0.78474 0.759 0.0
O1524 O 0.54438 0.79507 0.77679 0.0
H1525 H 0.47722 0.78833 0.75526 0.0
H1526 H 0.51137 0.81015 0.80875 0.0
O1527 O 0.49109 0.74634 0.78121 0.0
H1528 H 0.55064 0.76285 0.85227 0.0
H1529 H 0.48415 0.83877 0.79661 0.0
Cu1530 Cu 0.51482 0.74711 0.26062 0.0
N1531 N 0.49739 0.74811 0.28328 0.0
N1532 N 0.47275 0.76045 0.30324 0.0
C1533 C 0.48253 0.76224 0.285 0.0
C1534 C 0.48184 0.74441 0.31334 0.0
C1535 C 0.49706 0.73686 0.30101 0.0
O1536 O 0.49648 0.74483 0.23525 0.0
C1537 C 0.54379 0.77249 0.28034 0.0
O1538 O 0.53965 0.75919 0.29516 0.0
H1539 H 0.47914 0.77371 0.27307 0.0
H1540 H 0.50754 0.72451 0.30506 0.0
N1541 N 0.53263 0.72462 0.26093 0.0
N1542 N 0.55981 0.70629 0.25149 0.0
C1543 C 0.5498 0.72433 0.24973 0.0
C1544 C 0.53165 0.70609 0.27027 0.0
C1545 C 0.54845 0.69477 0.26451 0.0
C1546 C 0.48633 0.72783 0.23406 0.0
O1547 O 0.48916 0.7144 0.2493 0.0
H1548 H 0.55483 0.73728 0.24049 0.0
H1549 H 0.51938 0.70093 0.2801 0.0
O1550 O 0.53361 0.77099 0.26263 0.0
H1551 H 0.47832 0.73896 0.32886 0.0
H1552 H 0.5517 0.67911 0.26916 0.0
Cu1553 Cu 0.50947 0.24523 0.27115 0.0
N1554 N 0.49185 0.22204 0.27295 0.0
N1555 N 0.46637 0.20185 0.2847 0.0
C1556 C 0.47686 0.21996 0.2869 0.0
C1557 C 0.47521 0.19216 0.26871 0.0
C1558 C 0.49088 0.20464 0.26149 0.0
O1559 O 0.49193 0.26944 0.27367 0.0
C1560 C 0.54421 0.22583 0.28665 0.0
O1561 O 0.53759 0.21436 0.2706 0.0
H1562 H 0.47394 0.23148 0.2986 0.0
H1563 H 0.50087 0.20118 0.24884 0.0
N1564 N 0.52111 0.24864 0.24503 0.0
N1565 N 0.54093 0.26407 0.22162 0.0
C1566 C 0.53553 0.26333 0.24182 0.0
C1567 C 0.51712 0.23963 0.22617 0.0
C1568 C 0.52947 0.24907 0.21168 0.0
C1569 C 0.47616 0.26892 0.26058 0.0
O1570 O 0.47354 0.25281 0.24822 0.0
H1571 H 0.54178 0.27343 0.25419 0.0
H1572 H 0.50567 0.22755 0.22299 0.0
O1573 O 0.5335 0.24149 0.2911 0.0
H1574 H 0.4706 0.17721 0.26248 0.0
H1575 H 0.52944 0.24565 0.19502 0.0
C1576 C 0.20931 0.21421 0.12093 0.0
C1577 C 0.22363 0.21395 0.13841 0.0
H1578 H 0.20225 0.22554 0.08975 0.0
C1579 C 0.24217 0.22559 0.1375 0.0
H1580 H 0.19477 0.2056 0.12116 0.0
C1581 C 0.24632 0.23717 0.11966 0.0
C1582 C 0.2321 0.23741 0.10213 0.0
H1583 H 0.25367 0.2256 0.15055 0.0
H1584 H 0.26069 0.24604 0.11971 0.0
C1585 C 0.21347 0.22586 0.10301 0.0
C1586 C 0.84152 0.25204 0.07178 0.0
C1587 C 0.83033 0.24399 0.08852 0.0
H1588 H 0.84036 0.26812 0.04232 0.0
C1589 C 0.8086 0.24684 0.08798 0.0
H1590 H 0.8581 0.24989 0.0711 0.0
C1591 C 0.79835 0.25656 0.07087 0.0
C1592 C 0.80963 0.26434 0.05426 0.0
H1593 H 0.79934 0.24152 0.10069 0.0
H1594 H 0.7816 0.25815 0.07073 0.0
C1595 C 0.83133 0.26237 0.05506 0.0
C1596 C 0.81477 0.82524 0.08915 0.0
C1597 C 0.81411 0.84668 0.09248 0.0
H1598 H 0.80472 0.79957 0.06955 0.0
C1599 C 0.80349 0.8587 0.07716 0.0
H1600 H 0.8227 0.81541 0.10059 0.0
C1601 C 0.79313 0.84961 0.05963 0.0
C1602 C 0.79327 0.82822 0.0566 0.0
H1603 H 0.80314 0.87526 0.07863 0.0
H1604 H 0.78475 0.85942 0.04848 0.0
C1605 C 0.80452 0.81612 0.07134 0.0
C1606 C 0.20181 0.80392 0.08686 0.0
C1607 C 0.198 0.82412 0.09329 0.0
H1608 H 0.2195 0.78425 0.06791 0.0
C1609 C 0.21034 0.8402 0.08549 0.0
H1610 H 0.19258 0.79117 0.09244 0.0
C1611 C 0.22566 0.83627 0.0712 0.0
C1612 C 0.22906 0.81614 0.06429 0.0
H1613 H 0.2081 0.85592 0.09036 0.0
H1614 H 0.23446 0.8491 0.06518 0.0
C1615 C 0.21712 0.79999 0.07255 0.0
C1616 C 0.22207 0.8333 0.92696 0.0
C1617 C 0.21441 0.81915 0.91166 0.0
H1618 H 0.23641 0.83808 0.95758 0.0
C1619 C 0.21413 0.79808 0.91702 0.0
H1620 H 0.22284 0.84958 0.92351 0.0
C1621 C 0.2222 0.79136 0.93679 0.0
C1622 C 0.23075 0.80558 0.95157 0.0
H1623 H 0.20806 0.78671 0.90579 0.0
H1624 H 0.22252 0.77505 0.94013 0.0
C1625 C 0.23005 0.82663 0.94656 0.0
C1626 C 0.2485 0.20379 0.97715 0.0
C1627 C 0.25718 0.21376 0.95996 0.0
H1628 H 0.2476 0.20142 0.01064 0.0
C1629 C 0.27392 0.22767 0.96393 0.0
H1630 H 0.23557 0.19304 0.97474 0.0
C1631 C 0.28081 0.23255 0.98459 0.0
C1632 C 0.27113 0.22363 1.0018 0.0
H1633 H 0.28132 0.23527 0.95106 0.0
H1634 H 0.293 0.24411 0.98703 0.0
C1635 C 0.25542 0.20863 0.9978 0.0
C1636 C 0.82912 0.20863 0.94172 0.0
C1637 C 0.83708 0.21478 0.92247 0.0
H1638 H 0.81476 0.21792 0.96984 0.0
C1639 C 0.83646 0.23566 0.91689 0.0
H1640 H 0.82929 0.19263 0.9464 0.0
C1641 C 0.82825 0.2501 0.93032 0.0
C1642 C 0.82027 0.24399 0.94957 0.0
H1643 H 0.84266 0.24091 0.90227 0.0
H1644 H 0.82793 0.26604 0.9255 0.0
C1645 C 0.82068 0.22307 0.95507 0.0
C1646 C 0.80175 0.82821 0.91606 0.0
C1647 C 0.80398 0.84912 0.91092 0.0
H1648 H 0.78785 0.80579 0.93581 0.0
C1649 C 0.79263 0.86358 0.92196 0.0
H1650 H 0.80989 0.81659 0.90765 0.0
C1651 C 0.77987 0.85734 0.93808 0.0
C1652 C 0.77824 0.8365 0.94366 0.0
H1653 H 0.79414 0.87984 0.91867 0.0
H1654 H 0.77191 0.86892 0.94669 0.0
C1655 C 0.78908 0.822 0.93222 0.0
C1656 C 0.11815 0.20773 0.25391 0.0
C1657 C 0.12121 0.18678 0.2499 0.0
H1658 H 0.09837 0.23053 0.26583 0.0
C1659 C 0.10566 0.17252 0.25522 0.0
H1660 H 0.12999 0.2191 0.25051 0.0
C1661 C 0.08736 0.17912 0.26402 0.0
C1662 C 0.08421 0.20013 0.26775 0.0
H1663 H 0.10748 0.15628 0.25224 0.0
H1664 H 0.07553 0.16779 0.26752 0.0
C1665 C 0.09995 0.2143 0.26273 0.0
C1666 C 0.81224 0.10142 0.16711 0.0
C1667 C 0.81477 0.12024 0.17804 0.0
H1668 H 0.79627 0.07228 0.16447 0.0
C1669 C 0.80223 0.12367 0.19522 0.0
H1670 H 0.82185 0.0978 0.15417 0.0
C1671 C 0.78789 0.10868 0.20139 0.0
C1672 C 0.78536 0.09008 0.1903 0.0
H1673 H 0.80328 0.13802 0.20384 0.0
H1674 H 0.7786 0.11167 0.21476 0.0
C1675 C 0.79758 0.08667 0.17301 0.0
C1676 C 0.92682 0.84904 0.23878 0.0
C1677 C 0.923 0.84413 0.21739 0.0
H1678 H 0.94391 0.84207 0.26766 0.0
C1679 C 0.93376 0.82778 0.20878 0.0
H1680 H 0.91888 0.86167 0.24581 0.0
C1681 C 0.94805 0.81661 0.22125 0.0
C1682 C 0.95205 0.82161 0.2426 0.0
H1683 H 0.93104 0.82353 0.19238 0.0
H1684 H 0.95623 0.80425 0.21405 0.0
C1685 C 0.94129 0.83797 0.25123 0.0
C1686 C 0.17664 0.92467 0.21077 0.0
C1687 C 0.1705 0.90468 0.21639 0.0
H1688 H 0.19057 0.95333 0.22116 0.0
C1689 C 0.17347 0.8984 0.23745 0.0
H1690 H 0.17455 0.92985 0.19462 0.0
C1691 C 0.1823 0.91192 0.25265 0.0
C1692 C 0.18871 0.93182 0.24699 0.0
H1693 H 0.16875 0.88311 0.24219 0.0
H1694 H 0.1845 0.9067 0.26876 0.0
C1695 C 0.18586 0.93803 0.22589 0.0
C1696 C 0.09306 0.81709 0.80982 0.0
C1697 C 0.10605 0.82409 0.79414 0.0
H1698 H 0.06485 0.80151 0.81696 0.0
C1699 C 0.09898 0.82213 0.77287 0.0
H1700 H 0.09802 0.81811 0.82633 0.0
C1701 C 0.07981 0.81245 0.76744 0.0
C1702 C 0.06747 0.80446 0.78321 0.0
H1703 H 0.1085 0.82763 0.7604 0.0
H1704 H 0.07516 0.81034 0.75096 0.0
C1705 C 0.07405 0.80742 0.80442 0.0
C1706 C 0.26271 0.11818 0.82275 0.0
C1707 C 0.24717 0.11854 0.83756 0.0
H1708 H 0.2795 0.10027 0.80126 0.0
C1709 C 0.23768 0.09981 0.84312 0.0
H1710 H 0.27024 0.13226 0.81784 0.0
C1711 C 0.24292 0.0814 0.83345 0.0
C1712 C 0.25785 0.08122 0.81802 0.0
H1713 H 0.22597 0.09938 0.85477 0.0
H1714 H 0.23481 0.06739 0.83764 0.0
C1715 C 0.26804 0.09977 0.81317 0.0
C1716 C 0.96111 0.20181 0.81205 0.0
C1717 C 0.9411 0.20959 0.81479 0.0
H1718 H 0.99323 0.20909 0.80679 0.0
C1719 C 0.9376 0.23049 0.81062 0.0
H1720 H 0.96435 0.1858 0.81523 0.0
C1721 C 0.95406 0.24369 0.80605 0.0
C1722 C 0.97433 0.23627 0.80509 0.0
H1723 H 0.92231 0.23691 0.81215 0.0
H1724 H 0.95115 0.25999 0.80447 0.0
C1725 C 0.97765 0.21509 0.80719 0.0
C1726 C 0.81661 0.94462 0.77544 0.0
C1727 C 0.82327 0.94561 0.79688 0.0
H1728 H 0.79681 0.95748 0.75057 0.0
C1729 C 0.81566 0.96129 0.80943 0.0
H1730 H 0.82223 0.9327 0.76541 0.0
C1731 C 0.80115 0.9751 0.80108 0.0
C1732 C 0.79407 0.97389 0.77987 0.0
H1733 H 0.82022 0.96234 0.82603 0.0
H1734 H 0.795 0.9865 0.81142 0.0
C1735 C 0.80226 0.95886 0.76691 0.0
C1736 C 0.24218 0.06471 0.22849 0.0
C1737 C 0.22241 0.0736 0.22511 0.0
H1738 H 0.2595 0.03861 0.23978 0.0
C1739 C 0.20468 0.06128 0.22828 0.0
H1740 H 0.25622 0.07352 0.22581 0.0
C1741 C 0.20661 0.04125 0.23586 0.0
C1742 C 0.2263 0.03291 0.24073 0.0
H1743 H 0.18919 0.06744 0.22615 0.0
H1744 H 0.19252 0.03267 0.23897 0.0
C1745 C 0.2441 0.04458 0.23626 0.0
C1746 C 0.23302 0.94456 0.79238 0.0
C1747 C 0.21296 0.94034 0.79924 0.0
H1748 H 0.25358 0.96623 0.77867 0.0
C1749 C 0.19809 0.95596 0.79769 0.0
H1750 H 0.24473 0.93278 0.79292 0.0
C1751 C 0.20319 0.97531 0.78954 0.0
C1752 C 0.22327 0.97954 0.78264 0.0
H1753 H 0.18253 0.95328 0.80297 0.0
H1754 H 0.19142 0.98701 0.78896 0.0
C1755 C 0.23808 0.96383 0.78414 0.0
C1756 C 0.11526 0.23106 0.86868 0.0
C1757 C 0.13055 0.23084 0.85359 0.0
H1758 H 0.08441 0.23965 0.87601 0.0
C1759 C 0.12584 0.23985 0.83383 0.0
H1760 H 0.11817 0.22408 0.88398 0.0
C1761 C 0.10645 0.24874 0.82926 0.0
C1762 C 0.09116 0.24897 0.84431 0.0
H1763 H 0.1373 0.24044 0.82194 0.0
H1764 H 0.10363 0.25578 0.81399 0.0
C1765 C 0.09585 0.24002 0.86411 0.0
C1766 C 0.81061 0.09731 0.80186 0.0
C1767 C 0.81428 0.09939 0.82375 0.0
H1768 H 0.79317 0.08224 0.77664 0.0
C1769 C 0.80197 0.08763 0.8371 0.0
H1770 H 0.81982 0.10604 0.79107 0.0
C1771 C 0.78686 0.07374 0.82883 0.0
C1772 C 0.78355 0.07124 0.80694 0.0
H1773 H 0.80405 0.08908 0.85405 0.0
H1774 H 0.77814 0.06463 0.83967 0.0
C1775 C 0.79545 0.08344 0.79357 0.0
C1776 C 0.94553 0.82917 0.80363 0.0
C1777 C 0.93014 0.82243 0.8171 0.0
H1778 H 0.97259 0.82183 0.78728 0.0
C1779 C 0.9303 0.80181 0.82379 0.0
H1780 H 0.94578 0.84484 0.79793 0.0
C1781 C 0.94567 0.78841 0.81744 0.0
C1782 C 0.96121 0.79527 0.80416 0.0
H1783 H 0.91881 0.79612 0.83432 0.0
H1784 H 0.94529 0.77267 0.82288 0.0
C1785 C 0.96084 0.81583 0.7973 0.0
C1786 C 0.81182 0.95159 0.23662 0.0
C1787 C 0.8222 0.95717 0.21845 0.0
H1788 H 0.79339 0.96151 0.26183 0.0
C1789 C 0.82282 0.97805 0.2127 0.0
H1790 H 0.81125 0.93572 0.24168 0.0
C1791 C 0.81276 0.99281 0.22432 0.0
C1792 C 0.80182 0.98718 0.24209 0.0
H1793 H 0.83046 0.98294 0.19872 0.0
H1794 H 0.81302 0.0086 0.21893 0.0
C1795 C 0.80182 0.96644 0.24836 0.0
C1796 C 0.0809 0.7752 0.21793 0.0
C1797 C 0.07471 0.78448 0.1987 0.0
H1798 H 0.07127 0.76243 0.24699 0.0
C1799 C 0.05334 0.78425 0.19245 0.0
H1800 H 0.09719 0.77466 0.22306 0.0
C1801 C 0.03846 0.7767 0.20606 0.0
C1802 C 0.04474 0.76935 0.22609 0.0
H1803 H 0.04798 0.79137 0.17782 0.0
H1804 H 0.02207 0.7783 0.20169 0.0
C1805 C 0.06608 0.76795 0.23155 0.0
C1806 C 0.94467 0.2069 0.23482 0.0
C1807 C 0.94116 0.21815 0.2162 0.0
H1808 H 0.9624 0.20363 0.26376 0.0
C1809 C 0.95348 0.23589 0.213 0.0
H1810 H 0.9353 0.19335 0.23793 0.0
C1811 C 0.96933 0.24187 0.22795 0.0
C1812 C 0.97294 0.23033 0.24645 0.0
H1813 H 0.95118 0.24483 0.19874 0.0
H1814 H 0.97876 0.25539 0.22499 0.0
C1815 C 0.96024 0.21291 0.2497 0.0
C1816 C 0.23468 0.71187 0.58679 0.0
C1817 C 0.24174 0.72174 0.60557 0.0
H1818 H 0.23488 0.71124 0.55311 0.0
C1819 C 0.25621 0.73813 0.60434 0.0
H1820 H 0.22389 0.69894 0.58711 0.0
C1821 C 0.26282 0.74494 0.58488 0.0
C1822 C 0.25501 0.73567 0.56605 0.0
H1823 H 0.26187 0.7463 0.61838 0.0
H1824 H 0.27332 0.75811 0.58458 0.0
C1825 C 0.2412 0.71877 0.56728 0.0
C1826 C 0.80535 0.7331 0.55279 0.0
C1827 C 0.81379 0.7443 0.57018 0.0
H1828 H 0.78651 0.73336 0.52416 0.0
C1829 C 0.80968 0.76544 0.57136 0.0
H1830 H 0.80854 0.71691 0.55112 0.0
C1831 C 0.797 0.775 0.55574 0.0
C1832 C 0.78832 0.76367 0.53851 0.0
H1833 H 0.81592 0.77451 0.58456 0.0
H1834 H 0.79378 0.79119 0.55734 0.0
C1835 C 0.79286 0.74264 0.53717 0.0
C1836 C 0.8441 0.30677 0.62138 0.0
C1837 C 0.84341 0.32801 0.61731 0.0
H1838 H 0.83682 0.27634 0.61001 0.0
C1839 C 0.83452 0.33466 0.59789 0.0
H1840 H 0.85103 0.30111 0.63609 0.0
C1841 C 0.82655 0.32049 0.58292 0.0
C1842 C 0.82725 0.29925 0.58691 0.0
H1843 H 0.83356 0.35089 0.59428 0.0
H1844 H 0.81999 0.32622 0.5681 0.0
C1845 C 0.83619 0.29255 0.60632 0.0
C1846 C 0.17545 0.31236 0.59356 0.0
C1847 C 0.18868 0.31935 0.61046 0.0
H1848 H 0.17256 0.29582 0.56448 0.0
C1849 C 0.20987 0.31432 0.61069 0.0
H1850 H 0.15913 0.31628 0.59259 0.0
C1851 C 0.2176 0.30259 0.59443 0.0
C1852 C 0.20433 0.29558 0.57757 0.0
H1853 H 0.22046 0.3192 0.62357 0.0
H1854 H 0.23394 0.29879 0.59523 0.0
C1855 C 0.18316 0.30061 0.57737 0.0
C1856 C 0.22135 0.33561 0.451 0.0
C1857 C 0.23025 0.32658 0.43353 0.0
H1858 H 0.21915 0.33586 0.48451 0.0
C1859 C 0.24567 0.31171 0.43722 0.0
H1860 H 0.2098 0.34744 0.44886 0.0
C1861 C 0.25136 0.30541 0.4577 0.0
C1862 C 0.24161 0.31363 0.47504 0.0
H1863 H 0.25273 0.30417 0.42426 0.0
H1864 H 0.26265 0.29332 0.45981 0.0
C1865 C 0.22688 0.32913 0.47149 0.0
C1866 C 0.20233 0.72487 0.43839 0.0
C1867 C 0.21473 0.72834 0.42103 0.0
H1868 H 0.19597 0.73307 0.47008 0.0
C1869 C 0.2306 0.74351 0.42296 0.0
H1870 H 0.19018 0.71315 0.43775 0.0
C1871 C 0.23405 0.75472 0.44164 0.0
C1872 C 0.22156 0.75132 0.45885 0.0
H1873 H 0.24019 0.74707 0.40989 0.0
H1874 H 0.24632 0.76632 0.44251 0.0
C1875 C 0.20562 0.7363 0.45698 0.0
C1876 C 0.78201 0.67929 0.4243 0.0
C1877 C 0.78931 0.69027 0.407 0.0
H1878 H 0.76382 0.67965 0.45155 0.0
C1879 C 0.78272 0.7106 0.40384 0.0
H1880 H 0.78704 0.66377 0.42758 0.0
C1881 C 0.76952 0.71978 0.41781 0.0
C1882 C 0.76244 0.70882 0.43518 0.0
H1883 H 0.78772 0.71945 0.39053 0.0
H1884 H 0.7648 0.73548 0.41501 0.0
C1885 C 0.76867 0.6884 0.43813 0.0
C1886 C 0.81983 0.30068 0.44425 0.0
C1887 C 0.81986 0.32225 0.44429 0.0
H1888 H 0.81176 0.27299 0.46006 0.0
C1889 C 0.80899 0.33245 0.45982 0.0
H1890 H 0.82758 0.29233 0.43224 0.0
C1891 C 0.7996 0.32122 0.47583 0.0
C1892 C 0.8011 0.29971 0.47652 0.0
H1893 H 0.80874 0.34907 0.46027 0.0
H1894 H 0.79228 0.32938 0.48825 0.0
C1895 C 0.8107 0.2896 0.46018 0.0
C1896 C 0.10706 0.69541 0.72247 0.0
C1897 C 0.12206 0.71083 0.71883 0.0
H1898 H 0.07709 0.68798 0.734 0.0
C1899 C 0.11793 0.73109 0.72484 0.0
H1900 H 0.10962 0.67965 0.71793 0.0
C1901 C 0.09934 0.73584 0.73413 0.0
C1902 C 0.08425 0.72049 0.73768 0.0
H1903 H 0.12928 0.74331 0.72279 0.0
H1904 H 0.097 0.75158 0.73882 0.0
C1905 C 0.08839 0.70018 0.73177 0.0
C1906 C 0.84669 0.63977 0.71458 0.0
C1907 C 0.84665 0.63406 0.69322 0.0
H1908 H 0.84193 0.63027 0.7463 0.0
C1909 C 0.84159 0.61357 0.68775 0.0
H1910 H 0.85072 0.65536 0.71938 0.0
C1911 C 0.83664 0.5992 0.70317 0.0
C1912 C 0.83674 0.60485 0.72453 0.0
H1913 H 0.84126 0.60865 0.67146 0.0
H1914 H 0.83289 0.58357 0.69836 0.0
C1915 C 0.84191 0.62532 0.73005 0.0
C1916 C 0.95083 0.36062 0.76256 0.0
C1917 C 0.93559 0.34842 0.75154 0.0
H1918 H 0.97795 0.36137 0.78367 0.0
C1919 C 0.93563 0.32704 0.75496 0.0
H1920 H 0.95155 0.37708 0.76019 0.0
C1921 C 0.95097 0.31805 0.7682 0.0
C1922 C 0.96657 0.33018 0.77862 0.0
H1923 H 0.92392 0.31713 0.7472 0.0
H1924 H 0.95069 0.30153 0.7702 0.0
C1925 C 0.96605 0.35162 0.77601 0.0
C1926 C 0.2351 0.42639 0.72189 0.0
C1927 C 0.21403 0.42948 0.72557 0.0
H1928 H 0.26633 0.43791 0.72533 0.0
C1929 C 0.20876 0.44675 0.73748 0.0
H1930 H 0.23977 0.41346 0.71261 0.0
C1931 C 0.22415 0.46093 0.74487 0.0
C1932 C 0.24506 0.45822 0.74025 0.0
H1933 H 0.19268 0.44948 0.74078 0.0
H1934 H 0.21959 0.47438 0.75343 0.0
C1935 C 0.25035 0.44056 0.72908 0.0
C1936 C 0.09697 0.3173 0.30638 0.0
C1937 C 0.11511 0.30667 0.31294 0.0
H1938 H 0.06441 0.31489 0.29651 0.0
C1939 C 0.11464 0.28508 0.31199 0.0
H1940 H 0.0968 0.33393 0.30684 0.0
C1941 C 0.09627 0.27438 0.30629 0.0
C1942 C 0.07788 0.28488 0.30096 0.0
H1943 H 0.12841 0.27632 0.31617 0.0
H1944 H 0.0963 0.25772 0.30665 0.0
C1945 C 0.07846 0.30646 0.30038 0.0
C1946 C 0.2285 0.60442 0.28452 0.0
C1947 C 0.22027 0.60668 0.30455 0.0
H1948 H 0.24591 0.58542 0.26423 0.0
C1949 C 0.22067 0.5897 0.31821 0.0
H1950 H 0.22856 0.61718 0.27361 0.0
C1951 C 0.23059 0.57167 0.31282 0.0
C1952 C 0.24017 0.56996 0.29353 0.0
H1953 H 0.21404 0.59062 0.33349 0.0
H1954 H 0.23177 0.55938 0.3243 0.0
C1955 C 0.23834 0.58618 0.27904 0.0
C1956 C 0.92795 0.69626 0.29385 0.0
C1957 C 0.9152 0.70353 0.30955 0.0
H1958 H 0.95342 0.70295 0.27407 0.0
C1959 C 0.91752 0.7241 0.316 0.0
H1960 H 0.92654 0.68046 0.28856 0.0
C1961 C 0.93274 0.73683 0.30779 0.0
C1962 C 0.94618 0.72943 0.29284 0.0
H1963 H 0.90769 0.73033 0.3277 0.0
H1964 H 0.9342 0.75247 0.31357 0.0
C1965 C 0.94336 0.7091 0.28559 0.0
C1966 C 0.85354 0.42959 0.29843 0.0
C1967 C 0.84016 0.41884 0.31158 0.0
H1968 H 0.8563 0.45063 0.27278 0.0
C1969 C 0.81855 0.42063 0.30777 0.0
H1970 H 0.87027 0.42834 0.30073 0.0
C1971 C 0.81055 0.43332 0.29164 0.0
C1972 C 0.82394 0.4445 0.27885 0.0
H1973 H 0.80779 0.41268 0.31763 0.0
H1974 H 0.79384 0.43442 0.28927 0.0
C1975 C 0.84554 0.44222 0.28224 0.0
C1976 C 0.2478 0.59724 0.68847 0.0
C1977 C 0.24574 0.61131 0.70503 0.0
H1978 H 0.25749 0.56718 0.67945 0.0
C1979 C 0.25219 0.60545 0.72557 0.0
H1980 H 0.24315 0.60136 0.67243 0.0
C1981 C 0.26048 0.58611 0.7295 0.0
C1982 C 0.26249 0.57196 0.71304 0.0
H1983 H 0.25064 0.61579 0.73873 0.0
H1984 H 0.2655 0.58233 0.74552 0.0
C1985 C 0.2562 0.57777 0.69243 0.0
C1986 C 0.23318 0.43872 0.30702 0.0
C1987 C 0.23363 0.42931 0.3269 0.0
H1988 H 0.24411 0.46305 0.288 0.0
C1989 C 0.24533 0.43883 0.34363 0.0
H1990 H 0.22417 0.432 0.29383 0.0
C1991 C 0.25664 0.45707 0.34038 0.0
C1992 C 0.25654 0.46623 0.32033 0.0
H1993 H 0.24621 0.4319 0.35912 0.0
H1994 H 0.26553 0.4639 0.35356 0.0
C1995 C 0.2445 0.45682 0.30376 0.0
C1996 C 0.10154 0.73861 0.32907 0.0
C1997 C 0.1075 0.72098 0.31825 0.0
H1998 H 0.07739 0.7599 0.33451 0.0
C1999 C 0.09265 0.71068 0.30495 0.0
H2000 H 0.11256 0.74673 0.33965 0.0
C2001 C 0.07246 0.71819 0.30208 0.0
C2002 C 0.06662 0.73607 0.31257 0.0
H2003 H 0.09678 0.6971 0.29635 0.0
H2004 H 0.06143 0.71004 0.29157 0.0
C2005 C 0.08132 0.74603 0.32633 0.0
C2006 C 0.80004 0.56328 0.31192 0.0
C2007 C 0.80897 0.58081 0.30273 0.0
H2008 H 0.78626 0.53322 0.30669 0.0
C2009 C 0.80941 0.58195 0.28073 0.0
H2010 H 0.79941 0.5621 0.32887 0.0
C2011 C 0.80219 0.56548 0.26823 0.0
C2012 C 0.79402 0.54765 0.2774 0.0
H2013 H 0.81629 0.59517 0.27322 0.0
H2014 H 0.80353 0.56646 0.25133 0.0
C2015 C 0.79239 0.54687 0.2993 0.0
C2016 C 0.9557 0.31812 0.33738 0.0
C2017 C 0.94024 0.31098 0.35054 0.0
H2018 H 0.98238 0.31076 0.32021 0.0
C2019 C 0.94007 0.29016 0.35645 0.0
H2020 H 0.95617 0.33404 0.33244 0.0
C2021 C 0.95516 0.27682 0.34949 0.0
C2022 C 0.97057 0.28395 0.33625 0.0
H2023 H 0.92846 0.28424 0.36672 0.0
H2024 H 0.95459 0.26087 0.35425 0.0
C2025 C 0.97062 0.30474 0.33023 0.0
C2026 C 0.84092 0.48244 0.69838 0.0
C2027 C 0.83068 0.46357 0.70188 0.0
H2028 H 0.84252 0.51475 0.70464 0.0
C2029 C 0.81199 0.46371 0.71254 0.0
H2030 H 0.85547 0.48299 0.69052 0.0
C2031 C 0.80434 0.48218 0.72038 0.0
C2032 C 0.81544 0.50074 0.71792 0.0
H2033 H 0.80365 0.44947 0.71539 0.0
H2034 H 0.79066 0.48172 0.72963 0.0
C2035 C 0.83348 0.50071 0.70642 0.0
C2036 C 0.08753 0.30692 0.73148 0.0
C2037 C 0.09447 0.32731 0.73508 0.0
H2038 H 0.06901 0.28157 0.74235 0.0
C2039 C 0.08819 0.33768 0.75294 0.0
H2040 H 0.09212 0.29863 0.71774 0.0
C2041 C 0.07529 0.32798 0.76695 0.0
C2042 C 0.0681 0.30769 0.76339 0.0
H2043 H 0.09345 0.35331 0.75623 0.0
H2044 H 0.07084 0.33655 0.78057 0.0
C2045 C 0.07425 0.29723 0.74545 0.0
C2046 C 0.95883 0.74896 0.67865 0.0
C2047 C 0.93957 0.74067 0.68444 0.0
H2048 H 0.98936 0.75988 0.68929 0.0
C2049 C 0.93602 0.73824 0.7059 0.0
H2050 H 0.96195 0.75105 0.6622 0.0
C2051 C 0.95162 0.74302 0.72117 0.0
C2052 C 0.97111 0.7506 0.71545 0.0
H2053 H 0.92149 0.73168 0.71089 0.0
H2054 H 0.94857 0.74029 0.73755 0.0
C2055 C 0.97444 0.75411 0.69409 0.0
C2056 C 0.72623 0.25564 0.60181 0.0
C2057 C 0.71475 0.23707 0.6023 0.0
H2058 H 0.74152 0.27792 0.5829 0.0
C2059 C 0.70773 0.22801 0.58311 0.0
H2060 H 0.73197 0.26298 0.61631 0.0
C2061 C 0.71307 0.23666 0.56392 0.0
C2062 C 0.72576 0.25447 0.56345 0.0
H2063 H 0.69858 0.21389 0.58293 0.0
H2064 H 0.70813 0.22874 0.5495 0.0
C2065 C 0.73172 0.26421 0.58263 0.0
C2066 C 0.3239 0.2689 0.60288 0.0
C2067 C 0.33395 0.25068 0.59771 0.0
H2068 H 0.30248 0.29226 0.59267 0.0
C2069 C 0.33075 0.24269 0.57724 0.0
H2070 H 0.32621 0.27552 0.61847 0.0
C2071 C 0.31723 0.25221 0.56255 0.0
C2072 C 0.30664 0.27004 0.56788 0.0
H2073 H 0.33805 0.22857 0.57278 0.0
H2074 H 0.31465 0.24523 0.54715 0.0
C2075 C 0.31047 0.27858 0.58805 0.0
C2076 C 0.29831 0.8347 0.62001 0.0
C2077 C 0.30207 0.85607 0.62085 0.0
H2078 H 0.28437 0.80927 0.60282 0.0
C2079 C 0.29331 0.86828 0.60449 0.0
H2080 H 0.30441 0.82481 0.63246 0.0
C2081 C 0.28164 0.85934 0.58755 0.0
C2082 C 0.27854 0.83792 0.58639 0.0
H2083 H 0.29607 0.88473 0.60432 0.0
H2084 H 0.27576 0.86915 0.57495 0.0
C2085 C 0.28677 0.82577 0.60301 0.0
C2086 C 0.68999 0.81658 0.57318 0.0
C2087 C 0.67123 0.80981 0.58147 0.0
H2088 H 0.71241 0.81227 0.54992 0.0
C2089 C 0.66132 0.79206 0.57291 0.0
H2090 H 0.69791 0.83032 0.57927 0.0
C2091 C 0.66965 0.78166 0.55611 0.0
C2092 C 0.68809 0.78874 0.54736 0.0
H2093 H 0.64705 0.78619 0.57918 0.0
H2094 H 0.66157 0.76806 0.54999 0.0
C2095 C 0.69831 0.8062 0.55631 0.0
C2096 C 0.70473 0.83101 0.41785 0.0
C2097 C 0.71661 0.82459 0.40116 0.0
H2098 H 0.69933 0.82885 0.45072 0.0
C2099 C 0.73402 0.81223 0.40585 0.0
H2100 H 0.69117 0.84042 0.41487 0.0
C2101 C 0.73873 0.80556 0.42649 0.0
C2102 C 0.7261 0.81102 0.44296 0.0
H2103 H 0.74376 0.8073 0.39347 0.0
H2104 H 0.75172 0.79537 0.42933 0.0
C2105 C 0.7094 0.82429 0.43846 0.0
C2106 C 0.73081 0.19646 0.44173 0.0
C2107 C 0.73552 0.20824 0.42398 0.0
H2108 H 0.73564 0.19237 0.47514 0.0
C2109 C 0.7494 0.22506 0.42664 0.0
H2110 H 0.72028 0.18333 0.44015 0.0
C2111 C 0.75815 0.23017 0.44653 0.0
C2112 C 0.75334 0.21856 0.46432 0.0
H2113 H 0.75322 0.23458 0.41336 0.0
H2114 H 0.76869 0.24329 0.448 0.0
C2115 C 0.73976 0.20149 0.46169 0.0
C2116 C 0.30608 0.2109 0.44347 0.0
C2117 C 0.30187 0.19025 0.43826 0.0
H2118 H 0.29824 0.23677 0.4618 0.0
C2119 C 0.2847 0.1803 0.44683 0.0
H2120 H 0.31929 0.21893 0.43721 0.0
C2121 C 0.27239 0.19056 0.46084 0.0
C2122 C 0.27706 0.21101 0.46687 0.0
H2123 H 0.28087 0.16446 0.44281 0.0
H2124 H 0.25935 0.1823 0.46707 0.0
C2125 C 0.2939 0.22114 0.45765 0.0
C2126 C 0.32147 0.82181 0.46079 0.0
C2127 C 0.33103 0.81026 0.44543 0.0
H2128 H 0.30441 0.82158 0.48874 0.0
C2129 C 0.33126 0.78873 0.44745 0.0
H2130 H 0.32135 0.83843 0.45993 0.0
C2131 C 0.32152 0.77896 0.46407 0.0
C2132 C 0.3115 0.79054 0.47914 0.0
H2133 H 0.33848 0.77939 0.43584 0.0
H2134 H 0.32145 0.76234 0.46484 0.0
C2135 C 0.31191 0.81211 0.47745 0.0
C2136 C 0.6174 0.2267 0.72632 0.0
C2137 C 0.63051 0.2109 0.73369 0.0
H2138 H 0.59031 0.24434 0.73114 0.0
C2139 C 0.6256 0.20046 0.75222 0.0
H2140 H 0.6208 0.23521 0.71223 0.0
C2141 C 0.60814 0.20583 0.76321 0.0
C2142 C 0.59524 0.22187 0.75602 0.0
H2143 H 0.63524 0.18808 0.75824 0.0
H2144 H 0.60499 0.19767 0.77756 0.0
C2145 C 0.60003 0.23213 0.73735 0.0
C2146 C 0.30471 0.12485 0.68391 0.0
C2147 C 0.31943 0.13574 0.69694 0.0
H2148 H 0.28092 0.10149 0.68162 0.0
C2149 C 0.32033 0.13154 0.71866 0.0
H2150 H 0.30331 0.12787 0.66715 0.0
C2151 C 0.30726 0.11653 0.72702 0.0
C2152 C 0.29291 0.10525 0.71392 0.0
H2153 H 0.33153 0.13946 0.72919 0.0
H2154 H 0.3085 0.11376 0.74381 0.0
C2155 C 0.29165 0.10983 0.69227 0.0
C2156 C 0.43155 0.85318 0.75648 0.0
C2157 C 0.42733 0.84808 0.73515 0.0
H2158 H 0.44987 0.84735 0.78486 0.0
C2159 C 0.43893 0.83247 0.72626 0.0
H2160 H 0.42308 0.86527 0.7638 0.0
C2161 C 0.45445 0.82238 0.73826 0.0
C2162 C 0.45882 0.82755 0.75954 0.0
H2163 H 0.43599 0.82796 0.70997 0.0
H2164 H 0.46322 0.81071 0.73067 0.0
C2165 C 0.44711 0.84307 0.76851 0.0
C2166 C 0.69953 0.92563 0.70563 0.0
C2167 C 0.6782 0.92588 0.6996 0.0
H2168 H 0.72506 0.94077 0.72273 0.0
C2169 C 0.6661 0.94196 0.70686 0.0
H2170 H 0.70926 0.91347 0.70025 0.0
C2171 C 0.67506 0.95743 0.71978 0.0
C2172 C 0.69643 0.95737 0.72563 0.0
H2173 H 0.64957 0.94248 0.70268 0.0
H2174 H 0.6653 0.96965 0.72491 0.0
C2175 C 0.70859 0.94131 0.71837 0.0
C2176 C 0.59005 0.80788 0.27093 0.0
C2177 C 0.59959 0.80931 0.29137 0.0
H2178 H 0.56472 0.79535 0.25131 0.0
C2179 C 0.58942 0.80019 0.30812 0.0
H2180 H 0.59728 0.81498 0.25768 0.0
C2181 C 0.57078 0.78918 0.30448 0.0
C2182 C 0.56174 0.7869 0.28398 0.0
H2183 H 0.59631 0.80071 0.32401 0.0
H2184 H 0.56383 0.78183 0.31776 0.0
C2185 C 0.57128 0.79681 0.26728 0.0
C2186 C 0.72519 0.09677 0.30239 0.0
C2187 C 0.73562 0.11588 0.30408 0.0
H2188 H 0.72605 0.06553 0.29179 0.0
C2189 C 0.75634 0.11732 0.29803 0.0
H2190 H 0.70923 0.09516 0.30689 0.0
C2191 C 0.76608 0.10032 0.2896 0.0
C2192 C 0.75527 0.08149 0.28678 0.0
H2193 H 0.76491 0.13176 0.29944 0.0
H2194 H 0.78179 0.10223 0.28444 0.0
C2195 C 0.73485 0.0798 0.29371 0.0
C2196 C 0.42963 0.16589 0.31143 0.0
C2197 C 0.41729 0.17961 0.32227 0.0
H2198 H 0.45496 0.1621 0.29133 0.0
C2199 C 0.42114 0.20082 0.32015 0.0
H2200 H 0.42741 0.14944 0.31297 0.0
C2201 C 0.43705 0.20811 0.30772 0.0
C2202 C 0.44956 0.19437 0.29708 0.0
H2203 H 0.41178 0.21184 0.32803 0.0
H2204 H 0.43942 0.22454 0.30634 0.0
C2205 C 0.44552 0.17317 0.299 0.0
C2206 C 0.29818 0.92509 0.34292 0.0
C2207 C 0.31378 0.91731 0.33066 0.0
H2208 H 0.27169 0.94407 0.34443 0.0
C2209 C 0.31418 0.92327 0.30936 0.0
H2210 H 0.29721 0.92062 0.35925 0.0
C2211 C 0.29937 0.93702 0.3007 0.0
C2212 C 0.28378 0.94474 0.31313 0.0
H2213 H 0.32608 0.91756 0.29954 0.0
H2214 H 0.30001 0.94142 0.28432 0.0
C2215 C 0.28343 0.93853 0.33431 0.0
C2216 C 0.74713 0.09505 0.701 0.0
C2217 C 0.72722 0.1038 0.69842 0.0
H2218 H 0.76507 0.06921 0.71195 0.0
C2219 C 0.70977 0.09157 0.70287 0.0
H2220 H 0.76092 0.10386 0.6974 0.0
C2221 C 0.71217 0.07176 0.71091 0.0
C2222 C 0.73207 0.06353 0.71482 0.0
H2223 H 0.69422 0.09769 0.70137 0.0
H2224 H 0.69835 0.06323 0.71504 0.0
C2225 C 0.74953 0.0751 0.7091 0.0
C2226 C 0.6874 0.9448 0.27467 0.0
C2227 C 0.7016 0.92868 0.27366 0.0
H2228 H 0.68044 0.97598 0.26681 0.0
C2229 C 0.71959 0.93177 0.26232 0.0
H2230 H 0.67344 0.94298 0.28338 0.0
C2231 C 0.72353 0.95063 0.25265 0.0
C2232 C 0.70965 0.96699 0.25413 0.0
H2233 H 0.73063 0.91953 0.2608 0.0
H2234 H 0.73755 0.95239 0.24406 0.0
C2235 C 0.69138 0.96373 0.26506 0.0
C2236 C 0.59361 0.22837 0.32282 0.0
C2237 C 0.60454 0.21116 0.3159 0.0
H2238 H 0.56599 0.2466 0.31923 0.0
C2239 C 0.59482 0.19864 0.30017 0.0
H2240 H 0.60042 0.23829 0.33508 0.0
C2241 C 0.57515 0.20328 0.29136 0.0
C2242 C 0.56444 0.22072 0.29778 0.0
H2243 H 0.6027 0.18555 0.29399 0.0
H2244 H 0.56856 0.1933 0.27904 0.0
C2245 C 0.57379 0.2331 0.31385 0.0
C2246 C 0.30442 0.05484 0.34563 0.0
C2247 C 0.29745 0.07452 0.35064 0.0
H2248 H 0.29639 0.0247 0.33431 0.0
C2249 C 0.27603 0.07851 0.34813 0.0
H2250 H 0.32081 0.05126 0.34718 0.0
C2251 C 0.26198 0.06325 0.34052 0.0
C2252 C 0.26907 0.0437 0.33516 0.0
H2253 H 0.2701 0.09342 0.3521 0.0
H2254 H 0.24568 0.06695 0.33835 0.0
C2255 C 0.29042 0.03965 0.33804 0.0
C2256 C 0.42891 0.78014 0.33428 0.0
C2257 C 0.42743 0.80055 0.32716 0.0
H2258 H 0.44432 0.75136 0.33218 0.0
C2259 C 0.44057 0.80725 0.31145 0.0
H2260 H 0.41918 0.77452 0.34652 0.0
C2261 C 0.45515 0.79405 0.30342 0.0
C2262 C 0.45701 0.77376 0.31087 0.0
H2263 H 0.43971 0.8228 0.30545 0.0
H2264 H 0.46532 0.79999 0.29175 0.0
C2265 C 0.44353 0.76692 0.32625 0.0
C2266 C 0.33318 0.98636 0.73161 0.0
C2267 C 0.33349 0.96616 0.73946 0.0
H2268 H 0.3237 0.01735 0.73597 0.0
C2269 C 0.32548 0.96231 0.7593 0.0
H2270 H 0.33905 0.98984 0.71633 0.0
C2271 C 0.3168 0.9782 0.7707 0.0
C2272 C 0.31571 0.9982 0.76237 0.0
H2273 H 0.32569 0.94697 0.76587 0.0
H2274 H 0.31012 0.9746 0.78559 0.0
C2275 C 0.32434 1.00214 0.74288 0.0
C2276 C 0.58923 0.80893 0.73388 0.0
C2277 C 0.58347 0.80768 0.71233 0.0
H2278 H 0.58114 0.80235 0.76531 0.0
C2279 C 0.56534 0.79638 0.70597 0.0
H2280 H 0.60333 0.81707 0.73928 0.0
C2281 C 0.55256 0.7877 0.72102 0.0
C2282 C 0.55773 0.79028 0.74261 0.0
H2283 H 0.56049 0.79517 0.68945 0.0
H2284 H 0.53816 0.77999 0.71583 0.0
C2285 C 0.57652 0.80041 0.74879 0.0
C2286 C 0.44719 0.23135 0.74303 0.0
C2287 C 0.4471 0.23549 0.72135 0.0
H2288 H 0.46351 0.23382 0.77299 0.0
C2289 C 0.46369 0.24725 0.71364 0.0
H2290 H 0.43448 0.22284 0.74965 0.0
C2291 C 0.48041 0.25387 0.72722 0.0
C2292 C 0.48086 0.24871 0.74869 0.0
H2293 H 0.46418 0.25066 0.69701 0.0
H2294 H 0.49329 0.26227 0.72079 0.0
C2295 C 0.46385 0.23776 0.75645 0.0
C2296 C 0.69413 0.73985 0.0916 0.0
C2297 C 0.70916 0.73926 0.10844 0.0
H2298 H 0.68573 0.75215 0.06103 0.0
C2299 C 0.72748 0.75116 0.10721 0.0
H2300 H 0.67981 0.73092 0.09219 0.0
C2301 C 0.73088 0.76312 0.08944 0.0
C2302 C 0.71595 0.76369 0.07256 0.0
H2303 H 0.73941 0.75091 0.11985 0.0
H2304 H 0.74524 0.77198 0.0889 0.0
C2305 C 0.69741 0.75212 0.0739 0.0
C2306 C 0.31798 0.71608 0.05694 0.0
C2307 C 0.30816 0.71122 0.07559 0.0
H2308 H 0.31628 0.73227 0.02764 0.0
C2309 C 0.28714 0.71647 0.07721 0.0
H2310 H 0.33402 0.71193 0.05503 0.0
C2311 C 0.27682 0.72799 0.06123 0.0
C2312 C 0.28734 0.73412 0.04337 0.0
H2313 H 0.27917 0.71291 0.09139 0.0
H2314 H 0.2613 0.73345 0.0636 0.0
C2315 C 0.30773 0.72745 0.04109 0.0
C2316 C 0.34159 0.31295 0.11103 0.0
C2317 C 0.33206 0.32373 0.1271 0.0
H2318 H 0.33715 0.29469 0.08287 0.0
C2319 C 0.31026 0.32286 0.12766 0.0
H2320 H 0.35835 0.31334 0.11005 0.0
C2321 C 0.29825 0.31245 0.11206 0.0
C2322 C 0.30764 0.30238 0.09554 0.0
H2323 H 0.30237 0.33045 0.14007 0.0
H2324 H 0.28146 0.31254 0.11285 0.0
C2325 C 0.32948 0.30229 0.09542 0.0
C2326 C 0.70602 0.33354 0.07969 0.0
C2327 C 0.6896 0.32415 0.09014 0.0
H2328 H 0.72826 0.33072 0.05585 0.0
C2329 C 0.68409 0.30366 0.08522 0.0
H2330 H 0.71057 0.34935 0.08303 0.0
C2331 C 0.69417 0.29307 0.06971 0.0
C2332 C 0.71006 0.30264 0.05867 0.0
H2333 H 0.67187 0.29579 0.09332 0.0
H2334 H 0.68942 0.27734 0.06632 0.0
C2335 C 0.71616 0.32288 0.06411 0.0
C2336 C 0.74241 0.34259 0.92362 0.0
C2337 C 0.73079 0.32942 0.90978 0.0
H2338 H 0.75835 0.34635 0.95377 0.0
C2339 C 0.72554 0.30958 0.9168 0.0
H2340 H 0.74698 0.35786 0.9187 0.0
C2341 C 0.73228 0.30289 0.93688 0.0
C2342 C 0.74433 0.3159 0.95048 0.0
H2343 H 0.7163 0.29914 0.90674 0.0
H2344 H 0.72825 0.2874 0.94163 0.0
C2345 C 0.74904 0.33593 0.94373 0.0
C2346 C 0.76188 0.73313 0.93514 0.0
C2347 C 0.74243 0.72421 0.92867 0.0
H2348 H 0.77916 0.75159 0.9583 0.0
C2349 C 0.72621 0.72491 0.94266 0.0
H2350 H 0.77485 0.73263 0.92495 0.0
C2351 C 0.72881 0.73547 0.96173 0.0
C2352 C 0.74767 0.7457 0.96745 0.0
H2353 H 0.71094 0.71852 0.93833 0.0
H2354 H 0.71554 0.73666 0.97148 0.0
C2355 C 0.76449 0.74376 0.95438 0.0
C2356 C 0.31428 0.72946 0.91937 0.0
C2357 C 0.33542 0.72425 0.92094 0.0
H2358 H 0.28994 0.74721 0.9316 0.0
C2359 C 0.34847 0.734 0.93651 0.0
H2360 H 0.30385 0.7226 0.90733 0.0
C2361 C 0.34048 0.7482 0.95044 0.0
C2362 C 0.31922 0.75297 0.9492 0.0
H2363 H 0.36479 0.73021 0.93838 0.0
H2364 H 0.35083 0.7549 0.96262 0.0
C2365 C 0.3063 0.74362 0.93329 0.0
C2366 C 0.31818 0.31429 0.95225 0.0
C2367 C 0.321 0.33555 0.94939 0.0
H2368 H 0.30374 0.2903 0.96958 0.0
C2369 C 0.31 0.34908 0.96187 0.0
H2370 H 0.32605 0.30342 0.94265 0.0
C2371 C 0.29717 0.34154 0.97739 0.0
C2372 C 0.29506 0.32028 0.98082 0.0
H2373 H 0.31195 0.36556 0.96025 0.0
H2374 H 0.28959 0.35237 0.98725 0.0
C2375 C 0.30537 0.30677 0.96772 0.0
C2376 C 0.60296 0.70637 0.21371 0.0
C2377 C 0.61626 0.69132 0.2224 0.0
H2378 H 0.57462 0.72264 0.21578 0.0
C2379 C 0.6102 0.68067 0.24043 0.0
H2380 H 0.60717 0.71507 0.2 0.0
C2381 C 0.59158 0.6853 0.24978 0.0
C2382 C 0.57855 0.70071 0.24135 0.0
H2383 H 0.61992 0.66881 0.24742 0.0
H2384 H 0.58768 0.67713 0.26389 0.0
C2385 C 0.58437 0.71096 0.22301 0.0
C2386 C 0.35559 0.60739 0.22737 0.0
C2387 C 0.34019 0.61709 0.21453 0.0
H2388 H 0.36233 0.58626 0.25256 0.0
C2389 C 0.31919 0.61369 0.21881 0.0
H2390 H 0.37194 0.60992 0.22475 0.0
C2391 C 0.31372 0.60024 0.23486 0.0
C2392 C 0.32908 0.58986 0.24711 0.0
H2393 H 0.30692 0.62083 0.20924 0.0
H2394 H 0.29738 0.59771 0.23745 0.0
C2395 C 0.35011 0.59399 0.24349 0.0
C2396 C 0.42869 0.29791 0.24102 0.0
C2397 C 0.43478 0.31856 0.24425 0.0
H2398 H 0.43675 0.26636 0.244 0.0
C2399 C 0.45402 0.32274 0.25525 0.0
H2400 H 0.41425 0.29392 0.23239 0.0
C2401 C 0.46719 0.30667 0.2619 0.0
C2402 C 0.46141 0.28613 0.25752 0.0
H2403 H 0.45915 0.33845 0.25825 0.0
H2404 H 0.48224 0.31034 0.2695 0.0
C2405 C 0.44177 0.28201 0.24755 0.0
C2406 C 0.71781 0.41556 0.21341 0.0
C2407 C 0.69752 0.42299 0.21031 0.0
H2408 H 0.74951 0.42237 0.22289 0.0
C2409 C 0.69341 0.44312 0.21694 0.0
H2410 H 0.7216 0.40025 0.20833 0.0
C2411 C 0.70953 0.45588 0.22544 0.0
C2412 C 0.73003 0.44877 0.22716 0.0
H2413 H 0.67787 0.44922 0.21494 0.0
H2414 H 0.70615 0.4716 0.22949 0.0
C2415 C 0.73386 0.42832 0.22165 0.0
C2416 C 0.61146 0.32709 0.81978 0.0
C2417 C 0.62066 0.33482 0.80175 0.0
H2418 H 0.58693 0.30916 0.83229 0.0
C2419 C 0.61019 0.3315 0.78196 0.0
H2420 H 0.61906 0.32898 0.83525 0.0
C2421 C 0.59158 0.31984 0.78024 0.0
C2422 C 0.58317 0.31118 0.79825 0.0
H2423 H 0.61667 0.33743 0.76775 0.0
H2424 H 0.58435 0.31681 0.76477 0.0
C2425 C 0.59303 0.31547 0.81804 0.0
C2426 C 0.7365 0.61644 0.77993 0.0
C2427 C 0.73379 0.61967 0.80157 0.0
H2428 H 0.74888 0.59701 0.75637 0.0
C2429 C 0.73946 0.60396 0.81577 0.0
H2430 H 0.73201 0.62808 0.76849 0.0
C2431 C 0.74892 0.58623 0.8088 0.0
C2432 C 0.75293 0.58361 0.78743 0.0
H2433 H 0.7378 0.60587 0.83252 0.0
H2434 H 0.75409 0.57497 0.8204 0.0
C2435 C 0.74592 0.59853 0.77291 0.0
C2436 C 0.44742 0.69855 0.80144 0.0
C2437 C 0.42982 0.70554 0.81154 0.0
H2438 H 0.47639 0.70678 0.7878 0.0
C2439 C 0.42738 0.7268 0.81397 0.0
H2440 H 0.44969 0.68226 0.79921 0.0
C2441 C 0.44256 0.74064 0.80758 0.0
C2442 C 0.46058 0.73369 0.79841 0.0
H2443 H 0.41426 0.73279 0.82191 0.0
H2444 H 0.44049 0.75686 0.8105 0.0
C2445 C 0.46261 0.71255 0.79477 0.0
C2446 C 0.33305 0.42665 0.81598 0.0
C2447 C 0.35447 0.42669 0.82157 0.0
H2448 H 0.30835 0.44005 0.79718 0.0
C2449 C 0.36768 0.44035 0.81115 0.0
H2450 H 0.32241 0.41645 0.82375 0.0
C2451 C 0.35956 0.45407 0.79602 0.0
C2452 C 0.33804 0.45451 0.791 0.0
H2453 H 0.3843 0.44059 0.81486 0.0
H2454 H 0.37008 0.46476 0.78877 0.0
C2455 C 0.32495 0.44038 0.8009 0.0
C2456 C 0.73055 0.58248 0.17201 0.0
C2457 C 0.73837 0.59954 0.18369 0.0
H2458 H 0.73212 0.54987 0.16694 0.0
C2459 C 0.75468 0.59663 0.19889 0.0
H2460 H 0.71803 0.58428 0.16015 0.0
C2461 C 0.76255 0.57707 0.20283 0.0
C2462 C 0.75451 0.55994 0.19151 0.0
H2463 H 0.7609 0.6094 0.20831 0.0
H2464 H 0.77477 0.57524 0.21501 0.0
C2465 C 0.73871 0.56286 0.17575 0.0
C2466 C 0.74411 0.45861 0.80296 0.0
C2467 C 0.75471 0.44172 0.81179 0.0
H2468 H 0.74589 0.48975 0.79259 0.0
C2469 C 0.77597 0.44425 0.8179 0.0
H2470 H 0.7278 0.45732 0.79795 0.0
C2471 C 0.78653 0.46284 0.81439 0.0
C2472 C 0.77611 0.47945 0.80476 0.0
H2473 H 0.78458 0.43176 0.82519 0.0
H2474 H 0.80301 0.4639 0.81863 0.0
C2475 C 0.75463 0.47721 0.79959 0.0
C2476 C 0.61123 0.73873 0.84866 0.0
C2477 C 0.62082 0.72781 0.83278 0.0
H2478 H 0.58472 0.75531 0.85767 0.0
C2479 C 0.60959 0.72463 0.81347 0.0
H2480 H 0.61919 0.74125 0.86388 0.0
C2481 C 0.58955 0.73236 0.81002 0.0
C2482 C 0.58011 0.74379 0.82566 0.0
H2483 H 0.61644 0.71658 0.80069 0.0
H2484 H 0.58166 0.72939 0.7949 0.0
C2485 C 0.59122 0.74666 0.84514 0.0
C2486 C 0.30954 0.57425 0.83 0.0
C2487 C 0.31755 0.59241 0.82108 0.0
H2488 H 0.29683 0.54378 0.82432 0.0
C2489 C 0.31691 0.59418 0.79904 0.0
H2490 H 0.30964 0.57246 0.84694 0.0
C2491 C 0.30972 0.57787 0.78628 0.0
C2492 C 0.30276 0.55937 0.79513 0.0
H2493 H 0.32311 0.60776 0.79156 0.0
H2494 H 0.31034 0.57948 0.76936 0.0
C2495 C 0.30204 0.5579 0.81711 0.0
C2496 C 0.46586 0.32725 0.84315 0.0
C2497 C 0.45201 0.3184 0.85712 0.0
H2498 H 0.49164 0.32281 0.82377 0.0
C2499 C 0.45378 0.2974 0.86199 0.0
H2500 H 0.46479 0.34333 0.83893 0.0
C2501 C 0.46924 0.28561 0.85329 0.0
C2502 C 0.48308 0.2945 0.83932 0.0
H2503 H 0.44342 0.29017 0.87279 0.0
H2504 H 0.4702 0.26948 0.8573 0.0
C2505 C 0.48113 0.31544 0.83432 0.0
C2506 C 0.33475 0.44893 0.25005 0.0
C2507 C 0.33133 0.44549 0.22836 0.0
H2508 H 0.32957 0.46803 0.27641 0.0
C2509 C 0.31836 0.45912 0.21669 0.0
H2510 H 0.3448 0.43901 0.25954 0.0
C2511 C 0.30944 0.47603 0.22651 0.0
C2512 C 0.31365 0.47976 0.24808 0.0
H2513 H 0.31528 0.45682 0.19994 0.0
H2514 H 0.29991 0.48652 0.21714 0.0
C2515 C 0.32612 0.46578 0.25971 0.0
C2516 C 0.57996 0.28787 0.18639 0.0
C2517 C 0.58288 0.30755 0.19533 0.0
H2518 H 0.56425 0.25859 0.18771 0.0
C2519 C 0.57177 0.3126 0.21303 0.0
H2520 H 0.58813 0.28358 0.17261 0.0
C2521 C 0.55808 0.29836 0.22157 0.0
C2522 C 0.55507 0.2787 0.21262 0.0
H2523 H 0.57376 0.32756 0.2204 0.0
H2524 H 0.54964 0.30291 0.23505 0.0
C2525 C 0.56612 0.27363 0.19488 0.0
C2526 C 0.44245 0.73105 0.19185 0.0
C2527 C 0.43949 0.71014 0.18657 0.0
H2528 H 0.46016 0.75332 0.21074 0.0
C2529 C 0.45307 0.69569 0.19588 0.0
H2530 H 0.43223 0.74252 0.18489 0.0
C2531 C 0.46871 0.70179 0.21063 0.0
C2532 C 0.47145 0.72254 0.21631 0.0
H2533 H 0.45108 0.67946 0.19239 0.0
H2534 H 0.47845 0.69011 0.21796 0.0
C2535 C 0.4585 0.73724 0.20646 0.0
loop_
_geom_bond_atom_site_label_1
_geom_bond_atom_site_label_2
_geom_bond_distance
_geom_bond_site_symmetry_2
_ccdc_geom_bond_type
P0 O11 1.490 . S
P0 C14 1.812 . S
P0 C20 1.803 . S
P0 C26 1.819 . S
H1 C15 0.941 . S
H2 C16 0.939 . S
H3 C18 0.940 . S
H4 C19 0.940 . S
H5 C21 0.939 . S
H6 C22 0.942 . S
H7 C24 0.940 . S
H8 C25 0.939 . S
H9 C27 0.941 . S
H10 C31 0.939 . S
O11 P0 1.490 . S
H12 C28 0.939 . S
H13 C30 0.940 . S
C14 P0 1.812 . S
C14 C15 1.389 . S
C14 C19 1.391 . S
C15 H1 0.941 . S
C15 C14 1.389 . S
C15 C16 1.397 . S
C16 H2 0.939 . S
C16 C15 1.397 . S
C16 C17 1.378 . S
C17 C16 1.378 . S
C17 C18 1.378 . S
C18 H3 0.940 . S
C18 C17 1.378 . S
C18 C19 1.396 . S
C19 H4 0.940 . S
C19 C14 1.391 . S
C19 C18 1.396 . S
C20 P0 1.803 . S
C20 C21 1.378 . S
C20 C25 1.400 . S
C21 H5 0.939 . S
C21 C20 1.378 . S
C21 C22 1.361 . S
C22 H6 0.942 . S
C22 C21 1.361 . S
C22 C23 1.369 . S
C23 C22 1.369 . S
C23 C24 1.404 . S
C24 H7 0.940 . S
C24 C23 1.404 . S
C24 C25 1.389 . S
C25 H8 0.939 . S
C25 C20 1.400 . S
C25 C24 1.389 . S
C26 P0 1.819 . S
C26 C27 1.391 . S
C26 C31 1.391 . S
C27 H9 0.941 . S
C27 C26 1.391 . S
C27 C28 1.396 . S
C28 H12 0.939 . S
C28 C27 1.396 . S
C28 C29 1.397 . S
C29 C28 1.397 . S
C29 C30 1.385 . S
C30 H13 0.940 . S
C30 C29 1.385 . S
C30 C31 1.388 . S
C31 H10 0.939 . S
C31 C26 1.391 . S
C31 C30 1.388 . S
P32 O43 1.490 . S
P32 C46 1.812 . S
P32 C52 1.803 . S
P32 C58 1.819 . S
H33 C47 0.941 . S
H34 C48 0.939 . S
H35 C50 0.940 . S
H36 C51 0.940 . S
H37 C53 0.939 . S
H38 C54 0.942 . S
H39 C56 0.940 . S
H40 C57 0.939 . S
H41 C59 0.941 . S
H42 C63 0.939 . S
O43 P32 1.490 . S
H44 C60 0.939 . S
H45 C62 0.940 . S
C46 P32 1.812 . S
C46 C47 1.389 . S
C46 C51 1.391 . S
C47 H33 0.941 . S
C47 C46 1.389 . S
C47 C48 1.397 . S
C48 H34 0.939 . S
C48 C47 1.397 . S
C48 C49 1.378 . S
C49 C48 1.378 . S
C49 C50 1.378 . S
C50 H35 0.940 . S
C50 C49 1.378 . S
C50 C51 1.396 . S
C51 H36 0.940 . S
C51 C46 1.391 . S
C51 C50 1.396 . S
C52 P32 1.803 . S
C52 C53 1.378 . S
C52 C57 1.400 . S
C53 H37 0.939 . S
C53 C52 1.378 . S
C53 C54 1.361 . S
C54 H38 0.942 . S
C54 C53 1.361 . S
C54 C55 1.369 . S
C55 C54 1.369 . S
C55 C56 1.404 . S
C56 H39 0.940 . S
C56 C55 1.404 . S
C56 C57 1.389 . S
C57 H40 0.939 . S
C57 C52 1.400 . S
C57 C56 1.389 . S
C58 P32 1.819 . S
C58 C59 1.391 . S
C58 C63 1.391 . S
C59 H41 0.941 . S
C59 C58 1.391 . S
C59 C60 1.396 . S
C60 H44 0.939 . S
C60 C59 1.396 . S
C60 C61 1.397 . S
C61 C60 1.397 . S
C61 C62 1.385 . S
C62 H45 0.940 . S
C62 C61 1.385 . S
C62 C63 1.388 . S
C63 H42 0.939 . S
C63 C58 1.391 . S
C63 C62 1.388 . S
P64 O75 1.490 . S
P64 C78 1.812 . S
P64 C84 1.803 . S
P64 C90 1.819 . S
H65 C79 0.941 . S
H66 C80 0.939 . S
H67 C82 0.940 . S
H68 C83 0.940 . S
H69 C85 0.939 . S
H70 C86 0.942 . S
H71 C88 0.940 . S
H72 C89 0.939 . S
H73 C91 0.941 . S
H74 C95 0.939 . S
O75 P64 1.490 . S
H76 C92 0.939 . S
H77 C94 0.940 . S
C78 P64 1.812 . S
C78 C79 1.389 . S
C78 C83 1.391 . S
C79 H65 0.941 . S
C79 C78 1.389 . S
C79 C80 1.397 . S
C80 H66 0.939 . S
C80 C79 1.397 . S
C80 C81 1.378 . S
C81 C80 1.378 . S
C81 C82 1.378 . S
C82 H67 0.940 . S
C82 C81 1.378 . S
C82 C83 1.396 . S
C83 H68 0.940 . S
C83 C78 1.391 . S
C83 C82 1.396 . S
C84 P64 1.803 . S
C84 C85 1.378 . S
C84 C89 1.400 . S
C85 H69 0.939 . S
C85 C84 1.378 . S
C85 C86 1.361 . S
C86 H70 0.942 . S
C86 C85 1.361 . S
C86 C87 1.369 . S
C87 C86 1.369 . S
C87 C88 1.404 . S
C88 H71 0.940 . S
C88 C87 1.404 . S
C88 C89 1.389 . S
C89 H72 0.939 . S
C89 C84 1.400 . S
C89 C88 1.389 . S
C90 P64 1.819 . S
C90 C91 1.391 . S
C90 C95 1.391 . S
C91 H73 0.941 . S
C91 C90 1.391 . S
C91 C92 1.396 . S
C92 H76 0.939 . S
C92 C91 1.396 . S
C92 C93 1.397 . S
C93 C92 1.397 . S
C93 C94 1.385 . S
C94 H77 0.940 . S
C94 C93 1.385 . S
C94 C95 1.388 . S
C95 H74 0.939 . S
C95 C90 1.391 . S
C95 C94 1.388 . S
P96 O107 1.490 . S
P96 C110 1.812 . S
P96 C116 1.803 . S
P96 C122 1.819 . S
H97 C111 0.941 . S
H98 C112 0.939 . S
H99 C114 0.940 . S
H100 C115 0.940 . S
H101 C117 0.939 . S
H102 C118 0.942 . S
H103 C120 0.940 . S
H104 C121 0.939 . S
H105 C123 0.941 . S
H106 C127 0.939 . S
O107 P96 1.490 . S
H108 C124 0.939 . S
H109 C126 0.940 . S
C110 P96 1.812 . S
C110 C111 1.389 . S
C110 C115 1.391 . S
C111 H97 0.941 . S
C111 C110 1.389 . S
C111 C112 1.397 . S
C112 H98 0.939 . S
C112 C111 1.397 . S
C112 C113 1.378 . S
C113 C112 1.378 . S
C113 C114 1.378 . S
C114 H99 0.940 . S
C114 C113 1.378 . S
C114 C115 1.396 . S
C115 H100 0.940 . S
C115 C110 1.391 . S
C115 C114 1.396 . S
C116 P96 1.803 . S
C116 C117 1.378 . S
C116 C121 1.400 . S
C117 H101 0.939 . S
C117 C116 1.378 . S
C117 C118 1.361 . S
C118 H102 0.942 . S
C118 C117 1.361 . S
C118 C119 1.369 . S
C119 C118 1.369 . S
C119 C120 1.404 . S
C120 H103 0.940 . S
C120 C119 1.404 . S
C120 C121 1.389 . S
C121 H104 0.939 . S
C121 C116 1.400 . S
C121 C120 1.389 . S
C122 P96 1.819 . S
C122 C123 1.391 . S
C122 C127 1.391 . S
C123 H105 0.941 . S
C123 C122 1.391 . S
C123 C124 1.396 . S
C124 H108 0.939 . S
C124 C123 1.396 . S
C124 C125 1.397 . S
C125 C124 1.397 . S
C125 C126 1.385 . S
C126 H109 0.940 . S
C126 C125 1.385 . S
C126 C127 1.388 . S
C127 H106 0.939 . S
C127 C122 1.391 . S
C127 C126 1.388 . S
P128 O139 1.490 . S
P128 C142 1.812 . S
P128 C148 1.803 . S
P128 C154 1.819 . S
H129 C143 0.941 . S
H130 C144 0.939 . S
H131 C146 0.940 . S
H132 C147 0.940 . S
H133 C149 0.939 . S
H134 C150 0.942 . S
H135 C152 0.940 . S
H136 C153 0.939 . S
H137 C155 0.941 . S
H138 C159 0.939 . S
O139 P128 1.490 . S
H140 C156 0.939 . S
H141 C158 0.940 . S
C142 P128 1.812 . S
C142 C143 1.389 . S
C142 C147 1.391 . S
C143 H129 0.941 . S
C143 C142 1.389 . S
C143 C144 1.397 . S
C144 H130 0.939 . S
C144 C143 1.397 . S
C144 C145 1.378 . S
C145 C144 1.378 . S
C145 C146 1.378 . S
C146 H131 0.940 . S
C146 C145 1.378 . S
C146 C147 1.396 . S
C147 H132 0.940 . S
C147 C142 1.391 . S
C147 C146 1.396 . S
C148 P128 1.803 . S
C148 C149 1.378 . S
C148 C153 1.400 . S
C149 H133 0.939 . S
C149 C148 1.378 . S
C149 C150 1.361 . S
C150 H134 0.942 . S
C150 C149 1.361 . S
C150 C151 1.369 . S
C151 C150 1.369 . S
C151 C152 1.404 . S
C152 H135 0.940 . S
C152 C151 1.404 . S
C152 C153 1.389 . S
C153 H136 0.939 . S
C153 C148 1.400 . S
C153 C152 1.389 . S
C154 P128 1.819 . S
C154 C155 1.391 . S
C154 C159 1.391 . S
C155 H137 0.941 . S
C155 C154 1.391 . S
C155 C156 1.396 . S
C156 H140 0.939 . S
C156 C155 1.396 . S
C156 C157 1.397 . S
C157 C156 1.397 . S
C157 C158 1.385 . S
C158 H141 0.940 . S
C158 C157 1.385 . S
C158 C159 1.388 . S
C159 H138 0.939 . S
C159 C154 1.391 . S
C159 C158 1.388 . S
P160 O171 1.490 . S
P160 C174 1.812 . S
P160 C180 1.803 . S
P160 C186 1.819 . S
H161 C175 0.941 . S
H162 C176 0.939 . S
H163 C178 0.940 . S
H164 C179 0.940 . S
H165 C181 0.939 . S
H166 C182 0.942 . S
H167 C184 0.940 . S
H168 C185 0.939 . S
H169 C187 0.941 . S
H170 C191 0.939 . S
O171 P160 1.490 . S
H172 C188 0.939 . S
H173 C190 0.940 . S
C174 P160 1.812 . S
C174 C175 1.389 . S
C174 C179 1.391 . S
C175 H161 0.941 . S
C175 C174 1.389 . S
C175 C176 1.397 . S
C176 H162 0.939 . S
C176 C175 1.397 . S
C176 C177 1.378 . S
C177 C176 1.378 . S
C177 C178 1.378 . S
C178 H163 0.940 . S
C178 C177 1.378 . S
C178 C179 1.396 . S
C179 H164 0.940 . S
C179 C174 1.391 . S
C179 C178 1.396 . S
C180 P160 1.803 . S
C180 C181 1.378 . S
C180 C185 1.400 . S
C181 H165 0.939 . S
C181 C180 1.378 . S
C181 C182 1.361 . S
C182 H166 0.942 . S
C182 C181 1.361 . S
C182 C183 1.369 . S
C183 C182 1.369 . S
C183 C184 1.404 . S
C184 H167 0.940 . S
C184 C183 1.404 . S
C184 C185 1.389 . S
C185 H168 0.939 . S
C185 C180 1.400 . S
C185 C184 1.389 . S
C186 P160 1.819 . S
C186 C187 1.391 . S
C186 C191 1.391 . S
C187 H169 0.941 . S
C187 C186 1.391 . S
C187 C188 1.396 . S
C188 H172 0.939 . S
C188 C187 1.396 . S
C188 C189 1.397 . S
C189 C188 1.397 . S
C189 C190 1.385 . S
C190 H173 0.940 . S
C190 C189 1.385 . S
C190 C191 1.388 . S
C191 H170 0.939 . S
C191 C186 1.391 . S
C191 C190 1.388 . S
P192 O203 1.490 . S
P192 C206 1.812 . S
P192 C212 1.803 . S
P192 C218 1.819 . S
H193 C207 0.941 . S
H194 C208 0.939 . S
H195 C210 0.940 . S
H196 C211 0.940 . S
H197 C213 0.939 . S
H198 C214 0.942 . S
H199 C216 0.940 . S
H200 C217 0.939 . S
H201 C219 0.941 . S
H202 C223 0.939 . S
O203 P192 1.490 . S
H204 C220 0.939 . S
H205 C222 0.940 . S
C206 P192 1.812 . S
C206 C207 1.389 . S
C206 C211 1.391 . S
C207 H193 0.941 . S
C207 C206 1.389 . S
C207 C208 1.397 . S
C208 H194 0.939 . S
C208 C207 1.397 . S
C208 C209 1.378 . S
C209 C208 1.378 . S
C209 C210 1.378 . S
C210 H195 0.940 . S
C210 C209 1.378 . S
C210 C211 1.396 . S
C211 H196 0.940 . S
C211 C206 1.391 . S
C211 C210 1.396 . S
C212 P192 1.803 . S
C212 C213 1.378 . S
C212 C217 1.400 . S
C213 H197 0.939 . S
C213 C212 1.378 . S
C213 C214 1.361 . S
C214 H198 0.942 . S
C214 C213 1.361 . S
C214 C215 1.369 . S
C215 C214 1.369 . S
C215 C216 1.404 . S
C216 H199 0.940 . S
C216 C215 1.404 . S
C216 C217 1.389 . S
C217 H200 0.939 . S
C217 C212 1.400 . S
C217 C216 1.389 . S
C218 P192 1.819 . S
C218 C219 1.391 . S
C218 C223 1.391 . S
C219 H201 0.941 . S
C219 C218 1.391 . S
C219 C220 1.396 . S
C220 H204 0.939 . S
C220 C219 1.396 . S
C220 C221 1.397 . S
C221 C220 1.397 . S
C221 C222 1.385 . S
C222 H205 0.940 . S
C222 C221 1.385 . S
C222 C223 1.388 . S
C223 H202 0.939 . S
C223 C218 1.391 . S
C223 C222 1.388 . S
P224 O235 1.490 . S
P224 C238 1.812 . S
P224 C244 1.803 . S
P224 C250 1.819 . S
H225 C239 0.941 . S
H226 C240 0.939 . S
H227 C242 0.940 . S
H228 C243 0.940 . S
H229 C245 0.939 . S
H230 C246 0.942 . S
H231 C248 0.940 . S
H232 C249 0.939 . S
H233 C251 0.941 . S
H234 C255 0.939 . S
O235 P224 1.490 . S
H236 C252 0.939 . S
H237 C254 0.940 . S
C238 P224 1.812 . S
C238 C239 1.389 . S
C238 C243 1.391 . S
C239 H225 0.941 . S
C239 C238 1.389 . S
C239 C240 1.397 . S
C240 H226 0.939 . S
C240 C239 1.397 . S
C240 C241 1.378 . S
C241 C240 1.378 . S
C241 C242 1.378 . S
C242 H227 0.940 . S
C242 C241 1.378 . S
C242 C243 1.396 . S
C243 H228 0.940 . S
C243 C238 1.391 . S
C243 C242 1.396 . S
C244 P224 1.803 . S
C244 C245 1.378 . S
C244 C249 1.400 . S
C245 H229 0.939 . S
C245 C244 1.378 . S
C245 C246 1.361 . S
C246 H230 0.942 . S
C246 C245 1.361 . S
C246 C247 1.369 . S
C247 C246 1.369 . S
C247 C248 1.404 . S
C248 H231 0.940 . S
C248 C247 1.404 . S
C248 C249 1.389 . S
C249 H232 0.939 . S
C249 C244 1.400 . S
C249 C248 1.389 . S
C250 P224 1.819 . S
C250 C251 1.391 . S
C250 C255 1.391 . S
C251 H233 0.941 . S
C251 C250 1.391 . S
C251 C252 1.396 . S
C252 H236 0.939 . S
C252 C251 1.396 . S
C252 C253 1.397 . S
C253 C252 1.397 . S
C253 C254 1.385 . S
C254 H237 0.940 . S
C254 C253 1.385 . S
C254 C255 1.388 . S
C255 H234 0.939 . S
C255 C250 1.391 . S
C255 C254 1.388 . S
P256 O267 1.490 . S
P256 C270 1.812 . S
P256 C276 1.803 . S
P256 C282 1.819 . S
H257 C271 0.941 . S
H258 C272 0.939 . S
H259 C274 0.940 . S
H260 C275 0.940 . S
H261 C277 0.939 . S
H262 C278 0.942 . S
H263 C280 0.940 . S
H264 C281 0.939 . S
H265 C283 0.941 . S
H266 C287 0.939 . S
O267 P256 1.490 . S
H268 C284 0.939 . S
H269 C286 0.940 . S
C270 P256 1.812 . S
C270 C271 1.389 . S
C270 C275 1.391 . S
C271 H257 0.941 . S
C271 C270 1.389 . S
C271 C272 1.397 . S
C272 H258 0.939 . S
C272 C271 1.397 . S
C272 C273 1.378 . S
C273 C272 1.378 . S
C273 C274 1.378 . S
C274 H259 0.940 . S
C274 C273 1.378 . S
C274 C275 1.396 . S
C275 H260 0.940 . S
C275 C270 1.391 . S
C275 C274 1.396 . S
C276 P256 1.803 . S
C276 C277 1.378 . S
C276 C281 1.400 . S
C277 H261 0.939 . S
C277 C276 1.378 . S
C277 C278 1.361 . S
C278 H262 0.942 . S
C278 C277 1.361 . S
C278 C279 1.369 . S
C279 C278 1.369 . S
C279 C280 1.404 . S
C280 H263 0.940 . S
C280 C279 1.404 . S
C280 C281 1.389 . S
C281 H264 0.939 . S
C281 C276 1.400 . S
C281 C280 1.389 . S
C282 P256 1.819 . S
C282 C283 1.391 . S
C282 C287 1.391 . S
C283 H265 0.941 . S
C283 C282 1.391 . S
C283 C284 1.396 . S
C284 H268 0.939 . S
C284 C283 1.396 . S
C284 C285 1.397 . S
C285 C284 1.397 . S
C285 C286 1.385 . S
C286 H269 0.940 . S
C286 C285 1.385 . S
C286 C287 1.388 . S
C287 H266 0.939 . S
C287 C282 1.391 . S
C287 C286 1.388 . S
P288 O299 1.490 . S
P288 C302 1.812 . S
P288 C308 1.803 . S
P288 C314 1.819 . S
H289 C303 0.941 . S
H290 C304 0.939 . S
H291 C306 0.940 . S
H292 C307 0.940 . S
H293 C309 0.939 . S
H294 C310 0.942 . S
H295 C312 0.940 . S
H296 C313 0.939 . S
H297 C315 0.941 . S
H298 C319 0.939 . S
O299 P288 1.490 . S
H300 C316 0.939 . S
H301 C318 0.940 . S
C302 P288 1.812 . S
C302 C303 1.389 . S
C302 C307 1.391 . S
C303 H289 0.941 . S
C303 C302 1.389 . S
C303 C304 1.397 . S
C304 H290 0.939 . S
C304 C303 1.397 . S
C304 C305 1.378 . S
C305 C304 1.378 . S
C305 C306 1.378 . S
C306 H291 0.940 . S
C306 C305 1.378 . S
C306 C307 1.396 . S
C307 H292 0.940 . S
C307 C302 1.391 . S
C307 C306 1.396 . S
C308 P288 1.803 . S
C308 C309 1.378 . S
C308 C313 1.400 . S
C309 H293 0.939 . S
C309 C308 1.378 . S
C309 C310 1.361 . S
C310 H294 0.942 . S
C310 C309 1.361 . S
C310 C311 1.369 . S
C311 C310 1.369 . S
C311 C312 1.404 . S
C312 H295 0.940 . S
C312 C311 1.404 . S
C312 C313 1.389 . S
C313 H296 0.939 . S
C313 C308 1.400 . S
C313 C312 1.389 . S
C314 P288 1.819 . S
C314 C315 1.391 . S
C314 C319 1.391 . S
C315 H297 0.941 . S
C315 C314 1.391 . S
C315 C316 1.396 . S
C316 H300 0.939 . S
C316 C315 1.396 . S
C316 C317 1.397 . S
C317 C316 1.397 . S
C317 C318 1.385 . S
C318 H301 0.940 . S
C318 C317 1.385 . S
C318 C319 1.388 . S
C319 H298 0.939 . S
C319 C314 1.391 . S
C319 C318 1.388 . S
P320 O331 1.490 . S
P320 C334 1.812 . S
P320 C340 1.803 . S
P320 C346 1.819 . S
H321 C335 0.941 . S
H322 C336 0.939 . S
H323 C338 0.940 . S
H324 C339 0.940 . S
H325 C341 0.939 . S
H326 C342 0.942 . S
H327 C344 0.940 . S
H328 C345 0.939 . S
H329 C347 0.941 . S
H330 C351 0.939 . S
O331 P320 1.490 . S
H332 C348 0.939 . S
H333 C350 0.940 . S
C334 P320 1.812 . S
C334 C335 1.389 . S
C334 C339 1.391 . S
C335 H321 0.941 . S
C335 C334 1.389 . S
C335 C336 1.397 . S
C336 H322 0.939 . S
C336 C335 1.397 . S
C336 C337 1.378 . S
C337 C336 1.378 . S
C337 C338 1.378 . S
C338 H323 0.940 . S
C338 C337 1.378 . S
C338 C339 1.396 . S
C339 H324 0.940 . S
C339 C334 1.391 . S
C339 C338 1.396 . S
C340 P320 1.803 . S
C340 C341 1.378 . S
C340 C345 1.400 . S
C341 H325 0.939 . S
C341 C340 1.378 . S
C341 C342 1.361 . S
C342 H326 0.942 . S
C342 C341 1.361 . S
C342 C343 1.369 . S
C343 C342 1.369 . S
C343 C344 1.404 . S
C344 H327 0.940 . S
C344 C343 1.404 . S
C344 C345 1.389 . S
C345 H328 0.939 . S
C345 C340 1.400 . S
C345 C344 1.389 . S
C346 P320 1.819 . S
C346 C347 1.391 . S
C346 C351 1.391 . S
C347 H329 0.941 . S
C347 C346 1.391 . S
C347 C348 1.396 . S
C348 H332 0.939 . S
C348 C347 1.396 . S
C348 C349 1.397 . S
C349 C348 1.397 . S
C349 C350 1.385 . S
C350 H333 0.940 . S
C350 C349 1.385 . S
C350 C351 1.388 . S
C351 H330 0.939 . S
C351 C346 1.391 . S
C351 C350 1.388 . S
P352 O363 1.490 . S
P352 C366 1.812 . S
P352 C372 1.803 . S
P352 C378 1.819 . S
H353 C367 0.941 . S
H354 C368 0.939 . S
H355 C370 0.940 . S
H356 C371 0.940 . S
H357 C373 0.939 . S
H358 C374 0.942 . S
H359 C376 0.940 . S
H360 C377 0.939 . S
H361 C379 0.941 . S
H362 C383 0.939 . S
O363 P352 1.490 . S
H364 C380 0.939 . S
H365 C382 0.940 . S
C366 P352 1.812 . S
C366 C367 1.389 . S
C366 C371 1.391 . S
C367 H353 0.941 . S
C367 C366 1.389 . S
C367 C368 1.397 . S
C368 H354 0.939 . S
C368 C367 1.397 . S
C368 C369 1.378 . S
C369 C368 1.378 . S
C369 C370 1.378 . S
C370 H355 0.940 . S
C370 C369 1.378 . S
C370 C371 1.396 . S
C371 H356 0.940 . S
C371 C366 1.391 . S
C371 C370 1.396 . S
C372 P352 1.803 . S
C372 C373 1.378 . S
C372 C377 1.400 . S
C373 H357 0.939 . S
C373 C372 1.378 . S
C373 C374 1.361 . S
C374 H358 0.942 . S
C374 C373 1.361 . S
C374 C375 1.369 . S
C375 C374 1.369 . S
C375 C376 1.404 . S
C376 H359 0.940 . S
C376 C375 1.404 . S
C376 C377 1.389 . S
C377 H360 0.939 . S
C377 C372 1.400 . S
C377 C376 1.389 . S
C378 P352 1.819 . S
C378 C379 1.391 . S
C378 C383 1.391 . S
C379 H361 0.941 . S
C379 C378 1.391 . S
C379 C380 1.396 . S
C380 H364 0.939 . S
C380 C379 1.396 . S
C380 C381 1.397 . S
C381 C380 1.397 . S
C381 C382 1.385 . S
C382 H365 0.940 . S
C382 C381 1.385 . S
C382 C383 1.388 . S
C383 H362 0.939 . S
C383 C378 1.391 . S
C383 C382 1.388 . S
P384 O395 1.490 . S
P384 C398 1.812 . S
P384 C404 1.803 . S
P384 C410 1.819 . S
H385 C399 0.941 . S
H386 C400 0.939 . S
H387 C402 0.940 . S
H388 C403 0.940 . S
H389 C405 0.939 . S
H390 C406 0.942 . S
H391 C408 0.940 . S
H392 C409 0.939 . S
H393 C411 0.941 . S
H394 C415 0.939 . S
O395 P384 1.490 . S
H396 C412 0.939 . S
H397 C414 0.940 . S
C398 P384 1.812 . S
C398 C399 1.389 . S
C398 C403 1.391 . S
C399 H385 0.941 . S
C399 C398 1.389 . S
C399 C400 1.397 . S
C400 H386 0.939 . S
C400 C399 1.397 . S
C400 C401 1.378 . S
C401 C400 1.378 . S
C401 C402 1.378 . S
C402 H387 0.940 . S
C402 C401 1.378 . S
C402 C403 1.396 . S
C403 H388 0.940 . S
C403 C398 1.391 . S
C403 C402 1.396 . S
C404 P384 1.803 . S
C404 C405 1.378 . S
C404 C409 1.400 . S
C405 H389 0.939 . S
C405 C404 1.378 . S
C405 C406 1.361 . S
C406 H390 0.942 . S
C406 C405 1.361 . S
C406 C407 1.369 . S
C407 C406 1.369 . S
C407 C408 1.404 . S
C408 H391 0.940 . S
C408 C407 1.404 . S
C408 C409 1.389 . S
C409 H392 0.939 . S
C409 C404 1.400 . S
C409 C408 1.389 . S
C410 P384 1.819 . S
C410 C411 1.391 . S
C410 C415 1.391 . S
C411 H393 0.941 . S
C411 C410 1.391 . S
C411 C412 1.396 . S
C412 H396 0.939 . S
C412 C411 1.396 . S
C412 C413 1.397 . S
C413 C412 1.397 . S
C413 C414 1.385 . S
C414 H397 0.940 . S
C414 C413 1.385 . S
C414 C415 1.388 . S
C415 H394 0.939 . S
C415 C410 1.391 . S
C415 C414 1.388 . S
P416 O427 1.490 . S
P416 C430 1.812 . S
P416 C436 1.803 . S
P416 C442 1.819 . S
H417 C431 0.941 . S
H418 C432 0.939 . S
H419 C434 0.940 . S
H420 C435 0.940 . S
H421 C437 0.939 . S
H422 C438 0.942 . S
H423 C440 0.940 . S
H424 C441 0.939 . S
H425 C443 0.941 . S
H426 C447 0.939 . S
O427 P416 1.490 . S
H428 C444 0.939 . S
H429 C446 0.940 . S
C430 P416 1.812 . S
C430 C431 1.389 . S
C430 C435 1.391 . S
C431 H417 0.941 . S
C431 C430 1.389 . S
C431 C432 1.397 . S
C432 H418 0.939 . S
C432 C431 1.397 . S
C432 C433 1.378 . S
C433 C432 1.378 . S
C433 C434 1.378 . S
C434 H419 0.940 . S
C434 C433 1.378 . S
C434 C435 1.396 . S
C435 H420 0.940 . S
C435 C430 1.391 . S
C435 C434 1.396 . S
C436 P416 1.803 . S
C436 C437 1.378 . S
C436 C441 1.400 . S
C437 H421 0.939 . S
C437 C436 1.378 . S
C437 C438 1.361 . S
C438 H422 0.942 . S
C438 C437 1.361 . S
C438 C439 1.369 . S
C439 C438 1.369 . S
C439 C440 1.404 . S
C440 H423 0.940 . S
C440 C439 1.404 . S
C440 C441 1.389 . S
C441 H424 0.939 . S
C441 C436 1.400 . S
C441 C440 1.389 . S
C442 P416 1.819 . S
C442 C443 1.391 . S
C442 C447 1.391 . S
C443 H425 0.941 . S
C443 C442 1.391 . S
C443 C444 1.396 . S
C444 H428 0.939 . S
C444 C443 1.396 . S
C444 C445 1.397 . S
C445 C444 1.397 . S
C445 C446 1.385 . S
C446 H429 0.940 . S
C446 C445 1.385 . S
C446 C447 1.388 . S
C447 H426 0.939 . S
C447 C442 1.391 . S
C447 C446 1.388 . S
P448 O459 1.490 . S
P448 C462 1.812 . S
P448 C468 1.803 . S
P448 C474 1.819 . S
H449 C463 0.941 . S
H450 C464 0.939 . S
H451 C466 0.940 . S
H452 C467 0.940 . S
H453 C469 0.939 . S
H454 C470 0.942 . S
H455 C472 0.940 . S
H456 C473 0.939 . S
H457 C475 0.941 . S
H458 C479 0.939 . S
O459 P448 1.490 . S
H460 C476 0.939 . S
H461 C478 0.940 . S
C462 P448 1.812 . S
C462 C463 1.389 . S
C462 C467 1.391 . S
C463 H449 0.941 . S
C463 C462 1.389 . S
C463 C464 1.397 . S
C464 H450 0.939 . S
C464 C463 1.397 . S
C464 C465 1.378 . S
C465 C464 1.378 . S
C465 C466 1.378 . S
C466 H451 0.940 . S
C466 C465 1.378 . S
C466 C467 1.396 . S
C467 H452 0.940 . S
C467 C462 1.391 . S
C467 C466 1.396 . S
C468 P448 1.803 . S
C468 C469 1.378 . S
C468 C473 1.400 . S
C469 H453 0.939 . S
C469 C468 1.378 . S
C469 C470 1.361 . S
C470 H454 0.942 . S
C470 C469 1.361 . S
C470 C471 1.369 . S
C471 C470 1.369 . S
C471 C472 1.404 . S
C472 H455 0.940 . S
C472 C471 1.404 . S
C472 C473 1.389 . S
C473 H456 0.939 . S
C473 C468 1.400 . S
C473 C472 1.389 . S
C474 P448 1.819 . S
C474 C475 1.391 . S
C474 C479 1.391 . S
C475 H457 0.941 . S
C475 C474 1.391 . S
C475 C476 1.396 . S
C476 H460 0.939 . S
C476 C475 1.396 . S
C476 C477 1.397 . S
C477 C476 1.397 . S
C477 C478 1.385 . S
C478 H461 0.940 . S
C478 C477 1.385 . S
C478 C479 1.388 . S
C479 H458 0.939 . S
C479 C474 1.391 . S
C479 C478 1.388 . S
P480 O491 1.490 . S
P480 C494 1.812 . S
P480 C500 1.803 . S
P480 C506 1.819 . S
H481 C495 0.941 . S
H482 C496 0.939 . S
H483 C498 0.940 . S
H484 C499 0.940 . S
H485 C501 0.939 . S
H486 C502 0.942 . S
H487 C504 0.940 . S
H488 C505 0.939 . S
H489 C507 0.941 . S
H490 C511 0.939 . S
O491 P480 1.490 . S
H492 C508 0.939 . S
H493 C510 0.940 . S
C494 P480 1.812 . S
C494 C495 1.389 . S
C494 C499 1.391 . S
C495 H481 0.941 . S
C495 C494 1.389 . S
C495 C496 1.397 . S
C496 H482 0.939 . S
C496 C495 1.397 . S
C496 C497 1.378 . S
C497 C496 1.378 . S
C497 C498 1.378 . S
C498 H483 0.940 . S
C498 C497 1.378 . S
C498 C499 1.396 . S
C499 H484 0.940 . S
C499 C494 1.391 . S
C499 C498 1.396 . S
C500 P480 1.803 . S
C500 C501 1.378 . S
C500 C505 1.400 . S
C501 H485 0.939 . S
C501 C500 1.378 . S
C501 C502 1.361 . S
C502 H486 0.942 . S
C502 C501 1.361 . S
C502 C503 1.369 . S
C503 C502 1.369 . S
C503 C504 1.404 . S
C504 H487 0.940 . S
C504 C503 1.404 . S
C504 C505 1.389 . S
C505 H488 0.939 . S
C505 C500 1.400 . S
C505 C504 1.389 . S
C506 P480 1.819 . S
C506 C507 1.391 . S
C506 C511 1.391 . S
C507 H489 0.941 . S
C507 C506 1.391 . S
C507 C508 1.396 . S
C508 H492 0.939 . S
C508 C507 1.396 . S
C508 C509 1.397 . S
C509 C508 1.397 . S
C509 C510 1.385 . S
C510 H493 0.940 . S
C510 C509 1.385 . S
C510 C511 1.388 . S
C511 H490 0.939 . S
C511 C506 1.391 . S
C511 C510 1.388 . S
P512 O523 1.490 . S
P512 C526 1.812 . S
P512 C532 1.803 . S
P512 C538 1.819 . S
H513 C527 0.941 . S
H514 C528 0.939 . S
H515 C530 0.940 . S
H516 C531 0.940 . S
H517 C533 0.939 . S
H518 C534 0.942 . S
H519 C536 0.940 . S
H520 C537 0.939 . S
H521 C539 0.941 . S
H522 C543 0.939 . S
O523 P512 1.490 . S
H524 C540 0.939 . S
H525 C542 0.940 . S
C526 P512 1.812 . S
C526 C527 1.389 . S
C526 C531 1.391 . S
C527 H513 0.941 . S
C527 C526 1.389 . S
C527 C528 1.397 . S
C528 H514 0.939 . S
C528 C527 1.397 . S
C528 C529 1.378 . S
C529 C528 1.378 . S
C529 C530 1.378 . S
C530 H515 0.940 . S
C530 C529 1.378 . S
C530 C531 1.396 . S
C531 H516 0.940 . S
C531 C526 1.391 . S
C531 C530 1.396 . S
C532 P512 1.803 . S
C532 C533 1.378 . S
C532 C537 1.400 . S
C533 H517 0.939 . S
C533 C532 1.378 . S
C533 C534 1.361 . S
C534 H518 0.942 . S
C534 C533 1.361 . S
C534 C535 1.369 . S
C535 C534 1.369 . S
C535 C536 1.404 . S
C536 H519 0.940 . S
C536 C535 1.404 . S
C536 C537 1.389 . S
C537 H520 0.939 . S
C537 C532 1.400 . S
C537 C536 1.389 . S
C538 P512 1.819 . S
C538 C539 1.391 . S
C538 C543 1.391 . S
C539 H521 0.941 . S
C539 C538 1.391 . S
C539 C540 1.396 . S
C540 H524 0.939 . S
C540 C539 1.396 . S
C540 C541 1.397 . S
C541 C540 1.397 . S
C541 C542 1.385 . S
C542 H525 0.940 . S
C542 C541 1.385 . S
C542 C543 1.388 . S
C543 H522 0.939 . S
C543 C538 1.391 . S
C543 C542 1.388 . S
P544 O555 1.490 . S
P544 C558 1.812 . S
P544 C564 1.803 . S
P544 C570 1.819 . S
H545 C559 0.941 . S
H546 C560 0.939 . S
H547 C562 0.940 . S
H548 C563 0.940 . S
H549 C565 0.939 . S
H550 C566 0.942 . S
H551 C568 0.940 . S
H552 C569 0.939 . S
H553 C571 0.941 . S
H554 C575 0.939 . S
O555 P544 1.490 . S
H556 C572 0.939 . S
H557 C574 0.940 . S
C558 P544 1.812 . S
C558 C559 1.389 . S
C558 C563 1.391 . S
C559 H545 0.941 . S
C559 C558 1.389 . S
C559 C560 1.397 . S
C560 H546 0.939 . S
C560 C559 1.397 . S
C560 C561 1.378 . S
C561 C560 1.378 . S
C561 C562 1.378 . S
C562 H547 0.940 . S
C562 C561 1.378 . S
C562 C563 1.396 . S
C563 H548 0.940 . S
C563 C558 1.391 . S
C563 C562 1.396 . S
C564 P544 1.803 . S
C564 C565 1.378 . S
C564 C569 1.400 . S
C565 H549 0.939 . S
C565 C564 1.378 . S
C565 C566 1.361 . S
C566 H550 0.942 . S
C566 C565 1.361 . S
C566 C567 1.369 . S
C567 C566 1.369 . S
C567 C568 1.404 . S
C568 H551 0.940 . S
C568 C567 1.404 . S
C568 C569 1.389 . S
C569 H552 0.939 . S
C569 C564 1.400 . S
C569 C568 1.389 . S
C570 P544 1.819 . S
C570 C571 1.391 . S
C570 C575 1.391 . S
C571 H553 0.941 . S
C571 C570 1.391 . S
C571 C572 1.396 . S
C572 H556 0.939 . S
C572 C571 1.396 . S
C572 C573 1.397 . S
C573 C572 1.397 . S
C573 C574 1.385 . S
C574 H557 0.940 . S
C574 C573 1.385 . S
C574 C575 1.388 . S
C575 H554 0.939 . S
C575 C570 1.391 . S
C575 C574 1.388 . S
P576 O587 1.490 . S
P576 C590 1.812 . S
P576 C596 1.803 . S
P576 C602 1.819 . S
H577 C591 0.941 . S
H578 C592 0.939 . S
H579 C594 0.940 . S
H580 C595 0.940 . S
H581 C597 0.939 . S
H582 C598 0.942 . S
H583 C600 0.940 . S
H584 C601 0.939 . S
H585 C603 0.941 . S
H586 C607 0.939 . S
O587 P576 1.490 . S
H588 C604 0.939 . S
H589 C606 0.940 . S
C590 P576 1.812 . S
C590 C591 1.389 . S
C590 C595 1.391 . S
C591 H577 0.941 . S
C591 C590 1.389 . S
C591 C592 1.397 . S
C592 H578 0.939 . S
C592 C591 1.397 . S
C592 C593 1.378 . S
C593 C592 1.378 . S
C593 C594 1.378 . S
C594 H579 0.940 . S
C594 C593 1.378 . S
C594 C595 1.396 . S
C595 H580 0.940 . S
C595 C590 1.391 . S
C595 C594 1.396 . S
C596 P576 1.803 . S
C596 C597 1.378 . S
C596 C601 1.400 . S
C597 H581 0.939 . S
C597 C596 1.378 . S
C597 C598 1.361 . S
C598 H582 0.942 . S
C598 C597 1.361 . S
C598 C599 1.369 . S
C599 C598 1.369 . S
C599 C600 1.404 . S
C600 H583 0.940 . S
C600 C599 1.404 . S
C600 C601 1.389 . S
C601 H584 0.939 . S
C601 C596 1.400 . S
C601 C600 1.389 . S
C602 P576 1.819 . S
C602 C603 1.391 . S
C602 C607 1.391 . S
C603 H585 0.941 . S
C603 C602 1.391 . S
C603 C604 1.396 . S
C604 H588 0.939 . S
C604 C603 1.396 . S
C604 C605 1.397 . S
C605 C604 1.397 . S
C605 C606 1.385 . S
C606 H589 0.940 . S
C606 C605 1.385 . S
C606 C607 1.388 . S
C607 H586 0.939 . S
C607 C602 1.391 . S
C607 C606 1.388 . S
P608 O619 1.490 . S
P608 C622 1.812 . S
P608 C628 1.803 . S
P608 C634 1.819 . S
H609 C623 0.941 . S
H610 C624 0.939 . S
H611 C626 0.940 . S
H612 C627 0.940 . S
H613 C629 0.939 . S
H614 C630 0.942 . S
H615 C632 0.940 . S
H616 C633 0.939 . S
H617 C635 0.941 . S
H618 C639 0.939 . S
O619 P608 1.490 . S
H620 C636 0.939 . S
H621 C638 0.940 . S
C622 P608 1.812 . S
C622 C623 1.389 . S
C622 C627 1.391 . S
C623 H609 0.941 . S
C623 C622 1.389 . S
C623 C624 1.397 . S
C624 H610 0.939 . S
C624 C623 1.397 . S
C624 C625 1.378 . S
C625 C624 1.378 . S
C625 C626 1.378 . S
C626 H611 0.940 . S
C626 C625 1.378 . S
C626 C627 1.396 . S
C627 H612 0.940 . S
C627 C622 1.391 . S
C627 C626 1.396 . S
C628 P608 1.803 . S
C628 C629 1.378 . S
C628 C633 1.400 . S
C629 H613 0.939 . S
C629 C628 1.378 . S
C629 C630 1.361 . S
C630 H614 0.942 . S
C630 C629 1.361 . S
C630 C631 1.369 . S
C631 C630 1.369 . S
C631 C632 1.404 . S
C632 H615 0.940 . S
C632 C631 1.404 . S
C632 C633 1.389 . S
C633 H616 0.939 . S
C633 C628 1.400 . S
C633 C632 1.389 . S
C634 P608 1.819 . S
C634 C635 1.391 . S
C634 C639 1.391 . S
C635 H617 0.941 . S
C635 C634 1.391 . S
C635 C636 1.396 . S
C636 H620 0.939 . S
C636 C635 1.396 . S
C636 C637 1.397 . S
C637 C636 1.397 . S
C637 C638 1.385 . S
C638 H621 0.940 . S
C638 C637 1.385 . S
C638 C639 1.388 . S
C639 H618 0.939 . S
C639 C634 1.391 . S
C639 C638 1.388 . S
P640 O651 1.490 . S
P640 C654 1.812 . S
P640 C660 1.803 . S
P640 C666 1.819 . S
H641 C655 0.941 . S
H642 C656 0.939 . S
H643 C658 0.940 . S
H644 C659 0.940 . S
H645 C661 0.939 . S
H646 C662 0.942 . S
H647 C664 0.940 . S
H648 C665 0.939 . S
H649 C667 0.941 . S
H650 C671 0.939 . S
O651 P640 1.490 . S
H652 C668 0.939 . S
H653 C670 0.940 . S
C654 P640 1.812 . S
C654 C655 1.389 . S
C654 C659 1.391 . S
C655 H641 0.941 . S
C655 C654 1.389 . S
C655 C656 1.397 . S
C656 H642 0.939 . S
C656 C655 1.397 . S
C656 C657 1.378 . S
C657 C656 1.378 . S
C657 C658 1.378 . S
C658 H643 0.940 . S
C658 C657 1.378 . S
C658 C659 1.396 . S
C659 H644 0.940 . S
C659 C654 1.391 . S
C659 C658 1.396 . S
C660 P640 1.803 . S
C660 C661 1.378 . S
C660 C665 1.400 . S
C661 H645 0.939 . S
C661 C660 1.378 . S
C661 C662 1.361 . S
C662 H646 0.942 . S
C662 C661 1.361 . S
C662 C663 1.369 . S
C663 C662 1.369 . S
C663 C664 1.404 . S
C664 H647 0.940 . S
C664 C663 1.404 . S
C664 C665 1.389 . S
C665 H648 0.939 . S
C665 C660 1.400 . S
C665 C664 1.389 . S
C666 P640 1.819 . S
C666 C667 1.391 . S
C666 C671 1.391 . S
C667 H649 0.941 . S
C667 C666 1.391 . S
C667 C668 1.396 . S
C668 H652 0.939 . S
C668 C667 1.396 . S
C668 C669 1.397 . S
C669 C668 1.397 . S
C669 C670 1.385 . S
C670 H653 0.940 . S
C670 C669 1.385 . S
C670 C671 1.388 . S
C671 H650 0.939 . S
C671 C666 1.391 . S
C671 C670 1.388 . S
P672 O683 1.490 . S
P672 C686 1.812 . S
P672 C692 1.803 . S
P672 C698 1.819 . S
H673 C687 0.941 . S
H674 C688 0.939 . S
H675 C690 0.940 . S
H676 C691 0.940 . S
H677 C693 0.939 . S
H678 C694 0.942 . S
H679 C696 0.940 . S
H680 C697 0.939 . S
H681 C699 0.941 . S
H682 C703 0.939 . S
O683 P672 1.490 . S
H684 C700 0.939 . S
H685 C702 0.940 . S
C686 P672 1.812 . S
C686 C687 1.389 . S
C686 C691 1.391 . S
C687 H673 0.941 . S
C687 C686 1.389 . S
C687 C688 1.397 . S
C688 H674 0.939 . S
C688 C687 1.397 . S
C688 C689 1.378 . S
C689 C688 1.378 . S
C689 C690 1.378 . S
C690 H675 0.940 . S
C690 C689 1.378 . S
C690 C691 1.396 . S
C691 H676 0.940 . S
C691 C686 1.391 . S
C691 C690 1.396 . S
C692 P672 1.803 . S
C692 C693 1.378 . S
C692 C697 1.400 . S
C693 H677 0.939 . S
C693 C692 1.378 . S
C693 C694 1.361 . S
C694 H678 0.942 . S
C694 C693 1.361 . S
C694 C695 1.369 . S
C695 C694 1.369 . S
C695 C696 1.404 . S
C696 H679 0.940 . S
C696 C695 1.404 . S
C696 C697 1.389 . S
C697 H680 0.939 . S
C697 C692 1.400 . S
C697 C696 1.389 . S
C698 P672 1.819 . S
C698 C699 1.391 . S
C698 C703 1.391 . S
C699 H681 0.941 . S
C699 C698 1.391 . S
C699 C700 1.396 . S
C700 H684 0.939 . S
C700 C699 1.396 . S
C700 C701 1.397 . S
C701 C700 1.397 . S
C701 C702 1.385 . S
C702 H685 0.940 . S
C702 C701 1.385 . S
C702 C703 1.388 . S
C703 H682 0.939 . S
C703 C698 1.391 . S
C703 C702 1.388 . S
P704 O715 1.490 . S
P704 C718 1.812 . S
P704 C724 1.803 . S
P704 C730 1.819 . S
H705 C719 0.941 . S
H706 C720 0.939 . S
H707 C722 0.940 . S
H708 C723 0.940 . S
H709 C725 0.939 . S
H710 C726 0.942 . S
H711 C728 0.940 . S
H712 C729 0.939 . S
H713 C731 0.941 . S
H714 C735 0.939 . S
O715 P704 1.490 . S
H716 C732 0.939 . S
H717 C734 0.940 . S
C718 P704 1.812 . S
C718 C719 1.389 . S
C718 C723 1.391 . S
C719 H705 0.941 . S
C719 C718 1.389 . S
C719 C720 1.397 . S
C720 H706 0.939 . S
C720 C719 1.397 . S
C720 C721 1.378 . S
C721 C720 1.378 . S
C721 C722 1.378 . S
C722 H707 0.940 . S
C722 C721 1.378 . S
C722 C723 1.396 . S
C723 H708 0.940 . S
C723 C718 1.391 . S
C723 C722 1.396 . S
C724 P704 1.803 . S
C724 C725 1.378 . S
C724 C729 1.400 . S
C725 H709 0.939 . S
C725 C724 1.378 . S
C725 C726 1.361 . S
C726 H710 0.942 . S
C726 C725 1.361 . S
C726 C727 1.369 . S
C727 C726 1.369 . S
C727 C728 1.404 . S
C728 H711 0.940 . S
C728 C727 1.404 . S
C728 C729 1.389 . S
C729 H712 0.939 . S
C729 C724 1.400 . S
C729 C728 1.389 . S
C730 P704 1.819 . S
C730 C731 1.391 . S
C730 C735 1.391 . S
C731 H713 0.941 . S
C731 C730 1.391 . S
C731 C732 1.396 . S
C732 H716 0.939 . S
C732 C731 1.396 . S
C732 C733 1.397 . S
C733 C732 1.397 . S
C733 C734 1.385 . S
C734 H717 0.940 . S
C734 C733 1.385 . S
C734 C735 1.388 . S
C735 H714 0.939 . S
C735 C730 1.391 . S
C735 C734 1.388 . S
P736 O747 1.490 . S
P736 C750 1.812 . S
P736 C756 1.803 . S
P736 C762 1.819 . S
H737 C751 0.941 . S
H738 C752 0.939 . S
H739 C754 0.940 . S
H740 C755 0.940 . S
H741 C757 0.939 . S
H742 C758 0.942 . S
H743 C760 0.940 . S
H744 C761 0.939 . S
H745 C763 0.941 . S
H746 C767 0.939 . S
O747 P736 1.490 . S
H748 C764 0.939 . S
H749 C766 0.940 . S
C750 P736 1.812 . S
C750 C751 1.389 . S
C750 C755 1.391 . S
C751 H737 0.941 . S
C751 C750 1.389 . S
C751 C752 1.397 . S
C752 H738 0.939 . S
C752 C751 1.397 . S
C752 C753 1.378 . S
C753 C752 1.378 . S
C753 C754 1.378 . S
C754 H739 0.940 . S
C754 C753 1.378 . S
C754 C755 1.396 . S
C755 H740 0.940 . S
C755 C750 1.391 . S
C755 C754 1.396 . S
C756 P736 1.803 . S
C756 C757 1.378 . S
C756 C761 1.400 . S
C757 H741 0.939 . S
C757 C756 1.378 . S
C757 C758 1.361 . S
C758 H742 0.942 . S
C758 C757 1.361 . S
C758 C759 1.369 . S
C759 C758 1.369 . S
C759 C760 1.404 . S
C760 H743 0.940 . S
C760 C759 1.404 . S
C760 C761 1.389 . S
C761 H744 0.939 . S
C761 C756 1.400 . S
C761 C760 1.389 . S
C762 P736 1.819 . S
C762 C763 1.391 . S
C762 C767 1.391 . S
C763 H745 0.941 . S
C763 C762 1.391 . S
C763 C764 1.396 . S
C764 H748 0.939 . S
C764 C763 1.396 . S
C764 C765 1.397 . S
C765 C764 1.397 . S
C765 C766 1.385 . S
C766 H749 0.940 . S
C766 C765 1.385 . S
C766 C767 1.388 . S
C767 H746 0.939 . S
C767 C762 1.391 . S
C767 C766 1.388 . S
P768 O779 1.490 . S
P768 C782 1.812 . S
P768 C788 1.803 . S
P768 C794 1.819 . S
H769 C783 0.941 . S
H770 C784 0.939 . S
H771 C786 0.940 . S
H772 C787 0.940 . S
H773 C789 0.939 . S
H774 C790 0.942 . S
H775 C792 0.940 . S
H776 C793 0.939 . S
H777 C795 0.941 . S
H778 C799 0.939 . S
O779 P768 1.490 . S
H780 C796 0.939 . S
H781 C798 0.940 . S
C782 P768 1.812 . S
C782 C783 1.389 . S
C782 C787 1.391 . S
C783 H769 0.941 . S
C783 C782 1.389 . S
C783 C784 1.397 . S
C784 H770 0.939 . S
C784 C783 1.397 . S
C784 C785 1.378 . S
C785 C784 1.378 . S
C785 C786 1.378 . S
C786 H771 0.940 . S
C786 C785 1.378 . S
C786 C787 1.396 . S
C787 H772 0.940 . S
C787 C782 1.391 . S
C787 C786 1.396 . S
C788 P768 1.803 . S
C788 C789 1.378 . S
C788 C793 1.400 . S
C789 H773 0.939 . S
C789 C788 1.378 . S
C789 C790 1.361 . S
C790 H774 0.942 . S
C790 C789 1.361 . S
C790 C791 1.369 . S
C791 C790 1.369 . S
C791 C792 1.404 . S
C792 H775 0.940 . S
C792 C791 1.404 . S
C792 C793 1.389 . S
C793 H776 0.939 . S
C793 C788 1.400 . S
C793 C792 1.389 . S
C794 P768 1.819 . S
C794 C795 1.391 . S
C794 C799 1.391 . S
C795 H777 0.941 . S
C795 C794 1.391 . S
C795 C796 1.396 . S
C796 H780 0.939 . S
C796 C795 1.396 . S
C796 C797 1.397 . S
C797 C796 1.397 . S
C797 C798 1.385 . S
C798 H781 0.940 . S
C798 C797 1.385 . S
C798 C799 1.388 . S
C799 H778 0.939 . S
C799 C794 1.391 . S
C799 C798 1.388 . S
P800 O811 1.490 . S
P800 C814 1.812 . S
P800 C820 1.803 . S
P800 C826 1.819 . S
H801 C815 0.941 . S
H802 C816 0.939 . S
H803 C818 0.940 . S
H804 C819 0.940 . S
H805 C821 0.939 . S
H806 C822 0.942 . S
H807 C824 0.940 . S
H808 C825 0.939 . S
H809 C827 0.941 . S
H810 C831 0.939 . S
O811 P800 1.490 . S
H812 C828 0.939 . S
H813 C830 0.940 . S
C814 P800 1.812 . S
C814 C815 1.389 . S
C814 C819 1.391 . S
C815 H801 0.941 . S
C815 C814 1.389 . S
C815 C816 1.397 . S
C816 H802 0.939 . S
C816 C815 1.397 . S
C816 C817 1.378 . S
C817 C816 1.378 . S
C817 C818 1.378 . S
C818 H803 0.940 . S
C818 C817 1.378 . S
C818 C819 1.396 . S
C819 H804 0.940 . S
C819 C814 1.391 . S
C819 C818 1.396 . S
C820 P800 1.803 . S
C820 C821 1.378 . S
C820 C825 1.400 . S
C821 H805 0.939 . S
C821 C820 1.378 . S
C821 C822 1.361 . S
C822 H806 0.942 . S
C822 C821 1.361 . S
C822 C823 1.369 . S
C823 C822 1.369 . S
C823 C824 1.404 . S
C824 H807 0.940 . S
C824 C823 1.404 . S
C824 C825 1.389 . S
C825 H808 0.939 . S
C825 C820 1.400 . S
C825 C824 1.389 . S
C826 P800 1.819 . S
C826 C827 1.391 . S
C826 C831 1.391 . S
C827 H809 0.941 . S
C827 C826 1.391 . S
C827 C828 1.396 . S
C828 H812 0.939 . S
C828 C827 1.396 . S
C828 C829 1.397 . S
C829 C828 1.397 . S
C829 C830 1.385 . S
C830 H813 0.940 . S
C830 C829 1.385 . S
C830 C831 1.388 . S
C831 H810 0.939 . S
C831 C826 1.391 . S
C831 C830 1.388 . S
P832 O843 1.490 . S
P832 C846 1.812 . S
P832 C852 1.803 . S
P832 C858 1.819 . S
H833 C847 0.941 . S
H834 C848 0.939 . S
H835 C850 0.940 . S
H836 C851 0.940 . S
H837 C853 0.939 . S
H838 C854 0.942 . S
H839 C856 0.940 . S
H840 C857 0.939 . S
H841 C859 0.941 . S
H842 C863 0.939 . S
O843 P832 1.490 . S
H844 C860 0.939 . S
H845 C862 0.940 . S
C846 P832 1.812 . S
C846 C847 1.389 . S
C846 C851 1.391 . S
C847 H833 0.941 . S
C847 C846 1.389 . S
C847 C848 1.397 . S
C848 H834 0.939 . S
C848 C847 1.397 . S
C848 C849 1.378 . S
C849 C848 1.378 . S
C849 C850 1.378 . S
C850 H835 0.940 . S
C850 C849 1.378 . S
C850 C851 1.396 . S
C851 H836 0.940 . S
C851 C846 1.391 . S
C851 C850 1.396 . S
C852 P832 1.803 . S
C852 C853 1.378 . S
C852 C857 1.400 . S
C853 H837 0.939 . S
C853 C852 1.378 . S
C853 C854 1.361 . S
C854 H838 0.942 . S
C854 C853 1.361 . S
C854 C855 1.369 . S
C855 C854 1.369 . S
C855 C856 1.404 . S
C856 H839 0.940 . S
C856 C855 1.404 . S
C856 C857 1.389 . S
C857 H840 0.939 . S
C857 C852 1.400 . S
C857 C856 1.389 . S
C858 P832 1.819 . S
C858 C859 1.391 . S
C858 C863 1.391 . S
C859 H841 0.941 . S
C859 C858 1.391 . S
C859 C860 1.396 . S
C860 H844 0.939 . S
C860 C859 1.396 . S
C860 C861 1.397 . S
C861 C860 1.397 . S
C861 C862 1.385 . S
C862 H845 0.940 . S
C862 C861 1.385 . S
C862 C863 1.388 . S
C863 H842 0.939 . S
C863 C858 1.391 . S
C863 C862 1.388 . S
P864 O875 1.490 . S
P864 C878 1.812 . S
P864 C884 1.803 . S
P864 C890 1.819 . S
H865 C879 0.941 . S
H866 C880 0.939 . S
H867 C882 0.940 . S
H868 C883 0.940 . S
H869 C885 0.939 . S
H870 C886 0.942 . S
H871 C888 0.940 . S
H872 C889 0.939 . S
H873 C891 0.941 . S
H874 C895 0.939 . S
O875 P864 1.490 . S
H876 C892 0.939 . S
H877 C894 0.940 . S
C878 P864 1.812 . S
C878 C879 1.389 . S
C878 C883 1.391 . S
C879 H865 0.941 . S
C879 C878 1.389 . S
C879 C880 1.397 . S
C880 H866 0.939 . S
C880 C879 1.397 . S
C880 C881 1.378 . S
C881 C880 1.378 . S
C881 C882 1.378 . S
C882 H867 0.940 . S
C882 C881 1.378 . S
C882 C883 1.396 . S
C883 H868 0.940 . S
C883 C878 1.391 . S
C883 C882 1.396 . S
C884 P864 1.803 . S
C884 C885 1.378 . S
C884 C889 1.400 . S
C885 H869 0.939 . S
C885 C884 1.378 . S
C885 C886 1.361 . S
C886 H870 0.942 . S
C886 C885 1.361 . S
C886 C887 1.369 . S
C887 C886 1.369 . S
C887 C888 1.404 . S
C888 H871 0.940 . S
C888 C887 1.404 . S
C888 C889 1.389 . S
C889 H872 0.939 . S
C889 C884 1.400 . S
C889 C888 1.389 . S
C890 P864 1.819 . S
C890 C891 1.391 . S
C890 C895 1.391 . S
C891 H873 0.941 . S
C891 C890 1.391 . S
C891 C892 1.396 . S
C892 H876 0.939 . S
C892 C891 1.396 . S
C892 C893 1.397 . S
C893 C892 1.397 . S
C893 C894 1.385 . S
C894 H877 0.940 . S
C894 C893 1.385 . S
C894 C895 1.388 . S
C895 H874 0.939 . S
C895 C890 1.391 . S
C895 C894 1.388 . S
P896 O907 1.490 . S
P896 C910 1.812 . S
P896 C916 1.803 . S
P896 C922 1.819 . S
H897 C911 0.941 . S
H898 C912 0.939 . S
H899 C914 0.940 . S
H900 C915 0.940 . S
H901 C917 0.939 . S
H902 C918 0.942 . S
H903 C920 0.940 . S
H904 C921 0.939 . S
H905 C923 0.941 . S
H906 C927 0.939 . S
O907 P896 1.490 . S
H908 C924 0.939 . S
H909 C926 0.940 . S
C910 P896 1.812 . S
C910 C911 1.389 . S
C910 C915 1.391 . S
C911 H897 0.941 . S
C911 C910 1.389 . S
C911 C912 1.397 . S
C912 H898 0.939 . S
C912 C911 1.397 . S
C912 C913 1.378 . S
C913 C912 1.378 . S
C913 C914 1.378 . S
C914 H899 0.940 . S
C914 C913 1.378 . S
C914 C915 1.396 . S
C915 H900 0.940 . S
C915 C910 1.391 . S
C915 C914 1.396 . S
C916 P896 1.803 . S
C916 C917 1.378 . S
C916 C921 1.400 . S
C917 H901 0.939 . S
C917 C916 1.378 . S
C917 C918 1.361 . S
C918 H902 0.942 . S
C918 C917 1.361 . S
C918 C919 1.369 . S
C919 C918 1.369 . S
C919 C920 1.404 . S
C920 H903 0.940 . S
C920 C919 1.404 . S
C920 C921 1.389 . S
C921 H904 0.939 . S
C921 C916 1.400 . S
C921 C920 1.389 . S
C922 P896 1.819 . S
C922 C923 1.391 . S
C922 C927 1.391 . S
C923 H905 0.941 . S
C923 C922 1.391 . S
C923 C924 1.396 . S
C924 H908 0.939 . S
C924 C923 1.396 . S
C924 C925 1.397 . S
C925 C924 1.397 . S
C925 C926 1.385 . S
C926 H909 0.940 . S
C926 C925 1.385 . S
C926 C927 1.388 . S
C927 H906 0.939 . S
C927 C922 1.391 . S
C927 C926 1.388 . S
P928 O939 1.490 . S
P928 C942 1.812 . S
P928 C948 1.803 . S
P928 C954 1.819 . S
H929 C943 0.941 . S
H930 C944 0.939 . S
H931 C946 0.940 . S
H932 C947 0.940 . S
H933 C949 0.939 . S
H934 C950 0.942 . S
H935 C952 0.940 . S
H936 C953 0.939 . S
H937 C955 0.941 . S
H938 C959 0.939 . S
O939 P928 1.490 . S
H940 C956 0.939 . S
H941 C958 0.940 . S
C942 P928 1.812 . S
C942 C943 1.389 . S
C942 C947 1.391 . S
C943 H929 0.941 . S
C943 C942 1.389 . S
C943 C944 1.397 . S
C944 H930 0.939 . S
C944 C943 1.397 . S
C944 C945 1.378 . S
C945 C944 1.378 . S
C945 C946 1.378 . S
C946 H931 0.940 . S
C946 C945 1.378 . S
C946 C947 1.396 . S
C947 H932 0.940 . S
C947 C942 1.391 . S
C947 C946 1.396 . S
C948 P928 1.803 . S
C948 C949 1.378 . S
C948 C953 1.400 . S
C949 H933 0.939 . S
C949 C948 1.378 . S
C949 C950 1.361 . S
C950 H934 0.942 . S
C950 C949 1.361 . S
C950 C951 1.369 . S
C951 C950 1.369 . S
C951 C952 1.404 . S
C952 H935 0.940 . S
C952 C951 1.404 . S
C952 C953 1.389 . S
C953 H936 0.939 . S
C953 C948 1.400 . S
C953 C952 1.389 . S
C954 P928 1.819 . S
C954 C955 1.391 . S
C954 C959 1.391 . S
C955 H937 0.941 . S
C955 C954 1.391 . S
C955 C956 1.396 . S
C956 H940 0.939 . S
C956 C955 1.396 . S
C956 C957 1.397 . S
C957 C956 1.397 . S
C957 C958 1.385 . S
C958 H941 0.940 . S
C958 C957 1.385 . S
C958 C959 1.388 . S
C959 H938 0.939 . S
C959 C954 1.391 . S
C959 C958 1.388 . S
P960 O971 1.490 . S
P960 C974 1.812 . S
P960 C980 1.803 . S
P960 C986 1.819 . S
H961 C975 0.941 . S
H962 C976 0.939 . S
H963 C978 0.940 . S
H964 C979 0.940 . S
H965 C981 0.939 . S
H966 C982 0.942 . S
H967 C984 0.940 . S
H968 C985 0.939 . S
H969 C987 0.941 . S
H970 C991 0.939 . S
O971 P960 1.490 . S
H972 C988 0.939 . S
H973 C990 0.940 . S
C974 P960 1.812 . S
C974 C975 1.389 . S
C974 C979 1.391 . S
C975 H961 0.941 . S
C975 C974 1.389 . S
C975 C976 1.397 . S
C976 H962 0.939 . S
C976 C975 1.397 . S
C976 C977 1.378 . S
C977 C976 1.378 . S
C977 C978 1.378 . S
C978 H963 0.940 . S
C978 C977 1.378 . S
C978 C979 1.396 . S
C979 H964 0.940 . S
C979 C974 1.391 . S
C979 C978 1.396 . S
C980 P960 1.803 . S
C980 C981 1.378 . S
C980 C985 1.400 . S
C981 H965 0.939 . S
C981 C980 1.378 . S
C981 C982 1.361 . S
C982 H966 0.942 . S
C982 C981 1.361 . S
C982 C983 1.369 . S
C983 C982 1.369 . S
C983 C984 1.404 . S
C984 H967 0.940 . S
C984 C983 1.404 . S
C984 C985 1.389 . S
C985 H968 0.939 . S
C985 C980 1.400 . S
C985 C984 1.389 . S
C986 P960 1.819 . S
C986 C987 1.391 . S
C986 C991 1.391 . S
C987 H969 0.941 . S
C987 C986 1.391 . S
C987 C988 1.396 . S
C988 H972 0.939 . S
C988 C987 1.396 . S
C988 C989 1.397 . S
C989 C988 1.397 . S
C989 C990 1.385 . S
C990 H973 0.940 . S
C990 C989 1.385 . S
C990 C991 1.388 . S
C991 H970 0.939 . S
C991 C986 1.391 . S
C991 C990 1.388 . S
P992 O1003 1.490 . S
P992 C1006 1.812 . S
P992 C1012 1.803 . S
P992 C1018 1.819 . S
H993 C1007 0.941 . S
H994 C1008 0.939 . S
H995 C1010 0.940 . S
H996 C1011 0.940 . S
H997 C1013 0.939 . S
H998 C1014 0.942 . S
H999 C1016 0.940 . S
H1000 C1017 0.939 . S
H1001 C1019 0.941 . S
H1002 C1023 0.939 . S
O1003 P992 1.490 . S
H1004 C1020 0.939 . S
H1005 C1022 0.940 . S
C1006 P992 1.812 . S
C1006 C1007 1.389 . S
C1006 C1011 1.391 . S
C1007 H993 0.941 . S
C1007 C1006 1.389 . S
C1007 C1008 1.397 . S
C1008 H994 0.939 . S
C1008 C1007 1.397 . S
C1008 C1009 1.378 . S
C1009 C1008 1.378 . S
C1009 C1010 1.378 . S
C1010 H995 0.940 . S
C1010 C1009 1.378 . S
C1010 C1011 1.396 . S
C1011 H996 0.940 . S
C1011 C1006 1.391 . S
C1011 C1010 1.396 . S
C1012 P992 1.803 . S
C1012 C1013 1.378 . S
C1012 C1017 1.400 . S
C1013 H997 0.939 . S
C1013 C1012 1.378 . S
C1013 C1014 1.361 . S
C1014 H998 0.942 . S
C1014 C1013 1.361 . S
C1014 C1015 1.369 . S
C1015 C1014 1.369 . S
C1015 C1016 1.404 . S
C1016 H999 0.940 . S
C1016 C1015 1.404 . S
C1016 C1017 1.389 . S
C1017 H1000 0.939 . S
C1017 C1012 1.400 . S
C1017 C1016 1.389 . S
C1018 P992 1.819 . S
C1018 C1019 1.391 . S
C1018 C1023 1.391 . S
C1019 H1001 0.941 . S
C1019 C1018 1.391 . S
C1019 C1020 1.396 . S
C1020 H1004 0.939 . S
C1020 C1019 1.396 . S
C1020 C1021 1.397 . S
C1021 C1020 1.397 . S
C1021 C1022 1.385 . S
C1022 H1005 0.940 . S
C1022 C1021 1.385 . S
C1022 C1023 1.388 . S
C1023 H1002 0.939 . S
C1023 C1018 1.391 . S
C1023 C1022 1.388 . S
Cu1024 N1025 1.999 . S
Cu1024 O1030 1.991 . S
Cu1024 N1035 1.985 . S
Cu1024 O1044 1.959 . S
N1025 Cu1024 1.999 . S
N1025 C1027 1.263 1_554 S
N1025 C1029 1.389 . S
N1026 C1027 1.358 . S
N1026 C1028 1.400 . S
C1027 N1025 1.263 1_556 S
C1027 N1026 1.358 . S
C1027 H1033 0.930 . S
C1028 N1026 1.400 . S
C1028 C1029 1.351 1_556 S
C1028 H1045 0.930 . S
C1029 N1025 1.389 . S
C1029 C1028 1.351 1_554 S
C1029 H1034 0.930 . S
O1030 Cu1024 1.991 . S
O1030 C1040 1.272 1_554 S
C1031 O1032 1.261 . S
C1031 O1044 1.251 . S
O1032 C1031 1.261 . S
H1033 C1027 0.930 . S
H1034 C1029 0.930 . S
N1035 Cu1024 1.985 . S
N1035 C1037 1.335 . S
N1035 C1038 1.390 . S
N1036 C1037 1.345 . S
N1036 C1039 1.336 . S
C1037 N1035 1.335 . S
C1037 N1036 1.345 . S
C1037 H1042 0.930 . S
C1038 N1035 1.390 . S
C1038 C1039 1.346 . S
C1038 H1043 0.930 . S
C1039 N1036 1.336 . S
C1039 C1038 1.346 . S
C1039 H1046 0.929 . S
C1040 O1030 1.272 1_556 S
C1040 O1041 1.216 . S
O1041 C1040 1.216 . S
H1042 C1037 0.930 . S
H1043 C1038 0.930 . S
O1044 Cu1024 1.959 . S
O1044 C1031 1.251 . S
H1045 C1028 0.930 . S
H1046 C1039 0.929 . S
Cu1047 N1048 1.999 . S
Cu1047 O1053 1.974 . S
Cu1047 N1058 1.985 1_554 S
Cu1047 O1067 1.959 1_554 S
N1048 Cu1047 1.999 . S
N1048 C1050 1.263 . S
N1048 C1052 1.389 . S
N1049 C1050 1.358 . S
N1049 C1051 1.400 . S
C1050 N1048 1.263 . S
C1050 N1049 1.358 . S
C1050 H1056 0.930 . S
C1051 N1049 1.400 . S
C1051 C1052 1.351 . S
C1051 H1068 0.930 . S
C1052 N1048 1.389 . S
C1052 C1051 1.351 . S
C1052 H1057 0.930 . S
O1053 Cu1047 1.974 . S
O1053 C1063 1.282 . S
C1054 O1055 1.261 . S
C1054 O1067 1.251 . S
O1055 C1054 1.261 . S
H1056 C1050 0.930 . S
H1057 C1052 0.930 . S
N1058 Cu1047 1.985 1_556 S
N1058 C1060 1.335 . S
N1058 C1061 1.390 . S
N1059 C1060 1.345 . S
N1059 C1062 1.336 . S
C1060 N1058 1.335 . S
C1060 N1059 1.345 . S
C1060 H1065 0.930 . S
C1061 N1058 1.390 . S
C1061 C1062 1.346 . S
C1061 H1066 0.930 1_556 S
C1062 N1059 1.336 . S
C1062 C1061 1.346 . S
C1062 H1069 0.929 . S
C1063 O1053 1.282 . S
C1063 O1064 1.216 . S
O1064 C1063 1.216 . S
H1065 C1060 0.930 . S
H1066 C1061 0.930 1_554 S
O1067 Cu1047 1.959 1_556 S
O1067 C1054 1.251 . S
H1068 C1051 0.930 . S
H1069 C1062 0.929 . S
Cu1070 N1071 1.999 1_554 S
Cu1070 O1076 1.974 1_554 S
Cu1070 N1081 1.985 . S
Cu1070 O1090 1.959 . S
N1071 Cu1070 1.999 1_556 S
N1071 C1073 1.263 . S
N1071 C1075 1.389 . S
N1072 C1073 1.358 . S
N1072 C1074 1.400 . S
C1073 N1071 1.263 . S
C1073 N1072 1.358 . S
C1073 H1079 0.930 . S
C1074 N1072 1.400 . S
C1074 C1075 1.351 . S
C1074 H1091 0.930 . S
C1075 N1071 1.389 . S
C1075 C1074 1.351 . S
C1075 H1080 0.930 1_556 S
O1076 Cu1070 1.974 1_556 S
O1076 C1086 1.282 . S
C1077 O1078 1.261 . S
C1077 O1090 1.251 . S
O1078 C1077 1.261 . S
H1079 C1073 0.930 . S
H1080 C1075 0.930 1_554 S
N1081 Cu1070 1.985 . S
N1081 C1083 1.335 . S
N1081 C1084 1.390 . S
N1082 C1083 1.345 . S
N1082 C1085 1.336 . S
C1083 N1081 1.335 . S
C1083 N1082 1.345 . S
C1083 H1088 0.930 . S
C1084 N1081 1.390 . S
C1084 C1085 1.346 . S
C1084 H1089 0.930 . S
C1085 N1082 1.336 . S
C1085 C1084 1.346 . S
C1085 H1092 0.929 . S
C1086 O1076 1.282 . S
C1086 O1087 1.216 . S
O1087 C1086 1.216 . S
H1088 C1083 0.930 . S
H1089 C1084 0.930 . S
O1090 Cu1070 1.959 . S
O1090 C1077 1.251 . S
H1091 C1074 0.930 . S
H1092 C1085 0.929 . S
Cu1093 N1094 1.971 1_556 S
Cu1093 O1099 1.940 1_556 S
Cu1093 N1104 2.013 . S
Cu1093 O1113 1.993 . S
N1094 Cu1093 1.971 1_554 S
N1094 C1096 1.263 . S
N1094 C1098 1.389 . S
N1095 C1096 1.358 . S
N1095 C1097 1.400 . S
C1096 N1094 1.263 . S
C1096 N1095 1.358 . S
C1096 H1102 0.930 . S
C1097 N1095 1.400 . S
C1097 C1098 1.351 . S
C1097 H1114 0.930 . S
C1098 N1094 1.389 . S
C1098 C1097 1.351 . S
C1098 H1103 0.930 . S
O1099 Cu1093 1.940 1_554 S
O1099 C1109 1.282 . S
C1100 O1101 1.261 . S
C1100 O1113 1.251 . S
O1101 C1100 1.261 . S
H1102 C1096 0.930 . S
H1103 C1098 0.930 . S
N1104 Cu1093 2.013 . S
N1104 C1106 1.335 . S
N1104 C1107 1.390 . S
N1105 C1106 1.345 . S
N1105 C1108 1.336 . S
C1106 N1104 1.335 . S
C1106 N1105 1.345 . S
C1106 H1111 0.930 . S
C1107 N1104 1.390 . S
C1107 C1108 1.346 . S
C1107 H1112 0.924 1_556 S
C1108 N1105 1.336 . S
C1108 C1107 1.346 . S
C1108 H1115 0.929 . S
C1109 O1099 1.282 . S
C1109 O1110 1.216 . S
O1110 C1109 1.216 . S
H1111 C1106 0.930 . S
H1112 C1107 0.924 1_554 S
O1113 Cu1093 1.993 . S
O1113 C1100 1.251 . S
H1114 C1097 0.930 . S
H1115 C1108 0.929 . S
Cu1116 N1117 1.999 . S
Cu1116 O1122 1.974 . S
Cu1116 N1127 1.985 1_455 S
Cu1116 O1136 1.959 1_455 S
N1117 Cu1116 1.999 . S
N1117 C1119 1.263 . S
N1117 C1121 1.389 . S
N1118 C1119 1.358 . S
N1118 C1120 1.400 . S
C1119 N1117 1.263 . S
C1119 N1118 1.358 . S
C1119 H1125 0.930 . S
C1120 N1118 1.400 . S
C1120 C1121 1.351 . S
C1120 H1137 0.930 . S
C1121 N1117 1.389 . S
C1121 C1120 1.351 . S
C1121 H1126 0.930 . S
O1122 Cu1116 1.974 . S
O1122 C1132 1.282 . S
C1123 O1124 1.261 . S
C1123 O1136 1.251 . S
O1124 C1123 1.261 . S
H1125 C1119 0.930 . S
H1126 C1121 0.930 . S
N1127 Cu1116 1.985 1_655 S
N1127 C1129 1.335 . S
N1127 C1130 1.390 . S
N1128 C1129 1.345 . S
N1128 C1131 1.336 . S
C1129 N1127 1.335 . S
C1129 N1128 1.345 . S
C1129 H1134 0.930 . S
C1130 N1127 1.390 . S
C1130 C1131 1.346 . S
C1130 H1135 0.930 1_655 S
C1131 N1128 1.336 . S
C1131 C1130 1.346 . S
C1131 H1138 0.929 . S
C1132 O1122 1.282 . S
C1132 O1133 1.216 . S
O1133 C1132 1.216 . S
H1134 C1129 0.930 . S
H1135 C1130 0.930 1_455 S
O1136 Cu1116 1.959 1_655 S
O1136 C1123 1.251 . S
H1137 C1120 0.930 . S
H1138 C1131 0.929 . S
Cu1139 N1140 1.999 . S
Cu1139 O1145 1.974 . S
Cu1139 N1150 1.985 1_545 S
Cu1139 O1159 1.959 1_545 S
N1140 Cu1139 1.999 . S
N1140 C1142 1.263 . S
N1140 C1144 1.389 . S
N1141 C1142 1.358 . S
N1141 C1143 1.400 . S
C1142 N1140 1.263 . S
C1142 N1141 1.358 . S
C1142 H1148 0.930 . S
C1143 N1141 1.400 . S
C1143 C1144 1.351 . S
C1143 H1160 0.930 . S
C1144 N1140 1.389 . S
C1144 C1143 1.351 . S
C1144 H1149 0.930 . S
O1145 Cu1139 1.974 . S
O1145 C1155 1.282 . S
C1146 O1147 1.261 . S
C1146 O1159 1.251 . S
O1147 C1146 1.261 . S
H1148 C1142 0.930 . S
H1149 C1144 0.930 . S
N1150 Cu1139 1.985 1_565 S
N1150 C1152 1.335 . S
N1150 C1153 1.390 . S
N1151 C1152 1.345 . S
N1151 C1154 1.336 . S
C1152 N1150 1.335 . S
C1152 N1151 1.345 . S
C1152 H1157 0.930 . S
C1153 N1150 1.390 . S
C1153 C1154 1.346 . S
C1153 H1158 0.930 1_565 S
C1154 N1151 1.336 . S
C1154 C1153 1.346 . S
C1154 H1161 0.929 . S
C1155 O1145 1.282 . S
C1155 O1156 1.216 . S
O1156 C1155 1.216 . S
H1157 C1152 0.930 . S
H1158 C1153 0.930 1_545 S
O1159 Cu1139 1.959 1_565 S
O1159 C1146 1.251 . S
H1160 C1143 0.930 . S
H1161 C1154 0.929 . S
Cu1162 N1163 2.002 1_455 S
Cu1162 O1168 1.976 1_455 S
Cu1162 N1173 1.983 . S
Cu1162 O1182 1.956 . S
N1163 Cu1162 2.002 1_655 S
N1163 C1165 1.263 . S
N1163 C1167 1.389 . S
N1164 C1165 1.358 . S
N1164 C1166 1.400 . S
C1165 N1163 1.263 . S
C1165 N1164 1.358 . S
C1165 H1171 0.930 . S
C1166 N1164 1.400 . S
C1166 C1167 1.351 . S
C1166 H1183 0.930 . S
C1167 N1163 1.389 . S
C1167 C1166 1.351 . S
C1167 H1172 0.930 . S
O1168 Cu1162 1.976 1_655 S
O1168 C1178 1.282 . S
C1169 O1170 1.261 . S
C1169 O1182 1.251 . S
O1170 C1169 1.261 . S
H1171 C1165 0.930 . S
H1172 C1167 0.930 . S
N1173 Cu1162 1.983 . S
N1173 C1175 1.335 . S
N1173 C1176 1.390 . S
N1174 C1175 1.345 . S
N1174 C1177 1.336 . S
C1175 N1173 1.335 . S
C1175 N1174 1.345 . S
C1175 H1180 0.930 . S
C1176 N1173 1.390 . S
C1176 C1177 1.346 . S
C1176 H1181 0.930 . S
C1177 N1174 1.336 . S
C1177 C1176 1.346 . S
C1177 H1184 0.929 . S
C1178 O1168 1.282 . S
C1178 O1179 1.216 . S
O1179 C1178 1.216 . S
H1180 C1175 0.930 . S
H1181 C1176 0.930 . S
O1182 Cu1162 1.956 . S
O1182 C1169 1.251 . S
H1183 C1166 0.930 . S
H1184 C1177 0.929 . S
Cu1185 N1186 1.983 1_565 S
Cu1185 O1191 1.953 1_565 S
Cu1185 N1196 2.001 . S
Cu1185 O1205 1.980 . S
N1186 Cu1185 1.983 1_545 S
N1186 C1188 1.263 . S
N1186 C1190 1.389 . S
N1187 C1188 1.358 . S
N1187 C1189 1.400 . S
C1188 N1186 1.263 . S
C1188 N1187 1.358 . S
C1188 H1194 0.930 . S
C1189 N1187 1.400 . S
C1189 C1190 1.351 . S
C1189 H1206 0.930 . S
C1190 N1186 1.389 . S
C1190 C1189 1.351 . S
C1190 H1195 0.930 . S
O1191 Cu1185 1.953 1_545 S
O1191 C1201 1.282 . S
C1192 O1193 1.261 . S
C1192 O1205 1.251 . S
O1193 C1192 1.261 . S
H1194 C1188 0.930 . S
H1195 C1190 0.930 . S
N1196 Cu1185 2.001 . S
N1196 C1198 1.335 . S
N1196 C1199 1.390 . S
N1197 C1198 1.345 . S
N1197 C1200 1.336 . S
C1198 N1196 1.335 . S
C1198 N1197 1.345 . S
C1198 H1203 0.930 . S
C1199 N1196 1.390 . S
C1199 C1200 1.346 . S
C1199 H1204 0.930 . S
C1200 N1197 1.336 . S
C1200 C1199 1.346 . S
C1200 H1207 0.929 . S
C1201 O1191 1.282 . S
C1201 O1202 1.216 . S
O1202 C1201 1.216 . S
H1203 C1198 0.930 . S
H1204 C1199 0.930 . S
O1205 Cu1185 1.980 . S
O1205 C1192 1.251 . S
H1206 C1189 0.930 . S
H1207 C1200 0.929 . S
Cu1208 N1209 1.999 . S
Cu1208 O1214 1.974 . S
Cu1208 N1219 1.985 1_455 S
Cu1208 O1228 1.959 1_455 S
N1209 Cu1208 1.999 . S
N1209 C1211 1.263 . S
N1209 C1213 1.389 . S
N1210 C1211 1.358 . S
N1210 C1212 1.400 . S
C1211 N1209 1.263 . S
C1211 N1210 1.358 . S
C1211 H1217 0.930 . S
C1212 N1210 1.400 . S
C1212 C1213 1.351 . S
C1212 H1229 0.930 . S
C1213 N1209 1.389 . S
C1213 C1212 1.351 . S
C1213 H1218 0.930 . S
O1214 Cu1208 1.974 . S
O1214 C1224 1.282 . S
C1215 O1216 1.261 . S
C1215 O1228 1.251 . S
O1216 C1215 1.261 . S
H1217 C1211 0.930 . S
H1218 C1213 0.930 . S
N1219 Cu1208 1.985 1_655 S
N1219 C1221 1.335 . S
N1219 C1222 1.390 . S
N1220 C1221 1.345 . S
N1220 C1223 1.336 . S
C1221 N1219 1.335 . S
C1221 N1220 1.345 . S
C1221 H1226 0.930 . S
C1222 N1219 1.390 . S
C1222 C1223 1.346 . S
C1222 H1227 0.930 1_655 S
C1223 N1220 1.336 . S
C1223 C1222 1.346 . S
C1223 H1230 0.929 . S
C1224 O1214 1.282 . S
C1224 O1225 1.216 . S
O1225 C1224 1.216 . S
H1226 C1221 0.930 . S
H1227 C1222 0.930 1_455 S
O1228 Cu1208 1.959 1_655 S
O1228 C1215 1.251 . S
H1229 C1212 0.930 . S
H1230 C1223 0.929 . S
Cu1231 N1232 1.999 . S
Cu1231 O1237 1.974 . S
Cu1231 N1242 1.985 1_545 S
Cu1231 O1251 1.959 1_545 S
N1232 Cu1231 1.999 . S
N1232 C1234 1.263 . S
N1232 C1236 1.389 . S
N1233 C1234 1.358 . S
N1233 C1235 1.400 . S
C1234 N1232 1.263 . S
C1234 N1233 1.358 . S
C1234 H1240 0.930 . S
C1235 N1233 1.400 . S
C1235 C1236 1.351 . S
C1235 H1252 0.930 . S
C1236 N1232 1.389 . S
C1236 C1235 1.351 . S
C1236 H1241 0.930 . S
O1237 Cu1231 1.974 . S
O1237 C1247 1.282 . S
C1238 O1239 1.261 . S
C1238 O1251 1.251 . S
O1239 C1238 1.261 . S
H1240 C1234 0.930 . S
H1241 C1236 0.930 . S
N1242 Cu1231 1.985 1_565 S
N1242 C1244 1.335 . S
N1242 C1245 1.393 . S
N1243 C1244 1.345 . S
N1243 C1246 1.336 . S
C1244 N1242 1.335 . S
C1244 N1243 1.345 . S
C1244 H1249 0.930 . S
C1245 N1242 1.393 . S
C1245 C1246 1.362 . S
C1245 H1250 0.914 1_565 S
C1246 N1243 1.336 . S
C1246 C1245 1.362 . S
C1246 H1253 0.929 . S
C1247 O1237 1.282 . S
C1247 O1248 1.216 . S
O1248 C1247 1.216 . S
H1249 C1244 0.930 . S
H1250 C1245 0.914 1_545 S
O1251 Cu1231 1.959 1_565 S
O1251 C1238 1.251 . S
H1252 C1235 0.930 . S
H1253 C1246 0.929 . S
Cu1254 N1255 1.999 . S
Cu1254 O1260 1.974 . S
Cu1254 N1265 1.985 . S
Cu1254 O1274 1.959 . S
N1255 Cu1254 1.999 . S
N1255 C1257 1.263 1_455 S
N1255 C1259 1.389 . S
N1256 C1257 1.358 . S
N1256 C1258 1.400 . S
C1257 N1255 1.263 1_655 S
C1257 N1256 1.358 . S
C1257 H1263 0.930 . S
C1258 N1256 1.400 . S
C1258 C1259 1.351 1_655 S
C1258 H1275 0.930 . S
C1259 N1255 1.389 . S
C1259 C1258 1.351 1_455 S
C1259 H1264 0.930 . S
O1260 Cu1254 1.974 . S
O1260 C1270 1.282 1_455 S
C1261 O1262 1.261 . S
C1261 O1274 1.251 . S
O1262 C1261 1.261 . S
H1263 C1257 0.930 . S
H1264 C1259 0.930 . S
N1265 Cu1254 1.985 . S
N1265 C1267 1.335 . S
N1265 C1268 1.390 . S
N1266 C1267 1.345 . S
N1266 C1269 1.336 . S
C1267 N1265 1.335 . S
C1267 N1266 1.345 . S
C1267 H1272 0.930 . S
C1268 N1265 1.390 . S
C1268 C1269 1.346 . S
C1268 H1273 0.930 . S
C1269 N1266 1.336 . S
C1269 C1268 1.346 . S
C1269 H1276 0.929 . S
C1270 O1260 1.282 1_655 S
C1270 O1271 1.216 1_655 S
O1271 C1270 1.216 1_455 S
H1272 C1267 0.930 . S
H1273 C1268 0.930 . S
O1274 Cu1254 1.959 . S
O1274 C1261 1.251 . S
H1275 C1258 0.930 . S
H1276 C1269 0.929 . S
Cu1277 N1278 1.999 . S
Cu1277 O1283 1.974 . S
Cu1277 N1288 1.985 . S
Cu1277 O1297 1.959 1_545 S
N1278 Cu1277 1.999 . S
N1278 C1280 1.263 . S
N1278 C1282 1.389 . S
N1279 C1280 1.358 . S
N1279 C1281 1.400 . S
C1280 N1278 1.263 . S
C1280 N1279 1.358 . S
C1280 H1286 0.930 . S
C1281 N1279 1.400 . S
C1281 C1282 1.351 . S
C1281 H1298 0.930 . S
C1282 N1278 1.389 . S
C1282 C1281 1.351 . S
C1282 H1287 0.930 . S
O1283 Cu1277 1.974 . S
O1283 C1293 1.282 . S
C1284 O1285 1.234 1_565 S
C1284 O1297 1.251 . S
O1285 C1284 1.234 1_545 S
H1286 C1280 0.930 . S
H1287 C1282 0.930 . S
N1288 Cu1277 1.985 . S
N1288 C1290 1.335 1_545 S
N1288 C1291 1.390 . S
N1289 C1290 1.345 . S
N1289 C1292 1.336 . S
C1290 N1288 1.335 1_565 S
C1290 N1289 1.345 . S
C1290 H1295 0.930 . S
C1291 N1288 1.390 . S
C1291 C1292 1.346 1_545 S
C1291 H1296 0.930 . S
C1292 N1289 1.336 . S
C1292 C1291 1.346 1_565 S
C1292 H1299 0.929 . S
C1293 O1283 1.282 . S
C1293 O1294 1.216 . S
O1294 C1293 1.216 . S
H1295 C1290 0.930 . S
H1296 C1291 0.930 . S
O1297 Cu1277 1.959 1_565 S
O1297 C1284 1.251 . S
H1298 C1281 0.930 . S
H1299 C1292 0.929 . S
Cu1300 N1301 1.999 . S
Cu1300 O1306 1.974 . S
Cu1300 N1311 1.985 . S
Cu1300 O1320 1.959 . S
N1301 Cu1300 1.999 . S
N1301 C1303 1.263 . S
N1301 C1305 1.389 . S
N1302 C1303 1.358 . S
N1302 C1304 1.400 . S
C1303 N1301 1.263 . S
C1303 N1302 1.358 . S
C1303 H1309 0.930 . S
C1304 N1302 1.400 . S
C1304 C1305 1.351 . S
C1304 H1321 0.930 . S
C1305 N1301 1.389 . S
C1305 C1304 1.351 . S
C1305 H1310 0.930 . S
O1306 Cu1300 1.974 . S
O1306 C1316 1.282 . S
C1307 O1308 1.261 . S
C1307 O1320 1.251 . S
O1308 C1307 1.261 . S
H1309 C1303 0.930 . S
H1310 C1305 0.930 . S
N1311 Cu1300 1.985 . S
N1311 C1313 1.335 . S
N1311 C1314 1.390 . S
N1312 C1313 1.345 . S
N1312 C1315 1.336 . S
C1313 N1311 1.335 . S
C1313 N1312 1.345 . S
C1313 H1318 0.930 . S
C1314 N1311 1.390 . S
C1314 C1315 1.346 . S
C1314 H1319 0.930 . S
C1315 N1312 1.336 . S
C1315 C1314 1.346 . S
C1315 H1322 0.929 . S
C1316 O1306 1.282 . S
C1316 O1317 1.216 . S
O1317 C1316 1.216 . S
H1318 C1313 0.930 . S
H1319 C1314 0.930 . S
O1320 Cu1300 1.959 . S
O1320 C1307 1.251 . S
H1321 C1304 0.930 . S
H1322 C1315 0.929 . S
Cu1323 N1324 1.999 . S
Cu1323 O1329 1.974 . S
Cu1323 N1334 1.985 . S
Cu1323 O1343 1.959 . S
N1324 Cu1323 1.999 . S
N1324 C1326 1.263 . S
N1324 C1328 1.389 . S
N1325 C1326 1.358 . S
N1325 C1327 1.400 . S
C1326 N1324 1.263 . S
C1326 N1325 1.358 . S
C1326 H1332 0.930 . S
C1327 N1325 1.400 . S
C1327 C1328 1.351 . S
C1327 H1344 0.930 . S
C1328 N1324 1.389 . S
C1328 C1327 1.351 . S
C1328 H1333 0.930 . S
O1329 Cu1323 1.974 . S
O1329 C1339 1.282 . S
C1330 O1331 1.261 . S
C1330 O1343 1.251 . S
O1331 C1330 1.261 . S
H1332 C1326 0.930 . S
H1333 C1328 0.930 . S
N1334 Cu1323 1.985 . S
N1334 C1336 1.335 . S
N1334 C1337 1.390 . S
N1335 C1336 1.345 . S
N1335 C1338 1.336 . S
C1336 N1334 1.335 . S
C1336 N1335 1.345 . S
C1336 H1341 0.930 . S
C1337 N1334 1.390 . S
C1337 C1338 1.346 . S
C1337 H1342 0.930 . S
C1338 N1335 1.336 . S
C1338 C1337 1.346 . S
C1338 H1345 0.929 . S
C1339 O1329 1.282 . S
C1339 O1340 1.216 . S
O1340 C1339 1.216 . S
H1341 C1336 0.930 . S
H1342 C1337 0.930 . S
O1343 Cu1323 1.959 . S
O1343 C1330 1.251 . S
H1344 C1327 0.930 . S
H1345 C1338 0.929 . S
Cu1346 N1347 1.999 . S
Cu1346 O1352 1.974 . S
Cu1346 N1357 1.985 . S
Cu1346 O1366 1.959 . S
N1347 Cu1346 1.999 . S
N1347 C1349 1.263 . S
N1347 C1351 1.389 . S
N1348 C1349 1.358 . S
N1348 C1350 1.400 . S
C1349 N1347 1.263 . S
C1349 N1348 1.358 . S
C1349 H1355 0.930 . S
C1350 N1348 1.400 . S
C1350 C1351 1.351 . S
C1350 H1367 0.930 . S
C1351 N1347 1.389 . S
C1351 C1350 1.351 . S
C1351 H1356 0.930 . S
O1352 Cu1346 1.974 . S
O1352 C1362 1.282 . S
C1353 O1354 1.261 . S
C1353 O1366 1.251 . S
O1354 C1353 1.261 . S
H1355 C1349 0.930 . S
H1356 C1351 0.930 . S
N1357 Cu1346 1.985 . S
N1357 C1359 1.335 . S
N1357 C1360 1.390 . S
N1358 C1359 1.345 . S
N1358 C1361 1.336 . S
C1359 N1357 1.335 . S
C1359 N1358 1.345 . S
C1359 H1364 0.930 . S
C1360 N1357 1.390 . S
C1360 C1361 1.346 . S
C1360 H1365 0.930 . S
C1361 N1358 1.336 . S
C1361 C1360 1.346 . S
C1361 H1368 0.929 . S
C1362 O1352 1.282 . S
C1362 O1363 1.216 . S
O1363 C1362 1.216 . S
H1364 C1359 0.930 . S
H1365 C1360 0.930 . S
O1366 Cu1346 1.959 . S
O1366 C1353 1.251 . S
H1367 C1350 0.930 . S
H1368 C1361 0.929 . S
Cu1369 N1370 1.999 . S
Cu1369 O1375 1.974 . S
Cu1369 N1380 1.985 . S
Cu1369 O1389 1.959 . S
N1370 Cu1369 1.999 . S
N1370 C1372 1.263 . S
N1370 C1374 1.389 . S
N1371 C1372 1.358 . S
N1371 C1373 1.400 . S
C1372 N1370 1.263 . S
C1372 N1371 1.358 . S
C1372 H1378 0.930 . S
C1373 N1371 1.400 . S
C1373 C1374 1.351 . S
C1373 H1390 0.930 . S
C1374 N1370 1.389 . S
C1374 C1373 1.351 . S
C1374 H1379 0.930 . S
O1375 Cu1369 1.974 . S
O1375 C1385 1.282 . S
C1376 O1377 1.261 . S
C1376 O1389 1.251 . S
O1377 C1376 1.261 . S
H1378 C1372 0.930 . S
H1379 C1374 0.930 . S
N1380 Cu1369 1.985 . S
N1380 C1382 1.335 . S
N1380 C1383 1.390 . S
N1381 C1382 1.345 . S
N1381 C1384 1.336 . S
C1382 N1380 1.335 . S
C1382 N1381 1.345 . S
C1382 H1387 0.930 . S
C1383 N1380 1.390 . S
C1383 C1384 1.346 . S
C1383 H1388 0.930 . S
C1384 N1381 1.336 . S
C1384 C1383 1.346 . S
C1384 H1391 0.929 . S
C1385 O1375 1.282 . S
C1385 O1386 1.216 . S
O1386 C1385 1.216 . S
H1387 C1382 0.930 . S
H1388 C1383 0.930 . S
O1389 Cu1369 1.959 . S
O1389 C1376 1.251 . S
H1390 C1373 0.930 . S
H1391 C1384 0.929 . S
Cu1392 N1393 1.999 . S
Cu1392 O1398 1.974 . S
Cu1392 N1403 1.985 . S
Cu1392 O1412 1.959 . S
N1393 Cu1392 1.999 . S
N1393 C1395 1.263 . S
N1393 C1397 1.389 . S
N1394 C1395 1.358 . S
N1394 C1396 1.400 . S
C1395 N1393 1.263 . S
C1395 N1394 1.358 . S
C1395 H1401 0.930 . S
C1396 N1394 1.400 . S
C1396 C1397 1.351 . S
C1396 H1413 0.930 . S
C1397 N1393 1.389 . S
C1397 C1396 1.351 . S
C1397 H1402 0.930 . S
O1398 Cu1392 1.974 . S
O1398 C1408 1.282 . S
C1399 O1400 1.261 . S
C1399 O1412 1.251 . S
O1400 C1399 1.261 . S
H1401 C1395 0.930 . S
H1402 C1397 0.930 . S
N1403 Cu1392 1.985 . S
N1403 C1405 1.335 . S
N1403 C1406 1.390 . S
N1404 C1405 1.345 . S
N1404 C1407 1.336 . S
C1405 N1403 1.335 . S
C1405 N1404 1.345 . S
C1405 H1410 0.930 . S
C1406 N1403 1.390 . S
C1406 C1407 1.346 . S
C1406 H1411 0.930 . S
C1407 N1404 1.336 . S
C1407 C1406 1.346 . S
C1407 H1414 0.929 . S
C1408 O1398 1.282 . S
C1408 O1409 1.216 . S
O1409 C1408 1.216 . S
H1410 C1405 0.930 . S
H1411 C1406 0.930 . S
O1412 Cu1392 1.959 . S
O1412 C1399 1.251 . S
H1413 C1396 0.930 . S
H1414 C1407 0.929 . S
Cu1415 N1416 1.999 . S
Cu1415 O1421 1.974 . S
Cu1415 N1426 1.985 . S
Cu1415 O1435 1.959 . S
N1416 Cu1415 1.999 . S
N1416 C1418 1.263 . S
N1416 C1420 1.389 . S
N1417 C1418 1.358 . S
N1417 C1419 1.400 . S
C1418 N1416 1.263 . S
C1418 N1417 1.358 . S
C1418 H1424 0.930 . S
C1419 N1417 1.400 . S
C1419 C1420 1.351 . S
C1419 H1436 0.930 . S
C1420 N1416 1.389 . S
C1420 C1419 1.351 . S
C1420 H1425 0.930 . S
O1421 Cu1415 1.974 . S
O1421 C1431 1.282 . S
C1422 O1423 1.261 . S
C1422 O1435 1.251 . S
O1423 C1422 1.261 . S
H1424 C1418 0.930 . S
H1425 C1420 0.930 . S
N1426 Cu1415 1.985 . S
N1426 C1428 1.335 . S
N1426 C1429 1.390 . S
N1427 C1428 1.345 . S
N1427 C1430 1.336 . S
C1428 N1426 1.335 . S
C1428 N1427 1.345 . S
C1428 H1433 0.930 . S
C1429 N1426 1.390 . S
C1429 C1430 1.346 . S
C1429 H1434 0.930 . S
C1430 N1427 1.336 . S
C1430 C1429 1.346 . S
C1430 H1437 0.929 . S
C1431 O1421 1.282 . S
C1431 O1432 1.216 . S
O1432 C1431 1.216 . S
H1433 C1428 0.930 . S
H1434 C1429 0.930 . S
O1435 Cu1415 1.959 . S
O1435 C1422 1.251 . S
H1436 C1419 0.930 . S
H1437 C1430 0.929 . S
Cu1438 N1439 1.999 . S
Cu1438 O1444 1.974 . S
Cu1438 N1449 1.985 . S
Cu1438 O1458 1.959 . S
N1439 Cu1438 1.999 . S
N1439 C1441 1.263 . S
N1439 C1443 1.389 . S
N1440 C1441 1.358 . S
N1440 C1442 1.400 . S
C1441 N1439 1.263 . S
C1441 N1440 1.358 . S
C1441 H1447 0.930 . S
C1442 N1440 1.400 . S
C1442 C1443 1.351 . S
C1442 H1459 0.930 . S
C1443 N1439 1.389 . S
C1443 C1442 1.351 . S
C1443 H1448 0.930 . S
O1444 Cu1438 1.974 . S
O1444 C1454 1.282 . S
C1445 O1446 1.261 . S
C1445 O1458 1.251 . S
O1446 C1445 1.261 . S
H1447 C1441 0.930 . S
H1448 C1443 0.930 . S
N1449 Cu1438 1.985 . S
N1449 C1451 1.335 . S
N1449 C1452 1.390 . S
N1450 C1451 1.345 . S
N1450 C1453 1.336 . S
C1451 N1449 1.335 . S
C1451 N1450 1.345 . S
C1451 H1456 0.930 . S
C1452 N1449 1.390 . S
C1452 C1453 1.346 . S
C1452 H1457 0.930 . S
C1453 N1450 1.336 . S
C1453 C1452 1.346 . S
C1453 H1460 0.929 . S
C1454 O1444 1.282 . S
C1454 O1455 1.216 . S
O1455 C1454 1.216 . S
H1456 C1451 0.930 . S
H1457 C1452 0.930 . S
O1458 Cu1438 1.959 . S
O1458 C1445 1.251 . S
H1459 C1442 0.930 . S
H1460 C1453 0.929 . S
Cu1461 N1462 1.999 . S
Cu1461 O1467 1.974 . S
Cu1461 N1472 1.985 . S
Cu1461 O1481 1.959 . S
N1462 Cu1461 1.999 . S
N1462 C1464 1.263 . S
N1462 C1466 1.389 . S
N1463 C1464 1.358 . S
N1463 C1465 1.400 . S
C1464 N1462 1.263 . S
C1464 N1463 1.358 . S
C1464 H1470 0.930 . S
C1465 N1463 1.400 . S
C1465 C1466 1.351 . S
C1465 H1482 0.930 . S
C1466 N1462 1.389 . S
C1466 C1465 1.351 . S
C1466 H1471 0.930 . S
O1467 Cu1461 1.974 . S
O1467 C1477 1.282 . S
C1468 O1469 1.261 . S
C1468 O1481 1.251 . S
O1469 C1468 1.261 . S
H1470 C1464 0.930 . S
H1471 C1466 0.930 . S
N1472 Cu1461 1.985 . S
N1472 C1474 1.335 . S
N1472 C1475 1.390 . S
N1473 C1474 1.345 . S
N1473 C1476 1.336 . S
C1474 N1472 1.335 . S
C1474 N1473 1.345 . S
C1474 H1479 0.930 . S
C1475 N1472 1.390 . S
C1475 C1476 1.346 . S
C1475 H1480 0.930 . S
C1476 N1473 1.336 . S
C1476 C1475 1.346 . S
C1476 H1483 0.929 . S
C1477 O1467 1.282 . S
C1477 O1478 1.216 . S
O1478 C1477 1.216 . S
H1479 C1474 0.930 . S
H1480 C1475 0.930 . S
O1481 Cu1461 1.959 . S
O1481 C1468 1.251 . S
H1482 C1465 0.930 . S
H1483 C1476 0.929 . S
Cu1484 N1485 1.999 . S
Cu1484 O1490 1.974 . S
Cu1484 N1495 1.985 . S
Cu1484 O1504 1.959 . S
N1485 Cu1484 1.999 . S
N1485 C1487 1.263 . S
N1485 C1489 1.389 . S
N1486 C1487 1.358 . S
N1486 C1488 1.400 . S
C1487 N1485 1.263 . S
C1487 N1486 1.358 . S
C1487 H1493 0.930 . S
C1488 N1486 1.400 . S
C1488 C1489 1.351 . S
C1488 H1505 0.930 . S
C1489 N1485 1.389 . S
C1489 C1488 1.351 . S
C1489 H1494 0.930 . S
O1490 Cu1484 1.974 . S
O1490 C1500 1.282 . S
C1491 O1492 1.261 . S
C1491 O1504 1.251 . S
O1492 C1491 1.261 . S
H1493 C1487 0.930 . S
H1494 C1489 0.930 . S
N1495 Cu1484 1.985 . S
N1495 C1497 1.335 . S
N1495 C1498 1.390 . S
N1496 C1497 1.345 . S
N1496 C1499 1.336 . S
C1497 N1495 1.335 . S
C1497 N1496 1.345 . S
C1497 H1502 0.930 . S
C1498 N1495 1.390 . S
C1498 C1499 1.346 . S
C1498 H1503 0.930 . S
C1499 N1496 1.336 . S
C1499 C1498 1.346 . S
C1499 H1506 0.929 . S
C1500 O1490 1.282 . S
C1500 O1501 1.216 . S
O1501 C1500 1.216 . S
H1502 C1497 0.930 . S
H1503 C1498 0.930 . S
O1504 Cu1484 1.959 . S
O1504 C1491 1.251 . S
H1505 C1488 0.930 . S
H1506 C1499 0.929 . S
Cu1507 N1508 1.999 . S
Cu1507 O1513 1.974 . S
Cu1507 N1518 1.985 . S
Cu1507 O1527 1.959 . S
N1508 Cu1507 1.999 . S
N1508 C1510 1.263 . S
N1508 C1512 1.389 . S
N1509 C1510 1.358 . S
N1509 C1511 1.400 . S
C1510 N1508 1.263 . S
C1510 N1509 1.358 . S
C1510 H1516 0.930 . S
C1511 N1509 1.400 . S
C1511 C1512 1.351 . S
C1511 H1528 0.930 . S
C1512 N1508 1.389 . S
C1512 C1511 1.351 . S
C1512 H1517 0.930 . S
O1513 Cu1507 1.974 . S
O1513 C1523 1.282 . S
C1514 O1515 1.261 . S
C1514 O1527 1.251 . S
O1515 C1514 1.261 . S
H1516 C1510 0.930 . S
H1517 C1512 0.930 . S
N1518 Cu1507 1.985 . S
N1518 C1520 1.335 . S
N1518 C1521 1.390 . S
N1519 C1520 1.345 . S
N1519 C1522 1.336 . S
C1520 N1518 1.335 . S
C1520 N1519 1.345 . S
C1520 H1525 0.930 . S
C1521 N1518 1.390 . S
C1521 C1522 1.346 . S
C1521 H1526 0.930 . S
C1522 N1519 1.336 . S
C1522 C1521 1.346 . S
C1522 H1529 0.929 . S
C1523 O1513 1.282 . S
C1523 O1524 1.216 . S
O1524 C1523 1.216 . S
H1525 C1520 0.930 . S
H1526 C1521 0.930 . S
O1527 Cu1507 1.959 . S
O1527 C1514 1.251 . S
H1528 C1511 0.930 . S
H1529 C1522 0.929 . S
Cu1530 N1531 1.999 . S
Cu1530 O1536 1.974 . S
Cu1530 N1541 1.985 . S
Cu1530 O1550 1.959 . S
N1531 Cu1530 1.999 . S
N1531 C1533 1.263 . S
N1531 C1535 1.389 . S
N1532 C1533 1.358 . S
N1532 C1534 1.400 . S
C1533 N1531 1.263 . S
C1533 N1532 1.358 . S
C1533 H1539 0.930 . S
C1534 N1532 1.400 . S
C1534 C1535 1.351 . S
C1534 H1551 0.930 . S
C1535 N1531 1.389 . S
C1535 C1534 1.351 . S
C1535 H1540 0.930 . S
O1536 Cu1530 1.974 . S
O1536 C1546 1.282 . S
C1537 O1538 1.261 . S
C1537 O1550 1.251 . S
O1538 C1537 1.261 . S
H1539 C1533 0.930 . S
H1540 C1535 0.930 . S
N1541 Cu1530 1.985 . S
N1541 C1543 1.335 . S
N1541 C1544 1.390 . S
N1542 C1543 1.345 . S
N1542 C1545 1.336 . S
C1543 N1541 1.335 . S
C1543 N1542 1.345 . S
C1543 H1548 0.930 . S
C1544 N1541 1.390 . S
C1544 C1545 1.346 . S
C1544 H1549 0.930 . S
C1545 N1542 1.336 . S
C1545 C1544 1.346 . S
C1545 H1552 0.929 . S
C1546 O1536 1.282 . S
C1546 O1547 1.216 . S
O1547 C1546 1.216 . S
H1548 C1543 0.930 . S
H1549 C1544 0.930 . S
O1550 Cu1530 1.959 . S
O1550 C1537 1.251 . S
H1551 C1534 0.930 . S
H1552 C1545 0.929 . S
Cu1553 N1554 1.999 . S
Cu1553 O1559 1.974 . S
Cu1553 N1564 1.985 . S
Cu1553 O1573 1.959 . S
N1554 Cu1553 1.999 . S
N1554 C1556 1.263 . S
N1554 C1558 1.389 . S
N1555 C1556 1.358 . S
N1555 C1557 1.400 . S
C1556 N1554 1.263 . S
C1556 N1555 1.358 . S
C1556 H1562 0.930 . S
C1557 N1555 1.400 . S
C1557 C1558 1.351 . S
C1557 H1574 0.930 . S
C1558 N1554 1.389 . S
C1558 C1557 1.351 . S
C1558 H1563 0.930 . S
O1559 Cu1553 1.974 . S
O1559 C1569 1.282 . S
C1560 O1561 1.261 . S
C1560 O1573 1.251 . S
O1561 C1560 1.261 . S
H1562 C1556 0.930 . S
H1563 C1558 0.930 . S
N1564 Cu1553 1.985 . S
N1564 C1566 1.335 . S
N1564 C1567 1.390 . S
N1565 C1566 1.345 . S
N1565 C1568 1.336 . S
C1566 N1564 1.335 . S
C1566 N1565 1.345 . S
C1566 H1571 0.930 . S
C1567 N1564 1.390 . S
C1567 C1568 1.346 . S
C1567 H1572 0.930 . S
C1568 N1565 1.336 . S
C1568 C1567 1.346 . S
C1568 H1575 0.929 . S
C1569 O1559 1.282 . S
C1569 O1570 1.216 . S
O1570 C1569 1.216 . S
H1571 C1566 0.930 . S
H1572 C1567 0.930 . S
O1573 Cu1553 1.959 . S
O1573 C1560 1.251 . S
H1574 C1557 0.930 . S
H1575 C1568 0.929 . S
C1576 C1577 1.387 . S
C1576 H1580 0.950 . S
C1576 C1585 1.390 . S
C1577 C1576 1.387 . S
C1577 C1579 1.387 . S
H1578 C1585 0.950 . S
C1579 C1577 1.387 . S
C1579 C1581 1.390 . S
C1579 H1583 0.950 . S
H1580 C1576 0.950 . S
C1581 C1579 1.390 . S
C1581 C1582 1.387 . S
C1581 H1584 0.950 . S
C1582 C1581 1.387 . S
C1582 C1585 1.387 . S
H1583 C1579 0.950 . S
H1584 C1581 0.950 . S
C1585 C1576 1.390 . S
C1585 H1578 0.950 . S
C1585 C1582 1.387 . S
C1586 C1587 1.387 . S
C1586 H1590 0.950 . S
C1586 C1595 1.390 . S
C1587 C1586 1.387 . S
C1587 C1589 1.387 . S
H1588 C1595 0.950 . S
C1589 C1587 1.387 . S
C1589 C1591 1.390 . S
C1589 H1593 0.950 . S
H1590 C1586 0.950 . S
C1591 C1589 1.390 . S
C1591 C1592 1.387 . S
C1591 H1594 0.950 . S
C1592 C1591 1.387 . S
C1592 C1595 1.387 . S
H1593 C1589 0.950 . S
H1594 C1591 0.950 . S
C1595 C1586 1.390 . S
C1595 H1588 0.950 . S
C1595 C1592 1.387 . S
C1596 C1597 1.387 . S
C1596 H1600 0.950 . S
C1596 C1605 1.390 . S
C1597 C1596 1.387 . S
C1597 C1599 1.387 . S
H1598 C1605 0.950 . S
C1599 C1597 1.387 . S
C1599 C1601 1.390 . S
C1599 H1603 0.950 . S
H1600 C1596 0.950 . S
C1601 C1599 1.390 . S
C1601 C1602 1.387 . S
C1601 H1604 0.950 . S
C1602 C1601 1.387 . S
C1602 C1605 1.387 . S
H1603 C1599 0.950 . S
H1604 C1601 0.950 . S
C1605 C1596 1.390 . S
C1605 H1598 0.950 . S
C1605 C1602 1.387 . S
C1606 C1607 1.387 . S
C1606 H1610 0.950 . S
C1606 C1615 1.390 . S
C1607 C1606 1.387 . S
C1607 C1609 1.387 . S
H1608 C1615 0.950 . S
C1609 C1607 1.387 . S
C1609 C1611 1.390 . S
C1609 H1613 0.950 . S
H1610 C1606 0.950 . S
C1611 C1609 1.390 . S
C1611 C1612 1.387 . S
C1611 H1614 0.950 . S
C1612 C1611 1.387 . S
C1612 C1615 1.387 . S
H1613 C1609 0.950 . S
H1614 C1611 0.950 . S
C1615 C1606 1.390 . S
C1615 H1608 0.950 . S
C1615 C1612 1.387 . S
C1616 C1617 1.387 . S
C1616 H1620 0.950 . S
C1616 C1625 1.390 . S
C1617 C1616 1.387 . S
C1617 C1619 1.387 . S
H1618 C1625 0.950 . S
C1619 C1617 1.387 . S
C1619 C1621 1.390 . S
C1619 H1623 0.950 . S
H1620 C1616 0.950 . S
C1621 C1619 1.390 . S
C1621 C1622 1.387 . S
C1621 H1624 0.950 . S
C1622 C1621 1.387 . S
C1622 C1625 1.387 . S
H1623 C1619 0.950 . S
H1624 C1621 0.950 . S
C1625 C1616 1.390 . S
C1625 H1618 0.950 . S
C1625 C1622 1.387 . S
C1626 C1627 1.387 . S
C1626 H1630 0.950 . S
C1626 C1635 1.390 . S
C1627 C1626 1.387 . S
C1627 C1629 1.387 . S
H1628 C1635 0.950 . S
C1629 C1627 1.387 . S
C1629 C1631 1.390 . S
C1629 H1633 0.950 . S
H1630 C1626 0.950 . S
C1631 C1629 1.390 . S
C1631 C1632 1.387 . S
C1631 H1634 0.950 . S
C1632 C1631 1.387 . S
C1632 C1635 1.387 . S
H1633 C1629 0.950 . S
H1634 C1631 0.950 . S
C1635 C1626 1.390 . S
C1635 H1628 0.950 . S
C1635 C1632 1.387 . S
C1636 C1637 1.387 . S
C1636 H1640 0.950 . S
C1636 C1645 1.390 . S
C1637 C1636 1.387 . S
C1637 C1639 1.387 . S
H1638 C1645 0.950 . S
C1639 C1637 1.387 . S
C1639 C1641 1.390 . S
C1639 H1643 0.950 . S
H1640 C1636 0.950 . S
C1641 C1639 1.390 . S
C1641 C1642 1.387 . S
C1641 H1644 0.950 . S
C1642 C1641 1.387 . S
C1642 C1645 1.387 . S
H1643 C1639 0.950 . S
H1644 C1641 0.950 . S
C1645 C1636 1.390 . S
C1645 H1638 0.950 . S
C1645 C1642 1.387 . S
C1646 C1647 1.387 . S
C1646 H1650 0.950 . S
C1646 C1655 1.390 . S
C1647 C1646 1.387 . S
C1647 C1649 1.387 . S
H1648 C1655 0.950 . S
C1649 C1647 1.387 . S
C1649 C1651 1.390 . S
C1649 H1653 0.950 . S
H1650 C1646 0.950 . S
C1651 C1649 1.390 . S
C1651 C1652 1.387 . S
C1651 H1654 0.950 . S
C1652 C1651 1.387 . S
C1652 C1655 1.387 . S
H1653 C1649 0.950 . S
H1654 C1651 0.950 . S
C1655 C1646 1.390 . S
C1655 H1648 0.950 . S
C1655 C1652 1.387 . S
C1656 C1657 1.387 . S
C1656 H1660 0.950 . S
C1656 C1665 1.390 . S
C1657 C1656 1.387 . S
C1657 C1659 1.387 . S
H1658 C1665 0.950 . S
C1659 C1657 1.387 . S
C1659 C1661 1.390 . S
C1659 H1663 0.950 . S
H1660 C1656 0.950 . S
C1661 C1659 1.390 . S
C1661 C1662 1.387 . S
C1661 H1664 0.950 . S
C1662 C1661 1.387 . S
C1662 C1665 1.387 . S
H1663 C1659 0.950 . S
H1664 C1661 0.950 . S
C1665 C1656 1.390 . S
C1665 H1658 0.950 . S
C1665 C1662 1.387 . S
C1666 C1667 1.387 . S
C1666 H1670 0.950 . S
C1666 C1675 1.390 . S
C1667 C1666 1.387 . S
C1667 C1669 1.387 . S
H1668 C1675 0.950 . S
C1669 C1667 1.387 . S
C1669 C1671 1.390 . S
C1669 H1673 0.950 . S
H1670 C1666 0.950 . S
C1671 C1669 1.390 . S
C1671 C1672 1.387 . S
C1671 H1674 0.950 . S
C1672 C1671 1.387 . S
C1672 C1675 1.387 . S
H1673 C1669 0.950 . S
H1674 C1671 0.950 . S
C1675 C1666 1.390 . S
C1675 H1668 0.950 . S
C1675 C1672 1.387 . S
C1676 C1677 1.387 . S
C1676 H1680 0.950 . S
C1676 C1685 1.390 . S
C1677 C1676 1.387 . S
C1677 C1679 1.387 . S
H1678 C1685 0.950 . S
C1679 C1677 1.387 . S
C1679 C1681 1.390 . S
C1679 H1683 0.950 . S
H1680 C1676 0.950 . S
C1681 C1679 1.390 . S
C1681 C1682 1.387 . S
C1681 H1684 0.950 . S
C1682 C1681 1.387 . S
C1682 C1685 1.387 . S
H1683 C1679 0.950 . S
H1684 C1681 0.950 . S
C1685 C1676 1.390 . S
C1685 H1678 0.950 . S
C1685 C1682 1.387 . S
C1686 C1687 1.387 . S
C1686 H1690 0.950 . S
C1686 C1695 1.390 . S
C1687 C1686 1.387 . S
C1687 C1689 1.387 . S
H1688 C1695 0.950 . S
C1689 C1687 1.387 . S
C1689 C1691 1.390 . S
C1689 H1693 0.950 . S
H1690 C1686 0.950 . S
C1691 C1689 1.390 . S
C1691 C1692 1.387 . S
C1691 H1694 0.950 . S
C1692 C1691 1.387 . S
C1692 C1695 1.387 . S
H1693 C1689 0.950 . S
H1694 C1691 0.950 . S
C1695 C1686 1.390 . S
C1695 H1688 0.950 . S
C1695 C1692 1.387 . S
C1696 C1697 1.387 . S
C1696 H1700 0.950 . S
C1696 C1705 1.390 . S
C1697 C1696 1.387 . S
C1697 C1699 1.387 . S
H1698 C1705 0.950 . S
C1699 C1697 1.387 . S
C1699 C1701 1.390 . S
C1699 H1703 0.950 . S
H1700 C1696 0.950 . S
C1701 C1699 1.390 . S
C1701 C1702 1.387 . S
C1701 H1704 0.950 . S
C1702 C1701 1.387 . S
C1702 C1705 1.387 . S
H1703 C1699 0.950 . S
H1704 C1701 0.950 . S
C1705 C1696 1.390 . S
C1705 H1698 0.950 . S
C1705 C1702 1.387 . S
C1706 C1707 1.387 . S
C1706 H1710 0.950 . S
C1706 C1715 1.390 . S
C1707 C1706 1.387 . S
C1707 C1709 1.387 . S
H1708 C1715 0.950 . S
C1709 C1707 1.387 . S
C1709 C1711 1.390 . S
C1709 H1713 0.950 . S
H1710 C1706 0.950 . S
C1711 C1709 1.390 . S
C1711 C1712 1.387 . S
C1711 H1714 0.950 . S
C1712 C1711 1.387 . S
C1712 C1715 1.387 . S
H1713 C1709 0.950 . S
H1714 C1711 0.950 . S
C1715 C1706 1.390 . S
C1715 H1708 0.950 . S
C1715 C1712 1.387 . S
C1716 C1717 1.387 . S
C1716 H1720 0.950 . S
C1716 C1725 1.390 . S
C1717 C1716 1.387 . S
C1717 C1719 1.387 . S
H1718 C1725 0.950 . S
C1719 C1717 1.387 . S
C1719 C1721 1.390 . S
C1719 H1723 0.950 . S
H1720 C1716 0.950 . S
C1721 C1719 1.390 . S
C1721 C1722 1.387 . S
C1721 H1724 0.950 . S
C1722 C1721 1.387 . S
C1722 C1725 1.387 . S
H1723 C1719 0.950 . S
H1724 C1721 0.950 . S
C1725 C1716 1.390 . S
C1725 H1718 0.950 . S
C1725 C1722 1.387 . S
C1726 C1727 1.387 . S
C1726 H1730 0.950 . S
C1726 C1735 1.390 . S
C1727 C1726 1.387 . S
C1727 C1729 1.387 . S
H1728 C1735 0.950 . S
C1729 C1727 1.387 . S
C1729 C1731 1.390 . S
C1729 H1733 0.950 . S
H1730 C1726 0.950 . S
C1731 C1729 1.390 . S
C1731 C1732 1.387 . S
C1731 H1734 0.950 . S
C1732 C1731 1.387 . S
C1732 C1735 1.387 . S
H1733 C1729 0.950 . S
H1734 C1731 0.950 . S
C1735 C1726 1.390 . S
C1735 H1728 0.950 . S
C1735 C1732 1.387 . S
C1736 C1737 1.387 . S
C1736 H1740 0.950 . S
C1736 C1745 1.390 . S
C1737 C1736 1.387 . S
C1737 C1739 1.387 . S
H1738 C1745 0.950 . S
C1739 C1737 1.387 . S
C1739 C1741 1.390 . S
C1739 H1743 0.950 . S
H1740 C1736 0.950 . S
C1741 C1739 1.390 . S
C1741 C1742 1.387 . S
C1741 H1744 0.950 . S
C1742 C1741 1.387 . S
C1742 C1745 1.387 . S
H1743 C1739 0.950 . S
H1744 C1741 0.950 . S
C1745 C1736 1.390 . S
C1745 H1738 0.950 . S
C1745 C1742 1.387 . S
C1746 C1747 1.387 . S
C1746 H1750 0.950 . S
C1746 C1755 1.390 . S
C1747 C1746 1.387 . S
C1747 C1749 1.387 . S
H1748 C1755 0.950 . S
C1749 C1747 1.387 . S
C1749 C1751 1.390 . S
C1749 H1753 0.950 . S
H1750 C1746 0.950 . S
C1751 C1749 1.390 . S
C1751 C1752 1.387 . S
C1751 H1754 0.950 . S
C1752 C1751 1.387 . S
C1752 C1755 1.387 . S
H1753 C1749 0.950 . S
H1754 C1751 0.950 . S
C1755 C1746 1.390 . S
C1755 H1748 0.950 . S
C1755 C1752 1.387 . S
C1756 C1757 1.387 . S
C1756 H1760 0.950 . S
C1756 C1765 1.390 . S
C1757 C1756 1.387 . S
C1757 C1759 1.387 . S
H1758 C1765 0.950 . S
C1759 C1757 1.387 . S
C1759 C1761 1.390 . S
C1759 H1763 0.950 . S
H1760 C1756 0.950 . S
C1761 C1759 1.390 . S
C1761 C1762 1.387 . S
C1761 H1764 0.950 . S
C1762 C1761 1.387 . S
C1762 C1765 1.387 . S
H1763 C1759 0.950 . S
H1764 C1761 0.950 . S
C1765 C1756 1.390 . S
C1765 H1758 0.950 . S
C1765 C1762 1.387 . S
C1766 C1767 1.387 . S
C1766 H1770 0.950 . S
C1766 C1775 1.390 . S
C1767 C1766 1.387 . S
C1767 C1769 1.387 . S
H1768 C1775 0.950 . S
C1769 C1767 1.387 . S
C1769 C1771 1.390 . S
C1769 H1773 0.950 . S
H1770 C1766 0.950 . S
C1771 C1769 1.390 . S
C1771 C1772 1.387 . S
C1771 H1774 0.950 . S
C1772 C1771 1.387 . S
C1772 C1775 1.387 . S
H1773 C1769 0.950 . S
H1774 C1771 0.950 . S
C1775 C1766 1.390 . S
C1775 H1768 0.950 . S
C1775 C1772 1.387 . S
C1776 C1777 1.387 . S
C1776 H1780 0.950 . S
C1776 C1785 1.390 . S
C1777 C1776 1.387 . S
C1777 C1779 1.387 . S
H1778 C1785 0.950 . S
C1779 C1777 1.387 . S
C1779 C1781 1.390 . S
C1779 H1783 0.950 . S
H1780 C1776 0.950 . S
C1781 C1779 1.390 . S
C1781 C1782 1.387 . S
C1781 H1784 0.950 . S
C1782 C1781 1.387 . S
C1782 C1785 1.387 . S
H1783 C1779 0.950 . S
H1784 C1781 0.950 . S
C1785 C1776 1.390 . S
C1785 H1778 0.950 . S
C1785 C1782 1.387 . S
C1786 C1787 1.387 . S
C1786 H1790 0.950 . S
C1786 C1795 1.390 . S
C1787 C1786 1.387 . S
C1787 C1789 1.387 . S
H1788 C1795 0.950 . S
C1789 C1787 1.387 . S
C1789 C1791 1.390 . S
C1789 H1793 0.950 . S
H1790 C1786 0.950 . S
C1791 C1789 1.390 . S
C1791 C1792 1.387 . S
C1791 H1794 0.950 . S
C1792 C1791 1.387 . S
C1792 C1795 1.387 . S
H1793 C1789 0.950 . S
H1794 C1791 0.950 . S
C1795 C1786 1.390 . S
C1795 H1788 0.950 . S
C1795 C1792 1.387 . S
C1796 C1797 1.387 . S
C1796 H1800 0.950 . S
C1796 C1805 1.390 . S
C1797 C1796 1.387 . S
C1797 C1799 1.387 . S
H1798 C1805 0.950 . S
C1799 C1797 1.387 . S
C1799 C1801 1.390 . S
C1799 H1803 0.950 . S
H1800 C1796 0.950 . S
C1801 C1799 1.390 . S
C1801 C1802 1.387 . S
C1801 H1804 0.950 . S
C1802 C1801 1.387 . S
C1802 C1805 1.387 . S
H1803 C1799 0.950 . S
H1804 C1801 0.950 . S
C1805 C1796 1.390 . S
C1805 H1798 0.950 . S
C1805 C1802 1.387 . S
C1806 C1807 1.387 . S
C1806 H1810 0.950 . S
C1806 C1815 1.390 . S
C1807 C1806 1.387 . S
C1807 C1809 1.387 . S
H1808 C1815 0.950 . S
C1809 C1807 1.387 . S
C1809 C1811 1.390 . S
C1809 H1813 0.950 . S
H1810 C1806 0.950 . S
C1811 C1809 1.390 . S
C1811 C1812 1.387 . S
C1811 H1814 0.950 . S
C1812 C1811 1.387 . S
C1812 C1815 1.387 . S
H1813 C1809 0.950 . S
H1814 C1811 0.950 . S
C1815 C1806 1.390 . S
C1815 H1808 0.950 . S
C1815 C1812 1.387 . S
C1816 C1817 1.387 . S
C1816 H1820 0.950 . S
C1816 C1825 1.390 . S
C1817 C1816 1.387 . S
C1817 C1819 1.387 . S
H1818 C1825 0.950 . S
C1819 C1817 1.387 . S
C1819 C1821 1.390 . S
C1819 H1823 0.950 . S
H1820 C1816 0.950 . S
C1821 C1819 1.390 . S
C1821 C1822 1.387 . S
C1821 H1824 0.950 . S
C1822 C1821 1.387 . S
C1822 C1825 1.387 . S
H1823 C1819 0.950 . S
H1824 C1821 0.950 . S
C1825 C1816 1.390 . S
C1825 H1818 0.950 . S
C1825 C1822 1.387 . S
C1826 C1827 1.387 . S
C1826 H1830 0.950 . S
C1826 C1835 1.390 . S
C1827 C1826 1.387 . S
C1827 C1829 1.387 . S
H1828 C1835 0.950 . S
C1829 C1827 1.387 . S
C1829 C1831 1.390 . S
C1829 H1833 0.950 . S
H1830 C1826 0.950 . S
C1831 C1829 1.390 . S
C1831 C1832 1.387 . S
C1831 H1834 0.950 . S
C1832 C1831 1.387 . S
C1832 C1835 1.387 . S
H1833 C1829 0.950 . S
H1834 C1831 0.950 . S
C1835 C1826 1.390 . S
C1835 H1828 0.950 . S
C1835 C1832 1.387 . S
C1836 C1837 1.387 . S
C1836 H1840 0.950 . S
C1836 C1845 1.390 . S
C1837 C1836 1.387 . S
C1837 C1839 1.387 . S
H1838 C1845 0.950 . S
C1839 C1837 1.387 . S
C1839 C1841 1.390 . S
C1839 H1843 0.950 . S
H1840 C1836 0.950 . S
C1841 C1839 1.390 . S
C1841 C1842 1.387 . S
C1841 H1844 0.950 . S
C1842 C1841 1.387 . S
C1842 C1845 1.387 . S
H1843 C1839 0.950 . S
H1844 C1841 0.950 . S
C1845 C1836 1.390 . S
C1845 H1838 0.950 . S
C1845 C1842 1.387 . S
C1846 C1847 1.387 . S
C1846 H1850 0.950 . S
C1846 C1855 1.390 . S
C1847 C1846 1.387 . S
C1847 C1849 1.387 . S
H1848 C1855 0.950 . S
C1849 C1847 1.387 . S
C1849 C1851 1.390 . S
C1849 H1853 0.950 . S
H1850 C1846 0.950 . S
C1851 C1849 1.390 . S
C1851 C1852 1.387 . S
C1851 H1854 0.950 . S
C1852 C1851 1.387 . S
C1852 C1855 1.387 . S
H1853 C1849 0.950 . S
H1854 C1851 0.950 . S
C1855 C1846 1.390 . S
C1855 H1848 0.950 . S
C1855 C1852 1.387 . S
C1856 C1857 1.387 . S
C1856 H1860 0.950 . S
C1856 C1865 1.390 . S
C1857 C1856 1.387 . S
C1857 C1859 1.387 . S
H1858 C1865 0.950 . S
C1859 C1857 1.387 . S
C1859 C1861 1.390 . S
C1859 H1863 0.950 . S
H1860 C1856 0.950 . S
C1861 C1859 1.390 . S
C1861 C1862 1.387 . S
C1861 H1864 0.950 . S
C1862 C1861 1.387 . S
C1862 C1865 1.387 . S
H1863 C1859 0.950 . S
H1864 C1861 0.950 . S
C1865 C1856 1.390 . S
C1865 H1858 0.950 . S
C1865 C1862 1.387 . S
C1866 C1867 1.387 . S
C1866 H1870 0.950 . S
C1866 C1875 1.390 . S
C1867 C1866 1.387 . S
C1867 C1869 1.387 . S
H1868 C1875 0.950 . S
C1869 C1867 1.387 . S
C1869 C1871 1.390 . S
C1869 H1873 0.950 . S
H1870 C1866 0.950 . S
C1871 C1869 1.390 . S
C1871 C1872 1.387 . S
C1871 H1874 0.950 . S
C1872 C1871 1.387 . S
C1872 C1875 1.387 . S
H1873 C1869 0.950 . S
H1874 C1871 0.950 . S
C1875 C1866 1.390 . S
C1875 H1868 0.950 . S
C1875 C1872 1.387 . S
C1876 C1877 1.387 . S
C1876 H1880 0.950 . S
C1876 C1885 1.390 . S
C1877 C1876 1.387 . S
C1877 C1879 1.387 . S
H1878 C1885 0.950 . S
C1879 C1877 1.387 . S
C1879 C1881 1.390 . S
C1879 H1883 0.950 . S
H1880 C1876 0.950 . S
C1881 C1879 1.390 . S
C1881 C1882 1.387 . S
C1881 H1884 0.950 . S
C1882 C1881 1.387 . S
C1882 C1885 1.387 . S
H1883 C1879 0.950 . S
H1884 C1881 0.950 . S
C1885 C1876 1.390 . S
C1885 H1878 0.950 . S
C1885 C1882 1.387 . S
C1886 C1887 1.387 . S
C1886 H1890 0.950 . S
C1886 C1895 1.390 . S
C1887 C1886 1.387 . S
C1887 C1889 1.387 . S
H1888 C1895 0.950 . S
C1889 C1887 1.387 . S
C1889 C1891 1.390 . S
C1889 H1893 0.950 . S
H1890 C1886 0.950 . S
C1891 C1889 1.390 . S
C1891 C1892 1.387 . S
C1891 H1894 0.950 . S
C1892 C1891 1.387 . S
C1892 C1895 1.387 . S
H1893 C1889 0.950 . S
H1894 C1891 0.950 . S
C1895 C1886 1.390 . S
C1895 H1888 0.950 . S
C1895 C1892 1.387 . S
C1896 C1897 1.387 . S
C1896 H1900 0.950 . S
C1896 C1905 1.390 . S
C1897 C1896 1.387 . S
C1897 C1899 1.387 . S
H1898 C1905 0.950 . S
C1899 C1897 1.387 . S
C1899 C1901 1.390 . S
C1899 H1903 0.950 . S
H1900 C1896 0.950 . S
C1901 C1899 1.390 . S
C1901 C1902 1.387 . S
C1901 H1904 0.950 . S
C1902 C1901 1.387 . S
C1902 C1905 1.387 . S
H1903 C1899 0.950 . S
H1904 C1901 0.950 . S
C1905 C1896 1.390 . S
C1905 H1898 0.950 . S
C1905 C1902 1.387 . S
C1906 C1907 1.387 . S
C1906 H1910 0.950 . S
C1906 C1915 1.390 . S
C1907 C1906 1.387 . S
C1907 C1909 1.387 . S
H1908 C1915 0.950 . S
C1909 C1907 1.387 . S
C1909 C1911 1.390 . S
C1909 H1913 0.950 . S
H1910 C1906 0.950 . S
C1911 C1909 1.390 . S
C1911 C1912 1.387 . S
C1911 H1914 0.950 . S
C1912 C1911 1.387 . S
C1912 C1915 1.387 . S
H1913 C1909 0.950 . S
H1914 C1911 0.950 . S
C1915 C1906 1.390 . S
C1915 H1908 0.950 . S
C1915 C1912 1.387 . S
C1916 C1917 1.387 . S
C1916 H1920 0.950 . S
C1916 C1925 1.390 . S
C1917 C1916 1.387 . S
C1917 C1919 1.387 . S
H1918 C1925 0.950 . S
C1919 C1917 1.387 . S
C1919 C1921 1.390 . S
C1919 H1923 0.950 . S
H1920 C1916 0.950 . S
C1921 C1919 1.390 . S
C1921 C1922 1.387 . S
C1921 H1924 0.950 . S
C1922 C1921 1.387 . S
C1922 C1925 1.387 . S
H1923 C1919 0.950 . S
H1924 C1921 0.950 . S
C1925 C1916 1.390 . S
C1925 H1918 0.950 . S
C1925 C1922 1.387 . S
C1926 C1927 1.387 . S
C1926 H1930 0.950 . S
C1926 C1935 1.390 . S
C1927 C1926 1.387 . S
C1927 C1929 1.387 . S
H1928 C1935 0.950 . S
C1929 C1927 1.387 . S
C1929 C1931 1.390 . S
C1929 H1933 0.950 . S
H1930 C1926 0.950 . S
C1931 C1929 1.390 . S
C1931 C1932 1.387 . S
C1931 H1934 0.950 . S
C1932 C1931 1.387 . S
C1932 C1935 1.387 . S
H1933 C1929 0.950 . S
H1934 C1931 0.950 . S
C1935 C1926 1.390 . S
C1935 H1928 0.950 . S
C1935 C1932 1.387 . S
C1936 C1937 1.387 . S
C1936 H1940 0.950 . S
C1936 C1945 1.390 . S
C1937 C1936 1.387 . S
C1937 C1939 1.387 . S
H1938 C1945 0.950 . S
C1939 C1937 1.387 . S
C1939 C1941 1.390 . S
C1939 H1943 0.950 . S
H1940 C1936 0.950 . S
C1941 C1939 1.390 . S
C1941 C1942 1.387 . S
C1941 H1944 0.950 . S
C1942 C1941 1.387 . S
C1942 C1945 1.387 . S
H1943 C1939 0.950 . S
H1944 C1941 0.950 . S
C1945 C1936 1.390 . S
C1945 H1938 0.950 . S
C1945 C1942 1.387 . S
C1946 C1947 1.387 . S
C1946 H1950 0.950 . S
C1946 C1955 1.390 . S
C1947 C1946 1.387 . S
C1947 C1949 1.387 . S
H1948 C1955 0.950 . S
C1949 C1947 1.387 . S
C1949 C1951 1.390 . S
C1949 H1953 0.950 . S
H1950 C1946 0.950 . S
C1951 C1949 1.390 . S
C1951 C1952 1.387 . S
C1951 H1954 0.950 . S
C1952 C1951 1.387 . S
C1952 C1955 1.387 . S
H1953 C1949 0.950 . S
H1954 C1951 0.950 . S
C1955 C1946 1.390 . S
C1955 H1948 0.950 . S
C1955 C1952 1.387 . S
C1956 C1957 1.387 . S
C1956 H1960 0.950 . S
C1956 C1965 1.390 . S
C1957 C1956 1.387 . S
C1957 C1959 1.387 . S
H1958 C1965 0.950 . S
C1959 C1957 1.387 . S
C1959 C1961 1.390 . S
C1959 H1963 0.950 . S
H1960 C1956 0.950 . S
C1961 C1959 1.390 . S
C1961 C1962 1.387 . S
C1961 H1964 0.950 . S
C1962 C1961 1.387 . S
C1962 C1965 1.387 . S
H1963 C1959 0.950 . S
H1964 C1961 0.950 . S
C1965 C1956 1.390 . S
C1965 H1958 0.950 . S
C1965 C1962 1.387 . S
C1966 C1967 1.387 . S
C1966 H1970 0.950 . S
C1966 C1975 1.390 . S
C1967 C1966 1.387 . S
C1967 C1969 1.387 . S
H1968 C1975 0.950 . S
C1969 C1967 1.387 . S
C1969 C1971 1.390 . S
C1969 H1973 0.950 . S
H1970 C1966 0.950 . S
C1971 C1969 1.390 . S
C1971 C1972 1.387 . S
C1971 H1974 0.950 . S
C1972 C1971 1.387 . S
C1972 C1975 1.387 . S
H1973 C1969 0.950 . S
H1974 C1971 0.950 . S
C1975 C1966 1.390 . S
C1975 H1968 0.950 . S
C1975 C1972 1.387 . S
C1976 C1977 1.387 . S
C1976 H1980 0.950 . S
C1976 C1985 1.390 . S
C1977 C1976 1.387 . S
C1977 C1979 1.387 . S
H1978 C1985 0.950 . S
C1979 C1977 1.387 . S
C1979 C1981 1.390 . S
C1979 H1983 0.950 . S
H1980 C1976 0.950 . S
C1981 C1979 1.390 . S
C1981 C1982 1.387 . S
C1981 H1984 0.950 . S
C1982 C1981 1.387 . S
C1982 C1985 1.387 . S
H1983 C1979 0.950 . S
H1984 C1981 0.950 . S
C1985 C1976 1.390 . S
C1985 H1978 0.950 . S
C1985 C1982 1.387 . S
C1986 C1987 1.387 . S
C1986 H1990 0.950 . S
C1986 C1995 1.390 . S
C1987 C1986 1.387 . S
C1987 C1989 1.387 . S
H1988 C1995 0.950 . S
C1989 C1987 1.387 . S
C1989 C1991 1.390 . S
C1989 H1993 0.950 . S
H1990 C1986 0.950 . S
C1991 C1989 1.390 . S
C1991 C1992 1.387 . S
C1991 H1994 0.950 . S
C1992 C1991 1.387 . S
C1992 C1995 1.387 . S
H1993 C1989 0.950 . S
H1994 C1991 0.950 . S
C1995 C1986 1.390 . S
C1995 H1988 0.950 . S
C1995 C1992 1.387 . S
C1996 C1997 1.387 . S
C1996 H2000 0.950 . S
C1996 C2005 1.390 . S
C1997 C1996 1.387 . S
C1997 C1999 1.387 . S
H1998 C2005 0.950 . S
C1999 C1997 1.387 . S
C1999 C2001 1.390 . S
C1999 H2003 0.950 . S
H2000 C1996 0.950 . S
C2001 C1999 1.390 . S
C2001 C2002 1.387 . S
C2001 H2004 0.950 . S
C2002 C2001 1.387 . S
C2002 C2005 1.387 . S
H2003 C1999 0.950 . S
H2004 C2001 0.950 . S
C2005 C1996 1.390 . S
C2005 H1998 0.950 . S
C2005 C2002 1.387 . S
C2006 C2007 1.387 . S
C2006 H2010 0.950 . S
C2006 C2015 1.390 . S
C2007 C2006 1.387 . S
C2007 C2009 1.387 . S
H2008 C2015 0.950 . S
C2009 C2007 1.387 . S
C2009 C2011 1.390 . S
C2009 H2013 0.950 . S
H2010 C2006 0.950 . S
C2011 C2009 1.390 . S
C2011 C2012 1.387 . S
C2011 H2014 0.950 . S
C2012 C2011 1.387 . S
C2012 C2015 1.387 . S
H2013 C2009 0.950 . S
H2014 C2011 0.950 . S
C2015 C2006 1.390 . S
C2015 H2008 0.950 . S
C2015 C2012 1.387 . S
C2016 C2017 1.387 . S
C2016 H2020 0.950 . S
C2016 C2025 1.390 . S
C2017 C2016 1.387 . S
C2017 C2019 1.387 . S
H2018 C2025 0.950 . S
C2019 C2017 1.387 . S
C2019 C2021 1.390 . S
C2019 H2023 0.950 . S
H2020 C2016 0.950 . S
C2021 C2019 1.390 . S
C2021 C2022 1.387 . S
C2021 H2024 0.950 . S
C2022 C2021 1.387 . S
C2022 C2025 1.387 . S
H2023 C2019 0.950 . S
H2024 C2021 0.950 . S
C2025 C2016 1.390 . S
C2025 H2018 0.950 . S
C2025 C2022 1.387 . S
C2026 C2027 1.387 . S
C2026 H2030 0.950 . S
C2026 C2035 1.390 . S
C2027 C2026 1.387 . S
C2027 C2029 1.387 . S
H2028 C2035 0.950 . S
C2029 C2027 1.387 . S
C2029 C2031 1.390 . S
C2029 H2033 0.950 . S
H2030 C2026 0.950 . S
C2031 C2029 1.390 . S
C2031 C2032 1.387 . S
C2031 H2034 0.950 . S
C2032 C2031 1.387 . S
C2032 C2035 1.387 . S
H2033 C2029 0.950 . S
H2034 C2031 0.950 . S
C2035 C2026 1.390 . S
C2035 H2028 0.950 . S
C2035 C2032 1.387 . S
C2036 C2037 1.387 . S
C2036 H2040 0.950 . S
C2036 C2045 1.390 . S
C2037 C2036 1.387 . S
C2037 C2039 1.387 . S
H2038 C2045 0.950 . S
C2039 C2037 1.387 . S
C2039 C2041 1.390 . S
C2039 H2043 0.950 . S
H2040 C2036 0.950 . S
C2041 C2039 1.390 . S
C2041 C2042 1.387 . S
C2041 H2044 0.950 . S
C2042 C2041 1.387 . S
C2042 C2045 1.387 . S
H2043 C2039 0.950 . S
H2044 C2041 0.950 . S
C2045 C2036 1.390 . S
C2045 H2038 0.950 . S
C2045 C2042 1.387 . S
C2046 C2047 1.387 . S
C2046 H2050 0.950 . S
C2046 C2055 1.390 . S
C2047 C2046 1.387 . S
C2047 C2049 1.387 . S
H2048 C2055 0.950 . S
C2049 C2047 1.387 . S
C2049 C2051 1.390 . S
C2049 H2053 0.950 . S
H2050 C2046 0.950 . S
C2051 C2049 1.390 . S
C2051 C2052 1.387 . S
C2051 H2054 0.950 . S
C2052 C2051 1.387 . S
C2052 C2055 1.387 . S
H2053 C2049 0.950 . S
H2054 C2051 0.950 . S
C2055 C2046 1.390 . S
C2055 H2048 0.950 . S
C2055 C2052 1.387 . S
C2056 C2057 1.387 . S
C2056 H2060 0.950 . S
C2056 C2065 1.390 . S
C2057 C2056 1.387 . S
C2057 C2059 1.387 . S
H2058 C2065 0.950 . S
C2059 C2057 1.387 . S
C2059 C2061 1.390 . S
C2059 H2063 0.950 . S
H2060 C2056 0.950 . S
C2061 C2059 1.390 . S
C2061 C2062 1.387 . S
C2061 H2064 0.950 . S
C2062 C2061 1.387 . S
C2062 C2065 1.387 . S
H2063 C2059 0.950 . S
H2064 C2061 0.950 . S
C2065 C2056 1.390 . S
C2065 H2058 0.950 . S
C2065 C2062 1.387 . S
C2066 C2067 1.387 . S
C2066 H2070 0.950 . S
C2066 C2075 1.390 . S
C2067 C2066 1.387 . S
C2067 C2069 1.387 . S
H2068 C2075 0.950 . S
C2069 C2067 1.387 . S
C2069 C2071 1.390 . S
C2069 H2073 0.950 . S
H2070 C2066 0.950 . S
C2071 C2069 1.390 . S
C2071 C2072 1.387 . S
C2071 H2074 0.950 . S
C2072 C2071 1.387 . S
C2072 C2075 1.387 . S
H2073 C2069 0.950 . S
H2074 C2071 0.950 . S
C2075 C2066 1.390 . S
C2075 H2068 0.950 . S
C2075 C2072 1.387 . S
C2076 C2077 1.387 . S
C2076 H2080 0.950 . S
C2076 C2085 1.390 . S
C2077 C2076 1.387 . S
C2077 C2079 1.387 . S
H2078 C2085 0.950 . S
C2079 C2077 1.387 . S
C2079 C2081 1.390 . S
C2079 H2083 0.950 . S
H2080 C2076 0.950 . S
C2081 C2079 1.390 . S
C2081 C2082 1.387 . S
C2081 H2084 0.950 . S
C2082 C2081 1.387 . S
C2082 C2085 1.387 . S
H2083 C2079 0.950 . S
H2084 C2081 0.950 . S
C2085 C2076 1.390 . S
C2085 H2078 0.950 . S
C2085 C2082 1.387 . S
C2086 C2087 1.387 . S
C2086 H2090 0.950 . S
C2086 C2095 1.390 . S
C2087 C2086 1.387 . S
C2087 C2089 1.387 . S
H2088 C2095 0.950 . S
C2089 C2087 1.387 . S
C2089 C2091 1.390 . S
C2089 H2093 0.950 . S
H2090 C2086 0.950 . S
C2091 C2089 1.390 . S
C2091 C2092 1.387 . S
C2091 H2094 0.950 . S
C2092 C2091 1.387 . S
C2092 C2095 1.387 . S
H2093 C2089 0.950 . S
H2094 C2091 0.950 . S
C2095 C2086 1.390 . S
C2095 H2088 0.950 . S
C2095 C2092 1.387 . S
C2096 C2097 1.387 . S
C2096 H2100 0.950 . S
C2096 C2105 1.390 . S
C2097 C2096 1.387 . S
C2097 C2099 1.387 . S
H2098 C2105 0.950 . S
C2099 C2097 1.387 . S
C2099 C2101 1.390 . S
C2099 H2103 0.950 . S
H2100 C2096 0.950 . S
C2101 C2099 1.390 . S
C2101 C2102 1.387 . S
C2101 H2104 0.950 . S
C2102 C2101 1.387 . S
C2102 C2105 1.387 . S
H2103 C2099 0.950 . S
H2104 C2101 0.950 . S
C2105 C2096 1.390 . S
C2105 H2098 0.950 . S
C2105 C2102 1.387 . S
C2106 C2107 1.387 . S
C2106 H2110 0.950 . S
C2106 C2115 1.390 . S
C2107 C2106 1.387 . S
C2107 C2109 1.387 . S
H2108 C2115 0.950 . S
C2109 C2107 1.387 . S
C2109 C2111 1.390 . S
C2109 H2113 0.950 . S
H2110 C2106 0.950 . S
C2111 C2109 1.390 . S
C2111 C2112 1.387 . S
C2111 H2114 0.950 . S
C2112 C2111 1.387 . S
C2112 C2115 1.387 . S
H2113 C2109 0.950 . S
H2114 C2111 0.950 . S
C2115 C2106 1.390 . S
C2115 H2108 0.950 . S
C2115 C2112 1.387 . S
C2116 C2117 1.387 . S
C2116 H2120 0.950 . S
C2116 C2125 1.390 . S
C2117 C2116 1.387 . S
C2117 C2119 1.387 . S
H2118 C2125 0.950 . S
C2119 C2117 1.387 . S
C2119 C2121 1.390 . S
C2119 H2123 0.950 . S
H2120 C2116 0.950 . S
C2121 C2119 1.390 . S
C2121 C2122 1.387 . S
C2121 H2124 0.950 . S
C2122 C2121 1.387 . S
C2122 C2125 1.387 . S
H2123 C2119 0.950 . S
H2124 C2121 0.950 . S
C2125 C2116 1.390 . S
C2125 H2118 0.950 . S
C2125 C2122 1.387 . S
C2126 C2127 1.387 . S
C2126 H2130 0.950 . S
C2126 C2135 1.390 . S
C2127 C2126 1.387 . S
C2127 C2129 1.387 . S
H2128 C2135 0.950 . S
C2129 C2127 1.387 . S
C2129 C2131 1.390 . S
C2129 H2133 0.950 . S
H2130 C2126 0.950 . S
C2131 C2129 1.390 . S
C2131 C2132 1.387 . S
C2131 H2134 0.950 . S
C2132 C2131 1.387 . S
C2132 C2135 1.387 . S
H2133 C2129 0.950 . S
H2134 C2131 0.950 . S
C2135 C2126 1.390 . S
C2135 H2128 0.950 . S
C2135 C2132 1.387 . S
C2136 C2137 1.387 . S
C2136 H2140 0.950 . S
C2136 C2145 1.390 . S
C2137 C2136 1.387 . S
C2137 C2139 1.387 . S
H2138 C2145 0.950 . S
C2139 C2137 1.387 . S
C2139 C2141 1.390 . S
C2139 H2143 0.950 . S
H2140 C2136 0.950 . S
C2141 C2139 1.390 . S
C2141 C2142 1.387 . S
C2141 H2144 0.950 . S
C2142 C2141 1.387 . S
C2142 C2145 1.387 . S
H2143 C2139 0.950 . S
H2144 C2141 0.950 . S
C2145 C2136 1.390 . S
C2145 H2138 0.950 . S
C2145 C2142 1.387 . S
C2146 C2147 1.387 . S
C2146 H2150 0.950 . S
C2146 C2155 1.390 . S
C2147 C2146 1.387 . S
C2147 C2149 1.387 . S
H2148 C2155 0.950 . S
C2149 C2147 1.387 . S
C2149 C2151 1.390 . S
C2149 H2153 0.950 . S
H2150 C2146 0.950 . S
C2151 C2149 1.390 . S
C2151 C2152 1.387 . S
C2151 H2154 0.950 . S
C2152 C2151 1.387 . S
C2152 C2155 1.387 . S
H2153 C2149 0.950 . S
H2154 C2151 0.950 . S
C2155 C2146 1.390 . S
C2155 H2148 0.950 . S
C2155 C2152 1.387 . S
C2156 C2157 1.387 . S
C2156 H2160 0.950 . S
C2156 C2165 1.390 . S
C2157 C2156 1.387 . S
C2157 C2159 1.387 . S
H2158 C2165 0.950 . S
C2159 C2157 1.387 . S
C2159 C2161 1.390 . S
C2159 H2163 0.950 . S
H2160 C2156 0.950 . S
C2161 C2159 1.390 . S
C2161 C2162 1.387 . S
C2161 H2164 0.950 . S
C2162 C2161 1.387 . S
C2162 C2165 1.387 . S
H2163 C2159 0.950 . S
H2164 C2161 0.950 . S
C2165 C2156 1.390 . S
C2165 H2158 0.950 . S
C2165 C2162 1.387 . S
C2166 C2167 1.387 . S
C2166 H2170 0.950 . S
C2166 C2175 1.390 . S
C2167 C2166 1.387 . S
C2167 C2169 1.387 . S
H2168 C2175 0.950 . S
C2169 C2167 1.387 . S
C2169 C2171 1.390 . S
C2169 H2173 0.950 . S
H2170 C2166 0.950 . S
C2171 C2169 1.390 . S
C2171 C2172 1.387 . S
C2171 H2174 0.950 . S
C2172 C2171 1.387 . S
C2172 C2175 1.387 . S
H2173 C2169 0.950 . S
H2174 C2171 0.950 . S
C2175 C2166 1.390 . S
C2175 H2168 0.950 . S
C2175 C2172 1.387 . S
C2176 C2177 1.387 . S
C2176 H2180 0.950 . S
C2176 C2185 1.390 . S
C2177 C2176 1.387 . S
C2177 C2179 1.387 . S
H2178 C2185 0.950 . S
C2179 C2177 1.387 . S
C2179 C2181 1.390 . S
C2179 H2183 0.950 . S
H2180 C2176 0.950 . S
C2181 C2179 1.390 . S
C2181 C2182 1.387 . S
C2181 H2184 0.950 . S
C2182 C2181 1.387 . S
C2182 C2185 1.387 . S
H2183 C2179 0.950 . S
H2184 C2181 0.950 . S
C2185 C2176 1.390 . S
C2185 H2178 0.950 . S
C2185 C2182 1.387 . S
C2186 C2187 1.387 . S
C2186 H2190 0.950 . S
C2186 C2195 1.390 . S
C2187 C2186 1.387 . S
C2187 C2189 1.387 . S
H2188 C2195 0.950 . S
C2189 C2187 1.387 . S
C2189 C2191 1.390 . S
C2189 H2193 0.950 . S
H2190 C2186 0.950 . S
C2191 C2189 1.390 . S
C2191 C2192 1.387 . S
C2191 H2194 0.950 . S
C2192 C2191 1.387 . S
C2192 C2195 1.387 . S
H2193 C2189 0.950 . S
H2194 C2191 0.950 . S
C2195 C2186 1.390 . S
C2195 H2188 0.950 . S
C2195 C2192 1.387 . S
C2196 C2197 1.387 . S
C2196 H2200 0.950 . S
C2196 C2205 1.390 . S
C2197 C2196 1.387 . S
C2197 C2199 1.387 . S
H2198 C2205 0.950 . S
C2199 C2197 1.387 . S
C2199 C2201 1.390 . S
C2199 H2203 0.950 . S
H2200 C2196 0.950 . S
C2201 C2199 1.390 . S
C2201 C2202 1.387 . S
C2201 H2204 0.950 . S
C2202 C2201 1.387 . S
C2202 C2205 1.387 . S
H2203 C2199 0.950 . S
H2204 C2201 0.950 . S
C2205 C2196 1.390 . S
C2205 H2198 0.950 . S
C2205 C2202 1.387 . S
C2206 C2207 1.387 . S
C2206 H2210 0.950 . S
C2206 C2215 1.390 . S
C2207 C2206 1.387 . S
C2207 C2209 1.387 . S
H2208 C2215 0.950 . S
C2209 C2207 1.387 . S
C2209 C2211 1.390 . S
C2209 H2213 0.950 . S
H2210 C2206 0.950 . S
C2211 C2209 1.390 . S
C2211 C2212 1.387 . S
C2211 H2214 0.950 . S
C2212 C2211 1.387 . S
C2212 C2215 1.387 . S
H2213 C2209 0.950 . S
H2214 C2211 0.950 . S
C2215 C2206 1.390 . S
C2215 H2208 0.950 . S
C2215 C2212 1.387 . S
C2216 C2217 1.387 . S
C2216 H2220 0.950 . S
C2216 C2225 1.390 . S
C2217 C2216 1.387 . S
C2217 C2219 1.387 . S
H2218 C2225 0.950 . S
C2219 C2217 1.387 . S
C2219 C2221 1.390 . S
C2219 H2223 0.950 . S
H2220 C2216 0.950 . S
C2221 C2219 1.390 . S
C2221 C2222 1.387 . S
C2221 H2224 0.950 . S
C2222 C2221 1.387 . S
C2222 C2225 1.387 . S
H2223 C2219 0.950 . S
H2224 C2221 0.950 . S
C2225 C2216 1.390 . S
C2225 H2218 0.950 . S
C2225 C2222 1.387 . S
C2226 C2227 1.387 . S
C2226 H2230 0.950 . S
C2226 C2235 1.390 . S
C2227 C2226 1.387 . S
C2227 C2229 1.387 . S
H2228 C2235 0.950 . S
C2229 C2227 1.387 . S
C2229 C2231 1.390 . S
C2229 H2233 0.950 . S
H2230 C2226 0.950 . S
C2231 C2229 1.390 . S
C2231 C2232 1.387 . S
C2231 H2234 0.950 . S
C2232 C2231 1.387 . S
C2232 C2235 1.387 . S
H2233 C2229 0.950 . S
H2234 C2231 0.950 . S
C2235 C2226 1.390 . S
C2235 H2228 0.950 . S
C2235 C2232 1.387 . S
C2236 C2237 1.387 . S
C2236 H2240 0.950 . S
C2236 C2245 1.390 . S
C2237 C2236 1.387 . S
C2237 C2239 1.387 . S
H2238 C2245 0.950 . S
C2239 C2237 1.387 . S
C2239 C2241 1.390 . S
C2239 H2243 0.950 . S
H2240 C2236 0.950 . S
C2241 C2239 1.390 . S
C2241 C2242 1.387 . S
C2241 H2244 0.950 . S
C2242 C2241 1.387 . S
C2242 C2245 1.387 . S
H2243 C2239 0.950 . S
H2244 C2241 0.950 . S
C2245 C2236 1.390 . S
C2245 H2238 0.950 . S
C2245 C2242 1.387 . S
C2246 C2247 1.387 . S
C2246 H2250 0.950 . S
C2246 C2255 1.390 . S
C2247 C2246 1.387 . S
C2247 C2249 1.387 . S
H2248 C2255 0.950 . S
C2249 C2247 1.387 . S
C2249 C2251 1.390 . S
C2249 H2253 0.950 . S
H2250 C2246 0.950 . S
C2251 C2249 1.390 . S
C2251 C2252 1.387 . S
C2251 H2254 0.950 . S
C2252 C2251 1.387 . S
C2252 C2255 1.387 . S
H2253 C2249 0.950 . S
H2254 C2251 0.950 . S
C2255 C2246 1.390 . S
C2255 H2248 0.950 . S
C2255 C2252 1.387 . S
C2256 C2257 1.387 . S
C2256 H2260 0.950 . S
C2256 C2265 1.390 . S
C2257 C2256 1.387 . S
C2257 C2259 1.387 . S
H2258 C2265 0.950 . S
C2259 C2257 1.387 . S
C2259 C2261 1.390 . S
C2259 H2263 0.950 . S
H2260 C2256 0.950 . S
C2261 C2259 1.390 . S
C2261 C2262 1.387 . S
C2261 H2264 0.950 . S
C2262 C2261 1.387 . S
C2262 C2265 1.387 . S
H2263 C2259 0.950 . S
H2264 C2261 0.950 . S
C2265 C2256 1.390 . S
C2265 H2258 0.950 . S
C2265 C2262 1.387 . S
C2266 C2267 1.387 . S
C2266 H2270 0.950 . S
C2266 C2275 1.390 . S
C2267 C2266 1.387 . S
C2267 C2269 1.387 . S
H2268 C2275 0.950 . S
C2269 C2267 1.387 . S
C2269 C2271 1.390 . S
C2269 H2273 0.950 . S
H2270 C2266 0.950 . S
C2271 C2269 1.390 . S
C2271 C2272 1.387 . S
C2271 H2274 0.950 . S
C2272 C2271 1.387 . S
C2272 C2275 1.387 . S
H2273 C2269 0.950 . S
H2274 C2271 0.950 . S
C2275 C2266 1.390 . S
C2275 H2268 0.950 . S
C2275 C2272 1.387 . S
C2276 C2277 1.387 . S
C2276 H2280 0.950 . S
C2276 C2285 1.390 . S
C2277 C2276 1.387 . S
C2277 C2279 1.387 . S
H2278 C2285 0.950 . S
C2279 C2277 1.387 . S
C2279 C2281 1.390 . S
C2279 H2283 0.950 . S
H2280 C2276 0.950 . S
C2281 C2279 1.390 . S
C2281 C2282 1.387 . S
C2281 H2284 0.950 . S
C2282 C2281 1.387 . S
C2282 C2285 1.387 . S
H2283 C2279 0.950 . S
H2284 C2281 0.950 . S
C2285 C2276 1.390 . S
C2285 H2278 0.950 . S
C2285 C2282 1.387 . S
C2286 C2287 1.387 . S
C2286 H2290 0.950 . S
C2286 C2295 1.390 . S
C2287 C2286 1.387 . S
C2287 C2289 1.387 . S
H2288 C2295 0.950 . S
C2289 C2287 1.387 . S
C2289 C2291 1.390 . S
C2289 H2293 0.950 . S
H2290 C2286 0.950 . S
C2291 C2289 1.390 . S
C2291 C2292 1.387 . S
C2291 H2294 0.950 . S
C2292 C2291 1.387 . S
C2292 C2295 1.387 . S
H2293 C2289 0.950 . S
H2294 C2291 0.950 . S
C2295 C2286 1.390 . S
C2295 H2288 0.950 . S
C2295 C2292 1.387 . S
C2296 C2297 1.387 . S
C2296 H2300 0.950 . S
C2296 C2305 1.390 . S
C2297 C2296 1.387 . S
C2297 C2299 1.387 . S
H2298 C2305 0.950 . S
C2299 C2297 1.387 . S
C2299 C2301 1.390 . S
C2299 H2303 0.950 . S
H2300 C2296 0.950 . S
C2301 C2299 1.390 . S
C2301 C2302 1.387 . S
C2301 H2304 0.950 . S
C2302 C2301 1.387 . S
C2302 C2305 1.387 . S
H2303 C2299 0.950 . S
H2304 C2301 0.950 . S
C2305 C2296 1.390 . S
C2305 H2298 0.950 . S
C2305 C2302 1.387 . S
C2306 C2307 1.387 . S
C2306 H2310 0.950 . S
C2306 C2315 1.390 . S
C2307 C2306 1.387 . S
C2307 C2309 1.387 . S
H2308 C2315 0.950 . S
C2309 C2307 1.387 . S
C2309 C2311 1.390 . S
C2309 H2313 0.950 . S
H2310 C2306 0.950 . S
C2311 C2309 1.390 . S
C2311 C2312 1.387 . S
C2311 H2314 0.950 . S
C2312 C2311 1.387 . S
C2312 C2315 1.387 . S
H2313 C2309 0.950 . S
H2314 C2311 0.950 . S
C2315 C2306 1.390 . S
C2315 H2308 0.950 . S
C2315 C2312 1.387 . S
C2316 C2317 1.387 . S
C2316 H2320 0.950 . S
C2316 C2325 1.390 . S
C2317 C2316 1.387 . S
C2317 C2319 1.387 . S
H2318 C2325 0.950 . S
C2319 C2317 1.387 . S
C2319 C2321 1.390 . S
C2319 H2323 0.950 . S
H2320 C2316 0.950 . S
C2321 C2319 1.390 . S
C2321 C2322 1.387 . S
C2321 H2324 0.950 . S
C2322 C2321 1.387 . S
C2322 C2325 1.387 . S
H2323 C2319 0.950 . S
H2324 C2321 0.950 . S
C2325 C2316 1.390 . S
C2325 H2318 0.950 . S
C2325 C2322 1.387 . S
C2326 C2327 1.387 . S
C2326 H2330 0.950 . S
C2326 C2335 1.390 . S
C2327 C2326 1.387 . S
C2327 C2329 1.387 . S
H2328 C2335 0.950 . S
C2329 C2327 1.387 . S
C2329 C2331 1.390 . S
C2329 H2333 0.950 . S
H2330 C2326 0.950 . S
C2331 C2329 1.390 . S
C2331 C2332 1.387 . S
C2331 H2334 0.950 . S
C2332 C2331 1.387 . S
C2332 C2335 1.387 . S
H2333 C2329 0.950 . S
H2334 C2331 0.950 . S
C2335 C2326 1.390 . S
C2335 H2328 0.950 . S
C2335 C2332 1.387 . S
C2336 C2337 1.387 . S
C2336 H2340 0.950 . S
C2336 C2345 1.390 . S
C2337 C2336 1.387 . S
C2337 C2339 1.387 . S
H2338 C2345 0.950 . S
C2339 C2337 1.387 . S
C2339 C2341 1.390 . S
C2339 H2343 0.950 . S
H2340 C2336 0.950 . S
C2341 C2339 1.390 . S
C2341 C2342 1.387 . S
C2341 H2344 0.950 . S
C2342 C2341 1.387 . S
C2342 C2345 1.387 . S
H2343 C2339 0.950 . S
H2344 C2341 0.950 . S
C2345 C2336 1.390 . S
C2345 H2338 0.950 . S
C2345 C2342 1.387 . S
C2346 C2347 1.387 . S
C2346 H2350 0.950 . S
C2346 C2355 1.390 . S
C2347 C2346 1.387 . S
C2347 C2349 1.387 . S
H2348 C2355 0.950 . S
C2349 C2347 1.387 . S
C2349 C2351 1.390 . S
C2349 H2353 0.950 . S
H2350 C2346 0.950 . S
C2351 C2349 1.390 . S
C2351 C2352 1.387 . S
C2351 H2354 0.950 . S
C2352 C2351 1.387 . S
C2352 C2355 1.387 . S
H2353 C2349 0.950 . S
H2354 C2351 0.950 . S
C2355 C2346 1.390 . S
C2355 H2348 0.950 . S
C2355 C2352 1.387 . S
C2356 C2357 1.387 . S
C2356 H2360 0.950 . S
C2356 C2365 1.390 . S
C2357 C2356 1.387 . S
C2357 C2359 1.387 . S
H2358 C2365 0.950 . S
C2359 C2357 1.387 . S
C2359 C2361 1.390 . S
C2359 H2363 0.950 . S
H2360 C2356 0.950 . S
C2361 C2359 1.390 . S
C2361 C2362 1.387 . S
C2361 H2364 0.950 . S
C2362 C2361 1.387 . S
C2362 C2365 1.387 . S
H2363 C2359 0.950 . S
H2364 C2361 0.950 . S
C2365 C2356 1.390 . S
C2365 H2358 0.950 . S
C2365 C2362 1.387 . S
C2366 C2367 1.387 . S
C2366 H2370 0.950 . S
C2366 C2375 1.390 . S
C2367 C2366 1.387 . S
C2367 C2369 1.387 . S
H2368 C2375 0.950 . S
C2369 C2367 1.387 . S
C2369 C2371 1.390 . S
C2369 H2373 0.950 . S
H2370 C2366 0.950 . S
C2371 C2369 1.390 . S
C2371 C2372 1.387 . S
C2371 H2374 0.950 . S
C2372 C2371 1.387 . S
C2372 C2375 1.387 . S
H2373 C2369 0.950 . S
H2374 C2371 0.950 . S
C2375 C2366 1.390 . S
C2375 H2368 0.950 . S
C2375 C2372 1.387 . S
C2376 C2377 1.387 . S
C2376 H2380 0.950 . S
C2376 C2385 1.390 . S
C2377 C2376 1.387 . S
C2377 C2379 1.387 . S
H2378 C2385 0.950 . S
C2379 C2377 1.387 . S
C2379 C2381 1.390 . S
C2379 H2383 0.950 . S
H2380 C2376 0.950 . S
C2381 C2379 1.390 . S
C2381 C2382 1.387 . S
C2381 H2384 0.950 . S
C2382 C2381 1.387 . S
C2382 C2385 1.387 . S
H2383 C2379 0.950 . S
H2384 C2381 0.950 . S
C2385 C2376 1.390 . S
C2385 H2378 0.950 . S
C2385 C2382 1.387 . S
C2386 C2387 1.387 . S
C2386 H2390 0.950 . S
C2386 C2395 1.390 . S
C2387 C2386 1.387 . S
C2387 C2389 1.387 . S
H2388 C2395 0.950 . S
C2389 C2387 1.387 . S
C2389 C2391 1.390 . S
C2389 H2393 0.950 . S
H2390 C2386 0.950 . S
C2391 C2389 1.390 . S
C2391 C2392 1.387 . S
C2391 H2394 0.950 . S
C2392 C2391 1.387 . S
C2392 C2395 1.387 . S
H2393 C2389 0.950 . S
H2394 C2391 0.950 . S
C2395 C2386 1.390 . S
C2395 H2388 0.950 . S
C2395 C2392 1.387 . S
C2396 C2397 1.387 . S
C2396 H2400 0.950 . S
C2396 C2405 1.390 . S
C2397 C2396 1.387 . S
C2397 C2399 1.387 . S
H2398 C2405 0.950 . S
C2399 C2397 1.387 . S
C2399 C2401 1.390 . S
C2399 H2403 0.950 . S
H2400 C2396 0.950 . S
C2401 C2399 1.390 . S
C2401 C2402 1.387 . S
C2401 H2404 0.950 . S
C2402 C2401 1.387 . S
C2402 C2405 1.387 . S
H2403 C2399 0.950 . S
H2404 C2401 0.950 . S
C2405 C2396 1.390 . S
C2405 H2398 0.950 . S
C2405 C2402 1.387 . S
C2406 C2407 1.387 . S
C2406 H2410 0.950 . S
C2406 C2415 1.390 . S
C2407 C2406 1.387 . S
C2407 C2409 1.387 . S
H2408 C2415 0.950 . S
C2409 C2407 1.387 . S
C2409 C2411 1.390 . S
C2409 H2413 0.950 . S
H2410 C2406 0.950 . S
C2411 C2409 1.390 . S
C2411 C2412 1.387 . S
C2411 H2414 0.950 . S
C2412 C2411 1.387 . S
C2412 C2415 1.387 . S
H2413 C2409 0.950 . S
H2414 C2411 0.950 . S
C2415 C2406 1.390 . S
C2415 H2408 0.950 . S
C2415 C2412 1.387 . S
C2416 C2417 1.387 . S
C2416 H2420 0.950 . S
C2416 C2425 1.390 . S
C2417 C2416 1.387 . S
C2417 C2419 1.387 . S
H2418 C2425 0.950 . S
C2419 C2417 1.387 . S
C2419 C2421 1.390 . S
C2419 H2423 0.950 . S
H2420 C2416 0.950 . S
C2421 C2419 1.390 . S
C2421 C2422 1.387 . S
C2421 H2424 0.950 . S
C2422 C2421 1.387 . S
C2422 C2425 1.387 . S
H2423 C2419 0.950 . S
H2424 C2421 0.950 . S
C2425 C2416 1.390 . S
C2425 H2418 0.950 . S
C2425 C2422 1.387 . S
C2426 C2427 1.387 . S
C2426 H2430 0.950 . S
C2426 C2435 1.390 . S
C2427 C2426 1.387 . S
C2427 C2429 1.387 . S
H2428 C2435 0.950 . S
C2429 C2427 1.387 . S
C2429 C2431 1.390 . S
C2429 H2433 0.950 . S
H2430 C2426 0.950 . S
C2431 C2429 1.390 . S
C2431 C2432 1.387 . S
C2431 H2434 0.950 . S
C2432 C2431 1.387 . S
C2432 C2435 1.387 . S
H2433 C2429 0.950 . S
H2434 C2431 0.950 . S
C2435 C2426 1.390 . S
C2435 H2428 0.950 . S
C2435 C2432 1.387 . S
C2436 C2437 1.387 . S
C2436 H2440 0.950 . S
C2436 C2445 1.390 . S
C2437 C2436 1.387 . S
C2437 C2439 1.387 . S
H2438 C2445 0.950 . S
C2439 C2437 1.387 . S
C2439 C2441 1.390 . S
C2439 H2443 0.950 . S
H2440 C2436 0.950 . S
C2441 C2439 1.390 . S
C2441 C2442 1.387 . S
C2441 H2444 0.950 . S
C2442 C2441 1.387 . S
C2442 C2445 1.387 . S
H2443 C2439 0.950 . S
H2444 C2441 0.950 . S
C2445 C2436 1.390 . S
C2445 H2438 0.950 . S
C2445 C2442 1.387 . S
C2446 C2447 1.387 . S
C2446 H2450 0.950 . S
C2446 C2455 1.390 . S
C2447 C2446 1.387 . S
C2447 C2449 1.387 . S
H2448 C2455 0.950 . S
C2449 C2447 1.387 . S
C2449 C2451 1.390 . S
C2449 H2453 0.950 . S
H2450 C2446 0.950 . S
C2451 C2449 1.390 . S
C2451 C2452 1.387 . S
C2451 H2454 0.950 . S
C2452 C2451 1.387 . S
C2452 C2455 1.387 . S
H2453 C2449 0.950 . S
H2454 C2451 0.950 . S
C2455 C2446 1.390 . S
C2455 H2448 0.950 . S
C2455 C2452 1.387 . S
C2456 C2457 1.387 . S
C2456 H2460 0.950 . S
C2456 C2465 1.390 . S
C2457 C2456 1.387 . S
C2457 C2459 1.387 . S
H2458 C2465 0.950 . S
C2459 C2457 1.387 . S
C2459 C2461 1.390 . S
C2459 H2463 0.950 . S
H2460 C2456 0.950 . S
C2461 C2459 1.390 . S
C2461 C2462 1.387 . S
C2461 H2464 0.950 . S
C2462 C2461 1.387 . S
C2462 C2465 1.387 . S
H2463 C2459 0.950 . S
H2464 C2461 0.950 . S
C2465 C2456 1.390 . S
C2465 H2458 0.950 . S
C2465 C2462 1.387 . S
C2466 C2467 1.387 . S
C2466 H2470 0.950 . S
C2466 C2475 1.390 . S
C2467 C2466 1.387 . S
C2467 C2469 1.387 . S
H2468 C2475 0.950 . S
C2469 C2467 1.387 . S
C2469 C2471 1.390 . S
C2469 H2473 0.950 . S
H2470 C2466 0.950 . S
C2471 C2469 1.390 . S
C2471 C2472 1.387 . S
C2471 H2474 0.950 . S
C2472 C2471 1.387 . S
C2472 C2475 1.387 . S
H2473 C2469 0.950 . S
H2474 C2471 0.950 . S
C2475 C2466 1.390 . S
C2475 H2468 0.950 . S
C2475 C2472 1.387 . S
C2476 C2477 1.387 . S
C2476 H2480 0.950 . S
C2476 C2485 1.390 . S
C2477 C2476 1.387 . S
C2477 C2479 1.387 . S
H2478 C2485 0.950 . S
C2479 C2477 1.387 . S
C2479 C2481 1.390 . S
C2479 H2483 0.950 . S
H2480 C2476 0.950 . S
C2481 C2479 1.390 . S
C2481 C2482 1.387 . S
C2481 H2484 0.950 . S
C2482 C2481 1.387 . S
C2482 C2485 1.387 . S
H2483 C2479 0.950 . S
H2484 C2481 0.950 . S
C2485 C2476 1.390 . S
C2485 H2478 0.950 . S
C2485 C2482 1.387 . S
C2486 C2487 1.387 . S
C2486 H2490 0.950 . S
C2486 C2495 1.390 . S
C2487 C2486 1.387 . S
C2487 C2489 1.387 . S
H2488 C2495 0.950 . S
C2489 C2487 1.387 . S
C2489 C2491 1.390 . S
C2489 H2493 0.950 . S
H2490 C2486 0.950 . S
C2491 C2489 1.390 . S
C2491 C2492 1.387 . S
C2491 H2494 0.950 . S
C2492 C2491 1.387 . S
C2492 C2495 1.387 . S
H2493 C2489 0.950 . S
H2494 C2491 0.950 . S
C2495 C2486 1.390 . S
C2495 H2488 0.950 . S
C2495 C2492 1.387 . S
C2496 C2497 1.387 . S
C2496 H2500 0.950 . S
C2496 C2505 1.390 . S
C2497 C2496 1.387 . S
C2497 C2499 1.387 . S
H2498 C2505 0.950 . S
C2499 C2497 1.387 . S
C2499 C2501 1.390 . S
C2499 H2503 0.950 . S
H2500 C2496 0.950 . S
C2501 C2499 1.390 . S
C2501 C2502 1.387 . S
C2501 H2504 0.950 . S
C2502 C2501 1.387 . S
C2502 C2505 1.387 . S
H2503 C2499 0.950 . S
H2504 C2501 0.950 . S
C2505 C2496 1.390 . S
C2505 H2498 0.950 . S
C2505 C2502 1.387 . S
C2506 C2507 1.387 . S
C2506 H2510 0.950 . S
C2506 C2515 1.390 . S
C2507 C2506 1.387 . S
C2507 C2509 1.387 . S
H2508 C2515 0.950 . S
C2509 C2507 1.387 . S
C2509 C2511 1.390 . S
C2509 H2513 0.950 . S
H2510 C2506 0.950 . S
C2511 C2509 1.390 . S
C2511 C2512 1.387 . S
C2511 H2514 0.950 . S
C2512 C2511 1.387 . S
C2512 C2515 1.387 . S
H2513 C2509 0.950 . S
H2514 C2511 0.950 . S
C2515 C2506 1.390 . S
C2515 H2508 0.950 . S
C2515 C2512 1.387 . S
C2516 C2517 1.387 . S
C2516 H2520 0.950 . S
C2516 C2525 1.390 . S
C2517 C2516 1.387 . S
C2517 C2519 1.387 . S
H2518 C2525 0.950 . S
C2519 C2517 1.387 . S
C2519 C2521 1.390 . S
C2519 H2523 0.950 . S
H2520 C2516 0.950 . S
C2521 C2519 1.390 . S
C2521 C2522 1.387 . S
C2521 H2524 0.950 . S
C2522 C2521 1.387 . S
C2522 C2525 1.387 . S
H2523 C2519 0.950 . S
H2524 C2521 0.950 . S
C2525 C2516 1.390 . S
C2525 H2518 0.950 . S
C2525 C2522 1.387 . S
C2526 C2527 1.387 . S
C2526 H2530 0.950 . S
C2526 C2535 1.390 . S
C2527 C2526 1.387 . S
C2527 C2529 1.387 . S
H2528 C2535 0.950 . S
C2529 C2527 1.387 . S
C2529 C2531 1.390 . S
C2529 H2533 0.950 . S
H2530 C2526 0.950 . S
C2531 C2529 1.390 . S
C2531 C2532 1.387 . S
C2531 H2534 0.950 . S
C2532 C2531 1.387 . S
C2532 C2535 1.387 . S
H2533 C2529 0.950 . S
H2534 C2531 0.950 . S
C2535 C2526 1.390 . S
C2535 H2528 0.950 . S
C2535 C2532 1.387 . S
C1582 N1036 1.498 . S
C1577 C29 1.498 . S
C1592 C1063 1.619 . S
C1587 C61 1.602 . S
C1597 C93 1.522 . S
C1602 C1077 1.541 . S
C1612 N1095 1.446 . S
C1607 C119 1.474 . S
C1617 C157 1.570 . S
C1622 C1100 1.620 . S
C1627 C177 1.496 . S
C1632 C1040 1.524 . S
C1637 C221 1.442 . S
C1642 N1059 1.405 . S
C1652 N1072 1.474 . S
C1647 C253 1.500 . S
C1662 N1118 1.402 . S
C1657 C17 1.403 . S
C1667 C55 1.497 . S
C1672 N1141 1.493 . S
C1677 C87 1.553 . S
C1682 N1164 1.547 . S
C1692 N1197 1.422 . S
C1687 C113 1.452 . S
C1697 C145 1.503 . S
C1702 C1224 1.524 . S
C1712 C1247 1.559 . S
C1707 C183 1.532 . S
C1717 C215 1.508 . S
C1722 C1270 1.523 . S
C1732 C1284 1.413 . S
C1727 C247 1.405 . S
C1737 C23 1.409 . S
C1742 C1201 1.460 . S
C1747 C151 1.433 . S
C1752 N1243 1.432 . S
C1762 N1266 1.456 . S
C1757 C189 1.459 . S
C1767 C209 1.471 . S
C1772 N1279 1.440 . S
C1782 N1220 1.432 . S
C1777 C241 1.481 . S
C1792 C1146 1.655 . S
C1787 C81 1.642 . S
C1797 C125 1.524 . S
C1802 C1169 1.534 . S
C1812 C1123 1.619 . S
C1807 C49 1.600 . S
C1822 C1316 1.510 . S
C1817 C285 1.454 . S
C1827 C317 1.596 . S
C1832 C1330 1.621 . S
C1837 C349 1.521 . S
C1842 N1358 1.476 . S
C1852 N1371 1.439 . S
C1847 C375 1.456 . S
C1857 C413 1.578 . S
C1862 C1376 1.629 . S
C1867 C433 1.490 . S
C1872 N1312 1.463 . S
C1877 C477 1.527 . S
C1882 N1325 1.510 . S
C1887 C509 1.475 . S
C1892 C1362 1.477 . S
C1902 N1210 1.412 . S
C1897 C273 1.408 . S
C1907 C311 1.464 . S
C1912 N1394 1.438 . S
C1922 N1256 1.447 . S
C1917 C343 1.459 . S
C1927 C369 1.503 . S
C1932 C1431 1.526 . S
C1937 C401 1.535 . S
C1942 C1132 1.566 . S
C1952 C1445 1.589 . S
C1947 C439 1.546 . S
C1957 C471 1.528 . S
C1962 C1178 1.533 . S
C1972 N1463 1.386 . S
C1967 C503 1.402 . S
C1977 C279 1.415 . S
C1982 N1427 1.415 . S
C1992 N1440 1.477 . S
C1987 C407 1.464 . S
C1997 C445 1.458 . S
C2002 N1174 1.458 . S
C2012 C1468 1.446 . S
C2007 C465 1.432 . S
C2017 C497 1.455 . S
C2022 N1128 1.420 . S
C2027 C337 1.550 . S
C2032 C1399 1.563 . S
C2037 C381 1.576 . S
C2042 C1261 1.586 . S
C2047 C305 1.580 . S
C2052 C1215 1.605 . S
C2057 C541 1.518 . S
C2062 C1353 1.570 . S
C2072 C1385 1.562 . S
C2067 C573 1.544 . S
C2077 C605 1.487 . S
C2082 N1302 1.469 . S
C2087 C631 1.447 . S
C2092 N1335 1.417 . S
C2097 C669 1.584 . S
C2102 C1339 1.635 . S
C2107 C689 1.527 . S
C2112 N1348 1.529 . S
C2122 N1381 1.376 . S
C2117 C733 1.428 . S
C2127 C765 1.506 . S
C2132 C1307 1.524 . S
C2142 N1496 1.427 . S
C2137 C529 1.429 . S
C2147 C567 1.421 . S
C2152 N1233 1.412 . S
C2162 N1519 1.381 . S
C2157 C599 1.426 . S
C2167 C625 1.474 . S
C2172 N1289 1.462 . S
C2177 C657 1.512 . S
C2182 C1537 1.544 . S
C2187 C695 1.605 . S
C2192 C1155 1.645 . S
C2202 N1555 1.390 . S
C2197 C727 1.421 . S
C2207 C759 1.456 . S
C2212 C1192 1.462 . S
C2222 C1293 1.489 . S
C2217 C535 1.439 . S
C2232 N1151 1.478 . S
C2227 C663 1.491 . S
C2237 C701 1.548 . S
C2242 C1560 1.593 . S
C2247 C721 1.407 . S
C2252 N1187 1.363 . S
C2262 N1532 1.508 . S
C2257 C753 1.510 . S
C2272 C1238 1.566 . S
C2267 C593 1.549 . S
C2282 C1523 1.597 . S
C2277 C637 1.588 . S
C2292 C1500 1.591 . S
C2287 C561 1.556 . S
C2297 C797 1.407 . S
C2302 N1082 1.414 . S
C2307 C829 1.567 . S
C2312 C1109 1.582 . S
C2322 C1031 1.569 . S
C2317 C861 1.545 . S
C2332 N1049 1.392 . S
C2327 C887 1.415 . S
C2342 C1054 1.639 . S
C2337 C925 1.593 . S
C2352 C1086 1.553 . S
C2347 C945 1.517 . S
C2362 N1105 1.496 . S
C2357 C989 1.542 . S
C2367 C1021 1.542 . S
C2372 N1026 1.510 . S
C2377 C785 1.355 . S
C2382 N1542 1.349 . S
C2392 N1450 1.444 . S
C2387 C823 1.453 . S
C2402 C1569 1.594 . S
C2397 C855 1.570 . S
C2412 C1477 1.391 . S
C2407 C881 1.389 . S
C2417 C913 1.527 . S
C2422 C1491 1.559 . S
C2432 C1408 1.567 . S
C2427 C951 1.539 . S
C2442 C1514 1.644 . S
C2437 C983 1.631 . S
C2447 C1015 1.458 . S
C2452 N1417 1.419 . S
C2462 N1473 1.345 . S
C2457 C791 1.343 . S
C2472 N1404 1.436 . S
C2467 C919 1.437 . S
C2482 N1509 1.416 . S
C2477 C957 1.410 . S
C2487 C977 1.502 . S
C2492 C1422 1.513 . S
C2497 C1009 1.469 . S
C2502 N1486 1.438 . S
C2507 C849 1.642 . S
C2512 C1454 1.657 . S
C2517 C893 1.441 . S
C2522 N1565 1.414 . S
C2532 C1546 1.564 . S
C2527 C817 1.544 . S
