# Generated by pormake.
# Topology pyr, (3,6)-cn, num edge types: 1
# Building blocks:
#     Node 0, Type 0, BuildingBlock: BETDAH_clean_linker_0, # of connection points: 3
#     Node 1, Type 0, BuildingBlock: BETDAH_clean_linker_0, # of connection points: 3
#     Node 2, Type 0, BuildingBlock: BETDAH_clean_linker_0, # of connection points: 3
#     Node 3, Type 0, BuildingBlock: BETDAH_clean_linker_0, # of connection points: 3
#     Node 4, Type 0, BuildingBlock: BETDAH_clean_linker_0, # of connection points: 3
#     Node 5, Type 0, BuildingBlock: BETDAH_clean_linker_0, # of connection points: 3
#     Node 6, Type 0, BuildingBlock: BETDAH_clean_linker_0, # of connection points: 3
#     Node 7, Type 0, BuildingBlock: BETDAH_clean_linker_0, # of connection points: 3
#     Node 8, Type 1, BuildingBlock: JUFBIX_clean_sbu_0, # of connection points: 6
#     Node 9, Type 1, BuildingBlock: JUFBIX_clean_sbu_0, # of connection points: 6
#     Node 10, Type 1, BuildingBlock: JUFBIX_clean_sbu_0, # of connection points: 6
#     Node 11, Type 1, BuildingBlock: JUFBIX_clean_sbu_0, # of connection points: 6
#     Edge 12, Type (0, 1), BuildingBlock: XUDNAN_clean_linker_2, # of connection points: 2
#     Edge 13, Type (0, 1), BuildingBlock: XUDNAN_clean_linker_2, # of connection points: 2
#     Edge 14, Type (0, 1), BuildingBlock: XUDNAN_clean_linker_2, # of connection points: 2
#     Edge 15, Type (0, 1), BuildingBlock: XUDNAN_clean_linker_2, # of connection points: 2
#     Edge 16, Type (0, 1), BuildingBlock: XUDNAN_clean_linker_2, # of connection points: 2
#     Edge 17, Type (0, 1), BuildingBlock: XUDNAN_clean_linker_2, # of connection points: 2
#     Edge 18, Type (0, 1), BuildingBlock: XUDNAN_clean_linker_2, # of connection points: 2
#     Edge 19, Type (0, 1), BuildingBlock: XUDNAN_clean_linker_2, # of connection points: 2
#     Edge 20, Type (0, 1), BuildingBlock: XUDNAN_clean_linker_2, # of connection points: 2
#     Edge 21, Type (0, 1), BuildingBlock: XUDNAN_clean_linker_2, # of connection points: 2
#     Edge 22, Type (0, 1), BuildingBlock: XUDNAN_clean_linker_2, # of connection points: 2
#     Edge 23, Type (0, 1), BuildingBlock: XUDNAN_clean_linker_2, # of connection points: 2
#     Edge 24, Type (0, 1), BuildingBlock: XUDNAN_clean_linker_2, # of connection points: 2
#     Edge 25, Type (0, 1), BuildingBlock: XUDNAN_clean_linker_2, # of connection points: 2
#     Edge 26, Type (0, 1), BuildingBlock: XUDNAN_clean_linker_2, # of connection points: 2
#     Edge 27, Type (0, 1), BuildingBlock: XUDNAN_clean_linker_2, # of connection points: 2
#     Edge 28, Type (0, 1), BuildingBlock: XUDNAN_clean_linker_2, # of connection points: 2
#     Edge 29, Type (0, 1), BuildingBlock: XUDNAN_clean_linker_2, # of connection points: 2
#     Edge 30, Type (0, 1), BuildingBlock: XUDNAN_clean_linker_2, # of connection points: 2
#     Edge 31, Type (0, 1), BuildingBlock: XUDNAN_clean_linker_2, # of connection points: 2
#     Edge 32, Type (0, 1), BuildingBlock: XUDNAN_clean_linker_2, # of connection points: 2
#     Edge 33, Type (0, 1), BuildingBlock: XUDNAN_clean_linker_2, # of connection points: 2
#     Edge 34, Type (0, 1), BuildingBlock: XUDNAN_clean_linker_2, # of connection points: 2
#     Edge 35, Type (0, 1), BuildingBlock: XUDNAN_clean_linker_2, # of connection points: 2
# Relax obj value: 0.126
# Max RMSD: 0.203
# Mean RMSD: 0.127
data_MOF--net-pyr--node1-JUFBIX_clean_sbu_0--node2-BETDAH_clean_linker_0--edge1-XUDNAN_clean_linker_2
_symmetry_space_group_name_H-M    P1
_symmetry_Int_Tables_number       1
_symmetry_cell_setting            triclinic
loop_
_symmetry_equiv_pos_as_xyz
'x, y, z'
_cell_length_a     36.505078
_cell_length_b     34.684893
_cell_length_c     38.25387
_cell_angle_alpha  84.470726
_cell_angle_beta   89.705546
_cell_angle_gamma 96.885591
loop_
_atom_site_label
_atom_site_type_symbol
_atom_site_fract_x
_atom_site_fract_y
_atom_site_fract_z
_atom_type_partial_charge
H0 H 0.24355 0.1379 0.25026 0.0
H1 H 0.24459 0.23684 0.17257 0.0
H2 H 0.16694 0.22147 0.25941 0.0
C3 C 0.23165 0.16366 0.23976 0.0
C4 C 0.20238 0.17606 0.25862 0.0
C5 C 0.24727 0.18474 0.20844 0.0
C6 C 0.23164 0.21881 0.195 0.0
C7 C 0.20185 0.23187 0.213 0.0
C8 C 0.1878 0.21005 0.24448 0.0
N9 N 0.19252 0.27114 0.20661 0.0
C10 C 0.17875 0.29102 0.17645 0.0
H11 H 0.45548 0.84732 0.75192 0.0
H12 H 0.44312 0.96424 0.70705 0.0
H13 H 0.4702 0.87881 0.64095 0.0
C14 C 0.45522 0.86897 0.72958 0.0
C15 C 0.46238 0.85824 0.69599 0.0
C16 C 0.44894 0.90746 0.73438 0.0
C17 C 0.44914 0.9348 0.70457 0.0
C18 C 0.45767 0.92452 0.67119 0.0
C19 C 0.46471 0.88658 0.66709 0.0
N20 N 0.45874 0.95196 0.64127 0.0
C21 C 0.42792 0.97 0.63176 0.0
H22 H 0.71664 0.37733 0.96938 0.0
H23 H 0.77139 0.43575 0.87542 0.0
H24 H 0.66584 0.36902 0.86865 0.0
C25 C 0.7177 0.38426 0.94118 0.0
C26 C 0.68836 0.36858 0.92106 0.0
C27 C 0.74821 0.40848 0.92535 0.0
C28 C 0.74796 0.41831 0.88882 0.0
C29 C 0.71767 0.40585 0.86874 0.0
C30 C 0.688 0.38065 0.88477 0.0
N31 N 0.71926 0.41743 0.83209 0.0
C32 C 0.68881 0.42306 0.81135 0.0
H33 H 0.92677 0.69686 0.51991 0.0
H34 H 0.02137 0.67678 0.45949 0.0
H35 H 0.91994 0.6004 0.4567 0.0
C36 C 0.93979 0.67961 0.50237 0.0
C37 C 0.91941 0.6467 0.49045 0.0
C38 C 0.97671 0.69061 0.49154 0.0
C39 C 0.99331 0.66795 0.46898 0.0
C40 C 0.97265 0.63601 0.45586 0.0
C41 C 0.9359 0.62509 0.46699 0.0
N42 N 0.98827 0.61707 0.42937 0.0
C43 C 0.96942 0.61093 0.3986 0.0
H44 H 0.92756 0.865 0.85489 0.0
H45 H 0.84021 0.87349 0.93079 0.0
H46 H 0.84523 0.94189 0.83123 0.0
C47 C 0.90333 0.87734 0.86283 0.0
C48 C 0.88851 0.90479 0.8386 0.0
C49 C 0.88656 0.86521 0.89668 0.0
C50 C 0.85449 0.8826 0.90599 0.0
C51 C 0.8397 0.91058 0.88239 0.0
C52 C 0.85704 0.92089 0.84931 0.0
N53 N 0.80607 0.92736 0.88828 0.0
C54 C 0.78504 0.93089 0.91867 0.0
H55 H 0.70832 0.16463 0.38861 0.0
H56 H 0.74574 0.24283 0.46486 0.0
H57 H 0.66806 0.27668 0.38735 0.0
C58 C 0.70725 0.19207 0.3997 0.0
C59 C 0.68522 0.21953 0.38426 0.0
C60 C 0.72853 0.19989 0.42915 0.0
C61 C 0.72859 0.23594 0.44271 0.0
C62 C 0.70694 0.26356 0.42787 0.0
C63 C 0.68489 0.25525 0.39884 0.0
N64 N 0.70885 0.29978 0.44234 0.0
C65 C 0.68106 0.32375 0.43946 0.0
H66 H 0.34432 0.75195 0.14523 0.0
H67 H 0.27961 0.69063 0.23232 0.0
H68 H 0.38884 0.74635 0.24899 0.0
C69 C 0.34107 0.74194 0.17288 0.0
C70 C 0.36996 0.75225 0.19558 0.0
C71 C 0.30798 0.71998 0.18547 0.0
C72 C 0.30489 0.70707 0.22152 0.0
C73 C 0.3342 0.71526 0.24432 0.0
C74 C 0.36661 0.73854 0.23139 0.0
N75 N 0.32947 0.7004 0.28021 0.0
C76 C 0.35802 0.69609 0.30369 0.0
H77 H 0.12669 0.38998 0.57806 0.0
H78 H 0.1212 0.45229 0.66936 0.0
H79 H 0.03602 0.35975 0.65181 0.0
C80 C 0.11184 0.39572 0.60128 0.0
C81 C 0.0792 0.37191 0.61211 0.0
C82 C 0.12675 0.42508 0.62166 0.0
C83 C 0.10897 0.43039 0.65312 0.0
C84 C 0.07588 0.40705 0.66374 0.0
C85 C 0.06071 0.37869 0.6427 0.0
N86 N 0.05846 0.40956 0.69645 0.0
C87 C 0.07678 0.42589 0.72413 0.0
Co88 Co 0.02317 0.03152 0.53246 0.0
C89 C 0.05317 0.96132 0.53582 0.0
Co90 Co 0.07405 0.03095 0.56271 0.0
C91 C 0.94901 0.04451 0.51556 0.0
C92 C 0.97311 0.01391 0.47707 0.0
N93 N 0.97998 0.02935 0.50774 0.0
N94 N 0.92315 0.03958 0.49081 0.0
C95 C 0.93819 0.02028 0.46652 0.0
H96 H 0.94616 0.06039 0.53824 0.0
H97 H 0.99257 0.99976 0.4629 0.0
C98 C 0.04315 0.10109 0.55892 0.0
N99 N 0.11736 0.0331 0.58745 0.0
C100 C 0.1505 0.02451 0.57696 0.0
C101 C 0.12283 0.0449 0.61979 0.0
N102 N 0.17649 0.0305 0.60147 0.0
C103 C 0.15914 0.0432 0.62853 0.0
C104 C 0.0862 0.05759 0.48975 0.0
O105 O 0.01853 0.08289 0.54147 0.0
O106 O 0.06992 0.08376 0.57085 0.0
O107 O 0.10179 0.04983 0.51902 0.0
O108 O 0.05107 0.0516 0.48919 0.0
O109 O 0.078 0.97805 0.55427 0.0
H110 H 0.10187 0.05463 0.63577 0.0
H111 H 0.15537 0.0139 0.55186 0.0
O112 O 0.02772 0.98025 0.52357 0.0
O113 O 0.99543 0.01161 0.57579 0.0
O114 O 0.04585 0.01195 0.60628 0.0
C115 C 1.01078 1.00494 0.60538 0.0
H116 H 0.92516 0.01196 0.44256 0.0
H117 H 0.17195 0.05155 0.65258 0.0
Co118 Co 0.50682 0.05974 0.04349 0.0
C119 C 0.49955 0.9955 0.09215 0.0
Co120 Co 0.53967 0.06936 0.09041 0.0
C121 C 0.47652 0.02241 0.98402 0.0
C122 C 0.461 0.07986 0.98572 0.0
N123 N 0.47967 0.05309 1.00345 0.0
N124 N 0.45707 0.02932 0.95471 0.0
C125 C 0.44738 0.06543 0.95549 0.0
H126 H 0.4896 0.99627 0.99041 0.0
H127 H 0.45844 0.1085 0.99372 0.0
C128 C 0.54722 0.13339 0.04076 0.0
N129 N 0.56667 0.07606 0.13041 0.0
C130 C 0.56996 0.10683 0.14971 0.0
C131 C 0.58593 0.04962 0.14777 0.0
N132 N 0.59018 0.1004 0.17864 0.0
C133 C 0.60032 0.06446 0.17749 0.0
C134 C 0.57966 0.03723 0.03895 0.0
O135 O 0.52397 0.11131 0.02505 0.0
O136 O 0.55904 0.12086 0.07043 0.0
O137 O 0.58033 0.04847 0.0697 0.0
O138 O 0.55019 0.04022 0.02132 0.0
O139 O 0.52036 0.01791 0.11 0.0
H140 H 0.58884 0.02114 0.13957 0.0
H141 H 0.55687 0.13294 0.1432 0.0
O142 O 0.48998 0.00808 0.06174 0.0
O143 O 0.46386 0.07918 0.06643 0.0
O144 O 0.49893 0.08998 0.11134 0.0
C145 C 0.46766 0.09138 0.09692 0.0
H146 H 0.43212 0.08045 0.93535 0.0
H147 H 0.61704 0.04999 0.19671 0.0
Co148 Co 0.548 0.58245 0.55639 0.0
C149 C 0.49514 0.5997 0.50687 0.0
Co150 Co 0.49395 0.54747 0.5667 0.0
C151 C 0.62614 0.59802 0.5464 0.0
C152 C 0.60093 0.65081 0.54132 0.0
N153 N 0.59322 0.61179 0.54752 0.0
N154 N 0.65436 0.62679 0.53977 0.0
C155 C 0.63848 0.66015 0.53658 0.0
H156 H 0.62906 0.56724 0.55007 0.0
H157 H 0.5806 0.67114 0.54045 0.0
C158 C 0.54706 0.5302 0.61615 0.0
N159 N 0.44921 0.51739 0.57601 0.0
C160 C 0.41485 0.52791 0.57327 0.0
C161 C 0.44444 0.47949 0.58891 0.0
N162 N 0.38899 0.49814 0.58444 0.0
C163 C 0.40743 0.46765 0.59433 0.0
C164 C 0.54046 0.5138 0.52462 0.0
O165 O 0.5675 0.55642 0.5972 0.0
O166 O 0.51375 0.52184 0.60745 0.0
O167 O 0.50861 0.50908 0.53899 0.0
O168 O 0.56219 0.54427 0.52897 0.0
O169 O 0.47459 0.57345 0.52581 0.0
H170 H 0.46652 0.46171 0.59437 0.0
H171 H 0.40897 0.55701 0.56412 0.0
O172 O 0.52845 0.60831 0.5157 0.0
O173 O 0.53346 0.62041 0.58379 0.0
O174 O 0.47946 0.586 0.59446 0.0
C175 C 0.50178 0.61628 0.59845 0.0
H176 H 0.65279 0.68934 0.53159 0.0
H177 H 0.39497 0.43884 0.60453 0.0
Co178 Co 0.04231 0.57898 1.01398 0.0
C179 C 0.97214 0.53735 0.02729 0.0
Co180 Co 0.02118 0.5775 0.06822 0.0
C181 C 0.08407 0.56183 0.95386 0.0
C182 C 0.04094 0.5966 0.9394 0.0
N183 N 0.05736 0.57996 0.96752 0.0
N184 N 0.0847 0.56628 0.91838 0.0
C185 C 0.05768 0.5884 0.90933 0.0
H186 H 0.10172 0.54435 0.96953 0.0
H187 H 1.01686 0.61183 0.9404 0.0
C188 C 0.09148 0.61839 0.05563 0.0
N189 N 1.00742 0.57595 0.11506 0.0
C190 C 0.97628 0.58261 0.13165 0.0
C191 C 0.02991 0.56485 0.14109 0.0
N192 N 0.97857 0.57494 0.16684 0.0
C193 C 1.01226 0.56398 0.17271 0.0
C194 C 0.06277 0.51454 0.05788 0.0
O195 O 0.08737 0.60955 0.02429 0.0
O196 O 0.0657 0.60782 0.07806 0.0
O197 O 0.04444 0.52991 0.08003 0.0
O198 O 0.06517 0.53093 0.02648 0.0
O199 O 0.97695 0.5466 0.05841 0.0
H200 H 0.05767 0.55786 0.13738 0.0
H201 H 0.95248 0.59241 0.11833 0.0
O202 O 0.99706 0.5486 1.00391 0.0
O203 O 0.01947 0.62638 1.0022 0.0
O204 O 0.99761 0.62557 0.05558 0.0
C205 C 1.00052 0.64171 0.02391 0.0
H206 H 0.04859 0.59555 0.88286 0.0
H207 H 0.02363 0.55685 0.1983 0.0
H208 H 0.13132 0.16067 0.29045 0.0
H209 H 0.24617 0.14697 0.3107 0.0
H210 H 0.22886 0.11567 0.36988 0.0
H211 H 0.10792 0.18202 0.37862 0.0
H212 H 0.06246 0.15508 0.37957 0.0
H213 H 0.08336 0.17641 0.33831 0.0
H214 H 0.07433 0.10889 0.31411 0.0
H215 H 0.05341 0.08736 0.35531 0.0
H216 H 0.09269 0.06821 0.33784 0.0
H217 H 0.1998 0.0869 0.42849 0.0
H218 H 0.16109 0.06113 0.48051 0.0
H219 H 0.06373 0.09078 0.42437 0.0
C220 C 0.15289 0.15111 0.30728 0.0
C221 C 0.19037 0.15621 0.29496 0.0
C222 C 0.21729 0.14295 0.31844 0.0
C223 C 0.20772 0.12527 0.35254 0.0
C224 C 0.17082 0.12053 0.36363 0.0
C225 C 0.1437 0.13289 0.34169 0.0
C226 C 0.10601 0.12381 0.36042 0.0
C227 C 0.08893 0.16158 0.36446 0.0
C228 C 0.08007 0.09538 0.34074 0.0
C229 C 0.11623 0.10456 0.39619 0.0
C230 C 0.15389 0.10326 0.39739 0.0
C231 C 0.17027 0.08766 0.42764 0.0
C232 C 0.14788 0.07302 0.45729 0.0
C233 C 0.10904 0.07344 0.45707 0.0
C234 C 0.09318 0.08954 0.42571 0.0
H235 H 0.4701 0.97911 0.75842 0.0
H236 H 0.41567 0.86301 0.7926 0.0
H237 H 0.41227 0.8814 0.85301 0.0
H238 H 0.52266 0.99488 0.83297 0.0
H239 H 0.5159 0.0455 0.83305 0.0
H240 H 0.51428 0.02323 0.79241 0.0
H241 H 0.449 0.04341 0.78063 0.0
H242 H 0.45054 0.06612 0.8211 0.0
H243 H 0.41294 0.02943 0.81337 0.0
H244 H 0.4195 0.91126 0.91094 0.0
H245 H 0.42991 0.95309 0.96006 0.0
H246 H 0.47229 0.05087 0.88625 0.0
C247 C 0.45662 0.9576 0.77819 0.0
C248 C 0.44362 0.91933 0.7704 0.0
C249 C 0.42689 0.89219 0.79773 0.0
C250 C 0.42449 0.90244 0.8322 0.0
C251 C 0.43814 0.94021 0.83887 0.0
C252 C 0.45316 0.96757 0.81246 0.0
C253 C 0.46518 1.00645 0.82627 0.0
C254 C 0.50698 0.01818 0.82085 0.0
C255 C 0.44309 0.03822 0.80934 0.0
C256 C 0.45513 0.99653 0.86472 0.0
C257 C 0.43996 0.95804 0.87163 0.0
C258 C 0.43071 0.94161 0.90574 0.0
C259 C 0.43681 0.96534 0.93339 0.0
C260 C 0.45128 1.00503 0.92653 0.0
C261 C 0.46046 0.02074 0.89183 0.0
H262 H 0.69978 0.47741 0.7562 0.0
H263 H 0.61674 0.39237 0.81004 0.0
H264 H 0.57062 0.41079 0.76579 0.0
H265 H 0.64002 0.55118 0.73246 0.0
H266 H 0.66233 0.56613 0.69038 0.0
H267 H 0.68818 0.54627 0.72634 0.0
H268 H 0.70678 0.49367 0.68819 0.0
H269 H 0.68094 0.51336 0.65215 0.0
H270 H 0.67132 0.46257 0.66831 0.0
H271 H 0.53416 0.43858 0.71495 0.0
H272 H 0.5099 0.47321 0.66224 0.0
H273 H 0.61742 0.54026 0.64189 0.0
C274 C 0.6718 0.4628 0.75858 0.0
C275 C 0.66144 0.43358 0.78622 0.0
C276 C 0.62487 0.41486 0.78885 0.0
C277 C 0.59865 0.42516 0.7639 0.0
C278 C 0.60969 0.45416 0.7367 0.0
C279 C 0.64543 0.47274 0.73396 0.0
C280 C 0.65041 0.5028 0.70229 0.0
C281 C 0.66084 0.54403 0.71355 0.0
C282 C 0.67905 0.49246 0.6762 0.0
C283 C 0.61193 0.49824 0.68746 0.0
C284 C 0.58883 0.47009 0.70767 0.0
C285 C 0.55202 0.46069 0.69901 0.0
C286 C 0.5385 0.48055 0.66898 0.0
C287 C 0.5617 0.50954 0.64788 0.0
C288 C 0.59891 0.51835 0.65743 0.0
H289 H 0.95736 0.54684 0.36403 0.0
H290 H 0.94518 0.66973 0.35763 0.0
H291 H 0.92667 0.66826 0.29557 0.0
H292 H 1.00187 0.54832 0.28947 0.0
H293 H 0.98138 0.5021 0.27637 0.0
H294 H 0.98196 0.51021 0.32185 0.0
H295 H 0.9108 0.49307 0.32555 0.0
H296 H 0.91014 0.48528 0.27959 0.0
H297 H 0.88212 0.51927 0.2959 0.0
H298 H 0.92611 0.65778 0.23239 0.0
H299 H 0.94722 0.6402 0.17509 0.0
H300 H 0.95746 0.52368 0.22155 0.0
C301 C 0.94909 0.57284 0.34979 0.0
C302 C 0.95206 0.60822 0.36514 0.0
C303 C 0.94242 0.64226 0.34602 0.0
C304 C 0.93166 0.64157 0.31091 0.0
C305 C 0.93029 0.60644 0.29568 0.0
C306 C 0.9383 0.57248 0.31475 0.0
C307 C 0.94122 0.54039 0.29116 0.0
C308 C 0.97883 0.5244 0.29492 0.0
C309 C 0.90915 0.50756 0.29849 0.0
C310 C 0.93742 0.56263 0.25559 0.0
C311 C 0.92961 0.60025 0.25868 0.0
C312 C 0.9309 0.62805 0.22953 0.0
C313 C 0.94267 0.61787 0.19699 0.0
C314 C 0.95343 0.58052 0.19424 0.0
C315 C 0.94841 0.55205 0.22324 0.0
H316 H 0.26807 0.16724 0.14018 0.0
H317 H 0.30943 0.17694 0.24548 0.0
H318 H 0.36792 0.15532 0.22778 0.0
H319 H 0.30972 0.07991 0.12553 0.0
H320 H 0.32173 0.09419 0.07996 0.0
H321 H 0.28294 0.11219 0.09959 0.0
H322 H 0.31127 0.18311 0.08084 0.0
H323 H 0.35008 0.16531 0.06104 0.0
H324 H 0.35755 0.19941 0.09373 0.0
H325 H 0.42193 0.13176 0.20038 0.0
H326 H 0.4687 0.10749 0.16505 0.0
H327 H 0.39614 0.10969 0.07538 0.0
C328 C 0.28965 0.16524 0.15933 0.0
C329 C 0.28362 0.17405 0.19456 0.0
C330 C 0.31278 0.17042 0.2186 0.0
C331 C 0.34637 0.15811 0.20872 0.0
C332 C 0.35124 0.1491 0.17437 0.0
C333 C 0.32386 0.15245 0.14985 0.0
C334 C 0.33685 0.13978 0.11485 0.0
C335 C 0.31128 0.10442 0.10436 0.0
C336 C 0.33906 0.17394 0.08589 0.0
C337 C 0.37549 0.12869 0.12377 0.0
C338 C 0.38291 0.13467 0.15835 0.0
C339 C 0.41635 0.12704 0.17327 0.0
C340 C 0.443 0.11313 0.15268 0.0
C341 C 0.43687 0.10632 0.117 0.0
C342 C 0.40216 0.11428 0.10245 0.0
H343 H 0.36967 0.97681 0.67333 0.0
H344 H 0.41057 0.99494 0.56581 0.0
H345 H 0.3504 0.01487 0.54607 0.0
H346 H 0.27954 0.93563 0.65472 0.0
H347 H 0.25696 0.95839 0.68787 0.0
H348 H 0.30389 0.94831 0.69368 0.0
H349 H 0.32434 0.02111 0.7015 0.0
H350 H 0.27738 0.03139 0.69592 0.0
H351 H 0.31363 0.05821 0.66809 0.0
H352 H 0.28478 0.02871 0.53801 0.0
H353 H 0.21894 0.03811 0.54218 0.0
H354 H 0.22102 0.01079 0.65518 0.0
C355 C 0.36595 0.98571 0.64576 0.0
C356 C 0.39434 0.98498 0.62093 0.0
C357 C 0.38888 0.99592 0.58502 0.0
C358 C 0.35491 1.00714 0.57367 0.0
C359 C 0.32703 1.0072 0.59872 0.0
C360 C 0.33226 0.99703 0.63405 0.0
C361 C 0.29749 0.99824 0.65541 0.0
C362 C 0.28366 0.95773 0.674 0.0
C363 C 0.30359 0.02908 0.68178 0.0
C364 C 0.27176 0.01022 0.62655 0.0
C365 C 0.28931 0.01525 0.59406 0.0
C366 C 0.2708 0.02509 0.56333 0.0
C367 C 0.23336 0.03007 0.56593 0.0
C368 C 0.21489 0.02525 0.59901 0.0
C369 C 0.23452 0.01527 0.62962 0.0
H370 H 0.79676 0.47662 0.91303 0.0
H371 H 0.77463 0.37198 0.98605 0.0
H372 H 0.82712 0.39544 0.02134 0.0
H373 H 0.89523 0.47587 0.91345 0.0
H374 H 0.90499 0.52832 0.90898 0.0
H375 H 0.86337 0.50525 0.89106 0.0
H376 H 0.8245 0.54585 0.92699 0.0
H377 H 0.866 0.56893 0.94513 0.0
H378 H 0.82964 0.54406 0.97395 0.0
H379 H 0.88138 0.43121 0.04995 0.0
H380 H 0.93775 0.47289 0.06551 0.0
H381 H 0.92983 0.5484 0.96944 0.0
C382 C 0.80289 0.45813 0.93613 0.0
C383 C 0.78057 0.42253 0.94671 0.0
C384 C 0.79001 0.39999 0.97765 0.0
C385 C 0.82018 0.41287 0.99786 0.0
C386 C 0.84139 0.44792 0.9865 0.0
C387 C 0.83357 0.46987 0.95602 0.0
C388 C 0.86217 0.50519 0.94836 0.0
C389 C 0.88266 0.50354 0.91339 0.0
C390 C 0.84451 0.54325 0.94863 0.0
C391 C 0.88728 0.49964 0.97935 0.0
C392 C 0.87439 0.46685 1.00143 0.0
C393 C 0.89199 0.45668 0.03265 0.0
C394 C 0.92382 0.48049 0.04133 0.0
C395 C 0.9381 0.51336 0.01842 0.0
C396 C 0.91963 0.523 0.98707 0.0
H397 H 0.86416 0.693 0.48322 0.0
H398 H 0.88696 0.57651 0.52085 0.0
H399 H 0.82128 0.55884 0.53881 0.0
H400 H 0.79774 0.70472 0.54971 0.0
H401 H 0.76854 0.72981 0.51975 0.0
H402 H 0.81737 0.73336 0.51078 0.0
H403 H 0.80428 0.70837 0.44981 0.0
H404 H 0.75541 0.70484 0.45856 0.0
H405 H 0.77559 0.66272 0.44707 0.0
H406 H 0.75371 0.55482 0.55374 0.0
H407 H 0.68834 0.56277 0.56153 0.0
H408 H 0.70918 0.68101 0.5104 0.0
C409 C 0.85524 0.66389 0.49548 0.0
C410 C 0.88035 0.6361 0.50107 0.0
C411 C 0.86788 0.59806 0.5165 0.0
C412 C 0.83079 0.58788 0.52681 0.0
C413 C 0.80665 0.616 0.52101 0.0
C414 C 0.81828 0.65309 0.50538 0.0
C415 C 0.78654 0.67737 0.50087 0.0
C416 C 0.79294 0.71344 0.52152 0.0
C417 C 0.78008 0.68899 0.46176 0.0
C418 C 0.7553 0.64832 0.51686 0.0
C419 C 0.7675 0.61319 0.52843 0.0
C420 C 0.74375 0.58208 0.54447 0.0
C421 C 0.70646 0.5869 0.54856 0.0
C422 C 0.69306 0.62249 0.53633 0.0
C423 C 0.71815 0.65352 0.52037 0.0
H424 H 0.13698 0.34718 0.19339 0.0
H425 H 0.18467 0.30179 0.10437 0.0
H426 H 0.15993 0.35296 0.06432 0.0
H427 H 0.05282 0.3727 0.15077 0.0
H428 H 0.05188 0.41648 0.17244 0.0
H429 H 0.0727 0.376 0.19359 0.0
H430 H 0.13343 0.42137 0.19999 0.0
H431 H 0.1128 0.46194 0.17879 0.0
H432 H 0.15524 0.44903 0.16153 0.0
H433 H 0.13043 0.41189 0.0337 0.0
H434 H 0.09908 0.47005 1.01604 0.0
H435 H 0.0698 0.47709 0.12504 0.0
C436 C 0.14194 0.34781 0.16539 0.0
C437 C 0.16263 0.32004 0.15204 0.0
C438 C 0.16877 0.32233 0.11528 0.0
C439 C 0.1548 0.3515 0.09233 0.0
C440 C 0.13462 0.37856 0.10632 0.0
C441 C 0.12814 0.37681 0.14212 0.0
C442 C 0.10602 0.40951 0.15065 0.0
C443 C 0.06863 0.39266 0.16788 0.0
C444 C 0.1282 0.43709 0.17413 0.0
C445 C 0.10093 0.43004 0.1142 0.0
C446 C 0.11772 0.41183 0.08893 0.0
C447 C 0.11716 0.42605 0.05344 0.0
C448 C 0.09918 0.45933 0.04358 0.0
C449 C 0.08153 0.47859 0.06887 0.0
C450 C 0.08262 0.46329 0.10475 0.0
H451 H 0.69797 0.31026 0.97308 0.0
H452 H 0.61388 0.35636 0.90682 0.0
H453 H 0.56792 0.30304 0.93271 0.0
H454 H 0.66849 0.21097 0.96905 0.0
H455 H 0.67839 0.19639 1.01418 0.0
H456 H 0.70426 0.23897 0.99146 0.0
H457 H 0.68621 0.28083 0.03992 0.0
H458 H 0.66032 0.2383 0.06288 0.0
H459 H 0.63817 0.28128 0.05082 0.0
H460 H 0.53235 0.24193 0.96274 0.0
H461 H 0.5093 0.17899 0.99592 0.0
H462 H 0.61545 0.17556 0.04577 0.0
C463 C 0.66974 0.30993 0.96448 0.0
C464 C 0.6597 0.33788 0.93785 0.0
C465 C 0.62253 0.33524 0.92682 0.0
C466 C 0.59612 0.30519 0.9416 0.0
C467 C 0.60713 0.2782 0.96766 0.0
C468 C 0.643 0.28051 0.97923 0.0
C469 C 0.64803 0.24732 1.00694 0.0
C470 C 0.67647 0.22192 0.99466 0.0
C471 C 0.65882 0.26287 0.04223 0.0
C472 C 0.60947 0.22547 1.0088 0.0
C473 C 0.58632 0.24377 0.98587 0.0
C474 C 0.55007 0.22773 0.98115 0.0
C475 C 0.53726 0.19195 1.00006 0.0
C476 C 0.56048 0.17271 0.0237 0.0
C477 C 0.59688 0.19006 0.02847 0.0
H478 H 0.95062 0.76077 0.4857 0.0
H479 H 0.04712 0.70501 0.51668 0.0
H480 H 0.07912 0.76887 0.53076 0.0
H481 H 0.99926 0.8491 0.44439 0.0
H482 H 0.96628 0.8792 0.45881 0.0
H483 H 0.95162 0.82915 0.45175 0.0
H484 H 0.92532 0.81595 0.5155 0.0
H485 H 0.93971 0.866 0.52265 0.0
H486 H 0.95494 0.82719 0.55164 0.0
H487 H 0.09912 0.84003 0.54332 0.0
H488 H 0.10555 0.91089 0.55092 0.0
H489 H 0.99591 0.91719 0.50902 0.0
C490 C 0.97836 0.76188 0.4958 0.0
C491 C 0.99631 0.72806 0.50061 0.0
C492 C 0.03294 0.73077 0.51299 0.0
C493 C 0.05123 0.7668 0.52105 0.0
C494 C 0.03255 0.79968 0.51612 0.0
C495 C 0.99696 0.79738 0.50356 0.0
C496 C 0.98277 0.83659 0.49998 0.0
C497 C 0.97452 0.84924 0.46144 0.0
C498 C 0.94868 0.83641 0.52388 0.0
C499 C 1.01577 0.86149 0.51273 0.0
C500 C 0.04428 0.83997 0.52212 0.0
C501 C 0.07704 0.85716 0.53576 0.0
C502 C 0.08048 0.89733 0.53999 0.0
C503 C 0.0514 0.91959 0.53031 0.0
C504 C 0.01891 0.90122 0.51632 0.0
H505 H 0.51475 0.83082 0.65693 0.0
H506 H 0.41678 0.79337 0.72178 0.0
H507 H 0.41782 0.72573 0.70664 0.0
H508 H 0.49007 0.77421 0.58834 0.0
H509 H 0.53597 0.76291 0.57962 0.0
H510 H 0.52969 0.8073 0.59842 0.0
H511 H 0.57064 0.78798 0.6509 0.0
H512 H 0.57733 0.74363 0.63206 0.0
H513 H 0.55938 0.74146 0.67629 0.0
H514 H 0.42581 0.66387 0.67892 0.0
H515 H 0.44308 0.61167 0.6445 0.0
H516 H 0.53647 0.69017 0.59921 0.0
C517 C 0.49385 0.80823 0.66833 0.0
C518 C 0.46572 0.81715 0.69053 0.0
C519 C 0.43883 0.78693 0.70504 0.0
C520 C 0.4391 0.74854 0.69646 0.0
C521 C 0.46669 0.74092 0.6737 0.0
C522 C 0.49388 0.76985 0.66026 0.0
C523 C 0.51961 0.75452 0.63532 0.0
C524 C 0.51875 0.77601 0.59824 0.0
C525 C 0.55907 0.75704 0.6495 0.0
C526 C 0.50217 0.71268 0.63615 0.0
C527 C 0.47169 0.70528 0.65841 0.0
C528 C 0.44997 0.66915 0.66183 0.0
C529 C 0.45985 0.63978 0.64209 0.0
C530 C 0.49124 0.64682 0.61944 0.0
C531 C 0.51261 0.68372 0.61667 0.0
H532 H 0.96152 0.92813 0.81184 0.0
H533 H 0.84799 0.90574 0.779 0.0
H534 H 0.86707 0.9281 0.71795 0.0
H535 H 0.98582 0.01553 0.75313 0.0
H536 H 0.03176 1.00546 0.74285 0.0
H537 H 1.01021 0.98624 0.78442 0.0
H538 H 0.02047 0.91639 0.77182 0.0
H539 H 0.04225 0.93546 0.7303 0.0
H540 H 1.00343 0.89793 0.73175 0.0
H541 H 0.89696 0.95556 0.66017 0.0
H542 H 0.93618 0.98334 0.60923 0.0
H543 H 0.0323 0.98857 0.67575 0.0
C544 C 0.94078 0.92742 0.79172 0.0
C545 C 0.90287 0.91518 0.80091 0.0
C546 C 0.87694 0.91525 0.77332 0.0
C547 C 0.88758 0.9279 0.73827 0.0
C548 C 0.92463 0.94059 0.73025 0.0
C549 C 0.95104 0.94022 0.75602 0.0
C550 C 0.98899 0.95604 0.73962 0.0
C551 C 1.00515 0.99301 0.75599 0.0
C552 C 1.01535 0.92458 0.74362 0.0
C553 C 0.97958 0.96552 0.70093 0.0
C554 C 0.94216 0.95626 0.69638 0.0
C555 C 0.92634 0.96269 0.66349 0.0
C556 C 0.94903 0.97869 0.63449 0.0
C557 C 0.98768 0.9884 0.63779 0.0
C558 C 1.003 0.98157 0.67187 0.0
H559 H 0.64873 0.14945 0.36902 0.0
H560 H 0.67511 0.27021 0.32613 0.0
H561 H 0.64681 0.25397 0.27011 0.0
H562 H 0.67542 0.10996 0.29463 0.0
H563 H 0.64031 0.06849 0.29871 0.0
H564 H 0.65633 0.09082 0.33723 0.0
H565 H 0.58932 0.10118 0.35317 0.0
H566 H 0.57299 0.07858 0.31476 0.0
H567 H 0.56243 0.12684 0.32135 0.0
H568 H 0.62146 0.2229 0.21664 0.0
H569 H 0.60272 0.17944 0.17046 0.0
H570 H 0.59704 0.07904 0.2479 0.0
C571 C 0.64829 0.17267 0.34804 0.0
C572 C 0.66417 0.21115 0.35211 0.0
C573 C 0.66258 0.24064 0.32398 0.0
C574 C 0.64671 0.23166 0.29195 0.0
C575 C 0.63256 0.19309 0.28849 0.0
C576 C 0.63315 0.16412 0.31587 0.0
C577 C 0.6196 0.12435 0.30462 0.0
C578 C 0.64971 0.09681 0.30905 0.0
C579 C 0.58396 0.10671 0.32467 0.0
C580 C 0.61227 0.13526 0.26633 0.0
C581 C 0.61921 0.17509 0.25759 0.0
C582 C 0.61557 0.19172 0.2233 0.0
C583 C 0.60489 0.16691 0.19728 0.0
C584 C 0.59862 0.12597 0.20568 0.0
C585 C 0.60197 0.11019 0.24073 0.0
H586 H 0.3462 0.64308 0.35996 0.0
H587 H 0.4286 0.73021 0.30783 0.0
H588 H 0.47319 0.71532 0.35465 0.0
H589 H 0.3695 0.66143 0.44871 0.0
H590 H 0.36128 0.61077 0.46567 0.0
H591 H 0.33633 0.62839 0.42812 0.0
H592 H 0.35924 0.57601 0.39224 0.0
H593 H 0.38421 0.55824 0.42972 0.0
H594 H 0.40807 0.5732 0.38837 0.0
H595 H 0.5084 0.69043 0.40746 0.0
H596 H 0.53188 0.65776 0.46154 0.0
H597 H 0.42588 0.58678 0.47909 0.0
C598 C 0.37368 0.65895 0.35855 0.0
C599 C 0.3843 0.68774 0.33062 0.0
C600 C 0.42025 0.70806 0.32924 0.0
C601 C 0.44562 0.69977 0.35566 0.0
C602 C 0.43436 0.67113 0.38307 0.0
C603 C 0.39922 0.65102 0.38466 0.0
C604 C 0.39397 0.62158 0.41677 0.0
C605 C 0.36346 0.63113 0.44126 0.0
C606 C 0.38591 0.57979 0.40612 0.0
C607 C 0.43161 0.62824 0.43312 0.0
C608 C 0.45452 0.6569 0.41331 0.0
C609 C 0.49067 0.66797 0.42315 0.0
C610 C 0.50375 0.64922 0.45396 0.0
C611 C 0.48076 0.61968 0.47465 0.0
C612 C 0.44418 0.60925 0.46395 0.0
H613 H 0.09271 0.50191 0.7325 0.0
H614 H 0.09775 0.38557 0.78274 0.0
H615 H 0.11777 0.41309 0.83786 0.0
H616 H 0.17078 0.5538 0.7858 0.0
H617 H 0.14568 0.59539 0.78684 0.0
H618 H 0.14274 0.56773 0.74915 0.0
H619 H 0.07143 0.55734 0.75585 0.0
H620 H 0.07418 0.58477 0.7933 0.0
H621 H 0.0507 0.53573 0.79715 0.0
H622 H 0.12183 0.45085 0.88946 0.0
H623 H 0.10705 0.49448 0.9331 0.0
H624 H 0.10167 0.58771 0.85 0.0
C625 C 0.09963 0.48261 0.75482 0.0
C626 C 0.09428 0.44197 0.75385 0.0
C627 C 0.10228 0.41695 0.78334 0.0
C628 C 0.11388 0.43236 0.81455 0.0
C629 C 0.11767 0.47278 0.81539 0.0
C630 C 0.11121 0.49765 0.7861 0.0
C631 C 0.11118 0.53911 0.79524 0.0
C632 C 0.14459 0.56556 0.77825 0.0
C633 C 0.07471 0.55511 0.7848 0.0
C634 C 0.115 0.53302 0.83468 0.0
C635 C 0.12012 0.4949 0.84568 0.0
C636 C 0.11901 0.48106 0.88117 0.0
C637 C 0.11065 0.50616 0.90588 0.0
C638 C 0.10303 0.54452 0.89488 0.0
C639 C 0.10738 0.55855 0.85906 0.0
H640 H 0.71551 0.94996 0.90313 0.0
H641 H 0.79234 0.94079 0.98856 0.0
H642 H 0.74816 0.96596 0.02766 0.0
H643 H 0.68292 0.03925 0.92381 0.0
H644 H 0.63568 0.0255 0.91222 0.0
H645 H 0.67244 1.00546 0.89125 0.0
H646 H 0.64153 0.9356 0.91063 0.0
H647 H 0.60459 0.95544 0.93153 0.0
H648 H 0.63057 0.92157 0.95644 0.0
H649 H 0.69616 0.9946 0.05718 0.0
H650 H 0.64108 0.02209 0.07568 0.0
H651 H 0.59522 0.01316 0.97186 0.0
C652 C 0.72278 0.95276 0.93026 0.0
C653 C 0.75748 0.94279 0.94286 0.0
C654 C 0.76602 0.94762 0.97832 0.0
C655 C 0.74099 0.9621 1.0007 0.0
C656 C 0.70719 0.97187 0.98747 0.0
C657 C 0.69792 0.9672 0.95305 0.0
C658 C 0.65992 0.98046 0.94539 0.0
C659 C 0.66293 0.0147 0.91645 0.0
C660 C 0.63253 0.94623 0.9354 0.0
C661 C 0.64924 0.99352 0.98076 0.0
C662 C 0.67711 0.98827 1.00453 0.0
C663 C 0.67427 0.99858 0.0387 0.0
C664 C 0.64253 0.01441 0.04897 0.0
C665 C 0.61307 0.02017 0.02554 0.0
C666 C 0.61679 0.0093 0.99074 0.0
H667 H 0.77535 0.15925 0.39558 0.0
H668 H 0.73432 0.17618 0.49892 0.0
H669 H 0.77595 0.13099 0.52602 0.0
H670 H 0.7884 0.05525 0.41461 0.0
H671 H 0.8301 0.0608 0.38824 0.0
H672 H 0.79423 0.09104 0.37695 0.0
H673 H 0.84127 0.153 0.37911 0.0
H674 H 0.87719 0.12302 0.39037 0.0
H675 H 0.86746 0.1596 0.41837 0.0
H676 H 0.8255 0.08868 0.54185 0.0
H677 H 0.88044 0.05333 0.54536 0.0
H678 H 0.88896 0.06458 0.43161 0.0
C679 C 0.77451 0.15267 0.42385 0.0
C680 C 0.75159 0.17092 0.44522 0.0
C681 C 0.75188 0.16251 0.48217 0.0
C682 C 0.77518 0.13672 0.49774 0.0
C683 C 0.79783 0.11957 0.47593 0.0
C684 C 0.79764 0.12715 0.43978 0.0
C685 C 0.82665 0.1074 0.42241 0.0
C686 C 0.80877 0.0768 0.39919 0.0
C687 C 0.8548 0.13755 0.40134 0.0
C688 C 0.84381 0.08832 0.45448 0.0
C689 C 0.82654 0.09531 0.48507 0.0
C690 C 0.839 0.08264 0.51807 0.0
C691 C 0.87032 0.06284 0.51981 0.0
C692 C 0.88887 0.05612 0.48877 0.0
C693 C 0.87492 0.06848 0.45576 0.0
H694 H 0.2552 0.65508 0.18894 0.0
H695 H 0.28892 0.76519 0.12628 0.0
H696 H 0.24044 0.74892 0.08407 0.0
H697 H 0.22828 0.59663 0.11945 0.0
H698 H 0.1881 0.57088 0.14253 0.0
H699 H 0.22741 0.58953 0.16678 0.0
H700 H 0.18581 0.62816 0.20189 0.0
H701 H 0.14634 0.60932 0.17799 0.0
H702 H 0.15785 0.66126 0.17854 0.0
H703 H 0.18894 0.71946 0.04702 0.0
H704 H 0.13291 0.68343 0.02347 0.0
H705 H 0.12835 0.59791 0.11426 0.0
C706 C 0.25238 0.67617 0.16667 0.0
C707 C 0.27695 0.71108 0.16088 0.0
C708 C 0.27178 0.73746 0.13097 0.0
C709 C 0.24397 0.72869 0.10682 0.0
C710 C 0.22075 0.69385 0.11317 0.0
C711 C 0.22414 0.66843 0.14277 0.0
C712 C 0.19406 0.63418 0.14474 0.0
C713 C 0.21046 0.59553 0.14328 0.0
C714 C 0.16956 0.6332 0.17774 0.0
C715 C 0.17331 0.64436 0.11162 0.0
C716 C 0.18952 0.67846 0.09333 0.0
C717 C 0.17579 0.69291 0.06129 0.0
C718 C 0.14419 0.67229 0.04802 0.0
C719 C 0.12645 0.63832 0.06728 0.0
C720 C 0.14136 0.62414 0.09928 0.0
H721 H 0.1889 0.42403 0.65973 0.0
H722 H 0.14661 0.47246 0.56165 0.0
H723 H 0.20961 0.50363 0.54395 0.0
H724 H 0.26241 0.50461 0.6724 0.0
H725 H 0.29397 0.47129 0.68895 0.0
H726 H 0.24498 0.45847 0.69595 0.0
H727 H 0.24839 0.39451 0.66678 0.0
H728 H 0.29723 0.40718 0.65955 0.0
H729 H 0.26776 0.39702 0.62305 0.0
H730 H 0.27806 0.52562 0.53572 0.0
H731 H 0.34652 0.53157 0.53532 0.0
H732 H 0.34328 0.46464 0.63708 0.0
C733 C 0.19288 0.44215 0.63499 0.0
C734 C 0.1632 0.44671 0.61224 0.0
C735 C 0.16925 0.46927 0.57948 0.0
C736 C 0.20478 0.48709 0.56935 0.0
C737 C 0.23376 0.48158 0.59222 0.0
C738 C 0.22815 0.45941 0.62428 0.0
C739 C 0.26419 0.4541 0.6423 0.0
C740 C 0.26652 0.47327 0.67695 0.0
C741 C 0.2697 0.41063 0.64824 0.0
C742 C 0.29106 0.47593 0.61506 0.0
C743 C 0.27307 0.49238 0.58671 0.0
C744 C 0.29242 0.51308 0.55789 0.0
C745 C 0.33114 0.51641 0.55787 0.0
C746 C 0.34978 0.49838 0.5861 0.0
C747 C 0.32947 0.47845 0.61516 0.0
H748 H 0.92549 0.80256 0.88201 0.0
H749 H 0.88382 0.85613 0.96982 0.0
H750 H 0.90681 0.80573 1.01078 0.0
H751 H 0.90639 0.70254 0.91877 0.0
H752 H 0.94818 0.68782 0.90182 0.0
H753 H 0.92776 0.72763 0.879 0.0
H754 H 0.98919 0.77269 0.88247 0.0
H755 H 1.00981 0.73295 0.90521 0.0
H756 H 1.01 0.77833 0.9246 0.0
H757 H 0.93433 0.74716 0.04364 0.0
H758 H 0.96515 0.68925 0.06379 0.0
H759 H 0.99235 0.67542 0.9556 0.0
C760 C 0.92138 0.80431 0.9098 0.0
C761 C 0.902 0.83412 0.92192 0.0
C762 C 0.8974 0.83381 0.95896 0.0
C763 C 0.91079 0.80517 0.98279 0.0
C764 C 0.92941 0.77642 0.96988 0.0
C765 C 0.93494 0.77598 0.93416 0.0
C766 C 0.95635 0.74216 0.9271 0.0
C767 C 0.93329 0.71333 0.90538 0.0
C768 C 0.99354 0.75745 0.90876 0.0
C769 C 0.96194 0.72362 0.9643 0.0
C770 C 0.946 0.74371 0.98865 0.0
C771 C 0.94701 0.73153 0.02461 0.0
C772 C 0.96466 0.69837 0.03593 0.0
C773 C 0.98167 0.67733 1.01164 0.0
C774 C 0.98006 0.6906 0.97521 0.0
H775 H 0.39816 0.82107 0.22022 0.0
H776 H 0.4117 0.74672 0.13744 0.0
H777 H 0.45288 0.79983 0.10486 0.0
H778 H 0.39026 0.90366 0.16829 0.0
H779 H 0.41602 0.9378 0.19434 0.0
H780 H 0.39393 0.89214 0.21503 0.0
H781 H 0.45619 0.87516 0.24059 0.0
H782 H 0.4785 0.92126 0.22057 0.0
H783 H 0.49553 0.87647 0.21162 0.0
H784 H 0.4801 0.86366 0.07579 0.0
H785 H 0.50003 0.93279 0.0554 0.0
H786 H 0.47341 0.96617 0.15797 0.0
C787 C 0.41127 0.81547 0.19607 0.0
C788 C 0.40193 0.77982 0.18134 0.0
C789 C 0.41861 0.77384 0.14912 0.0
C790 C 0.44202 0.80382 0.13046 0.0
C791 C 0.44903 0.83941 0.14467 0.0
C792 C 0.43499 0.84516 0.17716 0.0
C793 C 0.44423 0.88732 0.18488 0.0
C794 C 0.40901 0.90632 0.19098 0.0
C795 C 0.47016 0.89022 0.21628 0.0
C796 C 0.46387 0.90469 0.15093 0.0
C797 C 0.4664 0.87642 0.12817 0.0
C798 C 0.47939 0.88586 0.09372 0.0
C799 C 0.4903 0.92516 0.08228 0.0
C800 C 0.48863 0.95443 0.10532 0.0
C801 C 0.47573 0.94405 0.1402 0.0
H802 H 0.12133 0.31472 0.6023 0.0
H803 H 1.01097 0.34694 0.58761 0.0
H804 H 0.99014 0.28139 0.56911 0.0
H805 H 0.12174 0.25068 0.53024 0.0
H806 H 0.14682 0.21656 0.55593 0.0
H807 H 0.15375 0.26758 0.56277 0.0
H808 H 0.13758 0.24969 0.62885 0.0
H809 H 0.12993 0.19874 0.62215 0.0
H810 H 0.09397 0.22154 0.64152 0.0
H811 H 0.98079 0.21108 0.55648 0.0
H812 H 0.98324 0.14112 0.55061 0.0
H813 H 0.09925 0.15453 0.57719 0.0
C814 C 0.09312 0.30837 0.59395 0.0
C815 C 0.06782 0.33586 0.59552 0.0
C816 C 0.03073 0.32622 0.58594 0.0
C817 C 0.01874 0.28918 0.57551 0.0
C818 C 0.0442 0.26227 0.57519 0.0
C819 C 0.08064 0.27146 0.58407 0.0
C820 C 0.1017 0.23642 0.58467 0.0
C821 C 0.13284 0.24322 0.55673 0.0
C822 C 0.11666 0.226 0.62149 0.0
C823 C 0.07128 0.20585 0.57528 0.0
C824 C 0.03845 0.2214 0.56948 0.0
C825 C 1.00638 0.19862 0.56078 0.0
C826 C 1.00803 0.15895 0.55762 0.0
C827 C 0.0414 0.14246 0.56365 0.0
C828 C 0.0733 0.16628 0.57272 0.0
H829 H 0.69271 0.39993 0.4479 0.0
H830 H 0.60734 0.30374 0.43832 0.0
H831 H 0.55965 0.34548 0.45239 0.0
H832 H 0.6568 0.43192 0.52089 0.0
H833 H 0.66946 0.48334 0.50881 0.0
H834 H 0.6958 0.44848 0.49191 0.0
H835 H 0.68458 0.47685 0.42819 0.0
H836 H 0.65842 0.51214 0.445 0.0
H837 H 0.63804 0.48045 0.41382 0.0
H838 H 0.52302 0.39445 0.47613 0.0
H839 H 0.49991 0.44735 0.50568 0.0
H840 H 0.60983 0.51143 0.49898 0.0
C841 C 0.66382 0.3883 0.44757 0.0
C842 C 0.65316 0.34925 0.44156 0.0
C843 C 0.61553 0.33405 0.44235 0.0
C844 C 0.58843 0.35748 0.4503 0.0
C845 C 0.59977 0.39586 0.45713 0.0
C846 C 0.63659 0.4113 0.45543 0.0
C847 C 0.642 0.45195 0.46718 0.0
C848 C 0.6675 0.454 0.49909 0.0
C849 C 0.65661 0.48213 0.43672 0.0
C850 C 0.60272 0.45642 0.47707 0.0
C851 C 0.57866 0.42403 0.47075 0.0
C852 C 0.54145 0.42031 0.48053 0.0
C853 C 0.52862 0.45039 0.49743 0.0
C854 C 0.55303 0.48356 0.50442 0.0
C855 C 0.59036 0.48671 0.49355 0.0
loop_
_geom_bond_atom_site_label_1
_geom_bond_atom_site_label_2
_geom_bond_distance
_geom_bond_site_symmetry_2
_ccdc_geom_bond_type
H0 C3 0.929 . S
H1 C6 0.929 . S
H2 C8 0.930 . S
C3 H0 0.929 . S
C3 C4 1.398 . S
C3 C5 1.396 . S
C4 C3 1.398 . S
C4 C8 1.407 . S
C5 C3 1.396 . S
C5 C6 1.394 . S
C6 H1 0.929 . S
C6 C5 1.394 . S
C6 C7 1.382 . S
C7 C6 1.382 . S
C7 C8 1.392 . S
C7 N9 1.420 . S
C8 H2 0.930 . S
C8 C4 1.407 . S
C8 C7 1.392 . S
N9 C7 1.420 . S
N9 C10 1.244 . S
C10 N9 1.244 . S
H11 C14 0.929 . S
H12 C17 0.929 . S
H13 C19 0.930 . S
C14 H11 0.929 . S
C14 C15 1.398 . S
C14 C16 1.396 . S
C15 C14 1.398 . S
C15 C19 1.407 . S
C16 C14 1.396 . S
C16 C17 1.394 . S
C17 H12 0.929 . S
C17 C16 1.394 . S
C17 C18 1.382 . S
C18 C17 1.382 . S
C18 C19 1.392 . S
C18 N20 1.420 . S
C19 H13 0.930 . S
C19 C15 1.407 . S
C19 C18 1.392 . S
N20 C18 1.420 . S
N20 C21 1.244 . S
C21 N20 1.244 . S
H22 C25 0.929 . S
H23 C28 0.929 . S
H24 C30 0.930 . S
C25 H22 0.929 . S
C25 C26 1.398 . S
C25 C27 1.396 . S
C26 C25 1.398 . S
C26 C30 1.407 . S
C27 C25 1.396 . S
C27 C28 1.394 . S
C28 H23 0.929 . S
C28 C27 1.394 . S
C28 C29 1.382 . S
C29 C28 1.382 . S
C29 C30 1.392 . S
C29 N31 1.420 . S
C30 H24 0.930 . S
C30 C26 1.407 . S
C30 C29 1.392 . S
N31 C29 1.420 . S
N31 C32 1.244 . S
C32 N31 1.244 . S
H33 C36 0.929 . S
H34 C39 0.929 . S
H35 C41 0.930 . S
C36 H33 0.929 . S
C36 C37 1.398 . S
C36 C38 1.396 . S
C37 C36 1.398 . S
C37 C41 1.407 . S
C38 C36 1.396 . S
C38 C39 1.394 . S
C39 H34 0.929 . S
C39 C38 1.394 . S
C39 C40 1.382 . S
C40 C39 1.382 . S
C40 C41 1.392 . S
C40 N42 1.420 . S
C41 H35 0.930 . S
C41 C37 1.407 . S
C41 C40 1.392 . S
N42 C40 1.420 . S
N42 C43 1.244 . S
C43 N42 1.244 . S
H44 C47 0.929 . S
H45 C50 0.929 . S
H46 C52 0.930 . S
C47 H44 0.929 . S
C47 C48 1.398 . S
C47 C49 1.396 . S
C48 C47 1.398 . S
C48 C52 1.407 . S
C49 C47 1.396 . S
C49 C50 1.394 . S
C50 H45 0.929 . S
C50 C49 1.394 . S
C50 C51 1.382 . S
C51 C50 1.382 . S
C51 C52 1.392 . S
C51 N53 1.420 . S
C52 H46 0.930 . S
C52 C48 1.407 . S
C52 C51 1.392 . S
N53 C51 1.420 . S
N53 C54 1.244 . S
C54 N53 1.244 . S
H55 C58 0.929 . S
H56 C61 0.929 . S
H57 C63 0.930 . S
C58 H55 0.929 . S
C58 C59 1.398 . S
C58 C60 1.396 . S
C59 C58 1.398 . S
C59 C63 1.407 . S
C60 C58 1.396 . S
C60 C61 1.394 . S
C61 H56 0.929 . S
C61 C60 1.394 . S
C61 C62 1.382 . S
C62 C61 1.382 . S
C62 C63 1.392 . S
C62 N64 1.420 . S
C63 H57 0.930 . S
C63 C59 1.407 . S
C63 C62 1.392 . S
N64 C62 1.420 . S
N64 C65 1.244 . S
C65 N64 1.244 . S
H66 C69 0.929 . S
H67 C72 0.929 . S
H68 C74 0.930 . S
C69 H66 0.929 . S
C69 C70 1.398 . S
C69 C71 1.396 . S
C70 C69 1.398 . S
C70 C74 1.407 . S
C71 C69 1.396 . S
C71 C72 1.394 . S
C72 H67 0.929 . S
C72 C71 1.394 . S
C72 C73 1.382 . S
C73 C72 1.382 . S
C73 C74 1.392 . S
C73 N75 1.420 . S
C74 H68 0.930 . S
C74 C70 1.407 . S
C74 C73 1.392 . S
N75 C73 1.420 . S
N75 C76 1.244 . S
C76 N75 1.244 . S
H77 C80 0.929 . S
H78 C83 0.929 . S
H79 C85 0.930 . S
C80 H77 0.929 . S
C80 C81 1.398 . S
C80 C82 1.396 . S
C81 C80 1.398 . S
C81 C85 1.407 . S
C82 C80 1.396 . S
C82 C83 1.394 . S
C83 H78 0.929 . S
C83 C82 1.394 . S
C83 C84 1.382 . S
C84 C83 1.382 . S
C84 C85 1.392 . S
C84 N86 1.420 . S
C85 H79 0.930 . S
C85 C81 1.407 . S
C85 C84 1.392 . S
N86 C84 1.420 . S
N86 C87 1.244 . S
C87 N86 1.244 . S
Co88 N93 2.057 . S
Co88 O105 2.021 . S
Co88 O108 2.062 . S
Co88 O112 2.117 1_545 S
Co88 O113 2.020 . S
C89 O109 1.259 1_655 S
C89 O112 1.258 . S
Co90 N99 2.057 . S
Co90 O106 2.117 . S
Co90 O107 2.020 . S
Co90 O109 2.021 1_545 S
Co90 O114 2.062 . S
C91 N93 1.316 . S
C91 N94 1.347 . S
C91 H96 0.931 . S
C92 N93 1.375 . S
C92 C95 1.350 . S
C92 H97 0.930 1_545 S
N93 Co88 2.057 . S
N93 C91 1.316 . S
N93 C92 1.375 . S
N94 C91 1.347 . S
N94 C95 1.373 . S
C95 C92 1.350 . S
C95 N94 1.373 . S
C95 H116 0.931 . S
H96 C91 0.931 . S
H97 C92 0.930 1_565 S
C98 O105 1.259 1_455 S
C98 O106 1.258 . S
N99 Co90 2.057 . S
N99 C100 1.316 1_545 S
N99 C101 1.375 . S
C100 N99 1.316 1_565 S
C100 N102 1.347 1_565 S
C100 H111 0.931 . S
C101 N99 1.375 . S
C101 C103 1.350 . S
C101 H110 0.930 . S
N102 C100 1.347 1_545 S
N102 C103 1.373 . S
C103 C101 1.350 . S
C103 N102 1.373 . S
C103 H117 0.931 . S
C104 O107 1.256 . S
C104 O108 1.255 1_455 S
O105 Co88 2.021 . S
O105 C98 1.259 1_655 S
O106 Co90 2.117 . S
O106 C98 1.258 . S
O107 Co90 2.020 . S
O107 C104 1.256 . S
O108 Co88 2.062 . S
O108 C104 1.255 1_655 S
O109 C89 1.259 1_455 S
O109 Co90 2.021 1_565 S
H110 C101 0.930 . S
H111 C100 0.931 . S
O112 Co88 2.117 1_565 S
O112 C89 1.258 . S
O113 Co88 2.020 . S
O113 C115 1.256 . S
O114 Co90 2.062 . S
O114 C115 1.255 1_455 S
C115 O113 1.256 . S
C115 O114 1.255 1_655 S
H116 C95 0.931 . S
H117 C103 0.931 . S
Co118 N123 2.057 1_554 S
Co118 O135 2.021 1_554 S
Co118 O138 2.062 . S
Co118 O142 2.117 1_545 S
Co118 O143 2.020 . S
C119 O139 1.259 . S
C119 O142 1.258 . S
Co120 N129 2.057 . S
Co120 O136 2.117 . S
Co120 O137 2.020 . S
Co120 O139 2.021 1_545 S
Co120 O144 2.062 . S
C121 N123 1.316 . S
C121 N124 1.347 1_545 S
C121 H126 0.931 . S
C122 N123 1.375 1_565 S
C122 C125 1.350 . S
C122 H127 0.930 . S
N123 Co118 2.057 1_556 S
N123 C121 1.316 . S
N123 C122 1.375 1_545 S
N124 C121 1.347 1_565 S
N124 C125 1.373 . S
C125 C122 1.350 . S
C125 N124 1.373 . S
C125 H146 0.931 . S
H126 C121 0.931 . S
H127 C122 0.930 . S
C128 O135 1.259 1_554 S
C128 O136 1.258 . S
N129 Co120 2.057 . S
N129 C130 1.316 . S
N129 C131 1.375 . S
C130 N129 1.316 . S
C130 N132 1.347 . S
C130 H141 0.931 . S
C131 N129 1.375 . S
C131 C133 1.350 . S
C131 H140 0.930 . S
N132 C130 1.347 . S
N132 C133 1.373 . S
C133 C131 1.350 . S
C133 N132 1.373 . S
C133 H147 0.931 . S
C134 O137 1.256 . S
C134 O138 1.255 . S
O135 Co118 2.021 1_556 S
O135 C128 1.259 1_556 S
O136 Co120 2.117 . S
O136 C128 1.258 . S
O137 Co120 2.020 . S
O137 C134 1.256 . S
O138 Co118 2.062 . S
O138 C134 1.255 . S
O139 C119 1.259 . S
O139 Co120 2.021 1_565 S
H140 C131 0.930 . S
H141 C130 0.931 . S
O142 Co118 2.117 1_565 S
O142 C119 1.258 . S
O143 Co118 2.020 . S
O143 C145 1.256 . S
O144 Co120 2.062 . S
O144 C145 1.255 . S
C145 O143 1.256 . S
C145 O144 1.255 . S
H146 C125 0.931 . S
H147 C133 0.931 . S
Co148 N153 2.057 . S
Co148 O165 2.021 . S
Co148 O168 2.062 . S
Co148 O172 2.117 . S
Co148 O173 2.020 . S
C149 O169 1.259 . S
C149 O172 1.258 . S
Co150 N159 2.057 . S
Co150 O166 2.117 . S
Co150 O167 2.020 . S
Co150 O169 2.021 . S
Co150 O174 2.062 . S
C151 N153 1.316 . S
C151 N154 1.347 . S
C151 H156 0.931 . S
C152 N153 1.375 . S
C152 C155 1.350 . S
C152 H157 0.930 . S
N153 Co148 2.057 . S
N153 C151 1.316 . S
N153 C152 1.375 . S
N154 C151 1.347 . S
N154 C155 1.373 . S
C155 C152 1.350 . S
C155 N154 1.373 . S
C155 H176 0.931 . S
H156 C151 0.931 . S
H157 C152 0.930 . S
C158 O165 1.259 . S
C158 O166 1.258 . S
N159 Co150 2.057 . S
N159 C160 1.316 . S
N159 C161 1.375 . S
C160 N159 1.316 . S
C160 N162 1.347 . S
C160 H171 0.931 . S
C161 N159 1.375 . S
C161 C163 1.350 . S
C161 H170 0.930 . S
N162 C160 1.347 . S
N162 C163 1.373 . S
C163 C161 1.350 . S
C163 N162 1.373 . S
C163 H177 0.931 . S
C164 O167 1.256 . S
C164 O168 1.255 . S
O165 Co148 2.021 . S
O165 C158 1.259 . S
O166 Co150 2.117 . S
O166 C158 1.258 . S
O167 Co150 2.020 . S
O167 C164 1.256 . S
O168 Co148 2.062 . S
O168 C164 1.255 . S
O169 C149 1.259 . S
O169 Co150 2.021 . S
H170 C161 0.930 . S
H171 C160 0.931 . S
O172 Co148 2.117 . S
O172 C149 1.258 . S
O173 Co148 2.020 . S
O173 C175 1.256 . S
O174 Co150 2.062 . S
O174 C175 1.255 . S
C175 O173 1.256 . S
C175 O174 1.255 . S
H176 C155 0.931 . S
H177 C163 0.931 . S
Co178 N183 2.057 . S
Co178 O195 2.021 1_556 S
Co178 O198 2.062 1_556 S
Co178 O202 2.117 1_455 S
Co178 O203 2.020 . S
C179 O199 1.259 . S
C179 O202 1.258 1_554 S
Co180 N189 2.057 . S
Co180 O196 2.117 . S
Co180 O197 2.020 . S
Co180 O199 2.021 1_455 S
Co180 O204 2.062 . S
C181 N183 1.316 . S
C181 N184 1.347 . S
C181 H186 0.931 . S
C182 N183 1.375 . S
C182 C185 1.350 . S
C182 H187 0.930 1_455 S
N183 Co178 2.057 . S
N183 C181 1.316 . S
N183 C182 1.375 . S
N184 C181 1.347 . S
N184 C185 1.373 . S
C185 C182 1.350 . S
C185 N184 1.373 . S
C185 H206 0.931 . S
H186 C181 0.931 . S
H187 C182 0.930 1_655 S
C188 O195 1.259 . S
C188 O196 1.258 . S
N189 Co180 2.057 . S
N189 C190 1.316 1_455 S
N189 C191 1.375 . S
C190 N189 1.316 1_655 S
C190 N192 1.347 . S
C190 H201 0.931 . S
C191 N189 1.375 . S
C191 C193 1.350 . S
C191 H200 0.930 . S
N192 C190 1.347 . S
N192 C193 1.373 1_655 S
C193 C191 1.350 . S
C193 N192 1.373 1_455 S
C193 H207 0.931 . S
C194 O197 1.256 . S
C194 O198 1.255 . S
O195 Co178 2.021 1_554 S
O195 C188 1.259 . S
O196 Co180 2.117 . S
O196 C188 1.258 . S
O197 Co180 2.020 . S
O197 C194 1.256 . S
O198 Co178 2.062 1_554 S
O198 C194 1.255 . S
O199 C179 1.259 . S
O199 Co180 2.021 1_655 S
H200 C191 0.930 . S
H201 C190 0.931 . S
O202 Co178 2.117 1_655 S
O202 C179 1.258 1_556 S
O203 Co178 2.020 . S
O203 C205 1.256 1_556 S
O204 Co180 2.062 . S
O204 C205 1.255 . S
C205 O203 1.256 1_554 S
C205 O204 1.255 . S
H206 C185 0.931 . S
H207 C193 0.931 . S
H208 C220 0.930 . S
H209 C222 0.930 . S
H210 C223 0.930 . S
H211 C227 0.959 . S
H212 C227 0.959 . S
H213 C227 0.961 . S
H214 C228 0.960 . S
H215 C228 0.961 . S
H216 C228 0.959 . S
H217 C231 0.929 . S
H218 C232 0.931 . S
H219 C234 0.930 . S
C220 H208 0.930 . S
C220 C221 1.399 . S
C220 C225 1.399 . S
C221 C220 1.399 . S
C221 C222 1.376 . S
C222 H209 0.930 . S
C222 C221 1.376 . S
C222 C223 1.388 . S
C223 H210 0.930 . S
C223 C222 1.388 . S
C223 C224 1.390 . S
C224 C223 1.390 . S
C224 C225 1.394 . S
C224 C230 1.465 . S
C225 C220 1.399 . S
C225 C224 1.394 . S
C225 C226 1.516 . S
C226 C225 1.516 . S
C226 C227 1.502 . S
C226 C228 1.561 . S
C226 C229 1.526 . S
C227 H211 0.959 . S
C227 H212 0.959 . S
C227 H213 0.961 . S
C227 C226 1.502 . S
C228 H214 0.960 . S
C228 H215 0.961 . S
C228 H216 0.959 . S
C228 C226 1.561 . S
C229 C226 1.526 . S
C229 C230 1.396 . S
C229 C234 1.390 . S
C230 C224 1.465 . S
C230 C229 1.396 . S
C230 C231 1.399 . S
C231 H217 0.929 . S
C231 C230 1.399 . S
C231 C232 1.385 . S
C232 H218 0.931 . S
C232 C231 1.385 . S
C232 C233 1.389 . S
C233 C232 1.389 . S
C233 C234 1.387 . S
C234 H219 0.930 . S
C234 C229 1.390 . S
C234 C233 1.387 . S
H235 C247 0.930 . S
H236 C249 0.930 . S
H237 C250 0.930 . S
H238 C254 0.959 . S
H239 C254 0.959 . S
H240 C254 0.961 . S
H241 C255 0.960 . S
H242 C255 0.961 . S
H243 C255 0.959 1_565 S
H244 C258 0.929 . S
H245 C259 0.931 . S
H246 C261 0.930 . S
C247 H235 0.930 . S
C247 C248 1.399 . S
C247 C252 1.399 . S
C248 C247 1.399 . S
C248 C249 1.376 . S
C249 H236 0.930 . S
C249 C248 1.376 . S
C249 C250 1.388 . S
C250 H237 0.930 . S
C250 C249 1.388 . S
C250 C251 1.390 . S
C251 C250 1.390 . S
C251 C252 1.394 . S
C251 C257 1.465 . S
C252 C247 1.399 . S
C252 C251 1.394 . S
C252 C253 1.522 . S
C253 C252 1.522 . S
C253 C254 1.497 1_565 S
C253 C255 1.559 1_565 S
C253 C256 1.528 . S
C254 H238 0.959 . S
C254 H239 0.959 . S
C254 H240 0.961 . S
C254 C253 1.497 1_545 S
C255 H241 0.960 . S
C255 H242 0.961 . S
C255 H243 0.959 1_545 S
C255 C253 1.559 1_545 S
C256 C253 1.528 . S
C256 C257 1.396 . S
C256 C261 1.390 1_565 S
C257 C251 1.465 . S
C257 C256 1.396 . S
C257 C258 1.399 . S
C258 H244 0.929 . S
C258 C257 1.399 . S
C258 C259 1.385 . S
C259 H245 0.931 . S
C259 C258 1.385 . S
C259 C260 1.389 . S
C260 C259 1.389 . S
C260 C261 1.387 1_565 S
C261 H246 0.930 . S
C261 C256 1.390 1_545 S
C261 C260 1.387 1_545 S
H262 C274 0.930 . S
H263 C276 0.930 . S
H264 C277 0.930 . S
H265 C281 0.959 . S
H266 C281 0.959 . S
H267 C281 0.961 . S
H268 C282 0.960 . S
H269 C282 0.961 . S
H270 C282 0.959 . S
H271 C285 0.929 . S
H272 C286 0.931 . S
H273 C288 0.930 . S
C274 H262 0.930 . S
C274 C275 1.399 . S
C274 C279 1.399 . S
C275 C274 1.399 . S
C275 C276 1.376 . S
C276 H263 0.930 . S
C276 C275 1.376 . S
C276 C277 1.388 . S
C277 H264 0.930 . S
C277 C276 1.388 . S
C277 C278 1.390 . S
C278 C277 1.390 . S
C278 C279 1.394 . S
C278 C284 1.465 . S
C279 C274 1.399 . S
C279 C278 1.394 . S
C279 C280 1.516 . S
C280 C279 1.516 . S
C280 C281 1.502 . S
C280 C282 1.561 . S
C280 C283 1.526 . S
C281 H265 0.959 . S
C281 H266 0.959 . S
C281 H267 0.961 . S
C281 C280 1.502 . S
C282 H268 0.960 . S
C282 H269 0.961 . S
C282 H270 0.959 . S
C282 C280 1.561 . S
C283 C280 1.526 . S
C283 C284 1.396 . S
C283 C288 1.390 . S
C284 C278 1.465 . S
C284 C283 1.396 . S
C284 C285 1.399 . S
C285 H271 0.929 . S
C285 C284 1.399 . S
C285 C286 1.385 . S
C286 H272 0.931 . S
C286 C285 1.385 . S
C286 C287 1.389 . S
C287 C286 1.389 . S
C287 C288 1.387 . S
C288 H273 0.930 . S
C288 C283 1.390 . S
C288 C287 1.387 . S
H289 C301 0.930 . S
H290 C303 0.930 . S
H291 C304 0.930 . S
H292 C308 0.959 . S
H293 C308 0.959 . S
H294 C308 0.961 . S
H295 C309 0.960 . S
H296 C309 0.961 . S
H297 C309 0.959 . S
H298 C312 0.929 . S
H299 C313 0.931 . S
H300 C315 0.930 . S
C301 H289 0.930 . S
C301 C302 1.399 . S
C301 C306 1.399 . S
C302 C301 1.399 . S
C302 C303 1.376 . S
C303 H290 0.930 . S
C303 C302 1.376 . S
C303 C304 1.388 . S
C304 H291 0.930 . S
C304 C303 1.388 . S
C304 C305 1.390 . S
C305 C304 1.390 . S
C305 C306 1.394 . S
C305 C311 1.465 . S
C306 C301 1.399 . S
C306 C305 1.394 . S
C306 C307 1.516 . S
C307 C306 1.516 . S
C307 C308 1.502 1_655 S
C307 C309 1.561 . S
C307 C310 1.526 . S
C308 H292 0.959 . S
C308 H293 0.959 . S
C308 H294 0.961 . S
C308 C307 1.502 1_455 S
C309 H295 0.960 . S
C309 H296 0.961 . S
C309 H297 0.959 . S
C309 C307 1.561 . S
C310 C307 1.526 . S
C310 C311 1.396 . S
C310 C315 1.390 . S
C311 C305 1.465 . S
C311 C310 1.396 . S
C311 C312 1.399 . S
C312 H298 0.929 . S
C312 C311 1.399 . S
C312 C313 1.385 . S
C313 H299 0.931 . S
C313 C312 1.385 . S
C313 C314 1.389 . S
C314 C313 1.389 . S
C314 C315 1.387 . S
C315 H300 0.930 . S
C315 C310 1.390 . S
C315 C314 1.387 . S
H316 C328 0.930 . S
H317 C330 0.930 . S
H318 C331 0.930 . S
H319 C335 0.959 . S
H320 C335 0.959 . S
H321 C335 0.961 . S
H322 C336 0.960 . S
H323 C336 0.961 . S
H324 C336 0.959 . S
H325 C339 0.929 . S
H326 C340 0.931 . S
H327 C342 0.930 . S
C328 H316 0.930 . S
C328 C329 1.399 . S
C328 C333 1.399 . S
C329 C328 1.399 . S
C329 C330 1.376 . S
C330 H317 0.930 . S
C330 C329 1.376 . S
C330 C331 1.388 . S
C331 H318 0.930 . S
C331 C330 1.388 . S
C331 C332 1.390 . S
C332 C331 1.390 . S
C332 C333 1.394 . S
C332 C338 1.465 . S
C333 C328 1.399 . S
C333 C332 1.394 . S
C333 C334 1.516 . S
C334 C333 1.516 . S
C334 C335 1.502 . S
C334 C336 1.561 . S
C334 C337 1.526 . S
C335 H319 0.959 . S
C335 H320 0.959 . S
C335 H321 0.961 . S
C335 C334 1.502 . S
C336 H322 0.960 . S
C336 H323 0.961 . S
C336 H324 0.959 . S
C336 C334 1.561 . S
C337 C334 1.526 . S
C337 C338 1.396 . S
C337 C342 1.390 . S
C338 C332 1.465 . S
C338 C337 1.396 . S
C338 C339 1.399 . S
C339 H325 0.929 . S
C339 C338 1.399 . S
C339 C340 1.385 . S
C340 H326 0.931 . S
C340 C339 1.385 . S
C340 C341 1.389 . S
C341 C340 1.389 . S
C341 C342 1.387 . S
C342 H327 0.930 . S
C342 C337 1.390 . S
C342 C341 1.387 . S
H343 C355 0.930 . S
H344 C357 0.931 . S
H345 C358 0.930 . S
H346 C362 0.959 . S
H347 C362 0.959 . S
H348 C362 0.961 . S
H349 C363 0.960 . S
H350 C363 0.961 . S
H351 C363 0.959 . S
H352 C366 0.929 . S
H353 C367 0.931 . S
H354 C369 0.930 . S
C355 H343 0.930 . S
C355 C356 1.399 . S
C355 C360 1.399 . S
C356 C355 1.399 . S
C356 C357 1.376 . S
C357 H344 0.931 . S
C357 C356 1.376 . S
C357 C358 1.388 1_565 S
C358 H345 0.930 . S
C358 C357 1.388 1_545 S
C358 C359 1.390 1_545 S
C359 C358 1.390 1_565 S
C359 C360 1.394 . S
C359 C365 1.465 . S
C360 C355 1.399 . S
C360 C359 1.394 . S
C360 C361 1.516 . S
C361 C360 1.516 . S
C361 C362 1.502 . S
C361 C363 1.561 . S
C361 C364 1.526 . S
C362 H346 0.959 . S
C362 H347 0.959 . S
C362 H348 0.961 . S
C362 C361 1.502 . S
C363 H349 0.960 . S
C363 H350 0.961 . S
C363 H351 0.959 . S
C363 C361 1.561 . S
C364 C361 1.526 . S
C364 C365 1.396 . S
C364 C369 1.390 . S
C365 C359 1.465 . S
C365 C364 1.396 . S
C365 C366 1.399 1_565 S
C366 H352 0.929 . S
C366 C365 1.399 1_545 S
C366 C367 1.385 . S
C367 H353 0.931 . S
C367 C366 1.385 . S
C367 C368 1.389 1_545 S
C368 C367 1.389 1_565 S
C368 C369 1.387 . S
C369 H354 0.930 . S
C369 C364 1.390 . S
C369 C368 1.387 . S
H370 C382 0.930 . S
H371 C384 0.930 . S
H372 C385 0.930 . S
H373 C389 0.959 . S
H374 C389 0.959 . S
H375 C389 0.961 . S
H376 C390 0.960 . S
H377 C390 0.961 . S
H378 C390 0.959 . S
H379 C393 0.929 . S
H380 C394 0.931 1_554 S
H381 C396 0.930 . S
C382 H370 0.930 . S
C382 C383 1.399 . S
C382 C387 1.399 . S
C383 C382 1.399 . S
C383 C384 1.376 . S
C384 H371 0.930 . S
C384 C383 1.376 . S
C384 C385 1.388 . S
C385 H372 0.930 . S
C385 C384 1.388 . S
C385 C386 1.390 . S
C386 C385 1.390 . S
C386 C387 1.394 . S
C386 C392 1.465 . S
C387 C382 1.399 . S
C387 C386 1.394 . S
C387 C388 1.516 . S
C388 C387 1.516 . S
C388 C389 1.502 . S
C388 C390 1.561 1_556 S
C388 C391 1.526 . S
C389 H373 0.959 . S
C389 H374 0.959 . S
C389 H375 0.961 . S
C389 C388 1.502 . S
C390 H376 0.960 . S
C390 H377 0.961 . S
C390 H378 0.959 . S
C390 C388 1.561 1_554 S
C391 C388 1.526 . S
C391 C392 1.396 . S
C391 C396 1.390 . S
C392 C386 1.465 . S
C392 C391 1.396 . S
C392 C393 1.399 . S
C393 H379 0.929 . S
C393 C392 1.399 . S
C393 C394 1.385 . S
C394 H380 0.931 1_556 S
C394 C393 1.385 . S
C394 C395 1.389 . S
C395 C394 1.389 . S
C395 C396 1.387 . S
C396 H381 0.930 . S
C396 C391 1.390 . S
C396 C395 1.387 . S
H397 C409 0.930 . S
H398 C411 0.930 . S
H399 C412 0.930 . S
H400 C416 0.959 . S
H401 C416 0.959 . S
H402 C416 0.961 . S
H403 C417 0.960 . S
H404 C417 0.961 . S
H405 C417 0.959 . S
H406 C420 0.929 . S
H407 C421 0.931 . S
H408 C423 0.930 . S
C409 H397 0.930 . S
C409 C410 1.399 . S
C409 C414 1.399 . S
C410 C409 1.399 . S
C410 C411 1.376 . S
C411 H398 0.930 . S
C411 C410 1.376 . S
C411 C412 1.388 . S
C412 H399 0.930 . S
C412 C411 1.388 . S
C412 C413 1.390 . S
C413 C412 1.390 . S
C413 C414 1.394 . S
C413 C419 1.465 . S
C414 C409 1.399 . S
C414 C413 1.394 . S
C414 C415 1.516 . S
C415 C414 1.516 . S
C415 C416 1.502 . S
C415 C417 1.561 . S
C415 C418 1.526 . S
C416 H400 0.959 . S
C416 H401 0.959 . S
C416 H402 0.961 . S
C416 C415 1.502 . S
C417 H403 0.960 . S
C417 H404 0.961 . S
C417 H405 0.959 . S
C417 C415 1.561 . S
C418 C415 1.526 . S
C418 C419 1.396 . S
C418 C423 1.390 . S
C419 C413 1.465 . S
C419 C418 1.396 . S
C419 C420 1.399 . S
C420 H406 0.929 . S
C420 C419 1.399 . S
C420 C421 1.385 . S
C421 H407 0.931 . S
C421 C420 1.385 . S
C421 C422 1.389 . S
C422 C421 1.389 . S
C422 C423 1.387 . S
C423 H408 0.930 . S
C423 C418 1.390 . S
C423 C422 1.387 . S
H424 C436 0.930 . S
H425 C438 0.930 . S
H426 C439 0.930 . S
H427 C443 0.959 . S
H428 C443 0.959 . S
H429 C443 0.961 . S
H430 C444 0.960 . S
H431 C444 0.961 . S
H432 C444 0.959 . S
H433 C447 0.929 1_556 S
H434 C448 0.931 1_556 S
H435 C450 0.930 . S
C436 H424 0.930 . S
C436 C437 1.399 . S
C436 C441 1.399 . S
C437 C436 1.399 . S
C437 C438 1.376 . S
C438 H425 0.930 . S
C438 C437 1.376 . S
C438 C439 1.388 . S
C439 H426 0.930 . S
C439 C438 1.388 . S
C439 C440 1.390 . S
C440 C439 1.390 . S
C440 C441 1.394 . S
C440 C446 1.465 . S
C441 C436 1.399 . S
C441 C440 1.394 . S
C441 C442 1.516 . S
C442 C441 1.516 . S
C442 C443 1.502 . S
C442 C444 1.561 . S
C442 C445 1.526 . S
C443 H427 0.959 . S
C443 H428 0.959 . S
C443 H429 0.961 . S
C443 C442 1.502 . S
C444 H430 0.960 . S
C444 H431 0.961 . S
C444 H432 0.959 . S
C444 C442 1.561 . S
C445 C442 1.526 . S
C445 C446 1.396 . S
C445 C450 1.390 . S
C446 C440 1.465 . S
C446 C445 1.396 . S
C446 C447 1.399 . S
C447 H433 0.929 1_554 S
C447 C446 1.399 . S
C447 C448 1.385 . S
C448 H434 0.931 1_554 S
C448 C447 1.385 . S
C448 C449 1.389 . S
C449 C448 1.389 . S
C449 C450 1.387 . S
C450 H435 0.930 . S
C450 C445 1.390 . S
C450 C449 1.387 . S
H451 C463 0.930 . S
H452 C465 0.930 . S
H453 C466 0.930 . S
H454 C470 0.959 1_556 S
H455 C470 0.959 . S
H456 C470 0.961 . S
H457 C471 0.960 . S
H458 C471 0.961 . S
H459 C471 0.959 . S
H460 C474 0.929 . S
H461 C475 0.931 . S
H462 C477 0.930 . S
C463 H451 0.930 . S
C463 C464 1.399 . S
C463 C468 1.399 . S
C464 C463 1.399 . S
C464 C465 1.376 . S
C465 H452 0.930 . S
C465 C464 1.376 . S
C465 C466 1.388 . S
C466 H453 0.930 . S
C466 C465 1.388 . S
C466 C467 1.390 . S
C467 C466 1.390 . S
C467 C468 1.394 . S
C467 C473 1.465 . S
C468 C463 1.399 . S
C468 C467 1.394 . S
C468 C469 1.516 1_556 S
C469 C468 1.516 1_554 S
C469 C470 1.502 . S
C469 C471 1.561 . S
C469 C472 1.526 . S
C470 H454 0.959 1_554 S
C470 H455 0.959 . S
C470 H456 0.961 . S
C470 C469 1.502 . S
C471 H457 0.960 . S
C471 H458 0.961 . S
C471 H459 0.959 . S
C471 C469 1.561 . S
C472 C469 1.526 . S
C472 C473 1.396 1_554 S
C472 C477 1.390 . S
C473 C467 1.465 . S
C473 C472 1.396 1_556 S
C473 C474 1.399 . S
C474 H460 0.929 . S
C474 C473 1.399 . S
C474 C475 1.385 . S
C475 H461 0.931 . S
C475 C474 1.385 . S
C475 C476 1.389 1_556 S
C476 C475 1.389 1_554 S
C476 C477 1.387 . S
C477 H462 0.930 . S
C477 C472 1.390 . S
C477 C476 1.387 . S
H478 C490 0.930 . S
H479 C492 0.930 . S
H480 C493 0.930 . S
H481 C497 0.959 . S
H482 C497 0.959 . S
H483 C497 0.961 . S
H484 C498 0.960 . S
H485 C498 0.961 . S
H486 C498 0.959 . S
H487 C501 0.929 . S
H488 C502 0.931 . S
H489 C504 0.930 . S
C490 H478 0.930 . S
C490 C491 1.399 . S
C490 C495 1.399 . S
C491 C490 1.399 . S
C491 C492 1.376 . S
C492 H479 0.930 . S
C492 C491 1.376 . S
C492 C493 1.388 . S
C493 H480 0.930 . S
C493 C492 1.388 . S
C493 C494 1.390 . S
C494 C493 1.390 . S
C494 C495 1.394 . S
C494 C500 1.465 . S
C495 C490 1.399 . S
C495 C494 1.394 . S
C495 C496 1.516 . S
C496 C495 1.516 . S
C496 C497 1.502 1_655 S
C496 C498 1.561 . S
C496 C499 1.526 . S
C497 H481 0.959 . S
C497 H482 0.959 . S
C497 H483 0.961 . S
C497 C496 1.502 1_455 S
C498 H484 0.960 . S
C498 H485 0.961 . S
C498 H486 0.959 . S
C498 C496 1.561 . S
C499 C496 1.526 . S
C499 C500 1.396 . S
C499 C504 1.390 . S
C500 C494 1.465 . S
C500 C499 1.396 . S
C500 C501 1.399 . S
C501 H487 0.929 . S
C501 C500 1.399 . S
C501 C502 1.385 . S
C502 H488 0.931 . S
C502 C501 1.385 . S
C502 C503 1.389 . S
C503 C502 1.389 . S
C503 C504 1.387 . S
C504 H489 0.930 . S
C504 C499 1.390 . S
C504 C503 1.387 . S
H505 C517 0.930 . S
H506 C519 0.930 . S
H507 C520 0.930 . S
H508 C524 0.959 . S
H509 C524 0.959 . S
H510 C524 0.961 . S
H511 C525 0.960 . S
H512 C525 0.961 . S
H513 C525 0.959 . S
H514 C528 0.929 . S
H515 C529 0.931 . S
H516 C531 0.930 . S
C517 H505 0.930 . S
C517 C518 1.399 . S
C517 C522 1.399 . S
C518 C517 1.399 . S
C518 C519 1.376 . S
C519 H506 0.930 . S
C519 C518 1.376 . S
C519 C520 1.388 . S
C520 H507 0.930 . S
C520 C519 1.388 . S
C520 C521 1.390 . S
C521 C520 1.390 . S
C521 C522 1.394 . S
C521 C527 1.465 . S
C522 C517 1.399 . S
C522 C521 1.394 . S
C522 C523 1.516 . S
C523 C522 1.516 . S
C523 C524 1.502 . S
C523 C525 1.561 . S
C523 C526 1.526 . S
C524 H508 0.959 . S
C524 H509 0.959 . S
C524 H510 0.961 . S
C524 C523 1.502 . S
C525 H511 0.960 . S
C525 H512 0.961 . S
C525 H513 0.959 . S
C525 C523 1.561 . S
C526 C523 1.526 . S
C526 C527 1.396 . S
C526 C531 1.390 . S
C527 C521 1.465 . S
C527 C526 1.396 . S
C527 C528 1.399 . S
C528 H514 0.929 . S
C528 C527 1.399 . S
C528 C529 1.385 . S
C529 H515 0.931 . S
C529 C528 1.385 . S
C529 C530 1.389 . S
C530 C529 1.389 . S
C530 C531 1.387 . S
C531 H516 0.930 . S
C531 C526 1.390 . S
C531 C530 1.387 . S
H532 C544 0.930 . S
H533 C546 0.919 1_545 S
H534 C547 0.930 . S
H535 C551 0.964 . S
H536 C551 0.962 . S
H537 C551 0.961 1_655 S
H538 C552 0.960 . S
H539 C552 0.961 . S
H540 C552 0.959 . S
H541 C555 0.929 . S
H542 C556 0.931 . S
H543 C558 0.930 . S
C544 H532 0.930 . S
C544 C545 1.399 . S
C544 C549 1.399 . S
C545 C544 1.399 . S
C545 C546 1.393 . S
C546 H533 0.919 1_565 S
C546 C545 1.393 . S
C546 C547 1.383 1_565 S
C547 H534 0.930 . S
C547 C546 1.383 1_545 S
C547 C548 1.390 1_545 S
C548 C547 1.390 1_565 S
C548 C549 1.394 . S
C548 C554 1.463 1_565 S
C549 C544 1.399 . S
C549 C548 1.394 . S
C549 C550 1.516 . S
C550 C549 1.516 . S
C550 C551 1.494 1_655 S
C550 C552 1.561 . S
C550 C553 1.526 . S
C551 H535 0.964 . S
C551 H536 0.962 . S
C551 H537 0.961 1_455 S
C551 C550 1.494 1_455 S
C552 H538 0.960 . S
C552 H539 0.961 . S
C552 H540 0.959 . S
C552 C550 1.561 . S
C553 C550 1.526 . S
C553 C554 1.381 1_565 S
C553 C558 1.390 . S
C554 C548 1.463 1_545 S
C554 C553 1.381 1_545 S
C554 C555 1.412 . S
C555 H541 0.929 . S
C555 C554 1.412 . S
C555 C556 1.385 . S
C556 H542 0.931 . S
C556 C555 1.385 . S
C556 C557 1.389 . S
C557 C556 1.389 . S
C557 C558 1.387 1_545 S
C558 H543 0.930 . S
C558 C553 1.390 . S
C558 C557 1.387 1_565 S
H559 C571 0.930 . S
H560 C573 0.930 . S
H561 C574 0.930 . S
H562 C578 0.959 . S
H563 C578 0.959 . S
H564 C578 0.961 . S
H565 C579 0.960 . S
H566 C579 0.961 . S
H567 C579 0.959 . S
H568 C582 0.929 . S
H569 C583 0.931 . S
H570 C585 0.930 . S
C571 H559 0.930 . S
C571 C572 1.399 . S
C571 C576 1.399 . S
C572 C571 1.399 . S
C572 C573 1.376 . S
C573 H560 0.930 . S
C573 C572 1.376 . S
C573 C574 1.388 . S
C574 H561 0.930 . S
C574 C573 1.388 . S
C574 C575 1.390 . S
C575 C574 1.390 . S
C575 C576 1.394 . S
C575 C581 1.465 . S
C576 C571 1.399 . S
C576 C575 1.394 . S
C576 C577 1.516 . S
C577 C576 1.516 . S
C577 C578 1.502 . S
C577 C579 1.561 . S
C577 C580 1.526 . S
C578 H562 0.959 . S
C578 H563 0.959 . S
C578 H564 0.961 . S
C578 C577 1.502 . S
C579 H565 0.960 . S
C579 H566 0.961 . S
C579 H567 0.959 . S
C579 C577 1.561 . S
C580 C577 1.526 . S
C580 C581 1.396 . S
C580 C585 1.390 . S
C581 C575 1.465 . S
C581 C580 1.396 . S
C581 C582 1.399 . S
C582 H568 0.929 . S
C582 C581 1.399 . S
C582 C583 1.385 . S
C583 H569 0.931 . S
C583 C582 1.385 . S
C583 C584 1.389 . S
C584 C583 1.389 . S
C584 C585 1.387 . S
C585 H570 0.930 . S
C585 C580 1.390 . S
C585 C584 1.387 . S
H586 C598 0.930 . S
H587 C600 0.930 . S
H588 C601 0.930 . S
H589 C605 0.959 . S
H590 C605 0.959 . S
H591 C605 0.961 . S
H592 C606 0.960 . S
H593 C606 0.961 . S
H594 C606 0.959 . S
H595 C609 0.929 . S
H596 C610 0.931 . S
H597 C612 0.930 . S
C598 H586 0.930 . S
C598 C599 1.399 . S
C598 C603 1.399 . S
C599 C598 1.399 . S
C599 C600 1.376 . S
C600 H587 0.930 . S
C600 C599 1.376 . S
C600 C601 1.388 . S
C601 H588 0.930 . S
C601 C600 1.388 . S
C601 C602 1.390 . S
C602 C601 1.390 . S
C602 C603 1.394 . S
C602 C608 1.465 . S
C603 C598 1.399 . S
C603 C602 1.394 . S
C603 C604 1.516 . S
C604 C603 1.516 . S
C604 C605 1.502 . S
C604 C606 1.561 . S
C604 C607 1.526 . S
C605 H589 0.959 . S
C605 H590 0.959 . S
C605 H591 0.961 . S
C605 C604 1.502 . S
C606 H592 0.960 . S
C606 H593 0.961 . S
C606 H594 0.959 . S
C606 C604 1.561 . S
C607 C604 1.526 . S
C607 C608 1.396 . S
C607 C612 1.390 . S
C608 C602 1.465 . S
C608 C607 1.396 . S
C608 C609 1.399 . S
C609 H595 0.929 . S
C609 C608 1.399 . S
C609 C610 1.385 . S
C610 H596 0.931 . S
C610 C609 1.385 . S
C610 C611 1.389 . S
C611 C610 1.389 . S
C611 C612 1.387 . S
C612 H597 0.930 . S
C612 C607 1.390 . S
C612 C611 1.387 . S
H613 C625 0.930 . S
H614 C627 0.930 . S
H615 C628 0.930 . S
H616 C632 0.959 . S
H617 C632 0.959 . S
H618 C632 0.961 . S
H619 C633 0.960 . S
H620 C633 0.961 . S
H621 C633 0.959 . S
H622 C636 0.929 . S
H623 C637 0.931 . S
H624 C639 0.930 . S
C625 H613 0.930 . S
C625 C626 1.399 . S
C625 C630 1.399 . S
C626 C625 1.399 . S
C626 C627 1.376 . S
C627 H614 0.930 . S
C627 C626 1.376 . S
C627 C628 1.388 . S
C628 H615 0.930 . S
C628 C627 1.388 . S
C628 C629 1.390 . S
C629 C628 1.390 . S
C629 C630 1.394 . S
C629 C635 1.465 . S
C630 C625 1.399 . S
C630 C629 1.394 . S
C630 C631 1.516 . S
C631 C630 1.516 . S
C631 C632 1.502 . S
C631 C633 1.561 . S
C631 C634 1.526 . S
C632 H616 0.959 . S
C632 H617 0.959 . S
C632 H618 0.961 . S
C632 C631 1.502 . S
C633 H619 0.960 . S
C633 H620 0.961 . S
C633 H621 0.959 . S
C633 C631 1.561 . S
C634 C631 1.526 . S
C634 C635 1.396 . S
C634 C639 1.390 . S
C635 C629 1.465 . S
C635 C634 1.396 . S
C635 C636 1.399 . S
C636 H622 0.929 . S
C636 C635 1.399 . S
C636 C637 1.385 . S
C637 H623 0.931 . S
C637 C636 1.385 . S
C637 C638 1.389 . S
C638 C637 1.389 . S
C638 C639 1.387 . S
C639 H624 0.930 . S
C639 C634 1.390 . S
C639 C638 1.387 . S
H640 C652 0.930 . S
H641 C654 0.930 . S
H642 C655 0.930 . S
H643 C659 0.959 . S
H644 C659 0.959 . S
H645 C659 0.961 . S
H646 C660 0.960 . S
H647 C660 0.961 . S
H648 C660 0.959 . S
H649 C663 0.929 . S
H650 C664 0.931 . S
H651 C666 0.930 . S
C652 H640 0.930 . S
C652 C653 1.399 . S
C652 C657 1.399 . S
C653 C652 1.399 . S
C653 C654 1.376 1_565 S
C654 H641 0.930 . S
C654 C653 1.376 1_545 S
C654 C655 1.388 . S
C655 H642 0.930 . S
C655 C654 1.388 . S
C655 C656 1.390 . S
C656 C655 1.390 . S
C656 C657 1.394 1_545 S
C656 C662 1.465 . S
C657 C652 1.399 . S
C657 C656 1.394 1_565 S
C657 C658 1.516 . S
C658 C657 1.516 . S
C658 C659 1.502 . S
C658 C660 1.561 1_556 S
C658 C661 1.528 . S
C659 H643 0.959 . S
C659 H644 0.959 . S
C659 H645 0.961 . S
C659 C658 1.502 . S
C660 H646 0.960 . S
C660 H647 0.961 . S
C660 H648 0.959 . S
C660 C658 1.561 1_554 S
C661 C658 1.528 . S
C661 C662 1.396 1_565 S
C661 C666 1.388 1_556 S
C662 C656 1.465 . S
C662 C661 1.396 1_545 S
C662 C663 1.399 1_556 S
C663 H649 0.929 . S
C663 C662 1.399 1_554 S
C663 C664 1.385 . S
C664 H650 0.931 . S
C664 C663 1.385 . S
C664 C665 1.389 . S
C665 C664 1.389 . S
C665 C666 1.387 1_545 S
C666 H651 0.930 . S
C666 C661 1.388 1_554 S
C666 C665 1.387 1_565 S
H667 C679 0.930 . S
H668 C681 0.930 . S
H669 C682 0.930 . S
H670 C686 0.959 . S
H671 C686 0.959 . S
H672 C686 0.961 . S
H673 C687 0.960 . S
H674 C687 0.961 . S
H675 C687 0.959 . S
H676 C690 0.929 . S
H677 C691 0.931 . S
H678 C693 0.930 . S
C679 H667 0.930 . S
C679 C680 1.399 . S
C679 C684 1.399 . S
C680 C679 1.399 . S
C680 C681 1.376 . S
C681 H668 0.930 . S
C681 C680 1.376 . S
C681 C682 1.388 . S
C682 H669 0.930 . S
C682 C681 1.388 . S
C682 C683 1.390 . S
C683 C682 1.390 . S
C683 C684 1.394 . S
C683 C689 1.465 . S
C684 C679 1.399 . S
C684 C683 1.394 . S
C684 C685 1.516 . S
C685 C684 1.516 . S
C685 C686 1.502 . S
C685 C687 1.561 . S
C685 C688 1.526 . S
C686 H670 0.959 . S
C686 H671 0.959 . S
C686 H672 0.961 . S
C686 C685 1.502 . S
C687 H673 0.960 . S
C687 H674 0.961 . S
C687 H675 0.959 . S
C687 C685 1.561 . S
C688 C685 1.526 . S
C688 C689 1.396 . S
C688 C693 1.390 . S
C689 C683 1.465 . S
C689 C688 1.396 . S
C689 C690 1.399 . S
C690 H676 0.929 . S
C690 C689 1.399 . S
C690 C691 1.385 . S
C691 H677 0.931 . S
C691 C690 1.385 . S
C691 C692 1.389 . S
C692 C691 1.389 . S
C692 C693 1.387 . S
C693 H678 0.930 . S
C693 C688 1.390 . S
C693 C692 1.387 . S
H694 C706 0.930 . S
H695 C708 0.930 . S
H696 C709 0.930 . S
H697 C713 0.959 . S
H698 C713 0.959 . S
H699 C713 0.961 . S
H700 C714 0.960 . S
H701 C714 0.961 . S
H702 C714 0.959 . S
H703 C717 0.929 . S
H704 C718 0.931 . S
H705 C720 0.930 . S
C706 H694 0.930 . S
C706 C707 1.399 . S
C706 C711 1.399 . S
C707 C706 1.399 . S
C707 C708 1.376 . S
C708 H695 0.930 . S
C708 C707 1.376 . S
C708 C709 1.388 . S
C709 H696 0.930 . S
C709 C708 1.388 . S
C709 C710 1.390 . S
C710 C709 1.390 . S
C710 C711 1.394 . S
C710 C716 1.465 . S
C711 C706 1.399 . S
C711 C710 1.394 . S
C711 C712 1.516 . S
C712 C711 1.516 . S
C712 C713 1.502 . S
C712 C714 1.561 . S
C712 C715 1.526 . S
C713 H697 0.959 . S
C713 H698 0.959 . S
C713 H699 0.961 . S
C713 C712 1.502 . S
C714 H700 0.960 . S
C714 H701 0.961 . S
C714 H702 0.959 . S
C714 C712 1.561 . S
C715 C712 1.526 . S
C715 C716 1.396 . S
C715 C720 1.390 . S
C716 C710 1.465 . S
C716 C715 1.396 . S
C716 C717 1.399 . S
C717 H703 0.929 . S
C717 C716 1.399 . S
C717 C718 1.385 . S
C718 H704 0.931 . S
C718 C717 1.385 . S
C718 C719 1.389 . S
C719 C718 1.389 . S
C719 C720 1.387 . S
C720 H705 0.930 . S
C720 C715 1.390 . S
C720 C719 1.387 . S
H721 C733 0.930 . S
H722 C735 0.930 . S
H723 C736 0.930 . S
H724 C740 0.959 . S
H725 C740 0.959 . S
H726 C740 0.961 . S
H727 C741 0.960 . S
H728 C741 0.961 . S
H729 C741 0.959 . S
H730 C744 0.929 . S
H731 C745 0.931 . S
H732 C747 0.930 . S
C733 H721 0.930 . S
C733 C734 1.399 . S
C733 C738 1.399 . S
C734 C733 1.399 . S
C734 C735 1.376 . S
C735 H722 0.930 . S
C735 C734 1.376 . S
C735 C736 1.388 . S
C736 H723 0.930 . S
C736 C735 1.388 . S
C736 C737 1.390 . S
C737 C736 1.390 . S
C737 C738 1.394 . S
C737 C743 1.465 . S
C738 C733 1.399 . S
C738 C737 1.394 . S
C738 C739 1.516 . S
C739 C738 1.516 . S
C739 C740 1.502 . S
C739 C741 1.561 . S
C739 C742 1.526 . S
C740 H724 0.959 . S
C740 H725 0.959 . S
C740 H726 0.961 . S
C740 C739 1.502 . S
C741 H727 0.960 . S
C741 H728 0.961 . S
C741 H729 0.959 . S
C741 C739 1.561 . S
C742 C739 1.526 . S
C742 C743 1.396 . S
C742 C747 1.390 . S
C743 C737 1.465 . S
C743 C742 1.396 . S
C743 C744 1.399 . S
C744 H730 0.929 . S
C744 C743 1.399 . S
C744 C745 1.385 . S
C745 H731 0.931 . S
C745 C744 1.385 . S
C745 C746 1.389 . S
C746 C745 1.389 . S
C746 C747 1.387 . S
C747 H732 0.930 . S
C747 C742 1.390 . S
C747 C746 1.387 . S
H748 C760 0.930 . S
H749 C762 0.930 . S
H750 C763 0.930 . S
H751 C767 0.959 . S
H752 C767 0.959 . S
H753 C767 0.961 . S
H754 C768 0.960 . S
H755 C768 0.961 1_554 S
H756 C768 0.959 1_554 S
H757 C771 0.929 . S
H758 C772 0.931 . S
H759 C774 0.930 . S
C760 H748 0.930 . S
C760 C761 1.399 . S
C760 C765 1.399 . S
C761 C760 1.399 . S
C761 C762 1.376 . S
C762 H749 0.930 . S
C762 C761 1.376 . S
C762 C763 1.388 . S
C763 H750 0.930 . S
C763 C762 1.388 . S
C763 C764 1.390 . S
C764 C763 1.390 . S
C764 C765 1.394 . S
C764 C770 1.465 . S
C765 C760 1.399 . S
C765 C764 1.394 . S
C765 C766 1.516 1_655 S
C766 C765 1.516 1_455 S
C766 C767 1.502 . S
C766 C768 1.561 . S
C766 C769 1.526 1_455 S
C767 H751 0.959 . S
C767 H752 0.959 . S
C767 H753 0.961 . S
C767 C766 1.502 . S
C768 H754 0.960 . S
C768 H755 0.961 1_556 S
C768 H756 0.959 1_556 S
C768 C766 1.561 . S
C769 C766 1.526 1_655 S
C769 C770 1.396 . S
C769 C774 1.390 1_655 S
C770 C764 1.465 . S
C770 C769 1.396 . S
C770 C771 1.399 . S
C771 H757 0.929 . S
C771 C770 1.399 . S
C771 C772 1.385 . S
C772 H758 0.931 . S
C772 C771 1.385 . S
C772 C773 1.389 . S
C773 C772 1.389 . S
C773 C774 1.387 1_655 S
C774 H759 0.930 . S
C774 C769 1.390 1_455 S
C774 C773 1.387 1_455 S
H775 C787 0.930 . S
H776 C789 0.930 . S
H777 C790 0.930 . S
H778 C794 0.959 . S
H779 C794 0.959 . S
H780 C794 0.961 . S
H781 C795 0.960 . S
H782 C795 0.961 . S
H783 C795 0.959 . S
H784 C798 0.929 . S
H785 C799 0.931 . S
H786 C801 0.930 . S
C787 H775 0.930 . S
C787 C788 1.399 . S
C787 C792 1.399 . S
C788 C787 1.399 . S
C788 C789 1.376 . S
C789 H776 0.930 . S
C789 C788 1.376 . S
C789 C790 1.388 . S
C790 H777 0.930 . S
C790 C789 1.388 . S
C790 C791 1.390 . S
C791 C790 1.390 . S
C791 C792 1.394 . S
C791 C797 1.465 . S
C792 C787 1.399 . S
C792 C791 1.394 . S
C792 C793 1.516 . S
C793 C792 1.516 . S
C793 C794 1.502 . S
C793 C795 1.561 . S
C793 C796 1.526 . S
C794 H778 0.959 . S
C794 H779 0.959 . S
C794 H780 0.961 . S
C794 C793 1.502 . S
C795 H781 0.960 . S
C795 H782 0.961 . S
C795 H783 0.959 . S
C795 C793 1.561 . S
C796 C793 1.526 . S
C796 C797 1.396 . S
C796 C801 1.390 . S
C797 C791 1.465 . S
C797 C796 1.396 . S
C797 C798 1.399 . S
C798 H784 0.929 . S
C798 C797 1.399 . S
C798 C799 1.385 . S
C799 H785 0.931 . S
C799 C798 1.385 . S
C799 C800 1.389 . S
C800 C799 1.389 . S
C800 C801 1.387 . S
C801 H786 0.930 . S
C801 C796 1.390 . S
C801 C800 1.387 . S
H802 C814 0.930 . S
H803 C816 0.930 . S
H804 C817 0.930 . S
H805 C821 0.959 . S
H806 C821 0.959 . S
H807 C821 0.961 . S
H808 C822 0.960 . S
H809 C822 0.961 . S
H810 C822 0.959 . S
H811 C825 0.929 . S
H812 C826 0.931 . S
H813 C828 0.930 . S
C814 H802 0.930 . S
C814 C815 1.399 . S
C814 C819 1.399 . S
C815 C814 1.399 . S
C815 C816 1.376 . S
C816 H803 0.930 . S
C816 C815 1.376 . S
C816 C817 1.388 . S
C817 H804 0.930 . S
C817 C816 1.388 . S
C817 C818 1.390 . S
C818 C817 1.390 . S
C818 C819 1.394 . S
C818 C824 1.465 . S
C819 C814 1.399 . S
C819 C818 1.394 . S
C819 C820 1.516 . S
C820 C819 1.516 . S
C820 C821 1.502 . S
C820 C822 1.561 . S
C820 C823 1.526 . S
C821 H805 0.959 . S
C821 H806 0.959 . S
C821 H807 0.961 . S
C821 C820 1.502 . S
C822 H808 0.960 . S
C822 H809 0.961 . S
C822 H810 0.959 . S
C822 C820 1.561 . S
C823 C820 1.526 . S
C823 C824 1.396 . S
C823 C828 1.390 . S
C824 C818 1.465 . S
C824 C823 1.396 . S
C824 C825 1.399 . S
C825 H811 0.929 . S
C825 C824 1.399 . S
C825 C826 1.385 . S
C826 H812 0.931 . S
C826 C825 1.385 . S
C826 C827 1.389 . S
C827 C826 1.389 . S
C827 C828 1.387 . S
C828 H813 0.930 . S
C828 C823 1.390 . S
C828 C827 1.387 . S
H829 C841 0.930 . S
H830 C843 0.930 . S
H831 C844 0.930 . S
H832 C848 0.959 . S
H833 C848 0.959 . S
H834 C848 0.961 . S
H835 C849 0.960 . S
H836 C849 0.961 . S
H837 C849 0.959 . S
H838 C852 0.929 . S
H839 C853 0.931 . S
H840 C855 0.930 . S
C841 H829 0.930 . S
C841 C842 1.399 . S
C841 C846 1.399 . S
C842 C841 1.399 . S
C842 C843 1.376 . S
C843 H830 0.930 . S
C843 C842 1.376 . S
C843 C844 1.388 . S
C844 H831 0.930 . S
C844 C843 1.388 . S
C844 C845 1.390 . S
C845 C844 1.390 . S
C845 C846 1.394 . S
C845 C851 1.465 . S
C846 C841 1.399 . S
C846 C845 1.394 . S
C846 C847 1.516 . S
C847 C846 1.516 . S
C847 C848 1.502 . S
C847 C849 1.561 . S
C847 C850 1.526 . S
C848 H832 0.959 . S
C848 H833 0.959 . S
C848 H834 0.961 . S
C848 C847 1.502 . S
C849 H835 0.960 . S
C849 H836 0.961 . S
C849 H837 0.959 . S
C849 C847 1.561 . S
C850 C847 1.526 . S
C850 C851 1.396 . S
C850 C855 1.390 . S
C851 C845 1.465 . S
C851 C850 1.396 . S
C851 C852 1.399 . S
C852 H838 0.929 . S
C852 C851 1.399 . S
C852 C853 1.385 . S
C853 H839 0.931 . S
C853 C852 1.385 . S
C853 C854 1.389 . S
C854 C853 1.389 . S
C854 C855 1.387 . S
C855 H840 0.930 . S
C855 C850 1.390 . S
C855 C854 1.387 . S
C221 C4 2.305 . S
C233 C104 2.303 . S
C248 C16 1.369 . S
C260 N124 1.350 . S
C287 C158 1.581 . S
C275 C32 1.556 . S
C302 C43 1.098 . S
C314 N192 1.147 . S
C341 C145 2.745 . S
C329 C5 2.720 . S
C368 N102 0.882 1_565 S
C356 C21 0.979 . S
C395 C179 1.809 1_556 S
C383 C27 1.783 . S
C422 N154 0.938 . S
C410 C37 0.939 . S
C437 C10 1.808 . S
C449 C194 1.814 . S
C476 C128 1.754 . S
C464 C26 1.743 . S
C491 C38 1.105 . S
C503 C89 1.150 . S
C518 C15 1.576 . S
C530 C175 1.595 . S
C557 C115 2.429 . S
C545 C48 2.426 . S
C572 C59 1.193 . S
C584 N132 1.156 . S
C599 C76 1.848 . S
C611 C149 1.874 . S
C626 C87 1.031 . S
C638 N184 0.974 . S
C653 C54 2.123 . S
C665 C134 2.123 . S
C692 N94 1.456 . S
C680 C60 1.521 . S
C719 C188 1.863 . S
C707 C71 1.812 . S
C746 N162 0.941 . S
C734 C82 0.944 . S
C761 C49 2.049 . S
C773 C205 2.047 1_656 S
C800 C119 1.402 . S
C788 C70 1.412 . S
C827 C98 1.473 . S
C815 C81 1.491 . S
C842 C65 1.425 . S
C854 C164 1.412 . S
