# Generated by pormake.
# Topology the, (3,8)-cn, num edge types: 1
# Building blocks:
#     Node 0, Type 0, BuildingBlock: MIDCAF_clean_linker_0, # of connection points: 3
#     Node 1, Type 0, BuildingBlock: MIDCAF_clean_linker_0, # of connection points: 3
#     Node 2, Type 0, BuildingBlock: MIDCAF_clean_linker_0, # of connection points: 3
#     Node 3, Type 0, BuildingBlock: MIDCAF_clean_linker_0, # of connection points: 3
#     Node 4, Type 0, BuildingBlock: MIDCAF_clean_linker_0, # of connection points: 3
#     Node 5, Type 0, BuildingBlock: MIDCAF_clean_linker_0, # of connection points: 3
#     Node 6, Type 0, BuildingBlock: MIDCAF_clean_linker_0, # of connection points: 3
#     Node 7, Type 0, BuildingBlock: MIDCAF_clean_linker_0, # of connection points: 3
#     Node 8, Type 1, BuildingBlock: GIZVER_clean_sbu_0, # of connection points: 8
#     Node 9, Type 1, BuildingBlock: GIZVER_clean_sbu_0, # of connection points: 8
#     Node 10, Type 1, BuildingBlock: GIZVER_clean_sbu_0, # of connection points: 8
#     Edge 11, Type (0, 1), BuildingBlock: AJUNOK_clean_linker_0, # of connection points: 2
#     Edge 12, Type (0, 1), BuildingBlock: AJUNOK_clean_linker_0, # of connection points: 2
#     Edge 13, Type (0, 1), BuildingBlock: AJUNOK_clean_linker_0, # of connection points: 2
#     Edge 14, Type (0, 1), BuildingBlock: AJUNOK_clean_linker_0, # of connection points: 2
#     Edge 15, Type (0, 1), BuildingBlock: AJUNOK_clean_linker_0, # of connection points: 2
#     Edge 16, Type (0, 1), BuildingBlock: AJUNOK_clean_linker_0, # of connection points: 2
#     Edge 17, Type (0, 1), BuildingBlock: AJUNOK_clean_linker_0, # of connection points: 2
#     Edge 18, Type (0, 1), BuildingBlock: AJUNOK_clean_linker_0, # of connection points: 2
#     Edge 19, Type (0, 1), BuildingBlock: AJUNOK_clean_linker_0, # of connection points: 2
#     Edge 20, Type (0, 1), BuildingBlock: AJUNOK_clean_linker_0, # of connection points: 2
#     Edge 21, Type (0, 1), BuildingBlock: AJUNOK_clean_linker_0, # of connection points: 2
#     Edge 22, Type (0, 1), BuildingBlock: AJUNOK_clean_linker_0, # of connection points: 2
#     Edge 23, Type (0, 1), BuildingBlock: AJUNOK_clean_linker_0, # of connection points: 2
#     Edge 24, Type (0, 1), BuildingBlock: AJUNOK_clean_linker_0, # of connection points: 2
#     Edge 25, Type (0, 1), BuildingBlock: AJUNOK_clean_linker_0, # of connection points: 2
#     Edge 26, Type (0, 1), BuildingBlock: AJUNOK_clean_linker_0, # of connection points: 2
#     Edge 27, Type (0, 1), BuildingBlock: AJUNOK_clean_linker_0, # of connection points: 2
#     Edge 28, Type (0, 1), BuildingBlock: AJUNOK_clean_linker_0, # of connection points: 2
#     Edge 29, Type (0, 1), BuildingBlock: AJUNOK_clean_linker_0, # of connection points: 2
#     Edge 30, Type (0, 1), BuildingBlock: AJUNOK_clean_linker_0, # of connection points: 2
#     Edge 31, Type (0, 1), BuildingBlock: AJUNOK_clean_linker_0, # of connection points: 2
#     Edge 32, Type (0, 1), BuildingBlock: AJUNOK_clean_linker_0, # of connection points: 2
#     Edge 33, Type (0, 1), BuildingBlock: AJUNOK_clean_linker_0, # of connection points: 2
#     Edge 34, Type (0, 1), BuildingBlock: AJUNOK_clean_linker_0, # of connection points: 2
# Relax obj value: 0.049
# Max RMSD: 0.137
# Mean RMSD: 0.073
data_MOF--net-the--node1-GIZVER_clean_sbu_0--node2-MIDCAF_clean_linker_0--edge1-AJUNOK_clean_linker_0
_symmetry_space_group_name_H-M    P1
_symmetry_Int_Tables_number       1
_symmetry_cell_setting            triclinic
loop_
_symmetry_equiv_pos_as_xyz
'x, y, z'
_cell_length_a     39.718715
_cell_length_b     37.539368
_cell_length_c     34.67327
_cell_angle_alpha  86.438
_cell_angle_beta   95.854806
_cell_angle_gamma 104.21836
loop_
_atom_site_label
_atom_site_type_symbol
_atom_site_fract_x
_atom_site_fract_y
_atom_site_fract_z
_atom_type_partial_charge
C0 C 0.24558 0.42152 0.44077 0.0
C1 C 0.22469 0.39852 0.46701 0.0
C2 C 0.23345 0.366 0.48176 0.0
C3 C 0.26259 0.35644 0.4699 0.0
H4 H 0.32054 0.27536 0.48077 0.0
H5 H 0.34017 0.2197 0.50231 0.0
H6 H 0.42605 0.25351 0.43057 0.0
H7 H 0.40724 0.30883 0.4097 0.0
H8 H 0.3774 0.34229 0.32353 0.0
H9 H 0.39336 0.36743 0.2596 0.0
H10 H 0.36138 0.46599 0.27968 0.0
H11 H 0.34456 0.44069 0.34389 0.0
H12 H 0.28959 0.43023 0.40811 0.0
H13 H 0.23892 0.44638 0.42835 0.0
H14 H 0.21751 0.34786 0.50195 0.0
H15 H 0.26844 0.33081 0.481 0.0
N16 N 0.32387 0.33915 0.44305 0.0
N17 N 0.36087 0.34495 0.39328 0.0
N18 N 0.3239 0.38462 0.39337 0.0
C19 C 0.34897 0.32795 0.42664 0.0
C20 C 0.3485 0.37327 0.3765 0.0
C21 C 0.31145 0.36775 0.4266 0.0
C22 C 0.3621 0.29627 0.44317 0.0
C23 C 0.34388 0.27109 0.47008 0.0
C24 C 0.3549 0.2392 0.4822 0.0
C25 C 0.38436 0.23234 0.46774 0.0
C26 C 0.40332 0.25828 0.44225 0.0
C27 C 0.39234 0.28985 0.4301 0.0
C28 C 0.35973 0.38954 0.33873 0.0
C29 C 0.37384 0.36938 0.31454 0.0
C30 C 0.38273 0.38355 0.2779 0.0
C31 C 0.37812 0.41829 0.265 0.0
C32 C 0.36481 0.43898 0.28924 0.0
C33 C 0.35528 0.42451 0.32578 0.0
C34 C 0.28297 0.37912 0.44277 0.0
C35 C 0.27445 0.41204 0.42892 0.0
C36 C 0.64998 0.2108 0.39524 0.0
C37 C 0.62304 0.18739 0.37258 0.0
C38 C 0.61737 0.19687 0.33298 0.0
C39 C 0.63716 0.22934 0.31678 0.0
H40 H 0.61202 0.32478 0.26002 0.0
H41 H 0.57918 0.35214 0.20873 0.0
H42 H 0.67535 0.41661 0.16726 0.0
H43 H 0.70846 0.39036 0.22036 0.0
H44 H 0.77532 0.40258 0.29413 0.0
H45 H 0.83163 0.43588 0.32388 0.0
H46 H 0.82544 0.35346 0.41704 0.0
H47 H 0.76945 0.31956 0.38698 0.0
H48 H 0.69025 0.26091 0.3972 0.0
H49 H 0.65458 0.205 0.42604 0.0
H50 H 0.59718 0.17937 0.31451 0.0
H51 H 0.63151 0.23599 0.28633 0.0
N52 N 0.66645 0.30498 0.29232 0.0
N53 N 0.7153 0.35488 0.29078 0.0
N54 N 0.71502 0.30624 0.33717 0.0
C55 C 0.68242 0.33794 0.27631 0.0
C56 C 0.73185 0.33918 0.32131 0.0
C57 C 0.68243 0.28883 0.32251 0.0
C58 C 0.663 0.35533 0.24446 0.0
C59 C 0.62633 0.34485 0.24009 0.0
C60 C 0.60738 0.36046 0.21041 0.0
C61 C 0.62441 0.38675 0.18365 0.0
C62 C 0.66119 0.39712 0.18776 0.0
C63 C 0.68025 0.38188 0.21807 0.0
C64 C 0.76743 0.35838 0.33815 0.0
C65 C 0.78601 0.39121 0.32072 0.0
C66 C 0.81842 0.41034 0.33778 0.0
C67 C 0.83327 0.39731 0.3728 0.0
C68 C 0.81524 0.36395 0.38968 0.0
C69 C 0.78284 0.34469 0.37254 0.0
C70 C 0.6636 0.25306 0.33954 0.0
C71 C 0.67029 0.24306 0.3788 0.0
C72 C 0.67813 0.66171 0.19226 0.0
C73 C 0.64268 0.66096 0.18343 0.0
C74 C 0.6276 0.68321 0.204 0.0
C75 C 0.64719 0.70491 0.23366 0.0
H76 H 0.64119 0.78118 0.30962 0.0
H77 H 0.61332 0.81926 0.34382 0.0
H78 H 0.70204 0.84214 0.42903 0.0
H79 H 0.73041 0.80396 0.39485 0.0
H80 H 0.77146 0.73362 0.40534 0.0
H81 H 0.81854 0.70811 0.43772 0.0
H82 H 0.84273 0.67923 0.32714 0.0
H83 H 0.7951 0.70385 0.29452 0.0
H84 H 0.7247 0.68214 0.22934 0.0
H85 H 0.69025 0.64446 0.17711 0.0
H86 H 0.60024 0.68296 0.19782 0.0
H87 H 0.6343 0.72089 0.2495 0.0
N88 N 0.68798 0.74791 0.29644 0.0
N89 N 0.73399 0.75552 0.34564 0.0
N90 N 0.73187 0.71628 0.29476 0.0
C91 C 0.70406 0.76403 0.32974 0.0
C92 C 0.74816 0.73182 0.32826 0.0
C93 C 0.70169 0.7241 0.27865 0.0
C94 C 0.68803 0.78908 0.34954 0.0
C95 C 0.65503 0.79438 0.33548 0.0
C96 C 0.63894 0.81615 0.35512 0.0
C97 C 0.65539 0.83332 0.38926 0.0
C98 C 0.68883 0.82921 0.40275 0.0
C99 C 0.70493 0.80718 0.38321 0.0
C100 C 0.77937 0.72058 0.34732 0.0
C101 C 0.78716 0.72246 0.38777 0.0
C102 C 0.81409 0.70792 0.40637 0.0
C103 C 0.83433 0.69211 0.3848 0.0
C104 C 0.82773 0.69176 0.34427 0.0
C105 C 0.80032 0.70559 0.32571 0.0
C106 C 0.68229 0.70443 0.24399 0.0
C107 C 0.69772 0.6831 0.22238 0.0
C108 C 0.1912 0.66326 0.37219 0.0
C109 C 0.17767 0.62561 0.36555 0.0
C110 C 0.19736 0.60719 0.34604 0.0
C111 C 0.22951 0.62592 0.33323 0.0
H112 H 0.29531 0.62261 0.24863 0.0
H113 H 0.32383 0.59055 0.20748 0.0
H114 H 0.41954 0.67401 0.22633 0.0
H115 H 0.39139 0.7062 0.26754 0.0
H116 H 0.37102 0.79196 0.29737 0.0
H117 H 0.40403 0.84879 0.3271 0.0
H118 H 0.36273 0.80891 0.43653 0.0
H119 H 0.32762 0.75354 0.40576 0.0
H120 H 0.23324 0.71084 0.3656 0.0
H121 H 0.17674 0.67833 0.38709 0.0
H122 H 0.18845 0.57797 0.34156 0.0
H123 H 0.24399 0.61066 0.31862 0.0
N124 N 0.29273 0.66783 0.30109 0.0
N125 N 0.3417 0.71779 0.3047 0.0
N126 N 0.29551 0.71555 0.34282 0.0
C127 C 0.32456 0.68497 0.28942 0.0
C128 C 0.32735 0.73321 0.33144 0.0
C129 C 0.27789 0.68294 0.32755 0.0
C130 C 0.34108 0.66694 0.26188 0.0
C131 C 0.32239 0.63436 0.24389 0.0
C132 C 0.33861 0.616 0.22012 0.0
C133 C 0.37397 0.62953 0.2141 0.0
C134 C 0.39236 0.66265 0.23095 0.0
C135 C 0.37613 0.68117 0.25447 0.0
C136 C 0.3469 0.76815 0.34927 0.0
C137 C 0.36892 0.7955 0.32773 0.0
C138 C 0.38817 0.82796 0.345 0.0
C139 C 0.38696 0.83332 0.38468 0.0
C140 C 0.36433 0.80608 0.40592 0.0
C141 C 0.34429 0.77415 0.38834 0.0
C142 C 0.24321 0.66346 0.34024 0.0
C143 C 0.22362 0.68191 0.35984 0.0
C144 C 0.22326 0.60708 0.66799 0.0
C145 C 0.20118 0.62861 0.64986 0.0
C146 C 0.21193 0.66704 0.65322 0.0
C147 C 0.24442 0.6835 0.67221 0.0
H148 H 0.32581 0.78205 0.66372 0.0
H149 H 0.35896 0.841 0.63784 0.0
H150 H 0.45382 0.81949 0.69592 0.0
H151 H 0.42083 0.76192 0.72301 0.0
H152 H 0.39628 0.71342 0.8123 0.0
H153 H 0.42935 0.68563 0.86372 0.0
H154 H 0.37795 0.57781 0.8232 0.0
H155 H 0.344 0.6056 0.77179 0.0
H156 H 0.27202 0.60616 0.70075 0.0
H157 H 0.21609 0.57745 0.66599 0.0
H158 H 0.19527 0.68458 0.6411 0.0
H159 H 0.25197 0.71319 0.67353 0.0
N160 N 0.31869 0.7142 0.69521 0.0
N161 N 0.36603 0.71343 0.74117 0.0
N162 N 0.31782 0.66254 0.7377 0.0
C163 C 0.35097 0.73093 0.71132 0.0
C164 C 0.34979 0.67949 0.75475 0.0
C165 C 0.30192 0.68 0.70812 0.0
C166 C 0.37051 0.76724 0.69578 0.0
C167 C 0.35369 0.79013 0.6713 0.0
C168 C 0.37272 0.82392 0.6564 0.0
C169 C 0.40906 0.83551 0.66537 0.0
C170 C 0.42578 0.81234 0.68951 0.0
C171 C 0.40678 0.77896 0.70479 0.0
C172 C 0.3675 0.66174 0.78777 0.0
C173 C 0.39162 0.68373 0.81452 0.0
C174 C 0.41043 0.66785 0.84421 0.0
C175 C 0.40608 0.62958 0.84763 0.0
C176 C 0.38167 0.60741 0.82131 0.0
C177 C 0.36221 0.6233 0.79198 0.0
C178 C 0.26677 0.66204 0.6895 0.0
C179 C 0.25547 0.62355 0.68782 0.0
C180 C 0.21228 0.35974 0.68005 0.0
C181 C 0.20117 0.35358 0.64081 0.0
C182 C 0.21377 0.32833 0.62161 0.0
C183 C 0.23869 0.31107 0.64093 0.0
H184 H 0.2952 0.2292 0.63457 0.0
H185 H 0.32223 0.18862 0.60191 0.0
H186 H 0.40756 0.20505 0.69148 0.0
H187 H 0.38104 0.24528 0.72427 0.0
H188 H 0.38311 0.29575 0.79521 0.0
H189 H 0.41756 0.33181 0.84841 0.0
H190 H 0.34714 0.40362 0.83772 0.0
H191 H 0.31263 0.36795 0.78486 0.0
H192 H 0.24556 0.34897 0.72928 0.0
H193 H 0.20264 0.37886 0.69553 0.0
H194 H 0.20559 0.32328 0.59126 0.0
H195 H 0.24905 0.29287 0.625 0.0
N196 N 0.29313 0.27892 0.68319 0.0
N197 N 0.33785 0.28374 0.734 0.0
N198 N 0.29754 0.32002 0.73275 0.0
C199 C 0.32153 0.268 0.70052 0.0
C200 C 0.32597 0.30976 0.75037 0.0
C201 C 0.28086 0.30483 0.69935 0.0
C202 C 0.33604 0.24095 0.68197 0.0
C203 C 0.31956 0.22391 0.64757 0.0
C204 C 0.33485 0.20052 0.62891 0.0
C205 C 0.36701 0.19399 0.64412 0.0
C206 C 0.38285 0.2099 0.67906 0.0
C207 C 0.36756 0.23298 0.69781 0.0
C208 C 0.34515 0.329 0.78534 0.0
C209 C 0.37461 0.31888 0.80452 0.0
C210 C 0.39424 0.33934 0.83522 0.0
C211 C 0.38492 0.37042 0.84725 0.0
C212 C 0.35491 0.37979 0.82902 0.0
C213 C 0.33516 0.35926 0.79865 0.0
C214 C 0.25129 0.31885 0.67975 0.0
C215 C 0.23697 0.34261 0.69929 0.0
C216 C 0.67614 0.21195 0.63026 0.0
C217 C 0.64766 0.19056 0.64891 0.0
C218 C 0.64094 0.20213 0.68462 0.0
C219 C 0.66107 0.2349 0.70037 0.0
H220 H 0.66362 0.31276 0.78721 0.0
H221 H 0.6371 0.34396 0.83177 0.0
H222 H 0.69334 0.44916 0.78741 0.0
H223 H 0.72063 0.41836 0.74355 0.0
H224 H 0.7845 0.42026 0.69386 0.0
H225 H 0.83845 0.45376 0.66774 0.0
H226 H 0.8566 0.35155 0.63445 0.0
H227 H 0.80165 0.31809 0.659 0.0
H228 H 0.7176 0.26087 0.63044 0.0
H229 H 0.68169 0.20448 0.60234 0.0
H230 H 0.61943 0.18623 0.69998 0.0
H231 H 0.65444 0.24324 0.7274 0.0
N232 N 0.69407 0.31003 0.72232 0.0
N233 N 0.74047 0.36238 0.71949 0.0
N234 N 0.73859 0.31191 0.68191 0.0
C235 C 0.71013 0.34447 0.73414 0.0
C236 C 0.75511 0.34626 0.69371 0.0
C237 C 0.70798 0.29359 0.69598 0.0
C238 C 0.6943 0.36301 0.76177 0.0
C239 C 0.67052 0.34253 0.78709 0.0
C240 C 0.6555 0.3603 0.81273 0.0
C241 C 0.66344 0.39886 0.81305 0.0
C242 C 0.68704 0.41938 0.78781 0.0
C243 C 0.70262 0.40167 0.76276 0.0
C244 C 0.78847 0.36643 0.67828 0.0
C245 C 0.7999 0.40484 0.68092 0.0
C246 C 0.83102 0.4241 0.6661 0.0
C247 C 0.85184 0.40551 0.64858 0.0
C248 C 0.84082 0.36696 0.64674 0.0
C249 C 0.80936 0.34771 0.66105 0.0
C250 C 0.68878 0.25698 0.68108 0.0
C251 C 0.69658 0.24459 0.64627 0.0
C252 C 0.63627 0.62848 0.73973 0.0
C253 C 0.65609 0.6077 0.7629 0.0
C254 C 0.68845 0.60549 0.75185 0.0
C255 C 0.70079 0.62377 0.7179 0.0
H256 H 0.77007 0.62643 0.64122 0.0
H257 H 0.82033 0.61257 0.61736 0.0
H258 H 0.82502 0.70076 0.5306 0.0
H259 H 0.77403 0.71532 0.55459 0.0
H260 H 0.71759 0.76554 0.55635 0.0
H261 H 0.69331 0.81802 0.5342 0.0
H262 H 0.60736 0.77662 0.60457 0.0
H263 H 0.63069 0.72417 0.6259 0.0
H264 H 0.63286 0.66303 0.68897 0.0
H265 H 0.61148 0.63108 0.74817 0.0
H266 H 0.70417 0.58971 0.76952 0.0
H267 H 0.726 0.62178 0.71019 0.0
N268 N 0.72339 0.65981 0.64583 0.0
N269 N 0.72135 0.70546 0.59691 0.0
N270 N 0.67944 0.69155 0.64211 0.0
C271 C 0.73679 0.67939 0.61437 0.0
C272 C 0.69251 0.71155 0.61067 0.0
C273 C 0.69477 0.66568 0.65986 0.0
C274 C 0.76786 0.67195 0.59972 0.0
C275 C 0.78159 0.64312 0.61711 0.0
C276 C 0.81034 0.63502 0.60344 0.0
C277 C 0.82613 0.65553 0.57218 0.0
C278 C 0.81308 0.68475 0.55489 0.0
C279 C 0.78395 0.69288 0.56853 0.0
C280 C 0.67636 0.74097 0.59338 0.0
C281 C 0.69323 0.76737 0.5666 0.0
C282 C 0.67952 0.79748 0.55408 0.0
C283 C 0.64879 0.80147 0.56815 0.0
C284 C 0.63105 0.77409 0.5932 0.0
C285 C 0.64464 0.74417 0.60565 0.0
C286 C 0.68113 0.64496 0.69482 0.0
C287 C 0.64866 0.64697 0.70603 0.0
Co288 Co 0.08288 0.47976 0.54025 0.0
Co289 Co 0.05037 0.46426 0.46972 0.0
Co290 Co 0.01589 0.51845 0.50869 0.0
O291 O 0.03538 0.47402 0.51722 0.0
H292 H 0.01917 0.45283 0.52746 0.0
O293 O 0.99773 0.56356 0.50049 0.0
Co294 Co 0.9513 0.56269 0.47837 0.0
Co295 Co 0.98453 0.57236 0.54923 0.0
H296 H 0.01486 0.58458 0.49139 0.0
O297 O 0.06723 0.42222 0.46136 0.0
O298 O 0.09685 0.47391 0.48916 0.0
O299 O 0.04962 0.50108 0.42806 0.0
O300 O 0.05114 0.54316 0.47078 0.0
O301 O 0.98203 0.49328 0.46529 0.0
O302 O 0.90946 0.56622 0.4581 0.0
O303 O 0.95798 0.6119 0.46625 0.0
O304 O 0.93824 0.51124 0.48601 0.0
O305 O 0.98032 0.49303 0.54561 0.0
O306 O 0.97963 0.53322 0.58929 0.0
O307 O 0.93896 0.56954 0.53028 0.0
O308 O 0.97539 0.61732 0.56001 0.0
C309 C 0.11209 0.4453 0.56675 0.0
C310 C 0.08148 0.54943 0.55241 0.0
C311 C 0.05837 0.53427 0.43806 0.0
C312 C 0.09655 0.44256 0.47573 0.0
C313 C 0.92492 0.60083 0.45427 0.0
C314 C 0.94925 0.49115 0.46445 0.0
C315 C 0.97099 0.50058 0.57768 0.0
C316 C 0.94439 0.6014 0.54534 0.0
O317 O 0.12494 0.48044 0.56216 0.0
O318 O 0.07968 0.43134 0.55379 0.0
O319 O 0.04856 0.54377 0.55291 0.0
O320 O 0.09349 0.53087 0.53049 0.0
Co321 Co 0.54693 0.94471 0.49184 0.0
Co322 Co 0.56492 0.97193 0.56226 0.0
Co323 Co 0.51251 0.01361 0.51859 0.0
O324 O 0.55318 0.99241 0.51327 0.0
H325 H 0.57302 1.01036 0.50437 0.0
O326 O 0.47162 0.03466 0.52386 0.0
Co327 Co 0.47742 0.08178 0.54619 0.0
Co328 Co 0.45963 0.05592 0.47532 0.0
H329 H 0.45183 0.0165 0.53258 0.0
O330 O 0.60764 0.95932 0.5743 0.0
O331 O 0.55886 0.92535 0.54399 0.0
O332 O 0.53216 0.96566 0.6014 0.0
O333 O 0.49025 0.97352 0.55676 0.0
O334 O 0.54115 0.04432 0.56171 0.0
O335 O 0.47881 0.12387 0.56684 0.0
O336 O 0.43242 0.07606 0.5582 0.0
O337 O 0.52512 0.09422 0.53848 0.0
O338 O 0.53474 0.05358 0.4804 0.0
O339 O 0.49276 0.06315 0.43671 0.0
O340 O 0.46642 0.10223 0.49444 0.0
O341 O 0.41722 0.07005 0.46353 0.0
C342 C 0.57766 0.91674 0.46721 0.0
C343 C 0.4795 0.94801 0.47686 0.0
C344 C 0.50007 0.96054 0.58981 0.0
C345 C 0.59072 0.92867 0.55895 0.0
C346 C 0.44606 0.10925 0.57048 0.0
C347 C 0.54551 0.07924 0.56075 0.0
C348 C 0.52489 0.06756 0.4479 0.0
C349 C 0.43491 0.10025 0.47918 0.0
O350 O 0.54512 0.90202 0.47203 0.0
O351 O 0.59155 0.95004 0.47904 0.0
O352 O 0.48429 0.98296 0.47537 0.0
O353 O 0.49923 0.93287 0.49997 0.0
Co354 Co 0.4805 0.531 0.09281 0.0
Co355 Co 0.46476 0.4632 0.07068 0.0
Co356 Co 0.51801 0.51176 0.01533 0.0
O357 O 0.47598 0.50832 0.04396 0.0
H358 H 0.45613 0.51215 0.02715 0.0
O359 O 0.55979 0.51501 0.98639 0.0
Co360 Co 0.55519 0.49073 0.93823 0.0
Co361 Co 0.57151 0.55945 0.95809 0.0
H362 H 0.57972 0.51154 1.0033 0.0
O363 O 0.4205 0.44424 0.0863 0.0
O364 O 0.46567 0.48213 0.11899 0.0
O365 O 0.49878 0.43366 0.0763 0.0
O366 O 0.54018 0.47915 0.05391 0.0
O367 O 0.49063 0.46802 0.98533 0.0
O368 O 0.55491 0.46793 0.89461 0.0
O369 O 0.59937 0.4844 0.94073 0.0
O370 O 0.50823 0.4929 0.92946 0.0
O371 O 0.4958 0.54443 0.97661 0.0
O372 O 0.53684 0.58759 0.94982 0.0
O373 O 0.56882 0.53854 0.91071 0.0
O374 O 0.6154 0.57732 0.93949 0.0
C375 C 0.44961 0.55304 0.12434 0.0
C376 C 0.54844 0.55316 0.08308 0.0
C377 C 0.53071 0.44857 0.0729 0.0
C378 C 0.43418 0.46122 0.11774 0.0
C379 C 0.58689 0.4687 0.90793 0.0
C380 C 0.48641 0.46979 0.94833 0.0
C381 C 0.50519 0.57374 0.95549 0.0
C382 C 0.60003 0.55925 0.9093 0.0
O383 O 0.48149 0.55268 0.13682 0.0
O384 O 0.43646 0.53817 0.09126 0.0
O385 O 0.54538 0.55533 0.04596 0.0
O386 O 0.52708 0.52813 0.1005 0.0
C387 C 0.16009 0.38306 0.46837 0.0
C388 C 0.19256 0.40786 0.47622 0.0
C389 C 0.12897 0.3942 0.46904 0.0
C390 C 0.12944 0.43051 0.47746 0.0
H391 H 0.15876 0.35546 0.45973 0.0
H392 H 0.1045 0.3745 0.46193 0.0
S393 S 0.20831 0.50466 0.5039 0.0
N394 N 0.22357 0.46882 0.49645 0.0
N395 N 0.16556 0.49063 0.49597 0.0
C396 C 0.16193 0.45502 0.4871 0.0
C397 C 0.19338 0.44343 0.48701 0.0
C398 C 0.56294 0.14786 0.38023 0.0
C399 C 0.59915 0.15466 0.39034 0.0
C400 C 0.53945 0.11867 0.39763 0.0
C401 C 0.55096 0.09496 0.42629 0.0
H402 H 0.5524 0.16598 0.35949 0.0
H403 H 0.51187 0.11563 0.38941 0.0
S404 S 0.64343 0.09859 0.4608 0.0
N405 N 0.64563 0.13334 0.42876 0.0
N406 N 0.60151 0.07905 0.46226 0.0
C407 C 0.58723 0.10069 0.43587 0.0
C408 C 0.61124 0.13037 0.41784 0.0
C409 C 0.84601 0.64 0.42744 0.0
C410 C 0.85907 0.67173 0.4048 0.0
C411 C 0.86778 0.61776 0.44364 0.0
C412 C 0.90372 0.62685 0.43873 0.0
H413 H 0.81845 0.63158 0.43154 0.0
H414 H 0.85617 0.59294 0.45983 0.0
S415 S 0.95104 0.70845 0.38363 0.0
N416 N 0.91012 0.71192 0.3789 0.0
N417 N 0.95157 0.67076 0.41077 0.0
C418 C 0.9174 0.65934 0.41737 0.0
C419 C 0.89493 0.68159 0.39998 0.0
C420 C 0.39741 0.88346 0.43325 0.0
C421 C 0.40996 0.86627 0.40447 0.0
C422 C 0.41949 0.91189 0.45505 0.0
C423 C 0.4548 0.92465 0.44847 0.0
H424 H 0.37047 0.87428 0.43972 0.0
H425 H 0.40923 0.92286 0.47827 0.0
S426 S 0.50079 0.89128 0.37575 0.0
N427 N 0.46065 0.86527 0.37076 0.0
N428 N 0.50094 0.92017 0.40979 0.0
C429 C 0.46731 0.90927 0.41867 0.0
C430 C 0.44521 0.87983 0.39707 0.0
C431 C 0.14618 0.57761 0.63967 0.0
C432 C 0.16776 0.61105 0.62659 0.0
C433 C 0.11638 0.5591 0.61675 0.0
C434 C 0.10663 0.57348 0.58005 0.0
H435 H 0.15281 0.56511 0.66749 0.0
H436 H 0.10179 0.5325 0.62705 0.0
S437 S 0.15307 0.6599 0.53204 0.0
N438 N 0.17656 0.65741 0.57379 0.0
N439 N 0.11999 0.62335 0.53211 0.0
C440 C 0.12702 0.60732 0.5672 0.0
C441 C 0.1576 0.62599 0.59012 0.0
C442 C 0.37145 0.13582 0.61433 0.0
C443 C 0.38573 0.17304 0.62252 0.0
C444 C 0.39072 0.11531 0.59683 0.0
C445 C 0.42485 0.13139 0.58691 0.0
H446 H 0.34567 0.12225 0.62251 0.0
H447 H 0.37907 0.08653 0.59185 0.0
S448 S 0.47168 0.22966 0.59771 0.0
N449 N 0.43424 0.22605 0.61611 0.0
N450 N 0.47049 0.1882 0.58355 0.0
C451 C 0.43856 0.16918 0.59348 0.0
C452 C 0.419 0.18981 0.61118 0.0
C453 C 0.90707 0.45606 0.65166 0.0
C454 C 0.88439 0.42671 0.63164 0.0
C455 C 0.936 0.47867 0.63485 0.0
C456 C 0.94377 0.47277 0.59738 0.0
H457 H 0.90208 0.4621 0.68038 0.0
H458 H 0.95188 0.50156 0.65105 0.0
S459 S 0.89295 0.39913 0.53274 0.0
N460 N 0.8719 0.39292 0.57218 0.0
N461 N 0.92667 0.43429 0.54119 0.0
C462 C 0.92208 0.44253 0.57763 0.0
C463 C 0.89236 0.41983 0.59457 0.0
C464 C 0.60049 0.83212 0.54894 0.0
C465 C 0.63608 0.83516 0.55975 0.0
C466 C 0.58631 0.86271 0.54813 0.0
C467 C 0.60724 0.89758 0.55784 0.0
H468 H 0.58322 0.80559 0.5424 0.0
H469 H 0.5585 0.85866 0.5408 0.0
S470 S 0.70277 0.92059 0.58465 0.0
N471 N 0.69247 0.87587 0.57825 0.0
N472 N 0.66598 0.93387 0.57561 0.0
C473 C 0.64327 0.90137 0.56672 0.0
C474 C 0.65769 0.87006 0.56775 0.0
C475 C 0.43006 0.19858 0.48805 0.0
C476 C 0.39489 0.1975 0.47679 0.0
C477 C 0.44241 0.16677 0.48944 0.0
C478 C 0.42003 0.13258 0.47983 0.0
H479 H 0.44845 0.2245 0.49446 0.0
H480 H 0.47001 0.16936 0.4971 0.0
S481 S 0.32482 0.11467 0.45207 0.0
N482 N 0.33725 0.15944 0.45813 0.0
N483 N 0.36034 0.09911 0.46167 0.0
C484 C 0.38436 0.13078 0.4705 0.0
C485 C 0.37179 0.16336 0.46895 0.0
C486 C 0.86711 0.45808 0.39769 0.0
C487 C 0.86529 0.42063 0.39354 0.0
C488 C 0.89511 0.48055 0.41933 0.0
C489 C 0.92294 0.46696 0.43769 0.0
H490 H 0.84605 0.47002 0.38518 0.0
H491 H 0.89458 0.50888 0.42203 0.0
S492 S 0.93236 0.37148 0.43414 0.0
N493 N 0.89491 0.37116 0.40833 0.0
N494 N 0.94781 0.41389 0.44895 0.0
C495 C 0.92235 0.42995 0.43272 0.0
C496 C 0.89343 0.40668 0.41088 0.0
C497 C 0.65118 0.89085 0.42056 0.0
C498 C 0.63665 0.85387 0.41148 0.0
C499 C 0.63234 0.911 0.43919 0.0
C500 C 0.59836 0.89482 0.44952 0.0
H501 H 0.67689 0.90454 0.41228 0.0
H502 H 0.64423 0.93961 0.44483 0.0
S503 S 0.5508 0.79707 0.43657 0.0
N504 N 0.58791 0.80094 0.41736 0.0
N505 N 0.55249 0.83818 0.45209 0.0
C506 C 0.58432 0.85727 0.44198 0.0
C507 C 0.60345 0.83699 0.42305 0.0
C508 C 0.13804 0.6107 0.41936 0.0
C509 C 0.14437 0.60506 0.38126 0.0
C510 C 0.10887 0.58918 0.43642 0.0
C511 C 0.0849 0.56081 0.41645 0.0
H512 H 0.15657 0.63081 0.43687 0.0
H513 H 0.10614 0.59353 0.46628 0.0
S514 S 0.08651 0.53826 0.31408 0.0
N515 N 0.12175 0.57186 0.32237 0.0
N516 N 0.06756 0.53066 0.35504 0.0
C517 C 0.08987 0.55608 0.37767 0.0
C518 C 0.11941 0.5783 0.36002 0.0
C519 C 0.42361 0.87974 0.60832 0.0
C520 C 0.4299 0.87053 0.64798 0.0
C521 C 0.44525 0.9102 0.59029 0.0
C522 C 0.47434 0.93258 0.61103 0.0
H523 H 0.40271 0.86237 0.59058 0.0
H524 H 0.44011 0.91506 0.55936 0.0
S525 S 0.49921 0.92394 0.71662 0.0
N526 N 0.46487 0.88932 0.70841 0.0
N527 N 0.50617 0.94561 0.67419 0.0
C528 C 0.47991 0.92485 0.65105 0.0
C529 C 0.45759 0.89413 0.66955 0.0
C530 C 0.1455 0.36079 0.60278 0.0
C531 C 0.17922 0.3765 0.61963 0.0
C532 C 0.12378 0.38309 0.58566 0.0
C533 C 0.13519 0.42178 0.58463 0.0
H534 H 0.13561 0.3312 0.60369 0.0
H535 H 0.09786 0.3699 0.57337 0.0
S536 S 0.2229 0.47572 0.6221 0.0
N537 N 0.2239 0.43245 0.63217 0.0
N538 N 0.18367 0.47438 0.60046 0.0
C539 C 0.16945 0.43752 0.60043 0.0
C540 C 0.19129 0.41488 0.6178 0.0
C541 C 0.58656 0.15638 0.62853 0.0
C542 C 0.62256 0.15888 0.6294 0.0
C543 C 0.56204 0.1293 0.60783 0.0
C544 C 0.57217 0.10324 0.58709 0.0
H545 H 0.57713 0.17643 0.64278 0.0
H546 H 0.53483 0.12924 0.60762 0.0
S547 S 0.66276 0.09552 0.58184 0.0
N548 N 0.66701 0.13113 0.60927 0.0
N549 N 0.62048 0.08028 0.57001 0.0
C550 C 0.60785 0.10422 0.58879 0.0
C551 C 0.63312 0.1321 0.60983 0.0
C552 C 0.85186 0.60868 0.54799 0.0
C553 C 0.85589 0.64516 0.55811 0.0
C554 C 0.88071 0.59533 0.54255 0.0
C555 C 0.91466 0.618 0.54712 0.0
H556 H 0.82628 0.58987 0.54596 0.0
H557 H 0.87632 0.56657 0.5362 0.0
S558 S 0.93845 0.71704 0.56886 0.0
N559 N 0.89558 0.70477 0.5693 0.0
N560 N 0.95037 0.67978 0.55856 0.0
C561 C 0.91887 0.65525 0.55488 0.0
C562 C 0.88928 0.66887 0.56036 0.0
C563 C 0.41719 0.4625 0.22312 0.0
C564 C 0.38821 0.43278 0.2264 0.0
C565 C 0.43103 0.47248 0.1874 0.0
C566 C 0.41604 0.45336 0.15368 0.0
H567 H 0.43032 0.47685 0.24868 0.0
H568 H 0.45447 0.4944 0.18667 0.0
S569 S 0.33686 0.37609 0.1471 0.0
N570 N 0.34309 0.38615 0.19336 0.0
N571 N 0.36835 0.40524 0.12574 0.0
C572 C 0.38555 0.42501 0.15639 0.0
C573 C 0.37184 0.41461 0.19291 0.0
C574 C 0.45081 0.59282 0.86382 0.0
C575 C 0.42911 0.61336 0.87657 0.0
C576 C 0.47518 0.58011 0.88982 0.0
C577 C 0.47837 0.58686 0.92966 0.0
H578 H 0.44967 0.58748 0.83331 0.0
H579 H 0.49185 0.56499 0.87864 0.0
S580 S 0.42642 0.63722 0.97832 0.0
N581 N 0.41173 0.63886 0.93203 0.0
N582 N 0.45695 0.6139 0.98098 0.0
C583 C 0.45619 0.60628 0.94308 0.0
C584 C 0.43175 0.61987 0.9165 0.0
C585 C 0.4203 0.4328 0.86506 0.0
C586 C 0.40831 0.3954 0.87568 0.0
C587 C 0.44452 0.45677 0.88956 0.0
C588 C 0.45739 0.44453 0.92603 0.0
H589 H 0.41182 0.4434 0.83692 0.0
H590 H 0.45376 0.48509 0.87948 0.0
S591 S 0.4325 0.34973 0.9687 0.0
N592 N 0.40987 0.34748 0.92581 0.0
N593 N 0.45514 0.39284 0.97233 0.0
C594 C 0.44459 0.40755 0.93777 0.0
C595 C 0.42023 0.38289 0.91243 0.0
C596 C 0.62052 0.43597 0.82109 0.0
C597 C 0.64562 0.41776 0.83805 0.0
C598 C 0.60208 0.45269 0.84402 0.0
C599 C 0.6086 0.45265 0.88475 0.0
H600 H 0.61458 0.4366 0.78989 0.0
H601 H 0.58243 0.46567 0.82965 0.0
S602 S 0.67273 0.40956 0.94303 0.0
N603 N 0.67649 0.40087 0.89772 0.0
N604 N 0.64263 0.43336 0.94089 0.0
C605 C 0.63435 0.43534 0.90196 0.0
C606 C 0.65261 0.41757 0.87859 0.0
C607 C 0.66382 0.59919 0.83479 0.0
C608 C 0.64348 0.5901 0.79961 0.0
C609 C 0.65009 0.58761 0.87034 0.0
C610 C 0.61564 0.56645 0.87181 0.0
H611 H 0.68987 0.61688 0.83484 0.0
H612 H 0.6662 0.59645 0.89677 0.0
S613 S 0.55352 0.53178 0.78706 0.0
N614 N 0.58884 0.55597 0.76791 0.0
N615 N 0.5626 0.53428 0.83447 0.0
C616 C 0.59586 0.55532 0.8366 0.0
C617 C 0.60989 0.56719 0.80053 0.0
C618 C 0.59234 0.60746 0.17104 0.0
C619 C 0.62014 0.63381 0.15652 0.0
C620 C 0.57007 0.58144 0.14707 0.0
C621 C 0.57401 0.58094 0.10711 0.0
H622 H 0.58788 0.60677 0.20143 0.0
H623 H 0.5493 0.56174 0.16025 0.0
S624 S 0.64363 0.64384 0.05496 0.0
N625 N 0.65144 0.6575 0.10012 0.0
N626 N 0.60884 0.60898 0.05442 0.0
C627 C 0.60201 0.60705 0.09218 0.0
C628 C 0.62524 0.63333 0.11701 0.0
C629 C 0.37954 0.59732 0.15406 0.0
C630 C 0.39227 0.60835 0.19198 0.0
C631 C 0.39766 0.57868 0.13251 0.0
C632 C 0.42907 0.57024 0.14819 0.0
H633 H 0.35586 0.60392 0.14064 0.0
H634 H 0.38737 0.57158 0.1031 0.0
S635 S 0.4707 0.58904 0.24836 0.0
N636 N 0.43627 0.60659 0.24551 0.0
N637 N 0.47026 0.57181 0.20563 0.0
C638 C 0.44116 0.5799 0.18677 0.0
C639 C 0.42281 0.59888 0.20847 0.0
C640 C 0.57328 0.38034 0.13288 0.0
C641 C 0.60328 0.40293 0.15205 0.0
C642 C 0.55072 0.39507 0.1062 0.0
C643 C 0.55745 0.433 0.09682 0.0
H644 H 0.5667 0.35094 0.1391 0.0
H645 H 0.52744 0.37662 0.09333 0.0
S646 S 0.63244 0.50445 0.13813 0.0
N647 N 0.63826 0.46557 0.15946 0.0
N648 N 0.59678 0.49292 0.10824 0.0
C649 C 0.58806 0.45582 0.11447 0.0
C650 C 0.61073 0.4409 0.14225 0.0
loop_
_geom_bond_atom_site_label_1
_geom_bond_atom_site_label_2
_geom_bond_distance
_geom_bond_site_symmetry_2
_ccdc_geom_bond_type
C0 C1 1.384 . S
C0 H13 0.947 . S
C0 C35 1.382 . S
C1 C0 1.384 . S
C1 C2 1.378 . S
C2 C1 1.378 . S
C2 C3 1.378 . S
C2 H14 0.952 . S
C3 C2 1.378 . S
C3 H15 0.950 . S
C3 C34 1.383 . S
H4 C23 0.947 . S
H5 C24 0.946 . S
H6 C26 0.953 . S
H7 C27 0.945 . S
H8 C29 0.952 . S
H9 C30 0.949 . S
H10 C32 0.950 . S
H11 C33 0.948 . S
H12 C35 0.951 . S
H13 C0 0.947 . S
H14 C2 0.952 . S
H15 C3 0.950 . S
N16 C19 1.382 . S
N16 C21 1.363 . S
N17 C19 1.371 . S
N17 C20 1.372 . S
N18 C20 1.361 . S
N18 C21 1.377 . S
C19 N16 1.382 . S
C19 N17 1.371 . S
C19 C22 1.480 . S
C20 N17 1.372 . S
C20 N18 1.361 . S
C20 C28 1.457 . S
C21 N16 1.363 . S
C21 N18 1.377 . S
C21 C34 1.479 . S
C22 C19 1.480 . S
C22 C23 1.383 . S
C22 C27 1.385 . S
C23 H4 0.947 . S
C23 C22 1.383 . S
C23 C24 1.388 . S
C24 H5 0.946 . S
C24 C23 1.388 . S
C24 C25 1.384 . S
C25 C24 1.384 . S
C25 C26 1.377 . S
C26 H6 0.953 . S
C26 C25 1.377 . S
C26 C27 1.369 . S
C27 H7 0.945 . S
C27 C22 1.385 . S
C27 C26 1.369 . S
C28 C20 1.457 . S
C28 C29 1.372 . S
C28 C33 1.364 . S
C29 H8 0.952 . S
C29 C28 1.372 . S
C29 C30 1.389 . S
C30 H9 0.949 . S
C30 C29 1.389 . S
C30 C31 1.387 . S
C31 C30 1.387 . S
C31 C32 1.372 . S
C32 H10 0.950 . S
C32 C31 1.372 . S
C32 C33 1.379 . S
C33 H11 0.948 . S
C33 C28 1.364 . S
C33 C32 1.379 . S
C34 C3 1.383 . S
C34 C21 1.479 . S
C34 C35 1.398 . S
C35 C0 1.382 . S
C35 H12 0.951 . S
C35 C34 1.398 . S
C36 C37 1.384 . S
C36 H49 0.947 . S
C36 C71 1.382 . S
C37 C36 1.384 . S
C37 C38 1.378 . S
C38 C37 1.378 . S
C38 C39 1.378 . S
C38 H50 0.952 . S
C39 C38 1.378 . S
C39 H51 0.950 . S
C39 C70 1.383 . S
H40 C59 0.947 . S
H41 C60 0.946 . S
H42 C62 0.953 . S
H43 C63 0.945 . S
H44 C65 0.952 . S
H45 C66 0.949 . S
H46 C68 0.950 . S
H47 C69 0.948 . S
H48 C71 0.951 . S
H49 C36 0.947 . S
H50 C38 0.952 . S
H51 C39 0.950 . S
N52 C55 1.382 . S
N52 C57 1.363 . S
N53 C55 1.371 . S
N53 C56 1.372 . S
N54 C56 1.361 . S
N54 C57 1.377 . S
C55 N52 1.382 . S
C55 N53 1.371 . S
C55 C58 1.480 . S
C56 N53 1.372 . S
C56 N54 1.361 . S
C56 C64 1.457 . S
C57 N52 1.363 . S
C57 N54 1.377 . S
C57 C70 1.479 . S
C58 C55 1.480 . S
C58 C59 1.383 . S
C58 C63 1.385 . S
C59 H40 0.947 . S
C59 C58 1.383 . S
C59 C60 1.388 . S
C60 H41 0.946 . S
C60 C59 1.388 . S
C60 C61 1.384 . S
C61 C60 1.384 . S
C61 C62 1.377 . S
C62 H42 0.953 . S
C62 C61 1.377 . S
C62 C63 1.369 . S
C63 H43 0.945 . S
C63 C58 1.385 . S
C63 C62 1.369 . S
C64 C56 1.457 . S
C64 C65 1.372 . S
C64 C69 1.364 . S
C65 H44 0.952 . S
C65 C64 1.372 . S
C65 C66 1.389 . S
C66 H45 0.949 . S
C66 C65 1.389 . S
C66 C67 1.387 . S
C67 C66 1.387 . S
C67 C68 1.372 . S
C68 H46 0.950 . S
C68 C67 1.372 . S
C68 C69 1.379 . S
C69 H47 0.948 . S
C69 C64 1.364 . S
C69 C68 1.379 . S
C70 C39 1.383 . S
C70 C57 1.479 . S
C70 C71 1.398 . S
C71 C36 1.382 . S
C71 H48 0.951 . S
C71 C70 1.398 . S
C72 C73 1.384 . S
C72 H85 0.947 . S
C72 C107 1.382 . S
C73 C72 1.384 . S
C73 C74 1.378 . S
C74 C73 1.378 . S
C74 C75 1.378 . S
C74 H86 0.952 . S
C75 C74 1.378 . S
C75 H87 0.950 . S
C75 C106 1.383 . S
H76 C95 0.947 . S
H77 C96 0.946 . S
H78 C98 0.953 . S
H79 C99 0.945 . S
H80 C101 0.952 . S
H81 C102 0.949 . S
H82 C104 0.950 . S
H83 C105 0.948 . S
H84 C107 0.951 . S
H85 C72 0.947 . S
H86 C74 0.952 . S
H87 C75 0.950 . S
N88 C91 1.382 . S
N88 C93 1.363 . S
N89 C91 1.371 . S
N89 C92 1.372 . S
N90 C92 1.361 . S
N90 C93 1.377 . S
C91 N88 1.382 . S
C91 N89 1.371 . S
C91 C94 1.480 . S
C92 N89 1.372 . S
C92 N90 1.361 . S
C92 C100 1.457 . S
C93 N88 1.363 . S
C93 N90 1.377 . S
C93 C106 1.479 . S
C94 C91 1.480 . S
C94 C95 1.383 . S
C94 C99 1.385 . S
C95 H76 0.947 . S
C95 C94 1.383 . S
C95 C96 1.388 . S
C96 H77 0.946 . S
C96 C95 1.388 . S
C96 C97 1.384 . S
C97 C96 1.384 . S
C97 C98 1.377 . S
C98 H78 0.953 . S
C98 C97 1.377 . S
C98 C99 1.369 . S
C99 H79 0.945 . S
C99 C94 1.385 . S
C99 C98 1.369 . S
C100 C92 1.457 . S
C100 C101 1.372 . S
C100 C105 1.364 . S
C101 H80 0.952 . S
C101 C100 1.372 . S
C101 C102 1.389 . S
C102 H81 0.949 . S
C102 C101 1.389 . S
C102 C103 1.387 . S
C103 C102 1.387 . S
C103 C104 1.372 . S
C104 H82 0.950 . S
C104 C103 1.372 . S
C104 C105 1.379 . S
C105 H83 0.948 . S
C105 C100 1.364 . S
C105 C104 1.379 . S
C106 C75 1.383 . S
C106 C93 1.479 . S
C106 C107 1.398 . S
C107 C72 1.382 . S
C107 H84 0.951 . S
C107 C106 1.398 . S
C108 C109 1.384 . S
C108 H121 0.947 . S
C108 C143 1.382 . S
C109 C108 1.384 . S
C109 C110 1.378 . S
C110 C109 1.378 . S
C110 C111 1.378 . S
C110 H122 0.952 . S
C111 C110 1.378 . S
C111 H123 0.950 . S
C111 C142 1.383 . S
H112 C131 0.947 . S
H113 C132 0.946 . S
H114 C134 0.953 . S
H115 C135 0.945 . S
H116 C137 0.952 . S
H117 C138 0.949 . S
H118 C140 0.950 . S
H119 C141 0.948 . S
H120 C143 0.951 . S
H121 C108 0.947 . S
H122 C110 0.952 . S
H123 C111 0.950 . S
N124 C127 1.382 . S
N124 C129 1.363 . S
N125 C127 1.371 . S
N125 C128 1.372 . S
N126 C128 1.361 . S
N126 C129 1.377 . S
C127 N124 1.382 . S
C127 N125 1.371 . S
C127 C130 1.480 . S
C128 N125 1.372 . S
C128 N126 1.361 . S
C128 C136 1.457 . S
C129 N124 1.363 . S
C129 N126 1.377 . S
C129 C142 1.479 . S
C130 C127 1.480 . S
C130 C131 1.383 . S
C130 C135 1.385 . S
C131 H112 0.947 . S
C131 C130 1.383 . S
C131 C132 1.388 . S
C132 H113 0.946 . S
C132 C131 1.388 . S
C132 C133 1.384 . S
C133 C132 1.384 . S
C133 C134 1.377 . S
C134 H114 0.953 . S
C134 C133 1.377 . S
C134 C135 1.369 . S
C135 H115 0.945 . S
C135 C130 1.385 . S
C135 C134 1.369 . S
C136 C128 1.457 . S
C136 C137 1.372 . S
C136 C141 1.364 . S
C137 H116 0.952 . S
C137 C136 1.372 . S
C137 C138 1.389 . S
C138 H117 0.949 . S
C138 C137 1.389 . S
C138 C139 1.387 . S
C139 C138 1.387 . S
C139 C140 1.372 . S
C140 H118 0.950 . S
C140 C139 1.372 . S
C140 C141 1.379 . S
C141 H119 0.948 . S
C141 C136 1.364 . S
C141 C140 1.379 . S
C142 C111 1.383 . S
C142 C129 1.479 . S
C142 C143 1.398 . S
C143 C108 1.382 . S
C143 H120 0.951 . S
C143 C142 1.398 . S
C144 C145 1.384 . S
C144 H157 0.947 . S
C144 C179 1.382 . S
C145 C144 1.384 . S
C145 C146 1.378 . S
C146 C145 1.378 . S
C146 C147 1.378 . S
C146 H158 0.952 . S
C147 C146 1.378 . S
C147 H159 0.950 . S
C147 C178 1.383 . S
H148 C167 0.947 . S
H149 C168 0.946 . S
H150 C170 0.953 . S
H151 C171 0.945 . S
H152 C173 0.952 . S
H153 C174 0.949 . S
H154 C176 0.950 . S
H155 C177 0.948 . S
H156 C179 0.951 . S
H157 C144 0.947 . S
H158 C146 0.952 . S
H159 C147 0.950 . S
N160 C163 1.382 . S
N160 C165 1.363 . S
N161 C163 1.371 . S
N161 C164 1.372 . S
N162 C164 1.361 . S
N162 C165 1.377 . S
C163 N160 1.382 . S
C163 N161 1.371 . S
C163 C166 1.480 . S
C164 N161 1.372 . S
C164 N162 1.361 . S
C164 C172 1.457 . S
C165 N160 1.363 . S
C165 N162 1.377 . S
C165 C178 1.479 . S
C166 C163 1.480 . S
C166 C167 1.383 . S
C166 C171 1.385 . S
C167 H148 0.947 . S
C167 C166 1.383 . S
C167 C168 1.388 . S
C168 H149 0.946 . S
C168 C167 1.388 . S
C168 C169 1.384 . S
C169 C168 1.384 . S
C169 C170 1.377 . S
C170 H150 0.953 . S
C170 C169 1.377 . S
C170 C171 1.369 . S
C171 H151 0.945 . S
C171 C166 1.385 . S
C171 C170 1.369 . S
C172 C164 1.457 . S
C172 C173 1.372 . S
C172 C177 1.364 . S
C173 H152 0.952 . S
C173 C172 1.372 . S
C173 C174 1.389 . S
C174 H153 0.949 . S
C174 C173 1.389 . S
C174 C175 1.387 . S
C175 C174 1.387 . S
C175 C176 1.372 . S
C176 H154 0.950 . S
C176 C175 1.372 . S
C176 C177 1.379 . S
C177 H155 0.948 . S
C177 C172 1.364 . S
C177 C176 1.379 . S
C178 C147 1.383 . S
C178 C165 1.479 . S
C178 C179 1.398 . S
C179 C144 1.382 . S
C179 H156 0.951 . S
C179 C178 1.398 . S
C180 C181 1.384 . S
C180 H193 0.947 . S
C180 C215 1.382 . S
C181 C180 1.384 . S
C181 C182 1.378 . S
C182 C181 1.378 . S
C182 C183 1.378 . S
C182 H194 0.952 . S
C183 C182 1.378 . S
C183 H195 0.950 . S
C183 C214 1.383 . S
H184 C203 0.947 . S
H185 C204 0.946 . S
H186 C206 0.953 . S
H187 C207 0.945 . S
H188 C209 0.952 . S
H189 C210 0.949 . S
H190 C212 0.950 . S
H191 C213 0.948 . S
H192 C215 0.951 . S
H193 C180 0.947 . S
H194 C182 0.952 . S
H195 C183 0.950 . S
N196 C199 1.382 . S
N196 C201 1.363 . S
N197 C199 1.371 . S
N197 C200 1.372 . S
N198 C200 1.361 . S
N198 C201 1.377 . S
C199 N196 1.382 . S
C199 N197 1.371 . S
C199 C202 1.480 . S
C200 N197 1.372 . S
C200 N198 1.361 . S
C200 C208 1.457 . S
C201 N196 1.363 . S
C201 N198 1.377 . S
C201 C214 1.479 . S
C202 C199 1.480 . S
C202 C203 1.383 . S
C202 C207 1.385 . S
C203 H184 0.947 . S
C203 C202 1.383 . S
C203 C204 1.388 . S
C204 H185 0.946 . S
C204 C203 1.388 . S
C204 C205 1.384 . S
C205 C204 1.384 . S
C205 C206 1.377 . S
C206 H186 0.953 . S
C206 C205 1.377 . S
C206 C207 1.369 . S
C207 H187 0.945 . S
C207 C202 1.385 . S
C207 C206 1.369 . S
C208 C200 1.457 . S
C208 C209 1.372 . S
C208 C213 1.364 . S
C209 H188 0.952 . S
C209 C208 1.372 . S
C209 C210 1.389 . S
C210 H189 0.949 . S
C210 C209 1.389 . S
C210 C211 1.387 . S
C211 C210 1.387 . S
C211 C212 1.372 . S
C212 H190 0.950 . S
C212 C211 1.372 . S
C212 C213 1.379 . S
C213 H191 0.948 . S
C213 C208 1.364 . S
C213 C212 1.379 . S
C214 C183 1.383 . S
C214 C201 1.479 . S
C214 C215 1.398 . S
C215 C180 1.382 . S
C215 H192 0.951 . S
C215 C214 1.398 . S
C216 C217 1.384 . S
C216 H229 0.947 . S
C216 C251 1.382 . S
C217 C216 1.384 . S
C217 C218 1.378 . S
C218 C217 1.378 . S
C218 C219 1.378 . S
C218 H230 0.952 . S
C219 C218 1.378 . S
C219 H231 0.950 . S
C219 C250 1.383 . S
H220 C239 0.947 . S
H221 C240 0.946 . S
H222 C242 0.953 . S
H223 C243 0.945 . S
H224 C245 0.952 . S
H225 C246 0.949 . S
H226 C248 0.950 . S
H227 C249 0.948 . S
H228 C251 0.951 . S
H229 C216 0.947 . S
H230 C218 0.952 . S
H231 C219 0.950 . S
N232 C235 1.382 . S
N232 C237 1.363 . S
N233 C235 1.371 . S
N233 C236 1.372 . S
N234 C236 1.361 . S
N234 C237 1.377 . S
C235 N232 1.382 . S
C235 N233 1.371 . S
C235 C238 1.480 . S
C236 N233 1.372 . S
C236 N234 1.361 . S
C236 C244 1.457 . S
C237 N232 1.363 . S
C237 N234 1.377 . S
C237 C250 1.479 . S
C238 C235 1.480 . S
C238 C239 1.383 . S
C238 C243 1.385 . S
C239 H220 0.947 . S
C239 C238 1.383 . S
C239 C240 1.388 . S
C240 H221 0.946 . S
C240 C239 1.388 . S
C240 C241 1.384 . S
C241 C240 1.384 . S
C241 C242 1.377 . S
C242 H222 0.953 . S
C242 C241 1.377 . S
C242 C243 1.369 . S
C243 H223 0.945 . S
C243 C238 1.385 . S
C243 C242 1.369 . S
C244 C236 1.457 . S
C244 C245 1.372 . S
C244 C249 1.364 . S
C245 H224 0.952 . S
C245 C244 1.372 . S
C245 C246 1.389 . S
C246 H225 0.949 . S
C246 C245 1.389 . S
C246 C247 1.387 . S
C247 C246 1.387 . S
C247 C248 1.372 . S
C248 H226 0.950 . S
C248 C247 1.372 . S
C248 C249 1.379 . S
C249 H227 0.948 . S
C249 C244 1.364 . S
C249 C248 1.379 . S
C250 C219 1.383 . S
C250 C237 1.479 . S
C250 C251 1.398 . S
C251 C216 1.382 . S
C251 H228 0.951 . S
C251 C250 1.398 . S
C252 C253 1.384 . S
C252 H265 0.947 . S
C252 C287 1.382 . S
C253 C252 1.384 . S
C253 C254 1.378 . S
C254 C253 1.378 . S
C254 C255 1.378 . S
C254 H266 0.952 . S
C255 C254 1.378 . S
C255 H267 0.950 . S
C255 C286 1.383 . S
H256 C275 0.947 . S
H257 C276 0.946 . S
H258 C278 0.953 . S
H259 C279 0.945 . S
H260 C281 0.952 . S
H261 C282 0.949 . S
H262 C284 0.950 . S
H263 C285 0.948 . S
H264 C287 0.951 . S
H265 C252 0.947 . S
H266 C254 0.952 . S
H267 C255 0.950 . S
N268 C271 1.382 . S
N268 C273 1.363 . S
N269 C271 1.371 . S
N269 C272 1.372 . S
N270 C272 1.361 . S
N270 C273 1.377 . S
C271 N268 1.382 . S
C271 N269 1.371 . S
C271 C274 1.480 . S
C272 N269 1.372 . S
C272 N270 1.361 . S
C272 C280 1.457 . S
C273 N268 1.363 . S
C273 N270 1.377 . S
C273 C286 1.479 . S
C274 C271 1.480 . S
C274 C275 1.383 . S
C274 C279 1.385 . S
C275 H256 0.947 . S
C275 C274 1.383 . S
C275 C276 1.388 . S
C276 H257 0.946 . S
C276 C275 1.388 . S
C276 C277 1.384 . S
C277 C276 1.384 . S
C277 C278 1.377 . S
C278 H258 0.953 . S
C278 C277 1.377 . S
C278 C279 1.369 . S
C279 H259 0.945 . S
C279 C274 1.385 . S
C279 C278 1.369 . S
C280 C272 1.457 . S
C280 C281 1.372 . S
C280 C285 1.364 . S
C281 H260 0.952 . S
C281 C280 1.372 . S
C281 C282 1.389 . S
C282 H261 0.949 . S
C282 C281 1.389 . S
C282 C283 1.387 . S
C283 C282 1.387 . S
C283 C284 1.372 . S
C284 H262 0.950 . S
C284 C283 1.372 . S
C284 C285 1.379 . S
C285 H263 0.948 . S
C285 C280 1.364 . S
C285 C284 1.379 . S
C286 C255 1.383 . S
C286 C273 1.479 . S
C286 C287 1.398 . S
C287 C252 1.382 . S
C287 H264 0.951 . S
C287 C286 1.398 . S
Co288 O291 2.042 . S
Co288 O298 2.264 . S
Co288 O317 2.286 . S
Co288 O318 2.069 . S
Co288 O320 2.015 . S
Co289 O291 2.122 . S
Co289 O297 2.073 . S
Co289 O298 2.327 . S
Co289 O299 1.976 . S
Co290 O291 2.087 . S
Co290 O293 2.087 1_455 S
Co290 O300 2.111 . S
Co290 O301 2.143 1_455 S
Co290 O305 2.111 1_455 S
Co290 O319 2.143 . S
O291 Co288 2.042 . S
O291 Co289 2.122 . S
O291 Co290 2.087 . S
O291 H292 0.980 . S
H292 O291 0.980 . S
O293 Co290 2.087 1_655 S
O293 Co294 2.042 . S
O293 Co295 2.122 . S
O293 H296 0.980 . S
Co294 O293 2.042 . S
Co294 O302 2.286 . S
Co294 O303 2.069 . S
Co294 O304 2.015 . S
Co294 O307 2.264 . S
Co295 O293 2.122 . S
Co295 O306 1.976 . S
Co295 O307 2.327 . S
Co295 O308 2.073 . S
H296 O293 0.980 . S
O297 Co289 2.073 . S
O297 C312 1.245 . S
O298 Co288 2.264 . S
O298 Co289 2.327 . S
O298 C312 1.257 . S
O299 Co289 1.976 . S
O299 C311 1.251 . S
O300 Co290 2.111 . S
O300 C311 1.274 . S
O301 Co290 2.143 1_655 S
O301 C314 1.246 . S
O302 Co294 2.286 . S
O302 C313 1.259 . S
O303 Co294 2.069 . S
O303 C313 1.289 . S
O304 Co294 2.015 . S
O304 C314 1.257 . S
O305 Co290 2.111 1_655 S
O305 C315 1.274 . S
O306 Co295 1.976 . S
O306 C315 1.251 . S
O307 Co294 2.264 . S
O307 Co295 2.327 . S
O307 C316 1.257 . S
O308 Co295 2.073 . S
O308 C316 1.245 . S
C309 O317 1.259 . S
C309 O318 1.289 . S
C310 O319 1.246 . S
C310 O320 1.257 . S
C311 O299 1.251 . S
C311 O300 1.274 . S
C312 O297 1.245 . S
C312 O298 1.257 . S
C313 O302 1.259 . S
C313 O303 1.289 . S
C314 O301 1.246 . S
C314 O304 1.257 . S
C315 O305 1.274 . S
C315 O306 1.251 . S
C316 O307 1.257 . S
C316 O308 1.245 . S
O317 Co288 2.286 . S
O317 C309 1.259 . S
O318 Co288 2.069 . S
O318 C309 1.289 . S
O319 Co290 2.143 . S
O319 C310 1.246 . S
O320 Co288 2.015 . S
O320 C310 1.257 . S
Co321 O324 2.042 . S
Co321 O331 2.264 . S
Co321 O350 2.286 . S
Co321 O351 2.069 . S
Co321 O353 2.015 . S
Co322 O324 2.122 . S
Co322 O330 2.073 . S
Co322 O331 2.327 . S
Co322 O332 1.976 . S
Co323 O324 2.087 1_545 S
Co323 O326 2.087 . S
Co323 O333 2.111 1_545 S
Co323 O334 2.143 . S
Co323 O338 2.111 . S
Co323 O352 2.143 1_545 S
O324 Co321 2.042 . S
O324 Co322 2.122 . S
O324 Co323 2.087 1_565 S
O324 H325 0.980 . S
H325 O324 0.980 . S
O326 Co323 2.087 . S
O326 Co327 2.042 . S
O326 Co328 2.122 . S
O326 H329 0.980 . S
Co327 O326 2.042 . S
Co327 O335 2.286 . S
Co327 O336 2.069 . S
Co327 O337 2.015 . S
Co327 O340 2.264 . S
Co328 O326 2.122 . S
Co328 O339 1.976 . S
Co328 O340 2.327 . S
Co328 O341 2.073 . S
H329 O326 0.980 . S
O330 Co322 2.073 . S
O330 C345 1.245 . S
O331 Co321 2.264 . S
O331 Co322 2.327 . S
O331 C345 1.257 . S
O332 Co322 1.976 . S
O332 C344 1.251 . S
O333 Co323 2.111 1_565 S
O333 C344 1.274 . S
O334 Co323 2.143 . S
O334 C347 1.246 . S
O335 Co327 2.286 . S
O335 C346 1.259 . S
O336 Co327 2.069 . S
O336 C346 1.289 . S
O337 Co327 2.015 . S
O337 C347 1.257 . S
O338 Co323 2.111 . S
O338 C348 1.274 . S
O339 Co328 1.976 . S
O339 C348 1.251 . S
O340 Co327 2.264 . S
O340 Co328 2.327 . S
O340 C349 1.257 . S
O341 Co328 2.073 . S
O341 C349 1.245 . S
C342 O350 1.259 . S
C342 O351 1.289 . S
C343 O352 1.246 . S
C343 O353 1.257 . S
C344 O332 1.251 . S
C344 O333 1.274 . S
C345 O330 1.245 . S
C345 O331 1.257 . S
C346 O335 1.259 . S
C346 O336 1.289 . S
C347 O334 1.246 . S
C347 O337 1.257 . S
C348 O338 1.274 . S
C348 O339 1.251 . S
C349 O340 1.257 . S
C349 O341 1.245 . S
O350 Co321 2.286 . S
O350 C342 1.259 . S
O351 Co321 2.069 . S
O351 C342 1.289 . S
O352 Co323 2.143 1_565 S
O352 C343 1.246 . S
O353 Co321 2.015 . S
O353 C343 1.257 . S
Co354 O357 2.042 . S
Co354 O364 2.264 . S
Co354 O383 2.286 . S
Co354 O384 2.069 . S
Co354 O386 2.015 . S
Co355 O357 2.122 . S
Co355 O363 2.073 . S
Co355 O364 2.327 . S
Co355 O365 1.976 . S
Co356 O357 2.087 . S
Co356 O359 2.087 1_554 S
Co356 O366 2.111 . S
Co356 O367 2.143 1_554 S
Co356 O371 2.111 1_554 S
Co356 O385 2.143 . S
O357 Co354 2.042 . S
O357 Co355 2.122 . S
O357 Co356 2.087 . S
O357 H358 0.980 . S
H358 O357 0.980 . S
O359 Co356 2.087 1_556 S
O359 Co360 2.042 . S
O359 Co361 2.122 . S
O359 H362 0.980 . S
Co360 O359 2.042 . S
Co360 O368 2.286 . S
Co360 O369 2.069 . S
Co360 O370 2.015 . S
Co360 O373 2.264 . S
Co361 O359 2.122 . S
Co361 O372 1.976 . S
Co361 O373 2.327 . S
Co361 O374 2.073 . S
H362 O359 0.980 . S
O363 Co355 2.073 . S
O363 C378 1.245 . S
O364 Co354 2.264 . S
O364 Co355 2.327 . S
O364 C378 1.257 . S
O365 Co355 1.976 . S
O365 C377 1.251 . S
O366 Co356 2.111 . S
O366 C377 1.274 . S
O367 Co356 2.143 1_556 S
O367 C380 1.246 . S
O368 Co360 2.286 . S
O368 C379 1.259 . S
O369 Co360 2.069 . S
O369 C379 1.289 . S
O370 Co360 2.015 . S
O370 C380 1.257 . S
O371 Co356 2.111 1_556 S
O371 C381 1.274 . S
O372 Co361 1.976 . S
O372 C381 1.251 . S
O373 Co360 2.264 . S
O373 Co361 2.327 . S
O373 C382 1.257 . S
O374 Co361 2.073 . S
O374 C382 1.245 . S
C375 O383 1.259 . S
C375 O384 1.289 . S
C376 O385 1.246 . S
C376 O386 1.257 . S
C377 O365 1.251 . S
C377 O366 1.274 . S
C378 O363 1.245 . S
C378 O364 1.257 . S
C379 O368 1.259 . S
C379 O369 1.289 . S
C380 O367 1.246 . S
C380 O370 1.257 . S
C381 O371 1.274 . S
C381 O372 1.251 . S
C382 O373 1.257 . S
C382 O374 1.245 . S
O383 Co354 2.286 . S
O383 C375 1.259 . S
O384 Co354 2.069 . S
O384 C375 1.289 . S
O385 Co356 2.143 . S
O385 C376 1.246 . S
O386 Co354 2.015 . S
O386 C376 1.257 . S
C387 C388 1.369 . S
C387 C389 1.419 . S
C387 H391 0.930 . S
C388 C387 1.369 . S
C388 C397 1.429 . S
C389 C387 1.419 . S
C389 C390 1.363 . S
C389 H392 0.929 . S
C390 C389 1.363 . S
C390 C396 1.428 . S
H391 C387 0.930 . S
H392 C389 0.929 . S
S393 N394 1.613 . S
S393 N395 1.610 . S
N394 S393 1.613 . S
N394 C397 1.350 . S
N395 S393 1.610 . S
N395 C396 1.351 . S
C396 C390 1.428 . S
C396 N395 1.351 . S
C396 C397 1.434 . S
C397 C388 1.429 . S
C397 N394 1.350 . S
C397 C396 1.434 . S
C398 C399 1.369 . S
C398 C400 1.419 . S
C398 H402 0.930 . S
C399 C398 1.369 . S
C399 C408 1.429 . S
C400 C398 1.419 . S
C400 C401 1.363 . S
C400 H403 0.929 . S
C401 C400 1.363 . S
C401 C407 1.428 . S
H402 C398 0.930 . S
H403 C400 0.929 . S
S404 N405 1.613 . S
S404 N406 1.610 . S
N405 S404 1.613 . S
N405 C408 1.350 . S
N406 S404 1.610 . S
N406 C407 1.351 . S
C407 C401 1.428 . S
C407 N406 1.351 . S
C407 C408 1.434 . S
C408 C399 1.429 . S
C408 N405 1.350 . S
C408 C407 1.434 . S
C409 C410 1.369 . S
C409 C411 1.419 . S
C409 H413 0.930 . S
C410 C409 1.369 . S
C410 C419 1.429 . S
C411 C409 1.419 . S
C411 C412 1.363 . S
C411 H414 0.929 . S
C412 C411 1.363 . S
C412 C418 1.428 . S
H413 C409 0.930 . S
H414 C411 0.929 . S
S415 N416 1.613 . S
S415 N417 1.610 . S
N416 S415 1.613 . S
N416 C419 1.350 . S
N417 S415 1.610 . S
N417 C418 1.351 . S
C418 C412 1.428 . S
C418 N417 1.351 . S
C418 C419 1.434 . S
C419 C410 1.429 . S
C419 N416 1.350 . S
C419 C418 1.434 . S
C420 C421 1.369 . S
C420 C422 1.419 . S
C420 H424 0.930 . S
C421 C420 1.369 . S
C421 C430 1.429 . S
C422 C420 1.419 . S
C422 C423 1.363 . S
C422 H425 0.929 . S
C423 C422 1.363 . S
C423 C429 1.428 . S
H424 C420 0.930 . S
H425 C422 0.929 . S
S426 N427 1.613 . S
S426 N428 1.610 . S
N427 S426 1.613 . S
N427 C430 1.350 . S
N428 S426 1.610 . S
N428 C429 1.351 . S
C429 C423 1.428 . S
C429 N428 1.351 . S
C429 C430 1.434 . S
C430 C421 1.429 . S
C430 N427 1.350 . S
C430 C429 1.434 . S
C431 C432 1.369 . S
C431 C433 1.419 . S
C431 H435 0.930 . S
C432 C431 1.369 . S
C432 C441 1.429 . S
C433 C431 1.419 . S
C433 C434 1.363 . S
C433 H436 0.929 . S
C434 C433 1.363 . S
C434 C440 1.428 . S
H435 C431 0.930 . S
H436 C433 0.929 . S
S437 N438 1.613 . S
S437 N439 1.610 . S
N438 S437 1.613 . S
N438 C441 1.350 . S
N439 S437 1.610 . S
N439 C440 1.351 . S
C440 C434 1.428 . S
C440 N439 1.351 . S
C440 C441 1.434 . S
C441 C432 1.429 . S
C441 N438 1.350 . S
C441 C440 1.434 . S
C442 C443 1.369 . S
C442 C444 1.419 . S
C442 H446 0.930 . S
C443 C442 1.369 . S
C443 C452 1.429 . S
C444 C442 1.419 . S
C444 C445 1.363 . S
C444 H447 0.929 . S
C445 C444 1.363 . S
C445 C451 1.428 . S
H446 C442 0.930 . S
H447 C444 0.929 . S
S448 N449 1.613 . S
S448 N450 1.610 . S
N449 S448 1.613 . S
N449 C452 1.350 . S
N450 S448 1.610 . S
N450 C451 1.351 . S
C451 C445 1.428 . S
C451 N450 1.351 . S
C451 C452 1.434 . S
C452 C443 1.429 . S
C452 N449 1.350 . S
C452 C451 1.434 . S
C453 C454 1.369 . S
C453 C455 1.419 . S
C453 H457 0.930 . S
C454 C453 1.369 . S
C454 C463 1.429 . S
C455 C453 1.419 . S
C455 C456 1.363 . S
C455 H458 0.929 . S
C456 C455 1.363 . S
C456 C462 1.428 . S
H457 C453 0.930 . S
H458 C455 0.929 . S
S459 N460 1.613 . S
S459 N461 1.610 . S
N460 S459 1.613 . S
N460 C463 1.350 . S
N461 S459 1.610 . S
N461 C462 1.351 . S
C462 C456 1.428 . S
C462 N461 1.351 . S
C462 C463 1.434 . S
C463 C454 1.429 . S
C463 N460 1.350 . S
C463 C462 1.434 . S
C464 C465 1.369 . S
C464 C466 1.419 . S
C464 H468 0.930 . S
C465 C464 1.369 . S
C465 C474 1.429 . S
C466 C464 1.419 . S
C466 C467 1.363 . S
C466 H469 0.929 . S
C467 C466 1.363 . S
C467 C473 1.428 . S
H468 C464 0.930 . S
H469 C466 0.929 . S
S470 N471 1.613 . S
S470 N472 1.610 . S
N471 S470 1.613 . S
N471 C474 1.350 . S
N472 S470 1.610 . S
N472 C473 1.351 . S
C473 C467 1.428 . S
C473 N472 1.351 . S
C473 C474 1.434 . S
C474 C465 1.429 . S
C474 N471 1.350 . S
C474 C473 1.434 . S
C475 C476 1.369 . S
C475 C477 1.419 . S
C475 H479 0.930 . S
C476 C475 1.369 . S
C476 C485 1.429 . S
C477 C475 1.419 . S
C477 C478 1.363 . S
C477 H480 0.929 . S
C478 C477 1.363 . S
C478 C484 1.428 . S
H479 C475 0.930 . S
H480 C477 0.929 . S
S481 N482 1.613 . S
S481 N483 1.610 . S
N482 S481 1.613 . S
N482 C485 1.350 . S
N483 S481 1.610 . S
N483 C484 1.351 . S
C484 C478 1.428 . S
C484 N483 1.351 . S
C484 C485 1.434 . S
C485 C476 1.429 . S
C485 N482 1.350 . S
C485 C484 1.434 . S
C486 C487 1.369 . S
C486 C488 1.419 . S
C486 H490 0.930 . S
C487 C486 1.369 . S
C487 C496 1.429 . S
C488 C486 1.419 . S
C488 C489 1.363 . S
C488 H491 0.929 . S
C489 C488 1.363 . S
C489 C495 1.428 . S
H490 C486 0.930 . S
H491 C488 0.929 . S
S492 N493 1.613 . S
S492 N494 1.610 . S
N493 S492 1.613 . S
N493 C496 1.350 . S
N494 S492 1.610 . S
N494 C495 1.351 . S
C495 C489 1.428 . S
C495 N494 1.351 . S
C495 C496 1.434 . S
C496 C487 1.429 . S
C496 N493 1.350 . S
C496 C495 1.434 . S
C497 C498 1.369 . S
C497 C499 1.419 . S
C497 H501 0.930 . S
C498 C497 1.369 . S
C498 C507 1.429 . S
C499 C497 1.419 . S
C499 C500 1.363 . S
C499 H502 0.929 . S
C500 C499 1.363 . S
C500 C506 1.428 . S
H501 C497 0.930 . S
H502 C499 0.929 . S
S503 N504 1.613 . S
S503 N505 1.610 . S
N504 S503 1.613 . S
N504 C507 1.350 . S
N505 S503 1.610 . S
N505 C506 1.351 . S
C506 C500 1.428 . S
C506 N505 1.351 . S
C506 C507 1.434 . S
C507 C498 1.429 . S
C507 N504 1.350 . S
C507 C506 1.434 . S
C508 C509 1.369 . S
C508 C510 1.419 . S
C508 H512 0.930 . S
C509 C508 1.369 . S
C509 C518 1.429 . S
C510 C508 1.419 . S
C510 C511 1.363 . S
C510 H513 0.929 . S
C511 C510 1.363 . S
C511 C517 1.428 . S
H512 C508 0.930 . S
H513 C510 0.929 . S
S514 N515 1.613 . S
S514 N516 1.610 . S
N515 S514 1.613 . S
N515 C518 1.350 . S
N516 S514 1.610 . S
N516 C517 1.351 . S
C517 C511 1.428 . S
C517 N516 1.351 . S
C517 C518 1.434 . S
C518 C509 1.429 . S
C518 N515 1.350 . S
C518 C517 1.434 . S
C519 C520 1.369 . S
C519 C521 1.419 . S
C519 H523 0.930 . S
C520 C519 1.369 . S
C520 C529 1.429 . S
C521 C519 1.419 . S
C521 C522 1.363 . S
C521 H524 0.929 . S
C522 C521 1.363 . S
C522 C528 1.428 . S
H523 C519 0.930 . S
H524 C521 0.929 . S
S525 N526 1.613 . S
S525 N527 1.610 . S
N526 S525 1.613 . S
N526 C529 1.350 . S
N527 S525 1.610 . S
N527 C528 1.351 . S
C528 C522 1.428 . S
C528 N527 1.351 . S
C528 C529 1.434 . S
C529 C520 1.429 . S
C529 N526 1.350 . S
C529 C528 1.434 . S
C530 C531 1.369 . S
C530 C532 1.419 . S
C530 H534 0.930 . S
C531 C530 1.369 . S
C531 C540 1.429 . S
C532 C530 1.419 . S
C532 C533 1.363 . S
C532 H535 0.929 . S
C533 C532 1.363 . S
C533 C539 1.428 . S
H534 C530 0.930 . S
H535 C532 0.929 . S
S536 N537 1.613 . S
S536 N538 1.610 . S
N537 S536 1.613 . S
N537 C540 1.350 . S
N538 S536 1.610 . S
N538 C539 1.351 . S
C539 C533 1.428 . S
C539 N538 1.351 . S
C539 C540 1.434 . S
C540 C531 1.429 . S
C540 N537 1.350 . S
C540 C539 1.434 . S
C541 C542 1.369 . S
C541 C543 1.419 . S
C541 H545 0.930 . S
C542 C541 1.369 . S
C542 C551 1.429 . S
C543 C541 1.419 . S
C543 C544 1.363 . S
C543 H546 0.929 . S
C544 C543 1.363 . S
C544 C550 1.428 . S
H545 C541 0.930 . S
H546 C543 0.929 . S
S547 N548 1.613 . S
S547 N549 1.610 . S
N548 S547 1.613 . S
N548 C551 1.350 . S
N549 S547 1.610 . S
N549 C550 1.351 . S
C550 C544 1.428 . S
C550 N549 1.351 . S
C550 C551 1.434 . S
C551 C542 1.429 . S
C551 N548 1.350 . S
C551 C550 1.434 . S
C552 C553 1.369 . S
C552 C554 1.419 . S
C552 H556 0.930 . S
C553 C552 1.369 . S
C553 C562 1.429 . S
C554 C552 1.419 . S
C554 C555 1.363 . S
C554 H557 0.929 . S
C555 C554 1.363 . S
C555 C561 1.428 . S
H556 C552 0.930 . S
H557 C554 0.929 . S
S558 N559 1.613 . S
S558 N560 1.610 . S
N559 S558 1.613 . S
N559 C562 1.350 . S
N560 S558 1.610 . S
N560 C561 1.351 . S
C561 C555 1.428 . S
C561 N560 1.351 . S
C561 C562 1.434 . S
C562 C553 1.429 . S
C562 N559 1.350 . S
C562 C561 1.434 . S
C563 C564 1.369 . S
C563 C565 1.419 . S
C563 H567 0.930 . S
C564 C563 1.369 . S
C564 C573 1.429 . S
C565 C563 1.419 . S
C565 C566 1.363 . S
C565 H568 0.929 . S
C566 C565 1.363 . S
C566 C572 1.428 . S
H567 C563 0.930 . S
H568 C565 0.929 . S
S569 N570 1.613 . S
S569 N571 1.610 . S
N570 S569 1.613 . S
N570 C573 1.350 . S
N571 S569 1.610 . S
N571 C572 1.351 . S
C572 C566 1.428 . S
C572 N571 1.351 . S
C572 C573 1.434 . S
C573 C564 1.429 . S
C573 N570 1.350 . S
C573 C572 1.434 . S
C574 C575 1.369 . S
C574 C576 1.419 . S
C574 H578 0.930 . S
C575 C574 1.369 . S
C575 C584 1.429 . S
C576 C574 1.419 . S
C576 C577 1.363 . S
C576 H579 0.929 . S
C577 C576 1.363 . S
C577 C583 1.428 . S
H578 C574 0.930 . S
H579 C576 0.929 . S
S580 N581 1.613 . S
S580 N582 1.610 . S
N581 S580 1.613 . S
N581 C584 1.350 . S
N582 S580 1.610 . S
N582 C583 1.351 . S
C583 C577 1.428 . S
C583 N582 1.351 . S
C583 C584 1.434 . S
C584 C575 1.429 . S
C584 N581 1.350 . S
C584 C583 1.434 . S
C585 C586 1.369 . S
C585 C587 1.419 . S
C585 H589 0.930 . S
C586 C585 1.369 . S
C586 C595 1.429 . S
C587 C585 1.419 . S
C587 C588 1.363 . S
C587 H590 0.929 . S
C588 C587 1.363 . S
C588 C594 1.428 . S
H589 C585 0.930 . S
H590 C587 0.929 . S
S591 N592 1.613 . S
S591 N593 1.610 . S
N592 S591 1.613 . S
N592 C595 1.350 . S
N593 S591 1.610 . S
N593 C594 1.351 . S
C594 C588 1.428 . S
C594 N593 1.351 . S
C594 C595 1.434 . S
C595 C586 1.429 . S
C595 N592 1.350 . S
C595 C594 1.434 . S
C596 C597 1.369 . S
C596 C598 1.419 . S
C596 H600 0.930 . S
C597 C596 1.369 . S
C597 C606 1.429 . S
C598 C596 1.419 . S
C598 C599 1.363 . S
C598 H601 0.929 . S
C599 C598 1.363 . S
C599 C605 1.428 . S
H600 C596 0.930 . S
H601 C598 0.929 . S
S602 N603 1.613 . S
S602 N604 1.610 . S
N603 S602 1.613 . S
N603 C606 1.350 . S
N604 S602 1.610 . S
N604 C605 1.351 . S
C605 C599 1.428 . S
C605 N604 1.351 . S
C605 C606 1.434 . S
C606 C597 1.429 . S
C606 N603 1.350 . S
C606 C605 1.434 . S
C607 C608 1.369 . S
C607 C609 1.419 . S
C607 H611 0.930 . S
C608 C607 1.369 . S
C608 C617 1.429 . S
C609 C607 1.419 . S
C609 C610 1.363 . S
C609 H612 0.929 . S
C610 C609 1.363 . S
C610 C616 1.428 . S
H611 C607 0.930 . S
H612 C609 0.929 . S
S613 N614 1.613 . S
S613 N615 1.610 . S
N614 S613 1.613 . S
N614 C617 1.350 . S
N615 S613 1.610 . S
N615 C616 1.351 . S
C616 C610 1.428 . S
C616 N615 1.351 . S
C616 C617 1.434 . S
C617 C608 1.429 . S
C617 N614 1.350 . S
C617 C616 1.434 . S
C618 C619 1.369 . S
C618 C620 1.419 . S
C618 H622 0.930 . S
C619 C618 1.369 . S
C619 C628 1.429 . S
C620 C618 1.419 . S
C620 C621 1.363 . S
C620 H623 0.929 . S
C621 C620 1.363 . S
C621 C627 1.428 . S
H622 C618 0.930 . S
H623 C620 0.929 . S
S624 N625 1.613 . S
S624 N626 1.610 . S
N625 S624 1.613 . S
N625 C628 1.350 . S
N626 S624 1.610 . S
N626 C627 1.351 . S
C627 C621 1.428 . S
C627 N626 1.351 . S
C627 C628 1.434 . S
C628 C619 1.429 . S
C628 N625 1.350 . S
C628 C627 1.434 . S
C629 C630 1.369 . S
C629 C631 1.419 . S
C629 H633 0.930 . S
C630 C629 1.369 . S
C630 C639 1.429 . S
C631 C629 1.419 . S
C631 C632 1.363 . S
C631 H634 0.929 . S
C632 C631 1.363 . S
C632 C638 1.428 . S
H633 C629 0.930 . S
H634 C631 0.929 . S
S635 N636 1.613 . S
S635 N637 1.610 . S
N636 S635 1.613 . S
N636 C639 1.350 . S
N637 S635 1.610 . S
N637 C638 1.351 . S
C638 C632 1.428 . S
C638 N637 1.351 . S
C638 C639 1.434 . S
C639 C630 1.429 . S
C639 N636 1.350 . S
C639 C638 1.434 . S
C640 C641 1.369 . S
C640 C642 1.419 . S
C640 H644 0.930 . S
C641 C640 1.369 . S
C641 C650 1.429 . S
C642 C640 1.419 . S
C642 C643 1.363 . S
C642 H645 0.929 . S
C643 C642 1.363 . S
C643 C649 1.428 . S
H644 C640 0.930 . S
H645 C642 0.929 . S
S646 N647 1.613 . S
S646 N648 1.610 . S
N647 S646 1.613 . S
N647 C650 1.350 . S
N648 S646 1.610 . S
N648 C649 1.351 . S
C649 C643 1.428 . S
C649 N648 1.351 . S
C649 C650 1.434 . S
C650 C641 1.429 . S
C650 N647 1.350 . S
C650 C649 1.434 . S
C390 C312 1.183 . S
C388 C1 1.229 . S
C401 C348 1.678 . S
C399 C37 1.781 . S
C412 C313 1.452 . S
C410 C103 1.448 . S
C423 C343 1.590 . S
C421 C139 1.576 . S
C434 C310 1.538 . S
C432 C145 1.548 . S
C443 C205 1.714 . S
C445 C346 1.734 . S
C454 C247 1.288 . S
C456 C315 1.197 . S
C467 C345 1.529 . S
C465 C283 1.500 . S
C478 C349 1.533 . S
C476 C25 1.483 . S
C489 C314 1.545 . S
C487 C67 1.596 . S
C500 C342 1.727 . S
C498 C97 1.710 . S
C511 C311 1.189 . S
C509 C109 1.297 . S
C522 C344 1.664 . S
C520 C169 1.734 . S
C531 C181 1.441 . S
C533 C309 1.448 . S
C542 C217 1.556 . S
C544 C347 1.573 . S
C555 C316 1.180 . S
C553 C277 1.231 . S
C566 C378 1.600 . S
C564 C31 1.699 . S
C575 C175 1.990 . S
C577 C381 1.906 . S
C588 C380 1.736 . S
C586 C211 1.775 . S
C597 C241 1.981 . S
C599 C379 2.014 . S
C610 C382 1.581 . S
C608 C253 1.698 . S
C619 C73 1.761 . S
C621 C376 1.724 . S
C632 C375 2.011 . S
C630 C133 1.974 . S
C641 C61 2.030 . S
C643 C377 1.905 . S
