# Generated by pormake.
# Topology ssa, (4,4)-cn, num edge types: 1
# Building blocks:
#     Node 0, Type 0, BuildingBlock: GIZVER_clean_linker_0, # of connection points: 4
#     Node 1, Type 0, BuildingBlock: GIZVER_clean_linker_0, # of connection points: 4
#     Node 2, Type 0, BuildingBlock: GIZVER_clean_linker_0, # of connection points: 4
#     Node 3, Type 0, BuildingBlock: GIZVER_clean_linker_0, # of connection points: 4
#     Node 4, Type 0, BuildingBlock: GIZVER_clean_linker_0, # of connection points: 4
#     Node 5, Type 0, BuildingBlock: GIZVER_clean_linker_0, # of connection points: 4
#     Node 6, Type 1, BuildingBlock: MUDLON_clean_sbu_0, # of connection points: 4
#     Node 7, Type 1, BuildingBlock: MUDLON_clean_sbu_0, # of connection points: 4
#     Node 8, Type 1, BuildingBlock: MUDLON_clean_sbu_0, # of connection points: 4
#     Node 9, Type 1, BuildingBlock: MUDLON_clean_sbu_0, # of connection points: 4
#     Node 10, Type 1, BuildingBlock: MUDLON_clean_sbu_0, # of connection points: 4
#     Node 11, Type 1, BuildingBlock: MUDLON_clean_sbu_0, # of connection points: 4
#     Edge 12, Type (0, 1), BuildingBlock: CIFDUS_clean_linker_0, # of connection points: 2
#     Edge 13, Type (0, 1), BuildingBlock: CIFDUS_clean_linker_0, # of connection points: 2
#     Edge 14, Type (0, 1), BuildingBlock: CIFDUS_clean_linker_0, # of connection points: 2
#     Edge 15, Type (0, 1), BuildingBlock: CIFDUS_clean_linker_0, # of connection points: 2
#     Edge 16, Type (0, 1), BuildingBlock: CIFDUS_clean_linker_0, # of connection points: 2
#     Edge 17, Type (0, 1), BuildingBlock: CIFDUS_clean_linker_0, # of connection points: 2
#     Edge 18, Type (0, 1), BuildingBlock: CIFDUS_clean_linker_0, # of connection points: 2
#     Edge 19, Type (0, 1), BuildingBlock: CIFDUS_clean_linker_0, # of connection points: 2
#     Edge 20, Type (0, 1), BuildingBlock: CIFDUS_clean_linker_0, # of connection points: 2
#     Edge 21, Type (0, 1), BuildingBlock: CIFDUS_clean_linker_0, # of connection points: 2
#     Edge 22, Type (0, 1), BuildingBlock: CIFDUS_clean_linker_0, # of connection points: 2
#     Edge 23, Type (0, 1), BuildingBlock: CIFDUS_clean_linker_0, # of connection points: 2
#     Edge 24, Type (0, 1), BuildingBlock: CIFDUS_clean_linker_0, # of connection points: 2
#     Edge 25, Type (0, 1), BuildingBlock: CIFDUS_clean_linker_0, # of connection points: 2
#     Edge 26, Type (0, 1), BuildingBlock: CIFDUS_clean_linker_0, # of connection points: 2
#     Edge 27, Type (0, 1), BuildingBlock: CIFDUS_clean_linker_0, # of connection points: 2
#     Edge 28, Type (0, 1), BuildingBlock: CIFDUS_clean_linker_0, # of connection points: 2
#     Edge 29, Type (0, 1), BuildingBlock: CIFDUS_clean_linker_0, # of connection points: 2
#     Edge 30, Type (0, 1), BuildingBlock: CIFDUS_clean_linker_0, # of connection points: 2
#     Edge 31, Type (0, 1), BuildingBlock: CIFDUS_clean_linker_0, # of connection points: 2
#     Edge 32, Type (0, 1), BuildingBlock: CIFDUS_clean_linker_0, # of connection points: 2
#     Edge 33, Type (0, 1), BuildingBlock: CIFDUS_clean_linker_0, # of connection points: 2
#     Edge 34, Type (0, 1), BuildingBlock: CIFDUS_clean_linker_0, # of connection points: 2
#     Edge 35, Type (0, 1), BuildingBlock: CIFDUS_clean_linker_0, # of connection points: 2
# Relax obj value: 0.001
# Max RMSD: 0.030
# Mean RMSD: 0.018
data_MOF--net-ssa--node1-MUDLON_clean_sbu_0--node2-GIZVER_clean_linker_0--edge1-CIFDUS_clean_linker_0
_symmetry_space_group_name_H-M    P1
_symmetry_Int_Tables_number       1
_symmetry_cell_setting            triclinic
loop_
_symmetry_equiv_pos_as_xyz
'x, y, z'
_cell_length_a     39.493876
_cell_length_b     39.934923
_cell_length_c     35.99216
_cell_angle_alpha  88.07543
_cell_angle_beta   89.316407
_cell_angle_gamma 119.96086
loop_
_atom_site_label
_atom_site_type_symbol
_atom_site_fract_x
_atom_site_fract_y
_atom_site_fract_z
_atom_type_partial_charge
H0 H 0.06223 0.57929 0.05638 0.0
H1 H 0.02676 0.45814 0.05872 0.0
H2 H 0.08998 0.52717 0.14903 0.0
H3 H 0.04382 0.54652 1.00027 0.0
H4 H 0.04258 0.50165 0.99762 0.0
H5 H 0.98377 0.54905 1.00346 0.0
H6 H 0.87801 0.4448 0.97991 0.0
H7 H 0.98145 0.44015 1.00493 0.0
C8 C 0.06047 0.55415 0.07072 0.0
C9 C 0.07819 0.55801 0.10527 0.0
C10 C 0.04192 0.51833 0.05354 0.0
C11 C 0.03986 0.48561 0.07199 0.0
C12 C 0.05621 0.48886 0.107 0.0
C13 C 0.07544 0.5249 0.12311 0.0
C14 C 0.03027 0.51683 1.01344 0.0
C15 C 0.98646 0.49628 1.00865 0.0
C16 C 0.96736 0.5178 1.00243 0.0
C17 C 0.92813 0.49941 0.99163 0.0
C18 C 0.90786 0.45914 0.98911 0.0
C19 C 0.92711 0.43777 0.99225 0.0
C20 C 0.96597 0.45617 1.00357 0.0
H21 H 0.56881 0.0278 0.58817 0.0
H22 H 0.45938 0.02554 0.57791 0.0
H23 H 0.55964 0.12571 0.61844 0.0
H24 H 0.50623 0.96686 0.5898 0.0
H25 H 0.46163 0.96612 0.58197 0.0
H26 H 0.54497 0.96408 0.53849 0.0
H27 H 0.48512 0.9256 0.43685 0.0
H28 H 0.44402 0.97524 0.51811 0.0
C29 C 0.55226 0.04275 0.58889 0.0
C30 C 0.56891 0.07955 0.60359 0.0
C31 C 0.51279 0.02328 0.57912 0.0
C32 C 0.49024 0.04142 0.58363 0.0
C33 C 0.50655 0.07833 0.59859 0.0
C34 C 0.54649 0.09771 0.60629 0.0
C35 C 0.49287 0.9805 0.5724 0.0
C36 C 0.49485 0.97175 0.53216 0.0
C37 C 0.52255 0.96181 0.51996 0.0
C38 C 0.51976 0.94648 0.48487 0.0
C39 C 0.48879 0.94071 0.46223 0.0
C40 C 0.46059 0.95024 0.4738 0.0
C41 C 0.46507 0.96742 0.50836 0.0
H42 H 0.60998 0.57551 0.10405 0.0
H43 H 0.49018 0.48769 0.0909 0.0
H44 H 0.51751 0.59483 0.14007 0.0
H45 H 0.59306 0.50947 0.09332 0.0
H46 H 0.54327 0.4725 0.09133 0.0
H47 H 0.61994 0.56059 1.03459 0.0
H48 H 0.59736 0.49595 0.93583 0.0
H49 H 0.52559 0.44266 1.03457 0.0
C50 C 0.57909 0.5663 0.10557 0.0
C51 C 0.56681 0.58974 0.12254 0.0
C52 C 0.55154 0.52991 0.0928 0.0
C53 C 0.51131 0.51682 0.09816 0.0
C54 C 0.49857 0.5397 0.11601 0.0
C55 C 0.52674 0.57684 0.12632 0.0
C56 C 0.56483 0.50225 0.08051 0.0
C57 C 0.57045 0.50249 0.03872 0.0
C58 C 0.60178 0.53473 1.01972 0.0
C59 C 0.61123 0.53279 0.9823 0.0
C60 C 0.58871 0.49834 0.96389 0.0
C61 C 0.55807 0.46555 0.98251 0.0
C62 C 0.54869 0.4681 1.01976 0.0
H63 H 0.00284 0.54128 0.59612 0.0
H64 H 0.03939 0.45768 0.61898 0.0
H65 H 0.92362 0.43168 0.65155 0.0
H66 H 0.07452 0.55904 0.60505 0.0
H67 H 0.08726 0.52252 0.60067 0.0
H68 H 0.06968 0.59277 0.55087 0.0
H69 H 0.10762 0.57213 0.44656 0.0
H70 H 0.078 0.49025 0.53942 0.0
C71 C 0.99604 0.51259 0.60606 0.0
C72 C 0.95923 0.48729 0.62303 0.0
C73 C 0.02493 0.50185 0.60367 0.0
C74 C 0.01669 0.4654 0.61882 0.0
C75 C 0.97992 0.43972 0.63567 0.0
C76 C 0.95125 0.45063 0.63688 0.0
C77 C 0.06627 0.53164 0.59114 0.0
C78 C 0.0717 0.53969 0.54938 0.0
C79 C 0.07463 0.57383 0.53355 0.0
C80 C 0.08651 0.58494 0.49606 0.0
C81 C 0.09544 0.56161 0.47444 0.0
C82 C 0.09308 0.52752 0.48956 0.0
C83 C 0.07987 0.51621 0.52694 0.0
H84 H 0.50604 0.92458 0.05938 0.0
H85 H 0.41908 0.95958 0.05045 0.0
H86 H 0.44525 0.9288 0.1573 0.0
H87 H 0.48318 0.92992 0.99909 0.0
H88 H 0.44062 0.93438 0.99564 0.0
H89 H 0.54773 0.98604 0.98685 0.0
H90 H 0.55557 0.09308 0.94866 0.0
H91 H 0.4462 -0.00024 0.99278 0.0
C92 C 0.48536 0.93129 0.07235 0.0
C93 C 0.47856 0.92575 0.11111 0.0
C94 C 0.46477 0.94452 0.05018 0.0
C95 C 0.43651 0.95128 0.06726 0.0
C96 C 0.43003 0.94635 0.10601 0.0
C97 C 0.45151 0.93416 0.12757 0.0
C98 C 0.46988 0.94727 1.00818 0.0
C99 C 0.4945 0.98865 0.99298 0.0
C100 C 0.53433 0.00382 0.98292 0.0
C101 C 0.55664 0.04157 0.96694 0.0
C102 C 0.5389 0.06429 0.96173 0.0
C103 C 0.49913 0.0493 0.9708 0.0
C104 C 0.47708 0.01154 0.98641 0.0
H105 H 0.55367 0.48272 0.55206 0.0
H106 H 0.43143 0.39771 0.56521 0.0
H107 H 0.50418 0.42749 0.65953 0.0
H108 H 0.51854 0.45486 0.4983 0.0
H109 H 0.47474 0.40955 0.50429 0.0
H110 H 0.51582 0.51627 0.49412 0.0
H111 H 0.41016 0.50353 0.44766 0.0
H112 H 0.41279 0.40377 0.49138 0.0
C113 C 0.52894 0.46314 0.57002 0.0
C114 C 0.5342 0.4587 0.60826 0.0
C115 C 0.49211 0.44106 0.55412 0.0
C116 C 0.45965 0.41557 0.57719 0.0
C117 C 0.46401 0.41213 0.61551 0.0
C118 C 0.50113 0.43315 0.6305 0.0
C119 C 0.48901 0.44024 0.51221 0.0
C120 C 0.46605 0.45848 0.49708 0.0
C121 C 0.48508 0.49863 0.4884 0.0
C122 C 0.46552 0.51524 0.46958 0.0
C123 C 0.42591 0.49134 0.46175 0.0
C124 C 0.40698 0.45125 0.46897 0.0
C125 C 0.42702 0.43491 0.48685 0.0
Mg126 Mg 0.22331 0.43083 0.27644 0.0
C127 C 0.14768 0.39918 0.2359 0.0
O128 O 0.13484 0.4001 0.26949 0.0
C129 C 0.2594 0.38552 0.30987 0.0
O130 O 0.27441 0.39083 0.27595 0.0
C131 C 0.19433 0.45382 0.34432 0.0
O132 O 0.20472 0.43064 0.36077 0.0
O133 O 0.20061 0.46099 0.30936 0.0
O134 O 0.18251 0.40564 0.23172 0.0
O135 O 0.28089 0.46899 0.24993 0.0
C136 C 0.28915 0.4612 0.21816 0.0
O137 O 0.26176 0.43194 0.20086 0.0
O138 O 0.23294 0.39412 0.31598 0.0
Mg139 Mg 0.79933 0.20047 0.80425 0.0
C140 C 0.74971 0.17471 0.7376 0.0
O141 O 0.77842 0.16931 0.72671 0.0
C142 C 0.82827 0.25241 0.8685 0.0
O143 O 0.83358 0.22422 0.88129 0.0
C144 C 0.74518 0.11882 0.83569 0.0
O145 O 0.73864 0.11208 0.80028 0.0
O146 O 0.77385 0.15108 0.84454 0.0
O147 O 0.75121 0.18894 0.76905 0.0
O148 O 0.84847 0.2196 0.76421 0.0
C149 C 0.87971 0.25182 0.76792 0.0
O150 O 0.88716 0.26667 0.80085 0.0
O151 O 0.81333 0.24978 0.83687 0.0
Mg152 Mg 0.58067 0.78675 0.29922 0.0
C153 C 0.53761 0.79175 0.23119 0.0
O154 O 0.54489 0.76505 0.21966 0.0
C155 C 0.55961 0.72019 0.35646 0.0
O156 O 0.59434 0.74478 0.36837 0.0
C157 C 0.5889 0.82896 0.36913 0.0
O158 O 0.56158 0.79385 0.3799 0.0
O159 O 0.60552 0.83431 0.33719 0.0
O160 O 0.54617 0.80318 0.26414 0.0
O161 O 0.61812 0.78125 0.25776 0.0
C162 C 0.62599 0.75401 0.26006 0.0
O163 O 0.62028 0.73509 0.29219 0.0
O164 O 0.54626 0.7303 0.32884 0.0
Mg165 Mg 0.78997 0.57499 0.78455 0.0
C166 C 0.72792 0.54401 0.72805 0.0
O167 O 0.7581 0.57076 0.70828 0.0
C168 C 0.79061 0.54039 0.86385 0.0
O169 O 0.75551 0.5357 0.86928 0.0
C170 C 0.78731 0.62919 0.83869 0.0
O171 O 0.81537 0.62616 0.85485 0.0
O172 O 0.78131 0.62105 0.80465 0.0
O173 O 0.73254 0.53708 0.7619 0.0
O174 O 0.83439 0.58624 0.74143 0.0
C175 C 0.8278 0.55565 0.72542 0.0
O176 O 0.79548 0.52321 0.73462 0.0
O177 O 0.80808 0.55311 0.83226 0.0
Mg178 Mg 0.21987 0.80043 0.28582 0.0
C179 C 0.20362 0.74532 0.22344 0.0
O180 O 0.21372 0.77684 0.20283 0.0
C181 C 0.27999 0.85119 0.33941 0.0
O182 O 0.2501 0.85491 0.34992 0.0
C183 C 0.17967 0.76426 0.35836 0.0
O184 O 0.21579 0.77251 0.36373 0.0
O185 O 0.17192 0.77573 0.32781 0.0
O186 O 0.20739 0.74772 0.25849 0.0
O187 O 0.22441 0.84041 0.24041 0.0
C188 C 0.2515 0.87566 0.24016 0.0
O189 O 0.26682 0.89035 0.27191 0.0
O190 O 0.27602 0.82913 0.31305 0.0
Mg191 Mg 0.42567 0.22041 0.79881 0.0
C192 C 0.43581 0.18276 0.7357 0.0
O193 O 0.39969 0.1601 0.74831 0.0
C194 C 0.4806 0.28414 0.85263 0.0
O195 O 0.49035 0.25884 0.86482 0.0
C196 C 0.41306 0.1694 0.8707 0.0
O197 O 0.41804 0.19966 0.88843 0.0
O198 O 0.41119 0.16976 0.83542 0.0
O199 O 0.45738 0.21365 0.75248 0.0
O200 O 0.37933 0.2217 0.76789 0.0
C201 C 0.37585 0.25161 0.76938 0.0
O202 O 0.38812 0.2723 0.79901 0.0
O203 O 0.45724 0.27585 0.82595 0.0
H204 H 0.10483 0.46118 0.09307 0.0
H205 H 0.01163 0.44681 0.16706 0.0
H206 H 0.02771 0.41006 0.21216 0.0
H207 H 0.07627 0.39396 0.23516 0.0
H208 H 0.17233 0.41205 0.16261 0.0
H209 H 0.14675 0.43441 0.11214 0.0
C210 C 0.08709 0.44846 0.11839 0.0
C211 C 0.05691 0.45621 0.12678 0.0
C212 C 0.0976 0.42875 0.14479 0.0
C213 C 0.03461 0.44059 0.15997 0.0
C214 C 0.04413 0.42003 0.1859 0.0
C215 C 0.09111 0.40182 0.20805 0.0
C216 C 0.12669 0.40214 0.20305 0.0
C217 C 0.07681 0.41569 0.17939 0.0
C218 C 0.14517 0.41195 0.1675 0.0
C219 C 0.13065 0.42497 0.1386 0.0
H220 H 0.58382 0.11079 0.67085 0.0
H221 H 0.63824 0.08458 0.58041 0.0
H222 H 0.69975 0.11255 0.61375 0.0
H223 H 0.73752 0.14456 0.66886 0.0
H224 H 0.68184 0.17244 0.75713 0.0
H225 H 0.62142 0.14483 0.7234 0.0
C226 C 0.60932 0.11195 0.65783 0.0
C227 C 0.60668 0.09636 0.62278 0.0
C228 C 0.64432 0.12857 0.67666 0.0
C229 C 0.63959 0.09655 0.60727 0.0
C230 C 0.67472 0.11268 0.62625 0.0
C231 C 0.71223 0.14481 0.68058 0.0
C232 C 0.7142 0.16049 0.71554 0.0
C233 C 0.67739 0.12885 0.66097 0.0
C234 C 0.68121 0.16065 0.73031 0.0
C235 C 0.64657 0.14473 0.71112 0.0
H236 H 0.58012 0.66335 0.1146 0.0
H237 H 0.61269 0.59128 0.17852 0.0
H238 H 0.6409 0.64012 0.22531 0.0
H239 H 0.64437 0.6971 0.25335 0.0
H240 H 0.61258 0.76973 0.18885 0.0
H241 H 0.59694 0.72752 0.13679 0.0
C242 C 0.59468 0.65909 0.13814 0.0
C243 C 0.59417 0.62379 0.14333 0.0
C244 C 0.61038 0.68711 0.16517 0.0
C245 C 0.61301 0.61838 0.17388 0.0
C246 C 0.62874 0.64612 0.20084 0.0
C247 C 0.63508 0.70432 0.22755 0.0
C248 C 0.62854 0.7359 0.22554 0.0
C249 C 0.62585 0.67972 0.19764 0.0
C250 C 0.61723 0.74525 0.19157 0.0
C251 C 0.60805 0.72097 0.16172 0.0
H252 H 0.97306 0.55487 0.65262 0.0
H253 H 0.88079 0.4479 0.61245 0.0
H254 H 0.83183 0.46229 0.63715 0.0
H255 H 0.8152 0.50088 0.67679 0.0
H256 H 0.90672 0.60728 0.71856 0.0
H257 H 0.95605 0.59799 0.68592 0.0
C258 C 0.94228 0.53527 0.64837 0.0
C259 C 0.93054 0.50016 0.631 0.0
C260 C 0.91418 0.54344 0.66328 0.0
C261 C 0.89052 0.47487 0.62605 0.0
C262 C 0.86252 0.48305 0.64023 0.0
C263 C 0.84593 0.52238 0.67833 0.0
C264 C 0.85731 0.55444 0.70051 0.0
C265 C 0.87399 0.51653 0.66001 0.0
C266 C 0.89718 0.5823 0.70176 0.0
C267 C 0.9254 0.57686 0.68327 0.0
H268 H 0.35212 0.90304 0.09585 0.0
H269 H 0.43725 -0.00517 0.16018 0.0
H270 H 0.38596 0.9861 0.20473 0.0
H271 H 0.32022 0.94371 0.23159 0.0
H272 H 0.23552 0.84881 0.16952 0.0
H273 H 0.28278 0.86796 0.11758 0.0
C274 C 0.35903 0.92208 0.11882 0.0
C275 C 0.39827 0.94948 0.1249 0.0
C276 C 0.32953 0.91578 0.14516 0.0
C277 C 0.40715 0.97365 0.15503 0.0
C278 C 0.37788 0.9684 0.18065 0.0
C279 C 0.31162 0.92777 0.20634 0.0
C280 C 0.27468 0.89411 0.20505 0.0
C281 C 0.33937 0.93821 0.17702 0.0
C282 C 0.26399 0.87434 0.17173 0.0
C283 C 0.29111 0.88518 0.14199 0.0
H284 H 0.42447 0.33395 0.61268 0.0
H285 H 0.43336 0.42762 0.67573 0.0
H286 H 0.39737 0.38262 0.72819 0.0
H287 H 0.37699 0.32004 0.76012 0.0
H288 H 0.37203 0.22692 0.69845 0.0
H289 H 0.39153 0.26769 0.64141 0.0
C290 C 0.41699 0.34407 0.63736 0.0
C291 C 0.43154 0.3839 0.64058 0.0
C292 C 0.39762 0.31818 0.66798 0.0
C293 C 0.42228 0.39699 0.67279 0.0
C294 C 0.40205 0.37132 0.70288 0.0
C295 C 0.37903 0.30822 0.73403 0.0
C296 C 0.37415 0.27082 0.73391 0.0
C297 C 0.39159 0.33228 0.7015 0.0
C298 C 0.37619 0.2558 0.69963 0.0
C299 C 0.38767 0.27924 0.66692 0.0
H300 H 0.56381 0.96258 0.42123 0.0
H301 H 0.52891 0.89178 0.52286 0.0
H302 H 0.55363 0.85169 0.49757 0.0
H303 H 0.57413 0.8303 0.44263 0.0
H304 H 0.60927 0.90118 0.3409 0.0
H305 H 0.59638 0.94816 0.37029 0.0
C306 C 0.5628 0.93908 0.43815 0.0
C307 C 0.54438 0.92989 0.47369 0.0
C308 C 0.57665 0.9159 0.42322 0.0
C309 C 0.54318 0.89948 0.49552 0.0
C310 C 0.55695 0.87633 0.4809 0.0
C311 C 0.57999 0.85658 0.42724 0.0
C312 C 0.59202 0.86194 0.3895 0.0
C313 C 0.57212 0.88327 0.44421 0.0
C314 C 0.59995 0.89631 0.36997 0.0
C315 C 0.59224 0.92304 0.38668 0.0
H316 H 0.62112 0.5649 0.91223 0.0
H317 H 0.68434 0.56861 1.01029 0.0
H318 H 0.74632 0.60599 0.9752 0.0
H319 H 0.78136 0.62707 0.9145 0.0
H320 H 0.71771 0.62096 0.81583 0.0
H321 H 0.65746 0.59588 0.85334 0.0
C322 C 0.64855 0.57473 0.92606 0.0
C323 C 0.64809 0.56363 0.96369 0.0
C324 C 0.68408 0.59541 0.90546 0.0
C325 C 0.68382 0.5769 0.98142 0.0
C326 C 0.71931 0.59796 0.96124 0.0
C327 C 0.75457 0.62126 0.90123 0.0
C328 C 0.75409 0.62513 0.86219 0.0
C329 C 0.71968 0.60588 0.92289 0.0
C330 C 0.71903 0.61784 0.8457 0.0
C331 C 0.6844 0.60322 0.86714 0.0
H332 H 0.06246 0.60304 0.43164 0.0
H333 H 0.13532 0.65418 0.52506 0.0
H334 H 0.16671 0.71755 0.49222 0.0
H335 H 0.18171 0.75515 0.43276 0.0
H336 H 0.10912 0.70453 0.33909 0.0
H337 H 0.06877 0.64453 0.3763 0.0
C338 C 0.08437 0.62836 0.44515 0.0
C339 C 0.09683 0.62396 0.48056 0.0
C340 C 0.10263 0.66468 0.42586 0.0
C341 C 0.12511 0.65689 0.49793 0.0
C342 C 0.14334 0.69307 0.47899 0.0
C343 C 0.15622 0.7314 0.42094 0.0
C344 C 0.14857 0.73405 0.38321 0.0
C345 C 0.13355 0.6969 0.44235 0.0
C346 C 0.11546 0.70324 0.36814 0.0
C347 C 0.09267 0.66875 0.3893 0.0
H348 H 0.44453 0.03434 0.91931 0.0
H349 H 0.51335 0.11683 0.9999 0.0
H350 H 0.48827 0.15924 0.97923 0.0
H351 H 0.45177 0.17551 0.93426 0.0
H352 H 0.3879 0.09578 0.84957 0.0
H353 H 0.40549 0.04944 0.8759 0.0
C354 C 0.45336 0.06132 0.93268 0.0
C355 C 0.48043 0.07251 0.9612 0.0
C356 C 0.43985 0.08607 0.91973 0.0
C357 C 0.49239 0.10774 0.97799 0.0
C358 C 0.47813 0.13195 0.96611 0.0
C359 C 0.44098 0.14765 0.92204 0.0
C360 C 0.41838 0.13904 0.89008 0.0
C361 C 0.4525 0.1218 0.93647 0.0
C362 C 0.40526 0.10308 0.87421 0.0
C363 C 0.41545 0.07663 0.88917 0.0
H364 H 0.39249 0.40276 0.41341 0.0
H365 H 0.33795 0.44863 0.48382 0.0
H366 H 0.28193 0.42446 0.44325 0.0
H367 H 0.25514 0.40146 0.38224 0.0
H368 H 0.31347 0.36189 0.30848 0.0
H369 H 0.36075 0.37148 0.35603 0.0
C370 C 0.36757 0.40606 0.42052 0.0
C371 C 0.369 0.42709 0.45159 0.0
C372 C 0.33648 0.39379 0.39603 0.0
C373 C 0.33713 0.43216 0.46019 0.0
C374 C 0.30535 0.41867 0.4368 0.0
C375 C 0.2775 0.39389 0.37686 0.0
C376 C 0.28103 0.38146 0.34156 0.0
C377 C 0.30561 0.40107 0.40375 0.0
C378 C 0.31027 0.37183 0.33523 0.0
C379 C 0.33747 0.37751 0.36237 0.0
H380 H 0.88942 0.41808 0.92784 0.0
H381 H 0.92611 0.37144 1.0185 0.0
H382 H 0.89779 0.3091 0.98851 0.0
H383 H 0.8632 0.26862 0.93577 0.0
H384 H 0.82596 0.31704 0.84683 0.0
H385 H 0.85301 0.37789 0.8778 0.0
C386 C 0.89044 0.39408 0.94173 0.0
C387 C 0.90911 0.39916 0.97583 0.0
C388 C 0.87394 0.3587 0.92465 0.0
C389 C 0.91167 0.36817 0.99238 0.0
C390 C 0.89542 0.33259 0.97528 0.0
C391 C 0.86079 0.29242 0.92332 0.0
C392 C 0.84264 0.28826 0.88894 0.0
C393 C 0.87654 0.32759 0.94132 0.0
C394 C 0.83974 0.31937 0.8732 0.0
C395 C 0.85529 0.35425 0.89084 0.0
H396 H 0.85334 0.48601 1.00017 0.0
H397 H 0.96301 0.56035 0.94105 0.0
H398 H 0.93004 0.58137 0.89721 0.0
H399 H 0.86896 0.57118 0.87016 0.0
H400 H 0.75873 0.49562 0.92785 0.0
H401 H 0.79284 0.48188 0.97718 0.0
C402 C 0.87015 0.50753 0.9782 0.0
C403 C 0.91061 0.52125 0.97381 0.0
C404 C 0.85069 0.51829 0.95206 0.0
C405 C 0.93201 0.5495 0.94546 0.0
C406 C 0.91301 0.56103 0.91988 0.0
C407 C 0.85236 0.55177 0.89358 0.0
C408 C 0.81125 0.53371 0.89488 0.0
C409 C 0.87218 0.54428 0.92195 0.0
C410 C 0.79032 0.50948 0.92592 0.0
C411 C 0.80984 0.50171 0.95419 0.0
H412 H 0.45126 0.94154 0.39824 0.0
H413 H 0.38615 0.92757 0.50076 0.0
H414 H 0.32581 0.89912 0.46748 0.0
H415 H 0.29019 0.87263 0.41063 0.0
H416 H 0.3536 0.8773 0.31043 0.0
H417 H 0.4156 0.91315 0.34192 0.0
C418 C 0.424 0.93193 0.41367 0.0
C419 C 0.42403 0.937 0.45234 0.0
C420 C 0.38873 0.91302 0.39485 0.0
C421 C 0.38796 0.92527 0.47104 0.0
C422 C 0.35301 0.90822 0.45209 0.0
C423 C 0.31763 0.88164 0.39568 0.0
C424 C 0.31743 0.87237 0.35834 0.0
C425 C 0.35296 0.90121 0.41422 0.0
C426 C 0.35308 0.88385 0.33932 0.0
C427 C 0.38848 0.90451 0.35726 0.0
H428 H 0.5318 0.44985 0.91176 0.0
H429 H 0.54523 0.3963 1.01231 0.0
H430 H 0.52333 0.33591 0.98094 0.0
H431 H 0.50287 0.2989 0.9242 0.0
H432 H 0.48726 0.35147 0.8241 0.0
H433 H 0.50806 0.41168 0.85576 0.0
C434 C 0.52966 0.42485 0.92684 0.0
C435 C 0.54006 0.42764 0.9644 0.0
C436 C 0.51721 0.39017 0.90853 0.0
C437 C 0.53686 0.39487 0.9836 0.0
C438 C 0.52474 0.3604 0.96555 0.0
C439 C 0.50425 0.32362 0.90926 0.0
C440 C 0.49404 0.32086 0.87169 0.0
C441 C 0.51535 0.35786 0.92789 0.0
C442 C 0.49519 0.3529 0.85296 0.0
C443 C 0.50699 0.38731 0.87107 0.0
H444 H 0.09217 0.51879 0.41399 0.0
H445 H 0.13268 0.49148 0.51545 0.0
H446 H 0.16593 0.46531 0.47964 0.0
H447 H 0.1874 0.45386 0.41952 0.0
H448 H 0.15237 0.48668 0.31788 0.0
H449 H 0.11467 0.50854 0.35382 0.0
C450 C 0.10849 0.50745 0.42846 0.0
C451 C 0.1096 0.50735 0.46768 0.0
C452 C 0.12934 0.49409 0.40757 0.0
C453 C 0.13025 0.49142 0.48554 0.0
C454 C 0.14994 0.4769 0.46498 0.0
C455 C 0.17157 0.46584 0.40517 0.0
C456 C 0.17289 0.46875 0.36602 0.0
C457 C 0.15026 0.4787 0.426 0.0
C458 C 0.15221 0.48442 0.34796 0.0
C459 C 0.13042 0.4967 0.36851 0.0
H460 H 0.58312 0.00882 0.91783 0.0
H461 H 0.62126 0.10941 0.98289 0.0
H462 H 0.68594 0.13993 0.95185 0.0
H463 H 0.72864 0.14136 0.90085 0.0
H464 H 0.68851 0.04311 0.83192 0.0
H465 H 0.62821 0.00808 0.8701 0.0
C466 C 0.60597 0.037 0.92579 0.0
C467 C 0.5975 0.05684 0.95266 0.0
C468 C 0.64272 0.05491 0.90687 0.0
C469 C 0.62712 0.09364 0.96227 0.0
C470 C 0.66405 0.11111 0.94445 0.0
C471 C 0.7072 0.11189 0.89476 0.0
C472 C 0.7132 0.09488 0.86353 0.0
C473 C 0.67184 0.09252 0.91593 0.0
C474 C 0.6847 0.05688 0.85577 0.0
C475 C 0.65007 0.03691 0.87749 0.0
H476 H 0.45512 0.54333 0.40318 0.0
H477 H 0.525 0.57972 0.50085 0.0
H478 H 0.56046 0.64613 0.47439 0.0
H479 H 0.57137 0.69392 0.42337 0.0
H480 H 0.49792 0.65705 0.32813 0.0
H481 H 0.46318 0.59087 0.35458 0.0
C482 C 0.4774 0.56575 0.41935 0.0
C483 C 0.48688 0.55624 0.45435 0.0
C484 C 0.49697 0.60392 0.40441 0.0
C485 C 0.51709 0.58587 0.47382 0.0
C486 C 0.53726 0.62397 0.45878 0.0
C487 C 0.54767 0.67141 0.40847 0.0
C488 C 0.53735 0.68048 0.37372 0.0
C489 C 0.52745 0.63333 0.42406 0.0
C490 C 0.5064 0.651 0.35493 0.0
C491 C 0.48659 0.61308 0.36998 0.0
H492 H 0.52463 0.1541 0.60485 0.0
H493 H 0.432 0.03651 0.62945 0.0
H494 H 0.39989 0.05977 0.67055 0.0
H495 H 0.40359 0.11154 0.70785 0.0
H496 H 0.50129 0.22758 0.69129 0.0
H497 H 0.52695 0.20655 0.64035 0.0
C498 C 0.49745 0.13336 0.61919 0.0
C499 C 0.48162 0.09332 0.61441 0.0
C500 C 0.48065 0.14658 0.64538 0.0
C501 C 0.44524 0.06743 0.63201 0.0
C502 C 0.42706 0.08066 0.65628 0.0
C503 C 0.43034 0.13239 0.69291 0.0
C504 C 0.45074 0.17102 0.70362 0.0
C505 C 0.44546 0.11986 0.6645 0.0
C506 C 0.48532 0.19759 0.68392 0.0
C507 C 0.49985 0.18559 0.65468 0.0
H508 H 0.47057 0.55034 0.18156 0.0
H509 H 0.43199 0.49148 0.07887 0.0
H510 H 0.36387 0.46292 0.10096 0.0
H511 H 0.31541 0.45368 0.15012 0.0
H512 H 0.35497 0.51474 0.25158 0.0
H513 H 0.42264 0.54447 0.22855 0.0
C514 C 0.44742 0.53204 0.16342 0.0
C515 C 0.45672 0.52346 0.1283 0.0
C516 C 0.4084 0.51618 0.17607 0.0
C517 C 0.42594 0.49847 0.10607 0.0
C518 C 0.38692 0.48228 0.11863 0.0
C519 C 0.33879 0.47372 0.16711 0.0
C520 C 0.32997 0.48182 0.20266 0.0
C521 C 0.37782 0.49075 0.1537 0.0
C522 C 0.36074 0.50797 0.22416 0.0
C523 C 0.39953 0.5249 0.21106 0.0
H524 H 0.92107 0.36554 0.62846 0.0
H525 H 0.02189 0.43523 0.69287 0.0
H526 H 0.00246 0.3809 0.73785 0.0
H527 H 0.95172 0.31674 0.7633 0.0
H528 H 0.85175 0.24634 0.69787 0.0
H529 H 0.87628 0.2972 0.64866 0.0
C530 C 0.93925 0.36839 0.65186 0.0
C531 C 0.97277 0.40434 0.65747 0.0
C532 C 0.92786 0.33696 0.67763 0.0
C533 C 0.99614 0.40777 0.68784 0.0
C534 C 0.98484 0.37678 0.71373 0.0
C535 C 0.93581 0.31213 0.73786 0.0
C536 C 0.89967 0.27788 0.73462 0.0
C537 C 0.95004 0.34167 0.70958 0.0
C538 C 0.87962 0.2723 0.70127 0.0
C539 C 0.89347 0.30159 0.67316 0.0
H540 H 0.48027 0.85942 0.10028 0.0
H541 H 0.5155 0.95163 0.17608 0.0
H542 H 0.53568 0.91778 0.22043 0.0
H543 H 0.5408 0.86083 0.23884 0.0
H544 H 0.50621 0.7685 0.16313 0.0
H545 H 0.48798 0.80328 0.11781 0.0
C546 C 0.49313 0.8724 0.12618 0.0
C547 C 0.49653 0.90804 0.13485 0.0
C548 C 0.5041 0.85242 0.15187 0.0
C549 C 0.51261 0.92423 0.16881 0.0
C550 C 0.52394 0.9048 0.19425 0.0
C551 C 0.52901 0.84813 0.21255 0.0
C552 C 0.52449 0.81187 0.20462 0.0
C553 C 0.51917 0.86856 0.18638 0.0
C554 C 0.50976 0.79623 0.1701 0.0
C555 C 0.49949 0.8162 0.14407 0.0
H556 H 0.554 0.47959 0.68065 0.0
H557 H 0.60563 0.48049 0.57359 0.0
H558 H 0.66937 0.50751 0.60097 0.0
H559 H 0.71069 0.52883 0.65571 0.0
H560 H 0.65749 0.51896 0.76385 0.0
H561 H 0.59374 0.49526 0.73584 0.0
C562 C 0.57873 0.4847 0.6631 0.0
C563 C 0.5741 0.47764 0.62471 0.0
C564 C 0.61518 0.49801 0.67945 0.0
C565 C 0.6076 0.48624 0.60286 0.0
C566 C 0.64429 0.50122 0.61866 0.0
C567 C 0.68503 0.52117 0.67315 0.0
C568 C 0.68875 0.52562 0.71178 0.0
C569 C 0.64837 0.50687 0.65695 0.0
C570 C 0.6553 0.51542 0.7341 0.0
C571 C 0.61893 0.5022 0.71804 0.0
H572 H 0.08746 0.57487 0.17897 0.0
H573 H 0.12433 0.62871 0.0686 0.0
H574 H 0.16669 0.69082 0.09531 0.0
H575 H 0.19446 0.72986 0.14997 0.0
H576 H 0.16157 0.67461 0.25992 0.0
H577 H 0.11811 0.61268 0.23313 0.0
C578 C 0.10511 0.59992 0.16053 0.0
C579 C 0.1023 0.59665 0.12163 0.0
C580 C 0.13082 0.63531 0.17601 0.0
C581 C 0.12489 0.63008 0.09858 0.0
C582 C 0.14969 0.66567 0.11384 0.0
C583 C 0.17809 0.7042 0.16808 0.0
C584 C 0.18131 0.70699 0.20693 0.0
C585 C 0.15309 0.66857 0.1525 0.0
C586 C 0.15991 0.67337 0.22994 0.0
C587 C 0.13476 0.63795 0.21465 0.0
loop_
_geom_bond_atom_site_label_1
_geom_bond_atom_site_label_2
_geom_bond_distance
_geom_bond_site_symmetry_2
_ccdc_geom_bond_type
H0 C8 0.930 . S
H1 C11 0.930 . S
H2 C13 0.930 . S
H3 C14 0.970 . S
H4 C14 0.970 . S
H5 C16 0.930 . S
H6 C18 0.930 . S
H7 C20 0.930 . S
C8 H0 0.930 . S
C8 C9 1.382 . S
C8 C10 1.426 . S
C9 C8 1.382 . S
C9 C13 1.389 . S
C10 C8 1.426 . S
C10 C11 1.375 . S
C10 C14 1.532 1_554 S
C11 H1 0.930 . S
C11 C10 1.375 . S
C11 C12 1.416 . S
C12 C11 1.416 . S
C12 C13 1.371 . S
C13 H2 0.930 . S
C13 C9 1.389 . S
C13 C12 1.371 . S
C14 H3 0.970 . S
C14 H4 0.970 . S
C14 C10 1.532 1_556 S
C14 C15 1.499 . S
C15 C14 1.499 . S
C15 C16 1.370 . S
C15 C20 1.415 . S
C16 H5 0.930 . S
C16 C15 1.370 . S
C16 C17 1.407 1_455 S
C17 C16 1.407 1_655 S
C17 C18 1.365 . S
C18 H6 0.930 . S
C18 C17 1.365 . S
C18 C19 1.393 . S
C19 C18 1.393 . S
C19 C20 1.387 1_655 S
C20 H7 0.930 . S
C20 C15 1.415 . S
C20 C19 1.387 1_455 S
H21 C29 0.930 . S
H22 C32 0.930 . S
H23 C34 0.930 . S
H24 C35 0.970 . S
H25 C35 0.970 . S
H26 C37 0.930 . S
H27 C39 0.930 . S
H28 C41 0.930 . S
C29 H21 0.930 . S
C29 C30 1.382 . S
C29 C31 1.426 . S
C30 C29 1.382 . S
C30 C34 1.389 . S
C31 C29 1.426 . S
C31 C32 1.375 . S
C31 C35 1.532 1_545 S
C32 H22 0.930 . S
C32 C31 1.375 . S
C32 C33 1.416 . S
C33 C32 1.416 . S
C33 C34 1.371 . S
C34 H23 0.930 . S
C34 C30 1.389 . S
C34 C33 1.371 . S
C35 H24 0.970 . S
C35 H25 0.970 . S
C35 C31 1.532 1_565 S
C35 C36 1.499 . S
C36 C35 1.499 . S
C36 C37 1.370 . S
C36 C41 1.415 . S
C37 H26 0.930 . S
C37 C36 1.370 . S
C37 C38 1.407 . S
C38 C37 1.407 . S
C38 C39 1.365 . S
C39 H27 0.930 . S
C39 C38 1.365 . S
C39 C40 1.393 . S
C40 C39 1.393 . S
C40 C41 1.387 . S
C41 H28 0.930 . S
C41 C36 1.415 . S
C41 C40 1.387 . S
H42 C50 0.930 . S
H43 C53 0.930 . S
H44 C55 0.930 . S
H45 C56 0.970 . S
H46 C56 0.970 . S
H47 C58 0.930 . S
H48 C60 0.930 . S
H49 C62 0.930 . S
C50 H42 0.930 . S
C50 C51 1.382 . S
C50 C52 1.426 . S
C51 C50 1.382 . S
C51 C55 1.389 . S
C52 C50 1.426 . S
C52 C53 1.375 . S
C52 C56 1.532 . S
C53 H43 0.930 . S
C53 C52 1.375 . S
C53 C54 1.416 . S
C54 C53 1.416 . S
C54 C55 1.371 . S
C55 H44 0.930 . S
C55 C51 1.389 . S
C55 C54 1.371 . S
C56 H45 0.970 . S
C56 H46 0.970 . S
C56 C52 1.532 . S
C56 C57 1.499 . S
C57 C56 1.499 . S
C57 C58 1.370 1_554 S
C57 C62 1.415 1_554 S
C58 H47 0.930 . S
C58 C57 1.370 1_556 S
C58 C59 1.407 . S
C59 C58 1.407 . S
C59 C60 1.365 . S
C60 H48 0.930 . S
C60 C59 1.365 . S
C60 C61 1.393 . S
C61 C60 1.393 . S
C61 C62 1.387 . S
C62 H49 0.930 . S
C62 C57 1.415 1_556 S
C62 C61 1.387 . S
H63 C71 0.930 1_455 S
H64 C74 0.930 1_455 S
H65 C76 0.930 . S
H66 C77 0.970 . S
H67 C77 0.970 . S
H68 C79 0.930 . S
H69 C81 0.930 . S
H70 C83 0.930 . S
C71 H63 0.930 1_655 S
C71 C72 1.382 . S
C71 C73 1.426 1_655 S
C72 C71 1.382 . S
C72 C76 1.389 . S
C73 C71 1.426 1_455 S
C73 C74 1.375 1_455 S
C73 C77 1.532 . S
C74 H64 0.930 1_655 S
C74 C73 1.375 1_655 S
C74 C75 1.416 . S
C75 C74 1.416 . S
C75 C76 1.371 . S
C76 H65 0.930 . S
C76 C72 1.389 . S
C76 C75 1.371 . S
C77 H66 0.970 . S
C77 H67 0.970 . S
C77 C73 1.532 . S
C77 C78 1.499 . S
C78 C77 1.499 . S
C78 C79 1.370 . S
C78 C83 1.415 . S
C79 H68 0.930 . S
C79 C78 1.370 . S
C79 C80 1.407 . S
C80 C79 1.407 . S
C80 C81 1.365 . S
C81 H69 0.930 . S
C81 C80 1.365 . S
C81 C82 1.393 . S
C82 C81 1.393 . S
C82 C83 1.387 . S
C83 H70 0.930 . S
C83 C78 1.415 . S
C83 C82 1.387 . S
H84 C92 0.930 . S
H85 C95 0.930 . S
H86 C97 0.930 . S
H87 C98 0.970 . S
H88 C98 0.970 . S
H89 C100 0.919 1_565 S
H90 C102 0.930 . S
H91 C104 0.930 1_565 S
C92 H84 0.930 . S
C92 C93 1.382 . S
C92 C94 1.426 . S
C93 C92 1.382 . S
C93 C97 1.389 . S
C94 C92 1.426 . S
C94 C95 1.375 . S
C94 C98 1.532 1_554 S
C95 H85 0.930 . S
C95 C94 1.375 . S
C95 C96 1.416 . S
C96 C95 1.416 . S
C96 C97 1.371 . S
C97 H86 0.930 . S
C97 C93 1.389 . S
C97 C96 1.371 . S
C98 H87 0.970 . S
C98 H88 0.970 . S
C98 C94 1.532 1_556 S
C98 C99 1.499 . S
C99 C98 1.499 . S
C99 C100 1.370 1_565 S
C99 C104 1.415 1_565 S
C100 H89 0.919 1_545 S
C100 C99 1.370 1_545 S
C100 C101 1.407 . S
C101 C100 1.407 . S
C101 C102 1.365 . S
C102 H90 0.930 . S
C102 C101 1.365 . S
C102 C103 1.393 . S
C103 C102 1.393 . S
C103 C104 1.387 . S
C104 H91 0.930 1_545 S
C104 C99 1.415 1_545 S
C104 C103 1.387 . S
H105 C113 0.930 . S
H106 C116 0.930 . S
H107 C118 0.930 . S
H108 C119 0.970 . S
H109 C119 0.970 . S
H110 C121 0.930 . S
H111 C123 0.930 . S
H112 C125 0.930 . S
C113 H105 0.930 . S
C113 C114 1.382 . S
C113 C115 1.426 . S
C114 C113 1.382 . S
C114 C118 1.389 . S
C115 C113 1.426 . S
C115 C116 1.375 . S
C115 C119 1.532 . S
C116 H106 0.930 . S
C116 C115 1.375 . S
C116 C117 1.416 . S
C117 C116 1.416 . S
C117 C118 1.371 . S
C118 H107 0.930 . S
C118 C114 1.389 . S
C118 C117 1.371 . S
C119 H108 0.970 . S
C119 H109 0.970 . S
C119 C115 1.532 . S
C119 C120 1.499 . S
C120 C119 1.499 . S
C120 C121 1.370 . S
C120 C125 1.415 . S
C121 H110 0.930 . S
C121 C120 1.370 . S
C121 C122 1.407 . S
C122 C121 1.407 . S
C122 C123 1.365 . S
C123 H111 0.930 . S
C123 C122 1.365 . S
C123 C124 1.393 . S
C124 C123 1.393 . S
C124 C125 1.387 . S
C125 H112 0.930 . S
C125 C120 1.415 . S
C125 C124 1.387 . S
Mg126 O133 2.141 . S
Mg126 O134 2.048 . S
Mg126 O135 2.048 . S
Mg126 O138 2.141 . S
C127 O128 1.313 . S
C127 O134 1.195 . S
O128 C127 1.313 . S
C129 O130 1.245 . S
C129 O138 1.289 . S
O130 C129 1.245 . S
C131 O132 1.245 . S
C131 O133 1.289 . S
O132 C131 1.245 . S
O133 Mg126 2.141 . S
O133 C131 1.289 . S
O134 Mg126 2.048 . S
O134 C127 1.195 . S
O135 Mg126 2.048 . S
O135 C136 1.195 . S
C136 O135 1.195 . S
C136 O137 1.313 . S
O137 C136 1.313 . S
O138 Mg126 2.141 . S
O138 C129 1.289 . S
Mg139 O146 2.141 . S
Mg139 O147 2.048 . S
Mg139 O148 2.048 . S
Mg139 O151 2.141 . S
C140 O141 1.313 . S
C140 O147 1.195 . S
O141 C140 1.313 . S
C142 O143 1.245 . S
C142 O151 1.289 . S
O143 C142 1.245 . S
C144 O145 1.245 . S
C144 O146 1.289 . S
O145 C144 1.245 . S
O146 Mg139 2.141 . S
O146 C144 1.289 . S
O147 Mg139 2.048 . S
O147 C140 1.195 . S
O148 Mg139 2.048 . S
O148 C149 1.195 . S
C149 O148 1.195 . S
C149 O150 1.313 . S
O150 C149 1.313 . S
O151 Mg139 2.141 . S
O151 C142 1.289 . S
Mg152 O159 2.141 . S
Mg152 O160 2.048 . S
Mg152 O161 2.048 . S
Mg152 O164 2.141 . S
C153 O154 1.313 . S
C153 O160 1.195 . S
O154 C153 1.313 . S
C155 O156 1.245 . S
C155 O164 1.289 . S
O156 C155 1.245 . S
C157 O158 1.245 . S
C157 O159 1.289 . S
O158 C157 1.245 . S
O159 Mg152 2.141 . S
O159 C157 1.289 . S
O160 Mg152 2.048 . S
O160 C153 1.195 . S
O161 Mg152 2.048 . S
O161 C162 1.195 . S
C162 O161 1.195 . S
C162 O163 1.313 . S
O163 C162 1.313 . S
O164 Mg152 2.141 . S
O164 C155 1.289 . S
Mg165 O172 2.141 . S
Mg165 O173 2.048 . S
Mg165 O174 2.048 . S
Mg165 O177 2.141 . S
C166 O167 1.313 . S
C166 O173 1.195 . S
O167 C166 1.313 . S
C168 O169 1.245 . S
C168 O177 1.289 . S
O169 C168 1.245 . S
C170 O171 1.245 . S
C170 O172 1.289 . S
O171 C170 1.245 . S
O172 Mg165 2.141 . S
O172 C170 1.289 . S
O173 Mg165 2.048 . S
O173 C166 1.195 . S
O174 Mg165 2.048 . S
O174 C175 1.195 . S
C175 O174 1.195 . S
C175 O176 1.313 . S
O176 C175 1.313 . S
O177 Mg165 2.141 . S
O177 C168 1.289 . S
Mg178 O185 2.141 . S
Mg178 O186 2.048 . S
Mg178 O187 2.048 . S
Mg178 O190 2.141 . S
C179 O180 1.313 . S
C179 O186 1.195 . S
O180 C179 1.313 . S
C181 O182 1.245 . S
C181 O190 1.289 . S
O182 C181 1.245 . S
C183 O184 1.245 . S
C183 O185 1.289 . S
O184 C183 1.245 . S
O185 Mg178 2.141 . S
O185 C183 1.289 . S
O186 Mg178 2.048 . S
O186 C179 1.195 . S
O187 Mg178 2.048 . S
O187 C188 1.195 . S
C188 O187 1.195 . S
C188 O189 1.313 . S
O189 C188 1.313 . S
O190 Mg178 2.141 . S
O190 C181 1.289 . S
Mg191 O198 2.141 . S
Mg191 O199 2.048 . S
Mg191 O200 2.048 . S
Mg191 O203 2.141 . S
C192 O193 1.313 . S
C192 O199 1.195 . S
O193 C192 1.313 . S
C194 O195 1.245 . S
C194 O203 1.289 . S
O195 C194 1.245 . S
C196 O197 1.245 . S
C196 O198 1.289 . S
O197 C196 1.245 . S
O198 Mg191 2.141 . S
O198 C196 1.289 . S
O199 Mg191 2.048 . S
O199 C192 1.195 . S
O200 Mg191 2.048 . S
O200 C201 1.195 . S
C201 O200 1.195 . S
C201 O202 1.313 . S
O202 C201 1.313 . S
O203 Mg191 2.141 . S
O203 C194 1.289 . S
H204 C210 0.930 . S
H205 C213 0.930 . S
H206 C214 0.930 . S
H207 C215 0.930 . S
H208 C218 0.930 . S
H209 C219 0.930 . S
C210 H204 0.930 . S
C210 C211 1.355 . S
C210 C212 1.415 . S
C211 C210 1.355 . S
C211 C213 1.419 . S
C212 C210 1.415 . S
C212 C217 1.425 . S
C212 C219 1.409 . S
C213 H205 0.930 . S
C213 C211 1.419 . S
C213 C214 1.362 . S
C214 H206 0.930 . S
C214 C213 1.362 . S
C214 C217 1.409 . S
C215 H207 0.930 . S
C215 C216 1.355 . S
C215 C217 1.415 . S
C216 C215 1.355 . S
C216 C218 1.419 . S
C217 C212 1.425 . S
C217 C214 1.409 . S
C217 C215 1.415 . S
C218 H208 0.930 . S
C218 C216 1.419 . S
C218 C219 1.362 . S
C219 H209 0.930 . S
C219 C212 1.409 . S
C219 C218 1.362 . S
H220 C226 0.930 . S
H221 C229 0.930 . S
H222 C230 0.930 . S
H223 C231 0.930 . S
H224 C234 0.930 . S
H225 C235 0.930 . S
C226 H220 0.930 . S
C226 C227 1.355 . S
C226 C228 1.415 . S
C227 C226 1.355 . S
C227 C229 1.419 . S
C228 C226 1.415 . S
C228 C233 1.425 . S
C228 C235 1.409 . S
C229 H221 0.930 . S
C229 C227 1.419 . S
C229 C230 1.362 . S
C230 H222 0.930 . S
C230 C229 1.362 . S
C230 C233 1.409 . S
C231 H223 0.930 . S
C231 C232 1.355 . S
C231 C233 1.415 . S
C232 C231 1.355 . S
C232 C234 1.419 . S
C233 C228 1.425 . S
C233 C230 1.409 . S
C233 C231 1.415 . S
C234 H224 0.930 . S
C234 C232 1.419 . S
C234 C235 1.362 . S
C235 H225 0.930 . S
C235 C228 1.409 . S
C235 C234 1.362 . S
H236 C242 0.930 . S
H237 C245 0.930 . S
H238 C246 0.930 . S
H239 C247 0.930 . S
H240 C250 0.930 . S
H241 C251 0.930 . S
C242 H236 0.930 . S
C242 C243 1.355 . S
C242 C244 1.415 . S
C243 C242 1.355 . S
C243 C245 1.419 . S
C244 C242 1.415 . S
C244 C249 1.425 . S
C244 C251 1.409 . S
C245 H237 0.930 . S
C245 C243 1.419 . S
C245 C246 1.362 . S
C246 H238 0.930 . S
C246 C245 1.362 . S
C246 C249 1.409 . S
C247 H239 0.930 . S
C247 C248 1.355 . S
C247 C249 1.415 . S
C248 C247 1.355 . S
C248 C250 1.419 . S
C249 C244 1.425 . S
C249 C246 1.409 . S
C249 C247 1.415 . S
C250 H240 0.930 . S
C250 C248 1.419 . S
C250 C251 1.362 . S
C251 H241 0.930 . S
C251 C244 1.409 . S
C251 C250 1.362 . S
H252 C258 0.930 . S
H253 C261 0.930 . S
H254 C262 0.930 . S
H255 C263 0.930 . S
H256 C266 0.930 . S
H257 C267 0.930 . S
C258 H252 0.930 . S
C258 C259 1.355 . S
C258 C260 1.415 . S
C259 C258 1.355 . S
C259 C261 1.419 . S
C260 C258 1.415 . S
C260 C265 1.425 . S
C260 C267 1.409 . S
C261 H253 0.930 . S
C261 C259 1.419 . S
C261 C262 1.362 . S
C262 H254 0.930 . S
C262 C261 1.362 . S
C262 C265 1.409 . S
C263 H255 0.930 . S
C263 C264 1.355 . S
C263 C265 1.415 . S
C264 C263 1.355 . S
C264 C266 1.419 . S
C265 C260 1.425 . S
C265 C262 1.409 . S
C265 C263 1.415 . S
C266 H256 0.930 . S
C266 C264 1.419 . S
C266 C267 1.362 . S
C267 H257 0.930 . S
C267 C260 1.409 . S
C267 C266 1.362 . S
H268 C274 0.930 . S
H269 C277 0.930 . S
H270 C278 0.930 . S
H271 C279 0.930 . S
H272 C282 0.930 . S
H273 C283 0.930 . S
C274 H268 0.930 . S
C274 C275 1.355 . S
C274 C276 1.415 . S
C275 C274 1.355 . S
C275 C277 1.419 . S
C276 C274 1.415 . S
C276 C281 1.425 . S
C276 C283 1.409 . S
C277 H269 0.930 . S
C277 C275 1.419 . S
C277 C278 1.362 . S
C278 H270 0.930 . S
C278 C277 1.362 . S
C278 C281 1.409 . S
C279 H271 0.930 . S
C279 C280 1.355 . S
C279 C281 1.415 . S
C280 C279 1.355 . S
C280 C282 1.419 . S
C281 C276 1.425 . S
C281 C278 1.409 . S
C281 C279 1.415 . S
C282 H272 0.930 . S
C282 C280 1.419 . S
C282 C283 1.362 . S
C283 H273 0.930 . S
C283 C276 1.409 . S
C283 C282 1.362 . S
H284 C290 0.930 . S
H285 C293 0.930 . S
H286 C294 0.930 . S
H287 C295 0.930 . S
H288 C298 0.930 . S
H289 C299 0.930 . S
C290 H284 0.930 . S
C290 C291 1.355 . S
C290 C292 1.415 . S
C291 C290 1.355 . S
C291 C293 1.419 . S
C292 C290 1.415 . S
C292 C297 1.425 . S
C292 C299 1.409 . S
C293 H285 0.930 . S
C293 C291 1.419 . S
C293 C294 1.362 . S
C294 H286 0.930 . S
C294 C293 1.362 . S
C294 C297 1.409 . S
C295 H287 0.930 . S
C295 C296 1.355 . S
C295 C297 1.415 . S
C296 C295 1.355 . S
C296 C298 1.419 . S
C297 C292 1.425 . S
C297 C294 1.409 . S
C297 C295 1.415 . S
C298 H288 0.930 . S
C298 C296 1.419 . S
C298 C299 1.362 . S
C299 H289 0.930 . S
C299 C292 1.409 . S
C299 C298 1.362 . S
H300 C306 0.930 . S
H301 C309 0.930 . S
H302 C310 0.930 . S
H303 C311 0.930 . S
H304 C314 0.930 . S
H305 C315 0.930 . S
C306 H300 0.930 . S
C306 C307 1.355 . S
C306 C308 1.415 . S
C307 C306 1.355 . S
C307 C309 1.419 . S
C308 C306 1.415 . S
C308 C313 1.425 . S
C308 C315 1.409 . S
C309 H301 0.930 . S
C309 C307 1.419 . S
C309 C310 1.362 . S
C310 H302 0.930 . S
C310 C309 1.362 . S
C310 C313 1.409 . S
C311 H303 0.930 . S
C311 C312 1.355 . S
C311 C313 1.415 . S
C312 C311 1.355 . S
C312 C314 1.419 . S
C313 C308 1.425 . S
C313 C310 1.409 . S
C313 C311 1.415 . S
C314 H304 0.930 . S
C314 C312 1.419 . S
C314 C315 1.362 . S
C315 H305 0.930 . S
C315 C308 1.409 . S
C315 C314 1.362 . S
H316 C322 0.930 . S
H317 C325 0.930 . S
H318 C326 0.930 . S
H319 C327 0.930 . S
H320 C330 0.930 . S
H321 C331 0.930 . S
C322 H316 0.930 . S
C322 C323 1.355 . S
C322 C324 1.415 . S
C323 C322 1.355 . S
C323 C325 1.419 . S
C324 C322 1.415 . S
C324 C329 1.425 . S
C324 C331 1.409 . S
C325 H317 0.930 . S
C325 C323 1.419 . S
C325 C326 1.362 . S
C326 H318 0.930 . S
C326 C325 1.362 . S
C326 C329 1.409 . S
C327 H319 0.930 . S
C327 C328 1.355 . S
C327 C329 1.415 . S
C328 C327 1.355 . S
C328 C330 1.419 . S
C329 C324 1.425 . S
C329 C326 1.409 . S
C329 C327 1.415 . S
C330 H320 0.930 . S
C330 C328 1.419 . S
C330 C331 1.362 . S
C331 H321 0.930 . S
C331 C324 1.409 . S
C331 C330 1.362 . S
H332 C338 0.930 . S
H333 C341 0.930 . S
H334 C342 0.930 . S
H335 C343 0.930 . S
H336 C346 0.930 . S
H337 C347 0.930 . S
C338 H332 0.930 . S
C338 C339 1.355 . S
C338 C340 1.415 . S
C339 C338 1.355 . S
C339 C341 1.419 . S
C340 C338 1.415 . S
C340 C345 1.425 . S
C340 C347 1.409 . S
C341 H333 0.930 . S
C341 C339 1.419 . S
C341 C342 1.362 . S
C342 H334 0.930 . S
C342 C341 1.362 . S
C342 C345 1.409 . S
C343 H335 0.930 . S
C343 C344 1.355 . S
C343 C345 1.415 . S
C344 C343 1.355 . S
C344 C346 1.419 . S
C345 C340 1.425 . S
C345 C342 1.409 . S
C345 C343 1.415 . S
C346 H336 0.930 . S
C346 C344 1.419 . S
C346 C347 1.362 . S
C347 H337 0.930 . S
C347 C340 1.409 . S
C347 C346 1.362 . S
H348 C354 0.930 . S
H349 C357 0.930 . S
H350 C358 0.930 . S
H351 C359 0.930 . S
H352 C362 0.930 . S
H353 C363 0.930 . S
C354 H348 0.930 . S
C354 C355 1.355 . S
C354 C356 1.415 . S
C355 C354 1.355 . S
C355 C357 1.419 . S
C356 C354 1.415 . S
C356 C361 1.425 . S
C356 C363 1.409 . S
C357 H349 0.930 . S
C357 C355 1.419 . S
C357 C358 1.362 . S
C358 H350 0.930 . S
C358 C357 1.362 . S
C358 C361 1.409 . S
C359 H351 0.930 . S
C359 C360 1.355 . S
C359 C361 1.415 . S
C360 C359 1.355 . S
C360 C362 1.419 . S
C361 C356 1.425 . S
C361 C358 1.409 . S
C361 C359 1.415 . S
C362 H352 0.930 . S
C362 C360 1.419 . S
C362 C363 1.362 . S
C363 H353 0.930 . S
C363 C356 1.409 . S
C363 C362 1.362 . S
H364 C370 0.930 . S
H365 C373 0.930 . S
H366 C374 0.930 . S
H367 C375 0.930 . S
H368 C378 0.930 . S
H369 C379 0.930 . S
C370 H364 0.930 . S
C370 C371 1.355 . S
C370 C372 1.415 . S
C371 C370 1.355 . S
C371 C373 1.419 . S
C372 C370 1.415 . S
C372 C377 1.425 . S
C372 C379 1.409 . S
C373 H365 0.930 . S
C373 C371 1.419 . S
C373 C374 1.362 . S
C374 H366 0.930 . S
C374 C373 1.362 . S
C374 C377 1.409 . S
C375 H367 0.930 . S
C375 C376 1.355 . S
C375 C377 1.415 . S
C376 C375 1.355 . S
C376 C378 1.419 . S
C377 C372 1.425 . S
C377 C374 1.409 . S
C377 C375 1.415 . S
C378 H368 0.930 . S
C378 C376 1.419 . S
C378 C379 1.362 . S
C379 H369 0.930 . S
C379 C372 1.409 . S
C379 C378 1.362 . S
H380 C386 0.930 . S
H381 C389 0.930 . S
H382 C390 0.930 . S
H383 C391 0.930 . S
H384 C394 0.930 . S
H385 C395 0.930 . S
C386 H380 0.930 . S
C386 C387 1.355 . S
C386 C388 1.415 . S
C387 C386 1.355 . S
C387 C389 1.419 . S
C388 C386 1.415 . S
C388 C393 1.425 . S
C388 C395 1.409 . S
C389 H381 0.930 . S
C389 C387 1.419 . S
C389 C390 1.362 . S
C390 H382 0.930 . S
C390 C389 1.362 . S
C390 C393 1.409 . S
C391 H383 0.930 . S
C391 C392 1.355 . S
C391 C393 1.415 . S
C392 C391 1.355 . S
C392 C394 1.419 . S
C393 C388 1.425 . S
C393 C390 1.409 . S
C393 C391 1.415 . S
C394 H384 0.930 . S
C394 C392 1.419 . S
C394 C395 1.362 . S
C395 H385 0.930 . S
C395 C388 1.409 . S
C395 C394 1.362 . S
H396 C402 0.930 . S
H397 C405 0.930 . S
H398 C406 0.930 . S
H399 C407 0.930 . S
H400 C410 0.930 . S
H401 C411 0.930 . S
C402 H396 0.930 . S
C402 C403 1.355 . S
C402 C404 1.415 . S
C403 C402 1.355 . S
C403 C405 1.419 . S
C404 C402 1.415 . S
C404 C409 1.425 . S
C404 C411 1.409 . S
C405 H397 0.930 . S
C405 C403 1.419 . S
C405 C406 1.362 . S
C406 H398 0.930 . S
C406 C405 1.362 . S
C406 C409 1.409 . S
C407 H399 0.930 . S
C407 C408 1.355 . S
C407 C409 1.415 . S
C408 C407 1.355 . S
C408 C410 1.419 . S
C409 C404 1.425 . S
C409 C406 1.409 . S
C409 C407 1.415 . S
C410 H400 0.930 . S
C410 C408 1.419 . S
C410 C411 1.362 . S
C411 H401 0.930 . S
C411 C404 1.409 . S
C411 C410 1.362 . S
H412 C418 0.930 . S
H413 C421 0.930 . S
H414 C422 0.930 . S
H415 C423 0.930 . S
H416 C426 0.930 . S
H417 C427 0.930 . S
C418 H412 0.930 . S
C418 C419 1.355 . S
C418 C420 1.415 . S
C419 C418 1.355 . S
C419 C421 1.419 . S
C420 C418 1.415 . S
C420 C425 1.425 . S
C420 C427 1.409 . S
C421 H413 0.930 . S
C421 C419 1.419 . S
C421 C422 1.362 . S
C422 H414 0.930 . S
C422 C421 1.362 . S
C422 C425 1.409 . S
C423 H415 0.930 . S
C423 C424 1.355 . S
C423 C425 1.415 . S
C424 C423 1.355 . S
C424 C426 1.419 . S
C425 C420 1.425 . S
C425 C422 1.409 . S
C425 C423 1.415 . S
C426 H416 0.930 . S
C426 C424 1.419 . S
C426 C427 1.362 . S
C427 H417 0.930 . S
C427 C420 1.409 . S
C427 C426 1.362 . S
H428 C434 0.930 . S
H429 C437 0.930 . S
H430 C438 0.930 . S
H431 C439 0.930 . S
H432 C442 0.930 . S
H433 C443 0.930 . S
C434 H428 0.930 . S
C434 C435 1.355 . S
C434 C436 1.415 . S
C435 C434 1.355 . S
C435 C437 1.419 . S
C436 C434 1.415 . S
C436 C441 1.425 . S
C436 C443 1.409 . S
C437 H429 0.930 . S
C437 C435 1.419 . S
C437 C438 1.362 . S
C438 H430 0.930 . S
C438 C437 1.362 . S
C438 C441 1.409 . S
C439 H431 0.930 . S
C439 C440 1.355 . S
C439 C441 1.415 . S
C440 C439 1.355 . S
C440 C442 1.419 . S
C441 C436 1.425 . S
C441 C438 1.409 . S
C441 C439 1.415 . S
C442 H432 0.930 . S
C442 C440 1.419 . S
C442 C443 1.362 . S
C443 H433 0.930 . S
C443 C436 1.409 . S
C443 C442 1.362 . S
H444 C450 0.930 . S
H445 C453 0.930 . S
H446 C454 0.930 . S
H447 C455 0.930 . S
H448 C458 0.930 . S
H449 C459 0.930 . S
C450 H444 0.930 . S
C450 C451 1.355 . S
C450 C452 1.415 . S
C451 C450 1.355 . S
C451 C453 1.419 . S
C452 C450 1.415 . S
C452 C457 1.425 . S
C452 C459 1.409 . S
C453 H445 0.930 . S
C453 C451 1.419 . S
C453 C454 1.362 . S
C454 H446 0.930 . S
C454 C453 1.362 . S
C454 C457 1.409 . S
C455 H447 0.930 . S
C455 C456 1.355 . S
C455 C457 1.415 . S
C456 C455 1.355 . S
C456 C458 1.419 . S
C457 C452 1.425 . S
C457 C454 1.409 . S
C457 C455 1.415 . S
C458 H448 0.930 . S
C458 C456 1.419 . S
C458 C459 1.362 . S
C459 H449 0.930 . S
C459 C452 1.409 . S
C459 C458 1.362 . S
H460 C466 0.930 . S
H461 C469 0.930 . S
H462 C470 0.930 . S
H463 C471 0.930 . S
H464 C474 0.930 . S
H465 C475 0.930 . S
C466 H460 0.930 . S
C466 C467 1.355 . S
C466 C468 1.415 . S
C467 C466 1.355 . S
C467 C469 1.419 . S
C468 C466 1.415 . S
C468 C473 1.425 . S
C468 C475 1.409 . S
C469 H461 0.930 . S
C469 C467 1.419 . S
C469 C470 1.362 . S
C470 H462 0.930 . S
C470 C469 1.362 . S
C470 C473 1.409 . S
C471 H463 0.930 . S
C471 C472 1.355 . S
C471 C473 1.415 . S
C472 C471 1.355 . S
C472 C474 1.419 . S
C473 C468 1.425 . S
C473 C470 1.409 . S
C473 C471 1.415 . S
C474 H464 0.930 . S
C474 C472 1.419 . S
C474 C475 1.362 . S
C475 H465 0.930 . S
C475 C468 1.409 . S
C475 C474 1.362 . S
H476 C482 0.930 . S
H477 C485 0.930 . S
H478 C486 0.930 . S
H479 C487 0.930 . S
H480 C490 0.930 . S
H481 C491 0.930 . S
C482 H476 0.930 . S
C482 C483 1.355 . S
C482 C484 1.415 . S
C483 C482 1.355 . S
C483 C485 1.419 . S
C484 C482 1.415 . S
C484 C489 1.425 . S
C484 C491 1.409 . S
C485 H477 0.930 . S
C485 C483 1.419 . S
C485 C486 1.362 . S
C486 H478 0.930 . S
C486 C485 1.362 . S
C486 C489 1.409 . S
C487 H479 0.930 . S
C487 C488 1.355 . S
C487 C489 1.415 . S
C488 C487 1.355 . S
C488 C490 1.419 . S
C489 C484 1.425 . S
C489 C486 1.409 . S
C489 C487 1.415 . S
C490 H480 0.930 . S
C490 C488 1.419 . S
C490 C491 1.362 . S
C491 H481 0.930 . S
C491 C484 1.409 . S
C491 C490 1.362 . S
H492 C498 0.930 . S
H493 C501 0.930 . S
H494 C502 0.930 . S
H495 C503 0.930 . S
H496 C506 0.930 . S
H497 C507 0.930 . S
C498 H492 0.930 . S
C498 C499 1.355 . S
C498 C500 1.415 . S
C499 C498 1.355 . S
C499 C501 1.419 . S
C500 C498 1.415 . S
C500 C505 1.425 . S
C500 C507 1.409 . S
C501 H493 0.930 . S
C501 C499 1.419 . S
C501 C502 1.362 . S
C502 H494 0.930 . S
C502 C501 1.362 . S
C502 C505 1.409 . S
C503 H495 0.930 . S
C503 C504 1.355 . S
C503 C505 1.415 . S
C504 C503 1.355 . S
C504 C506 1.419 . S
C505 C500 1.425 . S
C505 C502 1.409 . S
C505 C503 1.415 . S
C506 H496 0.930 . S
C506 C504 1.419 . S
C506 C507 1.362 . S
C507 H497 0.930 . S
C507 C500 1.409 . S
C507 C506 1.362 . S
H508 C514 0.930 . S
H509 C517 0.930 . S
H510 C518 0.930 . S
H511 C519 0.930 . S
H512 C522 0.930 . S
H513 C523 0.930 . S
C514 H508 0.930 . S
C514 C515 1.355 . S
C514 C516 1.415 . S
C515 C514 1.355 . S
C515 C517 1.419 . S
C516 C514 1.415 . S
C516 C521 1.425 . S
C516 C523 1.409 . S
C517 H509 0.930 . S
C517 C515 1.419 . S
C517 C518 1.362 . S
C518 H510 0.930 . S
C518 C517 1.362 . S
C518 C521 1.409 . S
C519 H511 0.930 . S
C519 C520 1.355 . S
C519 C521 1.415 . S
C520 C519 1.355 . S
C520 C522 1.419 . S
C521 C516 1.425 . S
C521 C518 1.409 . S
C521 C519 1.415 . S
C522 H512 0.930 . S
C522 C520 1.419 . S
C522 C523 1.362 . S
C523 H513 0.930 . S
C523 C516 1.409 . S
C523 C522 1.362 . S
H524 C530 0.930 . S
H525 C533 0.930 . S
H526 C534 0.930 . S
H527 C535 0.930 . S
H528 C538 0.930 . S
H529 C539 0.930 . S
C530 H524 0.930 . S
C530 C531 1.355 . S
C530 C532 1.415 . S
C531 C530 1.355 . S
C531 C533 1.419 . S
C532 C530 1.415 . S
C532 C537 1.425 . S
C532 C539 1.409 . S
C533 H525 0.930 . S
C533 C531 1.419 . S
C533 C534 1.362 . S
C534 H526 0.930 . S
C534 C533 1.362 . S
C534 C537 1.409 . S
C535 H527 0.930 . S
C535 C536 1.355 . S
C535 C537 1.415 . S
C536 C535 1.355 . S
C536 C538 1.419 . S
C537 C532 1.425 . S
C537 C534 1.409 . S
C537 C535 1.415 . S
C538 H528 0.930 . S
C538 C536 1.419 . S
C538 C539 1.362 . S
C539 H529 0.930 . S
C539 C532 1.409 . S
C539 C538 1.362 . S
H540 C546 0.930 . S
H541 C549 0.930 . S
H542 C550 0.930 . S
H543 C551 0.930 . S
H544 C554 0.930 . S
H545 C555 0.930 . S
C546 H540 0.930 . S
C546 C547 1.355 . S
C546 C548 1.415 . S
C547 C546 1.355 . S
C547 C549 1.419 . S
C548 C546 1.415 . S
C548 C553 1.425 . S
C548 C555 1.409 . S
C549 H541 0.930 . S
C549 C547 1.419 . S
C549 C550 1.362 . S
C550 H542 0.930 . S
C550 C549 1.362 . S
C550 C553 1.409 . S
C551 H543 0.930 . S
C551 C552 1.355 . S
C551 C553 1.415 . S
C552 C551 1.355 . S
C552 C554 1.419 . S
C553 C548 1.425 . S
C553 C550 1.409 . S
C553 C551 1.415 . S
C554 H544 0.930 . S
C554 C552 1.419 . S
C554 C555 1.362 . S
C555 H545 0.930 . S
C555 C548 1.409 . S
C555 C554 1.362 . S
H556 C562 0.930 . S
H557 C565 0.930 . S
H558 C566 0.930 . S
H559 C567 0.930 . S
H560 C570 0.930 . S
H561 C571 0.930 . S
C562 H556 0.930 . S
C562 C563 1.355 . S
C562 C564 1.415 . S
C563 C562 1.355 . S
C563 C565 1.419 . S
C564 C562 1.415 . S
C564 C569 1.425 . S
C564 C571 1.409 . S
C565 H557 0.930 . S
C565 C563 1.419 . S
C565 C566 1.362 . S
C566 H558 0.930 . S
C566 C565 1.362 . S
C566 C569 1.409 . S
C567 H559 0.930 . S
C567 C568 1.355 . S
C567 C569 1.415 . S
C568 C567 1.355 . S
C568 C570 1.419 . S
C569 C564 1.425 . S
C569 C566 1.409 . S
C569 C567 1.415 . S
C570 H560 0.930 . S
C570 C568 1.419 . S
C570 C571 1.362 . S
C571 H561 0.930 . S
C571 C564 1.409 . S
C571 C570 1.362 . S
H572 C578 0.930 . S
H573 C581 0.930 . S
H574 C582 0.930 . S
H575 C583 0.930 . S
H576 C586 0.930 . S
H577 C587 0.930 . S
C578 H572 0.930 . S
C578 C579 1.355 . S
C578 C580 1.415 . S
C579 C578 1.355 . S
C579 C581 1.419 . S
C580 C578 1.415 . S
C580 C585 1.425 . S
C580 C587 1.409 . S
C581 H573 0.930 . S
C581 C579 1.419 . S
C581 C582 1.362 . S
C582 H574 0.930 . S
C582 C581 1.362 . S
C582 C585 1.409 . S
C583 H575 0.930 . S
C583 C584 1.355 . S
C583 C585 1.415 . S
C584 C583 1.355 . S
C584 C586 1.419 . S
C585 C580 1.425 . S
C585 C582 1.409 . S
C585 C583 1.415 . S
C586 H576 0.930 . S
C586 C584 1.419 . S
C586 C587 1.362 . S
C587 H577 0.930 . S
C587 C580 1.409 . S
C587 C586 1.362 . S
C211 C12 1.484 . S
C216 C127 1.552 . S
C227 C30 1.494 . S
C232 C140 1.532 . S
C248 C162 1.526 . S
C243 C51 1.432 . S
C264 C175 1.524 . S
C259 C72 1.422 . S
C280 C188 1.505 . S
C275 C96 1.501 . S
C296 C201 1.493 . S
C291 C117 1.470 . S
C307 C38 1.442 . S
C312 C157 1.541 . S
C323 C59 1.468 . S
C328 C170 1.482 . S
C344 C183 1.527 . S
C339 C80 1.442 . S
C360 C196 1.507 . S
C355 C103 1.425 . S
C371 C124 1.487 . S
C376 C129 1.538 . S
C392 C142 1.525 . S
C387 C19 1.481 . S
C408 C168 1.492 . S
C403 C17 1.468 . S
C419 C40 1.465 . S
C424 C181 1.487 . S
C440 C194 1.521 . S
C435 C61 1.450 . S
C451 C82 1.465 . S
C456 C131 1.519 . S
C467 C101 1.460 . S
C472 C144 1.552 . S
C483 C122 1.487 . S
C488 C155 1.496 . S
C499 C33 1.420 . S
C504 C192 1.550 . S
C520 C136 1.545 . S
C515 C54 1.482 . S
C531 C75 1.411 . S
C536 C149 1.559 . S
C547 C93 1.512 . S
C552 C153 1.475 . S
C563 C114 1.507 . S
C568 C166 1.520 . S
C579 C9 1.438 . S
C584 C179 1.532 . S
