# Generated by pormake.
# Topology rtl, (3,6)-cn, num edge types: 1
# Building blocks:
#     Node 0, Type 0, BuildingBlock: BETDAH_clean_linker_0, # of connection points: 3
#     Node 1, Type 0, BuildingBlock: BETDAH_clean_linker_0, # of connection points: 3
#     Node 2, Type 0, BuildingBlock: BETDAH_clean_linker_0, # of connection points: 3
#     Node 3, Type 0, BuildingBlock: BETDAH_clean_linker_0, # of connection points: 3
#     Node 4, Type 1, BuildingBlock: LEVNOQ01_clean_sbu_1, # of connection points: 6
#     Node 5, Type 1, BuildingBlock: LEVNOQ01_clean_sbu_1, # of connection points: 6
#     Edge 6, Type (0, 1), BuildingBlock: EZIPEK_clean_linker_0, # of connection points: 2
#     Edge 7, Type (0, 1), BuildingBlock: EZIPEK_clean_linker_0, # of connection points: 2
#     Edge 8, Type (0, 1), BuildingBlock: EZIPEK_clean_linker_0, # of connection points: 2
#     Edge 9, Type (0, 1), BuildingBlock: EZIPEK_clean_linker_0, # of connection points: 2
#     Edge 10, Type (0, 1), BuildingBlock: EZIPEK_clean_linker_0, # of connection points: 2
#     Edge 11, Type (0, 1), BuildingBlock: EZIPEK_clean_linker_0, # of connection points: 2
#     Edge 12, Type (0, 1), BuildingBlock: EZIPEK_clean_linker_0, # of connection points: 2
#     Edge 13, Type (0, 1), BuildingBlock: EZIPEK_clean_linker_0, # of connection points: 2
#     Edge 14, Type (0, 1), BuildingBlock: EZIPEK_clean_linker_0, # of connection points: 2
#     Edge 15, Type (0, 1), BuildingBlock: EZIPEK_clean_linker_0, # of connection points: 2
#     Edge 16, Type (0, 1), BuildingBlock: EZIPEK_clean_linker_0, # of connection points: 2
#     Edge 17, Type (0, 1), BuildingBlock: EZIPEK_clean_linker_0, # of connection points: 2
# Relax obj value: 0.017
# Max RMSD: 0.110
# Mean RMSD: 0.083
data_MOF--net-rtl--node1-LEVNOQ01_clean_sbu_1--node2-BETDAH_clean_linker_0--edge1-EZIPEK_clean_linker_0
_symmetry_space_group_name_H-M    P1
_symmetry_Int_Tables_number       1
_symmetry_cell_setting            triclinic
loop_
_symmetry_equiv_pos_as_xyz
'x, y, z'
_cell_length_a     25.936482
_cell_length_b     25.948657
_cell_length_c     16.011225
_cell_angle_alpha  91.040675
_cell_angle_beta   101.18835
_cell_angle_gamma 89.95858
loop_
_atom_site_label
_atom_site_type_symbol
_atom_site_fract_x
_atom_site_fract_y
_atom_site_fract_z
_atom_type_partial_charge
H0 H 0.10287 0.87802 0.9915 0.0
H1 H 0.23429 0.81472 0.16335 0.0
H2 H 0.2389 0.82646 0.89695 0.0
C3 C 0.14101 0.85944 1.00176 0.0
C4 C 0.16724 0.85293 0.93332 0.0
C5 C 0.1658 0.84726 0.08477 0.0
C6 C 0.21519 0.82371 0.09893 0.0
C7 C 0.24106 0.81478 0.03065 0.0
C8 C 0.2176 0.83074 0.94858 0.0
N9 N 0.29193 0.79267 0.04357 0.0
C10 C 0.312 0.76122 0.11165 0.0
H11 H 0.62256 0.64683 0.65113 0.0
H12 H 0.72365 0.7585 0.56816 0.0
H13 H 0.69334 0.76666 0.82365 0.0
C14 C 0.64741 0.6808 0.66382 0.0
C15 C 0.65589 0.70399 0.74496 0.0
C16 C 0.67114 0.70039 0.59923 0.0
C17 C 0.7043 0.7439 0.61709 0.0
C18 C 0.71215 0.76802 0.69861 0.0
C19 C 0.68739 0.74808 0.7613 0.0
N20 N 0.74464 0.81209 0.72103 0.0
C21 C 0.77789 0.83237 0.67175 0.0
H22 H 0.89569 0.12601 0.95467 0.0
H23 H 0.77523 0.22676 0.01411 0.0
H24 H 0.80172 0.21433 0.75714 0.0
C25 C 0.86505 0.15419 0.9349 0.0
C26 C 0.8525 0.16849 0.84939 0.0
C27 C 0.83705 0.17474 0.9944 0.0
C28 C 0.79719 0.21132 0.96833 0.0
C29 C 0.7844 0.22568 0.88214 0.0
C30 C 0.81185 0.20366 0.82347 0.0
N31 N 0.7433 0.26065 0.85086 0.0
C32 C 0.71974 0.29384 0.90114 0.0
H33 H 0.43702 0.3812 0.58281 0.0
H34 H 0.29378 0.34852 0.66901 0.0
H35 H 0.30397 0.31923 0.4075 0.0
C36 C 0.39773 0.36482 0.57114 0.0
C37 C 0.37378 0.35052 0.48797 0.0
C38 C 0.36897 0.36522 0.6368 0.0
C39 C 0.31705 0.34688 0.61962 0.0
C40 C 0.29437 0.32767 0.53832 0.0
C41 C 0.32281 0.32967 0.47203 0.0
N42 N 0.24105 0.31202 0.52305 0.0
C43 C 0.22083 0.27172 0.46818 0.0
O44 O 0.02321 0.08841 0.64191 0.0
Mg45 Mg 0.07515 0.05526 0.5707 0.0
O46 O 0.95749 0.05741 0.54611 0.0
Mg47 Mg 1.00047 0.01041 0.4537 0.0
O48 O 0.06869 0.07373 0.44567 0.0
O49 O 0.1267 0.10871 0.55561 0.0
O50 O 0.04445 0.96228 0.364 0.0
O51 O 0.94884 0.05979 0.34214 0.0
Mg52 Mg 0.92537 0.94031 0.3211 0.0
O53 O 0.93518 0.9493 0.45043 0.0
O54 O 0.99067 0.90859 0.28001 0.0
O55 O 0.89208 0.00704 0.26244 0.0
O56 O 0.87811 0.8934 0.37455 0.0
C57 C 0.08884 0.9554 0.61742 0.0
C58 C 0.97447 0.08277 0.61491 0.0
C59 C 0.10825 0.10463 0.47512 0.0
C60 C 0.03621 0.92692 0.30638 0.0
C61 C 0.90851 0.05243 0.28238 0.0
C62 C 0.89844 0.91484 0.44674 0.0
O63 O 0.12021 0.99223 0.61757 0.0
O64 O 0.0434 0.95782 0.56946 0.0
O65 O 0.64873 0.53254 0.29137 0.0
Mg66 Mg 0.60837 0.46627 0.23956 0.0
O67 O 0.57195 0.56884 0.24931 0.0
Mg68 Mg 0.52595 0.52041 0.12844 0.0
O69 O 0.59267 0.46142 0.10903 0.0
O70 O 0.65571 0.4164 0.19427 0.0
O71 O 0.48111 0.47178 0.01078 0.0
O72 O 0.56248 0.57447 0.03472 0.0
Mg73 Mg 0.45574 0.58237 0.02986 0.0
O74 O 0.45632 0.57578 0.15572 0.0
O75 O 0.42747 0.52694 0.93699 0.0
O76 O 0.5068 0.6381 1.0027 0.0
O77 O 0.39332 0.61534 0.06148 0.0
C78 C 0.50487 0.4369 0.27585 0.0
C79 C 0.61765 0.5692 0.29714 0.0
C80 C 0.63143 0.42852 0.11911 0.0
C81 C 0.44637 0.48221 0.94555 0.0
C82 C 0.55002 0.61737 0.99784 0.0
C83 C 0.41388 0.6039 0.13879 0.0
O84 O 0.55356 0.43072 0.3037 0.0
O85 O 0.48889 0.46588 0.21291 0.0
C86 C 0.13939 0.22839 0.39499 0.0
C87 C 0.19422 0.22634 0.42651 0.0
C88 C 0.19027 0.13263 0.43339 0.0
C89 C 0.13482 0.13631 0.41999 0.0
N90 N 0.05801 0.18013 0.35058 0.0
N91 N 0.27431 0.17776 0.45013 0.0
C92 C 0.10986 0.18182 0.38719 0.0
C93 C 0.22065 0.1785 0.43555 0.0
N94 N 0.11553 0.27504 0.37845 0.0
N95 N 0.21292 0.08546 0.44978 0.0
H96 H 0.29637 0.21148 0.45087 0.0
H97 H 0.2968 0.14438 0.45711 0.0
H98 H 0.19003 0.05206 0.44625 0.0
H99 H 0.25319 0.07907 0.46538 0.0
H100 H 0.07496 0.28003 0.3645 0.0
H101 H 0.13705 0.30922 0.38087 0.0
H102 H 0.03803 0.21115 0.31926 0.0
H103 H 0.03721 0.14542 0.34402 0.0
C104 C 0.39037 0.72606 0.20636 0.0
C105 C 0.33604 0.72238 0.17079 0.0
C106 C 0.3381 0.62999 0.19625 0.0
C107 C 0.39314 0.63243 0.20533 0.0
N108 N 0.47082 0.67945 0.26493 0.0
N109 N 0.25486 0.67534 0.15532 0.0
C110 C 0.41875 0.67978 0.22883 0.0
C111 C 0.30845 0.67581 0.17579 0.0
N112 N 0.41478 0.77292 0.21245 0.0
N113 N 0.31534 0.58286 0.19838 0.0
H114 H 0.23329 0.70919 0.14168 0.0
H115 H 0.23194 0.64231 0.15336 0.0
H116 H 0.33853 0.54986 0.2108 0.0
H117 H 0.2751 0.57675 0.19169 0.0
H118 H 0.45519 0.77804 0.2312 0.0
H119 H 0.39372 0.80697 0.19782 0.0
H120 H 0.49266 0.71244 0.28599 0.0
H121 H 0.49078 0.64469 0.27866 0.0
C122 C 0.81087 0.90934 0.60925 0.0
C123 C 0.81427 0.85575 0.6254 0.0
C124 C 0.88739 0.84787 0.54996 0.0
C125 C 0.8784 0.8992 0.5225 0.0
N126 N 0.8329 0.97996 0.5247 0.0
N127 N 0.85439 0.77299 0.61178 0.0
C128 C 0.84111 0.93066 0.55301 0.0
C129 C 0.85259 0.82475 0.59681 0.0
N130 N 0.7787 0.93961 0.64762 0.0
N131 N 0.92962 0.82166 0.53135 0.0
H132 H 0.83041 0.75507 0.64798 0.0
H133 H 0.87734 0.74721 0.58446 0.0
H134 H 0.95598 0.83841 0.49806 0.0
H135 H 0.94136 0.78557 0.5552 0.0
H136 H 0.77725 0.97957 0.64391 0.0
H137 H 0.75563 0.92494 0.68836 0.0
H138 H 0.80229 0.00325 0.53625 0.0
H139 H 0.85596 0.99726 0.48639 0.0
C140 C 0.72597 0.3718 0.99387 0.0
C141 C 0.69498 0.33187 0.94787 0.0
C142 C 0.61726 0.36295 0.99953 0.0
C143 C 0.64854 0.40262 0.04619 0.0
N144 N 0.72757 0.45353 0.07059 0.0
N145 N 0.60973 0.29533 0.89078 0.0
C146 C 0.70136 0.40981 0.03752 0.0
C147 C 0.64003 0.32947 0.94526 0.0
N148 N 0.77917 0.37238 0.99821 0.0
N149 N 0.56689 0.35549 0.0108 0.0
H150 H 0.62547 0.26944 0.85186 0.0
H151 H 0.56883 0.29516 0.87936 0.0
H152 H 0.54854 0.38006 0.04814 0.0
H153 H 0.54405 0.32362 0.98675 0.0
H154 H 0.80471 0.39702 0.0385 0.0
H155 H 0.79844 0.34573 0.96556 0.0
H156 H 0.76464 0.46365 0.06034 0.0
H157 H 0.70982 0.48233 0.10156 0.0
C158 C 0.14474 0.91946 0.17728 0.0
C159 C 0.14249 0.866 0.15716 0.0
C160 C 0.0863 0.85281 0.26101 0.0
C161 C 0.07949 0.907 0.26675 0.0
N162 N 0.09964 0.99267 0.2243 0.0
N163 N 0.11131 0.78081 0.17876 0.0
C164 C 0.10873 0.94075 0.22462 0.0
C165 C 0.11388 0.83217 0.19959 0.0
N166 N 0.18146 0.94974 0.15118 0.0
N167 N 0.06699 0.82134 0.31527 0.0
H168 H 0.13219 0.76433 0.13557 0.0
H169 H 0.08615 0.75519 0.20038 0.0
H170 H 0.04797 0.83568 0.36257 0.0
H171 H 0.07451 0.78194 0.31921 0.0
H172 H 0.18811 0.98813 0.17038 0.0
H173 H 0.20914 0.93485 0.11793 0.0
H174 H 0.11548 0.01794 0.18609 0.0
H175 H 0.07299 0.01038 0.25649 0.0
C176 C 0.66031 0.66122 0.88705 0.0
C177 C 0.63007 0.68254 0.81197 0.0
C178 C 0.54982 0.6521 0.85285 0.0
C179 C 0.57902 0.63766 0.93386 0.0
N180 N 0.66209 0.63591 0.0327 0.0
N181 N 0.54524 0.70902 0.73425 0.0
C182 C 0.63441 0.64414 0.95239 0.0
C183 C 0.57458 0.68131 0.79826 0.0
N184 N 0.71338 0.65557 0.89476 0.0
N185 N 0.49915 0.6357 0.82543 0.0
H186 H 0.56186 0.73227 0.69397 0.0
H187 H 0.50464 0.71318 0.72721 0.0
H188 H 0.4798 0.61115 0.85995 0.0
H189 H 0.47852 0.64125 0.76359 0.0
H190 H 0.73648 0.63556 0.94418 0.0
H191 H 0.73359 0.66665 0.84765 0.0
H192 H 0.7018 0.645 0.05164 0.0
H193 H 0.64439 0.62446 0.08256 0.0
C194 C 0.89007 0.17093 0.14418 0.0
C195 C 0.84675 0.15334 0.08171 0.0
C196 C 0.83072 0.08523 0.1774 0.0
C197 C 0.88068 0.09536 0.22943 0.0
N198 N 0.93524 0.16629 0.2912 0.0
N199 N 0.77358 0.09481 0.03993 0.0
C200 C 0.90429 0.14372 0.22183 0.0
C201 C 0.81565 0.11149 0.09946 0.0
N202 N 0.91895 0.21222 0.12798 0.0
N203 N 0.79647 0.053 0.20576 0.0
H204 H 0.76039 0.11367 0.98281 0.0
H205 H 0.7537 0.06048 0.04491 0.0
H206 H 0.8048 0.03763 0.26672 0.0
H207 H 0.75777 0.04718 0.17438 0.0
H208 H 0.9546 0.22282 0.16671 0.0
H209 H 0.90838 0.23419 0.07337 0.0
H210 H 0.94731 0.2046 0.29207 0.0
H211 H 0.9413 0.14982 0.35119 0.0
C212 C 0.39639 0.36737 0.79841 0.0
C213 C 0.39085 0.39252 0.71881 0.0
C214 C 0.43801 0.46686 0.79096 0.0
C215 C 0.43436 0.44655 0.87094 0.0
N216 N 0.40657 0.378 0.95192 0.0
N217 N 0.39424 0.47282 0.64498 0.0
C218 C 0.41291 0.39664 0.87539 0.0
C219 C 0.40828 0.44418 0.71657 0.0
N220 N 0.38737 0.31562 0.8005 0.0
N221 N 0.47077 0.50737 0.78595 0.0
H222 H 0.36843 0.45941 0.59079 0.0
H223 H 0.40309 0.51196 0.64356 0.0
H224 H 0.49619 0.52238 0.83947 0.0
H225 H 0.47735 0.52121 0.72815 0.0
H226 H 0.39542 0.29458 0.85631 0.0
H227 H 0.37643 0.29295 0.74546 0.0
H228 H 0.38606 0.34415 0.95767 0.0
H229 H 0.41877 0.39823 0.00921 0.0
C230 C 0.63403 0.69152 0.43981 0.0
C231 C 0.66361 0.67118 0.51635 0.0
C232 C 0.65523 0.58502 0.45184 0.0
C233 C 0.63146 0.60548 0.37174 0.0
N234 N 0.6066 0.68059 0.28649 0.0
N235 N 0.71545 0.60108 0.58466 0.0
C236 C 0.62324 0.65955 0.36462 0.0
C237 C 0.67881 0.61882 0.5184 0.0
N238 N 0.61439 0.74035 0.43955 0.0
N239 N 0.6519 0.53357 0.4672 0.0
H240 H 0.7345 0.62521 0.63395 0.0
H241 H 0.73079 0.5639 0.58534 0.0
H242 H 0.62968 0.50771 0.42414 0.0
H243 H 0.66509 0.518 0.52712 0.0
H244 H 0.58785 0.75507 0.38826 0.0
H245 H 0.6215 0.76474 0.49302 0.0
H246 H 0.60456 0.7202 0.27689 0.0
H247 H 0.59925 0.65858 0.23028 0.0
C248 C 0.91567 0.1785 0.75021 0.0
C249 C 0.88172 0.1464 0.78605 0.0
C250 C 0.90741 0.07173 0.70739 0.0
C251 C 0.93807 0.10476 0.66657 0.0
N252 N 0.96318 0.19071 0.63584 0.0
N253 N 0.83766 0.06469 0.7879 0.0
C254 C 0.93964 0.15856 0.68397 0.0
C255 C 0.87524 0.09361 0.76127 0.0
N256 N 0.92689 0.22734 0.78204 0.0
N257 N 0.91108 0.01942 0.69835 0.0
H258 H 0.81305 0.07948 0.82681 0.0
H259 H 0.8279 0.02729 0.76596 0.0
H260 H 0.93422 0.00176 0.65968 0.0
H261 H 0.89439 0.99335 0.73414 0.0
H262 H 0.95578 0.25048 0.76483 0.0
H263 H 0.91081 0.24317 0.83158 0.0
H264 H 0.9611 0.23074 0.63987 0.0
H265 H 0.98046 0.1774 0.58586 0.0
C266 C 0.43682 0.337 0.38842 0.0
C267 C 0.39889 0.36807 0.41774 0.0
C268 C 0.42889 0.4438 0.35151 0.0
C269 C 0.46616 0.41258 0.31998 0.0
N270 N 0.49678 0.32764 0.29018 0.0
N271 N 0.34899 0.44695 0.40826 0.0
C272 C 0.46747 0.3585 0.33288 0.0
C273 C 0.39148 0.42005 0.39232 0.0
N274 N 0.44451 0.28751 0.41569 0.0
N275 N 0.43151 0.49639 0.3484 0.0
H276 H 0.3211 0.43106 0.43927 0.0
H277 H 0.33863 0.48319 0.38351 0.0
H278 H 0.45978 0.51601 0.32302 0.0
H279 H 0.40894 0.52099 0.37877 0.0
H280 H 0.47575 0.26475 0.40496 0.0
H281 H 0.42091 0.27012 0.45311 0.0
H282 H 0.49559 0.28754 0.29091 0.0
H283 H 0.5186 0.342 0.2474 0.0
C284 C 0.13067 0.92916 0.84768 0.0
C285 C 0.14447 0.87623 0.84935 0.0
C286 C 0.1159 0.87156 0.69316 0.0
C287 C 0.09831 0.92318 0.6945 0.0
N288 N 0.07187 0.99348 0.77678 0.0
N289 N 0.14012 0.79408 0.77458 0.0
C290 C 0.09989 0.94924 0.77322 0.0
C291 C 0.13413 0.84633 0.7722 0.0
N292 N 0.14961 0.9613 0.91518 0.0
N293 N 0.11618 0.84724 0.61699 0.0
H294 H 0.152 0.77442 0.83129 0.0
H295 H 0.12892 0.77 0.72141 0.0
H296 H 0.1011 0.86445 0.55893 0.0
H297 H 0.13367 0.81148 0.61167 0.0
H298 H 0.14373 0.00106 0.91348 0.0
H299 H 0.17661 0.94942 0.96822 0.0
H300 H 0.0687 0.01196 0.83394 0.0
H301 H 0.04667 0.0075 0.7234 0.0
loop_
_geom_bond_atom_site_label_1
_geom_bond_atom_site_label_2
_geom_bond_distance
_geom_bond_site_symmetry_2
_ccdc_geom_bond_type
H0 C3 0.929 . S
H1 C6 0.929 . S
H2 C8 0.930 . S
C3 H0 0.929 . S
C3 C4 1.398 1_554 S
C3 C5 1.396 . S
C4 C3 1.398 1_556 S
C4 C8 1.407 . S
C5 C3 1.396 . S
C5 C6 1.394 . S
C6 H1 0.929 . S
C6 C5 1.394 . S
C6 C7 1.382 . S
C7 C6 1.382 . S
C7 C8 1.392 1_554 S
C7 N9 1.420 . S
C8 H2 0.930 . S
C8 C4 1.407 . S
C8 C7 1.392 1_556 S
N9 C7 1.420 . S
N9 C10 1.244 . S
C10 N9 1.244 . S
H11 C14 0.929 . S
H12 C17 0.929 . S
H13 C19 0.930 . S
C14 H11 0.929 . S
C14 C15 1.398 . S
C14 C16 1.396 . S
C15 C14 1.398 . S
C15 C19 1.407 . S
C16 C14 1.396 . S
C16 C17 1.394 . S
C17 H12 0.929 . S
C17 C16 1.394 . S
C17 C18 1.382 . S
C18 C17 1.382 . S
C18 C19 1.392 . S
C18 N20 1.420 . S
C19 H13 0.930 . S
C19 C15 1.407 . S
C19 C18 1.392 . S
N20 C18 1.420 . S
N20 C21 1.244 . S
C21 N20 1.244 . S
H22 C25 0.929 . S
H23 C28 0.929 . S
H24 C30 0.930 . S
C25 H22 0.929 . S
C25 C26 1.398 1_554 S
C25 C27 1.396 . S
C26 C25 1.398 1_556 S
C26 C30 1.407 . S
C27 C25 1.396 . S
C27 C28 1.394 . S
C28 H23 0.929 . S
C28 C27 1.394 . S
C28 C29 1.382 1_554 S
C29 C28 1.382 1_556 S
C29 C30 1.392 . S
C29 N31 1.420 . S
C30 H24 0.930 . S
C30 C26 1.407 . S
C30 C29 1.392 . S
N31 C29 1.420 . S
N31 C32 1.244 1_556 S
C32 N31 1.244 1_554 S
H33 C36 0.929 . S
H34 C39 0.929 . S
H35 C41 0.930 . S
C36 H33 0.929 . S
C36 C37 1.398 . S
C36 C38 1.396 . S
C37 C36 1.398 . S
C37 C41 1.407 . S
C38 C36 1.396 . S
C38 C39 1.394 . S
C39 H34 0.929 . S
C39 C38 1.394 . S
C39 C40 1.382 . S
C40 C39 1.382 . S
C40 C41 1.392 . S
C40 N42 1.420 . S
C41 H35 0.930 . S
C41 C37 1.407 . S
C41 C40 1.392 . S
N42 C40 1.420 . S
N42 C43 1.244 . S
C43 N42 1.244 . S
O44 Mg45 1.990 . S
O44 C58 1.253 1_455 S
Mg45 O44 1.990 . S
Mg45 O48 2.180 . S
Mg45 O49 2.117 . S
Mg45 O63 2.030 . S
O46 Mg47 2.072 1_655 S
O46 C58 1.260 . S
Mg47 O46 2.072 1_455 S
Mg47 O48 2.099 . S
Mg47 O50 2.079 1_545 S
Mg47 O51 2.072 1_455 S
Mg47 O53 2.099 1_445 S
Mg47 O64 2.079 1_545 S
O48 Mg45 2.180 . S
O48 Mg47 2.099 . S
O48 C59 1.279 . S
O49 Mg45 2.117 . S
O49 C59 1.250 . S
O50 Mg47 2.079 1_565 S
O50 C60 1.264 . S
O51 Mg47 2.072 1_655 S
O51 C61 1.260 . S
Mg52 O53 2.180 . S
Mg52 O54 2.030 1_655 S
Mg52 O55 1.990 1_565 S
Mg52 O56 2.117 . S
O53 Mg47 2.099 1_665 S
O53 Mg52 2.180 . S
O53 C62 1.279 . S
O54 Mg52 2.030 1_455 S
O54 C60 1.248 . S
O55 Mg52 1.990 1_545 S
O55 C61 1.253 . S
O56 Mg52 2.117 . S
O56 C62 1.250 . S
C57 O63 1.248 1_565 S
C57 O64 1.264 . S
C58 O44 1.253 1_655 S
C58 O46 1.260 . S
C59 O48 1.279 . S
C59 O49 1.250 . S
C60 O50 1.264 . S
C60 O54 1.248 . S
C61 O51 1.260 . S
C61 O55 1.253 . S
C62 O53 1.279 . S
C62 O56 1.250 . S
O63 Mg45 2.030 . S
O63 C57 1.248 1_545 S
O64 Mg47 2.079 1_565 S
O64 C57 1.264 . S
O65 Mg66 1.990 . S
O65 C79 1.253 . S
Mg66 O65 1.990 . S
Mg66 O69 2.180 . S
Mg66 O70 2.117 . S
Mg66 O84 2.030 . S
O67 Mg68 2.072 . S
O67 C79 1.260 . S
Mg68 O67 2.072 . S
Mg68 O69 2.099 . S
Mg68 O71 2.079 1_554 S
Mg68 O72 2.072 1_554 S
Mg68 O74 2.099 . S
Mg68 O85 2.079 . S
O69 Mg66 2.180 . S
O69 Mg68 2.099 . S
O69 C80 1.279 . S
O70 Mg66 2.117 . S
O70 C80 1.250 . S
O71 Mg68 2.079 1_556 S
O71 C81 1.264 . S
O72 Mg68 2.072 1_556 S
O72 C82 1.260 . S
Mg73 O74 2.180 1_556 S
Mg73 O75 2.030 . S
Mg73 O76 1.990 . S
Mg73 O77 2.117 . S
O74 Mg68 2.099 . S
O74 Mg73 2.180 1_554 S
O74 C83 1.279 . S
O75 Mg73 2.030 . S
O75 C81 1.248 . S
O76 Mg73 1.990 . S
O76 C82 1.253 . S
O77 Mg73 2.117 . S
O77 C83 1.250 1_556 S
C78 O84 1.248 . S
C78 O85 1.264 . S
C79 O65 1.253 . S
C79 O67 1.260 . S
C80 O69 1.279 . S
C80 O70 1.250 . S
C81 O71 1.264 . S
C81 O75 1.248 . S
C82 O72 1.260 . S
C82 O76 1.253 . S
C83 O74 1.279 . S
C83 O77 1.250 1_554 S
O84 Mg66 2.030 . S
O84 C78 1.248 . S
O85 Mg68 2.079 . S
O85 C78 1.264 . S
C86 C87 1.363 . S
C86 C92 1.379 . S
C86 N94 1.356 . S
C87 C86 1.363 . S
C87 C93 1.363 . S
C88 C89 1.363 . S
C88 C93 1.379 . S
C88 N95 1.356 . S
C89 C88 1.363 . S
C89 C92 1.363 . S
N90 C92 1.356 . S
N90 H102 0.984 . S
N90 H103 0.985 . S
N91 C93 1.356 . S
N91 H96 0.984 . S
N91 H97 0.985 . S
C92 C86 1.379 . S
C92 C89 1.363 . S
C92 N90 1.356 . S
C93 C87 1.363 . S
C93 C88 1.379 . S
C93 N91 1.356 . S
N94 C86 1.356 . S
N94 H100 0.984 . S
N94 H101 0.984 . S
N95 C88 1.356 . S
N95 H98 0.984 . S
N95 H99 0.985 . S
H96 N91 0.984 . S
H97 N91 0.985 . S
H98 N95 0.984 . S
H99 N95 0.985 . S
H100 N94 0.984 . S
H101 N94 0.984 . S
H102 N90 0.984 . S
H103 N90 0.985 . S
C104 C105 1.363 . S
C104 C110 1.379 . S
C104 N112 1.356 . S
C105 C104 1.363 . S
C105 C111 1.363 . S
C106 C107 1.363 . S
C106 C111 1.379 . S
C106 N113 1.356 1_554 S
C107 C106 1.363 . S
C107 C110 1.363 . S
N108 C110 1.356 . S
N108 H120 0.984 . S
N108 H121 0.985 . S
N109 C111 1.356 1_556 S
N109 H114 0.984 1_556 S
N109 H115 0.985 . S
C110 C104 1.379 . S
C110 C107 1.363 . S
C110 N108 1.356 . S
C111 C105 1.363 . S
C111 C106 1.379 . S
C111 N109 1.356 1_554 S
N112 C104 1.356 . S
N112 H118 0.984 . S
N112 H119 0.984 . S
N113 C106 1.356 1_556 S
N113 H116 0.984 . S
N113 H117 0.985 . S
H114 N109 0.984 1_554 S
H115 N109 0.985 . S
H116 N113 0.984 . S
H117 N113 0.985 . S
H118 N112 0.984 . S
H119 N112 0.984 . S
H120 N108 0.984 . S
H121 N108 0.985 . S
C122 C123 1.363 . S
C122 C128 1.379 . S
C122 N130 1.356 . S
C123 C122 1.363 . S
C123 C129 1.363 . S
C124 C125 1.363 . S
C124 C129 1.379 . S
C124 N131 1.356 . S
C125 C124 1.363 . S
C125 C128 1.363 . S
N126 C128 1.356 . S
N126 H138 0.984 . S
N126 H139 0.985 . S
N127 C129 1.356 . S
N127 H132 0.984 . S
N127 H133 0.985 . S
C128 C122 1.379 . S
C128 C125 1.363 . S
C128 N126 1.356 . S
C129 C123 1.363 . S
C129 C124 1.379 . S
C129 N127 1.356 . S
N130 C122 1.356 . S
N130 H136 0.984 . S
N130 H137 0.984 . S
N131 C124 1.356 . S
N131 H134 0.984 . S
N131 H135 0.985 . S
H132 N127 0.984 . S
H133 N127 0.985 . S
H134 N131 0.984 . S
H135 N131 0.985 . S
H136 N130 0.984 . S
H137 N130 0.984 . S
H138 N126 0.984 . S
H139 N126 0.985 . S
C140 C141 1.363 . S
C140 C146 1.379 . S
C140 N148 1.356 . S
C141 C140 1.363 . S
C141 C147 1.363 1_554 S
C142 C143 1.363 1_556 S
C142 C147 1.379 . S
C142 N149 1.356 . S
C143 C142 1.363 1_554 S
C143 C146 1.363 . S
N144 C146 1.356 . S
N144 H156 0.984 . S
N144 H157 0.985 . S
N145 C147 1.356 . S
N145 H150 0.984 . S
N145 H151 0.985 . S
C146 C140 1.379 . S
C146 C143 1.363 . S
C146 N144 1.356 . S
C147 C141 1.363 1_556 S
C147 C142 1.379 . S
C147 N145 1.356 . S
N148 C140 1.356 . S
N148 H154 0.984 . S
N148 H155 0.984 . S
N149 C142 1.356 . S
N149 H152 0.984 . S
N149 H153 0.985 . S
H150 N145 0.984 . S
H151 N145 0.985 . S
H152 N149 0.984 . S
H153 N149 0.985 . S
H154 N148 0.984 . S
H155 N148 0.984 . S
H156 N144 0.984 . S
H157 N144 0.985 . S
C158 C159 1.363 . S
C158 C164 1.379 . S
C158 N166 1.356 . S
C159 C158 1.363 . S
C159 C165 1.363 . S
C160 C161 1.363 . S
C160 C165 1.379 . S
C160 N167 1.356 . S
C161 C160 1.363 . S
C161 C164 1.363 . S
N162 C164 1.356 1_545 S
N162 H174 0.984 . S
N162 H175 0.985 . S
N163 C165 1.356 . S
N163 H168 0.984 . S
N163 H169 0.985 . S
C164 C158 1.379 . S
C164 C161 1.363 . S
C164 N162 1.356 1_565 S
C165 C159 1.363 . S
C165 C160 1.379 . S
C165 N163 1.356 . S
N166 C158 1.356 . S
N166 H172 0.984 . S
N166 H173 0.984 . S
N167 C160 1.356 . S
N167 H170 0.984 . S
N167 H171 0.985 . S
H168 N163 0.984 . S
H169 N163 0.985 . S
H170 N167 0.984 . S
H171 N167 0.985 . S
H172 N166 0.984 . S
H173 N166 0.984 . S
H174 N162 0.984 . S
H175 N162 0.985 . S
C176 C177 1.363 . S
C176 C182 1.379 . S
C176 N184 1.356 . S
C177 C176 1.363 . S
C177 C183 1.363 . S
C178 C179 1.363 . S
C178 C183 1.379 . S
C178 N185 1.356 . S
C179 C178 1.363 . S
C179 C182 1.363 . S
N180 C182 1.356 . S
N180 H192 0.984 . S
N180 H193 0.985 . S
N181 C183 1.356 . S
N181 H186 0.984 . S
N181 H187 0.985 . S
C182 C176 1.379 . S
C182 C179 1.363 . S
C182 N180 1.356 . S
C183 C177 1.363 . S
C183 C178 1.379 . S
C183 N181 1.356 . S
N184 C176 1.356 . S
N184 H190 0.984 . S
N184 H191 0.984 . S
N185 C178 1.356 . S
N185 H188 0.984 . S
N185 H189 0.985 . S
H186 N181 0.984 . S
H187 N181 0.985 . S
H188 N185 0.984 . S
H189 N185 0.985 . S
H190 N184 0.984 . S
H191 N184 0.984 . S
H192 N180 0.984 . S
H193 N180 0.985 . S
C194 C195 1.363 . S
C194 C200 1.379 . S
C194 N202 1.356 . S
C195 C194 1.363 . S
C195 C201 1.363 . S
C196 C197 1.363 . S
C196 C201 1.379 . S
C196 N203 1.356 . S
C197 C196 1.363 . S
C197 C200 1.363 . S
N198 C200 1.356 . S
N198 H210 0.984 1_655 S
N198 H211 0.987 . S
N199 C201 1.356 . S
N199 H204 0.984 . S
N199 H205 0.985 . S
C200 C194 1.379 . S
C200 C197 1.363 . S
C200 N198 1.356 . S
C201 C195 1.363 . S
C201 C196 1.379 . S
C201 N199 1.356 . S
N202 C194 1.356 . S
N202 H208 0.984 . S
N202 H209 0.984 . S
N203 C196 1.356 . S
N203 H206 0.984 . S
N203 H207 0.991 . S
H204 N199 0.984 . S
H205 N199 0.985 . S
H206 N203 0.984 . S
H207 N203 0.991 . S
H208 N202 0.984 . S
H209 N202 0.984 . S
H210 N198 0.984 1_455 S
H211 N198 0.987 . S
C212 C213 1.363 . S
C212 C218 1.379 . S
C212 N220 1.356 . S
C213 C212 1.363 . S
C213 C219 1.363 . S
C214 C215 1.363 . S
C214 C219 1.379 . S
C214 N221 1.356 . S
C215 C214 1.363 . S
C215 C218 1.363 . S
N216 C218 1.356 . S
N216 H228 0.984 . S
N216 H229 0.985 . S
N217 C219 1.356 . S
N217 H222 0.984 . S
N217 H223 0.985 . S
C218 C212 1.379 . S
C218 C215 1.363 . S
C218 N216 1.356 . S
C219 C213 1.363 . S
C219 C214 1.379 . S
C219 N217 1.356 . S
N220 C212 1.356 . S
N220 H226 0.984 . S
N220 H227 0.984 . S
N221 C214 1.356 . S
N221 H224 0.984 . S
N221 H225 0.985 . S
H222 N217 0.984 . S
H223 N217 0.985 . S
H224 N221 0.984 . S
H225 N221 0.985 . S
H226 N220 0.984 . S
H227 N220 0.984 . S
H228 N216 0.984 . S
H229 N216 0.985 . S
C230 C231 1.363 . S
C230 C236 1.379 . S
C230 N238 1.356 . S
C231 C230 1.363 . S
C231 C237 1.363 . S
C232 C233 1.363 . S
C232 C237 1.379 . S
C232 N239 1.356 . S
C233 C232 1.363 . S
C233 C236 1.363 . S
N234 C236 1.356 . S
N234 H246 0.984 . S
N234 H247 0.985 . S
N235 C237 1.356 . S
N235 H240 0.984 . S
N235 H241 0.985 . S
C236 C230 1.379 . S
C236 C233 1.363 . S
C236 N234 1.356 . S
C237 C231 1.363 . S
C237 C232 1.379 . S
C237 N235 1.356 . S
N238 C230 1.356 . S
N238 H244 0.984 . S
N238 H245 0.984 . S
N239 C232 1.356 . S
N239 H242 0.984 . S
N239 H243 0.985 . S
H240 N235 0.984 . S
H241 N235 0.985 . S
H242 N239 0.984 . S
H243 N239 0.985 . S
H244 N238 0.984 . S
H245 N238 0.984 . S
H246 N234 0.984 . S
H247 N234 0.985 . S
C248 C249 1.363 . S
C248 C254 1.379 . S
C248 N256 1.356 . S
C249 C248 1.363 . S
C249 C255 1.363 . S
C250 C251 1.363 . S
C250 C255 1.379 . S
C250 N257 1.356 . S
C251 C250 1.363 . S
C251 C254 1.363 . S
N252 C254 1.356 . S
N252 H264 0.984 . S
N252 H265 0.985 . S
N253 C255 1.356 . S
N253 H258 0.984 . S
N253 H259 0.985 . S
C254 C248 1.379 . S
C254 C251 1.363 . S
C254 N252 1.356 . S
C255 C249 1.363 . S
C255 C250 1.379 . S
C255 N253 1.356 . S
N256 C248 1.356 . S
N256 H262 0.984 . S
N256 H263 0.984 . S
N257 C250 1.356 . S
N257 H260 0.984 . S
N257 H261 0.985 1_545 S
H258 N253 0.984 . S
H259 N253 0.985 . S
H260 N257 0.984 . S
H261 N257 0.985 1_565 S
H262 N256 0.984 . S
H263 N256 0.984 . S
H264 N252 0.984 . S
H265 N252 0.985 . S
C266 C267 1.363 . S
C266 C272 1.379 . S
C266 N274 1.356 . S
C267 C266 1.363 . S
C267 C273 1.363 . S
C268 C269 1.363 . S
C268 C273 1.379 . S
C268 N275 1.356 . S
C269 C268 1.363 . S
C269 C272 1.363 . S
N270 C272 1.356 . S
N270 H282 0.984 . S
N270 H283 0.985 . S
N271 C273 1.356 . S
N271 H276 0.984 . S
N271 H277 0.985 . S
C272 C266 1.379 . S
C272 C269 1.363 . S
C272 N270 1.356 . S
C273 C267 1.363 . S
C273 C268 1.379 . S
C273 N271 1.356 . S
N274 C266 1.356 . S
N274 H280 0.984 . S
N274 H281 0.984 . S
N275 C268 1.356 . S
N275 H278 0.984 . S
N275 H279 0.985 . S
H276 N271 0.984 . S
H277 N271 0.985 . S
H278 N275 0.984 . S
H279 N275 0.985 . S
H280 N274 0.984 . S
H281 N274 0.984 . S
H282 N270 0.984 . S
H283 N270 0.985 . S
C284 C285 1.363 . S
C284 C290 1.379 . S
C284 N292 1.356 . S
C285 C284 1.363 . S
C285 C291 1.363 . S
C286 C287 1.363 . S
C286 C291 1.379 . S
C286 N293 1.356 . S
C287 C286 1.363 . S
C287 C290 1.363 . S
N288 C290 1.356 1_545 S
N288 H300 0.984 . S
N288 H301 0.985 . S
N289 C291 1.356 . S
N289 H294 0.984 . S
N289 H295 0.985 . S
C290 C284 1.379 . S
C290 C287 1.363 . S
C290 N288 1.356 1_565 S
C291 C285 1.363 . S
C291 C286 1.379 . S
C291 N289 1.356 . S
N292 C284 1.356 . S
N292 H298 0.971 1_566 S
N292 H299 0.984 1_556 S
N293 C286 1.356 . S
N293 H296 0.984 . S
N293 H297 0.985 . S
H294 N289 0.984 . S
H295 N289 0.985 . S
H296 N293 0.984 . S
H297 N293 0.985 . S
H298 N292 0.971 1_544 S
H299 N292 0.984 1_554 S
H300 N288 0.984 . S
H301 N288 0.985 . S
C89 C59 1.269 . S
C87 C43 1.461 . S
C105 C10 1.495 . S
C107 C83 1.315 . S
C123 C21 1.568 . S
C125 C62 1.389 . S
C141 C32 1.568 . S
C143 C80 1.362 . S
C161 C60 1.497 . S
C159 C5 1.495 . S
C179 C82 1.522 . S
C177 C15 1.594 . S
C195 C27 1.583 . S
C197 C61 1.542 . S
C213 C38 1.503 . S
C215 C81 1.449 . S
C233 C79 1.475 . S
C231 C16 1.520 . S
C251 C58 1.461 . S
C249 C26 1.528 . S
C269 C78 1.422 . S
C267 C37 1.451 . S
C285 C4 1.456 . S
C287 C57 1.395 . S
