# Generated by pormake.
# Topology zzz, (3,6)-cn, num edge types: 1
# Building blocks:
#     Node 0, Type 0, BuildingBlock: BETDAH_clean_linker_0, # of connection points: 3
#     Node 1, Type 0, BuildingBlock: BETDAH_clean_linker_0, # of connection points: 3
#     Node 2, Type 0, BuildingBlock: BETDAH_clean_linker_0, # of connection points: 3
#     Node 3, Type 0, BuildingBlock: BETDAH_clean_linker_0, # of connection points: 3
#     Node 4, Type 0, BuildingBlock: BETDAH_clean_linker_0, # of connection points: 3
#     Node 5, Type 0, BuildingBlock: BETDAH_clean_linker_0, # of connection points: 3
#     Node 6, Type 0, BuildingBlock: BETDAH_clean_linker_0, # of connection points: 3
#     Node 7, Type 0, BuildingBlock: BETDAH_clean_linker_0, # of connection points: 3
#     Node 8, Type 1, BuildingBlock: BETDEL_clean_sbu_0, # of connection points: 6
#     Node 9, Type 1, BuildingBlock: BETDEL_clean_sbu_0, # of connection points: 6
#     Node 10, Type 1, BuildingBlock: BETDEL_clean_sbu_0, # of connection points: 6
#     Node 11, Type 1, BuildingBlock: BETDEL_clean_sbu_0, # of connection points: 6
#     Edge 12, Type (0, 1), BuildingBlock: ZUJKAS_clean_linker_0, # of connection points: 2
#     Edge 13, Type (0, 1), BuildingBlock: ZUJKAS_clean_linker_0, # of connection points: 2
#     Edge 14, Type (0, 1), BuildingBlock: ZUJKAS_clean_linker_0, # of connection points: 2
#     Edge 15, Type (0, 1), BuildingBlock: ZUJKAS_clean_linker_0, # of connection points: 2
#     Edge 16, Type (0, 1), BuildingBlock: ZUJKAS_clean_linker_0, # of connection points: 2
#     Edge 17, Type (0, 1), BuildingBlock: ZUJKAS_clean_linker_0, # of connection points: 2
#     Edge 18, Type (0, 1), BuildingBlock: ZUJKAS_clean_linker_0, # of connection points: 2
#     Edge 19, Type (0, 1), BuildingBlock: ZUJKAS_clean_linker_0, # of connection points: 2
#     Edge 20, Type (0, 1), BuildingBlock: ZUJKAS_clean_linker_0, # of connection points: 2
#     Edge 21, Type (0, 1), BuildingBlock: ZUJKAS_clean_linker_0, # of connection points: 2
#     Edge 22, Type (0, 1), BuildingBlock: ZUJKAS_clean_linker_0, # of connection points: 2
#     Edge 23, Type (0, 1), BuildingBlock: ZUJKAS_clean_linker_0, # of connection points: 2
#     Edge 24, Type (0, 1), BuildingBlock: ZUJKAS_clean_linker_0, # of connection points: 2
#     Edge 25, Type (0, 1), BuildingBlock: ZUJKAS_clean_linker_0, # of connection points: 2
#     Edge 26, Type (0, 1), BuildingBlock: ZUJKAS_clean_linker_0, # of connection points: 2
#     Edge 27, Type (0, 1), BuildingBlock: ZUJKAS_clean_linker_0, # of connection points: 2
#     Edge 28, Type (0, 1), BuildingBlock: ZUJKAS_clean_linker_0, # of connection points: 2
#     Edge 29, Type (0, 1), BuildingBlock: ZUJKAS_clean_linker_0, # of connection points: 2
#     Edge 30, Type (0, 1), BuildingBlock: ZUJKAS_clean_linker_0, # of connection points: 2
#     Edge 31, Type (0, 1), BuildingBlock: ZUJKAS_clean_linker_0, # of connection points: 2
#     Edge 32, Type (0, 1), BuildingBlock: ZUJKAS_clean_linker_0, # of connection points: 2
#     Edge 33, Type (0, 1), BuildingBlock: ZUJKAS_clean_linker_0, # of connection points: 2
#     Edge 34, Type (0, 1), BuildingBlock: ZUJKAS_clean_linker_0, # of connection points: 2
#     Edge 35, Type (0, 1), BuildingBlock: ZUJKAS_clean_linker_0, # of connection points: 2
# Relax obj value: 0.151
# Max RMSD: 0.173
# Mean RMSD: 0.113
data_MOF--net-zzz--node1-BETDEL_clean_sbu_0--node2-BETDAH_clean_linker_0--edge1-ZUJKAS_clean_linker_0
_symmetry_space_group_name_H-M    P1
_symmetry_Int_Tables_number       1
_symmetry_cell_setting            triclinic
loop_
_symmetry_equiv_pos_as_xyz
'x, y, z'
_cell_length_a     64.999768
_cell_length_b     66.320498
_cell_length_c     19.421289
_cell_angle_alpha  91.525494
_cell_angle_beta   88.343282
_cell_angle_gamma 95.248414
loop_
_atom_site_label
_atom_site_type_symbol
_atom_site_fract_x
_atom_site_fract_y
_atom_site_fract_z
_atom_type_partial_charge
H0 H 0.80104 0.51999 0.09491 0.0
H1 H 0.74064 0.5106 0.01061 0.0
H2 H 0.74787 0.51263 0.2315 0.0
C3 C 0.78438 0.51804 0.10296 0.0
C4 C 0.77607 0.51692 0.16997 0.0
C5 C 0.77174 0.51566 0.04584 0.0
C6 C 0.75026 0.51259 0.05527 0.0
C7 C 0.74146 0.51185 0.12263 0.0
C8 C 0.75452 0.5136 0.17975 0.0
N9 N 0.7197 0.50921 0.13476 0.0
C10 C 0.7051 0.50935 0.0836 0.0
H11 H 0.97964 0.80069 0.06403 0.0
H12 H 0.99669 0.74408 0.97869 0.0
H13 H 0.98326 0.75052 0.19687 0.0
C14 C 0.98181 0.78483 0.07068 0.0
C15 C 0.98025 0.77694 0.13679 0.0
C16 C 0.98783 0.77317 0.01379 0.0
C17 C 0.9917 0.75295 0.02264 0.0
C18 C 0.98951 0.74453 0.08881 0.0
C19 C 0.98426 0.75676 0.14574 0.0
N20 N 0.99294 0.72407 0.1004 0.0
C21 C 0.99484 0.70951 0.04836 0.0
H22 H 0.69977 1.00145 0.09078 0.0
H23 H 0.75932 0.99084 0.00314 0.0
H24 H 0.74132 0.9696 0.20627 0.0
C25 C 0.7148 0.99582 0.09578 0.0
C26 C 0.7189 0.98571 0.1555 0.0
C27 C 0.72919 0.99762 0.04062 0.0
C28 C 0.74828 0.98954 0.046 0.0
C29 C 0.7529 0.97967 0.10639 0.0
C30 C 0.73797 0.9775 0.16035 0.0
N31 N 0.77221 0.97157 0.1142 0.0
C32 C 0.78885 0.97425 0.06748 0.0
H33 H 0.50614 0.70373 0.10109 0.0
H34 H 0.51604 0.76226 0.01105 0.0
H35 H 0.52512 0.75559 0.22877 0.0
C36 C 0.50986 0.71997 0.10729 0.0
C37 C 0.51523 0.72814 0.17198 0.0
C38 C 0.51025 0.73211 0.04951 0.0
C39 C 0.51563 0.753 0.05626 0.0
C40 C 0.52069 0.76167 0.12151 0.0
C41 C 0.52086 0.74906 0.17888 0.0
N42 N 0.52586 0.78286 0.13114 0.0
C43 C 0.52419 0.79716 0.08077 0.0
H44 H 0.21043 0.50901 0.04919 0.0
H45 H 0.26728 0.49674 0.1392 0.0
H46 H 0.25993 0.48997 0.91892 0.0
C47 C 0.22624 0.50506 0.04269 0.0
C48 C 0.23377 0.50002 0.97701 0.0
C49 C 0.23814 0.50375 0.10091 0.0
C50 C 0.25828 0.49793 0.09365 0.0
C51 C 0.26646 0.49336 0.02749 0.0
C52 C 0.25393 0.494 0.96956 0.0
N53 N 0.28698 0.48777 0.01761 0.0
C54 C 0.30149 0.48855 0.06933 0.0
H55 H 0.02811 0.2032 0.08746 0.0
H56 H 0.0111 0.25985 0.17243 0.0
H57 H 0.02501 0.25343 0.95453 0.0
C58 C 0.02606 0.21909 0.08079 0.0
C59 C 0.02777 0.22699 0.01472 0.0
C60 C 0.01993 0.23074 0.13752 0.0
C61 C 0.01617 0.25099 0.12859 0.0
C62 C 0.01858 0.25943 0.06249 0.0
C63 C 0.0239 0.2472 0.00566 0.0
N64 N 0.01527 0.27993 0.05089 0.0
C65 C 0.01278 0.29435 0.10302 0.0
H66 H 0.30995 0.02585 0.0715 0.0
H67 H 0.24692 0.01554 0.14395 0.0
H68 H 0.26082 0.02788 0.92944 0.0
C69 C 0.29354 0.02516 0.06168 0.0
C70 C 0.28713 0.02761 0.99459 0.0
C71 C 0.27916 0.02063 0.11538 0.0
C72 C 0.25796 0.01914 0.10224 0.0
C73 C 0.2512 0.02221 0.03522 0.0
C74 C 0.26591 0.02602 0.98134 0.0
N75 N 0.22984 0.02136 0.02016 0.0
C76 C 0.21389 0.01974 0.0698 0.0
H77 H 0.47999 0.30218 0.05872 0.0
H78 H 0.49233 0.24503 0.13925 0.0
H79 H 0.48339 0.25077 0.9212 0.0
C80 C 0.48152 0.28612 0.05059 0.0
C81 C 0.48074 0.27788 0.98369 0.0
C82 C 0.48583 0.27446 0.10649 0.0
C83 C 0.48875 0.25391 0.0959 0.0
C84 C 0.48736 0.24511 0.02899 0.0
C85 C 0.48384 0.25732 0.97292 0.0
N86 N 0.48979 0.22423 0.01612 0.0
C87 C 0.49067 0.21003 0.06735 0.0
Dy88 Dy 0.0098 0.99135 0.63604 0.0
C89 C 0.99349 0.04099 0.41597 0.0
C90 C 0.01186 0.96283 0.7339 0.0
Dy91 Dy 0.9954 0.01252 0.51405 0.0
O92 O 0.02767 0.97221 0.7024 0.0
O93 O 0.99504 0.96991 0.71457 0.0
O94 O 0.04249 0.00335 0.61221 0.0
O95 O 0.02218 0.99609 0.53107 0.0
C96 C 0.04009 0.00363 0.54606 0.0
C97 C 0.96509 0.99995 0.60349 0.0
O98 O 0.99448 0.98182 0.4636 0.0
O99 O 0.99607 0.96596 0.56783 0.0
O100 O 0.97763 0.03175 0.44768 0.0
O101 O 0.01025 0.03379 0.43524 0.0
O102 O 0.96277 1.00029 0.53729 0.0
O103 O 0.98292 0.00767 0.61882 0.0
O104 O 0.01083 0.022 0.68661 0.0
O105 O 0.00901 0.03792 0.58258 0.0
C106 C 0.99297 0.96522 0.50064 0.0
C107 C 0.01222 0.03862 0.64972 0.0
Dy108 Dy 0.48462 0.9931 0.54293 0.0
C109 C 0.56191 0.02447 0.66049 0.0
C110 C 0.44436 0.98658 0.50669 0.0
Dy111 Dy 0.52263 0.0147 0.61738 0.0
O112 O 0.45882 0.97529 0.48585 0.0
O113 O 0.45201 1.00125 0.54623 0.0
O114 O 0.50532 0.97381 0.47937 0.0
O115 O 0.51624 0.00301 0.51413 0.0
C116 C 0.52141 0.98694 0.48526 0.0
C117 C 0.48549 0.02067 0.67319 0.0
O118 O 0.51768 0.03933 0.54492 0.0
O119 O 0.48684 0.02463 0.49957 0.0
O120 O 0.54542 0.0241 0.70017 0.0
O121 O 0.55685 0.01975 0.59765 0.0
O122 O 0.50123 0.0343 0.67657 0.0
O123 O 0.49103 0.00452 0.64612 0.0
O124 O 0.48884 0.97007 0.62208 0.0
O125 O 0.52254 0.982 0.64835 0.0
C126 C 0.50138 0.04004 0.50565 0.0
C127 C 0.50669 0.96781 0.65124 0.0
Dy128 Dy 0.49645 0.5133 0.63809 0.0
C129 C 0.51412 0.46483 0.40447 0.0
C130 C 0.49408 0.54106 0.74365 0.0
Dy131 Dy 0.512 0.49278 0.50948 0.0
O132 O 0.47844 0.53268 0.70998 0.0
O133 O 0.51082 0.53338 0.72197 0.0
O134 O 0.46394 0.50143 0.61469 0.0
O135 O 0.48507 0.50907 0.53341 0.0
C136 C 0.46701 0.50146 0.54822 0.0
C137 C 0.54137 0.50449 0.6 0.0
O138 O 0.51316 0.52378 0.46618 0.0
O139 O 0.51073 0.53917 0.57421 0.0
O140 O 0.52994 0.47392 0.43551 0.0
O141 O 0.49733 0.47197 0.42831 0.0
O142 O 0.54456 0.50456 0.53357 0.0
O143 O 0.52328 0.4969 0.61411 0.0
O144 O 0.49501 0.48229 0.68143 0.0
O145 O 0.4982 0.46681 0.57381 0.0
C146 C 0.51425 0.54024 0.50671 0.0
C147 C 0.49435 0.46578 0.64116 0.0
Dy148 Dy 0.9928 0.49687 0.64492 0.0
C149 C 0.04305 0.50492 0.40066 0.0
C150 C 0.96523 0.50039 0.75204 0.0
Dy151 Dy 0.01511 0.50669 0.50751 0.0
O152 O 0.97069 0.48335 0.72604 0.0
O153 O 0.97574 0.51537 0.72183 0.0
O154 O 0.99988 0.46445 0.63321 0.0
O155 O 0.99503 0.48126 0.54547 0.0
C156 C 1.00034 0.46468 0.56615 0.0
C157 C 0.00757 0.53879 0.58708 0.0
O158 O 0.98305 0.50416 0.46736 0.0
O159 O 0.96763 0.50556 0.57653 0.0
O160 O 0.03536 0.52129 0.42368 0.0
O161 O 0.03451 0.48943 0.43366 0.0
O162 O 0.00787 0.53911 0.52014 0.0
O163 O 0.01297 0.52219 0.60695 0.0
O164 O 0.0249 0.49859 0.68469 0.0
O165 O 0.04031 0.49783 0.57533 0.0
C166 C 0.96658 0.50597 0.50836 0.0
C167 C 0.04133 0.49694 0.6434 0.0
H168 H 0.18734 0.98692 0.09449 0.0
H169 H 0.1572 0.98494 0.17428 0.0
H170 H 0.1718 0.04754 0.23517 0.0
H171 H 0.20179 0.04953 0.15473 0.0
H172 H 0.15512 0.99132 0.31574 0.0
H173 H 0.11105 0.04613 0.18396 0.0
H174 H 0.13307 0.03532 0.14392 0.0
H175 H 0.13679 0.05587 0.20584 0.0
C176 C 0.18404 1.0002 0.12509 0.0
C177 C 0.19668 0.01837 0.1188 0.0
C178 C 0.16687 0.99908 0.17052 0.0
C179 C 0.16202 0.01618 0.20993 0.0
C180 C 0.17496 0.03428 0.20429 0.0
H181 H 0.08023 0.01606 0.57256 0.0
H182 H 0.10955 0.01952 0.49047 0.0
C183 C 0.19214 0.03538 0.15884 0.0
C184 C 0.14365 0.01493 0.2577 0.0
H185 H 0.09782 0.03508 0.29332 0.0
C186 C 0.14258 1.00087 0.31075 0.0
C187 C 0.12714 0.02719 0.25064 0.0
C188 C 0.12689 0.04185 0.19266 0.0
C189 C 0.12565 0.99896 0.35755 0.0
C190 C 0.10945 0.01168 0.35186 0.0
C191 C 0.11033 0.02549 0.29808 0.0
C192 C 0.09144 0.01071 0.40106 0.0
C193 C 0.1251 0.9831 0.41205 0.0
C194 C 0.07135 0.00536 0.37783 0.0
C195 C 0.05451 0.00348 0.42468 0.0
C196 C 0.05748 0.00702 0.49555 0.0
C197 C 0.07749 0.01306 0.51834 0.0
C198 C 0.09428 0.01493 0.47154 0.0
H199 H 0.1357 0.97129 0.39854 0.0
H200 H 0.13004 0.99044 0.46162 0.0
H201 H 0.10922 0.97565 0.41977 0.0
H202 H 0.06877 0.00218 0.3236 0.0
H203 H 0.03926 0.9989 0.40562 0.0
H204 H 0.46333 0.17732 0.0805 0.0
H205 H 0.46482 0.14935 0.1601 0.0
H206 H 0.52104 0.17878 0.24299 0.0
H207 H 0.51934 0.2069 0.16384 0.0
H208 H 0.49573 0.12364 0.16751 0.0
H209 H 0.48654 0.16498 0.41716 0.0
H210 H 0.48072 0.17548 0.33591 0.0
H211 H 0.50705 0.17586 0.3621 0.0
C212 C 0.47584 0.17785 0.11638 0.0
C213 C 0.49116 0.19417 0.11676 0.0
C214 C 0.47672 0.1619 0.16165 0.0
C215 C 0.49289 0.16206 0.20824 0.0
C216 C 0.50818 0.1785 0.20863 0.0
H217 H 0.52823 0.07448 0.49991 0.0
H218 H 0.52615 0.10395 0.42811 0.0
C219 C 0.50728 0.19448 0.16328 0.0
C220 C 0.4942 0.14455 0.25384 0.0
H221 H 0.49525 0.13107 0.42237 0.0
C222 C 0.49553 0.12526 0.22324 0.0
C223 C 0.49403 0.14666 0.32659 0.0
C224 C 0.49182 0.16682 0.36258 0.0
C225 C 0.49695 0.10811 0.26322 0.0
C226 C 0.49666 0.11019 0.33596 0.0
C227 C 0.49545 0.12948 0.36663 0.0
C228 C 0.49754 0.09249 0.38094 0.0
C229 C 0.49917 0.08796 0.22712 0.0
C230 C 0.48195 0.07638 0.37933 0.0
C231 C 0.48308 0.05948 0.42028 0.0
C232 C 0.49981 0.05834 0.46408 0.0
C233 C 0.51517 0.07474 0.46668 0.0
C234 C 0.514 0.09165 0.4257 0.0
H235 H 0.50452 0.08982 0.17261 0.0
H236 H 0.51024 0.07927 0.25386 0.0
H237 H 0.48393 0.07892 0.22737 0.0
H238 H 0.46888 0.07686 0.34626 0.0
H239 H 0.47087 0.04726 0.41717 0.0
H240 H 0.31248 0.45758 0.14345 0.0
H241 H 0.34027 0.45882 0.22723 0.0
H242 H 0.35429 0.5226 0.19157 0.0
H243 H 0.32634 0.52136 0.10861 0.0
H244 H 0.38216 0.46942 0.20694 0.0
H245 H 0.34915 0.52105 0.40117 0.0
H246 H 0.33408 0.50869 0.33293 0.0
H247 H 0.35121 0.53096 0.31587 0.0
C248 C 0.32143 0.47186 0.15421 0.0
C249 C 0.31732 0.48941 0.12043 0.0
C250 C 0.3373 0.47256 0.20177 0.0
C251 C 0.34922 0.49086 0.21646 0.0
C252 C 0.34506 0.5084 0.18225 0.0
H253 H 0.4694 0.50698 0.40899 0.0
H254 H 0.44099 0.50351 0.32796 0.0
C255 C 0.32919 0.50769 0.13473 0.0
C256 C 0.36633 0.49148 0.26607 0.0
H257 H 0.38405 0.5143 0.41549 0.0
C258 C 0.38254 0.47917 0.25269 0.0
C259 C 0.36672 0.50402 0.32623 0.0
C260 C 0.34927 0.51679 0.34545 0.0
C261 C 0.39929 0.47934 0.2971 0.0
C262 C 0.40002 0.4924 0.35602 0.0
C263 C 0.38361 0.50443 0.37002 0.0
C264 C 0.41751 0.49372 0.40431 0.0
C265 C 0.41588 0.4653 0.28109 0.0
C266 C 0.41379 0.48963 0.47439 0.0
C267 C 0.42998 0.49173 0.52078 0.0
C268 C 0.45021 0.49808 0.49813 0.0
C269 C 0.45399 0.50196 0.42787 0.0
C270 C 0.43777 0.49988 0.38146 0.0
H271 H 0.41034 0.4526 0.24586 0.0
H272 H 0.42927 0.47389 0.25538 0.0
H273 H 0.4213 0.4589 0.3289 0.0
H274 H 0.3983 0.48491 0.4933 0.0
H275 H 0.42658 0.48863 0.57461 0.0
H276 H 0.02064 0.29387 0.23891 0.0
H277 H 0.01795 0.32194 0.32326 0.0
H278 H 0.99823 0.35915 0.16309 0.0
H279 H 1.00061 0.33104 0.0794 0.0
H280 H 0.03887 0.36029 0.32193 0.0
H281 H 0.95437 0.36554 0.31388 0.0
H282 H 0.96653 0.34394 0.27907 0.0
H283 H 0.96687 0.36666 0.2303 0.0
C284 C 0.01553 0.30801 0.22228 0.0
C285 C 0.01063 0.31043 0.15336 0.0
C286 C 0.01404 0.324 0.27021 0.0
C287 C 0.00756 0.34252 0.2497 0.0
C288 C 1.00279 0.34486 0.18044 0.0
H289 H 0.99585 0.4616 0.42714 0.0
H290 H 0.99844 0.43153 0.35254 0.0
C291 C 0.00424 0.32889 0.13267 0.0
C292 C 0.00654 0.35971 0.29983 0.0
H293 H 0.97421 0.39332 0.36779 0.0
C294 C 0.02469 0.3674 0.33255 0.0
C295 C 0.98802 0.36894 0.31361 0.0
C296 C 0.96779 0.36074 0.28291 0.0
C297 C 0.02497 0.38449 0.37698 0.0
C298 C 0.00655 0.39396 0.38951 0.0
C299 C 0.98834 0.38608 0.35769 0.0
C300 C 0.00587 0.41225 0.43471 0.0
C301 C 0.04507 0.39267 0.40857 0.0
C302 C 0.00919 0.41135 0.50562 0.0
C303 C 0.0077 0.4285 0.54835 0.0
C304 C 1.00281 0.4468 0.52082 0.0
C305 C 0.99969 0.44771 0.44972 0.0
C306 C 1.00111 0.43055 0.40711 0.0
H307 H 0.05858 0.38629 0.38268 0.0
H308 H 0.04717 0.40944 0.40585 0.0
H309 H 0.0448 0.38864 0.4637 0.0
H310 H 0.01258 0.39729 0.52806 0.0
H311 H 0.01014 0.42739 0.60301 0.0
H312 H 0.78976 0.96964 0.92879 0.0
H313 H 0.8205 0.97328 0.85154 0.0
H314 H 0.85883 0.98849 0.02652 0.0
H315 H 0.82816 0.98456 0.10356 0.0
H316 H 0.84852 0.00689 0.83083 0.0
H317 H 0.88836 0.94352 0.93016 0.0
H318 H 0.8615 0.94658 0.95003 0.0
H319 H 0.88147 0.96163 0.99523 0.0
C320 C 0.8048 0.9737 0.95042 0.0
C321 C 0.80678 0.97676 0.02169 0.0
C322 C 0.82231 0.97578 0.90647 0.0
C323 C 0.84204 0.98082 0.93331 0.0
C324 C 0.84387 0.98414 0.00473 0.0
H325 H 0.96545 0.00413 0.74436 0.0
H326 H 0.93574 0.9995 0.8254 0.0
C327 C 0.82637 0.98205 0.0486 0.0
C328 C 0.86059 0.98312 0.88643 0.0
H329 H 0.90748 0.96507 0.85091 0.0
C330 C 0.86136 0.99768 0.83504 0.0
C331 C 0.87741 0.97116 0.89213 0.0
C332 C 0.87715 0.95471 0.94442 0.0
C333 C 0.87857 1.00079 0.7898 0.0
C334 C 0.89534 0.98877 0.79523 0.0
C335 C 0.89464 0.97429 0.84687 0.0
C336 C 0.91351 0.99076 0.74676 0.0
C337 C 0.8788 0.01719 0.73732 0.0
C338 C 0.91097 0.98688 0.67597 0.0
C339 C 0.92786 0.9895 0.62982 0.0
C340 C 0.94766 0.99597 0.6535 0.0
C341 C 0.95035 0.99923 0.72463 0.0
C342 C 0.9334 0.99659 0.77091 0.0
H343 H 0.86765 0.02844 0.75168 0.0
H344 H 0.89446 0.02527 0.73135 0.0
H345 H 0.87437 0.01024 0.68667 0.0
H346 H 0.89587 0.98192 0.65632 0.0
H347 H 0.92534 0.98668 0.57537 0.0
H348 H 0.55275 0.82809 0.05288 0.0
H349 H 0.54937 0.8562 0.9752 0.0
H350 H 0.48856 0.82994 0.92164 0.0
H351 H 0.49192 0.80194 -2e-05 0.0
H352 H 0.54235 0.85596 0.83308 0.0
H353 H 0.47834 0.88789 0.98303 0.0
H354 H 0.4937 0.86942 0.01773 0.0
H355 H 0.47355 0.8616 0.95871 0.0
C356 C 0.53873 0.82836 0.02419 0.0
C357 C 0.52256 0.81303 0.0321 0.0
C358 C 0.5368 0.84437 0.97993 0.0
C359 C 0.51859 0.84536 0.94334 0.0
C360 C 0.50259 0.82972 0.9503 0.0
H361 H 0.47786 0.93541 0.67046 0.0
H362 H 0.48103 0.90527 0.73784 0.0
C363 C 0.50454 0.81369 0.99457 0.0
C364 C 0.51641 0.86279 0.8982 0.0
H365 H 0.48797 0.90293 0.87647 0.0
C366 C 0.53048 0.86625 0.84258 0.0
C367 C 0.5009 0.8762 0.91056 0.0
C368 C 0.48585 0.87377 0.97105 0.0
C369 C 0.52931 0.8826 0.79858 0.0
C370 C 0.51391 0.89612 0.81131 0.0
C371 C 0.49975 0.89257 0.86664 0.0
C372 C 0.51235 0.91421 0.76854 0.0
C373 C 0.54435 0.88501 0.7381 0.0
C374 C 0.52884 0.92938 0.76365 0.0
C375 C 0.52711 0.94665 0.72498 0.0
C376 C 0.50876 0.94921 0.69075 0.0
C377 C 0.49224 0.93398 0.69591 0.0
C378 C 0.49401 0.91671 0.73453 0.0
H379 H 0.55106 0.87058 0.7242 0.0
H380 H 0.53679 0.89032 0.69223 0.0
H381 H 0.55725 0.89641 0.7518 0.0
H382 H 0.54297 0.92804 0.79065 0.0
H383 H 0.5401 0.95807 0.72262 0.0
H384 H 0.70926 0.51984 0.94968 0.0
H385 H 0.68139 0.52058 0.86696 0.0
H386 H 0.63669 0.49997 0.02415 0.0
H387 H 0.66451 0.49937 0.10677 0.0
H388 H 0.6529 0.48866 0.82274 0.0
H389 H 0.61258 0.5501 0.95182 0.0
H390 H 0.63856 0.5452 0.97228 0.0
H391 H 0.61681 0.52963 0.00686 0.0
C392 C 0.69346 0.5155 0.9663 0.0
C393 C 0.68889 0.50958 0.03422 0.0
C394 C 0.67758 0.51594 0.9192 0.0
C395 C 0.6569 0.51064 0.93962 0.0
C396 C 0.65244 0.50453 0.00757 0.0
H397 H 0.53856 0.49813 0.7386 0.0
H398 H 0.56686 0.50014 0.82005 0.0
C399 C 0.66832 0.50406 0.05454 0.0
C400 C 0.64005 0.51097 0.88951 0.0
H401 H 0.59511 0.53204 0.86017 0.0
C402 C 0.64034 0.49825 0.83063 0.0
C403 C 0.62362 0.52344 0.89999 0.0
C404 C 0.62289 0.53801 0.96081 0.0
C405 C 0.62442 0.49728 0.78282 0.0
C406 C 0.60795 0.50971 0.79337 0.0
C407 C 0.60772 0.52251 0.8521 0.0
C408 C 0.59071 0.50944 0.74441 0.0
C409 C 0.62508 0.48251 0.7225 0.0
C410 C 0.5946 0.51452 0.6752 0.0
C411 C 0.57848 0.51335 0.6286 0.0
C412 C 0.55812 0.50721 0.65042 0.0
C413 C 0.55411 0.50283 0.72023 0.0
C414 C 0.57026 0.50397 0.7668 0.0
H415 H 0.6355 0.47053 0.73157 0.0
H416 H 0.60942 0.47516 0.71177 0.0
H417 H 0.63097 0.49076 0.67596 0.0
H418 H 0.61016 0.51927 0.65706 0.0
H419 H 0.582 0.51698 0.57525 0.0
H420 H 0.006 0.67247 0.0726 0.0
H421 H 0.00731 0.64402 0.98951 0.0
H422 H 0.98764 0.68132 0.82958 0.0
H423 H 0.98648 0.70985 0.91282 0.0
H424 H 0.97424 0.62563 0.91136 0.0
H425 H 0.03929 0.65765 0.74366 0.0
H426 H 0.03408 0.6678 0.82894 0.0
H427 H 0.01852 0.6735 0.75832 0.0
C428 C 1.00214 0.67456 0.01949 0.0
C429 C 0.9963 0.6932 -0.00155 0.0
C430 C 1.00284 0.65835 0.97225 0.0
C431 C 0.99779 0.66063 0.90325 0.0
C432 C 0.99194 0.67935 0.88227 0.0
H433 H 0.99625 0.57563 0.55161 0.0
H434 H 0.99243 0.60526 0.62764 0.0
C435 C 0.99122 0.69558 0.92968 0.0
C436 C 0.99811 0.64316 0.85406 0.0
H437 H 0.02235 0.62621 0.70827 0.0
C438 C 0.98475 0.62574 0.86692 0.0
C439 C 0.01176 0.64341 0.79599 0.0
C440 C 0.02687 0.66151 0.7809 0.0
C441 C 0.98464 0.60854 0.82316 0.0
C442 C 0.99856 0.60864 0.76579 0.0
C443 C 0.0117 0.62618 0.75231 0.0
C444 C 1.00018 0.59051 0.72026 0.0
C445 C 0.96945 0.59049 0.83829 0.0
C446 C 0.00595 0.57246 0.74706 0.0
C447 C 0.00812 0.55556 0.70385 0.0
C448 C 0.00468 0.55646 0.63296 0.0
C449 C 0.99895 0.57453 0.60611 0.0
C450 C 0.99678 0.59144 0.6494 0.0
H451 H 0.95619 0.59483 0.87105 0.0
H452 H 0.96342 0.58313 0.79 0.0
H453 H 0.97734 0.5792 0.86646 0.0
H454 H 0.00911 0.57154 0.80129 0.0
H455 H 0.01278 0.5419 0.72578 0.0
H456 H 0.04649 0.21264 0.21529 0.0
H457 H 0.03666 0.18307 0.2852 0.0
H458 H 0.97248 0.19394 0.27235 0.0
H459 H 0.98234 0.22343 0.20105 0.0
H460 H 0.01237 0.16993 0.40176 0.0
H461 H 0.97796 0.14231 0.15311 0.0
H462 H 0.99411 0.1658 0.16058 0.0
H463 H 0.96782 0.16425 0.19255 0.0
C464 C 0.03039 0.20933 0.23054 0.0
C465 C 0.01514 0.22012 0.20257 0.0
C466 C 0.02475 0.19236 0.27005 0.0
C467 C 0.00381 0.186 0.28203 0.0
C468 C 0.98871 0.19842 0.26239 0.0
H469 H 0.95987 0.06109 0.38963 0.0
H470 H 0.96013 0.09678 0.35878 0.0
C471 C 0.99436 0.21542 0.22258 0.0
C472 C 0.99809 0.16491 0.3034 0.0
H473 H 0.97941 0.11852 0.23924 0.0
C474 C 0.00486 0.15874 0.36677 0.0
C475 C 0.9885 0.15029 0.25711 0.0
C476 C 0.98179 0.15586 0.18679 0.0
C477 C 1.00273 0.13825 0.38444 0.0
C478 C 0.99383 0.12363 0.33709 0.0
C479 C 0.98626 0.12985 0.27513 0.0
C480 C 0.99344 0.1017 0.34933 0.0
C481 C 0.01035 0.13231 0.45302 0.0
C482 C 0.01202 0.09252 0.35067 0.0
C483 C 0.01191 0.07216 0.36727 0.0
C484 C 0.99319 0.0607 0.38294 0.0
C485 C 0.97451 0.06959 0.37751 0.0
C486 C 0.97463 0.08996 0.36049 0.0
H487 H 0.01204 0.14542 0.48988 0.0
H488 H 0.99967 0.12016 0.47621 0.0
H489 H 0.02572 0.12642 0.44527 0.0
H490 H 0.02666 0.10128 0.34076 0.0
H491 H 0.02653 0.06571 0.37123 0.0
H492 H 0.30444 0.04502 0.19681 0.0
H493 H 0.32609 0.03386 0.2869 0.0
H494 H 0.29463 0.97385 0.27264 0.0
H495 H 0.27271 0.98505 0.18264 0.0
H496 H 0.31274 0.99581 0.42155 0.0
H497 H 0.36406 0.9869 0.19005 0.0
H498 H 0.3506 0.00945 0.19712 0.0
H499 H 0.33626 0.98527 0.18491 0.0
C500 C 0.30154 0.0297 0.21518 0.0
C501 C 0.28702 0.01585 0.18302 0.0
C502 C 0.31388 0.02335 0.2665 0.0
C503 C 0.31195 0.00305 0.2859 0.0
C504 C 0.29616 0.98962 0.25855 0.0
H505 H 0.42554 0.95761 0.42073 0.0
H506 H 0.39054 0.9568 0.37593 0.0
C507 C 0.28366 0.99603 0.20741 0.0
C508 C 0.32889 0.99531 0.32335 0.0
H509 H 0.37889 0.98473 0.29841 0.0
C510 C 0.32714 0.99306 0.39486 0.0
C511 C 0.34746 0.99145 0.28791 0.0
C512 C 0.34983 0.99324 0.21067 0.0
C513 C 0.34399 0.98788 0.43248 0.0
C514 C 0.36306 0.98535 0.39744 0.0
C515 C 0.36432 0.98663 0.3254 0.0
C516 C 0.38251 0.98345 0.43397 0.0
C517 C 0.34121 0.98539 0.50925 0.0
C518 C 0.38951 0.99845 0.48228 0.0
C519 C 0.40934 0.99882 0.50811 0.0
C520 C 0.42271 0.9844 0.48521 0.0
C521 C 0.41553 0.96892 0.43896 0.0
C522 C 0.39555 0.96844 0.41354 0.0
H523 H 0.32497 0.98002 0.52321 0.0
H524 H 0.35157 0.97453 0.52872 0.0
H525 H 0.34479 1.00028 0.53571 0.0
H526 H 0.38008 0.01054 0.49743 0.0
H527 H 0.4145 0.01092 0.5439 0.0
H528 H 0.45852 0.29439 0.18389 0.0
H529 H 0.46814 0.32385 0.25802 0.0
H530 H 0.53157 0.3095 0.24948 0.0
H531 H 0.52196 0.2801 0.17401 0.0
H532 H 0.49051 0.33651 0.37814 0.0
H533 H 0.5313 0.36073 0.13343 0.0
H534 H 0.51383 0.33805 0.138 0.0
H535 H 0.53931 0.33845 0.1717 0.0
C536 C 0.4743 0.29693 0.2009 0.0
C537 C 0.48956 0.2852 0.17298 0.0
C538 C 0.47982 0.31382 0.2429 0.0
C539 C 0.50065 0.31914 0.25738 0.0
C540 C 0.51546 0.30579 0.23768 0.0
H541 H 0.54742 0.44364 0.37397 0.0
H542 H 0.54642 0.40766 0.34002 0.0
C543 C 0.50993 0.28887 0.1954 0.0
C544 C 0.50694 0.34015 0.28082 0.0
H545 H 0.52881 0.38538 0.22079 0.0
C546 C 0.49919 0.34713 0.34434 0.0
C547 C 0.51809 0.35403 0.23608 0.0
C548 C 0.52602 0.34758 0.16576 0.0
C549 C 0.50183 0.36774 0.36358 0.0
C550 C 0.51222 0.38166 0.31757 0.0
C551 C 0.5208 0.37459 0.25559 0.0
C552 C 0.5132 0.40374 0.33114 0.0
C553 C 0.49315 0.37455 0.43236 0.0
C554 C 0.49497 0.41357 0.33349 0.0
C555 C 0.49552 0.43408 0.3519 0.0
C556 C 0.51432 0.44506 0.3683 0.0
C557 C 0.53274 0.43553 0.36134 0.0
C558 C 0.53218 0.41498 0.34261 0.0
H559 H 0.49049 0.36179 0.46845 0.0
H560 H 0.50369 0.38668 0.45646 0.0
H561 H 0.47811 0.38073 0.42465 0.0
H562 H 0.48023 0.40519 0.32318 0.0
H563 H 0.48109 0.44104 0.3569 0.0
H564 H 0.22273 0.4742 0.18562 0.0
H565 H 0.19144 0.47661 0.25731 0.0
H566 H 0.19707 0.54138 0.2344 0.0
H567 H 0.22814 0.53891 0.16156 0.0
H568 H 0.17393 0.50076 0.37302 0.0
H569 H 0.14815 0.51748 0.11126 0.0
H570 H 0.17275 0.50794 0.1255 0.0
H571 H 0.16924 0.53411 0.14372 0.0
C572 C 0.21801 0.48905 0.19961 0.0
C573 C 0.22769 0.50637 0.16827 0.0
C574 C 0.20003 0.49041 0.24002 0.0
C575 C 0.19175 0.50911 0.24948 0.0
C576 C 0.20317 0.5268 0.22688 0.0
H577 H 0.06604 0.53716 0.34505 0.0
H578 H 0.10243 0.53835 0.30733 0.0
C579 C 0.22103 0.52542 0.18604 0.0
C580 C 0.16964 0.5095 0.26891 0.0
H581 H 0.12296 0.51616 0.20065 0.0
C582 C 0.16277 0.50422 0.33564 0.0
C583 C 0.15514 0.51376 0.2194 0.0
C584 C 0.16157 0.51848 0.14576 0.0
C585 C 0.14168 0.50336 0.3545 0.0
C586 C 0.12722 0.50755 0.30483 0.0
C587 C 0.13414 0.51297 0.23838 0.0
C588 C 0.1048 0.50638 0.32088 0.0
C589 C 0.13502 0.49816 0.42746 0.0
C590 C 0.09392 0.48781 0.33729 0.0
C591 C 0.07312 0.48705 0.35799 0.0
C592 C 0.06295 0.50487 0.36261 0.0
C593 C 0.07351 0.52321 0.34173 0.0
C594 C 0.0943 0.52394 0.32076 0.0
H595 H 0.14822 0.49989 0.4629 0.0
H596 H 0.12299 0.50789 0.44696 0.0
H597 H 0.1283 0.48217 0.42855 0.0
H598 H 0.10168 0.47403 0.33607 0.0
H599 H 0.06534 0.47272 0.37391 0.0
H600 H 0.02517 0.78071 0.94876 0.0
H601 H 0.03454 0.81016 0.87679 0.0
H602 H 0.97017 0.82053 0.86646 0.0
H603 H 0.96082 0.79099 0.93697 0.0
H604 H 0.99383 0.83374 0.749 0.0
H605 H 0.02928 0.86184 0.9955 0.0
H606 H 0.03944 0.83997 0.95557 0.0
H607 H 0.0133 0.83822 0.98904 0.0
C608 C 0.01299 0.7886 0.92766 0.0
C609 C 0.99231 0.78377 0.94852 0.0
C610 C 0.01836 0.80558 0.88747 0.0
C611 C 1.00308 0.81786 0.86834 0.0
C612 C 0.98221 0.81136 0.88121 0.0
H613 H 0.97899 0.9378 0.77821 0.0
H614 H 0.97919 0.90225 0.80858 0.0
C615 C 0.97685 0.7944 0.92107 0.0
C616 C 0.00855 0.83895 0.84654 0.0
H617 H 0.02716 0.88551 0.90946 0.0
C618 C 1.00141 0.84501 0.78353 0.0
C619 C 0.01826 0.85368 0.8922 0.0
C620 C 0.0254 0.84824 0.96211 0.0
C621 C 0.00329 0.86549 0.76566 0.0
C622 C 0.01228 0.88021 0.81247 0.0
C623 C 0.02023 0.87411 0.874 0.0
C624 C 0.01245 0.90213 0.80014 0.0
C625 C 0.99532 0.87127 0.6974 0.0
C626 C 0.03116 0.91404 0.78916 0.0
C627 C 0.03109 0.9344 0.77225 0.0
C628 C 0.01231 0.94312 0.76675 0.0
C629 C 0.99369 0.93148 0.78221 0.0
C630 C 0.99376 0.91113 0.79873 0.0
H631 H 0.99374 0.85814 0.66059 0.0
H632 H 0.97984 0.87688 0.70572 0.0
H633 H 0.00572 0.88358 0.67384 0.0
H634 H 0.04573 0.90737 0.79094 0.0
H635 H 0.04566 0.94303 0.76031 0.0
H636 H 0.7304 0.98075 0.91111 0.0
H637 H 0.71009 0.98975 0.81399 0.0
H638 H 0.69196 0.04199 0.9297 0.0
H639 H 0.71261 0.03337 0.02548 0.0
H640 H 0.66959 0.98781 0.83563 0.0
H641 H 0.69436 0.06379 0.73879 0.0
H642 H 0.71115 0.04967 0.78772 0.0
H643 H 0.69263 0.06458 0.83105 0.0
C644 C 0.72291 0.9947 0.91427 0.0
C645 C 0.72285 0.00627 0.97588 0.0
C646 C 0.71123 0.99978 0.85894 0.0
C647 C 0.69949 0.01656 0.86441 0.0
C648 C 0.70115 0.02922 0.92344 0.0
H649 H 0.57483 0.02835 0.79271 0.0
H650 H 0.61025 0.02754 0.83189 0.0
C651 C 0.71282 0.02417 0.97853 0.0
C652 C 0.68233 0.01842 0.81692 0.0
H653 H 0.65723 0.05317 0.73283 0.0
C654 C 0.66721 0.00195 0.81155 0.0
C655 C 0.67913 0.03685 0.78539 0.0
C656 C 0.69533 0.05463 0.78546 0.0
C657 C 0.64844 0.00385 0.77986 0.0
C658 C 0.64459 0.02273 0.75353 0.0
C659 C 0.66016 0.03882 0.75437 0.0
C660 C 0.62392 0.02608 0.72918 0.0
C661 C 0.63243 0.98588 0.77723 0.0
C662 C 0.62012 0.02608 0.65856 0.0
C663 C 0.59991 0.02648 0.63614 0.0
C664 C 0.58333 0.02695 0.68411 0.0
C665 C 0.58734 0.028 0.75475 0.0
C666 C 0.60751 0.02752 0.77712 0.0
H667 H 0.63918 0.97149 0.78753 0.0
H668 H 0.62011 0.98805 0.81677 0.0
H669 H 0.62514 0.98452 0.72609 0.0
H670 H 0.63263 0.02495 0.62099 0.0
H671 H 0.59716 0.02576 0.58136 0.0
H672 H 0.47356 0.71657 -2e-05 0.0
H673 H 0.46964 0.68597 0.92656 0.0
H674 H 0.53523 0.6915 0.88204 0.0
H675 H 0.53914 0.72221 0.95516 0.0
H676 H 0.49223 0.66983 0.77616 0.0
H677 H 0.51268 0.64314 0.03355 0.0
H678 H 0.49943 0.66568 0.0255 0.0
H679 H 0.52613 0.66589 -0.00023 0.0
C680 C 0.48688 0.71202 0.97068 0.0
C681 C 0.50662 0.72168 0.98266 0.0
C682 C 0.48466 0.69447 0.92924 0.0
C683 C 0.50219 0.68647 0.89974 0.0
C684 C 0.52154 0.69759 0.90422 0.0
H685 H 0.52678 0.56291 0.80215 0.0
H686 H 0.52836 0.59842 0.84117 0.0
C687 C 0.52375 0.7152 0.94546 0.0
C688 C 0.50101 0.66481 0.87974 0.0
H689 H 0.5064 0.61849 0.9461 0.0
C690 C 0.49532 0.65856 0.81301 0.0
C691 C 0.5051 0.65028 0.92835 0.0
C692 C 0.51114 0.65642 0.00098 0.0
C693 C 0.49371 0.63793 0.79341 0.0
C694 C 0.49752 0.62336 0.84243 0.0
C695 C 0.50336 0.62971 0.90896 0.0
C696 C 0.49598 0.60143 0.82522 0.0
C697 C 0.48836 0.6319 0.72017 0.0
C698 C 0.47703 0.59116 0.80677 0.0
C699 C 0.47605 0.57084 0.78514 0.0
C700 C 0.49402 0.56054 0.78174 0.0
C701 C 0.51269 0.57049 0.80448 0.0
C702 C 0.51365 0.59078 0.82626 0.0
H703 H 0.49057 0.645 0.68535 0.0
H704 H 0.49795 0.6199 0.70015 0.0
H705 H 0.4719 0.62579 0.71872 0.0
H706 H 0.46314 0.59903 0.80724 0.0
H707 H 0.46147 0.56353 0.76777 0.0
H708 H 0.78855 0.54755 0.9733 0.0
H709 H 0.81957 0.54626 0.89959 0.0
H710 H 0.8117 0.48098 0.8998 0.0
H711 H 0.78052 0.48233 0.97234 0.0
H712 H 0.84975 0.52888 0.96776 0.0
H713 H 0.83908 0.49171 0.71063 0.0
H714 H 0.81847 0.50307 0.75749 0.0
H715 H 0.82508 0.4783 0.77893 0.0
C716 C 0.79267 0.53298 0.95345 0.0
C717 C 0.78219 0.51503 0.9778 0.0
C718 C 0.81051 0.53224 0.91204 0.0
C719 C 0.81803 0.51353 0.89466 0.0
C720 C 0.80604 0.49557 0.91164 0.0
H721 H 0.93691 0.47022 0.79536 0.0
H722 H 0.90124 0.47396 0.83435 0.0
C723 C 0.78813 0.49633 0.95281 0.0
C724 C 0.84009 0.51279 0.87455 0.0
H725 H 0.87297 0.49271 0.75697 0.0
C726 C 0.85485 0.52125 0.92107 0.0
C727 C 0.84665 0.50247 0.81448 0.0
C728 C 0.8315 0.49351 0.76217 0.0
C729 C 0.87597 0.5193 0.90994 0.0
C730 C 0.88255 0.5089 0.85006 0.0
C731 C 0.86784 0.50059 0.80309 0.0
C732 C 0.90467 0.50673 0.83457 0.0
C733 C 0.89097 0.52783 0.9635 0.0
C734 C 0.91853 0.52393 0.82397 0.0
C735 C 0.93892 0.52183 0.80255 0.0
C736 C 0.9457 0.50249 0.79069 0.0
C737 C 0.93212 0.4853 0.80467 0.0
C738 C 0.91171 0.48741 0.82623 0.0
H739 H 0.88309 0.53032 0.01415 0.0
H740 H 0.90331 0.5176 0.9705 0.0
H741 H 0.89837 0.54267 0.94639 0.0
H742 H 0.91334 0.53896 0.82922 0.0
H743 H 0.94902 0.53534 0.79148 0.0
H744 H 0.00368 0.21859 0.90324 0.0
H745 H 0.00387 0.18833 0.82767 0.0
H746 H 0.05923 0.17257 0.92235 0.0
H747 H 0.05921 0.20283 -0.00272 0.0
H748 H 0.05708 0.16308 0.77647 0.0
H749 H 0.98718 0.13419 0.92837 0.0
H750 H 0.98553 0.15795 0.88734 0.0
H751 H 0.00357 0.1563 0.95487 0.0
C752 C 0.01633 0.2091 0.90583 0.0
C753 C 0.03138 0.21292 0.95613 0.0
C754 C 0.0163 0.19172 0.86331 0.0
C755 C 0.03132 0.17804 0.87064 0.0
C756 C 0.04745 0.18289 0.91623 0.0
H757 H 0.01821 0.04799 0.78705 0.0
H758 H 0.02435 0.08187 0.84052 0.0
C759 C 0.04746 0.20018 0.95879 0.0
C760 C 0.029 0.15767 0.83722 0.0
H761 H 0.9986 0.11287 0.8389 0.0
C762 C 0.04426 0.1521 0.78974 0.0
C763 C 0.01254 0.14325 0.85619 0.0
C764 C 0.99633 0.14807 0.9099 0.0
C765 C 0.0433 0.13254 0.75969 0.0
C766 C 0.0265 0.11831 0.77719 0.0
C767 C 0.01142 0.12382 0.82543 0.0
C768 C 0.02392 0.09778 0.74475 0.0
C769 C 0.06045 0.12717 0.71047 0.0
C770 C 0.02151 0.09554 0.67344 0.0
C771 C 0.01805 0.07631 0.64291 0.0
C772 C 0.01673 0.05884 0.68309 0.0
C773 C 0.0192 0.0611 0.75463 0.0
C774 C 0.0227 0.08043 0.78521 0.0
H775 H 0.07476 0.13743 0.71778 0.0
H776 H 0.0641 0.11131 0.71702 0.0
H777 H 0.0555 0.12869 0.65679 0.0
H778 H 0.0219 0.10871 0.64143 0.0
H779 H 0.01614 0.07523 0.58765 0.0
H780 H 0.31411 0.06078 0.97564 0.0
H781 H 0.34594 0.06276 0.90447 0.0
H782 H 0.32956 0.00218 0.82519 0.0
H783 H 0.29735 1.00061 0.89445 0.0
H784 H 0.37557 0.03966 0.92478 0.0
H785 H 0.3532 0.02779 0.65294 0.0
H786 H 0.33491 0.03385 0.72038 0.0
H787 H 0.34148 0.00821 0.70693 0.0
C788 C 0.31696 0.04827 0.94068 0.0
C789 C 0.3032 0.03068 0.93942 0.0
C790 C 0.3352 0.04932 0.90045 0.0
C791 C 0.34019 0.03269 0.85884 0.0
C792 C 0.32591 0.01544 0.85522 0.0
H793 H 0.45323 0.99162 0.68505 0.0
H794 H 0.41789 0.9958 0.7264 0.0
C795 C 0.30749 0.01451 0.89483 0.0
C796 C 0.36135 0.03241 0.82722 0.0
H797 H 0.3883 0.02258 0.67799 0.0
C798 C 0.37831 0.03623 0.87054 0.0
C799 C 0.36503 0.02773 0.75656 0.0
C800 C 0.34768 0.02436 0.70642 0.0
C801 C 0.39868 0.03507 0.84578 0.0
C802 C 0.40232 0.03011 0.77554 0.0
C803 C 0.38546 0.02641 0.73187 0.0
C804 C 0.42352 0.02799 0.74738 0.0
C805 C 0.41615 0.03851 0.89552 0.0
C806 C 0.43837 0.04476 0.74487 0.0
C807 C 0.45858 0.04243 0.7209 0.0
C808 C 0.46423 0.0233 0.69893 0.0
C809 C 0.44929 0.00658 0.70127 0.0
C810 C 0.42909 0.00893 0.72475 0.0
H811 H 0.4105 0.03821 0.95006 0.0
H812 H 0.42726 0.02685 0.88741 0.0
H813 H 0.42461 0.05355 0.88645 0.0
H814 H 0.43433 0.05963 0.76155 0.0
H815 H 0.46976 0.05558 0.71943 0.0
H816 H 0.44963 0.30189 0.96811 0.0
H817 H 0.45035 0.3314 0.89508 0.0
H818 H 0.50789 0.31596 0.8007 0.0
H819 H 0.50726 0.28638 0.8746 0.0
H820 H 0.51003 0.35483 0.85707 0.0
H821 H 0.44167 0.34188 0.69263 0.0
H822 H 0.43561 0.33773 0.78218 0.0
H823 H 0.45235 0.32162 0.73599 0.0
C824 C 0.46203 0.30439 0.92993 0.0
C825 C 0.47831 0.29179 0.92655 0.0
C826 C 0.46243 0.32126 0.88817 0.0
C827 C 0.47912 0.32587 0.84207 0.0
C828 C 0.49481 0.31263 0.83567 0.0
H829 H 0.49061 0.42924 0.57212 0.0
H830 H 0.48698 0.3955 0.62018 0.0
C831 C 0.49435 0.29563 0.87731 0.0
C832 C 0.48133 0.34573 0.80745 0.0
H833 H 0.45655 0.37619 0.70439 0.0
C834 C 0.49844 0.35942 0.82309 0.0
C835 C 0.46625 0.35172 0.76302 0.0
C836 C 0.44803 0.3374 0.74186 0.0
C837 C 0.50062 0.37907 0.79692 0.0
C838 C 0.4851 0.38536 0.75482 0.0
C839 C 0.46828 0.37148 0.73757 0.0
C840 C 0.4864 0.40607 0.72645 0.0
C841 C 0.51964 0.39286 0.81408 0.0
C842 C 0.48685 0.42333 0.7702 0.0
C843 C 0.48897 0.4428 0.74285 0.0
C844 C 0.49059 0.44534 0.67117 0.0
C845 C 0.48951 0.42795 0.62762 0.0
C846 C 0.4874 0.40857 0.65496 0.0
H847 H 0.5323 0.38424 0.83179 0.0
H848 H 0.52539 0.4018 0.76877 0.0
H849 H 0.51573 0.40361 0.85618 0.0
H850 H 0.4857 0.42176 0.82557 0.0
H851 H 0.48966 0.45581 0.77787 0.0
H852 H 0.22111 0.46834 0.89076 0.0
H853 H 0.19063 0.46601 0.81786 0.0
H854 H 0.18235 0.52869 0.86561 0.0
H855 H 0.21281 0.53109 0.93709 0.0
H856 H 0.1518 0.47128 0.86945 0.0
H857 H 0.17151 0.5256 0.66147 0.0
H858 H 0.1909 0.5163 0.71403 0.0
H859 H 0.17652 0.5368 0.74509 0.0
C860 C 0.21326 0.4818 0.88318 0.0
C861 C 0.2194 0.49994 0.91897 0.0
C862 C 0.19573 0.48042 0.84222 0.0
C863 C 0.18423 0.49721 0.83585 0.0
C864 C 0.19113 0.51564 0.86843 0.0
H865 H 0.0527 0.50073 0.77903 0.0
H866 H 0.08737 0.49946 0.82428 0.0
C867 C 0.20855 0.517 0.90935 0.0
C868 C 0.16385 0.49508 0.80205 0.0
H869 H 0.13531 0.51662 0.68376 0.0
C870 C 0.14827 0.48101 0.82818 0.0
C871 C 0.15922 0.50767 0.74797 0.0
C872 C 0.17549 0.52229 0.71502 0.0
C873 C 0.12807 0.47965 0.80329 0.0
C874 C 0.12317 0.493 0.75175 0.0
C875 C 0.13893 0.50658 0.72398 0.0
C876 C 0.10189 0.49307 0.72529 0.0
C877 C 0.11223 0.46384 0.83221 0.0
C878 C 0.09851 0.49026 0.65454 0.0
C879 C 0.07881 0.49117 0.62856 0.0
C880 C 0.06193 0.49497 0.67267 0.0
C881 C 0.06527 0.49761 0.7437 0.0
C882 C 0.08509 0.49678 0.76967 0.0
H883 H 0.11966 0.45128 0.85535 0.0
H884 H 0.10288 0.47092 0.87333 0.0
H885 H 0.10164 0.4574 0.79176 0.0
H886 H 0.11119 0.48743 0.6192 0.0
H887 H 0.07689 0.48903 0.57353 0.0
H888 H 0.00392 0.78497 0.24952 0.0
H889 H 1.00319 0.81467 0.32738 0.0
H890 H 0.9485 0.83108 0.22994 0.0
H891 H 0.94901 0.80134 0.15315 0.0
H892 H 0.0078 0.8528 0.27304 0.0
H893 H 0.9356 0.84357 0.43207 0.0
H894 H 0.94649 0.82251 0.38808 0.0
H895 H 0.93144 0.83887 0.34188 0.0
C896 C 0.99125 0.79444 0.24692 0.0
C897 C 0.97651 0.79091 0.19554 0.0
C898 C 0.99094 0.81148 0.2909 0.0
C899 C 0.97576 0.82506 0.28455 0.0
C900 C 0.96014 0.82066 0.23663 0.0
H901 H 0.98996 0.95539 0.36239 0.0
H902 H 0.9851 0.92129 0.30967 0.0
C903 C 0.96048 0.80371 0.19266 0.0
C904 C 0.97783 0.84512 0.32041 0.0
H905 H 0.95196 0.87735 0.42367 0.0
C906 C 0.99569 0.8581 0.30658 0.0
C907 C 0.96201 0.85199 0.36403 0.0
C908 C 0.94288 0.83844 0.38298 0.0
C909 C 0.99799 0.87791 0.33415 0.0
C910 C 0.98183 0.88505 0.37565 0.0
C911 C 0.96417 0.87194 0.39082 0.0
C912 C 0.98347 0.90577 0.40664 0.0
C913 C 0.01781 0.89094 0.31926 0.0
C914 C 0.98348 0.90832 0.47843 0.0
C915 C 0.98612 0.92766 0.50851 0.0
C916 C 0.98874 0.94495 0.46744 0.0
C917 C 0.98808 0.94242 0.39542 0.0
C918 C 0.98543 0.92295 0.36527 0.0
H919 H 0.0304 0.88177 0.30049 0.0
H920 H 0.01513 0.90182 0.27875 0.0
H921 H 0.02303 0.89974 0.366 0.0
H922 H 0.98192 0.89528 0.51127 0.0
H923 H 0.9864 0.92898 0.56421 0.0
H924 H 0.70192 0.95054 0.21317 0.0
H925 H 0.67001 0.94618 0.28467 0.0
H926 H 0.66638 0.01079 0.28886 0.0
H927 H 0.69815 0.01519 0.21807 0.0
H928 H 0.65568 0.991 0.41841 0.0
H929 H 0.61396 0.95456 0.19439 0.0
H930 H 0.63683 0.94371 0.22017 0.0
H931 H 0.63899 0.96856 0.18481 0.0
C932 C 0.69459 0.96381 0.23104 0.0
C933 C 0.70243 0.9832 0.20998 0.0
C934 C 0.67628 0.9613 0.27121 0.0
C935 C 0.66566 0.97815 0.29107 0.0
C936 C 0.67426 0.99759 0.27387 0.0
H937 H 0.55269 0.01616 0.46092 0.0
H938 H 0.58799 0.01181 0.42053 0.0
C939 C 0.6924 1.00008 0.2335 0.0
C940 C 0.64488 0.97574 0.32535 0.0
H941 H 0.59414 0.96127 0.29371 0.0
C942 C 0.64225 0.98426 0.39157 0.0
C943 C 0.62736 0.96694 0.29025 0.0
C944 C 0.62924 0.958 0.2183 0.0
C945 C 0.62253 0.9846 0.42307 0.0
C946 C 0.60489 0.97667 0.38664 0.0
C947 C 0.60762 0.9674 0.32155 0.0
C948 C 0.58348 0.97908 0.41286 0.0
C949 C 0.62085 0.9937 0.49479 0.0
C950 C 0.56888 0.9622 0.41984 0.0
C951 C 0.54859 0.96469 0.44277 0.0
C952 C 0.54256 0.98411 0.45893 0.0
C953 C 0.55704 1.00098 0.45047 0.0
C954 C 0.57726 0.9985 0.42758 0.0
H955 H 0.63502 0.9921 0.5241 0.0
H956 H 0.61917 0.01013 0.49101 0.0
H957 H 0.60731 0.98659 0.52418 0.0
H958 H 0.57324 0.94709 0.40797 0.0
H959 H 0.53769 0.95144 0.44858 0.0
H960 H 0.48388 0.70171 0.21778 0.0
H961 H 0.4866 0.67245 0.28941 0.0
H962 H 0.55056 0.69229 0.32492 0.0
H963 H 0.5479 0.72161 0.25172 0.0
H964 H 0.54534 0.6531 0.27669 0.0
H965 H 0.48988 0.66314 0.49319 0.0
H966 H 0.47831 0.66573 0.41156 0.0
H967 H 0.49927 0.68365 0.43798 0.0
C968 C 0.49832 0.70019 0.24278 0.0
C969 C 0.51564 0.71399 0.22969 0.0
C970 C 0.49987 0.68346 0.28383 0.0
C971 C 0.51873 0.6802 0.31314 0.0
C972 C 0.53581 0.69455 0.30314 0.0
H973 H 0.52369 0.57607 0.57592 0.0
H974 H 0.52719 0.6101 0.53016 0.0
C975 C 0.53424 0.7114 0.26201 0.0
C976 C 0.52097 0.66075 0.3475 0.0
H977 H 0.49856 0.62908 0.46956 0.0
C978 C 0.53533 0.64796 0.31958 0.0
C979 C 0.50804 0.65406 0.40376 0.0
C980 C 0.49316 0.66747 0.43881 0.0
C981 C 0.53655 0.62841 0.34463 0.0
C982 C 0.52275 0.62127 0.39816 0.0
C983 C 0.50896 0.63438 0.42784 0.0
C984 C 0.52222 0.60031 0.42432 0.0
C985 C 0.55267 0.61565 0.3136 0.0
C986 C 0.5184 0.58332 0.38006 0.0
C987 C 0.51654 0.56368 0.40608 0.0
C988 C 0.51816 0.5607 0.47706 0.0
C989 C 0.52229 0.57775 0.52096 0.0
C990 C 0.52428 0.59728 0.49491 0.0
H991 H 0.56574 0.62519 0.28953 0.0
H992 H 0.55886 0.60616 0.35299 0.0
H993 H 0.54558 0.60549 0.27277 0.0
H994 H 0.51626 0.58524 0.32562 0.0
H995 H 0.51316 0.55093 0.37098 0.0
H996 H 0.80553 0.54743 0.19783 0.0
H997 H 0.83586 0.54558 0.2681 0.0
H998 H 0.81083 0.48715 0.33973 0.0
H999 H 0.7805 0.48882 0.26792 0.0
H1000 H 0.84406 0.54049 0.4043 0.0
H1001 H 0.86506 0.47469 0.24254 0.0
H1002 H 0.84467 0.48987 0.22059 0.0
H1003 H 0.84029 0.47123 0.28617 0.0
C1004 C 0.80623 0.53445 0.23017 0.0
C1005 C 0.79073 0.51824 0.22739 0.0
C1006 C 0.8236 0.53337 0.27007 0.0
C1007 C 0.82588 0.51601 0.30783 0.0
C1008 C 0.8096 0.5005 0.30978 0.0
H1009 H 0.92941 0.5063 0.57757 0.0
H1010 H 0.89545 0.50858 0.53035 0.0
C1011 C 0.79213 0.50159 0.26967 0.0
C1012 C 0.84598 0.51372 0.34024 0.0
H1013 H 0.88763 0.48567 0.33155 0.0
C1014 C 0.85353 0.52843 0.38879 0.0
C1015 C 0.85857 0.49825 0.31868 0.0
C1016 C 0.85189 0.4827 0.2637 0.0
C1017 C 0.87325 0.52807 0.41649 0.0
C1018 C 0.88564 0.51234 0.39606 0.0
C1019 C 0.8781 0.49765 0.34744 0.0
C1020 C 0.90647 0.51086 0.42443 0.0
C1021 C 0.88084 0.54491 0.46578 0.0
C1022 C 0.92403 0.51075 0.38046 0.0
C1023 C 0.94363 0.50922 0.40729 0.0
C1024 C 0.946 0.50772 0.47868 0.0
C1025 C 0.9283 0.50764 0.52234 0.0
C1026 C 0.90878 0.50906 0.49551 0.0
H1027 H 0.87231 0.55855 0.46061 0.0
H1028 H 0.87837 0.53967 0.51942 0.0
H1029 H 0.8976 0.54932 0.45722 0.0
H1030 H 0.9226 0.51198 0.32532 0.0
H1031 H 0.95687 0.50926 0.37216 0.0
loop_
_geom_bond_atom_site_label_1
_geom_bond_atom_site_label_2
_geom_bond_distance
_geom_bond_site_symmetry_2
_ccdc_geom_bond_type
H0 C3 0.929 . S
H1 C6 0.929 1_556 S
H2 C8 0.930 . S
C3 H0 0.929 . S
C3 C4 1.398 . S
C3 C5 1.396 . S
C4 C3 1.398 . S
C4 C8 1.407 . S
C5 C3 1.396 . S
C5 C6 1.394 . S
C6 H1 0.929 1_554 S
C6 C5 1.394 . S
C6 C7 1.382 . S
C7 C6 1.382 . S
C7 C8 1.392 . S
C7 N9 1.420 . S
C8 H2 0.930 . S
C8 C4 1.407 . S
C8 C7 1.392 . S
N9 C7 1.420 . S
N9 C10 1.244 . S
C10 N9 1.244 . S
H11 C14 0.929 . S
H12 C17 0.929 . S
H13 C19 0.930 . S
C14 H11 0.929 . S
C14 C15 1.393 1_655 S
C14 C16 1.395 1_654 S
C15 C14 1.393 1_455 S
C15 C19 1.416 . S
C16 C14 1.395 1_456 S
C16 C17 1.397 . S
C17 H12 0.929 . S
C17 C16 1.397 . S
C17 C18 1.382 1_556 S
C18 C17 1.382 1_554 S
C18 C19 1.392 . S
C18 N20 1.420 . S
C19 H13 0.930 . S
C19 C15 1.416 . S
C19 C18 1.392 . S
N20 C18 1.420 . S
N20 C21 1.232 1_454 S
C21 N20 1.232 1_656 S
H22 C25 0.929 . S
H23 C28 0.929 . S
H24 C30 0.930 . S
C25 H22 0.929 . S
C25 C26 1.398 . S
C25 C27 1.396 1_554 S
C26 C25 1.398 . S
C26 C30 1.407 . S
C27 C25 1.396 1_556 S
C27 C28 1.394 . S
C28 H23 0.929 . S
C28 C27 1.394 . S
C28 C29 1.382 1_556 S
C29 C28 1.382 1_554 S
C29 C30 1.392 . S
C29 N31 1.420 . S
C30 H24 0.930 . S
C30 C26 1.407 . S
C30 C29 1.392 . S
N31 C29 1.420 . S
N31 C32 1.244 1_554 S
C32 N31 1.244 1_556 S
H33 C36 0.929 . S
H34 C39 0.929 . S
H35 C41 0.930 . S
C36 H33 0.929 . S
C36 C37 1.398 . S
C36 C38 1.396 . S
C37 C36 1.398 . S
C37 C41 1.407 . S
C38 C36 1.396 . S
C38 C39 1.394 . S
C39 H34 0.929 . S
C39 C38 1.394 . S
C39 C40 1.382 . S
C40 C39 1.382 . S
C40 C41 1.392 . S
C40 N42 1.420 . S
C41 H35 0.930 . S
C41 C37 1.407 . S
C41 C40 1.392 . S
N42 C40 1.420 . S
N42 C43 1.244 . S
C43 N42 1.244 . S
H44 C47 0.929 . S
H45 C50 0.929 . S
H46 C52 0.930 1_556 S
C47 H44 0.929 . S
C47 C48 1.398 . S
C47 C49 1.396 . S
C48 C47 1.398 . S
C48 C52 1.407 . S
C49 C47 1.396 . S
C49 C50 1.394 . S
C50 H45 0.929 . S
C50 C49 1.394 . S
C50 C51 1.382 . S
C51 C50 1.382 . S
C51 C52 1.392 . S
C51 N53 1.420 . S
C52 H46 0.930 1_554 S
C52 C48 1.407 . S
C52 C51 1.392 . S
N53 C51 1.420 . S
N53 C54 1.244 . S
C54 N53 1.244 . S
H55 C58 0.929 . S
H56 C61 0.929 . S
H57 C63 0.930 . S
C58 H55 0.929 . S
C58 C59 1.398 1_655 S
C58 C60 1.394 1_655 S
C59 C58 1.398 1_455 S
C59 C63 1.412 . S
C60 C58 1.394 1_455 S
C60 C61 1.396 . S
C61 H56 0.929 . S
C61 C60 1.396 . S
C61 C62 1.382 . S
C62 C61 1.382 . S
C62 C63 1.392 . S
C62 N64 1.420 . S
C63 H57 0.930 . S
C63 C59 1.412 . S
C63 C62 1.392 . S
N64 C62 1.420 . S
N64 C65 1.237 1_455 S
C65 N64 1.237 1_655 S
H66 C69 0.929 . S
H67 C72 0.929 . S
H68 C74 0.930 . S
C69 H66 0.929 . S
C69 C70 1.398 . S
C69 C71 1.396 . S
C70 C69 1.398 . S
C70 C74 1.407 . S
C71 C69 1.396 . S
C71 C72 1.394 . S
C72 H67 0.929 . S
C72 C71 1.394 . S
C72 C73 1.382 . S
C73 C72 1.382 . S
C73 C74 1.392 . S
C73 N75 1.420 . S
C74 H68 0.930 . S
C74 C70 1.407 . S
C74 C73 1.392 . S
N75 C73 1.420 . S
N75 C76 1.244 . S
C76 N75 1.244 . S
H77 C80 0.929 . S
H78 C83 0.929 . S
H79 C85 0.930 . S
C80 H77 0.929 . S
C80 C81 1.398 1_554 S
C80 C82 1.396 . S
C81 C80 1.398 1_556 S
C81 C85 1.407 . S
C82 C80 1.396 . S
C82 C83 1.394 . S
C83 H78 0.929 . S
C83 C82 1.394 . S
C83 C84 1.382 . S
C84 C83 1.382 . S
C84 C85 1.392 1_554 S
C84 N86 1.420 . S
C85 H79 0.930 . S
C85 C81 1.407 . S
C85 C84 1.392 1_556 S
N86 C84 1.420 . S
N86 C87 1.244 . S
C87 N86 1.244 . S
Dy88 O92 2.398 . S
Dy88 O93 2.491 1_455 S
Dy88 O94 2.403 . S
Dy88 O95 2.664 1_565 S
Dy88 O99 2.326 . S
Dy88 O103 2.310 1_455 S
Dy88 O104 2.351 1_565 S
C89 O100 1.185 . S
C89 O101 1.355 1_655 S
C90 O92 1.185 . S
C90 O93 1.355 1_455 S
Dy91 O95 2.310 1_655 S
Dy91 O98 2.351 1_545 S
Dy91 O100 2.398 . S
Dy91 O101 2.491 1_655 S
Dy91 O102 2.403 . S
Dy91 O103 2.664 1_545 S
Dy91 O105 2.326 . S
O92 Dy88 2.398 . S
O92 C90 1.185 . S
O93 Dy88 2.491 1_655 S
O93 C90 1.355 1_655 S
O94 Dy88 2.403 . S
O94 C96 1.254 1_565 S
O95 Dy88 2.664 1_545 S
O95 Dy91 2.310 1_455 S
O95 C96 1.268 . S
C96 O94 1.254 1_545 S
C96 O95 1.268 . S
C97 O102 1.254 1_565 S
C97 O103 1.268 . S
O98 Dy91 2.351 1_565 S
O98 C106 1.249 . S
O99 Dy88 2.326 . S
O99 C106 1.267 1_455 S
O100 C89 1.185 . S
O100 Dy91 2.398 . S
O101 C89 1.355 1_455 S
O101 Dy91 2.491 1_455 S
O102 Dy91 2.403 . S
O102 C97 1.254 1_545 S
O103 Dy88 2.310 1_655 S
O103 Dy91 2.664 1_565 S
O103 C97 1.268 . S
O104 Dy88 2.351 1_545 S
O104 C107 1.249 . S
O105 Dy91 2.326 . S
O105 C107 1.267 1_655 S
C106 O98 1.249 . S
C106 O99 1.267 1_655 S
C107 O104 1.249 . S
C107 O105 1.267 1_455 S
Dy108 O112 2.398 . S
Dy108 O113 2.491 1_565 S
Dy108 O114 2.403 . S
Dy108 O115 2.664 . S
Dy108 O119 2.326 1_565 S
Dy108 O123 2.310 1_565 S
Dy108 O124 2.351 . S
C109 O120 1.193 . S
C109 O121 1.353 1_545 S
C110 O112 1.185 1_545 S
C110 O113 1.355 . S
Dy111 O115 2.310 1_545 S
Dy111 O118 2.351 . S
Dy111 O120 2.398 . S
Dy111 O121 2.491 1_545 S
Dy111 O122 2.403 . S
Dy111 O123 2.664 . S
Dy111 O125 2.326 1_545 S
O112 Dy108 2.398 . S
O112 C110 1.185 1_565 S
O113 Dy108 2.491 1_545 S
O113 C110 1.355 . S
O114 Dy108 2.403 . S
O114 C116 1.254 . S
O115 Dy108 2.664 . S
O115 Dy111 2.310 1_565 S
O115 C116 1.268 . S
C116 O114 1.254 . S
C116 O115 1.268 . S
C117 O122 1.254 . S
C117 O123 1.268 . S
O118 Dy111 2.351 . S
O118 C126 1.249 . S
O119 Dy108 2.326 1_545 S
O119 C126 1.267 . S
O120 C109 1.193 . S
O120 Dy111 2.398 . S
O121 C109 1.353 1_565 S
O121 Dy111 2.491 1_565 S
O122 Dy111 2.403 . S
O122 C117 1.254 . S
O123 Dy108 2.310 1_545 S
O123 Dy111 2.664 . S
O123 C117 1.268 . S
O124 Dy108 2.351 . S
O124 C127 1.249 . S
O125 Dy111 2.326 1_565 S
O125 C127 1.267 . S
C126 O118 1.249 . S
C126 O119 1.267 . S
C127 O124 1.249 . S
C127 O125 1.267 . S
Dy128 O132 2.398 . S
Dy128 O133 2.491 . S
Dy128 O134 2.403 . S
Dy128 O135 2.664 . S
Dy128 O139 2.326 . S
Dy128 O143 2.310 . S
Dy128 O144 2.351 . S
C129 O140 1.185 . S
C129 O141 1.355 . S
C130 O132 1.185 . S
C130 O133 1.355 . S
Dy131 O135 2.310 . S
Dy131 O138 2.351 . S
Dy131 O140 2.398 . S
Dy131 O141 2.491 . S
Dy131 O142 2.403 . S
Dy131 O143 2.664 . S
Dy131 O145 2.326 . S
O132 Dy128 2.398 . S
O132 C130 1.185 . S
O133 Dy128 2.491 . S
O133 C130 1.355 . S
O134 Dy128 2.403 . S
O134 C136 1.254 . S
O135 Dy128 2.664 . S
O135 Dy131 2.310 . S
O135 C136 1.268 . S
C136 O134 1.254 . S
C136 O135 1.268 . S
C137 O142 1.254 . S
C137 O143 1.268 . S
O138 Dy131 2.351 . S
O138 C146 1.249 . S
O139 Dy128 2.326 . S
O139 C146 1.267 . S
O140 C129 1.185 . S
O140 Dy131 2.398 . S
O141 C129 1.355 . S
O141 Dy131 2.491 . S
O142 Dy131 2.403 . S
O142 C137 1.254 . S
O143 Dy128 2.310 . S
O143 Dy131 2.664 . S
O143 C137 1.268 . S
O144 Dy128 2.351 . S
O144 C147 1.249 . S
O145 Dy131 2.326 . S
O145 C147 1.267 . S
C146 O138 1.249 . S
C146 O139 1.267 . S
C147 O144 1.249 . S
C147 O145 1.267 . S
Dy148 O152 2.398 . S
Dy148 O153 2.491 . S
Dy148 O154 2.403 . S
Dy148 O155 2.664 1_655 S
Dy148 O159 2.326 . S
Dy148 O163 2.310 . S
Dy148 O164 2.351 1_655 S
C149 O160 1.185 . S
C149 O161 1.355 . S
C150 O152 1.185 . S
C150 O153 1.355 . S
Dy151 O155 2.310 . S
Dy151 O158 2.351 1_455 S
Dy151 O160 2.398 . S
Dy151 O161 2.491 . S
Dy151 O162 2.403 . S
Dy151 O163 2.664 1_455 S
Dy151 O165 2.326 . S
O152 Dy148 2.398 . S
O152 C150 1.185 . S
O153 Dy148 2.491 . S
O153 C150 1.355 . S
O154 Dy148 2.403 . S
O154 C156 1.254 . S
O155 Dy148 2.664 1_455 S
O155 Dy151 2.310 . S
O155 C156 1.268 1_455 S
C156 O154 1.254 . S
C156 O155 1.268 1_655 S
C157 O162 1.254 . S
C157 O163 1.268 1_455 S
O158 Dy151 2.351 1_655 S
O158 C166 1.249 . S
O159 Dy148 2.326 . S
O159 C166 1.267 . S
O160 C149 1.185 . S
O160 Dy151 2.398 . S
O161 C149 1.355 . S
O161 Dy151 2.491 . S
O162 Dy151 2.403 . S
O162 C157 1.254 . S
O163 Dy148 2.310 . S
O163 Dy151 2.664 1_655 S
O163 C157 1.268 1_655 S
O164 Dy148 2.351 1_455 S
O164 C167 1.249 . S
O165 Dy151 2.326 . S
O165 C167 1.267 . S
C166 O158 1.249 . S
C166 O159 1.267 . S
C167 O164 1.249 . S
C167 O165 1.267 . S
H168 C176 0.929 . S
H169 C178 0.930 . S
H170 C180 0.930 . S
H171 C183 0.929 . S
H172 C186 0.930 . S
H173 C188 0.960 . S
H174 C188 0.960 . S
H175 C188 0.960 . S
C176 H168 0.929 . S
C176 C177 1.377 . S
C176 C178 1.384 . S
C177 C176 1.377 . S
C177 C183 1.390 . S
C178 H169 0.930 . S
C178 C176 1.384 . S
C178 C179 1.372 . S
C179 C178 1.372 . S
C179 C180 1.400 . S
C179 C184 1.490 . S
C180 H170 0.930 . S
C180 C179 1.400 . S
C180 C183 1.386 . S
H181 C197 0.930 . S
H182 C198 0.931 . S
C183 H171 0.929 . S
C183 C177 1.390 . S
C183 C180 1.386 . S
C184 C179 1.490 . S
C184 C186 1.395 . S
C184 C187 1.403 . S
H185 C191 0.930 . S
C186 H172 0.930 . S
C186 C184 1.395 . S
C186 C189 1.403 . S
C187 C184 1.403 . S
C187 C188 1.524 . S
C187 C191 1.400 . S
C188 H173 0.960 . S
C188 H174 0.960 . S
C188 H175 0.960 . S
C188 C187 1.524 . S
C189 C186 1.403 . S
C189 C190 1.392 . S
C189 C193 1.495 1_545 S
C190 C189 1.392 . S
C190 C191 1.385 . S
C190 C192 1.478 . S
C191 H185 0.930 . S
C191 C187 1.400 . S
C191 C190 1.385 . S
C192 C190 1.478 . S
C192 C194 1.418 . S
C192 C198 1.383 . S
C193 C189 1.495 1_565 S
C193 H199 0.959 . S
C193 H200 0.961 . S
C193 H201 0.960 . S
C194 C192 1.418 . S
C194 C195 1.391 1_545 S
C194 H202 0.899 1_545 S
C195 C194 1.391 1_565 S
C195 C196 1.383 1_565 S
C195 H203 0.929 . S
C196 C195 1.383 1_545 S
C196 C197 1.377 . S
C197 H181 0.930 . S
C197 C196 1.377 . S
C197 C198 1.379 . S
C198 H182 0.931 . S
C198 C192 1.383 . S
C198 C197 1.379 . S
H199 C193 0.959 . S
H200 C193 0.961 . S
H201 C193 0.960 . S
H202 C194 0.899 1_565 S
H203 C195 0.929 . S
H204 C212 0.929 . S
H205 C214 0.930 . S
H206 C216 0.930 . S
H207 C219 0.929 . S
H208 C222 0.930 . S
H209 C224 0.960 . S
H210 C224 0.960 . S
H211 C224 0.960 . S
C212 H204 0.929 . S
C212 C213 1.377 . S
C212 C214 1.384 . S
C213 C212 1.377 . S
C213 C219 1.390 . S
C214 H205 0.930 . S
C214 C212 1.384 . S
C214 C215 1.372 . S
C215 C214 1.372 . S
C215 C216 1.400 . S
C215 C220 1.490 . S
C216 H206 0.930 . S
C216 C215 1.400 . S
C216 C219 1.386 . S
H217 C233 0.930 . S
H218 C234 0.931 . S
C219 H207 0.929 . S
C219 C213 1.390 . S
C219 C216 1.386 . S
C220 C215 1.490 . S
C220 C222 1.395 . S
C220 C223 1.403 . S
H221 C227 0.930 . S
C222 H208 0.930 . S
C222 C220 1.395 . S
C222 C225 1.403 . S
C223 C220 1.403 . S
C223 C224 1.524 . S
C223 C227 1.400 . S
C224 H209 0.960 . S
C224 H210 0.960 . S
C224 H211 0.960 . S
C224 C223 1.524 . S
C225 C222 1.403 . S
C225 C226 1.392 . S
C225 C229 1.495 . S
C226 C225 1.392 . S
C226 C227 1.385 . S
C226 C228 1.478 . S
C227 H221 0.930 . S
C227 C223 1.400 . S
C227 C226 1.385 . S
C228 C226 1.478 . S
C228 C230 1.381 . S
C228 C234 1.383 . S
C229 C225 1.495 . S
C229 H235 0.959 . S
C229 H236 0.961 . S
C229 H237 0.960 . S
C230 C228 1.381 . S
C230 C231 1.394 . S
C230 H238 0.930 . S
C231 C230 1.394 . S
C231 C232 1.383 . S
C231 H239 0.929 . S
C232 C231 1.383 . S
C232 C233 1.377 . S
C233 H217 0.930 . S
C233 C232 1.377 . S
C233 C234 1.379 . S
C234 H218 0.931 . S
C234 C228 1.383 . S
C234 C233 1.379 . S
H235 C229 0.959 . S
H236 C229 0.961 . S
H237 C229 0.960 . S
H238 C230 0.930 . S
H239 C231 0.929 . S
H240 C248 0.929 . S
H241 C250 0.930 . S
H242 C252 0.930 . S
H243 C255 0.929 . S
H244 C258 0.930 . S
H245 C260 0.960 . S
H246 C260 0.960 . S
H247 C260 0.960 . S
C248 H240 0.929 . S
C248 C249 1.377 . S
C248 C250 1.384 . S
C249 C248 1.377 . S
C249 C255 1.390 . S
C250 H241 0.930 . S
C250 C248 1.384 . S
C250 C251 1.372 . S
C251 C250 1.372 . S
C251 C252 1.400 . S
C251 C256 1.490 . S
C252 H242 0.930 . S
C252 C251 1.400 . S
C252 C255 1.386 . S
H253 C269 0.930 . S
H254 C270 0.931 . S
C255 H243 0.929 . S
C255 C249 1.390 . S
C255 C252 1.386 . S
C256 C251 1.490 . S
C256 C258 1.395 . S
C256 C259 1.403 . S
H257 C263 0.930 . S
C258 H244 0.930 . S
C258 C256 1.395 . S
C258 C261 1.403 . S
C259 C256 1.403 . S
C259 C260 1.524 . S
C259 C263 1.400 . S
C260 H245 0.960 . S
C260 H246 0.960 . S
C260 H247 0.960 . S
C260 C259 1.524 . S
C261 C258 1.403 . S
C261 C262 1.392 . S
C261 C265 1.495 . S
C262 C261 1.392 . S
C262 C263 1.385 . S
C262 C264 1.478 . S
C263 H257 0.930 . S
C263 C259 1.400 . S
C263 C262 1.385 . S
C264 C262 1.478 . S
C264 C266 1.381 . S
C264 C270 1.383 . S
C265 C261 1.495 . S
C265 H271 0.959 . S
C265 H272 0.961 . S
C265 H273 0.960 . S
C266 C264 1.381 . S
C266 C267 1.394 . S
C266 H274 0.930 . S
C267 C266 1.394 . S
C267 C268 1.383 . S
C267 H275 0.929 . S
C268 C267 1.383 . S
C268 C269 1.377 . S
C269 H253 0.930 . S
C269 C268 1.377 . S
C269 C270 1.379 . S
C270 H254 0.931 . S
C270 C264 1.383 . S
C270 C269 1.379 . S
H271 C265 0.959 . S
H272 C265 0.961 . S
H273 C265 0.960 . S
H274 C266 0.930 . S
H275 C267 0.929 . S
H276 C284 0.929 . S
H277 C286 0.930 . S
H278 C288 0.930 . S
H279 C291 0.929 . S
H280 C294 0.930 . S
H281 C296 0.960 . S
H282 C296 0.960 . S
H283 C296 0.960 . S
C284 H276 0.929 . S
C284 C285 1.377 1_455 S
C284 C286 1.384 . S
C285 C284 1.377 1_655 S
C285 C291 1.391 . S
C286 H277 0.930 . S
C286 C284 1.384 . S
C286 C287 1.370 1_455 S
C287 C286 1.370 1_655 S
C287 C288 1.401 . S
C287 C292 1.491 1_655 S
C288 H278 0.930 . S
C288 C287 1.401 . S
C288 C291 1.386 . S
H289 C305 0.942 . S
H290 C306 0.928 1_655 S
C291 H279 0.929 . S
C291 C285 1.391 . S
C291 C288 1.386 . S
C292 C287 1.491 1_455 S
C292 C294 1.411 . S
C292 C295 1.386 1_455 S
H293 C299 0.930 . S
C294 H280 0.930 . S
C294 C292 1.411 . S
C294 C297 1.403 . S
C295 C292 1.386 1_655 S
C295 C296 1.524 . S
C295 C299 1.400 . S
C296 H281 0.960 . S
C296 H282 0.960 . S
C296 H283 0.960 . S
C296 C295 1.524 . S
C297 C294 1.403 . S
C297 C298 1.392 . S
C297 C301 1.495 . S
C298 C297 1.392 . S
C298 C299 1.385 1_455 S
C298 C300 1.478 . S
C299 H293 0.930 . S
C299 C295 1.400 . S
C299 C298 1.385 1_655 S
C300 C298 1.478 . S
C300 C302 1.381 . S
C300 C306 1.390 . S
C301 C297 1.495 . S
C301 H307 0.959 . S
C301 H308 0.961 . S
C301 H309 0.960 . S
C302 C300 1.381 . S
C302 C303 1.394 . S
C302 H310 0.930 . S
C303 C302 1.394 . S
C303 C304 1.389 . S
C303 H311 0.929 . S
C304 C303 1.389 . S
C304 C305 1.372 1_455 S
C305 H289 0.942 . S
C305 C304 1.372 1_655 S
C305 C306 1.371 1_655 S
C306 H290 0.928 1_455 S
C306 C300 1.390 . S
C306 C305 1.371 1_455 S
H307 C301 0.959 . S
H308 C301 0.961 . S
H309 C301 0.960 . S
H310 C302 0.930 . S
H311 C303 0.929 . S
H312 C320 0.929 . S
H313 C322 0.930 . S
H314 C324 0.930 . S
H315 C327 0.929 1_554 S
H316 C330 0.930 . S
H317 C332 0.960 . S
H318 C332 0.960 . S
H319 C332 0.960 . S
C320 H312 0.929 . S
C320 C321 1.377 . S
C320 C322 1.384 . S
C321 C320 1.377 . S
C321 C327 1.390 . S
C322 H313 0.930 . S
C322 C320 1.384 . S
C322 C323 1.372 . S
C323 C322 1.372 . S
C323 C324 1.400 . S
C323 C328 1.490 . S
C324 H314 0.930 . S
C324 C323 1.400 . S
C324 C327 1.386 . S
H325 C341 0.930 . S
H326 C342 0.931 . S
C327 H315 0.929 1_556 S
C327 C321 1.390 . S
C327 C324 1.386 . S
C328 C323 1.490 . S
C328 C330 1.395 . S
C328 C331 1.403 . S
H329 C335 0.930 . S
C330 H316 0.930 . S
C330 C328 1.395 . S
C330 C333 1.403 . S
C331 C328 1.403 . S
C331 C332 1.524 . S
C331 C335 1.400 . S
C332 H317 0.960 . S
C332 H318 0.960 . S
C332 H319 0.960 . S
C332 C331 1.524 . S
C333 C330 1.403 . S
C333 C334 1.392 . S
C333 C337 1.495 1_565 S
C334 C333 1.392 . S
C334 C335 1.385 . S
C334 C336 1.478 . S
C335 H329 0.930 . S
C335 C331 1.400 . S
C335 C334 1.385 . S
C336 C334 1.478 . S
C336 C338 1.381 . S
C336 C342 1.383 . S
C337 C333 1.495 1_545 S
C337 H343 0.959 . S
C337 H344 0.961 . S
C337 H345 0.960 . S
C338 C336 1.381 . S
C338 C339 1.394 . S
C338 H346 0.930 . S
C339 C338 1.394 . S
C339 C340 1.383 . S
C339 H347 0.929 . S
C340 C339 1.383 . S
C340 C341 1.377 . S
C341 H325 0.930 . S
C341 C340 1.377 . S
C341 C342 1.379 . S
C342 H326 0.931 . S
C342 C336 1.383 . S
C342 C341 1.379 . S
H343 C337 0.959 . S
H344 C337 0.961 . S
H345 C337 0.960 . S
H346 C338 0.930 . S
H347 C339 0.929 . S
H348 C356 0.929 1_554 S
H349 C358 0.930 . S
H350 C360 0.930 . S
H351 C363 0.929 . S
H352 C366 0.930 . S
H353 C368 0.960 . S
H354 C368 0.960 1_554 S
H355 C368 0.960 . S
C356 H348 0.929 1_556 S
C356 C357 1.377 1_556 S
C356 C358 1.384 . S
C357 C356 1.377 1_554 S
C357 C363 1.390 . S
C358 H349 0.930 . S
C358 C356 1.384 . S
C358 C359 1.372 . S
C359 C358 1.372 . S
C359 C360 1.400 . S
C359 C364 1.490 . S
C360 H350 0.930 . S
C360 C359 1.400 . S
C360 C363 1.386 1_556 S
H361 C377 0.930 . S
H362 C378 0.931 . S
C363 H351 0.929 . S
C363 C357 1.390 . S
C363 C360 1.386 1_554 S
C364 C359 1.490 . S
C364 C366 1.395 . S
C364 C367 1.403 . S
H365 C371 0.930 . S
C366 H352 0.930 . S
C366 C364 1.395 . S
C366 C369 1.403 . S
C367 C364 1.403 . S
C367 C368 1.524 . S
C367 C371 1.400 . S
C368 H353 0.960 . S
C368 H354 0.960 1_556 S
C368 H355 0.960 . S
C368 C367 1.524 . S
C369 C366 1.403 . S
C369 C370 1.392 . S
C369 C373 1.495 . S
C370 C369 1.392 . S
C370 C371 1.385 . S
C370 C372 1.478 . S
C371 H365 0.930 . S
C371 C367 1.400 . S
C371 C370 1.385 . S
C372 C370 1.478 . S
C372 C374 1.381 . S
C372 C378 1.383 . S
C373 C369 1.495 . S
C373 H379 0.959 . S
C373 H380 0.961 . S
C373 H381 0.960 . S
C374 C372 1.381 . S
C374 C375 1.394 . S
C374 H382 0.930 . S
C375 C374 1.394 . S
C375 C376 1.383 . S
C375 H383 0.929 . S
C376 C375 1.383 . S
C376 C377 1.377 . S
C377 H361 0.930 . S
C377 C376 1.377 . S
C377 C378 1.379 . S
C378 H362 0.931 . S
C378 C372 1.383 . S
C378 C377 1.379 . S
H379 C373 0.959 . S
H380 C373 0.961 . S
H381 C373 0.960 . S
H382 C374 0.930 . S
H383 C375 0.929 . S
H384 C392 0.929 . S
H385 C394 0.930 . S
H386 C396 0.930 . S
H387 C399 0.929 . S
H388 C402 0.930 . S
H389 C404 0.960 . S
H390 C404 0.960 . S
H391 C404 0.960 . S
C392 H384 0.929 . S
C392 C393 1.377 . S
C392 C394 1.384 . S
C393 C392 1.377 . S
C393 C399 1.390 . S
C394 H385 0.930 . S
C394 C392 1.384 . S
C394 C395 1.372 . S
C395 C394 1.372 . S
C395 C396 1.400 . S
C395 C400 1.490 . S
C396 H386 0.930 . S
C396 C395 1.400 . S
C396 C399 1.386 . S
H397 C413 0.930 . S
H398 C414 0.931 . S
C399 H387 0.929 . S
C399 C393 1.390 . S
C399 C396 1.386 . S
C400 C395 1.490 . S
C400 C402 1.395 . S
C400 C403 1.403 . S
H401 C407 0.930 . S
C402 H388 0.930 . S
C402 C400 1.395 . S
C402 C405 1.403 . S
C403 C400 1.403 . S
C403 C404 1.524 . S
C403 C407 1.400 . S
C404 H389 0.960 . S
C404 H390 0.960 . S
C404 H391 0.960 . S
C404 C403 1.524 . S
C405 C402 1.403 . S
C405 C406 1.392 . S
C405 C409 1.495 . S
C406 C405 1.392 . S
C406 C407 1.385 . S
C406 C408 1.478 . S
C407 H401 0.930 . S
C407 C403 1.400 . S
C407 C406 1.385 . S
C408 C406 1.478 . S
C408 C410 1.381 . S
C408 C414 1.383 . S
C409 C405 1.495 . S
C409 H415 0.959 . S
C409 H416 0.961 . S
C409 H417 0.960 . S
C410 C408 1.381 . S
C410 C411 1.394 . S
C410 H418 0.930 . S
C411 C410 1.394 . S
C411 C412 1.383 . S
C411 H419 0.929 . S
C412 C411 1.383 . S
C412 C413 1.377 . S
C413 H397 0.930 . S
C413 C412 1.377 . S
C413 C414 1.379 . S
C414 H398 0.931 . S
C414 C408 1.383 . S
C414 C413 1.379 . S
H415 C409 0.959 . S
H416 C409 0.961 . S
H417 C409 0.960 . S
H418 C410 0.930 . S
H419 C411 0.929 . S
H420 C428 0.929 1_554 S
H421 C430 0.930 . S
H422 C432 0.930 . S
H423 C435 0.929 . S
H424 C438 0.930 . S
H425 C440 0.960 . S
H426 C440 0.960 . S
H427 C440 0.960 . S
C428 H420 0.929 1_556 S
C428 C429 1.385 . S
C428 C430 1.384 . S
C429 C428 1.385 . S
C429 C435 1.383 1_455 S
C430 H421 0.930 . S
C430 C428 1.384 . S
C430 C431 1.372 . S
C431 C430 1.372 . S
C431 C432 1.400 1_455 S
C431 C436 1.490 . S
C432 H422 0.930 . S
C432 C431 1.400 1_655 S
C432 C435 1.386 . S
H433 C449 0.930 . S
H434 C450 0.931 . S
C435 H423 0.929 . S
C435 C429 1.383 1_655 S
C435 C432 1.386 . S
C436 C431 1.490 . S
C436 C438 1.395 1_455 S
C436 C439 1.403 . S
H437 C443 0.930 . S
C438 H424 0.930 . S
C438 C436 1.395 1_655 S
C438 C441 1.403 . S
C439 C436 1.403 . S
C439 C440 1.524 . S
C439 C443 1.400 . S
C440 H425 0.960 . S
C440 H426 0.960 . S
C440 H427 0.960 . S
C440 C439 1.524 . S
C441 C438 1.403 . S
C441 C442 1.391 1_655 S
C441 C445 1.495 . S
C442 C441 1.391 1_455 S
C442 C443 1.386 . S
C442 C444 1.478 1_455 S
C443 H437 0.930 . S
C443 C439 1.400 . S
C443 C442 1.386 . S
C444 C442 1.478 1_655 S
C444 C446 1.376 1_655 S
C444 C450 1.387 . S
C445 C441 1.495 . S
C445 H451 0.959 . S
C445 H452 0.961 . S
C445 H453 0.960 1_655 S
C446 C444 1.376 1_455 S
C446 C447 1.394 . S
C446 H454 0.930 . S
C447 C446 1.394 . S
C447 C448 1.403 . S
C447 H455 0.929 . S
C448 C447 1.403 . S
C448 C449 1.356 1_455 S
C449 H433 0.930 . S
C449 C448 1.356 1_655 S
C449 C450 1.379 . S
C450 H434 0.931 . S
C450 C444 1.387 . S
C450 C449 1.379 . S
H451 C445 0.959 . S
H452 C445 0.961 . S
H453 C445 0.960 1_455 S
H454 C446 0.930 . S
H455 C447 0.929 . S
H456 C464 0.929 . S
H457 C466 0.930 . S
H458 C468 0.930 . S
H459 C471 0.929 . S
H460 C474 0.930 . S
H461 C476 0.960 . S
H462 C476 0.960 . S
H463 C476 0.960 . S
C464 H456 0.929 . S
C464 C465 1.387 . S
C464 C466 1.384 . S
C465 C464 1.387 . S
C465 C471 1.381 1_455 S
C466 H457 0.930 . S
C466 C464 1.384 . S
C466 C467 1.372 1_455 S
C467 C466 1.372 1_655 S
C467 C468 1.400 . S
C467 C472 1.490 . S
C468 H458 0.930 . S
C468 C467 1.400 . S
C468 C471 1.386 . S
H469 C485 0.930 . S
H470 C486 0.931 . S
C471 H459 0.929 . S
C471 C465 1.381 1_655 S
C471 C468 1.386 . S
C472 C467 1.490 . S
C472 C474 1.395 1_655 S
C472 C475 1.403 . S
H473 C479 0.930 . S
C474 H460 0.930 . S
C474 C472 1.395 1_455 S
C474 C477 1.403 . S
C475 C472 1.403 . S
C475 C476 1.524 . S
C475 C479 1.400 . S
C476 H461 0.960 . S
C476 H462 0.960 . S
C476 H463 0.960 . S
C476 C475 1.524 . S
C477 C474 1.403 . S
C477 C478 1.392 1_455 S
C477 C481 1.495 . S
C478 C477 1.392 1_655 S
C478 C479 1.385 . S
C478 C480 1.478 . S
C479 H473 0.930 . S
C479 C475 1.400 . S
C479 C478 1.385 . S
C480 C478 1.478 . S
C480 C482 1.381 1_655 S
C480 C486 1.383 . S
C481 C477 1.495 . S
C481 H487 0.959 . S
C481 H488 0.961 . S
C481 H489 0.960 . S
C482 C480 1.381 1_455 S
C482 C483 1.394 . S
C482 H490 0.930 . S
C483 C482 1.394 . S
C483 C484 1.383 1_455 S
C483 H491 0.929 . S
C484 C483 1.383 1_655 S
C484 C485 1.377 . S
C485 H469 0.930 . S
C485 C484 1.377 . S
C485 C486 1.379 . S
C486 H470 0.931 . S
C486 C480 1.383 . S
C486 C485 1.379 . S
H487 C481 0.959 . S
H488 C481 0.961 . S
H489 C481 0.960 . S
H490 C482 0.930 . S
H491 C483 0.929 . S
H492 C500 0.929 . S
H493 C502 0.930 . S
H494 C504 0.930 . S
H495 C507 0.929 . S
H496 C510 0.930 . S
H497 C512 0.960 . S
H498 C512 0.960 . S
H499 C512 0.960 . S
C500 H492 0.929 . S
C500 C501 1.377 . S
C500 C502 1.384 . S
C501 C500 1.377 . S
C501 C507 1.390 . S
C502 H493 0.930 . S
C502 C500 1.384 . S
C502 C503 1.372 . S
C503 C502 1.372 . S
C503 C504 1.400 . S
C503 C508 1.490 . S
C504 H494 0.930 . S
C504 C503 1.400 . S
C504 C507 1.386 . S
H505 C521 0.930 . S
H506 C522 0.931 . S
C507 H495 0.929 . S
C507 C501 1.390 . S
C507 C504 1.386 . S
C508 C503 1.490 . S
C508 C510 1.395 . S
C508 C511 1.403 . S
H509 C515 0.930 . S
C510 H496 0.930 . S
C510 C508 1.395 . S
C510 C513 1.403 . S
C511 C508 1.403 . S
C511 C512 1.524 . S
C511 C515 1.400 . S
C512 H497 0.960 . S
C512 H498 0.960 . S
C512 H499 0.960 . S
C512 C511 1.524 . S
C513 C510 1.403 . S
C513 C514 1.392 . S
C513 C517 1.495 . S
C514 C513 1.392 . S
C514 C515 1.385 . S
C514 C516 1.478 . S
C515 H509 0.930 . S
C515 C511 1.400 . S
C515 C514 1.385 . S
C516 C514 1.478 . S
C516 C518 1.381 . S
C516 C522 1.383 1_545 S
C517 C513 1.495 . S
C517 H523 0.959 . S
C517 H524 0.961 . S
C517 H525 0.960 . S
C518 C516 1.381 . S
C518 C519 1.394 . S
C518 H526 0.930 . S
C519 C518 1.394 . S
C519 C520 1.383 . S
C519 H527 0.929 . S
C520 C519 1.383 . S
C520 C521 1.377 1_545 S
C521 H505 0.930 . S
C521 C520 1.377 1_565 S
C521 C522 1.379 . S
C522 H506 0.931 . S
C522 C516 1.383 1_565 S
C522 C521 1.379 . S
H523 C517 0.959 . S
H524 C517 0.961 . S
H525 C517 0.960 . S
H526 C518 0.930 . S
H527 C519 0.929 . S
H528 C536 0.929 . S
H529 C538 0.930 . S
H530 C540 0.930 . S
H531 C543 0.929 . S
H532 C546 0.930 . S
H533 C548 0.960 . S
H534 C548 0.960 . S
H535 C548 0.960 . S
C536 H528 0.929 . S
C536 C537 1.377 . S
C536 C538 1.384 . S
C537 C536 1.377 . S
C537 C543 1.390 . S
C538 H529 0.930 . S
C538 C536 1.384 . S
C538 C539 1.372 . S
C539 C538 1.372 . S
C539 C540 1.400 . S
C539 C544 1.490 . S
C540 H530 0.930 . S
C540 C539 1.400 . S
C540 C543 1.386 . S
H541 C557 0.930 . S
H542 C558 0.931 . S
C543 H531 0.929 . S
C543 C537 1.390 . S
C543 C540 1.386 . S
C544 C539 1.490 . S
C544 C546 1.395 . S
C544 C547 1.403 . S
H545 C551 0.930 . S
C546 H532 0.930 . S
C546 C544 1.395 . S
C546 C549 1.403 . S
C547 C544 1.403 . S
C547 C548 1.524 . S
C547 C551 1.400 . S
C548 H533 0.960 . S
C548 H534 0.960 . S
C548 H535 0.960 . S
C548 C547 1.524 . S
C549 C546 1.403 . S
C549 C550 1.392 . S
C549 C553 1.495 . S
C550 C549 1.392 . S
C550 C551 1.385 . S
C550 C552 1.478 . S
C551 H545 0.930 . S
C551 C547 1.400 . S
C551 C550 1.385 . S
C552 C550 1.478 . S
C552 C554 1.381 . S
C552 C558 1.383 . S
C553 C549 1.495 . S
C553 H559 0.959 . S
C553 H560 0.961 . S
C553 H561 0.960 . S
C554 C552 1.381 . S
C554 C555 1.394 . S
C554 H562 0.930 . S
C555 C554 1.394 . S
C555 C556 1.383 . S
C555 H563 0.929 . S
C556 C555 1.383 . S
C556 C557 1.377 . S
C557 H541 0.930 . S
C557 C556 1.377 . S
C557 C558 1.379 . S
C558 H542 0.931 . S
C558 C552 1.383 . S
C558 C557 1.379 . S
H559 C553 0.959 . S
H560 C553 0.961 . S
H561 C553 0.960 . S
H562 C554 0.930 . S
H563 C555 0.929 . S
H564 C572 0.929 . S
H565 C574 0.930 . S
H566 C576 0.930 . S
H567 C579 0.929 . S
H568 C582 0.930 . S
H569 C584 0.960 . S
H570 C584 0.960 . S
H571 C584 0.960 . S
C572 H564 0.929 . S
C572 C573 1.377 . S
C572 C574 1.384 . S
C573 C572 1.377 . S
C573 C579 1.390 . S
C574 H565 0.930 . S
C574 C572 1.384 . S
C574 C575 1.372 . S
C575 C574 1.372 . S
C575 C576 1.400 . S
C575 C580 1.490 . S
C576 H566 0.930 . S
C576 C575 1.400 . S
C576 C579 1.386 . S
H577 C593 0.930 . S
H578 C594 0.931 . S
C579 H567 0.929 . S
C579 C573 1.390 . S
C579 C576 1.386 . S
C580 C575 1.490 . S
C580 C582 1.395 . S
C580 C583 1.403 . S
H581 C587 0.930 . S
C582 H568 0.930 . S
C582 C580 1.395 . S
C582 C585 1.403 . S
C583 C580 1.403 . S
C583 C584 1.524 . S
C583 C587 1.400 . S
C584 H569 0.960 . S
C584 H570 0.960 . S
C584 H571 0.960 . S
C584 C583 1.524 . S
C585 C582 1.403 . S
C585 C586 1.392 . S
C585 C589 1.495 . S
C586 C585 1.392 . S
C586 C587 1.385 . S
C586 C588 1.478 . S
C587 H581 0.930 . S
C587 C583 1.400 . S
C587 C586 1.385 . S
C588 C586 1.478 . S
C588 C590 1.381 . S
C588 C594 1.383 . S
C589 C585 1.495 . S
C589 H595 0.959 . S
C589 H596 0.961 . S
C589 H597 0.960 . S
C590 C588 1.381 . S
C590 C591 1.394 . S
C590 H598 0.930 . S
C591 C590 1.394 . S
C591 C592 1.383 . S
C591 H599 0.929 . S
C592 C591 1.383 . S
C592 C593 1.377 . S
C593 H577 0.930 . S
C593 C592 1.377 . S
C593 C594 1.379 . S
C594 H578 0.931 . S
C594 C588 1.383 . S
C594 C593 1.379 . S
H595 C589 0.959 . S
H596 C589 0.961 . S
H597 C589 0.960 . S
H598 C590 0.930 . S
H599 C591 0.929 . S
H600 C608 0.929 . S
H601 C610 0.930 . S
H602 C612 0.930 . S
H603 C615 0.929 1_554 S
H604 C618 0.930 1_655 S
H605 C620 0.960 . S
H606 C620 0.960 . S
H607 C620 0.969 . S
C608 H600 0.929 . S
C608 C609 1.379 . S
C608 C610 1.384 . S
C609 C608 1.379 . S
C609 C615 1.388 1_455 S
C610 H601 0.930 . S
C610 C608 1.384 . S
C610 C611 1.372 . S
C611 C610 1.372 . S
C611 C612 1.400 1_455 S
C611 C616 1.490 . S
C612 H602 0.930 . S
C612 C611 1.400 1_655 S
C612 C615 1.386 . S
H613 C629 0.930 . S
H614 C630 0.931 . S
C615 H603 0.929 1_556 S
C615 C609 1.388 1_655 S
C615 C612 1.386 . S
C616 C611 1.490 . S
C616 C618 1.395 . S
C616 C619 1.403 . S
H617 C623 0.930 . S
C618 H604 0.930 1_455 S
C618 C616 1.395 . S
C618 C621 1.403 . S
C619 C616 1.403 . S
C619 C620 1.524 . S
C619 C623 1.400 . S
C620 H605 0.960 . S
C620 H606 0.960 . S
C620 H607 0.969 . S
C620 C619 1.524 . S
C621 C618 1.403 . S
C621 C622 1.392 . S
C621 C625 1.495 1_455 S
C622 C621 1.392 . S
C622 C623 1.385 . S
C622 C624 1.478 . S
C623 H617 0.930 . S
C623 C619 1.400 . S
C623 C622 1.385 . S
C624 C622 1.478 . S
C624 C626 1.381 . S
C624 C630 1.383 1_455 S
C625 C621 1.495 1_655 S
C625 H631 0.959 . S
C625 H632 0.961 . S
C625 H633 0.960 1_655 S
C626 C624 1.381 . S
C626 C627 1.394 . S
C626 H634 0.930 . S
C627 C626 1.394 . S
C627 C628 1.383 . S
C627 H635 0.929 . S
C628 C627 1.383 . S
C628 C629 1.377 1_455 S
C629 H613 0.930 . S
C629 C628 1.377 1_655 S
C629 C630 1.379 . S
C630 H614 0.931 . S
C630 C624 1.383 1_655 S
C630 C629 1.379 . S
H631 C625 0.959 . S
H632 C625 0.961 . S
H633 C625 0.960 1_455 S
H634 C626 0.930 . S
H635 C627 0.929 . S
H636 C644 0.929 . S
H637 C646 0.930 . S
H638 C648 0.930 . S
H639 C651 0.929 . S
H640 C654 0.930 . S
H641 C656 0.960 1_545 S
H642 C656 0.960 . S
H643 C656 0.960 1_545 S
C644 H636 0.929 . S
C644 C645 1.377 . S
C644 C646 1.384 . S
C645 C644 1.377 . S
C645 C651 1.390 . S
C646 H637 0.930 . S
C646 C644 1.384 . S
C646 C647 1.372 . S
C647 C646 1.372 . S
C647 C648 1.400 . S
C647 C652 1.490 . S
C648 H638 0.930 . S
C648 C647 1.400 . S
C648 C651 1.386 . S
H649 C665 0.930 . S
H650 C666 0.931 . S
C651 H639 0.929 . S
C651 C645 1.390 . S
C651 C648 1.386 . S
C652 C647 1.490 . S
C652 C654 1.395 . S
C652 C655 1.403 . S
H653 C659 0.930 . S
C654 H640 0.930 . S
C654 C652 1.395 . S
C654 C657 1.403 . S
C655 C652 1.403 . S
C655 C656 1.524 . S
C655 C659 1.400 . S
C656 H641 0.960 1_565 S
C656 H642 0.960 . S
C656 H643 0.960 1_565 S
C656 C655 1.524 . S
C657 C654 1.403 . S
C657 C658 1.392 . S
C657 C661 1.495 . S
C658 C657 1.392 . S
C658 C659 1.385 . S
C658 C660 1.478 . S
C659 H653 0.930 . S
C659 C655 1.400 . S
C659 C658 1.385 . S
C660 C658 1.478 . S
C660 C662 1.381 . S
C660 C666 1.383 1_565 S
C661 C657 1.495 . S
C661 H667 0.959 . S
C661 H668 0.961 . S
C661 H669 0.960 . S
C662 C660 1.381 . S
C662 C663 1.394 . S
C662 H670 0.930 . S
C663 C662 1.394 . S
C663 C664 1.383 . S
C663 H671 0.929 . S
C664 C663 1.383 . S
C664 C665 1.377 1_565 S
C665 H649 0.930 . S
C665 C664 1.377 1_545 S
C665 C666 1.379 . S
C666 H650 0.931 . S
C666 C660 1.383 1_545 S
C666 C665 1.379 . S
H667 C661 0.959 . S
H668 C661 0.961 . S
H669 C661 0.960 . S
H670 C662 0.930 . S
H671 C663 0.929 . S
H672 C680 0.929 . S
H673 C682 0.930 . S
H674 C684 0.930 . S
H675 C687 0.929 . S
H676 C690 0.930 . S
H677 C692 0.960 . S
H678 C692 0.960 1_554 S
H679 C692 0.960 . S
C680 H672 0.929 . S
C680 C681 1.377 . S
C680 C682 1.384 1_554 S
C681 C680 1.377 . S
C681 C687 1.390 1_554 S
C682 H673 0.930 . S
C682 C680 1.384 1_556 S
C682 C683 1.372 . S
C683 C682 1.372 . S
C683 C684 1.400 . S
C683 C688 1.490 . S
C684 H674 0.930 . S
C684 C683 1.400 . S
C684 C687 1.386 . S
H685 C701 0.930 . S
H686 C702 0.931 . S
C687 H675 0.929 . S
C687 C681 1.390 1_556 S
C687 C684 1.386 . S
C688 C683 1.490 . S
C688 C690 1.395 . S
C688 C691 1.403 . S
H689 C695 0.930 . S
C690 H676 0.930 . S
C690 C688 1.395 . S
C690 C693 1.403 . S
C691 C688 1.403 . S
C691 C692 1.524 . S
C691 C695 1.400 . S
C692 H677 0.960 . S
C692 H678 0.960 1_556 S
C692 H679 0.960 . S
C692 C691 1.524 . S
C693 C690 1.403 . S
C693 C694 1.392 . S
C693 C697 1.495 . S
C694 C693 1.392 . S
C694 C695 1.385 . S
C694 C696 1.478 . S
C695 H689 0.930 . S
C695 C691 1.400 . S
C695 C694 1.385 . S
C696 C694 1.478 . S
C696 C698 1.381 . S
C696 C702 1.383 . S
C697 C693 1.495 . S
C697 H703 0.959 . S
C697 H704 0.961 . S
C697 H705 0.960 . S
C698 C696 1.381 . S
C698 C699 1.394 . S
C698 H706 0.930 . S
C699 C698 1.394 . S
C699 C700 1.383 . S
C699 H707 0.929 . S
C700 C699 1.383 . S
C700 C701 1.377 . S
C701 H685 0.930 . S
C701 C700 1.377 . S
C701 C702 1.379 . S
C702 H686 0.931 . S
C702 C696 1.383 . S
C702 C701 1.379 . S
H703 C697 0.959 . S
H704 C697 0.961 . S
H705 C697 0.960 . S
H706 C698 0.930 . S
H707 C699 0.929 . S
H708 C716 0.929 . S
H709 C718 0.930 . S
H710 C720 0.930 . S
H711 C723 0.929 . S
H712 C726 0.930 . S
H713 C728 0.960 . S
H714 C728 0.960 . S
H715 C728 0.960 . S
C716 H708 0.929 . S
C716 C717 1.377 . S
C716 C718 1.384 . S
C717 C716 1.377 . S
C717 C723 1.390 . S
C718 H709 0.930 . S
C718 C716 1.384 . S
C718 C719 1.372 . S
C719 C718 1.372 . S
C719 C720 1.400 . S
C719 C724 1.490 . S
C720 H710 0.930 . S
C720 C719 1.400 . S
C720 C723 1.386 . S
H721 C737 0.930 . S
H722 C738 0.931 . S
C723 H711 0.929 . S
C723 C717 1.390 . S
C723 C720 1.386 . S
C724 C719 1.490 . S
C724 C726 1.395 . S
C724 C727 1.403 . S
H725 C731 0.930 . S
C726 H712 0.930 . S
C726 C724 1.395 . S
C726 C729 1.403 . S
C727 C724 1.403 . S
C727 C728 1.524 . S
C727 C731 1.400 . S
C728 H713 0.960 . S
C728 H714 0.960 . S
C728 H715 0.960 . S
C728 C727 1.524 . S
C729 C726 1.403 . S
C729 C730 1.392 . S
C729 C733 1.495 . S
C730 C729 1.392 . S
C730 C731 1.385 . S
C730 C732 1.478 . S
C731 H725 0.930 . S
C731 C727 1.400 . S
C731 C730 1.385 . S
C732 C730 1.478 . S
C732 C734 1.381 . S
C732 C738 1.383 . S
C733 C729 1.495 . S
C733 H739 0.959 . S
C733 H740 0.961 . S
C733 H741 0.960 . S
C734 C732 1.381 . S
C734 C735 1.394 . S
C734 H742 0.930 . S
C735 C734 1.394 . S
C735 C736 1.383 . S
C735 H743 0.929 . S
C736 C735 1.383 . S
C736 C737 1.377 . S
C737 H721 0.930 . S
C737 C736 1.377 . S
C737 C738 1.379 . S
C738 H722 0.931 . S
C738 C732 1.383 . S
C738 C737 1.379 . S
H739 C733 0.959 . S
H740 C733 0.961 . S
H741 C733 0.960 . S
H742 C734 0.930 . S
H743 C735 0.929 . S
H744 C752 0.929 . S
H745 C754 0.930 . S
H746 C756 0.930 . S
H747 C759 0.929 . S
H748 C762 0.930 . S
H749 C764 0.960 . S
H750 C764 0.960 . S
H751 C764 0.960 . S
C752 H744 0.929 . S
C752 C753 1.376 1_655 S
C752 C754 1.384 . S
C753 C752 1.376 1_455 S
C753 C759 1.392 1_556 S
C754 H745 0.930 . S
C754 C752 1.384 . S
C754 C755 1.372 1_655 S
C755 C754 1.372 1_455 S
C755 C756 1.400 . S
C755 C760 1.490 . S
C756 H746 0.930 . S
C756 C755 1.400 . S
C756 C759 1.386 1_556 S
H757 C773 0.930 . S
H758 C774 0.931 . S
C759 H747 0.929 . S
C759 C753 1.392 1_554 S
C759 C756 1.386 1_554 S
C760 C755 1.490 . S
C760 C762 1.395 . S
C760 C763 1.403 1_455 S
H761 C767 0.930 . S
C762 H748 0.930 . S
C762 C760 1.395 . S
C762 C765 1.403 . S
C763 C760 1.403 1_655 S
C763 C764 1.524 . S
C763 C767 1.400 . S
C764 H749 0.960 . S
C764 H750 0.960 . S
C764 H751 0.960 . S
C764 C763 1.524 . S
C765 C762 1.403 . S
C765 C766 1.392 . S
C765 C769 1.495 . S
C766 C765 1.392 . S
C766 C767 1.385 1_455 S
C766 C768 1.478 . S
C767 H761 0.930 . S
C767 C763 1.400 . S
C767 C766 1.385 1_655 S
C768 C766 1.478 . S
C768 C770 1.394 . S
C768 C774 1.383 . S
C769 C765 1.495 . S
C769 H775 0.959 . S
C769 H776 0.961 . S
C769 H777 0.960 . S
C770 C768 1.394 . S
C770 C771 1.396 . S
C770 H778 0.916 1_455 S
C771 C770 1.396 . S
C771 C772 1.388 . S
C771 H779 0.925 1_455 S
C772 C771 1.388 . S
C772 C773 1.377 . S
C773 H757 0.930 . S
C773 C772 1.377 . S
C773 C774 1.379 . S
C774 H758 0.931 . S
C774 C768 1.383 . S
C774 C773 1.379 . S
H775 C769 0.959 . S
H776 C769 0.961 . S
H777 C769 0.960 . S
H778 C770 0.916 1_655 S
H779 C771 0.925 1_655 S
H780 C788 0.929 . S
H781 C790 0.930 . S
H782 C792 0.930 . S
H783 C795 0.929 1_554 S
H784 C798 0.930 . S
H785 C800 0.960 . S
H786 C800 0.960 . S
H787 C800 0.960 . S
C788 H780 0.929 . S
C788 C789 1.377 1_556 S
C788 C790 1.384 . S
C789 C788 1.377 1_554 S
C789 C795 1.390 1_554 S
C790 H781 0.930 . S
C790 C788 1.384 . S
C790 C791 1.372 . S
C791 C790 1.372 . S
C791 C792 1.400 . S
C791 C796 1.490 . S
C792 H782 0.930 . S
C792 C791 1.400 . S
C792 C795 1.386 . S
H793 C809 0.905 1_565 S
H794 C810 0.931 1_565 S
C795 H783 0.929 1_556 S
C795 C789 1.390 1_556 S
C795 C792 1.386 . S
C796 C791 1.490 . S
C796 C798 1.395 . S
C796 C799 1.403 . S
H797 C803 0.930 . S
C798 H784 0.930 . S
C798 C796 1.395 . S
C798 C801 1.403 . S
C799 C796 1.403 . S
C799 C800 1.524 . S
C799 C803 1.400 . S
C800 H785 0.960 . S
C800 H786 0.960 . S
C800 H787 0.960 . S
C800 C799 1.524 . S
C801 C798 1.403 . S
C801 C802 1.392 . S
C801 C805 1.495 . S
C802 C801 1.392 . S
C802 C803 1.385 . S
C802 C804 1.478 . S
C803 H797 0.930 . S
C803 C799 1.400 . S
C803 C802 1.385 . S
C804 C802 1.478 . S
C804 C806 1.381 . S
C804 C810 1.383 . S
C805 C801 1.495 . S
C805 H811 0.959 . S
C805 H812 0.961 . S
C805 H813 0.960 . S
C806 C804 1.381 . S
C806 C807 1.394 . S
C806 H814 0.930 . S
C807 C806 1.394 . S
C807 C808 1.383 . S
C807 H815 0.929 . S
C808 C807 1.383 . S
C808 C809 1.394 . S
C809 H793 0.905 1_545 S
C809 C808 1.394 . S
C809 C810 1.387 . S
C810 H794 0.931 1_545 S
C810 C804 1.383 . S
C810 C809 1.387 . S
H811 C805 0.959 . S
H812 C805 0.961 . S
H813 C805 0.960 . S
H814 C806 0.930 . S
H815 C807 0.929 . S
H816 C824 0.929 1_554 S
H817 C826 0.930 . S
H818 C828 0.930 . S
H819 C831 0.929 . S
H820 C834 0.930 . S
H821 C836 0.960 . S
H822 C836 0.960 . S
H823 C836 0.960 . S
C824 H816 0.929 1_556 S
C824 C825 1.377 . S
C824 C826 1.384 . S
C825 C824 1.377 . S
C825 C831 1.390 . S
C826 H817 0.930 . S
C826 C824 1.384 . S
C826 C827 1.372 . S
C827 C826 1.372 . S
C827 C828 1.400 . S
C827 C832 1.490 . S
C828 H818 0.930 . S
C828 C827 1.400 . S
C828 C831 1.386 . S
H829 C845 0.930 . S
H830 C846 0.931 . S
C831 H819 0.929 . S
C831 C825 1.390 . S
C831 C828 1.386 . S
C832 C827 1.490 . S
C832 C834 1.395 . S
C832 C835 1.403 . S
H833 C839 0.930 . S
C834 H820 0.930 . S
C834 C832 1.395 . S
C834 C837 1.403 . S
C835 C832 1.403 . S
C835 C836 1.524 . S
C835 C839 1.400 . S
C836 H821 0.960 . S
C836 H822 0.960 . S
C836 H823 0.960 . S
C836 C835 1.524 . S
C837 C834 1.403 . S
C837 C838 1.392 . S
C837 C841 1.495 . S
C838 C837 1.392 . S
C838 C839 1.385 . S
C838 C840 1.478 . S
C839 H833 0.930 . S
C839 C835 1.400 . S
C839 C838 1.385 . S
C840 C838 1.478 . S
C840 C842 1.381 . S
C840 C846 1.383 . S
C841 C837 1.495 . S
C841 H847 0.959 . S
C841 H848 0.961 . S
C841 H849 0.960 . S
C842 C840 1.381 . S
C842 C843 1.394 . S
C842 H850 0.930 . S
C843 C842 1.394 . S
C843 C844 1.383 . S
C843 H851 0.929 . S
C844 C843 1.383 . S
C844 C845 1.377 . S
C845 H829 0.930 . S
C845 C844 1.377 . S
C845 C846 1.379 . S
C846 H830 0.931 . S
C846 C840 1.383 . S
C846 C845 1.379 . S
H847 C841 0.959 . S
H848 C841 0.961 . S
H849 C841 0.960 . S
H850 C842 0.930 . S
H851 C843 0.929 . S
H852 C860 0.929 . S
H853 C862 0.930 . S
H854 C864 0.930 . S
H855 C867 0.929 . S
H856 C870 0.930 . S
H857 C872 0.960 . S
H858 C872 0.960 . S
H859 C872 0.960 . S
C860 H852 0.929 . S
C860 C861 1.377 . S
C860 C862 1.384 . S
C861 C860 1.377 . S
C861 C867 1.390 . S
C862 H853 0.930 . S
C862 C860 1.384 . S
C862 C863 1.372 . S
C863 C862 1.372 . S
C863 C864 1.400 . S
C863 C868 1.490 . S
C864 H854 0.930 . S
C864 C863 1.400 . S
C864 C867 1.386 . S
H865 C881 0.930 . S
H866 C882 0.931 . S
C867 H855 0.929 . S
C867 C861 1.390 . S
C867 C864 1.386 . S
C868 C863 1.490 . S
C868 C870 1.395 . S
C868 C871 1.403 . S
H869 C875 0.930 . S
C870 H856 0.930 . S
C870 C868 1.395 . S
C870 C873 1.403 . S
C871 C868 1.403 . S
C871 C872 1.524 . S
C871 C875 1.400 . S
C872 H857 0.960 . S
C872 H858 0.960 . S
C872 H859 0.960 . S
C872 C871 1.524 . S
C873 C870 1.403 . S
C873 C874 1.392 . S
C873 C877 1.495 . S
C874 C873 1.392 . S
C874 C875 1.385 . S
C874 C876 1.478 . S
C875 H869 0.930 . S
C875 C871 1.400 . S
C875 C874 1.385 . S
C876 C874 1.478 . S
C876 C878 1.381 . S
C876 C882 1.383 . S
C877 C873 1.495 . S
C877 H883 0.959 . S
C877 H884 0.961 . S
C877 H885 0.960 . S
C878 C876 1.381 . S
C878 C879 1.394 . S
C878 H886 0.930 . S
C879 C878 1.394 . S
C879 C880 1.383 . S
C879 H887 0.929 . S
C880 C879 1.383 . S
C880 C881 1.377 . S
C881 H865 0.930 . S
C881 C880 1.377 . S
C881 C882 1.379 . S
C882 H866 0.931 . S
C882 C876 1.383 . S
C882 C881 1.379 . S
H883 C877 0.959 . S
H884 C877 0.961 . S
H885 C877 0.960 . S
H886 C878 0.930 . S
H887 C879 0.929 . S
H888 C896 0.929 . S
H889 C898 0.930 . S
H890 C900 0.930 . S
H891 C903 0.929 . S
H892 C906 0.930 . S
H893 C908 0.960 . S
H894 C908 0.960 . S
H895 C908 0.960 . S
C896 H888 0.929 . S
C896 C897 1.363 1_455 S
C896 C898 1.384 . S
C897 C896 1.363 1_655 S
C897 C903 1.406 . S
C898 H889 0.930 . S
C898 C896 1.384 . S
C898 C899 1.327 1_455 S
C899 C898 1.327 1_655 S
C899 C900 1.441 . S
C899 C904 1.495 . S
C900 H890 0.930 . S
C900 C899 1.441 . S
C900 C903 1.386 . S
H901 C917 0.930 . S
H902 C918 0.931 . S
C903 H891 0.929 . S
C903 C897 1.406 . S
C903 C900 1.386 . S
C904 C899 1.495 . S
C904 C906 1.395 1_655 S
C904 C907 1.403 . S
H905 C911 0.930 . S
C906 H892 0.930 . S
C906 C904 1.395 1_455 S
C906 C909 1.403 . S
C907 C904 1.403 . S
C907 C908 1.524 . S
C907 C911 1.400 . S
C908 H893 0.960 . S
C908 H894 0.960 . S
C908 H895 0.960 . S
C908 C907 1.524 . S
C909 C906 1.403 . S
C909 C910 1.366 1_455 S
C909 C913 1.495 . S
C910 C909 1.366 1_655 S
C910 C911 1.409 . S
C910 C912 1.483 . S
C911 H905 0.930 . S
C911 C907 1.400 . S
C911 C910 1.409 . S
C912 C910 1.483 . S
C912 C914 1.381 1_655 S
C912 C918 1.383 . S
C913 C909 1.495 . S
C913 H919 0.959 . S
C913 H920 0.961 . S
C913 H921 0.960 . S
C914 C912 1.381 1_455 S
C914 C915 1.394 . S
C914 H922 0.930 . S
C915 C914 1.394 . S
C915 C916 1.383 1_455 S
C915 H923 0.929 . S
C916 C915 1.383 1_655 S
C916 C917 1.377 . S
C917 H901 0.930 . S
C917 C916 1.377 . S
C917 C918 1.379 . S
C918 H902 0.931 . S
C918 C912 1.383 . S
C918 C917 1.379 . S
H919 C913 0.959 . S
H920 C913 0.961 . S
H921 C913 0.960 . S
H922 C914 0.930 . S
H923 C915 0.929 . S
H924 C932 0.929 . S
H925 C934 0.930 . S
H926 C936 0.930 . S
H927 C939 0.929 . S
H928 C942 0.930 . S
H929 C944 0.960 . S
H930 C944 0.960 . S
H931 C944 0.960 . S
C932 H924 0.929 . S
C932 C933 1.377 . S
C932 C934 1.384 . S
C933 C932 1.377 . S
C933 C939 1.390 . S
C934 H925 0.930 . S
C934 C932 1.384 . S
C934 C935 1.372 . S
C935 C934 1.372 . S
C935 C936 1.400 . S
C935 C940 1.490 . S
C936 H926 0.930 . S
C936 C935 1.400 . S
C936 C939 1.386 . S
H937 C953 0.930 1_545 S
H938 C954 0.931 1_545 S
C939 H927 0.929 . S
C939 C933 1.390 . S
C939 C936 1.386 . S
C940 C935 1.490 . S
C940 C942 1.395 . S
C940 C943 1.403 . S
H941 C947 0.930 . S
C942 H928 0.930 . S
C942 C940 1.395 . S
C942 C945 1.403 . S
C943 C940 1.403 . S
C943 C944 1.524 . S
C943 C947 1.400 . S
C944 H929 0.960 . S
C944 H930 0.960 . S
C944 H931 0.960 . S
C944 C943 1.524 . S
C945 C942 1.403 . S
C945 C946 1.392 . S
C945 C949 1.495 . S
C946 C945 1.392 . S
C946 C947 1.385 . S
C946 C948 1.478 . S
C947 H941 0.930 . S
C947 C943 1.400 . S
C947 C946 1.385 . S
C948 C946 1.478 . S
C948 C950 1.381 . S
C948 C954 1.383 . S
C949 C945 1.495 . S
C949 H955 0.959 . S
C949 H956 0.961 1_565 S
C949 H957 0.960 . S
C950 C948 1.381 . S
C950 C951 1.394 . S
C950 H958 0.930 . S
C951 C950 1.394 . S
C951 C952 1.383 . S
C951 H959 0.929 . S
C952 C951 1.383 . S
C952 C953 1.377 . S
C953 H937 0.930 1_565 S
C953 C952 1.377 . S
C953 C954 1.379 . S
C954 H938 0.931 1_565 S
C954 C948 1.383 . S
C954 C953 1.379 . S
H955 C949 0.959 . S
H956 C949 0.961 1_545 S
H957 C949 0.960 . S
H958 C950 0.930 . S
H959 C951 0.929 . S
H960 C968 0.929 . S
H961 C970 0.930 . S
H962 C972 0.930 . S
H963 C975 0.929 . S
H964 C978 0.930 . S
H965 C980 0.960 . S
H966 C980 0.960 . S
H967 C980 0.960 . S
C968 H960 0.929 . S
C968 C969 1.377 . S
C968 C970 1.384 . S
C969 C968 1.377 . S
C969 C975 1.390 . S
C970 H961 0.930 . S
C970 C968 1.384 . S
C970 C971 1.372 . S
C971 C970 1.372 . S
C971 C972 1.400 . S
C971 C976 1.490 . S
C972 H962 0.930 . S
C972 C971 1.400 . S
C972 C975 1.386 . S
H973 C989 0.930 . S
H974 C990 0.931 . S
C975 H963 0.929 . S
C975 C969 1.390 . S
C975 C972 1.386 . S
C976 C971 1.490 . S
C976 C978 1.395 . S
C976 C979 1.403 . S
H977 C983 0.930 . S
C978 H964 0.930 . S
C978 C976 1.395 . S
C978 C981 1.403 . S
C979 C976 1.403 . S
C979 C980 1.524 . S
C979 C983 1.400 . S
C980 H965 0.960 . S
C980 H966 0.960 . S
C980 H967 0.960 . S
C980 C979 1.524 . S
C981 C978 1.403 . S
C981 C982 1.392 . S
C981 C985 1.495 . S
C982 C981 1.392 . S
C982 C983 1.385 . S
C982 C984 1.478 . S
C983 H977 0.930 . S
C983 C979 1.400 . S
C983 C982 1.385 . S
C984 C982 1.478 . S
C984 C986 1.381 . S
C984 C990 1.383 . S
C985 C981 1.495 . S
C985 H991 0.959 . S
C985 H992 0.961 . S
C985 H993 0.960 . S
C986 C984 1.381 . S
C986 C987 1.394 . S
C986 H994 0.930 . S
C987 C986 1.394 . S
C987 C988 1.383 . S
C987 H995 0.929 . S
C988 C987 1.383 . S
C988 C989 1.377 . S
C989 H973 0.930 . S
C989 C988 1.377 . S
C989 C990 1.379 . S
C990 H974 0.931 . S
C990 C984 1.383 . S
C990 C989 1.379 . S
H991 C985 0.959 . S
H992 C985 0.961 . S
H993 C985 0.960 . S
H994 C986 0.930 . S
H995 C987 0.929 . S
H996 C1004 0.929 . S
H997 C1006 0.930 . S
H998 C1008 0.930 . S
H999 C1011 0.929 . S
H1000 C1014 0.930 . S
H1001 C1016 0.960 . S
H1002 C1016 0.960 . S
H1003 C1016 0.960 . S
C1004 H996 0.929 . S
C1004 C1005 1.377 . S
C1004 C1006 1.384 . S
C1005 C1004 1.377 . S
C1005 C1011 1.390 . S
C1006 H997 0.930 . S
C1006 C1004 1.384 . S
C1006 C1007 1.372 . S
C1007 C1006 1.372 . S
C1007 C1008 1.400 . S
C1007 C1012 1.490 . S
C1008 H998 0.930 . S
C1008 C1007 1.400 . S
C1008 C1011 1.386 . S
H1009 C1025 0.930 . S
H1010 C1026 0.931 . S
C1011 H999 0.929 . S
C1011 C1005 1.390 . S
C1011 C1008 1.386 . S
C1012 C1007 1.490 . S
C1012 C1014 1.395 . S
C1012 C1015 1.403 . S
H1013 C1019 0.930 . S
C1014 H1000 0.930 . S
C1014 C1012 1.395 . S
C1014 C1017 1.403 . S
C1015 C1012 1.403 . S
C1015 C1016 1.524 . S
C1015 C1019 1.400 . S
C1016 H1001 0.960 . S
C1016 H1002 0.960 . S
C1016 H1003 0.960 . S
C1016 C1015 1.524 . S
C1017 C1014 1.403 . S
C1017 C1018 1.392 . S
C1017 C1021 1.495 . S
C1018 C1017 1.392 . S
C1018 C1019 1.385 . S
C1018 C1020 1.478 . S
C1019 H1013 0.930 . S
C1019 C1015 1.400 . S
C1019 C1018 1.385 . S
C1020 C1018 1.478 . S
C1020 C1022 1.381 . S
C1020 C1026 1.383 . S
C1021 C1017 1.495 . S
C1021 H1027 0.959 . S
C1021 H1028 0.961 . S
C1021 H1029 0.960 . S
C1022 C1020 1.381 . S
C1022 C1023 1.394 . S
C1022 H1030 0.930 . S
C1023 C1022 1.394 . S
C1023 C1024 1.383 . S
C1023 H1031 0.929 . S
C1024 C1023 1.383 . S
C1024 C1025 1.377 . S
C1025 H1009 0.930 . S
C1025 C1024 1.377 . S
C1025 C1026 1.379 . S
C1026 H1010 0.931 . S
C1026 C1020 1.383 . S
C1026 C1025 1.379 . S
H1027 C1021 0.959 . S
H1028 C1021 0.961 . S
H1029 C1021 0.960 . S
H1030 C1022 0.930 . S
H1031 C1023 0.929 . S
C177 C76 1.680 . S
C196 C96 1.689 . S
C232 C126 1.803 . S
C213 C87 1.778 . S
C268 C136 1.447 . S
C249 C54 1.391 . S
C304 C156 1.285 1_455 S
C285 C65 1.256 . S
C340 C97 1.695 . S
C321 C32 1.688 . S
C357 C43 1.784 . S
C376 C127 1.831 . S
C393 C10 1.401 1_556 S
C412 C137 1.430 . S
C429 C21 1.256 1_455 S
C448 C157 1.303 . S
C484 C89 0.696 . S
C465 C60 0.673 . S
C520 C110 0.225 . S
C501 C71 0.420 . S
C556 C129 0.862 . S
C537 C82 0.856 . S
C573 C49 0.558 . S
C592 C149 0.581 . S
C609 C16 0.677 . S
C628 C90 0.705 . S
C664 C109 0.350 1_565 S
C645 C27 0.463 . S
C700 C130 0.894 . S
C681 C38 0.854 . S
C717 C5 0.575 1_556 S
C736 C150 0.514 . S
C753 C59 1.485 1_556 S
C772 C107 1.559 . S
C789 C70 1.319 . S
C808 C117 1.366 . S
C844 C147 1.762 . S
C825 C81 1.687 . S
C880 C167 1.792 . S
C861 C48 1.709 1_556 S
C897 C15 1.486 1_655 S
C916 C106 1.531 . S
C952 C116 1.388 . S
C933 C26 1.308 . S
C988 C146 1.778 . S
C969 C37 1.682 . S
C1005 C4 1.703 . S
C1024 C166 1.803 . S
