# Generated by pormake.
# Topology anh, (6,3)-cn, num edge types: 1
# Building blocks:
#     Node 0, Type 0, BuildingBlock: MIFKUJ_clean_sbu_0, # of connection points: 6
#     Node 1, Type 0, BuildingBlock: MIFKUJ_clean_sbu_0, # of connection points: 6
#     Node 2, Type 0, BuildingBlock: MIFKUJ_clean_sbu_0, # of connection points: 6
#     Node 3, Type 1, BuildingBlock: INOVEN_clean_linker_0, # of connection points: 3
#     Node 4, Type 1, BuildingBlock: INOVEN_clean_linker_0, # of connection points: 3
#     Node 5, Type 1, BuildingBlock: INOVEN_clean_linker_0, # of connection points: 3
#     Node 6, Type 1, BuildingBlock: INOVEN_clean_linker_0, # of connection points: 3
#     Node 7, Type 1, BuildingBlock: INOVEN_clean_linker_0, # of connection points: 3
#     Node 8, Type 1, BuildingBlock: INOVEN_clean_linker_0, # of connection points: 3
#     Edge 9, Type (0, 1), BuildingBlock: FUNLAD_clean_linker_0, # of connection points: 2
#     Edge 10, Type (0, 1), BuildingBlock: FUNLAD_clean_linker_0, # of connection points: 2
#     Edge 11, Type (0, 1), BuildingBlock: FUNLAD_clean_linker_0, # of connection points: 2
#     Edge 12, Type (0, 1), BuildingBlock: FUNLAD_clean_linker_0, # of connection points: 2
#     Edge 13, Type (0, 1), BuildingBlock: FUNLAD_clean_linker_0, # of connection points: 2
#     Edge 14, Type (0, 1), BuildingBlock: FUNLAD_clean_linker_0, # of connection points: 2
#     Edge 15, Type (0, 1), BuildingBlock: FUNLAD_clean_linker_0, # of connection points: 2
#     Edge 16, Type (0, 1), BuildingBlock: FUNLAD_clean_linker_0, # of connection points: 2
#     Edge 17, Type (0, 1), BuildingBlock: FUNLAD_clean_linker_0, # of connection points: 2
#     Edge 18, Type (0, 1), BuildingBlock: FUNLAD_clean_linker_0, # of connection points: 2
#     Edge 19, Type (0, 1), BuildingBlock: FUNLAD_clean_linker_0, # of connection points: 2
#     Edge 20, Type (0, 1), BuildingBlock: FUNLAD_clean_linker_0, # of connection points: 2
#     Edge 21, Type (0, 1), BuildingBlock: FUNLAD_clean_linker_0, # of connection points: 2
#     Edge 22, Type (0, 1), BuildingBlock: FUNLAD_clean_linker_0, # of connection points: 2
#     Edge 23, Type (0, 1), BuildingBlock: FUNLAD_clean_linker_0, # of connection points: 2
#     Edge 24, Type (0, 1), BuildingBlock: FUNLAD_clean_linker_0, # of connection points: 2
#     Edge 25, Type (0, 1), BuildingBlock: FUNLAD_clean_linker_0, # of connection points: 2
#     Edge 26, Type (0, 1), BuildingBlock: FUNLAD_clean_linker_0, # of connection points: 2
# Relax obj value: 0.067
# Max RMSD: 0.134
# Mean RMSD: 0.092
data_MOF--net-anh--node1-MIFKUJ_clean_sbu_0--node2-INOVEN_clean_linker_0--edge1-FUNLAD_clean_linker_0
_symmetry_space_group_name_H-M    P1
_symmetry_Int_Tables_number       1
_symmetry_cell_setting            triclinic
loop_
_symmetry_equiv_pos_as_xyz
'x, y, z'
_cell_length_a     36.468801
_cell_length_b     36.322192
_cell_length_c     54.923225
_cell_angle_alpha  96.472379
_cell_angle_beta   93.182157
_cell_angle_gamma 119.78665
loop_
_atom_site_label
_atom_site_type_symbol
_atom_site_fract_x
_atom_site_fract_y
_atom_site_fract_z
_atom_type_partial_charge
Zn0 Zn 0.07286 0.60908 0.16537 0.0
Zn1 Zn 0.95185 0.52372 0.1617 0.0
C2 C 0.15025 0.61439 0.18636 0.0
O3 O 0.15661 0.65106 0.19809 0.0
C4 C 0.90145 0.56302 0.15143 0.0
O5 O 0.90749 0.55448 0.12861 0.0
O6 O 0.10742 0.67143 0.16183 0.0
O7 O 0.04021 0.5777 0.13196 0.0
O8 O 0.97152 0.52891 0.12833 0.0
C9 C 0.13149 0.68041 0.1449 0.0
O10 O 0.13151 0.64892 0.13055 0.0
O11 O 0.11574 0.59001 0.17192 0.0
C12 C 0.89268 0.44897 0.1792 0.0
O13 O 0.90518 0.47742 0.19943 0.0
O14 O 0.90821 0.46132 0.15954 0.0
O15 O 0.99385 0.53515 0.19105 0.0
O16 O 0.04178 0.60439 0.1952 0.0
O17 O 0.91929 0.55487 0.16889 0.0
C18 C 0.0054 0.55002 0.1188 0.0
C19 C 0.02296 0.5698 0.20417 0.0
Zn20 Zn 0.52874 0.08038 0.49449 0.0
Zn21 Zn 0.49248 0.9539 0.49607 0.0
C22 C 0.61666 0.13648 0.5084 0.0
O23 O 0.60075 0.14558 0.5275 0.0
C24 C 0.41796 0.87265 0.48106 0.0
O25 O 0.44355 0.86933 0.46619 0.0
O26 O 0.51192 0.12211 0.48465 0.0
O27 O 0.49269 0.02093 0.47612 0.0
O28 O 0.50286 0.96923 0.46174 0.0
C29 C 0.52919 0.14127 0.46689 0.0
O30 O 0.55242 0.12929 0.45461 0.0
O31 O 0.59141 0.10651 0.49097 0.0
C32 C 0.51662 0.90468 0.52212 0.0
O33 O 0.4836 0.89934 0.53308 0.0
O34 O 0.52798 0.92846 0.50552 0.0
O35 O 0.50634 0.00602 0.52172 0.0
O36 O 0.52328 0.0738 0.53019 0.0
O37 O 0.43128 0.90786 0.49554 0.0
C38 C 0.50335 0.00356 0.45884 0.0
C39 C 0.51502 0.03872 0.53751 0.0
Zn40 Zn 0.61346 0.5396 0.84383 0.0
Zn41 Zn 0.52549 0.55659 0.82991 0.0
C42 C 0.59066 0.45549 0.85187 0.0
O43 O 0.6064 0.47744 0.87429 0.0
C44 C 0.55166 0.63359 0.80878 0.0
O45 O 0.53157 0.60485 0.78877 0.0
O46 O 0.67552 0.55959 0.85104 0.0
O47 O 0.61017 0.56741 0.81466 0.0
O48 O 0.54151 0.52669 0.803 0.0
C49 C 0.69162 0.55234 0.83244 0.0
O50 O 0.66753 0.53485 0.81098 0.0
O51 O 0.58737 0.47484 0.83463 0.0
C52 C 0.44825 0.55919 0.82569 0.0
O53 O 0.47304 0.59729 0.83905 0.0
O54 O 0.4634 0.535 0.82003 0.0
O55 O 0.53141 0.54862 0.86538 0.0
O56 O 0.5928 0.55151 0.87523 0.0
O57 O 0.55566 0.62086 0.82889 0.0
C58 C 0.57922 0.54611 0.79758 0.0
C59 C 0.55918 0.55043 0.8813 0.0
H60 H 0.48012 0.03798 0.16886 0.0
H61 H 0.43576 0.00088 0.23792 0.0
H62 H 0.56989 0.07958 0.23419 0.0
N63 N 0.56182 0.08705 0.18642 0.0
N64 N 0.59989 0.10137 0.19443 0.0
C65 C 0.48659 0.0384 0.18842 0.0
C66 C 0.45296 0.01573 0.20197 0.0
C67 C 0.52867 0.06177 0.20003 0.0
C68 C 0.53723 0.06212 0.2254 0.0
C69 C 0.50398 0.04064 0.23946 0.0
C70 C 0.46188 0.01775 0.22747 0.0
H71 H 0.58716 0.53081 0.50165 0.0
H72 H 0.59007 0.46427 0.56111 0.0
H73 H 0.6079 0.59108 0.57706 0.0
N74 N 0.60159 0.6022 0.52982 0.0
N75 N 0.61486 0.63653 0.54429 0.0
C76 C 0.59131 0.53017 0.52126 0.0
C77 C 0.58841 0.49372 0.52947 0.0
C78 C 0.59972 0.56593 0.53837 0.0
C79 C 0.6037 0.56439 0.56383 0.0
C80 C 0.59969 0.52766 0.57227 0.0
C81 C 0.59299 0.4928 0.5549 0.0
H82 H 0.02942 0.50898 0.82616 0.0
H83 H 0.97686 0.50901 0.89434 0.0
H84 H 0.08539 0.49248 0.8921 0.0
N85 N 0.0931 0.4981 0.84555 0.0
N86 N 0.10068 0.50811 0.82466 0.0
C87 C 0.02986 0.50652 0.84563 0.0
C88 C 0.99869 0.50847 0.8587 0.0
C89 C 0.061 0.50043 0.85778 0.0
C90 C 0.06117 0.49702 0.88291 0.0
C91 C 0.03085 0.49997 0.89624 0.0
C92 C 0.9997 0.50552 0.88397 0.0
H93 H 0.0378 0.52844 0.49566 0.0
H94 H 0.08745 0.60063 0.43661 0.0
H95 H 0.97068 0.47937 0.4217 0.0
N96 N 0.96746 0.46297 0.46833 0.0
N97 N 0.93492 0.43615 0.4539 0.0
C98 C 0.03503 0.53181 0.4764 0.0
C99 C 0.06652 0.56825 0.4679 0.0
C100 C 0.99978 0.49978 0.45986 0.0
C101 C 0.99701 0.50439 0.43477 0.0
C102 C 0.02855 0.54043 0.42618 0.0
C103 C 0.06299 0.57235 0.44296 0.0
H104 H 0.58579 0.08186 0.83723 0.0
H105 H 0.5764 0.13366 0.77187 0.0
H106 H 0.57551 0.01462 0.76491 0.0
N107 N 0.58421 0.01195 0.81333 0.0
N108 N 0.59713 0.99003 0.80159 0.0
C109 C 0.58272 0.07953 0.81731 0.0
C110 C 0.58213 0.11255 0.80628 0.0
C111 C 0.58127 0.0444 0.80245 0.0
C112 C 0.57719 0.04171 0.77654 0.0
C113 C 0.57554 0.0738 0.76546 0.0
C114 C 0.57822 0.10904 0.78044 0.0
H115 H 0.5485 0.58011 0.17871 0.0
H116 H 0.61511 0.59137 0.11517 0.0
H117 H 0.48846 0.5708 0.10651 0.0
N118 N 0.47702 0.56944 0.15447 0.0
N119 N 0.44298 0.55658 0.14084 0.0
C120 C 0.54941 0.58041 0.15904 0.0
C121 C 0.58624 0.58699 0.14864 0.0
C122 C 0.51377 0.57443 0.14392 0.0
C123 C 0.51536 0.5747 0.11831 0.0
C124 C 0.55191 0.58125 0.10786 0.0
C125 C 0.58708 0.58739 0.12319 0.0
C126 C 0.17797 0.56423 0.17609 0.0
C127 C 0.18467 0.60382 0.18797 0.0
C128 C 0.21156 0.55591 0.17579 0.0
C129 C 0.25294 0.58735 0.1871 0.0
C130 C 0.259 0.62604 0.19997 0.0
C131 C 0.22536 0.63423 0.2004 0.0
C132 C 0.29081 0.58195 0.18522 0.0
C133 C 0.29219 0.55414 0.16731 0.0
C134 C 0.33149 0.55297 0.16242 0.0
C135 C 0.33196 0.53375 0.13887 0.0
C136 C 0.36862 0.53422 0.13244 0.0
C137 C 0.4056 0.55332 0.1494 0.0
H138 H 0.36908 0.58514 0.19845 0.0
C139 C 0.40518 0.57119 0.1734 0.0
C140 C 0.36833 0.57099 0.17989 0.0
H141 H 0.43342 0.58617 0.18687 0.0
H142 H 0.14685 0.53981 0.16667 0.0
H143 H 0.20477 0.52491 0.16652 0.0
H144 H 0.29025 0.6507 0.20911 0.0
H145 H 0.23166 0.66498 0.2099 0.0
H146 H 0.3196 0.60458 0.19759 0.0
H147 H 0.26421 0.53372 0.15389 0.0
H148 H 0.30418 0.51937 0.12505 0.0
H149 H 0.3685 0.52042 0.11387 0.0
C150 C 0.67748 0.16392 0.48313 0.0
C151 C 0.66209 0.16504 0.50592 0.0
C152 C 0.71864 0.19542 0.48001 0.0
C153 C 0.74511 0.22876 0.49962 0.0
C154 C 0.73077 0.22788 0.52283 0.0
C155 C 0.68964 0.19654 0.52593 0.0
C156 C 0.78668 0.26605 0.49626 0.0
C157 C 0.79369 0.28121 0.47466 0.0
C158 C 0.832 0.32157 0.47062 0.0
C159 C 0.83172 0.33471 0.44756 0.0
C160 C 0.86588 0.37253 0.44255 0.0
C161 C 0.9012 0.3983 0.46038 0.0
H162 H 0.86991 0.33862 0.50658 0.0
C163 C 0.90222 0.38562 0.48354 0.0
C164 C 0.86788 0.34742 0.48863 0.0
H165 H 0.92941 0.40498 0.49757 0.0
H166 H 0.65721 0.13978 0.46744 0.0
H167 H 0.72922 0.19398 0.46209 0.0
H168 H 0.75069 0.25272 0.53834 0.0
H169 H 0.67896 0.19796 0.54384 0.0
H170 H 0.80986 0.28347 0.51256 0.0
H171 H 0.7686 0.26445 0.45911 0.0
H172 H 0.80478 0.31573 0.43329 0.0
H173 H 0.86479 0.38191 0.42461 0.0
C174 C 0.57549 0.7084 0.83042 0.0
C175 C 0.56443 0.67922 0.80838 0.0
C176 C 0.58388 0.7504 0.82979 0.0
C177 C 0.58148 0.76408 0.80705 0.0
C178 C 0.57168 0.73519 0.78512 0.0
C179 C 0.56303 0.69331 0.78575 0.0
C180 C 0.58969 0.8081 0.80501 0.0
C181 C 0.58754 0.83508 0.8232 0.0
C182 C 0.59345 0.87771 0.81935 0.0
C183 C 0.57324 0.89571 0.83329 0.0
C184 C 0.57552 0.93396 0.82849 0.0
C185 C 0.59836 0.95484 0.80971 0.0
H186 H 0.63588 0.88883 0.79119 0.0
C187 C 0.62015 0.93808 0.79673 0.0
C188 C 0.61822 0.90032 0.8016 0.0
H189 H 0.6381 0.95397 0.78231 0.0
H190 H 0.57686 0.69857 0.84818 0.0
H191 H 0.59239 0.77192 0.8471 0.0
H192 H 0.57 0.74481 0.76731 0.0
H193 H 0.55478 0.67181 0.76842 0.0
H194 H 0.59516 0.81745 0.78688 0.0
H195 H 0.57825 0.82468 0.84075 0.0
H196 H 0.55441 0.87937 0.84731 0.0
H197 H 0.55825 0.94619 0.83874 0.0
C198 C 0.853 0.57368 0.17864 0.0
C199 C 0.87065 0.57756 0.15625 0.0
C200 C 0.82076 0.58349 0.18201 0.0
C201 C 0.80581 0.59772 0.16309 0.0
C202 C 0.8248 0.60326 0.14121 0.0
C203 C 0.85651 0.59297 0.13773 0.0
C204 C 0.77044 0.60688 0.16506 0.0
C205 C 0.73896 0.58832 0.17922 0.0
C206 C 0.70022 0.5924 0.17683 0.0
C207 C 0.66045 0.5573 0.17951 0.0
C208 C 0.62268 0.55707 0.17268 0.0
C209 C 0.62427 0.59214 0.1633 0.0
H210 H 0.73178 0.65754 0.16858 0.0
C211 C 0.66408 0.62888 0.16299 0.0
C212 C 0.7017 0.62918 0.16986 0.0
H213 H 0.66603 0.65635 0.15586 0.0
H214 H 0.86327 0.56195 0.19331 0.0
H215 H 0.80769 0.57986 0.19938 0.0
H216 H 0.81425 0.61452 0.12639 0.0
H217 H 0.86955 0.59658 0.12033 0.0
H218 H 0.76799 0.62642 0.15219 0.0
H219 H 0.73884 0.56544 0.19039 0.0
H220 H 0.65839 0.52878 0.18517 0.0
H221 H 0.59233 0.52824 0.17286 0.0
C222 C 0.3516 0.83543 0.5013 0.0
C223 C 0.37603 0.83468 0.48253 0.0
C224 C 0.3133 0.79849 0.50354 0.0
C225 C 0.29846 0.76008 0.48687 0.0
C226 C 0.32284 0.75968 0.46803 0.0
C227 C 0.36109 0.79645 0.46585 0.0
C228 C 0.2582 0.71955 0.48826 0.0
C229 C 0.22718 0.71674 0.50159 0.0
C230 C 0.1852 0.67643 0.4989 0.0
C231 C 0.14811 0.67911 0.49894 0.0
C232 C 0.10813 0.64239 0.4913 0.0
C233 C 0.1047 0.60239 0.48408 0.0
H234 H 0.20922 0.63233 0.49457 0.0
C235 C 0.14127 0.59891 0.48649 0.0
C236 C 0.18129 0.63565 0.49395 0.0
H237 H 0.13927 0.56837 0.48069 0.0
H238 H 0.36247 0.86431 0.5146 0.0
H239 H 0.29612 0.80026 0.51862 0.0
H240 H 0.31233 0.73067 0.45488 0.0
H241 H 0.37912 0.79471 0.45119 0.0
H242 H 0.25263 0.69095 0.47617 0.0
H243 H 0.23018 0.74536 0.5122 0.0
H244 H 0.15023 0.71006 0.50294 0.0
H245 H 0.08027 0.64575 0.48917 0.0
C246 C 0.58527 0.38979 0.86597 0.0
C247 C 0.58279 0.41094 0.84652 0.0
C248 C 0.58329 0.35009 0.86116 0.0
C249 C 0.57877 0.33057 0.8367 0.0
C250 C 0.57486 0.35107 0.81729 0.0
C251 C 0.5766 0.39064 0.8221 0.0
C252 C 0.58171 0.29111 0.8306 0.0
C253 C 0.57581 0.26269 0.84605 0.0
C254 C 0.58132 0.2251 0.83879 0.0
C255 C 0.55435 0.1853 0.8461 0.0
C256 C 0.55638 0.14867 0.83704 0.0
C257 C 0.58582 0.15158 0.8208 0.0
H258 H 0.63541 0.25894 0.81902 0.0
C259 C 0.6151 0.19214 0.81528 0.0
C260 C 0.61291 0.22843 0.82415 0.0
H261 H 0.63855 0.1954 0.8031 0.0
H262 H 0.59011 0.40454 0.88504 0.0
H263 H 0.58717 0.33592 0.87668 0.0
H264 H 0.57149 0.33693 0.79825 0.0
H265 H 0.57475 0.40604 0.80667 0.0
H266 H 0.58874 0.28497 0.8121 0.0
H267 H 0.56475 0.26556 0.86371 0.0
H268 H 0.53024 0.18207 0.85776 0.0
H269 H 0.5334 0.11778 0.84153 0.0
C270 C 0.56533 0.87675 0.51186 0.0
C271 C 0.53766 0.88024 0.52756 0.0
C272 C 0.58231 0.85059 0.51596 0.0
C273 C 0.572 0.82763 0.53592 0.0
C274 C 0.54581 0.8326 0.55213 0.0
C275 C 0.52853 0.85835 0.54791 0.0
C276 C 0.58758 0.79801 0.54042 0.0
C277 C 0.5958 0.77601 0.52225 0.0
C278 C 0.60543 0.7421 0.52699 0.0
C279 C 0.59138 0.7059 0.50873 0.0
C280 C 0.59566 0.67122 0.51379 0.0
C281 C 0.61454 0.67266 0.53717 0.0
H282 H 0.6392 0.77237 0.56398 0.0
C283 C 0.63081 0.70975 0.55481 0.0
C284 C 0.62657 0.74432 0.5498 0.0
H285 H 0.64574 0.71135 0.57282 0.0
H286 H 0.57314 0.89345 0.49609 0.0
H287 H 0.60341 0.84846 0.50351 0.0
H288 H 0.53775 0.81559 0.56778 0.0
H289 H 0.50758 0.86066 0.56044 0.0
H290 H 0.58817 0.79097 0.5591 0.0
H291 H 0.59093 0.77954 0.50316 0.0
H292 H 0.57542 0.70365 0.49091 0.0
H293 H 0.58295 0.64291 0.49979 0.0
C294 C 0.75225 0.55075 0.81439 0.0
C295 C 0.73475 0.55818 0.83526 0.0
C296 C 0.79029 0.55027 0.81708 0.0
C297 C 0.8116 0.5573 0.84076 0.0
C298 C 0.79516 0.56682 0.86152 0.0
C299 C 0.75722 0.56749 0.85883 0.0
C300 C 0.84765 0.54972 0.84476 0.0
C301 C 0.87206 0.549 0.8274 0.0
C302 C 0.9033 0.53518 0.83227 0.0
C303 C 0.94436 0.55778 0.82541 0.0
C304 C 0.97529 0.54767 0.83274 0.0
C305 C 0.96514 0.5145 0.84674 0.0
H306 H 0.86052 0.48094 0.84925 0.0
C307 C 0.92304 0.48971 0.85169 0.0
C308 C 0.89246 0.49996 0.84457 0.0
H309 H 0.91415 0.46331 0.86194 0.0
H310 H 0.73572 0.54362 0.79596 0.0
H311 H 0.80143 0.54207 0.80064 0.0
H312 H 0.8109 0.57222 0.87998 0.0
H313 H 0.7446 0.57338 0.87526 0.0
H314 H 0.85367 0.54315 0.86295 0.0
H315 H 0.87003 0.55943 0.80988 0.0
H316 H 0.95309 0.5846 0.81555 0.0
H317 H 0.00755 0.56718 0.82866 0.0
C318 C 0.16287 0.75959 0.15834 0.0
C319 C 0.16224 0.72561 0.14296 0.0
C320 C 0.19498 0.80206 0.1584 0.0
C321 C 0.22749 0.81134 0.14327 0.0
C322 C 0.2251 0.77755 0.12675 0.0
C323 C 0.19291 0.73515 0.12661 0.0
C324 C 0.26603 0.85479 0.14536 0.0
C325 C 0.2804 0.88429 0.16606 0.0
C326 C 0.32402 0.92271 0.17141 0.0
C327 C 0.33257 0.95438 0.19163 0.0
C328 C 0.37438 0.98651 0.20059 0.0
C329 C 0.40865 0.98758 0.18956 0.0
H330 H 0.3535 0.90161 0.14395 0.0
C331 C 0.40009 0.95786 0.16825 0.0
C332 C 0.35823 0.9256 0.15929 0.0
H333 H 0.42592 0.9577 0.15949 0.0
H334 H 0.13917 0.75335 0.17081 0.0
H335 H 0.19441 0.8272 0.17066 0.0
H336 H 0.24935 0.78369 0.11467 0.0
H337 H 0.19307 0.70976 0.11429 0.0
H338 H 0.28529 0.86058 0.13032 0.0
H339 H 0.26102 0.87861 0.18103 0.0
H340 H 0.30696 0.95309 0.20131 0.0
H341 H 0.38003 0.00942 0.21684 0.0
C342 C 0.50651 0.19544 0.47671 0.0
C343 C 0.53045 0.18162 0.46339 0.0
C344 C 0.51349 0.23693 0.4768 0.0
C345 C 0.54468 0.26543 0.46359 0.0
C346 C 0.56689 0.25078 0.44924 0.0
C347 C 0.55957 0.20916 0.44892 0.0
C348 C 0.55914 0.31194 0.46745 0.0
C349 C 0.5342 0.32767 0.47445 0.0
C350 C 0.55171 0.37352 0.48489 0.0
C351 C 0.52556 0.39157 0.48343 0.0
C352 C 0.53885 0.43233 0.4966 0.0
C353 C 0.57809 0.45512 0.51185 0.0
H354 H 0.61265 0.38432 0.50127 0.0
C355 C 0.60498 0.43792 0.5126 0.0
C356 C 0.59207 0.39759 0.49915 0.0
H357 H 0.63523 0.45493 0.52444 0.0
H358 H 0.48387 0.17498 0.48805 0.0
H359 H 0.49639 0.24734 0.48854 0.0
H360 H 0.59125 0.27218 0.43904 0.0
H361 H 0.57857 0.19955 0.43843 0.0
H362 H 0.59235 0.33406 0.46581 0.0
H363 H 0.50015 0.30604 0.47383 0.0
H364 H 0.49418 0.37347 0.4728 0.0
H365 H 0.51744 0.44491 0.49604 0.0
C366 C 0.38887 0.57426 0.82001 0.0
C367 C 0.40344 0.54499 0.81713 0.0
C368 C 0.34622 0.56078 0.81285 0.0
C369 C 0.31715 0.51762 0.80261 0.0
C370 C 0.3319 0.48854 0.79935 0.0
C371 C 0.37471 0.50213 0.80633 0.0
C372 C 0.27071 0.5011 0.7984 0.0
C373 C 0.25425 0.52626 0.7946 0.0
C374 C 0.21001 0.5143 0.79853 0.0
C375 C 0.18836 0.48578 0.81491 0.0
C376 C 0.15092 0.48178 0.82248 0.0
C377 C 0.13426 0.50618 0.81389 0.0
H378 H 0.20801 0.55905 0.77632 0.0
C379 C 0.15394 0.53224 0.79625 0.0
C380 C 0.19185 0.53667 0.78881 0.0
H381 H 0.14144 0.55119 0.78944 0.0
H382 H 0.41024 0.60753 0.82822 0.0
H383 H 0.33593 0.58393 0.81643 0.0
H384 H 0.31005 0.45501 0.79185 0.0
H385 H 0.38502 0.47881 0.80385 0.0
H386 H 0.24964 0.46767 0.80009 0.0
H387 H 0.27472 0.55826 0.79038 0.0
H388 H 0.20153 0.46863 0.82333 0.0
H389 H 0.13608 0.46106 0.83596 0.0
C390 C 0.84421 0.37323 0.15759 0.0
C391 C 0.86162 0.40324 0.17956 0.0
C392 C 0.81463 0.33005 0.15814 0.0
C393 C 0.80205 0.31616 0.18074 0.0
C394 C 0.82015 0.34607 0.20266 0.0
C395 C 0.84936 0.38915 0.20209 0.0
C396 C 0.77036 0.27103 0.18251 0.0
C397 C 0.73934 0.24351 0.16417 0.0
C398 C 0.70405 0.20161 0.16858 0.0
C399 C 0.66263 0.18639 0.15708 0.0
C400 C 0.62776 0.15133 0.1643 0.0
C401 C 0.63409 0.13083 0.18301 0.0
H402 H 0.74206 0.18843 0.19419 0.0
C403 C 0.6756 0.14368 0.1929 0.0
C404 C 0.7104 0.17857 0.18567 0.0
H405 H 0.68092 0.12793 0.20717 0.0
H406 H 0.85331 0.3831 0.13994 0.0
H407 H 0.80217 0.30772 0.14094 0.0
H408 H 0.81121 0.33619 0.22033 0.0
H409 H 0.86241 0.41135 0.21936 0.0
H410 H 0.77011 0.26161 0.20062 0.0
H411 H 0.73657 0.25392 0.14674 0.0
H412 H 0.65699 0.20326 0.14362 0.0
H413 H 0.59594 0.1419 0.15629 0.0
C414 C 0.04279 0.56037 0.08107 0.0
C415 C 0.00476 0.54112 0.09176 0.0
C416 C 0.04248 0.55104 0.05567 0.0
C417 C 0.00407 0.52206 0.0404 0.0
C418 C 0.966 0.50357 0.05099 0.0
C419 C 0.9663 0.51276 0.07642 0.0
C420 C 0.00219 0.51181 0.01328 0.0
C421 C 0.03531 0.51454 0.00218 0.0
C422 C 0.03381 0.50687 0.97494 0.0
C423 C 0.07182 0.52802 0.96449 0.0
C424 C 0.0712 0.52449 0.93885 0.0
C425 C 0.03248 0.49944 0.9232 0.0
H426 H 0.9657 0.46142 0.96653 0.0
C427 C 0.99478 0.4763 0.93363 0.0
C428 C 0.9954 0.4798 0.95922 0.0
H429 H 0.96463 0.45593 0.92196 0.0
H430 H 0.07295 0.5826 0.0923 0.0
H431 H 0.07231 0.56722 0.04813 0.0
H432 H 0.93591 0.48159 0.03959 0.0
H433 H 0.93638 0.49756 0.08401 0.0
H434 H 0.97221 0.50179 0.00221 0.0
H435 H 0.06534 0.52467 0.01322 0.0
H436 H 0.1019 0.54864 0.97619 0.0
H437 H 0.10075 0.5428 0.93134 0.0
C438 C 0.53512 0.01042 0.41926 0.0
C439 C 0.50993 0.0188 0.43481 0.0
C440 C 0.5359 0.01868 0.39497 0.0
C441 C 0.51073 0.03462 0.38572 0.0
C442 C 0.48662 0.0442 0.40151 0.0
C443 C 0.48664 0.0369 0.42595 0.0
C444 C 0.50523 0.03669 0.35909 0.0
C445 C 0.53682 0.04765 0.34492 0.0
C446 C 0.52871 0.04567 0.31799 0.0
C447 C 0.55562 0.08037 0.3066 0.0
C448 C 0.54749 0.07898 0.28121 0.0
C449 C 0.51306 0.04216 0.26654 0.0
H450 H 0.4739 0.98123 0.31188 0.0
C451 C 0.4871 0.00688 0.27808 0.0
C452 C 0.49452 0.00884 0.30354 0.0
H453 H 0.46115 0.97742 0.2675 0.0
H454 H 0.55311 0.99617 0.42564 0.0
H455 H 0.55421 0.01026 0.38309 0.0
H456 H 0.46678 0.05623 0.39472 0.0
H457 H 0.46656 0.04319 0.43747 0.0
H458 H 0.47395 0.02908 0.35086 0.0
H459 H 0.56921 0.05941 0.35322 0.0
H460 H 0.58226 0.10902 0.31745 0.0
H461 H 0.56786 0.10715 0.27326 0.0
C462 C 0.5529 0.52373 0.75225 0.0
C463 C 0.58705 0.54565 0.77142 0.0
C464 C 0.56035 0.5237 0.72756 0.0
C465 C 0.60224 0.54528 0.7215 0.0
C466 C 0.63626 0.56746 0.74068 0.0
C467 C 0.62882 0.56761 0.76535 0.0
C468 C 0.61163 0.54722 0.69551 0.0
C469 C 0.58463 0.51808 0.67614 0.0
C470 C 0.59215 0.5208 0.64985 0.0
C471 C 0.56561 0.48471 0.63187 0.0
C472 C 0.56898 0.48653 0.60679 0.0
C473 C 0.59909 0.52459 0.59902 0.0
H474 H 0.64358 0.58767 0.6551 0.0
C475 C 0.62645 0.56043 0.617 0.0
C476 C 0.62293 0.55872 0.64211 0.0
H477 H 0.65021 0.59015 0.61164 0.0
H478 H 0.52031 0.50692 0.75627 0.0
H479 H 0.53306 0.50752 0.71342 0.0
H480 H 0.6688 0.58479 0.73659 0.0
H481 H 0.65588 0.58516 0.77965 0.0
H482 H 0.64245 0.57305 0.6926 0.0
H483 H 0.55552 0.49034 0.67952 0.0
H484 H 0.54142 0.45517 0.6372 0.0
H485 H 0.54687 0.45852 0.59346 0.0
C486 C 0.52396 0.07177 0.5816 0.0
C487 C 0.51658 0.03646 0.56428 0.0
C488 C 0.52775 0.07061 0.60691 0.0
C489 C 0.52473 0.03422 0.6155 0.0
C490 C 0.51607 0.9985 0.59818 0.0
C491 C 0.51221 0.99966 0.57286 0.0
C492 C 0.52986 0.0322 0.64228 0.0
C493 C 0.55287 0.06751 0.65956 0.0
C494 C 0.55898 0.06689 0.68651 0.0
C495 C 0.59036 0.10484 0.7017 0.0
C496 C 0.59625 0.10679 0.72723 0.0
C497 C 0.57085 0.07077 0.73822 0.0
H498 H 0.50846 0.00098 0.68679 0.0
C499 C 0.53984 0.03253 0.72312 0.0
C500 C 0.53372 0.03061 0.69754 0.0
H501 H 0.51941 0.00447 0.73118 0.0
H502 H 0.52703 0.10049 0.57563 0.0
H503 H 0.53272 0.0982 0.61958 0.0
H504 H 0.51309 0.96987 0.60425 0.0
H505 H 0.50653 0.97198 0.56004 0.0
H506 H 0.51606 1.0005 0.64748 0.0
H507 H 0.56946 0.09876 0.65373 0.0
H508 H 0.61027 0.13331 0.69381 0.0
H509 H 0.62066 0.13661 0.73841 0.0
C510 C 0.5825 0.55343 0.92564 0.0
C511 C 0.55234 0.55152 0.90767 0.0
C512 C 0.57643 0.55493 0.95053 0.0
C513 C 0.54012 0.55481 0.95808 0.0
C514 C 0.50951 0.55188 0.9401 0.0
C515 C 0.51562 0.55049 0.91517 0.0
C516 C 0.53288 0.55663 0.98443 0.0
C517 C 0.56516 0.57642 0.00312 0.0
C518 C 0.5593 0.57838 0.0297 0.0
C519 C 0.59341 0.61002 0.04695 0.0
C520 C 0.59055 0.61161 0.07223 0.0
C521 C 0.55356 0.58128 0.08091 0.0
H522 H 0.4953 0.52273 0.02573 0.0
C523 C 0.51906 0.54994 0.06368 0.0
C524 C 0.5219 0.54836 0.03833 0.0
H525 H 0.49039 0.52572 0.06983 0.0
H526 H 0.61087 0.55368 0.92053 0.0
H527 H 0.59999 0.55555 0.96371 0.0
H528 H 0.48102 0.55121 0.94538 0.0
H529 H 0.49156 0.54872 0.90182 0.0
H530 H 0.5002 0.54313 0.98833 0.0
H531 H 0.59771 0.5934 -0.00113 0.0
H532 H 0.62261 0.63349 0.04086 0.0
H533 H 0.61749 0.63648 0.08502 0.0
C534 C 0.0071 0.53302 0.24127 0.0
C535 C 0.03085 0.57047 0.23098 0.0
C536 C 0.01291 0.53366 0.26664 0.0
C537 C 0.04257 0.57185 0.28237 0.0
C538 C 0.06751 0.60887 0.27206 0.0
C539 C 0.06157 0.60831 0.24661 0.0
C540 C 0.04842 0.57353 0.30949 0.0
C541 C 0.01618 0.54883 0.32172 0.0
C542 C 0.02084 0.549 0.34872 0.0
C543 C 0.98444 0.53479 0.36088 0.0
C544 C 0.98701 0.5326 0.38607 0.0
C545 C 0.02604 0.54418 0.39961 0.0
H546 H 0.08848 0.57054 0.35341 0.0
C547 C 0.06253 0.55843 0.38745 0.0
C548 C 0.05999 0.56075 0.36226 0.0
H549 H 0.09289 0.56673 0.39728 0.0
H550 H 0.98369 0.50308 0.22978 0.0
H551 H 0.99432 0.50405 0.2738 0.0
H552 H 0.09105 0.6385 0.28378 0.0
H553 H 0.08078 0.63758 0.23924 0.0
H554 H 0.07934 0.59716 0.31961 0.0
H555 H 0.98435 0.52852 0.3117 0.0
H556 H 0.95385 0.52532 0.35084 0.0
H557 H 0.95842 0.52191 0.39496 0.0
loop_
_geom_bond_atom_site_label_1
_geom_bond_atom_site_label_2
_geom_bond_distance
_geom_bond_site_symmetry_2
_ccdc_geom_bond_type
Zn0 O6 1.969 . S
Zn0 O7 1.965 . S
Zn0 O11 2.024 . S
Zn0 O16 1.969 . S
Zn1 O8 1.969 . S
Zn1 O14 1.969 . S
Zn1 O15 1.965 . S
Zn1 O17 2.024 . S
C2 O3 1.229 . S
C2 O11 1.058 . S
O3 C2 1.229 . S
C4 O5 1.229 . S
C4 O17 1.058 . S
O5 C4 1.229 . S
O6 Zn0 1.969 . S
O6 C9 1.267 . S
O7 Zn0 1.965 . S
O7 C18 1.260 . S
O8 Zn1 1.969 . S
O8 C18 1.258 1_655 S
C9 O6 1.267 . S
C9 O10 1.228 . S
O10 C9 1.228 . S
O11 Zn0 2.024 . S
O11 C2 1.058 . S
C12 O13 1.228 . S
C12 O14 1.267 . S
O13 C12 1.228 . S
O14 Zn1 1.969 . S
O14 C12 1.267 . S
O15 Zn1 1.965 . S
O15 C19 1.260 1_655 S
O16 Zn0 1.969 . S
O16 C19 1.258 . S
O17 Zn1 2.024 . S
O17 C4 1.058 . S
C18 O7 1.260 . S
C18 O8 1.258 1_455 S
C19 O15 1.260 1_455 S
C19 O16 1.258 . S
Zn20 O26 1.969 . S
Zn20 O27 1.965 . S
Zn20 O31 2.024 . S
Zn20 O36 1.969 . S
Zn21 O28 1.969 . S
Zn21 O34 1.969 . S
Zn21 O35 1.965 1_565 S
Zn21 O37 2.024 . S
C22 O23 1.229 . S
C22 O31 1.058 . S
O23 C22 1.229 . S
C24 O25 1.229 . S
C24 O37 1.058 . S
O25 C24 1.229 . S
O26 Zn20 1.969 . S
O26 C29 1.267 . S
O27 Zn20 1.965 . S
O27 C38 1.260 . S
O28 Zn21 1.969 . S
O28 C38 1.258 1_565 S
C29 O26 1.267 . S
C29 O30 1.228 . S
O30 C29 1.228 . S
O31 Zn20 2.024 . S
O31 C22 1.058 . S
C32 O33 1.228 . S
C32 O34 1.267 . S
O33 C32 1.228 . S
O34 Zn21 1.969 . S
O34 C32 1.267 . S
O35 Zn21 1.965 1_545 S
O35 C39 1.260 . S
O36 Zn20 1.969 . S
O36 C39 1.258 . S
O37 Zn21 2.024 . S
O37 C24 1.058 . S
C38 O27 1.260 . S
C38 O28 1.258 1_545 S
C39 O35 1.260 . S
C39 O36 1.258 . S
Zn40 O46 1.969 . S
Zn40 O47 1.965 . S
Zn40 O51 2.024 . S
Zn40 O56 1.969 . S
Zn41 O48 1.969 . S
Zn41 O54 1.969 . S
Zn41 O55 1.965 . S
Zn41 O57 2.024 . S
C42 O43 1.229 . S
C42 O51 1.058 . S
O43 C42 1.229 . S
C44 O45 1.229 . S
C44 O57 1.058 . S
O45 C44 1.229 . S
O46 Zn40 1.969 . S
O46 C49 1.267 . S
O47 Zn40 1.965 . S
O47 C58 1.260 . S
O48 Zn41 1.969 . S
O48 C58 1.258 . S
C49 O46 1.267 . S
C49 O50 1.228 . S
O50 C49 1.228 . S
O51 Zn40 2.024 . S
O51 C42 1.058 . S
C52 O53 1.228 . S
C52 O54 1.267 . S
O53 C52 1.228 . S
O54 Zn41 1.969 . S
O54 C52 1.267 . S
O55 Zn41 1.965 . S
O55 C59 1.260 . S
O56 Zn40 1.969 . S
O56 C59 1.258 . S
O57 Zn41 2.024 . S
O57 C44 1.058 . S
C58 O47 1.260 . S
C58 O48 1.258 . S
C59 O55 1.260 . S
C59 O56 1.258 . S
H60 C65 0.929 . S
H61 C70 0.931 1_565 S
H62 C68 0.930 . S
N63 N64 1.234 . S
N63 C67 1.453 . S
N64 N63 1.234 . S
C65 H60 0.929 . S
C65 C66 1.373 . S
C65 C67 1.368 . S
C66 C65 1.373 . S
C66 C70 1.397 . S
C67 N63 1.453 . S
C67 C65 1.368 . S
C67 C68 1.373 . S
C68 H62 0.930 . S
C68 C67 1.373 . S
C68 C69 1.371 . S
C69 C68 1.371 . S
C69 C70 1.383 . S
C70 H61 0.931 1_545 S
C70 C66 1.397 . S
C70 C69 1.383 . S
H71 C76 0.929 . S
H72 C81 0.931 . S
H73 C79 0.930 . S
N74 N75 1.234 . S
N74 C78 1.453 . S
N75 N74 1.234 . S
C76 H71 0.929 . S
C76 C77 1.373 . S
C76 C78 1.368 . S
C77 C76 1.373 . S
C77 C81 1.397 . S
C78 N74 1.453 . S
C78 C76 1.368 . S
C78 C79 1.373 . S
C79 H73 0.930 . S
C79 C78 1.373 . S
C79 C80 1.371 . S
C80 C79 1.371 . S
C80 C81 1.383 . S
C81 H72 0.931 . S
C81 C77 1.397 . S
C81 C80 1.383 . S
H82 C87 0.929 . S
H83 C92 0.931 1_655 S
H84 C90 0.930 . S
N85 N86 1.234 . S
N85 C89 1.453 . S
N86 N85 1.234 . S
C87 H82 0.929 . S
C87 C88 1.373 . S
C87 C89 1.368 . S
C88 C87 1.373 . S
C88 C92 1.397 . S
C89 N85 1.453 . S
C89 C87 1.368 . S
C89 C90 1.373 . S
C90 H84 0.930 . S
C90 C89 1.373 . S
C90 C91 1.371 . S
C91 C90 1.371 . S
C91 C92 1.383 . S
C92 H83 0.931 1_455 S
C92 C88 1.397 . S
C92 C91 1.383 . S
H93 C98 0.929 . S
H94 C103 0.931 . S
H95 C101 0.930 1_655 S
N96 N97 1.234 . S
N96 C100 1.453 1_655 S
N97 N96 1.234 . S
C98 H93 0.929 . S
C98 C99 1.373 . S
C98 C100 1.368 . S
C99 C98 1.373 . S
C99 C103 1.397 . S
C100 N96 1.453 1_455 S
C100 C98 1.368 . S
C100 C101 1.373 . S
C101 H95 0.930 1_455 S
C101 C100 1.373 . S
C101 C102 1.371 . S
C102 C101 1.371 . S
C102 C103 1.383 . S
C103 H94 0.931 . S
C103 C99 1.397 . S
C103 C102 1.383 . S
H104 C109 0.929 . S
H105 C114 0.931 . S
H106 C112 0.930 1_565 S
N107 N108 1.237 . S
N107 C111 1.451 1_565 S
N108 N107 1.237 . S
C109 H104 0.929 . S
C109 C110 1.373 . S
C109 C111 1.368 . S
C110 C109 1.373 . S
C110 C114 1.397 . S
C111 N107 1.451 1_545 S
C111 C109 1.368 . S
C111 C112 1.373 . S
C112 H106 0.930 1_545 S
C112 C111 1.373 . S
C112 C113 1.371 . S
C113 C112 1.371 . S
C113 C114 1.383 . S
C114 H105 0.931 . S
C114 C110 1.397 . S
C114 C113 1.383 . S
H115 C120 0.929 . S
H116 C125 0.931 . S
H117 C123 0.930 . S
N118 N119 1.234 . S
N118 C122 1.453 . S
N119 N118 1.234 . S
C120 H115 0.929 . S
C120 C121 1.373 . S
C120 C122 1.368 . S
C121 C120 1.373 . S
C121 C125 1.397 . S
C122 N118 1.453 . S
C122 C120 1.368 . S
C122 C123 1.373 . S
C123 H117 0.930 . S
C123 C122 1.373 . S
C123 C124 1.371 . S
C124 C123 1.371 . S
C124 C125 1.383 . S
C125 H116 0.931 . S
C125 C121 1.397 . S
C125 C124 1.383 . S
C126 C127 1.386 . S
C126 C128 1.383 . S
C126 H142 0.951 . S
C127 C126 1.386 . S
C127 C131 1.383 . S
C128 C126 1.383 . S
C128 C129 1.402 . S
C128 H143 0.951 . S
C129 C128 1.402 . S
C129 C130 1.375 . S
C129 C132 1.481 . S
C130 C129 1.375 . S
C130 C131 1.367 . S
C130 H144 0.951 . S
C131 C127 1.383 . S
C131 C130 1.367 . S
C131 H145 0.950 . S
C132 C129 1.481 . S
C132 C133 1.297 . S
C132 H146 0.950 . S
C133 C132 1.297 . S
C133 C134 1.479 . S
C133 H147 0.950 . S
C134 C133 1.479 . S
C134 C135 1.375 . S
C134 C140 1.404 . S
C135 C134 1.375 . S
C135 C136 1.369 . S
C135 H148 0.950 . S
C136 C135 1.369 . S
C136 C137 1.392 . S
C136 H149 0.951 . S
C137 C136 1.392 . S
C137 C139 1.384 . S
H138 C140 0.949 . S
C139 C137 1.384 . S
C139 C140 1.385 . S
C139 H141 0.950 . S
C140 C134 1.404 . S
C140 H138 0.949 . S
C140 C139 1.385 . S
H141 C139 0.950 . S
H142 C126 0.951 . S
H143 C128 0.951 . S
H144 C130 0.951 . S
H145 C131 0.950 . S
H146 C132 0.950 . S
H147 C133 0.950 . S
H148 C135 0.950 . S
H149 C136 0.951 . S
C150 C151 1.386 . S
C150 C152 1.383 . S
C150 H166 0.951 . S
C151 C150 1.386 . S
C151 C155 1.383 . S
C152 C150 1.383 . S
C152 C153 1.402 . S
C152 H167 0.951 . S
C153 C152 1.402 . S
C153 C154 1.375 . S
C153 C156 1.481 . S
C154 C153 1.375 . S
C154 C155 1.367 . S
C154 H168 0.951 . S
C155 C151 1.383 . S
C155 C154 1.367 . S
C155 H169 0.950 . S
C156 C153 1.481 . S
C156 C157 1.297 . S
C156 H170 0.950 . S
C157 C156 1.297 . S
C157 C158 1.479 . S
C157 H171 0.950 . S
C158 C157 1.479 . S
C158 C159 1.375 . S
C158 C164 1.404 . S
C159 C158 1.375 . S
C159 C160 1.369 . S
C159 H172 0.950 . S
C160 C159 1.369 . S
C160 C161 1.392 . S
C160 H173 0.951 . S
C161 C160 1.392 . S
C161 C163 1.384 . S
H162 C164 0.949 . S
C163 C161 1.384 . S
C163 C164 1.385 . S
C163 H165 0.950 . S
C164 C158 1.404 . S
C164 H162 0.949 . S
C164 C163 1.385 . S
H165 C163 0.950 . S
H166 C150 0.951 . S
H167 C152 0.951 . S
H168 C154 0.951 . S
H169 C155 0.950 . S
H170 C156 0.950 . S
H171 C157 0.950 . S
H172 C159 0.950 . S
H173 C160 0.951 . S
C174 C175 1.386 . S
C174 C176 1.383 . S
C174 H190 0.951 . S
C175 C174 1.386 . S
C175 C179 1.383 . S
C176 C174 1.383 . S
C176 C177 1.402 . S
C176 H191 0.951 . S
C177 C176 1.402 . S
C177 C178 1.375 . S
C177 C180 1.481 . S
C178 C177 1.375 . S
C178 C179 1.367 . S
C178 H192 0.951 . S
C179 C175 1.383 . S
C179 C178 1.367 . S
C179 H193 0.950 . S
C180 C177 1.481 . S
C180 C181 1.297 . S
C180 H194 0.950 . S
C181 C180 1.297 . S
C181 C182 1.479 . S
C181 H195 0.950 . S
C182 C181 1.479 . S
C182 C183 1.375 . S
C182 C188 1.404 . S
C183 C182 1.375 . S
C183 C184 1.369 . S
C183 H196 0.950 . S
C184 C183 1.369 . S
C184 C185 1.392 . S
C184 H197 0.951 . S
C185 C184 1.392 . S
C185 C187 1.384 . S
H186 C188 0.949 . S
C187 C185 1.384 . S
C187 C188 1.385 . S
C187 H189 0.950 . S
C188 C182 1.404 . S
C188 H186 0.949 . S
C188 C187 1.385 . S
H189 C187 0.950 . S
H190 C174 0.951 . S
H191 C176 0.951 . S
H192 C178 0.951 . S
H193 C179 0.950 . S
H194 C180 0.950 . S
H195 C181 0.950 . S
H196 C183 0.950 . S
H197 C184 0.951 . S
C198 C199 1.386 . S
C198 C200 1.383 . S
C198 H214 0.951 . S
C199 C198 1.386 . S
C199 C203 1.383 . S
C200 C198 1.383 . S
C200 C201 1.402 . S
C200 H215 0.951 . S
C201 C200 1.402 . S
C201 C202 1.375 . S
C201 C204 1.481 . S
C202 C201 1.375 . S
C202 C203 1.367 . S
C202 H216 0.951 . S
C203 C199 1.383 . S
C203 C202 1.367 . S
C203 H217 0.950 . S
C204 C201 1.481 . S
C204 C205 1.297 . S
C204 H218 0.950 . S
C205 C204 1.297 . S
C205 C206 1.479 . S
C205 H219 0.950 . S
C206 C205 1.479 . S
C206 C207 1.375 . S
C206 C212 1.404 . S
C207 C206 1.375 . S
C207 C208 1.369 . S
C207 H220 0.950 . S
C208 C207 1.369 . S
C208 C209 1.392 . S
C208 H221 0.951 . S
C209 C208 1.392 . S
C209 C211 1.384 . S
H210 C212 0.949 . S
C211 C209 1.384 . S
C211 C212 1.385 . S
C211 H213 0.950 . S
C212 C206 1.404 . S
C212 H210 0.949 . S
C212 C211 1.385 . S
H213 C211 0.950 . S
H214 C198 0.951 . S
H215 C200 0.951 . S
H216 C202 0.951 . S
H217 C203 0.950 . S
H218 C204 0.950 . S
H219 C205 0.950 . S
H220 C207 0.950 . S
H221 C208 0.951 . S
C222 C223 1.386 . S
C222 C224 1.383 . S
C222 H238 0.951 . S
C223 C222 1.386 . S
C223 C227 1.383 . S
C224 C222 1.383 . S
C224 C225 1.402 . S
C224 H239 0.951 . S
C225 C224 1.402 . S
C225 C226 1.375 . S
C225 C228 1.481 . S
C226 C225 1.375 . S
C226 C227 1.367 . S
C226 H240 0.951 . S
C227 C223 1.383 . S
C227 C226 1.367 . S
C227 H241 0.950 . S
C228 C225 1.481 . S
C228 C229 1.297 . S
C228 H242 0.950 . S
C229 C228 1.297 . S
C229 C230 1.479 . S
C229 H243 0.950 . S
C230 C229 1.479 . S
C230 C231 1.375 . S
C230 C236 1.404 . S
C231 C230 1.375 . S
C231 C232 1.369 . S
C231 H244 0.950 . S
C232 C231 1.369 . S
C232 C233 1.392 . S
C232 H245 0.951 . S
C233 C232 1.392 . S
C233 C235 1.384 . S
H234 C236 0.949 . S
C235 C233 1.384 . S
C235 C236 1.385 . S
C235 H237 0.950 . S
C236 C230 1.404 . S
C236 H234 0.949 . S
C236 C235 1.385 . S
H237 C235 0.950 . S
H238 C222 0.951 . S
H239 C224 0.951 . S
H240 C226 0.951 . S
H241 C227 0.950 . S
H242 C228 0.950 . S
H243 C229 0.950 . S
H244 C231 0.950 . S
H245 C232 0.951 . S
C246 C247 1.386 . S
C246 C248 1.383 . S
C246 H262 0.951 . S
C247 C246 1.386 . S
C247 C251 1.383 . S
C248 C246 1.383 . S
C248 C249 1.402 . S
C248 H263 0.951 . S
C249 C248 1.402 . S
C249 C250 1.375 . S
C249 C252 1.481 . S
C250 C249 1.375 . S
C250 C251 1.367 . S
C250 H264 0.951 . S
C251 C247 1.383 . S
C251 C250 1.367 . S
C251 H265 0.950 . S
C252 C249 1.481 . S
C252 C253 1.297 . S
C252 H266 0.950 . S
C253 C252 1.297 . S
C253 C254 1.479 . S
C253 H267 0.950 . S
C254 C253 1.479 . S
C254 C255 1.375 . S
C254 C260 1.404 . S
C255 C254 1.375 . S
C255 C256 1.369 . S
C255 H268 0.950 . S
C256 C255 1.369 . S
C256 C257 1.392 . S
C256 H269 0.951 . S
C257 C256 1.392 . S
C257 C259 1.384 . S
H258 C260 0.949 . S
C259 C257 1.384 . S
C259 C260 1.385 . S
C259 H261 0.950 . S
C260 C254 1.404 . S
C260 H258 0.949 . S
C260 C259 1.385 . S
H261 C259 0.950 . S
H262 C246 0.951 . S
H263 C248 0.951 . S
H264 C250 0.951 . S
H265 C251 0.950 . S
H266 C252 0.950 . S
H267 C253 0.950 . S
H268 C255 0.950 . S
H269 C256 0.951 . S
C270 C271 1.386 . S
C270 C272 1.383 . S
C270 H286 0.951 . S
C271 C270 1.386 . S
C271 C275 1.383 . S
C272 C270 1.383 . S
C272 C273 1.402 . S
C272 H287 0.951 . S
C273 C272 1.402 . S
C273 C274 1.375 . S
C273 C276 1.481 . S
C274 C273 1.375 . S
C274 C275 1.367 . S
C274 H288 0.951 . S
C275 C271 1.383 . S
C275 C274 1.367 . S
C275 H289 0.950 . S
C276 C273 1.481 . S
C276 C277 1.297 . S
C276 H290 0.950 . S
C277 C276 1.297 . S
C277 C278 1.479 . S
C277 H291 0.950 . S
C278 C277 1.479 . S
C278 C279 1.375 . S
C278 C284 1.404 . S
C279 C278 1.375 . S
C279 C280 1.369 . S
C279 H292 0.950 . S
C280 C279 1.369 . S
C280 C281 1.392 . S
C280 H293 0.951 . S
C281 C280 1.392 . S
C281 C283 1.384 . S
H282 C284 0.949 . S
C283 C281 1.384 . S
C283 C284 1.385 . S
C283 H285 0.950 . S
C284 C278 1.404 . S
C284 H282 0.949 . S
C284 C283 1.385 . S
H285 C283 0.950 . S
H286 C270 0.951 . S
H287 C272 0.951 . S
H288 C274 0.951 . S
H289 C275 0.950 . S
H290 C276 0.950 . S
H291 C277 0.950 . S
H292 C279 0.950 . S
H293 C280 0.951 . S
C294 C295 1.386 . S
C294 C296 1.383 . S
C294 H310 0.951 . S
C295 C294 1.386 . S
C295 C299 1.383 . S
C296 C294 1.383 . S
C296 C297 1.402 . S
C296 H311 0.951 . S
C297 C296 1.402 . S
C297 C298 1.375 . S
C297 C300 1.481 . S
C298 C297 1.375 . S
C298 C299 1.367 . S
C298 H312 0.951 . S
C299 C295 1.383 . S
C299 C298 1.367 . S
C299 H313 0.950 . S
C300 C297 1.481 . S
C300 C301 1.297 . S
C300 H314 0.950 . S
C301 C300 1.297 . S
C301 C302 1.479 . S
C301 H315 0.950 . S
C302 C301 1.479 . S
C302 C303 1.375 . S
C302 C308 1.404 . S
C303 C302 1.375 . S
C303 C304 1.369 . S
C303 H316 0.950 . S
C304 C303 1.369 . S
C304 C305 1.392 . S
C304 H317 0.951 . S
C305 C304 1.392 . S
C305 C307 1.384 . S
H306 C308 0.949 . S
C307 C305 1.384 . S
C307 C308 1.385 . S
C307 H309 0.950 . S
C308 C302 1.404 . S
C308 H306 0.949 . S
C308 C307 1.385 . S
H309 C307 0.950 . S
H310 C294 0.951 . S
H311 C296 0.951 . S
H312 C298 0.951 . S
H313 C299 0.950 . S
H314 C300 0.950 . S
H315 C301 0.950 . S
H316 C303 0.950 . S
H317 C304 0.951 . S
C318 C319 1.386 . S
C318 C320 1.383 . S
C318 H334 0.951 . S
C319 C318 1.386 . S
C319 C323 1.383 . S
C320 C318 1.383 . S
C320 C321 1.402 . S
C320 H335 0.951 . S
C321 C320 1.402 . S
C321 C322 1.375 . S
C321 C324 1.481 . S
C322 C321 1.375 . S
C322 C323 1.367 . S
C322 H336 0.951 . S
C323 C319 1.383 . S
C323 C322 1.367 . S
C323 H337 0.950 . S
C324 C321 1.481 . S
C324 C325 1.297 . S
C324 H338 0.950 . S
C325 C324 1.297 . S
C325 C326 1.479 . S
C325 H339 0.950 . S
C326 C325 1.479 . S
C326 C327 1.375 . S
C326 C332 1.404 . S
C327 C326 1.375 . S
C327 C328 1.369 . S
C327 H340 0.950 . S
C328 C327 1.369 . S
C328 C329 1.392 . S
C328 H341 0.951 1_565 S
C329 C328 1.392 . S
C329 C331 1.384 . S
H330 C332 0.949 . S
C331 C329 1.384 . S
C331 C332 1.385 . S
C331 H333 0.950 . S
C332 C326 1.404 . S
C332 H330 0.949 . S
C332 C331 1.385 . S
H333 C331 0.950 . S
H334 C318 0.951 . S
H335 C320 0.951 . S
H336 C322 0.951 . S
H337 C323 0.950 . S
H338 C324 0.950 . S
H339 C325 0.950 . S
H340 C327 0.950 . S
H341 C328 0.951 1_545 S
C342 C343 1.386 . S
C342 C344 1.383 . S
C342 H358 0.951 . S
C343 C342 1.386 . S
C343 C347 1.383 . S
C344 C342 1.383 . S
C344 C345 1.402 . S
C344 H359 0.951 . S
C345 C344 1.402 . S
C345 C346 1.375 . S
C345 C348 1.481 . S
C346 C345 1.375 . S
C346 C347 1.367 . S
C346 H360 0.951 . S
C347 C343 1.383 . S
C347 C346 1.367 . S
C347 H361 0.950 . S
C348 C345 1.481 . S
C348 C349 1.297 . S
C348 H362 0.950 . S
C349 C348 1.297 . S
C349 C350 1.479 . S
C349 H363 0.950 . S
C350 C349 1.479 . S
C350 C351 1.375 . S
C350 C356 1.404 . S
C351 C350 1.375 . S
C351 C352 1.369 . S
C351 H364 0.950 . S
C352 C351 1.369 . S
C352 C353 1.392 . S
C352 H365 0.951 . S
C353 C352 1.392 . S
C353 C355 1.384 . S
H354 C356 0.949 . S
C355 C353 1.384 . S
C355 C356 1.385 . S
C355 H357 0.950 . S
C356 C350 1.404 . S
C356 H354 0.949 . S
C356 C355 1.385 . S
H357 C355 0.950 . S
H358 C342 0.951 . S
H359 C344 0.951 . S
H360 C346 0.951 . S
H361 C347 0.950 . S
H362 C348 0.950 . S
H363 C349 0.950 . S
H364 C351 0.950 . S
H365 C352 0.951 . S
C366 C367 1.386 . S
C366 C368 1.383 . S
C366 H382 0.951 . S
C367 C366 1.386 . S
C367 C371 1.383 . S
C368 C366 1.383 . S
C368 C369 1.402 . S
C368 H383 0.951 . S
C369 C368 1.402 . S
C369 C370 1.375 . S
C369 C372 1.481 . S
C370 C369 1.375 . S
C370 C371 1.367 . S
C370 H384 0.951 . S
C371 C367 1.383 . S
C371 C370 1.367 . S
C371 H385 0.950 . S
C372 C369 1.481 . S
C372 C373 1.297 . S
C372 H386 0.950 . S
C373 C372 1.297 . S
C373 C374 1.479 . S
C373 H387 0.950 . S
C374 C373 1.479 . S
C374 C375 1.375 . S
C374 C380 1.404 . S
C375 C374 1.375 . S
C375 C376 1.369 . S
C375 H388 0.950 . S
C376 C375 1.369 . S
C376 C377 1.392 . S
C376 H389 0.951 . S
C377 C376 1.392 . S
C377 C379 1.384 . S
H378 C380 0.949 . S
C379 C377 1.384 . S
C379 C380 1.385 . S
C379 H381 0.950 . S
C380 C374 1.404 . S
C380 H378 0.949 . S
C380 C379 1.385 . S
H381 C379 0.950 . S
H382 C366 0.951 . S
H383 C368 0.951 . S
H384 C370 0.951 . S
H385 C371 0.950 . S
H386 C372 0.950 . S
H387 C373 0.950 . S
H388 C375 0.950 . S
H389 C376 0.951 . S
C390 C391 1.386 . S
C390 C392 1.383 . S
C390 H406 0.951 . S
C391 C390 1.386 . S
C391 C395 1.383 . S
C392 C390 1.383 . S
C392 C393 1.402 . S
C392 H407 0.951 . S
C393 C392 1.402 . S
C393 C394 1.375 . S
C393 C396 1.481 . S
C394 C393 1.375 . S
C394 C395 1.367 . S
C394 H408 0.951 . S
C395 C391 1.383 . S
C395 C394 1.367 . S
C395 H409 0.950 . S
C396 C393 1.481 . S
C396 C397 1.297 . S
C396 H410 0.950 . S
C397 C396 1.297 . S
C397 C398 1.479 . S
C397 H411 0.950 . S
C398 C397 1.479 . S
C398 C399 1.375 . S
C398 C404 1.404 . S
C399 C398 1.375 . S
C399 C400 1.369 . S
C399 H412 0.950 . S
C400 C399 1.369 . S
C400 C401 1.392 . S
C400 H413 0.951 . S
C401 C400 1.392 . S
C401 C403 1.384 . S
H402 C404 0.949 . S
C403 C401 1.384 . S
C403 C404 1.385 . S
C403 H405 0.950 . S
C404 C398 1.404 . S
C404 H402 0.949 . S
C404 C403 1.385 . S
H405 C403 0.950 . S
H406 C390 0.951 . S
H407 C392 0.951 . S
H408 C394 0.951 . S
H409 C395 0.950 . S
H410 C396 0.950 . S
H411 C397 0.950 . S
H412 C399 0.950 . S
H413 C400 0.951 . S
C414 C415 1.386 . S
C414 C416 1.383 . S
C414 H430 0.951 . S
C415 C414 1.386 . S
C415 C419 1.383 1_455 S
C416 C414 1.383 . S
C416 C417 1.402 . S
C416 H431 0.951 . S
C417 C416 1.402 . S
C417 C418 1.375 1_455 S
C417 C420 1.481 . S
C418 C417 1.375 1_655 S
C418 C419 1.367 . S
C418 H432 0.951 . S
C419 C415 1.383 1_655 S
C419 C418 1.367 . S
C419 H433 0.950 . S
C420 C417 1.481 . S
C420 C421 1.297 . S
C420 H434 0.950 1_455 S
C421 C420 1.297 . S
C421 C422 1.479 1_554 S
C421 H435 0.950 . S
C422 C421 1.479 1_556 S
C422 C423 1.375 . S
C422 C428 1.404 . S
C423 C422 1.375 . S
C423 C424 1.369 . S
C423 H436 0.950 . S
C424 C423 1.369 . S
C424 C425 1.392 . S
C424 H437 0.951 . S
C425 C424 1.392 . S
C425 C427 1.384 . S
H426 C428 0.949 1_655 S
C427 C425 1.384 . S
C427 C428 1.385 . S
C427 H429 0.950 1_455 S
C428 C422 1.404 . S
C428 H426 0.949 1_455 S
C428 C427 1.385 . S
H429 C427 0.950 1_655 S
H430 C414 0.951 . S
H431 C416 0.951 . S
H432 C418 0.951 . S
H433 C419 0.950 . S
H434 C420 0.950 1_655 S
H435 C421 0.950 . S
H436 C423 0.950 . S
H437 C424 0.951 . S
C438 C439 1.386 . S
C438 C440 1.383 . S
C438 H454 0.951 . S
C439 C438 1.386 . S
C439 C443 1.383 1_545 S
C440 C438 1.383 . S
C440 C441 1.402 . S
C440 H455 0.951 . S
C441 C440 1.402 . S
C441 C442 1.375 1_545 S
C441 C444 1.481 . S
C442 C441 1.375 1_565 S
C442 C443 1.367 . S
C442 H456 0.951 . S
C443 C439 1.383 1_565 S
C443 C442 1.367 . S
C443 H457 0.950 . S
C444 C441 1.481 . S
C444 C445 1.297 . S
C444 H458 0.950 1_545 S
C445 C444 1.297 . S
C445 C446 1.479 . S
C445 H459 0.950 . S
C446 C445 1.479 . S
C446 C447 1.375 . S
C446 C452 1.404 . S
C447 C446 1.375 . S
C447 C448 1.369 . S
C447 H460 0.950 . S
C448 C447 1.369 . S
C448 C449 1.392 . S
C448 H461 0.951 . S
C449 C448 1.392 . S
C449 C451 1.384 . S
H450 C452 0.949 1_565 S
C451 C449 1.384 . S
C451 C452 1.385 . S
C451 H453 0.950 1_545 S
C452 C446 1.404 . S
C452 H450 0.949 1_545 S
C452 C451 1.385 . S
H453 C451 0.950 1_565 S
H454 C438 0.951 . S
H455 C440 0.951 . S
H456 C442 0.951 . S
H457 C443 0.950 . S
H458 C444 0.950 1_565 S
H459 C445 0.950 . S
H460 C447 0.950 . S
H461 C448 0.951 . S
C462 C463 1.386 . S
C462 C464 1.383 . S
C462 H478 0.951 . S
C463 C462 1.386 . S
C463 C467 1.383 . S
C464 C462 1.383 . S
C464 C465 1.402 . S
C464 H479 0.951 . S
C465 C464 1.402 . S
C465 C466 1.375 . S
C465 C468 1.481 . S
C466 C465 1.375 . S
C466 C467 1.367 . S
C466 H480 0.951 . S
C467 C463 1.383 . S
C467 C466 1.367 . S
C467 H481 0.950 . S
C468 C465 1.481 . S
C468 C469 1.297 . S
C468 H482 0.950 . S
C469 C468 1.297 . S
C469 C470 1.479 . S
C469 H483 0.950 . S
C470 C469 1.479 . S
C470 C471 1.375 . S
C470 C476 1.404 . S
C471 C470 1.375 . S
C471 C472 1.369 . S
C471 H484 0.950 . S
C472 C471 1.369 . S
C472 C473 1.392 . S
C472 H485 0.951 . S
C473 C472 1.392 . S
C473 C475 1.384 . S
H474 C476 0.949 . S
C475 C473 1.384 . S
C475 C476 1.385 . S
C475 H477 0.950 . S
C476 C470 1.404 . S
C476 H474 0.949 . S
C476 C475 1.385 . S
H477 C475 0.950 . S
H478 C462 0.951 . S
H479 C464 0.951 . S
H480 C466 0.951 . S
H481 C467 0.950 . S
H482 C468 0.950 . S
H483 C469 0.950 . S
H484 C471 0.950 . S
H485 C472 0.951 . S
C486 C487 1.386 . S
C486 C488 1.383 . S
C486 H502 0.951 . S
C487 C486 1.386 . S
C487 C491 1.383 . S
C488 C486 1.383 . S
C488 C489 1.402 . S
C488 H503 0.951 . S
C489 C488 1.402 . S
C489 C490 1.376 1_545 S
C489 C492 1.481 . S
C490 C489 1.376 1_565 S
C490 C491 1.367 1_565 S
C490 H504 0.949 . S
C491 C487 1.383 . S
C491 C490 1.367 1_545 S
C491 H505 0.950 1_545 S
C492 C489 1.481 . S
C492 C493 1.297 . S
C492 H506 0.950 . S
C493 C492 1.297 . S
C493 C494 1.479 . S
C493 H507 0.950 . S
C494 C493 1.479 . S
C494 C495 1.375 . S
C494 C500 1.404 . S
C495 C494 1.375 . S
C495 C496 1.369 . S
C495 H508 0.950 . S
C496 C495 1.369 . S
C496 C497 1.392 . S
C496 H509 0.951 . S
C497 C496 1.392 . S
C497 C499 1.384 . S
H498 C500 0.949 1_565 S
C499 C497 1.384 . S
C499 C500 1.385 . S
C499 H501 0.950 1_545 S
C500 C494 1.404 . S
C500 H498 0.949 1_545 S
C500 C499 1.385 . S
H501 C499 0.950 1_565 S
H502 C486 0.951 . S
H503 C488 0.951 . S
H504 C490 0.949 . S
H505 C491 0.950 1_565 S
H506 C492 0.950 . S
H507 C493 0.950 . S
H508 C495 0.950 . S
H509 C496 0.951 . S
C510 C511 1.386 . S
C510 C512 1.383 . S
C510 H526 0.951 . S
C511 C510 1.386 . S
C511 C515 1.383 . S
C512 C510 1.383 . S
C512 C513 1.402 . S
C512 H527 0.951 . S
C513 C512 1.402 . S
C513 C514 1.375 . S
C513 C516 1.481 . S
C514 C513 1.375 . S
C514 C515 1.367 . S
C514 H528 0.951 . S
C515 C511 1.383 . S
C515 C514 1.367 . S
C515 H529 0.950 . S
C516 C513 1.481 . S
C516 C517 1.297 . S
C516 H530 0.950 . S
C517 C516 1.297 . S
C517 C518 1.479 1_556 S
C517 H531 0.950 . S
C518 C517 1.479 1_554 S
C518 C519 1.375 . S
C518 C524 1.404 . S
C519 C518 1.375 . S
C519 C520 1.369 . S
C519 H532 0.950 . S
C520 C519 1.369 . S
C520 C521 1.392 . S
C520 H533 0.951 . S
C521 C520 1.392 . S
C521 C523 1.384 . S
H522 C524 0.949 . S
C523 C521 1.384 . S
C523 C524 1.385 . S
C523 H525 0.950 . S
C524 C518 1.404 . S
C524 H522 0.949 . S
C524 C523 1.385 . S
H525 C523 0.950 . S
H526 C510 0.951 . S
H527 C512 0.951 . S
H528 C514 0.951 . S
H529 C515 0.950 . S
H530 C516 0.950 . S
H531 C517 0.950 . S
H532 C519 0.950 . S
H533 C520 0.951 . S
C534 C535 1.386 1_655 S
C534 C536 1.383 . S
C534 H550 0.951 . S
C535 C534 1.386 1_455 S
C535 C539 1.383 . S
C536 C534 1.383 . S
C536 C537 1.402 1_655 S
C536 H551 0.951 . S
C537 C536 1.402 1_455 S
C537 C538 1.375 . S
C537 C540 1.481 . S
C538 C537 1.375 . S
C538 C539 1.367 . S
C538 H552 0.951 . S
C539 C535 1.383 . S
C539 C538 1.367 . S
C539 H553 0.950 . S
C540 C537 1.481 . S
C540 C541 1.297 . S
C540 H554 0.950 . S
C541 C540 1.297 . S
C541 C542 1.479 . S
C541 H555 0.950 1_455 S
C542 C541 1.479 . S
C542 C543 1.375 1_455 S
C542 C548 1.404 . S
C543 C542 1.375 1_655 S
C543 C544 1.369 . S
C543 H556 0.950 . S
C544 C543 1.369 . S
C544 C545 1.392 1_655 S
C544 H557 0.951 . S
C545 C544 1.392 1_455 S
C545 C547 1.384 . S
H546 C548 0.949 . S
C547 C545 1.384 . S
C547 C548 1.385 . S
C547 H549 0.950 . S
C548 C542 1.404 . S
C548 H546 0.949 . S
C548 C547 1.385 . S
H549 C547 0.950 . S
H550 C534 0.951 . S
H551 C536 0.951 . S
H552 C538 0.951 . S
H553 C539 0.950 . S
H554 C540 0.950 . S
H555 C541 0.950 1_655 S
H556 C543 0.950 . S
H557 C544 0.951 . S
C127 C2 1.391 . S
C137 N119 1.437 . S
C151 C22 1.390 . S
C161 N97 1.447 . S
C175 C44 1.449 . S
C185 N108 1.498 . S
C199 C4 1.435 . S
C209 C121 1.506 . S
C233 C99 1.483 . S
C223 C24 1.424 . S
C257 C110 1.430 . S
C247 C42 1.362 . S
C271 C32 1.363 . S
C281 N75 1.322 . S
C295 C49 1.152 . S
C305 C88 1.152 1_655 S
C319 C9 1.086 . S
C329 C66 1.094 1_565 S
C353 C77 1.111 . S
C343 C29 1.074 . S
C377 N86 1.272 . S
C367 C52 1.263 . S
C391 C12 1.315 . S
C401 N64 1.325 . S
C425 C91 1.483 . S
C415 C18 1.486 . S
C439 C38 1.455 . S
C449 C69 1.452 . S
C463 C58 1.434 . S
C473 C80 1.488 . S
C497 C113 1.483 . S
C487 C39 1.512 . S
C521 C124 1.532 . S
C511 C59 1.504 . S
C535 C19 1.484 . S
C545 C102 1.534 . S
