# Generated by pormake.
# Topology zzz, (3,6)-cn, num edge types: 1
# Building blocks:
#     Node 0, Type 0, BuildingBlock: VETTIZ_charged_linker_0, # of connection points: 3
#     Node 1, Type 0, BuildingBlock: VETTIZ_charged_linker_0, # of connection points: 3
#     Node 2, Type 0, BuildingBlock: VETTIZ_charged_linker_0, # of connection points: 3
#     Node 3, Type 0, BuildingBlock: VETTIZ_charged_linker_0, # of connection points: 3
#     Node 4, Type 0, BuildingBlock: VETTIZ_charged_linker_0, # of connection points: 3
#     Node 5, Type 0, BuildingBlock: VETTIZ_charged_linker_0, # of connection points: 3
#     Node 6, Type 0, BuildingBlock: VETTIZ_charged_linker_0, # of connection points: 3
#     Node 7, Type 0, BuildingBlock: VETTIZ_charged_linker_0, # of connection points: 3
#     Node 8, Type 1, BuildingBlock: MIFKUJ_clean_sbu_0, # of connection points: 6
#     Node 9, Type 1, BuildingBlock: MIFKUJ_clean_sbu_0, # of connection points: 6
#     Node 10, Type 1, BuildingBlock: MIFKUJ_clean_sbu_0, # of connection points: 6
#     Node 11, Type 1, BuildingBlock: MIFKUJ_clean_sbu_0, # of connection points: 6
#     Edge 12, Type (0, 1), BuildingBlock: ZUJKAS_clean_linker_0, # of connection points: 2
#     Edge 13, Type (0, 1), BuildingBlock: ZUJKAS_clean_linker_0, # of connection points: 2
#     Edge 14, Type (0, 1), BuildingBlock: ZUJKAS_clean_linker_0, # of connection points: 2
#     Edge 15, Type (0, 1), BuildingBlock: ZUJKAS_clean_linker_0, # of connection points: 2
#     Edge 16, Type (0, 1), BuildingBlock: ZUJKAS_clean_linker_0, # of connection points: 2
#     Edge 17, Type (0, 1), BuildingBlock: ZUJKAS_clean_linker_0, # of connection points: 2
#     Edge 18, Type (0, 1), BuildingBlock: ZUJKAS_clean_linker_0, # of connection points: 2
#     Edge 19, Type (0, 1), BuildingBlock: ZUJKAS_clean_linker_0, # of connection points: 2
#     Edge 20, Type (0, 1), BuildingBlock: ZUJKAS_clean_linker_0, # of connection points: 2
#     Edge 21, Type (0, 1), BuildingBlock: ZUJKAS_clean_linker_0, # of connection points: 2
#     Edge 22, Type (0, 1), BuildingBlock: ZUJKAS_clean_linker_0, # of connection points: 2
#     Edge 23, Type (0, 1), BuildingBlock: ZUJKAS_clean_linker_0, # of connection points: 2
#     Edge 24, Type (0, 1), BuildingBlock: ZUJKAS_clean_linker_0, # of connection points: 2
#     Edge 25, Type (0, 1), BuildingBlock: ZUJKAS_clean_linker_0, # of connection points: 2
#     Edge 26, Type (0, 1), BuildingBlock: ZUJKAS_clean_linker_0, # of connection points: 2
#     Edge 27, Type (0, 1), BuildingBlock: ZUJKAS_clean_linker_0, # of connection points: 2
#     Edge 28, Type (0, 1), BuildingBlock: ZUJKAS_clean_linker_0, # of connection points: 2
#     Edge 29, Type (0, 1), BuildingBlock: ZUJKAS_clean_linker_0, # of connection points: 2
#     Edge 30, Type (0, 1), BuildingBlock: ZUJKAS_clean_linker_0, # of connection points: 2
#     Edge 31, Type (0, 1), BuildingBlock: ZUJKAS_clean_linker_0, # of connection points: 2
#     Edge 32, Type (0, 1), BuildingBlock: ZUJKAS_clean_linker_0, # of connection points: 2
#     Edge 33, Type (0, 1), BuildingBlock: ZUJKAS_clean_linker_0, # of connection points: 2
#     Edge 34, Type (0, 1), BuildingBlock: ZUJKAS_clean_linker_0, # of connection points: 2
#     Edge 35, Type (0, 1), BuildingBlock: ZUJKAS_clean_linker_0, # of connection points: 2
# Relax obj value: 0.312
# Max RMSD: 0.220
# Mean RMSD: 0.198
data_MOF--net-zzz--node1-MIFKUJ_clean_sbu_0--node2-VETTIZ_charged_linker_0--edge1-ZUJKAS_clean_linker_0
_symmetry_space_group_name_H-M    P1
_symmetry_Int_Tables_number       1
_symmetry_cell_setting            triclinic
loop_
_symmetry_equiv_pos_as_xyz
'x, y, z'
_cell_length_a     71.576275
_cell_length_b     71.760259
_cell_length_c     26.206874
_cell_angle_alpha  89.792337
_cell_angle_beta   89.798262
_cell_angle_gamma 90.062138
loop_
_atom_site_label
_atom_site_type_symbol
_atom_site_fract_x
_atom_site_fract_y
_atom_site_fract_z
_atom_type_partial_charge
C0 C 0.78065 0.54362 0.20232 0.0
C1 C 0.8001 0.54668 0.2068 0.0
C2 C 0.81076 0.54986 0.16249 0.0
C3 C 0.78349 0.54529 0.10992 0.0
C4 C 0.77254 0.5434 0.15316 0.0
C5 C 0.75205 0.54141 0.13937 0.0
H6 H 0.68765 0.53426 0.94674 0.0
C7 C 0.77159 0.54306 0.06466 0.0
C8 C 0.75292 0.54122 0.08103 0.0
H9 H 0.6754 0.53617 0.10773 0.0
H10 H 0.70884 0.53815 0.12664 0.0
H11 H 0.72044 0.56486 0.94193 0.0
H12 H 0.71789 0.50545 0.95716 0.0
H13 H 0.73948 0.50951 0.92744 0.0
H14 H 0.71819 0.51638 0.89566 0.0
H15 H 0.71307 0.54919 0.89261 0.0
H16 H 0.73727 0.55536 0.90027 0.0
C17 C 0.74156 0.55865 0.15968 0.0
C18 C 0.74464 0.52282 0.16123 0.0
C19 C 0.80278 0.53218 0.89328 0.0
C20 C 0.79575 0.5264 0.84596 0.0
C21 C 0.77634 0.52594 0.83822 0.0
C22 C 0.76404 0.53062 0.87783 0.0
C23 C 0.77125 0.53531 0.92604 0.0
C24 C 0.79033 0.53629 0.93287 0.0
C25 C 0.79552 0.5405 0.98716 0.0
C26 C 0.77635 0.54116 0.0123 0.0
C27 C 0.76229 0.5383 0.97625 0.0
C28 C 0.80548 0.55974 0.98822 0.0
C29 C 0.8075 0.52405 0.00725 0.0
C30 C 0.69215 0.53541 0.98607 0.0
C31 C 0.67907 0.53548 0.02568 0.0
C32 C 0.68538 0.53635 0.07658 0.0
C33 C 0.70471 0.53756 0.08734 0.0
C34 C 0.71771 0.5377 0.04672 0.0
C35 C 0.71114 0.53638 0.99722 0.0
C36 C 0.7264 0.53531 0.95838 0.0
C37 C 0.74338 0.53748 0.99186 0.0
C38 C 0.7385 0.53882 0.04389 0.0
C39 C 0.72424 0.55194 0.92094 0.0
C40 C 0.72549 0.51577 0.93296 0.0
H41 H 0.81164 0.55142 0.08231 0.0
H42 H 0.77209 0.54152 0.23599 0.0
H43 H 0.75446 0.51128 0.15216 0.0
H44 H 0.73103 0.51884 0.14492 0.0
H45 H 0.74316 0.52357 0.20338 0.0
H46 H 0.74957 0.5716 0.15119 0.0
H47 H 0.73963 0.55772 0.20171 0.0
H48 H 0.72779 0.56056 0.14172 0.0
H49 H 0.81769 0.5324 0.90027 0.0
H50 H 0.77071 0.52159 0.80182 0.0
H51 H 0.7494 0.52993 0.86962 0.0
H52 H 0.8023 0.56823 0.95371 0.0
H53 H 0.8209 0.55814 0.99001 0.0
H54 H 0.80074 0.56844 0.02065 0.0
H55 H 0.80133 0.51049 0.99545 0.0
H56 H 0.80836 0.52335 0.04914 0.0
H57 H 0.82194 0.52476 0.99174 0.0
H58 H 0.82568 0.55232 0.16508 0.0
C59 C 0.8026 0.54923 0.11436 0.0
C60 C 0.03083 0.79114 0.88995 0.0
C61 C 0.02936 0.81061 0.89047 0.0
C62 C 0.02058 0.8195 0.93181 0.0
C63 C 0.01527 0.78964 0.97243 0.0
C64 C 0.02346 0.78093 0.93109 0.0
C65 C 0.02282 0.76007 0.93594 0.0
H66 H 0.99613 0.6827 0.06495 0.0
C67 C 0.00947 0.77511 0.00924 0.0
C68 C 0.01364 0.75777 0.98808 0.0
H69 H 0.02122 0.688 0.9151 0.0
H70 H 0.02331 0.72093 0.92492 0.0
H71 H 0.02538 0.71525 0.1164 0.0
H72 H 0.96844 0.72124 0.06203 0.0
H73 H 0.97151 0.72938 0.12549 0.0
H74 H 0.97447 0.70508 0.11201 0.0
H75 H 0.00614 0.70424 0.14889 0.0
H76 H 0.01168 0.72847 0.15891 0.0
C77 C 0.04321 0.7528 0.93585 0.0
C78 C 0.01042 0.75241 0.89215 0.0
C79 C 0.98449 0.79581 0.17952 0.0
C80 C 0.98071 0.78682 0.22581 0.0
C81 C 0.98193 0.76719 0.22821 0.0
C82 C 0.98676 0.75677 0.18434 0.0
C83 C 0.99093 0.76616 0.13828 0.0
C84 C 0.98985 0.78542 0.13711 0.0
C85 C 0.99642 0.79363 0.08777 0.0
C86 C 0.00171 0.77626 0.05886 0.0
C87 C 0.99814 0.75999 0.08762 0.0
C88 C 0.01363 0.8062 0.09898 0.0
C89 C 0.97968 0.80384 0.06271 0.0
C90 C 0.00196 0.69112 0.03444 0.0
C91 C 0.00859 0.6827 0.98913 0.0
C92 C 0.01627 0.69404 0.9505 0.0
C93 C 0.01733 0.71328 0.95607 0.0
C94 C 0.01062 0.72158 0.0008 0.0
C95 C 0.00329 0.71069 0.03965 0.0
C96 C 0.99781 0.7225 0.08525 0.0
C97 C 0.00169 0.74217 0.06522 0.0
C98 C 0.00938 0.74127 0.01577 0.0
C99 C 0.0108 0.71736 0.13008 0.0
C100 C 0.97693 0.7194 0.09717 0.0
H101 H 0.00718 0.81677 0.00333 0.0
H102 H 0.03724 0.78404 0.85795 0.0
H103 H 0.00071 0.7632 0.87711 0.0
H104 H 0.00111 0.74097 0.90496 0.0
H105 H 0.01903 0.74749 0.85956 0.0
H106 H 0.05244 0.76224 0.95806 0.0
H107 H 0.04887 0.75206 0.89639 0.0
H108 H 0.0447 0.73902 0.95426 0.0
H109 H 0.9842 0.81089 0.17695 0.0
H110 H 0.97923 0.76 0.26389 0.0
H111 H 0.98738 0.74188 0.18798 0.0
H112 H 0.02158 0.80099 0.13256 0.0
H113 H 0.00933 0.82074 0.10732 0.0
H114 H 0.02402 0.80634 0.06772 0.0
H115 H 0.96628 0.79656 0.07132 0.0
H116 H 0.98051 0.80409 0.02058 0.0
H117 H 0.97842 0.81834 0.07697 0.0
H118 H 0.0193 0.83455 0.93246 0.0
C119 C 0.01357 0.80914 0.97284 0.0
C120 C 0.82691 0.97546 0.05149 0.0
C121 C 0.83576 0.97536 0.00319 0.0
C122 C 0.82489 0.97349 0.95902 0.0
C123 C 0.79675 0.97253 0.00986 0.0
C124 C 0.80724 0.9737 0.05391 0.0
C125 C 0.79488 0.97286 0.10105 0.0
H126 H 0.70584 0.9621 0.19486 0.0
C127 C 0.7769 0.97116 0.02389 0.0
C128 C 0.77547 0.97073 0.07746 0.0
H129 H 0.7554 0.97201 0.28387 0.0
H130 H 0.77428 0.97255 0.20594 0.0
H131 H 0.71291 0.99238 0.12441 0.0
H132 H 0.72357 0.93407 0.10827 0.0
H133 H 0.71393 0.94187 0.05024 0.0
H134 H 0.70078 0.94449 0.10862 0.0
H135 H 0.69548 0.97697 0.09974 0.0
H136 H 0.71185 0.98891 0.05848 0.0
C137 C 0.79688 0.99142 0.13011 0.0
C138 C 0.80042 0.95563 0.13294 0.0
C139 C 0.72792 0.97928 0.88632 0.0
C140 C 0.70833 0.97934 0.88811 0.0
C141 C 0.69915 0.97344 0.933 0.0
C142 C 0.70933 0.96874 0.97659 0.0
C143 C 0.7289 0.97005 0.97543 0.0
C144 C 0.7379 0.97447 0.93031 0.0
C145 C 0.75878 0.97423 0.93584 0.0
C146 C 0.76069 0.97081 0.993 0.0
C147 C 0.74316 0.96846 0.01574 0.0
C148 C 0.76639 0.99362 0.91976 0.0
C149 C 0.76648 0.95773 0.90378 0.0
C150 C 0.72084 0.96387 0.19787 0.0
C151 C 0.72921 0.96651 0.24546 0.0
C152 C 0.74868 0.9697 0.24748 0.0
C153 C 0.75956 0.97005 0.20229 0.0
C154 C 0.75077 0.96765 0.15467 0.0
C155 C 0.73164 0.96482 0.15355 0.0
C156 C 0.72391 0.96469 0.10066 0.0
C157 C 0.74153 0.96723 0.06951 0.0
C158 C 0.75746 0.96871 0.10076 0.0
C159 C 0.71026 0.98146 0.09525 0.0
C160 C 0.71492 0.94535 0.09119 0.0
H161 H 0.79821 0.97099 0.92681 0.0
H162 H 0.83505 0.97679 0.08603 0.0
H163 H 0.80144 0.94311 0.10819 0.0
H164 H 0.79009 0.95226 0.16286 0.0
H165 H 0.81422 0.95778 0.15134 0.0
H166 H 0.79668 0.00341 0.10307 0.0
H167 H 0.81028 0.99189 0.15136 0.0
H168 H 0.78528 0.99387 0.15705 0.0
H169 H 0.73527 0.98339 0.85186 0.0
H170 H 0.68403 0.97337 0.93525 0.0
H171 H 0.70152 0.96489 0.00996 0.0
H172 H 0.75778 0.00489 0.93691 0.0
H173 H 0.76601 0.99534 0.87763 0.0
H174 H 0.78081 0.99624 0.93253 0.0
H175 H 0.75534 0.94766 0.89298 0.0
H176 H 0.77675 0.94927 0.92541 0.0
H177 H 0.77307 0.9627 0.86778 0.0
H178 H 0.83145 0.97344 0.92165 0.0
C179 C 0.80555 0.97207 0.96208 0.0
C180 C 0.5313 0.73655 0.20834 0.0
C181 C 0.53282 0.71714 0.21642 0.0
C182 C 0.52873 0.70491 0.17616 0.0
C183 C 0.52005 0.73084 0.12239 0.0
C184 C 0.52519 0.74313 0.16036 0.0
C185 C 0.52336 0.76317 0.14247 0.0
H186 H 0.49084 0.82264 0.95881 0.0
C187 C 0.51242 0.74157 0.07932 0.0
C188 C 0.51432 0.76062 0.09022 0.0
H189 H 0.52502 0.83723 0.08797 0.0
H190 H 0.52491 0.80475 0.11624 0.0
H191 H 0.51489 0.78827 0.92798 0.0
H192 H 0.46407 0.79284 0.01523 0.0
H193 H 0.46207 0.7724 0.97905 0.0
H194 H 0.46429 0.79462 0.94693 0.0
H195 H 0.49287 0.79453 0.90017 0.0
H196 H 0.49977 0.77058 0.90729 0.0
C197 C 0.54323 0.77156 0.13798 0.0
C198 C 0.5105 0.77382 0.17961 0.0
C199 C 0.48225 0.70645 0.93392 0.0
C200 C 0.47188 0.71207 0.89131 0.0
C201 C 0.46786 0.73107 0.88402 0.0
C202 C 0.47474 0.74443 0.91824 0.0
C203 C 0.4856 0.73862 0.96014 0.0
C204 C 0.48879 0.71986 0.96787 0.0
C205 C 0.49956 0.71601 0.01574 0.0
C206 C 0.50283 0.73564 0.035 0.0
C207 C 0.49491 0.74879 0.00202 0.0
C208 C 0.51816 0.70635 0.00063 0.0
C209 C 0.48678 0.70445 0.05202 0.0
C210 C 0.49805 0.81893 0.99369 0.0
C211 C 0.50771 0.83244 0.02162 0.0
C212 C 0.51742 0.82698 0.06599 0.0
C213 C 0.51746 0.80818 0.08201 0.0
C214 C 0.50812 0.79472 0.05251 0.0
C215 C 0.49868 0.80031 0.00908 0.0
C216 C 0.49078 0.78431 0.97962 0.0
C217 C 0.49729 0.76804 0.01167 0.0
C218 C 0.50717 0.77406 0.05505 0.0
C219 C 0.49987 0.78435 0.92577 0.0
C220 C 0.46919 0.78608 0.97968 0.0
H221 H 0.51905 0.70144 0.10109 0.0
H222 H 0.53466 0.74624 0.23854 0.0
H223 H 0.49728 0.76597 0.18596 0.0
H224 H 0.50656 0.7877 0.16493 0.0
H225 H 0.51738 0.77571 0.21717 0.0
H226 H 0.55359 0.76075 0.12675 0.0
H227 H 0.54784 0.77754 0.1749 0.0
H228 H 0.54427 0.78232 0.10791 0.0
H229 H 0.48522 0.69184 0.94068 0.0
H230 H 0.45981 0.73556 0.8513 0.0
H231 H 0.47154 0.75876 0.91039 0.0
H232 H 0.52332 0.71153 0.96306 0.0
H233 H 0.51635 0.69102 0.99754 0.0
H234 H 0.52967 0.70936 0.02743 0.0
H235 H 0.47175 0.70765 0.04558 0.0
H236 H 0.48898 0.70765 0.09275 0.0
H237 H 0.48867 0.68926 0.04599 0.0
H238 H 0.52971 0.68996 0.18157 0.0
C239 C 0.52235 0.71161 0.12948 0.0
C240 C 0.32331 0.48169 0.1604 0.0
C241 C 0.33041 0.48482 0.20984 0.0
C242 C 0.31797 0.48692 0.25093 0.0
C243 C 0.2917 0.48239 0.19473 0.0
C244 C 0.30377 0.48036 0.15377 0.0
C245 C 0.29313 0.47689 0.10473 0.0
H246 H 0.20842 0.45591 0.99768 0.0
C247 C 0.27248 0.47936 0.17696 0.0
C248 C 0.27304 0.47548 0.12437 0.0
H249 H 0.25897 0.46942 0.91567 0.0
H250 H 0.27576 0.47258 0.99646 0.0
H251 H 0.22675 0.43261 0.09717 0.0
H252 H 0.20907 0.48732 0.05643 0.0
H253 H 0.20791 0.48803 0.12292 0.0
H254 H 0.1935 0.4717 0.08862 0.0
H255 H 0.20301 0.44 0.08864 0.0
H256 H 0.21437 0.44154 0.1499 0.0
C257 C 0.29988 0.45848 0.0808 0.0
C258 C 0.29589 0.49399 0.06952 0.0
C259 C 0.21757 0.49183 0.29495 0.0
C260 C 0.19827 0.48909 0.2888 0.0
C261 C 0.19176 0.47841 0.24758 0.0
C262 C 0.20416 0.4718 0.21064 0.0
C263 C 0.22324 0.476 0.21483 0.0
C264 C 0.22983 0.48489 0.25778 0.0
C265 C 0.25081 0.48643 0.25737 0.0
C266 C 0.25528 0.47926 0.20402 0.0
C267 C 0.23904 0.47343 0.17941 0.0
C268 C 0.25854 0.47343 0.29989 0.0
C269 C 0.25622 0.50719 0.26357 0.0
C270 C 0.22327 0.45897 0.997 0.0
C271 C 0.23253 0.46193 0.95067 0.0
C272 C 0.25163 0.46683 0.95122 0.0
C273 C 0.26124 0.46885 0.99799 0.0
C274 C 0.2514 0.46666 0.04436 0.0
C275 C 0.23264 0.46196 0.04277 0.0
C276 C 0.22326 0.46313 0.09367 0.0
C277 C 0.23943 0.46906 0.12681 0.0
C278 C 0.25615 0.47062 0.09859 0.0
C279 C 0.21631 0.44335 0.1083 0.0
C280 C 0.20758 0.47817 0.09058 0.0
H281 H 0.29008 0.48764 0.27656 0.0
H282 H 0.33269 0.48014 0.12819 0.0
H283 H 0.29573 0.50712 0.09198 0.0
H284 H 0.28458 0.49555 0.04139 0.0
H285 H 0.3095 0.49325 0.0491 0.0
H286 H 0.29942 0.44704 0.10954 0.0
H287 H 0.3145 0.45982 0.06684 0.0
H288 H 0.2911 0.45408 0.0485 0.0
H289 H 0.22287 0.49957 0.32722 0.0
H290 H 0.17693 0.47603 0.24244 0.0
H291 H 0.1983 0.46429 0.17927 0.0
H292 H 0.24781 0.46349 0.31447 0.0
H293 H 0.26356 0.48153 0.33317 0.0
H294 H 0.27006 0.46447 0.28575 0.0
H295 H 0.24773 0.51609 0.23768 0.0
H296 H 0.27096 0.51005 0.25379 0.0
H297 H 0.25373 0.51193 0.30332 0.0
H298 H 0.32322 0.48946 0.28904 0.0
C299 C 0.29873 0.48575 0.24367 0.0
C300 C 0.9538 0.21481 0.27233 0.0
C301 C 0.94696 0.19717 0.25815 0.0
C302 C 0.94821 0.19175 0.2066 0.0
C303 C 0.96538 0.21991 0.18629 0.0
C304 C 0.96293 0.2259 0.23583 0.0
C305 C 0.9722 0.24442 0.24502 0.0
H306 H 0.026 0.31588 0.16035 0.0
C307 C 0.97765 0.23341 0.15981 0.0
C308 C 0.98154 0.24792 0.19359 0.0
H309 H 0.99679 0.30972 0.30417 0.0
H310 H 0.98533 0.27983 0.27876 0.0
H311 H 0.04056 0.2714 0.16019 0.0
H312 H 0.99329 0.29667 0.08348 0.0
H313 H 0.00754 0.28363 0.04108 0.0
H314 H 0.01697 0.30393 0.07146 0.0
H315 H 0.04372 0.28725 0.10764 0.0
H316 H 0.03864 0.26292 0.0975 0.0
C317 C 0.98678 0.24186 0.28812 0.0
C318 C 0.95671 0.25893 0.25673 0.0
C319 C 0.00226 0.21616 0.98599 0.0
C320 C 0.01633 0.22321 0.9541 0.0
C321 C 0.02549 0.23987 0.96798 0.0
C322 C 0.02045 0.24936 0.01318 0.0
C323 C 0.00647 0.24181 0.04527 0.0
C324 C 0.99781 0.22538 0.03113 0.0
C325 C 0.98462 0.2181 0.07083 0.0
C326 C 0.9865 0.23286 0.11142 0.0
C327 C 0.99908 0.247 0.0965 0.0
C328 C 0.99192 0.19878 0.08902 0.0
C329 C 0.96471 0.21785 0.04769 0.0
C330 C 0.01707 0.308 0.18596 0.0
C331 C 0.01229 0.31513 0.23445 0.0
C332 C 0.00081 0.30446 0.26701 0.0
C333 C 0.99404 0.28711 0.25201 0.0
C334 C 0.99885 0.28007 0.20391 0.0
C335 C 0.0103 0.29028 0.17163 0.0
C336 C 0.01435 0.27976 0.12279 0.0
C337 C 0.00241 0.2623 0.13006 0.0
C338 C 0.99358 0.26265 0.17812 0.0
C339 C 0.03544 0.27513 0.12143 0.0
C340 C 0.00778 0.29159 0.07698 0.0
H341 H 0.95837 0.19775 0.13256 0.0
H342 H 0.9528 0.2195 0.31148 0.0
H343 H 0.94298 0.25464 0.24079 0.0
H344 H 0.95956 0.27265 0.23885 0.0
H345 H 0.95479 0.2608 0.29846 0.0
H346 H 0.99427 0.22837 0.2838 0.0
H347 H 0.97995 0.24184 0.32625 0.0
H348 H 0.99785 0.25258 0.28767 0.0
H349 H 0.99536 0.20312 0.97711 0.0
H350 H 0.03648 0.24548 0.94394 0.0
H351 H 0.02773 0.26204 0.02183 0.0
H352 H 0.00735 0.19768 0.08455 0.0
H353 H 0.98556 0.18728 0.06677 0.0
H354 H 0.98952 0.19619 0.13008 0.0
H355 H 0.96262 0.22991 0.02149 0.0
H356 H 0.95359 0.21925 0.07681 0.0
H357 H 0.96228 0.20494 0.0254 0.0
H358 H 0.94323 0.17821 0.19453 0.0
C359 C 0.95729 0.20304 0.17066 0.0
C360 C 0.27581 0.04591 0.98625 0.0
C361 C 0.29523 0.04896 0.98102 0.0
C362 C 0.30626 0.05069 0.025 0.0
C363 C 0.27937 0.04459 0.07842 0.0
C364 C 0.26809 0.04416 0.03574 0.0
C365 C 0.2477 0.04185 0.05048 0.0
H366 H 0.18447 0.02732 0.24368 0.0
C367 C 0.26778 0.04077 0.12378 0.0
C368 C 0.24903 0.03948 0.10835 0.0
H369 H 0.17155 0.0373 0.08543 0.0
H370 H 0.2049 0.03911 0.06514 0.0
H371 H 0.2153 0.99879 0.22307 0.0
H372 H 0.21746 0.05732 0.25526 0.0
H373 H 0.23439 0.04619 0.2933 0.0
H374 H 0.21022 0.03976 0.3002 0.0
H375 H 0.21509 0.00723 0.2873 0.0
H376 H 0.23667 0.00198 0.25435 0.0
C377 C 0.23991 0.02423 0.02449 0.0
C378 C 0.23729 0.05991 0.03558 0.0
C379 C 0.30025 0.02595 0.29068 0.0
C380 C 0.29379 0.0189 0.33755 0.0
C381 C 0.27446 0.01688 0.34577 0.0
C382 C 0.26173 0.02166 0.30734 0.0
C383 C 0.26845 0.02816 0.25991 0.0
C384 C 0.28743 0.03024 0.25238 0.0
C385 C 0.29219 0.03615 0.19886 0.0
C386 C 0.27288 0.03701 0.17507 0.0
C387 C 0.25911 0.03253 0.21108 0.0
C388 C 0.30447 0.02064 0.17495 0.0
C389 C 0.30161 0.05564 0.20106 0.0
C390 C 0.18885 0.03006 0.20472 0.0
C391 C 0.17562 0.03243 0.16623 0.0
C392 C 0.18168 0.0356 0.11569 0.0
C393 C 0.20096 0.03674 0.10418 0.0
C394 C 0.21413 0.03466 0.14371 0.0
C395 C 0.20781 0.03118 0.19284 0.0
C396 C 0.2233 0.02861 0.2303 0.0
C397 C 0.2401 0.03215 0.1966 0.0
C398 C 0.23489 0.03559 0.1456 0.0
C399 C 0.2226 0.00819 0.25021 0.0
C400 C 0.2213 0.04363 0.27232 0.0
H401 H 0.30778 0.04964 0.10515 0.0
H402 H 0.26699 0.04492 0.95289 0.0
H403 H 0.24588 0.07238 0.04475 0.0
H404 H 0.22411 0.06175 0.05681 0.0
H405 H 0.23431 0.06023 0.99401 0.0
H406 H 0.24965 0.01232 0.02981 0.0
H407 H 0.23814 0.02655 0.98285 0.0
H408 H 0.22637 0.01979 0.04067 0.0
H409 H 0.31509 0.02729 0.28311 0.0
H410 H 0.26925 0.01148 0.38176 0.0
H411 H 0.24719 0.01985 0.31587 0.0
H412 H 0.29902 0.00661 0.18551 0.0
H413 H 0.31909 0.02158 0.18875 0.0
H414 H 0.30467 0.02081 0.13294 0.0
H415 H 0.29786 0.06324 0.23658 0.0
H416 H 0.29693 0.06494 0.16978 0.0
H417 H 0.31708 0.05449 0.19986 0.0
H418 H 0.32118 0.05309 0.02177 0.0
C419 C 0.29847 0.04855 0.07344 0.0
C420 C 0.48089 0.27924 -0.00037 0.0
C421 C 0.47934 0.29862 0.99149 0.0
C422 C 0.48314 0.31092 0.0317 0.0
C423 C 0.49141 0.28506 0.08623 0.0
C424 C 0.48672 0.27273 0.0479 0.0
C425 C 0.4887 0.25271 0.06562 0.0
H426 H 0.52021 0.19316 0.25014 0.0
C427 C 0.49859 0.27436 0.12995 0.0
C428 C 0.49708 0.2553 0.11865 0.0
H429 H 0.48849 0.17846 0.11649 0.0
H430 H 0.4878 0.21112 0.09015 0.0
H431 H 0.5468 0.22406 0.19868 0.0
H432 H 0.49448 0.22686 0.27969 0.0
H433 H 0.50877 0.24483 0.30282 0.0
H434 H 0.51615 0.22102 0.31006 0.0
H435 H 0.54546 0.22171 0.26677 0.0
H436 H 0.54769 0.24423 0.23629 0.0
C437 C 0.50222 0.24243 0.02938 0.0
C438 C 0.46896 0.24393 0.06821 0.0
C439 C 0.52569 0.30959 0.27958 0.0
C440 C 0.53538 0.30403 0.32343 0.0
C441 C 0.53949 0.28507 0.33104 0.0
C442 C 0.53338 0.27168 0.29585 0.0
C443 C 0.52322 0.27742 0.25258 0.0
C444 C 0.51991 0.29615 0.24468 0.0
C445 C 0.50997 0.29995 0.19546 0.0
C446 C 0.50732 0.28032 0.17553 0.0
C447 C 0.51484 0.2672 0.20934 0.0
C448 C 0.52321 0.31174 0.16099 0.0
C449 C 0.491 0.30933 0.2082 0.0
C450 C 0.51336 0.19693 0.21476 0.0
C451 C 0.50465 0.18333 0.18489 0.0
C452 C 0.49537 0.18879 0.13988 0.0
C453 C 0.4949 0.2077 0.12494 0.0
C454 C 0.50338 0.22122 0.15611 0.0
C455 C 0.51232 0.21562 0.20032 0.0
C456 C 0.51932 0.23167 0.2313 0.0
C457 C 0.51296 0.24794 0.19901 0.0
C458 C 0.50388 0.2419 0.15437 0.0
C459 C 0.54092 0.23041 0.23393 0.0
C460 C 0.50934 0.23114 0.28393 0.0
H461 H 0.49218 0.3145 0.10734 0.0
H462 H 0.47777 0.26954 0.96927 0.0
H463 H 0.45828 0.25449 0.07883 0.0
H464 H 0.46779 0.23303 0.09792 0.0
H465 H 0.46489 0.23798 0.03077 0.0
H466 H 0.51525 0.25067 0.02393 0.0
H467 H 0.49575 0.24035 0.99135 0.0
H468 H 0.50647 0.22868 0.0443 0.0
H469 H 0.5227 0.32417 0.27248 0.0
H470 H 0.54704 0.28061 0.36469 0.0
H471 H 0.53663 0.25737 0.30393 0.0
H472 H 0.53815 0.30907 0.17006 0.0
H473 H 0.5207 0.32689 0.16604 0.0
H474 H 0.52203 0.30826 0.12008 0.0
H475 H 0.4851 0.30374 0.2445 0.0
H476 H 0.48013 0.30653 0.17937 0.0
H477 H 0.49262 0.32463 0.21271 0.0
H478 H 0.482 0.32585 0.02601 0.0
C479 C 0.48917 0.30429 0.07881 0.0
Zn480 Zn 0.01227 0.02591 0.612 0.0
Zn481 Zn -0.00015 0.98653 0.56683 0.0
C482 C 0.01055 0.0599 0.66663 0.0
O483 O 0.99281 0.05532 0.66326 0.0
C484 C 0.00199 0.95363 0.50724 0.0
O485 O 0.01936 0.95957 0.50605 0.0
O486 O 0.99234 0.03643 0.56622 0.0
O487 O 0.03236 0.01484 0.56619 0.0
O488 O 0.01168 0.00312 0.51315 0.0
C489 C 0.99813 0.04813 0.53326 0.0
O490 O 0.01615 0.05145 0.52984 0.0
O491 O 0.0227 0.04886 0.64803 0.0
C492 C 0.01593 0.9654 0.64621 0.0
O493 O 0.99814 0.96354 0.65756 0.0
O494 O 0.02063 0.97587 0.60919 0.0
O495 O 0.97973 0.99675 0.61445 0.0
O496 O -0.00022 0.01017 0.66634 0.0
O497 O 0.98983 0.96344 0.53046 0.0
C498 C 0.02788 0.00978 0.52129 0.0
C499 C 0.98388 0.00277 0.65869 0.0
Zn500 Zn 0.4882 0.0144 0.62168 0.0
Zn501 Zn 0.52729 -0.00058 0.57644 0.0
C502 C 0.45369 0.01441 0.67469 0.0
O503 O 0.45668 0.99653 0.66769 0.0
C504 C 0.56212 0.0011 0.52562 0.0
O505 O 0.55785 0.01876 0.53152 0.0
O506 O 0.47499 0.99743 0.57284 0.0
O507 O 0.50172 0.03442 0.58066 0.0
O508 O 0.5131 0.01458 0.52462 0.0
C509 C 0.46495 0.00582 0.54023 0.0
O510 O 0.46623 0.02403 0.53638 0.0
O511 O 0.46615 0.02597 0.65993 0.0
C512 C 0.549 0.00895 0.66006 0.0
O513 O 0.54807 0.99073 0.66429 0.0
O514 O 0.53934 0.01699 0.62597 0.0
O515 O 0.51406 0.97897 0.61689 0.0
O516 O 0.50212 0.99863 0.67261 0.0
O517 O 0.55028 0.98882 0.53993 0.0
C518 C 0.50741 0.03087 0.53562 0.0
C519 C 0.50789 0.98237 0.66159 0.0
Zn520 Zn 0.49955 0.49045 0.63467 0.0
Zn521 Zn 0.51271 0.5282 0.58902 0.0
C522 C 0.50038 0.45585 0.68716 0.0
O523 O 0.51829 0.45937 0.68156 0.0
C524 C 0.5103 0.56358 0.54046 0.0
O525 O 0.49259 0.55974 0.54872 0.0
O526 O 0.51871 0.47893 0.58816 0.0
O527 O 0.47921 0.50204 0.59067 0.0
O528 O 0.49965 0.51286 0.53519 0.0
C529 C 0.51228 0.46774 0.55514 0.0
O530 O 0.49408 0.4661 0.55038 0.0
O531 O 0.48862 0.46786 0.67137 0.0
C532 C 0.49863 0.54956 0.67015 0.0
O533 O 0.51669 0.55217 0.67562 0.0
O534 O 0.49298 0.53832 0.63625 0.0
O535 O 0.53344 0.51708 0.63272 0.0
O536 O 0.51323 0.50554 0.68784 0.0
O537 O 0.52255 0.55156 0.55307 0.0
C538 C 0.48329 0.50691 0.54517 0.0
C539 C 0.52948 0.51184 0.678 0.0
Zn540 Zn 0.02943 0.49504 0.63224 0.0
Zn541 Zn 0.99028 0.50851 0.57875 0.0
C542 C 0.06296 0.49643 0.69012 0.0
O543 O 0.05904 0.51423 0.68498 0.0
C544 C 0.95809 0.5087 0.51585 0.0
O545 O 0.9614 0.49079 0.52124 0.0
O546 O 0.04288 0.51318 0.58648 0.0
O547 O 0.01894 0.47429 0.58873 0.0
O548 O 0.00591 0.4925 0.5309 0.0
C549 C 0.04004 0.52516 0.55156 0.0
O550 O 0.02307 0.52827 0.53473 0.0
O551 O 0.0514 0.48451 0.67282 0.0
C552 C 0.96494 0.49928 0.65645 0.0
O553 O 0.96654 0.51734 0.66297 0.0
O554 O 0.97528 0.49131 0.62367 0.0
O555 O 0.00205 0.52859 0.6242 0.0
O556 O 0.01283 0.50886 0.68158 0.0
O557 O 0.96952 0.52024 0.5356 0.0
C558 C 0.01336 0.47704 0.54324 0.0
C559 C 0.00686 0.52499 0.66997 0.0
H560 H 0.15239 0.00257 0.16006 0.0
H561 H 0.12318 0.9982 0.20821 0.0
H562 H 0.12615 0.05519 0.25934 0.0
H563 H 0.15518 0.05952 0.21099 0.0
H564 H 0.12292 0.00137 0.3124 0.0
H565 H 0.07052 0.04951 0.23038 0.0
H566 H 0.09129 0.04255 0.19602 0.0
H567 H 0.09247 0.06065 0.24321 0.0
C568 C 0.14627 0.01435 0.17966 0.0
C569 C 0.15571 0.03149 0.18101 0.0
C570 C 0.12971 0.01183 0.20756 0.0
C571 C 0.12234 0.02642 0.2371 0.0
C572 C 0.13126 0.04386 0.23598 0.0
H573 H 0.06414 0.02204 0.5251 0.0
H574 H 0.08627 0.02536 0.45426 0.0
C575 C 0.14782 0.04636 0.20825 0.0
C576 C 0.10705 0.02278 0.27446 0.0
H577 H 0.06456 0.03856 0.31569 0.0
C578 C 0.11006 0.00934 0.31266 0.0
C579 C 0.09022 0.03312 0.27484 0.0
C580 C 0.08581 0.04714 0.23362 0.0
C581 C 0.09703 0.00642 0.35211 0.0
C582 C 0.08063 0.01737 0.35386 0.0
C583 C 0.07726 0.03033 0.31466 0.0
C584 C 0.06701 0.01573 0.39658 0.0
C585 C 0.10096 0.99164 0.39174 0.0
C586 C 0.04872 0.00957 0.38757 0.0
C587 C 0.03602 0.00763 0.42803 0.0
C588 C 0.04132 0.01199 0.47831 0.0
C589 C 0.05959 0.01846 0.487 0.0
C590 C 0.07229 0.02031 0.44655 0.0
H591 H 0.11152 0.98144 0.37816 0.0
H592 H 0.10649 0.99837 0.42664 0.0
H593 H 0.088 0.98401 0.40227 0.0
H594 H 0.04433 0.00603 0.34929 0.0
H595 H 0.02205 0.00268 0.41985 0.0
H596 H 0.5346 0.16185 0.20851 0.0
H597 H 0.53452 0.13305 0.25877 0.0
H598 H 0.47424 0.13307 0.25892 0.0
H599 H 0.47435 0.16168 0.20734 0.0
H600 H 0.52075 0.13202 0.3535 0.0
H601 H 0.485 0.07828 0.23788 0.0
H602 H 0.49381 0.09971 0.21055 0.0
H603 H 0.47185 0.09944 0.24411 0.0
C604 C 0.52136 0.15531 0.21781 0.0
C605 C 0.50448 0.16387 0.20389 0.0
C606 C 0.52131 0.13893 0.24673 0.0
C607 C 0.50438 0.13083 0.26263 0.0
C608 C 0.48748 0.13881 0.24633 0.0
H609 H 0.49239 0.06591 0.54209 0.0
H610 H 0.49112 0.08977 0.4753 0.0
C611 C 0.48753 0.15515 0.21683 0.0
C612 C 0.50457 0.11554 0.30114 0.0
H613 H 0.48918 0.07134 0.32636 0.0
C614 C 0.51394 0.11871 0.34734 0.0
C615 C 0.49575 0.09814 0.29314 0.0
C616 C 0.48618 0.09358 0.24355 0.0
C617 C 0.51463 0.10509 0.38582 0.0
C618 C 0.50532 0.08791 0.37853 0.0
C619 C 0.49614 0.0846 0.33212 0.0
C620 C 0.50531 0.07314 0.41841 0.0
C621 C 0.52563 0.10912 0.43358 0.0
C622 C 0.51325 0.05567 0.40825 0.0
C623 C 0.51391 0.04195 0.44628 0.0
C624 C 0.50659 0.04541 0.49526 0.0
C625 C 0.49835 0.06283 0.50502 0.0
C626 C 0.49764 0.07652 0.46689 0.0
H627 H 0.53585 0.12059 0.42754 0.0
H628 H 0.51588 0.11343 0.46435 0.0
H629 H 0.53328 0.09655 0.44676 0.0
H630 H 0.51921 0.05274 0.37108 0.0
H631 H 0.52031 0.02868 0.43734 0.0
H632 H 0.35316 0.515 0.20072 0.0
H633 H 0.3831 0.51948 0.24462 0.0
H634 H 0.38178 0.46213 0.29442 0.0
H635 H 0.35205 0.45769 0.25017 0.0
H636 H 0.38534 0.51606 0.34772 0.0
H637 H 0.4367 0.46846 0.25898 0.0
H638 H 0.41526 0.47512 0.22769 0.0
H639 H 0.4152 0.45695 0.2752 0.0
C640 C 0.35978 0.50317 0.21897 0.0
C641 C 0.3506 0.4859 0.22116 0.0
C642 C 0.37676 0.50576 0.24451 0.0
C643 C 0.38483 0.49111 0.27256 0.0
C644 C 0.37614 0.47354 0.27213 0.0
H645 H 0.44684 0.49548 0.55334 0.0
H646 H 0.4238 0.49245 0.48518 0.0
C647 C 0.35917 0.47097 0.24672 0.0
C648 C 0.40069 0.49474 0.30789 0.0
H649 H 0.4438 0.47904 0.34377 0.0
C650 C 0.39822 0.50812 0.34636 0.0
C651 C 0.41756 0.48448 0.30618 0.0
C652 C 0.42145 0.47058 0.26447 0.0
C653 C 0.41182 0.51104 0.38406 0.0
C654 C 0.42826 0.50012 0.38387 0.0
C655 C 0.43109 0.48724 0.34432 0.0
C656 C 0.44245 0.50166 0.42501 0.0
C657 C 0.40842 0.52578 0.42393 0.0
C658 C 0.46075 0.50746 0.41379 0.0
C659 C 0.47399 0.50921 0.45275 0.0
C660 C 0.46925 0.50502 0.50374 0.0
C661 C 0.45097 0.49893 0.51465 0.0
C662 C 0.43774 0.49725 0.47572 0.0
H663 H 0.39785 0.53611 0.4112 0.0
H664 H 0.40313 0.51905 0.45933 0.0
H665 H 0.42155 0.53327 0.43326 0.0
H666 H 0.46472 0.51085 0.37492 0.0
H667 H 0.48795 0.51386 0.44286 0.0
H668 H 0.03037 0.32308 0.32262 0.0
H669 H 0.0338 0.35363 0.36252 0.0
H670 H 0.01109 0.37984 0.22806 0.0
H671 H 0.00743 0.34907 0.18805 0.0
H672 H 0.05146 0.38785 0.33678 0.0
H673 H 0.97393 0.39386 0.34244 0.0
H674 H 0.98559 0.37229 0.32728 0.0
H675 H 0.98434 0.39061 0.28059 0.0
C676 C 0.02652 0.3354 0.3011 0.0
C677 C 0.01852 0.33372 0.2524 0.0
C678 C 0.02847 0.35285 0.32394 0.0
C679 C 0.02235 0.36899 0.29875 0.0
C680 C 0.01562 0.36752 0.24854 0.0
H681 H 0.00206 0.47748 0.44327 0.0
H682 H 0.00546 0.4528 0.3797 0.0
C683 C 0.01373 0.34999 0.22547 0.0
C684 C 0.02163 0.3869 0.32719 0.0
H685 H 0.9911 0.41741 0.38262 0.0
C686 C 0.03829 0.39445 0.34635 0.0
C687 C 0.00442 0.39547 0.33984 0.0
C688 C 0.986 0.38764 0.3219 0.0
C689 C 0.03818 0.41016 0.37833 0.0
C690 C 0.02092 0.41831 0.39246 0.0
C691 C 0.00432 0.41114 0.3719 0.0
C692 C 0.01964 0.43366 0.43043 0.0
C693 C 0.05657 0.41786 0.39672 0.0
C694 C 0.02627 0.43109 0.48035 0.0
C695 C 0.02433 0.44518 0.5168 0.0
C696 C 0.01559 0.46214 0.50432 0.0
C697 C 0.00891 0.46466 0.45426 0.0
C698 C 0.01085 0.45054 0.41783 0.0
H699 H 0.06822 0.41401 0.37069 0.0
H700 H 0.05608 0.43327 0.39999 0.0
H701 H 0.0597 0.41195 0.43493 0.0
H702 H 0.03267 0.41804 0.49143 0.0
H703 H 0.02958 0.44268 0.555 0.0
H704 H 0.86059 0.94923 0.97291 0.0
H705 H 0.89011 0.95541 0.92884 0.0
H706 H 0.88547 0.01369 0.96652 0.0
H707 H 0.85573 0.00744 0.01031 0.0
H708 H 0.88756 0.00791 0.86449 0.0
H709 H 0.94417 0.96824 0.95805 0.0
H710 H 0.92399 0.95409 0.94614 0.0
H711 H 0.92232 0.97335 0.98972 0.0
C712 C 0.86642 0.96317 0.97413 0.0
C713 C 0.8561 0.97781 0.99576 0.0
C714 C 0.88327 0.96673 0.94872 0.0
C715 C 0.89013 0.98502 0.94446 0.0
C716 C 0.88054 -0.00055 0.96956 0.0
H717 H 0.98888 0.01263 0.75872 0.0
H718 H 0.96677 0.00925 0.82963 0.0
C719 C 0.86367 0.99586 0.99514 0.0
C720 C 0.90531 0.98935 0.9072 0.0
H721 H 0.94936 0.97679 0.87 0.0
C722 C 0.90118 0.00131 0.8662 0.0
C723 C 0.92311 0.98081 0.90928 0.0
C724 C 0.92875 0.96855 0.95346 0.0
C725 C 0.91403 0.00441 0.82642 0.0
C726 C 0.93143 0.99508 0.8271 0.0
C727 C 0.93591 0.98372 0.86909 0.0
C728 C 0.94498 0.99678 0.78413 0.0
C729 C 0.90881 0.01759 0.78381 0.0
C730 C 0.94018 0.99066 0.73502 0.0
C731 C 0.95278 0.99255 0.69433 0.0
C732 C 0.9705 0.00057 0.7019 0.0
C733 C 0.97535 0.00645 0.75136 0.0
C734 C 0.96274 0.0045 0.79205 0.0
H735 H 0.89747 0.02725 0.7955 0.0
H736 H 0.92107 0.02595 0.77121 0.0
H737 H 0.90377 0.00942 0.75072 0.0
H738 H 0.92666 0.98436 0.72817 0.0
H739 H 0.94861 0.98775 0.65693 0.0
H740 H 0.53868 0.85296 0.99757 0.0
H741 H 0.53969 0.88092 0.94343 0.0
H742 H 0.47945 0.88269 0.94282 0.0
H743 H 0.47845 0.85461 0.99593 0.0
H744 H 0.49387 0.88197 0.8475 0.0
H745 H 0.52993 0.93639 0.96028 0.0
H746 H 0.54243 0.91474 0.95668 0.0
H747 H 0.52026 0.91559 0.98906 0.0
C748 C 0.52571 0.85975 0.98737 0.0
C749 C 0.50849 0.85168 0.00096 0.0
C750 C 0.52628 0.87571 0.95636 0.0
C751 C 0.50964 0.88396 0.93908 0.0
C752 C 0.49247 0.87657 0.95556 0.0
H753 H 0.49463 0.98466 0.75937 0.0
H754 H 0.49564 0.96083 0.82613 0.0
C755 C 0.4919 0.86059 0.9861 0.0
C756 C 0.50993 0.8988 0.89926 0.0
H757 H 0.52576 0.94265 0.87166 0.0
C758 C 0.50079 0.89527 0.85293 0.0
C759 C 0.51889 0.91617 0.90634 0.0
C760 C 0.52829 0.92107 0.95594 0.0
C761 C 0.50038 0.90855 0.81351 0.0
C762 C 0.50973 0.92575 0.82004 0.0
C763 C 0.51877 0.92938 0.86649 0.0
C764 C 0.50974 0.94033 0.77959 0.0
C765 C 0.48959 0.90418 0.76563 0.0
C766 C 0.51751 0.93681 0.73127 0.0
C767 C 0.51687 0.95039 0.69279 0.0
C768 C 0.50858 0.96783 0.70204 0.0
C769 C 0.50109 0.97139 0.7508 0.0
C770 C 0.5017 0.95779 0.78914 0.0
H771 H 0.47943 0.89266 0.77181 0.0
H772 H 0.48188 0.91662 0.75179 0.0
H773 H 0.49948 0.89981 0.73527 0.0
H774 H 0.5241 0.92355 0.72331 0.0
H775 H 0.52293 0.94724 0.65591 0.0
H776 H 0.65796 0.5622 0.98131 0.0
H777 H 0.62899 0.5574 0.9338 0.0
H778 H 0.62718 0.50027 0.98528 0.0
H779 H 0.65633 0.50513 0.03283 0.0
H780 H 0.62651 0.50382 0.88035 0.0
H781 H 0.57354 0.55057 0.96571 0.0
H782 H 0.59526 0.56213 0.95217 0.0
H783 H 0.59452 0.54376 0.99903 0.0
C784 C 0.65088 0.54888 0.98434 0.0
C785 C 0.65911 0.53414 0.01155 0.0
C786 C 0.63436 0.54611 0.95704 0.0
C787 C 0.62577 0.52851 0.95621 0.0
C788 C 0.63346 0.51401 0.98568 0.0
H789 H 0.52463 0.50446 0.7799 0.0
H790 H 0.54749 0.50768 0.84855 0.0
C791 C 0.64998 0.51683 0.01329 0.0
C792 C 0.61039 0.52473 0.91948 0.0
H793 H 0.56742 0.53986 0.88069 0.0
C794 C 0.61349 0.51154 0.88085 0.0
C795 C 0.59336 0.53474 0.92008 0.0
C796 C 0.58886 0.54847 0.96176 0.0
C797 C 0.60035 0.50855 0.84199 0.0
C798 C 0.58371 0.51918 0.84125 0.0
C799 C 0.58028 0.53188 0.88087 0.0
C800 C 0.56981 0.51739 0.79939 0.0
C801 C 0.60439 0.49403 0.80197 0.0
C802 C 0.57468 0.52199 0.7489 0.0
C803 C 0.56163 0.5202 0.70948 0.0
C804 C 0.5434 0.51379 0.71972 0.0
C805 C 0.53854 0.50936 0.77048 0.0
C806 C 0.55158 0.51123 0.80988 0.0
H807 H 0.61514 0.48393 0.81497 0.0
H808 H 0.59152 0.48624 0.79183 0.0
H809 H 0.60973 0.50101 0.76697 0.0
H810 H 0.58857 0.52706 0.73999 0.0
H811 H 0.56584 0.52384 0.67098 0.0
H812 H 0.97782 0.65991 0.99592 0.0
H813 H 0.97457 0.62877 0.95808 0.0
H814 H 0.03303 0.62955 0.9173 0.0
H815 H 0.03641 0.65994 0.95688 0.0
H816 H 0.97798 0.62144 0.86192 0.0
H817 H 0.0292 0.57696 0.9594 0.0
H818 H 0.02232 0.59927 0.98479 0.0
H819 H 0.04077 0.59767 0.93782 0.0
C820 C 0.9901 0.65301 0.98087 0.0
C821 C 0.00736 0.66234 0.97932 0.0
C822 C 0.98821 0.6353 0.95873 0.0
C823 C 0.00358 0.62662 0.93496 0.0
C824 C 0.02104 0.63556 0.93635 0.0
H825 H 0.0046 0.56285 0.65849 0.0
H826 H 0.00209 0.58634 0.72551 0.0
C827 C 0.02294 0.65306 0.95872 0.0
C828 C 0.00116 0.60958 0.90308 0.0
H829 H 0.0226 0.56875 0.87091 0.0
C830 C 0.98751 0.60974 0.86463 0.0
C831 C 0.01328 0.59404 0.90678 0.0
C832 C 0.02704 0.5919 0.94987 0.0
C833 C 0.98637 0.59541 0.82827 0.0
C834 C -0.0003 0.58082 0.82901 0.0
C835 C 0.01262 0.58009 0.86927 0.0
C836 C 0.00085 0.56647 0.78794 0.0
C837 C 0.97082 0.59614 0.78959 0.0
C838 C 0.00174 0.54742 0.80037 0.0
C839 C 0.00372 0.534 0.76209 0.0
C840 C 0.00466 0.53928 0.71039 0.0
C841 C 0.00368 0.55831 0.69789 0.0
C842 C 0.00206 0.57176 0.73626 0.0
H843 H 0.95843 0.60356 0.80509 0.0
H844 H 0.97566 0.60396 0.75541 0.0
H845 H 0.96643 0.58197 0.77769 0.0
H846 H 0.00094 0.54291 0.8398 0.0
H847 H 0.00437 0.51944 0.77303 0.0
H848 H 0.91796 0.17206 0.25457 0.0
H849 H 0.91396 0.14455 0.30917 0.0
H850 H 0.95975 0.16299 0.40301 0.0
H851 H 0.96376 0.19028 0.34917 0.0
H852 H 0.94035 0.11904 0.31365 0.0
H853 H 0.92625 0.14144 0.5104 0.0
H854 H 0.92258 0.15672 0.45638 0.0
H855 H 0.94535 0.15479 0.4853 0.0
C856 C 0.9268 0.17048 0.28776 0.0
C857 C 0.94126 0.18329 0.29734 0.0
C858 C 0.92445 0.15481 0.31902 0.0
C859 C 0.93643 0.15176 0.3605 0.0
C860 C 0.94997 0.16524 0.37218 0.0
H861 H 0.00604 0.06919 0.44977 0.0
H862 H 0.98554 0.09111 0.40639 0.0
C863 C 0.95229 0.1809 0.34113 0.0
C864 C 0.93738 0.13325 0.38568 0.0
H865 H 0.94604 0.11339 0.50159 0.0
C866 C 0.94098 0.11767 0.35485 0.0
C867 C 0.93787 0.13125 0.43937 0.0
C868 C 0.93258 0.14695 0.47463 0.0
C869 C 0.94701 0.10079 0.37611 0.0
C870 C 0.94979 0.09958 0.42935 0.0
C871 C 0.94424 0.11444 0.4606 0.0
C872 C 0.96115 0.08451 0.45215 0.0
C873 C 0.95134 0.08472 0.34108 0.0
C874 C 0.95426 0.07354 0.49246 0.0
C875 C 0.96603 0.06092 0.5175 0.0
C876 C 0.98492 0.0594 0.50305 0.0
C877 C 0.99157 0.07004 0.46178 0.0
C878 C 0.97981 0.08248 0.43665 0.0
H879 H 0.94243 0.08517 0.30648 0.0
H880 H 0.96612 0.08571 0.32839 0.0
H881 H 0.94928 0.07111 0.36062 0.0
H882 H 0.93994 0.07506 0.50528 0.0
H883 H 0.96056 0.05297 0.54943 0.0
H884 H 0.32328 0.03821 0.37502 0.0
H885 H 0.34934 0.02568 0.42446 0.0
H886 H 0.32163 0.97237 0.43391 0.0
H887 H 0.29536 0.98492 0.38428 0.0
H888 H 0.35131 0.00427 0.52492 0.0
H889 H 0.37246 0.96568 0.34945 0.0
H890 H 0.35655 0.98514 0.34604 0.0
H891 H 0.34895 0.96353 0.37366 0.0
C892 C 0.32257 0.02396 0.3887 0.0
C893 C 0.30746 0.01247 0.37572 0.0
C894 C 0.33738 0.01684 0.41699 0.0
C895 C 0.33738 0.9981 0.43233 0.0
C896 C 0.3218 0.98687 0.42223 0.0
H897 H 0.44592 0.97559 0.57741 0.0
H898 H 0.41401 0.96657 0.554 0.0
C899 C 0.30684 0.99406 0.3942 0.0
C900 C 0.35475 0.99019 0.45324 0.0
H901 H 0.39527 0.97016 0.41218 0.0
C902 C 0.36076 0.99622 0.50125 0.0
C903 C 0.36696 0.97979 0.42183 0.0
C904 C 0.36105 0.97312 0.36977 0.0
C905 C 0.37924 0.99339 0.51706 0.0
C906 C 0.39187 0.98432 0.48375 0.0
C907 C 0.38544 0.97698 0.43757 0.0
C908 C 0.41219 0.9861 0.4912 0.0
C909 C 0.38559 0.00159 0.56709 0.0
C910 C 0.42191 -0.00069 0.46182 0.0
C911 C 0.43997 0.00456 0.47517 0.0
C912 C 0.44863 0.99652 0.51781 0.0
C913 C 0.43957 0.98195 0.54419 0.0
C914 C 0.42134 0.97685 0.53113 0.0
H915 H 0.37411 0.00886 0.58752 0.0
H916 H 0.39101 0.99035 0.59217 0.0
H917 H 0.39714 0.01166 0.56035 0.0
H918 H 0.41502 0.00656 0.43081 0.0
H919 H 0.44668 0.01576 0.45418 0.0
H920 H 0.51205 0.32727 0.37286 0.0
H921 H 0.52043 0.35436 0.42409 0.0
H922 H 0.57882 0.34054 0.40868 0.0
H923 H 0.57037 0.31308 0.35721 0.0
H924 H 0.54481 0.35845 0.51717 0.0
H925 H 0.56993 0.39392 0.3399 0.0
H926 H 0.55476 0.37387 0.33627 0.0
H927 H 0.57847 0.37108 0.35664 0.0
C928 C 0.52664 0.3298 0.38136 0.0
C929 C 0.5406 0.31827 0.36114 0.0
C930 C 0.53141 0.3452 0.41064 0.0
C931 C 0.55023 0.34944 0.41978 0.0
C932 C 0.56423 0.33743 0.40185 0.0
H933 H 0.54698 0.45612 0.58529 0.0
H934 H 0.56367 0.42848 0.55429 0.0
C935 C 0.55941 0.3218 0.37279 0.0
C936 C 0.55463 0.36752 0.44355 0.0
H937 H 0.5611 0.4129 0.40861 0.0
C938 C 0.54909 0.37034 0.49428 0.0
C939 C 0.56013 0.38291 0.41318 0.0
C940 C 0.56618 0.38047 0.3584 0.0
C941 C 0.54722 0.38838 0.51403 0.0
C942 C 0.55106 0.40385 0.48205 0.0
C943 C 0.55826 0.40096 0.43291 0.0
C944 C 0.54372 0.42248 0.49477 0.0
C945 C 0.53937 0.39083 0.56713 0.0
C946 C 0.52751 0.42861 0.46999 0.0
C947 C 0.51795 0.44422 0.48762 0.0
C948 C 0.52454 0.45406 0.53008 0.0
C949 C 0.54162 0.4488 0.55235 0.0
C950 C 0.55112 0.43301 0.53491 0.0
H951 H 0.53645 0.3773 0.58628 0.0
H952 H 0.54946 0.39873 0.59078 0.0
H953 H 0.52621 0.39899 0.56556 0.0
H954 H 0.5216 0.42063 0.43893 0.0
H955 H 0.5049 0.44803 0.46958 0.0
H956 H 0.16912 0.47372 0.34068 0.0
H957 H 0.14326 0.49034 0.38133 0.0
H958 H 0.1702 0.54286 0.34827 0.0
H959 H 0.19645 0.52617 0.30886 0.0
H960 H 0.15316 0.5434 0.44072 0.0
H961 H 0.10425 0.5167 0.29648 0.0
H962 H 0.11606 0.49766 0.32677 0.0
H963 H 0.12925 0.5144 0.28986 0.0
C964 C 0.16964 0.48879 0.34302 0.0
C965 C 0.18463 0.49872 0.32159 0.0
C966 C 0.15483 0.49828 0.36565 0.0
C967 C 0.15455 0.51784 0.36612 0.0
C968 C 0.17006 0.52777 0.34763 0.0
H969 H 0.04158 0.54449 0.46072 0.0
H970 H 0.06987 0.55169 0.41141 0.0
C971 C 0.18506 0.51825 0.32553 0.0
C972 C 0.13776 0.52768 0.38492 0.0
H973 H 0.09037 0.52579 0.37742 0.0
C974 C 0.13941 0.53991 0.42628 0.0
C975 C 0.11989 0.52391 0.3645 0.0
C976 C 0.11729 0.51263 0.31653 0.0
C977 C 0.12349 0.54677 0.45128 0.0
C978 C 0.1056 0.5407 0.43539 0.0
C979 C 0.10403 0.53021 0.3905 0.0
C980 C 0.08899 0.54168 0.46924 0.0
C981 C 0.12607 0.55987 0.49555 0.0
C982 C 0.09033 0.53439 0.51882 0.0
C983 C 0.07431 0.53046 0.54699 0.0
C984 C 0.05652 0.53335 0.52585 0.0
C985 C 0.0551 0.542 0.47786 0.0
C986 C 0.07125 0.54613 0.4497 0.0
H987 H 0.13777 0.56968 0.48775 0.0
H988 H 0.11323 0.56805 0.50355 0.0
H989 H 0.12983 0.55174 0.53011 0.0
H990 H 0.10369 0.53029 0.53447 0.0
H991 H 0.07593 0.52399 0.58413 0.0
H992 H 0.00926 0.83137 0.82476 0.0
H993 H 0.0211 0.85505 0.7658 0.0
H994 H 0.07771 0.84008 0.80451 0.0
H995 H 0.06572 0.81606 0.86354 0.0
H996 H 0.06884 0.87752 0.82171 0.0
H997 H 0.0477 0.85774 0.62733 0.0
H998 H 0.02894 0.85372 0.67157 0.0
H999 H 0.05041 0.84082 0.67812 0.0
C1000 C 0.02421 0.83275 0.81927 0.0
C1001 C 0.03664 0.822 0.84815 0.0
C1002 C 0.03099 0.84615 0.78541 0.0
C1003 C 0.0503 0.84911 0.78021 0.0
C1004 C 0.06279 0.83779 0.80746 0.0
H1005 H 0.04776 0.95149 0.60298 0.0
H1006 H 0.06546 0.92436 0.63309 0.0
C1007 C 0.05596 0.82413 0.84098 0.0
C1008 C 0.05676 0.86608 0.75334 0.0
H1009 H 0.04595 0.89126 0.64726 0.0
C1010 C 0.06454 0.8804 0.78282 0.0
C1011 C 0.05155 0.86975 0.70237 0.0
C1012 C 0.04437 0.85459 0.6679 0.0
C1013 C 0.0648 0.89882 0.76491 0.0
C1014 C 0.05699 0.90288 0.71674 0.0
C1015 C 0.05168 0.88819 0.68462 0.0
C1016 C 0.05011 0.92173 0.70401 0.0
C1017 C 0.07201 0.91399 0.7993 0.0
C1018 C 0.03598 0.92947 0.73454 0.0
C1019 C 0.02573 0.9447 0.71722 0.0
C1020 C 0.02952 0.95254 0.66921 0.0
C1021 C 0.04467 0.94578 0.64039 0.0
C1022 C 0.05477 0.93029 0.65745 0.0
H1023 H 0.08348 0.9087 0.82386 0.0
H1024 H 0.07716 0.92614 0.77696 0.0
H1025 H 0.06054 0.91872 0.82475 0.0
H1026 H 0.03187 0.92285 0.77006 0.0
H1027 H 0.01413 0.94966 0.74009 0.0
H1028 H 0.71412 0.01236 0.83884 0.0
H1029 H 0.69218 0.02845 0.78203 0.0
H1030 H 0.65559 0.98068 0.78709 0.0
H1031 H 0.67744 0.96453 0.84345 0.0
H1032 H 0.65947 0.00079 0.68665 0.0
H1033 H 0.64192 0.0452 0.85453 0.0
H1034 H 0.66583 0.04321 0.83354 0.0
H1035 H 0.65441 0.02356 0.86244 0.0
C1036 C 0.70167 0.00509 0.82643 0.0
C1037 C 0.69732 0.98729 0.84577 0.0
C1038 C 0.68916 0.01433 0.79428 0.0
C1039 C 0.67226 0.00578 0.78098 0.0
C1040 C 0.66861 0.98747 0.79705 0.0
H1041 H 0.56459 0.00117 0.75127 0.0
H1042 H 0.59638 0.00902 0.77651 0.0
C1043 C 0.68101 0.9783 0.82936 0.0
C1044 C 0.65711 0.01635 0.75629 0.0
H1045 H 0.61965 0.04303 0.78962 0.0
C1046 C 0.65106 0.01062 0.70806 0.0
C1047 C 0.64628 0.02915 0.78467 0.0
C1048 C 0.65231 0.03571 0.83674 0.0
C1049 C 0.63349 0.01593 0.68954 0.0
C1050 C 0.62185 0.02722 0.72036 0.0
C1051 C 0.62872 0.03446 0.7662 0.0
C1052 C 0.60149 0.02738 0.71222 0.0
C1053 C 0.62672 0.00787 0.63974 0.0
C1054 C 0.59352 0.03611 0.6696 0.0
C1055 C 0.5752 0.0318 0.65548 0.0
C1056 C 0.56491 0.01853 0.68356 0.0
C1057 C 0.57229 0.01138 0.72902 0.0
C1058 C 0.59043 0.01587 0.74341 0.0
H1059 H 0.6374 0.99895 0.62108 0.0
H1060 H 0.61394 -0.00061 0.64638 0.0
H1061 H 0.62302 0.01932 0.61306 0.0
H1062 H 0.60188 0.04512 0.64533 0.0
H1063 H 0.56981 0.03746 0.62011 0.0
H1064 H 0.43634 0.7021 0.86459 0.0
H1065 H 0.42733 0.67435 0.81501 0.0
H1066 H 0.48556 0.66242 0.78732 0.0
H1067 H 0.49447 0.68982 0.83654 0.0
H1068 H 0.45974 0.65653 0.70063 0.0
H1069 H 0.43878 0.62211 0.88338 0.0
H1070 H 0.42884 0.64427 0.86571 0.0
H1071 H 0.45295 0.64292 0.8836 0.0
C1072 C 0.44709 0.69375 0.84662 0.0
C1073 C 0.46606 0.69788 0.85425 0.0
C1074 C 0.44197 0.67794 0.81866 0.0
C1075 C 0.45581 0.66634 0.79793 0.0
C1076 C 0.47468 0.67125 0.80291 0.0
H1077 H 0.50477 0.57016 0.75496 0.0
H1078 H 0.48642 0.59666 0.7843 0.0
C1079 C 0.47977 0.68683 0.83104 0.0
C1080 C 0.4514 0.64795 0.776 0.0
H1081 H 0.4473 0.60277 0.81533 0.0
C1082 C 0.45627 0.64475 0.72493 0.0
C1083 C 0.44691 0.63271 0.80814 0.0
C1084 C 0.44157 0.63551 0.86334 0.0
C1085 C 0.4587 0.62658 0.70655 0.0
C1086 C 0.45604 0.61136 0.74026 0.0
C1087 C 0.44927 0.61453 0.78973 0.0
C1088 C 0.46437 0.59302 0.72887 0.0
C1089 C 0.46601 0.62387 0.65297 0.0
C1090 C 0.45757 0.58172 0.68954 0.0
C1091 C 0.46805 0.56645 0.67278 0.0
C1092 C 0.48549 0.56249 0.69497 0.0
C1093 C 0.49147 0.57299 0.73692 0.0
C1094 C 0.48096 0.58808 0.75382 0.0
H1095 H 0.46813 0.63729 0.6325 0.0
H1096 H 0.47953 0.61628 0.65393 0.0
H1097 H 0.45599 0.61531 0.6309 0.0
H1098 H 0.44472 0.58529 0.67012 0.0
H1099 H 0.46311 0.55859 0.6403 0.0
H1100 H 0.82655 0.54339 0.80646 0.0
H1101 H 0.85132 0.52875 0.75606 0.0
H1102 H 0.81957 0.47767 0.75091 0.0
H1103 H 0.79457 0.4924 0.8009 0.0
H1104 H 0.85676 0.47583 0.7965 0.0
H1105 H 0.85733 0.50943 0.60588 0.0
H1106 H 0.85408 0.5256 0.65733 0.0
H1107 H 0.8366 0.50813 0.64547 0.0
C1108 C 0.82464 0.52924 0.79317 0.0
C1109 C 0.80873 0.51899 0.80729 0.0
C1110 C 0.8387 0.52092 0.76426 0.0
C1111 C 0.83713 0.5022 0.74949 0.0
C1112 C 0.82087 0.49219 0.7615 0.0
H1113 H 0.94363 0.47325 0.60838 0.0
H1114 H 0.91098 0.46595 0.62879 0.0
C1115 C 0.80664 0.50062 0.78982 0.0
C1116 C 0.85371 0.49267 0.72875 0.0
H1117 H 0.88701 0.49788 0.63678 0.0
C1118 C 0.86316 0.48013 0.76075 0.0
C1119 C 0.86187 0.49815 0.68197 0.0
C1120 C 0.85187 0.51094 0.64539 0.0
C1121 C 0.88146 0.47449 0.74957 0.0
C1122 C 0.89035 0.48159 0.70546 0.0
C1123 C 0.88016 0.4925 0.67079 0.0
C1124 C 0.91085 0.48126 0.69972 0.0
C1125 C 0.89159 0.46201 0.78667 0.0
C1126 C 0.92166 0.49172 0.7338 0.0
C1127 C 0.94013 0.49614 0.72191 0.0
C1128 C 0.94809 0.48997 0.67605 0.0
C1129 C 0.93785 0.47799 0.64431 0.0
C1130 C 0.91921 0.47386 0.65577 0.0
H1131 H 0.88164 0.4531 0.80843 0.0
H1132 H 0.90183 0.45298 0.76667 0.0
H1133 H 0.89928 0.47076 0.81444 0.0
H1134 H 0.91536 0.49783 0.76746 0.0
H1135 H 0.94774 0.50547 0.74674 0.0
H1136 H 0.05065 0.2088 0.9301 0.0
H1137 H 0.057 0.18384 0.86833 0.0
H1138 H -0.00023 0.18641 0.81777 0.0
H1139 H 0.99358 0.21137 0.87834 0.0
H1140 H 0.04026 0.15025 0.87358 0.0
H1141 H 0.02595 0.17994 0.68353 0.0
H1142 H 0.02985 0.19442 0.73871 0.0
H1143 H 0.00702 0.18485 0.72631 0.0
C1144 C 0.0397 0.20454 0.90419 0.0
C1145 C 0.02166 0.21208 0.90868 0.0
C1146 C 0.04327 0.19016 0.86926 0.0
C1147 C 0.02892 0.1833 0.83791 0.0
C1148 C 0.01122 0.19168 0.84044 0.0
H1149 H 0.98722 0.08759 0.69773 0.0
H1150 H 0.99533 0.11745 0.73579 0.0
C1151 C 0.00766 0.20593 0.87527 0.0
C1152 C 0.03142 0.1659 0.80769 0.0
H1153 H 0.02088 0.14646 0.69243 0.0
C1154 C 0.03653 0.14949 0.83358 0.0
C1155 C 0.02658 0.16485 0.75543 0.0
C1156 C 0.02224 0.18202 0.72433 0.0
C1157 C 0.03559 0.13198 0.80972 0.0
C1158 C 0.02947 0.13086 0.75859 0.0
C1159 C 0.02543 0.14733 0.73179 0.0
C1160 C 0.02514 0.11269 0.73428 0.0
C1161 C 0.03999 0.11467 0.8402 0.0
C1162 C 0.03926 0.10006 0.72049 0.0
C1163 C 0.03466 0.08285 0.69838 0.0
C1164 C 0.01586 0.07798 0.69001 0.0
C1165 C 0.00184 0.09077 0.70379 0.0
C1166 C 0.00644 0.10792 0.72542 0.0
H1167 H 0.04292 0.11781 0.88087 0.0
H1168 H 0.02812 0.10471 0.83833 0.0
H1169 H 0.05241 0.1077 0.82355 0.0
H1170 H 0.0538 0.10353 0.72671 0.0
H1171 H 0.04579 0.07336 0.68807 0.0
H1172 H 0.30001 0.02009 0.91536 0.0
H1173 H 0.32467 0.01771 0.85032 0.0
H1174 H 0.33806 0.07577 0.87145 0.0
H1175 H 0.31379 0.078 0.93735 0.0
H1176 H 0.33603 0.03574 0.75895 0.0
H1177 H 0.38555 0.04922 0.91751 0.0
H1178 H 0.36108 0.04466 0.92834 0.0
H1179 H 0.36867 0.06732 0.90729 0.0
C1180 C 0.30773 0.0325 0.90455 0.0
C1181 C 0.30499 0.04924 0.9311 0.0
C1182 C 0.32192 0.0311 0.86771 0.0
C1183 C 0.33355 0.04644 0.85696 0.0
C1184 C 0.32955 0.06365 0.87991 0.0
H1185 H 0.44362 0.04957 0.7066 0.0
H1186 H 0.41384 0.059 0.74569 0.0
C1187 C 0.31553 0.06499 0.91702 0.0
C1188 C 0.35095 0.04392 0.82644 0.0
H1189 H 0.39859 0.045 0.83592 0.0
C1190 C 0.34971 0.03786 0.77566 0.0
C1191 C 0.36885 0.04659 0.84832 0.0
C1192 C 0.37122 0.05214 0.90346 0.0
C1193 C 0.36584 0.03444 0.74625 0.0
C1194 C 0.3837 0.03687 0.76844 0.0
C1195 C 0.38492 0.04327 0.81882 0.0
C1196 C 0.40127 0.0316 0.74158 0.0
C1197 C 0.36363 0.0283 0.69161 0.0
C1198 C 0.40419 0.01307 0.72672 0.0
C1199 C 0.42116 0.00765 0.70485 0.0
C1200 C 0.4357 0.02062 0.6974 0.0
C1201 C 0.43273 0.03924 0.71183 0.0
C1202 C 0.41571 0.04465 0.73407 0.0
H1203 H 0.34988 0.03255 0.6759 0.0
H1204 H 0.37486 0.03417 0.667 0.0
H1205 H 0.36447 0.01287 0.68985 0.0
H1206 H 0.39347 0.00264 0.73312 0.0
H1207 H 0.42288 0.9932 0.69403 0.0
H1208 H 0.44729 0.31555 0.96169 0.0
H1209 H 0.4447 0.33881 0.89338 0.0
H1210 H 0.50088 0.32597 0.84475 0.0
H1211 H 0.50311 0.3023 0.91173 0.0
H1212 H 0.46562 0.36852 0.89676 0.0
H1213 H 0.47793 0.3361 0.70912 0.0
H1214 H 0.47198 0.32251 0.76501 0.0
H1215 H 0.49581 0.32953 0.75331 0.0
C1216 C 0.45864 0.31701 0.93446 0.0
C1217 C 0.47526 0.30694 0.94117 0.0
C1218 C 0.45725 0.33043 0.8958 0.0
C1219 C 0.47256 0.33417 0.86357 0.0
C1220 C 0.48868 0.32309 0.86801 0.0
H1221 H 0.52229 0.42616 0.71188 0.0
H1222 H 0.51285 0.3966 0.75031 0.0
C1223 C 0.48996 0.30951 0.9063 0.0
C1224 C 0.47296 0.35152 0.8321 0.0
H1225 H 0.48569 0.369 0.71551 0.0
C1226 C 0.46957 0.36856 0.85677 0.0
C1227 C 0.47823 0.35168 0.77997 0.0
C1228 C 0.481 0.33393 0.75025 0.0
C1229 C 0.47223 0.38569 0.8317 0.0
C1230 C 0.47832 0.38584 0.78035 0.0
C1231 C 0.48106 0.36885 0.75497 0.0
C1232 C 0.48347 0.40348 0.75403 0.0
C1233 C 0.46946 0.40353 0.86113 0.0
C1234 C 0.47003 0.41714 0.74282 0.0
C1235 C 0.4754 0.43417 0.72078 0.0
C1236 C 0.49431 0.43783 0.70977 0.0
C1237 C 0.50763 0.42393 0.72026 0.0
C1238 C 0.50225 0.40694 0.74196 0.0
H1239 H 0.46754 0.40096 0.90265 0.0
H1240 H 0.48161 0.41297 0.85561 0.0
H1241 H 0.45686 0.4108 0.84669 0.0
H1242 H 0.45543 0.41466 0.75144 0.0
H1243 H 0.46479 0.44452 0.71285 0.0
H1244 H 0.22417 0.49196 0.89162 0.0
H1245 H 0.19686 0.49486 0.83587 0.0
H1246 H 0.18646 0.4359 0.85123 0.0
H1247 H 0.21339 0.43314 0.90828 0.0
H1248 H 0.18261 0.47969 0.74716 0.0
H1249 H 0.13987 0.45809 0.91457 0.0
H1250 H 0.16445 0.46326 0.91943 0.0
H1251 H 0.15682 0.44113 0.89503 0.0
C1252 C 0.21649 0.47952 0.88135 0.0
C1253 C 0.22092 0.46231 0.90395 0.0
C1254 C 0.20077 0.4812 0.84991 0.0
C1255 C 0.18926 0.4657 0.84056 0.0
C1256 C 0.19481 0.44815 0.85898 0.0
H1257 H 0.07593 0.46101 0.7106 0.0
H1258 H 0.10684 0.45226 0.74359 0.0
C1259 C 0.21038 0.44651 0.89087 0.0
C1260 C 0.17067 0.46824 0.81596 0.0
H1261 H 0.12368 0.46407 0.83815 0.0
C1262 C 0.16974 0.47618 0.76697 0.0
C1263 C 0.1538 0.4638 0.84192 0.0
C1264 C 0.15369 0.45626 0.8958 0.0
C1265 C 0.15247 0.47977 0.74333 0.0
C1266 C 0.13567 0.47549 0.76952 0.0
C1267 C 0.13657 0.46722 0.81801 0.0
C1268 C 0.11702 0.48059 0.74878 0.0
C1269 C 0.15234 0.48815 0.69046 0.0
C1270 C 0.11235 0.4994 0.74179 0.0
C1271 C 0.09472 0.50442 0.72352 0.0
C1272 C 0.08129 0.49075 0.71174 0.0
C1273 C 0.08592 0.47189 0.71925 0.0
C1274 C 0.10359 0.46687 0.73796 0.0
H1275 H 0.16588 0.48602 0.67046 0.0
H1276 H 0.14098 0.48204 0.66706 0.0
H1277 H 0.14986 0.50337 0.69334 0.0
H1278 H 0.12232 0.51025 0.75086 0.0
H1279 H 0.09171 0.51909 0.71827 0.0
H1280 H 0.95225 0.81129 0.23928 0.0
H1281 H 0.95199 0.8378 0.29788 0.0
H1282 H 0.00192 0.81702 0.36974 0.0
H1283 H 0.00206 0.79028 0.31135 0.0
H1284 H 0.97475 0.8362 0.43851 0.0
H1285 H 0.99404 0.87648 0.26444 0.0
H1286 H 0.9729 0.86306 0.25991 0.0
H1287 H 0.99492 0.85136 0.2669 0.0
C1288 C 0.9627 0.81198 0.26902 0.0
C1289 C 0.97713 0.79872 0.27098 0.0
C1290 C 0.96264 0.82721 0.30217 0.0
C1291 C 0.97712 0.82957 0.33754 0.0
C1292 C 0.99062 0.81547 0.3427 0.0
H1293 H 0.02478 0.93128 0.45084 0.0
H1294 H 0.01766 0.90111 0.41308 0.0
C1295 C 0.99062 0.80013 0.30961 0.0
C1296 C 0.97957 0.84778 0.36378 0.0
H1297 H 0.99005 0.8935 0.34029 0.0
C1298 C 0.97801 0.84876 0.41714 0.0
C1299 C 0.98408 0.86411 0.33583 0.0
C1300 C 0.98676 0.86379 0.27865 0.0
C1301 C 0.98073 0.86572 0.44319 0.0
C1302 C 0.98501 0.88207 0.41506 0.0
C1303 C 0.9866 0.88101 0.36178 0.0
C1304 C 0.98908 0.90024 0.44001 0.0
C1305 C 0.97953 0.86593 0.50063 0.0
C1306 C 0.97531 0.90998 0.46745 0.0
C1307 C 0.97932 0.92742 0.48906 0.0
C1308 C 0.99719 0.93542 0.48357 0.0
C1309 C 0.01087 0.9256 0.45592 0.0
C1310 C 0.00684 0.90829 0.43429 0.0
H1311 H 0.97961 0.85164 0.5171 0.0
H1312 H 0.99135 0.87394 0.51698 0.0
H1313 H 0.96636 0.87287 0.51241 0.0
H1314 H 0.96141 0.90419 0.47165 0.0
H1315 H 0.96846 0.93458 0.51012 0.0
H1316 H 0.70372 0.94072 0.277 0.0
H1317 H 0.6778 0.94561 0.33673 0.0
H1318 H 0.69999 -0.00034 0.37462 0.0
H1319 H 0.726 0.99482 0.31459 0.0
H1320 H 0.67419 0.95665 0.44541 0.0
H1321 H 0.64779 0.00911 0.30642 0.0
H1322 H 0.66572 0.99248 0.29014 0.0
H1323 H 0.67132 0.01238 0.3285 0.0
C1324 C 0.70337 0.9534 0.29927 0.0
C1325 C 0.71685 0.96741 0.29111 0.0
C1326 C 0.68854 0.9562 0.33331 0.0
C1327 C 0.6868 0.97311 0.35953 0.0
C1328 C 0.70099 0.98656 0.35439 0.0
H1329 H 0.59188 0.02413 0.5107 0.0
H1330 H 0.62243 0.01665 0.47511 0.0
C1331 C 0.71594 0.98372 0.32051 0.0
C1332 C 0.66918 0.97735 0.38745 0.0
H1333 H 0.62977 0.00405 0.38024 0.0
C1334 C 0.66449 0.96707 0.43139 0.0
C1335 C 0.65647 0.99082 0.36883 0.0
C1336 C 0.66041 0.00178 0.32069 0.0
C1337 C 0.64755 0.97014 0.45766 0.0
C1338 C 0.63476 0.98352 0.4387 0.0
C1339 C 0.63953 0.99379 0.39482 0.0
C1340 C 0.61645 0.98741 0.46381 0.0
C1341 C 0.64367 0.95932 0.506 0.0
C1342 C 0.60277 0.97344 0.46965 0.0
C1343 C 0.58514 0.97768 0.49031 0.0
C1344 C 0.5808 0.99603 0.50486 0.0
C1345 C 0.59461 0.00988 0.49941 0.0
C1346 C 0.61217 0.00562 0.47916 0.0
H1347 H 0.65669 0.9535 0.52261 0.0
H1348 H 0.63677 0.96825 0.53501 0.0
H1349 H 0.63419 0.94752 0.4973 0.0
H1350 H 0.60556 0.95935 0.45714 0.0
H1351 H 0.57483 0.9667 0.49397 0.0
H1352 H 0.56072 0.69301 0.24055 0.0
H1353 H 0.56013 0.67068 0.31141 0.0
H1354 H 0.51232 0.69877 0.3753 0.0
H1355 H 0.51285 0.72115 0.30422 0.0
H1356 H 0.55698 0.6711 0.42699 0.0
H1357 H 0.49439 0.64604 0.32176 0.0
H1358 H 0.51108 0.66194 0.29365 0.0
H1359 H 0.4945 0.67019 0.33986 0.0
C1360 C 0.55063 0.69492 0.27101 0.0
C1361 C 0.5368 0.70875 0.26696 0.0
C1362 C 0.55027 0.68212 0.31136 0.0
C1363 C 0.53601 0.6829 0.3481 0.0
C1364 C 0.52338 0.69789 0.34711 0.0
H1365 H 0.48859 0.59454 0.53367 0.0
H1366 H 0.49599 0.62421 0.49284 0.0
C1367 C 0.5238 0.71078 0.3068 0.0
C1368 C 0.53249 0.66647 0.38137 0.0
H1369 H 0.50316 0.62921 0.39452 0.0
C1370 C 0.54515 0.66198 0.42029 0.0
C1371 C 0.51718 0.65449 0.37205 0.0
C1372 C 0.50353 0.65823 0.32938 0.0
C1373 C 0.5427 0.64593 0.45076 0.0
C1374 C 0.52744 0.63386 0.44108 0.0
C1375 C 0.51482 0.63846 0.40213 0.0
C1376 C 0.52403 0.61638 0.47054 0.0
C1377 C 0.55627 0.64223 0.49348 0.0
C1378 C 0.53739 0.60202 0.47216 0.0
C1379 C 0.53323 0.58495 0.496 0.0
C1380 C 0.5155 0.58185 0.51777 0.0
C1381 C 0.50231 0.59636 0.51678 0.0
C1382 C 0.50654 0.6134 0.49357 0.0
H1383 H 0.56361 0.65516 0.50527 0.0
H1384 H 0.54907 0.63617 0.52728 0.0
H1385 H 0.56698 0.63215 0.48027 0.0
H1386 H 0.55083 0.60377 0.45365 0.0
H1387 H 0.54365 0.57402 0.49601 0.0
H1388 H 0.80525 0.51631 0.26773 0.0
H1389 H 0.82978 0.51251 0.33199 0.0
H1390 H 0.84344 0.57089 0.31847 0.0
H1391 H 0.8193 0.5745 0.25319 0.0
H1392 H 0.87338 0.55014 0.30314 0.0
H1393 H 0.83885 0.52469 0.47919 0.0
H1394 H 0.83279 0.51095 0.42467 0.0
H1395 H 0.82594 0.53507 0.42731 0.0
C1396 C 0.81295 0.52847 0.28021 0.0
C1397 C 0.81023 0.54575 0.25606 0.0
C1398 C 0.82704 0.5263 0.31691 0.0
C1399 C 0.83849 0.54144 0.33055 0.0
C1400 C 0.83484 0.55899 0.30882 0.0
H1401 H 0.94628 0.54452 0.49468 0.0
H1402 H 0.91713 0.554 0.4527 0.0
C1403 C 0.82092 0.56111 0.27187 0.0
C1404 C 0.85567 0.53854 0.36186 0.0
H1405 H 0.87198 0.51959 0.47308 0.0
C1406 C 0.87301 0.54372 0.34067 0.0
C1407 C 0.8553 0.53009 0.41079 0.0
C1408 C 0.8372 0.52505 0.43705 0.0
C1409 C 0.88992 0.54012 0.36601 0.0
C1410 C 0.88958 0.53126 0.41429 0.0
C1411 C 0.87226 0.52638 0.43604 0.0
C1412 C 0.90709 0.52586 0.44121 0.0
C1413 C 0.90808 0.54516 0.33994 0.0
C1414 C 0.91103 0.50696 0.44947 0.0
C1415 C 0.92763 0.50153 0.47323 0.0
C1416 C 0.9407 0.51488 0.48975 0.0
C1417 C 0.93663 0.53387 0.48209 0.0
C1418 C 0.91998 0.5393 0.45802 0.0
H1419 H 0.9061 0.54849 0.29888 0.0
H1420 H 0.91418 0.55758 0.3587 0.0
H1421 H 0.91829 0.53357 0.34322 0.0
H1422 H 0.90133 0.49633 0.43691 0.0
H1423 H 0.93016 0.48678 0.47875 0.0
loop_
_geom_bond_atom_site_label_1
_geom_bond_atom_site_label_2
_geom_bond_distance
_geom_bond_site_symmetry_2
_ccdc_geom_bond_type
C0 C1 1.391 . S
C0 C4 1.391 . S
C0 H42 0.948 . S
C1 C0 1.391 . S
C1 C2 1.391 . S
C2 C1 1.391 . S
C2 H58 0.947 . S
C2 C59 1.392 . S
C3 C4 1.391 . S
C3 C7 1.397 . S
C3 C59 1.419 . S
C4 C0 1.391 . S
C4 C3 1.391 . S
C4 C5 1.399 . S
C5 C4 1.399 . S
C5 C8 1.396 . S
C5 C17 1.453 . S
C5 C18 1.684 . S
H6 C30 0.948 . S
C7 C3 1.397 . S
C7 C8 1.394 . S
C7 C26 1.723 . S
C8 C5 1.396 . S
C8 C7 1.394 . S
C8 C38 1.723 . S
H9 C32 0.947 . S
H10 C33 0.948 . S
H11 C39 0.982 . S
H12 C40 0.979 . S
H13 C40 0.980 . S
H14 C40 0.983 . S
H15 C39 0.979 . S
H16 C39 0.977 . S
C17 C5 1.453 . S
C17 H46 0.982 . S
C17 H47 0.979 . S
C17 H48 0.977 . S
C18 C5 1.684 . S
C18 H43 0.979 . S
C18 H44 0.980 . S
C18 H45 0.983 . S
C19 C20 1.391 . S
C19 C24 1.391 . S
C19 H49 0.948 . S
C20 C19 1.391 . S
C20 C21 1.391 . S
C21 C20 1.391 . S
C21 C22 1.392 . S
C21 H50 0.947 . S
C22 C21 1.392 . S
C22 C23 1.419 . S
C22 H51 0.948 . S
C23 C22 1.419 . S
C23 C24 1.391 . S
C23 C27 1.397 . S
C24 C19 1.391 . S
C24 C23 1.391 . S
C24 C25 1.399 1_556 S
C25 C24 1.399 1_554 S
C25 C26 1.396 . S
C25 C28 1.453 . S
C25 C29 1.684 . S
C26 C7 1.723 . S
C26 C25 1.396 . S
C26 C27 1.394 1_554 S
C27 C23 1.397 . S
C27 C26 1.394 1_556 S
C27 C37 1.723 . S
C28 C25 1.453 . S
C28 H52 0.982 . S
C28 H53 0.979 . S
C28 H54 0.977 . S
C29 C25 1.684 . S
C29 H55 0.979 . S
C29 H56 0.980 . S
C29 H57 0.983 . S
C30 H6 0.948 . S
C30 C31 1.391 . S
C30 C35 1.391 . S
C31 C30 1.391 . S
C31 C32 1.391 1_556 S
C32 H9 0.947 . S
C32 C31 1.391 1_554 S
C32 C33 1.392 . S
C33 H10 0.948 . S
C33 C32 1.392 . S
C33 C34 1.419 . S
C34 C33 1.419 . S
C34 C35 1.391 1_554 S
C34 C38 1.397 . S
C35 C30 1.391 . S
C35 C34 1.391 1_556 S
C35 C36 1.399 . S
C36 C35 1.399 . S
C36 C37 1.396 . S
C36 C39 1.453 . S
C36 C40 1.684 . S
C37 C27 1.723 . S
C37 C36 1.396 . S
C37 C38 1.394 1_556 S
C38 C8 1.723 . S
C38 C34 1.397 . S
C38 C37 1.394 1_554 S
C39 H11 0.982 . S
C39 H15 0.979 . S
C39 H16 0.977 . S
C39 C36 1.453 . S
C40 H12 0.979 . S
C40 H13 0.980 . S
C40 H14 0.983 . S
C40 C36 1.684 . S
H41 C59 0.948 . S
H42 C0 0.948 . S
H43 C18 0.979 . S
H44 C18 0.980 . S
H45 C18 0.983 . S
H46 C17 0.982 . S
H47 C17 0.979 . S
H48 C17 0.977 . S
H49 C19 0.948 . S
H50 C21 0.947 . S
H51 C22 0.948 . S
H52 C28 0.982 . S
H53 C28 0.979 . S
H54 C28 0.977 . S
H55 C29 0.979 . S
H56 C29 0.980 . S
H57 C29 0.983 . S
H58 C2 0.947 . S
C59 C2 1.392 . S
C59 C3 1.419 . S
C59 H41 0.948 . S
C60 C61 1.391 . S
C60 C64 1.391 . S
C60 H102 0.948 . S
C61 C60 1.391 . S
C61 C62 1.391 . S
C62 C61 1.391 . S
C62 H118 0.947 . S
C62 C119 1.392 . S
C63 C64 1.391 . S
C63 C67 1.397 1_556 S
C63 C119 1.419 . S
C64 C60 1.391 . S
C64 C63 1.391 . S
C64 C65 1.399 . S
C65 C64 1.399 . S
C65 C68 1.396 . S
C65 C77 1.453 1_655 S
C65 C78 1.684 . S
H66 C90 0.948 . S
C67 C63 1.397 1_554 S
C67 C68 1.394 1_554 S
C67 C86 1.723 . S
C68 C65 1.396 . S
C68 C67 1.394 1_556 S
C68 C98 1.723 1_556 S
H69 C92 0.947 . S
H70 C93 0.948 . S
H71 C99 0.982 . S
H72 C100 0.979 . S
H73 C100 0.980 . S
H74 C100 0.983 . S
H75 C99 0.979 . S
H76 C99 0.977 . S
C77 C65 1.453 1_455 S
C77 H106 0.982 . S
C77 H107 0.979 . S
C77 H108 0.977 . S
C78 C65 1.684 . S
C78 H103 0.979 . S
C78 H104 0.980 . S
C78 H105 0.983 . S
C79 C80 1.391 . S
C79 C84 1.391 . S
C79 H109 0.948 . S
C80 C79 1.391 . S
C80 C81 1.391 . S
C81 C80 1.391 . S
C81 C82 1.392 . S
C81 H110 0.947 . S
C82 C81 1.392 . S
C82 C83 1.419 . S
C82 H111 0.948 . S
C83 C82 1.419 . S
C83 C84 1.391 . S
C83 C87 1.397 . S
C84 C79 1.391 . S
C84 C83 1.391 . S
C84 C85 1.399 . S
C85 C84 1.399 . S
C85 C86 1.396 . S
C85 C88 1.453 1_655 S
C85 C89 1.684 . S
C86 C67 1.723 . S
C86 C85 1.396 . S
C86 C87 1.394 . S
C87 C83 1.397 . S
C87 C86 1.394 . S
C87 C97 1.723 . S
C88 C85 1.453 1_455 S
C88 H112 0.982 . S
C88 H113 0.979 . S
C88 H114 0.977 . S
C89 C85 1.684 . S
C89 H115 0.979 . S
C89 H116 0.980 . S
C89 H117 0.983 . S
C90 H66 0.948 . S
C90 C91 1.391 1_554 S
C90 C95 1.391 . S
C91 C90 1.391 1_556 S
C91 C92 1.391 . S
C92 H69 0.947 . S
C92 C91 1.391 . S
C92 C93 1.392 . S
C93 H70 0.948 . S
C93 C92 1.392 . S
C93 C94 1.419 1_556 S
C94 C93 1.419 1_554 S
C94 C95 1.391 . S
C94 C98 1.397 . S
C95 C90 1.391 . S
C95 C94 1.391 . S
C95 C96 1.399 . S
C96 C95 1.399 . S
C96 C97 1.396 . S
C96 C99 1.453 1_655 S
C96 C100 1.684 . S
C97 C87 1.723 . S
C97 C96 1.396 . S
C97 C98 1.394 . S
C98 C68 1.723 1_554 S
C98 C94 1.397 . S
C98 C97 1.394 . S
C99 H71 0.982 . S
C99 H75 0.979 . S
C99 H76 0.977 . S
C99 C96 1.453 1_455 S
C100 H72 0.979 . S
C100 H73 0.980 . S
C100 H74 0.983 . S
C100 C96 1.684 . S
H101 C119 0.948 1_554 S
H102 C60 0.948 . S
H103 C78 0.979 . S
H104 C78 0.980 . S
H105 C78 0.983 . S
H106 C77 0.982 . S
H107 C77 0.979 . S
H108 C77 0.977 . S
H109 C79 0.948 . S
H110 C81 0.947 . S
H111 C82 0.948 . S
H112 C88 0.982 . S
H113 C88 0.979 . S
H114 C88 0.977 . S
H115 C89 0.979 . S
H116 C89 0.980 . S
H117 C89 0.983 . S
H118 C62 0.947 . S
C119 C62 1.392 . S
C119 C63 1.419 . S
C119 H101 0.948 1_556 S
C120 C121 1.391 1_554 S
C120 C124 1.391 . S
C120 H162 0.948 . S
C121 C120 1.391 1_556 S
C121 C122 1.391 . S
C122 C121 1.391 . S
C122 H178 0.947 . S
C122 C179 1.392 . S
C123 C124 1.407 . S
C123 C127 1.404 . S
C123 C179 1.400 1_554 S
C124 C120 1.391 . S
C124 C123 1.407 . S
C124 C125 1.399 . S
C125 C124 1.399 . S
C125 C128 1.396 . S
C125 C137 1.453 . S
C125 C138 1.684 . S
H126 C150 0.948 . S
C127 C123 1.404 . S
C127 C128 1.394 . S
C127 C146 1.723 1_554 S
C128 C125 1.396 . S
C128 C127 1.394 . S
C128 C158 1.723 . S
H129 C152 0.947 . S
H130 C153 0.948 . S
H131 C159 0.982 . S
H132 C160 0.979 . S
H133 C160 0.980 . S
H134 C160 0.983 . S
H135 C159 0.979 . S
H136 C159 0.977 . S
C137 C125 1.453 . S
C137 H166 0.982 . S
C137 H167 0.979 . S
C137 H168 0.977 . S
C138 C125 1.684 . S
C138 H163 0.979 . S
C138 H164 0.980 . S
C138 H165 0.983 . S
C139 C140 1.391 . S
C139 C144 1.391 . S
C139 H169 0.948 . S
C140 C139 1.391 . S
C140 C141 1.391 . S
C141 C140 1.391 . S
C141 C142 1.392 . S
C141 H170 0.947 . S
C142 C141 1.392 . S
C142 C143 1.419 . S
C142 H171 0.948 1_556 S
C143 C142 1.419 . S
C143 C144 1.391 . S
C143 C147 1.397 1_556 S
C144 C139 1.391 . S
C144 C143 1.391 . S
C144 C145 1.399 . S
C145 C144 1.399 . S
C145 C146 1.396 . S
C145 C148 1.453 . S
C145 C149 1.684 . S
C146 C127 1.723 1_556 S
C146 C145 1.396 . S
C146 C147 1.394 1_556 S
C147 C143 1.397 1_554 S
C147 C146 1.394 1_554 S
C147 C157 1.723 . S
C148 C145 1.453 . S
C148 H172 0.982 . S
C148 H173 0.979 . S
C148 H174 0.977 . S
C149 C145 1.684 . S
C149 H175 0.979 . S
C149 H176 0.980 . S
C149 H177 0.983 . S
C150 H126 0.948 . S
C150 C151 1.391 . S
C150 C155 1.391 . S
C151 C150 1.391 . S
C151 C152 1.391 . S
C152 H129 0.947 . S
C152 C151 1.391 . S
C152 C153 1.392 . S
C153 H130 0.948 . S
C153 C152 1.392 . S
C153 C154 1.419 . S
C154 C153 1.419 . S
C154 C155 1.391 . S
C154 C158 1.397 . S
C155 C150 1.391 . S
C155 C154 1.391 . S
C155 C156 1.399 . S
C156 C155 1.399 . S
C156 C157 1.396 . S
C156 C159 1.453 . S
C156 C160 1.684 . S
C157 C147 1.723 . S
C157 C156 1.396 . S
C157 C158 1.394 . S
C158 C128 1.723 . S
C158 C154 1.397 . S
C158 C157 1.394 . S
C159 H131 0.982 . S
C159 H135 0.979 . S
C159 H136 0.977 . S
C159 C156 1.453 . S
C160 H132 0.979 . S
C160 H133 0.980 . S
C160 H134 0.983 . S
C160 C156 1.684 . S
H161 C179 0.948 . S
H162 C120 0.948 . S
H163 C138 0.979 . S
H164 C138 0.980 . S
H165 C138 0.983 . S
H166 C137 0.982 . S
H167 C137 0.979 . S
H168 C137 0.977 . S
H169 C139 0.948 . S
H170 C141 0.947 . S
H171 C142 0.948 1_554 S
H172 C148 0.982 . S
H173 C148 0.979 . S
H174 C148 0.977 . S
H175 C149 0.979 . S
H176 C149 0.980 . S
H177 C149 0.983 . S
H178 C122 0.947 . S
C179 C122 1.392 . S
C179 C123 1.400 1_556 S
C179 H161 0.948 . S
C180 C181 1.391 . S
C180 C184 1.391 . S
C180 H222 0.948 . S
C181 C180 1.391 . S
C181 C182 1.391 . S
C182 C181 1.391 . S
C182 H238 0.947 . S
C182 C239 1.392 . S
C183 C184 1.391 . S
C183 C187 1.397 . S
C183 C239 1.419 . S
C184 C180 1.391 . S
C184 C183 1.391 . S
C184 C185 1.399 . S
C185 C184 1.399 . S
C185 C188 1.396 . S
C185 C197 1.453 . S
C185 C198 1.684 . S
H186 C210 0.948 . S
C187 C183 1.397 . S
C187 C188 1.394 . S
C187 C206 1.723 . S
C188 C185 1.396 . S
C188 C187 1.394 . S
C188 C218 1.723 . S
H189 C212 0.947 . S
H190 C213 0.948 . S
H191 C219 0.982 . S
H192 C220 0.979 . S
H193 C220 0.980 . S
H194 C220 0.983 . S
H195 C219 0.979 . S
H196 C219 0.977 . S
C197 C185 1.453 . S
C197 H226 0.982 . S
C197 H227 0.979 . S
C197 H228 0.977 . S
C198 C185 1.684 . S
C198 H223 0.979 . S
C198 H224 0.980 . S
C198 H225 0.983 . S
C199 C200 1.391 . S
C199 C204 1.391 . S
C199 H229 0.948 . S
C200 C199 1.391 . S
C200 C201 1.391 . S
C201 C200 1.391 . S
C201 C202 1.392 . S
C201 H230 0.947 . S
C202 C201 1.392 . S
C202 C203 1.419 . S
C202 H231 0.948 . S
C203 C202 1.419 . S
C203 C204 1.391 . S
C203 C207 1.397 1_556 S
C204 C199 1.391 . S
C204 C203 1.391 . S
C204 C205 1.399 1_556 S
C205 C204 1.399 1_554 S
C205 C206 1.396 . S
C205 C208 1.453 . S
C205 C209 1.684 . S
C206 C187 1.723 . S
C206 C205 1.396 . S
C206 C207 1.394 . S
C207 C203 1.397 1_554 S
C207 C206 1.394 . S
C207 C217 1.723 1_554 S
C208 C205 1.453 . S
C208 H232 0.982 . S
C208 H233 0.979 . S
C208 H234 0.977 . S
C209 C205 1.684 . S
C209 H235 0.979 . S
C209 H236 0.980 . S
C209 H237 0.983 . S
C210 H186 0.948 . S
C210 C211 1.391 1_556 S
C210 C215 1.391 . S
C211 C210 1.391 1_554 S
C211 C212 1.391 . S
C212 H189 0.947 . S
C212 C211 1.391 . S
C212 C213 1.392 . S
C213 H190 0.948 . S
C213 C212 1.392 . S
C213 C214 1.419 . S
C214 C213 1.419 . S
C214 C215 1.391 1_554 S
C214 C218 1.397 . S
C215 C210 1.391 . S
C215 C214 1.391 1_556 S
C215 C216 1.399 . S
C216 C215 1.399 . S
C216 C217 1.396 . S
C216 C219 1.453 . S
C216 C220 1.684 . S
C217 C207 1.723 1_556 S
C217 C216 1.396 . S
C217 C218 1.394 1_556 S
C218 C188 1.723 . S
C218 C214 1.397 . S
C218 C217 1.394 1_554 S
C219 H191 0.982 . S
C219 H195 0.979 . S
C219 H196 0.977 . S
C219 C216 1.453 . S
C220 H192 0.979 . S
C220 H193 0.980 . S
C220 H194 0.983 . S
C220 C216 1.684 . S
H221 C239 0.948 . S
H222 C180 0.948 . S
H223 C198 0.979 . S
H224 C198 0.980 . S
H225 C198 0.983 . S
H226 C197 0.982 . S
H227 C197 0.979 . S
H228 C197 0.977 . S
H229 C199 0.948 . S
H230 C201 0.947 . S
H231 C202 0.948 . S
H232 C208 0.982 . S
H233 C208 0.979 . S
H234 C208 0.977 . S
H235 C209 0.979 . S
H236 C209 0.980 . S
H237 C209 0.983 . S
H238 C182 0.947 . S
C239 C182 1.392 . S
C239 C183 1.419 . S
C239 H221 0.948 . S
C240 C241 1.391 . S
C240 C244 1.391 . S
C240 H282 0.948 . S
C241 C240 1.391 . S
C241 C242 1.391 . S
C242 C241 1.391 . S
C242 H298 0.947 . S
C242 C299 1.392 . S
C243 C244 1.391 . S
C243 C247 1.397 . S
C243 C299 1.419 . S
C244 C240 1.391 . S
C244 C243 1.391 . S
C244 C245 1.399 . S
C245 C244 1.399 . S
C245 C248 1.396 . S
C245 C257 1.453 . S
C245 C258 1.684 . S
H246 C270 0.948 . S
C247 C243 1.397 . S
C247 C248 1.394 . S
C247 C266 1.723 . S
C248 C245 1.396 . S
C248 C247 1.394 . S
C248 C278 1.723 . S
H249 C272 0.947 . S
H250 C273 0.948 . S
H251 C279 0.982 . S
H252 C280 0.979 . S
H253 C280 0.980 . S
H254 C280 0.983 . S
H255 C279 0.979 . S
H256 C279 0.977 . S
C257 C245 1.453 . S
C257 H286 0.982 . S
C257 H287 0.979 . S
C257 H288 0.977 . S
C258 C245 1.684 . S
C258 H283 0.979 . S
C258 H284 0.980 . S
C258 H285 0.983 . S
C259 C260 1.391 . S
C259 C264 1.391 . S
C259 H289 0.948 . S
C260 C259 1.391 . S
C260 C261 1.391 . S
C261 C260 1.391 . S
C261 C262 1.392 . S
C261 H290 0.947 . S
C262 C261 1.392 . S
C262 C263 1.419 . S
C262 H291 0.948 . S
C263 C262 1.419 . S
C263 C264 1.391 . S
C263 C267 1.397 . S
C264 C259 1.391 . S
C264 C263 1.391 . S
C264 C265 1.399 . S
C265 C264 1.399 . S
C265 C266 1.396 . S
C265 C268 1.453 . S
C265 C269 1.684 . S
C266 C247 1.723 . S
C266 C265 1.396 . S
C266 C267 1.394 . S
C267 C263 1.397 . S
C267 C266 1.394 . S
C267 C277 1.723 . S
C268 C265 1.453 . S
C268 H292 0.982 . S
C268 H293 0.979 . S
C268 H294 0.977 . S
C269 C265 1.684 . S
C269 H295 0.979 . S
C269 H296 0.980 . S
C269 H297 0.983 . S
C270 H246 0.948 . S
C270 C271 1.391 . S
C270 C275 1.391 1_556 S
C271 C270 1.391 . S
C271 C272 1.391 . S
C272 H249 0.947 . S
C272 C271 1.391 . S
C272 C273 1.392 . S
C273 H250 0.948 . S
C273 C272 1.392 . S
C273 C274 1.419 1_556 S
C274 C273 1.419 1_554 S
C274 C275 1.391 . S
C274 C278 1.397 . S
C275 C270 1.391 1_554 S
C275 C274 1.391 . S
C275 C276 1.399 . S
C276 C275 1.399 . S
C276 C277 1.396 . S
C276 C279 1.453 . S
C276 C280 1.684 . S
C277 C267 1.723 . S
C277 C276 1.396 . S
C277 C278 1.394 . S
C278 C248 1.723 . S
C278 C274 1.397 . S
C278 C277 1.394 . S
C279 H251 0.982 . S
C279 H255 0.979 . S
C279 H256 0.977 . S
C279 C276 1.453 . S
C280 H252 0.979 . S
C280 H253 0.980 . S
C280 H254 0.983 . S
C280 C276 1.684 . S
H281 C299 0.948 . S
H282 C240 0.948 . S
H283 C258 0.979 . S
H284 C258 0.980 . S
H285 C258 0.983 . S
H286 C257 0.982 . S
H287 C257 0.979 . S
H288 C257 0.977 . S
H289 C259 0.948 . S
H290 C261 0.947 . S
H291 C262 0.948 . S
H292 C268 0.982 . S
H293 C268 0.979 . S
H294 C268 0.977 . S
H295 C269 0.979 . S
H296 C269 0.980 . S
H297 C269 0.983 . S
H298 C242 0.947 . S
C299 C242 1.392 . S
C299 C243 1.419 . S
C299 H281 0.948 . S
C300 C301 1.391 . S
C300 C304 1.391 . S
C300 H342 0.948 . S
C301 C300 1.391 . S
C301 C302 1.391 . S
C302 C301 1.391 . S
C302 H358 0.947 . S
C302 C359 1.392 . S
C303 C304 1.391 . S
C303 C307 1.397 . S
C303 C359 1.419 . S
C304 C300 1.391 . S
C304 C303 1.391 . S
C304 C305 1.399 . S
C305 C304 1.399 . S
C305 C308 1.396 . S
C305 C317 1.453 . S
C305 C318 1.683 . S
H306 C330 0.948 . S
C307 C303 1.397 . S
C307 C308 1.394 . S
C307 C326 1.723 . S
C308 C305 1.396 . S
C308 C307 1.394 . S
C308 C338 1.723 . S
H309 C332 0.947 . S
H310 C333 0.948 . S
H311 C339 0.982 . S
H312 C340 0.972 1_655 S
H313 C340 0.981 . S
H314 C340 0.985 . S
H315 C339 0.979 . S
H316 C339 0.977 . S
C317 C305 1.453 . S
C317 H346 0.982 . S
C317 H347 0.979 . S
C317 H348 0.977 . S
C318 C305 1.683 . S
C318 H343 0.980 1_455 S
C318 H344 0.980 . S
C318 H345 0.983 . S
C319 C320 1.391 . S
C319 C324 1.391 1_556 S
C319 H349 0.948 . S
C320 C319 1.391 . S
C320 C321 1.391 . S
C321 C320 1.391 . S
C321 C322 1.392 . S
C321 H350 0.947 . S
C322 C321 1.392 . S
C322 C323 1.419 1_556 S
C322 H351 0.948 . S
C323 C322 1.419 1_554 S
C323 C324 1.391 . S
C323 C327 1.397 . S
C324 C319 1.391 1_554 S
C324 C323 1.391 . S
C324 C325 1.399 . S
C325 C324 1.399 . S
C325 C326 1.396 . S
C325 C328 1.453 . S
C325 C329 1.684 1_455 S
C326 C307 1.723 . S
C326 C325 1.396 . S
C326 C327 1.394 . S
C327 C323 1.397 . S
C327 C326 1.394 . S
C327 C337 1.723 . S
C328 C325 1.453 . S
C328 H352 0.982 . S
C328 H353 0.979 . S
C328 H354 0.977 . S
C329 C325 1.684 1_655 S
C329 H355 0.979 . S
C329 H356 0.980 1_655 S
C329 H357 0.983 1_655 S
C330 H306 0.948 . S
C330 C331 1.391 . S
C330 C335 1.391 . S
C331 C330 1.391 . S
C331 C332 1.391 . S
C332 H309 0.947 . S
C332 C331 1.391 . S
C332 C333 1.392 . S
C333 H310 0.948 . S
C333 C332 1.392 . S
C333 C334 1.419 . S
C334 C333 1.419 . S
C334 C335 1.391 . S
C334 C338 1.397 . S
C335 C330 1.391 . S
C335 C334 1.391 . S
C335 C336 1.399 . S
C336 C335 1.399 . S
C336 C337 1.396 . S
C336 C339 1.453 . S
C336 C340 1.688 . S
C337 C327 1.723 . S
C337 C336 1.396 . S
C337 C338 1.394 . S
C338 C308 1.723 . S
C338 C334 1.397 . S
C338 C337 1.394 . S
C339 H311 0.982 . S
C339 H315 0.979 . S
C339 H316 0.977 . S
C339 C336 1.453 . S
C340 H312 0.972 1_455 S
C340 H313 0.981 . S
C340 H314 0.985 . S
C340 C336 1.688 . S
H341 C359 0.948 . S
H342 C300 0.948 . S
H343 C318 0.980 1_655 S
H344 C318 0.980 . S
H345 C318 0.983 . S
H346 C317 0.982 . S
H347 C317 0.979 . S
H348 C317 0.977 . S
H349 C319 0.948 . S
H350 C321 0.947 . S
H351 C322 0.948 . S
H352 C328 0.982 . S
H353 C328 0.979 . S
H354 C328 0.977 . S
H355 C329 0.979 . S
H356 C329 0.980 1_455 S
H357 C329 0.983 1_455 S
H358 C302 0.947 . S
C359 C302 1.392 . S
C359 C303 1.419 . S
C359 H341 0.948 . S
C360 C361 1.391 . S
C360 C364 1.391 1_556 S
C360 H402 0.948 . S
C361 C360 1.391 . S
C361 C362 1.391 . S
C362 C361 1.391 . S
C362 H418 0.947 . S
C362 C419 1.392 1_556 S
C363 C364 1.391 . S
C363 C367 1.397 . S
C363 C419 1.419 . S
C364 C360 1.391 1_554 S
C364 C363 1.391 . S
C364 C365 1.399 . S
C365 C364 1.399 . S
C365 C368 1.396 . S
C365 C377 1.453 . S
C365 C378 1.684 . S
H366 C390 0.948 . S
C367 C363 1.397 . S
C367 C368 1.394 . S
C367 C386 1.723 . S
C368 C365 1.396 . S
C368 C367 1.394 . S
C368 C398 1.723 . S
H369 C392 0.947 . S
H370 C393 0.948 . S
H371 C399 0.982 . S
H372 C400 0.979 . S
H373 C400 0.980 . S
H374 C400 0.983 . S
H375 C399 0.979 . S
H376 C399 0.977 . S
C377 C365 1.453 . S
C377 H406 0.982 . S
C377 H407 0.979 . S
C377 H408 0.977 . S
C378 C365 1.684 . S
C378 H403 0.979 . S
C378 H404 0.980 . S
C378 H405 0.983 1_554 S
C379 C380 1.391 . S
C379 C384 1.391 . S
C379 H409 0.948 . S
C380 C379 1.391 . S
C380 C381 1.391 . S
C381 C380 1.391 . S
C381 C382 1.392 . S
C381 H410 0.947 . S
C382 C381 1.392 . S
C382 C383 1.419 . S
C382 H411 0.948 . S
C383 C382 1.419 . S
C383 C384 1.391 . S
C383 C387 1.397 . S
C384 C379 1.391 . S
C384 C383 1.391 . S
C384 C385 1.399 . S
C385 C384 1.399 . S
C385 C386 1.396 . S
C385 C388 1.453 . S
C385 C389 1.684 . S
C386 C367 1.723 . S
C386 C385 1.396 . S
C386 C387 1.394 . S
C387 C383 1.397 . S
C387 C386 1.394 . S
C387 C397 1.723 . S
C388 C385 1.453 . S
C388 H412 0.982 . S
C388 H413 0.979 . S
C388 H414 0.977 . S
C389 C385 1.684 . S
C389 H415 0.979 . S
C389 H416 0.980 . S
C389 H417 0.983 . S
C390 H366 0.948 . S
C390 C391 1.391 . S
C390 C395 1.391 . S
C391 C390 1.391 . S
C391 C392 1.391 . S
C392 H369 0.947 . S
C392 C391 1.391 . S
C392 C393 1.392 . S
C393 H370 0.948 . S
C393 C392 1.392 . S
C393 C394 1.419 . S
C394 C393 1.419 . S
C394 C395 1.391 . S
C394 C398 1.397 . S
C395 C390 1.391 . S
C395 C394 1.391 . S
C395 C396 1.399 . S
C396 C395 1.399 . S
C396 C397 1.396 . S
C396 C399 1.453 . S
C396 C400 1.684 . S
C397 C387 1.723 . S
C397 C396 1.396 . S
C397 C398 1.394 . S
C398 C368 1.723 . S
C398 C394 1.397 . S
C398 C397 1.394 . S
C399 H371 0.982 . S
C399 H375 0.979 . S
C399 H376 0.977 . S
C399 C396 1.453 . S
C400 H372 0.979 . S
C400 H373 0.980 . S
C400 H374 0.983 . S
C400 C396 1.684 . S
H401 C419 0.948 . S
H402 C360 0.948 . S
H403 C378 0.979 . S
H404 C378 0.980 . S
H405 C378 0.983 1_556 S
H406 C377 0.982 . S
H407 C377 0.979 . S
H408 C377 0.977 . S
H409 C379 0.948 . S
H410 C381 0.947 . S
H411 C382 0.948 . S
H412 C388 0.982 . S
H413 C388 0.979 . S
H414 C388 0.977 . S
H415 C389 0.979 . S
H416 C389 0.980 . S
H417 C389 0.983 . S
H418 C362 0.947 . S
C419 C362 1.392 1_554 S
C419 C363 1.419 . S
C419 H401 0.948 . S
C420 C421 1.391 . S
C420 C424 1.391 1_556 S
C420 H462 0.948 . S
C421 C420 1.391 . S
C421 C422 1.391 1_556 S
C422 C421 1.391 1_554 S
C422 H478 0.947 1_554 S
C422 C479 1.392 . S
C423 C424 1.391 . S
C423 C427 1.397 . S
C423 C479 1.419 . S
C424 C420 1.391 1_554 S
C424 C423 1.391 . S
C424 C425 1.399 . S
C425 C424 1.399 . S
C425 C428 1.396 . S
C425 C437 1.453 . S
C425 C438 1.684 . S
H426 C450 0.948 . S
C427 C423 1.397 . S
C427 C428 1.394 . S
C427 C446 1.723 . S
C428 C425 1.396 . S
C428 C427 1.394 . S
C428 C458 1.723 . S
H429 C452 0.947 . S
H430 C453 0.948 . S
H431 C459 0.982 . S
H432 C460 0.979 . S
H433 C460 0.980 . S
H434 C460 0.983 . S
H435 C459 0.979 . S
H436 C459 0.977 . S
C437 C425 1.453 . S
C437 H466 0.982 . S
C437 H467 0.979 . S
C437 H468 0.977 . S
C438 C425 1.684 . S
C438 H463 0.979 . S
C438 H464 0.980 . S
C438 H465 0.983 . S
C439 C440 1.391 . S
C439 C444 1.391 . S
C439 H469 0.948 . S
C440 C439 1.391 . S
C440 C441 1.391 . S
C441 C440 1.391 . S
C441 C442 1.392 . S
C441 H470 0.947 . S
C442 C441 1.392 . S
C442 C443 1.419 . S
C442 H471 0.948 . S
C443 C442 1.419 . S
C443 C444 1.391 . S
C443 C447 1.397 . S
C444 C439 1.391 . S
C444 C443 1.391 . S
C444 C445 1.399 . S
C445 C444 1.399 . S
C445 C446 1.396 . S
C445 C448 1.453 . S
C445 C449 1.684 . S
C446 C427 1.723 . S
C446 C445 1.396 . S
C446 C447 1.394 . S
C447 C443 1.397 . S
C447 C446 1.394 . S
C447 C457 1.723 . S
C448 C445 1.453 . S
C448 H472 0.982 . S
C448 H473 0.979 . S
C448 H474 0.977 . S
C449 C445 1.684 . S
C449 H475 0.979 . S
C449 H476 0.980 . S
C449 H477 0.983 . S
C450 H426 0.948 . S
C450 C451 1.391 . S
C450 C455 1.391 . S
C451 C450 1.391 . S
C451 C452 1.391 . S
C452 H429 0.947 . S
C452 C451 1.391 . S
C452 C453 1.392 . S
C453 H430 0.948 . S
C453 C452 1.392 . S
C453 C454 1.419 . S
C454 C453 1.419 . S
C454 C455 1.391 . S
C454 C458 1.397 . S
C455 C450 1.391 . S
C455 C454 1.391 . S
C455 C456 1.399 . S
C456 C455 1.399 . S
C456 C457 1.396 . S
C456 C459 1.453 . S
C456 C460 1.684 . S
C457 C447 1.723 . S
C457 C456 1.396 . S
C457 C458 1.394 . S
C458 C428 1.723 . S
C458 C454 1.397 . S
C458 C457 1.394 . S
C459 H431 0.982 . S
C459 H435 0.979 . S
C459 H436 0.977 . S
C459 C456 1.453 . S
C460 H432 0.979 . S
C460 H433 0.980 . S
C460 H434 0.983 . S
C460 C456 1.684 . S
H461 C479 0.948 . S
H462 C420 0.948 . S
H463 C438 0.979 . S
H464 C438 0.980 . S
H465 C438 0.983 . S
H466 C437 0.982 . S
H467 C437 0.979 . S
H468 C437 0.977 . S
H469 C439 0.948 . S
H470 C441 0.947 . S
H471 C442 0.948 . S
H472 C448 0.982 . S
H473 C448 0.979 . S
H474 C448 0.977 . S
H475 C449 0.979 . S
H476 C449 0.980 . S
H477 C449 0.983 . S
H478 C422 0.947 1_556 S
C479 C422 1.392 . S
C479 C423 1.419 . S
C479 H461 0.948 . S
Zn480 O486 1.969 1_455 S
Zn480 O487 1.965 . S
Zn480 O491 2.024 . S
Zn480 O496 1.969 1_455 S
Zn481 O488 1.969 . S
Zn481 O494 1.969 . S
Zn481 O495 1.965 1_455 S
Zn481 O497 2.024 1_455 S
C482 O483 1.229 1_455 S
C482 O491 1.058 . S
O483 C482 1.229 1_655 S
C484 O485 1.218 1_655 S
C484 O497 1.065 . S
O485 C484 1.218 1_455 S
O486 Zn480 1.969 1_655 S
O486 C489 1.241 1_655 S
O487 Zn480 1.965 . S
O487 C498 1.260 . S
O488 Zn481 1.969 . S
O488 C498 1.258 1_565 S
C489 O486 1.241 1_455 S
C489 O490 1.271 . S
O490 C489 1.271 . S
O491 Zn480 2.024 . S
O491 C482 1.058 . S
C492 O493 1.228 1_455 S
C492 O494 1.267 . S
O493 C492 1.228 1_655 S
O494 Zn481 1.969 . S
O494 C492 1.267 . S
O495 Zn481 1.965 1_655 S
O495 C499 1.260 1_565 S
O496 Zn480 1.969 1_655 S
O496 C499 1.258 . S
O497 Zn481 2.024 1_655 S
O497 C484 1.065 . S
C498 O487 1.260 . S
C498 O488 1.258 1_545 S
C499 O495 1.260 1_545 S
C499 O496 1.258 . S
Zn500 O506 1.969 1_545 S
Zn500 O507 1.965 . S
Zn500 O511 2.024 . S
Zn500 O516 1.969 1_545 S
Zn501 O508 1.969 . S
Zn501 O514 1.969 . S
Zn501 O515 1.965 1_545 S
Zn501 O517 2.024 1_545 S
C502 O503 1.229 . S
C502 O511 1.058 . S
O503 C502 1.229 . S
C504 O505 1.229 1_565 S
C504 O517 1.058 . S
O505 C504 1.229 1_545 S
O506 Zn500 1.969 1_565 S
O506 C509 1.267 1_565 S
O507 Zn500 1.965 . S
O507 C518 1.260 . S
O508 Zn501 1.969 . S
O508 C518 1.258 . S
C509 O506 1.267 1_545 S
C509 O510 1.228 . S
O510 C509 1.228 . S
O511 Zn500 2.024 . S
O511 C502 1.058 . S
C512 O513 1.228 1_545 S
C512 O514 1.267 . S
O513 C512 1.228 1_565 S
O514 Zn501 1.969 . S
O514 C512 1.267 . S
O515 Zn501 1.965 1_565 S
O515 C519 1.260 . S
O516 Zn500 1.969 1_565 S
O516 C519 1.258 . S
O517 Zn501 2.024 1_565 S
O517 C504 1.058 . S
C518 O507 1.260 . S
C518 O508 1.258 . S
C519 O515 1.260 . S
C519 O516 1.258 . S
Zn520 O526 1.969 . S
Zn520 O527 1.965 . S
Zn520 O531 2.024 . S
Zn520 O536 1.969 . S
Zn521 O528 1.969 . S
Zn521 O534 1.969 . S
Zn521 O535 1.965 . S
Zn521 O537 2.024 . S
C522 O523 1.229 . S
C522 O531 1.058 . S
O523 C522 1.229 . S
C524 O525 1.229 . S
C524 O537 1.058 . S
O525 C524 1.229 . S
O526 Zn520 1.969 . S
O526 C529 1.267 . S
O527 Zn520 1.965 . S
O527 C538 1.260 . S
O528 Zn521 1.969 . S
O528 C538 1.258 . S
C529 O526 1.267 . S
C529 O530 1.228 . S
O530 C529 1.228 . S
O531 Zn520 2.024 . S
O531 C522 1.058 . S
C532 O533 1.228 . S
C532 O534 1.267 . S
O533 C532 1.228 . S
O534 Zn521 1.969 . S
O534 C532 1.267 . S
O535 Zn521 1.965 . S
O535 C539 1.260 . S
O536 Zn520 1.969 . S
O536 C539 1.258 . S
O537 Zn521 2.024 . S
O537 C524 1.058 . S
C538 O527 1.260 . S
C538 O528 1.258 . S
C539 O535 1.260 . S
C539 O536 1.258 . S
Zn540 O546 1.969 . S
Zn540 O547 1.965 . S
Zn540 O551 2.024 . S
Zn540 O556 1.969 . S
Zn541 O548 1.969 . S
Zn541 O554 1.969 . S
Zn541 O555 1.965 . S
Zn541 O557 2.024 . S
C542 O543 1.229 . S
C542 O551 1.058 . S
O543 C542 1.229 . S
C544 O545 1.229 . S
C544 O557 1.058 . S
O545 C544 1.229 . S
O546 Zn540 1.969 . S
O546 C549 1.267 . S
O547 Zn540 1.965 . S
O547 C558 1.260 . S
O548 Zn541 1.969 . S
O548 C558 1.258 1_655 S
C549 O546 1.267 . S
C549 O550 1.228 . S
O550 C549 1.228 . S
O551 Zn540 2.024 . S
O551 C542 1.058 . S
C552 O553 1.228 . S
C552 O554 1.267 . S
O553 C552 1.228 . S
O554 Zn541 1.969 . S
O554 C552 1.267 . S
O555 Zn541 1.965 . S
O555 C559 1.260 1_655 S
O556 Zn540 1.969 . S
O556 C559 1.258 . S
O557 Zn541 2.024 . S
O557 C544 1.058 . S
C558 O547 1.260 . S
C558 O548 1.258 1_455 S
C559 O555 1.260 1_455 S
C559 O556 1.258 . S
H560 C568 0.929 . S
H561 C570 0.930 . S
H562 C572 0.930 . S
H563 C575 0.929 . S
H564 C578 0.930 . S
H565 C580 0.960 . S
H566 C580 0.960 . S
H567 C580 0.960 . S
C568 H560 0.929 . S
C568 C569 1.377 . S
C568 C570 1.384 . S
C569 C568 1.377 . S
C569 C575 1.390 . S
C570 H561 0.930 . S
C570 C568 1.384 . S
C570 C571 1.372 . S
C571 C570 1.372 . S
C571 C572 1.400 . S
C571 C576 1.490 . S
C572 H562 0.930 . S
C572 C571 1.400 . S
C572 C575 1.386 . S
H573 C589 0.930 . S
H574 C590 0.931 . S
C575 H563 0.929 . S
C575 C569 1.390 . S
C575 C572 1.386 . S
C576 C571 1.490 . S
C576 C578 1.395 . S
C576 C579 1.403 . S
H577 C583 0.930 . S
C578 H564 0.930 . S
C578 C576 1.395 . S
C578 C581 1.403 . S
C579 C576 1.403 . S
C579 C580 1.524 . S
C579 C583 1.400 . S
C580 H565 0.960 . S
C580 H566 0.960 . S
C580 H567 0.960 . S
C580 C579 1.524 . S
C581 C578 1.403 . S
C581 C582 1.392 . S
C581 C585 1.495 1_545 S
C582 C581 1.392 . S
C582 C583 1.385 . S
C582 C584 1.478 . S
C583 H577 0.930 . S
C583 C579 1.400 . S
C583 C582 1.385 . S
C584 C582 1.478 . S
C584 C586 1.414 . S
C584 C590 1.383 . S
C585 C581 1.495 1_565 S
C585 H591 0.959 . S
C585 H592 0.961 . S
C585 H593 0.960 . S
C586 C584 1.414 . S
C586 C587 1.388 1_545 S
C586 H594 0.906 1_545 S
C587 C586 1.388 1_565 S
C587 C588 1.383 1_565 S
C587 H595 0.929 . S
C588 C587 1.383 1_545 S
C588 C589 1.377 . S
C589 H573 0.930 . S
C589 C588 1.377 . S
C589 C590 1.379 . S
C590 H574 0.931 . S
C590 C584 1.383 . S
C590 C589 1.379 . S
H591 C585 0.959 . S
H592 C585 0.961 . S
H593 C585 0.960 . S
H594 C586 0.906 1_565 S
H595 C587 0.929 . S
H596 C604 0.929 . S
H597 C606 0.930 . S
H598 C608 0.930 . S
H599 C611 0.929 . S
H600 C614 0.930 . S
H601 C616 0.960 . S
H602 C616 0.960 . S
H603 C616 0.960 . S
C604 H596 0.929 . S
C604 C605 1.377 . S
C604 C606 1.384 . S
C605 C604 1.377 . S
C605 C611 1.390 . S
C606 H597 0.930 . S
C606 C604 1.384 . S
C606 C607 1.372 . S
C607 C606 1.372 . S
C607 C608 1.400 . S
C607 C612 1.490 . S
C608 H598 0.930 . S
C608 C607 1.400 . S
C608 C611 1.386 . S
H609 C625 0.930 . S
H610 C626 0.931 . S
C611 H599 0.929 . S
C611 C605 1.390 . S
C611 C608 1.386 . S
C612 C607 1.490 . S
C612 C614 1.395 . S
C612 C615 1.403 . S
H613 C619 0.930 . S
C614 H600 0.930 . S
C614 C612 1.395 . S
C614 C617 1.403 . S
C615 C612 1.403 . S
C615 C616 1.524 . S
C615 C619 1.400 . S
C616 H601 0.960 . S
C616 H602 0.960 . S
C616 H603 0.960 . S
C616 C615 1.524 . S
C617 C614 1.403 . S
C617 C618 1.392 . S
C617 C621 1.495 . S
C618 C617 1.392 . S
C618 C619 1.385 . S
C618 C620 1.478 . S
C619 H613 0.930 . S
C619 C615 1.400 . S
C619 C618 1.385 . S
C620 C618 1.478 . S
C620 C622 1.381 . S
C620 C626 1.383 . S
C621 C617 1.495 . S
C621 H627 0.959 . S
C621 H628 0.961 . S
C621 H629 0.960 . S
C622 C620 1.381 . S
C622 C623 1.394 . S
C622 H630 0.930 . S
C623 C622 1.394 . S
C623 C624 1.383 . S
C623 H631 0.929 . S
C624 C623 1.383 . S
C624 C625 1.377 . S
C625 H609 0.930 . S
C625 C624 1.377 . S
C625 C626 1.379 . S
C626 H610 0.931 . S
C626 C620 1.383 . S
C626 C625 1.379 . S
H627 C621 0.959 . S
H628 C621 0.961 . S
H629 C621 0.960 . S
H630 C622 0.930 . S
H631 C623 0.929 . S
H632 C640 0.929 . S
H633 C642 0.930 . S
H634 C644 0.930 . S
H635 C647 0.929 . S
H636 C650 0.930 . S
H637 C652 0.960 . S
H638 C652 0.960 . S
H639 C652 0.960 . S
C640 H632 0.929 . S
C640 C641 1.377 . S
C640 C642 1.384 . S
C641 C640 1.377 . S
C641 C647 1.390 . S
C642 H633 0.930 . S
C642 C640 1.384 . S
C642 C643 1.372 . S
C643 C642 1.372 . S
C643 C644 1.400 . S
C643 C648 1.490 . S
C644 H634 0.930 . S
C644 C643 1.400 . S
C644 C647 1.386 . S
H645 C661 0.930 . S
H646 C662 0.931 . S
C647 H635 0.929 . S
C647 C641 1.390 . S
C647 C644 1.386 . S
C648 C643 1.490 . S
C648 C650 1.395 . S
C648 C651 1.403 . S
H649 C655 0.930 . S
C650 H636 0.930 . S
C650 C648 1.395 . S
C650 C653 1.403 . S
C651 C648 1.403 . S
C651 C652 1.524 . S
C651 C655 1.400 . S
C652 H637 0.960 . S
C652 H638 0.960 . S
C652 H639 0.960 . S
C652 C651 1.524 . S
C653 C650 1.403 . S
C653 C654 1.392 . S
C653 C657 1.495 . S
C654 C653 1.392 . S
C654 C655 1.385 . S
C654 C656 1.478 . S
C655 H649 0.930 . S
C655 C651 1.400 . S
C655 C654 1.385 . S
C656 C654 1.478 . S
C656 C658 1.381 . S
C656 C662 1.383 . S
C657 C653 1.495 . S
C657 H663 0.959 . S
C657 H664 0.961 . S
C657 H665 0.960 . S
C658 C656 1.381 . S
C658 C659 1.394 . S
C658 H666 0.930 . S
C659 C658 1.394 . S
C659 C660 1.383 . S
C659 H667 0.929 . S
C660 C659 1.383 . S
C660 C661 1.377 . S
C661 H645 0.930 . S
C661 C660 1.377 . S
C661 C662 1.379 . S
C662 H646 0.931 . S
C662 C656 1.383 . S
C662 C661 1.379 . S
H663 C657 0.959 . S
H664 C657 0.961 . S
H665 C657 0.960 . S
H666 C658 0.930 . S
H667 C659 0.929 . S
H668 C676 0.929 . S
H669 C678 0.930 . S
H670 C680 0.888 1_655 S
H671 C683 0.929 1_655 S
H672 C686 0.930 . S
H673 C688 0.960 . S
H674 C688 0.960 . S
H675 C688 0.960 . S
C676 H668 0.929 . S
C676 C677 1.377 . S
C676 C678 1.384 . S
C677 C676 1.377 . S
C677 C683 1.390 . S
C678 H669 0.930 . S
C678 C676 1.384 . S
C678 C679 1.372 . S
C679 C678 1.372 . S
C679 C680 1.440 . S
C679 C684 1.490 . S
C680 H670 0.888 1_455 S
C680 C679 1.440 . S
C680 C683 1.389 . S
H681 C697 0.930 . S
H682 C698 0.931 . S
C683 H671 0.929 1_455 S
C683 C677 1.390 . S
C683 C680 1.389 . S
C684 C679 1.490 . S
C684 C686 1.395 . S
C684 C687 1.354 1_455 S
H685 C691 0.955 . S
C686 H672 0.930 . S
C686 C684 1.395 . S
C686 C689 1.403 . S
C687 C684 1.354 1_655 S
C687 C688 1.573 . S
C687 C691 1.399 . S
C688 H673 0.960 . S
C688 H674 0.960 . S
C688 H675 0.960 . S
C688 C687 1.573 . S
C689 C686 1.403 . S
C689 C690 1.392 . S
C689 C693 1.495 . S
C690 C689 1.392 . S
C690 C691 1.361 1_455 S
C690 C692 1.478 . S
C691 H685 0.955 . S
C691 C687 1.399 . S
C691 C690 1.361 1_655 S
C692 C690 1.478 . S
C692 C694 1.381 . S
C692 C698 1.383 1_455 S
C693 C689 1.495 . S
C693 H699 0.959 . S
C693 H700 0.961 . S
C693 H701 0.960 . S
C694 C692 1.381 . S
C694 C695 1.394 . S
C694 H702 0.930 . S
C695 C694 1.394 . S
C695 C696 1.383 . S
C695 H703 0.929 . S
C696 C695 1.383 . S
C696 C697 1.377 1_455 S
C697 H681 0.930 . S
C697 C696 1.377 1_655 S
C697 C698 1.379 . S
C698 H682 0.931 . S
C698 C692 1.383 1_655 S
C698 C697 1.379 . S
H699 C693 0.959 . S
H700 C693 0.961 . S
H701 C693 0.960 . S
H702 C694 0.930 . S
H703 C695 0.929 . S
H704 C712 0.929 . S
H705 C714 0.930 . S
H706 C716 0.930 . S
H707 C719 0.929 . S
H708 C722 0.930 . S
H709 C724 0.960 . S
H710 C724 0.960 . S
H711 C724 0.960 . S
C712 H704 0.929 . S
C712 C713 1.377 . S
C712 C714 1.384 . S
C713 C712 1.377 . S
C713 C719 1.390 . S
C714 H705 0.930 . S
C714 C712 1.384 . S
C714 C715 1.372 . S
C715 C714 1.372 . S
C715 C716 1.400 . S
C715 C720 1.490 . S
C716 H706 0.930 . S
C716 C715 1.400 . S
C716 C719 1.386 . S
H717 C733 0.930 . S
H718 C734 0.931 . S
C719 H707 0.929 . S
C719 C713 1.390 . S
C719 C716 1.386 . S
C720 C715 1.490 . S
C720 C722 1.395 . S
C720 C723 1.403 . S
H721 C727 0.930 . S
C722 H708 0.930 . S
C722 C720 1.395 . S
C722 C725 1.403 . S
C723 C720 1.403 . S
C723 C724 1.524 . S
C723 C727 1.400 . S
C724 H709 0.960 . S
C724 H710 0.960 . S
C724 H711 0.960 . S
C724 C723 1.524 . S
C725 C722 1.403 . S
C725 C726 1.392 . S
C725 C729 1.495 . S
C726 C725 1.392 . S
C726 C727 1.385 . S
C726 C728 1.478 . S
C727 H721 0.930 . S
C727 C723 1.400 . S
C727 C726 1.385 . S
C728 C726 1.478 . S
C728 C730 1.381 . S
C728 C734 1.383 1_565 S
C729 C725 1.495 . S
C729 H735 0.959 . S
C729 H736 0.956 1_565 S
C729 H737 0.960 . S
C730 C728 1.381 . S
C730 C731 1.394 . S
C730 H738 0.930 . S
C731 C730 1.394 . S
C731 C732 1.383 . S
C731 H739 0.929 . S
C732 C731 1.383 . S
C732 C733 1.377 1_565 S
C733 H717 0.930 . S
C733 C732 1.377 1_545 S
C733 C734 1.379 . S
C734 H718 0.931 . S
C734 C728 1.383 1_545 S
C734 C733 1.379 . S
H735 C729 0.959 . S
H736 C729 0.956 1_545 S
H737 C729 0.960 . S
H738 C730 0.930 . S
H739 C731 0.929 . S
H740 C748 0.929 . S
H741 C750 0.930 . S
H742 C752 0.930 . S
H743 C755 0.929 . S
H744 C758 0.930 . S
H745 C760 0.960 . S
H746 C760 0.960 . S
H747 C760 0.960 . S
C748 H740 0.929 . S
C748 C749 1.377 . S
C748 C750 1.384 . S
C749 C748 1.377 . S
C749 C755 1.390 . S
C750 H741 0.930 . S
C750 C748 1.384 . S
C750 C751 1.372 . S
C751 C750 1.372 . S
C751 C752 1.400 . S
C751 C756 1.490 . S
C752 H742 0.930 . S
C752 C751 1.400 . S
C752 C755 1.386 . S
H753 C769 0.930 . S
H754 C770 0.931 . S
C755 H743 0.929 . S
C755 C749 1.390 . S
C755 C752 1.386 . S
C756 C751 1.490 . S
C756 C758 1.395 . S
C756 C759 1.403 . S
H757 C763 0.930 . S
C758 H744 0.930 . S
C758 C756 1.395 . S
C758 C761 1.403 . S
C759 C756 1.403 . S
C759 C760 1.524 . S
C759 C763 1.400 . S
C760 H745 0.960 . S
C760 H746 0.960 . S
C760 H747 0.960 . S
C760 C759 1.524 . S
C761 C758 1.403 . S
C761 C762 1.392 . S
C761 C765 1.495 . S
C762 C761 1.392 . S
C762 C763 1.385 . S
C762 C764 1.478 . S
C763 H757 0.930 . S
C763 C759 1.400 . S
C763 C762 1.385 . S
C764 C762 1.478 . S
C764 C766 1.381 . S
C764 C770 1.383 . S
C765 C761 1.495 . S
C765 H771 0.959 . S
C765 H772 0.961 . S
C765 H773 0.960 . S
C766 C764 1.381 . S
C766 C767 1.394 . S
C766 H774 0.930 . S
C767 C766 1.394 . S
C767 C768 1.383 . S
C767 H775 0.929 . S
C768 C767 1.383 . S
C768 C769 1.377 . S
C769 H753 0.930 . S
C769 C768 1.377 . S
C769 C770 1.379 . S
C770 H754 0.931 . S
C770 C764 1.383 . S
C770 C769 1.379 . S
H771 C765 0.959 . S
H772 C765 0.961 . S
H773 C765 0.960 . S
H774 C766 0.930 . S
H775 C767 0.929 . S
H776 C784 0.929 . S
H777 C786 0.930 . S
H778 C788 0.930 . S
H779 C791 0.929 . S
H780 C794 0.930 . S
H781 C796 0.960 . S
H782 C796 0.960 . S
H783 C796 0.960 . S
C784 H776 0.929 . S
C784 C785 1.377 . S
C784 C786 1.384 . S
C785 C784 1.377 . S
C785 C791 1.390 . S
C786 H777 0.930 . S
C786 C784 1.384 . S
C786 C787 1.372 . S
C787 C786 1.372 . S
C787 C788 1.400 . S
C787 C792 1.490 . S
C788 H778 0.930 . S
C788 C787 1.400 . S
C788 C791 1.386 . S
H789 C805 0.930 . S
H790 C806 0.931 . S
C791 H779 0.929 . S
C791 C785 1.390 . S
C791 C788 1.386 . S
C792 C787 1.490 . S
C792 C794 1.395 . S
C792 C795 1.403 . S
H793 C799 0.930 . S
C794 H780 0.930 . S
C794 C792 1.395 . S
C794 C797 1.403 . S
C795 C792 1.403 . S
C795 C796 1.524 . S
C795 C799 1.400 . S
C796 H781 0.960 . S
C796 H782 0.960 . S
C796 H783 0.960 . S
C796 C795 1.524 . S
C797 C794 1.403 . S
C797 C798 1.392 . S
C797 C801 1.495 . S
C798 C797 1.392 . S
C798 C799 1.385 . S
C798 C800 1.478 . S
C799 H793 0.930 . S
C799 C795 1.400 . S
C799 C798 1.385 . S
C800 C798 1.478 . S
C800 C802 1.381 . S
C800 C806 1.383 . S
C801 C797 1.495 . S
C801 H807 0.959 . S
C801 H808 0.961 . S
C801 H809 0.960 . S
C802 C800 1.381 . S
C802 C803 1.394 . S
C802 H810 0.930 . S
C803 C802 1.394 . S
C803 C804 1.383 . S
C803 H811 0.929 . S
C804 C803 1.383 . S
C804 C805 1.377 . S
C805 H789 0.930 . S
C805 C804 1.377 . S
C805 C806 1.379 . S
C806 H790 0.931 . S
C806 C800 1.383 . S
C806 C805 1.379 . S
H807 C801 0.959 . S
H808 C801 0.961 . S
H809 C801 0.960 . S
H810 C802 0.930 . S
H811 C803 0.929 . S
H812 C820 0.929 . S
H813 C822 0.930 . S
H814 C824 0.930 . S
H815 C827 0.929 . S
H816 C830 0.930 . S
H817 C832 0.960 . S
H818 C832 0.960 . S
H819 C832 0.960 . S
C820 H812 0.929 . S
C820 C821 1.377 . S
C820 C822 1.384 . S
C821 C820 1.377 . S
C821 C827 1.390 1_655 S
C822 H813 0.930 . S
C822 C820 1.384 . S
C822 C823 1.372 . S
C823 C822 1.372 . S
C823 C824 1.400 1_655 S
C823 C828 1.490 . S
C824 H814 0.930 . S
C824 C823 1.400 1_455 S
C824 C827 1.386 . S
H825 C841 0.930 . S
H826 C842 0.931 . S
C827 H815 0.929 . S
C827 C821 1.390 1_455 S
C827 C824 1.386 . S
C828 C823 1.490 . S
C828 C830 1.395 . S
C828 C831 1.403 1_655 S
H829 C835 0.930 . S
C830 H816 0.930 . S
C830 C828 1.395 . S
C830 C833 1.403 . S
C831 C828 1.403 1_455 S
C831 C832 1.524 . S
C831 C835 1.400 . S
C832 H817 0.960 . S
C832 H818 0.960 . S
C832 H819 0.960 . S
C832 C831 1.524 . S
C833 C830 1.403 . S
C833 C834 1.392 . S
C833 C837 1.495 . S
C834 C833 1.392 . S
C834 C835 1.385 1_655 S
C834 C836 1.477 . S
C835 H829 0.930 . S
C835 C831 1.400 . S
C835 C834 1.385 1_455 S
C836 C834 1.477 . S
C836 C838 1.377 . S
C836 C842 1.388 1_655 S
C837 C833 1.495 . S
C837 H843 0.959 . S
C837 H844 0.961 . S
C837 H845 0.960 . S
C838 C836 1.377 . S
C838 C839 1.394 . S
C838 H846 0.930 . S
C839 C838 1.394 . S
C839 C840 1.383 1_655 S
C839 H847 0.929 . S
C840 C839 1.383 1_455 S
C840 C841 1.377 . S
C841 H825 0.930 . S
C841 C840 1.377 . S
C841 C842 1.379 . S
C842 H826 0.931 . S
C842 C836 1.388 1_455 S
C842 C841 1.379 . S
H843 C837 0.959 . S
H844 C837 0.961 . S
H845 C837 0.960 . S
H846 C838 0.930 . S
H847 C839 0.929 . S
H848 C856 0.929 . S
H849 C858 0.930 1_655 S
H850 C860 0.930 . S
H851 C863 0.929 . S
H852 C866 0.930 . S
H853 C868 0.960 . S
H854 C868 0.960 . S
H855 C868 0.964 1_455 S
C856 H848 0.929 . S
C856 C857 1.377 . S
C856 C858 1.384 . S
C857 C856 1.377 . S
C857 C863 1.390 . S
C858 H849 0.930 1_455 S
C858 C856 1.384 . S
C858 C859 1.372 . S
C859 C858 1.372 . S
C859 C860 1.400 . S
C859 C864 1.490 . S
C860 H850 0.930 . S
C860 C859 1.400 . S
C860 C863 1.386 . S
H861 C877 0.930 . S
H862 C878 0.931 . S
C863 H851 0.929 . S
C863 C857 1.390 . S
C863 C860 1.386 . S
C864 C859 1.490 . S
C864 C866 1.395 . S
C864 C867 1.391 1_455 S
H865 C871 0.930 . S
C866 H852 0.930 . S
C866 C864 1.395 . S
C866 C869 1.403 . S
C867 C864 1.391 1_655 S
C867 C868 1.534 . S
C867 C871 1.402 . S
C868 H853 0.960 . S
C868 H854 0.960 . S
C868 H855 0.964 1_655 S
C868 C867 1.534 . S
C869 C866 1.403 . S
C869 C870 1.392 . S
C869 C873 1.495 . S
C870 C869 1.392 . S
C870 C871 1.385 1_455 S
C870 C872 1.478 . S
C871 H865 0.930 . S
C871 C867 1.402 . S
C871 C870 1.385 1_655 S
C872 C870 1.478 . S
C872 C874 1.381 1_455 S
C872 C878 1.383 . S
C873 C869 1.495 . S
C873 H879 0.959 . S
C873 H880 0.961 . S
C873 H881 0.960 . S
C874 C872 1.381 1_655 S
C874 C875 1.394 . S
C874 H882 0.930 . S
C875 C874 1.394 . S
C875 C876 1.383 . S
C875 H883 0.929 . S
C876 C875 1.383 . S
C876 C877 1.377 1_655 S
C877 H861 0.930 . S
C877 C876 1.377 1_455 S
C877 C878 1.379 . S
C878 H862 0.931 . S
C878 C872 1.383 . S
C878 C877 1.379 . S
H879 C873 0.959 . S
H880 C873 0.961 . S
H881 C873 0.960 . S
H882 C874 0.930 . S
H883 C875 0.929 . S
H884 C892 0.929 . S
H885 C894 0.930 . S
H886 C896 0.930 . S
H887 C899 0.929 . S
H888 C902 0.930 . S
H889 C904 0.960 . S
H890 C904 0.960 . S
H891 C904 0.960 1_545 S
C892 H884 0.929 . S
C892 C893 1.377 . S
C892 C894 1.384 . S
C893 C892 1.377 . S
C893 C899 1.390 . S
C894 H885 0.930 . S
C894 C892 1.384 . S
C894 C895 1.372 . S
C895 C894 1.372 . S
C895 C896 1.400 . S
C895 C900 1.490 . S
C896 H886 0.930 . S
C896 C895 1.400 . S
C896 C899 1.386 . S
H897 C913 0.930 . S
H898 C914 0.931 . S
C899 H887 0.929 . S
C899 C893 1.390 . S
C899 C896 1.386 . S
C900 C895 1.490 . S
C900 C902 1.395 . S
C900 C903 1.403 . S
H901 C907 0.907 1_565 S
C902 H888 0.930 . S
C902 C900 1.395 . S
C902 C905 1.403 . S
C903 C900 1.403 . S
C903 C904 1.524 1_545 S
C903 C907 1.400 . S
C904 H889 0.960 . S
C904 H890 0.960 . S
C904 H891 0.960 1_565 S
C904 C903 1.524 1_565 S
C905 C902 1.403 . S
C905 C906 1.392 . S
C905 C909 1.495 . S
C906 C905 1.392 . S
C906 C907 1.385 . S
C906 C908 1.478 . S
C907 H901 0.907 1_545 S
C907 C903 1.400 . S
C907 C906 1.385 . S
C908 C906 1.478 . S
C908 C910 1.381 . S
C908 C914 1.383 . S
C909 C905 1.495 . S
C909 H915 0.959 . S
C909 H916 0.961 . S
C909 H917 0.960 . S
C910 C908 1.381 . S
C910 C911 1.394 . S
C910 H918 0.930 . S
C911 C910 1.394 . S
C911 C912 1.383 . S
C911 H919 0.929 . S
C912 C911 1.383 . S
C912 C913 1.377 . S
C913 H897 0.930 . S
C913 C912 1.377 . S
C913 C914 1.379 . S
C914 H898 0.931 . S
C914 C908 1.383 . S
C914 C913 1.379 . S
H915 C909 0.959 . S
H916 C909 0.961 . S
H917 C909 0.960 . S
H918 C910 0.930 . S
H919 C911 0.929 . S
H920 C928 0.929 . S
H921 C930 0.930 . S
H922 C932 0.930 . S
H923 C935 0.929 . S
H924 C938 0.930 . S
H925 C940 0.960 . S
H926 C940 0.960 . S
H927 C940 0.960 . S
C928 H920 0.929 . S
C928 C929 1.377 . S
C928 C930 1.384 . S
C929 C928 1.377 . S
C929 C935 1.390 . S
C930 H921 0.930 . S
C930 C928 1.384 . S
C930 C931 1.372 . S
C931 C930 1.372 . S
C931 C932 1.400 . S
C931 C936 1.490 . S
C932 H922 0.930 . S
C932 C931 1.400 . S
C932 C935 1.386 . S
H933 C949 0.930 . S
H934 C950 0.931 . S
C935 H923 0.929 . S
C935 C929 1.390 . S
C935 C932 1.386 . S
C936 C931 1.490 . S
C936 C938 1.395 . S
C936 C939 1.403 . S
H937 C943 0.930 . S
C938 H924 0.930 . S
C938 C936 1.395 . S
C938 C941 1.403 . S
C939 C936 1.403 . S
C939 C940 1.524 . S
C939 C943 1.400 . S
C940 H925 0.960 . S
C940 H926 0.960 . S
C940 H927 0.960 . S
C940 C939 1.524 . S
C941 C938 1.403 . S
C941 C942 1.392 . S
C941 C945 1.495 . S
C942 C941 1.392 . S
C942 C943 1.385 . S
C942 C944 1.478 . S
C943 H937 0.930 . S
C943 C939 1.400 . S
C943 C942 1.385 . S
C944 C942 1.478 . S
C944 C946 1.381 . S
C944 C950 1.383 . S
C945 C941 1.495 . S
C945 H951 0.959 . S
C945 H952 0.961 . S
C945 H953 0.960 . S
C946 C944 1.381 . S
C946 C947 1.394 . S
C946 H954 0.930 . S
C947 C946 1.394 . S
C947 C948 1.383 . S
C947 H955 0.929 . S
C948 C947 1.383 . S
C948 C949 1.377 . S
C949 H933 0.930 . S
C949 C948 1.377 . S
C949 C950 1.379 . S
C950 H934 0.931 . S
C950 C944 1.383 . S
C950 C949 1.379 . S
H951 C945 0.959 . S
H952 C945 0.961 . S
H953 C945 0.960 . S
H954 C946 0.930 . S
H955 C947 0.929 . S
H956 C964 0.929 . S
H957 C966 0.930 . S
H958 C968 0.930 . S
H959 C971 0.929 . S
H960 C974 0.930 . S
H961 C976 0.960 . S
H962 C976 0.960 . S
H963 C976 0.960 . S
C964 H956 0.929 . S
C964 C965 1.377 . S
C964 C966 1.384 . S
C965 C964 1.377 . S
C965 C971 1.390 . S
C966 H957 0.930 . S
C966 C964 1.384 . S
C966 C967 1.372 . S
C967 C966 1.372 . S
C967 C968 1.400 . S
C967 C972 1.490 . S
C968 H958 0.930 . S
C968 C967 1.400 . S
C968 C971 1.386 . S
H969 C985 0.930 . S
H970 C986 0.931 . S
C971 H959 0.929 . S
C971 C965 1.390 . S
C971 C968 1.386 . S
C972 C967 1.490 . S
C972 C974 1.395 . S
C972 C975 1.403 . S
H973 C979 0.930 . S
C974 H960 0.930 . S
C974 C972 1.395 . S
C974 C977 1.403 . S
C975 C972 1.403 . S
C975 C976 1.524 . S
C975 C979 1.400 . S
C976 H961 0.960 . S
C976 H962 0.960 . S
C976 H963 0.960 . S
C976 C975 1.524 . S
C977 C974 1.403 . S
C977 C978 1.392 . S
C977 C981 1.495 . S
C978 C977 1.392 . S
C978 C979 1.385 . S
C978 C980 1.478 . S
C979 H973 0.930 . S
C979 C975 1.400 . S
C979 C978 1.385 . S
C980 C978 1.478 . S
C980 C982 1.381 . S
C980 C986 1.383 . S
C981 C977 1.495 . S
C981 H987 0.959 . S
C981 H988 0.961 . S
C981 H989 0.960 . S
C982 C980 1.381 . S
C982 C983 1.394 . S
C982 H990 0.930 . S
C983 C982 1.394 . S
C983 C984 1.383 . S
C983 H991 0.929 . S
C984 C983 1.383 . S
C984 C985 1.377 . S
C985 H969 0.930 . S
C985 C984 1.377 . S
C985 C986 1.379 . S
C986 H970 0.931 . S
C986 C980 1.383 . S
C986 C985 1.379 . S
H987 C981 0.959 . S
H988 C981 0.961 . S
H989 C981 0.960 . S
H990 C982 0.930 . S
H991 C983 0.929 . S
H992 C1000 0.929 . S
H993 C1002 0.930 . S
H994 C1004 0.923 1_455 S
H995 C1007 0.929 . S
H996 C1010 0.930 . S
H997 C1012 0.960 . S
H998 C1012 0.960 . S
H999 C1012 0.960 . S
C1000 H992 0.929 . S
C1000 C1001 1.377 . S
C1000 C1002 1.384 . S
C1001 C1000 1.377 . S
C1001 C1007 1.390 . S
C1002 H993 0.930 . S
C1002 C1000 1.384 . S
C1002 C1003 1.372 . S
C1003 C1002 1.372 . S
C1003 C1004 1.403 . S
C1003 C1008 1.490 1_655 S
C1004 H994 0.923 1_655 S
C1004 C1003 1.403 . S
C1004 C1007 1.392 . S
H1005 C1021 0.930 . S
H1006 C1022 0.931 . S
C1007 H995 0.929 . S
C1007 C1001 1.390 . S
C1007 C1004 1.392 . S
C1008 C1003 1.490 1_455 S
C1008 C1010 1.395 . S
C1008 C1011 1.403 1_455 S
H1009 C1015 0.930 . S
C1010 H996 0.930 . S
C1010 C1008 1.395 . S
C1010 C1013 1.403 . S
C1011 C1008 1.403 1_655 S
C1011 C1012 1.524 . S
C1011 C1015 1.400 . S
C1012 H997 0.960 . S
C1012 H998 0.960 . S
C1012 H999 0.960 . S
C1012 C1011 1.524 . S
C1013 C1010 1.403 . S
C1013 C1014 1.392 . S
C1013 C1017 1.495 . S
C1014 C1013 1.392 . S
C1014 C1015 1.385 1_455 S
C1014 C1016 1.478 . S
C1015 H1009 0.930 . S
C1015 C1011 1.400 . S
C1015 C1014 1.385 1_655 S
C1016 C1014 1.478 . S
C1016 C1018 1.381 . S
C1016 C1022 1.383 . S
C1017 C1013 1.495 . S
C1017 H1023 0.959 . S
C1017 H1024 0.961 . S
C1017 H1025 0.960 . S
C1018 C1016 1.381 . S
C1018 C1019 1.394 . S
C1018 H1026 0.930 . S
C1019 C1018 1.394 . S
C1019 C1020 1.383 . S
C1019 H1027 0.929 . S
C1020 C1019 1.383 . S
C1020 C1021 1.377 . S
C1021 H1005 0.930 . S
C1021 C1020 1.377 . S
C1021 C1022 1.379 . S
C1022 H1006 0.931 . S
C1022 C1016 1.383 . S
C1022 C1021 1.379 . S
H1023 C1017 0.959 . S
H1024 C1017 0.961 . S
H1025 C1017 0.960 . S
H1026 C1018 0.930 . S
H1027 C1019 0.929 . S
H1028 C1036 0.929 . S
H1029 C1038 0.930 1_545 S
H1030 C1040 0.930 . S
H1031 C1043 0.929 . S
H1032 C1046 0.930 . S
H1033 C1048 0.960 . S
H1034 C1048 0.960 . S
H1035 C1048 0.960 . S
C1036 H1028 0.929 . S
C1036 C1037 1.377 . S
C1036 C1038 1.384 . S
C1037 C1036 1.377 . S
C1037 C1043 1.390 . S
C1038 H1029 0.930 1_565 S
C1038 C1036 1.384 . S
C1038 C1039 1.372 . S
C1039 C1038 1.372 . S
C1039 C1040 1.400 . S
C1039 C1044 1.490 . S
C1040 H1030 0.930 . S
C1040 C1039 1.400 . S
C1040 C1043 1.386 . S
H1041 C1057 0.930 . S
H1042 C1058 0.931 . S
C1043 H1031 0.929 . S
C1043 C1037 1.390 . S
C1043 C1040 1.386 . S
C1044 C1039 1.490 . S
C1044 C1046 1.395 . S
C1044 C1047 1.403 . S
H1045 C1051 0.930 . S
C1046 H1032 0.930 . S
C1046 C1044 1.395 . S
C1046 C1049 1.403 . S
C1047 C1044 1.403 . S
C1047 C1048 1.524 . S
C1047 C1051 1.400 . S
C1048 H1033 0.960 . S
C1048 H1034 0.960 . S
C1048 H1035 0.960 . S
C1048 C1047 1.524 . S
C1049 C1046 1.403 . S
C1049 C1050 1.392 . S
C1049 C1053 1.495 1_565 S
C1050 C1049 1.392 . S
C1050 C1051 1.385 . S
C1050 C1052 1.469 1_565 S
C1051 H1045 0.930 . S
C1051 C1047 1.400 . S
C1051 C1050 1.385 . S
C1052 C1050 1.469 1_545 S
C1052 C1054 1.412 . S
C1052 C1058 1.360 1_545 S
C1053 C1049 1.495 1_545 S
C1053 H1059 0.959 . S
C1053 H1060 0.961 . S
C1053 H1061 0.960 . S
C1054 C1052 1.412 . S
C1054 C1055 1.394 . S
C1054 H1062 0.930 . S
C1055 C1054 1.394 . S
C1055 C1056 1.383 . S
C1055 H1063 0.929 . S
C1056 C1055 1.383 . S
C1056 C1057 1.377 1_545 S
C1057 H1041 0.930 . S
C1057 C1056 1.377 1_565 S
C1057 C1058 1.379 . S
C1058 H1042 0.931 . S
C1058 C1052 1.360 1_565 S
C1058 C1057 1.379 . S
H1059 C1053 0.959 . S
H1060 C1053 0.961 . S
H1061 C1053 0.960 . S
H1062 C1054 0.930 . S
H1063 C1055 0.929 . S
H1064 C1072 0.929 . S
H1065 C1074 0.930 . S
H1066 C1076 0.930 . S
H1067 C1079 0.929 . S
H1068 C1082 0.930 . S
H1069 C1084 0.960 . S
H1070 C1084 0.960 . S
H1071 C1084 0.960 . S
C1072 H1064 0.929 . S
C1072 C1073 1.377 . S
C1072 C1074 1.384 . S
C1073 C1072 1.377 . S
C1073 C1079 1.390 . S
C1074 H1065 0.930 . S
C1074 C1072 1.384 . S
C1074 C1075 1.372 . S
C1075 C1074 1.372 . S
C1075 C1076 1.400 . S
C1075 C1080 1.490 . S
C1076 H1066 0.930 . S
C1076 C1075 1.400 . S
C1076 C1079 1.386 . S
H1077 C1093 0.930 . S
H1078 C1094 0.931 . S
C1079 H1067 0.929 . S
C1079 C1073 1.390 . S
C1079 C1076 1.386 . S
C1080 C1075 1.490 . S
C1080 C1082 1.395 . S
C1080 C1083 1.403 . S
H1081 C1087 0.930 . S
C1082 H1068 0.930 . S
C1082 C1080 1.395 . S
C1082 C1085 1.403 . S
C1083 C1080 1.403 . S
C1083 C1084 1.524 . S
C1083 C1087 1.400 . S
C1084 H1069 0.960 . S
C1084 H1070 0.960 . S
C1084 H1071 0.960 . S
C1084 C1083 1.524 . S
C1085 C1082 1.403 . S
C1085 C1086 1.392 . S
C1085 C1089 1.495 . S
C1086 C1085 1.392 . S
C1086 C1087 1.385 . S
C1086 C1088 1.478 . S
C1087 H1081 0.930 . S
C1087 C1083 1.400 . S
C1087 C1086 1.385 . S
C1088 C1086 1.478 . S
C1088 C1090 1.381 . S
C1088 C1094 1.383 . S
C1089 C1085 1.495 . S
C1089 H1095 0.959 . S
C1089 H1096 0.961 . S
C1089 H1097 0.960 . S
C1090 C1088 1.381 . S
C1090 C1091 1.394 . S
C1090 H1098 0.930 . S
C1091 C1090 1.394 . S
C1091 C1092 1.383 . S
C1091 H1099 0.929 . S
C1092 C1091 1.383 . S
C1092 C1093 1.377 . S
C1093 H1077 0.930 . S
C1093 C1092 1.377 . S
C1093 C1094 1.379 . S
C1094 H1078 0.931 . S
C1094 C1088 1.383 . S
C1094 C1093 1.379 . S
H1095 C1089 0.959 . S
H1096 C1089 0.961 . S
H1097 C1089 0.960 . S
H1098 C1090 0.930 . S
H1099 C1091 0.929 . S
H1100 C1108 0.929 . S
H1101 C1110 0.930 . S
H1102 C1112 0.930 . S
H1103 C1115 0.929 . S
H1104 C1118 0.930 . S
H1105 C1120 0.960 . S
H1106 C1120 0.960 . S
H1107 C1120 0.960 . S
C1108 H1100 0.929 . S
C1108 C1109 1.377 . S
C1108 C1110 1.384 . S
C1109 C1108 1.377 . S
C1109 C1115 1.390 . S
C1110 H1101 0.930 . S
C1110 C1108 1.384 . S
C1110 C1111 1.372 . S
C1111 C1110 1.372 . S
C1111 C1112 1.400 . S
C1111 C1116 1.490 . S
C1112 H1102 0.930 . S
C1112 C1111 1.400 . S
C1112 C1115 1.386 . S
H1113 C1129 0.930 . S
H1114 C1130 0.931 . S
C1115 H1103 0.929 . S
C1115 C1109 1.390 . S
C1115 C1112 1.386 . S
C1116 C1111 1.490 . S
C1116 C1118 1.395 . S
C1116 C1119 1.403 . S
H1117 C1123 0.930 . S
C1118 H1104 0.930 . S
C1118 C1116 1.395 . S
C1118 C1121 1.403 . S
C1119 C1116 1.403 . S
C1119 C1120 1.524 . S
C1119 C1123 1.400 . S
C1120 H1105 0.960 . S
C1120 H1106 0.960 . S
C1120 H1107 0.960 . S
C1120 C1119 1.524 . S
C1121 C1118 1.403 . S
C1121 C1122 1.392 . S
C1121 C1125 1.495 . S
C1122 C1121 1.392 . S
C1122 C1123 1.385 . S
C1122 C1124 1.478 . S
C1123 H1117 0.930 . S
C1123 C1119 1.400 . S
C1123 C1122 1.385 . S
C1124 C1122 1.478 . S
C1124 C1126 1.381 . S
C1124 C1130 1.383 . S
C1125 C1121 1.495 . S
C1125 H1131 0.959 . S
C1125 H1132 0.961 . S
C1125 H1133 0.960 . S
C1126 C1124 1.381 . S
C1126 C1127 1.394 . S
C1126 H1134 0.930 . S
C1127 C1126 1.394 . S
C1127 C1128 1.383 . S
C1127 H1135 0.929 . S
C1128 C1127 1.383 . S
C1128 C1129 1.377 . S
C1129 H1113 0.930 . S
C1129 C1128 1.377 . S
C1129 C1130 1.379 . S
C1130 H1114 0.931 . S
C1130 C1124 1.383 . S
C1130 C1129 1.379 . S
H1131 C1125 0.959 . S
H1132 C1125 0.961 . S
H1133 C1125 0.960 . S
H1134 C1126 0.930 . S
H1135 C1127 0.929 . S
H1136 C1144 0.929 . S
H1137 C1146 0.930 . S
H1138 C1148 0.906 1_655 S
H1139 C1151 0.921 1_655 S
H1140 C1154 0.930 . S
H1141 C1156 0.960 . S
H1142 C1156 0.928 1_455 S
H1143 C1156 0.960 . S
C1144 H1136 0.929 . S
C1144 C1145 1.377 . S
C1144 C1146 1.384 . S
C1145 C1144 1.377 . S
C1145 C1151 1.398 . S
C1146 H1137 0.930 . S
C1146 C1144 1.384 . S
C1146 C1147 1.372 . S
C1147 C1146 1.372 . S
C1147 C1148 1.424 . S
C1147 C1152 1.490 . S
C1148 H1138 0.906 1_455 S
C1148 C1147 1.424 . S
C1148 C1151 1.386 . S
H1149 C1165 0.880 1_655 S
H1150 C1166 0.931 1_655 S
C1151 H1139 0.921 1_455 S
C1151 C1145 1.398 . S
C1151 C1148 1.386 . S
C1152 C1147 1.490 . S
C1152 C1154 1.395 . S
C1152 C1155 1.403 . S
H1153 C1159 0.906 1_655 S
C1154 H1140 0.930 . S
C1154 C1152 1.395 . S
C1154 C1157 1.403 . S
C1155 C1152 1.403 . S
C1155 C1156 1.524 1_455 S
C1155 C1159 1.400 . S
C1156 H1141 0.960 . S
C1156 H1142 0.928 1_655 S
C1156 H1143 0.960 . S
C1156 C1155 1.524 1_655 S
C1157 C1154 1.403 . S
C1157 C1158 1.392 . S
C1157 C1161 1.495 . S
C1158 C1157 1.392 . S
C1158 C1159 1.385 . S
C1158 C1160 1.478 . S
C1159 H1153 0.906 1_455 S
C1159 C1155 1.400 . S
C1159 C1158 1.385 . S
C1160 C1158 1.478 . S
C1160 C1162 1.381 . S
C1160 C1166 1.383 . S
C1161 C1157 1.495 . S
C1161 H1167 0.959 . S
C1161 H1168 0.961 . S
C1161 H1169 0.960 . S
C1162 C1160 1.381 . S
C1162 C1163 1.394 . S
C1162 H1170 0.930 . S
C1163 C1162 1.394 . S
C1163 C1164 1.383 . S
C1163 H1171 0.929 . S
C1164 C1163 1.383 . S
C1164 C1165 1.423 . S
C1165 H1149 0.880 1_455 S
C1165 C1164 1.423 . S
C1165 C1166 1.384 . S
C1166 H1150 0.931 1_455 S
C1166 C1160 1.383 . S
C1166 C1165 1.384 . S
H1167 C1161 0.959 . S
H1168 C1161 0.961 . S
H1169 C1161 0.960 . S
H1170 C1162 0.930 . S
H1171 C1163 0.929 . S
H1172 C1180 0.929 . S
H1173 C1182 0.930 . S
H1174 C1184 0.930 . S
H1175 C1187 0.929 . S
H1176 C1190 0.930 . S
H1177 C1192 0.960 . S
H1178 C1192 0.960 . S
H1179 C1192 0.960 . S
C1180 H1172 0.929 . S
C1180 C1181 1.377 . S
C1180 C1182 1.384 . S
C1181 C1180 1.377 . S
C1181 C1187 1.390 . S
C1182 H1173 0.930 . S
C1182 C1180 1.384 . S
C1182 C1183 1.372 . S
C1183 C1182 1.372 . S
C1183 C1184 1.400 . S
C1183 C1188 1.490 . S
C1184 H1174 0.930 . S
C1184 C1183 1.400 . S
C1184 C1187 1.386 . S
H1185 C1201 0.930 . S
H1186 C1202 0.931 . S
C1187 H1175 0.929 . S
C1187 C1181 1.390 . S
C1187 C1184 1.386 . S
C1188 C1183 1.490 . S
C1188 C1190 1.395 . S
C1188 C1191 1.403 . S
H1189 C1195 0.930 . S
C1190 H1176 0.930 . S
C1190 C1188 1.395 . S
C1190 C1193 1.403 . S
C1191 C1188 1.403 . S
C1191 C1192 1.524 . S
C1191 C1195 1.400 . S
C1192 H1177 0.960 . S
C1192 H1178 0.960 . S
C1192 H1179 0.960 . S
C1192 C1191 1.524 . S
C1193 C1190 1.403 . S
C1193 C1194 1.392 . S
C1193 C1197 1.495 . S
C1194 C1193 1.392 . S
C1194 C1195 1.385 . S
C1194 C1196 1.478 . S
C1195 H1189 0.930 . S
C1195 C1191 1.400 . S
C1195 C1194 1.385 . S
C1196 C1194 1.478 . S
C1196 C1198 1.381 . S
C1196 C1202 1.383 . S
C1197 C1193 1.495 . S
C1197 H1203 0.959 . S
C1197 H1204 0.961 . S
C1197 H1205 0.960 . S
C1198 C1196 1.381 . S
C1198 C1199 1.394 . S
C1198 H1206 0.930 . S
C1199 C1198 1.394 . S
C1199 C1200 1.383 . S
C1199 H1207 0.929 . S
C1200 C1199 1.383 . S
C1200 C1201 1.377 . S
C1201 H1185 0.930 . S
C1201 C1200 1.377 . S
C1201 C1202 1.379 . S
C1202 H1186 0.931 . S
C1202 C1196 1.383 . S
C1202 C1201 1.379 . S
H1203 C1197 0.959 . S
H1204 C1197 0.961 . S
H1205 C1197 0.960 . S
H1206 C1198 0.930 . S
H1207 C1199 0.929 . S
H1208 C1216 0.929 . S
H1209 C1218 0.930 . S
H1210 C1220 0.930 . S
H1211 C1223 0.929 . S
H1212 C1226 0.930 . S
H1213 C1228 0.960 . S
H1214 C1228 0.960 . S
H1215 C1228 0.960 . S
C1216 H1208 0.929 . S
C1216 C1217 1.377 . S
C1216 C1218 1.384 . S
C1217 C1216 1.377 . S
C1217 C1223 1.390 . S
C1218 H1209 0.930 . S
C1218 C1216 1.384 . S
C1218 C1219 1.372 . S
C1219 C1218 1.372 . S
C1219 C1220 1.400 . S
C1219 C1224 1.490 . S
C1220 H1210 0.930 . S
C1220 C1219 1.400 . S
C1220 C1223 1.386 . S
H1221 C1237 0.930 . S
H1222 C1238 0.931 . S
C1223 H1211 0.929 . S
C1223 C1217 1.390 . S
C1223 C1220 1.386 . S
C1224 C1219 1.490 . S
C1224 C1226 1.395 . S
C1224 C1227 1.403 . S
H1225 C1231 0.930 . S
C1226 H1212 0.930 . S
C1226 C1224 1.395 . S
C1226 C1229 1.403 . S
C1227 C1224 1.403 . S
C1227 C1228 1.524 . S
C1227 C1231 1.400 . S
C1228 H1213 0.960 . S
C1228 H1214 0.960 . S
C1228 H1215 0.960 . S
C1228 C1227 1.524 . S
C1229 C1226 1.403 . S
C1229 C1230 1.392 . S
C1229 C1233 1.495 . S
C1230 C1229 1.392 . S
C1230 C1231 1.385 . S
C1230 C1232 1.478 . S
C1231 H1225 0.930 . S
C1231 C1227 1.400 . S
C1231 C1230 1.385 . S
C1232 C1230 1.478 . S
C1232 C1234 1.381 . S
C1232 C1238 1.383 . S
C1233 C1229 1.495 . S
C1233 H1239 0.959 . S
C1233 H1240 0.961 . S
C1233 H1241 0.960 . S
C1234 C1232 1.381 . S
C1234 C1235 1.394 . S
C1234 H1242 0.930 . S
C1235 C1234 1.394 . S
C1235 C1236 1.383 . S
C1235 H1243 0.929 . S
C1236 C1235 1.383 . S
C1236 C1237 1.377 . S
C1237 H1221 0.930 . S
C1237 C1236 1.377 . S
C1237 C1238 1.379 . S
C1238 H1222 0.931 . S
C1238 C1232 1.383 . S
C1238 C1237 1.379 . S
H1239 C1233 0.959 . S
H1240 C1233 0.961 . S
H1241 C1233 0.960 . S
H1242 C1234 0.930 . S
H1243 C1235 0.929 . S
H1244 C1252 0.929 . S
H1245 C1254 0.930 . S
H1246 C1256 0.930 . S
H1247 C1259 0.929 . S
H1248 C1262 0.930 . S
H1249 C1264 0.960 . S
H1250 C1264 0.960 . S
H1251 C1264 0.960 . S
C1252 H1244 0.929 . S
C1252 C1253 1.377 . S
C1252 C1254 1.384 . S
C1253 C1252 1.377 . S
C1253 C1259 1.390 . S
C1254 H1245 0.930 . S
C1254 C1252 1.384 . S
C1254 C1255 1.372 . S
C1255 C1254 1.372 . S
C1255 C1256 1.400 . S
C1255 C1260 1.490 . S
C1256 H1246 0.930 . S
C1256 C1255 1.400 . S
C1256 C1259 1.386 . S
H1257 C1273 0.930 . S
H1258 C1274 0.931 . S
C1259 H1247 0.929 . S
C1259 C1253 1.390 . S
C1259 C1256 1.386 . S
C1260 C1255 1.490 . S
C1260 C1262 1.395 . S
C1260 C1263 1.403 . S
H1261 C1267 0.930 . S
C1262 H1248 0.930 . S
C1262 C1260 1.395 . S
C1262 C1265 1.403 . S
C1263 C1260 1.403 . S
C1263 C1264 1.524 . S
C1263 C1267 1.400 . S
C1264 H1249 0.960 . S
C1264 H1250 0.960 . S
C1264 H1251 0.960 . S
C1264 C1263 1.524 . S
C1265 C1262 1.403 . S
C1265 C1266 1.392 . S
C1265 C1269 1.495 . S
C1266 C1265 1.392 . S
C1266 C1267 1.385 . S
C1266 C1268 1.478 . S
C1267 H1261 0.930 . S
C1267 C1263 1.400 . S
C1267 C1266 1.385 . S
C1268 C1266 1.478 . S
C1268 C1270 1.381 . S
C1268 C1274 1.383 . S
C1269 C1265 1.495 . S
C1269 H1275 0.959 . S
C1269 H1276 0.961 . S
C1269 H1277 0.960 . S
C1270 C1268 1.381 . S
C1270 C1271 1.394 . S
C1270 H1278 0.930 . S
C1271 C1270 1.394 . S
C1271 C1272 1.383 . S
C1271 H1279 0.929 . S
C1272 C1271 1.383 . S
C1272 C1273 1.377 . S
C1273 H1257 0.930 . S
C1273 C1272 1.377 . S
C1273 C1274 1.379 . S
C1274 H1258 0.931 . S
C1274 C1268 1.383 . S
C1274 C1273 1.379 . S
H1275 C1269 0.959 . S
H1276 C1269 0.961 . S
H1277 C1269 0.960 . S
H1278 C1270 0.930 . S
H1279 C1271 0.929 . S
H1280 C1288 0.929 . S
H1281 C1290 0.930 . S
H1282 C1292 0.930 . S
H1283 C1295 0.929 . S
H1284 C1298 0.921 1_455 S
H1285 C1300 0.960 . S
H1286 C1300 0.960 . S
H1287 C1300 0.960 . S
C1288 H1280 0.929 . S
C1288 C1289 1.377 . S
C1288 C1290 1.384 . S
C1289 C1288 1.377 . S
C1289 C1295 1.390 1_655 S
C1290 H1281 0.930 . S
C1290 C1288 1.384 . S
C1290 C1291 1.372 . S
C1291 C1290 1.372 . S
C1291 C1292 1.400 1_655 S
C1291 C1296 1.490 . S
C1292 H1282 0.930 . S
C1292 C1291 1.400 1_455 S
C1292 C1295 1.386 . S
H1293 C1309 0.930 . S
H1294 C1310 0.931 . S
C1295 H1283 0.929 . S
C1295 C1289 1.390 1_455 S
C1295 C1292 1.386 . S
C1296 C1291 1.490 . S
C1296 C1298 1.407 . S
C1296 C1299 1.403 . S
H1297 C1303 0.930 . S
C1298 H1284 0.921 1_655 S
C1298 C1296 1.407 . S
C1298 C1301 1.402 1_655 S
C1299 C1296 1.403 . S
C1299 C1300 1.524 . S
C1299 C1303 1.400 . S
C1300 H1285 0.960 . S
C1300 H1286 0.960 . S
C1300 H1287 0.960 . S
C1300 C1299 1.524 . S
C1301 C1298 1.402 1_455 S
C1301 C1302 1.391 1_455 S
C1301 C1305 1.497 . S
C1302 C1301 1.391 1_655 S
C1302 C1303 1.385 . S
C1302 C1304 1.478 . S
C1303 H1297 0.930 . S
C1303 C1299 1.400 . S
C1303 C1302 1.385 . S
C1304 C1302 1.478 . S
C1304 C1306 1.381 . S
C1304 C1310 1.383 1_655 S
C1305 C1301 1.497 . S
C1305 H1311 0.959 . S
C1305 H1312 0.961 . S
C1305 H1313 0.960 1_455 S
C1306 C1304 1.381 . S
C1306 C1307 1.394 . S
C1306 H1314 0.930 . S
C1307 C1306 1.394 . S
C1307 C1308 1.383 . S
C1307 H1315 0.929 . S
C1308 C1307 1.383 . S
C1308 C1309 1.377 1_655 S
C1309 H1293 0.930 . S
C1309 C1308 1.377 1_455 S
C1309 C1310 1.379 . S
C1310 H1294 0.931 . S
C1310 C1304 1.383 1_455 S
C1310 C1309 1.379 . S
H1311 C1305 0.959 . S
H1312 C1305 0.961 . S
H1313 C1305 0.960 1_655 S
H1314 C1306 0.930 . S
H1315 C1307 0.929 . S
H1316 C1324 0.929 . S
H1317 C1326 0.930 . S
H1318 C1328 0.930 . S
H1319 C1331 0.929 . S
H1320 C1334 0.930 . S
H1321 C1336 0.960 . S
H1322 C1336 0.960 . S
H1323 C1336 0.960 . S
C1324 H1316 0.929 . S
C1324 C1325 1.377 . S
C1324 C1326 1.384 . S
C1325 C1324 1.377 . S
C1325 C1331 1.390 . S
C1326 H1317 0.930 . S
C1326 C1324 1.384 . S
C1326 C1327 1.372 . S
C1327 C1326 1.372 . S
C1327 C1328 1.400 . S
C1327 C1332 1.490 . S
C1328 H1318 0.930 . S
C1328 C1327 1.400 . S
C1328 C1331 1.386 . S
H1329 C1345 0.930 . S
H1330 C1346 0.930 . S
C1331 H1319 0.929 . S
C1331 C1325 1.390 . S
C1331 C1328 1.386 . S
C1332 C1327 1.490 . S
C1332 C1334 1.395 . S
C1332 C1335 1.403 . S
H1333 C1339 0.930 . S
C1334 H1320 0.930 . S
C1334 C1332 1.395 . S
C1334 C1337 1.403 . S
C1335 C1332 1.403 . S
C1335 C1336 1.524 . S
C1335 C1339 1.400 . S
C1336 H1321 0.960 . S
C1336 H1322 0.960 . S
C1336 H1323 0.960 . S
C1336 C1335 1.524 . S
C1337 C1334 1.403 . S
C1337 C1338 1.392 . S
C1337 C1341 1.495 . S
C1338 C1337 1.392 . S
C1338 C1339 1.385 . S
C1338 C1340 1.478 . S
C1339 H1333 0.930 . S
C1339 C1335 1.400 . S
C1339 C1338 1.385 . S
C1340 C1338 1.478 . S
C1340 C1342 1.381 . S
C1340 C1346 1.384 1_565 S
C1341 C1337 1.495 . S
C1341 H1347 0.959 . S
C1341 H1348 0.961 . S
C1341 H1349 0.960 . S
C1342 C1340 1.381 . S
C1342 C1343 1.394 . S
C1342 H1350 0.930 . S
C1343 C1342 1.394 . S
C1343 C1344 1.383 . S
C1343 H1351 0.929 . S
C1344 C1343 1.383 . S
C1344 C1345 1.377 1_565 S
C1345 H1329 0.930 . S
C1345 C1344 1.377 1_545 S
C1345 C1346 1.379 . S
C1346 H1330 0.930 . S
C1346 C1340 1.384 1_545 S
C1346 C1345 1.379 . S
H1347 C1341 0.959 . S
H1348 C1341 0.961 . S
H1349 C1341 0.960 . S
H1350 C1342 0.930 . S
H1351 C1343 0.929 . S
H1352 C1360 0.929 . S
H1353 C1362 0.930 . S
H1354 C1364 0.930 . S
H1355 C1367 0.929 . S
H1356 C1370 0.930 . S
H1357 C1372 0.960 . S
H1358 C1372 0.960 . S
H1359 C1372 0.960 . S
C1360 H1352 0.929 . S
C1360 C1361 1.377 . S
C1360 C1362 1.384 . S
C1361 C1360 1.377 . S
C1361 C1367 1.390 . S
C1362 H1353 0.930 . S
C1362 C1360 1.384 . S
C1362 C1363 1.372 . S
C1363 C1362 1.372 . S
C1363 C1364 1.400 . S
C1363 C1368 1.490 . S
C1364 H1354 0.930 . S
C1364 C1363 1.400 . S
C1364 C1367 1.386 . S
H1365 C1381 0.930 . S
H1366 C1382 0.931 . S
C1367 H1355 0.929 . S
C1367 C1361 1.390 . S
C1367 C1364 1.386 . S
C1368 C1363 1.490 . S
C1368 C1370 1.395 . S
C1368 C1371 1.403 . S
H1369 C1375 0.930 . S
C1370 H1356 0.930 . S
C1370 C1368 1.395 . S
C1370 C1373 1.403 . S
C1371 C1368 1.403 . S
C1371 C1372 1.524 . S
C1371 C1375 1.400 . S
C1372 H1357 0.960 . S
C1372 H1358 0.960 . S
C1372 H1359 0.960 . S
C1372 C1371 1.524 . S
C1373 C1370 1.403 . S
C1373 C1374 1.392 . S
C1373 C1377 1.495 . S
C1374 C1373 1.392 . S
C1374 C1375 1.385 . S
C1374 C1376 1.478 . S
C1375 H1369 0.930 . S
C1375 C1371 1.400 . S
C1375 C1374 1.385 . S
C1376 C1374 1.478 . S
C1376 C1378 1.381 . S
C1376 C1382 1.383 . S
C1377 C1373 1.495 . S
C1377 H1383 0.959 . S
C1377 H1384 0.961 . S
C1377 H1385 0.960 . S
C1378 C1376 1.381 . S
C1378 C1379 1.394 . S
C1378 H1386 0.930 . S
C1379 C1378 1.394 . S
C1379 C1380 1.383 . S
C1379 H1387 0.929 . S
C1380 C1379 1.383 . S
C1380 C1381 1.377 . S
C1381 H1365 0.930 . S
C1381 C1380 1.377 . S
C1381 C1382 1.379 . S
C1382 H1366 0.931 . S
C1382 C1376 1.383 . S
C1382 C1381 1.379 . S
H1383 C1377 0.959 . S
H1384 C1377 0.961 . S
H1385 C1377 0.960 . S
H1386 C1378 0.930 . S
H1387 C1379 0.929 . S
H1388 C1396 0.929 . S
H1389 C1398 0.930 . S
H1390 C1400 0.930 . S
H1391 C1403 0.929 . S
H1392 C1406 0.930 . S
H1393 C1408 0.960 . S
H1394 C1408 0.960 . S
H1395 C1408 0.960 . S
C1396 H1388 0.929 . S
C1396 C1397 1.377 . S
C1396 C1398 1.384 . S
C1397 C1396 1.377 . S
C1397 C1403 1.390 . S
C1398 H1389 0.930 . S
C1398 C1396 1.384 . S
C1398 C1399 1.372 . S
C1399 C1398 1.372 . S
C1399 C1400 1.400 . S
C1399 C1404 1.490 . S
C1400 H1390 0.930 . S
C1400 C1399 1.400 . S
C1400 C1403 1.386 . S
H1401 C1417 0.930 . S
H1402 C1418 0.931 . S
C1403 H1391 0.929 . S
C1403 C1397 1.390 . S
C1403 C1400 1.386 . S
C1404 C1399 1.490 . S
C1404 C1406 1.395 . S
C1404 C1407 1.403 . S
H1405 C1411 0.930 . S
C1406 H1392 0.930 . S
C1406 C1404 1.395 . S
C1406 C1409 1.403 . S
C1407 C1404 1.403 . S
C1407 C1408 1.524 . S
C1407 C1411 1.400 . S
C1408 H1393 0.960 . S
C1408 H1394 0.960 . S
C1408 H1395 0.960 . S
C1408 C1407 1.524 . S
C1409 C1406 1.403 . S
C1409 C1410 1.392 . S
C1409 C1413 1.495 . S
C1410 C1409 1.392 . S
C1410 C1411 1.385 . S
C1410 C1412 1.478 . S
C1411 H1405 0.930 . S
C1411 C1407 1.400 . S
C1411 C1410 1.385 . S
C1412 C1410 1.478 . S
C1412 C1414 1.381 . S
C1412 C1418 1.383 . S
C1413 C1409 1.495 . S
C1413 H1419 0.959 . S
C1413 H1420 0.961 . S
C1413 H1421 0.960 . S
C1414 C1412 1.381 . S
C1414 C1415 1.394 . S
C1414 H1422 0.930 . S
C1415 C1414 1.394 . S
C1415 C1416 1.383 . S
C1415 H1423 0.929 . S
C1416 C1415 1.383 . S
C1416 C1417 1.377 . S
C1417 H1401 0.930 . S
C1417 C1416 1.377 . S
C1417 C1418 1.379 . S
C1418 H1402 0.931 . S
C1418 C1412 1.383 . S
C1418 C1417 1.379 . S
H1419 C1413 0.959 . S
H1420 C1413 0.961 . S
H1421 C1413 0.960 . S
H1422 C1414 0.930 . S
H1423 C1415 0.929 . S
C569 C391 1.550 . S
C588 C498 1.500 . S
C624 C518 1.292 . S
C605 C451 1.353 . S
C660 C538 1.707 . S
C641 C241 1.595 . S
C696 C558 1.496 . S
C677 C331 1.411 . S
C732 C499 1.540 1_565 S
C713 C121 1.450 . S
C749 C211 1.416 1_556 S
C768 C519 1.395 . S
C785 C31 1.484 . S
C804 C539 1.488 . S
C821 C91 1.374 . S
C840 C559 1.461 . S
C876 C489 0.537 1_655 S
C857 C301 0.548 . S
C912 C509 0.507 . S
C893 C380 0.467 . S
C948 C529 0.458 . S
C929 C440 0.353 . S
C965 C260 0.570 . S
C984 C549 0.533 . S
C1001 C61 0.501 . S
C1020 C492 0.611 . S
C1056 C512 0.510 . S
C1037 C140 0.490 . S
C1092 C532 0.399 . S
C1073 C200 0.345 . S
C1109 C20 0.558 . S
C1128 C552 0.681 . S
C1145 C320 1.968 . S
C1164 C482 1.879 . S
C1181 C361 1.784 . S
C1200 C502 1.867 . S
C1236 C522 1.931 . S
C1217 C421 1.801 . S
C1272 C542 1.907 . S
C1253 C271 2.040 . S
C1289 C80 2.011 . S
C1308 C484 1.868 . S
C1344 C504 1.890 . S
C1325 C151 2.040 . S
C1380 C524 1.779 . S
C1361 C181 1.681 . S
C1397 C1 1.793 . S
C1416 C544 1.959 . S
