# Generated by pormake.
# Topology ptr, (4,4)-cn, num edge types: 1
# Building blocks:
#     Node 0, Type 0, BuildingBlock: TATPOV_clean_sbu_0, # of connection points: 4
#     Node 1, Type 0, BuildingBlock: TATPOV_clean_sbu_0, # of connection points: 4
#     Node 2, Type 0, BuildingBlock: TATPOV_clean_sbu_0, # of connection points: 4
#     Node 3, Type 0, BuildingBlock: TATPOV_clean_sbu_0, # of connection points: 4
#     Node 4, Type 0, BuildingBlock: TATPOV_clean_sbu_0, # of connection points: 4
#     Node 5, Type 0, BuildingBlock: TATPOV_clean_sbu_0, # of connection points: 4
#     Node 6, Type 0, BuildingBlock: TATPOV_clean_sbu_0, # of connection points: 4
#     Node 7, Type 0, BuildingBlock: TATPOV_clean_sbu_0, # of connection points: 4
#     Node 8, Type 0, BuildingBlock: TATPOV_clean_sbu_0, # of connection points: 4
#     Node 9, Type 0, BuildingBlock: TATPOV_clean_sbu_0, # of connection points: 4
#     Node 10, Type 0, BuildingBlock: TATPOV_clean_sbu_0, # of connection points: 4
#     Node 11, Type 0, BuildingBlock: TATPOV_clean_sbu_0, # of connection points: 4
#     Node 12, Type 0, BuildingBlock: TATPOV_clean_sbu_0, # of connection points: 4
#     Node 13, Type 0, BuildingBlock: TATPOV_clean_sbu_0, # of connection points: 4
#     Node 14, Type 0, BuildingBlock: TATPOV_clean_sbu_0, # of connection points: 4
#     Node 15, Type 0, BuildingBlock: TATPOV_clean_sbu_0, # of connection points: 4
#     Node 16, Type 0, BuildingBlock: TATPOV_clean_sbu_0, # of connection points: 4
#     Node 17, Type 0, BuildingBlock: TATPOV_clean_sbu_0, # of connection points: 4
#     Node 18, Type 1, BuildingBlock: AZAVOO_clean_linker_0, # of connection points: 4
#     Node 19, Type 1, BuildingBlock: AZAVOO_clean_linker_0, # of connection points: 4
#     Node 20, Type 1, BuildingBlock: AZAVOO_clean_linker_0, # of connection points: 4
#     Node 21, Type 1, BuildingBlock: AZAVOO_clean_linker_0, # of connection points: 4
#     Node 22, Type 1, BuildingBlock: AZAVOO_clean_linker_0, # of connection points: 4
#     Node 23, Type 1, BuildingBlock: AZAVOO_clean_linker_0, # of connection points: 4
#     Node 24, Type 1, BuildingBlock: AZAVOO_clean_linker_0, # of connection points: 4
#     Node 25, Type 1, BuildingBlock: AZAVOO_clean_linker_0, # of connection points: 4
#     Node 26, Type 1, BuildingBlock: AZAVOO_clean_linker_0, # of connection points: 4
#     Node 27, Type 1, BuildingBlock: AZAVOO_clean_linker_0, # of connection points: 4
#     Node 28, Type 1, BuildingBlock: AZAVOO_clean_linker_0, # of connection points: 4
#     Node 29, Type 1, BuildingBlock: AZAVOO_clean_linker_0, # of connection points: 4
#     Node 30, Type 1, BuildingBlock: AZAVOO_clean_linker_0, # of connection points: 4
#     Node 31, Type 1, BuildingBlock: AZAVOO_clean_linker_0, # of connection points: 4
#     Node 32, Type 1, BuildingBlock: AZAVOO_clean_linker_0, # of connection points: 4
#     Node 33, Type 1, BuildingBlock: AZAVOO_clean_linker_0, # of connection points: 4
#     Node 34, Type 1, BuildingBlock: AZAVOO_clean_linker_0, # of connection points: 4
#     Node 35, Type 1, BuildingBlock: AZAVOO_clean_linker_0, # of connection points: 4
#     Edge 36, Type (0, 1), None
#     Edge 37, Type (0, 1), None
#     Edge 38, Type (0, 1), None
#     Edge 39, Type (0, 1), None
#     Edge 40, Type (0, 1), None
#     Edge 41, Type (0, 1), None
#     Edge 42, Type (0, 1), None
#     Edge 43, Type (0, 1), None
#     Edge 44, Type (0, 1), None
#     Edge 45, Type (0, 1), None
#     Edge 46, Type (0, 1), None
#     Edge 47, Type (0, 1), None
#     Edge 48, Type (0, 1), None
#     Edge 49, Type (0, 1), None
#     Edge 50, Type (0, 1), None
#     Edge 51, Type (0, 1), None
#     Edge 52, Type (0, 1), None
#     Edge 53, Type (0, 1), None
#     Edge 54, Type (0, 1), None
#     Edge 55, Type (0, 1), None
#     Edge 56, Type (0, 1), None
#     Edge 57, Type (0, 1), None
#     Edge 58, Type (0, 1), None
#     Edge 59, Type (0, 1), None
#     Edge 60, Type (0, 1), None
#     Edge 61, Type (0, 1), None
#     Edge 62, Type (0, 1), None
#     Edge 63, Type (0, 1), None
#     Edge 64, Type (0, 1), None
#     Edge 65, Type (0, 1), None
#     Edge 66, Type (0, 1), None
#     Edge 67, Type (0, 1), None
#     Edge 68, Type (0, 1), None
#     Edge 69, Type (0, 1), None
#     Edge 70, Type (0, 1), None
#     Edge 71, Type (0, 1), None
#     Edge 72, Type (0, 1), None
#     Edge 73, Type (0, 1), None
#     Edge 74, Type (0, 1), None
#     Edge 75, Type (0, 1), None
#     Edge 76, Type (0, 1), None
#     Edge 77, Type (0, 1), None
#     Edge 78, Type (0, 1), None
#     Edge 79, Type (0, 1), None
#     Edge 80, Type (0, 1), None
#     Edge 81, Type (0, 1), None
#     Edge 82, Type (0, 1), None
#     Edge 83, Type (0, 1), None
#     Edge 84, Type (0, 1), None
#     Edge 85, Type (0, 1), None
#     Edge 86, Type (0, 1), None
#     Edge 87, Type (0, 1), None
#     Edge 88, Type (0, 1), None
#     Edge 89, Type (0, 1), None
#     Edge 90, Type (0, 1), None
#     Edge 91, Type (0, 1), None
#     Edge 92, Type (0, 1), None
#     Edge 93, Type (0, 1), None
#     Edge 94, Type (0, 1), None
#     Edge 95, Type (0, 1), None
#     Edge 96, Type (0, 1), None
#     Edge 97, Type (0, 1), None
#     Edge 98, Type (0, 1), None
#     Edge 99, Type (0, 1), None
#     Edge 100, Type (0, 1), None
#     Edge 101, Type (0, 1), None
#     Edge 102, Type (0, 1), None
#     Edge 103, Type (0, 1), None
#     Edge 104, Type (0, 1), None
#     Edge 105, Type (0, 1), None
#     Edge 106, Type (0, 1), None
#     Edge 107, Type (0, 1), None
# Relax obj value: 0.113
# Max RMSD: 0.277
# Mean RMSD: 0.175
data_MOF--net-ptr--node1-TATPOV_clean_sbu_0--node2-AZAVOO_clean_linker_0--edge1-none
_symmetry_space_group_name_H-M    P1
_symmetry_Int_Tables_number       1
_symmetry_cell_setting            triclinic
loop_
_symmetry_equiv_pos_as_xyz
'x, y, z'
_cell_length_a     44.380862
_cell_length_b     44.391845
_cell_length_c     36.064998
_cell_angle_alpha  93.407327
_cell_angle_beta   94.609697
_cell_angle_gamma 121.05875
loop_
_atom_site_label
_atom_site_type_symbol
_atom_site_fract_x
_atom_site_fract_y
_atom_site_fract_z
_atom_type_partial_charge
Zn0 Zn 0.92533 0.37215 0.02006 0.0
Zn1 Zn 0.98887 0.37755 0.03071 0.0
O2 O 0.95352 0.32507 0.01422 0.0
O3 O 0.90103 0.3191 0.01062 0.0
O4 O 0.0323 0.37615 0.0478 0.0
O5 O 0.93195 0.39587 0.0721 0.0
O6 O 0.98316 0.39902 0.07948 0.0
C7 C 0.91996 0.30554 0.00822 0.0
C8 C 0.9757 0.41198 0.96731 0.0
O9 O -0.00208 0.40693 0.98627 0.0
O10 O 0.94493 0.40023 0.97664 0.0
C11 C 0.02641 0.35324 0.07037 0.0
O12 O -0.00566 0.33388 0.07966 0.0
C13 C 0.96046 0.40467 0.09247 0.0
Zn14 Zn 0.60933 0.53369 0.05812 0.0
Zn15 Zn 0.61629 0.59658 0.07282 0.0
O16 O 0.66428 0.60926 0.05646 0.0
O17 O 0.65896 0.55745 0.04452 0.0
O18 O 0.62197 0.64377 0.08561 0.0
O19 O 0.59914 0.52234 0.11047 0.0
O20 O 0.60192 0.57304 0.12119 0.0
C21 C 0.67693 0.59081 0.04527 0.0
C22 C 0.56265 0.54502 0.00811 0.0
O23 O 0.57808 0.57516 0.02759 0.0
O24 O 0.57014 0.52211 0.01657 0.0
C25 C 0.65056 0.6694 0.10349 0.0
O26 O 0.67667 0.66462 0.11412 0.0
C27 C 0.5966 0.54414 0.13223 0.0
Zn28 Zn 0.38081 0.93603 0.02922 0.0
Zn29 Zn 0.38952 0.00039 0.03712 0.0
O30 O 0.33878 0.96702 0.0476 0.0
O31 O 0.33186 0.91418 0.04466 0.0
O32 O 0.39137 0.04667 0.03934 0.0
O33 O 0.38913 0.94015 0.9752 0.0
O34 O 0.40106 0.99488 0.98358 0.0
C35 C 0.32006 0.93428 0.05113 0.0
C36 C 0.43512 0.98432 0.08975 0.0
O37 O 0.4256 0.00574 0.08039 0.0
O38 O 0.42145 0.95417 0.07094 0.0
C39 C 0.3716 0.05269 0.0582 0.0
O40 O 0.35236 0.02999 0.08071 0.0
C41 C 0.39877 0.96941 0.96265 0.0
Zn42 Zn 0.07109 0.61818 0.0687 0.0
Zn43 Zn 0.00617 0.61111 0.05781 0.0
O44 O 0.04182 0.66404 0.07057 0.0
O45 O 0.09475 0.67111 0.07874 0.0
O46 O 0.96198 0.611 0.03962 0.0
O47 O 0.06473 0.59531 0.01632 0.0
O48 O 0.01144 0.58768 0.01033 0.0
C49 C 0.07523 0.68415 0.07811 0.0
C50 C 0.02066 0.57782 0.12166 0.0
O51 O -0.00141 0.58377 0.1038 0.0
O52 O 0.05095 0.58888 0.11126 0.0
C53 C 0.95878 0.6372 0.04894 0.0
O54 O 0.98068 0.66101 0.07672 0.0
C55 C 0.03502 0.58374 0.99695 0.0
Zn56 Zn 0.38151 0.45289 0.02637 0.0
Zn57 Zn 0.37314 0.39001 0.01207 0.0
O58 O 0.32538 0.37747 0.02953 0.0
O59 O 0.33319 0.43022 0.0431 0.0
O60 O 0.36773 0.34291 0.99905 0.0
O61 O 0.38976 0.464 0.97362 0.0
O62 O 0.38736 0.41348 0.96337 0.0
C63 C 0.31443 0.39692 0.04252 0.0
C64 C 0.42817 0.44211 0.07597 0.0
O65 O 0.41152 0.41149 0.05738 0.0
O66 O 0.42192 0.46562 0.06659 0.0
C67 C 0.33925 0.31694 0.9814 0.0
O68 O 0.31256 0.32101 0.97134 0.0
C69 C 0.39232 0.44216 0.95198 0.0
Zn70 Zn 0.61374 0.05585 0.06525 0.0
Zn71 Zn 0.60519 0.99152 0.05686 0.0
O72 O 0.65528 0.02462 0.04468 0.0
O73 O 0.66212 0.07743 0.04821 0.0
O74 O 0.60316 0.94517 0.05413 0.0
O75 O 0.60645 0.05203 0.1197 0.0
O76 O 0.59449 -0.00268 0.11075 0.0
C77 C 0.67364 0.05727 0.04064 0.0
C78 C 0.55901 0.00735 0.0051 0.0
O79 O 0.56876 0.98608 0.01427 0.0
O80 O 0.5725 0.03743 0.02403 0.0
C81 C 0.62178 0.9386 0.0339 0.0
O82 O 0.64029 0.96107 0.01083 0.0
C83 C 0.59701 0.02272 0.13204 0.0
Zn84 Zn 0.58992 0.70604 0.35073 0.0
Zn85 Zn 0.65354 0.71149 0.36251 0.0
O86 O 0.61843 0.659 0.34595 0.0
O87 O 0.5659 0.65302 0.34074 0.0
O88 O 0.69698 0.71042 0.38029 0.0
O89 O 0.59567 0.72905 0.40298 0.0
O90 O 0.64719 0.73287 0.4109 0.0
C91 C 0.58491 0.63948 0.33915 0.0
C92 C 0.64132 0.74636 0.29894 0.0
O93 O 0.66311 0.74087 0.3181 0.0
O94 O 0.61043 0.73479 0.30787 0.0
C95 C 0.69113 0.68751 0.40284 0.0
O96 O 0.65896 0.66775 0.41172 0.0
C97 C 0.62414 0.73811 0.42361 0.0
Zn98 Zn 0.27392 0.86532 0.38903 0.0
Zn99 Zn 0.28182 0.92858 0.40458 0.0
O100 O 0.3297 0.94084 0.38832 0.0
O101 O 0.32366 0.88877 0.3757 0.0
O102 O 0.28804 0.97592 0.41789 0.0
O103 O 0.26339 0.85362 0.44126 0.0
O104 O 0.26706 0.90469 0.45265 0.0
C105 C 0.34202 0.92216 0.37688 0.0
C106 C 0.22805 0.87801 0.33941 0.0
O107 O 0.24377 0.90797 0.35926 0.0
O108 O 0.23507 0.85468 0.34747 0.0
C109 C 0.31672 0.00137 0.43582 0.0
O110 O 0.34271 -0.00365 0.44623 0.0
C111 C 0.26123 0.87549 0.46331 0.0
Zn112 Zn 0.04983 0.27116 0.36425 0.0
Zn113 Zn 0.05795 0.33512 0.37201 0.0
O114 O 0.00727 0.30139 0.38277 0.0
O115 O 0.00111 0.24887 0.3801 0.0
O116 O 0.05948 0.38135 0.37427 0.0
O117 O 0.0576 0.27484 0.31017 0.0
O118 O 0.06938 0.32953 0.31832 0.0
C119 C 0.98897 0.26867 0.38657 0.0
C120 C 0.10403 0.31945 0.42456 0.0
O121 O 0.09419 0.34067 0.41531 0.0
O122 O 0.09067 0.28942 0.40561 0.0
C123 C 0.0396 0.38711 0.39326 0.0
O124 O 0.0204 0.36416 0.41559 0.0
C125 C 0.06705 0.30399 0.29746 0.0
Zn126 Zn 0.73805 0.95008 0.40176 0.0
Zn127 Zn 0.67367 0.94428 0.38946 0.0
O128 O 0.70955 -0.00304 0.40355 0.0
O129 O 0.76207 0.00307 0.41215 0.0
O130 O 0.62979 0.94449 0.37092 0.0
O131 O 0.73206 0.92733 0.3493 0.0
O132 O 0.67968 0.92176 0.34192 0.0
C133 C 0.74296 0.01658 0.41164 0.0
C134 C 0.68624 0.90995 0.45347 0.0
O135 O 0.66471 0.91603 0.43469 0.0
O136 O 0.7169 0.92091 0.44418 0.0
C137 C 0.62643 0.97057 0.38024 0.0
O138 O 0.64839 0.99459 0.40784 0.0
C139 C 0.70305 0.91711 0.32911 0.0
Zn140 Zn 0.04711 0.7881 0.35841 0.0
Zn141 Zn 0.03756 0.72459 0.34289 0.0
O142 O 0.99036 0.71326 0.36113 0.0
O143 O -0.00117 0.76622 0.3752 0.0
O144 O 0.03154 0.67726 0.328 0.0
O145 O 0.05571 0.80005 0.30594 0.0
O146 O 0.05223 0.74908 0.29482 0.0
C147 C 0.97978 0.73292 0.37444 0.0
C148 C 0.09289 0.77526 0.40729 0.0
O149 O 0.07595 0.74485 0.38821 0.0
O150 O 0.08713 0.79922 0.39843 0.0
C151 C 0.00177 0.64829 0.32235 0.0
O152 O 0.97266 0.64835 0.32637 0.0
C153 C 0.0578 0.77812 0.28391 0.0
Zn154 Zn 0.28059 0.38853 0.39933 0.0
Zn155 Zn 0.27233 0.32445 0.39119 0.0
O156 O 0.32229 0.35753 0.37859 0.0
O157 O 0.32871 0.41016 0.38171 0.0
O158 O 0.27038 0.27812 0.38864 0.0
O159 O 0.27384 0.38521 0.45392 0.0
O160 O 0.26187 0.33049 0.44519 0.0
C161 C 0.34036 0.39011 0.37416 0.0
C162 C 0.22577 0.3399 0.33948 0.0
O163 O 0.23572 0.31877 0.34862 0.0
O164 O 0.2391 0.36994 0.35845 0.0
C165 C 0.28895 0.27146 0.36841 0.0
O166 O 0.30742 0.29384 0.34525 0.0
C167 C 0.2645 0.35599 0.46642 0.0
Zn168 Zn 0.25685 0.03762 0.68393 0.0
Zn169 Zn 0.32006 0.04244 0.69556 0.0
O170 O 0.28469 0.99 0.67862 0.0
O171 O 0.23241 0.9846 0.67363 0.0
O172 O 0.36345 0.04115 0.71309 0.0
O173 O 0.26265 0.06055 0.73622 0.0
O174 O 0.31381 0.06363 0.74424 0.0
C175 C 0.25113 0.97076 0.67176 0.0
C176 C 0.30817 0.07786 0.63222 0.0
O177 O 0.32983 0.07215 0.65133 0.0
O178 O 0.27731 0.06641 0.64114 0.0
C179 C 0.35769 0.01794 0.73524 0.0
O180 O 0.32549 -0.00219 0.7439 0.0
C181 C 0.29092 0.06915 0.75695 0.0
Zn182 Zn 0.94338 0.20014 0.72574 0.0
Zn183 Zn 0.95059 0.2631 0.74063 0.0
O184 O -0.00137 0.2759 0.72431 0.0
O185 O 0.99305 0.22398 0.71218 0.0
O186 O 0.95588 0.3101 0.75342 0.0
O187 O 0.93315 0.18869 0.77808 0.0
O188 O 0.93625 0.23952 0.78901 0.0
C189 C 0.01113 0.25735 0.713 0.0
C190 C 0.89695 0.21167 0.67575 0.0
O191 O 0.91247 0.24175 0.69533 0.0
O192 O 0.90425 0.18861 0.68415 0.0
C193 C 0.9844 0.33614 0.77089 0.0
O194 O 0.01105 0.33208 0.78118 0.0
C195 C 0.93079 0.21054 0.79995 0.0
Zn196 Zn 0.71546 0.60457 0.69692 0.0
Zn197 Zn 0.72315 0.6684 0.70489 0.0
O198 O 0.6726 0.63453 0.71567 0.0
O199 O 0.66664 0.58209 0.71267 0.0
O200 O 0.7244 0.71441 0.70678 0.0
O201 O 0.72335 0.60852 0.64281 0.0
O202 O 0.73461 0.66299 0.65125 0.0
C203 C 0.65439 0.60176 0.71928 0.0
C204 C 0.76957 0.65316 0.75737 0.0
O205 O 0.75957 0.67425 0.74814 0.0
O206 O 0.75632 0.62313 0.73842 0.0
C207 C 0.70406 0.72019 0.7249 0.0
O208 O 0.68436 0.69733 0.74704 0.0
C209 C 0.73255 0.63768 0.63026 0.0
Zn210 Zn 0.40515 0.28262 0.73532 0.0
Zn211 Zn 0.34047 0.27631 0.72303 0.0
O212 O 0.37624 0.32901 0.73686 0.0
O213 O 0.42895 0.3356 0.74572 0.0
O214 O 0.2966 0.27658 0.70462 0.0
O215 O 0.39916 0.25996 0.68284 0.0
O216 O 0.34644 0.25365 0.67561 0.0
C217 C 0.40962 0.34886 0.74498 0.0
C218 C 0.3533 0.24204 0.78689 0.0
O219 O 0.33171 0.24814 0.76828 0.0
O220 O 0.38398 0.25318 0.77755 0.0
C221 C 0.29323 0.30254 0.71454 0.0
O222 O 0.31497 0.32602 0.74262 0.0
C223 C 0.36998 0.2493 0.66278 0.0
Zn224 Zn 0.71606 0.12181 0.69431 0.0
Zn225 Zn 0.70723 0.05858 0.67981 0.0
O226 O 0.65948 0.04634 0.69694 0.0
O227 O 0.66751 0.09918 0.71063 0.0
O228 O 0.7015 0.01135 0.6669 0.0
O229 O 0.72469 0.13278 0.64152 0.0
O230 O 0.72167 0.08195 0.63116 0.0
C231 C 0.64857 0.06586 0.70983 0.0
C232 C 0.76227 0.11035 0.74393 0.0
O233 O 0.74552 0.07982 0.72514 0.0
O234 O 0.75619 0.13403 0.73475 0.0
C235 C 0.67313 0.98562 0.64878 0.0
O236 O 0.64678 0.99004 0.63816 0.0
C237 C 0.72699 0.11077 0.61984 0.0
Zn238 Zn 0.94657 0.72268 0.73171 0.0
Zn239 Zn 0.93725 0.6582 0.72353 0.0
O240 O 0.98729 0.69037 0.71063 0.0
O241 O -0.00545 0.74337 0.7138 0.0
O242 O 0.93416 0.61137 0.72138 0.0
O243 O 0.93991 0.71971 0.78639 0.0
O244 O 0.92723 0.66477 0.77758 0.0
C245 C 0.00571 0.72291 0.70612 0.0
C246 C 0.89138 0.67453 0.6719 0.0
O247 O 0.90088 0.65306 0.68101 0.0
O248 O 0.90509 0.70461 0.6909 0.0
C249 C 0.95229 0.60386 0.70138 0.0
O250 O 0.97107 0.62571 0.67796 0.0
C251 C 0.93024 0.69042 0.79887 0.0
H252 H 0.15954 0.38087 0.9119 0.0
H253 H 0.33245 0.30076 0.26161 0.0
H254 H 0.14427 0.39383 0.1108 0.0
H255 H 0.09739 0.40178 0.08197 0.0
H256 H 0.01937 0.29379 0.096 0.0
H257 H 0.06666 0.28542 0.12299 0.0
H258 H 0.19702 0.39774 0.07418 0.0
H259 H 0.18851 0.40132 0.00711 0.0
H260 H 0.10977 0.28921 0.98957 0.0
H261 H 0.11892 0.28593 0.05669 0.0
H262 H 0.24973 0.40713 0.1313 0.0
H263 H 0.29897 0.43175 0.09443 0.0
H264 H 0.25918 0.32748 0.03667 0.0
H265 H 0.20878 0.30308 0.07348 0.0
H266 H 0.2558 0.38974 0.20877 0.0
H267 H 0.3038 0.38842 0.24571 0.0
H268 H 0.26168 0.28105 0.19577 0.0
H269 H 0.21407 0.2829 0.15875 0.0
H270 H 0.18708 0.37948 0.24221 0.0
H271 H 0.208 0.38371 0.30774 0.0
H272 H 0.19574 0.28065 0.28782 0.0
H273 H 0.17289 0.276 0.22216 0.0
H274 H 0.12806 0.37488 0.20743 0.0
H275 H 0.09713 0.36496 0.26304 0.0
H276 H 0.06325 0.25411 0.24621 0.0
H277 H 0.09438 0.26447 0.19137 0.0
O278 O 0.16245 0.37889 0.93835 0.0
O279 O 0.1219 0.32126 0.93092 0.0
O280 O 0.33581 0.35806 0.2702 0.0
O281 O 0.31463 0.30248 0.24622 0.0
C282 C 0.13799 0.33405 0.1336 0.0
C283 C 0.16432 0.33886 0.11081 0.0
C284 C 0.19529 0.34025 0.1264 0.0
C285 C 0.19913 0.3349 0.16416 0.0
C286 C 0.1722 0.32859 0.18653 0.0
C287 C 0.14151 0.32794 0.17124 0.0
C288 C 0.10888 0.33895 0.11874 0.0
C289 C 0.11707 0.37177 0.10729 0.0
C290 C 0.09036 0.37629 0.09082 0.0
C291 C 0.05489 0.34835 0.0866 0.0
C292 C 0.04659 0.31577 0.09898 0.0
C293 C 0.07345 0.31099 0.11459 0.0
C294 C 0.15894 0.34147 0.0702 0.0
C295 C 0.17823 0.37392 0.05576 0.0
C296 C 0.17316 0.37592 0.01745 0.0
C297 C 0.14856 0.34552 0.99293 0.0
C298 C 0.129 0.31311 0.00764 0.0
C299 C 0.13416 0.31116 0.04595 0.0
C300 C 0.22597 0.35341 0.10514 0.0
C301 C 0.25164 0.3896 0.11069 0.0
C302 C 0.27948 0.40364 0.08921 0.0
C303 C 0.28268 0.38162 0.0622 0.0
C304 C 0.25714 0.3451 0.057 0.0
C305 C 0.22865 0.33111 0.07814 0.0
C306 C 0.2316 0.33646 0.18105 0.0
C307 C 0.25748 0.36626 0.20527 0.0
C308 C 0.28463 0.36529 0.2266 0.0
C309 C 0.28622 0.3344 0.22412 0.0
C310 C 0.261 0.30511 0.19864 0.0
C311 C 0.23403 0.30622 0.17713 0.0
C312 C 0.1786 0.32753 0.22741 0.0
C313 C 0.18753 0.3572 0.25229 0.0
C314 C 0.19966 0.35958 0.2898 0.0
C315 C 0.20404 0.3327 0.30299 0.0
C316 C 0.19275 0.30184 0.27856 0.0
C317 C 0.17989 0.2992 0.24103 0.0
C318 C 0.11362 0.32042 0.1956 0.0
C319 C 0.11272 0.34825 0.21499 0.0
C320 C 0.09535 0.34257 0.24697 0.0
C321 C 0.07862 0.30895 0.25969 0.0
C322 C 0.07642 0.28048 0.23766 0.0
C323 C 0.09386 0.28622 0.20598 0.0
C324 C 0.14338 0.34768 0.95221 0.0
C325 C 0.31374 0.33249 0.2483 0.0
H326 H 0.59883 0.72823 0.90564 0.0
H327 H 0.71776 0.06147 0.16495 0.0
H328 H 0.6065 0.74416 0.10309 0.0
H329 H 0.59981 0.68619 0.0907 0.0
H330 H 0.71015 0.73157 0.13429 0.0
H331 H 0.71665 0.78968 0.14587 0.0
H332 H 0.59916 0.78884 0.05441 0.0
H333 H 0.58872 0.76127 0.99014 0.0
H334 H 0.69908 0.79268 0.99752 0.0
H335 H 0.70917 0.82029 0.06172 0.0
H336 H 0.59608 0.84118 0.0942 0.0
H337 H 0.57819 0.87767 0.06245 0.0
H338 H 0.68266 0.93843 0.0285 0.0
H339 H 0.7006 0.90219 0.06126 0.0
H340 H 0.62141 0.88588 0.16303 0.0
H341 H 0.62629 0.94343 0.1715 0.0
H342 H 0.73626 0.99497 0.1527 0.0
H343 H 0.73098 0.93719 0.14445 0.0
H344 H 0.62955 0.85567 0.2181 0.0
H345 H 0.64014 0.88136 0.28314 0.0
H346 H 0.75129 0.91645 0.28689 0.0
H347 H 0.74037 0.89127 0.22136 0.0
H348 H 0.6092 0.77612 0.18816 0.0
H349 H 0.59562 0.74502 0.24341 0.0
H350 H 0.7075 0.78847 0.27688 0.0
H351 H 0.72088 0.82016 0.22083 0.0
O352 O 0.60357 0.73958 0.93096 0.0
O353 O 0.6614 0.76032 0.93451 0.0
O354 O 0.6596 0.01097 0.17515 0.0
O355 O 0.71525 0.03844 0.16233 0.0
C356 C 0.66625 0.80629 0.13185 0.0
C357 C 0.66134 0.82301 0.10173 0.0
C358 C 0.66258 0.85516 0.10924 0.0
C359 C 0.67243 0.87249 0.14617 0.0
C360 C 0.67751 0.8559 0.17603 0.0
C361 C 0.6727 0.82203 0.16907 0.0
C362 C 0.66218 0.77112 0.12481 0.0
C363 C 0.62927 0.74159 0.10958 0.0
C364 C 0.6255 0.7085 0.10272 0.0
C365 C 0.65452 0.70435 0.1114 0.0
C366 C 0.68732 0.73393 0.12728 0.0
C367 C 0.69111 0.7671 0.13389 0.0
C368 C 0.655 0.80688 0.06252 0.0
C369 C 0.62111 0.79006 0.04195 0.0
C370 C 0.61519 0.77415 0.00532 0.0
C371 C 0.64309 0.77484 0.98865 0.0
C372 C 0.67704 0.79177 0.00946 0.0
C373 C 0.68288 0.80757 0.0461 0.0
C374 C 0.6496 0.86918 0.07999 0.0
C375 C 0.61462 0.86142 0.07856 0.0
C376 C 0.60451 0.88238 0.06064 0.0
C377 C 0.62915 0.91104 0.04343 0.0
C378 C 0.66309 0.91636 0.04143 0.0
C379 C 0.67339 0.89569 0.05999 0.0
C380 C 0.67595 0.9075 0.15351 0.0
C381 C 0.64663 0.90968 0.16121 0.0
C382 C 0.64945 0.94256 0.16586 0.0
C383 C 0.6817 0.97382 0.16279 0.0
C384 C 0.71107 0.97144 0.15527 0.0
C385 C 0.70819 0.93853 0.15069 0.0
C386 C 0.68433 0.87225 0.21505 0.0
C387 C 0.65622 0.86933 0.2329 0.0
C388 C 0.66232 0.8838 0.27007 0.0
C389 C 0.69658 0.90093 0.29012 0.0
C390 C 0.72461 0.90332 0.2722 0.0
C391 C 0.71852 0.88919 0.23482 0.0
C392 C 0.66592 0.80016 0.20044 0.0
C393 C 0.63077 0.77857 0.20712 0.0
C394 C 0.62315 0.76112 0.23898 0.0
C395 C 0.65055 0.76462 0.26485 0.0
C396 C 0.68587 0.78539 0.25752 0.0
C397 C 0.69354 0.80331 0.22555 0.0
C398 C 0.63672 0.75787 0.94977 0.0
C399 C 0.68471 0.00877 0.16717 0.0
H400 H 0.12411 0.83947 0.89949 0.0
H401 H 0.36525 0.0036 0.30569 0.0
H402 H 0.06914 0.7856 0.09926 0.0
H403 H 0.04223 0.72241 0.07707 0.0
H404 H 0.14419 0.73253 0.1033 0.0
H405 H 0.17026 0.79467 0.12534 0.0
H406 H 0.12838 0.87285 0.05992 0.0
H407 H 0.1204 0.86314 0.99142 0.0
H408 H 0.18451 0.81571 0.99643 0.0
H409 H 0.19203 0.82531 0.0648 0.0
H410 H 0.22335 0.93946 0.08462 0.0
H411 H 0.27503 0.9595 0.05003 0.0
H412 H 0.29269 0.8805 0.09377 0.0
H413 H 0.24244 0.8618 0.12876 0.0
H414 H 0.22596 0.96117 0.1808 0.0
H415 H 0.27756 0.00576 0.22434 0.0
H416 H 0.30401 0.92715 0.24803 0.0
H417 H 0.25249 0.88296 0.20431 0.0
H418 H 0.18505 0.91855 0.24533 0.0
H419 H 0.20872 0.92256 0.31058 0.0
H420 H 0.20022 0.82169 0.28576 0.0
H421 H 0.1789 0.81911 0.22103 0.0
H422 H 0.10021 0.85981 0.19885 0.0
H423 H 0.06503 0.83408 0.24941 0.0
H424 H 0.08158 0.74641 0.23668 0.0
H425 H 0.11704 0.77256 0.18627 0.0
O426 O 0.12757 0.843 0.9266 0.0
O427 O 0.16105 0.81923 0.93068 0.0
O428 O 0.3315 0.02658 0.27331 0.0
O429 O 0.34519 0.9867 0.28769 0.0
C430 C 0.1392 0.83207 0.12874 0.0
C431 C 0.16566 0.85658 0.10888 0.0
C432 C 0.19763 0.88487 0.12861 0.0
C433 C 0.20126 0.89092 0.16802 0.0
C434 C 0.17293 0.86848 0.18752 0.0
C435 C 0.14117 0.84003 0.16754 0.0
C436 C 0.12153 0.7945 0.11365 0.0
C437 C 0.08544 0.77398 0.09988 0.0
C438 C 0.07025 0.73802 0.08731 0.0
C439 C 0.09112 0.72246 0.08853 0.0
C440 C 0.12737 0.74357 0.1018 0.0
C441 C 0.14231 0.77909 0.1144 0.0
C442 C 0.16104 0.85014 0.06734 0.0
C443 C 0.14067 0.86037 0.04615 0.0
C444 C 0.13618 0.85481 0.00703 0.0
C445 C 0.15193 0.83877 0.98842 0.0
C446 C 0.17213 0.82826 0.00985 0.0
C447 C 0.17655 0.83382 0.04895 0.0
C448 C 0.22976 0.89971 0.10962 0.0
C449 C 0.23876 0.92692 0.08688 0.0
C450 C 0.26782 0.93792 0.06687 0.0
C451 C 0.28739 0.92108 0.06877 0.0
C452 C 0.27776 0.89353 0.09121 0.0
C453 C 0.2495 0.88326 0.11175 0.0
C454 C 0.23554 0.91892 0.18946 0.0
C455 C 0.24332 0.95385 0.1949 0.0
C456 C 0.27258 0.97913 0.22006 0.0
C457 C 0.29455 0.96983 0.24014 0.0
C458 C 0.2874 0.93508 0.2334 0.0
C459 C 0.25821 0.90988 0.20818 0.0
C460 C 0.18009 0.86847 0.22848 0.0
C461 C 0.18763 0.89707 0.25438 0.0
C462 C 0.20099 0.8992 0.29161 0.0
C463 C 0.20654 0.87251 0.30334 0.0
C464 C 0.19625 0.84268 0.27785 0.0
C465 C 0.18375 0.841 0.24075 0.0
C466 C 0.11121 0.81816 0.18867 0.0
C467 C 0.09506 0.83433 0.20593 0.0
C468 C 0.0752 0.8197 0.23509 0.0
C469 C 0.07112 0.78855 0.24758 0.0
C470 C 0.08432 0.77049 0.22779 0.0
C471 C 0.10434 0.78526 0.19859 0.0
C472 C 0.14721 0.83302 0.94686 0.0
C473 C 0.32479 -0.00384 0.26801 0.0
H474 H 0.33362 0.24741 0.17321 0.0
H475 H 0.32938 0.95047 0.9133 0.0
H476 H 0.27484 0.19634 0.94033 0.0
H477 H 0.27995 0.25382 0.95218 0.0
H478 H 0.39162 0.30206 0.99147 0.0
H479 H 0.38627 0.24469 0.9788 0.0
H480 H 0.2837 0.16824 0.0234 0.0
H481 H 0.29429 0.19856 0.0863 0.0
H482 H 0.4052 0.23212 0.09307 0.0
H483 H 0.39426 0.20192 0.03004 0.0
H484 H 0.29091 0.08505 0.02328 0.0
H485 H 0.30899 0.05027 0.05872 0.0
H486 H 0.41547 0.11425 0.03077 0.0
H487 H 0.39736 0.14931 0.9963 0.0
H488 H 0.25954 0.05149 0.93395 0.0
H489 H 0.2518 0.99263 0.92566 0.0
H490 H 0.36491 0.04107 0.92507 0.0
H491 H 0.37217 0.09969 0.93312 0.0
H492 H 0.25515 0.10235 0.86159 0.0
H493 H 0.24456 0.07673 0.79637 0.0
H494 H 0.35152 0.09726 0.80632 0.0
H495 H 0.36194 0.12349 0.87108 0.0
H496 H 0.27403 0.17298 0.86795 0.0
H497 H 0.28793 0.20535 0.81241 0.0
H498 H 0.39777 0.2362 0.83794 0.0
H499 H 0.38368 0.2045 0.8927 0.0
O500 O 0.32996 0.2353 0.14854 0.0
O501 O 0.38704 0.25331 0.14987 0.0
O502 O 0.27402 0.9499 0.91913 0.0
O503 O 0.3317 0.97342 0.91654 0.0
C504 C 0.32664 0.18145 0.95287 0.0
C505 C 0.33164 0.16544 0.98361 0.0
C506 C 0.33051 0.13324 0.97711 0.0
C507 C 0.32083 0.11525 0.94048 0.0
C508 C 0.31595 0.13131 0.90992 0.0
C509 C 0.32059 0.16519 0.91601 0.0
C510 C 0.33011 0.21641 0.95906 0.0
C511 C 0.3004 0.21945 0.95126 0.0
C512 C 0.30338 0.25224 0.95809 0.0
C513 C 0.33614 0.28242 0.97298 0.0
C514 C 0.36596 0.27927 0.98024 0.0
C515 C 0.36298 0.24655 0.97313 0.0
C516 C 0.33811 0.18251 0.02241 0.0
C517 C 0.3102 0.18194 0.03866 0.0
C518 C 0.31634 0.19934 0.07455 0.0
C519 C 0.35058 0.21772 0.09477 0.0
C520 C 0.37849 0.21813 0.07834 0.0
C521 C 0.37229 0.20069 0.04245 0.0
C522 C 0.34286 0.1196 0.00735 0.0
C523 C 0.31847 0.09255 0.02639 0.0
C524 C 0.32889 0.07274 0.04653 0.0
C525 C 0.36357 0.07944 0.04707 0.0
C526 C 0.3886 0.10854 0.03068 0.0
C527 C 0.37834 0.12866 0.0112 0.0
C528 C 0.31637 0.07975 0.93416 0.0
C529 C 0.28255 0.04927 0.93185 0.0
C530 C 0.27824 0.01573 0.92722 0.0
C531 C 0.30776 0.01214 0.92475 0.0
C532 C 0.34163 0.04286 0.92686 0.0
C533 C 0.34586 0.07637 0.93147 0.0
C534 C 0.30909 0.11423 0.8711 0.0
C535 C 0.27616 0.10113 0.8496 0.0
C536 C 0.27025 0.08667 0.81237 0.0
C537 C 0.2972 0.08493 0.79617 0.0
C538 C 0.33016 0.09806 0.81797 0.0
C539 C 0.33611 0.1128 0.85504 0.0
C540 C 0.32797 0.18669 0.88431 0.0
C541 C 0.30108 0.18719 0.86156 0.0
C542 C 0.30904 0.20548 0.82986 0.0
C543 C 0.34389 0.22308 0.82052 0.0
C544 C 0.37059 0.22273 0.84396 0.0
C545 C 0.36271 0.20484 0.87549 0.0
C546 C 0.3571 0.23655 0.13271 0.0
C547 C 0.30334 0.97657 0.92 0.0
H548 H 0.83519 0.17377 0.18394 0.0
H549 H 0.63376 0.95358 0.78635 0.0
H550 H 0.82171 0.19632 0.96352 0.0
H551 H 0.85007 0.25858 0.9862 0.0
H552 H 0.95145 0.26601 0.0037 0.0
H553 H 0.9221 0.20247 0.98121 0.0
H554 H 0.80046 0.16538 0.02238 0.0
H555 H 0.80938 0.17379 0.09078 0.0
H556 H 0.87027 0.1229 0.09086 0.0
H557 H 0.86089 0.11439 0.02229 0.0
H558 H 0.74836 0.13041 0.96111 0.0
H559 H 0.70041 0.11234 0.99944 0.0
H560 H 0.7165 0.02989 0.03544 0.0
H561 H 0.76591 0.04936 0.99764 0.0
H562 H 0.73788 0.11261 0.88477 0.0
H563 H 0.68572 0.07229 0.83962 0.0
H564 H 0.7071 0.98875 0.85398 0.0
H565 H 0.75922 0.02943 0.89918 0.0
H566 H 0.81076 0.17082 0.86182 0.0
H567 H 0.79035 0.16753 0.79653 0.0
H568 H 0.78051 0.06573 0.77467 0.0
H569 H 0.80332 0.07047 0.84045 0.0
H570 H 0.87251 0.21686 0.89818 0.0
H571 H 0.90765 0.2427 0.84743 0.0
H572 H 0.92319 0.15438 0.83424 0.0
H573 H 0.88827 0.12896 0.88506 0.0
O574 O 0.83193 0.17012 0.15685 0.0
O575 O 0.863 0.14375 0.15533 0.0
O576 O 0.64494 0.01417 0.79743 0.0
O577 O 0.65351 0.96968 0.8051 0.0
C578 C 0.85071 0.15732 0.9557 0.0
C579 C 0.8242 0.13313 0.97573 0.0
C580 C 0.79158 0.10565 0.95621 0.0
C581 C 0.78724 0.10001 0.91672 0.0
C582 C 0.81577 0.12159 0.89701 0.0
C583 C 0.84804 0.14948 0.91679 0.0
C584 C 0.86985 0.19491 0.97129 0.0
C585 C 0.85 0.21125 0.97285 0.0
C586 C 0.86627 0.24688 0.98571 0.0
C587 C 0.90298 0.26723 0.9968 0.0
C588 C 0.92303 0.25087 0.99537 0.0
C589 C 0.90647 0.21474 0.98264 0.0
C590 C 0.82974 0.13893 0.01734 0.0
C591 C 0.81554 0.15586 0.03714 0.0
C592 C 0.82077 0.16074 0.07628 0.0
C593 C 0.84046 0.14892 0.09633 0.0
C594 C 0.8549 0.13225 0.07631 0.0
C595 C 0.84961 0.12738 0.03716 0.0
C596 C 0.76009 0.09078 0.97623 0.0
C597 C 0.74138 0.1083 0.97711 0.0
C598 C 0.7145 0.09839 0.9996 0.0
C599 C 0.70515 0.07011 0.02094 0.0
C600 C 0.72352 0.05208 0.01957 0.0
C601 C 0.75125 0.06272 0.99767 0.0
C602 C 0.75216 0.07383 0.89534 0.0
C603 C 0.73078 0.08537 0.87873 0.0
C604 C 0.70127 0.06241 0.85262 0.0
C605 C 0.69258 0.02745 0.84275 0.0
C606 C 0.71324 0.01559 0.8607 0.0
C607 C 0.74277 0.03861 0.88687 0.0
C608 C 0.80881 0.12104 0.85588 0.0
C609 C 0.80578 0.14854 0.84265 0.0
C610 C 0.79385 0.14648 0.80521 0.0
C611 C 0.78347 0.11621 0.78036 0.0
C612 C 0.78834 0.08944 0.79312 0.0
C613 C 0.80117 0.09197 0.83066 0.0
C614 C 0.87784 0.17098 0.89543 0.0
C615 C 0.8849 0.20395 0.8856 0.0
C616 C 0.90473 0.21852 0.85624 0.0
C617 C 0.91754 0.20017 0.83626 0.0
C618 C 0.91329 0.16895 0.8487 0.0
C619 C 0.8936 0.1545 0.87799 0.0
C620 C 0.84588 0.15404 0.13792 0.0
C621 C 0.66224 0.00349 0.81372 0.0
H622 H 0.85046 0.65026 0.19359 0.0
H623 H 0.64161 0.6373 0.80942 0.0
H624 H 0.91384 0.70697 0.01409 0.0
H625 H 0.95425 0.69634 0.05323 0.0
H626 H 0.90912 0.59328 0.99005 0.0
H627 H 0.86841 0.60401 0.95164 0.0
H628 H 0.84439 0.69758 0.04675 0.0
H629 H 0.84895 0.68747 0.11239 0.0
H630 H 0.82922 0.58332 0.07705 0.0
H631 H 0.8243 0.59366 0.01153 0.0
H632 H 0.77491 0.68761 0.0065 0.0
H633 H 0.72283 0.66157 0.04047 0.0
H634 H 0.70638 0.55769 0.0113 0.0
H635 H 0.75772 0.58384 0.97743 0.0
H636 H 0.78569 0.71274 0.93649 0.0
H637 H 0.73876 0.71594 0.89985 0.0
H638 H 0.69312 0.6076 0.85103 0.0
H639 H 0.7404 0.60488 0.88774 0.0
H640 H 0.82548 0.71829 0.87374 0.0
H641 H 0.80105 0.71301 0.80853 0.0
H642 H 0.78729 0.60928 0.78893 0.0
H643 H 0.80957 0.61406 0.85404 0.0
H644 H 0.9045 0.72929 0.90688 0.0
H645 H 0.93549 0.74015 0.85176 0.0
H646 H 0.89874 0.62878 0.8317 0.0
H647 H 0.86766 0.61826 0.88695 0.0
O648 O 0.84859 0.65371 0.16746 0.0
O649 O 0.83899 0.60065 0.14786 0.0
O650 O 0.68603 0.69263 0.84877 0.0
O651 O 0.65985 0.63626 0.82482 0.0
C652 C 0.85879 0.65917 0.96275 0.0
C653 C 0.83155 0.65296 0.98473 0.0
C654 C 0.80103 0.65219 0.96894 0.0
C655 C 0.79825 0.65916 0.93168 0.0
C656 C 0.82534 0.6653 0.90955 0.0
C657 C 0.85571 0.66537 0.92506 0.0
C658 C 0.88883 0.65664 0.97943 0.0
C659 C 0.91343 0.68255 0.00809 0.0
C660 C 0.93598 0.67609 0.03086 0.0
C661 C 0.93443 0.64367 0.02518 0.0
C662 C 0.91076 0.61838 0.99537 0.0
C663 C 0.88804 0.62478 0.9728 0.0
C664 C 0.83442 0.64652 0.02448 0.0
C665 C 0.8411 0.67263 0.0533 0.0
C666 C 0.8437 0.66677 0.09074 0.0
C667 C 0.83957 0.63462 0.09999 0.0
C668 C 0.83267 0.60842 0.07092 0.0
C669 C 0.82999 0.6143 0.03349 0.0
C670 C 0.76964 0.63747 0.98923 0.0
C671 C 0.75986 0.65926 0.00752 0.0
C672 C 0.7304 0.64438 0.02715 0.0
C673 C 0.7105 0.60755 0.02866 0.0
C674 C 0.7211 0.58612 0.01089 0.0
C675 C 0.75026 0.60094 0.99124 0.0
C676 C 0.76631 0.65857 0.91481 0.0
C677 C 0.7651 0.68951 0.91846 0.0
C678 C 0.73851 0.69138 0.89718 0.0
C679 C 0.71253 0.66219 0.87206 0.0
C680 C 0.7129 0.63064 0.86986 0.0
C681 C 0.73965 0.62889 0.89103 0.0
C682 C 0.81911 0.66646 0.86866 0.0
C683 C 0.81786 0.69482 0.855 0.0
C684 C 0.80402 0.69179 0.81774 0.0
C685 C 0.79181 0.66055 0.79358 0.0
C686 C 0.79627 0.63368 0.80667 0.0
C687 C 0.80929 0.63643 0.84394 0.0
C688 C 0.88396 0.67304 0.90112 0.0
C689 C 0.90446 0.70751 0.89156 0.0
C690 C 0.9218 0.71356 0.85971 0.0
C691 C 0.91885 0.68516 0.83674 0.0
C692 C 0.90128 0.65118 0.84855 0.0
C693 C 0.8839 0.64517 0.88051 0.0
C694 C 0.84235 0.6285 0.13981 0.0
C695 C 0.68546 0.66476 0.84787 0.0
H696 H 0.82414 0.71907 0.24561 0.0
H697 H -0.00419 0.63344 0.59348 0.0
H698 H 0.80908 0.72954 0.44443 0.0
H699 H 0.76185 0.73684 0.41538 0.0
H700 H 0.68473 0.62827 0.42839 0.0
H701 H 0.73242 0.62057 0.4556 0.0
H702 H 0.86222 0.73446 0.40762 0.0
H703 H 0.85345 0.73866 0.34075 0.0
H704 H 0.77539 0.62639 0.32217 0.0
H705 H 0.7848 0.62249 0.38909 0.0
H706 H 0.91518 0.74354 0.46319 0.0
H707 H 0.96423 0.76806 0.42601 0.0
H708 H 0.92467 0.66349 0.36918 0.0
H709 H 0.8745 0.63924 0.40622 0.0
H710 H 0.92197 0.72511 0.54134 0.0
H711 H 0.96953 0.72281 0.57799 0.0
H712 H 0.92626 0.61558 0.52689 0.0
H713 H 0.87915 0.61843 0.49014 0.0
H714 H 0.85296 0.71486 0.57511 0.0
H715 H 0.87381 0.71867 0.64059 0.0
H716 H 0.86138 0.61561 0.6198 0.0
H717 H 0.8387 0.61142 0.5542 0.0
H718 H 0.79309 0.70963 0.54075 0.0
H719 H 0.76207 0.69891 0.59633 0.0
H720 H 0.72944 0.58844 0.57862 0.0
H721 H 0.7606 0.59958 0.52374 0.0
O722 O 0.8272 0.71682 0.27197 0.0
O723 O 0.78706 0.65908 0.26399 0.0
O724 O 0.00081 0.69153 0.60185 0.0
O725 O 0.97833 0.63565 0.57805 0.0
C726 C 0.80357 0.66985 0.4665 0.0
C727 C 0.82996 0.67512 0.4436 0.0
C728 C 0.861 0.67652 0.45893 0.0
C729 C 0.86492 0.67084 0.49655 0.0
C730 C 0.83802 0.66426 0.51907 0.0
C731 C 0.80719 0.66345 0.50399 0.0
C732 C 0.77419 0.67443 0.45186 0.0
C733 C 0.782 0.70723 0.44069 0.0
C734 C 0.75509 0.71138 0.42408 0.0
C735 C 0.71979 0.68307 0.41945 0.0
C736 C 0.71183 0.65053 0.43167 0.0
C737 C 0.73891 0.64612 0.44741 0.0
C738 C 0.8245 0.67807 0.40309 0.0
C739 C 0.84354 0.71074 0.38901 0.0
C740 C 0.83832 0.7131 0.35082 0.0
C741 C 0.81382 0.68283 0.32606 0.0
C742 C 0.79454 0.65019 0.34042 0.0
C743 C 0.79985 0.64788 0.37861 0.0
C744 C 0.89156 0.6897 0.43747 0.0
C745 C 0.9171 0.72594 0.44269 0.0
C746 C 0.94484 0.73991 0.42105 0.0
C747 C 0.94807 0.71776 0.39423 0.0
C748 C 0.92264 0.68121 0.38936 0.0
C749 C 0.89426 0.6673 0.41064 0.0
C750 C 0.89727 0.67198 0.51305 0.0
C751 C 0.92335 0.70148 0.53749 0.0
C752 C 0.95023 0.69995 0.55864 0.0
C753 C 0.95133 0.66878 0.55579 0.0
C754 C 0.92597 0.63984 0.53004 0.0
C755 C 0.89928 0.64152 0.50869 0.0
C756 C 0.84452 0.66299 0.55987 0.0
C757 C 0.85342 0.69251 0.58498 0.0
C758 C 0.86548 0.69465 0.62246 0.0
C759 C 0.86975 0.66763 0.63541 0.0
C760 C 0.85847 0.6369 0.61074 0.0
C761 C 0.84573 0.63453 0.57324 0.0
C762 C 0.77923 0.6554 0.52842 0.0
C763 C 0.778 0.6829 0.5481 0.0
C764 C 0.76058 0.67677 0.58007 0.0
C765 C 0.74417 0.64303 0.59254 0.0
C766 C 0.74235 0.61488 0.57026 0.0
C767 C 0.7598 0.62106 0.53857 0.0
C768 C 0.80844 0.68538 0.28548 0.0
C769 C 0.97835 0.66615 0.58 0.0
H770 H 0.26543 0.06155 0.23889 0.0
H771 H 0.38334 0.39317 0.50004 0.0
H772 H 0.27322 0.07659 0.43632 0.0
H773 H 0.26624 0.01854 0.42343 0.0
H774 H 0.37648 0.06326 0.46698 0.0
H775 H 0.38327 0.12147 0.47907 0.0
H776 H 0.26608 0.12173 0.38802 0.0
H777 H 0.25554 0.09442 0.32362 0.0
H778 H 0.36569 0.1251 0.33091 0.0
H779 H 0.37588 0.15246 0.39525 0.0
H780 H 0.26311 0.17407 0.42886 0.0
H781 H 0.24537 0.2108 0.3974 0.0
H782 H 0.3495 0.27076 0.36244 0.0
H783 H 0.36729 0.23428 0.39491 0.0
H784 H 0.28839 0.21757 0.49857 0.0
H785 H 0.29291 0.27493 0.50764 0.0
H786 H 0.40224 0.32707 0.48638 0.0
H787 H 0.39733 0.26948 0.47757 0.0
H788 H 0.29613 0.18609 0.5525 0.0
H789 H 0.30677 0.21196 0.61749 0.0
H790 H 0.41847 0.24977 0.62015 0.0
H791 H 0.40747 0.22439 0.55468 0.0
H792 H 0.27608 0.10705 0.52104 0.0
H793 H 0.26249 0.07574 0.57615 0.0
H794 H 0.37448 0.12085 0.61079 0.0
H795 H 0.38788 0.15278 0.55489 0.0
O796 O 0.27022 0.07281 0.26426 0.0
O797 O 0.32796 0.09314 0.26782 0.0
O798 O 0.32572 0.34244 0.51119 0.0
O799 O 0.381 0.37021 0.49719 0.0
C800 C 0.33309 0.13844 0.46536 0.0
C801 C 0.32822 0.15535 0.43541 0.0
C802 C 0.32946 0.18747 0.44318 0.0
C803 C 0.33929 0.20459 0.48019 0.0
C804 C 0.34438 0.18783 0.50987 0.0
C805 C 0.33957 0.15399 0.50267 0.0
C806 C 0.32887 0.10324 0.45804 0.0
C807 C 0.29591 0.07386 0.44269 0.0
C808 C 0.29197 0.04073 0.43555 0.0
C809 C 0.32088 0.03637 0.44407 0.0
C810 C 0.35374 0.06579 0.46008 0.0
C811 C 0.35769 0.09901 0.46699 0.0
C812 C 0.32182 0.1394 0.3961 0.0
C813 C 0.28796 0.12285 0.37551 0.0
C814 C 0.28198 0.10709 0.33881 0.0
C815 C 0.30979 0.10765 0.32207 0.0
C816 C 0.34372 0.1243 0.34289 0.0
C817 C 0.34962 0.13996 0.37962 0.0
C818 C 0.31646 0.20165 0.41413 0.0
C819 C 0.28159 0.1942 0.41307 0.0
C820 C 0.27157 0.21529 0.39532 0.0
C821 C 0.29618 0.2438 0.3779 0.0
C822 C 0.32995 0.24883 0.37555 0.0
C823 C 0.34017 0.22801 0.39394 0.0
C824 C 0.34265 0.2395 0.48783 0.0
C825 C 0.3134 0.24147 0.49637 0.0
C826 C 0.31602 0.27423 0.50135 0.0
C827 C 0.34798 0.30561 0.49776 0.0
C828 C 0.37727 0.30345 0.48937 0.0
C829 C 0.37461 0.27064 0.48447 0.0
C830 C 0.35116 0.20399 0.54894 0.0
C831 C 0.32291 0.20034 0.56708 0.0
C832 C 0.32905 0.21493 0.6042 0.0
C833 C 0.36348 0.23292 0.6239 0.0
C834 C 0.39165 0.23597 0.60573 0.0
C835 C 0.38551 0.22173 0.56839 0.0
C836 C 0.33287 0.13196 0.53391 0.0
C837 C 0.2977 0.10982 0.54022 0.0
C838 C 0.29006 0.09225 0.57199 0.0
C839 C 0.31747 0.09616 0.59817 0.0
C840 C 0.35284 0.11744 0.5912 0.0
C841 C 0.36052 0.1355 0.55931 0.0
C842 C 0.30336 0.09082 0.28311 0.0
C843 C 0.35075 0.34044 0.50249 0.0
H844 H 0.79335 0.16816 0.2352 0.0
H845 H 0.03386 0.33911 0.64132 0.0
H846 H 0.73861 0.11887 0.43435 0.0
H847 H 0.71102 0.05583 0.411 0.0
H848 H 0.81185 0.06383 0.43842 0.0
H849 H 0.83858 0.12584 0.46161 0.0
H850 H 0.79718 0.20362 0.39502 0.0
H851 H 0.78935 0.19297 0.32658 0.0
H852 H 0.85515 0.14746 0.33355 0.0
H853 H 0.86249 0.15797 0.40186 0.0
H854 H 0.8911 0.27161 0.42009 0.0
H855 H 0.94275 0.29247 0.3853 0.0
H856 H 0.96318 0.21561 0.43015 0.0
H857 H 0.91298 0.19613 0.46535 0.0
H858 H 0.8938 0.29365 0.51614 0.0
H859 H 0.9451 0.33902 0.55945 0.0
H860 H 0.9733 0.26188 0.58436 0.0
H861 H 0.92205 0.2169 0.54089 0.0
H862 H 0.85338 0.25102 0.58092 0.0
H863 H 0.87693 0.25552 0.64635 0.0
H864 H 0.86976 0.15519 0.62242 0.0
H865 H 0.84854 0.15213 0.55752 0.0
H866 H 0.76885 0.19165 0.53397 0.0
H867 H 0.7336 0.16607 0.58451 0.0
H868 H 0.7513 0.07909 0.5733 0.0
H869 H 0.7868 0.10508 0.52282 0.0
O870 O 0.79685 0.17216 0.26228 0.0
O871 O 0.83135 0.14957 0.26735 0.0
O872 O -0.00066 0.36101 0.60837 0.0
O873 O 0.01387 0.32188 0.62345 0.0
C874 C 0.80857 0.16424 0.46475 0.0
C875 C 0.83504 0.18873 0.44488 0.0
C876 C 0.86673 0.21743 0.46461 0.0
C877 C 0.87022 0.22361 0.504 0.0
C878 C 0.842 0.20096 0.52348 0.0
C879 C 0.81042 0.17224 0.5035 0.0
C880 C 0.79045 0.12667 0.44949 0.0
C881 C 0.75449 0.1068 0.43506 0.0
C882 C 0.73894 0.07094 0.42179 0.0
C883 C 0.7593 0.05484 0.42293 0.0
C884 C 0.79543 0.07529 0.43695 0.0
C885 C 0.81073 0.11073 0.45025 0.0
C886 C 0.83069 0.18195 0.40339 0.0
C887 C 0.8099 0.19139 0.38168 0.0
C888 C 0.80548 0.18528 0.3426 0.0
C889 C 0.82173 0.16948 0.32456 0.0
C890 C 0.84238 0.15981 0.34651 0.0
C891 C 0.84673 0.1659 0.38557 0.0
C892 C 0.8989 0.2329 0.44565 0.0
C893 C 0.90713 0.25975 0.42257 0.0
C894 C 0.93617 0.2712 0.40245 0.0
C895 C 0.95647 0.25515 0.40456 0.0
C896 C 0.94766 0.22801 0.42741 0.0
C897 C 0.91943 0.21731 0.44807 0.0
C898 C 0.90427 0.25208 0.52543 0.0
C899 C 0.91147 0.28681 0.53047 0.0
C900 C 0.94057 0.31255 0.5555 0.0
C901 C 0.96295 0.30389 0.57583 0.0
C902 C 0.95637 0.26932 0.56952 0.0
C903 C 0.92732 0.24367 0.54445 0.0
C904 C 0.84911 0.20119 0.5645 0.0
C905 C 0.85623 0.22975 0.5902 0.0
C906 C 0.86952 0.23216 0.62753 0.0
C907 C 0.87542 0.20578 0.63956 0.0
C908 C 0.86552 0.17594 0.61427 0.0
C909 C 0.85309 0.174 0.57707 0.0
C910 C 0.78044 0.15033 0.52456 0.0
C911 C 0.76394 0.16633 0.54137 0.0
C912 C 0.74403 0.15179 0.57052 0.0
C913 C 0.74027 0.12092 0.58345 0.0
C914 C 0.7538 0.10296 0.56407 0.0
C915 C 0.77386 0.11764 0.53486 0.0
C916 C 0.81703 0.16308 0.28304 0.0
C917 C 0.99308 0.33073 0.6035 0.0
H918 H 0.00396 0.57372 0.51396 0.0
H919 H -0.00122 0.2861 0.2463 0.0
H920 H 0.94344 0.52551 0.3067 0.0
H921 H 0.94525 0.58104 0.32136 0.0
H922 H 0.05464 0.63974 0.30025 0.0
H923 H 0.05231 0.58396 0.28533 0.0
H924 H 0.95652 0.48138 0.37214 0.0
H925 H 0.967 0.51223 0.43476 0.0
H926 H 0.07283 0.59112 0.41488 0.0
H927 H 0.06206 0.55983 0.35249 0.0
H928 H 0.95821 0.41759 0.35533 0.0
H929 H 0.97586 0.38239 0.3905 0.0
H930 H 0.08416 0.45076 0.36981 0.0
H931 H 0.0665 0.48659 0.33601 0.0
H932 H 0.92907 0.3874 0.265 0.0
H933 H 0.92108 0.3285 0.25527 0.0
H934 H 0.03484 0.37662 0.26274 0.0
H935 H 0.04237 0.4353 0.27217 0.0
H936 H 0.92703 0.44163 0.19645 0.0
H937 H 0.91578 0.4156 0.13135 0.0
H938 H 0.02046 0.43022 0.14221 0.0
H939 H 0.03153 0.45678 0.20694 0.0
H940 H 0.94661 0.51645 0.21049 0.0
H941 H 0.95867 0.54829 0.1545 0.0
H942 H 0.06415 0.56483 0.16583 0.0
H943 H 0.0519 0.53365 0.22087 0.0
O944 O 0.00068 0.5614 0.48953 0.0
O945 O 0.0551 0.60081 0.47817 0.0
O946 O 0.94312 0.2856 0.24922 0.0
O947 O 0.00123 0.30906 0.2503 0.0
C948 C -0.00321 0.51729 0.28832 0.0
C949 C 0.00115 0.50098 0.31908 0.0
C950 C -0.00044 0.46854 0.31268 0.0
C951 C 0.99077 0.45102 0.27591 0.0
C952 C 0.98699 0.46764 0.24531 0.0
C953 C 0.99174 0.50158 0.25145 0.0
C954 C -0.00231 0.5509 0.29487 0.0
C955 C 0.96762 0.55043 0.30491 0.0
C956 C 0.96874 0.58211 0.31328 0.0
C957 C 0.00012 0.61474 0.31207 0.0
C958 C 0.03012 0.61502 0.30157 0.0
C959 C 0.02884 0.58329 0.29288 0.0
C960 C 0.00848 0.51848 0.35782 0.0
C961 C 0.98204 0.50515 0.38153 0.0
C962 C 0.98806 0.52291 0.41721 0.0
C963 C 0.02069 0.55427 0.42976 0.0
C964 C 0.04736 0.56713 0.40606 0.0
C965 C 0.0413 0.54932 0.37043 0.0
C966 C 0.0111 0.45451 0.34321 0.0
C967 C 0.98599 0.42595 0.36008 0.0
C968 C -0.00385 0.40589 0.38003 0.0
C969 C 0.03133 0.41375 0.38243 0.0
C970 C 0.05691 0.44418 0.36826 0.0
C971 C 0.0469 0.46473 0.34918 0.0
C972 C 0.98625 0.4155 0.26942 0.0
C973 C 0.95219 0.38511 0.26445 0.0
C974 C 0.94773 0.35154 0.25897 0.0
C975 C 0.97735 0.34785 0.25827 0.0
C976 C 0.01148 0.37849 0.26313 0.0
C977 C 0.01587 0.41203 0.2686 0.0
C978 C 0.97984 0.45051 0.20647 0.0
C979 C 0.9474 0.43903 0.18469 0.0
C980 C 0.94111 0.4243 0.14753 0.0
C981 C 0.96721 0.42079 0.13161 0.0
C982 C -0.00026 0.43241 0.15364 0.0
C983 C 0.00604 0.44731 0.1907 0.0
C984 C -0.00151 0.52294 0.21965 0.0
C985 C 0.97235 0.52738 0.20085 0.0
C986 C 0.97921 0.54533 0.16885 0.0
C987 C 0.01227 0.55888 0.15543 0.0
C988 C 0.03832 0.55465 0.17503 0.0
C989 C 0.0315 0.53697 0.2067 0.0
C990 C 0.02668 0.57362 0.46726 0.0
C991 C 0.97273 0.31226 0.25236 0.0
H992 H 0.49996 0.51055 0.51546 0.0
H993 H 0.30059 0.28377 0.12043 0.0
H994 H 0.48704 0.5299 0.29461 0.0
H995 H 0.51512 0.59227 0.31669 0.0
H996 H 0.61664 0.60013 0.33556 0.0
H997 H 0.58758 0.53652 0.31362 0.0
H998 H 0.46514 0.49893 0.35343 0.0
H999 H 0.4739 0.50849 0.4218 0.0
H1000 H 0.5366 0.45952 0.42431 0.0
H1001 H 0.52738 0.44985 0.35577 0.0
H1002 H 0.41289 0.46198 0.29239 0.0
H1003 H 0.36525 0.44381 0.33117 0.0
H1004 H 0.38431 0.36395 0.36964 0.0
H1005 H 0.43343 0.38355 0.33137 0.0
H1006 H 0.40323 0.44415 0.2165 0.0
H1007 H 0.35117 0.40282 0.17172 0.0
H1008 H 0.37426 0.32066 0.18785 0.0
H1009 H 0.42626 0.36234 0.23269 0.0
H1010 H 0.47614 0.50322 0.19361 0.0
H1011 H 0.45586 0.49949 0.1282 0.0
H1012 H 0.44677 0.39795 0.10731 0.0
H1013 H 0.46956 0.4032 0.17323 0.0
H1014 H 0.5376 0.55001 0.22991 0.0
H1015 H 0.57284 0.57595 0.17927 0.0
H1016 H 0.58943 0.48827 0.16683 0.0
H1017 H 0.55444 0.46276 0.21758 0.0
O1018 O 0.49675 0.50644 0.4884 0.0
O1019 O 0.52872 0.48098 0.48813 0.0
O1020 O 0.31091 0.34409 0.13033 0.0
O1021 O 0.32029 0.30026 0.13901 0.0
C1022 C 0.51632 0.49106 0.28783 0.0
C1023 C 0.48996 0.46693 0.30804 0.0
C1024 C 0.45758 0.43889 0.28867 0.0
C1025 C 0.45329 0.43287 0.2492 0.0
C1026 C 0.48167 0.45456 0.22937 0.0
C1027 C 0.51376 0.48287 0.24901 0.0
C1028 C 0.53527 0.52873 0.30306 0.0
C1029 C 0.5153 0.54496 0.30409 0.0
C1030 C 0.53142 0.58066 0.3166 0.0
C1031 C 0.56808 0.60116 0.32792 0.0
C1032 C 0.58825 0.58489 0.32704 0.0
C1033 C 0.57186 0.54872 0.31462 0.0
C1034 C 0.49534 0.47334 0.34961 0.0
C1035 C 0.48058 0.49007 0.36872 0.0
C1036 C 0.48571 0.49561 0.40784 0.0
C1037 C 0.50587 0.48467 0.42856 0.0
C1038 C 0.52087 0.46819 0.40923 0.0
C1039 C 0.51567 0.46266 0.3701 0.0
C1040 C 0.42609 0.42366 0.30871 0.0
C1041 C 0.40661 0.44038 0.30899 0.0
C1042 C 0.37992 0.43046 0.33174 0.0
C1043 C 0.37155 0.40293 0.35397 0.0
C1044 C 0.39061 0.38558 0.3531 0.0
C1045 C 0.41816 0.39627 0.33093 0.0
C1046 C 0.41835 0.40613 0.22793 0.0
C1047 C 0.39654 0.417 0.21092 0.0
C1048 C 0.36708 0.39346 0.18503 0.0
C1049 C 0.35888 0.35858 0.17577 0.0
C1050 C 0.38001 0.34741 0.19411 0.0
C1051 C 0.40947 0.37101 0.22006 0.0
C1052 C 0.47463 0.45364 0.18818 0.0
C1053 C 0.47138 0.48092 0.17464 0.0
C1054 C 0.45952 0.47859 0.13713 0.0
C1055 C 0.44938 0.44827 0.11249 0.0
C1056 C 0.45443 0.4217 0.12558 0.0
C1057 C 0.46723 0.42451 0.16321 0.0
C1058 C 0.54347 0.50445 0.22756 0.0
C1059 C 0.55025 0.53728 0.21753 0.0
C1060 C 0.57013 0.55191 0.18824 0.0
C1061 C 0.58327 0.53376 0.1685 0.0
C1062 C 0.57927 0.50269 0.18111 0.0
C1063 C 0.55953 0.48819 0.21035 0.0
C1064 C 0.51121 0.49052 0.47013 0.0
C1065 C 0.32858 0.334 0.14699 0.0
H1066 H 0.51447 0.9782 0.52538 0.0
H1067 H 0.30813 0.96992 0.14124 0.0
H1068 H 0.57893 0.03846 0.34656 0.0
H1069 H 0.62042 0.02885 0.38515 0.0
H1070 H 0.57672 0.92613 0.32169 0.0
H1071 H 0.53498 0.93586 0.28382 0.0
H1072 H 0.50905 0.0275 0.37955 0.0
H1073 H 0.51323 0.01648 0.44491 0.0
H1074 H 0.4945 0.91304 0.408 0.0
H1075 H 0.48997 0.92428 0.34276 0.0
H1076 H 0.44061 0.01873 0.33874 0.0
H1077 H 0.38838 0.99287 0.37247 0.0
H1078 H 0.3713 0.88876 0.34307 0.0
H1079 H 0.42284 0.91476 0.30946 0.0
H1080 H 0.45181 0.04422 0.26875 0.0
H1081 H 0.4053 0.04794 0.23192 0.0
H1082 H 0.35886 0.93947 0.18311 0.0
H1083 H 0.40575 0.93623 0.21999 0.0
H1084 H 0.49144 0.04956 0.20596 0.0
H1085 H 0.46698 0.04426 0.14077 0.0
H1086 H 0.45252 0.94022 0.12135 0.0
H1087 H 0.47495 0.94507 0.18644 0.0
H1088 H 0.57021 0.0607 0.2398 0.0
H1089 H 0.6018 0.07205 0.18511 0.0
H1090 H 0.56518 0.96075 0.16425 0.0
H1091 H 0.53344 0.94974 0.21905 0.0
O1092 O 0.51276 0.98201 0.49935 0.0
O1093 O 0.50363 0.92932 0.47894 0.0
O1094 O 0.35283 0.02509 0.18061 0.0
O1095 O 0.3262 0.96866 0.1567 0.0
C1096 C 0.52432 0.99032 0.29506 0.0
C1097 C 0.49693 0.98379 0.31693 0.0
C1098 C 0.46647 0.98311 0.30114 0.0
C1099 C 0.4638 0.99028 0.26394 0.0
C1100 C 0.49092 -0.00355 0.24185 0.0
C1101 C 0.5213 -0.00341 0.2574 0.0
C1102 C 0.5546 0.98825 0.3118 0.0
C1103 C 0.57905 0.01433 0.34041 0.0
C1104 C 0.60223 0.00847 0.36284 0.0
C1105 C 0.60144 0.97645 0.35687 0.0
C1106 C 0.5778 0.95095 0.3272 0.0
C1107 C 0.55448 0.95677 0.30496 0.0
C1108 C 0.49959 0.97685 0.35652 0.0
C1109 C 0.50589 0.0025 0.38569 0.0
C1110 C 0.50827 -0.00387 0.42297 0.0
C1111 C 0.50432 0.96392 0.4317 0.0
C1112 C 0.49781 0.93818 0.40227 0.0
C1113 C 0.49535 0.94456 0.36501 0.0
C1114 C 0.43505 0.96847 0.32138 0.0
C1115 C 0.4254 0.99037 0.33967 0.0
C1116 C 0.39585 0.97558 0.35916 0.0
C1117 C 0.37571 0.93874 0.36051 0.0
C1118 C 0.3862 0.9172 0.34276 0.0
C1119 C 0.41547 0.93193 0.32327 0.0
C1120 C 0.432 0.98995 0.24709 0.0
C1121 C 0.43113 0.02107 0.25068 0.0
C1122 C 0.40478 0.02324 0.22929 0.0
C1123 C 0.37871 0.99416 0.20412 0.0
C1124 C 0.37873 0.96243 0.20198 0.0
C1125 C 0.40524 0.96038 0.22325 0.0
C1126 C 0.48473 -0.00241 0.20096 0.0
C1127 C 0.48367 0.02602 0.18726 0.0
C1128 C 0.46981 0.02297 0.15001 0.0
C1129 C 0.45737 0.99164 0.12593 0.0
C1130 C 0.46166 0.96468 0.13905 0.0
C1131 C 0.47475 0.96746 0.1763 0.0
C1132 C 0.54967 0.00446 0.23359 0.0
C1133 C 0.5703 0.03904 0.22439 0.0
C1134 C 0.588 0.04536 0.1928 0.0
C1135 C 0.58529 0.01714 0.16974 0.0
C1136 C 0.56756 0.98303 0.18121 0.0
C1137 C 0.54978 0.97673 0.21288 0.0
C1138 C 0.50686 0.95724 0.47135 0.0
C1139 C 0.35192 -0.00295 0.1798 0.0
H1140 H 0.49322 0.05211 0.57917 0.0
H1141 H 0.66608 0.97027 0.92883 0.0
H1142 H 0.47577 0.06087 0.77723 0.0
H1143 H 0.42829 0.0677 0.74798 0.0
H1144 H 0.35181 0.95882 0.76058 0.0
H1145 H 0.39976 0.95162 0.78803 0.0
H1146 H 0.52978 0.06663 0.74134 0.0
H1147 H 0.52161 0.0712 0.67449 0.0
H1148 H 0.44415 0.9588 0.65493 0.0
H1149 H 0.45296 0.95453 0.72184 0.0
H1150 H 0.58255 0.07586 0.79718 0.0
H1151 H 0.63219 0.10068 0.76083 0.0
H1152 H 0.59351 -0.00363 0.70383 0.0
H1153 H 0.54275 0.97179 0.74008 0.0
H1154 H 0.58871 0.05824 0.87465 0.0
H1155 H 0.63682 0.05737 0.91194 0.0
H1156 H 0.59546 0.95002 0.86248 0.0
H1157 H 0.54775 0.95143 0.82508 0.0
H1158 H 0.51952 0.04672 0.90822 0.0
H1159 H 0.54077 0.05098 0.97367 0.0
H1160 H 0.52914 0.94824 0.9533 0.0
H1161 H 0.5061 0.9436 0.88774 0.0
H1162 H 0.45969 0.04113 0.87315 0.0
H1163 H 0.42831 0.03048 0.92846 0.0
H1164 H 0.39619 0.92012 0.91151 0.0
H1165 H 0.42772 0.93119 0.8569 0.0
O1166 O 0.49604 0.04971 0.60551 0.0
O1167 O 0.45625 0.99187 0.59701 0.0
O1168 O 0.66913 0.02744 0.93687 0.0
O1169 O 0.64823 0.97182 0.91327 0.0
C1170 C 0.47076 0.00142 0.79944 0.0
C1171 C 0.49744 0.00701 0.77683 0.0
C1172 C 0.52855 0.00871 0.79248 0.0
C1173 C 0.5323 0.00306 0.83015 0.0
C1174 C 0.50512 -0.00384 0.85237 0.0
C1175 C 0.47421 0.99505 0.83699 0.0
C1176 C 0.44123 0.00565 0.78448 0.0
C1177 C 0.44878 0.03838 0.77333 0.0
C1178 C 0.42173 0.04226 0.75661 0.0
C1179 C 0.38652 0.01374 0.75183 0.0
C1180 C 0.37882 0.98124 0.76397 0.0
C1181 C 0.40606 0.97712 0.77984 0.0
C1182 C 0.49232 0.01016 0.73633 0.0
C1183 C 0.51136 0.04297 0.72252 0.0
C1184 C 0.50648 0.04553 0.68434 0.0
C1185 C 0.48232 0.01534 0.65932 0.0
C1186 C 0.46304 0.98256 0.6734 0.0
C1187 C 0.468 0.98004 0.71158 0.0
C1188 C 0.55932 0.02212 0.77132 0.0
C1189 C 0.58477 0.05838 0.7768 0.0
C1190 C 0.61285 0.07252 0.75563 0.0
C1191 C 0.61651 0.05053 0.72903 0.0
C1192 C 0.59113 0.01397 0.72385 0.0
C1193 C 0.56242 -0.00012 0.74467 0.0
C1194 C 0.5649 0.00495 0.84712 0.0
C1195 C 0.5906 0.03488 0.87132 0.0
C1196 C 0.6178 0.03416 0.89284 0.0
C1197 C 0.61963 0.0034 0.89062 0.0
C1198 C 0.5946 0.97398 0.86515 0.0
C1199 C 0.56758 0.97485 0.84343 0.0
C1200 C 0.51145 0.99496 0.89321 0.0
C1201 C 0.52021 0.02452 0.9182 0.0
C1202 C 0.53253 0.02692 0.95565 0.0
C1203 C 0.53718 0.00015 0.96868 0.0
C1204 C 0.52597 0.96936 0.94417 0.0
C1205 C 0.51298 0.96671 0.90669 0.0
C1206 C 0.4461 0.98695 0.86122 0.0
C1207 C 0.44463 0.01442 0.88061 0.0
C1208 C 0.42701 0.00834 0.91242 0.0
C1209 C 0.41062 0.97466 0.92502 0.0
C1210 C 0.40906 0.94652 0.90303 0.0
C1211 C 0.42673 0.95266 0.87149 0.0
C1212 C 0.47731 0.01812 0.61874 0.0
C1213 C 0.64717 0.00174 0.91504 0.0
H1214 H 0.92458 0.39162 0.57467 0.0
H1215 H 0.04163 0.72421 0.83086 0.0
H1216 H 0.93779 0.40871 0.77118 0.0
H1217 H 0.9325 0.35142 0.75853 0.0
H1218 H 0.04334 0.399 0.80142 0.0
H1219 H 0.04842 0.45644 0.81329 0.0
H1220 H 0.92839 0.45446 0.7236 0.0
H1221 H 0.91657 0.42617 0.65942 0.0
H1222 H 0.02633 0.45581 0.66476 0.0
H1223 H 0.03782 0.48416 0.72888 0.0
H1224 H 0.92614 0.50865 0.76589 0.0
H1225 H 0.90883 0.54526 0.73354 0.0
H1226 H 0.01112 0.60028 0.69357 0.0
H1227 H 0.02846 0.56383 0.72683 0.0
H1228 H 0.95206 0.5497 0.83827 0.0
H1229 H 0.9558 0.60667 0.84755 0.0
H1230 H 0.06152 0.65899 0.81538 0.0
H1231 H 0.05753 0.60185 0.80665 0.0
H1232 H 0.95934 0.51581 0.8892 0.0
H1233 H 0.97086 0.54249 0.95405 0.0
H1234 H 0.08332 0.58697 0.95232 0.0
H1235 H 0.07143 0.56084 0.88703 0.0
H1236 H 0.94085 0.43766 0.85533 0.0
H1237 H 0.92879 0.40662 0.91064 0.0
H1238 H 0.04142 0.45734 0.94594 0.0
H1239 H 0.05328 0.48897 0.88982 0.0
O1240 O 0.9299 0.40335 0.59988 0.0
O1241 O 0.98741 0.42284 0.6025 0.0
O1242 O 0.98735 0.67402 0.84928 0.0
O1243 O 0.0397 0.70144 0.82804 0.0
C1244 C -0.00319 0.4715 0.79988 0.0
C1245 C 0.99109 0.48797 0.76998 0.0
C1246 C 0.99183 0.51983 0.77779 0.0
C1247 C 0.00176 0.53706 0.81477 0.0
C1248 C 0.00746 0.52062 0.84442 0.0
C1249 C 0.0034 0.48711 0.83719 0.0
C1250 C 0.9936 0.43674 0.79258 0.0
C1251 C 0.96097 0.40678 0.77745 0.0
C1252 C 0.95801 0.37407 0.77044 0.0
C1253 C 0.98757 0.37073 0.77886 0.0
C1254 C 0.02011 0.40074 0.7946 0.0
C1255 C 0.02308 0.43352 0.80138 0.0
C1256 C 0.98404 0.47166 0.7307 0.0
C1257 C 0.94992 0.45515 0.7107 0.0
C1258 C 0.94321 0.43883 0.67413 0.0
C1259 C 0.97053 0.43878 0.65693 0.0
C1260 C 0.00472 0.45546 0.67712 0.0
C1261 C 0.01137 0.47169 0.71372 0.0
C1262 C 0.97857 0.53381 0.74875 0.0
C1263 C 0.94426 0.52766 0.74891 0.0
C1264 C 0.93449 0.54868 0.7306 0.0
C1265 C 0.95879 0.57585 0.7115 0.0
C1266 C 0.99182 0.57942 0.70803 0.0
C1267 C 0.00179 0.55863 0.72688 0.0
C1268 C 0.00474 0.5718 0.82236 0.0
C1269 C 0.9762 0.57358 0.83385 0.0
C1270 C 0.97833 0.60612 0.83889 0.0
C1271 C 0.00901 0.63741 0.83228 0.0
C1272 C 0.03755 0.63543 0.82077 0.0
C1273 C 0.03542 0.60288 0.81591 0.0
C1274 C 0.01463 0.53699 0.88347 0.0
C1275 C 0.98645 0.53165 0.9028 0.0
C1276 C 0.99308 0.54673 0.93981 0.0
C1277 C 0.02801 0.56683 0.95823 0.0
C1278 C 0.05614 0.57151 0.9389 0.0
C1279 C 0.04948 0.55684 0.90165 0.0
C1280 C -0.00214 0.46537 0.86853 0.0
C1281 C 0.96296 0.44172 0.87468 0.0
C1282 C 0.95618 0.4243 0.90656 0.0
C1283 C 0.98419 0.42989 0.93298 0.0
C1284 C 0.01935 0.45263 0.92613 0.0
C1285 C 0.02615 0.47054 0.89414 0.0
C1286 C 0.96327 0.42124 0.61816 0.0
C1287 C 0.01123 0.67197 0.8371 0.0
H1288 H 0.4581 0.50103 0.56768 0.0
H1289 H 0.69899 0.67171 0.97369 0.0
H1290 H 0.40403 0.45049 0.76706 0.0
H1291 H 0.37698 0.38744 0.74416 0.0
H1292 H 0.47851 0.39679 0.77113 0.0
H1293 H 0.50472 0.45884 0.79385 0.0
H1294 H 0.46213 0.53594 0.72768 0.0
H1295 H 0.4542 0.5255 0.65922 0.0
H1296 H 0.52046 0.48048 0.66557 0.0
H1297 H 0.5279 0.49077 0.7339 0.0
H1298 H 0.5563 0.60429 0.75271 0.0
H1299 H 0.60805 0.6254 0.71806 0.0
H1300 H 0.62851 0.54841 0.7625 0.0
H1301 H 0.57819 0.52867 0.79757 0.0
H1302 H 0.55885 0.62613 0.84857 0.0
H1303 H 0.61012 0.67151 0.89192 0.0
H1304 H 0.6385 0.59448 0.91669 0.0
H1305 H 0.5873 0.54949 0.87318 0.0
H1306 H 0.51833 0.58352 0.91306 0.0
H1307 H 0.54217 0.58847 0.97849 0.0
H1308 H 0.53552 0.48833 0.95509 0.0
H1309 H 0.51407 0.48486 0.89018 0.0
H1310 H 0.43363 0.52322 0.86626 0.0
H1311 H 0.39831 0.49722 0.91663 0.0
H1312 H 0.41724 0.41105 0.90551 0.0
H1313 H 0.45277 0.43744 0.85518 0.0
O1314 O 0.46165 0.50496 0.59476 0.0
O1315 O 0.49649 0.48272 0.59951 0.0
O1316 O 0.66421 0.69347 0.94102 0.0
O1317 O 0.67904 0.65448 0.95578 0.0
C1318 C 0.47395 0.49653 0.79712 0.0
C1319 C 0.50029 0.52117 0.77725 0.0
C1320 C 0.53192 0.54994 0.79698 0.0
C1321 C 0.53538 0.55611 0.83637 0.0
C1322 C 0.50719 0.53338 0.85584 0.0
C1323 C 0.47574 0.50449 0.83587 0.0
C1324 C 0.4562 0.45899 0.78191 0.0
C1325 C 0.42019 0.43872 0.76774 0.0
C1326 C 0.40494 0.40285 0.75474 0.0
C1327 C 0.42565 0.38712 0.75594 0.0
C1328 C 0.46182 0.40797 0.76966 0.0
C1329 C 0.47683 0.44343 0.78267 0.0
C1330 C 0.49588 0.5145 0.73575 0.0
C1331 C 0.47493 0.52386 0.7142 0.0
C1332 C 0.47045 0.51787 0.67511 0.0
C1333 C 0.4868 0.50228 0.65689 0.0
C1334 C 0.50761 0.49268 0.67868 0.0
C1335 C 0.51201 0.49865 0.71775 0.0
C1336 C 0.56409 0.56548 0.77805 0.0
C1337 C 0.57235 0.59244 0.75513 0.0
C1338 C 0.60145 0.60404 0.73509 0.0
C1339 C 0.6218 0.58804 0.73713 0.0
C1340 C 0.61296 0.56077 0.75982 0.0
C1341 C 0.58466 0.54992 0.78039 0.0
C1342 C 0.56941 0.58461 0.8578 0.0
C1343 C 0.57656 0.61932 0.86289 0.0
C1344 C 0.60563 0.64506 0.88793 0.0
C1345 C 0.62805 0.63643 0.90824 0.0
C1346 C 0.62154 0.6019 0.90187 0.0
C1347 C 0.59252 0.57624 0.87678 0.0
C1348 C 0.51431 0.53376 0.8969 0.0
C1349 C 0.52134 0.56239 0.92246 0.0
C1350 C 0.53481 0.56505 0.95979 0.0
C1351 C 0.54095 0.53887 0.97197 0.0
C1352 C 0.5311 0.50895 0.94683 0.0
C1353 C 0.51852 0.50675 0.90962 0.0
C1354 C 0.44583 0.48234 0.8569 0.0
C1355 C 0.42898 0.49798 0.87365 0.0
C1356 C 0.40903 0.4832 0.90269 0.0
C1357 C 0.40559 0.45245 0.91561 0.0
C1358 C 0.41948 0.43482 0.89629 0.0
C1359 C 0.43957 0.44973 0.86717 0.0
C1360 C 0.48204 0.49601 0.61536 0.0
C1361 C 0.65812 0.66326 0.93597 0.0
H1362 H 0.66545 0.91554 0.83961 0.0
H1363 H 0.66524 0.62074 0.57559 0.0
H1364 H 0.60854 0.86535 0.60604 0.0
H1365 H 0.61401 0.92299 0.61798 0.0
H1366 H 0.72484 0.97001 0.66049 0.0
H1367 H 0.71917 0.91252 0.64772 0.0
H1368 H 0.61662 0.83732 0.68937 0.0
H1369 H 0.62676 0.8673 0.75234 0.0
H1370 H 0.73695 0.89788 0.76142 0.0
H1371 H 0.7265 0.86814 0.69827 0.0
H1372 H 0.62413 0.75376 0.69048 0.0
H1373 H 0.6419 0.71872 0.72589 0.0
H1374 H 0.74799 0.78107 0.69634 0.0
H1375 H 0.73018 0.81633 0.66186 0.0
H1376 H 0.59362 0.71941 0.60248 0.0
H1377 H 0.58683 0.66099 0.59334 0.0
H1378 H 0.69945 0.71109 0.5878 0.0
H1379 H 0.70576 0.76926 0.59684 0.0
H1380 H 0.58757 0.76876 0.52921 0.0
H1381 H 0.57696 0.74329 0.4639 0.0
H1382 H 0.68561 0.7688 0.47193 0.0
H1383 H 0.696 0.79486 0.53678 0.0
H1384 H 0.60652 0.83908 0.53318 0.0
H1385 H 0.62037 0.87112 0.4774 0.0
H1386 H 0.73123 0.90722 0.50667 0.0
H1387 H 0.71719 0.8758 0.56166 0.0
O1388 O 0.66193 0.90347 0.81496 0.0
O1389 O 0.71855 0.9193 0.81784 0.0
O1390 O 0.60988 0.61913 0.58464 0.0
O1391 O 0.66721 0.64349 0.57929 0.0
C1392 C 0.65971 0.84976 0.61997 0.0
C1393 C 0.66456 0.83347 0.65054 0.0
C1394 C 0.66357 0.80135 0.64372 0.0
C1395 C 0.65408 0.78369 0.60696 0.0
C1396 C 0.64912 0.79991 0.57661 0.0
C1397 C 0.65369 0.83374 0.58299 0.0
C1398 C 0.66336 0.88479 0.62642 0.0
C1399 C 0.63399 0.88822 0.61773 0.0
C1400 C 0.63718 0.9211 0.62461 0.0
C1401 C 0.6698 0.95099 0.6404 0.0
C1402 C 0.69928 0.94745 0.64856 0.0
C1403 C 0.69611 0.91465 0.64141 0.0
C1404 C 0.67069 0.85015 0.68948 0.0
C1405 C 0.64285 0.85029 0.70514 0.0
C1406 C 0.64875 0.86749 0.74108 0.0
C1407 C 0.68266 0.88494 0.76197 0.0
C1408 C 0.71048 0.8846 0.74616 0.0
C1409 C 0.70454 0.86739 0.7102 0.0
C1410 C 0.6759 0.78748 0.67374 0.0
C1411 C 0.65156 0.76082 0.69318 0.0
C1412 C 0.66179 0.74086 0.7133 0.0
C1413 C 0.69626 0.74702 0.71343 0.0
C1414 C 0.72128 0.77573 0.69656 0.0
C1415 C 0.71119 0.79597 0.67706 0.0
C1416 C 0.65012 0.74844 0.60024 0.0
C1417 C 0.61672 0.71765 0.59911 0.0
C1418 C 0.61296 0.68436 0.59399 0.0
C1419 C 0.64262 0.68137 0.58984 0.0
C1420 C 0.67607 0.71242 0.59084 0.0
C1421 C 0.67976 0.74567 0.59598 0.0
C1422 C 0.64236 0.78311 0.53772 0.0
C1423 C 0.60895 0.76868 0.51676 0.0
C1424 C 0.60304 0.75432 0.47949 0.0
C1425 C 0.63044 0.754 0.46276 0.0
C1426 C 0.6639 0.76849 0.48402 0.0
C1427 C 0.66985 0.78315 0.52112 0.0
C1428 C 0.66096 0.8554 0.55142 0.0
C1429 C 0.63377 0.85438 0.52757 0.0
C1430 C 0.6417 0.8725 0.49575 0.0
C1431 C 0.67683 0.89139 0.48735 0.0
C1432 C 0.70383 0.89266 0.51194 0.0
C1433 C 0.69597 0.87498 0.54362 0.0
C1434 C 0.68893 0.90362 0.79993 0.0
C1435 C 0.63878 0.64608 0.58447 0.0
H1436 H 0.16423 0.84256 0.84643 0.0
H1437 H 0.96666 0.60926 0.45605 0.0
H1438 H 0.15256 0.86207 0.62594 0.0
H1439 H 0.18129 0.92435 0.64873 0.0
H1440 H 0.28206 0.93066 0.66763 0.0
H1441 H 0.25233 0.86712 0.64497 0.0
H1442 H 0.12973 0.83051 0.68428 0.0
H1443 H 0.1384 0.8403 0.75265 0.0
H1444 H 0.20125 0.7915 0.75575 0.0
H1445 H 0.19211 0.78159 0.68721 0.0
H1446 H 0.07742 0.79307 0.62281 0.0
H1447 H 0.03015 0.77568 0.66198 0.0
H1448 H 0.04948 0.69649 0.70203 0.0
H1449 H 0.09835 0.71542 0.66347 0.0
H1450 H 0.0673 0.77311 0.54494 0.0
H1451 H 0.01566 0.72973 0.50079 0.0
H1452 H 0.04033 0.64972 0.52358 0.0
H1453 H 0.09201 0.69347 0.56754 0.0
H1454 H 0.14125 0.83513 0.52536 0.0
H1455 H 0.12124 0.83223 0.46012 0.0
H1456 H 0.11029 0.72994 0.43799 0.0
H1457 H 0.13297 0.73439 0.50379 0.0
H1458 H 0.20285 0.88169 0.56145 0.0
H1459 H 0.23812 0.90761 0.51084 0.0
H1460 H 0.25326 0.81905 0.49728 0.0
H1461 H 0.21828 0.79357 0.54803 0.0
O1462 O 0.16109 0.83839 0.81938 0.0
O1463 O 0.19329 0.81318 0.81941 0.0
O1464 O 0.97641 0.6695 0.4615 0.0
O1465 O 0.98617 0.62662 0.47431 0.0
C1466 C 0.18099 0.82245 0.61893 0.0
C1467 C 0.15464 0.79841 0.6392 0.0
C1468 C 0.12231 0.7702 0.61992 0.0
C1469 C 0.11798 0.764 0.58046 0.0
C1470 C 0.14618 0.7859 0.56051 0.0
C1471 C 0.1783 0.81425 0.58008 0.0
C1472 C 0.20036 0.86012 0.63431 0.0
C1473 C 0.1808 0.87677 0.63553 0.0
C1474 C 0.19728 0.91242 0.64848 0.0
C1475 C 0.23393 0.93246 0.66005 0.0
C1476 C 0.2537 0.91578 0.65892 0.0
C1477 C 0.23692 0.87965 0.64608 0.0
C1478 C 0.16 0.80498 0.68077 0.0
C1479 C 0.14518 0.82174 0.69971 0.0
C1480 C 0.15027 0.82741 0.73882 0.0
C1481 C 0.17043 0.81659 0.75971 0.0
C1482 C 0.1855 0.80009 0.74054 0.0
C1483 C 0.18035 0.79441 0.70142 0.0
C1484 C 0.09082 0.7551 0.63996 0.0
C1485 C 0.07129 0.77179 0.63984 0.0
C1486 C 0.04482 0.76232 0.66282 0.0
C1487 C 0.03665 0.73523 0.68562 0.0
C1488 C 0.05565 0.71781 0.68506 0.0
C1489 C 0.08304 0.72811 0.66272 0.0
C1490 C 0.08331 0.73637 0.55942 0.0
C1491 C 0.0611 0.74603 0.54085 0.0
C1492 C 0.03187 0.72131 0.51536 0.0
C1493 C 0.02423 0.6864 0.50819 0.0
C1494 C 0.04568 0.67646 0.52816 0.0
C1495 C 0.07497 0.70127 0.55361 0.0
C1496 C 0.13893 0.78516 0.51936 0.0
C1497 C 0.13615 0.81282 0.50617 0.0
C1498 C 0.12443 0.81096 0.46873 0.0
C1499 C 0.11387 0.78071 0.44377 0.0
C1500 C 0.11831 0.75366 0.4565 0.0
C1501 C 0.13104 0.75602 0.49407 0.0
C1502 C 0.208 0.83569 0.55857 0.0
C1503 C 0.21519 0.86874 0.54884 0.0
C1504 C 0.23509 0.88336 0.51955 0.0
C1505 C 0.24783 0.86498 0.49951 0.0
C1506 C 0.24342 0.83364 0.51179 0.0
C1507 C 0.22368 0.81916 0.54104 0.0
C1508 C 0.17571 0.82255 0.80127 0.0
C1509 C -0.00586 0.66045 0.47992 0.0
H1510 H 0.18407 0.31552 0.86082 0.0
H1511 H 0.97624 0.30449 0.47677 0.0
H1512 H 0.24773 0.37225 0.68139 0.0
H1513 H 0.28854 0.36158 0.71977 0.0
H1514 H 0.24314 0.25875 0.65595 0.0
H1515 H 0.20203 0.26949 0.61835 0.0
H1516 H 0.17818 0.36315 0.71412 0.0
H1517 H 0.18267 0.35291 0.77972 0.0
H1518 H 0.1632 0.2489 0.74416 0.0
H1519 H 0.15834 0.25937 0.67868 0.0
H1520 H 0.10907 0.3538 0.67367 0.0
H1521 H 0.05709 0.32804 0.70781 0.0
H1522 H 0.04044 0.224 0.6792 0.0
H1523 H 0.09165 0.24987 0.64513 0.0
H1524 H 0.12023 0.37904 0.60387 0.0
H1525 H 0.07359 0.38266 0.5672 0.0
H1526 H 0.02717 0.27418 0.51844 0.0
H1527 H 0.07419 0.27104 0.55517 0.0
H1528 H 0.15979 0.38428 0.5411 0.0
H1529 H 0.13563 0.37923 0.47583 0.0
H1530 H 0.12127 0.27525 0.45615 0.0
H1531 H 0.14325 0.2798 0.5213 0.0
H1532 H 0.23869 0.39479 0.57437 0.0
H1533 H 0.26996 0.40568 0.51948 0.0
H1534 H 0.23251 0.29417 0.49891 0.0
H1535 H 0.20109 0.28361 0.55392 0.0
O1536 O 0.18225 0.31903 0.8347 0.0
O1537 O 0.17286 0.26608 0.815 0.0
O1538 O 0.02095 0.3597 0.51608 0.0
O1539 O -0.00564 0.30327 0.49218 0.0
C1540 C 0.1926 0.32472 0.62995 0.0
C1541 C 0.16546 0.31867 0.65201 0.0
C1542 C 0.13503 0.31811 0.63629 0.0
C1543 C 0.13226 0.32512 0.59904 0.0
C1544 C 0.15928 0.33108 0.57685 0.0
C1545 C 0.18953 0.33092 0.59228 0.0
C1546 C 0.22258 0.32203 0.64649 0.0
C1547 C 0.24733 0.34785 0.67512 0.0
C1548 C 0.27011 0.34139 0.69743 0.0
C1549 C 0.26864 0.30904 0.69129 0.0
C1550 C 0.24474 0.28381 0.66158 0.0
C1551 C 0.22179 0.29021 0.63948 0.0
C1552 C 0.16833 0.31217 0.69174 0.0
C1553 C 0.17493 0.3382 0.72061 0.0
C1554 C 0.17749 0.33227 0.75803 0.0
C1555 C 0.17341 0.30013 0.76721 0.0
C1556 C 0.16661 0.274 0.73809 0.0
C1557 C 0.16396 0.27995 0.70068 0.0
C1558 C 0.10368 0.30356 0.65665 0.0
C1559 C 0.09399 0.32548 0.67484 0.0
C1560 C 0.06459 0.31075 0.69458 0.0
C1561 C 0.04467 0.27396 0.69631 0.0
C1562 C 0.05518 0.25241 0.67862 0.0
C1563 C 0.08427 0.26707 0.65887 0.0
C1564 C 0.10045 0.32477 0.58222 0.0
C1565 C 0.09954 0.35588 0.58585 0.0
C1566 C 0.07311 0.35798 0.56455 0.0
C1567 C 0.04699 0.32887 0.53944 0.0
C1568 C 0.04706 0.29717 0.53726 0.0
C1569 C 0.07365 0.29517 0.55845 0.0
C1570 C 0.15307 0.3323 0.53597 0.0
C1571 C 0.15208 0.36079 0.52233 0.0
C1572 C 0.13841 0.3579 0.48504 0.0
C1573 C 0.12613 0.32668 0.46083 0.0
C1574 C 0.13032 0.29966 0.47392 0.0
C1575 C 0.14316 0.30226 0.51122 0.0
C1576 C 0.21775 0.33847 0.56833 0.0
C1577 C 0.23853 0.37297 0.55899 0.0
C1578 C 0.25604 0.37904 0.52727 0.0
C1579 C 0.25301 0.35063 0.50423 0.0
C1580 C 0.23515 0.31659 0.51585 0.0
C1581 C 0.21756 0.31055 0.54765 0.0
C1582 C 0.17614 0.29392 0.807 0.0
C1583 C 0.0201 0.33169 0.51522 0.0
loop_
_geom_bond_atom_site_label_1
_geom_bond_atom_site_label_2
_geom_bond_distance
_geom_bond_site_symmetry_2
_ccdc_geom_bond_type
Zn0 O3 2.031 1_554 S
Zn0 O5 2.049 . S
Zn0 O10 2.067 1_554 S
Zn1 O2 1.962 1_455 S
Zn1 O4 1.986 . S
Zn1 O6 1.996 1_455 S
Zn1 O9 1.943 . S
O2 Zn1 1.962 1_655 S
O2 C7 1.254 1_554 S
O3 Zn0 2.031 1_556 S
O3 C7 1.269 . S
O4 Zn1 1.986 . S
O4 C11 1.262 . S
O5 Zn0 2.049 . S
O5 C13 1.260 . S
O6 Zn1 1.996 1_655 S
O6 C13 1.257 . S
C7 O2 1.254 1_556 S
C7 O3 1.269 . S
C8 O9 1.249 1_556 S
C8 O10 1.270 1_455 S
O9 Zn1 1.943 . S
O9 C8 1.249 1_554 S
O10 Zn0 2.067 1_556 S
O10 C8 1.270 1_655 S
C11 O4 1.262 . S
C11 O12 1.232 . S
O12 C11 1.232 . S
C13 O5 1.260 . S
C13 O6 1.257 . S
Zn14 O17 2.031 . S
Zn14 O19 2.049 . S
Zn14 O24 2.067 . S
Zn15 O16 1.962 . S
Zn15 O18 1.986 . S
Zn15 O20 1.996 . S
Zn15 O23 1.943 . S
O16 Zn15 1.962 . S
O16 C21 1.254 . S
O17 Zn14 2.031 . S
O17 C21 1.269 . S
O18 Zn15 1.986 . S
O18 C25 1.262 . S
O19 Zn14 2.049 . S
O19 C27 1.260 . S
O20 Zn15 1.996 . S
O20 C27 1.257 . S
C21 O16 1.254 . S
C21 O17 1.269 . S
C22 O23 1.249 . S
C22 O24 1.270 . S
O23 Zn15 1.943 . S
O23 C22 1.249 . S
O24 Zn14 2.067 . S
O24 C22 1.270 . S
C25 O18 1.262 . S
C25 O26 1.232 . S
O26 C25 1.232 . S
C27 O19 1.260 . S
C27 O20 1.257 . S
Zn28 O31 2.031 . S
Zn28 O33 2.049 1_554 S
Zn28 O38 2.067 . S
Zn29 O30 1.962 1_545 S
Zn29 O32 1.986 1_554 S
Zn29 O34 1.996 1_544 S
Zn29 O37 1.943 . S
O30 Zn29 1.962 1_565 S
O30 C35 1.254 . S
O31 Zn28 2.031 . S
O31 C35 1.269 . S
O32 Zn29 1.986 1_556 S
O32 C39 1.262 1_556 S
O33 Zn28 2.049 1_556 S
O33 C41 1.260 . S
O34 Zn29 1.996 1_566 S
O34 C41 1.257 . S
C35 O30 1.254 . S
C35 O31 1.269 . S
C36 O37 1.249 . S
C36 O38 1.270 1_545 S
O37 Zn29 1.943 . S
O37 C36 1.249 . S
O38 Zn28 2.067 . S
O38 C36 1.270 1_565 S
C39 O32 1.262 1_554 S
C39 O40 1.232 . S
O40 C39 1.232 . S
C41 O33 1.260 . S
C41 O34 1.257 . S
Zn42 O45 2.031 . S
Zn42 O47 2.049 . S
Zn42 O52 2.067 . S
Zn43 O44 1.962 1_655 S
Zn43 O46 1.986 . S
Zn43 O48 1.996 1_655 S
Zn43 O51 1.943 . S
O44 Zn43 1.962 1_455 S
O44 C49 1.254 . S
O45 Zn42 2.031 . S
O45 C49 1.269 . S
O46 Zn43 1.986 . S
O46 C53 1.262 . S
O47 Zn42 2.049 . S
O47 C55 1.260 . S
O48 Zn43 1.996 1_455 S
O48 C55 1.257 . S
C49 O44 1.254 . S
C49 O45 1.269 . S
C50 O51 1.249 . S
C50 O52 1.270 1_655 S
O51 Zn43 1.943 . S
O51 C50 1.249 . S
O52 Zn42 2.067 . S
O52 C50 1.270 1_455 S
C53 O46 1.262 . S
C53 O54 1.232 . S
O54 C53 1.232 . S
C55 O47 1.260 . S
C55 O48 1.257 . S
Zn56 O59 2.031 . S
Zn56 O61 2.049 1_554 S
Zn56 O66 2.067 . S
Zn57 O58 1.957 1_556 S
Zn57 O60 1.997 . S
Zn57 O62 2.005 . S
Zn57 O65 1.932 1_556 S
O58 Zn57 1.957 1_554 S
O58 C63 1.254 . S
O59 Zn56 2.031 . S
O59 C63 1.269 . S
O60 Zn57 1.997 . S
O60 C67 1.262 . S
O61 Zn56 2.049 1_556 S
O61 C69 1.260 . S
O62 Zn57 2.005 . S
O62 C69 1.257 . S
C63 O58 1.254 . S
C63 O59 1.269 . S
C64 O65 1.249 . S
C64 O66 1.270 . S
O65 Zn57 1.932 1_554 S
O65 C64 1.249 . S
O66 Zn56 2.067 . S
O66 C64 1.270 . S
C67 O60 1.262 . S
C67 O68 1.232 1_556 S
O68 C67 1.232 1_554 S
C69 O61 1.260 . S
C69 O62 1.257 . S
Zn70 O73 2.031 . S
Zn70 O75 2.049 . S
Zn70 O80 2.067 . S
Zn71 O72 1.962 1_565 S
Zn71 O74 1.986 . S
Zn71 O76 1.996 1_565 S
Zn71 O79 1.943 . S
O72 Zn71 1.962 1_545 S
O72 C77 1.254 . S
O73 Zn70 2.031 . S
O73 C77 1.269 . S
O74 Zn71 1.986 . S
O74 C81 1.262 . S
O75 Zn70 2.049 . S
O75 C83 1.260 . S
O76 Zn71 1.996 1_545 S
O76 C83 1.257 . S
C77 O72 1.254 . S
C77 O73 1.269 . S
C78 O79 1.249 . S
C78 O80 1.270 1_565 S
O79 Zn71 1.943 . S
O79 C78 1.249 . S
O80 Zn70 2.067 . S
O80 C78 1.270 1_545 S
C81 O74 1.262 . S
C81 O82 1.232 . S
O82 C81 1.232 . S
C83 O75 1.260 . S
C83 O76 1.257 . S
Zn84 O87 2.031 . S
Zn84 O89 2.049 . S
Zn84 O94 2.067 . S
Zn85 O86 1.962 . S
Zn85 O88 1.986 . S
Zn85 O90 1.996 . S
Zn85 O93 1.943 . S
O86 Zn85 1.962 . S
O86 C91 1.254 . S
O87 Zn84 2.031 . S
O87 C91 1.269 . S
O88 Zn85 1.986 . S
O88 C95 1.262 . S
O89 Zn84 2.049 . S
O89 C97 1.260 . S
O90 Zn85 1.996 . S
O90 C97 1.257 . S
C91 O86 1.254 . S
C91 O87 1.269 . S
C92 O93 1.249 . S
C92 O94 1.270 . S
O93 Zn85 1.943 . S
O93 C92 1.249 . S
O94 Zn84 2.067 . S
O94 C92 1.270 . S
C95 O88 1.262 . S
C95 O96 1.232 . S
O96 C95 1.232 . S
C97 O89 1.260 . S
C97 O90 1.257 . S
Zn98 O101 2.031 . S
Zn98 O103 2.049 . S
Zn98 O108 2.067 . S
Zn99 O100 1.962 . S
Zn99 O102 1.986 . S
Zn99 O104 1.996 . S
Zn99 O107 1.943 . S
O100 Zn99 1.962 . S
O100 C105 1.254 . S
O101 Zn98 2.031 . S
O101 C105 1.269 . S
O102 Zn99 1.986 . S
O102 C109 1.262 1_565 S
O103 Zn98 2.049 . S
O103 C111 1.260 . S
O104 Zn99 1.996 . S
O104 C111 1.257 . S
C105 O100 1.254 . S
C105 O101 1.269 . S
C106 O107 1.249 . S
C106 O108 1.270 . S
O107 Zn99 1.943 . S
O107 C106 1.249 . S
O108 Zn98 2.067 . S
O108 C106 1.270 . S
C109 O102 1.262 1_545 S
C109 O110 1.232 . S
O110 C109 1.232 . S
C111 O103 1.260 . S
C111 O104 1.257 . S
Zn112 O115 2.031 . S
Zn112 O117 2.049 . S
Zn112 O122 2.067 . S
Zn113 O114 1.962 . S
Zn113 O116 1.986 . S
Zn113 O118 1.996 . S
Zn113 O121 1.943 . S
O114 Zn113 1.962 . S
O114 C119 1.254 . S
O115 Zn112 2.031 . S
O115 C119 1.269 . S
O116 Zn113 1.986 . S
O116 C123 1.262 . S
O117 Zn112 2.049 . S
O117 C125 1.260 . S
O118 Zn113 1.996 . S
O118 C125 1.257 . S
C119 O114 1.254 . S
C119 O115 1.269 . S
C120 O121 1.249 . S
C120 O122 1.270 . S
O121 Zn113 1.943 . S
O121 C120 1.249 . S
O122 Zn112 2.067 . S
O122 C120 1.270 . S
C123 O116 1.262 . S
C123 O124 1.232 . S
O124 C123 1.232 . S
C125 O117 1.260 . S
C125 O118 1.257 . S
Zn126 O129 2.031 . S
Zn126 O131 2.049 . S
Zn126 O136 2.067 . S
Zn127 O128 1.962 1_565 S
Zn127 O130 1.986 . S
Zn127 O132 1.996 . S
Zn127 O135 1.943 . S
O128 Zn127 1.962 1_545 S
O128 C133 1.254 . S
O129 Zn126 2.031 . S
O129 C133 1.269 1_565 S
O130 Zn127 1.986 . S
O130 C137 1.262 . S
O131 Zn126 2.049 . S
O131 C139 1.260 . S
O132 Zn127 1.996 . S
O132 C139 1.257 . S
C133 O128 1.254 . S
C133 O129 1.269 1_545 S
C134 O135 1.249 . S
C134 O136 1.270 . S
O135 Zn127 1.943 . S
O135 C134 1.249 . S
O136 Zn126 2.067 . S
O136 C134 1.270 . S
C137 O130 1.262 . S
C137 O138 1.232 . S
O138 C137 1.232 . S
C139 O131 1.260 . S
C139 O132 1.257 . S
Zn140 O143 2.031 . S
Zn140 O145 2.049 . S
Zn140 O150 2.067 . S
Zn141 O142 1.962 1_455 S
Zn141 O144 1.986 . S
Zn141 O146 1.996 . S
Zn141 O149 1.943 . S
O142 Zn141 1.962 1_655 S
O142 C147 1.254 . S
O143 Zn140 2.031 . S
O143 C147 1.269 1_455 S
O144 Zn141 1.986 . S
O144 C151 1.262 . S
O145 Zn140 2.049 . S
O145 C153 1.260 . S
O146 Zn141 1.996 . S
O146 C153 1.257 . S
C147 O142 1.254 . S
C147 O143 1.269 1_655 S
C148 O149 1.249 . S
C148 O150 1.270 . S
O149 Zn141 1.943 . S
O149 C148 1.249 . S
O150 Zn140 2.067 . S
O150 C148 1.270 . S
C151 O144 1.262 . S
C151 O152 1.232 . S
O152 C151 1.232 . S
C153 O145 1.260 . S
C153 O146 1.257 . S
Zn154 O157 2.031 . S
Zn154 O159 2.049 . S
Zn154 O164 2.067 . S
Zn155 O156 1.962 . S
Zn155 O158 1.986 . S
Zn155 O160 1.996 . S
Zn155 O163 1.943 . S
O156 Zn155 1.962 . S
O156 C161 1.254 . S
O157 Zn154 2.031 . S
O157 C161 1.269 . S
O158 Zn155 1.986 . S
O158 C165 1.262 . S
O159 Zn154 2.049 . S
O159 C167 1.260 . S
O160 Zn155 1.996 . S
O160 C167 1.257 . S
C161 O156 1.254 . S
C161 O157 1.269 . S
C162 O163 1.249 . S
C162 O164 1.270 . S
O163 Zn155 1.943 . S
O163 C162 1.249 . S
O164 Zn154 2.067 . S
O164 C162 1.270 . S
C165 O158 1.262 . S
C165 O166 1.232 . S
O166 C165 1.232 . S
C167 O159 1.260 . S
C167 O160 1.257 . S
Zn168 O171 2.031 . S
Zn168 O173 2.049 . S
Zn168 O178 2.067 . S
Zn169 O170 1.962 1_545 S
Zn169 O172 1.986 . S
Zn169 O174 1.996 . S
Zn169 O177 1.943 . S
O170 Zn169 1.962 1_565 S
O170 C175 1.254 . S
O171 Zn168 2.031 . S
O171 C175 1.269 1_545 S
O172 Zn169 1.986 . S
O172 C179 1.262 . S
O173 Zn168 2.049 . S
O173 C181 1.260 . S
O174 Zn169 1.996 . S
O174 C181 1.257 . S
C175 O170 1.254 . S
C175 O171 1.269 1_565 S
C176 O177 1.249 . S
C176 O178 1.270 . S
O177 Zn169 1.943 . S
O177 C176 1.249 . S
O178 Zn168 2.067 . S
O178 C176 1.270 . S
C179 O172 1.262 . S
C179 O180 1.232 . S
O180 C179 1.232 . S
C181 O173 1.260 . S
C181 O174 1.257 . S
Zn182 O185 2.031 . S
Zn182 O187 2.049 . S
Zn182 O192 2.067 . S
Zn183 O184 1.962 1_655 S
Zn183 O186 1.986 . S
Zn183 O188 1.996 . S
Zn183 O191 1.943 . S
O184 Zn183 1.962 1_455 S
O184 C189 1.254 . S
O185 Zn182 2.031 . S
O185 C189 1.269 1_655 S
O186 Zn183 1.986 . S
O186 C193 1.262 . S
O187 Zn182 2.049 . S
O187 C195 1.260 . S
O188 Zn183 1.996 . S
O188 C195 1.257 . S
C189 O184 1.254 . S
C189 O185 1.269 1_455 S
C190 O191 1.249 . S
C190 O192 1.270 . S
O191 Zn183 1.943 . S
O191 C190 1.249 . S
O192 Zn182 2.067 . S
O192 C190 1.270 . S
C193 O186 1.262 . S
C193 O194 1.232 . S
O194 C193 1.232 . S
C195 O187 1.260 . S
C195 O188 1.257 . S
Zn196 O199 2.031 . S
Zn196 O201 2.049 . S
Zn196 O206 2.067 . S
Zn197 O198 1.962 . S
Zn197 O200 1.986 . S
Zn197 O202 1.996 . S
Zn197 O205 1.943 . S
O198 Zn197 1.962 . S
O198 C203 1.254 . S
O199 Zn196 2.031 . S
O199 C203 1.269 . S
O200 Zn197 1.986 . S
O200 C207 1.262 . S
O201 Zn196 2.049 . S
O201 C209 1.260 . S
O202 Zn197 1.996 . S
O202 C209 1.257 . S
C203 O198 1.254 . S
C203 O199 1.269 . S
C204 O205 1.249 . S
C204 O206 1.270 . S
O205 Zn197 1.943 . S
O205 C204 1.249 . S
O206 Zn196 2.067 . S
O206 C204 1.270 . S
C207 O200 1.262 . S
C207 O208 1.232 . S
O208 C207 1.232 . S
C209 O201 1.260 . S
C209 O202 1.257 . S
Zn210 O213 2.031 . S
Zn210 O215 2.049 . S
Zn210 O220 2.067 . S
Zn211 O212 1.962 . S
Zn211 O214 1.986 . S
Zn211 O216 1.996 . S
Zn211 O219 1.943 . S
O212 Zn211 1.962 . S
O212 C217 1.254 . S
O213 Zn210 2.031 . S
O213 C217 1.269 . S
O214 Zn211 1.986 . S
O214 C221 1.262 . S
O215 Zn210 2.049 . S
O215 C223 1.260 . S
O216 Zn211 1.996 . S
O216 C223 1.257 . S
C217 O212 1.254 . S
C217 O213 1.269 . S
C218 O219 1.249 . S
C218 O220 1.270 . S
O219 Zn211 1.943 . S
O219 C218 1.249 . S
O220 Zn210 2.067 . S
O220 C218 1.270 . S
C221 O214 1.262 . S
C221 O222 1.232 . S
O222 C221 1.232 . S
C223 O215 1.260 . S
C223 O216 1.257 . S
Zn224 O227 2.031 . S
Zn224 O229 2.049 . S
Zn224 O234 2.067 . S
Zn225 O226 1.962 . S
Zn225 O228 1.986 . S
Zn225 O230 1.996 . S
Zn225 O233 1.943 . S
O226 Zn225 1.962 . S
O226 C231 1.254 . S
O227 Zn224 2.031 . S
O227 C231 1.269 . S
O228 Zn225 1.986 . S
O228 C235 1.262 1_545 S
O229 Zn224 2.049 . S
O229 C237 1.260 . S
O230 Zn225 1.996 . S
O230 C237 1.257 . S
C231 O226 1.254 . S
C231 O227 1.269 . S
C232 O233 1.249 . S
C232 O234 1.270 . S
O233 Zn225 1.943 . S
O233 C232 1.249 . S
O234 Zn224 2.067 . S
O234 C232 1.270 . S
C235 O228 1.262 1_565 S
C235 O236 1.232 . S
O236 C235 1.232 . S
C237 O229 1.260 . S
C237 O230 1.257 . S
Zn238 O241 2.031 . S
Zn238 O243 2.049 . S
Zn238 O248 2.067 . S
Zn239 O240 1.962 1_655 S
Zn239 O242 1.986 . S
Zn239 O244 1.996 . S
Zn239 O247 1.943 . S
O240 Zn239 1.962 1_455 S
O240 C245 1.254 . S
O241 Zn238 2.031 . S
O241 C245 1.269 1_655 S
O242 Zn239 1.986 . S
O242 C249 1.262 . S
O243 Zn238 2.049 . S
O243 C251 1.260 . S
O244 Zn239 1.996 . S
O244 C251 1.257 . S
C245 O240 1.254 . S
C245 O241 1.269 1_455 S
C246 O247 1.249 . S
C246 O248 1.270 . S
O247 Zn239 1.943 . S
O247 C246 1.249 . S
O248 Zn238 2.067 . S
O248 C246 1.270 . S
C249 O242 1.262 . S
C249 O250 1.232 . S
O250 C249 1.232 . S
C251 O243 1.260 . S
C251 O244 1.257 . S
H252 O278 0.856 . S
H253 O281 0.854 . S
H254 C289 0.930 . S
H255 C290 0.930 . S
H256 C292 0.930 . S
H257 C293 0.930 . S
H258 C295 0.931 . S
H259 C296 0.930 . S
H260 C298 0.930 . S
H261 C299 0.929 . S
H262 C301 0.930 . S
H263 C302 0.931 . S
H264 C304 0.930 . S
H265 C305 0.929 . S
H266 C307 0.931 . S
H267 C308 0.930 . S
H268 C310 0.930 . S
H269 C311 0.932 . S
H270 C313 0.930 . S
H271 C314 0.929 . S
H272 C316 0.931 . S
H273 C317 0.930 . S
H274 C319 0.929 . S
H275 C320 0.931 . S
H276 C322 0.930 . S
H277 C323 0.929 . S
O278 H252 0.856 . S
O278 C324 1.300 . S
O279 C324 1.209 . S
O280 C325 1.199 . S
O281 H253 0.854 . S
O281 C325 1.297 . S
C282 C283 1.404 . S
C282 C287 1.397 . S
C282 C288 1.492 . S
C283 C282 1.404 . S
C283 C284 1.396 . S
C283 C294 1.492 . S
C284 C283 1.396 . S
C284 C285 1.397 . S
C284 C300 1.509 . S
C285 C284 1.397 . S
C285 C286 1.412 . S
C285 C306 1.485 . S
C286 C285 1.412 . S
C286 C287 1.388 . S
C286 C312 1.490 . S
C287 C282 1.397 . S
C287 C286 1.388 . S
C287 C318 1.519 . S
C288 C282 1.492 . S
C288 C289 1.363 . S
C288 C293 1.390 . S
C289 H254 0.930 . S
C289 C288 1.363 . S
C289 C290 1.372 . S
C290 H255 0.930 . S
C290 C289 1.372 . S
C290 C291 1.383 . S
C291 C290 1.383 . S
C291 C292 1.395 . S
C292 H256 0.930 . S
C292 C291 1.395 . S
C292 C293 1.362 . S
C293 H257 0.930 . S
C293 C288 1.390 . S
C293 C292 1.362 . S
C294 C283 1.492 . S
C294 C295 1.377 . S
C294 C299 1.397 . S
C295 H258 0.931 . S
C295 C294 1.377 . S
C295 C296 1.376 . S
C296 H259 0.930 . S
C296 C295 1.376 . S
C296 C297 1.376 . S
C297 C296 1.376 . S
C297 C298 1.378 . S
C297 C324 1.486 1_554 S
C298 H260 0.930 . S
C298 C297 1.378 . S
C298 C299 1.376 . S
C299 H261 0.929 . S
C299 C294 1.397 . S
C299 C298 1.376 . S
C300 C284 1.509 . S
C300 C301 1.391 . S
C300 C305 1.386 . S
C301 H262 0.930 . S
C301 C300 1.391 . S
C301 C302 1.375 . S
C302 H263 0.931 . S
C302 C301 1.375 . S
C302 C303 1.375 . S
C303 C302 1.375 . S
C303 C304 1.361 . S
C304 H264 0.930 . S
C304 C303 1.361 . S
C304 C305 1.399 . S
C305 H265 0.929 . S
C305 C300 1.386 . S
C305 C304 1.399 . S
C306 C285 1.485 . S
C306 C307 1.394 . S
C306 C311 1.360 . S
C307 H266 0.931 . S
C307 C306 1.394 . S
C307 C308 1.372 . S
C308 H267 0.930 . S
C308 C307 1.372 . S
C308 C309 1.397 . S
C309 C308 1.397 . S
C309 C310 1.390 . S
C309 C325 1.476 . S
C310 H268 0.930 . S
C310 C309 1.390 . S
C310 C311 1.366 . S
C311 H269 0.932 . S
C311 C306 1.360 . S
C311 C310 1.366 . S
C312 C286 1.490 . S
C312 C313 1.380 . S
C312 C317 1.386 . S
C313 H270 0.930 . S
C313 C312 1.380 . S
C313 C314 1.381 . S
C314 H271 0.929 . S
C314 C313 1.381 . S
C314 C315 1.371 . S
C315 C314 1.371 . S
C315 C316 1.380 . S
C316 H272 0.931 . S
C316 C315 1.380 . S
C316 C317 1.387 . S
C317 H273 0.930 . S
C317 C312 1.386 . S
C317 C316 1.387 . S
C318 C287 1.519 . S
C318 C319 1.377 . S
C318 C323 1.361 . S
C319 H274 0.929 . S
C319 C318 1.377 . S
C319 C320 1.386 . S
C320 H275 0.931 . S
C320 C319 1.386 . S
C320 C321 1.363 . S
C321 C320 1.363 . S
C321 C322 1.385 . S
C322 H276 0.930 . S
C322 C321 1.385 . S
C322 C323 1.396 . S
C323 H277 0.929 . S
C323 C318 1.361 . S
C323 C322 1.396 . S
C324 O278 1.300 . S
C324 O279 1.209 . S
C324 C297 1.486 1_556 S
C325 O280 1.199 . S
C325 O281 1.297 . S
C325 C309 1.476 . S
H326 O352 0.856 . S
H327 O355 0.854 . S
H328 C363 0.930 . S
H329 C364 0.930 . S
H330 C366 0.930 . S
H331 C367 0.930 . S
H332 C369 0.931 . S
H333 C370 0.930 . S
H334 C372 0.930 . S
H335 C373 0.929 . S
H336 C375 0.930 . S
H337 C376 0.931 . S
H338 C378 0.930 . S
H339 C379 0.929 . S
H340 C381 0.931 . S
H341 C382 0.930 . S
H342 C384 0.930 1_545 S
H343 C385 0.932 . S
H344 C387 0.930 . S
H345 C388 0.929 . S
H346 C390 0.931 . S
H347 C391 0.930 . S
H348 C393 0.929 . S
H349 C394 0.931 . S
H350 C396 0.930 . S
H351 C397 0.929 . S
O352 H326 0.856 . S
O352 C398 1.300 . S
O353 C398 1.209 . S
O354 C399 1.199 . S
O355 H327 0.854 . S
O355 C399 1.297 . S
C356 C357 1.404 . S
C356 C361 1.397 . S
C356 C362 1.492 . S
C357 C356 1.404 . S
C357 C358 1.396 . S
C357 C368 1.492 . S
C358 C357 1.396 . S
C358 C359 1.397 . S
C358 C374 1.509 . S
C359 C358 1.397 . S
C359 C360 1.412 . S
C359 C380 1.485 . S
C360 C359 1.412 . S
C360 C361 1.388 . S
C360 C386 1.490 . S
C361 C356 1.397 . S
C361 C360 1.388 . S
C361 C392 1.519 . S
C362 C356 1.492 . S
C362 C363 1.363 . S
C362 C367 1.390 . S
C363 H328 0.930 . S
C363 C362 1.363 . S
C363 C364 1.372 . S
C364 H329 0.930 . S
C364 C363 1.372 . S
C364 C365 1.383 . S
C365 C364 1.383 . S
C365 C366 1.395 . S
C366 H330 0.930 . S
C366 C365 1.395 . S
C366 C367 1.362 . S
C367 H331 0.930 . S
C367 C362 1.390 . S
C367 C366 1.362 . S
C368 C357 1.492 . S
C368 C369 1.377 . S
C368 C373 1.397 . S
C369 H332 0.931 . S
C369 C368 1.377 . S
C369 C370 1.376 . S
C370 H333 0.930 . S
C370 C369 1.376 . S
C370 C371 1.376 . S
C371 C370 1.376 . S
C371 C372 1.378 . S
C371 C398 1.486 1_554 S
C372 H334 0.930 . S
C372 C371 1.378 . S
C372 C373 1.376 . S
C373 H335 0.929 . S
C373 C368 1.397 . S
C373 C372 1.376 . S
C374 C358 1.509 . S
C374 C375 1.391 . S
C374 C379 1.386 . S
C375 H336 0.930 . S
C375 C374 1.391 . S
C375 C376 1.375 . S
C376 H337 0.931 . S
C376 C375 1.375 . S
C376 C377 1.375 . S
C377 C376 1.375 . S
C377 C378 1.361 . S
C378 H338 0.930 . S
C378 C377 1.361 . S
C378 C379 1.399 . S
C379 H339 0.929 . S
C379 C374 1.386 . S
C379 C378 1.399 . S
C380 C359 1.485 . S
C380 C381 1.394 . S
C380 C385 1.360 . S
C381 H340 0.931 . S
C381 C380 1.394 . S
C381 C382 1.372 . S
C382 H341 0.930 . S
C382 C381 1.372 . S
C382 C383 1.397 . S
C383 C382 1.397 . S
C383 C384 1.390 . S
C383 C399 1.476 1_565 S
C384 H342 0.930 1_565 S
C384 C383 1.390 . S
C384 C385 1.366 . S
C385 H343 0.932 . S
C385 C380 1.360 . S
C385 C384 1.366 . S
C386 C360 1.490 . S
C386 C387 1.380 . S
C386 C391 1.386 . S
C387 H344 0.930 . S
C387 C386 1.380 . S
C387 C388 1.381 . S
C388 H345 0.929 . S
C388 C387 1.381 . S
C388 C389 1.371 . S
C389 C388 1.371 . S
C389 C390 1.380 . S
C390 H346 0.931 . S
C390 C389 1.380 . S
C390 C391 1.387 . S
C391 H347 0.930 . S
C391 C386 1.386 . S
C391 C390 1.387 . S
C392 C361 1.519 . S
C392 C393 1.377 . S
C392 C397 1.361 . S
C393 H348 0.929 . S
C393 C392 1.377 . S
C393 C394 1.386 . S
C394 H349 0.931 . S
C394 C393 1.386 . S
C394 C395 1.363 . S
C395 C394 1.363 . S
C395 C396 1.385 . S
C396 H350 0.930 . S
C396 C395 1.385 . S
C396 C397 1.396 . S
C397 H351 0.929 . S
C397 C392 1.361 . S
C397 C396 1.396 . S
C398 O352 1.300 . S
C398 O353 1.209 . S
C398 C371 1.486 1_556 S
C399 O354 1.199 . S
C399 O355 1.297 . S
C399 C383 1.476 1_545 S
H400 O426 0.856 . S
H401 O429 0.854 . S
H402 C437 0.930 . S
H403 C438 0.930 . S
H404 C440 0.930 . S
H405 C441 0.930 . S
H406 C443 0.931 . S
H407 C444 0.930 . S
H408 C446 0.930 . S
H409 C447 0.929 . S
H410 C449 0.930 . S
H411 C450 0.931 . S
H412 C452 0.930 . S
H413 C453 0.929 . S
H414 C455 0.931 . S
H415 C456 0.930 1_545 S
H416 C458 0.930 . S
H417 C459 0.932 . S
H418 C461 0.930 . S
H419 C462 0.929 . S
H420 C464 0.931 . S
H421 C465 0.930 . S
H422 C467 0.929 . S
H423 C468 0.931 . S
H424 C470 0.930 . S
H425 C471 0.929 . S
O426 H400 0.856 . S
O426 C472 1.300 . S
O427 C472 1.209 . S
O428 C473 1.199 . S
O429 H401 0.854 . S
O429 C473 1.297 . S
C430 C431 1.404 . S
C430 C435 1.397 . S
C430 C436 1.492 . S
C431 C430 1.404 . S
C431 C432 1.396 . S
C431 C442 1.492 . S
C432 C431 1.396 . S
C432 C433 1.397 . S
C432 C448 1.509 . S
C433 C432 1.397 . S
C433 C434 1.412 . S
C433 C454 1.485 . S
C434 C433 1.412 . S
C434 C435 1.388 . S
C434 C460 1.490 . S
C435 C430 1.397 . S
C435 C434 1.388 . S
C435 C466 1.519 . S
C436 C430 1.492 . S
C436 C437 1.363 . S
C436 C441 1.390 . S
C437 H402 0.930 . S
C437 C436 1.363 . S
C437 C438 1.372 . S
C438 H403 0.930 . S
C438 C437 1.372 . S
C438 C439 1.383 . S
C439 C438 1.383 . S
C439 C440 1.395 . S
C440 H404 0.930 . S
C440 C439 1.395 . S
C440 C441 1.362 . S
C441 H405 0.930 . S
C441 C436 1.390 . S
C441 C440 1.362 . S
C442 C431 1.492 . S
C442 C443 1.377 . S
C442 C447 1.397 . S
C443 H406 0.931 . S
C443 C442 1.377 . S
C443 C444 1.376 . S
C444 H407 0.930 . S
C444 C443 1.376 . S
C444 C445 1.376 . S
C445 C444 1.376 . S
C445 C446 1.378 . S
C445 C472 1.486 1_554 S
C446 H408 0.930 . S
C446 C445 1.378 . S
C446 C447 1.376 . S
C447 H409 0.929 . S
C447 C442 1.397 . S
C447 C446 1.376 . S
C448 C432 1.509 . S
C448 C449 1.391 . S
C448 C453 1.386 . S
C449 H410 0.930 . S
C449 C448 1.391 . S
C449 C450 1.375 . S
C450 H411 0.931 . S
C450 C449 1.375 . S
C450 C451 1.375 . S
C451 C450 1.375 . S
C451 C452 1.361 . S
C452 H412 0.930 . S
C452 C451 1.361 . S
C452 C453 1.399 . S
C453 H413 0.929 . S
C453 C448 1.386 . S
C453 C452 1.399 . S
C454 C433 1.485 . S
C454 C455 1.394 . S
C454 C459 1.360 . S
C455 H414 0.931 . S
C455 C454 1.394 . S
C455 C456 1.372 . S
C456 H415 0.930 1_565 S
C456 C455 1.372 . S
C456 C457 1.382 . S
C457 C456 1.382 . S
C457 C458 1.422 . S
C457 C473 1.459 1_565 S
C458 H416 0.930 . S
C458 C457 1.422 . S
C458 C459 1.366 . S
C459 H417 0.932 . S
C459 C454 1.360 . S
C459 C458 1.366 . S
C460 C434 1.490 . S
C460 C461 1.380 . S
C460 C465 1.386 . S
C461 H418 0.930 . S
C461 C460 1.380 . S
C461 C462 1.381 . S
C462 H419 0.929 . S
C462 C461 1.381 . S
C462 C463 1.371 . S
C463 C462 1.371 . S
C463 C464 1.380 . S
C464 H420 0.931 . S
C464 C463 1.380 . S
C464 C465 1.387 . S
C465 H421 0.930 . S
C465 C460 1.386 . S
C465 C464 1.387 . S
C466 C435 1.519 . S
C466 C467 1.377 . S
C466 C471 1.361 . S
C467 H422 0.929 . S
C467 C466 1.377 . S
C467 C468 1.386 . S
C468 H423 0.931 . S
C468 C467 1.386 . S
C468 C469 1.363 . S
C469 C468 1.363 . S
C469 C470 1.385 . S
C470 H424 0.930 . S
C470 C469 1.385 . S
C470 C471 1.396 . S
C471 H425 0.929 . S
C471 C466 1.361 . S
C471 C470 1.396 . S
C472 O426 1.300 . S
C472 O427 1.209 . S
C472 C445 1.486 1_556 S
C473 O428 1.199 . S
C473 O429 1.297 . S
C473 C457 1.459 1_545 S
H474 O500 0.856 . S
H475 O503 0.854 . S
H476 C511 0.930 . S
H477 C512 0.930 . S
H478 C514 0.930 . S
H479 C515 0.930 . S
H480 C517 0.935 . S
H481 C518 0.930 . S
H482 C520 0.930 . S
H483 C521 0.929 . S
H484 C523 0.930 . S
H485 C524 0.931 1_554 S
H486 C526 0.930 . S
H487 C527 0.929 . S
H488 C529 0.931 . S
H489 C530 0.930 1_565 S
H490 C532 0.930 . S
H491 C533 0.932 . S
H492 C535 0.930 . S
H493 C536 0.929 . S
H494 C538 0.931 . S
H495 C539 0.930 . S
H496 C541 0.929 . S
H497 C542 0.931 . S
H498 C544 0.930 . S
H499 C545 0.929 . S
O500 H474 0.856 . S
O500 C546 1.300 . S
O501 C546 1.209 . S
O502 C547 1.199 . S
O503 H475 0.854 . S
O503 C547 1.297 . S
C504 C505 1.404 . S
C504 C509 1.397 . S
C504 C510 1.492 . S
C505 C504 1.404 . S
C505 C506 1.396 . S
C505 C516 1.492 . S
C506 C505 1.396 . S
C506 C507 1.397 . S
C506 C522 1.509 . S
C507 C506 1.397 . S
C507 C508 1.412 . S
C507 C528 1.485 . S
C508 C507 1.412 . S
C508 C509 1.388 . S
C508 C534 1.490 . S
C509 C504 1.397 . S
C509 C508 1.388 . S
C509 C540 1.519 . S
C510 C504 1.492 . S
C510 C511 1.363 . S
C510 C515 1.390 . S
C511 H476 0.930 . S
C511 C510 1.363 . S
C511 C512 1.372 . S
C512 H477 0.930 . S
C512 C511 1.372 . S
C512 C513 1.383 . S
C513 C512 1.383 . S
C513 C514 1.395 . S
C514 H478 0.930 . S
C514 C513 1.395 . S
C514 C515 1.362 . S
C515 H479 0.930 . S
C515 C510 1.390 . S
C515 C514 1.362 . S
C516 C505 1.492 . S
C516 C517 1.377 1_556 S
C516 C521 1.397 . S
C517 H480 0.935 . S
C517 C516 1.377 1_554 S
C517 C518 1.376 . S
C518 H481 0.930 . S
C518 C517 1.376 . S
C518 C519 1.376 . S
C519 C518 1.376 . S
C519 C520 1.378 . S
C519 C546 1.486 . S
C520 H482 0.930 . S
C520 C519 1.378 . S
C520 C521 1.376 1_554 S
C521 H483 0.929 . S
C521 C516 1.397 . S
C521 C520 1.376 1_556 S
C522 C506 1.509 . S
C522 C523 1.391 . S
C522 C527 1.386 . S
C523 H484 0.930 . S
C523 C522 1.391 . S
C523 C524 1.375 . S
C524 H485 0.931 1_556 S
C524 C523 1.375 . S
C524 C525 1.375 1_556 S
C525 C524 1.375 1_554 S
C525 C526 1.361 . S
C526 H486 0.930 . S
C526 C525 1.361 . S
C526 C527 1.399 1_554 S
C527 H487 0.929 . S
C527 C522 1.386 . S
C527 C526 1.399 1_556 S
C528 C507 1.485 . S
C528 C529 1.394 . S
C528 C533 1.360 . S
C529 H488 0.931 . S
C529 C528 1.394 . S
C529 C530 1.372 . S
C530 H489 0.930 1_545 S
C530 C529 1.372 . S
C530 C531 1.397 . S
C531 C530 1.397 . S
C531 C532 1.390 . S
C531 C547 1.476 1_545 S
C532 H490 0.930 . S
C532 C531 1.390 . S
C532 C533 1.366 . S
C533 H491 0.932 . S
C533 C528 1.360 . S
C533 C532 1.366 . S
C534 C508 1.490 . S
C534 C535 1.380 . S
C534 C539 1.386 . S
C535 H492 0.930 . S
C535 C534 1.380 . S
C535 C536 1.381 . S
C536 H493 0.929 . S
C536 C535 1.381 . S
C536 C537 1.371 . S
C537 C536 1.371 . S
C537 C538 1.380 . S
C538 H494 0.931 . S
C538 C537 1.380 . S
C538 C539 1.387 . S
C539 H495 0.930 . S
C539 C534 1.386 . S
C539 C538 1.387 . S
C540 C509 1.519 . S
C540 C541 1.377 . S
C540 C545 1.361 . S
C541 H496 0.929 . S
C541 C540 1.377 . S
C541 C542 1.386 . S
C542 H497 0.931 . S
C542 C541 1.386 . S
C542 C543 1.363 . S
C543 C542 1.363 . S
C543 C544 1.385 . S
C544 H498 0.930 . S
C544 C543 1.385 . S
C544 C545 1.396 . S
C545 H499 0.929 . S
C545 C540 1.361 . S
C545 C544 1.396 . S
C546 O500 1.300 . S
C546 O501 1.209 . S
C546 C519 1.486 . S
C547 O502 1.199 . S
C547 O503 1.297 . S
C547 C531 1.476 1_565 S
H548 O574 0.856 . S
H549 O577 0.854 . S
H550 C585 0.930 . S
H551 C586 0.930 . S
H552 C588 0.930 . S
H553 C589 0.930 . S
H554 C591 0.931 . S
H555 C592 0.930 . S
H556 C594 0.930 . S
H557 C595 0.929 . S
H558 C597 0.930 . S
H559 C598 0.931 . S
H560 C600 0.930 . S
H561 C601 0.929 . S
H562 C603 0.931 . S
H563 C604 0.930 . S
H564 C606 0.930 . S
H565 C607 0.932 . S
H566 C609 0.930 . S
H567 C610 0.929 . S
H568 C612 0.931 . S
H569 C613 0.930 . S
H570 C615 0.929 . S
H571 C616 0.931 . S
H572 C618 0.930 . S
H573 C619 0.929 . S
O574 H548 0.856 . S
O574 C620 1.300 . S
O575 C620 1.209 . S
O576 C621 1.199 . S
O577 H549 0.854 . S
O577 C621 1.297 . S
C578 C579 1.404 . S
C578 C583 1.397 . S
C578 C584 1.492 . S
C579 C578 1.404 . S
C579 C580 1.396 . S
C579 C590 1.492 . S
C580 C579 1.396 . S
C580 C581 1.397 . S
C580 C596 1.509 . S
C581 C580 1.397 . S
C581 C582 1.412 . S
C581 C602 1.485 . S
C582 C581 1.412 . S
C582 C583 1.388 . S
C582 C608 1.490 . S
C583 C578 1.397 . S
C583 C582 1.388 . S
C583 C614 1.519 . S
C584 C578 1.492 . S
C584 C585 1.363 . S
C584 C589 1.390 . S
C585 H550 0.930 . S
C585 C584 1.363 . S
C585 C586 1.372 . S
C586 H551 0.930 . S
C586 C585 1.372 . S
C586 C587 1.383 . S
C587 C586 1.383 . S
C587 C588 1.395 . S
C588 H552 0.930 . S
C588 C587 1.395 . S
C588 C589 1.362 . S
C589 H553 0.930 . S
C589 C584 1.390 . S
C589 C588 1.362 . S
C590 C579 1.492 . S
C590 C591 1.377 1_556 S
C590 C595 1.397 1_556 S
C591 H554 0.931 . S
C591 C590 1.377 1_554 S
C591 C592 1.376 . S
C592 H555 0.930 . S
C592 C591 1.376 . S
C592 C593 1.376 . S
C593 C592 1.376 . S
C593 C594 1.378 . S
C593 C620 1.486 . S
C594 H556 0.930 . S
C594 C593 1.378 . S
C594 C595 1.376 . S
C595 H557 0.929 . S
C595 C590 1.397 1_554 S
C595 C594 1.376 . S
C596 C580 1.509 . S
C596 C597 1.391 . S
C596 C601 1.386 . S
C597 H558 0.930 . S
C597 C596 1.391 . S
C597 C598 1.375 . S
C598 H559 0.931 . S
C598 C597 1.375 . S
C598 C599 1.375 1_556 S
C599 C598 1.375 1_554 S
C599 C600 1.361 . S
C600 H560 0.930 . S
C600 C599 1.361 . S
C600 C601 1.399 1_554 S
C601 H561 0.929 . S
C601 C596 1.386 . S
C601 C600 1.399 1_556 S
C602 C581 1.485 . S
C602 C603 1.394 . S
C602 C607 1.360 . S
C603 H562 0.931 . S
C603 C602 1.394 . S
C603 C604 1.372 . S
C604 H563 0.930 . S
C604 C603 1.372 . S
C604 C605 1.397 1_545 S
C605 C604 1.397 1_565 S
C605 C606 1.390 . S
C605 C621 1.476 . S
C606 H564 0.930 . S
C606 C605 1.390 . S
C606 C607 1.366 1_565 S
C607 H565 0.932 . S
C607 C602 1.360 . S
C607 C606 1.366 1_545 S
C608 C582 1.490 . S
C608 C609 1.380 . S
C608 C613 1.386 . S
C609 H566 0.930 . S
C609 C608 1.380 . S
C609 C610 1.381 . S
C610 H567 0.929 . S
C610 C609 1.381 . S
C610 C611 1.371 . S
C611 C610 1.371 . S
C611 C612 1.380 . S
C612 H568 0.931 . S
C612 C611 1.380 . S
C612 C613 1.387 . S
C613 H569 0.930 . S
C613 C608 1.386 . S
C613 C612 1.387 . S
C614 C583 1.519 . S
C614 C615 1.377 . S
C614 C619 1.361 . S
C615 H570 0.929 . S
C615 C614 1.377 . S
C615 C616 1.386 . S
C616 H571 0.931 . S
C616 C615 1.386 . S
C616 C617 1.363 . S
C617 C616 1.363 . S
C617 C618 1.385 . S
C618 H572 0.930 . S
C618 C617 1.385 . S
C618 C619 1.396 . S
C619 H573 0.929 . S
C619 C614 1.361 . S
C619 C618 1.396 . S
C620 O574 1.300 . S
C620 O575 1.209 . S
C620 C593 1.486 . S
C621 O576 1.199 . S
C621 O577 1.297 . S
C621 C605 1.476 . S
H622 O648 0.856 . S
H623 O651 0.854 . S
H624 C659 0.930 . S
H625 C660 0.930 1_554 S
H626 C662 0.930 . S
H627 C663 0.930 . S
H628 C665 0.931 . S
H629 C666 0.930 . S
H630 C668 0.930 . S
H631 C669 0.929 1_556 S
H632 C671 0.921 1_556 S
H633 C672 0.931 . S
H634 C674 0.930 . S
H635 C675 0.929 . S
H636 C677 0.931 . S
H637 C678 0.930 . S
H638 C680 0.930 . S
H639 C681 0.932 . S
H640 C683 0.930 . S
H641 C684 0.929 . S
H642 C686 0.931 . S
H643 C687 0.930 . S
H644 C689 0.929 . S
H645 C690 0.931 . S
H646 C692 0.930 . S
H647 C693 0.929 . S
O648 H622 0.856 . S
O648 C694 1.300 . S
O649 C694 1.209 . S
O650 C695 1.199 . S
O651 H623 0.854 . S
O651 C695 1.297 . S
C652 C653 1.404 . S
C652 C657 1.397 . S
C652 C658 1.492 . S
C653 C652 1.404 . S
C653 C654 1.396 . S
C653 C664 1.492 1_556 S
C654 C653 1.396 . S
C654 C655 1.397 . S
C654 C670 1.509 . S
C655 C654 1.397 . S
C655 C656 1.412 . S
C655 C676 1.485 . S
C656 C655 1.412 . S
C656 C657 1.388 . S
C656 C682 1.490 . S
C657 C652 1.397 . S
C657 C656 1.388 . S
C657 C688 1.519 . S
C658 C652 1.492 . S
C658 C659 1.363 . S
C658 C663 1.390 . S
C659 H624 0.930 . S
C659 C658 1.363 . S
C659 C660 1.372 . S
C660 H625 0.930 1_556 S
C660 C659 1.372 . S
C660 C661 1.383 . S
C661 C660 1.383 . S
C661 C662 1.395 . S
C662 H626 0.930 . S
C662 C661 1.395 . S
C662 C663 1.362 . S
C663 H627 0.930 . S
C663 C658 1.390 . S
C663 C662 1.362 . S
C664 C653 1.492 1_554 S
C664 C665 1.377 . S
C664 C669 1.397 . S
C665 H628 0.931 . S
C665 C664 1.377 . S
C665 C666 1.376 . S
C666 H629 0.930 . S
C666 C665 1.376 . S
C666 C667 1.376 . S
C667 C666 1.376 . S
C667 C668 1.378 . S
C667 C694 1.486 . S
C668 H630 0.930 . S
C668 C667 1.378 . S
C668 C669 1.376 . S
C669 H631 0.929 1_554 S
C669 C664 1.397 . S
C669 C668 1.376 . S
C670 C654 1.509 . S
C670 C671 1.382 1_556 S
C670 C675 1.386 . S
C671 H632 0.921 1_554 S
C671 C670 1.382 1_554 S
C671 C672 1.393 . S
C672 H633 0.931 . S
C672 C671 1.393 . S
C672 C673 1.375 . S
C673 C672 1.375 . S
C673 C674 1.361 . S
C674 H634 0.930 . S
C674 C673 1.361 . S
C674 C675 1.399 1_554 S
C675 H635 0.929 . S
C675 C670 1.386 . S
C675 C674 1.399 1_556 S
C676 C655 1.485 . S
C676 C677 1.394 . S
C676 C681 1.360 . S
C677 H636 0.931 . S
C677 C676 1.394 . S
C677 C678 1.372 . S
C678 H637 0.930 . S
C678 C677 1.372 . S
C678 C679 1.397 . S
C679 C678 1.397 . S
C679 C680 1.390 . S
C679 C695 1.476 . S
C680 H638 0.930 . S
C680 C679 1.390 . S
C680 C681 1.366 . S
C681 H639 0.932 . S
C681 C676 1.360 . S
C681 C680 1.366 . S
C682 C656 1.490 . S
C682 C683 1.380 . S
C682 C687 1.386 . S
C683 H640 0.930 . S
C683 C682 1.380 . S
C683 C684 1.381 . S
C684 H641 0.929 . S
C684 C683 1.381 . S
C684 C685 1.371 . S
C685 C684 1.371 . S
C685 C686 1.380 . S
C686 H642 0.931 . S
C686 C685 1.380 . S
C686 C687 1.387 . S
C687 H643 0.930 . S
C687 C682 1.386 . S
C687 C686 1.387 . S
C688 C657 1.519 . S
C688 C689 1.377 . S
C688 C693 1.361 . S
C689 H644 0.929 . S
C689 C688 1.377 . S
C689 C690 1.386 . S
C690 H645 0.931 . S
C690 C689 1.386 . S
C690 C691 1.363 . S
C691 C690 1.363 . S
C691 C692 1.385 . S
C692 H646 0.930 . S
C692 C691 1.385 . S
C692 C693 1.396 . S
C693 H647 0.929 . S
C693 C688 1.361 . S
C693 C692 1.396 . S
C694 O648 1.300 . S
C694 O649 1.209 . S
C694 C667 1.486 . S
C695 O650 1.199 . S
C695 O651 1.297 . S
C695 C679 1.476 . S
H696 O722 0.856 . S
H697 O725 0.854 1_455 S
H698 C733 0.930 . S
H699 C734 0.930 . S
H700 C736 0.930 . S
H701 C737 0.930 . S
H702 C739 0.931 . S
H703 C740 0.930 . S
H704 C742 0.930 . S
H705 C743 0.929 . S
H706 C745 0.930 . S
H707 C746 0.931 . S
H708 C748 0.930 . S
H709 C749 0.929 . S
H710 C751 0.931 . S
H711 C752 0.930 . S
H712 C754 0.930 . S
H713 C755 0.932 . S
H714 C757 0.930 . S
H715 C758 0.929 . S
H716 C760 0.931 . S
H717 C761 0.930 . S
H718 C763 0.929 . S
H719 C764 0.931 . S
H720 C766 0.930 . S
H721 C767 0.929 . S
O722 H696 0.856 . S
O722 C768 1.300 . S
O723 C768 1.209 . S
O724 C769 1.199 1_455 S
O725 H697 0.854 1_655 S
O725 C769 1.297 . S
C726 C727 1.404 . S
C726 C731 1.397 . S
C726 C732 1.492 . S
C727 C726 1.404 . S
C727 C728 1.396 . S
C727 C738 1.492 . S
C728 C727 1.396 . S
C728 C729 1.397 . S
C728 C744 1.509 . S
C729 C728 1.397 . S
C729 C730 1.412 . S
C729 C750 1.485 . S
C730 C729 1.412 . S
C730 C731 1.388 . S
C730 C756 1.490 . S
C731 C726 1.397 . S
C731 C730 1.388 . S
C731 C762 1.519 . S
C732 C726 1.492 . S
C732 C733 1.363 . S
C732 C737 1.390 . S
C733 H698 0.930 . S
C733 C732 1.363 . S
C733 C734 1.372 . S
C734 H699 0.930 . S
C734 C733 1.372 . S
C734 C735 1.383 . S
C735 C734 1.383 . S
C735 C736 1.395 . S
C736 H700 0.930 . S
C736 C735 1.395 . S
C736 C737 1.362 . S
C737 H701 0.930 . S
C737 C732 1.390 . S
C737 C736 1.362 . S
C738 C727 1.492 . S
C738 C739 1.377 . S
C738 C743 1.397 . S
C739 H702 0.931 . S
C739 C738 1.377 . S
C739 C740 1.376 . S
C740 H703 0.930 . S
C740 C739 1.376 . S
C740 C741 1.376 . S
C741 C740 1.376 . S
C741 C742 1.378 . S
C741 C768 1.486 . S
C742 H704 0.930 . S
C742 C741 1.378 . S
C742 C743 1.376 . S
C743 H705 0.929 . S
C743 C738 1.397 . S
C743 C742 1.376 . S
C744 C728 1.509 . S
C744 C745 1.391 . S
C744 C749 1.386 . S
C745 H706 0.930 . S
C745 C744 1.391 . S
C745 C746 1.375 . S
C746 H707 0.931 . S
C746 C745 1.375 . S
C746 C747 1.375 . S
C747 C746 1.375 . S
C747 C748 1.361 . S
C748 H708 0.930 . S
C748 C747 1.361 . S
C748 C749 1.399 . S
C749 H709 0.929 . S
C749 C744 1.386 . S
C749 C748 1.399 . S
C750 C729 1.485 . S
C750 C751 1.394 . S
C750 C755 1.360 . S
C751 H710 0.931 . S
C751 C750 1.394 . S
C751 C752 1.372 . S
C752 H711 0.930 . S
C752 C751 1.372 . S
C752 C753 1.397 . S
C753 C752 1.397 . S
C753 C754 1.390 . S
C753 C769 1.476 . S
C754 H712 0.930 . S
C754 C753 1.390 . S
C754 C755 1.366 . S
C755 H713 0.932 . S
C755 C750 1.360 . S
C755 C754 1.366 . S
C756 C730 1.490 . S
C756 C757 1.380 . S
C756 C761 1.386 . S
C757 H714 0.930 . S
C757 C756 1.380 . S
C757 C758 1.381 . S
C758 H715 0.929 . S
C758 C757 1.381 . S
C758 C759 1.371 . S
C759 C758 1.371 . S
C759 C760 1.380 . S
C760 H716 0.931 . S
C760 C759 1.380 . S
C760 C761 1.387 . S
C761 H717 0.930 . S
C761 C756 1.386 . S
C761 C760 1.387 . S
C762 C731 1.519 . S
C762 C763 1.377 . S
C762 C767 1.361 . S
C763 H718 0.929 . S
C763 C762 1.377 . S
C763 C764 1.386 . S
C764 H719 0.931 . S
C764 C763 1.386 . S
C764 C765 1.363 . S
C765 C764 1.363 . S
C765 C766 1.385 . S
C766 H720 0.930 . S
C766 C765 1.385 . S
C766 C767 1.396 . S
C767 H721 0.929 . S
C767 C762 1.361 . S
C767 C766 1.396 . S
C768 O722 1.300 . S
C768 O723 1.209 . S
C768 C741 1.486 . S
C769 O724 1.199 1_655 S
C769 O725 1.297 . S
C769 C753 1.476 . S
H770 O796 0.856 . S
H771 O799 0.854 . S
H772 C807 0.930 . S
H773 C808 0.930 . S
H774 C810 0.930 . S
H775 C811 0.930 . S
H776 C813 0.931 . S
H777 C814 0.930 . S
H778 C816 0.930 . S
H779 C817 0.929 . S
H780 C819 0.930 . S
H781 C820 0.931 . S
H782 C822 0.930 . S
H783 C823 0.929 . S
H784 C825 0.931 . S
H785 C826 0.930 . S
H786 C828 0.930 . S
H787 C829 0.932 . S
H788 C831 0.930 . S
H789 C832 0.929 . S
H790 C834 0.931 . S
H791 C835 0.930 . S
H792 C837 0.929 . S
H793 C838 0.931 . S
H794 C840 0.930 . S
H795 C841 0.929 . S
O796 H770 0.856 . S
O796 C842 1.300 . S
O797 C842 1.209 . S
O798 C843 1.199 . S
O799 H771 0.854 . S
O799 C843 1.297 . S
C800 C801 1.404 . S
C800 C805 1.397 . S
C800 C806 1.492 . S
C801 C800 1.404 . S
C801 C802 1.396 . S
C801 C812 1.492 . S
C802 C801 1.396 . S
C802 C803 1.397 . S
C802 C818 1.509 . S
C803 C802 1.397 . S
C803 C804 1.412 . S
C803 C824 1.485 . S
C804 C803 1.412 . S
C804 C805 1.388 . S
C804 C830 1.490 . S
C805 C800 1.397 . S
C805 C804 1.388 . S
C805 C836 1.519 . S
C806 C800 1.492 . S
C806 C807 1.363 . S
C806 C811 1.390 . S
C807 H772 0.930 . S
C807 C806 1.363 . S
C807 C808 1.372 . S
C808 H773 0.930 . S
C808 C807 1.372 . S
C808 C809 1.383 . S
C809 C808 1.383 . S
C809 C810 1.395 . S
C810 H774 0.930 . S
C810 C809 1.395 . S
C810 C811 1.362 . S
C811 H775 0.930 . S
C811 C806 1.390 . S
C811 C810 1.362 . S
C812 C801 1.492 . S
C812 C813 1.377 . S
C812 C817 1.397 . S
C813 H776 0.931 . S
C813 C812 1.377 . S
C813 C814 1.376 . S
C814 H777 0.930 . S
C814 C813 1.376 . S
C814 C815 1.376 . S
C815 C814 1.376 . S
C815 C816 1.378 . S
C815 C842 1.486 . S
C816 H778 0.930 . S
C816 C815 1.378 . S
C816 C817 1.376 . S
C817 H779 0.929 . S
C817 C812 1.397 . S
C817 C816 1.376 . S
C818 C802 1.509 . S
C818 C819 1.391 . S
C818 C823 1.386 . S
C819 H780 0.930 . S
C819 C818 1.391 . S
C819 C820 1.375 . S
C820 H781 0.931 . S
C820 C819 1.375 . S
C820 C821 1.375 . S
C821 C820 1.375 . S
C821 C822 1.361 . S
C822 H782 0.930 . S
C822 C821 1.361 . S
C822 C823 1.399 . S
C823 H783 0.929 . S
C823 C818 1.386 . S
C823 C822 1.399 . S
C824 C803 1.485 . S
C824 C825 1.394 . S
C824 C829 1.360 . S
C825 H784 0.931 . S
C825 C824 1.394 . S
C825 C826 1.372 . S
C826 H785 0.930 . S
C826 C825 1.372 . S
C826 C827 1.397 . S
C827 C826 1.397 . S
C827 C828 1.390 . S
C827 C843 1.476 . S
C828 H786 0.930 . S
C828 C827 1.390 . S
C828 C829 1.366 . S
C829 H787 0.932 . S
C829 C824 1.360 . S
C829 C828 1.366 . S
C830 C804 1.490 . S
C830 C831 1.380 . S
C830 C835 1.386 . S
C831 H788 0.930 . S
C831 C830 1.380 . S
C831 C832 1.381 . S
C832 H789 0.929 . S
C832 C831 1.381 . S
C832 C833 1.371 . S
C833 C832 1.371 . S
C833 C834 1.380 . S
C834 H790 0.931 . S
C834 C833 1.380 . S
C834 C835 1.387 . S
C835 H791 0.930 . S
C835 C830 1.386 . S
C835 C834 1.387 . S
C836 C805 1.519 . S
C836 C837 1.377 . S
C836 C841 1.361 . S
C837 H792 0.929 . S
C837 C836 1.377 . S
C837 C838 1.386 . S
C838 H793 0.931 . S
C838 C837 1.386 . S
C838 C839 1.363 . S
C839 C838 1.363 . S
C839 C840 1.385 . S
C840 H794 0.930 . S
C840 C839 1.385 . S
C840 C841 1.396 . S
C841 H795 0.929 . S
C841 C836 1.361 . S
C841 C840 1.396 . S
C842 O796 1.300 . S
C842 O797 1.209 . S
C842 C815 1.486 . S
C843 O798 1.199 . S
C843 O799 1.297 . S
C843 C827 1.476 . S
H844 O870 0.856 . S
H845 O873 0.854 . S
H846 C881 0.930 . S
H847 C882 0.930 . S
H848 C884 0.930 . S
H849 C885 0.930 . S
H850 C887 0.931 . S
H851 C888 0.930 . S
H852 C890 0.930 . S
H853 C891 0.929 . S
H854 C893 0.930 . S
H855 C894 0.931 . S
H856 C896 0.930 . S
H857 C897 0.929 . S
H858 C899 0.931 . S
H859 C900 0.930 . S
H860 C902 0.930 1_455 S
H861 C903 0.932 . S
H862 C905 0.930 . S
H863 C906 0.929 . S
H864 C908 0.931 . S
H865 C909 0.930 . S
H866 C911 0.929 . S
H867 C912 0.931 . S
H868 C914 0.930 . S
H869 C915 0.929 . S
O870 H844 0.856 . S
O870 C916 1.300 . S
O871 C916 1.209 . S
O872 C917 1.199 . S
O873 H845 0.854 . S
O873 C917 1.297 . S
C874 C875 1.404 . S
C874 C879 1.397 . S
C874 C880 1.492 . S
C875 C874 1.404 . S
C875 C876 1.396 . S
C875 C886 1.492 . S
C876 C875 1.396 . S
C876 C877 1.397 . S
C876 C892 1.509 . S
C877 C876 1.397 . S
C877 C878 1.412 . S
C877 C898 1.485 . S
C878 C877 1.412 . S
C878 C879 1.388 . S
C878 C904 1.490 . S
C879 C874 1.397 . S
C879 C878 1.388 . S
C879 C910 1.519 . S
C880 C874 1.492 . S
C880 C881 1.363 . S
C880 C885 1.390 . S
C881 H846 0.930 . S
C881 C880 1.363 . S
C881 C882 1.372 . S
C882 H847 0.930 . S
C882 C881 1.372 . S
C882 C883 1.383 . S
C883 C882 1.383 . S
C883 C884 1.395 . S
C884 H848 0.930 . S
C884 C883 1.395 . S
C884 C885 1.362 . S
C885 H849 0.930 . S
C885 C880 1.390 . S
C885 C884 1.362 . S
C886 C875 1.492 . S
C886 C887 1.377 . S
C886 C891 1.397 . S
C887 H850 0.931 . S
C887 C886 1.377 . S
C887 C888 1.376 . S
C888 H851 0.930 . S
C888 C887 1.376 . S
C888 C889 1.376 . S
C889 C888 1.376 . S
C889 C890 1.378 . S
C889 C916 1.486 . S
C890 H852 0.930 . S
C890 C889 1.378 . S
C890 C891 1.376 . S
C891 H853 0.929 . S
C891 C886 1.397 . S
C891 C890 1.376 . S
C892 C876 1.509 . S
C892 C893 1.391 . S
C892 C897 1.386 . S
C893 H854 0.930 . S
C893 C892 1.391 . S
C893 C894 1.375 . S
C894 H855 0.931 . S
C894 C893 1.375 . S
C894 C895 1.375 . S
C895 C894 1.375 . S
C895 C896 1.361 . S
C896 H856 0.930 . S
C896 C895 1.361 . S
C896 C897 1.399 . S
C897 H857 0.929 . S
C897 C892 1.386 . S
C897 C896 1.399 . S
C898 C877 1.485 . S
C898 C899 1.394 . S
C898 C903 1.360 . S
C899 H858 0.931 . S
C899 C898 1.394 . S
C899 C900 1.372 . S
C900 H859 0.930 . S
C900 C899 1.372 . S
C900 C901 1.397 . S
C901 C900 1.397 . S
C901 C902 1.390 . S
C901 C917 1.476 1_655 S
C902 H860 0.930 1_655 S
C902 C901 1.390 . S
C902 C903 1.366 . S
C903 H861 0.932 . S
C903 C898 1.360 . S
C903 C902 1.366 . S
C904 C878 1.490 . S
C904 C905 1.380 . S
C904 C909 1.386 . S
C905 H862 0.930 . S
C905 C904 1.380 . S
C905 C906 1.381 . S
C906 H863 0.929 . S
C906 C905 1.381 . S
C906 C907 1.371 . S
C907 C906 1.371 . S
C907 C908 1.380 . S
C908 H864 0.931 . S
C908 C907 1.380 . S
C908 C909 1.387 . S
C909 H865 0.930 . S
C909 C904 1.386 . S
C909 C908 1.387 . S
C910 C879 1.519 . S
C910 C911 1.377 . S
C910 C915 1.361 . S
C911 H866 0.929 . S
C911 C910 1.377 . S
C911 C912 1.386 . S
C912 H867 0.931 . S
C912 C911 1.386 . S
C912 C913 1.363 . S
C913 C912 1.363 . S
C913 C914 1.385 . S
C914 H868 0.930 . S
C914 C913 1.385 . S
C914 C915 1.396 . S
C915 H869 0.929 . S
C915 C910 1.361 . S
C915 C914 1.396 . S
C916 O870 1.300 . S
C916 O871 1.209 . S
C916 C889 1.486 . S
C917 O872 1.199 . S
C917 O873 1.297 . S
C917 C901 1.476 1_455 S
H918 O944 0.856 . S
H919 O947 0.854 . S
H920 C955 0.930 . S
H921 C956 0.930 . S
H922 C958 0.930 . S
H923 C959 0.930 . S
H924 C961 0.920 1_655 S
H925 C962 0.930 1_655 S
H926 C964 0.930 . S
H927 C965 0.929 . S
H928 C967 0.930 . S
H929 C968 0.931 1_655 S
H930 C970 0.930 . S
H931 C971 0.929 . S
H932 C973 0.931 . S
H933 C974 0.930 . S
H934 C976 0.930 . S
H935 C977 0.932 . S
H936 C979 0.930 . S
H937 C980 0.929 . S
H938 C982 0.931 . S
H939 C983 0.930 . S
H940 C985 0.929 . S
H941 C986 0.931 . S
H942 C988 0.930 . S
H943 C989 0.929 . S
O944 H918 0.856 . S
O944 C990 1.300 . S
O945 C990 1.209 . S
O946 C991 1.199 1_655 S
O947 H919 0.854 . S
O947 C991 1.297 . S
C948 C949 1.404 . S
C948 C953 1.397 . S
C948 C954 1.492 . S
C949 C948 1.404 . S
C949 C950 1.396 . S
C949 C960 1.492 . S
C950 C949 1.396 . S
C950 C951 1.397 . S
C950 C966 1.509 . S
C951 C950 1.397 . S
C951 C952 1.419 . S
C951 C972 1.485 . S
C952 C951 1.419 . S
C952 C953 1.381 . S
C952 C978 1.491 1_455 S
C953 C948 1.397 . S
C953 C952 1.381 . S
C953 C984 1.519 1_455 S
C954 C948 1.492 . S
C954 C955 1.363 1_455 S
C954 C959 1.390 . S
C955 H920 0.930 . S
C955 C954 1.363 1_655 S
C955 C956 1.372 . S
C956 H921 0.930 . S
C956 C955 1.372 . S
C956 C957 1.383 . S
C957 C956 1.383 . S
C957 C958 1.395 1_655 S
C958 H922 0.930 . S
C958 C957 1.395 1_455 S
C958 C959 1.362 . S
C959 H923 0.930 . S
C959 C954 1.390 . S
C959 C958 1.362 . S
C960 C949 1.492 . S
C960 C961 1.391 . S
C960 C965 1.397 . S
C961 H924 0.920 1_455 S
C961 C960 1.391 . S
C961 C962 1.373 . S
C962 H925 0.930 1_455 S
C962 C961 1.373 . S
C962 C963 1.376 . S
C963 C962 1.376 . S
C963 C964 1.378 . S
C963 C990 1.486 . S
C964 H926 0.930 . S
C964 C963 1.378 . S
C964 C965 1.376 . S
C965 H927 0.929 . S
C965 C960 1.397 . S
C965 C964 1.376 . S
C966 C950 1.509 . S
C966 C967 1.391 1_455 S
C966 C971 1.386 . S
C967 H928 0.930 . S
C967 C966 1.391 1_655 S
C967 C968 1.375 1_655 S
C968 H929 0.931 1_455 S
C968 C967 1.375 1_455 S
C968 C969 1.375 . S
C969 C968 1.375 . S
C969 C970 1.361 . S
C970 H930 0.930 . S
C970 C969 1.361 . S
C970 C971 1.399 . S
C971 H931 0.929 . S
C971 C966 1.386 . S
C971 C970 1.399 . S
C972 C951 1.485 . S
C972 C973 1.394 1_455 S
C972 C977 1.360 . S
C973 H932 0.931 . S
C973 C972 1.394 1_655 S
C973 C974 1.372 . S
C974 H933 0.930 . S
C974 C973 1.372 . S
C974 C975 1.397 1_655 S
C975 C974 1.397 1_455 S
C975 C976 1.390 . S
C975 C991 1.476 . S
C976 H934 0.930 . S
C976 C975 1.390 . S
C976 C977 1.366 . S
C977 H935 0.932 . S
C977 C972 1.360 . S
C977 C976 1.366 . S
C978 C952 1.491 1_655 S
C978 C979 1.380 . S
C978 C983 1.386 1_655 S
C979 H936 0.930 . S
C979 C978 1.380 . S
C979 C980 1.381 . S
C980 H937 0.929 . S
C980 C979 1.381 . S
C980 C981 1.371 . S
C981 C980 1.371 . S
C981 C982 1.380 1_655 S
C982 H938 0.931 . S
C982 C981 1.380 1_455 S
C982 C983 1.387 . S
C983 H939 0.930 . S
C983 C978 1.386 1_455 S
C983 C982 1.387 . S
C984 C953 1.519 1_655 S
C984 C985 1.377 . S
C984 C989 1.361 1_655 S
C985 H940 0.929 . S
C985 C984 1.377 . S
C985 C986 1.386 . S
C986 H941 0.931 . S
C986 C985 1.386 . S
C986 C987 1.363 . S
C987 C986 1.363 . S
C987 C988 1.385 1_655 S
C988 H942 0.930 . S
C988 C987 1.385 1_455 S
C988 C989 1.396 . S
C989 H943 0.929 . S
C989 C984 1.361 1_455 S
C989 C988 1.396 . S
C990 O944 1.300 . S
C990 O945 1.209 . S
C990 C963 1.486 . S
C991 O946 1.199 1_455 S
C991 O947 1.297 . S
C991 C975 1.476 . S
H992 O1018 0.856 . S
H993 O1021 0.854 . S
H994 C1029 0.930 . S
H995 C1030 0.930 . S
H996 C1032 0.930 . S
H997 C1033 0.930 . S
H998 C1035 0.931 . S
H999 C1036 0.930 . S
H1000 C1038 0.930 . S
H1001 C1039 0.929 . S
H1002 C1041 0.930 . S
H1003 C1042 0.931 . S
H1004 C1044 0.930 . S
H1005 C1045 0.929 . S
H1006 C1047 0.931 . S
H1007 C1048 0.930 . S
H1008 C1050 0.930 . S
H1009 C1051 0.932 . S
H1010 C1053 0.930 . S
H1011 C1054 0.929 . S
H1012 C1056 0.931 . S
H1013 C1057 0.930 . S
H1014 C1059 0.929 . S
H1015 C1060 0.931 . S
H1016 C1062 0.930 . S
H1017 C1063 0.929 . S
O1018 H992 0.856 . S
O1018 C1064 1.300 . S
O1019 C1064 1.209 . S
O1020 C1065 1.199 . S
O1021 H993 0.854 . S
O1021 C1065 1.297 . S
C1022 C1023 1.404 . S
C1022 C1027 1.397 . S
C1022 C1028 1.492 . S
C1023 C1022 1.404 . S
C1023 C1024 1.396 . S
C1023 C1034 1.492 . S
C1024 C1023 1.396 . S
C1024 C1025 1.397 . S
C1024 C1040 1.509 . S
C1025 C1024 1.397 . S
C1025 C1026 1.412 . S
C1025 C1046 1.485 . S
C1026 C1025 1.412 . S
C1026 C1027 1.388 . S
C1026 C1052 1.490 . S
C1027 C1022 1.397 . S
C1027 C1026 1.388 . S
C1027 C1058 1.519 . S
C1028 C1022 1.492 . S
C1028 C1029 1.363 . S
C1028 C1033 1.390 . S
C1029 H994 0.930 . S
C1029 C1028 1.363 . S
C1029 C1030 1.372 . S
C1030 H995 0.930 . S
C1030 C1029 1.372 . S
C1030 C1031 1.383 . S
C1031 C1030 1.383 . S
C1031 C1032 1.395 . S
C1032 H996 0.930 . S
C1032 C1031 1.395 . S
C1032 C1033 1.362 . S
C1033 H997 0.930 . S
C1033 C1028 1.390 . S
C1033 C1032 1.362 . S
C1034 C1023 1.492 . S
C1034 C1035 1.377 . S
C1034 C1039 1.397 . S
C1035 H998 0.931 . S
C1035 C1034 1.377 . S
C1035 C1036 1.376 . S
C1036 H999 0.930 . S
C1036 C1035 1.376 . S
C1036 C1037 1.376 . S
C1037 C1036 1.376 . S
C1037 C1038 1.378 . S
C1037 C1064 1.486 . S
C1038 H1000 0.930 . S
C1038 C1037 1.378 . S
C1038 C1039 1.376 . S
C1039 H1001 0.929 . S
C1039 C1034 1.397 . S
C1039 C1038 1.376 . S
C1040 C1024 1.509 . S
C1040 C1041 1.391 . S
C1040 C1045 1.386 . S
C1041 H1002 0.930 . S
C1041 C1040 1.391 . S
C1041 C1042 1.375 . S
C1042 H1003 0.931 . S
C1042 C1041 1.375 . S
C1042 C1043 1.375 . S
C1043 C1042 1.375 . S
C1043 C1044 1.361 . S
C1044 H1004 0.930 . S
C1044 C1043 1.361 . S
C1044 C1045 1.399 . S
C1045 H1005 0.929 . S
C1045 C1040 1.386 . S
C1045 C1044 1.399 . S
C1046 C1025 1.485 . S
C1046 C1047 1.394 . S
C1046 C1051 1.360 . S
C1047 H1006 0.931 . S
C1047 C1046 1.394 . S
C1047 C1048 1.372 . S
C1048 H1007 0.930 . S
C1048 C1047 1.372 . S
C1048 C1049 1.397 . S
C1049 C1048 1.397 . S
C1049 C1050 1.390 . S
C1049 C1065 1.476 . S
C1050 H1008 0.930 . S
C1050 C1049 1.390 . S
C1050 C1051 1.366 . S
C1051 H1009 0.932 . S
C1051 C1046 1.360 . S
C1051 C1050 1.366 . S
C1052 C1026 1.490 . S
C1052 C1053 1.380 . S
C1052 C1057 1.386 . S
C1053 H1010 0.930 . S
C1053 C1052 1.380 . S
C1053 C1054 1.381 . S
C1054 H1011 0.929 . S
C1054 C1053 1.381 . S
C1054 C1055 1.371 . S
C1055 C1054 1.371 . S
C1055 C1056 1.380 . S
C1056 H1012 0.931 . S
C1056 C1055 1.380 . S
C1056 C1057 1.387 . S
C1057 H1013 0.930 . S
C1057 C1052 1.386 . S
C1057 C1056 1.387 . S
C1058 C1027 1.519 . S
C1058 C1059 1.377 . S
C1058 C1063 1.361 . S
C1059 H1014 0.929 . S
C1059 C1058 1.377 . S
C1059 C1060 1.386 . S
C1060 H1015 0.931 . S
C1060 C1059 1.386 . S
C1060 C1061 1.363 . S
C1061 C1060 1.363 . S
C1061 C1062 1.385 . S
C1062 H1016 0.930 . S
C1062 C1061 1.385 . S
C1062 C1063 1.396 . S
C1063 H1017 0.929 . S
C1063 C1058 1.361 . S
C1063 C1062 1.396 . S
C1064 O1018 1.300 . S
C1064 O1019 1.209 . S
C1064 C1037 1.486 . S
C1065 O1020 1.199 . S
C1065 O1021 1.297 . S
C1065 C1049 1.476 . S
H1066 O1092 0.856 . S
H1067 O1095 0.854 . S
H1068 C1103 0.930 . S
H1069 C1104 0.930 . S
H1070 C1106 0.930 . S
H1071 C1107 0.930 . S
H1072 C1109 0.931 . S
H1073 C1110 0.930 1_545 S
H1074 C1112 0.930 . S
H1075 C1113 0.929 . S
H1076 C1115 0.930 . S
H1077 C1116 0.931 . S
H1078 C1118 0.930 . S
H1079 C1119 0.929 . S
H1080 C1121 0.931 . S
H1081 C1122 0.930 . S
H1082 C1124 0.930 . S
H1083 C1125 0.932 . S
H1084 C1127 0.930 . S
H1085 C1128 0.929 . S
H1086 C1130 0.931 . S
H1087 C1131 0.930 . S
H1088 C1133 0.929 . S
H1089 C1134 0.931 . S
H1090 C1136 0.930 . S
H1091 C1137 0.929 . S
O1092 H1066 0.856 . S
O1092 C1138 1.300 . S
O1093 C1138 1.209 . S
O1094 C1139 1.199 1_545 S
O1095 H1067 0.854 . S
O1095 C1139 1.297 . S
C1096 C1097 1.404 . S
C1096 C1101 1.397 . S
C1096 C1102 1.492 . S
C1097 C1096 1.404 . S
C1097 C1098 1.396 . S
C1097 C1108 1.492 . S
C1098 C1097 1.396 . S
C1098 C1099 1.397 . S
C1098 C1114 1.509 . S
C1099 C1098 1.397 . S
C1099 C1100 1.414 1_565 S
C1099 C1120 1.485 . S
C1100 C1099 1.414 1_545 S
C1100 C1101 1.383 1_545 S
C1100 C1126 1.495 . S
C1101 C1096 1.397 . S
C1101 C1100 1.383 1_565 S
C1101 C1132 1.522 1_565 S
C1102 C1096 1.492 . S
C1102 C1103 1.363 1_565 S
C1102 C1107 1.390 . S
C1103 H1068 0.930 . S
C1103 C1102 1.363 1_545 S
C1103 C1104 1.372 . S
C1104 H1069 0.930 . S
C1104 C1103 1.372 . S
C1104 C1105 1.383 . S
C1105 C1104 1.383 . S
C1105 C1106 1.395 1_545 S
C1106 H1070 0.930 . S
C1106 C1105 1.395 1_565 S
C1106 C1107 1.362 . S
C1107 H1071 0.930 . S
C1107 C1102 1.390 . S
C1107 C1106 1.362 . S
C1108 C1097 1.492 . S
C1108 C1109 1.377 1_565 S
C1108 C1113 1.397 . S
C1109 H1072 0.931 . S
C1109 C1108 1.377 1_545 S
C1109 C1110 1.376 1_545 S
C1110 H1073 0.930 1_565 S
C1110 C1109 1.376 1_565 S
C1110 C1111 1.376 . S
C1111 C1110 1.376 . S
C1111 C1112 1.378 . S
C1111 C1138 1.486 . S
C1112 H1074 0.930 . S
C1112 C1111 1.378 . S
C1112 C1113 1.376 . S
C1113 H1075 0.929 . S
C1113 C1108 1.397 . S
C1113 C1112 1.376 . S
C1114 C1098 1.509 . S
C1114 C1115 1.391 1_565 S
C1114 C1119 1.386 . S
C1115 H1076 0.930 . S
C1115 C1114 1.391 1_545 S
C1115 C1116 1.375 . S
C1116 H1077 0.931 . S
C1116 C1115 1.375 . S
C1116 C1117 1.375 1_545 S
C1117 C1116 1.375 1_565 S
C1117 C1118 1.361 . S
C1118 H1078 0.930 . S
C1118 C1117 1.361 . S
C1118 C1119 1.399 . S
C1119 H1079 0.929 . S
C1119 C1114 1.386 . S
C1119 C1118 1.399 . S
C1120 C1099 1.485 . S
C1120 C1121 1.394 1_565 S
C1120 C1125 1.360 . S
C1121 H1080 0.931 . S
C1121 C1120 1.394 1_545 S
C1121 C1122 1.372 . S
C1122 H1081 0.930 . S
C1122 C1121 1.372 . S
C1122 C1123 1.397 1_545 S
C1123 C1122 1.397 1_565 S
C1123 C1124 1.390 . S
C1123 C1139 1.476 . S
C1124 H1082 0.930 . S
C1124 C1123 1.390 . S
C1124 C1125 1.366 . S
C1125 H1083 0.932 . S
C1125 C1120 1.360 . S
C1125 C1124 1.366 . S
C1126 C1100 1.495 . S
C1126 C1127 1.380 . S
C1126 C1131 1.386 1_545 S
C1127 H1084 0.930 . S
C1127 C1126 1.380 . S
C1127 C1128 1.381 . S
C1128 H1085 0.929 . S
C1128 C1127 1.381 . S
C1128 C1129 1.371 . S
C1129 C1128 1.371 . S
C1129 C1130 1.380 1_545 S
C1130 H1086 0.931 . S
C1130 C1129 1.380 1_565 S
C1130 C1131 1.387 . S
C1131 H1087 0.930 . S
C1131 C1126 1.386 1_565 S
C1131 C1130 1.387 . S
C1132 C1101 1.522 1_545 S
C1132 C1133 1.381 . S
C1132 C1137 1.354 1_545 S
C1133 H1088 0.929 . S
C1133 C1132 1.381 . S
C1133 C1134 1.386 . S
C1134 H1089 0.931 . S
C1134 C1133 1.386 . S
C1134 C1135 1.363 1_545 S
C1135 C1134 1.363 1_565 S
C1135 C1136 1.385 . S
C1136 H1090 0.930 . S
C1136 C1135 1.385 . S
C1136 C1137 1.396 . S
C1137 H1091 0.929 . S
C1137 C1132 1.354 1_565 S
C1137 C1136 1.396 . S
C1138 O1092 1.300 . S
C1138 O1093 1.209 . S
C1138 C1111 1.486 . S
C1139 O1094 1.199 1_565 S
C1139 O1095 1.297 . S
C1139 C1123 1.476 . S
H1140 O1166 0.856 . S
H1141 O1169 0.854 . S
H1142 C1177 0.930 . S
H1143 C1178 0.930 . S
H1144 C1180 0.930 . S
H1145 C1181 0.930 . S
H1146 C1183 0.931 . S
H1147 C1184 0.930 . S
H1148 C1186 0.930 . S
H1149 C1187 0.929 . S
H1150 C1189 0.930 . S
H1151 C1190 0.931 . S
H1152 C1192 0.930 . S
H1153 C1193 0.929 . S
H1154 C1195 0.931 . S
H1155 C1196 0.930 . S
H1156 C1198 0.930 . S
H1157 C1199 0.932 . S
H1158 C1201 0.930 . S
H1159 C1202 0.929 . S
H1160 C1204 0.931 . S
H1161 C1205 0.930 . S
H1162 C1207 0.929 . S
H1163 C1208 0.931 . S
H1164 C1210 0.930 . S
H1165 C1211 0.929 . S
O1166 H1140 0.856 . S
O1166 C1212 1.300 . S
O1167 C1212 1.209 1_565 S
O1168 C1213 1.199 1_545 S
O1169 H1141 0.854 . S
O1169 C1213 1.297 . S
C1170 C1171 1.404 . S
C1170 C1175 1.395 1_545 S
C1170 C1176 1.492 . S
C1171 C1170 1.404 . S
C1171 C1172 1.396 . S
C1171 C1182 1.492 . S
C1172 C1171 1.396 . S
C1172 C1173 1.388 1_545 S
C1172 C1188 1.509 . S
C1173 C1172 1.388 1_565 S
C1173 C1174 1.403 . S
C1173 C1194 1.504 . S
C1174 C1173 1.403 . S
C1174 C1175 1.391 . S
C1174 C1200 1.490 . S
C1175 C1170 1.395 1_565 S
C1175 C1174 1.391 . S
C1175 C1206 1.518 . S
C1176 C1170 1.492 . S
C1176 C1177 1.363 . S
C1176 C1181 1.390 1_545 S
C1177 H1142 0.930 . S
C1177 C1176 1.363 . S
C1177 C1178 1.372 . S
C1178 H1143 0.930 . S
C1178 C1177 1.372 . S
C1178 C1179 1.383 . S
C1179 C1178 1.383 . S
C1179 C1180 1.395 1_545 S
C1180 H1144 0.930 . S
C1180 C1179 1.395 1_565 S
C1180 C1181 1.362 . S
C1181 H1145 0.930 . S
C1181 C1176 1.390 1_565 S
C1181 C1180 1.362 . S
C1182 C1171 1.492 . S
C1182 C1183 1.377 . S
C1182 C1187 1.397 1_545 S
C1183 H1146 0.931 . S
C1183 C1182 1.377 . S
C1183 C1184 1.376 . S
C1184 H1147 0.930 . S
C1184 C1183 1.376 . S
C1184 C1185 1.376 . S
C1185 C1184 1.376 . S
C1185 C1186 1.378 1_545 S
C1185 C1212 1.486 . S
C1186 H1148 0.930 . S
C1186 C1185 1.378 1_565 S
C1186 C1187 1.376 . S
C1187 H1149 0.929 . S
C1187 C1182 1.397 1_565 S
C1187 C1186 1.376 . S
C1188 C1172 1.509 . S
C1188 C1189 1.391 . S
C1188 C1193 1.386 1_545 S
C1189 H1150 0.930 . S
C1189 C1188 1.391 . S
C1189 C1190 1.375 . S
C1190 H1151 0.931 . S
C1190 C1189 1.375 . S
C1190 C1191 1.375 . S
C1191 C1190 1.375 . S
C1191 C1192 1.361 1_545 S
C1192 H1152 0.930 . S
C1192 C1191 1.361 1_565 S
C1192 C1193 1.399 . S
C1193 H1153 0.929 . S
C1193 C1188 1.386 1_565 S
C1193 C1192 1.399 . S
C1194 C1173 1.504 . S
C1194 C1195 1.394 1_565 S
C1194 C1199 1.360 . S
C1195 H1154 0.931 . S
C1195 C1194 1.394 1_545 S
C1195 C1196 1.372 . S
C1196 H1155 0.930 . S
C1196 C1195 1.372 . S
C1196 C1197 1.397 1_545 S
C1197 C1196 1.397 1_565 S
C1197 C1198 1.390 . S
C1197 C1213 1.476 . S
C1198 H1156 0.930 . S
C1198 C1197 1.390 . S
C1198 C1199 1.366 . S
C1199 H1157 0.932 . S
C1199 C1194 1.360 . S
C1199 C1198 1.366 . S
C1200 C1174 1.490 . S
C1200 C1201 1.380 1_565 S
C1200 C1205 1.386 . S
C1201 H1158 0.930 . S
C1201 C1200 1.380 1_545 S
C1201 C1202 1.381 . S
C1202 H1159 0.929 . S
C1202 C1201 1.381 . S
C1202 C1203 1.371 1_545 S
C1203 C1202 1.371 1_565 S
C1203 C1204 1.380 . S
C1204 H1160 0.931 . S
C1204 C1203 1.380 . S
C1204 C1205 1.387 . S
C1205 H1161 0.930 . S
C1205 C1200 1.386 . S
C1205 C1204 1.387 . S
C1206 C1175 1.518 . S
C1206 C1207 1.377 1_565 S
C1206 C1211 1.361 . S
C1207 H1162 0.929 . S
C1207 C1206 1.377 1_545 S
C1207 C1208 1.386 . S
C1208 H1163 0.931 . S
C1208 C1207 1.386 . S
C1208 C1209 1.363 1_545 S
C1209 C1208 1.363 1_565 S
C1209 C1210 1.385 . S
C1210 H1164 0.930 . S
C1210 C1209 1.385 . S
C1210 C1211 1.396 . S
C1211 H1165 0.929 . S
C1211 C1206 1.361 . S
C1211 C1210 1.396 . S
C1212 O1166 1.300 . S
C1212 O1167 1.209 1_545 S
C1212 C1185 1.486 . S
C1213 O1168 1.199 1_565 S
C1213 O1169 1.297 . S
C1213 C1197 1.476 . S
H1214 O1240 0.856 . S
H1215 O1243 0.854 . S
H1216 C1251 0.930 . S
H1217 C1252 0.930 . S
H1218 C1254 0.930 . S
H1219 C1255 0.930 . S
H1220 C1257 0.931 . S
H1221 C1258 0.930 . S
H1222 C1260 0.930 . S
H1223 C1261 0.929 . S
H1224 C1263 0.930 . S
H1225 C1264 0.931 . S
H1226 C1266 0.930 . S
H1227 C1267 0.929 . S
H1228 C1269 0.931 . S
H1229 C1270 0.930 . S
H1230 C1272 0.930 . S
H1231 C1273 0.932 . S
H1232 C1275 0.930 . S
H1233 C1276 0.929 . S
H1234 C1278 0.931 . S
H1235 C1279 0.930 . S
H1236 C1281 0.929 . S
H1237 C1282 0.931 . S
H1238 C1284 0.930 . S
H1239 C1285 0.929 . S
O1240 H1214 0.856 . S
O1240 C1286 1.300 . S
O1241 C1286 1.209 . S
O1242 C1287 1.199 1_655 S
O1243 H1215 0.854 . S
O1243 C1287 1.297 . S
C1244 C1245 1.404 . S
C1244 C1249 1.397 . S
C1244 C1250 1.492 . S
C1245 C1244 1.404 . S
C1245 C1246 1.396 . S
C1245 C1256 1.492 . S
C1246 C1245 1.396 . S
C1246 C1247 1.397 . S
C1246 C1262 1.509 . S
C1247 C1246 1.397 . S
C1247 C1248 1.412 1_655 S
C1247 C1268 1.485 1_655 S
C1248 C1247 1.412 1_455 S
C1248 C1249 1.387 1_455 S
C1248 C1274 1.490 . S
C1249 C1244 1.397 . S
C1249 C1248 1.387 1_655 S
C1249 C1280 1.520 1_655 S
C1250 C1244 1.492 . S
C1250 C1251 1.363 . S
C1250 C1255 1.390 1_655 S
C1251 H1216 0.930 . S
C1251 C1250 1.363 . S
C1251 C1252 1.372 . S
C1252 H1217 0.930 . S
C1252 C1251 1.372 . S
C1252 C1253 1.383 . S
C1253 C1252 1.383 . S
C1253 C1254 1.395 1_655 S
C1254 H1218 0.930 . S
C1254 C1253 1.395 1_455 S
C1254 C1255 1.362 . S
C1255 H1219 0.930 . S
C1255 C1250 1.390 1_455 S
C1255 C1254 1.362 . S
C1256 C1245 1.492 . S
C1256 C1257 1.377 . S
C1256 C1261 1.397 1_655 S
C1257 H1220 0.931 . S
C1257 C1256 1.377 . S
C1257 C1258 1.376 . S
C1258 H1221 0.930 . S
C1258 C1257 1.376 . S
C1258 C1259 1.376 . S
C1259 C1258 1.376 . S
C1259 C1260 1.378 1_655 S
C1259 C1286 1.486 . S
C1260 H1222 0.930 . S
C1260 C1259 1.378 1_455 S
C1260 C1261 1.376 . S
C1261 H1223 0.929 . S
C1261 C1256 1.397 1_455 S
C1261 C1260 1.376 . S
C1262 C1246 1.509 . S
C1262 C1263 1.391 . S
C1262 C1267 1.386 1_655 S
C1263 H1224 0.930 . S
C1263 C1262 1.391 . S
C1263 C1264 1.375 . S
C1264 H1225 0.931 . S
C1264 C1263 1.375 . S
C1264 C1265 1.375 . S
C1265 C1264 1.375 . S
C1265 C1266 1.361 1_655 S
C1266 H1226 0.930 . S
C1266 C1265 1.361 1_455 S
C1266 C1267 1.399 . S
C1267 H1227 0.929 . S
C1267 C1262 1.386 1_455 S
C1267 C1266 1.399 . S
C1268 C1247 1.485 1_455 S
C1268 C1269 1.394 1_455 S
C1268 C1273 1.360 . S
C1269 H1228 0.931 . S
C1269 C1268 1.394 1_655 S
C1269 C1270 1.372 . S
C1270 H1229 0.930 . S
C1270 C1269 1.372 . S
C1270 C1271 1.397 1_655 S
C1271 C1270 1.397 1_455 S
C1271 C1272 1.390 . S
C1271 C1287 1.476 . S
C1272 H1230 0.930 . S
C1272 C1271 1.390 . S
C1272 C1273 1.366 . S
C1273 H1231 0.932 . S
C1273 C1268 1.360 . S
C1273 C1272 1.366 . S
C1274 C1248 1.490 . S
C1274 C1275 1.380 1_455 S
C1274 C1279 1.386 . S
C1275 H1232 0.930 . S
C1275 C1274 1.380 1_655 S
C1275 C1276 1.381 . S
C1276 H1233 0.929 . S
C1276 C1275 1.381 . S
C1276 C1277 1.371 1_656 S
C1277 C1276 1.371 1_454 S
C1277 C1278 1.380 1_554 S
C1278 H1234 0.931 . S
C1278 C1277 1.380 1_556 S
C1278 C1279 1.387 . S
C1279 H1235 0.930 . S
C1279 C1274 1.386 . S
C1279 C1278 1.387 . S
C1280 C1249 1.520 1_455 S
C1280 C1281 1.377 1_455 S
C1280 C1285 1.361 . S
C1281 H1236 0.929 . S
C1281 C1280 1.377 1_655 S
C1281 C1282 1.386 . S
C1282 H1237 0.931 . S
C1282 C1281 1.386 . S
C1282 C1283 1.363 1_655 S
C1283 C1282 1.363 1_455 S
C1283 C1284 1.385 . S
C1284 H1238 0.930 . S
C1284 C1283 1.385 . S
C1284 C1285 1.396 . S
C1285 H1239 0.929 . S
C1285 C1280 1.361 . S
C1285 C1284 1.396 . S
C1286 O1240 1.300 . S
C1286 O1241 1.209 . S
C1286 C1259 1.486 . S
C1287 O1242 1.199 1_455 S
C1287 O1243 1.297 . S
C1287 C1271 1.476 . S
H1288 O1314 0.856 . S
H1289 O1317 0.854 . S
H1290 C1325 0.930 . S
H1291 C1326 0.930 . S
H1292 C1328 0.930 . S
H1293 C1329 0.930 . S
H1294 C1331 0.931 . S
H1295 C1332 0.930 . S
H1296 C1334 0.930 . S
H1297 C1335 0.929 . S
H1298 C1337 0.930 . S
H1299 C1338 0.931 . S
H1300 C1340 0.930 . S
H1301 C1341 0.929 . S
H1302 C1343 0.931 . S
H1303 C1344 0.930 . S
H1304 C1346 0.930 . S
H1305 C1347 0.932 . S
H1306 C1349 0.930 . S
H1307 C1350 0.929 . S
H1308 C1352 0.931 . S
H1309 C1353 0.930 . S
H1310 C1355 0.929 . S
H1311 C1356 0.931 . S
H1312 C1358 0.930 . S
H1313 C1359 0.929 . S
O1314 H1288 0.856 . S
O1314 C1360 1.300 . S
O1315 C1360 1.209 . S
O1316 C1361 1.199 . S
O1317 H1289 0.854 . S
O1317 C1361 1.297 . S
C1318 C1319 1.404 . S
C1318 C1323 1.397 . S
C1318 C1324 1.492 . S
C1319 C1318 1.404 . S
C1319 C1320 1.396 . S
C1319 C1330 1.492 . S
C1320 C1319 1.396 . S
C1320 C1321 1.397 . S
C1320 C1336 1.509 . S
C1321 C1320 1.397 . S
C1321 C1322 1.412 . S
C1321 C1342 1.485 . S
C1322 C1321 1.412 . S
C1322 C1323 1.388 . S
C1322 C1348 1.490 . S
C1323 C1318 1.397 . S
C1323 C1322 1.388 . S
C1323 C1354 1.519 . S
C1324 C1318 1.492 . S
C1324 C1325 1.363 . S
C1324 C1329 1.390 . S
C1325 H1290 0.930 . S
C1325 C1324 1.363 . S
C1325 C1326 1.372 . S
C1326 H1291 0.930 . S
C1326 C1325 1.372 . S
C1326 C1327 1.383 . S
C1327 C1326 1.383 . S
C1327 C1328 1.395 . S
C1328 H1292 0.930 . S
C1328 C1327 1.395 . S
C1328 C1329 1.362 . S
C1329 H1293 0.930 . S
C1329 C1324 1.390 . S
C1329 C1328 1.362 . S
C1330 C1319 1.492 . S
C1330 C1331 1.377 . S
C1330 C1335 1.397 . S
C1331 H1294 0.931 . S
C1331 C1330 1.377 . S
C1331 C1332 1.376 . S
C1332 H1295 0.930 . S
C1332 C1331 1.376 . S
C1332 C1333 1.376 . S
C1333 C1332 1.376 . S
C1333 C1334 1.378 . S
C1333 C1360 1.486 . S
C1334 H1296 0.930 . S
C1334 C1333 1.378 . S
C1334 C1335 1.376 . S
C1335 H1297 0.929 . S
C1335 C1330 1.397 . S
C1335 C1334 1.376 . S
C1336 C1320 1.509 . S
C1336 C1337 1.391 . S
C1336 C1341 1.386 . S
C1337 H1298 0.930 . S
C1337 C1336 1.391 . S
C1337 C1338 1.375 . S
C1338 H1299 0.931 . S
C1338 C1337 1.375 . S
C1338 C1339 1.375 . S
C1339 C1338 1.375 . S
C1339 C1340 1.361 . S
C1340 H1300 0.930 . S
C1340 C1339 1.361 . S
C1340 C1341 1.399 . S
C1341 H1301 0.929 . S
C1341 C1336 1.386 . S
C1341 C1340 1.399 . S
C1342 C1321 1.485 . S
C1342 C1343 1.394 . S
C1342 C1347 1.360 . S
C1343 H1302 0.931 . S
C1343 C1342 1.394 . S
C1343 C1344 1.372 . S
C1344 H1303 0.930 . S
C1344 C1343 1.372 . S
C1344 C1345 1.397 . S
C1345 C1344 1.397 . S
C1345 C1346 1.390 . S
C1345 C1361 1.476 . S
C1346 H1304 0.930 . S
C1346 C1345 1.390 . S
C1346 C1347 1.366 . S
C1347 H1305 0.932 . S
C1347 C1342 1.360 . S
C1347 C1346 1.366 . S
C1348 C1322 1.490 . S
C1348 C1349 1.380 . S
C1348 C1353 1.386 . S
C1349 H1306 0.930 . S
C1349 C1348 1.380 . S
C1349 C1350 1.381 . S
C1350 H1307 0.929 . S
C1350 C1349 1.381 . S
C1350 C1351 1.371 . S
C1351 C1350 1.371 . S
C1351 C1352 1.380 . S
C1352 H1308 0.931 . S
C1352 C1351 1.380 . S
C1352 C1353 1.387 . S
C1353 H1309 0.930 . S
C1353 C1348 1.386 . S
C1353 C1352 1.387 . S
C1354 C1323 1.519 . S
C1354 C1355 1.377 . S
C1354 C1359 1.361 . S
C1355 H1310 0.929 . S
C1355 C1354 1.377 . S
C1355 C1356 1.386 . S
C1356 H1311 0.931 . S
C1356 C1355 1.386 . S
C1356 C1357 1.363 . S
C1357 C1356 1.363 . S
C1357 C1358 1.385 . S
C1358 H1312 0.930 . S
C1358 C1357 1.385 . S
C1358 C1359 1.396 . S
C1359 H1313 0.929 . S
C1359 C1354 1.361 . S
C1359 C1358 1.396 . S
C1360 O1314 1.300 . S
C1360 O1315 1.209 . S
C1360 C1333 1.486 . S
C1361 O1316 1.199 . S
C1361 O1317 1.297 . S
C1361 C1345 1.476 . S
H1362 O1388 0.856 . S
H1363 O1391 0.854 . S
H1364 C1399 0.930 . S
H1365 C1400 0.930 . S
H1366 C1402 0.930 . S
H1367 C1403 0.930 . S
H1368 C1405 0.931 . S
H1369 C1406 0.930 . S
H1370 C1408 0.930 . S
H1371 C1409 0.929 . S
H1372 C1411 0.930 . S
H1373 C1412 0.931 . S
H1374 C1414 0.930 . S
H1375 C1415 0.929 . S
H1376 C1417 0.931 . S
H1377 C1418 0.930 . S
H1378 C1420 0.930 . S
H1379 C1421 0.932 . S
H1380 C1423 0.930 . S
H1381 C1424 0.929 . S
H1382 C1426 0.931 . S
H1383 C1427 0.930 . S
H1384 C1429 0.929 . S
H1385 C1430 0.931 . S
H1386 C1432 0.930 . S
H1387 C1433 0.929 . S
O1388 H1362 0.856 . S
O1388 C1434 1.300 . S
O1389 C1434 1.209 . S
O1390 C1435 1.199 . S
O1391 H1363 0.854 . S
O1391 C1435 1.297 . S
C1392 C1393 1.404 . S
C1392 C1397 1.397 . S
C1392 C1398 1.492 . S
C1393 C1392 1.404 . S
C1393 C1394 1.396 . S
C1393 C1404 1.492 . S
C1394 C1393 1.396 . S
C1394 C1395 1.397 . S
C1394 C1410 1.509 . S
C1395 C1394 1.397 . S
C1395 C1396 1.412 . S
C1395 C1416 1.485 . S
C1396 C1395 1.412 . S
C1396 C1397 1.388 . S
C1396 C1422 1.490 . S
C1397 C1392 1.397 . S
C1397 C1396 1.388 . S
C1397 C1428 1.519 . S
C1398 C1392 1.492 . S
C1398 C1399 1.363 . S
C1398 C1403 1.390 . S
C1399 H1364 0.930 . S
C1399 C1398 1.363 . S
C1399 C1400 1.372 . S
C1400 H1365 0.930 . S
C1400 C1399 1.372 . S
C1400 C1401 1.383 . S
C1401 C1400 1.383 . S
C1401 C1402 1.395 . S
C1402 H1366 0.930 . S
C1402 C1401 1.395 . S
C1402 C1403 1.362 . S
C1403 H1367 0.930 . S
C1403 C1398 1.390 . S
C1403 C1402 1.362 . S
C1404 C1393 1.492 . S
C1404 C1405 1.377 . S
C1404 C1409 1.397 . S
C1405 H1368 0.931 . S
C1405 C1404 1.377 . S
C1405 C1406 1.376 . S
C1406 H1369 0.930 . S
C1406 C1405 1.376 . S
C1406 C1407 1.376 . S
C1407 C1406 1.376 . S
C1407 C1408 1.378 . S
C1407 C1434 1.486 . S
C1408 H1370 0.930 . S
C1408 C1407 1.378 . S
C1408 C1409 1.376 . S
C1409 H1371 0.929 . S
C1409 C1404 1.397 . S
C1409 C1408 1.376 . S
C1410 C1394 1.509 . S
C1410 C1411 1.391 . S
C1410 C1415 1.386 . S
C1411 H1372 0.930 . S
C1411 C1410 1.391 . S
C1411 C1412 1.375 . S
C1412 H1373 0.931 . S
C1412 C1411 1.375 . S
C1412 C1413 1.375 . S
C1413 C1412 1.375 . S
C1413 C1414 1.361 . S
C1414 H1374 0.930 . S
C1414 C1413 1.361 . S
C1414 C1415 1.399 . S
C1415 H1375 0.929 . S
C1415 C1410 1.386 . S
C1415 C1414 1.399 . S
C1416 C1395 1.485 . S
C1416 C1417 1.394 . S
C1416 C1421 1.360 . S
C1417 H1376 0.931 . S
C1417 C1416 1.394 . S
C1417 C1418 1.372 . S
C1418 H1377 0.930 . S
C1418 C1417 1.372 . S
C1418 C1419 1.397 . S
C1419 C1418 1.397 . S
C1419 C1420 1.390 . S
C1419 C1435 1.476 . S
C1420 H1378 0.930 . S
C1420 C1419 1.390 . S
C1420 C1421 1.366 . S
C1421 H1379 0.932 . S
C1421 C1416 1.360 . S
C1421 C1420 1.366 . S
C1422 C1396 1.490 . S
C1422 C1423 1.380 . S
C1422 C1427 1.386 . S
C1423 H1380 0.930 . S
C1423 C1422 1.380 . S
C1423 C1424 1.381 . S
C1424 H1381 0.929 . S
C1424 C1423 1.381 . S
C1424 C1425 1.371 . S
C1425 C1424 1.371 . S
C1425 C1426 1.380 . S
C1426 H1382 0.931 . S
C1426 C1425 1.380 . S
C1426 C1427 1.387 . S
C1427 H1383 0.930 . S
C1427 C1422 1.386 . S
C1427 C1426 1.387 . S
C1428 C1397 1.519 . S
C1428 C1429 1.377 . S
C1428 C1433 1.361 . S
C1429 H1384 0.929 . S
C1429 C1428 1.377 . S
C1429 C1430 1.386 . S
C1430 H1385 0.931 . S
C1430 C1429 1.386 . S
C1430 C1431 1.363 . S
C1431 C1430 1.363 . S
C1431 C1432 1.385 . S
C1432 H1386 0.930 . S
C1432 C1431 1.385 . S
C1432 C1433 1.396 . S
C1433 H1387 0.929 . S
C1433 C1428 1.361 . S
C1433 C1432 1.396 . S
C1434 O1388 1.300 . S
C1434 O1389 1.209 . S
C1434 C1407 1.486 . S
C1435 O1390 1.199 . S
C1435 O1391 1.297 . S
C1435 C1419 1.476 . S
H1436 O1462 0.856 . S
H1437 O1465 0.854 . S
H1438 C1473 0.930 . S
H1439 C1474 0.930 . S
H1440 C1476 0.930 . S
H1441 C1477 0.930 . S
H1442 C1479 0.931 . S
H1443 C1480 0.930 . S
H1444 C1482 0.930 . S
H1445 C1483 0.929 . S
H1446 C1485 0.930 . S
H1447 C1486 0.931 . S
H1448 C1488 0.930 . S
H1449 C1489 0.929 . S
H1450 C1491 0.931 . S
H1451 C1492 0.930 . S
H1452 C1494 0.930 . S
H1453 C1495 0.932 . S
H1454 C1497 0.930 . S
H1455 C1498 0.929 . S
H1456 C1500 0.931 . S
H1457 C1501 0.930 . S
H1458 C1503 0.929 . S
H1459 C1504 0.931 . S
H1460 C1506 0.930 . S
H1461 C1507 0.929 . S
O1462 H1436 0.856 . S
O1462 C1508 1.300 . S
O1463 C1508 1.209 . S
O1464 C1509 1.199 . S
O1465 H1437 0.854 . S
O1465 C1509 1.297 . S
C1466 C1467 1.404 . S
C1466 C1471 1.397 . S
C1466 C1472 1.492 . S
C1467 C1466 1.404 . S
C1467 C1468 1.396 . S
C1467 C1478 1.492 . S
C1468 C1467 1.396 . S
C1468 C1469 1.397 . S
C1468 C1484 1.509 . S
C1469 C1468 1.397 . S
C1469 C1470 1.412 . S
C1469 C1490 1.485 . S
C1470 C1469 1.412 . S
C1470 C1471 1.388 . S
C1470 C1496 1.490 . S
C1471 C1466 1.397 . S
C1471 C1470 1.388 . S
C1471 C1502 1.519 . S
C1472 C1466 1.492 . S
C1472 C1473 1.363 . S
C1472 C1477 1.390 . S
C1473 H1438 0.930 . S
C1473 C1472 1.363 . S
C1473 C1474 1.372 . S
C1474 H1439 0.930 . S
C1474 C1473 1.372 . S
C1474 C1475 1.383 . S
C1475 C1474 1.383 . S
C1475 C1476 1.395 . S
C1476 H1440 0.930 . S
C1476 C1475 1.395 . S
C1476 C1477 1.362 . S
C1477 H1441 0.930 . S
C1477 C1472 1.390 . S
C1477 C1476 1.362 . S
C1478 C1467 1.492 . S
C1478 C1479 1.377 . S
C1478 C1483 1.397 . S
C1479 H1442 0.931 . S
C1479 C1478 1.377 . S
C1479 C1480 1.376 . S
C1480 H1443 0.930 . S
C1480 C1479 1.376 . S
C1480 C1481 1.376 . S
C1481 C1480 1.376 . S
C1481 C1482 1.378 . S
C1481 C1508 1.486 . S
C1482 H1444 0.930 . S
C1482 C1481 1.378 . S
C1482 C1483 1.376 . S
C1483 H1445 0.929 . S
C1483 C1478 1.397 . S
C1483 C1482 1.376 . S
C1484 C1468 1.509 . S
C1484 C1485 1.391 . S
C1484 C1489 1.386 . S
C1485 H1446 0.930 . S
C1485 C1484 1.391 . S
C1485 C1486 1.375 . S
C1486 H1447 0.931 . S
C1486 C1485 1.375 . S
C1486 C1487 1.375 . S
C1487 C1486 1.375 . S
C1487 C1488 1.361 . S
C1488 H1448 0.930 . S
C1488 C1487 1.361 . S
C1488 C1489 1.399 . S
C1489 H1449 0.929 . S
C1489 C1484 1.386 . S
C1489 C1488 1.399 . S
C1490 C1469 1.485 . S
C1490 C1491 1.394 . S
C1490 C1495 1.360 . S
C1491 H1450 0.931 . S
C1491 C1490 1.394 . S
C1491 C1492 1.372 . S
C1492 H1451 0.930 . S
C1492 C1491 1.372 . S
C1492 C1493 1.397 . S
C1493 C1492 1.397 . S
C1493 C1494 1.390 . S
C1493 C1509 1.476 1_455 S
C1494 H1452 0.930 . S
C1494 C1493 1.390 . S
C1494 C1495 1.366 . S
C1495 H1453 0.932 . S
C1495 C1490 1.360 . S
C1495 C1494 1.366 . S
C1496 C1470 1.490 . S
C1496 C1497 1.380 . S
C1496 C1501 1.386 . S
C1497 H1454 0.930 . S
C1497 C1496 1.380 . S
C1497 C1498 1.381 . S
C1498 H1455 0.929 . S
C1498 C1497 1.381 . S
C1498 C1499 1.371 . S
C1499 C1498 1.371 . S
C1499 C1500 1.380 . S
C1500 H1456 0.931 . S
C1500 C1499 1.380 . S
C1500 C1501 1.387 . S
C1501 H1457 0.930 . S
C1501 C1496 1.386 . S
C1501 C1500 1.387 . S
C1502 C1471 1.519 . S
C1502 C1503 1.377 . S
C1502 C1507 1.361 . S
C1503 H1458 0.929 . S
C1503 C1502 1.377 . S
C1503 C1504 1.386 . S
C1504 H1459 0.931 . S
C1504 C1503 1.386 . S
C1504 C1505 1.363 . S
C1505 C1504 1.363 . S
C1505 C1506 1.385 . S
C1506 H1460 0.930 . S
C1506 C1505 1.385 . S
C1506 C1507 1.396 . S
C1507 H1461 0.929 . S
C1507 C1502 1.361 . S
C1507 C1506 1.396 . S
C1508 O1462 1.300 . S
C1508 O1463 1.209 . S
C1508 C1481 1.486 . S
C1509 O1464 1.199 . S
C1509 O1465 1.297 . S
C1509 C1493 1.476 1_655 S
H1510 O1536 0.856 . S
H1511 O1539 0.854 . S
H1512 C1547 0.930 . S
H1513 C1548 0.930 . S
H1514 C1550 0.930 . S
H1515 C1551 0.930 . S
H1516 C1553 0.931 . S
H1517 C1554 0.930 . S
H1518 C1556 0.930 . S
H1519 C1557 0.929 . S
H1520 C1559 0.930 . S
H1521 C1560 0.931 . S
H1522 C1562 0.930 . S
H1523 C1563 0.929 . S
H1524 C1565 0.931 . S
H1525 C1566 0.930 . S
H1526 C1568 0.930 . S
H1527 C1569 0.932 . S
H1528 C1571 0.930 . S
H1529 C1572 0.929 . S
H1530 C1574 0.931 . S
H1531 C1575 0.930 . S
H1532 C1577 0.929 . S
H1533 C1578 0.931 . S
H1534 C1580 0.930 . S
H1535 C1581 0.929 . S
O1536 H1510 0.856 . S
O1536 C1582 1.300 . S
O1537 C1582 1.209 . S
O1538 C1583 1.199 . S
O1539 H1511 0.854 . S
O1539 C1583 1.297 1_655 S
C1540 C1541 1.404 . S
C1540 C1545 1.397 . S
C1540 C1546 1.492 . S
C1541 C1540 1.404 . S
C1541 C1542 1.396 . S
C1541 C1552 1.492 . S
C1542 C1541 1.396 . S
C1542 C1543 1.397 . S
C1542 C1558 1.509 . S
C1543 C1542 1.397 . S
C1543 C1544 1.412 . S
C1543 C1564 1.485 . S
C1544 C1543 1.412 . S
C1544 C1545 1.388 . S
C1544 C1570 1.490 . S
C1545 C1540 1.397 . S
C1545 C1544 1.388 . S
C1545 C1576 1.519 . S
C1546 C1540 1.492 . S
C1546 C1547 1.363 . S
C1546 C1551 1.390 . S
C1547 H1512 0.930 . S
C1547 C1546 1.363 . S
C1547 C1548 1.372 . S
C1548 H1513 0.930 . S
C1548 C1547 1.372 . S
C1548 C1549 1.383 . S
C1549 C1548 1.383 . S
C1549 C1550 1.395 . S
C1550 H1514 0.930 . S
C1550 C1549 1.395 . S
C1550 C1551 1.362 . S
C1551 H1515 0.930 . S
C1551 C1546 1.390 . S
C1551 C1550 1.362 . S
C1552 C1541 1.492 . S
C1552 C1553 1.377 . S
C1552 C1557 1.397 . S
C1553 H1516 0.931 . S
C1553 C1552 1.377 . S
C1553 C1554 1.376 . S
C1554 H1517 0.930 . S
C1554 C1553 1.376 . S
C1554 C1555 1.376 . S
C1555 C1554 1.376 . S
C1555 C1556 1.378 . S
C1555 C1582 1.486 . S
C1556 H1518 0.930 . S
C1556 C1555 1.378 . S
C1556 C1557 1.376 . S
C1557 H1519 0.929 . S
C1557 C1552 1.397 . S
C1557 C1556 1.376 . S
C1558 C1542 1.509 . S
C1558 C1559 1.391 . S
C1558 C1563 1.386 . S
C1559 H1520 0.930 . S
C1559 C1558 1.391 . S
C1559 C1560 1.375 . S
C1560 H1521 0.931 . S
C1560 C1559 1.375 . S
C1560 C1561 1.375 . S
C1561 C1560 1.375 . S
C1561 C1562 1.361 . S
C1562 H1522 0.930 . S
C1562 C1561 1.361 . S
C1562 C1563 1.399 . S
C1563 H1523 0.929 . S
C1563 C1558 1.386 . S
C1563 C1562 1.399 . S
C1564 C1543 1.485 . S
C1564 C1565 1.394 . S
C1564 C1569 1.360 . S
C1565 H1524 0.931 . S
C1565 C1564 1.394 . S
C1565 C1566 1.372 . S
C1566 H1525 0.930 . S
C1566 C1565 1.372 . S
C1566 C1567 1.397 . S
C1567 C1566 1.397 . S
C1567 C1568 1.390 . S
C1567 C1583 1.476 . S
C1568 H1526 0.930 . S
C1568 C1567 1.390 . S
C1568 C1569 1.366 . S
C1569 H1527 0.932 . S
C1569 C1564 1.360 . S
C1569 C1568 1.366 . S
C1570 C1544 1.490 . S
C1570 C1571 1.380 . S
C1570 C1575 1.386 . S
C1571 H1528 0.930 . S
C1571 C1570 1.380 . S
C1571 C1572 1.381 . S
C1572 H1529 0.929 . S
C1572 C1571 1.381 . S
C1572 C1573 1.371 . S
C1573 C1572 1.371 . S
C1573 C1574 1.380 . S
C1574 H1530 0.931 . S
C1574 C1573 1.380 . S
C1574 C1575 1.387 . S
C1575 H1531 0.930 . S
C1575 C1570 1.386 . S
C1575 C1574 1.387 . S
C1576 C1545 1.519 . S
C1576 C1577 1.377 . S
C1576 C1581 1.361 . S
C1577 H1532 0.929 . S
C1577 C1576 1.377 . S
C1577 C1578 1.386 . S
C1578 H1533 0.931 . S
C1578 C1577 1.386 . S
C1578 C1579 1.363 . S
C1579 C1578 1.363 . S
C1579 C1580 1.385 . S
C1580 H1534 0.930 . S
C1580 C1579 1.385 . S
C1580 C1581 1.396 . S
C1581 H1535 0.929 . S
C1581 C1576 1.361 . S
C1581 C1580 1.396 . S
C1582 O1536 1.300 . S
C1582 O1537 1.209 . S
C1582 C1555 1.486 . S
C1583 O1538 1.199 . S
C1583 O1539 1.297 1_455 S
C1583 C1567 1.476 . S
C13 C981 1.430 . S
C27 C1061 1.386 . S
C1129 C36 1.259 . S
C41 C1209 2.001 . S
C8 C1283 1.583 . S
C22 C1351 1.756 1_554 S
C55 C1277 1.604 . S
C1357 C69 1.436 . S
C1203 C78 1.137 1_556 S
C83 C1135 2.262 1_545 S
C987 C50 1.466 . S
C64 C1055 1.271 . S
C97 C1425 1.775 . S
C111 C1505 1.544 . S
C1573 C120 2.129 . S
C125 C321 2.274 . S
C92 C395 2.206 . S
C106 C463 1.909 . S
C139 C389 1.264 . S
C153 C469 1.441 . S
C315 C162 1.364 . S
C1579 C167 2.148 . S
C1431 C134 1.691 . S
C1499 C148 1.406 . S
C181 C537 1.680 . S
C195 C617 1.528 . S
C204 C685 2.088 . S
C209 C765 2.355 . S
C839 C176 2.244 . S
C907 C190 2.031 . S
C833 C223 1.337 . S
C913 C237 1.371 . S
C246 C759 1.364 . S
C691 C251 2.085 . S
C218 C543 1.686 . S
C611 C232 1.325 . S
C291 C11 2.651 . S
C25 C365 1.666 . S
C451 C35 1.883 . S
C525 C39 1.725 . S
C587 C7 2.066 . S
C673 C21 2.052 . S
C53 C661 3.112 1_554 S
C67 C513 2.382 . S
C77 C599 2.742 . S
C81 C377 2.629 . S
C439 C49 2.746 . S
C63 C303 2.941 . S
C735 C95 2.463 . S
C109 C809 1.679 . S
C119 C895 1.862 1_455 S
C969 C123 1.398 . S
C91 C1031 1.824 . S
C105 C1117 1.431 . S
C137 C1105 2.395 1_565 S
C151 C957 1.629 1_455 S
C1043 C161 2.463 . S
C165 C821 2.647 . S
C133 C883 2.643 . S
C747 C147 2.896 . S
C1179 C179 2.174 . S
C193 C1253 1.115 . S
C203 C1339 1.667 . S
C1413 C207 1.794 . S
C1475 C175 2.008 . S
C189 C1561 2.030 . S
C221 C1549 2.962 . S
C235 C1401 2.362 . S
C1487 C245 2.672 . S
C1265 C249 1.887 . S
C1327 C217 2.467 . S
C231 C1191 2.052 . S
