# Generated by pormake.
# Topology cml, (3,6)-cn, num edge types: 1
# Building blocks:
#     Node 0, Type 0, BuildingBlock: BETDAH_clean_linker_0, # of connection points: 3
#     Node 1, Type 0, BuildingBlock: BETDAH_clean_linker_0, # of connection points: 3
#     Node 2, Type 0, BuildingBlock: BETDAH_clean_linker_0, # of connection points: 3
#     Node 3, Type 0, BuildingBlock: BETDAH_clean_linker_0, # of connection points: 3
#     Node 4, Type 0, BuildingBlock: BETDAH_clean_linker_0, # of connection points: 3
#     Node 5, Type 0, BuildingBlock: BETDAH_clean_linker_0, # of connection points: 3
#     Node 6, Type 0, BuildingBlock: BETDAH_clean_linker_0, # of connection points: 3
#     Node 7, Type 0, BuildingBlock: BETDAH_clean_linker_0, # of connection points: 3
#     Node 8, Type 1, BuildingBlock: OJICUG_clean_sbu_0, # of connection points: 6
#     Node 9, Type 1, BuildingBlock: OJICUG_clean_sbu_0, # of connection points: 6
#     Node 10, Type 1, BuildingBlock: OJICUG_clean_sbu_0, # of connection points: 6
#     Node 11, Type 1, BuildingBlock: OJICUG_clean_sbu_0, # of connection points: 6
#     Edge 12, Type (0, 1), BuildingBlock: XUDNAN_clean_linker_2, # of connection points: 2
#     Edge 13, Type (0, 1), BuildingBlock: XUDNAN_clean_linker_2, # of connection points: 2
#     Edge 14, Type (0, 1), BuildingBlock: XUDNAN_clean_linker_2, # of connection points: 2
#     Edge 15, Type (0, 1), BuildingBlock: XUDNAN_clean_linker_2, # of connection points: 2
#     Edge 16, Type (0, 1), BuildingBlock: XUDNAN_clean_linker_2, # of connection points: 2
#     Edge 17, Type (0, 1), BuildingBlock: XUDNAN_clean_linker_2, # of connection points: 2
#     Edge 18, Type (0, 1), BuildingBlock: XUDNAN_clean_linker_2, # of connection points: 2
#     Edge 19, Type (0, 1), BuildingBlock: XUDNAN_clean_linker_2, # of connection points: 2
#     Edge 20, Type (0, 1), BuildingBlock: XUDNAN_clean_linker_2, # of connection points: 2
#     Edge 21, Type (0, 1), BuildingBlock: XUDNAN_clean_linker_2, # of connection points: 2
#     Edge 22, Type (0, 1), BuildingBlock: XUDNAN_clean_linker_2, # of connection points: 2
#     Edge 23, Type (0, 1), BuildingBlock: XUDNAN_clean_linker_2, # of connection points: 2
#     Edge 24, Type (0, 1), BuildingBlock: XUDNAN_clean_linker_2, # of connection points: 2
#     Edge 25, Type (0, 1), BuildingBlock: XUDNAN_clean_linker_2, # of connection points: 2
#     Edge 26, Type (0, 1), BuildingBlock: XUDNAN_clean_linker_2, # of connection points: 2
#     Edge 27, Type (0, 1), BuildingBlock: XUDNAN_clean_linker_2, # of connection points: 2
#     Edge 28, Type (0, 1), BuildingBlock: XUDNAN_clean_linker_2, # of connection points: 2
#     Edge 29, Type (0, 1), BuildingBlock: XUDNAN_clean_linker_2, # of connection points: 2
#     Edge 30, Type (0, 1), BuildingBlock: XUDNAN_clean_linker_2, # of connection points: 2
#     Edge 31, Type (0, 1), BuildingBlock: XUDNAN_clean_linker_2, # of connection points: 2
#     Edge 32, Type (0, 1), BuildingBlock: XUDNAN_clean_linker_2, # of connection points: 2
#     Edge 33, Type (0, 1), BuildingBlock: XUDNAN_clean_linker_2, # of connection points: 2
#     Edge 34, Type (0, 1), BuildingBlock: XUDNAN_clean_linker_2, # of connection points: 2
#     Edge 35, Type (0, 1), BuildingBlock: XUDNAN_clean_linker_2, # of connection points: 2
# Relax obj value: 0.007
# Max RMSD: 0.051
# Mean RMSD: 0.043
data_MOF--net-cml--node1-OJICUG_clean_sbu_0--node2-BETDAH_clean_linker_0--edge1-XUDNAN_clean_linker_2
_symmetry_space_group_name_H-M    P1
_symmetry_Int_Tables_number       1
_symmetry_cell_setting            triclinic
loop_
_symmetry_equiv_pos_as_xyz
'x, y, z'
_cell_length_a     40.567136
_cell_length_b     39.589861
_cell_length_c     35.230708
_cell_angle_alpha  89.311917
_cell_angle_beta   90.914711
_cell_angle_gamma 90.761087
loop_
_atom_site_label
_atom_site_type_symbol
_atom_site_fract_x
_atom_site_fract_y
_atom_site_fract_z
_atom_type_partial_charge
H0 H 0.34931 0.40951 0.00495 0.0
H1 H 0.25895 0.42111 0.94113 0.0
H2 H 0.26444 0.34749 0.03153 0.0
C3 C 0.32374 0.4024 -0.00026 0.0
C4 C 0.30893 0.3771 0.02238 0.0
C5 C 0.30616 0.41817 0.97005 0.0
C6 C 0.27321 0.40858 0.96331 0.0
C7 C 0.25832 0.38278 0.98473 0.0
C8 C 0.27629 0.36669 0.01411 0.0
N9 N 0.22461 0.37523 0.97735 0.0
C10 C 0.21052 0.34313 0.97974 0.0
H11 H 0.66447 0.58519 0.50612 0.0
H12 H 0.73205 0.61182 0.41786 0.0
H13 H 0.72929 0.67212 0.51754 0.0
C14 C 0.68376 0.60154 0.49529 0.0
C15 C 0.69519 0.62926 0.51701 0.0
C16 C 0.69613 0.59533 0.45903 0.0
C17 C 0.72155 0.6163 0.4454 0.0
C18 C 0.73385 0.64341 0.4665 0.0
C19 C 0.72072 0.65002 0.5023 0.0
N20 N 0.75741 0.66491 0.44883 0.0
C21 C 0.7809 0.68517 0.46689 0.0
H22 H 0.66943 0.42332 0.0201 0.0
H23 H 0.72609 0.42325 0.91838 0.0
H24 H 0.73893 0.34403 0.00186 0.0
C25 C 0.68846 0.41212 0.00324 0.0
C26 C 0.70352 0.38207 0.01568 0.0
C27 C 0.69645 0.42717 0.96834 0.0
C28 C 0.7197 0.41184 0.94546 0.0
C29 C 0.73527 0.3821 0.95735 0.0
C30 C 0.7271 0.36711 0.99253 0.0
N31 N 0.75879 0.36814 0.93287 0.0
C32 C 0.77795 0.34012 0.94119 0.0
H33 H 0.35132 0.5805 0.48884 0.0
H34 H 0.31455 0.68169 0.48734 0.0
H35 H 0.33333 0.6323 0.38231 0.0
C36 C 0.34303 0.60242 0.47289 0.0
C37 C 0.34331 0.60228 0.43296 0.0
C38 C 0.33347 0.63119 0.49266 0.0
C39 C 0.32204 0.65944 0.47225 0.0
C40 C 0.32135 0.65939 0.4324 0.0
C41 C 0.33274 0.63128 0.41303 0.0
N42 N 0.31014 0.68768 0.4111 0.0
C43 C 0.28509 0.70818 0.42351 0.0
H44 H 0.84036 0.90243 0.06199 0.0
H45 H 0.76681 0.86455 0.98331 0.0
H46 H 0.78639 0.81107 0.08744 0.0
C47 C 0.82156 0.88398 0.05453 0.0
C48 C 0.81502 0.85704 0.07978 0.0
C49 C 0.8049 0.88677 0.01924 0.0
C50 C 0.78023 0.86265 0.01004 0.0
C51 C 0.7735 0.83561 0.03513 0.0
C52 C 0.79117 0.83281 0.0693 0.0
N53 N 0.74995 0.80988 0.02686 0.0
C54 C 0.72723 0.81033 0.99704 0.0
H55 H 0.1764 0.09573 0.55385 0.0
H56 H 0.2355 0.15177 0.4736 0.0
H57 H 0.2234 0.18843 0.58711 0.0
C58 C 0.19276 0.11673 0.54701 0.0
C59 C 0.19938 0.14088 0.57483 0.0
C60 C 0.20539 0.12029 0.51024 0.0
C61 C 0.22555 0.14861 0.50177 0.0
C62 C 0.2321 0.17322 0.52968 0.0
C63 C 0.21847 0.16942 0.56578 0.0
N64 N 0.25156 0.20256 0.52245 0.0
C65 C 0.27458 0.20575 0.49383 0.0
H66 H 0.17444 0.90817 0.05759 0.0
H67 H 0.25439 0.90231 0.97912 0.0
H68 H 0.26358 0.85752 0.09053 0.0
C69 C 0.19928 0.90048 0.05118 0.0
C70 C 0.21735 0.88206 0.07838 0.0
C71 C 0.21244 0.90845 0.01552 0.0
C72 C 0.24379 0.89633 0.00646 0.0
C73 C 0.26217 0.87791 0.03369 0.0
C74 C 0.24904 0.87129 0.06957 0.0
N75 N 0.29462 0.86719 0.02664 0.0
C76 C 0.30432 0.85359 0.99252 0.0
H77 H 0.83524 0.07266 0.55335 0.0
H78 H 0.74412 0.11979 0.58049 0.0
H79 H 0.75454 0.07315 0.47212 0.0
C80 C 0.81055 0.07993 0.54488 0.0
C81 C 0.79788 0.07093 0.50895 0.0
C82 C 0.79172 0.09803 0.57056 0.0
C83 C 0.75927 0.10656 0.56059 0.0
C84 C 0.74594 0.09712 0.52528 0.0
C85 C 0.76526 0.07981 0.4994 0.0
N86 N 0.71225 0.10263 0.51703 0.0
C87 C 0.70197 0.13061 0.49623 0.0
Sc88 Sc 0.02215 0.82739 0.35355 0.0
Sc89 Sc 0.01961 0.91403 0.33243 0.0
Sc90 Sc 0.02604 0.88638 0.42778 0.0
O91 O 0.02265 0.87593 0.37135 0.0
C92 C 0.97731 0.82214 0.42731 0.0
C93 C 0.97117 0.85893 0.2953 0.0
C94 C 0.97106 0.93743 0.39604 0.0
C95 C 0.06944 0.865 0.29369 0.0
C96 C 0.07687 0.82588 0.41949 0.0
C97 C 0.06977 0.94626 0.39368 0.0
O98 O 0.98794 0.81108 0.39614 0.0
O99 O 0.98462 0.888 0.29638 0.0
O100 O 0.98703 0.92323 0.42316 0.0
O101 O 0.05674 0.83854 0.30874 0.0
O102 O 0.06581 0.85091 0.43755 0.0
O103 O 0.05449 0.94617 0.36194 0.0
O104 O 0.06358 0.81514 0.38899 0.0
O105 O 0.05988 0.89467 0.30096 0.0
O106 O 0.0636 0.92489 0.41992 0.0
O107 O 0.98023 0.8345 0.3164 0.0
O108 O 0.98836 0.84921 0.44229 0.0
O109 O 0.97866 0.93521 0.36131 0.0
Sc110 Sc 0.99941 0.16217 0.8365 0.0
Sc111 Sc 0.99517 0.07394 0.82748 0.0
Sc112 Sc 0.99591 0.10978 0.91857 0.0
O113 O 0.9968 0.11534 0.86093 0.0
C114 C 0.04796 0.17071 0.90818 0.0
C115 C 0.04791 0.12061 0.78489 0.0
C116 C 0.04384 0.05043 0.89457 0.0
C117 C 0.94825 0.12452 0.78124 0.0
C118 C 0.94903 0.17298 0.90435 0.0
C119 C 0.94441 0.05232 0.89167 0.0
O120 O 0.03805 0.17857 0.87484 0.0
O121 O 0.035 0.0922 0.7934 0.0
O122 O 0.03372 0.07155 0.91863 0.0
O123 O 0.96058 0.15122 0.79567 0.0
O124 O 0.95827 0.14764 0.92423 0.0
O125 O 0.95553 0.05081 0.85827 0.0
O126 O 0.96207 0.18108 0.87288 0.0
O127 O 0.95861 0.0952 0.78974 0.0
O128 O 0.95673 0.07194 0.9167 0.0
O129 O 0.03737 0.14841 0.79734 0.0
O130 O 0.03486 0.14689 0.92756 0.0
O131 O 0.03158 0.04813 0.86129 0.0
Sc132 Sc 0.5169 0.29919 0.28808 0.0
Sc133 Sc 0.51769 0.38727 0.27205 0.0
Sc134 Sc 0.51589 0.3557 0.36546 0.0
O135 O 0.51687 0.34733 0.30856 0.0
C136 C 0.46566 0.29306 0.35597 0.0
C137 C 0.46898 0.33611 0.22847 0.0
C138 C 0.4675 0.41277 0.33361 0.0
C139 C 0.56807 0.3372 0.23359 0.0
C140 C 0.56491 0.29332 0.36067 0.0
C141 C 0.56536 0.41413 0.33877 0.0
O142 O 0.4781 0.28276 0.32536 0.0
O143 O 0.48125 0.36515 0.23506 0.0
O144 O 0.47908 0.3943 0.36028 0.0
O145 O 0.55566 0.3104 0.2481 0.0
O146 O 0.55307 0.31875 0.37708 0.0
O147 O 0.55403 0.41455 0.30493 0.0
O148 O 0.5545 0.28302 0.32849 0.0
O149 O 0.55726 0.3665 0.24031 0.0
O150 O 0.55476 0.39364 0.364 0.0
O151 O 0.47897 0.30951 0.24547 0.0
O152 O 0.47655 0.31901 0.37341 0.0
O153 O 0.47812 0.41229 0.29989 0.0
Sc154 Sc 0.4978 0.69571 0.78068 0.0
Sc155 Sc 0.50235 0.60665 0.78593 0.0
Sc156 Sc 0.49355 0.65335 0.86932 0.0
O157 O 0.49791 0.65195 0.81194 0.0
C158 C 0.54244 0.7158 0.85235 0.0
C159 C 0.55089 0.65296 0.73654 0.0
C160 C 0.54816 0.59655 0.8593 0.0
C161 C 0.45213 0.64597 0.73121 0.0
C162 C 0.44399 0.71151 0.84338 0.0
C163 C 0.44974 0.58839 0.85009 0.0
O164 O 0.53351 0.71987 0.81783 0.0
O165 O 0.54014 0.62441 0.748 0.0
O166 O 0.53281 0.61814 0.87848 0.0
O167 O 0.46212 0.67549 0.74025 0.0
O168 O 0.45412 0.68906 0.8667 0.0
O169 O 0.46456 0.58289 0.81935 0.0
O170 O 0.45728 0.71682 0.81136 0.0
O171 O 0.46427 0.61911 0.74539 0.0
O172 O 0.45689 0.61324 0.87135 0.0
O173 O 0.53863 0.68081 0.74633 0.0
O174 O 0.52988 0.69325 0.87392 0.0
O175 O 0.54065 0.58984 0.82495 0.0
H176 H 0.17619 0.32454 0.91804 0.0
H177 H 0.20118 0.29364 0.0331 0.0
H178 H 0.16409 0.24338 0.02658 0.0
H179 H 0.09195 0.30318 0.92166 0.0
H180 H 0.08893 0.28892 0.87332 0.0
H181 H 0.11937 0.32033 0.88634 0.0
H182 H 0.16555 0.28281 0.86022 0.0
H183 H 0.13518 0.25131 0.84695 0.0
H184 H 0.16949 0.23995 0.87742 0.0
H185 H 0.12128 0.19841 0.00776 0.0
H186 H 0.07718 0.16292 0.97894 0.0
H187 H 0.08089 0.22463 0.87629 0.0
C188 C 0.17422 0.30678 0.94157 0.0
C189 C 0.19151 0.31235 0.97589 0.0
C190 C 0.18816 0.28927 0.00648 0.0
C191 C 0.16721 0.26081 0.00298 0.0
C192 C 0.15002 0.25611 0.9687 0.0
C193 C 0.15347 0.27848 0.93851 0.0
C194 C 0.13125 0.2689 0.90539 0.0
C195 C 0.10641 0.297 0.89616 0.0
C196 C 0.15159 0.26022 0.87044 0.0
C197 C 0.11432 0.23787 0.92169 0.0
C198 C 0.12551 0.23069 0.95812 0.0
C199 C 0.11255 0.2037 0.97914 0.0
C200 C 0.08744 0.18369 0.96253 0.0
C201 C 0.07545 0.19086 0.92528 0.0
C202 C 0.08944 0.21823 0.90473 0.0
H203 H 0.83832 0.67967 0.4325 0.0
H204 H 0.78747 0.73799 0.51599 0.0
H205 H 0.83574 0.77736 0.52049 0.0
H206 H 0.92316 0.69122 0.47084 0.0
H207 H 0.94015 0.69453 0.42396 0.0
H208 H 0.90376 0.66898 0.43192 0.0
H209 H 0.87257 0.70274 0.37936 0.0
H210 H 0.90871 0.72844 0.37142 0.0
H211 H 0.8703 0.74805 0.38268 0.0
H212 H 0.88817 0.8132 0.51032 0.0
H213 H 0.93809 0.84234 0.48607 0.0
H214 H 0.95281 0.75983 0.40835 0.0
C215 C 0.83785 0.70019 0.45257 0.0
C216 C 0.80982 0.7057 0.47451 0.0
C217 C 0.80924 0.73324 0.49956 0.0
C218 C 0.83646 0.75564 0.50218 0.0
C219 C 0.86376 0.74991 0.47946 0.0
C220 C 0.86456 0.72268 0.45524 0.0
C221 C 0.89513 0.72348 0.43127 0.0
C222 C 0.91683 0.69273 0.44004 0.0
C223 C 0.88612 0.72583 0.38868 0.0
C224 C 0.91128 0.75575 0.4451 0.0
C225 C 0.89316 0.77057 0.47317 0.0
C226 C 0.90269 0.80154 0.48869 0.0
C227 C 0.93114 0.81791 0.47475 0.0
C228 C 0.94953 0.80342 0.4453 0.0
C229 C 0.93953 0.77165 0.43095 0.0
H230 H 0.82026 0.32254 0.88797 0.0
H231 H 0.78621 0.29592 0.00039 0.0
H232 H 0.82629 0.24885 0.0038 0.0
H233 H 0.8327 0.23773 0.85563 0.0
H234 H 0.86895 0.24904 0.82917 0.0
H235 H 0.83734 0.27978 0.83604 0.0
H236 H 0.88069 0.32083 0.86564 0.0
H237 H 0.91241 0.29022 0.85887 0.0
H238 H 0.90562 0.30683 0.90547 0.0
H239 H 0.87112 0.20481 0.99395 0.0
H240 H 0.91627 0.1685 0.97246 0.0
H241 H 0.91986 0.22566 0.86655 0.0
C242 C 0.82126 0.30664 0.91321 0.0
C243 C 0.80045 0.31239 0.9439 0.0
C244 C 0.80217 0.29151 0.97663 0.0
C245 C 0.82477 0.26486 0.97874 0.0
C246 C 0.84521 0.25976 0.94783 0.0
C247 C 0.84356 0.28015 0.9157 0.0
C248 C 0.86824 0.26991 0.88647 0.0
C249 C 0.85075 0.25843 0.84966 0.0
C250 C 0.89322 0.29866 0.87868 0.0
C251 C 0.88426 0.24062 0.90709 0.0
C252 C 0.87072 0.23495 0.94237 0.0
C253 C 0.88186 0.20907 0.96636 0.0
C254 C 0.90752 0.18857 0.9539 0.0
C255 C 0.92178 0.19419 0.91783 0.0
C256 C 0.90974 0.2206 0.89434 0.0
H257 H 0.22477 0.70041 0.39326 0.0
H258 H 0.28181 0.75907 0.47443 0.0
H259 H 0.2324 0.79334 0.48768 0.0
H260 H 0.18044 0.76791 0.35369 0.0
H261 H 0.14272 0.74404 0.34688 0.0
H262 H 0.18166 0.72287 0.34694 0.0
H263 H 0.16152 0.68262 0.40067 0.0
H264 H 0.12249 0.7038 0.40084 0.0
H265 H 0.14661 0.70013 0.44407 0.0
H266 H 0.17697 0.82357 0.48786 0.0
H267 H 0.12198 0.84769 0.47383 0.0
H268 H 0.10254 0.76762 0.39301 0.0
C269 C 0.22659 0.72021 0.41419 0.0
C270 C 0.25659 0.72733 0.43304 0.0
C271 C 0.25866 0.75346 0.45994 0.0
C272 C 0.23079 0.77286 0.46765 0.0
C273 C 0.20132 0.76544 0.44826 0.0
C274 C 0.19915 0.73963 0.42213 0.0
C275 C 0.16547 0.73778 0.40339 0.0
C276 C 0.16772 0.74351 0.36018 0.0
C277 C 0.14799 0.70408 0.41283 0.0
C278 C 0.14909 0.76699 0.42239 0.0
C279 C 0.16988 0.78256 0.44844 0.0
C280 C 0.16037 0.8113 0.46784 0.0
C281 C 0.12906 0.82477 0.45978 0.0
C282 C 0.10785 0.80958 0.43235 0.0
C283 C 0.11798 0.77989 0.41423 0.0
H284 H 0.67519 0.77028 0.00884 0.0
H285 H 0.72045 0.83639 0.92533 0.0
H286 H 0.67553 0.82213 0.879 0.0
H287 H 0.65191 0.70558 0.94594 0.0
H288 H 0.61379 0.69541 0.96933 0.0
H289 H 0.64789 0.71309 0.99602 0.0
H290 H 0.61085 0.76175 0.01818 0.0
H291 H 0.57657 0.74415 0.99159 0.0
H292 H 0.58943 0.78733 0.9833 0.0
H293 H 0.62671 0.79742 0.84127 0.0
H294 H 0.57934 0.76467 0.81527 0.0
H295 H 0.56742 0.71503 0.92491 0.0
C296 C 0.67526 0.78209 0.98093 0.0
C297 C 0.70069 0.80453 0.97033 0.0
C298 C 0.70071 0.8193 0.93367 0.0
C299 C 0.67539 0.81134 0.90736 0.0
C300 C 0.65056 0.78869 0.91856 0.0
C301 C 0.65037 0.77438 0.95457 0.0
C302 C 0.62206 0.74961 0.95931 0.0
C303 C 0.63468 0.71382 0.96816 0.0
C304 C 0.59832 0.76143 0.9899 0.0
C305 C 0.60643 0.75178 0.9202 0.0
C306 C 0.62298 0.77453 0.89706 0.0
C307 C 0.61345 0.77975 0.85927 0.0
C308 C 0.5865 0.76102 0.84477 0.0
C309 C 0.56952 0.73726 0.86802 0.0
C310 C 0.57963 0.73302 0.90631 0.0
H311 H 0.31714 0.25793 0.49799 0.0
H312 H 0.29122 0.16957 0.4321 0.0
H313 H 0.33787 0.1821 0.38896 0.0
H314 H 0.34094 0.31172 0.41937 0.0
H315 H 0.37435 0.33171 0.44534 0.0
H316 H 0.33886 0.31572 0.4702 0.0
H317 H 0.37686 0.2792 0.51347 0.0
H318 H 0.41244 0.295 0.48866 0.0
H319 H 0.40478 0.25013 0.49222 0.0
H320 H 0.38776 0.20464 0.35373 0.0
H321 H 0.43635 0.23506 0.3286 0.0
H322 H 0.42932 0.30864 0.41853 0.0
C323 C 0.32132 0.24138 0.47431 0.0
C324 C 0.3009 0.21294 0.4679 0.0
C325 C 0.30681 0.19156 0.43705 0.0
C326 C 0.33317 0.19848 0.41259 0.0
C327 C 0.35313 0.22682 0.41968 0.0
C328 C 0.34744 0.24793 0.44979 0.0
C329 C 0.37248 0.27659 0.45148 0.0
C330 C 0.35565 0.31096 0.44628 0.0
C331 C 0.39284 0.27512 0.48866 0.0
C332 C 0.39327 0.26836 0.41765 0.0
C333 C 0.38174 0.2396 0.39964 0.0
C334 C 0.39698 0.22718 0.36762 0.0
C335 C 0.42462 0.24468 0.35358 0.0
C336 C 0.43683 0.27431 0.37155 0.0
C337 C 0.42081 0.28608 0.4041 0.0
H338 H 0.32773 0.79096 0.99652 0.0
H339 H 0.31326 0.87601 0.92002 0.0
H340 H 0.34282 0.84576 0.86957 0.0
H341 H 0.40806 0.77462 0.97133 0.0
H342 H 0.40453 0.7293 0.97563 0.0
H343 H 0.37856 0.75571 0.00318 0.0
H344 H 0.32665 0.72544 0.97539 0.0
H345 H 0.35254 0.69882 0.94776 0.0
H346 H 0.3208 0.7234 0.92463 0.0
H347 H 0.37886 0.80794 0.83017 0.0
H348 H 0.41871 0.76713 0.80577 0.0
H349 H 0.40913 0.70733 0.90926 0.0
C350 C 0.33014 0.80275 0.96877 0.0
C351 C 0.3181 0.83537 0.96156 0.0
C352 C 0.32215 0.85071 0.92553 0.0
C353 C 0.33881 0.83371 0.89687 0.0
C354 C 0.35101 0.80153 0.90499 0.0
C355 C 0.34668 0.78619 0.94009 0.0
C356 C 0.3643 0.75282 0.94294 0.0
C357 C 0.3904 0.75316 0.97516 0.0
C358 C 0.33959 0.72338 0.94796 0.0
C359 C 0.38007 0.75209 0.90439 0.0
C360 C 0.37184 0.78012 0.88264 0.0
C361 C 0.3851 0.7857 0.84679 0.0
C362 C 0.40775 0.76235 0.83317 0.0
C363 C 0.41713 0.73391 0.85552 0.0
C364 C 0.40245 0.7286 0.89125 0.0
H365 H 0.66207 0.13061 0.43404 0.0
H366 H 0.71203 0.19556 0.51523 0.0
H367 H 0.68564 0.24559 0.48535 0.0
H368 H 0.66537 0.19045 0.35207 0.0
H369 H 0.62498 0.17799 0.33484 0.0
H370 H 0.65038 0.14793 0.36013 0.0
H371 H 0.60349 0.1371 0.40804 0.0
H372 H 0.57804 0.16716 0.38304 0.0
H373 H 0.58662 0.17223 0.43302 0.0
H374 H 0.6498 0.28712 0.45118 0.0
H375 H 0.60792 0.31826 0.41392 0.0
H376 H 0.58171 0.2266 0.35346 0.0
C377 C 0.66788 0.15553 0.44483 0.0
C378 C 0.68914 0.15972 0.47647 0.0
C379 C 0.69595 0.19228 0.49065 0.0
C380 C 0.68112 0.22069 0.47388 0.0
C381 C 0.65979 0.21585 0.44291 0.0
C382 C 0.65335 0.18414 0.42829 0.0
C383 C 0.62802 0.18571 0.39622 0.0
C384 C 0.6431 0.17488 0.35858 0.0
C385 C 0.59723 0.16429 0.40567 0.0
C386 C 0.62054 0.22311 0.3958 0.0
C387 C 0.6393 0.24001 0.42283 0.0
C388 C 0.63532 0.27428 0.42955 0.0
C389 C 0.61135 0.2917 0.40836 0.0
C390 C 0.59167 0.27489 0.38064 0.0
C391 C 0.59675 0.24024 0.37398 0.0
H392 H 0.34684 0.47079 0.99222 0.0
H393 H 0.30271 0.42368 0.89272 0.0
H394 H 0.33188 0.46473 0.85154 0.0
H395 H 0.34507 0.55779 0.95544 0.0
H396 H 0.38421 0.56895 0.97709 0.0
H397 H 0.35821 0.53726 0.99896 0.0
H398 H 0.40604 0.49457 0.99779 0.0
H399 H 0.43217 0.5261 0.97597 0.0
H400 H 0.42559 0.48588 0.95342 0.0
H401 H 0.36907 0.50741 0.82112 0.0
H402 H 0.41062 0.55051 0.80318 0.0
H403 H 0.42991 0.57128 0.92223 0.0
C404 C 0.3432 0.46925 0.96177 0.0
C405 C 0.32242 0.44409 0.94564 0.0
C406 C 0.31814 0.44301 0.90569 0.0
C407 C 0.3347 0.46613 0.88208 0.0
C408 C 0.35523 0.49037 0.89886 0.0
C409 C 0.35937 0.49229 0.93777 0.0
C410 C 0.38365 0.52018 0.94843 0.0
C411 C 0.36677 0.54767 0.97133 0.0
C412 C 0.41364 0.50582 0.97018 0.0
C413 C 0.39304 0.53316 0.90937 0.0
C414 C 0.37628 0.5156 0.88122 0.0
C415 C 0.38206 0.52162 0.84287 0.0
C416 C 0.40579 0.54605 0.83299 0.0
C417 C 0.42333 0.56436 0.8613 0.0
C418 C 0.41649 0.55808 0.89998 0.0
H419 H 0.66959 0.53273 0.47978 0.0
H420 H 0.68688 0.59796 0.38167 0.0
H421 H 0.661 0.55556 0.34039 0.0
H422 H 0.67909 0.45156 0.43295 0.0
H423 H 0.64548 0.4317 0.458 0.0
H424 H 0.66918 0.46518 0.48002 0.0
H425 H 0.6157 0.49875 0.49028 0.0
H426 H 0.59187 0.46533 0.46851 0.0
H427 H 0.58897 0.50792 0.45021 0.0
H428 H 0.63086 0.50831 0.30966 0.0
H429 H 0.59444 0.46085 0.29186 0.0
H430 H 0.59235 0.42735 0.40979 0.0
C431 C 0.66808 0.5382 0.44964 0.0
C432 C 0.68111 0.56871 0.43419 0.0
C433 C 0.67836 0.57449 0.39441 0.0
C434 C 0.6634 0.55059 0.37057 0.0
C435 C 0.6508 0.52104 0.38676 0.0
C436 C 0.65264 0.51482 0.42537 0.0
C437 C 0.63459 0.48223 0.43566 0.0
C438 C 0.65852 0.45612 0.45266 0.0
C439 C 0.60609 0.48898 0.46276 0.0
C440 C 0.62187 0.47154 0.39683 0.0
C441 C 0.63204 0.49409 0.36904 0.0
C442 C 0.6228 0.49037 0.33111 0.0
C443 C 0.60204 0.46325 0.32132 0.0
C444 C 0.59033 0.44026 0.34938 0.0
C445 C 0.60095 0.44428 0.38758 0.0
H446 H 0.66608 0.43998 0.8997 0.0
H447 H 0.68846 0.48445 0.00918 0.0
H448 H 0.65684 0.53509 0.99054 0.0
H449 H 0.66797 0.51961 0.84322 0.0
H450 H 0.63383 0.50646 0.81327 0.0
H451 H 0.66128 0.47541 0.83352 0.0
H452 H 0.6115 0.44384 0.86336 0.0
H453 H 0.58396 0.47479 0.84336 0.0
H454 H 0.5843 0.46641 0.89377 0.0
H455 H 0.61964 0.57843 0.96239 0.0
H456 H 0.57811 0.6116 0.9272 0.0
H457 H 0.579 0.53895 0.83574 0.0
C458 C 0.66494 0.46077 0.91932 0.0
C459 C 0.67982 0.45853 0.95577 0.0
C460 C 0.67715 0.48577 0.98115 0.0
C461 C 0.65943 0.51465 0.97074 0.0
C462 C 0.64455 0.51586 0.93485 0.0
C463 C 0.64711 0.48971 0.90946 0.0
C464 C 0.62667 0.49633 0.87382 0.0
C465 C 0.64876 0.49966 0.83889 0.0
C466 C 0.60003 0.4687 0.86827 0.0
C467 C 0.61161 0.52989 0.88353 0.0
C468 C 0.62259 0.54084 0.91868 0.0
C469 C 0.61107 0.5703 0.93468 0.0
C470 C 0.58735 0.5889 0.91446 0.0
C471 C 0.5752 0.57792 0.87863 0.0
C472 C 0.58797 0.54824 0.86283 0.0
H473 H 0.39348 0.55971 0.45505 0.0
H474 H 0.32196 0.577 0.36393 0.0
H475 H 0.34457 0.52904 0.32915 0.0
H476 H 0.45995 0.53611 0.39983 0.0
H477 H 0.47408 0.50359 0.43219 0.0
H478 H 0.45206 0.53911 0.44988 0.0
H479 H 0.40922 0.49851 0.48063 0.0
H480 H 0.43118 0.46279 0.46311 0.0
H481 H 0.38802 0.4676 0.45169 0.0
H482 H 0.37805 0.48147 0.30234 0.0
H483 H 0.41737 0.43619 0.28782 0.0
H484 H 0.46221 0.44695 0.39967 0.0
C485 C 0.38186 0.55314 0.42824 0.0
C486 C 0.35585 0.57245 0.41238 0.0
C487 C 0.34228 0.56318 0.37654 0.0
C488 C 0.35475 0.53572 0.35667 0.0
C489 C 0.38038 0.51737 0.37326 0.0
C490 C 0.39344 0.52547 0.40847 0.0
C491 C 0.42089 0.50187 0.42019 0.0
C492 C 0.45367 0.52134 0.42584 0.0
C493 C 0.41177 0.48148 0.45603 0.0
C494 C 0.4217 0.47956 0.38573 0.0
C495 C 0.39829 0.48896 0.35881 0.0
C496 C 0.39606 0.4735 0.32348 0.0
C497 C 0.41847 0.44791 0.31545 0.0
C498 C 0.44236 0.4378 0.34288 0.0
C499 C 0.44363 0.4536 0.37855 0.0
H500 H 0.82684 0.95193 0.0331 0.0
H501 H 0.80916 0.88081 0.94179 0.0
H502 H 0.83612 0.92022 0.89721 0.0
H503 H 0.82256 0.03161 0.97555 0.0
H504 H 0.85629 0.05051 0.00199 0.0
H505 H 0.829 0.02058 0.02488 0.0
H506 H 0.87917 0.9842 0.04481 0.0
H507 H 0.90652 0.01378 0.0218 0.0
H508 H 0.90673 0.96985 0.00892 0.0
H509 H 0.8719 0.96286 0.86462 0.0
H510 H 0.91404 0.00499 0.84651 0.0
H511 H 0.91259 0.04635 0.96016 0.0
C512 C 0.82813 0.94471 0.00364 0.0
C513 C 0.8157 0.91305 0.99117 0.0
C514 C 0.81773 0.90506 0.95215 0.0
C515 C 0.83325 0.92726 0.92654 0.0
C516 C 0.84668 0.95739 0.94029 0.0
C517 C 0.84415 0.96622 0.97791 0.0
C518 C 0.86419 0.99789 0.98654 0.0
C519 C 0.84166 0.02687 0.9979 0.0
C520 C 0.89072 0.991 0.01732 0.0
C521 C 0.87943 0.00474 0.94821 0.0
C522 C 0.86842 0.98151 0.92175 0.0
C523 C 0.88036 0.98146 0.88495 0.0
C524 C 0.90445 0.0055 0.87501 0.0
C525 C 0.91681 0.02909 0.90191 0.0
C526 C 0.90362 0.02889 0.93883 0.0
H527 H 0.19766 0.0517 0.51878 0.0
H528 H 0.18729 0.13298 0.43592 0.0
H529 H 0.15789 0.09393 0.39254 0.0
H530 H 0.2016 0.97944 0.45094 0.0
H531 H 0.17689 0.95292 0.48153 0.0
H532 H 0.20401 0.98463 0.50168 0.0
H533 H 0.15465 0.01002 0.53679 0.0
H534 H 0.12733 0.97881 0.51644 0.0
H535 H 0.11876 0.02307 0.50985 0.0
H536 H 0.12182 0.04891 0.36296 0.0
H537 H 0.08295 0.00209 0.34927 0.0
H538 H 0.11348 0.95165 0.45394 0.0
C539 C 0.18993 0.06115 0.49113 0.0
C540 C 0.1948 0.0955 0.48083 0.0
C541 C 0.18439 0.10672 0.44429 0.0
C542 C 0.16746 0.08472 0.41953 0.0
C543 C 0.16127 0.05157 0.43166 0.0
C544 C 0.17249 0.03976 0.46652 0.0
C545 C 0.15908 0.00465 0.47513 0.0
C546 C 0.18707 0.97888 0.47744 0.0
C547 C 0.13875 0.00414 0.5117 0.0
C548 C 0.13741 0.99903 0.44038 0.0
C549 C 0.13956 0.02604 0.41525 0.0
C550 C 0.12035 0.02742 0.38216 0.0
C551 C 0.09822 0.00068 0.37472 0.0
C552 C 0.09504 0.97309 0.40054 0.0
C553 C 0.11532 0.97223 0.43353 0.0
H554 H 0.17758 0.96486 0.03182 0.0
H555 H 0.20251 0.89951 0.93882 0.0
H556 H 0.16424 0.93112 0.89646 0.0
H557 H 0.09317 0.96784 0.01167 0.0
H558 H 0.08845 0.01129 0.02504 0.0
H559 H 0.12066 0.9864 0.04656 0.0
H560 H 0.16439 0.03067 0.02512 0.0
H561 H 0.13226 0.05591 0.00379 0.0
H562 H 0.16647 0.04279 0.97571 0.0
H563 H 0.11948 0.96655 0.86627 0.0
H564 H 0.07357 0.00421 0.84942 0.0
H565 H 0.07707 0.04532 0.96326 0.0
C566 C 0.17526 0.95736 0.00242 0.0
C567 C 0.19291 0.92962 0.98859 0.0
C568 C 0.18946 0.92086 0.94989 0.0
C569 C 0.16767 0.93856 0.92573 0.0
C570 C 0.14979 0.96502 0.94073 0.0
C571 C 0.15361 0.97457 0.97812 0.0
C572 C 0.1303 0.00259 0.98796 0.0
C573 C 0.10676 0.99134 0.01967 0.0
C574 C 0.14951 0.0349 0.99877 0.0
C575 C 0.11215 0.00693 0.95043 0.0
C576 C 0.12391 0.98521 0.92349 0.0
C577 C 0.11029 0.98386 0.88704 0.0
C578 C 0.08407 0.00532 0.87784 0.0
C579 C 0.07154 0.02783 0.90502 0.0
C580 C 0.086 0.02856 0.94176 0.0
H581 H 0.86545 0.07392 0.50109 0.0
H582 H 0.77772 0.0222 0.4576 0.0
H583 H 0.81276 0.98614 0.41905 0.0
H584 H 0.91731 0.06736 0.41838 0.0
H585 H 0.95368 0.05855 0.44665 0.0
H586 H 0.92161 0.08421 0.46555 0.0
H587 H 0.91724 0.04385 0.5238 0.0
H588 H 0.94919 0.01804 0.50508 0.0
H589 H 0.90971 0.99941 0.51642 0.0
H590 H 0.85781 0.95355 0.38763 0.0
H591 H 0.90902 0.92438 0.37014 0.0
H592 H 0.96627 0.99189 0.44206 0.0
C593 C 0.8533 0.05504 0.48368 0.0
C594 C 0.81854 0.05116 0.48268 0.0
C595 C 0.80412 0.02644 0.4585 0.0
C596 C 0.82388 0.00557 0.43662 0.0
C597 C 0.85802 0.00938 0.43954 0.0
C598 C 0.87258 0.03333 0.46275 0.0
C599 C 0.90971 0.0301 0.46411 0.0
C600 C 0.92656 0.06195 0.44768 0.0
C601 C 0.92218 0.02238 0.50476 0.0
C602 C 0.91381 0.00017 0.43849 0.0
C603 C 0.88379 0.9891 0.4238 0.0
C604 C 0.88141 0.96197 0.39901 0.0
C605 C 0.91049 0.94561 0.38925 0.0
C606 C 0.94119 0.95594 0.40508 0.0
C607 C 0.9429 0.98352 0.42991 0.0
H608 H 0.34521 0.41227 0.07442 0.0
H609 H 0.31515 0.31036 0.04464 0.0
H610 H 0.35077 0.28779 0.09678 0.0
H611 H 0.42836 0.39507 0.09258 0.0
H612 H 0.43257 0.42412 0.13142 0.0
H613 H 0.40251 0.4317 0.09432 0.0
H614 H 0.35631 0.4338 0.14427 0.0
H615 H 0.38629 0.42636 0.1816 0.0
H616 H 0.35079 0.39879 0.17684 0.0
H617 H 0.39367 0.27692 0.15021 0.0
H618 H 0.43782 0.27899 0.19968 0.0
H619 H 0.43864 0.38856 0.19187 0.0
C620 C 0.34595 0.38517 0.07894 0.0
C621 C 0.32763 0.36302 0.05538 0.0
C622 C 0.32889 0.32777 0.06255 0.0
C623 C 0.34912 0.31477 0.09198 0.0
C624 C 0.36758 0.33743 0.11407 0.0
C625 C 0.36583 0.37192 0.10795 0.0
C626 C 0.38881 0.39114 0.13428 0.0
C627 C 0.41458 0.4117 0.1118 0.0
C628 C 0.36938 0.41385 0.16082 0.0
C629 C 0.40439 0.36213 0.15581 0.0
C630 C 0.39183 0.33129 0.14415 0.0
C631 C 0.40346 0.301 0.15969 0.0
C632 C 0.42857 0.30242 0.18773 0.0
C633 C 0.44187 0.33391 0.19972 0.0
C634 C 0.42923 0.36398 0.1835 0.0
H635 H 0.63039 0.61749 0.53729 0.0
H636 H 0.72297 0.65922 0.58101 0.0
H637 H 0.69577 0.67206 0.64121 0.0
H638 H 0.57515 0.67216 0.58212 0.0
H639 H 0.54545 0.63922 0.59257 0.0
H640 H 0.57158 0.63575 0.552 0.0
H641 H 0.5922 0.57777 0.57693 0.0
H642 H 0.566 0.58095 0.61748 0.0
H643 H 0.60961 0.57448 0.62421 0.0
H644 H 0.6571 0.68156 0.69679 0.0
H645 H 0.61227 0.6816 0.74411 0.0
H646 H 0.54869 0.62637 0.66613 0.0
C647 C 0.6455 0.62869 0.55947 0.0
C648 C 0.67915 0.63715 0.55386 0.0
C649 C 0.69709 0.65293 0.58389 0.0
C650 C 0.68189 0.66014 0.61843 0.0
C651 C 0.64887 0.65092 0.62291 0.0
C652 C 0.63111 0.63508 0.59434 0.0
C653 C 0.59651 0.62601 0.60663 0.0
C654 C 0.57066 0.64439 0.58186 0.0
C655 C 0.59076 0.58752 0.6063 0.0
C656 C 0.5974 0.63935 0.64664 0.0
C657 C 0.6276 0.65419 0.65542 0.0
C658 C 0.63356 0.66963 0.69034 0.0
C659 C 0.60807 0.66961 0.71695 0.0
C660 C 0.57748 0.65359 0.70867 0.0
C661 C 0.57216 0.63829 0.67318 0.0
H662 H 0.69053 0.41342 0.08244 0.0
H663 H 0.69091 0.31476 0.03027 0.0
H664 H 0.66345 0.29022 0.08655 0.0
H665 H 0.69819 0.38444 0.18402 0.0
H666 H 0.67017 0.41641 0.19907 0.0
H667 H 0.6964 0.42439 0.15902 0.0
H668 H 0.64502 0.43853 0.11741 0.0
H669 H 0.6187 0.43037 0.15707 0.0
H670 H 0.61191 0.40788 0.1134 0.0
H671 H 0.62801 0.27845 0.1438 0.0
H672 H 0.58786 0.2807 0.19576 0.0
H673 H 0.60882 0.38783 0.20817 0.0
C674 C 0.68553 0.38648 0.08318 0.0
C675 C 0.69287 0.36602 0.05193 0.0
C676 C 0.68599 0.33087 0.05408 0.0
C677 C 0.67028 0.31673 0.08592 0.0
C678 C 0.66189 0.33803 0.11544 0.0
C679 C 0.6696 0.37215 0.11441 0.0
C680 C 0.65451 0.39048 0.14717 0.0
C681 C 0.68143 0.40476 0.17391 0.0
C682 C 0.63115 0.41844 0.13289 0.0
C683 C 0.63578 0.36169 0.16585 0.0
C684 C 0.64089 0.33146 0.14776 0.0
C685 C 0.62429 0.30188 0.15855 0.0
C686 C 0.60149 0.30341 0.18809 0.0
C687 C 0.59512 0.33445 0.20603 0.0
C688 C 0.61314 0.36367 0.19515 0.0
H689 H 0.36546 0.68073 0.53221 0.0
H690 H 0.31592 0.58378 0.54608 0.0
H691 H 0.33504 0.58113 0.61298 0.0
H692 H 0.43533 0.66034 0.58013 0.0
H693 H 0.44264 0.70051 0.60251 0.0
H694 H 0.4196 0.69853 0.5586 0.0
H695 H 0.37054 0.72854 0.5894 0.0
H696 H 0.39365 0.73107 0.63345 0.0
H697 H 0.35328 0.71148 0.63251 0.0
H698 H 0.36718 0.58411 0.67339 0.0
H699 H 0.40827 0.59357 0.72461 0.0
H700 H 0.4366 0.6892 0.67237 0.0
C701 C 0.35745 0.65968 0.54986 0.0
C702 C 0.33897 0.6326 0.53424 0.0
C703 C 0.32998 0.60481 0.55768 0.0
C704 C 0.34061 0.60318 0.59568 0.0
C705 C 0.35997 0.62967 0.60982 0.0
C706 C 0.36797 0.65764 0.5878 0.0
C707 C 0.39218 0.68076 0.60838 0.0
C708 C 0.42433 0.68527 0.58607 0.0
C709 C 0.37646 0.71499 0.61642 0.0
C710 C 0.39773 0.66064 0.64467 0.0
C711 C 0.37857 0.63149 0.64512 0.0
C712 C 0.38174 0.60721 0.67382 0.0
C713 C 0.40532 0.61269 0.70262 0.0
C714 C 0.42544 0.64222 0.70252 0.0
C715 C 0.42107 0.66677 0.67355 0.0
H716 H 0.87965 0.87584 0.0956 0.0
H717 H 0.79289 0.83072 0.14785 0.0
H718 H 0.82436 0.82328 0.20758 0.0
H719 H 0.94118 0.82751 0.14305 0.0
H720 H 0.96924 0.86277 0.14923 0.0
H721 H 0.94069 0.86231 0.10957 0.0
H722 H 0.91766 0.92 0.12992 0.0
H723 H 0.94632 0.92079 0.16946 0.0
H724 H 0.90278 0.92475 0.17748 0.0
H725 H 0.86616 0.8192 0.26142 0.0
H726 H 0.91291 0.82548 0.30719 0.0
H727 H 0.96883 0.88 0.22178 0.0
C728 C 0.86682 0.86487 0.11954 0.0
C729 C 0.83366 0.85357 0.11645 0.0
C730 C 0.81848 0.83877 0.1488 0.0
C731 C 0.83608 0.83463 0.18308 0.0
C732 C 0.86865 0.84605 0.18492 0.0
C733 C 0.88364 0.86143 0.15421 0.0
C734 C 0.91823 0.87338 0.16413 0.0
C735 C 0.94384 0.85541 0.14006 0.0
C736 C 0.92142 0.91202 0.16002 0.0
C737 C 0.92039 0.86222 0.20526 0.0
C738 C 0.89179 0.84592 0.21658 0.0
C739 C 0.88855 0.83223 0.25302 0.0
C740 C 0.91514 0.83576 0.27869 0.0
C741 C 0.94406 0.85348 0.26788 0.0
C742 C 0.9467 0.86674 0.23074 0.0
H743 H 0.15965 0.18364 0.6134 0.0
H744 H 0.20666 0.08605 0.62084 0.0
H745 H 0.1772 0.07323 0.68017 0.0
H746 H 0.15586 0.19885 0.7186 0.0
H747 H 0.11584 0.21788 0.7142 0.0
H748 H 0.14468 0.22184 0.67593 0.0
H749 H 0.10095 0.19648 0.62967 0.0
H750 H 0.07214 0.19213 0.66775 0.0
H751 H 0.08268 0.15577 0.64035 0.0
H752 H 0.13777 0.06754 0.73234 0.0
H753 H 0.09144 0.06978 0.77647 0.0
H754 H 0.06924 0.17127 0.73653 0.0
C755 C 0.16449 0.16013 0.62837 0.0
C756 C 0.18557 0.1359 0.61303 0.0
C757 C 0.19068 0.1049 0.63248 0.0
C758 C 0.17416 0.09749 0.66616 0.0
C759 C 0.15271 0.1214 0.68001 0.0
C760 C 0.14797 0.15223 0.66202 0.0
C761 C 0.12112 0.17195 0.68099 0.0
C762 C 0.13523 0.20457 0.69847 0.0
C763 C 0.09254 0.1795 0.65302 0.0
C764 C 0.11074 0.14685 0.7115 0.0
C765 C 0.1296 0.11805 0.71059 0.0
C766 C 0.12319 0.09017 0.73385 0.0
C767 C 0.09667 0.0916 0.7586 0.0
C768 C 0.07682 0.12073 0.75996 0.0
C769 C 0.08433 0.1489 0.7365 0.0
H770 H 0.18326 0.9243 0.12363 0.0
H771 H 0.21701 0.82112 0.11626 0.0
H772 H 0.18612 0.80609 0.17424 0.0
H773 H 0.18319 0.92916 0.22813 0.0
H774 H 0.14634 0.95412 0.22781 0.0
H775 H 0.17443 0.95733 0.18878 0.0
H776 H 0.12657 0.94282 0.14183 0.0
H777 H 0.09843 0.93934 0.18066 0.0
H778 H 0.10293 0.90444 0.14884 0.0
H779 H 0.14647 0.80125 0.22883 0.0
H780 H 0.10336 0.80744 0.27693 0.0
H781 H 0.0958 0.91393 0.24733 0.0
C782 C 0.18452 0.89864 0.13452 0.0
C783 C 0.20247 0.87384 0.11554 0.0
C784 C 0.20369 0.84058 0.13069 0.0
C785 C 0.18613 0.83181 0.16347 0.0
C786 C 0.16782 0.8567 0.18082 0.0
C787 C 0.16723 0.88953 0.16705 0.0
C788 C 0.14414 0.91112 0.18931 0.0
C789 C 0.16317 0.93961 0.20973 0.0
C790 C 0.11638 0.92524 0.16363 0.0
C791 C 0.13111 0.88512 0.2172 0.0
C792 C 0.14517 0.85393 0.21211 0.0
C793 C 0.13561 0.82566 0.23338 0.0
C794 C 0.11098 0.8294 0.26051 0.0
C795 C 0.09619 0.86119 0.26602 0.0
C796 C 0.10675 0.88934 0.24417 0.0
H797 H 0.82578 0.05773 0.62014 0.0
H798 H 0.79274 0.16055 0.60322 0.0
H799 H 0.8262 0.17846 0.65913 0.0
H800 H 0.83093 0.05892 0.72536 0.0
H801 H 0.86742 0.03342 0.72622 0.0
H802 H 0.83712 0.0284 0.68867 0.0
H803 H 0.88254 0.03926 0.63886 0.0
H804 H 0.91285 0.04475 0.67614 0.0
H805 H 0.90687 0.07765 0.64099 0.0
H806 H 0.86904 0.18589 0.71199 0.0
H807 H 0.91457 0.18174 0.75926 0.0
H808 H 0.91927 0.07377 0.73993 0.0
C809 C 0.82505 0.08389 0.6287 0.0
C810 C 0.80674 0.10781 0.60749 0.0
C811 C 0.80634 0.14181 0.61945 0.0
C812 C 0.82539 0.15218 0.651 0.0
C813 C 0.8443 0.12812 0.67037 0.0
C814 C 0.84384 0.09457 0.65992 0.0
C815 C 0.86793 0.07402 0.68347 0.0
C816 C 0.84976 0.0471 0.70735 0.0
C817 C 0.89409 0.058 0.65836 0.0
C818 C 0.88279 0.10137 0.70816 0.0
C819 C 0.86876 0.13238 0.70049 0.0
C820 C 0.87986 0.16164 0.71857 0.0
C821 C 0.90587 0.15904 0.74524 0.0
C822 C 0.92055 0.12741 0.75344 0.0
C823 C 0.90854 0.09831 0.73465 0.0
loop_
_geom_bond_atom_site_label_1
_geom_bond_atom_site_label_2
_geom_bond_distance
_geom_bond_site_symmetry_2
_ccdc_geom_bond_type
H0 C3 0.929 . S
H1 C6 0.929 . S
H2 C8 0.930 . S
C3 H0 0.929 . S
C3 C4 1.398 . S
C3 C5 1.396 1_554 S
C4 C3 1.398 . S
C4 C8 1.407 . S
C5 C3 1.396 1_556 S
C5 C6 1.394 . S
C6 H1 0.929 . S
C6 C5 1.394 . S
C6 C7 1.382 1_556 S
C7 C6 1.382 1_554 S
C7 C8 1.392 . S
C7 N9 1.420 1_554 S
C8 H2 0.930 . S
C8 C4 1.407 . S
C8 C7 1.392 . S
N9 C7 1.420 1_556 S
N9 C10 1.244 . S
C10 N9 1.244 . S
H11 C14 0.929 . S
H12 C17 0.929 . S
H13 C19 0.930 . S
C14 H11 0.929 . S
C14 C15 1.398 . S
C14 C16 1.396 . S
C15 C14 1.398 . S
C15 C19 1.407 . S
C16 C14 1.396 . S
C16 C17 1.394 . S
C17 H12 0.929 . S
C17 C16 1.394 . S
C17 C18 1.382 . S
C18 C17 1.382 . S
C18 C19 1.392 . S
C18 N20 1.420 . S
C19 H13 0.930 . S
C19 C15 1.407 . S
C19 C18 1.392 . S
N20 C18 1.420 . S
N20 C21 1.244 . S
C21 N20 1.244 . S
H22 C25 0.929 . S
H23 C28 0.929 . S
H24 C30 0.930 . S
C25 H22 0.929 . S
C25 C26 1.398 . S
C25 C27 1.396 1_554 S
C26 C25 1.398 . S
C26 C30 1.407 . S
C27 C25 1.396 1_556 S
C27 C28 1.394 . S
C28 H23 0.929 . S
C28 C27 1.394 . S
C28 C29 1.382 1_556 S
C29 C28 1.382 1_554 S
C29 C30 1.392 . S
C29 N31 1.420 . S
C30 H24 0.930 . S
C30 C26 1.407 . S
C30 C29 1.392 . S
N31 C29 1.420 . S
N31 C32 1.244 1_554 S
C32 N31 1.244 1_556 S
H33 C36 0.929 . S
H34 C39 0.929 . S
H35 C41 0.930 . S
C36 H33 0.929 . S
C36 C37 1.398 . S
C36 C38 1.396 . S
C37 C36 1.398 . S
C37 C41 1.407 . S
C38 C36 1.396 . S
C38 C39 1.394 . S
C39 H34 0.929 . S
C39 C38 1.394 . S
C39 C40 1.382 . S
C40 C39 1.382 . S
C40 C41 1.392 . S
C40 N42 1.420 . S
C41 H35 0.930 . S
C41 C37 1.407 . S
C41 C40 1.392 . S
N42 C40 1.420 . S
N42 C43 1.244 . S
C43 N42 1.244 . S
H44 C47 0.929 . S
H45 C50 0.929 . S
H46 C52 0.930 . S
C47 H44 0.929 . S
C47 C48 1.398 . S
C47 C49 1.396 1_554 S
C48 C47 1.398 . S
C48 C52 1.407 . S
C49 C47 1.396 1_556 S
C49 C50 1.394 . S
C50 H45 0.929 . S
C50 C49 1.394 . S
C50 C51 1.382 1_556 S
C51 C50 1.382 1_554 S
C51 C52 1.392 . S
C51 N53 1.420 1_554 S
C52 H46 0.930 . S
C52 C48 1.407 . S
C52 C51 1.392 . S
N53 C51 1.420 1_556 S
N53 C54 1.244 . S
C54 N53 1.244 . S
H55 C58 0.929 . S
H56 C61 0.929 . S
H57 C63 0.930 . S
C58 H55 0.929 . S
C58 C59 1.398 . S
C58 C60 1.396 . S
C59 C58 1.398 . S
C59 C63 1.407 . S
C60 C58 1.396 . S
C60 C61 1.394 . S
C61 H56 0.929 . S
C61 C60 1.394 . S
C61 C62 1.382 . S
C62 C61 1.382 . S
C62 C63 1.392 . S
C62 N64 1.420 . S
C63 H57 0.930 . S
C63 C59 1.407 . S
C63 C62 1.392 . S
N64 C62 1.420 . S
N64 C65 1.244 . S
C65 N64 1.244 . S
H66 C69 0.929 . S
H67 C72 0.929 . S
H68 C74 0.930 . S
C69 H66 0.929 . S
C69 C70 1.398 . S
C69 C71 1.396 1_554 S
C70 C69 1.398 . S
C70 C74 1.407 . S
C71 C69 1.396 1_556 S
C71 C72 1.394 . S
C72 H67 0.929 . S
C72 C71 1.394 . S
C72 C73 1.382 1_556 S
C73 C72 1.382 1_554 S
C73 C74 1.392 . S
C73 N75 1.420 . S
C74 H68 0.930 . S
C74 C70 1.407 . S
C74 C73 1.392 . S
N75 C73 1.420 . S
N75 C76 1.244 1_554 S
C76 N75 1.244 1_556 S
H77 C80 0.929 . S
H78 C83 0.929 . S
H79 C85 0.930 . S
C80 H77 0.929 . S
C80 C81 1.398 . S
C80 C82 1.396 . S
C81 C80 1.398 . S
C81 C85 1.407 . S
C82 C80 1.396 . S
C82 C83 1.394 . S
C83 H78 0.929 . S
C83 C82 1.394 . S
C83 C84 1.382 . S
C84 C83 1.382 . S
C84 C85 1.392 . S
C84 N86 1.420 . S
C85 H79 0.930 . S
C85 C81 1.407 . S
C85 C84 1.392 . S
N86 C84 1.420 . S
N86 C87 1.244 . S
C87 N86 1.244 . S
Sc88 O91 2.025 . S
Sc88 O98 2.105 1_455 S
Sc88 O101 2.105 . S
Sc88 O104 2.105 . S
Sc88 O107 2.105 1_455 S
Sc89 O91 2.025 . S
Sc89 O99 2.105 1_455 S
Sc89 O103 2.105 . S
Sc89 O105 2.105 . S
Sc89 O109 2.105 1_455 S
Sc90 O91 2.025 . S
Sc90 O100 2.105 1_455 S
Sc90 O102 2.105 . S
Sc90 O106 2.105 . S
Sc90 O108 2.105 1_455 S
O91 Sc88 2.025 . S
O91 Sc89 2.025 . S
O91 Sc90 2.025 . S
C92 O98 1.268 . S
C92 O108 1.268 . S
C93 O99 1.268 . S
C93 O107 1.268 . S
C94 O100 1.268 . S
C94 O109 1.268 . S
C95 O101 1.268 . S
C95 O105 1.268 . S
C96 O102 1.268 . S
C96 O104 1.268 . S
C97 O103 1.268 . S
C97 O106 1.268 . S
O98 Sc88 2.105 1_655 S
O98 C92 1.268 . S
O99 Sc89 2.105 1_655 S
O99 C93 1.268 . S
O100 Sc90 2.105 1_655 S
O100 C94 1.268 . S
O101 Sc88 2.105 . S
O101 C95 1.268 . S
O102 Sc90 2.105 . S
O102 C96 1.268 . S
O103 Sc89 2.105 . S
O103 C97 1.268 . S
O104 Sc88 2.105 . S
O104 C96 1.268 . S
O105 Sc89 2.105 . S
O105 C95 1.268 . S
O106 Sc90 2.105 . S
O106 C97 1.268 . S
O107 Sc88 2.105 1_655 S
O107 C93 1.268 . S
O108 Sc90 2.105 1_655 S
O108 C92 1.268 . S
O109 Sc89 2.105 1_655 S
O109 C94 1.268 . S
Sc110 O113 2.025 . S
Sc110 O120 2.105 . S
Sc110 O123 2.105 1_455 S
Sc110 O126 2.105 1_455 S
Sc110 O129 2.105 . S
Sc111 O113 2.025 . S
Sc111 O121 2.105 . S
Sc111 O125 2.105 1_455 S
Sc111 O127 2.105 1_455 S
Sc111 O131 2.105 . S
Sc112 O113 2.025 . S
Sc112 O122 2.105 . S
Sc112 O124 2.105 1_455 S
Sc112 O128 2.105 1_455 S
Sc112 O130 2.105 . S
O113 Sc110 2.025 . S
O113 Sc111 2.025 . S
O113 Sc112 2.025 . S
C114 O120 1.268 . S
C114 O130 1.268 . S
C115 O121 1.268 . S
C115 O129 1.268 . S
C116 O122 1.268 . S
C116 O131 1.268 . S
C117 O123 1.268 . S
C117 O127 1.268 . S
C118 O124 1.268 . S
C118 O126 1.268 . S
C119 O125 1.268 . S
C119 O128 1.268 . S
O120 Sc110 2.105 . S
O120 C114 1.268 . S
O121 Sc111 2.105 . S
O121 C115 1.268 . S
O122 Sc112 2.105 . S
O122 C116 1.268 . S
O123 Sc110 2.105 1_655 S
O123 C117 1.268 . S
O124 Sc112 2.105 1_655 S
O124 C118 1.268 . S
O125 Sc111 2.105 1_655 S
O125 C119 1.268 . S
O126 Sc110 2.105 1_655 S
O126 C118 1.268 . S
O127 Sc111 2.105 1_655 S
O127 C117 1.268 . S
O128 Sc112 2.105 1_655 S
O128 C119 1.268 . S
O129 Sc110 2.105 . S
O129 C115 1.268 . S
O130 Sc112 2.105 . S
O130 C114 1.268 . S
O131 Sc111 2.105 . S
O131 C116 1.268 . S
Sc132 O135 2.025 . S
Sc132 O142 2.105 . S
Sc132 O145 2.105 . S
Sc132 O148 2.105 . S
Sc132 O151 2.105 . S
Sc133 O135 2.025 . S
Sc133 O143 2.105 . S
Sc133 O147 2.105 . S
Sc133 O149 2.105 . S
Sc133 O153 2.105 . S
Sc134 O135 2.025 . S
Sc134 O144 2.105 . S
Sc134 O146 2.105 . S
Sc134 O150 2.105 . S
Sc134 O152 2.105 . S
O135 Sc132 2.025 . S
O135 Sc133 2.025 . S
O135 Sc134 2.025 . S
C136 O142 1.268 . S
C136 O152 1.268 . S
C137 O143 1.268 . S
C137 O151 1.268 . S
C138 O144 1.268 . S
C138 O153 1.268 . S
C139 O145 1.268 . S
C139 O149 1.268 . S
C140 O146 1.268 . S
C140 O148 1.268 . S
C141 O147 1.268 . S
C141 O150 1.268 . S
O142 Sc132 2.105 . S
O142 C136 1.268 . S
O143 Sc133 2.105 . S
O143 C137 1.268 . S
O144 Sc134 2.105 . S
O144 C138 1.268 . S
O145 Sc132 2.105 . S
O145 C139 1.268 . S
O146 Sc134 2.105 . S
O146 C140 1.268 . S
O147 Sc133 2.105 . S
O147 C141 1.268 . S
O148 Sc132 2.105 . S
O148 C140 1.268 . S
O149 Sc133 2.105 . S
O149 C139 1.268 . S
O150 Sc134 2.105 . S
O150 C141 1.268 . S
O151 Sc132 2.105 . S
O151 C137 1.268 . S
O152 Sc134 2.105 . S
O152 C136 1.268 . S
O153 Sc133 2.105 . S
O153 C138 1.268 . S
Sc154 O157 2.025 . S
Sc154 O164 2.105 . S
Sc154 O167 2.105 . S
Sc154 O170 2.105 . S
Sc154 O173 2.105 . S
Sc155 O157 2.025 . S
Sc155 O165 2.105 . S
Sc155 O169 2.105 . S
Sc155 O171 2.105 . S
Sc155 O175 2.105 . S
Sc156 O157 2.025 . S
Sc156 O166 2.105 . S
Sc156 O168 2.105 . S
Sc156 O172 2.105 . S
Sc156 O174 2.105 . S
O157 Sc154 2.025 . S
O157 Sc155 2.025 . S
O157 Sc156 2.025 . S
C158 O164 1.268 . S
C158 O174 1.268 . S
C159 O165 1.268 . S
C159 O173 1.268 . S
C160 O166 1.268 . S
C160 O175 1.268 . S
C161 O167 1.268 . S
C161 O171 1.268 . S
C162 O168 1.268 . S
C162 O170 1.268 . S
C163 O169 1.268 . S
C163 O172 1.268 . S
O164 Sc154 2.105 . S
O164 C158 1.268 . S
O165 Sc155 2.105 . S
O165 C159 1.268 . S
O166 Sc156 2.105 . S
O166 C160 1.268 . S
O167 Sc154 2.105 . S
O167 C161 1.268 . S
O168 Sc156 2.105 . S
O168 C162 1.268 . S
O169 Sc155 2.105 . S
O169 C163 1.268 . S
O170 Sc154 2.105 . S
O170 C162 1.268 . S
O171 Sc155 2.105 . S
O171 C161 1.268 . S
O172 Sc156 2.105 . S
O172 C163 1.268 . S
O173 Sc154 2.105 . S
O173 C159 1.268 . S
O174 Sc156 2.105 . S
O174 C158 1.268 . S
O175 Sc155 2.105 . S
O175 C160 1.268 . S
H176 C188 0.930 . S
H177 C190 0.930 . S
H178 C191 0.930 . S
H179 C195 0.959 . S
H180 C195 0.959 . S
H181 C195 0.961 . S
H182 C196 0.960 . S
H183 C196 0.961 . S
H184 C196 0.959 . S
H185 C199 0.929 . S
H186 C200 0.931 . S
H187 C202 0.930 . S
C188 H176 0.930 . S
C188 C189 1.399 . S
C188 C193 1.399 . S
C189 C188 1.399 . S
C189 C190 1.376 . S
C190 H177 0.930 . S
C190 C189 1.376 . S
C190 C191 1.388 . S
C191 H178 0.930 . S
C191 C190 1.388 . S
C191 C192 1.390 . S
C192 C191 1.390 . S
C192 C193 1.394 . S
C192 C198 1.465 . S
C193 C188 1.399 . S
C193 C192 1.394 . S
C193 C194 1.516 . S
C194 C193 1.516 . S
C194 C195 1.502 . S
C194 C196 1.561 . S
C194 C197 1.526 . S
C195 H179 0.959 . S
C195 H180 0.959 . S
C195 H181 0.961 . S
C195 C194 1.502 . S
C196 H182 0.960 . S
C196 H183 0.961 . S
C196 H184 0.959 . S
C196 C194 1.561 . S
C197 C194 1.526 . S
C197 C198 1.396 . S
C197 C202 1.390 . S
C198 C192 1.465 . S
C198 C197 1.396 . S
C198 C199 1.399 . S
C199 H185 0.929 . S
C199 C198 1.399 . S
C199 C200 1.385 . S
C200 H186 0.931 . S
C200 C199 1.385 . S
C200 C201 1.389 . S
C201 C200 1.389 . S
C201 C202 1.387 . S
C202 H187 0.930 . S
C202 C197 1.390 . S
C202 C201 1.387 . S
H203 C215 0.930 . S
H204 C217 0.930 . S
H205 C218 0.930 . S
H206 C222 0.959 . S
H207 C222 0.959 . S
H208 C222 0.961 . S
H209 C223 0.960 . S
H210 C223 0.961 . S
H211 C223 0.959 . S
H212 C226 0.929 . S
H213 C227 0.931 . S
H214 C229 0.930 . S
C215 H203 0.930 . S
C215 C216 1.399 . S
C215 C220 1.399 . S
C216 C215 1.399 . S
C216 C217 1.376 . S
C217 H204 0.930 . S
C217 C216 1.376 . S
C217 C218 1.388 . S
C218 H205 0.930 . S
C218 C217 1.388 . S
C218 C219 1.390 . S
C219 C218 1.390 . S
C219 C220 1.394 . S
C219 C225 1.465 . S
C220 C215 1.399 . S
C220 C219 1.394 . S
C220 C221 1.516 . S
C221 C220 1.516 . S
C221 C222 1.502 . S
C221 C223 1.561 . S
C221 C224 1.526 . S
C222 H206 0.959 . S
C222 H207 0.959 . S
C222 H208 0.961 . S
C222 C221 1.502 . S
C223 H209 0.960 . S
C223 H210 0.961 . S
C223 H211 0.959 . S
C223 C221 1.561 . S
C224 C221 1.526 . S
C224 C225 1.396 . S
C224 C229 1.390 . S
C225 C219 1.465 . S
C225 C224 1.396 . S
C225 C226 1.399 . S
C226 H212 0.929 . S
C226 C225 1.399 . S
C226 C227 1.385 . S
C227 H213 0.931 . S
C227 C226 1.385 . S
C227 C228 1.389 . S
C228 C227 1.389 . S
C228 C229 1.387 . S
C229 H214 0.930 . S
C229 C224 1.390 . S
C229 C228 1.387 . S
H230 C242 0.930 . S
H231 C244 0.930 . S
H232 C245 0.930 . S
H233 C249 0.959 . S
H234 C249 0.959 . S
H235 C249 0.961 . S
H236 C250 0.960 . S
H237 C250 0.961 . S
H238 C250 0.959 . S
H239 C253 0.929 . S
H240 C254 0.931 . S
H241 C256 0.930 . S
C242 H230 0.930 . S
C242 C243 1.399 . S
C242 C247 1.399 . S
C243 C242 1.399 . S
C243 C244 1.376 . S
C244 H231 0.930 . S
C244 C243 1.376 . S
C244 C245 1.388 . S
C245 H232 0.930 . S
C245 C244 1.388 . S
C245 C246 1.390 . S
C246 C245 1.390 . S
C246 C247 1.394 . S
C246 C252 1.465 . S
C247 C242 1.399 . S
C247 C246 1.394 . S
C247 C248 1.516 . S
C248 C247 1.516 . S
C248 C249 1.502 . S
C248 C250 1.561 . S
C248 C251 1.526 . S
C249 H233 0.959 . S
C249 H234 0.959 . S
C249 H235 0.961 . S
C249 C248 1.502 . S
C250 H236 0.960 . S
C250 H237 0.961 . S
C250 H238 0.959 . S
C250 C248 1.561 . S
C251 C248 1.526 . S
C251 C252 1.396 . S
C251 C256 1.390 . S
C252 C246 1.465 . S
C252 C251 1.396 . S
C252 C253 1.399 . S
C253 H239 0.929 . S
C253 C252 1.399 . S
C253 C254 1.385 . S
C254 H240 0.931 . S
C254 C253 1.385 . S
C254 C255 1.389 . S
C255 C254 1.389 . S
C255 C256 1.387 . S
C256 H241 0.930 . S
C256 C251 1.390 . S
C256 C255 1.387 . S
H257 C269 0.930 . S
H258 C271 0.930 . S
H259 C272 0.930 . S
H260 C276 0.959 . S
H261 C276 0.959 . S
H262 C276 0.961 . S
H263 C277 0.960 . S
H264 C277 0.961 . S
H265 C277 0.959 . S
H266 C280 0.929 . S
H267 C281 0.931 . S
H268 C283 0.930 . S
C269 H257 0.930 . S
C269 C270 1.399 . S
C269 C274 1.399 . S
C270 C269 1.399 . S
C270 C271 1.376 . S
C271 H258 0.930 . S
C271 C270 1.376 . S
C271 C272 1.388 . S
C272 H259 0.930 . S
C272 C271 1.388 . S
C272 C273 1.390 . S
C273 C272 1.390 . S
C273 C274 1.394 . S
C273 C279 1.465 . S
C274 C269 1.399 . S
C274 C273 1.394 . S
C274 C275 1.516 . S
C275 C274 1.516 . S
C275 C276 1.502 . S
C275 C277 1.561 . S
C275 C278 1.526 . S
C276 H260 0.959 . S
C276 H261 0.959 . S
C276 H262 0.961 . S
C276 C275 1.502 . S
C277 H263 0.960 . S
C277 H264 0.961 . S
C277 H265 0.959 . S
C277 C275 1.561 . S
C278 C275 1.526 . S
C278 C279 1.396 . S
C278 C283 1.390 . S
C279 C273 1.465 . S
C279 C278 1.396 . S
C279 C280 1.399 . S
C280 H266 0.929 . S
C280 C279 1.399 . S
C280 C281 1.385 . S
C281 H267 0.931 . S
C281 C280 1.385 . S
C281 C282 1.389 . S
C282 C281 1.389 . S
C282 C283 1.387 . S
C283 H268 0.930 . S
C283 C278 1.390 . S
C283 C282 1.387 . S
H284 C296 0.930 . S
H285 C298 0.930 . S
H286 C299 0.930 . S
H287 C303 0.959 . S
H288 C303 0.959 . S
H289 C303 0.961 . S
H290 C304 0.960 1_554 S
H291 C304 0.961 . S
H292 C304 0.959 . S
H293 C307 0.929 . S
H294 C308 0.931 . S
H295 C310 0.930 . S
C296 H284 0.930 . S
C296 C297 1.399 . S
C296 C301 1.399 . S
C297 C296 1.399 . S
C297 C298 1.376 . S
C298 H285 0.930 . S
C298 C297 1.376 . S
C298 C299 1.388 . S
C299 H286 0.930 . S
C299 C298 1.388 . S
C299 C300 1.390 . S
C300 C299 1.390 . S
C300 C301 1.394 . S
C300 C306 1.465 . S
C301 C296 1.399 . S
C301 C300 1.394 . S
C301 C302 1.516 . S
C302 C301 1.516 . S
C302 C303 1.502 . S
C302 C304 1.561 . S
C302 C305 1.526 . S
C303 H287 0.959 . S
C303 H288 0.959 . S
C303 H289 0.961 . S
C303 C302 1.502 . S
C304 H290 0.960 1_556 S
C304 H291 0.961 . S
C304 H292 0.959 . S
C304 C302 1.561 . S
C305 C302 1.526 . S
C305 C306 1.396 . S
C305 C310 1.390 . S
C306 C300 1.465 . S
C306 C305 1.396 . S
C306 C307 1.399 . S
C307 H293 0.929 . S
C307 C306 1.399 . S
C307 C308 1.385 . S
C308 H294 0.931 . S
C308 C307 1.385 . S
C308 C309 1.389 . S
C309 C308 1.389 . S
C309 C310 1.387 . S
C310 H295 0.930 . S
C310 C305 1.390 . S
C310 C309 1.387 . S
H311 C323 0.930 . S
H312 C325 0.930 . S
H313 C326 0.930 . S
H314 C330 0.959 . S
H315 C330 0.959 . S
H316 C330 0.961 . S
H317 C331 0.960 . S
H318 C331 0.961 . S
H319 C331 0.959 . S
H320 C334 0.929 . S
H321 C335 0.931 . S
H322 C337 0.930 . S
C323 H311 0.930 . S
C323 C324 1.399 . S
C323 C328 1.399 . S
C324 C323 1.399 . S
C324 C325 1.376 . S
C325 H312 0.930 . S
C325 C324 1.376 . S
C325 C326 1.388 . S
C326 H313 0.930 . S
C326 C325 1.388 . S
C326 C327 1.390 . S
C327 C326 1.390 . S
C327 C328 1.394 . S
C327 C333 1.465 . S
C328 C323 1.399 . S
C328 C327 1.394 . S
C328 C329 1.516 . S
C329 C328 1.516 . S
C329 C330 1.502 . S
C329 C331 1.561 . S
C329 C332 1.526 . S
C330 H314 0.959 . S
C330 H315 0.959 . S
C330 H316 0.961 . S
C330 C329 1.502 . S
C331 H317 0.960 . S
C331 H318 0.961 . S
C331 H319 0.959 . S
C331 C329 1.561 . S
C332 C329 1.526 . S
C332 C333 1.396 . S
C332 C337 1.390 . S
C333 C327 1.465 . S
C333 C332 1.396 . S
C333 C334 1.399 . S
C334 H320 0.929 . S
C334 C333 1.399 . S
C334 C335 1.385 . S
C335 H321 0.931 . S
C335 C334 1.385 . S
C335 C336 1.389 . S
C336 C335 1.389 . S
C336 C337 1.387 . S
C337 H322 0.930 . S
C337 C332 1.390 . S
C337 C336 1.387 . S
H338 C350 0.930 . S
H339 C352 0.930 . S
H340 C353 0.930 . S
H341 C357 0.959 . S
H342 C357 0.959 . S
H343 C357 0.961 . S
H344 C358 0.960 1_554 S
H345 C358 0.961 . S
H346 C358 0.959 . S
H347 C361 0.929 . S
H348 C362 0.931 . S
H349 C364 0.930 . S
C350 H338 0.930 . S
C350 C351 1.399 . S
C350 C355 1.399 . S
C351 C350 1.399 . S
C351 C352 1.376 . S
C352 H339 0.930 . S
C352 C351 1.376 . S
C352 C353 1.388 . S
C353 H340 0.930 . S
C353 C352 1.388 . S
C353 C354 1.390 . S
C354 C353 1.390 . S
C354 C355 1.394 . S
C354 C360 1.465 . S
C355 C350 1.399 . S
C355 C354 1.394 . S
C355 C356 1.516 . S
C356 C355 1.516 . S
C356 C357 1.502 . S
C356 C358 1.561 . S
C356 C359 1.526 . S
C357 H341 0.959 . S
C357 H342 0.959 . S
C357 H343 0.961 . S
C357 C356 1.502 . S
C358 H344 0.960 1_556 S
C358 H345 0.961 . S
C358 H346 0.959 . S
C358 C356 1.561 . S
C359 C356 1.526 . S
C359 C360 1.396 . S
C359 C364 1.390 . S
C360 C354 1.465 . S
C360 C359 1.396 . S
C360 C361 1.399 . S
C361 H347 0.929 . S
C361 C360 1.399 . S
C361 C362 1.385 . S
C362 H348 0.931 . S
C362 C361 1.385 . S
C362 C363 1.389 . S
C363 C362 1.389 . S
C363 C364 1.387 . S
C364 H349 0.930 . S
C364 C359 1.390 . S
C364 C363 1.387 . S
H365 C377 0.930 . S
H366 C379 0.930 . S
H367 C380 0.930 . S
H368 C384 0.959 . S
H369 C384 0.959 . S
H370 C384 0.961 . S
H371 C385 0.960 . S
H372 C385 0.961 . S
H373 C385 0.959 . S
H374 C388 0.929 . S
H375 C389 0.931 . S
H376 C391 0.930 . S
C377 H365 0.930 . S
C377 C378 1.399 . S
C377 C382 1.399 . S
C378 C377 1.399 . S
C378 C379 1.376 . S
C379 H366 0.930 . S
C379 C378 1.376 . S
C379 C380 1.388 . S
C380 H367 0.930 . S
C380 C379 1.388 . S
C380 C381 1.390 . S
C381 C380 1.390 . S
C381 C382 1.394 . S
C381 C387 1.465 . S
C382 C377 1.399 . S
C382 C381 1.394 . S
C382 C383 1.516 . S
C383 C382 1.516 . S
C383 C384 1.502 . S
C383 C385 1.561 . S
C383 C386 1.526 . S
C384 H368 0.959 . S
C384 H369 0.959 . S
C384 H370 0.961 . S
C384 C383 1.502 . S
C385 H371 0.960 . S
C385 H372 0.961 . S
C385 H373 0.959 . S
C385 C383 1.561 . S
C386 C383 1.526 . S
C386 C387 1.396 . S
C386 C391 1.390 . S
C387 C381 1.465 . S
C387 C386 1.396 . S
C387 C388 1.399 . S
C388 H374 0.929 . S
C388 C387 1.399 . S
C388 C389 1.385 . S
C389 H375 0.931 . S
C389 C388 1.385 . S
C389 C390 1.389 . S
C390 C389 1.389 . S
C390 C391 1.387 . S
C391 H376 0.930 . S
C391 C386 1.390 . S
C391 C390 1.387 . S
H392 C404 0.930 . S
H393 C406 0.930 . S
H394 C407 0.930 . S
H395 C411 0.959 . S
H396 C411 0.959 . S
H397 C411 0.961 . S
H398 C412 0.960 . S
H399 C412 0.961 . S
H400 C412 0.959 . S
H401 C415 0.929 . S
H402 C416 0.931 . S
H403 C418 0.930 . S
C404 H392 0.930 . S
C404 C405 1.399 . S
C404 C409 1.399 . S
C405 C404 1.399 . S
C405 C406 1.376 . S
C406 H393 0.930 . S
C406 C405 1.376 . S
C406 C407 1.388 . S
C407 H394 0.930 . S
C407 C406 1.388 . S
C407 C408 1.390 . S
C408 C407 1.390 . S
C408 C409 1.394 . S
C408 C414 1.465 . S
C409 C404 1.399 . S
C409 C408 1.394 . S
C409 C410 1.516 . S
C410 C409 1.516 . S
C410 C411 1.502 . S
C410 C412 1.561 . S
C410 C413 1.526 . S
C411 H395 0.959 . S
C411 H396 0.959 . S
C411 H397 0.961 . S
C411 C410 1.502 . S
C412 H398 0.960 . S
C412 H399 0.961 . S
C412 H400 0.959 . S
C412 C410 1.561 . S
C413 C410 1.526 . S
C413 C414 1.396 . S
C413 C418 1.390 . S
C414 C408 1.465 . S
C414 C413 1.396 . S
C414 C415 1.399 . S
C415 H401 0.929 . S
C415 C414 1.399 . S
C415 C416 1.385 . S
C416 H402 0.931 . S
C416 C415 1.385 . S
C416 C417 1.389 . S
C417 C416 1.389 . S
C417 C418 1.387 . S
C418 H403 0.930 . S
C418 C413 1.390 . S
C418 C417 1.387 . S
H419 C431 0.930 . S
H420 C433 0.930 . S
H421 C434 0.930 . S
H422 C438 0.959 . S
H423 C438 0.959 . S
H424 C438 0.961 . S
H425 C439 0.960 . S
H426 C439 0.961 . S
H427 C439 0.959 . S
H428 C442 0.929 . S
H429 C443 0.931 . S
H430 C445 0.930 . S
C431 H419 0.930 . S
C431 C432 1.399 . S
C431 C436 1.399 . S
C432 C431 1.399 . S
C432 C433 1.376 . S
C433 H420 0.930 . S
C433 C432 1.376 . S
C433 C434 1.388 . S
C434 H421 0.930 . S
C434 C433 1.388 . S
C434 C435 1.390 . S
C435 C434 1.390 . S
C435 C436 1.394 . S
C435 C441 1.465 . S
C436 C431 1.399 . S
C436 C435 1.394 . S
C436 C437 1.516 . S
C437 C436 1.516 . S
C437 C438 1.502 . S
C437 C439 1.561 . S
C437 C440 1.526 . S
C438 H422 0.959 . S
C438 H423 0.959 . S
C438 H424 0.961 . S
C438 C437 1.502 . S
C439 H425 0.960 . S
C439 H426 0.961 . S
C439 H427 0.959 . S
C439 C437 1.561 . S
C440 C437 1.526 . S
C440 C441 1.396 . S
C440 C445 1.390 . S
C441 C435 1.465 . S
C441 C440 1.396 . S
C441 C442 1.399 . S
C442 H428 0.929 . S
C442 C441 1.399 . S
C442 C443 1.385 . S
C443 H429 0.931 . S
C443 C442 1.385 . S
C443 C444 1.389 . S
C444 C443 1.389 . S
C444 C445 1.387 . S
C445 H430 0.930 . S
C445 C440 1.390 . S
C445 C444 1.387 . S
H446 C458 0.930 . S
H447 C460 0.930 1_554 S
H448 C461 0.930 1_554 S
H449 C465 0.959 . S
H450 C465 0.959 . S
H451 C465 0.961 . S
H452 C466 0.960 . S
H453 C466 0.961 . S
H454 C466 0.959 . S
H455 C469 0.929 . S
H456 C470 0.931 . S
H457 C472 0.930 . S
C458 H446 0.930 . S
C458 C459 1.399 . S
C458 C463 1.399 . S
C459 C458 1.399 . S
C459 C460 1.376 . S
C460 H447 0.930 1_556 S
C460 C459 1.376 . S
C460 C461 1.388 . S
C461 H448 0.930 1_556 S
C461 C460 1.388 . S
C461 C462 1.390 . S
C462 C461 1.390 . S
C462 C463 1.394 . S
C462 C468 1.465 . S
C463 C458 1.399 . S
C463 C462 1.394 . S
C463 C464 1.516 . S
C464 C463 1.516 . S
C464 C465 1.502 . S
C464 C466 1.561 . S
C464 C467 1.526 . S
C465 H449 0.959 . S
C465 H450 0.959 . S
C465 H451 0.961 . S
C465 C464 1.502 . S
C466 H452 0.960 . S
C466 H453 0.961 . S
C466 H454 0.959 . S
C466 C464 1.561 . S
C467 C464 1.526 . S
C467 C468 1.396 . S
C467 C472 1.390 . S
C468 C462 1.465 . S
C468 C467 1.396 . S
C468 C469 1.399 . S
C469 H455 0.929 . S
C469 C468 1.399 . S
C469 C470 1.385 . S
C470 H456 0.931 . S
C470 C469 1.385 . S
C470 C471 1.389 . S
C471 C470 1.389 . S
C471 C472 1.387 . S
C472 H457 0.930 . S
C472 C467 1.390 . S
C472 C471 1.387 . S
H473 C485 0.930 . S
H474 C487 0.930 . S
H475 C488 0.930 . S
H476 C492 0.959 . S
H477 C492 0.959 . S
H478 C492 0.961 . S
H479 C493 0.960 . S
H480 C493 0.961 . S
H481 C493 0.959 . S
H482 C496 0.929 . S
H483 C497 0.931 . S
H484 C499 0.930 . S
C485 H473 0.930 . S
C485 C486 1.399 . S
C485 C490 1.399 . S
C486 C485 1.399 . S
C486 C487 1.376 . S
C487 H474 0.930 . S
C487 C486 1.376 . S
C487 C488 1.388 . S
C488 H475 0.930 . S
C488 C487 1.388 . S
C488 C489 1.390 . S
C489 C488 1.390 . S
C489 C490 1.394 . S
C489 C495 1.465 . S
C490 C485 1.399 . S
C490 C489 1.394 . S
C490 C491 1.516 . S
C491 C490 1.516 . S
C491 C492 1.502 . S
C491 C493 1.561 . S
C491 C494 1.526 . S
C492 H476 0.959 . S
C492 H477 0.959 . S
C492 H478 0.961 . S
C492 C491 1.502 . S
C493 H479 0.960 . S
C493 H480 0.961 . S
C493 H481 0.959 . S
C493 C491 1.561 . S
C494 C491 1.526 . S
C494 C495 1.396 . S
C494 C499 1.390 . S
C495 C489 1.465 . S
C495 C494 1.396 . S
C495 C496 1.399 . S
C496 H482 0.929 . S
C496 C495 1.399 . S
C496 C497 1.385 . S
C497 H483 0.931 . S
C497 C496 1.385 . S
C497 C498 1.389 . S
C498 C497 1.389 . S
C498 C499 1.387 . S
C499 H484 0.930 . S
C499 C494 1.390 . S
C499 C498 1.387 . S
H500 C512 0.930 . S
H501 C514 0.930 1_554 S
H502 C515 0.930 . S
H503 C519 0.959 1_565 S
H504 C519 0.959 . S
H505 C519 0.961 . S
H506 C520 0.960 . S
H507 C520 0.961 . S
H508 C520 0.959 . S
H509 C523 0.929 1_565 S
H510 C524 0.931 . S
H511 C526 0.930 . S
C512 H500 0.930 . S
C512 C513 1.399 . S
C512 C517 1.399 . S
C513 C512 1.399 . S
C513 C514 1.376 . S
C514 H501 0.930 1_556 S
C514 C513 1.376 . S
C514 C515 1.388 . S
C515 H502 0.930 . S
C515 C514 1.388 . S
C515 C516 1.390 . S
C516 C515 1.390 . S
C516 C517 1.394 . S
C516 C522 1.465 1_565 S
C517 C512 1.399 . S
C517 C516 1.394 . S
C517 C518 1.516 1_565 S
C518 C517 1.516 1_545 S
C518 C519 1.502 . S
C518 C520 1.561 . S
C518 C521 1.526 . S
C519 H503 0.959 1_545 S
C519 H504 0.959 . S
C519 H505 0.961 . S
C519 C518 1.502 . S
C520 H506 0.960 . S
C520 H507 0.961 . S
C520 H508 0.959 . S
C520 C518 1.561 . S
C521 C518 1.526 . S
C521 C522 1.396 . S
C521 C526 1.390 . S
C522 C516 1.465 1_545 S
C522 C521 1.396 . S
C522 C523 1.399 . S
C523 H509 0.929 1_545 S
C523 C522 1.399 . S
C523 C524 1.385 . S
C524 H510 0.931 . S
C524 C523 1.385 . S
C524 C525 1.389 . S
C525 C524 1.389 . S
C525 C526 1.387 . S
C526 H511 0.930 . S
C526 C521 1.390 . S
C526 C525 1.387 . S
H527 C539 0.930 . S
H528 C541 0.930 . S
H529 C542 0.930 . S
H530 C546 0.959 . S
H531 C546 0.959 . S
H532 C546 0.961 . S
H533 C547 0.960 . S
H534 C547 0.961 . S
H535 C547 0.959 . S
H536 C550 0.929 . S
H537 C551 0.931 . S
H538 C553 0.930 . S
C539 H527 0.930 . S
C539 C540 1.399 . S
C539 C544 1.399 . S
C540 C539 1.399 . S
C540 C541 1.376 . S
C541 H528 0.930 . S
C541 C540 1.376 . S
C541 C542 1.388 . S
C542 H529 0.930 . S
C542 C541 1.388 . S
C542 C543 1.390 . S
C543 C542 1.390 . S
C543 C544 1.394 . S
C543 C549 1.465 . S
C544 C539 1.399 . S
C544 C543 1.394 . S
C544 C545 1.516 1_545 S
C545 C544 1.516 1_565 S
C545 C546 1.502 . S
C545 C547 1.561 . S
C545 C548 1.526 . S
C546 H530 0.959 . S
C546 H531 0.959 . S
C546 H532 0.961 . S
C546 C545 1.502 . S
C547 H533 0.960 . S
C547 H534 0.961 . S
C547 H535 0.959 . S
C547 C545 1.561 . S
C548 C545 1.526 . S
C548 C549 1.396 1_565 S
C548 C553 1.390 . S
C549 C543 1.465 . S
C549 C548 1.396 1_545 S
C549 C550 1.399 . S
C550 H536 0.929 . S
C550 C549 1.399 . S
C550 C551 1.385 1_545 S
C551 H537 0.931 . S
C551 C550 1.385 1_565 S
C551 C552 1.389 . S
C552 C551 1.389 . S
C552 C553 1.387 . S
C553 H538 0.930 . S
C553 C548 1.390 . S
C553 C552 1.387 . S
H554 C566 0.930 . S
H555 C568 0.930 . S
H556 C569 0.930 . S
H557 C573 0.959 . S
H558 C573 0.959 . S
H559 C573 0.961 . S
H560 C574 0.960 . S
H561 C574 0.961 . S
H562 C574 0.984 . S
H563 C577 0.929 . S
H564 C578 0.931 . S
H565 C580 0.930 . S
C566 H554 0.930 . S
C566 C567 1.399 . S
C566 C571 1.399 . S
C567 C566 1.399 . S
C567 C568 1.376 . S
C568 H555 0.930 . S
C568 C567 1.376 . S
C568 C569 1.388 . S
C569 H556 0.930 . S
C569 C568 1.388 . S
C569 C570 1.390 . S
C570 C569 1.390 . S
C570 C571 1.394 . S
C570 C576 1.465 . S
C571 C566 1.399 . S
C571 C570 1.394 . S
C571 C572 1.516 1_565 S
C572 C571 1.516 1_545 S
C572 C573 1.502 . S
C572 C574 1.561 . S
C572 C575 1.526 . S
C573 H557 0.959 . S
C573 H558 0.959 . S
C573 H559 0.961 . S
C573 C572 1.502 . S
C574 H560 0.960 . S
C574 H561 0.961 . S
C574 H562 0.984 . S
C574 C572 1.561 . S
C575 C572 1.526 . S
C575 C576 1.396 1_545 S
C575 C580 1.390 . S
C576 C570 1.465 . S
C576 C575 1.396 1_565 S
C576 C577 1.399 . S
C577 H563 0.929 . S
C577 C576 1.399 . S
C577 C578 1.385 1_565 S
C578 H564 0.931 . S
C578 C577 1.385 1_545 S
C578 C579 1.389 . S
C579 C578 1.389 . S
C579 C580 1.387 . S
C580 H565 0.930 . S
C580 C575 1.390 . S
C580 C579 1.387 . S
H581 C593 0.930 . S
H582 C595 0.930 . S
H583 C596 0.930 . S
H584 C600 0.959 . S
H585 C600 0.959 . S
H586 C600 0.961 . S
H587 C601 0.960 . S
H588 C601 0.961 . S
H589 C601 0.959 . S
H590 C604 0.929 . S
H591 C605 0.931 . S
H592 C607 0.930 . S
C593 H581 0.930 . S
C593 C594 1.399 . S
C593 C598 1.399 . S
C594 C593 1.399 . S
C594 C595 1.376 . S
C595 H582 0.930 . S
C595 C594 1.376 . S
C595 C596 1.388 1_545 S
C596 H583 0.930 . S
C596 C595 1.388 1_565 S
C596 C597 1.390 . S
C597 C596 1.390 . S
C597 C598 1.394 1_565 S
C597 C603 1.465 . S
C598 C593 1.399 . S
C598 C597 1.394 1_545 S
C598 C599 1.516 . S
C599 C598 1.516 . S
C599 C600 1.502 . S
C599 C601 1.561 . S
C599 C602 1.526 1_545 S
C600 H584 0.959 . S
C600 H585 0.959 . S
C600 H586 0.961 . S
C600 C599 1.502 . S
C601 H587 0.960 . S
C601 H588 0.961 . S
C601 H589 0.959 . S
C601 C599 1.561 . S
C602 C599 1.526 1_565 S
C602 C603 1.396 . S
C602 C607 1.390 . S
C603 C597 1.465 . S
C603 C602 1.396 . S
C603 C604 1.399 . S
C604 H590 0.929 . S
C604 C603 1.399 . S
C604 C605 1.385 . S
C605 H591 0.931 . S
C605 C604 1.385 . S
C605 C606 1.389 . S
C606 C605 1.389 . S
C606 C607 1.387 . S
C607 H592 0.930 . S
C607 C602 1.390 . S
C607 C606 1.387 . S
H608 C620 0.930 . S
H609 C622 0.930 . S
H610 C623 0.930 . S
H611 C627 0.959 . S
H612 C627 0.959 . S
H613 C627 0.961 . S
H614 C628 0.960 . S
H615 C628 0.961 . S
H616 C628 0.959 . S
H617 C631 0.929 . S
H618 C632 0.931 . S
H619 C634 0.930 . S
C620 H608 0.930 . S
C620 C621 1.399 . S
C620 C625 1.399 . S
C621 C620 1.399 . S
C621 C622 1.376 . S
C622 H609 0.930 . S
C622 C621 1.376 . S
C622 C623 1.388 . S
C623 H610 0.930 . S
C623 C622 1.388 . S
C623 C624 1.390 . S
C624 C623 1.390 . S
C624 C625 1.394 . S
C624 C630 1.465 . S
C625 C620 1.399 . S
C625 C624 1.394 . S
C625 C626 1.516 . S
C626 C625 1.516 . S
C626 C627 1.502 . S
C626 C628 1.561 . S
C626 C629 1.526 . S
C627 H611 0.959 . S
C627 H612 0.959 . S
C627 H613 0.961 . S
C627 C626 1.502 . S
C628 H614 0.960 . S
C628 H615 0.961 . S
C628 H616 0.959 . S
C628 C626 1.561 . S
C629 C626 1.526 . S
C629 C630 1.396 . S
C629 C634 1.390 . S
C630 C624 1.465 . S
C630 C629 1.396 . S
C630 C631 1.399 . S
C631 H617 0.929 . S
C631 C630 1.399 . S
C631 C632 1.385 . S
C632 H618 0.931 . S
C632 C631 1.385 . S
C632 C633 1.389 . S
C633 C632 1.389 . S
C633 C634 1.387 . S
C634 H619 0.930 . S
C634 C629 1.390 . S
C634 C633 1.387 . S
H635 C647 0.930 . S
H636 C649 0.930 . S
H637 C650 0.930 . S
H638 C654 0.959 . S
H639 C654 0.959 . S
H640 C654 0.961 . S
H641 C655 0.960 . S
H642 C655 0.961 . S
H643 C655 0.959 . S
H644 C658 0.929 . S
H645 C659 0.931 . S
H646 C661 0.930 . S
C647 H635 0.930 . S
C647 C648 1.399 . S
C647 C652 1.399 . S
C648 C647 1.399 . S
C648 C649 1.376 . S
C649 H636 0.930 . S
C649 C648 1.376 . S
C649 C650 1.388 . S
C650 H637 0.930 . S
C650 C649 1.388 . S
C650 C651 1.390 . S
C651 C650 1.390 . S
C651 C652 1.394 . S
C651 C657 1.465 . S
C652 C647 1.399 . S
C652 C651 1.394 . S
C652 C653 1.516 . S
C653 C652 1.516 . S
C653 C654 1.502 . S
C653 C655 1.561 . S
C653 C656 1.526 . S
C654 H638 0.959 . S
C654 H639 0.959 . S
C654 H640 0.961 . S
C654 C653 1.502 . S
C655 H641 0.960 . S
C655 H642 0.961 . S
C655 H643 0.959 . S
C655 C653 1.561 . S
C656 C653 1.526 . S
C656 C657 1.396 . S
C656 C661 1.390 . S
C657 C651 1.465 . S
C657 C656 1.396 . S
C657 C658 1.399 . S
C658 H644 0.929 . S
C658 C657 1.399 . S
C658 C659 1.385 . S
C659 H645 0.931 . S
C659 C658 1.385 . S
C659 C660 1.389 . S
C660 C659 1.389 . S
C660 C661 1.387 . S
C661 H646 0.930 . S
C661 C656 1.390 . S
C661 C660 1.387 . S
H662 C674 0.930 . S
H663 C676 0.930 . S
H664 C677 0.930 . S
H665 C681 0.959 . S
H666 C681 0.959 . S
H667 C681 0.961 . S
H668 C682 0.960 . S
H669 C682 0.961 . S
H670 C682 0.959 . S
H671 C685 0.929 . S
H672 C686 0.931 . S
H673 C688 0.930 . S
C674 H662 0.930 . S
C674 C675 1.399 . S
C674 C679 1.399 . S
C675 C674 1.399 . S
C675 C676 1.376 . S
C676 H663 0.930 . S
C676 C675 1.376 . S
C676 C677 1.388 . S
C677 H664 0.930 . S
C677 C676 1.388 . S
C677 C678 1.390 . S
C678 C677 1.390 . S
C678 C679 1.394 . S
C678 C684 1.465 . S
C679 C674 1.399 . S
C679 C678 1.394 . S
C679 C680 1.516 . S
C680 C679 1.516 . S
C680 C681 1.502 . S
C680 C682 1.561 . S
C680 C683 1.526 . S
C681 H665 0.959 . S
C681 H666 0.959 . S
C681 H667 0.961 . S
C681 C680 1.502 . S
C682 H668 0.960 . S
C682 H669 0.961 . S
C682 H670 0.959 . S
C682 C680 1.561 . S
C683 C680 1.526 . S
C683 C684 1.396 . S
C683 C688 1.390 . S
C684 C678 1.465 . S
C684 C683 1.396 . S
C684 C685 1.399 . S
C685 H671 0.929 . S
C685 C684 1.399 . S
C685 C686 1.385 . S
C686 H672 0.931 . S
C686 C685 1.385 . S
C686 C687 1.389 . S
C687 C686 1.389 . S
C687 C688 1.387 . S
C688 H673 0.930 . S
C688 C683 1.390 . S
C688 C687 1.387 . S
H689 C701 0.930 . S
H690 C703 0.930 . S
H691 C704 0.930 . S
H692 C708 0.959 . S
H693 C708 0.959 . S
H694 C708 0.961 . S
H695 C709 0.960 . S
H696 C709 0.961 . S
H697 C709 0.959 . S
H698 C712 0.929 . S
H699 C713 0.931 . S
H700 C715 0.930 . S
C701 H689 0.930 . S
C701 C702 1.399 . S
C701 C706 1.399 . S
C702 C701 1.399 . S
C702 C703 1.376 . S
C703 H690 0.930 . S
C703 C702 1.376 . S
C703 C704 1.388 . S
C704 H691 0.930 . S
C704 C703 1.388 . S
C704 C705 1.390 . S
C705 C704 1.390 . S
C705 C706 1.394 . S
C705 C711 1.465 . S
C706 C701 1.399 . S
C706 C705 1.394 . S
C706 C707 1.516 . S
C707 C706 1.516 . S
C707 C708 1.502 . S
C707 C709 1.561 . S
C707 C710 1.526 . S
C708 H692 0.959 . S
C708 H693 0.959 . S
C708 H694 0.961 . S
C708 C707 1.502 . S
C709 H695 0.960 . S
C709 H696 0.961 . S
C709 H697 0.959 . S
C709 C707 1.561 . S
C710 C707 1.526 . S
C710 C711 1.396 . S
C710 C715 1.390 . S
C711 C705 1.465 . S
C711 C710 1.396 . S
C711 C712 1.399 . S
C712 H698 0.929 . S
C712 C711 1.399 . S
C712 C713 1.385 . S
C713 H699 0.931 . S
C713 C712 1.385 . S
C713 C714 1.389 . S
C714 C713 1.389 . S
C714 C715 1.387 . S
C715 H700 0.930 . S
C715 C710 1.390 . S
C715 C714 1.387 . S
H716 C728 0.930 . S
H717 C730 0.930 . S
H718 C731 0.930 . S
H719 C735 0.959 . S
H720 C735 0.959 . S
H721 C735 0.961 . S
H722 C736 0.960 . S
H723 C736 0.961 . S
H724 C736 0.959 . S
H725 C739 0.929 . S
H726 C740 0.931 . S
H727 C742 0.930 . S
C728 H716 0.930 . S
C728 C729 1.399 . S
C728 C733 1.399 . S
C729 C728 1.399 . S
C729 C730 1.376 . S
C730 H717 0.930 . S
C730 C729 1.376 . S
C730 C731 1.388 . S
C731 H718 0.930 . S
C731 C730 1.388 . S
C731 C732 1.390 . S
C732 C731 1.390 . S
C732 C733 1.394 . S
C732 C738 1.465 . S
C733 C728 1.399 . S
C733 C732 1.394 . S
C733 C734 1.516 . S
C734 C733 1.516 . S
C734 C735 1.502 . S
C734 C736 1.561 . S
C734 C737 1.526 . S
C735 H719 0.959 . S
C735 H720 0.959 . S
C735 H721 0.961 . S
C735 C734 1.502 . S
C736 H722 0.960 . S
C736 H723 0.961 . S
C736 H724 0.959 . S
C736 C734 1.561 . S
C737 C734 1.526 . S
C737 C738 1.396 . S
C737 C742 1.390 . S
C738 C732 1.465 . S
C738 C737 1.396 . S
C738 C739 1.399 . S
C739 H725 0.929 . S
C739 C738 1.399 . S
C739 C740 1.385 . S
C740 H726 0.931 . S
C740 C739 1.385 . S
C740 C741 1.389 . S
C741 C740 1.389 . S
C741 C742 1.387 . S
C742 H727 0.930 . S
C742 C737 1.390 . S
C742 C741 1.387 . S
H743 C755 0.930 . S
H744 C757 0.930 . S
H745 C758 0.930 . S
H746 C762 0.959 . S
H747 C762 0.959 . S
H748 C762 0.961 . S
H749 C763 0.960 . S
H750 C763 0.961 . S
H751 C763 0.959 . S
H752 C766 0.929 . S
H753 C767 0.931 . S
H754 C769 0.930 . S
C755 H743 0.930 . S
C755 C756 1.399 . S
C755 C760 1.399 . S
C756 C755 1.399 . S
C756 C757 1.376 . S
C757 H744 0.930 . S
C757 C756 1.376 . S
C757 C758 1.388 . S
C758 H745 0.930 . S
C758 C757 1.388 . S
C758 C759 1.390 . S
C759 C758 1.390 . S
C759 C760 1.394 . S
C759 C765 1.465 . S
C760 C755 1.399 . S
C760 C759 1.394 . S
C760 C761 1.516 . S
C761 C760 1.516 . S
C761 C762 1.502 . S
C761 C763 1.561 . S
C761 C764 1.526 . S
C762 H746 0.959 . S
C762 H747 0.959 . S
C762 H748 0.961 . S
C762 C761 1.502 . S
C763 H749 0.960 . S
C763 H750 0.961 . S
C763 H751 0.959 . S
C763 C761 1.561 . S
C764 C761 1.526 . S
C764 C765 1.396 . S
C764 C769 1.390 . S
C765 C759 1.465 . S
C765 C764 1.396 . S
C765 C766 1.399 . S
C766 H752 0.929 . S
C766 C765 1.399 . S
C766 C767 1.385 . S
C767 H753 0.931 . S
C767 C766 1.385 . S
C767 C768 1.389 . S
C768 C767 1.389 . S
C768 C769 1.387 . S
C769 H754 0.930 . S
C769 C764 1.390 . S
C769 C768 1.387 . S
H770 C782 0.930 . S
H771 C784 0.930 . S
H772 C785 0.930 . S
H773 C789 0.959 . S
H774 C789 0.959 . S
H775 C789 0.961 . S
H776 C790 0.960 . S
H777 C790 0.961 . S
H778 C790 0.959 . S
H779 C793 0.929 . S
H780 C794 0.931 . S
H781 C796 0.930 . S
C782 H770 0.930 . S
C782 C783 1.399 . S
C782 C787 1.399 . S
C783 C782 1.399 . S
C783 C784 1.376 . S
C784 H771 0.930 . S
C784 C783 1.376 . S
C784 C785 1.388 . S
C785 H772 0.930 . S
C785 C784 1.388 . S
C785 C786 1.390 . S
C786 C785 1.390 . S
C786 C787 1.394 . S
C786 C792 1.465 . S
C787 C782 1.399 . S
C787 C786 1.394 . S
C787 C788 1.516 . S
C788 C787 1.516 . S
C788 C789 1.502 . S
C788 C790 1.561 . S
C788 C791 1.526 . S
C789 H773 0.959 . S
C789 H774 0.959 . S
C789 H775 0.961 . S
C789 C788 1.502 . S
C790 H776 0.960 . S
C790 H777 0.961 . S
C790 H778 0.959 . S
C790 C788 1.561 . S
C791 C788 1.526 . S
C791 C792 1.396 . S
C791 C796 1.390 . S
C792 C786 1.465 . S
C792 C791 1.396 . S
C792 C793 1.399 . S
C793 H779 0.929 . S
C793 C792 1.399 . S
C793 C794 1.385 . S
C794 H780 0.931 . S
C794 C793 1.385 . S
C794 C795 1.389 . S
C795 C794 1.389 . S
C795 C796 1.387 . S
C796 H781 0.930 . S
C796 C791 1.390 . S
C796 C795 1.387 . S
H797 C809 0.930 . S
H798 C811 0.930 . S
H799 C812 0.930 . S
H800 C816 0.959 . S
H801 C816 0.959 . S
H802 C816 0.961 . S
H803 C817 0.960 . S
H804 C817 0.961 . S
H805 C817 0.959 . S
H806 C820 0.929 . S
H807 C821 0.931 . S
H808 C823 0.930 . S
C809 H797 0.930 . S
C809 C810 1.399 . S
C809 C814 1.399 . S
C810 C809 1.399 . S
C810 C811 1.376 . S
C811 H798 0.930 . S
C811 C810 1.376 . S
C811 C812 1.388 . S
C812 H799 0.930 . S
C812 C811 1.388 . S
C812 C813 1.390 . S
C813 C812 1.390 . S
C813 C814 1.394 . S
C813 C819 1.465 . S
C814 C809 1.399 . S
C814 C813 1.394 . S
C814 C815 1.516 . S
C815 C814 1.516 . S
C815 C816 1.502 . S
C815 C817 1.561 . S
C815 C818 1.526 . S
C816 H800 0.959 . S
C816 H801 0.959 . S
C816 H802 0.961 . S
C816 C815 1.502 . S
C817 H803 0.960 . S
C817 H804 0.961 . S
C817 H805 0.959 . S
C817 C815 1.561 . S
C818 C815 1.526 . S
C818 C819 1.396 . S
C818 C823 1.390 . S
C819 C813 1.465 . S
C819 C818 1.396 . S
C819 C820 1.399 . S
C820 H806 0.929 . S
C820 C819 1.399 . S
C820 C821 1.385 . S
C821 H807 0.931 . S
C821 C820 1.385 . S
C821 C822 1.389 . S
C822 C821 1.389 . S
C822 C823 1.387 . S
C823 H808 0.930 . S
C823 C818 1.390 . S
C823 C822 1.387 . S
C189 C10 1.514 . S
C201 C114 1.535 . S
C228 C92 1.500 . S
C216 C21 1.540 . S
C255 C118 1.551 . S
C243 C32 1.608 . S
C282 C96 1.480 . S
C270 C43 1.470 . S
C309 C158 1.500 . S
C297 C54 1.529 . S
C336 C136 1.498 . S
C324 C65 1.534 . S
C351 C76 1.575 . S
C363 C162 1.600 . S
C390 C140 1.435 . S
C378 C87 1.494 . S
C405 C5 1.461 . S
C417 C163 1.492 . S
C444 C141 1.472 . S
C432 C16 1.443 . S
C459 C27 1.515 . S
C471 C160 1.550 . S
C486 C37 1.441 . S
C498 C138 1.441 . S
C525 C119 1.492 . S
C513 C49 1.463 . S
C540 C60 1.440 . S
C552 C97 1.469 . S
C579 C116 1.546 . S
C567 C71 1.530 . S
C606 C94 1.435 . S
C594 C81 1.428 . S
C633 C137 1.490 . S
C621 C4 1.492 . S
C660 C159 1.488 . S
C648 C15 1.487 . S
C675 C26 1.475 . S
C687 C139 1.463 . S
C714 C161 1.476 . S
C702 C38 1.466 . S
C741 C93 1.498 . S
C729 C48 1.500 . S
C756 C59 1.455 . S
C768 C115 1.462 . S
C783 C70 1.480 . S
C795 C95 1.470 . S
C810 C82 1.424 . S
C822 C117 1.450 . S
