# Generated by pormake.
# Topology ssb, (4,4)-cn, num edge types: 1
# Building blocks:
#     Node 0, Type 0, BuildingBlock: KUFVIS_clean_linker_0, # of connection points: 4
#     Node 1, Type 0, BuildingBlock: KUFVIS_clean_linker_0, # of connection points: 4
#     Node 2, Type 0, BuildingBlock: KUFVIS_clean_linker_0, # of connection points: 4
#     Node 3, Type 0, BuildingBlock: KUFVIS_clean_linker_0, # of connection points: 4
#     Node 4, Type 0, BuildingBlock: KUFVIS_clean_linker_0, # of connection points: 4
#     Node 5, Type 0, BuildingBlock: KUFVIS_clean_linker_0, # of connection points: 4
#     Node 6, Type 0, BuildingBlock: KUFVIS_clean_linker_0, # of connection points: 4
#     Node 7, Type 0, BuildingBlock: KUFVIS_clean_linker_0, # of connection points: 4
#     Node 8, Type 1, BuildingBlock: KOZSID_clean_sbu_0, # of connection points: 4
#     Node 9, Type 1, BuildingBlock: KOZSID_clean_sbu_0, # of connection points: 4
#     Node 10, Type 1, BuildingBlock: KOZSID_clean_sbu_0, # of connection points: 4
#     Node 11, Type 1, BuildingBlock: KOZSID_clean_sbu_0, # of connection points: 4
#     Node 12, Type 1, BuildingBlock: KOZSID_clean_sbu_0, # of connection points: 4
#     Node 13, Type 1, BuildingBlock: KOZSID_clean_sbu_0, # of connection points: 4
#     Node 14, Type 1, BuildingBlock: KOZSID_clean_sbu_0, # of connection points: 4
#     Node 15, Type 1, BuildingBlock: KOZSID_clean_sbu_0, # of connection points: 4
#     Edge 16, Type (0, 1), BuildingBlock: EZIPEK_clean_linker_0, # of connection points: 2
#     Edge 17, Type (0, 1), BuildingBlock: EZIPEK_clean_linker_0, # of connection points: 2
#     Edge 18, Type (0, 1), BuildingBlock: EZIPEK_clean_linker_0, # of connection points: 2
#     Edge 19, Type (0, 1), BuildingBlock: EZIPEK_clean_linker_0, # of connection points: 2
#     Edge 20, Type (0, 1), BuildingBlock: EZIPEK_clean_linker_0, # of connection points: 2
#     Edge 21, Type (0, 1), BuildingBlock: EZIPEK_clean_linker_0, # of connection points: 2
#     Edge 22, Type (0, 1), BuildingBlock: EZIPEK_clean_linker_0, # of connection points: 2
#     Edge 23, Type (0, 1), BuildingBlock: EZIPEK_clean_linker_0, # of connection points: 2
#     Edge 24, Type (0, 1), BuildingBlock: EZIPEK_clean_linker_0, # of connection points: 2
#     Edge 25, Type (0, 1), BuildingBlock: EZIPEK_clean_linker_0, # of connection points: 2
#     Edge 26, Type (0, 1), BuildingBlock: EZIPEK_clean_linker_0, # of connection points: 2
#     Edge 27, Type (0, 1), BuildingBlock: EZIPEK_clean_linker_0, # of connection points: 2
#     Edge 28, Type (0, 1), BuildingBlock: EZIPEK_clean_linker_0, # of connection points: 2
#     Edge 29, Type (0, 1), BuildingBlock: EZIPEK_clean_linker_0, # of connection points: 2
#     Edge 30, Type (0, 1), BuildingBlock: EZIPEK_clean_linker_0, # of connection points: 2
#     Edge 31, Type (0, 1), BuildingBlock: EZIPEK_clean_linker_0, # of connection points: 2
#     Edge 32, Type (0, 1), BuildingBlock: EZIPEK_clean_linker_0, # of connection points: 2
#     Edge 33, Type (0, 1), BuildingBlock: EZIPEK_clean_linker_0, # of connection points: 2
#     Edge 34, Type (0, 1), BuildingBlock: EZIPEK_clean_linker_0, # of connection points: 2
#     Edge 35, Type (0, 1), BuildingBlock: EZIPEK_clean_linker_0, # of connection points: 2
#     Edge 36, Type (0, 1), BuildingBlock: EZIPEK_clean_linker_0, # of connection points: 2
#     Edge 37, Type (0, 1), BuildingBlock: EZIPEK_clean_linker_0, # of connection points: 2
#     Edge 38, Type (0, 1), BuildingBlock: EZIPEK_clean_linker_0, # of connection points: 2
#     Edge 39, Type (0, 1), BuildingBlock: EZIPEK_clean_linker_0, # of connection points: 2
#     Edge 40, Type (0, 1), BuildingBlock: EZIPEK_clean_linker_0, # of connection points: 2
#     Edge 41, Type (0, 1), BuildingBlock: EZIPEK_clean_linker_0, # of connection points: 2
#     Edge 42, Type (0, 1), BuildingBlock: EZIPEK_clean_linker_0, # of connection points: 2
#     Edge 43, Type (0, 1), BuildingBlock: EZIPEK_clean_linker_0, # of connection points: 2
#     Edge 44, Type (0, 1), BuildingBlock: EZIPEK_clean_linker_0, # of connection points: 2
#     Edge 45, Type (0, 1), BuildingBlock: EZIPEK_clean_linker_0, # of connection points: 2
#     Edge 46, Type (0, 1), BuildingBlock: EZIPEK_clean_linker_0, # of connection points: 2
#     Edge 47, Type (0, 1), BuildingBlock: EZIPEK_clean_linker_0, # of connection points: 2
# Relax obj value: 0.004
# Max RMSD: 0.072
# Mean RMSD: 0.035
data_MOF--net-ssb--node1-KOZSID_clean_sbu_0--node2-KUFVIS_clean_linker_0--edge1-EZIPEK_clean_linker_0
_symmetry_space_group_name_H-M    P1
_symmetry_Int_Tables_number       1
_symmetry_cell_setting            triclinic
loop_
_symmetry_equiv_pos_as_xyz
'x, y, z'
_cell_length_a     41.389447
_cell_length_b     41.260088
_cell_length_c     30.534034
_cell_angle_alpha  93.223441
_cell_angle_beta   96.398055
_cell_angle_gamma 90.123515
loop_
_atom_site_label
_atom_site_type_symbol
_atom_site_fract_x
_atom_site_fract_y
_atom_site_fract_z
_atom_type_partial_charge
H0 H 0.21589 0.21265 0.41871 0.0
H1 H 0.2743 0.19662 0.31101 0.0
H2 H 0.21438 0.28203 0.32178 0.0
H3 H 0.2306 0.29833 0.26365 0.0
H4 H 0.31194 0.30238 0.18966 0.0
H5 H 0.30927 0.22882 0.28276 0.0
C6 C 0.22496 0.21984 0.38873 0.0
C7 C 0.21113 0.24706 0.36928 0.0
C8 C 0.24644 0.19959 0.3674 0.0
C9 C 0.2587 0.21191 0.32923 0.0
C10 C 0.24999 0.24361 0.31395 0.0
C11 C 0.22458 0.25974 0.33369 0.0
C12 C 0.26655 0.25983 0.27776 0.0
C13 C 0.25345 0.28803 0.25642 0.0
C14 C 0.27 0.30387 0.22509 0.0
C15 C 0.29918 0.29067 0.21374 0.0
C16 C 0.31326 0.26382 0.23427 0.0
C17 C 0.29718 0.24872 0.26631 0.0
H18 H 0.70472 0.30855 0.15907 0.0
H19 H 0.7819 0.30617 0.26476 0.0
H20 H 0.71476 0.22506 0.23625 0.0
H21 H 0.71919 0.22456 0.3076 0.0
H22 H 0.79191 0.22126 0.41628 0.0
H23 H 0.8138 0.26643 0.29868 0.0
C24 C 0.71792 0.29551 0.1852 0.0
C25 C 0.70632 0.26541 0.19573 0.0
C26 C 0.74577 0.30947 0.20918 0.0
C27 C 0.76175 0.29383 0.2449 0.0
C28 C 0.75064 0.26347 0.25617 0.0
C29 C 0.72366 0.24874 0.22959 0.0
C30 C 0.76415 0.24956 0.29866 0.0
C31 C 0.74372 0.23097 0.32137 0.0
C32 C 0.75518 0.21852 0.36144 0.0
C33 C 0.78503 0.22912 0.38331 0.0
C34 C 0.80735 0.24604 0.36113 0.0
C35 C 0.79677 0.25512 0.31767 0.0
H36 H 0.80817 0.81808 0.40479 0.0
H37 H 0.79934 0.73591 0.31437 0.0
H38 H 0.73205 0.81609 0.296 0.0
H39 H 0.70012 0.77561 0.25637 0.0
H40 H 0.71537 0.71633 0.13945 0.0
H41 H 0.78865 0.72124 0.2475 0.0
C42 C 0.79495 0.8058 0.37585 0.0
C43 C 0.7678 0.82072 0.35376 0.0
C44 C 0.80683 0.77636 0.35989 0.0
C45 C 0.78999 0.75942 0.32344 0.0
C46 C 0.76281 0.77281 0.29882 0.0
C47 C 0.752 0.80419 0.31447 0.0
C48 C 0.74782 0.75446 0.25609 0.0
C49 C 0.7156 0.76069 0.23744 0.0
C50 C 0.70316 0.74715 0.19497 0.0
C51 C 0.72332 0.72597 0.17263 0.0
C52 C 0.75155 0.71331 0.19408 0.0
C53 C 0.76501 0.72926 0.23417 0.0
H54 H 0.20517 0.8182 0.35765 0.0
H55 H 0.27327 0.80493 0.26366 0.0
H56 H 0.20292 0.72911 0.27841 0.0
H57 H 0.21294 0.71232 0.21254 0.0
H58 H 0.29421 0.68919 0.14185 0.0
H59 H 0.30304 0.76759 0.23971 0.0
C60 C 0.21432 0.80322 0.33148 0.0
C61 C 0.19968 0.77318 0.31814 0.0
C62 C 0.24147 0.81356 0.31268 0.0
C63 C 0.25331 0.79492 0.27865 0.0
C64 C 0.24028 0.76391 0.26547 0.0
C65 C 0.21329 0.75308 0.28613 0.0
C66 C 0.25545 0.74324 0.23116 0.0
C67 C 0.23779 0.71752 0.20732 0.0
C68 C 0.25233 0.69725 0.17701 0.0
C69 C 0.28355 0.70435 0.16656 0.0
C70 C 0.30122 0.73064 0.18801 0.0
C71 C 0.28779 0.74897 0.22163 0.0
H72 H 0.31327 0.71444 0.87821 0.0
H73 H 0.2288 0.72708 0.7888 0.0
H74 H 0.32029 0.76984 0.76405 0.0
H75 H 0.29023 0.81305 0.73742 0.0
H76 H 0.2061 0.8214 0.64243 0.0
H77 H 0.21399 0.73941 0.72195 0.0
C78 C 0.30228 0.72461 0.84817 0.0
C79 C 0.32131 0.74315 0.82314 0.0
C80 C 0.27032 0.71568 0.8333 0.0
C81 C 0.25441 0.73203 0.79739 0.0
C82 C 0.27165 0.7543 0.7735 0.0
C83 C 0.30577 0.75714 0.78504 0.0
C84 C 0.25459 0.77342 0.7359 0.0
C85 C 0.26735 0.80315 0.72169 0.0
C86 C 0.25009 0.82057 0.68723 0.0
C87 C 0.21987 0.80833 0.66806 0.0
C88 C 0.20693 0.77962 0.68143 0.0
C89 C 0.22443 0.7621 0.71411 0.0
H90 H 0.332 0.33695 0.8784 0.0
H91 H 0.30632 0.24794 0.80413 0.0
H92 H 0.24217 0.33067 0.79341 0.0
H93 H 0.20431 0.28783 0.77578 0.0
H94 H 0.19905 0.22862 0.65386 0.0
H95 H 0.2894 0.24095 0.73283 0.0
C96 C 0.31567 0.32333 0.8537 0.0
C97 C 0.28619 0.33709 0.83739 0.0
C98 C 0.323 0.29126 0.84174 0.0
C99 C 0.30094 0.27318 0.81159 0.0
C100 C 0.27189 0.2874 0.7924 0.0
C101 C 0.2646 0.31941 0.80631 0.0
C102 C 0.25014 0.26958 0.75653 0.0
C103 C 0.21585 0.27412 0.75067 0.0
C104 C 0.19663 0.25997 0.713 0.0
C105 C 0.21256 0.24023 0.68303 0.0
C106 C 0.24452 0.23068 0.6936 0.0
C107 C 0.26393 0.24717 0.72779 0.0
H108 H 0.70047 0.32478 0.89144 0.0
H109 H 0.78003 0.31209 0.81474 0.0
H110 H 0.70122 0.24071 0.8035 0.0
H111 H 0.7253 0.21126 0.75807 0.0
H112 H 0.80026 0.20439 0.67243 0.0
H113 H 0.79707 0.2889 0.75859 0.0
C114 C 0.71215 0.31081 0.86652 0.0
C115 C 0.69812 0.28145 0.84886 0.0
C116 C 0.74159 0.32187 0.8545 0.0
C117 C 0.75694 0.30313 0.82233 0.0
C118 C 0.74276 0.27343 0.8015 0.0
C119 C 0.71312 0.26307 0.81637 0.0
C120 C 0.75868 0.25341 0.76527 0.0
C121 C 0.74633 0.22227 0.74691 0.0
C122 C 0.76116 0.20462 0.71312 0.0
C123 C 0.7887 0.21772 0.69802 0.0
C124 C 0.80157 0.24771 0.71485 0.0
C125 C 0.78656 0.26551 0.74771 0.0
H126 H 0.70917 0.70291 0.87479 0.0
H127 H 0.79076 0.71536 0.80346 0.0
H128 H 0.71192 0.78493 0.7956 0.0
H129 H 0.74774 0.8175 0.77628 0.0
H130 H 0.81909 0.82233 0.68625 0.0
H131 H 0.80277 0.7319 0.7418 0.0
C132 C 0.72124 0.71671 0.85202 0.0
C133 C 0.70763 0.74557 0.83724 0.0
C134 C 0.75074 0.70593 0.83882 0.0
C135 C 0.76718 0.7239 0.81075 0.0
C136 C 0.75393 0.75271 0.79402 0.0
C137 C 0.72356 0.76324 0.80757 0.0
C138 C 0.77242 0.77179 0.76401 0.0
C139 C 0.76569 0.80493 0.75874 0.0
C140 C 0.78141 0.8224 0.72927 0.0
C141 C 0.80651 0.80825 0.70821 0.0
C142 C 0.815 0.776 0.71399 0.0
C143 C 0.79715 0.7574 0.74042 0.0
C144 C 0.05319 0.30029 0.6135 0.0
C145 C 0.07028 0.32945 0.62295 0.0
C146 C 0.05587 0.35161 0.59575 0.0
C147 C 0.03158 0.33489 0.57 0.0
N148 N 0.02912 0.30351 0.57954 0.0
Co149 Co 1.00474 0.26958 0.53927 0.0
N150 N 0.98032 0.30232 0.50323 0.0
C151 C 0.98583 0.33451 0.50637 0.0
C152 C 0.96119 0.35172 0.48489 0.0
C153 C 0.93876 0.3289 0.46685 0.0
C154 C 0.95151 0.2988 0.47708 0.0
N155 N 0.98241 0.23569 0.49776 0.0
C156 C 0.95812 0.23846 0.46464 0.0
C157 C 0.95309 0.20941 0.43949 0.0
C158 C 0.97418 0.18744 0.45867 0.0
C159 C 0.99128 0.20437 0.49379 0.0
N160 N 0.02708 0.23654 0.57661 0.0
C161 C 0.02501 0.20413 0.56888 0.0
C162 C 0.03529 0.18744 0.60545 0.0
C163 C 0.04549 0.21083 0.63777 0.0
C164 C 0.04201 0.24052 0.61846 0.0
N165 N 0.96887 0.2695 0.57679 0.0
C166 C 0.91581 0.26947 0.62688 0.0
C167 C 0.92742 0.24047 0.60889 0.0
C168 C 0.95382 0.241 0.584 0.0
C169 C 0.93147 0.29852 0.61993 0.0
C170 C 0.95798 0.298 0.59495 0.0
N171 N 0.04054 0.26981 0.50135 0.0
C172 C 0.09796 0.26607 0.49411 0.0
C173 C 0.09239 0.26976 0.44878 0.0
C174 C 0.06022 0.27411 0.43011 0.0
C175 C 0.03464 0.27366 0.45686 0.0
C176 C 0.07199 0.26653 0.51953 0.0
H177 H 0.01013 0.2763 0.44141 0.0
H178 H 0.0777 0.26433 0.554 0.0
H179 H 0.96154 0.21823 0.57004 0.0
H180 H 0.96929 0.32079 0.58988 0.0
C181 C 0.0109 0.34779 0.53623 0.0
C182 C 0.06218 0.26929 0.63433 0.0
C183 C 0.93756 0.26725 0.45861 0.0
C184 C 0.01044 0.19056 0.52843 0.0
H185 H 0.09194 0.33452 0.64527 0.0
H186 H 0.06317 0.37665 0.59375 0.0
H187 H 0.95883 0.37783 0.48461 0.0
H188 H 0.91569 0.33414 0.44853 0.0
H189 H 0.93512 0.20426 0.4114 0.0
H190 H 0.97551 0.16177 0.44961 0.0
H191 H 0.03559 0.1614 0.60825 0.0
H192 H 0.05742 0.20637 0.67024 0.0
H193 H 0.91581 0.21754 0.61348 0.0
H194 H 0.9231 0.32145 0.63338 0.0
H195 H 0.12241 0.26278 0.50993 0.0
H196 H 0.05489 0.27711 0.39505 0.0
C197 C 0.71391 0.06293 0.59201 0.0
C198 C 0.68432 0.06892 0.608 0.0
C199 C 0.66337 0.04489 0.58952 0.0
C200 C 0.68125 0.02547 0.56344 0.0
N201 N 0.71224 0.03567 0.5642 0.0
Co202 Co 0.74584 0.01453 0.52982 0.0
N203 N 0.71352 0.98411 0.4943 0.0
C204 C 0.68173 0.982 0.49961 0.0
C205 C 0.66433 0.96244 0.46749 0.0
C206 C 0.68671 0.95032 0.44116 0.0
C207 C 0.7169 0.9619 0.45995 0.0
N208 N 0.77915 0.99398 0.49438 0.0
C209 C 0.77514 0.97379 0.45708 0.0
C210 C 0.80229 0.97527 0.43436 0.0
C211 C 0.82566 0.99237 0.46164 0.0
C212 C 0.8108 1.00236 0.498 0.0
N213 N 0.7786 0.04407 0.56559 0.0
C214 C 0.81115 0.042 0.56584 0.0
C215 C 0.82783 0.06546 0.59306 0.0
C216 C 0.80452 0.08352 0.61125 0.0
C217 C 0.77471 0.07009 0.59408 0.0
N218 N 0.75381 0.98244 0.57449 0.0
C219 C 0.76089 0.93697 0.63882 0.0
C220 C 0.75619 0.96953 0.65073 0.0
C221 C 0.75319 0.99191 0.61811 0.0
C222 C 0.76277 0.9275 0.59458 0.0
C223 C 0.75918 0.9506 0.56295 0.0
N224 N 0.7376 0.04768 0.48616 0.0
C225 C 0.75758 0.09323 0.45114 0.0
C226 C 0.72596 0.102 0.43613 0.0
C227 C 0.70015 0.08232 0.44445 0.0
C228 C 0.7065 0.05538 0.46986 0.0
C229 C 0.76287 0.06601 0.47559 0.0
H230 H 0.686 0.04165 0.47713 0.0
H231 H 0.78752 0.06083 0.48696 0.0
H232 H 0.74996 0.01681 0.62847 0.0
H233 H 0.76048 0.94241 0.52941 0.0
C234 C 0.66876 1.00068 0.53305 0.0
C235 C 0.74343 0.08259 0.60632 0.0
C236 C 0.74843 0.94924 0.44711 0.0
C237 C 0.82453 0.02273 0.53339 0.0
H238 H 0.67854 0.08862 0.63066 0.0
H239 H 0.63782 0.04253 0.59345 0.0
H240 H 0.6384 0.95775 0.46341 0.0
H241 H 0.68153 0.93373 0.41252 0.0
H242 H 0.80564 0.96345 0.40267 0.0
H243 H 0.85033 0.99741 0.4553 0.0
H244 H 0.85377 0.07009 0.59721 0.0
H245 H 0.80897 0.10458 0.63389 0.0
H246 H 0.75471 0.97752 0.68486 0.0
H247 H 0.76647 0.9023 0.58448 0.0
H248 H 0.7782 0.10765 0.44438 0.0
H249 H 0.67537 0.08811 0.43231 0.0
C250 C 0.06293 0.78517 0.57994 0.0
C251 C 0.07644 0.81532 0.59417 0.0
C252 C 0.05665 0.83802 0.57477 0.0
C253 C 0.03245 0.82057 0.54964 0.0
N254 N 0.03511 0.78806 0.55242 0.0
Co255 Co 0.00754 0.75381 0.51673 0.0
N256 N 0.97967 0.78727 0.48599 0.0
C257 C 0.9824 0.81988 0.49293 0.0
C258 C 0.95779 0.83666 0.47084 0.0
C259 C 0.93763 0.8134 0.44921 0.0
C260 C 0.95135 0.78361 0.45912 0.0
N261 N 0.98091 0.71962 0.47961 0.0
C262 C 0.95369 0.72245 0.45096 0.0
C263 C 0.9427 0.69251 0.43214 0.0
C264 C 0.96327 0.66985 0.45043 0.0
C265 C 0.98566 0.68721 0.47905 0.0
N266 N 0.03435 0.72036 0.54904 0.0
C267 C 0.03008 0.6878 0.54441 0.0
C268 C 0.0522 0.67105 0.57113 0.0
C269 C 0.07203 0.69428 0.59378 0.0
C270 C 0.06092 0.72394 0.57928 0.0
N271 N 0.97635 0.75351 0.5621 0.0
C272 C 0.92606 0.7544 0.61749 0.0
C273 C 0.93544 0.7254 0.59707 0.0
C274 C 0.96072 0.72542 0.57012 0.0
C275 C 0.94315 0.78271 0.61152 0.0
C276 C 0.96806 0.78174 0.58392 0.0
N277 N 0.03875 0.75409 0.47121 0.0
C278 C 0.07945 0.72674 0.43144 0.0
C279 C 0.08816 0.75576 0.41441 0.0
C280 C 0.07095 0.78369 0.42469 0.0
C281 C 0.04651 0.78234 0.45289 0.0
C282 C 0.05467 0.72637 0.45918 0.0
H283 H 0.03475 0.80463 0.46014 0.0
H284 H 0.04938 0.70346 0.47129 0.0
H285 H 0.96658 0.70253 0.55519 0.0
H286 H 0.97967 0.80429 0.57983 0.0
C287 C 0.00745 0.83395 0.52215 0.0
C288 C 0.07808 0.75455 0.59221 0.0
C289 C 0.93591 0.75254 0.44363 0.0
C290 C 0.00799 0.67373 0.51063 0.0
H291 H 0.09869 0.82048 0.61557 0.0
H292 H 0.05999 0.86411 0.5777 0.0
H293 H 0.95431 0.86267 0.47163 0.0
H294 H 0.91494 0.81796 0.42941 0.0
H295 H 0.92119 0.68752 0.40914 0.0
H296 H 0.96104 0.64373 0.44534 0.0
H297 H 0.05461 0.64499 0.57241 0.0
H298 H 0.09311 0.68988 0.61693 0.0
H299 H 0.92284 0.70291 0.60114 0.0
H300 H 0.9366 0.80567 0.62698 0.0
H301 H 0.09219 0.70453 0.42408 0.0
H302 H 0.077 0.80668 0.41204 0.0
C303 C 0.29903 0.95787 0.59121 0.0
C304 C 0.3292 0.94764 0.60944 0.0
C305 C 0.35182 0.96772 0.59544 0.0
C306 C 0.33431 0.98899 0.56935 0.0
N307 N 0.30184 0.98421 0.56651 0.0
Co308 Co 0.26842 0.00785 0.52739 0.0
N309 N 0.30161 0.03708 0.50571 0.0
C310 C 0.33359 0.03804 0.52078 0.0
C311 C 0.34961 0.06462 0.50867 0.0
C312 C 0.32649 0.08187 0.48463 0.0
C313 C 0.29758 0.06437 0.48208 0.0
N314 N 0.23524 0.02947 0.48589 0.0
C315 C 0.23872 0.05205 0.45571 0.0
C316 C 0.20988 0.0555 0.4284 0.0
C317 C 0.18713 0.03634 0.44372 0.0
C318 C 0.20338 0.02141 0.47852 0.0
N319 N 0.23478 0.98046 0.55139 0.0
C320 C 0.20223 0.98292 0.54163 0.0
C321 C 0.18487 0.96144 0.56274 0.0
C322 C 0.20763 0.9441 0.58731 0.0
C323 C 0.2378 0.95585 0.57971 0.0
N324 N 0.26357 0.04174 0.57431 0.0
C325 C 0.26193 0.10151 0.62122 0.0
C326 C 0.23366 0.08829 0.598 0.0
C327 C 0.23493 0.05823 0.57513 0.0
C328 C 0.29013 0.08314 0.6246 0.0
C329 C 0.29018 0.05298 0.60176 0.0
N330 N 0.2735 0.97453 0.47991 0.0
C331 C 0.25021 0.93134 0.43013 0.0
C332 C 0.28002 0.92587 0.41437 0.0
C333 C 0.3066 0.9454 0.43075 0.0
C334 C 0.30281 0.96961 0.46363 0.0
C335 C 0.24746 0.95563 0.46259 0.0
H336 H 0.32389 0.98374 0.47572 0.0
H337 H 0.22405 0.95827 0.47335 0.0
H338 H 0.21291 0.04955 0.55667 0.0
H339 H 0.31243 0.03997 0.6052 0.0
C340 C 0.34731 0.01462 0.54856 0.0
C341 C 0.2685 0.94155 0.59832 0.0
C342 C 0.26714 0.07396 0.45576 0.0
C343 C 0.18926 1.00122 0.50664 0.0
H344 H 0.33428 0.92762 0.63052 0.0
H345 H 0.37794 0.96685 0.60329 0.0
H346 H 0.37489 0.07128 0.51757 0.0
H347 H 0.33063 0.10492 0.47097 0.0
H348 H 0.20529 0.07142 0.40148 0.0
H349 H 0.16159 0.03413 0.43155 0.0
H350 H 0.1588 0.95758 0.55883 0.0
H351 H 0.20262 0.92425 0.60733 0.0
H352 H 0.2111 0.10168 0.59609 0.0
H353 H 0.31213 0.09238 0.64387 0.0
H354 H 0.22916 0.91642 0.41793 0.0
H355 H 0.33011 0.94152 0.41899 0.0
C356 C 0.55816 0.79345 0.08297 0.0
C357 C 0.57001 0.82451 0.0954 0.0
C358 C 0.54647 0.84568 0.08024 0.0
C359 C 0.52215 0.8266 0.05793 0.0
N360 N 0.52895 0.79476 0.05778 0.0
Co361 Co 0.50603 0.75986 0.01813 0.0
N362 N 0.47996 0.79162 0.98202 0.0
C363 C 0.47574 0.8229 0.99531 0.0
C364 C 0.45111 0.83778 0.97065 0.0
C365 C 0.43849 0.81444 0.94008 0.0
C366 C 0.4569 0.78654 0.9467 0.0
N367 N 0.48516 0.72484 0.97708 0.0
C368 C 0.47026 0.72701 0.93545 0.0
C369 C 0.46758 0.69656 0.91336 0.0
C370 C 0.47837 0.67452 0.94354 0.0
C371 C 0.48822 0.69271 0.98172 0.0
N372 N 0.52999 0.72812 0.05576 0.0
C373 C 0.52209 0.69653 0.05681 0.0
C374 C 0.53902 0.68156 0.09113 0.0
C375 C 0.5589 0.70521 0.11301 0.0
C376 C 0.55349 0.73318 0.09001 0.0
N377 N 0.4706 0.7582 0.05627 0.0
C378 C 0.41982 0.75293 0.1095 0.0
C379 C 0.41377 0.74986 0.06359 0.0
C380 C 0.4393 0.75268 0.03781 0.0
C381 C 0.45174 0.75935 0.12855 0.0
C382 C 0.47679 0.76185 0.10135 0.0
N383 N 0.54155 0.7614 0.98023 0.0
C384 C 0.58462 0.73454 0.94544 0.0
C385 C 0.59352 0.7636 0.92841 0.0
C386 C 0.57557 0.79149 0.93712 0.0
C387 C 0.5499 0.78994 0.96335 0.0
C388 C 0.55855 0.7339 0.97091 0.0
H389 H 0.53711 0.81198 0.97025 0.0
H390 H 0.55252 0.71107 0.98341 0.0
H391 H 0.43346 0.75033 1.00287 0.0
H392 H 0.50115 0.76651 0.11692 0.0
C393 C 0.4961 0.83781 0.03014 0.0
C394 C 0.57306 0.76314 0.09893 0.0
C395 C 0.45031 0.75501 0.92125 0.0
C396 C 0.50331 0.68088 0.02085 0.0
H397 H 0.59317 0.83148 0.11335 0.0
H398 H 0.54787 0.87193 0.08284 0.0
H399 H 0.44277 0.86247 0.97503 0.0
H400 H 0.41727 0.81787 0.91698 0.0
H401 H 0.45622 0.69067 0.8802 0.0
H402 H 0.47895 0.64838 0.93822 0.0
H403 H 0.53818 0.65618 0.09821 0.0
H404 H 0.57633 0.7019 0.14152 0.0
H405 H 0.38935 0.74521 0.04765 0.0
H406 H 0.45726 0.76216 0.16408 0.0
H407 H 0.59788 0.71245 0.93925 0.0
H408 H 0.58176 0.81442 0.92442 0.0
C409 C 0.20182 0.55344 0.07292 0.0
C410 C 0.1697 0.55789 0.08054 0.0
C411 C 0.15231 0.53291 0.0574 0.0
C412 C 0.17482 0.51478 0.03715 0.0
N413 N 0.20522 0.52672 0.0463 0.0
Co414 Co 0.24508 0.50883 0.02395 0.0
N415 N 0.21918 0.48244 0.97569 0.0
C416 C 0.18697 0.47631 0.97278 0.0
C417 C 0.17591 0.45593 0.93724 0.0
C418 C 0.20289 0.44809 0.9169 0.0
C419 C 0.22904 0.46419 0.94131 0.0
N420 N 0.28527 0.49075 1.00204 0.0
C421 C 0.28931 0.47366 0.96389 0.0
C422 C 0.3219 0.46707 0.96085 0.0
C423 C 0.33874 0.47936 0.99928 0.0
C424 C 0.31562 0.49299 0.02329 0.0
N425 N 0.27085 0.53534 0.07172 0.0
C426 C 0.30239 0.53161 0.08662 0.0
C427 C 0.31368 0.55495 0.11845 0.0
C428 C 0.28765 0.57462 0.12379 0.0
C429 C 0.26176 0.56189 0.09502 0.0
N430 N 0.24379 0.47224 0.06438 0.0
C431 C 0.24631 0.42007 0.12234 0.0
C432 C 0.24263 0.45249 0.13792 0.0
C433 C 0.24168 0.47803 0.10872 0.0
C434 C 0.24683 0.41452 0.07668 0.0
C435 C 0.24484 0.44057 0.04862 0.0
N436 N 0.2463 0.54581 0.98435 0.0
C437 C 0.27618 0.58921 0.95544 0.0
C438 C 0.24783 0.60104 0.93227 0.0
C439 C 0.21868 0.58421 0.93552 0.0
C440 C 0.21847 0.55672 0.96123 0.0
C441 C 0.2749 0.56196 0.98122 0.0
H442 H 0.19556 0.54463 0.96287 0.0
H443 H 0.29722 0.5543 0.99909 0.0
H444 H 0.23926 0.50251 0.12226 0.0
H445 H 0.24395 0.43483 0.014 0.0
C446 C 0.16775 0.491 1.00304 0.0
C447 C 0.22868 0.57474 0.09135 0.0
C448 C 0.26304 0.45722 0.93502 0.0
C449 C 0.32198 0.5111 0.06333 0.0
H450 H 0.15991 0.57743 0.10009 0.0
H451 H 0.12619 0.52949 0.05377 0.0
H452 H 0.15126 0.44739 0.92761 0.0
H453 H 0.20348 0.43125 0.88852 0.0
H454 H 0.33212 0.45308 0.93475 0.0
H455 H 0.36473 0.47854 0.00854 0.0
H456 H 0.33838 0.55855 0.13381 0.0
H457 H 0.28807 0.59612 0.14578 0.0
H458 H 0.24124 0.45815 0.17272 0.0
H459 H 0.24867 0.39 0.06257 0.0
H460 H 0.29928 0.60129 0.95413 0.0
H461 H 0.19611 0.5923 0.9183 0.0
C462 C 0.45557 0.29053 0.97817 0.0
C463 C 0.44369 0.32173 0.97318 0.0
C464 C 0.45815 0.34067 0.00808 0.0
C465 C 0.4782 0.32019 0.03215 0.0
N466 N 0.47787 0.28954 0.01423 0.0
Co467 Co 0.50367 0.25265 0.03905 0.0
N468 N 0.53192 0.28236 0.08049 0.0
C469 C 0.52584 0.31362 0.09148 0.0
C470 C 0.55067 0.3285 0.1189 0.0
C471 C 0.57385 0.30516 0.12567 0.0
C472 C 0.56165 0.2771 0.10224 0.0
N473 N 0.52914 0.21608 0.06459 0.0
C474 C 0.55839 0.21629 0.08952 0.0
C475 C 0.56716 0.18524 0.10111 0.0
C476 C 0.54252 0.16488 0.08248 0.0
C477 C 0.52014 0.18462 0.06078 0.0
N478 N 0.47563 0.22287 0.99694 0.0
C479 C 0.47344 0.19043 0.99928 0.0
C480 C 0.45099 0.17614 0.96755 0.0
C481 C 0.43766 0.20115 0.94418 0.0
C482 C 0.45275 0.22945 0.96303 0.0
N483 N 0.53452 0.25628 0.99471 0.0
C484 C 0.58401 0.2609 0.93912 0.0
C485 C 0.57113 0.23069 0.94714 0.0
C486 C 0.54624 0.22893 0.97461 0.0
C487 C 0.57081 0.28883 0.9581 0.0
C488 C 0.54622 0.286 0.98584 0.0
N489 N 0.4731 0.24882 0.08401 0.0
C490 C 0.41776 0.24608 0.10162 0.0
C491 C 0.42813 0.24656 0.14674 0.0
C492 C 0.46175 0.24672 0.15996 0.0
C493 C 0.48381 0.24805 0.1281 0.0
C494 C 0.44046 0.24671 0.07118 0.0
H495 H 0.50947 0.24851 0.1392 0.0
H496 H 0.43141 0.24525 0.03718 0.0
H497 H 0.53722 0.20527 0.98064 0.0
H498 H 0.53746 0.3079 1.00117 0.0
C499 C 0.50013 0.32965 0.06871 0.0
C500 C 0.44116 0.26207 0.95214 0.0
C501 C 0.57795 0.2455 0.10356 0.0
C502 C 0.49383 0.1742 0.03044 0.0
H503 H 0.4254 0.32963 0.94796 0.0
H504 H 0.45466 0.36638 0.01489 0.0
H505 H 0.55253 0.35376 0.1306 0.0
H506 H 0.5971 0.30861 0.14539 0.0
H507 H 0.58919 0.17809 0.12055 0.0
H508 H 0.54178 0.13869 0.08302 0.0
H509 H 0.44479 0.15061 0.96229 0.0
H510 H 0.41809 0.19898 0.91751 0.0
H511 H 0.58078 0.20856 0.93311 0.0
H512 H 0.5803 0.31261 0.95284 0.0
H513 H 0.39207 0.24527 0.08982 0.0
H514 H 0.47083 0.24646 0.1946 0.0
C515 C 0.74012 0.57008 0.08804 0.0
C516 C 0.71032 0.58236 0.09739 0.0
C517 C 0.68702 0.56213 0.07547 0.0
C518 C 0.70376 0.53863 0.05405 0.0
N519 N 0.73641 0.54245 0.06117 0.0
Co520 Co 0.76944 0.51351 0.03533 0.0
N521 N 0.73499 0.4869 0.99742 0.0
C522 C 0.70259 0.49208 0.99452 0.0
C523 C 0.6847 0.47045 0.96577 0.0
C524 C 0.70696 0.45019 0.94919 0.0
C525 C 0.73733 0.46057 0.9689 0.0
N526 N 0.80233 0.48363 0.01104 0.0
C527 C 0.79847 0.45676 0.98269 0.0
C528 C 0.82808 0.44245 0.97687 0.0
C529 C 0.85139 0.46062 1.00252 0.0
C530 C 0.83481 0.48492 0.02263 0.0
N531 N 0.80381 0.54142 0.07131 0.0
C532 C 0.83628 0.53727 0.07263 0.0
C533 C 0.85417 0.56122 0.09732 0.0
C534 C 0.83182 0.58231 0.11208 0.0
C535 C 0.80143 0.56997 0.09563 0.0
N536 N 0.76763 0.48408 0.08425 0.0
C537 C 0.7677 0.43247 0.14008 0.0
C538 C 0.7958 0.45088 0.13891 0.0
C539 C 0.79522 0.47651 0.11084 0.0
C540 C 0.73893 0.44213 0.11654 0.0
C541 C 0.73933 0.46818 0.08951 0.0
N542 N 0.77158 0.54253 0.98657 0.0
C543 C 0.8033 0.57223 0.94023 0.0
C544 C 0.77617 0.59046 0.92655 0.0
C545 C 0.7463 0.58286 0.94045 0.0
C546 C 0.74447 0.55865 0.96994 0.0
C547 C 0.8005 0.54853 0.97041 0.0
H548 H 0.72108 0.55406 0.9798 0.0
H549 H 0.82223 0.53608 0.98112 0.0
H550 H 0.81766 0.48901 0.1102 0.0
H551 H 0.71665 0.47418 0.07208 0.0
C552 C 0.68962 0.51559 0.02224 0.0
C553 C 0.77108 0.58647 0.10395 0.0
C554 C 0.76741 0.44366 0.96063 0.0
C555 C 0.84906 0.51046 0.0504 0.0
H556 H 0.70583 0.60423 0.11698 0.0
H557 H 0.66094 0.56507 0.0737 0.0
H558 H 0.65851 0.46904 0.95862 0.0
H559 H 0.70141 0.42967 0.92588 0.0
H560 H 0.83235 0.42108 0.95615 0.0
H561 H 0.87738 0.45673 0.00579 0.0
H562 H 0.88038 0.56329 0.10346 0.0
H563 H 0.83721 0.60443 0.13238 0.0
H564 H 0.81837 0.44449 0.15782 0.0
H565 H 0.71645 0.42888 0.11781 0.0
H566 H 0.82671 0.57729 0.92926 0.0
H567 H 0.72465 0.59624 0.92955 0.0
C568 C 0.15099 0.23926 0.36718 0.0
C569 C 0.17904 0.25827 0.38246 0.0
C570 C 0.14661 0.2908 0.43102 0.0
C571 C 0.12054 0.26797 0.42178 0.0
N572 N 0.10005 0.21749 0.38478 0.0
N573 N 0.20429 0.30174 0.42998 0.0
C574 C 0.12307 0.24162 0.39036 0.0
C575 C 0.17699 0.2842 0.41442 0.0
N576 N 0.15111 0.21878 0.33044 0.0
N577 N 0.14208 0.31899 0.45515 0.0
H578 H 0.22649 0.29812 0.41732 0.0
H579 H 0.20538 0.3185 0.45693 0.0
H580 H 0.11995 0.32478 0.46689 0.0
H581 H 0.15907 0.33787 0.45991 0.0
H582 H 0.13038 0.20665 0.31523 0.0
H583 H 0.17119 0.2164 0.31268 0.0
H584 H 0.10274 0.19591 0.36617 0.0
H585 H 0.07964 0.21746 0.4019 0.0
C586 C 0.74587 0.15857 0.35333 0.0
C587 C 0.73978 0.18894 0.37524 0.0
C588 C 0.71327 0.1613 0.43056 0.0
C589 C 0.72138 0.13115 0.41006 0.0
N590 N 0.73378 0.10089 0.34478 0.0
N591 N 0.71129 0.22016 0.42734 0.0
C592 C 0.73352 0.12988 0.36868 0.0
C593 C 0.72111 0.19061 0.41142 0.0
N594 N 0.76545 0.15683 0.32 0.0
N595 N 0.69936 0.16176 0.46906 0.0
H596 H 0.71707 0.24181 0.41376 0.0
H597 H 0.69564 0.22326 0.45162 0.0
H598 H 0.69202 0.14063 0.48243 0.0
H599 H 0.69546 0.18279 0.48809 0.0
H600 H 0.77374 0.13504 0.30663 0.0
H601 H 0.77573 0.17707 0.30782 0.0
H602 H 0.73969 0.09867 0.31248 0.0
H603 H 0.72473 0.07956 0.35589 0.0
C604 C 0.8671 0.77239 0.35682 0.0
C605 C 0.83948 0.76518 0.37846 0.0
C606 C 0.87495 0.74399 0.44009 0.0
C607 C 0.90248 0.75217 0.41885 0.0
N608 N 0.92475 0.76456 0.35224 0.0
N609 N 0.81596 0.7385 0.43547 0.0
C610 C 0.89845 0.76312 0.37549 0.0
C611 C 0.84308 0.74898 0.41846 0.0
N612 N 0.86356 0.78963 0.31963 0.0
N613 N 0.8794 0.73232 0.48132 0.0
H614 H 0.79249 0.74213 0.42032 0.0
H615 H 0.81642 0.72437 0.46268 0.0
H616 H 0.90232 0.72832 0.49788 0.0
H617 H 0.86065 0.72749 0.50004 0.0
H618 H 0.88307 0.79904 0.30549 0.0
H619 H 0.84106 0.79669 0.30446 0.0
H620 H 0.92304 0.76934 0.31895 0.0
H621 H 0.94802 0.7579 0.36523 0.0
C622 C 0.28064 0.83913 0.37214 0.0
C623 C 0.25981 0.84236 0.33254 0.0
C624 C 0.26789 0.90106 0.33881 0.0
C625 C 0.28246 0.89814 0.38253 0.0
N626 N 0.30452 0.86524 0.44125 0.0
N627 N 0.23487 0.87529 0.27566 0.0
C628 C 0.29022 0.86736 0.39893 0.0
C629 C 0.25435 0.873 0.31453 0.0
N630 N 0.29079 0.80905 0.38415 0.0
N631 N 0.26639 0.9309 0.32147 0.0
H632 H 0.22522 0.85497 0.25675 0.0
H633 H 0.22706 0.89719 0.26301 0.0
H634 H 0.27631 0.9516 0.33929 0.0
H635 H 0.25805 0.93472 0.28876 0.0
H636 H 0.30827 0.8053 0.41059 0.0
H637 H 0.2838 0.78781 0.36529 0.0
H638 H 0.30679 0.84363 0.45732 0.0
H639 H 0.31293 0.88554 0.46119 0.0
C640 C 0.14643 0.77542 0.68338 0.0
C641 C 0.17416 0.76822 0.6612 0.0
C642 C 0.13903 0.74701 0.59569 0.0
C643 C 0.11132 0.75501 0.61757 0.0
N644 N 0.0884 0.76794 0.68537 0.0
N645 N 0.19784 0.74091 0.60095 0.0
C646 C 0.11503 0.76623 0.6626 0.0
C647 C 0.17072 0.75183 0.61881 0.0
N648 N 0.15 0.79241 0.72341 0.0
N649 N 0.13501 0.73586 0.55241 0.0
H650 H 0.22128 0.74443 0.61704 0.0
H651 H 0.19729 0.72628 0.57201 0.0
H652 H 0.11226 0.73211 0.53444 0.0
H653 H 0.15405 0.73151 0.53342 0.0
H654 H 0.13057 0.80179 0.73884 0.0
H655 H 0.17262 0.79907 0.7401 0.0
H656 H 0.08972 0.773 0.71931 0.0
H657 H 0.06512 0.76134 0.67085 0.0
C658 C 0.25006 0.17123 0.70307 0.0
C659 C 0.25413 0.19818 0.67698 0.0
C660 C 0.26547 0.16159 0.61485 0.0
C661 C 0.26192 0.13484 0.64132 0.0
N662 N 0.25764 0.11376 0.71249 0.0
N663 N 0.27077 0.22012 0.61168 0.0
C664 C 0.25656 0.13957 0.68613 0.0
C665 C 0.2635 0.19368 0.6339 0.0
N666 N 0.23804 0.17564 0.74297 0.0
N667 N 0.26991 0.15618 0.57131 0.0
H668 H 0.26934 0.24383 0.6251 0.0
H669 H 0.28049 0.21867 0.58165 0.0
H670 H 0.27307 0.13305 0.55684 0.0
H671 H 0.26892 0.1743 0.54884 0.0
H672 H 0.23048 0.15666 0.76056 0.0
H673 H 0.23308 0.19831 0.75735 0.0
H674 H 0.25788 0.11619 0.74665 0.0
H675 H 0.26093 0.0899 0.70079 0.0
C676 C 0.82752 0.27192 0.65345 0.0
C677 C 0.83104 0.25998 0.69642 0.0
C678 C 0.89056 0.26155 0.69705 0.0
C679 C 0.88677 0.2691 0.65196 0.0
N680 N 0.85178 0.27961 0.58586 0.0
N681 N 0.86557 0.2416 0.75876 0.0
C682 C 0.85527 0.27413 0.62989 0.0
C683 C 0.86253 0.25469 0.71838 0.0
N684 N 0.79753 0.28129 0.63538 0.0
N685 N 0.92103 0.26119 0.71949 0.0
H686 H 0.84572 0.23719 0.7759 0.0
H687 H 0.88745 0.23335 0.77423 0.0
H688 H 0.942 0.26567 0.70465 0.0
H689 H 0.92545 0.2591 0.75344 0.0
H690 H 0.79355 0.29304 0.606 0.0
H691 H 0.77685 0.2799 0.65191 0.0
H692 H 0.82943 0.27963 0.5665 0.0
H693 H 0.87149 0.28208 0.56774 0.0
C694 C 0.79336 0.8813 0.72786 0.0
C695 C 0.77096 0.85529 0.71756 0.0
C696 C 0.73649 0.88936 0.66932 0.0
C697 C 0.76234 0.91212 0.67184 0.0
N698 N 0.81595 0.93028 0.70298 0.0
N699 N 0.72135 0.83359 0.67685 0.0
C700 C 0.79074 0.90868 0.7017 0.0
C701 C 0.7421 0.85922 0.68863 0.0
N702 N 0.81738 0.8793 0.76208 0.0
N703 N 0.70678 0.89653 0.64799 0.0
H704 H 0.72438 0.81091 0.69 0.0
H705 H 0.70225 0.83415 0.65163 0.0
H706 H 0.70206 0.91864 0.63359 0.0
H707 H 0.68617 0.88208 0.64847 0.0
H708 H 0.83297 0.89852 0.77361 0.0
H709 H 0.81954 0.85928 0.78164 0.0
H710 H 0.83866 0.92686 0.7204 0.0
H711 H 0.81494 0.9507 0.68427 0.0
C712 C 0.87344 0.75803 0.71307 0.0
C713 C 0.84212 0.76259 0.69008 0.0
C714 C 0.86584 0.76126 0.61985 0.0
C715 C 0.89699 0.75562 0.64247 0.0
N716 N 0.92967 0.74227 0.7092 0.0
N717 N 0.80739 0.75984 0.62134 0.0
C718 C 0.90049 0.75178 0.68867 0.0
C719 C 0.83803 0.76118 0.64328 0.0
N720 N 0.87772 0.76151 0.75811 0.0
N721 N 0.86298 0.76836 0.57642 0.0
H722 H 0.78661 0.75944 0.63781 0.0
H723 H 0.80269 0.75584 0.58723 0.0
H724 H 0.88286 0.76931 0.55836 0.0
H725 H 0.84142 0.77607 0.55938 0.0
H726 H 0.90045 0.76244 0.77657 0.0
H727 H 0.85854 0.76551 0.77712 0.0
H728 H 0.93295 0.73579 0.74185 0.0
H729 H 0.95012 0.73842 0.69251 0.0
C730 C 0.27249 0.85061 0.62631 0.0
C731 C 0.26207 0.85173 0.66932 0.0
C732 C 0.26215 0.91196 0.66889 0.0
C733 C 0.26841 0.91052 0.62386 0.0
N734 N 0.27762 0.87797 0.55863 0.0
N735 N 0.2448 0.88384 0.73052 0.0
C736 C 0.27336 0.87966 0.60247 0.0
C737 C 0.25668 0.8826 0.69049 0.0
N738 N 0.28187 0.82151 0.60839 0.0
N739 N 0.26174 0.94155 0.69124 0.0
H740 H 0.24161 0.86317 0.74777 0.0
H741 H 0.23641 0.90499 0.74551 0.0
H742 H 0.26514 0.96328 0.67638 0.0
H743 H 0.26065 0.94453 0.72511 0.0
H744 H 0.29259 0.81897 0.57915 0.0
H745 H 0.2816 0.8001 0.62501 0.0
H746 H 0.27762 0.85632 0.53942 0.0
H747 H 0.27904 0.89851 0.54048 0.0
C748 C 0.14082 0.28991 0.71067 0.0
C749 C 0.15982 0.26148 0.70505 0.0
C750 C 0.11573 0.23832 0.65392 0.0
C751 C 0.09504 0.2652 0.66171 0.0
N752 N 0.08563 0.30793 0.71641 0.0
N753 N 0.15385 0.20318 0.69257 0.0
C754 C 0.10667 0.28811 0.69667 0.0
C755 C 0.14308 0.2337 0.68453 0.0
N756 N 0.15469 0.31899 0.7256 0.0
N757 N 0.11174 0.21852 0.61643 0.0
H758 H 0.17307 0.1991 0.71676 0.0
H759 H 0.1413 0.18253 0.67833 0.0
H760 H 0.09487 0.22259 0.58963 0.0
H761 H 0.12812 0.20002 0.6104 0.0
H762 H 0.14105 0.34018 0.72731 0.0
H763 H 0.1797 0.32273 0.73098 0.0
H764 H 0.09331 0.32372 0.74349 0.0
H765 H 0.06052 0.3062 0.70785 0.0
C766 C 0.73256 0.17211 0.64734 0.0
C767 C 0.74868 0.17249 0.69097 0.0
C768 C 0.75377 0.11275 0.68243 0.0
C769 C 0.74242 0.11321 0.63668 0.0
N770 N 0.72278 0.14411 0.57488 0.0
N771 N 0.77619 0.14311 0.74972 0.0
C772 C 0.73187 0.14308 0.61914 0.0
C773 C 0.75933 0.14267 0.70861 0.0
N774 N 0.71786 0.19977 0.6329 0.0
N775 N 0.75906 0.08359 0.70095 0.0
H776 H 0.77953 0.16423 0.77021 0.0
H777 H 0.7883 0.12306 0.76258 0.0
H778 H 0.75533 0.06149 0.68277 0.0
H779 H 0.76441 0.08119 0.73473 0.0
H780 H 0.70298 0.20067 0.60317 0.0
H781 H 0.71805 0.22119 0.65281 0.0
H782 H 0.71898 0.16569 0.55914 0.0
H783 H 0.72145 0.12349 0.55333 0.0
C784 C 0.86048 0.2801 0.37804 0.0
C785 C 0.84184 0.2517 0.38321 0.0
C786 C 0.88297 0.2384 0.44338 0.0
C787 C 0.90405 0.26334 0.43313 0.0
N788 N 0.91565 0.29858 0.3759 0.0
N789 N 0.84709 0.19675 0.40786 0.0
C790 C 0.89381 0.28146 0.39585 0.0
C791 C 0.85649 0.22858 0.41209 0.0
N792 N 0.84667 0.30655 0.35899 0.0
N793 N 0.88807 0.2237 0.48241 0.0
H794 H 0.83089 0.18745 0.38149 0.0
H795 H 0.85877 0.17924 0.4272 0.0
H796 H 0.90612 0.23144 0.5074 0.0
H797 H 0.87199 0.20629 0.49118 0.0
H798 H 0.85984 0.32791 0.35696 0.0
H799 H 0.82166 0.30872 0.3511 0.0
H800 H 0.90894 0.31044 0.34701 0.0
H801 H 0.94061 0.29788 0.38568 0.0
C802 C 0.73121 0.86003 0.39491 0.0
C803 C 0.75939 0.85456 0.37252 0.0
C804 C 0.78374 0.90291 0.41469 0.0
C805 C 0.75345 0.9136 0.42757 0.0
N806 N 0.71036 0.88685 0.45858 0.0
N807 N 0.81121 0.87606 0.35768 0.0
C808 C 0.7297 0.88806 0.42534 0.0
C809 C 0.78477 0.87817 0.38058 0.0
N810 N 0.70614 0.83819 0.38827 0.0
N811 N 0.81143 0.90931 0.44234 0.0
H812 H 0.81285 0.85871 0.33179 0.0
H813 H 0.82978 0.89351 0.36244 0.0
H814 H 0.81068 0.92063 0.47369 0.0
H815 H 0.83384 0.89941 0.43644 0.0
H816 H 0.68373 0.84253 0.39993 0.0
H817 H 0.7069 0.81698 0.36822 0.0
H818 H 0.69473 0.86754 0.46187 0.0
H819 H 0.71381 0.90282 0.48647 0.0
C820 C 0.13926 0.76219 0.31793 0.0
C821 C 0.17123 0.76293 0.34057 0.0
C822 C 0.14853 0.76005 0.41119 0.0
C823 C 0.11671 0.75738 0.38856 0.0
N824 N 0.08196 0.75002 0.32001 0.0
N825 N 0.2064 0.75428 0.40714 0.0
C826 C 0.11215 0.75649 0.34172 0.0
C827 C 0.17583 0.7591 0.38674 0.0
N828 N 0.1346 0.76863 0.27428 0.0
N829 N 0.15268 0.76519 0.45606 0.0
H830 H 0.22684 0.75294 0.38997 0.0
H831 H 0.211 0.74836 0.43995 0.0
H832 H 0.13322 0.76705 0.47496 0.0
H833 H 0.1751 0.77073 0.474 0.0
H834 H 0.11178 0.77221 0.25724 0.0
H835 H 0.15371 0.77269 0.25567 0.0
H836 H 0.0776 0.74568 0.28593 0.0
H837 H 0.06157 0.74644 0.33647 0.0
C838 C 0.283 0.14858 0.38624 0.0
C839 C 0.25278 0.16548 0.38534 0.0
C840 C 0.23651 0.12642 0.43732 0.0
C841 C 0.26364 0.10617 0.43215 0.0
N842 N 0.30719 0.09499 0.38686 0.0
N843 N 0.19592 0.15598 0.39407 0.0
C844 C 0.28528 0.11623 0.40197 0.0
C845 C 0.22798 0.15002 0.40605 0.0
N846 N 0.3101 0.16336 0.37501 0.0
N847 N 0.21856 0.12346 0.47171 0.0
H848 H 0.18823 0.16955 0.3671 0.0
H849 H 0.17744 0.14387 0.40738 0.0
H850 H 0.22516 0.10803 0.49708 0.0
H851 H 0.1993 0.13901 0.47686 0.0
H852 H 0.33276 0.15216 0.37783 0.0
H853 H 0.31085 0.18789 0.36887 0.0
H854 H 0.32185 0.1008 0.3627 0.0
H855 H 0.30808 0.0708 0.39518 0.0
C856 C 0.68085 0.77153 0.90019 0.0
C857 C 0.67774 0.7575 0.8563 0.0
C858 C 0.61861 0.7519 0.85746 0.0
C859 C 0.62194 0.7645 0.90209 0.0
N860 N 0.65471 0.79101 0.9641 0.0
N861 N 0.644 0.73956 0.7902 0.0
C862 C 0.65262 0.77602 0.92274 0.0
C863 C 0.6466 0.74951 0.83394 0.0
N864 N 0.71117 0.77925 0.92081 0.0
N865 N 0.58873 0.74139 0.83815 0.0
H866 H 0.66412 0.73725 0.77254 0.0
H867 H 0.62208 0.73562 0.77042 0.0
H868 H 0.56759 0.74439 0.85359 0.0
H869 H 0.58469 0.72877 0.80758 0.0
H870 H 0.71619 0.78574 0.95428 0.0
H871 H 0.73199 0.77817 0.90441 0.0
H872 H 0.67539 0.80294 0.9796 0.0
H873 H 0.63501 0.79319 0.98253 0.0
C874 C 0.25484 0.65555 0.83415 0.0
C875 C 0.2561 0.68737 0.85519 0.0
C876 C 0.25111 0.66274 0.92648 0.0
C877 C 0.24888 0.631 0.90528 0.0
N878 N 0.24285 0.59795 0.83725 0.0
N879 N 0.24809 0.72125 0.91948 0.0
C880 C 0.24865 0.62776 0.85853 0.0
C881 C 0.25176 0.69082 0.90078 0.0
N882 N 0.26169 0.65153 0.79142 0.0
N883 N 0.25386 0.6661 0.9715 0.0
H884 H 0.24822 0.74196 0.90135 0.0
H885 H 0.24183 0.72576 0.95133 0.0
H886 H 0.25328 0.64641 0.99131 0.0
H887 H 0.2592 0.68804 0.98941 0.0
H888 H 0.26555 0.62901 0.77585 0.0
H889 H 0.26559 0.67091 0.77214 0.0
H890 H 0.23853 0.5944 0.80306 0.0
H891 H 0.24 0.57691 0.85385 0.0
C892 C 0.38209 0.27422 0.84795 0.0
C893 C 0.35199 0.27634 0.86606 0.0
C894 C 0.3798 0.26975 0.93977 0.0
C895 C 0.41007 0.26593 0.92197 0.0
N896 N 0.43912 0.25911 0.85794 0.0
N897 N 0.32113 0.26602 0.92605 0.0
C898 C 0.41086 0.26619 0.87554 0.0
C899 C 0.35059 0.27042 0.91089 0.0
N900 N 0.38336 0.28121 0.80498 0.0
N901 N 0.3788 0.2753 0.98406 0.0
H902 H 0.29926 0.26633 0.90547 0.0
H903 H 0.31871 0.25858 0.95759 0.0
H904 H 0.39947 0.27888 0.00621 0.0
H905 H 0.35757 0.28105 0.9981 0.0
H906 H 0.40498 0.28382 0.79102 0.0
H907 H 0.36258 0.28606 0.78381 0.0
H908 H 0.44057 0.25578 0.82417 0.0
H909 H 0.46078 0.25429 0.8773 0.0
C910 C 0.76541 0.3521 0.92514 0.0
C911 C 0.75592 0.35256 0.87893 0.0
C912 C 0.76135 0.41247 0.88526 0.0
C913 C 0.76591 0.41204 0.93212 0.0
N914 N 0.76898 0.38114 0.99699 0.0
N915 N 0.74278 0.38371 0.81511 0.0
C916 C 0.76736 0.38171 0.95211 0.0
C917 C 0.75375 0.38293 0.85891 0.0
N918 N 0.77273 0.3231 0.94322 0.0
N919 N 0.7644 0.44122 0.86593 0.0
H920 H 0.73781 0.36274 0.79477 0.0
H921 H 0.7368 0.40503 0.79951 0.0
H922 H 0.76947 0.46312 0.88422 0.0
H923 H 0.76457 0.44299 0.83208 0.0
H924 H 0.78266 0.3211 0.97582 0.0
H925 H 0.77185 0.30119 0.92428 0.0
H926 H 0.7661 0.36005 0.01339 0.0
H927 H 0.77055 0.40216 0.01777 0.0
C928 C 0.64621 0.25682 0.19747 0.0
C929 C 0.67401 0.25333 0.17413 0.0
C930 C 0.63874 0.23644 0.10624 0.0
C931 C 0.61111 0.24301 0.1288 0.0
N932 N 0.58834 0.24736 0.19793 0.0
N933 N 0.6977 0.23816 0.10754 0.0
C934 C 0.61488 0.24918 0.17521 0.0
C935 C 0.67054 0.24205 0.12896 0.0
N936 N 0.64942 0.2698 0.23998 0.0
N937 N 0.63441 0.22402 0.06355 0.0
H938 H 0.72119 0.24039 0.1239 0.0
H939 H 0.69732 0.2336 0.07365 0.0
H940 H 0.61149 0.22038 0.04598 0.0
H941 H 0.65312 0.21545 0.04609 0.0
H942 H 0.62978 0.27683 0.25674 0.0
H943 H 0.67175 0.27596 0.25777 0.0
H944 H 0.58974 0.24834 0.23224 0.0
H945 H 0.56514 0.2416 0.1824 0.0
C946 C 0.77378 0.6794 0.13197 0.0
C947 C 0.76392 0.6813 0.17523 0.0
C948 C 0.76642 0.62122 0.17489 0.0
C949 C 0.77136 0.61936 0.12952 0.0
N950 N 0.77677 0.64705 0.06346 0.0
N951 N 0.74664 0.65274 0.2357 0.0
C952 C 0.77452 0.64861 0.1078 0.0
C953 C 0.75955 0.65185 0.19637 0.0
N954 N 0.78273 0.70721 0.11412 0.0
N955 N 0.76825 0.59356 0.1976 0.0
H956 H 0.74097 0.67421 0.25267 0.0
H957 H 0.73907 0.63207 0.24991 0.0
H958 H 0.77265 0.57083 0.18278 0.0
H959 H 0.76833 0.59357 0.23172 0.0
H960 H 0.79298 0.70748 0.0845 0.0
H961 H 0.78277 0.72984 0.13123 0.0
H962 H 0.775 0.66732 0.04454 0.0
H963 H 0.77787 0.62513 0.04494 0.0
C964 C 0.35998 0.71722 0.1814 0.0
C965 C 0.33366 0.73902 0.17422 0.0
C966 C 0.36792 0.77398 0.13554 0.0
C967 C 0.39218 0.74971 0.13663 0.0
N968 N 0.41032 0.69661 0.15731 0.0
N969 N 0.31121 0.78659 0.13992 0.0
C970 C 0.38814 0.721 0.15911 0.0
C971 C 0.33736 0.76721 0.15049 0.0
N972 N 0.35818 0.69316 0.21004 0.0
N973 N 0.37426 0.80365 0.1205 0.0
H974 H 0.28829 0.78248 0.14972 0.0
H975 H 0.31148 0.80523 0.11834 0.0
H976 H 0.39647 0.8094 0.10955 0.0
H977 H 0.35887 0.82345 0.1229 0.0
H978 H 0.3777 0.67841 0.22002 0.0
H979 H 0.33802 0.68996 0.2271 0.0
H980 H 0.40677 0.67363 0.16852 0.0
H981 H 0.43134 0.69848 0.14168 0.0
C982 C 0.23269 0.33674 0.17116 0.0
C983 C 0.2592 0.33565 0.20507 0.0
C984 C 0.27637 0.39024 0.18639 0.0
C985 C 0.24963 0.39192 0.15289 0.0
N986 N 0.19774 0.36944 0.12181 0.0
N987 N 0.30373 0.36547 0.24823 0.0
C988 C 0.22642 0.36589 0.14783 0.0
C989 C 0.27965 0.36364 0.21392 0.0
N990 N 0.21441 0.30938 0.15949 0.0
N991 N 0.30029 0.41329 0.19261 0.0
H992 H 0.30772 0.34775 0.2713 0.0
H993 H 0.30772 0.34775 0.2713 0.0
H994 H 0.3015 0.43314 0.17315 0.0
H995 H 0.3015 0.43314 0.17315 0.0
H996 H 0.19743 0.30714 0.13162 0.0
H997 H 0.21781 0.28801 0.17603 0.0
H998 H 0.17844 0.35302 0.12005 0.0
H999 H 0.19196 0.39049 0.10532 0.0
C1000 C 0.35029 0.22578 0.19504 0.0
C1001 C 0.34631 0.25387 0.22287 0.0
C1002 C 0.39914 0.275 0.20707 0.0
C1003 C 0.40311 0.24703 0.17885 0.0
N1004 N 0.38733 0.19178 0.15684 0.0
N1005 N 0.37124 0.29953 0.26632 0.0
C1006 C 0.38026 0.22103 0.17661 0.0
C1007 C 0.3724 0.27643 0.2327 0.0
N1008 N 0.32488 0.20461 0.18407 0.0
N1009 N 0.41937 0.30122 0.20712 0.0
H1010 H 0.35203 0.30078 0.28579 0.0
H1011 H 0.39065 0.31501 0.27772 0.0
H1012 H 0.43886 0.30168 0.18833 0.0
H1013 H 0.41523 0.32356 0.22308 0.0
H1014 H 0.32497 0.18589 0.15974 0.0
H1015 H 0.30283 0.20698 0.1974 0.0
H1016 H 0.37306 0.17102 0.15742 0.0
H1017 H 0.40927 0.18755 0.1437 0.0
C1018 C 0.77783 0.34347 0.16435 0.0
C1019 C 0.75692 0.34169 0.1978 0.0
C1020 C 0.75181 0.40085 0.20188 0.0
C1021 C 0.76821 0.40203 0.16367 0.0
N1022 N 0.79607 0.3747 0.10685 0.0
N1023 N 0.72331 0.36778 0.2487 0.0
C1024 C 0.78154 0.37348 0.14482 0.0
C1025 C 0.74401 0.3702 0.21711 0.0
N1026 N 0.79404 0.31639 0.1513 0.0
N1027 N 0.74405 0.42912 0.22367 0.0
H1028 H 0.718 0.3458 0.26174 0.0
H1029 H 0.71 0.38718 0.26034 0.0
H1030 H 0.74974 0.45191 0.21326 0.0
H1031 H 0.73469 0.43013 0.25397 0.0
H1032 H 0.81219 0.31671 0.1303 0.0
H1033 H 0.79134 0.29389 0.16452 0.0
H1034 H 0.80264 0.35419 0.08856 0.0
H1035 H 0.79987 0.3962 0.09178 0.0
C1036 C 0.65298 0.72727 0.14466 0.0
C1037 C 0.66862 0.75224 0.17371 0.0
C1038 C 0.61728 0.78181 0.16204 0.0
C1039 C 0.60667 0.76133 0.12403 0.0
N1040 N 0.62287 0.71876 0.07308 0.0
N1041 N 0.66517 0.80926 0.19821 0.0
C1042 C 0.62749 0.73568 0.11294 0.0
C1043 C 0.65072 0.78143 0.17937 0.0
N1044 N 0.66023 0.69531 0.14921 0.0
N1045 N 0.59579 0.79993 0.1834 0.0
H1046 H 0.6903 0.81187 0.20487 0.0
H1047 H 0.65226 0.83086 0.20093 0.0
H1048 H 0.57075 0.79823 0.17439 0.0
H1049 H 0.603 0.8137 0.2126 0.0
H1050 H 0.6478 0.67688 0.12925 0.0
H1051 H 0.67534 0.68744 0.17615 0.0
H1052 H 0.63865 0.70035 0.06445 0.0
H1053 H 0.60568 0.72552 0.04769 0.0
C1054 C 0.23513 0.63959 0.1824 0.0
C1055 C 0.2356 0.6674 0.15703 0.0
C1056 C 0.21822 0.63446 0.08927 0.0
C1057 C 0.22253 0.60654 0.11401 0.0
N1058 N 0.22188 0.58229 0.18353 0.0
N1059 N 0.22249 0.69332 0.08873 0.0
C1060 C 0.22616 0.60918 0.16059 0.0
C1061 C 0.22478 0.6655 0.11117 0.0
N1062 N 0.24605 0.64168 0.22645 0.0
N1063 N 0.20791 0.63097 0.04516 0.0
H1064 H 0.22586 0.71631 0.10471 0.0
H1065 H 0.21729 0.69403 0.0547 0.0
H1066 H 0.20321 0.60832 0.02877 0.0
H1067 H 0.20206 0.65012 0.02514 0.0
H1068 H 0.25015 0.62158 0.24537 0.0
H1069 H 0.25299 0.66344 0.24394 0.0
H1070 H 0.22143 0.58292 0.21758 0.0
H1071 H 0.21572 0.55966 0.16775 0.0
C1072 C 0.37733 0.77336 0.8376 0.0
C1073 C 0.35762 0.74489 0.83726 0.0
C1074 C 0.39793 0.72329 0.8916 0.0
C1075 C 0.41952 0.74991 0.8892 0.0
N1076 N 0.43322 0.79223 0.84249 0.0
N1077 N 0.36166 0.6869 0.84549 0.0
C1078 C 0.41059 0.77208 0.85588 0.0
C1079 C 0.37245 0.71771 0.85746 0.0
N1080 N 0.36457 0.80221 0.82484 0.0
N1081 N 0.39934 0.70474 0.9273 0.0
H1082 H 0.34398 0.68194 0.81876 0.0
H1083 H 0.3729 0.66669 0.85945 0.0
H1084 H 0.41468 0.70992 0.95613 0.0
H1085 H 0.38231 0.68638 0.92963 0.0
H1086 H 0.37851 0.82348 0.82755 0.0
H1087 H 0.33978 0.80588 0.81729 0.0
H1088 H 0.42765 0.80759 0.81674 0.0
H1089 H 0.45778 0.79116 0.85461 0.0
C1090 C 0.27589 0.39758 0.83775 0.0
C1091 C 0.27638 0.36792 0.85915 0.0
C1092 C 0.27478 0.39725 0.93008 0.0
C1093 C 0.27033 0.42689 0.90873 0.0
N1094 N 0.2632 0.45509 0.8413 0.0
N1095 N 0.26604 0.33936 0.923 0.0
C1096 C 0.26969 0.427 0.86211 0.0
C1097 C 0.27223 0.36778 0.9044 0.0
N1098 N 0.28245 0.39776 0.79491 0.0
N1099 N 0.28366 0.39687 0.97444 0.0
H1100 H 0.26328 0.31718 0.90475 0.0
H1101 H 0.26006 0.33855 0.95521 0.0
H1102 H 0.29001 0.41764 0.99426 0.0
H1103 H 0.28947 0.37562 0.99039 0.0
H1104 H 0.28581 0.41896 0.77894 0.0
H1105 H 0.28661 0.37656 0.77618 0.0
H1106 H 0.25905 0.45601 0.80712 0.0
H1107 H 0.26003 0.47726 0.85843 0.0
C1108 C 0.6371 0.27146 0.84522 0.0
C1109 C 0.66875 0.26979 0.86839 0.0
C1110 C 0.64473 0.26323 0.93746 0.0
C1111 C 0.61308 0.26318 0.91417 0.0
N1112 N 0.57903 0.26174 0.84477 0.0
N1113 N 0.70244 0.25563 0.93389 0.0
C1114 C 0.60926 0.26539 0.86758 0.0
C1115 C 0.67238 0.26282 0.91367 0.0
N1116 N 0.63355 0.28045 0.80258 0.0
N1117 N 0.64848 0.26526 0.98255 0.0
H1118 H 0.72311 0.25467 0.91715 0.0
H1119 H 0.70629 0.24743 0.96568 0.0
H1120 H 0.62886 0.2664 1.00119 0.0
H1121 H 0.67089 0.26892 1.0014 0.0
H1122 H 0.61121 0.28582 0.78545 0.0
H1123 H 0.65328 0.28454 0.78509 0.0
H1124 H 0.57494 0.25974 0.81045 0.0
H1125 H 0.55815 0.25832 0.86027 0.0
C1126 C 0.78485 0.67748 0.89683 0.0
C1127 C 0.76479 0.67579 0.85607 0.0
C1128 C 0.7639 0.61657 0.85529 0.0
C1129 C 0.77855 0.61871 0.8995 0.0
N1130 N 0.80441 0.65031 0.96281 0.0
N1131 N 0.73612 0.64473 0.79454 0.0
C1132 C 0.79016 0.64885 0.92012 0.0
C1133 C 0.75503 0.64554 0.83428 0.0
N1134 N 0.79836 0.70655 0.91332 0.0
N1135 N 0.75851 0.58675 0.83381 0.0
H1136 H 0.73035 0.66554 0.77749 0.0
H1137 H 0.72496 0.62378 0.77927 0.0
H1138 H 0.76511 0.56524 0.84878 0.0
H1139 H 0.75025 0.58332 0.80042 0.0
H1140 H 0.81572 0.70903 0.94071 0.0
H1141 H 0.79417 0.72812 0.89742 0.0
H1142 H 0.80986 0.67186 0.98154 0.0
H1143 H 0.80961 0.62979 0.98061 0.0
loop_
_geom_bond_atom_site_label_1
_geom_bond_atom_site_label_2
_geom_bond_distance
_geom_bond_site_symmetry_2
_ccdc_geom_bond_type
H0 C6 0.930 . S
H1 C9 0.931 . S
H2 C11 0.931 . S
H3 C13 0.930 . S
H4 C15 0.930 . S
H5 C17 0.931 . S
C6 H0 0.930 . S
C6 C7 1.380 . S
C6 C8 1.394 . S
C7 C6 1.380 . S
C7 C11 1.382 . S
C8 C6 1.394 . S
C8 C9 1.400 . S
C9 H1 0.931 . S
C9 C8 1.400 . S
C9 C10 1.375 . S
C10 C9 1.375 . S
C10 C11 1.415 . S
C10 C12 1.501 . S
C11 H2 0.931 . S
C11 C7 1.382 . S
C11 C10 1.415 . S
C12 C10 1.501 . S
C12 C13 1.384 . S
C12 C17 1.408 . S
C13 H3 0.930 . S
C13 C12 1.384 . S
C13 C14 1.389 . S
C14 C13 1.389 . S
C14 C15 1.405 . S
C15 H4 0.930 . S
C15 C14 1.405 . S
C15 C16 1.364 . S
C16 C15 1.364 . S
C16 C17 1.400 . S
C17 H5 0.931 . S
C17 C12 1.408 . S
C17 C16 1.400 . S
H18 C24 0.930 . S
H19 C27 0.931 . S
H20 C29 0.931 . S
H21 C31 0.930 . S
H22 C33 0.930 . S
H23 C35 0.931 . S
C24 H18 0.930 . S
C24 C25 1.380 . S
C24 C26 1.394 . S
C25 C24 1.380 . S
C25 C29 1.382 . S
C26 C24 1.394 . S
C26 C27 1.400 . S
C27 H19 0.931 . S
C27 C26 1.400 . S
C27 C28 1.375 . S
C28 C27 1.375 . S
C28 C29 1.415 . S
C28 C30 1.501 . S
C29 H20 0.931 . S
C29 C25 1.382 . S
C29 C28 1.415 . S
C30 C28 1.501 . S
C30 C31 1.384 . S
C30 C35 1.408 . S
C31 H21 0.930 . S
C31 C30 1.384 . S
C31 C32 1.389 . S
C32 C31 1.389 . S
C32 C33 1.405 . S
C33 H22 0.930 . S
C33 C32 1.405 . S
C33 C34 1.364 . S
C34 C33 1.364 . S
C34 C35 1.400 . S
C35 H23 0.931 . S
C35 C30 1.408 . S
C35 C34 1.400 . S
H36 C42 0.930 . S
H37 C45 0.931 . S
H38 C47 0.931 . S
H39 C49 0.930 . S
H40 C51 0.930 . S
H41 C53 0.931 . S
C42 H36 0.930 . S
C42 C43 1.380 . S
C42 C44 1.394 . S
C43 C42 1.380 . S
C43 C47 1.382 . S
C44 C42 1.394 . S
C44 C45 1.400 . S
C45 H37 0.931 . S
C45 C44 1.400 . S
C45 C46 1.375 . S
C46 C45 1.375 . S
C46 C47 1.415 . S
C46 C48 1.501 . S
C47 H38 0.931 . S
C47 C43 1.382 . S
C47 C46 1.415 . S
C48 C46 1.501 . S
C48 C49 1.384 . S
C48 C53 1.408 . S
C49 H39 0.930 . S
C49 C48 1.384 . S
C49 C50 1.389 . S
C50 C49 1.389 . S
C50 C51 1.405 . S
C51 H40 0.930 . S
C51 C50 1.405 . S
C51 C52 1.364 . S
C52 C51 1.364 . S
C52 C53 1.400 . S
C53 H41 0.931 . S
C53 C48 1.408 . S
C53 C52 1.400 . S
H54 C60 0.930 . S
H55 C63 0.931 . S
H56 C65 0.931 . S
H57 C67 0.930 . S
H58 C69 0.930 . S
H59 C71 0.931 . S
C60 H54 0.930 . S
C60 C61 1.380 . S
C60 C62 1.394 . S
C61 C60 1.380 . S
C61 C65 1.382 . S
C62 C60 1.394 . S
C62 C63 1.400 . S
C63 H55 0.931 . S
C63 C62 1.400 . S
C63 C64 1.375 . S
C64 C63 1.375 . S
C64 C65 1.415 . S
C64 C66 1.501 . S
C65 H56 0.931 . S
C65 C61 1.382 . S
C65 C64 1.415 . S
C66 C64 1.501 . S
C66 C67 1.384 . S
C66 C71 1.408 . S
C67 H57 0.930 . S
C67 C66 1.384 . S
C67 C68 1.389 . S
C68 C67 1.389 . S
C68 C69 1.405 . S
C69 H58 0.930 . S
C69 C68 1.405 . S
C69 C70 1.364 . S
C70 C69 1.364 . S
C70 C71 1.400 . S
C71 H59 0.931 . S
C71 C66 1.408 . S
C71 C70 1.400 . S
H72 C78 0.930 . S
H73 C81 0.931 . S
H74 C83 0.931 . S
H75 C85 0.930 . S
H76 C87 0.930 . S
H77 C89 0.931 . S
C78 H72 0.930 . S
C78 C79 1.380 . S
C78 C80 1.394 . S
C79 C78 1.380 . S
C79 C83 1.382 . S
C80 C78 1.394 . S
C80 C81 1.400 . S
C81 H73 0.931 . S
C81 C80 1.400 . S
C81 C82 1.375 . S
C82 C81 1.375 . S
C82 C83 1.415 . S
C82 C84 1.501 . S
C83 H74 0.931 . S
C83 C79 1.382 . S
C83 C82 1.415 . S
C84 C82 1.501 . S
C84 C85 1.384 . S
C84 C89 1.408 . S
C85 H75 0.930 . S
C85 C84 1.384 . S
C85 C86 1.389 . S
C86 C85 1.389 . S
C86 C87 1.405 . S
C87 H76 0.930 . S
C87 C86 1.405 . S
C87 C88 1.364 . S
C88 C87 1.364 . S
C88 C89 1.400 . S
C89 H77 0.931 . S
C89 C84 1.408 . S
C89 C88 1.400 . S
H90 C96 0.930 . S
H91 C99 0.931 . S
H92 C101 0.931 . S
H93 C103 0.930 . S
H94 C105 0.930 . S
H95 C107 0.931 . S
C96 H90 0.930 . S
C96 C97 1.380 . S
C96 C98 1.394 . S
C97 C96 1.380 . S
C97 C101 1.382 . S
C98 C96 1.394 . S
C98 C99 1.400 . S
C99 H91 0.931 . S
C99 C98 1.400 . S
C99 C100 1.375 . S
C100 C99 1.375 . S
C100 C101 1.415 . S
C100 C102 1.501 . S
C101 H92 0.931 . S
C101 C97 1.382 . S
C101 C100 1.415 . S
C102 C100 1.501 . S
C102 C103 1.384 . S
C102 C107 1.408 . S
C103 H93 0.930 . S
C103 C102 1.384 . S
C103 C104 1.389 . S
C104 C103 1.389 . S
C104 C105 1.405 . S
C105 H94 0.930 . S
C105 C104 1.405 . S
C105 C106 1.364 . S
C106 C105 1.364 . S
C106 C107 1.400 . S
C107 H95 0.931 . S
C107 C102 1.408 . S
C107 C106 1.400 . S
H108 C114 0.930 . S
H109 C117 0.931 . S
H110 C119 0.931 . S
H111 C121 0.930 . S
H112 C123 0.930 . S
H113 C125 0.931 . S
C114 H108 0.930 . S
C114 C115 1.380 . S
C114 C116 1.394 . S
C115 C114 1.380 . S
C115 C119 1.382 . S
C116 C114 1.394 . S
C116 C117 1.400 . S
C117 H109 0.931 . S
C117 C116 1.400 . S
C117 C118 1.375 . S
C118 C117 1.375 . S
C118 C119 1.415 . S
C118 C120 1.501 . S
C119 H110 0.931 . S
C119 C115 1.382 . S
C119 C118 1.415 . S
C120 C118 1.501 . S
C120 C121 1.384 . S
C120 C125 1.408 . S
C121 H111 0.930 . S
C121 C120 1.384 . S
C121 C122 1.389 . S
C122 C121 1.389 . S
C122 C123 1.405 . S
C123 H112 0.930 . S
C123 C122 1.405 . S
C123 C124 1.364 . S
C124 C123 1.364 . S
C124 C125 1.400 . S
C125 H113 0.931 . S
C125 C120 1.408 . S
C125 C124 1.400 . S
H126 C132 0.930 . S
H127 C135 0.931 . S
H128 C137 0.931 . S
H129 C139 0.930 . S
H130 C141 0.930 . S
H131 C143 0.931 . S
C132 H126 0.930 . S
C132 C133 1.380 . S
C132 C134 1.394 . S
C133 C132 1.380 . S
C133 C137 1.382 . S
C134 C132 1.394 . S
C134 C135 1.400 . S
C135 H127 0.931 . S
C135 C134 1.400 . S
C135 C136 1.375 . S
C136 C135 1.375 . S
C136 C137 1.415 . S
C136 C138 1.501 . S
C137 H128 0.931 . S
C137 C133 1.382 . S
C137 C136 1.415 . S
C138 C136 1.501 . S
C138 C139 1.384 . S
C138 C143 1.408 . S
C139 H129 0.930 . S
C139 C138 1.384 . S
C139 C140 1.389 . S
C140 C139 1.389 . S
C140 C141 1.405 . S
C141 H130 0.930 . S
C141 C140 1.405 . S
C141 C142 1.364 . S
C142 C141 1.364 . S
C142 C143 1.400 . S
C143 H131 0.931 . S
C143 C138 1.408 . S
C143 C142 1.400 . S
C144 C145 1.443 . S
C144 N148 1.376 . S
C144 C182 1.389 . S
C145 C144 1.443 . S
C145 C146 1.340 . S
C145 H185 0.951 . S
C146 C145 1.340 . S
C146 C147 1.439 . S
C146 H186 0.950 . S
C147 C146 1.439 . S
C147 N148 1.374 . S
C147 C181 1.395 . S
N148 C144 1.376 . S
N148 C147 1.374 . S
N148 Co149 2.008 . S
Co149 N148 2.008 . S
Co149 N150 1.995 1_455 S
Co149 N155 2.008 1_455 S
Co149 N160 1.995 . S
Co149 N165 2.282 1_455 S
Co149 N171 2.282 . S
N150 Co149 1.995 1_655 S
N150 C151 1.376 . S
N150 C154 1.383 . S
C151 N150 1.376 . S
C151 C152 1.446 . S
C151 C181 1.391 1_655 S
C152 C151 1.446 . S
C152 C153 1.339 . S
C152 H187 0.949 . S
C153 C152 1.339 . S
C153 C154 1.439 . S
C153 H188 0.950 . S
C154 N150 1.383 . S
C154 C153 1.439 . S
C154 C183 1.392 . S
N155 Co149 2.008 1_655 S
N155 C156 1.376 . S
N155 C159 1.374 . S
C156 N155 1.376 . S
C156 C157 1.443 . S
C156 C183 1.389 . S
C157 C156 1.443 . S
C157 C158 1.340 . S
C157 H189 0.951 . S
C158 C157 1.340 . S
C158 C159 1.439 . S
C158 H190 0.950 . S
C159 N155 1.374 . S
C159 C158 1.439 . S
C159 C184 1.395 . S
N160 Co149 1.995 . S
N160 C161 1.376 . S
N160 C164 1.383 . S
C161 N160 1.376 . S
C161 C162 1.446 . S
C161 C184 1.391 1_455 S
C162 C161 1.446 . S
C162 C163 1.339 . S
C162 H191 0.949 . S
C163 C162 1.339 . S
C163 C164 1.439 . S
C163 H192 0.950 . S
C164 N160 1.383 . S
C164 C163 1.439 . S
C164 C182 1.392 . S
N165 Co149 2.282 1_655 S
N165 C168 1.332 . S
N165 C170 1.332 . S
C166 C167 1.386 . S
C166 C169 1.388 . S
C167 C166 1.386 . S
C167 C168 1.382 . S
C167 H193 0.950 . S
C168 N165 1.332 . S
C168 C167 1.382 . S
C168 H179 0.952 . S
C169 C166 1.388 . S
C169 C170 1.382 . S
C169 H194 0.950 . S
C170 N165 1.332 . S
C170 C169 1.382 . S
C170 H180 0.948 . S
N171 Co149 2.282 . S
N171 C175 1.332 . S
N171 C176 1.332 . S
C172 C173 1.388 . S
C172 C176 1.382 . S
C172 H195 0.950 . S
C173 C172 1.388 . S
C173 C174 1.386 . S
C174 C173 1.386 . S
C174 C175 1.382 . S
C174 H196 0.950 . S
C175 N171 1.332 . S
C175 C174 1.382 . S
C175 H177 0.952 . S
C176 N171 1.332 . S
C176 C172 1.382 . S
C176 H178 0.948 . S
H177 C175 0.952 . S
H178 C176 0.948 . S
H179 C168 0.952 . S
H180 C170 0.948 . S
C181 C147 1.395 . S
C181 C151 1.391 1_455 S
C182 C144 1.389 . S
C182 C164 1.392 . S
C183 C154 1.392 . S
C183 C156 1.389 . S
C184 C159 1.395 . S
C184 C161 1.391 1_655 S
H185 C145 0.951 . S
H186 C146 0.950 . S
H187 C152 0.949 . S
H188 C153 0.950 . S
H189 C157 0.951 . S
H190 C158 0.950 . S
H191 C162 0.949 . S
H192 C163 0.950 . S
H193 C167 0.950 . S
H194 C169 0.950 . S
H195 C172 0.950 . S
H196 C174 0.950 . S
C197 C198 1.443 . S
C197 N201 1.376 . S
C197 C235 1.389 . S
C198 C197 1.443 . S
C198 C199 1.340 . S
C198 H238 0.951 . S
C199 C198 1.340 . S
C199 C200 1.439 . S
C199 H239 0.950 . S
C200 C199 1.439 . S
C200 N201 1.374 . S
C200 C234 1.395 . S
N201 C197 1.376 . S
N201 C200 1.374 . S
N201 Co202 2.008 . S
Co202 N201 2.008 . S
Co202 N203 1.995 1_545 S
Co202 N208 2.008 1_545 S
Co202 N213 1.995 . S
Co202 N218 2.282 1_545 S
Co202 N224 2.282 . S
N203 Co202 1.995 1_565 S
N203 C204 1.376 . S
N203 C207 1.383 . S
C204 N203 1.376 . S
C204 C205 1.446 . S
C204 C234 1.391 1_565 S
C205 C204 1.446 . S
C205 C206 1.339 . S
C205 H240 0.949 . S
C206 C205 1.339 . S
C206 C207 1.439 . S
C206 H241 0.950 . S
C207 N203 1.383 . S
C207 C206 1.439 . S
C207 C236 1.392 . S
N208 Co202 2.008 1_565 S
N208 C209 1.376 . S
N208 C212 1.374 . S
C209 N208 1.376 . S
C209 C210 1.443 . S
C209 C236 1.389 . S
C210 C209 1.443 . S
C210 C211 1.340 . S
C210 H242 0.951 . S
C211 C210 1.340 . S
C211 C212 1.439 . S
C211 H243 0.950 . S
C212 N208 1.374 . S
C212 C211 1.439 . S
C212 C237 1.395 1_565 S
N213 Co202 1.995 . S
N213 C214 1.376 . S
N213 C217 1.383 . S
C214 N213 1.376 . S
C214 C215 1.446 . S
C214 C237 1.391 . S
C215 C214 1.446 . S
C215 C216 1.339 . S
C215 H244 0.949 . S
C216 C215 1.339 . S
C216 C217 1.439 . S
C216 H245 0.950 . S
C217 N213 1.383 . S
C217 C216 1.439 . S
C217 C235 1.392 . S
N218 Co202 2.282 1_565 S
N218 C221 1.332 . S
N218 C223 1.332 . S
C219 C220 1.386 . S
C219 C222 1.388 . S
C220 C219 1.386 . S
C220 C221 1.382 . S
C220 H246 0.950 . S
C221 N218 1.332 . S
C221 C220 1.382 . S
C221 H232 0.952 . S
C222 C219 1.388 . S
C222 C223 1.382 . S
C222 H247 0.950 . S
C223 N218 1.332 . S
C223 C222 1.382 . S
C223 H233 0.948 . S
N224 Co202 2.282 . S
N224 C228 1.332 . S
N224 C229 1.332 . S
C225 C226 1.388 . S
C225 C229 1.382 . S
C225 H248 0.950 . S
C226 C225 1.388 . S
C226 C227 1.386 . S
C227 C226 1.386 . S
C227 C228 1.382 . S
C227 H249 0.950 . S
C228 N224 1.332 . S
C228 C227 1.382 . S
C228 H230 0.952 . S
C229 N224 1.332 . S
C229 C225 1.382 . S
C229 H231 0.948 . S
H230 C228 0.952 . S
H231 C229 0.948 . S
H232 C221 0.952 . S
H233 C223 0.948 . S
C234 C200 1.395 . S
C234 C204 1.391 1_545 S
C235 C197 1.389 . S
C235 C217 1.392 . S
C236 C207 1.392 . S
C236 C209 1.389 . S
C237 C212 1.395 1_545 S
C237 C214 1.391 . S
H238 C198 0.951 . S
H239 C199 0.950 . S
H240 C205 0.949 . S
H241 C206 0.950 . S
H242 C210 0.951 . S
H243 C211 0.950 . S
H244 C215 0.949 . S
H245 C216 0.950 . S
H246 C220 0.950 . S
H247 C222 0.950 . S
H248 C225 0.950 . S
H249 C227 0.950 . S
C250 C251 1.443 . S
C250 N254 1.376 . S
C250 C288 1.389 . S
C251 C250 1.443 . S
C251 C252 1.340 . S
C251 H291 0.951 . S
C252 C251 1.340 . S
C252 C253 1.439 . S
C252 H292 0.950 . S
C253 C252 1.439 . S
C253 N254 1.374 . S
C253 C287 1.395 . S
N254 C250 1.376 . S
N254 C253 1.374 . S
N254 Co255 2.008 . S
Co255 N254 2.008 . S
Co255 N256 1.995 1_455 S
Co255 N261 2.008 1_455 S
Co255 N266 1.995 . S
Co255 N271 2.282 1_455 S
Co255 N277 2.282 . S
N256 Co255 1.995 1_655 S
N256 C257 1.376 . S
N256 C260 1.383 . S
C257 N256 1.376 . S
C257 C258 1.446 . S
C257 C287 1.391 1_655 S
C258 C257 1.446 . S
C258 C259 1.339 . S
C258 H293 0.949 . S
C259 C258 1.339 . S
C259 C260 1.439 . S
C259 H294 0.950 . S
C260 N256 1.383 . S
C260 C259 1.439 . S
C260 C289 1.392 . S
N261 Co255 2.008 1_655 S
N261 C262 1.376 . S
N261 C265 1.374 . S
C262 N261 1.376 . S
C262 C263 1.443 . S
C262 C289 1.389 . S
C263 C262 1.443 . S
C263 C264 1.340 . S
C263 H295 0.951 . S
C264 C263 1.340 . S
C264 C265 1.439 . S
C264 H296 0.950 . S
C265 N261 1.374 . S
C265 C264 1.439 . S
C265 C290 1.395 . S
N266 Co255 1.995 . S
N266 C267 1.376 . S
N266 C270 1.383 . S
C267 N266 1.376 . S
C267 C268 1.446 . S
C267 C290 1.391 1_455 S
C268 C267 1.446 . S
C268 C269 1.339 . S
C268 H297 0.949 . S
C269 C268 1.339 . S
C269 C270 1.439 . S
C269 H298 0.950 . S
C270 N266 1.383 . S
C270 C269 1.439 . S
C270 C288 1.392 . S
N271 Co255 2.282 1_655 S
N271 C274 1.332 . S
N271 C276 1.332 . S
C272 C273 1.386 . S
C272 C275 1.388 . S
C273 C272 1.386 . S
C273 C274 1.382 . S
C273 H299 0.950 . S
C274 N271 1.332 . S
C274 C273 1.382 . S
C274 H285 0.952 . S
C275 C272 1.388 . S
C275 C276 1.382 . S
C275 H300 0.950 . S
C276 N271 1.332 . S
C276 C275 1.382 . S
C276 H286 0.948 . S
N277 Co255 2.282 . S
N277 C281 1.332 . S
N277 C282 1.332 . S
C278 C279 1.388 . S
C278 C282 1.382 . S
C278 H301 0.950 . S
C279 C278 1.388 . S
C279 C280 1.386 . S
C280 C279 1.386 . S
C280 C281 1.382 . S
C280 H302 0.950 . S
C281 N277 1.332 . S
C281 C280 1.382 . S
C281 H283 0.952 . S
C282 N277 1.332 . S
C282 C278 1.382 . S
C282 H284 0.948 . S
H283 C281 0.952 . S
H284 C282 0.948 . S
H285 C274 0.952 . S
H286 C276 0.948 . S
C287 C253 1.395 . S
C287 C257 1.391 1_455 S
C288 C250 1.389 . S
C288 C270 1.392 . S
C289 C260 1.392 . S
C289 C262 1.389 . S
C290 C265 1.395 . S
C290 C267 1.391 1_655 S
H291 C251 0.951 . S
H292 C252 0.950 . S
H293 C258 0.949 . S
H294 C259 0.950 . S
H295 C263 0.951 . S
H296 C264 0.950 . S
H297 C268 0.949 . S
H298 C269 0.950 . S
H299 C273 0.950 . S
H300 C275 0.950 . S
H301 C278 0.950 . S
H302 C280 0.950 . S
C303 C304 1.443 . S
C303 N307 1.376 . S
C303 C341 1.389 . S
C304 C303 1.443 . S
C304 C305 1.340 . S
C304 H344 0.951 . S
C305 C304 1.340 . S
C305 C306 1.439 . S
C305 H345 0.950 . S
C306 C305 1.439 . S
C306 N307 1.374 . S
C306 C340 1.397 1_565 S
N307 C303 1.376 . S
N307 C306 1.374 . S
N307 Co308 2.008 1_565 S
Co308 N307 2.008 1_545 S
Co308 N309 1.995 . S
Co308 N314 2.008 . S
Co308 N319 1.995 1_545 S
Co308 N324 2.282 . S
Co308 N330 2.282 1_545 S
N309 Co308 1.995 . S
N309 C310 1.376 . S
N309 C313 1.383 . S
C310 N309 1.376 . S
C310 C311 1.446 . S
C310 C340 1.389 . S
C311 C310 1.446 . S
C311 C312 1.339 . S
C311 H346 0.949 . S
C312 C311 1.339 . S
C312 C313 1.439 . S
C312 H347 0.950 . S
C313 N309 1.383 . S
C313 C312 1.439 . S
C313 C342 1.392 . S
N314 Co308 2.008 . S
N314 C315 1.376 . S
N314 C318 1.374 . S
C315 N314 1.376 . S
C315 C316 1.443 . S
C315 C342 1.389 . S
C316 C315 1.443 . S
C316 C317 1.340 . S
C316 H348 0.951 . S
C317 C316 1.340 . S
C317 C318 1.439 . S
C317 H349 0.950 . S
C318 N314 1.374 . S
C318 C317 1.439 . S
C318 C343 1.395 . S
N319 Co308 1.995 1_565 S
N319 C320 1.376 . S
N319 C323 1.383 . S
C320 N319 1.376 . S
C320 C321 1.446 . S
C320 C343 1.391 1_565 S
C321 C320 1.446 . S
C321 C322 1.339 . S
C321 H350 0.949 . S
C322 C321 1.339 . S
C322 C323 1.439 . S
C322 H351 0.950 . S
C323 N319 1.383 . S
C323 C322 1.439 . S
C323 C341 1.392 . S
N324 Co308 2.282 . S
N324 C327 1.332 . S
N324 C329 1.332 . S
C325 C326 1.386 . S
C325 C328 1.388 . S
C326 C325 1.386 . S
C326 C327 1.382 . S
C326 H352 0.950 . S
C327 N324 1.332 . S
C327 C326 1.382 . S
C327 H338 0.952 . S
C328 C325 1.388 . S
C328 C329 1.382 . S
C328 H353 0.950 . S
C329 N324 1.332 . S
C329 C328 1.382 . S
C329 H339 0.948 . S
N330 Co308 2.282 1_565 S
N330 C334 1.332 . S
N330 C335 1.332 . S
C331 C332 1.388 . S
C331 C335 1.382 . S
C331 H354 0.950 . S
C332 C331 1.388 . S
C332 C333 1.386 . S
C333 C332 1.386 . S
C333 C334 1.382 . S
C333 H355 0.950 . S
C334 N330 1.332 . S
C334 C333 1.382 . S
C334 H336 0.952 . S
C335 N330 1.332 . S
C335 C331 1.382 . S
C335 H337 0.948 . S
H336 C334 0.952 . S
H337 C335 0.948 . S
H338 C327 0.952 . S
H339 C329 0.948 . S
C340 C306 1.397 1_545 S
C340 C310 1.389 . S
C341 C303 1.389 . S
C341 C323 1.392 . S
C342 C313 1.392 . S
C342 C315 1.389 . S
C343 C318 1.395 . S
C343 C320 1.391 1_545 S
H344 C304 0.951 . S
H345 C305 0.950 . S
H346 C311 0.949 . S
H347 C312 0.950 . S
H348 C316 0.951 . S
H349 C317 0.950 . S
H350 C321 0.949 . S
H351 C322 0.950 . S
H352 C326 0.950 . S
H353 C328 0.950 . S
H354 C331 0.950 . S
H355 C333 0.950 . S
C356 C357 1.443 . S
C356 N360 1.376 . S
C356 C394 1.389 . S
C357 C356 1.443 . S
C357 C358 1.340 . S
C357 H397 0.951 . S
C358 C357 1.340 . S
C358 C359 1.439 . S
C358 H398 0.950 . S
C359 C358 1.439 . S
C359 N360 1.374 . S
C359 C393 1.395 . S
N360 C356 1.376 . S
N360 C359 1.374 . S
N360 Co361 2.008 . S
Co361 N360 2.008 . S
Co361 N362 1.995 1_554 S
Co361 N367 2.008 1_554 S
Co361 N372 1.995 . S
Co361 N377 2.282 . S
Co361 N383 2.282 1_554 S
N362 Co361 1.995 1_556 S
N362 C363 1.376 . S
N362 C366 1.383 . S
C363 N362 1.376 . S
C363 C364 1.446 . S
C363 C393 1.391 1_556 S
C364 C363 1.446 . S
C364 C365 1.339 . S
C364 H399 0.949 . S
C365 C364 1.339 . S
C365 C366 1.439 . S
C365 H400 0.950 . S
C366 N362 1.383 . S
C366 C365 1.439 . S
C366 C395 1.392 . S
N367 Co361 2.008 1_556 S
N367 C368 1.376 . S
N367 C371 1.374 . S
C368 N367 1.376 . S
C368 C369 1.443 . S
C368 C395 1.389 . S
C369 C368 1.443 . S
C369 C370 1.340 . S
C369 H401 0.951 . S
C370 C369 1.340 . S
C370 C371 1.439 . S
C370 H402 0.950 . S
C371 N367 1.374 . S
C371 C370 1.439 . S
C371 C396 1.410 . S
N372 Co361 1.995 . S
N372 C373 1.376 . S
N372 C376 1.383 . S
C373 N372 1.376 . S
C373 C374 1.446 . S
C373 C396 1.378 1_554 S
C374 C373 1.446 . S
C374 C375 1.339 . S
C374 H403 0.949 . S
C375 C374 1.339 . S
C375 C376 1.439 . S
C375 H404 0.950 . S
C376 N372 1.383 . S
C376 C375 1.439 . S
C376 C394 1.392 . S
N377 Co361 2.282 . S
N377 C380 1.332 . S
N377 C382 1.332 . S
C378 C379 1.386 . S
C378 C381 1.388 . S
C379 C378 1.386 . S
C379 C380 1.382 . S
C379 H405 0.950 . S
C380 N377 1.332 . S
C380 C379 1.382 . S
C380 H391 0.952 . S
C381 C378 1.388 . S
C381 C382 1.382 . S
C381 H406 0.950 . S
C382 N377 1.332 . S
C382 C381 1.382 . S
C382 H392 0.948 . S
N383 Co361 2.282 1_556 S
N383 C387 1.332 . S
N383 C388 1.332 . S
C384 C385 1.388 . S
C384 C388 1.382 . S
C384 H407 0.950 . S
C385 C384 1.388 . S
C385 C386 1.386 . S
C386 C385 1.386 . S
C386 C387 1.382 . S
C386 H408 0.950 . S
C387 N383 1.332 . S
C387 C386 1.382 . S
C387 H389 0.952 . S
C388 N383 1.332 . S
C388 C384 1.382 . S
C388 H390 0.948 . S
H389 C387 0.952 . S
H390 C388 0.948 . S
H391 C380 0.952 . S
H392 C382 0.948 . S
C393 C359 1.395 . S
C393 C363 1.391 1_554 S
C394 C356 1.389 . S
C394 C376 1.392 . S
C395 C366 1.392 . S
C395 C368 1.389 . S
C396 C371 1.410 . S
C396 C373 1.378 1_556 S
H397 C357 0.951 . S
H398 C358 0.950 . S
H399 C364 0.949 . S
H400 C365 0.950 . S
H401 C369 0.951 . S
H402 C370 0.950 . S
H403 C374 0.949 . S
H404 C375 0.950 . S
H405 C379 0.950 . S
H406 C381 0.950 . S
H407 C384 0.950 . S
H408 C386 0.950 . S
C409 C410 1.443 . S
C409 N413 1.376 . S
C409 C447 1.389 . S
C410 C409 1.443 . S
C410 C411 1.340 . S
C410 H450 0.951 . S
C411 C410 1.340 . S
C411 C412 1.439 . S
C411 H451 0.950 . S
C412 C411 1.439 . S
C412 N413 1.374 . S
C412 C446 1.395 . S
N413 C409 1.376 . S
N413 C412 1.374 . S
N413 Co414 2.008 . S
Co414 N413 2.008 . S
Co414 N415 1.995 1_554 S
Co414 N420 2.008 . S
Co414 N425 1.995 . S
Co414 N430 2.282 . S
Co414 N436 2.282 1_554 S
N415 Co414 1.995 1_556 S
N415 C416 1.376 . S
N415 C419 1.383 . S
C416 N415 1.376 . S
C416 C417 1.446 . S
C416 C446 1.391 1_556 S
C417 C416 1.446 . S
C417 C418 1.339 . S
C417 H452 0.949 . S
C418 C417 1.339 . S
C418 C419 1.439 . S
C418 H453 0.950 . S
C419 N415 1.383 . S
C419 C418 1.439 . S
C419 C448 1.392 . S
N420 Co414 2.008 . S
N420 C421 1.376 1_554 S
N420 C424 1.374 . S
C421 N420 1.376 1_556 S
C421 C422 1.443 . S
C421 C448 1.389 . S
C422 C421 1.443 . S
C422 C423 1.340 1_556 S
C422 H454 0.951 . S
C423 C422 1.340 1_554 S
C423 C424 1.439 . S
C423 H455 0.950 . S
C424 N420 1.374 . S
C424 C423 1.439 . S
C424 C449 1.395 . S
N425 Co414 1.995 . S
N425 C426 1.376 . S
N425 C429 1.383 . S
C426 N425 1.376 . S
C426 C427 1.446 . S
C426 C449 1.391 . S
C427 C426 1.446 . S
C427 C428 1.339 . S
C427 H456 0.949 . S
C428 C427 1.339 . S
C428 C429 1.439 . S
C428 H457 0.950 . S
C429 N425 1.383 . S
C429 C428 1.439 . S
C429 C447 1.392 . S
N430 Co414 2.282 . S
N430 C433 1.332 . S
N430 C435 1.332 . S
C431 C432 1.386 . S
C431 C434 1.388 . S
C432 C431 1.386 . S
C432 C433 1.382 . S
C432 H458 0.950 . S
C433 N430 1.332 . S
C433 C432 1.382 . S
C433 H444 0.952 . S
C434 C431 1.388 . S
C434 C435 1.382 . S
C434 H459 0.950 . S
C435 N430 1.332 . S
C435 C434 1.382 . S
C435 H445 0.948 . S
N436 Co414 2.282 1_556 S
N436 C440 1.332 . S
N436 C441 1.332 . S
C437 C438 1.388 . S
C437 C441 1.382 . S
C437 H460 0.950 . S
C438 C437 1.388 . S
C438 C439 1.386 . S
C439 C438 1.386 . S
C439 C440 1.382 . S
C439 H461 0.950 . S
C440 N436 1.332 . S
C440 C439 1.382 . S
C440 H442 0.952 . S
C441 N436 1.332 . S
C441 C437 1.382 . S
C441 H443 0.948 . S
H442 C440 0.952 . S
H443 C441 0.948 . S
H444 C433 0.952 . S
H445 C435 0.948 . S
C446 C412 1.395 . S
C446 C416 1.391 1_554 S
C447 C409 1.389 . S
C447 C429 1.392 . S
C448 C419 1.392 . S
C448 C421 1.389 . S
C449 C424 1.395 . S
C449 C426 1.391 . S
H450 C410 0.951 . S
H451 C411 0.950 . S
H452 C417 0.949 . S
H453 C418 0.950 . S
H454 C422 0.951 . S
H455 C423 0.950 . S
H456 C427 0.949 . S
H457 C428 0.950 . S
H458 C432 0.950 . S
H459 C434 0.950 . S
H460 C437 0.950 . S
H461 C439 0.950 . S
C462 C463 1.443 . S
C462 N466 1.376 1_556 S
C462 C500 1.389 . S
C463 C462 1.443 . S
C463 C464 1.340 1_556 S
C463 H503 0.951 . S
C464 C463 1.340 1_554 S
C464 C465 1.439 . S
C464 H504 0.950 . S
C465 C464 1.439 . S
C465 N466 1.374 . S
C465 C499 1.395 . S
N466 C462 1.376 1_554 S
N466 C465 1.374 . S
N466 Co467 2.008 . S
Co467 N466 2.008 . S
Co467 N468 1.995 . S
Co467 N473 2.008 . S
Co467 N478 1.995 . S
Co467 N483 2.282 1_554 S
Co467 N489 2.282 . S
N468 Co467 1.995 . S
N468 C469 1.376 . S
N468 C472 1.383 . S
C469 N468 1.376 . S
C469 C470 1.446 . S
C469 C499 1.391 . S
C470 C469 1.446 . S
C470 C471 1.339 . S
C470 H505 0.949 . S
C471 C470 1.339 . S
C471 C472 1.439 . S
C471 H506 0.950 . S
C472 N468 1.383 . S
C472 C471 1.439 . S
C472 C501 1.392 . S
N473 Co467 2.008 . S
N473 C474 1.376 . S
N473 C477 1.374 . S
C474 N473 1.376 . S
C474 C475 1.443 . S
C474 C501 1.389 . S
C475 C474 1.443 . S
C475 C476 1.340 . S
C475 H507 0.951 . S
C476 C475 1.340 . S
C476 C477 1.439 . S
C476 H508 0.950 . S
C477 N473 1.374 . S
C477 C476 1.439 . S
C477 C502 1.395 . S
N478 Co467 1.995 . S
N478 C479 1.376 . S
N478 C482 1.383 1_554 S
C479 N478 1.376 . S
C479 C480 1.446 1_554 S
C479 C502 1.391 . S
C480 C479 1.446 1_556 S
C480 C481 1.339 . S
C480 H509 0.949 . S
C481 C480 1.339 . S
C481 C482 1.439 . S
C481 H510 0.950 . S
C482 N478 1.383 1_556 S
C482 C481 1.439 . S
C482 C500 1.392 . S
N483 Co467 2.282 1_556 S
N483 C486 1.332 . S
N483 C488 1.332 . S
C484 C485 1.386 . S
C484 C487 1.388 . S
C485 C484 1.386 . S
C485 C486 1.382 . S
C485 H511 0.950 . S
C486 N483 1.332 . S
C486 C485 1.382 . S
C486 H497 0.952 . S
C487 C484 1.388 . S
C487 C488 1.382 . S
C487 H512 0.950 . S
C488 N483 1.332 . S
C488 C487 1.382 . S
C488 H498 0.948 1_556 S
N489 Co467 2.282 . S
N489 C493 1.332 . S
N489 C494 1.332 . S
C490 C491 1.388 . S
C490 C494 1.382 . S
C490 H513 0.950 . S
C491 C490 1.388 . S
C491 C492 1.386 . S
C492 C491 1.386 . S
C492 C493 1.382 . S
C492 H514 0.950 . S
C493 N489 1.332 . S
C493 C492 1.382 . S
C493 H495 0.952 . S
C494 N489 1.332 . S
C494 C490 1.382 . S
C494 H496 0.948 . S
H495 C493 0.952 . S
H496 C494 0.948 . S
H497 C486 0.952 . S
H498 C488 0.948 1_554 S
C499 C465 1.395 . S
C499 C469 1.391 . S
C500 C462 1.389 . S
C500 C482 1.392 . S
C501 C472 1.392 . S
C501 C474 1.389 . S
C502 C477 1.395 . S
C502 C479 1.391 . S
H503 C463 0.951 . S
H504 C464 0.950 . S
H505 C470 0.949 . S
H506 C471 0.950 . S
H507 C475 0.951 . S
H508 C476 0.950 . S
H509 C480 0.949 . S
H510 C481 0.950 . S
H511 C485 0.950 . S
H512 C487 0.950 . S
H513 C490 0.950 . S
H514 C492 0.950 . S
C515 C516 1.443 . S
C515 N519 1.376 . S
C515 C553 1.389 . S
C516 C515 1.443 . S
C516 C517 1.340 . S
C516 H556 0.951 . S
C517 C516 1.340 . S
C517 C518 1.439 . S
C517 H557 0.950 . S
C518 C517 1.439 . S
C518 N519 1.374 . S
C518 C552 1.395 1_554 S
N519 C515 1.376 . S
N519 C518 1.374 . S
N519 Co520 2.008 . S
Co520 N519 2.008 . S
Co520 N521 1.995 1_554 S
Co520 N526 2.008 1_554 S
Co520 N531 1.995 . S
Co520 N536 2.282 . S
Co520 N542 2.282 1_554 S
N521 Co520 1.995 1_556 S
N521 C522 1.376 . S
N521 C525 1.383 . S
C522 N521 1.376 . S
C522 C523 1.446 . S
C522 C552 1.391 . S
C523 C522 1.446 . S
C523 C524 1.339 . S
C523 H558 0.949 . S
C524 C523 1.339 . S
C524 C525 1.439 . S
C524 H559 0.950 . S
C525 N521 1.383 . S
C525 C524 1.439 . S
C525 C554 1.392 . S
N526 Co520 2.008 1_556 S
N526 C527 1.376 . S
N526 C530 1.374 1_556 S
C527 N526 1.376 . S
C527 C528 1.443 . S
C527 C554 1.389 . S
C528 C527 1.443 . S
C528 C529 1.340 . S
C528 H560 0.951 . S
C529 C528 1.340 . S
C529 C530 1.439 1_556 S
C529 H561 0.950 . S
C530 N526 1.374 1_554 S
C530 C529 1.439 1_554 S
C530 C555 1.395 . S
N531 Co520 1.995 . S
N531 C532 1.376 . S
N531 C535 1.383 . S
C532 N531 1.376 . S
C532 C533 1.446 . S
C532 C555 1.391 . S
C533 C532 1.446 . S
C533 C534 1.339 . S
C533 H562 0.949 . S
C534 C533 1.339 . S
C534 C535 1.439 . S
C534 H563 0.950 . S
C535 N531 1.383 . S
C535 C534 1.439 . S
C535 C553 1.392 . S
N536 Co520 2.282 . S
N536 C539 1.332 . S
N536 C541 1.332 . S
C537 C538 1.386 . S
C537 C540 1.388 . S
C538 C537 1.386 . S
C538 C539 1.382 . S
C538 H564 0.950 . S
C539 N536 1.332 . S
C539 C538 1.382 . S
C539 H550 0.952 . S
C540 C537 1.388 . S
C540 C541 1.382 . S
C540 H565 0.950 . S
C541 N536 1.332 . S
C541 C540 1.382 . S
C541 H551 0.948 . S
N542 Co520 2.282 1_556 S
N542 C546 1.332 . S
N542 C547 1.332 . S
C543 C544 1.388 . S
C543 C547 1.382 . S
C543 H566 0.950 . S
C544 C543 1.388 . S
C544 C545 1.386 . S
C545 C544 1.386 . S
C545 C546 1.382 . S
C545 H567 0.950 . S
C546 N542 1.332 . S
C546 C545 1.382 . S
C546 H548 0.952 . S
C547 N542 1.332 . S
C547 C543 1.382 . S
C547 H549 0.948 . S
H548 C546 0.952 . S
H549 C547 0.948 . S
H550 C539 0.952 . S
H551 C541 0.948 . S
C552 C518 1.395 1_556 S
C552 C522 1.391 . S
C553 C515 1.389 . S
C553 C535 1.392 . S
C554 C525 1.392 . S
C554 C527 1.389 . S
C555 C530 1.395 . S
C555 C532 1.391 . S
H556 C516 0.951 . S
H557 C517 0.950 . S
H558 C523 0.949 . S
H559 C524 0.950 . S
H560 C528 0.951 . S
H561 C529 0.950 . S
H562 C533 0.949 . S
H563 C534 0.950 . S
H564 C538 0.950 . S
H565 C540 0.950 . S
H566 C543 0.950 . S
H567 C545 0.950 . S
C568 C569 1.363 . S
C568 C574 1.379 . S
C568 N576 1.356 . S
C569 C568 1.363 . S
C569 C575 1.363 . S
C570 C571 1.363 . S
C570 C575 1.379 . S
C570 N577 1.356 . S
C571 C570 1.363 . S
C571 C574 1.363 . S
N572 C574 1.356 . S
N572 H584 0.984 . S
N572 H585 0.985 . S
N573 C575 1.356 . S
N573 H578 0.984 . S
N573 H579 0.985 . S
C574 C568 1.379 . S
C574 C571 1.363 . S
C574 N572 1.356 . S
C575 C569 1.363 . S
C575 C570 1.379 . S
C575 N573 1.356 . S
N576 C568 1.356 . S
N576 H582 0.984 . S
N576 H583 0.984 . S
N577 C570 1.356 . S
N577 H580 0.984 . S
N577 H581 0.985 . S
H578 N573 0.984 . S
H579 N573 0.985 . S
H580 N577 0.984 . S
H581 N577 0.985 . S
H582 N576 0.984 . S
H583 N576 0.984 . S
H584 N572 0.984 . S
H585 N572 0.985 . S
C586 C587 1.363 . S
C586 C592 1.379 . S
C586 N594 1.356 . S
C587 C586 1.363 . S
C587 C593 1.363 . S
C588 C589 1.363 . S
C588 C593 1.379 . S
C588 N595 1.356 . S
C589 C588 1.363 . S
C589 C592 1.363 . S
N590 C592 1.356 . S
N590 H602 0.984 . S
N590 H603 0.985 . S
N591 C593 1.356 . S
N591 H596 0.984 . S
N591 H597 0.985 . S
C592 C586 1.379 . S
C592 C589 1.363 . S
C592 N590 1.356 . S
C593 C587 1.363 . S
C593 C588 1.379 . S
C593 N591 1.356 . S
N594 C586 1.356 . S
N594 H600 0.984 . S
N594 H601 0.984 . S
N595 C588 1.356 . S
N595 H598 0.984 . S
N595 H599 0.985 . S
H596 N591 0.984 . S
H597 N591 0.985 . S
H598 N595 0.984 . S
H599 N595 0.985 . S
H600 N594 0.984 . S
H601 N594 0.984 . S
H602 N590 0.984 . S
H603 N590 0.985 . S
C604 C605 1.363 . S
C604 C610 1.379 . S
C604 N612 1.356 . S
C605 C604 1.363 . S
C605 C611 1.363 . S
C606 C607 1.363 . S
C606 C611 1.379 . S
C606 N613 1.356 . S
C607 C606 1.363 . S
C607 C610 1.363 . S
N608 C610 1.356 . S
N608 H620 0.984 . S
N608 H621 0.985 . S
N609 C611 1.356 . S
N609 H614 0.984 . S
N609 H615 0.985 . S
C610 C604 1.379 . S
C610 C607 1.363 . S
C610 N608 1.356 . S
C611 C605 1.363 . S
C611 C606 1.379 . S
C611 N609 1.356 . S
N612 C604 1.356 . S
N612 H618 0.984 . S
N612 H619 0.984 . S
N613 C606 1.356 . S
N613 H616 0.984 . S
N613 H617 0.985 . S
H614 N609 0.984 . S
H615 N609 0.985 . S
H616 N613 0.984 . S
H617 N613 0.985 . S
H618 N612 0.984 . S
H619 N612 0.984 . S
H620 N608 0.984 . S
H621 N608 0.985 . S
C622 C623 1.363 . S
C622 C628 1.379 . S
C622 N630 1.356 . S
C623 C622 1.363 . S
C623 C629 1.363 . S
C624 C625 1.363 . S
C624 C629 1.379 . S
C624 N631 1.356 . S
C625 C624 1.363 . S
C625 C628 1.363 . S
N626 C628 1.356 . S
N626 H638 0.984 . S
N626 H639 0.985 . S
N627 C629 1.356 . S
N627 H632 0.984 . S
N627 H633 0.985 . S
C628 C622 1.379 . S
C628 C625 1.363 . S
C628 N626 1.356 . S
C629 C623 1.363 . S
C629 C624 1.379 . S
C629 N627 1.356 . S
N630 C622 1.356 . S
N630 H636 0.984 . S
N630 H637 0.984 . S
N631 C624 1.356 . S
N631 H634 0.984 . S
N631 H635 0.985 . S
H632 N627 0.984 . S
H633 N627 0.985 . S
H634 N631 0.984 . S
H635 N631 0.985 . S
H636 N630 0.984 . S
H637 N630 0.984 . S
H638 N626 0.984 . S
H639 N626 0.985 . S
C640 C641 1.363 . S
C640 C646 1.379 . S
C640 N648 1.356 . S
C641 C640 1.363 . S
C641 C647 1.363 . S
C642 C643 1.363 . S
C642 C647 1.379 . S
C642 N649 1.356 . S
C643 C642 1.363 . S
C643 C646 1.363 . S
N644 C646 1.356 . S
N644 H656 0.984 . S
N644 H657 0.985 . S
N645 C647 1.356 . S
N645 H650 0.984 . S
N645 H651 0.985 . S
C646 C640 1.379 . S
C646 C643 1.363 . S
C646 N644 1.356 . S
C647 C641 1.363 . S
C647 C642 1.379 . S
C647 N645 1.356 . S
N648 C640 1.356 . S
N648 H654 0.984 . S
N648 H655 0.984 . S
N649 C642 1.356 . S
N649 H652 0.984 . S
N649 H653 0.985 . S
H650 N645 0.984 . S
H651 N645 0.985 . S
H652 N649 0.984 . S
H653 N649 0.985 . S
H654 N648 0.984 . S
H655 N648 0.984 . S
H656 N644 0.984 . S
H657 N644 0.985 . S
C658 C659 1.363 . S
C658 C664 1.379 . S
C658 N666 1.356 . S
C659 C658 1.363 . S
C659 C665 1.363 . S
C660 C661 1.363 . S
C660 C665 1.379 . S
C660 N667 1.356 . S
C661 C660 1.363 . S
C661 C664 1.363 . S
N662 C664 1.356 . S
N662 H674 0.984 . S
N662 H675 0.985 . S
N663 C665 1.356 . S
N663 H668 0.984 . S
N663 H669 0.985 . S
C664 C658 1.379 . S
C664 C661 1.363 . S
C664 N662 1.356 . S
C665 C659 1.363 . S
C665 C660 1.379 . S
C665 N663 1.356 . S
N666 C658 1.356 . S
N666 H672 0.984 . S
N666 H673 0.984 . S
N667 C660 1.356 . S
N667 H670 0.984 . S
N667 H671 0.985 . S
H668 N663 0.984 . S
H669 N663 0.985 . S
H670 N667 0.984 . S
H671 N667 0.985 . S
H672 N666 0.984 . S
H673 N666 0.984 . S
H674 N662 0.984 . S
H675 N662 0.985 . S
C676 C677 1.363 . S
C676 C682 1.379 . S
C676 N684 1.356 . S
C677 C676 1.363 . S
C677 C683 1.363 . S
C678 C679 1.363 . S
C678 C683 1.379 . S
C678 N685 1.356 . S
C679 C678 1.363 . S
C679 C682 1.363 . S
N680 C682 1.356 . S
N680 H692 0.984 . S
N680 H693 0.985 . S
N681 C683 1.356 . S
N681 H686 0.984 . S
N681 H687 0.985 . S
C682 C676 1.379 . S
C682 C679 1.363 . S
C682 N680 1.356 . S
C683 C677 1.363 . S
C683 C678 1.379 . S
C683 N681 1.356 . S
N684 C676 1.356 . S
N684 H690 0.984 . S
N684 H691 0.984 . S
N685 C678 1.356 . S
N685 H688 0.984 . S
N685 H689 0.985 . S
H686 N681 0.984 . S
H687 N681 0.985 . S
H688 N685 0.984 . S
H689 N685 0.985 . S
H690 N684 0.984 . S
H691 N684 0.984 . S
H692 N680 0.984 . S
H693 N680 0.985 . S
C694 C695 1.363 . S
C694 C700 1.379 . S
C694 N702 1.356 . S
C695 C694 1.363 . S
C695 C701 1.363 . S
C696 C697 1.363 . S
C696 C701 1.379 . S
C696 N703 1.356 . S
C697 C696 1.363 . S
C697 C700 1.363 . S
N698 C700 1.356 . S
N698 H710 0.984 . S
N698 H711 0.985 . S
N699 C701 1.356 . S
N699 H704 0.984 . S
N699 H705 0.985 . S
C700 C694 1.379 . S
C700 C697 1.363 . S
C700 N698 1.356 . S
C701 C695 1.363 . S
C701 C696 1.379 . S
C701 N699 1.356 . S
N702 C694 1.356 . S
N702 H708 0.984 . S
N702 H709 0.984 . S
N703 C696 1.356 . S
N703 H706 0.984 . S
N703 H707 0.985 . S
H704 N699 0.984 . S
H705 N699 0.985 . S
H706 N703 0.984 . S
H707 N703 0.985 . S
H708 N702 0.984 . S
H709 N702 0.984 . S
H710 N698 0.984 . S
H711 N698 0.985 . S
C712 C713 1.363 . S
C712 C718 1.379 . S
C712 N720 1.356 . S
C713 C712 1.363 . S
C713 C719 1.363 . S
C714 C715 1.363 . S
C714 C719 1.379 . S
C714 N721 1.356 . S
C715 C714 1.363 . S
C715 C718 1.363 . S
N716 C718 1.356 . S
N716 H728 0.984 . S
N716 H729 0.985 . S
N717 C719 1.356 . S
N717 H722 0.984 . S
N717 H723 0.985 . S
C718 C712 1.379 . S
C718 C715 1.363 . S
C718 N716 1.356 . S
C719 C713 1.363 . S
C719 C714 1.379 . S
C719 N717 1.356 . S
N720 C712 1.356 . S
N720 H726 0.984 . S
N720 H727 0.984 . S
N721 C714 1.356 . S
N721 H724 0.984 . S
N721 H725 0.985 . S
H722 N717 0.984 . S
H723 N717 0.985 . S
H724 N721 0.984 . S
H725 N721 0.985 . S
H726 N720 0.984 . S
H727 N720 0.984 . S
H728 N716 0.984 . S
H729 N716 0.985 . S
C730 C731 1.363 . S
C730 C736 1.379 . S
C730 N738 1.356 . S
C731 C730 1.363 . S
C731 C737 1.363 . S
C732 C733 1.363 . S
C732 C737 1.379 . S
C732 N739 1.356 . S
C733 C732 1.363 . S
C733 C736 1.363 . S
N734 C736 1.356 . S
N734 H746 0.984 . S
N734 H747 0.985 . S
N735 C737 1.356 . S
N735 H740 0.984 . S
N735 H741 0.985 . S
C736 C730 1.379 . S
C736 C733 1.363 . S
C736 N734 1.356 . S
C737 C731 1.363 . S
C737 C732 1.379 . S
C737 N735 1.356 . S
N738 C730 1.356 . S
N738 H744 0.984 . S
N738 H745 0.984 . S
N739 C732 1.356 . S
N739 H742 0.984 . S
N739 H743 0.985 . S
H740 N735 0.984 . S
H741 N735 0.985 . S
H742 N739 0.984 . S
H743 N739 0.985 . S
H744 N738 0.984 . S
H745 N738 0.984 . S
H746 N734 0.984 . S
H747 N734 0.985 . S
C748 C749 1.363 . S
C748 C754 1.379 . S
C748 N756 1.356 . S
C749 C748 1.363 . S
C749 C755 1.363 . S
C750 C751 1.363 . S
C750 C755 1.379 . S
C750 N757 1.356 . S
C751 C750 1.363 . S
C751 C754 1.363 . S
N752 C754 1.356 . S
N752 H764 0.984 . S
N752 H765 0.985 . S
N753 C755 1.356 . S
N753 H758 0.984 . S
N753 H759 0.985 . S
C754 C748 1.379 . S
C754 C751 1.363 . S
C754 N752 1.356 . S
C755 C749 1.363 . S
C755 C750 1.379 . S
C755 N753 1.356 . S
N756 C748 1.356 . S
N756 H762 0.984 . S
N756 H763 0.984 . S
N757 C750 1.356 . S
N757 H760 0.984 . S
N757 H761 0.985 . S
H758 N753 0.984 . S
H759 N753 0.985 . S
H760 N757 0.984 . S
H761 N757 0.985 . S
H762 N756 0.984 . S
H763 N756 0.984 . S
H764 N752 0.984 . S
H765 N752 0.985 . S
C766 C767 1.363 . S
C766 C772 1.379 . S
C766 N774 1.356 . S
C767 C766 1.363 . S
C767 C773 1.363 . S
C768 C769 1.363 . S
C768 C773 1.379 . S
C768 N775 1.356 . S
C769 C768 1.363 . S
C769 C772 1.363 . S
N770 C772 1.356 . S
N770 H782 0.984 . S
N770 H783 0.985 . S
N771 C773 1.356 . S
N771 H776 0.984 . S
N771 H777 0.985 . S
C772 C766 1.379 . S
C772 C769 1.363 . S
C772 N770 1.356 . S
C773 C767 1.363 . S
C773 C768 1.379 . S
C773 N771 1.356 . S
N774 C766 1.356 . S
N774 H780 0.984 . S
N774 H781 0.984 . S
N775 C768 1.356 . S
N775 H778 0.984 . S
N775 H779 0.985 . S
H776 N771 0.984 . S
H777 N771 0.985 . S
H778 N775 0.984 . S
H779 N775 0.985 . S
H780 N774 0.984 . S
H781 N774 0.984 . S
H782 N770 0.984 . S
H783 N770 0.985 . S
C784 C785 1.363 . S
C784 C790 1.379 . S
C784 N792 1.356 . S
C785 C784 1.363 . S
C785 C791 1.363 . S
C786 C787 1.363 . S
C786 C791 1.379 . S
C786 N793 1.356 . S
C787 C786 1.363 . S
C787 C790 1.363 . S
N788 C790 1.356 . S
N788 H800 0.984 . S
N788 H801 0.985 . S
N789 C791 1.356 . S
N789 H794 0.984 . S
N789 H795 0.985 . S
C790 C784 1.379 . S
C790 C787 1.363 . S
C790 N788 1.356 . S
C791 C785 1.363 . S
C791 C786 1.379 . S
C791 N789 1.356 . S
N792 C784 1.356 . S
N792 H798 0.984 . S
N792 H799 0.984 . S
N793 C786 1.356 . S
N793 H796 0.984 . S
N793 H797 0.985 . S
H794 N789 0.984 . S
H795 N789 0.985 . S
H796 N793 0.984 . S
H797 N793 0.985 . S
H798 N792 0.984 . S
H799 N792 0.984 . S
H800 N788 0.984 . S
H801 N788 0.985 . S
C802 C803 1.363 . S
C802 C808 1.379 . S
C802 N810 1.356 . S
C803 C802 1.363 . S
C803 C809 1.363 . S
C804 C805 1.363 . S
C804 C809 1.379 . S
C804 N811 1.356 . S
C805 C804 1.363 . S
C805 C808 1.363 . S
N806 C808 1.356 . S
N806 H818 0.984 . S
N806 H819 0.985 . S
N807 C809 1.356 . S
N807 H812 0.984 . S
N807 H813 0.985 . S
C808 C802 1.379 . S
C808 C805 1.363 . S
C808 N806 1.356 . S
C809 C803 1.363 . S
C809 C804 1.379 . S
C809 N807 1.356 . S
N810 C802 1.356 . S
N810 H816 0.984 . S
N810 H817 0.984 . S
N811 C804 1.356 . S
N811 H814 0.984 . S
N811 H815 0.985 . S
H812 N807 0.984 . S
H813 N807 0.985 . S
H814 N811 0.984 . S
H815 N811 0.985 . S
H816 N810 0.984 . S
H817 N810 0.984 . S
H818 N806 0.984 . S
H819 N806 0.985 . S
C820 C821 1.363 . S
C820 C826 1.379 . S
C820 N828 1.356 . S
C821 C820 1.363 . S
C821 C827 1.363 . S
C822 C823 1.363 . S
C822 C827 1.379 . S
C822 N829 1.356 . S
C823 C822 1.363 . S
C823 C826 1.363 . S
N824 C826 1.356 . S
N824 H836 0.984 . S
N824 H837 0.985 . S
N825 C827 1.356 . S
N825 H830 0.984 . S
N825 H831 0.985 . S
C826 C820 1.379 . S
C826 C823 1.363 . S
C826 N824 1.356 . S
C827 C821 1.363 . S
C827 C822 1.379 . S
C827 N825 1.356 . S
N828 C820 1.356 . S
N828 H834 0.984 . S
N828 H835 0.984 . S
N829 C822 1.356 . S
N829 H832 0.984 . S
N829 H833 0.985 . S
H830 N825 0.984 . S
H831 N825 0.985 . S
H832 N829 0.984 . S
H833 N829 0.985 . S
H834 N828 0.984 . S
H835 N828 0.984 . S
H836 N824 0.984 . S
H837 N824 0.985 . S
C838 C839 1.363 . S
C838 C844 1.379 . S
C838 N846 1.356 . S
C839 C838 1.363 . S
C839 C845 1.363 . S
C840 C841 1.363 . S
C840 C845 1.379 . S
C840 N847 1.356 . S
C841 C840 1.363 . S
C841 C844 1.363 . S
N842 C844 1.356 . S
N842 H854 0.984 . S
N842 H855 0.985 . S
N843 C845 1.356 . S
N843 H848 0.984 . S
N843 H849 0.985 . S
C844 C838 1.379 . S
C844 C841 1.363 . S
C844 N842 1.356 . S
C845 C839 1.363 . S
C845 C840 1.379 . S
C845 N843 1.356 . S
N846 C838 1.356 . S
N846 H852 0.984 . S
N846 H853 0.984 . S
N847 C840 1.356 . S
N847 H850 0.984 . S
N847 H851 0.985 . S
H848 N843 0.984 . S
H849 N843 0.985 . S
H850 N847 0.984 . S
H851 N847 0.985 . S
H852 N846 0.984 . S
H853 N846 0.984 . S
H854 N842 0.984 . S
H855 N842 0.985 . S
C856 C857 1.363 . S
C856 C862 1.379 . S
C856 N864 1.356 . S
C857 C856 1.363 . S
C857 C863 1.363 . S
C858 C859 1.363 . S
C858 C863 1.379 . S
C858 N865 1.356 . S
C859 C858 1.363 . S
C859 C862 1.363 . S
N860 C862 1.356 . S
N860 H872 0.984 . S
N860 H873 0.985 . S
N861 C863 1.356 . S
N861 H866 0.984 . S
N861 H867 0.985 . S
C862 C856 1.379 . S
C862 C859 1.363 . S
C862 N860 1.356 . S
C863 C857 1.363 . S
C863 C858 1.379 . S
C863 N861 1.356 . S
N864 C856 1.356 . S
N864 H870 0.984 . S
N864 H871 0.984 . S
N865 C858 1.356 . S
N865 H868 0.984 . S
N865 H869 0.985 . S
H866 N861 0.984 . S
H867 N861 0.985 . S
H868 N865 0.984 . S
H869 N865 0.985 . S
H870 N864 0.984 . S
H871 N864 0.984 . S
H872 N860 0.984 . S
H873 N860 0.985 . S
C874 C875 1.363 . S
C874 C880 1.379 . S
C874 N882 1.356 . S
C875 C874 1.363 . S
C875 C881 1.363 . S
C876 C877 1.363 . S
C876 C881 1.379 . S
C876 N883 1.356 . S
C877 C876 1.363 . S
C877 C880 1.363 . S
N878 C880 1.356 . S
N878 H890 0.984 . S
N878 H891 0.985 . S
N879 C881 1.356 . S
N879 H884 0.984 . S
N879 H885 0.985 . S
C880 C874 1.379 . S
C880 C877 1.363 . S
C880 N878 1.356 . S
C881 C875 1.363 . S
C881 C876 1.379 . S
C881 N879 1.356 . S
N882 C874 1.356 . S
N882 H888 0.984 . S
N882 H889 0.984 . S
N883 C876 1.356 . S
N883 H886 0.984 . S
N883 H887 0.985 . S
H884 N879 0.984 . S
H885 N879 0.985 . S
H886 N883 0.984 . S
H887 N883 0.985 . S
H888 N882 0.984 . S
H889 N882 0.984 . S
H890 N878 0.984 . S
H891 N878 0.985 . S
C892 C893 1.363 . S
C892 C898 1.379 . S
C892 N900 1.356 . S
C893 C892 1.363 . S
C893 C899 1.363 . S
C894 C895 1.363 . S
C894 C899 1.379 . S
C894 N901 1.356 1_556 S
C895 C894 1.363 . S
C895 C898 1.363 . S
N896 C898 1.356 . S
N896 H908 0.984 . S
N896 H909 0.985 . S
N897 C899 1.356 . S
N897 H902 0.984 . S
N897 H903 0.985 . S
C898 C892 1.379 . S
C898 C895 1.363 . S
C898 N896 1.356 . S
C899 C893 1.363 . S
C899 C894 1.379 . S
C899 N897 1.356 . S
N900 C892 1.356 . S
N900 H906 0.984 . S
N900 H907 0.984 . S
N901 C894 1.356 1_554 S
N901 H904 0.984 . S
N901 H905 0.985 . S
H902 N897 0.984 . S
H903 N897 0.985 . S
H904 N901 0.984 . S
H905 N901 0.985 . S
H906 N900 0.984 . S
H907 N900 0.984 . S
H908 N896 0.984 . S
H909 N896 0.985 . S
C910 C911 1.363 . S
C910 C916 1.379 . S
C910 N918 1.356 . S
C911 C910 1.363 . S
C911 C917 1.363 . S
C912 C913 1.363 . S
C912 C917 1.379 . S
C912 N919 1.356 . S
C913 C912 1.363 . S
C913 C916 1.363 . S
N914 C916 1.356 . S
N914 H926 0.984 . S
N914 H927 0.985 . S
N915 C917 1.356 . S
N915 H920 0.984 . S
N915 H921 0.985 . S
C916 C910 1.379 . S
C916 C913 1.363 . S
C916 N914 1.356 . S
C917 C911 1.363 . S
C917 C912 1.379 . S
C917 N915 1.356 . S
N918 C910 1.356 . S
N918 H924 0.984 . S
N918 H925 0.984 . S
N919 C912 1.356 . S
N919 H922 0.984 . S
N919 H923 0.985 . S
H920 N915 0.984 . S
H921 N915 0.985 . S
H922 N919 0.984 . S
H923 N919 0.985 . S
H924 N918 0.984 . S
H925 N918 0.984 . S
H926 N914 0.984 . S
H927 N914 0.985 . S
C928 C929 1.363 . S
C928 C934 1.379 . S
C928 N936 1.356 . S
C929 C928 1.363 . S
C929 C935 1.363 . S
C930 C931 1.363 . S
C930 C935 1.379 . S
C930 N937 1.356 . S
C931 C930 1.363 . S
C931 C934 1.363 . S
N932 C934 1.356 . S
N932 H944 0.984 . S
N932 H945 0.985 . S
N933 C935 1.356 . S
N933 H938 0.984 . S
N933 H939 0.985 . S
C934 C928 1.379 . S
C934 C931 1.363 . S
C934 N932 1.356 . S
C935 C929 1.363 . S
C935 C930 1.379 . S
C935 N933 1.356 . S
N936 C928 1.356 . S
N936 H942 0.984 . S
N936 H943 0.984 . S
N937 C930 1.356 . S
N937 H940 0.984 . S
N937 H941 0.985 . S
H938 N933 0.984 . S
H939 N933 0.985 . S
H940 N937 0.984 . S
H941 N937 0.985 . S
H942 N936 0.984 . S
H943 N936 0.984 . S
H944 N932 0.984 . S
H945 N932 0.985 . S
C946 C947 1.363 . S
C946 C952 1.379 . S
C946 N954 1.356 . S
C947 C946 1.363 . S
C947 C953 1.363 . S
C948 C949 1.363 . S
C948 C953 1.379 . S
C948 N955 1.356 . S
C949 C948 1.363 . S
C949 C952 1.363 . S
N950 C952 1.356 . S
N950 H962 0.984 . S
N950 H963 0.985 . S
N951 C953 1.356 . S
N951 H956 0.984 . S
N951 H957 0.985 . S
C952 C946 1.379 . S
C952 C949 1.363 . S
C952 N950 1.356 . S
C953 C947 1.363 . S
C953 C948 1.379 . S
C953 N951 1.356 . S
N954 C946 1.356 . S
N954 H960 0.984 . S
N954 H961 0.984 . S
N955 C948 1.356 . S
N955 H958 0.984 . S
N955 H959 0.985 . S
H956 N951 0.984 . S
H957 N951 0.985 . S
H958 N955 0.984 . S
H959 N955 0.985 . S
H960 N954 0.984 . S
H961 N954 0.984 . S
H962 N950 0.984 . S
H963 N950 0.985 . S
C964 C965 1.363 . S
C964 C970 1.379 . S
C964 N972 1.356 . S
C965 C964 1.363 . S
C965 C971 1.363 . S
C966 C967 1.363 . S
C966 C971 1.379 . S
C966 N973 1.356 . S
C967 C966 1.363 . S
C967 C970 1.363 . S
N968 C970 1.356 . S
N968 H980 0.984 . S
N968 H981 0.985 . S
N969 C971 1.356 . S
N969 H974 0.984 . S
N969 H975 0.985 . S
C970 C964 1.379 . S
C970 C967 1.363 . S
C970 N968 1.356 . S
C971 C965 1.363 . S
C971 C966 1.379 . S
C971 N969 1.356 . S
N972 C964 1.356 . S
N972 H978 0.984 . S
N972 H979 0.984 . S
N973 C966 1.356 . S
N973 H976 0.984 . S
N973 H977 0.985 . S
H974 N969 0.984 . S
H975 N969 0.985 . S
H976 N973 0.984 . S
H977 N973 0.985 . S
H978 N972 0.984 . S
H979 N972 0.984 . S
H980 N968 0.984 . S
H981 N968 0.985 . S
C982 C983 1.363 . S
C982 C988 1.379 . S
C982 N990 1.356 . S
C983 C982 1.363 . S
C983 C989 1.363 . S
C984 C985 1.363 . S
C984 C989 1.379 . S
C984 N991 1.356 . S
C985 C984 1.363 . S
C985 C988 1.363 . S
N986 C988 1.356 . S
N986 H998 0.984 . S
N986 H999 0.985 . S
N987 C989 1.356 . S
N987 H992 0.984 . S
N987 H993 0.985 . S
C988 C982 1.379 . S
C988 C985 1.363 . S
C988 N986 1.356 . S
C989 C983 1.363 . S
C989 C984 1.379 . S
C989 N987 1.356 . S
N990 C982 1.356 . S
N990 H996 0.984 . S
N990 H997 0.984 . S
N991 C984 1.356 . S
N991 H994 0.984 . S
N991 H995 0.985 . S
H992 N987 0.984 . S
H993 N987 0.985 . S
H994 N991 0.984 . S
H995 N991 0.985 . S
H996 N990 0.984 . S
H997 N990 0.984 . S
H998 N986 0.984 . S
H999 N986 0.985 . S
C1000 C1001 1.363 . S
C1000 C1006 1.379 . S
C1000 N1008 1.356 . S
C1001 C1000 1.363 . S
C1001 C1007 1.363 . S
C1002 C1003 1.363 . S
C1002 C1007 1.379 . S
C1002 N1009 1.356 . S
C1003 C1002 1.363 . S
C1003 C1006 1.363 . S
N1004 C1006 1.356 . S
N1004 H1016 0.984 . S
N1004 H1017 0.985 . S
N1005 C1007 1.356 . S
N1005 H1010 0.984 . S
N1005 H1011 0.985 . S
C1006 C1000 1.379 . S
C1006 C1003 1.363 . S
C1006 N1004 1.356 . S
C1007 C1001 1.363 . S
C1007 C1002 1.379 . S
C1007 N1005 1.356 . S
N1008 C1000 1.356 . S
N1008 H1014 0.984 . S
N1008 H1015 0.984 . S
N1009 C1002 1.356 . S
N1009 H1012 0.984 . S
N1009 H1013 0.985 . S
H1010 N1005 0.984 . S
H1011 N1005 0.985 . S
H1012 N1009 0.984 . S
H1013 N1009 0.985 . S
H1014 N1008 0.984 . S
H1015 N1008 0.984 . S
H1016 N1004 0.984 . S
H1017 N1004 0.985 . S
C1018 C1019 1.363 . S
C1018 C1024 1.379 . S
C1018 N1026 1.356 . S
C1019 C1018 1.363 . S
C1019 C1025 1.363 . S
C1020 C1021 1.363 . S
C1020 C1025 1.379 . S
C1020 N1027 1.356 . S
C1021 C1020 1.363 . S
C1021 C1024 1.363 . S
N1022 C1024 1.356 . S
N1022 H1034 0.984 . S
N1022 H1035 0.985 . S
N1023 C1025 1.356 . S
N1023 H1028 0.984 . S
N1023 H1029 0.985 . S
C1024 C1018 1.379 . S
C1024 C1021 1.363 . S
C1024 N1022 1.356 . S
C1025 C1019 1.363 . S
C1025 C1020 1.379 . S
C1025 N1023 1.356 . S
N1026 C1018 1.356 . S
N1026 H1032 0.984 . S
N1026 H1033 0.984 . S
N1027 C1020 1.356 . S
N1027 H1030 0.984 . S
N1027 H1031 0.985 . S
H1028 N1023 0.984 . S
H1029 N1023 0.985 . S
H1030 N1027 0.984 . S
H1031 N1027 0.985 . S
H1032 N1026 0.984 . S
H1033 N1026 0.984 . S
H1034 N1022 0.984 . S
H1035 N1022 0.985 . S
C1036 C1037 1.363 . S
C1036 C1042 1.379 . S
C1036 N1044 1.356 . S
C1037 C1036 1.363 . S
C1037 C1043 1.363 . S
C1038 C1039 1.363 . S
C1038 C1043 1.379 . S
C1038 N1045 1.356 . S
C1039 C1038 1.363 . S
C1039 C1042 1.363 . S
N1040 C1042 1.356 . S
N1040 H1052 0.984 . S
N1040 H1053 0.985 . S
N1041 C1043 1.356 . S
N1041 H1046 0.984 . S
N1041 H1047 0.985 . S
C1042 C1036 1.379 . S
C1042 C1039 1.363 . S
C1042 N1040 1.356 . S
C1043 C1037 1.363 . S
C1043 C1038 1.379 . S
C1043 N1041 1.356 . S
N1044 C1036 1.356 . S
N1044 H1050 0.984 . S
N1044 H1051 0.984 . S
N1045 C1038 1.356 . S
N1045 H1048 0.984 . S
N1045 H1049 0.985 . S
H1046 N1041 0.984 . S
H1047 N1041 0.985 . S
H1048 N1045 0.984 . S
H1049 N1045 0.985 . S
H1050 N1044 0.984 . S
H1051 N1044 0.984 . S
H1052 N1040 0.984 . S
H1053 N1040 0.985 . S
C1054 C1055 1.363 . S
C1054 C1060 1.379 . S
C1054 N1062 1.356 . S
C1055 C1054 1.363 . S
C1055 C1061 1.363 . S
C1056 C1057 1.363 . S
C1056 C1061 1.379 . S
C1056 N1063 1.356 . S
C1057 C1056 1.363 . S
C1057 C1060 1.363 . S
N1058 C1060 1.356 . S
N1058 H1070 0.984 . S
N1058 H1071 0.985 . S
N1059 C1061 1.356 . S
N1059 H1064 0.984 . S
N1059 H1065 0.985 . S
C1060 C1054 1.379 . S
C1060 C1057 1.363 . S
C1060 N1058 1.356 . S
C1061 C1055 1.363 . S
C1061 C1056 1.379 . S
C1061 N1059 1.356 . S
N1062 C1054 1.356 . S
N1062 H1068 0.984 . S
N1062 H1069 0.984 . S
N1063 C1056 1.356 . S
N1063 H1066 0.984 . S
N1063 H1067 0.985 . S
H1064 N1059 0.984 . S
H1065 N1059 0.985 . S
H1066 N1063 0.984 . S
H1067 N1063 0.985 . S
H1068 N1062 0.984 . S
H1069 N1062 0.984 . S
H1070 N1058 0.984 . S
H1071 N1058 0.985 . S
C1072 C1073 1.363 . S
C1072 C1078 1.379 . S
C1072 N1080 1.356 . S
C1073 C1072 1.363 . S
C1073 C1079 1.363 . S
C1074 C1075 1.363 . S
C1074 C1079 1.379 . S
C1074 N1081 1.356 . S
C1075 C1074 1.363 . S
C1075 C1078 1.363 . S
N1076 C1078 1.356 . S
N1076 H1088 0.984 . S
N1076 H1089 0.985 . S
N1077 C1079 1.356 . S
N1077 H1082 0.984 . S
N1077 H1083 0.985 . S
C1078 C1072 1.379 . S
C1078 C1075 1.363 . S
C1078 N1076 1.356 . S
C1079 C1073 1.363 . S
C1079 C1074 1.379 . S
C1079 N1077 1.356 . S
N1080 C1072 1.356 . S
N1080 H1086 0.984 . S
N1080 H1087 0.984 . S
N1081 C1074 1.356 . S
N1081 H1084 0.984 . S
N1081 H1085 0.985 . S
H1082 N1077 0.984 . S
H1083 N1077 0.985 . S
H1084 N1081 0.984 . S
H1085 N1081 0.985 . S
H1086 N1080 0.984 . S
H1087 N1080 0.984 . S
H1088 N1076 0.984 . S
H1089 N1076 0.985 . S
C1090 C1091 1.363 . S
C1090 C1096 1.379 . S
C1090 N1098 1.356 . S
C1091 C1090 1.363 . S
C1091 C1097 1.363 . S
C1092 C1093 1.363 . S
C1092 C1097 1.379 . S
C1092 N1099 1.356 . S
C1093 C1092 1.363 . S
C1093 C1096 1.363 . S
N1094 C1096 1.356 . S
N1094 H1106 0.984 . S
N1094 H1107 0.985 . S
N1095 C1097 1.356 . S
N1095 H1100 0.984 . S
N1095 H1101 0.985 . S
C1096 C1090 1.379 . S
C1096 C1093 1.363 . S
C1096 N1094 1.356 . S
C1097 C1091 1.363 . S
C1097 C1092 1.379 . S
C1097 N1095 1.356 . S
N1098 C1090 1.356 . S
N1098 H1104 0.984 . S
N1098 H1105 0.984 . S
N1099 C1092 1.356 . S
N1099 H1102 0.984 1_556 S
N1099 H1103 0.985 1_556 S
H1100 N1095 0.984 . S
H1101 N1095 0.985 . S
H1102 N1099 0.984 1_554 S
H1103 N1099 0.985 1_554 S
H1104 N1098 0.984 . S
H1105 N1098 0.984 . S
H1106 N1094 0.984 . S
H1107 N1094 0.985 . S
C1108 C1109 1.363 . S
C1108 C1114 1.379 . S
C1108 N1116 1.356 . S
C1109 C1108 1.363 . S
C1109 C1115 1.363 . S
C1110 C1111 1.363 . S
C1110 C1115 1.379 . S
C1110 N1117 1.356 . S
C1111 C1110 1.363 . S
C1111 C1114 1.363 . S
N1112 C1114 1.356 . S
N1112 H1124 0.984 . S
N1112 H1125 0.985 . S
N1113 C1115 1.356 . S
N1113 H1118 0.984 . S
N1113 H1119 0.985 . S
C1114 C1108 1.379 . S
C1114 C1111 1.363 . S
C1114 N1112 1.356 . S
C1115 C1109 1.363 . S
C1115 C1110 1.379 . S
C1115 N1113 1.356 . S
N1116 C1108 1.356 . S
N1116 H1122 0.984 . S
N1116 H1123 0.984 . S
N1117 C1110 1.356 . S
N1117 H1120 0.984 . S
N1117 H1121 0.985 . S
H1118 N1113 0.984 . S
H1119 N1113 0.985 . S
H1120 N1117 0.984 . S
H1121 N1117 0.985 . S
H1122 N1116 0.984 . S
H1123 N1116 0.984 . S
H1124 N1112 0.984 . S
H1125 N1112 0.985 . S
C1126 C1127 1.363 . S
C1126 C1132 1.379 . S
C1126 N1134 1.356 . S
C1127 C1126 1.363 . S
C1127 C1133 1.363 . S
C1128 C1129 1.363 . S
C1128 C1133 1.379 . S
C1128 N1135 1.356 . S
C1129 C1128 1.363 . S
C1129 C1132 1.363 . S
N1130 C1132 1.356 . S
N1130 H1142 0.984 . S
N1130 H1143 0.985 . S
N1131 C1133 1.356 . S
N1131 H1136 0.984 . S
N1131 H1137 0.985 . S
C1132 C1126 1.379 . S
C1132 C1129 1.363 . S
C1132 N1130 1.356 . S
C1133 C1127 1.363 . S
C1133 C1128 1.379 . S
C1133 N1131 1.356 . S
N1134 C1126 1.356 . S
N1134 H1140 0.984 . S
N1134 H1141 0.984 . S
N1135 C1128 1.356 . S
N1135 H1138 0.984 . S
N1135 H1139 0.985 . S
H1136 N1131 0.984 . S
H1137 N1131 0.985 . S
H1138 N1135 0.984 . S
H1139 N1135 0.985 . S
H1140 N1134 0.984 . S
H1141 N1134 0.984 . S
H1142 N1130 0.984 . S
H1143 N1130 0.985 . S
C571 C173 1.496 . S
C569 C7 1.422 . S
C589 C226 1.303 . S
C587 C32 1.254 . S
C607 C289 1.547 . S
C605 C44 1.498 . S
C625 C332 1.283 . S
C623 C62 1.230 . S
C641 C88 1.488 . S
C643 C288 1.550 . S
C661 C325 1.323 . S
C659 C106 1.274 . S
C679 C166 1.498 . S
C677 C124 1.422 . S
C697 C219 1.258 . S
C695 C140 1.205 . S
C715 C272 1.542 . S
C713 C142 1.446 . S
C733 C341 1.816 . S
C731 C86 1.746 . S
C751 C182 1.585 . S
C749 C104 1.515 . S
C769 C235 1.756 . S
C767 C122 1.676 . S
C787 C183 1.579 . S
C785 C34 1.500 . S
C805 C236 1.809 . S
C803 C43 1.731 . S
C823 C279 1.547 . S
C821 C61 1.451 . S
C841 C342 1.773 . S
C839 C8 1.691 . S
C859 C385 1.485 . S
C857 C133 1.403 . S
C875 C80 1.612 . S
C877 C438 1.680 . S
C893 C98 1.517 . S
C895 C500 1.563 . S
C911 C116 1.623 . S
C913 C554 1.683 . S
C929 C25 1.457 . S
C931 C501 1.520 . S
C947 C52 1.676 . S
C949 C553 1.738 . S
C965 C70 1.447 . S
C967 C378 1.517 . S
C985 C431 1.640 . S
C983 C14 1.566 . S
C1003 C491 1.513 . S
C1001 C16 1.420 . S
C1019 C26 1.310 . S
C1021 C537 1.383 . S
C1037 C50 1.538 . S
C1039 C394 1.604 . S
C1055 C68 1.298 . S
C1057 C447 1.362 . S
C1075 C395 1.552 . S
C1073 C79 1.469 . S
C1093 C448 1.411 . S
C1091 C97 1.353 . S
C1109 C115 1.468 . S
C1111 C484 1.561 . S
C1129 C544 1.337 . S
C1127 C134 1.262 . S
