# Generated by pormake.
# Topology zzz, (3,6)-cn, num edge types: 1
# Building blocks:
#     Node 0, Type 0, BuildingBlock: QEWDON_clean_linker_0, # of connection points: 3
#     Node 1, Type 0, BuildingBlock: QEWDON_clean_linker_0, # of connection points: 3
#     Node 2, Type 0, BuildingBlock: QEWDON_clean_linker_0, # of connection points: 3
#     Node 3, Type 0, BuildingBlock: QEWDON_clean_linker_0, # of connection points: 3
#     Node 4, Type 0, BuildingBlock: QEWDON_clean_linker_0, # of connection points: 3
#     Node 5, Type 0, BuildingBlock: QEWDON_clean_linker_0, # of connection points: 3
#     Node 6, Type 0, BuildingBlock: QEWDON_clean_linker_0, # of connection points: 3
#     Node 7, Type 0, BuildingBlock: QEWDON_clean_linker_0, # of connection points: 3
#     Node 8, Type 1, BuildingBlock: HISSIN_clean_sbu_0, # of connection points: 6
#     Node 9, Type 1, BuildingBlock: HISSIN_clean_sbu_0, # of connection points: 6
#     Node 10, Type 1, BuildingBlock: HISSIN_clean_sbu_0, # of connection points: 6
#     Node 11, Type 1, BuildingBlock: HISSIN_clean_sbu_0, # of connection points: 6
#     Edge 12, Type (0, 1), BuildingBlock: EZIPEK_clean_linker_0, # of connection points: 2
#     Edge 13, Type (0, 1), BuildingBlock: EZIPEK_clean_linker_0, # of connection points: 2
#     Edge 14, Type (0, 1), BuildingBlock: EZIPEK_clean_linker_0, # of connection points: 2
#     Edge 15, Type (0, 1), BuildingBlock: EZIPEK_clean_linker_0, # of connection points: 2
#     Edge 16, Type (0, 1), BuildingBlock: EZIPEK_clean_linker_0, # of connection points: 2
#     Edge 17, Type (0, 1), BuildingBlock: EZIPEK_clean_linker_0, # of connection points: 2
#     Edge 18, Type (0, 1), BuildingBlock: EZIPEK_clean_linker_0, # of connection points: 2
#     Edge 19, Type (0, 1), BuildingBlock: EZIPEK_clean_linker_0, # of connection points: 2
#     Edge 20, Type (0, 1), BuildingBlock: EZIPEK_clean_linker_0, # of connection points: 2
#     Edge 21, Type (0, 1), BuildingBlock: EZIPEK_clean_linker_0, # of connection points: 2
#     Edge 22, Type (0, 1), BuildingBlock: EZIPEK_clean_linker_0, # of connection points: 2
#     Edge 23, Type (0, 1), BuildingBlock: EZIPEK_clean_linker_0, # of connection points: 2
#     Edge 24, Type (0, 1), BuildingBlock: EZIPEK_clean_linker_0, # of connection points: 2
#     Edge 25, Type (0, 1), BuildingBlock: EZIPEK_clean_linker_0, # of connection points: 2
#     Edge 26, Type (0, 1), BuildingBlock: EZIPEK_clean_linker_0, # of connection points: 2
#     Edge 27, Type (0, 1), BuildingBlock: EZIPEK_clean_linker_0, # of connection points: 2
#     Edge 28, Type (0, 1), BuildingBlock: EZIPEK_clean_linker_0, # of connection points: 2
#     Edge 29, Type (0, 1), BuildingBlock: EZIPEK_clean_linker_0, # of connection points: 2
#     Edge 30, Type (0, 1), BuildingBlock: EZIPEK_clean_linker_0, # of connection points: 2
#     Edge 31, Type (0, 1), BuildingBlock: EZIPEK_clean_linker_0, # of connection points: 2
#     Edge 32, Type (0, 1), BuildingBlock: EZIPEK_clean_linker_0, # of connection points: 2
#     Edge 33, Type (0, 1), BuildingBlock: EZIPEK_clean_linker_0, # of connection points: 2
#     Edge 34, Type (0, 1), BuildingBlock: EZIPEK_clean_linker_0, # of connection points: 2
#     Edge 35, Type (0, 1), BuildingBlock: EZIPEK_clean_linker_0, # of connection points: 2
# Relax obj value: 0.257
# Max RMSD: 0.210
# Mean RMSD: 0.072
data_MOF--net-zzz--node1-HISSIN_clean_sbu_0--node2-QEWDON_clean_linker_0--edge1-EZIPEK_clean_linker_0
_symmetry_space_group_name_H-M    P1
_symmetry_Int_Tables_number       1
_symmetry_cell_setting            triclinic
loop_
_symmetry_equiv_pos_as_xyz
'x, y, z'
_cell_length_a     39.993173
_cell_length_b     39.880761
_cell_length_c     12.022183
_cell_angle_alpha  89.825646
_cell_angle_beta   91.832147
_cell_angle_gamma 90.515693
loop_
_atom_site_label
_atom_site_type_symbol
_atom_site_fract_x
_atom_site_fract_y
_atom_site_fract_z
_atom_type_partial_charge
H0 H 0.78332 0.51373 0.2304 0.0
C1 C 0.80108 0.5194 0.29757 0.0
C2 C 0.83236 0.5042 0.29513 0.0
C3 C 0.79435 0.54414 0.37694 0.0
H4 H 0.88118 0.49969 0.37326 0.0
C5 C 0.85694 0.51158 0.37699 0.0
C6 C 0.85129 0.53475 0.46126 0.0
C7 C 0.81974 0.55109 0.46125 0.0
C8 C 0.76305 0.56513 0.35993 0.0
H9 H 0.81548 0.56937 0.52543 0.0
C10 C 0.73415 0.5534 0.29732 0.0
C11 C 0.70818 0.57557 0.26229 0.0
C12 C 0.76352 0.5989 0.39374 0.0
H13 H 0.78481 0.60952 0.43923 0.0
C14 C 0.73732 0.62035 0.36395 0.0
H15 H 0.73204 0.52742 0.27225 0.0
C16 C 0.71034 0.60907 0.29742 0.0
H17 H 0.69109 0.62675 0.27235 0.0
H18 H 0.73849 0.64634 0.38965 0.0
H19 H 0.98379 0.77579 0.2534 0.0
C20 C 0.9944 0.79465 0.30869 0.0
C21 C 0.98077 0.82693 0.30616 0.0
C22 C 1.02194 0.78654 0.3786 0.0
H23 H 0.98296 0.87585 0.38496 0.0
C24 C 0.9931 0.85079 0.38381 0.0
C25 C 1.02018 0.84432 0.45641 0.0
C26 C 0.03479 0.8118 0.45401 0.0
C27 C 0.03518 0.75105 0.37377 0.0
H28 H 0.05598 0.80644 0.50926 0.0
C29 C 0.03461 0.73163 0.27294 0.0
C30 C 0.04247 0.6968 0.27429 0.0
C31 C 0.04516 0.73499 0.47329 0.0
H32 H 0.04553 0.74835 0.55158 0.0
C33 C 0.05293 0.70094 0.47464 0.0
H34 H 0.02772 0.74328 0.19414 0.0
C35 C 0.05112 0.6821 0.37694 0.0
H36 H 0.05637 0.65563 0.38062 0.0
H37 H 0.05973 0.68887 0.55275 0.0
H38 H 0.80869 0.97842 0.22693 0.0
C39 C 0.78896 0.98788 0.27729 0.0
C40 C 0.75908 0.96876 0.27973 0.0
C41 C 0.79458 1.01851 0.33402 0.0
H42 H 0.73174 0.9948 0.38849 0.0
C43 C 0.73311 0.97787 0.3485 0.0
C44 C 0.73652 1.01121 0.41585 0.0
C45 C 0.76922 0.03125 0.40472 0.0
C46 C 0.8289 0.03479 0.32276 0.0
H47 H 0.77296 0.05449 0.44981 0.0
C48 C 0.84744 0.03361 0.2218 0.0
C49 C 0.88198 0.04335 0.22011 0.0
C50 C 0.84529 0.04762 0.41855 0.0
H51 H 0.83264 0.04865 0.49675 0.0
C52 C 0.87892 0.05721 0.41726 0.0
H53 H 0.83537 1.02459 0.1456 0.0
C54 C 0.89707 0.05446 0.32049 0.0
H55 H 0.92332 0.0611 0.32351 0.0
H56 H 0.8913 0.06607 0.49308 0.0
H57 H 0.48817 0.79926 0.22198 0.0
C58 C 0.49918 0.7815 0.28045 0.0
C59 C 0.48544 0.74924 0.28384 0.0
C60 C 0.52697 0.79053 0.34875 0.0
H61 H 0.48633 0.70103 0.364 0.0
C62 C 0.49756 0.7259 0.36197 0.0
C63 C 0.52355 0.73407 0.43823 0.0
C64 C 0.53871 0.76654 0.43027 0.0
C65 C 0.54195 0.8254 0.33511 0.0
H66 H 0.55945 0.77274 0.48664 0.0
C67 C 0.53978 0.84336 0.23153 0.0
C68 C 0.55054 0.87732 0.22323 0.0
C69 C 0.55656 0.84211 0.4276 0.0
H70 H 0.55833 0.83007 0.50829 0.0
C71 C 0.56802 0.87522 0.41877 0.0
H72 H 0.52944 0.83139 0.15732 0.0
C73 C 0.56482 0.89272 0.31821 0.0
H74 H 0.57337 0.91855 0.31464 0.0
H75 H 0.57892 0.88767 0.49132 0.0
H76 H 0.32354 0.59295 0.23583 0.0
C77 C 0.30259 0.58052 0.19357 0.0
C78 C 0.27084 0.59461 0.19817 0.0
C79 C 0.30755 0.55047 0.13597 0.0
H80 H 0.21948 0.59148 0.13938 0.0
C81 C 0.24414 0.58046 0.13558 0.0
C82 C 0.24821 0.55194 0.07028 0.0
C83 C 0.28014 0.53642 0.07188 0.0
C84 C 0.34194 0.5354 0.14224 0.0
H85 H 0.28343 0.51364 0.02492 0.0
C86 C 0.36196 0.53614 0.24269 0.0
C87 C 0.39615 0.52692 0.24406 0.0
C88 C 0.35635 0.52342 0.04533 0.0
H89 H 0.34212 0.52282 0.96719 0.0
C90 C 0.38985 0.51365 0.04677 0.0
H91 H 0.35133 0.54485 0.31906 0.0
C92 C 0.40965 0.51576 0.14448 0.0
H93 H 0.4357 0.50862 0.14247 0.0
H94 H 0.40077 0.50502 0.97088 0.0
H95 H 1.00951 0.306 0.29053 0.0
C96 C 1.01908 0.28738 0.23455 0.0
C97 C 1.00486 0.25538 0.23517 0.0
C98 C 0.04417 0.29589 0.16051 0.0
H99 H 1.0036 0.20621 0.16264 0.0
C100 C 1.01529 0.23086 0.16109 0.0
C101 C 0.03956 0.23787 0.08254 0.0
C102 C 0.05412 0.27084 0.08229 0.0
C103 C 0.05554 0.33226 0.15882 0.0
H104 H 0.07249 0.27697 0.02107 0.0
C105 C 0.05807 0.3524 0.25783 0.0
C106 C 0.06123 0.38811 0.25264 0.0
C107 C 0.05869 0.34842 0.05591 0.0
H108 H 0.05648 0.33442 0.97895 0.0
C109 C 0.06247 0.38317 0.05002 0.0
H110 H 0.0566 0.34043 0.33853 0.0
C111 C 0.06301 0.40271 0.14626 0.0
H112 H 0.06514 0.42964 0.13749 0.0
H113 H 0.06409 0.39523 0.96957 0.0
H114 H 0.28107 0.99518 0.2677 0.0
C115 C 0.30109 1.00676 0.22263 0.0
C116 C 0.33047 0.98846 0.21208 0.0
C117 C 0.29839 0.03984 0.18238 0.0
H118 H 0.37852 0.98607 0.13736 0.0
C119 C 0.35619 1.00091 0.14662 0.0
C120 C 0.35431 0.03246 0.09574 0.0
C121 C 0.32556 0.05245 0.11668 0.0
C122 C 0.26731 0.06018 0.21059 0.0
H123 H 0.32505 0.07766 0.08357 0.0
C124 C 0.24551 0.05167 0.30049 0.0
C125 C 0.21591 0.07031 0.32059 0.0
C126 C 0.25836 0.08814 0.14475 0.0
H127 H 0.27286 0.09556 0.07434 0.0
C128 C 0.22989 0.10683 0.16608 0.0
H129 H 0.25106 0.03084 0.35541 0.0
C130 C 0.20894 0.09804 0.25229 0.0
H131 H 0.1867 0.11272 0.26463 0.0
H132 H 0.22365 0.12814 0.11369 0.0
H133 H 0.59131 0.27714 0.2843 0.0
C134 C 0.58151 0.29569 0.22624 0.0
C135 C 0.59647 0.3274 0.22637 0.0
C136 C 0.55306 0.28872 0.15816 0.0
H137 H 0.59737 0.37644 0.15251 0.0
C138 C 0.5856 0.3518 0.15009 0.0
C139 C 0.55806 0.34623 0.07794 0.0
C140 C 0.54139 0.31446 0.08274 0.0
C141 C 0.53661 0.25446 0.16776 0.0
H142 H 0.51918 0.31032 0.03064 0.0
C143 C 0.53755 0.23547 0.26942 0.0
C144 C 0.52589 0.20167 0.27317 0.0
C145 C 0.5221 0.23922 0.07252 0.0
H146 H 0.52116 0.25226 0.99341 0.0
C147 C 0.50985 0.20633 0.07645 0.0
H148 H 0.54767 0.24656 0.34548 0.0
C149 C 0.51205 0.18766 0.17487 0.0
H150 H 0.50292 0.16199 0.17424 0.0
H151 H 0.49912 0.19493 1.00173 0.0
Eu152 Eu 1.0199 0.05648 0.64565 0.0
Eu153 Eu 0.06374 0.03027 0.84737 0.0
C154 C 0.04873 0.11161 0.82943 0.0
C155 C 0.95966 0.1049 0.46051 0.0
C156 C 0.94182 0.11982 0.54595 0.0
C157 C 0.94926 0.15315 0.34377 0.0
C158 C 0.92883 0.15201 0.53141 0.0
C159 C 0.96158 0.12093 0.35752 0.0
C160 C 0.93466 0.16988 0.43303 0.0
C161 C 0.98047 0.07543 0.48129 0.0
O162 O 1.00824 1.01837 0.87917 0.0
O163 O 0.98728 0.06416 0.79586 0.0
C164 C 0.98468 0.04112 0.87293 0.0
O165 O 1.01694 0.99887 0.63155 0.0
O166 O 0.06713 0.02536 0.02909 0.0
O167 O 0.09983 0.99638 0.92916 0.0
O168 O 0.06572 0.9873 0.72282 0.0
C169 C 0.04107 0.97752 0.65615 0.0
O170 O 0.07237 0.05446 0.57507 0.0
O171 O 0.10547 0.04757 0.73286 0.0
O172 O 0.06163 0.08644 0.88814 0.0
O173 O 1.01256 0.08162 0.48618 0.0
O174 O 0.97116 0.05478 0.55899 0.0
O175 O 0.0346 0.10617 0.73005 0.0
C176 C 0.06472 0.96741 0.04928 0.0
C177 C 0.04295 0.95487 0.96508 0.0
C178 C 0.03977 0.92818 0.17799 0.0
C179 C 1.01959 0.93017 0.98615 0.0
C180 C 0.06305 0.95389 0.15682 0.0
C181 C 1.01795 0.91643 0.09195 0.0
C182 C 0.08416 0.99779 0.02254 0.0
C183 C 0.1024 0.05237 0.62375 0.0
H184 H 0.93969 0.10755 0.62596 0.0
H185 H 0.95417 0.16605 0.26647 0.0
H186 H 0.91634 0.16358 0.59967 0.0
H187 H 0.97498 0.1096 0.29047 0.0
H188 H 0.04277 0.96516 0.88301 0.0
H189 H 0.03835 0.91786 0.26117 0.0
H190 H 1.00265 0.92168 0.9199 0.0
H191 H 0.07895 0.96354 0.22397 0.0
Eu192 Eu 0.55969 0.05627 0.83212 0.0
Eu193 Eu 0.5251 1.01469 0.63736 0.0
C194 C 0.54249 0.97694 0.86222 0.0
C195 C 0.62674 0.05039 0.02248 0.0
C196 C 0.63557 0.02836 0.93737 0.0
C197 C 0.6654 1.02125 0.14776 0.0
C198 C 0.65832 1.00289 0.95688 0.0
C199 C 0.64159 0.04652 0.12884 0.0
C200 C 0.67389 0.9995 0.06103 0.0
C201 C 0.59826 0.07274 0.99904 0.0
O202 O 0.48069 1.02499 0.75105 0.0
O203 O 0.50498 0.06173 0.87735 0.0
C204 C 0.47857 0.04454 0.83989 0.0
O205 O 0.54046 0.0996 0.7258 0.0
O206 O 0.5254 0.96982 0.53456 0.0
O207 O 0.49158 1.01061 0.49159 0.0
O208 O 0.53024 0.06804 0.56843 0.0
C209 C 0.53382 0.09744 0.61785 0.0
O210 O 0.59837 0.05725 0.69651 0.0
O211 O 0.5819 1.00843 0.61625 0.0
O212 O 0.51941 0.97931 0.78329 0.0
O213 O 0.59925 0.08864 0.90405 0.0
O214 O 0.56921 0.05844 1.01241 0.0
O215 O 0.56625 0.99993 0.86733 0.0
C216 C 0.47436 0.95622 0.43996 0.0
C217 C 0.46212 0.93333 0.5181 0.0
C218 C 0.42965 0.94045 0.31055 0.0
C219 C 0.43288 0.91487 0.49354 0.0
C220 C 0.45891 0.95842 0.33455 0.0
C221 C 0.41519 0.91973 0.39175 0.0
C222 C 0.50113 0.98023 0.4684 0.0
C223 C 0.60493 0.032 0.63166 0.0
H224 H 0.62394 0.02992 0.85592 0.0
H225 H 0.67685 1.01826 0.2299 0.0
H226 H 0.6641 0.98582 0.89079 0.0
H227 H 0.63434 0.06235 0.19684 0.0
H228 H 0.47413 0.93099 0.59977 0.0
H229 H 0.41704 0.94511 0.23112 0.0
H230 H 0.42322 0.89841 0.55666 0.0
H231 H 0.4683 0.97568 0.27286 0.0
Eu232 Eu 0.51784 0.55202 0.86675 0.0
Eu233 Eu 0.57452 0.53584 0.69294 0.0
C234 C 0.5953 0.55415 0.94263 0.0
C235 C 0.4509 0.59374 0.03586 0.0
C236 C 0.45572 0.60967 0.13854 0.0
C237 C 0.41484 0.63925 0.97309 0.0
C238 C 0.44212 0.64103 0.15588 0.0
C239 C 0.42905 0.60786 0.95484 0.0
C240 C 0.42306 0.65696 0.07112 0.0
C241 C 0.4726 0.56539 1.01154 0.0
O242 O 0.56994 0.48699 0.79494 0.0
O243 O 0.5177 0.49514 0.86198 0.0
C244 C 0.54361 0.4757 0.84822 0.0
O245 O 0.49065 0.55444 0.69859 0.0
O246 O 0.62791 0.53408 0.66111 0.0
O247 O 0.59204 0.52374 0.52783 0.0
O248 O 0.52545 0.52046 0.60347 0.0
C249 C 0.49659 0.5359 0.61144 0.0
O250 O 0.53308 0.60414 0.80229 0.0
O251 O 0.55751 0.58802 0.64153 0.0
O252 O 0.60024 0.5627 0.83901 0.0
O253 O 0.46621 0.54844 0.92058 0.0
O254 O 0.50451 0.57134 0.02773 0.0
O255 O 0.56591 0.54211 0.96837 0.0
C256 C 0.64223 0.494 0.52701 0.0
C257 C 0.64399 0.48645 0.41362 0.0
C258 C 0.66046 0.4377 0.57377 0.0
C259 C 0.65113 0.45391 0.38073 0.0
C260 C 0.6529 0.47022 0.6069 0.0
C261 C 0.6565 0.42886 0.46123 0.0
C262 C 0.6235 0.52371 0.55926 0.0
C263 C 0.54427 0.61147 0.7026 0.0
H264 H 0.47221 0.59905 0.20247 0.0
H265 H 0.39931 0.65047 0.90798 0.0
H266 H 0.44898 0.65402 0.23244 0.0
H267 H 0.42459 0.59574 0.87517 0.0
H268 H 0.63627 0.5046 0.35088 0.0
H269 H 0.66456 0.41854 0.63669 0.0
H270 H 0.64814 0.44744 0.29346 0.0
H271 H 0.65207 0.47559 0.69502 0.0
Eu272 Eu 0.05936 0.56707 0.68345 0.0
Eu273 Eu 0.0391 0.51303 0.86106 0.0
C274 C 0.11689 0.53575 0.84928 0.0
C275 C 0.10886 0.6236 0.48906 0.0
C276 C 0.12743 0.6499 0.53988 0.0
C277 C 0.15223 0.61741 0.35475 0.0
C278 C 0.15879 0.65891 0.50102 0.0
C279 C 0.12087 0.60854 0.39296 0.0
C280 C 0.17181 0.64167 0.41118 0.0
C281 C 0.07739 0.61166 0.53696 0.0
O282 O 0.04916 0.56111 0.96145 0.0
O283 O 0.03709 0.59787 0.82161 0.0
C284 C 0.04219 0.59184 0.92822 0.0
O285 O 1.00483 0.55505 0.63581 0.0
O286 O 1.02149 0.49856 0.02349 0.0
O287 O 0.03645 0.46015 0.90901 0.0
O288 O 0.98821 0.53259 0.8006 0.0
C289 C 0.98088 0.54433 0.70016 0.0
O290 O 0.07701 0.51593 0.62173 0.0
O291 O 0.03292 0.48881 0.6891 0.0
O292 O 0.09601 0.51073 0.8666 0.0
O293 O 0.06709 0.58149 0.51075 0.0
O294 O 0.07343 0.61825 0.64167 0.0
O295 O 0.10707 0.56213 0.79115 0.0
C296 C 0.99081 0.4487 0.02506 0.0
C297 C 0.96958 0.43672 0.9381 0.0
C298 C 0.94487 0.44627 0.15024 0.0
C299 C 0.93555 0.43142 0.95633 0.0
C300 C 0.97885 0.45053 0.13298 0.0
C301 C 0.9227 0.43953 0.06003 0.0
C302 C 1.02207 0.46654 1.00229 0.0
C303 C 0.05659 0.48988 0.61598 0.0
H304 H 0.11836 0.6626 0.61231 0.0
H305 H 0.16204 0.604 0.28476 0.0
H306 H 0.17373 0.6777 0.5451 0.0
H307 H 0.1067 0.58896 0.34996 0.0
H308 H 0.97847 0.43453 0.85431 0.0
H309 H 0.93549 0.45184 0.23169 0.0
H310 H 0.9188 0.42532 0.88657 0.0
H311 H 0.99502 0.45908 0.20145 0.0
C312 C 0.162 0.04054 0.37616 0.0
C313 C 0.19016 0.06087 0.40694 0.0
C314 C 0.16147 0.07563 0.58108 0.0
C315 C 0.13337 0.05464 0.55107 0.0
N316 N 0.1088 1.01556 0.4161 0.0
N317 N 0.21918 0.0929 0.54888 0.0
C318 C 0.13439 0.0367 0.44806 0.0
C319 C 0.19059 0.07678 0.51287 0.0
N320 N 0.16056 1.02411 0.2769 0.0
N321 N 0.15939 0.09671 0.66995 0.0
H322 H 0.24042 0.09442 0.50079 0.0
H323 H 0.22302 0.102 0.62938 0.0
H324 H 0.13824 0.09823 0.71786 0.0
H325 H 0.17712 0.11515 0.68987 0.0
H326 H 0.17949 1.02481 0.21912 0.0
H327 H 0.17949 1.02481 0.21912 0.0
H328 H 0.10862 1.0023 0.34146 0.0
H329 H 0.08821 1.01036 0.46398 0.0
C330 C 0.55931 0.1699 0.42567 0.0
C331 C 0.52792 0.17986 0.37736 0.0
C332 C 0.49987 0.13794 0.4962 0.0
C333 C 0.53114 0.12866 0.54628 0.0
N334 N 0.58941 0.14247 0.57892 0.0
N335 N 0.46794 0.17928 0.38944 0.0
C336 C 0.56039 0.14698 0.51798 0.0
C337 C 0.49809 0.16564 0.41993 0.0
N338 N 0.5883 0.18041 0.37899 0.0
N339 N 0.47178 0.11993 0.52029 0.0
H340 H 0.46586 0.20005 0.33675 0.0
H341 H 0.44547 0.17231 0.42476 0.0
H342 H 0.4717 0.101 0.58038 0.0
H343 H 0.44903 0.12251 0.47662 0.0
H344 H 0.61169 0.17083 0.40177 0.0
H345 H 0.58888 0.19652 0.31071 0.0
H346 H 0.61061 0.15748 0.56998 0.0
H347 H 0.5914 0.12562 0.64516 0.0
C348 C 0.43036 0.56092 0.38699 0.0
C349 C 0.41879 0.52918 0.34733 0.0
C350 C 0.45582 0.50167 0.48905 0.0
C351 C 0.4701 0.53327 0.51931 0.0
N352 N 0.47461 0.59256 0.48228 0.0
N353 N 0.42143 0.46888 0.3582 0.0
C354 C 0.45808 0.5628 0.46501 0.0
C355 C 0.43188 0.49944 0.39782 0.0
N356 N 0.41499 0.58952 0.35024 0.0
N357 N 0.46399 0.47391 0.55083 0.0
H358 H 0.40191 0.46608 0.29922 0.0
H359 H 0.43302 0.44642 0.37987 0.0
H360 H 0.48104 0.47455 0.61827 0.0
H361 H 0.45196 0.45079 0.54153 0.0
H362 H 0.41925 0.61287 0.38691 0.0
H363 H 0.3963 0.58981 0.28797 0.0
H364 H 0.46962 0.61424 0.43637 0.0
H365 H 0.49573 0.5948 0.53465 0.0
C366 C 0.08547 0.43866 0.3604 0.0
C367 C 0.06227 0.41133 0.35444 0.0
C368 C 0.04197 0.43081 0.53526 0.0
C369 C 0.05949 0.46228 0.52699 0.0
N370 N 0.09074 0.49756 0.40003 0.0
N371 N 1.01177 0.38789 0.4302 0.0
C372 C 0.07937 0.46665 0.4309 0.0
C373 C 0.03854 0.40922 0.44011 0.0
N374 N 0.11369 0.43807 0.29958 0.0
N375 N 0.03004 0.42006 0.63437 0.0
H376 H 1.00666 0.37353 0.35937 0.0
H377 H 0.99262 0.38768 0.48713 0.0
H378 H 0.03615 0.4317 0.70964 0.0
H379 H 1.0188 0.39656 0.64379 0.0
H380 H 0.13232 0.45648 0.30718 0.0
H381 H 0.12016 0.41729 0.25258 0.0
H382 H 0.10357 0.50137 0.32685 0.0
H383 H 0.08299 0.51978 0.43535 0.0
C384 C 0.9121 1.01244 0.0627 0.0
C385 C 0.90383 0.04283 0.11736 0.0
C386 C 0.94942 0.07129 0.01658 0.0
C387 C 0.95611 0.04168 0.95529 0.0
N388 N 0.9372 0.98632 0.9032 0.0
N389 N 0.90934 0.10305 0.12005 0.0
C390 C 0.93549 1.01289 0.97375 0.0
C391 C 0.92082 0.07279 0.08544 0.0
N392 N 0.89871 0.98281 0.098 0.0
N393 N 0.9716 0.0975 0.0154 0.0
H394 H 0.8881 0.10525 0.16763 0.0
H395 H 0.91865 0.1259 0.09167 0.0
H396 H 0.99386 0.09665 0.97297 0.0
H397 H 0.96984 0.11842 0.06657 0.0
H398 H 0.90601 0.95954 0.06871 0.0
H399 H 0.88212 0.98121 0.16289 0.0
H400 H 0.92107 0.9657 0.9052 0.0
H401 H 0.95223 0.98693 0.83423 0.0
C402 C 0.57457 0.90437 0.05015 0.0
C403 C 0.54658 0.89795 0.11748 0.0
C404 C 0.51449 0.94068 1.01036 0.0
C405 C 0.54269 0.94762 0.94371 0.0
N406 N 0.59597 0.92932 0.8812 0.0
N407 N 0.48766 0.90425 0.14437 0.0
C408 C 0.57176 0.92749 0.95854 0.0
C409 C 0.51584 0.91425 0.09162 0.0
N410 N 0.60397 0.88829 0.0742 0.0
N411 N 0.48688 0.96054 1.00086 0.0
H412 H 0.48785 0.8862 0.2073 0.0
H413 H 0.46367 0.9116 0.11921 0.0
H414 H 0.48424 0.97949 0.94183 0.0
H415 H 0.46742 0.95986 0.05633 0.0
H416 H 0.62638 0.89382 0.0363 0.0
H417 H 0.60631 0.87002 0.13621 0.0
H418 H 0.61687 0.91399 0.8808 0.0
H419 H 0.59316 0.94392 0.80965 0.0
C420 C 0.68418 0.55324 0.07592 0.0
C421 C 0.679 0.56519 0.1855 0.0
C422 C 0.61878 0.571 0.13574 0.0
C423 C 0.62363 0.55662 0.02921 0.0
N424 N 0.65993 0.52396 0.91616 0.0
N425 N 0.63929 0.57646 0.32716 0.0
C426 C 0.65605 0.54473 1.00476 0.0
C427 C 0.64558 0.57115 0.21764 0.0
N428 N 0.71579 0.55154 0.03661 0.0
N429 N 0.58929 0.58631 0.15746 0.0
H430 H 0.65803 0.5756 0.38951 0.0
H431 H 0.61519 0.57789 0.3572 0.0
H432 H 0.56969 0.5884 0.09878 0.0
H433 H 0.58566 0.60006 0.22958 0.0
H434 H 0.72049 0.54631 0.95369 0.0
H435 H 0.73709 0.55858 0.08319 0.0
H436 H 0.68247 0.51227 0.90005 0.0
H437 H 0.63972 0.51505 0.8676 0.0
C438 C 0.07288 0.65941 0.14017 0.0
C439 C 0.04235 0.67429 0.17183 0.0
C440 C 1.01213 0.63809 0.03306 0.0
C441 C 0.04218 0.62062 1.01116 0.0
N442 N 0.10122 0.61358 0.05053 0.0
N443 N 0.9822 0.67503 0.15586 0.0
C444 C 0.07253 0.63102 0.06687 0.0
C445 C 1.01182 0.66312 0.11918 0.0
N446 N 0.1025 0.6732 0.17827 0.0
N447 N 0.98365 0.6306 0.97203 0.0
H448 H 0.98088 0.69346 0.2168 0.0
H449 H 0.95893 0.66514 0.13163 0.0
H450 H 0.98224 0.61126 0.91384 0.0
H451 H 0.962 0.64487 0.97372 0.0
H452 H 0.1258 0.66602 0.15101 0.0
H453 H 0.10367 0.69419 0.22994 0.0
H454 H 0.12307 0.61672 0.09887 0.0
H455 H 0.10273 0.59439 0.99247 0.0
C456 C 0.9855 0.23988 0.42489 0.0
C457 C 0.97774 0.24727 0.31157 0.0
C458 C 0.92264 0.2214 0.32827 0.0
C459 C 0.93413 0.20709 0.42945 0.0
N460 N 0.96399 0.22033 0.60014 0.0
N461 N 0.93465 0.25339 0.16589 0.0
C462 C 0.96116 0.22285 0.48732 0.0
C463 C 0.94475 0.24167 0.26777 0.0
N464 N 1.01658 0.24666 0.47008 0.0
N465 N 0.89228 0.21198 0.28399 0.0
H466 H 0.94964 0.26847 0.11631 0.0
H467 H 0.94964 0.26847 0.11631 0.0
H468 H 0.87647 0.19595 0.3274 0.0
H469 H 0.88332 0.22061 0.20663 0.0
H470 H 1.02456 0.23811 0.5484 0.0
H471 H 0.03506 0.25932 0.42695 0.0
H472 H 0.98238 0.23295 0.64736 0.0
H473 H 0.94538 0.20897 0.64624 0.0
C474 C 0.34457 0.92739 0.21681 0.0
C475 C 0.33628 0.95691 0.27572 0.0
C476 C 0.35845 0.93076 0.44513 0.0
C477 C 0.37887 0.9112 0.37865 0.0
N478 N 0.38113 0.8786 0.21364 0.0
N479 N 0.33264 0.98484 0.45506 0.0
C480 C 0.36694 0.90419 0.26948 0.0
C481 C 0.34122 0.95769 0.39362 0.0
N482 N 0.33267 0.92305 0.11022 0.0
N483 N 0.35743 0.92485 0.55647 0.0
H484 H 0.32062 1.00578 0.42192 0.0
H485 H 0.33945 0.98727 0.53911 0.0
H486 H 0.36947 0.90422 0.59259 0.0
H487 H 0.34167 0.93782 0.60835 0.0
H488 H 0.33716 0.90185 0.06292 0.0
H489 H 0.31632 0.94021 0.07226 0.0
H490 H 0.37625 0.87329 0.12999 0.0
H491 H 0.39845 0.86289 0.25415 0.0
C492 C 0.65189 0.34817 0.29963 0.0
C493 C 0.61846 0.3387 0.32018 0.0
C494 C 0.6134 0.38354 0.45298 0.0
C495 C 0.64651 0.39429 0.43101 0.0
N496 N 0.70008 0.3827 0.35506 0.0
N497 N 0.57381 0.33769 0.44994 0.0
C498 C 0.66696 0.37482 0.36251 0.0
C499 C 0.60192 0.3526 0.41049 0.0
N500 N 0.66805 0.33302 0.21542 0.0
N501 N 0.59133 0.40436 0.50209 0.0
H502 H 0.56464 0.31481 0.41995 0.0
H503 H 0.56208 0.3463 0.52056 0.0
H504 H 0.59756 0.4279 0.534 0.0
H505 H 0.56565 0.39959 0.49886 0.0
H506 H 0.69118 0.34095 0.18734 0.0
H507 H 0.65733 0.31278 0.17188 0.0
H508 H 0.71685 0.36828 0.31163 0.0
H509 H 0.71115 0.40241 0.40026 0.0
C510 C 0.24532 0.64975 0.23143 0.0
C511 C 0.26332 0.62218 0.27597 0.0
C512 C 0.23002 0.62195 0.44101 0.0
C513 C 0.20757 0.64419 0.38571 0.0
N514 N 0.19758 0.68688 0.248 0.0
N515 N 0.28439 0.59574 0.44389 0.0
C516 C 0.21699 0.66132 0.28823 0.0
C517 C 0.25987 0.61331 0.38873 0.0
N518 N 0.25391 0.66218 0.13037 0.0
N519 N 0.22129 0.60654 0.53752 0.0
H520 H 0.30684 0.58982 0.4077 0.0
H521 H 0.28418 0.59063 0.52889 0.0
H522 H 0.20017 0.61303 0.581 0.0
H523 H 0.23406 0.58602 0.57059 0.0
H524 H 0.24102 0.68098 0.08748 0.0
H525 H 0.27488 0.65327 0.09039 0.0
H526 H 0.20271 0.70076 0.17712 0.0
H527 H 0.17682 0.69517 0.29033 0.0
C528 C 0.94531 0.86979 0.21608 0.0
C529 C 0.95955 0.83782 0.2076 0.0
C530 C 0.99647 0.85737 0.06756 0.0
C531 C 0.99264 0.8902 0.11152 0.0
N532 N 0.95668 0.92971 0.20107 0.0
N533 N 0.97074 0.8019 0.05443 0.0
C534 C 0.96411 0.89742 0.17504 0.0
C535 C 0.97507 0.83187 0.10668 0.0
N536 N 0.91741 0.87333 0.27647 0.0
N537 N 1.02127 0.85008 0.99642 0.0
H538 H 0.95463 0.78368 0.08592 0.0
H539 H 0.98066 0.79681 0.9772 0.0
H540 H 0.03812 0.868 0.96806 0.0
H541 H 1.02614 0.82567 0.9711 0.0
H542 H 0.90519 0.89603 0.28607 0.0
H543 H 0.90593 0.85234 0.31159 0.0
H544 H 0.93783 0.93616 0.25455 0.0
H545 H 0.96981 0.95011 0.16895 0.0
C546 C 0.71962 0.92771 0.19884 0.0
C547 C 0.75125 0.94321 0.19065 0.0
C548 C 0.73141 0.97591 0.03483 0.0
C549 C 0.69886 0.97287 0.07939 0.0
N550 N 0.65987 0.93855 0.18075 0.0
N551 N 0.78715 0.95144 0.0374 0.0
C552 C 0.69186 0.94548 0.15169 0.0
C553 C 0.75705 0.95602 0.08411 0.0
N554 N 0.7164 0.90022 0.26471 0.0
N555 N 0.73841 0.99894 0.95462 0.0
H556 H 0.80571 0.93737 0.07851 0.0
H557 H 0.79225 0.95947 0.95704 0.0
H558 H 0.72035 1.01445 0.91801 0.0
H559 H 0.76264 1.00349 0.92853 0.0
H560 H 0.69384 0.88739 0.27382 0.0
H561 H 0.73744 0.88968 0.30445 0.0
H562 H 0.65384 0.92073 0.24053 0.0
H563 H 0.63946 0.95123 0.14499 0.0
C564 C 0.4666 0.73202 0.09089 0.0
C565 C 0.4587 0.73873 0.20292 0.0
C566 C 0.4071 0.70583 0.18085 0.0
C567 C 0.41919 0.69382 0.07958 0.0
N568 N 0.44634 0.71033 0.91291 0.0
N569 N 0.4165 0.74256 0.34052 0.0
C570 C 0.44375 0.71269 0.02524 0.0
C571 C 0.42679 0.72963 0.24253 0.0
N572 N 0.49684 0.74129 0.05024 0.0
N573 N 0.37922 0.69111 0.22226 0.0
H574 H 0.43098 0.76001 0.38579 0.0
H575 H 0.39303 0.73795 0.37254 0.0
H576 H 0.36547 0.67337 0.17558 0.0
H577 H 0.37024 0.69585 0.30089 0.0
H578 H 0.5051 0.73328 0.97349 0.0
H579 H 0.51466 0.75525 0.09551 0.0
H580 H 0.46274 0.72519 0.86811 0.0
H581 H 0.42921 0.69646 0.86432 0.0
C582 C 0.8523 0.4975 0.10209 0.0
C583 C 0.84148 0.48235 0.20154 0.0
C584 C 0.86917 0.43025 0.15319 0.0
C585 C 0.88712 0.44836 0.07313 0.0
N586 N 0.89256 0.49741 0.95621 0.0
N587 N 0.83302 0.4329 0.31192 0.0
C588 C 0.87671 0.48098 0.03977 0.0
C589 C 0.84716 0.44785 0.22229 0.0
N590 N 0.84024 0.52811 0.06982 0.0
N591 N 0.87493 0.39676 0.16575 0.0
H592 H 0.81588 0.44538 0.36039 0.0
H593 H 0.83832 0.40867 0.33895 0.0
H594 H 0.89136 0.3842 0.11471 0.0
H595 H 0.86206 0.38121 0.21961 0.0
H596 H 0.84454 0.53896 0.9927 0.0
H597 H 0.8234 0.54161 0.11585 0.0
H598 H 0.89012 0.52289 0.9395 0.0
H599 H 0.90899 0.48572 0.90386 0.0
C600 C 0.07488 0.1896 1.00769 0.0
C601 C 0.0461 0.21025 0.99816 0.0
C602 C 1.01915 0.16732 0.87473 0.0
C603 C 0.04855 0.14697 0.88026 0.0
N604 N 0.10742 0.1446 0.92992 0.0
N605 N 0.9943 0.22224 0.90057 0.0
C606 C 0.07729 0.15992 0.94031 0.0
C607 C 1.01957 0.20019 0.92363 0.0
N608 N 0.09951 0.19752 0.08459 0.0
N609 N 0.98982 0.15467 0.83006 0.0
H610 H 0.99415 0.2464 0.93369 0.0
H611 H 0.97528 0.21793 0.84118 0.0
H612 H 0.98712 0.13065 0.79775 0.0
H613 H 0.96691 0.16663 0.83569 0.0
H614 H 0.11911 0.18147 0.10601 0.0
H615 H 0.09911 0.21932 0.13224 0.0
H616 H 0.12984 0.15443 0.9627 0.0
H617 H 0.11061 0.12403 0.8782 0.0
C618 C 0.38358 0.0428 0.9097 0.0
C619 C 0.38453 0.04343 0.02832 0.0
C620 C 0.44664 0.04418 0.02402 0.0
C621 C 0.44594 0.04566 0.90479 0.0
N622 N 0.41209 0.05489 0.73793 0.0
N623 N 0.41743 0.0535 0.19566 0.0
C624 C 0.41388 0.04744 0.84888 0.0
C625 C 0.41627 0.04719 0.08398 0.0
N626 N 0.35386 0.03649 0.85442 0.0
N627 N 0.47586 0.03726 0.08129 0.0
H628 H 0.39585 0.05591 0.24147 0.0
H629 H 0.4394 0.05986 0.23989 0.0
H630 H 0.49826 0.03222 0.04322 0.0
H631 H 0.4771 0.03239 0.16648 0.0
H632 H 0.35197 0.03152 0.76942 0.0
H633 H 0.33133 0.03403 0.89517 0.0
H634 H 0.38967 0.05964 0.69452 0.0
H635 H 0.43321 0.05994 0.69187 0.0
C636 C 0.53448 0.40474 0.06676 0.0
C637 C 0.54629 0.37628 1.00955 0.0
C638 C 0.54973 0.41158 0.84018 0.0
C639 C 0.54367 0.4411 0.90253 0.0
N640 N 0.5345 0.46525 0.08333 0.0
N641 N 0.56759 0.35339 0.84135 0.0
C642 C 0.53676 0.43746 0.01783 0.0
C643 C 0.55429 0.37987 0.89574 0.0
N644 N 0.52121 0.40043 0.16919 0.0
N645 N 0.54959 0.41334 0.72699 0.0
H646 H 0.57017 0.32975 0.87785 0.0
H647 H 0.57775 0.35549 0.76284 0.0
H648 H 0.54624 0.43575 0.68323 0.0
H649 H 0.54895 0.39195 0.67755 0.0
H650 H 0.50915 0.4194 0.21127 0.0
H651 H 0.51919 0.37687 0.20666 0.0
H652 H 0.53328 0.46414 0.16968 0.0
H653 H 0.53724 0.4896 0.05354 0.0
C654 C 0.21269 0.54654 0.8909 0.0
C655 C 0.21744 0.53926 1.0061 0.0
C656 C 0.15663 0.52912 0.01842 0.0
C657 C 0.15185 0.53503 0.90193 0.0
N658 N 0.17706 0.54181 0.72367 0.0
N659 N 0.19513 0.5154 0.17204 0.0
C660 C 0.18046 0.54145 0.83709 0.0
C661 C 0.18973 0.52763 0.0668 0.0
N662 N 0.23859 0.55988 0.83371 0.0
N663 N 0.12965 0.52748 0.08524 0.0
H664 H 0.21904 0.51402 0.20918 0.0
H665 H 0.1766 0.5036 0.21736 0.0
H666 H 0.10502 0.5297 0.05565 0.0
H667 H 0.13185 0.52755 0.17177 0.0
H668 H 0.23572 0.56988 0.75412 0.0
H669 H 0.26263 0.56286 0.8687 0.0
H670 H 0.19731 0.54299 0.67144 0.0
H671 H 0.15421 0.53757 0.68156 0.0
C672 C 1.00872 0.88606 0.60859 0.0
C673 C 0.03145 0.87359 0.53036 0.0
C674 C 0.06455 0.92618 0.55466 0.0
C675 C 0.03891 0.94087 0.61824 0.0
N676 N 0.98609 0.93351 0.70633 0.0
N677 N 0.08256 0.88328 0.43162 0.0
C678 C 1.01094 0.92028 0.64551 0.0
C679 C 0.05974 0.89382 0.5051 0.0
N680 N 0.98522 0.86462 0.64942 0.0
N681 N 0.09368 0.94326 0.53809 0.0
H682 H 0.08116 0.86026 0.39067 0.0
H683 H 0.08116 0.86026 0.39067 0.0
H684 H 0.09955 0.96595 0.57668 0.0
H685 H 0.1127 0.9337 0.49019 0.0
H686 H 0.96981 0.87053 0.71455 0.0
H687 H 0.98352 0.83953 0.62519 0.0
H688 H 0.96295 0.92196 0.71646 0.0
H689 H 0.98844 0.95679 0.74447 0.0
C690 C 0.6842 0.05081 0.45874 0.0
C691 C 0.70636 0.02519 0.49634 0.0
C692 C 0.66194 1.00337 0.61726 0.0
C693 C 0.63974 0.02941 0.58268 0.0
N694 N 0.63109 0.07988 0.47541 0.0
N695 N 0.71892 0.98234 0.63003 0.0
C696 C 0.65157 0.05401 0.50603 0.0
C697 C 0.69584 1.00328 0.58171 0.0
N698 N 0.69369 0.07089 0.37305 0.0
N699 N 0.65041 0.97784 0.68169 0.0
H700 H 0.74382 0.98232 0.6064 0.0
H701 H 0.71443 0.96785 0.7003 0.0
H702 H 0.62673 0.97786 0.71475 0.0
H703 H 0.66362 0.95586 0.69751 0.0
H704 H 0.67807 0.08798 0.3323 0.0
H705 H 0.71731 0.06938 0.33928 0.0
H706 H 0.63884 0.10072 0.43042 0.0
H707 H 0.60622 0.08099 0.49842 0.0
C708 C 0.50748 0.69641 0.59889 0.0
C709 C 0.53265 0.70769 0.52594 0.0
C710 C 0.56832 0.66123 0.59584 0.0
C711 C 0.54101 0.64662 0.65311 0.0
N712 N 0.48226 0.64942 0.69471 0.0
N713 N 0.58629 0.69797 0.44703 0.0
C714 C 0.51006 0.66422 0.65214 0.0
C715 C 0.56303 0.68949 0.52314 0.0
N716 N 0.48073 0.71658 0.6164 0.0
N717 N 0.59971 0.64864 0.61314 0.0
H718 H 0.58361 0.71846 0.39356 0.0
H719 H 0.60698 0.68323 0.43137 0.0
H720 H 0.60483 0.62911 0.66887 0.0
H721 H 0.62109 0.65992 0.58205 0.0
H722 H 0.46251 0.71119 0.67381 0.0
H723 H 0.47851 0.7404 0.58081 0.0
H724 H 0.45833 0.65928 0.68477 0.0
H725 H 0.48216 0.62563 0.73035 0.0
C726 C 0.89122 0.51456 0.61418 0.0
C727 C 0.88004 0.5413 0.54435 0.0
C728 C 0.93125 0.57303 0.60147 0.0
C729 C 0.94496 0.54403 0.65481 0.0
N730 N 0.93871 0.48486 0.69473 0.0
N731 N 0.89146 0.59545 0.46396 0.0
C732 C 0.92494 0.51428 0.65805 0.0
C733 C 0.90048 0.57057 0.53688 0.0
N734 N 0.86951 0.48909 0.6378 0.0
N735 N 0.94718 0.60326 0.61476 0.0
H736 H 0.86905 0.59498 0.41724 0.0
H737 H 0.90722 0.61541 0.4444 0.0
H738 H 0.96898 0.60623 0.66391 0.0
H739 H 0.93698 0.62583 0.58692 0.0
H740 H 0.87492 0.4705 0.69658 0.0
H741 H 0.84479 0.48869 0.60706 0.0
H742 H 0.92641 0.46179 0.68775 0.0
H743 H 0.96357 0.48273 0.72189 0.0
loop_
_geom_bond_atom_site_label_1
_geom_bond_atom_site_label_2
_geom_bond_distance
_geom_bond_site_symmetry_2
_ccdc_geom_bond_type
H0 C1 0.949 . S
C1 H0 0.949 . S
C1 C2 1.395 . S
C1 C3 1.391 . S
C2 C1 1.395 . S
C2 C5 1.390 . S
C3 C1 1.391 . S
C3 C7 1.387 . S
C3 C8 1.491 . S
H4 C5 0.950 . S
C5 C2 1.390 . S
C5 H4 0.950 . S
C5 C6 1.378 . S
C6 C5 1.378 . S
C6 C7 1.409 . S
C7 C3 1.387 . S
C7 C6 1.409 . S
C7 H9 0.951 . S
C8 C3 1.491 . S
C8 C10 1.382 . S
C8 C12 1.404 . S
H9 C7 0.951 . S
C10 C8 1.382 . S
C10 C11 1.390 . S
C10 H15 0.949 . S
C11 C10 1.390 . S
C11 C16 1.399 . S
C12 C8 1.404 . S
C12 H13 0.950 . S
C12 C14 1.375 . S
H13 C12 0.950 . S
C14 C12 1.375 . S
C14 C16 1.382 . S
C14 H18 0.950 . S
H15 C10 0.949 . S
C16 C11 1.399 . S
C16 C14 1.382 . S
C16 H17 0.952 . S
H17 C16 0.952 . S
H18 C14 0.950 . S
H19 C20 0.949 . S
C20 H19 0.949 . S
C20 C21 1.395 . S
C20 C22 1.391 . S
C21 C20 1.395 . S
C21 C24 1.390 . S
C22 C20 1.391 . S
C22 C26 1.387 . S
C22 C27 1.491 . S
H23 C24 0.950 . S
C24 C21 1.390 . S
C24 H23 0.950 . S
C24 C25 1.378 . S
C25 C24 1.378 . S
C25 C26 1.409 . S
C26 C22 1.387 . S
C26 C25 1.409 . S
C26 H28 0.951 . S
C27 C22 1.491 . S
C27 C29 1.382 . S
C27 C31 1.404 . S
H28 C26 0.951 . S
C29 C27 1.382 . S
C29 C30 1.390 . S
C29 H34 0.949 . S
C30 C29 1.390 . S
C30 C35 1.399 . S
C31 C27 1.404 . S
C31 H32 0.950 . S
C31 C33 1.375 . S
H32 C31 0.950 . S
C33 C31 1.375 . S
C33 C35 1.382 . S
C33 H37 0.950 . S
H34 C29 0.949 . S
C35 C30 1.399 . S
C35 C33 1.382 . S
C35 H36 0.952 . S
H36 C35 0.952 . S
H37 C33 0.950 . S
H38 C39 0.949 . S
C39 H38 0.949 . S
C39 C40 1.395 . S
C39 C41 1.391 . S
C40 C39 1.395 . S
C40 C43 1.390 . S
C41 C39 1.391 . S
C41 C45 1.387 . S
C41 C46 1.491 . S
H42 C43 0.950 . S
C43 C40 1.390 . S
C43 H42 0.950 . S
C43 C44 1.378 . S
C44 C43 1.378 . S
C44 C45 1.409 . S
C45 C41 1.387 . S
C45 C44 1.409 . S
C45 H47 0.951 . S
C46 C41 1.491 . S
C46 C48 1.382 . S
C46 C50 1.404 . S
H47 C45 0.951 . S
C48 C46 1.382 . S
C48 C49 1.390 . S
C48 H53 0.936 1_565 S
C49 C48 1.390 . S
C49 C54 1.399 . S
C50 C46 1.404 . S
C50 H51 0.950 . S
C50 C52 1.375 . S
H51 C50 0.950 . S
C52 C50 1.375 . S
C52 C54 1.382 . S
C52 H56 0.950 . S
H53 C48 0.936 1_545 S
C54 C49 1.399 . S
C54 C52 1.382 . S
C54 H55 0.952 . S
H55 C54 0.952 . S
H56 C52 0.950 . S
H57 C58 0.949 . S
C58 H57 0.949 . S
C58 C59 1.395 . S
C58 C60 1.391 . S
C59 C58 1.395 . S
C59 C62 1.390 . S
C60 C58 1.391 . S
C60 C64 1.387 . S
C60 C65 1.491 . S
H61 C62 0.950 . S
C62 C59 1.390 . S
C62 H61 0.950 . S
C62 C63 1.378 . S
C63 C62 1.378 . S
C63 C64 1.409 . S
C64 C60 1.387 . S
C64 C63 1.409 . S
C64 H66 0.951 . S
C65 C60 1.491 . S
C65 C67 1.382 . S
C65 C69 1.404 . S
H66 C64 0.951 . S
C67 C65 1.382 . S
C67 C68 1.390 . S
C67 H72 0.949 . S
C68 C67 1.390 . S
C68 C73 1.399 . S
C69 C65 1.404 . S
C69 H70 0.950 . S
C69 C71 1.375 . S
H70 C69 0.950 . S
C71 C69 1.375 . S
C71 C73 1.382 . S
C71 H75 0.950 . S
H72 C67 0.949 . S
C73 C68 1.399 . S
C73 C71 1.382 . S
C73 H74 0.952 . S
H74 C73 0.952 . S
H75 C71 0.950 . S
H76 C77 0.949 . S
C77 H76 0.949 . S
C77 C78 1.395 . S
C77 C79 1.391 . S
C78 C77 1.395 . S
C78 C81 1.390 . S
C79 C77 1.391 . S
C79 C83 1.387 1_554 S
C79 C84 1.491 . S
H80 C81 0.950 . S
C81 C78 1.390 . S
C81 H80 0.950 . S
C81 C82 1.378 1_554 S
C82 C81 1.378 1_556 S
C82 C83 1.409 . S
C83 C79 1.387 1_556 S
C83 C82 1.409 . S
C83 H85 0.951 . S
C84 C79 1.491 . S
C84 C86 1.382 . S
C84 C88 1.404 1_554 S
H85 C83 0.951 . S
C86 C84 1.382 . S
C86 C87 1.390 . S
C86 H91 0.949 . S
C87 C86 1.390 . S
C87 C92 1.399 . S
C88 C84 1.404 1_556 S
C88 H89 0.950 . S
C88 C90 1.375 1_556 S
H89 C88 0.950 . S
C90 C88 1.375 1_554 S
C90 C92 1.382 . S
C90 H94 0.950 1_554 S
H91 C86 0.949 . S
C92 C87 1.399 . S
C92 C90 1.382 . S
C92 H93 0.952 . S
H93 C92 0.952 . S
H94 C90 0.950 1_556 S
H95 C96 0.949 . S
C96 H95 0.949 . S
C96 C97 1.395 . S
C96 C98 1.391 . S
C97 C96 1.395 . S
C97 C100 1.390 . S
C98 C96 1.391 . S
C98 C102 1.387 1_554 S
C98 C103 1.491 . S
H99 C100 0.950 . S
C100 C97 1.390 . S
C100 H99 0.950 . S
C100 C101 1.378 1_554 S
C101 C100 1.378 1_556 S
C101 C102 1.409 . S
C102 C98 1.387 1_556 S
C102 C101 1.409 . S
C102 H104 0.951 . S
C103 C98 1.491 . S
C103 C105 1.382 . S
C103 C107 1.404 1_554 S
H104 C102 0.951 . S
C105 C103 1.382 . S
C105 C106 1.390 . S
C105 H110 0.949 . S
C106 C105 1.390 . S
C106 C111 1.399 . S
C107 C103 1.404 1_556 S
C107 H108 0.950 . S
C107 C109 1.375 . S
H108 C107 0.950 . S
C109 C107 1.375 . S
C109 C111 1.382 1_556 S
C109 H113 0.950 1_455 S
H110 C105 0.949 . S
C111 C106 1.399 . S
C111 C109 1.382 1_554 S
C111 H112 0.952 . S
H112 C111 0.952 . S
H113 C109 0.950 1_655 S
H114 C115 0.949 . S
C115 H114 0.949 . S
C115 C116 1.395 . S
C115 C117 1.391 1_554 S
C116 C115 1.395 . S
C116 C119 1.390 1_554 S
C117 C115 1.391 1_556 S
C117 C121 1.387 . S
C117 C122 1.491 . S
H118 C119 0.950 . S
C119 C116 1.390 1_556 S
C119 H118 0.950 . S
C119 C120 1.378 . S
C120 C119 1.378 . S
C120 C121 1.409 . S
C121 C117 1.387 . S
C121 C120 1.409 . S
C121 H123 0.951 . S
C122 C117 1.491 . S
C122 C124 1.382 1_556 S
C122 C126 1.404 1_545 S
H123 C121 0.951 . S
C124 C122 1.382 1_554 S
C124 C125 1.390 . S
C124 H129 0.949 . S
C125 C124 1.390 . S
C125 C130 1.399 1_554 S
C126 C122 1.404 1_565 S
C126 H127 0.950 . S
C126 C128 1.375 . S
H127 C126 0.950 . S
C128 C126 1.375 . S
C128 C130 1.382 1_565 S
C128 H132 0.950 . S
H129 C124 0.949 . S
C130 C125 1.399 1_556 S
C130 C128 1.382 1_545 S
C130 H131 0.949 1_546 S
H131 C130 0.949 1_564 S
H132 C128 0.950 . S
H133 C134 0.949 . S
C134 H133 0.949 . S
C134 C135 1.395 . S
C134 C136 1.391 . S
C135 C134 1.395 . S
C135 C138 1.390 . S
C136 C134 1.391 . S
C136 C140 1.387 1_554 S
C136 C141 1.491 . S
H137 C138 0.950 . S
C138 C135 1.390 . S
C138 H137 0.950 . S
C138 C139 1.378 1_554 S
C139 C138 1.378 1_556 S
C139 C140 1.409 . S
C140 C136 1.387 1_556 S
C140 C139 1.409 . S
C140 H142 0.951 . S
C141 C136 1.491 . S
C141 C143 1.382 . S
C141 C145 1.404 1_554 S
H142 C140 0.951 . S
C143 C141 1.382 . S
C143 C144 1.390 . S
C143 H148 0.949 . S
C144 C143 1.390 . S
C144 C149 1.399 . S
C145 C141 1.404 1_556 S
C145 H146 0.950 . S
C145 C147 1.375 1_556 S
H146 C145 0.950 . S
C147 C145 1.375 1_554 S
C147 C149 1.382 . S
C147 H151 0.950 1_554 S
H148 C143 0.949 . S
C149 C144 1.399 . S
C149 C147 1.382 . S
C149 H150 0.952 . S
H150 C149 0.952 . S
H151 C147 0.950 1_556 S
Eu152 C161 2.828 . S
Eu152 O163 2.392 . S
Eu152 O165 2.418 1_545 S
Eu152 O170 2.373 1_655 S
Eu152 O173 2.488 . S
Eu152 O174 2.471 . S
Eu152 O175 2.349 1_655 S
Eu153 O162 2.373 1_455 S
Eu153 O166 2.488 1_556 S
Eu153 O167 2.471 . S
Eu153 O168 2.349 . S
Eu153 O171 2.392 1_565 S
Eu153 O172 2.418 1_565 S
Eu153 C182 2.828 1_556 S
C154 O172 1.244 . S
C154 O175 1.265 . S
C155 C156 1.379 1_655 S
C155 C159 1.373 . S
C155 C161 1.505 . S
C156 C155 1.379 1_455 S
C156 C158 1.369 . S
C156 H184 0.930 . S
C157 C159 1.383 . S
C157 C160 1.382 1_655 S
C157 H185 0.930 . S
C158 C156 1.369 . S
C158 C160 1.392 . S
C158 H186 0.930 . S
C159 C155 1.373 . S
C159 C157 1.383 . S
C159 H187 0.931 . S
C160 C157 1.382 1_455 S
C160 C158 1.392 . S
C161 Eu152 2.828 . S
C161 C155 1.505 . S
C161 O173 1.249 . S
C161 O174 1.244 . S
O162 Eu153 2.373 1_655 S
O162 C164 1.258 1_565 S
O163 Eu152 2.392 . S
O163 C164 1.242 . S
C164 O162 1.258 1_545 S
C164 O163 1.242 . S
O165 Eu152 2.418 1_565 S
O165 C169 1.244 . S
O166 Eu153 2.488 1_554 S
O166 C182 1.249 . S
O167 Eu153 2.471 . S
O167 C182 1.244 1_556 S
O168 Eu153 2.349 . S
O168 C169 1.265 1_455 S
C169 O165 1.244 . S
C169 O168 1.265 1_655 S
O170 Eu152 2.373 1_455 S
O170 C183 1.258 . S
O171 Eu153 2.392 1_545 S
O171 C183 1.242 . S
O172 Eu153 2.418 1_545 S
O172 C154 1.244 . S
O173 Eu152 2.488 . S
O173 C161 1.249 . S
O174 Eu152 2.471 . S
O174 C161 1.244 . S
O175 Eu152 2.349 1_455 S
O175 C154 1.265 . S
C176 C177 1.379 . S
C176 C180 1.373 . S
C176 C182 1.505 . S
C177 C176 1.379 . S
C177 C179 1.369 . S
C177 H188 0.930 1_455 S
C178 C180 1.383 . S
C178 C181 1.382 . S
C178 H189 0.930 . S
C179 C177 1.369 . S
C179 C181 1.392 . S
C179 H190 0.930 1_455 S
C180 C176 1.373 . S
C180 C178 1.383 . S
C180 H191 0.931 . S
C181 C178 1.382 . S
C181 C179 1.392 . S
C182 Eu153 2.828 1_554 S
C182 O166 1.249 . S
C182 O167 1.244 1_554 S
C182 C176 1.505 . S
C183 O170 1.258 . S
C183 O171 1.242 . S
H184 C156 0.930 . S
H185 C157 0.930 . S
H186 C158 0.930 . S
H187 C159 0.931 . S
H188 C177 0.930 1_655 S
H189 C178 0.930 . S
H190 C179 0.930 1_655 S
H191 C180 0.931 . S
Eu192 C201 2.828 . S
Eu192 O203 2.392 . S
Eu192 O205 2.418 . S
Eu192 O210 2.373 . S
Eu192 O213 2.488 . S
Eu192 O214 2.471 . S
Eu192 O215 2.349 1_545 S
Eu193 O202 2.373 1_565 S
Eu193 O206 2.488 . S
Eu193 O207 2.471 1_565 S
Eu193 O208 2.349 1_565 S
Eu193 O211 2.392 . S
Eu193 O212 2.418 . S
Eu193 C222 2.828 . S
C194 O212 1.244 . S
C194 O215 1.265 . S
C195 C196 1.379 . S
C195 C199 1.373 . S
C195 C201 1.505 1_554 S
C196 C195 1.379 . S
C196 C198 1.369 . S
C196 H224 0.930 1_545 S
C197 C199 1.383 . S
C197 C200 1.382 . S
C197 H225 0.930 . S
C198 C196 1.369 . S
C198 C200 1.392 . S
C198 H226 0.930 1_545 S
C199 C195 1.373 . S
C199 C197 1.383 . S
C199 H227 0.931 . S
C200 C197 1.382 . S
C200 C198 1.392 . S
C201 Eu192 2.828 . S
C201 C195 1.505 1_556 S
C201 O213 1.249 . S
C201 O214 1.244 . S
O202 Eu193 2.373 1_545 S
O202 C204 1.258 . S
O203 Eu192 2.392 . S
O203 C204 1.242 . S
C204 O202 1.258 . S
C204 O203 1.242 . S
O205 Eu192 2.418 . S
O205 C209 1.244 . S
O206 Eu193 2.488 . S
O206 C222 1.249 . S
O207 Eu193 2.471 1_545 S
O207 C222 1.244 1_545 S
O208 Eu193 2.349 1_545 S
O208 C209 1.265 . S
C209 O205 1.244 . S
C209 O208 1.265 . S
O210 Eu192 2.373 . S
O210 C223 1.258 1_545 S
O211 Eu193 2.392 . S
O211 C223 1.242 . S
O212 Eu193 2.418 . S
O212 C194 1.244 . S
O213 Eu192 2.488 . S
O213 C201 1.249 . S
O214 Eu192 2.471 . S
O214 C201 1.244 . S
O215 Eu192 2.349 1_565 S
O215 C194 1.265 . S
C216 C217 1.379 1_565 S
C216 C220 1.373 . S
C216 C222 1.505 . S
C217 C216 1.379 1_545 S
C217 C219 1.369 . S
C217 H228 0.930 . S
C218 C220 1.383 . S
C218 C221 1.382 . S
C218 H229 0.930 . S
C219 C217 1.369 . S
C219 C221 1.392 1_545 S
C219 H230 0.930 . S
C220 C216 1.373 . S
C220 C218 1.383 . S
C220 H231 0.931 . S
C221 C218 1.382 . S
C221 C219 1.392 1_565 S
C222 Eu193 2.828 . S
C222 O206 1.249 . S
C222 O207 1.244 1_565 S
C222 C216 1.505 . S
C223 O210 1.258 1_565 S
C223 O211 1.242 . S
H224 C196 0.930 1_565 S
H225 C197 0.930 . S
H226 C198 0.930 1_565 S
H227 C199 0.931 . S
H228 C217 0.930 . S
H229 C218 0.930 . S
H230 C219 0.930 . S
H231 C220 0.931 . S
Eu232 C241 2.828 . S
Eu232 O243 2.392 . S
Eu232 O245 2.418 . S
Eu232 O250 2.373 . S
Eu232 O253 2.488 . S
Eu232 O254 2.471 . S
Eu232 O255 2.349 . S
Eu233 O242 2.373 . S
Eu233 O246 2.488 . S
Eu233 O247 2.471 . S
Eu233 O248 2.349 . S
Eu233 O251 2.392 . S
Eu233 O252 2.418 . S
Eu233 C262 2.828 . S
C234 O252 1.244 . S
C234 O255 1.265 . S
C235 C236 1.379 . S
C235 C239 1.373 . S
C235 C241 1.505 1_554 S
C236 C235 1.379 . S
C236 C238 1.369 . S
C236 H264 0.930 . S
C237 C239 1.383 . S
C237 C240 1.382 . S
C237 H265 0.930 . S
C238 C236 1.369 . S
C238 C240 1.392 . S
C238 H266 0.930 . S
C239 C235 1.373 . S
C239 C237 1.383 . S
C239 H267 0.931 . S
C240 C237 1.382 . S
C240 C238 1.392 . S
C241 Eu232 2.828 . S
C241 C235 1.505 1_556 S
C241 O253 1.249 . S
C241 O254 1.244 . S
O242 Eu233 2.373 . S
O242 C244 1.258 . S
O243 Eu232 2.392 . S
O243 C244 1.242 . S
C244 O242 1.258 . S
C244 O243 1.242 . S
O245 Eu232 2.418 . S
O245 C249 1.244 . S
O246 Eu233 2.488 . S
O246 C262 1.249 . S
O247 Eu233 2.471 . S
O247 C262 1.244 . S
O248 Eu233 2.349 . S
O248 C249 1.265 . S
C249 O245 1.244 . S
C249 O248 1.265 . S
O250 Eu232 2.373 . S
O250 C263 1.258 . S
O251 Eu233 2.392 . S
O251 C263 1.242 . S
O252 Eu233 2.418 . S
O252 C234 1.244 . S
O253 Eu232 2.488 . S
O253 C241 1.249 . S
O254 Eu232 2.471 . S
O254 C241 1.244 . S
O255 Eu232 2.349 . S
O255 C234 1.265 . S
C256 C257 1.379 . S
C256 C260 1.373 . S
C256 C262 1.505 . S
C257 C256 1.379 . S
C257 C259 1.369 . S
C257 H268 0.930 . S
C258 C260 1.383 . S
C258 C261 1.382 . S
C258 H269 0.930 . S
C259 C257 1.369 . S
C259 C261 1.392 . S
C259 H270 0.930 . S
C260 C256 1.373 . S
C260 C258 1.383 . S
C260 H271 0.931 . S
C261 C258 1.382 . S
C261 C259 1.392 . S
C262 Eu233 2.828 . S
C262 O246 1.249 . S
C262 O247 1.244 . S
C262 C256 1.505 . S
C263 O250 1.258 . S
C263 O251 1.242 . S
H264 C236 0.930 . S
H265 C237 0.930 . S
H266 C238 0.930 . S
H267 C239 0.931 . S
H268 C257 0.930 . S
H269 C258 0.930 . S
H270 C259 0.930 . S
H271 C260 0.931 . S
Eu272 C281 2.828 . S
Eu272 O283 2.392 . S
Eu272 O285 2.418 1_455 S
Eu272 O290 2.373 . S
Eu272 O293 2.488 . S
Eu272 O294 2.471 . S
Eu272 O295 2.349 . S
Eu273 O282 2.373 . S
Eu273 O286 2.488 1_556 S
Eu273 O287 2.471 . S
Eu273 O288 2.349 . S
Eu273 O291 2.392 1_655 S
Eu273 O292 2.418 1_655 S
Eu273 C302 2.828 1_556 S
C274 O292 1.244 . S
C274 O295 1.265 . S
C275 C276 1.379 . S
C275 C279 1.373 . S
C275 C281 1.505 . S
C276 C275 1.379 . S
C276 C278 1.369 . S
C276 H304 0.930 . S
C277 C279 1.383 . S
C277 C280 1.382 . S
C277 H305 0.930 . S
C278 C276 1.369 . S
C278 C280 1.392 . S
C278 H306 0.930 . S
C279 C275 1.373 . S
C279 C277 1.383 . S
C279 H307 0.931 . S
C280 C277 1.382 . S
C280 C278 1.392 . S
C281 Eu272 2.828 . S
C281 C275 1.505 . S
C281 O293 1.249 . S
C281 O294 1.244 . S
O282 Eu273 2.373 . S
O282 C284 1.258 1_655 S
O283 Eu272 2.392 . S
O283 C284 1.242 . S
C284 O282 1.258 1_455 S
C284 O283 1.242 . S
O285 Eu272 2.418 1_655 S
O285 C289 1.244 . S
O286 Eu273 2.488 1_554 S
O286 C302 1.249 . S
O287 Eu273 2.471 . S
O287 C302 1.244 1_556 S
O288 Eu273 2.349 . S
O288 C289 1.265 . S
C289 O285 1.244 . S
C289 O288 1.265 . S
O290 Eu272 2.373 . S
O290 C303 1.258 . S
O291 Eu273 2.392 1_455 S
O291 C303 1.242 . S
O292 Eu273 2.418 1_455 S
O292 C274 1.244 . S
O293 Eu272 2.488 . S
O293 C281 1.249 . S
O294 Eu272 2.471 . S
O294 C281 1.244 . S
O295 Eu272 2.349 . S
O295 C274 1.265 . S
C296 C297 1.379 . S
C296 C300 1.373 . S
C296 C302 1.505 . S
C297 C296 1.379 . S
C297 C299 1.369 . S
C297 H308 0.930 . S
C298 C300 1.383 . S
C298 C301 1.382 . S
C298 H309 0.930 . S
C299 C297 1.369 . S
C299 C301 1.392 . S
C299 H310 0.930 . S
C300 C296 1.373 . S
C300 C298 1.383 . S
C300 H311 0.931 . S
C301 C298 1.382 . S
C301 C299 1.392 . S
C302 Eu273 2.828 1_554 S
C302 O286 1.249 . S
C302 O287 1.244 1_554 S
C302 C296 1.505 . S
C303 O290 1.258 . S
C303 O291 1.242 . S
H304 C276 0.930 . S
H305 C277 0.930 . S
H306 C278 0.930 . S
H307 C279 0.931 . S
H308 C297 0.930 . S
H309 C298 0.930 . S
H310 C299 0.930 . S
H311 C300 0.931 . S
C312 C313 1.363 . S
C312 C318 1.379 . S
C312 N320 1.356 1_545 S
C313 C312 1.363 . S
C313 C319 1.363 . S
C314 C315 1.363 . S
C314 C319 1.379 . S
C314 N321 1.356 . S
C315 C314 1.363 . S
C315 C318 1.363 . S
N316 C318 1.356 1_565 S
N316 H328 0.984 . S
N316 H329 0.985 . S
N317 C319 1.356 . S
N317 H322 0.984 . S
N317 H323 0.985 . S
C318 C312 1.379 . S
C318 C315 1.363 . S
C318 N316 1.356 1_545 S
C319 C313 1.363 . S
C319 C314 1.379 . S
C319 N317 1.356 . S
N320 C312 1.356 1_565 S
N320 H326 0.984 . S
N320 H327 0.994 . S
N321 C314 1.356 . S
N321 H324 0.984 . S
N321 H325 0.985 . S
H322 N317 0.984 . S
H323 N317 0.985 . S
H324 N321 0.984 . S
H325 N321 0.985 . S
H326 N320 0.984 . S
H327 N320 0.994 . S
H328 N316 0.984 . S
H329 N316 0.985 . S
C330 C331 1.363 . S
C330 C336 1.379 . S
C330 N338 1.356 . S
C331 C330 1.363 . S
C331 C337 1.363 . S
C332 C333 1.363 . S
C332 C337 1.379 . S
C332 N339 1.356 . S
C333 C332 1.363 . S
C333 C336 1.363 . S
N334 C336 1.356 . S
N334 H346 0.984 . S
N334 H347 0.985 . S
N335 C337 1.356 . S
N335 H340 0.984 . S
N335 H341 0.985 . S
C336 C330 1.379 . S
C336 C333 1.363 . S
C336 N334 1.356 . S
C337 C331 1.363 . S
C337 C332 1.379 . S
C337 N335 1.356 . S
N338 C330 1.356 . S
N338 H344 0.984 . S
N338 H345 0.984 . S
N339 C332 1.356 . S
N339 H342 0.984 . S
N339 H343 0.985 . S
H340 N335 0.984 . S
H341 N335 0.985 . S
H342 N339 0.984 . S
H343 N339 0.985 . S
H344 N338 0.984 . S
H345 N338 0.984 . S
H346 N334 0.984 . S
H347 N334 0.985 . S
C348 C349 1.363 . S
C348 C354 1.379 . S
C348 N356 1.356 . S
C349 C348 1.363 . S
C349 C355 1.363 . S
C350 C351 1.363 . S
C350 C355 1.379 . S
C350 N357 1.356 . S
C351 C350 1.363 . S
C351 C354 1.363 . S
N352 C354 1.356 . S
N352 H364 0.984 . S
N352 H365 0.985 . S
N353 C355 1.356 . S
N353 H358 0.984 . S
N353 H359 0.985 . S
C354 C348 1.379 . S
C354 C351 1.363 . S
C354 N352 1.356 . S
C355 C349 1.363 . S
C355 C350 1.379 . S
C355 N353 1.356 . S
N356 C348 1.356 . S
N356 H362 0.984 . S
N356 H363 0.984 . S
N357 C350 1.356 . S
N357 H360 0.984 . S
N357 H361 0.985 . S
H358 N353 0.984 . S
H359 N353 0.985 . S
H360 N357 0.984 . S
H361 N357 0.985 . S
H362 N356 0.984 . S
H363 N356 0.984 . S
H364 N352 0.984 . S
H365 N352 0.985 . S
C366 C367 1.363 . S
C366 C372 1.379 . S
C366 N374 1.356 . S
C367 C366 1.363 . S
C367 C373 1.363 . S
C368 C369 1.363 . S
C368 C373 1.379 . S
C368 N375 1.356 . S
C369 C368 1.363 . S
C369 C372 1.363 . S
N370 C372 1.356 . S
N370 H382 0.984 . S
N370 H383 0.985 . S
N371 C373 1.356 . S
N371 H376 0.984 . S
N371 H377 0.985 . S
C372 C366 1.379 . S
C372 C369 1.363 . S
C372 N370 1.356 . S
C373 C367 1.363 . S
C373 C368 1.379 . S
C373 N371 1.356 . S
N374 C366 1.356 . S
N374 H380 0.984 . S
N374 H381 0.984 . S
N375 C368 1.356 . S
N375 H378 0.984 . S
N375 H379 0.985 . S
H376 N371 0.984 . S
H377 N371 0.985 . S
H378 N375 0.984 . S
H379 N375 0.985 . S
H380 N374 0.984 . S
H381 N374 0.984 . S
H382 N370 0.984 . S
H383 N370 0.985 . S
C384 C385 1.363 . S
C384 C390 1.379 . S
C384 N392 1.356 . S
C385 C384 1.363 . S
C385 C391 1.363 1_565 S
C386 C387 1.363 1_545 S
C386 C391 1.379 . S
C386 N393 1.356 1_554 S
C387 C386 1.363 1_565 S
C387 C390 1.363 . S
N388 C390 1.356 . S
N388 H400 0.984 . S
N388 H401 0.985 1_554 S
N389 C391 1.356 . S
N389 H394 0.984 . S
N389 H395 0.985 . S
C390 C384 1.379 . S
C390 C387 1.363 . S
C390 N388 1.356 . S
C391 C385 1.363 1_545 S
C391 C386 1.379 . S
C391 N389 1.356 . S
N392 C384 1.356 . S
N392 H398 0.984 . S
N392 H399 0.984 . S
N393 C386 1.356 1_556 S
N393 H396 0.984 . S
N393 H397 0.985 . S
H394 N389 0.984 . S
H395 N389 0.985 . S
H396 N393 0.984 . S
H397 N393 0.985 . S
H398 N392 0.984 . S
H399 N392 0.984 . S
H400 N388 0.984 . S
H401 N388 0.985 1_556 S
C402 C403 1.363 . S
C402 C408 1.379 . S
C402 N410 1.356 . S
C403 C402 1.363 . S
C403 C409 1.363 . S
C404 C405 1.363 1_554 S
C404 C409 1.379 . S
C404 N411 1.356 . S
C405 C404 1.363 1_556 S
C405 C408 1.363 1_556 S
N406 C408 1.356 1_556 S
N406 H418 0.984 . S
N406 H419 0.985 . S
N407 C409 1.356 . S
N407 H412 0.984 . S
N407 H413 0.985 . S
C408 C402 1.379 . S
C408 C405 1.363 1_554 S
C408 N406 1.356 1_554 S
C409 C403 1.363 . S
C409 C404 1.379 . S
C409 N407 1.356 . S
N410 C402 1.356 . S
N410 H416 0.984 . S
N410 H417 0.984 . S
N411 C404 1.356 . S
N411 H414 0.984 1_554 S
N411 H415 0.985 . S
H412 N407 0.984 . S
H413 N407 0.985 . S
H414 N411 0.984 1_556 S
H415 N411 0.985 . S
H416 N410 0.984 . S
H417 N410 0.984 . S
H418 N406 0.984 . S
H419 N406 0.985 . S
C420 C421 1.363 . S
C420 C426 1.379 . S
C420 N428 1.356 . S
C421 C420 1.363 . S
C421 C427 1.363 . S
C422 C423 1.363 1_554 S
C422 C427 1.379 . S
C422 N429 1.356 . S
C423 C422 1.363 1_556 S
C423 C426 1.363 1_556 S
N424 C426 1.356 1_556 S
N424 H436 0.984 . S
N424 H437 0.985 . S
N425 C427 1.356 . S
N425 H430 0.984 . S
N425 H431 0.985 . S
C426 C420 1.379 . S
C426 C423 1.363 1_554 S
C426 N424 1.356 1_554 S
C427 C421 1.363 . S
C427 C422 1.379 . S
C427 N425 1.356 . S
N428 C420 1.356 . S
N428 H434 0.984 . S
N428 H435 0.984 . S
N429 C422 1.356 . S
N429 H432 0.984 1_554 S
N429 H433 0.985 . S
H430 N425 0.984 . S
H431 N425 0.985 . S
H432 N429 0.984 1_556 S
H433 N429 0.985 . S
H434 N428 0.984 . S
H435 N428 0.984 . S
H436 N424 0.984 . S
H437 N424 0.985 . S
C438 C439 1.363 1_455 S
C438 C444 1.379 . S
C438 N446 1.356 . S
C439 C438 1.363 1_655 S
C439 C445 1.363 . S
C440 C441 1.363 . S
C440 C445 1.379 . S
C440 N447 1.356 1_554 S
C441 C440 1.363 . S
C441 C444 1.363 1_655 S
N442 C444 1.356 . S
N442 H454 0.984 . S
N442 H455 0.985 . S
N443 C445 1.356 . S
N443 H448 0.984 . S
N443 H449 0.985 . S
C444 C438 1.379 . S
C444 C441 1.363 1_455 S
C444 N442 1.356 . S
C445 C439 1.363 . S
C445 C440 1.379 . S
C445 N443 1.356 . S
N446 C438 1.356 . S
N446 H452 0.984 . S
N446 H453 0.984 . S
N447 C440 1.356 1_556 S
N447 H450 0.984 . S
N447 H451 0.985 . S
H448 N443 0.984 . S
H449 N443 0.985 . S
H450 N447 0.984 . S
H451 N447 0.985 . S
H452 N446 0.984 . S
H453 N446 0.984 . S
H454 N442 0.984 . S
H455 N442 0.985 . S
C456 C457 1.363 . S
C456 C462 1.379 . S
C456 N464 1.356 . S
C457 C456 1.363 . S
C457 C463 1.363 . S
C458 C459 1.363 . S
C458 C463 1.379 . S
C458 N465 1.356 1_455 S
C459 C458 1.363 . S
C459 C462 1.363 . S
N460 C462 1.356 . S
N460 H472 0.984 . S
N460 H473 0.985 . S
N461 C463 1.356 . S
N461 H466 0.984 . S
N461 H467 0.985 1_554 S
C462 C456 1.379 . S
C462 C459 1.363 . S
C462 N460 1.356 . S
C463 C457 1.363 . S
C463 C458 1.379 . S
C463 N461 1.356 . S
N464 C456 1.356 . S
N464 H470 0.984 . S
N464 H471 0.984 . S
N465 C458 1.356 1_655 S
N465 H468 0.984 . S
N465 H469 0.985 1_554 S
H466 N461 0.984 . S
H467 N461 0.985 1_556 S
H468 N465 0.984 . S
H469 N465 0.985 1_556 S
H470 N464 0.984 . S
H471 N464 0.984 . S
H472 N460 0.984 . S
H473 N460 0.985 . S
C474 C475 1.394 . S
C474 C480 1.358 1_545 S
C474 N482 1.356 1_545 S
C475 C474 1.394 . S
C475 C481 1.363 . S
C476 C477 1.363 1_545 S
C476 C481 1.379 . S
C476 N483 1.356 . S
C477 C476 1.363 1_565 S
C477 C480 1.363 . S
N478 C480 1.356 . S
N478 H490 0.984 . S
N478 H491 0.985 . S
N479 C481 1.356 . S
N479 H484 0.984 . S
N479 H485 0.985 . S
C480 C474 1.358 1_565 S
C480 C477 1.363 . S
C480 N478 1.356 . S
C481 C475 1.363 . S
C481 C476 1.379 . S
C481 N479 1.356 . S
N482 C474 1.356 1_565 S
N482 H488 0.988 . S
N482 H489 0.981 1_565 S
N483 C476 1.356 . S
N483 H486 0.984 . S
N483 H487 0.985 . S
H484 N479 0.984 . S
H485 N479 0.985 . S
H486 N483 0.984 . S
H487 N483 0.985 . S
H488 N482 0.988 . S
H489 N482 0.981 1_545 S
H490 N478 0.984 . S
H491 N478 0.985 . S
C492 C493 1.363 . S
C492 C498 1.379 . S
C492 N500 1.356 . S
C493 C492 1.363 . S
C493 C499 1.363 . S
C494 C495 1.363 . S
C494 C499 1.379 . S
C494 N501 1.356 . S
C495 C494 1.363 . S
C495 C498 1.363 . S
N496 C498 1.356 . S
N496 H508 0.984 . S
N496 H509 0.985 . S
N497 C499 1.356 . S
N497 H502 0.984 . S
N497 H503 0.985 . S
C498 C492 1.379 . S
C498 C495 1.363 . S
C498 N496 1.356 . S
C499 C493 1.363 . S
C499 C494 1.379 . S
C499 N497 1.356 . S
N500 C492 1.356 . S
N500 H506 0.984 . S
N500 H507 0.984 . S
N501 C494 1.356 . S
N501 H504 0.984 . S
N501 H505 0.985 . S
H502 N497 0.984 . S
H503 N497 0.985 . S
H504 N501 0.984 . S
H505 N501 0.985 . S
H506 N500 0.984 . S
H507 N500 0.984 . S
H508 N496 0.984 . S
H509 N496 0.985 . S
C510 C511 1.363 . S
C510 C516 1.379 . S
C510 N518 1.356 . S
C511 C510 1.363 . S
C511 C517 1.363 . S
C512 C513 1.363 . S
C512 C517 1.379 . S
C512 N519 1.356 . S
C513 C512 1.363 . S
C513 C516 1.363 . S
N514 C516 1.356 . S
N514 H526 0.984 1_554 S
N514 H527 0.985 . S
N515 C517 1.356 . S
N515 H520 0.984 . S
N515 H521 0.985 . S
C516 C510 1.379 . S
C516 C513 1.363 . S
C516 N514 1.356 . S
C517 C511 1.363 . S
C517 C512 1.379 . S
C517 N515 1.356 . S
N518 C510 1.356 . S
N518 H524 0.984 1_554 S
N518 H525 0.984 . S
N519 C512 1.356 . S
N519 H522 0.984 . S
N519 H523 0.985 . S
H520 N515 0.984 . S
H521 N515 0.985 . S
H522 N519 0.984 . S
H523 N519 0.985 . S
H524 N518 0.984 1_556 S
H525 N518 0.984 . S
H526 N514 0.984 1_556 S
H527 N514 0.985 . S
C528 C529 1.363 . S
C528 C534 1.379 . S
C528 N536 1.356 . S
C529 C528 1.363 . S
C529 C535 1.364 1_655 S
C530 C531 1.363 . S
C530 C535 1.378 . S
C530 N537 1.356 . S
C531 C530 1.363 . S
C531 C534 1.363 1_455 S
N532 C534 1.356 . S
N532 H544 0.984 . S
N532 H545 0.985 1_655 S
N533 C535 1.356 1_655 S
N533 H538 0.984 . S
N533 H539 0.985 1_655 S
C534 C528 1.379 . S
C534 C531 1.363 1_655 S
C534 N532 1.356 . S
C535 C529 1.364 1_455 S
C535 C530 1.378 . S
C535 N533 1.356 1_455 S
N536 C528 1.356 . S
N536 H542 0.984 . S
N536 H543 0.984 . S
N537 C530 1.356 . S
N537 H540 0.984 . S
N537 H541 0.985 . S
H538 N533 0.984 . S
H539 N533 0.985 1_455 S
H540 N537 0.984 . S
H541 N537 0.985 . S
H542 N536 0.984 . S
H543 N536 0.984 . S
H544 N532 0.984 . S
H545 N532 0.985 1_455 S
C546 C547 1.363 1_545 S
C546 C552 1.379 . S
C546 N554 1.356 1_545 S
C547 C546 1.363 1_565 S
C547 C553 1.363 . S
C548 C549 1.363 . S
C548 C553 1.379 1_545 S
C548 N555 1.356 . S
C549 C548 1.363 . S
C549 C552 1.363 . S
N550 C552 1.356 . S
N550 H562 0.984 . S
N550 H563 0.985 . S
N551 C553 1.356 . S
N551 H556 0.984 . S
N551 H557 0.985 . S
C552 C546 1.379 . S
C552 C549 1.363 . S
C552 N550 1.356 . S
C553 C547 1.363 . S
C553 C548 1.379 1_565 S
C553 N551 1.356 . S
N554 C546 1.356 1_565 S
N554 H560 0.984 1_565 S
N554 H561 0.984 . S
N555 C548 1.356 . S
N555 H558 0.984 . S
N555 H559 0.985 . S
H556 N551 0.984 . S
H557 N551 0.985 . S
H558 N555 0.984 . S
H559 N555 0.985 . S
H560 N554 0.984 1_545 S
H561 N554 0.984 . S
H562 N550 0.984 . S
H563 N550 0.985 . S
C564 C565 1.363 . S
C564 C570 1.379 . S
C564 N572 1.356 . S
C565 C564 1.363 . S
C565 C571 1.363 . S
C566 C567 1.363 . S
C566 C571 1.379 . S
C566 N573 1.356 . S
C567 C566 1.363 . S
C567 C570 1.363 . S
N568 C570 1.356 . S
N568 H580 0.984 1_554 S
N568 H581 0.985 1_554 S
N569 C571 1.356 . S
N569 H574 0.984 . S
N569 H575 0.985 . S
C570 C564 1.379 . S
C570 C567 1.363 . S
C570 N568 1.356 . S
C571 C565 1.363 . S
C571 C566 1.379 . S
C571 N569 1.356 . S
N572 C564 1.356 . S
N572 H578 0.984 . S
N572 H579 0.984 . S
N573 C566 1.356 . S
N573 H576 0.984 . S
N573 H577 0.985 . S
H574 N569 0.984 . S
H575 N569 0.985 . S
H576 N573 0.984 . S
H577 N573 0.985 . S
H578 N572 0.984 . S
H579 N572 0.984 . S
H580 N568 0.984 1_556 S
H581 N568 0.985 1_556 S
C582 C583 1.363 . S
C582 C588 1.379 . S
C582 N590 1.356 . S
C583 C582 1.363 . S
C583 C589 1.363 . S
C584 C585 1.363 . S
C584 C589 1.379 . S
C584 N591 1.356 . S
C585 C584 1.363 . S
C585 C588 1.363 . S
N586 C588 1.356 . S
N586 H598 0.984 . S
N586 H599 0.985 . S
N587 C589 1.356 . S
N587 H592 0.984 . S
N587 H593 0.985 . S
C588 C582 1.379 . S
C588 C585 1.363 . S
C588 N586 1.356 . S
C589 C583 1.363 . S
C589 C584 1.379 . S
C589 N587 1.356 . S
N590 C582 1.356 . S
N590 H596 0.984 . S
N590 H597 0.984 . S
N591 C584 1.356 . S
N591 H594 0.984 . S
N591 H595 0.985 . S
H592 N587 0.984 . S
H593 N587 0.985 . S
H594 N591 0.984 . S
H595 N591 0.985 . S
H596 N590 0.984 . S
H597 N590 0.984 . S
H598 N586 0.984 . S
H599 N586 0.985 . S
C600 C601 1.363 . S
C600 C606 1.379 . S
C600 N608 1.356 . S
C601 C600 1.363 . S
C601 C607 1.363 . S
C602 C603 1.363 . S
C602 C607 1.379 . S
C602 N609 1.356 . S
C603 C602 1.363 . S
C603 C606 1.363 . S
N604 C606 1.356 1_554 S
N604 H616 0.984 . S
N604 H617 0.985 1_554 S
N605 C607 1.356 . S
N605 H610 0.984 . S
N605 H611 0.985 1_455 S
C606 C600 1.379 . S
C606 C603 1.363 . S
C606 N604 1.356 1_556 S
C607 C601 1.363 . S
C607 C602 1.379 . S
C607 N605 1.356 . S
N608 C600 1.356 . S
N608 H614 0.984 1_556 S
N608 H615 0.984 . S
N609 C602 1.356 . S
N609 H612 0.984 . S
N609 H613 0.985 1_455 S
H610 N605 0.984 . S
H611 N605 0.985 1_655 S
H612 N609 0.984 . S
H613 N609 0.985 1_655 S
H614 N608 0.984 1_554 S
H615 N608 0.984 . S
H616 N604 0.984 . S
H617 N604 0.985 1_556 S
C618 C619 1.363 . S
C618 C624 1.379 . S
C618 N626 1.356 . S
C619 C618 1.363 . S
C619 C625 1.363 . S
C620 C621 1.363 . S
C620 C625 1.379 . S
C620 N627 1.356 . S
C621 C620 1.363 . S
C621 C624 1.363 . S
N622 C624 1.356 . S
N622 H634 0.984 . S
N622 H635 0.985 . S
N623 C625 1.356 . S
N623 H628 0.984 . S
N623 H629 0.985 1_556 S
C624 C618 1.379 . S
C624 C621 1.363 . S
C624 N622 1.356 . S
C625 C619 1.363 . S
C625 C620 1.379 . S
C625 N623 1.356 . S
N626 C618 1.356 . S
N626 H632 0.984 . S
N626 H633 0.984 . S
N627 C620 1.356 . S
N627 H630 0.984 . S
N627 H631 0.985 1_556 S
H628 N623 0.984 . S
H629 N623 0.985 1_554 S
H630 N627 0.984 . S
H631 N627 0.985 1_554 S
H632 N626 0.984 . S
H633 N626 0.984 . S
H634 N622 0.984 . S
H635 N622 0.985 . S
C636 C637 1.363 . S
C636 C642 1.379 . S
C636 N644 1.356 1_556 S
C637 C636 1.363 . S
C637 C643 1.363 . S
C638 C639 1.363 . S
C638 C643 1.379 . S
C638 N645 1.356 . S
C639 C638 1.363 . S
C639 C642 1.363 . S
N640 C642 1.356 . S
N640 H652 0.984 1_556 S
N640 H653 0.985 . S
N641 C643 1.356 . S
N641 H646 0.984 . S
N641 H647 0.985 . S
C642 C636 1.379 . S
C642 C639 1.363 . S
C642 N640 1.356 . S
C643 C637 1.363 . S
C643 C638 1.379 . S
C643 N641 1.356 . S
N644 C636 1.356 1_554 S
N644 H650 0.984 . S
N644 H651 0.984 . S
N645 C638 1.356 . S
N645 H648 0.984 . S
N645 H649 0.985 . S
H646 N641 0.984 . S
H647 N641 0.985 . S
H648 N645 0.984 . S
H649 N645 0.985 . S
H650 N644 0.984 . S
H651 N644 0.984 . S
H652 N640 0.984 1_554 S
H653 N640 0.985 . S
C654 C655 1.363 . S
C654 C660 1.379 . S
C654 N662 1.356 . S
C655 C654 1.363 . S
C655 C661 1.363 . S
C656 C657 1.363 . S
C656 C661 1.379 . S
C656 N663 1.356 1_556 S
C657 C656 1.363 . S
C657 C660 1.363 . S
N658 C660 1.356 . S
N658 H670 0.984 . S
N658 H671 0.985 . S
N659 C661 1.356 1_554 S
N659 H664 0.984 . S
N659 H665 0.985 . S
C660 C654 1.379 . S
C660 C657 1.363 . S
C660 N658 1.356 . S
C661 C655 1.363 . S
C661 C656 1.379 . S
C661 N659 1.356 1_556 S
N662 C654 1.356 . S
N662 H668 0.984 . S
N662 H669 0.984 . S
N663 C656 1.356 1_554 S
N663 H666 0.984 . S
N663 H667 0.985 . S
H664 N659 0.984 . S
H665 N659 0.985 . S
H666 N663 0.984 . S
H667 N663 0.985 . S
H668 N662 0.984 . S
H669 N662 0.984 . S
H670 N658 0.984 . S
H671 N658 0.985 . S
C672 C673 1.363 . S
C672 C678 1.379 . S
C672 N680 1.356 . S
C673 C672 1.363 . S
C673 C679 1.363 . S
C674 C675 1.363 1_455 S
C674 C679 1.379 1_455 S
C674 N681 1.356 . S
C675 C674 1.363 1_655 S
C675 C678 1.363 . S
N676 C678 1.356 . S
N676 H688 0.984 . S
N676 H689 0.985 . S
N677 C679 1.356 1_455 S
N677 H682 0.977 1_455 S
N677 H683 0.985 . S
C678 C672 1.379 . S
C678 C675 1.363 . S
C678 N676 1.356 . S
C679 C673 1.363 . S
C679 C674 1.379 1_655 S
C679 N677 1.356 1_655 S
N680 C672 1.356 . S
N680 H686 0.984 . S
N680 H687 0.984 . S
N681 C674 1.356 . S
N681 H684 0.984 . S
N681 H685 0.985 . S
H682 N677 0.977 1_655 S
H683 N677 0.985 . S
H684 N681 0.984 . S
H685 N681 0.985 . S
H686 N680 0.984 . S
H687 N680 0.984 . S
H688 N676 0.984 . S
H689 N676 0.985 . S
C690 C691 1.363 1_545 S
C690 C696 1.379 . S
C690 N698 1.356 . S
C691 C690 1.363 1_565 S
C691 C697 1.363 . S
C692 C693 1.363 . S
C692 C697 1.379 . S
C692 N699 1.356 . S
C693 C692 1.363 . S
C693 C696 1.363 1_565 S
N694 C696 1.356 . S
N694 H706 0.984 . S
N694 H707 0.985 . S
N695 C697 1.356 . S
N695 H700 0.984 . S
N695 H701 0.985 . S
C696 C690 1.379 . S
C696 C693 1.363 1_545 S
C696 N694 1.356 . S
C697 C691 1.363 . S
C697 C692 1.379 . S
C697 N695 1.356 . S
N698 C690 1.356 . S
N698 H704 0.984 . S
N698 H705 0.984 . S
N699 C692 1.356 . S
N699 H702 0.984 . S
N699 H703 0.985 . S
H700 N695 0.984 . S
H701 N695 0.985 . S
H702 N699 0.984 . S
H703 N699 0.985 . S
H704 N698 0.984 . S
H705 N698 0.984 . S
H706 N694 0.984 . S
H707 N694 0.985 . S
C708 C709 1.363 . S
C708 C714 1.379 . S
C708 N716 1.356 . S
C709 C708 1.363 . S
C709 C715 1.363 . S
C710 C711 1.363 . S
C710 C715 1.379 . S
C710 N717 1.356 . S
C711 C710 1.363 . S
C711 C714 1.363 . S
N712 C714 1.356 . S
N712 H724 0.984 . S
N712 H725 0.985 . S
N713 C715 1.356 . S
N713 H718 0.984 . S
N713 H719 0.985 . S
C714 C708 1.379 . S
C714 C711 1.363 . S
C714 N712 1.356 . S
C715 C709 1.363 . S
C715 C710 1.379 . S
C715 N713 1.356 . S
N716 C708 1.356 . S
N716 H722 0.984 . S
N716 H723 0.984 . S
N717 C710 1.356 . S
N717 H720 0.984 . S
N717 H721 0.985 . S
H718 N713 0.984 . S
H719 N713 0.985 . S
H720 N717 0.984 . S
H721 N717 0.985 . S
H722 N716 0.984 . S
H723 N716 0.984 . S
H724 N712 0.984 . S
H725 N712 0.985 . S
C726 C727 1.363 . S
C726 C732 1.379 . S
C726 N734 1.356 . S
C727 C726 1.363 . S
C727 C733 1.363 . S
C728 C729 1.363 . S
C728 C733 1.379 . S
C728 N735 1.356 . S
C729 C728 1.363 . S
C729 C732 1.363 . S
N730 C732 1.356 . S
N730 H742 0.984 . S
N730 H743 0.985 . S
N731 C733 1.356 . S
N731 H736 0.984 . S
N731 H737 0.985 . S
C732 C726 1.379 . S
C732 C729 1.363 . S
C732 N730 1.356 . S
C733 C727 1.363 . S
C733 C728 1.379 . S
C733 N731 1.356 . S
N734 C726 1.356 . S
N734 H740 0.984 . S
N734 H741 0.984 . S
N735 C728 1.356 . S
N735 H738 0.984 . S
N735 H739 0.985 . S
H736 N731 0.984 . S
H737 N731 0.985 . S
H738 N735 0.984 . S
H739 N735 0.985 . S
H740 N734 0.984 . S
H741 N734 0.984 . S
H742 N730 0.984 . S
H743 N730 0.985 . S
C313 C125 2.407 . S
C315 C183 2.445 . S
C333 C209 2.155 . S
C331 C144 2.133 . S
C351 C249 2.151 . S
C349 C87 2.072 . S
C369 C303 2.439 . S
C367 C106 2.368 . S
C387 C164 2.445 1_564 S
C385 C49 2.448 . S
C403 C68 2.077 . S
C405 C194 2.156 . S
C421 C11 2.115 . S
C423 C234 2.151 . S
C439 C30 2.442 . S
C441 C284 2.439 1_654 S
C459 C160 0.919 . S
C457 C97 0.888 . S
C477 C221 0.914 . S
C475 C116 0.919 . S
C495 C261 0.763 . S
C493 C135 0.763 . S
C511 C78 0.815 . S
C513 C280 0.833 . S
C529 C21 0.890 . S
C531 C181 0.919 . S
C549 C200 0.914 . S
C547 C40 0.921 . S
C567 C240 0.763 . S
C565 C59 0.763 . S
C583 C2 0.815 . S
C585 C301 0.833 . S
C601 C101 2.093 . S
C603 C154 2.408 . S
C619 C120 2.434 . S
C621 C204 2.698 . S
C639 C244 2.503 . S
C637 C139 2.265 . S
C657 C274 2.188 . S
C655 C82 1.906 . S
C673 C25 2.097 . S
C675 C169 2.408 . S
C693 C223 2.697 . S
C691 C44 2.434 . S
C711 C263 2.503 . S
C709 C63 2.260 . S
C727 C6 1.908 . S
C729 C289 2.188 . S
