# Generated by pormake.
# Topology llk, (3,12)-cn, num edge types: 1
# Building blocks:
#     Node 0, Type 0, BuildingBlock: CUQRIR_clean_linker_1, # of connection points: 3
#     Node 1, Type 0, BuildingBlock: CUQRIR_clean_linker_1, # of connection points: 3
#     Node 2, Type 0, BuildingBlock: CUQRIR_clean_linker_1, # of connection points: 3
#     Node 3, Type 0, BuildingBlock: CUQRIR_clean_linker_1, # of connection points: 3
#     Node 4, Type 0, BuildingBlock: CUQRIR_clean_linker_1, # of connection points: 3
#     Node 5, Type 0, BuildingBlock: CUQRIR_clean_linker_1, # of connection points: 3
#     Node 6, Type 0, BuildingBlock: CUQRIR_clean_linker_1, # of connection points: 3
#     Node 7, Type 0, BuildingBlock: CUQRIR_clean_linker_1, # of connection points: 3
#     Node 8, Type 0, BuildingBlock: CUQRIR_clean_linker_1, # of connection points: 3
#     Node 9, Type 0, BuildingBlock: CUQRIR_clean_linker_1, # of connection points: 3
#     Node 10, Type 0, BuildingBlock: CUQRIR_clean_linker_1, # of connection points: 3
#     Node 11, Type 0, BuildingBlock: CUQRIR_clean_linker_1, # of connection points: 3
#     Node 12, Type 0, BuildingBlock: CUQRIR_clean_linker_1, # of connection points: 3
#     Node 13, Type 0, BuildingBlock: CUQRIR_clean_linker_1, # of connection points: 3
#     Node 14, Type 0, BuildingBlock: CUQRIR_clean_linker_1, # of connection points: 3
#     Node 15, Type 0, BuildingBlock: CUQRIR_clean_linker_1, # of connection points: 3
#     Node 16, Type 0, BuildingBlock: CUQRIR_clean_linker_1, # of connection points: 3
#     Node 17, Type 0, BuildingBlock: CUQRIR_clean_linker_1, # of connection points: 3
#     Node 18, Type 0, BuildingBlock: CUQRIR_clean_linker_1, # of connection points: 3
#     Node 19, Type 0, BuildingBlock: CUQRIR_clean_linker_1, # of connection points: 3
#     Node 20, Type 0, BuildingBlock: CUQRIR_clean_linker_1, # of connection points: 3
#     Node 21, Type 0, BuildingBlock: CUQRIR_clean_linker_1, # of connection points: 3
#     Node 22, Type 0, BuildingBlock: CUQRIR_clean_linker_1, # of connection points: 3
#     Node 23, Type 0, BuildingBlock: CUQRIR_clean_linker_1, # of connection points: 3
#     Node 24, Type 1, BuildingBlock: EZIPEK_clean_sbu_0, # of connection points: 12
#     Node 25, Type 1, BuildingBlock: EZIPEK_clean_sbu_0, # of connection points: 12
#     Node 26, Type 1, BuildingBlock: EZIPEK_clean_sbu_0, # of connection points: 12
#     Node 27, Type 1, BuildingBlock: EZIPEK_clean_sbu_0, # of connection points: 12
#     Node 28, Type 1, BuildingBlock: EZIPEK_clean_sbu_0, # of connection points: 12
#     Node 29, Type 1, BuildingBlock: EZIPEK_clean_sbu_0, # of connection points: 12
#     Edge 30, Type (0, 1), BuildingBlock: XIVTED_clean_linker_0, # of connection points: 2
#     Edge 31, Type (0, 1), BuildingBlock: XIVTED_clean_linker_0, # of connection points: 2
#     Edge 32, Type (0, 1), BuildingBlock: XIVTED_clean_linker_0, # of connection points: 2
#     Edge 33, Type (0, 1), BuildingBlock: XIVTED_clean_linker_0, # of connection points: 2
#     Edge 34, Type (0, 1), BuildingBlock: XIVTED_clean_linker_0, # of connection points: 2
#     Edge 35, Type (0, 1), BuildingBlock: XIVTED_clean_linker_0, # of connection points: 2
#     Edge 36, Type (0, 1), BuildingBlock: XIVTED_clean_linker_0, # of connection points: 2
#     Edge 37, Type (0, 1), BuildingBlock: XIVTED_clean_linker_0, # of connection points: 2
#     Edge 38, Type (0, 1), BuildingBlock: XIVTED_clean_linker_0, # of connection points: 2
#     Edge 39, Type (0, 1), BuildingBlock: XIVTED_clean_linker_0, # of connection points: 2
#     Edge 40, Type (0, 1), BuildingBlock: XIVTED_clean_linker_0, # of connection points: 2
#     Edge 41, Type (0, 1), BuildingBlock: XIVTED_clean_linker_0, # of connection points: 2
#     Edge 42, Type (0, 1), BuildingBlock: XIVTED_clean_linker_0, # of connection points: 2
#     Edge 43, Type (0, 1), BuildingBlock: XIVTED_clean_linker_0, # of connection points: 2
#     Edge 44, Type (0, 1), BuildingBlock: XIVTED_clean_linker_0, # of connection points: 2
#     Edge 45, Type (0, 1), BuildingBlock: XIVTED_clean_linker_0, # of connection points: 2
#     Edge 46, Type (0, 1), BuildingBlock: XIVTED_clean_linker_0, # of connection points: 2
#     Edge 47, Type (0, 1), BuildingBlock: XIVTED_clean_linker_0, # of connection points: 2
#     Edge 48, Type (0, 1), BuildingBlock: XIVTED_clean_linker_0, # of connection points: 2
#     Edge 49, Type (0, 1), BuildingBlock: XIVTED_clean_linker_0, # of connection points: 2
#     Edge 50, Type (0, 1), BuildingBlock: XIVTED_clean_linker_0, # of connection points: 2
#     Edge 51, Type (0, 1), BuildingBlock: XIVTED_clean_linker_0, # of connection points: 2
#     Edge 52, Type (0, 1), BuildingBlock: XIVTED_clean_linker_0, # of connection points: 2
#     Edge 53, Type (0, 1), BuildingBlock: XIVTED_clean_linker_0, # of connection points: 2
#     Edge 54, Type (0, 1), BuildingBlock: XIVTED_clean_linker_0, # of connection points: 2
#     Edge 55, Type (0, 1), BuildingBlock: XIVTED_clean_linker_0, # of connection points: 2
#     Edge 56, Type (0, 1), BuildingBlock: XIVTED_clean_linker_0, # of connection points: 2
#     Edge 57, Type (0, 1), BuildingBlock: XIVTED_clean_linker_0, # of connection points: 2
#     Edge 58, Type (0, 1), BuildingBlock: XIVTED_clean_linker_0, # of connection points: 2
#     Edge 59, Type (0, 1), BuildingBlock: XIVTED_clean_linker_0, # of connection points: 2
#     Edge 60, Type (0, 1), BuildingBlock: XIVTED_clean_linker_0, # of connection points: 2
#     Edge 61, Type (0, 1), BuildingBlock: XIVTED_clean_linker_0, # of connection points: 2
#     Edge 62, Type (0, 1), BuildingBlock: XIVTED_clean_linker_0, # of connection points: 2
#     Edge 63, Type (0, 1), BuildingBlock: XIVTED_clean_linker_0, # of connection points: 2
#     Edge 64, Type (0, 1), BuildingBlock: XIVTED_clean_linker_0, # of connection points: 2
#     Edge 65, Type (0, 1), BuildingBlock: XIVTED_clean_linker_0, # of connection points: 2
#     Edge 66, Type (0, 1), BuildingBlock: XIVTED_clean_linker_0, # of connection points: 2
#     Edge 67, Type (0, 1), BuildingBlock: XIVTED_clean_linker_0, # of connection points: 2
#     Edge 68, Type (0, 1), BuildingBlock: XIVTED_clean_linker_0, # of connection points: 2
#     Edge 69, Type (0, 1), BuildingBlock: XIVTED_clean_linker_0, # of connection points: 2
#     Edge 70, Type (0, 1), BuildingBlock: XIVTED_clean_linker_0, # of connection points: 2
#     Edge 71, Type (0, 1), BuildingBlock: XIVTED_clean_linker_0, # of connection points: 2
#     Edge 72, Type (0, 1), BuildingBlock: XIVTED_clean_linker_0, # of connection points: 2
#     Edge 73, Type (0, 1), BuildingBlock: XIVTED_clean_linker_0, # of connection points: 2
#     Edge 74, Type (0, 1), BuildingBlock: XIVTED_clean_linker_0, # of connection points: 2
#     Edge 75, Type (0, 1), BuildingBlock: XIVTED_clean_linker_0, # of connection points: 2
#     Edge 76, Type (0, 1), BuildingBlock: XIVTED_clean_linker_0, # of connection points: 2
#     Edge 77, Type (0, 1), BuildingBlock: XIVTED_clean_linker_0, # of connection points: 2
#     Edge 78, Type (0, 1), BuildingBlock: XIVTED_clean_linker_0, # of connection points: 2
#     Edge 79, Type (0, 1), BuildingBlock: XIVTED_clean_linker_0, # of connection points: 2
#     Edge 80, Type (0, 1), BuildingBlock: XIVTED_clean_linker_0, # of connection points: 2
#     Edge 81, Type (0, 1), BuildingBlock: XIVTED_clean_linker_0, # of connection points: 2
#     Edge 82, Type (0, 1), BuildingBlock: XIVTED_clean_linker_0, # of connection points: 2
#     Edge 83, Type (0, 1), BuildingBlock: XIVTED_clean_linker_0, # of connection points: 2
#     Edge 84, Type (0, 1), BuildingBlock: XIVTED_clean_linker_0, # of connection points: 2
#     Edge 85, Type (0, 1), BuildingBlock: XIVTED_clean_linker_0, # of connection points: 2
#     Edge 86, Type (0, 1), BuildingBlock: XIVTED_clean_linker_0, # of connection points: 2
#     Edge 87, Type (0, 1), BuildingBlock: XIVTED_clean_linker_0, # of connection points: 2
#     Edge 88, Type (0, 1), BuildingBlock: XIVTED_clean_linker_0, # of connection points: 2
#     Edge 89, Type (0, 1), BuildingBlock: XIVTED_clean_linker_0, # of connection points: 2
#     Edge 90, Type (0, 1), BuildingBlock: XIVTED_clean_linker_0, # of connection points: 2
#     Edge 91, Type (0, 1), BuildingBlock: XIVTED_clean_linker_0, # of connection points: 2
#     Edge 92, Type (0, 1), BuildingBlock: XIVTED_clean_linker_0, # of connection points: 2
#     Edge 93, Type (0, 1), BuildingBlock: XIVTED_clean_linker_0, # of connection points: 2
#     Edge 94, Type (0, 1), BuildingBlock: XIVTED_clean_linker_0, # of connection points: 2
#     Edge 95, Type (0, 1), BuildingBlock: XIVTED_clean_linker_0, # of connection points: 2
#     Edge 96, Type (0, 1), BuildingBlock: XIVTED_clean_linker_0, # of connection points: 2
#     Edge 97, Type (0, 1), BuildingBlock: XIVTED_clean_linker_0, # of connection points: 2
#     Edge 98, Type (0, 1), BuildingBlock: XIVTED_clean_linker_0, # of connection points: 2
#     Edge 99, Type (0, 1), BuildingBlock: XIVTED_clean_linker_0, # of connection points: 2
#     Edge 100, Type (0, 1), BuildingBlock: XIVTED_clean_linker_0, # of connection points: 2
#     Edge 101, Type (0, 1), BuildingBlock: XIVTED_clean_linker_0, # of connection points: 2
# Relax obj value: 0.089
# Max RMSD: 0.207
# Mean RMSD: 0.156
data_MOF--net-llk--node1-EZIPEK_clean_sbu_0--node2-CUQRIR_clean_linker_1--edge1-XIVTED_clean_linker_0
_symmetry_space_group_name_H-M    P1
_symmetry_Int_Tables_number       1
_symmetry_cell_setting            triclinic
loop_
_symmetry_equiv_pos_as_xyz
'x, y, z'
_cell_length_a     44.713996
_cell_length_b     44.070479
_cell_length_c     43.442959
_cell_angle_alpha  89.952597
_cell_angle_beta   90.013998
_cell_angle_gamma 90.010074
loop_
_atom_site_label
_atom_site_type_symbol
_atom_site_fract_x
_atom_site_fract_y
_atom_site_fract_z
_atom_type_partial_charge
C0 C 0.03324 0.24504 0.23802 0.0
N1 N 0.04019 0.27503 0.23758 0.0
N2 N 0.03864 0.23319 0.26623 0.0
C3 C 0.02075 0.22734 0.21148 0.0
C4 C 0.0491 0.2568 0.28285 0.0
N5 N 0.0501 0.28219 0.26549 0.0
C6 C 0.05516 0.2559 0.31701 0.0
H7 H 0.99598 0.22877 0.21202 0.0
H8 H 0.02712 0.20307 0.21336 0.0
H9 H 0.02881 0.23667 0.18925 0.0
H10 H 0.07821 0.26396 0.32163 0.0
H11 H 0.05292 0.23277 0.32678 0.0
H12 H 0.03948 0.27142 0.32902 0.0
C13 C 0.78305 0.99449 0.2377 0.0
N14 N 0.75259 0.99614 0.23781 0.0
N15 N 0.79428 1.00085 0.26609 0.0
C16 C 0.8016 0.9846 0.21076 0.0
C17 C 0.76979 0.00666 0.28317 0.0
N18 N 0.74468 1.00355 0.26632 0.0
C19 C 0.7703 0.01337 0.3172 0.0
H20 H 0.82266 0.97374 0.2186 0.0
H21 H 0.80749 0.00486 0.19685 0.0
H22 H 0.78884 0.96868 0.19596 0.0
H23 H 0.79125 0.02523 0.32375 0.0
H24 H 0.76914 0.99168 0.33014 0.0
H25 H 0.75083 0.02751 0.3239 0.0
C26 C 0.02259 0.76787 0.23914 0.0
N27 N 0.015 0.76807 0.26941 0.0
N28 N 0.01863 0.73982 0.2272 0.0
C29 C 0.03375 0.79468 0.22117 0.0
C30 C 0.00816 0.7231 0.25091 0.0
N31 N 1.00585 0.74023 0.27649 0.0
C32 C 1.00222 0.6894 0.24978 0.0
H33 H 0.02806 0.79228 0.19643 0.0
H34 H 0.05846 0.79582 0.22323 0.0
H35 H 0.0241 0.81607 0.23024 0.0
H36 H 0.01661 0.67767 0.26688 0.0
H37 H 1.00619 0.67953 0.2267 0.0
H38 H 0.97861 0.68493 0.25611 0.0
C39 C 0.2589 0.99051 0.23605 0.0
N40 N 0.28895 0.9948 0.23545 0.0
N41 N 0.24796 0.99659 0.26451 0.0
C42 C 0.24078 0.97888 0.20954 0.0
C43 C 0.27218 0.00509 0.28088 0.0
N44 N 0.29698 0.00405 0.26333 0.0
C45 C 0.27209 0.01157 0.31499 0.0
H46 H 0.23956 0.99671 0.19154 0.0
H47 H 0.21777 0.97272 0.21679 0.0
H48 H 0.25204 0.95886 0.19926 0.0
H49 H 0.28057 0.99133 0.32745 0.0
H50 H 0.24936 0.01701 0.32355 0.0
H51 H 0.2871 0.03087 0.32037 0.0
C52 C 0.03615 0.76671 0.76384 0.0
N53 N 0.03795 0.73594 0.76292 0.0
N54 N 0.04071 0.7785 0.73539 0.0
C55 C 0.03128 0.78524 0.79234 0.0
C56 C 0.04484 0.75405 0.71719 0.0
N57 N 0.04359 0.72835 0.73392 0.0
C58 C 0.04769 0.75521 0.6826 0.0
H59 H 1.00689 0.78756 0.79637 0.0
H60 H 0.04092 0.80829 0.78963 0.0
H61 H 0.04136 0.7739 0.81266 0.0
H62 H 0.07174 0.75637 0.67643 0.0
H63 H 0.03633 0.7755 0.67299 0.0
H64 H 0.03795 0.73467 0.67178 0.0
C65 C 0.25897 1.00233 0.76555 0.0
N66 N 0.28891 0.99683 0.76514 0.0
N67 N 0.24653 0.99483 0.73813 0.0
C68 C 0.24177 0.01524 0.79211 0.0
C69 C 0.26971 0.98452 0.72128 0.0
N70 N 0.2954 0.98596 0.73741 0.0
C71 C 0.26797 0.9773 0.68739 0.0
H72 H 0.25116 0.00717 0.81429 0.0
H73 H 0.21782 0.00879 0.79055 0.0
H74 H 0.24328 0.04036 0.79138 0.0
H75 H 0.27336 0.99804 0.67399 0.0
H76 H 0.24523 0.96955 0.68086 0.0
H77 H 0.2844 0.95947 0.68121 0.0
C78 C 0.03183 0.24432 0.76116 0.0
N79 N 0.039 0.2433 0.73081 0.0
N80 N 0.03696 0.27237 0.77257 0.0
C81 C 0.01954 0.21842 0.77971 0.0
C82 C 0.04756 0.28832 0.74837 0.0
N83 N 0.04889 0.2707 0.72302 0.0
C84 C 0.05343 0.32205 0.74862 0.0
H85 H 0.99478 0.21855 0.77802 0.0
H86 H 0.02567 0.22096 0.80433 0.0
H87 H 0.028 0.1964 0.77095 0.0
H88 H 0.05083 0.33213 0.77183 0.0
H89 H 0.03791 0.33349 0.7324 0.0
H90 H 0.07657 0.32655 0.74068 0.0
C91 C 0.78155 0.0062 0.76172 0.0
N92 N 0.75148 1.00112 0.76244 0.0
N93 N 0.79264 1.00059 0.73315 0.0
C94 C 0.80011 0.01683 0.78836 0.0
C95 C 0.76855 0.99175 0.71681 0.0
N96 N 0.74369 0.99224 0.73432 0.0
C97 C 0.76871 0.98589 0.68261 0.0
H98 H 0.79898 0.04194 0.78963 0.0
H99 H 0.82385 0.01017 0.78523 0.0
H100 H 0.79148 0.00728 0.81027 0.0
H101 H 0.79097 0.97794 0.67475 0.0
H102 H 0.76322 0.00728 0.67035 0.0
H103 H 0.75165 0.96868 0.67639 0.0
C104 C 0.26309 0.24815 0.00303 0.0
N105 N 0.29291 0.24619 0.99617 0.0
N106 N 0.25237 0.27648 0.99692 0.0
C107 C 0.24427 0.22277 0.01541 0.0
C108 C 0.27639 0.29146 0.98587 0.0
N109 N 0.3008 0.27336 0.98546 0.0
C110 C 0.27673 0.32485 0.97791 0.0
H111 H 0.22036 0.22641 0.00962 0.0
H112 H 0.24641 0.22218 0.04084 0.0
H113 H 0.2518 0.20066 0.00599 0.0
H114 H 0.2916 0.33706 0.99419 0.0
H115 H 0.25417 0.33523 0.97856 0.0
H116 H 0.2858 0.32808 0.9544 0.0
C117 C 0.26175 0.76436 0.9877 0.0
N118 N 0.29222 0.76557 0.98996 0.0
N119 N 0.25165 0.73534 0.99142 0.0
C120 C 0.24222 0.79095 0.98012 0.0
C121 C 0.27685 0.71925 0.99645 0.0
N122 N 0.30118 0.73731 0.99543 0.0
C123 C 0.27785 0.68527 0.00073 0.0
H124 H 0.23814 0.80415 0.00145 0.0
H125 H 0.22037 0.78341 0.97074 0.0
H126 H 0.25359 0.80607 0.96336 0.0
H127 H 0.28215 0.67443 0.97811 0.0
H128 H 0.2564 0.67649 0.00998 0.0
H129 H 0.29609 0.67857 0.0166 0.0
C130 C 0.73809 0.25869 0.00014 0.0
N131 N 0.75594 0.28332 0.001 0.0
N132 N 0.75328 0.23353 0.00839 0.0
C133 C 0.70485 0.25968 0.9941 0.0
C134 C 0.78146 0.24381 0.01401 0.0
N135 N 0.78302 0.27436 0.00969 0.0
C136 C 0.80676 0.22459 0.02548 0.0
H137 H 0.69327 0.26771 0.01517 0.0
H138 H 0.69593 0.23702 0.98784 0.0
H139 H 0.69964 0.27575 0.97522 0.0
H140 H 0.82356 0.22211 0.00686 0.0
H141 H 0.79889 0.20174 0.03253 0.0
H142 H 0.8179 0.23601 0.04515 0.0
C143 C 0.73634 0.75277 0.01505 0.0
N144 N 0.75406 0.72803 0.01695 0.0
N145 N 0.75153 0.77659 0.00344 0.0
C146 C 0.70317 0.75282 0.0218 0.0
C147 C 0.7795 0.76556 0.99852 0.0
N148 N 0.78105 0.73568 0.00663 0.0
C149 C 0.80488 0.7841 0.98606 0.0
H150 H 0.69288 0.77553 0.01917 0.0
H151 H 0.69927 0.7452 0.04579 0.0
H152 H 0.69168 0.73662 0.00621 0.0
H153 H 0.80132 0.80856 0.99092 0.0
H154 H 0.80597 0.78108 0.96074 0.0
H155 H 0.82643 0.77665 0.99622 0.0
C156 C 0.53485 0.74439 0.73766 0.0
N157 N 0.54079 0.7746 0.73782 0.0
N158 N 0.54039 0.73222 0.76569 0.0
C159 C 0.52335 0.72668 0.71064 0.0
C160 C 0.54982 0.75589 0.78287 0.0
N161 N 0.55017 0.78159 0.76597 0.0
C162 C 0.55547 0.75462 0.81709 0.0
H163 H 0.49855 0.72727 0.71079 0.0
H164 H 0.5305 0.70262 0.71224 0.0
H165 H 0.53144 0.73661 0.68869 0.0
H166 H 0.57854 0.76246 0.82201 0.0
H167 H 0.55294 0.73142 0.82662 0.0
H168 H 0.53981 0.77016 0.82908 0.0
C169 C 0.28247 0.49357 0.73792 0.0
N170 N 0.25203 0.49499 0.73786 0.0
N171 N 0.29349 0.50035 0.76628 0.0
C172 C 0.30119 0.48348 0.71119 0.0
C173 C 0.26887 0.50609 0.78318 0.0
N174 N 0.24387 0.50261 0.76623 0.0
C175 C 0.26914 0.51276 0.81722 0.0
H176 H 0.32255 0.47336 0.71919 0.0
H177 H 0.30649 0.50351 0.6967 0.0
H178 H 0.28877 0.46687 0.69686 0.0
H179 H 0.28985 0.52501 0.82384 0.0
H180 H 0.2684 0.49103 0.83013 0.0
H181 H 0.24939 0.5265 0.82389 0.0
C182 C 0.54357 0.26717 0.73915 0.0
N183 N 0.54883 0.26804 0.76992 0.0
N184 N 0.54968 0.23921 0.72785 0.0
C185 C 0.53136 0.29281 0.72022 0.0
C186 C 0.55887 0.22333 0.7527 0.0
N187 N 0.55809 0.24062 0.77827 0.0
C188 C 0.56402 0.18954 0.75285 0.0
H189 H 0.50656 0.29207 0.72095 0.0
H190 H 0.53847 0.29051 0.69586 0.0
H191 H 0.53897 0.31498 0.72943 0.0
H192 H 0.57128 0.18145 0.72985 0.0
H193 H 0.54284 0.1779 0.75905 0.0
H194 H 0.58117 0.18337 0.77021 0.0
C195 C 0.76234 0.4978 0.7385 0.0
N196 N 0.79108 0.50746 0.737 0.0
N197 N 0.74992 0.50603 0.76568 0.0
C198 C 0.74707 0.47901 0.71443 0.0
C199 C 0.77203 0.52103 0.78044 0.0
N200 N 0.79719 0.52176 0.76317 0.0
C201 C 0.77016 0.53157 0.81347 0.0
H202 H 0.75394 0.48652 0.69109 0.0
H203 H 0.7224 0.48048 0.71678 0.0
H204 H 0.75395 0.45499 0.7173 0.0
H205 H 0.78548 0.51777 0.82791 0.0
H206 H 0.74721 0.52992 0.82293 0.0
H207 H 0.7773 0.55559 0.81508 0.0
C208 C 0.52871 0.2684 0.26525 0.0
N209 N 0.52871 0.23758 0.26428 0.0
N210 N 0.53024 0.27994 0.23636 0.0
C211 C 0.52914 0.28707 0.29411 0.0
C212 C 0.53087 0.25533 0.21795 0.0
N213 N 0.53023 0.22974 0.23483 0.0
C214 C 0.53163 0.25636 0.18328 0.0
H215 H 0.5058 0.29057 0.30199 0.0
H216 H 0.53938 0.30962 0.28984 0.0
H217 H 0.54155 0.27511 0.31262 0.0
H218 H 0.55528 0.25655 0.17553 0.0
H219 H 0.52056 0.27717 0.17448 0.0
H220 H 0.52047 0.23616 0.17326 0.0
C221 C 0.75955 0.50499 0.26391 0.0
N222 N 0.78914 0.49782 0.26464 0.0
N223 N 0.74788 0.49889 0.23581 0.0
C224 C 0.74186 0.51783 0.2902 0.0
C225 C 0.77108 0.48765 0.2196 0.0
N226 N 0.79611 0.48698 0.23697 0.0
C227 C 0.77011 0.48049 0.1856 0.0
H228 H 0.71785 0.51188 0.28784 0.0
H229 H 0.74381 0.54292 0.28989 0.0
H230 H 0.75045 0.50924 0.31253 0.0
H231 H 0.78564 0.49578 0.17306 0.0
H232 H 0.7474 0.48278 0.17568 0.0
H233 H 0.77765 0.45684 0.18175 0.0
C234 C 0.54343 0.74339 0.26116 0.0
N235 N 0.54747 0.74253 0.23019 0.0
N236 N 0.54983 0.77138 0.2722 0.0
C237 C 0.53223 0.71765 0.28061 0.0
C238 C 0.55791 0.78732 0.24698 0.0
N239 N 0.55627 0.77 0.22148 0.0
C240 C 0.56283 0.82115 0.24663 0.0
H241 H 0.50743 0.71811 0.28088 0.0
H242 H 0.54025 0.72009 0.30467 0.0
H243 H 0.53972 0.69554 0.27116 0.0
H244 H 0.57114 0.82924 0.26925 0.0
H245 H 0.5413 0.83264 0.24155 0.0
H246 H 0.57908 0.82747 0.22842 0.0
C247 C 0.28285 0.52304 0.26199 0.0
N248 N 0.25234 0.52417 0.2619 0.0
N249 N 0.29365 0.52314 0.2327 0.0
C250 C 0.30208 0.52355 0.29026 0.0
C251 C 0.26894 0.52405 0.21499 0.0
N252 N 0.24415 0.52516 0.23251 0.0
C253 C 0.26904 0.52277 0.18026 0.0
H254 H 0.29109 0.53664 0.3089 0.0
H255 H 0.32433 0.53349 0.28507 0.0
H256 H 0.30544 0.49993 0.29838 0.0
H257 H 0.28914 0.5108 0.17151 0.0
H258 H 0.26917 0.54626 0.17105 0.0
H259 H 0.24882 0.51105 0.17144 0.0
C260 C 0.76337 0.74725 0.50437 0.0
N261 N 0.79328 0.74549 0.49785 0.0
N262 N 0.75263 0.77566 0.49859 0.0
C263 C 0.74447 0.72161 0.51604 0.0
C264 C 0.77673 0.79085 0.48801 0.0
N265 N 0.80119 0.77283 0.48762 0.0
C266 C 0.77699 0.82428 0.4802 0.0
H267 H 0.72063 0.72524 0.50997 0.0
H268 H 0.74626 0.72061 0.54149 0.0
H269 H 0.75221 0.69968 0.50638 0.0
H270 H 0.79178 0.83648 0.49656 0.0
H271 H 0.75441 0.8346 0.48077 0.0
H272 H 0.7861 0.82763 0.45672 0.0
C273 C 0.76122 0.26417 0.4891 0.0
N274 N 0.79173 0.26548 0.4908 0.0
N275 N 0.75118 0.23546 0.49475 0.0
C276 C 0.74153 0.29014 0.47984 0.0
C277 C 0.77644 0.21968 0.50028 0.0
N278 N 0.80079 0.23753 0.4976 0.0
C279 C 0.77747 0.18598 0.5063 0.0
H280 H 0.73557 0.30333 0.50069 0.0
H281 H 0.72056 0.2818 0.46911 0.0
H282 H 0.75346 0.30544 0.46367 0.0
H283 H 0.77983 0.17386 0.48406 0.0
H284 H 0.75664 0.17811 0.51767 0.0
H285 H 0.7969 0.18002 0.52099 0.0
C286 C 0.23716 0.75738 0.48494 0.0
N287 N 0.25483 0.78218 0.48319 0.0
N288 N 0.25237 0.73355 0.49648 0.0
C289 C 0.20401 0.75729 0.47808 0.0
C290 C 0.2803 0.74465 0.50156 0.0
N291 N 0.28181 0.77457 0.49358 0.0
C292 C 0.30569 0.7261 0.514 0.0
H293 H 0.19247 0.77349 0.49361 0.0
H294 H 0.19373 0.73456 0.4807 0.0
H295 H 0.20017 0.76488 0.45407 0.0
H296 H 0.30219 0.70166 0.50902 0.0
H297 H 0.30672 0.729 0.53934 0.0
H298 H 0.32725 0.73364 0.50393 0.0
C299 C 0.23723 0.25265 0.51716 0.0
N300 N 0.25487 0.22782 0.51873 0.0
N301 N 0.25217 0.27628 0.50482 0.0
C302 C 0.20429 0.25293 0.52496 0.0
C303 C 0.27995 0.26508 0.49921 0.0
N304 N 0.28161 0.23527 0.50758 0.0
C305 C 0.30503 0.28338 0.48578 0.0
H306 H 0.19211 0.23763 0.509 0.0
H307 H 0.19439 0.27594 0.52363 0.0
H308 H 0.2009 0.24436 0.54869 0.0
H309 H 0.30167 0.30791 0.49041 0.0
H310 H 0.30542 0.28005 0.46047 0.0
H311 H 0.32683 0.276 0.49541 0.0
C312 C 0.02513 0.93635 0.57944 0.0
C313 C 0.02497 0.92853 0.43013 0.0
C314 C 0.02388 0.08196 0.57126 0.0
C315 C 0.02373 0.07425 0.42205 0.0
C316 C 0.95312 0.07959 0.49915 0.0
C317 C 0.95296 0.93069 0.50299 0.0
C318 C 0.09783 0.07728 0.49753 0.0
C319 C 0.09756 0.93283 0.50337 0.0
C320 C 0.096 1.00147 0.42636 0.0
C321 C 0.95245 1.00159 0.42443 0.0
C322 C 0.094 0.00829 0.5771 0.0
C323 C 0.95048 0.00745 0.57486 0.0
Eu324 Eu 0.02465 0.94773 0.50383 0.0
O325 O 0.99765 0.97686 0.47504 0.0
O326 O 0.05044 0.97964 0.52987 0.0
Eu327 Eu 0.96652 0.00513 0.49981 0.0
Eu328 Eu 0.08082 0.0051 0.50151 0.0
O329 O 0.99663 0.97934 0.52857 0.0
O330 O 0.05103 0.977 0.47527 0.0
Eu331 Eu 0.02263 0.00802 0.55809 0.0
Eu332 Eu 0.02429 1.00241 0.4433 0.0
O333 O 0.99698 0.03347 0.52546 0.0
O334 O 0.9975 0.03104 0.4721 0.0
O335 O 0.05137 0.03085 0.47227 0.0
O336 O 0.05045 0.03338 0.52697 0.0
Eu337 Eu 0.02484 0.06265 0.49765 0.0
O338 O 0.0275 0.9252 0.55093 0.0
O339 O 0.02326 0.92024 0.45966 0.0
O340 O 0.02611 0.09005 0.54174 0.0
O341 O 0.02336 0.08558 0.4506 0.0
O342 O 0.94281 0.05106 0.49787 0.0
O343 O 0.94293 0.95915 0.49959 0.0
O344 O 0.1064 0.04845 0.498 0.0
O345 O 0.10617 0.9616 0.50503 0.0
O346 O 0.06758 1.00257 0.41749 0.0
O347 O 0.98115 1.00148 0.41616 0.0
O348 O 0.06531 0.00815 0.58512 0.0
O349 O 0.97895 0.00786 0.5838 0.0
O350 O 0.06966 0.08746 0.49785 0.0
O351 O 0.98164 0.08817 0.49963 0.0
O352 O 0.06936 0.92285 0.50163 0.0
O353 O 0.98135 0.92219 0.50626 0.0
O354 O 0.02615 0.95692 0.41966 0.0
O355 O 0.0245 0.04495 0.41478 0.0
O356 O 0.02199 0.96548 0.58675 0.0
O357 O 0.02155 0.05365 0.5818 0.0
O358 O 0.94095 0.00691 0.5456 0.0
O359 O 0.94231 1.0026 0.45343 0.0
O360 O 0.10455 0.00815 0.54822 0.0
O361 O 0.10576 1.00113 0.45553 0.0
C362 C 0.52152 0.92153 0.06197 0.0
C363 C 0.52261 0.06659 0.0848 0.0
C364 C 0.52506 0.94407 0.91507 0.0
C365 C 0.52382 0.08895 0.93767 0.0
C366 C 0.59376 0.0135 0.92608 0.0
C367 C 0.59321 0.99635 0.07454 0.0
C368 C 0.44803 0.01423 0.92566 0.0
C369 C 0.44737 0.99703 0.07361 0.0
C370 C 0.44844 0.08013 0.007 0.0
C371 C 0.59482 0.07743 0.00899 0.0
C372 C 0.44708 0.93245 0.99135 0.0
C373 C 0.59393 0.93273 0.99237 0.0
Eu374 Eu 0.52025 0.99674 0.05769 0.0
O375 O 0.54715 0.02797 0.03131 0.0
O376 O 0.4939 0.97493 0.02259 0.0
Eu377 Eu 0.57695 0.00525 0.00023 0.0
Eu378 Eu 0.46396 0.0061 -0.00019 0.0
O379 O 0.54678 0.97457 0.02301 0.0
O380 O 0.49418 0.02862 0.03106 0.0
Eu381 Eu 0.52054 0.94829 0.99113 0.0
Eu382 Eu 0.52139 0.06255 0.0086 0.0
O383 O 0.54703 0.98267 0.96902 0.0
O384 O 0.54736 0.03596 0.97684 0.0
O385 O 0.4946 0.03638 0.97689 0.0
O386 O 0.49385 0.9827 0.96865 0.0
Eu387 Eu 0.52076 0.01382 0.94213 0.0
O388 O 0.51995 0.9485 0.07587 0.0
O389 O 0.52088 0.03684 0.09008 0.0
O390 O 0.52267 0.97376 0.90976 0.0
O391 O 0.52111 0.06203 0.92383 0.0
O392 O 0.60256 0.01 0.95526 0.0
O393 O 0.60201 1.00143 0.0456 0.0
O394 O 0.43887 0.01149 0.95477 0.0
O395 O 0.43868 1.00231 0.04472 0.0
O396 O 0.47714 0.0888 0.00886 0.0
O397 O 0.56661 0.08723 0.01246 0.0
O398 O 0.47552 0.92333 0.9878 0.0
O399 O 0.56565 0.92308 0.98891 0.0
O400 O 0.4765 0.01527 0.91631 0.0
O401 O 0.56534 0.01551 0.91659 0.0
O402 O 0.47567 0.9935 0.08294 0.0
O403 O 0.56473 0.99309 0.08357 0.0
O404 O 0.52286 0.08016 0.05733 0.0
O405 O 0.52504 0.09393 0.96787 0.0
O406 O 0.52225 0.91659 0.03175 0.0
O407 O 0.52455 0.93052 0.94254 0.0
O408 O 0.60221 0.96139 0.99676 0.0
O409 O 0.60283 0.04879 0.00398 0.0
O410 O 0.43851 0.96119 0.99625 0.0
O411 O 0.43908 0.05135 0.00438 0.0
C412 C 0.01789 0.43637 0.07875 0.0
C413 C 0.01733 0.42773 0.93126 0.0
C414 C 0.02119 0.58367 0.0697 0.0
C415 C 0.01611 0.57504 0.92233 0.0
C416 C 0.94447 0.5793 -0.00045 0.0
C417 C 0.94522 0.43143 0.00402 0.0
C418 C 0.08985 0.58042 0.9947 0.0
C419 C 0.09046 0.43124 0.00408 0.0
C420 C 0.08842 0.50212 0.92439 0.0
C421 C 0.94519 0.50481 0.92683 0.0
C422 C 0.09083 0.50917 0.0743 0.0
C423 C 0.94782 0.5068 0.07713 0.0
Eu424 Eu 0.0179 0.44872 0.00385 0.0
O425 O 0.99039 0.47723 0.97534 0.0
O426 O 0.04533 0.48047 0.02874 0.0
Eu427 Eu 0.9605 0.50551 0.00174 0.0
Eu428 Eu 0.07541 0.50577 -0.00042 0.0
O429 O 0.99174 0.48056 0.02968 0.0
O430 O 0.04455 0.47735 0.97451 0.0
Eu431 Eu 0.01901 0.50904 0.05829 0.0
Eu432 Eu 0.01701 0.50232 0.94287 0.0
O433 O 0.99107 0.5342 0.02696 0.0
O434 O 0.9905 0.53065 0.97245 0.0
O435 O 0.04408 0.53097 0.97162 0.0
O436 O 0.04503 0.53406 0.02539 0.0
Eu437 Eu 0.01731 0.56277 0.9972 0.0
O438 O 0.01674 0.42574 0.05011 0.0
O439 O 0.01842 0.42058 0.96095 0.0
O440 O 0.01828 0.5909 0.04014 0.0
O441 O 0.01565 0.58569 0.95098 0.0
O442 O 0.93542 0.55053 0.00292 0.0
O443 O 0.93568 0.46023 0.00318 0.0
O444 O 0.09963 0.5516 0.99525 0.0
O445 O 0.10016 0.46008 0.00296 0.0
O446 O 0.05981 0.50214 0.91604 0.0
O447 O 0.9734 0.50175 0.91774 0.0
O448 O 0.06254 0.50821 0.08358 0.0
O449 O 0.97626 0.5106 0.08524 0.0
O450 O 0.06116 0.58894 0.99558 0.0
O451 O 0.97289 0.58824 0.99629 0.0
O452 O 0.06177 0.42273 0.00445 0.0
O453 O 0.97387 0.42272 0.00412 0.0
O454 O 0.01621 0.45586 0.91974 0.0
O455 O 0.01718 0.54577 0.91434 0.0
O456 O 0.01944 0.46561 0.08674 0.0
O457 O 0.02243 0.5555 0.08111 0.0
O458 O 0.93745 0.50375 0.04842 0.0
O459 O 0.93558 0.5072 0.95591 0.0
O460 O 0.10041 0.50964 0.04513 0.0
O461 O 0.09889 0.50251 0.95323 0.0
C462 C 0.52489 0.43772 0.08026 0.0
C463 C 0.52245 0.5831 0.0695 0.0
C464 C 0.52296 0.42699 0.93081 0.0
C465 C 0.52429 0.57259 0.92028 0.0
C466 C 0.59516 0.49883 0.92537 0.0
C467 C 0.59399 0.51014 0.07588 0.0
C468 C 0.45154 0.50183 0.92454 0.0
C469 C 0.45051 0.50809 0.07491 0.0
C470 C 0.45206 0.57874 0.99534 0.0
C471 C 0.59678 0.57766 0.9962 0.0
C472 C 0.45307 0.43005 0.00376 0.0
C473 C 0.59762 0.43338 0.00534 0.0
Eu474 Eu 0.52246 0.50895 0.05742 0.0
O475 O 0.54993 0.53386 0.02563 0.0
O476 O 0.49658 0.47936 0.0287 0.0
Eu477 Eu 0.58031 0.50538 0.00047 0.0
Eu478 Eu 0.46607 0.50456 -0.00013 0.0
O479 O 0.55028 0.48023 0.02949 0.0
O480 O 0.4963 0.53382 0.02473 0.0
Eu481 Eu 0.52471 0.44748 0.00437 0.0
Eu482 Eu 0.52392 0.56245 0.99605 0.0
O483 O 0.55067 0.47638 0.97495 0.0
O484 O 0.5505 0.53037 0.97096 0.0
O485 O 0.49679 0.52996 0.97147 0.0
O486 O 0.49727 0.47602 0.97539 0.0
Eu487 Eu 0.52342 0.5011 0.94282 0.0
O488 O 0.52217 0.46704 0.08688 0.0
O489 O 0.5212 0.55488 0.08048 0.0
O490 O 0.5215 0.45521 0.9199 0.0
O491 O 0.52477 0.54317 0.91347 0.0
O492 O 0.60508 0.50053 0.95445 0.0
O493 O 0.60434 0.50956 0.04693 0.0
O494 O 0.4415 0.50221 0.95361 0.0
O495 O 0.44081 0.50704 0.04574 0.0
O496 O 0.48047 0.58752 0.99349 0.0
O497 O 0.56853 0.58759 0.99671 0.0
O498 O 0.48153 0.42172 0.00678 0.0
O499 O 0.56958 0.42296 0.00397 0.0
O500 O 0.48017 0.50178 0.91612 0.0
O501 O 0.56661 0.49876 0.91678 0.0
O502 O 0.47902 0.50868 0.08369 0.0
O503 O 0.56535 0.5099 0.08411 0.0
O504 O 0.52388 0.59075 0.03977 0.0
O505 O 0.52372 0.5844 0.94861 0.0
O506 O 0.52707 0.42587 0.05201 0.0
O507 O 0.52488 0.41924 0.96051 0.0
O508 O 0.60601 0.46226 0.00547 0.0
O509 O 0.60555 0.54888 0.99633 0.0
O510 O 0.44279 0.45841 0.0003 0.0
O511 O 0.44201 0.55026 0.99837 0.0
C512 C 0.02509 0.4207 0.56162 0.0
C513 C 0.0256 0.44371 0.4149 0.0
C514 C 0.02449 0.56574 0.58469 0.0
C515 C 0.01623 0.58844 0.43779 0.0
C516 C 0.9486 0.57909 0.50809 0.0
C517 C 0.94734 0.43154 0.4911 0.0
C518 C 0.09516 0.57687 0.50681 0.0
C519 C 0.09403 0.43193 0.49143 0.0
C520 C 0.09323 0.51444 0.42504 0.0
C521 C 0.94771 0.51153 0.42622 0.0
C522 C 0.09454 0.49625 0.57323 0.0
C523 C 0.94884 0.49647 0.57475 0.0
Eu524 Eu 0.02063 0.4476 0.491 0.0
O525 O 0.99389 0.48212 0.46895 0.0
O526 O 0.04728 0.474 0.52233 0.0
Eu527 Eu 0.96418 0.50507 0.50051 0.0
Eu528 Eu 0.0772 0.50455 0.49914 0.0
O529 O 0.99424 0.47382 0.52317 0.0
O530 O 0.04688 0.48197 0.46849 0.0
Eu531 Eu 0.02139 0.4959 0.55755 0.0
Eu532 Eu 0.02046 0.51332 0.44211 0.0
O533 O 0.99494 0.52773 0.53122 0.0
O534 O 0.99474 0.53526 0.4775 0.0
O535 O 0.04765 0.53579 0.47616 0.0
O536 O 0.04773 0.5272 0.53066 0.0
Eu537 Eu 0.0217 0.56192 0.50846 0.0
O538 O 0.02207 0.41564 0.53156 0.0
O539 O 0.02457 0.43001 0.44229 0.0
O540 O 0.02455 0.5794 0.55725 0.0
O541 O 0.02013 0.59365 0.46773 0.0
O542 O 0.93926 0.55036 0.50482 0.0
O543 O 0.9387 0.46012 0.49681 0.0
O544 O 0.10311 0.54812 0.50234 0.0
O545 O 0.10243 0.4606 0.4956 0.0
O546 O 0.06479 0.51876 0.41636 0.0
O547 O 0.9761 0.51245 0.41665 0.0
O548 O 0.06621 0.49328 0.58281 0.0
O549 O 0.97717 0.49191 0.58356 0.0
O550 O 0.06698 0.58677 0.51029 0.0
O551 O 0.97727 0.58776 0.5104 0.0
O552 O 0.06566 0.42236 0.4885 0.0
O553 O 0.97579 0.42267 0.48717 0.0
O554 O 0.02359 0.47344 0.40971 0.0
O555 O 0.01523 0.56129 0.4242 0.0
O556 O 0.02544 0.44777 0.5754 0.0
O557 O 0.02239 0.536 0.58989 0.0
O558 O 0.93979 0.50227 0.54606 0.0
O559 O 0.93871 0.50986 0.45549 0.0
O560 O 0.10293 0.50087 0.54409 0.0
O561 O 0.10208 0.508 0.45368 0.0
C562 C 0.51734 0.93532 0.57858 0.0
C563 C 0.52073 0.92724 0.43086 0.0
C564 C 0.51879 0.08263 0.57045 0.0
C565 C 0.51733 0.07468 0.42274 0.0
C566 C 0.44487 0.07877 0.49852 0.0
C567 C 0.44531 0.93097 0.50185 0.0
C568 C 0.59011 0.0799 0.49678 0.0
C569 C 0.59082 0.93063 0.50532 0.0
C570 C 0.59027 1.00299 0.42583 0.0
C571 C 0.44719 1.00245 0.42515 0.0
C572 C 0.58968 0.00661 0.57573 0.0
C573 C 0.4464 1.0036 0.57517 0.0
Eu574 Eu 0.51816 0.94787 0.50366 0.0
O575 O 0.49136 0.9766 0.47464 0.0
O576 O 0.54494 0.97976 0.52909 0.0
Eu577 Eu 0.46083 0.00495 0.50023 0.0
Eu578 Eu 0.57573 0.00518 0.5008 0.0
O579 O 0.49141 0.97978 0.5288 0.0
O580 O 0.5454 0.97674 0.47505 0.0
Eu581 Eu 0.518 0.00801 0.55834 0.0
Eu582 Eu 0.51858 1.00183 0.44286 0.0
O583 O 0.49079 0.03336 0.5265 0.0
O584 O 0.49138 0.03026 0.47177 0.0
O585 O 0.54494 0.03042 0.47236 0.0
O586 O 0.54491 0.03332 0.52634 0.0
Eu587 Eu 0.51769 0.06206 0.49758 0.0
O588 O 0.51659 0.92478 0.54988 0.0
O589 O 0.52011 0.91989 0.46055 0.0
O590 O 0.51881 0.08992 0.54075 0.0
O591 O 0.51687 0.08517 0.45145 0.0
O592 O 0.43572 0.04995 0.50084 0.0
O593 O 0.43604 0.95975 0.49946 0.0
O594 O 0.60002 0.05113 0.49771 0.0
O595 O 0.60041 0.95949 0.50409 0.0
O596 O 0.56183 1.003 0.41693 0.0
O597 O 0.47559 0.99941 0.41673 0.0
O598 O 0.56119 0.00679 0.58444 0.0
O599 O 0.47477 0.00539 0.58413 0.0
O600 O 0.56139 0.08827 0.49671 0.0
O601 O 0.47338 0.08776 0.49639 0.0
O602 O 0.56216 0.92198 0.50538 0.0
O603 O 0.47385 0.92209 0.50424 0.0
O604 O 0.51997 0.95545 0.41949 0.0
O605 O 0.51827 0.04544 0.41459 0.0
O606 O 0.51868 0.96454 0.58665 0.0
O607 O 0.51788 0.05441 0.58185 0.0
O608 O 0.43633 1.00382 0.54619 0.0
O609 O 0.43698 0.00597 0.45386 0.0
O610 O 0.59996 0.00715 0.54685 0.0
O611 O 0.6002 1.0027 0.45488 0.0
H612 H 0.22906 0.20042 0.56745 0.0
H613 H 0.14829 0.07661 0.46324 0.0
H614 H 0.25182 0.18817 0.47209 0.0
H615 H 0.10386 0.12568 0.53586 0.0
H616 H 0.19318 0.10757 0.47139 0.0
H617 H 0.19133 0.16014 0.56279 0.0
C618 C 0.22682 0.18829 0.54591 0.0
C619 C 0.24285 0.19769 0.51994 0.0
C620 C 0.17354 0.11161 0.48539 0.0
C621 C 0.20017 0.15238 0.51429 0.0
C622 C 0.14795 0.09428 0.48058 0.0
C623 C 0.1224 0.09915 0.49861 0.0
C624 C 0.1737 0.1333 0.50892 0.0
C625 C 0.123 0.12181 0.52112 0.0
C626 C 0.20514 0.16577 0.54312 0.0
C627 C 0.23963 0.18141 0.4925 0.0
N628 N 0.14846 0.13798 0.52586 0.0
N629 N 0.21818 0.15975 0.49016 0.0
H630 H 0.82288 0.21215 0.44699 0.0
H631 H 0.95628 0.12996 0.53452 0.0
H632 H 0.84329 0.23278 0.54136 0.0
H633 H 0.90224 0.0866 0.46503 0.0
H634 H 0.92379 0.17468 0.53196 0.0
H635 H 0.86327 0.17458 0.44647 0.0
C636 C 0.83697 0.20963 0.46712 0.0
C637 C 0.8303 0.22551 0.49414 0.0
C638 C 0.91907 0.15534 0.51737 0.0
C639 C 0.87536 0.18222 0.49423 0.0
C640 C 0.93739 0.12987 0.51887 0.0
C641 C 0.93163 0.10466 0.50006 0.0
C642 C 0.89533 0.15577 0.49639 0.0
C643 C 0.90709 0.10551 0.48014 0.0
C644 C 0.85947 0.1879 0.46705 0.0
C645 C 0.84832 0.22113 0.52006 0.0
N646 N 0.8899 0.13088 0.4786 0.0
N647 N 0.86999 0.1995 0.51965 0.0
H648 H 0.83986 0.77629 0.53473 0.0
H649 H 0.90439 0.92589 0.46534 0.0
H650 H 0.82897 0.79804 0.43887 0.0
H651 H 0.95364 0.87816 0.53574 0.0
H652 H 0.87278 0.88087 0.4584 0.0
H653 H 0.88106 0.81303 0.53786 0.0
C654 C 0.84707 0.78799 0.51409 0.0
C655 C 0.83105 0.78471 0.48663 0.0
C656 C 0.89057 0.88033 0.47532 0.0
C657 C 0.87659 0.82739 0.49024 0.0
C658 C 0.90819 0.9061 0.47963 0.0
C659 C 0.93136 0.90565 0.50128 0.0
C660 C 0.89589 0.85432 0.49324 0.0
C661 C 0.93586 0.87929 0.51885 0.0
C662 C 0.87018 0.80918 0.51593 0.0
C663 C 0.84075 0.80048 0.46049 0.0
N664 N 0.91808 0.85468 0.51465 0.0
N665 N 0.86239 0.82191 0.46309 0.0
H666 H 0.25342 0.82245 0.52936 0.0
H667 H 0.10156 0.88356 0.46573 0.0
H668 H 0.22769 0.80911 0.43495 0.0
H669 H 0.14974 0.93377 0.53505 0.0
H670 H 0.14637 0.85253 0.45696 0.0
H671 H 0.2165 0.86336 0.5336 0.0
C672 C 0.2408 0.82914 0.50918 0.0
C673 C 0.24299 0.81239 0.48194 0.0
C674 C 0.14704 0.87038 0.47408 0.0
C675 C 0.20008 0.85755 0.4869 0.0
C676 C 0.1214 0.88759 0.47946 0.0
C677 C 0.12208 0.91089 0.50129 0.0
C678 C 0.17315 0.87629 0.49107 0.0
C679 C 0.14845 0.91582 0.51808 0.0
C680 C 0.21948 0.85205 0.51169 0.0
C681 C 0.22607 0.82143 0.45642 0.0
N682 N 0.17296 0.89849 0.51279 0.0
N683 N 0.20455 0.84286 0.45974 0.0
H684 H 0.48824 0.18569 0.23564 0.0
H685 H 0.55873 0.11535 0.08864 0.0
H686 H 0.57763 0.2066 0.2059 0.0
H687 H 0.49569 0.06251 0.14141 0.0
H688 H 0.56455 0.14966 0.13207 0.0
H689 H 0.4892 0.13952 0.20355 0.0
C690 C 0.50831 0.17989 0.223 0.0
C691 C 0.53277 0.19967 0.22272 0.0
C692 C 0.54965 0.1304 0.13437 0.0
C693 C 0.53395 0.14818 0.18609 0.0
C694 C 0.54609 0.11106 0.10948 0.0
C695 C 0.52646 0.08644 0.11151 0.0
C696 C 0.53293 0.12551 0.16125 0.0
C697 C 0.51096 0.08145 0.13912 0.0
C698 C 0.50889 0.15379 0.20476 0.0
C699 C 0.55834 0.19176 0.20614 0.0
N700 N 0.51411 0.10124 0.16293 0.0
N701 N 0.55811 0.16685 0.18797 0.0
H702 H 0.83588 0.53257 0.23494 0.0
H703 H 0.89887 0.4701 0.08039 0.0
H704 H 0.82218 0.4396 0.2083 0.0
H705 H 0.94965 0.53573 0.13237 0.0
H706 H 0.86724 0.46146 0.12566 0.0
H707 H 0.87733 0.53613 0.19814 0.0
C708 C 0.84245 0.51261 0.2221 0.0
C709 C 0.82562 0.48591 0.22407 0.0
C710 C 0.8854 0.47766 0.1271 0.0
C711 C 0.87152 0.49011 0.1813 0.0
C712 C 0.90305 0.48295 0.1012 0.0
C713 C 0.92662 0.5038 0.10273 0.0
C714 C 0.89108 0.49381 0.15434 0.0
C715 C 0.93158 0.5195 0.13037 0.0
C716 C 0.86574 0.51471 0.2009 0.0
C717 C 0.83453 0.46067 0.20682 0.0
N718 N 0.91373 0.51441 0.15509 0.0
N719 N 0.85641 0.46359 0.1854 0.0
H720 H 0.59657 0.7869 0.17849 0.0
H721 H 0.49163 0.91056 0.11536 0.0
H722 H 0.50252 0.78344 0.19884 0.0
H723 H 0.5569 0.87211 0.05353 0.0
H724 H 0.49797 0.86666 0.14949 0.0
H725 H 0.58573 0.81979 0.13388 0.0
C726 C 0.57362 0.79238 0.17279 0.0
C727 C 0.55027 0.78263 0.19175 0.0
C728 C 0.51058 0.86773 0.12822 0.0
C729 C 0.53789 0.82062 0.14245 0.0
C730 C 0.50715 0.89276 0.10898 0.0
C731 C 0.52379 0.89473 0.08179 0.0
C732 C 0.53143 0.84516 0.12056 0.0
C733 C 0.54358 0.87115 0.07432 0.0
C734 C 0.56744 0.81109 0.14764 0.0
C735 C 0.52087 0.79055 0.18426 0.0
N736 N 0.54731 0.84746 0.09396 0.0
N737 N 0.51548 0.80974 0.16052 0.0
H738 H 0.20274 0.48086 0.23296 0.0
H739 H 0.142 0.54279 0.07608 0.0
H740 H 0.22017 0.57197 0.2024 0.0
H741 H 0.08876 0.48014 0.12926 0.0
H742 H 0.17473 0.54987 0.12085 0.0
H743 H 0.16146 0.47741 0.19558 0.0
C744 C 0.19687 0.50051 0.21924 0.0
C745 C 0.21447 0.52669 0.22037 0.0
C746 C 0.15582 0.53461 0.12263 0.0
C747 C 0.1691 0.5226 0.17712 0.0
C748 C 0.13754 0.53024 0.09704 0.0
C749 C 0.11288 0.51085 0.09916 0.0
C750 C 0.14959 0.51901 0.15014 0.0
C751 C 0.10763 0.49537 0.1269 0.0
C752 C 0.17377 0.49847 0.19773 0.0
C753 C 0.20676 0.55152 0.20193 0.0
N754 N 0.126 0.49961 0.15136 0.0
N755 N 0.18506 0.54865 0.18039 0.0
H756 H 0.59653 0.80747 0.79562 0.0
H757 H 0.50098 0.94783 0.85717 0.0
H758 H 0.50602 0.82315 0.76587 0.0
H759 H 0.56316 0.89659 0.9126 0.0
H760 H 0.51107 0.91335 0.81372 0.0
H761 H 0.59357 0.85297 0.82811 0.0
C762 C 0.57633 0.82101 0.79551 0.0
C763 C 0.5513 0.8116 0.77875 0.0
C764 C 0.52262 0.91 0.83538 0.0
C765 C 0.54777 0.86324 0.81514 0.0
C766 C 0.51686 0.92947 0.86004 0.0
C767 C 0.53088 0.92451 0.88846 0.0
C768 C 0.54316 0.88621 0.83918 0.0
C769 C 0.55144 0.90069 0.89117 0.0
C770 C 0.57461 0.84678 0.81392 0.0
C771 C 0.52569 0.8299 0.77867 0.0
N772 N 0.55701 0.88241 0.86679 0.0
N773 N 0.52438 0.8548 0.797 0.0
H774 H 0.19894 0.5434 0.76766 0.0
H775 H 0.14261 0.47368 0.92274 0.0
H776 H 0.22509 0.45411 0.79712 0.0
H777 H 0.0828 0.5288 0.86833 0.0
H778 H 0.1766 0.47067 0.87855 0.0
H779 H 0.15713 0.54198 0.80469 0.0
C780 C 0.195 0.52311 0.78115 0.0
C781 C 0.2149 0.49873 0.77955 0.0
C782 C 0.15593 0.4833 0.87634 0.0
C783 C 0.16892 0.49741 0.82236 0.0
C784 C 0.13681 0.4853 0.90157 0.0
C785 C 0.11002 0.50147 0.89901 0.0
C786 C 0.14841 0.49815 0.84877 0.0
C787 C 0.10327 0.51596 0.87104 0.0
C788 C 0.17156 0.52237 0.80238 0.0
C789 C 0.20976 0.4731 0.79782 0.0
N790 N 0.12252 0.51421 0.84698 0.0
N791 N 0.18759 0.47331 0.81903 0.0
H792 H 0.59938 0.22233 0.8197 0.0
H793 H 0.49309 0.10106 0.88511 0.0
H794 H 0.50483 0.22853 0.80274 0.0
H795 H 0.56114 0.13701 0.94533 0.0
H796 H 0.49979 0.14502 0.85115 0.0
H797 H 0.58916 0.18931 0.86439 0.0
C798 C 0.57651 0.2174 0.82616 0.0
C799 C 0.5528 0.22791 0.8081 0.0
C800 C 0.51297 0.14339 0.87202 0.0
C801 C 0.54106 0.18988 0.85749 0.0
C802 C 0.50933 0.11831 0.89114 0.0
C803 C 0.52663 0.11564 0.91783 0.0
C804 C 0.53465 0.16528 0.87928 0.0
C805 C 0.54733 0.13853 0.9249 0.0
C806 C 0.57067 0.19864 0.85135 0.0
C807 C 0.52346 0.22079 0.81659 0.0
N808 N 0.5512 0.16228 0.90537 0.0
N809 N 0.51836 0.20156 0.84034 0.0
H810 H 0.83674 0.47646 0.768 0.0
H811 H 0.8976 0.54345 0.92205 0.0
H812 H 0.82287 0.57044 0.79071 0.0
H813 H 0.94506 0.47274 0.87386 0.0
H814 H 0.86689 0.55184 0.87581 0.0
H815 H 0.87667 0.47384 0.80603 0.0
C816 C 0.84308 0.49694 0.78007 0.0
C817 C 0.82651 0.52365 0.77649 0.0
C818 C 0.88411 0.53455 0.87547 0.0
C819 C 0.87062 0.52035 0.82136 0.0
C820 C 0.90113 0.5294 0.90193 0.0
C821 C 0.92351 0.5072 0.90166 0.0
C822 C 0.88935 0.51699 0.84902 0.0
C823 C 0.92784 0.48999 0.87489 0.0
C824 C 0.86546 0.4953 0.8022 0.0
C825 C 0.83498 0.54935 0.79333 0.0
N826 N 0.91076 0.4951 0.84967 0.0
N827 N 0.85594 0.54688 0.81584 0.0
H828 H 0.75295 0.68785 0.9707 0.0
H829 H 0.60027 0.6278 0.03256 0.0
H830 H 0.7267 0.70097 0.06497 0.0
H831 H 0.64916 0.57612 0.96496 0.0
H832 H 0.64508 0.6588 0.04143 0.0
H833 H 0.71591 0.64708 0.96606 0.0
C834 C 0.74019 0.68113 0.99076 0.0
C835 C 0.74225 0.69781 0.01807 0.0
C836 C 0.6459 0.64067 0.02464 0.0
C837 C 0.69922 0.65284 0.01265 0.0
C838 C 0.62026 0.62348 0.01917 0.0
C839 C 0.62116 0.59976 0.99783 0.0
C840 C 0.67223 0.63429 0.00821 0.0
C841 C 0.64772 0.59443 0.98151 0.0
C842 C 0.71881 0.65831 0.98803 0.0
C843 C 0.72518 0.68872 0.04345 0.0
N844 N 0.67224 0.61173 0.98687 0.0
N845 N 0.70358 0.66739 0.0399 0.0
H846 H 0.33233 0.72095 0.94582 0.0
H847 H 0.40609 0.5894 0.0351 0.0
H848 H 0.33492 0.72387 0.04466 0.0
H849 H 0.45044 0.62503 0.95468 0.0
H850 H 0.37482 0.63539 0.03682 0.0
H851 H 0.37361 0.68455 0.94606 0.0
C852 C 0.34288 0.71516 0.96747 0.0
C853 C 0.33115 0.72601 0.99521 0.0
C854 C 0.39148 0.63302 0.01888 0.0
C855 C 0.37615 0.68263 0.9959 0.0
C856 C 0.4088 0.6067 0.01758 0.0
C857 C 0.43039 0.60356 0.9945 0.0
C858 C 0.39553 0.65572 0.99655 0.0
C859 C 0.43375 0.62674 0.97266 0.0
C860 C 0.36591 0.69397 0.96768 0.0
C861 C 0.34413 0.71645 0.02289 0.0
N862 N 0.41622 0.65179 0.97398 0.0
N863 N 0.3655 0.69453 0.02266 0.0
H864 H 0.32859 0.29791 0.93643 0.0
H865 H 0.45331 0.37869 0.03828 0.0
H866 H 0.33946 0.27732 0.03255 0.0
H867 H 0.40566 0.42359 0.9649 0.0
H868 H 0.42161 0.3338 0.0312 0.0
H869 H 0.36947 0.335 0.94013 0.0
C870 C 0.34048 0.30048 0.95798 0.0
C871 C 0.33066 0.2852 0.98436 0.0
C872 C 0.41813 0.35352 0.01674 0.0
C873 C 0.3767 0.32721 0.98891 0.0
C874 C 0.43596 0.37911 0.02087 0.0
C875 C 0.43168 0.40486 0.00237 0.0
C876 C 0.39649 0.35351 0.99343 0.0
C877 C 0.4092 0.40432 0.97995 0.0
C878 C 0.36338 0.32179 0.96021 0.0
C879 C 0.34659 0.28889 0.01183 0.0
N880 N 0.39252 0.37887 0.97591 0.0
N881 N 0.36867 0.30997 0.0136 0.0
H882 H 0.74077 0.31475 0.05093 0.0
H883 H 0.60771 0.3867 0.96571 0.0
H884 H 0.74117 0.31742 0.95204 0.0
H885 H 0.64412 0.43275 0.04485 0.0
H886 H 0.65371 0.35612 0.96257 0.0
H887 H 0.70464 0.35627 0.05169 0.0
C888 C 0.73458 0.32549 0.02944 0.0
C889 C 0.74461 0.31365 0.00141 0.0
C890 C 0.65149 0.37298 0.98056 0.0
C891 C 0.70137 0.35876 0.00193 0.0
C892 C 0.62518 0.38986 0.9827 0.0
C893 C 0.62227 0.4117 0.00584 0.0
C894 C 0.67444 0.37775 0.0021 0.0
C895 C 0.64565 0.41575 0.02692 0.0
C896 C 0.71347 0.3486 0.02982 0.0
C897 C 0.73434 0.32669 0.974 0.0
N898 N 0.67074 0.39865 0.02478 0.0
N899 N 0.71249 0.34809 0.97485 0.0
H900 H 0.09016 0.70403 0.70418 0.0
H901 H 0.99911 0.56108 0.64195 0.0
H902 H 1.00072 0.68523 0.73526 0.0
H903 H 0.06115 0.61425 0.58825 0.0
H904 H 1.00741 0.59556 0.68584 0.0
H905 H 0.08868 0.65816 0.67233 0.0
C906 C 0.07055 0.68962 0.70477 0.0
C907 C 0.04537 0.69823 0.72167 0.0
C908 C 0.0193 0.59934 0.66446 0.0
C909 C 0.04327 0.64644 0.68556 0.0
C910 C 0.01457 0.57986 0.63955 0.0
C911 C 0.02914 0.58532 0.6115 0.0
C912 C 0.03934 0.62363 0.66125 0.0
C913 C 0.04908 0.6097 0.60937 0.0
C914 C 0.06961 0.6637 0.68664 0.0
C915 C 0.02041 0.67907 0.72221 0.0
N916 N 0.05364 0.62795 0.63397 0.0
N917 N 0.01973 0.6541 0.70388 0.0
H918 H 0.31944 0.03808 0.71869 0.0
H919 H 0.44956 0.9629 0.62132 0.0
H920 H 0.33336 0.94156 0.72027 0.0
H921 H 0.39559 0.03621 0.5861 0.0
H922 H 0.41639 0.95915 0.66613 0.0
H923 H 0.35883 0.043 0.67954 0.0
C924 C 0.33181 0.01816 0.71156 0.0
C925 C 0.32373 0.98947 0.72255 0.0
C926 C 0.41185 0.97597 0.64854 0.0
C927 C 0.36778 0.99463 0.67795 0.0
C928 C 0.43056 0.97807 0.62307 0.0
C929 C 0.4249 0.99973 0.60015 0.0
C930 C 0.38795 0.99627 0.65137 0.0
C931 C 0.40028 0.01902 0.60326 0.0
C932 C 0.35372 0.02085 0.68902 0.0
C933 C 0.33952 0.96401 0.71238 0.0
N934 N 0.38274 0.01704 0.62871 0.0
N935 N 0.36086 0.96712 0.69037 0.0
H936 H 0.09602 0.29863 0.69677 0.0
H937 H 1.00072 0.36397 0.55638 0.0
H938 H 1.00536 0.27024 0.68024 0.0
H939 H 0.06249 0.41697 0.61052 0.0
H940 H 0.01073 0.32001 0.58988 0.0
H941 H 0.09327 0.33169 0.65129 0.0
C942 C 0.07589 0.2988 0.68291 0.0
C943 C 0.0507 0.28241 0.69224 0.0
C944 C 0.02219 0.34126 0.5941 0.0
C945 C 0.04735 0.31954 0.64071 0.0
C946 C 0.01645 0.36624 0.57521 0.0
C947 C 0.03044 0.3941 0.58119 0.0
C948 C 0.04268 0.34416 0.61838 0.0
C949 C 0.05081 0.39599 0.60561 0.0
C950 C 0.07426 0.31761 0.65721 0.0
C951 C 0.02515 0.28276 0.67358 0.0
N952 N 0.05639 0.37129 0.6233 0.0
N953 N 0.0239 0.30151 0.64879 0.0
H954 H 0.71768 0.04425 0.71808 0.0
H955 H 0.58948 0.96459 0.62057 0.0
H956 H 0.70578 0.94745 0.71849 0.0
H957 H 0.63758 0.04311 0.5882 0.0
H958 H 0.62252 0.96213 0.66554 0.0
H959 H 0.67679 0.04893 0.68054 0.0
C960 C 0.70542 0.02419 0.71114 0.0
C961 C 0.71451 0.9955 0.72127 0.0
C962 C 0.62578 0.97987 0.6486 0.0
C963 C 0.66882 1.0004 0.6784 0.0
C964 C 0.60712 0.98124 0.62305 0.0
C965 C 0.61118 1.00395 0.60087 0.0
C966 C 0.64814 1.00182 0.65218 0.0
C967 C 0.63416 0.02509 0.60479 0.0
C968 C 0.68263 0.02676 0.68949 0.0
C969 C 0.69884 0.96989 0.71132 0.0
N970 N 0.65179 0.02366 0.63024 0.0
N971 N 0.67673 0.97287 0.69012 0.0
H972 H 0.09697 0.30793 0.29447 0.0
H973 H 1.00208 0.44826 0.35692 0.0
H974 H 1.00642 0.32417 0.26517 0.0
H975 H 0.0633 0.39586 0.41236 0.0
H976 H 0.0124 0.41432 0.31313 0.0
H977 H 0.09438 0.3534 0.32708 0.0
C978 C 0.07687 0.32162 0.29444 0.0
C979 C 0.05169 0.31233 0.27785 0.0
C980 C 0.0237 0.4106 0.33486 0.0
C981 C 0.04859 0.36391 0.3143 0.0
C982 C 0.0178 0.42975 0.35972 0.0
C983 C 0.0315 0.42431 0.38822 0.0
C984 C 0.04404 0.38663 0.33856 0.0
C985 C 0.05185 0.40031 0.39085 0.0
C986 C 0.07536 0.34736 0.31291 0.0
C987 C 0.0262 0.33081 0.27784 0.0
N988 N 0.05757 0.38233 0.36628 0.0
N989 N 0.0251 0.35567 0.29622 0.0
H990 H 0.70065 0.04528 0.26886 0.0
H991 H 0.64404 0.9737 0.42354 0.0
H992 H 0.72521 0.95504 0.29672 0.0
H993 H 0.58574 0.03217 0.37106 0.0
H994 H 0.67793 0.97113 0.37918 0.0
H995 H 0.65954 0.04445 0.3067 0.0
C996 C 0.69647 0.02492 0.28215 0.0
C997 C 0.71574 1.00008 0.27983 0.0
C998 C 0.65763 0.98444 0.37745 0.0
C999 C 0.6706 0.99942 0.32363 0.0
C1000 C 0.6386 0.98619 0.40279 0.0
C1001 C 0.61222 1.0031 0.40076 0.0
C1002 C 0.65041 1.00025 0.35033 0.0
C1003 C 0.60589 0.01872 0.37332 0.0
C1004 C 0.67345 0.02453 0.30387 0.0
C1005 C 0.71032 0.97437 0.29792 0.0
N1006 N 0.62501 0.01713 0.34915 0.0
N1007 N 0.6886 0.97489 0.31961 0.0
H1008 H 0.04688 0.74033 0.32176 0.0
H1009 H 0.98018 0.5921 0.38774 0.0
H1010 H 0.95731 0.71217 0.2996 0.0
H1011 H 0.04054 0.64513 0.44353 0.0
H1012 H 0.97247 0.63606 0.35447 0.0
H1013 H 0.04569 0.70769 0.36761 0.0
C1014 C 0.02665 0.72794 0.32725 0.0
C1015 C 1.00233 0.72825 0.30697 0.0
C1016 C 0.98714 0.6382 0.37419 0.0
C1017 C 1.00107 0.69053 0.35814 0.0
C1018 C 0.99184 0.61304 0.3929 0.0
C1019 C 0.01132 0.61502 0.41806 0.0
C1020 C 1.00259 0.66526 0.38027 0.0
C1021 C 0.02547 0.64278 0.42417 0.0
C1022 C 0.02599 0.70927 0.35317 0.0
C1023 C 0.97663 0.71182 0.3146 0.0
N1024 N 0.02124 0.6668 0.40501 0.0
N1025 N 0.97688 0.69295 0.33925 0.0
H1026 H 0.32946 0.9558 0.27911 0.0
H1027 H 0.40063 0.04132 0.41542 0.0
H1028 H 0.32858 0.05331 0.27959 0.0
H1029 H 0.44668 0.96434 0.37658 0.0
H1030 H 0.36941 0.04402 0.36878 0.0
H1031 H 0.37076 0.95619 0.31589 0.0
C1032 C 0.3393 0.97729 0.28563 0.0
C1033 C 0.32662 0.00457 0.27563 0.0
C1034 C 0.38647 0.02667 0.37058 0.0
C1035 C 0.37157 0.00528 0.31962 0.0
C1036 C 0.40377 0.0248 0.39726 0.0
C1037 C 0.42582 1.00241 0.39969 0.0
C1038 C 0.39101 0.00557 0.34683 0.0
C1039 C 0.42968 0.98182 0.37543 0.0
C1040 C 0.3623 0.97755 0.30712 0.0
C1041 C 0.33852 0.03195 0.28641 0.0
N1042 N 0.41218 0.98367 0.35005 0.0
N1043 N 0.35992 0.03168 0.30859 0.0
H1044 H 0.98864 0.22348 0.29852 0.0
H1045 H 0.04651 0.06522 0.36464 0.0
H1046 H 0.06829 0.18015 0.26489 0.0
H1047 H 0.99919 0.13126 0.41946 0.0
H1048 H 0.04489 0.10006 0.32084 0.0
H1049 H 0.98117 0.1813 0.33474 0.0
C1050 C 1.00374 0.20428 0.29796 0.0
C1051 C 0.02893 0.20483 0.27881 0.0
C1052 C 0.03476 0.1068 0.34242 0.0
C1053 C 0.02116 0.15733 0.32025 0.0
C1054 C 0.03569 0.08703 0.36744 0.0
C1055 C 0.02319 0.09553 0.39582 0.0
C1056 C 0.02072 0.13502 0.34561 0.0
C1057 C 0.00943 0.12401 0.39812 0.0
C1058 C 0.99983 0.18061 0.31886 0.0
C1059 C 0.04847 0.18008 0.27919 0.0
N1060 N 0.00847 0.14275 0.37325 0.0
N1061 N 0.04437 0.15733 0.29991 0.0
H1062 H 0.84214 0.03825 0.2644 0.0
H1063 H 0.89713 0.97454 0.42416 0.0
H1064 H 0.81078 0.95304 0.30012 0.0
H1065 H 0.9578 0.02509 0.36641 0.0
H1066 H 0.86234 0.97059 0.38058 0.0
H1067 H 0.88377 0.03698 0.30165 0.0
C1068 C 0.84487 0.01867 0.27921 0.0
C1069 C 0.82347 0.99545 0.27896 0.0
C1070 C 0.88334 0.98246 0.37747 0.0
C1071 C 0.86954 0.99464 0.32265 0.0
C1072 C 0.90303 0.98498 0.40241 0.0
C1073 C 0.93038 1.00017 0.39893 0.0
C1074 C 0.89071 0.99584 0.34905 0.0
C1075 C 0.93699 0.01305 0.37006 0.0
C1076 C 0.86825 0.01814 0.30075 0.0
C1077 C 0.82725 0.97103 0.29935 0.0
N1078 N 0.91719 0.01088 0.34633 0.0
N1079 N 0.84937 0.97156 0.32082 0.0
H1080 H 0.97175 0.78439 0.30898 0.0
H1081 H 0.05442 0.92879 0.3753 0.0
H1082 H 0.06083 0.80747 0.27933 0.0
H1083 H 0.99604 0.87392 0.43154 0.0
H1084 H 0.05253 0.88984 0.33508 0.0
H1085 H 0.97521 0.82304 0.34936 0.0
C1086 C 0.99194 0.79783 0.31091 0.0
C1087 C 0.01599 0.79293 0.29086 0.0
C1088 C 0.0403 0.88633 0.35631 0.0
C1089 C 0.01997 0.83723 0.33644 0.0
C1090 C 0.04125 0.90849 0.37916 0.0
C1091 C 0.02531 0.90446 0.40669 0.0
C1092 C 0.0227 0.86038 0.36077 0.0
C1093 C 0.00876 0.87775 0.41069 0.0
C1094 C 0.99393 0.81972 0.33389 0.0
C1095 C 0.04159 0.81104 0.29396 0.0
N1096 N 1.00757 0.85681 0.38776 0.0
N1097 N 0.0429 0.83257 0.31632 0.0
H1098 H 0.23371 0.94787 0.29816 0.0
H1099 H 0.0919 0.03039 0.37156 0.0
H1100 H 0.19939 0.03245 0.26384 0.0
H1101 H 0.14867 0.96935 0.42269 0.0
H1102 H 0.12447 0.02476 0.32685 0.0
H1103 H 0.19423 0.94715 0.33744 0.0
C1104 C 0.21681 0.96548 0.29805 0.0
C1105 C 0.21933 0.99006 0.27772 0.0
C1106 C 0.12986 0.01264 0.34784 0.0
C1107 C 0.1751 0.99011 0.32292 0.0
C1108 C 0.11139 0.0159 0.37339 0.0
C1109 C 0.11777 1.00043 0.40089 0.0
C1110 C 0.1547 0.99336 0.34954 0.0
C1111 C 0.14324 0.98196 0.40203 0.0
C1112 C 0.1948 0.96545 0.32079 0.0
C1113 C 0.1977 0.01293 0.27888 0.0
N1114 N 0.16074 0.97876 0.37657 0.0
N1115 N 0.17659 0.01263 0.30141 0.0
H1116 H 0.99394 0.81709 0.73326 0.0
H1117 H 0.05996 0.88583 0.58359 0.0
H1118 H 0.08729 0.80818 0.71138 0.0
H1119 H 0.99611 0.93921 0.63464 0.0
H1120 H 0.06618 0.85289 0.62861 0.0
H1121 H 0.99067 0.86056 0.69764 0.0
C1122 C 0.01398 0.82527 0.72198 0.0
C1123 C 0.04092 0.80937 0.72502 0.0
C1124 C 0.05088 0.8719 0.62992 0.0
C1125 C 0.03715 0.85736 0.68359 0.0
C1126 C 0.04706 0.89039 0.60418 0.0
C1127 C 0.02743 0.91509 0.60547 0.0
C1128 C 0.03444 0.87777 0.65682 0.0
C1129 C 0.0115 0.92033 0.63284 0.0
C1130 C 0.01207 0.84967 0.70144 0.0
C1131 C 0.06623 0.82015 0.70952 0.0
N1132 N 0.01506 0.90156 0.65743 0.0
N1133 N 0.06359 0.84298 0.68876 0.0
H1134 H 0.23679 0.04564 0.70602 0.0
H1135 H 0.08623 0.98105 0.63248 0.0
H1136 H 0.19487 0.9636 0.73765 0.0
H1137 H 0.14952 0.03518 0.58135 0.0
H1138 H 0.11942 0.98265 0.67707 0.0
H1139 H 0.1971 0.05171 0.66738 0.0
C1140 C 0.21829 0.02977 0.7057 0.0
C1141 C 0.21862 0.00434 0.7251 0.0
C1142 C 0.12601 0.99422 0.65614 0.0
C1143 C 0.174 0.01042 0.68069 0.0
C1144 C 0.10716 0.99333 0.63065 0.0
C1145 C 0.11523 0.00797 0.60314 0.0
C1146 C 0.15299 0.01026 0.65435 0.0
C1147 C 0.14263 0.02337 0.60203 0.0
C1148 C 0.19611 0.03284 0.68333 0.0
C1149 C 0.19491 0.98372 0.72336 0.0
N1150 N 0.16053 0.02426 0.6274 0.0
N1151 N 0.17361 0.98702 0.70126 0.0
H1152 H 0.99152 0.20537 0.72301 0.0
H1153 H 0.05328 0.13609 0.56759 0.0
H1154 H 0.08019 0.22514 0.68977 0.0
H1155 H 0.99688 0.08301 0.62766 0.0
H1156 H 0.05686 0.17505 0.60764 0.0
H1157 H 0.98713 0.16508 0.6842 0.0
C1158 C 0.01024 0.20082 0.70794 0.0
C1159 C 0.03645 0.21819 0.70978 0.0
C1160 C 0.04367 0.15487 0.61194 0.0
C1161 C 0.03104 0.1735 0.6647 0.0
C1162 C 0.04145 0.13279 0.58909 0.0
C1163 C 0.02486 0.10631 0.59445 0.0
C1164 C 0.02866 0.1507 0.64 0.0
C1165 C 0.0101 0.10304 0.62278 0.0
C1166 C 1.00761 0.17814 0.68566 0.0
C1167 C 0.05963 0.21223 0.68892 0.0
N1168 N 0.01218 0.12511 0.6445 0.0
N1169 N 0.05631 0.19056 0.66703 0.0
H1170 H 0.8043 0.04955 0.69866 0.0
H1171 H 0.95649 0.98199 0.63159 0.0
H1172 H 0.8434 0.96752 0.73393 0.0
H1173 H 0.89429 0.03329 0.57629 0.0
H1174 H 0.92147 0.98416 0.67476 0.0
H1175 H 0.84464 0.05305 0.66043 0.0
C1176 C 0.82227 0.03308 0.69918 0.0
C1177 C 0.82095 0.00849 0.71966 0.0
C1178 C 0.9155 0.99494 0.6532 0.0
C1179 C 0.86648 0.0117 0.67561 0.0
C1180 C 0.93542 0.99372 0.62851 0.0
C1181 C 0.92824 0.00738 0.60019 0.0
C1182 C 0.88837 0.0105 0.6499 0.0
C1183 C 0.90059 0.0222 0.59758 0.0
C1184 C 0.84485 0.0347 0.67703 0.0
C1185 C 0.84408 0.98709 0.71888 0.0
N1186 N 0.88173 0.02357 0.62221 0.0
N1187 N 0.86585 0.98903 0.69703 0.0
H1188 H 0.29071 0.03128 0.18584 0.0
H1189 H 0.44895 0.96898 0.13011 0.0
H1190 H 0.33226 0.95276 0.22619 0.0
H1191 H 0.39105 0.02113 0.07068 0.0
H1192 H 0.4086 0.96639 0.16823 0.0
H1193 H 0.32877 0.03092 0.1449 0.0
C1194 C 0.30776 0.01384 0.18581 0.0
C1195 C 0.30882 0.99234 0.20951 0.0
C1196 C 0.40474 0.97828 0.14677 0.0
C1197 C 0.3526 0.99204 0.16359 0.0
C1198 C 0.42782 0.97993 0.1251 0.0
C1199 C 0.42339 0.99525 0.09713 0.0
C1200 C 0.37723 0.9925 0.14067 0.0
C1201 C 0.39543 0.00889 0.09182 0.0
C1202 C 0.3295 0.01368 0.16267 0.0
C1203 C 0.33131 0.97024 0.20881 0.0
N1204 N 0.37351 0.00738 0.11346 0.0
N1205 N 0.35255 0.97082 0.18641 0.0
H1206 H 0.08107 0.31598 0.21955 0.0
H1207 H 0.98902 0.38199 0.07947 0.0
H1208 H 0.99207 0.28382 0.20015 0.0
H1209 H 0.04815 0.43812 0.13344 0.0
H1210 H 0.99369 0.3417 0.11812 0.0
H1211 H 0.07402 0.35678 0.18186 0.0
C1212 C 0.06018 0.31738 0.20702 0.0
C1213 C 0.03722 0.29647 0.2127 0.0
C1214 C 1.00543 0.36294 0.12156 0.0
C1215 C 0.02906 0.34269 0.16958 0.0
C1216 C 1.00285 0.38586 0.09958 0.0
C1217 C 0.01828 0.41335 0.10336 0.0
C1218 C 0.02417 0.36729 0.14703 0.0
C1219 C 0.03578 0.41732 0.12981 0.0
C1220 C 0.05612 0.34066 0.18574 0.0
C1221 C 0.01056 0.29906 0.19588 0.0
N1222 N 0.0386 0.39432 0.1505 0.0
N1223 N 1.00722 0.32175 0.1749 0.0
H1224 H 0.75439 0.02559 0.18315 0.0
H1225 H 0.58987 0.97315 0.13349 0.0
H1226 H 0.70361 0.95945 0.23405 0.0
H1227 H 0.65155 0.01559 0.07031 0.0
H1228 H 0.62984 0.97087 0.1721 0.0
H1229 H 0.71627 0.02438 0.14239 0.0
C1230 C 0.73539 0.01055 0.18554 0.0
C1231 C 0.73205 0.99285 0.21218 0.0
C1232 C 0.63463 0.98058 0.14973 0.0
C1233 C 0.68785 0.99186 0.16606 0.0
C1234 C 0.61175 0.98203 0.12768 0.0
C1235 C 0.6172 0.99456 0.09845 0.0
C1236 C 0.66318 0.99215 0.14279 0.0
C1237 C 0.64618 0.00557 0.09238 0.0
C1238 C 0.71351 0.01001 0.16242 0.0
C1239 C 0.70673 0.97406 0.21432 0.0
N1240 N 0.66792 0.00428 0.11434 0.0
N1241 N 0.68552 0.97426 0.19178 0.0
H1242 H 0.9867 0.74352 0.1751 0.0
H1243 H 0.05029 0.58563 0.12519 0.0
H1244 H 0.06754 0.70734 0.21405 0.0
H1245 H 0.99885 0.64066 0.06223 0.0
H1246 H 0.05602 0.62991 0.15883 0.0
H1247 H 0.99115 0.70768 0.1321 0.0
C1248 C 1.0061 0.72889 0.17368 0.0
C1249 C 0.02689 0.72822 0.19768 0.0
C1250 C 0.0437 0.63228 0.1375 0.0
C1251 C 0.03139 0.68637 0.15008 0.0
C1252 C 0.04009 0.60696 0.11857 0.0
C1253 C 0.0239 0.60947 0.09107 0.0
C1254 C 0.03055 0.66005 0.12908 0.0
C1255 C 0.01151 0.63775 0.08327 0.0
C1256 C 0.00848 0.7082 0.14952 0.0
C1257 C 0.05134 0.70847 0.19557 0.0
N1258 N 0.01481 0.66187 0.10235 0.0
N1259 N 0.05256 0.68769 0.17257 0.0
H1260 H 0.33208 0.95718 0.77988 0.0
H1261 H 0.39153 0.0381 0.92946 0.0
H1262 H 0.29607 0.04427 0.80543 0.0
H1263 H 0.45094 0.99107 0.86749 0.0
H1264 H 0.35195 0.03561 0.89017 0.0
H1265 H 0.37168 0.96357 0.81818 0.0
C1266 C 0.3325 0.97763 0.79365 0.0
C1267 C 0.31072 1.00015 0.78949 0.0
C1268 C 0.37375 0.02609 0.88521 0.0
C1269 C 0.35552 0.00731 0.83389 0.0
C1270 C 0.39626 0.02737 0.90756 0.0
C1271 C 0.42455 0.01479 0.90166 0.0
C1272 C 0.37937 0.01133 0.85721 0.0
C1273 C 0.42954 1.00124 0.8729 0.0
C1274 C 0.35504 0.98123 0.81547 0.0
C1275 C 0.31197 0.02603 0.80833 0.0
N1276 N 0.40704 0.99949 0.85191 0.0
N1277 N 0.33393 0.02883 0.82994 0.0
H1278 H 0.98653 0.3039 0.78079 0.0
H1279 H 0.04203 0.37215 0.94077 0.0
H1280 H 0.06577 0.27241 0.82682 0.0
H1281 H 0.99273 0.42411 0.87345 0.0
H1282 H 0.04149 0.32865 0.90601 0.0
H1283 H 0.97789 0.34018 0.82278 0.0
C1284 C 1.0013 0.30387 0.80055 0.0
C1285 C 0.0267 0.28529 0.80084 0.0
C1286 C 0.03069 0.34953 0.89895 0.0
C1287 C 0.01763 0.32677 0.84808 0.0
C1288 C 0.03098 0.37438 0.91869 0.0
C1289 C 0.01756 0.40184 0.90983 0.0
C1290 C 0.01646 0.35197 0.87035 0.0
C1291 C 1.00364 0.40346 0.88097 0.0
C1292 C 0.99672 0.32478 0.82411 0.0
C1293 C 0.04581 0.28628 0.82626 0.0
N1294 N 1.00337 0.37876 0.86222 0.0
N1295 N 0.04107 0.307 0.84888 0.0
H1296 H 0.70896 0.96047 0.77696 0.0
H1297 H 0.65079 0.03633 0.9306 0.0
H1298 H 0.74605 0.04597 0.80605 0.0
H1299 H 0.59114 0.99133 0.86735 0.0
H1300 H 0.69046 0.03452 0.89131 0.0
H1301 H 0.67019 0.96515 0.81639 0.0
C1302 C 0.70896 0.98023 0.79173 0.0
C1303 C 0.73071 1.00291 0.78802 0.0
C1304 C 0.66861 0.02524 0.88608 0.0
C1305 C 0.68678 0.00803 0.83391 0.0
C1306 C 0.64602 0.02615 0.90845 0.0
C1307 C 0.61756 0.01404 0.90219 0.0
C1308 C 0.66297 0.01129 0.85762 0.0
C1309 C 0.61263 1.00116 0.87308 0.0
C1310 C 0.68688 0.98284 0.81424 0.0
C1311 C 0.73008 0.02771 0.80836 0.0
N1312 N 0.63518 0.99977 0.85207 0.0
N1313 N 0.70851 0.02957 0.83057 0.0
H1314 H 0.07696 0.69153 0.77688 0.0
H1315 H 0.9896 0.63067 0.92305 0.0
H1316 H 0.99349 0.73144 0.80517 0.0
H1317 H 0.04377 0.57224 0.86618 0.0
H1318 H 0.99452 0.67098 0.88456 0.0
H1319 H 0.06986 0.651 0.81479 0.0
C1320 C 0.05722 0.69176 0.7913 0.0
C1321 C 0.03567 0.71461 0.78791 0.0
C1322 C 1.00512 0.64925 0.88043 0.0
C1323 C 0.02756 0.66876 0.83144 0.0
C1324 C 1.00238 0.62629 0.90234 0.0
C1325 C 0.01639 0.59813 0.89775 0.0
C1326 C 0.02253 0.64425 0.8541 0.0
C1327 C 0.03252 0.59356 0.8705 0.0
C1328 C 0.05313 0.66867 0.81277 0.0
C1329 C 0.01071 0.71434 0.8074 0.0
N1330 N 0.03549 0.61656 0.84983 0.0
N1331 N 1.00731 0.69172 0.82846 0.0
H1332 H 0.24214 0.31363 0.04478 0.0
H1333 H 0.08439 0.37334 0.98204 0.0
H1334 H 0.20033 0.27461 0.96502 0.0
H1335 H 0.14786 0.4316 0.02776 0.0
H1336 H 0.12093 0.33189 0.98375 0.0
H1337 H 0.20124 0.35079 0.04832 0.0
C1338 C 0.22358 0.31212 0.02884 0.0
C1339 C 0.22427 0.29068 0.00494 0.0
C1340 C 0.12682 0.35371 0.99347 0.0
C1341 C 0.17779 0.33362 0.00822 0.0
C1342 C 0.10597 0.37744 0.99256 0.0
C1343 C 0.11301 0.40619 0.00469 0.0
C1344 C 0.15482 0.35833 0.00728 0.0
C1345 C 0.14147 0.41 0.01791 0.0
C1346 C 0.20059 0.33366 0.03047 0.0
C1347 C 0.20025 0.29034 0.98414 0.0
N1348 N 0.16119 0.38634 0.01906 0.0
N1349 N 0.17804 0.31154 0.98617 0.0
H1350 H 0.20351 0.73778 0.02936 0.0
H1351 H 0.14543 0.57942 0.96749 0.0
H1352 H 0.23512 0.69945 0.94445 0.0
H1353 H 0.08582 0.63843 0.01747 0.0
H1354 H 0.1814 0.62136 0.96339 0.0
H1355 H 0.1615 0.70135 0.029 0.0
C1356 C 0.20088 0.7225 0.01005 0.0
C1357 C 0.22247 0.72192 0.98663 0.0
C1358 C 0.1604 0.62514 0.97518 0.0
C1359 C 0.17574 0.6791 0.9869 0.0
C1360 C 0.13995 0.60111 0.97774 0.0
C1361 C 0.11248 0.60532 0.99279 0.0
C1362 C 0.15377 0.65351 0.9884 0.0
C1363 C 0.10662 0.63414 0.00547 0.0
C1364 C 0.17723 0.70142 0.01005 0.0
C1365 C 0.21863 0.7009 0.96263 0.0
N1366 N 0.12715 0.65698 0.00328 0.0
N1367 N 0.19621 0.68 0.96369 0.0
H1368 H 0.29788 0.20358 0.04244 0.0
H1369 H 0.45301 0.13771 0.98348 0.0
H1370 H 0.33544 0.2298 0.95504 0.0
H1371 H 0.39055 0.07846 0.02938 0.0
H1372 H 0.41418 0.17702 0.98101 0.0
H1373 H 0.33467 0.16204 0.04552 0.0
C1374 C 0.31345 0.20045 0.02369 0.0
C1375 C 0.31324 0.22031 0.99828 0.0
C1376 C 0.40901 0.15544 0.99172 0.0
C1377 C 0.35646 0.1736 0.00249 0.0
C1378 C 0.43123 0.13302 0.99332 0.0
C1379 C 0.42515 0.1046 0.00664 0.0
C1380 C 0.38053 0.14994 0.00426 0.0
C1381 C 0.39627 0.09991 0.01875 0.0
C1382 C 0.33468 0.17688 0.02564 0.0
C1383 C 0.3349 0.21548 0.97526 0.0
N1384 N 0.37517 0.12238 0.01755 0.0
N1385 N 0.35569 0.19302 0.97807 0.0
H1386 H 0.79225 0.31939 0.05131 0.0
H1387 H 0.94986 0.37254 0.98383 0.0
H1388 H 0.8327 0.27419 0.97414 0.0
H1389 H 0.88814 0.43438 0.02723 0.0
H1390 H 0.91179 0.33247 0.98666 0.0
H1391 H 0.83199 0.35762 0.04994 0.0
C1392 C 0.80946 0.3176 0.03399 0.0
C1393 C 0.8088 0.29406 0.01232 0.0
C1394 C 0.90663 0.35482 0.99553 0.0
C1395 C 0.85503 0.3372 0.01117 0.0
C1396 C 0.92835 0.3777 0.99403 0.0
C1397 C 0.9222 0.40699 0.00521 0.0
C1398 C 0.87871 0.36097 0.00896 0.0
C1399 C 0.89384 0.41228 0.01807 0.0
C1400 C 0.83225 0.33933 0.03331 0.0
C1401 C 0.83247 0.29207 0.9912 0.0
N1402 N 0.87329 0.38949 0.0198 0.0
N1403 N 0.85463 0.31338 0.99109 0.0
H1404 H 0.7187 0.78621 0.95266 0.0
H1405 H 0.64702 0.93753 0.02234 0.0
H1406 H 0.75053 0.82891 0.03527 0.0
H1407 H 0.59834 0.87766 0.96179 0.0
H1408 H 0.68972 0.90333 0.02033 0.0
H1409 H 0.68046 0.82601 0.94743 0.0
C1410 C 0.71847 0.8049 0.96882 0.0
C1411 C 0.73802 0.80475 0.99412 0.0
C1412 C 0.66976 0.89763 0.00743 0.0
C1413 C 0.69387 0.84957 0.98906 0.0
C1414 C 0.64528 0.91715 0.00852 0.0
C1415 C 0.61893 0.91049 0.99217 0.0
C1416 C 0.66829 0.87122 0.98957 0.0
C1417 C 0.61807 0.88358 0.97492 0.0
C1418 C 0.69629 0.82716 0.96625 0.0
C1419 C 0.73624 0.8287 0.01516 0.0
N1420 N 0.64248 0.86496 0.97394 0.0
N1421 N 0.71437 0.85003 0.01234 0.0
H1422 H 0.79668 0.69562 0.05064 0.0
H1423 H 0.94538 0.63507 0.97103 0.0
H1424 H 0.82298 0.72803 0.96106 0.0
H1425 H 0.89012 0.57844 0.02873 0.0
H1426 H 0.90632 0.67437 0.97221 0.0
H1427 H 0.83651 0.65758 0.0484 0.0
C1428 C 0.81097 0.69484 0.03055 0.0
C1429 C 0.80645 0.71515 0.00607 0.0
C1430 C 0.90281 0.6533 0.98454 0.0
C1431 C 0.85263 0.67192 0.00359 0.0
C1432 C 0.92511 0.63092 0.98402 0.0
C1433 C 0.92104 0.60334 -0.00021 0.0
C1434 C 0.87656 0.64843 0.0016 0.0
C1435 C 0.8942 0.5992 0.01608 0.0
C1436 C 0.8337 0.67314 0.0293 0.0
C1437 C 0.82597 0.71334 0.98075 0.0
N1438 N 0.87318 0.62156 0.0168 0.0
N1439 N 0.8483 0.69218 0.98021 0.0
H1440 H 0.33714 0.77426 0.94864 0.0
H1441 H 0.38982 0.93539 0.0148 0.0
H1442 H 0.29251 0.81688 0.02487 0.0
H1443 H 0.44887 0.87515 0.96559 0.0
H1444 H 0.35083 0.8962 0.01342 0.0
H1445 H 0.37465 0.81474 0.94894 0.0
C1446 C 0.33533 0.79204 0.96561 0.0
C1447 C 0.31201 0.79168 0.98726 0.0
C1448 C 0.3723 0.89158 0.0029 0.0
C1449 C 0.35458 0.83905 0.98714 0.0
C1450 C 0.39463 0.91403 0.00353 0.0
C1451 C 0.42291 0.90876 0.99026 0.0
C1452 C 0.37787 0.86365 0.98839 0.0
C1453 C 0.42761 0.88037 0.97624 0.0
C1454 C 0.35669 0.81533 0.96565 0.0
C1455 C 0.31011 0.81624 0.0078 0.0
N1456 N 0.40538 0.8591 0.97551 0.0
N1457 N 0.33109 0.83886 0.00729 0.0
H1458 H 0.71964 0.22079 0.0578 0.0
H1459 H 0.64834 0.07342 0.97956 0.0
H1460 H 0.75219 0.18342 0.97287 0.0
H1461 H 0.59904 0.13127 0.0415 0.0
H1462 H 0.69113 0.10755 0.98335 0.0
H1463 H 0.68123 0.18095 0.05993 0.0
C1464 C 0.71949 0.20323 0.04038 0.0
C1465 C 0.73934 0.20492 0.01541 0.0
C1466 C 0.671 0.1128 0.99614 0.0
C1467 C 0.69498 0.16004 0.01699 0.0
C1468 C 0.64649 0.09334 0.99403 0.0
C1469 C 0.61994 0.09949 0.01024 0.0
C1470 C 0.66935 0.13853 0.01499 0.0
C1471 C 0.61892 0.12577 0.02843 0.0
C1472 C 0.69723 0.18096 0.04122 0.0
C1473 C 0.73768 0.1824 0.99277 0.0
N1474 N 0.64336 0.14425 0.03047 0.0
N1475 N 0.71571 0.16099 0.99394 0.0
H1476 H 0.48936 0.72028 0.7953 0.0
H1477 H 0.54919 0.5637 0.86372 0.0
H1478 H 0.57221 0.68045 0.76564 0.0
H1479 H 0.49861 0.62882 0.91651 0.0
H1480 H 0.54831 0.59848 0.81969 0.0
H1481 H 0.48174 0.6775 0.83075 0.0
C1482 C 0.5052 0.7017 0.79541 0.0
C1483 C 0.53126 0.70341 0.77764 0.0
C1484 C 0.53728 0.60498 0.84088 0.0
C1485 C 0.52329 0.65525 0.81822 0.0
C1486 C 0.53778 0.58526 0.86599 0.0
C1487 C 0.52417 0.59359 0.89386 0.0
C1488 C 0.5225 0.63289 0.84349 0.0
C1489 C 0.50971 0.62175 0.89557 0.0
C1490 C 0.50117 0.67768 0.81586 0.0
C1491 C 0.55173 0.67946 0.77888 0.0
N1492 N 0.50916 0.64039 0.87064 0.0
N1493 N 0.54749 0.65635 0.79917 0.0
H1494 H 0.31007 0.45154 0.7987 0.0
H1495 H 0.45653 0.52885 0.86833 0.0
H1496 H 0.3408 0.53846 0.76687 0.0
H1497 H 0.39708 0.47293 0.92217 0.0
H1498 H 0.42169 0.52549 0.82484 0.0
H1499 H 0.35076 0.45056 0.83668 0.0
C1500 C 0.32635 0.46974 0.79885 0.0
C1501 C 0.32252 0.49488 0.77943 0.0
C1502 C 0.41632 0.51398 0.84617 0.0
C1503 C 0.36843 0.49446 0.82321 0.0
C1504 C 0.43611 0.51587 0.871 0.0
C1505 C 0.42957 0.50127 0.89899 0.0
C1506 C 0.39013 0.49672 0.84902 0.0
C1507 C 0.40281 0.4848 0.90116 0.0
C1508 C 0.3491 0.4695 0.82086 0.0
C1509 C 0.34348 0.51847 0.78107 0.0
N1510 N 0.38417 0.48275 0.8764 0.0
N1511 N 0.3655 0.51782 0.80279 0.0
H1512 H 0.5873 0.28479 0.81389 0.0
H1513 H 0.49585 0.42623 0.87449 0.0
H1514 H 0.50101 0.30639 0.77565 0.0
H1515 H 0.55214 0.37256 0.93408 0.0
H1516 H 0.50105 0.38751 0.8343 0.0
H1517 H 0.57915 0.32255 0.85431 0.0
C1518 C 0.56676 0.2978 0.8139 0.0
C1519 C 0.54496 0.29274 0.7913 0.0
C1520 C 0.51201 0.38415 0.85628 0.0
C1521 C 0.5355 0.33602 0.83721 0.0
C1522 C 0.50915 0.40619 0.87916 0.0
C1523 C 0.52362 0.40253 0.90762 0.0
C1524 C 0.53008 0.3587 0.86167 0.0
C1525 C 0.54047 0.37615 0.91254 0.0
C1526 C 0.56207 0.31916 0.83697 0.0
C1527 C 0.5187 0.31015 0.79216 0.0
N1528 N 0.54356 0.3554 0.88962 0.0
N1529 N 0.51473 0.33121 0.81474 0.0
H1530 H 0.74499 0.45955 0.80513 0.0
H1531 H 0.58709 0.51832 0.86664 0.0
H1532 H 0.6953 0.53104 0.7614 0.0
H1533 H 0.65244 0.4753 0.92538 0.0
H1534 H 0.62144 0.51394 0.82339 0.0
H1535 H 0.70512 0.45433 0.84373 0.0
C1536 C 0.7249 0.4731 0.80294 0.0
C1537 C 0.72299 0.49546 0.78004 0.0
C1538 C 0.62826 0.50539 0.84569 0.0
C1539 C 0.67805 0.49047 0.82429 0.0
C1540 C 0.6087 0.50787 0.87047 0.0
C1541 C 0.61695 0.49723 0.89978 0.0
C1542 C 0.65627 0.49182 0.84997 0.0
C1543 C 0.64531 0.48406 0.90328 0.0
C1544 C 0.70254 0.4706 0.82522 0.0
C1545 C 0.69716 0.51326 0.77849 0.0
N1546 N 0.66397 0.48161 0.87859 0.0
N1547 N 0.67574 0.51061 0.80055 0.0
H1548 H 0.57975 0.30383 0.21212 0.0
H1549 H 0.49582 0.44354 0.135 0.0
H1550 H 0.48814 0.32366 0.2343 0.0
H1551 H 0.55764 0.38571 0.08639 0.0
H1552 H 0.4999 0.41032 0.18017 0.0
H1553 H 0.58027 0.34678 0.17619 0.0
C1554 C 0.56023 0.31828 0.2104 0.0
C1555 C 0.5339 0.31055 0.22598 0.0
C1556 C 0.51258 0.40507 0.15961 0.0
C1557 C 0.53398 0.35883 0.18478 0.0
C1558 C 0.51023 0.42384 0.13387 0.0
C1559 C 0.5262 0.41708 0.10689 0.0
C1560 C 0.53169 0.37994 0.15857 0.0
C1561 C 0.54466 0.39143 0.10661 0.0
C1562 C 0.56034 0.3423 0.18961 0.0
C1563 C 0.50885 0.32931 0.22276 0.0
N1564 N 0.54708 0.37385 0.1322 0.0
N1565 N 0.50931 0.35251 0.20208 0.0
H1566 H 0.7383 0.54921 0.20272 0.0
H1567 H 0.58656 0.48432 0.13201 0.0
H1568 H 0.69607 0.46802 0.23614 0.0
H1569 H 0.64963 0.53698 0.07903 0.0
H1570 H 0.62016 0.48671 0.1762 0.0
H1571 H 0.69826 0.55496 0.16437 0.0
C1572 C 0.71969 0.53347 0.20283 0.0
C1573 C 0.72001 0.50835 0.22264 0.0
C1574 C 0.62662 0.49781 0.15495 0.0
C1575 C 0.67499 0.51407 0.17861 0.0
C1576 C 0.60752 0.49647 0.12969 0.0
C1577 C 0.61541 0.51044 0.10176 0.0
C1578 C 0.65368 0.51362 0.15254 0.0
C1579 C 0.64288 0.52568 0.10005 0.0
C1580 C 0.6973 0.53636 0.18064 0.0
C1581 C 0.69614 0.48789 0.22149 0.0
N1582 N 0.66103 0.527 0.12521 0.0
N1583 N 0.67464 0.49101 0.19957 0.0
H1584 H 0.49985 0.70369 0.22663 0.0
H1585 H 0.5497 0.63836 0.06418 0.0
H1586 H 0.58435 0.72593 0.18467 0.0
H1587 H 0.49811 0.5837 0.12729 0.0
H1588 H 0.55501 0.67703 0.1043 0.0
H1589 H 0.49215 0.66438 0.18719 0.0
C1590 C 0.51699 0.69991 0.2095 0.0
C1591 C 0.54301 0.7177 0.20907 0.0
C1592 C 0.54242 0.6566 0.10925 0.0
C1593 C 0.5337 0.67416 0.16332 0.0
C1594 C 0.53919 0.63467 0.08633 0.0
C1595 C 0.52357 0.60776 0.0925 0.0
C1596 C 0.52944 0.65185 0.13829 0.0
C1597 C 0.51056 0.60406 0.12171 0.0
C1598 C 0.51245 0.67779 0.18686 0.0
C1599 C 0.56399 0.71269 0.18564 0.0
N1600 N 0.51367 0.62593 0.14355 0.0
N1601 N 0.5588 0.69159 0.16356 0.0
H1602 H 0.31891 0.57077 0.20483 0.0
H1603 H 0.45276 0.47806 0.1296 0.0
H1604 H 0.33441 0.47785 0.23033 0.0
H1605 H 0.39875 0.54138 0.07831 0.0
H1606 H 0.41863 0.4833 0.17358 0.0
H1607 H 0.35934 0.5673 0.16681 0.0
C1608 C 0.33193 0.5501 0.20339 0.0
C1609 C 0.32366 0.52466 0.22085 0.0
C1610 C 0.41426 0.49595 0.15267 0.0
C1611 C 0.36923 0.52019 0.177 0.0
C1612 C 0.4336 0.49295 0.12758 0.0
C1613 C 0.42837 0.50912 0.10021 0.0
C1614 C 0.39004 0.51602 0.15072 0.0
C1615 C 0.40334 0.52821 0.09883 0.0
C1616 C 0.35446 0.54791 0.1813 0.0
C1617 C 0.34052 0.49804 0.21761 0.0
N1618 N 0.38526 0.5314 0.12388 0.0
N1619 N 0.36243 0.49635 0.19583 0.0
H1620 H 0.81335 0.55291 0.70329 0.0
H1621 H 0.94478 0.46094 0.62677 0.0
H1622 H 0.8165 0.45603 0.71463 0.0
H1623 H 0.89929 0.53211 0.57715 0.0
H1624 H 0.90454 0.46186 0.66564 0.0
H1625 H 0.85161 0.54923 0.66276 0.0
C1626 C 0.82205 0.53087 0.6969 0.0
C1627 C 0.81173 0.50472 0.71174 0.0
C1628 C 0.90346 0.47711 0.64611 0.0
C1629 C 0.85596 0.50032 0.66658 0.0
C1630 C 0.92641 0.47676 0.62412 0.0
C1631 C 0.92527 0.49641 0.5987 0.0
C1632 C 0.87983 0.49791 0.64304 0.0
C1633 C 0.90093 0.51641 0.59627 0.0
C1634 C 0.84379 0.52875 0.67397 0.0
C1635 C 0.82378 0.47657 0.70322 0.0
N1636 N 0.87939 0.5169 0.61833 0.0
N1637 N 0.84565 0.47509 0.68139 0.0
H1638 H 0.58048 0.81729 0.72102 0.0
H1639 H 0.49189 0.8791 0.57748 0.0
H1640 H 0.49301 0.78209 0.69966 0.0
H1641 H 0.54346 0.93893 0.63548 0.0
H1642 H 0.49658 0.83915 0.61645 0.0
H1643 H 0.57272 0.858 0.68336 0.0
C1644 C 0.55977 0.81803 0.70812 0.0
C1645 C 0.53744 0.79628 0.71321 0.0
C1646 C 0.50668 0.86111 0.62063 0.0
C1647 C 0.52859 0.84229 0.67004 0.0
C1648 C 0.50413 0.88385 0.59846 0.0
C1649 C 0.51759 0.91226 0.6032 0.0
C1650 C 0.52344 0.8666 0.6473 0.0
C1651 C 0.5329 0.91732 0.63088 0.0
C1652 C 0.55532 0.84123 0.68683 0.0
C1653 C 0.51104 0.798 0.69585 0.0
N1654 N 0.53583 0.89451 0.65174 0.0
N1655 N 0.50737 0.82058 0.67482 0.0
H1656 H 0.20428 0.45682 0.73415 0.0
H1657 H 0.15246 0.51637 0.5682 0.0
H1658 H 0.25305 0.52445 0.6832 0.0
H1659 H 0.09239 0.47238 0.63194 0.0
H1660 H 0.19212 0.51383 0.60687 0.0
H1661 H 0.166 0.45627 0.69375 0.0
C1662 C 0.20693 0.47156 0.71442 0.0
C1663 C 0.23165 0.49108 0.71224 0.0
C1664 C 0.17028 0.50471 0.61239 0.0
C1665 C 0.18818 0.49016 0.66551 0.0
C1666 C 0.14756 0.50605 0.59026 0.0
C1667 C 0.11885 0.49463 0.59673 0.0
C1668 C 0.16456 0.49147 0.6412 0.0
C1669 C 0.11402 0.48167 0.6259 0.0
C1670 C 0.18511 0.47117 0.69131 0.0
C1671 C 0.23442 0.50898 0.68566 0.0
N1672 N 0.13663 0.48035 0.64695 0.0
N1673 N 0.21293 0.50818 0.66339 0.0
H1674 H 0.49841 0.20863 0.72161 0.0
H1675 H 0.54408 0.13774 0.55972 0.0
H1676 H 0.57756 0.23634 0.67299 0.0
H1677 H 0.49786 0.08665 0.62992 0.0
H1678 H 0.54733 0.18085 0.5948 0.0
H1679 H 0.48764 0.17165 0.68077 0.0
C1680 C 0.51277 0.20765 0.70156 0.0
C1681 C 0.53867 0.22551 0.70019 0.0
C1682 C 0.53637 0.16025 0.60243 0.0
C1683 C 0.52708 0.18321 0.65413 0.0
C1684 C 0.53446 0.13562 0.58249 0.0
C1685 C 0.52077 0.10847 0.592 0.0
C1686 C 0.524 0.15801 0.63193 0.0
C1687 C 0.50882 0.10704 0.62179 0.0
C1688 C 0.50696 0.18633 0.67866 0.0
C1689 C 0.5572 0.22314 0.6744 0.0
N1690 N 0.51059 0.13158 0.64072 0.0
N1691 N 0.55117 0.20212 0.65234 0.0
H1692 H 0.79659 0.54541 0.30434 0.0
H1693 H 0.95095 0.48609 0.36915 0.0
H1694 H 0.83043 0.45666 0.28162 0.0
H1695 H 0.89109 0.53546 0.42874 0.0
H1696 H 0.91119 0.48307 0.33044 0.0
H1697 H 0.83466 0.54947 0.34503 0.0
C1698 C 0.81163 0.52659 0.30825 0.0
C1699 C 0.81011 0.50044 0.28986 0.0
C1700 C 0.90684 0.49464 0.35197 0.0
C1701 C 0.85444 0.50563 0.33507 0.0
C1702 C 0.92953 0.49656 0.37395 0.0
C1703 C 0.92425 0.511 0.40219 0.0
C1704 C 0.87891 0.50789 0.35793 0.0
C1705 C 0.89597 0.52396 0.40731 0.0
C1706 C 0.8335 0.52906 0.33121 0.0
C1707 C 0.83099 0.47725 0.29516 0.0
N1708 N 0.87436 0.52232 0.38526 0.0
N1709 N 0.85247 0.48049 0.31702 0.0
H1710 H 0.49828 0.80088 0.28066 0.0
H1711 H 0.54813 0.87303 0.44074 0.0
H1712 H 0.58005 0.77517 0.32572 0.0
H1713 H 0.49843 0.92279 0.37211 0.0
H1714 H 0.55149 0.82997 0.40542 0.0
H1715 H 0.48838 0.83762 0.32193 0.0
C1716 C 0.51346 0.80224 0.30004 0.0
C1717 C 0.53978 0.78501 0.30028 0.0
C1718 C 0.53977 0.85028 0.3982 0.0
C1719 C 0.52918 0.82706 0.34682 0.0
C1720 C 0.5378 0.87484 0.41826 0.0
C1721 C 0.52307 0.90156 0.40923 0.0
C1722 C 0.52638 0.85219 0.36912 0.0
C1723 C 0.51022 0.90271 0.37983 0.0
C1724 C 0.50813 0.82343 0.32318 0.0
C1725 C 0.55935 0.78788 0.32521 0.0
N1726 N 0.51202 0.87825 0.36082 0.0
N1727 N 0.55377 0.80877 0.34753 0.0
H1728 H 0.25137 0.48611 0.31122 0.0
H1729 H 0.09073 0.54245 0.36835 0.0
H1730 H 0.20605 0.56281 0.27125 0.0
H1731 H 0.15035 0.49154 0.42703 0.0
H1732 H 0.13065 0.54607 0.32982 0.0
H1733 H 0.21321 0.48433 0.352 0.0
C1734 C 0.23361 0.5028 0.31127 0.0
C1735 C 0.23182 0.52455 0.28774 0.0
C1736 C 0.13499 0.53418 0.35118 0.0
C1737 C 0.18757 0.52213 0.33368 0.0
C1738 C 0.11214 0.53197 0.37316 0.0
C1739 C 0.11708 0.51674 0.40112 0.0
C1740 C 0.16294 0.52063 0.35687 0.0
C1741 C 0.14546 0.5037 0.40596 0.0
C1742 C 0.21171 0.50165 0.33437 0.0
C1743 C 0.20797 0.5453 0.28859 0.0
N1744 N 0.16717 0.50577 0.38405 0.0
N1745 N 0.18669 0.54342 0.31093 0.0
H1746 H 0.48834 0.23485 0.31048 0.0
H1747 H 0.5423 0.07124 0.36522 0.0
H1748 H 0.56767 0.19204 0.27493 0.0
H1749 H 0.49269 0.13113 0.42492 0.0
H1750 H 0.54568 0.11226 0.32712 0.0
H1751 H 0.48452 0.1946 0.34958 0.0
C1752 C 0.50512 0.21716 0.31127 0.0
C1753 C 0.52821 0.21647 0.28953 0.0
C1754 C 0.53402 0.1163 0.34858 0.0
C1755 C 0.52356 0.17016 0.33307 0.0
C1756 C 0.53188 0.09288 0.37014 0.0
C1757 C 0.51738 0.0979 0.39827 0.0
C1758 C 0.52109 0.14466 0.35503 0.0
C1759 C 0.50435 0.12643 0.40361 0.0
C1760 C 0.50284 0.19414 0.33327 0.0
C1761 C 0.54924 0.19292 0.29103 0.0
N1762 N 0.50643 0.14873 0.38215 0.0
N1763 N 0.54625 0.17048 0.31221 0.0
H1764 H 0.70087 0.77214 0.4664 0.0
H1765 H 0.64832 0.93263 0.5283 0.0
H1766 H 0.74138 0.81372 0.54554 0.0
H1767 H 0.58537 0.87172 0.48544 0.0
H1768 H 0.68476 0.89095 0.53082 0.0
H1769 H 0.65913 0.8086 0.47 0.0
C1770 C 0.7003 0.78819 0.48525 0.0
C1771 C 0.72423 0.78956 0.50608 0.0
C1772 C 0.66291 0.88671 0.52097 0.0
C1773 C 0.67768 0.83247 0.50933 0.0
C1774 C 0.64217 0.91058 0.5193 0.0
C1775 C 0.61364 0.90581 0.50663 0.0
C1776 C 0.65546 0.85792 0.50922 0.0
C1777 C 0.60699 0.87653 0.49552 0.0
C1778 C 0.67677 0.80928 0.48706 0.0
C1779 C 0.723 0.81156 0.52947 0.0
N1780 N 0.62776 0.85388 0.49676 0.0
N1781 N 0.70055 0.83247 0.5301 0.0
H1782 H 0.73619 0.20022 0.44687 0.0
H1783 H 0.58479 0.13721 0.52049 0.0
H1784 H 0.70254 0.23592 0.53212 0.0
H1785 H 0.64622 0.08032 0.47035 0.0
H1786 H 0.62089 0.17907 0.5175 0.0
H1787 H 0.69544 0.16284 0.44631 0.0
C1788 C 0.71938 0.20095 0.46479 0.0
C1789 C 0.72241 0.22148 0.48931 0.0
C1790 C 0.62642 0.15744 0.50715 0.0
C1791 C 0.6761 0.17831 0.4893 0.0
C1792 C 0.60585 0.13349 0.5088 0.0
C1793 C 0.61248 0.10504 0.49577 0.0
C1794 C 0.6536 0.15332 0.49159 0.0
C1795 C 0.64021 0.10169 0.48096 0.0
C1796 C 0.69651 0.17929 0.46479 0.0
C1797 C 0.7006 0.22091 0.51253 0.0
N1798 N 0.65958 0.12557 0.47903 0.0
N1799 N 0.6784 0.19958 0.51205 0.0
H1800 H 0.79785 0.70233 0.54363 0.0
H1801 H 0.95328 0.63672 0.48481 0.0
H1802 H 0.83624 0.72961 0.45695 0.0
H1803 H 0.89065 0.57743 0.5304 0.0
H1804 H 0.91455 0.67612 0.48244 0.0
H1805 H 0.83458 0.66073 0.54654 0.0
C1806 C 0.81361 0.69943 0.525 0.0
C1807 C 0.81363 0.71961 0.49984 0.0
C1808 C 0.90931 0.65453 0.49308 0.0
C1809 C 0.85678 0.67279 0.50387 0.0
C1810 C 0.93148 0.63205 0.49462 0.0
C1811 C 0.92533 0.6036 0.50785 0.0
C1812 C 0.8808 0.64905 0.50555 0.0
C1813 C 0.89642 0.59892 0.51988 0.0
C1814 C 0.83479 0.67581 0.52685 0.0
C1815 C 0.83551 0.71505 0.47698 0.0
N1816 N 0.87537 0.62144 0.51873 0.0
N1817 N 0.85625 0.69252 0.4797 0.0
H1818 H 0.2975 0.81495 0.44986 0.0
H1819 H 0.44649 0.87477 0.52958 0.0
H1820 H 0.32369 0.782 0.53928 0.0
H1821 H 0.39085 0.9321 0.47299 0.0
H1822 H 0.40739 0.83545 0.52813 0.0
H1823 H 0.33738 0.85294 0.45239 0.0
C1824 C 0.31177 0.81561 0.46999 0.0
C1825 C 0.30719 0.79515 0.49434 0.0
C1826 C 0.40381 0.85668 0.5161 0.0
C1827 C 0.35347 0.8383 0.49712 0.0
C1828 C 0.42613 0.87907 0.51677 0.0
C1829 C 0.42195 0.90685 0.50141 0.0
C1830 C 0.37744 0.86176 0.49927 0.0
C1831 C 0.39501 0.91117 0.48533 0.0
C1832 C 0.33453 0.83727 0.47139 0.0
C1833 C 0.32671 0.7968 0.51968 0.0
N1834 N 0.37398 0.88881 0.48444 0.0
N1835 N 0.34909 0.81791 0.52037 0.0
H1836 H 0.25368 0.32996 0.53423 0.0
H1837 H 0.09588 0.37542 0.46364 0.0
H1838 H 0.21648 0.2842 0.45577 0.0
H1839 H 0.14923 0.43757 0.5173 0.0
H1840 H 0.13887 0.34055 0.46171 0.0
H1841 H 0.21605 0.37019 0.52835 0.0
C1842 C 0.23836 0.3292 0.51494 0.0
C1843 C 0.23841 0.30421 0.49511 0.0
C1844 C 0.14112 0.36194 0.47373 0.0
C1845 C 0.19421 0.34888 0.48918 0.0
C1846 C 0.1165 0.38168 0.47508 0.0
C1847 C 0.11888 0.4095 0.4906 0.0
C1848 C 0.16809 0.36987 0.48846 0.0
C1849 C 0.14631 0.41651 0.50485 0.0
C1850 C 0.21655 0.35179 0.51185 0.0
C1851 C 0.2174 0.30355 0.47107 0.0
N1852 N 0.16965 0.39682 0.50361 0.0
N1853 N 0.19575 0.32518 0.46913 0.0
H1854 H 0.2979 0.19522 0.55134 0.0
H1855 H 0.44585 0.13482 0.47054 0.0
H1856 H 0.32268 0.22729 0.46117 0.0
H1857 H 0.39048 0.07757 0.52747 0.0
H1858 H 0.40673 0.17411 0.47203 0.0
H1859 H 0.33764 0.15712 0.54848 0.0
C1860 C 0.31183 0.19435 0.53098 0.0
C1861 C 0.30691 0.21461 0.50653 0.0
C1862 C 0.40321 0.1529 0.4841 0.0
C1863 C 0.35303 0.17133 0.50337 0.0
C1864 C 0.42554 0.13054 0.48341 0.0
C1865 C 0.42144 0.10279 0.49887 0.0
C1866 C 0.37693 0.14784 0.50107 0.0
C1867 C 0.39456 0.09847 0.51504 0.0
C1868 C 0.33451 0.17262 0.52939 0.0
C1869 C 0.326 0.21268 0.48086 0.0
N1870 N 0.37354 0.12082 0.51598 0.0
N1871 N 0.34832 0.19152 0.48 0.0
H1872 H 0.78846 0.31905 0.52153 0.0
H1873 H 0.951 0.37387 0.4667 0.0
H1874 H 0.84019 0.27188 0.45312 0.0
H1875 H 0.88883 0.43426 0.51151 0.0
H1876 H 0.91193 0.33499 0.46464 0.0
H1877 H 0.82527 0.36066 0.52049 0.0
C1878 C 0.80737 0.3176 0.50606 0.0
C1879 C 0.81135 0.29168 0.48768 0.0
C1880 C 0.90676 0.35678 0.47483 0.0
C1881 C 0.85412 0.33891 0.48688 0.0
C1882 C 0.92918 0.37906 0.47614 0.0
C1883 C 0.92342 0.40764 0.48928 0.0
C1884 C 0.87825 0.36269 0.48715 0.0
C1885 C 0.89445 0.41275 0.501 0.0
C1886 C 0.82852 0.34125 0.50561 0.0
C1887 C 0.83655 0.2909 0.46833 0.0
N1888 N 0.87314 0.39053 0.49986 0.0
N1889 N 0.857 0.31389 0.46864 0.0
H1890 H 0.21942 0.72366 0.54712 0.0
H1891 H 0.14881 0.57156 0.47784 0.0
H1892 H 0.25162 0.68127 0.4645 0.0
H1893 H 0.09936 0.63208 0.53701 0.0
H1894 H 0.19147 0.60591 0.48 0.0
H1895 H 0.18145 0.68357 0.55224 0.0
C1896 C 0.21933 0.70499 0.53092 0.0
C1897 C 0.2389 0.70531 0.50566 0.0
C1898 C 0.17135 0.6117 0.49257 0.0
C1899 C 0.19507 0.66013 0.51062 0.0
C1900 C 0.14689 0.5921 0.49139 0.0
C1901 C 0.12032 0.59894 0.50726 0.0
C1902 C 0.16962 0.63833 0.51007 0.0
C1903 C 0.11926 0.62602 0.52422 0.0
C1904 C 0.19731 0.68256 0.53344 0.0
C1905 C 0.2373 0.68136 0.48458 0.0
N1906 N 0.14363 0.64469 0.52531 0.0
N1907 N 0.21559 0.65985 0.48736 0.0
loop_
_geom_bond_atom_site_label_1
_geom_bond_atom_site_label_2
_geom_bond_distance
_geom_bond_site_symmetry_2
_ccdc_geom_bond_type
C0 N1 1.317 . S
C0 N2 1.348 . S
C0 C3 1.485 . S
N1 C0 1.317 . S
N1 N5 1.370 . S
N2 C0 1.348 . S
N2 C4 1.346 . S
C3 C0 1.485 . S
C3 H7 0.960 . S
C3 H8 0.961 . S
C3 H9 0.960 . S
C4 N2 1.346 . S
C4 N5 1.307 . S
C4 C6 1.486 . S
N5 N1 1.370 . S
N5 C4 1.307 . S
C6 C4 1.486 . S
C6 H10 0.960 . S
C6 H11 0.960 . S
C6 H12 0.959 . S
H7 C3 0.960 . S
H8 C3 0.961 . S
H9 C3 0.960 . S
H10 C6 0.960 . S
H11 C6 0.960 . S
H12 C6 0.959 . S
C13 N14 1.317 . S
C13 N15 1.348 . S
C13 C16 1.485 . S
N14 C13 1.317 . S
N14 N18 1.370 . S
N15 C13 1.348 . S
N15 C17 1.346 . S
C16 C13 1.485 . S
C16 H20 0.960 1_545 S
C16 H21 0.961 . S
C16 H22 0.960 . S
C17 N15 1.346 . S
C17 N18 1.307 . S
C17 C19 1.487 . S
N18 N14 1.370 . S
N18 C17 1.307 . S
C19 C17 1.487 . S
C19 H23 0.972 . S
C19 H24 0.950 1_545 S
C19 H25 0.956 1_545 S
H20 C16 0.960 1_565 S
H21 C16 0.961 . S
H22 C16 0.960 . S
H23 C19 0.972 . S
H24 C19 0.950 1_565 S
H25 C19 0.956 1_565 S
C26 N27 1.317 . S
C26 N28 1.348 . S
C26 C29 1.485 . S
N27 C26 1.317 . S
N27 N31 1.370 . S
N28 C26 1.348 . S
N28 C30 1.346 . S
C29 C26 1.485 . S
C29 H33 0.960 . S
C29 H34 0.961 . S
C29 H35 0.960 . S
C30 N28 1.346 . S
C30 N31 1.307 . S
C30 C32 1.486 . S
N31 N27 1.370 . S
N31 C30 1.307 . S
C32 C30 1.486 . S
C32 H36 0.960 . S
C32 H37 0.934 1_455 S
C32 H38 0.959 . S
H33 C29 0.960 . S
H34 C29 0.961 . S
H35 C29 0.960 . S
H36 C32 0.960 . S
H37 C32 0.934 1_655 S
H38 C32 0.959 . S
C39 N40 1.317 . S
C39 N41 1.347 1_565 S
C39 C42 1.485 . S
N40 C39 1.317 . S
N40 N44 1.370 1_565 S
N41 C39 1.347 1_545 S
N41 C43 1.347 . S
C42 C39 1.485 . S
C42 H46 0.960 1_565 S
C42 H47 0.961 . S
C42 H48 0.960 . S
C43 N41 1.347 . S
C43 N44 1.307 . S
C43 C45 1.486 . S
N44 N40 1.370 1_545 S
N44 C43 1.307 . S
C45 C43 1.486 . S
C45 H49 0.960 1_545 S
C45 H50 0.960 . S
C45 H51 0.959 . S
H46 C42 0.960 1_545 S
H47 C42 0.961 . S
H48 C42 0.960 . S
H49 C45 0.960 1_565 S
H50 C45 0.960 . S
H51 C45 0.959 . S
C52 N53 1.317 . S
C52 N54 1.348 . S
C52 C55 1.485 . S
N53 C52 1.317 . S
N53 N57 1.370 . S
N54 C52 1.348 . S
N54 C56 1.346 . S
C55 C52 1.485 . S
C55 H59 0.960 . S
C55 H60 0.961 . S
C55 H61 0.960 . S
C56 N54 1.346 . S
C56 N57 1.307 . S
C56 C58 1.486 . S
N57 N53 1.370 . S
N57 C56 1.307 . S
C58 C56 1.486 . S
C58 H62 0.960 . S
C58 H63 0.960 . S
C58 H64 0.959 . S
H59 C55 0.960 . S
H60 C55 0.961 . S
H61 C55 0.960 . S
H62 C58 0.960 . S
H63 C58 0.960 . S
H64 C58 0.959 . S
C65 N66 1.317 . S
C65 N67 1.350 . S
C65 C68 1.485 . S
N66 C65 1.317 . S
N66 N70 1.371 . S
N67 C65 1.350 . S
N67 C69 1.345 1_545 S
C68 C65 1.485 . S
C68 H72 0.960 1_545 S
C68 H73 0.961 . S
C68 H74 0.960 . S
C69 N67 1.345 1_565 S
C69 N70 1.307 1_565 S
C69 C71 1.486 . S
N70 N66 1.371 . S
N70 C69 1.307 1_545 S
C71 C69 1.486 . S
C71 H75 0.960 1_565 S
C71 H76 0.960 . S
C71 H77 0.959 . S
H72 C68 0.960 1_565 S
H73 C68 0.961 . S
H74 C68 0.960 . S
H75 C71 0.960 1_545 S
H76 C71 0.960 . S
H77 C71 0.959 . S
C78 N79 1.317 . S
C78 N80 1.348 . S
C78 C81 1.485 . S
N79 C78 1.317 . S
N79 N83 1.370 . S
N80 C78 1.348 . S
N80 C82 1.346 . S
C81 C78 1.485 . S
C81 H85 0.960 . S
C81 H86 0.961 . S
C81 H87 0.960 . S
C82 N80 1.346 . S
C82 N83 1.307 . S
C82 C84 1.486 . S
N83 N79 1.370 . S
N83 C82 1.307 . S
C84 C82 1.486 . S
C84 H88 0.960 . S
C84 H89 0.933 1_455 S
C84 H90 0.959 . S
H85 C81 0.960 . S
H86 C81 0.961 . S
H87 C81 0.960 . S
H88 C84 0.960 . S
H89 C84 0.933 1_655 S
H90 C84 0.959 . S
C91 N92 1.317 . S
C91 N93 1.350 . S
C91 C94 1.485 . S
N92 C91 1.317 . S
N92 N96 1.370 . S
N93 C91 1.350 . S
N93 C95 1.345 1_565 S
C94 C91 1.485 . S
C94 H98 0.960 1_565 S
C94 H99 0.961 . S
C94 H100 0.960 . S
C95 N93 1.345 1_545 S
C95 N96 1.307 1_545 S
C95 C97 1.486 . S
N96 N92 1.370 . S
N96 C95 1.307 1_565 S
C97 C95 1.486 . S
C97 H101 0.960 1_545 S
C97 H102 0.960 . S
C97 H103 0.959 . S
H98 C94 0.960 1_545 S
H99 C94 0.961 . S
H100 C94 0.960 . S
H101 C97 0.960 1_565 S
H102 C97 0.960 . S
H103 C97 0.959 . S
C104 N105 1.317 . S
C104 N106 1.348 . S
C104 C107 1.485 . S
N105 C104 1.317 . S
N105 N109 1.371 . S
N106 C104 1.348 . S
N106 C108 1.346 1_554 S
C107 C104 1.485 . S
C107 H111 0.960 1_554 S
C107 H112 0.961 . S
C107 H113 0.960 . S
C108 N106 1.346 1_556 S
C108 N109 1.307 1_556 S
C108 C110 1.486 . S
N109 N105 1.371 . S
N109 C108 1.307 1_554 S
C110 C108 1.486 . S
C110 H114 0.960 1_556 S
C110 H115 0.960 . S
C110 H116 0.959 . S
H111 C107 0.960 1_556 S
H112 C107 0.961 . S
H113 C107 0.960 . S
H114 C110 0.960 1_554 S
H115 C110 0.960 . S
H116 C110 0.959 . S
C117 N118 1.317 . S
C117 N119 1.347 1_556 S
C117 C120 1.485 . S
N118 C117 1.317 . S
N118 N122 1.370 1_556 S
N119 C117 1.347 1_554 S
N119 C121 1.347 . S
C120 C117 1.485 . S
C120 H124 0.960 1_556 S
C120 H125 0.961 . S
C120 H126 0.960 . S
C121 N119 1.347 . S
C121 N122 1.307 . S
C121 C123 1.486 . S
N122 N118 1.370 1_554 S
N122 C121 1.307 . S
C123 C121 1.486 . S
C123 H127 0.960 1_554 S
C123 H128 0.960 . S
C123 H129 0.959 . S
H124 C120 0.960 1_554 S
H125 C120 0.961 . S
H126 C120 0.960 . S
H127 C123 0.960 1_556 S
H128 C123 0.960 . S
H129 C123 0.959 . S
C130 N131 1.317 . S
C130 N132 1.350 . S
C130 C133 1.485 . S
N131 C130 1.317 . S
N131 N135 1.370 . S
N132 C130 1.350 . S
N132 C134 1.345 1_556 S
C133 C130 1.485 . S
C133 H137 0.960 1_556 S
C133 H138 0.961 . S
C133 H139 0.960 . S
C134 N132 1.345 1_554 S
C134 N135 1.307 1_554 S
C134 C136 1.486 . S
N135 N131 1.370 . S
N135 C134 1.307 1_556 S
C136 C134 1.486 . S
C136 H140 0.960 1_554 S
C136 H141 0.960 . S
C136 H142 0.959 . S
H137 C133 0.960 1_554 S
H138 C133 0.961 . S
H139 C133 0.960 . S
H140 C136 0.960 1_556 S
H141 C136 0.960 . S
H142 C136 0.959 . S
C143 N144 1.317 . S
C143 N145 1.348 . S
C143 C146 1.485 . S
N144 C143 1.317 . S
N144 N148 1.370 . S
N145 C143 1.348 . S
N145 C147 1.346 . S
C146 C143 1.485 . S
C146 H150 0.960 1_554 S
C146 H151 0.961 . S
C146 H152 0.960 . S
C147 N145 1.346 . S
C147 N148 1.307 . S
C147 C149 1.486 . S
N148 N144 1.370 . S
N148 C147 1.307 . S
C149 C147 1.486 . S
C149 H153 0.971 . S
C149 H154 0.951 1_554 S
C149 H155 0.956 1_554 S
H150 C146 0.960 1_556 S
H151 C146 0.961 . S
H152 C146 0.960 . S
H153 C149 0.971 . S
H154 C149 0.951 1_556 S
H155 C149 0.956 1_556 S
C156 N157 1.317 . S
C156 N158 1.348 . S
C156 C159 1.485 . S
N157 C156 1.317 . S
N157 N161 1.370 . S
N158 C156 1.348 . S
N158 C160 1.346 . S
C159 C156 1.485 . S
C159 H163 0.960 . S
C159 H164 0.961 . S
C159 H165 0.960 . S
C160 N158 1.346 . S
C160 N161 1.307 . S
C160 C162 1.486 . S
N161 N157 1.370 . S
N161 C160 1.307 . S
C162 C160 1.486 . S
C162 H166 0.960 . S
C162 H167 0.960 . S
C162 H168 0.959 . S
H163 C159 0.960 . S
H164 C159 0.961 . S
H165 C159 0.960 . S
H166 C162 0.960 . S
H167 C162 0.960 . S
H168 C162 0.959 . S
C169 N170 1.317 . S
C169 N171 1.348 . S
C169 C172 1.485 . S
N170 C169 1.317 . S
N170 N174 1.370 . S
N171 C169 1.348 . S
N171 C173 1.346 . S
C172 C169 1.485 . S
C172 H176 0.960 . S
C172 H177 0.961 . S
C172 H178 0.960 . S
C173 N171 1.346 . S
C173 N174 1.307 . S
C173 C175 1.486 . S
N174 N170 1.370 . S
N174 C173 1.307 . S
C175 C173 1.486 . S
C175 H179 0.960 . S
C175 H180 0.960 . S
C175 H181 0.959 . S
H176 C172 0.960 . S
H177 C172 0.961 . S
H178 C172 0.960 . S
H179 C175 0.960 . S
H180 C175 0.960 . S
H181 C175 0.959 . S
C182 N183 1.317 . S
C182 N184 1.348 . S
C182 C185 1.485 . S
N183 C182 1.317 . S
N183 N187 1.370 . S
N184 C182 1.348 . S
N184 C186 1.346 . S
C185 C182 1.485 . S
C185 H189 0.960 . S
C185 H190 0.961 . S
C185 H191 0.960 . S
C186 N184 1.346 . S
C186 N187 1.307 . S
C186 C188 1.486 . S
N187 N183 1.370 . S
N187 C186 1.307 . S
C188 C186 1.486 . S
C188 H192 0.960 . S
C188 H193 0.960 . S
C188 H194 0.959 . S
H189 C185 0.960 . S
H190 C185 0.961 . S
H191 C185 0.960 . S
H192 C188 0.960 . S
H193 C188 0.960 . S
H194 C188 0.959 . S
C195 N196 1.317 . S
C195 N197 1.348 . S
C195 C198 1.485 . S
N196 C195 1.317 . S
N196 N200 1.370 . S
N197 C195 1.348 . S
N197 C199 1.346 . S
C198 C195 1.485 . S
C198 H202 0.960 . S
C198 H203 0.961 . S
C198 H204 0.960 . S
C199 N197 1.346 . S
C199 N200 1.307 . S
C199 C201 1.486 . S
N200 N196 1.370 . S
N200 C199 1.307 . S
C201 C199 1.486 . S
C201 H205 0.960 . S
C201 H206 0.960 . S
C201 H207 0.959 . S
H202 C198 0.960 . S
H203 C198 0.961 . S
H204 C198 0.960 . S
H205 C201 0.960 . S
H206 C201 0.960 . S
H207 C201 0.959 . S
C208 N209 1.317 . S
C208 N210 1.348 . S
C208 C211 1.485 . S
N209 C208 1.317 . S
N209 N213 1.370 . S
N210 C208 1.348 . S
N210 C212 1.346 . S
C211 C208 1.485 . S
C211 H215 0.960 . S
C211 H216 0.961 . S
C211 H217 0.960 . S
C212 N210 1.346 . S
C212 N213 1.307 . S
C212 C214 1.486 . S
N213 N209 1.370 . S
N213 C212 1.307 . S
C214 C212 1.486 . S
C214 H218 0.960 . S
C214 H219 0.960 . S
C214 H220 0.959 . S
H215 C211 0.960 . S
H216 C211 0.961 . S
H217 C211 0.960 . S
H218 C214 0.960 . S
H219 C214 0.960 . S
H220 C214 0.959 . S
C221 N222 1.317 . S
C221 N223 1.348 . S
C221 C224 1.485 . S
N222 C221 1.317 . S
N222 N226 1.370 . S
N223 C221 1.348 . S
N223 C225 1.346 . S
C224 C221 1.485 . S
C224 H228 0.960 . S
C224 H229 0.961 . S
C224 H230 0.960 . S
C225 N223 1.346 . S
C225 N226 1.307 . S
C225 C227 1.486 . S
N226 N222 1.370 . S
N226 C225 1.307 . S
C227 C225 1.486 . S
C227 H231 0.960 . S
C227 H232 0.960 . S
C227 H233 0.959 . S
H228 C224 0.960 . S
H229 C224 0.961 . S
H230 C224 0.960 . S
H231 C227 0.960 . S
H232 C227 0.960 . S
H233 C227 0.959 . S
C234 N235 1.317 . S
C234 N236 1.348 . S
C234 C237 1.485 . S
N235 C234 1.317 . S
N235 N239 1.370 . S
N236 C234 1.348 . S
N236 C238 1.346 . S
C237 C234 1.485 . S
C237 H241 0.960 . S
C237 H242 0.961 . S
C237 H243 0.960 . S
C238 N236 1.346 . S
C238 N239 1.307 . S
C238 C240 1.486 . S
N239 N235 1.370 . S
N239 C238 1.307 . S
C240 C238 1.486 . S
C240 H244 0.960 . S
C240 H245 0.960 . S
C240 H246 0.959 . S
H241 C237 0.960 . S
H242 C237 0.961 . S
H243 C237 0.960 . S
H244 C240 0.960 . S
H245 C240 0.960 . S
H246 C240 0.959 . S
C247 N248 1.317 . S
C247 N249 1.348 . S
C247 C250 1.485 . S
N248 C247 1.317 . S
N248 N252 1.370 . S
N249 C247 1.348 . S
N249 C251 1.346 . S
C250 C247 1.485 . S
C250 H254 0.960 . S
C250 H255 0.961 . S
C250 H256 0.960 . S
C251 N249 1.346 . S
C251 N252 1.307 . S
C251 C253 1.486 . S
N252 N248 1.370 . S
N252 C251 1.307 . S
C253 C251 1.486 . S
C253 H257 0.960 . S
C253 H258 0.960 . S
C253 H259 0.959 . S
H254 C250 0.960 . S
H255 C250 0.961 . S
H256 C250 0.960 . S
H257 C253 0.960 . S
H258 C253 0.960 . S
H259 C253 0.959 . S
C260 N261 1.317 . S
C260 N262 1.348 . S
C260 C263 1.485 . S
N261 C260 1.317 . S
N261 N265 1.370 . S
N262 C260 1.348 . S
N262 C264 1.346 . S
C263 C260 1.485 . S
C263 H267 0.960 . S
C263 H268 0.961 . S
C263 H269 0.960 . S
C264 N262 1.346 . S
C264 N265 1.307 . S
C264 C266 1.486 . S
N265 N261 1.370 . S
N265 C264 1.307 . S
C266 C264 1.486 . S
C266 H270 0.960 . S
C266 H271 0.960 . S
C266 H272 0.959 . S
H267 C263 0.960 . S
H268 C263 0.961 . S
H269 C263 0.960 . S
H270 C266 0.960 . S
H271 C266 0.960 . S
H272 C266 0.959 . S
C273 N274 1.317 . S
C273 N275 1.348 . S
C273 C276 1.485 . S
N274 C273 1.317 . S
N274 N278 1.370 . S
N275 C273 1.348 . S
N275 C277 1.346 . S
C276 C273 1.485 . S
C276 H280 0.960 . S
C276 H281 0.961 . S
C276 H282 0.960 . S
C277 N275 1.346 . S
C277 N278 1.307 . S
C277 C279 1.486 . S
N278 N274 1.370 . S
N278 C277 1.307 . S
C279 C277 1.486 . S
C279 H283 0.960 . S
C279 H284 0.960 . S
C279 H285 0.959 . S
H280 C276 0.960 . S
H281 C276 0.961 . S
H282 C276 0.960 . S
H283 C279 0.960 . S
H284 C279 0.960 . S
H285 C279 0.959 . S
C286 N287 1.317 . S
C286 N288 1.348 . S
C286 C289 1.485 . S
N287 C286 1.317 . S
N287 N291 1.370 . S
N288 C286 1.348 . S
N288 C290 1.346 . S
C289 C286 1.485 . S
C289 H293 0.960 . S
C289 H294 0.961 . S
C289 H295 0.960 . S
C290 N288 1.346 . S
C290 N291 1.307 . S
C290 C292 1.486 . S
N291 N287 1.370 . S
N291 C290 1.307 . S
C292 C290 1.486 . S
C292 H296 0.960 . S
C292 H297 0.960 . S
C292 H298 0.959 . S
H293 C289 0.960 . S
H294 C289 0.961 . S
H295 C289 0.960 . S
H296 C292 0.960 . S
H297 C292 0.960 . S
H298 C292 0.959 . S
C299 N300 1.317 . S
C299 N301 1.348 . S
C299 C302 1.485 . S
N300 C299 1.317 . S
N300 N304 1.370 . S
N301 C299 1.348 . S
N301 C303 1.346 . S
C302 C299 1.485 . S
C302 H306 0.960 . S
C302 H307 0.961 . S
C302 H308 0.960 . S
C303 N301 1.346 . S
C303 N304 1.307 . S
C303 C305 1.486 . S
N304 N300 1.370 . S
N304 C303 1.307 . S
C305 C303 1.486 . S
C305 H309 0.960 . S
C305 H310 0.960 . S
C305 H311 0.959 . S
H306 C302 0.960 . S
H307 C302 0.961 . S
H308 C302 0.960 . S
H309 C305 0.960 . S
H310 C305 0.960 . S
H311 C305 0.959 . S
C312 O338 1.283 . S
C312 O356 1.283 . S
C313 O339 1.283 . S
C313 O354 1.283 . S
C314 O340 1.283 . S
C314 O357 1.283 . S
C315 O341 1.283 . S
C315 O355 1.283 . S
C316 O342 1.283 . S
C316 O351 1.283 . S
C317 O343 1.283 . S
C317 O353 1.283 . S
C318 O344 1.283 . S
C318 O350 1.283 . S
C319 O345 1.283 . S
C319 O352 1.283 . S
C320 O346 1.283 . S
C320 O361 1.283 . S
C321 O347 1.283 . S
C321 O359 1.283 . S
C322 O348 1.283 . S
C322 O360 1.283 . S
C323 O349 1.283 . S
C323 O358 1.283 . S
Eu324 O325 2.370 1_455 S
Eu324 O326 2.370 . S
Eu324 O329 2.370 1_455 S
Eu324 O330 2.370 . S
Eu324 O338 2.363 . S
Eu324 O339 2.363 . S
Eu324 O352 2.363 . S
Eu324 O353 2.363 1_455 S
O325 Eu324 2.370 1_655 S
O325 Eu327 2.353 1_565 S
O325 Eu332 2.351 1_665 S
O326 Eu324 2.370 . S
O326 Eu328 2.353 1_565 S
O326 Eu331 2.356 1_565 S
Eu327 O325 2.353 1_545 S
Eu327 O329 2.353 1_545 S
Eu327 O333 2.387 . S
Eu327 O334 2.387 . S
Eu327 O342 2.392 . S
Eu327 O343 2.334 1_545 S
Eu327 O358 2.363 . S
Eu327 O359 2.363 . S
Eu328 O326 2.353 1_545 S
Eu328 O330 2.353 1_545 S
Eu328 O335 2.387 . S
Eu328 O336 2.387 . S
Eu328 O344 2.392 . S
Eu328 O345 2.334 1_545 S
Eu328 O360 2.363 . S
Eu328 O361 2.363 . S
O329 Eu324 2.370 1_655 S
O329 Eu327 2.353 1_565 S
O329 Eu331 2.356 1_665 S
O330 Eu324 2.370 . S
O330 Eu328 2.353 1_565 S
O330 Eu332 2.351 1_565 S
Eu331 O326 2.356 1_545 S
Eu331 O329 2.356 1_445 S
Eu331 O333 2.385 1_455 S
Eu331 O336 2.385 . S
Eu331 O348 2.363 . S
Eu331 O349 2.363 1_455 S
Eu331 O356 2.339 1_545 S
Eu331 O357 2.387 . S
Eu332 O325 2.351 1_445 S
Eu332 O330 2.351 1_545 S
Eu332 O334 2.390 1_455 S
Eu332 O335 2.390 . S
Eu332 O346 2.363 . S
Eu332 O347 2.363 1_455 S
Eu332 O354 2.330 1_545 S
Eu332 O355 2.396 . S
O333 Eu327 2.387 . S
O333 Eu331 2.385 1_655 S
O333 Eu337 2.370 1_655 S
O334 Eu327 2.387 . S
O334 Eu332 2.390 1_655 S
O334 Eu337 2.370 1_655 S
O335 Eu328 2.387 . S
O335 Eu332 2.390 . S
O335 Eu337 2.370 . S
O336 Eu328 2.387 . S
O336 Eu331 2.385 . S
O336 Eu337 2.370 . S
Eu337 O333 2.370 1_455 S
Eu337 O334 2.370 1_455 S
Eu337 O335 2.370 . S
Eu337 O336 2.370 . S
Eu337 O340 2.363 . S
Eu337 O341 2.363 . S
Eu337 O350 2.363 . S
Eu337 O351 2.363 1_455 S
O338 C312 1.283 . S
O338 Eu324 2.363 . S
O339 C313 1.283 . S
O339 Eu324 2.363 . S
O340 C314 1.283 . S
O340 Eu337 2.363 . S
O341 C315 1.283 . S
O341 Eu337 2.363 . S
O342 C316 1.283 . S
O342 Eu327 2.392 . S
O343 C317 1.283 . S
O343 Eu327 2.334 1_565 S
O344 C318 1.283 . S
O344 Eu328 2.392 . S
O345 C319 1.283 . S
O345 Eu328 2.334 1_565 S
O346 C320 1.283 . S
O346 Eu332 2.363 . S
O347 C321 1.283 . S
O347 Eu332 2.363 1_655 S
O348 C322 1.283 . S
O348 Eu331 2.363 . S
O349 C323 1.283 . S
O349 Eu331 2.363 1_655 S
O350 C318 1.283 . S
O350 Eu337 2.363 . S
O351 C316 1.283 . S
O351 Eu337 2.363 1_655 S
O352 C319 1.283 . S
O352 Eu324 2.363 . S
O353 C317 1.283 . S
O353 Eu324 2.363 1_655 S
O354 C313 1.283 . S
O354 Eu332 2.330 1_565 S
O355 C315 1.283 . S
O355 Eu332 2.396 . S
O356 C312 1.283 . S
O356 Eu331 2.339 1_565 S
O357 C314 1.283 . S
O357 Eu331 2.387 . S
O358 C323 1.283 . S
O358 Eu327 2.363 . S
O359 C321 1.283 . S
O359 Eu327 2.363 . S
O360 C322 1.283 . S
O360 Eu328 2.363 . S
O361 C320 1.283 . S
O361 Eu328 2.363 . S
C362 O388 1.283 . S
C362 O406 1.283 . S
C363 O389 1.283 . S
C363 O404 1.283 . S
C364 O390 1.283 . S
C364 O407 1.283 . S
C365 O391 1.283 . S
C365 O405 1.283 . S
C366 O392 1.283 . S
C366 O401 1.283 . S
C367 O393 1.283 . S
C367 O403 1.283 . S
C368 O394 1.283 . S
C368 O400 1.283 . S
C369 O395 1.283 . S
C369 O402 1.283 . S
C370 O396 1.283 . S
C370 O411 1.283 . S
C371 O397 1.283 . S
C371 O409 1.283 . S
C372 O398 1.283 . S
C372 O410 1.283 . S
C373 O399 1.283 . S
C373 O408 1.283 . S
Eu374 O375 2.370 . S
Eu374 O376 2.370 1_545 S
Eu374 O379 2.370 1_545 S
Eu374 O380 2.370 . S
Eu374 O388 2.363 1_545 S
Eu374 O389 2.363 . S
Eu374 O402 2.363 . S
Eu374 O403 2.363 . S
O375 Eu374 2.370 . S
O375 Eu377 2.404 . S
O375 Eu382 2.378 . S
O376 Eu374 2.370 1_565 S
O376 Eu378 2.370 1_565 S
O376 Eu381 2.370 . S
Eu377 O375 2.404 . S
Eu377 O379 2.370 1_545 S
Eu377 O383 2.337 1_544 S
Eu377 O384 2.371 1_554 S
Eu377 O392 2.335 1_554 S
Eu377 O393 2.391 . S
Eu377 O408 2.335 1_545 S
Eu377 O409 2.392 . S
Eu378 O376 2.370 1_545 S
Eu378 O380 2.404 . S
Eu378 O385 2.371 1_554 S
Eu378 O386 2.337 1_544 S
Eu378 O394 2.335 1_554 S
Eu378 O395 2.391 . S
Eu378 O410 2.335 1_545 S
Eu378 O411 2.392 . S
O379 Eu374 2.370 1_565 S
O379 Eu377 2.370 1_565 S
O379 Eu381 2.370 . S
O380 Eu374 2.370 . S
O380 Eu378 2.404 . S
O380 Eu382 2.378 . S
Eu381 O376 2.370 . S
Eu381 O379 2.370 . S
Eu381 O383 2.370 1_554 S
Eu381 O386 2.370 1_554 S
Eu381 O398 2.363 . S
Eu381 O399 2.363 . S
Eu381 O406 2.363 . S
Eu381 O407 2.363 1_554 S
Eu382 O375 2.378 . S
Eu382 O380 2.378 . S
Eu382 O384 2.362 1_554 S
Eu382 O385 2.362 1_554 S
Eu382 O396 2.363 . S
Eu382 O397 2.363 . S
Eu382 O404 2.376 . S
Eu382 O405 2.350 1_554 S
O383 Eu377 2.337 1_566 S
O383 Eu381 2.370 1_556 S
O383 Eu387 2.362 1_565 S
O384 Eu377 2.371 1_556 S
O384 Eu382 2.362 1_556 S
O384 Eu387 2.378 . S
O385 Eu378 2.371 1_556 S
O385 Eu382 2.362 1_556 S
O385 Eu387 2.378 . S
O386 Eu378 2.337 1_566 S
O386 Eu381 2.370 1_556 S
O386 Eu387 2.362 1_565 S
Eu387 O383 2.362 1_545 S
Eu387 O384 2.378 . S
Eu387 O385 2.378 . S
Eu387 O386 2.362 1_545 S
Eu387 O390 2.349 1_545 S
Eu387 O391 2.377 . S
Eu387 O400 2.363 . S
Eu387 O401 2.363 . S
O388 C362 1.283 . S
O388 Eu374 2.363 1_565 S
O389 C363 1.283 . S
O389 Eu374 2.363 . S
O390 C364 1.283 . S
O390 Eu387 2.349 1_565 S
O391 C365 1.283 . S
O391 Eu387 2.377 . S
O392 C366 1.283 . S
O392 Eu377 2.335 1_556 S
O393 C367 1.283 . S
O393 Eu377 2.391 . S
O394 C368 1.283 . S
O394 Eu378 2.335 1_556 S
O395 C369 1.283 . S
O395 Eu378 2.391 . S
O396 C370 1.283 . S
O396 Eu382 2.363 . S
O397 C371 1.283 . S
O397 Eu382 2.363 . S
O398 C372 1.283 . S
O398 Eu381 2.363 . S
O399 C373 1.283 . S
O399 Eu381 2.363 . S
O400 C368 1.283 . S
O400 Eu387 2.363 . S
O401 C366 1.283 . S
O401 Eu387 2.363 . S
O402 C369 1.283 . S
O402 Eu374 2.363 . S
O403 C367 1.283 . S
O403 Eu374 2.363 . S
O404 C363 1.283 . S
O404 Eu382 2.376 . S
O405 C365 1.283 . S
O405 Eu382 2.350 1_556 S
O406 C362 1.283 . S
O406 Eu381 2.363 . S
O407 C364 1.283 . S
O407 Eu381 2.363 1_556 S
O408 C373 1.283 . S
O408 Eu377 2.335 1_565 S
O409 C371 1.283 . S
O409 Eu377 2.392 . S
O410 C372 1.283 . S
O410 Eu378 2.335 1_565 S
O411 C370 1.283 . S
O411 Eu378 2.392 . S
C412 O438 1.283 . S
C412 O456 1.283 . S
C413 O439 1.283 . S
C413 O454 1.283 . S
C414 O440 1.283 . S
C414 O457 1.283 . S
C415 O441 1.283 . S
C415 O455 1.283 . S
C416 O442 1.283 . S
C416 O451 1.283 . S
C417 O443 1.283 . S
C417 O453 1.283 . S
C418 O444 1.283 . S
C418 O450 1.283 . S
C419 O445 1.283 . S
C419 O452 1.283 . S
C420 O446 1.283 . S
C420 O461 1.283 . S
C421 O447 1.283 . S
C421 O459 1.283 . S
C422 O448 1.283 . S
C422 O460 1.283 . S
C423 O449 1.283 . S
C423 O458 1.283 . S
Eu424 O425 2.357 1_454 S
Eu424 O426 2.384 . S
Eu424 O429 2.384 1_455 S
Eu424 O430 2.357 1_554 S
Eu424 O438 2.386 . S
Eu424 O439 2.340 1_554 S
Eu424 O452 2.363 . S
Eu424 O453 2.363 1_455 S
O425 Eu424 2.357 1_656 S
O425 Eu427 2.354 1_556 S
O425 Eu432 2.370 1_655 S
O426 Eu424 2.384 . S
O426 Eu428 2.387 . S
O426 Eu431 2.370 . S
Eu427 O425 2.354 1_554 S
Eu427 O429 2.387 . S
Eu427 O433 2.387 . S
Eu427 O434 2.354 1_554 S
Eu427 O442 2.363 . S
Eu427 O443 2.363 . S
Eu427 O458 2.391 . S
Eu427 O459 2.335 1_554 S
Eu428 O426 2.387 . S
Eu428 O430 2.354 1_554 S
Eu428 O435 2.354 1_554 S
Eu428 O436 2.387 . S
Eu428 O444 2.363 . S
Eu428 O445 2.363 . S
Eu428 O460 2.391 . S
Eu428 O461 2.335 1_554 S
O429 Eu424 2.384 1_655 S
O429 Eu427 2.387 . S
O429 Eu431 2.370 1_655 S
O430 Eu424 2.357 1_556 S
O430 Eu428 2.354 1_556 S
O430 Eu432 2.370 . S
Eu431 O426 2.370 . S
Eu431 O429 2.370 1_455 S
Eu431 O433 2.370 1_455 S
Eu431 O436 2.370 . S
Eu431 O448 2.363 . S
Eu431 O449 2.363 1_455 S
Eu431 O456 2.363 . S
Eu431 O457 2.363 . S
Eu432 O425 2.370 1_455 S
Eu432 O430 2.370 . S
Eu432 O434 2.370 1_455 S
Eu432 O435 2.370 . S
Eu432 O446 2.363 . S
Eu432 O447 2.363 1_455 S
Eu432 O454 2.363 . S
Eu432 O455 2.363 . S
O433 Eu427 2.387 . S
O433 Eu431 2.370 1_655 S
O433 Eu437 2.389 1_655 S
O434 Eu427 2.354 1_556 S
O434 Eu432 2.370 1_655 S
O434 Eu437 2.351 1_656 S
O435 Eu428 2.354 1_556 S
O435 Eu432 2.370 . S
O435 Eu437 2.351 1_556 S
O436 Eu428 2.387 . S
O436 Eu431 2.370 . S
O436 Eu437 2.389 . S
Eu437 O433 2.389 1_455 S
Eu437 O434 2.351 1_454 S
Eu437 O435 2.351 1_554 S
Eu437 O436 2.389 . S
Eu437 O440 2.395 . S
Eu437 O441 2.331 1_554 S
Eu437 O450 2.363 . S
Eu437 O451 2.363 1_455 S
O438 C412 1.283 . S
O438 Eu424 2.386 . S
O439 C413 1.283 . S
O439 Eu424 2.340 1_556 S
O440 C414 1.283 . S
O440 Eu437 2.395 . S
O441 C415 1.283 . S
O441 Eu437 2.331 1_556 S
O442 C416 1.283 . S
O442 Eu427 2.363 . S
O443 C417 1.283 . S
O443 Eu427 2.363 . S
O444 C418 1.283 . S
O444 Eu428 2.363 . S
O445 C419 1.283 . S
O445 Eu428 2.363 . S
O446 C420 1.283 . S
O446 Eu432 2.363 . S
O447 C421 1.283 . S
O447 Eu432 2.363 1_655 S
O448 C422 1.283 . S
O448 Eu431 2.363 . S
O449 C423 1.283 . S
O449 Eu431 2.363 1_655 S
O450 C418 1.283 . S
O450 Eu437 2.363 . S
O451 C416 1.283 . S
O451 Eu437 2.363 1_655 S
O452 C419 1.283 . S
O452 Eu424 2.363 . S
O453 C417 1.283 . S
O453 Eu424 2.363 1_655 S
O454 C413 1.283 . S
O454 Eu432 2.363 . S
O455 C415 1.283 . S
O455 Eu432 2.363 . S
O456 C412 1.283 . S
O456 Eu431 2.363 . S
O457 C414 1.283 . S
O457 Eu431 2.363 . S
O458 C423 1.283 . S
O458 Eu427 2.391 . S
O459 C421 1.283 . S
O459 Eu427 2.335 1_556 S
O460 C422 1.283 . S
O460 Eu428 2.391 . S
O461 C420 1.283 . S
O461 Eu428 2.335 1_556 S
C462 O488 1.283 . S
C462 O506 1.283 . S
C463 O489 1.283 . S
C463 O504 1.283 . S
C464 O490 1.283 . S
C464 O507 1.283 . S
C465 O491 1.283 . S
C465 O505 1.283 . S
C466 O492 1.283 . S
C466 O501 1.283 . S
C467 O493 1.283 . S
C467 O503 1.283 . S
C468 O494 1.283 . S
C468 O500 1.283 . S
C469 O495 1.283 . S
C469 O502 1.283 . S
C470 O496 1.283 . S
C470 O511 1.283 . S
C471 O497 1.283 . S
C471 O509 1.283 . S
C472 O498 1.283 . S
C472 O510 1.283 . S
C473 O499 1.283 . S
C473 O508 1.283 . S
Eu474 O475 2.370 . S
Eu474 O476 2.370 . S
Eu474 O479 2.370 . S
Eu474 O480 2.370 . S
Eu474 O488 2.363 . S
Eu474 O489 2.363 . S
Eu474 O502 2.363 . S
Eu474 O503 2.363 . S
O475 Eu474 2.370 . S
O475 Eu477 2.387 . S
O475 Eu482 2.389 . S
O476 Eu474 2.370 . S
O476 Eu478 2.387 . S
O476 Eu481 2.384 . S
Eu477 O475 2.387 . S
Eu477 O479 2.387 . S
Eu477 O483 2.354 1_554 S
Eu477 O484 2.354 1_554 S
Eu477 O492 2.335 1_554 S
Eu477 O493 2.391 . S
Eu477 O508 2.363 . S
Eu477 O509 2.363 . S
Eu478 O476 2.387 . S
Eu478 O480 2.387 . S
Eu478 O485 2.354 1_554 S
Eu478 O486 2.354 1_554 S
Eu478 O494 2.335 1_554 S
Eu478 O495 2.391 . S
Eu478 O510 2.363 . S
Eu478 O511 2.363 . S
O479 Eu474 2.370 . S
O479 Eu477 2.387 . S
O479 Eu481 2.384 . S
O480 Eu474 2.370 . S
O480 Eu478 2.387 . S
O480 Eu482 2.389 . S
Eu481 O476 2.384 . S
Eu481 O479 2.384 . S
Eu481 O483 2.357 1_554 S
Eu481 O486 2.357 1_554 S
Eu481 O498 2.363 . S
Eu481 O499 2.363 . S
Eu481 O506 2.386 . S
Eu481 O507 2.340 1_554 S
Eu482 O475 2.389 . S
Eu482 O480 2.389 . S
Eu482 O484 2.351 1_554 S
Eu482 O485 2.351 1_554 S
Eu482 O496 2.363 . S
Eu482 O497 2.363 . S
Eu482 O504 2.395 . S
Eu482 O505 2.331 1_554 S
O483 Eu477 2.354 1_556 S
O483 Eu481 2.357 1_556 S
O483 Eu487 2.370 . S
O484 Eu477 2.354 1_556 S
O484 Eu482 2.351 1_556 S
O484 Eu487 2.370 . S
O485 Eu478 2.354 1_556 S
O485 Eu482 2.351 1_556 S
O485 Eu487 2.370 . S
O486 Eu478 2.354 1_556 S
O486 Eu481 2.357 1_556 S
O486 Eu487 2.370 . S
Eu487 O483 2.370 . S
Eu487 O484 2.370 . S
Eu487 O485 2.370 . S
Eu487 O486 2.370 . S
Eu487 O490 2.363 . S
Eu487 O491 2.363 . S
Eu487 O500 2.363 . S
Eu487 O501 2.363 . S
O488 C462 1.283 . S
O488 Eu474 2.363 . S
O489 C463 1.283 . S
O489 Eu474 2.363 . S
O490 C464 1.283 . S
O490 Eu487 2.363 . S
O491 C465 1.283 . S
O491 Eu487 2.363 . S
O492 C466 1.283 . S
O492 Eu477 2.335 1_556 S
O493 C467 1.283 . S
O493 Eu477 2.391 . S
O494 C468 1.283 . S
O494 Eu478 2.335 1_556 S
O495 C469 1.283 . S
O495 Eu478 2.391 . S
O496 C470 1.283 . S
O496 Eu482 2.363 . S
O497 C471 1.283 . S
O497 Eu482 2.363 . S
O498 C472 1.283 . S
O498 Eu481 2.363 . S
O499 C473 1.283 . S
O499 Eu481 2.363 . S
O500 C468 1.283 . S
O500 Eu487 2.363 . S
O501 C466 1.283 . S
O501 Eu487 2.363 . S
O502 C469 1.283 . S
O502 Eu474 2.363 . S
O503 C467 1.283 . S
O503 Eu474 2.363 . S
O504 C463 1.283 . S
O504 Eu482 2.395 . S
O505 C465 1.283 . S
O505 Eu482 2.331 1_556 S
O506 C462 1.283 . S
O506 Eu481 2.386 . S
O507 C464 1.283 . S
O507 Eu481 2.340 1_556 S
O508 C473 1.283 . S
O508 Eu477 2.363 . S
O509 C471 1.283 . S
O509 Eu477 2.363 . S
O510 C472 1.283 . S
O510 Eu478 2.363 . S
O511 C470 1.283 . S
O511 Eu478 2.363 . S
C512 O538 1.283 . S
C512 O556 1.283 . S
C513 O539 1.283 . S
C513 O554 1.283 . S
C514 O540 1.283 . S
C514 O557 1.283 . S
C515 O541 1.283 . S
C515 O555 1.283 . S
C516 O542 1.283 . S
C516 O551 1.283 . S
C517 O543 1.283 . S
C517 O553 1.283 . S
C518 O544 1.283 . S
C518 O550 1.283 . S
C519 O545 1.283 . S
C519 O552 1.283 . S
C520 O546 1.283 . S
C520 O561 1.283 . S
C521 O547 1.283 . S
C521 O559 1.283 . S
C522 O548 1.283 . S
C522 O560 1.283 . S
C523 O549 1.283 . S
C523 O558 1.283 . S
Eu524 O525 2.370 1_455 S
Eu524 O526 2.370 . S
Eu524 O529 2.370 1_455 S
Eu524 O530 2.370 . S
Eu524 O538 2.363 . S
Eu524 O539 2.363 . S
Eu524 O552 2.363 . S
Eu524 O553 2.363 1_455 S
O525 Eu524 2.370 1_655 S
O525 Eu527 2.370 . S
O525 Eu532 2.370 1_655 S
O526 Eu524 2.370 . S
O526 Eu528 2.370 . S
O526 Eu531 2.370 . S
Eu527 O525 2.370 . S
Eu527 O529 2.370 . S
Eu527 O533 2.370 . S
Eu527 O534 2.370 . S
Eu527 O542 2.363 . S
Eu527 O543 2.363 . S
Eu527 O558 2.363 . S
Eu527 O559 2.363 . S
Eu528 O526 2.370 . S
Eu528 O530 2.370 . S
Eu528 O535 2.370 . S
Eu528 O536 2.370 . S
Eu528 O544 2.363 . S
Eu528 O545 2.363 . S
Eu528 O560 2.363 . S
Eu528 O561 2.363 . S
O529 Eu524 2.370 1_655 S
O529 Eu527 2.370 . S
O529 Eu531 2.370 1_655 S
O530 Eu524 2.370 . S
O530 Eu528 2.370 . S
O530 Eu532 2.370 . S
Eu531 O526 2.370 . S
Eu531 O529 2.370 1_455 S
Eu531 O533 2.370 1_455 S
Eu531 O536 2.370 . S
Eu531 O548 2.363 . S
Eu531 O549 2.363 1_455 S
Eu531 O556 2.363 . S
Eu531 O557 2.363 . S
Eu532 O525 2.370 1_455 S
Eu532 O530 2.370 . S
Eu532 O534 2.370 1_455 S
Eu532 O535 2.370 . S
Eu532 O546 2.363 . S
Eu532 O547 2.363 1_455 S
Eu532 O554 2.363 . S
Eu532 O555 2.363 . S
O533 Eu527 2.370 . S
O533 Eu531 2.370 1_655 S
O533 Eu537 2.370 1_655 S
O534 Eu527 2.370 . S
O534 Eu532 2.370 1_655 S
O534 Eu537 2.370 1_655 S
O535 Eu528 2.370 . S
O535 Eu532 2.370 . S
O535 Eu537 2.370 . S
O536 Eu528 2.370 . S
O536 Eu531 2.370 . S
O536 Eu537 2.370 . S
Eu537 O533 2.370 1_455 S
Eu537 O534 2.370 1_455 S
Eu537 O535 2.370 . S
Eu537 O536 2.370 . S
Eu537 O540 2.363 . S
Eu537 O541 2.363 . S
Eu537 O550 2.363 . S
Eu537 O551 2.363 1_455 S
O538 C512 1.283 . S
O538 Eu524 2.363 . S
O539 C513 1.283 . S
O539 Eu524 2.363 . S
O540 C514 1.283 . S
O540 Eu537 2.363 . S
O541 C515 1.283 . S
O541 Eu537 2.363 . S
O542 C516 1.283 . S
O542 Eu527 2.363 . S
O543 C517 1.283 . S
O543 Eu527 2.363 . S
O544 C518 1.283 . S
O544 Eu528 2.363 . S
O545 C519 1.283 . S
O545 Eu528 2.363 . S
O546 C520 1.283 . S
O546 Eu532 2.363 . S
O547 C521 1.283 . S
O547 Eu532 2.363 1_655 S
O548 C522 1.283 . S
O548 Eu531 2.363 . S
O549 C523 1.283 . S
O549 Eu531 2.363 1_655 S
O550 C518 1.283 . S
O550 Eu537 2.363 . S
O551 C516 1.283 . S
O551 Eu537 2.363 1_655 S
O552 C519 1.283 . S
O552 Eu524 2.363 . S
O553 C517 1.283 . S
O553 Eu524 2.363 1_655 S
O554 C513 1.283 . S
O554 Eu532 2.363 . S
O555 C515 1.283 . S
O555 Eu532 2.363 . S
O556 C512 1.283 . S
O556 Eu531 2.363 . S
O557 C514 1.283 . S
O557 Eu531 2.363 . S
O558 C523 1.283 . S
O558 Eu527 2.363 . S
O559 C521 1.283 . S
O559 Eu527 2.363 . S
O560 C522 1.283 . S
O560 Eu528 2.363 . S
O561 C520 1.283 . S
O561 Eu528 2.363 . S
C562 O588 1.283 . S
C562 O606 1.283 . S
C563 O589 1.283 . S
C563 O604 1.283 . S
C564 O590 1.283 . S
C564 O607 1.283 . S
C565 O591 1.283 . S
C565 O605 1.283 . S
C566 O592 1.283 . S
C566 O601 1.283 . S
C567 O593 1.283 . S
C567 O603 1.283 . S
C568 O594 1.283 . S
C568 O600 1.283 . S
C569 O595 1.283 . S
C569 O602 1.283 . S
C570 O596 1.283 . S
C570 O611 1.283 . S
C571 O597 1.283 . S
C571 O609 1.283 . S
C572 O598 1.283 . S
C572 O610 1.283 . S
C573 O599 1.283 . S
C573 O608 1.283 . S
Eu574 O575 2.370 . S
Eu574 O576 2.370 . S
Eu574 O579 2.370 . S
Eu574 O580 2.370 . S
Eu574 O588 2.363 . S
Eu574 O589 2.363 . S
Eu574 O602 2.363 . S
Eu574 O603 2.363 . S
O575 Eu574 2.370 . S
O575 Eu577 2.353 1_565 S
O575 Eu582 2.351 1_565 S
O576 Eu574 2.370 . S
O576 Eu578 2.353 1_565 S
O576 Eu581 2.356 1_565 S
Eu577 O575 2.353 1_545 S
Eu577 O579 2.353 1_545 S
Eu577 O583 2.387 . S
Eu577 O584 2.387 . S
Eu577 O592 2.392 . S
Eu577 O593 2.334 1_545 S
Eu577 O608 2.363 . S
Eu577 O609 2.363 . S
Eu578 O576 2.353 1_545 S
Eu578 O580 2.353 1_545 S
Eu578 O585 2.387 . S
Eu578 O586 2.387 . S
Eu578 O594 2.392 . S
Eu578 O595 2.334 1_545 S
Eu578 O610 2.363 . S
Eu578 O611 2.363 . S
O579 Eu574 2.370 . S
O579 Eu577 2.353 1_565 S
O579 Eu581 2.356 1_565 S
O580 Eu574 2.370 . S
O580 Eu578 2.353 1_565 S
O580 Eu582 2.351 1_565 S
Eu581 O576 2.356 1_545 S
Eu581 O579 2.356 1_545 S
Eu581 O583 2.385 . S
Eu581 O586 2.385 . S
Eu581 O598 2.363 . S
Eu581 O599 2.363 . S
Eu581 O606 2.339 1_545 S
Eu581 O607 2.387 . S
Eu582 O575 2.351 1_545 S
Eu582 O580 2.351 1_545 S
Eu582 O584 2.390 . S
Eu582 O585 2.390 . S
Eu582 O596 2.363 . S
Eu582 O597 2.363 . S
Eu582 O604 2.330 1_545 S
Eu582 O605 2.396 . S
O583 Eu577 2.387 . S
O583 Eu581 2.385 . S
O583 Eu587 2.370 . S
O584 Eu577 2.387 . S
O584 Eu582 2.390 . S
O584 Eu587 2.370 . S
O585 Eu578 2.387 . S
O585 Eu582 2.390 . S
O585 Eu587 2.370 . S
O586 Eu578 2.387 . S
O586 Eu581 2.385 . S
O586 Eu587 2.370 . S
Eu587 O583 2.370 . S
Eu587 O584 2.370 . S
Eu587 O585 2.370 . S
Eu587 O586 2.370 . S
Eu587 O590 2.363 . S
Eu587 O591 2.363 . S
Eu587 O600 2.363 . S
Eu587 O601 2.363 . S
O588 C562 1.283 . S
O588 Eu574 2.363 . S
O589 C563 1.283 . S
O589 Eu574 2.363 . S
O590 C564 1.283 . S
O590 Eu587 2.363 . S
O591 C565 1.283 . S
O591 Eu587 2.363 . S
O592 C566 1.283 . S
O592 Eu577 2.392 . S
O593 C567 1.283 . S
O593 Eu577 2.334 1_565 S
O594 C568 1.283 . S
O594 Eu578 2.392 . S
O595 C569 1.283 . S
O595 Eu578 2.334 1_565 S
O596 C570 1.283 . S
O596 Eu582 2.363 . S
O597 C571 1.283 . S
O597 Eu582 2.363 . S
O598 C572 1.283 . S
O598 Eu581 2.363 . S
O599 C573 1.283 . S
O599 Eu581 2.363 . S
O600 C568 1.283 . S
O600 Eu587 2.363 . S
O601 C566 1.283 . S
O601 Eu587 2.363 . S
O602 C569 1.283 . S
O602 Eu574 2.363 . S
O603 C567 1.283 . S
O603 Eu574 2.363 . S
O604 C563 1.283 . S
O604 Eu582 2.330 1_565 S
O605 C565 1.283 . S
O605 Eu582 2.396 . S
O606 C562 1.283 . S
O606 Eu581 2.339 1_565 S
O607 C564 1.283 . S
O607 Eu581 2.387 . S
O608 C573 1.283 . S
O608 Eu577 2.363 . S
O609 C571 1.283 . S
O609 Eu577 2.363 . S
O610 C572 1.283 . S
O610 Eu578 2.363 . S
O611 C570 1.283 . S
O611 Eu578 2.363 . S
H612 C618 0.930 . S
H613 C622 0.930 . S
H614 C627 0.929 . S
H615 C625 0.929 . S
H616 C620 0.929 . S
H617 C626 0.929 . S
C618 H612 0.930 . S
C618 C619 1.367 . S
C618 C626 1.378 . S
C619 C618 1.367 . S
C619 C627 1.433 . S
C620 H616 0.929 . S
C620 C622 1.378 . S
C620 C624 1.350 . S
C621 C624 1.463 . S
C621 C626 1.350 . S
C621 N629 1.427 . S
C622 H613 0.930 . S
C622 C620 1.378 . S
C622 C623 1.367 . S
C623 C622 1.367 . S
C623 C625 1.433 . S
C624 C620 1.350 . S
C624 C621 1.463 . S
C624 N628 1.427 . S
C625 H615 0.929 . S
C625 C623 1.433 . S
C625 N628 1.384 . S
C626 H617 0.929 . S
C626 C618 1.378 . S
C626 C621 1.350 . S
C627 H614 0.929 . S
C627 C619 1.433 . S
C627 N629 1.384 . S
N628 C624 1.427 . S
N628 C625 1.384 . S
N629 C621 1.427 . S
N629 C627 1.384 . S
H630 C636 0.930 . S
H631 C640 0.930 . S
H632 C645 0.929 . S
H633 C643 0.929 . S
H634 C638 0.929 . S
H635 C644 0.929 . S
C636 H630 0.930 . S
C636 C637 1.367 . S
C636 C644 1.378 . S
C637 C636 1.367 . S
C637 C645 1.433 . S
C638 H634 0.929 . S
C638 C640 1.378 . S
C638 C642 1.350 . S
C639 C642 1.463 . S
C639 C644 1.350 . S
C639 N647 1.427 . S
C640 H631 0.930 . S
C640 C638 1.378 . S
C640 C641 1.367 . S
C641 C640 1.367 . S
C641 C643 1.433 . S
C642 C638 1.350 . S
C642 C639 1.463 . S
C642 N646 1.427 . S
C643 H633 0.929 . S
C643 C641 1.433 . S
C643 N646 1.384 . S
C644 H635 0.929 . S
C644 C636 1.378 . S
C644 C639 1.350 . S
C645 H632 0.929 . S
C645 C637 1.433 . S
C645 N647 1.384 . S
N646 C642 1.427 . S
N646 C643 1.384 . S
N647 C639 1.427 . S
N647 C645 1.384 . S
H648 C654 0.930 . S
H649 C658 0.930 . S
H650 C663 0.929 . S
H651 C661 0.929 . S
H652 C656 0.929 . S
H653 C662 0.929 . S
C654 H648 0.930 . S
C654 C655 1.367 . S
C654 C662 1.378 . S
C655 C654 1.367 . S
C655 C663 1.433 . S
C656 H652 0.929 . S
C656 C658 1.378 . S
C656 C660 1.350 . S
C657 C660 1.463 . S
C657 C662 1.350 . S
C657 N665 1.427 . S
C658 H649 0.930 . S
C658 C656 1.378 . S
C658 C659 1.367 . S
C659 C658 1.367 . S
C659 C661 1.433 . S
C660 C656 1.350 . S
C660 C657 1.463 . S
C660 N664 1.427 . S
C661 H651 0.929 . S
C661 C659 1.433 . S
C661 N664 1.384 . S
C662 H653 0.929 . S
C662 C654 1.378 . S
C662 C657 1.350 . S
C663 H650 0.929 . S
C663 C655 1.433 . S
C663 N665 1.384 . S
N664 C660 1.427 . S
N664 C661 1.384 . S
N665 C657 1.427 . S
N665 C663 1.384 . S
H666 C672 0.930 . S
H667 C676 0.930 . S
H668 C681 0.929 . S
H669 C679 0.929 . S
H670 C674 0.929 . S
H671 C680 0.929 . S
C672 H666 0.930 . S
C672 C673 1.367 . S
C672 C680 1.378 . S
C673 C672 1.367 . S
C673 C681 1.433 . S
C674 H670 0.929 . S
C674 C676 1.378 . S
C674 C678 1.350 . S
C675 C678 1.463 . S
C675 C680 1.350 . S
C675 N683 1.427 . S
C676 H667 0.930 . S
C676 C674 1.378 . S
C676 C677 1.367 . S
C677 C676 1.367 . S
C677 C679 1.433 . S
C678 C674 1.350 . S
C678 C675 1.463 . S
C678 N682 1.427 . S
C679 H669 0.929 . S
C679 C677 1.433 . S
C679 N682 1.384 . S
C680 H671 0.929 . S
C680 C672 1.378 . S
C680 C675 1.350 . S
C681 H668 0.929 . S
C681 C673 1.433 . S
C681 N683 1.384 . S
N682 C678 1.427 . S
N682 C679 1.384 . S
N683 C675 1.427 . S
N683 C681 1.384 . S
H684 C690 0.930 . S
H685 C694 0.930 . S
H686 C699 0.929 . S
H687 C697 0.929 . S
H688 C692 0.929 . S
H689 C698 0.929 . S
C690 H684 0.930 . S
C690 C691 1.367 . S
C690 C698 1.378 . S
C691 C690 1.367 . S
C691 C699 1.433 . S
C692 H688 0.929 . S
C692 C694 1.378 . S
C692 C696 1.350 . S
C693 C696 1.463 . S
C693 C698 1.350 . S
C693 N701 1.427 . S
C694 H685 0.930 . S
C694 C692 1.378 . S
C694 C695 1.367 . S
C695 C694 1.367 . S
C695 C697 1.433 . S
C696 C692 1.350 . S
C696 C693 1.463 . S
C696 N700 1.427 . S
C697 H687 0.929 . S
C697 C695 1.433 . S
C697 N700 1.384 . S
C698 H689 0.929 . S
C698 C690 1.378 . S
C698 C693 1.350 . S
C699 H686 0.929 . S
C699 C691 1.433 . S
C699 N701 1.384 . S
N700 C696 1.427 . S
N700 C697 1.384 . S
N701 C693 1.427 . S
N701 C699 1.384 . S
H702 C708 0.930 . S
H703 C712 0.930 . S
H704 C717 0.929 . S
H705 C715 0.929 . S
H706 C710 0.929 . S
H707 C716 0.929 . S
C708 H702 0.930 . S
C708 C709 1.367 . S
C708 C716 1.378 . S
C709 C708 1.367 . S
C709 C717 1.433 . S
C710 H706 0.929 . S
C710 C712 1.378 . S
C710 C714 1.350 . S
C711 C714 1.463 . S
C711 C716 1.350 . S
C711 N719 1.427 . S
C712 H703 0.930 . S
C712 C710 1.378 . S
C712 C713 1.367 . S
C713 C712 1.367 . S
C713 C715 1.433 . S
C714 C710 1.350 . S
C714 C711 1.463 . S
C714 N718 1.427 . S
C715 H705 0.929 . S
C715 C713 1.433 . S
C715 N718 1.384 . S
C716 H707 0.929 . S
C716 C708 1.378 . S
C716 C711 1.350 . S
C717 H704 0.929 . S
C717 C709 1.433 . S
C717 N719 1.384 . S
N718 C714 1.427 . S
N718 C715 1.384 . S
N719 C711 1.427 . S
N719 C717 1.384 . S
H720 C726 0.930 . S
H721 C730 0.930 . S
H722 C735 0.929 . S
H723 C733 0.929 . S
H724 C728 0.929 . S
H725 C734 0.929 . S
C726 H720 0.930 . S
C726 C727 1.367 . S
C726 C734 1.378 . S
C727 C726 1.367 . S
C727 C735 1.433 . S
C728 H724 0.929 . S
C728 C730 1.378 . S
C728 C732 1.350 . S
C729 C732 1.463 . S
C729 C734 1.350 . S
C729 N737 1.427 . S
C730 H721 0.930 . S
C730 C728 1.378 . S
C730 C731 1.367 . S
C731 C730 1.367 . S
C731 C733 1.433 . S
C732 C728 1.350 . S
C732 C729 1.463 . S
C732 N736 1.427 . S
C733 H723 0.929 . S
C733 C731 1.433 . S
C733 N736 1.384 . S
C734 H725 0.929 . S
C734 C726 1.378 . S
C734 C729 1.350 . S
C735 H722 0.929 . S
C735 C727 1.433 . S
C735 N737 1.384 . S
N736 C732 1.427 . S
N736 C733 1.384 . S
N737 C729 1.427 . S
N737 C735 1.384 . S
H738 C744 0.930 . S
H739 C748 0.930 . S
H740 C753 0.929 . S
H741 C751 0.929 . S
H742 C746 0.929 . S
H743 C752 0.929 . S
C744 H738 0.930 . S
C744 C745 1.367 . S
C744 C752 1.378 . S
C745 C744 1.367 . S
C745 C753 1.433 . S
C746 H742 0.929 . S
C746 C748 1.378 . S
C746 C750 1.350 . S
C747 C750 1.463 . S
C747 C752 1.350 . S
C747 N755 1.427 . S
C748 H739 0.930 . S
C748 C746 1.378 . S
C748 C749 1.367 . S
C749 C748 1.367 . S
C749 C751 1.433 . S
C750 C746 1.350 . S
C750 C747 1.463 . S
C750 N754 1.427 . S
C751 H741 0.929 . S
C751 C749 1.433 . S
C751 N754 1.384 . S
C752 H743 0.929 . S
C752 C744 1.378 . S
C752 C747 1.350 . S
C753 H740 0.929 . S
C753 C745 1.433 . S
C753 N755 1.384 . S
N754 C750 1.427 . S
N754 C751 1.384 . S
N755 C747 1.427 . S
N755 C753 1.384 . S
H756 C762 0.930 . S
H757 C766 0.930 . S
H758 C771 0.929 . S
H759 C769 0.929 . S
H760 C764 0.929 . S
H761 C770 0.929 . S
C762 H756 0.930 . S
C762 C763 1.367 . S
C762 C770 1.378 . S
C763 C762 1.367 . S
C763 C771 1.433 . S
C764 H760 0.929 . S
C764 C766 1.378 . S
C764 C768 1.350 . S
C765 C768 1.463 . S
C765 C770 1.350 . S
C765 N773 1.427 . S
C766 H757 0.930 . S
C766 C764 1.378 . S
C766 C767 1.367 . S
C767 C766 1.367 . S
C767 C769 1.433 . S
C768 C764 1.350 . S
C768 C765 1.463 . S
C768 N772 1.427 . S
C769 H759 0.929 . S
C769 C767 1.433 . S
C769 N772 1.384 . S
C770 H761 0.929 . S
C770 C762 1.378 . S
C770 C765 1.350 . S
C771 H758 0.929 . S
C771 C763 1.433 . S
C771 N773 1.384 . S
N772 C768 1.427 . S
N772 C769 1.384 . S
N773 C765 1.427 . S
N773 C771 1.384 . S
H774 C780 0.930 . S
H775 C784 0.930 . S
H776 C789 0.929 . S
H777 C787 0.929 . S
H778 C782 0.929 . S
H779 C788 0.929 . S
C780 H774 0.930 . S
C780 C781 1.367 . S
C780 C788 1.378 . S
C781 C780 1.367 . S
C781 C789 1.433 . S
C782 H778 0.929 . S
C782 C784 1.378 . S
C782 C786 1.350 . S
C783 C786 1.463 . S
C783 C788 1.350 . S
C783 N791 1.427 . S
C784 H775 0.930 . S
C784 C782 1.378 . S
C784 C785 1.367 . S
C785 C784 1.367 . S
C785 C787 1.433 . S
C786 C782 1.350 . S
C786 C783 1.463 . S
C786 N790 1.427 . S
C787 H777 0.929 . S
C787 C785 1.433 . S
C787 N790 1.384 . S
C788 H779 0.929 . S
C788 C780 1.378 . S
C788 C783 1.350 . S
C789 H776 0.929 . S
C789 C781 1.433 . S
C789 N791 1.384 . S
N790 C786 1.427 . S
N790 C787 1.384 . S
N791 C783 1.427 . S
N791 C789 1.384 . S
H792 C798 0.930 . S
H793 C802 0.930 . S
H794 C807 0.929 . S
H795 C805 0.929 . S
H796 C800 0.929 . S
H797 C806 0.929 . S
C798 H792 0.930 . S
C798 C799 1.367 . S
C798 C806 1.378 . S
C799 C798 1.367 . S
C799 C807 1.433 . S
C800 H796 0.929 . S
C800 C802 1.378 . S
C800 C804 1.350 . S
C801 C804 1.463 . S
C801 C806 1.350 . S
C801 N809 1.427 . S
C802 H793 0.930 . S
C802 C800 1.378 . S
C802 C803 1.367 . S
C803 C802 1.367 . S
C803 C805 1.433 . S
C804 C800 1.350 . S
C804 C801 1.463 . S
C804 N808 1.427 . S
C805 H795 0.929 . S
C805 C803 1.433 . S
C805 N808 1.384 . S
C806 H797 0.929 . S
C806 C798 1.378 . S
C806 C801 1.350 . S
C807 H794 0.929 . S
C807 C799 1.433 . S
C807 N809 1.384 . S
N808 C804 1.427 . S
N808 C805 1.384 . S
N809 C801 1.427 . S
N809 C807 1.384 . S
H810 C816 0.930 . S
H811 C820 0.930 . S
H812 C825 0.929 . S
H813 C823 0.929 . S
H814 C818 0.929 . S
H815 C824 0.929 . S
C816 H810 0.930 . S
C816 C817 1.367 . S
C816 C824 1.378 . S
C817 C816 1.367 . S
C817 C825 1.433 . S
C818 H814 0.929 . S
C818 C820 1.378 . S
C818 C822 1.350 . S
C819 C822 1.463 . S
C819 C824 1.350 . S
C819 N827 1.427 . S
C820 H811 0.930 . S
C820 C818 1.378 . S
C820 C821 1.367 . S
C821 C820 1.367 . S
C821 C823 1.433 . S
C822 C818 1.350 . S
C822 C819 1.463 . S
C822 N826 1.427 . S
C823 H813 0.929 . S
C823 C821 1.433 . S
C823 N826 1.384 . S
C824 H815 0.929 . S
C824 C816 1.378 . S
C824 C819 1.350 . S
C825 H812 0.929 . S
C825 C817 1.433 . S
C825 N827 1.384 . S
N826 C822 1.427 . S
N826 C823 1.384 . S
N827 C819 1.427 . S
N827 C825 1.384 . S
H828 C834 0.930 . S
H829 C838 0.930 . S
H830 C843 0.929 . S
H831 C841 0.929 . S
H832 C836 0.929 . S
H833 C842 0.929 . S
C834 H828 0.930 . S
C834 C835 1.337 1_556 S
C834 C842 1.378 . S
C835 C834 1.337 1_554 S
C835 C843 1.464 . S
C836 H832 0.929 . S
C836 C838 1.378 . S
C836 C840 1.350 . S
C837 C840 1.463 . S
C837 C842 1.336 1_554 S
C837 N845 1.441 . S
C838 H829 0.930 . S
C838 C836 1.378 . S
C838 C839 1.367 . S
C839 C838 1.367 . S
C839 C841 1.433 1_554 S
C840 C836 1.350 . S
C840 C837 1.463 . S
C840 N844 1.427 1_554 S
C841 H831 0.929 . S
C841 C839 1.433 1_556 S
C841 N844 1.384 . S
C842 H833 0.929 . S
C842 C834 1.378 . S
C842 C837 1.336 1_556 S
C843 H830 0.929 . S
C843 C835 1.464 . S
C843 N845 1.384 . S
N844 C840 1.427 1_556 S
N844 C841 1.384 . S
N845 C837 1.441 . S
N845 C843 1.384 . S
H846 C852 0.930 . S
H847 C856 0.930 . S
H848 C861 0.929 . S
H849 C859 0.929 . S
H850 C854 0.929 . S
H851 C860 0.929 . S
C852 H846 0.930 . S
C852 C853 1.337 1_556 S
C852 C860 1.378 . S
C853 C852 1.337 1_554 S
C853 C861 1.464 . S
C854 H850 0.929 . S
C854 C856 1.378 . S
C854 C858 1.350 . S
C855 C858 1.463 . S
C855 C860 1.339 1_554 S
C855 N863 1.439 . S
C856 H847 0.930 . S
C856 C854 1.378 . S
C856 C857 1.367 . S
C857 C856 1.367 . S
C857 C859 1.433 1_554 S
C858 C854 1.350 . S
C858 C855 1.463 . S
C858 N862 1.427 1_554 S
C859 H849 0.929 . S
C859 C857 1.433 1_556 S
C859 N862 1.384 . S
C860 H851 0.929 . S
C860 C852 1.378 . S
C860 C855 1.339 1_556 S
C861 H848 0.929 . S
C861 C853 1.464 . S
C861 N863 1.384 . S
N862 C858 1.427 1_556 S
N862 C859 1.384 . S
N863 C855 1.439 . S
N863 C861 1.384 . S
H864 C870 0.930 . S
H865 C874 0.930 . S
H866 C879 0.929 . S
H867 C877 0.929 . S
H868 C872 0.929 . S
H869 C878 0.929 . S
C870 H864 0.930 . S
C870 C871 1.381 . S
C870 C878 1.378 . S
C871 C870 1.381 . S
C871 C879 1.418 1_556 S
C872 H868 0.929 . S
C872 C874 1.378 . S
C872 C876 1.350 . S
C873 C876 1.461 1_556 S
C873 C878 1.368 . S
C873 N881 1.409 1_556 S
C874 H865 0.930 . S
C874 C872 1.378 . S
C874 C875 1.367 . S
C875 C874 1.367 . S
C875 C877 1.433 1_554 S
C876 C872 1.350 . S
C876 C873 1.461 1_554 S
C876 N880 1.427 1_554 S
C877 H867 0.929 . S
C877 C875 1.433 1_556 S
C877 N880 1.384 . S
C878 H869 0.929 . S
C878 C870 1.378 . S
C878 C873 1.368 . S
C879 H866 0.929 . S
C879 C871 1.418 1_554 S
C879 N881 1.384 . S
N880 C876 1.427 1_556 S
N880 C877 1.384 . S
N881 C873 1.409 1_554 S
N881 C879 1.384 . S
H882 C888 0.930 . S
H883 C892 0.930 . S
H884 C897 0.929 . S
H885 C895 0.929 . S
H886 C890 0.929 . S
H887 C896 0.929 . S
C888 H882 0.930 . S
C888 C889 1.387 . S
C888 C896 1.378 . S
C889 C888 1.387 . S
C889 C897 1.413 1_554 S
C890 H886 0.929 . S
C890 C892 1.378 . S
C890 C894 1.365 . S
C891 C894 1.462 1_554 S
C891 C896 1.350 . S
C891 N899 1.427 1_554 S
C892 H883 0.930 . S
C892 C890 1.378 . S
C892 C893 1.364 . S
C893 C892 1.364 . S
C893 C895 1.436 1_556 S
C894 C890 1.365 . S
C894 C891 1.462 1_556 S
C894 N898 1.412 1_556 S
C895 H885 0.929 . S
C895 C893 1.436 1_554 S
C895 N898 1.384 . S
C896 H887 0.929 . S
C896 C888 1.378 . S
C896 C891 1.350 . S
C897 H884 0.929 . S
C897 C889 1.413 1_556 S
C897 N899 1.384 . S
N898 C894 1.412 1_554 S
N898 C895 1.384 . S
N899 C891 1.427 1_556 S
N899 C897 1.384 . S
H900 C906 0.930 . S
H901 C910 0.930 . S
H902 C915 0.929 . S
H903 C913 0.929 . S
H904 C908 0.929 . S
H905 C914 0.929 . S
C906 H900 0.930 . S
C906 C907 1.367 . S
C906 C914 1.378 . S
C907 C906 1.367 . S
C907 C915 1.433 1_455 S
C908 H904 0.929 . S
C908 C910 1.378 . S
C908 C912 1.350 1_655 S
C909 C912 1.463 . S
C909 C914 1.350 . S
C909 N917 1.427 1_455 S
C910 H901 0.930 . S
C910 C908 1.378 . S
C910 C911 1.367 1_655 S
C911 C910 1.367 1_455 S
C911 C913 1.433 . S
C912 C908 1.350 1_455 S
C912 C909 1.463 . S
C912 N916 1.427 . S
C913 H903 0.929 . S
C913 C911 1.433 . S
C913 N916 1.384 . S
C914 H905 0.929 . S
C914 C906 1.378 . S
C914 C909 1.350 . S
C915 H902 0.929 . S
C915 C907 1.433 1_655 S
C915 N917 1.384 . S
N916 C912 1.427 . S
N916 C913 1.384 . S
N917 C909 1.427 1_655 S
N917 C915 1.384 . S
H918 C924 0.930 . S
H919 C928 0.930 . S
H920 C933 0.929 . S
H921 C931 0.929 . S
H922 C926 0.929 . S
H923 C932 0.929 . S
C924 H918 0.930 . S
C924 C925 1.387 . S
C924 C932 1.378 . S
C925 C924 1.387 . S
C925 C933 1.413 1_545 S
C926 H922 0.929 . S
C926 C928 1.378 . S
C926 C930 1.357 . S
C927 C930 1.462 1_545 S
C927 C932 1.350 . S
C927 N935 1.427 1_545 S
C928 H919 0.930 . S
C928 C926 1.378 . S
C928 C929 1.364 1_565 S
C929 C928 1.364 1_545 S
C929 C931 1.436 . S
C930 C926 1.357 . S
C930 C927 1.462 1_565 S
C930 N934 1.420 1_565 S
C931 H921 0.929 . S
C931 C929 1.436 . S
C931 N934 1.384 . S
C932 H923 0.929 . S
C932 C924 1.378 . S
C932 C927 1.350 . S
C933 H920 0.929 . S
C933 C925 1.413 1_565 S
C933 N935 1.384 . S
N934 C930 1.420 1_545 S
N934 C931 1.384 . S
N935 C927 1.427 1_565 S
N935 C933 1.384 . S
H936 C942 0.930 . S
H937 C946 0.930 . S
H938 C951 0.929 . S
H939 C949 0.929 . S
H940 C944 0.929 . S
H941 C950 0.929 . S
C942 H936 0.930 . S
C942 C943 1.367 . S
C942 C950 1.378 . S
C943 C942 1.367 . S
C943 C951 1.433 1_455 S
C944 H940 0.929 . S
C944 C946 1.378 . S
C944 C948 1.350 1_655 S
C945 C948 1.463 . S
C945 C950 1.350 . S
C945 N953 1.427 1_455 S
C946 H937 0.930 . S
C946 C944 1.378 . S
C946 C947 1.367 1_655 S
C947 C946 1.367 1_455 S
C947 C949 1.433 . S
C948 C944 1.350 1_455 S
C948 C945 1.463 . S
C948 N952 1.427 . S
C949 H939 0.929 . S
C949 C947 1.433 . S
C949 N952 1.384 . S
C950 H941 0.929 . S
C950 C942 1.378 . S
C950 C945 1.350 . S
C951 H938 0.929 . S
C951 C943 1.433 1_655 S
C951 N953 1.384 . S
N952 C948 1.427 . S
N952 C949 1.384 . S
N953 C945 1.427 1_655 S
N953 C951 1.384 . S
H954 C960 0.930 . S
H955 C964 0.930 . S
H956 C969 0.929 . S
H957 C967 0.929 . S
H958 C962 0.929 . S
H959 C968 0.929 . S
C960 H954 0.930 . S
C960 C961 1.393 . S
C960 C968 1.378 . S
C961 C960 1.393 . S
C961 C969 1.407 1_545 S
C962 H958 0.929 . S
C962 C964 1.378 . S
C962 C966 1.363 . S
C963 C966 1.462 1_545 S
C963 C968 1.350 . S
C963 N971 1.427 1_545 S
C964 H955 0.930 . S
C964 C962 1.378 . S
C964 C965 1.368 1_565 S
C965 C964 1.368 1_545 S
C965 C967 1.432 . S
C966 C962 1.363 . S
C966 C963 1.462 1_565 S
C966 N970 1.414 1_565 S
C967 H957 0.929 . S
C967 C965 1.432 . S
C967 N970 1.384 . S
C968 H959 0.929 . S
C968 C960 1.378 . S
C968 C963 1.350 . S
C969 H956 0.929 . S
C969 C961 1.407 1_565 S
C969 N971 1.384 . S
N970 C966 1.414 1_545 S
N970 C967 1.384 . S
N971 C963 1.427 1_565 S
N971 C969 1.384 . S
H972 C978 0.930 . S
H973 C982 0.930 1_655 S
H974 C987 0.929 1_655 S
H975 C985 0.929 . S
H976 C980 0.929 1_655 S
H977 C986 0.929 . S
C978 H972 0.930 . S
C978 C979 1.367 . S
C978 C986 1.378 . S
C979 C978 1.367 . S
C979 C987 1.433 . S
C980 H976 0.929 1_455 S
C980 C982 1.378 . S
C980 C984 1.350 . S
C981 C984 1.463 . S
C981 C986 1.350 . S
C981 N989 1.427 . S
C982 H973 0.930 1_455 S
C982 C980 1.378 . S
C982 C983 1.367 . S
C983 C982 1.367 . S
C983 C985 1.433 . S
C984 C980 1.350 . S
C984 C981 1.463 . S
C984 N988 1.427 . S
C985 H975 0.929 . S
C985 C983 1.433 . S
C985 N988 1.384 . S
C986 H977 0.929 . S
C986 C978 1.378 . S
C986 C981 1.350 . S
C987 H974 0.929 1_455 S
C987 C979 1.433 . S
C987 N989 1.384 . S
N988 C984 1.427 . S
N988 C985 1.384 . S
N989 C981 1.427 . S
N989 C987 1.384 . S
H990 C996 0.930 . S
H991 C1000 0.930 . S
H992 C1005 0.929 . S
H993 C1003 0.929 . S
H994 C998 0.929 . S
H995 C1004 0.929 . S
C996 H990 0.930 . S
C996 C997 1.367 . S
C996 C1004 1.378 . S
C997 C996 1.367 . S
C997 C1005 1.433 1_545 S
C998 H994 0.929 . S
C998 C1000 1.378 . S
C998 C1002 1.342 1_565 S
C999 C1002 1.463 . S
C999 C1004 1.350 . S
C999 N1007 1.427 1_545 S
C1000 H991 0.930 . S
C1000 C998 1.378 . S
C1000 C1001 1.356 1_565 S
C1001 C1000 1.356 1_545 S
C1001 C1003 1.444 . S
C1002 C998 1.342 1_545 S
C1002 C999 1.463 . S
C1002 N1006 1.435 . S
C1003 H993 0.929 . S
C1003 C1001 1.444 . S
C1003 N1006 1.384 . S
C1004 H995 0.929 . S
C1004 C996 1.378 . S
C1004 C999 1.350 . S
C1005 H992 0.929 . S
C1005 C997 1.433 1_565 S
C1005 N1007 1.384 . S
N1006 C1002 1.435 . S
N1006 C1003 1.384 . S
N1007 C999 1.427 1_565 S
N1007 C1005 1.384 . S
H1008 C1014 0.930 . S
H1009 C1018 0.934 . S
H1010 C1023 0.931 1_655 S
H1011 C1021 0.929 . S
H1012 C1016 0.931 . S
H1013 C1022 0.929 . S
C1014 H1008 0.930 . S
C1014 C1015 1.367 . S
C1014 C1022 1.378 . S
C1015 C1014 1.367 . S
C1015 C1023 1.433 . S
C1016 H1012 0.931 . S
C1016 C1018 1.378 . S
C1016 C1020 1.350 . S
C1017 C1020 1.463 . S
C1017 C1022 1.350 . S
C1017 N1025 1.427 . S
C1018 H1009 0.934 . S
C1018 C1016 1.378 . S
C1018 C1019 1.367 . S
C1019 C1018 1.367 . S
C1019 C1021 1.433 . S
C1020 C1016 1.350 . S
C1020 C1017 1.463 . S
C1020 N1024 1.427 . S
C1021 H1011 0.929 . S
C1021 C1019 1.433 . S
C1021 N1024 1.384 . S
C1022 H1013 0.929 . S
C1022 C1014 1.378 . S
C1022 C1017 1.350 . S
C1023 H1010 0.931 1_455 S
C1023 C1015 1.433 . S
C1023 N1025 1.384 . S
N1024 C1020 1.427 . S
N1024 C1021 1.384 . S
N1025 C1017 1.427 . S
N1025 C1023 1.384 . S
H1026 C1032 0.930 . S
H1027 C1036 0.930 . S
H1028 C1041 0.929 . S
H1029 C1039 0.929 . S
H1030 C1034 0.929 . S
H1031 C1040 0.929 . S
C1032 H1026 0.930 . S
C1032 C1033 1.367 1_565 S
C1032 C1040 1.378 . S
C1033 C1032 1.367 1_545 S
C1033 C1041 1.433 . S
C1034 H1030 0.929 . S
C1034 C1036 1.378 . S
C1034 C1038 1.350 . S
C1035 C1038 1.464 . S
C1035 C1040 1.335 1_545 S
C1035 N1043 1.443 . S
C1036 H1027 0.930 . S
C1036 C1034 1.378 . S
C1036 C1037 1.367 . S
C1037 C1036 1.367 . S
C1037 C1039 1.433 1_545 S
C1038 C1034 1.350 . S
C1038 C1035 1.464 . S
C1038 N1042 1.427 1_545 S
C1039 H1029 0.929 . S
C1039 C1037 1.433 1_565 S
C1039 N1042 1.384 . S
C1040 H1031 0.929 . S
C1040 C1032 1.378 . S
C1040 C1035 1.335 1_565 S
C1041 H1028 0.929 . S
C1041 C1033 1.433 . S
C1041 N1043 1.384 . S
N1042 C1038 1.427 1_565 S
N1042 C1039 1.384 . S
N1043 C1035 1.443 . S
N1043 C1041 1.384 . S
H1044 C1050 0.930 . S
H1045 C1054 0.930 . S
H1046 C1059 0.929 . S
H1047 C1057 0.929 . S
H1048 C1052 0.929 . S
H1049 C1058 0.929 . S
C1050 H1044 0.930 . S
C1050 C1051 1.367 1_655 S
C1050 C1058 1.378 . S
C1051 C1050 1.367 1_455 S
C1051 C1059 1.433 . S
C1052 H1048 0.929 . S
C1052 C1054 1.378 . S
C1052 C1056 1.350 . S
C1053 C1056 1.463 . S
C1053 C1058 1.350 1_455 S
C1053 N1061 1.427 . S
C1054 H1045 0.930 . S
C1054 C1052 1.378 . S
C1054 C1055 1.367 . S
C1055 C1054 1.367 . S
C1055 C1057 1.433 1_455 S
C1056 C1052 1.350 . S
C1056 C1053 1.463 . S
C1056 N1060 1.427 1_455 S
C1057 H1047 0.929 . S
C1057 C1055 1.433 1_655 S
C1057 N1060 1.384 . S
C1058 H1049 0.929 . S
C1058 C1050 1.378 . S
C1058 C1053 1.350 1_655 S
C1059 H1046 0.929 . S
C1059 C1051 1.433 . S
C1059 N1061 1.384 . S
N1060 C1056 1.427 1_655 S
N1060 C1057 1.384 . S
N1061 C1053 1.427 . S
N1061 C1059 1.384 . S
H1062 C1068 0.930 . S
H1063 C1072 0.930 . S
H1064 C1077 0.929 . S
H1065 C1075 0.929 . S
H1066 C1070 0.929 . S
H1067 C1076 0.929 . S
C1068 H1062 0.930 . S
C1068 C1069 1.367 . S
C1068 C1076 1.378 . S
C1069 C1068 1.367 . S
C1069 C1077 1.433 1_545 S
C1070 H1066 0.929 . S
C1070 C1072 1.378 . S
C1070 C1074 1.350 1_565 S
C1071 C1074 1.463 . S
C1071 C1076 1.350 . S
C1071 N1079 1.427 1_545 S
C1072 H1063 0.930 . S
C1072 C1070 1.378 . S
C1072 C1073 1.363 1_565 S
C1073 C1072 1.363 1_545 S
C1073 C1075 1.439 . S
C1074 C1070 1.350 1_545 S
C1074 C1071 1.463 . S
C1074 N1078 1.427 . S
C1075 H1065 0.929 . S
C1075 C1073 1.439 . S
C1075 N1078 1.384 . S
C1076 H1067 0.929 . S
C1076 C1068 1.378 . S
C1076 C1071 1.350 . S
C1077 H1064 0.929 . S
C1077 C1069 1.433 1_565 S
C1077 N1079 1.384 . S
N1078 C1074 1.427 . S
N1078 C1075 1.384 . S
N1079 C1071 1.427 1_565 S
N1079 C1077 1.384 . S
H1080 C1086 0.931 . S
H1081 C1090 0.930 . S
H1082 C1095 0.929 . S
H1083 C1093 0.929 . S
H1084 C1088 0.929 . S
H1085 C1094 0.929 . S
C1086 H1080 0.931 . S
C1086 C1087 1.367 . S
C1086 C1094 1.378 . S
C1087 C1086 1.367 . S
C1087 C1095 1.433 . S
C1088 H1084 0.929 . S
C1088 C1090 1.378 . S
C1088 C1092 1.350 . S
C1089 C1092 1.463 . S
C1089 C1094 1.350 . S
C1089 N1097 1.427 . S
C1090 H1081 0.930 . S
C1090 C1088 1.378 . S
C1090 C1091 1.367 . S
C1091 C1090 1.367 . S
C1091 C1093 1.433 . S
C1092 C1088 1.350 . S
C1092 C1089 1.463 . S
C1092 N1096 1.427 . S
C1093 H1083 0.929 . S
C1093 C1091 1.433 . S
C1093 N1096 1.384 . S
C1094 H1085 0.929 . S
C1094 C1086 1.378 . S
C1094 C1089 1.350 . S
C1095 H1082 0.929 . S
C1095 C1087 1.433 . S
C1095 N1097 1.384 . S
N1096 C1092 1.427 . S
N1096 C1093 1.384 . S
N1097 C1089 1.427 . S
N1097 C1095 1.384 . S
H1098 C1104 0.930 . S
H1099 C1108 0.930 . S
H1100 C1113 0.929 . S
H1101 C1111 0.929 . S
H1102 C1106 0.929 . S
H1103 C1112 0.929 . S
C1104 H1098 0.930 . S
C1104 C1105 1.367 1_565 S
C1104 C1112 1.378 . S
C1105 C1104 1.367 1_545 S
C1105 C1113 1.433 . S
C1106 H1102 0.929 . S
C1106 C1108 1.378 . S
C1106 C1110 1.350 . S
C1107 C1110 1.464 . S
C1107 C1112 1.336 1_545 S
C1107 N1115 1.443 . S
C1108 H1099 0.930 . S
C1108 C1106 1.378 . S
C1108 C1109 1.367 . S
C1109 C1108 1.367 . S
C1109 C1111 1.433 1_545 S
C1110 C1106 1.350 . S
C1110 C1107 1.464 . S
C1110 N1114 1.427 1_545 S
C1111 H1101 0.929 . S
C1111 C1109 1.433 1_565 S
C1111 N1114 1.384 . S
C1112 H1103 0.929 . S
C1112 C1104 1.378 . S
C1112 C1107 1.336 1_565 S
C1113 H1100 0.929 . S
C1113 C1105 1.433 . S
C1113 N1115 1.384 . S
N1114 C1110 1.427 1_565 S
N1114 C1111 1.384 . S
N1115 C1107 1.443 . S
N1115 C1113 1.384 . S
H1116 C1122 0.930 . S
H1117 C1126 0.930 . S
H1118 C1131 0.929 . S
H1119 C1129 0.929 . S
H1120 C1124 0.929 . S
H1121 C1130 0.929 . S
C1122 H1116 0.930 . S
C1122 C1123 1.367 . S
C1122 C1130 1.378 . S
C1123 C1122 1.367 . S
C1123 C1131 1.433 . S
C1124 H1120 0.929 . S
C1124 C1126 1.378 . S
C1124 C1128 1.350 . S
C1125 C1128 1.463 . S
C1125 C1130 1.350 . S
C1125 N1133 1.427 . S
C1126 H1117 0.930 . S
C1126 C1124 1.378 . S
C1126 C1127 1.367 . S
C1127 C1126 1.367 . S
C1127 C1129 1.433 . S
C1128 C1124 1.350 . S
C1128 C1125 1.463 . S
C1128 N1132 1.427 . S
C1129 H1119 0.929 . S
C1129 C1127 1.433 . S
C1129 N1132 1.384 . S
C1130 H1121 0.929 . S
C1130 C1122 1.378 . S
C1130 C1125 1.350 . S
C1131 H1118 0.929 . S
C1131 C1123 1.433 . S
C1131 N1133 1.384 . S
N1132 C1128 1.427 . S
N1132 C1129 1.384 . S
N1133 C1125 1.427 . S
N1133 C1131 1.384 . S
H1134 C1140 0.930 . S
H1135 C1144 0.930 . S
H1136 C1149 0.929 . S
H1137 C1147 0.929 . S
H1138 C1142 0.929 . S
H1139 C1148 0.929 . S
C1140 H1134 0.930 . S
C1140 C1141 1.386 . S
C1140 C1148 1.378 . S
C1141 C1140 1.386 . S
C1141 C1149 1.414 1_545 S
C1142 H1138 0.929 . S
C1142 C1144 1.378 . S
C1142 C1146 1.363 . S
C1143 C1146 1.462 1_545 S
C1143 C1148 1.350 . S
C1143 N1151 1.427 1_545 S
C1144 H1135 0.930 . S
C1144 C1142 1.378 . S
C1144 C1145 1.369 1_565 S
C1145 C1144 1.369 1_545 S
C1145 C1147 1.431 . S
C1146 C1142 1.363 . S
C1146 C1143 1.462 1_565 S
C1146 N1150 1.414 1_565 S
C1147 H1137 0.929 . S
C1147 C1145 1.431 . S
C1147 N1150 1.384 . S
C1148 H1139 0.929 . S
C1148 C1140 1.378 . S
C1148 C1143 1.350 . S
C1149 H1136 0.929 . S
C1149 C1141 1.414 1_565 S
C1149 N1151 1.384 . S
N1150 C1146 1.414 1_545 S
N1150 C1147 1.384 . S
N1151 C1143 1.427 1_565 S
N1151 C1149 1.384 . S
H1152 C1158 0.930 . S
H1153 C1162 0.930 . S
H1154 C1167 0.929 . S
H1155 C1165 0.929 . S
H1156 C1160 0.929 . S
H1157 C1166 0.929 . S
C1158 H1152 0.930 . S
C1158 C1159 1.367 . S
C1158 C1166 1.378 . S
C1159 C1158 1.367 . S
C1159 C1167 1.433 . S
C1160 H1156 0.929 . S
C1160 C1162 1.378 . S
C1160 C1164 1.350 . S
C1161 C1164 1.463 . S
C1161 C1166 1.350 . S
C1161 N1169 1.427 . S
C1162 H1153 0.930 . S
C1162 C1160 1.378 . S
C1162 C1163 1.367 . S
C1163 C1162 1.367 . S
C1163 C1165 1.433 . S
C1164 C1160 1.350 . S
C1164 C1161 1.463 . S
C1164 N1168 1.427 . S
C1165 H1155 0.929 . S
C1165 C1163 1.433 . S
C1165 N1168 1.384 . S
C1166 H1157 0.929 . S
C1166 C1158 1.378 . S
C1166 C1161 1.350 . S
C1167 H1154 0.929 . S
C1167 C1159 1.433 . S
C1167 N1169 1.384 . S
N1168 C1164 1.427 . S
N1168 C1165 1.384 . S
N1169 C1161 1.427 . S
N1169 C1167 1.384 . S
H1170 C1176 0.930 . S
H1171 C1180 0.930 . S
H1172 C1185 0.929 . S
H1173 C1183 0.929 . S
H1174 C1178 0.929 . S
H1175 C1184 0.929 . S
C1176 H1170 0.930 . S
C1176 C1177 1.390 . S
C1176 C1184 1.378 . S
C1177 C1176 1.390 . S
C1177 C1185 1.410 1_545 S
C1178 H1174 0.929 . S
C1178 C1180 1.378 . S
C1178 C1182 1.367 . S
C1179 C1182 1.462 1_545 S
C1179 C1184 1.350 . S
C1179 N1187 1.427 1_545 S
C1180 H1171 0.930 . S
C1180 C1178 1.378 . S
C1180 C1181 1.364 . S
C1181 C1180 1.364 . S
C1181 C1183 1.436 1_565 S
C1182 C1178 1.367 . S
C1182 C1179 1.462 1_565 S
C1182 N1186 1.410 1_565 S
C1183 H1173 0.929 . S
C1183 C1181 1.436 1_545 S
C1183 N1186 1.384 . S
C1184 H1175 0.929 . S
C1184 C1176 1.378 . S
C1184 C1179 1.350 . S
C1185 H1172 0.929 . S
C1185 C1177 1.410 1_565 S
C1185 N1187 1.384 . S
N1186 C1182 1.410 1_545 S
N1186 C1183 1.384 . S
N1187 C1179 1.427 1_565 S
N1187 C1185 1.384 . S
H1188 C1194 0.930 . S
H1189 C1198 0.930 . S
H1190 C1203 0.929 . S
H1191 C1201 0.929 . S
H1192 C1196 0.929 . S
H1193 C1202 0.929 . S
C1194 H1188 0.930 . S
C1194 C1195 1.367 . S
C1194 C1202 1.378 . S
C1195 C1194 1.367 . S
C1195 C1203 1.433 1_545 S
C1196 H1192 0.929 . S
C1196 C1198 1.378 . S
C1196 C1200 1.350 1_565 S
C1197 C1200 1.463 . S
C1197 C1202 1.350 . S
C1197 N1205 1.427 1_545 S
C1198 H1189 0.930 . S
C1198 C1196 1.378 . S
C1198 C1199 1.367 1_565 S
C1199 C1198 1.367 1_545 S
C1199 C1201 1.433 . S
C1200 C1196 1.350 1_545 S
C1200 C1197 1.463 . S
C1200 N1204 1.427 . S
C1201 H1191 0.929 . S
C1201 C1199 1.433 . S
C1201 N1204 1.384 . S
C1202 H1193 0.929 . S
C1202 C1194 1.378 . S
C1202 C1197 1.350 . S
C1203 H1190 0.929 . S
C1203 C1195 1.433 1_565 S
C1203 N1205 1.384 . S
N1204 C1200 1.427 . S
N1204 C1201 1.384 . S
N1205 C1197 1.427 1_565 S
N1205 C1203 1.384 . S
H1206 C1212 0.930 . S
H1207 C1216 0.930 . S
H1208 C1221 0.929 1_655 S
H1209 C1219 0.929 . S
H1210 C1214 0.936 . S
H1211 C1220 0.929 . S
C1212 H1206 0.930 . S
C1212 C1213 1.367 . S
C1212 C1220 1.378 . S
C1213 C1212 1.367 . S
C1213 C1221 1.433 . S
C1214 H1210 0.936 . S
C1214 C1216 1.379 . S
C1214 C1218 1.342 1_655 S
C1215 C1218 1.463 . S
C1215 C1220 1.350 . S
C1215 N1223 1.427 . S
C1216 H1207 0.930 . S
C1216 C1214 1.379 . S
C1216 C1217 1.367 1_655 S
C1217 C1216 1.367 1_455 S
C1217 C1219 1.433 . S
C1218 C1214 1.342 1_455 S
C1218 C1215 1.463 . S
C1218 N1222 1.427 . S
C1219 H1209 0.929 . S
C1219 C1217 1.433 . S
C1219 N1222 1.384 . S
C1220 H1211 0.929 . S
C1220 C1212 1.378 . S
C1220 C1215 1.350 . S
C1221 H1208 0.929 1_455 S
C1221 C1213 1.433 . S
C1221 N1223 1.384 . S
N1222 C1218 1.427 . S
N1222 C1219 1.384 . S
N1223 C1215 1.427 . S
N1223 C1221 1.384 . S
H1224 C1230 0.930 . S
H1225 C1234 0.930 . S
H1226 C1239 0.929 . S
H1227 C1237 0.929 . S
H1228 C1232 0.929 . S
H1229 C1238 0.929 . S
C1230 H1224 0.930 . S
C1230 C1231 1.367 . S
C1230 C1238 1.378 . S
C1231 C1230 1.367 . S
C1231 C1239 1.433 1_545 S
C1232 H1228 0.929 . S
C1232 C1234 1.378 . S
C1232 C1236 1.331 1_565 S
C1233 C1236 1.464 . S
C1233 C1238 1.350 . S
C1233 N1241 1.427 1_545 S
C1234 H1225 0.930 . S
C1234 C1232 1.378 . S
C1234 C1235 1.345 1_565 S
C1235 C1234 1.345 1_545 S
C1235 C1237 1.456 . S
C1236 C1232 1.331 1_545 S
C1236 C1233 1.464 . S
C1236 N1240 1.446 . S
C1237 H1227 0.929 . S
C1237 C1235 1.456 . S
C1237 N1240 1.384 . S
C1238 H1229 0.929 . S
C1238 C1230 1.378 . S
C1238 C1233 1.350 . S
C1239 H1226 0.929 . S
C1239 C1231 1.433 1_565 S
C1239 N1241 1.384 . S
N1240 C1236 1.446 . S
N1240 C1237 1.384 . S
N1241 C1233 1.427 1_565 S
N1241 C1239 1.384 . S
H1242 C1248 0.930 . S
H1243 C1252 0.930 . S
H1244 C1257 0.929 . S
H1245 C1255 0.929 . S
H1246 C1250 0.929 . S
H1247 C1256 0.929 . S
C1248 H1242 0.930 . S
C1248 C1249 1.367 1_655 S
C1248 C1256 1.378 . S
C1249 C1248 1.367 1_455 S
C1249 C1257 1.433 . S
C1250 H1246 0.929 . S
C1250 C1252 1.378 . S
C1250 C1254 1.350 . S
C1251 C1254 1.463 . S
C1251 C1256 1.350 1_455 S
C1251 N1259 1.427 . S
C1252 H1243 0.930 . S
C1252 C1250 1.378 . S
C1252 C1253 1.367 . S
C1253 C1252 1.367 . S
C1253 C1255 1.433 1_455 S
C1254 C1250 1.350 . S
C1254 C1251 1.463 . S
C1254 N1258 1.427 1_455 S
C1255 H1245 0.929 . S
C1255 C1253 1.433 1_655 S
C1255 N1258 1.384 . S
C1256 H1247 0.929 . S
C1256 C1248 1.378 . S
C1256 C1251 1.350 1_655 S
C1257 H1244 0.929 . S
C1257 C1249 1.433 . S
C1257 N1259 1.384 . S
N1258 C1254 1.427 1_655 S
N1258 C1255 1.384 . S
N1259 C1251 1.427 . S
N1259 C1257 1.384 . S
H1260 C1266 0.930 . S
H1261 C1270 0.930 . S
H1262 C1275 0.929 . S
H1263 C1273 0.929 . S
H1264 C1268 0.929 . S
H1265 C1274 0.929 . S
C1266 H1260 0.930 . S
C1266 C1267 1.382 . S
C1266 C1274 1.378 . S
C1267 C1266 1.382 . S
C1267 C1275 1.418 1_565 S
C1268 H1264 0.929 . S
C1268 C1270 1.378 . S
C1268 C1272 1.350 . S
C1269 C1272 1.461 1_565 S
C1269 C1274 1.373 . S
C1269 N1277 1.404 1_565 S
C1270 H1261 0.930 . S
C1270 C1268 1.378 . S
C1270 C1271 1.367 . S
C1271 C1270 1.367 . S
C1271 C1273 1.433 1_545 S
C1272 C1268 1.350 . S
C1272 C1269 1.461 1_545 S
C1272 N1276 1.427 1_545 S
C1273 H1263 0.929 . S
C1273 C1271 1.433 1_565 S
C1273 N1276 1.384 . S
C1274 H1265 0.929 . S
C1274 C1266 1.378 . S
C1274 C1269 1.373 . S
C1275 H1262 0.929 . S
C1275 C1267 1.418 1_545 S
C1275 N1277 1.384 . S
N1276 C1272 1.427 1_565 S
N1276 C1273 1.384 . S
N1277 C1269 1.404 1_545 S
N1277 C1275 1.384 . S
H1278 C1284 0.930 . S
H1279 C1288 0.930 . S
H1280 C1293 0.929 . S
H1281 C1291 0.929 . S
H1282 C1286 0.929 . S
H1283 C1292 0.929 . S
C1284 H1278 0.930 . S
C1284 C1285 1.367 1_655 S
C1284 C1292 1.378 . S
C1285 C1284 1.367 1_455 S
C1285 C1293 1.433 . S
C1286 H1282 0.929 . S
C1286 C1288 1.378 . S
C1286 C1290 1.350 . S
C1287 C1290 1.463 . S
C1287 C1292 1.350 1_455 S
C1287 N1295 1.427 . S
C1288 H1279 0.930 . S
C1288 C1286 1.378 . S
C1288 C1289 1.367 . S
C1289 C1288 1.367 . S
C1289 C1291 1.433 1_455 S
C1290 C1286 1.350 . S
C1290 C1287 1.463 . S
C1290 N1294 1.427 1_455 S
C1291 H1281 0.929 . S
C1291 C1289 1.433 1_655 S
C1291 N1294 1.384 . S
C1292 H1283 0.929 . S
C1292 C1284 1.378 . S
C1292 C1287 1.350 1_655 S
C1293 H1280 0.929 . S
C1293 C1285 1.433 . S
C1293 N1295 1.384 . S
N1294 C1290 1.427 1_655 S
N1294 C1291 1.384 . S
N1295 C1287 1.427 . S
N1295 C1293 1.384 . S
H1296 C1302 0.930 . S
H1297 C1306 0.930 . S
H1298 C1311 0.929 . S
H1299 C1309 0.929 . S
H1300 C1304 0.929 . S
H1301 C1310 0.929 . S
C1302 H1296 0.930 . S
C1302 C1303 1.374 . S
C1302 C1310 1.378 . S
C1303 C1302 1.374 . S
C1303 C1311 1.426 1_565 S
C1304 H1300 0.929 . S
C1304 C1306 1.378 . S
C1304 C1308 1.368 . S
C1305 C1308 1.461 1_565 S
C1305 C1310 1.360 . S
C1305 N1313 1.417 1_565 S
C1306 H1297 0.930 . S
C1306 C1304 1.378 . S
C1306 C1307 1.382 . S
C1307 C1306 1.382 . S
C1307 C1309 1.418 1_545 S
C1308 C1304 1.368 . S
C1308 C1305 1.461 1_545 S
C1308 N1312 1.410 1_545 S
C1309 H1299 0.929 . S
C1309 C1307 1.418 1_565 S
C1309 N1312 1.384 . S
C1310 H1301 0.929 . S
C1310 C1302 1.378 . S
C1310 C1305 1.360 . S
C1311 H1298 0.929 . S
C1311 C1303 1.426 1_545 S
C1311 N1313 1.384 . S
N1312 C1308 1.410 1_565 S
N1312 C1309 1.384 . S
N1313 C1305 1.417 1_545 S
N1313 C1311 1.384 . S
H1314 C1320 0.930 . S
H1315 C1324 0.930 . S
H1316 C1329 0.929 . S
H1317 C1327 0.929 . S
H1318 C1322 0.929 . S
H1319 C1328 0.929 . S
C1320 H1314 0.930 . S
C1320 C1321 1.367 . S
C1320 C1328 1.378 . S
C1321 C1320 1.367 . S
C1321 C1329 1.433 1_455 S
C1322 H1318 0.929 . S
C1322 C1324 1.378 . S
C1322 C1326 1.350 1_655 S
C1323 C1326 1.463 . S
C1323 C1328 1.350 . S
C1323 N1331 1.427 1_455 S
C1324 H1315 0.930 . S
C1324 C1322 1.378 . S
C1324 C1325 1.367 1_655 S
C1325 C1324 1.367 1_455 S
C1325 C1327 1.433 . S
C1326 C1322 1.350 1_455 S
C1326 C1323 1.463 . S
C1326 N1330 1.427 . S
C1327 H1317 0.929 . S
C1327 C1325 1.433 . S
C1327 N1330 1.384 . S
C1328 H1319 0.929 . S
C1328 C1320 1.378 . S
C1328 C1323 1.350 . S
C1329 H1316 0.929 . S
C1329 C1321 1.433 1_655 S
C1329 N1331 1.384 . S
N1330 C1326 1.427 . S
N1330 C1327 1.384 . S
N1331 C1323 1.427 1_655 S
N1331 C1329 1.384 . S
H1332 C1338 0.930 . S
H1333 C1342 0.930 . S
H1334 C1347 0.929 . S
H1335 C1345 0.929 . S
H1336 C1340 0.929 . S
H1337 C1346 0.929 . S
C1338 H1332 0.930 . S
C1338 C1339 1.377 . S
C1338 C1346 1.378 . S
C1339 C1338 1.377 . S
C1339 C1347 1.423 1_554 S
C1340 H1336 0.929 . S
C1340 C1342 1.378 . S
C1340 C1344 1.354 . S
C1341 C1344 1.462 1_554 S
C1341 C1346 1.370 . S
C1341 N1349 1.407 1_554 S
C1342 H1333 0.930 . S
C1342 C1340 1.378 . S
C1342 C1343 1.366 1_556 S
C1343 C1342 1.366 1_554 S
C1343 C1345 1.434 . S
C1344 C1340 1.354 . S
C1344 C1341 1.462 1_556 S
C1344 N1348 1.423 1_556 S
C1345 H1335 0.929 . S
C1345 C1343 1.434 . S
C1345 N1348 1.384 . S
C1346 H1337 0.929 . S
C1346 C1338 1.378 . S
C1346 C1341 1.370 . S
C1347 H1334 0.929 . S
C1347 C1339 1.423 1_556 S
C1347 N1349 1.384 . S
N1348 C1344 1.423 1_554 S
N1348 C1345 1.384 . S
N1349 C1341 1.407 1_556 S
N1349 C1347 1.384 . S
H1350 C1356 0.930 . S
H1351 C1360 0.930 . S
H1352 C1365 0.929 . S
H1353 C1363 0.929 . S
H1354 C1358 0.929 . S
H1355 C1364 0.929 . S
C1356 H1350 0.930 . S
C1356 C1357 1.367 . S
C1356 C1364 1.378 . S
C1357 C1356 1.367 . S
C1357 C1365 1.433 1_554 S
C1358 H1354 0.929 . S
C1358 C1360 1.378 . S
C1358 C1362 1.338 1_556 S
C1359 C1362 1.464 . S
C1359 C1364 1.350 . S
C1359 N1367 1.427 1_554 S
C1360 H1351 0.930 . S
C1360 C1358 1.378 . S
C1360 C1361 1.356 1_556 S
C1361 C1360 1.356 1_554 S
C1361 C1363 1.445 . S
C1362 C1358 1.338 1_554 S
C1362 C1359 1.464 . S
C1362 N1366 1.440 . S
C1363 H1353 0.929 . S
C1363 C1361 1.445 . S
C1363 N1366 1.384 . S
C1364 H1355 0.929 . S
C1364 C1356 1.378 . S
C1364 C1359 1.350 . S
C1365 H1352 0.929 . S
C1365 C1357 1.433 1_556 S
C1365 N1367 1.384 . S
N1366 C1362 1.440 . S
N1366 C1363 1.384 . S
N1367 C1359 1.427 1_556 S
N1367 C1365 1.384 . S
H1368 C1374 0.930 . S
H1369 C1378 0.930 . S
H1370 C1383 0.929 . S
H1371 C1381 0.929 . S
H1372 C1376 0.929 . S
H1373 C1382 0.929 . S
C1374 H1368 0.930 . S
C1374 C1375 1.388 . S
C1374 C1382 1.378 . S
C1375 C1374 1.388 . S
C1375 C1383 1.412 1_554 S
C1376 H1372 0.929 . S
C1376 C1378 1.378 . S
C1376 C1380 1.375 . S
C1377 C1380 1.461 1_554 S
C1377 C1382 1.350 . S
C1377 N1385 1.427 1_554 S
C1378 H1369 0.930 . S
C1378 C1376 1.378 . S
C1378 C1379 1.377 . S
C1379 C1378 1.377 . S
C1379 C1381 1.422 1_556 S
C1380 C1376 1.375 . S
C1380 C1377 1.461 1_556 S
C1380 N1384 1.402 1_556 S
C1381 H1371 0.929 . S
C1381 C1379 1.422 1_554 S
C1381 N1384 1.384 . S
C1382 H1373 0.929 . S
C1382 C1374 1.378 . S
C1382 C1377 1.350 . S
C1383 H1370 0.929 . S
C1383 C1375 1.412 1_556 S
C1383 N1385 1.384 . S
N1384 C1380 1.402 1_554 S
N1384 C1381 1.384 . S
N1385 C1377 1.427 1_556 S
N1385 C1383 1.384 . S
H1386 C1392 0.930 . S
H1387 C1396 0.930 . S
H1388 C1401 0.929 . S
H1389 C1399 0.929 . S
H1390 C1394 0.929 . S
H1391 C1400 0.929 . S
C1392 H1386 0.930 . S
C1392 C1393 1.367 . S
C1392 C1400 1.378 . S
C1393 C1392 1.367 . S
C1393 C1401 1.433 1_554 S
C1394 H1390 0.929 . S
C1394 C1396 1.378 . S
C1394 C1398 1.349 1_556 S
C1395 C1398 1.462 . S
C1395 C1400 1.351 . S
C1395 N1403 1.426 1_554 S
C1396 H1387 0.930 . S
C1396 C1394 1.378 . S
C1396 C1397 1.365 1_556 S
C1397 C1396 1.365 1_554 S
C1397 C1399 1.435 . S
C1398 C1394 1.349 1_554 S
C1398 C1395 1.462 . S
C1398 N1402 1.428 . S
C1399 H1389 0.929 . S
C1399 C1397 1.435 . S
C1399 N1402 1.384 . S
C1400 H1391 0.929 . S
C1400 C1392 1.378 . S
C1400 C1395 1.351 . S
C1401 H1388 0.929 . S
C1401 C1393 1.433 1_556 S
C1401 N1403 1.384 . S
N1402 C1398 1.428 . S
N1402 C1399 1.384 . S
N1403 C1395 1.426 1_556 S
N1403 C1401 1.384 . S
H1404 C1410 0.930 . S
H1405 C1414 0.930 . S
H1406 C1419 0.929 . S
H1407 C1417 0.929 . S
H1408 C1412 0.929 . S
H1409 C1418 0.929 . S
C1410 H1404 0.930 . S
C1410 C1411 1.336 1_556 S
C1410 C1418 1.378 . S
C1411 C1410 1.336 1_554 S
C1411 C1419 1.465 . S
C1412 H1408 0.929 . S
C1412 C1414 1.378 . S
C1412 C1416 1.350 . S
C1413 C1416 1.464 . S
C1413 C1418 1.333 1_554 S
C1413 N1421 1.445 . S
C1414 H1405 0.930 . S
C1414 C1412 1.378 . S
C1414 C1415 1.367 . S
C1415 C1414 1.367 . S
C1415 C1417 1.433 1_554 S
C1416 C1412 1.350 . S
C1416 C1413 1.464 . S
C1416 N1420 1.427 1_554 S
C1417 H1407 0.929 . S
C1417 C1415 1.433 1_556 S
C1417 N1420 1.384 . S
C1418 H1409 0.929 . S
C1418 C1410 1.378 . S
C1418 C1413 1.333 1_556 S
C1419 H1406 0.929 . S
C1419 C1411 1.465 . S
C1419 N1421 1.384 . S
N1420 C1416 1.427 1_556 S
N1420 C1417 1.384 . S
N1421 C1413 1.445 . S
N1421 C1419 1.384 . S
H1422 C1428 0.930 . S
H1423 C1432 0.930 . S
H1424 C1437 0.929 . S
H1425 C1435 0.929 . S
H1426 C1430 0.929 . S
H1427 C1436 0.929 . S
C1428 H1422 0.930 . S
C1428 C1429 1.367 . S
C1428 C1436 1.378 . S
C1429 C1428 1.367 . S
C1429 C1437 1.433 1_554 S
C1430 H1426 0.929 . S
C1430 C1432 1.378 . S
C1430 C1434 1.341 1_556 S
C1431 C1434 1.463 . S
C1431 C1436 1.350 . S
C1431 N1439 1.427 1_554 S
C1432 H1423 0.930 . S
C1432 C1430 1.378 . S
C1432 C1433 1.355 1_556 S
C1433 C1432 1.355 1_554 S
C1433 C1435 1.445 . S
C1434 C1430 1.341 1_554 S
C1434 C1431 1.463 . S
C1434 N1438 1.436 . S
C1435 H1425 0.929 . S
C1435 C1433 1.445 . S
C1435 N1438 1.384 . S
C1436 H1427 0.929 . S
C1436 C1428 1.378 . S
C1436 C1431 1.350 . S
C1437 H1424 0.929 . S
C1437 C1429 1.433 1_556 S
C1437 N1439 1.384 . S
N1438 C1434 1.436 . S
N1438 C1435 1.384 . S
N1439 C1431 1.427 1_556 S
N1439 C1437 1.384 . S
H1440 C1446 0.930 . S
H1441 C1450 0.930 . S
H1442 C1455 0.929 . S
H1443 C1453 0.929 . S
H1444 C1448 0.929 . S
H1445 C1454 0.929 . S
C1446 H1440 0.930 . S
C1446 C1447 1.336 1_556 S
C1446 C1454 1.378 . S
C1447 C1446 1.336 1_554 S
C1447 C1455 1.464 . S
C1448 H1444 0.929 . S
C1448 C1450 1.378 . S
C1448 C1452 1.350 . S
C1449 C1452 1.464 . S
C1449 C1454 1.333 1_554 S
C1449 N1457 1.445 . S
C1450 H1441 0.930 . S
C1450 C1448 1.378 . S
C1450 C1451 1.367 . S
C1451 C1450 1.367 . S
C1451 C1453 1.433 1_554 S
C1452 C1448 1.350 . S
C1452 C1449 1.464 . S
C1452 N1456 1.427 1_554 S
C1453 H1443 0.929 . S
C1453 C1451 1.433 1_556 S
C1453 N1456 1.384 . S
C1454 H1445 0.929 . S
C1454 C1446 1.378 . S
C1454 C1449 1.333 1_556 S
C1455 H1442 0.929 . S
C1455 C1447 1.464 . S
C1455 N1457 1.384 . S
N1456 C1452 1.427 1_556 S
N1456 C1453 1.384 . S
N1457 C1449 1.445 . S
N1457 C1455 1.384 . S
H1458 C1464 0.930 . S
H1459 C1468 0.930 . S
H1460 C1473 0.929 . S
H1461 C1471 0.929 . S
H1462 C1466 0.929 . S
H1463 C1472 0.929 . S
C1464 H1458 0.930 . S
C1464 C1465 1.386 . S
C1464 C1472 1.378 . S
C1465 C1464 1.386 . S
C1465 C1473 1.413 1_554 S
C1466 H1462 0.929 . S
C1466 C1468 1.378 . S
C1466 C1470 1.373 . S
C1467 C1470 1.461 1_554 S
C1467 C1472 1.350 . S
C1467 N1475 1.427 1_554 S
C1468 H1459 0.930 . S
C1468 C1466 1.378 . S
C1468 C1469 1.376 . S
C1469 C1468 1.376 . S
C1469 C1471 1.424 1_556 S
C1470 C1466 1.373 . S
C1470 C1467 1.461 1_556 S
C1470 N1474 1.404 1_556 S
C1471 H1461 0.929 . S
C1471 C1469 1.424 1_554 S
C1471 N1474 1.384 . S
C1472 H1463 0.929 . S
C1472 C1464 1.378 . S
C1472 C1467 1.350 . S
C1473 H1460 0.929 . S
C1473 C1465 1.413 1_556 S
C1473 N1475 1.384 . S
N1474 C1470 1.404 1_554 S
N1474 C1471 1.384 . S
N1475 C1467 1.427 1_556 S
N1475 C1473 1.384 . S
H1476 C1482 0.930 . S
H1477 C1486 0.930 . S
H1478 C1491 0.929 . S
H1479 C1489 0.929 . S
H1480 C1484 0.929 . S
H1481 C1490 0.929 . S
C1482 H1476 0.930 . S
C1482 C1483 1.367 . S
C1482 C1490 1.378 . S
C1483 C1482 1.367 . S
C1483 C1491 1.433 . S
C1484 H1480 0.929 . S
C1484 C1486 1.378 . S
C1484 C1488 1.350 . S
C1485 C1488 1.463 . S
C1485 C1490 1.350 . S
C1485 N1493 1.427 . S
C1486 H1477 0.930 . S
C1486 C1484 1.378 . S
C1486 C1487 1.367 . S
C1487 C1486 1.367 . S
C1487 C1489 1.433 . S
C1488 C1484 1.350 . S
C1488 C1485 1.463 . S
C1488 N1492 1.427 . S
C1489 H1479 0.929 . S
C1489 C1487 1.433 . S
C1489 N1492 1.384 . S
C1490 H1481 0.929 . S
C1490 C1482 1.378 . S
C1490 C1485 1.350 . S
C1491 H1478 0.929 . S
C1491 C1483 1.433 . S
C1491 N1493 1.384 . S
N1492 C1488 1.427 . S
N1492 C1489 1.384 . S
N1493 C1485 1.427 . S
N1493 C1491 1.384 . S
H1494 C1500 0.930 . S
H1495 C1504 0.930 . S
H1496 C1509 0.929 . S
H1497 C1507 0.929 . S
H1498 C1502 0.929 . S
H1499 C1508 0.929 . S
C1500 H1494 0.930 . S
C1500 C1501 1.367 . S
C1500 C1508 1.378 . S
C1501 C1500 1.367 . S
C1501 C1509 1.433 . S
C1502 H1498 0.929 . S
C1502 C1504 1.378 . S
C1502 C1506 1.350 . S
C1503 C1506 1.463 . S
C1503 C1508 1.350 . S
C1503 N1511 1.427 . S
C1504 H1495 0.930 . S
C1504 C1502 1.378 . S
C1504 C1505 1.367 . S
C1505 C1504 1.367 . S
C1505 C1507 1.433 . S
C1506 C1502 1.350 . S
C1506 C1503 1.463 . S
C1506 N1510 1.427 . S
C1507 H1497 0.929 . S
C1507 C1505 1.433 . S
C1507 N1510 1.384 . S
C1508 H1499 0.929 . S
C1508 C1500 1.378 . S
C1508 C1503 1.350 . S
C1509 H1496 0.929 . S
C1509 C1501 1.433 . S
C1509 N1511 1.384 . S
N1510 C1506 1.427 . S
N1510 C1507 1.384 . S
N1511 C1503 1.427 . S
N1511 C1509 1.384 . S
H1512 C1518 0.930 . S
H1513 C1522 0.930 . S
H1514 C1527 0.929 . S
H1515 C1525 0.929 . S
H1516 C1520 0.929 . S
H1517 C1526 0.929 . S
C1518 H1512 0.930 . S
C1518 C1519 1.367 . S
C1518 C1526 1.378 . S
C1519 C1518 1.367 . S
C1519 C1527 1.433 . S
C1520 H1516 0.929 . S
C1520 C1522 1.378 . S
C1520 C1524 1.350 . S
C1521 C1524 1.463 . S
C1521 C1526 1.350 . S
C1521 N1529 1.427 . S
C1522 H1513 0.930 . S
C1522 C1520 1.378 . S
C1522 C1523 1.367 . S
C1523 C1522 1.367 . S
C1523 C1525 1.433 . S
C1524 C1520 1.350 . S
C1524 C1521 1.463 . S
C1524 N1528 1.427 . S
C1525 H1515 0.929 . S
C1525 C1523 1.433 . S
C1525 N1528 1.384 . S
C1526 H1517 0.929 . S
C1526 C1518 1.378 . S
C1526 C1521 1.350 . S
C1527 H1514 0.929 . S
C1527 C1519 1.433 . S
C1527 N1529 1.384 . S
N1528 C1524 1.427 . S
N1528 C1525 1.384 . S
N1529 C1521 1.427 . S
N1529 C1527 1.384 . S
H1530 C1536 0.930 . S
H1531 C1540 0.930 . S
H1532 C1545 0.929 . S
H1533 C1543 0.929 . S
H1534 C1538 0.929 . S
H1535 C1544 0.929 . S
C1536 H1530 0.930 . S
C1536 C1537 1.367 . S
C1536 C1544 1.378 . S
C1537 C1536 1.367 . S
C1537 C1545 1.433 . S
C1538 H1534 0.929 . S
C1538 C1540 1.378 . S
C1538 C1542 1.350 . S
C1539 C1542 1.463 . S
C1539 C1544 1.350 . S
C1539 N1547 1.427 . S
C1540 H1531 0.930 . S
C1540 C1538 1.378 . S
C1540 C1541 1.367 . S
C1541 C1540 1.367 . S
C1541 C1543 1.433 . S
C1542 C1538 1.350 . S
C1542 C1539 1.463 . S
C1542 N1546 1.427 . S
C1543 H1533 0.929 . S
C1543 C1541 1.433 . S
C1543 N1546 1.384 . S
C1544 H1535 0.929 . S
C1544 C1536 1.378 . S
C1544 C1539 1.350 . S
C1545 H1532 0.929 . S
C1545 C1537 1.433 . S
C1545 N1547 1.384 . S
N1546 C1542 1.427 . S
N1546 C1543 1.384 . S
N1547 C1539 1.427 . S
N1547 C1545 1.384 . S
H1548 C1554 0.930 . S
H1549 C1558 0.930 . S
H1550 C1563 0.929 . S
H1551 C1561 0.929 . S
H1552 C1556 0.929 . S
H1553 C1562 0.929 . S
C1554 H1548 0.930 . S
C1554 C1555 1.367 . S
C1554 C1562 1.378 . S
C1555 C1554 1.367 . S
C1555 C1563 1.433 . S
C1556 H1552 0.929 . S
C1556 C1558 1.378 . S
C1556 C1560 1.350 . S
C1557 C1560 1.463 . S
C1557 C1562 1.350 . S
C1557 N1565 1.427 . S
C1558 H1549 0.930 . S
C1558 C1556 1.378 . S
C1558 C1559 1.367 . S
C1559 C1558 1.367 . S
C1559 C1561 1.433 . S
C1560 C1556 1.350 . S
C1560 C1557 1.463 . S
C1560 N1564 1.427 . S
C1561 H1551 0.929 . S
C1561 C1559 1.433 . S
C1561 N1564 1.384 . S
C1562 H1553 0.929 . S
C1562 C1554 1.378 . S
C1562 C1557 1.350 . S
C1563 H1550 0.929 . S
C1563 C1555 1.433 . S
C1563 N1565 1.384 . S
N1564 C1560 1.427 . S
N1564 C1561 1.384 . S
N1565 C1557 1.427 . S
N1565 C1563 1.384 . S
H1566 C1572 0.930 . S
H1567 C1576 0.930 . S
H1568 C1581 0.929 . S
H1569 C1579 0.929 . S
H1570 C1574 0.929 . S
H1571 C1580 0.929 . S
C1572 H1566 0.930 . S
C1572 C1573 1.367 . S
C1572 C1580 1.378 . S
C1573 C1572 1.367 . S
C1573 C1581 1.433 . S
C1574 H1570 0.929 . S
C1574 C1576 1.378 . S
C1574 C1578 1.350 . S
C1575 C1578 1.463 . S
C1575 C1580 1.350 . S
C1575 N1583 1.427 . S
C1576 H1567 0.930 . S
C1576 C1574 1.378 . S
C1576 C1577 1.367 . S
C1577 C1576 1.367 . S
C1577 C1579 1.433 . S
C1578 C1574 1.350 . S
C1578 C1575 1.463 . S
C1578 N1582 1.427 . S
C1579 H1569 0.929 . S
C1579 C1577 1.433 . S
C1579 N1582 1.384 . S
C1580 H1571 0.929 . S
C1580 C1572 1.378 . S
C1580 C1575 1.350 . S
C1581 H1568 0.929 . S
C1581 C1573 1.433 . S
C1581 N1583 1.384 . S
N1582 C1578 1.427 . S
N1582 C1579 1.384 . S
N1583 C1575 1.427 . S
N1583 C1581 1.384 . S
H1584 C1590 0.930 . S
H1585 C1594 0.930 . S
H1586 C1599 0.929 . S
H1587 C1597 0.929 . S
H1588 C1592 0.929 . S
H1589 C1598 0.929 . S
C1590 H1584 0.930 . S
C1590 C1591 1.367 . S
C1590 C1598 1.378 . S
C1591 C1590 1.367 . S
C1591 C1599 1.433 . S
C1592 H1588 0.929 . S
C1592 C1594 1.378 . S
C1592 C1596 1.350 . S
C1593 C1596 1.463 . S
C1593 C1598 1.350 . S
C1593 N1601 1.427 . S
C1594 H1585 0.930 . S
C1594 C1592 1.378 . S
C1594 C1595 1.367 . S
C1595 C1594 1.367 . S
C1595 C1597 1.433 . S
C1596 C1592 1.350 . S
C1596 C1593 1.463 . S
C1596 N1600 1.427 . S
C1597 H1587 0.929 . S
C1597 C1595 1.433 . S
C1597 N1600 1.384 . S
C1598 H1589 0.929 . S
C1598 C1590 1.378 . S
C1598 C1593 1.350 . S
C1599 H1586 0.929 . S
C1599 C1591 1.433 . S
C1599 N1601 1.384 . S
N1600 C1596 1.427 . S
N1600 C1597 1.384 . S
N1601 C1593 1.427 . S
N1601 C1599 1.384 . S
H1602 C1608 0.930 . S
H1603 C1612 0.930 . S
H1604 C1617 0.929 . S
H1605 C1615 0.929 . S
H1606 C1610 0.929 . S
H1607 C1616 0.929 . S
C1608 H1602 0.930 . S
C1608 C1609 1.367 . S
C1608 C1616 1.378 . S
C1609 C1608 1.367 . S
C1609 C1617 1.433 . S
C1610 H1606 0.929 . S
C1610 C1612 1.378 . S
C1610 C1614 1.350 . S
C1611 C1614 1.463 . S
C1611 C1616 1.350 . S
C1611 N1619 1.427 . S
C1612 H1603 0.930 . S
C1612 C1610 1.378 . S
C1612 C1613 1.367 . S
C1613 C1612 1.367 . S
C1613 C1615 1.433 . S
C1614 C1610 1.350 . S
C1614 C1611 1.463 . S
C1614 N1618 1.427 . S
C1615 H1605 0.929 . S
C1615 C1613 1.433 . S
C1615 N1618 1.384 . S
C1616 H1607 0.929 . S
C1616 C1608 1.378 . S
C1616 C1611 1.350 . S
C1617 H1604 0.929 . S
C1617 C1609 1.433 . S
C1617 N1619 1.384 . S
N1618 C1614 1.427 . S
N1618 C1615 1.384 . S
N1619 C1611 1.427 . S
N1619 C1617 1.384 . S
H1620 C1626 0.930 . S
H1621 C1630 0.930 . S
H1622 C1635 0.929 . S
H1623 C1633 0.929 . S
H1624 C1628 0.929 . S
H1625 C1634 0.929 . S
C1626 H1620 0.930 . S
C1626 C1627 1.367 . S
C1626 C1634 1.378 . S
C1627 C1626 1.367 . S
C1627 C1635 1.433 . S
C1628 H1624 0.929 . S
C1628 C1630 1.378 . S
C1628 C1632 1.350 . S
C1629 C1632 1.463 . S
C1629 C1634 1.350 . S
C1629 N1637 1.427 . S
C1630 H1621 0.930 . S
C1630 C1628 1.378 . S
C1630 C1631 1.367 . S
C1631 C1630 1.367 . S
C1631 C1633 1.433 . S
C1632 C1628 1.350 . S
C1632 C1629 1.463 . S
C1632 N1636 1.427 . S
C1633 H1623 0.929 . S
C1633 C1631 1.433 . S
C1633 N1636 1.384 . S
C1634 H1625 0.929 . S
C1634 C1626 1.378 . S
C1634 C1629 1.350 . S
C1635 H1622 0.929 . S
C1635 C1627 1.433 . S
C1635 N1637 1.384 . S
N1636 C1632 1.427 . S
N1636 C1633 1.384 . S
N1637 C1629 1.427 . S
N1637 C1635 1.384 . S
H1638 C1644 0.930 . S
H1639 C1648 0.930 . S
H1640 C1653 0.929 . S
H1641 C1651 0.929 . S
H1642 C1646 0.929 . S
H1643 C1652 0.929 . S
C1644 H1638 0.930 . S
C1644 C1645 1.367 . S
C1644 C1652 1.378 . S
C1645 C1644 1.367 . S
C1645 C1653 1.433 . S
C1646 H1642 0.929 . S
C1646 C1648 1.378 . S
C1646 C1650 1.350 . S
C1647 C1650 1.463 . S
C1647 C1652 1.350 . S
C1647 N1655 1.427 . S
C1648 H1639 0.930 . S
C1648 C1646 1.378 . S
C1648 C1649 1.367 . S
C1649 C1648 1.367 . S
C1649 C1651 1.433 . S
C1650 C1646 1.350 . S
C1650 C1647 1.463 . S
C1650 N1654 1.427 . S
C1651 H1641 0.929 . S
C1651 C1649 1.433 . S
C1651 N1654 1.384 . S
C1652 H1643 0.929 . S
C1652 C1644 1.378 . S
C1652 C1647 1.350 . S
C1653 H1640 0.929 . S
C1653 C1645 1.433 . S
C1653 N1655 1.384 . S
N1654 C1650 1.427 . S
N1654 C1651 1.384 . S
N1655 C1647 1.427 . S
N1655 C1653 1.384 . S
H1656 C1662 0.930 . S
H1657 C1666 0.930 . S
H1658 C1671 0.929 . S
H1659 C1669 0.929 . S
H1660 C1664 0.929 . S
H1661 C1670 0.929 . S
C1662 H1656 0.930 . S
C1662 C1663 1.367 . S
C1662 C1670 1.378 . S
C1663 C1662 1.367 . S
C1663 C1671 1.433 . S
C1664 H1660 0.929 . S
C1664 C1666 1.378 . S
C1664 C1668 1.350 . S
C1665 C1668 1.463 . S
C1665 C1670 1.350 . S
C1665 N1673 1.427 . S
C1666 H1657 0.930 . S
C1666 C1664 1.378 . S
C1666 C1667 1.367 . S
C1667 C1666 1.367 . S
C1667 C1669 1.433 . S
C1668 C1664 1.350 . S
C1668 C1665 1.463 . S
C1668 N1672 1.427 . S
C1669 H1659 0.929 . S
C1669 C1667 1.433 . S
C1669 N1672 1.384 . S
C1670 H1661 0.929 . S
C1670 C1662 1.378 . S
C1670 C1665 1.350 . S
C1671 H1658 0.929 . S
C1671 C1663 1.433 . S
C1671 N1673 1.384 . S
N1672 C1668 1.427 . S
N1672 C1669 1.384 . S
N1673 C1665 1.427 . S
N1673 C1671 1.384 . S
H1674 C1680 0.930 . S
H1675 C1684 0.930 . S
H1676 C1689 0.929 . S
H1677 C1687 0.929 . S
H1678 C1682 0.929 . S
H1679 C1688 0.929 . S
C1680 H1674 0.930 . S
C1680 C1681 1.367 . S
C1680 C1688 1.378 . S
C1681 C1680 1.367 . S
C1681 C1689 1.433 . S
C1682 H1678 0.929 . S
C1682 C1684 1.378 . S
C1682 C1686 1.350 . S
C1683 C1686 1.463 . S
C1683 C1688 1.350 . S
C1683 N1691 1.427 . S
C1684 H1675 0.930 . S
C1684 C1682 1.378 . S
C1684 C1685 1.367 . S
C1685 C1684 1.367 . S
C1685 C1687 1.433 . S
C1686 C1682 1.350 . S
C1686 C1683 1.463 . S
C1686 N1690 1.427 . S
C1687 H1677 0.929 . S
C1687 C1685 1.433 . S
C1687 N1690 1.384 . S
C1688 H1679 0.929 . S
C1688 C1680 1.378 . S
C1688 C1683 1.350 . S
C1689 H1676 0.929 . S
C1689 C1681 1.433 . S
C1689 N1691 1.384 . S
N1690 C1686 1.427 . S
N1690 C1687 1.384 . S
N1691 C1683 1.427 . S
N1691 C1689 1.384 . S
H1692 C1698 0.930 . S
H1693 C1702 0.930 . S
H1694 C1707 0.929 . S
H1695 C1705 0.929 . S
H1696 C1700 0.929 . S
H1697 C1706 0.929 . S
C1698 H1692 0.930 . S
C1698 C1699 1.367 . S
C1698 C1706 1.378 . S
C1699 C1698 1.367 . S
C1699 C1707 1.433 . S
C1700 H1696 0.929 . S
C1700 C1702 1.378 . S
C1700 C1704 1.350 . S
C1701 C1704 1.463 . S
C1701 C1706 1.350 . S
C1701 N1709 1.427 . S
C1702 H1693 0.930 . S
C1702 C1700 1.378 . S
C1702 C1703 1.367 . S
C1703 C1702 1.367 . S
C1703 C1705 1.433 . S
C1704 C1700 1.350 . S
C1704 C1701 1.463 . S
C1704 N1708 1.427 . S
C1705 H1695 0.929 . S
C1705 C1703 1.433 . S
C1705 N1708 1.384 . S
C1706 H1697 0.929 . S
C1706 C1698 1.378 . S
C1706 C1701 1.350 . S
C1707 H1694 0.929 . S
C1707 C1699 1.433 . S
C1707 N1709 1.384 . S
N1708 C1704 1.427 . S
N1708 C1705 1.384 . S
N1709 C1701 1.427 . S
N1709 C1707 1.384 . S
H1710 C1716 0.930 . S
H1711 C1720 0.930 . S
H1712 C1725 0.929 . S
H1713 C1723 0.929 . S
H1714 C1718 0.929 . S
H1715 C1724 0.929 . S
C1716 H1710 0.930 . S
C1716 C1717 1.367 . S
C1716 C1724 1.378 . S
C1717 C1716 1.367 . S
C1717 C1725 1.433 . S
C1718 H1714 0.929 . S
C1718 C1720 1.378 . S
C1718 C1722 1.350 . S
C1719 C1722 1.463 . S
C1719 C1724 1.350 . S
C1719 N1727 1.427 . S
C1720 H1711 0.930 . S
C1720 C1718 1.378 . S
C1720 C1721 1.367 . S
C1721 C1720 1.367 . S
C1721 C1723 1.433 . S
C1722 C1718 1.350 . S
C1722 C1719 1.463 . S
C1722 N1726 1.427 . S
C1723 H1713 0.929 . S
C1723 C1721 1.433 . S
C1723 N1726 1.384 . S
C1724 H1715 0.929 . S
C1724 C1716 1.378 . S
C1724 C1719 1.350 . S
C1725 H1712 0.929 . S
C1725 C1717 1.433 . S
C1725 N1727 1.384 . S
N1726 C1722 1.427 . S
N1726 C1723 1.384 . S
N1727 C1719 1.427 . S
N1727 C1725 1.384 . S
H1728 C1734 0.930 . S
H1729 C1738 0.930 . S
H1730 C1743 0.929 . S
H1731 C1741 0.929 . S
H1732 C1736 0.929 . S
H1733 C1742 0.929 . S
C1734 H1728 0.930 . S
C1734 C1735 1.367 . S
C1734 C1742 1.378 . S
C1735 C1734 1.367 . S
C1735 C1743 1.433 . S
C1736 H1732 0.929 . S
C1736 C1738 1.378 . S
C1736 C1740 1.350 . S
C1737 C1740 1.463 . S
C1737 C1742 1.350 . S
C1737 N1745 1.427 . S
C1738 H1729 0.930 . S
C1738 C1736 1.378 . S
C1738 C1739 1.367 . S
C1739 C1738 1.367 . S
C1739 C1741 1.433 . S
C1740 C1736 1.350 . S
C1740 C1737 1.463 . S
C1740 N1744 1.427 . S
C1741 H1731 0.929 . S
C1741 C1739 1.433 . S
C1741 N1744 1.384 . S
C1742 H1733 0.929 . S
C1742 C1734 1.378 . S
C1742 C1737 1.350 . S
C1743 H1730 0.929 . S
C1743 C1735 1.433 . S
C1743 N1745 1.384 . S
N1744 C1740 1.427 . S
N1744 C1741 1.384 . S
N1745 C1737 1.427 . S
N1745 C1743 1.384 . S
H1746 C1752 0.930 . S
H1747 C1756 0.930 . S
H1748 C1761 0.929 . S
H1749 C1759 0.929 . S
H1750 C1754 0.929 . S
H1751 C1760 0.929 . S
C1752 H1746 0.930 . S
C1752 C1753 1.367 . S
C1752 C1760 1.378 . S
C1753 C1752 1.367 . S
C1753 C1761 1.433 . S
C1754 H1750 0.929 . S
C1754 C1756 1.378 . S
C1754 C1758 1.350 . S
C1755 C1758 1.463 . S
C1755 C1760 1.350 . S
C1755 N1763 1.427 . S
C1756 H1747 0.930 . S
C1756 C1754 1.378 . S
C1756 C1757 1.367 . S
C1757 C1756 1.367 . S
C1757 C1759 1.433 . S
C1758 C1754 1.350 . S
C1758 C1755 1.463 . S
C1758 N1762 1.427 . S
C1759 H1749 0.929 . S
C1759 C1757 1.433 . S
C1759 N1762 1.384 . S
C1760 H1751 0.929 . S
C1760 C1752 1.378 . S
C1760 C1755 1.350 . S
C1761 H1748 0.929 . S
C1761 C1753 1.433 . S
C1761 N1763 1.384 . S
N1762 C1758 1.427 . S
N1762 C1759 1.384 . S
N1763 C1755 1.427 . S
N1763 C1761 1.384 . S
H1764 C1770 0.930 . S
H1765 C1774 0.930 . S
H1766 C1779 0.929 . S
H1767 C1777 0.929 . S
H1768 C1772 0.929 . S
H1769 C1778 0.929 . S
C1770 H1764 0.930 . S
C1770 C1771 1.367 . S
C1770 C1778 1.378 . S
C1771 C1770 1.367 . S
C1771 C1779 1.433 . S
C1772 H1768 0.929 . S
C1772 C1774 1.378 . S
C1772 C1776 1.350 . S
C1773 C1776 1.463 . S
C1773 C1778 1.350 . S
C1773 N1781 1.427 . S
C1774 H1765 0.930 . S
C1774 C1772 1.378 . S
C1774 C1775 1.367 . S
C1775 C1774 1.367 . S
C1775 C1777 1.433 . S
C1776 C1772 1.350 . S
C1776 C1773 1.463 . S
C1776 N1780 1.427 . S
C1777 H1767 0.929 . S
C1777 C1775 1.433 . S
C1777 N1780 1.384 . S
C1778 H1769 0.929 . S
C1778 C1770 1.378 . S
C1778 C1773 1.350 . S
C1779 H1766 0.929 . S
C1779 C1771 1.433 . S
C1779 N1781 1.384 . S
N1780 C1776 1.427 . S
N1780 C1777 1.384 . S
N1781 C1773 1.427 . S
N1781 C1779 1.384 . S
H1782 C1788 0.930 . S
H1783 C1792 0.930 . S
H1784 C1797 0.929 . S
H1785 C1795 0.929 . S
H1786 C1790 0.929 . S
H1787 C1796 0.929 . S
C1788 H1782 0.930 . S
C1788 C1789 1.367 . S
C1788 C1796 1.378 . S
C1789 C1788 1.367 . S
C1789 C1797 1.433 . S
C1790 H1786 0.929 . S
C1790 C1792 1.378 . S
C1790 C1794 1.350 . S
C1791 C1794 1.463 . S
C1791 C1796 1.350 . S
C1791 N1799 1.427 . S
C1792 H1783 0.930 . S
C1792 C1790 1.378 . S
C1792 C1793 1.367 . S
C1793 C1792 1.367 . S
C1793 C1795 1.433 . S
C1794 C1790 1.350 . S
C1794 C1791 1.463 . S
C1794 N1798 1.427 . S
C1795 H1785 0.929 . S
C1795 C1793 1.433 . S
C1795 N1798 1.384 . S
C1796 H1787 0.929 . S
C1796 C1788 1.378 . S
C1796 C1791 1.350 . S
C1797 H1784 0.929 . S
C1797 C1789 1.433 . S
C1797 N1799 1.384 . S
N1798 C1794 1.427 . S
N1798 C1795 1.384 . S
N1799 C1791 1.427 . S
N1799 C1797 1.384 . S
H1800 C1806 0.930 . S
H1801 C1810 0.930 . S
H1802 C1815 0.929 . S
H1803 C1813 0.929 . S
H1804 C1808 0.929 . S
H1805 C1814 0.929 . S
C1806 H1800 0.930 . S
C1806 C1807 1.367 . S
C1806 C1814 1.378 . S
C1807 C1806 1.367 . S
C1807 C1815 1.433 . S
C1808 H1804 0.929 . S
C1808 C1810 1.378 . S
C1808 C1812 1.350 . S
C1809 C1812 1.463 . S
C1809 C1814 1.350 . S
C1809 N1817 1.427 . S
C1810 H1801 0.930 . S
C1810 C1808 1.378 . S
C1810 C1811 1.367 . S
C1811 C1810 1.367 . S
C1811 C1813 1.433 . S
C1812 C1808 1.350 . S
C1812 C1809 1.463 . S
C1812 N1816 1.427 . S
C1813 H1803 0.929 . S
C1813 C1811 1.433 . S
C1813 N1816 1.384 . S
C1814 H1805 0.929 . S
C1814 C1806 1.378 . S
C1814 C1809 1.350 . S
C1815 H1802 0.929 . S
C1815 C1807 1.433 . S
C1815 N1817 1.384 . S
N1816 C1812 1.427 . S
N1816 C1813 1.384 . S
N1817 C1809 1.427 . S
N1817 C1815 1.384 . S
H1818 C1824 0.930 . S
H1819 C1828 0.930 . S
H1820 C1833 0.929 . S
H1821 C1831 0.929 . S
H1822 C1826 0.929 . S
H1823 C1832 0.929 . S
C1824 H1818 0.930 . S
C1824 C1825 1.367 . S
C1824 C1832 1.378 . S
C1825 C1824 1.367 . S
C1825 C1833 1.433 . S
C1826 H1822 0.929 . S
C1826 C1828 1.378 . S
C1826 C1830 1.350 . S
C1827 C1830 1.463 . S
C1827 C1832 1.350 . S
C1827 N1835 1.427 . S
C1828 H1819 0.930 . S
C1828 C1826 1.378 . S
C1828 C1829 1.367 . S
C1829 C1828 1.367 . S
C1829 C1831 1.433 . S
C1830 C1826 1.350 . S
C1830 C1827 1.463 . S
C1830 N1834 1.427 . S
C1831 H1821 0.929 . S
C1831 C1829 1.433 . S
C1831 N1834 1.384 . S
C1832 H1823 0.929 . S
C1832 C1824 1.378 . S
C1832 C1827 1.350 . S
C1833 H1820 0.929 . S
C1833 C1825 1.433 . S
C1833 N1835 1.384 . S
N1834 C1830 1.427 . S
N1834 C1831 1.384 . S
N1835 C1827 1.427 . S
N1835 C1833 1.384 . S
H1836 C1842 0.930 . S
H1837 C1846 0.930 . S
H1838 C1851 0.929 . S
H1839 C1849 0.929 . S
H1840 C1844 0.929 . S
H1841 C1850 0.929 . S
C1842 H1836 0.930 . S
C1842 C1843 1.367 . S
C1842 C1850 1.378 . S
C1843 C1842 1.367 . S
C1843 C1851 1.433 . S
C1844 H1840 0.929 . S
C1844 C1846 1.378 . S
C1844 C1848 1.350 . S
C1845 C1848 1.463 . S
C1845 C1850 1.350 . S
C1845 N1853 1.427 . S
C1846 H1837 0.930 . S
C1846 C1844 1.378 . S
C1846 C1847 1.367 . S
C1847 C1846 1.367 . S
C1847 C1849 1.433 . S
C1848 C1844 1.350 . S
C1848 C1845 1.463 . S
C1848 N1852 1.427 . S
C1849 H1839 0.929 . S
C1849 C1847 1.433 . S
C1849 N1852 1.384 . S
C1850 H1841 0.929 . S
C1850 C1842 1.378 . S
C1850 C1845 1.350 . S
C1851 H1838 0.929 . S
C1851 C1843 1.433 . S
C1851 N1853 1.384 . S
N1852 C1848 1.427 . S
N1852 C1849 1.384 . S
N1853 C1845 1.427 . S
N1853 C1851 1.384 . S
H1854 C1860 0.930 . S
H1855 C1864 0.930 . S
H1856 C1869 0.929 . S
H1857 C1867 0.929 . S
H1858 C1862 0.929 . S
H1859 C1868 0.929 . S
C1860 H1854 0.930 . S
C1860 C1861 1.367 . S
C1860 C1868 1.378 . S
C1861 C1860 1.367 . S
C1861 C1869 1.433 . S
C1862 H1858 0.929 . S
C1862 C1864 1.378 . S
C1862 C1866 1.350 . S
C1863 C1866 1.463 . S
C1863 C1868 1.350 . S
C1863 N1871 1.427 . S
C1864 H1855 0.930 . S
C1864 C1862 1.378 . S
C1864 C1865 1.367 . S
C1865 C1864 1.367 . S
C1865 C1867 1.433 . S
C1866 C1862 1.350 . S
C1866 C1863 1.463 . S
C1866 N1870 1.427 . S
C1867 H1857 0.929 . S
C1867 C1865 1.433 . S
C1867 N1870 1.384 . S
C1868 H1859 0.929 . S
C1868 C1860 1.378 . S
C1868 C1863 1.350 . S
C1869 H1856 0.929 . S
C1869 C1861 1.433 . S
C1869 N1871 1.384 . S
N1870 C1866 1.427 . S
N1870 C1867 1.384 . S
N1871 C1863 1.427 . S
N1871 C1869 1.384 . S
H1872 C1878 0.930 . S
H1873 C1882 0.930 . S
H1874 C1887 0.929 . S
H1875 C1885 0.929 . S
H1876 C1880 0.929 . S
H1877 C1886 0.929 . S
C1878 H1872 0.930 . S
C1878 C1879 1.367 . S
C1878 C1886 1.378 . S
C1879 C1878 1.367 . S
C1879 C1887 1.433 . S
C1880 H1876 0.929 . S
C1880 C1882 1.378 . S
C1880 C1884 1.350 . S
C1881 C1884 1.463 . S
C1881 C1886 1.350 . S
C1881 N1889 1.427 . S
C1882 H1873 0.930 . S
C1882 C1880 1.378 . S
C1882 C1883 1.367 . S
C1883 C1882 1.367 . S
C1883 C1885 1.433 . S
C1884 C1880 1.350 . S
C1884 C1881 1.463 . S
C1884 N1888 1.427 . S
C1885 H1875 0.929 . S
C1885 C1883 1.433 . S
C1885 N1888 1.384 . S
C1886 H1877 0.929 . S
C1886 C1878 1.378 . S
C1886 C1881 1.350 . S
C1887 H1874 0.929 . S
C1887 C1879 1.433 . S
C1887 N1889 1.384 . S
N1888 C1884 1.427 . S
N1888 C1885 1.384 . S
N1889 C1881 1.427 . S
N1889 C1887 1.384 . S
H1890 C1896 0.930 . S
H1891 C1900 0.930 . S
H1892 C1905 0.929 . S
H1893 C1903 0.929 . S
H1894 C1898 0.929 . S
H1895 C1904 0.929 . S
C1896 H1890 0.930 . S
C1896 C1897 1.367 . S
C1896 C1904 1.378 . S
C1897 C1896 1.367 . S
C1897 C1905 1.433 . S
C1898 H1894 0.929 . S
C1898 C1900 1.378 . S
C1898 C1902 1.350 . S
C1899 C1902 1.463 . S
C1899 C1904 1.350 . S
C1899 N1907 1.427 . S
C1900 H1891 0.930 . S
C1900 C1898 1.378 . S
C1900 C1901 1.367 . S
C1901 C1900 1.367 . S
C1901 C1903 1.433 . S
C1902 C1898 1.350 . S
C1902 C1899 1.463 . S
C1902 N1906 1.427 . S
C1903 H1893 0.929 . S
C1903 C1901 1.433 . S
C1903 N1906 1.384 . S
C1904 H1895 0.929 . S
C1904 C1896 1.378 . S
C1904 C1899 1.350 . S
C1905 H1892 0.929 . S
C1905 C1897 1.433 . S
C1905 N1907 1.384 . S
N1906 C1902 1.427 . S
N1906 C1903 1.384 . S
N1907 C1899 1.427 . S
N1907 C1905 1.384 . S
C623 C318 1.312 . S
C619 N300 1.277 . S
C637 N278 1.478 . S
C641 C316 1.513 . S
C659 C317 1.513 . S
C655 N265 1.488 . S
C673 N287 1.283 . S
C677 C319 1.312 . S
C695 C363 1.321 . S
C691 N213 1.296 . S
C713 C423 1.265 . S
C709 N226 1.236 . S
C727 N239 1.298 . S
C731 C362 1.327 . S
C749 C422 1.467 . S
C745 N252 1.442 . S
C763 N161 1.283 . S
C767 C364 1.320 . S
C785 C420 1.467 . S
C781 N174 1.444 . S
C799 N187 1.293 . S
C803 C365 1.327 . S
C817 N200 1.236 . S
C821 C421 1.265 . S
C839 C471 1.313 . S
C835 N144 1.289 . S
C853 N122 1.485 . S
C857 C470 1.514 . S
C871 N109 1.483 1_556 S
C875 C472 1.514 . S
C893 C473 1.311 1_556 S
C889 N131 1.283 1_554 S
C907 N57 1.287 . S
C911 C514 1.321 . S
C925 N70 1.230 . S
C929 C573 1.264 . S
C943 N83 1.288 . S
C947 C512 1.326 . S
C961 N96 1.439 1_545 S
C965 C572 1.467 . S
C983 C513 1.320 . S
C979 N5 1.284 . S
C1001 C570 1.468 . S
C997 N18 1.441 . S
C1015 N31 1.297 . S
C1019 C515 1.327 . S
C1037 C571 1.267 . S
C1033 N44 1.240 . S
C1055 C315 1.299 . S
C1051 N2 1.247 . S
C1069 N15 1.495 . S
C1073 C321 1.533 . S
C1087 N27 1.627 . S
C1091 C313 1.632 . S
C1105 N41 1.255 . S
C1109 C320 1.316 . S
C1123 N54 1.257 . S
C1127 C312 1.300 . S
C1145 C322 1.315 . S
C1141 N67 1.258 . S
C1159 N79 1.629 . S
C1163 C314 1.631 . S
C1181 C323 1.533 1_565 S
C1177 N93 1.487 1_545 S
C1199 C369 1.595 . S
C1195 N40 1.591 1_545 S
C1213 N1 1.559 . S
C1217 C412 1.565 . S
C1235 C367 1.621 . S
C1231 N14 1.615 . S
C1253 C414 1.244 . S
C1249 N28 1.196 . S
C1267 N66 1.589 1_565 S
C1271 C368 1.595 . S
C1289 C413 1.243 . S
C1285 N80 1.186 . S
C1307 C366 1.620 . S
C1303 N92 1.613 . S
C1325 C415 1.565 . S
C1321 N53 1.559 . S
C1343 C419 1.556 . S
C1339 N106 1.504 . S
C1357 N119 1.516 . S
C1361 C418 1.556 . S
C1379 C370 1.790 1_556 S
C1375 N105 1.786 . S
C1397 C417 1.714 . S
C1393 N135 1.709 1_554 S
C1411 N145 1.306 . S
C1415 C373 1.372 . S
C1429 N148 1.710 . S
C1433 C416 1.713 . S
C1451 C372 1.790 . S
C1447 N118 1.784 1_554 S
C1469 C371 1.372 1_556 S
C1465 N132 1.301 1_554 S
C1487 C465 1.297 . S
C1483 N158 1.240 . S
C1505 C468 1.533 . S
C1501 N171 1.488 . S
C1519 N183 1.626 . S
C1523 C464 1.631 . S
C1541 C466 1.315 . S
C1537 N197 1.255 . S
C1559 C462 1.297 . S
C1555 N210 1.240 . S
C1573 N223 1.258 . S
C1577 C467 1.315 . S
C1591 N235 1.629 . S
C1595 C463 1.631 . S
C1613 C469 1.533 . S
C1609 N249 1.488 . S
C1631 C523 1.595 . S
C1627 N196 1.591 . S
C1645 N157 1.559 . S
C1649 C562 1.565 . S
C1667 C522 1.620 . S
C1663 N170 1.615 . S
C1685 C564 1.244 . S
C1681 N184 1.191 . S
C1703 C521 1.595 . S
C1699 N222 1.589 . S
C1717 N236 1.185 . S
C1721 C563 1.243 . S
C1739 C520 1.620 . S
C1735 N248 1.614 . S
C1757 C565 1.565 . S
C1753 N209 1.563 . S
C1775 C569 1.556 . S
C1771 N262 1.514 . S
C1789 N275 1.504 . S
C1793 C568 1.556 . S
C1811 C516 1.790 . S
C1807 N261 1.786 . S
C1825 N291 1.710 . S
C1829 C567 1.713 . S
C1847 C519 1.373 . S
C1843 N301 1.310 . S
C1865 C566 1.713 . S
C1861 N304 1.710 . S
C1883 C517 1.790 . S
C1879 N274 1.788 . S
C1897 N288 1.304 . S
C1901 C518 1.372 . S
