# Generated by pormake.
# Topology pyr, (3,6)-cn, num edge types: 1
# Building blocks:
#     Node 0, Type 0, BuildingBlock: INOVEN_clean_linker_0, # of connection points: 3
#     Node 1, Type 0, BuildingBlock: INOVEN_clean_linker_0, # of connection points: 3
#     Node 2, Type 0, BuildingBlock: INOVEN_clean_linker_0, # of connection points: 3
#     Node 3, Type 0, BuildingBlock: INOVEN_clean_linker_0, # of connection points: 3
#     Node 4, Type 0, BuildingBlock: INOVEN_clean_linker_0, # of connection points: 3
#     Node 5, Type 0, BuildingBlock: INOVEN_clean_linker_0, # of connection points: 3
#     Node 6, Type 0, BuildingBlock: INOVEN_clean_linker_0, # of connection points: 3
#     Node 7, Type 0, BuildingBlock: INOVEN_clean_linker_0, # of connection points: 3
#     Node 8, Type 1, BuildingBlock: BETDIP_clean_sbu_0, # of connection points: 6
#     Node 9, Type 1, BuildingBlock: BETDIP_clean_sbu_0, # of connection points: 6
#     Node 10, Type 1, BuildingBlock: BETDIP_clean_sbu_0, # of connection points: 6
#     Node 11, Type 1, BuildingBlock: BETDIP_clean_sbu_0, # of connection points: 6
#     Edge 12, Type (0, 1), None
#     Edge 13, Type (0, 1), None
#     Edge 14, Type (0, 1), None
#     Edge 15, Type (0, 1), None
#     Edge 16, Type (0, 1), None
#     Edge 17, Type (0, 1), None
#     Edge 18, Type (0, 1), None
#     Edge 19, Type (0, 1), None
#     Edge 20, Type (0, 1), None
#     Edge 21, Type (0, 1), None
#     Edge 22, Type (0, 1), None
#     Edge 23, Type (0, 1), None
#     Edge 24, Type (0, 1), None
#     Edge 25, Type (0, 1), None
#     Edge 26, Type (0, 1), None
#     Edge 27, Type (0, 1), None
#     Edge 28, Type (0, 1), None
#     Edge 29, Type (0, 1), None
#     Edge 30, Type (0, 1), None
#     Edge 31, Type (0, 1), None
#     Edge 32, Type (0, 1), None
#     Edge 33, Type (0, 1), None
#     Edge 34, Type (0, 1), None
#     Edge 35, Type (0, 1), None
# Relax obj value: 0.422
# Max RMSD: 0.245
# Mean RMSD: 0.146
data_MOF--net-pyr--node1-BETDIP_clean_sbu_0--node2-INOVEN_clean_linker_0--edge1-none
_symmetry_space_group_name_H-M    P1
_symmetry_Int_Tables_number       1
_symmetry_cell_setting            triclinic
loop_
_symmetry_equiv_pos_as_xyz
'x, y, z'
_cell_length_a     16.502978
_cell_length_b     17.082769
_cell_length_c     16.806322
_cell_angle_alpha  87.445693
_cell_angle_beta   93.51159
_cell_angle_gamma 115.75408
loop_
_atom_site_label
_atom_site_type_symbol
_atom_site_fract_x
_atom_site_fract_y
_atom_site_fract_z
_atom_type_partial_charge
H0 H 0.47103 0.3672 0.51789 0.0
H1 H 0.64861 0.25042 0.4851 0.0
H2 H 0.6113 0.41798 0.30236 0.0
N3 N 0.48562 0.44231 0.3722 0.0
N4 N 0.4344 0.45985 0.4122 0.0
C5 C 0.52354 0.3643 0.48409 0.0
C6 C 0.5664 0.31282 0.51355 0.0
C7 C 0.54144 0.40482 0.40869 0.0
C8 C 0.60467 0.3943 0.36374 0.0
C9 C 0.63911 0.3339 0.38864 0.0
C10 C 0.62676 0.30024 0.46689 0.0
H11 H 0.15571 0.88664 0.76259 0.0
H12 H 0.32583 1.01601 0.96584 0.0
H13 H 0.06257 1.00734 0.93146 0.0
N14 N 1.01511 0.91514 0.80204 0.0
N15 N 0.97253 0.95942 0.78413 0.0
C16 C 0.16815 0.92478 0.81562 0.0
C17 C 0.2499 0.94974 0.8608 0.0
C18 C 0.10185 0.94832 0.84018 0.0
C19 C 0.11609 0.99427 0.91003 0.0
C20 C 0.19616 1.01882 0.95492 0.0
C21 C 0.26331 0.99677 0.93051 0.0
H22 H 0.59076 0.40423 0.97662 0.0
H23 H 0.77873 0.41415 0.16857 0.0
H24 H 0.83413 0.64144 1.01652 0.0
N25 N 0.67267 0.56674 0.91988 0.0
N26 N 0.70914 0.64528 0.89624 0.0
C27 C 0.65388 0.44021 1.0096 0.0
C28 C 0.67923 0.39795 1.07498 0.0
C29 C 0.70728 0.52881 0.98677 0.0
C30 C 0.79095 0.57471 1.03241 0.0
C31 C 0.81767 0.53374 1.09958 0.0
C32 C 0.7602 0.44614 1.11842 0.0
H33 H 0.82002 0.74109 0.511 0.0
H34 H 0.87256 0.96784 0.649 0.0
H35 H 1.05518 0.98147 0.47129 0.0
N36 N 0.96581 0.82384 0.4117 0.0
N37 N 0.95638 0.74722 0.40193 0.0
C38 C 0.86222 0.80812 0.52587 0.0
C39 C 0.83645 0.84802 0.58761 0.0
C40 C 0.94068 0.85635 0.48121 0.0
C41 C 0.9942 0.9444 0.50271 0.0
C42 C 0.9717 0.9854 0.5641 0.0
C43 C 0.89117 0.93693 0.60336 0.0
H44 H 0.54177 1.01861 0.93262 0.0
H45 H 0.80867 1.03757 0.95959 0.0
H46 H 0.60648 0.87166 1.11953 0.0
N47 N 0.47305 0.90776 1.04959 0.0
N48 N 0.43208 0.95177 1.06578 0.0
C49 C 0.59109 1.00216 0.96539 0.0
C50 C 0.67775 1.03359 0.93915 0.0
C51 C 0.56494 0.9443 1.03034 0.0
C52 C 0.62741 0.9185 1.07056 0.0
C53 C 0.71758 0.95549 1.04733 0.0
C54 C 0.74129 1.01281 0.98147 0.0
H55 H 0.92263 0.39993 0.37065 0.0
H56 H 0.11746 0.29616 0.41263 0.0
H57 H 0.09934 0.47227 0.57727 0.0
N58 N 0.95936 0.48378 0.5083 0.0
N59 N 0.89933 0.49672 0.46929 0.0
C60 C 0.98126 0.40024 0.40361 0.0
C61 C 1.0242 0.35107 0.37738 0.0
C62 C 1.01149 0.44757 0.47374 0.0
C63 C 0.08264 0.44248 0.51916 0.0
C64 C 0.11311 0.37986 0.50191 0.0
C65 C 0.09108 0.34152 0.42717 0.0
H66 H 0.52752 0.93322 0.42369 0.0
H67 H 0.35075 0.94769 0.22933 0.0
H68 H 0.27357 0.71215 0.36772 0.0
N69 N 0.41835 0.76089 0.46965 0.0
N70 N 0.48495 0.78619 0.5193 0.0
C71 C 0.46486 0.9033 0.38858 0.0
C72 C 0.44598 0.95201 0.32422 0.0
C73 C 0.40262 0.81517 0.40608 0.0
C74 C 0.32187 0.77836 0.35639 0.0
C75 C 0.30383 0.82573 0.29128 0.0
C76 C 0.36562 0.91159 0.27798 0.0
H77 H 0.10134 0.40416 0.92523 0.0
H78 H 0.28989 0.43424 0.74752 0.0
H79 H 0.32818 0.65288 0.8911 0.0
N80 N 0.1783 0.56333 0.98279 0.0
N81 N 0.18304 0.63846 0.99073 0.0
C82 C 0.16182 0.44474 0.89449 0.0
C83 C 0.18906 0.40826 0.8329 0.0
C84 C 0.20956 0.5336 0.91583 0.0
C85 C 0.28927 0.58599 0.87431 0.0
C86 C 0.32065 0.55018 0.81379 0.0
C87 C 0.26858 0.46191 0.79422 0.0
Tb88 Tb 0.99362 0.21281 0.70923 0.0
Tb89 Tb 0.1597 0.19995 0.68167 0.0
C90 C 0.84871 0.22746 0.69221 0.0
C91 C 0.76234 0.16388 0.71884 0.0
C92 C 0.75806 1.0808 0.73218 0.0
C93 C 0.73412 1.04103 0.8058 0.0
C94 C 0.69828 1.0755 0.86053 0.0
C95 C 0.68267 0.14823 0.83899 0.0
C96 C 0.71589 0.19339 0.76795 0.0
C97 C 0.13187 0.31696 0.80294 0.0
C98 C 1.00827 1.05219 0.78198 0.0
C99 C 0.32013 0.22918 0.72072 0.0
C100 C 0.39242 0.21427 0.68927 0.0
C101 C 0.48105 0.27152 0.71173 0.0
C102 C 0.54877 0.29181 0.65811 0.0
C103 C 0.52699 0.25559 0.58226 0.0
C104 C 0.44335 0.1842 0.56784 0.0
C105 C 0.37526 0.16423 0.62108 0.0
C106 C 1.03857 1.07417 0.59395 0.0
C107 C 0.11492 0.32407 0.56977 0.0
O108 O 0.88257 0.20362 0.63467 0.0
O109 O 0.9067 0.25843 0.75229 0.0
O110 O 0.13147 0.29863 0.73079 0.0
O111 O 1.05134 0.26908 0.82685 0.0
O112 O 0.95116 1.08401 0.75926 0.0
O113 O 0.09594 1.10083 0.77572 0.0
O114 O 0.29688 0.28163 0.67649 0.0
O115 O 0.25043 0.16157 0.74602 0.0
O116 O 1.02299 0.12632 0.63686 0.0
O117 O 0.12527 1.09991 0.59276 0.0
O118 O 0.16649 0.28259 0.57676 0.0
O119 O 1.05049 0.30907 0.61836 0.0
H120 H 0.79013 1.05495 0.69328 0.0
H121 H 0.7448 0.98365 0.82037 0.0
H122 H 0.65312 0.17445 0.88007 0.0
H123 H 0.71753 0.25715 0.75781 0.0
H124 H 0.49539 0.30972 0.765 0.0
H125 H 0.61359 0.345 0.67112 0.0
H126 H 0.42575 0.1548 0.50965 0.0
H127 H 0.30712 1.119 0.60349 0.0
Tb128 Tb 0.63555 0.15504 0.20341 0.0
Tb129 Tb 0.48535 0.18881 0.18902 0.0
C130 C 0.7734 0.13753 0.17158 0.0
C131 C 0.86812 0.1937 0.18958 0.0
C132 C 0.89609 0.28344 0.18217 0.0
C133 C 0.95479 0.337 0.23982 0.0
C134 C 0.99006 0.30231 0.30277 0.0
C135 C 0.97659 0.21541 0.29947 0.0
C136 C 0.91574 0.16111 0.24246 0.0
C137 C 0.50957 1.04231 0.29671 0.0
C138 C 0.6221 0.26907 0.32893 0.0
C139 C 0.34829 0.21414 0.20366 0.0
C140 C 0.25978 0.15455 0.1705 0.0
C141 C 0.24469 1.06708 0.17147 0.0
C142 C 0.22526 1.02367 1.10008 0.0
C143 C 0.20611 1.06137 1.03076 0.0
C144 C 0.19793 0.13952 1.03474 0.0
C145 C 0.22428 0.18622 1.10536 0.0
C146 C 0.61955 0.30542 1.10291 0.0
C147 C 0.47342 1.04222 1.08371 0.0
O148 O 0.73086 0.16813 1.12024 0.0
O149 O 0.72824 1.10538 0.23564 0.0
O150 O 0.49832 1.0723 0.22842 0.0
O151 O 0.59519 1.07646 0.31433 0.0
O152 O 0.68358 0.26321 0.28631 0.0
O153 O 0.53695 0.2268 0.30802 0.0
O154 O 0.38292 0.18317 0.26165 0.0
O155 O 0.40586 0.25145 0.14853 0.0
O156 O 0.62625 0.27555 0.17237 0.0
O157 O 0.53657 0.26393 1.07813 0.0
O158 O 0.424 1.07188 1.11894 0.0
O159 O 0.56153 1.08242 1.09679 0.0
H160 H 0.86156 0.31062 1.14087 0.0
H161 H 0.9622 0.40284 0.24028 0.0
H162 H 1.00269 0.18616 0.34654 0.0
H163 H 0.89523 1.09172 0.24844 0.0
H164 H 0.26641 1.03874 0.22247 0.0
H165 H 0.22923 0.96234 1.09795 0.0
H166 H 0.18007 0.16819 0.98175 0.0
H167 H 0.23255 0.25276 1.10402 0.0
Tb168 Tb 0.59555 0.77343 0.74835 0.0
Tb169 Tb 0.56617 0.62964 0.66379 0.0
C170 C 0.55799 0.8919 0.79241 0.0
C171 C 0.47425 0.90017 0.80643 0.0
C172 C 0.45554 0.96293 0.76253 0.0
C173 C 0.37985 0.97605 0.77752 0.0
C174 C 0.3219 0.92713 0.83715 0.0
C175 C 0.33958 0.86351 0.88039 0.0
C176 C 0.41481 0.8497 0.86481 0.0
C177 C 0.67523 0.68527 0.83085 0.0
C178 C 0.40872 0.60123 0.77185 0.0
C179 C 0.60374 0.51626 0.60953 0.0
C180 C 0.68775 0.52385 0.57523 0.0
C181 C 0.74761 0.50062 0.62221 0.0
C182 C 0.82137 0.49735 0.5889 0.0
C183 C 0.83712 0.51757 0.50766 0.0
C184 C 0.78173 0.5472 0.46203 0.0
C185 C 0.70848 0.5519 0.49589 0.0
C186 C 0.49998 0.7306 0.58159 0.0
C187 C 0.7517 0.79905 0.63486 0.0
O188 O 0.57074 0.88175 0.71858 0.0
O189 O 0.58368 0.84501 0.84223 0.0
O190 O 0.59808 0.65181 0.79228 0.0
O191 O 0.70724 0.76953 0.8234 0.0
O192 O 0.45548 0.68571 0.78192 0.0
O193 O 0.44106 0.56085 0.7268 0.0
O194 O 0.61 0.53239 0.68537 0.0
O195 O 0.55548 0.54918 0.5686 0.0
O196 O 0.57332 0.75341 0.62289 0.0
O197 O 0.4604 0.64597 0.58403 0.0
O198 O 0.70308 0.71519 0.6239 0.0
O199 O 0.72224 0.8397 0.68335 0.0
H200 H 0.5008 1.00336 0.71779 0.0
H201 H 0.36833 1.02652 0.7446 0.0
H202 H 0.29651 0.82618 0.92769 0.0
H203 H 0.42831 0.802 0.90044 0.0
H204 H 0.73582 0.48193 0.68438 0.0
H205 H 0.86298 0.47427 0.62575 0.0
H206 H 0.79305 0.56329 0.39937 0.0
H207 H 0.66584 0.57357 0.45882 0.0
Tb208 Tb 0.06613 0.76288 0.15473 0.0
Tb209 Tb 0.06227 0.61365 0.23412 0.0
C210 C 1.01559 0.87204 1.09291 0.0
C211 C 0.93624 0.8898 1.09824 0.0
C212 C 0.8477 0.8232 1.09378 0.0
C213 C 0.77389 0.84362 1.08593 0.0
C214 C 0.78791 0.93084 1.08322 0.0
C215 C 0.8761 0.99633 1.09614 0.0
C216 C 0.94946 0.97604 1.10314 0.0
C217 C 0.22168 0.78944 0.23503 0.0
C218 C 0.98671 0.72195 0.33121 0.0
C219 C 0.13268 0.51917 0.29678 0.0
C220 C 0.22186 0.52021 0.32017 0.0
C221 C 0.26329 0.4861 0.26964 0.0
C222 C 0.33745 0.47099 0.29762 0.0
C223 C 0.3702 0.48784 0.37736 0.0
C224 C 0.33047 0.52381 0.42673 0.0
C225 C 0.25867 0.54163 0.39823 0.0
C226 C 0.90263 0.57739 0.15444 0.0
C227 C 0.14744 0.66079 1.05928 0.0
O228 O 1.00275 0.80028 1.05847 0.0
O229 O 0.06842 0.88639 0.15684 0.0
O230 O 0.14283 0.74555 0.25647 0.0
O231 O 0.21477 0.82532 0.16663 0.0
O232 O 0.99268 0.76446 0.26214 0.0
O233 O 1.0124 0.65791 0.33587 0.0
O234 O 0.10961 0.51874 0.22132 0.0
O235 O 0.10446 0.56515 0.33727 0.0
O236 O 0.98084 0.62799 1.13229 0.0
O237 O 0.91508 0.53976 0.22042 0.0
O238 O 0.13584 0.6146 1.12652 0.0
O239 O 0.12375 0.72594 1.05461 0.0
H240 H 0.83568 0.75581 1.09235 0.0
H241 H 0.70697 0.79187 1.07553 0.0
H242 H 0.88905 1.06415 1.09385 0.0
H243 H 1.0169 1.02829 1.10801 0.0
H244 H 0.23594 0.46738 0.20956 0.0
H245 H 0.36555 0.44152 0.25842 0.0
H246 H 0.35263 0.53457 0.48875 0.0
H247 H 0.22862 0.56743 0.43911 0.0
loop_
_geom_bond_atom_site_label_1
_geom_bond_atom_site_label_2
_geom_bond_distance
_geom_bond_site_symmetry_2
_ccdc_geom_bond_type
H0 C5 0.929 . S
H1 C10 0.931 . S
H2 C8 0.930 . S
N3 N4 1.234 . S
N3 C7 1.453 . S
N4 N3 1.234 . S
C5 H0 0.929 . S
C5 C6 1.373 . S
C5 C7 1.368 . S
C6 C5 1.373 . S
C6 C10 1.397 . S
C7 N3 1.453 . S
C7 C5 1.368 . S
C7 C8 1.373 . S
C8 H2 0.930 . S
C8 C7 1.373 . S
C8 C9 1.371 . S
C9 C8 1.371 . S
C9 C10 1.383 . S
C10 H1 0.931 . S
C10 C6 1.397 . S
C10 C9 1.383 . S
H11 C16 0.929 . S
H12 C21 0.931 . S
H13 C19 0.930 1_655 S
N14 N15 1.234 . S
N14 C18 1.453 . S
N15 N14 1.234 . S
C16 H11 0.929 . S
C16 C17 1.373 . S
C16 C18 1.368 1_455 S
C17 C16 1.373 . S
C17 C21 1.397 . S
C18 N14 1.453 . S
C18 C16 1.368 1_655 S
C18 C19 1.373 1_655 S
C19 H13 0.930 1_455 S
C19 C18 1.373 1_455 S
C19 C20 1.371 . S
C20 C19 1.371 . S
C20 C21 1.383 . S
C21 H12 0.931 . S
C21 C17 1.397 . S
C21 C20 1.383 . S
H22 C27 0.929 . S
H23 C32 0.930 1_554 S
H24 C30 0.930 . S
N25 N26 1.234 . S
N25 C29 1.453 . S
N26 N25 1.234 . S
C27 H22 0.929 . S
C27 C28 1.373 . S
C27 C29 1.368 . S
C28 C27 1.373 . S
C28 C32 1.397 . S
C29 N25 1.453 . S
C29 C27 1.368 . S
C29 C30 1.373 . S
C30 H24 0.930 . S
C30 C29 1.373 . S
C30 C31 1.371 . S
C31 C30 1.371 . S
C31 C32 1.383 . S
C32 H23 0.930 1_556 S
C32 C28 1.397 . S
C32 C31 1.383 . S
H33 C38 0.929 . S
H34 C43 0.931 . S
H35 C41 0.930 . S
N36 N37 1.234 . S
N36 C40 1.453 . S
N37 N36 1.234 . S
C38 H33 0.929 . S
C38 C39 1.373 . S
C38 C40 1.368 . S
C39 C38 1.373 . S
C39 C43 1.397 . S
C40 N36 1.453 . S
C40 C38 1.368 . S
C40 C41 1.373 . S
C41 H35 0.930 . S
C41 C40 1.373 . S
C41 C42 1.371 . S
C42 C41 1.371 . S
C42 C43 1.383 . S
C43 H34 0.931 . S
C43 C39 1.397 . S
C43 C42 1.383 . S
H44 C49 0.929 . S
H45 C54 0.931 . S
H46 C52 0.930 . S
N47 N48 1.234 . S
N47 C51 1.453 . S
N48 N47 1.234 . S
C49 H44 0.929 . S
C49 C50 1.373 . S
C49 C51 1.368 . S
C50 C49 1.373 . S
C50 C54 1.397 . S
C51 N47 1.453 . S
C51 C49 1.368 . S
C51 C52 1.373 . S
C52 H46 0.930 . S
C52 C51 1.373 . S
C52 C53 1.371 . S
C53 C52 1.371 . S
C53 C54 1.383 . S
C54 H45 0.931 . S
C54 C50 1.397 . S
C54 C53 1.383 . S
H55 C60 0.929 . S
H56 C65 0.931 . S
H57 C63 0.930 . S
N58 N59 1.234 . S
N58 C62 1.453 . S
N59 N58 1.234 . S
C60 H55 0.929 . S
C60 C61 1.373 . S
C60 C62 1.368 . S
C61 C60 1.373 . S
C61 C65 1.397 1_655 S
C62 N58 1.453 . S
C62 C60 1.368 . S
C62 C63 1.373 1_655 S
C63 H57 0.930 . S
C63 C62 1.373 1_455 S
C63 C64 1.371 . S
C64 C63 1.371 . S
C64 C65 1.383 . S
C65 H56 0.931 . S
C65 C61 1.397 1_455 S
C65 C64 1.383 . S
H66 C71 0.929 . S
H67 C76 0.931 . S
H68 C74 0.930 . S
N69 N70 1.234 . S
N69 C73 1.453 . S
N70 N69 1.234 . S
C71 H66 0.929 . S
C71 C72 1.373 . S
C71 C73 1.368 . S
C72 C71 1.373 . S
C72 C76 1.397 . S
C73 N69 1.453 . S
C73 C71 1.368 . S
C73 C74 1.373 . S
C74 H68 0.930 . S
C74 C73 1.373 . S
C74 C75 1.371 . S
C75 C74 1.371 . S
C75 C76 1.383 . S
C76 H67 0.931 . S
C76 C72 1.397 . S
C76 C75 1.383 . S
H77 C82 0.929 . S
H78 C87 0.931 . S
H79 C85 0.930 . S
N80 N81 1.234 . S
N80 C84 1.453 . S
N81 N80 1.234 . S
C82 H77 0.929 . S
C82 C83 1.373 . S
C82 C84 1.368 . S
C83 C82 1.373 . S
C83 C87 1.397 . S
C84 N80 1.453 . S
C84 C82 1.368 . S
C84 C85 1.373 . S
C85 H79 0.930 . S
C85 C84 1.373 . S
C85 C86 1.371 . S
C86 C85 1.371 . S
C86 C87 1.383 . S
C87 H78 0.931 . S
C87 C83 1.397 . S
C87 C86 1.383 . S
Tb88 C90 2.809 1_545 S
Tb88 O108 2.484 1_545 S
Tb88 O109 2.440 . S
Tb88 O110 2.658 1_655 S
Tb88 O111 2.409 1_655 S
Tb88 O112 2.378 1_545 S
Tb88 O116 2.325 1_545 S
Tb88 O119 2.341 . S
Tb89 C99 2.809 . S
Tb89 O110 2.325 . S
Tb89 O113 2.341 1_545 S
Tb89 O114 2.484 . S
Tb89 O115 2.440 . S
Tb89 O116 2.658 1_445 S
Tb89 O117 2.409 1_545 S
Tb89 O118 2.378 . S
C90 Tb88 2.809 1_565 S
C90 C91 1.514 . S
C90 O108 1.248 . S
C90 O109 1.266 1_565 S
C91 C90 1.514 . S
C91 C92 1.359 . S
C91 C96 1.348 . S
C92 C91 1.359 . S
C92 C93 1.380 . S
C92 H120 0.929 . S
C93 C92 1.380 . S
C93 C94 1.347 . S
C93 H121 0.931 . S
C94 C93 1.347 . S
C94 C95 1.369 . S
C95 C94 1.369 . S
C95 C96 1.408 . S
C95 H122 0.930 . S
C96 C91 1.348 . S
C96 C95 1.408 . S
C96 H123 0.930 . S
C97 O110 1.281 . S
C97 O111 1.253 . S
C98 O112 1.236 1_455 S
C98 O113 1.266 . S
C99 Tb89 2.809 . S
C99 C100 1.514 . S
C99 O114 1.248 . S
C99 O115 1.266 . S
C100 C99 1.514 . S
C100 C101 1.359 . S
C100 C105 1.348 . S
C101 C100 1.359 . S
C101 C102 1.380 . S
C101 H124 0.929 . S
C102 C101 1.380 . S
C102 C103 1.347 . S
C102 H125 0.931 . S
C103 C102 1.347 . S
C103 C104 1.369 . S
C104 C103 1.369 . S
C104 C105 1.408 . S
C104 H126 0.930 . S
C105 C100 1.348 . S
C105 C104 1.408 . S
C105 H127 0.930 . S
C106 O116 1.281 . S
C106 O117 1.254 1_655 S
C107 O118 1.236 1_655 S
C107 O119 1.266 . S
O108 Tb88 2.484 1_565 S
O108 C90 1.248 . S
O109 Tb88 2.440 . S
O109 C90 1.266 1_545 S
O110 Tb88 2.658 1_455 S
O110 Tb89 2.325 . S
O110 C97 1.281 . S
O111 Tb88 2.409 1_455 S
O111 C97 1.253 . S
O112 Tb88 2.378 1_565 S
O112 C98 1.236 1_655 S
O113 Tb89 2.341 1_565 S
O113 C98 1.266 . S
O114 Tb89 2.484 . S
O114 C99 1.248 . S
O115 Tb89 2.440 . S
O115 C99 1.266 . S
O116 Tb88 2.325 1_565 S
O116 Tb89 2.658 1_665 S
O116 C106 1.281 . S
O117 Tb89 2.409 1_565 S
O117 C106 1.254 1_455 S
O118 Tb89 2.378 . S
O118 C107 1.236 1_455 S
O119 Tb88 2.341 . S
O119 C107 1.266 . S
H120 C92 0.929 . S
H121 C93 0.931 . S
H122 C95 0.930 . S
H123 C96 0.930 . S
H124 C101 0.929 . S
H125 C102 0.931 . S
H126 C104 0.930 . S
H127 C105 0.930 . S
Tb128 C130 2.809 . S
Tb128 O148 2.484 . S
Tb128 O149 2.440 . S
Tb128 O150 2.658 1_545 S
Tb128 O151 2.409 1_545 S
Tb128 O152 2.378 . S
Tb128 O156 2.325 . S
Tb128 O159 2.341 1_545 S
Tb129 C139 2.809 1_544 S
Tb129 O150 2.325 1_545 S
Tb129 O153 2.341 . S
Tb129 O154 2.484 1_544 S
Tb129 O155 2.440 1_544 S
Tb129 O156 2.658 . S
Tb129 O157 2.409 1_554 S
Tb129 O158 2.378 1_544 S
C130 Tb128 2.809 . S
C130 C131 1.514 . S
C130 O148 1.248 . S
C130 O149 1.266 . S
C131 C130 1.514 . S
C131 C132 1.359 . S
C131 C136 1.348 . S
C132 C131 1.359 . S
C132 C133 1.380 . S
C132 H160 0.929 . S
C133 C132 1.380 . S
C133 C134 1.347 . S
C133 H161 0.931 . S
C134 C133 1.347 . S
C134 C135 1.369 . S
C135 C134 1.369 . S
C135 C136 1.408 . S
C135 H162 0.930 . S
C136 C131 1.348 . S
C136 C135 1.408 . S
C136 H163 0.930 . S
C137 O150 1.281 . S
C137 O151 1.254 . S
C138 O152 1.236 . S
C138 O153 1.266 . S
C139 Tb129 2.809 1_566 S
C139 C140 1.514 . S
C139 O154 1.248 . S
C139 O155 1.266 . S
C140 C139 1.514 . S
C140 C141 1.359 . S
C140 C145 1.348 . S
C141 C140 1.359 . S
C141 C142 1.380 . S
C141 H164 0.929 . S
C142 C141 1.380 . S
C142 C143 1.347 . S
C142 H165 0.931 . S
C143 C142 1.347 . S
C143 C144 1.369 . S
C144 C143 1.369 . S
C144 C145 1.408 . S
C144 H166 0.930 . S
C145 C140 1.348 . S
C145 C144 1.408 . S
C145 H167 0.930 . S
C146 O156 1.281 1_556 S
C146 O157 1.254 . S
C147 O158 1.236 . S
C147 O159 1.266 1_556 S
O148 Tb128 2.484 . S
O148 C130 1.248 . S
O149 Tb128 2.440 . S
O149 C130 1.266 . S
O150 Tb128 2.658 1_565 S
O150 Tb129 2.325 1_565 S
O150 C137 1.281 . S
O151 Tb128 2.409 1_565 S
O151 C137 1.254 . S
O152 Tb128 2.378 . S
O152 C138 1.236 . S
O153 Tb129 2.341 . S
O153 C138 1.266 . S
O154 Tb129 2.484 1_566 S
O154 C139 1.248 . S
O155 Tb129 2.440 1_566 S
O155 C139 1.266 . S
O156 Tb128 2.325 . S
O156 Tb129 2.658 . S
O156 C146 1.281 1_554 S
O157 Tb129 2.409 1_556 S
O157 C146 1.254 . S
O158 Tb129 2.378 1_566 S
O158 C147 1.236 . S
O159 Tb128 2.341 1_565 S
O159 C147 1.266 1_554 S
H160 C132 0.929 . S
H161 C133 0.931 . S
H162 C135 0.930 . S
H163 C136 0.930 . S
H164 C141 0.929 . S
H165 C142 0.931 . S
H166 C144 0.930 . S
H167 C145 0.930 . S
Tb168 C170 2.809 . S
Tb168 O188 2.484 . S
Tb168 O189 2.440 . S
Tb168 O190 2.658 . S
Tb168 O191 2.409 . S
Tb168 O192 2.378 . S
Tb168 O196 2.325 . S
Tb168 O199 2.341 . S
Tb169 C179 2.809 . S
Tb169 O190 2.325 . S
Tb169 O193 2.341 . S
Tb169 O194 2.484 . S
Tb169 O195 2.440 . S
Tb169 O196 2.658 . S
Tb169 O197 2.409 . S
Tb169 O198 2.378 . S
C170 Tb168 2.809 . S
C170 C171 1.514 . S
C170 O188 1.248 . S
C170 O189 1.266 . S
C171 C170 1.514 . S
C171 C172 1.359 . S
C171 C176 1.348 . S
C172 C171 1.359 . S
C172 C173 1.380 . S
C172 H200 0.929 . S
C173 C172 1.380 . S
C173 C174 1.347 . S
C173 H201 0.931 . S
C174 C173 1.347 . S
C174 C175 1.369 . S
C175 C174 1.369 . S
C175 C176 1.408 . S
C175 H202 0.930 . S
C176 C171 1.348 . S
C176 C175 1.408 . S
C176 H203 0.930 . S
C177 O190 1.281 . S
C177 O191 1.254 . S
C178 O192 1.236 . S
C178 O193 1.266 . S
C179 Tb169 2.809 . S
C179 C180 1.514 . S
C179 O194 1.248 . S
C179 O195 1.266 . S
C180 C179 1.514 . S
C180 C181 1.359 . S
C180 C185 1.348 . S
C181 C180 1.359 . S
C181 C182 1.380 . S
C181 H204 0.929 . S
C182 C181 1.380 . S
C182 C183 1.347 . S
C182 H205 0.931 . S
C183 C182 1.347 . S
C183 C184 1.369 . S
C184 C183 1.369 . S
C184 C185 1.408 . S
C184 H206 0.930 . S
C185 C180 1.348 . S
C185 C184 1.408 . S
C185 H207 0.930 . S
C186 O196 1.281 . S
C186 O197 1.254 . S
C187 O198 1.236 . S
C187 O199 1.266 . S
O188 Tb168 2.484 . S
O188 C170 1.248 . S
O189 Tb168 2.440 . S
O189 C170 1.266 . S
O190 Tb168 2.658 . S
O190 Tb169 2.325 . S
O190 C177 1.281 . S
O191 Tb168 2.409 . S
O191 C177 1.254 . S
O192 Tb168 2.378 . S
O192 C178 1.236 . S
O193 Tb169 2.341 . S
O193 C178 1.266 . S
O194 Tb169 2.484 . S
O194 C179 1.248 . S
O195 Tb169 2.440 . S
O195 C179 1.266 . S
O196 Tb168 2.325 . S
O196 Tb169 2.658 . S
O196 C186 1.281 . S
O197 Tb169 2.409 . S
O197 C186 1.254 . S
O198 Tb169 2.378 . S
O198 C187 1.236 . S
O199 Tb168 2.341 . S
O199 C187 1.266 . S
H200 C172 0.929 . S
H201 C173 0.931 . S
H202 C175 0.930 . S
H203 C176 0.930 . S
H204 C181 0.929 . S
H205 C182 0.931 . S
H206 C184 0.930 . S
H207 C185 0.930 . S
Tb208 C210 2.809 1_455 S
Tb208 O228 2.484 1_455 S
Tb208 O229 2.440 . S
Tb208 O230 2.658 1_556 S
Tb208 O231 2.409 1_556 S
Tb208 O232 2.378 1_456 S
Tb208 O236 2.325 1_455 S
Tb208 O239 2.341 . S
Tb209 C219 2.809 . S
Tb209 O230 2.325 . S
Tb209 O233 2.341 1_455 S
Tb209 O234 2.484 . S
Tb209 O235 2.440 . S
Tb209 O236 2.658 1_454 S
Tb209 O237 2.409 1_455 S
Tb209 O238 2.378 1_554 S
C210 Tb208 2.809 1_655 S
C210 C211 1.514 . S
C210 O228 1.248 . S
C210 O229 1.266 1_655 S
C211 C210 1.514 . S
C211 C212 1.359 . S
C211 C216 1.348 . S
C212 C211 1.359 . S
C212 C213 1.380 . S
C212 H240 0.929 . S
C213 C212 1.380 . S
C213 C214 1.347 . S
C213 H241 0.931 . S
C214 C213 1.347 . S
C214 C215 1.369 . S
C215 C214 1.369 . S
C215 C216 1.408 . S
C215 H242 0.930 . S
C216 C211 1.348 . S
C216 C215 1.408 . S
C216 H243 0.930 . S
C217 O230 1.281 . S
C217 O231 1.254 . S
C218 O232 1.236 . S
C218 O233 1.266 . S
C219 Tb209 2.809 . S
C219 C220 1.514 . S
C219 O234 1.248 . S
C219 O235 1.266 . S
C220 C219 1.514 . S
C220 C221 1.359 . S
C220 C225 1.348 . S
C221 C220 1.359 . S
C221 C222 1.380 . S
C221 H244 0.929 . S
C222 C221 1.380 . S
C222 C223 1.347 . S
C222 H245 0.931 . S
C223 C222 1.347 . S
C223 C224 1.369 . S
C224 C223 1.369 . S
C224 C225 1.408 . S
C224 H246 0.930 . S
C225 C220 1.348 . S
C225 C224 1.408 . S
C225 H247 0.930 . S
C226 O236 1.281 . S
C226 O237 1.254 1_556 S
C227 O238 1.236 . S
C227 O239 1.266 . S
O228 Tb208 2.484 1_655 S
O228 C210 1.248 . S
O229 Tb208 2.440 . S
O229 C210 1.266 1_455 S
O230 Tb208 2.658 1_554 S
O230 Tb209 2.325 . S
O230 C217 1.281 . S
O231 Tb208 2.409 1_554 S
O231 C217 1.254 . S
O232 Tb208 2.378 1_654 S
O232 C218 1.236 . S
O233 Tb209 2.341 1_655 S
O233 C218 1.266 . S
O234 Tb209 2.484 . S
O234 C219 1.248 . S
O235 Tb209 2.440 . S
O235 C219 1.266 . S
O236 Tb208 2.325 1_655 S
O236 Tb209 2.658 1_656 S
O236 C226 1.281 . S
O237 Tb209 2.409 1_655 S
O237 C226 1.254 1_554 S
O238 Tb209 2.378 1_556 S
O238 C227 1.236 . S
O239 Tb208 2.341 . S
O239 C227 1.266 . S
H240 C212 0.929 . S
H241 C213 0.931 . S
H242 C215 0.930 . S
H243 C216 0.930 . S
H244 C221 0.929 . S
H245 C222 0.931 . S
H246 C224 0.930 . S
H247 C225 0.930 . S
C6 C103 1.977 . S
C20 C143 0.813 . S
C177 N26 3.352 . S
N37 C218 3.719 . S
C138 C9 2.392 . S
C98 N15 2.844 1_455 S
C226 C31 2.464 . S
C187 C39 2.709 . S
N4 C223 2.411 . S
C146 C28 3.415 . S
C42 C106 3.045 . S
C17 C174 2.861 . S
C94 C50 1.503 . S
C61 C134 0.991 . S
N70 C186 3.415 . S
N81 C227 3.493 . S
N48 C147 2.533 . S
C107 C64 2.990 1_655 S
C217 C75 2.897 . S
C178 C86 2.571 . S
C53 C214 3.694 . S
C137 C72 2.572 . S
C97 C83 3.650 . S
N59 C183 2.220 . S
