# Generated by pormake.
# Topology zzz, (3,6)-cn, num edge types: 1
# Building blocks:
#     Node 0, Type 0, BuildingBlock: KAKCAD_clean_linker_0, # of connection points: 3
#     Node 1, Type 0, BuildingBlock: KAKCAD_clean_linker_0, # of connection points: 3
#     Node 2, Type 0, BuildingBlock: KAKCAD_clean_linker_0, # of connection points: 3
#     Node 3, Type 0, BuildingBlock: KAKCAD_clean_linker_0, # of connection points: 3
#     Node 4, Type 0, BuildingBlock: KAKCAD_clean_linker_0, # of connection points: 3
#     Node 5, Type 0, BuildingBlock: KAKCAD_clean_linker_0, # of connection points: 3
#     Node 6, Type 0, BuildingBlock: KAKCAD_clean_linker_0, # of connection points: 3
#     Node 7, Type 0, BuildingBlock: KAKCAD_clean_linker_0, # of connection points: 3
#     Node 8, Type 1, BuildingBlock: VOLQOD_clean_sbu_1, # of connection points: 6
#     Node 9, Type 1, BuildingBlock: VOLQOD_clean_sbu_1, # of connection points: 6
#     Node 10, Type 1, BuildingBlock: VOLQOD_clean_sbu_1, # of connection points: 6
#     Node 11, Type 1, BuildingBlock: VOLQOD_clean_sbu_1, # of connection points: 6
#     Edge 12, Type (0, 1), BuildingBlock: EZIPEK_clean_linker_0, # of connection points: 2
#     Edge 13, Type (0, 1), BuildingBlock: EZIPEK_clean_linker_0, # of connection points: 2
#     Edge 14, Type (0, 1), BuildingBlock: EZIPEK_clean_linker_0, # of connection points: 2
#     Edge 15, Type (0, 1), BuildingBlock: EZIPEK_clean_linker_0, # of connection points: 2
#     Edge 16, Type (0, 1), BuildingBlock: EZIPEK_clean_linker_0, # of connection points: 2
#     Edge 17, Type (0, 1), BuildingBlock: EZIPEK_clean_linker_0, # of connection points: 2
#     Edge 18, Type (0, 1), BuildingBlock: EZIPEK_clean_linker_0, # of connection points: 2
#     Edge 19, Type (0, 1), BuildingBlock: EZIPEK_clean_linker_0, # of connection points: 2
#     Edge 20, Type (0, 1), BuildingBlock: EZIPEK_clean_linker_0, # of connection points: 2
#     Edge 21, Type (0, 1), BuildingBlock: EZIPEK_clean_linker_0, # of connection points: 2
#     Edge 22, Type (0, 1), BuildingBlock: EZIPEK_clean_linker_0, # of connection points: 2
#     Edge 23, Type (0, 1), BuildingBlock: EZIPEK_clean_linker_0, # of connection points: 2
#     Edge 24, Type (0, 1), BuildingBlock: EZIPEK_clean_linker_0, # of connection points: 2
#     Edge 25, Type (0, 1), BuildingBlock: EZIPEK_clean_linker_0, # of connection points: 2
#     Edge 26, Type (0, 1), BuildingBlock: EZIPEK_clean_linker_0, # of connection points: 2
#     Edge 27, Type (0, 1), BuildingBlock: EZIPEK_clean_linker_0, # of connection points: 2
#     Edge 28, Type (0, 1), BuildingBlock: EZIPEK_clean_linker_0, # of connection points: 2
#     Edge 29, Type (0, 1), BuildingBlock: EZIPEK_clean_linker_0, # of connection points: 2
#     Edge 30, Type (0, 1), BuildingBlock: EZIPEK_clean_linker_0, # of connection points: 2
#     Edge 31, Type (0, 1), BuildingBlock: EZIPEK_clean_linker_0, # of connection points: 2
#     Edge 32, Type (0, 1), BuildingBlock: EZIPEK_clean_linker_0, # of connection points: 2
#     Edge 33, Type (0, 1), BuildingBlock: EZIPEK_clean_linker_0, # of connection points: 2
#     Edge 34, Type (0, 1), BuildingBlock: EZIPEK_clean_linker_0, # of connection points: 2
#     Edge 35, Type (0, 1), BuildingBlock: EZIPEK_clean_linker_0, # of connection points: 2
# Relax obj value: 0.357
# Max RMSD: 0.257
# Mean RMSD: 0.208
data_MOF--net-zzz--node1-VOLQOD_clean_sbu_1--node2-KAKCAD_clean_linker_0--edge1-EZIPEK_clean_linker_0
_symmetry_space_group_name_H-M    P1
_symmetry_Int_Tables_number       1
_symmetry_cell_setting            triclinic
loop_
_symmetry_equiv_pos_as_xyz
'x, y, z'
_cell_length_a     45.80156
_cell_length_b     45.034034
_cell_length_c     17.944109
_cell_angle_alpha  90.054106
_cell_angle_beta   90.203333
_cell_angle_gamma 92.300159
loop_
_atom_site_label
_atom_site_type_symbol
_atom_site_fract_x
_atom_site_fract_y
_atom_site_fract_z
_atom_type_partial_charge
C0 C 0.84317 0.42315 0.91472 0.0
C1 C 0.86829 0.41044 0.94327 0.0
C2 C 0.81873 0.42604 0.95976 0.0
C3 C 0.81904 0.41614 0.0341 0.0
C4 C 0.84276 0.39969 0.05878 0.0
C5 C 0.86737 0.39701 0.01369 0.0
C6 C 0.79825 0.42855 0.08834 0.0
C7 C 0.76937 0.43386 0.06766 0.0
C8 C 0.75212 0.45242 0.11076 0.0
C9 C 0.76374 0.46511 0.17684 0.0
C10 C 0.79209 0.45856 0.20041 0.0
C11 C 0.80902 0.44032 0.15587 0.0
C12 C 0.80603 0.47259 0.26712 0.0
C13 C 0.80825 0.5037 0.27451 0.0
C14 C 0.82162 0.45497 0.31676 0.0
C15 C 0.84082 0.4681 0.36874 0.0
C16 C 0.84479 0.49909 0.37216 0.0
C17 C 0.72332 0.46063 0.08098 0.0
C18 C 0.71729 0.49064 0.06925 0.0
C19 C 0.70346 0.43844 0.05443 0.0
C20 C 0.67879 0.44603 0.01381 0.0
C21 C 0.67373 0.47591 0.99852 0.0
C22 C 0.69273 0.49823 0.02782 0.0
C23 C 0.82755 0.51691 0.32689 0.0
H24 H 0.84363 0.43372 0.86048 0.0
H25 H 0.80102 0.4389 0.93865 0.0
H26 H 0.84338 0.39123 0.11522 0.0
H27 H 0.88666 0.38717 0.03651 0.0
H28 H 0.76089 0.4251 0.01524 0.0
H29 H 0.83163 0.43738 0.17122 0.0
H30 H 0.75086 0.48001 0.2095 0.0
H31 H 0.79668 0.51777 0.23646 0.0
H32 H 0.8202 0.43096 0.31238 0.0
H33 H 0.85377 0.45403 0.40365 0.0
H34 H 0.73246 0.50813 0.0883 0.0
H35 H 0.70766 0.41516 0.06271 0.0
H36 H 0.8303 0.54089 0.32913 0.0
H37 H 0.68912 0.5214 0.01626 0.0
H38 H 0.66431 0.42857 0.99151 0.0
C39 C 0.06128 0.83186 0.98551 0.0
C40 C 0.0833 0.85085 0.01545 0.0
C41 C 0.05204 0.80629 0.0237 0.0
C42 C 0.06466 0.79938 0.09265 0.0
C43 C 0.08827 0.81732 0.11978 0.0
C44 C 0.09763 0.84291 0.08118 0.0
C45 C 0.05035 0.77634 0.1404 0.0
C46 C 0.03971 0.74932 0.11043 0.0
C47 C 0.02234 0.72949 0.15328 0.0
C48 C 0.01551 0.73677 0.22745 0.0
C49 C 0.02641 0.76382 0.25828 0.0
C50 C 0.0439 0.78316 0.21435 0.0
C51 C 0.01783 0.77463 0.33283 0.0
C52 C 0.98825 0.77849 0.34965 0.0
C53 C 0.03942 0.78805 0.37901 0.0
C54 C 0.03185 0.80807 0.43421 0.0
C55 C 0.00251 0.8146 0.4455 0.0
C56 C 0.01105 0.70191 0.11705 0.0
C57 C 0.99169 0.70385 0.05651 0.0
C58 C 0.02416 0.67488 0.13165 0.0
C59 C 0.0195 0.65072 0.08322 0.0
C60 C 0.00158 0.65338 0.02007 0.0
C61 C 0.98687 0.67969 0.00853 0.0
C62 C 0.98061 0.79816 0.40643 0.0
H63 H 0.05011 0.83773 0.93458 0.0
H64 H 0.03365 0.79312 0.00174 0.0
H65 H 0.09854 0.8123 0.1725 0.0
H66 H 0.1148 0.85734 0.10458 0.0
H67 H 0.04453 0.74387 0.05298 0.0
H68 H 0.05089 0.80474 0.23642 0.0
H69 H 0.00152 0.72187 0.26017 0.0
H70 H 0.97119 0.76849 0.31476 0.0
H71 H 0.06236 0.78522 0.36766 0.0
H72 H 0.0491 0.82004 0.46463 0.0
H73 H 0.98175 0.72468 0.04372 0.0
H74 H 0.03959 0.67315 0.17719 0.0
H75 H 0.95779 0.80249 0.41542 0.0
H76 H 0.97313 0.68213 0.95984 0.0
H77 H 0.03115 0.63058 0.09255 0.0
C78 C 0.68369 0.06688 0.92342 0.0
C79 C 0.6679 0.09095 0.94875 0.0
C80 C 0.70849 0.05832 0.96176 0.0
C81 C 0.71764 0.07355 0.02646 0.0
C82 C 0.70329 0.09922 0.04806 0.0
C83 C 0.67873 0.10814 0.0087 0.0
C84 C 0.73832 0.05955 0.07769 0.0
C85 C 0.7649 0.04919 0.05232 0.0
C86 C 0.78259 0.0326 0.09943 0.0
C87 C 0.77319 0.02585 0.17246 0.0
C88 C 0.74619 0.03582 0.19807 0.0
C89 C 0.72929 0.05295 0.15032 0.0
C90 C 0.73336 0.02659 0.27096 0.0
C91 C 0.73227 0.99659 0.2931 0.0
C92 C 0.71754 0.04706 0.31219 0.0
C93 C 0.69871 0.03741 0.36877 0.0
C94 C 0.69576 0.00716 0.38693 0.0
C95 C 0.81039 0.02197 0.06974 0.0
C96 C 0.80999 0.00326 0.00705 0.0
C97 C 0.83726 0.03359 0.09693 0.0
C98 C 0.86323 0.02788 0.05937 0.0
C99 C 0.86263 0.01017 0.99478 0.0
C100 C 0.83592 0.99717 0.9703 0.0
C101 C 0.71378 0.98698 0.35131 0.0
H102 H 0.67574 0.05356 0.8767 0.0
H103 H 0.71906 0.03838 0.9443 0.0
H104 H 0.7101 0.11134 0.09776 0.0
H105 H 0.66693 0.12698 0.02831 0.0
H106 H 0.77174 0.05386 0.99557 0.0
H107 H 0.70785 0.05953 0.16788 0.0
H108 H 0.78647 0.01247 0.20831 0.0
H109 H 0.74412 0.98027 0.26237 0.0
H110 H 0.71836 0.07042 0.29756 0.0
H111 H 0.68546 0.05349 0.39638 0.0
H112 H 0.78944 0.99423 0.98496 0.0
H113 H 0.83798 0.04835 0.14465 0.0
H114 H 0.71222 0.9636 0.3655 0.0
H115 H 0.83502 0.98344 0.92068 0.0
H116 H 0.88363 0.03814 0.07899 0.0
C117 C 0.51357 0.68416 0.40044 0.0
C118 C 0.54293 0.67955 0.41747 0.0
C119 C 0.50627 0.70436 0.34534 0.0
C120 C 0.5282 0.71995 0.3049 0.0
C121 C 0.5575 0.71765 0.32723 0.0
C122 C 0.56481 0.69777 0.38396 0.0
C123 C 0.52076 0.7328 0.2313 0.0
C124 C 0.53233 0.76051 0.20634 0.0
C125 C 0.5267 0.77018 0.13289 0.0
C126 C 0.5097 0.75165 0.08498 0.0
C127 C 0.49834 0.72408 0.10938 0.0
C128 C 0.50363 0.71506 0.18239 0.0
C129 C 0.4845 0.70249 0.05689 0.0
C130 C 0.45824 0.68705 0.07562 0.0
C131 C 0.50015 0.69366 0.99414 0.0
C132 C 0.49103 0.6683 0.9545 0.0
C133 C 0.46599 0.65168 0.97652 0.0
C134 C 0.53869 0.79923 0.10455 0.0
C135 C 0.537 0.8252 0.14706 0.0
C136 C 0.54976 0.80153 0.03195 0.0
C137 C 0.55821 0.82911 0.00195 0.0
C138 C 0.55696 0.85565 0.04394 0.0
C139 C 0.54558 0.85294 0.11715 0.0
C140 C 0.44881 0.66195 0.03493 0.0
H141 H 0.4963 0.67085 0.42683 0.0
H142 H 0.48347 0.70607 0.33023 0.0
H143 H 0.57487 0.72935 0.29706 0.0
H144 H 0.58758 0.69493 0.39756 0.0
H145 H 0.546 0.77415 0.24328 0.0
H146 H 0.49595 0.69303 0.1996 0.0
H147 H 0.50533 0.75851 0.02827 0.0
H148 H 0.44588 0.69355 0.12393 0.0
H149 H 0.52057 0.70504 0.97911 0.0
H150 H 0.50435 0.66074 0.90899 0.0
H151 H 0.52786 0.82426 0.20266 0.0
H152 H 0.55135 0.78195 0.99731 0.0
H153 H 0.42926 0.64945 0.05198 0.0
H154 H 0.54219 0.87159 0.15263 0.0
H155 H 0.56491 0.8294 0.9442 0.0
C156 C 0.16557 0.56628 0.38553 0.0
C157 C 0.14608 0.58553 0.35224 0.0
C158 C 0.19152 0.55973 0.35001 0.0
C159 C 0.19835 0.57225 0.2803 0.0
C160 C 0.17976 0.59319 0.24945 0.0
C161 C 0.15384 0.60001 0.28561 0.0
C162 C 0.22246 0.56023 0.23612 0.0
C163 C 0.24945 0.55467 0.26925 0.0
C164 C 0.27092 0.53926 0.23056 0.0
C165 C 0.26453 0.52872 0.15785 0.0
C166 C 0.23751 0.53435 0.12449 0.0
C167 C 0.21696 0.5505 0.16329 0.0
C168 C 0.22815 0.52118 0.05265 0.0
C169 C 0.22513 0.53981 0.9907 0.0
C170 C 0.21382 0.49302 0.05279 0.0
C171 C 0.19423 0.48495 0.99558 0.0
C172 C 0.18896 0.50491 0.93755 0.0
C173 C 0.29911 0.53329 0.2687 0.0
C174 C 0.31169 0.55441 0.31845 0.0
C175 C 0.31279 0.50606 0.25959 0.0
C176 C 0.3379 0.49989 0.30077 0.0
C177 C 0.34945 0.5206 0.35271 0.0
C178 C 0.33628 0.54799 0.36057 0.0
C179 C 0.20581 0.53161 0.93309 0.0
H180 H 0.1599 0.55502 0.43717 0.0
H181 H 0.20522 0.54332 0.37479 0.0
H182 H 0.18468 0.60329 0.19595 0.0
H183 H 0.13906 0.6151 0.25959 0.0
H184 H 0.25322 0.56154 0.32648 0.0
H185 H 0.1957 0.55366 0.13825 0.0
H186 H 0.28028 0.51618 0.12737 0.0
H187 H 0.23549 0.56187 0.9904 0.0
H188 H 0.21537 0.47864 0.1009 0.0
H189 H 0.18129 0.46436 0.00015 0.0
H190 H 0.30236 0.57594 0.32561 0.0
H191 H 0.30367 0.48914 0.22242 0.0
H192 H 0.20187 0.54735 0.8889 0.0
H193 H 0.34505 0.56444 0.3996 0.0
H194 H 0.34794 0.47872 0.29344 0.0
C195 C 0.98417 0.16559 0.35086 0.0
C196 C 0.99786 0.13847 0.34302 0.0
C197 C 0.99155 0.1893 0.30323 0.0
C198 C 0.01279 0.18611 0.24757 0.0
C199 C 0.0253 0.15831 0.23819 0.0
C200 C 0.0178 0.13473 0.28524 0.0
C201 C 0.02378 0.21189 0.20273 0.0
C202 C 0.02945 0.23975 0.2358 0.0
C203 C 0.04366 0.26294 0.19585 0.0
C204 C 0.0529 0.25797 0.12217 0.0
C205 C 0.04702 0.23013 0.08864 0.0
C206 C 0.03177 0.20775 0.12846 0.0
C207 C 0.05955 0.22132 0.01666 0.0
C208 C 0.04029 0.21099 0.96041 0.0
C209 C 0.08862 0.21247 0.01581 0.0
C210 C 0.09704 0.19031 0.96638 0.0
C211 C 0.07636 0.17694 0.91764 0.0
C212 C 0.04899 0.29182 0.23369 0.0
C213 C 0.06544 0.29319 0.29993 0.0
C214 C 0.03384 0.31677 0.21109 0.0
C215 C 0.0336 0.34203 0.25666 0.0
C216 C 0.04876 0.34271 0.3249 0.0
C217 C 0.06554 0.31855 0.34487 0.0
C218 C 0.04864 0.18884 0.91127 0.0
H219 H 0.96898 0.16883 0.39601 0.0
H220 H 0.98131 0.21032 0.31135 0.0
H221 H 0.04217 0.15511 0.19713 0.0
H222 H 0.02889 0.11405 0.27943 0.0
H223 H 0.02362 0.24329 0.29354 0.0
H224 H 0.02754 0.18627 0.10229 0.0
H225 H 0.06499 0.27528 0.09206 0.0
H226 H 0.01768 0.21721 0.9607 0.0
H227 H 0.10369 0.21976 0.05944 0.0
H228 H 0.11856 0.18139 0.9718 0.0
H229 H 0.07712 0.27408 0.31855 0.0
H230 H 0.02074 0.316 0.16068 0.0
H231 H 0.03248 0.17887 0.87368 0.0
H232 H 0.07743 0.31872 0.39718 0.0
H233 H 0.02054 0.36049 0.24038 0.0
C234 C 0.39385 0.94206 0.33093 0.0
C235 C 0.39148 0.91759 0.37888 0.0
C236 C 0.37127 0.94802 0.28197 0.0
C237 C 0.34572 0.9297 0.28039 0.0
C238 C 0.34398 0.90415 0.32543 0.0
C239 C 0.36701 0.89785 0.37379 0.0
C240 C 0.32041 0.93926 0.2364 0.0
C241 C 0.29329 0.94261 0.27053 0.0
C242 C 0.27072 0.95732 0.23385 0.0
C243 C 0.27608 0.96912 0.16185 0.0
C244 C 0.30312 0.96516 0.12694 0.0
C245 C 0.32474 0.94975 0.16401 0.0
C246 C 0.31177 0.97999 0.05661 0.0
C247 C 0.32086 0.96241 0.99697 0.0
C248 C 0.3204 0.01028 0.05857 0.0
C249 C 0.34069 0.02186 0.00692 0.0
C250 C 0.35239 0.00321 0.95285 0.0
C251 C 0.24274 0.96187 0.27421 0.0
C252 C 0.23162 0.93999 0.3238 0.0
C253 C 0.22803 0.98865 0.26807 0.0
C254 C 0.20348 0.9937 0.31215 0.0
C255 C 0.19348 0.9723 0.36406 0.0
C256 C 0.20758 0.9453 0.36877 0.0
C257 C 0.34104 0.97397 0.94534 0.0
H258 H 0.4126 0.95749 0.33424 0.0
H259 H 0.37311 0.96799 0.24842 0.0
H260 H 0.32453 0.88966 0.32477 0.0
H261 H 0.36496 0.87882 0.41052 0.0
H262 H 0.29057 0.93553 0.32787 0.0
H263 H 0.34595 0.94767 0.13811 0.0
H264 H 0.25956 0.98136 0.13318 0.0
H265 H 0.31487 0.9389 0.99516 0.0
H266 H 0.31415 0.02407 0.10492 0.0
H267 H 0.34932 0.04446 0.01356 0.0
H268 H 0.24179 0.91879 0.32888 0.0
H269 H 0.236 0.00615 0.23123 0.0
H270 H 0.34986 0.95928 0.90399 0.0
H271 H 0.20005 0.92834 0.4078 0.0
H272 H 0.19276 0.01462 0.30728 0.0
C273 C 0.45723 0.31137 0.98024 0.0
C274 C 0.47728 0.326 0.93226 0.0
C275 C 0.46678 0.28975 0.03008 0.0
C276 C 0.49632 0.2824 0.03152 0.0
C277 C 0.51537 0.29469 0.97756 0.0
C278 C 0.50595 0.31637 0.92854 0.0
C279 C 0.50909 0.26981 0.09989 0.0
C280 C 0.50219 0.24085 0.12581 0.0
C281 C 0.51481 0.23099 0.19276 0.0
C282 C 0.53313 0.25052 0.23451 0.0
C283 C 0.53901 0.27972 0.21065 0.0
C284 C 0.52744 0.28886 0.14259 0.0
C285 C 0.55303 0.30221 0.26101 0.0
C286 C 0.54331 0.30423 0.33496 0.0
C287 C 0.57196 0.32485 0.23261 0.0
C288 C 0.5785 0.35042 0.27471 0.0
C289 C 0.56615 0.35351 0.34549 0.0
C290 C 0.50835 0.20108 0.22382 0.0
C291 C 0.53127 0.1816 0.23292 0.0
C292 C 0.48156 0.19468 0.25938 0.0
C293 C 0.47847 0.17025 0.30754 0.0
C294 C 0.5021 0.15194 0.32024 0.0
C295 C 0.52812 0.15714 0.28045 0.0
C296 C 0.54977 0.32975 0.37677 0.0
H297 H 0.43496 0.31848 0.98356 0.0
H298 H 0.45182 0.28093 0.07193 0.0
H299 H 0.53829 0.28957 0.97808 0.0
H300 H 0.52165 0.32724 0.89148 0.0
H301 H 0.48748 0.22618 0.09418 0.0
H302 H 0.53115 0.3117 0.12468 0.0
H303 H 0.54194 0.24324 0.28732 0.0
H304 H 0.52852 0.28734 0.35828 0.0
H305 H 0.58002 0.32369 0.17604 0.0
H306 H 0.59113 0.36867 0.24989 0.0
H307 H 0.55225 0.18643 0.20699 0.0
H308 H 0.46384 0.20978 0.25434 0.0
H309 H 0.54002 0.33194 0.43134 0.0
H310 H 0.54661 0.14333 0.28981 0.0
H311 H 0.4583 0.16667 0.3382 0.0
O312 O 0.10218 0.9942 0.63743 0.0
Zn313 Zn 0.07484 1.00042 0.72461 0.0
O314 O 0.03335 0.99475 0.69451 0.0
Zn315 Zn 0.01256 0.03035 0.71804 0.0
Zn316 Zn 0.03129 0.98672 0.58741 0.0
Zn317 Zn 0.01369 0.96179 0.74748 0.0
O318 O 0.97746 0.02249 0.78366 0.0
O319 O 0.97794 0.97392 0.80438 0.0
O320 O 0.08332 0.04188 0.76735 0.0
O321 O 0.03898 0.06039 0.76898 0.0
O322 O 0.00046 0.05016 0.6244 0.0
O323 O 0.01065 0.01894 0.53276 0.0
O324 O 0.01436 0.94544 0.56651 0.0
O325 O 0.08455 0.97025 0.80311 0.0
O326 O 0.00195 0.92803 0.6782 0.0
O327 O 0.04201 0.94523 0.81955 0.0
C328 C 0.0973 0.98944 0.56838 0.0
C329 C 0.96656 0.99899 0.81372 0.0
C330 C 0.00073 0.04333 0.55567 0.0
C331 C 0.06622 0.06268 0.78261 0.0
C332 C 0.00442 0.92449 0.60816 0.0
C333 C 0.06895 0.94993 0.83479 0.0
O334 O 0.0714 0.98695 0.54273 0.0
O335 O 0.50591 0.06727 0.619 0.0
Zn336 Zn 0.51296 0.0428 0.71175 0.0
O337 O 0.52781 0.0033 0.68633 0.0
Zn338 Zn 0.50224 0.97186 0.72818 0.0
Zn339 Zn 0.52991 0.99965 0.57785 0.0
Zn340 Zn 0.56654 0.99782 0.72789 0.0
O341 O 0.52218 0.94585 0.80285 0.0
O342 O 0.56738 0.96551 0.80576 0.0
O343 O 0.47474 0.03878 0.76909 0.0
O344 O 0.46886 0.98972 0.78177 0.0
O345 O 0.4837 0.9471 0.64716 0.0
O346 O 0.50047 0.96811 0.54249 0.0
O347 O 0.57126 0.99297 0.54338 0.0
O348 O 0.54304 0.06642 0.77341 0.0
O349 O 0.59643 0.99016 0.64894 0.0
O350 O 0.57969 0.03532 0.77798 0.0
C351 C 0.50989 0.06226 0.54996 0.0
C352 C 0.54808 0.94663 0.82884 0.0
C353 C 0.48382 0.94927 0.57647 0.0
C354 C 0.46031 0.01589 0.79254 0.0
C355 C 0.59535 0.99023 0.57806 0.0
C356 C 0.56884 0.06015 0.79299 0.0
O357 O 0.51907 0.03757 0.52721 0.0
O358 O 0.44426 0.49897 0.61761 0.0
Zn359 Zn 0.4722 0.49536 0.70511 0.0
O360 O 0.51328 0.50086 0.67227 0.0
Zn361 Zn 0.53417 0.46498 0.69284 0.0
Zn362 Zn 0.51452 0.50905 0.56562 0.0
Zn363 Zn 0.53331 0.53415 0.72389 0.0
O364 O 0.56917 0.47305 0.75936 0.0
O365 O 0.56706 0.5211 0.78695 0.0
O366 O 0.465 0.4552 0.75629 0.0
O367 O 0.50844 0.43512 0.74639 0.0
O368 O 0.54651 0.44577 0.59805 0.0
O369 O 0.5375 0.47902 0.51009 0.0
O370 O 0.52976 0.55076 0.54489 0.0
O371 O 0.46238 0.52768 0.77813 0.0
O372 O 0.54697 0.56707 0.65387 0.0
O373 O 0.50491 0.55305 0.79082 0.0
C374 C 0.44856 0.50333 0.54823 0.0
C375 C 0.57879 0.4961 0.79406 0.0
C376 C 0.54705 0.4541 0.53034 0.0
C377 C 0.48198 0.43387 0.7676 0.0
C378 C 0.5421 0.57105 0.58477 0.0
C379 C 0.47796 0.54899 0.806 0.0
O380 O 0.47422 0.50661 0.52179 0.0
O381 O 0.96091 0.53973 0.578 0.0
Zn382 Zn 0.00049 0.54223 0.63046 0.0
O383 O 0.01377 0.50228 0.65679 0.0
Zn384 Zn 0.01766 0.49851 0.76463 0.0
Zn385 Zn 0.98552 0.47218 0.62026 0.0
Zn386 Zn 0.05172 0.49513 0.61291 0.0
O387 O 0.0588 0.49072 0.79646 0.0
O388 O 0.08373 0.49418 0.69066 0.0
O389 O 0.99817 0.56816 0.72267 0.0
O390 O 0.00889 0.53714 0.81443 0.0
O391 O 0.98908 0.46796 0.80583 0.0
O392 O 0.96449 0.45191 0.70554 0.0
O393 O 0.00429 0.44219 0.55408 0.0
O394 O 0.02895 0.56267 0.55904 0.0
O395 O 0.05109 0.4574 0.55157 0.0
O396 O 0.06253 0.52863 0.54497 0.0
C397 C 0.94623 0.51743 0.55167 0.0
C398 C 0.0829 0.49161 0.76126 0.0
C399 C 0.96844 0.45236 0.77576 0.0
C400 C 0.00192 0.56263 0.79163 0.0
C401 C 0.03042 0.43926 0.53187 0.0
C402 C 0.05239 0.55381 0.52996 0.0
O403 O 0.95408 0.49095 0.56126 0.0
C404 C 0.17059 0.00079 0.46897 0.0
C405 C 0.1684 0.9779 0.41438 0.0
C406 C 0.12166 0.96044 0.46785 0.0
C407 C 0.12212 0.98542 0.51643 0.0
N408 N 0.14441 0.03303 0.55099 0.0
N409 N 0.13848 0.94028 0.35139 0.0
C410 C 0.14586 0.00667 0.51364 0.0
C411 C 0.14287 0.95905 0.41061 0.0
N412 N 0.19655 0.01615 0.48047 0.0
N413 N 0.10194 0.93725 0.4785 0.0
H414 H 0.15316 0.93918 0.30724 0.0
H415 H 0.11892 0.92816 0.34238 0.0
H416 H 0.08705 0.93642 0.52234 0.0
H417 H 0.10258 0.91735 0.44897 0.0
H418 H 0.20007 0.03087 0.52473 0.0
H419 H 0.21542 0.01209 0.45042 0.0
H420 H 0.15987 0.05044 0.54467 0.0
H421 H 0.1263 0.03874 0.58215 0.0
C422 C 0.51726 0.13649 0.44826 0.0
C423 C 0.50131 0.12984 0.38196 0.0
C424 C 0.4863 0.08108 0.43313 0.0
C425 C 0.50553 0.08623 0.49458 0.0
N426 N 0.54322 0.11714 0.55401 0.0
N427 N 0.47266 0.09495 0.30734 0.0
C428 C 0.52191 0.11358 0.50079 0.0
C429 C 0.48623 0.10192 0.37338 0.0
N430 N 0.52761 0.16491 0.46163 0.0
N431 N 0.46749 0.05672 0.43301 0.0
H432 H 0.47178 0.10986 0.26301 0.0
H433 H 0.46411 0.07377 0.29453 0.0
H434 H 0.46657 0.04134 0.47648 0.0
H435 H 0.451 0.05321 0.39352 0.0
H436 H 0.53667 0.17174 0.51246 0.0
H437 H 0.52457 0.18239 0.42463 0.0
H438 H 0.55802 0.13531 0.55556 0.0
H439 H 0.54811 0.10073 0.59248 0.0
C440 C 0.37418 0.49129 0.45355 0.0
C441 C 0.37552 0.5142 0.39909 0.0
C442 C 0.42305 0.53165 0.44829 0.0
C443 C 0.42328 0.50682 0.49716 0.0
N444 N 0.40163 0.45926 0.53366 0.0
N445 N 0.40463 0.5513 0.33277 0.0
C446 C 0.39958 0.4855 0.49621 0.0
C447 C 0.40107 0.53282 0.39268 0.0
N448 N 0.34843 0.4759 0.46703 0.0
N449 N 0.4427 0.55505 0.45747 0.0
H450 H 0.38929 0.55222 0.28977 0.0
H451 H 0.42411 0.56327 0.32197 0.0
H452 H 0.458 0.55628 0.50063 0.0
H453 H 0.44155 0.57481 0.42757 0.0
H454 H 0.3456 0.46119 0.51144 0.0
H455 H 0.32914 0.47983 0.43835 0.0
H456 H 0.38612 0.4418 0.52874 0.0
H457 H 0.42022 0.45371 0.56346 0.0
C458 C 0.0567 0.3964 0.36259 0.0
C459 C 0.04497 0.3675 0.37858 0.0
C460 C 0.02802 0.38494 0.49991 0.0
C461 C 0.03659 0.41451 0.48017 0.0
N462 N 0.05417 0.44918 0.38606 0.0
N463 N 0.0143 0.33551 0.45613 0.0
C464 C 0.04974 0.42051 0.40978 0.0
C465 C 0.02919 0.36209 0.44556 0.0
N466 N 0.07502 0.40073 0.30329 0.0
N467 N 0.01972 0.37844 0.57137 0.0
H468 H 0.01399 0.31832 0.41711 0.0
H469 H 0.99995 0.33157 0.50027 0.0
H470 H 0.01937 0.39441 0.61347 0.0
H471 H 0.01611 0.3568 0.59069 0.0
H472 H 0.08667 0.42068 0.29353 0.0
H473 H 0.08063 0.38358 0.26763 0.0
H474 H 0.06081 0.4547 0.33218 0.0
H475 H 0.04853 0.46755 0.41748 0.0
C476 C 0.89107 0.0204 0.87736 0.0
C477 C 0.88947 0.00714 0.94907 0.0
C478 C 0.93958 0.99063 0.93488 0.0
C479 C 0.93985 0.00102 0.86005 0.0
N480 N 0.91314 0.0199 0.75514 0.0
N481 N 0.91021 0.97514 0.04121 0.0
C482 C 0.91482 0.01427 0.82986 0.0
C483 C 0.91317 0.99093 0.97648 0.0
N484 N 0.87045 0.03974 0.85543 0.0
N485 N 0.96481 0.9818 0.96752 0.0
H486 H 0.89118 0.97475 0.07301 0.0
H487 H 0.92559 0.96039 0.05979 0.0
H488 H 0.98481 0.98202 0.93991 0.0
H489 H 0.96652 0.97699 0.0241 0.0
H490 H 0.87227 0.0524 0.80697 0.0
H491 H 0.85302 0.04544 0.88911 0.0
H492 H 0.89417 0.02669 0.72909 0.0
H493 H 0.9296 0.0148 0.71778 0.0
C494 C 0.58304 0.88574 0.94245 0.0
C495 C 0.56466 0.88518 0.0059 0.0
C496 C 0.54185 0.93005 0.96165 0.0
C497 C 0.55539 0.92658 0.89118 0.0
N498 N 0.59039 0.90191 0.81478 0.0
N499 N 0.54804 0.92135 0.09284 0.0
C500 C 0.57704 0.90513 0.88214 0.0
C501 C 0.54956 0.91127 0.02146 0.0
N502 N 0.60704 0.86874 0.9424 0.0
N503 N 0.52215 0.95161 0.97244 0.0
H504 H 0.56162 0.91317 0.13414 0.0
H505 H 0.5387 0.94128 0.10725 0.0
H506 H 0.51738 0.96741 0.9322 0.0
H507 H 0.5095 0.95269 0.02052 0.0
H508 H 0.62295 0.86977 0.90108 0.0
H509 H 0.61232 0.85588 0.9886 0.0
H510 H 0.60393 0.88454 0.80263 0.0
H511 H 0.5863 0.91541 0.76903 0.0
C512 C 0.65494 0.48282 0.86841 0.0
C513 C 0.64986 0.48348 0.94647 0.0
C514 C 0.59816 0.49295 0.92455 0.0
C515 C 0.60349 0.49329 0.84661 0.0
N516 N 0.63721 0.49356 0.74396 0.0
N517 N 0.61839 0.49356 0.04992 0.0
C518 C 0.63199 0.48964 0.8184 0.0
C519 C 0.62198 0.48999 0.97486 0.0
N520 N 0.68157 0.47497 0.84216 0.0
N521 N 0.57014 0.49411 0.95025 0.0
H522 H 0.63516 0.49066 0.08841 0.0
H523 H 0.59955 0.50148 0.07385 0.0
H524 H 0.55217 0.49661 0.91527 0.0
H525 H 0.56429 0.49055 0.00561 0.0
H526 H 0.68569 0.47048 0.78637 0.0
H527 H 0.69936 0.47121 0.87685 0.0
H528 H 0.65798 0.49435 0.72057 0.0
H529 H 0.62083 0.49842 0.70581 0.0
C530 C 0.97819 0.60826 0.95773 0.0
C531 C 0.00119 0.63027 0.96086 0.0
C532 C 0.0246 0.60793 0.85272 0.0
C533 C 0.00072 0.58698 0.84686 0.0
N534 N 0.9527 0.56964 0.88515 0.0
N535 N 0.04379 0.65436 0.90515 0.0
C536 C 0.9769 0.58782 0.89704 0.0
C537 C 0.02368 0.63106 0.90648 0.0
N538 N 0.95802 0.60654 0.01368 0.0
N539 N 0.0487 0.605 0.80885 0.0
H540 H 0.04437 0.67142 0.94455 0.0
H541 H 0.05856 0.65807 0.86186 0.0
H542 H 0.05001 0.5888 0.76756 0.0
H543 H 0.06826 0.6172 0.81681 0.0
H544 H 0.9425 0.58916 0.01916 0.0
H545 H 0.95809 0.62152 0.05808 0.0
H546 H 0.93342 0.57093 0.91529 0.0
H547 H 0.95103 0.5548 0.84054 0.0
C548 C 0.01891 0.115 0.45475 0.0
C549 C 0.99582 0.1157 0.40219 0.0
C550 C 0.97362 0.07 0.45521 0.0
C551 C 0.99842 0.0678 0.50197 0.0
N552 N 0.04739 0.08486 0.53631 0.0
N553 N 0.95219 0.09344 0.3471 0.0
C554 C 0.02178 0.08944 0.49923 0.0
C555 C 0.97329 0.09313 0.40108 0.0
N556 N 0.03798 0.13899 0.46269 0.0
N557 N 0.95038 0.05031 0.46352 0.0
H558 H 0.95098 0.1106 0.30829 0.0
H559 H 0.93689 0.07608 0.33817 0.0
H560 H 0.95043 0.0329 0.50185 0.0
H561 H 0.93047 0.05232 0.43623 0.0
H562 H 0.05324 0.14099 0.50578 0.0
H563 H 0.03678 0.15821 0.43061 0.0
H564 H 0.06631 0.09813 0.52888 0.0
H565 H 0.05081 0.0662 0.56911 0.0
C566 C 0.44203 0.90762 0.42347 0.0
C567 C 0.4132 0.91587 0.43985 0.0
C568 C 0.43034 0.94266 0.55078 0.0
C569 C 0.45941 0.93473 0.53449 0.0
N570 N 0.49231 0.90463 0.46604 0.0
N571 N 0.37868 0.93296 0.52991 0.0
C572 C 0.46505 0.91542 0.47425 0.0
C573 C 0.40697 0.93022 0.50778 0.0
N574 N 0.44739 0.89342 0.35792 0.0
N575 N 0.42512 0.9642 0.60244 0.0
H576 H 0.36083 0.92494 0.49875 0.0
H577 H 0.37302 0.94046 0.58266 0.0
H578 H 0.44142 0.97548 0.6331 0.0
H579 H 0.40475 0.97325 0.60973 0.0
H580 H 0.46826 0.88979 0.33799 0.0
H581 H 0.43059 0.88616 0.322 0.0
H582 H 0.49737 0.88859 0.42687 0.0
H583 H 0.50942 0.91007 0.50278 0.0
C584 C 0.58641 0.39231 0.43464 0.0
C585 C 0.56509 0.38304 0.38129 0.0
C586 C 0.53322 0.42231 0.42031 0.0
C587 C 0.55473 0.43217 0.47308 0.0
N588 N 0.60407 0.43108 0.51966 0.0
N589 N 0.52235 0.39377 0.30873 0.0
C590 C 0.58214 0.41859 0.47671 0.0
C591 C 0.54001 0.39978 0.36894 0.0
N592 N 0.61011 0.37546 0.44669 0.0
N593 N 0.50547 0.43245 0.42311 0.0
H594 H 0.52618 0.37688 0.27062 0.0
H595 H 0.50555 0.40734 0.29261 0.0
H596 H 0.49866 0.44797 0.46174 0.0
H597 H 0.48818 0.42328 0.39171 0.0
H598 H 0.62476 0.37905 0.49058 0.0
H599 H 0.61427 0.35677 0.41458 0.0
H600 H 0.62535 0.42378 0.51991 0.0
H601 H 0.60157 0.45054 0.55023 0.0
C602 C 0.09317 0.56926 0.35603 0.0
C603 C 0.11658 0.58753 0.38495 0.0
C604 C 0.09057 0.59323 0.50254 0.0
C605 C 0.06884 0.57254 0.47621 0.0
N606 N 0.04363 0.54908 0.37328 0.0
N607 N 0.13393 0.62404 0.47392 0.0
C608 C 0.0681 0.56364 0.40078 0.0
C609 C 0.11382 0.6022 0.45425 0.0
N610 N 0.09592 0.55541 0.28874 0.0
N611 N 0.08986 0.60262 0.5749 0.0
H612 H 0.15104 0.63072 0.43862 0.0
H613 H 0.13234 0.63711 0.52148 0.0
H614 H 0.07241 0.59709 0.61019 0.0
H615 H 0.10672 0.61502 0.60057 0.0
H616 H 0.08124 0.53896 0.26904 0.0
H617 H 0.11372 0.55929 0.25363 0.0
H618 H 0.04056 0.54386 0.3172 0.0
H619 H 0.02517 0.54478 0.40617 0.0
C620 C 0.07388 0.90511 0.00831 0.0
C621 C 0.08869 0.8803 0.98065 0.0
C622 C 0.09876 0.90606 0.8632 0.0
C623 C 0.08216 0.9299 0.88896 0.0
N624 N 0.06202 0.95676 0.99096 0.0
N625 N 0.1223 0.86015 0.89347 0.0
C626 C 0.07263 0.931 0.96367 0.0
C627 C 0.10374 0.88196 0.91199 0.0
N628 N 0.05932 0.90315 0.07462 0.0
N629 N 0.10793 0.90552 0.79082 0.0
H630 H 0.12608 0.8423 0.92886 0.0
H631 H 0.1358 0.86106 0.84691 0.0
H632 H 0.10531 0.9232 0.75421 0.0
H633 H 0.11693 0.88713 0.76595 0.0
H634 H 0.04515 0.91904 0.09328 0.0
H635 H 0.06017 0.88478 0.10973 0.0
H636 H 0.05685 0.95998 0.04676 0.0
H637 H 0.06103 0.97595 0.95858 0.0
C638 C 0.63671 0.10446 0.84101 0.0
C639 C 0.63857 0.09537 0.91633 0.0
C640 C 0.58683 0.07949 0.91381 0.0
C641 C 0.58751 0.08149 0.83545 0.0
N642 N 0.61068 0.099 0.72317 0.0
N643 N 0.61513 0.0754 0.02715 0.0
C644 C 0.61151 0.09573 0.79881 0.0
C645 C 0.61328 0.08412 0.95439 0.0
N646 N 0.65943 0.12063 0.81013 0.0
N647 N 0.56111 0.0719 0.94846 0.0
H648 H 0.63397 0.07849 0.0593 0.0
H649 H 0.59843 0.06365 0.05488 0.0
H650 H 0.5417 0.06811 0.91863 0.0
H651 H 0.55842 0.07219 0.00604 0.0
H652 H 0.65893 0.12962 0.75675 0.0
H653 H 0.67799 0.12713 0.84098 0.0
H654 H 0.62859 0.10599 0.69123 0.0
H655 H 0.59182 0.09378 0.69218 0.0
C656 C 0.44796 0.62107 0.8682 0.0
C657 C 0.45975 0.62233 0.94135 0.0
C658 C 0.47374 0.57052 0.9326 0.0
C659 C 0.46499 0.57046 0.85689 0.0
N660 N 0.43776 0.59163 0.7566 0.0
N661 N 0.4777 0.59725 0.05008 0.0
C662 C 0.44974 0.59438 0.82629 0.0
C663 C 0.4703 0.59651 0.97615 0.0
N664 N 0.43639 0.64594 0.83827 0.0
N665 N 0.48669 0.54611 0.96106 0.0
H666 H 0.47644 0.61623 0.08295 0.0
H667 H 0.4835 0.57879 0.08065 0.0
H668 H 0.48787 0.5263 0.93111 0.0
H669 H 0.49668 0.5453 0.01309 0.0
H670 H 0.43001 0.64796 0.78292 0.0
H671 H 0.43362 0.66521 0.86939 0.0
H672 H 0.42491 0.60739 0.7318 0.0
H673 H 0.43907 0.57233 0.7248 0.0
C674 C 0.90845 0.44778 0.92038 0.0
C675 C 0.8967 0.4186 0.90826 0.0
C676 C 0.93589 0.40941 0.81949 0.0
C677 C 0.94491 0.43991 0.82404 0.0
N678 N 0.93491 0.48962 0.86626 0.0
N679 N 0.89764 0.37169 0.84425 0.0
C680 C 0.9301 0.4595 0.87162 0.0
C681 C 0.91007 0.39928 0.85749 0.0
N682 N 0.89876 0.46449 0.9783 0.0
N683 N 0.95229 0.39019 0.78012 0.0
H684 H 0.87931 0.36349 0.87318 0.0
H685 H 0.90443 0.35768 0.80209 0.0
H686 H 0.97135 0.39703 0.75226 0.0
H687 H 0.94839 0.36726 0.77999 0.0
H688 H 0.90885 0.48468 0.99417 0.0
H689 H 0.88254 0.45695 0.01512 0.0
H690 H 0.92226 0.50483 0.894 0.0
H691 H 0.94913 0.49972 0.82791 0.0
C692 C 0.07666 0.12141 0.92963 0.0
C693 C 0.08111 0.14722 0.88467 0.0
C694 C 0.08292 0.11616 0.77264 0.0
C695 C 0.07758 0.0906 0.8175 0.0
N696 N 0.07732 0.06761 0.93822 0.0
N697 N 0.09477 0.16928 0.76729 0.0
C698 C 0.07731 0.09286 0.89603 0.0
C699 C 0.08642 0.14458 0.80724 0.0
N700 N 0.0698 0.12416 0.00342 0.0
N701 N 0.08357 0.1132 0.69687 0.0
H702 H 0.0974 0.19027 0.79172 0.0
H703 H 0.10126 0.16877 0.71181 0.0
H704 H 0.08292 0.09247 0.67073 0.0
H705 H 0.08381 0.13101 0.65996 0.0
H706 H 0.06279 0.10637 0.03671 0.0
H707 H 0.06907 0.14453 0.03081 0.0
H708 H 0.07993 0.06766 0.99588 0.0
H709 H 0.07748 0.04642 0.91465 0.0
C710 C 0.37955 0.0209 0.83849 0.0
C711 C 0.38008 0.01193 0.91417 0.0
C712 C 0.43372 0.01444 0.91324 0.0
C713 C 0.43306 0.01916 0.83531 0.0
N714 N 0.40602 0.02622 0.72178 0.0
N715 N 0.40737 0.99781 0.02325 0.0
C716 C 0.40615 0.02263 0.79742 0.0
C717 C 0.40711 0.00843 0.95183 0.0
N718 N 0.35361 0.02786 0.80636 0.0
N719 N 0.4599 0.01587 0.95025 0.0
H720 H 0.38848 0.99344 0.05426 0.0
H721 H 0.4262 0.99128 0.05033 0.0
H722 H 0.47977 0.02016 0.92322 0.0
H723 H 0.4618 0.01556 0.00807 0.0
H724 H 0.35188 0.03713 0.7535 0.0
H725 H 0.33386 0.02652 0.83522 0.0
H726 H 0.38711 0.02534 0.68937 0.0
H727 H 0.42514 0.0286 0.69057 0.0
C728 C 0.47367 0.38142 0.93171 0.0
C729 C 0.47015 0.35394 0.89294 0.0
C730 C 0.46401 0.38078 0.77515 0.0
C731 C 0.47212 0.40769 0.81215 0.0
N732 N 0.48407 0.43469 0.92468 0.0
N733 N 0.46058 0.32673 0.77951 0.0
C734 C 0.47614 0.40839 0.89051 0.0
C735 C 0.46444 0.35345 0.81516 0.0
N736 N 0.47513 0.38162 0.00787 0.0
N737 N 0.45601 0.3816 0.70174 0.0
H738 H 0.4594 0.30655 0.80812 0.0
H739 H 0.45951 0.32431 0.7219 0.0
H740 H 0.45551 0.40145 0.67185 0.0
H741 H 0.44777 0.36327 0.67198 0.0
H742 H 0.47468 0.40082 0.04006 0.0
H743 H 0.47468 0.36233 0.03993 0.0
H744 H 0.49117 0.43645 0.9797 0.0
H745 H 0.48477 0.45501 0.8967 0.0
C746 C 0.16018 0.47931 0.83363 0.0
C747 C 0.16208 0.50088 0.89132 0.0
C748 C 0.11391 0.51822 0.85692 0.0
C749 C 0.11049 0.49462 0.80472 0.0
N750 N 0.12869 0.45018 0.74961 0.0
N751 N 0.13789 0.53616 0.96915 0.0
C752 C 0.13323 0.47446 0.79448 0.0
C753 C 0.13809 0.51895 0.90629 0.0
N754 N 0.18428 0.46398 0.81529 0.0
N755 N 0.09485 0.54086 0.85709 0.0
H756 H 0.15489 0.53705 0.00802 0.0
H757 H 0.11956 0.54722 0.98658 0.0
H758 H 0.07745 0.54208 0.81972 0.0
H759 H 0.09817 0.56011 0.88879 0.0
H760 H 0.18525 0.45019 0.76885 0.0
H761 H 0.20416 0.46686 0.84347 0.0
H762 H 0.14326 0.43308 0.74572 0.0
H763 H 0.10918 0.44586 0.72071 0.0
C764 C 0.00536 0.84102 0.56823 0.0
C765 C 0.99585 0.84065 0.49307 0.0
C766 C 0.98266 0.89266 0.50581 0.0
C767 C 0.99814 0.89467 0.57433 0.0
N768 N 0.02867 0.87054 0.66527 0.0
N769 N 0.97879 0.86812 0.38639 0.0
C770 C 0.0103 0.86871 0.60505 0.0
C771 C 0.98496 0.86688 0.46086 0.0
N772 N 0.01022 0.81488 0.60385 0.0
N773 N 0.96567 0.91531 0.48377 0.0
H774 H 0.98105 0.85032 0.35009 0.0
H775 H 0.97395 0.88779 0.3593 0.0
H776 H 0.96286 0.93413 0.51657 0.0
H777 H 0.95193 0.91385 0.43736 0.0
H778 H 0.01476 0.81366 0.6607 0.0
H779 H 0.0066 0.79427 0.57801 0.0
H780 H 0.04028 0.8526 0.68428 0.0
H781 H 0.035 0.89038 0.6916 0.0
C782 C 0.64796 0.97949 0.41771 0.0
C783 C 0.67267 0.99732 0.44109 0.0
C784 C 0.64704 0.01011 0.55536 0.0
C785 C 0.62311 0.99055 0.5348 0.0
N786 N 0.60504 0.95033 0.45617 0.0
N787 N 0.69879 0.02181 0.54195 0.0
C788 C 0.62496 0.97315 0.46911 0.0
C789 C 0.67325 0.00981 0.51353 0.0
N790 N 0.64539 0.97012 0.34546 0.0
N791 N 0.64422 0.03085 0.61033 0.0
H792 H 0.71845 0.02159 0.51273 0.0
H793 H 0.70095 0.02895 0.59705 0.0
H794 H 0.6248 0.03422 0.63848 0.0
H795 H 0.66029 0.04728 0.6218 0.0
H796 H 0.62633 0.95988 0.32412 0.0
H797 H 0.66112 0.97489 0.30499 0.0
H798 H 0.60693 0.93533 0.41234 0.0
H799 H 0.58851 0.94445 0.49385 0.0
C800 C 0.54017 0.65414 0.54143 0.0
C801 C 0.54986 0.65406 0.46656 0.0
C802 C 0.56308 0.60206 0.48067 0.0
C803 C 0.54852 0.60064 0.55025 0.0
N804 N 0.51933 0.62517 0.64273 0.0
N805 N 0.57096 0.62635 0.36452 0.0
C806 C 0.53649 0.62676 0.58051 0.0
C807 C 0.56172 0.62793 0.43642 0.0
N808 N 0.53433 0.68048 0.57497 0.0
N809 N 0.5776 0.57821 0.455 0.0
H810 H 0.57005 0.64363 0.32604 0.0
H811 H 0.57005 0.64363 0.32604 0.0
H812 H 0.58033 0.55914 0.48685 0.0
H813 H 0.5882 0.57831 0.40357 0.0
H814 H 0.52988 0.68238 0.63164 0.0
H815 H 0.53697 0.70084 0.54755 0.0
H816 H 0.50736 0.64285 0.66161 0.0
H817 H 0.51459 0.60562 0.67189 0.0
C818 C 0.86614 0.51216 0.49723 0.0
C819 C 0.86906 0.51205 0.41863 0.0
C820 C 0.92104 0.52686 0.43106 0.0
C821 C 0.91909 0.52164 0.50869 0.0
N822 N 0.89033 0.5104 0.61781 0.0
N823 N 0.89918 0.51857 0.3092 0.0
C824 C 0.89166 0.51504 0.54259 0.0
C825 C 0.89637 0.51984 0.38498 0.0
N826 N 0.83891 0.50946 0.52798 0.0
N827 N 0.94666 0.53804 0.40153 0.0
H828 H 0.88165 0.51392 0.27332 0.0
H829 H 0.91916 0.52034 0.28179 0.0
H830 H 0.96517 0.5429 0.43404 0.0
H831 H 0.94886 0.54499 0.34644 0.0
H832 H 0.83484 0.51175 0.58467 0.0
H833 H 0.81996 0.50741 0.49558 0.0
H834 H 0.87179 0.50204 0.64525 0.0
H835 H 0.90841 0.51389 0.65279 0.0
loop_
_geom_bond_atom_site_label_1
_geom_bond_atom_site_label_2
_geom_bond_distance
_geom_bond_site_symmetry_2
_ccdc_geom_bond_type
C0 C1 1.386 . S
C0 C2 1.397 . S
C0 H24 0.931 . S
C1 C0 1.386 . S
C1 C5 1.397 . S
C2 C0 1.397 . S
C2 C3 1.384 . S
C2 H25 0.930 . S
C3 C2 1.384 . S
C3 C4 1.377 . S
C3 C6 1.481 . S
C4 C3 1.377 . S
C4 C5 1.389 . S
C4 H26 0.929 . S
C5 C1 1.397 . S
C5 C4 1.389 . S
C5 H27 0.931 . S
C6 C3 1.481 . S
C6 C7 1.387 . S
C6 C11 1.390 1_556 S
C7 C6 1.387 . S
C7 C8 1.401 1_556 S
C7 H28 0.930 . S
C8 C7 1.401 1_554 S
C8 C9 1.376 . S
C8 C17 1.511 1_554 S
C9 C8 1.376 . S
C9 C10 1.392 . S
C9 H30 0.931 . S
C10 C9 1.392 . S
C10 C11 1.361 . S
C10 C12 1.500 . S
C11 C6 1.390 1_554 S
C11 C10 1.361 . S
C11 H29 0.931 . S
C12 C10 1.500 . S
C12 C13 1.371 . S
C12 C14 1.365 . S
C13 C12 1.371 . S
C13 C23 1.386 . S
C13 H31 0.931 . S
C14 C12 1.365 . S
C14 C15 1.409 . S
C14 H32 0.929 . S
C15 C14 1.409 . S
C15 C16 1.380 . S
C15 H33 0.930 . S
C16 C15 1.380 . S
C16 C23 1.357 . S
C17 C8 1.511 1_556 S
C17 C18 1.341 . S
C17 C19 1.371 1_556 S
C18 C17 1.341 . S
C18 C22 1.394 . S
C18 H34 0.930 . S
C19 C17 1.371 1_554 S
C19 C20 1.392 . S
C19 H35 0.931 . S
C20 C19 1.392 . S
C20 C21 1.331 1_554 S
C20 H38 0.932 . S
C21 C20 1.331 1_556 S
C21 C22 1.336 . S
C22 C18 1.394 . S
C22 C21 1.336 . S
C22 H37 0.929 . S
C23 C13 1.386 . S
C23 C16 1.357 . S
C23 H36 0.928 . S
H24 C0 0.931 . S
H25 C2 0.930 . S
H26 C4 0.929 . S
H27 C5 0.931 . S
H28 C7 0.930 . S
H29 C11 0.931 . S
H30 C9 0.931 . S
H31 C13 0.931 . S
H32 C14 0.929 . S
H33 C15 0.930 . S
H34 C18 0.930 . S
H35 C19 0.931 . S
H36 C23 0.928 . S
H37 C22 0.929 . S
H38 C20 0.932 . S
C39 C40 1.386 . S
C39 C41 1.397 . S
C39 H63 0.931 . S
C40 C39 1.386 . S
C40 C44 1.397 1_655 S
C41 C39 1.397 . S
C41 C42 1.384 . S
C41 H64 0.930 . S
C42 C41 1.384 . S
C42 C43 1.377 1_655 S
C42 C45 1.481 1_556 S
C43 C42 1.377 1_455 S
C43 C44 1.389 . S
C43 H65 0.929 1_556 S
C44 C40 1.397 1_455 S
C44 C43 1.389 . S
C44 H66 0.931 . S
C45 C42 1.481 1_554 S
C45 C46 1.387 . S
C45 C50 1.390 . S
C46 C45 1.387 . S
C46 C47 1.401 . S
C46 H67 0.930 1_554 S
C47 C46 1.401 . S
C47 C48 1.376 . S
C47 C56 1.511 . S
C48 C47 1.376 . S
C48 C49 1.392 . S
C48 H69 0.931 . S
C49 C48 1.392 . S
C49 C50 1.361 . S
C49 C51 1.500 . S
C50 C45 1.390 . S
C50 C49 1.361 . S
C50 H68 0.931 . S
C51 C49 1.500 . S
C51 C52 1.371 . S
C51 C53 1.365 1_655 S
C52 C51 1.371 . S
C52 C62 1.386 . S
C52 H70 0.931 . S
C53 C51 1.365 1_455 S
C53 C54 1.409 . S
C53 H71 0.929 . S
C54 C53 1.409 . S
C54 C55 1.380 1_455 S
C54 H72 0.930 . S
C55 C54 1.380 1_655 S
C55 C62 1.357 . S
C56 C47 1.511 . S
C56 C57 1.341 1_554 S
C56 C58 1.371 . S
C57 C56 1.341 1_556 S
C57 C61 1.394 . S
C57 H73 0.930 . S
C58 C56 1.371 . S
C58 C59 1.392 . S
C58 H74 0.931 1_655 S
C59 C58 1.392 . S
C59 C60 1.331 . S
C59 H77 0.932 1_655 S
C60 C59 1.331 . S
C60 C61 1.336 1_554 S
C61 C57 1.394 . S
C61 C60 1.336 1_556 S
C61 H76 0.929 . S
C62 C52 1.386 . S
C62 C55 1.357 . S
C62 H75 0.928 . S
H63 C39 0.931 . S
H64 C41 0.930 . S
H65 C43 0.929 1_554 S
H66 C44 0.931 . S
H67 C46 0.930 1_556 S
H68 C50 0.931 . S
H69 C48 0.931 . S
H70 C52 0.931 . S
H71 C53 0.929 . S
H72 C54 0.930 . S
H73 C57 0.930 . S
H74 C58 0.931 1_455 S
H75 C62 0.928 . S
H76 C61 0.929 . S
H77 C59 0.932 1_455 S
C78 C79 1.387 . S
C78 C80 1.397 . S
C78 H102 0.931 . S
C79 C78 1.387 . S
C79 C83 1.396 1_565 S
C80 C78 1.397 . S
C80 C81 1.385 . S
C80 H103 0.930 . S
C81 C80 1.385 . S
C81 C82 1.376 1_565 S
C81 C84 1.479 1_556 S
C82 C81 1.376 1_545 S
C82 C83 1.389 . S
C82 H104 0.929 . S
C83 C79 1.396 1_545 S
C83 C82 1.389 . S
C83 H105 0.931 . S
C84 C81 1.479 1_554 S
C84 C85 1.390 1_554 S
C84 C89 1.390 . S
C85 C84 1.390 1_556 S
C85 C86 1.401 1_556 S
C85 H106 0.930 . S
C86 C85 1.401 1_554 S
C86 C87 1.377 . S
C86 C95 1.515 . S
C87 C86 1.377 . S
C87 C88 1.392 . S
C87 H108 0.931 . S
C88 C87 1.392 . S
C88 C89 1.361 . S
C88 C90 1.499 1_565 S
C89 C84 1.390 . S
C89 C88 1.361 . S
C89 H107 0.931 . S
C90 C88 1.499 1_545 S
C90 C91 1.359 1_545 S
C90 C92 1.378 . S
C91 C90 1.359 1_565 S
C91 C101 1.386 . S
C91 H109 0.931 . S
C92 C90 1.378 . S
C92 C93 1.409 . S
C92 H110 0.929 . S
C93 C92 1.409 . S
C93 C94 1.383 . S
C93 H111 0.930 . S
C94 C93 1.383 . S
C94 C101 1.355 1_545 S
C95 C86 1.515 . S
C95 C96 1.341 1_554 S
C95 C97 1.371 1_565 S
C96 C95 1.341 1_556 S
C96 C100 1.394 . S
C96 H112 0.930 . S
C97 C95 1.371 1_545 S
C97 C98 1.392 . S
C97 H113 0.931 . S
C98 C97 1.392 . S
C98 C99 1.331 1_544 S
C98 H116 0.932 . S
C99 C98 1.331 1_566 S
C99 C100 1.336 . S
C100 C96 1.394 . S
C100 C99 1.336 . S
C100 H115 0.929 . S
C101 C91 1.386 . S
C101 C94 1.355 1_565 S
C101 H114 0.928 . S
H102 C78 0.931 . S
H103 C80 0.930 . S
H104 C82 0.929 . S
H105 C83 0.931 . S
H106 C85 0.930 . S
H107 C89 0.931 . S
H108 C87 0.931 . S
H109 C91 0.931 . S
H110 C92 0.929 . S
H111 C93 0.930 . S
H112 C96 0.930 . S
H113 C97 0.931 . S
H114 C101 0.928 . S
H115 C100 0.929 . S
H116 C98 0.932 . S
C117 C118 1.386 . S
C117 C119 1.397 . S
C117 H141 0.931 . S
C118 C117 1.386 . S
C118 C122 1.397 . S
C119 C117 1.397 . S
C119 C120 1.384 . S
C119 H142 0.930 . S
C120 C119 1.384 . S
C120 C121 1.377 . S
C120 C123 1.481 . S
C121 C120 1.377 . S
C121 C122 1.389 . S
C121 H143 0.929 . S
C122 C118 1.397 . S
C122 C121 1.389 . S
C122 H144 0.931 . S
C123 C120 1.481 . S
C123 C124 1.387 . S
C123 C128 1.390 . S
C124 C123 1.387 . S
C124 C125 1.401 . S
C124 H145 0.930 . S
C125 C124 1.401 . S
C125 C126 1.376 1_554 S
C125 C134 1.511 . S
C126 C125 1.376 1_556 S
C126 C127 1.392 . S
C126 H147 0.931 . S
C127 C126 1.392 . S
C127 C128 1.361 1_556 S
C127 C129 1.500 . S
C128 C123 1.390 . S
C128 C127 1.361 1_554 S
C128 H146 0.931 . S
C129 C127 1.500 . S
C129 C130 1.371 . S
C129 C131 1.365 . S
C130 C129 1.371 . S
C130 C140 1.386 . S
C130 H148 0.931 . S
C131 C129 1.365 . S
C131 C132 1.409 . S
C131 H149 0.929 . S
C132 C131 1.409 . S
C132 C133 1.380 . S
C132 H150 0.930 . S
C133 C132 1.380 . S
C133 C140 1.357 . S
C134 C125 1.511 . S
C134 C135 1.341 . S
C134 C136 1.371 1_554 S
C135 C134 1.341 . S
C135 C139 1.394 . S
C135 H151 0.930 . S
C136 C134 1.371 1_556 S
C136 C137 1.392 . S
C136 H152 0.931 . S
C137 C136 1.392 . S
C137 C138 1.331 . S
C137 H155 0.932 . S
C138 C137 1.331 . S
C138 C139 1.336 1_556 S
C139 C135 1.394 . S
C139 C138 1.336 1_554 S
C139 H154 0.929 . S
C140 C130 1.386 . S
C140 C133 1.357 . S
C140 H153 0.928 . S
H141 C117 0.931 . S
H142 C119 0.930 . S
H143 C121 0.929 . S
H144 C122 0.931 . S
H145 C124 0.930 . S
H146 C128 0.931 . S
H147 C126 0.931 . S
H148 C130 0.931 . S
H149 C131 0.929 . S
H150 C132 0.930 . S
H151 C135 0.930 . S
H152 C136 0.931 . S
H153 C140 0.928 . S
H154 C139 0.929 . S
H155 C137 0.932 . S
C156 C157 1.386 . S
C156 C158 1.397 . S
C156 H180 0.931 . S
C157 C156 1.386 . S
C157 C161 1.397 . S
C158 C156 1.397 . S
C158 C159 1.384 . S
C158 H181 0.930 . S
C159 C158 1.384 . S
C159 C160 1.377 . S
C159 C162 1.481 . S
C160 C159 1.377 . S
C160 C161 1.389 . S
C160 H182 0.929 . S
C161 C157 1.397 . S
C161 C160 1.389 . S
C161 H183 0.931 . S
C162 C159 1.481 . S
C162 C163 1.387 . S
C162 C167 1.390 . S
C163 C162 1.387 . S
C163 C164 1.401 . S
C163 H184 0.930 . S
C164 C163 1.401 . S
C164 C165 1.376 . S
C164 C173 1.511 . S
C165 C164 1.376 . S
C165 C166 1.392 . S
C165 H186 0.931 . S
C166 C165 1.392 . S
C166 C167 1.361 . S
C166 C168 1.500 . S
C167 C162 1.390 . S
C167 C166 1.361 . S
C167 H185 0.931 . S
C168 C166 1.500 . S
C168 C169 1.371 . S
C168 C170 1.365 . S
C169 C168 1.371 . S
C169 C179 1.386 1_554 S
C169 H187 0.931 . S
C170 C168 1.365 . S
C170 C171 1.409 . S
C170 H188 0.929 . S
C171 C170 1.409 . S
C171 C172 1.380 1_554 S
C171 H189 0.930 1_554 S
C172 C171 1.380 1_556 S
C172 C179 1.357 . S
C173 C164 1.511 . S
C173 C174 1.341 . S
C173 C175 1.371 . S
C174 C173 1.341 . S
C174 C178 1.394 . S
C174 H190 0.930 . S
C175 C173 1.371 . S
C175 C176 1.392 . S
C175 H191 0.931 . S
C176 C175 1.392 . S
C176 C177 1.331 . S
C176 H194 0.932 . S
C177 C176 1.331 . S
C177 C178 1.336 . S
C178 C174 1.394 . S
C178 C177 1.336 . S
C178 H193 0.929 . S
C179 C169 1.386 1_556 S
C179 C172 1.357 . S
C179 H192 0.928 . S
H180 C156 0.931 . S
H181 C158 0.930 . S
H182 C160 0.929 . S
H183 C161 0.931 . S
H184 C163 0.930 . S
H185 C167 0.931 . S
H186 C165 0.931 . S
H187 C169 0.931 . S
H188 C170 0.929 . S
H189 C171 0.930 1_556 S
H190 C174 0.930 . S
H191 C175 0.931 . S
H192 C179 0.928 . S
H193 C178 0.929 . S
H194 C176 0.932 . S
C195 C196 1.386 . S
C195 C197 1.397 . S
C195 H219 0.931 . S
C196 C195 1.386 . S
C196 C200 1.397 . S
C197 C195 1.397 . S
C197 C198 1.384 . S
C197 H220 0.930 . S
C198 C197 1.384 . S
C198 C199 1.377 . S
C198 C201 1.481 . S
C199 C198 1.377 . S
C199 C200 1.389 . S
C199 H221 0.929 . S
C200 C196 1.397 . S
C200 C199 1.389 . S
C200 H222 0.931 . S
C201 C198 1.481 . S
C201 C202 1.387 . S
C201 C206 1.390 . S
C202 C201 1.387 . S
C202 C203 1.401 . S
C202 H223 0.930 . S
C203 C202 1.401 . S
C203 C204 1.376 . S
C203 C212 1.511 . S
C204 C203 1.376 . S
C204 C205 1.392 . S
C204 H225 0.931 . S
C205 C204 1.392 . S
C205 C206 1.361 . S
C205 C207 1.500 . S
C206 C201 1.390 . S
C206 C205 1.361 . S
C206 H224 0.931 . S
C207 C205 1.500 . S
C207 C208 1.371 . S
C207 C209 1.365 . S
C208 C207 1.371 . S
C208 C218 1.386 . S
C208 H226 0.931 . S
C209 C207 1.365 . S
C209 C210 1.409 . S
C209 H227 0.929 . S
C210 C209 1.409 . S
C210 C211 1.380 . S
C210 H228 0.930 . S
C211 C210 1.380 . S
C211 C218 1.357 . S
C212 C203 1.511 . S
C212 C213 1.341 . S
C212 C214 1.371 . S
C213 C212 1.341 . S
C213 C217 1.394 . S
C213 H229 0.930 . S
C214 C212 1.371 . S
C214 C215 1.392 . S
C214 H230 0.931 . S
C215 C214 1.392 . S
C215 C216 1.331 . S
C215 H233 0.932 . S
C216 C215 1.331 . S
C216 C217 1.336 . S
C217 C213 1.394 . S
C217 C216 1.336 . S
C217 H232 0.929 . S
C218 C208 1.386 . S
C218 C211 1.357 . S
C218 H231 0.928 . S
H219 C195 0.931 . S
H220 C197 0.930 . S
H221 C199 0.929 . S
H222 C200 0.931 . S
H223 C202 0.930 . S
H224 C206 0.931 . S
H225 C204 0.931 . S
H226 C208 0.931 . S
H227 C209 0.929 . S
H228 C210 0.930 . S
H229 C213 0.930 . S
H230 C214 0.931 . S
H231 C218 0.928 . S
H232 C217 0.929 . S
H233 C215 0.932 . S
C234 C235 1.387 1_565 S
C234 C236 1.397 . S
C234 H258 0.931 . S
C235 C234 1.387 1_545 S
C235 C239 1.397 . S
C236 C234 1.397 . S
C236 C237 1.385 1_565 S
C236 H259 0.930 . S
C237 C236 1.385 1_545 S
C237 C238 1.376 . S
C237 C240 1.481 1_545 S
C238 C237 1.376 . S
C238 C239 1.389 . S
C238 H260 0.929 . S
C239 C235 1.397 . S
C239 C238 1.389 . S
C239 H261 0.931 . S
C240 C237 1.481 1_565 S
C240 C241 1.387 . S
C240 C245 1.390 . S
C241 C240 1.387 . S
C241 C242 1.403 . S
C241 H262 0.930 . S
C242 C241 1.403 . S
C242 C243 1.377 . S
C242 C251 1.511 . S
C243 C242 1.377 . S
C243 C244 1.392 1_565 S
C243 H264 0.931 . S
C244 C243 1.392 1_545 S
C244 C245 1.361 1_545 S
C244 C246 1.499 . S
C245 C240 1.390 . S
C245 C244 1.361 1_565 S
C245 H263 0.931 1_565 S
C246 C244 1.499 . S
C246 C247 1.357 1_545 S
C246 C248 1.380 . S
C247 C246 1.357 1_565 S
C247 C257 1.386 . S
C247 H265 0.931 . S
C248 C246 1.380 . S
C248 C249 1.409 . S
C248 H266 0.929 . S
C249 C248 1.409 . S
C249 C250 1.386 1_554 S
C249 H267 0.930 . S
C250 C249 1.386 1_556 S
C250 C257 1.351 1_546 S
C251 C242 1.511 . S
C251 C252 1.341 . S
C251 C253 1.371 1_565 S
C252 C251 1.341 . S
C252 C256 1.394 . S
C252 H268 0.930 . S
C253 C251 1.371 1_545 S
C253 C254 1.392 . S
C253 H269 0.931 . S
C254 C253 1.392 . S
C254 C255 1.320 1_545 S
C254 H272 0.932 . S
C255 C254 1.320 1_565 S
C255 C256 1.349 . S
C256 C252 1.394 . S
C256 C255 1.349 . S
C256 H271 0.929 . S
C257 C247 1.386 . S
C257 C250 1.351 1_564 S
C257 H270 0.928 1_554 S
H258 C234 0.931 . S
H259 C236 0.930 . S
H260 C238 0.929 . S
H261 C239 0.931 . S
H262 C241 0.930 . S
H263 C245 0.931 1_545 S
H264 C243 0.931 . S
H265 C247 0.931 . S
H266 C248 0.929 . S
H267 C249 0.930 . S
H268 C252 0.930 . S
H269 C253 0.931 . S
H270 C257 0.928 1_556 S
H271 C256 0.929 . S
H272 C254 0.932 . S
C273 C274 1.386 . S
C273 C275 1.397 1_556 S
C273 H297 0.931 . S
C274 C273 1.386 . S
C274 C278 1.397 1_556 S
C275 C273 1.397 1_554 S
C275 C276 1.384 . S
C275 H298 0.930 . S
C276 C275 1.384 . S
C276 C277 1.377 . S
C276 C279 1.481 . S
C277 C276 1.377 . S
C277 C278 1.389 . S
C277 H299 0.929 . S
C278 C274 1.397 1_554 S
C278 C277 1.389 . S
C278 H300 0.931 1_554 S
C279 C276 1.481 . S
C279 C280 1.387 . S
C279 C284 1.390 . S
C280 C279 1.387 . S
C280 C281 1.401 . S
C280 H301 0.930 . S
C281 C280 1.401 . S
C281 C282 1.376 . S
C281 C290 1.511 . S
C282 C281 1.376 . S
C282 C283 1.392 . S
C282 H303 0.931 . S
C283 C282 1.392 . S
C283 C284 1.361 . S
C283 C285 1.500 . S
C284 C279 1.390 . S
C284 C283 1.361 . S
C284 H302 0.931 . S
C285 C283 1.500 . S
C285 C286 1.371 . S
C285 C287 1.365 . S
C286 C285 1.371 . S
C286 C296 1.386 . S
C286 H304 0.931 . S
C287 C285 1.365 . S
C287 C288 1.409 . S
C287 H305 0.929 . S
C288 C287 1.409 . S
C288 C289 1.380 . S
C288 H306 0.930 . S
C289 C288 1.380 . S
C289 C296 1.357 . S
C290 C281 1.511 . S
C290 C291 1.341 . S
C290 C292 1.371 . S
C291 C290 1.341 . S
C291 C295 1.394 . S
C291 H307 0.930 . S
C292 C290 1.371 . S
C292 C293 1.392 . S
C292 H308 0.931 . S
C293 C292 1.392 . S
C293 C294 1.331 . S
C293 H311 0.932 . S
C294 C293 1.331 . S
C294 C295 1.336 . S
C295 C291 1.394 . S
C295 C294 1.336 . S
C295 H310 0.929 . S
C296 C286 1.386 . S
C296 C289 1.357 . S
C296 H309 0.928 . S
H297 C273 0.931 . S
H298 C275 0.930 . S
H299 C277 0.929 . S
H300 C278 0.931 1_556 S
H301 C280 0.930 . S
H302 C284 0.931 . S
H303 C282 0.931 . S
H304 C286 0.931 . S
H305 C287 0.929 . S
H306 C288 0.930 . S
H307 C291 0.930 . S
H308 C292 0.931 . S
H309 C296 0.928 . S
H310 C295 0.929 . S
H311 C293 0.932 . S
O312 Zn313 1.953 . S
O312 C328 1.233 . S
Zn313 O312 1.953 . S
Zn313 O314 1.950 . S
Zn313 O320 1.919 1_565 S
Zn313 O325 1.924 . S
O314 Zn313 1.950 . S
O314 Zn315 1.900 1_565 S
O314 Zn316 1.953 . S
O314 Zn317 1.964 . S
Zn315 O314 1.900 1_545 S
Zn315 O318 1.933 1_455 S
Zn315 O321 1.941 . S
Zn315 O322 1.965 . S
Zn316 O314 1.953 . S
Zn316 O323 1.938 1_565 S
Zn316 O324 1.906 . S
Zn316 O334 1.953 . S
Zn317 O314 1.964 . S
Zn317 O319 1.932 1_455 S
Zn317 O326 1.977 1_455 S
Zn317 O327 1.910 . S
O318 Zn315 1.933 1_655 S
O318 C329 1.226 . S
O319 Zn317 1.932 1_655 S
O319 C329 1.307 1_565 S
O320 Zn313 1.919 1_545 S
O320 C331 1.253 . S
O321 Zn315 1.941 . S
O321 C331 1.283 . S
O322 Zn315 1.965 . S
O322 C330 1.303 . S
O323 Zn316 1.938 1_545 S
O323 C330 1.247 . S
O324 Zn316 1.906 . S
O324 C332 1.304 . S
O325 Zn313 1.924 . S
O325 C333 1.311 . S
O326 Zn317 1.977 1_655 S
O326 C332 1.272 1_655 S
O327 Zn317 1.910 . S
O327 C333 1.231 . S
C328 O312 1.233 . S
C328 O334 1.298 . S
C329 O318 1.226 . S
C329 O319 1.307 1_545 S
C330 O322 1.303 . S
C330 O323 1.247 . S
C331 O320 1.253 . S
C331 O321 1.283 . S
C332 O324 1.304 . S
C332 O326 1.272 1_455 S
C333 O325 1.311 . S
C333 O327 1.231 . S
O334 Zn316 1.953 . S
O334 C328 1.298 . S
O335 Zn336 1.953 . S
O335 C351 1.225 . S
Zn336 O335 1.953 . S
Zn336 O337 1.949 . S
Zn336 O343 1.919 . S
Zn336 O348 1.924 . S
O337 Zn336 1.949 . S
O337 Zn338 1.923 1_545 S
O337 Zn339 1.950 . S
O337 Zn340 1.945 1_545 S
Zn338 O337 1.923 1_565 S
Zn338 O341 1.933 . S
Zn338 O344 1.941 . S
Zn338 O345 1.965 . S
Zn339 O337 1.950 . S
Zn339 O346 1.938 . S
Zn339 O347 1.906 1_545 S
Zn339 O357 1.953 . S
Zn340 O337 1.945 1_565 S
Zn340 O342 1.932 . S
Zn340 O349 1.977 . S
Zn340 O350 1.910 1_565 S
O341 Zn338 1.933 . S
O341 C352 1.226 . S
O342 Zn340 1.932 . S
O342 C352 1.307 . S
O343 Zn336 1.919 . S
O343 C354 1.253 . S
O344 Zn338 1.941 . S
O344 C354 1.283 1_565 S
O345 Zn338 1.965 . S
O345 C353 1.303 . S
O346 Zn339 1.938 . S
O346 C353 1.247 1_545 S
O347 Zn339 1.906 1_565 S
O347 C355 1.304 . S
O348 Zn336 1.924 . S
O348 C356 1.311 . S
O349 Zn340 1.977 . S
O349 C355 1.272 . S
O350 Zn340 1.910 1_545 S
O350 C356 1.231 . S
C351 O335 1.225 . S
C351 O357 1.298 . S
C352 O341 1.226 . S
C352 O342 1.307 . S
C353 O345 1.303 . S
C353 O346 1.247 1_565 S
C354 O343 1.253 . S
C354 O344 1.283 1_545 S
C355 O347 1.304 . S
C355 O349 1.272 . S
C356 O348 1.311 . S
C356 O350 1.231 . S
O357 Zn339 1.953 . S
O357 C351 1.298 . S
O358 Zn359 1.953 . S
O358 C374 1.225 . S
Zn359 O358 1.953 . S
Zn359 O360 1.949 . S
Zn359 O366 1.919 . S
Zn359 O371 1.924 . S
O360 Zn359 1.949 . S
O360 Zn361 1.923 . S
O360 Zn362 1.950 . S
O360 Zn363 1.945 . S
Zn361 O360 1.923 . S
Zn361 O364 1.933 . S
Zn361 O367 1.941 . S
Zn361 O368 1.965 . S
Zn362 O360 1.950 . S
Zn362 O369 1.938 . S
Zn362 O370 1.906 . S
Zn362 O380 1.953 . S
Zn363 O360 1.945 . S
Zn363 O365 1.932 . S
Zn363 O372 1.977 . S
Zn363 O373 1.910 . S
O364 Zn361 1.933 . S
O364 C375 1.226 . S
O365 Zn363 1.932 . S
O365 C375 1.307 . S
O366 Zn359 1.919 . S
O366 C377 1.253 . S
O367 Zn361 1.941 . S
O367 C377 1.283 . S
O368 Zn361 1.965 . S
O368 C376 1.303 . S
O369 Zn362 1.938 . S
O369 C376 1.247 . S
O370 Zn362 1.906 . S
O370 C378 1.304 . S
O371 Zn359 1.924 . S
O371 C379 1.311 . S
O372 Zn363 1.977 . S
O372 C378 1.272 . S
O373 Zn363 1.910 . S
O373 C379 1.231 . S
C374 O358 1.225 . S
C374 O380 1.298 . S
C375 O364 1.226 . S
C375 O365 1.307 . S
C376 O368 1.303 . S
C376 O369 1.247 . S
C377 O366 1.253 . S
C377 O367 1.283 . S
C378 O370 1.304 . S
C378 O372 1.272 . S
C379 O371 1.311 . S
C379 O373 1.231 . S
O380 Zn362 1.953 . S
O380 C374 1.298 . S
O381 Zn382 1.953 1_655 S
O381 C397 1.225 . S
Zn382 O381 1.953 1_455 S
Zn382 O383 1.949 . S
Zn382 O389 1.919 . S
Zn382 O394 1.924 . S
O383 Zn382 1.949 . S
O383 Zn384 1.923 . S
O383 Zn385 1.950 1_455 S
O383 Zn386 1.945 . S
Zn384 O383 1.923 . S
Zn384 O387 1.933 . S
Zn384 O390 1.937 1_455 S
Zn384 O391 1.965 1_455 S
Zn385 O383 1.950 1_655 S
Zn385 O392 1.938 . S
Zn385 O393 1.906 1_655 S
Zn385 O403 1.953 . S
Zn386 O383 1.945 . S
Zn386 O388 1.932 . S
Zn386 O395 1.977 . S
Zn386 O396 1.910 . S
O387 Zn384 1.933 . S
O387 C398 1.226 . S
O388 Zn386 1.932 . S
O388 C398 1.307 . S
O389 Zn382 1.919 . S
O389 C400 1.253 . S
O390 Zn384 1.937 1_655 S
O390 C400 1.279 1_655 S
O391 Zn384 1.965 1_655 S
O391 C399 1.303 . S
O392 Zn385 1.938 . S
O392 C399 1.247 . S
O393 Zn385 1.906 1_455 S
O393 C401 1.304 . S
O394 Zn382 1.924 . S
O394 C402 1.311 . S
O395 Zn386 1.977 . S
O395 C401 1.272 . S
O396 Zn386 1.910 . S
O396 C402 1.231 . S
C397 O381 1.225 . S
C397 O403 1.298 . S
C398 O387 1.226 . S
C398 O388 1.307 . S
C399 O391 1.303 . S
C399 O392 1.247 . S
C400 O389 1.253 . S
C400 O390 1.279 1_455 S
C401 O393 1.304 . S
C401 O395 1.272 . S
C402 O394 1.311 . S
C402 O396 1.231 . S
O403 Zn385 1.953 . S
O403 C397 1.298 . S
C404 C405 1.363 1_545 S
C404 C410 1.379 . S
C404 N412 1.356 . S
C405 C404 1.363 1_565 S
C405 C411 1.363 . S
C406 C407 1.363 . S
C406 C411 1.379 . S
C406 N413 1.356 . S
C407 C406 1.363 . S
C407 C410 1.363 1_565 S
N408 C410 1.356 . S
N408 H420 0.984 . S
N408 H421 0.985 . S
N409 C411 1.356 . S
N409 H414 0.984 . S
N409 H415 0.985 . S
C410 C404 1.379 . S
C410 C407 1.363 1_545 S
C410 N408 1.356 . S
C411 C405 1.363 . S
C411 C406 1.379 . S
C411 N409 1.356 . S
N412 C404 1.356 . S
N412 H418 0.984 . S
N412 H419 0.984 . S
N413 C406 1.356 . S
N413 H416 0.984 . S
N413 H417 0.985 . S
H414 N409 0.984 . S
H415 N409 0.985 . S
H416 N413 0.984 . S
H417 N413 0.985 . S
H418 N412 0.984 . S
H419 N412 0.984 . S
H420 N408 0.984 . S
H421 N408 0.985 . S
C422 C423 1.363 . S
C422 C428 1.379 . S
C422 N430 1.356 . S
C423 C422 1.363 . S
C423 C429 1.363 . S
C424 C425 1.363 . S
C424 C429 1.379 . S
C424 N431 1.356 . S
C425 C424 1.363 . S
C425 C428 1.363 . S
N426 C428 1.356 . S
N426 H438 0.984 . S
N426 H439 0.985 . S
N427 C429 1.356 . S
N427 H432 0.984 . S
N427 H433 0.985 . S
C428 C422 1.379 . S
C428 C425 1.363 . S
C428 N426 1.356 . S
C429 C423 1.363 . S
C429 C424 1.379 . S
C429 N427 1.356 . S
N430 C422 1.356 . S
N430 H436 0.984 . S
N430 H437 0.984 . S
N431 C424 1.356 . S
N431 H434 0.984 . S
N431 H435 0.985 . S
H432 N427 0.984 . S
H433 N427 0.985 . S
H434 N431 0.984 . S
H435 N431 0.985 . S
H436 N430 0.984 . S
H437 N430 0.984 . S
H438 N426 0.984 . S
H439 N426 0.985 . S
C440 C441 1.363 . S
C440 C446 1.379 . S
C440 N448 1.356 . S
C441 C440 1.363 . S
C441 C447 1.363 . S
C442 C443 1.363 . S
C442 C447 1.379 . S
C442 N449 1.356 . S
C443 C442 1.363 . S
C443 C446 1.363 . S
N444 C446 1.356 . S
N444 H456 0.984 . S
N444 H457 0.985 . S
N445 C447 1.356 . S
N445 H450 0.984 . S
N445 H451 0.985 . S
C446 C440 1.379 . S
C446 C443 1.363 . S
C446 N444 1.356 . S
C447 C441 1.363 . S
C447 C442 1.379 . S
C447 N445 1.356 . S
N448 C440 1.356 . S
N448 H454 0.984 . S
N448 H455 0.984 . S
N449 C442 1.356 . S
N449 H452 0.984 . S
N449 H453 0.985 . S
H450 N445 0.984 . S
H451 N445 0.985 . S
H452 N449 0.984 . S
H453 N449 0.985 . S
H454 N448 0.984 . S
H455 N448 0.984 . S
H456 N444 0.984 . S
H457 N444 0.985 . S
C458 C459 1.363 . S
C458 C464 1.379 . S
C458 N466 1.356 . S
C459 C458 1.363 . S
C459 C465 1.363 . S
C460 C461 1.363 . S
C460 C465 1.379 . S
C460 N467 1.356 . S
C461 C460 1.363 . S
C461 C464 1.363 . S
N462 C464 1.356 . S
N462 H474 0.984 . S
N462 H475 0.985 . S
N463 C465 1.356 . S
N463 H468 0.984 . S
N463 H469 0.985 . S
C464 C458 1.379 . S
C464 C461 1.363 . S
C464 N462 1.356 . S
C465 C459 1.363 . S
C465 C460 1.379 . S
C465 N463 1.356 . S
N466 C458 1.356 . S
N466 H472 0.984 . S
N466 H473 0.984 . S
N467 C460 1.356 . S
N467 H470 0.984 . S
N467 H471 0.985 . S
H468 N463 0.984 . S
H469 N463 0.985 . S
H470 N467 0.984 . S
H471 N467 0.985 . S
H472 N466 0.984 . S
H473 N466 0.984 . S
H474 N462 0.984 . S
H475 N462 0.985 . S
C476 C477 1.363 . S
C476 C482 1.379 . S
C476 N484 1.356 . S
C477 C476 1.363 . S
C477 C483 1.363 1_545 S
C478 C479 1.363 1_565 S
C478 C483 1.379 . S
C478 N485 1.356 . S
C479 C478 1.363 1_545 S
C479 C482 1.363 . S
N480 C482 1.356 . S
N480 H492 0.984 . S
N480 H493 0.985 . S
N481 C483 1.356 . S
N481 H486 0.984 1_556 S
N481 H487 0.985 1_556 S
C482 C476 1.379 . S
C482 C479 1.363 . S
C482 N480 1.356 . S
C483 C477 1.363 1_565 S
C483 C478 1.379 . S
C483 N481 1.356 . S
N484 C476 1.356 . S
N484 H490 0.984 . S
N484 H491 0.984 . S
N485 C478 1.356 . S
N485 H488 0.984 . S
N485 H489 0.985 . S
H486 N481 0.984 1_554 S
H487 N481 0.985 1_554 S
H488 N485 0.984 . S
H489 N485 0.985 . S
H490 N484 0.984 . S
H491 N484 0.984 . S
H492 N480 0.984 . S
H493 N480 0.985 . S
C494 C495 1.363 . S
C494 C500 1.379 . S
C494 N502 1.356 . S
C495 C494 1.363 . S
C495 C501 1.363 . S
C496 C497 1.363 . S
C496 C501 1.379 . S
C496 N503 1.356 . S
C497 C496 1.363 . S
C497 C500 1.363 . S
N498 C500 1.356 . S
N498 H510 0.984 . S
N498 H511 0.985 . S
N499 C501 1.356 1_554 S
N499 H504 0.984 . S
N499 H505 0.984 . S
C500 C494 1.379 . S
C500 C497 1.363 . S
C500 N498 1.356 . S
C501 C495 1.363 . S
C501 C496 1.379 . S
C501 N499 1.356 1_556 S
N502 C494 1.356 . S
N502 H508 0.984 . S
N502 H509 0.984 . S
N503 C496 1.356 . S
N503 H506 0.984 . S
N503 H507 0.985 . S
H504 N499 0.984 . S
H505 N499 0.984 . S
H506 N503 0.984 . S
H507 N503 0.985 . S
H508 N502 0.984 . S
H509 N502 0.984 . S
H510 N498 0.984 . S
H511 N498 0.985 . S
C512 C513 1.363 . S
C512 C518 1.379 . S
C512 N520 1.356 . S
C513 C512 1.363 . S
C513 C519 1.363 . S
C514 C515 1.363 . S
C514 C519 1.379 . S
C514 N521 1.356 . S
C515 C514 1.363 . S
C515 C518 1.363 . S
N516 C518 1.356 . S
N516 H528 0.984 . S
N516 H529 0.985 . S
N517 C519 1.356 . S
N517 H522 0.984 1_556 S
N517 H523 0.985 . S
C518 C512 1.379 . S
C518 C515 1.363 . S
C518 N516 1.356 . S
C519 C513 1.363 . S
C519 C514 1.379 . S
C519 N517 1.356 . S
N520 C512 1.356 . S
N520 H526 0.984 . S
N520 H527 0.984 . S
N521 C514 1.356 . S
N521 H524 0.984 . S
N521 H525 0.985 . S
H522 N517 0.984 1_554 S
H523 N517 0.985 . S
H524 N521 0.984 . S
H525 N521 0.985 . S
H526 N520 0.984 . S
H527 N520 0.984 . S
H528 N516 0.984 . S
H529 N516 0.985 . S
C530 C531 1.363 . S
C530 C536 1.379 . S
C530 N538 1.356 . S
C531 C530 1.363 . S
C531 C537 1.363 1_655 S
C532 C533 1.363 . S
C532 C537 1.379 . S
C532 N539 1.356 . S
C533 C532 1.363 . S
C533 C536 1.363 1_455 S
N534 C536 1.356 . S
N534 H546 0.984 . S
N534 H547 0.985 . S
N535 C537 1.356 1_554 S
N535 H540 0.984 . S
N535 H541 0.985 . S
C536 C530 1.379 . S
C536 C533 1.363 1_655 S
C536 N534 1.356 . S
C537 C531 1.363 1_455 S
C537 C532 1.379 . S
C537 N535 1.356 1_556 S
N538 C530 1.356 . S
N538 H544 0.984 . S
N538 H545 0.984 . S
N539 C532 1.356 . S
N539 H542 0.984 . S
N539 H543 0.985 . S
H540 N535 0.984 . S
H541 N535 0.985 . S
H542 N539 0.984 . S
H543 N539 0.985 . S
H544 N538 0.984 . S
H545 N538 0.984 . S
H546 N534 0.984 . S
H547 N534 0.985 . S
C548 C549 1.363 . S
C548 C554 1.379 . S
C548 N556 1.356 . S
C549 C548 1.363 . S
C549 C555 1.363 . S
C550 C551 1.363 . S
C550 C555 1.379 . S
C550 N557 1.356 . S
C551 C550 1.363 . S
C551 C554 1.363 . S
N552 C554 1.356 . S
N552 H564 0.984 . S
N552 H565 0.985 . S
N553 C555 1.356 . S
N553 H558 0.984 . S
N553 H559 0.985 . S
C554 C548 1.379 . S
C554 C551 1.363 . S
C554 N552 1.356 . S
C555 C549 1.363 . S
C555 C550 1.379 . S
C555 N553 1.356 . S
N556 C548 1.356 . S
N556 H562 0.984 . S
N556 H563 0.984 . S
N557 C550 1.356 . S
N557 H560 0.984 . S
N557 H561 0.985 . S
H558 N553 0.984 . S
H559 N553 0.985 . S
H560 N557 0.984 . S
H561 N557 0.985 . S
H562 N556 0.984 . S
H563 N556 0.984 . S
H564 N552 0.984 . S
H565 N552 0.985 . S
C566 C567 1.363 . S
C566 C572 1.379 . S
C566 N574 1.356 . S
C567 C566 1.363 . S
C567 C573 1.363 1_545 S
C568 C569 1.363 . S
C568 C573 1.379 . S
C568 N575 1.356 . S
C569 C568 1.363 . S
C569 C572 1.363 1_565 S
N570 C572 1.356 . S
N570 H582 0.984 . S
N570 H583 0.985 . S
N571 C573 1.356 . S
N571 H576 0.984 . S
N571 H577 0.985 . S
C572 C566 1.379 . S
C572 C569 1.363 1_545 S
C572 N570 1.356 . S
C573 C567 1.363 1_565 S
C573 C568 1.379 . S
C573 N571 1.356 . S
N574 C566 1.356 . S
N574 H580 0.984 . S
N574 H581 0.984 . S
N575 C568 1.356 . S
N575 H578 0.984 . S
N575 H579 0.985 . S
H576 N571 0.984 . S
H577 N571 0.985 . S
H578 N575 0.984 . S
H579 N575 0.985 . S
H580 N574 0.984 . S
H581 N574 0.984 . S
H582 N570 0.984 . S
H583 N570 0.985 . S
C584 C585 1.363 . S
C584 C590 1.379 . S
C584 N592 1.356 . S
C585 C584 1.363 . S
C585 C591 1.363 . S
C586 C587 1.363 . S
C586 C591 1.379 . S
C586 N593 1.356 . S
C587 C586 1.363 . S
C587 C590 1.363 . S
N588 C590 1.356 . S
N588 H600 0.984 . S
N588 H601 0.985 . S
N589 C591 1.356 . S
N589 H594 0.984 . S
N589 H595 0.985 . S
C590 C584 1.379 . S
C590 C587 1.363 . S
C590 N588 1.356 . S
C591 C585 1.363 . S
C591 C586 1.379 . S
C591 N589 1.356 . S
N592 C584 1.356 . S
N592 H598 0.984 . S
N592 H599 0.984 . S
N593 C586 1.356 . S
N593 H596 0.984 . S
N593 H597 0.985 . S
H594 N589 0.984 . S
H595 N589 0.985 . S
H596 N593 0.984 . S
H597 N593 0.985 . S
H598 N592 0.984 . S
H599 N592 0.984 . S
H600 N588 0.984 . S
H601 N588 0.985 . S
C602 C603 1.363 . S
C602 C608 1.379 . S
C602 N610 1.356 . S
C603 C602 1.363 . S
C603 C609 1.363 . S
C604 C605 1.363 . S
C604 C609 1.379 . S
C604 N611 1.356 . S
C605 C604 1.363 . S
C605 C608 1.363 . S
N606 C608 1.356 . S
N606 H618 0.984 . S
N606 H619 0.985 . S
N607 C609 1.356 . S
N607 H612 0.984 . S
N607 H613 0.985 . S
C608 C602 1.379 . S
C608 C605 1.363 . S
C608 N606 1.356 . S
C609 C603 1.363 . S
C609 C604 1.379 . S
C609 N607 1.356 . S
N610 C602 1.356 . S
N610 H616 0.984 . S
N610 H617 0.984 . S
N611 C604 1.356 . S
N611 H614 0.984 . S
N611 H615 0.985 . S
H612 N607 0.984 . S
H613 N607 0.985 . S
H614 N611 0.984 . S
H615 N611 0.985 . S
H616 N610 0.984 . S
H617 N610 0.984 . S
H618 N606 0.984 . S
H619 N606 0.985 . S
C620 C621 1.365 . S
C620 C626 1.379 . S
C620 N628 1.356 1_455 S
C621 C620 1.365 . S
C621 C627 1.387 . S
C622 C623 1.363 . S
C622 C627 1.379 . S
C622 N629 1.356 . S
C623 C622 1.363 . S
C623 C626 1.363 . S
N624 C626 1.356 . S
N624 H636 0.984 . S
N624 H637 0.985 . S
N625 C627 1.356 . S
N625 H630 0.984 1_455 S
N625 H631 0.985 . S
C626 C620 1.379 . S
C626 C623 1.363 . S
C626 N624 1.356 . S
C627 C621 1.387 . S
C627 C622 1.379 . S
C627 N625 1.356 . S
N628 C620 1.356 1_655 S
N628 H634 0.984 . S
N628 H635 0.984 . S
N629 C622 1.356 . S
N629 H632 0.984 . S
N629 H633 0.985 . S
H630 N625 0.984 1_655 S
H631 N625 0.985 . S
H632 N629 0.984 . S
H633 N629 0.985 . S
H634 N628 0.984 . S
H635 N628 0.984 . S
H636 N624 0.984 . S
H637 N624 0.985 . S
C638 C639 1.391 . S
C638 C644 1.379 . S
C638 N646 1.356 . S
C639 C638 1.391 . S
C639 C645 1.363 1_545 S
C640 C641 1.363 . S
C640 C645 1.361 1_545 S
C640 N647 1.356 . S
C641 C640 1.363 . S
C641 C644 1.363 . S
N642 C644 1.356 . S
N642 H654 0.984 . S
N642 H655 0.985 . S
N643 C645 1.378 . S
N643 H648 0.984 . S
N643 H649 0.985 . S
C644 C638 1.379 . S
C644 C641 1.363 . S
C644 N642 1.356 . S
C645 C639 1.363 1_565 S
C645 C640 1.361 1_565 S
C645 N643 1.378 . S
N646 C638 1.356 . S
N646 H652 0.984 . S
N646 H653 0.984 . S
N647 C640 1.356 . S
N647 H650 0.984 . S
N647 H651 0.985 . S
H648 N643 0.984 . S
H649 N643 0.985 . S
H650 N647 0.984 . S
H651 N647 0.985 . S
H652 N646 0.984 . S
H653 N646 0.984 . S
H654 N642 0.984 . S
H655 N642 0.985 . S
C656 C657 1.363 . S
C656 C662 1.379 . S
C656 N664 1.356 . S
C657 C656 1.363 . S
C657 C663 1.363 . S
C658 C659 1.363 . S
C658 C663 1.379 . S
C658 N665 1.356 . S
C659 C658 1.363 . S
C659 C662 1.363 . S
N660 C662 1.356 . S
N660 H672 0.984 . S
N660 H673 0.985 . S
N661 C663 1.356 . S
N661 H666 0.984 . S
N661 H667 0.985 . S
C662 C656 1.379 . S
C662 C659 1.363 . S
C662 N660 1.356 . S
C663 C657 1.363 . S
C663 C658 1.379 . S
C663 N661 1.356 . S
N664 C656 1.356 . S
N664 H670 0.984 . S
N664 H671 0.984 . S
N665 C658 1.356 . S
N665 H668 0.984 . S
N665 H669 0.985 . S
H666 N661 0.984 . S
H667 N661 0.985 . S
H668 N665 0.984 . S
H669 N665 0.985 . S
H670 N664 0.984 . S
H671 N664 0.984 . S
H672 N660 0.984 . S
H673 N660 0.985 . S
C674 C675 1.363 . S
C674 C680 1.379 . S
C674 N682 1.356 . S
C675 C674 1.363 . S
C675 C681 1.363 . S
C676 C677 1.363 . S
C676 C681 1.379 . S
C676 N683 1.356 . S
C677 C676 1.363 . S
C677 C680 1.363 . S
N678 C680 1.356 . S
N678 H690 0.984 . S
N678 H691 0.985 . S
N679 C681 1.356 . S
N679 H684 0.984 . S
N679 H685 0.985 . S
C680 C674 1.379 . S
C680 C677 1.363 . S
C680 N678 1.356 . S
C681 C675 1.363 . S
C681 C676 1.379 . S
C681 N679 1.356 . S
N682 C674 1.356 . S
N682 H688 0.984 . S
N682 H689 0.984 . S
N683 C676 1.356 . S
N683 H686 0.984 . S
N683 H687 0.985 . S
H684 N679 0.984 . S
H685 N679 0.985 . S
H686 N683 0.984 . S
H687 N683 0.985 . S
H688 N682 0.984 . S
H689 N682 0.984 . S
H690 N678 0.984 . S
H691 N678 0.985 . S
C692 C693 1.363 1_554 S
C692 C698 1.379 1_554 S
C692 N700 1.356 . S
C693 C692 1.363 1_556 S
C693 C699 1.363 . S
C694 C695 1.363 . S
C694 C699 1.379 . S
C694 N701 1.356 . S
C695 C694 1.363 . S
C695 C698 1.363 . S
N696 C698 1.356 1_554 S
N696 H708 0.984 . S
N696 H709 0.985 1_554 S
N697 C699 1.356 . S
N697 H702 0.984 . S
N697 H703 0.985 . S
C698 C692 1.379 1_556 S
C698 C695 1.363 . S
C698 N696 1.356 1_556 S
C699 C693 1.363 . S
C699 C694 1.379 . S
C699 N697 1.356 . S
N700 C692 1.356 . S
N700 H706 0.984 . S
N700 H707 0.984 . S
N701 C694 1.356 . S
N701 H704 0.984 . S
N701 H705 0.985 . S
H702 N697 0.984 . S
H703 N697 0.985 . S
H704 N701 0.984 . S
H705 N701 0.985 . S
H706 N700 0.984 . S
H707 N700 0.984 . S
H708 N696 0.984 . S
H709 N696 0.985 1_556 S
C710 C711 1.364 1_545 S
C710 C716 1.379 . S
C710 N718 1.356 . S
C711 C710 1.364 1_565 S
C711 C717 1.361 . S
C712 C713 1.375 . S
C712 C717 1.379 . S
C712 N719 1.356 . S
C713 C712 1.375 . S
C713 C716 1.350 1_565 S
N714 C716 1.356 . S
N714 H726 0.984 . S
N714 H727 0.985 . S
N715 C717 1.356 1_554 S
N715 H720 0.984 . S
N715 H721 0.985 . S
C716 C710 1.379 . S
C716 C713 1.350 1_545 S
C716 N714 1.356 . S
C717 C711 1.361 . S
C717 C712 1.379 . S
C717 N715 1.356 1_556 S
N718 C710 1.356 . S
N718 H724 0.984 . S
N718 H725 0.984 . S
N719 C712 1.356 . S
N719 H722 0.984 . S
N719 H723 0.985 . S
H720 N715 0.984 . S
H721 N715 0.985 . S
H722 N719 0.984 . S
H723 N719 0.985 . S
H724 N718 0.984 . S
H725 N718 0.984 . S
H726 N714 0.984 . S
H727 N714 0.985 . S
C728 C729 1.363 . S
C728 C734 1.379 . S
C728 N736 1.356 . S
C729 C728 1.363 . S
C729 C735 1.363 . S
C730 C731 1.363 . S
C730 C735 1.379 . S
C730 N737 1.356 . S
C731 C730 1.363 . S
C731 C734 1.363 . S
N732 C734 1.356 . S
N732 H744 0.984 . S
N732 H745 0.985 . S
N733 C735 1.356 . S
N733 H738 0.984 . S
N733 H739 0.985 . S
C734 C728 1.379 . S
C734 C731 1.363 . S
C734 N732 1.356 . S
C735 C729 1.363 . S
C735 C730 1.379 . S
C735 N733 1.356 . S
N736 C728 1.356 . S
N736 H742 0.984 1_556 S
N736 H743 0.984 . S
N737 C730 1.356 . S
N737 H740 0.984 . S
N737 H741 0.985 . S
H738 N733 0.984 . S
H739 N733 0.985 . S
H740 N737 0.984 . S
H741 N737 0.985 . S
H742 N736 0.984 1_554 S
H743 N736 0.984 . S
H744 N732 0.984 . S
H745 N732 0.985 . S
C746 C747 1.363 . S
C746 C752 1.379 . S
C746 N754 1.356 . S
C747 C746 1.363 . S
C747 C753 1.363 . S
C748 C749 1.363 . S
C748 C753 1.379 . S
C748 N755 1.356 . S
C749 C748 1.363 . S
C749 C752 1.363 . S
N750 C752 1.356 . S
N750 H762 0.984 . S
N750 H763 0.985 . S
N751 C753 1.356 1_554 S
N751 H756 0.984 1_554 S
N751 H757 0.985 . S
C752 C746 1.379 . S
C752 C749 1.363 . S
C752 N750 1.356 . S
C753 C747 1.363 . S
C753 C748 1.379 . S
C753 N751 1.356 1_556 S
N754 C746 1.356 . S
N754 H760 0.984 . S
N754 H761 0.984 . S
N755 C748 1.356 . S
N755 H758 0.984 . S
N755 H759 0.985 1_556 S
H756 N751 0.984 1_556 S
H757 N751 0.985 . S
H758 N755 0.984 . S
H759 N755 0.985 1_554 S
H760 N754 0.984 . S
H761 N754 0.984 . S
H762 N750 0.984 . S
H763 N750 0.985 . S
C764 C765 1.363 1_455 S
C764 C770 1.379 . S
C764 N772 1.356 . S
C765 C764 1.363 1_655 S
C765 C771 1.363 . S
C766 C767 1.363 . S
C766 C771 1.379 . S
C766 N773 1.356 . S
C767 C766 1.363 . S
C767 C770 1.363 1_655 S
N768 C770 1.356 . S
N768 H780 0.984 . S
N768 H781 0.985 . S
N769 C771 1.356 . S
N769 H774 0.984 . S
N769 H775 0.985 . S
C770 C764 1.379 . S
C770 C767 1.363 1_455 S
C770 N768 1.356 . S
C771 C765 1.363 . S
C771 C766 1.379 . S
C771 N769 1.356 . S
N772 C764 1.356 . S
N772 H778 0.984 . S
N772 H779 0.984 . S
N773 C766 1.356 . S
N773 H776 0.984 . S
N773 H777 0.985 . S
H774 N769 0.984 . S
H775 N769 0.985 . S
H776 N773 0.984 . S
H777 N773 0.985 . S
H778 N772 0.984 . S
H779 N772 0.984 . S
H780 N768 0.984 . S
H781 N768 0.985 . S
C782 C783 1.363 . S
C782 C788 1.379 . S
C782 N790 1.356 . S
C783 C782 1.363 . S
C783 C789 1.363 1_565 S
C784 C785 1.363 1_545 S
C784 C789 1.379 . S
C784 N791 1.356 . S
C785 C784 1.363 1_565 S
C785 C788 1.363 . S
N786 C788 1.356 . S
N786 H798 0.984 . S
N786 H799 0.985 . S
N787 C789 1.356 . S
N787 H792 0.984 . S
N787 H793 0.985 . S
C788 C782 1.379 . S
C788 C785 1.363 . S
C788 N786 1.356 . S
C789 C783 1.363 1_545 S
C789 C784 1.379 . S
C789 N787 1.356 . S
N790 C782 1.356 . S
N790 H796 0.984 . S
N790 H797 0.984 . S
N791 C784 1.356 . S
N791 H794 0.984 . S
N791 H795 0.985 . S
H792 N787 0.984 . S
H793 N787 0.985 . S
H794 N791 0.984 . S
H795 N791 0.985 . S
H796 N790 0.984 . S
H797 N790 0.984 . S
H798 N786 0.984 . S
H799 N786 0.985 . S
C800 C801 1.363 . S
C800 C806 1.379 . S
C800 N808 1.356 . S
C801 C800 1.363 . S
C801 C807 1.363 . S
C802 C803 1.363 . S
C802 C807 1.379 . S
C802 N809 1.356 . S
C803 C802 1.363 . S
C803 C806 1.363 . S
N804 C806 1.356 . S
N804 H816 0.984 . S
N804 H817 0.985 . S
N805 C807 1.356 . S
N805 H810 0.984 . S
N805 H811 0.985 . S
C806 C800 1.379 . S
C806 C803 1.363 . S
C806 N804 1.356 . S
C807 C801 1.363 . S
C807 C802 1.379 . S
C807 N805 1.356 . S
N808 C800 1.356 . S
N808 H814 0.984 . S
N808 H815 0.984 . S
N809 C802 1.356 . S
N809 H812 0.984 . S
N809 H813 0.985 . S
H810 N805 0.984 . S
H811 N805 0.985 . S
H812 N809 0.984 . S
H813 N809 0.985 . S
H814 N808 0.984 . S
H815 N808 0.984 . S
H816 N804 0.984 . S
H817 N804 0.985 . S
C818 C819 1.363 . S
C818 C824 1.379 . S
C818 N826 1.356 . S
C819 C818 1.363 . S
C819 C825 1.363 . S
C820 C821 1.363 . S
C820 C825 1.379 . S
C820 N827 1.356 . S
C821 C820 1.363 . S
C821 C824 1.363 . S
N822 C824 1.356 . S
N822 H834 0.984 . S
N822 H835 0.985 . S
N823 C825 1.356 . S
N823 H828 0.984 . S
N823 H829 0.985 . S
C824 C818 1.379 . S
C824 C821 1.363 . S
C824 N822 1.356 . S
C825 C819 1.363 . S
C825 C820 1.379 . S
C825 N823 1.356 . S
N826 C818 1.356 . S
N826 H832 0.984 . S
N826 H833 0.984 . S
N827 C820 1.356 . S
N827 H830 0.984 . S
N827 H831 0.985 . S
H828 N823 0.984 . S
H829 N823 0.985 . S
H830 N827 0.984 . S
H831 N827 0.985 . S
H832 N826 0.984 . S
H833 N826 0.984 . S
H834 N822 0.984 . S
H835 N822 0.985 . S
C405 C255 1.844 . S
C407 C328 1.847 . S
C425 C351 2.027 . S
C423 C294 1.996 . S
C443 C374 1.872 . S
C441 C177 1.856 . S
C461 C401 1.741 . S
C459 C216 1.848 . S
C479 C329 1.716 . S
C477 C99 1.699 1_545 S
C495 C138 1.747 . S
C497 C352 1.814 . S
C513 C21 1.635 . S
C515 C375 1.658 . S
C531 C60 1.836 1_556 S
C533 C400 1.862 . S
C551 C330 0.845 . S
C549 C196 0.788 . S
C569 C353 0.434 . S
C567 C235 0.574 . S
C587 C376 0.631 . S
C585 C289 0.687 . S
C603 C157 0.704 . S
C605 C402 0.730 . S
C621 C40 0.848 1_455 S
C623 C333 0.809 . S
C641 C356 0.764 . S
C639 C79 0.779 1_545 S
C659 C379 0.856 . S
C657 C133 0.932 . S
C675 C1 0.495 . S
C677 C399 0.373 . S
C693 C211 2.011 1_556 S
C695 C331 2.027 . S
C711 C250 1.945 1_565 S
C713 C354 1.999 1_565 S
C731 C377 2.053 . S
C729 C274 1.993 . S
C749 C398 1.893 . S
C747 C172 1.741 . S
C765 C55 2.083 . S
C767 C332 2.073 1_655 S
C785 C355 1.916 . S
C783 C94 1.939 1_565 S
C803 C378 1.937 . S
C801 C118 1.948 . S
C819 C16 2.037 . S
C821 C397 2.172 . S
