# Generated by pormake.
# Topology pyr, (3,6)-cn, num edge types: 1
# Building blocks:
#     Node 0, Type 0, BuildingBlock: BELTOD_clean_linker_0, # of connection points: 3
#     Node 1, Type 0, BuildingBlock: BELTOD_clean_linker_0, # of connection points: 3
#     Node 2, Type 0, BuildingBlock: BELTOD_clean_linker_0, # of connection points: 3
#     Node 3, Type 0, BuildingBlock: BELTOD_clean_linker_0, # of connection points: 3
#     Node 4, Type 0, BuildingBlock: BELTOD_clean_linker_0, # of connection points: 3
#     Node 5, Type 0, BuildingBlock: BELTOD_clean_linker_0, # of connection points: 3
#     Node 6, Type 0, BuildingBlock: BELTOD_clean_linker_0, # of connection points: 3
#     Node 7, Type 0, BuildingBlock: BELTOD_clean_linker_0, # of connection points: 3
#     Node 8, Type 1, BuildingBlock: BETFAJ_clean_sbu_0, # of connection points: 6
#     Node 9, Type 1, BuildingBlock: BETFAJ_clean_sbu_0, # of connection points: 6
#     Node 10, Type 1, BuildingBlock: BETFAJ_clean_sbu_0, # of connection points: 6
#     Node 11, Type 1, BuildingBlock: BETFAJ_clean_sbu_0, # of connection points: 6
#     Edge 12, Type (0, 1), BuildingBlock: OJICUG_clean_linker_0, # of connection points: 2
#     Edge 13, Type (0, 1), BuildingBlock: OJICUG_clean_linker_0, # of connection points: 2
#     Edge 14, Type (0, 1), BuildingBlock: OJICUG_clean_linker_0, # of connection points: 2
#     Edge 15, Type (0, 1), BuildingBlock: OJICUG_clean_linker_0, # of connection points: 2
#     Edge 16, Type (0, 1), BuildingBlock: OJICUG_clean_linker_0, # of connection points: 2
#     Edge 17, Type (0, 1), BuildingBlock: OJICUG_clean_linker_0, # of connection points: 2
#     Edge 18, Type (0, 1), BuildingBlock: OJICUG_clean_linker_0, # of connection points: 2
#     Edge 19, Type (0, 1), BuildingBlock: OJICUG_clean_linker_0, # of connection points: 2
#     Edge 20, Type (0, 1), BuildingBlock: OJICUG_clean_linker_0, # of connection points: 2
#     Edge 21, Type (0, 1), BuildingBlock: OJICUG_clean_linker_0, # of connection points: 2
#     Edge 22, Type (0, 1), BuildingBlock: OJICUG_clean_linker_0, # of connection points: 2
#     Edge 23, Type (0, 1), BuildingBlock: OJICUG_clean_linker_0, # of connection points: 2
#     Edge 24, Type (0, 1), BuildingBlock: OJICUG_clean_linker_0, # of connection points: 2
#     Edge 25, Type (0, 1), BuildingBlock: OJICUG_clean_linker_0, # of connection points: 2
#     Edge 26, Type (0, 1), BuildingBlock: OJICUG_clean_linker_0, # of connection points: 2
#     Edge 27, Type (0, 1), BuildingBlock: OJICUG_clean_linker_0, # of connection points: 2
#     Edge 28, Type (0, 1), BuildingBlock: OJICUG_clean_linker_0, # of connection points: 2
#     Edge 29, Type (0, 1), BuildingBlock: OJICUG_clean_linker_0, # of connection points: 2
#     Edge 30, Type (0, 1), BuildingBlock: OJICUG_clean_linker_0, # of connection points: 2
#     Edge 31, Type (0, 1), BuildingBlock: OJICUG_clean_linker_0, # of connection points: 2
#     Edge 32, Type (0, 1), BuildingBlock: OJICUG_clean_linker_0, # of connection points: 2
#     Edge 33, Type (0, 1), BuildingBlock: OJICUG_clean_linker_0, # of connection points: 2
#     Edge 34, Type (0, 1), BuildingBlock: OJICUG_clean_linker_0, # of connection points: 2
#     Edge 35, Type (0, 1), BuildingBlock: OJICUG_clean_linker_0, # of connection points: 2
# Relax obj value: 0.155
# Max RMSD: 0.135
# Mean RMSD: 0.067
data_MOF--net-pyr--node1-BETFAJ_clean_sbu_0--node2-BELTOD_clean_linker_0--edge1-OJICUG_clean_linker_0
_symmetry_space_group_name_H-M    P1
_symmetry_Int_Tables_number       1
_symmetry_cell_setting            triclinic
loop_
_symmetry_equiv_pos_as_xyz
'x, y, z'
_cell_length_a     33.99716
_cell_length_b     35.293763
_cell_length_c     30.446827
_cell_angle_alpha  90.344183
_cell_angle_beta   88.033707
_cell_angle_gamma 104.8162
loop_
_atom_site_label
_atom_site_type_symbol
_atom_site_fract_x
_atom_site_fract_y
_atom_site_fract_z
_atom_type_partial_charge
P0 P 0.38824 0.35745 0.28111 0.0
H1 H 0.46137 0.34535 0.23497 0.0
H2 H 0.47999 0.28636 0.20876 0.0
H3 H 0.36467 0.21519 0.26 0.0
H4 H 0.34569 0.27411 0.28392 0.0
H5 H 0.37381 0.4336 0.26122 0.0
H6 H 0.31636 0.44984 0.22672 0.0
H7 H 0.27657 0.33086 0.17959 0.0
H8 H 0.33282 0.31461 0.21536 0.0
H9 H 0.39584 0.31209 0.35929 0.0
H10 H 0.31201 0.37552 0.31359 0.0
O11 O 0.4295 0.39335 0.29117 0.0
H12 H 0.34387 0.27757 0.41286 0.0
H13 H 0.26058 0.34112 0.36567 0.0
C14 C 0.40257 0.31411 0.26223 0.0
C15 C 0.44024 0.31701 0.24062 0.0
C16 C 0.45091 0.28318 0.22595 0.0
C17 C 0.42398 0.24585 0.23261 0.0
C18 C 0.38608 0.24331 0.25397 0.0
C19 C 0.37538 0.27708 0.2682 0.0
C20 C 0.35771 0.3729 0.24101 0.0
C21 C 0.35362 0.41145 0.24198 0.0
C22 C 0.32055 0.42064 0.22238 0.0
C23 C 0.29125 0.39137 0.20129 0.0
C24 C 0.2979 0.35381 0.19667 0.0
C25 C 0.33058 0.34459 0.21668 0.0
C26 C 0.35726 0.34493 0.33083 0.0
C27 C 0.36682 0.31949 0.36154 0.0
C28 C 0.33705 0.29966 0.392 0.0
C29 C 0.29769 0.3057 0.3925 0.0
C30 C 0.29041 0.33546 0.36602 0.0
C31 C 0.32001 0.355 0.33555 0.0
P32 P 0.34002 0.96038 0.57207 0.0
H33 H 0.41073 0.97371 0.62686 0.0
H34 H 0.41845 0.98427 0.70602 0.0
H35 H 0.29368 0.99173 0.71899 0.0
H36 H 0.28637 0.98188 0.64059 0.0
H37 H 0.3801 0.9095 0.52051 0.0
H38 H 0.38509 0.84265 0.53345 0.0
H39 H 0.29832 0.83173 0.64286 0.0
H40 H 0.29504 0.89893 0.63102 0.0
H41 H 0.31986 1.03042 0.54169 0.0
H42 H 0.2566 0.90953 0.56623 0.0
O43 O 0.37862 0.98371 0.53895 0.0
H44 H 0.2548 1.04746 0.54053 0.0
H45 H 0.19215 0.92668 0.5687 0.0
C46 C 0.34834 0.97775 0.62752 0.0
C47 C 0.38549 0.97883 0.64663 0.0
C48 C 0.38966 0.98433 0.6919 0.0
C49 C 0.35657 0.98862 0.71878 0.0
C50 C 0.3199 0.98906 0.69918 0.0
C51 C 0.31576 0.98348 0.65404 0.0
C52 C 0.33755 0.90915 0.57505 0.0
C53 C 0.36169 0.89244 0.54676 0.0
C54 C 0.36418 0.8541 0.55399 0.0
C55 C 0.34235 0.83209 0.58949 0.0
C56 C 0.31602 0.84818 0.61575 0.0
C57 C 0.314 0.88653 0.60886 0.0
C58 C 0.29321 0.9689 0.5546 0.0
C59 C 0.29198 1.00739 0.54575 0.0
C60 C 0.25478 1.01717 0.54602 0.0
C61 C 0.21834 0.98867 0.55616 0.0
C62 C 0.21954 0.94945 0.56105 0.0
C63 C 0.25671 0.93962 0.55993 0.0
P64 P 0.67754 0.3601 0.86252 0.0
H65 H 0.75523 0.34826 0.88672 0.0
H66 H 0.8087 0.38272 0.93437 0.0
H67 H 0.73802 0.46491 0.96905 0.0
H68 H 0.68405 0.4298 0.92069 0.0
H69 H 0.66812 0.27534 0.85371 0.0
H70 H 0.62834 0.21853 0.89456 0.0
H71 H 0.57865 0.29473 0.97921 0.0
H72 H 0.61829 0.35177 0.9372 0.0
H73 H 0.69357 0.44376 0.83769 0.0
H74 H 0.59962 0.3375 0.81911 0.0
O75 O 0.7028 0.34301 0.82228 0.0
H76 H 0.66022 0.47833 0.78706 0.0
H77 H 0.56675 0.37165 0.76752 0.0
C78 C 0.71604 0.38702 0.899 0.0
C79 C 0.75114 0.3738 0.90433 0.0
C80 C 0.78168 0.3934 0.93207 0.0
C81 C 0.77791 0.42676 0.95568 0.0
C82 C 0.74224 0.43965 0.95096 0.0
C83 C 0.71135 0.41964 0.92329 0.0
C84 C 0.64601 0.318 0.89206 0.0
C85 C 0.64852 0.28001 0.88085 0.0
C86 C 0.62594 0.24734 0.90466 0.0
C87 C 0.60023 0.25173 0.94051 0.0
C88 C 0.59768 0.28998 0.95156 0.0
C89 C 0.62041 0.32273 0.92763 0.0
C90 C 0.64832 0.38825 0.83388 0.0
C91 C 0.66504 0.4281 0.824 0.0
C92 C 0.64613 0.44781 0.79454 0.0
C93 C 0.61079 0.4278 0.77305 0.0
C94 C 0.59399 0.38796 0.78326 0.0
C95 C 0.6125 0.36851 0.81331 0.0
P96 P 0.81797 0.72237 0.35916 0.0
H97 H 0.89651 0.77977 0.34287 0.0
H98 H 0.93145 0.83931 0.38197 0.0
H99 H 0.8394 0.81151 0.48635 0.0
H100 H 0.80487 0.7527 0.44732 0.0
H101 H 0.81396 0.69802 0.26716 0.0
H102 H 0.85011 0.65996 0.22188 0.0
H103 H 0.92034 0.64531 0.33315 0.0
H104 H 0.88351 0.68377 0.37874 0.0
H105 H 0.72934 0.70122 0.35085 0.0
H106 H 0.81506 0.67254 0.43765 0.0
O107 O 0.7968 0.74654 0.32374 0.0
H108 H 0.67303 0.66337 0.39634 0.0
H109 H 0.75831 0.63349 0.48342 0.0
C110 C 0.84873 0.76076 0.39266 0.0
C111 C 0.88449 0.78596 0.37475 0.0
C112 C 0.90412 0.82036 0.39686 0.0
C113 C 0.88836 0.83037 0.43747 0.0
C114 C 0.85291 0.80459 0.4556 0.0
C115 C 0.83318 0.77054 0.4333 0.0
C116 C 0.84638 0.69444 0.32636 0.0
C117 C 0.83739 0.68705 0.28195 0.0
C118 C 0.85831 0.66527 0.25584 0.0
C119 C 0.88858 0.64972 0.27349 0.0
C120 C 0.89716 0.65666 0.31834 0.0
C121 C 0.87628 0.67882 0.34448 0.0
C122 C 0.77664 0.69016 0.39094 0.0
C123 C 0.73618 0.68637 0.37949 0.0
C124 C 0.70374 0.66431 0.40555 0.0
C125 C 0.7108 0.64522 0.44385 0.0
C126 C 0.75154 0.64812 0.45456 0.0
C127 C 0.7841 0.67022 0.42825 0.0
P128 P 0.66392 0.82033 0.89782 0.0
H129 H 0.65049 0.82982 0.99103 0.0
H130 H 0.60969 0.86884 1.02795 0.0
H131 H 0.5443 0.87027 0.90921 0.0
H132 H 0.58471 0.8306 0.87254 0.0
H133 H 0.73881 0.80459 0.86884 0.0
H134 H 0.77788 0.76049 0.8932 0.0
H135 H 0.68577 0.71473 0.99411 0.0
H136 H 0.64559 0.759 0.96843 0.0
H137 H 0.65539 0.87388 0.82914 0.0
H138 H 0.65646 0.75239 0.83818 0.0
O139 O 0.69852 0.86317 0.90229 0.0
H140 H 0.68486 0.87733 0.7556 0.0
H141 H 0.68633 0.75545 0.7639 0.0
C142 C 0.62069 0.82723 0.92905 0.0
C143 C 0.62574 0.83639 0.97366 0.0
C144 C 0.60283 0.85925 0.99456 0.0
C145 C 0.57466 0.87331 0.97099 0.0
C146 C 0.56593 0.85987 0.92804 0.0
C147 C 0.589 0.83703 0.9071 0.0
C148 C 0.68936 0.78502 0.91678 0.0
C149 C 0.72658 0.78473 0.89585 0.0
C150 C 0.74881 0.75932 0.90964 0.0
C151 C 0.73463 0.73388 0.94523 0.0
C152 C 0.69721 0.73403 0.96646 0.0
C153 C 0.67437 0.75928 0.95194 0.0
C154 C 0.6563 0.81369 0.83986 0.0
C155 C 0.65976 0.84722 0.81428 0.0
C156 C 0.67669 0.84903 0.77178 0.0
C157 C 0.69042 0.81723 0.7549 0.0
C158 C 0.67774 0.78095 0.77686 0.0
C159 C 0.66063 0.77919 0.81945 0.0
P160 P 0.85867 0.29817 0.48191 0.0
H161 H 0.83992 0.36666 0.52494 0.0
H162 H 0.775 0.38301 0.54026 0.0
H163 H 0.71046 0.2675 0.4975 0.0
H164 H 0.77514 0.25184 0.48121 0.0
H165 H 0.92664 0.2629 0.4754 0.0
H166 H 0.9337 0.19908 0.49909 0.0
H167 H 0.82006 0.17997 0.57404 0.0
H168 H 0.81388 0.24423 0.55167 0.0
H169 H 0.84593 0.34229 0.40546 0.0
H170 H 0.84517 0.22269 0.43551 0.0
O171 O 0.89767 0.33787 0.48449 0.0
H172 H 0.81515 0.32073 0.33486 0.0
H173 H 0.81539 0.20153 0.36592 0.0
C174 C 0.81217 0.30814 0.50191 0.0
C175 C 0.81177 0.34468 0.51973 0.0
C176 C 0.77469 0.35387 0.52867 0.0
C177 C 0.73775 0.32656 0.51971 0.0
C178 C 0.73845 0.28925 0.50415 0.0
C179 C 0.77537 0.28024 0.49505 0.0
C180 C 0.86944 0.25804 0.51096 0.0
C181 C 0.90386 0.24546 0.49792 0.0
C182 C 0.90741 0.2087 0.5108 0.0
C183 C 0.87659 0.18404 0.53707 0.0
C184 C 0.84387 0.19812 0.55317 0.0
C185 C 0.84034 0.23493 0.54021 0.0
C186 C 0.84874 0.2844 0.42556 0.0
C187 C 0.84072 0.31176 0.39622 0.0
C188 C 0.82279 0.29939 0.35616 0.0
C189 C 0.81294 0.25946 0.34488 0.0
C190 C 0.8233 0.23259 0.37323 0.0
C191 C 0.84064 0.24485 0.41331 0.0
P192 P 0.36095 0.71731 0.24578 0.0
H193 H 0.30898 0.74621 0.18663 0.0
H194 H 0.24155 0.71705 0.1592 0.0
H195 H 0.22713 0.62078 0.25041 0.0
H196 H 0.29522 0.6498 0.27686 0.0
H197 H 0.44109 0.76291 0.21641 0.0
H198 H 0.46977 0.8316 0.19884 0.0
H199 H 0.35787 0.85779 0.24454 0.0
H200 H 0.32878 0.78782 0.26113 0.0
H201 H 0.43234 0.68957 0.26408 0.0
H202 H 0.32652 0.7034 0.33789 0.0
O203 O 0.38178 0.69717 0.20429 0.0
H204 H 0.45317 0.65813 0.32692 0.0
H205 H 0.34733 0.67134 0.40174 0.0
C206 C 0.30689 0.70128 0.23534 0.0
C207 C 0.29079 0.71963 0.20205 0.0
C208 C 0.25205 0.70264 0.18605 0.0
C209 C 0.22848 0.66637 0.2024 0.0
C210 C 0.24433 0.6485 0.23657 0.0
C211 C 0.28317 0.66555 0.25247 0.0
C212 C 0.38255 0.76988 0.23956 0.0
C213 C 0.42267 0.78334 0.22305 0.0
C214 C 0.43921 0.82301 0.21321 0.0
C215 C 0.41634 0.85081 0.22017 0.0
C216 C 0.37634 0.8374 0.23811 0.0
C217 C 0.35972 0.79736 0.24797 0.0
C218 C 0.37718 0.698 0.29558 0.0
C219 C 0.41341 0.68582 0.29387 0.0
C220 C 0.4253 0.66758 0.33 0.0
C221 C 0.40156 0.66125 0.36935 0.0
C222 C 0.36631 0.67547 0.37197 0.0
C223 C 0.35426 0.69371 0.33541 0.0
P224 P 0.17558 0.36685 0.80531 0.0
H225 H 0.18897 0.2891 0.79441 0.0
H226 H 0.15469 0.23076 0.75437 0.0
H227 H 0.06768 0.29094 0.70949 0.0
H228 H 0.10266 0.34985 0.75004 0.0
H229 H 0.26374 0.39515 0.81428 0.0
H230 H 0.31884 0.42978 0.76536 0.0
H231 H 0.2316 0.43913 0.66857 0.0
H232 H 0.17629 0.4026 0.71766 0.0
H233 H 0.11174 0.34688 0.87381 0.0
H234 H 0.17267 0.45006 0.79985 0.0
O235 O 0.19824 0.35021 0.84612 0.0
H236 H 0.08018 0.38648 0.92259 0.0
H237 H 0.13975 0.48983 0.84704 0.0
C238 C 0.1479 0.32371 0.77616 0.0
C239 C 0.1622 0.28976 0.77648 0.0
C240 C 0.14242 0.25619 0.75353 0.0
C241 C 0.108 0.25571 0.72897 0.0
C242 C 0.0941 0.29014 0.72798 0.0
C243 C 0.11389 0.32382 0.75136 0.0
C244 C 0.21573 0.39587 0.7696 0.0
C245 C 0.25624 0.40465 0.78262 0.0
C246 C 0.28795 0.42498 0.75454 0.0
C247 C 0.28007 0.43757 0.7127 0.0
C248 C 0.23915 0.42951 0.70016 0.0
C249 C 0.20735 0.40881 0.72832 0.0
C250 C 0.14439 0.39524 0.83281 0.0
C251 C 0.11732 0.37796 0.86718 0.0
C252 C 0.09921 0.40085 0.89521 0.0
C253 C 0.10747 0.44181 0.88948 0.0
C254 C 0.1332 0.45868 0.8535 0.0
C255 C 0.15166 0.43575 0.82579 0.0
Sm256 Sm 0.0138 0.06732 0.5387 0.0
Sm257 Sm 0.9844 1.02231 0.62096 0.0
C258 C 0.03569 0.10664 0.46494 0.0
C259 C 0.07485 0.13484 0.45418 0.0
C260 C 0.07591 0.1712 0.43526 0.0
C261 C 0.113 0.19943 0.42929 0.0
C262 C 0.14953 0.19167 0.44229 0.0
C263 C 0.14826 0.15515 0.46109 0.0
C264 C 0.11137 0.12708 0.46698 0.0
C265 C 0.07329 1.0415 0.57878 0.0
C266 C 0.03427 0.11453 0.62964 0.0
C267 C 0.96314 0.98084 0.69316 0.0
C268 C 0.9244 0.95067 0.70122 0.0
C269 C 0.92179 0.91091 0.6924 0.0
C270 C 0.88388 0.88353 0.69185 0.0
C271 C 0.84795 0.89551 0.69982 0.0
C272 C 0.8507 0.93486 0.71039 0.0
C273 C 0.88841 0.96206 0.7113 0.0
C274 C 0.92702 0.05162 0.58063 0.0
C275 C 0.96162 0.97514 0.53087 0.0
O276 O 0.01315 0.11783 0.49551 0.0
O277 O 0.03708 0.07019 0.46962 0.0
O278 O 0.03732 1.02138 0.57405 0.0
O279 O 0.07832 0.07625 0.56272 0.0
O280 O 0.02564 0.11817 0.58817 0.0
O281 O 0.02744 0.07936 0.64795 0.0
O282 O 0.98803 0.97225 0.66323 0.0
O283 O 0.96029 1.01701 0.68988 0.0
O284 O 0.9634 0.06881 0.58579 0.0
O285 O 0.91771 1.01832 0.60102 0.0
O286 O 0.96944 0.97163 0.57243 0.0
O287 O 0.97022 1.01011 0.51182 0.0
H288 H 0.04804 0.17794 0.4257 0.0
H289 H 0.11313 0.22715 0.41416 0.0
H290 H 0.17576 0.14845 0.4719 0.0
H291 H 0.11149 0.0995 0.48229 0.0
H292 H 0.94894 0.9012 0.68443 0.0
H293 H 0.88259 0.85321 0.68429 0.0
H294 H 0.82357 0.94466 0.71818 0.0
H295 H 0.88912 0.99231 0.71851 0.0
Sm296 Sm 0.53924 0.0739 0.11007 0.0
Sm297 Sm 0.45575 1.0493 0.07998 0.0
C298 C 0.61438 0.11293 0.12865 0.0
C299 C 0.64088 0.13672 0.16148 0.0
C300 C 0.64899 0.17785 0.16105 0.0
C301 C 0.67786 0.20043 0.1887 0.0
C302 C 0.69943 0.18231 0.21688 0.0
C303 C 0.69066 0.14119 0.2179 0.0
C304 C 0.66183 0.11866 0.19041 0.0
C305 C 0.4948 1.00716 0.15333 0.0
C306 C 0.46941 0.11216 0.15614 0.0
C307 C 0.38549 1.01437 1.04524 0.0
C308 C 0.37748 1.00358 0.99914 0.0
C309 C 0.33969 1.00259 0.98156 0.0
C310 C 0.33428 0.99754 0.93631 0.0
C311 C 0.36667 0.99345 0.90815 0.0
C312 C 0.40412 0.99352 0.92623 0.0
C313 C 0.40951 0.9987 0.97119 0.0
C314 C 0.50382 0.11422 1.03583 0.0
C315 C 0.52322 1.00609 1.03987 0.0
O316 O 0.58912 0.12867 0.10842 0.0
O317 O 0.59946 0.07561 0.13685 0.0
O318 O 0.48072 1.03619 0.14448 0.0
O319 O 0.53321 1.01442 0.14267 0.0
O320 O 0.50836 0.11712 0.1456 0.0
O321 O 0.44177 0.08206 0.14101 0.0
O322 O 0.40771 0.99525 1.06557 0.0
O323 O 0.3968 0.05199 1.05242 0.0
O324 O 0.51457 0.08355 1.0448 0.0
O325 O 0.46664 0.11086 1.04918 0.0
O326 O 0.48475 1.0017 1.05159 0.0
O327 O 0.55083 1.03765 1.05125 0.0
H328 H 0.63383 0.19267 0.13859 0.0
H329 H 0.68414 0.23208 0.18708 0.0
H330 H 0.70626 0.12635 0.23988 0.0
H331 H 0.65666 0.08708 0.19117 0.0
H332 H 0.31481 1.00682 1.00259 0.0
H333 H 0.30498 0.99733 0.92328 0.0
H334 H 0.42987 0.99115 0.90541 0.0
H335 H 0.43924 1.00028 0.98382 0.0
Sm336 Sm 0.49106 0.50644 0.54723 0.0
Sm337 Sm 0.49812 0.5728 0.60646 0.0
C338 C 0.50373 0.44753 0.50006 0.0
C339 C 0.53591 0.42714 0.50342 0.0
C340 C 0.57334 0.44695 0.52063 0.0
C341 C 0.60343 0.42739 0.52662 0.0
C342 C 0.59658 0.38757 0.51575 0.0
C343 C 0.55891 0.36768 0.49877 0.0
C344 C 0.52869 0.38739 0.49273 0.0
C345 C 0.42024 0.50226 0.59619 0.0
C346 C 0.53624 0.50547 0.64216 0.0
C347 C 0.48354 0.62873 0.65745 0.0
C348 C 0.45496 0.65309 0.65422 0.0
C349 C 0.42049 0.64075 0.62855 0.0
C350 C 0.39574 0.66584 0.62116 0.0
C351 C 0.40511 0.70352 0.63948 0.0
C352 C 0.43882 0.71516 0.66655 0.0
C353 C 0.46365 0.69008 0.67377 0.0
C354 C 0.56918 0.57747 0.5575 0.0
C355 C 0.45735 0.57625 0.50919 0.0
O356 O 0.5158 0.48403 0.48704 0.0
O357 O 0.47801 0.44261 0.53365 0.0
O358 O 0.45588 0.5122 0.61045 0.0
O359 O 0.42116 0.4937 0.55472 0.0
O360 O 0.53306 0.49302 0.60104 0.0
O361 O 0.52123 0.53476 0.65477 0.0
O362 O 0.46704 0.5915 0.66456 0.0
O363 O 0.5127 0.6351 0.62719 0.0
O364 O 0.53355 0.56712 0.54311 0.0
O365 O 0.56806 0.58641 0.59888 0.0
O366 O 0.45984 0.58903 0.55026 0.0
O367 O 0.47101 0.54575 0.49784 0.0
H368 H 0.57934 0.47762 0.52953 0.0
H369 H 0.63235 0.44371 0.53899 0.0
H370 H 0.55274 0.33689 0.49043 0.0
H371 H 0.49966 0.3716 0.48011 0.0
H372 H 0.41333 0.61212 0.61326 0.0
H373 H 0.36981 0.65611 0.60045 0.0
H374 H 0.44708 0.74431 0.68053 0.0
H375 H 0.49033 0.70001 0.69339 0.0
Sm376 Sm 1.00202 0.50695 0.10608 0.0
Sm377 Sm 0.99986 0.5861 1.05727 0.0
C378 C 0.02393 0.4416 0.12111 0.0
C379 C 0.06088 0.43298 0.1373 0.0
C380 C 0.06907 0.3969 0.12753 0.0
C381 C 0.1063 0.39004 0.1383 0.0
C382 C 0.13607 0.41935 0.15871 0.0
C383 C 0.12743 0.45534 0.16902 0.0
C384 C 0.09009 0.46205 0.15846 0.0
C385 C 0.96655 0.55298 0.16153 0.0
C386 C 0.0762 0.58812 0.11964 0.0
C387 C 0.97893 0.64702 1.02484 0.0
C388 C 0.94002 0.65601 1.0163 0.0
C389 C 0.90552 0.64201 1.04412 0.0
C390 C 0.86838 0.64976 1.03449 0.0
C391 C 0.8651 0.67094 0.99649 0.0
C392 C 0.89969 0.6847 0.96871 0.0
C393 C 0.93682 0.67736 0.9786 0.0
C394 C 0.0424 0.53923 1.01409 0.0
C395 C 0.92065 0.5069 1.05194 0.0
O396 O 0.02875 0.45914 0.0829 0.0
O397 O 1.00201 0.45637 0.14935 0.0
O398 O 0.9805 0.56013 0.12279 0.0
O399 O 0.97069 0.51872 0.17275 0.0
O400 O 0.06506 0.54923 0.11927 0.0
O401 O 0.05394 0.60949 0.10199 0.0
O402 O 0.98763 0.64446 1.06613 0.0
O403 O 0.98782 0.6197 1.00012 0.0
O404 O 0.00898 0.52787 1.03548 0.0
O405 O 0.05434 0.57734 1.01402 0.0
O406 O 0.93531 0.54531 1.04636 0.0
O407 O 0.941 0.48513 0.07224 0.0
H408 H 0.04708 0.37437 0.11061 0.0
H409 H 0.1122 0.36217 0.12954 0.0
H410 H 0.14952 0.47829 0.18524 0.0
H411 H 0.08428 0.49017 0.16608 0.0
H412 H 0.90716 0.62487 0.07306 0.0
H413 H 0.84214 0.63872 1.0563 0.0
H414 H 0.89815 0.7016 0.93952 0.0
H415 H 0.96303 0.68817 0.95665 0.0
C416 C 0.25941 0.23656 0.40779 0.0
C417 C 0.26264 0.27679 0.41337 0.0
H418 H 0.22101 0.17838 0.41164 0.0
C419 C 0.22939 0.28863 0.43227 0.0
H420 H 0.28407 0.22641 0.39247 0.0
C421 C 0.19291 0.26095 0.4429 0.0
C422 C 0.18909 0.22092 0.43499 0.0
H423 H 0.2311 0.31941 0.43733 0.0
H424 H 0.16746 0.27093 0.45649 0.0
C425 C 0.22307 0.20897 0.41847 0.0
C426 C 0.3781 0.9649 0.78916 0.0
C427 C 0.35926 0.99013 0.7673 0.0
H428 H 0.39426 0.94545 0.8508 0.0
C429 C 0.34169 1.0156 0.79223 0.0
H430 H 0.39109 0.94429 0.77096 0.0
C431 C 0.34328 1.01608 0.83803 0.0
C432 C 0.36249 0.99111 0.85982 0.0
H433 H 0.3272 1.03557 0.77629 0.0
H434 H 0.33034 1.03668 0.85628 0.0
C435 C 0.37969 0.96538 0.8349 0.0
C436 C 0.58088 0.43011 0.6984 0.0
C437 C 0.59229 0.44798 0.73915 0.0
H438 H 0.55518 0.43431 0.63567 0.0
C439 C 0.58603 0.48535 0.7471 0.0
H440 H 0.5857 0.40156 0.69092 0.0
C441 C 0.5681 0.50395 0.71563 0.0
C442 C 0.55657 0.48607 0.67492 0.0
H443 H 0.59433 0.49994 0.7781 0.0
H444 H 0.56329 0.53247 0.72328 0.0
C445 C 0.56361 0.44903 0.66657 0.0
C446 C 0.92151 0.6363 0.201 0.0
C447 C 0.91021 0.6258 0.24518 0.0
H448 H 0.9482 0.62188 0.14023 0.0
C449 C 0.91852 0.59152 0.26149 0.0
H450 H 0.9161 0.66266 0.18726 0.0
C451 C 0.93686 0.56815 0.2343 0.0
C452 C 0.94776 0.57852 0.19014 0.0
H453 H 0.90994 0.58215 0.29504 0.0
H454 H 0.94233 0.54174 0.2479 0.0
C455 C 0.94014 0.61303 0.17394 0.0
C456 C 0.40542 0.17891 0.19805 0.0
C457 C 0.43493 0.20983 0.21647 0.0
H458 H 0.39296 0.12351 0.16526 0.0
C459 C 0.47513 0.20639 0.21836 0.0
H460 H 0.37424 0.18067 0.19555 0.0
C461 C 0.48591 0.1737 0.20061 0.0
C462 C 0.45669 0.14352 0.18083 0.0
H463 H 0.49846 0.22917 0.23316 0.0
H464 H 0.51742 0.17258 0.20148 0.0
C465 C 0.41614 0.14605 0.18063 0.0
C466 C 0.18095 1.03589 0.58676 0.0
C467 C 0.17999 1.00036 0.56511 0.0
H468 H 0.14723 0.07645 0.60847 0.0
C469 C 0.14224 0.97611 0.55309 0.0
H470 H 0.20923 0.05464 0.59793 0.0
C471 C 0.10651 0.98802 0.56085 0.0
C472 C 0.1082 1.02459 0.58005 0.0
H473 H 0.1404 0.94862 0.53627 0.0
H474 H 0.07805 0.96976 0.54943 0.0
C475 C 0.14544 1.04807 0.59366 0.0
C476 C 0.83253 0.4267 1.0098 0.0
C477 C 0.81162 0.44786 0.98429 0.0
H478 H 0.8825 0.42836 1.05128 0.0
C479 C 0.82495 0.48906 0.98433 0.0
H480 H 0.82278 0.39501 1.01129 0.0
C481 C 0.8594 0.50838 1.00753 0.0
C482 C 0.88131 0.48701 1.03153 0.0
H483 H 0.80979 0.50637 0.96496 0.0
H484 H 0.8695 0.54004 1.00555 0.0
C485 C 0.86677 0.44594 1.03306 0.0
C486 C 0.67792 0.62684 0.51927 0.0
C487 C 0.67568 0.62416 0.47319 0.0
H488 H 0.64634 0.61412 0.58183 0.0
C489 C 0.63865 0.60317 0.45546 0.0
H490 H 0.70561 0.64297 0.53429 0.0
C491 C 0.60451 0.58684 0.48282 0.0
C492 C 0.60642 0.59099 0.52869 0.0
H493 H 0.63582 0.59974 0.42025 0.0
H494 H 0.57631 0.57174 0.46795 0.0
C495 C 0.64377 0.61045 0.54661 0.0
C496 C 0.21533 0.36959 0.19675 0.0
C497 C 0.25188 0.39851 0.18857 0.0
H498 H 0.15039 0.35366 0.1943 0.0
C499 C 0.25002 0.43454 0.17047 0.0
H500 H 0.21543 0.34189 0.21181 0.0
C501 C 0.21246 0.44141 0.16082 0.0
C502 C 0.17602 0.41236 0.16898 0.0
H503 H 0.27756 0.45736 0.16356 0.0
H504 H 0.21197 0.4693 0.1465 0.0
C505 C 0.17793 0.37637 0.18695 0.0
C506 C 0.59232 0.18445 0.9743 0.0
C507 C 0.57598 0.21654 0.96574 0.0
H508 H 0.58266 0.12713 1.00314 0.0
C509 C 0.53588 0.21436 0.98088 0.0
H510 H 0.62325 0.18515 0.96379 0.0
C511 C 0.5128 0.18118 1.00352 0.0
C512 C 0.52904 0.14913 1.01176 0.0
H513 H 0.52192 0.23805 0.97454 0.0
H514 H 0.48198 0.18059 1.01442 0.0
C515 C 0.56916 0.15119 0.99706 0.0
C516 C 0.92256 0.9034 0.4377 0.0
C517 C 0.908 0.8677 0.4607 0.0
H518 H 0.95033 0.96537 0.44148 0.0
C519 C 0.91128 0.86805 0.50662 0.0
H520 H 0.92017 0.90437 0.40237 0.0
C521 C 0.92845 0.90285 0.52891 0.0
C522 C 0.94277 0.93864 0.50612 0.0
H523 H 0.90086 0.84122 0.52548 0.0
H524 H 0.93035 0.90157 0.56429 0.0
C525 C 0.93955 0.93847 0.46015 0.0
C526 C 0.35846 0.76826 0.57105 0.0
C527 C 0.35132 0.79503 0.60271 0.0
H528 H 0.3812 0.718 0.55803 0.0
C529 C 0.35721 0.78844 0.64723 0.0
H530 H 0.35371 0.77238 0.53659 0.0
C531 C 0.37243 0.75718 0.65952 0.0
C532 C 0.38219 0.73201 0.62756 0.0
H533 H 0.35239 0.80873 0.67243 0.0
H534 H 0.37815 0.75365 0.69385 0.0
C535 C 0.37378 0.73695 0.58339 0.0
C536 C 0.7344 0.85637 0.69467 0.0
C537 C 0.72775 0.82601 0.7259 0.0
H538 H 0.77851 0.90266 0.66172 0.0
C539 C 0.76129 0.8125 0.73865 0.0
H540 H 0.70921 0.86686 0.68333 0.0
C541 C 0.80086 0.83292 0.7262 0.0
C542 C 0.80752 0.86707 0.70076 0.0
H543 H 0.75765 0.78924 0.76265 0.0
H544 H 0.82612 0.82441 0.74041 0.0
C545 C 0.77405 0.87699 0.68251 0.0
C546 C 0.79577 0.21439 0.2807 0.0
C547 C 0.78762 0.24464 0.30676 0.0
H548 H 0.77447 0.17136 0.23138 0.0
C549 C 0.75212 0.25694 0.29986 0.0
H550 H 0.82315 0.20466 0.28495 0.0
C551 C 0.7241 0.23773 0.26934 0.0
C552 C 0.7311 0.20586 0.24527 0.0
H553 H 0.74478 0.27985 0.31985 0.0
H554 H 0.69602 0.2465 0.26626 0.0
C555 C 0.76781 0.19521 0.25027 0.0
C556 C 0.42775 0.60536 0.39701 0.0
C557 C 0.41336 0.63868 0.4063 0.0
H558 H 0.45224 0.55982 0.4214 0.0
C559 C 0.41165 0.65034 0.45056 0.0
H560 H 0.42885 0.59491 0.36358 0.0
C561 C 0.42525 0.62997 0.48422 0.0
C562 C 0.44052 0.59715 0.47452 0.0
H563 H 0.40086 0.67587 0.45907 0.0
H564 H 0.4243 0.64027 0.51773 0.0
C565 C 0.441 0.58497 0.43044 0.0
C566 C 0.1131 0.50514 0.93189 0.0
C567 C 0.09067 0.46679 0.92172 0.0
H568 H 0.11567 0.55775 0.96881 0.0
C569 C 0.05244 0.4524 0.94346 0.0
H570 H 0.14298 0.51727 0.91692 0.0
C571 C 0.03725 0.47549 0.97409 0.0
C572 C 0.05956 0.51385 0.98362 0.0
H573 H 0.03374 0.42342 0.93637 0.0
H574 H 0.00757 0.46352 0.98968 0.0
C575 C 0.09766 0.52836 0.96215 0.0
C576 C 0.58931 0.94006 1.00333 0.0
C577 C 0.56053 0.90703 0.98807 0.0
H578 H 0.60024 0.99747 1.03061 0.0
C579 C 0.51948 0.90772 0.98714 0.0
H580 H 0.62134 0.94067 1.00332 0.0
C581 C 0.50727 0.94046 1.00285 0.0
C582 C 0.5361 0.97321 1.01889 0.0
H583 H 0.49685 0.88275 0.97501 0.0
H584 H 0.47527 0.93992 1.0029 0.0
C585 C 0.57728 0.97284 1.01836 0.0
C586 C 0.87176 0.12861 0.5898 0.0
C587 C 0.87873 0.14366 0.5468 0.0
H588 H 0.88057 0.08488 0.63433 0.0
C589 C 0.89137 0.12119 0.51354 0.0
H590 H 0.86194 0.14532 0.61601 0.0
C591 C 0.90157 0.08664 0.52401 0.0
C592 C 0.89872 0.07386 0.56768 0.0
H593 H 0.89598 0.13166 0.47991 0.0
H594 H 0.91543 0.07204 0.49872 0.0
C595 C 0.8818 0.09379 0.6002 0.0
C596 C 0.17768 0.60536 0.1764 0.0
C597 C 0.18883 0.64632 0.18215 0.0
H598 H 0.13427 0.55516 0.15214 0.0
C599 C 0.16238 0.66792 0.16696 0.0
H600 H 0.19742 0.58763 0.18672 0.0
C601 C 0.12609 0.6492 0.14659 0.0
C602 C 0.11505 0.60826 0.14085 0.0
H603 H 0.1695 0.69941 0.17111 0.0
H604 H 0.10658 0.6669 0.13556 0.0
C605 C 0.14139 0.58665 0.15614 0.0
C606 C 0.31303 0.45031 0.63646 0.0
C607 C 0.31464 0.45747 0.68204 0.0
H608 H 0.34475 0.45909 0.57373 0.0
C609 C 0.35062 0.48214 0.6983 0.0
H610 H 0.28625 0.43124 0.62252 0.0
C611 C 0.38447 0.49755 0.67028 0.0
C612 C 0.38317 0.48918 0.62513 0.0
H613 H 0.35292 0.48926 0.7329 0.0
H614 H 0.41195 0.51549 0.68415 0.0
C615 C 0.34676 0.46612 0.60839 0.0
C616 C 0.77216 0.71131 1.00504 0.0
C617 C 0.76099 0.70964 0.96093 0.0
H618 H 0.81442 0.70029 1.051 0.0
C619 C 0.78035 0.68987 0.93032 0.0
H620 H 0.75786 0.7266 1.0292 0.0
C621 C 0.81272 0.6752 0.94261 0.0
C622 C 0.82624 0.67981 0.98583 0.0
H623 H 0.77189 0.6877 0.89623 0.0
H624 H 0.82835 0.66174 0.91784 0.0
C625 C 0.80459 0.69643 1.01743 0.0
C626 C 0.41144 0.91641 0.18874 0.0
C627 C 0.43456 0.89311 0.20783 0.0
H628 H 0.41202 0.97106 0.15688 0.0
C629 C 0.47646 0.90989 0.21256 0.0
H630 H 0.37916 0.90465 0.18429 0.0
C631 C 0.49512 0.94737 0.19631 0.0
C632 C 0.47254 0.96992 0.1755 0.0
H633 H 0.49529 0.89372 0.22818 0.0
H634 H 0.52771 0.95845 0.19933 0.0
C635 C 0.43023 0.9545 0.17292 0.0
C636 C 0.0826 0.18197 0.72245 0.0
C637 C 0.08752 0.21956 0.70412 0.0
H638 H 0.06202 0.11971 0.71384 0.0
C639 C 0.07398 0.22212 0.66134 0.0
H640 H 0.09215 0.17873 0.75548 0.0
C641 C 0.05672 0.18815 0.63738 0.0
C642 C 0.05219 0.15058 0.65557 0.0
H643 H 0.0776 0.25041 0.64588 0.0
H644 H 0.04709 0.19144 0.60438 0.0
C645 C 0.06512 0.14801 0.69859 0.0
C646 C 0.68979 0.36093 0.55685 0.0
C647 C 0.69906 0.33833 0.52182 0.0
H648 H 0.64915 0.39335 0.58306 0.0
C649 C 0.67244 0.32924 0.48675 0.0
H650 H 0.70957 0.36793 0.58451 0.0
C651 C 0.63813 0.34385 0.48577 0.0
C652 C 0.62974 0.36784 0.51985 0.0
H653 H 0.67916 0.31237 0.45894 0.0
H654 H 0.61935 0.33794 0.45725 0.0
C655 C 0.65531 0.37545 0.55596 0.0
loop_
_geom_bond_atom_site_label_1
_geom_bond_atom_site_label_2
_geom_bond_distance
_geom_bond_site_symmetry_2
_ccdc_geom_bond_type
P0 O11 1.490 . S
P0 C14 1.812 . S
P0 C20 1.803 . S
P0 C26 1.819 . S
H1 C15 0.941 . S
H2 C16 0.939 . S
H3 C18 0.940 . S
H4 C19 0.940 . S
H5 C21 0.939 . S
H6 C22 0.942 . S
H7 C24 0.940 . S
H8 C25 0.939 . S
H9 C27 0.941 . S
H10 C31 0.939 . S
O11 P0 1.490 . S
H12 C28 0.939 . S
H13 C30 0.940 . S
C14 P0 1.812 . S
C14 C15 1.389 . S
C14 C19 1.391 . S
C15 H1 0.941 . S
C15 C14 1.389 . S
C15 C16 1.397 . S
C16 H2 0.939 . S
C16 C15 1.397 . S
C16 C17 1.378 . S
C17 C16 1.378 . S
C17 C18 1.378 . S
C18 H3 0.940 . S
C18 C17 1.378 . S
C18 C19 1.396 . S
C19 H4 0.940 . S
C19 C14 1.391 . S
C19 C18 1.396 . S
C20 P0 1.803 . S
C20 C21 1.378 . S
C20 C25 1.400 . S
C21 H5 0.939 . S
C21 C20 1.378 . S
C21 C22 1.361 . S
C22 H6 0.942 . S
C22 C21 1.361 . S
C22 C23 1.369 . S
C23 C22 1.369 . S
C23 C24 1.404 . S
C24 H7 0.940 . S
C24 C23 1.404 . S
C24 C25 1.389 . S
C25 H8 0.939 . S
C25 C20 1.400 . S
C25 C24 1.389 . S
C26 P0 1.819 . S
C26 C27 1.391 . S
C26 C31 1.391 . S
C27 H9 0.941 . S
C27 C26 1.391 . S
C27 C28 1.396 . S
C28 H12 0.939 . S
C28 C27 1.396 . S
C28 C29 1.397 . S
C29 C28 1.397 . S
C29 C30 1.385 . S
C30 H13 0.940 . S
C30 C29 1.385 . S
C30 C31 1.388 . S
C31 H10 0.939 . S
C31 C26 1.391 . S
C31 C30 1.388 . S
P32 O43 1.490 . S
P32 C46 1.812 . S
P32 C52 1.803 . S
P32 C58 1.819 . S
H33 C47 0.941 . S
H34 C48 0.939 . S
H35 C50 0.940 . S
H36 C51 0.940 . S
H37 C53 0.939 . S
H38 C54 0.942 . S
H39 C56 0.940 . S
H40 C57 0.939 . S
H41 C59 0.941 . S
H42 C63 0.939 . S
O43 P32 1.490 . S
H44 C60 0.939 . S
H45 C62 0.940 . S
C46 P32 1.812 . S
C46 C47 1.389 . S
C46 C51 1.391 . S
C47 H33 0.941 . S
C47 C46 1.389 . S
C47 C48 1.397 . S
C48 H34 0.939 . S
C48 C47 1.397 . S
C48 C49 1.378 . S
C49 C48 1.378 . S
C49 C50 1.378 . S
C50 H35 0.940 . S
C50 C49 1.378 . S
C50 C51 1.396 . S
C51 H36 0.940 . S
C51 C46 1.391 . S
C51 C50 1.396 . S
C52 P32 1.803 . S
C52 C53 1.378 . S
C52 C57 1.400 . S
C53 H37 0.939 . S
C53 C52 1.378 . S
C53 C54 1.361 . S
C54 H38 0.942 . S
C54 C53 1.361 . S
C54 C55 1.369 . S
C55 C54 1.369 . S
C55 C56 1.404 . S
C56 H39 0.940 . S
C56 C55 1.404 . S
C56 C57 1.389 . S
C57 H40 0.939 . S
C57 C52 1.400 . S
C57 C56 1.389 . S
C58 P32 1.819 . S
C58 C59 1.391 . S
C58 C63 1.391 . S
C59 H41 0.941 . S
C59 C58 1.391 . S
C59 C60 1.396 . S
C60 H44 0.939 . S
C60 C59 1.396 . S
C60 C61 1.397 . S
C61 C60 1.397 . S
C61 C62 1.385 . S
C62 H45 0.940 . S
C62 C61 1.385 . S
C62 C63 1.388 . S
C63 H42 0.939 . S
C63 C58 1.391 . S
C63 C62 1.388 . S
P64 O75 1.490 . S
P64 C78 1.812 . S
P64 C84 1.803 . S
P64 C90 1.819 . S
H65 C79 0.941 . S
H66 C80 0.939 . S
H67 C82 0.940 . S
H68 C83 0.940 . S
H69 C85 0.939 . S
H70 C86 0.942 . S
H71 C88 0.940 . S
H72 C89 0.939 . S
H73 C91 0.941 . S
H74 C95 0.939 . S
O75 P64 1.490 . S
H76 C92 0.939 . S
H77 C94 0.940 . S
C78 P64 1.812 . S
C78 C79 1.389 . S
C78 C83 1.391 . S
C79 H65 0.941 . S
C79 C78 1.389 . S
C79 C80 1.397 . S
C80 H66 0.939 . S
C80 C79 1.397 . S
C80 C81 1.378 . S
C81 C80 1.378 . S
C81 C82 1.378 . S
C82 H67 0.940 . S
C82 C81 1.378 . S
C82 C83 1.396 . S
C83 H68 0.940 . S
C83 C78 1.391 . S
C83 C82 1.396 . S
C84 P64 1.803 . S
C84 C85 1.378 . S
C84 C89 1.400 . S
C85 H69 0.939 . S
C85 C84 1.378 . S
C85 C86 1.361 . S
C86 H70 0.942 . S
C86 C85 1.361 . S
C86 C87 1.369 . S
C87 C86 1.369 . S
C87 C88 1.404 . S
C88 H71 0.940 . S
C88 C87 1.404 . S
C88 C89 1.389 . S
C89 H72 0.939 . S
C89 C84 1.400 . S
C89 C88 1.389 . S
C90 P64 1.819 . S
C90 C91 1.391 . S
C90 C95 1.391 . S
C91 H73 0.941 . S
C91 C90 1.391 . S
C91 C92 1.396 . S
C92 H76 0.939 . S
C92 C91 1.396 . S
C92 C93 1.397 . S
C93 C92 1.397 . S
C93 C94 1.385 . S
C94 H77 0.940 . S
C94 C93 1.385 . S
C94 C95 1.388 . S
C95 H74 0.939 . S
C95 C90 1.391 . S
C95 C94 1.388 . S
P96 O107 1.490 . S
P96 C110 1.812 . S
P96 C116 1.803 . S
P96 C122 1.819 . S
H97 C111 0.941 . S
H98 C112 0.939 . S
H99 C114 0.940 . S
H100 C115 0.940 . S
H101 C117 0.939 . S
H102 C118 0.942 . S
H103 C120 0.940 . S
H104 C121 0.939 . S
H105 C123 0.941 . S
H106 C127 0.939 . S
O107 P96 1.490 . S
H108 C124 0.939 . S
H109 C126 0.940 . S
C110 P96 1.812 . S
C110 C111 1.389 . S
C110 C115 1.391 . S
C111 H97 0.941 . S
C111 C110 1.389 . S
C111 C112 1.397 . S
C112 H98 0.939 . S
C112 C111 1.397 . S
C112 C113 1.378 . S
C113 C112 1.378 . S
C113 C114 1.378 . S
C114 H99 0.940 . S
C114 C113 1.378 . S
C114 C115 1.396 . S
C115 H100 0.940 . S
C115 C110 1.391 . S
C115 C114 1.396 . S
C116 P96 1.803 . S
C116 C117 1.378 . S
C116 C121 1.400 . S
C117 H101 0.939 . S
C117 C116 1.378 . S
C117 C118 1.361 . S
C118 H102 0.942 . S
C118 C117 1.361 . S
C118 C119 1.369 . S
C119 C118 1.369 . S
C119 C120 1.404 . S
C120 H103 0.940 . S
C120 C119 1.404 . S
C120 C121 1.389 . S
C121 H104 0.939 . S
C121 C116 1.400 . S
C121 C120 1.389 . S
C122 P96 1.819 . S
C122 C123 1.391 . S
C122 C127 1.391 . S
C123 H105 0.941 . S
C123 C122 1.391 . S
C123 C124 1.396 . S
C124 H108 0.939 . S
C124 C123 1.396 . S
C124 C125 1.397 . S
C125 C124 1.397 . S
C125 C126 1.385 . S
C126 H109 0.940 . S
C126 C125 1.385 . S
C126 C127 1.388 . S
C127 H106 0.939 . S
C127 C122 1.391 . S
C127 C126 1.388 . S
P128 O139 1.490 . S
P128 C142 1.812 . S
P128 C148 1.803 . S
P128 C154 1.819 . S
H129 C143 0.941 . S
H130 C144 0.939 . S
H131 C146 0.940 . S
H132 C147 0.940 . S
H133 C149 0.939 . S
H134 C150 0.942 . S
H135 C152 0.940 . S
H136 C153 0.939 . S
H137 C155 0.941 . S
H138 C159 0.939 . S
O139 P128 1.490 . S
H140 C156 0.939 . S
H141 C158 0.940 . S
C142 P128 1.812 . S
C142 C143 1.389 . S
C142 C147 1.391 . S
C143 H129 0.941 . S
C143 C142 1.389 . S
C143 C144 1.397 . S
C144 H130 0.939 . S
C144 C143 1.397 . S
C144 C145 1.378 . S
C145 C144 1.378 . S
C145 C146 1.378 . S
C146 H131 0.940 . S
C146 C145 1.378 . S
C146 C147 1.396 . S
C147 H132 0.940 . S
C147 C142 1.391 . S
C147 C146 1.396 . S
C148 P128 1.803 . S
C148 C149 1.378 . S
C148 C153 1.400 . S
C149 H133 0.939 . S
C149 C148 1.378 . S
C149 C150 1.361 . S
C150 H134 0.942 . S
C150 C149 1.361 . S
C150 C151 1.369 . S
C151 C150 1.369 . S
C151 C152 1.404 . S
C152 H135 0.940 . S
C152 C151 1.404 . S
C152 C153 1.389 . S
C153 H136 0.939 . S
C153 C148 1.400 . S
C153 C152 1.389 . S
C154 P128 1.819 . S
C154 C155 1.391 . S
C154 C159 1.391 . S
C155 H137 0.941 . S
C155 C154 1.391 . S
C155 C156 1.396 . S
C156 H140 0.939 . S
C156 C155 1.396 . S
C156 C157 1.397 . S
C157 C156 1.397 . S
C157 C158 1.385 . S
C158 H141 0.940 . S
C158 C157 1.385 . S
C158 C159 1.388 . S
C159 H138 0.939 . S
C159 C154 1.391 . S
C159 C158 1.388 . S
P160 O171 1.490 . S
P160 C174 1.812 . S
P160 C180 1.803 . S
P160 C186 1.819 . S
H161 C175 0.941 . S
H162 C176 0.939 . S
H163 C178 0.940 . S
H164 C179 0.940 . S
H165 C181 0.939 . S
H166 C182 0.942 . S
H167 C184 0.940 . S
H168 C185 0.939 . S
H169 C187 0.941 . S
H170 C191 0.939 . S
O171 P160 1.490 . S
H172 C188 0.939 . S
H173 C190 0.940 . S
C174 P160 1.812 . S
C174 C175 1.389 . S
C174 C179 1.391 . S
C175 H161 0.941 . S
C175 C174 1.389 . S
C175 C176 1.397 . S
C176 H162 0.939 . S
C176 C175 1.397 . S
C176 C177 1.378 . S
C177 C176 1.378 . S
C177 C178 1.378 . S
C178 H163 0.940 . S
C178 C177 1.378 . S
C178 C179 1.396 . S
C179 H164 0.940 . S
C179 C174 1.391 . S
C179 C178 1.396 . S
C180 P160 1.803 . S
C180 C181 1.378 . S
C180 C185 1.400 . S
C181 H165 0.939 . S
C181 C180 1.378 . S
C181 C182 1.361 . S
C182 H166 0.942 . S
C182 C181 1.361 . S
C182 C183 1.369 . S
C183 C182 1.369 . S
C183 C184 1.404 . S
C184 H167 0.940 . S
C184 C183 1.404 . S
C184 C185 1.389 . S
C185 H168 0.939 . S
C185 C180 1.400 . S
C185 C184 1.389 . S
C186 P160 1.819 . S
C186 C187 1.391 . S
C186 C191 1.391 . S
C187 H169 0.941 . S
C187 C186 1.391 . S
C187 C188 1.396 . S
C188 H172 0.939 . S
C188 C187 1.396 . S
C188 C189 1.397 . S
C189 C188 1.397 . S
C189 C190 1.385 . S
C190 H173 0.940 . S
C190 C189 1.385 . S
C190 C191 1.388 . S
C191 H170 0.939 . S
C191 C186 1.391 . S
C191 C190 1.388 . S
P192 O203 1.490 . S
P192 C206 1.812 . S
P192 C212 1.803 . S
P192 C218 1.819 . S
H193 C207 0.941 . S
H194 C208 0.939 . S
H195 C210 0.940 . S
H196 C211 0.940 . S
H197 C213 0.939 . S
H198 C214 0.942 . S
H199 C216 0.940 . S
H200 C217 0.939 . S
H201 C219 0.941 . S
H202 C223 0.939 . S
O203 P192 1.490 . S
H204 C220 0.939 . S
H205 C222 0.940 . S
C206 P192 1.812 . S
C206 C207 1.389 . S
C206 C211 1.391 . S
C207 H193 0.941 . S
C207 C206 1.389 . S
C207 C208 1.397 . S
C208 H194 0.939 . S
C208 C207 1.397 . S
C208 C209 1.378 . S
C209 C208 1.378 . S
C209 C210 1.378 . S
C210 H195 0.940 . S
C210 C209 1.378 . S
C210 C211 1.396 . S
C211 H196 0.940 . S
C211 C206 1.391 . S
C211 C210 1.396 . S
C212 P192 1.803 . S
C212 C213 1.378 . S
C212 C217 1.400 . S
C213 H197 0.939 . S
C213 C212 1.378 . S
C213 C214 1.361 . S
C214 H198 0.942 . S
C214 C213 1.361 . S
C214 C215 1.369 . S
C215 C214 1.369 . S
C215 C216 1.404 . S
C216 H199 0.940 . S
C216 C215 1.404 . S
C216 C217 1.389 . S
C217 H200 0.939 . S
C217 C212 1.400 . S
C217 C216 1.389 . S
C218 P192 1.819 . S
C218 C219 1.391 . S
C218 C223 1.391 . S
C219 H201 0.941 . S
C219 C218 1.391 . S
C219 C220 1.396 . S
C220 H204 0.939 . S
C220 C219 1.396 . S
C220 C221 1.397 . S
C221 C220 1.397 . S
C221 C222 1.385 . S
C222 H205 0.940 . S
C222 C221 1.385 . S
C222 C223 1.388 . S
C223 H202 0.939 . S
C223 C218 1.391 . S
C223 C222 1.388 . S
P224 O235 1.490 . S
P224 C238 1.812 . S
P224 C244 1.803 . S
P224 C250 1.819 . S
H225 C239 0.941 . S
H226 C240 0.939 . S
H227 C242 0.940 . S
H228 C243 0.940 . S
H229 C245 0.939 . S
H230 C246 0.942 . S
H231 C248 0.940 . S
H232 C249 0.939 . S
H233 C251 0.941 . S
H234 C255 0.939 . S
O235 P224 1.490 . S
H236 C252 0.939 . S
H237 C254 0.940 . S
C238 P224 1.812 . S
C238 C239 1.389 . S
C238 C243 1.391 . S
C239 H225 0.941 . S
C239 C238 1.389 . S
C239 C240 1.397 . S
C240 H226 0.939 . S
C240 C239 1.397 . S
C240 C241 1.378 . S
C241 C240 1.378 . S
C241 C242 1.378 . S
C242 H227 0.940 . S
C242 C241 1.378 . S
C242 C243 1.396 . S
C243 H228 0.940 . S
C243 C238 1.391 . S
C243 C242 1.396 . S
C244 P224 1.803 . S
C244 C245 1.378 . S
C244 C249 1.400 . S
C245 H229 0.939 . S
C245 C244 1.378 . S
C245 C246 1.361 . S
C246 H230 0.942 . S
C246 C245 1.361 . S
C246 C247 1.369 . S
C247 C246 1.369 . S
C247 C248 1.404 . S
C248 H231 0.940 . S
C248 C247 1.404 . S
C248 C249 1.389 . S
C249 H232 0.939 . S
C249 C244 1.400 . S
C249 C248 1.389 . S
C250 P224 1.819 . S
C250 C251 1.391 . S
C250 C255 1.391 . S
C251 H233 0.941 . S
C251 C250 1.391 . S
C251 C252 1.396 . S
C252 H236 0.939 . S
C252 C251 1.396 . S
C252 C253 1.397 . S
C253 C252 1.397 . S
C253 C254 1.385 . S
C254 H237 0.940 . S
C254 C253 1.385 . S
C254 C255 1.388 . S
C255 H234 0.939 . S
C255 C250 1.391 . S
C255 C254 1.388 . S
Sm256 C258 2.846 . S
Sm256 O276 2.543 . S
Sm256 O277 2.450 . S
Sm256 O278 2.681 1_545 S
Sm256 O279 2.464 1_545 S
Sm256 O280 2.396 . S
Sm256 O284 2.386 1_455 S
Sm256 O287 2.408 1_445 S
Sm257 C267 2.846 . S
Sm257 O278 2.386 1_655 S
Sm257 O281 2.408 1_665 S
Sm257 O282 2.543 . S
Sm257 O283 2.450 . S
Sm257 O284 2.681 1_565 S
Sm257 O285 2.464 1_565 S
Sm257 O286 2.396 . S
C258 Sm256 2.846 . S
C258 C259 1.506 . S
C258 O276 1.261 . S
C258 O277 1.242 . S
C259 C258 1.506 . S
C259 C260 1.358 . S
C259 C264 1.382 . S
C260 C259 1.358 . S
C260 C261 1.385 . S
C260 H288 0.930 . S
C261 C260 1.385 . S
C261 C262 1.395 . S
C261 H289 0.929 . S
C262 C261 1.395 . S
C262 C263 1.335 . S
C263 C262 1.335 . S
C263 C264 1.398 . S
C263 H290 0.930 . S
C264 C259 1.382 . S
C264 C263 1.398 . S
C264 H291 0.929 . S
C265 O278 1.271 . S
C265 O279 1.251 . S
C266 O280 1.252 . S
C266 O281 1.272 . S
C267 Sm257 2.846 . S
C267 C268 1.506 . S
C267 O282 1.261 . S
C267 O283 1.242 . S
C268 C267 1.506 . S
C268 C269 1.358 . S
C268 C273 1.382 . S
C269 C268 1.358 . S
C269 C270 1.385 . S
C269 H292 0.930 . S
C270 C269 1.385 . S
C270 C271 1.395 . S
C270 H293 0.929 . S
C271 C270 1.395 . S
C271 C272 1.335 . S
C272 C271 1.335 . S
C272 C273 1.398 . S
C272 H294 0.930 . S
C273 C268 1.382 . S
C273 C272 1.398 . S
C273 H295 0.929 . S
C274 O284 1.271 . S
C274 O285 1.251 . S
C275 O286 1.252 . S
C275 O287 1.272 . S
O276 Sm256 2.543 . S
O276 C258 1.261 . S
O277 Sm256 2.450 . S
O277 C258 1.242 . S
O278 Sm256 2.681 1_565 S
O278 Sm257 2.386 1_455 S
O278 C265 1.271 . S
O279 Sm256 2.464 1_565 S
O279 C265 1.251 . S
O280 Sm256 2.396 . S
O280 C266 1.252 . S
O281 Sm257 2.408 1_445 S
O281 C266 1.272 . S
O282 Sm257 2.543 . S
O282 C267 1.261 . S
O283 Sm257 2.450 . S
O283 C267 1.242 . S
O284 Sm256 2.386 1_655 S
O284 Sm257 2.681 1_545 S
O284 C274 1.271 . S
O285 Sm257 2.464 1_545 S
O285 C274 1.251 . S
O286 Sm257 2.396 . S
O286 C275 1.252 . S
O287 Sm256 2.408 1_665 S
O287 C275 1.272 . S
H288 C260 0.930 . S
H289 C261 0.929 . S
H290 C263 0.930 . S
H291 C264 0.929 . S
H292 C269 0.930 . S
H293 C270 0.929 . S
H294 C272 0.930 . S
H295 C273 0.929 . S
Sm296 C298 2.846 . S
Sm296 O316 2.543 . S
Sm296 O317 2.450 . S
Sm296 O318 2.681 1_545 S
Sm296 O319 2.464 1_545 S
Sm296 O320 2.396 . S
Sm296 O324 2.386 1_554 S
Sm296 O327 2.408 1_544 S
Sm297 C307 2.846 1_545 S
Sm297 O318 2.386 1_546 S
Sm297 O321 2.408 1_556 S
Sm297 O322 2.543 1_545 S
Sm297 O323 2.450 . S
Sm297 O324 2.681 . S
Sm297 O325 2.464 . S
Sm297 O326 2.396 1_545 S
C298 Sm296 2.846 . S
C298 C299 1.506 . S
C298 O316 1.261 . S
C298 O317 1.242 . S
C299 C298 1.506 . S
C299 C300 1.358 . S
C299 C304 1.382 . S
C300 C299 1.358 . S
C300 C301 1.385 . S
C300 H328 0.930 . S
C301 C300 1.385 . S
C301 C302 1.395 . S
C301 H329 0.929 . S
C302 C301 1.395 . S
C302 C303 1.335 . S
C303 C302 1.335 . S
C303 C304 1.398 . S
C303 H330 0.930 . S
C304 C299 1.382 . S
C304 C303 1.398 . S
C304 H331 0.929 . S
C305 O318 1.271 . S
C305 O319 1.251 . S
C306 O320 1.252 . S
C306 O321 1.272 . S
C307 Sm297 2.846 1_565 S
C307 C308 1.506 . S
C307 O322 1.261 . S
C307 O323 1.242 1_565 S
C308 C307 1.506 . S
C308 C309 1.358 . S
C308 C313 1.382 . S
C309 C308 1.358 . S
C309 C310 1.385 . S
C309 H332 0.930 . S
C310 C309 1.385 . S
C310 C311 1.395 . S
C310 H333 0.929 . S
C311 C310 1.395 . S
C311 C312 1.335 . S
C312 C311 1.335 . S
C312 C313 1.398 . S
C312 H334 0.930 . S
C313 C308 1.382 . S
C313 C312 1.398 . S
C313 H335 0.929 . S
C314 O324 1.271 . S
C314 O325 1.251 . S
C315 O326 1.252 . S
C315 O327 1.272 . S
O316 Sm296 2.543 . S
O316 C298 1.261 . S
O317 Sm296 2.450 . S
O317 C298 1.242 . S
O318 Sm296 2.681 1_565 S
O318 Sm297 2.386 1_564 S
O318 C305 1.271 . S
O319 Sm296 2.464 1_565 S
O319 C305 1.251 . S
O320 Sm296 2.396 . S
O320 C306 1.252 . S
O321 Sm297 2.408 1_554 S
O321 C306 1.272 . S
O322 Sm297 2.543 1_565 S
O322 C307 1.261 . S
O323 Sm297 2.450 . S
O323 C307 1.242 1_545 S
O324 Sm296 2.386 1_556 S
O324 Sm297 2.681 . S
O324 C314 1.271 . S
O325 Sm297 2.464 . S
O325 C314 1.251 . S
O326 Sm297 2.396 1_565 S
O326 C315 1.252 . S
O327 Sm296 2.408 1_566 S
O327 C315 1.272 . S
H328 C300 0.930 . S
H329 C301 0.929 . S
H330 C303 0.930 . S
H331 C304 0.929 . S
H332 C309 0.930 . S
H333 C310 0.929 . S
H334 C312 0.930 . S
H335 C313 0.929 . S
Sm336 C338 2.846 . S
Sm336 O356 2.543 . S
Sm336 O357 2.450 . S
Sm336 O358 2.681 . S
Sm336 O359 2.464 . S
Sm336 O360 2.396 . S
Sm336 O364 2.386 . S
Sm336 O367 2.408 . S
Sm337 C347 2.846 . S
Sm337 O358 2.386 . S
Sm337 O361 2.408 . S
Sm337 O362 2.543 . S
Sm337 O363 2.450 . S
Sm337 O364 2.681 . S
Sm337 O365 2.464 . S
Sm337 O366 2.396 . S
C338 Sm336 2.846 . S
C338 C339 1.506 . S
C338 O356 1.261 . S
C338 O357 1.242 . S
C339 C338 1.506 . S
C339 C340 1.358 . S
C339 C344 1.382 . S
C340 C339 1.358 . S
C340 C341 1.385 . S
C340 H368 0.930 . S
C341 C340 1.385 . S
C341 C342 1.395 . S
C341 H369 0.929 . S
C342 C341 1.395 . S
C342 C343 1.335 . S
C343 C342 1.335 . S
C343 C344 1.398 . S
C343 H370 0.930 . S
C344 C339 1.382 . S
C344 C343 1.398 . S
C344 H371 0.929 . S
C345 O358 1.271 . S
C345 O359 1.251 . S
C346 O360 1.252 . S
C346 O361 1.272 . S
C347 Sm337 2.846 . S
C347 C348 1.506 . S
C347 O362 1.261 . S
C347 O363 1.242 . S
C348 C347 1.506 . S
C348 C349 1.358 . S
C348 C353 1.382 . S
C349 C348 1.358 . S
C349 C350 1.385 . S
C349 H372 0.930 . S
C350 C349 1.385 . S
C350 C351 1.395 . S
C350 H373 0.929 . S
C351 C350 1.395 . S
C351 C352 1.335 . S
C352 C351 1.335 . S
C352 C353 1.398 . S
C352 H374 0.930 . S
C353 C348 1.382 . S
C353 C352 1.398 . S
C353 H375 0.929 . S
C354 O364 1.271 . S
C354 O365 1.251 . S
C355 O366 1.252 . S
C355 O367 1.272 . S
O356 Sm336 2.543 . S
O356 C338 1.261 . S
O357 Sm336 2.450 . S
O357 C338 1.242 . S
O358 Sm336 2.681 . S
O358 Sm337 2.386 . S
O358 C345 1.271 . S
O359 Sm336 2.464 . S
O359 C345 1.251 . S
O360 Sm336 2.396 . S
O360 C346 1.252 . S
O361 Sm337 2.408 . S
O361 C346 1.272 . S
O362 Sm337 2.543 . S
O362 C347 1.261 . S
O363 Sm337 2.450 . S
O363 C347 1.242 . S
O364 Sm336 2.386 . S
O364 Sm337 2.681 . S
O364 C354 1.271 . S
O365 Sm337 2.464 . S
O365 C354 1.251 . S
O366 Sm337 2.396 . S
O366 C355 1.252 . S
O367 Sm336 2.408 . S
O367 C355 1.272 . S
H368 C340 0.930 . S
H369 C341 0.929 . S
H370 C343 0.930 . S
H371 C344 0.929 . S
H372 C349 0.930 . S
H373 C350 0.929 . S
H374 C352 0.930 . S
H375 C353 0.929 . S
Sm376 C378 2.846 . S
Sm376 O396 2.543 . S
Sm376 O397 2.450 . S
Sm376 O398 2.681 1_455 S
Sm376 O399 2.464 1_455 S
Sm376 O400 2.396 . S
Sm376 O404 2.386 1_554 S
Sm376 O407 2.408 1_454 S
Sm377 C387 2.846 . S
Sm377 O398 2.386 1_556 S
Sm377 O401 2.408 1_656 S
Sm377 O402 2.543 . S
Sm377 O403 2.450 . S
Sm377 O404 2.681 1_655 S
Sm377 O405 2.464 1_655 S
Sm377 O406 2.396 . S
C378 Sm376 2.846 . S
C378 C379 1.506 . S
C378 O396 1.261 . S
C378 O397 1.242 . S
C379 C378 1.506 . S
C379 C380 1.358 . S
C379 C384 1.382 . S
C380 C379 1.358 . S
C380 C381 1.385 . S
C380 H408 0.930 . S
C381 C380 1.385 . S
C381 C382 1.395 . S
C381 H409 0.929 . S
C382 C381 1.395 . S
C382 C383 1.335 . S
C383 C382 1.335 . S
C383 C384 1.398 . S
C383 H410 0.930 . S
C384 C379 1.382 . S
C384 C383 1.398 . S
C384 H411 0.929 . S
C385 O398 1.271 . S
C385 O399 1.251 . S
C386 O400 1.252 . S
C386 O401 1.272 . S
C387 Sm377 2.846 . S
C387 C388 1.506 . S
C387 O402 1.261 . S
C387 O403 1.242 . S
C388 C387 1.506 . S
C388 C389 1.358 . S
C388 C393 1.382 . S
C389 C388 1.358 . S
C389 C390 1.385 . S
C389 H412 0.930 . S
C390 C389 1.385 . S
C390 C391 1.395 . S
C390 H413 0.929 . S
C391 C390 1.395 . S
C391 C392 1.335 . S
C392 C391 1.335 . S
C392 C393 1.398 . S
C392 H414 0.930 . S
C393 C388 1.382 . S
C393 C392 1.398 . S
C393 H415 0.929 . S
C394 O404 1.271 . S
C394 O405 1.251 . S
C395 O406 1.252 . S
C395 O407 1.272 . S
O396 Sm376 2.543 . S
O396 C378 1.261 . S
O397 Sm376 2.450 . S
O397 C378 1.242 . S
O398 Sm376 2.681 1_655 S
O398 Sm377 2.386 1_554 S
O398 C385 1.271 . S
O399 Sm376 2.464 1_655 S
O399 C385 1.251 . S
O400 Sm376 2.396 . S
O400 C386 1.252 . S
O401 Sm377 2.408 1_454 S
O401 C386 1.272 . S
O402 Sm377 2.543 . S
O402 C387 1.261 . S
O403 Sm377 2.450 . S
O403 C387 1.242 . S
O404 Sm376 2.386 1_556 S
O404 Sm377 2.681 1_455 S
O404 C394 1.271 . S
O405 Sm377 2.464 1_455 S
O405 C394 1.251 . S
O406 Sm377 2.396 . S
O406 C395 1.252 . S
O407 Sm376 2.408 1_656 S
O407 C395 1.272 . S
H408 C380 0.930 . S
H409 C381 0.929 . S
H410 C383 0.930 . S
H411 C384 0.929 . S
H412 C389 0.930 . S
H413 C390 0.929 . S
H414 C392 0.930 . S
H415 C393 0.929 . S
C416 C417 1.387 . S
C416 H420 0.950 . S
C416 C425 1.390 . S
C417 C416 1.387 . S
C417 C419 1.387 . S
H418 C425 0.950 . S
C419 C417 1.387 . S
C419 C421 1.390 . S
C419 H423 0.950 . S
H420 C416 0.950 . S
C421 C419 1.390 . S
C421 C422 1.387 . S
C421 H424 0.950 . S
C422 C421 1.387 . S
C422 C425 1.387 . S
H423 C419 0.950 . S
H424 C421 0.950 . S
C425 C416 1.390 . S
C425 H418 0.950 . S
C425 C422 1.387 . S
C426 C427 1.387 . S
C426 H430 0.950 . S
C426 C435 1.390 . S
C427 C426 1.387 . S
C427 C429 1.387 . S
H428 C435 0.950 . S
C429 C427 1.387 . S
C429 C431 1.390 . S
C429 H433 0.950 . S
H430 C426 0.950 . S
C431 C429 1.390 . S
C431 C432 1.387 . S
C431 H434 0.950 . S
C432 C431 1.387 . S
C432 C435 1.387 . S
H433 C429 0.950 . S
H434 C431 0.950 . S
C435 C426 1.390 . S
C435 H428 0.950 . S
C435 C432 1.387 . S
C436 C437 1.387 . S
C436 H440 0.950 . S
C436 C445 1.390 . S
C437 C436 1.387 . S
C437 C439 1.387 . S
H438 C445 0.950 . S
C439 C437 1.387 . S
C439 C441 1.390 . S
C439 H443 0.950 . S
H440 C436 0.950 . S
C441 C439 1.390 . S
C441 C442 1.387 . S
C441 H444 0.950 . S
C442 C441 1.387 . S
C442 C445 1.387 . S
H443 C439 0.950 . S
H444 C441 0.950 . S
C445 C436 1.390 . S
C445 H438 0.950 . S
C445 C442 1.387 . S
C446 C447 1.387 . S
C446 H450 0.950 . S
C446 C455 1.390 . S
C447 C446 1.387 . S
C447 C449 1.387 . S
H448 C455 0.950 . S
C449 C447 1.387 . S
C449 C451 1.390 . S
C449 H453 0.950 . S
H450 C446 0.950 . S
C451 C449 1.390 . S
C451 C452 1.387 . S
C451 H454 0.950 . S
C452 C451 1.387 . S
C452 C455 1.387 . S
H453 C449 0.950 . S
H454 C451 0.950 . S
C455 C446 1.390 . S
C455 H448 0.950 . S
C455 C452 1.387 . S
C456 C457 1.387 . S
C456 H460 0.950 . S
C456 C465 1.390 . S
C457 C456 1.387 . S
C457 C459 1.387 . S
H458 C465 0.950 . S
C459 C457 1.387 . S
C459 C461 1.390 . S
C459 H463 0.950 . S
H460 C456 0.950 . S
C461 C459 1.390 . S
C461 C462 1.387 . S
C461 H464 0.950 . S
C462 C461 1.387 . S
C462 C465 1.387 . S
H463 C459 0.950 . S
H464 C461 0.950 . S
C465 C456 1.390 . S
C465 H458 0.950 . S
C465 C462 1.387 . S
C466 C467 1.387 . S
C466 H470 0.950 . S
C466 C475 1.390 . S
C467 C466 1.387 . S
C467 C469 1.387 . S
H468 C475 0.950 . S
C469 C467 1.387 . S
C469 C471 1.390 . S
C469 H473 0.950 . S
H470 C466 0.950 . S
C471 C469 1.390 . S
C471 C472 1.387 . S
C471 H474 0.950 . S
C472 C471 1.387 . S
C472 C475 1.387 . S
H473 C469 0.950 . S
H474 C471 0.950 . S
C475 C466 1.390 . S
C475 H468 0.950 . S
C475 C472 1.387 . S
C476 C477 1.387 . S
C476 H480 0.950 . S
C476 C485 1.390 . S
C477 C476 1.387 . S
C477 C479 1.387 . S
H478 C485 0.950 . S
C479 C477 1.387 . S
C479 C481 1.390 . S
C479 H483 0.950 . S
H480 C476 0.950 . S
C481 C479 1.390 . S
C481 C482 1.387 . S
C481 H484 0.950 . S
C482 C481 1.387 . S
C482 C485 1.387 . S
H483 C479 0.950 . S
H484 C481 0.950 . S
C485 C476 1.390 . S
C485 H478 0.950 . S
C485 C482 1.387 . S
C486 C487 1.387 . S
C486 H490 0.950 . S
C486 C495 1.390 . S
C487 C486 1.387 . S
C487 C489 1.387 . S
H488 C495 0.950 . S
C489 C487 1.387 . S
C489 C491 1.390 . S
C489 H493 0.950 . S
H490 C486 0.950 . S
C491 C489 1.390 . S
C491 C492 1.387 . S
C491 H494 0.950 . S
C492 C491 1.387 . S
C492 C495 1.387 . S
H493 C489 0.950 . S
H494 C491 0.950 . S
C495 C486 1.390 . S
C495 H488 0.950 . S
C495 C492 1.387 . S
C496 C497 1.387 . S
C496 H500 0.950 . S
C496 C505 1.390 . S
C497 C496 1.387 . S
C497 C499 1.387 . S
H498 C505 0.950 . S
C499 C497 1.387 . S
C499 C501 1.390 . S
C499 H503 0.950 . S
H500 C496 0.950 . S
C501 C499 1.390 . S
C501 C502 1.387 . S
C501 H504 0.950 . S
C502 C501 1.387 . S
C502 C505 1.387 . S
H503 C499 0.950 . S
H504 C501 0.950 . S
C505 C496 1.390 . S
C505 H498 0.950 . S
C505 C502 1.387 . S
C506 C507 1.387 . S
C506 H510 0.950 . S
C506 C515 1.390 . S
C507 C506 1.387 . S
C507 C509 1.387 . S
H508 C515 0.950 . S
C509 C507 1.387 . S
C509 C511 1.390 . S
C509 H513 0.950 . S
H510 C506 0.950 . S
C511 C509 1.390 . S
C511 C512 1.387 . S
C511 H514 0.950 . S
C512 C511 1.387 . S
C512 C515 1.387 . S
H513 C509 0.950 . S
H514 C511 0.950 . S
C515 C506 1.390 . S
C515 H508 0.950 . S
C515 C512 1.387 . S
C516 C517 1.387 . S
C516 H520 0.950 . S
C516 C525 1.390 . S
C517 C516 1.387 . S
C517 C519 1.387 . S
H518 C525 0.950 . S
C519 C517 1.387 . S
C519 C521 1.390 . S
C519 H523 0.950 . S
H520 C516 0.950 . S
C521 C519 1.390 . S
C521 C522 1.387 . S
C521 H524 0.950 . S
C522 C521 1.387 . S
C522 C525 1.387 . S
H523 C519 0.950 . S
H524 C521 0.950 . S
C525 C516 1.390 . S
C525 H518 0.950 . S
C525 C522 1.387 . S
C526 C527 1.387 . S
C526 H530 0.950 . S
C526 C535 1.390 . S
C527 C526 1.387 . S
C527 C529 1.387 . S
H528 C535 0.950 . S
C529 C527 1.387 . S
C529 C531 1.390 . S
C529 H533 0.950 . S
H530 C526 0.950 . S
C531 C529 1.390 . S
C531 C532 1.387 . S
C531 H534 0.950 . S
C532 C531 1.387 . S
C532 C535 1.387 . S
H533 C529 0.950 . S
H534 C531 0.950 . S
C535 C526 1.390 . S
C535 H528 0.950 . S
C535 C532 1.387 . S
C536 C537 1.387 . S
C536 H540 0.950 . S
C536 C545 1.390 . S
C537 C536 1.387 . S
C537 C539 1.387 . S
H538 C545 0.950 . S
C539 C537 1.387 . S
C539 C541 1.390 . S
C539 H543 0.950 . S
H540 C536 0.950 . S
C541 C539 1.390 . S
C541 C542 1.387 . S
C541 H544 0.950 . S
C542 C541 1.387 . S
C542 C545 1.387 . S
H543 C539 0.950 . S
H544 C541 0.950 . S
C545 C536 1.390 . S
C545 H538 0.950 . S
C545 C542 1.387 . S
C546 C547 1.387 . S
C546 H550 0.950 . S
C546 C555 1.390 . S
C547 C546 1.387 . S
C547 C549 1.387 . S
H548 C555 0.950 . S
C549 C547 1.387 . S
C549 C551 1.390 . S
C549 H553 0.950 . S
H550 C546 0.950 . S
C551 C549 1.390 . S
C551 C552 1.387 . S
C551 H554 0.950 . S
C552 C551 1.387 . S
C552 C555 1.387 . S
H553 C549 0.950 . S
H554 C551 0.950 . S
C555 C546 1.390 . S
C555 H548 0.950 . S
C555 C552 1.387 . S
C556 C557 1.387 . S
C556 H560 0.950 . S
C556 C565 1.390 . S
C557 C556 1.387 . S
C557 C559 1.387 . S
H558 C565 0.950 . S
C559 C557 1.387 . S
C559 C561 1.390 . S
C559 H563 0.950 . S
H560 C556 0.950 . S
C561 C559 1.390 . S
C561 C562 1.387 . S
C561 H564 0.950 . S
C562 C561 1.387 . S
C562 C565 1.387 . S
H563 C559 0.950 . S
H564 C561 0.950 . S
C565 C556 1.390 . S
C565 H558 0.950 . S
C565 C562 1.387 . S
C566 C567 1.387 . S
C566 H570 0.950 . S
C566 C575 1.390 . S
C567 C566 1.387 . S
C567 C569 1.387 . S
H568 C575 0.950 . S
C569 C567 1.387 . S
C569 C571 1.390 . S
C569 H573 0.950 . S
H570 C566 0.950 . S
C571 C569 1.390 . S
C571 C572 1.387 . S
C571 H574 0.950 . S
C572 C571 1.387 . S
C572 C575 1.387 . S
H573 C569 0.950 . S
H574 C571 0.950 . S
C575 C566 1.390 . S
C575 H568 0.950 . S
C575 C572 1.387 . S
C576 C577 1.387 . S
C576 H580 0.950 . S
C576 C585 1.390 . S
C577 C576 1.387 . S
C577 C579 1.387 . S
H578 C585 0.950 . S
C579 C577 1.387 . S
C579 C581 1.390 . S
C579 H583 0.950 . S
H580 C576 0.950 . S
C581 C579 1.390 . S
C581 C582 1.387 . S
C581 H584 0.950 . S
C582 C581 1.387 . S
C582 C585 1.387 . S
H583 C579 0.950 . S
H584 C581 0.950 . S
C585 C576 1.390 . S
C585 H578 0.950 . S
C585 C582 1.387 . S
C586 C587 1.387 . S
C586 H590 0.950 . S
C586 C595 1.390 . S
C587 C586 1.387 . S
C587 C589 1.387 . S
H588 C595 0.950 . S
C589 C587 1.387 . S
C589 C591 1.390 . S
C589 H593 0.950 . S
H590 C586 0.950 . S
C591 C589 1.390 . S
C591 C592 1.387 . S
C591 H594 0.950 . S
C592 C591 1.387 . S
C592 C595 1.387 . S
H593 C589 0.950 . S
H594 C591 0.950 . S
C595 C586 1.390 . S
C595 H588 0.950 . S
C595 C592 1.387 . S
C596 C597 1.387 . S
C596 H600 0.950 . S
C596 C605 1.390 . S
C597 C596 1.387 . S
C597 C599 1.387 . S
H598 C605 0.950 . S
C599 C597 1.387 . S
C599 C601 1.390 . S
C599 H603 0.950 . S
H600 C596 0.950 . S
C601 C599 1.390 . S
C601 C602 1.387 . S
C601 H604 0.950 . S
C602 C601 1.387 . S
C602 C605 1.387 . S
H603 C599 0.950 . S
H604 C601 0.950 . S
C605 C596 1.390 . S
C605 H598 0.950 . S
C605 C602 1.387 . S
C606 C607 1.387 . S
C606 H610 0.950 . S
C606 C615 1.390 . S
C607 C606 1.387 . S
C607 C609 1.387 . S
H608 C615 0.950 . S
C609 C607 1.387 . S
C609 C611 1.390 . S
C609 H613 0.950 . S
H610 C606 0.950 . S
C611 C609 1.390 . S
C611 C612 1.387 . S
C611 H614 0.950 . S
C612 C611 1.387 . S
C612 C615 1.387 . S
H613 C609 0.950 . S
H614 C611 0.950 . S
C615 C606 1.390 . S
C615 H608 0.950 . S
C615 C612 1.387 . S
C616 C617 1.387 . S
C616 H620 0.950 . S
C616 C625 1.390 . S
C617 C616 1.387 . S
C617 C619 1.387 . S
H618 C625 0.950 . S
C619 C617 1.387 . S
C619 C621 1.390 . S
C619 H623 0.950 . S
H620 C616 0.950 . S
C621 C619 1.390 . S
C621 C622 1.387 . S
C621 H624 0.950 . S
C622 C621 1.387 . S
C622 C625 1.387 . S
H623 C619 0.950 . S
H624 C621 0.950 . S
C625 C616 1.390 . S
C625 H618 0.950 . S
C625 C622 1.387 . S
C626 C627 1.387 . S
C626 H630 0.950 . S
C626 C635 1.390 . S
C627 C626 1.387 . S
C627 C629 1.387 . S
H628 C635 0.950 . S
C629 C627 1.387 . S
C629 C631 1.390 . S
C629 H633 0.950 . S
H630 C626 0.950 . S
C631 C629 1.390 . S
C631 C632 1.387 . S
C631 H634 0.950 . S
C632 C631 1.387 . S
C632 C635 1.387 . S
H633 C629 0.950 . S
H634 C631 0.950 . S
C635 C626 1.390 . S
C635 H628 0.950 . S
C635 C632 1.387 . S
C636 C637 1.387 . S
C636 H640 0.950 . S
C636 C645 1.390 . S
C637 C636 1.387 . S
C637 C639 1.387 . S
H638 C645 0.950 . S
C639 C637 1.387 . S
C639 C641 1.390 . S
C639 H643 0.950 . S
H640 C636 0.950 . S
C641 C639 1.390 . S
C641 C642 1.387 . S
C641 H644 0.950 . S
C642 C641 1.387 . S
C642 C645 1.387 . S
H643 C639 0.950 . S
H644 C641 0.950 . S
C645 C636 1.390 . S
C645 H638 0.950 . S
C645 C642 1.387 . S
C646 C647 1.387 . S
C646 H650 0.950 . S
C646 C655 1.390 . S
C647 C646 1.387 . S
C647 C649 1.387 . S
H648 C655 0.950 . S
C649 C647 1.387 . S
C649 C651 1.390 . S
C649 H653 0.950 . S
H650 C646 0.950 . S
C651 C649 1.390 . S
C651 C652 1.387 . S
C651 H654 0.950 . S
C652 C651 1.387 . S
C652 C655 1.387 . S
H653 C649 0.950 . S
H654 C651 0.950 . S
C655 C646 1.390 . S
C655 H648 0.950 . S
C655 C652 1.387 . S
C417 C29 1.280 . S
C422 C262 1.291 . S
C427 C49 1.029 . S
C432 C311 1.052 . S
C442 C346 2.535 . S
C437 C93 2.548 . S
C447 C119 2.380 . S
C452 C385 2.375 . S
C462 C306 2.392 . S
C457 C17 2.321 . S
C472 C265 0.828 . S
C467 C61 0.845 . S
C482 C395 1.929 . S
C477 C81 1.974 . S
C492 C354 1.760 . S
C487 C125 1.745 . S
C497 C23 1.644 . S
C502 C382 1.664 . S
C512 C314 2.315 . S
C507 C87 2.371 . S
C517 C113 2.339 . S
C522 C275 2.375 . S
C527 C55 1.026 . S
C532 C351 1.131 . S
C542 C271 1.299 . S
C537 C157 1.090 . S
C547 C189 1.070 . S
C552 C302 1.079 . S
C557 C221 2.518 . S
C562 C355 2.497 . S
C567 C253 2.445 . S
C572 C394 2.460 . S
C577 C145 2.093 . S
C582 C315 2.463 . S
C592 C274 0.796 . S
C587 C183 0.805 . S
C602 C386 1.960 . S
C597 C209 1.958 . S
C612 C345 1.732 . S
C607 C247 1.703 . S
C617 C151 1.470 . S
C622 C391 1.683 . S
C632 C305 2.313 . S
C627 C215 2.374 . S
C642 C266 2.353 . S
C637 C241 2.298 . S
C647 C177 1.098 . S
C652 C342 1.097 . S
