# Generated by pormake.
# Topology ptr, (4,4)-cn, num edge types: 1
# Building blocks:
#     Node 0, Type 0, BuildingBlock: NAHDIM_clean_sbu_0, # of connection points: 4
#     Node 1, Type 0, BuildingBlock: NAHDIM_clean_sbu_0, # of connection points: 4
#     Node 2, Type 0, BuildingBlock: NAHDIM_clean_sbu_0, # of connection points: 4
#     Node 3, Type 0, BuildingBlock: NAHDIM_clean_sbu_0, # of connection points: 4
#     Node 4, Type 0, BuildingBlock: NAHDIM_clean_sbu_0, # of connection points: 4
#     Node 5, Type 0, BuildingBlock: NAHDIM_clean_sbu_0, # of connection points: 4
#     Node 6, Type 0, BuildingBlock: NAHDIM_clean_sbu_0, # of connection points: 4
#     Node 7, Type 0, BuildingBlock: NAHDIM_clean_sbu_0, # of connection points: 4
#     Node 8, Type 0, BuildingBlock: NAHDIM_clean_sbu_0, # of connection points: 4
#     Node 9, Type 0, BuildingBlock: NAHDIM_clean_sbu_0, # of connection points: 4
#     Node 10, Type 0, BuildingBlock: NAHDIM_clean_sbu_0, # of connection points: 4
#     Node 11, Type 0, BuildingBlock: NAHDIM_clean_sbu_0, # of connection points: 4
#     Node 12, Type 0, BuildingBlock: NAHDIM_clean_sbu_0, # of connection points: 4
#     Node 13, Type 0, BuildingBlock: NAHDIM_clean_sbu_0, # of connection points: 4
#     Node 14, Type 0, BuildingBlock: NAHDIM_clean_sbu_0, # of connection points: 4
#     Node 15, Type 0, BuildingBlock: NAHDIM_clean_sbu_0, # of connection points: 4
#     Node 16, Type 0, BuildingBlock: NAHDIM_clean_sbu_0, # of connection points: 4
#     Node 17, Type 0, BuildingBlock: NAHDIM_clean_sbu_0, # of connection points: 4
#     Node 18, Type 1, BuildingBlock: NAHDIM_clean_linker_0, # of connection points: 4
#     Node 19, Type 1, BuildingBlock: NAHDIM_clean_linker_0, # of connection points: 4
#     Node 20, Type 1, BuildingBlock: NAHDIM_clean_linker_0, # of connection points: 4
#     Node 21, Type 1, BuildingBlock: NAHDIM_clean_linker_0, # of connection points: 4
#     Node 22, Type 1, BuildingBlock: NAHDIM_clean_linker_0, # of connection points: 4
#     Node 23, Type 1, BuildingBlock: NAHDIM_clean_linker_0, # of connection points: 4
#     Node 24, Type 1, BuildingBlock: NAHDIM_clean_linker_0, # of connection points: 4
#     Node 25, Type 1, BuildingBlock: NAHDIM_clean_linker_0, # of connection points: 4
#     Node 26, Type 1, BuildingBlock: NAHDIM_clean_linker_0, # of connection points: 4
#     Node 27, Type 1, BuildingBlock: NAHDIM_clean_linker_0, # of connection points: 4
#     Node 28, Type 1, BuildingBlock: NAHDIM_clean_linker_0, # of connection points: 4
#     Node 29, Type 1, BuildingBlock: NAHDIM_clean_linker_0, # of connection points: 4
#     Node 30, Type 1, BuildingBlock: NAHDIM_clean_linker_0, # of connection points: 4
#     Node 31, Type 1, BuildingBlock: NAHDIM_clean_linker_0, # of connection points: 4
#     Node 32, Type 1, BuildingBlock: NAHDIM_clean_linker_0, # of connection points: 4
#     Node 33, Type 1, BuildingBlock: NAHDIM_clean_linker_0, # of connection points: 4
#     Node 34, Type 1, BuildingBlock: NAHDIM_clean_linker_0, # of connection points: 4
#     Node 35, Type 1, BuildingBlock: NAHDIM_clean_linker_0, # of connection points: 4
#     Edge 36, Type (0, 1), BuildingBlock: TEMPAE_clean_linker_10, # of connection points: 2
#     Edge 37, Type (0, 1), BuildingBlock: TEMPAE_clean_linker_10, # of connection points: 2
#     Edge 38, Type (0, 1), BuildingBlock: TEMPAE_clean_linker_10, # of connection points: 2
#     Edge 39, Type (0, 1), BuildingBlock: TEMPAE_clean_linker_10, # of connection points: 2
#     Edge 40, Type (0, 1), BuildingBlock: TEMPAE_clean_linker_10, # of connection points: 2
#     Edge 41, Type (0, 1), BuildingBlock: TEMPAE_clean_linker_10, # of connection points: 2
#     Edge 42, Type (0, 1), BuildingBlock: TEMPAE_clean_linker_10, # of connection points: 2
#     Edge 43, Type (0, 1), BuildingBlock: TEMPAE_clean_linker_10, # of connection points: 2
#     Edge 44, Type (0, 1), BuildingBlock: TEMPAE_clean_linker_10, # of connection points: 2
#     Edge 45, Type (0, 1), BuildingBlock: TEMPAE_clean_linker_10, # of connection points: 2
#     Edge 46, Type (0, 1), BuildingBlock: TEMPAE_clean_linker_10, # of connection points: 2
#     Edge 47, Type (0, 1), BuildingBlock: TEMPAE_clean_linker_10, # of connection points: 2
#     Edge 48, Type (0, 1), BuildingBlock: TEMPAE_clean_linker_10, # of connection points: 2
#     Edge 49, Type (0, 1), BuildingBlock: TEMPAE_clean_linker_10, # of connection points: 2
#     Edge 50, Type (0, 1), BuildingBlock: TEMPAE_clean_linker_10, # of connection points: 2
#     Edge 51, Type (0, 1), BuildingBlock: TEMPAE_clean_linker_10, # of connection points: 2
#     Edge 52, Type (0, 1), BuildingBlock: TEMPAE_clean_linker_10, # of connection points: 2
#     Edge 53, Type (0, 1), BuildingBlock: TEMPAE_clean_linker_10, # of connection points: 2
#     Edge 54, Type (0, 1), BuildingBlock: TEMPAE_clean_linker_10, # of connection points: 2
#     Edge 55, Type (0, 1), BuildingBlock: TEMPAE_clean_linker_10, # of connection points: 2
#     Edge 56, Type (0, 1), BuildingBlock: TEMPAE_clean_linker_10, # of connection points: 2
#     Edge 57, Type (0, 1), BuildingBlock: TEMPAE_clean_linker_10, # of connection points: 2
#     Edge 58, Type (0, 1), BuildingBlock: TEMPAE_clean_linker_10, # of connection points: 2
#     Edge 59, Type (0, 1), BuildingBlock: TEMPAE_clean_linker_10, # of connection points: 2
#     Edge 60, Type (0, 1), BuildingBlock: TEMPAE_clean_linker_10, # of connection points: 2
#     Edge 61, Type (0, 1), BuildingBlock: TEMPAE_clean_linker_10, # of connection points: 2
#     Edge 62, Type (0, 1), BuildingBlock: TEMPAE_clean_linker_10, # of connection points: 2
#     Edge 63, Type (0, 1), BuildingBlock: TEMPAE_clean_linker_10, # of connection points: 2
#     Edge 64, Type (0, 1), BuildingBlock: TEMPAE_clean_linker_10, # of connection points: 2
#     Edge 65, Type (0, 1), BuildingBlock: TEMPAE_clean_linker_10, # of connection points: 2
#     Edge 66, Type (0, 1), BuildingBlock: TEMPAE_clean_linker_10, # of connection points: 2
#     Edge 67, Type (0, 1), BuildingBlock: TEMPAE_clean_linker_10, # of connection points: 2
#     Edge 68, Type (0, 1), BuildingBlock: TEMPAE_clean_linker_10, # of connection points: 2
#     Edge 69, Type (0, 1), BuildingBlock: TEMPAE_clean_linker_10, # of connection points: 2
#     Edge 70, Type (0, 1), BuildingBlock: TEMPAE_clean_linker_10, # of connection points: 2
#     Edge 71, Type (0, 1), BuildingBlock: TEMPAE_clean_linker_10, # of connection points: 2
#     Edge 72, Type (0, 1), BuildingBlock: TEMPAE_clean_linker_10, # of connection points: 2
#     Edge 73, Type (0, 1), BuildingBlock: TEMPAE_clean_linker_10, # of connection points: 2
#     Edge 74, Type (0, 1), BuildingBlock: TEMPAE_clean_linker_10, # of connection points: 2
#     Edge 75, Type (0, 1), BuildingBlock: TEMPAE_clean_linker_10, # of connection points: 2
#     Edge 76, Type (0, 1), BuildingBlock: TEMPAE_clean_linker_10, # of connection points: 2
#     Edge 77, Type (0, 1), BuildingBlock: TEMPAE_clean_linker_10, # of connection points: 2
#     Edge 78, Type (0, 1), BuildingBlock: TEMPAE_clean_linker_10, # of connection points: 2
#     Edge 79, Type (0, 1), BuildingBlock: TEMPAE_clean_linker_10, # of connection points: 2
#     Edge 80, Type (0, 1), BuildingBlock: TEMPAE_clean_linker_10, # of connection points: 2
#     Edge 81, Type (0, 1), BuildingBlock: TEMPAE_clean_linker_10, # of connection points: 2
#     Edge 82, Type (0, 1), BuildingBlock: TEMPAE_clean_linker_10, # of connection points: 2
#     Edge 83, Type (0, 1), BuildingBlock: TEMPAE_clean_linker_10, # of connection points: 2
#     Edge 84, Type (0, 1), BuildingBlock: TEMPAE_clean_linker_10, # of connection points: 2
#     Edge 85, Type (0, 1), BuildingBlock: TEMPAE_clean_linker_10, # of connection points: 2
#     Edge 86, Type (0, 1), BuildingBlock: TEMPAE_clean_linker_10, # of connection points: 2
#     Edge 87, Type (0, 1), BuildingBlock: TEMPAE_clean_linker_10, # of connection points: 2
#     Edge 88, Type (0, 1), BuildingBlock: TEMPAE_clean_linker_10, # of connection points: 2
#     Edge 89, Type (0, 1), BuildingBlock: TEMPAE_clean_linker_10, # of connection points: 2
#     Edge 90, Type (0, 1), BuildingBlock: TEMPAE_clean_linker_10, # of connection points: 2
#     Edge 91, Type (0, 1), BuildingBlock: TEMPAE_clean_linker_10, # of connection points: 2
#     Edge 92, Type (0, 1), BuildingBlock: TEMPAE_clean_linker_10, # of connection points: 2
#     Edge 93, Type (0, 1), BuildingBlock: TEMPAE_clean_linker_10, # of connection points: 2
#     Edge 94, Type (0, 1), BuildingBlock: TEMPAE_clean_linker_10, # of connection points: 2
#     Edge 95, Type (0, 1), BuildingBlock: TEMPAE_clean_linker_10, # of connection points: 2
#     Edge 96, Type (0, 1), BuildingBlock: TEMPAE_clean_linker_10, # of connection points: 2
#     Edge 97, Type (0, 1), BuildingBlock: TEMPAE_clean_linker_10, # of connection points: 2
#     Edge 98, Type (0, 1), BuildingBlock: TEMPAE_clean_linker_10, # of connection points: 2
#     Edge 99, Type (0, 1), BuildingBlock: TEMPAE_clean_linker_10, # of connection points: 2
#     Edge 100, Type (0, 1), BuildingBlock: TEMPAE_clean_linker_10, # of connection points: 2
#     Edge 101, Type (0, 1), BuildingBlock: TEMPAE_clean_linker_10, # of connection points: 2
#     Edge 102, Type (0, 1), BuildingBlock: TEMPAE_clean_linker_10, # of connection points: 2
#     Edge 103, Type (0, 1), BuildingBlock: TEMPAE_clean_linker_10, # of connection points: 2
#     Edge 104, Type (0, 1), BuildingBlock: TEMPAE_clean_linker_10, # of connection points: 2
#     Edge 105, Type (0, 1), BuildingBlock: TEMPAE_clean_linker_10, # of connection points: 2
#     Edge 106, Type (0, 1), BuildingBlock: TEMPAE_clean_linker_10, # of connection points: 2
#     Edge 107, Type (0, 1), BuildingBlock: TEMPAE_clean_linker_10, # of connection points: 2
# Relax obj value: 0.084
# Max RMSD: 0.307
# Mean RMSD: 0.119
data_MOF--net-ptr--node1-NAHDIM_clean_sbu_0--node2-NAHDIM_clean_linker_0--edge1-TEMPAE_clean_linker_10
_symmetry_space_group_name_H-M    P1
_symmetry_Int_Tables_number       1
_symmetry_cell_setting            triclinic
loop_
_symmetry_equiv_pos_as_xyz
'x, y, z'
_cell_length_a     96.532458
_cell_length_b     94.320283
_cell_length_c     79.70099
_cell_angle_alpha  92.398274
_cell_angle_beta   89.642811
_cell_angle_gamma 122.16483
loop_
_atom_site_label
_atom_site_type_symbol
_atom_site_fract_x
_atom_site_fract_y
_atom_site_fract_z
_atom_type_partial_charge
C0 C 0.01945 0.33199 0.02805 0.0
O1 O 0.00432 0.32631 0.0326 0.0
O2 O 0.99093 0.32508 0.9967 0.0
Zn3 Zn 0.00857 0.34685 0.00765 0.0
O4 O 0.0019 0.3552 0.02792 0.0
C5 C 0.0061 0.36507 0.98241 0.0
O6 O 0.99074 0.3548 0.98631 0.0
O7 O 0.02533 0.34227 0.01633 0.0
C8 C 0.99043 0.35783 0.03055 0.0
O9 O 0.9796 0.35429 0.01861 0.0
C10 C 0.97643 0.31438 0.00094 0.0
O11 O 0.97045 0.31714 0.01466 0.0
O12 O 0.01715 0.36421 0.99005 0.0
C13 C 0.6975 0.66345 0.00236 0.0
O14 O 0.70074 0.66738 0.01848 0.0
O15 O 0.67302 0.67506 0.02568 0.0
Zn16 Zn 0.66465 0.65357 0.01187 0.0
O17 O 0.64605 0.64889 0.9966 0.0
C18 C 0.65784 0.63621 0.04285 0.0
O19 O 0.66518 0.65152 0.04958 0.0
O20 O 0.68285 0.6567 0.99701 0.0
C21 C 0.63116 0.64016 0.00083 0.0
O22 O 0.62766 0.63442 0.01601 0.0
C23 C 0.66782 0.68484 0.02451 0.0
O24 O 0.65598 0.68099 0.0137 0.0
O25 O 0.65678 0.63407 0.02694 0.0
C26 C 0.35106 0.0388 0.99134 0.0
O27 O 0.35923 0.0345 0.98135 0.0
O28 O 0.32834 0.99541 0.02119 0.0
Zn29 Zn 0.34965 0.01351 0.01198 0.0
O30 O 0.35567 0.00498 0.99142 0.0
C31 C 0.36457 0.01788 0.04477 0.0
O32 O 0.34933 0.0102 0.04969 0.0
O33 O 0.34653 0.03214 0.00549 0.0
C34 C 0.36499 0.99932 0.99226 0.0
O35 O 0.36976 0.9977 0.00708 0.0
C36 C 0.31495 0.9905 0.01346 0.0
O37 O 0.31536 0.99657 0.99879 0.0
O38 O 0.36764 0.02131 0.02942 0.0
C39 C 0.97365 0.66322 0.99366 0.0
O40 O 0.98012 0.65829 0.98207 0.0
O41 O 0.01236 0.67865 0.02573 0.0
Zn42 Zn 0.99315 0.65694 0.01623 0.0
O43 O 0.99956 0.64822 0.99602 0.0
C44 C 0.99367 0.63627 0.04112 0.0
O45 O 0.00924 0.64478 0.03732 0.0
O46 O 0.97672 0.66274 0.00906 0.0
C47 C 0.01332 0.64963 0.99411 0.0
O48 O 0.02468 0.65739 0.00592 0.0
C49 C 0.01885 0.69088 0.01606 0.0
O50 O 0.0137 0.68821 0.00035 0.0
O51 O 0.98401 0.63947 0.03382 0.0
C52 C 0.32422 0.33976 0.01982 0.0
O53 O 0.33205 0.33185 0.0188 0.0
O54 O 0.33678 0.33384 0.98249 0.0
Zn55 Zn 0.34697 0.35602 0.9953 0.0
O56 O 0.36601 0.3603 0.00974 0.0
C57 C 0.36613 0.38223 0.97204 0.0
O58 O 0.37702 0.37819 0.97455 0.0
O59 O 0.329 0.35239 0.0109 0.0
C60 C 0.37571 0.37456 0.01694 0.0
O61 O 0.37411 0.38719 0.0138 0.0
C62 C 0.34284 0.32648 0.9746 0.0
O63 O 0.35878 0.33413 0.97309 0.0
O64 O 0.35263 0.37457 0.9797 0.0
C65 C 0.66387 0.97608 0.03632 0.0
O66 O 0.67325 0.9925 0.03792 0.0
O67 O 0.66836 0.00216 0.0077 0.0
Zn68 Zn 0.64723 0.98738 0.01943 0.0
O69 O 0.6439 0.00017 0.03818 0.0
C70 C 0.63122 0.97572 0.98707 0.0
O71 O 0.64472 0.97614 0.98337 0.0
O72 O 0.64997 0.96951 0.029 0.0
C73 C 0.62943 0.99501 0.04294 0.0
O74 O 0.61711 0.98154 0.03539 0.0
C75 C 0.67458 0.01688 0.0026 0.0
O76 O 0.66678 0.02472 0.00488 0.0
O77 O 0.62906 0.97892 0.00217 0.0
C78 C 0.68465 0.66923 0.3598 0.0
O79 O 0.66878 0.66223 0.36148 0.0
O80 O 0.66184 0.66448 0.32359 0.0
Zn81 Zn 0.67693 0.68581 0.33742 0.0
O82 O 0.66513 0.69096 0.35542 0.0
C83 C 0.68243 0.71236 0.31661 0.0
O84 O 0.66706 0.70645 0.32023 0.0
O85 O 0.69204 0.68095 0.34962 0.0
C86 C 0.65057 0.68773 0.35479 0.0
O87 O 0.64148 0.68029 0.34124 0.0
C88 C 0.65078 0.66121 0.31278 0.0
O89 O 0.6477 0.67272 0.30915 0.0
O90 O 0.68959 0.70561 0.32269 0.0
C91 C 0.35454 0.98772 0.33865 0.0
O92 O 0.36135 0.00227 0.34699 0.0
O93 O 0.33642 0.00531 0.36359 0.0
Zn94 Zn 0.3242 0.98171 0.35346 0.0
O95 O 0.30596 0.97787 0.33795 0.0
C96 C 0.30335 0.96359 0.38091 0.0
O97 O 0.2967 0.97228 0.37776 0.0
O98 O 0.33924 0.97732 0.33979 0.0
C99 C 0.29348 0.96325 0.33503 0.0
O100 O 0.29231 0.95056 0.34261 0.0
C101 C 0.33118 0.01509 0.36265 0.0
O102 O 0.31727 0.00979 0.35467 0.0
O103 O 0.31524 0.9656 0.37211 0.0
C104 C 0.02257 0.36655 0.31878 0.0
O105 O 0.01484 0.35212 0.31018 0.0
O106 O 0.00571 0.33258 0.35242 0.0
Zn107 Zn 0.02816 0.34785 0.34316 0.0
O108 O 0.03381 0.33539 0.3259 0.0
C109 C 0.04831 0.34735 0.36955 0.0
O110 O 0.04141 0.3316 0.36423 0.0
O111 O 0.02914 0.36754 0.33291 0.0
C112 C 0.04861 0.33948 0.32446 0.0
O113 O 0.06007 0.3521 0.33375 0.0
C114 C 0.99344 0.3218 0.34345 0.0
O115 O 0.99529 0.32019 0.32728 0.0
O116 O 0.04441 0.35663 0.36254 0.0
C117 C 0.6455 0.9799 0.32367 0.0
O118 O 0.65729 0.98243 0.31349 0.0
O119 O 0.67956 0.00434 0.35962 0.0
Zn120 Zn 0.66692 0.98067 0.34989 0.0
O121 O 0.68041 0.9777 0.3324 0.0
C122 C 0.64972 0.96327 0.37854 0.0
O123 O 0.64502 0.97399 0.3777 0.0
O124 O 0.64686 0.97814 0.33918 0.0
C125 C 0.6772 0.9634 0.32689 0.0
O126 O 0.66483 0.94985 0.33312 0.0
C127 C 0.691 0.0108 0.37065 0.0
O128 O 0.69584 0.00151 0.3771 0.0
O129 O 0.65982 0.96385 0.36787 0.0
C130 C 0.9901 0.6844 0.36362 0.0
O131 O 0.99822 0.67709 0.3664 0.0
O132 O 0.01229 0.68261 0.32981 0.0
Zn133 Zn 0.01775 0.70313 0.34385 0.0
O134 O 0.03406 0.70748 0.3621 0.0
C135 C 0.03752 0.72762 0.31948 0.0
O136 O 0.04643 0.72094 0.32047 0.0
O137 O 0.99649 0.69704 0.35449 0.0
C138 C 0.04674 0.72148 0.36661 0.0
O139 O 0.0504 0.73498 0.35875 0.0
C140 C 0.02019 0.67532 0.32972 0.0
O141 O 0.03375 0.68185 0.33875 0.0
O142 O 0.02509 0.72238 0.32874 0.0
C143 C 0.31649 0.31221 0.36864 0.0
O144 O 0.31587 0.32251 0.37978 0.0
O145 O 0.32962 0.34632 0.33234 0.0
Zn146 Zn 0.30943 0.33017 0.34473 0.0
O147 O 0.30642 0.34279 0.36397 0.0
C148 C 0.2901 0.31111 0.31584 0.0
O149 O 0.30251 0.30916 0.31374 0.0
O150 O 0.31347 0.31282 0.35327 0.0
C151 C 0.29272 0.34065 0.36813 0.0
O152 O 0.27946 0.32962 0.35952 0.0
C153 C 0.34321 0.3539 0.34038 0.0
O154 O 0.34334 0.35133 0.35644 0.0
O155 O 0.29013 0.31961 0.32866 0.0
C156 C 0.35266 0.01689 0.70039 0.0
O157 O 0.33741 0.01099 0.70458 0.0
O158 O 0.3295 0.00773 0.65824 0.0
Zn159 Zn 0.34301 0.02869 0.67298 0.0
O160 O 0.32858 0.03298 0.68793 0.0
C161 C 0.35399 0.04893 0.64347 0.0
O162 O 0.34303 0.03485 0.63553 0.0
O163 O 0.35807 0.02524 0.68723 0.0
C164 C 0.33526 0.04354 0.70026 0.0
O165 O 0.35114 0.05111 0.70274 0.0
C166 C 0.31641 0.99523 0.66358 0.0
O167 O 0.31135 0.99641 0.67861 0.0
O168 O 0.35621 0.04903 0.65919 0.0
C169 C 0.0201 0.32699 0.65726 0.0
O170 O 0.00821 0.32354 0.64669 0.0
O171 O 0.99382 0.33463 0.69264 0.0
Zn172 Zn 0.99422 0.31528 0.68148 0.0
O173 O 0.97759 0.30551 0.6624 0.0
C174 C 0.97975 0.29585 0.71066 0.0
O175 O 0.97527 0.30667 0.71338 0.0
O176 O 0.01692 0.32416 0.67271 0.0
C177 C 0.96396 0.30447 0.66395 0.0
O178 O 0.96063 0.30929 0.6783 0.0
C179 C 0.99369 0.34522 0.68341 0.0
O180 O 0.9943 0.34345 0.66703 0.0
O181 O 0.98824 0.29723 0.69785 0.0
C182 C 0.67758 0.6936 0.65527 0.0
O183 O 0.67494 0.68047 0.64607 0.0
O184 O 0.66665 0.66193 0.6915 0.0
Zn185 Zn 0.68708 0.67848 0.67949 0.0
O186 O 0.69162 0.66673 0.66046 0.0
C187 C 0.70536 0.69294 0.71095 0.0
O188 O 0.69131 0.69018 0.71648 0.0
O189 O 0.68322 0.69573 0.67017 0.0
C190 C 0.70147 0.66181 0.66224 0.0
O191 O 0.70859 0.66407 0.67695 0.0
C192 C 0.66359 0.6476 0.69532 0.0
O193 O 0.6741 0.64325 0.69137 0.0
O194 O 0.70639 0.68932 0.69564 0.0
C195 C 0.3103 0.3263 0.65959 0.0
O196 O 0.31644 0.32074 0.64827 0.0
O197 O 0.34686 0.34007 0.69501 0.0
Zn198 Zn 0.32812 0.31901 0.68387 0.0
O199 O 0.33628 0.31117 0.66445 0.0
C200 C 0.32175 0.29328 0.70739 0.0
O201 O 0.33651 0.29697 0.70349 0.0
O202 O 0.31314 0.32597 0.67508 0.0
C203 C 0.3497 0.31168 0.66474 0.0
O204 O 0.35883 0.31711 0.6785 0.0
C205 C 0.35439 0.35227 0.6854 0.0
O206 O 0.35029 0.34971 0.66936 0.0
O207 O 0.31592 0.30101 0.70059 0.0
C208 C 0.65823 0.02815 0.67671 0.0
O209 O 0.65753 0.02279 0.66108 0.0
O210 O 0.67759 0.00885 0.66306 0.0
Zn211 Zn 0.68916 0.03222 0.67348 0.0
O212 O 0.70562 0.03458 0.69048 0.0
C213 C 0.69397 0.04519 0.64053 0.0
O214 O 0.68167 0.02985 0.63697 0.0
O215 O 0.67149 0.03401 0.6851 0.0
C216 C 0.71867 0.04832 0.69478 0.0
O217 O 0.72201 0.06215 0.68781 0.0
C218 C 0.68384 0.00025 0.65937 0.0
O219 O 0.69954 0.00676 0.66219 0.0
O220 O 0.69966 0.04926 0.65551 0.0
C221 C 0.97337 0.64801 0.69943 0.0
O222 O 0.9766 0.66072 0.70969 0.0
O223 O 0.99555 0.68204 0.66564 0.0
Zn224 Zn 0.97228 0.66817 0.6732 0.0
O225 O 0.96801 0.68181 0.69011 0.0
C226 C 0.94732 0.66401 0.64866 0.0
O227 O 0.94779 0.67665 0.65683 0.0
O228 O 0.97067 0.64849 0.68395 0.0
C229 C 0.9545 0.67639 0.69752 0.0
O230 O 0.94212 0.66116 0.69368 0.0
C231 C 0.00044 0.68854 0.65148 0.0
O232 O 0.98971 0.68689 0.64026 0.0
O233 O 0.95654 0.65908 0.65346 0.0
C234 C 0.21777 0.26959 0.09229 0.0
C235 C 0.21797 0.28351 0.0828 0.0
C236 C 0.20289 0.29266 0.1006 0.0
C237 C 0.20456 0.30606 0.1105 0.0
C238 C 0.19097 0.30525 0.11791 0.0
C239 C 0.17531 0.29047 0.11559 0.0
C240 C 0.17347 0.27681 0.10557 0.0
C241 C 0.18727 0.27806 0.09809 0.0
C242 C 0.19336 0.32019 0.12827 0.0
C243 C 0.15694 0.26086 0.1029 0.0
C244 C 0.07853 0.30368 0.06165 0.0
C245 C 0.08765 0.29627 0.06808 0.0
C246 C 0.10992 0.30355 0.08795 0.0
C247 C 0.10585 0.28696 0.08953 0.0
C248 C 0.11467 0.2833 0.10058 0.0
C249 C 0.12789 0.29648 0.11015 0.0
C250 C 0.13205 0.31318 0.10858 0.0
C251 C 0.12297 0.31648 0.09749 0.0
C252 C 0.10997 0.26536 0.10196 0.0
C253 C 0.14616 0.32753 0.11852 0.0
C254 C 0.09139 0.28944 0.21805 0.0
C255 C 0.08831 0.27326 0.21479 0.0
C256 C 0.09935 0.27081 0.20551 0.0
C257 C 0.11394 0.28487 0.19975 0.0
C258 C 0.11704 0.3012 0.20309 0.0
C259 C 0.10551 0.3032 0.21187 0.0
C260 C 0.09548 0.2532 0.20203 0.0
C261 C 0.13267 0.3166 0.1977 0.0
C262 C 0.20694 0.25489 0.21216 0.0
C263 C 0.2057 0.26857 0.2217 0.0
C264 C 0.17944 0.26623 0.21983 0.0
C265 C 0.16352 0.25347 0.21519 0.0
C266 C 0.15301 0.25704 0.20688 0.0
C267 C 0.15853 0.27385 0.20356 0.0
C268 C 0.17424 0.28694 0.20937 0.0
C269 C 0.18457 0.28297 0.21739 0.0
C270 C 0.13627 0.2428 0.20107 0.0
C271 C 0.1803 0.30505 0.20659 0.0
C272 C 0.16091 0.28935 0.1237 0.0
C273 C 0.15103 0.29276 0.11414 0.0
C274 C 0.13781 0.29285 0.12123 0.0
C275 C 0.13441 0.28971 0.13844 0.0
C276 C 0.12137 0.28998 0.14607 0.0
C277 C 0.11849 0.2874 0.16315 0.0
C278 C 0.12855 0.28448 0.17325 0.0
C279 C 0.12621 0.28258 0.19077 0.0
C280 C 0.13613 0.27913 0.20029 0.0
C281 C 0.14845 0.27762 0.19284 0.0
C282 C 0.15124 0.2799 0.17544 0.0
C283 C 0.16372 0.27875 0.16758 0.0
C284 C 0.16683 0.2817 0.15062 0.0
C285 C 0.15746 0.28573 0.1408 0.0
C286 C 0.14436 0.28624 0.14828 0.0
C287 C 0.14134 0.28348 0.16566 0.0
C288 C 0.06686 0.29124 0.25253 0.0
C289 C 0.07087 0.28208 0.23968 0.0
O290 O 0.21669 0.29442 0.09394 0.0
O291 O 0.18963 0.26205 0.22646 0.0
O292 O 0.08127 0.29233 0.22744 0.0
O293 O 0.10157 0.30757 0.07749 0.0
H294 H 0.20759 0.2778 0.07357 0.0
H295 H 0.20607 0.26212 0.09895 0.0
H296 H 0.22795 0.27498 0.10172 0.0
H297 H 0.21901 0.26098 0.08335 0.0
H298 H 0.21664 0.31727 0.11234 0.0
H299 H 0.18571 0.26753 0.09047 0.0
H300 H 0.18463 0.32362 0.12402 0.0
H301 H 0.20602 0.33129 0.1275 0.0
H302 H 0.19081 0.31693 0.14163 0.0
H303 H 0.15769 0.25094 0.09573 0.0
H304 H 0.14871 0.26352 0.09592 0.0
H305 H 0.15129 0.25603 0.11521 0.0
H306 H 0.08983 0.28861 0.05866 0.0
H307 H 0.07929 0.30287 0.04757 0.0
H308 H 0.08713 0.31771 0.06277 0.0
H309 H 0.05623 0.29102 0.07426 0.0
H310 H 0.09584 0.2768 0.08216 0.0
H311 H 0.12603 0.32922 0.09619 0.0
H312 H 0.12028 0.26409 0.09784 0.0
H313 H 0.09893 0.25644 0.09421 0.0
H314 H 0.10756 0.26183 0.11526 0.0
H315 H 0.14777 0.3398 0.11594 0.0
H316 H 0.15765 0.32805 0.11545 0.0
H317 H 0.14411 0.32545 0.13216 0.0
H318 H 0.06024 0.27005 0.23442 0.0
H319 H 0.07728 0.26251 0.21938 0.0
H320 H 0.10776 0.31563 0.21449 0.0
H321 H 0.09778 0.25137 0.18868 0.0
H322 H 0.08258 0.24361 0.20487 0.0
H323 H 0.10361 0.25112 0.20993 0.0
H324 H 0.13445 0.3283 0.20378 0.0
H325 H 0.13229 0.3175 0.1839 0.0
H326 H 0.14342 0.31579 0.2008 0.0
H327 H 0.2096 0.27881 0.21282 0.0
H328 H 0.21978 0.25982 0.20839 0.0
H329 H 0.19912 0.25065 0.20061 0.0
H330 H 0.20278 0.24389 0.21999 0.0
H331 H 0.15959 0.24061 0.21744 0.0
H332 H 0.19671 0.29291 0.22163 0.0
H333 H 0.13509 0.24276 0.18721 0.0
H334 H 0.12676 0.24463 0.20672 0.0
H335 H 0.13386 0.2304 0.20452 0.0
H336 H 0.19178 0.31379 0.2138 0.0
H337 H 0.17083 0.30782 0.21027 0.0
H338 H 0.18266 0.30744 0.19304 0.0
H339 H 0.15376 0.29552 0.10101 0.0
H340 H 0.11336 0.29236 0.13895 0.0
H341 H 0.10834 0.28784 0.16837 0.0
H342 H 0.13433 0.27775 0.21372 0.0
H343 H 0.17138 0.27574 0.17448 0.0
H344 H 0.17672 0.28083 0.14531 0.0
H345 H 0.05326 0.28541 0.25112 0.0
H346 H 0.07012 0.30343 0.24701 0.0
H347 H 0.0778 0.29016 0.27464 0.0
C348 C 0.73793 0.92815 0.05161 0.0
C349 C 0.72409 0.91984 0.06422 0.0
C350 C 0.72709 0.91306 0.09255 0.0
C351 C 0.71078 0.90081 0.09576 0.0
C352 C 0.707 0.88928 0.10826 0.0
C353 C 0.71984 0.88979 0.11735 0.0
C354 C 0.73632 0.90234 0.11421 0.0
C355 C 0.73967 0.91412 0.10214 0.0
C356 C 0.68929 0.87633 0.11146 0.0
C357 C 0.75046 0.90303 0.12309 0.0
C358 C 0.70014 0.77291 0.07235 0.0
C359 C 0.70699 0.78952 0.08085 0.0
C360 C 0.69993 0.80389 0.10208 0.0
C361 C 0.71607 0.81747 0.10495 0.0
C362 C 0.71934 0.83148 0.11506 0.0
C363 C 0.70619 0.83206 0.12223 0.0
C364 C 0.68995 0.8183 0.11961 0.0
C365 C 0.68706 0.80427 0.10972 0.0
C366 C 0.73684 0.84585 0.11776 0.0
C367 C 0.67564 0.81862 0.12687 0.0
C368 C 0.71335 0.81959 0.23305 0.0
C369 C 0.72732 0.82851 0.22323 0.0
C370 C 0.72944 0.84152 0.21341 0.0
C371 C 0.71706 0.84527 0.21295 0.0
C372 C 0.70307 0.83642 0.22299 0.0
C373 C 0.70155 0.82386 0.23312 0.0
C374 C 0.74489 0.85118 0.20348 0.0
C375 C 0.68962 0.84005 0.22288 0.0
C376 C 0.75369 0.97927 0.22464 0.0
C377 C 0.74055 0.9608 0.22665 0.0
C378 C 0.74206 0.93585 0.22192 0.0
C379 C 0.75314 0.93096 0.21838 0.0
C380 C 0.74784 0.91498 0.21125 0.0
C381 C 0.73094 0.90349 0.20797 0.0
C382 C 0.71955 0.90807 0.21232 0.0
C383 C 0.72524 0.92427 0.21915 0.0
C384 C 0.76033 0.9105 0.20687 0.0
C385 C 0.70141 0.89592 0.20953 0.0
C386 C 0.71614 0.87626 0.12887 0.0
C387 C 0.71189 0.86072 0.12153 0.0
C388 C 0.70944 0.84764 0.13127 0.0
C389 C 0.71117 0.84999 0.14894 0.0
C390 C 0.70889 0.83712 0.15911 0.0
C391 C 0.71097 0.83969 0.17647 0.0
C392 C 0.71576 0.85534 0.18429 0.0
C393 C 0.71863 0.85832 0.20185 0.0
C394 C 0.72335 0.87402 0.20918 0.0
C395 C 0.7253 0.88694 0.19946 0.0
C396 C 0.7225 0.88422 0.18188 0.0
C397 C 0.72439 0.89695 0.1717 0.0
C398 C 0.72193 0.89425 0.15438 0.0
C399 C 0.71782 0.87885 0.14653 0.0
C400 C 0.71549 0.8657 0.15658 0.0
C401 C 0.71784 0.86839 0.17427 0.0
C402 C 0.71207 0.7839 0.25235 0.0
C403 C 0.71793 0.79749 0.24029 0.0
O404 O 0.73108 0.92399 0.08022 0.0
O405 O 0.74808 0.95181 0.22795 0.0
O406 O 0.71085 0.80691 0.24265 0.0
O407 O 0.69629 0.79037 0.09191 0.0
H408 H 0.71758 0.90602 0.06158 0.0
H409 H 0.74677 0.92421 0.05356 0.0
H410 H 0.74456 0.94203 0.0533 0.0
H411 H 0.73309 0.92439 0.0385 0.0
H412 H 0.70104 0.90028 0.08854 0.0
H413 H 0.75221 0.92376 0.09957 0.0
H414 H 0.68627 0.86398 0.10595 0.0
H415 H 0.68088 0.87955 0.10577 0.0
H416 H 0.68709 0.87504 0.12517 0.0
H417 H 0.76233 0.91159 0.11709 0.0
H418 H 0.74859 0.89036 0.12321 0.0
H419 H 0.75128 0.90761 0.13631 0.0
H420 H 0.71298 0.80013 0.07227 0.0
H421 H 0.71406 0.7636 0.08115 0.0
H422 H 0.68661 0.76628 0.07003 0.0
H423 H 0.68661 0.76628 0.07003 0.0
H424 H 0.72618 0.81728 0.09926 0.0
H425 H 0.67466 0.79371 0.10751 0.0
H426 H 0.73935 0.84971 0.13131 0.0
H427 H 0.73884 0.85679 0.11093 0.0
H428 H 0.74575 0.84259 0.11321 0.0
H429 H 0.66372 0.80706 0.12335 0.0
H430 H 0.67565 0.82962 0.1224 0.0
H431 H 0.67685 0.82 0.14077 0.0
H432 H 0.71782 0.79358 0.22685 0.0
H433 H 0.73669 0.82549 0.22333 0.0
H434 H 0.69089 0.817 0.24086 0.0
H435 H 0.74207 0.84737 0.18996 0.0
H436 H 0.75447 0.84883 0.20751 0.0
H437 H 0.74989 0.86485 0.20484 0.0
H438 H 0.67881 0.83091 0.23005 0.0
H439 H 0.68564 0.83981 0.20977 0.0
H440 H 0.69432 0.85281 0.22854 0.0
H441 H 0.73272 0.9565 0.21505 0.0
H442 H 0.74795 0.98673 0.22338 0.0
H443 H 0.76078 0.9806 0.21314 0.0
H444 H 0.76228 0.98439 0.23563 0.0
H445 H 0.76607 0.93993 0.22077 0.0
H446 H 0.71651 0.92778 0.22232 0.0
H447 H 0.75916 0.90664 0.19334 0.0
H448 H 0.75799 0.89968 0.21416 0.0
H449 H 0.77306 0.92109 0.20958 0.0
H450 H 0.69407 0.90076 0.21514 0.0
H451 H 0.69759 0.88376 0.21502 0.0
H452 H 0.69862 0.8935 0.19584 0.0
H453 H 0.71091 0.85892 0.10795 0.0
H454 H 0.70549 0.82492 0.15376 0.0
H455 H 0.70896 0.82929 0.18366 0.0
H456 H 0.72568 0.87628 0.22263 0.0
H457 H 0.72784 0.90918 0.17699 0.0
H458 H 0.72349 0.90448 0.14718 0.0
H459 H 0.73309 0.79062 0.26639 0.0
H460 H 0.70524 0.77195 0.24433 0.0
H461 H 0.70074 0.78241 0.25822 0.0
C462 C 0.19391 0.92434 0.0605 0.0
C463 C 0.2075 0.93055 0.07393 0.0
C464 C 0.19335 0.90866 0.09452 0.0
C465 C 0.18284 0.91374 0.10052 0.0
C466 C 0.16998 0.90369 0.11122 0.0
C467 C 0.16765 0.88833 0.11612 0.0
C468 C 0.17866 0.88358 0.11077 0.0
C469 C 0.19141 0.89386 0.10007 0.0
C470 C 0.15852 0.90919 0.11685 0.0
C471 C 0.17661 0.86736 0.11592 0.0
C472 C 0.08132 0.82069 0.04226 0.0
C473 C 0.08401 0.81218 0.05671 0.0
C474 C 0.08809 0.82335 0.08546 0.0
C475 C 0.09864 0.81863 0.09138 0.0
C476 C 0.10967 0.82775 0.10472 0.0
C477 C 0.11025 0.84197 0.11211 0.0
C478 C 0.09892 0.84613 0.10679 0.0
C479 C 0.08776 0.83653 0.09367 0.0
C480 C 0.12126 0.82267 0.11035 0.0
C481 C 0.09926 0.86127 0.11429 0.0
C482 C 0.07462 0.82663 0.21947 0.0
C483 C 0.0836 0.81937 0.21464 0.0
C484 C 0.09875 0.82885 0.20676 0.0
C485 C 0.10483 0.8458 0.20338 0.0
C486 C 0.09589 0.85316 0.20853 0.0
C487 C 0.08102 0.84351 0.21674 0.0
C488 C 0.10823 0.82078 0.202 0.0
C489 C 0.10199 0.87121 0.20529 0.0
C490 C 0.21949 0.95156 0.22918 0.0
C491 C 0.21118 0.9386 0.24268 0.0
C492 C 0.19187 0.91216 0.22686 0.0
C493 C 0.18872 0.89629 0.22201 0.0
C494 C 0.17479 0.88485 0.21232 0.0
C495 C 0.1638 0.88951 0.20724 0.0
C496 C 0.16681 0.90551 0.21219 0.0
C497 C 0.18077 0.91666 0.22202 0.0
C498 C 0.1719 0.86786 0.20732 0.0
C499 C 0.15536 0.91088 0.2069 0.0
C500 C 0.15277 0.87653 0.1254 0.0
C501 C 0.1389 0.86502 0.11587 0.0
C502 C 0.12417 0.85378 0.12346 0.0
C503 C 0.12312 0.85407 0.14115 0.0
C504 C 0.10841 0.84321 0.14923 0.0
C505 C 0.10746 0.84388 0.16666 0.0
C506 C 0.12128 0.85513 0.1767 0.0
C507 C 0.12047 0.85589 0.19443 0.0
C508 C 0.13453 0.86708 0.20399 0.0
C509 C 0.14941 0.87782 0.19633 0.0
C510 C 0.1504 0.87749 0.17863 0.0
C511 C 0.1651 0.8884 0.17051 0.0
C512 C 0.16592 0.88811 0.15308 0.0
C513 C 0.1521 0.87684 0.1431 0.0
C514 C 0.13718 0.86562 0.15101 0.0
C515 C 0.1363 0.86603 0.16879 0.0
C516 C 0.03146 0.79783 0.22442 0.0
C517 C 0.04863 0.80078 0.225 0.0
O518 O 0.20523 0.91735 0.08317 0.0
O519 O 0.2058 0.92265 0.23598 0.0
O520 O 0.05988 0.81787 0.22696 0.0
O521 O 0.0786 0.81582 0.07148 0.0
H522 H 0.20738 0.94012 0.08248 0.0
H523 H 0.1818 0.91918 0.06638 0.0
H524 H 0.19341 0.91433 0.05215 0.0
H525 H 0.19614 0.93487 0.05276 0.0
H526 H 0.18433 0.92533 0.09668 0.0
H527 H 0.19967 0.89012 0.09555 0.0
H528 H 0.14603 0.90013 0.1117 0.0
H529 H 0.16247 0.92188 0.11269 0.0
H530 H 0.15777 0.90924 0.13076 0.0
H531 H 0.18695 0.86612 0.11185 0.0
H532 H 0.16508 0.85664 0.11027 0.0
H533 H 0.1756 0.86655 0.12977 0.0
H534 H 0.09746 0.81757 0.05748 0.0
H535 H 0.08548 0.81785 0.03027 0.0
H536 H 0.08849 0.83449 0.04475 0.0
H537 H 0.06819 0.81641 0.04091 0.0
H538 H 0.09849 0.80805 0.0853 0.0
H539 H 0.07938 0.8399 0.0891 0.0
H540 H 0.12203 0.82313 0.12428 0.0
H541 H 0.13369 0.83164 0.10571 0.0
H542 H 0.11744 0.80987 0.10547 0.0
H543 H 0.08952 0.8627 0.10886 0.0
H544 H 0.11133 0.87277 0.11207 0.0
H545 H 0.09767 0.86026 0.12807 0.0
H546 H 0.05041 0.79588 0.21274 0.0
H547 H 0.07892 0.8064 0.21719 0.0
H548 H 0.07408 0.84903 0.22073 0.0
H549 H 0.10858 0.81961 0.18811 0.0
H550 H 0.10271 0.80811 0.20706 0.0
H551 H 0.12107 0.82878 0.20673 0.0
H552 H 0.09273 0.87446 0.20833 0.0
H553 H 0.10539 0.87378 0.19193 0.0
H554 H 0.11313 0.87953 0.21312 0.0
H555 H 0.20063 0.93903 0.2477 0.0
H556 H 0.22409 0.96436 0.23468 0.0
H557 H 0.21068 0.94904 0.21888 0.0
H558 H 0.2299 0.95118 0.2237 0.0
H559 H 0.19731 0.89291 0.22581 0.0
H560 H 0.18296 0.92886 0.22566 0.0
H561 H 0.17217 0.86655 0.19343 0.0
H562 H 0.15959 0.85786 0.21137 0.0
H563 H 0.18123 0.86588 0.21289 0.0
H564 H 0.15961 0.9239 0.21142 0.0
H565 H 0.14301 0.90228 0.21192 0.0
H566 H 0.15417 0.91004 0.19299 0.0
H567 H 0.13956 0.86485 0.10226 0.0
H568 H 0.09744 0.83421 0.14213 0.0
H569 H 0.09575 0.83539 0.17217 0.0
H570 H 0.13382 0.8676 0.21758 0.0
H571 H 0.17613 0.89735 0.17754 0.0
H572 H 0.17753 0.89683 0.14749 0.0
H573 H 0.02887 0.80243 0.23637 0.0
H574 H 0.02209 0.78427 0.22228 0.0
H575 H 0.03045 0.80466 0.21394 0.0
C576 C 0.28771 0.09858 0.95947 0.0
C577 C 0.2948 0.09368 0.94468 0.0
C578 C 0.29997 0.11508 0.92456 0.0
C579 C 0.28352 0.10827 0.91974 0.0
C580 C 0.27914 0.11691 0.90925 0.0
C581 C 0.29139 0.1327 0.90354 0.0
C582 C 0.30797 0.13942 0.90804 0.0
C583 C 0.31204 0.13043 0.9184 0.0
C584 C 0.26135 0.10931 0.90454 0.0
C585 C 0.32133 0.15627 0.90223 0.0
C586 C 0.24849 0.20065 0.96454 0.0
C587 C 0.26254 0.20275 0.95371 0.0
C588 C 0.26184 0.18866 0.92717 0.0
C589 C 0.27849 0.19436 0.9259 0.0
C590 C 0.28367 0.18607 0.91501 0.0
C591 C 0.27187 0.17146 0.90562 0.0
C592 C 0.25503 0.16561 0.90707 0.0
C593 C 0.2503 0.17462 0.91747 0.0
C594 C 0.30174 0.19288 0.91364 0.0
C595 C 0.24194 0.1497 0.89792 0.0
C596 C 0.25586 0.18583 0.79848 0.0
C597 C 0.27232 0.19449 0.80384 0.0
C598 C 0.27876 0.18607 0.81162 0.0
C599 C 0.26842 0.16874 0.81439 0.0
C600 C 0.25195 0.15994 0.80856 0.0
C601 C 0.24597 0.16859 0.80043 0.0
C602 C 0.29655 0.19571 0.81703 0.0
C603 C 0.24056 0.14145 0.81118 0.0
C604 C 0.29859 0.07639 0.76906 0.0
C605 C 0.29144 0.08259 0.78172 0.0
C606 C 0.29549 0.10924 0.79263 0.0
C607 C 0.30676 0.12648 0.79458 0.0
C608 C 0.30324 0.13682 0.80442 0.0
C609 C 0.28788 0.12972 0.81223 0.0
C610 C 0.27622 0.11231 0.80998 0.0
C611 C 0.28021 0.1022 0.80037 0.0
C612 C 0.31597 0.15531 0.80655 0.0
C613 C 0.25953 0.10438 0.81774 0.0
C614 C 0.2867 0.14268 0.89388 0.0
C615 C 0.28199 0.15236 0.903 0.0
C616 C 0.27711 0.16191 0.89494 0.0
C617 C 0.2769 0.16187 0.87719 0.0
C618 C 0.27222 0.17145 0.86863 0.0
C619 C 0.27136 0.17074 0.85118 0.0
C620 C 0.27558 0.16078 0.84156 0.0
C621 C 0.27461 0.15988 0.8238 0.0
C622 C 0.27885 0.1498 0.81467 0.0
C623 C 0.28403 0.1405 0.82277 0.0
C624 C 0.28513 0.14128 0.84052 0.0
C625 C 0.29038 0.13216 0.84908 0.0
C626 C 0.29094 0.13261 0.86655 0.0
C627 C 0.28643 0.14234 0.87613 0.0
C628 C 0.28143 0.15191 0.86776 0.0
C629 C 0.28078 0.15138 0.84993 0.0
C630 C 0.23816 0.21085 0.79511 0.0
C631 C 0.25359 0.21011 0.7947 0.0
O632 O 0.30474 0.1075 0.93525 0.0
O633 O 0.29981 0.09995 0.78313 0.0
O634 O 0.2491 0.19364 0.79135 0.0
O635 O 0.25652 0.19645 0.93759 0.0
H636 H 0.2846 0.08372 0.93662 0.0
H637 H 0.27989 0.10301 0.95488 0.0
H638 H 0.29769 0.10879 0.96752 0.0
H639 H 0.28003 0.08758 0.9672 0.0
H640 H 0.27397 0.09634 0.92421 0.0
H641 H 0.32469 0.13557 0.92208 0.0
H642 H 0.25698 0.11711 0.91034 0.0
H643 H 0.25346 0.09631 0.90876 0.0
H644 H 0.25993 0.1092 0.89071 0.0
H645 H 0.33365 0.15974 0.90678 0.0
H646 H 0.31899 0.16608 0.9068 0.0
H647 H 0.32128 0.15614 0.88829 0.0
H648 H 0.26701 0.19521 0.95928 0.0
H649 H 0.25277 0.20505 0.97774 0.0
H650 H 0.23853 0.18721 0.96449 0.0
H651 H 0.24347 0.20789 0.95958 0.0
H652 H 0.28748 0.2054 0.93322 0.0
H653 H 0.23748 0.17038 0.91856 0.0
H654 H 0.30513 0.19306 0.90027 0.0
H655 H 0.30469 0.18461 0.92015 0.0
H656 H 0.30935 0.20576 0.91941 0.0
H657 H 0.22961 0.14509 0.90309 0.0
H658 H 0.24461 0.13965 0.89866 0.0
H659 H 0.24161 0.1521 0.88447 0.0
H660 H 0.25946 0.21447 0.80743 0.0
H661 H 0.28016 0.20777 0.80188 0.0
H662 H 0.23335 0.162 0.79602 0.0
H663 H 0.29749 0.19701 0.83095 0.0
H664 H 0.30344 0.20844 0.81197 0.0
H665 H 0.30242 0.18879 0.81281 0.0
H666 H 0.22779 0.13675 0.80708 0.0
H667 H 0.24059 0.13891 0.82466 0.0
H668 H 0.24492 0.13429 0.80396 0.0
H669 H 0.28887 0.0767 0.79414 0.0
H670 H 0.2801 0.06391 0.7506 0.0
H671 H 0.3032 0.06981 0.77655 0.0
H672 H 0.31117 0.08734 0.76631 0.0
H673 H 0.31847 0.13179 0.7885 0.0
H674 H 0.27132 0.08887 0.79885 0.0
H675 H 0.31821 0.15917 0.82011 0.0
H676 H 0.3114 0.16257 0.80069 0.0
H677 H 0.32776 0.15865 0.80073 0.0
H678 H 0.25122 0.09114 0.81319 0.0
H679 H 0.2538 0.11157 0.81487 0.0
H680 H 0.26082 0.10469 0.8316 0.0
H681 H 0.28199 0.15233 0.91662 0.0
H682 H 0.26899 0.17947 0.87534 0.0
H683 H 0.26734 0.17814 0.84532 0.0
H684 H 0.27793 0.14904 0.80106 0.0
H685 H 0.29401 0.12447 0.84237 0.0
H686 H 0.29491 0.1252 0.87247 0.0
H687 H 0.23153 0.20645 0.7828 0.0
H688 H 0.24136 0.22388 0.79811 0.0
H689 H 0.22987 0.20269 0.80495 0.0
C690 C 0.77958 0.0453 0.93307 0.0
C691 C 0.77914 0.06093 0.93807 0.0
C692 C 0.79227 0.08122 0.91594 0.0
C693 C 0.78957 0.09044 0.90462 0.0
C694 C 0.80258 0.10358 0.89619 0.0
C695 C 0.81866 0.10717 0.89876 0.0
C696 C 0.82146 0.09765 0.90995 0.0
C697 C 0.80827 0.08488 0.91856 0.0
C698 C 0.79912 0.1137 0.8847 0.0
C699 C 0.83841 0.10102 0.9129 0.0
C700 C 0.91652 0.22426 0.95648 0.0
C701 C 0.90701 0.20727 0.94805 0.0
C702 C 0.88546 0.19176 0.92665 0.0
C703 C 0.88891 0.17915 0.92365 0.0
C704 C 0.87958 0.16583 0.91196 0.0
C705 C 0.86643 0.16497 0.90323 0.0
C706 C 0.86302 0.1777 0.90607 0.0
C707 C 0.87266 0.191 0.91772 0.0
C708 C 0.88361 0.1525 0.90914 0.0
C709 C 0.84905 0.1771 0.89698 0.0
C710 C 0.90247 0.18964 0.79648 0.0
C711 C 0.90717 0.18006 0.80504 0.0
C712 C 0.89554 0.16577 0.81337 0.0
C713 C 0.87899 0.16116 0.8134 0.0
C714 C 0.87425 0.17076 0.80475 0.0
C715 C 0.88606 0.18481 0.7963 0.0
C716 C 0.90093 0.1556 0.8222 0.0
C717 C 0.85671 0.16623 0.80451 0.0
C718 C 0.78117 0.02614 0.78907 0.0
C719 C 0.78649 0.04455 0.78856 0.0
C720 C 0.81331 0.06998 0.79391 0.0
C721 C 0.82944 0.07515 0.79795 0.0
C722 C 0.83994 0.09066 0.80641 0.0
C723 C 0.83422 0.10141 0.81047 0.0
C724 C 0.81825 0.09672 0.80537 0.0
C725 C 0.80788 0.08096 0.79732 0.0
C726 C 0.85693 0.09532 0.81152 0.0
C727 C 0.81197 0.10817 0.80881 0.0
C728 C 0.83258 0.1212 0.89013 0.0
C729 C 0.84254 0.1362 0.89943 0.0
C730 C 0.85562 0.1501 0.89206 0.0
C731 C 0.85854 0.14933 0.87475 0.0
C732 C 0.8711 0.16333 0.86675 0.0
C733 C 0.87371 0.16245 0.84963 0.0
C734 C 0.86409 0.14743 0.83995 0.0
C735 C 0.8666 0.14639 0.82254 0.0
C736 C 0.85681 0.13124 0.81332 0.0
C737 C 0.8445 0.117 0.82101 0.0
C738 C 0.84181 0.11779 0.8384 0.0
C739 C 0.82962 0.10365 0.84657 0.0
C740 C 0.82663 0.1047 0.86352 0.0
C741 C 0.83582 0.11989 0.873 0.0
C742 C 0.84863 0.13411 0.86521 0.0
C743 C 0.85154 0.1331 0.84784 0.0
C744 C 0.93817 0.22508 0.77645 0.0
C745 C 0.93015 0.21131 0.78837 0.0
O746 O 0.7791 0.06891 0.92389 0.0
O747 O 0.80332 0.05431 0.78691 0.0
O748 O 0.91326 0.20351 0.7882 0.0
O749 O 0.89414 0.20477 0.93802 0.0
H750 H 0.79008 0.06956 0.94614 0.0
H751 H 0.79093 0.04881 0.92622 0.0
H752 H 0.76896 0.03649 0.92476 0.0
H753 H 0.77931 0.03876 0.94445 0.0
H754 H 0.77719 0.0875 0.90265 0.0
H755 H 0.81058 0.07778 0.92717 0.0
H756 H 0.80774 0.12732 0.88752 0.0
H757 H 0.78639 0.11079 0.88584 0.0
H758 H 0.80095 0.11098 0.87148 0.0
H759 H 0.83818 0.0909 0.91979 0.0
H760 H 0.84581 0.11299 0.9204 0.0
H761 H 0.84463 0.10235 0.90077 0.0
H762 H 0.90345 0.19664 0.95633 0.0
H763 H 0.93968 0.23506 0.94562 0.0
H764 H 0.91457 0.22203 0.9703 0.0
H765 H 0.90874 0.22984 0.95568 0.0
H766 H 0.89877 0.17953 0.93045 0.0
H767 H 0.87012 0.20079 0.92006 0.0
H768 H 0.87325 0.14031 0.91323 0.0
H769 H 0.89485 0.15551 0.91613 0.0
H770 H 0.88533 0.15095 0.89554 0.0
H771 H 0.84825 0.18821 0.90026 0.0
H772 H 0.83733 0.16561 0.90017 0.0
H773 H 0.85055 0.17643 0.8832 0.0
H774 H 0.93561 0.21449 0.80131 0.0
H775 H 0.91984 0.18362 0.80518 0.0
H776 H 0.88256 0.19223 0.7896 0.0
H777 H 0.89929 0.15639 0.83593 0.0
H778 H 0.91397 0.16004 0.8199 0.0
H779 H 0.8932 0.1422 0.81793 0.0
H780 H 0.85521 0.17558 0.7981 0.0
H781 H 0.85227 0.16524 0.81756 0.0
H782 H 0.84886 0.1538 0.79792 0.0
H783 H 0.783 0.04779 0.80084 0.0
H784 H 0.76768 0.01809 0.79044 0.0
H785 H 0.78713 0.0244 0.79998 0.0
H786 H 0.78472 0.02203 0.77743 0.0
H787 H 0.83357 0.06668 0.79503 0.0
H788 H 0.79557 0.07727 0.79378 0.0
H789 H 0.85869 0.09788 0.82532 0.0
H790 H 0.86613 0.10697 0.80543 0.0
H791 H 0.8593 0.08529 0.80796 0.0
H792 H 0.8005 0.10399 0.80162 0.0
H793 H 0.82133 0.12119 0.80558 0.0
H794 H 0.80945 0.10836 0.8224 0.0
H795 H 0.84019 0.13702 0.91266 0.0
H796 H 0.87891 0.17517 0.8736 0.0
H797 H 0.8834 0.17369 0.8441 0.0
H798 H 0.8587 0.13059 0.79994 0.0
H799 H 0.82214 0.09161 0.83994 0.0
H800 H 0.81701 0.09345 0.86911 0.0
H801 H 0.94864 0.21657 0.75884 0.0
H802 H 0.94569 0.23678 0.78468 0.0
H803 H 0.92883 0.22817 0.77288 0.0
C804 C 0.77984 0.7049 0.95167 0.0
C805 C 0.79499 0.71428 0.94177 0.0
C806 C 0.81613 0.7104 0.92958 0.0
C807 C 0.82549 0.72634 0.92289 0.0
C808 C 0.83901 0.73046 0.91282 0.0
C809 C 0.84288 0.71819 0.90888 0.0
C810 C 0.83322 0.70201 0.9153 0.0
C811 C 0.82013 0.69844 0.92579 0.0
C812 C 0.84932 0.74801 0.90666 0.0
C813 C 0.83684 0.68853 0.91137 0.0
C814 C 0.93199 0.74549 0.97776 0.0
C815 C 0.92667 0.73245 0.96319 0.0
C816 C 0.92264 0.73792 0.93484 0.0
C817 C 0.9112 0.72166 0.92857 0.0
C818 C 0.89994 0.71893 0.91587 0.0
C819 C 0.89992 0.73276 0.90962 0.0
C820 C 0.91207 0.74926 0.91531 0.0
C821 C 0.92351 0.75163 0.92768 0.0
C822 C 0.88757 0.70121 0.90972 0.0
C823 C 0.9124 0.76431 0.90904 0.0
C824 C 0.93203 0.75005 0.80181 0.0
C825 C 0.92161 0.73326 0.80598 0.0
C826 C 0.90687 0.72807 0.81425 0.0
C827 C 0.90266 0.73998 0.81872 0.0
C828 C 0.91296 0.7568 0.81414 0.0
C829 C 0.9274 0.76153 0.80551 0.0
C830 C 0.89588 0.70989 0.81834 0.0
C831 C 0.90883 0.76984 0.81853 0.0
C832 C 0.79309 0.73399 0.81054 0.0
C833 C 0.79974 0.73249 0.79346 0.0
C834 C 0.81852 0.72363 0.80174 0.0
C835 C 0.82025 0.70987 0.80247 0.0
C836 C 0.83368 0.71118 0.81083 0.0
C837 C 0.84571 0.7267 0.8186 0.0
C838 C 0.84428 0.74081 0.81757 0.0
C839 C 0.83073 0.73916 0.80915 0.0
C840 C 0.83486 0.69591 0.81166 0.0
C841 C 0.85698 0.75761 0.8256 0.0
C842 C 0.85756 0.72251 0.89888 0.0
C843 C 0.87153 0.72573 0.90757 0.0
C844 C 0.88585 0.72981 0.89917 0.0
C845 C 0.8864 0.73093 0.88151 0.0
C846 C 0.90061 0.7351 0.87262 0.0
C847 C 0.90109 0.7365 0.85527 0.0
C848 C 0.8873 0.73351 0.8461 0.0
C849 C 0.88767 0.73497 0.82846 0.0
C850 C 0.87384 0.73229 0.81983 0.0
C851 C 0.85952 0.72813 0.82832 0.0
C852 C 0.85879 0.72623 0.84587 0.0
C853 C 0.84444 0.72162 0.85472 0.0
C854 C 0.84392 0.72013 0.87204 0.0
C855 C 0.85781 0.72346 0.88122 0.0
C856 C 0.87233 0.72782 0.87252 0.0
C857 C 0.87278 0.72911 0.85481 0.0
C858 C 0.97418 0.76308 0.79566 0.0
C859 C 0.95618 0.74883 0.79529 0.0
O860 O 0.80336 0.70611 0.93989 0.0
O861 O 0.80486 0.72127 0.79398 0.0
O862 O 0.94656 0.75562 0.79419 0.0
O863 O 0.93241 0.74061 0.94829 0.0
H864 H 0.80301 0.72783 0.94563 0.0
H865 H 0.78085 0.6953 0.95859 0.0
H866 H 0.76104 0.69838 0.93417 0.0
H867 H 0.78208 0.71321 0.9632 0.0
H868 H 0.82256 0.73575 0.92577 0.0
H869 H 0.81284 0.68619 0.93101 0.0
H870 H 0.86249 0.75318 0.90931 0.0
H871 H 0.84596 0.75663 0.91259 0.0
H872 H 0.84767 0.74772 0.89286 0.0
H873 H 0.82642 0.6759 0.9144 0.0
H874 H 0.84766 0.69124 0.91893 0.0
H875 H 0.83976 0.68832 0.89789 0.0
H876 H 0.91301 0.72502 0.96308 0.0
H877 H 0.92764 0.7392 0.98986 0.0
H878 H 0.92661 0.75321 0.97596 0.0
H879 H 0.94553 0.75397 0.97843 0.0
H880 H 0.91087 0.7111 0.9339 0.0
H881 H 0.93255 0.76415 0.93253 0.0
H882 H 0.88583 0.7005 0.89588 0.0
H883 H 0.87562 0.69711 0.91556 0.0
H884 H 0.89129 0.69236 0.91306 0.0
H885 H 0.92259 0.77629 0.9148 0.0
H886 H 0.90065 0.76333 0.91191 0.0
H887 H 0.91371 0.76463 0.8952 0.0
H888 H 0.95393 0.74246 0.80738 0.0
H889 H 0.92489 0.72417 0.80269 0.0
H890 H 0.93543 0.7744 0.80202 0.0
H891 H 0.89602 0.70871 0.83213 0.0
H892 H 0.8998 0.70185 0.81214 0.0
H893 H 0.88306 0.70514 0.81439 0.0
H894 H 0.91893 0.78268 0.81562 0.0
H895 H 0.90606 0.76968 0.83209 0.0
H896 H 0.89773 0.76686 0.81132 0.0
H897 H 0.81022 0.74501 0.79017 0.0
H898 H 0.78873 0.74274 0.80999 0.0
H899 H 0.80278 0.73893 0.82045 0.0
H900 H 0.78277 0.72154 0.8142 0.0
H901 H 0.81086 0.69797 0.79666 0.0
H902 H 0.82976 0.75003 0.8086 0.0
H903 H 0.8349 0.69292 0.82498 0.0
H904 H 0.84657 0.69856 0.80618 0.0
H905 H 0.82458 0.68476 0.80484 0.0
H906 H 0.85453 0.76757 0.82303 0.0
H907 H 0.8693 0.76145 0.82091 0.0
H908 H 0.85724 0.75657 0.83941 0.0
H909 H 0.87124 0.72501 0.92114 0.0
H910 H 0.91155 0.73746 0.87903 0.0
H911 H 0.91245 0.73996 0.84914 0.0
H912 H 0.87431 0.73375 0.80637 0.0
H913 H 0.83341 0.71909 0.84836 0.0
H914 H 0.83252 0.71648 0.87817 0.0
H915 H 0.97727 0.77017 0.784 0.0
H916 H 0.98221 0.75803 0.79687 0.0
H917 H 0.97665 0.77185 0.8066 0.0
C918 C 0.85859 0.61766 0.37671 0.0
C919 C 0.87019 0.62826 0.39141 0.0
C920 C 0.85626 0.61913 0.41785 0.0
C921 C 0.85989 0.63437 0.42563 0.0
C922 C 0.84942 0.63485 0.43757 0.0
C923 C 0.83492 0.61977 0.44166 0.0
C924 C 0.83158 0.60429 0.43436 0.0
C925 C 0.8425 0.60417 0.42271 0.0
C926 C 0.85357 0.65155 0.4454 0.0
C927 C 0.81618 0.58799 0.43835 0.0
C928 C 0.74093 0.6395 0.39712 0.0
C929 C 0.74982 0.63189 0.40361 0.0
C930 C 0.77136 0.6381 0.424 0.0
C931 C 0.76714 0.62139 0.42481 0.0
C932 C 0.77634 0.61729 0.43475 0.0
C933 C 0.79019 0.63017 0.44387 0.0
C934 C 0.79447 0.647 0.44312 0.0
C935 C 0.78488 0.6507 0.43329 0.0
C936 C 0.7714 0.59921 0.43534 0.0
C937 C 0.80933 0.66107 0.45246 0.0
C938 C 0.76209 0.62387 0.55259 0.0
C939 C 0.75676 0.60826 0.54434 0.0
C940 C 0.7677 0.60565 0.53507 0.0
C941 C 0.78422 0.61894 0.53387 0.0
C942 C 0.78965 0.63456 0.54233 0.0
C943 C 0.77851 0.63676 0.55165 0.0
C944 C 0.76159 0.58876 0.52639 0.0
C945 C 0.80717 0.64899 0.54132 0.0
C946 C 0.87663 0.58335 0.54746 0.0
C947 C 0.87292 0.59717 0.54975 0.0
C948 C 0.84696 0.59536 0.54571 0.0
C949 C 0.83048 0.58361 0.54201 0.0
C950 C 0.82051 0.58835 0.53454 0.0
C951 C 0.82716 0.60539 0.53116 0.0
C952 C 0.8436 0.61752 0.53581 0.0
C953 C 0.8534 0.61235 0.54289 0.0
C954 C 0.80299 0.5751 0.52989 0.0
C955 C 0.85091 0.63589 0.53303 0.0
C956 C 0.82257 0.62049 0.4522 0.0
C957 C 0.81228 0.62449 0.44432 0.0
C958 C 0.80072 0.6261 0.45335 0.0
C959 C 0.79932 0.62371 0.47081 0.0
C960 C 0.7879 0.62537 0.4803 0.0
C961 C 0.78678 0.6232 0.49753 0.0
C962 C 0.79684 0.619 0.50587 0.0
C963 C 0.79573 0.61669 0.52336 0.0
C964 C 0.80582 0.6124 0.53123 0.0
C965 C 0.8171 0.61036 0.5221 0.0
C966 C 0.8185 0.61277 0.50461 0.0
C967 C 0.8298 0.61093 0.49503 0.0
C968 C 0.83128 0.61361 0.4779 0.0
C969 C 0.82125 0.61784 0.46961 0.0
C970 C 0.80962 0.61953 0.47896 0.0
C971 C 0.80832 0.6171 0.49649 0.0
C972 C 0.72668 0.61749 0.54677 0.0
C973 C 0.73511 0.61712 0.56283 0.0
O974 O 0.86567 0.6186 0.40543 0.0
O975 O 0.85625 0.58983 0.55189 0.0
O976 O 0.75197 0.62717 0.56149 0.0
O977 O 0.7628 0.64257 0.41442 0.0
H978 H 0.86859 0.63906 0.39349 0.0
H979 H 0.84593 0.6142 0.37973 0.0
H980 H 0.85845 0.60588 0.37445 0.0
H981 H 0.86222 0.62488 0.36512 0.0
H982 H 0.87081 0.64593 0.42224 0.0
H983 H 0.83994 0.59245 0.41675 0.0
H984 H 0.84505 0.65491 0.44034 0.0
H985 H 0.8663 0.66173 0.44274 0.0
H986 H 0.85203 0.65075 0.45921 0.0
H987 H 0.81528 0.57705 0.43142 0.0
H988 H 0.8053 0.58852 0.4351 0.0
H989 H 0.81585 0.58607 0.45202 0.0
H990 H 0.75308 0.6253 0.39393 0.0
H991 H 0.71758 0.62516 0.4074 0.0
H992 H 0.743 0.64008 0.38318 0.0
H993 H 0.74911 0.65346 0.39965 0.0
H994 H 0.75671 0.61146 0.4177 0.0
H995 H 0.78804 0.66355 0.4326 0.0
H996 H 0.78084 0.5976 0.42916 0.0
H997 H 0.75942 0.5905 0.42893 0.0
H998 H 0.77066 0.59567 0.44859 0.0
H999 H 0.81136 0.67355 0.45005 0.0
H1000 H 0.82039 0.66099 0.4487 0.0
H1001 H 0.80786 0.65917 0.46616 0.0
H1002 H 0.7315 0.60401 0.56497 0.0
H1003 H 0.74412 0.59809 0.54496 0.0
H1004 H 0.78253 0.64872 0.55811 0.0
H1005 H 0.76225 0.59003 0.51257 0.0
H1006 H 0.74875 0.57932 0.52961 0.0
H1007 H 0.76952 0.58406 0.52988 0.0
H1008 H 0.80936 0.66049 0.54825 0.0
H1009 H 0.81046 0.65187 0.52798 0.0
H1010 H 0.81545 0.64542 0.54663 0.0
H1011 H 0.87669 0.6042 0.53797 0.0
H1012 H 0.88993 0.5889 0.54548 0.0
H1013 H 0.86982 0.57512 0.53629 0.0
H1014 H 0.87289 0.57556 0.55866 0.0
H1015 H 0.82558 0.57057 0.54447 0.0
H1016 H 0.86605 0.6216 0.54623 0.0
H1017 H 0.80068 0.5755 0.51634 0.0
H1018 H 0.79462 0.57766 0.53711 0.0
H1019 H 0.79996 0.56228 0.53251 0.0
H1020 H 0.86301 0.64392 0.53947 0.0
H1021 H 0.84253 0.63985 0.53764 0.0
H1022 H 0.85251 0.63802 0.51938 0.0
H1023 H 0.81335 0.62648 0.43094 0.0
H1024 H 0.77979 0.62848 0.47454 0.0
H1025 H 0.77786 0.62479 0.5042 0.0
H1026 H 0.80486 0.61061 0.54465 0.0
H1027 H 0.83773 0.60751 0.50068 0.0
H1028 H 0.8403 0.61221 0.47121 0.0
H1029 H 0.73026 0.63053 0.54436 0.0
H1030 H 0.71316 0.60959 0.54792 0.0
H1031 H 0.73018 0.6125 0.5358 0.0
C1032 C 0.37656 0.24629 0.37977 0.0
C1033 C 0.3677 0.24613 0.39583 0.0
C1034 C 0.37968 0.24416 0.42171 0.0
C1035 C 0.36555 0.23174 0.42951 0.0
C1036 C 0.36652 0.22175 0.44143 0.0
C1037 C 0.38194 0.22433 0.44564 0.0
C1038 C 0.39629 0.23752 0.43853 0.0
C1039 C 0.39497 0.24742 0.42675 0.0
C1040 C 0.35102 0.2081 0.44913 0.0
C1041 C 0.41293 0.2407 0.44288 0.0
C1042 C 0.3685 0.10764 0.40015 0.0
C1043 C 0.37612 0.12509 0.40725 0.0
C1044 C 0.37027 0.14109 0.42791 0.0
C1045 C 0.38622 0.1554 0.42858 0.0
C1046 C 0.38985 0.16978 0.4383 0.0
C1047 C 0.37727 0.1699 0.44737 0.0
C1048 C 0.36122 0.15549 0.44675 0.0
C1049 C 0.35799 0.14122 0.43714 0.0
C1050 C 0.40711 0.1849 0.43878 0.0
C1051 C 0.34742 0.15526 0.45603 0.0
C1052 C 0.38487 0.15379 0.55652 0.0
C1053 C 0.40043 0.16739 0.55254 0.0
C1054 C 0.40204 0.18053 0.54328 0.0
C1055 C 0.38785 0.18008 0.53797 0.0
C1056 C 0.3722 0.16654 0.5422 0.0
C1057 C 0.37094 0.15355 0.55137 0.0
C1058 C 0.41889 0.1948 0.53896 0.0
C1059 C 0.3568 0.16572 0.53689 0.0
C1060 C 0.39555 0.29882 0.54491 0.0
C1061 C 0.38743 0.28397 0.55646 0.0
C1062 C 0.39601 0.26393 0.55207 0.0
C1063 C 0.41002 0.26396 0.54751 0.0
C1064 C 0.40883 0.24975 0.53962 0.0
C1065 C 0.39322 0.23514 0.53642 0.0
C1066 C 0.37903 0.23474 0.5418 0.0
C1067 C 0.38057 0.24911 0.54967 0.0
C1068 C 0.42421 0.25045 0.53434 0.0
C1069 C 0.36221 0.21919 0.53899 0.0
C1070 C 0.38285 0.2122 0.45613 0.0
C1071 C 0.38054 0.19768 0.44798 0.0
C1072 C 0.38069 0.18533 0.4569 0.0
C1073 C 0.38337 0.18752 0.47449 0.0
C1074 C 0.38376 0.17542 0.48382 0.0
C1075 C 0.38585 0.17741 0.5012 0.0
C1076 C 0.38769 0.19163 0.5099 0.0
C1077 C 0.38926 0.1935 0.52761 0.0
C1078 C 0.39133 0.2079 0.53585 0.0
C1079 C 0.39164 0.22048 0.52686 0.0
C1080 C 0.38981 0.21871 0.50916 0.0
C1081 C 0.38974 0.23098 0.49975 0.0
C1082 C 0.38753 0.22893 0.48237 0.0
C1083 C 0.38538 0.21457 0.47373 0.0
C1084 C 0.38561 0.20214 0.48294 0.0
C1085 C 0.3878 0.20421 0.50067 0.0
C1086 C 0.38835 0.12419 0.5826 0.0
C1087 C 0.39485 0.13878 0.57172 0.0
O1088 O 0.37888 0.253 0.40916 0.0
O1089 O 0.39788 0.27833 0.55887 0.0
O1090 O 0.38268 0.14068 0.5652 0.0
O1091 O 0.36617 0.12698 0.41854 0.0
H1092 H 0.35825 0.23272 0.39773 0.0
H1093 H 0.38179 0.23838 0.38116 0.0
H1094 H 0.38671 0.25921 0.37721 0.0
H1095 H 0.36785 0.24113 0.36888 0.0
H1096 H 0.35375 0.22972 0.42615 0.0
H1097 H 0.40582 0.25727 0.42087 0.0
H1098 H 0.34862 0.19568 0.44461 0.0
H1099 H 0.34024 0.2088 0.44586 0.0
H1100 H 0.35247 0.20893 0.46301 0.0
H1101 H 0.42296 0.25184 0.43675 0.0
H1102 H 0.41345 0.22957 0.43888 0.0
H1103 H 0.41502 0.2426 0.45669 0.0
H1104 H 0.38159 0.13504 0.39787 0.0
H1105 H 0.38361 0.09988 0.4093 0.0
H1106 H 0.36685 0.10854 0.38635 0.0
H1107 H 0.35504 0.10099 0.40289 0.0
H1108 H 0.39587 0.15543 0.42157 0.0
H1109 H 0.34575 0.13011 0.43657 0.0
H1110 H 0.40734 0.19536 0.4326 0.0
H1111 H 0.41581 0.18231 0.43231 0.0
H1112 H 0.41134 0.18914 0.452 0.0
H1113 H 0.33544 0.14347 0.45334 0.0
H1114 H 0.34654 0.16602 0.45251 0.0
H1115 H 0.34996 0.1566 0.46975 0.0
H1116 H 0.40374 0.13973 0.56213 0.0
H1117 H 0.41133 0.16778 0.55653 0.0
H1118 H 0.35901 0.14305 0.55456 0.0
H1119 H 0.41989 0.19581 0.52512 0.0
H1120 H 0.42873 0.19318 0.54374 0.0
H1121 H 0.42085 0.20679 0.54439 0.0
H1122 H 0.34564 0.15495 0.54218 0.0
H1123 H 0.35561 0.16452 0.52298 0.0
H1124 H 0.35751 0.17749 0.541 0.0
H1125 H 0.376 0.27436 0.54963 0.0
H1126 H 0.38821 0.3047 0.54419 0.0
H1127 H 0.39633 0.29432 0.53204 0.0
H1128 H 0.4082 0.30836 0.54931 0.0
H1129 H 0.4219 0.27533 0.54974 0.0
H1130 H 0.3697 0.24864 0.55398 0.0
H1131 H 0.42413 0.24875 0.52047 0.0
H1132 H 0.4246 0.24003 0.53983 0.0
H1133 H 0.43546 0.26252 0.53832 0.0
H1134 H 0.3524 0.22078 0.5442 0.0
H1135 H 0.36164 0.20846 0.54495 0.0
H1136 H 0.35981 0.21596 0.52533 0.0
H1137 H 0.37836 0.19584 0.43449 0.0
H1138 H 0.38234 0.1642 0.47781 0.0
H1139 H 0.38593 0.16762 0.50774 0.0
H1140 H 0.3924 0.20919 0.54945 0.0
H1141 H 0.39128 0.24226 0.50572 0.0
H1142 H 0.38747 0.2387 0.47578 0.0
H1143 H 0.39134 0.11545 0.57585 0.0
H1144 H 0.37479 0.11603 0.57984 0.0
H1145 H 0.39798 0.13516 0.60647 0.0
C1146 C 0.86871 0.24849 0.38009 0.0
C1147 C 0.88109 0.25732 0.3947 0.0
C1148 C 0.86704 0.23694 0.41667 0.0
C1149 C 0.85521 0.24094 0.4204 0.0
C1150 C 0.84225 0.23112 0.43112 0.0
C1151 C 0.84099 0.21695 0.43812 0.0
C1152 C 0.85301 0.21306 0.43462 0.0
C1153 C 0.86598 0.22324 0.42408 0.0
C1154 C 0.82975 0.23576 0.43478 0.0
C1155 C 0.85195 0.19793 0.44171 0.0
C1156 C 0.73045 0.13731 0.38015 0.0
C1157 C 0.74175 0.13504 0.39153 0.0
C1158 C 0.755 0.15055 0.41772 0.0
C1159 C 0.76747 0.14717 0.41864 0.0
C1160 C 0.78135 0.15723 0.42899 0.0
C1161 C 0.78293 0.17118 0.43827 0.0
C1162 C 0.77029 0.17455 0.43735 0.0
C1163 C 0.75629 0.16388 0.4274 0.0
C1164 C 0.79436 0.15302 0.4299 0.0
C1165 C 0.77166 0.18958 0.44655 0.0
C1166 C 0.75458 0.15213 0.54388 0.0
C1167 C 0.76609 0.14759 0.54078 0.0
C1168 C 0.78114 0.15878 0.53349 0.0
C1169 C 0.78472 0.17482 0.52931 0.0
C1170 C 0.77356 0.17976 0.53339 0.0
C1171 C 0.75866 0.16836 0.54079 0.0
C1172 C 0.793 0.15332 0.52975 0.0
C1173 C 0.77712 0.19687 0.52937 0.0
C1174 C 0.89572 0.28701 0.54852 0.0
C1175 C 0.889 0.27427 0.56241 0.0
C1176 C 0.87078 0.24704 0.54734 0.0
C1177 C 0.86884 0.23165 0.54257 0.0
C1178 C 0.85479 0.2191 0.53373 0.0
C1179 C 0.84243 0.22214 0.52944 0.0
C1180 C 0.84422 0.23763 0.53431 0.0
C1181 C 0.85835 0.24992 0.54324 0.0
C1182 C 0.85321 0.20268 0.52882 0.0
C1183 C 0.83125 0.24125 0.52989 0.0
C1184 C 0.8266 0.20567 0.44831 0.0
C1185 C 0.81213 0.19386 0.43972 0.0
C1186 C 0.79807 0.18267 0.44834 0.0
C1187 C 0.79846 0.18304 0.4661 0.0
C1188 C 0.78473 0.17162 0.47518 0.0
C1189 C 0.78503 0.17251 0.49265 0.0
C1190 C 0.79916 0.18471 0.50173 0.0
C1191 C 0.79947 0.1859 0.51949 0.0
C1192 C 0.81375 0.19807 0.52814 0.0
C1193 C 0.82781 0.20928 0.51949 0.0
C1194 C 0.82769 0.2084 0.50171 0.0
C1195 C 0.84154 0.21963 0.49261 0.0
C1196 C 0.84124 0.21875 0.47512 0.0
C1197 C 0.82708 0.20662 0.46607 0.0
C1198 C 0.81296 0.19521 0.47498 0.0
C1199 C 0.81329 0.19607 0.49282 0.0
C1200 C 0.71392 0.11987 0.53737 0.0
C1201 C 0.73012 0.12413 0.54548 0.0
O1202 O 0.87951 0.24572 0.40593 0.0
O1203 O 0.8849 0.25871 0.55558 0.0
O1204 O 0.73943 0.14116 0.54968 0.0
O1205 O 0.74164 0.14124 0.40756 0.0
H1206 H 0.87897 0.26662 0.40128 0.0
H1207 H 0.85601 0.24208 0.38474 0.0
H1208 H 0.87052 0.23898 0.37351 0.0
H1209 H 0.87015 0.25775 0.37096 0.0
H1210 H 0.85588 0.25159 0.41496 0.0
H1211 H 0.87519 0.22029 0.42122 0.0
H1212 H 0.81781 0.22607 0.42891 0.0
H1213 H 0.83339 0.24812 0.42989 0.0
H1214 H 0.82796 0.23612 0.44854 0.0
H1215 H 0.8619 0.19621 0.43719 0.0
H1216 H 0.83997 0.18646 0.43816 0.0
H1217 H 0.85269 0.19927 0.45563 0.0
H1218 H 0.75428 0.14249 0.3863 0.0
H1219 H 0.73058 0.13283 0.36707 0.0
H1220 H 0.73467 0.15081 0.38003 0.0
H1221 H 0.71769 0.13025 0.38474 0.0
H1222 H 0.7663 0.13661 0.41138 0.0
H1223 H 0.74651 0.16628 0.42663 0.0
H1224 H 0.79811 0.15351 0.44317 0.0
H1225 H 0.80534 0.16243 0.42314 0.0
H1226 H 0.79014 0.1404 0.42414 0.0
H1227 H 0.76231 0.19209 0.44209 0.0
H1228 H 0.78399 0.20096 0.44496 0.0
H1229 H 0.7699 0.18734 0.46017 0.0
H1230 H 0.73623 0.12061 0.53575 0.0
H1231 H 0.76329 0.13527 0.5439 0.0
H1232 H 0.74982 0.17184 0.54356 0.0
H1233 H 0.79413 0.15232 0.51594 0.0
H1234 H 0.78903 0.14102 0.53501 0.0
H1235 H 0.80532 0.16286 0.53498 0.0
H1236 H 0.76733 0.19893 0.53368 0.0
H1237 H 0.77841 0.19837 0.5156 0.0
H1238 H 0.7889 0.20671 0.53542 0.0
H1239 H 0.878 0.27364 0.56767 0.0
H1240 H 0.89793 0.29927 0.55339 0.0
H1241 H 0.88676 0.28262 0.53793 0.0
H1242 H 0.90724 0.28865 0.54352 0.0
H1243 H 0.87846 0.22951 0.54578 0.0
H1244 H 0.8596 0.26175 0.54672 0.0
H1245 H 0.85279 0.20104 0.51492 0.0
H1246 H 0.84157 0.19211 0.53357 0.0
H1247 H 0.86354 0.20197 0.53379 0.0
H1248 H 0.83462 0.25407 0.53423 0.0
H1249 H 0.81952 0.23201 0.53568 0.0
H1250 H 0.82918 0.23988 0.51607 0.0
H1251 H 0.81176 0.19348 0.42609 0.0
H1252 H 0.77354 0.16192 0.46888 0.0
H1253 H 0.774 0.16349 0.49893 0.0
H1254 H 0.81388 0.19893 0.54176 0.0
H1255 H 0.85277 0.22927 0.4989 0.0
H1256 H 0.85223 0.22775 0.46878 0.0
H1257 H 0.70608 0.10618 0.5343 0.0
H1258 H 0.71638 0.12658 0.52554 0.0
H1259 H 0.70719 0.12371 0.54583 0.0
C1260 C 0.04243 0.48495 0.29393 0.0
C1261 C 0.02888 0.47124 0.28243 0.0
C1262 C 0.02517 0.47984 0.25527 0.0
C1263 C 0.00804 0.47131 0.25428 0.0
C1264 C 0.00027 0.4766 0.24365 0.0
C1265 C 0.00986 0.49073 0.23388 0.0
C1266 C 0.02714 0.49907 0.23455 0.0
C1267 C 0.03455 0.49331 0.24506 0.0
C1268 C 0.98182 0.46722 0.24298 0.0
C1269 C 0.03778 0.51428 0.22445 0.0
C1270 C 0.95476 0.55871 0.25825 0.0
C1271 C 0.97102 0.56312 0.26634 0.0
C1272 C 0.9834 0.55185 0.24717 0.0
C1273 C 0.99693 0.55659 0.2371 0.0
C1274 C 0.99951 0.54463 0.22932 0.0
C1275 C 0.98797 0.52739 0.23137 0.0
C1276 C 0.97422 0.52243 0.24159 0.0
C1277 C 0.9721 0.53473 0.24949 0.0
C1278 C 0.01455 0.55045 0.21884 0.0
C1279 C 0.96169 0.50415 0.24396 0.0
C1280 C 0.95773 0.52317 0.12529 0.0
C1281 C 0.97399 0.53349 0.13101 0.0
C1282 C 0.98191 0.52669 0.1391 0.0
C1283 C 0.97317 0.50929 0.14196 0.0
C1284 C 0.95693 0.49882 0.13564 0.0
C1285 C 0.94953 0.5059 0.12711 0.0
C1286 C 0.99951 0.53818 0.14484 0.0
C1287 C 0.94723 0.48022 0.13827 0.0
C1288 C 0.0333 0.43579 0.13773 0.0
C1289 C 0.01824 0.43562 0.13155 0.0
C1290 C 0.01497 0.45966 0.13181 0.0
C1291 C 0.02408 0.47715 0.13315 0.0
C1292 C 0.01701 0.48604 0.13907 0.0
C1293 C 0.00034 0.47713 0.14355 0.0
C1294 C 0.99072 0.45949 0.14096 0.0
C1295 C 0.99813 0.4509 0.13506 0.0
C1296 C 0.02754 0.50488 0.14139 0.0
C1297 C 0.9728 0.4497 0.14518 0.0
C1298 C 0.00183 0.4972 0.22353 0.0
C1299 C 0.99752 0.50775 0.23153 0.0
C1300 C 0.9903 0.51467 0.22257 0.0
C1301 C 0.98688 0.51071 0.20519 0.0
C1302 C 0.97893 0.51683 0.19597 0.0
C1303 C 0.97647 0.51366 0.1787 0.0
C1304 C 0.98216 0.50454 0.16992 0.0
C1305 C 0.98068 0.50217 0.1522 0.0
C1306 C 0.98652 0.49304 0.14393 0.0
C1307 C 0.99364 0.48601 0.15292 0.0
C1308 C 0.99505 0.4881 0.17064 0.0
C1309 C 0.00199 0.48102 0.18007 0.0
C1310 C 0.00385 0.48362 0.19743 0.0
C1311 C 0.99915 0.49368 0.206 0.0
C1312 C 0.99174 0.50056 0.1968 0.0
C1313 C 0.98956 0.49765 0.17912 0.0
C1314 C 0.93218 0.53876 0.12686 0.0
C1315 C 0.94981 0.54365 0.12374 0.0
O1316 O 0.03297 0.47532 0.26585 0.0
O1317 O 0.02294 0.45176 0.12766 0.0
O1318 O 0.94968 0.52952 0.1179 0.0
O1319 O 0.98176 0.56425 0.2541 0.0
H1320 H 0.01744 0.47084 0.28564 0.0
H1321 H 0.04369 0.49715 0.29184 0.0
H1322 H 0.05435 0.4862 0.2913 0.0
H1323 H 0.03941 0.482 0.30732 0.0
H1324 H 0.00075 0.46047 0.26174 0.0
H1325 H 0.04777 0.49964 0.24577 0.0
H1326 H 0.97772 0.47542 0.2483 0.0
H1327 H 0.97611 0.45561 0.25014 0.0
H1328 H 0.97736 0.46384 0.22973 0.0
H1329 H 0.05102 0.52005 0.22732 0.0
H1330 H 0.03455 0.52382 0.22699 0.0
H1331 H 0.0356 0.51066 0.21085 0.0
H1332 H 0.96874 0.5533 0.27519 0.0
H1333 H 0.9462 0.55795 0.26808 0.0
H1334 H 0.94895 0.54638 0.25129 0.0
H1335 H 0.95674 0.56832 0.2493 0.0
H1336 H 0.00557 0.56982 0.23541 0.0
H1337 H 0.96151 0.53085 0.25719 0.0
H1338 H 0.01088 0.54729 0.20538 0.0
H1339 H 0.02084 0.54394 0.22228 0.0
H1340 H 0.02337 0.5642 0.22039 0.0
H1341 H 0.95113 0.5023 0.25141 0.0
H1342 H 0.96751 0.49841 0.25051 0.0
H1343 H 0.95711 0.4974 0.23154 0.0
H1344 H 0.95654 0.54845 0.13603 0.0
H1345 H 0.9805 0.54682 0.12907 0.0
H1346 H 0.93705 0.49804 0.12236 0.0
H1347 H 1e-05 0.54072 0.15861 0.0
H1348 H 0.00549 0.55036 0.13866 0.0
H1349 H 0.00662 0.5322 0.14217 0.0
H1350 H 0.93431 0.47408 0.13386 0.0
H1351 H 0.94739 0.47789 0.15179 0.0
H1352 H 0.95296 0.47425 0.13131 0.0
H1353 H 0.00952 0.43124 0.14213 0.0
H1354 H 0.02986 0.42299 0.14101 0.0
H1355 H 0.03858 0.44423 0.14914 0.0
H1356 H 0.04281 0.44036 0.12795 0.0
H1357 H 0.03698 0.48379 0.13025 0.0
H1358 H 0.99081 0.43738 0.13329 0.0
H1359 H 0.02897 0.50852 0.15499 0.0
H1360 H 0.02153 0.51068 0.13533 0.0
H1361 H 0.0399 0.51004 0.13603 0.0
H1362 H 0.96664 0.43628 0.14094 0.0
H1363 H 0.96648 0.45525 0.13928 0.0
H1364 H 0.9715 0.45046 0.15899 0.0
H1365 H 0.0002 0.51095 0.24485 0.0
H1366 H 0.97458 0.52421 0.20201 0.0
H1367 H 0.97029 0.51873 0.1723 0.0
H1368 H 0.98562 0.49148 0.13034 0.0
H1369 H 0.00613 0.47342 0.17415 0.0
H1370 H 0.0093 0.4779 0.204 0.0
H1371 H 0.92476 0.53386 0.11502 0.0
H1372 H 0.9319 0.54976 0.13191 0.0
H1373 H 0.92657 0.52885 0.13619 0.0
C1374 C 0.46487 0.42995 0.29814 0.0
C1375 C 0.45203 0.42716 0.28503 0.0
C1376 C 0.46294 0.42897 0.25726 0.0
C1377 C 0.45983 0.44017 0.24969 0.0
C1378 C 0.47003 0.45045 0.23711 0.0
C1379 C 0.48364 0.44952 0.23213 0.0
C1380 C 0.48628 0.43759 0.23918 0.0
C1381 C 0.47569 0.42725 0.25153 0.0
C1382 C 0.46663 0.46273 0.22958 0.0
C1383 C 0.50072 0.43633 0.23427 0.0
C1384 C 0.58584 0.56985 0.27642 0.0
C1385 C 0.57415 0.55213 0.27063 0.0
C1386 C 0.55483 0.53599 0.24756 0.0
C1387 C 0.55521 0.5214 0.24906 0.0
C1388 C 0.54434 0.50664 0.23968 0.0
C1389 C 0.53247 0.50625 0.229 0.0
C1390 C 0.53185 0.52084 0.22772 0.0
C1391 C 0.54332 0.53563 0.23674 0.0
C1392 C 0.54552 0.49141 0.24128 0.0
C1393 C 0.51897 0.52079 0.21703 0.0
C1394 C 0.56398 0.51823 0.12308 0.0
C1395 C 0.56636 0.50696 0.1317 0.0
C1396 C 0.55337 0.49358 0.13993 0.0
C1397 C 0.53775 0.49156 0.13972 0.0
C1398 C 0.53518 0.50249 0.13052 0.0
C1399 C 0.54833 0.51559 0.12217 0.0
C1400 C 0.55642 0.48185 0.14923 0.0
C1401 C 0.51867 0.50064 0.12995 0.0
C1402 C 0.43148 0.36059 0.1223 0.0
C1403 C 0.43823 0.37916 0.11996 0.0
C1404 C 0.46579 0.40316 0.12665 0.0
C1405 C 0.48133 0.40699 0.13146 0.0
C1406 C 0.49263 0.42246 0.13952 0.0
C1407 C 0.48836 0.43456 0.14242 0.0
C1408 C 0.47288 0.43104 0.13689 0.0
C1409 C 0.46168 0.41531 0.12916 0.0
C1410 C 0.50905 0.42579 0.14515 0.0
C1411 C 0.46814 0.44387 0.13926 0.0
C1412 C 0.49613 0.46232 0.22116 0.0
C1413 C 0.50771 0.4778 0.22882 0.0
C1414 C 0.52037 0.4904 0.2197 0.0
C1415 C 0.52151 0.48758 0.20232 0.0
C1416 C 0.53425 0.49985 0.1928 0.0
C1417 C 0.53513 0.49707 0.17567 0.0
C1418 C 0.52349 0.48176 0.16744 0.0
C1419 C 0.52444 0.47876 0.15006 0.0
C1420 C 0.51272 0.46339 0.14227 0.0
C1421 C 0.50004 0.45077 0.15141 0.0
C1422 C 0.4989 0.45353 0.16883 0.0
C1423 C 0.48639 0.44109 0.17847 0.0
C1424 C 0.48536 0.44396 0.19559 0.0
C1425 C 0.49692 0.45931 0.20376 0.0
C1426 C 0.50966 0.47202 0.1943 0.0
C1427 C 0.51066 0.46911 0.17684 0.0
C1428 C 0.59727 0.54772 0.13686 0.0
C1429 C 0.59304 0.53967 0.11899 0.0
O1430 O 0.45403 0.42001 0.27038 0.0
O1431 O 0.45516 0.38768 0.11959 0.0
O1432 O 0.57638 0.53188 0.11569 0.0
O1433 O 0.56531 0.55058 0.25629 0.0
H1434 H 0.45401 0.43967 0.2827 0.0
H1435 H 0.47733 0.4387 0.29342 0.0
H1436 H 0.46379 0.41793 0.3008 0.0
H1437 H 0.46334 0.43555 0.31001 0.0
H1438 H 0.44958 0.44103 0.25382 0.0
H1439 H 0.4778 0.41837 0.25736 0.0
H1440 H 0.47607 0.47565 0.23415 0.0
H1441 H 0.45439 0.46029 0.233 0.0
H1442 H 0.46737 0.46215 0.21568 0.0
H1443 H 0.50111 0.42647 0.24102 0.0
H1444 H 0.51227 0.44854 0.23702 0.0
H1445 H 0.50018 0.43344 0.22056 0.0
H1446 H 0.56627 0.54361 0.28056 0.0
H1447 H 0.60878 0.57266 0.27383 0.0
H1448 H 0.58111 0.57128 0.28892 0.0
H1449 H 0.58229 0.57774 0.26966 0.0
H1450 H 0.56405 0.52147 0.25738 0.0
H1451 H 0.54309 0.54692 0.23569 0.0
H1452 H 0.535 0.48196 0.24853 0.0
H1453 H 0.55699 0.49452 0.24785 0.0
H1454 H 0.54496 0.48559 0.2287 0.0
H1455 H 0.51848 0.53219 0.21957 0.0
H1456 H 0.50671 0.50956 0.21928 0.0
H1457 H 0.52171 0.52027 0.20356 0.0
H1458 H 0.59667 0.5303 0.11762 0.0
H1459 H 0.57832 0.50859 0.13222 0.0
H1460 H 0.54656 0.52422 0.11533 0.0
H1461 H 0.55588 0.48399 0.16295 0.0
H1462 H 0.56857 0.48375 0.14641 0.0
H1463 H 0.54677 0.46862 0.14593 0.0
H1464 H 0.51873 0.51032 0.12242 0.0
H1465 H 0.51484 0.50159 0.14291 0.0
H1466 H 0.50939 0.48806 0.12445 0.0
H1467 H 0.43435 0.38371 0.13106 0.0
H1468 H 0.41791 0.35348 0.12294 0.0
H1469 H 0.43639 0.35911 0.13422 0.0
H1470 H 0.43508 0.3552 0.11175 0.0
H1471 H 0.48443 0.39759 0.12927 0.0
H1472 H 0.44983 0.41261 0.12498 0.0
H1473 H 0.51113 0.42957 0.15873 0.0
H1474 H 0.5189 0.43633 0.1382 0.0
H1475 H 0.51005 0.41466 0.14297 0.0
H1476 H 0.45637 0.43986 0.13279 0.0
H1477 H 0.47786 0.45604 0.1344 0.0
H1478 H 0.46695 0.44596 0.15286 0.0
H1479 H 0.50699 0.48001 0.24218 0.0
H1480 H 0.54367 0.5118 0.19846 0.0
H1481 H 0.54512 0.50709 0.16899 0.0
H1482 H 0.51357 0.46117 0.12894 0.0
H1483 H 0.47721 0.42898 0.17289 0.0
H1484 H 0.47544 0.43398 0.20237 0.0
H1485 H 0.59338 0.55685 0.13855 0.0
H1486 H 0.61067 0.55432 0.13935 0.0
H1487 H 0.59104 0.53802 0.14631 0.0
C1488 C 0.40735 0.94785 0.24374 0.0
C1489 C 0.41923 0.96151 0.25658 0.0
C1490 C 0.44487 0.98069 0.24228 0.0
C1491 C 0.45544 0.9975 0.23872 0.0
C1492 C 0.47102 0.00326 0.23226 0.0
C1493 C 0.47587 0.9917 0.22865 0.0
C1494 C 0.46516 0.9746 0.23209 0.0
C1495 C 0.44983 0.96929 0.23905 0.0
C1496 C 0.48227 0.02172 0.22937 0.0
C1497 C 0.4699 0.96192 0.22837 0.0
C1498 C 0.5554 0.00875 0.30866 0.0
C1499 C 0.55791 0.00187 0.29197 0.0
C1500 C 0.55338 0.01196 0.26616 0.0
C1501 C 0.54451 0.99672 0.25675 0.0
C1502 C 0.53427 0.99488 0.24331 0.0
C1503 C 0.53297 0.00858 0.23922 0.0
C1504 C 0.54258 0.02421 0.24815 0.0
C1505 C 0.55285 0.02574 0.2614 0.0
C1506 C 0.52452 0.97819 0.23375 0.0
C1507 C 0.54155 0.03911 0.24408 0.0
C1508 C 0.5857 0.05018 0.14409 0.0
C1509 C 0.57585 0.0326 0.14399 0.0
C1510 C 0.55927 0.02451 0.14824 0.0
C1511 C 0.55257 0.03422 0.15313 0.0
C1512 C 0.56238 0.05192 0.15272 0.0
C1513 C 0.57876 0.05963 0.14791 0.0
C1514 C 0.54901 0.0056 0.1478 0.0
C1515 C 0.55572 0.06275 0.15771 0.0
C1516 C 0.44157 0.02327 0.14242 0.0
C1517 C 0.45086 0.03033 0.12612 0.0
C1518 C 0.47094 0.02194 0.12812 0.0
C1519 C 0.47371 0.00916 0.12368 0.0
C1520 C 0.48598 0.00807 0.13179 0.0
C1521 C 0.49586 0.02026 0.14447 0.0
C1522 C 0.49371 0.03374 0.14838 0.0
C1523 C 0.48125 0.0344 0.14025 0.0
C1524 C 0.48799 0.99359 0.1273 0.0
C1525 C 0.50423 0.04719 0.1616 0.0
C1526 C 0.49221 0.99757 0.22148 0.0
C1527 C 0.5046 0.9998 0.23229 0.0
C1528 C 0.52051 0.00616 0.22668 0.0
C1529 C 0.52431 0.01058 0.20978 0.0
C1530 C 0.54024 0.01731 0.20378 0.0
C1531 C 0.54397 0.02227 0.18731 0.0
C1532 C 0.53185 0.02051 0.17613 0.0
C1533 C 0.5356 0.02599 0.15949 0.0
C1534 C 0.5234 0.02487 0.14906 0.0
C1535 C 0.50747 0.01831 0.15476 0.0
C1536 C 0.50334 0.01198 0.17102 0.0
C1537 C 0.48724 0.0046 0.17682 0.0
C1538 C 0.48347 0.99943 0.19319 0.0
C1539 C 0.49569 0.0017 0.20448 0.0
C1540 C 0.51185 0.00845 0.19868 0.0
C1541 C 0.51564 0.01345 0.18186 0.0
C1542 C 0.62924 0.06779 0.14838 0.0
C1543 C 0.61228 0.0528 0.14338 0.0
O1544 O 0.43001 0.97609 0.24861 0.0
O1545 O 0.45807 0.02158 0.12069 0.0
O1546 O 0.6019 0.05845 0.1406 0.0
O1547 O 0.56244 0.01373 0.27995 0.0
H1548 H 0.42611 0.9569 0.26318 0.0
H1549 H 0.4141 0.9446 0.23466 0.0
H1550 H 0.40052 0.95214 0.23656 0.0
H1551 H 0.39847 0.93632 0.25024 0.0
H1552 H 0.45151 0.0062 0.24128 0.0
H1553 H 0.44178 0.95621 0.24168 0.0
H1554 H 0.49483 0.02635 0.23415 0.0
H1555 H 0.47786 0.02934 0.23558 0.0
H1556 H 0.48301 0.02374 0.2157 0.0
H1557 H 0.45947 0.94884 0.22974 0.0
H1558 H 0.47988 0.96435 0.23717 0.0
H1559 H 0.47458 0.96313 0.21541 0.0
H1560 H 0.54594 0.99025 0.28859 0.0
H1561 H 0.5454 0.01117 0.3072 0.0
H1562 H 0.56672 0.02071 0.31278 0.0
H1563 H 0.55191 0.99951 0.31854 0.0
H1564 H 0.54549 0.98623 0.25995 0.0
H1565 H 0.56001 0.03753 0.26858 0.0
H1566 H 0.52608 0.97998 0.22003 0.0
H1567 H 0.51132 0.97243 0.23639 0.0
H1568 H 0.52821 0.96936 0.23725 0.0
H1569 H 0.54977 0.05036 0.25227 0.0
H1570 H 0.52878 0.03597 0.24556 0.0
H1571 H 0.54487 0.04223 0.2308 0.0
H1572 H 0.60789 0.04443 0.15422 0.0
H1573 H 0.58103 0.02517 0.14056 0.0
H1574 H 0.58643 0.07317 0.14769 0.0
H1575 H 0.54674 0.00128 0.16084 0.0
H1576 H 0.55514 -6e-05 0.14103 0.0
H1577 H 0.53695 0.00093 0.14165 0.0
H1578 H 0.56544 0.0763 0.15861 0.0
H1579 H 0.54958 0.05911 0.17001 0.0
H1580 H 0.54644 0.06085 0.14823 0.0
H1581 H 0.46046 0.04381 0.12837 0.0
H1582 H 0.43552 0.03005 0.14655 0.0
H1583 H 0.45008 0.02482 0.15263 0.0
H1584 H 0.43211 0.00971 0.14051 0.0
H1585 H 0.46583 0.99968 0.1142 0.0
H1586 H 0.47956 0.04457 0.1437 0.0
H1587 H 0.48567 0.98606 0.13851 0.0
H1588 H 0.50078 0.9984 0.12346 0.0
H1589 H 0.47953 0.98528 0.11696 0.0
H1590 H 0.50271 0.05806 0.1614 0.0
H1591 H 0.51735 0.05173 0.15979 0.0
H1592 H 0.50084 0.04188 0.17421 0.0
H1593 H 0.50188 0.99678 0.24537 0.0
H1594 H 0.55006 0.01902 0.21184 0.0
H1595 H 0.55653 0.02767 0.18353 0.0
H1596 H 0.5265 0.02979 0.1366 0.0
H1597 H 0.47738 0.00281 0.16879 0.0
H1598 H 0.47088 0.99389 0.19698 0.0
H1599 H 0.63776 0.06356 0.15094 0.0
H1600 H 0.62843 0.07426 0.15997 0.0
H1601 H 0.63429 0.07689 0.13824 0.0
C1602 C 0.53729 0.97603 0.7119 0.0
C1603 C 0.54806 0.98968 0.72522 0.0
C1604 C 0.53845 0.98651 0.75383 0.0
C1605 C 0.54357 0.00317 0.75825 0.0
C1606 C 0.53546 0.00685 0.77068 0.0
C1607 C 0.52193 0.99357 0.77873 0.0
C1608 C 0.51736 0.97681 0.77495 0.0
C1609 C 0.52591 0.97353 0.76268 0.0
C1610 C 0.54093 0.02488 0.77474 0.0
C1611 C 0.50297 0.96232 0.78325 0.0
C1612 C 0.41634 0.99831 0.73944 0.0
C1613 C 0.42692 0.99289 0.74651 0.0
C1614 C 0.4529 0.00459 0.76178 0.0
C1615 C 0.44988 0.98899 0.76649 0.0
C1616 C 0.46148 0.98796 0.77596 0.0
C1617 C 0.47643 0.00279 0.78076 0.0
C1618 C 0.47953 0.01851 0.77606 0.0
C1619 C 0.46766 0.01919 0.76667 0.0
C1620 C 0.45779 0.97099 0.78081 0.0
C1621 C 0.4954 0.03454 0.78092 0.0
C1622 C 0.45579 0.01099 0.8865 0.0
C1623 C 0.45268 0.99481 0.88308 0.0
C1624 C 0.46457 0.99252 0.87555 0.0
C1625 C 0.47992 0.00669 0.8716 0.0
C1626 C 0.48344 0.02298 0.87604 0.0
C1627 C 0.47132 0.0249 0.88355 0.0
C1628 C 0.46059 0.97497 0.87137 0.0
C1629 C 0.49978 0.03833 0.87224 0.0
C1630 C 0.58301 0.9978 0.87863 0.0
C1631 C 0.57589 0.99904 0.89547 0.0
C1632 C 0.54852 0.99245 0.88688 0.0
C1633 C 0.53211 0.97948 0.88506 0.0
C1634 C 0.52074 0.98171 0.87663 0.0
C1635 C 0.52587 0.99749 0.87016 0.0
C1636 C 0.54233 0.01088 0.87244 0.0
C1637 C 0.55355 0.00818 0.88056 0.0
C1638 C 0.50327 0.96714 0.87447 0.0
C1639 C 0.54814 0.02802 0.86614 0.0
C1640 C 0.51138 0.99705 0.78947 0.0
C1641 C 0.49979 0.99903 0.78131 0.0
C1642 C 0.48894 0.00175 0.79036 0.0
C1643 C 0.48965 0.00266 0.8081 0.0
C1644 C 0.47883 0.00528 0.81757 0.0
C1645 C 0.47949 0.00596 0.83501 0.0
C1646 C 0.491 0.00401 0.84368 0.0
C1647 C 0.49162 0.00449 0.86142 0.0
C1648 C 0.50316 0.00249 0.86967 0.0
C1649 C 0.51412 0.99984 0.86062 0.0
C1650 C 0.51364 0.99924 0.84284 0.0
C1651 C 0.52436 0.99644 0.8333 0.0
C1652 C 0.5238 0.99593 0.81582 0.0
C1653 C 0.51233 0.99791 0.8072 0.0
C1654 C 0.50139 0.00072 0.81655 0.0
C1655 C 0.50206 0.00139 0.83437 0.0
C1656 C 0.42429 0.01387 0.87565 0.0
C1657 C 0.42771 0.00457 0.88866 0.0
O1658 O 0.54506 0.98261 0.74077 0.0
O1659 O 0.55894 0.98916 0.8947 0.0
O1660 O 0.44427 0.01369 0.89287 0.0
O1661 O 0.44194 0.00607 0.7526 0.0
H1662 H 0.54455 0.99917 0.725 0.0
H1663 H 0.52418 0.97063 0.71482 0.0
H1664 H 0.53974 0.96577 0.71157 0.0
H1665 H 0.53958 0.9814 0.69929 0.0
H1666 H 0.55372 0.01326 0.75177 0.0
H1667 H 0.52226 0.96073 0.75931 0.0
H1668 H 0.53175 0.02733 0.76965 0.0
H1669 H 0.55299 0.03378 0.76927 0.0
H1670 H 0.54172 0.02735 0.78856 0.0
H1671 H 0.50088 0.95001 0.77874 0.0
H1672 H 0.49171 0.96241 0.78073 0.0
H1673 H 0.50503 0.96368 0.79706 0.0
H1674 H 0.42796 0.98353 0.73849 0.0
H1675 H 0.41494 0.99443 0.7257 0.0
H1676 H 0.42451 0.01213 0.73736 0.0
H1677 H 0.39644 0.98855 0.75568 0.0
H1678 H 0.43851 0.97755 0.76282 0.0
H1679 H 0.46988 0.03116 0.76301 0.0
H1680 H 0.45895 0.97087 0.79465 0.0
H1681 H 0.46685 0.96852 0.77505 0.0
H1682 H 0.44531 0.96069 0.77671 0.0
H1683 H 0.49601 0.04576 0.77615 0.0
H1684 H 0.50585 0.03396 0.7759 0.0
H1685 H 0.49682 0.03599 0.79482 0.0
H1686 H 0.42385 0.99208 0.88281 0.0
H1687 H 0.44104 0.98394 0.88627 0.0
H1688 H 0.47372 0.03733 0.88662 0.0
H1689 H 0.4608 0.97307 0.85755 0.0
H1690 H 0.44839 0.96524 0.87594 0.0
H1691 H 0.47003 0.97322 0.87703 0.0
H1692 H 0.50106 0.05004 0.87762 0.0
H1693 H 0.50122 0.03928 0.85842 0.0
H1694 H 0.50983 0.03722 0.87732 0.0
H1695 H 0.57989 0.01232 0.89844 0.0
H1696 H 0.5966 0.00558 0.87927 0.0
H1697 H 0.57881 0.00243 0.86848 0.0
H1698 H 0.57903 0.98458 0.87534 0.0
H1699 H 0.52831 0.96743 0.89003 0.0
H1700 H 0.56614 0.01845 0.88184 0.0
H1701 H 0.49939 0.96521 0.86106 0.0
H1702 H 0.49511 0.96997 0.88171 0.0
H1703 H 0.50159 0.95531 0.87889 0.0
H1704 H 0.56063 0.03764 0.87093 0.0
H1705 H 0.53959 0.03201 0.86997 0.0
H1706 H 0.54833 0.02751 0.85221 0.0
H1707 H 0.49903 0.99818 0.76769 0.0
H1708 H 0.4697 0.00682 0.8116 0.0
H1709 H 0.47082 0.008 0.84161 0.0
H1710 H 0.50353 0.00286 0.88329 0.0
H1711 H 0.53332 0.99462 0.83924 0.0
H1712 H 0.53239 0.99383 0.80913 0.0
H1713 H 0.41103 0.00687 0.87232 0.0
H1714 H 0.43118 0.01495 0.86405 0.0
H1715 H 0.42816 0.02669 0.88052 0.0
C1716 C 0.99878 0.55361 0.71521 0.0
C1717 C 0.99182 0.55688 0.73119 0.0
C1718 C 0.00143 0.55138 0.7568 0.0
C1719 C 0.98647 0.54105 0.76466 0.0
C1720 C 0.98493 0.52968 0.77645 0.0
C1721 C 0.99867 0.52876 0.78048 0.0
C1722 C 0.01401 0.53991 0.77333 0.0
C1723 C 0.01521 0.55125 0.76169 0.0
C1724 C 0.96853 0.51829 0.78421 0.0
C1725 C 0.02894 0.53934 0.77743 0.0
C1726 C 0.95886 0.43176 0.71628 0.0
C1727 C 0.9719 0.43311 0.72825 0.0
C1728 C 0.97242 0.44334 0.75692 0.0
C1729 C 0.98931 0.45482 0.75909 0.0
C1730 C 0.99529 0.46841 0.77082 0.0
C1731 C 0.98412 0.47042 0.78062 0.0
C1732 C 0.96717 0.45819 0.77926 0.0
C1733 C 0.96154 0.44467 0.7675 0.0
C1734 C 0.01347 0.48098 0.77228 0.0
C1735 C 0.95496 0.45987 0.78966 0.0
C1736 C 0.01402 0.45776 0.88171 0.0
C1737 C 0.02744 0.47133 0.87405 0.0
C1738 C 0.02602 0.48391 0.86705 0.0
C1739 C 0.01096 0.48307 0.86791 0.0
C1740 C 0.99759 0.46977 0.87609 0.0
C1741 C 0.99929 0.45723 0.88281 0.0
C1742 C 0.04052 0.49792 0.85837 0.0
C1743 C 0.98143 0.46861 0.87734 0.0
C1744 C 0.0369 0.60764 0.8736 0.0
C1745 C 0.02757 0.59611 0.88797 0.0
C1746 C 0.02919 0.57121 0.88479 0.0
C1747 C 0.04079 0.56768 0.87908 0.0
C1748 C 0.03597 0.55207 0.87127 0.0
C1749 C 0.01911 0.53958 0.86955 0.0
C1750 C 0.00734 0.54274 0.87625 0.0
C1751 C 0.01251 0.55854 0.88381 0.0
C1752 C 0.04886 0.54906 0.86452 0.0
C1753 C 0.9893 0.52953 0.87511 0.0
C1754 C 0.99666 0.51503 0.79069 0.0
C1755 C 0.99122 0.4996 0.78233 0.0
C1756 C 0.98995 0.48625 0.79066 0.0
C1757 C 0.9944 0.48832 0.80785 0.0
C1758 C 0.99392 0.47538 0.81646 0.0
C1759 C 0.9987 0.4777 0.83329 0.0
C1760 C 0.00386 0.49297 0.84223 0.0
C1761 C 0.00903 0.49556 0.85926 0.0
C1762 C 0.01366 0.51071 0.86791 0.0
C1763 C 0.01374 0.52364 0.85983 0.0
C1764 C 0.0092 0.52151 0.84263 0.0
C1765 C 0.00982 0.5345 0.83391 0.0
C1766 C 0.00565 0.5324 0.81691 0.0
C1767 C 0.00062 0.5172 0.80801 0.0
C1768 C 0.99963 0.50383 0.81659 0.0
C1769 C 0.00413 0.50606 0.83386 0.0
C1770 C 0.03039 0.43681 0.87127 0.0
C1771 C 0.02793 0.44305 0.88851 0.0
O1772 O 0.00291 0.56148 0.74439 0.0
O1773 O 0.03449 0.58684 0.89133 0.0
O1774 O 0.01459 0.44484 0.88793 0.0
O1775 O 0.96625 0.43108 0.74455 0.0
H1776 H 0.98013 0.54494 0.73351 0.0
H1777 H 0.00045 0.54299 0.71697 0.0
H1778 H 0.01084 0.56481 0.71226 0.0
H1779 H 0.9902 0.55026 0.7044 0.0
H1780 H 0.97595 0.54174 0.76149 0.0
H1781 H 0.02677 0.55955 0.75577 0.0
H1782 H 0.96349 0.50521 0.77935 0.0
H1783 H 0.95959 0.52189 0.78134 0.0
H1784 H 0.96997 0.51853 0.79805 0.0
H1785 H 0.03999 0.54895 0.77087 0.0
H1786 H 0.02664 0.52676 0.77379 0.0
H1787 H 0.03147 0.5414 0.79117 0.0
H1788 H 0.98289 0.4459 0.7268 0.0
H1789 H 0.96296 0.43281 0.70307 0.0
H1790 H 0.95683 0.44211 0.71933 0.0
H1791 H 0.94703 0.41968 0.71743 0.0
H1792 H 0.99781 0.45334 0.75144 0.0
H1793 H 0.94854 0.43552 0.76593 0.0
H1794 H 0.01751 0.48332 0.78567 0.0
H1795 H 0.01627 0.49308 0.76741 0.0
H1796 H 0.02063 0.47673 0.76512 0.0
H1797 H 0.94232 0.44878 0.78789 0.0
H1798 H 0.95508 0.4712 0.78613 0.0
H1799 H 0.95847 0.46154 0.80317 0.0
H1800 H 0.03928 0.45535 0.89174 0.0
H1801 H 0.03901 0.47216 0.87319 0.0
H1802 H 0.98902 0.4468 0.88881 0.0
H1803 H 0.03727 0.49787 0.84502 0.0
H1804 H 0.05143 0.49684 0.85882 0.0
H1805 H 0.0438 0.51017 0.86438 0.0
H1806 H 0.97255 0.45811 0.88506 0.0
H1807 H 0.97604 0.46675 0.86456 0.0
H1808 H 0.98335 0.48053 0.88293 0.0
H1809 H 0.01469 0.58791 0.88339 0.0
H1810 H 0.03161 0.61521 0.87052 0.0
H1811 H 0.03583 0.59994 0.86218 0.0
H1812 H 0.0501 0.61605 0.87695 0.0
H1813 H 0.05365 0.57744 0.88024 0.0
H1814 H 0.00351 0.56092 0.88899 0.0
H1815 H 0.0464 0.54507 0.851 0.0
H1816 H 0.04839 0.53876 0.87128 0.0
H1817 H 0.0614 0.56039 0.866 0.0
H1818 H 0.98186 0.53328 0.88248 0.0
H1819 H 0.98702 0.51752 0.87968 0.0
H1820 H 0.98511 0.52726 0.86177 0.0
H1821 H 0.98811 0.49802 0.76903 0.0
H1822 H 0.99002 0.46337 0.81021 0.0
H1823 H 0.99824 0.46735 0.83922 0.0
H1824 H 0.01759 0.51259 0.88097 0.0
H1825 H 0.01368 0.54652 0.84008 0.0
H1826 H 0.00643 0.54285 0.81082 0.0
H1827 H 0.01865 0.42606 0.86604 0.0
H1828 H 0.03946 0.43304 0.87229 0.0
H1829 H 0.03509 0.44689 0.86218 0.0
C1830 C 0.55704 0.54671 0.74761 0.0
C1831 C 0.55713 0.56302 0.74889 0.0
C1832 C 0.54104 0.55971 0.77326 0.0
C1833 C 0.53101 0.56612 0.77166 0.0
C1834 C 0.51568 0.55846 0.77934 0.0
C1835 C 0.5103 0.54394 0.78858 0.0
C1836 C 0.52057 0.53756 0.79029 0.0
C1837 C 0.53599 0.54575 0.78284 0.0
C1838 C 0.50518 0.56574 0.77743 0.0
C1839 C 0.51515 0.52189 0.79966 0.0
C1840 C 0.42397 0.48207 0.70675 0.0
C1841 C 0.4256 0.47408 0.72233 0.0
C1842 C 0.42998 0.48679 0.75044 0.0
C1843 C 0.43895 0.48069 0.75754 0.0
C1844 C 0.44956 0.48924 0.77132 0.0
C1845 C 0.45137 0.50431 0.77796 0.0
C1846 C 0.44177 0.51007 0.77126 0.0
C1847 C 0.43093 0.501 0.75774 0.0
C1848 C 0.45924 0.48246 0.77844 0.0
C1849 C 0.4435 0.52619 0.77784 0.0
C1850 C 0.40501 0.48785 0.88097 0.0
C1851 C 0.41391 0.48038 0.87667 0.0
C1852 C 0.42972 0.48992 0.87018 0.0
C1853 C 0.43656 0.50716 0.86754 0.0
C1854 C 0.42766 0.51472 0.87209 0.0
C1855 C 0.4121 0.50498 0.879 0.0
C1856 C 0.43912 0.48157 0.86621 0.0
C1857 C 0.43453 0.53306 0.86957 0.0
C1858 C 0.55355 0.60775 0.89353 0.0
C1859 C 0.54428 0.59983 0.90962 0.0
C1860 C 0.5223 0.57209 0.8982 0.0
C1861 C 0.51759 0.55532 0.89605 0.0
C1862 C 0.50424 0.54402 0.8856 0.0
C1863 C 0.49532 0.54967 0.8772 0.0
C1864 C 0.49963 0.56648 0.87977 0.0
C1865 C 0.51309 0.57755 0.89024 0.0
C1866 C 0.49991 0.52615 0.88318 0.0
C1867 C 0.49021 0.57282 0.87116 0.0
C1868 C 0.49362 0.53492 0.79571 0.0
C1869 C 0.48048 0.52453 0.78477 0.0
C1870 C 0.46451 0.5149 0.7906 0.0
C1871 C 0.46147 0.51547 0.80792 0.0
C1872 C 0.44564 0.50565 0.8143 0.0
C1873 C 0.44281 0.50636 0.83139 0.0
C1874 C 0.45575 0.51673 0.84278 0.0
C1875 C 0.45307 0.51736 0.86022 0.0
C1876 C 0.46621 0.52806 0.87109 0.0
C1877 C 0.48202 0.53824 0.86506 0.0
C1878 C 0.48499 0.53761 0.84774 0.0
C1879 C 0.50081 0.54754 0.84132 0.0
C1880 C 0.50365 0.54678 0.82427 0.0
C1881 C 0.4908 0.53604 0.813 0.0
C1882 C 0.47468 0.52612 0.81915 0.0
C1883 C 0.4718 0.52681 0.83657 0.0
C1884 C 0.36122 0.4594 0.8835 0.0
C1885 C 0.3783 0.4621 0.8841 0.0
O1886 O 0.55561 0.56692 0.76549 0.0
O1887 O 0.53586 0.58248 0.90785 0.0
O1888 O 0.38968 0.47903 0.88721 0.0
O1889 O 0.42073 0.47952 0.73627 0.0
H1890 H 0.54658 0.56123 0.74133 0.0
H1891 H 0.54508 0.53608 0.75166 0.0
H1892 H 0.56692 0.54776 0.75569 0.0
H1893 H 0.55885 0.54383 0.73441 0.0
H1894 H 0.53518 0.57706 0.76431 0.0
H1895 H 0.544 0.54104 0.78407 0.0
H1896 H 0.49439 0.5571 0.76928 0.0
H1897 H 0.51194 0.57819 0.77175 0.0
H1898 H 0.50059 0.56704 0.78985 0.0
H1899 H 0.52379 0.51756 0.79822 0.0
H1900 H 0.50283 0.51164 0.79509 0.0
H1901 H 0.51424 0.52437 0.81322 0.0
H1902 H 0.43882 0.47848 0.7235 0.0
H1903 H 0.42776 0.47782 0.69539 0.0
H1904 H 0.43201 0.49593 0.70824 0.0
H1905 H 0.41116 0.47874 0.70491 0.0
H1906 H 0.4378 0.46936 0.75214 0.0
H1907 H 0.42377 0.50546 0.75224 0.0
H1908 H 0.45895 0.48289 0.79238 0.0
H1909 H 0.47221 0.49041 0.77472 0.0
H1910 H 0.45451 0.46936 0.77381 0.0
H1911 H 0.43572 0.52935 0.77069 0.0
H1912 H 0.45646 0.53668 0.77717 0.0
H1913 H 0.44 0.5251 0.79123 0.0
H1914 H 0.38038 0.45806 0.87148 0.0
H1915 H 0.40865 0.46718 0.87858 0.0
H1916 H 0.40519 0.51065 0.88255 0.0
H1917 H 0.44005 0.48046 0.85239 0.0
H1918 H 0.43311 0.46883 0.8712 0.0
H1919 H 0.45176 0.48929 0.87154 0.0
H1920 H 0.42529 0.5365 0.87176 0.0
H1921 H 0.43917 0.53627 0.85662 0.0
H1922 H 0.445 0.54076 0.87842 0.0
H1923 H 0.53552 0.60384 0.91233 0.0
H1924 H 0.56061 0.62165 0.89514 0.0
H1925 H 0.5449 0.6041 0.88276 0.0
H1926 H 0.56213 0.60359 0.89045 0.0
H1927 H 0.52467 0.55119 0.90234 0.0
H1928 H 0.51639 0.59042 0.89195 0.0
H1929 H 0.50098 0.52338 0.86972 0.0
H1930 H 0.487 0.51743 0.88672 0.0
H1931 H 0.50793 0.52366 0.89078 0.0
H1932 H 0.49441 0.58593 0.87529 0.0
H1933 H 0.47696 0.56465 0.87376 0.0
H1934 H 0.49166 0.57229 0.85737 0.0
H1935 H 0.48274 0.5238 0.7715 0.0
H1936 H 0.43525 0.49732 0.80615 0.0
H1937 H 0.43034 0.49861 0.83556 0.0
H1938 H 0.46408 0.52858 0.88443 0.0
H1939 H 0.51122 0.55599 0.8494 0.0
H1940 H 0.51608 0.55472 0.82004 0.0
H1941 H 0.3584 0.46333 0.89573 0.0
H1942 H 0.35182 0.44598 0.88058 0.0
H1943 H 0.36058 0.46693 0.87354 0.0
C1944 C 0.63219 0.77187 0.62786 0.0
C1945 C 0.63192 0.76065 0.61322 0.0
C1946 C 0.63504 0.77772 0.58923 0.0
C1947 C 0.61876 0.77369 0.5885 0.0
C1948 C 0.61417 0.78207 0.5779 0.0
C1949 C 0.62611 0.79493 0.568 0.0
C1950 C 0.64246 0.79892 0.56857 0.0
C1951 C 0.64663 0.79007 0.57901 0.0
C1952 C 0.59658 0.77737 0.57747 0.0
C1953 C 0.65559 0.81276 0.55843 0.0
C1954 C 0.59522 0.8828 0.59769 0.0
C1955 C 0.6113 0.88488 0.60368 0.0
C1956 C 0.61871 0.86979 0.58321 0.0
C1957 C 0.63102 0.87208 0.57229 0.0
C1958 C 0.63075 0.85838 0.5644 0.0
C1959 C 0.61745 0.84194 0.56709 0.0
C1960 C 0.60493 0.83948 0.5782 0.0
C1961 C 0.60576 0.85344 0.5863 0.0
C1962 C 0.64462 0.86156 0.55306 0.0
C1963 C 0.59056 0.82212 0.58131 0.0
C1964 C 0.59039 0.84753 0.46393 0.0
C1965 C 0.60673 0.85314 0.4678 0.0
C1966 C 0.6108 0.84241 0.47486 0.0
C1967 C 0.59821 0.82584 0.47837 0.0
C1968 C 0.58183 0.81992 0.47366 0.0
C1969 C 0.57817 0.83083 0.46625 0.0
C1970 C 0.6285 0.84896 0.47902 0.0
C1971 C 0.56814 0.80231 0.47704 0.0
C1972 C 0.61839 0.72797 0.46812 0.0
C1973 C 0.61311 0.73153 0.45151 0.0
C1974 C 0.61654 0.75887 0.45922 0.0
C1975 C 0.62807 0.77607 0.45949 0.0
C1976 C 0.62554 0.78743 0.46877 0.0
C1977 C 0.61083 0.7814 0.47764 0.0
C1978 C 0.59879 0.76402 0.47694 0.0
C1979 C 0.60186 0.75288 0.46792 0.0
C1980 C 0.63869 0.80585 0.46921 0.0
C1981 C 0.58273 0.75722 0.4858 0.0
C1982 C 0.62162 0.80484 0.55792 0.0
C1983 C 0.62109 0.81787 0.56627 0.0
C1984 C 0.61648 0.82745 0.55783 0.0
C1985 C 0.61198 0.82382 0.54062 0.0
C1986 C 0.60654 0.8327 0.53196 0.0
C1987 C 0.60297 0.82967 0.51484 0.0
C1988 C 0.60479 0.8177 0.50568 0.0
C1989 C 0.60206 0.81521 0.48809 0.0
C1990 C 0.60371 0.80302 0.47942 0.0
C1991 C 0.60823 0.79331 0.48782 0.0
C1992 C 0.61118 0.79575 0.5054 0.0
C1993 C 0.61592 0.78634 0.51426 0.0
C1994 C 0.61899 0.78902 0.53152 0.0
C1995 C 0.61791 0.80153 0.54051 0.0
C1996 C 0.61308 0.81109 0.53184 0.0
C1997 C 0.60956 0.80809 0.51431 0.0
C1998 C 0.57875 0.87691 0.46916 0.0
C1999 C 0.59265 0.87448 0.46392 0.0
O2000 O 0.64015 0.77023 0.59964 0.0
O2001 O 0.62016 0.74866 0.45036 0.0
O2002 O 0.58603 0.85798 0.45818 0.0
O2003 O 0.61974 0.88372 0.59013 0.0
H2004 H 0.61903 0.75115 0.60947 0.0
H2005 H 0.62588 0.77828 0.62416 0.0
H2006 H 0.645 0.78156 0.63168 0.0
H2007 H 0.62575 0.76425 0.63881 0.0
H2008 H 0.60953 0.76412 0.59619 0.0
H2009 H 0.65914 0.79307 0.57959 0.0
H2010 H 0.59578 0.78781 0.5833 0.0
H2011 H 0.58842 0.76585 0.58433 0.0
H2012 H 0.59206 0.77538 0.56428 0.0
H2013 H 0.66789 0.81494 0.56099 0.0
H2014 H 0.65599 0.8246 0.56128 0.0
H2015 H 0.65265 0.80953 0.54483 0.0
H2016 H 0.60849 0.87495 0.61259 0.0
H2017 H 0.58863 0.88407 0.60856 0.0
H2018 H 0.58716 0.87022 0.59149 0.0
H2019 H 0.59757 0.89237 0.58854 0.0
H2020 H 0.64096 0.88474 0.57003 0.0
H2021 H 0.59611 0.85146 0.59471 0.0
H2022 H 0.64033 0.85928 0.53977 0.0
H2023 H 0.64872 0.85285 0.55561 0.0
H2024 H 0.65527 0.87465 0.55463 0.0
H2025 H 0.58105 0.82241 0.58898 0.0
H2026 H 0.59489 0.81507 0.58801 0.0
H2027 H 0.58491 0.81519 0.56919 0.0
H2028 H 0.60035 0.87728 0.47543 0.0
H2029 H 0.61627 0.86593 0.46542 0.0
H2030 H 0.56563 0.82657 0.46293 0.0
H2031 H 0.63055 0.85123 0.49282 0.0
H2032 H 0.63695 0.8609 0.47291 0.0
H2033 H 0.63162 0.83957 0.47504 0.0
H2034 H 0.55599 0.79977 0.47301 0.0
H2035 H 0.56785 0.80017 0.49067 0.0
H2036 H 0.57036 0.79318 0.47029 0.0
H2037 H 0.59955 0.72504 0.45085 0.0
H2038 H 0.61273 0.71428 0.46931 0.0
H2039 H 0.61441 0.73269 0.47892 0.0
H2040 H 0.63193 0.73426 0.46884 0.0
H2041 H 0.6393 0.78056 0.45264 0.0
H2042 H 0.59271 0.73961 0.46768 0.0
H2043 H 0.64171 0.81094 0.48241 0.0
H2044 H 0.63412 0.81279 0.46269 0.0
H2045 H 0.65006 0.80829 0.46304 0.0
H2046 H 0.57385 0.74381 0.48224 0.0
H2047 H 0.5772 0.76459 0.48283 0.0
H2048 H 0.58492 0.75844 0.49958 0.0
H2049 H 0.62443 0.82068 0.57952 0.0
H2050 H 0.60507 0.84218 0.53829 0.0
H2051 H 0.59892 0.83698 0.50886 0.0
H2052 H 0.60177 0.8013 0.4659 0.0
H2053 H 0.61731 0.7768 0.50796 0.0
H2054 H 0.62251 0.78136 0.53768 0.0
H2055 H 0.58376 0.89005 0.47384 0.0
H2056 H 0.57176 0.86845 0.47941 0.0
H2057 H 0.5702 0.87396 0.45842 0.0
C2058 C 0.1255 0.734 0.64834 0.0
C2059 C 0.12161 0.74236 0.63468 0.0
C2060 C 0.13566 0.7515 0.60817 0.0
C2061 C 0.13293 0.76443 0.60547 0.0
C2062 C 0.14284 0.77718 0.59456 0.0
C2063 C 0.15587 0.7771 0.5864 0.0
C2064 C 0.1583 0.76376 0.58874 0.0
C2065 C 0.14791 0.75093 0.59936 0.0
C2066 C 0.1396 0.79095 0.59207 0.0
C2067 C 0.1722 0.76332 0.58049 0.0
C2068 C 0.2622 0.90228 0.62591 0.0
C2069 C 0.25298 0.88468 0.61894 0.0
C2070 C 0.22617 0.86449 0.60607 0.0
C2071 C 0.23009 0.85262 0.60088 0.0
C2072 C 0.21877 0.83798 0.59154 0.0
C2073 C 0.20333 0.83527 0.58717 0.0
C2074 C 0.19935 0.84718 0.59242 0.0
C2075 C 0.21083 0.8616 0.60189 0.0
C2076 C 0.22331 0.82544 0.58624 0.0
C2077 C 0.18302 0.84471 0.58793 0.0
C2078 C 0.23166 0.85894 0.481 0.0
C2079 C 0.23215 0.84457 0.48371 0.0
C2080 C 0.21915 0.83075 0.49144 0.0
C2081 C 0.20524 0.83116 0.49629 0.0
C2082 C 0.2044 0.8453 0.49296 0.0
C2083 C 0.21771 0.85907 0.4855 0.0
C2084 C 0.22043 0.81584 0.49474 0.0
C2085 C 0.18962 0.84601 0.49766 0.0
C2086 C 0.09656 0.70183 0.47356 0.0
C2087 C 0.10444 0.7206 0.47129 0.0
C2088 C 0.13252 0.74335 0.47831 0.0
C2089 C 0.14789 0.74632 0.48249 0.0
C2090 C 0.1597 0.76127 0.491 0.0
C2091 C 0.15607 0.77367 0.49514 0.0
C2092 C 0.14081 0.7711 0.49021 0.0
C2093 C 0.12916 0.75595 0.48184 0.0
C2094 C 0.17591 0.76367 0.49592 0.0
C2095 C 0.13673 0.78425 0.49411 0.0
C2096 C 0.16765 0.79154 0.57646 0.0
C2097 C 0.17956 0.80611 0.58531 0.0
C2098 C 0.19137 0.8201 0.57693 0.0
C2099 C 0.19156 0.81955 0.55918 0.0
C2100 C 0.20353 0.83326 0.55038 0.0
C2101 C 0.20379 0.83252 0.53293 0.0
C2102 C 0.1919 0.81814 0.52358 0.0
C2103 C 0.19211 0.81726 0.50583 0.0
C2104 C 0.18015 0.80276 0.49691 0.0
C2105 C 0.16796 0.78897 0.50529 0.0
C2106 C 0.16755 0.78961 0.52305 0.0
C2107 C 0.15546 0.77596 0.53188 0.0
C2108 C 0.15534 0.77662 0.54936 0.0
C2109 C 0.16738 0.79089 0.55869 0.0
C2110 C 0.17949 0.8049 0.55004 0.0
C2111 C 0.1796 0.80425 0.53221 0.0
C2112 C 0.27099 0.87923 0.48266 0.0
C2113 C 0.25879 0.87529 0.4682 0.0
O2114 O 0.12691 0.73959 0.6194 0.0
O2115 O 0.12128 0.72819 0.47101 0.0
O2116 O 0.24432 0.873 0.4744 0.0
O2117 O 0.23678 0.87886 0.61503 0.0
H2118 H 0.12856 0.75603 0.63825 0.0
H2119 H 0.13892 0.73951 0.64914 0.0
H2120 H 0.11937 0.7203 0.64549 0.0
H2121 H 0.12139 0.73609 0.66075 0.0
H2122 H 0.12312 0.76461 0.61193 0.0
H2123 H 0.14977 0.74077 0.60143 0.0
H2124 H 0.1492 0.8026 0.59887 0.0
H2125 H 0.12748 0.78772 0.59689 0.0
H2126 H 0.14017 0.79359 0.57855 0.0
H2127 H 0.17337 0.75298 0.58492 0.0
H2128 H 0.18394 0.7754 0.58307 0.0
H2129 H 0.17015 0.76159 0.56668 0.0
H2130 H 0.25449 0.87568 0.62613 0.0
H2131 H 0.26563 0.9014 0.63913 0.0
H2132 H 0.25282 0.90535 0.62983 0.0
H2133 H 0.27968 0.91538 0.60766 0.0
H2134 H 0.24192 0.85467 0.60407 0.0
H2135 H 0.20792 0.87082 0.60596 0.0
H2136 H 0.21393 0.81285 0.59054 0.0
H2137 H 0.23546 0.82895 0.59136 0.0
H2138 H 0.22354 0.82449 0.57232 0.0
H2139 H 0.18202 0.85542 0.5925 0.0
H2140 H 0.17306 0.83311 0.59348 0.0
H2141 H 0.18111 0.84309 0.57409 0.0
H2142 H 0.25641 0.86364 0.46139 0.0
H2143 H 0.24269 0.84405 0.48014 0.0
H2144 H 0.21735 0.87013 0.48327 0.0
H2145 H 0.21857 0.8131 0.50827 0.0
H2146 H 0.23246 0.81785 0.4911 0.0
H2147 H 0.21065 0.80464 0.48753 0.0
H2148 H 0.19002 0.85697 0.49245 0.0
H2149 H 0.18898 0.84687 0.51154 0.0
H2150 H 0.17825 0.83436 0.49305 0.0
H2151 H 0.10088 0.72545 0.48241 0.0
H2152 H 0.08302 0.69546 0.47381 0.0
H2153 H 0.10082 0.69985 0.48566 0.0
H2154 H 0.09993 0.69601 0.46322 0.0
H2155 H 0.15044 0.73661 0.47949 0.0
H2156 H 0.11749 0.754 0.47811 0.0
H2157 H 0.17766 0.76558 0.50978 0.0
H2158 H 0.18601 0.77508 0.49025 0.0
H2159 H 0.17681 0.75279 0.49182 0.0
H2160 H 0.12471 0.78076 0.48861 0.0
H2161 H 0.14638 0.79642 0.48921 0.0
H2162 H 0.13644 0.78608 0.50793 0.0
H2163 H 0.17966 0.80657 0.59894 0.0
H2164 H 0.21294 0.84469 0.55687 0.0
H2165 H 0.21343 0.8434 0.52688 0.0
H2166 H 0.18049 0.80211 0.4833 0.0
H2167 H 0.14597 0.76458 0.52539 0.0
H2168 H 0.14574 0.76575 0.55549 0.0
H2169 H 0.27185 0.88902 0.4916 0.0
H2170 H 0.28331 0.88345 0.47766 0.0
H2171 H 0.267 0.86788 0.48983 0.0
C2172 C 0.14813 0.38961 0.63344 0.0
C2173 C 0.13712 0.38562 0.61791 0.0
C2174 C 0.15241 0.38036 0.59622 0.0
C2175 C 0.16522 0.39714 0.5947 0.0
C2176 C 0.17881 0.40116 0.58479 0.0
C2177 C 0.17964 0.38817 0.5763 0.0
C2178 C 0.16662 0.37131 0.57751 0.0
C2179 C 0.15312 0.36767 0.58737 0.0
C2180 C 0.19244 0.41927 0.58359 0.0
C2181 C 0.16713 0.35713 0.5687 0.0
C2182 C 0.26678 0.40648 0.64699 0.0
C2183 C 0.26143 0.39422 0.63171 0.0
C2184 C 0.25711 0.40133 0.60414 0.0
C2185 C 0.24457 0.38543 0.59802 0.0
C2186 C 0.23357 0.38376 0.58552 0.0
C2187 C 0.23507 0.39831 0.57919 0.0
C2188 C 0.24823 0.41436 0.58477 0.0
C2189 C 0.25929 0.41563 0.597 0.0
C2190 C 0.21998 0.36645 0.57954 0.0
C2191 C 0.25015 0.43016 0.57844 0.0
C2192 C 0.27105 0.41309 0.47413 0.0
C2193 C 0.25882 0.39638 0.47695 0.0
C2194 C 0.24388 0.39243 0.48403 0.0
C2195 C 0.24123 0.40547 0.48851 0.0
C2196 C 0.2533 0.42223 0.48506 0.0
C2197 C 0.26799 0.42578 0.47771 0.0
C2198 C 0.23107 0.37438 0.48707 0.0
C2199 C 0.25084 0.43644 0.48953 0.0
C2200 C 0.13956 0.41174 0.4674 0.0
C2201 C 0.14271 0.40186 0.45373 0.0
C2202 C 0.15841 0.39215 0.4684 0.0
C2203 C 0.15794 0.37796 0.47364 0.0
C2204 C 0.17131 0.3793 0.48212 0.0
C2205 C 0.18538 0.39536 0.48586 0.0
C2206 C 0.1861 0.40979 0.48029 0.0
C2207 C 0.17271 0.40803 0.47143 0.0
C2208 C 0.17026 0.36357 0.48738 0.0
C2209 C 0.20093 0.42711 0.48394 0.0
C2210 C 0.19454 0.39208 0.56698 0.0
C2211 C 0.20763 0.39376 0.57617 0.0
C2212 C 0.22186 0.39675 0.5683 0.0
C2213 C 0.22311 0.39802 0.55067 0.0
C2214 C 0.23711 0.40074 0.54229 0.0
C2215 C 0.23824 0.4021 0.52494 0.0
C2216 C 0.22529 0.40052 0.51527 0.0
C2217 C 0.22627 0.40176 0.49761 0.0
C2218 C 0.21308 0.39991 0.48838 0.0
C2219 C 0.19893 0.39711 0.49634 0.0
C2220 C 0.19785 0.39614 0.51402 0.0
C2221 C 0.18398 0.39375 0.5225 0.0
C2222 C 0.18287 0.39246 0.53983 0.0
C2223 C 0.19565 0.39364 0.5494 0.0
C2224 C 0.20994 0.39647 0.54119 0.0
C2225 C 0.21102 0.39768 0.52348 0.0
C2226 C 0.31195 0.42128 0.47313 0.0
C2227 C 0.29367 0.40875 0.46989 0.0
O2228 O 0.13929 0.37573 0.60616 0.0
O2229 O 0.14474 0.38987 0.46077 0.0
O2230 O 0.28595 0.41749 0.46809 0.0
O2231 O 0.26693 0.40321 0.61726 0.0
H2232 H 0.14014 0.3975 0.61224 0.0
H2233 H 0.16122 0.3969 0.63004 0.0
H2234 H 0.14548 0.37786 0.63909 0.0
H2235 H 0.1461 0.39723 0.64297 0.0
H2236 H 0.16483 0.40717 0.60129 0.0
H2237 H 0.14315 0.35478 0.58854 0.0
H2238 H 0.20369 0.42132 0.58973 0.0
H2239 H 0.18933 0.42802 0.5897 0.0
H2240 H 0.19524 0.42236 0.57021 0.0
H2241 H 0.1562 0.34467 0.57128 0.0
H2242 H 0.17826 0.35741 0.57278 0.0
H2243 H 0.16787 0.3587 0.55494 0.0
H2244 H 0.24779 0.3866 0.63179 0.0
H2245 H 0.26263 0.39952 0.65875 0.0
H2246 H 0.26121 0.41414 0.64615 0.0
H2247 H 0.2803 0.41508 0.6476 0.0
H2248 H 0.24323 0.37434 0.60323 0.0
H2249 H 0.26917 0.42783 0.6017 0.0
H2250 H 0.21872 0.36566 0.56563 0.0
H2251 H 0.20823 0.36386 0.58484 0.0
H2252 H 0.22209 0.35658 0.58349 0.0
H2253 H 0.26072 0.44166 0.58448 0.0
H2254 H 0.23885 0.43025 0.58087 0.0
H2255 H 0.2519 0.43052 0.56466 0.0
H2256 H 0.28905 0.40103 0.48118 0.0
H2257 H 0.26089 0.38641 0.47368 0.0
H2258 H 0.27742 0.43859 0.47525 0.0
H2259 H 0.22969 0.37258 0.50079 0.0
H2260 H 0.23428 0.36558 0.48134 0.0
H2261 H 0.21904 0.37116 0.48186 0.0
H2262 H 0.26166 0.44884 0.48657 0.0
H2263 H 0.24833 0.43656 0.50314 0.0
H2264 H 0.24004 0.43453 0.48251 0.0
H2265 H 0.15397 0.41081 0.44696 0.0
H2266 H 0.13701 0.42064 0.46157 0.0
H2267 H 0.1504 0.41912 0.47586 0.0
H2268 H 0.12901 0.40319 0.4752 0.0
H2269 H 0.14695 0.36574 0.47111 0.0
H2270 H 0.17348 0.41917 0.46723 0.0
H2271 H 0.1688 0.36266 0.50118 0.0
H2272 H 0.1817 0.364 0.48424 0.0
H2273 H 0.15972 0.3521 0.48124 0.0
H2274 H 0.19896 0.43714 0.48024 0.0
H2275 H 0.2115 0.42842 0.47694 0.0
H2276 H 0.2042 0.42898 0.49754 0.0
H2277 H 0.20668 0.3926 0.58968 0.0
H2278 H 0.24738 0.40191 0.54907 0.0
H2279 H 0.24938 0.40433 0.5192 0.0
H2280 H 0.21389 0.40079 0.47484 0.0
H2281 H 0.17376 0.3928 0.51582 0.0
H2282 H 0.17187 0.39053 0.54566 0.0
H2283 H 0.31842 0.41456 0.47471 0.0
H2284 H 0.31378 0.42896 0.48482 0.0
H2285 H 0.31745 0.42982 0.46257 0.0
C2286 C 0.98146 0.37416 0.04808 0.0
C2287 C 0.99078 0.36679 0.04639 0.0
C2288 C 0.98352 0.3846 0.0622 0.0
C2289 C 0.99515 0.38766 0.07486 0.0
C2290 C 0.00391 0.37951 0.07363 0.0
C2291 C 0.00161 0.36917 0.05944 0.0
C2292 C 0.97388 0.39298 0.06318 0.0
C2293 C 0.01636 0.38235 0.0869 0.0
C2294 C 0.01795 0.42864 0.10055 0.0
C2295 C 0.01073 0.42381 0.11628 0.0
C2296 C 0.01235 0.41719 0.08671 0.0
C2297 C 0.99932 0.40044 0.08869 0.0
C2298 C 0.99158 0.39564 0.10438 0.0
C2299 C 0.99744 0.40738 0.11804 0.0
C2300 C 0.02097 0.4228 0.07018 0.0
C2301 C 0.97765 0.37791 0.10698 0.0
H2302 H 0.97303 0.37235 0.03807 0.0
H2303 H 0.00872 0.36336 0.05834 0.0
H2304 H 0.96836 0.39155 0.07574 0.0
H2305 H 0.9822 0.40661 0.06145 0.0
H2306 H 0.96399 0.38779 0.05343 0.0
H2307 H 0.02126 0.37413 0.08467 0.0
H2308 H 0.02675 0.3956 0.08707 0.0
H2309 H 0.01085 0.38006 0.09952 0.0
H2310 H 0.02835 0.44128 0.09922 0.0
H2311 H 0.99196 0.40359 0.13024 0.0
H2312 H 0.01194 0.41927 0.05982 0.0
H2313 H 0.02763 0.41638 0.06738 0.0
H2314 H 0.02987 0.43655 0.07032 0.0
H2315 H 0.96833 0.37353 0.09674 0.0
H2316 H 0.97164 0.37674 0.11922 0.0
H2317 H 0.98236 0.36943 0.10659 0.0
C2318 C 0.65021 0.6241 0.07122 0.0
C2319 C 0.64957 0.62163 0.05369 0.0
C2320 C 0.64143 0.61054 0.08163 0.0
C2321 C 0.63177 0.5941 0.07435 0.0
C2322 C 0.63138 0.59146 0.0567 0.0
C2323 C 0.6403 0.60525 0.04657 0.0
C2324 C 0.64221 0.61386 0.10041 0.0
C2325 C 0.6212 0.5741 0.04848 0.0
C2326 C 0.61851 0.55752 0.10237 0.0
C2327 C 0.6026 0.55313 0.10652 0.0
C2328 C 0.62811 0.57073 0.0918 0.0
C2329 C 0.62162 0.57975 0.08518 0.0
C2330 C 0.60556 0.57537 0.08928 0.0
C2331 C 0.59632 0.56227 0.10007 0.0
C2332 C 0.64529 0.57524 0.08796 0.0
C2333 C 0.59819 0.58467 0.08242 0.0
H2334 H 0.65735 0.6367 0.07684 0.0
H2335 H 0.63973 0.60321 0.03304 0.0
H2336 H 0.6299 0.61015 0.105 0.0
H2337 H 0.64597 0.60619 0.10684 0.0
H2338 H 0.65091 0.62728 0.10414 0.0
H2339 H 0.62271 0.57408 0.03466 0.0
H2340 H 0.6246 0.56565 0.0538 0.0
H2341 H 0.60807 0.56879 0.05113 0.0
H2342 H 0.62353 0.55074 0.10766 0.0
H2343 H 0.58421 0.55926 0.10357 0.0
H2344 H 0.65421 0.5883 0.09257 0.0
H2345 H 0.64679 0.57466 0.07418 0.0
H2346 H 0.6484 0.56677 0.09384 0.0
H2347 H 0.60545 0.598 0.08695 0.0
H2348 H 0.58529 0.57923 0.08623 0.0
H2349 H 0.5986 0.58442 0.0685 0.0
C2350 C 0.39369 0.02704 0.0508 0.0
C2351 C 0.3778 0.02097 0.05657 0.0
C2352 C 0.40605 0.02891 0.0616 0.0
C2353 C 0.40245 0.02468 0.07858 0.0
C2354 C 0.38652 0.01883 0.08455 0.0
C2355 C 0.37439 0.01702 0.07347 0.0
C2356 C 0.42289 0.03517 0.05479 0.0
C2357 C 0.38224 0.01426 0.10261 0.0
C2358 C 0.42896 0.01405 0.10345 0.0
C2359 C 0.4391 0.02909 0.1128 0.0
C2360 C 0.41718 0.01253 0.09202 0.0
C2361 C 0.41532 0.0263 0.09012 0.0
C2362 C 0.42548 0.04149 0.09954 0.0
C2363 C 0.4372 0.04268 0.1108 0.0
C2364 C 0.40655 0.99612 0.08219 0.0
C2365 C 0.42375 0.05638 0.09798 0.0
H2366 H 0.39644 0.03006 0.03775 0.0
H2367 H 0.36215 0.01233 0.07804 0.0
H2368 H 0.43217 0.04658 0.06213 0.0
H2369 H 0.42604 0.02554 0.05613 0.0
H2370 H 0.42377 0.03816 0.04134 0.0
H2371 H 0.36939 0.01025 0.10535 0.0
H2372 H 0.38402 0.00392 0.1055 0.0
H2373 H 0.39051 0.02513 0.11117 0.0
H2374 H 0.43011 0.00339 0.10525 0.0
H2375 H 0.44476 0.05419 0.11829 0.0
H2376 H 0.40753 0.99826 0.06854 0.0
H2377 H 0.39354 0.99067 0.08549 0.0
H2378 H 0.40996 0.98684 0.08467 0.0
H2379 H 0.42523 0.05999 0.08472 0.0
H2380 H 0.43288 0.06742 0.1059 0.0
H2381 H 0.41131 0.05301 0.10175 0.0
C2382 C 0.36783 0.9997 0.96105 0.0
C2383 C 0.3722 0.99692 0.97678 0.0
C2384 C 0.37601 0.99957 0.9465 0.0
C2385 C 0.38887 0.9966 0.9477 0.0
C2386 C 0.39283 0.99302 0.9634 0.0
C2387 C 0.38443 0.9932 0.97776 0.0
C2388 C 0.37137 0.00335 0.92996 0.0
C2389 C 0.40644 0.98973 0.96515 0.0
C2390 C 0.40403 0.98663 0.90752 0.0
C2391 C 0.41787 0.00233 0.90426 0.0
C2392 C 0.39453 0.9845 0.92171 0.0
C2393 C 0.39893 0.99844 0.9328 0.0
C2394 C 0.41287 0.01433 0.92955 0.0
C2395 C 0.42216 0.01608 0.91531 0.0
C2396 C 0.37973 0.96739 0.92478 0.0
C2397 C 0.41791 0.02952 0.94104 0.0
H2398 H 0.35833 0.0025 0.96015 0.0
H2399 H 0.38786 0.99099 0.98984 0.0
H2400 H 0.38161 0.01552 0.92569 0.0
H2401 H 0.36915 0.99361 0.92018 0.0
H2402 H 0.36025 0.00404 0.9309 0.0
H2403 H 0.4071 0.98579 0.97791 0.0
H2404 H 0.40473 0.97985 0.9558 0.0
H2405 H 0.41834 0.00128 0.96259 0.0
H2406 H 0.4006 0.97602 0.89892 0.0
H2407 H 0.43276 0.02826 0.91271 0.0
H2408 H 0.36853 0.96793 0.92477 0.0
H2409 H 0.38081 0.96335 0.93733 0.0
H2410 H 0.37817 0.95777 0.91514 0.0
H2411 H 0.40791 0.03202 0.94163 0.0
H2412 H 0.42919 0.04093 0.93682 0.0
H2413 H 0.42009 0.02713 0.95397 0.0
C2414 C 0.9989 0.38162 0.96502 0.0
C2415 C 0.01018 0.37725 0.9693 0.0
C2416 C 0.00214 0.39272 0.95227 0.0
C2417 C 0.01689 0.39934 0.94333 0.0
C2418 C 0.02839 0.39507 0.94765 0.0
C2419 C 0.02497 0.38418 0.96074 0.0
C2420 C 0.98971 0.39723 0.94827 0.0
C2421 C 0.04412 0.40169 0.9382 0.0
C2422 C 0.01644 0.41389 0.89977 0.0
C2423 C 0.02538 0.43142 0.90244 0.0
C2424 C 0.01403 0.40336 0.91287 0.0
C2425 C 0.02005 0.41043 0.92921 0.0
C2426 C 0.02855 0.42802 0.93215 0.0
C2427 C 0.03114 0.43829 0.91873 0.0
C2428 C 0.00494 0.38464 0.90924 0.0
C2429 C 0.03469 0.43599 0.94952 0.0
H2430 H 0.9875 0.37641 0.97171 0.0
H2431 H 0.03367 0.38076 0.96396 0.0
H2432 H 0.9956 0.41105 0.9489 0.0
H2433 H 0.98484 0.39272 0.93528 0.0
H2434 H 0.97928 0.39172 0.95701 0.0
H2435 H 0.05187 0.39733 0.94324 0.0
H2436 H 0.04131 0.39755 0.92475 0.0
H2437 H 0.05126 0.41559 0.93883 0.0
H2438 H 0.01134 0.4083 0.88746 0.0
H2439 H 0.03759 0.45176 0.921 0.0
H2440 H 0.99342 0.37835 0.91638 0.0
H2441 H 0.01244 0.37967 0.91341 0.0
H2442 H 0.00186 0.3812 0.89567 0.0
H2443 H 0.02428 0.43116 0.95824 0.0
H2444 H 0.04111 0.44987 0.94969 0.0
H2445 H 0.04322 0.43258 0.95441 0.0
C2446 C 0.62184 0.64175 0.97216 0.0
C2447 C 0.61797 0.6355 0.98832 0.0
C2448 C 0.60961 0.63652 0.95976 0.0
C2449 C 0.59312 0.62474 0.9636 0.0
C2450 C 0.58906 0.61873 0.98001 0.0
C2451 C 0.60154 0.62421 0.9922 0.0
C2452 C 0.61441 0.64327 0.94242 0.0
C2453 C 0.5716 0.60615 0.98455 0.0
C2454 C 0.55984 0.61988 0.93426 0.0
C2455 C 0.55638 0.60577 0.92419 0.0
C2456 C 0.57166 0.62612 0.94727 0.0
C2457 C 0.58025 0.61808 0.9502 0.0
C2458 C 0.57685 0.60387 0.94005 0.0
C2459 C 0.56509 0.59799 0.92706 0.0
C2460 C 0.57512 0.64143 0.9577 0.0
C2461 C 0.58578 0.59497 0.94278 0.0
H2462 H 0.63449 0.65053 0.96907 0.0
H2463 H 0.59844 0.61934 0.00465 0.0
H2464 H 0.61163 0.63291 0.93319 0.0
H2465 H 0.60719 0.64865 0.93856 0.0
H2466 H 0.62764 0.65309 0.94175 0.0
H2467 H 0.57037 0.60336 0.99808 0.0
H2468 H 0.5636 0.61088 0.9815 0.0
H2469 H 0.56703 0.59427 0.97701 0.0
H2470 H 0.55339 0.62613 0.93182 0.0
H2471 H 0.56275 0.58734 0.91905 0.0
H2472 H 0.58808 0.65168 0.95632 0.0
H2473 H 0.57331 0.63858 0.97119 0.0
H2474 H 0.56713 0.64601 0.95402 0.0
H2475 H 0.59907 0.60367 0.94085 0.0
H2476 H 0.58131 0.58377 0.93414 0.0
H2477 H 0.58427 0.59096 0.9559 0.0
C2478 C 0.00584 0.63756 0.96469 0.0
C2479 C 0.01632 0.64236 0.97875 0.0
C2480 C 0.00833 0.63043 0.95009 0.0
C2481 C 0.02148 0.62783 0.9496 0.0
C2482 C 0.0321 0.63264 0.96375 0.0
C2483 C 0.02947 0.63997 0.97813 0.0
C2484 C 0.99687 0.62569 0.93518 0.0
C2485 C 0.04614 0.62987 0.96376 0.0
C2486 C 0.01738 0.5951 0.91719 0.0
C2487 C 0.0271 0.605 0.90415 0.0
C2488 C 0.01579 0.60235 0.93222 0.0
C2489 C 0.02401 0.62001 0.93426 0.0
C2490 C 0.03411 0.63016 0.92136 0.0
C2491 C 0.03565 0.62258 0.90652 0.0
C2492 C 0.00506 0.5911 0.94579 0.0
C2493 C 0.04298 0.64904 0.92305 0.0
H2494 H 0.99571 0.63946 0.96505 0.0
H2495 H 0.03756 0.64358 0.98898 0.0
H2496 H 0.00392 0.63223 0.92398 0.0
H2497 H 0.99057 0.61202 0.93214 0.0
H2498 H 0.98745 0.62888 0.93746 0.0
H2499 H 0.05326 0.63429 0.97578 0.0
H2500 H 0.0414 0.61634 0.96156 0.0
H2501 H 0.05452 0.63656 0.95337 0.0
H2502 H 0.01083 0.58156 0.9155 0.0
H2503 H 0.04338 0.63058 0.8968 0.0
H2504 H 0.99452 0.59262 0.94773 0.0
H2505 H 0.01202 0.59471 0.95786 0.0
H2506 H 0.00028 0.57766 0.94264 0.0
H2507 H 0.03397 0.65289 0.92431 0.0
H2508 H 0.05078 0.6552 0.9121 0.0
H2509 H 0.05081 0.65376 0.93458 0.0
C2510 C 0.35674 0.39777 0.95566 0.0
C2511 C 0.36923 0.39511 0.95997 0.0
C2512 C 0.35922 0.40938 0.94371 0.0
C2513 C 0.3746 0.41867 0.93595 0.0
C2514 C 0.38739 0.41634 0.9405 0.0
C2515 C 0.38453 0.40453 0.95241 0.0
C2516 C 0.34524 0.41143 0.93912 0.0
C2517 C 0.404 0.42615 0.93262 0.0
C2518 C 0.37443 0.43502 0.8933 0.0
C2519 C 0.37909 0.45158 0.89748 0.0
C2520 C 0.37334 0.42432 0.90564 0.0
C2521 C 0.37703 0.43033 0.92261 0.0
C2522 C 0.38212 0.44717 0.92688 0.0
C2523 C 0.3829 0.45755 0.91429 0.0
C2524 C 0.36768 0.40639 0.90059 0.0
C2525 C 0.38627 0.45407 0.94482 0.0
H2526 H 0.34488 0.39056 0.96142 0.0
H2527 H 0.39428 0.40263 0.95572 0.0
H2528 H 0.34897 0.42472 0.94115 0.0
H2529 H 0.34199 0.40799 0.9256 0.0
H2530 H 0.33415 0.40353 0.94659 0.0
H2531 H 0.41287 0.42345 0.93809 0.0
H2532 H 0.40285 0.42307 0.91891 0.0
H2533 H 0.40902 0.43979 0.93428 0.0
H2534 H 0.37121 0.43032 0.88036 0.0
H2535 H 0.38622 0.47025 0.91765 0.0
H2536 H 0.35588 0.39776 0.90664 0.0
H2537 H 0.37666 0.40339 0.905 0.0
H2538 H 0.36598 0.4039 0.88678 0.0
H2539 H 0.37513 0.44761 0.95252 0.0
H2540 H 0.39131 0.46777 0.94585 0.0
H2541 H 0.39535 0.45167 0.95026 0.0
C2542 C 0.60708 0.97655 0.97728 0.0
C2543 C 0.62026 0.97469 0.97348 0.0
C2544 C 0.59831 0.97847 0.96454 0.0
C2545 C 0.60283 0.97852 0.9476 0.0
C2546 C 0.6154 0.97554 0.9436 0.0
C2547 C 0.62396 0.97365 0.9566 0.0
C2548 C 0.58489 0.98148 0.96929 0.0
C2549 C 0.62052 0.9754 0.92569 0.0
C2550 C 0.57511 0.97644 0.91256 0.0
C2551 C 0.58238 0.99348 0.90934 0.0
C2552 C 0.58152 0.97133 0.92507 0.0
C2553 C 0.59569 0.98352 0.93433 0.0
C2554 C 0.60322 0.00069 0.93091 0.0
C2555 C 0.5965 0.00543 0.91844 0.0
C2556 C 0.5732 0.95292 0.92835 0.0
C2557 C 0.61845 0.01407 0.94039 0.0
H2558 H 0.60403 0.97725 0.99028 0.0
H2559 H 0.63405 0.9721 0.95352 0.0
H2560 H 0.58895 0.99466 0.96698 0.0
H2561 H 0.57376 0.97328 0.96142 0.0
H2562 H 0.58163 0.97919 0.98272 0.0
H2563 H 0.62907 0.97093 0.9245 0.0
H2564 H 0.60967 0.96729 0.91742 0.0
H2565 H 0.62669 0.98828 0.92104 0.0
H2566 H 0.56442 0.96711 0.90528 0.0
H2567 H 0.60235 0.01856 0.91572 0.0
H2568 H 0.56956 0.95079 0.94168 0.0
H2569 H 0.58183 0.94869 0.92613 0.0
H2570 H 0.56214 0.94505 0.92022 0.0
H2571 H 0.61601 0.01375 0.95404 0.0
H2572 H 0.62279 0.02685 0.9362 0.0
H2573 H 0.62842 0.01164 0.93864 0.0
C2574 C 0.61044 0.99843 0.06173 0.0
C2575 C 0.62648 0.00376 0.05703 0.0
C2576 C 0.60744 0.00631 0.07533 0.0
C2577 C 0.6208 0.01981 0.08449 0.0
C2578 C 0.63701 0.02538 0.07971 0.0
C2579 C 0.63966 0.01731 0.06602 0.0
C2580 C 0.58998 8e-05 0.08002 0.0
C2581 C 0.65157 0.03971 0.08921 0.0
C2582 C 0.61438 0.04974 0.11185 0.0
C2583 C 0.61337 0.04365 0.12786 0.0
C2584 C 0.6165 0.04192 0.09756 0.0
C2585 C 0.61784 0.02782 0.09938 0.0
C2586 C 0.61676 0.02159 0.11551 0.0
C2587 C 0.61459 0.02963 0.12955 0.0
C2588 C 0.61758 0.04889 0.08056 0.0
C2589 C 0.61819 0.00663 0.11796 0.0
H2590 H 0.60018 0.98801 0.05482 0.0
H2591 H 0.65209 0.02152 0.06248 0.0
H2592 H 0.58774 0.99545 0.09293 0.0
H2593 H 0.58782 0.01051 0.08 0.0
H2594 H 0.58097 0.98979 0.0713 0.0
H2595 H 0.66338 0.04277 0.08366 0.0
H2596 H 0.65087 0.05107 0.08936 0.0
H2597 H 0.65145 0.03648 0.10247 0.0
H2598 H 0.61372 0.06076 0.11055 0.0
H2599 H 0.61405 0.02507 0.14195 0.0
H2600 H 0.60829 0.03894 0.07179 0.0
H2601 H 0.62977 0.05328 0.07516 0.0
H2602 H 0.61568 0.05953 0.08121 0.0
H2603 H 0.60881 0.99569 0.11015 0.0
H2604 H 0.61667 0.0031 0.13128 0.0
H2605 H 0.63035 0.00942 0.11378 0.0
C2606 C 0.97126 0.6147 0.0587 0.0
C2607 C 0.9875 0.62285 0.05333 0.0
C2608 C 0.96532 0.60184 0.07012 0.0
C2609 C 0.97583 0.59692 0.07622 0.0
C2610 C 0.99222 0.60508 0.07084 0.0
C2611 C 0.99787 0.61798 0.05953 0.0
C2612 C 0.9478 0.59353 0.0757 0.0
C2613 C 0.00377 0.60013 0.07698 0.0
C2614 C 0.96517 0.57419 0.11705 0.0
C2615 C 0.95761 0.5574 0.11125 0.0
C2616 C 0.97122 0.58718 0.1058 0.0
C2617 C 0.96971 0.58329 0.0883 0.0
C2618 C 0.96219 0.56637 0.08235 0.0
C2619 C 0.95606 0.5536 0.09389 0.0
C2620 C 0.97897 0.60503 0.11264 0.0
C2621 C 0.96046 0.56174 0.06378 0.0
H2622 H 0.96318 0.6184 0.054 0.0
H2623 H 0.01043 0.62416 0.05542 0.0
H2624 H 0.94109 0.57991 0.07232 0.0
H2625 H 0.94745 0.59492 0.08956 0.0
H2626 H 0.94126 0.59892 0.06992 0.0
H2627 H 0.01611 0.60762 0.07148 0.0
H2628 H 0.00507 0.6018 0.09086 0.0
H2629 H 0.9987 0.58667 0.07374 0.0
H2630 H 0.96606 0.57711 0.13045 0.0
H2631 H 0.94988 0.54063 0.08932 0.0
H2632 H 0.97201 0.61046 0.10805 0.0
H2633 H 0.99165 0.61282 0.10805 0.0
H2634 H 0.97936 0.60595 0.12659 0.0
H2635 H 0.95274 0.56558 0.05766 0.0
H2636 H 0.95486 0.54807 0.06122 0.0
H2637 H 0.97263 0.56854 0.05785 0.0
C2638 C 0.39934 0.39227 0.03685 0.0
C2639 C 0.38719 0.37635 0.03032 0.0
C2640 C 0.40923 0.39405 0.05065 0.0
C2641 C 0.4067 0.37956 0.05824 0.0
C2642 C 0.39477 0.36347 0.05139 0.0
C2643 C 0.38526 0.36206 0.03744 0.0
C2644 C 0.42201 0.41141 0.05742 0.0
C2645 C 0.39157 0.34771 0.05923 0.0
C2646 C 0.43792 0.38102 0.08827 0.0
C2647 C 0.43125 0.38119 0.10392 0.0
C2648 C 0.43042 0.38115 0.07328 0.0
C2649 C 0.41574 0.38113 0.07396 0.0
C2650 C 0.40912 0.38158 0.08974 0.0
C2651 C 0.41695 0.38159 0.10451 0.0
C2652 C 0.4379 0.38077 0.05671 0.0
C2653 C 0.39342 0.38142 0.09101 0.0
H2654 H 0.40097 0.40336 0.03134 0.0
H2655 H 0.37586 0.34971 0.03252 0.0
H2656 H 0.41855 0.41363 0.07011 0.0
H2657 H 0.43402 0.41257 0.05874 0.0
H2658 H 0.42345 0.42133 0.04922 0.0
H2659 H 0.3824 0.33617 0.05193 0.0
H2660 H 0.40309 0.34783 0.06024 0.0
H2661 H 0.38703 0.34716 0.07216 0.0
H2662 H 0.44881 0.38041 0.08775 0.0
H2663 H 0.41164 0.38146 0.11658 0.0
H2664 H 0.4393 0.39085 0.04881 0.0
H2665 H 0.42967 0.36865 0.04976 0.0
H2666 H 0.45006 0.38232 0.05837 0.0
H2667 H 0.39442 0.39186 0.08405 0.0
H2668 H 0.3903 0.38258 0.10423 0.0
H2669 H 0.38319 0.36955 0.08515 0.0
C2670 C 0.63128 0.69541 0.36663 0.0
C2671 C 0.64418 0.69291 0.36908 0.0
C2672 C 0.62571 0.70123 0.37993 0.0
C2673 C 0.63298 0.70423 0.39611 0.0
C2674 C 0.64566 0.7012 0.39876 0.0
C2675 C 0.65124 0.69576 0.38516 0.0
C2676 C 0.61239 0.70463 0.37655 0.0
C2677 C 0.65347 0.7039 0.41591 0.0
C2678 C 0.6316 0.73526 0.42682 0.0
C2679 C 0.61826 0.72465 0.43683 0.0
C2680 C 0.63627 0.72877 0.41334 0.0
C2681 C 0.62782 0.71121 0.41011 0.0
C2682 C 0.6146 0.70041 0.42033 0.0
C2683 C 0.60986 0.70727 0.43343 0.0
C2684 C 0.65026 0.74072 0.40253 0.0
C2685 C 0.60558 0.6816 0.41755 0.0
H2686 H 0.62585 0.6933 0.3542 0.0
H2687 H 0.66111 0.69368 0.38713 0.0
H2688 H 0.60196 0.69739 0.38499 0.0
H2689 H 0.61712 0.71811 0.37926 0.0
H2690 H 0.60779 0.70133 0.36334 0.0
H2691 H 0.66239 0.69988 0.41608 0.0
H2692 H 0.65993 0.71737 0.41993 0.0
H2693 H 0.64393 0.69685 0.42529 0.0
H2694 H 0.6384 0.7487 0.4294 0.0
H2695 H 0.59967 0.69903 0.44121 0.0
H2696 H 0.6462 0.73848 0.38917 0.0
H2697 H 0.66041 0.73849 0.40344 0.0
H2698 H 0.65507 0.75406 0.40624 0.0
H2699 H 0.60001 0.67788 0.40474 0.0
H2700 H 0.59577 0.67492 0.42682 0.0
H2701 H 0.6143 0.67737 0.41844 0.0
C2702 C 0.28212 0.9469 0.40209 0.0
C2703 C 0.2968 0.95121 0.39418 0.0
C2704 C 0.27558 0.93481 0.41435 0.0
C2705 C 0.28402 0.927 0.41891 0.0
C2706 C 0.29896 0.93147 0.41114 0.0
C2707 C 0.30512 0.94346 0.39882 0.0
C2708 C 0.25955 0.93025 0.42227 0.0
C2709 C 0.3084 0.92354 0.41581 0.0
C2710 C 0.27497 0.90609 0.4607 0.0
C2711 C 0.26549 0.88901 0.45562 0.0
C2712 C 0.28114 0.91859 0.44888 0.0
C2713 C 0.27717 0.91396 0.43165 0.0
C2714 C 0.26695 0.89684 0.42652 0.0
C2715 C 0.26127 0.88459 0.43856 0.0
C2716 C 0.29211 0.93673 0.45481 0.0
C2717 C 0.2621 0.89144 0.4083 0.0
H2718 H 0.2756 0.9528 0.39855 0.0
H2719 H 0.31651 0.94677 0.39283 0.0
H2720 H 0.25038 0.91671 0.41979 0.0
H2721 H 0.26117 0.93247 0.43609 0.0
H2722 H 0.25457 0.93757 0.41741 0.0
H2723 H 0.32004 0.92873 0.40891 0.0
H2724 H 0.31124 0.92552 0.42949 0.0
H2725 H 0.30083 0.9098 0.41304 0.0
H2726 H 0.27779 0.90978 0.47387 0.0
H2727 H 0.2535 0.87147 0.43462 0.0
H2728 H 0.28676 0.94403 0.45103 0.0
H2729 H 0.3042 0.94225 0.44877 0.0
H2730 H 0.29404 0.93824 0.46865 0.0
H2731 H 0.25627 0.89786 0.40323 0.0
H2732 H 0.25347 0.87768 0.40648 0.0
H2733 H 0.27315 0.89515 0.40079 0.0
C2734 C 0.0659 0.36967 0.3913 0.0
C2735 C 0.06147 0.35459 0.38254 0.0
C2736 C 0.07878 0.37702 0.40321 0.0
C2737 C 0.08764 0.36927 0.40618 0.0
C2738 C 0.08318 0.35401 0.39742 0.0
C2739 C 0.07004 0.34676 0.38582 0.0
C2740 C 0.08297 0.39313 0.41254 0.0
C2741 C 0.09252 0.34553 0.40005 0.0
C2742 C 0.13072 0.39724 0.42437 0.0
C2743 C 0.12845 0.39314 0.4413 0.0
C2744 C 0.11759 0.38937 0.41276 0.0
C2745 C 0.10175 0.37731 0.41826 0.0
C2746 C 0.09938 0.37305 0.4353 0.0
C2747 C 0.11279 0.38086 0.44657 0.0
C2748 C 0.12065 0.39401 0.39461 0.0
C2749 C 0.08265 0.36041 0.44168 0.0
H2750 H 0.05925 0.37572 0.38887 0.0
H2751 H 0.06675 0.33517 0.37899 0.0
H2752 H 0.08261 0.39157 0.42629 0.0
H2753 H 0.09559 0.40327 0.40958 0.0
H2754 H 0.07444 0.39717 0.40929 0.0
H2755 H 0.08743 0.33366 0.39232 0.0
H2756 H 0.10553 0.35406 0.39677 0.0
H2757 H 0.09228 0.34272 0.41346 0.0
H2758 H 0.14281 0.40662 0.4202 0.0
H2759 H 0.11102 0.37749 0.45958 0.0
H2760 H 0.11348 0.3995 0.39091 0.0
H2761 H 0.11649 0.38261 0.38638 0.0
H2762 H 0.13379 0.40317 0.39225 0.0
H2763 H 0.07404 0.36454 0.43927 0.0
H2764 H 0.08285 0.35863 0.45535 0.0
H2765 H 0.07774 0.34812 0.43484 0.0
C2766 C 0.06513 0.32684 0.31838 0.0
C2767 C 0.05285 0.32951 0.31336 0.0
C2768 C 0.06939 0.31734 0.30814 0.0
C2769 C 0.06173 0.31105 0.29217 0.0
C2770 C 0.04933 0.31374 0.28701 0.0
C2771 C 0.0448 0.3227 0.29784 0.0
C2772 C 0.08203 0.31399 0.31455 0.0
C2773 C 0.04121 0.30761 0.26989 0.0
C2774 C 0.09448 0.30335 0.2586 0.0
C2775 C 0.07919 0.28079 0.25339 0.0
C2776 C 0.08683 0.31385 0.27133 0.0
C2777 C 0.06697 0.30202 0.2809 0.0
C2778 C 0.05455 0.27935 0.27914 0.0
C2779 C 0.06112 0.26774 0.26656 0.0
C2780 C 0.09701 0.33249 0.27348 0.0
C2781 C 0.03894 0.26996 0.28843 0.0
H2782 H 0.07119 0.3319 0.33051 0.0
H2783 H 0.03533 0.32482 0.29396 0.0
H2784 H 0.0783 0.30082 0.31148 0.0
H2785 H 0.09386 0.32231 0.30843 0.0
H2786 H 0.08401 0.31642 0.32835 0.0
H2787 H 0.03231 0.31138 0.26749 0.0
H2788 H 0.05064 0.31269 0.26004 0.0
H2789 H 0.03468 0.29374 0.26872 0.0
H2790 H 0.10573 0.31036 0.25177 0.0
H2791 H 0.05325 0.25432 0.2643 0.0
H2792 H 0.10744 0.33612 0.28215 0.0
H2793 H 0.08973 0.33758 0.27861 0.0
H2794 H 0.10216 0.33791 0.2612 0.0
H2795 H 0.03888 0.27766 0.2993 0.0
H2796 H 0.03722 0.25808 0.29268 0.0
H2797 H 0.0286 0.26673 0.27981 0.0
C2798 C 0.68219 0.73019 0.29454 0.0
C2799 C 0.69113 0.72666 0.30555 0.0
C2800 C 0.69011 0.74383 0.28411 0.0
C2801 C 0.70735 0.75444 0.285 0.0
C2802 C 0.71646 0.75097 0.29609 0.0
C2803 C 0.70825 0.73696 0.30609 0.0
C2804 C 0.68 0.74677 0.27205 0.0
C2805 C 0.73483 0.76229 0.29768 0.0
C2806 C 0.73618 0.7868 0.24299 0.0
C2807 C 0.73279 0.80399 0.24914 0.0
C2808 C 0.72571 0.76872 0.25571 0.0
C2809 C 0.71577 0.76938 0.2748 0.0
C2810 C 0.71687 0.78826 0.28257 0.0
C2811 C 0.72701 0.80695 0.27073 0.0
C2812 C 0.72493 0.75304 0.25006 0.0
C2813 C 0.7096 0.78852 0.29904 0.0
H2814 H 0.66896 0.72215 0.29394 0.0
H2815 H 0.7152 0.73432 0.31465 0.0
H2816 H 0.68138 0.75902 0.27526 0.0
H2817 H 0.68441 0.74719 0.25908 0.0
H2818 H 0.66679 0.73684 0.27229 0.0
H2819 H 0.74005 0.75839 0.30756 0.0
H2820 H 0.74046 0.76222 0.28554 0.0
H2821 H 0.73826 0.77538 0.30072 0.0
H2822 H 0.74082 0.78607 0.23081 0.0
H2823 H 0.72679 0.81795 0.27461 0.0
H2824 H 0.71367 0.7419 0.25466 0.0
H2825 H 0.73572 0.75334 0.25525 0.0
H2826 H 0.72531 0.75224 0.23615 0.0
H2827 H 0.69607 0.78081 0.2978 0.0
H2828 H 0.71352 0.80154 0.30312 0.0
H2829 H 0.71334 0.78287 0.30856 0.0
C2830 C 0.26602 0.94483 0.32107 0.0
C2831 C 0.28085 0.96038 0.32254 0.0
C2832 C 0.25431 0.9416 0.30869 0.0
C2833 C 0.25758 0.95416 0.29738 0.0
C2834 C 0.27238 0.97 0.29899 0.0
C2835 C 0.2838 0.97296 0.31162 0.0
C2836 C 0.23857 0.92462 0.30748 0.0
C2837 C 0.27635 0.98367 0.28709 0.0
C2838 C 0.23586 0.93962 0.25486 0.0
C2839 C 0.22321 0.94265 0.25695 0.0
C2840 C 0.24718 0.94341 0.26788 0.0
C2841 C 0.24583 0.95044 0.28339 0.0
C2842 C 0.23321 0.95373 0.28553 0.0
C2843 C 0.22209 0.94987 0.27224 0.0
C2844 C 0.26054 0.93983 0.26507 0.0
C2845 C 0.23141 0.96123 0.30188 0.0
H2846 H 0.2636 0.93509 0.32954 0.0
H2847 H 0.29525 0.98501 0.31266 0.0
H2848 H 0.2279 0.92608 0.30782 0.0
H2849 H 0.23791 0.91809 0.29532 0.0
H2850 H 0.2375 0.91655 0.31781 0.0
H2851 H 0.28805 0.99553 0.2905 0.0
H2852 H 0.27725 0.97949 0.27412 0.0
H2853 H 0.2664 0.98624 0.28696 0.0
H2854 H 0.23688 0.93424 0.24297 0.0
H2855 H 0.21245 0.95242 0.27383 0.0
H2856 H 0.25948 0.93077 0.27422 0.0
H2857 H 0.2727 0.9515 0.2672 0.0
H2858 H 0.26004 0.93459 0.25218 0.0
H2859 H 0.22947 0.95291 0.31225 0.0
H2860 H 0.22101 0.96313 0.30147 0.0
H2861 H 0.24281 0.97348 0.30492 0.0
C2862 C 0.69892 0.9766 0.30532 0.0
C2863 C 0.68682 0.96211 0.31301 0.0
C2864 C 0.70765 0.97561 0.29167 0.0
C2865 C 0.70426 0.95974 0.28557 0.0
C2866 C 0.69229 0.94508 0.29346 0.0
C2867 C 0.68368 0.94643 0.30707 0.0
C2868 C 0.72029 0.99153 0.28357 0.0
C2869 C 0.68842 0.92795 0.28734 0.0
C2870 C 0.71535 0.95743 0.24021 0.0
C2871 C 0.7305 0.95893 0.24202 0.0
C2872 C 0.70643 0.95715 0.25429 0.0
C2873 C 0.71292 0.95854 0.27059 0.0
C2874 C 0.72809 0.95974 0.27251 0.0
C2875 C 0.73674 0.96 0.25819 0.0
C2876 C 0.69032 0.95589 0.25172 0.0
C2877 C 0.7354 0.96126 0.28968 0.0
H2878 H 0.70144 0.98878 0.30981 0.0
H2879 H 0.67439 0.93518 0.31296 0.0
H2880 H 0.73231 0.99262 0.28354 0.0
H2881 H 0.7167 0.99117 0.27029 0.0
H2882 H 0.72178 0.00292 0.29012 0.0
H2883 H 0.67926 0.91785 0.29526 0.0
H2884 H 0.6836 0.92529 0.27423 0.0
H2885 H 0.69974 0.92761 0.28727 0.0
H2886 H 0.7106 0.9568 0.22772 0.0
H2887 H 0.74857 0.96139 0.25961 0.0
H2888 H 0.69129 0.96753 0.25677 0.0
H2889 H 0.68055 0.94535 0.25872 0.0
H2890 H 0.68656 0.95397 0.23826 0.0
H2891 H 0.73838 0.97323 0.29617 0.0
H2892 H 0.74673 0.96095 0.28902 0.0
H2893 H 0.72642 0.95095 0.29749 0.0
C2894 C 0.02947 0.74425 0.30308 0.0
C2895 C 0.04104 0.74007 0.30674 0.0
C2896 C 0.03196 0.75495 0.29013 0.0
C2897 C 0.04648 0.76185 0.28074 0.0
C2898 C 0.05847 0.75816 0.28473 0.0
C2899 C 0.05555 0.74721 0.29762 0.0
C2900 C 0.0188 0.75843 0.28615 0.0
C2901 C 0.07421 0.7655 0.27516 0.0
C2902 C 0.04372 0.77417 0.23675 0.0
C2903 C 0.04997 0.79135 0.23922 0.0
C2904 C 0.04291 0.76451 0.25007 0.0
C2905 C 0.04866 0.77226 0.26625 0.0
C2906 C 0.05549 0.78973 0.26873 0.0
C2907 C 0.05584 0.79903 0.25525 0.0
C2908 C 0.03528 0.74587 0.24695 0.0
C2909 C 0.06197 0.79848 0.28575 0.0
H2910 H 0.0182 0.73877 0.31003 0.0
H2911 H 0.06459 0.74413 0.30043 0.0
H2912 H 0.02396 0.77213 0.28675 0.0
H2913 H 0.01401 0.75372 0.27316 0.0
H2914 H 0.00841 0.75243 0.29492 0.0
H2915 H 0.08275 0.76231 0.28055 0.0
H2916 H 0.07149 0.76074 0.26187 0.0
H2917 H 0.08043 0.77934 0.27518 0.0
H2918 H 0.03896 0.76818 0.22444 0.0
H2919 H 0.06044 0.81225 0.25735 0.0
H2920 H 0.02401 0.73895 0.25441 0.0
H2921 H 0.04379 0.74214 0.25111 0.0
H2922 H 0.03203 0.74191 0.23349 0.0
H2923 H 0.0517 0.79411 0.2946 0.0
H2924 H 0.06835 0.81233 0.28522 0.0
H2925 H 0.07058 0.79532 0.29095 0.0
C2926 C 0.27689 0.295 0.28886 0.0
C2927 C 0.27671 0.30419 0.30307 0.0
C2928 C 0.2647 0.28897 0.27628 0.0
C2929 C 0.25202 0.29223 0.27791 0.0
C2930 C 0.25159 0.30125 0.29235 0.0
C2931 C 0.26394 0.30711 0.30477 0.0
C2932 C 0.26554 0.27935 0.26109 0.0
C2933 C 0.23827 0.30497 0.29452 0.0
C2934 C 0.23126 0.29122 0.2372 0.0
C2935 C 0.21698 0.2752 0.23701 0.0
C2936 C 0.24253 0.29711 0.25068 0.0
C2937 C 0.23953 0.28663 0.26422 0.0
C2938 C 0.22497 0.27056 0.26427 0.0
C2939 C 0.21384 0.26505 0.25067 0.0
C2940 C 0.25786 0.31437 0.25022 0.0
C2941 C 0.22138 0.259 0.27843 0.0
H2942 H 0.28667 0.29264 0.28745 0.0
H2943 H 0.26368 0.31418 0.31571 0.0
H2944 H 0.25396 0.26695 0.25953 0.0
H2945 H 0.26701 0.28624 0.2496 0.0
H2946 H 0.27586 0.27737 0.262 0.0
H2947 H 0.23935 0.31162 0.30675 0.0
H2948 H 0.23879 0.31284 0.28426 0.0
H2949 H 0.22607 0.29315 0.29364 0.0
H2950 H 0.23375 0.29908 0.22664 0.0
H2951 H 0.20282 0.25264 0.25051 0.0
H2952 H 0.26876 0.31331 0.24962 0.0
H2953 H 0.25909 0.32183 0.26188 0.0
H2954 H 0.25791 0.3213 0.23927 0.0
H2955 H 0.23081 0.25569 0.27894 0.0
H2956 H 0.20915 0.24725 0.27698 0.0
H2957 H 0.22196 0.26541 0.29064 0.0
C2958 C 0.27687 0.34861 0.38712 0.0
C2959 C 0.29181 0.35042 0.38267 0.0
C2960 C 0.27592 0.35774 0.40098 0.0
C2961 C 0.29023 0.3689 0.41062 0.0
C2962 C 0.30534 0.37083 0.40615 0.0
C2963 C 0.30595 0.36159 0.39224 0.0
C2964 C 0.25961 0.35539 0.40537 0.0
C2965 C 0.32088 0.38261 0.41613 0.0
C2966 C 0.29323 0.40423 0.43828 0.0
C2967 C 0.29107 0.39781 0.4543 0.0
C2968 C 0.29243 0.39473 0.42387 0.0
C2969 C 0.28948 0.37847 0.42555 0.0
C2970 C 0.28687 0.37176 0.44165 0.0
C2971 C 0.28778 0.38155 0.45584 0.0
C2972 C 0.29531 0.40233 0.40692 0.0
C2973 C 0.28368 0.35446 0.44395 0.0
H2974 H 0.2659 0.34003 0.37979 0.0
H2975 H 0.31754 0.36308 0.38892 0.0
H2976 H 0.25622 0.35075 0.41823 0.0
H2977 H 0.26046 0.3676 0.40533 0.0
H2978 H 0.24967 0.3464 0.39648 0.0
H2979 H 0.33166 0.3828 0.41089 0.0
H2980 H 0.32336 0.39553 0.41635 0.0
H2981 H 0.31942 0.37882 0.42933 0.0
H2982 H 0.29595 0.41687 0.4371 0.0
H2983 H 0.28625 0.37663 0.46822 0.0
H2984 H 0.28522 0.39373 0.39802 0.0
H2985 H 0.3068 0.40417 0.40166 0.0
H2986 H 0.29629 0.41462 0.40764 0.0
H2987 H 0.27334 0.34508 0.43569 0.0
H2988 H 0.28079 0.35065 0.45714 0.0
H2989 H 0.29461 0.35414 0.44024 0.0
C2990 C 0.63119 0.94952 0.40258 0.0
C2991 C 0.64262 0.95019 0.39116 0.0
C2992 C 0.62379 0.93685 0.41417 0.0
C2993 C 0.62791 0.92453 0.41439 0.0
C2994 C 0.63959 0.92522 0.40305 0.0
C2995 C 0.64681 0.93805 0.39156 0.0
C2996 C 0.61141 0.93656 0.42608 0.0
C2997 C 0.64432 0.91233 0.40296 0.0
C2998 C 0.61782 0.90104 0.45465 0.0
C2999 C 0.6027 0.88645 0.45044 0.0
C3000 C 0.62651 0.91324 0.44282 0.0
C3001 C 0.61982 0.91086 0.42644 0.0
C3002 C 0.60478 0.89592 0.42196 0.0
C3003 C 0.59639 0.8839 0.43403 0.0
C3004 C 0.64253 0.92897 0.44806 0.0
C3005 C 0.59723 0.89294 0.40464 0.0
H3006 H 0.62788 0.95883 0.40239 0.0
H3007 H 0.65562 0.93847 0.38277 0.0
H3008 H 0.59942 0.92463 0.42408 0.0
H3009 H 0.61536 0.93713 0.43926 0.0
H3010 H 0.60968 0.94716 0.42441 0.0
H3011 H 0.65384 0.91482 0.39358 0.0
H3012 H 0.64898 0.91211 0.41557 0.0
H3013 H 0.63339 0.89966 0.40007 0.0
H3014 H 0.62266 0.90311 0.46736 0.0
H3015 H 0.58463 0.87269 0.4308 0.0
H3016 H 0.64113 0.93991 0.4481 0.0
H3017 H 0.65217 0.93128 0.43895 0.0
H3018 H 0.64672 0.92827 0.46078 0.0
H3019 H 0.59382 0.90228 0.40261 0.0
H3020 H 0.58611 0.88018 0.40279 0.0
H3021 H 0.6062 0.89464 0.39492 0.0
C3022 C 0.07122 0.73758 0.38599 0.0
C3023 C 0.05674 0.72249 0.38118 0.0
C3024 C 0.08039 0.73868 0.40017 0.0
C3025 C 0.07489 0.72439 0.40978 0.0
C3026 C 0.06041 0.70909 0.40485 0.0
C3027 C 0.05156 0.70831 0.3906 0.0
C3028 C 0.09584 0.75517 0.405 0.0
C3029 C 0.0541 0.69357 0.41479 0.0
C3030 C 0.10299 0.7203 0.43954 0.0
C3031 C 0.0982 0.72347 0.45519 0.0
C3032 C 0.09598 0.72121 0.42457 0.0
C3033 C 0.08391 0.7254 0.4253 0.0
C3034 C 0.07948 0.72921 0.44104 0.0
C3035 C 0.08662 0.72811 0.45581 0.0
C3036 C 0.10098 0.71701 0.40804 0.0
C3037 C 0.0667 0.73379 0.44234 0.0
H3038 H 0.07535 0.74857 0.37874 0.0
H3039 H 0.04039 0.69659 0.387 0.0
H3040 H 0.09448 0.75978 0.41756 0.0
H3041 H 0.10631 0.75344 0.40592 0.0
H3042 H 0.09882 0.76492 0.39584 0.0
H3043 H 0.04284 0.68255 0.40904 0.0
H3044 H 0.0636 0.69041 0.41576 0.0
H3045 H 0.05133 0.69595 0.42776 0.0
H3046 H 0.11189 0.71663 0.43906 0.0
H3047 H 0.08286 0.7305 0.46789 0.0
H3048 H 0.10429 0.72698 0.39908 0.0
H3049 H 0.09053 0.70519 0.40237 0.0
H3050 H 0.11152 0.71543 0.40951 0.0
H3051 H 0.06969 0.74411 0.43396 0.0
H3052 H 0.06562 0.73773 0.45537 0.0
H3053 H 0.05461 0.72285 0.43816 0.0
C3054 C 0.30909 0.04178 0.70744 0.0
C3055 C 0.32539 0.04743 0.71159 0.0
C3056 C 0.29988 0.04599 0.71783 0.0
C3057 C 0.30708 0.05587 0.73277 0.0
C3058 C 0.32338 0.06131 0.7372 0.0
C3059 C 0.33238 0.05709 0.72652 0.0
C3060 C 0.28258 0.0402 0.71263 0.0
C3061 C 0.33139 0.07169 0.75315 0.0
C3062 C 0.28835 0.08767 0.75133 0.0
C3063 C 0.2783 0.07532 0.77011 0.0
C3064 C 0.29952 0.08066 0.7391 0.0
C3065 C 0.29783 0.06113 0.74329 0.0
C3066 C 0.28415 0.04726 0.75886 0.0
C3067 C 0.27245 0.05316 0.77176 0.0
C3068 C 0.31021 0.09106 0.72539 0.0
C3069 C 0.28284 0.03102 0.76135 0.0
H3070 H 0.3036 0.03433 0.69591 0.0
H3071 H 0.34493 0.06141 0.72988 0.0
H3072 H 0.27402 0.03287 0.72267 0.0
H3073 H 0.2816 0.05126 0.71091 0.0
H3074 H 0.27865 0.03234 0.70076 0.0
H3075 H 0.34393 0.0743 0.75515 0.0
H3076 H 0.33214 0.08382 0.75266 0.0
H3077 H 0.32387 0.06506 0.76408 0.0
H3078 H 0.29017 0.0999 0.74982 0.0
H3079 H 0.26543 0.04574 0.78215 0.0
H3080 H 0.3063 0.08346 0.71339 0.0
H3081 H 0.323 0.09478 0.72812 0.0
H3082 H 0.30958 0.10238 0.72424 0.0
H3083 H 0.27757 0.02282 0.74981 0.0
H3084 H 0.27499 0.0247 0.7722 0.0
H3085 H 0.29525 0.03334 0.76341 0.0
C3086 C 0.96537 0.28061 0.7363 0.0
C3087 C 0.97422 0.28172 0.72186 0.0
C3088 C 0.95929 0.26685 0.74657 0.0
C3089 C 0.96206 0.25389 0.74226 0.0
C3090 C 0.97122 0.25505 0.72791 0.0
C3091 C 0.97725 0.26899 0.71789 0.0
C3092 C 0.94967 0.26608 0.76187 0.0
C3093 C 0.9743 0.24136 0.72292 0.0
C3094 C 0.95818 0.21908 0.78091 0.0
C3095 C 0.93588 0.20373 0.7772 0.0
C3096 C 0.96664 0.23757 0.76881 0.0
C3097 C 0.9547 0.23877 0.75217 0.0
C3098 C 0.93453 0.22134 0.7461 0.0
C3099 C 0.925 0.20233 0.75741 0.0
C3100 C 0.98348 0.2521 0.77279 0.0
C3101 C 0.92568 0.22269 0.73162 0.0
H3102 H 0.96302 0.29041 0.73952 0.0
H3103 H 0.98408 0.26972 0.70676 0.0
H3104 H 0.93696 0.2551 0.76042 0.0
H3105 H 0.95524 0.26445 0.77318 0.0
H3106 H 0.94923 0.27755 0.76392 0.0
H3107 H 0.98211 0.24438 0.71169 0.0
H3108 H 0.98033 0.23923 0.73348 0.0
H3109 H 0.96245 0.22945 0.72017 0.0
H3110 H 0.96457 0.21881 0.79187 0.0
H3111 H 0.91248 0.1923 0.75474 0.0
H3112 H 0.98302 0.26348 0.77545 0.0
H3113 H 0.99129 0.25444 0.7617 0.0
H3114 H 0.9888 0.24963 0.78375 0.0
H3115 H 0.92412 0.23342 0.73413 0.0
H3116 H 0.91355 0.21095 0.72954 0.0
H3117 H 0.93314 0.22531 0.72019 0.0
C3118 C 0.71885 0.7042 0.73926 0.0
C3119 C 0.71962 0.69939 0.72256 0.0
C3120 C 0.73208 0.70979 0.75052 0.0
C3121 C 0.7464 0.71052 0.74497 0.0
C3122 C 0.74732 0.70582 0.7281 0.0
C3123 C 0.73394 0.70036 0.71709 0.0
C3124 C 0.73068 0.71479 0.7684 0.0
C3125 C 0.76236 0.70638 0.72173 0.0
C3126 C 0.78575 0.73825 0.7704 0.0
C3127 C 0.78644 0.72656 0.78009 0.0
C3128 C 0.7729 0.73319 0.75878 0.0
C3129 C 0.76036 0.71603 0.75689 0.0
C3130 C 0.76099 0.70415 0.76662 0.0
C3131 C 0.77395 0.70957 0.77818 0.0
C3132 C 0.77262 0.74624 0.7487 0.0
C3133 C 0.74784 0.68574 0.76498 0.0
H3134 H 0.70786 0.70352 0.74359 0.0
H3135 H 0.73465 0.69663 0.70422 0.0
H3136 H 0.73188 0.70667 0.77719 0.0
H3137 H 0.74078 0.72788 0.77147 0.0
H3138 H 0.71884 0.71381 0.77065 0.0
H3139 H 0.76121 0.70248 0.70821 0.0
H3140 H 0.77327 0.71926 0.72357 0.0
H3141 H 0.7646 0.698 0.72902 0.0
H3142 H 0.7952 0.75143 0.77208 0.0
H3143 H 0.77425 0.70054 0.78591 0.0
H3144 H 0.76144 0.74641 0.75155 0.0
H3145 H 0.77216 0.74305 0.73507 0.0
H3146 H 0.78349 0.75902 0.75138 0.0
H3147 H 0.73584 0.68387 0.76844 0.0
H3148 H 0.75038 0.67805 0.7731 0.0
H3149 H 0.74672 0.68105 0.75175 0.0
C3150 C 0.71654 0.64919 0.6497 0.0
C3151 C 0.70535 0.65421 0.64777 0.0
C3152 C 0.7209 0.64264 0.63598 0.0
C3153 C 0.71388 0.64105 0.61993 0.0
C3154 C 0.70234 0.64579 0.61794 0.0
C3155 C 0.69822 0.65233 0.63188 0.0
C3156 C 0.73325 0.63772 0.63859 0.0
C3157 C 0.69455 0.64421 0.60103 0.0
C3158 C 0.73752 0.64062 0.58187 0.0
C3159 C 0.72969 0.62339 0.57773 0.0
C3160 C 0.73249 0.64651 0.59557 0.0
C3161 C 0.71906 0.63495 0.60514 0.0
C3162 C 0.71078 0.61759 0.60072 0.0
C3163 C 0.71619 0.61203 0.58706 0.0
C3164 C 0.74164 0.66512 0.59989 0.0
C3165 C 0.69625 0.60491 0.61047 0.0
H3166 H 0.72209 0.65056 0.66192 0.0
H3167 H 0.68953 0.65614 0.63027 0.0
H3168 H 0.728 0.62445 0.6343 0.0
H3169 H 0.7442 0.64551 0.63094 0.0
H3170 H 0.73721 0.63928 0.65195 0.0
H3171 H 0.68528 0.64776 0.60174 0.0
H3172 H 0.7041 0.65237 0.5921 0.0
H3173 H 0.68858 0.63113 0.59578 0.0
H3174 H 0.74768 0.6495 0.57443 0.0
H3175 H 0.70988 0.59875 0.58364 0.0
H3176 H 0.74677 0.66769 0.61286 0.0
H3177 H 0.73313 0.66964 0.59951 0.0
H3178 H 0.7518 0.67245 0.59116 0.0
H3179 H 0.69997 0.60542 0.62374 0.0
H3180 H 0.69091 0.59191 0.60516 0.0
H3181 H 0.68662 0.60794 0.61053 0.0
C3182 C 0.36074 0.06467 0.61706 0.0
C3183 C 0.3629 0.06475 0.63446 0.0
C3184 C 0.36839 0.07968 0.60854 0.0
C3185 C 0.37836 0.09509 0.61763 0.0
C3186 C 0.38087 0.09527 0.63511 0.0
C3187 C 0.37314 0.08009 0.64333 0.0
C3188 C 0.36556 0.07906 0.58986 0.0
C3189 C 0.39146 0.11152 0.64517 0.0
C3190 C 0.41557 0.14035 0.59115 0.0
C3191 C 0.40162 0.14786 0.58701 0.0
C3192 C 0.40605 0.12051 0.60105 0.0
C3193 C 0.38559 0.11104 0.60913 0.0
C3194 C 0.37432 0.12138 0.60884 0.0
C3195 C 0.38277 0.14124 0.59925 0.0
C3196 C 0.41509 0.11181 0.60247 0.0
C3197 C 0.35784 0.11337 0.61648 0.0
H3198 H 0.35291 0.05288 0.61008 0.0
H3199 H 0.3749 0.0803 0.65677 0.0
H3200 H 0.35935 0.08582 0.58722 0.0
H3201 H 0.37748 0.08546 0.58341 0.0
H3202 H 0.35794 0.06601 0.5845 0.0
H3203 H 0.39265 0.1095 0.65858 0.0
H3204 H 0.40385 0.11863 0.63975 0.0
H3205 H 0.38613 0.11941 0.64449 0.0
H3206 H 0.42717 0.14542 0.58495 0.0
H3207 H 0.37567 0.14694 0.59782 0.0
H3208 H 0.40788 0.0992 0.59608 0.0
H3209 H 0.41639 0.11002 0.6159 0.0
H3210 H 0.42733 0.11918 0.59679 0.0
H3211 H 0.34979 0.10064 0.61058 0.0
H3212 H 0.35241 0.12104 0.61476 0.0
H3213 H 0.35896 0.11193 0.63006 0.0
C3214 C 0.93994 0.30231 0.64958 0.0
C3215 C 0.95251 0.29904 0.64942 0.0
C3216 C 0.92952 0.29808 0.63556 0.0
C3217 C 0.93158 0.29015 0.62113 0.0
C3218 C 0.944 0.28646 0.62103 0.0
C3219 C 0.95441 0.29106 0.63513 0.0
C3220 C 0.91655 0.30241 0.63606 0.0
C3221 C 0.94642 0.27782 0.60594 0.0
C3222 C 0.89594 0.26723 0.58994 0.0
C3223 C 0.90071 0.27881 0.57728 0.0
C3224 C 0.90592 0.27063 0.60415 0.0
C3225 C 0.921 0.28616 0.60596 0.0
C3226 C 0.92591 0.29801 0.5934 0.0
C3227 C 0.91576 0.29424 0.57924 0.0
C3228 C 0.90029 0.25764 0.61727 0.0
C3229 C 0.94187 0.31479 0.595 0.0
H3230 H 0.93847 0.30856 0.66053 0.0
H3231 H 0.96406 0.28843 0.63496 0.0
H3232 H 0.91872 0.31117 0.62605 0.0
H3233 H 0.90429 0.29096 0.63357 0.0
H3234 H 0.91637 0.30832 0.64835 0.0
H3235 H 0.95618 0.2752 0.60814 0.0
H3236 H 0.93484 0.26581 0.60267 0.0
H3237 H 0.94971 0.28576 0.59493 0.0
H3238 H 0.88428 0.25541 0.58867 0.0
H3239 H 0.91975 0.30355 0.56987 0.0
H3240 H 0.89892 0.26282 0.62948 0.0
H3241 H 0.90961 0.25435 0.61915 0.0
H3242 H 0.88842 0.24601 0.61376 0.0
H3243 H 0.94198 0.32176 0.60661 0.0
H3244 H 0.94397 0.32264 0.58411 0.0
H3245 H 0.95225 0.31293 0.59607 0.0
C3246 C 0.34945 0.30751 0.6336 0.0
C3247 C 0.35533 0.30695 0.64944 0.0
C3248 C 0.35508 0.30368 0.61889 0.0
C3249 C 0.36659 0.29879 0.62007 0.0
C3250 C 0.37233 0.29789 0.63605 0.0
C3251 C 0.36678 0.30219 0.65056 0.0
C3252 C 0.3489 0.30512 0.60207 0.0
C3253 C 0.3843 0.29234 0.63781 0.0
C3254 C 0.36893 0.27532 0.58139 0.0
C3255 C 0.3827 0.28803 0.57338 0.0
C3256 C 0.36386 0.27849 0.59687 0.0
C3257 C 0.37269 0.29483 0.6045 0.0
C3258 C 0.38695 0.30759 0.59683 0.0
C3259 C 0.39198 0.30396 0.58156 0.0
C3260 C 0.34887 0.26441 0.60491 0.0
C3261 C 0.39661 0.32523 0.60451 0.0
H3262 H 0.34069 0.31132 0.63267 0.0
H3263 H 0.37127 0.30165 0.6628 0.0
H3264 H 0.35936 0.31415 0.59447 0.0
H3265 H 0.34271 0.29282 0.59502 0.0
H3266 H 0.34017 0.30935 0.60333 0.0
H3267 H 0.38708 0.29169 0.65116 0.0
H3268 H 0.37928 0.27981 0.63147 0.0
H3269 H 0.39591 0.30115 0.63158 0.0
H3270 H 0.36198 0.26287 0.5754 0.0
H3271 H 0.403 0.31376 0.57593 0.0
H3272 H 0.33902 0.26713 0.60518 0.0
H3273 H 0.35171 0.26339 0.61811 0.0
H3274 H 0.34418 0.25214 0.59807 0.0
H3275 H 0.38873 0.33051 0.60531 0.0
H3276 H 0.40758 0.33366 0.59713 0.0
H3277 H 0.40063 0.32516 0.61749 0.0
C3278 C 0.69153 0.0544 0.61245 0.0
C3279 C 0.7006 0.05762 0.62733 0.0
C3280 C 0.69734 0.06606 0.59983 0.0
C3281 C 0.71275 0.0812 0.602 0.0
C3282 C 0.72207 0.08448 0.61691 0.0
C3283 C 0.71581 0.0727 0.62949 0.0
C3284 C 0.68691 0.06219 0.5842 0.0
C3285 C 0.73867 0.10038 0.61953 0.0
C3286 C 0.73147 0.10219 0.56126 0.0
C3287 C 0.72714 0.1142 0.56097 0.0
C3288 C 0.72758 0.09191 0.57495 0.0
C3289 C 0.71895 0.09352 0.58856 0.0
C3290 C 0.71508 0.10605 0.58863 0.0
C3291 C 0.71938 0.11636 0.5749 0.0
C3292 C 0.73217 0.07889 0.57456 0.0
C3293 C 0.70574 0.10806 0.60282 0.0
H3294 H 0.67971 0.04283 0.61073 0.0
H3295 H 0.72291 0.07521 0.64094 0.0
H3296 H 0.68433 0.07221 0.58263 0.0
H3297 H 0.6936 0.0619 0.57296 0.0
H3298 H 0.67508 0.04998 0.5846 0.0
H3299 H 0.7445 0.10091 0.63171 0.0
H3300 H 0.74688 0.10137 0.60922 0.0
H3301 H 0.73751 0.11145 0.61914 0.0
H3302 H 0.73762 0.1006 0.55059 0.0
H3303 H 0.7162 0.12578 0.57479 0.0
H3304 H 0.72093 0.06618 0.57328 0.0
H3305 H 0.73842 0.07962 0.58649 0.0
H3306 H 0.74031 0.0804 0.56396 0.0
H3307 H 0.69326 0.09666 0.60315 0.0
H3308 H 0.70464 0.1191 0.6015 0.0
H3309 H 0.71184 0.10941 0.61505 0.0
C3310 C 0.93576 0.64181 0.62554 0.0
C3311 C 0.93592 0.65517 0.63417 0.0
C3312 C 0.92494 0.63305 0.61197 0.0
C3313 C 0.91398 0.63774 0.60685 0.0
C3314 C 0.91406 0.65123 0.61545 0.0
C3315 C 0.92505 0.65981 0.62903 0.0
C3316 C 0.92525 0.61874 0.60311 0.0
C3317 C 0.90252 0.65656 0.61034 0.0
C3318 C 0.8976 0.62354 0.56219 0.0
C3319 C 0.88254 0.60871 0.56468 0.0
C3320 C 0.90765 0.63353 0.57584 0.0
C3321 C 0.90255 0.62849 0.5924 0.0
C3322 C 0.88712 0.61379 0.59502 0.0
C3323 C 0.87734 0.60401 0.58111 0.0
C3324 C 0.92403 0.64908 0.57253 0.0
C3325 C 0.88126 0.60799 0.61247 0.0
H3326 H 0.9441 0.63811 0.6294 0.0
H3327 H 0.92507 0.6701 0.63563 0.0
H3328 H 0.91306 0.60699 0.60374 0.0
H3329 H 0.92798 0.62129 0.58964 0.0
H3330 H 0.93453 0.61667 0.60866 0.0
H3331 H 0.9041 0.66729 0.61831 0.0
H3332 H 0.90454 0.66018 0.59706 0.0
H3333 H 0.88967 0.6459 0.61118 0.0
H3334 H 0.90172 0.62708 0.54949 0.0
H3335 H 0.86581 0.59242 0.58307 0.0
H3336 H 0.93398 0.64729 0.57649 0.0
H3337 H 0.92553 0.66001 0.58001 0.0
H3338 H 0.92556 0.65204 0.55904 0.0
H3339 H 0.88912 0.60416 0.61829 0.0
H3340 H 0.86837 0.59721 0.61242 0.0
H3341 H 0.88227 0.61839 0.62053 0.0
C3342 C 0.93814 0.68167 0.71859 0.0
C3343 C 0.9532 0.68684 0.71109 0.0
C3344 C 0.93701 0.69119 0.73197 0.0
C3345 C 0.95131 0.70611 0.73806 0.0
C3346 C 0.96649 0.71149 0.73039 0.0
C3347 C 0.96724 0.70184 0.71696 0.0
C3348 C 0.92058 0.68516 0.73975 0.0
C3349 C 0.98205 0.72727 0.73659 0.0
C3350 C 0.94992 0.73983 0.76438 0.0
C3351 C 0.95287 0.73665 0.7806 0.0
C3352 C 0.94862 0.72951 0.75048 0.0
C3353 C 0.95063 0.71591 0.75282 0.0
C3354 C 0.95327 0.71245 0.76921 0.0
C3355 C 0.95438 0.72288 0.78288 0.0
C3356 C 0.9457 0.73354 0.73322 0.0
C3357 C 0.95564 0.69816 0.77222 0.0
H3358 H 0.92722 0.67013 0.71409 0.0
H3359 H 0.97894 0.70593 0.71128 0.0
H3360 H 0.9209 0.68235 0.75306 0.0
H3361 H 0.9178 0.69515 0.73964 0.0
H3362 H 0.91052 0.67373 0.73306 0.0
H3363 H 0.99282 0.72988 0.72905 0.0
H3364 H 0.98064 0.73818 0.73618 0.0
H3365 H 0.98456 0.72613 0.74988 0.0
H3366 H 0.94902 0.75063 0.76252 0.0
H3367 H 0.9569 0.72056 0.79537 0.0
H3368 H 0.93545 0.72216 0.72669 0.0
H3369 H 0.95676 0.73781 0.72555 0.0
H3370 H 0.94285 0.74351 0.73372 0.0
H3371 H 0.94534 0.68627 0.76648 0.0
H3372 H 0.95651 0.69649 0.78581 0.0
H3373 H 0.96702 0.70055 0.76614 0.0
C3374 C 0.31819 0.27139 0.72683 0.0
C3375 C 0.31207 0.28042 0.71977 0.0
C3376 C 0.30925 0.25938 0.73877 0.0
C3377 C 0.29386 0.25637 0.74382 0.0
C3378 C 0.28756 0.26535 0.73666 0.0
C3379 C 0.29672 0.27723 0.72471 0.0
C3380 C 0.31632 0.24999 0.74608 0.0
C3381 C 0.27121 0.26254 0.74176 0.0
C3382 C 0.26296 0.21613 0.76456 0.0
C3383 C 0.26508 0.22151 0.78155 0.0
C3384 C 0.27262 0.22721 0.75218 0.0
C3385 C 0.28445 0.24413 0.75688 0.0
C3386 C 0.28675 0.24956 0.77403 0.0
C3387 C 0.27702 0.23819 0.78615 0.0
C3388 C 0.26986 0.22093 0.73403 0.0
C3389 C 0.29914 0.26753 0.77954 0.0
H3390 H 0.33001 0.27373 0.72307 0.0
H3391 H 0.29188 0.28413 0.71933 0.0
H3392 H 0.31809 0.25261 0.75986 0.0
H3393 H 0.30765 0.23629 0.74397 0.0
H3394 H 0.32825 0.25348 0.74051 0.0
H3395 H 0.26795 0.27038 0.73484 0.0
H3396 H 0.26144 0.24917 0.73943 0.0
H3397 H 0.27143 0.26548 0.75542 0.0
H3398 H 0.25353 0.20333 0.76092 0.0
H3399 H 0.27847 0.24243 0.79924 0.0
H3400 H 0.28159 0.22393 0.72836 0.0
H3401 H 0.26514 0.22735 0.72682 0.0
H3402 H 0.26099 0.20718 0.73259 0.0
H3403 H 0.31143 0.27126 0.77486 0.0
H3404 H 0.29993 0.26955 0.79342 0.0
H3405 H 0.29578 0.27594 0.77405 0.0
C3406 C 0.74382 0.06378 0.71331 0.0
C3407 C 0.72971 0.04864 0.70784 0.0
C3408 C 0.75404 0.06419 0.72605 0.0
C3409 C 0.75004 0.04911 0.73346 0.0
C3410 C 0.73595 0.03377 0.72783 0.0
C3411 C 0.72597 0.03372 0.7151 0.0
C3412 C 0.76897 0.08078 0.73176 0.0
C3413 C 0.73129 0.01741 0.7354 0.0
C3414 C 0.78204 0.04589 0.75749 0.0
C3415 C 0.7779 0.04701 0.77418 0.0
C3416 C 0.77335 0.04698 0.74408 0.0
C3417 C 0.76026 0.04931 0.74747 0.0
C3418 C 0.7563 0.05088 0.7643 0.0
C3419 C 0.76509 0.04958 0.77745 0.0
C3420 C 0.77784 0.04513 0.7263 0.0
C3421 C 0.74249 0.05348 0.76842 0.0
H3422 H 0.74682 0.07536 0.70775 0.0
H3423 H 0.71512 0.02195 0.71094 0.0
H3424 H 0.76787 0.08356 0.7452 0.0
H3425 H 0.78009 0.08014 0.73069 0.0
H3426 H 0.77068 0.09129 0.72434 0.0
H3427 H 0.72023 0.00651 0.72923 0.0
H3428 H 0.74155 0.01534 0.73434 0.0
H3429 H 0.72887 0.01792 0.74897 0.0
H3430 H 0.79189 0.04381 0.75497 0.0
H3431 H 0.76183 0.05038 0.79034 0.0
H3432 H 0.78011 0.05591 0.71901 0.0
H3433 H 0.7675 0.03363 0.72001 0.0
H3434 H 0.7889 0.0443 0.7258 0.0
H3435 H 0.74415 0.06444 0.76192 0.0
H3436 H 0.74166 0.05551 0.78213 0.0
H3437 H 0.73069 0.04235 0.76386 0.0
C3438 C 0.04492 0.33117 0.03135 0.0
C3439 C 0.02898 0.32598 0.0363 0.0
C3440 C 0.05361 0.32493 0.03896 0.0
C3441 C 0.04616 0.3133 0.0517 0.0
C3442 C 0.03021 0.3082 0.05688 0.0
C3443 C 0.02183 0.31461 0.04915 0.0
C3444 C 0.07066 0.3306 0.03328 0.0
C3445 C 0.02186 0.29571 0.07039 0.0
C3446 C 0.05884 0.27525 0.06038 0.0
C3447 C 0.07368 0.28741 0.07788 0.0
C3448 C 0.05078 0.28619 0.05036 0.0
C3449 C 0.0546 0.3059 0.05931 0.0
C3450 C 0.06549 0.31487 0.07908 0.0
C3451 C 0.07402 0.30487 0.0901 0.0
C3452 C 0.04064 0.27876 0.0347 0.0
C3453 C 0.06736 0.33061 0.08639 0.0
H3454 H 0.05055 0.33997 0.02146 0.0
H3455 H 0.00954 0.31054 0.05312 0.0
H3456 H 0.0793 0.33594 0.04421 0.0
H3457 H 0.07091 0.31965 0.02801 0.0
H3458 H 0.07499 0.34016 0.0236 0.0
H3459 H 0.00949 0.29323 0.07317 0.0
H3460 H 0.02068 0.28368 0.06642 0.0
H3461 H 0.0294 0.30041 0.08213 0.0
H3462 H 0.0578 0.26419 0.05446 0.0
H3463 H 0.08159 0.31071 0.10128 0.0
H3464 H 0.04603 0.28796 0.0247 0.0
H3465 H 0.02816 0.27615 0.03701 0.0
H3466 H 0.03995 0.26701 0.03059 0.0
H3467 H 0.07235 0.34024 0.07679 0.0
H3468 H 0.07555 0.33521 0.09766 0.0
H3469 H 0.05516 0.32817 0.08987 0.0
C3470 C 0.6698 0.71156 0.03391 0.0
C3471 C 0.67536 0.70058 0.03505 0.0
C3472 C 0.67711 0.72666 0.04365 0.0
C3473 C 0.6902 0.7308 0.0548 0.0
C3474 C 0.6958 0.71976 0.05609 0.0
C3475 C 0.68832 0.70478 0.04621 0.0
C3476 C 0.67082 0.73815 0.04202 0.0
C3477 C 0.70978 0.72384 0.06785 0.0
C3478 C 0.72766 0.78391 0.06909 0.0
C3479 C 0.71702 0.78472 0.08833 0.0
C3480 C 0.71627 0.76461 0.05674 0.0
C3481 C 0.69828 0.74669 0.06491 0.0
C3482 C 0.69127 0.74693 0.08589 0.0
C3483 C 0.70159 0.76564 0.09925 0.0
C3484 C 0.72187 0.76337 0.03959 0.0
C3485 C 0.67687 0.73142 0.09228 0.0
H3486 H 0.65978 0.70841 0.02536 0.0
H3487 H 0.69271 0.69639 0.0472 0.0
H3488 H 0.66552 0.73904 0.05412 0.0
H3489 H 0.68106 0.75094 0.03923 0.0
H3490 H 0.66127 0.73365 0.03199 0.0
H3491 H 0.71254 0.7138 0.06758 0.0
H3492 H 0.72095 0.73573 0.06437 0.0
H3493 H 0.70679 0.72574 0.0809 0.0
H3494 H 0.73757 0.79513 0.06376 0.0
H3495 H 0.69678 0.76638 0.11132 0.0
H3496 H 0.71163 0.75902 0.03043 0.0
H3497 H 0.72533 0.75388 0.03926 0.0
H3498 H 0.73249 0.77567 0.0361 0.0
H3499 H 0.6662 0.72715 0.08373 0.0
H3500 H 0.67397 0.73377 0.1052 0.0
H3501 H 0.67954 0.72134 0.09217 0.0
C3502 C 0.29885 0.97516 0.03838 0.0
C3503 C 0.29914 0.97963 0.02174 0.0
C3504 C 0.28407 0.9663 0.04697 0.0
C3505 C 0.26923 0.96173 0.03869 0.0
C3506 C 0.26937 0.96563 0.02171 0.0
C3507 C 0.28434 0.97456 0.01344 0.0
C3508 C 0.2844 0.96236 0.06508 0.0
C3509 C 0.25377 0.96085 0.01243 0.0
C3510 C 0.22887 0.92866 0.05711 0.0
C3511 C 0.22393 0.93858 0.06551 0.0
C3512 C 0.24365 0.936 0.04843 0.0
C3513 C 0.25367 0.95368 0.04807 0.0
C3514 C 0.24876 0.96376 0.05653 0.0
C3515 C 0.2339 0.95608 0.06507 0.0
C3516 C 0.24845 0.92486 0.03948 0.0
C3517 C 0.25911 0.98266 0.05642 0.0
H3518 H 0.31022 0.979 0.0449 0.0
H3519 H 0.28445 0.9779 0.00057 0.0
H3520 H 0.28029 0.96921 0.07323 0.0
H3521 H 0.27579 0.94878 0.06682 0.0
H3522 H 0.29681 0.9659 0.06938 0.0
H3523 H 0.25585 0.96381 0.99896 0.0
H3524 H 0.24464 0.94725 0.01331 0.0
H3525 H 0.24838 0.96766 0.01832 0.0
H3526 H 0.22104 0.91512 0.05718 0.0
H3527 H 0.23 0.96377 0.07131 0.0
H3528 H 0.26062 0.928 0.04413 0.0
H3529 H 0.24951 0.92704 0.02583 0.0
H3530 H 0.23945 0.91134 0.04126 0.0
H3531 H 0.27153 0.98727 0.06157 0.0
H3532 H 0.2537 0.98868 0.06389 0.0
H3533 H 0.26057 0.98674 0.04333 0.0
C3534 C 0.34775 0.05425 0.96852 0.0
C3535 C 0.3453 0.04946 0.98525 0.0
C3536 C 0.3407 0.0626 0.96194 0.0
C3537 C 0.33105 0.06637 0.97237 0.0
C3538 C 0.32915 0.06227 0.98947 0.0
C3539 C 0.33626 0.05383 0.99569 0.0
C3540 C 0.34298 0.06673 0.94364 0.0
C3541 C 0.31906 0.06622 0.00102 0.0
C3542 C 0.32045 0.09749 0.95802 0.0
C3543 C 0.30461 0.08675 0.95125 0.0
C3544 C 0.32927 0.09107 0.96487 0.0
C3545 C 0.32201 0.0735 0.9651 0.0
C3546 C 0.30599 0.0626 0.9584 0.0
C3547 C 0.29747 0.06936 0.95164 0.0
C3548 C 0.34629 0.10306 0.97198 0.0
C3549 C 0.29779 0.04379 0.95845 0.0
H3550 H 0.35473 0.05096 0.96035 0.0
H3551 H 0.33436 0.05026 0.00865 0.0
H3552 H 0.33104 0.05926 0.93682 0.0
H3553 H 0.34743 0.08016 0.9423 0.0
H3554 H 0.35177 0.06404 0.93753 0.0
H3555 H 0.31993 0.06352 0.01428 0.0
H3556 H 0.32309 0.07961 0.00045 0.0
H3557 H 0.30603 0.05865 0.99688 0.0
H3558 H 0.32589 0.11094 0.95805 0.0
H3559 H 0.28512 0.06103 0.94671 0.0
H3560 H 0.35518 0.10079 0.96549 0.0
H3561 H 0.34676 0.10089 0.98548 0.0
H3562 H 0.35025 0.11638 0.97069 0.0
H3563 H 0.30531 0.03986 0.95155 0.0
H3564 H 0.28534 0.03707 0.95261 0.0
H3565 H 0.2968 0.03981 0.97154 0.0
C3566 C 0.95056 0.28658 0.99425 0.0
C3567 C 0.96696 0.29844 0.9908 0.0
C3568 C 0.94188 0.27125 0.98486 0.0
C3569 C 0.94985 0.26776 0.9719 0.0
C3570 C 0.96632 0.27966 0.96833 0.0
C3571 C 0.97465 0.29488 0.97773 0.0
C3572 C 0.92426 0.25875 0.98883 0.0
C3573 C 0.97528 0.27619 0.95477 0.0
C3574 C 0.9347 0.21536 0.9574 0.0
C3575 C 0.92158 0.21314 0.93925 0.0
C3576 C 0.9431 0.23475 0.96964 0.0
C3577 C 0.94131 0.25159 0.96231 0.0
C3578 C 0.93224 0.25031 0.94211 0.0
C3579 C 0.9235 0.23144 0.9289 0.0
C3580 C 0.95182 0.23702 0.98584 0.0
C3581 C 0.93204 0.265 0.93626 0.0
H3582 H 0.94453 0.28922 0.00429 0.0
H3583 H 0.98734 0.3039 0.97498 0.0
H3584 H 0.91649 0.2556 0.97738 0.0
H3585 H 0.92301 0.24698 0.9928 0.0
H3586 H 0.91963 0.26353 0.99896 0.0
H3587 H 0.98811 0.28682 0.95351 0.0
H3588 H 0.9754 0.26484 0.95763 0.0
H3589 H 0.96879 0.27362 0.94251 0.0
H3590 H 0.93447 0.2047 0.96226 0.0
H3591 H 0.91695 0.23002 0.91736 0.0
H3592 H 0.94605 0.24033 0.99605 0.0
H3593 H 0.96471 0.24761 0.98503 0.0
H3594 H 0.95146 0.22541 0.98869 0.0
H3595 H 0.92679 0.26931 0.94615 0.0
H3596 H 0.9248 0.26166 0.92439 0.0
H3597 H 0.94477 0.27546 0.93424 0.0
C3598 C 0.72712 0.67575 0.99597 0.0
C3599 C 0.71093 0.66872 0.99027 0.0
C3600 C 0.74011 0.68224 0.98466 0.0
C3601 C 0.73682 0.68182 0.96733 0.0
C3602 C 0.72051 0.67437 0.96145 0.0
C3603 C 0.70774 0.66779 0.97297 0.0
C3604 C 0.75736 0.68987 0.99128 0.0
C3605 C 0.71661 0.67396 0.94306 0.0
C3606 C 0.77501 0.72256 0.93693 0.0
C3607 C 0.78372 0.71026 0.9286 0.0
C3608 C 0.75903 0.71198 0.95193 0.0
C3609 C 0.75035 0.69003 0.95547 0.0
C3610 C 0.7563 0.67749 0.94345 0.0
C3611 C 0.77216 0.6869 0.92811 0.0
C3612 C 0.75283 0.72139 0.9614 0.0
C3613 C 0.74824 0.65928 0.9464 0.0
H3614 H 0.7297 0.67645 0.0093 0.0
H3615 H 0.69529 0.66242 0.96843 0.0
H3616 H 0.76332 0.68406 0.98448 0.0
H3617 H 0.76455 0.70348 0.98902 0.0
H3618 H 0.75779 0.68823 0.00495 0.0
H3619 H 0.70323 0.66728 0.94042 0.0
H3620 H 0.72246 0.68698 0.93884 0.0
H3621 H 0.72171 0.66771 0.93548 0.0
H3622 H 0.78126 0.73597 0.93572 0.0
H3623 H 0.77675 0.67988 0.92179 0.0
H3624 H 0.75489 0.72122 0.97504 0.0
H3625 H 0.73944 0.71503 0.95916 0.0
H3626 H 0.75912 0.73452 0.95745 0.0
H3627 H 0.74783 0.65745 0.9601 0.0
H3628 H 0.75492 0.65407 0.93998 0.0
H3629 H 0.73546 0.65255 0.94153 0.0
C3630 C 0.96122 0.68015 0.00083 0.0
C3631 C 0.9648 0.67135 0.98876 0.0
C3632 C 0.95444 0.6894 0.99612 0.0
C3633 C 0.95101 0.68975 0.97895 0.0
C3634 C 0.95406 0.68043 0.96676 0.0
C3635 C 0.96098 0.67139 0.97181 0.0
C3636 C 0.95141 0.69923 0.00948 0.0
C3637 C 0.9504 0.68035 0.94835 0.0
C3638 C 0.92202 0.70419 0.96945 0.0
C3639 C 0.93296 0.72102 0.96587 0.0
C3640 C 0.92769 0.69372 0.97326 0.0
C3641 C 0.94473 0.70031 0.97373 0.0
C3642 C 0.95582 0.71721 0.96977 0.0
C3643 C 0.9498 0.72733 0.96578 0.0
C3644 C 0.91547 0.67571 0.97719 0.0
C3645 C 0.97409 0.72473 0.97021 0.0
H3646 H 0.96418 0.68024 0.01395 0.0
H3647 H 0.96365 0.66459 0.9624 0.0
H3648 H 0.95907 0.71282 0.00718 0.0
H3649 H 0.93844 0.69562 0.00893 0.0
H3650 H 0.95425 0.69722 0.02233 0.0
H3651 H 0.95259 0.67169 0.94059 0.0
H3652 H 0.93748 0.6766 0.94651 0.0
H3653 H 0.95822 0.69317 0.94371 0.0
H3654 H 0.90899 0.69926 0.96951 0.0
H3655 H 0.95826 0.74033 0.96298 0.0
H3656 H 0.91711 0.67364 0.99043 0.0
H3657 H 0.91757 0.66716 0.96916 0.0
H3658 H 0.90262 0.67225 0.97525 0.0
H3659 H 0.97813 0.72439 0.98311 0.0
H3660 H 0.98104 0.73793 0.96635 0.0
H3661 H 0.97727 0.71726 0.96179 0.0
C3662 C 0.31537 0.29997 0.97369 0.0
C3663 C 0.3318 0.30869 0.96885 0.0
C3664 C 0.30486 0.28284 0.96964 0.0
C3665 C 0.31082 0.27417 0.96028 0.0
C3666 C 0.32722 0.28296 0.95482 0.0
C3667 C 0.33758 0.30013 0.95928 0.0
C3668 C 0.28751 0.27392 0.97589 0.0
C3669 C 0.33389 0.27413 0.94461 0.0
C3670 C 0.28763 0.2276 0.96736 0.0
C3671 C 0.27626 0.22105 0.95398 0.0
C3672 C 0.29945 0.24479 0.96914 0.0
C3673 C 0.29999 0.25572 0.95715 0.0
C3674 C 0.28895 0.24912 0.94322 0.0
C3675 C 0.27704 0.23188 0.94193 0.0
C3676 C 0.31079 0.25136 0.98434 0.0
C3677 C 0.28927 0.26034 0.93007 0.0
H3678 H 0.31075 0.30642 0.98112 0.0
H3679 H 0.35023 0.30678 0.95542 0.0
H3680 H 0.2787 0.26761 0.96521 0.0
H3681 H 0.28551 0.26406 0.98448 0.0
H3682 H 0.28469 0.28258 0.9827 0.0
H3683 H 0.34647 0.28298 0.94021 0.0
H3684 H 0.33414 0.26472 0.95228 0.0
H3685 H 0.3258 0.26728 0.93353 0.0
H3686 H 0.2869 0.21927 0.97679 0.0
H3687 H 0.26815 0.22694 0.93166 0.0
H3688 H 0.308 0.2593 0.99254 0.0
H3689 H 0.32369 0.25934 0.98047 0.0
H3690 H 0.3096 0.2411 0.99182 0.0
H3691 H 0.28489 0.26824 0.93554 0.0
H3692 H 0.28141 0.25306 0.91896 0.0
H3693 H 0.30197 0.26891 0.92585 0.0
C3694 C 0.69758 0.04079 0.98755 0.0
C3695 C 0.69039 0.02473 0.99382 0.0
C3696 C 0.71236 0.04794 0.97881 0.0
C3697 C 0.72004 0.03877 0.97628 0.0
C3698 C 0.71296 0.02267 0.9828 0.0
C3699 C 0.69827 0.01587 0.99149 0.0
C3700 C 0.71965 0.0652 0.97212 0.0
C3701 C 0.72076 0.01247 0.98035 0.0
C3702 C 0.74848 0.04734 0.93982 0.0
C3703 C 0.76388 0.05606 0.94791 0.0
C3704 C 0.73414 0.04208 0.94884 0.0
C3705 C 0.73523 0.04566 0.96638 0.0
C3706 C 0.75075 0.05477 0.97457 0.0
C3707 C 0.7649 0.05977 0.96525 0.0
C3708 C 0.7178 0.03225 0.93968 0.0
C3709 C 0.75239 0.05886 0.99325 0.0
H3710 H 0.6916 0.04773 0.98933 0.0
H3711 H 0.69288 0.00347 0.99634 0.0
H3712 H 0.73241 0.07357 0.9769 0.0
H3713 H 0.72013 0.06448 0.95822 0.0
H3714 H 0.71251 0.07096 0.97571 0.0
H3715 H 0.71388 0.00031 0.98657 0.0
H3716 H 0.7214 0.00991 0.96674 0.0
H3717 H 0.73349 0.01962 0.98545 0.0
H3718 H 0.74767 0.04443 0.92642 0.0
H3719 H 0.77677 0.06647 0.97155 0.0
H3720 H 0.71069 0.03823 0.94213 0.0
H3721 H 0.71058 0.0194 0.9444 0.0
H3722 H 0.71912 0.03127 0.92589 0.0
H3723 H 0.74573 0.06515 0.99676 0.0
H3724 H 0.76537 0.0671 0.99748 0.0
H3725 H 0.74676 0.04711 0.00014 0.0
C3726 C 0.66087 0.95025 0.04784 0.0
C3727 C 0.67062 0.96593 0.04088 0.0
C3728 C 0.66777 0.94111 0.05274 0.0
C3729 C 0.68461 0.94763 0.05003 0.0
C3730 C 0.69432 0.96326 0.04254 0.0
C3731 C 0.68726 0.97232 0.03832 0.0
C3732 C 0.65718 0.92472 0.06112 0.0
C3733 C 0.7122 0.97044 0.03895 0.0
C3734 C 0.7111 0.93635 0.07367 0.0
C3735 C 0.7121 0.92541 0.06194 0.0
C3736 C 0.7011 0.94264 0.07051 0.0
C3737 C 0.69237 0.93837 0.05503 0.0
C3738 C 0.69283 0.92685 0.04345 0.0
C3739 C 0.70248 0.92032 0.04718 0.0
C3740 C 0.70055 0.95453 0.08338 0.0
C3741 C 0.68405 0.9223 0.02662 0.0
H3742 H 0.64801 0.94539 0.04987 0.0
H3743 H 0.69475 0.98437 0.03273 0.0
H3744 H 0.65731 0.91447 0.05395 0.0
H3745 H 0.66219 0.92556 0.07388 0.0
H3746 H 0.6443 0.92134 0.06223 0.0
H3747 H 0.71775 0.98227 0.03217 0.0
H3748 H 0.71916 0.97301 0.05088 0.0
H3749 H 0.71365 0.96123 0.03127 0.0
H3750 H 0.71836 0.94034 0.08518 0.0
H3751 H 0.70313 0.91177 0.03816 0.0
H3752 H 0.68777 0.95119 0.0852 0.0
H3753 H 0.70761 0.96747 0.07888 0.0
H3754 H 0.70583 0.95448 0.09571 0.0
H3755 H 0.67112 0.91849 0.02817 0.0
H3756 H 0.68435 0.91197 0.01975 0.0
H3757 H 0.68994 0.93344 0.01878 0.0
C3758 C 0.03452 0.71147 0.04 0.0
C3759 C 0.03037 0.7082 0.02281 0.0
C3760 C 0.04401 0.728 0.04675 0.0
C3761 C 0.04944 0.74154 0.03606 0.0
C3762 C 0.04579 0.73831 0.01863 0.0
C3763 C 0.03634 0.72169 0.01222 0.0
C3764 C 0.04779 0.73097 0.06537 0.0
C3765 C 0.05139 0.75241 0.00681 0.0
C3766 C 0.05789 0.78364 0.0531 0.0
C3767 C 0.07504 0.79343 0.05316 0.0
C3768 C 0.0494 0.76658 0.04807 0.0
C3769 C 0.0583 0.75911 0.0431 0.0
C3770 C 0.07562 0.76877 0.04377 0.0
C3771 C 0.08378 0.78585 0.04869 0.0
C3772 C 0.03092 0.75672 0.04745 0.0
C3773 C 0.08552 0.76122 0.0387 0.0
H3774 H 0.02999 0.70112 0.04827 0.0
H3775 H 0.03325 0.71931 0.99893 0.0
H3776 H 0.06114 0.73965 0.06768 0.0
H3777 H 0.04161 0.73701 0.07118 0.0
H3778 H 0.0437 0.71915 0.07176 0.0
H3779 H 0.04813 0.74779 0.99349 0.0
H3780 H 0.04571 0.7597 0.01026 0.0
H3781 H 0.06485 0.76115 0.00791 0.0
H3782 H 0.05112 0.7895 0.05652 0.0
H3783 H 0.09704 0.79339 0.0487 0.0
H3784 H 0.02598 0.7452 0.0546 0.0
H3785 H 0.02652 0.75272 0.03425 0.0
H3786 H 0.02586 0.76412 0.05265 0.0
H3787 H 0.08126 0.74955 0.04539 0.0
H3788 H 0.09881 0.77 0.04139 0.0
H3789 H 0.08376 0.7578 0.02505 0.0
C3790 C 0.30335 0.31789 0.03805 0.0
C3791 C 0.30924 0.33293 0.02991 0.0
C3792 C 0.28861 0.31047 0.04674 0.0
C3793 C 0.27955 0.31831 0.04743 0.0
C3794 C 0.28555 0.33366 0.03954 0.0
C3795 C 0.30033 0.34079 0.03083 0.0
C3796 C 0.28259 0.29406 0.05495 0.0
C3797 C 0.27623 0.34241 0.04011 0.0
C3798 C 0.23426 0.29004 0.05615 0.0
C3799 C 0.23383 0.29324 0.07342 0.0
C3800 C 0.249 0.29845 0.04743 0.0
C3801 C 0.26368 0.31023 0.05624 0.0
C3802 C 0.26331 0.31359 0.07365 0.0
C3803 C 0.24841 0.30499 0.08205 0.0
C3804 C 0.24893 0.29445 0.02887 0.0
C3805 C 0.27872 0.326 0.08349 0.0
H3806 H 0.31011 0.31169 0.0374 0.0
H3807 H 0.3048 0.3524 0.02457 0.0
H3808 H 0.28075 0.29536 0.06855 0.0
H3809 H 0.27058 0.28422 0.04936 0.0
H3810 H 0.29125 0.28974 0.0535 0.0
H3811 H 0.28279 0.35452 0.03377 0.0
H3812 H 0.26404 0.33423 0.03393 0.0
H3813 H 0.27412 0.34482 0.05333 0.0
H3814 H 0.22305 0.28081 0.0495 0.0
H3815 H 0.24816 0.30731 0.09545 0.0
H3816 H 0.25643 0.28886 0.02658 0.0
H3817 H 0.25453 0.30611 0.02185 0.0
H3818 H 0.23638 0.28556 0.02373 0.0
H3819 H 0.2873 0.32155 0.08334 0.0
H3820 H 0.27621 0.32784 0.09676 0.0
H3821 H 0.28501 0.3383 0.07756 0.0
C3822 C 0.68478 0.65003 0.3803 0.0
C3823 C 0.69335 0.66284 0.36903 0.0
C3824 C 0.69244 0.64311 0.38856 0.0
C3825 C 0.70905 0.64912 0.38549 0.0
C3826 C 0.71792 0.66226 0.37444 0.0
C3827 C 0.70996 0.66901 0.3663 0.0
C3828 C 0.68264 0.62913 0.40035 0.0
C3829 C 0.73569 0.66893 0.37099 0.0
C3830 C 0.73375 0.63786 0.42507 0.0
C3831 C 0.73508 0.62183 0.41193 0.0
C3832 C 0.72575 0.64843 0.41419 0.0
C3833 C 0.71678 0.64113 0.39337 0.0
C3834 C 0.71437 0.62248 0.38309 0.0
C3835 C 0.72199 0.61105 0.39291 0.0
C3836 C 0.72641 0.66323 0.42251 0.0
C3837 C 0.70597 0.61648 0.36635 0.0
H3838 H 0.67196 0.64522 0.38256 0.0
H3839 H 0.71669 0.67891 0.35763 0.0
H3840 H 0.68204 0.6176 0.39553 0.0
H3841 H 0.68878 0.63256 0.41289 0.0
H3842 H 0.66996 0.62626 0.40184 0.0
H3843 H 0.74107 0.67963 0.36256 0.0
H3844 H 0.74283 0.67307 0.38299 0.0
H3845 H 0.7369 0.65878 0.36509 0.0
H3846 H 0.74023 0.64277 0.437 0.0
H3847 H 0.72189 0.60075 0.38628 0.0
H3848 H 0.71377 0.66036 0.42424 0.0
H3849 H 0.73273 0.67401 0.41424 0.0
H3850 H 0.73289 0.66649 0.43485 0.0
H3851 H 0.69311 0.61311 0.36751 0.0
H3852 H 0.70623 0.60544 0.36145 0.0
H3853 H 0.71207 0.62678 0.3575 0.0
C3854 C 0.35476 0.03739 0.38027 0.0
C3855 C 0.34054 0.03217 0.37071 0.0
C3856 C 0.36356 0.05342 0.38823 0.0
C3857 C 0.35808 0.06451 0.38651 0.0
C3858 C 0.34384 0.05942 0.3768 0.0
C3859 C 0.33521 0.04329 0.36902 0.0
C3860 C 0.37863 0.05843 0.39864 0.0
C3861 C 0.33771 0.07098 0.37466 0.0
C3862 C 0.37248 0.10348 0.42772 0.0
C3863 C 0.38686 0.12141 0.41484 0.0
C3864 C 0.36153 0.08349 0.41633 0.0
C3865 C 0.36705 0.08122 0.39513 0.0
C3866 C 0.3843 0.09829 0.3849 0.0
C3867 C 0.39602 0.1188 0.39524 0.0
C3868 C 0.34781 0.06871 0.42449 0.0
C3869 C 0.38872 0.09547 0.36768 0.0
H3870 H 0.35897 0.02889 0.38167 0.0
H3871 H 0.32426 0.03939 0.36164 0.0
H3872 H 0.38937 0.06987 0.39372 0.0
H3873 H 0.37695 0.06153 0.41179 0.0
H3874 H 0.38135 0.04837 0.39869 0.0
H3875 H 0.32657 0.06522 0.36647 0.0
H3876 H 0.33482 0.07438 0.38712 0.0
H3877 H 0.34741 0.08272 0.36909 0.0
H3878 H 0.36855 0.10534 0.43991 0.0
H3879 H 0.40539 0.12945 0.38869 0.0
H3880 H 0.35053 0.05868 0.42485 0.0
H3881 H 0.33646 0.06371 0.41683 0.0
H3882 H 0.34602 0.07224 0.4374 0.0
H3883 H 0.3921 0.08593 0.36793 0.0
H3884 H 0.39907 0.10732 0.36296 0.0
H3885 H 0.3779 0.09042 0.35916 0.0
C3886 C 0.97556 0.31199 0.36861 0.0
C3887 C 0.97715 0.3116 0.35111 0.0
C3888 C 0.96017 0.30281 0.37603 0.0
C3889 C 0.946 0.29311 0.36571 0.0
C3890 C 0.94753 0.29251 0.34805 0.0
C3891 C 0.9631 0.30171 0.34096 0.0
C3892 C 0.95904 0.30364 0.39492 0.0
C3893 C 0.93269 0.28239 0.33662 0.0
C3894 C 0.90685 0.25864 0.38488 0.0
C3895 C 0.89828 0.2667 0.38787 0.0
C3896 C 0.92248 0.26714 0.37787 0.0
C3897 C 0.92954 0.28396 0.37336 0.0
C3898 C 0.92084 0.29207 0.37608 0.0
C3899 C 0.90532 0.28333 0.38329 0.0
C3900 C 0.93142 0.25811 0.37521 0.0
C3901 C 0.92786 0.30992 0.37124 0.0
H3902 H 0.98636 0.31953 0.37655 0.0
H3903 H 0.96421 0.30135 0.32743 0.0
H3904 H 0.95172 0.30916 0.39852 0.0
H3905 H 0.95266 0.29082 0.39972 0.0
H3906 H 0.97127 0.31126 0.4012 0.0
H3907 H 0.93599 0.28296 0.32318 0.0
H3908 H 0.92574 0.26909 0.34006 0.0
H3909 H 0.92439 0.28712 0.33819 0.0
H3910 H 0.9013 0.24565 0.38798 0.0
H3911 H 0.89856 0.28946 0.38523 0.0
H3912 H 0.94347 0.26516 0.38187 0.0
H3913 H 0.93381 0.25743 0.36166 0.0
H3914 H 0.9244 0.24517 0.37977 0.0
H3915 H 0.93969 0.31838 0.37799 0.0
H3916 H 0.91949 0.31439 0.37414 0.0
H3917 H 0.93037 0.31097 0.3576 0.0
C3918 C 0.0328 0.39716 0.3208 0.0
C3919 C 0.02338 0.38148 0.31228 0.0
C3920 C 0.03346 0.41136 0.31504 0.0
C3921 C 0.02442 0.40985 0.30043 0.0
C3922 C 0.01497 0.39409 0.29169 0.0
C3923 C 0.01459 0.38009 0.29769 0.0
C3924 C 0.04375 0.42796 0.32468 0.0
C3925 C 0.00512 0.39199 0.2761 0.0
C3926 C 0.01452 0.4435 0.2964 0.0
C3927 C 0.02673 0.45446 0.28559 0.0
C3928 C 0.0133 0.42866 0.30091 0.0
C3929 C 0.02467 0.42475 0.29456 0.0
C3930 C 0.03684 0.4356 0.28337 0.0
C3931 C 0.03779 0.45038 0.27909 0.0
C3932 C 0.00018 0.41744 0.3129 0.0
C3933 C 0.04919 0.43187 0.27635 0.0
H3934 H 0.03968 0.39837 0.33205 0.0
H3935 H 0.00725 0.36802 0.29104 0.0
H3936 H 0.0529 0.43748 0.31629 0.0
H3937 H 0.03588 0.43254 0.32928 0.0
H3938 H 0.05031 0.4271 0.33561 0.0
H3939 H 0.99862 0.37896 0.27059 0.0
H3940 H 0.99595 0.39535 0.27914 0.0
H3941 H 0.01326 0.40063 0.26649 0.0
H3942 H 0.00611 0.44674 0.30163 0.0
H3943 H 0.04742 0.45896 0.27096 0.0
H3944 H 0.00593 0.41716 0.32479 0.0
H3945 H 0.99296 0.40441 0.30749 0.0
H3946 H 0.99169 0.42174 0.31589 0.0
H3947 H 0.05704 0.43226 0.2867 0.0
H3948 H 0.05717 0.44097 0.26695 0.0
H3949 H 0.04286 0.41906 0.27035 0.0
C3950 C 0.62489 0.63739 0.29969 0.0
C3951 C 0.64123 0.64427 0.30464 0.0
C3952 C 0.61547 0.6209 0.29284 0.0
C3953 C 0.62276 0.61136 0.29042 0.0
C3954 C 0.63942 0.61848 0.29486 0.0
C3955 C 0.64838 0.63475 0.30222 0.0
C3956 C 0.59761 0.61353 0.28871 0.0
C3957 C 0.64785 0.60898 0.29177 0.0
C3958 C 0.59583 0.55555 0.28961 0.0
C3959 C 0.58863 0.55245 0.26739 0.0
C3960 C 0.60686 0.57703 0.29757 0.0
C3961 C 0.61305 0.59394 0.28354 0.0
C3962 C 0.60956 0.59022 0.26106 0.0
C3963 C 0.59858 0.56917 0.25193 0.0
C3964 C 0.61042 0.5806 0.31597 0.0
C3965 C 0.61613 0.60459 0.2498 0.0
H3966 H 0.61932 0.64471 0.30169 0.0
H3967 H 0.66108 0.64011 0.30591 0.0
H3968 H 0.5952 0.60982 0.27516 0.0
H3969 H 0.59002 0.60207 0.29585 0.0
H3970 H 0.59369 0.62247 0.29177 0.0
H3971 H 0.66137 0.61725 0.29318 0.0
H3972 H 0.64351 0.59898 0.30091 0.0
H3973 H 0.64481 0.6029 0.27896 0.0
H3974 H 0.59075 0.54531 0.29804 0.0
H3975 H 0.59541 0.56667 0.23869 0.0
H3976 H 0.61351 0.59344 0.31968 0.0
H3977 H 0.62088 0.57936 0.3192 0.0
H3978 H 0.59968 0.5712 0.32301 0.0
H3979 H 0.60679 0.60786 0.24811 0.0
H3980 H 0.61873 0.60098 0.23729 0.0
H3981 H 0.62736 0.6157 0.25541 0.0
C3982 C 0.35705 0.96811 0.31858 0.0
C3983 C 0.36443 0.98364 0.32754 0.0
C3984 C 0.36607 0.96427 0.30752 0.0
C3985 C 0.3829 0.97623 0.30536 0.0
C3986 C 0.3905 0.99182 0.31456 0.0
C3987 C 0.38118 0.99533 0.32555 0.0
C3988 C 0.35753 0.94752 0.29792 0.0
C3989 C 0.40843 0.00487 0.31259 0.0
C3990 C 0.40904 0.96096 0.28608 0.0
C3991 C 0.40987 0.96538 0.26935 0.0
C3992 C 0.40045 0.96458 0.298 0.0
C3993 C 0.39237 0.97264 0.29302 0.0
C3994 C 0.39312 0.97708 0.27614 0.0
C3995 C 0.4019 0.97344 0.26453 0.0
C3996 C 0.39998 0.95975 0.31592 0.0
C3997 C 0.38459 0.98559 0.27032 0.0
H3998 H 0.34412 0.95897 0.32006 0.0
H3999 H 0.38699 0.00735 0.33243 0.0
H4000 H 0.35807 0.94944 0.28423 0.0
H4001 H 0.36385 0.94081 0.30029 0.0
H4002 H 0.34449 0.9394 0.3014 0.0
H4003 H 0.41264 0.01611 0.32111 0.0
H4004 H 0.41593 0.99947 0.3152 0.0
H4005 H 0.41075 0.00889 0.29945 0.0
H4006 H 0.41516 0.95471 0.28984 0.0
H4007 H 0.40254 0.97688 0.25161 0.0
H4008 H 0.38714 0.95085 0.3195 0.0
H4009 H 0.40492 0.971 0.32455 0.0
H4010 H 0.40716 0.95384 0.31783 0.0
H4011 H 0.37126 0.97757 0.27254 0.0
H4012 H 0.38642 0.98826 0.25676 0.0
H4013 H 0.3892 0.99758 0.27767 0.0
C4014 C 0.62132 0.98231 0.32918 0.0
C4015 C 0.63165 0.98102 0.31761 0.0
C4016 C 0.6091 0.98497 0.32385 0.0
C4017 C 0.60699 0.98614 0.30651 0.0
C4018 C 0.61697 0.98424 0.29471 0.0
C4019 C 0.62927 0.9818 0.30041 0.0
C4020 C 0.59879 0.98706 0.33685 0.0
C4021 C 0.61491 0.98517 0.27611 0.0
C4022 C 0.56655 0.98101 0.29444 0.0
C4023 C 0.57094 0.99775 0.29392 0.0
C4024 C 0.57829 0.977 0.2978 0.0
C4025 C 0.59478 0.99006 0.30094 0.0
C4026 C 0.59937 0.00698 0.29995 0.0
C4027 C 0.58739 0.01062 0.29642 0.0
C4028 C 0.57296 0.95882 0.29859 0.0
C4029 C 0.6168 0.02126 0.30331 0.0
H4030 H 0.62308 0.98176 0.3425 0.0
H4031 H 0.63715 0.98072 0.29139 0.0
H4032 H 0.60084 0.99979 0.33638 0.0
H4033 H 0.5856 0.97792 0.3341 0.0
H4034 H 0.60165 0.98532 0.3498 0.0
H4035 H 0.62283 0.98223 0.2685 0.0
H4036 H 0.60197 0.97631 0.27211 0.0
H4037 H 0.61799 0.99795 0.27331 0.0
H4038 H 0.55383 0.97104 0.29256 0.0
H4039 H 0.59079 0.02356 0.29608 0.0
H4040 H 0.57419 0.95605 0.3117 0.0
H4041 H 0.58095 0.9562 0.29074 0.0
H4042 H 0.56006 0.95019 0.2943 0.0
H4043 H 0.62031 0.02128 0.31655 0.0
H4044 H 0.61854 0.03365 0.30106 0.0
H4045 H 0.62528 0.01962 0.29521 0.0
C4046 C 0.02259 0.65148 0.31856 0.0
C4047 C 0.01342 0.65901 0.32037 0.0
C4048 C 0.01603 0.63583 0.30999 0.0
C4049 C -0.0001 0.62748 0.30323 0.0
C4050 C 0.99057 0.63498 0.30508 0.0
C4051 C 0.99747 0.65068 0.31355 0.0
C4052 C 0.02637 0.62825 0.30811 0.0
C4053 C 0.97327 0.6264 0.29815 0.0
C4054 C 0.98725 0.59484 0.26755 0.0
C4055 C 0.9787 0.57983 0.27602 0.0
C4056 C 0.99446 0.61043 0.2763 0.0
C4057 C 0.99281 0.61103 0.29392 0.0
C4058 C 0.98397 0.59594 0.30254 0.0
C4059 C 0.97699 0.5805 0.29346 0.0
C4060 C 0.00378 0.62624 0.26668 0.0
C4061 C 0.98177 0.59612 0.3213 0.0
H4062 H 0.03491 0.65785 0.32379 0.0
H4063 H 0.99024 0.65633 0.31498 0.0
H4064 H 0.02014 0.61583 0.31381 0.0
H4065 H 0.0279 0.62618 0.29459 0.0
H4066 H 0.03868 0.63633 0.31411 0.0
H4067 H 0.96756 0.63379 0.30095 0.0
H4068 H 0.9732 0.62436 0.28434 0.0
H4069 H 0.9656 0.6139 0.30352 0.0
H4070 H 0.98833 0.59437 0.25402 0.0
H4071 H 0.97017 0.56892 0.29999 0.0
H4072 H 0.01644 0.63425 0.27184 0.0
H4073 H 0.99785 0.63356 0.26812 0.0
H4074 H 0.00439 0.62359 0.25307 0.0
H4075 H 0.99389 0.60324 0.32782 0.0
H4076 H 0.97474 0.58329 0.32613 0.0
H4077 H 0.97525 0.60259 0.32461 0.0
C4078 C 0.37363 0.37327 0.34073 0.0
C4079 C 0.35873 0.36488 0.33168 0.0
C4080 C 0.38851 0.38333 0.33265 0.0
C4081 C 0.38851 0.38502 0.31509 0.0
C4082 C 0.37352 0.37668 0.30588 0.0
C4083 C 0.3588 0.36671 0.31429 0.0
C4084 C 0.40425 0.39207 0.3429 0.0
C4085 C 0.37306 0.3782 0.28714 0.0
C4086 C 0.42608 0.42287 0.29763 0.0
C4087 C 0.43498 0.41592 0.29164 0.0
C4088 C 0.41074 0.41287 0.30493 0.0
C4089 C 0.40424 0.39554 0.30641 0.0
C4090 C 0.41308 0.3884 0.3002 0.0
C4091 C 0.42838 0.39869 0.29292 0.0
C4092 C 0.40168 0.42094 0.3114 0.0
C4093 C 0.40657 0.36998 0.30163 0.0
H4094 H 0.3737 0.37194 0.35416 0.0
H4095 H 0.34735 0.36025 0.3072 0.0
H4096 H 0.41243 0.3879 0.33824 0.0
H4097 H 0.4108 0.40581 0.3415 0.0
H4098 H 0.40213 0.38955 0.35647 0.0
H4099 H 0.36039 0.37104 0.28184 0.0
H4100 H 0.37881 0.39157 0.28417 0.0
H4101 H 0.38024 0.37355 0.28078 0.0
H4102 H 0.43124 0.43621 0.29683 0.0
H4103 H 0.43534 0.39334 0.28848 0.0
H4104 H 0.40035 0.41984 0.3252 0.0
H4105 H 0.38917 0.41434 0.30576 0.0
H4106 H 0.40806 0.43441 0.30857 0.0
H4107 H 0.40541 0.36694 0.31506 0.0
H4108 H 0.41463 0.36626 0.29554 0.0
H4109 H 0.39417 0.36232 0.29576 0.0
C4110 C 0.32604 0.29276 0.36133 0.0
C4111 C 0.32237 0.30131 0.37362 0.0
C4112 C 0.33292 0.28353 0.36574 0.0
C4113 C 0.33607 0.28268 0.38287 0.0
C4114 C 0.33197 0.29086 0.39538 0.0
C4115 C 0.32522 0.30014 0.39061 0.0
C4116 C 0.33722 0.27505 0.35202 0.0
C4117 C 0.33499 0.29007 0.41379 0.0
C4118 C 0.34237 0.24753 0.39323 0.0
C4119 C 0.35949 0.25589 0.39389 0.0
C4120 C 0.33455 0.25619 0.39021 0.0
C4121 C 0.34411 0.2736 0.38758 0.0
C4122 C 0.3614 0.28219 0.38863 0.0
C4123 C 0.36888 0.27325 0.39189 0.0
C4124 C 0.31609 0.24664 0.38941 0.0
C4125 C 0.37201 0.30072 0.38579 0.0
H4126 H 0.32392 0.29362 0.34818 0.0
H4127 H 0.32238 0.30666 0.40019 0.0
H4128 H 0.3506 0.28033 0.35231 0.0
H4129 H 0.33105 0.26145 0.35413 0.0
H4130 H 0.33364 0.2766 0.33933 0.0
H4131 H 0.3303 0.29636 0.422 0.0
H4132 H 0.32904 0.27682 0.41727 0.0
H4133 H 0.34831 0.29617 0.41631 0.0
H4134 H 0.33507 0.23412 0.39482 0.0
H4135 H 0.38212 0.27974 0.39247 0.0
H4136 H 0.31191 0.24668 0.37648 0.0
H4137 H 0.31152 0.25284 0.39791 0.0
H4138 H 0.31045 0.23343 0.39294 0.0
H4139 H 0.37002 0.30316 0.3728 0.0
H4140 H 0.38524 0.30565 0.38768 0.0
H4141 H 0.36858 0.30782 0.39446 0.0
C4142 C 0.69326 0.03833 0.36886 0.0
C4143 C 0.69894 0.02882 0.37572 0.0
C4144 C 0.70084 0.0555 0.37294 0.0
C4145 C 0.71445 0.06345 0.3842 0.0
C4146 C 0.7201 0.05392 0.39142 0.0
C4147 C 0.71227 0.03669 0.38709 0.0
C4148 C 0.69442 0.0652 0.36495 0.0
C4149 C 0.73454 0.06198 0.40352 0.0
C4150 C 0.74206 0.11024 0.37912 0.0
C4151 C 0.7362 0.11669 0.39144 0.0
C4152 C 0.73563 0.09297 0.37716 0.0
C4153 C 0.72301 0.08186 0.38779 0.0
C4154 C 0.71748 0.08834 0.40071 0.0
C4155 C 0.72401 0.10567 0.40226 0.0
C4156 C 0.74174 0.08657 0.36311 0.0
C4157 C 0.70411 0.0769 0.41237 0.0
H4158 H 0.68293 0.03238 0.36013 0.0
H4159 H 0.71672 0.02945 0.39247 0.0
H4160 H 0.6911 0.07148 0.3748 0.0
H4161 H 0.70411 0.07515 0.35731 0.0
H4162 H 0.68351 0.05707 0.35672 0.0
H4163 H 0.73699 0.05272 0.40859 0.0
H4164 H 0.74565 0.07161 0.39712 0.0
H4165 H 0.73234 0.06847 0.41416 0.0
H4166 H 0.75131 0.11871 0.37059 0.0
H4167 H 0.71924 0.11056 0.41163 0.0
H4168 H 0.73185 0.0794 0.35351 0.0
H4169 H 0.74508 0.0779 0.36794 0.0
H4170 H 0.75255 0.0969 0.35689 0.0
H4171 H 0.69233 0.06954 0.40527 0.0
H4172 H 0.70261 0.08398 0.42296 0.0
H4173 H 0.70678 0.06784 0.41755 0.0
C4174 C 0.96623 0.66296 0.37967 0.0
C4175 C 0.97313 0.67689 0.36955 0.0
C4176 C 0.94974 0.6548 0.38423 0.0
C4177 C 0.93992 0.66066 0.37846 0.0
C4178 C 0.94691 0.67496 0.3686 0.0
C4179 C 0.96345 0.68294 0.36431 0.0
C4180 C 0.94275 0.63969 0.3949 0.0
C4181 C 0.93679 0.68155 0.36218 0.0
C4182 C 0.89393 0.63044 0.3743 0.0
C4183 C 0.88827 0.63563 0.38811 0.0
C4184 C 0.91072 0.63838 0.37113 0.0
C4185 C 0.92218 0.65153 0.38222 0.0
C4186 C 0.91665 0.6563 0.39656 0.0
C4187 C 0.8998 0.64833 0.39928 0.0
C4188 C 0.91618 0.63297 0.35567 0.0
C4189 C 0.92852 0.67005 0.40885 0.0
H4190 H 0.97363 0.65823 0.38382 0.0
H4191 H 0.96868 0.69368 0.35648 0.0
H4192 H 0.93678 0.64138 0.40607 0.0
H4193 H 0.93321 0.62839 0.38761 0.0
H4194 H 0.95225 0.63734 0.3992 0.0
H4195 H 0.94419 0.69311 0.3551 0.0
H4196 H 0.92678 0.67185 0.35381 0.0
H4197 H 0.931 0.68433 0.37281 0.0
H4198 H 0.88537 0.62045 0.36566 0.0
H4199 H 0.89559 0.65224 0.41009 0.0
H4200 H 0.92489 0.6293 0.35924 0.0
H4201 H 0.92272 0.64362 0.34727 0.0
H4202 H 0.90576 0.62227 0.34851 0.0
H4203 H 0.93773 0.66736 0.41331 0.0
H4204 H 0.92229 0.67155 0.41992 0.0
H4205 H 0.93526 0.68213 0.40253 0.0
C4206 C 0.37878 0.01782 0.70515 0.0
C4207 C 0.36312 0.01327 0.71054 0.0
C4208 C 0.38841 0.01365 0.71428 0.0
C4209 C 0.38225 0.0048 0.72913 0.0
C4210 C 0.36668 0.00055 0.73487 0.0
C4211 C 0.35727 0.0048 0.72549 0.0
C4212 C 0.40501 0.01839 0.70787 0.0
C4213 C 0.35985 0.99126 0.75079 0.0
C4214 C 0.39772 0.9705 0.7449 0.0
C4215 C 0.41486 0.98638 0.75882 0.0
C4216 C 0.38741 0.97843 0.73347 0.0
C4217 C 0.39164 0.99928 0.73826 0.0
C4218 C 0.40527 0.01253 0.75529 0.0
C4219 C 0.41619 0.00574 0.76747 0.0
C4220 C 0.3754 0.96774 0.71985 0.0
C4221 C 0.4075 0.0292 0.75932 0.0
H4222 H 0.38341 0.0244 0.69363 0.0
H4223 H 0.34523 0.00132 0.72982 0.0
H4224 H 0.41448 0.02572 0.71781 0.0
H4225 H 0.40508 0.00685 0.70475 0.0
H4226 H 0.40835 0.02591 0.69651 0.0
H4227 H 0.34783 0.98952 0.75396 0.0
H4228 H 0.35833 0.97875 0.74938 0.0
H4229 H 0.36857 0.9982 0.76144 0.0
H4230 H 0.3964 0.95867 0.74117 0.0
H4231 H 0.42531 0.014 0.77686 0.0
H4232 H 0.37906 0.97455 0.70802 0.0
H4233 H 0.36317 0.96534 0.72313 0.0
H4234 H 0.37476 0.95567 0.71804 0.0
H4235 H 0.41176 0.03677 0.748 0.0
H4236 H 0.41647 0.03584 0.76983 0.0
H4237 H 0.39554 0.02744 0.76273 0.0
C4238 C 0.99401 0.36264 0.70817 0.0
C4239 C 0.99167 0.35863 0.69086 0.0
C4240 C 0.9916 0.375 0.71538 0.0
C4241 C 0.98648 0.38329 0.70506 0.0
C4242 C 0.98418 0.37933 0.68757 0.0
C4243 C 0.98693 0.36714 0.68067 0.0
C4244 C 0.99444 0.37911 0.73404 0.0
C4245 C 0.97853 0.38775 0.67617 0.0
C4246 C 0.96399 0.40294 0.72382 0.0
C4247 C 0.97603 0.42008 0.72357 0.0
C4248 C 0.96732 0.39079 0.71816 0.0
C4249 C 0.98318 0.39591 0.71248 0.0
C4250 C 0.99561 0.41315 0.71299 0.0
C4251 C 0.99185 0.42505 0.71843 0.0
C4252 C 0.95371 0.37253 0.71768 0.0
C4253 C 0.01275 0.41907 0.70736 0.0
H4254 H 0.99774 0.35615 0.7161 0.0
H4255 H 0.98502 0.36403 0.66729 0.0
H4256 H 0.0034 0.39272 0.73639 0.0
H4257 H 0.98286 0.37617 0.74005 0.0
H4258 H 0.99906 0.37202 0.74019 0.0
H4259 H 0.97732 0.38324 0.66285 0.0
H4260 H 0.9665 0.38538 0.68031 0.0
H4261 H 0.9873 0.40152 0.67696 0.0
H4262 H 0.95182 0.39906 0.72804 0.0
H4263 H 0.00124 0.43828 0.71841 0.0
H4264 H 0.9575 0.36515 0.72463 0.0
H4265 H 0.95109 0.36745 0.70448 0.0
H4266 H 0.94225 0.37059 0.72317 0.0
H4267 H 0.01751 0.41227 0.7138 0.0
H4268 H 0.02132 0.43275 0.7099 0.0
H4269 H 0.0126 0.41628 0.69367 0.0
C4270 C 0.63761 0.64098 0.70932 0.0
C4271 C 0.64819 0.63584 0.70385 0.0
C4272 C 0.62285 0.62988 0.71716 0.0
C4273 C 0.61851 0.61322 0.71949 0.0
C4274 C 0.62917 0.60798 0.7141 0.0
C4275 C 0.6439 0.61937 0.7064 0.0
C4276 C 0.61185 0.63596 0.72285 0.0
C4277 C 0.62491 0.59027 0.71626 0.0
C4278 C 0.58698 0.58685 0.75177 0.0
C4279 C 0.57283 0.57708 0.74169 0.0
C4280 C 0.60182 0.599 0.74479 0.0
C4281 C 0.60265 0.60112 0.72725 0.0
C4282 C 0.58844 0.59126 0.71701 0.0
C4283 C 0.57372 0.5794 0.72437 0.0
C4284 C 0.61668 0.60938 0.75612 0.0
C4285 C 0.58889 0.59297 0.69823 0.0
H4286 H 0.64084 0.65371 0.70747 0.0
H4287 H 0.65198 0.61528 0.70221 0.0
H4288 H 0.59986 0.62854 0.71614 0.0
H4289 H 0.60947 0.63406 0.73647 0.0
H4290 H 0.61722 0.64943 0.72056 0.0
H4291 H 0.63459 0.58823 0.71153 0.0
H4292 H 0.623 0.58733 0.72972 0.0
H4293 H 0.61327 0.58128 0.70944 0.0
H4294 H 0.58649 0.58486 0.76511 0.0
H4295 H 0.56289 0.57162 0.71651 0.0
H4296 H 0.622 0.62292 0.75437 0.0
H4297 H 0.62622 0.60663 0.75277 0.0
H4298 H 0.61377 0.60689 0.7696 0.0
H4299 H 0.59336 0.60611 0.69531 0.0
H4300 H 0.57668 0.58463 0.6921 0.0
H4301 H 0.59757 0.58986 0.69265 0.0
C4302 C 0.6678 0.70319 0.6319 0.0
C4303 C 0.67289 0.70497 0.64873 0.0
C4304 C 0.66217 0.713 0.62575 0.0
C4305 C 0.6615 0.72482 0.63671 0.0
C4306 C 0.66704 0.72702 0.65358 0.0
C4307 C 0.67273 0.71711 0.65938 0.0
C4308 C 0.65651 0.71039 0.60763 0.0
C4309 C 0.66645 0.73945 0.66567 0.0
C4310 C 0.65676 0.75846 0.61792 0.0
C4311 C 0.63979 0.75132 0.61881 0.0
C4312 C 0.66403 0.74996 0.62363 0.0
C4313 C 0.65413 0.73414 0.63074 0.0
C4314 C 0.63706 0.72708 0.63202 0.0
C4315 C 0.63011 0.73576 0.62606 0.0
C4316 C 0.68226 0.75786 0.62202 0.0
C4317 C 0.62611 0.71034 0.63972 0.0
H4318 H 0.66798 0.69392 0.62355 0.0
H4319 H 0.67664 0.71858 0.6724 0.0
H4320 H 0.6432 0.70543 0.60704 0.0
H4321 H 0.66284 0.72252 0.60137 0.0
H4322 H 0.6588 0.70149 0.60048 0.0
H4323 H 0.6721 0.74036 0.67809 0.0
H4324 H 0.67287 0.75206 0.66039 0.0
H4325 H 0.65354 0.73564 0.66756 0.0
H4326 H 0.66437 0.77069 0.61274 0.0
H4327 H 0.61706 0.73041 0.62713 0.0
H4328 H 0.68477 0.74941 0.61434 0.0
H4329 H 0.68798 0.75965 0.63459 0.0
H4330 H 0.68822 0.77019 0.61611 0.0
H4331 H 0.62679 0.70044 0.63246 0.0
H4332 H 0.61312 0.70673 0.64003 0.0
H4333 H 0.63035 0.71074 0.65273 0.0
C4334 C 0.31314 0.97776 0.63756 0.0
C4335 C 0.30759 0.9792 0.65348 0.0
C4336 C 0.30534 0.96239 0.62828 0.0
C4337 C 0.29172 0.94815 0.63508 0.0
C4338 C 0.28589 0.94955 0.65098 0.0
C4339 C 0.29388 0.96506 0.66 0.0
C4340 C 0.31178 0.96132 0.61128 0.0
C4341 C 0.27137 0.93462 0.65858 0.0
C4342 C 0.25792 0.90691 0.59864 0.0
C4343 C 0.26353 0.89189 0.60541 0.0
C4344 C 0.2676 0.9265 0.61076 0.0
C4345 C 0.28385 0.93183 0.6257 0.0
C4346 C 0.29189 0.91857 0.62831 0.0
C4347 C 0.28302 0.89869 0.6168 0.0
C4348 C 0.26207 0.93835 0.6085 0.0
C4349 C 0.30585 0.92402 0.64022 0.0
H4350 H 0.32369 0.98861 0.6324 0.0
H4351 H 0.28949 0.96603 0.67228 0.0
H4352 H 0.31577 0.95225 0.61142 0.0
H4353 H 0.30189 0.95659 0.60161 0.0
H4354 H 0.32227 0.97363 0.60757 0.0
H4355 H 0.26813 0.93787 0.67093 0.0
H4356 H 0.2606 0.92935 0.64994 0.0
H4357 H 0.2741 0.92473 0.6603 0.0
H4358 H 0.24736 0.90297 0.59062 0.0
H4359 H 0.28672 0.88999 0.61936 0.0
H4360 H 0.27251 0.95046 0.60437 0.0
H4361 H 0.25806 0.94084 0.62074 0.0
H4362 H 0.25189 0.93309 0.59911 0.0
H4363 H 0.31656 0.93604 0.63629 0.0
H4364 H 0.30907 0.91436 0.64057 0.0
H4365 H 0.30248 0.9263 0.65293 0.0
C4366 C 0.05018 0.34081 0.66292 0.0
C4367 C 0.03712 0.33481 0.65136 0.0
C4368 C 0.06642 0.34886 0.65752 0.0
C4369 C 0.06966 0.35085 0.64014 0.0
C4370 C 0.05653 0.34461 0.62841 0.0
C4371 C 0.04042 0.33672 0.63416 0.0
C4372 C 0.08012 0.35543 0.67042 0.0
C4373 C 0.05951 0.34639 0.60977 0.0
C4374 C 0.11186 0.38538 0.62689 0.0
C4375 C 0.11939 0.37642 0.6231 0.0
C4376 C 0.09566 0.37721 0.63241 0.0
C4377 C 0.08681 0.35966 0.63426 0.0
C4378 C 0.09439 0.35055 0.63059 0.0
C4379 C 0.11064 0.35906 0.62522 0.0
C4380 C 0.08806 0.38738 0.6364 0.0
C4381 C 0.08534 0.33182 0.63239 0.0
H4382 H 0.04775 0.33943 0.67624 0.0
H4383 H 0.03041 0.33208 0.62514 0.0
H4384 H 0.08752 0.34978 0.66785 0.0
H4385 H 0.08842 0.3692 0.66959 0.0
H4386 H 0.07553 0.3527 0.68343 0.0
H4387 H 0.04794 0.3405 0.60226 0.0
H4388 H 0.0671 0.35986 0.60697 0.0
H4389 H 0.06642 0.34054 0.60565 0.0
H4390 H 0.11871 0.39884 0.62561 0.0
H4391 H 0.11654 0.35214 0.62271 0.0
H4392 H 0.08422 0.38596 0.64968 0.0
H4393 H 0.07691 0.38267 0.62846 0.0
H4394 H 0.0966 0.40092 0.63431 0.0
H4395 H 0.08158 0.3288 0.6456 0.0
H4396 H 0.09288 0.32655 0.62871 0.0
H4397 H 0.07402 0.3255 0.62448 0.0
C4398 C 0.29799 0.34337 0.66637 0.0
C4399 C 0.30165 0.33455 0.6544 0.0
C4400 C 0.291 0.35238 0.66157 0.0
C4401 C 0.28742 0.35247 0.64439 0.0
C4402 C 0.29066 0.34324 0.63228 0.0
C4403 C 0.29782 0.33444 0.63742 0.0
C4404 C 0.28781 0.36215 0.67486 0.0
C4405 C 0.28683 0.34289 0.61388 0.0
C4406 C 0.25747 0.36594 0.63628 0.0
C4407 C 0.26807 0.38293 0.63306 0.0
C4408 C 0.26355 0.35566 0.63923 0.0
C4409 C 0.28066 0.3626 0.6392 0.0
C4410 C 0.29138 0.37961 0.63539 0.0
C4411 C 0.28494 0.38956 0.63228 0.0
C4412 C 0.25172 0.33753 0.64302 0.0
C4413 C 0.3097 0.38751 0.63532 0.0
H4414 H 0.30095 0.34358 0.67951 0.0
H4415 H 0.30057 0.32763 0.62809 0.0
H4416 H 0.29504 0.37569 0.67228 0.0
H4417 H 0.27471 0.35807 0.67455 0.0
H4418 H 0.29106 0.36057 0.6877 0.0
H4419 H 0.28931 0.33443 0.60616 0.0
H4420 H 0.27379 0.33872 0.61209 0.0
H4421 H 0.2943 0.35571 0.60914 0.0
H4422 H 0.24442 0.36078 0.63686 0.0
H4423 H 0.29314 0.40268 0.62976 0.0
H4424 H 0.25337 0.33552 0.65629 0.0
H4425 H 0.25421 0.32924 0.63503 0.0
H4426 H 0.23877 0.33367 0.64097 0.0
H4427 H 0.31416 0.38764 0.64817 0.0
H4428 H 0.31627 0.40057 0.6311 0.0
H4429 H 0.31291 0.38001 0.62698 0.0
C4430 C 0.67998 0.97351 0.64684 0.0
C4431 C 0.67332 0.98303 0.65191 0.0
C4432 C 0.67004 0.95729 0.63948 0.0
C4433 C 0.65305 0.95048 0.6372 0.0
C4434 C 0.64623 0.95994 0.64249 0.0
C4435 C 0.65644 0.9761 0.64975 0.0
C4436 C 0.67772 0.94754 0.63394 0.0
C4437 C 0.62817 0.9531 0.64028 0.0
C4438 C 0.62992 0.91639 0.6032 0.0
C4439 C 0.62204 0.9019 0.61252 0.0
C4440 C 0.64013 0.93225 0.61108 0.0
C4441 C 0.64247 0.93367 0.62872 0.0
C4442 C 0.63443 0.91913 0.63824 0.0
C4443 C 0.62426 0.9034 0.63001 0.0
C4444 C 0.64841 0.94748 0.60051 0.0
C4445 C 0.63657 0.92021 0.65709 0.0
H4446 H 0.693 0.97876 0.64848 0.0
H4447 H 0.65115 0.98333 0.65368 0.0
H4448 H 0.67157 0.9353 0.64 0.0
H4449 H 0.67603 0.94484 0.62017 0.0
H4450 H 0.69102 0.95442 0.63705 0.0
H4451 H 0.62472 0.96186 0.64557 0.0
H4452 H 0.62474 0.95061 0.62673 0.0
H4453 H 0.62088 0.94099 0.64648 0.0
H4454 H 0.62812 0.91526 0.58968 0.0
H4455 H 0.61808 0.89223 0.63725 0.0
H4456 H 0.66188 0.95421 0.60233 0.0
H4457 H 0.64461 0.95629 0.60454 0.0
H4458 H 0.64545 0.94417 0.58691 0.0
H4459 H 0.64971 0.92617 0.66049 0.0
H4460 H 0.62959 0.9077 0.66263 0.0
H4461 H 0.63243 0.92822 0.66285 0.0
C4462 C 0.02403 0.70523 0.63241 0.0
C4463 C 0.01809 0.69722 0.64758 0.0
C4464 C 0.04072 0.71318 0.62861 0.0
C4465 C 0.05167 0.71302 0.64022 0.0
C4466 C 0.04574 0.70496 0.65555 0.0
C4467 C 0.02906 0.69723 0.65905 0.0
C4468 C 0.04666 0.72174 0.61219 0.0
C4469 C 0.057 0.70444 0.66825 0.0
C4470 C 0.09239 0.71915 0.6275 0.0
C4471 C 0.10343 0.73549 0.63394 0.0
C4472 C 0.07543 0.71192 0.62871 0.0
C4473 C 0.06939 0.72128 0.63656 0.0
C4474 C 0.08048 0.73804 0.64241 0.0
C4475 C 0.09737 0.7449 0.64112 0.0
C4476 C 0.06401 0.694 0.62238 0.0
C4477 C 0.07453 0.74845 0.65078 0.0
H4478 H 0.01564 0.70529 0.62348 0.0
H4479 H 0.02461 0.69103 0.67079 0.0
H4480 H 0.05622 0.73517 0.61462 0.0
H4481 H 0.05234 0.71602 0.60472 0.0
H4482 H 0.03661 0.72086 0.60457 0.0
H4483 H 0.05041 0.69755 0.67951 0.0
H4484 H 0.06308 0.6983 0.66242 0.0
H4485 H 0.06676 0.71738 0.67236 0.0
H4486 H 0.09707 0.71182 0.62204 0.0
H4487 H 0.10588 0.75751 0.64618 0.0
H4488 H 0.0542 0.69297 0.61426 0.0
H4489 H 0.05802 0.68597 0.63318 0.0
H4490 H 0.07053 0.68902 0.61516 0.0
H4491 H 0.0648 0.74799 0.64298 0.0
H4492 H 0.08456 0.76176 0.653 0.0
H4493 H 0.06911 0.74323 0.66304 0.0
C4494 C 0.97597 0.63231 0.72257 0.0
C4495 C 0.97444 0.63396 0.70538 0.0
C4496 C 0.97807 0.61963 0.72817 0.0
C4497 C 0.97886 0.60853 0.71627 0.0
C4498 C 0.97704 0.60995 0.69894 0.0
C4499 C 0.97474 0.62257 0.69372 0.0
C4500 C 0.97973 0.61831 0.74677 0.0
C4501 C 0.97796 0.59843 0.68585 0.0
C4502 C 0.00147 0.58713 0.72665 0.0
C4503 C 0.98849 0.57062 0.72878 0.0
C4504 C 0.99851 0.59973 0.72308 0.0
C4505 C 0.98218 0.59573 0.72177 0.0
C4506 C 0.96904 0.57923 0.72454 0.0
C4507 C 0.97236 0.56684 0.72791 0.0
C4508 C 0.01284 0.61715 0.72007 0.0
C4509 C 0.95147 0.57455 0.72343 0.0
H4510 H 0.97567 0.64102 0.73166 0.0
H4511 H 0.97361 0.62376 0.6804 0.0
H4512 H 0.97078 0.60537 0.75056 0.0
H4513 H 0.99212 0.62093 0.74972 0.0
H4514 H 0.97779 0.6272 0.75443 0.0
H4515 H 0.97595 0.60097 0.6729 0.0
H4516 H 0.99015 0.59993 0.68657 0.0
H4517 H 0.96868 0.58517 0.68829 0.0
H4518 H 0.01395 0.59008 0.72739 0.0
H4519 H 0.9623 0.55409 0.72959 0.0
H4520 H 0.01214 0.62653 0.72829 0.0
H4521 H 0.01242 0.62026 0.70688 0.0
H4522 H 0.02479 0.61841 0.72242 0.0
H4523 H 0.94975 0.58341 0.7314 0.0
H4524 H 0.94277 0.5616 0.72741 0.0
H4525 H 0.94836 0.57547 0.71031 0.0
C4526 C 0.37331 0.38287 0.68147 0.0
C4527 C 0.36621 0.36947 0.69225 0.0
C4528 C 0.38336 0.39946 0.68774 0.0
C4529 C 0.3865 0.40276 0.70524 0.0
C4530 C 0.37981 0.38928 0.71618 0.0
C4531 C 0.3697 0.37277 0.70955 0.0
C4532 C 0.39026 0.41349 0.67565 0.0
C4533 C 0.38301 0.39234 0.73489 0.0
C4534 C 0.42295 0.44615 0.71688 0.0
C4535 C 0.41537 0.45515 0.72017 0.0
C4536 C 0.41366 0.42886 0.71289 0.0
C4537 C 0.39638 0.42043 0.71197 0.0
C4538 C 0.38864 0.42932 0.71594 0.0
C4539 C 0.39823 0.44659 0.72004 0.0
C4540 C 0.42236 0.41978 0.7089 0.0
C4541 C 0.37025 0.4208 0.71503 0.0
H4542 H 0.37073 0.38047 0.66808 0.0
H4543 H 0.36428 0.36248 0.71797 0.0
H4544 H 0.38557 0.42177 0.67863 0.0
H4545 H 0.40379 0.42129 0.67698 0.0
H4546 H 0.387 0.40877 0.66236 0.0
H4547 H 0.37778 0.38048 0.74156 0.0
H4548 H 0.39637 0.40014 0.7376 0.0
H4549 H 0.37759 0.39939 0.74006 0.0
H4550 H 0.4362 0.45274 0.71695 0.0
H4551 H 0.39236 0.45354 0.72256 0.0
H4552 H 0.42087 0.41612 0.69531 0.0
H4553 H 0.41691 0.4081 0.71588 0.0
H4554 H 0.43565 0.42766 0.71203 0.0
H4555 H 0.36594 0.41687 0.7018 0.0
H4556 H 0.36609 0.42914 0.71983 0.0
H4557 H 0.36434 0.40933 0.72236 0.0
C4558 C 0.64341 0.03044 0.70167 0.0
C4559 C 0.64319 0.02537 0.68482 0.0
C4560 C 0.62883 0.02636 0.70975 0.0
C4561 C 0.61375 0.01689 0.70079 0.0
C4562 C 0.61353 0.01218 0.68365 0.0
C4563 C 0.62825 0.01656 0.67587 0.0
C4564 C 0.62952 0.03178 0.72798 0.0
C4565 C 0.59768 0.00201 0.67366 0.0
C4566 C 0.57368 0.98877 0.72241 0.0
C4567 C 0.56594 0.99772 0.72103 0.0
C4568 C 0.58962 0.99527 0.71663 0.0
C4569 C 0.598 0.01112 0.70933 0.0
C4570 C 0.59055 0.02056 0.70866 0.0
C4571 C 0.57454 0.01369 0.71441 0.0
C4572 C 0.59712 0.98477 0.71749 0.0
C4573 C 0.59915 0.03756 0.70109 0.0
H4574 H 0.65492 0.03731 0.70865 0.0
H4575 H 0.62794 0.0126 0.66284 0.0
H4576 H 0.62284 0.03832 0.7297 0.0
H4577 H 0.62338 0.02059 0.73572 0.0
H4578 H 0.64228 0.04023 0.73276 0.0
H4579 H 0.59969 0.99982 0.66031 0.0
H4580 H 0.58979 0.98967 0.67929 0.0
H4581 H 0.59088 0.00848 0.67408 0.0
H4582 H 0.56702 0.9764 0.72747 0.0
H4583 H 0.56856 0.02062 0.7133 0.0
H4584 H 0.60957 0.99225 0.72326 0.0
H4585 H 0.59838 0.98073 0.70459 0.0
H4586 H 0.58961 0.97342 0.72483 0.0
H4587 H 0.61179 0.04555 0.7063 0.0
H4588 H 0.59255 0.04414 0.70339 0.0
H4589 H 0.60008 0.03606 0.68733 0.0
loop_
_geom_bond_atom_site_label_1
_geom_bond_atom_site_label_2
_geom_bond_distance
_geom_bond_site_symmetry_2
_ccdc_geom_bond_type
C0 O1 1.160 . S
C0 O7 1.185 . S
O1 C0 1.160 . S
O2 Zn3 1.899 1_656 S
O2 C10 1.284 . S
Zn3 O2 1.899 1_454 S
Zn3 O4 2.032 . S
Zn3 O7 2.086 . S
Zn3 O12 1.977 1_554 S
O4 Zn3 2.032 . S
O4 C8 1.278 1_455 S
C5 O6 1.203 1_455 S
C5 O12 1.267 . S
O6 C5 1.203 1_655 S
O7 C0 1.185 . S
O7 Zn3 2.086 . S
C8 O4 1.278 1_655 S
C8 O9 1.211 . S
O9 C8 1.211 . S
C10 O2 1.284 . S
C10 O11 1.273 1_556 S
O11 C10 1.273 1_554 S
O12 Zn3 1.977 1_556 S
O12 C5 1.267 . S
C13 O14 1.153 1_554 S
C13 O20 1.205 . S
O14 C13 1.153 1_556 S
O15 Zn16 1.899 . S
O15 C23 1.284 . S
Zn16 O15 1.899 . S
Zn16 O17 2.032 1_554 S
Zn16 O20 2.086 . S
Zn16 O25 1.977 . S
O17 Zn16 2.032 1_556 S
O17 C21 1.278 . S
C18 O19 1.203 . S
C18 O25 1.267 . S
O19 C18 1.203 . S
O20 C13 1.205 . S
O20 Zn16 2.086 . S
C21 O17 1.278 . S
C21 O22 1.211 1_556 S
O22 C21 1.211 1_554 S
C23 O15 1.284 . S
C23 O24 1.273 . S
O24 C23 1.273 . S
O25 Zn16 1.977 . S
O25 C18 1.267 . S
C26 O27 1.160 . S
C26 O33 1.185 1_556 S
O27 C26 1.160 . S
O28 Zn29 1.899 . S
O28 C36 1.284 1_545 S
Zn29 O28 1.899 . S
Zn29 O30 2.032 1_554 S
Zn29 O33 2.086 . S
Zn29 O38 1.977 . S
O30 Zn29 2.032 1_556 S
O30 C34 1.278 . S
C31 O32 1.203 . S
C31 O38 1.267 . S
O32 C31 1.203 . S
O33 C26 1.185 1_554 S
O33 Zn29 2.086 . S
C34 O30 1.278 . S
C34 O35 1.218 1_545 S
O35 C34 1.218 1_565 S
C36 O28 1.284 1_565 S
C36 O37 1.273 . S
O37 C36 1.273 . S
O38 Zn29 1.977 . S
O38 C31 1.267 . S
C39 O40 1.160 . S
C39 O46 1.185 1_556 S
O40 C39 1.160 . S
O41 Zn42 1.899 1_455 S
O41 C49 1.284 . S
Zn42 O41 1.899 1_655 S
Zn42 O43 2.032 1_654 S
Zn42 O46 2.086 . S
Zn42 O51 1.977 . S
O43 Zn42 2.032 1_456 S
O43 C47 1.278 . S
C44 O45 1.203 1_655 S
C44 O51 1.267 . S
O45 C44 1.203 1_455 S
O46 C39 1.185 1_554 S
O46 Zn42 2.086 . S
C47 O43 1.278 . S
C47 O48 1.223 . S
O48 C47 1.223 . S
C49 O41 1.284 . S
C49 O50 1.273 . S
O50 C49 1.273 . S
O51 Zn42 1.977 . S
O51 C44 1.267 . S
C52 O53 1.160 . S
C52 O59 1.185 . S
O53 C52 1.160 . S
O54 Zn55 1.882 1_556 S
O54 C62 1.284 . S
Zn55 O54 1.882 1_554 S
Zn55 O56 2.061 . S
Zn55 O59 2.100 . S
Zn55 O64 1.958 1_554 S
O56 Zn55 2.061 . S
O56 C60 1.278 . S
C57 O58 1.203 . S
C57 O64 1.267 . S
O58 C57 1.203 . S
O59 C52 1.185 . S
O59 Zn55 2.100 . S
C60 O56 1.278 . S
C60 O61 1.211 . S
O61 C60 1.211 . S
C62 O54 1.284 . S
C62 O63 1.273 . S
O63 C62 1.273 . S
O64 Zn55 1.958 1_556 S
O64 C57 1.267 . S
C65 O66 1.160 . S
C65 O72 1.185 . S
O66 C65 1.160 . S
O67 Zn68 1.899 1_546 S
O67 C75 1.280 1_556 S
Zn68 O67 1.899 1_564 S
Zn68 O69 2.032 1_565 S
Zn68 O72 2.086 . S
Zn68 O77 1.977 1_554 S
O69 Zn68 2.032 1_545 S
O69 C73 1.278 . S
C70 O71 1.203 1_565 S
C70 O77 1.267 . S
O71 C70 1.203 1_545 S
O72 C65 1.185 . S
O72 Zn68 2.086 . S
C73 O69 1.278 . S
C73 O74 1.211 . S
O74 C73 1.211 . S
C75 O67 1.280 1_554 S
C75 O76 1.292 . S
O76 C75 1.292 . S
O77 Zn68 1.977 1_556 S
O77 C70 1.267 . S
C78 O79 1.160 . S
C78 O85 1.185 . S
O79 C78 1.160 . S
O80 Zn81 1.899 . S
O80 C88 1.284 . S
Zn81 O80 1.899 . S
Zn81 O82 2.032 . S
Zn81 O85 2.086 . S
Zn81 O90 1.977 . S
O82 Zn81 2.032 . S
O82 C86 1.278 . S
C83 O84 1.203 . S
C83 O90 1.267 . S
O84 C83 1.203 . S
O85 C78 1.185 . S
O85 Zn81 2.086 . S
C86 O82 1.278 . S
C86 O87 1.211 . S
O87 C86 1.211 . S
C88 O80 1.284 . S
C88 O89 1.273 . S
O89 C88 1.273 . S
O90 Zn81 1.977 . S
O90 C83 1.267 . S
C91 O92 1.160 1_565 S
C91 O98 1.185 . S
O92 C91 1.160 1_545 S
O93 Zn94 1.899 1_545 S
O93 C101 1.284 . S
Zn94 O93 1.899 1_565 S
Zn94 O95 2.032 . S
Zn94 O98 2.086 . S
Zn94 O103 1.977 . S
O95 Zn94 2.032 . S
O95 C99 1.278 . S
C96 O97 1.203 . S
C96 O103 1.267 . S
O97 C96 1.203 . S
O98 C91 1.185 . S
O98 Zn94 2.086 . S
C99 O95 1.278 . S
C99 O100 1.211 . S
O100 C99 1.211 . S
C101 O93 1.284 . S
C101 O102 1.273 . S
O102 C101 1.273 . S
O103 Zn94 1.977 . S
O103 C96 1.267 . S
C104 O105 1.160 . S
C104 O111 1.185 . S
O105 C104 1.160 . S
O106 Zn107 1.899 . S
O106 C114 1.284 . S
Zn107 O106 1.899 . S
Zn107 O108 2.032 . S
Zn107 O111 2.086 . S
Zn107 O116 1.977 . S
O108 Zn107 2.032 . S
O108 C112 1.278 . S
C109 O110 1.203 . S
C109 O116 1.267 . S
O110 C109 1.203 . S
O111 C104 1.185 . S
O111 Zn107 2.086 . S
C112 O108 1.278 . S
C112 O113 1.211 . S
O113 C112 1.211 . S
C114 O106 1.284 . S
C114 O115 1.287 . S
O115 C114 1.287 . S
O116 Zn107 1.977 . S
O116 C109 1.267 . S
C117 O118 1.160 1_565 S
C117 O124 1.185 . S
O118 C117 1.160 1_545 S
O119 Zn120 1.899 1_545 S
O119 C127 1.284 . S
Zn120 O119 1.899 1_565 S
Zn120 O121 2.032 . S
Zn120 O124 2.086 . S
Zn120 O129 1.977 . S
O121 Zn120 2.032 . S
O121 C125 1.278 . S
C122 O123 1.203 . S
C122 O129 1.267 . S
O123 C122 1.203 . S
O124 C117 1.185 . S
O124 Zn120 2.086 . S
C125 O121 1.278 . S
C125 O126 1.211 . S
O126 C125 1.211 . S
C127 O119 1.284 . S
C127 O128 1.273 . S
O128 C127 1.273 . S
O129 Zn120 1.977 . S
O129 C122 1.267 . S
C130 O131 1.160 . S
C130 O137 1.185 . S
O131 C130 1.160 . S
O132 Zn133 1.899 . S
O132 C140 1.284 . S
Zn133 O132 1.899 . S
Zn133 O134 2.032 . S
Zn133 O137 2.086 1_455 S
Zn133 O142 1.977 . S
O134 Zn133 2.032 . S
O134 C138 1.278 . S
C135 O136 1.203 . S
C135 O142 1.267 . S
O136 C135 1.203 . S
O137 C130 1.185 . S
O137 Zn133 2.086 1_655 S
C138 O134 1.278 . S
C138 O139 1.211 . S
O139 C138 1.211 . S
C140 O132 1.284 . S
C140 O141 1.273 . S
O141 C140 1.273 . S
O142 Zn133 1.977 . S
O142 C135 1.267 . S
C143 O144 1.160 . S
C143 O150 1.185 . S
O144 C143 1.160 . S
O145 Zn146 1.899 . S
O145 C153 1.284 . S
Zn146 O145 1.899 . S
Zn146 O147 2.032 . S
Zn146 O150 2.086 . S
Zn146 O155 1.977 . S
O147 Zn146 2.032 . S
O147 C151 1.278 . S
C148 O149 1.203 . S
C148 O155 1.267 . S
O149 C148 1.203 . S
O150 C143 1.185 . S
O150 Zn146 2.086 . S
C151 O147 1.278 . S
C151 O152 1.211 . S
O152 C151 1.211 . S
C153 O145 1.284 . S
C153 O154 1.273 . S
O154 C153 1.273 . S
O155 Zn146 1.977 . S
O155 C148 1.267 . S
C156 O157 1.160 . S
C156 O163 1.185 . S
O157 C156 1.160 . S
O158 Zn159 1.899 . S
O158 C166 1.284 1_545 S
Zn159 O158 1.899 . S
Zn159 O160 2.032 . S
Zn159 O163 2.086 . S
Zn159 O168 1.977 . S
O160 Zn159 2.032 . S
O160 C164 1.278 . S
C161 O162 1.203 . S
C161 O168 1.267 . S
O162 C161 1.203 . S
O163 C156 1.185 . S
O163 Zn159 2.086 . S
C164 O160 1.278 . S
C164 O165 1.211 . S
O165 C164 1.211 . S
C166 O158 1.284 1_565 S
C166 O167 1.273 1_565 S
O167 C166 1.273 1_545 S
O168 Zn159 1.977 . S
O168 C161 1.267 . S
C169 O170 1.160 . S
C169 O176 1.185 . S
O170 C169 1.160 . S
O171 Zn172 1.899 . S
O171 C179 1.284 . S
Zn172 O171 1.899 . S
Zn172 O173 2.032 . S
Zn172 O176 2.086 1_655 S
Zn172 O181 1.977 . S
O173 Zn172 2.032 . S
O173 C177 1.278 . S
C174 O175 1.203 . S
C174 O181 1.267 . S
O175 C174 1.203 . S
O176 C169 1.185 . S
O176 Zn172 2.086 1_455 S
C177 O173 1.278 . S
C177 O178 1.211 . S
O178 C177 1.211 . S
C179 O171 1.284 . S
C179 O180 1.273 . S
O180 C179 1.273 . S
O181 Zn172 1.977 . S
O181 C174 1.267 . S
C182 O183 1.160 . S
C182 O189 1.185 . S
O183 C182 1.160 . S
O184 Zn185 1.899 . S
O184 C192 1.284 . S
Zn185 O184 1.899 . S
Zn185 O186 2.032 . S
Zn185 O189 2.086 . S
Zn185 O194 1.977 . S
O186 Zn185 2.032 . S
O186 C190 1.278 . S
C187 O188 1.203 . S
C187 O194 1.267 . S
O188 C187 1.203 . S
O189 C182 1.185 . S
O189 Zn185 2.086 . S
C190 O186 1.278 . S
C190 O191 1.211 . S
O191 C190 1.211 . S
C192 O184 1.284 . S
C192 O193 1.273 . S
O193 C192 1.273 . S
O194 Zn185 1.977 . S
O194 C187 1.267 . S
C195 O196 1.160 . S
C195 O202 1.185 . S
O196 C195 1.160 . S
O197 Zn198 1.899 . S
O197 C205 1.284 . S
Zn198 O197 1.899 . S
Zn198 O199 2.032 . S
Zn198 O202 2.086 . S
Zn198 O207 1.977 . S
O199 Zn198 2.032 . S
O199 C203 1.278 . S
C200 O201 1.203 . S
C200 O207 1.267 . S
O201 C200 1.203 . S
O202 C195 1.185 . S
O202 Zn198 2.086 . S
C203 O199 1.278 . S
C203 O204 1.211 . S
O204 C203 1.211 . S
C205 O197 1.284 . S
C205 O206 1.273 . S
O206 C205 1.273 . S
O207 Zn198 1.977 . S
O207 C200 1.267 . S
C208 O209 1.160 . S
C208 O215 1.185 . S
O209 C208 1.160 . S
O210 Zn211 1.899 . S
O210 C218 1.284 1_545 S
Zn211 O210 1.899 . S
Zn211 O212 2.032 . S
Zn211 O215 2.086 . S
Zn211 O220 1.977 . S
O212 Zn211 2.032 . S
O212 C216 1.278 . S
C213 O214 1.203 . S
C213 O220 1.267 . S
O214 C213 1.203 . S
O215 C208 1.185 . S
O215 Zn211 2.086 . S
C216 O212 1.278 . S
C216 O217 1.211 . S
O217 C216 1.211 . S
C218 O210 1.284 1_565 S
C218 O219 1.273 1_565 S
O219 C218 1.273 1_545 S
O220 Zn211 1.977 . S
O220 C213 1.267 . S
C221 O222 1.160 . S
C221 O228 1.185 . S
O222 C221 1.160 . S
O223 Zn224 1.899 . S
O223 C231 1.284 1_655 S
Zn224 O223 1.899 . S
Zn224 O225 2.032 . S
Zn224 O228 2.086 . S
Zn224 O233 1.977 . S
O225 Zn224 2.032 . S
O225 C229 1.278 . S
C226 O227 1.203 . S
C226 O233 1.267 . S
O227 C226 1.203 . S
O228 C221 1.185 . S
O228 Zn224 2.086 . S
C229 O225 1.278 . S
C229 O230 1.211 . S
O230 C229 1.211 . S
C231 O223 1.284 1_455 S
C231 O232 1.273 1_455 S
O232 C231 1.273 1_655 S
O233 Zn224 1.977 . S
O233 C226 1.267 . S
C234 C235 1.560 . S
C234 H295 0.959 . S
C234 H296 0.959 . S
C234 H297 0.960 . S
C235 C234 1.560 . S
C235 O290 1.426 . S
C235 H294 0.980 . S
C236 C237 1.407 . S
C236 C241 1.418 . S
C236 O290 1.334 . S
C237 C236 1.407 . S
C237 C238 1.360 . S
C237 H298 0.929 . S
C238 C237 1.360 . S
C238 C239 1.401 . S
C238 C242 1.527 . S
C239 C238 1.401 . S
C239 C240 1.405 . S
C239 C272 1.587 . S
C240 C239 1.405 . S
C240 C241 1.332 . S
C240 C243 1.496 . S
C241 C236 1.418 . S
C241 C240 1.332 . S
C241 H299 0.929 . S
C242 C238 1.527 . S
C242 H300 0.959 . S
C242 H301 0.961 . S
C242 H302 0.961 . S
C243 C240 1.496 . S
C243 H303 0.960 . S
C243 H304 0.960 . S
C243 H305 0.961 . S
C244 C245 1.517 . S
C244 H307 0.961 . S
C244 H308 0.960 . S
C244 H309 0.959 . S
C245 C244 1.517 . S
C245 O293 1.468 . S
C245 H306 0.980 . S
C246 C247 1.349 . S
C246 C251 1.367 . S
C246 O293 1.408 . S
C247 C246 1.349 . S
C247 C248 1.407 . S
C247 H310 0.930 . S
C248 C247 1.407 . S
C248 C249 1.449 . S
C248 C252 1.535 . S
C249 C248 1.449 . S
C249 C250 1.384 . S
C249 C274 1.553 . S
C250 C249 1.384 . S
C250 C251 1.364 . S
C250 C253 1.450 . S
C251 C246 1.367 . S
C251 C250 1.364 . S
C251 H311 0.931 . S
C252 C248 1.535 . S
C252 H312 0.959 . S
C252 H313 0.961 . S
C252 H314 0.959 . S
C253 C250 1.450 . S
C253 H315 0.960 . S
C253 H316 0.960 . S
C253 H317 0.960 . S
C254 C255 1.309 . S
C254 C259 1.304 . S
C254 O292 1.435 . S
C255 C254 1.309 . S
C255 C256 1.476 . S
C255 H319 0.930 . S
C256 C255 1.476 . S
C256 C257 1.400 . S
C256 C260 1.567 . S
C257 C256 1.400 . S
C257 C258 1.373 . S
C257 C279 1.432 . S
C258 C257 1.373 . S
C258 C259 1.339 . S
C258 C261 1.530 . S
C259 C254 1.304 . S
C259 C258 1.339 . S
C259 H320 0.930 . S
C260 C256 1.567 . S
C260 H321 0.961 . S
C260 H322 0.960 . S
C260 H323 0.958 . S
C261 C258 1.530 . S
C261 H324 0.961 . S
C261 H325 0.960 . S
C261 H326 0.960 . S
C262 C263 1.530 . S
C262 H328 0.961 . S
C262 H329 0.961 . S
C262 H330 0.959 . S
C263 C262 1.530 . S
C263 O291 1.412 . S
C263 H327 0.980 . S
C264 C265 1.288 . S
C264 C269 1.377 . S
C264 O291 1.393 . S
C265 C264 1.288 . S
C265 C266 1.369 . S
C265 H331 0.932 . S
C266 C265 1.369 . S
C266 C267 1.398 . S
C266 C270 1.527 . S
C267 C266 1.398 . S
C267 C268 1.380 . S
C267 C281 1.497 . S
C268 C267 1.380 . S
C268 C269 1.383 . S
C268 C271 1.603 . S
C269 C264 1.377 . S
C269 C268 1.383 . S
C269 H332 0.929 . S
C270 C266 1.527 . S
C270 H333 0.961 . S
C270 H334 0.959 . S
C270 H335 0.959 . S
C271 C268 1.603 . S
C271 H336 0.960 . S
C271 H337 0.962 . S
C271 H338 0.961 . S
C272 C239 1.587 . S
C272 C273 1.360 . S
C272 C285 1.412 . S
C273 C272 1.360 . S
C273 C274 1.365 . S
C273 H339 0.929 . S
C274 C249 1.553 . S
C274 C273 1.365 . S
C274 C275 1.404 . S
C275 C274 1.404 . S
C275 C276 1.395 . S
C275 C286 1.451 . S
C276 C275 1.395 . S
C276 C277 1.322 . S
C276 H340 0.930 . S
C277 C276 1.322 . S
C277 C278 1.459 . S
C277 H341 0.929 . S
C278 C277 1.459 . S
C278 C279 1.445 . S
C278 C287 1.395 . S
C279 C257 1.432 . S
C279 C278 1.445 . S
C279 C280 1.370 . S
C280 C279 1.370 . S
C280 C281 1.438 . S
C280 H342 0.930 . S
C281 C267 1.497 . S
C281 C280 1.438 . S
C281 C282 1.360 . S
C282 C281 1.360 . S
C282 C283 1.401 . S
C282 C287 1.446 . S
C283 C282 1.401 . S
C283 C284 1.347 . S
C283 H343 0.929 . S
C284 C283 1.347 . S
C284 C285 1.455 . S
C284 H344 0.930 . S
C285 C272 1.412 . S
C285 C284 1.455 . S
C285 C286 1.331 . S
C286 C275 1.451 . S
C286 C285 1.331 . S
C286 C287 1.497 . S
C287 C278 1.395 . S
C287 C282 1.446 . S
C287 C286 1.497 . S
C288 C289 1.582 . S
C288 H345 0.962 . S
C288 H346 0.959 . S
C288 H347 0.958 . S
C289 C288 1.582 . S
C289 O292 1.458 . S
C289 H318 0.980 . S
O290 C235 1.426 . S
O290 C236 1.334 . S
O291 C263 1.412 . S
O291 C264 1.393 . S
O292 C254 1.435 . S
O292 C289 1.458 . S
O293 C245 1.468 . S
O293 C246 1.408 . S
H294 C235 0.980 . S
H295 C234 0.959 . S
H296 C234 0.959 . S
H297 C234 0.960 . S
H298 C237 0.929 . S
H299 C241 0.929 . S
H300 C242 0.959 . S
H301 C242 0.961 . S
H302 C242 0.961 . S
H303 C243 0.960 . S
H304 C243 0.960 . S
H305 C243 0.961 . S
H306 C245 0.980 . S
H307 C244 0.961 . S
H308 C244 0.960 . S
H309 C244 0.959 . S
H310 C247 0.930 . S
H311 C251 0.931 . S
H312 C252 0.959 . S
H313 C252 0.961 . S
H314 C252 0.959 . S
H315 C253 0.960 . S
H316 C253 0.960 . S
H317 C253 0.960 . S
H318 C289 0.980 . S
H319 C255 0.930 . S
H320 C259 0.930 . S
H321 C260 0.961 . S
H322 C260 0.960 . S
H323 C260 0.958 . S
H324 C261 0.961 . S
H325 C261 0.960 . S
H326 C261 0.960 . S
H327 C263 0.980 . S
H328 C262 0.961 . S
H329 C262 0.961 . S
H330 C262 0.959 . S
H331 C265 0.932 . S
H332 C269 0.929 . S
H333 C270 0.961 . S
H334 C270 0.959 . S
H335 C270 0.959 . S
H336 C271 0.960 . S
H337 C271 0.962 . S
H338 C271 0.961 . S
H339 C273 0.929 . S
H340 C276 0.930 . S
H341 C277 0.929 . S
H342 C280 0.930 . S
H343 C283 0.929 . S
H344 C284 0.930 . S
H345 C288 0.962 . S
H346 C288 0.959 . S
H347 C288 0.958 . S
C348 C349 1.560 . S
C348 H409 0.959 . S
C348 H410 0.959 . S
C348 H411 0.960 . S
C349 C348 1.560 . S
C349 O404 1.426 . S
C349 H408 0.980 . S
C350 C351 1.407 . S
C350 C355 1.418 . S
C350 O404 1.334 . S
C351 C350 1.407 . S
C351 C352 1.360 . S
C351 H412 0.929 . S
C352 C351 1.360 . S
C352 C353 1.401 . S
C352 C356 1.527 . S
C353 C352 1.401 . S
C353 C354 1.405 . S
C353 C386 1.587 . S
C354 C353 1.405 . S
C354 C355 1.332 . S
C354 C357 1.496 . S
C355 C350 1.418 . S
C355 C354 1.332 . S
C355 H413 0.929 . S
C356 C352 1.527 . S
C356 H414 0.959 . S
C356 H415 0.961 . S
C356 H416 0.961 . S
C357 C354 1.496 . S
C357 H417 0.960 . S
C357 H418 0.960 . S
C357 H419 0.961 . S
C358 C359 1.517 . S
C358 H421 0.961 . S
C358 H422 0.960 . S
C358 H423 0.959 . S
C359 C358 1.517 . S
C359 O407 1.468 . S
C359 H420 0.980 . S
C360 C361 1.349 . S
C360 C365 1.367 . S
C360 O407 1.408 . S
C361 C360 1.349 . S
C361 C362 1.407 . S
C361 H424 0.930 . S
C362 C361 1.407 . S
C362 C363 1.449 . S
C362 C366 1.535 . S
C363 C362 1.449 . S
C363 C364 1.384 . S
C363 C388 1.553 . S
C364 C363 1.384 . S
C364 C365 1.364 . S
C364 C367 1.450 . S
C365 C360 1.367 . S
C365 C364 1.364 . S
C365 H425 0.931 . S
C366 C362 1.535 . S
C366 H426 0.959 . S
C366 H427 0.961 . S
C366 H428 0.959 . S
C367 C364 1.450 . S
C367 H429 0.960 . S
C367 H430 0.960 . S
C367 H431 0.960 . S
C368 C369 1.309 . S
C368 C373 1.304 . S
C368 O406 1.435 . S
C369 C368 1.309 . S
C369 C370 1.476 . S
C369 H433 0.930 . S
C370 C369 1.476 . S
C370 C371 1.400 . S
C370 C374 1.567 . S
C371 C370 1.400 . S
C371 C372 1.373 . S
C371 C393 1.432 . S
C372 C371 1.373 . S
C372 C373 1.339 . S
C372 C375 1.530 . S
C373 C368 1.304 . S
C373 C372 1.339 . S
C373 H434 0.930 . S
C374 C370 1.567 . S
C374 H435 0.961 . S
C374 H436 0.960 . S
C374 H437 0.958 . S
C375 C372 1.530 . S
C375 H438 0.961 . S
C375 H439 0.960 . S
C375 H440 0.960 . S
C376 C377 1.530 . S
C376 H442 0.961 . S
C376 H443 0.961 . S
C376 H444 0.959 . S
C377 C376 1.530 . S
C377 O405 1.412 . S
C377 H441 0.980 . S
C378 C379 1.288 . S
C378 C383 1.377 . S
C378 O405 1.393 . S
C379 C378 1.288 . S
C379 C380 1.369 . S
C379 H445 0.932 . S
C380 C379 1.369 . S
C380 C381 1.398 . S
C380 C384 1.527 . S
C381 C380 1.398 . S
C381 C382 1.380 . S
C381 C395 1.497 . S
C382 C381 1.380 . S
C382 C383 1.383 . S
C382 C385 1.603 . S
C383 C378 1.377 . S
C383 C382 1.383 . S
C383 H446 0.929 . S
C384 C380 1.527 . S
C384 H447 0.961 . S
C384 H448 0.959 . S
C384 H449 0.959 . S
C385 C382 1.603 . S
C385 H450 0.960 . S
C385 H451 0.962 . S
C385 H452 0.961 . S
C386 C353 1.587 . S
C386 C387 1.360 . S
C386 C399 1.412 . S
C387 C386 1.360 . S
C387 C388 1.365 . S
C387 H453 0.929 . S
C388 C363 1.553 . S
C388 C387 1.365 . S
C388 C389 1.404 . S
C389 C388 1.404 . S
C389 C390 1.395 . S
C389 C400 1.451 . S
C390 C389 1.395 . S
C390 C391 1.322 . S
C390 H454 0.930 . S
C391 C390 1.322 . S
C391 C392 1.459 . S
C391 H455 0.929 . S
C392 C391 1.459 . S
C392 C393 1.445 . S
C392 C401 1.395 . S
C393 C371 1.432 . S
C393 C392 1.445 . S
C393 C394 1.370 . S
C394 C393 1.370 . S
C394 C395 1.438 . S
C394 H456 0.930 . S
C395 C381 1.497 . S
C395 C394 1.438 . S
C395 C396 1.360 . S
C396 C395 1.360 . S
C396 C397 1.401 . S
C396 C401 1.446 . S
C397 C396 1.401 . S
C397 C398 1.347 . S
C397 H457 0.929 . S
C398 C397 1.347 . S
C398 C399 1.455 . S
C398 H458 0.930 . S
C399 C386 1.412 . S
C399 C398 1.455 . S
C399 C400 1.331 . S
C400 C389 1.451 . S
C400 C399 1.331 . S
C400 C401 1.497 . S
C401 C392 1.395 . S
C401 C396 1.446 . S
C401 C400 1.497 . S
C402 C403 1.582 . S
C402 H459 0.962 . S
C402 H460 0.959 . S
C402 H461 0.958 . S
C403 C402 1.582 . S
C403 O406 1.458 . S
C403 H432 0.980 . S
O404 C349 1.426 . S
O404 C350 1.334 . S
O405 C377 1.412 . S
O405 C378 1.393 . S
O406 C368 1.435 . S
O406 C403 1.458 . S
O407 C359 1.468 . S
O407 C360 1.408 . S
H408 C349 0.980 . S
H409 C348 0.959 . S
H410 C348 0.959 . S
H411 C348 0.960 . S
H412 C351 0.929 . S
H413 C355 0.929 . S
H414 C356 0.959 . S
H415 C356 0.961 . S
H416 C356 0.961 . S
H417 C357 0.960 . S
H418 C357 0.960 . S
H419 C357 0.961 . S
H420 C359 0.980 . S
H421 C358 0.961 . S
H422 C358 0.960 . S
H423 C358 0.959 . S
H424 C361 0.930 . S
H425 C365 0.931 . S
H426 C366 0.959 . S
H427 C366 0.961 . S
H428 C366 0.959 . S
H429 C367 0.960 . S
H430 C367 0.960 . S
H431 C367 0.960 . S
H432 C403 0.980 . S
H433 C369 0.930 . S
H434 C373 0.930 . S
H435 C374 0.961 . S
H436 C374 0.960 . S
H437 C374 0.958 . S
H438 C375 0.961 . S
H439 C375 0.960 . S
H440 C375 0.960 . S
H441 C377 0.980 . S
H442 C376 0.961 . S
H443 C376 0.961 . S
H444 C376 0.959 . S
H445 C379 0.932 . S
H446 C383 0.929 . S
H447 C384 0.961 . S
H448 C384 0.959 . S
H449 C384 0.959 . S
H450 C385 0.960 . S
H451 C385 0.962 . S
H452 C385 0.961 . S
H453 C387 0.929 . S
H454 C390 0.930 . S
H455 C391 0.929 . S
H456 C394 0.930 . S
H457 C397 0.929 . S
H458 C398 0.930 . S
H459 C402 0.962 . S
H460 C402 0.959 . S
H461 C402 0.958 . S
C462 C463 1.560 . S
C462 H523 0.959 . S
C462 H524 0.959 . S
C462 H525 0.960 . S
C463 C462 1.560 . S
C463 O518 1.426 . S
C463 H522 0.980 . S
C464 C465 1.407 . S
C464 C469 1.418 . S
C464 O518 1.334 . S
C465 C464 1.407 . S
C465 C466 1.360 . S
C465 H526 0.929 . S
C466 C465 1.360 . S
C466 C467 1.401 . S
C466 C470 1.527 . S
C467 C466 1.401 . S
C467 C468 1.405 . S
C467 C500 1.587 . S
C468 C467 1.405 . S
C468 C469 1.332 . S
C468 C471 1.496 . S
C469 C464 1.418 . S
C469 C468 1.332 . S
C469 H527 0.929 . S
C470 C466 1.527 . S
C470 H528 0.959 . S
C470 H529 0.961 . S
C470 H530 0.961 . S
C471 C468 1.496 . S
C471 H531 0.960 . S
C471 H532 0.960 . S
C471 H533 0.961 . S
C472 C473 1.517 . S
C472 H535 0.961 . S
C472 H536 0.960 . S
C472 H537 0.959 . S
C473 C472 1.517 . S
C473 O521 1.468 . S
C473 H534 0.980 . S
C474 C475 1.349 . S
C474 C479 1.367 . S
C474 O521 1.408 . S
C475 C474 1.349 . S
C475 C476 1.407 . S
C475 H538 0.930 . S
C476 C475 1.407 . S
C476 C477 1.449 . S
C476 C480 1.535 . S
C477 C476 1.449 . S
C477 C478 1.384 . S
C477 C502 1.553 . S
C478 C477 1.384 . S
C478 C479 1.364 . S
C478 C481 1.450 . S
C479 C474 1.367 . S
C479 C478 1.364 . S
C479 H539 0.931 . S
C480 C476 1.535 . S
C480 H540 0.959 . S
C480 H541 0.961 . S
C480 H542 0.959 . S
C481 C478 1.450 . S
C481 H543 0.960 . S
C481 H544 0.960 . S
C481 H545 0.960 . S
C482 C483 1.309 . S
C482 C487 1.304 . S
C482 O520 1.435 . S
C483 C482 1.309 . S
C483 C484 1.476 . S
C483 H547 0.930 . S
C484 C483 1.476 . S
C484 C485 1.400 . S
C484 C488 1.567 . S
C485 C484 1.400 . S
C485 C486 1.373 . S
C485 C507 1.432 . S
C486 C485 1.373 . S
C486 C487 1.339 . S
C486 C489 1.530 . S
C487 C482 1.304 . S
C487 C486 1.339 . S
C487 H548 0.930 . S
C488 C484 1.567 . S
C488 H549 0.961 . S
C488 H550 0.960 . S
C488 H551 0.958 . S
C489 C486 1.530 . S
C489 H552 0.961 . S
C489 H553 0.960 . S
C489 H554 0.960 . S
C490 C491 1.530 . S
C490 H556 0.961 . S
C490 H557 0.961 . S
C490 H558 0.959 . S
C491 C490 1.530 . S
C491 O519 1.412 . S
C491 H555 0.980 . S
C492 C493 1.288 . S
C492 C497 1.377 . S
C492 O519 1.393 . S
C493 C492 1.288 . S
C493 C494 1.369 . S
C493 H559 0.932 . S
C494 C493 1.369 . S
C494 C495 1.398 . S
C494 C498 1.527 . S
C495 C494 1.398 . S
C495 C496 1.380 . S
C495 C509 1.497 . S
C496 C495 1.380 . S
C496 C497 1.383 . S
C496 C499 1.603 . S
C497 C492 1.377 . S
C497 C496 1.383 . S
C497 H560 0.929 . S
C498 C494 1.527 . S
C498 H561 0.961 . S
C498 H562 0.959 . S
C498 H563 0.959 . S
C499 C496 1.603 . S
C499 H564 0.960 . S
C499 H565 0.962 . S
C499 H566 0.961 . S
C500 C467 1.587 . S
C500 C501 1.360 . S
C500 C513 1.412 . S
C501 C500 1.360 . S
C501 C502 1.365 . S
C501 H567 0.929 . S
C502 C477 1.553 . S
C502 C501 1.365 . S
C502 C503 1.404 . S
C503 C502 1.404 . S
C503 C504 1.395 . S
C503 C514 1.451 . S
C504 C503 1.395 . S
C504 C505 1.322 . S
C504 H568 0.930 . S
C505 C504 1.322 . S
C505 C506 1.459 . S
C505 H569 0.929 . S
C506 C505 1.459 . S
C506 C507 1.445 . S
C506 C515 1.395 . S
C507 C485 1.432 . S
C507 C506 1.445 . S
C507 C508 1.370 . S
C508 C507 1.370 . S
C508 C509 1.438 . S
C508 H570 0.930 . S
C509 C495 1.497 . S
C509 C508 1.438 . S
C509 C510 1.360 . S
C510 C509 1.360 . S
C510 C511 1.401 . S
C510 C515 1.446 . S
C511 C510 1.401 . S
C511 C512 1.347 . S
C511 H571 0.929 . S
C512 C511 1.347 . S
C512 C513 1.455 . S
C512 H572 0.930 . S
C513 C500 1.412 . S
C513 C512 1.455 . S
C513 C514 1.331 . S
C514 C503 1.451 . S
C514 C513 1.331 . S
C514 C515 1.497 . S
C515 C506 1.395 . S
C515 C510 1.446 . S
C515 C514 1.497 . S
C516 C517 1.582 . S
C516 H573 0.962 . S
C516 H574 0.959 . S
C516 H575 0.958 . S
C517 C516 1.582 . S
C517 O520 1.458 . S
C517 H546 0.980 . S
O518 C463 1.426 . S
O518 C464 1.334 . S
O519 C491 1.412 . S
O519 C492 1.393 . S
O520 C482 1.435 . S
O520 C517 1.458 . S
O521 C473 1.468 . S
O521 C474 1.408 . S
H522 C463 0.980 . S
H523 C462 0.959 . S
H524 C462 0.959 . S
H525 C462 0.960 . S
H526 C465 0.929 . S
H527 C469 0.929 . S
H528 C470 0.959 . S
H529 C470 0.961 . S
H530 C470 0.961 . S
H531 C471 0.960 . S
H532 C471 0.960 . S
H533 C471 0.961 . S
H534 C473 0.980 . S
H535 C472 0.961 . S
H536 C472 0.960 . S
H537 C472 0.959 . S
H538 C475 0.930 . S
H539 C479 0.931 . S
H540 C480 0.959 . S
H541 C480 0.961 . S
H542 C480 0.959 . S
H543 C481 0.960 . S
H544 C481 0.960 . S
H545 C481 0.960 . S
H546 C517 0.980 . S
H547 C483 0.930 . S
H548 C487 0.930 . S
H549 C488 0.961 . S
H550 C488 0.960 . S
H551 C488 0.958 . S
H552 C489 0.961 . S
H553 C489 0.960 . S
H554 C489 0.960 . S
H555 C491 0.980 . S
H556 C490 0.961 . S
H557 C490 0.961 . S
H558 C490 0.959 . S
H559 C493 0.932 . S
H560 C497 0.929 . S
H561 C498 0.961 . S
H562 C498 0.959 . S
H563 C498 0.959 . S
H564 C499 0.960 . S
H565 C499 0.962 . S
H566 C499 0.961 . S
H567 C501 0.929 . S
H568 C504 0.930 . S
H569 C505 0.929 . S
H570 C508 0.930 . S
H571 C511 0.929 . S
H572 C512 0.930 . S
H573 C516 0.962 . S
H574 C516 0.959 . S
H575 C516 0.958 . S
C576 C577 1.560 . S
C576 H637 0.959 . S
C576 H638 0.959 . S
C576 H639 0.960 . S
C577 C576 1.560 . S
C577 O632 1.426 . S
C577 H636 0.980 . S
C578 C579 1.407 . S
C578 C583 1.418 . S
C578 O632 1.334 . S
C579 C578 1.407 . S
C579 C580 1.360 . S
C579 H640 0.929 . S
C580 C579 1.360 . S
C580 C581 1.401 . S
C580 C584 1.527 . S
C581 C580 1.401 . S
C581 C582 1.405 . S
C581 C614 1.587 . S
C582 C581 1.405 . S
C582 C583 1.332 . S
C582 C585 1.496 . S
C583 C578 1.418 . S
C583 C582 1.332 . S
C583 H641 0.929 . S
C584 C580 1.527 . S
C584 H642 0.959 . S
C584 H643 0.961 . S
C584 H644 0.961 . S
C585 C582 1.496 . S
C585 H645 0.960 . S
C585 H646 0.960 . S
C585 H647 0.961 . S
C586 C587 1.517 . S
C586 H649 0.961 . S
C586 H650 0.960 . S
C586 H651 0.959 . S
C587 C586 1.517 . S
C587 O635 1.468 . S
C587 H648 0.980 . S
C588 C589 1.349 . S
C588 C593 1.367 . S
C588 O635 1.408 . S
C589 C588 1.349 . S
C589 C590 1.407 . S
C589 H652 0.930 . S
C590 C589 1.407 . S
C590 C591 1.449 . S
C590 C594 1.535 . S
C591 C590 1.449 . S
C591 C592 1.384 . S
C591 C616 1.553 . S
C592 C591 1.384 . S
C592 C593 1.364 . S
C592 C595 1.450 . S
C593 C588 1.367 . S
C593 C592 1.364 . S
C593 H653 0.931 . S
C594 C590 1.535 . S
C594 H654 0.959 . S
C594 H655 0.961 . S
C594 H656 0.959 . S
C595 C592 1.450 . S
C595 H657 0.960 . S
C595 H658 0.960 . S
C595 H659 0.960 . S
C596 C597 1.309 . S
C596 C601 1.304 . S
C596 O634 1.435 . S
C597 C596 1.309 . S
C597 C598 1.476 . S
C597 H661 0.930 . S
C598 C597 1.476 . S
C598 C599 1.400 . S
C598 C602 1.567 . S
C599 C598 1.400 . S
C599 C600 1.373 . S
C599 C621 1.432 . S
C600 C599 1.373 . S
C600 C601 1.339 . S
C600 C603 1.530 . S
C601 C596 1.304 . S
C601 C600 1.339 . S
C601 H662 0.930 . S
C602 C598 1.567 . S
C602 H663 0.961 . S
C602 H664 0.960 . S
C602 H665 0.958 . S
C603 C600 1.530 . S
C603 H666 0.961 . S
C603 H667 0.960 . S
C603 H668 0.960 . S
C604 C605 1.530 . S
C604 H670 0.961 . S
C604 H671 0.961 . S
C604 H672 0.959 . S
C605 C604 1.530 . S
C605 O633 1.412 . S
C605 H669 0.980 . S
C606 C607 1.288 . S
C606 C611 1.377 . S
C606 O633 1.393 . S
C607 C606 1.288 . S
C607 C608 1.369 . S
C607 H673 0.932 . S
C608 C607 1.369 . S
C608 C609 1.398 . S
C608 C612 1.527 . S
C609 C608 1.398 . S
C609 C610 1.380 . S
C609 C623 1.497 . S
C610 C609 1.380 . S
C610 C611 1.383 . S
C610 C613 1.603 . S
C611 C606 1.377 . S
C611 C610 1.383 . S
C611 H674 0.929 . S
C612 C608 1.527 . S
C612 H675 0.961 . S
C612 H676 0.959 . S
C612 H677 0.959 . S
C613 C610 1.603 . S
C613 H678 0.960 . S
C613 H679 0.962 . S
C613 H680 0.961 . S
C614 C581 1.587 . S
C614 C615 1.360 . S
C614 C627 1.412 . S
C615 C614 1.360 . S
C615 C616 1.365 . S
C615 H681 0.929 . S
C616 C591 1.553 . S
C616 C615 1.365 . S
C616 C617 1.404 . S
C617 C616 1.404 . S
C617 C618 1.395 . S
C617 C628 1.451 . S
C618 C617 1.395 . S
C618 C619 1.322 . S
C618 H682 0.930 . S
C619 C618 1.322 . S
C619 C620 1.459 . S
C619 H683 0.929 . S
C620 C619 1.459 . S
C620 C621 1.445 . S
C620 C629 1.395 . S
C621 C599 1.432 . S
C621 C620 1.445 . S
C621 C622 1.370 . S
C622 C621 1.370 . S
C622 C623 1.438 . S
C622 H684 0.930 . S
C623 C609 1.497 . S
C623 C622 1.438 . S
C623 C624 1.360 . S
C624 C623 1.360 . S
C624 C625 1.401 . S
C624 C629 1.446 . S
C625 C624 1.401 . S
C625 C626 1.347 . S
C625 H685 0.929 . S
C626 C625 1.347 . S
C626 C627 1.455 . S
C626 H686 0.930 . S
C627 C614 1.412 . S
C627 C626 1.455 . S
C627 C628 1.331 . S
C628 C617 1.451 . S
C628 C627 1.331 . S
C628 C629 1.497 . S
C629 C620 1.395 . S
C629 C624 1.446 . S
C629 C628 1.497 . S
C630 C631 1.582 . S
C630 H687 0.962 . S
C630 H688 0.959 . S
C630 H689 0.958 . S
C631 C630 1.582 . S
C631 O634 1.458 . S
C631 H660 0.980 . S
O632 C577 1.426 . S
O632 C578 1.334 . S
O633 C605 1.412 . S
O633 C606 1.393 . S
O634 C596 1.435 . S
O634 C631 1.458 . S
O635 C587 1.468 . S
O635 C588 1.408 . S
H636 C577 0.980 . S
H637 C576 0.959 . S
H638 C576 0.959 . S
H639 C576 0.960 . S
H640 C579 0.929 . S
H641 C583 0.929 . S
H642 C584 0.959 . S
H643 C584 0.961 . S
H644 C584 0.961 . S
H645 C585 0.960 . S
H646 C585 0.960 . S
H647 C585 0.961 . S
H648 C587 0.980 . S
H649 C586 0.961 . S
H650 C586 0.960 . S
H651 C586 0.959 . S
H652 C589 0.930 . S
H653 C593 0.931 . S
H654 C594 0.959 . S
H655 C594 0.961 . S
H656 C594 0.959 . S
H657 C595 0.960 . S
H658 C595 0.960 . S
H659 C595 0.960 . S
H660 C631 0.980 . S
H661 C597 0.930 . S
H662 C601 0.930 . S
H663 C602 0.961 . S
H664 C602 0.960 . S
H665 C602 0.958 . S
H666 C603 0.961 . S
H667 C603 0.960 . S
H668 C603 0.960 . S
H669 C605 0.980 . S
H670 C604 0.961 . S
H671 C604 0.961 . S
H672 C604 0.959 . S
H673 C607 0.932 . S
H674 C611 0.929 . S
H675 C612 0.961 . S
H676 C612 0.959 . S
H677 C612 0.959 . S
H678 C613 0.960 . S
H679 C613 0.962 . S
H680 C613 0.961 . S
H681 C615 0.929 . S
H682 C618 0.930 . S
H683 C619 0.929 . S
H684 C622 0.930 . S
H685 C625 0.929 . S
H686 C626 0.930 . S
H687 C630 0.962 . S
H688 C630 0.959 . S
H689 C630 0.958 . S
C690 C691 1.560 . S
C690 H751 0.959 . S
C690 H752 0.959 . S
C690 H753 0.960 . S
C691 C690 1.560 . S
C691 O746 1.426 . S
C691 H750 0.980 . S
C692 C693 1.407 . S
C692 C697 1.418 . S
C692 O746 1.334 . S
C693 C692 1.407 . S
C693 C694 1.360 . S
C693 H754 0.929 . S
C694 C693 1.360 . S
C694 C695 1.401 . S
C694 C698 1.527 . S
C695 C694 1.401 . S
C695 C696 1.405 . S
C695 C728 1.587 . S
C696 C695 1.405 . S
C696 C697 1.332 . S
C696 C699 1.496 . S
C697 C692 1.418 . S
C697 C696 1.332 . S
C697 H755 0.929 . S
C698 C694 1.527 . S
C698 H756 0.959 . S
C698 H757 0.961 . S
C698 H758 0.961 . S
C699 C696 1.496 . S
C699 H759 0.960 . S
C699 H760 0.960 . S
C699 H761 0.961 . S
C700 C701 1.517 . S
C700 H763 0.961 . S
C700 H764 0.960 . S
C700 H765 0.959 . S
C701 C700 1.517 . S
C701 O749 1.468 . S
C701 H762 0.980 . S
C702 C703 1.349 . S
C702 C707 1.367 . S
C702 O749 1.408 . S
C703 C702 1.349 . S
C703 C704 1.407 . S
C703 H766 0.930 . S
C704 C703 1.407 . S
C704 C705 1.449 . S
C704 C708 1.535 . S
C705 C704 1.449 . S
C705 C706 1.384 . S
C705 C730 1.553 . S
C706 C705 1.384 . S
C706 C707 1.364 . S
C706 C709 1.450 . S
C707 C702 1.367 . S
C707 C706 1.364 . S
C707 H767 0.931 . S
C708 C704 1.535 . S
C708 H768 0.959 . S
C708 H769 0.961 . S
C708 H770 0.959 . S
C709 C706 1.450 . S
C709 H771 0.960 . S
C709 H772 0.960 . S
C709 H773 0.960 . S
C710 C711 1.309 . S
C710 C715 1.304 . S
C710 O748 1.435 . S
C711 C710 1.309 . S
C711 C712 1.476 . S
C711 H775 0.930 . S
C712 C711 1.476 . S
C712 C713 1.400 . S
C712 C716 1.567 . S
C713 C712 1.400 . S
C713 C714 1.373 . S
C713 C735 1.432 . S
C714 C713 1.373 . S
C714 C715 1.339 . S
C714 C717 1.530 . S
C715 C710 1.304 . S
C715 C714 1.339 . S
C715 H776 0.930 . S
C716 C712 1.567 . S
C716 H777 0.961 . S
C716 H778 0.960 . S
C716 H779 0.958 . S
C717 C714 1.530 . S
C717 H780 0.961 . S
C717 H781 0.960 . S
C717 H782 0.960 . S
C718 C719 1.530 . S
C718 H784 0.961 . S
C718 H785 0.961 . S
C718 H786 0.959 . S
C719 C718 1.530 . S
C719 O747 1.412 . S
C719 H783 0.980 . S
C720 C721 1.288 . S
C720 C725 1.377 . S
C720 O747 1.393 . S
C721 C720 1.288 . S
C721 C722 1.369 . S
C721 H787 0.932 . S
C722 C721 1.369 . S
C722 C723 1.398 . S
C722 C726 1.527 . S
C723 C722 1.398 . S
C723 C724 1.380 . S
C723 C737 1.497 . S
C724 C723 1.380 . S
C724 C725 1.383 . S
C724 C727 1.603 . S
C725 C720 1.377 . S
C725 C724 1.383 . S
C725 H788 0.929 . S
C726 C722 1.527 . S
C726 H789 0.961 . S
C726 H790 0.959 . S
C726 H791 0.959 . S
C727 C724 1.603 . S
C727 H792 0.960 . S
C727 H793 0.962 . S
C727 H794 0.961 . S
C728 C695 1.587 . S
C728 C729 1.360 . S
C728 C741 1.412 . S
C729 C728 1.360 . S
C729 C730 1.365 . S
C729 H795 0.929 . S
C730 C705 1.553 . S
C730 C729 1.365 . S
C730 C731 1.404 . S
C731 C730 1.404 . S
C731 C732 1.395 . S
C731 C742 1.451 . S
C732 C731 1.395 . S
C732 C733 1.322 . S
C732 H796 0.930 . S
C733 C732 1.322 . S
C733 C734 1.459 . S
C733 H797 0.929 . S
C734 C733 1.459 . S
C734 C735 1.445 . S
C734 C743 1.395 . S
C735 C713 1.432 . S
C735 C734 1.445 . S
C735 C736 1.370 . S
C736 C735 1.370 . S
C736 C737 1.438 . S
C736 H798 0.930 . S
C737 C723 1.497 . S
C737 C736 1.438 . S
C737 C738 1.360 . S
C738 C737 1.360 . S
C738 C739 1.401 . S
C738 C743 1.446 . S
C739 C738 1.401 . S
C739 C740 1.347 . S
C739 H799 0.929 . S
C740 C739 1.347 . S
C740 C741 1.455 . S
C740 H800 0.930 . S
C741 C728 1.412 . S
C741 C740 1.455 . S
C741 C742 1.331 . S
C742 C731 1.451 . S
C742 C741 1.331 . S
C742 C743 1.497 . S
C743 C734 1.395 . S
C743 C738 1.446 . S
C743 C742 1.497 . S
C744 C745 1.582 . S
C744 H801 0.962 . S
C744 H802 0.959 . S
C744 H803 0.958 . S
C745 C744 1.582 . S
C745 O748 1.458 . S
C745 H774 0.980 . S
O746 C691 1.426 . S
O746 C692 1.334 . S
O747 C719 1.412 . S
O747 C720 1.393 . S
O748 C710 1.435 . S
O748 C745 1.458 . S
O749 C701 1.468 . S
O749 C702 1.408 . S
H750 C691 0.980 . S
H751 C690 0.959 . S
H752 C690 0.959 . S
H753 C690 0.960 . S
H754 C693 0.929 . S
H755 C697 0.929 . S
H756 C698 0.959 . S
H757 C698 0.961 . S
H758 C698 0.961 . S
H759 C699 0.960 . S
H760 C699 0.960 . S
H761 C699 0.961 . S
H762 C701 0.980 . S
H763 C700 0.961 . S
H764 C700 0.960 . S
H765 C700 0.959 . S
H766 C703 0.930 . S
H767 C707 0.931 . S
H768 C708 0.959 . S
H769 C708 0.961 . S
H770 C708 0.959 . S
H771 C709 0.960 . S
H772 C709 0.960 . S
H773 C709 0.960 . S
H774 C745 0.980 . S
H775 C711 0.930 . S
H776 C715 0.930 . S
H777 C716 0.961 . S
H778 C716 0.960 . S
H779 C716 0.958 . S
H780 C717 0.961 . S
H781 C717 0.960 . S
H782 C717 0.960 . S
H783 C719 0.980 . S
H784 C718 0.961 . S
H785 C718 0.961 . S
H786 C718 0.959 . S
H787 C721 0.932 . S
H788 C725 0.929 . S
H789 C726 0.961 . S
H790 C726 0.959 . S
H791 C726 0.959 . S
H792 C727 0.960 . S
H793 C727 0.962 . S
H794 C727 0.961 . S
H795 C729 0.929 . S
H796 C732 0.930 . S
H797 C733 0.929 . S
H798 C736 0.930 . S
H799 C739 0.929 . S
H800 C740 0.930 . S
H801 C744 0.962 . S
H802 C744 0.959 . S
H803 C744 0.958 . S
C804 C805 1.560 . S
C804 H865 0.959 . S
C804 H866 0.959 . S
C804 H867 0.960 . S
C805 C804 1.560 . S
C805 O860 1.426 . S
C805 H864 0.980 . S
C806 C807 1.407 . S
C806 C811 1.418 . S
C806 O860 1.334 . S
C807 C806 1.407 . S
C807 C808 1.360 . S
C807 H868 0.929 . S
C808 C807 1.360 . S
C808 C809 1.401 . S
C808 C812 1.527 . S
C809 C808 1.401 . S
C809 C810 1.405 . S
C809 C842 1.587 . S
C810 C809 1.405 . S
C810 C811 1.332 . S
C810 C813 1.496 . S
C811 C806 1.418 . S
C811 C810 1.332 . S
C811 H869 0.929 . S
C812 C808 1.527 . S
C812 H870 0.959 . S
C812 H871 0.961 . S
C812 H872 0.961 . S
C813 C810 1.496 . S
C813 H873 0.960 . S
C813 H874 0.960 . S
C813 H875 0.961 . S
C814 C815 1.517 . S
C814 H877 0.961 . S
C814 H878 0.960 . S
C814 H879 0.959 . S
C815 C814 1.517 . S
C815 O863 1.468 . S
C815 H876 0.980 . S
C816 C817 1.349 . S
C816 C821 1.367 . S
C816 O863 1.408 . S
C817 C816 1.349 . S
C817 C818 1.407 . S
C817 H880 0.930 . S
C818 C817 1.407 . S
C818 C819 1.449 . S
C818 C822 1.535 . S
C819 C818 1.449 . S
C819 C820 1.384 . S
C819 C844 1.553 . S
C820 C819 1.384 . S
C820 C821 1.364 . S
C820 C823 1.450 . S
C821 C816 1.367 . S
C821 C820 1.364 . S
C821 H881 0.931 . S
C822 C818 1.535 . S
C822 H882 0.959 . S
C822 H883 0.961 . S
C822 H884 0.959 . S
C823 C820 1.450 . S
C823 H885 0.960 . S
C823 H886 0.960 . S
C823 H887 0.960 . S
C824 C825 1.309 . S
C824 C829 1.304 . S
C824 O862 1.435 . S
C825 C824 1.309 . S
C825 C826 1.476 . S
C825 H889 0.930 . S
C826 C825 1.476 . S
C826 C827 1.400 . S
C826 C830 1.567 . S
C827 C826 1.400 . S
C827 C828 1.373 . S
C827 C849 1.432 . S
C828 C827 1.373 . S
C828 C829 1.339 . S
C828 C831 1.530 . S
C829 C824 1.304 . S
C829 C828 1.339 . S
C829 H890 0.930 . S
C830 C826 1.567 . S
C830 H891 0.961 . S
C830 H892 0.960 . S
C830 H893 0.958 . S
C831 C828 1.530 . S
C831 H894 0.961 . S
C831 H895 0.960 . S
C831 H896 0.960 . S
C832 C833 1.530 . S
C832 H898 0.961 . S
C832 H899 0.961 . S
C832 H900 0.959 . S
C833 C832 1.530 . S
C833 O861 1.412 . S
C833 H897 0.980 . S
C834 C835 1.288 . S
C834 C839 1.377 . S
C834 O861 1.393 . S
C835 C834 1.288 . S
C835 C836 1.369 . S
C835 H901 0.932 . S
C836 C835 1.369 . S
C836 C837 1.398 . S
C836 C840 1.527 . S
C837 C836 1.398 . S
C837 C838 1.380 . S
C837 C851 1.497 . S
C838 C837 1.380 . S
C838 C839 1.383 . S
C838 C841 1.603 . S
C839 C834 1.377 . S
C839 C838 1.383 . S
C839 H902 0.929 . S
C840 C836 1.527 . S
C840 H903 0.961 . S
C840 H904 0.959 . S
C840 H905 0.959 . S
C841 C838 1.603 . S
C841 H906 0.960 . S
C841 H907 0.962 . S
C841 H908 0.961 . S
C842 C809 1.587 . S
C842 C843 1.360 . S
C842 C855 1.412 . S
C843 C842 1.360 . S
C843 C844 1.365 . S
C843 H909 0.929 . S
C844 C819 1.553 . S
C844 C843 1.365 . S
C844 C845 1.404 . S
C845 C844 1.404 . S
C845 C846 1.395 . S
C845 C856 1.451 . S
C846 C845 1.395 . S
C846 C847 1.322 . S
C846 H910 0.930 . S
C847 C846 1.322 . S
C847 C848 1.459 . S
C847 H911 0.929 . S
C848 C847 1.459 . S
C848 C849 1.445 . S
C848 C857 1.395 . S
C849 C827 1.432 . S
C849 C848 1.445 . S
C849 C850 1.370 . S
C850 C849 1.370 . S
C850 C851 1.438 . S
C850 H912 0.930 . S
C851 C837 1.497 . S
C851 C850 1.438 . S
C851 C852 1.360 . S
C852 C851 1.360 . S
C852 C853 1.401 . S
C852 C857 1.446 . S
C853 C852 1.401 . S
C853 C854 1.347 . S
C853 H913 0.929 . S
C854 C853 1.347 . S
C854 C855 1.455 . S
C854 H914 0.930 . S
C855 C842 1.412 . S
C855 C854 1.455 . S
C855 C856 1.331 . S
C856 C845 1.451 . S
C856 C855 1.331 . S
C856 C857 1.497 . S
C857 C848 1.395 . S
C857 C852 1.446 . S
C857 C856 1.497 . S
C858 C859 1.582 . S
C858 H915 0.962 . S
C858 H916 0.959 . S
C858 H917 0.958 . S
C859 C858 1.582 . S
C859 O862 1.458 . S
C859 H888 0.980 . S
O860 C805 1.426 . S
O860 C806 1.334 . S
O861 C833 1.412 . S
O861 C834 1.393 . S
O862 C824 1.435 . S
O862 C859 1.458 . S
O863 C815 1.468 . S
O863 C816 1.408 . S
H864 C805 0.980 . S
H865 C804 0.959 . S
H866 C804 0.959 . S
H867 C804 0.960 . S
H868 C807 0.929 . S
H869 C811 0.929 . S
H870 C812 0.959 . S
H871 C812 0.961 . S
H872 C812 0.961 . S
H873 C813 0.960 . S
H874 C813 0.960 . S
H875 C813 0.961 . S
H876 C815 0.980 . S
H877 C814 0.961 . S
H878 C814 0.960 . S
H879 C814 0.959 . S
H880 C817 0.930 . S
H881 C821 0.931 . S
H882 C822 0.959 . S
H883 C822 0.961 . S
H884 C822 0.959 . S
H885 C823 0.960 . S
H886 C823 0.960 . S
H887 C823 0.960 . S
H888 C859 0.980 . S
H889 C825 0.930 . S
H890 C829 0.930 . S
H891 C830 0.961 . S
H892 C830 0.960 . S
H893 C830 0.958 . S
H894 C831 0.961 . S
H895 C831 0.960 . S
H896 C831 0.960 . S
H897 C833 0.980 . S
H898 C832 0.961 . S
H899 C832 0.961 . S
H900 C832 0.959 . S
H901 C835 0.932 . S
H902 C839 0.929 . S
H903 C840 0.961 . S
H904 C840 0.959 . S
H905 C840 0.959 . S
H906 C841 0.960 . S
H907 C841 0.962 . S
H908 C841 0.961 . S
H909 C843 0.929 . S
H910 C846 0.930 . S
H911 C847 0.929 . S
H912 C850 0.930 . S
H913 C853 0.929 . S
H914 C854 0.930 . S
H915 C858 0.962 . S
H916 C858 0.959 . S
H917 C858 0.958 . S
C918 C919 1.560 . S
C918 H979 0.959 . S
C918 H980 0.959 . S
C918 H981 0.960 . S
C919 C918 1.560 . S
C919 O974 1.426 . S
C919 H978 0.980 . S
C920 C921 1.407 . S
C920 C925 1.418 . S
C920 O974 1.334 . S
C921 C920 1.407 . S
C921 C922 1.360 . S
C921 H982 0.929 . S
C922 C921 1.360 . S
C922 C923 1.401 . S
C922 C926 1.527 . S
C923 C922 1.401 . S
C923 C924 1.405 . S
C923 C956 1.587 . S
C924 C923 1.405 . S
C924 C925 1.332 . S
C924 C927 1.496 . S
C925 C920 1.418 . S
C925 C924 1.332 . S
C925 H983 0.929 . S
C926 C922 1.527 . S
C926 H984 0.959 . S
C926 H985 0.961 . S
C926 H986 0.961 . S
C927 C924 1.496 . S
C927 H987 0.960 . S
C927 H988 0.960 . S
C927 H989 0.961 . S
C928 C929 1.517 . S
C928 H991 0.961 . S
C928 H992 0.960 . S
C928 H993 0.959 . S
C929 C928 1.517 . S
C929 O977 1.468 . S
C929 H990 0.980 . S
C930 C931 1.349 . S
C930 C935 1.367 . S
C930 O977 1.408 . S
C931 C930 1.349 . S
C931 C932 1.407 . S
C931 H994 0.930 . S
C932 C931 1.407 . S
C932 C933 1.449 . S
C932 C936 1.535 . S
C933 C932 1.449 . S
C933 C934 1.384 . S
C933 C958 1.553 . S
C934 C933 1.384 . S
C934 C935 1.364 . S
C934 C937 1.450 . S
C935 C930 1.367 . S
C935 C934 1.364 . S
C935 H995 0.931 . S
C936 C932 1.535 . S
C936 H996 0.959 . S
C936 H997 0.961 . S
C936 H998 0.959 . S
C937 C934 1.450 . S
C937 H999 0.960 . S
C937 H1000 0.960 . S
C937 H1001 0.960 . S
C938 C939 1.309 . S
C938 C943 1.304 . S
C938 O976 1.435 . S
C939 C938 1.309 . S
C939 C940 1.476 . S
C939 H1003 0.930 . S
C940 C939 1.476 . S
C940 C941 1.400 . S
C940 C944 1.567 . S
C941 C940 1.400 . S
C941 C942 1.373 . S
C941 C963 1.432 . S
C942 C941 1.373 . S
C942 C943 1.339 . S
C942 C945 1.530 . S
C943 C938 1.304 . S
C943 C942 1.339 . S
C943 H1004 0.930 . S
C944 C940 1.567 . S
C944 H1005 0.961 . S
C944 H1006 0.960 . S
C944 H1007 0.958 . S
C945 C942 1.530 . S
C945 H1008 0.961 . S
C945 H1009 0.960 . S
C945 H1010 0.960 . S
C946 C947 1.530 . S
C946 H1012 0.961 . S
C946 H1013 0.961 . S
C946 H1014 0.959 . S
C947 C946 1.530 . S
C947 O975 1.412 . S
C947 H1011 0.980 . S
C948 C949 1.288 . S
C948 C953 1.377 . S
C948 O975 1.393 . S
C949 C948 1.288 . S
C949 C950 1.369 . S
C949 H1015 0.932 . S
C950 C949 1.369 . S
C950 C951 1.398 . S
C950 C954 1.527 . S
C951 C950 1.398 . S
C951 C952 1.380 . S
C951 C965 1.497 . S
C952 C951 1.380 . S
C952 C953 1.383 . S
C952 C955 1.603 . S
C953 C948 1.377 . S
C953 C952 1.383 . S
C953 H1016 0.929 . S
C954 C950 1.527 . S
C954 H1017 0.961 . S
C954 H1018 0.959 . S
C954 H1019 0.959 . S
C955 C952 1.603 . S
C955 H1020 0.960 . S
C955 H1021 0.962 . S
C955 H1022 0.961 . S
C956 C923 1.587 . S
C956 C957 1.360 . S
C956 C969 1.412 . S
C957 C956 1.360 . S
C957 C958 1.365 . S
C957 H1023 0.929 . S
C958 C933 1.553 . S
C958 C957 1.365 . S
C958 C959 1.404 . S
C959 C958 1.404 . S
C959 C960 1.395 . S
C959 C970 1.451 . S
C960 C959 1.395 . S
C960 C961 1.322 . S
C960 H1024 0.930 . S
C961 C960 1.322 . S
C961 C962 1.459 . S
C961 H1025 0.929 . S
C962 C961 1.459 . S
C962 C963 1.445 . S
C962 C971 1.395 . S
C963 C941 1.432 . S
C963 C962 1.445 . S
C963 C964 1.370 . S
C964 C963 1.370 . S
C964 C965 1.438 . S
C964 H1026 0.930 . S
C965 C951 1.497 . S
C965 C964 1.438 . S
C965 C966 1.360 . S
C966 C965 1.360 . S
C966 C967 1.401 . S
C966 C971 1.446 . S
C967 C966 1.401 . S
C967 C968 1.347 . S
C967 H1027 0.929 . S
C968 C967 1.347 . S
C968 C969 1.455 . S
C968 H1028 0.930 . S
C969 C956 1.412 . S
C969 C968 1.455 . S
C969 C970 1.331 . S
C970 C959 1.451 . S
C970 C969 1.331 . S
C970 C971 1.497 . S
C971 C962 1.395 . S
C971 C966 1.446 . S
C971 C970 1.497 . S
C972 C973 1.582 . S
C972 H1029 0.962 . S
C972 H1030 0.959 . S
C972 H1031 0.958 . S
C973 C972 1.582 . S
C973 O976 1.458 . S
C973 H1002 0.980 . S
O974 C919 1.426 . S
O974 C920 1.334 . S
O975 C947 1.412 . S
O975 C948 1.393 . S
O976 C938 1.435 . S
O976 C973 1.458 . S
O977 C929 1.468 . S
O977 C930 1.408 . S
H978 C919 0.980 . S
H979 C918 0.959 . S
H980 C918 0.959 . S
H981 C918 0.960 . S
H982 C921 0.929 . S
H983 C925 0.929 . S
H984 C926 0.959 . S
H985 C926 0.961 . S
H986 C926 0.961 . S
H987 C927 0.960 . S
H988 C927 0.960 . S
H989 C927 0.961 . S
H990 C929 0.980 . S
H991 C928 0.961 . S
H992 C928 0.960 . S
H993 C928 0.959 . S
H994 C931 0.930 . S
H995 C935 0.931 . S
H996 C936 0.959 . S
H997 C936 0.961 . S
H998 C936 0.959 . S
H999 C937 0.960 . S
H1000 C937 0.960 . S
H1001 C937 0.960 . S
H1002 C973 0.980 . S
H1003 C939 0.930 . S
H1004 C943 0.930 . S
H1005 C944 0.961 . S
H1006 C944 0.960 . S
H1007 C944 0.958 . S
H1008 C945 0.961 . S
H1009 C945 0.960 . S
H1010 C945 0.960 . S
H1011 C947 0.980 . S
H1012 C946 0.961 . S
H1013 C946 0.961 . S
H1014 C946 0.959 . S
H1015 C949 0.932 . S
H1016 C953 0.929 . S
H1017 C954 0.961 . S
H1018 C954 0.959 . S
H1019 C954 0.959 . S
H1020 C955 0.960 . S
H1021 C955 0.962 . S
H1022 C955 0.961 . S
H1023 C957 0.929 . S
H1024 C960 0.930 . S
H1025 C961 0.929 . S
H1026 C964 0.930 . S
H1027 C967 0.929 . S
H1028 C968 0.930 . S
H1029 C972 0.962 . S
H1030 C972 0.959 . S
H1031 C972 0.958 . S
C1032 C1033 1.560 . S
C1032 H1093 0.959 . S
C1032 H1094 0.959 . S
C1032 H1095 0.960 . S
C1033 C1032 1.560 . S
C1033 O1088 1.426 . S
C1033 H1092 0.980 . S
C1034 C1035 1.407 . S
C1034 C1039 1.418 . S
C1034 O1088 1.334 . S
C1035 C1034 1.407 . S
C1035 C1036 1.360 . S
C1035 H1096 0.929 . S
C1036 C1035 1.360 . S
C1036 C1037 1.401 . S
C1036 C1040 1.527 . S
C1037 C1036 1.401 . S
C1037 C1038 1.405 . S
C1037 C1070 1.587 . S
C1038 C1037 1.405 . S
C1038 C1039 1.332 . S
C1038 C1041 1.496 . S
C1039 C1034 1.418 . S
C1039 C1038 1.332 . S
C1039 H1097 0.929 . S
C1040 C1036 1.527 . S
C1040 H1098 0.959 . S
C1040 H1099 0.961 . S
C1040 H1100 0.961 . S
C1041 C1038 1.496 . S
C1041 H1101 0.960 . S
C1041 H1102 0.960 . S
C1041 H1103 0.961 . S
C1042 C1043 1.517 . S
C1042 H1105 0.961 . S
C1042 H1106 0.960 . S
C1042 H1107 0.959 . S
C1043 C1042 1.517 . S
C1043 O1091 1.468 . S
C1043 H1104 0.980 . S
C1044 C1045 1.349 . S
C1044 C1049 1.367 . S
C1044 O1091 1.408 . S
C1045 C1044 1.349 . S
C1045 C1046 1.407 . S
C1045 H1108 0.930 . S
C1046 C1045 1.407 . S
C1046 C1047 1.449 . S
C1046 C1050 1.535 . S
C1047 C1046 1.449 . S
C1047 C1048 1.384 . S
C1047 C1072 1.553 . S
C1048 C1047 1.384 . S
C1048 C1049 1.364 . S
C1048 C1051 1.450 . S
C1049 C1044 1.367 . S
C1049 C1048 1.364 . S
C1049 H1109 0.931 . S
C1050 C1046 1.535 . S
C1050 H1110 0.959 . S
C1050 H1111 0.961 . S
C1050 H1112 0.959 . S
C1051 C1048 1.450 . S
C1051 H1113 0.960 . S
C1051 H1114 0.960 . S
C1051 H1115 0.960 . S
C1052 C1053 1.309 . S
C1052 C1057 1.304 . S
C1052 O1090 1.435 . S
C1053 C1052 1.309 . S
C1053 C1054 1.476 . S
C1053 H1117 0.930 . S
C1054 C1053 1.476 . S
C1054 C1055 1.400 . S
C1054 C1058 1.567 . S
C1055 C1054 1.400 . S
C1055 C1056 1.373 . S
C1055 C1077 1.432 . S
C1056 C1055 1.373 . S
C1056 C1057 1.339 . S
C1056 C1059 1.530 . S
C1057 C1052 1.304 . S
C1057 C1056 1.339 . S
C1057 H1118 0.930 . S
C1058 C1054 1.567 . S
C1058 H1119 0.961 . S
C1058 H1120 0.960 . S
C1058 H1121 0.958 . S
C1059 C1056 1.530 . S
C1059 H1122 0.961 . S
C1059 H1123 0.960 . S
C1059 H1124 0.960 . S
C1060 C1061 1.530 . S
C1060 H1126 0.961 . S
C1060 H1127 0.961 . S
C1060 H1128 0.959 . S
C1061 C1060 1.530 . S
C1061 O1089 1.412 . S
C1061 H1125 0.980 . S
C1062 C1063 1.288 . S
C1062 C1067 1.377 . S
C1062 O1089 1.393 . S
C1063 C1062 1.288 . S
C1063 C1064 1.369 . S
C1063 H1129 0.932 . S
C1064 C1063 1.369 . S
C1064 C1065 1.398 . S
C1064 C1068 1.527 . S
C1065 C1064 1.398 . S
C1065 C1066 1.380 . S
C1065 C1079 1.497 . S
C1066 C1065 1.380 . S
C1066 C1067 1.383 . S
C1066 C1069 1.603 . S
C1067 C1062 1.377 . S
C1067 C1066 1.383 . S
C1067 H1130 0.929 . S
C1068 C1064 1.527 . S
C1068 H1131 0.961 . S
C1068 H1132 0.959 . S
C1068 H1133 0.959 . S
C1069 C1066 1.603 . S
C1069 H1134 0.960 . S
C1069 H1135 0.962 . S
C1069 H1136 0.961 . S
C1070 C1037 1.587 . S
C1070 C1071 1.360 . S
C1070 C1083 1.412 . S
C1071 C1070 1.360 . S
C1071 C1072 1.365 . S
C1071 H1137 0.929 . S
C1072 C1047 1.553 . S
C1072 C1071 1.365 . S
C1072 C1073 1.404 . S
C1073 C1072 1.404 . S
C1073 C1074 1.395 . S
C1073 C1084 1.451 . S
C1074 C1073 1.395 . S
C1074 C1075 1.322 . S
C1074 H1138 0.930 . S
C1075 C1074 1.322 . S
C1075 C1076 1.459 . S
C1075 H1139 0.929 . S
C1076 C1075 1.459 . S
C1076 C1077 1.445 . S
C1076 C1085 1.395 . S
C1077 C1055 1.432 . S
C1077 C1076 1.445 . S
C1077 C1078 1.370 . S
C1078 C1077 1.370 . S
C1078 C1079 1.438 . S
C1078 H1140 0.930 . S
C1079 C1065 1.497 . S
C1079 C1078 1.438 . S
C1079 C1080 1.360 . S
C1080 C1079 1.360 . S
C1080 C1081 1.401 . S
C1080 C1085 1.446 . S
C1081 C1080 1.401 . S
C1081 C1082 1.347 . S
C1081 H1141 0.929 . S
C1082 C1081 1.347 . S
C1082 C1083 1.455 . S
C1082 H1142 0.930 . S
C1083 C1070 1.412 . S
C1083 C1082 1.455 . S
C1083 C1084 1.331 . S
C1084 C1073 1.451 . S
C1084 C1083 1.331 . S
C1084 C1085 1.497 . S
C1085 C1076 1.395 . S
C1085 C1080 1.446 . S
C1085 C1084 1.497 . S
C1086 C1087 1.582 . S
C1086 H1143 0.962 . S
C1086 H1144 0.959 . S
C1086 H1145 0.958 . S
C1087 C1086 1.582 . S
C1087 O1090 1.458 . S
C1087 H1116 0.980 . S
O1088 C1033 1.426 . S
O1088 C1034 1.334 . S
O1089 C1061 1.412 . S
O1089 C1062 1.393 . S
O1090 C1052 1.435 . S
O1090 C1087 1.458 . S
O1091 C1043 1.468 . S
O1091 C1044 1.408 . S
H1092 C1033 0.980 . S
H1093 C1032 0.959 . S
H1094 C1032 0.959 . S
H1095 C1032 0.960 . S
H1096 C1035 0.929 . S
H1097 C1039 0.929 . S
H1098 C1040 0.959 . S
H1099 C1040 0.961 . S
H1100 C1040 0.961 . S
H1101 C1041 0.960 . S
H1102 C1041 0.960 . S
H1103 C1041 0.961 . S
H1104 C1043 0.980 . S
H1105 C1042 0.961 . S
H1106 C1042 0.960 . S
H1107 C1042 0.959 . S
H1108 C1045 0.930 . S
H1109 C1049 0.931 . S
H1110 C1050 0.959 . S
H1111 C1050 0.961 . S
H1112 C1050 0.959 . S
H1113 C1051 0.960 . S
H1114 C1051 0.960 . S
H1115 C1051 0.960 . S
H1116 C1087 0.980 . S
H1117 C1053 0.930 . S
H1118 C1057 0.930 . S
H1119 C1058 0.961 . S
H1120 C1058 0.960 . S
H1121 C1058 0.958 . S
H1122 C1059 0.961 . S
H1123 C1059 0.960 . S
H1124 C1059 0.960 . S
H1125 C1061 0.980 . S
H1126 C1060 0.961 . S
H1127 C1060 0.961 . S
H1128 C1060 0.959 . S
H1129 C1063 0.932 . S
H1130 C1067 0.929 . S
H1131 C1068 0.961 . S
H1132 C1068 0.959 . S
H1133 C1068 0.959 . S
H1134 C1069 0.960 . S
H1135 C1069 0.962 . S
H1136 C1069 0.961 . S
H1137 C1071 0.929 . S
H1138 C1074 0.930 . S
H1139 C1075 0.929 . S
H1140 C1078 0.930 . S
H1141 C1081 0.929 . S
H1142 C1082 0.930 . S
H1143 C1086 0.962 . S
H1144 C1086 0.959 . S
H1145 C1086 0.958 . S
C1146 C1147 1.560 . S
C1146 H1207 0.959 . S
C1146 H1208 0.959 . S
C1146 H1209 0.960 . S
C1147 C1146 1.560 . S
C1147 O1202 1.426 . S
C1147 H1206 0.980 . S
C1148 C1149 1.407 . S
C1148 C1153 1.418 . S
C1148 O1202 1.334 . S
C1149 C1148 1.407 . S
C1149 C1150 1.360 . S
C1149 H1210 0.929 . S
C1150 C1149 1.360 . S
C1150 C1151 1.401 . S
C1150 C1154 1.527 . S
C1151 C1150 1.401 . S
C1151 C1152 1.405 . S
C1151 C1184 1.587 . S
C1152 C1151 1.405 . S
C1152 C1153 1.332 . S
C1152 C1155 1.496 . S
C1153 C1148 1.418 . S
C1153 C1152 1.332 . S
C1153 H1211 0.929 . S
C1154 C1150 1.527 . S
C1154 H1212 0.959 . S
C1154 H1213 0.961 . S
C1154 H1214 0.961 . S
C1155 C1152 1.496 . S
C1155 H1215 0.960 . S
C1155 H1216 0.960 . S
C1155 H1217 0.961 . S
C1156 C1157 1.517 . S
C1156 H1219 0.961 . S
C1156 H1220 0.960 . S
C1156 H1221 0.959 . S
C1157 C1156 1.517 . S
C1157 O1205 1.468 . S
C1157 H1218 0.980 . S
C1158 C1159 1.349 . S
C1158 C1163 1.367 . S
C1158 O1205 1.408 . S
C1159 C1158 1.349 . S
C1159 C1160 1.407 . S
C1159 H1222 0.930 . S
C1160 C1159 1.407 . S
C1160 C1161 1.449 . S
C1160 C1164 1.535 . S
C1161 C1160 1.449 . S
C1161 C1162 1.384 . S
C1161 C1186 1.553 . S
C1162 C1161 1.384 . S
C1162 C1163 1.364 . S
C1162 C1165 1.450 . S
C1163 C1158 1.367 . S
C1163 C1162 1.364 . S
C1163 H1223 0.931 . S
C1164 C1160 1.535 . S
C1164 H1224 0.959 . S
C1164 H1225 0.961 . S
C1164 H1226 0.959 . S
C1165 C1162 1.450 . S
C1165 H1227 0.960 . S
C1165 H1228 0.960 . S
C1165 H1229 0.960 . S
C1166 C1167 1.309 . S
C1166 C1171 1.304 . S
C1166 O1204 1.435 . S
C1167 C1166 1.309 . S
C1167 C1168 1.476 . S
C1167 H1231 0.930 . S
C1168 C1167 1.476 . S
C1168 C1169 1.400 . S
C1168 C1172 1.567 . S
C1169 C1168 1.400 . S
C1169 C1170 1.373 . S
C1169 C1191 1.432 . S
C1170 C1169 1.373 . S
C1170 C1171 1.339 . S
C1170 C1173 1.530 . S
C1171 C1166 1.304 . S
C1171 C1170 1.339 . S
C1171 H1232 0.930 . S
C1172 C1168 1.567 . S
C1172 H1233 0.961 . S
C1172 H1234 0.960 . S
C1172 H1235 0.958 . S
C1173 C1170 1.530 . S
C1173 H1236 0.961 . S
C1173 H1237 0.960 . S
C1173 H1238 0.960 . S
C1174 C1175 1.530 . S
C1174 H1240 0.961 . S
C1174 H1241 0.961 . S
C1174 H1242 0.959 . S
C1175 C1174 1.530 . S
C1175 O1203 1.412 . S
C1175 H1239 0.980 . S
C1176 C1177 1.288 . S
C1176 C1181 1.377 . S
C1176 O1203 1.393 . S
C1177 C1176 1.288 . S
C1177 C1178 1.369 . S
C1177 H1243 0.932 . S
C1178 C1177 1.369 . S
C1178 C1179 1.398 . S
C1178 C1182 1.527 . S
C1179 C1178 1.398 . S
C1179 C1180 1.380 . S
C1179 C1193 1.497 . S
C1180 C1179 1.380 . S
C1180 C1181 1.383 . S
C1180 C1183 1.603 . S
C1181 C1176 1.377 . S
C1181 C1180 1.383 . S
C1181 H1244 0.929 . S
C1182 C1178 1.527 . S
C1182 H1245 0.961 . S
C1182 H1246 0.959 . S
C1182 H1247 0.959 . S
C1183 C1180 1.603 . S
C1183 H1248 0.960 . S
C1183 H1249 0.962 . S
C1183 H1250 0.961 . S
C1184 C1151 1.587 . S
C1184 C1185 1.360 . S
C1184 C1197 1.412 . S
C1185 C1184 1.360 . S
C1185 C1186 1.365 . S
C1185 H1251 0.929 . S
C1186 C1161 1.553 . S
C1186 C1185 1.365 . S
C1186 C1187 1.404 . S
C1187 C1186 1.404 . S
C1187 C1188 1.395 . S
C1187 C1198 1.451 . S
C1188 C1187 1.395 . S
C1188 C1189 1.322 . S
C1188 H1252 0.930 . S
C1189 C1188 1.322 . S
C1189 C1190 1.459 . S
C1189 H1253 0.929 . S
C1190 C1189 1.459 . S
C1190 C1191 1.445 . S
C1190 C1199 1.395 . S
C1191 C1169 1.432 . S
C1191 C1190 1.445 . S
C1191 C1192 1.370 . S
C1192 C1191 1.370 . S
C1192 C1193 1.438 . S
C1192 H1254 0.930 . S
C1193 C1179 1.497 . S
C1193 C1192 1.438 . S
C1193 C1194 1.360 . S
C1194 C1193 1.360 . S
C1194 C1195 1.401 . S
C1194 C1199 1.446 . S
C1195 C1194 1.401 . S
C1195 C1196 1.347 . S
C1195 H1255 0.929 . S
C1196 C1195 1.347 . S
C1196 C1197 1.455 . S
C1196 H1256 0.930 . S
C1197 C1184 1.412 . S
C1197 C1196 1.455 . S
C1197 C1198 1.331 . S
C1198 C1187 1.451 . S
C1198 C1197 1.331 . S
C1198 C1199 1.497 . S
C1199 C1190 1.395 . S
C1199 C1194 1.446 . S
C1199 C1198 1.497 . S
C1200 C1201 1.582 . S
C1200 H1257 0.962 . S
C1200 H1258 0.959 . S
C1200 H1259 0.958 . S
C1201 C1200 1.582 . S
C1201 O1204 1.458 . S
C1201 H1230 0.980 . S
O1202 C1147 1.426 . S
O1202 C1148 1.334 . S
O1203 C1175 1.412 . S
O1203 C1176 1.393 . S
O1204 C1166 1.435 . S
O1204 C1201 1.458 . S
O1205 C1157 1.468 . S
O1205 C1158 1.408 . S
H1206 C1147 0.980 . S
H1207 C1146 0.959 . S
H1208 C1146 0.959 . S
H1209 C1146 0.960 . S
H1210 C1149 0.929 . S
H1211 C1153 0.929 . S
H1212 C1154 0.959 . S
H1213 C1154 0.961 . S
H1214 C1154 0.961 . S
H1215 C1155 0.960 . S
H1216 C1155 0.960 . S
H1217 C1155 0.961 . S
H1218 C1157 0.980 . S
H1219 C1156 0.961 . S
H1220 C1156 0.960 . S
H1221 C1156 0.959 . S
H1222 C1159 0.930 . S
H1223 C1163 0.931 . S
H1224 C1164 0.959 . S
H1225 C1164 0.961 . S
H1226 C1164 0.959 . S
H1227 C1165 0.960 . S
H1228 C1165 0.960 . S
H1229 C1165 0.960 . S
H1230 C1201 0.980 . S
H1231 C1167 0.930 . S
H1232 C1171 0.930 . S
H1233 C1172 0.961 . S
H1234 C1172 0.960 . S
H1235 C1172 0.958 . S
H1236 C1173 0.961 . S
H1237 C1173 0.960 . S
H1238 C1173 0.960 . S
H1239 C1175 0.980 . S
H1240 C1174 0.961 . S
H1241 C1174 0.961 . S
H1242 C1174 0.959 . S
H1243 C1177 0.932 . S
H1244 C1181 0.929 . S
H1245 C1182 0.961 . S
H1246 C1182 0.959 . S
H1247 C1182 0.959 . S
H1248 C1183 0.960 . S
H1249 C1183 0.962 . S
H1250 C1183 0.961 . S
H1251 C1185 0.929 . S
H1252 C1188 0.930 . S
H1253 C1189 0.929 . S
H1254 C1192 0.930 . S
H1255 C1195 0.929 . S
H1256 C1196 0.930 . S
H1257 C1200 0.962 . S
H1258 C1200 0.959 . S
H1259 C1200 0.958 . S
C1260 C1261 1.560 . S
C1260 H1321 0.959 . S
C1260 H1322 0.959 . S
C1260 H1323 0.960 . S
C1261 C1260 1.560 . S
C1261 O1316 1.426 . S
C1261 H1320 0.980 . S
C1262 C1263 1.407 1_455 S
C1262 C1267 1.418 . S
C1262 O1316 1.334 . S
C1263 C1262 1.407 1_655 S
C1263 C1264 1.360 . S
C1263 H1324 0.929 . S
C1264 C1263 1.360 . S
C1264 C1265 1.401 1_655 S
C1264 C1268 1.527 . S
C1265 C1264 1.401 1_455 S
C1265 C1266 1.405 . S
C1265 C1298 1.587 1_455 S
C1266 C1265 1.405 . S
C1266 C1267 1.332 . S
C1266 C1269 1.496 . S
C1267 C1262 1.418 . S
C1267 C1266 1.332 . S
C1267 H1325 0.929 . S
C1268 C1264 1.527 . S
C1268 H1326 0.959 . S
C1268 H1327 0.961 . S
C1268 H1328 0.961 . S
C1269 C1266 1.496 . S
C1269 H1329 0.960 . S
C1269 H1330 0.960 . S
C1269 H1331 0.961 . S
C1270 C1271 1.517 . S
C1270 H1333 0.961 . S
C1270 H1334 0.960 . S
C1270 H1335 0.959 . S
C1271 C1270 1.517 . S
C1271 O1319 1.468 . S
C1271 H1332 0.950 1_655 S
C1272 C1273 1.349 . S
C1272 C1277 1.367 . S
C1272 O1319 1.408 . S
C1273 C1272 1.349 . S
C1273 C1274 1.401 1_655 S
C1273 H1336 0.930 1_655 S
C1274 C1273 1.401 1_455 S
C1274 C1275 1.444 1_455 S
C1274 C1278 1.546 . S
C1275 C1274 1.444 1_655 S
C1275 C1276 1.384 . S
C1275 C1300 1.553 . S
C1276 C1275 1.384 . S
C1276 C1277 1.364 . S
C1276 C1279 1.450 . S
C1277 C1272 1.367 . S
C1277 C1276 1.364 . S
C1277 H1337 0.931 . S
C1278 C1274 1.546 . S
C1278 H1338 0.959 . S
C1278 H1339 0.961 . S
C1278 H1340 0.959 . S
C1279 C1276 1.450 . S
C1279 H1341 0.960 . S
C1279 H1342 0.960 . S
C1279 H1343 0.960 . S
C1280 C1281 1.309 . S
C1280 C1285 1.304 . S
C1280 O1318 1.435 . S
C1281 C1280 1.309 . S
C1281 C1282 1.488 . S
C1281 H1345 0.930 1_655 S
C1282 C1281 1.488 . S
C1282 C1283 1.407 . S
C1282 C1286 1.549 1_655 S
C1283 C1282 1.407 . S
C1283 C1284 1.373 . S
C1283 C1305 1.432 . S
C1284 C1283 1.373 . S
C1284 C1285 1.339 . S
C1284 C1287 1.530 . S
C1285 C1280 1.304 . S
C1285 C1284 1.339 . S
C1285 H1346 0.930 . S
C1286 C1282 1.549 1_455 S
C1286 H1347 0.961 . S
C1286 H1348 0.960 . S
C1286 H1349 0.958 . S
C1287 C1284 1.530 . S
C1287 H1350 0.961 . S
C1287 H1351 0.960 . S
C1287 H1352 0.960 . S
C1288 C1289 1.530 . S
C1288 H1354 0.961 . S
C1288 H1355 0.961 . S
C1288 H1356 0.959 . S
C1289 C1288 1.530 . S
C1289 O1317 1.412 . S
C1289 H1353 0.980 1_455 S
C1290 C1291 1.288 . S
C1290 C1295 1.377 1_455 S
C1290 O1317 1.393 . S
C1291 C1290 1.288 . S
C1291 C1292 1.369 . S
C1291 H1357 0.932 . S
C1292 C1291 1.369 . S
C1292 C1293 1.327 1_455 S
C1292 C1296 1.527 . S
C1293 C1292 1.327 1_655 S
C1293 C1294 1.400 . S
C1293 C1307 1.547 . S
C1294 C1293 1.400 . S
C1294 C1295 1.383 . S
C1294 C1297 1.603 . S
C1295 C1290 1.377 1_655 S
C1295 C1294 1.383 . S
C1295 H1358 0.929 . S
C1296 C1292 1.527 . S
C1296 H1359 0.961 . S
C1296 H1360 0.959 . S
C1296 H1361 0.959 . S
C1297 C1294 1.603 . S
C1297 H1362 0.960 . S
C1297 H1363 0.962 . S
C1297 H1364 0.961 . S
C1298 C1265 1.587 1_655 S
C1298 C1299 1.360 . S
C1298 C1311 1.412 . S
C1299 C1298 1.360 . S
C1299 C1300 1.365 . S
C1299 H1365 0.929 . S
C1300 C1275 1.553 . S
C1300 C1299 1.365 . S
C1300 C1301 1.404 . S
C1301 C1300 1.404 . S
C1301 C1302 1.395 . S
C1301 C1312 1.451 . S
C1302 C1301 1.395 . S
C1302 C1303 1.322 . S
C1302 H1366 0.930 . S
C1303 C1302 1.322 . S
C1303 C1304 1.459 . S
C1303 H1367 0.929 . S
C1304 C1303 1.459 . S
C1304 C1305 1.445 . S
C1304 C1313 1.395 . S
C1305 C1283 1.432 . S
C1305 C1304 1.445 . S
C1305 C1306 1.370 . S
C1306 C1305 1.370 . S
C1306 C1307 1.438 . S
C1306 H1368 0.930 . S
C1307 C1293 1.547 . S
C1307 C1306 1.438 . S
C1307 C1308 1.360 . S
C1308 C1307 1.360 . S
C1308 C1309 1.401 . S
C1308 C1313 1.446 . S
C1309 C1308 1.401 . S
C1309 C1310 1.347 . S
C1309 H1369 0.968 . S
C1310 C1309 1.347 . S
C1310 C1311 1.455 . S
C1310 H1370 0.968 . S
C1311 C1298 1.412 . S
C1311 C1310 1.455 . S
C1311 C1312 1.331 . S
C1312 C1301 1.451 . S
C1312 C1311 1.331 . S
C1312 C1313 1.497 . S
C1313 C1304 1.395 . S
C1313 C1308 1.446 . S
C1313 C1312 1.497 . S
C1314 C1315 1.582 . S
C1314 H1371 0.962 . S
C1314 H1372 0.959 . S
C1314 H1373 0.958 . S
C1315 C1314 1.582 . S
C1315 O1318 1.458 . S
C1315 H1344 0.980 . S
O1316 C1261 1.426 . S
O1316 C1262 1.334 . S
O1317 C1289 1.412 . S
O1317 C1290 1.393 . S
O1318 C1280 1.435 . S
O1318 C1315 1.458 . S
O1319 C1271 1.468 . S
O1319 C1272 1.408 . S
H1320 C1261 0.980 . S
H1321 C1260 0.959 . S
H1322 C1260 0.959 . S
H1323 C1260 0.960 . S
H1324 C1263 0.929 . S
H1325 C1267 0.929 . S
H1326 C1268 0.959 . S
H1327 C1268 0.961 . S
H1328 C1268 0.961 . S
H1329 C1269 0.960 . S
H1330 C1269 0.960 . S
H1331 C1269 0.961 . S
H1332 C1271 0.950 1_455 S
H1333 C1270 0.961 . S
H1334 C1270 0.960 . S
H1335 C1270 0.959 . S
H1336 C1273 0.930 1_455 S
H1337 C1277 0.931 . S
H1338 C1278 0.959 . S
H1339 C1278 0.961 . S
H1340 C1278 0.959 . S
H1341 C1279 0.960 . S
H1342 C1279 0.960 . S
H1343 C1279 0.960 . S
H1344 C1315 0.980 . S
H1345 C1281 0.930 1_455 S
H1346 C1285 0.930 . S
H1347 C1286 0.961 . S
H1348 C1286 0.960 . S
H1349 C1286 0.958 . S
H1350 C1287 0.961 . S
H1351 C1287 0.960 . S
H1352 C1287 0.960 . S
H1353 C1289 0.980 1_655 S
H1354 C1288 0.961 . S
H1355 C1288 0.961 . S
H1356 C1288 0.959 . S
H1357 C1291 0.932 . S
H1358 C1295 0.929 . S
H1359 C1296 0.961 . S
H1360 C1296 0.959 . S
H1361 C1296 0.959 . S
H1362 C1297 0.960 . S
H1363 C1297 0.962 . S
H1364 C1297 0.961 . S
H1365 C1299 0.929 . S
H1366 C1302 0.930 . S
H1367 C1303 0.929 . S
H1368 C1306 0.930 . S
H1369 C1309 0.968 . S
H1370 C1310 0.968 . S
H1371 C1314 0.962 . S
H1372 C1314 0.959 . S
H1373 C1314 0.958 . S
C1374 C1375 1.560 . S
C1374 H1435 0.959 . S
C1374 H1436 0.959 . S
C1374 H1437 0.960 . S
C1375 C1374 1.560 . S
C1375 O1430 1.426 . S
C1375 H1434 0.980 . S
C1376 C1377 1.407 . S
C1376 C1381 1.418 . S
C1376 O1430 1.334 . S
C1377 C1376 1.407 . S
C1377 C1378 1.360 . S
C1377 H1438 0.929 . S
C1378 C1377 1.360 . S
C1378 C1379 1.401 . S
C1378 C1382 1.527 . S
C1379 C1378 1.401 . S
C1379 C1380 1.405 . S
C1379 C1412 1.587 . S
C1380 C1379 1.405 . S
C1380 C1381 1.332 . S
C1380 C1383 1.496 . S
C1381 C1376 1.418 . S
C1381 C1380 1.332 . S
C1381 H1439 0.929 . S
C1382 C1378 1.527 . S
C1382 H1440 0.959 . S
C1382 H1441 0.961 . S
C1382 H1442 0.961 . S
C1383 C1380 1.496 . S
C1383 H1443 0.960 . S
C1383 H1444 0.960 . S
C1383 H1445 0.961 . S
C1384 C1385 1.517 . S
C1384 H1447 0.961 . S
C1384 H1448 0.960 . S
C1384 H1449 0.959 . S
C1385 C1384 1.517 . S
C1385 O1433 1.468 . S
C1385 H1446 0.980 . S
C1386 C1387 1.349 . S
C1386 C1391 1.367 . S
C1386 O1433 1.408 . S
C1387 C1386 1.349 . S
C1387 C1388 1.407 . S
C1387 H1450 0.930 . S
C1388 C1387 1.407 . S
C1388 C1389 1.449 . S
C1388 C1392 1.535 . S
C1389 C1388 1.449 . S
C1389 C1390 1.384 . S
C1389 C1414 1.553 . S
C1390 C1389 1.384 . S
C1390 C1391 1.364 . S
C1390 C1393 1.450 . S
C1391 C1386 1.367 . S
C1391 C1390 1.364 . S
C1391 H1451 0.931 . S
C1392 C1388 1.535 . S
C1392 H1452 0.959 . S
C1392 H1453 0.961 . S
C1392 H1454 0.959 . S
C1393 C1390 1.450 . S
C1393 H1455 0.960 . S
C1393 H1456 0.960 . S
C1393 H1457 0.960 . S
C1394 C1395 1.309 . S
C1394 C1399 1.304 . S
C1394 O1432 1.435 . S
C1395 C1394 1.309 . S
C1395 C1396 1.476 . S
C1395 H1459 0.930 . S
C1396 C1395 1.476 . S
C1396 C1397 1.400 . S
C1396 C1400 1.567 . S
C1397 C1396 1.400 . S
C1397 C1398 1.373 . S
C1397 C1419 1.432 . S
C1398 C1397 1.373 . S
C1398 C1399 1.339 . S
C1398 C1401 1.530 . S
C1399 C1394 1.304 . S
C1399 C1398 1.339 . S
C1399 H1460 0.930 . S
C1400 C1396 1.567 . S
C1400 H1461 0.961 . S
C1400 H1462 0.960 . S
C1400 H1463 0.958 . S
C1401 C1398 1.530 . S
C1401 H1464 0.961 . S
C1401 H1465 0.960 . S
C1401 H1466 0.960 . S
C1402 C1403 1.530 . S
C1402 H1468 0.961 . S
C1402 H1469 0.961 . S
C1402 H1470 0.959 . S
C1403 C1402 1.530 . S
C1403 O1431 1.412 . S
C1403 H1467 0.980 . S
C1404 C1405 1.288 . S
C1404 C1409 1.377 . S
C1404 O1431 1.393 . S
C1405 C1404 1.288 . S
C1405 C1406 1.369 . S
C1405 H1471 0.932 . S
C1406 C1405 1.369 . S
C1406 C1407 1.398 . S
C1406 C1410 1.527 . S
C1407 C1406 1.398 . S
C1407 C1408 1.380 . S
C1407 C1421 1.497 . S
C1408 C1407 1.380 . S
C1408 C1409 1.383 . S
C1408 C1411 1.603 . S
C1409 C1404 1.377 . S
C1409 C1408 1.383 . S
C1409 H1472 0.929 . S
C1410 C1406 1.527 . S
C1410 H1473 0.961 . S
C1410 H1474 0.959 . S
C1410 H1475 0.959 . S
C1411 C1408 1.603 . S
C1411 H1476 0.960 . S
C1411 H1477 0.962 . S
C1411 H1478 0.961 . S
C1412 C1379 1.587 . S
C1412 C1413 1.360 . S
C1412 C1425 1.412 . S
C1413 C1412 1.360 . S
C1413 C1414 1.365 . S
C1413 H1479 0.929 . S
C1414 C1389 1.553 . S
C1414 C1413 1.365 . S
C1414 C1415 1.404 . S
C1415 C1414 1.404 . S
C1415 C1416 1.395 . S
C1415 C1426 1.451 . S
C1416 C1415 1.395 . S
C1416 C1417 1.322 . S
C1416 H1480 0.930 . S
C1417 C1416 1.322 . S
C1417 C1418 1.459 . S
C1417 H1481 0.929 . S
C1418 C1417 1.459 . S
C1418 C1419 1.445 . S
C1418 C1427 1.395 . S
C1419 C1397 1.432 . S
C1419 C1418 1.445 . S
C1419 C1420 1.370 . S
C1420 C1419 1.370 . S
C1420 C1421 1.438 . S
C1420 H1482 0.930 . S
C1421 C1407 1.497 . S
C1421 C1420 1.438 . S
C1421 C1422 1.360 . S
C1422 C1421 1.360 . S
C1422 C1423 1.401 . S
C1422 C1427 1.446 . S
C1423 C1422 1.401 . S
C1423 C1424 1.347 . S
C1423 H1483 0.929 . S
C1424 C1423 1.347 . S
C1424 C1425 1.455 . S
C1424 H1484 0.930 . S
C1425 C1412 1.412 . S
C1425 C1424 1.455 . S
C1425 C1426 1.331 . S
C1426 C1415 1.451 . S
C1426 C1425 1.331 . S
C1426 C1427 1.497 . S
C1427 C1418 1.395 . S
C1427 C1422 1.446 . S
C1427 C1426 1.497 . S
C1428 C1429 1.582 . S
C1428 H1485 0.962 . S
C1428 H1486 0.959 . S
C1428 H1487 0.958 . S
C1429 C1428 1.582 . S
C1429 O1432 1.458 . S
C1429 H1458 0.980 . S
O1430 C1375 1.426 . S
O1430 C1376 1.334 . S
O1431 C1403 1.412 . S
O1431 C1404 1.393 . S
O1432 C1394 1.435 . S
O1432 C1429 1.458 . S
O1433 C1385 1.468 . S
O1433 C1386 1.408 . S
H1434 C1375 0.980 . S
H1435 C1374 0.959 . S
H1436 C1374 0.959 . S
H1437 C1374 0.960 . S
H1438 C1377 0.929 . S
H1439 C1381 0.929 . S
H1440 C1382 0.959 . S
H1441 C1382 0.961 . S
H1442 C1382 0.961 . S
H1443 C1383 0.960 . S
H1444 C1383 0.960 . S
H1445 C1383 0.961 . S
H1446 C1385 0.980 . S
H1447 C1384 0.961 . S
H1448 C1384 0.960 . S
H1449 C1384 0.959 . S
H1450 C1387 0.930 . S
H1451 C1391 0.931 . S
H1452 C1392 0.959 . S
H1453 C1392 0.961 . S
H1454 C1392 0.959 . S
H1455 C1393 0.960 . S
H1456 C1393 0.960 . S
H1457 C1393 0.960 . S
H1458 C1429 0.980 . S
H1459 C1395 0.930 . S
H1460 C1399 0.930 . S
H1461 C1400 0.961 . S
H1462 C1400 0.960 . S
H1463 C1400 0.958 . S
H1464 C1401 0.961 . S
H1465 C1401 0.960 . S
H1466 C1401 0.960 . S
H1467 C1403 0.980 . S
H1468 C1402 0.961 . S
H1469 C1402 0.961 . S
H1470 C1402 0.959 . S
H1471 C1405 0.932 . S
H1472 C1409 0.929 . S
H1473 C1410 0.961 . S
H1474 C1410 0.959 . S
H1475 C1410 0.959 . S
H1476 C1411 0.960 . S
H1477 C1411 0.962 . S
H1478 C1411 0.961 . S
H1479 C1413 0.929 . S
H1480 C1416 0.930 . S
H1481 C1417 0.929 . S
H1482 C1420 0.930 . S
H1483 C1423 0.929 . S
H1484 C1424 0.930 . S
H1485 C1428 0.962 . S
H1486 C1428 0.959 . S
H1487 C1428 0.958 . S
C1488 C1489 1.560 . S
C1488 H1549 0.959 . S
C1488 H1550 0.959 . S
C1488 H1551 0.960 . S
C1489 C1488 1.560 . S
C1489 O1544 1.426 . S
C1489 H1548 0.980 . S
C1490 C1491 1.407 1_565 S
C1490 C1495 1.418 . S
C1490 O1544 1.334 . S
C1491 C1490 1.407 1_545 S
C1491 C1492 1.360 . S
C1491 H1552 0.929 . S
C1492 C1491 1.360 . S
C1492 C1493 1.401 1_545 S
C1492 C1496 1.527 . S
C1493 C1492 1.401 1_565 S
C1493 C1494 1.405 . S
C1493 C1526 1.587 1_565 S
C1494 C1493 1.405 . S
C1494 C1495 1.332 . S
C1494 C1497 1.496 . S
C1495 C1490 1.418 . S
C1495 C1494 1.332 . S
C1495 H1553 0.929 . S
C1496 C1492 1.527 . S
C1496 H1554 0.959 . S
C1496 H1555 0.961 . S
C1496 H1556 0.961 . S
C1497 C1494 1.496 . S
C1497 H1557 0.960 . S
C1497 H1558 0.960 . S
C1497 H1559 0.961 . S
C1498 C1499 1.517 . S
C1498 H1561 0.961 1_545 S
C1498 H1562 0.960 . S
C1498 H1563 0.959 . S
C1499 C1498 1.517 . S
C1499 O1547 1.468 . S
C1499 H1560 0.980 1_545 S
C1500 C1501 1.329 1_545 S
C1500 C1505 1.367 . S
C1500 O1547 1.408 . S
C1501 C1500 1.329 1_565 S
C1501 C1502 1.393 . S
C1501 H1564 0.967 . S
C1502 C1501 1.393 . S
C1502 C1503 1.449 1_565 S
C1502 C1506 1.535 . S
C1503 C1502 1.449 1_545 S
C1503 C1504 1.384 . S
C1503 C1528 1.553 . S
C1504 C1503 1.384 . S
C1504 C1505 1.364 . S
C1504 C1507 1.450 . S
C1505 C1500 1.367 . S
C1505 C1504 1.364 . S
C1505 H1565 0.931 . S
C1506 C1502 1.535 . S
C1506 H1566 0.959 . S
C1506 H1567 0.961 . S
C1506 H1568 0.959 . S
C1507 C1504 1.450 . S
C1507 H1569 0.960 . S
C1507 H1570 0.960 . S
C1507 H1571 0.960 . S
C1508 C1509 1.309 . S
C1508 C1513 1.304 . S
C1508 O1546 1.435 . S
C1509 C1508 1.309 . S
C1509 C1510 1.494 1_545 S
C1509 H1573 0.930 1_545 S
C1510 C1509 1.494 1_565 S
C1510 C1511 1.345 1_565 S
C1510 C1514 1.604 . S
C1511 C1510 1.345 1_545 S
C1511 C1512 1.373 . S
C1511 C1533 1.432 . S
C1512 C1511 1.373 . S
C1512 C1513 1.339 . S
C1512 C1515 1.530 . S
C1513 C1508 1.304 . S
C1513 C1512 1.339 . S
C1513 H1574 0.930 . S
C1514 C1510 1.604 . S
C1514 H1575 0.961 . S
C1514 H1576 0.960 . S
C1514 H1577 0.958 . S
C1515 C1512 1.530 . S
C1515 H1578 0.961 . S
C1515 H1579 0.960 . S
C1515 H1580 0.960 . S
C1516 C1517 1.530 1_565 S
C1516 H1582 1.018 . S
C1516 H1583 0.961 . S
C1516 H1584 0.959 . S
C1517 C1516 1.530 1_545 S
C1517 O1545 1.412 1_545 S
C1517 H1581 0.980 . S
C1518 C1519 1.288 . S
C1518 C1523 1.377 1_565 S
C1518 O1545 1.393 . S
C1519 C1518 1.288 . S
C1519 C1520 1.369 . S
C1519 H1585 0.932 . S
C1520 C1519 1.369 . S
C1520 C1521 1.398 1_565 S
C1520 C1524 1.527 . S
C1521 C1520 1.398 1_545 S
C1521 C1522 1.380 . S
C1521 C1535 1.497 . S
C1522 C1521 1.380 . S
C1522 C1523 1.383 . S
C1522 C1525 1.603 . S
C1523 C1518 1.377 1_545 S
C1523 C1522 1.383 . S
C1523 H1586 0.929 . S
C1524 C1520 1.527 . S
C1524 H1587 0.961 . S
C1524 H1588 0.959 . S
C1524 H1589 0.959 . S
C1525 C1522 1.603 . S
C1525 H1590 0.960 . S
C1525 H1591 0.962 . S
C1525 H1592 0.961 . S
C1526 C1493 1.587 1_545 S
C1526 C1527 1.360 . S
C1526 C1539 1.412 . S
C1527 C1526 1.360 . S
C1527 C1528 1.365 . S
C1527 H1593 0.929 . S
C1528 C1503 1.553 . S
C1528 C1527 1.365 . S
C1528 C1529 1.404 . S
C1529 C1528 1.404 . S
C1529 C1530 1.395 . S
C1529 C1540 1.451 . S
C1530 C1529 1.395 . S
C1530 C1531 1.322 . S
C1530 H1594 0.930 . S
C1531 C1530 1.322 . S
C1531 C1532 1.459 . S
C1531 H1595 0.929 . S
C1532 C1531 1.459 . S
C1532 C1533 1.445 . S
C1532 C1541 1.395 . S
C1533 C1511 1.432 . S
C1533 C1532 1.445 . S
C1533 C1534 1.370 . S
C1534 C1533 1.370 . S
C1534 C1535 1.438 . S
C1534 H1596 0.930 . S
C1535 C1521 1.497 . S
C1535 C1534 1.438 . S
C1535 C1536 1.360 . S
C1536 C1535 1.360 . S
C1536 C1537 1.401 . S
C1536 C1541 1.446 . S
C1537 C1536 1.401 . S
C1537 C1538 1.347 . S
C1537 H1597 0.929 . S
C1538 C1537 1.347 . S
C1538 C1539 1.455 . S
C1538 H1598 0.930 . S
C1539 C1526 1.412 . S
C1539 C1538 1.455 . S
C1539 C1540 1.331 . S
C1540 C1529 1.451 . S
C1540 C1539 1.331 . S
C1540 C1541 1.497 . S
C1541 C1532 1.395 . S
C1541 C1536 1.446 . S
C1541 C1540 1.497 . S
C1542 C1543 1.582 . S
C1542 H1599 0.962 . S
C1542 H1600 0.959 . S
C1542 H1601 0.958 . S
C1543 C1542 1.582 . S
C1543 O1546 1.458 . S
C1543 H1572 0.980 . S
O1544 C1489 1.426 . S
O1544 C1490 1.334 . S
O1545 C1517 1.412 1_565 S
O1545 C1518 1.393 . S
O1546 C1508 1.435 . S
O1546 C1543 1.458 . S
O1547 C1499 1.468 . S
O1547 C1500 1.408 . S
H1548 C1489 0.980 . S
H1549 C1488 0.959 . S
H1550 C1488 0.959 . S
H1551 C1488 0.960 . S
H1552 C1491 0.929 . S
H1553 C1495 0.929 . S
H1554 C1496 0.959 . S
H1555 C1496 0.961 . S
H1556 C1496 0.961 . S
H1557 C1497 0.960 . S
H1558 C1497 0.960 . S
H1559 C1497 0.961 . S
H1560 C1499 0.980 1_565 S
H1561 C1498 0.961 1_565 S
H1562 C1498 0.960 . S
H1563 C1498 0.959 . S
H1564 C1501 0.967 . S
H1565 C1505 0.931 . S
H1566 C1506 0.959 . S
H1567 C1506 0.961 . S
H1568 C1506 0.959 . S
H1569 C1507 0.960 . S
H1570 C1507 0.960 . S
H1571 C1507 0.960 . S
H1572 C1543 0.980 . S
H1573 C1509 0.930 1_565 S
H1574 C1513 0.930 . S
H1575 C1514 0.961 . S
H1576 C1514 0.960 . S
H1577 C1514 0.958 . S
H1578 C1515 0.961 . S
H1579 C1515 0.960 . S
H1580 C1515 0.960 . S
H1581 C1517 0.980 . S
H1582 C1516 1.018 . S
H1583 C1516 0.961 . S
H1584 C1516 0.959 . S
H1585 C1519 0.932 . S
H1586 C1523 0.929 . S
H1587 C1524 0.961 . S
H1588 C1524 0.959 . S
H1589 C1524 0.959 . S
H1590 C1525 0.960 . S
H1591 C1525 0.962 . S
H1592 C1525 0.961 . S
H1593 C1527 0.929 . S
H1594 C1530 0.930 . S
H1595 C1531 0.929 . S
H1596 C1534 0.930 . S
H1597 C1537 0.929 . S
H1598 C1538 0.930 . S
H1599 C1542 0.962 . S
H1600 C1542 0.959 . S
H1601 C1542 0.958 . S
C1602 C1603 1.560 . S
C1602 H1663 0.959 . S
C1602 H1664 0.959 . S
C1602 H1665 0.960 . S
C1603 C1602 1.560 . S
C1603 O1658 1.426 . S
C1603 H1662 0.980 1_565 S
C1604 C1605 1.407 1_565 S
C1604 C1609 1.418 . S
C1604 O1658 1.334 . S
C1605 C1604 1.407 1_545 S
C1605 C1606 1.360 . S
C1605 H1666 0.929 . S
C1606 C1605 1.360 . S
C1606 C1607 1.401 . S
C1606 C1610 1.527 . S
C1607 C1606 1.401 . S
C1607 C1608 1.405 1_545 S
C1607 C1640 1.587 . S
C1608 C1607 1.405 1_565 S
C1608 C1609 1.332 . S
C1608 C1611 1.496 . S
C1609 C1604 1.418 . S
C1609 C1608 1.332 . S
C1609 H1667 0.929 . S
C1610 C1606 1.527 . S
C1610 H1668 0.959 . S
C1610 H1669 0.961 . S
C1610 H1670 0.961 . S
C1611 C1608 1.496 . S
C1611 H1671 0.960 . S
C1611 H1672 0.960 . S
C1611 H1673 0.961 . S
C1612 C1613 1.517 . S
C1612 H1675 0.961 . S
C1612 H1676 0.960 . S
C1612 H1677 0.959 . S
C1613 C1612 1.517 . S
C1613 O1661 1.468 . S
C1613 H1674 0.980 . S
C1614 C1615 1.349 . S
C1614 C1619 1.367 . S
C1614 O1661 1.408 . S
C1615 C1614 1.349 . S
C1615 C1616 1.407 . S
C1615 H1678 0.945 . S
C1616 C1615 1.407 . S
C1616 C1617 1.449 . S
C1616 C1620 1.535 1_545 S
C1617 C1616 1.449 . S
C1617 C1618 1.384 . S
C1617 C1642 1.553 . S
C1618 C1617 1.384 . S
C1618 C1619 1.364 . S
C1618 C1621 1.450 . S
C1619 C1614 1.367 . S
C1619 C1618 1.364 . S
C1619 H1679 0.931 . S
C1620 C1616 1.535 1_565 S
C1620 H1680 0.959 . S
C1620 H1681 0.961 . S
C1620 H1682 0.959 . S
C1621 C1618 1.450 . S
C1621 H1683 0.960 . S
C1621 H1684 0.960 . S
C1621 H1685 0.960 . S
C1622 C1623 1.309 1_545 S
C1622 C1627 1.304 . S
C1622 O1660 1.435 . S
C1623 C1622 1.309 1_565 S
C1623 C1624 1.476 . S
C1623 H1687 0.930 . S
C1624 C1623 1.476 . S
C1624 C1625 1.400 1_565 S
C1624 C1628 1.567 . S
C1625 C1624 1.400 1_545 S
C1625 C1626 1.373 . S
C1625 C1647 1.432 . S
C1626 C1625 1.373 . S
C1626 C1627 1.339 . S
C1626 C1629 1.530 . S
C1627 C1622 1.304 . S
C1627 C1626 1.339 . S
C1627 H1688 0.930 . S
C1628 C1624 1.567 . S
C1628 H1689 0.961 . S
C1628 H1690 0.960 . S
C1628 H1691 0.958 . S
C1629 C1626 1.530 . S
C1629 H1692 0.961 . S
C1629 H1693 0.960 . S
C1629 H1694 0.960 . S
C1630 C1631 1.530 . S
C1630 H1696 0.961 . S
C1630 H1697 0.961 . S
C1630 H1698 0.959 . S
C1631 C1630 1.530 . S
C1631 O1659 1.412 . S
C1631 H1695 0.980 . S
C1632 C1633 1.288 . S
C1632 C1637 1.377 1_565 S
C1632 O1659 1.393 . S
C1633 C1632 1.288 . S
C1633 C1634 1.369 . S
C1633 H1699 0.932 . S
C1634 C1633 1.369 . S
C1634 C1635 1.398 . S
C1634 C1638 1.527 . S
C1635 C1634 1.398 . S
C1635 C1636 1.380 1_565 S
C1635 C1649 1.497 1_565 S
C1636 C1635 1.380 1_545 S
C1636 C1637 1.383 . S
C1636 C1639 1.603 . S
C1637 C1632 1.377 1_545 S
C1637 C1636 1.383 . S
C1637 H1700 0.929 . S
C1638 C1634 1.527 . S
C1638 H1701 0.961 . S
C1638 H1702 0.959 . S
C1638 H1703 0.959 . S
C1639 C1636 1.603 . S
C1639 H1704 0.960 . S
C1639 H1705 0.962 . S
C1639 H1706 0.961 . S
C1640 C1607 1.587 . S
C1640 C1641 1.360 . S
C1640 C1653 1.412 . S
C1641 C1640 1.360 . S
C1641 C1642 1.365 . S
C1641 H1707 0.929 . S
C1642 C1617 1.553 . S
C1642 C1641 1.365 . S
C1642 C1643 1.404 . S
C1643 C1642 1.404 . S
C1643 C1644 1.395 . S
C1643 C1654 1.451 . S
C1644 C1643 1.395 . S
C1644 C1645 1.322 . S
C1644 H1708 0.930 . S
C1645 C1644 1.322 . S
C1645 C1646 1.459 . S
C1645 H1709 0.929 . S
C1646 C1645 1.459 . S
C1646 C1647 1.445 . S
C1646 C1655 1.395 . S
C1647 C1625 1.432 . S
C1647 C1646 1.445 . S
C1647 C1648 1.370 . S
C1648 C1647 1.370 . S
C1648 C1649 1.438 . S
C1648 H1710 0.930 . S
C1649 C1635 1.497 1_545 S
C1649 C1648 1.438 . S
C1649 C1650 1.360 . S
C1650 C1649 1.360 . S
C1650 C1651 1.401 . S
C1650 C1655 1.446 . S
C1651 C1650 1.401 . S
C1651 C1652 1.347 . S
C1651 H1711 0.935 . S
C1652 C1651 1.347 . S
C1652 C1653 1.455 . S
C1652 H1712 0.930 . S
C1653 C1640 1.412 . S
C1653 C1652 1.455 . S
C1653 C1654 1.331 . S
C1654 C1643 1.451 . S
C1654 C1653 1.331 . S
C1654 C1655 1.497 . S
C1655 C1646 1.395 . S
C1655 C1650 1.446 . S
C1655 C1654 1.497 . S
C1656 C1657 1.582 . S
C1656 H1713 0.962 . S
C1656 H1714 0.959 . S
C1656 H1715 0.958 . S
C1657 C1656 1.582 . S
C1657 O1660 1.458 . S
C1657 H1686 0.983 1_545 S
O1658 C1603 1.426 . S
O1658 C1604 1.334 . S
O1659 C1631 1.412 . S
O1659 C1632 1.393 . S
O1660 C1622 1.435 . S
O1660 C1657 1.458 . S
O1661 C1613 1.468 . S
O1661 C1614 1.408 . S
H1662 C1603 0.980 1_545 S
H1663 C1602 0.959 . S
H1664 C1602 0.959 . S
H1665 C1602 0.960 . S
H1666 C1605 0.929 . S
H1667 C1609 0.929 . S
H1668 C1610 0.959 . S
H1669 C1610 0.961 . S
H1670 C1610 0.961 . S
H1671 C1611 0.960 . S
H1672 C1611 0.960 . S
H1673 C1611 0.961 . S
H1674 C1613 0.980 . S
H1675 C1612 0.961 . S
H1676 C1612 0.960 . S
H1677 C1612 0.959 . S
H1678 C1615 0.945 . S
H1679 C1619 0.931 . S
H1680 C1620 0.959 . S
H1681 C1620 0.961 . S
H1682 C1620 0.959 . S
H1683 C1621 0.960 . S
H1684 C1621 0.960 . S
H1685 C1621 0.960 . S
H1686 C1657 0.983 1_565 S
H1687 C1623 0.930 . S
H1688 C1627 0.930 . S
H1689 C1628 0.961 . S
H1690 C1628 0.960 . S
H1691 C1628 0.958 . S
H1692 C1629 0.961 . S
H1693 C1629 0.960 . S
H1694 C1629 0.960 . S
H1695 C1631 0.980 . S
H1696 C1630 0.961 . S
H1697 C1630 0.961 . S
H1698 C1630 0.959 . S
H1699 C1633 0.932 . S
H1700 C1637 0.929 . S
H1701 C1638 0.961 . S
H1702 C1638 0.959 . S
H1703 C1638 0.959 . S
H1704 C1639 0.960 . S
H1705 C1639 0.962 . S
H1706 C1639 0.961 . S
H1707 C1641 0.929 . S
H1708 C1644 0.930 . S
H1709 C1645 0.929 . S
H1710 C1648 0.930 . S
H1711 C1651 0.935 . S
H1712 C1652 0.930 . S
H1713 C1656 0.962 . S
H1714 C1656 0.959 . S
H1715 C1656 0.958 . S
C1716 C1717 1.563 . S
C1716 H1777 0.959 . S
C1716 H1778 0.959 . S
C1716 H1779 0.960 . S
C1717 C1716 1.563 . S
C1717 O1772 1.431 . S
C1717 H1776 0.979 1_455 S
C1718 C1719 1.407 1_455 S
C1718 C1723 1.418 . S
C1718 O1772 1.334 . S
C1719 C1718 1.407 1_655 S
C1719 C1720 1.360 . S
C1719 H1780 0.929 . S
C1720 C1719 1.360 . S
C1720 C1721 1.401 . S
C1720 C1724 1.527 . S
C1721 C1720 1.401 . S
C1721 C1722 1.405 1_655 S
C1721 C1754 1.587 . S
C1722 C1721 1.405 1_455 S
C1722 C1723 1.332 . S
C1722 C1725 1.496 . S
C1723 C1718 1.418 . S
C1723 C1722 1.332 . S
C1723 H1781 0.929 . S
C1724 C1720 1.527 . S
C1724 H1782 0.959 . S
C1724 H1783 0.961 . S
C1724 H1784 0.961 . S
C1725 C1722 1.496 . S
C1725 H1785 0.960 . S
C1725 H1786 0.960 . S
C1725 H1787 0.961 . S
C1726 C1727 1.517 . S
C1726 H1789 0.961 . S
C1726 H1790 0.960 . S
C1726 H1791 0.959 . S
C1727 C1726 1.517 . S
C1727 O1775 1.468 . S
C1727 H1788 0.980 . S
C1728 C1729 1.349 . S
C1728 C1733 1.367 . S
C1728 O1775 1.408 . S
C1729 C1728 1.349 . S
C1729 C1730 1.407 . S
C1729 H1792 0.861 1_655 S
C1730 C1729 1.407 . S
C1730 C1731 1.449 . S
C1730 C1734 1.535 1_655 S
C1731 C1730 1.449 . S
C1731 C1732 1.384 . S
C1731 C1756 1.553 . S
C1732 C1731 1.384 . S
C1732 C1733 1.364 . S
C1732 C1735 1.450 . S
C1733 C1728 1.367 . S
C1733 C1732 1.364 . S
C1733 H1793 0.931 . S
C1734 C1730 1.535 1_455 S
C1734 H1794 0.959 . S
C1734 H1795 0.961 . S
C1734 H1796 0.959 . S
C1735 C1732 1.450 . S
C1735 H1797 0.960 . S
C1735 H1798 0.960 . S
C1735 H1799 0.960 . S
C1736 C1737 1.309 1_655 S
C1736 C1741 1.304 . S
C1736 O1774 1.435 . S
C1737 C1736 1.309 1_455 S
C1737 C1738 1.476 . S
C1737 H1801 0.930 . S
C1738 C1737 1.476 . S
C1738 C1739 1.400 1_455 S
C1738 C1742 1.567 . S
C1739 C1738 1.400 1_655 S
C1739 C1740 1.373 . S
C1739 C1761 1.432 . S
C1740 C1739 1.373 . S
C1740 C1741 1.339 . S
C1740 C1743 1.530 . S
C1741 C1736 1.304 . S
C1741 C1740 1.339 . S
C1741 H1802 0.930 . S
C1742 C1738 1.567 . S
C1742 H1803 0.961 . S
C1742 H1804 0.960 . S
C1742 H1805 0.958 . S
C1743 C1740 1.530 . S
C1743 H1806 0.961 . S
C1743 H1807 0.960 . S
C1743 H1808 0.960 . S
C1744 C1745 1.530 . S
C1744 H1810 0.961 . S
C1744 H1811 0.961 . S
C1744 H1812 0.959 . S
C1745 C1744 1.530 . S
C1745 O1773 1.412 . S
C1745 H1809 0.980 1_455 S
C1746 C1747 1.288 . S
C1746 C1751 1.377 1_455 S
C1746 O1773 1.393 . S
C1747 C1746 1.288 . S
C1747 C1748 1.369 . S
C1747 H1813 0.932 . S
C1748 C1747 1.369 . S
C1748 C1749 1.398 . S
C1748 C1752 1.527 . S
C1749 C1748 1.398 . S
C1749 C1750 1.380 1_455 S
C1749 C1763 1.497 1_455 S
C1750 C1749 1.380 1_655 S
C1750 C1751 1.383 . S
C1750 C1753 1.603 . S
C1751 C1746 1.377 1_655 S
C1751 C1750 1.383 . S
C1751 H1814 0.929 . S
C1752 C1748 1.527 . S
C1752 H1815 0.961 . S
C1752 H1816 0.959 . S
C1752 H1817 0.959 . S
C1753 C1750 1.603 . S
C1753 H1818 0.960 . S
C1753 H1819 0.962 . S
C1753 H1820 0.961 . S
C1754 C1721 1.587 . S
C1754 C1755 1.360 . S
C1754 C1767 1.412 . S
C1755 C1754 1.360 . S
C1755 C1756 1.365 . S
C1755 H1821 0.929 . S
C1756 C1731 1.553 . S
C1756 C1755 1.365 . S
C1756 C1757 1.404 . S
C1757 C1756 1.404 . S
C1757 C1758 1.395 . S
C1757 C1768 1.451 . S
C1758 C1757 1.395 . S
C1758 C1759 1.322 . S
C1758 H1822 0.930 . S
C1759 C1758 1.322 . S
C1759 C1760 1.459 . S
C1759 H1823 0.929 . S
C1760 C1759 1.459 . S
C1760 C1761 1.445 . S
C1760 C1769 1.395 . S
C1761 C1739 1.432 . S
C1761 C1760 1.445 . S
C1761 C1762 1.370 . S
C1762 C1761 1.370 . S
C1762 C1763 1.438 . S
C1762 H1824 0.930 . S
C1763 C1749 1.497 1_655 S
C1763 C1762 1.438 . S
C1763 C1764 1.360 . S
C1764 C1763 1.360 . S
C1764 C1765 1.401 . S
C1764 C1769 1.446 . S
C1765 C1764 1.401 . S
C1765 C1766 1.347 . S
C1765 H1825 0.929 . S
C1766 C1765 1.347 . S
C1766 C1767 1.455 . S
C1766 H1826 0.930 . S
C1767 C1754 1.412 . S
C1767 C1766 1.455 . S
C1767 C1768 1.331 . S
C1768 C1757 1.451 . S
C1768 C1767 1.331 . S
C1768 C1769 1.497 . S
C1769 C1760 1.395 . S
C1769 C1764 1.446 . S
C1769 C1768 1.497 . S
C1770 C1771 1.582 1_655 S
C1770 H1827 0.962 1_655 S
C1770 H1828 0.959 . S
C1770 H1829 0.958 . S
C1771 C1770 1.582 1_455 S
C1771 O1774 1.458 1_455 S
C1771 H1800 0.980 . S
O1772 C1717 1.431 . S
O1772 C1718 1.334 . S
O1773 C1745 1.412 . S
O1773 C1746 1.393 . S
O1774 C1736 1.435 . S
O1774 C1771 1.458 1_655 S
O1775 C1727 1.468 . S
O1775 C1728 1.408 . S
H1776 C1717 0.979 1_655 S
H1777 C1716 0.959 . S
H1778 C1716 0.959 . S
H1779 C1716 0.960 . S
H1780 C1719 0.929 . S
H1781 C1723 0.929 . S
H1782 C1724 0.959 . S
H1783 C1724 0.961 . S
H1784 C1724 0.961 . S
H1785 C1725 0.960 . S
H1786 C1725 0.960 . S
H1787 C1725 0.961 . S
H1788 C1727 0.980 . S
H1789 C1726 0.961 . S
H1790 C1726 0.960 . S
H1791 C1726 0.959 . S
H1792 C1729 0.861 1_455 S
H1793 C1733 0.931 . S
H1794 C1734 0.959 . S
H1795 C1734 0.961 . S
H1796 C1734 0.959 . S
H1797 C1735 0.960 . S
H1798 C1735 0.960 . S
H1799 C1735 0.960 . S
H1800 C1771 0.980 . S
H1801 C1737 0.930 . S
H1802 C1741 0.930 . S
H1803 C1742 0.961 . S
H1804 C1742 0.960 . S
H1805 C1742 0.958 . S
H1806 C1743 0.961 . S
H1807 C1743 0.960 . S
H1808 C1743 0.960 . S
H1809 C1745 0.980 1_655 S
H1810 C1744 0.961 . S
H1811 C1744 0.961 . S
H1812 C1744 0.959 . S
H1813 C1747 0.932 . S
H1814 C1751 0.929 . S
H1815 C1752 0.961 . S
H1816 C1752 0.959 . S
H1817 C1752 0.959 . S
H1818 C1753 0.960 . S
H1819 C1753 0.962 . S
H1820 C1753 0.961 . S
H1821 C1755 0.929 . S
H1822 C1758 0.930 . S
H1823 C1759 0.929 . S
H1824 C1762 0.930 . S
H1825 C1765 0.929 . S
H1826 C1766 0.930 . S
H1827 C1770 0.962 1_455 S
H1828 C1770 0.959 . S
H1829 C1770 0.958 . S
C1830 C1831 1.560 . S
C1830 H1891 0.959 . S
C1830 H1892 0.959 . S
C1830 H1893 0.960 . S
C1831 C1830 1.560 . S
C1831 O1886 1.426 . S
C1831 H1890 0.980 . S
C1832 C1833 1.407 . S
C1832 C1837 1.418 . S
C1832 O1886 1.334 . S
C1833 C1832 1.407 . S
C1833 C1834 1.360 . S
C1833 H1894 0.929 . S
C1834 C1833 1.360 . S
C1834 C1835 1.401 . S
C1834 C1838 1.527 . S
C1835 C1834 1.401 . S
C1835 C1836 1.405 . S
C1835 C1868 1.587 . S
C1836 C1835 1.405 . S
C1836 C1837 1.332 . S
C1836 C1839 1.496 . S
C1837 C1832 1.418 . S
C1837 C1836 1.332 . S
C1837 H1895 0.929 . S
C1838 C1834 1.527 . S
C1838 H1896 0.959 . S
C1838 H1897 0.961 . S
C1838 H1898 0.961 . S
C1839 C1836 1.496 . S
C1839 H1899 0.960 . S
C1839 H1900 0.960 . S
C1839 H1901 0.961 . S
C1840 C1841 1.517 . S
C1840 H1903 0.961 . S
C1840 H1904 0.960 . S
C1840 H1905 0.959 . S
C1841 C1840 1.517 . S
C1841 O1889 1.468 . S
C1841 H1902 0.980 . S
C1842 C1843 1.349 . S
C1842 C1847 1.367 . S
C1842 O1889 1.408 . S
C1843 C1842 1.349 . S
C1843 C1844 1.407 . S
C1843 H1906 0.930 . S
C1844 C1843 1.407 . S
C1844 C1845 1.449 . S
C1844 C1848 1.535 . S
C1845 C1844 1.449 . S
C1845 C1846 1.384 . S
C1845 C1870 1.553 . S
C1846 C1845 1.384 . S
C1846 C1847 1.364 . S
C1846 C1849 1.450 . S
C1847 C1842 1.367 . S
C1847 C1846 1.364 . S
C1847 H1907 0.931 . S
C1848 C1844 1.535 . S
C1848 H1908 0.959 . S
C1848 H1909 0.961 . S
C1848 H1910 0.959 . S
C1849 C1846 1.450 . S
C1849 H1911 0.960 . S
C1849 H1912 0.960 . S
C1849 H1913 0.960 . S
C1850 C1851 1.309 . S
C1850 C1855 1.304 . S
C1850 O1888 1.435 . S
C1851 C1850 1.309 . S
C1851 C1852 1.476 . S
C1851 H1915 0.930 . S
C1852 C1851 1.476 . S
C1852 C1853 1.400 . S
C1852 C1856 1.567 . S
C1853 C1852 1.400 . S
C1853 C1854 1.373 . S
C1853 C1875 1.432 . S
C1854 C1853 1.373 . S
C1854 C1855 1.339 . S
C1854 C1857 1.530 . S
C1855 C1850 1.304 . S
C1855 C1854 1.339 . S
C1855 H1916 0.930 . S
C1856 C1852 1.567 . S
C1856 H1917 0.961 . S
C1856 H1918 0.960 . S
C1856 H1919 0.958 . S
C1857 C1854 1.530 . S
C1857 H1920 0.961 . S
C1857 H1921 0.960 . S
C1857 H1922 0.960 . S
C1858 C1859 1.530 . S
C1858 H1924 0.961 . S
C1858 H1925 0.961 . S
C1858 H1926 0.959 . S
C1859 C1858 1.530 . S
C1859 O1887 1.412 . S
C1859 H1923 0.980 . S
C1860 C1861 1.288 . S
C1860 C1865 1.377 . S
C1860 O1887 1.393 . S
C1861 C1860 1.288 . S
C1861 C1862 1.369 . S
C1861 H1927 0.932 . S
C1862 C1861 1.369 . S
C1862 C1863 1.398 . S
C1862 C1866 1.527 . S
C1863 C1862 1.398 . S
C1863 C1864 1.380 . S
C1863 C1877 1.497 . S
C1864 C1863 1.380 . S
C1864 C1865 1.383 . S
C1864 C1867 1.603 . S
C1865 C1860 1.377 . S
C1865 C1864 1.383 . S
C1865 H1928 0.929 . S
C1866 C1862 1.527 . S
C1866 H1929 0.961 . S
C1866 H1930 0.959 . S
C1866 H1931 0.959 . S
C1867 C1864 1.603 . S
C1867 H1932 0.960 . S
C1867 H1933 0.962 . S
C1867 H1934 0.961 . S
C1868 C1835 1.587 . S
C1868 C1869 1.360 . S
C1868 C1881 1.412 . S
C1869 C1868 1.360 . S
C1869 C1870 1.365 . S
C1869 H1935 0.929 . S
C1870 C1845 1.553 . S
C1870 C1869 1.365 . S
C1870 C1871 1.404 . S
C1871 C1870 1.404 . S
C1871 C1872 1.395 . S
C1871 C1882 1.451 . S
C1872 C1871 1.395 . S
C1872 C1873 1.322 . S
C1872 H1936 0.930 . S
C1873 C1872 1.322 . S
C1873 C1874 1.459 . S
C1873 H1937 0.929 . S
C1874 C1873 1.459 . S
C1874 C1875 1.445 . S
C1874 C1883 1.395 . S
C1875 C1853 1.432 . S
C1875 C1874 1.445 . S
C1875 C1876 1.370 . S
C1876 C1875 1.370 . S
C1876 C1877 1.438 . S
C1876 H1938 0.930 . S
C1877 C1863 1.497 . S
C1877 C1876 1.438 . S
C1877 C1878 1.360 . S
C1878 C1877 1.360 . S
C1878 C1879 1.401 . S
C1878 C1883 1.446 . S
C1879 C1878 1.401 . S
C1879 C1880 1.347 . S
C1879 H1939 0.929 . S
C1880 C1879 1.347 . S
C1880 C1881 1.455 . S
C1880 H1940 0.930 . S
C1881 C1868 1.412 . S
C1881 C1880 1.455 . S
C1881 C1882 1.331 . S
C1882 C1871 1.451 . S
C1882 C1881 1.331 . S
C1882 C1883 1.497 . S
C1883 C1874 1.395 . S
C1883 C1878 1.446 . S
C1883 C1882 1.497 . S
C1884 C1885 1.582 . S
C1884 H1941 0.962 . S
C1884 H1942 0.959 . S
C1884 H1943 0.958 . S
C1885 C1884 1.582 . S
C1885 O1888 1.458 . S
C1885 H1914 0.980 . S
O1886 C1831 1.426 . S
O1886 C1832 1.334 . S
O1887 C1859 1.412 . S
O1887 C1860 1.393 . S
O1888 C1850 1.435 . S
O1888 C1885 1.458 . S
O1889 C1841 1.468 . S
O1889 C1842 1.408 . S
H1890 C1831 0.980 . S
H1891 C1830 0.959 . S
H1892 C1830 0.959 . S
H1893 C1830 0.960 . S
H1894 C1833 0.929 . S
H1895 C1837 0.929 . S
H1896 C1838 0.959 . S
H1897 C1838 0.961 . S
H1898 C1838 0.961 . S
H1899 C1839 0.960 . S
H1900 C1839 0.960 . S
H1901 C1839 0.961 . S
H1902 C1841 0.980 . S
H1903 C1840 0.961 . S
H1904 C1840 0.960 . S
H1905 C1840 0.959 . S
H1906 C1843 0.930 . S
H1907 C1847 0.931 . S
H1908 C1848 0.959 . S
H1909 C1848 0.961 . S
H1910 C1848 0.959 . S
H1911 C1849 0.960 . S
H1912 C1849 0.960 . S
H1913 C1849 0.960 . S
H1914 C1885 0.980 . S
H1915 C1851 0.930 . S
H1916 C1855 0.930 . S
H1917 C1856 0.961 . S
H1918 C1856 0.960 . S
H1919 C1856 0.958 . S
H1920 C1857 0.961 . S
H1921 C1857 0.960 . S
H1922 C1857 0.960 . S
H1923 C1859 0.980 . S
H1924 C1858 0.961 . S
H1925 C1858 0.961 . S
H1926 C1858 0.959 . S
H1927 C1861 0.932 . S
H1928 C1865 0.929 . S
H1929 C1866 0.961 . S
H1930 C1866 0.959 . S
H1931 C1866 0.959 . S
H1932 C1867 0.960 . S
H1933 C1867 0.962 . S
H1934 C1867 0.961 . S
H1935 C1869 0.929 . S
H1936 C1872 0.930 . S
H1937 C1873 0.929 . S
H1938 C1876 0.930 . S
H1939 C1879 0.929 . S
H1940 C1880 0.930 . S
H1941 C1884 0.962 . S
H1942 C1884 0.959 . S
H1943 C1884 0.958 . S
C1944 C1945 1.560 . S
C1944 H2005 0.959 . S
C1944 H2006 0.959 . S
C1944 H2007 0.960 . S
C1945 C1944 1.560 . S
C1945 O2000 1.426 . S
C1945 H2004 0.980 . S
C1946 C1947 1.407 . S
C1946 C1951 1.418 . S
C1946 O2000 1.334 . S
C1947 C1946 1.407 . S
C1947 C1948 1.360 . S
C1947 H2008 0.929 . S
C1948 C1947 1.360 . S
C1948 C1949 1.401 . S
C1948 C1952 1.527 . S
C1949 C1948 1.401 . S
C1949 C1950 1.405 . S
C1949 C1982 1.587 . S
C1950 C1949 1.405 . S
C1950 C1951 1.332 . S
C1950 C1953 1.496 . S
C1951 C1946 1.418 . S
C1951 C1950 1.332 . S
C1951 H2009 0.929 . S
C1952 C1948 1.527 . S
C1952 H2010 0.959 . S
C1952 H2011 0.961 . S
C1952 H2012 0.961 . S
C1953 C1950 1.496 . S
C1953 H2013 0.960 . S
C1953 H2014 0.960 . S
C1953 H2015 0.961 . S
C1954 C1955 1.517 . S
C1954 H2017 0.961 . S
C1954 H2018 0.960 . S
C1954 H2019 0.959 . S
C1955 C1954 1.517 . S
C1955 O2003 1.468 . S
C1955 H2016 0.980 . S
C1956 C1957 1.349 . S
C1956 C1961 1.367 . S
C1956 O2003 1.408 . S
C1957 C1956 1.349 . S
C1957 C1958 1.407 . S
C1957 H2020 0.930 . S
C1958 C1957 1.407 . S
C1958 C1959 1.449 . S
C1958 C1962 1.535 . S
C1959 C1958 1.449 . S
C1959 C1960 1.384 . S
C1959 C1984 1.553 . S
C1960 C1959 1.384 . S
C1960 C1961 1.364 . S
C1960 C1963 1.450 . S
C1961 C1956 1.367 . S
C1961 C1960 1.364 . S
C1961 H2021 0.931 . S
C1962 C1958 1.535 . S
C1962 H2022 0.959 . S
C1962 H2023 0.961 . S
C1962 H2024 0.959 . S
C1963 C1960 1.450 . S
C1963 H2025 0.960 . S
C1963 H2026 0.960 . S
C1963 H2027 0.960 . S
C1964 C1965 1.309 . S
C1964 C1969 1.304 . S
C1964 O2002 1.435 . S
C1965 C1964 1.309 . S
C1965 C1966 1.476 . S
C1965 H2029 0.930 . S
C1966 C1965 1.476 . S
C1966 C1967 1.400 . S
C1966 C1970 1.567 . S
C1967 C1966 1.400 . S
C1967 C1968 1.373 . S
C1967 C1989 1.432 . S
C1968 C1967 1.373 . S
C1968 C1969 1.339 . S
C1968 C1971 1.530 . S
C1969 C1964 1.304 . S
C1969 C1968 1.339 . S
C1969 H2030 0.930 . S
C1970 C1966 1.567 . S
C1970 H2031 0.961 . S
C1970 H2032 0.960 . S
C1970 H2033 0.958 . S
C1971 C1968 1.530 . S
C1971 H2034 0.961 . S
C1971 H2035 0.960 . S
C1971 H2036 0.960 . S
C1972 C1973 1.530 . S
C1972 H2038 0.961 . S
C1972 H2039 0.961 . S
C1972 H2040 0.959 . S
C1973 C1972 1.530 . S
C1973 O2001 1.412 . S
C1973 H2037 0.980 . S
C1974 C1975 1.288 . S
C1974 C1979 1.377 . S
C1974 O2001 1.393 . S
C1975 C1974 1.288 . S
C1975 C1976 1.369 . S
C1975 H2041 0.932 . S
C1976 C1975 1.369 . S
C1976 C1977 1.398 . S
C1976 C1980 1.527 . S
C1977 C1976 1.398 . S
C1977 C1978 1.380 . S
C1977 C1991 1.497 . S
C1978 C1977 1.380 . S
C1978 C1979 1.383 . S
C1978 C1981 1.603 . S
C1979 C1974 1.377 . S
C1979 C1978 1.383 . S
C1979 H2042 0.929 . S
C1980 C1976 1.527 . S
C1980 H2043 0.961 . S
C1980 H2044 0.959 . S
C1980 H2045 0.959 . S
C1981 C1978 1.603 . S
C1981 H2046 0.960 . S
C1981 H2047 0.962 . S
C1981 H2048 0.961 . S
C1982 C1949 1.587 . S
C1982 C1983 1.360 . S
C1982 C1995 1.412 . S
C1983 C1982 1.360 . S
C1983 C1984 1.365 . S
C1983 H2049 0.929 . S
C1984 C1959 1.553 . S
C1984 C1983 1.365 . S
C1984 C1985 1.404 . S
C1985 C1984 1.404 . S
C1985 C1986 1.395 . S
C1985 C1996 1.451 . S
C1986 C1985 1.395 . S
C1986 C1987 1.322 . S
C1986 H2050 0.930 . S
C1987 C1986 1.322 . S
C1987 C1988 1.459 . S
C1987 H2051 0.929 . S
C1988 C1987 1.459 . S
C1988 C1989 1.445 . S
C1988 C1997 1.395 . S
C1989 C1967 1.432 . S
C1989 C1988 1.445 . S
C1989 C1990 1.370 . S
C1990 C1989 1.370 . S
C1990 C1991 1.438 . S
C1990 H2052 0.930 . S
C1991 C1977 1.497 . S
C1991 C1990 1.438 . S
C1991 C1992 1.360 . S
C1992 C1991 1.360 . S
C1992 C1993 1.401 . S
C1992 C1997 1.446 . S
C1993 C1992 1.401 . S
C1993 C1994 1.347 . S
C1993 H2053 0.929 . S
C1994 C1993 1.347 . S
C1994 C1995 1.455 . S
C1994 H2054 0.930 . S
C1995 C1982 1.412 . S
C1995 C1994 1.455 . S
C1995 C1996 1.331 . S
C1996 C1985 1.451 . S
C1996 C1995 1.331 . S
C1996 C1997 1.497 . S
C1997 C1988 1.395 . S
C1997 C1992 1.446 . S
C1997 C1996 1.497 . S
C1998 C1999 1.582 . S
C1998 H2055 0.962 . S
C1998 H2056 0.959 . S
C1998 H2057 0.958 . S
C1999 C1998 1.582 . S
C1999 O2002 1.458 . S
C1999 H2028 0.980 . S
O2000 C1945 1.426 . S
O2000 C1946 1.334 . S
O2001 C1973 1.412 . S
O2001 C1974 1.393 . S
O2002 C1964 1.435 . S
O2002 C1999 1.458 . S
O2003 C1955 1.468 . S
O2003 C1956 1.408 . S
H2004 C1945 0.980 . S
H2005 C1944 0.959 . S
H2006 C1944 0.959 . S
H2007 C1944 0.960 . S
H2008 C1947 0.929 . S
H2009 C1951 0.929 . S
H2010 C1952 0.959 . S
H2011 C1952 0.961 . S
H2012 C1952 0.961 . S
H2013 C1953 0.960 . S
H2014 C1953 0.960 . S
H2015 C1953 0.961 . S
H2016 C1955 0.980 . S
H2017 C1954 0.961 . S
H2018 C1954 0.960 . S
H2019 C1954 0.959 . S
H2020 C1957 0.930 . S
H2021 C1961 0.931 . S
H2022 C1962 0.959 . S
H2023 C1962 0.961 . S
H2024 C1962 0.959 . S
H2025 C1963 0.960 . S
H2026 C1963 0.960 . S
H2027 C1963 0.960 . S
H2028 C1999 0.980 . S
H2029 C1965 0.930 . S
H2030 C1969 0.930 . S
H2031 C1970 0.961 . S
H2032 C1970 0.960 . S
H2033 C1970 0.958 . S
H2034 C1971 0.961 . S
H2035 C1971 0.960 . S
H2036 C1971 0.960 . S
H2037 C1973 0.980 . S
H2038 C1972 0.961 . S
H2039 C1972 0.961 . S
H2040 C1972 0.959 . S
H2041 C1975 0.932 . S
H2042 C1979 0.929 . S
H2043 C1980 0.961 . S
H2044 C1980 0.959 . S
H2045 C1980 0.959 . S
H2046 C1981 0.960 . S
H2047 C1981 0.962 . S
H2048 C1981 0.961 . S
H2049 C1983 0.929 . S
H2050 C1986 0.930 . S
H2051 C1987 0.929 . S
H2052 C1990 0.930 . S
H2053 C1993 0.929 . S
H2054 C1994 0.930 . S
H2055 C1998 0.962 . S
H2056 C1998 0.959 . S
H2057 C1998 0.958 . S
C2058 C2059 1.560 . S
C2058 H2119 0.959 . S
C2058 H2120 0.959 . S
C2058 H2121 0.960 . S
C2059 C2058 1.560 . S
C2059 O2114 1.426 . S
C2059 H2118 0.980 . S
C2060 C2061 1.407 . S
C2060 C2065 1.418 . S
C2060 O2114 1.334 . S
C2061 C2060 1.407 . S
C2061 C2062 1.360 . S
C2061 H2122 0.929 . S
C2062 C2061 1.360 . S
C2062 C2063 1.401 . S
C2062 C2066 1.527 . S
C2063 C2062 1.401 . S
C2063 C2064 1.405 . S
C2063 C2096 1.587 . S
C2064 C2063 1.405 . S
C2064 C2065 1.332 . S
C2064 C2067 1.496 . S
C2065 C2060 1.418 . S
C2065 C2064 1.332 . S
C2065 H2123 0.929 . S
C2066 C2062 1.527 . S
C2066 H2124 0.959 . S
C2066 H2125 0.961 . S
C2066 H2126 0.961 . S
C2067 C2064 1.496 . S
C2067 H2127 0.960 . S
C2067 H2128 0.960 . S
C2067 H2129 0.961 . S
C2068 C2069 1.517 . S
C2068 H2131 0.961 . S
C2068 H2132 0.960 . S
C2068 H2133 0.959 . S
C2069 C2068 1.517 . S
C2069 O2117 1.468 . S
C2069 H2130 0.980 . S
C2070 C2071 1.349 . S
C2070 C2075 1.367 . S
C2070 O2117 1.408 . S
C2071 C2070 1.349 . S
C2071 C2072 1.407 . S
C2071 H2134 0.930 . S
C2072 C2071 1.407 . S
C2072 C2073 1.449 . S
C2072 C2076 1.535 . S
C2073 C2072 1.449 . S
C2073 C2074 1.384 . S
C2073 C2098 1.553 . S
C2074 C2073 1.384 . S
C2074 C2075 1.364 . S
C2074 C2077 1.450 . S
C2075 C2070 1.367 . S
C2075 C2074 1.364 . S
C2075 H2135 0.931 . S
C2076 C2072 1.535 . S
C2076 H2136 0.959 . S
C2076 H2137 0.961 . S
C2076 H2138 0.959 . S
C2077 C2074 1.450 . S
C2077 H2139 0.960 . S
C2077 H2140 0.960 . S
C2077 H2141 0.960 . S
C2078 C2079 1.309 . S
C2078 C2083 1.304 . S
C2078 O2116 1.435 . S
C2079 C2078 1.309 . S
C2079 C2080 1.476 . S
C2079 H2143 0.930 . S
C2080 C2079 1.476 . S
C2080 C2081 1.400 . S
C2080 C2084 1.567 . S
C2081 C2080 1.400 . S
C2081 C2082 1.373 . S
C2081 C2103 1.432 . S
C2082 C2081 1.373 . S
C2082 C2083 1.339 . S
C2082 C2085 1.530 . S
C2083 C2078 1.304 . S
C2083 C2082 1.339 . S
C2083 H2144 0.930 . S
C2084 C2080 1.567 . S
C2084 H2145 0.961 . S
C2084 H2146 0.960 . S
C2084 H2147 0.958 . S
C2085 C2082 1.530 . S
C2085 H2148 0.961 . S
C2085 H2149 0.960 . S
C2085 H2150 0.960 . S
C2086 C2087 1.530 . S
C2086 H2152 0.961 . S
C2086 H2153 0.961 . S
C2086 H2154 0.959 . S
C2087 C2086 1.530 . S
C2087 O2115 1.412 . S
C2087 H2151 0.980 . S
C2088 C2089 1.288 . S
C2088 C2093 1.377 . S
C2088 O2115 1.393 . S
C2089 C2088 1.288 . S
C2089 C2090 1.369 . S
C2089 H2155 0.932 . S
C2090 C2089 1.369 . S
C2090 C2091 1.398 . S
C2090 C2094 1.527 . S
C2091 C2090 1.398 . S
C2091 C2092 1.380 . S
C2091 C2105 1.497 . S
C2092 C2091 1.380 . S
C2092 C2093 1.383 . S
C2092 C2095 1.603 . S
C2093 C2088 1.377 . S
C2093 C2092 1.383 . S
C2093 H2156 0.929 . S
C2094 C2090 1.527 . S
C2094 H2157 0.961 . S
C2094 H2158 0.959 . S
C2094 H2159 0.959 . S
C2095 C2092 1.603 . S
C2095 H2160 0.960 . S
C2095 H2161 0.962 . S
C2095 H2162 0.961 . S
C2096 C2063 1.587 . S
C2096 C2097 1.360 . S
C2096 C2109 1.412 . S
C2097 C2096 1.360 . S
C2097 C2098 1.365 . S
C2097 H2163 0.929 . S
C2098 C2073 1.553 . S
C2098 C2097 1.365 . S
C2098 C2099 1.404 . S
C2099 C2098 1.404 . S
C2099 C2100 1.395 . S
C2099 C2110 1.451 . S
C2100 C2099 1.395 . S
C2100 C2101 1.322 . S
C2100 H2164 0.930 . S
C2101 C2100 1.322 . S
C2101 C2102 1.459 . S
C2101 H2165 0.929 . S
C2102 C2101 1.459 . S
C2102 C2103 1.445 . S
C2102 C2111 1.395 . S
C2103 C2081 1.432 . S
C2103 C2102 1.445 . S
C2103 C2104 1.370 . S
C2104 C2103 1.370 . S
C2104 C2105 1.438 . S
C2104 H2166 0.930 . S
C2105 C2091 1.497 . S
C2105 C2104 1.438 . S
C2105 C2106 1.360 . S
C2106 C2105 1.360 . S
C2106 C2107 1.401 . S
C2106 C2111 1.446 . S
C2107 C2106 1.401 . S
C2107 C2108 1.347 . S
C2107 H2167 0.929 . S
C2108 C2107 1.347 . S
C2108 C2109 1.455 . S
C2108 H2168 0.930 . S
C2109 C2096 1.412 . S
C2109 C2108 1.455 . S
C2109 C2110 1.331 . S
C2110 C2099 1.451 . S
C2110 C2109 1.331 . S
C2110 C2111 1.497 . S
C2111 C2102 1.395 . S
C2111 C2106 1.446 . S
C2111 C2110 1.497 . S
C2112 C2113 1.582 . S
C2112 H2169 0.962 . S
C2112 H2170 0.959 . S
C2112 H2171 0.958 . S
C2113 C2112 1.582 . S
C2113 O2116 1.458 . S
C2113 H2142 0.980 . S
O2114 C2059 1.426 . S
O2114 C2060 1.334 . S
O2115 C2087 1.412 . S
O2115 C2088 1.393 . S
O2116 C2078 1.435 . S
O2116 C2113 1.458 . S
O2117 C2069 1.468 . S
O2117 C2070 1.408 . S
H2118 C2059 0.980 . S
H2119 C2058 0.959 . S
H2120 C2058 0.959 . S
H2121 C2058 0.960 . S
H2122 C2061 0.929 . S
H2123 C2065 0.929 . S
H2124 C2066 0.959 . S
H2125 C2066 0.961 . S
H2126 C2066 0.961 . S
H2127 C2067 0.960 . S
H2128 C2067 0.960 . S
H2129 C2067 0.961 . S
H2130 C2069 0.980 . S
H2131 C2068 0.961 . S
H2132 C2068 0.960 . S
H2133 C2068 0.959 . S
H2134 C2071 0.930 . S
H2135 C2075 0.931 . S
H2136 C2076 0.959 . S
H2137 C2076 0.961 . S
H2138 C2076 0.959 . S
H2139 C2077 0.960 . S
H2140 C2077 0.960 . S
H2141 C2077 0.960 . S
H2142 C2113 0.980 . S
H2143 C2079 0.930 . S
H2144 C2083 0.930 . S
H2145 C2084 0.961 . S
H2146 C2084 0.960 . S
H2147 C2084 0.958 . S
H2148 C2085 0.961 . S
H2149 C2085 0.960 . S
H2150 C2085 0.960 . S
H2151 C2087 0.980 . S
H2152 C2086 0.961 . S
H2153 C2086 0.961 . S
H2154 C2086 0.959 . S
H2155 C2089 0.932 . S
H2156 C2093 0.929 . S
H2157 C2094 0.961 . S
H2158 C2094 0.959 . S
H2159 C2094 0.959 . S
H2160 C2095 0.960 . S
H2161 C2095 0.962 . S
H2162 C2095 0.961 . S
H2163 C2097 0.929 . S
H2164 C2100 0.930 . S
H2165 C2101 0.929 . S
H2166 C2104 0.930 . S
H2167 C2107 0.929 . S
H2168 C2108 0.930 . S
H2169 C2112 0.962 . S
H2170 C2112 0.959 . S
H2171 C2112 0.958 . S
C2172 C2173 1.560 . S
C2172 H2233 0.959 . S
C2172 H2234 0.959 . S
C2172 H2235 0.960 . S
C2173 C2172 1.560 . S
C2173 O2228 1.426 . S
C2173 H2232 0.980 . S
C2174 C2175 1.407 . S
C2174 C2179 1.418 . S
C2174 O2228 1.334 . S
C2175 C2174 1.407 . S
C2175 C2176 1.360 . S
C2175 H2236 0.929 . S
C2176 C2175 1.360 . S
C2176 C2177 1.401 . S
C2176 C2180 1.527 . S
C2177 C2176 1.401 . S
C2177 C2178 1.405 . S
C2177 C2210 1.587 . S
C2178 C2177 1.405 . S
C2178 C2179 1.332 . S
C2178 C2181 1.496 . S
C2179 C2174 1.418 . S
C2179 C2178 1.332 . S
C2179 H2237 0.929 . S
C2180 C2176 1.527 . S
C2180 H2238 0.959 . S
C2180 H2239 0.961 . S
C2180 H2240 0.961 . S
C2181 C2178 1.496 . S
C2181 H2241 0.960 . S
C2181 H2242 0.960 . S
C2181 H2243 0.961 . S
C2182 C2183 1.517 . S
C2182 H2245 0.961 . S
C2182 H2246 0.960 . S
C2182 H2247 0.959 . S
C2183 C2182 1.517 . S
C2183 O2231 1.468 . S
C2183 H2244 0.980 . S
C2184 C2185 1.349 . S
C2184 C2189 1.367 . S
C2184 O2231 1.408 . S
C2185 C2184 1.349 . S
C2185 C2186 1.407 . S
C2185 H2248 0.930 . S
C2186 C2185 1.407 . S
C2186 C2187 1.449 . S
C2186 C2190 1.535 . S
C2187 C2186 1.449 . S
C2187 C2188 1.384 . S
C2187 C2212 1.553 . S
C2188 C2187 1.384 . S
C2188 C2189 1.364 . S
C2188 C2191 1.450 . S
C2189 C2184 1.367 . S
C2189 C2188 1.364 . S
C2189 H2249 0.931 . S
C2190 C2186 1.535 . S
C2190 H2250 0.959 . S
C2190 H2251 0.961 . S
C2190 H2252 0.959 . S
C2191 C2188 1.450 . S
C2191 H2253 0.960 . S
C2191 H2254 0.960 . S
C2191 H2255 0.960 . S
C2192 C2193 1.309 . S
C2192 C2197 1.304 . S
C2192 O2230 1.435 . S
C2193 C2192 1.309 . S
C2193 C2194 1.476 . S
C2193 H2257 0.930 . S
C2194 C2193 1.476 . S
C2194 C2195 1.400 . S
C2194 C2198 1.567 . S
C2195 C2194 1.400 . S
C2195 C2196 1.373 . S
C2195 C2217 1.432 . S
C2196 C2195 1.373 . S
C2196 C2197 1.339 . S
C2196 C2199 1.530 . S
C2197 C2192 1.304 . S
C2197 C2196 1.339 . S
C2197 H2258 0.930 . S
C2198 C2194 1.567 . S
C2198 H2259 0.961 . S
C2198 H2260 0.960 . S
C2198 H2261 0.958 . S
C2199 C2196 1.530 . S
C2199 H2262 0.961 . S
C2199 H2263 0.960 . S
C2199 H2264 0.960 . S
C2200 C2201 1.530 . S
C2200 H2266 0.961 . S
C2200 H2267 0.961 . S
C2200 H2268 0.959 . S
C2201 C2200 1.530 . S
C2201 O2229 1.412 . S
C2201 H2265 0.980 . S
C2202 C2203 1.288 . S
C2202 C2207 1.377 . S
C2202 O2229 1.393 . S
C2203 C2202 1.288 . S
C2203 C2204 1.369 . S
C2203 H2269 0.932 . S
C2204 C2203 1.369 . S
C2204 C2205 1.398 . S
C2204 C2208 1.527 . S
C2205 C2204 1.398 . S
C2205 C2206 1.380 . S
C2205 C2219 1.497 . S
C2206 C2205 1.380 . S
C2206 C2207 1.383 . S
C2206 C2209 1.603 . S
C2207 C2202 1.377 . S
C2207 C2206 1.383 . S
C2207 H2270 0.929 . S
C2208 C2204 1.527 . S
C2208 H2271 0.961 . S
C2208 H2272 0.959 . S
C2208 H2273 0.959 . S
C2209 C2206 1.603 . S
C2209 H2274 0.960 . S
C2209 H2275 0.962 . S
C2209 H2276 0.961 . S
C2210 C2177 1.587 . S
C2210 C2211 1.360 . S
C2210 C2223 1.412 . S
C2211 C2210 1.360 . S
C2211 C2212 1.365 . S
C2211 H2277 0.929 . S
C2212 C2187 1.553 . S
C2212 C2211 1.365 . S
C2212 C2213 1.404 . S
C2213 C2212 1.404 . S
C2213 C2214 1.395 . S
C2213 C2224 1.451 . S
C2214 C2213 1.395 . S
C2214 C2215 1.322 . S
C2214 H2278 0.930 . S
C2215 C2214 1.322 . S
C2215 C2216 1.459 . S
C2215 H2279 0.929 . S
C2216 C2215 1.459 . S
C2216 C2217 1.445 . S
C2216 C2225 1.395 . S
C2217 C2195 1.432 . S
C2217 C2216 1.445 . S
C2217 C2218 1.370 . S
C2218 C2217 1.370 . S
C2218 C2219 1.438 . S
C2218 H2280 0.930 . S
C2219 C2205 1.497 . S
C2219 C2218 1.438 . S
C2219 C2220 1.360 . S
C2220 C2219 1.360 . S
C2220 C2221 1.401 . S
C2220 C2225 1.446 . S
C2221 C2220 1.401 . S
C2221 C2222 1.347 . S
C2221 H2281 0.929 . S
C2222 C2221 1.347 . S
C2222 C2223 1.455 . S
C2222 H2282 0.930 . S
C2223 C2210 1.412 . S
C2223 C2222 1.455 . S
C2223 C2224 1.331 . S
C2224 C2213 1.451 . S
C2224 C2223 1.331 . S
C2224 C2225 1.497 . S
C2225 C2216 1.395 . S
C2225 C2220 1.446 . S
C2225 C2224 1.497 . S
C2226 C2227 1.582 . S
C2226 H2283 0.962 . S
C2226 H2284 0.959 . S
C2226 H2285 0.958 . S
C2227 C2226 1.582 . S
C2227 O2230 1.458 . S
C2227 H2256 0.980 . S
O2228 C2173 1.426 . S
O2228 C2174 1.334 . S
O2229 C2201 1.412 . S
O2229 C2202 1.393 . S
O2230 C2192 1.435 . S
O2230 C2227 1.458 . S
O2231 C2183 1.468 . S
O2231 C2184 1.408 . S
H2232 C2173 0.980 . S
H2233 C2172 0.959 . S
H2234 C2172 0.959 . S
H2235 C2172 0.960 . S
H2236 C2175 0.929 . S
H2237 C2179 0.929 . S
H2238 C2180 0.959 . S
H2239 C2180 0.961 . S
H2240 C2180 0.961 . S
H2241 C2181 0.960 . S
H2242 C2181 0.960 . S
H2243 C2181 0.961 . S
H2244 C2183 0.980 . S
H2245 C2182 0.961 . S
H2246 C2182 0.960 . S
H2247 C2182 0.959 . S
H2248 C2185 0.930 . S
H2249 C2189 0.931 . S
H2250 C2190 0.959 . S
H2251 C2190 0.961 . S
H2252 C2190 0.959 . S
H2253 C2191 0.960 . S
H2254 C2191 0.960 . S
H2255 C2191 0.960 . S
H2256 C2227 0.980 . S
H2257 C2193 0.930 . S
H2258 C2197 0.930 . S
H2259 C2198 0.961 . S
H2260 C2198 0.960 . S
H2261 C2198 0.958 . S
H2262 C2199 0.961 . S
H2263 C2199 0.960 . S
H2264 C2199 0.960 . S
H2265 C2201 0.980 . S
H2266 C2200 0.961 . S
H2267 C2200 0.961 . S
H2268 C2200 0.959 . S
H2269 C2203 0.932 . S
H2270 C2207 0.929 . S
H2271 C2208 0.961 . S
H2272 C2208 0.959 . S
H2273 C2208 0.959 . S
H2274 C2209 0.960 . S
H2275 C2209 0.962 . S
H2276 C2209 0.961 . S
H2277 C2211 0.929 . S
H2278 C2214 0.930 . S
H2279 C2215 0.929 . S
H2280 C2218 0.930 . S
H2281 C2221 0.929 . S
H2282 C2222 0.930 . S
H2283 C2226 0.962 . S
H2284 C2226 0.959 . S
H2285 C2226 0.958 . S
C2286 C2287 1.391 . S
C2286 C2288 1.394 . S
C2286 H2302 0.931 . S
C2287 C2286 1.391 . S
C2287 C2291 1.376 1_655 S
C2288 C2286 1.394 . S
C2288 C2289 1.369 . S
C2288 C2292 1.531 . S
C2289 C2288 1.369 . S
C2289 C2290 1.410 1_655 S
C2289 C2297 1.503 . S
C2290 C2289 1.410 1_455 S
C2290 C2291 1.392 . S
C2290 C2293 1.511 . S
C2291 C2287 1.376 1_455 S
C2291 C2290 1.392 . S
C2291 H2303 0.929 . S
C2292 C2288 1.531 . S
C2292 H2304 0.960 . S
C2292 H2305 0.962 . S
C2292 H2306 0.960 . S
C2293 C2290 1.511 . S
C2293 H2307 0.961 . S
C2293 H2308 0.961 . S
C2293 H2309 0.961 . S
C2294 C2295 1.370 . S
C2294 C2296 1.363 . S
C2294 H2310 0.931 . S
C2295 C2294 1.370 . S
C2295 C2299 1.408 . S
C2296 C2294 1.363 . S
C2296 C2297 1.370 . S
C2296 C2300 1.524 . S
C2297 C2289 1.503 . S
C2297 C2296 1.370 . S
C2297 C2298 1.403 . S
C2298 C2297 1.403 . S
C2298 C2299 1.404 . S
C2298 C2301 1.539 1_655 S
C2299 C2295 1.408 . S
C2299 C2298 1.404 . S
C2299 H2311 0.930 . S
C2300 C2296 1.524 . S
C2300 H2312 0.956 . S
C2300 H2313 0.964 . S
C2300 H2314 0.961 . S
C2301 C2298 1.539 1_455 S
C2301 H2315 0.958 1_455 S
C2301 H2316 0.962 . S
C2301 H2317 0.960 . S
H2302 C2286 0.931 . S
H2303 C2291 0.929 . S
H2304 C2292 0.960 . S
H2305 C2292 0.962 . S
H2306 C2292 0.960 . S
H2307 C2293 0.961 . S
H2308 C2293 0.961 . S
H2309 C2293 0.961 . S
H2310 C2294 0.931 . S
H2311 C2299 0.930 . S
H2312 C2300 0.956 . S
H2313 C2300 0.964 . S
H2314 C2300 0.961 . S
H2315 C2301 0.958 1_655 S
H2316 C2301 0.962 . S
H2317 C2301 0.960 . S
C2318 C2319 1.391 . S
C2318 C2320 1.394 . S
C2318 H2334 0.931 . S
C2319 C2318 1.391 . S
C2319 C2323 1.376 . S
C2320 C2318 1.394 . S
C2320 C2321 1.369 . S
C2320 C2324 1.531 . S
C2321 C2320 1.369 . S
C2321 C2322 1.410 . S
C2321 C2329 1.503 . S
C2322 C2321 1.410 . S
C2322 C2323 1.392 . S
C2322 C2325 1.511 . S
C2323 C2319 1.376 . S
C2323 C2322 1.392 . S
C2323 H2335 0.929 . S
C2324 C2320 1.531 . S
C2324 H2336 0.960 . S
C2324 H2337 0.962 . S
C2324 H2338 0.960 . S
C2325 C2322 1.511 . S
C2325 H2339 0.961 . S
C2325 H2340 0.961 . S
C2325 H2341 0.961 . S
C2326 C2327 1.370 . S
C2326 C2328 1.363 . S
C2326 H2342 0.931 . S
C2327 C2326 1.370 . S
C2327 C2331 1.408 . S
C2328 C2326 1.363 . S
C2328 C2329 1.370 . S
C2328 C2332 1.524 . S
C2329 C2321 1.503 . S
C2329 C2328 1.370 . S
C2329 C2330 1.403 . S
C2330 C2329 1.403 . S
C2330 C2331 1.404 . S
C2330 C2333 1.539 . S
C2331 C2327 1.408 . S
C2331 C2330 1.404 . S
C2331 H2343 0.930 . S
C2332 C2328 1.524 . S
C2332 H2344 0.956 . S
C2332 H2345 0.961 . S
C2332 H2346 0.961 . S
C2333 C2330 1.539 . S
C2333 H2347 0.958 . S
C2333 H2348 0.961 . S
C2333 H2349 0.960 . S
H2334 C2318 0.931 . S
H2335 C2323 0.929 . S
H2336 C2324 0.960 . S
H2337 C2324 0.962 . S
H2338 C2324 0.960 . S
H2339 C2325 0.961 . S
H2340 C2325 0.961 . S
H2341 C2325 0.961 . S
H2342 C2326 0.931 . S
H2343 C2331 0.930 . S
H2344 C2332 0.956 . S
H2345 C2332 0.961 . S
H2346 C2332 0.961 . S
H2347 C2333 0.958 . S
H2348 C2333 0.961 . S
H2349 C2333 0.960 . S
C2350 C2351 1.391 . S
C2350 C2352 1.394 . S
C2350 H2366 0.931 . S
C2351 C2350 1.391 . S
C2351 C2355 1.376 . S
C2352 C2350 1.394 . S
C2352 C2353 1.369 . S
C2352 C2356 1.531 . S
C2353 C2352 1.369 . S
C2353 C2354 1.410 . S
C2353 C2361 1.503 . S
C2354 C2353 1.410 . S
C2354 C2355 1.392 . S
C2354 C2357 1.511 . S
C2355 C2351 1.376 . S
C2355 C2354 1.392 . S
C2355 H2367 0.929 . S
C2356 C2352 1.531 . S
C2356 H2368 0.960 . S
C2356 H2369 0.962 1_545 S
C2356 H2370 0.960 . S
C2357 C2354 1.511 . S
C2357 H2371 0.961 . S
C2357 H2372 0.961 . S
C2357 H2373 0.961 . S
C2358 C2359 1.369 1_565 S
C2358 C2360 1.361 1_565 S
C2358 H2374 0.934 . S
C2359 C2358 1.369 1_545 S
C2359 C2363 1.408 . S
C2360 C2358 1.361 1_545 S
C2360 C2361 1.370 . S
C2360 C2364 1.524 1_545 S
C2361 C2353 1.503 . S
C2361 C2360 1.370 . S
C2361 C2362 1.403 . S
C2362 C2361 1.403 . S
C2362 C2363 1.404 . S
C2362 C2365 1.539 . S
C2363 C2359 1.408 . S
C2363 C2362 1.404 . S
C2363 H2375 0.930 . S
C2364 C2360 1.524 1_565 S
C2364 H2376 0.956 . S
C2364 H2377 0.961 . S
C2364 H2378 0.961 . S
C2365 C2362 1.539 . S
C2365 H2379 0.958 . S
C2365 H2380 0.961 . S
C2365 H2381 0.960 . S
H2366 C2350 0.931 . S
H2367 C2355 0.929 . S
H2368 C2356 0.960 . S
H2369 C2356 0.962 1_565 S
H2370 C2356 0.960 . S
H2371 C2357 0.961 . S
H2372 C2357 0.961 . S
H2373 C2357 0.961 . S
H2374 C2358 0.934 . S
H2375 C2363 0.930 . S
H2376 C2364 0.956 . S
H2377 C2364 0.961 . S
H2378 C2364 0.961 . S
H2379 C2365 0.958 . S
H2380 C2365 0.961 . S
H2381 C2365 0.960 . S
C2382 C2383 1.393 . S
C2382 C2384 1.394 . S
C2382 H2398 0.931 . S
C2383 C2382 1.393 . S
C2383 C2387 1.384 1_565 S
C2384 C2382 1.394 . S
C2384 C2385 1.378 1_565 S
C2384 C2388 1.531 . S
C2385 C2384 1.378 1_545 S
C2385 C2386 1.413 . S
C2385 C2393 1.490 1_545 S
C2386 C2385 1.413 . S
C2386 C2387 1.392 . S
C2386 C2389 1.511 . S
C2387 C2383 1.384 1_545 S
C2387 C2386 1.392 . S
C2387 H2399 0.929 . S
C2388 C2384 1.531 . S
C2388 H2400 0.960 . S
C2388 H2401 0.962 . S
C2388 H2402 0.960 . S
C2389 C2386 1.511 . S
C2389 H2403 0.961 . S
C2389 H2404 0.961 . S
C2389 H2405 0.961 . S
C2390 C2391 1.370 . S
C2390 C2392 1.363 . S
C2390 H2406 0.931 . S
C2391 C2390 1.370 . S
C2391 C2395 1.408 1_565 S
C2392 C2390 1.363 . S
C2392 C2393 1.370 . S
C2392 C2396 1.524 . S
C2393 C2385 1.490 1_565 S
C2393 C2392 1.370 . S
C2393 C2394 1.403 1_565 S
C2394 C2393 1.403 1_545 S
C2394 C2395 1.404 . S
C2394 C2397 1.539 . S
C2395 C2391 1.408 1_545 S
C2395 C2394 1.404 . S
C2395 H2407 0.930 . S
C2396 C2392 1.524 . S
C2396 H2408 0.956 . S
C2396 H2409 0.961 . S
C2396 H2410 0.961 . S
C2397 C2394 1.539 . S
C2397 H2411 0.958 . S
C2397 H2412 0.961 . S
C2397 H2413 0.960 . S
H2398 C2382 0.931 . S
H2399 C2387 0.929 . S
H2400 C2388 0.960 . S
H2401 C2388 0.962 . S
H2402 C2388 0.960 . S
H2403 C2389 0.961 . S
H2404 C2389 0.961 . S
H2405 C2389 0.961 . S
H2406 C2390 0.931 . S
H2407 C2395 0.930 . S
H2408 C2396 0.956 . S
H2409 C2396 0.961 . S
H2410 C2396 0.961 . S
H2411 C2397 0.958 . S
H2412 C2397 0.961 . S
H2413 C2397 0.960 . S
C2414 C2415 1.391 . S
C2414 C2416 1.394 . S
C2414 H2430 0.931 . S
C2415 C2414 1.391 . S
C2415 C2419 1.376 . S
C2416 C2414 1.394 . S
C2416 C2417 1.369 . S
C2416 C2420 1.510 1_455 S
C2417 C2416 1.369 . S
C2417 C2418 1.410 . S
C2417 C2425 1.503 . S
C2418 C2417 1.410 . S
C2418 C2419 1.392 . S
C2418 C2421 1.511 . S
C2419 C2415 1.376 . S
C2419 C2418 1.392 . S
C2419 H2431 0.929 . S
C2420 C2416 1.510 1_655 S
C2420 H2432 0.962 1_655 S
C2420 H2433 0.979 . S
C2420 H2434 0.961 . S
C2421 C2418 1.511 . S
C2421 H2435 0.961 . S
C2421 H2436 0.961 . S
C2421 H2437 0.961 . S
C2422 C2423 1.374 . S
C2422 C2424 1.378 . S
C2422 H2438 0.913 1_455 S
C2423 C2422 1.374 . S
C2423 C2427 1.408 . S
C2424 C2422 1.378 . S
C2424 C2425 1.370 . S
C2424 C2428 1.524 1_455 S
C2425 C2417 1.503 . S
C2425 C2424 1.370 . S
C2425 C2426 1.403 . S
C2426 C2425 1.403 . S
C2426 C2427 1.404 . S
C2426 C2429 1.539 . S
C2427 C2423 1.408 . S
C2427 C2426 1.404 . S
C2427 H2439 0.930 . S
C2428 C2424 1.524 1_655 S
C2428 H2440 0.956 . S
C2428 H2441 0.961 . S
C2428 H2442 0.961 . S
C2429 C2426 1.539 . S
C2429 H2443 0.958 . S
C2429 H2444 0.961 . S
C2429 H2445 0.960 . S
H2430 C2414 0.931 . S
H2431 C2419 0.929 . S
H2432 C2420 0.962 1_455 S
H2433 C2420 0.979 . S
H2434 C2420 0.961 . S
H2435 C2421 0.961 . S
H2436 C2421 0.961 . S
H2437 C2421 0.961 . S
H2438 C2422 0.913 1_655 S
H2439 C2427 0.930 . S
H2440 C2428 0.956 . S
H2441 C2428 0.961 . S
H2442 C2428 0.961 . S
H2443 C2429 0.958 . S
H2444 C2429 0.961 . S
H2445 C2429 0.960 . S
C2446 C2447 1.391 . S
C2446 C2448 1.394 . S
C2446 H2462 0.931 . S
C2447 C2446 1.391 . S
C2447 C2451 1.376 . S
C2448 C2446 1.394 . S
C2448 C2449 1.369 . S
C2448 C2452 1.531 . S
C2449 C2448 1.369 . S
C2449 C2450 1.410 . S
C2449 C2457 1.503 . S
C2450 C2449 1.410 . S
C2450 C2451 1.392 . S
C2450 C2453 1.511 . S
C2451 C2447 1.376 . S
C2451 C2450 1.392 . S
C2451 H2463 0.929 . S
C2452 C2448 1.531 . S
C2452 H2464 0.960 . S
C2452 H2465 0.962 . S
C2452 H2466 0.960 . S
C2453 C2450 1.511 . S
C2453 H2467 0.961 . S
C2453 H2468 0.961 . S
C2453 H2469 0.961 . S
C2454 C2455 1.370 . S
C2454 C2456 1.363 . S
C2454 H2470 0.931 . S
C2455 C2454 1.370 . S
C2455 C2459 1.408 . S
C2456 C2454 1.363 . S
C2456 C2457 1.370 . S
C2456 C2460 1.524 . S
C2457 C2449 1.503 . S
C2457 C2456 1.370 . S
C2457 C2458 1.403 . S
C2458 C2457 1.403 . S
C2458 C2459 1.404 . S
C2458 C2461 1.539 . S
C2459 C2455 1.408 . S
C2459 C2458 1.404 . S
C2459 H2471 0.930 . S
C2460 C2456 1.524 . S
C2460 H2472 0.956 . S
C2460 H2473 0.961 . S
C2460 H2474 0.961 . S
C2461 C2458 1.539 . S
C2461 H2475 0.958 . S
C2461 H2476 0.961 . S
C2461 H2477 0.960 . S
H2462 C2446 0.931 . S
H2463 C2451 0.929 . S
H2464 C2452 0.960 . S
H2465 C2452 0.962 . S
H2466 C2452 0.960 . S
H2467 C2453 0.961 . S
H2468 C2453 0.961 . S
H2469 C2453 0.961 . S
H2470 C2454 0.931 . S
H2471 C2459 0.930 . S
H2472 C2460 0.956 . S
H2473 C2460 0.961 . S
H2474 C2460 0.961 . S
H2475 C2461 0.958 . S
H2476 C2461 0.961 . S
H2477 C2461 0.960 . S
C2478 C2479 1.392 1_655 S
C2478 C2480 1.394 . S
C2478 H2494 0.930 . S
C2479 C2478 1.392 1_455 S
C2479 C2483 1.376 . S
C2480 C2478 1.394 . S
C2480 C2481 1.369 1_655 S
C2480 C2484 1.531 . S
C2481 C2480 1.369 1_455 S
C2481 C2482 1.410 . S
C2481 C2489 1.503 . S
C2482 C2481 1.410 . S
C2482 C2483 1.392 . S
C2482 C2485 1.511 . S
C2483 C2479 1.376 . S
C2483 C2482 1.392 . S
C2483 H2495 0.929 . S
C2484 C2480 1.531 . S
C2484 H2496 0.960 . S
C2484 H2497 0.962 . S
C2484 H2498 0.960 . S
C2485 C2482 1.511 . S
C2485 H2499 0.961 . S
C2485 H2500 0.961 . S
C2485 H2501 0.961 . S
C2486 C2487 1.370 1_655 S
C2486 C2488 1.363 . S
C2486 H2502 0.931 . S
C2487 C2486 1.370 1_455 S
C2487 C2491 1.408 . S
C2488 C2486 1.363 . S
C2488 C2489 1.370 1_655 S
C2488 C2492 1.524 . S
C2489 C2481 1.503 . S
C2489 C2488 1.370 1_455 S
C2489 C2490 1.403 . S
C2490 C2489 1.403 . S
C2490 C2491 1.404 . S
C2490 C2493 1.539 . S
C2491 C2487 1.408 . S
C2491 C2490 1.404 . S
C2491 H2503 0.930 . S
C2492 C2488 1.524 . S
C2492 H2504 0.956 . S
C2492 H2505 0.961 . S
C2492 H2506 0.961 . S
C2493 C2490 1.539 . S
C2493 H2507 0.958 . S
C2493 H2508 0.961 . S
C2493 H2509 0.960 . S
H2494 C2478 0.930 . S
H2495 C2483 0.929 . S
H2496 C2484 0.960 . S
H2497 C2484 0.962 . S
H2498 C2484 0.960 . S
H2499 C2485 0.961 . S
H2500 C2485 0.961 . S
H2501 C2485 0.961 . S
H2502 C2486 0.931 . S
H2503 C2491 0.930 . S
H2504 C2492 0.956 . S
H2505 C2492 0.961 . S
H2506 C2492 0.961 . S
H2507 C2493 0.958 . S
H2508 C2493 0.961 . S
H2509 C2493 0.960 . S
C2510 C2511 1.391 . S
C2510 C2512 1.394 . S
C2510 H2526 0.931 . S
C2511 C2510 1.391 . S
C2511 C2515 1.376 . S
C2512 C2510 1.394 . S
C2512 C2513 1.369 . S
C2512 C2516 1.531 . S
C2513 C2512 1.369 . S
C2513 C2514 1.410 . S
C2513 C2521 1.503 . S
C2514 C2513 1.410 . S
C2514 C2515 1.392 . S
C2514 C2517 1.511 . S
C2515 C2511 1.376 . S
C2515 C2514 1.392 . S
C2515 H2527 0.929 . S
C2516 C2512 1.531 . S
C2516 H2528 0.960 . S
C2516 H2529 0.962 . S
C2516 H2530 0.960 . S
C2517 C2514 1.511 . S
C2517 H2531 0.961 . S
C2517 H2532 0.961 . S
C2517 H2533 0.961 . S
C2518 C2519 1.370 . S
C2518 C2520 1.363 . S
C2518 H2534 0.931 . S
C2519 C2518 1.370 . S
C2519 C2523 1.408 . S
C2520 C2518 1.363 . S
C2520 C2521 1.370 . S
C2520 C2524 1.524 . S
C2521 C2513 1.503 . S
C2521 C2520 1.370 . S
C2521 C2522 1.403 . S
C2522 C2521 1.403 . S
C2522 C2523 1.404 . S
C2522 C2525 1.539 . S
C2523 C2519 1.408 . S
C2523 C2522 1.404 . S
C2523 H2535 0.930 . S
C2524 C2520 1.524 . S
C2524 H2536 0.956 . S
C2524 H2537 0.961 . S
C2524 H2538 0.961 . S
C2525 C2522 1.539 . S
C2525 H2539 0.958 . S
C2525 H2540 0.961 . S
C2525 H2541 0.960 . S
H2526 C2510 0.931 . S
H2527 C2515 0.929 . S
H2528 C2516 0.960 . S
H2529 C2516 0.962 . S
H2530 C2516 0.960 . S
H2531 C2517 0.961 . S
H2532 C2517 0.961 . S
H2533 C2517 0.961 . S
H2534 C2518 0.931 . S
H2535 C2523 0.930 . S
H2536 C2524 0.956 . S
H2537 C2524 0.961 . S
H2538 C2524 0.961 . S
H2539 C2525 0.958 . S
H2540 C2525 0.961 . S
H2541 C2525 0.960 . S
C2542 C2543 1.391 . S
C2542 C2544 1.351 1_565 S
C2542 H2558 0.931 1_565 S
C2543 C2542 1.391 . S
C2543 C2547 1.376 . S
C2544 C2542 1.351 1_545 S
C2544 C2545 1.349 1_545 S
C2544 C2548 1.599 . S
C2545 C2544 1.349 1_565 S
C2545 C2546 1.410 . S
C2545 C2553 1.503 . S
C2546 C2545 1.410 . S
C2546 C2547 1.392 . S
C2546 C2549 1.511 . S
C2547 C2543 1.376 . S
C2547 C2546 1.392 . S
C2547 H2559 0.929 . S
C2548 C2544 1.599 . S
C2548 H2560 0.960 . S
C2548 H2561 0.962 . S
C2548 H2562 0.960 . S
C2549 C2546 1.511 . S
C2549 H2563 0.961 . S
C2549 H2564 0.961 . S
C2549 H2565 0.961 . S
C2550 C2551 1.370 . S
C2550 C2552 1.363 . S
C2550 H2566 0.931 . S
C2551 C2550 1.370 . S
C2551 C2555 1.408 1_565 S
C2552 C2550 1.363 . S
C2552 C2553 1.370 . S
C2552 C2556 1.524 . S
C2553 C2545 1.503 . S
C2553 C2552 1.370 . S
C2553 C2554 1.403 1_565 S
C2554 C2553 1.403 1_545 S
C2554 C2555 1.404 . S
C2554 C2557 1.539 . S
C2555 C2551 1.408 1_545 S
C2555 C2554 1.404 . S
C2555 H2567 0.930 . S
C2556 C2552 1.524 . S
C2556 H2568 0.956 . S
C2556 H2569 0.961 . S
C2556 H2570 0.961 . S
C2557 C2554 1.539 . S
C2557 H2571 0.958 . S
C2557 H2572 0.961 . S
C2557 H2573 0.960 . S
H2558 C2542 0.931 1_545 S
H2559 C2547 0.929 . S
H2560 C2548 0.960 . S
H2561 C2548 0.962 . S
H2562 C2548 0.960 . S
H2563 C2549 0.961 . S
H2564 C2549 0.961 . S
H2565 C2549 0.961 . S
H2566 C2550 0.931 . S
H2567 C2555 0.930 . S
H2568 C2556 0.956 . S
H2569 C2556 0.961 . S
H2570 C2556 0.961 . S
H2571 C2557 0.958 . S
H2572 C2557 0.961 . S
H2573 C2557 0.960 . S
C2574 C2575 1.391 1_565 S
C2574 C2576 1.394 . S
C2574 H2590 0.931 . S
C2575 C2574 1.391 1_545 S
C2575 C2579 1.376 . S
C2576 C2574 1.394 . S
C2576 C2577 1.369 1_565 S
C2576 C2580 1.531 . S
C2577 C2576 1.369 1_545 S
C2577 C2578 1.410 . S
C2577 C2585 1.503 . S
C2578 C2577 1.410 . S
C2578 C2579 1.392 . S
C2578 C2581 1.511 . S
C2579 C2575 1.376 . S
C2579 C2578 1.392 . S
C2579 H2591 0.929 . S
C2580 C2576 1.531 . S
C2580 H2592 0.960 . S
C2580 H2593 0.962 . S
C2580 H2594 0.960 . S
C2581 C2578 1.511 . S
C2581 H2595 0.961 . S
C2581 H2596 0.961 . S
C2581 H2597 0.961 . S
C2582 C2583 1.370 . S
C2582 C2584 1.363 . S
C2582 H2598 0.931 . S
C2583 C2582 1.370 . S
C2583 C2587 1.408 1_545 S
C2584 C2582 1.363 . S
C2584 C2585 1.370 . S
C2584 C2588 1.524 . S
C2585 C2577 1.503 . S
C2585 C2584 1.370 . S
C2585 C2586 1.403 1_545 S
C2586 C2585 1.403 1_565 S
C2586 C2587 1.404 . S
C2586 C2589 1.539 . S
C2587 C2583 1.408 1_565 S
C2587 C2586 1.404 . S
C2587 H2599 0.930 . S
C2588 C2584 1.524 . S
C2588 H2600 0.956 . S
C2588 H2601 0.961 . S
C2588 H2602 0.961 . S
C2589 C2586 1.539 . S
C2589 H2603 0.958 . S
C2589 H2604 0.961 . S
C2589 H2605 0.960 . S
H2590 C2574 0.931 . S
H2591 C2579 0.929 . S
H2592 C2580 0.960 . S
H2593 C2580 0.962 . S
H2594 C2580 0.960 . S
H2595 C2581 0.961 . S
H2596 C2581 0.961 . S
H2597 C2581 0.961 . S
H2598 C2582 0.931 . S
H2599 C2587 0.930 . S
H2600 C2588 0.956 . S
H2601 C2588 0.961 . S
H2602 C2588 0.961 . S
H2603 C2589 0.958 . S
H2604 C2589 0.961 . S
H2605 C2589 0.960 . S
C2606 C2607 1.391 . S
C2606 C2608 1.394 . S
C2606 H2622 0.931 . S
C2607 C2606 1.391 . S
C2607 C2611 1.376 1_655 S
C2608 C2606 1.394 . S
C2608 C2609 1.369 . S
C2608 C2612 1.531 . S
C2609 C2608 1.369 . S
C2609 C2610 1.410 1_655 S
C2609 C2617 1.503 . S
C2610 C2609 1.410 1_455 S
C2610 C2611 1.392 . S
C2610 C2613 1.511 . S
C2611 C2607 1.376 1_455 S
C2611 C2610 1.392 . S
C2611 H2623 0.929 . S
C2612 C2608 1.531 . S
C2612 H2624 0.960 . S
C2612 H2625 0.962 . S
C2612 H2626 0.960 . S
C2613 C2610 1.511 . S
C2613 H2627 0.961 . S
C2613 H2628 0.961 . S
C2613 H2629 0.961 . S
C2614 C2615 1.370 . S
C2614 C2616 1.363 . S
C2614 H2630 0.931 . S
C2615 C2614 1.370 . S
C2615 C2619 1.408 1_655 S
C2616 C2614 1.363 . S
C2616 C2617 1.370 . S
C2616 C2620 1.524 . S
C2617 C2609 1.503 . S
C2617 C2616 1.370 . S
C2617 C2618 1.403 1_655 S
C2618 C2617 1.403 1_455 S
C2618 C2619 1.404 . S
C2618 C2621 1.539 . S
C2619 C2615 1.408 1_455 S
C2619 C2618 1.404 . S
C2619 H2631 0.930 . S
C2620 C2616 1.524 . S
C2620 H2632 0.956 . S
C2620 H2633 0.961 . S
C2620 H2634 0.961 . S
C2621 C2618 1.539 . S
C2621 H2635 0.958 . S
C2621 H2636 0.961 . S
C2621 H2637 0.960 . S
H2622 C2606 0.931 . S
H2623 C2611 0.929 . S
H2624 C2612 0.960 . S
H2625 C2612 0.962 . S
H2626 C2612 0.960 . S
H2627 C2613 0.961 . S
H2628 C2613 0.961 . S
H2629 C2613 0.961 . S
H2630 C2614 0.931 . S
H2631 C2619 0.930 . S
H2632 C2620 0.956 . S
H2633 C2620 0.961 . S
H2634 C2620 0.961 . S
H2635 C2621 0.958 . S
H2636 C2621 0.961 . S
H2637 C2621 0.960 . S
C2638 C2639 1.391 . S
C2638 C2640 1.394 . S
C2638 H2654 0.931 . S
C2639 C2638 1.391 . S
C2639 C2643 1.376 . S
C2640 C2638 1.394 . S
C2640 C2641 1.369 . S
C2640 C2644 1.531 . S
C2641 C2640 1.369 . S
C2641 C2642 1.410 . S
C2641 C2649 1.503 . S
C2642 C2641 1.410 . S
C2642 C2643 1.392 . S
C2642 C2645 1.511 . S
C2643 C2639 1.376 . S
C2643 C2642 1.392 . S
C2643 H2655 0.929 . S
C2644 C2640 1.531 . S
C2644 H2656 0.960 . S
C2644 H2657 0.962 . S
C2644 H2658 0.960 . S
C2645 C2642 1.511 . S
C2645 H2659 0.961 . S
C2645 H2660 0.961 . S
C2645 H2661 0.961 . S
C2646 C2647 1.370 . S
C2646 C2648 1.363 . S
C2646 H2662 0.931 . S
C2647 C2646 1.370 . S
C2647 C2651 1.408 . S
C2648 C2646 1.363 . S
C2648 C2649 1.370 . S
C2648 C2652 1.524 . S
C2649 C2641 1.503 . S
C2649 C2648 1.370 . S
C2649 C2650 1.403 . S
C2650 C2649 1.403 . S
C2650 C2651 1.404 . S
C2650 C2653 1.539 . S
C2651 C2647 1.408 . S
C2651 C2650 1.404 . S
C2651 H2663 0.930 . S
C2652 C2648 1.524 . S
C2652 H2664 0.956 . S
C2652 H2665 0.961 . S
C2652 H2666 0.961 . S
C2653 C2650 1.539 . S
C2653 H2667 0.958 . S
C2653 H2668 0.961 . S
C2653 H2669 0.960 . S
H2654 C2638 0.931 . S
H2655 C2643 0.929 . S
H2656 C2644 0.960 . S
H2657 C2644 0.962 . S
H2658 C2644 0.960 . S
H2659 C2645 0.961 . S
H2660 C2645 0.961 . S
H2661 C2645 0.961 . S
H2662 C2646 0.931 . S
H2663 C2651 0.930 . S
H2664 C2652 0.956 . S
H2665 C2652 0.961 . S
H2666 C2652 0.961 . S
H2667 C2653 0.958 . S
H2668 C2653 0.961 . S
H2669 C2653 0.960 . S
C2670 C2671 1.391 . S
C2670 C2672 1.394 . S
C2670 H2686 0.931 . S
C2671 C2670 1.391 . S
C2671 C2675 1.376 . S
C2672 C2670 1.394 . S
C2672 C2673 1.369 . S
C2672 C2676 1.531 . S
C2673 C2672 1.369 . S
C2673 C2674 1.410 . S
C2673 C2681 1.503 . S
C2674 C2673 1.410 . S
C2674 C2675 1.392 . S
C2674 C2677 1.511 . S
C2675 C2671 1.376 . S
C2675 C2674 1.392 . S
C2675 H2687 0.929 . S
C2676 C2672 1.531 . S
C2676 H2688 0.960 . S
C2676 H2689 0.962 . S
C2676 H2690 0.960 . S
C2677 C2674 1.511 . S
C2677 H2691 0.961 . S
C2677 H2692 0.961 . S
C2677 H2693 0.961 . S
C2678 C2679 1.370 . S
C2678 C2680 1.363 . S
C2678 H2694 0.931 . S
C2679 C2678 1.370 . S
C2679 C2683 1.408 . S
C2680 C2678 1.363 . S
C2680 C2681 1.370 . S
C2680 C2684 1.524 . S
C2681 C2673 1.503 . S
C2681 C2680 1.370 . S
C2681 C2682 1.403 . S
C2682 C2681 1.403 . S
C2682 C2683 1.404 . S
C2682 C2685 1.539 . S
C2683 C2679 1.408 . S
C2683 C2682 1.404 . S
C2683 H2695 0.930 . S
C2684 C2680 1.524 . S
C2684 H2696 0.956 . S
C2684 H2697 0.961 . S
C2684 H2698 0.961 . S
C2685 C2682 1.539 . S
C2685 H2699 0.958 . S
C2685 H2700 0.961 . S
C2685 H2701 0.960 . S
H2686 C2670 0.931 . S
H2687 C2675 0.929 . S
H2688 C2676 0.960 . S
H2689 C2676 0.962 . S
H2690 C2676 0.960 . S
H2691 C2677 0.961 . S
H2692 C2677 0.961 . S
H2693 C2677 0.961 . S
H2694 C2678 0.931 . S
H2695 C2683 0.930 . S
H2696 C2684 0.956 . S
H2697 C2684 0.961 . S
H2698 C2684 0.961 . S
H2699 C2685 0.958 . S
H2700 C2685 0.961 . S
H2701 C2685 0.960 . S
C2702 C2703 1.391 . S
C2702 C2704 1.394 . S
C2702 H2718 0.931 . S
C2703 C2702 1.391 . S
C2703 C2707 1.376 . S
C2704 C2702 1.394 . S
C2704 C2705 1.369 . S
C2704 C2708 1.531 . S
C2705 C2704 1.369 . S
C2705 C2706 1.410 . S
C2705 C2713 1.503 . S
C2706 C2705 1.410 . S
C2706 C2707 1.392 . S
C2706 C2709 1.511 . S
C2707 C2703 1.376 . S
C2707 C2706 1.392 . S
C2707 H2719 0.929 . S
C2708 C2704 1.531 . S
C2708 H2720 0.960 . S
C2708 H2721 0.962 . S
C2708 H2722 0.960 . S
C2709 C2706 1.511 . S
C2709 H2723 0.961 . S
C2709 H2724 0.961 . S
C2709 H2725 0.961 . S
C2710 C2711 1.370 . S
C2710 C2712 1.363 . S
C2710 H2726 0.931 . S
C2711 C2710 1.370 . S
C2711 C2715 1.408 . S
C2712 C2710 1.363 . S
C2712 C2713 1.370 . S
C2712 C2716 1.524 . S
C2713 C2705 1.503 . S
C2713 C2712 1.370 . S
C2713 C2714 1.403 . S
C2714 C2713 1.403 . S
C2714 C2715 1.404 . S
C2714 C2717 1.539 . S
C2715 C2711 1.408 . S
C2715 C2714 1.404 . S
C2715 H2727 0.930 . S
C2716 C2712 1.524 . S
C2716 H2728 0.956 . S
C2716 H2729 0.961 . S
C2716 H2730 0.961 . S
C2717 C2714 1.539 . S
C2717 H2731 0.958 . S
C2717 H2732 0.961 . S
C2717 H2733 0.960 . S
H2718 C2702 0.931 . S
H2719 C2707 0.929 . S
H2720 C2708 0.960 . S
H2721 C2708 0.962 . S
H2722 C2708 0.960 . S
H2723 C2709 0.961 . S
H2724 C2709 0.961 . S
H2725 C2709 0.961 . S
H2726 C2710 0.931 . S
H2727 C2715 0.930 . S
H2728 C2716 0.956 . S
H2729 C2716 0.961 . S
H2730 C2716 0.961 . S
H2731 C2717 0.958 . S
H2732 C2717 0.961 . S
H2733 C2717 0.960 . S
C2734 C2735 1.391 . S
C2734 C2736 1.394 . S
C2734 H2750 0.931 . S
C2735 C2734 1.391 . S
C2735 C2739 1.376 . S
C2736 C2734 1.394 . S
C2736 C2737 1.369 . S
C2736 C2740 1.531 . S
C2737 C2736 1.369 . S
C2737 C2738 1.410 . S
C2737 C2745 1.503 . S
C2738 C2737 1.410 . S
C2738 C2739 1.392 . S
C2738 C2741 1.511 . S
C2739 C2735 1.376 . S
C2739 C2738 1.392 . S
C2739 H2751 0.929 . S
C2740 C2736 1.531 . S
C2740 H2752 0.960 . S
C2740 H2753 0.962 . S
C2740 H2754 0.960 . S
C2741 C2738 1.511 . S
C2741 H2755 0.961 . S
C2741 H2756 0.961 . S
C2741 H2757 0.961 . S
C2742 C2743 1.370 . S
C2742 C2744 1.363 . S
C2742 H2758 0.931 . S
C2743 C2742 1.370 . S
C2743 C2747 1.408 . S
C2744 C2742 1.363 . S
C2744 C2745 1.370 . S
C2744 C2748 1.524 . S
C2745 C2737 1.503 . S
C2745 C2744 1.370 . S
C2745 C2746 1.403 . S
C2746 C2745 1.403 . S
C2746 C2747 1.404 . S
C2746 C2749 1.539 . S
C2747 C2743 1.408 . S
C2747 C2746 1.404 . S
C2747 H2759 0.930 . S
C2748 C2744 1.524 . S
C2748 H2760 0.956 . S
C2748 H2761 0.961 . S
C2748 H2762 0.961 . S
C2749 C2746 1.539 . S
C2749 H2763 0.958 . S
C2749 H2764 0.961 . S
C2749 H2765 0.960 . S
H2750 C2734 0.931 . S
H2751 C2739 0.929 . S
H2752 C2740 0.960 . S
H2753 C2740 0.962 . S
H2754 C2740 0.960 . S
H2755 C2741 0.961 . S
H2756 C2741 0.961 . S
H2757 C2741 0.961 . S
H2758 C2742 0.931 . S
H2759 C2747 0.930 . S
H2760 C2748 0.956 . S
H2761 C2748 0.961 . S
H2762 C2748 0.961 . S
H2763 C2749 0.958 . S
H2764 C2749 0.961 . S
H2765 C2749 0.960 . S
C2766 C2767 1.391 . S
C2766 C2768 1.394 . S
C2766 H2782 0.931 . S
C2767 C2766 1.391 . S
C2767 C2771 1.376 . S
C2768 C2766 1.394 . S
C2768 C2769 1.369 . S
C2768 C2772 1.531 . S
C2769 C2768 1.369 . S
C2769 C2770 1.410 . S
C2769 C2777 1.503 . S
C2770 C2769 1.410 . S
C2770 C2771 1.392 . S
C2770 C2773 1.511 . S
C2771 C2767 1.376 . S
C2771 C2770 1.392 . S
C2771 H2783 0.929 . S
C2772 C2768 1.531 . S
C2772 H2784 0.960 . S
C2772 H2785 0.962 . S
C2772 H2786 0.960 . S
C2773 C2770 1.511 . S
C2773 H2787 0.961 . S
C2773 H2788 0.961 . S
C2773 H2789 0.961 . S
C2774 C2775 1.370 . S
C2774 C2776 1.363 . S
C2774 H2790 0.931 . S
C2775 C2774 1.370 . S
C2775 C2779 1.408 . S
C2776 C2774 1.363 . S
C2776 C2777 1.370 . S
C2776 C2780 1.524 . S
C2777 C2769 1.503 . S
C2777 C2776 1.370 . S
C2777 C2778 1.403 . S
C2778 C2777 1.403 . S
C2778 C2779 1.404 . S
C2778 C2781 1.539 . S
C2779 C2775 1.408 . S
C2779 C2778 1.404 . S
C2779 H2791 0.930 . S
C2780 C2776 1.524 . S
C2780 H2792 0.956 . S
C2780 H2793 0.961 . S
C2780 H2794 0.961 . S
C2781 C2778 1.539 . S
C2781 H2795 0.958 . S
C2781 H2796 0.961 . S
C2781 H2797 0.960 . S
H2782 C2766 0.931 . S
H2783 C2771 0.929 . S
H2784 C2772 0.960 . S
H2785 C2772 0.962 . S
H2786 C2772 0.960 . S
H2787 C2773 0.961 . S
H2788 C2773 0.961 . S
H2789 C2773 0.961 . S
H2790 C2774 0.931 . S
H2791 C2779 0.930 . S
H2792 C2780 0.956 . S
H2793 C2780 0.961 . S
H2794 C2780 0.961 . S
H2795 C2781 0.958 . S
H2796 C2781 0.961 . S
H2797 C2781 0.960 . S
C2798 C2799 1.391 . S
C2798 C2800 1.394 . S
C2798 H2814 0.931 . S
C2799 C2798 1.391 . S
C2799 C2803 1.376 . S
C2800 C2798 1.394 . S
C2800 C2801 1.369 . S
C2800 C2804 1.531 . S
C2801 C2800 1.369 . S
C2801 C2802 1.410 . S
C2801 C2809 1.503 . S
C2802 C2801 1.410 . S
C2802 C2803 1.392 . S
C2802 C2805 1.511 . S
C2803 C2799 1.376 . S
C2803 C2802 1.392 . S
C2803 H2815 0.929 . S
C2804 C2800 1.531 . S
C2804 H2816 0.960 . S
C2804 H2817 0.962 . S
C2804 H2818 0.960 . S
C2805 C2802 1.511 . S
C2805 H2819 0.961 . S
C2805 H2820 0.961 . S
C2805 H2821 0.961 . S
C2806 C2807 1.370 . S
C2806 C2808 1.363 . S
C2806 H2822 0.931 . S
C2807 C2806 1.370 . S
C2807 C2811 1.408 . S
C2808 C2806 1.363 . S
C2808 C2809 1.370 . S
C2808 C2812 1.524 . S
C2809 C2801 1.503 . S
C2809 C2808 1.370 . S
C2809 C2810 1.403 . S
C2810 C2809 1.403 . S
C2810 C2811 1.404 . S
C2810 C2813 1.539 . S
C2811 C2807 1.408 . S
C2811 C2810 1.404 . S
C2811 H2823 0.930 . S
C2812 C2808 1.524 . S
C2812 H2824 0.956 . S
C2812 H2825 0.961 . S
C2812 H2826 0.961 . S
C2813 C2810 1.539 . S
C2813 H2827 0.958 . S
C2813 H2828 0.961 . S
C2813 H2829 0.960 . S
H2814 C2798 0.931 . S
H2815 C2803 0.929 . S
H2816 C2804 0.960 . S
H2817 C2804 0.962 . S
H2818 C2804 0.960 . S
H2819 C2805 0.961 . S
H2820 C2805 0.961 . S
H2821 C2805 0.961 . S
H2822 C2806 0.931 . S
H2823 C2811 0.930 . S
H2824 C2812 0.956 . S
H2825 C2812 0.961 . S
H2826 C2812 0.961 . S
H2827 C2813 0.958 . S
H2828 C2813 0.961 . S
H2829 C2813 0.960 . S
C2830 C2831 1.391 . S
C2830 C2832 1.394 . S
C2830 H2846 0.931 . S
C2831 C2830 1.391 . S
C2831 C2835 1.376 . S
C2832 C2830 1.394 . S
C2832 C2833 1.369 . S
C2832 C2836 1.531 . S
C2833 C2832 1.369 . S
C2833 C2834 1.410 . S
C2833 C2841 1.503 . S
C2834 C2833 1.410 . S
C2834 C2835 1.392 . S
C2834 C2837 1.511 . S
C2835 C2831 1.376 . S
C2835 C2834 1.392 . S
C2835 H2847 0.929 . S
C2836 C2832 1.531 . S
C2836 H2848 0.960 . S
C2836 H2849 0.962 . S
C2836 H2850 0.960 . S
C2837 C2834 1.511 . S
C2837 H2851 0.961 . S
C2837 H2852 0.961 . S
C2837 H2853 0.961 . S
C2838 C2839 1.370 . S
C2838 C2840 1.363 . S
C2838 H2854 0.931 . S
C2839 C2838 1.370 . S
C2839 C2843 1.408 . S
C2840 C2838 1.363 . S
C2840 C2841 1.370 . S
C2840 C2844 1.524 . S
C2841 C2833 1.503 . S
C2841 C2840 1.370 . S
C2841 C2842 1.403 . S
C2842 C2841 1.403 . S
C2842 C2843 1.404 . S
C2842 C2845 1.539 . S
C2843 C2839 1.408 . S
C2843 C2842 1.404 . S
C2843 H2855 0.930 . S
C2844 C2840 1.524 . S
C2844 H2856 0.956 . S
C2844 H2857 0.961 . S
C2844 H2858 0.961 . S
C2845 C2842 1.539 . S
C2845 H2859 0.958 . S
C2845 H2860 0.961 . S
C2845 H2861 0.960 . S
H2846 C2830 0.931 . S
H2847 C2835 0.929 . S
H2848 C2836 0.960 . S
H2849 C2836 0.962 . S
H2850 C2836 0.960 . S
H2851 C2837 0.961 . S
H2852 C2837 0.961 . S
H2853 C2837 0.961 . S
H2854 C2838 0.931 . S
H2855 C2843 0.930 . S
H2856 C2844 0.956 . S
H2857 C2844 0.961 . S
H2858 C2844 0.961 . S
H2859 C2845 0.958 . S
H2860 C2845 0.961 . S
H2861 C2845 0.960 . S
C2862 C2863 1.391 . S
C2862 C2864 1.394 . S
C2862 H2878 0.931 . S
C2863 C2862 1.391 . S
C2863 C2867 1.376 . S
C2864 C2862 1.394 . S
C2864 C2865 1.369 . S
C2864 C2868 1.531 . S
C2865 C2864 1.369 . S
C2865 C2866 1.410 . S
C2865 C2873 1.503 . S
C2866 C2865 1.410 . S
C2866 C2867 1.392 . S
C2866 C2869 1.511 . S
C2867 C2863 1.376 . S
C2867 C2866 1.392 . S
C2867 H2879 0.929 . S
C2868 C2864 1.531 . S
C2868 H2880 0.960 . S
C2868 H2881 0.962 . S
C2868 H2882 0.960 . S
C2869 C2866 1.511 . S
C2869 H2883 0.961 . S
C2869 H2884 0.961 . S
C2869 H2885 0.961 . S
C2870 C2871 1.370 . S
C2870 C2872 1.363 . S
C2870 H2886 0.931 . S
C2871 C2870 1.370 . S
C2871 C2875 1.408 . S
C2872 C2870 1.363 . S
C2872 C2873 1.370 . S
C2872 C2876 1.524 . S
C2873 C2865 1.503 . S
C2873 C2872 1.370 . S
C2873 C2874 1.403 . S
C2874 C2873 1.403 . S
C2874 C2875 1.404 . S
C2874 C2877 1.539 . S
C2875 C2871 1.408 . S
C2875 C2874 1.404 . S
C2875 H2887 0.930 . S
C2876 C2872 1.524 . S
C2876 H2888 0.956 . S
C2876 H2889 0.961 . S
C2876 H2890 0.961 . S
C2877 C2874 1.539 . S
C2877 H2891 0.958 . S
C2877 H2892 0.961 . S
C2877 H2893 0.960 . S
H2878 C2862 0.931 . S
H2879 C2867 0.929 . S
H2880 C2868 0.960 . S
H2881 C2868 0.962 . S
H2882 C2868 0.960 . S
H2883 C2869 0.961 . S
H2884 C2869 0.961 . S
H2885 C2869 0.961 . S
H2886 C2870 0.931 . S
H2887 C2875 0.930 . S
H2888 C2876 0.956 . S
H2889 C2876 0.961 . S
H2890 C2876 0.961 . S
H2891 C2877 0.958 . S
H2892 C2877 0.961 . S
H2893 C2877 0.960 . S
C2894 C2895 1.391 . S
C2894 C2896 1.394 . S
C2894 H2910 0.931 . S
C2895 C2894 1.391 . S
C2895 C2899 1.376 . S
C2896 C2894 1.394 . S
C2896 C2897 1.369 . S
C2896 C2900 1.531 . S
C2897 C2896 1.369 . S
C2897 C2898 1.410 . S
C2897 C2905 1.503 . S
C2898 C2897 1.410 . S
C2898 C2899 1.392 . S
C2898 C2901 1.511 . S
C2899 C2895 1.376 . S
C2899 C2898 1.392 . S
C2899 H2911 0.929 . S
C2900 C2896 1.531 . S
C2900 H2912 0.960 . S
C2900 H2913 0.962 . S
C2900 H2914 0.960 . S
C2901 C2898 1.511 . S
C2901 H2915 0.961 . S
C2901 H2916 0.961 . S
C2901 H2917 0.961 . S
C2902 C2903 1.370 . S
C2902 C2904 1.363 . S
C2902 H2918 0.931 . S
C2903 C2902 1.370 . S
C2903 C2907 1.408 . S
C2904 C2902 1.363 . S
C2904 C2905 1.370 . S
C2904 C2908 1.524 . S
C2905 C2897 1.503 . S
C2905 C2904 1.370 . S
C2905 C2906 1.403 . S
C2906 C2905 1.403 . S
C2906 C2907 1.404 . S
C2906 C2909 1.539 . S
C2907 C2903 1.408 . S
C2907 C2906 1.404 . S
C2907 H2919 0.930 . S
C2908 C2904 1.524 . S
C2908 H2920 0.956 . S
C2908 H2921 0.961 . S
C2908 H2922 0.961 . S
C2909 C2906 1.539 . S
C2909 H2923 0.958 . S
C2909 H2924 0.961 . S
C2909 H2925 0.960 . S
H2910 C2894 0.931 . S
H2911 C2899 0.929 . S
H2912 C2900 0.960 . S
H2913 C2900 0.962 . S
H2914 C2900 0.960 . S
H2915 C2901 0.961 . S
H2916 C2901 0.961 . S
H2917 C2901 0.961 . S
H2918 C2902 0.931 . S
H2919 C2907 0.930 . S
H2920 C2908 0.956 . S
H2921 C2908 0.961 . S
H2922 C2908 0.961 . S
H2923 C2909 0.958 . S
H2924 C2909 0.961 . S
H2925 C2909 0.960 . S
C2926 C2927 1.391 . S
C2926 C2928 1.394 . S
C2926 H2942 0.931 . S
C2927 C2926 1.391 . S
C2927 C2931 1.376 . S
C2928 C2926 1.394 . S
C2928 C2929 1.369 . S
C2928 C2932 1.531 . S
C2929 C2928 1.369 . S
C2929 C2930 1.410 . S
C2929 C2937 1.503 . S
C2930 C2929 1.410 . S
C2930 C2931 1.392 . S
C2930 C2933 1.511 . S
C2931 C2927 1.376 . S
C2931 C2930 1.392 . S
C2931 H2943 0.929 . S
C2932 C2928 1.531 . S
C2932 H2944 0.960 . S
C2932 H2945 0.962 . S
C2932 H2946 0.960 . S
C2933 C2930 1.511 . S
C2933 H2947 0.961 . S
C2933 H2948 0.961 . S
C2933 H2949 0.961 . S
C2934 C2935 1.370 . S
C2934 C2936 1.363 . S
C2934 H2950 0.931 . S
C2935 C2934 1.370 . S
C2935 C2939 1.408 . S
C2936 C2934 1.363 . S
C2936 C2937 1.370 . S
C2936 C2940 1.524 . S
C2937 C2929 1.503 . S
C2937 C2936 1.370 . S
C2937 C2938 1.403 . S
C2938 C2937 1.403 . S
C2938 C2939 1.404 . S
C2938 C2941 1.539 . S
C2939 C2935 1.408 . S
C2939 C2938 1.404 . S
C2939 H2951 0.930 . S
C2940 C2936 1.524 . S
C2940 H2952 0.956 . S
C2940 H2953 0.961 . S
C2940 H2954 0.961 . S
C2941 C2938 1.539 . S
C2941 H2955 0.958 . S
C2941 H2956 0.961 . S
C2941 H2957 0.960 . S
H2942 C2926 0.931 . S
H2943 C2931 0.929 . S
H2944 C2932 0.960 . S
H2945 C2932 0.962 . S
H2946 C2932 0.960 . S
H2947 C2933 0.961 . S
H2948 C2933 0.961 . S
H2949 C2933 0.961 . S
H2950 C2934 0.931 . S
H2951 C2939 0.930 . S
H2952 C2940 0.956 . S
H2953 C2940 0.961 . S
H2954 C2940 0.961 . S
H2955 C2941 0.958 . S
H2956 C2941 0.961 . S
H2957 C2941 0.960 . S
C2958 C2959 1.391 . S
C2958 C2960 1.394 . S
C2958 H2974 0.931 . S
C2959 C2958 1.391 . S
C2959 C2963 1.376 . S
C2960 C2958 1.394 . S
C2960 C2961 1.369 . S
C2960 C2964 1.531 . S
C2961 C2960 1.369 . S
C2961 C2962 1.410 . S
C2961 C2969 1.503 . S
C2962 C2961 1.410 . S
C2962 C2963 1.392 . S
C2962 C2965 1.511 . S
C2963 C2959 1.376 . S
C2963 C2962 1.392 . S
C2963 H2975 0.929 . S
C2964 C2960 1.531 . S
C2964 H2976 0.960 . S
C2964 H2977 0.962 . S
C2964 H2978 0.960 . S
C2965 C2962 1.511 . S
C2965 H2979 0.961 . S
C2965 H2980 0.961 . S
C2965 H2981 0.961 . S
C2966 C2967 1.370 . S
C2966 C2968 1.363 . S
C2966 H2982 0.931 . S
C2967 C2966 1.370 . S
C2967 C2971 1.408 . S
C2968 C2966 1.363 . S
C2968 C2969 1.370 . S
C2968 C2972 1.524 . S
C2969 C2961 1.503 . S
C2969 C2968 1.370 . S
C2969 C2970 1.403 . S
C2970 C2969 1.403 . S
C2970 C2971 1.404 . S
C2970 C2973 1.539 . S
C2971 C2967 1.408 . S
C2971 C2970 1.404 . S
C2971 H2983 0.930 . S
C2972 C2968 1.524 . S
C2972 H2984 0.956 . S
C2972 H2985 0.961 . S
C2972 H2986 0.961 . S
C2973 C2970 1.539 . S
C2973 H2987 0.958 . S
C2973 H2988 0.961 . S
C2973 H2989 0.960 . S
H2974 C2958 0.931 . S
H2975 C2963 0.929 . S
H2976 C2964 0.960 . S
H2977 C2964 0.962 . S
H2978 C2964 0.960 . S
H2979 C2965 0.961 . S
H2980 C2965 0.961 . S
H2981 C2965 0.961 . S
H2982 C2966 0.931 . S
H2983 C2971 0.930 . S
H2984 C2972 0.956 . S
H2985 C2972 0.961 . S
H2986 C2972 0.961 . S
H2987 C2973 0.958 . S
H2988 C2973 0.961 . S
H2989 C2973 0.960 . S
C2990 C2991 1.391 . S
C2990 C2992 1.394 . S
C2990 H3006 0.931 . S
C2991 C2990 1.391 . S
C2991 C2995 1.376 . S
C2992 C2990 1.394 . S
C2992 C2993 1.369 . S
C2992 C2996 1.531 . S
C2993 C2992 1.369 . S
C2993 C2994 1.410 . S
C2993 C3001 1.503 . S
C2994 C2993 1.410 . S
C2994 C2995 1.392 . S
C2994 C2997 1.511 . S
C2995 C2991 1.376 . S
C2995 C2994 1.392 . S
C2995 H3007 0.929 . S
C2996 C2992 1.531 . S
C2996 H3008 0.960 . S
C2996 H3009 0.962 . S
C2996 H3010 0.960 . S
C2997 C2994 1.511 . S
C2997 H3011 0.961 . S
C2997 H3012 0.961 . S
C2997 H3013 0.961 . S
C2998 C2999 1.370 . S
C2998 C3000 1.363 . S
C2998 H3014 0.931 . S
C2999 C2998 1.370 . S
C2999 C3003 1.408 . S
C3000 C2998 1.363 . S
C3000 C3001 1.370 . S
C3000 C3004 1.524 . S
C3001 C2993 1.503 . S
C3001 C3000 1.370 . S
C3001 C3002 1.403 . S
C3002 C3001 1.403 . S
C3002 C3003 1.404 . S
C3002 C3005 1.539 . S
C3003 C2999 1.408 . S
C3003 C3002 1.404 . S
C3003 H3015 0.930 . S
C3004 C3000 1.524 . S
C3004 H3016 0.956 . S
C3004 H3017 0.961 . S
C3004 H3018 0.961 . S
C3005 C3002 1.539 . S
C3005 H3019 0.958 . S
C3005 H3020 0.961 . S
C3005 H3021 0.960 . S
H3006 C2990 0.931 . S
H3007 C2995 0.929 . S
H3008 C2996 0.960 . S
H3009 C2996 0.962 . S
H3010 C2996 0.960 . S
H3011 C2997 0.961 . S
H3012 C2997 0.961 . S
H3013 C2997 0.961 . S
H3014 C2998 0.931 . S
H3015 C3003 0.930 . S
H3016 C3004 0.956 . S
H3017 C3004 0.961 . S
H3018 C3004 0.961 . S
H3019 C3005 0.958 . S
H3020 C3005 0.961 . S
H3021 C3005 0.960 . S
C3022 C3023 1.391 . S
C3022 C3024 1.394 . S
C3022 H3038 0.931 . S
C3023 C3022 1.391 . S
C3023 C3027 1.376 . S
C3024 C3022 1.394 . S
C3024 C3025 1.369 . S
C3024 C3028 1.531 . S
C3025 C3024 1.369 . S
C3025 C3026 1.410 . S
C3025 C3033 1.503 . S
C3026 C3025 1.410 . S
C3026 C3027 1.392 . S
C3026 C3029 1.511 . S
C3027 C3023 1.376 . S
C3027 C3026 1.392 . S
C3027 H3039 0.929 . S
C3028 C3024 1.531 . S
C3028 H3040 0.960 . S
C3028 H3041 0.962 . S
C3028 H3042 0.960 . S
C3029 C3026 1.511 . S
C3029 H3043 0.961 . S
C3029 H3044 0.961 . S
C3029 H3045 0.961 . S
C3030 C3031 1.370 . S
C3030 C3032 1.363 . S
C3030 H3046 0.931 . S
C3031 C3030 1.370 . S
C3031 C3035 1.408 . S
C3032 C3030 1.363 . S
C3032 C3033 1.370 . S
C3032 C3036 1.524 . S
C3033 C3025 1.503 . S
C3033 C3032 1.370 . S
C3033 C3034 1.403 . S
C3034 C3033 1.403 . S
C3034 C3035 1.404 . S
C3034 C3037 1.539 . S
C3035 C3031 1.408 . S
C3035 C3034 1.404 . S
C3035 H3047 0.930 . S
C3036 C3032 1.524 . S
C3036 H3048 0.956 . S
C3036 H3049 0.961 . S
C3036 H3050 0.961 . S
C3037 C3034 1.539 . S
C3037 H3051 0.958 . S
C3037 H3052 0.961 . S
C3037 H3053 0.960 . S
H3038 C3022 0.931 . S
H3039 C3027 0.929 . S
H3040 C3028 0.960 . S
H3041 C3028 0.962 . S
H3042 C3028 0.960 . S
H3043 C3029 0.961 . S
H3044 C3029 0.961 . S
H3045 C3029 0.961 . S
H3046 C3030 0.931 . S
H3047 C3035 0.930 . S
H3048 C3036 0.956 . S
H3049 C3036 0.961 . S
H3050 C3036 0.961 . S
H3051 C3037 0.958 . S
H3052 C3037 0.961 . S
H3053 C3037 0.960 . S
C3054 C3055 1.391 . S
C3054 C3056 1.394 . S
C3054 H3070 0.931 . S
C3055 C3054 1.391 . S
C3055 C3059 1.376 . S
C3056 C3054 1.394 . S
C3056 C3057 1.369 . S
C3056 C3060 1.531 . S
C3057 C3056 1.369 . S
C3057 C3058 1.410 . S
C3057 C3065 1.503 . S
C3058 C3057 1.410 . S
C3058 C3059 1.392 . S
C3058 C3061 1.511 . S
C3059 C3055 1.376 . S
C3059 C3058 1.392 . S
C3059 H3071 0.929 . S
C3060 C3056 1.531 . S
C3060 H3072 0.960 . S
C3060 H3073 0.962 . S
C3060 H3074 0.960 . S
C3061 C3058 1.511 . S
C3061 H3075 0.961 . S
C3061 H3076 0.961 . S
C3061 H3077 0.961 . S
C3062 C3063 1.370 . S
C3062 C3064 1.363 . S
C3062 H3078 0.931 . S
C3063 C3062 1.370 . S
C3063 C3067 1.408 . S
C3064 C3062 1.363 . S
C3064 C3065 1.370 . S
C3064 C3068 1.524 . S
C3065 C3057 1.503 . S
C3065 C3064 1.370 . S
C3065 C3066 1.403 . S
C3066 C3065 1.403 . S
C3066 C3067 1.404 . S
C3066 C3069 1.539 . S
C3067 C3063 1.408 . S
C3067 C3066 1.404 . S
C3067 H3079 0.930 . S
C3068 C3064 1.524 . S
C3068 H3080 0.956 . S
C3068 H3081 0.961 . S
C3068 H3082 0.961 . S
C3069 C3066 1.539 . S
C3069 H3083 0.958 . S
C3069 H3084 0.961 . S
C3069 H3085 0.960 . S
H3070 C3054 0.931 . S
H3071 C3059 0.929 . S
H3072 C3060 0.960 . S
H3073 C3060 0.962 . S
H3074 C3060 0.960 . S
H3075 C3061 0.961 . S
H3076 C3061 0.961 . S
H3077 C3061 0.961 . S
H3078 C3062 0.931 . S
H3079 C3067 0.930 . S
H3080 C3068 0.956 . S
H3081 C3068 0.961 . S
H3082 C3068 0.961 . S
H3083 C3069 0.958 . S
H3084 C3069 0.961 . S
H3085 C3069 0.960 . S
C3086 C3087 1.391 . S
C3086 C3088 1.394 . S
C3086 H3102 0.931 . S
C3087 C3086 1.391 . S
C3087 C3091 1.376 . S
C3088 C3086 1.394 . S
C3088 C3089 1.369 . S
C3088 C3092 1.531 . S
C3089 C3088 1.369 . S
C3089 C3090 1.410 . S
C3089 C3097 1.503 . S
C3090 C3089 1.410 . S
C3090 C3091 1.392 . S
C3090 C3093 1.511 . S
C3091 C3087 1.376 . S
C3091 C3090 1.392 . S
C3091 H3103 0.929 . S
C3092 C3088 1.531 . S
C3092 H3104 0.960 . S
C3092 H3105 0.962 . S
C3092 H3106 0.960 . S
C3093 C3090 1.511 . S
C3093 H3107 0.961 . S
C3093 H3108 0.961 . S
C3093 H3109 0.961 . S
C3094 C3095 1.370 . S
C3094 C3096 1.363 . S
C3094 H3110 0.931 . S
C3095 C3094 1.370 . S
C3095 C3099 1.408 . S
C3096 C3094 1.363 . S
C3096 C3097 1.370 . S
C3096 C3100 1.524 . S
C3097 C3089 1.503 . S
C3097 C3096 1.370 . S
C3097 C3098 1.403 . S
C3098 C3097 1.403 . S
C3098 C3099 1.404 . S
C3098 C3101 1.539 . S
C3099 C3095 1.408 . S
C3099 C3098 1.404 . S
C3099 H3111 0.930 . S
C3100 C3096 1.524 . S
C3100 H3112 0.956 . S
C3100 H3113 0.961 . S
C3100 H3114 0.961 . S
C3101 C3098 1.539 . S
C3101 H3115 0.958 . S
C3101 H3116 0.961 . S
C3101 H3117 0.960 . S
H3102 C3086 0.931 . S
H3103 C3091 0.929 . S
H3104 C3092 0.960 . S
H3105 C3092 0.962 . S
H3106 C3092 0.960 . S
H3107 C3093 0.961 . S
H3108 C3093 0.961 . S
H3109 C3093 0.961 . S
H3110 C3094 0.931 . S
H3111 C3099 0.930 . S
H3112 C3100 0.956 . S
H3113 C3100 0.961 . S
H3114 C3100 0.961 . S
H3115 C3101 0.958 . S
H3116 C3101 0.961 . S
H3117 C3101 0.960 . S
C3118 C3119 1.391 . S
C3118 C3120 1.394 . S
C3118 H3134 0.931 . S
C3119 C3118 1.391 . S
C3119 C3123 1.376 . S
C3120 C3118 1.394 . S
C3120 C3121 1.369 . S
C3120 C3124 1.531 . S
C3121 C3120 1.369 . S
C3121 C3122 1.410 . S
C3121 C3129 1.503 . S
C3122 C3121 1.410 . S
C3122 C3123 1.392 . S
C3122 C3125 1.511 . S
C3123 C3119 1.376 . S
C3123 C3122 1.392 . S
C3123 H3135 0.929 . S
C3124 C3120 1.531 . S
C3124 H3136 0.960 . S
C3124 H3137 0.962 . S
C3124 H3138 0.960 . S
C3125 C3122 1.511 . S
C3125 H3139 0.961 . S
C3125 H3140 0.961 . S
C3125 H3141 0.961 . S
C3126 C3127 1.370 . S
C3126 C3128 1.363 . S
C3126 H3142 0.931 . S
C3127 C3126 1.370 . S
C3127 C3131 1.408 . S
C3128 C3126 1.363 . S
C3128 C3129 1.370 . S
C3128 C3132 1.524 . S
C3129 C3121 1.503 . S
C3129 C3128 1.370 . S
C3129 C3130 1.403 . S
C3130 C3129 1.403 . S
C3130 C3131 1.404 . S
C3130 C3133 1.539 . S
C3131 C3127 1.408 . S
C3131 C3130 1.404 . S
C3131 H3143 0.930 . S
C3132 C3128 1.524 . S
C3132 H3144 0.956 . S
C3132 H3145 0.961 . S
C3132 H3146 0.961 . S
C3133 C3130 1.539 . S
C3133 H3147 0.958 . S
C3133 H3148 0.961 . S
C3133 H3149 0.960 . S
H3134 C3118 0.931 . S
H3135 C3123 0.929 . S
H3136 C3124 0.960 . S
H3137 C3124 0.962 . S
H3138 C3124 0.960 . S
H3139 C3125 0.961 . S
H3140 C3125 0.961 . S
H3141 C3125 0.961 . S
H3142 C3126 0.931 . S
H3143 C3131 0.930 . S
H3144 C3132 0.956 . S
H3145 C3132 0.961 . S
H3146 C3132 0.961 . S
H3147 C3133 0.958 . S
H3148 C3133 0.961 . S
H3149 C3133 0.960 . S
C3150 C3151 1.391 . S
C3150 C3152 1.394 . S
C3150 H3166 0.931 . S
C3151 C3150 1.391 . S
C3151 C3155 1.376 . S
C3152 C3150 1.394 . S
C3152 C3153 1.369 . S
C3152 C3156 1.531 . S
C3153 C3152 1.369 . S
C3153 C3154 1.410 . S
C3153 C3161 1.503 . S
C3154 C3153 1.410 . S
C3154 C3155 1.392 . S
C3154 C3157 1.511 . S
C3155 C3151 1.376 . S
C3155 C3154 1.392 . S
C3155 H3167 0.929 . S
C3156 C3152 1.531 . S
C3156 H3168 0.960 . S
C3156 H3169 0.962 . S
C3156 H3170 0.960 . S
C3157 C3154 1.511 . S
C3157 H3171 0.961 . S
C3157 H3172 0.961 . S
C3157 H3173 0.961 . S
C3158 C3159 1.370 . S
C3158 C3160 1.363 . S
C3158 H3174 0.931 . S
C3159 C3158 1.370 . S
C3159 C3163 1.408 . S
C3160 C3158 1.363 . S
C3160 C3161 1.370 . S
C3160 C3164 1.524 . S
C3161 C3153 1.503 . S
C3161 C3160 1.370 . S
C3161 C3162 1.403 . S
C3162 C3161 1.403 . S
C3162 C3163 1.404 . S
C3162 C3165 1.539 . S
C3163 C3159 1.408 . S
C3163 C3162 1.404 . S
C3163 H3175 0.930 . S
C3164 C3160 1.524 . S
C3164 H3176 0.956 . S
C3164 H3177 0.961 . S
C3164 H3178 0.961 . S
C3165 C3162 1.539 . S
C3165 H3179 0.958 . S
C3165 H3180 0.961 . S
C3165 H3181 0.960 . S
H3166 C3150 0.931 . S
H3167 C3155 0.929 . S
H3168 C3156 0.960 . S
H3169 C3156 0.962 . S
H3170 C3156 0.960 . S
H3171 C3157 0.961 . S
H3172 C3157 0.961 . S
H3173 C3157 0.961 . S
H3174 C3158 0.931 . S
H3175 C3163 0.930 . S
H3176 C3164 0.956 . S
H3177 C3164 0.961 . S
H3178 C3164 0.961 . S
H3179 C3165 0.958 . S
H3180 C3165 0.961 . S
H3181 C3165 0.960 . S
C3182 C3183 1.391 . S
C3182 C3184 1.394 . S
C3182 H3198 0.931 . S
C3183 C3182 1.391 . S
C3183 C3187 1.376 . S
C3184 C3182 1.394 . S
C3184 C3185 1.369 . S
C3184 C3188 1.531 . S
C3185 C3184 1.369 . S
C3185 C3186 1.410 . S
C3185 C3193 1.503 . S
C3186 C3185 1.410 . S
C3186 C3187 1.392 . S
C3186 C3189 1.511 . S
C3187 C3183 1.376 . S
C3187 C3186 1.392 . S
C3187 H3199 0.929 . S
C3188 C3184 1.531 . S
C3188 H3200 0.960 . S
C3188 H3201 0.962 . S
C3188 H3202 0.960 . S
C3189 C3186 1.511 . S
C3189 H3203 0.961 . S
C3189 H3204 0.961 . S
C3189 H3205 0.961 . S
C3190 C3191 1.370 . S
C3190 C3192 1.363 . S
C3190 H3206 0.931 . S
C3191 C3190 1.370 . S
C3191 C3195 1.408 . S
C3192 C3190 1.363 . S
C3192 C3193 1.370 . S
C3192 C3196 1.524 . S
C3193 C3185 1.503 . S
C3193 C3192 1.370 . S
C3193 C3194 1.403 . S
C3194 C3193 1.403 . S
C3194 C3195 1.404 . S
C3194 C3197 1.539 . S
C3195 C3191 1.408 . S
C3195 C3194 1.404 . S
C3195 H3207 0.930 . S
C3196 C3192 1.524 . S
C3196 H3208 0.956 . S
C3196 H3209 0.961 . S
C3196 H3210 0.961 . S
C3197 C3194 1.539 . S
C3197 H3211 0.958 . S
C3197 H3212 0.961 . S
C3197 H3213 0.960 . S
H3198 C3182 0.931 . S
H3199 C3187 0.929 . S
H3200 C3188 0.960 . S
H3201 C3188 0.962 . S
H3202 C3188 0.960 . S
H3203 C3189 0.961 . S
H3204 C3189 0.961 . S
H3205 C3189 0.961 . S
H3206 C3190 0.931 . S
H3207 C3195 0.930 . S
H3208 C3196 0.956 . S
H3209 C3196 0.961 . S
H3210 C3196 0.961 . S
H3211 C3197 0.958 . S
H3212 C3197 0.961 . S
H3213 C3197 0.960 . S
C3214 C3215 1.391 . S
C3214 C3216 1.394 . S
C3214 H3230 0.931 . S
C3215 C3214 1.391 . S
C3215 C3219 1.376 . S
C3216 C3214 1.394 . S
C3216 C3217 1.369 . S
C3216 C3220 1.531 . S
C3217 C3216 1.369 . S
C3217 C3218 1.410 . S
C3217 C3225 1.503 . S
C3218 C3217 1.410 . S
C3218 C3219 1.392 . S
C3218 C3221 1.511 . S
C3219 C3215 1.376 . S
C3219 C3218 1.392 . S
C3219 H3231 0.929 . S
C3220 C3216 1.531 . S
C3220 H3232 0.960 . S
C3220 H3233 0.962 . S
C3220 H3234 0.960 . S
C3221 C3218 1.511 . S
C3221 H3235 0.961 . S
C3221 H3236 0.961 . S
C3221 H3237 0.961 . S
C3222 C3223 1.370 . S
C3222 C3224 1.363 . S
C3222 H3238 0.931 . S
C3223 C3222 1.370 . S
C3223 C3227 1.408 . S
C3224 C3222 1.363 . S
C3224 C3225 1.370 . S
C3224 C3228 1.524 . S
C3225 C3217 1.503 . S
C3225 C3224 1.370 . S
C3225 C3226 1.403 . S
C3226 C3225 1.403 . S
C3226 C3227 1.404 . S
C3226 C3229 1.539 . S
C3227 C3223 1.408 . S
C3227 C3226 1.404 . S
C3227 H3239 0.930 . S
C3228 C3224 1.524 . S
C3228 H3240 0.956 . S
C3228 H3241 0.961 . S
C3228 H3242 0.961 . S
C3229 C3226 1.539 . S
C3229 H3243 0.958 . S
C3229 H3244 0.961 . S
C3229 H3245 0.960 . S
H3230 C3214 0.931 . S
H3231 C3219 0.929 . S
H3232 C3220 0.960 . S
H3233 C3220 0.962 . S
H3234 C3220 0.960 . S
H3235 C3221 0.961 . S
H3236 C3221 0.961 . S
H3237 C3221 0.961 . S
H3238 C3222 0.931 . S
H3239 C3227 0.930 . S
H3240 C3228 0.956 . S
H3241 C3228 0.961 . S
H3242 C3228 0.961 . S
H3243 C3229 0.958 . S
H3244 C3229 0.961 . S
H3245 C3229 0.960 . S
C3246 C3247 1.391 . S
C3246 C3248 1.394 . S
C3246 H3262 0.931 . S
C3247 C3246 1.391 . S
C3247 C3251 1.376 . S
C3248 C3246 1.394 . S
C3248 C3249 1.369 . S
C3248 C3252 1.531 . S
C3249 C3248 1.369 . S
C3249 C3250 1.410 . S
C3249 C3257 1.503 . S
C3250 C3249 1.410 . S
C3250 C3251 1.392 . S
C3250 C3253 1.511 . S
C3251 C3247 1.376 . S
C3251 C3250 1.392 . S
C3251 H3263 0.929 . S
C3252 C3248 1.531 . S
C3252 H3264 0.960 . S
C3252 H3265 0.962 . S
C3252 H3266 0.960 . S
C3253 C3250 1.511 . S
C3253 H3267 0.961 . S
C3253 H3268 0.961 . S
C3253 H3269 0.961 . S
C3254 C3255 1.370 . S
C3254 C3256 1.363 . S
C3254 H3270 0.931 . S
C3255 C3254 1.370 . S
C3255 C3259 1.408 . S
C3256 C3254 1.363 . S
C3256 C3257 1.370 . S
C3256 C3260 1.524 . S
C3257 C3249 1.503 . S
C3257 C3256 1.370 . S
C3257 C3258 1.403 . S
C3258 C3257 1.403 . S
C3258 C3259 1.404 . S
C3258 C3261 1.539 . S
C3259 C3255 1.408 . S
C3259 C3258 1.404 . S
C3259 H3271 0.930 . S
C3260 C3256 1.524 . S
C3260 H3272 0.956 . S
C3260 H3273 0.961 . S
C3260 H3274 0.961 . S
C3261 C3258 1.539 . S
C3261 H3275 0.958 . S
C3261 H3276 0.961 . S
C3261 H3277 0.960 . S
H3262 C3246 0.931 . S
H3263 C3251 0.929 . S
H3264 C3252 0.960 . S
H3265 C3252 0.962 . S
H3266 C3252 0.960 . S
H3267 C3253 0.961 . S
H3268 C3253 0.961 . S
H3269 C3253 0.961 . S
H3270 C3254 0.931 . S
H3271 C3259 0.930 . S
H3272 C3260 0.956 . S
H3273 C3260 0.961 . S
H3274 C3260 0.961 . S
H3275 C3261 0.958 . S
H3276 C3261 0.961 . S
H3277 C3261 0.960 . S
C3278 C3279 1.391 . S
C3278 C3280 1.394 . S
C3278 H3294 0.931 . S
C3279 C3278 1.391 . S
C3279 C3283 1.376 . S
C3280 C3278 1.394 . S
C3280 C3281 1.369 . S
C3280 C3284 1.531 . S
C3281 C3280 1.369 . S
C3281 C3282 1.410 . S
C3281 C3289 1.503 . S
C3282 C3281 1.410 . S
C3282 C3283 1.392 . S
C3282 C3285 1.511 . S
C3283 C3279 1.376 . S
C3283 C3282 1.392 . S
C3283 H3295 0.929 . S
C3284 C3280 1.531 . S
C3284 H3296 0.960 . S
C3284 H3297 0.962 . S
C3284 H3298 0.960 . S
C3285 C3282 1.511 . S
C3285 H3299 0.961 . S
C3285 H3300 0.961 . S
C3285 H3301 0.961 . S
C3286 C3287 1.370 . S
C3286 C3288 1.363 . S
C3286 H3302 0.931 . S
C3287 C3286 1.370 . S
C3287 C3291 1.408 . S
C3288 C3286 1.363 . S
C3288 C3289 1.370 . S
C3288 C3292 1.524 . S
C3289 C3281 1.503 . S
C3289 C3288 1.370 . S
C3289 C3290 1.403 . S
C3290 C3289 1.403 . S
C3290 C3291 1.404 . S
C3290 C3293 1.539 . S
C3291 C3287 1.408 . S
C3291 C3290 1.404 . S
C3291 H3303 0.930 . S
C3292 C3288 1.524 . S
C3292 H3304 0.956 . S
C3292 H3305 0.961 . S
C3292 H3306 0.961 . S
C3293 C3290 1.539 . S
C3293 H3307 0.958 . S
C3293 H3308 0.961 . S
C3293 H3309 0.960 . S
H3294 C3278 0.931 . S
H3295 C3283 0.929 . S
H3296 C3284 0.960 . S
H3297 C3284 0.962 . S
H3298 C3284 0.960 . S
H3299 C3285 0.961 . S
H3300 C3285 0.961 . S
H3301 C3285 0.961 . S
H3302 C3286 0.931 . S
H3303 C3291 0.930 . S
H3304 C3292 0.956 . S
H3305 C3292 0.961 . S
H3306 C3292 0.961 . S
H3307 C3293 0.958 . S
H3308 C3293 0.961 . S
H3309 C3293 0.960 . S
C3310 C3311 1.391 . S
C3310 C3312 1.394 . S
C3310 H3326 0.931 . S
C3311 C3310 1.391 . S
C3311 C3315 1.376 . S
C3312 C3310 1.394 . S
C3312 C3313 1.369 . S
C3312 C3316 1.531 . S
C3313 C3312 1.369 . S
C3313 C3314 1.410 . S
C3313 C3321 1.503 . S
C3314 C3313 1.410 . S
C3314 C3315 1.392 . S
C3314 C3317 1.511 . S
C3315 C3311 1.376 . S
C3315 C3314 1.392 . S
C3315 H3327 0.929 . S
C3316 C3312 1.531 . S
C3316 H3328 0.960 . S
C3316 H3329 0.962 . S
C3316 H3330 0.960 . S
C3317 C3314 1.511 . S
C3317 H3331 0.961 . S
C3317 H3332 0.961 . S
C3317 H3333 0.961 . S
C3318 C3319 1.370 . S
C3318 C3320 1.363 . S
C3318 H3334 0.931 . S
C3319 C3318 1.370 . S
C3319 C3323 1.408 . S
C3320 C3318 1.363 . S
C3320 C3321 1.370 . S
C3320 C3324 1.524 . S
C3321 C3313 1.503 . S
C3321 C3320 1.370 . S
C3321 C3322 1.403 . S
C3322 C3321 1.403 . S
C3322 C3323 1.404 . S
C3322 C3325 1.539 . S
C3323 C3319 1.408 . S
C3323 C3322 1.404 . S
C3323 H3335 0.930 . S
C3324 C3320 1.524 . S
C3324 H3336 0.956 . S
C3324 H3337 0.961 . S
C3324 H3338 0.961 . S
C3325 C3322 1.539 . S
C3325 H3339 0.958 . S
C3325 H3340 0.961 . S
C3325 H3341 0.960 . S
H3326 C3310 0.931 . S
H3327 C3315 0.929 . S
H3328 C3316 0.960 . S
H3329 C3316 0.962 . S
H3330 C3316 0.960 . S
H3331 C3317 0.961 . S
H3332 C3317 0.961 . S
H3333 C3317 0.961 . S
H3334 C3318 0.931 . S
H3335 C3323 0.930 . S
H3336 C3324 0.956 . S
H3337 C3324 0.961 . S
H3338 C3324 0.961 . S
H3339 C3325 0.958 . S
H3340 C3325 0.961 . S
H3341 C3325 0.960 . S
C3342 C3343 1.391 . S
C3342 C3344 1.394 . S
C3342 H3358 0.931 . S
C3343 C3342 1.391 . S
C3343 C3347 1.376 . S
C3344 C3342 1.394 . S
C3344 C3345 1.369 . S
C3344 C3348 1.531 . S
C3345 C3344 1.369 . S
C3345 C3346 1.410 . S
C3345 C3353 1.503 . S
C3346 C3345 1.410 . S
C3346 C3347 1.392 . S
C3346 C3349 1.511 . S
C3347 C3343 1.376 . S
C3347 C3346 1.392 . S
C3347 H3359 0.929 . S
C3348 C3344 1.531 . S
C3348 H3360 0.960 . S
C3348 H3361 0.962 . S
C3348 H3362 0.960 . S
C3349 C3346 1.511 . S
C3349 H3363 0.961 . S
C3349 H3364 0.961 . S
C3349 H3365 0.961 . S
C3350 C3351 1.370 . S
C3350 C3352 1.363 . S
C3350 H3366 0.931 . S
C3351 C3350 1.370 . S
C3351 C3355 1.408 . S
C3352 C3350 1.363 . S
C3352 C3353 1.370 . S
C3352 C3356 1.524 . S
C3353 C3345 1.503 . S
C3353 C3352 1.370 . S
C3353 C3354 1.403 . S
C3354 C3353 1.403 . S
C3354 C3355 1.404 . S
C3354 C3357 1.539 . S
C3355 C3351 1.408 . S
C3355 C3354 1.404 . S
C3355 H3367 0.930 . S
C3356 C3352 1.524 . S
C3356 H3368 0.956 . S
C3356 H3369 0.961 . S
C3356 H3370 0.961 . S
C3357 C3354 1.539 . S
C3357 H3371 0.958 . S
C3357 H3372 0.961 . S
C3357 H3373 0.960 . S
H3358 C3342 0.931 . S
H3359 C3347 0.929 . S
H3360 C3348 0.960 . S
H3361 C3348 0.962 . S
H3362 C3348 0.960 . S
H3363 C3349 0.961 . S
H3364 C3349 0.961 . S
H3365 C3349 0.961 . S
H3366 C3350 0.931 . S
H3367 C3355 0.930 . S
H3368 C3356 0.956 . S
H3369 C3356 0.961 . S
H3370 C3356 0.961 . S
H3371 C3357 0.958 . S
H3372 C3357 0.961 . S
H3373 C3357 0.960 . S
C3374 C3375 1.391 . S
C3374 C3376 1.394 . S
C3374 H3390 0.931 . S
C3375 C3374 1.391 . S
C3375 C3379 1.376 . S
C3376 C3374 1.394 . S
C3376 C3377 1.369 . S
C3376 C3380 1.531 . S
C3377 C3376 1.369 . S
C3377 C3378 1.410 . S
C3377 C3385 1.503 . S
C3378 C3377 1.410 . S
C3378 C3379 1.392 . S
C3378 C3381 1.511 . S
C3379 C3375 1.376 . S
C3379 C3378 1.392 . S
C3379 H3391 0.929 . S
C3380 C3376 1.531 . S
C3380 H3392 0.960 . S
C3380 H3393 0.962 . S
C3380 H3394 0.960 . S
C3381 C3378 1.511 . S
C3381 H3395 0.961 . S
C3381 H3396 0.961 . S
C3381 H3397 0.961 . S
C3382 C3383 1.370 . S
C3382 C3384 1.363 . S
C3382 H3398 0.931 . S
C3383 C3382 1.370 . S
C3383 C3387 1.408 . S
C3384 C3382 1.363 . S
C3384 C3385 1.370 . S
C3384 C3388 1.524 . S
C3385 C3377 1.503 . S
C3385 C3384 1.370 . S
C3385 C3386 1.403 . S
C3386 C3385 1.403 . S
C3386 C3387 1.404 . S
C3386 C3389 1.539 . S
C3387 C3383 1.408 . S
C3387 C3386 1.404 . S
C3387 H3399 0.930 . S
C3388 C3384 1.524 . S
C3388 H3400 0.956 . S
C3388 H3401 0.961 . S
C3388 H3402 0.961 . S
C3389 C3386 1.539 . S
C3389 H3403 0.958 . S
C3389 H3404 0.961 . S
C3389 H3405 0.960 . S
H3390 C3374 0.931 . S
H3391 C3379 0.929 . S
H3392 C3380 0.960 . S
H3393 C3380 0.962 . S
H3394 C3380 0.960 . S
H3395 C3381 0.961 . S
H3396 C3381 0.961 . S
H3397 C3381 0.961 . S
H3398 C3382 0.931 . S
H3399 C3387 0.930 . S
H3400 C3388 0.956 . S
H3401 C3388 0.961 . S
H3402 C3388 0.961 . S
H3403 C3389 0.958 . S
H3404 C3389 0.961 . S
H3405 C3389 0.960 . S
C3406 C3407 1.391 . S
C3406 C3408 1.394 . S
C3406 H3422 0.931 . S
C3407 C3406 1.391 . S
C3407 C3411 1.376 . S
C3408 C3406 1.394 . S
C3408 C3409 1.369 . S
C3408 C3412 1.531 . S
C3409 C3408 1.369 . S
C3409 C3410 1.410 . S
C3409 C3417 1.503 . S
C3410 C3409 1.410 . S
C3410 C3411 1.392 . S
C3410 C3413 1.511 . S
C3411 C3407 1.376 . S
C3411 C3410 1.392 . S
C3411 H3423 0.929 . S
C3412 C3408 1.531 . S
C3412 H3424 0.960 . S
C3412 H3425 0.962 . S
C3412 H3426 0.960 . S
C3413 C3410 1.511 . S
C3413 H3427 0.961 . S
C3413 H3428 0.961 . S
C3413 H3429 0.961 . S
C3414 C3415 1.370 . S
C3414 C3416 1.363 . S
C3414 H3430 0.931 . S
C3415 C3414 1.370 . S
C3415 C3419 1.408 . S
C3416 C3414 1.363 . S
C3416 C3417 1.370 . S
C3416 C3420 1.524 . S
C3417 C3409 1.503 . S
C3417 C3416 1.370 . S
C3417 C3418 1.403 . S
C3418 C3417 1.403 . S
C3418 C3419 1.404 . S
C3418 C3421 1.539 . S
C3419 C3415 1.408 . S
C3419 C3418 1.404 . S
C3419 H3431 0.930 . S
C3420 C3416 1.524 . S
C3420 H3432 0.956 . S
C3420 H3433 0.961 . S
C3420 H3434 0.961 . S
C3421 C3418 1.539 . S
C3421 H3435 0.958 . S
C3421 H3436 0.961 . S
C3421 H3437 0.960 . S
H3422 C3406 0.931 . S
H3423 C3411 0.929 . S
H3424 C3412 0.960 . S
H3425 C3412 0.962 . S
H3426 C3412 0.960 . S
H3427 C3413 0.961 . S
H3428 C3413 0.961 . S
H3429 C3413 0.961 . S
H3430 C3414 0.931 . S
H3431 C3419 0.930 . S
H3432 C3420 0.956 . S
H3433 C3420 0.961 . S
H3434 C3420 0.961 . S
H3435 C3421 0.958 . S
H3436 C3421 0.961 . S
H3437 C3421 0.960 . S
C3438 C3439 1.391 . S
C3438 C3440 1.394 . S
C3438 H3454 0.931 . S
C3439 C3438 1.391 . S
C3439 C3443 1.376 . S
C3440 C3438 1.394 . S
C3440 C3441 1.369 . S
C3440 C3444 1.531 . S
C3441 C3440 1.369 . S
C3441 C3442 1.410 . S
C3441 C3449 1.503 . S
C3442 C3441 1.410 . S
C3442 C3443 1.392 . S
C3442 C3445 1.511 . S
C3443 C3439 1.376 . S
C3443 C3442 1.392 . S
C3443 H3455 0.929 . S
C3444 C3440 1.531 . S
C3444 H3456 0.960 . S
C3444 H3457 0.962 . S
C3444 H3458 0.960 . S
C3445 C3442 1.511 . S
C3445 H3459 0.961 . S
C3445 H3460 0.961 . S
C3445 H3461 0.961 . S
C3446 C3447 1.370 . S
C3446 C3448 1.363 . S
C3446 H3462 0.931 . S
C3447 C3446 1.370 . S
C3447 C3451 1.408 . S
C3448 C3446 1.363 . S
C3448 C3449 1.370 . S
C3448 C3452 1.524 . S
C3449 C3441 1.503 . S
C3449 C3448 1.370 . S
C3449 C3450 1.403 . S
C3450 C3449 1.403 . S
C3450 C3451 1.404 . S
C3450 C3453 1.539 . S
C3451 C3447 1.408 . S
C3451 C3450 1.404 . S
C3451 H3463 0.930 . S
C3452 C3448 1.524 . S
C3452 H3464 0.956 . S
C3452 H3465 0.961 . S
C3452 H3466 0.961 . S
C3453 C3450 1.539 . S
C3453 H3467 0.958 . S
C3453 H3468 0.961 . S
C3453 H3469 0.960 . S
H3454 C3438 0.931 . S
H3455 C3443 0.929 . S
H3456 C3444 0.960 . S
H3457 C3444 0.962 . S
H3458 C3444 0.960 . S
H3459 C3445 0.961 . S
H3460 C3445 0.961 . S
H3461 C3445 0.961 . S
H3462 C3446 0.931 . S
H3463 C3451 0.930 . S
H3464 C3452 0.956 . S
H3465 C3452 0.961 . S
H3466 C3452 0.961 . S
H3467 C3453 0.958 . S
H3468 C3453 0.961 . S
H3469 C3453 0.960 . S
C3470 C3471 1.391 . S
C3470 C3472 1.394 . S
C3470 H3486 0.931 . S
C3471 C3470 1.391 . S
C3471 C3475 1.376 . S
C3472 C3470 1.394 . S
C3472 C3473 1.369 . S
C3472 C3476 1.531 . S
C3473 C3472 1.369 . S
C3473 C3474 1.410 . S
C3473 C3481 1.503 . S
C3474 C3473 1.410 . S
C3474 C3475 1.392 . S
C3474 C3477 1.511 . S
C3475 C3471 1.376 . S
C3475 C3474 1.392 . S
C3475 H3487 0.929 . S
C3476 C3472 1.531 . S
C3476 H3488 0.960 . S
C3476 H3489 0.962 . S
C3476 H3490 0.960 . S
C3477 C3474 1.511 . S
C3477 H3491 0.961 . S
C3477 H3492 0.961 . S
C3477 H3493 0.961 . S
C3478 C3479 1.370 . S
C3478 C3480 1.363 . S
C3478 H3494 0.931 . S
C3479 C3478 1.370 . S
C3479 C3483 1.408 . S
C3480 C3478 1.363 . S
C3480 C3481 1.370 . S
C3480 C3484 1.524 . S
C3481 C3473 1.503 . S
C3481 C3480 1.370 . S
C3481 C3482 1.403 . S
C3482 C3481 1.403 . S
C3482 C3483 1.404 . S
C3482 C3485 1.539 . S
C3483 C3479 1.408 . S
C3483 C3482 1.404 . S
C3483 H3495 0.930 . S
C3484 C3480 1.524 . S
C3484 H3496 0.956 . S
C3484 H3497 0.961 . S
C3484 H3498 0.961 . S
C3485 C3482 1.539 . S
C3485 H3499 0.958 . S
C3485 H3500 0.961 . S
C3485 H3501 0.960 . S
H3486 C3470 0.931 . S
H3487 C3475 0.929 . S
H3488 C3476 0.960 . S
H3489 C3476 0.962 . S
H3490 C3476 0.960 . S
H3491 C3477 0.961 . S
H3492 C3477 0.961 . S
H3493 C3477 0.961 . S
H3494 C3478 0.931 . S
H3495 C3483 0.930 . S
H3496 C3484 0.956 . S
H3497 C3484 0.961 . S
H3498 C3484 0.961 . S
H3499 C3485 0.958 . S
H3500 C3485 0.961 . S
H3501 C3485 0.960 . S
C3502 C3503 1.391 . S
C3502 C3504 1.394 . S
C3502 H3518 0.931 . S
C3503 C3502 1.391 . S
C3503 C3507 1.376 . S
C3504 C3502 1.394 . S
C3504 C3505 1.369 . S
C3504 C3508 1.531 . S
C3505 C3504 1.369 . S
C3505 C3506 1.410 . S
C3505 C3513 1.503 . S
C3506 C3505 1.410 . S
C3506 C3507 1.392 . S
C3506 C3509 1.511 . S
C3507 C3503 1.376 . S
C3507 C3506 1.392 . S
C3507 H3519 0.929 . S
C3508 C3504 1.531 . S
C3508 H3520 0.960 . S
C3508 H3521 0.962 . S
C3508 H3522 0.960 . S
C3509 C3506 1.511 . S
C3509 H3523 0.961 . S
C3509 H3524 0.961 . S
C3509 H3525 0.961 . S
C3510 C3511 1.370 . S
C3510 C3512 1.363 . S
C3510 H3526 0.931 . S
C3511 C3510 1.370 . S
C3511 C3515 1.408 . S
C3512 C3510 1.363 . S
C3512 C3513 1.370 . S
C3512 C3516 1.524 . S
C3513 C3505 1.503 . S
C3513 C3512 1.370 . S
C3513 C3514 1.403 . S
C3514 C3513 1.403 . S
C3514 C3515 1.404 . S
C3514 C3517 1.539 . S
C3515 C3511 1.408 . S
C3515 C3514 1.404 . S
C3515 H3527 0.930 . S
C3516 C3512 1.524 . S
C3516 H3528 0.956 . S
C3516 H3529 0.961 . S
C3516 H3530 0.961 . S
C3517 C3514 1.539 . S
C3517 H3531 0.958 . S
C3517 H3532 0.961 . S
C3517 H3533 0.960 . S
H3518 C3502 0.931 . S
H3519 C3507 0.929 . S
H3520 C3508 0.960 . S
H3521 C3508 0.962 . S
H3522 C3508 0.960 . S
H3523 C3509 0.961 . S
H3524 C3509 0.961 . S
H3525 C3509 0.961 . S
H3526 C3510 0.931 . S
H3527 C3515 0.930 . S
H3528 C3516 0.956 . S
H3529 C3516 0.961 . S
H3530 C3516 0.961 . S
H3531 C3517 0.958 . S
H3532 C3517 0.961 . S
H3533 C3517 0.960 . S
C3534 C3535 1.391 . S
C3534 C3536 1.394 . S
C3534 H3550 0.931 . S
C3535 C3534 1.391 . S
C3535 C3539 1.376 . S
C3536 C3534 1.394 . S
C3536 C3537 1.369 . S
C3536 C3540 1.531 . S
C3537 C3536 1.369 . S
C3537 C3538 1.410 . S
C3537 C3545 1.503 . S
C3538 C3537 1.410 . S
C3538 C3539 1.392 . S
C3538 C3541 1.511 . S
C3539 C3535 1.376 . S
C3539 C3538 1.392 . S
C3539 H3551 0.929 1_556 S
C3540 C3536 1.531 . S
C3540 H3552 0.960 . S
C3540 H3553 0.962 . S
C3540 H3554 0.960 . S
C3541 C3538 1.511 . S
C3541 H3555 0.961 1_556 S
C3541 H3556 0.961 . S
C3541 H3557 0.945 1_556 S
C3542 C3543 1.370 . S
C3542 C3544 1.363 . S
C3542 H3558 0.931 . S
C3543 C3542 1.370 . S
C3543 C3547 1.408 . S
C3544 C3542 1.363 . S
C3544 C3545 1.370 . S
C3544 C3548 1.524 . S
C3545 C3537 1.503 . S
C3545 C3544 1.370 . S
C3545 C3546 1.403 . S
C3546 C3545 1.403 . S
C3546 C3547 1.404 . S
C3546 C3549 1.539 . S
C3547 C3543 1.408 . S
C3547 C3546 1.404 . S
C3547 H3559 0.930 . S
C3548 C3544 1.524 . S
C3548 H3560 0.956 . S
C3548 H3561 0.961 . S
C3548 H3562 0.961 . S
C3549 C3546 1.539 . S
C3549 H3563 0.958 . S
C3549 H3564 0.961 . S
C3549 H3565 0.960 . S
H3550 C3534 0.931 . S
H3551 C3539 0.929 1_554 S
H3552 C3540 0.960 . S
H3553 C3540 0.962 . S
H3554 C3540 0.960 . S
H3555 C3541 0.961 1_554 S
H3556 C3541 0.961 . S
H3557 C3541 0.945 1_554 S
H3558 C3542 0.931 . S
H3559 C3547 0.930 . S
H3560 C3548 0.956 . S
H3561 C3548 0.961 . S
H3562 C3548 0.961 . S
H3563 C3549 0.958 . S
H3564 C3549 0.961 . S
H3565 C3549 0.960 . S
C3566 C3567 1.391 . S
C3566 C3568 1.394 . S
C3566 H3582 0.931 . S
C3567 C3566 1.391 . S
C3567 C3571 1.376 . S
C3568 C3566 1.394 . S
C3568 C3569 1.369 . S
C3568 C3572 1.531 . S
C3569 C3568 1.369 . S
C3569 C3570 1.410 . S
C3569 C3577 1.503 . S
C3570 C3569 1.410 . S
C3570 C3571 1.392 . S
C3570 C3573 1.511 . S
C3571 C3567 1.376 . S
C3571 C3570 1.392 . S
C3571 H3583 0.929 . S
C3572 C3568 1.531 . S
C3572 H3584 0.960 . S
C3572 H3585 0.962 . S
C3572 H3586 0.960 . S
C3573 C3570 1.511 . S
C3573 H3587 0.961 . S
C3573 H3588 0.961 . S
C3573 H3589 0.961 . S
C3574 C3575 1.370 . S
C3574 C3576 1.363 . S
C3574 H3590 0.931 . S
C3575 C3574 1.370 . S
C3575 C3579 1.408 . S
C3576 C3574 1.363 . S
C3576 C3577 1.370 . S
C3576 C3580 1.524 . S
C3577 C3569 1.503 . S
C3577 C3576 1.370 . S
C3577 C3578 1.403 . S
C3578 C3577 1.403 . S
C3578 C3579 1.404 . S
C3578 C3581 1.539 . S
C3579 C3575 1.408 . S
C3579 C3578 1.404 . S
C3579 H3591 0.930 . S
C3580 C3576 1.524 . S
C3580 H3592 0.956 . S
C3580 H3593 0.961 . S
C3580 H3594 0.961 . S
C3581 C3578 1.539 . S
C3581 H3595 0.958 . S
C3581 H3596 0.961 . S
C3581 H3597 0.960 . S
H3582 C3566 0.931 . S
H3583 C3571 0.929 . S
H3584 C3572 0.960 . S
H3585 C3572 0.962 . S
H3586 C3572 0.960 . S
H3587 C3573 0.961 . S
H3588 C3573 0.961 . S
H3589 C3573 0.961 . S
H3590 C3574 0.931 . S
H3591 C3579 0.930 . S
H3592 C3580 0.956 . S
H3593 C3580 0.961 . S
H3594 C3580 0.961 . S
H3595 C3581 0.958 . S
H3596 C3581 0.961 . S
H3597 C3581 0.960 . S
C3598 C3599 1.402 . S
C3598 C3600 1.404 . S
C3598 H3614 0.909 1_556 S
C3599 C3598 1.402 . S
C3599 C3603 1.376 . S
C3600 C3598 1.404 . S
C3600 C3601 1.369 . S
C3600 C3604 1.531 1_556 S
C3601 C3600 1.369 . S
C3601 C3602 1.410 . S
C3601 C3609 1.503 . S
C3602 C3601 1.410 . S
C3602 C3603 1.392 . S
C3602 C3605 1.511 . S
C3603 C3599 1.376 . S
C3603 C3602 1.392 . S
C3603 H3615 0.929 . S
C3604 C3600 1.531 1_554 S
C3604 H3616 0.960 1_554 S
C3604 H3617 0.962 . S
C3604 H3618 0.960 . S
C3605 C3602 1.511 . S
C3605 H3619 0.961 . S
C3605 H3620 0.961 . S
C3605 H3621 0.961 . S
C3606 C3607 1.370 . S
C3606 C3608 1.363 . S
C3606 H3622 0.931 . S
C3607 C3606 1.370 . S
C3607 C3611 1.408 . S
C3608 C3606 1.363 . S
C3608 C3609 1.370 . S
C3608 C3612 1.524 . S
C3609 C3601 1.503 . S
C3609 C3608 1.370 . S
C3609 C3610 1.403 . S
C3610 C3609 1.403 . S
C3610 C3611 1.404 . S
C3610 C3613 1.539 . S
C3611 C3607 1.408 . S
C3611 C3610 1.404 . S
C3611 H3623 0.930 . S
C3612 C3608 1.524 . S
C3612 H3624 0.956 . S
C3612 H3625 0.961 . S
C3612 H3626 0.961 . S
C3613 C3610 1.539 . S
C3613 H3627 0.958 . S
C3613 H3628 0.961 . S
C3613 H3629 0.960 . S
H3614 C3598 0.909 1_554 S
H3615 C3603 0.929 . S
H3616 C3604 0.960 1_556 S
H3617 C3604 0.962 . S
H3618 C3604 0.960 . S
H3619 C3605 0.961 . S
H3620 C3605 0.961 . S
H3621 C3605 0.961 . S
H3622 C3606 0.931 . S
H3623 C3611 0.930 . S
H3624 C3612 0.956 . S
H3625 C3612 0.961 . S
H3626 C3612 0.961 . S
H3627 C3613 0.958 . S
H3628 C3613 0.961 . S
H3629 C3613 0.960 . S
C3630 C3631 1.391 . S
C3630 C3632 1.394 . S
C3630 H3646 0.931 1_556 S
C3631 C3630 1.391 . S
C3631 C3635 1.376 . S
C3632 C3630 1.394 . S
C3632 C3633 1.369 . S
C3632 C3636 1.531 . S
C3633 C3632 1.369 . S
C3633 C3634 1.410 . S
C3633 C3641 1.503 . S
C3634 C3633 1.410 . S
C3634 C3635 1.392 . S
C3634 C3637 1.511 . S
C3635 C3631 1.376 . S
C3635 C3634 1.392 . S
C3635 H3647 0.929 . S
C3636 C3632 1.531 . S
C3636 H3648 0.960 . S
C3636 H3649 0.962 . S
C3636 H3650 0.960 1_556 S
C3637 C3634 1.511 . S
C3637 H3651 0.961 . S
C3637 H3652 0.961 . S
C3637 H3653 0.961 . S
C3638 C3639 1.370 . S
C3638 C3640 1.363 . S
C3638 H3654 0.931 . S
C3639 C3638 1.370 . S
C3639 C3643 1.408 . S
C3640 C3638 1.363 . S
C3640 C3641 1.370 . S
C3640 C3644 1.524 . S
C3641 C3633 1.503 . S
C3641 C3640 1.370 . S
C3641 C3642 1.403 . S
C3642 C3641 1.403 . S
C3642 C3643 1.404 . S
C3642 C3645 1.539 . S
C3643 C3639 1.408 . S
C3643 C3642 1.404 . S
C3643 H3655 0.930 . S
C3644 C3640 1.524 . S
C3644 H3656 0.956 . S
C3644 H3657 0.961 . S
C3644 H3658 0.961 . S
C3645 C3642 1.539 . S
C3645 H3659 0.958 . S
C3645 H3660 0.961 . S
C3645 H3661 0.960 . S
H3646 C3630 0.931 1_554 S
H3647 C3635 0.929 . S
H3648 C3636 0.960 . S
H3649 C3636 0.962 . S
H3650 C3636 0.960 1_554 S
H3651 C3637 0.961 . S
H3652 C3637 0.961 . S
H3653 C3637 0.961 . S
H3654 C3638 0.931 . S
H3655 C3643 0.930 . S
H3656 C3644 0.956 . S
H3657 C3644 0.961 . S
H3658 C3644 0.961 . S
H3659 C3645 0.958 . S
H3660 C3645 0.961 . S
H3661 C3645 0.960 . S
C3662 C3663 1.391 . S
C3662 C3664 1.394 . S
C3662 H3678 0.931 . S
C3663 C3662 1.391 . S
C3663 C3667 1.376 . S
C3664 C3662 1.394 . S
C3664 C3665 1.369 . S
C3664 C3668 1.531 . S
C3665 C3664 1.369 . S
C3665 C3666 1.410 . S
C3665 C3673 1.503 . S
C3666 C3665 1.410 . S
C3666 C3667 1.392 . S
C3666 C3669 1.511 . S
C3667 C3663 1.376 . S
C3667 C3666 1.392 . S
C3667 H3679 0.929 . S
C3668 C3664 1.531 . S
C3668 H3680 0.960 . S
C3668 H3681 0.962 . S
C3668 H3682 0.960 . S
C3669 C3666 1.511 . S
C3669 H3683 0.961 . S
C3669 H3684 0.961 . S
C3669 H3685 0.961 . S
C3670 C3671 1.370 . S
C3670 C3672 1.363 . S
C3670 H3686 0.931 . S
C3671 C3670 1.370 . S
C3671 C3675 1.408 . S
C3672 C3670 1.363 . S
C3672 C3673 1.370 . S
C3672 C3676 1.524 . S
C3673 C3665 1.503 . S
C3673 C3672 1.370 . S
C3673 C3674 1.403 . S
C3674 C3673 1.403 . S
C3674 C3675 1.404 . S
C3674 C3677 1.539 . S
C3675 C3671 1.408 . S
C3675 C3674 1.404 . S
C3675 H3687 0.930 . S
C3676 C3672 1.524 . S
C3676 H3688 0.956 . S
C3676 H3689 0.961 . S
C3676 H3690 0.961 . S
C3677 C3674 1.539 . S
C3677 H3691 0.958 . S
C3677 H3692 0.961 . S
C3677 H3693 0.960 . S
H3678 C3662 0.931 . S
H3679 C3667 0.929 . S
H3680 C3668 0.960 . S
H3681 C3668 0.962 . S
H3682 C3668 0.960 . S
H3683 C3669 0.961 . S
H3684 C3669 0.961 . S
H3685 C3669 0.961 . S
H3686 C3670 0.931 . S
H3687 C3675 0.930 . S
H3688 C3676 0.956 . S
H3689 C3676 0.961 . S
H3690 C3676 0.961 . S
H3691 C3677 0.958 . S
H3692 C3677 0.961 . S
H3693 C3677 0.960 . S
C3694 C3695 1.391 . S
C3694 C3696 1.394 . S
C3694 H3710 0.931 . S
C3695 C3694 1.391 . S
C3695 C3699 1.376 . S
C3696 C3694 1.394 . S
C3696 C3697 1.369 . S
C3696 C3700 1.531 . S
C3697 C3696 1.369 . S
C3697 C3698 1.410 . S
C3697 C3705 1.503 . S
C3698 C3697 1.410 . S
C3698 C3699 1.392 . S
C3698 C3701 1.511 . S
C3699 C3695 1.376 . S
C3699 C3698 1.392 . S
C3699 H3711 0.929 . S
C3700 C3696 1.531 . S
C3700 H3712 0.960 . S
C3700 H3713 0.962 . S
C3700 H3714 0.960 . S
C3701 C3698 1.511 . S
C3701 H3715 0.961 . S
C3701 H3716 0.961 . S
C3701 H3717 0.961 . S
C3702 C3703 1.370 . S
C3702 C3704 1.363 . S
C3702 H3718 0.931 . S
C3703 C3702 1.370 . S
C3703 C3707 1.408 . S
C3704 C3702 1.363 . S
C3704 C3705 1.370 . S
C3704 C3708 1.524 . S
C3705 C3697 1.503 . S
C3705 C3704 1.370 . S
C3705 C3706 1.403 . S
C3706 C3705 1.403 . S
C3706 C3707 1.404 . S
C3706 C3709 1.539 . S
C3707 C3703 1.408 . S
C3707 C3706 1.404 . S
C3707 H3719 0.930 . S
C3708 C3704 1.524 . S
C3708 H3720 0.956 . S
C3708 H3721 0.961 . S
C3708 H3722 0.961 . S
C3709 C3706 1.539 . S
C3709 H3723 0.958 . S
C3709 H3724 0.961 . S
C3709 H3725 0.960 . S
H3710 C3694 0.931 . S
H3711 C3699 0.929 . S
H3712 C3700 0.960 . S
H3713 C3700 0.962 . S
H3714 C3700 0.960 . S
H3715 C3701 0.961 . S
H3716 C3701 0.961 . S
H3717 C3701 0.961 . S
H3718 C3702 0.931 . S
H3719 C3707 0.930 . S
H3720 C3708 0.956 . S
H3721 C3708 0.961 . S
H3722 C3708 0.961 . S
H3723 C3709 0.958 . S
H3724 C3709 0.961 . S
H3725 C3709 0.960 . S
C3726 C3727 1.391 . S
C3726 C3728 1.394 . S
C3726 H3742 0.931 . S
C3727 C3726 1.391 . S
C3727 C3731 1.376 . S
C3728 C3726 1.394 . S
C3728 C3729 1.369 . S
C3728 C3732 1.531 . S
C3729 C3728 1.369 . S
C3729 C3730 1.410 . S
C3729 C3737 1.503 . S
C3730 C3729 1.410 . S
C3730 C3731 1.392 . S
C3730 C3733 1.511 . S
C3731 C3727 1.376 . S
C3731 C3730 1.392 . S
C3731 H3743 0.929 . S
C3732 C3728 1.531 . S
C3732 H3744 0.960 . S
C3732 H3745 0.962 . S
C3732 H3746 0.960 . S
C3733 C3730 1.511 . S
C3733 H3747 0.961 . S
C3733 H3748 0.961 . S
C3733 H3749 0.961 . S
C3734 C3735 1.370 . S
C3734 C3736 1.363 . S
C3734 H3750 0.931 . S
C3735 C3734 1.370 . S
C3735 C3739 1.408 . S
C3736 C3734 1.363 . S
C3736 C3737 1.370 . S
C3736 C3740 1.524 . S
C3737 C3729 1.503 . S
C3737 C3736 1.370 . S
C3737 C3738 1.403 . S
C3738 C3737 1.403 . S
C3738 C3739 1.404 . S
C3738 C3741 1.539 . S
C3739 C3735 1.408 . S
C3739 C3738 1.404 . S
C3739 H3751 0.930 . S
C3740 C3736 1.524 . S
C3740 H3752 0.956 . S
C3740 H3753 0.961 . S
C3740 H3754 0.961 . S
C3741 C3738 1.539 . S
C3741 H3755 0.958 . S
C3741 H3756 0.961 . S
C3741 H3757 0.960 . S
H3742 C3726 0.931 . S
H3743 C3731 0.929 . S
H3744 C3732 0.960 . S
H3745 C3732 0.962 . S
H3746 C3732 0.960 . S
H3747 C3733 0.961 . S
H3748 C3733 0.961 . S
H3749 C3733 0.961 . S
H3750 C3734 0.931 . S
H3751 C3739 0.930 . S
H3752 C3740 0.956 . S
H3753 C3740 0.961 . S
H3754 C3740 0.961 . S
H3755 C3741 0.958 . S
H3756 C3741 0.961 . S
H3757 C3741 0.960 . S
C3758 C3759 1.391 . S
C3758 C3760 1.394 . S
C3758 H3774 0.931 . S
C3759 C3758 1.391 . S
C3759 C3763 1.376 . S
C3760 C3758 1.394 . S
C3760 C3761 1.369 . S
C3760 C3764 1.531 . S
C3761 C3760 1.369 . S
C3761 C3762 1.410 . S
C3761 C3769 1.503 . S
C3762 C3761 1.410 . S
C3762 C3763 1.392 . S
C3762 C3765 1.511 . S
C3763 C3759 1.376 . S
C3763 C3762 1.392 . S
C3763 H3775 0.929 . S
C3764 C3760 1.531 . S
C3764 H3776 0.960 . S
C3764 H3777 0.962 . S
C3764 H3778 0.960 . S
C3765 C3762 1.511 . S
C3765 H3779 0.961 . S
C3765 H3780 0.961 . S
C3765 H3781 0.961 . S
C3766 C3767 1.370 . S
C3766 C3768 1.363 . S
C3766 H3782 0.931 . S
C3767 C3766 1.370 . S
C3767 C3771 1.408 . S
C3768 C3766 1.363 . S
C3768 C3769 1.370 . S
C3768 C3772 1.524 . S
C3769 C3761 1.503 . S
C3769 C3768 1.370 . S
C3769 C3770 1.403 . S
C3770 C3769 1.403 . S
C3770 C3771 1.404 . S
C3770 C3773 1.539 . S
C3771 C3767 1.408 . S
C3771 C3770 1.404 . S
C3771 H3783 0.930 . S
C3772 C3768 1.524 . S
C3772 H3784 0.956 . S
C3772 H3785 0.961 . S
C3772 H3786 0.961 . S
C3773 C3770 1.539 . S
C3773 H3787 0.958 . S
C3773 H3788 0.961 . S
C3773 H3789 0.960 . S
H3774 C3758 0.931 . S
H3775 C3763 0.929 . S
H3776 C3764 0.960 . S
H3777 C3764 0.962 . S
H3778 C3764 0.960 . S
H3779 C3765 0.961 . S
H3780 C3765 0.961 . S
H3781 C3765 0.961 . S
H3782 C3766 0.931 . S
H3783 C3771 0.930 . S
H3784 C3772 0.956 . S
H3785 C3772 0.961 . S
H3786 C3772 0.961 . S
H3787 C3773 0.958 . S
H3788 C3773 0.961 . S
H3789 C3773 0.960 . S
C3790 C3791 1.391 . S
C3790 C3792 1.394 . S
C3790 H3806 0.931 . S
C3791 C3790 1.391 . S
C3791 C3795 1.376 . S
C3792 C3790 1.394 . S
C3792 C3793 1.369 . S
C3792 C3796 1.531 . S
C3793 C3792 1.369 . S
C3793 C3794 1.410 . S
C3793 C3801 1.503 . S
C3794 C3793 1.410 . S
C3794 C3795 1.392 . S
C3794 C3797 1.511 . S
C3795 C3791 1.376 . S
C3795 C3794 1.392 . S
C3795 H3807 0.929 . S
C3796 C3792 1.531 . S
C3796 H3808 0.960 . S
C3796 H3809 0.962 . S
C3796 H3810 0.960 . S
C3797 C3794 1.511 . S
C3797 H3811 0.961 . S
C3797 H3812 0.961 . S
C3797 H3813 0.961 . S
C3798 C3799 1.370 . S
C3798 C3800 1.363 . S
C3798 H3814 0.931 . S
C3799 C3798 1.370 . S
C3799 C3803 1.408 . S
C3800 C3798 1.363 . S
C3800 C3801 1.370 . S
C3800 C3804 1.524 . S
C3801 C3793 1.503 . S
C3801 C3800 1.370 . S
C3801 C3802 1.403 . S
C3802 C3801 1.403 . S
C3802 C3803 1.404 . S
C3802 C3805 1.539 . S
C3803 C3799 1.408 . S
C3803 C3802 1.404 . S
C3803 H3815 0.930 . S
C3804 C3800 1.524 . S
C3804 H3816 0.956 . S
C3804 H3817 0.961 . S
C3804 H3818 0.961 . S
C3805 C3802 1.539 . S
C3805 H3819 0.958 . S
C3805 H3820 0.961 . S
C3805 H3821 0.960 . S
H3806 C3790 0.931 . S
H3807 C3795 0.929 . S
H3808 C3796 0.960 . S
H3809 C3796 0.962 . S
H3810 C3796 0.960 . S
H3811 C3797 0.961 . S
H3812 C3797 0.961 . S
H3813 C3797 0.961 . S
H3814 C3798 0.931 . S
H3815 C3803 0.930 . S
H3816 C3804 0.956 . S
H3817 C3804 0.961 . S
H3818 C3804 0.961 . S
H3819 C3805 0.958 . S
H3820 C3805 0.961 . S
H3821 C3805 0.960 . S
C3822 C3823 1.391 . S
C3822 C3824 1.394 . S
C3822 H3838 0.931 . S
C3823 C3822 1.391 . S
C3823 C3827 1.376 . S
C3824 C3822 1.394 . S
C3824 C3825 1.369 . S
C3824 C3828 1.531 . S
C3825 C3824 1.369 . S
C3825 C3826 1.410 . S
C3825 C3833 1.503 . S
C3826 C3825 1.410 . S
C3826 C3827 1.392 . S
C3826 C3829 1.511 . S
C3827 C3823 1.376 . S
C3827 C3826 1.392 . S
C3827 H3839 0.929 . S
C3828 C3824 1.531 . S
C3828 H3840 0.960 . S
C3828 H3841 0.962 . S
C3828 H3842 0.960 . S
C3829 C3826 1.511 . S
C3829 H3843 0.961 . S
C3829 H3844 0.961 . S
C3829 H3845 0.961 . S
C3830 C3831 1.370 . S
C3830 C3832 1.363 . S
C3830 H3846 0.931 . S
C3831 C3830 1.370 . S
C3831 C3835 1.408 . S
C3832 C3830 1.363 . S
C3832 C3833 1.370 . S
C3832 C3836 1.524 . S
C3833 C3825 1.503 . S
C3833 C3832 1.370 . S
C3833 C3834 1.403 . S
C3834 C3833 1.403 . S
C3834 C3835 1.404 . S
C3834 C3837 1.539 . S
C3835 C3831 1.408 . S
C3835 C3834 1.404 . S
C3835 H3847 0.930 . S
C3836 C3832 1.524 . S
C3836 H3848 0.956 . S
C3836 H3849 0.961 . S
C3836 H3850 0.961 . S
C3837 C3834 1.539 . S
C3837 H3851 0.958 . S
C3837 H3852 0.961 . S
C3837 H3853 0.960 . S
H3838 C3822 0.931 . S
H3839 C3827 0.929 . S
H3840 C3828 0.960 . S
H3841 C3828 0.962 . S
H3842 C3828 0.960 . S
H3843 C3829 0.961 . S
H3844 C3829 0.961 . S
H3845 C3829 0.961 . S
H3846 C3830 0.931 . S
H3847 C3835 0.930 . S
H3848 C3836 0.956 . S
H3849 C3836 0.961 . S
H3850 C3836 0.961 . S
H3851 C3837 0.958 . S
H3852 C3837 0.961 . S
H3853 C3837 0.960 . S
C3854 C3855 1.391 . S
C3854 C3856 1.394 . S
C3854 H3870 0.931 . S
C3855 C3854 1.391 . S
C3855 C3859 1.376 . S
C3856 C3854 1.394 . S
C3856 C3857 1.369 . S
C3856 C3860 1.531 . S
C3857 C3856 1.369 . S
C3857 C3858 1.410 . S
C3857 C3865 1.503 . S
C3858 C3857 1.410 . S
C3858 C3859 1.392 . S
C3858 C3861 1.511 . S
C3859 C3855 1.376 . S
C3859 C3858 1.392 . S
C3859 H3871 0.929 . S
C3860 C3856 1.531 . S
C3860 H3872 0.960 . S
C3860 H3873 0.962 . S
C3860 H3874 0.960 . S
C3861 C3858 1.511 . S
C3861 H3875 0.961 . S
C3861 H3876 0.961 . S
C3861 H3877 0.961 . S
C3862 C3863 1.370 . S
C3862 C3864 1.363 . S
C3862 H3878 0.931 . S
C3863 C3862 1.370 . S
C3863 C3867 1.408 . S
C3864 C3862 1.363 . S
C3864 C3865 1.370 . S
C3864 C3868 1.524 . S
C3865 C3857 1.503 . S
C3865 C3864 1.370 . S
C3865 C3866 1.403 . S
C3866 C3865 1.403 . S
C3866 C3867 1.404 . S
C3866 C3869 1.539 . S
C3867 C3863 1.408 . S
C3867 C3866 1.404 . S
C3867 H3879 0.930 . S
C3868 C3864 1.524 . S
C3868 H3880 0.956 . S
C3868 H3881 0.961 . S
C3868 H3882 0.961 . S
C3869 C3866 1.539 . S
C3869 H3883 0.958 . S
C3869 H3884 0.961 . S
C3869 H3885 0.960 . S
H3870 C3854 0.931 . S
H3871 C3859 0.929 . S
H3872 C3860 0.960 . S
H3873 C3860 0.962 . S
H3874 C3860 0.960 . S
H3875 C3861 0.961 . S
H3876 C3861 0.961 . S
H3877 C3861 0.961 . S
H3878 C3862 0.931 . S
H3879 C3867 0.930 . S
H3880 C3868 0.956 . S
H3881 C3868 0.961 . S
H3882 C3868 0.961 . S
H3883 C3869 0.958 . S
H3884 C3869 0.961 . S
H3885 C3869 0.960 . S
C3886 C3887 1.391 . S
C3886 C3888 1.394 . S
C3886 H3902 0.931 . S
C3887 C3886 1.391 . S
C3887 C3891 1.376 . S
C3888 C3886 1.394 . S
C3888 C3889 1.369 . S
C3888 C3892 1.531 . S
C3889 C3888 1.369 . S
C3889 C3890 1.410 . S
C3889 C3897 1.503 . S
C3890 C3889 1.410 . S
C3890 C3891 1.392 . S
C3890 C3893 1.511 . S
C3891 C3887 1.376 . S
C3891 C3890 1.392 . S
C3891 H3903 0.929 . S
C3892 C3888 1.531 . S
C3892 H3904 0.960 . S
C3892 H3905 0.962 . S
C3892 H3906 0.960 . S
C3893 C3890 1.511 . S
C3893 H3907 0.961 . S
C3893 H3908 0.961 . S
C3893 H3909 0.961 . S
C3894 C3895 1.370 . S
C3894 C3896 1.363 . S
C3894 H3910 0.931 . S
C3895 C3894 1.370 . S
C3895 C3899 1.408 . S
C3896 C3894 1.363 . S
C3896 C3897 1.370 . S
C3896 C3900 1.524 . S
C3897 C3889 1.503 . S
C3897 C3896 1.370 . S
C3897 C3898 1.403 . S
C3898 C3897 1.403 . S
C3898 C3899 1.404 . S
C3898 C3901 1.539 . S
C3899 C3895 1.408 . S
C3899 C3898 1.404 . S
C3899 H3911 0.930 . S
C3900 C3896 1.524 . S
C3900 H3912 0.956 . S
C3900 H3913 0.961 . S
C3900 H3914 0.961 . S
C3901 C3898 1.539 . S
C3901 H3915 0.958 . S
C3901 H3916 0.961 . S
C3901 H3917 0.960 . S
H3902 C3886 0.931 . S
H3903 C3891 0.929 . S
H3904 C3892 0.960 . S
H3905 C3892 0.962 . S
H3906 C3892 0.960 . S
H3907 C3893 0.961 . S
H3908 C3893 0.961 . S
H3909 C3893 0.961 . S
H3910 C3894 0.931 . S
H3911 C3899 0.930 . S
H3912 C3900 0.956 . S
H3913 C3900 0.961 . S
H3914 C3900 0.961 . S
H3915 C3901 0.958 . S
H3916 C3901 0.961 . S
H3917 C3901 0.960 . S
C3918 C3919 1.391 . S
C3918 C3920 1.394 . S
C3918 H3934 0.931 . S
C3919 C3918 1.391 . S
C3919 C3923 1.376 . S
C3920 C3918 1.394 . S
C3920 C3921 1.369 . S
C3920 C3924 1.531 . S
C3921 C3920 1.369 . S
C3921 C3922 1.410 . S
C3921 C3929 1.503 . S
C3922 C3921 1.410 . S
C3922 C3923 1.392 . S
C3922 C3925 1.511 1_455 S
C3923 C3919 1.376 . S
C3923 C3922 1.392 . S
C3923 H3935 0.929 1_455 S
C3924 C3920 1.531 . S
C3924 H3936 0.960 . S
C3924 H3937 0.962 . S
C3924 H3938 0.960 . S
C3925 C3922 1.511 1_655 S
C3925 H3939 0.961 . S
C3925 H3940 0.961 . S
C3925 H3941 0.961 . S
C3926 C3927 1.370 . S
C3926 C3928 1.363 . S
C3926 H3942 0.931 . S
C3927 C3926 1.370 . S
C3927 C3931 1.408 . S
C3928 C3926 1.363 . S
C3928 C3929 1.370 . S
C3928 C3932 1.524 . S
C3929 C3921 1.503 . S
C3929 C3928 1.370 . S
C3929 C3930 1.403 . S
C3930 C3929 1.403 . S
C3930 C3931 1.404 . S
C3930 C3933 1.539 . S
C3931 C3927 1.408 . S
C3931 C3930 1.404 . S
C3931 H3943 0.930 . S
C3932 C3928 1.524 . S
C3932 H3944 0.956 . S
C3932 H3945 0.961 . S
C3932 H3946 0.961 . S
C3933 C3930 1.539 . S
C3933 H3947 0.958 . S
C3933 H3948 0.961 . S
C3933 H3949 0.960 . S
H3934 C3918 0.931 . S
H3935 C3923 0.929 1_655 S
H3936 C3924 0.960 . S
H3937 C3924 0.962 . S
H3938 C3924 0.960 . S
H3939 C3925 0.961 . S
H3940 C3925 0.961 . S
H3941 C3925 0.961 . S
H3942 C3926 0.931 . S
H3943 C3931 0.930 . S
H3944 C3932 0.956 . S
H3945 C3932 0.961 . S
H3946 C3932 0.961 . S
H3947 C3933 0.958 . S
H3948 C3933 0.961 . S
H3949 C3933 0.960 . S
C3950 C3951 1.391 . S
C3950 C3952 1.394 . S
C3950 H3966 0.931 . S
C3951 C3950 1.391 . S
C3951 C3955 1.376 . S
C3952 C3950 1.394 . S
C3952 C3953 1.369 . S
C3952 C3956 1.531 . S
C3953 C3952 1.369 . S
C3953 C3954 1.410 . S
C3953 C3961 1.503 . S
C3954 C3953 1.410 . S
C3954 C3955 1.392 . S
C3954 C3957 1.511 . S
C3955 C3951 1.376 . S
C3955 C3954 1.392 . S
C3955 H3967 0.929 . S
C3956 C3952 1.531 . S
C3956 H3968 0.960 . S
C3956 H3969 0.962 . S
C3956 H3970 0.960 . S
C3957 C3954 1.511 . S
C3957 H3971 0.961 . S
C3957 H3972 0.961 . S
C3957 H3973 0.961 . S
C3958 C3959 1.370 . S
C3958 C3960 1.363 . S
C3958 H3974 0.931 . S
C3959 C3958 1.370 . S
C3959 C3963 1.408 . S
C3960 C3958 1.363 . S
C3960 C3961 1.370 . S
C3960 C3964 1.524 . S
C3961 C3953 1.503 . S
C3961 C3960 1.370 . S
C3961 C3962 1.403 . S
C3962 C3961 1.403 . S
C3962 C3963 1.404 . S
C3962 C3965 1.539 . S
C3963 C3959 1.408 . S
C3963 C3962 1.404 . S
C3963 H3975 0.930 . S
C3964 C3960 1.524 . S
C3964 H3976 0.956 . S
C3964 H3977 0.961 . S
C3964 H3978 0.961 . S
C3965 C3962 1.539 . S
C3965 H3979 0.958 . S
C3965 H3980 0.961 . S
C3965 H3981 0.960 . S
H3966 C3950 0.931 . S
H3967 C3955 0.929 . S
H3968 C3956 0.960 . S
H3969 C3956 0.962 . S
H3970 C3956 0.960 . S
H3971 C3957 0.961 . S
H3972 C3957 0.961 . S
H3973 C3957 0.961 . S
H3974 C3958 0.931 . S
H3975 C3963 0.930 . S
H3976 C3964 0.956 . S
H3977 C3964 0.961 . S
H3978 C3964 0.961 . S
H3979 C3965 0.958 . S
H3980 C3965 0.961 . S
H3981 C3965 0.960 . S
C3982 C3983 1.391 . S
C3982 C3984 1.394 . S
C3982 H3998 0.931 . S
C3983 C3982 1.391 . S
C3983 C3987 1.376 1_565 S
C3984 C3982 1.394 . S
C3984 C3985 1.369 . S
C3984 C3988 1.531 . S
C3985 C3984 1.369 . S
C3985 C3986 1.410 1_565 S
C3985 C3993 1.503 . S
C3986 C3985 1.410 1_545 S
C3986 C3987 1.392 . S
C3986 C3989 1.511 . S
C3987 C3983 1.376 1_545 S
C3987 C3986 1.392 . S
C3987 H3999 0.929 . S
C3988 C3984 1.531 . S
C3988 H4000 0.960 . S
C3988 H4001 0.962 . S
C3988 H4002 0.960 . S
C3989 C3986 1.511 . S
C3989 H4003 0.961 . S
C3989 H4004 0.961 . S
C3989 H4005 0.961 . S
C3990 C3991 1.370 . S
C3990 C3992 1.363 . S
C3990 H4006 0.931 . S
C3991 C3990 1.370 . S
C3991 C3995 1.408 . S
C3992 C3990 1.363 . S
C3992 C3993 1.370 . S
C3992 C3996 1.524 . S
C3993 C3985 1.503 . S
C3993 C3992 1.370 . S
C3993 C3994 1.403 . S
C3994 C3993 1.403 . S
C3994 C3995 1.404 . S
C3994 C3997 1.539 1_565 S
C3995 C3991 1.408 . S
C3995 C3994 1.404 . S
C3995 H4007 0.930 1_565 S
C3996 C3992 1.524 . S
C3996 H4008 0.956 . S
C3996 H4009 0.961 . S
C3996 H4010 0.961 . S
C3997 C3994 1.539 1_545 S
C3997 H4011 0.958 1_545 S
C3997 H4012 0.961 . S
C3997 H4013 0.960 . S
H3998 C3982 0.931 . S
H3999 C3987 0.929 . S
H4000 C3988 0.960 . S
H4001 C3988 0.962 . S
H4002 C3988 0.960 . S
H4003 C3989 0.961 . S
H4004 C3989 0.961 . S
H4005 C3989 0.961 . S
H4006 C3990 0.931 . S
H4007 C3995 0.930 1_545 S
H4008 C3996 0.956 . S
H4009 C3996 0.961 . S
H4010 C3996 0.961 . S
H4011 C3997 0.958 1_565 S
H4012 C3997 0.961 . S
H4013 C3997 0.960 . S
C4014 C4015 1.391 . S
C4014 C4016 1.394 . S
C4014 H4030 0.931 . S
C4015 C4014 1.391 . S
C4015 C4019 1.376 . S
C4016 C4014 1.394 . S
C4016 C4017 1.369 . S
C4016 C4020 1.531 1_565 S
C4017 C4016 1.369 . S
C4017 C4018 1.410 . S
C4017 C4025 1.503 . S
C4018 C4017 1.410 . S
C4018 C4019 1.392 . S
C4018 C4021 1.511 . S
C4019 C4015 1.376 . S
C4019 C4018 1.392 . S
C4019 H4031 0.929 . S
C4020 C4016 1.531 1_545 S
C4020 H4032 0.960 . S
C4020 H4033 0.962 1_545 S
C4020 H4034 0.960 . S
C4021 C4018 1.511 . S
C4021 H4035 0.961 . S
C4021 H4036 0.961 . S
C4021 H4037 0.961 . S
C4022 C4023 1.370 . S
C4022 C4024 1.363 . S
C4022 H4038 0.931 . S
C4023 C4022 1.370 . S
C4023 C4027 1.408 1_565 S
C4024 C4022 1.363 . S
C4024 C4025 1.370 . S
C4024 C4028 1.524 . S
C4025 C4017 1.503 . S
C4025 C4024 1.370 . S
C4025 C4026 1.403 1_565 S
C4026 C4025 1.403 1_545 S
C4026 C4027 1.404 . S
C4026 C4029 1.539 . S
C4027 C4023 1.408 1_545 S
C4027 C4026 1.404 . S
C4027 H4039 0.930 . S
C4028 C4024 1.524 . S
C4028 H4040 0.956 . S
C4028 H4041 0.961 . S
C4028 H4042 0.961 . S
C4029 C4026 1.539 . S
C4029 H4043 0.958 . S
C4029 H4044 0.961 . S
C4029 H4045 0.960 . S
H4030 C4014 0.931 . S
H4031 C4019 0.929 . S
H4032 C4020 0.960 . S
H4033 C4020 0.962 1_565 S
H4034 C4020 0.960 . S
H4035 C4021 0.961 . S
H4036 C4021 0.961 . S
H4037 C4021 0.961 . S
H4038 C4022 0.931 . S
H4039 C4027 0.930 . S
H4040 C4028 0.956 . S
H4041 C4028 0.961 . S
H4042 C4028 0.961 . S
H4043 C4029 0.958 . S
H4044 C4029 0.961 . S
H4045 C4029 0.960 . S
C4046 C4047 1.391 . S
C4046 C4048 1.394 . S
C4046 H4062 0.931 . S
C4047 C4046 1.391 . S
C4047 C4051 1.376 1_455 S
C4048 C4046 1.394 . S
C4048 C4049 1.369 . S
C4048 C4052 1.531 . S
C4049 C4048 1.369 . S
C4049 C4050 1.410 1_455 S
C4049 C4057 1.503 . S
C4050 C4049 1.410 1_655 S
C4050 C4051 1.392 . S
C4050 C4053 1.511 . S
C4051 C4047 1.376 1_655 S
C4051 C4050 1.392 . S
C4051 H4063 0.929 . S
C4052 C4048 1.531 . S
C4052 H4064 0.960 . S
C4052 H4065 0.962 . S
C4052 H4066 0.960 . S
C4053 C4050 1.511 . S
C4053 H4067 0.961 . S
C4053 H4068 0.961 . S
C4053 H4069 0.961 . S
C4054 C4055 1.391 1_455 S
C4054 C4056 1.363 . S
C4054 H4070 0.931 . S
C4055 C4054 1.391 1_655 S
C4055 C4059 1.413 . S
C4056 C4054 1.363 . S
C4056 C4057 1.370 . S
C4056 C4060 1.524 . S
C4057 C4049 1.503 . S
C4057 C4056 1.370 . S
C4057 C4058 1.419 1_455 S
C4058 C4057 1.419 1_655 S
C4058 C4059 1.388 . S
C4058 C4061 1.545 . S
C4059 C4055 1.413 . S
C4059 C4058 1.388 . S
C4059 H4071 0.930 . S
C4060 C4056 1.524 . S
C4060 H4072 0.956 . S
C4060 H4073 0.961 . S
C4060 H4074 0.961 . S
C4061 C4058 1.545 . S
C4061 H4075 0.958 1_655 S
C4061 H4076 0.961 . S
C4061 H4077 0.960 . S
H4062 C4046 0.931 . S
H4063 C4051 0.929 . S
H4064 C4052 0.960 . S
H4065 C4052 0.962 . S
H4066 C4052 0.960 . S
H4067 C4053 0.961 . S
H4068 C4053 0.961 . S
H4069 C4053 0.961 . S
H4070 C4054 0.931 . S
H4071 C4059 0.930 . S
H4072 C4060 0.956 . S
H4073 C4060 0.961 . S
H4074 C4060 0.961 . S
H4075 C4061 0.958 1_455 S
H4076 C4061 0.961 . S
H4077 C4061 0.960 . S
C4078 C4079 1.391 . S
C4078 C4080 1.394 . S
C4078 H4094 0.931 . S
C4079 C4078 1.391 . S
C4079 C4083 1.376 . S
C4080 C4078 1.394 . S
C4080 C4081 1.369 . S
C4080 C4084 1.531 . S
C4081 C4080 1.369 . S
C4081 C4082 1.410 . S
C4081 C4089 1.503 . S
C4082 C4081 1.410 . S
C4082 C4083 1.392 . S
C4082 C4085 1.511 . S
C4083 C4079 1.376 . S
C4083 C4082 1.392 . S
C4083 H4095 0.929 . S
C4084 C4080 1.531 . S
C4084 H4096 0.960 . S
C4084 H4097 0.962 . S
C4084 H4098 0.960 . S
C4085 C4082 1.511 . S
C4085 H4099 0.961 . S
C4085 H4100 0.961 . S
C4085 H4101 0.961 . S
C4086 C4087 1.370 . S
C4086 C4088 1.363 . S
C4086 H4102 0.931 . S
C4087 C4086 1.370 . S
C4087 C4091 1.408 . S
C4088 C4086 1.363 . S
C4088 C4089 1.370 . S
C4088 C4092 1.524 . S
C4089 C4081 1.503 . S
C4089 C4088 1.370 . S
C4089 C4090 1.403 . S
C4090 C4089 1.403 . S
C4090 C4091 1.404 . S
C4090 C4093 1.539 . S
C4091 C4087 1.408 . S
C4091 C4090 1.404 . S
C4091 H4103 0.930 . S
C4092 C4088 1.524 . S
C4092 H4104 0.956 . S
C4092 H4105 0.961 . S
C4092 H4106 0.961 . S
C4093 C4090 1.539 . S
C4093 H4107 0.958 . S
C4093 H4108 0.961 . S
C4093 H4109 0.960 . S
H4094 C4078 0.931 . S
H4095 C4083 0.929 . S
H4096 C4084 0.960 . S
H4097 C4084 0.962 . S
H4098 C4084 0.960 . S
H4099 C4085 0.961 . S
H4100 C4085 0.961 . S
H4101 C4085 0.961 . S
H4102 C4086 0.931 . S
H4103 C4091 0.930 . S
H4104 C4092 0.956 . S
H4105 C4092 0.961 . S
H4106 C4092 0.961 . S
H4107 C4093 0.958 . S
H4108 C4093 0.961 . S
H4109 C4093 0.960 . S
C4110 C4111 1.391 . S
C4110 C4112 1.394 . S
C4110 H4126 0.931 . S
C4111 C4110 1.391 . S
C4111 C4115 1.376 . S
C4112 C4110 1.394 . S
C4112 C4113 1.369 . S
C4112 C4116 1.531 . S
C4113 C4112 1.369 . S
C4113 C4114 1.410 . S
C4113 C4121 1.503 . S
C4114 C4113 1.410 . S
C4114 C4115 1.392 . S
C4114 C4117 1.511 . S
C4115 C4111 1.376 . S
C4115 C4114 1.392 . S
C4115 H4127 0.929 . S
C4116 C4112 1.531 . S
C4116 H4128 0.960 . S
C4116 H4129 0.962 . S
C4116 H4130 0.960 . S
C4117 C4114 1.511 . S
C4117 H4131 0.961 . S
C4117 H4132 0.961 . S
C4117 H4133 0.961 . S
C4118 C4119 1.370 . S
C4118 C4120 1.363 . S
C4118 H4134 0.931 . S
C4119 C4118 1.370 . S
C4119 C4123 1.408 . S
C4120 C4118 1.363 . S
C4120 C4121 1.370 . S
C4120 C4124 1.524 . S
C4121 C4113 1.503 . S
C4121 C4120 1.370 . S
C4121 C4122 1.403 . S
C4122 C4121 1.403 . S
C4122 C4123 1.404 . S
C4122 C4125 1.539 . S
C4123 C4119 1.408 . S
C4123 C4122 1.404 . S
C4123 H4135 0.930 . S
C4124 C4120 1.524 . S
C4124 H4136 0.956 . S
C4124 H4137 0.961 . S
C4124 H4138 0.961 . S
C4125 C4122 1.539 . S
C4125 H4139 0.958 . S
C4125 H4140 0.961 . S
C4125 H4141 0.960 . S
H4126 C4110 0.931 . S
H4127 C4115 0.929 . S
H4128 C4116 0.960 . S
H4129 C4116 0.962 . S
H4130 C4116 0.960 . S
H4131 C4117 0.961 . S
H4132 C4117 0.961 . S
H4133 C4117 0.961 . S
H4134 C4118 0.931 . S
H4135 C4123 0.930 . S
H4136 C4124 0.956 . S
H4137 C4124 0.961 . S
H4138 C4124 0.961 . S
H4139 C4125 0.958 . S
H4140 C4125 0.961 . S
H4141 C4125 0.960 . S
C4142 C4143 1.391 . S
C4142 C4144 1.394 . S
C4142 H4158 0.931 . S
C4143 C4142 1.391 . S
C4143 C4147 1.376 . S
C4144 C4142 1.394 . S
C4144 C4145 1.369 . S
C4144 C4148 1.531 . S
C4145 C4144 1.369 . S
C4145 C4146 1.410 . S
C4145 C4153 1.503 . S
C4146 C4145 1.410 . S
C4146 C4147 1.392 . S
C4146 C4149 1.511 . S
C4147 C4143 1.376 . S
C4147 C4146 1.392 . S
C4147 H4159 0.929 . S
C4148 C4144 1.531 . S
C4148 H4160 0.960 . S
C4148 H4161 0.962 . S
C4148 H4162 0.960 . S
C4149 C4146 1.511 . S
C4149 H4163 0.961 . S
C4149 H4164 0.961 . S
C4149 H4165 0.961 . S
C4150 C4151 1.370 . S
C4150 C4152 1.363 . S
C4150 H4166 0.931 . S
C4151 C4150 1.370 . S
C4151 C4155 1.408 . S
C4152 C4150 1.363 . S
C4152 C4153 1.370 . S
C4152 C4156 1.524 . S
C4153 C4145 1.503 . S
C4153 C4152 1.370 . S
C4153 C4154 1.403 . S
C4154 C4153 1.403 . S
C4154 C4155 1.404 . S
C4154 C4157 1.539 . S
C4155 C4151 1.408 . S
C4155 C4154 1.404 . S
C4155 H4167 0.930 . S
C4156 C4152 1.524 . S
C4156 H4168 0.956 . S
C4156 H4169 0.961 . S
C4156 H4170 0.961 . S
C4157 C4154 1.539 . S
C4157 H4171 0.958 . S
C4157 H4172 0.961 . S
C4157 H4173 0.960 . S
H4158 C4142 0.931 . S
H4159 C4147 0.929 . S
H4160 C4148 0.960 . S
H4161 C4148 0.962 . S
H4162 C4148 0.960 . S
H4163 C4149 0.961 . S
H4164 C4149 0.961 . S
H4165 C4149 0.961 . S
H4166 C4150 0.931 . S
H4167 C4155 0.930 . S
H4168 C4156 0.956 . S
H4169 C4156 0.961 . S
H4170 C4156 0.961 . S
H4171 C4157 0.958 . S
H4172 C4157 0.961 . S
H4173 C4157 0.960 . S
C4174 C4175 1.391 . S
C4174 C4176 1.394 . S
C4174 H4190 0.931 . S
C4175 C4174 1.391 . S
C4175 C4179 1.376 . S
C4176 C4174 1.394 . S
C4176 C4177 1.369 . S
C4176 C4180 1.531 . S
C4177 C4176 1.369 . S
C4177 C4178 1.410 . S
C4177 C4185 1.503 . S
C4178 C4177 1.410 . S
C4178 C4179 1.392 . S
C4178 C4181 1.511 . S
C4179 C4175 1.376 . S
C4179 C4178 1.392 . S
C4179 H4191 0.929 . S
C4180 C4176 1.531 . S
C4180 H4192 0.960 . S
C4180 H4193 0.962 . S
C4180 H4194 0.960 . S
C4181 C4178 1.511 . S
C4181 H4195 0.961 . S
C4181 H4196 0.961 . S
C4181 H4197 0.961 . S
C4182 C4183 1.370 . S
C4182 C4184 1.363 . S
C4182 H4198 0.931 . S
C4183 C4182 1.370 . S
C4183 C4187 1.408 . S
C4184 C4182 1.363 . S
C4184 C4185 1.370 . S
C4184 C4188 1.524 . S
C4185 C4177 1.503 . S
C4185 C4184 1.370 . S
C4185 C4186 1.403 . S
C4186 C4185 1.403 . S
C4186 C4187 1.404 . S
C4186 C4189 1.539 . S
C4187 C4183 1.408 . S
C4187 C4186 1.404 . S
C4187 H4199 0.930 . S
C4188 C4184 1.524 . S
C4188 H4200 0.956 . S
C4188 H4201 0.961 . S
C4188 H4202 0.961 . S
C4189 C4186 1.539 . S
C4189 H4203 0.958 . S
C4189 H4204 0.961 . S
C4189 H4205 0.960 . S
H4190 C4174 0.931 . S
H4191 C4179 0.929 . S
H4192 C4180 0.960 . S
H4193 C4180 0.962 . S
H4194 C4180 0.960 . S
H4195 C4181 0.961 . S
H4196 C4181 0.961 . S
H4197 C4181 0.961 . S
H4198 C4182 0.931 . S
H4199 C4187 0.930 . S
H4200 C4188 0.956 . S
H4201 C4188 0.961 . S
H4202 C4188 0.961 . S
H4203 C4189 0.958 . S
H4204 C4189 0.961 . S
H4205 C4189 0.960 . S
C4206 C4207 1.391 . S
C4206 C4208 1.394 . S
C4206 H4222 0.931 . S
C4207 C4206 1.391 . S
C4207 C4211 1.376 . S
C4208 C4206 1.394 . S
C4208 C4209 1.369 . S
C4208 C4212 1.531 . S
C4209 C4208 1.369 . S
C4209 C4210 1.410 . S
C4209 C4217 1.503 . S
C4210 C4209 1.410 . S
C4210 C4211 1.392 . S
C4210 C4213 1.511 . S
C4211 C4207 1.376 . S
C4211 C4210 1.392 . S
C4211 H4223 0.929 . S
C4212 C4208 1.531 . S
C4212 H4224 0.960 . S
C4212 H4225 0.962 . S
C4212 H4226 0.960 . S
C4213 C4210 1.511 . S
C4213 H4227 0.961 . S
C4213 H4228 0.961 . S
C4213 H4229 0.961 . S
C4214 C4215 1.370 1_565 S
C4214 C4216 1.363 . S
C4214 H4230 0.931 . S
C4215 C4214 1.370 1_545 S
C4215 C4219 1.408 . S
C4216 C4214 1.363 . S
C4216 C4217 1.371 1_565 S
C4216 C4220 1.524 . S
C4217 C4209 1.503 . S
C4217 C4216 1.371 1_545 S
C4217 C4218 1.403 . S
C4218 C4217 1.403 . S
C4218 C4219 1.404 . S
C4218 C4221 1.539 . S
C4219 C4215 1.408 . S
C4219 C4218 1.404 . S
C4219 H4231 0.930 . S
C4220 C4216 1.524 . S
C4220 H4232 0.956 . S
C4220 H4233 0.961 . S
C4220 H4234 0.961 . S
C4221 C4218 1.539 . S
C4221 H4235 0.958 . S
C4221 H4236 0.961 . S
C4221 H4237 0.960 . S
H4222 C4206 0.931 . S
H4223 C4211 0.929 . S
H4224 C4212 0.960 . S
H4225 C4212 0.962 . S
H4226 C4212 0.960 . S
H4227 C4213 0.961 . S
H4228 C4213 0.961 . S
H4229 C4213 0.961 . S
H4230 C4214 0.931 . S
H4231 C4219 0.930 . S
H4232 C4220 0.956 . S
H4233 C4220 0.961 . S
H4234 C4220 0.961 . S
H4235 C4221 0.958 . S
H4236 C4221 0.961 . S
H4237 C4221 0.960 . S
C4238 C4239 1.391 1_455 S
C4238 C4240 1.394 . S
C4238 H4254 0.931 . S
C4239 C4238 1.391 1_655 S
C4239 C4243 1.376 . S
C4240 C4238 1.394 . S
C4240 C4241 1.369 1_455 S
C4240 C4244 1.531 . S
C4241 C4240 1.369 1_655 S
C4241 C4242 1.410 . S
C4241 C4249 1.503 . S
C4242 C4241 1.410 . S
C4242 C4243 1.392 . S
C4242 C4245 1.511 . S
C4243 C4239 1.376 . S
C4243 C4242 1.392 . S
C4243 H4255 0.929 . S
C4244 C4240 1.531 . S
C4244 H4256 0.960 . S
C4244 H4257 0.962 . S
C4244 H4258 0.960 . S
C4245 C4242 1.511 . S
C4245 H4259 0.961 . S
C4245 H4260 0.961 . S
C4245 H4261 0.961 . S
C4246 C4247 1.370 . S
C4246 C4248 1.363 . S
C4246 H4262 0.931 . S
C4247 C4246 1.370 . S
C4247 C4251 1.408 1_655 S
C4248 C4246 1.363 . S
C4248 C4249 1.370 . S
C4248 C4252 1.524 . S
C4249 C4241 1.503 . S
C4249 C4248 1.370 . S
C4249 C4250 1.403 1_655 S
C4250 C4249 1.403 1_455 S
C4250 C4251 1.404 . S
C4250 C4253 1.539 . S
C4251 C4247 1.408 1_455 S
C4251 C4250 1.404 . S
C4251 H4263 0.930 . S
C4252 C4248 1.524 . S
C4252 H4264 0.956 . S
C4252 H4265 0.961 . S
C4252 H4266 0.961 . S
C4253 C4250 1.539 . S
C4253 H4267 0.958 . S
C4253 H4268 0.961 . S
C4253 H4269 0.960 . S
H4254 C4238 0.931 . S
H4255 C4243 0.929 . S
H4256 C4244 0.960 . S
H4257 C4244 0.962 . S
H4258 C4244 0.960 . S
H4259 C4245 0.961 . S
H4260 C4245 0.961 . S
H4261 C4245 0.961 . S
H4262 C4246 0.931 . S
H4263 C4251 0.930 . S
H4264 C4252 0.956 . S
H4265 C4252 0.961 . S
H4266 C4252 0.961 . S
H4267 C4253 0.958 . S
H4268 C4253 0.961 . S
H4269 C4253 0.960 . S
C4270 C4271 1.391 . S
C4270 C4272 1.394 . S
C4270 H4286 0.931 . S
C4271 C4270 1.391 . S
C4271 C4275 1.376 . S
C4272 C4270 1.394 . S
C4272 C4273 1.369 . S
C4272 C4276 1.531 . S
C4273 C4272 1.369 . S
C4273 C4274 1.410 . S
C4273 C4281 1.503 . S
C4274 C4273 1.410 . S
C4274 C4275 1.392 . S
C4274 C4277 1.511 . S
C4275 C4271 1.376 . S
C4275 C4274 1.392 . S
C4275 H4287 0.929 . S
C4276 C4272 1.531 . S
C4276 H4288 0.960 . S
C4276 H4289 0.962 . S
C4276 H4290 0.960 . S
C4277 C4274 1.511 . S
C4277 H4291 0.961 . S
C4277 H4292 0.961 . S
C4277 H4293 0.961 . S
C4278 C4279 1.370 . S
C4278 C4280 1.363 . S
C4278 H4294 0.931 . S
C4279 C4278 1.370 . S
C4279 C4283 1.408 . S
C4280 C4278 1.363 . S
C4280 C4281 1.370 . S
C4280 C4284 1.524 . S
C4281 C4273 1.503 . S
C4281 C4280 1.370 . S
C4281 C4282 1.403 . S
C4282 C4281 1.403 . S
C4282 C4283 1.404 . S
C4282 C4285 1.539 . S
C4283 C4279 1.408 . S
C4283 C4282 1.404 . S
C4283 H4295 0.930 . S
C4284 C4280 1.524 . S
C4284 H4296 0.956 . S
C4284 H4297 0.961 . S
C4284 H4298 0.961 . S
C4285 C4282 1.539 . S
C4285 H4299 0.958 . S
C4285 H4300 0.961 . S
C4285 H4301 0.960 . S
H4286 C4270 0.931 . S
H4287 C4275 0.929 . S
H4288 C4276 0.960 . S
H4289 C4276 0.962 . S
H4290 C4276 0.960 . S
H4291 C4277 0.961 . S
H4292 C4277 0.961 . S
H4293 C4277 0.961 . S
H4294 C4278 0.931 . S
H4295 C4283 0.930 . S
H4296 C4284 0.956 . S
H4297 C4284 0.961 . S
H4298 C4284 0.961 . S
H4299 C4285 0.958 . S
H4300 C4285 0.961 . S
H4301 C4285 0.960 . S
C4302 C4303 1.391 . S
C4302 C4304 1.394 . S
C4302 H4318 0.931 . S
C4303 C4302 1.391 . S
C4303 C4307 1.376 . S
C4304 C4302 1.394 . S
C4304 C4305 1.369 . S
C4304 C4308 1.531 . S
C4305 C4304 1.369 . S
C4305 C4306 1.410 . S
C4305 C4313 1.503 . S
C4306 C4305 1.410 . S
C4306 C4307 1.392 . S
C4306 C4309 1.511 . S
C4307 C4303 1.376 . S
C4307 C4306 1.392 . S
C4307 H4319 0.929 . S
C4308 C4304 1.531 . S
C4308 H4320 0.960 . S
C4308 H4321 0.962 . S
C4308 H4322 0.960 . S
C4309 C4306 1.511 . S
C4309 H4323 0.961 . S
C4309 H4324 0.961 . S
C4309 H4325 0.961 . S
C4310 C4311 1.370 . S
C4310 C4312 1.363 . S
C4310 H4326 0.931 . S
C4311 C4310 1.370 . S
C4311 C4315 1.408 . S
C4312 C4310 1.363 . S
C4312 C4313 1.370 . S
C4312 C4316 1.524 . S
C4313 C4305 1.503 . S
C4313 C4312 1.370 . S
C4313 C4314 1.403 . S
C4314 C4313 1.403 . S
C4314 C4315 1.404 . S
C4314 C4317 1.539 . S
C4315 C4311 1.408 . S
C4315 C4314 1.404 . S
C4315 H4327 0.930 . S
C4316 C4312 1.524 . S
C4316 H4328 0.956 . S
C4316 H4329 0.961 . S
C4316 H4330 0.961 . S
C4317 C4314 1.539 . S
C4317 H4331 0.958 . S
C4317 H4332 0.961 . S
C4317 H4333 0.960 . S
H4318 C4302 0.931 . S
H4319 C4307 0.929 . S
H4320 C4308 0.960 . S
H4321 C4308 0.962 . S
H4322 C4308 0.960 . S
H4323 C4309 0.961 . S
H4324 C4309 0.961 . S
H4325 C4309 0.961 . S
H4326 C4310 0.931 . S
H4327 C4315 0.930 . S
H4328 C4316 0.956 . S
H4329 C4316 0.961 . S
H4330 C4316 0.961 . S
H4331 C4317 0.958 . S
H4332 C4317 0.961 . S
H4333 C4317 0.960 . S
C4334 C4335 1.391 . S
C4334 C4336 1.394 . S
C4334 H4350 0.931 . S
C4335 C4334 1.391 . S
C4335 C4339 1.376 . S
C4336 C4334 1.394 . S
C4336 C4337 1.369 . S
C4336 C4340 1.531 . S
C4337 C4336 1.369 . S
C4337 C4338 1.410 . S
C4337 C4345 1.503 . S
C4338 C4337 1.410 . S
C4338 C4339 1.392 . S
C4338 C4341 1.511 . S
C4339 C4335 1.376 . S
C4339 C4338 1.392 . S
C4339 H4351 0.929 . S
C4340 C4336 1.531 . S
C4340 H4352 0.960 . S
C4340 H4353 0.962 . S
C4340 H4354 0.960 . S
C4341 C4338 1.511 . S
C4341 H4355 0.961 . S
C4341 H4356 0.961 . S
C4341 H4357 0.961 . S
C4342 C4343 1.370 . S
C4342 C4344 1.363 . S
C4342 H4358 0.931 . S
C4343 C4342 1.370 . S
C4343 C4347 1.408 . S
C4344 C4342 1.363 . S
C4344 C4345 1.370 . S
C4344 C4348 1.524 . S
C4345 C4337 1.503 . S
C4345 C4344 1.370 . S
C4345 C4346 1.403 . S
C4346 C4345 1.403 . S
C4346 C4347 1.404 . S
C4346 C4349 1.539 . S
C4347 C4343 1.408 . S
C4347 C4346 1.404 . S
C4347 H4359 0.930 . S
C4348 C4344 1.524 . S
C4348 H4360 0.956 . S
C4348 H4361 0.961 . S
C4348 H4362 0.961 . S
C4349 C4346 1.539 . S
C4349 H4363 0.958 . S
C4349 H4364 0.961 . S
C4349 H4365 0.960 . S
H4350 C4334 0.931 . S
H4351 C4339 0.929 . S
H4352 C4340 0.960 . S
H4353 C4340 0.962 . S
H4354 C4340 0.960 . S
H4355 C4341 0.961 . S
H4356 C4341 0.961 . S
H4357 C4341 0.961 . S
H4358 C4342 0.931 . S
H4359 C4347 0.930 . S
H4360 C4348 0.956 . S
H4361 C4348 0.961 . S
H4362 C4348 0.961 . S
H4363 C4349 0.958 . S
H4364 C4349 0.961 . S
H4365 C4349 0.960 . S
C4366 C4367 1.391 . S
C4366 C4368 1.394 . S
C4366 H4382 0.931 . S
C4367 C4366 1.391 . S
C4367 C4371 1.376 . S
C4368 C4366 1.394 . S
C4368 C4369 1.369 . S
C4368 C4372 1.531 . S
C4369 C4368 1.369 . S
C4369 C4370 1.410 . S
C4369 C4377 1.503 . S
C4370 C4369 1.410 . S
C4370 C4371 1.392 . S
C4370 C4373 1.511 . S
C4371 C4367 1.376 . S
C4371 C4370 1.392 . S
C4371 H4383 0.929 . S
C4372 C4368 1.531 . S
C4372 H4384 0.960 . S
C4372 H4385 0.962 . S
C4372 H4386 0.960 . S
C4373 C4370 1.511 . S
C4373 H4387 0.961 . S
C4373 H4388 0.961 . S
C4373 H4389 0.961 . S
C4374 C4375 1.370 . S
C4374 C4376 1.363 . S
C4374 H4390 0.931 . S
C4375 C4374 1.370 . S
C4375 C4379 1.408 . S
C4376 C4374 1.363 . S
C4376 C4377 1.370 . S
C4376 C4380 1.524 . S
C4377 C4369 1.503 . S
C4377 C4376 1.370 . S
C4377 C4378 1.403 . S
C4378 C4377 1.403 . S
C4378 C4379 1.404 . S
C4378 C4381 1.539 . S
C4379 C4375 1.408 . S
C4379 C4378 1.404 . S
C4379 H4391 0.930 . S
C4380 C4376 1.524 . S
C4380 H4392 0.956 . S
C4380 H4393 0.961 . S
C4380 H4394 0.961 . S
C4381 C4378 1.539 . S
C4381 H4395 0.958 . S
C4381 H4396 0.961 . S
C4381 H4397 0.960 . S
H4382 C4366 0.931 . S
H4383 C4371 0.929 . S
H4384 C4372 0.960 . S
H4385 C4372 0.962 . S
H4386 C4372 0.960 . S
H4387 C4373 0.961 . S
H4388 C4373 0.961 . S
H4389 C4373 0.961 . S
H4390 C4374 0.931 . S
H4391 C4379 0.930 . S
H4392 C4380 0.956 . S
H4393 C4380 0.961 . S
H4394 C4380 0.961 . S
H4395 C4381 0.958 . S
H4396 C4381 0.961 . S
H4397 C4381 0.960 . S
C4398 C4399 1.391 . S
C4398 C4400 1.394 . S
C4398 H4414 0.931 . S
C4399 C4398 1.391 . S
C4399 C4403 1.376 . S
C4400 C4398 1.394 . S
C4400 C4401 1.369 . S
C4400 C4404 1.531 . S
C4401 C4400 1.369 . S
C4401 C4402 1.410 . S
C4401 C4409 1.503 . S
C4402 C4401 1.410 . S
C4402 C4403 1.392 . S
C4402 C4405 1.511 . S
C4403 C4399 1.376 . S
C4403 C4402 1.392 . S
C4403 H4415 0.929 . S
C4404 C4400 1.531 . S
C4404 H4416 0.960 . S
C4404 H4417 0.962 . S
C4404 H4418 0.960 . S
C4405 C4402 1.511 . S
C4405 H4419 0.961 . S
C4405 H4420 0.961 . S
C4405 H4421 0.961 . S
C4406 C4407 1.370 . S
C4406 C4408 1.363 . S
C4406 H4422 0.931 . S
C4407 C4406 1.370 . S
C4407 C4411 1.408 . S
C4408 C4406 1.363 . S
C4408 C4409 1.370 . S
C4408 C4412 1.524 . S
C4409 C4401 1.503 . S
C4409 C4408 1.370 . S
C4409 C4410 1.403 . S
C4410 C4409 1.403 . S
C4410 C4411 1.404 . S
C4410 C4413 1.539 . S
C4411 C4407 1.408 . S
C4411 C4410 1.404 . S
C4411 H4423 0.930 . S
C4412 C4408 1.524 . S
C4412 H4424 0.956 . S
C4412 H4425 0.961 . S
C4412 H4426 0.961 . S
C4413 C4410 1.539 . S
C4413 H4427 0.958 . S
C4413 H4428 0.961 . S
C4413 H4429 0.960 . S
H4414 C4398 0.931 . S
H4415 C4403 0.929 . S
H4416 C4404 0.960 . S
H4417 C4404 0.962 . S
H4418 C4404 0.960 . S
H4419 C4405 0.961 . S
H4420 C4405 0.961 . S
H4421 C4405 0.961 . S
H4422 C4406 0.931 . S
H4423 C4411 0.930 . S
H4424 C4412 0.956 . S
H4425 C4412 0.961 . S
H4426 C4412 0.961 . S
H4427 C4413 0.958 . S
H4428 C4413 0.961 . S
H4429 C4413 0.960 . S
C4430 C4431 1.391 . S
C4430 C4432 1.394 . S
C4430 H4446 0.931 . S
C4431 C4430 1.391 . S
C4431 C4435 1.376 . S
C4432 C4430 1.394 . S
C4432 C4433 1.369 . S
C4432 C4436 1.531 . S
C4433 C4432 1.369 . S
C4433 C4434 1.410 . S
C4433 C4441 1.503 . S
C4434 C4433 1.410 . S
C4434 C4435 1.392 . S
C4434 C4437 1.511 . S
C4435 C4431 1.376 . S
C4435 C4434 1.392 . S
C4435 H4447 0.929 . S
C4436 C4432 1.531 . S
C4436 H4448 0.960 . S
C4436 H4449 0.962 . S
C4436 H4450 0.960 . S
C4437 C4434 1.511 . S
C4437 H4451 0.961 . S
C4437 H4452 0.961 . S
C4437 H4453 0.961 . S
C4438 C4439 1.370 . S
C4438 C4440 1.363 . S
C4438 H4454 0.931 . S
C4439 C4438 1.370 . S
C4439 C4443 1.408 . S
C4440 C4438 1.363 . S
C4440 C4441 1.370 . S
C4440 C4444 1.524 . S
C4441 C4433 1.503 . S
C4441 C4440 1.370 . S
C4441 C4442 1.403 . S
C4442 C4441 1.403 . S
C4442 C4443 1.404 . S
C4442 C4445 1.539 . S
C4443 C4439 1.408 . S
C4443 C4442 1.404 . S
C4443 H4455 0.930 . S
C4444 C4440 1.524 . S
C4444 H4456 0.956 . S
C4444 H4457 0.961 . S
C4444 H4458 0.961 . S
C4445 C4442 1.539 . S
C4445 H4459 0.958 . S
C4445 H4460 0.961 . S
C4445 H4461 0.960 . S
H4446 C4430 0.931 . S
H4447 C4435 0.929 . S
H4448 C4436 0.960 . S
H4449 C4436 0.962 . S
H4450 C4436 0.960 . S
H4451 C4437 0.961 . S
H4452 C4437 0.961 . S
H4453 C4437 0.961 . S
H4454 C4438 0.931 . S
H4455 C4443 0.930 . S
H4456 C4444 0.956 . S
H4457 C4444 0.961 . S
H4458 C4444 0.961 . S
H4459 C4445 0.958 . S
H4460 C4445 0.961 . S
H4461 C4445 0.960 . S
C4462 C4463 1.391 . S
C4462 C4464 1.394 . S
C4462 H4478 0.931 . S
C4463 C4462 1.391 . S
C4463 C4467 1.376 . S
C4464 C4462 1.394 . S
C4464 C4465 1.369 . S
C4464 C4468 1.531 . S
C4465 C4464 1.369 . S
C4465 C4466 1.410 . S
C4465 C4473 1.503 . S
C4466 C4465 1.410 . S
C4466 C4467 1.392 . S
C4466 C4469 1.511 . S
C4467 C4463 1.376 . S
C4467 C4466 1.392 . S
C4467 H4479 0.929 . S
C4468 C4464 1.531 . S
C4468 H4480 0.960 . S
C4468 H4481 0.962 . S
C4468 H4482 0.960 . S
C4469 C4466 1.511 . S
C4469 H4483 0.961 . S
C4469 H4484 0.961 . S
C4469 H4485 0.961 . S
C4470 C4471 1.370 . S
C4470 C4472 1.363 . S
C4470 H4486 0.931 . S
C4471 C4470 1.370 . S
C4471 C4475 1.408 . S
C4472 C4470 1.363 . S
C4472 C4473 1.370 . S
C4472 C4476 1.524 . S
C4473 C4465 1.503 . S
C4473 C4472 1.370 . S
C4473 C4474 1.403 . S
C4474 C4473 1.403 . S
C4474 C4475 1.404 . S
C4474 C4477 1.539 . S
C4475 C4471 1.408 . S
C4475 C4474 1.404 . S
C4475 H4487 0.930 . S
C4476 C4472 1.524 . S
C4476 H4488 0.956 . S
C4476 H4489 0.961 . S
C4476 H4490 0.961 . S
C4477 C4474 1.539 . S
C4477 H4491 0.958 . S
C4477 H4492 0.961 . S
C4477 H4493 0.960 . S
H4478 C4462 0.931 . S
H4479 C4467 0.929 . S
H4480 C4468 0.960 . S
H4481 C4468 0.962 . S
H4482 C4468 0.960 . S
H4483 C4469 0.961 . S
H4484 C4469 0.961 . S
H4485 C4469 0.961 . S
H4486 C4470 0.931 . S
H4487 C4475 0.930 . S
H4488 C4476 0.956 . S
H4489 C4476 0.961 . S
H4490 C4476 0.961 . S
H4491 C4477 0.958 . S
H4492 C4477 0.961 . S
H4493 C4477 0.960 . S
C4494 C4495 1.391 . S
C4494 C4496 1.394 . S
C4494 H4510 0.931 . S
C4495 C4494 1.391 . S
C4495 C4499 1.376 . S
C4496 C4494 1.394 . S
C4496 C4497 1.369 . S
C4496 C4500 1.531 . S
C4497 C4496 1.369 . S
C4497 C4498 1.410 . S
C4497 C4505 1.503 . S
C4498 C4497 1.410 . S
C4498 C4499 1.392 . S
C4498 C4501 1.511 . S
C4499 C4495 1.376 . S
C4499 C4498 1.392 . S
C4499 H4511 0.929 . S
C4500 C4496 1.531 . S
C4500 H4512 0.960 . S
C4500 H4513 0.962 . S
C4500 H4514 0.960 . S
C4501 C4498 1.511 . S
C4501 H4515 0.961 . S
C4501 H4516 0.961 . S
C4501 H4517 0.961 . S
C4502 C4503 1.370 1_455 S
C4502 C4504 1.363 . S
C4502 H4518 0.931 . S
C4503 C4502 1.370 1_655 S
C4503 C4507 1.408 . S
C4504 C4502 1.363 . S
C4504 C4505 1.370 1_455 S
C4504 C4508 1.524 . S
C4505 C4497 1.503 . S
C4505 C4504 1.370 1_655 S
C4505 C4506 1.403 . S
C4506 C4505 1.403 . S
C4506 C4507 1.404 . S
C4506 C4509 1.539 . S
C4507 C4503 1.408 . S
C4507 C4506 1.404 . S
C4507 H4519 0.930 . S
C4508 C4504 1.524 . S
C4508 H4520 0.956 . S
C4508 H4521 0.961 . S
C4508 H4522 0.961 . S
C4509 C4506 1.539 . S
C4509 H4523 0.958 . S
C4509 H4524 0.961 . S
C4509 H4525 0.960 . S
H4510 C4494 0.931 . S
H4511 C4499 0.929 . S
H4512 C4500 0.960 . S
H4513 C4500 0.962 . S
H4514 C4500 0.960 . S
H4515 C4501 0.961 . S
H4516 C4501 0.961 . S
H4517 C4501 0.961 . S
H4518 C4502 0.931 . S
H4519 C4507 0.930 . S
H4520 C4508 0.956 . S
H4521 C4508 0.961 . S
H4522 C4508 0.961 . S
H4523 C4509 0.958 . S
H4524 C4509 0.961 . S
H4525 C4509 0.960 . S
C4526 C4527 1.391 . S
C4526 C4528 1.394 . S
C4526 H4542 0.931 . S
C4527 C4526 1.391 . S
C4527 C4531 1.376 . S
C4528 C4526 1.394 . S
C4528 C4529 1.369 . S
C4528 C4532 1.531 . S
C4529 C4528 1.369 . S
C4529 C4530 1.410 . S
C4529 C4537 1.503 . S
C4530 C4529 1.410 . S
C4530 C4531 1.392 . S
C4530 C4533 1.511 . S
C4531 C4527 1.376 . S
C4531 C4530 1.392 . S
C4531 H4543 0.929 . S
C4532 C4528 1.531 . S
C4532 H4544 0.960 . S
C4532 H4545 0.962 . S
C4532 H4546 0.960 . S
C4533 C4530 1.511 . S
C4533 H4547 0.961 . S
C4533 H4548 0.961 . S
C4533 H4549 0.961 . S
C4534 C4535 1.370 . S
C4534 C4536 1.363 . S
C4534 H4550 0.931 . S
C4535 C4534 1.370 . S
C4535 C4539 1.408 . S
C4536 C4534 1.363 . S
C4536 C4537 1.370 . S
C4536 C4540 1.524 . S
C4537 C4529 1.503 . S
C4537 C4536 1.370 . S
C4537 C4538 1.403 . S
C4538 C4537 1.403 . S
C4538 C4539 1.404 . S
C4538 C4541 1.539 . S
C4539 C4535 1.408 . S
C4539 C4538 1.404 . S
C4539 H4551 0.930 . S
C4540 C4536 1.524 . S
C4540 H4552 0.956 . S
C4540 H4553 0.961 . S
C4540 H4554 0.961 . S
C4541 C4538 1.539 . S
C4541 H4555 0.958 . S
C4541 H4556 0.961 . S
C4541 H4557 0.960 . S
H4542 C4526 0.931 . S
H4543 C4531 0.929 . S
H4544 C4532 0.960 . S
H4545 C4532 0.962 . S
H4546 C4532 0.960 . S
H4547 C4533 0.961 . S
H4548 C4533 0.961 . S
H4549 C4533 0.961 . S
H4550 C4534 0.931 . S
H4551 C4539 0.930 . S
H4552 C4540 0.956 . S
H4553 C4540 0.961 . S
H4554 C4540 0.961 . S
H4555 C4541 0.958 . S
H4556 C4541 0.961 . S
H4557 C4541 0.960 . S
C4558 C4559 1.391 . S
C4558 C4560 1.394 . S
C4558 H4574 0.931 . S
C4559 C4558 1.391 . S
C4559 C4563 1.376 . S
C4560 C4558 1.394 . S
C4560 C4561 1.369 . S
C4560 C4564 1.531 . S
C4561 C4560 1.369 . S
C4561 C4562 1.410 . S
C4561 C4569 1.503 . S
C4562 C4561 1.410 . S
C4562 C4563 1.392 . S
C4562 C4565 1.511 1_545 S
C4563 C4559 1.376 . S
C4563 C4562 1.392 . S
C4563 H4575 0.929 . S
C4564 C4560 1.531 . S
C4564 H4576 0.960 . S
C4564 H4577 0.962 . S
C4564 H4578 0.960 . S
C4565 C4562 1.511 1_565 S
C4565 H4579 0.961 . S
C4565 H4580 0.961 . S
C4565 H4581 0.961 1_565 S
C4566 C4567 1.370 1_565 S
C4566 C4568 1.363 . S
C4566 H4582 0.931 . S
C4567 C4566 1.370 1_545 S
C4567 C4571 1.408 . S
C4568 C4566 1.363 . S
C4568 C4569 1.370 1_565 S
C4568 C4572 1.524 . S
C4569 C4561 1.503 . S
C4569 C4568 1.370 1_545 S
C4569 C4570 1.403 . S
C4570 C4569 1.403 . S
C4570 C4571 1.404 . S
C4570 C4573 1.539 . S
C4571 C4567 1.408 . S
C4571 C4570 1.404 . S
C4571 H4583 0.930 . S
C4572 C4568 1.524 . S
C4572 H4584 0.956 . S
C4572 H4585 0.961 . S
C4572 H4586 0.961 . S
C4573 C4570 1.539 . S
C4573 H4587 0.958 . S
C4573 H4588 0.961 . S
C4573 H4589 0.960 . S
H4574 C4558 0.931 . S
H4575 C4563 0.929 . S
H4576 C4564 0.960 . S
H4577 C4564 0.962 . S
H4578 C4564 0.960 . S
H4579 C4565 0.961 . S
H4580 C4565 0.961 . S
H4581 C4565 0.961 1_545 S
H4582 C4566 0.931 . S
H4583 C4571 0.930 . S
H4584 C4572 0.956 . S
H4585 C4572 0.961 . S
H4586 C4572 0.961 . S
H4587 C4573 0.958 . S
H4588 C4573 0.961 . S
H4589 C4573 0.960 . S
C2287 C8 1.263 . S
C2295 C1289 1.033 1_655 S
C2319 C18 1.560 . S
C2327 C1429 1.071 . S
C2359 C1517 1.169 . S
C2351 C31 1.324 . S
C2383 C34 1.330 1_565 S
C2391 C1657 1.007 1_565 S
C2415 C5 1.345 . S
C2423 C1771 1.087 . S
C2447 C21 1.587 . S
C2455 C1859 1.253 . S
C2479 C47 1.266 . S
C2487 C1745 0.999 . S
C2519 C1885 1.257 . S
C2511 C57 1.469 . S
C2551 C1631 1.136 . S
C2543 C70 1.273 . S
C2575 C73 1.322 . S
C2583 C1543 0.988 . S
C2615 C1315 1.083 . S
C2607 C44 1.303 . S
C2639 C60 1.495 . S
C2647 C1403 1.404 . S
C2671 C86 1.700 . S
C2679 C1973 1.240 . S
C2703 C96 1.667 . S
C2711 C2113 1.127 . S
C2743 C2201 1.227 . S
C2735 C109 1.697 . S
C2767 C112 1.777 . S
C2775 C289 1.192 . S
C2799 C83 1.781 . S
C2807 C403 1.192 . S
C2831 C99 1.725 . S
C2839 C491 1.316 . S
C2863 C125 1.426 . S
C2871 C377 1.309 . S
C2895 C135 1.559 . S
C2903 C517 1.383 . S
C2935 C263 1.458 . S
C2927 C148 1.641 . S
C2967 C2227 1.619 . S
C2959 C151 1.816 . S
C2999 C1999 1.382 . S
C2991 C122 1.639 . S
C3031 C2087 1.545 . S
C3023 C138 1.630 . S
C3055 C164 1.559 . S
C3063 C605 1.111 . S
C3087 C174 1.674 . S
C3095 C745 1.131 . S
C3119 C187 1.704 . S
C3127 C833 1.265 . S
C3151 C190 1.937 . S
C3159 C973 1.267 . S
C3191 C1087 1.100 . S
C3183 C161 1.743 . S
C3223 C1175 1.311 . S
C3215 C177 1.772 . S
C3255 C1061 1.449 . S
C3247 C203 1.608 . S
C3287 C1201 1.338 . S
C3279 C213 1.593 . S
C3311 C226 1.589 . S
C3319 C947 1.449 . S
C3351 C859 1.463 . S
C3343 C229 1.687 . S
C3375 C200 1.661 . S
C3383 C631 1.416 . S
C3415 C719 1.524 . S
C3407 C216 1.609 . S
C3447 C245 0.923 . S
C3439 C0 1.687 . S
C3471 C23 1.571 . S
C3479 C359 0.893 . S
C3511 C463 1.245 . S
C3503 C36 1.688 . S
C3543 C577 1.188 . S
C3535 C26 1.481 . S
C3575 C701 0.967 . S
C3567 C10 1.726 . S
C3607 C805 1.126 . S
C3599 C13 1.556 1_556 S
C3631 C39 1.728 . S
C3639 C815 1.426 . S
C3663 C62 1.675 . S
C3671 C587 1.325 . S
C3695 C75 1.776 1_556 S
C3703 C691 1.567 . S
C3727 C65 1.667 . S
C3735 C349 1.577 . S
C3767 C473 1.483 . S
C3759 C49 1.865 . S
C3791 C52 1.670 . S
C3799 C235 1.590 . S
C3831 C929 0.855 . S
C3823 C78 1.584 . S
C3855 C101 1.706 . S
C3863 C1043 0.933 . S
C3887 C114 1.689 1_655 S
C3895 C1147 1.301 . S
C3927 C1261 0.968 . S
C3919 C104 1.121 . S
C3951 C88 1.573 . S
C3959 C1385 0.910 . S
C3983 C91 1.116 . S
C3991 C1489 0.980 . S
C4015 C117 1.233 . S
C4023 C1499 0.823 1_565 S
C4047 C140 1.178 . S
C4055 C1271 0.798 . S
C4087 C1375 1.436 . S
C4079 C153 1.646 . S
C4111 C143 1.537 . S
C4119 C1033 1.504 . S
C4143 C127 1.850 . S
C4151 C1157 1.483 . S
C4183 C919 1.684 . S
C4175 C130 1.806 . S
C4215 C1613 0.794 . S
C4207 C156 1.300 . S
C4239 C179 1.160 . S
C4247 C1727 0.796 . S
C4271 C192 1.548 . S
C4279 C1831 1.105 . S
C4311 C1945 1.124 . S
C4303 C182 1.403 . S
C4343 C2069 1.033 . S
C4335 C166 1.738 . S
C4367 C169 1.707 . S
C4375 C2173 1.246 . S
C4399 C195 1.653 . S
C4407 C2183 1.367 . S
C4431 C218 1.808 . S
C4439 C1955 1.390 . S
C4471 C2059 1.579 . S
C4463 C231 1.783 . S
C4503 C1717 0.978 1_655 S
C4495 C221 1.142 . S
C4535 C1841 1.280 . S
C4527 C205 1.682 . S
C4559 C208 1.199 . S
C4567 C1603 0.994 1_545 S
