# Generated by pormake.
# Topology rtl, (3,6)-cn, num edge types: 1
# Building blocks:
#     Node 0, Type 0, BuildingBlock: MIDCAF_clean_linker_0, # of connection points: 3
#     Node 1, Type 0, BuildingBlock: MIDCAF_clean_linker_0, # of connection points: 3
#     Node 2, Type 0, BuildingBlock: MIDCAF_clean_linker_0, # of connection points: 3
#     Node 3, Type 0, BuildingBlock: MIDCAF_clean_linker_0, # of connection points: 3
#     Node 4, Type 1, BuildingBlock: CIFDUS_clean_sbu_1, # of connection points: 6
#     Node 5, Type 1, BuildingBlock: CIFDUS_clean_sbu_1, # of connection points: 6
#     Edge 6, Type (0, 1), BuildingBlock: AJUNOK_clean_linker_0, # of connection points: 2
#     Edge 7, Type (0, 1), BuildingBlock: AJUNOK_clean_linker_0, # of connection points: 2
#     Edge 8, Type (0, 1), BuildingBlock: AJUNOK_clean_linker_0, # of connection points: 2
#     Edge 9, Type (0, 1), BuildingBlock: AJUNOK_clean_linker_0, # of connection points: 2
#     Edge 10, Type (0, 1), BuildingBlock: AJUNOK_clean_linker_0, # of connection points: 2
#     Edge 11, Type (0, 1), BuildingBlock: AJUNOK_clean_linker_0, # of connection points: 2
#     Edge 12, Type (0, 1), BuildingBlock: AJUNOK_clean_linker_0, # of connection points: 2
#     Edge 13, Type (0, 1), BuildingBlock: AJUNOK_clean_linker_0, # of connection points: 2
#     Edge 14, Type (0, 1), BuildingBlock: AJUNOK_clean_linker_0, # of connection points: 2
#     Edge 15, Type (0, 1), BuildingBlock: AJUNOK_clean_linker_0, # of connection points: 2
#     Edge 16, Type (0, 1), BuildingBlock: AJUNOK_clean_linker_0, # of connection points: 2
#     Edge 17, Type (0, 1), BuildingBlock: AJUNOK_clean_linker_0, # of connection points: 2
# Relax obj value: 0.029
# Max RMSD: 0.064
# Mean RMSD: 0.049
data_MOF--net-rtl--node1-CIFDUS_clean_sbu_1--node2-MIDCAF_clean_linker_0--edge1-AJUNOK_clean_linker_0
_symmetry_space_group_name_H-M    P1
_symmetry_Int_Tables_number       1
_symmetry_cell_setting            triclinic
loop_
_symmetry_equiv_pos_as_xyz
'x, y, z'
_cell_length_a     29.008249
_cell_length_b     33.005988
_cell_length_c     23.031206
_cell_angle_alpha  89.913468
_cell_angle_beta   97.782154
_cell_angle_gamma 89.988485
loop_
_atom_site_label
_atom_site_type_symbol
_atom_site_fract_x
_atom_site_fract_y
_atom_site_fract_z
_atom_type_partial_charge
C0 C 0.20737 0.98329 0.24439 0.0
C1 C 0.21192 0.96174 0.29756 0.0
C2 C 0.24112 0.92747 0.30364 0.0
C3 C 0.26351 0.91418 0.25675 0.0
H4 H 0.36308 0.83001 0.20486 0.0
H5 H 0.41359 0.77026 0.20802 0.0
H6 H 0.40282 0.77254 0.01913 0.0
H7 H 0.35461 0.83222 0.01597 0.0
H8 H 0.28581 0.88432 0.9404 0.0
H9 H 0.24614 0.9028 0.84344 0.0
H10 H 0.16996 0.99575 0.92083 0.0
H11 H 0.2092 0.97763 0.01828 0.0
H12 H 0.22351 0.98668 0.15678 0.0
H13 H 0.18554 0.01001 0.23831 0.0
H14 H 0.24478 0.90963 0.34348 0.0
H15 H 0.28439 0.88689 0.26226 0.0
N16 N 0.30665 0.88703 0.15506 0.0
N17 N 0.30352 0.8854 0.05272 0.0
N18 N 0.25792 0.93201 0.09584 0.0
C19 C 0.32131 0.8708 0.10632 0.0
C20 C 0.2719 0.91589 0.04689 0.0
C21 C 0.27509 0.91794 0.15009 0.0
C22 C 0.35431 0.83598 0.11016 0.0
C23 C 0.37196 0.81794 0.16411 0.0
C24 C 0.4007 0.7835 0.16592 0.0
C25 C 0.41221 0.76631 0.11383 0.0
C26 C 0.39542 0.78512 0.0603 0.0
C27 C 0.36719 0.81939 0.05848 0.0
C28 C 0.25048 0.92922 0.98754 0.0
C29 C 0.26083 0.90887 0.93706 0.0
C30 C 0.23812 0.91925 0.8815 0.0
C31 C 0.20481 0.95019 0.87528 0.0
C32 C 0.19531 0.97144 0.92502 0.0
C33 C 0.21788 0.96106 0.98067 0.0
C34 C 0.2567 0.93454 0.20251 0.0
C35 C 0.22923 0.96984 0.19752 0.0
C36 C 0.6665 0.57771 0.4243 0.0
C37 C 0.67491 0.59809 0.37325 0.0
C38 C 0.70671 0.63022 0.37753 0.0
C39 C 0.7297 0.64194 0.43231 0.0
H40 H 0.82771 0.71811 0.50854 0.0
H41 H 0.8762 0.7781 0.51011 0.0
H42 H 0.87816 0.78799 0.69704 0.0
H43 H 0.82914 0.7271 0.69614 0.0
H44 H 0.76198 0.6622 0.75796 0.0
H45 H 0.72274 0.63888 0.83962 0.0
H46 H 0.66535 0.5377 0.73629 0.0
H47 H 0.70399 0.56063 0.6544 0.0
H48 H 0.6814 0.5734 0.51754 0.0
H49 H 0.64232 0.55254 0.42173 0.0
H50 H 0.71424 0.64579 0.33846 0.0
H51 H 0.75416 0.66684 0.43414 0.0
N52 N 0.77372 0.66719 0.54671 0.0
N53 N 0.78113 0.66399 0.64941 0.0
N54 N 0.73289 0.61792 0.59199 0.0
C55 C 0.79278 0.68166 0.59979 0.0
C56 C 0.7514 0.63174 0.64574 0.0
C57 C 0.74375 0.63549 0.54226 0.0
C58 C 0.82427 0.71751 0.60231 0.0
C59 C 0.83845 0.73264 0.55032 0.0
C60 C 0.86647 0.76705 0.55109 0.0
C61 C 0.88116 0.78751 0.60375 0.0
C62 C 0.86726 0.77269 0.6559 0.0
C63 C 0.83936 0.7378 0.65529 0.0
C64 C 0.73563 0.61374 0.6991 0.0
C65 C 0.74225 0.63427 0.7531 0.0
C66 C 0.72019 0.62076 0.80014 0.0
C67 C 0.69178 0.58614 0.79443 0.0
C68 C 0.68791 0.56395 0.74215 0.0
C69 C 0.70962 0.57753 0.69502 0.0
C70 C 0.72097 0.62191 0.48384 0.0
C71 C 0.68908 0.58959 0.47905 0.0
C72 C 0.85373 0.07626 0.86795 0.0
C73 C 0.83161 0.08364 0.81076 0.0
C74 C 0.7915 0.10821 0.80343 0.0
C75 C 0.77431 0.12522 0.85199 0.0
H76 H 0.69219 0.22265 0.90389 0.0
H77 H 0.64581 0.2852 0.89706 0.0
H78 H 0.66315 0.29328 0.08544 0.0
H79 H 0.70859 0.23101 0.09304 0.0
H80 H 0.76002 0.16035 0.17202 0.0
H81 H 0.799 0.13968 0.26858 0.0
H82 H 0.89592 0.06782 0.18593 0.0
H83 H 0.85758 0.08818 0.08991 0.0
H84 H 0.85482 0.08659 0.9595 0.0
H85 H 0.88575 0.05904 0.87552 0.0
H86 H 0.77371 0.11475 0.76001 0.0
H87 H 0.74371 0.14433 0.84472 0.0
N88 N 0.74909 0.16783 0.95568 0.0
N89 N 0.75361 0.17149 0.05825 0.0
N90 N 0.79723 0.12306 0.01545 0.0
C91 C 0.73577 0.18559 1.00422 0.0
C92 C 0.78428 0.14018 0.06421 0.0
C93 C 0.77985 0.13639 0.96112 0.0
C94 C 0.70465 0.22177 0.99904 0.0
C95 C 0.68583 0.23752 0.94393 0.0
C96 C 0.65929 0.27327 0.93984 0.0
C97 C 0.65152 0.29408 0.99069 0.0
C98 C 0.66914 0.2779 0.0456 0.0
C99 C 0.69514 0.24212 0.04979 0.0
C100 C 0.80577 0.1262 0.12303 0.0
C101 C 0.78955 0.14004 0.17441 0.0
C102 C 0.81168 0.12813 0.22968 0.0
C103 C 0.85065 0.10247 0.23457 0.0
C104 C 0.86629 0.08807 0.18336 0.0
C105 C 0.84405 0.09962 0.1283 0.0
C106 C 0.7966 0.11777 0.90907 0.0
C107 C 0.83623 0.09269 0.91634 0.0
C108 C 0.32462 0.4719 0.67727 0.0
C109 C 0.32856 0.44385 0.72399 0.0
C110 C 0.30787 0.40553 0.71372 0.0
C111 C 0.28388 0.39564 0.65869 0.0
H112 H 0.15827 0.33717 0.57719 0.0
H113 H 0.11821 0.27214 0.57666 0.0
H114 H 0.14709 0.24942 0.40097 0.0
H115 H 0.18714 0.31491 0.4007 0.0
H116 H 0.23029 0.38768 0.33665 0.0
H117 H 0.26571 0.40701 0.25069 0.0
H118 H 0.34731 0.49803 0.3516 0.0
H119 H 0.31253 0.47852 0.43877 0.0
H120 H 0.29979 0.48375 0.58673 0.0
H121 H 0.33946 0.50194 0.6835 0.0
H122 H 0.31122 0.38257 0.7476 0.0
H123 H 0.26888 0.36565 0.65247 0.0
N124 N 0.22669 0.38058 0.54733 0.0
N125 N 0.22104 0.38401 0.44505 0.0
N126 N 0.27064 0.42861 0.50334 0.0
C127 C 0.20775 0.36689 0.4938 0.0
C128 C 0.25216 0.41509 0.44921 0.0
C129 C 0.25804 0.41137 0.55265 0.0
C130 C 0.17661 0.331 0.48935 0.0
C131 C 0.15535 0.31885 0.53789 0.0
C132 C 0.13208 0.2818 0.5375 0.0
C133 C 0.12967 0.25606 0.48873 0.0
C134 C 0.14816 0.26909 0.43873 0.0
C135 C 0.17121 0.30645 0.43885 0.0
C136 C 0.26889 0.43114 0.39521 0.0
C137 C 0.2551 0.41237 0.34072 0.0
C138 C 0.27513 0.42353 0.29117 0.0
C139 C 0.30882 0.45419 0.29447 0.0
C140 C 0.32078 0.47472 0.34778 0.0
C141 C 0.30113 0.46323 0.39777 0.0
C142 C 0.281 0.42333 0.6118 0.0
C143 C 0.30161 0.46162 0.62176 0.0
O144 O 0.97237 0.04319 0.48918 0.0
Mn145 Mn 0.01952 0.01738 0.55593 0.0
O146 O 0.96413 0.9972 0.41893 0.0
Mn147 Mn 0.99438 0.95737 0.46504 0.0
O148 O 0.06763 0.9943 0.62558 0.0
O149 O 0.04538 0.07628 0.56812 0.0
Mn150 Mn 0.04235 0.08132 0.64426 0.0
O151 O 0.96688 0.02437 0.61148 0.0
O152 O 0.08352 0.04685 0.6866 0.0
O153 O 0.07106 0.00882 0.49813 0.0
O154 O 0.05422 0.9498 0.45223 0.0
O155 O 0.06437 0.1294 0.62768 0.0
O156 O 0.98282 0.08185 0.66046 0.0
C157 C 0.96219 0.93102 0.53171 0.0
C158 C 0.95611 0.03186 0.43762 0.0
C159 C 0.0898 0.01046 0.67209 0.0
C160 C 0.0617 0.1135 0.57588 0.0
C161 C 0.95581 0.05275 0.64528 0.0
C162 C 0.08147 0.97951 0.46477 0.0
O163 O 0.99617 0.9575 0.54341 0.0
O164 O 0.95273 0.91992 0.47749 0.0
O165 O 0.54973 0.54256 0.12157 0.0
Mn166 Mn 0.50528 0.51987 0.04817 0.0
O167 O 0.56965 0.48803 0.17676 0.0
Mn168 Mn 0.53359 0.45335 0.1286 0.0
O169 O 0.46307 0.49434 0.97433 0.0
O170 O 0.47734 0.57868 0.04333 0.0
Mn171 Mn 0.45739 0.57605 0.96679 0.0
O172 O 0.55423 0.53764 0.9928 0.0
O173 O 0.4104 0.54014 0.94519 0.0
O174 O 0.45236 0.50434 0.10154 0.0
O175 O 0.47444 0.44582 0.1436 0.0
O176 O 0.4382 0.62495 0.98379 0.0
O177 O 0.50813 0.57374 0.92622 0.0
C178 C 0.55723 0.42669 0.0593 0.0
C179 C 0.5724 0.52564 0.16717 0.0
C180 C 0.42444 0.50429 0.94392 0.0
C181 C 0.45831 0.61505 0.03562 0.0
C182 C 0.54764 0.55838 0.94481 0.0
C183 C 0.44432 0.47325 0.13271 0.0
O184 O 0.53731 0.4628 0.05348 0.0
O185 O 0.56154 0.4087 0.10984 0.0
C186 C 0.07027 0.19995 0.47457 0.0
C187 C 0.11557 0.21339 0.49521 0.0
C188 C 0.05393 0.16248 0.49322 0.0
C189 C 0.08268 0.1375 0.53243 0.0
H190 H 0.04633 0.21982 0.44787 0.0
H191 H 0.01741 0.15514 0.48194 0.0
S192 S 0.20487 0.15826 0.59513 0.0
N193 N 0.18947 0.19801 0.55338 0.0
N194 N 0.15935 0.12776 0.58733 0.0
C195 C 0.12921 0.14927 0.5486 0.0
C196 C 0.14545 0.18733 0.53058 0.0
C197 C 0.47111 0.72292 0.07319 0.0
C198 C 0.43855 0.72738 0.11279 0.0
C199 C 0.48485 0.68448 0.05636 0.0
C200 C 0.46619 0.64892 0.0778 0.0
H201 H 0.4829 0.74918 0.05106 0.0
H202 H 0.50558 0.68267 0.02065 0.0
S203 S 0.39362 0.64434 0.19776 0.0
N204 N 0.39797 0.69319 0.18444 0.0
N205 N 0.42352 0.62074 0.15173 0.0
C206 C 0.43973 0.65296 0.12406 0.0
C207 C 0.42592 0.69231 0.14177 0.0
C208 C 0.89289 0.86274 0.61679 0.0
C209 C 0.91019 0.82462 0.60256 0.0
C210 C 0.91414 0.89897 0.60138 0.0
C211 C 0.95402 0.89809 0.57277 0.0
H212 H 0.86048 0.8646 0.63511 0.0
H213 H 0.89685 0.92752 0.60695 0.0
S214 S 0.01566 0.80602 0.53204 0.0
N215 N 0.97148 0.78832 0.56267 0.0
N216 N 0.01225 0.85585 0.53607 0.0
C217 C 0.97412 0.86007 0.56403 0.0
C218 C 0.9519 0.82347 0.57806 0.0
C219 C 0.65051 0.36865 0.00782 0.0
C220 C 0.62636 0.33333 0.98787 0.0
C221 C 0.62657 0.404 0.01976 0.0
C222 C 0.57764 0.40499 0.01337 0.0
H223 H 0.68805 0.36795 0.01858 0.0
H224 H 0.64643 0.4288 0.04145 0.0
S225 S 0.49847 0.32197 0.95623 0.0
N226 N 0.55111 0.30282 0.95607 0.0
N227 N 0.50615 0.369 0.98008 0.0
C228 C 0.55336 0.37119 0.98794 0.0
C229 C 0.5777 0.33524 0.97529 0.0
C230 C 0.13408 0.98003 0.32486 0.0
C231 C 0.18156 0.97219 0.34291 0.0
C232 C 0.10305 0.98585 0.36553 0.0
C233 C 0.11787 0.9841 0.42617 0.0
H234 H 0.12012 0.97969 0.27879 0.0
H235 H 0.06644 0.98964 0.34928 0.0
S236 S 0.23881 0.96812 0.49713 0.0
N237 N 0.24255 0.96614 0.42619 0.0
N238 N 0.18335 0.97626 0.50281 0.0
C239 C 0.16538 0.97813 0.4453 0.0
C240 C 0.19736 0.97223 0.40364 0.0
C241 C 0.66391 0.55186 0.8821 0.0
C242 C 0.65709 0.57962 0.83524 0.0
C243 C 0.62896 0.54531 0.91842 0.0
C244 C 0.586 0.56608 0.90853 0.0
H245 H 0.69615 0.53497 0.89037 0.0
H246 H 0.63535 0.52345 0.95371 0.0
S247 S 0.55272 0.64249 0.79059 0.0
N248 N 0.60551 0.62798 0.78092 0.0
N249 N 0.54026 0.6166 0.84772 0.0
C250 C 0.57967 0.59429 0.86163 0.0
C251 C 0.61504 0.60076 0.82536 0.0
C252 C 0.92458 0.09528 0.30343 0.0
C253 C 0.8759 0.09081 0.29258 0.0
C254 C 0.95029 0.07958 0.35442 0.0
C255 C 0.9282 0.05904 0.39637 0.0
H256 H 0.94311 0.10958 0.2711 0.0
H257 H 0.98793 0.08126 0.35928 0.0
S258 S 0.80186 0.03981 0.38973 0.0
N259 N 0.8066 0.0653 0.32901 0.0
N260 N 0.85525 0.03557 0.42478 0.0
C261 C 0.87954 0.05579 0.38739 0.0
C262 C 0.85325 0.07186 0.33554 0.0
C263 C 0.39689 0.477 0.78463 0.0
C264 C 0.35542 0.45442 0.7823 0.0
C265 C 0.42119 0.49007 0.83812 0.0
C266 C 0.40544 0.4808 0.89168 0.0
H267 H 0.41034 0.48543 0.74468 0.0
H268 H 0.45142 0.50928 0.8374 0.0
S269 S 0.30082 0.4212 0.9116 0.0
N270 N 0.3008 0.42237 0.83988 0.0
N271 N 0.34739 0.44673 0.94011 0.0
C272 C 0.36538 0.45706 0.89068 0.0
C273 C 0.34028 0.44377 0.83615 0.0
C274 C 0.66289 0.54448 0.29778 0.0
C275 C 0.65257 0.58358 0.31558 0.0
C276 C 0.6388 0.52757 0.24707 0.0
C277 C 0.60275 0.54878 0.21241 0.0
H278 H 0.68898 0.52636 0.32423 0.0
H279 H 0.64735 0.49676 0.2363 0.0
S280 S 0.5644 0.65346 0.23888 0.0
N281 N 0.6063 0.64442 0.29354 0.0
N282 N 0.55981 0.61209 0.19812 0.0
C283 C 0.5936 0.58881 0.22816 0.0
C284 C 0.61871 0.60629 0.27994 0.0
C285 C 0.85807 0.09715 0.71348 0.0
C286 C 0.85357 0.0697 0.75918 0.0
C287 C 0.88701 0.08861 0.67108 0.0
C288 C 0.91261 0.05233 0.67244 0.0
H289 H 0.84224 0.12689 0.71299 0.0
H290 H 0.89264 0.11221 0.64001 0.0
S291 S 0.90697 0.96728 0.77614 0.0
N292 N 0.87182 1.00192 0.79769 0.0
N293 N 0.92749 0.98673 0.71865 0.0
C294 C 0.90517 0.023 0.71425 0.0
C295 C 0.87548 0.03156 0.75759 0.0
C296 C 0.36441 0.42688 0.2317 0.0
C297 C 0.3372 0.45943 0.24598 0.0
C298 C 0.39601 0.43143 0.19151 0.0
C299 C 0.40244 0.46895 0.16385 0.0
H300 H 0.36269 0.39795 0.25365 0.0
H301 H 0.4171 0.40532 0.1842 0.0
S302 S 0.32962 0.56017 0.1751 0.0
N303 N 0.3118 0.5281 0.2224 0.0
N304 N 0.37168 0.5371 0.14609 0.0
C305 C 0.37225 0.50084 0.17394 0.0
C306 C 0.33979 0.49605 0.21544 0.0
C307 C 0.13651 0.94203 0.7973 0.0
C308 C 0.17956 0.96042 0.81702 0.0
C309 C 0.10899 0.95537 0.74575 0.0
C310 C 0.12383 0.98753 0.71278 0.0
H311 H 0.12311 0.91857 0.82338 0.0
H312 H 0.0746 0.94256 0.73416 0.0
S313 S 0.23543 0.04332 0.74371 0.0
N314 N 0.23705 0.01025 0.7979 0.0
N315 N 0.18552 0.03551 0.70144 0.0
C316 C 0.16799 0.00448 0.73057 0.0
C317 C 0.19583 0.99092 0.78272 0.0
loop_
_geom_bond_atom_site_label_1
_geom_bond_atom_site_label_2
_geom_bond_distance
_geom_bond_site_symmetry_2
_ccdc_geom_bond_type
C0 C1 1.384 . S
C0 H13 0.947 . S
C0 C35 1.382 . S
C1 C0 1.384 . S
C1 C2 1.378 . S
C2 C1 1.378 . S
C2 C3 1.378 . S
C2 H14 0.952 . S
C3 C2 1.378 . S
C3 H15 0.950 . S
C3 C34 1.383 . S
H4 C23 0.947 . S
H5 C24 0.946 . S
H6 C26 0.953 . S
H7 C27 0.945 . S
H8 C29 0.952 . S
H9 C30 0.949 . S
H10 C32 0.950 1_545 S
H11 C33 0.948 1_554 S
H12 C35 0.951 . S
H13 C0 0.947 . S
H14 C2 0.952 . S
H15 C3 0.950 . S
N16 C19 1.382 . S
N16 C21 1.363 . S
N17 C19 1.371 . S
N17 C20 1.372 . S
N18 C20 1.361 . S
N18 C21 1.377 . S
C19 N16 1.382 . S
C19 N17 1.371 . S
C19 C22 1.480 . S
C20 N17 1.372 . S
C20 N18 1.361 . S
C20 C28 1.457 1_554 S
C21 N16 1.363 . S
C21 N18 1.377 . S
C21 C34 1.479 . S
C22 C19 1.480 . S
C22 C23 1.383 . S
C22 C27 1.385 . S
C23 H4 0.947 . S
C23 C22 1.383 . S
C23 C24 1.388 . S
C24 H5 0.946 . S
C24 C23 1.388 . S
C24 C25 1.384 . S
C25 C24 1.384 . S
C25 C26 1.377 . S
C26 H6 0.953 . S
C26 C25 1.377 . S
C26 C27 1.369 . S
C27 H7 0.945 . S
C27 C22 1.385 . S
C27 C26 1.369 . S
C28 C20 1.457 1_556 S
C28 C29 1.372 . S
C28 C33 1.364 . S
C29 H8 0.952 . S
C29 C28 1.372 . S
C29 C30 1.389 . S
C30 H9 0.949 . S
C30 C29 1.389 . S
C30 C31 1.387 . S
C31 C30 1.387 . S
C31 C32 1.372 . S
C32 H10 0.950 1_565 S
C32 C31 1.372 . S
C32 C33 1.379 . S
C33 H11 0.948 1_556 S
C33 C28 1.364 . S
C33 C32 1.379 . S
C34 C3 1.383 . S
C34 C21 1.479 . S
C34 C35 1.398 . S
C35 C0 1.382 . S
C35 H12 0.951 . S
C35 C34 1.398 . S
C36 C37 1.384 . S
C36 H49 0.947 . S
C36 C71 1.382 . S
C37 C36 1.384 . S
C37 C38 1.378 . S
C38 C37 1.378 . S
C38 C39 1.378 . S
C38 H50 0.952 . S
C39 C38 1.378 . S
C39 H51 0.950 . S
C39 C70 1.383 . S
H40 C59 0.947 . S
H41 C60 0.946 . S
H42 C62 0.953 . S
H43 C63 0.945 . S
H44 C65 0.952 . S
H45 C66 0.949 . S
H46 C68 0.950 . S
H47 C69 0.948 . S
H48 C71 0.951 . S
H49 C36 0.947 . S
H50 C38 0.952 . S
H51 C39 0.950 . S
N52 C55 1.382 . S
N52 C57 1.363 . S
N53 C55 1.371 . S
N53 C56 1.372 . S
N54 C56 1.361 . S
N54 C57 1.377 . S
C55 N52 1.382 . S
C55 N53 1.371 . S
C55 C58 1.480 . S
C56 N53 1.372 . S
C56 N54 1.361 . S
C56 C64 1.457 . S
C57 N52 1.363 . S
C57 N54 1.377 . S
C57 C70 1.479 . S
C58 C55 1.480 . S
C58 C59 1.383 . S
C58 C63 1.385 . S
C59 H40 0.947 . S
C59 C58 1.383 . S
C59 C60 1.388 . S
C60 H41 0.946 . S
C60 C59 1.388 . S
C60 C61 1.384 . S
C61 C60 1.384 . S
C61 C62 1.377 . S
C62 H42 0.953 . S
C62 C61 1.377 . S
C62 C63 1.369 . S
C63 H43 0.945 . S
C63 C58 1.385 . S
C63 C62 1.369 . S
C64 C56 1.457 . S
C64 C65 1.372 . S
C64 C69 1.364 . S
C65 H44 0.952 . S
C65 C64 1.372 . S
C65 C66 1.389 . S
C66 H45 0.949 . S
C66 C65 1.389 . S
C66 C67 1.387 . S
C67 C66 1.387 . S
C67 C68 1.372 . S
C68 H46 0.950 . S
C68 C67 1.372 . S
C68 C69 1.379 . S
C69 H47 0.948 . S
C69 C64 1.364 . S
C69 C68 1.379 . S
C70 C39 1.383 . S
C70 C57 1.479 . S
C70 C71 1.398 . S
C71 C36 1.382 . S
C71 H48 0.951 . S
C71 C70 1.398 . S
C72 C73 1.384 . S
C72 H85 0.947 . S
C72 C107 1.382 . S
C73 C72 1.384 . S
C73 C74 1.378 . S
C74 C73 1.378 . S
C74 C75 1.378 . S
C74 H86 0.952 . S
C75 C74 1.378 . S
C75 H87 0.950 . S
C75 C106 1.383 . S
H76 C95 0.947 . S
H77 C96 0.946 . S
H78 C98 0.953 . S
H79 C99 0.945 . S
H80 C101 0.952 . S
H81 C102 0.949 . S
H82 C104 0.950 . S
H83 C105 0.948 . S
H84 C107 0.951 . S
H85 C72 0.947 . S
H86 C74 0.952 . S
H87 C75 0.950 . S
N88 C91 1.382 1_556 S
N88 C93 1.363 . S
N89 C91 1.371 . S
N89 C92 1.372 . S
N90 C92 1.361 . S
N90 C93 1.377 1_554 S
C91 N88 1.382 1_554 S
C91 N89 1.371 . S
C91 C94 1.480 . S
C92 N89 1.372 . S
C92 N90 1.361 . S
C92 C100 1.457 . S
C93 N88 1.363 . S
C93 N90 1.377 1_556 S
C93 C106 1.479 . S
C94 C91 1.480 . S
C94 C95 1.383 1_554 S
C94 C99 1.385 . S
C95 H76 0.947 . S
C95 C94 1.383 1_556 S
C95 C96 1.388 . S
C96 H77 0.946 . S
C96 C95 1.388 . S
C96 C97 1.384 . S
C97 C96 1.384 . S
C97 C98 1.377 1_556 S
C98 H78 0.953 . S
C98 C97 1.377 1_554 S
C98 C99 1.369 . S
C99 H79 0.945 . S
C99 C94 1.385 . S
C99 C98 1.369 . S
C100 C92 1.457 . S
C100 C101 1.372 . S
C100 C105 1.364 . S
C101 H80 0.952 . S
C101 C100 1.372 . S
C101 C102 1.389 . S
C102 H81 0.949 . S
C102 C101 1.389 . S
C102 C103 1.387 . S
C103 C102 1.387 . S
C103 C104 1.372 . S
C104 H82 0.950 . S
C104 C103 1.372 . S
C104 C105 1.379 . S
C105 H83 0.948 . S
C105 C100 1.364 . S
C105 C104 1.379 . S
C106 C75 1.383 . S
C106 C93 1.479 . S
C106 C107 1.398 . S
C107 C72 1.382 . S
C107 H84 0.951 . S
C107 C106 1.398 . S
C108 C109 1.384 . S
C108 H121 0.947 . S
C108 C143 1.382 . S
C109 C108 1.384 . S
C109 C110 1.378 . S
C110 C109 1.378 . S
C110 C111 1.378 . S
C110 H122 0.952 . S
C111 C110 1.378 . S
C111 H123 0.950 . S
C111 C142 1.383 . S
H112 C131 0.947 . S
H113 C132 0.946 . S
H114 C134 0.953 . S
H115 C135 0.945 . S
H116 C137 0.952 . S
H117 C138 0.949 . S
H118 C140 0.950 . S
H119 C141 0.948 . S
H120 C143 0.951 . S
H121 C108 0.947 . S
H122 C110 0.952 . S
H123 C111 0.950 . S
N124 C127 1.382 . S
N124 C129 1.363 . S
N125 C127 1.371 . S
N125 C128 1.372 . S
N126 C128 1.361 . S
N126 C129 1.377 . S
C127 N124 1.382 . S
C127 N125 1.371 . S
C127 C130 1.480 . S
C128 N125 1.372 . S
C128 N126 1.361 . S
C128 C136 1.457 . S
C129 N124 1.363 . S
C129 N126 1.377 . S
C129 C142 1.479 . S
C130 C127 1.480 . S
C130 C131 1.383 . S
C130 C135 1.385 . S
C131 H112 0.947 . S
C131 C130 1.383 . S
C131 C132 1.388 . S
C132 H113 0.946 . S
C132 C131 1.388 . S
C132 C133 1.384 . S
C133 C132 1.384 . S
C133 C134 1.377 . S
C134 H114 0.953 . S
C134 C133 1.377 . S
C134 C135 1.369 . S
C135 H115 0.945 . S
C135 C130 1.385 . S
C135 C134 1.369 . S
C136 C128 1.457 . S
C136 C137 1.372 . S
C136 C141 1.364 . S
C137 H116 0.952 . S
C137 C136 1.372 . S
C137 C138 1.389 . S
C138 H117 0.949 . S
C138 C137 1.389 . S
C138 C139 1.387 . S
C139 C138 1.387 . S
C139 C140 1.372 . S
C140 H118 0.950 . S
C140 C139 1.372 . S
C140 C141 1.379 . S
C141 H119 0.948 . S
C141 C136 1.364 . S
C141 C140 1.379 . S
C142 C111 1.383 . S
C142 C129 1.479 . S
C142 C143 1.398 . S
C143 C108 1.382 . S
C143 H120 0.951 . S
C143 C142 1.398 . S
O144 Mn145 2.163 1_655 S
O144 C158 1.244 . S
Mn145 O144 2.163 1_455 S
Mn145 O148 2.160 1_545 S
Mn145 O149 2.221 . S
Mn145 O151 2.163 1_455 S
Mn145 O153 2.160 1_545 S
Mn145 O163 2.221 1_445 S
O146 Mn147 2.087 1_545 S
O146 C158 1.256 . S
Mn147 O146 2.087 1_565 S
Mn147 O154 2.089 1_655 S
Mn147 O163 2.290 . S
Mn147 O164 2.251 . S
O148 Mn145 2.160 1_565 S
O148 C159 1.239 . S
O149 Mn145 2.221 . S
O149 Mn150 2.290 . S
O149 C160 1.278 . S
Mn150 O149 2.290 . S
Mn150 O152 2.089 . S
Mn150 O155 2.251 . S
Mn150 O156 2.087 1_455 S
O151 Mn145 2.163 1_655 S
O151 C161 1.244 . S
O152 Mn150 2.089 . S
O152 C159 1.256 1_545 S
O153 Mn145 2.160 1_565 S
O153 C162 1.239 . S
O154 Mn147 2.089 1_455 S
O154 C162 1.256 . S
O155 Mn150 2.251 . S
O155 C160 1.241 . S
O156 Mn150 2.087 1_655 S
O156 C161 1.256 . S
C157 O163 1.278 . S
C157 O164 1.241 . S
C158 O144 1.244 . S
C158 O146 1.256 . S
C159 O148 1.239 . S
C159 O152 1.256 1_565 S
C160 O149 1.278 . S
C160 O155 1.241 . S
C161 O151 1.244 . S
C161 O156 1.256 . S
C162 O153 1.239 . S
C162 O154 1.256 . S
O163 Mn145 2.221 1_665 S
O163 Mn147 2.290 . S
O163 C157 1.278 . S
O164 Mn147 2.251 . S
O164 C157 1.241 . S
O165 Mn166 2.163 . S
O165 C179 1.244 . S
Mn166 O165 2.163 . S
Mn166 O169 2.160 1_554 S
Mn166 O170 2.221 . S
Mn166 O172 2.163 1_554 S
Mn166 O174 2.160 . S
Mn166 O184 2.221 . S
O167 Mn168 2.087 . S
O167 C179 1.256 . S
Mn168 O167 2.087 . S
Mn168 O175 2.089 . S
Mn168 O184 2.290 . S
Mn168 O185 2.251 . S
O169 Mn166 2.160 1_556 S
O169 C180 1.239 . S
O170 Mn166 2.221 . S
O170 Mn171 2.290 1_554 S
O170 C181 1.278 . S
Mn171 O170 2.290 1_556 S
Mn171 O173 2.089 . S
Mn171 O176 2.251 . S
Mn171 O177 2.087 . S
O172 Mn166 2.163 1_556 S
O172 C182 1.244 . S
O173 Mn171 2.089 . S
O173 C180 1.256 . S
O174 Mn166 2.160 . S
O174 C183 1.239 . S
O175 Mn168 2.089 . S
O175 C183 1.256 . S
O176 Mn171 2.251 . S
O176 C181 1.241 1_556 S
O177 Mn171 2.087 . S
O177 C182 1.256 . S
C178 O184 1.278 . S
C178 O185 1.241 . S
C179 O165 1.244 . S
C179 O167 1.256 . S
C180 O169 1.239 . S
C180 O173 1.256 . S
C181 O170 1.278 . S
C181 O176 1.241 1_554 S
C182 O172 1.244 . S
C182 O177 1.256 . S
C183 O174 1.239 . S
C183 O175 1.256 . S
O184 Mn166 2.221 . S
O184 Mn168 2.290 . S
O184 C178 1.278 . S
O185 Mn168 2.251 . S
O185 C178 1.241 . S
C186 C187 1.369 . S
C186 C188 1.419 . S
C186 H190 0.930 . S
C187 C186 1.369 . S
C187 C196 1.429 . S
C188 C186 1.419 . S
C188 C189 1.363 . S
C188 H191 0.929 . S
C189 C188 1.363 . S
C189 C195 1.428 . S
H190 C186 0.930 . S
H191 C188 0.929 . S
S192 N193 1.613 . S
S192 N194 1.610 . S
N193 S192 1.613 . S
N193 C196 1.350 . S
N194 S192 1.610 . S
N194 C195 1.351 . S
C195 C189 1.428 . S
C195 N194 1.351 . S
C195 C196 1.434 . S
C196 C187 1.429 . S
C196 N193 1.350 . S
C196 C195 1.434 . S
C197 C198 1.369 . S
C197 C199 1.419 . S
C197 H201 0.930 . S
C198 C197 1.369 . S
C198 C207 1.429 . S
C199 C197 1.419 . S
C199 C200 1.363 . S
C199 H202 0.929 1_554 S
C200 C199 1.363 . S
C200 C206 1.428 . S
H201 C197 0.930 . S
H202 C199 0.929 1_556 S
S203 N204 1.613 . S
S203 N205 1.610 . S
N204 S203 1.613 . S
N204 C207 1.350 . S
N205 S203 1.610 . S
N205 C206 1.351 . S
C206 C200 1.428 . S
C206 N205 1.351 . S
C206 C207 1.434 . S
C207 C198 1.429 . S
C207 N204 1.350 . S
C207 C206 1.434 . S
C208 C209 1.369 . S
C208 C210 1.419 . S
C208 H212 0.930 . S
C209 C208 1.369 . S
C209 C218 1.429 . S
C210 C208 1.419 . S
C210 C211 1.363 . S
C210 H213 0.929 . S
C211 C210 1.363 . S
C211 C217 1.428 . S
H212 C208 0.930 . S
H213 C210 0.929 . S
S214 N215 1.613 . S
S214 N216 1.610 . S
N215 S214 1.613 . S
N215 C218 1.350 . S
N216 S214 1.610 . S
N216 C217 1.351 . S
C217 C211 1.428 . S
C217 N216 1.351 . S
C217 C218 1.434 . S
C218 C209 1.429 . S
C218 N215 1.350 . S
C218 C217 1.434 . S
C219 C220 1.369 1_554 S
C219 C221 1.419 . S
C219 H223 0.930 . S
C220 C219 1.369 1_556 S
C220 C229 1.429 . S
C221 C219 1.419 . S
C221 C222 1.363 . S
C221 H224 0.929 . S
C222 C221 1.363 . S
C222 C228 1.428 1_554 S
H223 C219 0.930 . S
H224 C221 0.929 . S
S225 N226 1.613 . S
S225 N227 1.610 . S
N226 S225 1.613 . S
N226 C229 1.350 . S
N227 S225 1.610 . S
N227 C228 1.351 . S
C228 C222 1.428 1_556 S
C228 N227 1.351 . S
C228 C229 1.434 . S
C229 C220 1.429 . S
C229 N226 1.350 . S
C229 C228 1.434 . S
C230 C231 1.369 . S
C230 C232 1.419 . S
C230 H234 0.930 . S
C231 C230 1.369 . S
C231 C240 1.429 . S
C232 C230 1.419 . S
C232 C233 1.363 . S
C232 H235 0.929 . S
C233 C232 1.363 . S
C233 C239 1.428 . S
H234 C230 0.930 . S
H235 C232 0.929 . S
S236 N237 1.613 . S
S236 N238 1.610 . S
N237 S236 1.613 . S
N237 C240 1.350 . S
N238 S236 1.610 . S
N238 C239 1.351 . S
C239 C233 1.428 . S
C239 N238 1.351 . S
C239 C240 1.434 . S
C240 C231 1.429 . S
C240 N237 1.350 . S
C240 C239 1.434 . S
C241 C242 1.369 . S
C241 C243 1.419 . S
C241 H245 0.930 . S
C242 C241 1.369 . S
C242 C251 1.429 . S
C243 C241 1.419 . S
C243 C244 1.363 . S
C243 H246 0.929 . S
C244 C243 1.363 . S
C244 C250 1.428 . S
H245 C241 0.930 . S
H246 C243 0.929 . S
S247 N248 1.613 . S
S247 N249 1.610 . S
N248 S247 1.613 . S
N248 C251 1.350 . S
N249 S247 1.610 . S
N249 C250 1.351 . S
C250 C244 1.428 . S
C250 N249 1.351 . S
C250 C251 1.434 . S
C251 C242 1.429 . S
C251 N248 1.350 . S
C251 C250 1.434 . S
C252 C253 1.369 . S
C252 C254 1.419 . S
C252 H256 0.930 . S
C253 C252 1.369 . S
C253 C262 1.429 . S
C254 C252 1.419 . S
C254 C255 1.363 . S
C254 H257 0.929 . S
C255 C254 1.363 . S
C255 C261 1.428 . S
H256 C252 0.930 . S
H257 C254 0.929 . S
S258 N259 1.613 . S
S258 N260 1.610 . S
N259 S258 1.613 . S
N259 C262 1.350 . S
N260 S258 1.610 . S
N260 C261 1.351 . S
C261 C255 1.428 . S
C261 N260 1.351 . S
C261 C262 1.434 . S
C262 C253 1.429 . S
C262 N259 1.350 . S
C262 C261 1.434 . S
C263 C264 1.369 . S
C263 C265 1.419 . S
C263 H267 0.930 . S
C264 C263 1.369 . S
C264 C273 1.429 . S
C265 C263 1.419 . S
C265 C266 1.363 . S
C265 H268 0.929 . S
C266 C265 1.363 . S
C266 C272 1.428 . S
H267 C263 0.930 . S
H268 C265 0.929 . S
S269 N270 1.613 . S
S269 N271 1.610 . S
N270 S269 1.613 . S
N270 C273 1.350 . S
N271 S269 1.610 . S
N271 C272 1.351 . S
C272 C266 1.428 . S
C272 N271 1.351 . S
C272 C273 1.434 . S
C273 C264 1.429 . S
C273 N270 1.350 . S
C273 C272 1.434 . S
C274 C275 1.369 . S
C274 C276 1.419 . S
C274 H278 0.930 . S
C275 C274 1.369 . S
C275 C284 1.429 . S
C276 C274 1.419 . S
C276 C277 1.363 . S
C276 H279 0.929 . S
C277 C276 1.363 . S
C277 C283 1.428 . S
H278 C274 0.930 . S
H279 C276 0.929 . S
S280 N281 1.613 . S
S280 N282 1.610 . S
N281 S280 1.613 . S
N281 C284 1.350 . S
N282 S280 1.610 . S
N282 C283 1.351 . S
C283 C277 1.428 . S
C283 N282 1.351 . S
C283 C284 1.434 . S
C284 C275 1.429 . S
C284 N281 1.350 . S
C284 C283 1.434 . S
C285 C286 1.369 . S
C285 C287 1.419 . S
C285 H289 0.930 . S
C286 C285 1.369 . S
C286 C295 1.429 . S
C287 C285 1.419 . S
C287 C288 1.363 . S
C287 H290 0.929 . S
C288 C287 1.363 . S
C288 C294 1.428 . S
H289 C285 0.930 . S
H290 C287 0.929 . S
S291 N292 1.613 1_565 S
S291 N293 1.610 . S
N292 S291 1.613 1_545 S
N292 C295 1.350 . S
N293 S291 1.610 . S
N293 C294 1.351 1_565 S
C294 C288 1.428 . S
C294 N293 1.351 1_545 S
C294 C295 1.434 . S
C295 C286 1.429 . S
C295 N292 1.350 . S
C295 C294 1.434 . S
C296 C297 1.369 . S
C296 C298 1.419 . S
C296 H300 0.930 . S
C297 C296 1.369 . S
C297 C306 1.429 . S
C298 C296 1.419 . S
C298 C299 1.363 . S
C298 H301 0.929 . S
C299 C298 1.363 . S
C299 C305 1.428 . S
H300 C296 0.930 . S
H301 C298 0.929 . S
S302 N303 1.613 . S
S302 N304 1.610 . S
N303 S302 1.613 . S
N303 C306 1.350 . S
N304 S302 1.610 . S
N304 C305 1.351 . S
C305 C299 1.428 . S
C305 N304 1.351 . S
C305 C306 1.434 . S
C306 C297 1.429 . S
C306 N303 1.350 . S
C306 C305 1.434 . S
C307 C308 1.369 . S
C307 C309 1.419 . S
C307 H311 0.930 . S
C308 C307 1.369 . S
C308 C317 1.418 1_565 S
C309 C307 1.419 . S
C309 C310 1.363 . S
C309 H312 0.929 . S
C310 C309 1.363 . S
C310 C316 1.428 1_565 S
H311 C307 0.930 . S
H312 C309 0.929 . S
S313 N314 1.613 . S
S313 N315 1.610 . S
N314 S313 1.613 . S
N314 C317 1.361 . S
N315 S313 1.610 . S
N315 C316 1.351 . S
C316 C310 1.428 1_545 S
C316 N315 1.351 . S
C316 C317 1.434 . S
C317 C308 1.418 1_545 S
C317 N314 1.361 . S
C317 C316 1.434 . S
C189 C160 1.430 . S
C187 C133 1.531 . S
C198 C25 1.585 . S
C200 C181 1.434 . S
C209 C61 1.709 . S
C211 C157 1.511 . S
C220 C97 1.648 . S
C222 C178 1.513 . S
C233 C162 1.706 . S
C231 C1 1.675 . S
C244 C182 1.624 . S
C242 C67 1.628 . S
C253 C103 1.574 . S
C255 C158 1.525 . S
C264 C109 1.611 . S
C266 C180 1.568 . S
C277 C179 1.530 . S
C275 C37 1.612 . S
C288 C161 1.625 . S
C286 C73 1.606 . S
C299 C183 1.709 . S
C297 C139 1.615 . S
C308 C31 1.666 . S
C310 C159 1.563 . S
