# Generated by pormake.
# Topology ctn, (3,4)-cn, num edge types: 1
# Building blocks:
#     Node 0, Type 0, BuildingBlock: CUQRIR_clean_linker_1, # of connection points: 3
#     Node 1, Type 0, BuildingBlock: CUQRIR_clean_linker_1, # of connection points: 3
#     Node 2, Type 0, BuildingBlock: CUQRIR_clean_linker_1, # of connection points: 3
#     Node 3, Type 0, BuildingBlock: CUQRIR_clean_linker_1, # of connection points: 3
#     Node 4, Type 0, BuildingBlock: CUQRIR_clean_linker_1, # of connection points: 3
#     Node 5, Type 0, BuildingBlock: CUQRIR_clean_linker_1, # of connection points: 3
#     Node 6, Type 0, BuildingBlock: CUQRIR_clean_linker_1, # of connection points: 3
#     Node 7, Type 0, BuildingBlock: CUQRIR_clean_linker_1, # of connection points: 3
#     Node 8, Type 0, BuildingBlock: CUQRIR_clean_linker_1, # of connection points: 3
#     Node 9, Type 0, BuildingBlock: CUQRIR_clean_linker_1, # of connection points: 3
#     Node 10, Type 0, BuildingBlock: CUQRIR_clean_linker_1, # of connection points: 3
#     Node 11, Type 0, BuildingBlock: CUQRIR_clean_linker_1, # of connection points: 3
#     Node 12, Type 0, BuildingBlock: CUQRIR_clean_linker_1, # of connection points: 3
#     Node 13, Type 0, BuildingBlock: CUQRIR_clean_linker_1, # of connection points: 3
#     Node 14, Type 0, BuildingBlock: CUQRIR_clean_linker_1, # of connection points: 3
#     Node 15, Type 0, BuildingBlock: CUQRIR_clean_linker_1, # of connection points: 3
#     Node 16, Type 1, BuildingBlock: KUFVIS_clean_sbu_0, # of connection points: 4
#     Node 17, Type 1, BuildingBlock: KUFVIS_clean_sbu_0, # of connection points: 4
#     Node 18, Type 1, BuildingBlock: KUFVIS_clean_sbu_0, # of connection points: 4
#     Node 19, Type 1, BuildingBlock: KUFVIS_clean_sbu_0, # of connection points: 4
#     Node 20, Type 1, BuildingBlock: KUFVIS_clean_sbu_0, # of connection points: 4
#     Node 21, Type 1, BuildingBlock: KUFVIS_clean_sbu_0, # of connection points: 4
#     Node 22, Type 1, BuildingBlock: KUFVIS_clean_sbu_0, # of connection points: 4
#     Node 23, Type 1, BuildingBlock: KUFVIS_clean_sbu_0, # of connection points: 4
#     Node 24, Type 1, BuildingBlock: KUFVIS_clean_sbu_0, # of connection points: 4
#     Node 25, Type 1, BuildingBlock: KUFVIS_clean_sbu_0, # of connection points: 4
#     Node 26, Type 1, BuildingBlock: KUFVIS_clean_sbu_0, # of connection points: 4
#     Node 27, Type 1, BuildingBlock: KUFVIS_clean_sbu_0, # of connection points: 4
#     Edge 28, Type (0, 1), BuildingBlock: EZIPEK_clean_linker_0, # of connection points: 2
#     Edge 29, Type (0, 1), BuildingBlock: EZIPEK_clean_linker_0, # of connection points: 2
#     Edge 30, Type (0, 1), BuildingBlock: EZIPEK_clean_linker_0, # of connection points: 2
#     Edge 31, Type (0, 1), BuildingBlock: EZIPEK_clean_linker_0, # of connection points: 2
#     Edge 32, Type (0, 1), BuildingBlock: EZIPEK_clean_linker_0, # of connection points: 2
#     Edge 33, Type (0, 1), BuildingBlock: EZIPEK_clean_linker_0, # of connection points: 2
#     Edge 34, Type (0, 1), BuildingBlock: EZIPEK_clean_linker_0, # of connection points: 2
#     Edge 35, Type (0, 1), BuildingBlock: EZIPEK_clean_linker_0, # of connection points: 2
#     Edge 36, Type (0, 1), BuildingBlock: EZIPEK_clean_linker_0, # of connection points: 2
#     Edge 37, Type (0, 1), BuildingBlock: EZIPEK_clean_linker_0, # of connection points: 2
#     Edge 38, Type (0, 1), BuildingBlock: EZIPEK_clean_linker_0, # of connection points: 2
#     Edge 39, Type (0, 1), BuildingBlock: EZIPEK_clean_linker_0, # of connection points: 2
#     Edge 40, Type (0, 1), BuildingBlock: EZIPEK_clean_linker_0, # of connection points: 2
#     Edge 41, Type (0, 1), BuildingBlock: EZIPEK_clean_linker_0, # of connection points: 2
#     Edge 42, Type (0, 1), BuildingBlock: EZIPEK_clean_linker_0, # of connection points: 2
#     Edge 43, Type (0, 1), BuildingBlock: EZIPEK_clean_linker_0, # of connection points: 2
#     Edge 44, Type (0, 1), BuildingBlock: EZIPEK_clean_linker_0, # of connection points: 2
#     Edge 45, Type (0, 1), BuildingBlock: EZIPEK_clean_linker_0, # of connection points: 2
#     Edge 46, Type (0, 1), BuildingBlock: EZIPEK_clean_linker_0, # of connection points: 2
#     Edge 47, Type (0, 1), BuildingBlock: EZIPEK_clean_linker_0, # of connection points: 2
#     Edge 48, Type (0, 1), BuildingBlock: EZIPEK_clean_linker_0, # of connection points: 2
#     Edge 49, Type (0, 1), BuildingBlock: EZIPEK_clean_linker_0, # of connection points: 2
#     Edge 50, Type (0, 1), BuildingBlock: EZIPEK_clean_linker_0, # of connection points: 2
#     Edge 51, Type (0, 1), BuildingBlock: EZIPEK_clean_linker_0, # of connection points: 2
#     Edge 52, Type (0, 1), BuildingBlock: EZIPEK_clean_linker_0, # of connection points: 2
#     Edge 53, Type (0, 1), BuildingBlock: EZIPEK_clean_linker_0, # of connection points: 2
#     Edge 54, Type (0, 1), BuildingBlock: EZIPEK_clean_linker_0, # of connection points: 2
#     Edge 55, Type (0, 1), BuildingBlock: EZIPEK_clean_linker_0, # of connection points: 2
#     Edge 56, Type (0, 1), BuildingBlock: EZIPEK_clean_linker_0, # of connection points: 2
#     Edge 57, Type (0, 1), BuildingBlock: EZIPEK_clean_linker_0, # of connection points: 2
#     Edge 58, Type (0, 1), BuildingBlock: EZIPEK_clean_linker_0, # of connection points: 2
#     Edge 59, Type (0, 1), BuildingBlock: EZIPEK_clean_linker_0, # of connection points: 2
#     Edge 60, Type (0, 1), BuildingBlock: EZIPEK_clean_linker_0, # of connection points: 2
#     Edge 61, Type (0, 1), BuildingBlock: EZIPEK_clean_linker_0, # of connection points: 2
#     Edge 62, Type (0, 1), BuildingBlock: EZIPEK_clean_linker_0, # of connection points: 2
#     Edge 63, Type (0, 1), BuildingBlock: EZIPEK_clean_linker_0, # of connection points: 2
#     Edge 64, Type (0, 1), BuildingBlock: EZIPEK_clean_linker_0, # of connection points: 2
#     Edge 65, Type (0, 1), BuildingBlock: EZIPEK_clean_linker_0, # of connection points: 2
#     Edge 66, Type (0, 1), BuildingBlock: EZIPEK_clean_linker_0, # of connection points: 2
#     Edge 67, Type (0, 1), BuildingBlock: EZIPEK_clean_linker_0, # of connection points: 2
#     Edge 68, Type (0, 1), BuildingBlock: EZIPEK_clean_linker_0, # of connection points: 2
#     Edge 69, Type (0, 1), BuildingBlock: EZIPEK_clean_linker_0, # of connection points: 2
#     Edge 70, Type (0, 1), BuildingBlock: EZIPEK_clean_linker_0, # of connection points: 2
#     Edge 71, Type (0, 1), BuildingBlock: EZIPEK_clean_linker_0, # of connection points: 2
#     Edge 72, Type (0, 1), BuildingBlock: EZIPEK_clean_linker_0, # of connection points: 2
#     Edge 73, Type (0, 1), BuildingBlock: EZIPEK_clean_linker_0, # of connection points: 2
#     Edge 74, Type (0, 1), BuildingBlock: EZIPEK_clean_linker_0, # of connection points: 2
#     Edge 75, Type (0, 1), BuildingBlock: EZIPEK_clean_linker_0, # of connection points: 2
# Relax obj value: 0.097
# Max RMSD: 0.203
# Mean RMSD: 0.135
data_MOF--net-ctn--node1-KUFVIS_clean_sbu_0--node2-CUQRIR_clean_linker_1--edge1-EZIPEK_clean_linker_0
_symmetry_space_group_name_H-M    P1
_symmetry_Int_Tables_number       1
_symmetry_cell_setting            triclinic
loop_
_symmetry_equiv_pos_as_xyz
'x, y, z'
_cell_length_a     35.821039
_cell_length_b     32.741615
_cell_length_c     33.945366
_cell_angle_alpha  97.448699
_cell_angle_beta   89.326962
_cell_angle_gamma 94.251554
loop_
_atom_site_label
_atom_site_type_symbol
_atom_site_fract_x
_atom_site_fract_y
_atom_site_fract_z
_atom_type_partial_charge
C0 C 0.0637 0.02896 0.10932 0.0
N1 N 0.07209 0.04221 0.07374 0.0
N2 N 0.02858 0.03693 0.12072 0.0
C3 C 0.0888 1.00513 0.13168 0.0
C4 C 0.0155 0.05571 0.09106 0.0
N5 N 0.04189 0.05958 0.06237 0.0
C6 C 0.97752 0.07243 0.0913 0.0
H7 H 0.08198 0.9716 0.12289 0.0
H8 H 0.08414 1.01195 0.16416 0.0
H9 H 0.1187 1.01259 0.12482 0.0
H10 H 0.9793 0.10416 0.1076 0.0
H11 H 0.95677 0.0532 0.10673 0.0
H12 H 0.96789 0.0738 0.06057 0.0
C13 C 0.31402 0.73221 0.20723 0.0
N14 N 0.32487 0.70738 0.23358 0.0
N15 N 0.32816 0.77137 0.21665 0.0
C16 C 0.2881 0.71858 0.17249 0.0
C17 C 0.3483 0.77019 0.24978 0.0
N18 N 0.34904 0.73055 0.25902 0.0
C19 C 0.36269 0.80889 0.27589 0.0
H20 H 0.30353 0.70013 0.14881 0.0
H21 H 0.27744 0.74503 0.15986 0.0
H22 H 0.26395 0.69881 0.18129 0.0
H23 H 0.3422 0.83276 0.27698 0.0
H24 H 0.38866 0.82227 0.26299 0.0
H25 H 0.36778 0.80279 0.3067 0.0
C26 C 0.98055 0.52223 0.09036 0.0
N27 N 1.00342 0.49128 0.09301 0.0
N28 N 0.95174 0.50944 0.06527 0.0
C29 C 0.9852 0.56451 0.11376 0.0
C30 C 0.9577 0.46972 0.0523 0.0
N31 N 0.98928 0.45846 0.0685 0.0
C32 C 0.93324 0.44227 0.02251 0.0
H33 H 0.96742 0.56504 0.14078 0.0
H34 H 0.97584 0.58804 0.09604 0.0
H35 H 0.01475 0.57255 0.1229 0.0
H36 H 0.94324 0.44646 0.99214 0.0
H37 H 0.90376 0.45055 0.02508 0.0
H38 H 0.93451 0.4093 0.02652 0.0
C39 C 0.67417 0.81544 0.21717 0.0
N40 N 0.70552 0.83263 0.20111 0.0
N41 N 0.66969 0.83172 0.25582 0.0
C42 C 0.65394 0.7756 0.19797 0.0
C43 C 0.7032 0.85347 0.26379 0.0
N44 N 0.72326 0.85789 0.23016 0.0
C45 C 0.72261 0.85842 0.30361 0.0
H46 H 0.63426 0.78247 0.17512 0.0
H47 H 0.63896 0.75818 0.21995 0.0
H48 H 0.67382 0.7546 0.18241 0.0
H49 H 0.71173 0.83457 0.32206 0.0
H50 H 0.72025 0.88963 0.31999 0.0
H51 H 0.75292 0.85564 0.29883 0.0
C52 C 0.03325 0.99308 0.5263 0.0
N53 N 0.06521 0.99379 0.54797 0.0
N54 N 0.03938 1.01195 0.49337 0.0
C55 C 0.99715 0.96899 0.53441 0.0
C56 C 0.07603 0.02477 0.49562 0.0
N57 N 0.09196 1.01441 0.52859 0.0
C58 C 0.09733 0.04463 0.46389 0.0
H59 H 0.99769 0.93714 0.51869 0.0
H60 H 0.97281 0.9831 0.52331 0.0
H61 H 0.9936 0.96724 0.56667 0.0
H62 H 0.07831 0.05378 0.44168 0.0
H63 H 0.11625 0.02235 0.44849 0.0
H64 H 0.11515 0.07174 0.47749 0.0
C65 C 0.16937 0.72889 0.86284 0.0
N66 N 0.20025 0.71896 0.88143 0.0
N67 N 0.16079 0.70151 0.83066 0.0
C68 C 0.14589 0.76428 0.87662 0.0
C69 C 0.18669 0.67365 0.83016 0.0
N70 N 0.21135 0.68416 0.86069 0.0
C71 C 0.18779 0.63636 0.79933 0.0
H72 H 0.12176 0.75283 0.89393 0.0
H73 H 0.13426 0.77667 0.85087 0.0
H74 H 0.162 0.78919 0.89569 0.0
H75 H 0.20333 0.64517 0.77287 0.0
H76 H 0.15897 0.6249 0.78971 0.0
H77 H 0.20183 0.61129 0.81093 0.0
C78 C 0.96942 0.55259 0.46229 0.0
N79 N 0.99919 0.58109 0.46455 0.0
N80 N 0.94198 0.56552 0.48729 0.0
C81 C 0.96535 0.51368 0.43314 0.0
C82 C 0.95493 0.60336 0.50393 0.0
N83 N 0.98998 0.6131 0.49093 0.0
C84 C 0.93184 0.6325 0.53002 0.0
H85 H 0.93546 0.50276 0.42854 0.0
H86 H 0.97977 0.48907 0.44501 0.0
H87 H 0.97807 0.51864 0.40404 0.0
H88 H 0.90484 0.61746 0.53822 0.0
H89 H 0.92546 0.65836 0.51372 0.0
H90 H 0.94776 0.64569 0.5569 0.0
C91 C 0.80483 0.84982 0.88135 0.0
N92 N 0.83371 0.82571 0.87145 0.0
N93 N 0.80688 0.88306 0.8614 0.0
C94 C 0.77422 0.8405 0.91045 0.0
C95 C 0.83863 0.87921 0.83969 0.0
N96 N 0.85484 0.84386 0.8447 0.0
C97 C 0.85216 0.90869 0.81101 0.0
H98 H 0.76507 0.80709 0.90588 0.0
H99 H 0.7498 0.85886 0.90795 0.0
H100 H 0.78522 0.84812 0.94113 0.0
H101 H 0.84988 0.9411 0.82435 0.0
H102 H 0.83424 0.90324 0.78414 0.0
H103 H 0.88174 0.90485 0.80222 0.0
C104 C 0.30668 0.35126 0.37843 0.0
N105 N 0.33528 0.32633 0.3711 0.0
N106 N 0.30995 0.38274 0.3562 0.0
C107 C 0.27366 0.34276 0.40477 0.0
C108 C 0.34195 0.37662 0.33528 0.0
N109 N 0.35779 0.34257 0.34427 0.0
C110 C 0.35553 0.40129 0.30274 0.0
H111 H 0.25413 0.31864 0.38856 0.0
H112 H 0.2584 0.37084 0.41323 0.0
H113 H 0.28283 0.33102 0.43204 0.0
H114 H 0.38546 0.41182 0.30725 0.0
H115 H 0.33936 0.42872 0.30169 0.0
H116 H 0.35308 0.38127 0.27375 0.0
C117 C 0.48915 0.02354 0.58605 0.0
N118 N 0.51233 0.99285 0.58863 0.0
N119 N 0.46089 1.01083 0.56026 0.0
C120 C 0.49273 0.06537 0.61047 0.0
C121 C 0.46751 0.97145 0.54668 0.0
N122 N 0.49892 0.96026 0.5633 0.0
C123 C 0.44377 0.94424 0.51601 0.0
H124 H 0.47426 0.06489 0.6369 0.0
H125 H 0.48354 0.08927 0.59311 0.0
H126 H 0.52197 0.07371 0.62059 0.0
H127 H 0.45437 0.94901 0.48599 0.0
H128 H 0.41419 0.95219 0.51797 0.0
H129 H 0.4451 0.91116 0.51958 0.0
C130 C 0.16864 0.30348 0.72221 0.0
N131 N 0.20166 0.32122 0.71062 0.0
N132 N 0.15536 0.3258 0.75501 0.0
C133 C 0.15117 0.26249 0.70354 0.0
C134 C 0.18125 0.35795 0.76277 0.0
N135 N 0.21002 0.35501 0.73642 0.0
C136 C 0.17884 0.39141 0.79737 0.0
H137 H 0.1519 0.26078 0.67068 0.0
H138 H 0.12185 0.25721 0.71361 0.0
H139 H 0.16771 0.23759 0.71187 0.0
H140 H 0.1903 0.38093 0.82427 0.0
H141 H 0.14918 0.39776 0.80352 0.0
H142 H 0.19502 0.42023 0.79147 0.0
C143 C 0.80524 0.24761 0.71421 0.0
N144 N 0.81291 0.22498 0.74352 0.0
N145 N 0.83316 0.27656 0.70974 0.0
C146 C 0.77102 0.24068 0.68835 0.0
C147 C 0.85871 0.27083 0.73722 0.0
N148 N 0.8463 0.23996 0.75868 0.0
C149 C 0.89621 0.29467 0.7422 0.0
H150 H 0.77862 0.22556 0.65849 0.0
H151 H 0.75985 0.27066 0.6846 0.0
H152 H 0.7493 0.2206 0.70094 0.0
H153 H 0.8936 0.32292 0.76362 0.0
H154 H 0.90609 0.30436 0.71348 0.0
H155 H 0.91714 0.27591 0.75379 0.0
C156 C 0.55889 0.53287 0.614 0.0
N157 N 0.57082 0.54536 0.57903 0.0
N158 N 0.52453 0.54532 0.6236 0.0
C159 C 0.57965 0.50591 0.63754 0.0
C160 C 0.51559 0.56603 0.59358 0.0
N161 N 0.54365 0.56662 0.5664 0.0
C162 C 0.4801 0.5877 0.59187 0.0
H163 H 0.57003 0.47313 0.62817 0.0
H164 H 0.57376 0.51304 0.66974 0.0
H165 H 0.61028 0.50991 0.63238 0.0
H166 H 0.48504 0.61996 0.60643 0.0
H167 H 0.45688 0.57253 0.6078 0.0
H168 H 0.47173 0.58848 0.56063 0.0
C169 C 0.5366 0.47131 1.01491 0.0
N170 N 0.56551 0.48098 0.04104 0.0
N171 N 0.53119 0.50292 0.99434 0.0
C172 C 0.51239 0.43147 1.01062 0.0
C173 C 0.55778 0.53214 1.00827 0.0
N174 N 0.57945 0.51928 0.03607 0.0
C175 C 0.56445 0.57241 0.99239 0.0
H176 H 0.52787 0.40594 0.01936 0.0
H177 H 0.50239 0.42339 0.97957 0.0
H178 H 0.48754 0.43535 0.03019 0.0
H179 H 0.53818 0.58229 0.98083 0.0
H180 H 0.58515 0.56864 0.96788 0.0
H181 H 0.57595 0.59608 0.01624 0.0
C182 C 0.6809 0.23114 0.34668 0.0
N183 N 0.71249 0.22493 0.36612 0.0
N184 N 0.67437 0.20198 0.31545 0.0
C185 C 0.65502 0.2648 0.35829 0.0
C186 C 0.70248 0.17703 0.31612 0.0
N187 N 0.72633 0.191 0.34663 0.0
C188 C 0.70655 0.13928 0.28648 0.0
H189 H 0.62933 0.25139 0.37175 0.0
H190 H 0.64632 0.27775 0.33152 0.0
H191 H 0.66803 0.28972 0.37984 0.0
H192 H 0.72169 0.14846 0.25994 0.0
H193 H 0.67859 0.12496 0.27666 0.0
H194 H 0.72242 0.11631 0.29928 0.0
C195 C 0.4756 0.04216 0.96976 0.0
N196 N 0.5036 0.07255 0.97008 0.0
N197 N 0.44679 0.05501 0.993 0.0
C198 C 0.47416 1.00201 0.94241 0.0
C199 C 0.45755 0.09449 1.00704 0.0
N200 N 0.4923 0.10526 0.99401 0.0
C201 C 0.43223 0.12453 0.02882 0.0
H202 H 0.46463 1.00751 0.91269 0.0
H203 H 0.45432 0.97837 0.95334 0.0
H204 H 0.50236 0.99011 0.93898 0.0
H205 H 0.40582 0.10916 0.03826 0.0
H206 H 0.42497 0.14685 1.0087 0.0
H207 H 0.44677 0.14246 0.05469 0.0
Mn208 Mn 0.2563 0.90221 0.0527 0.0
Mn209 Mn 0.25129 0.91982 0.95651 0.0
C210 C 0.22974 0.85047 1.00495 0.0
C211 C 0.2855 0.87773 0.10624 0.0
C212 C 0.20113 0.95842 0.02166 0.0
O213 O 0.29607 0.94998 0.04956 0.0
O214 O 0.29263 0.95462 0.98398 0.0
C215 C 0.32377 0.89016 0.92678 0.0
N216 N 0.28575 0.88856 0.9241 0.0
C217 C 0.28662 0.84716 0.86026 0.0
C218 C 0.32578 0.84827 0.86233 0.0
C219 C 0.34438 0.86942 0.89599 0.0
C220 C 0.26748 0.86701 0.89259 0.0
H221 H 0.33828 0.90747 0.95201 0.0
C222 C 0.30779 0.96448 0.01804 0.0
O223 O 0.26185 0.90604 0.11175 0.0
O224 O 0.29431 0.86588 0.06954 0.0
N225 N 0.213 0.88793 0.92485 0.0
C226 C 0.17559 0.89314 0.92569 0.0
C227 C 0.15334 0.87696 0.89279 0.0
C228 C 0.16983 0.85616 0.85902 0.0
C229 C 0.20815 0.85014 0.8591 0.0
C230 C 0.229 0.86723 0.89266 0.0
H231 H 0.16305 0.91131 0.95039 0.0
O232 O 0.22116 0.85141 0.04233 0.0
O233 O 0.25225 0.88107 0.99642 0.0
O234 O 0.21352 0.94051 0.04955 0.0
O235 O 0.21397 0.95372 0.98629 0.0
C236 C 0.22673 0.82959 0.82639 0.0
C237 C 0.2659 0.82763 0.82717 0.0
H238 H 0.34183 0.83303 0.83824 0.0
H239 H 0.37459 0.87046 0.89781 0.0
H240 H 0.12373 0.88158 0.89299 0.0
H241 H 0.15276 0.84472 0.83324 0.0
H242 H 0.21124 0.81588 0.80019 0.0
H243 H 0.2799 0.8119 0.80176 0.0
Mn244 Mn 0.16751 0.53529 0.2835 0.0
Mn245 Mn 0.13321 0.62316 0.264 0.0
C246 C 0.20483 0.58238 0.2512 0.0
C247 C 0.2019 0.49321 0.31763 0.0
C248 C 0.1084 0.54029 0.21907 0.0
O249 O 0.12693 0.54463 0.32641 0.0
O250 O 0.10425 0.60101 0.30801 0.0
C251 C 0.15557 0.67533 0.33934 0.0
N252 N 0.15559 0.66865 0.29889 0.0
C253 C 0.1869 0.7355 0.29493 0.0
C254 C 0.18586 0.74381 0.3365 0.0
C255 C 0.17072 0.71328 0.35883 0.0
C256 C 0.17185 0.69694 0.27725 0.0
H257 H 0.14415 0.65184 0.35657 0.0
C258 C 0.10399 0.57316 0.33116 0.0
O259 O 0.17424 0.47841 0.29466 0.0
O260 O 0.20732 0.5332 0.32422 0.0
N261 N 0.1587 0.64786 0.22237 0.0
C262 C 0.15912 0.63412 0.18274 0.0
C263 C 0.17492 0.66012 0.15625 0.0
C264 C 0.18952 0.70015 0.17075 0.0
C265 C 0.18921 0.71333 0.21174 0.0
C266 C 0.17342 0.68595 0.23671 0.0
H267 H 0.14696 0.60381 0.17137 0.0
O268 O 0.2096 0.54309 0.24459 0.0
O269 O 0.1761 0.59179 0.27321 0.0
O270 O 0.12842 0.51968 0.23879 0.0
O271 O 0.10832 0.57941 0.22558 0.0
C272 C 0.20357 0.75274 0.22875 0.0
C273 C 0.20254 0.7638 0.27035 0.0
H274 H 0.19738 0.77313 0.3516 0.0
H275 H 0.1706 0.71906 0.39094 0.0
H276 H 0.17529 0.64959 0.12469 0.0
H277 H 0.20126 0.72036 0.15019 0.0
H278 H 0.21536 0.77461 0.20993 0.0
H279 H 0.21377 0.7941 0.28325 0.0
Mn280 Mn 0.78124 0.6485 0.03108 0.0
Mn281 Mn 0.71231 0.68828 0.98465 0.0
C282 C 0.71943 0.61921 0.0353 0.0
C283 C 0.8306 0.60585 0.03284 0.0
C284 C 0.7475 0.7301 0.06189 0.0
O285 O 0.81016 0.68391 0.99302 0.0
O286 O 0.76156 0.70346 0.96047 0.0
C287 C 0.71748 0.63804 0.90603 0.0
N288 N 0.69678 0.65247 0.938 0.0
C289 C 0.63929 0.62758 0.90442 0.0
C290 C 0.65992 0.61221 0.87108 0.0
C291 C 0.69925 0.61699 0.8721 0.0
C292 C 0.65913 0.6463 0.93805 0.0
H293 H 0.74756 0.64297 0.90642 0.0
C294 C 0.79672 0.70267 0.9662 0.0
O295 O 0.82867 0.63934 0.05734 0.0
O296 O 0.80428 0.59711 1.00638 0.0
N297 N 0.66252 0.67797 1.00346 0.0
C298 C 0.64695 0.69448 0.03819 0.0
C299 C 0.60783 0.69358 0.04182 0.0
C300 C 0.58518 0.67728 1.0092 0.0
C301 C 0.60183 0.66047 0.97373 0.0
C302 C 0.6409 0.66086 0.97239 0.0
H303 H 0.66427 0.70928 0.06254 0.0
O304 O 0.74489 0.61393 0.06064 0.0
O305 O 0.73115 0.641 1.00723 0.0
O306 O 0.76791 0.70084 0.06624 0.0
O307 O 0.72534 0.72806 0.03244 0.0
C308 C 0.58123 0.64377 0.93948 0.0
C309 C 0.59989 0.62632 0.90521 0.0
H310 H 0.64588 0.59709 0.84444 0.0
H311 H 0.7154 0.60539 0.84647 0.0
H312 H 0.5952 0.70661 0.06928 0.0
H313 H 0.55502 0.6775 1.0118 0.0
H314 H 0.55096 0.6433 0.93951 0.0
H315 H 0.5837 0.61267 0.87944 0.0
Mn316 Mn 0.88017 0.03203 0.30898 0.0
Mn317 Mn 0.90264 0.93332 0.30634 0.0
C318 C 0.84285 0.97873 0.27296 0.0
C319 C 0.84901 0.0894 0.33564 0.0
C320 C 0.93977 0.99254 0.25323 0.0
O321 O 0.91775 0.03703 0.3545 0.0
O322 O 0.93125 0.97079 0.34742 0.0
C323 C 0.86979 0.92445 0.38554 0.0
N324 N 0.87158 0.9111 0.34586 0.0
C325 C 0.82572 0.85489 0.35225 0.0
C326 C 0.82349 0.86797 0.39313 0.0
C327 C 0.8454 0.90314 0.40978 0.0
C328 C 0.84931 0.87849 0.32924 0.0
H329 H 0.88685 0.95114 0.39874 0.0
C330 C 0.93571 1.00785 0.36454 0.0
O331 O 0.87901 0.09318 0.31424 0.0
O332 O 0.83938 0.05287 0.3449 0.0
N333 N 0.87793 0.89092 0.26951 0.0
C334 C 0.89115 0.87552 0.23324 0.0
C335 C 0.87397 0.83927 0.21263 0.0
C336 C 0.84554 0.81688 0.23108 0.0
C337 C 0.83559 0.83018 0.27038 0.0
C338 C 0.85292 0.86748 0.28887 0.0
H339 H 0.91652 0.88885 0.22151 0.0
O340 O 0.8423 1.01659 0.26587 0.0
O341 O 0.86464 0.97297 0.30196 0.0
O342 O 0.92248 0.02344 0.26859 0.0
O343 O 0.93437 0.9562 0.26391 0.0
C344 C 0.81179 0.80592 0.29291 0.0
C345 C 0.80654 0.81851 0.33375 0.0
H346 H 0.80539 0.85096 0.41208 0.0
H347 H 0.84388 0.91345 0.44133 0.0
H348 H 0.88399 0.82743 0.18348 0.0
H349 H 0.83375 0.78786 0.21593 0.0
H350 H 0.79819 0.77693 0.27941 0.0
H351 H 0.7884 0.79945 0.35084 0.0
Mn352 Mn 0.28889 0.14979 0.53571 0.0
Mn353 Mn 0.21669 0.19121 0.49639 0.0
C354 C 0.22769 0.11991 0.54347 0.0
C355 C 0.3387 0.10723 0.53244 0.0
C356 C 0.25716 0.23019 0.572 0.0
O357 O 0.31483 0.18677 0.49683 0.0
O358 O 0.26386 0.20507 0.46727 0.0
C359 C 0.21306 0.14262 0.41654 0.0
N360 N 0.19602 0.15649 0.45118 0.0
C361 C 0.13523 0.13355 0.42407 0.0
C362 C 0.15211 0.11924 0.38792 0.0
C363 C 0.19129 0.12319 0.38436 0.0
C364 C 0.15858 0.15066 0.45568 0.0
H365 H 0.24292 0.14675 0.41355 0.0
C366 C 0.29946 0.205 0.47075 0.0
O367 O 0.33801 0.14009 0.55797 0.0
O368 O 0.31094 0.09925 0.50762 0.0
N369 N 0.16872 0.18214 0.52051 0.0
C370 C 0.15647 0.20034 0.55628 0.0
C371 C 0.11804 0.19825 0.56502 0.0
C372 C 0.09231 0.17931 0.53621 0.0
C373 C 0.1053 0.16269 0.49889 0.0
C374 C 0.14407 0.16435 0.49238 0.0
H375 H 0.17581 0.21662 0.57803 0.0
O376 O 0.25486 0.11389 0.56644 0.0
O377 O 0.23728 0.14257 0.51537 0.0
O378 O 0.27742 0.2004 0.57413 0.0
O379 O 0.23451 0.23006 0.54324 0.0
C380 C 0.0812 0.1465 0.46725 0.0
C381 C 0.09616 0.13229 0.42975 0.0
H382 H 0.13529 0.10529 0.36273 0.0
H383 H 0.2046 0.11217 0.35662 0.0
H384 H 0.10822 0.21202 0.59362 0.0
H385 H 0.06262 0.17861 0.54274 0.0
H386 H 0.05111 0.14513 0.47132 0.0
H387 H 0.07736 0.11989 0.40566 0.0
Mn388 Mn 0.36987 0.5278 0.81448 0.0
Mn389 Mn 0.40395 0.4333 0.79824 0.0
C390 C 0.33563 0.47255 0.77747 0.0
C391 C 0.33379 0.57915 0.84617 0.0
C392 C 0.43067 0.50362 0.75299 0.0
O393 O 0.40894 0.5316 0.85847 0.0
O394 O 0.43116 0.46889 0.84203 0.0
C395 C 0.38156 0.40531 0.87532 0.0
N396 N 0.3807 0.39944 0.83483 0.0
C397 C 0.34781 0.33262 0.83441 0.0
C398 C 0.34843 0.33791 0.87605 0.0
C399 C 0.36511 0.37458 0.89658 0.0
C400 C 0.36387 0.36474 0.81484 0.0
H401 H 0.39485 0.43307 0.89135 0.0
C402 C 0.43096 0.50381 0.86386 0.0
O403 O 0.36294 0.58774 0.82503 0.0
O404 O 0.32786 0.54096 0.8528 0.0
N405 N 0.37985 0.39448 0.7577 0.0
C406 C 0.38254 0.39335 0.71756 0.0
C407 C 0.36564 0.35966 0.69272 0.0
C408 C 0.3478 0.32638 0.70942 0.0
C409 C 0.34707 0.32706 0.75076 0.0
C410 C 0.36331 0.36217 0.77402 0.0
H411 H 0.39844 0.41725 0.70461 0.0
O412 O 0.33082 0.51047 0.77259 0.0
O413 O 0.36122 0.46798 0.8031 0.0
O414 O 0.41113 0.53023 0.77248 0.0
O415 O 0.42922 0.4657 0.75867 0.0
C416 C 0.33168 0.2939 0.76976 0.0
C417 C 0.33193 0.29669 0.81155 0.0
H418 H 0.33613 0.31406 0.89253 0.0
H419 H 0.36567 0.37896 0.92873 0.0
H420 H 0.36728 0.35882 0.66077 0.0
H421 H 0.33559 0.30013 0.69014 0.0
H422 H 0.32 0.26589 0.75255 0.0
H423 H 0.3197 0.27111 0.82581 0.0
Mn424 Mn 0.75911 0.4034 0.54523 0.0
Mn425 Mn 0.74818 0.42978 0.45311 0.0
C426 C 0.73447 0.35402 0.49464 0.0
C427 C 0.79436 0.37575 0.59227 0.0
C428 C 0.69922 0.45878 0.52371 0.0
O429 O 0.79436 0.45571 0.54518 0.0
O430 O 0.79037 0.46356 0.48023 0.0
C431 C 0.81932 0.4061 0.4145 0.0
N432 N 0.78119 0.40254 0.41549 0.0
C433 C 0.77833 0.36369 0.35028 0.0
C434 C 0.81756 0.36692 0.34855 0.0
C435 C 0.83814 0.38783 0.381 0.0
C436 C 0.76115 0.38156 0.3849 0.0
H437 H 0.83525 0.42307 0.43893 0.0
C438 C 0.80557 0.47215 0.51445 0.0
O439 O 0.76758 0.39955 0.60285 0.0
O440 O 0.80239 0.37064 0.55474 0.0
N441 N 0.70862 0.39853 0.42286 0.0
C442 C 0.67101 0.40079 0.428 0.0
C443 C 0.6465 0.38361 0.39734 0.0
C444 C 0.6609 0.365 0.36136 0.0
C445 C 0.69965 0.36224 0.35693 0.0
C446 C 0.72272 0.37991 0.38858 0.0
H447 H 0.6598 0.41702 0.45462 0.0
O448 O 0.72792 0.35014 0.53169 0.0
O449 O 0.75382 0.38768 0.4884 0.0
O450 O 0.71259 0.43729 0.54828 0.0
O451 O 0.71199 0.45986 0.48858 0.0
C452 C 0.71629 0.34354 0.32199 0.0
C453 C 0.7556 0.34392 0.31881 0.0
H454 H 0.83217 0.3534 0.3225 0.0
H455 H 0.86842 0.39044 0.37991 0.0
H456 H 0.61662 0.38572 0.40102 0.0
H457 H 0.64192 0.35268 0.33742 0.0
H458 H 0.69911 0.32911 0.29725 0.0
H459 H 0.76808 0.32957 0.29176 0.0
Mn460 Mn 0.66797 0.03649 0.78557 0.0
Mn461 Mn 0.62855 0.12444 0.77377 0.0
C462 C 0.70379 0.08998 0.76077 0.0
C463 C 0.70172 0.99565 0.82242 0.0
C464 C 0.61084 0.04257 0.7209 0.0
O465 O 0.6218 0.03569 0.82229 0.0
O466 O 0.60351 0.09957 0.81799 0.0
C467 C 0.64843 0.17598 0.84994 0.0
N468 N 0.64942 0.17011 0.80947 0.0
C469 C 0.67798 0.23861 0.80741 0.0
C470 C 0.6774 0.24537 0.84905 0.0
C471 C 0.66283 0.21378 0.87041 0.0
C472 C 0.66409 0.19995 0.78868 0.0
H473 H 0.63673 0.15201 0.86648 0.0
C474 C 0.60197 0.06613 0.83387 0.0
O475 O 0.68019 0.97988 0.79305 0.0
O476 O 0.70163 0.03529 0.8321 0.0
N477 N 0.65113 0.1524 0.73248 0.0
C478 C 0.64991 0.1408 0.69248 0.0
C479 C 0.66279 0.16912 0.66679 0.0
C480 C 0.67602 0.2093 0.68247 0.0
C481 C 0.67725 0.22048 0.72379 0.0
C482 C 0.66452 0.19077 0.74789 0.0
H483 H 0.63853 0.11048 0.6802 0.0
O484 O 0.713 0.05214 0.75348 0.0
O485 O 0.67304 0.09487 0.78087 0.0
O486 O 0.63533 0.02264 0.73552 0.0
O487 O 0.60462 0.0797 0.73455 0.0
C488 C 0.69062 0.25995 0.74197 0.0
C489 C 0.69149 0.26881 0.78374 0.0
H490 H 0.68811 0.27466 0.86493 0.0
H491 H 0.66234 0.21872 0.90255 0.0
H492 H 0.66189 0.16023 0.63496 0.0
H493 H 0.68552 0.23123 0.66253 0.0
H494 H 0.70057 0.28364 0.72409 0.0
H495 H 0.70227 0.29908 0.79735 0.0
Mn496 Mn 1.00708 0.243 0.9105 0.0
Mn497 Mn 0.93305 0.24045 0.97113 0.0
C498 C 0.94822 0.22104 0.88331 0.0
C499 C 0.04757 0.27587 0.86867 0.0
C500 C 0.99642 0.18269 0.9708 0.0
O501 O 0.02382 0.28317 0.96033 0.0
O502 O 0.9686 0.28744 0.99286 0.0
C503 C 0.89958 0.31936 0.96472 0.0
N504 N 0.89704 0.27726 0.95906 0.0
C505 C 0.83457 0.2751 0.93331 0.0
C506 C 0.83664 0.3184 0.93851 0.0
C507 C 0.8693 0.34062 0.9543 0.0
C508 C 0.86567 0.25559 0.94414 0.0
H509 H 0.9246 0.33664 0.97684 0.0
C510 C 1.00264 0.3007 0.98721 0.0
O511 O 0.05731 0.24549 0.88629 0.0
O512 O 0.01457 0.28869 0.87681 0.0
N513 N 0.8969 0.197 0.95096 0.0
C514 C 0.89915 0.15537 0.94819 0.0
C515 C 0.8688 0.12874 0.93273 0.0
C516 C 0.83627 0.14518 0.92081 0.0
C517 C 0.83441 0.18813 0.92453 0.0
C518 C 0.86562 0.21313 0.9398 0.0
H519 H 0.92382 0.14255 0.95781 0.0
O520 O 0.97854 0.20901 0.8655 0.0
O521 O 0.95384 0.2429 0.91785 0.0
O522 O 1.01202 0.19266 0.93934 0.0
O523 O 0.96829 0.20048 0.9867 0.0
C524 C 0.80267 0.20712 0.91397 0.0
C525 C 0.80278 0.25053 0.91805 0.0
H526 H 0.81332 0.33489 0.9305 0.0
H527 H 0.87112 0.37404 0.95846 0.0
H528 H 0.87042 0.09562 0.93017 0.0
H529 H 0.81286 0.12455 0.909 0.0
H530 H 0.77786 0.18856 0.90324 0.0
H531 H 0.77817 0.26469 0.90967 0.0
Mn532 Mn 0.52042 0.7426 0.40459 0.0
Mn533 Mn 0.44293 0.7421 0.46069 0.0
C534 C 0.46293 0.71525 0.37529 0.0
C535 C 0.56168 0.77517 0.36354 0.0
C536 C 0.50667 0.68617 0.46797 0.0
O537 O 0.53413 0.78614 0.453 0.0
O538 O 0.47734 0.79023 0.48195 0.0
C539 C 0.41298 0.81886 0.44101 0.0
N540 N 0.40867 0.77729 0.44196 0.0
C541 C 0.34889 0.77274 0.4095 0.0
C542 C 0.35259 0.81551 0.40837 0.0
C543 C 0.38482 0.83864 0.42413 0.0
C544 C 0.37804 0.75467 0.42634 0.0
H545 H 0.43786 0.83678 0.45271 0.0
C546 C 0.51152 0.80374 0.47822 0.0
O547 O 0.57247 0.74678 0.38324 0.0
O548 O 0.52767 0.78552 0.36861 0.0
N549 N 0.40688 0.69771 0.4427 0.0
C550 C 0.40671 0.65717 0.44812 0.0
C551 C 0.37575 0.62999 0.43538 0.0
C552 C 0.34508 0.64488 0.41774 0.0
C553 C 0.34536 0.68699 0.41374 0.0
C554 C 0.37679 0.71265 0.42741 0.0
H555 H 0.42988 0.64567 0.46226 0.0
O556 O 0.49465 0.70447 0.35994 0.0
O557 O 0.46649 0.7402 0.4083 0.0
O558 O 0.52458 0.69535 0.43746 0.0
O559 O 0.47721 0.70362 0.48099 0.0
C560 C 0.31553 0.70457 0.3971 0.0
C561 C 0.31742 0.74735 0.39462 0.0
H562 H 0.3309 0.83087 0.39541 0.0
H563 H 0.38799 0.87164 0.4232 0.0
H564 H 0.37554 0.59765 0.43914 0.0
H565 H 0.32136 0.62379 0.40771 0.0
H566 H 0.29095 0.68547 0.38637 0.0
H567 H 0.29433 0.7605 0.38168 0.0
Mn568 Mn 0.02617 0.7946 0.66541 0.0
Mn569 Mn 0.97622 0.70569 0.68168 0.0
C570 C 0.02784 0.73466 0.61897 0.0
C571 C 0.0377 0.85835 0.63925 0.0
C572 C 0.04952 0.73429 0.72139 0.0
O573 O 0.98812 0.81599 0.70808 0.0
O574 O 0.95963 0.75413 0.71721 0.0
C575 C 0.90195 0.72485 0.65494 0.0
N576 N 0.93005 0.69896 0.65337 0.0
C577 C 0.88983 0.64214 0.62236 0.0
C578 C 0.86041 0.66824 0.62347 0.0
C579 C 0.86669 0.71 0.63925 0.0
C580 C 0.92489 0.6594 0.63631 0.0
H581 H 0.90633 0.75621 0.66876 0.0
C582 C 0.96436 0.79333 0.72584 0.0
O583 O 0.05619 0.84957 0.6692 0.0
O584 O 1.01075 0.83151 0.62606 0.0
N585 N 0.9876 0.6549 0.65109 0.0
C586 C 0.01836 0.63331 0.65379 0.0
C587 C 0.01739 0.59156 0.63758 0.0
C588 C 0.98403 0.57162 0.62115 0.0
C589 C 0.9521 0.59383 0.62067 0.0
C590 C 0.95541 0.63598 0.63513 0.0
H591 H 0.04332 0.64768 0.66879 0.0
O592 O 0.0548 0.76351 0.6219 0.0
O593 O 0.99988 0.74104 0.64353 0.0
O594 O 0.05361 0.76873 0.70761 0.0
O595 O 0.02244 0.70765 0.71223 0.0
C596 C 0.91666 0.57537 0.60827 0.0
C597 C 0.88555 0.59948 0.60901 0.0
H598 H 0.83286 0.65648 0.6126 0.0
H599 H 0.84412 0.73035 0.64047 0.0
H600 H 0.04191 0.5744 0.63903 0.0
H601 H 0.98299 0.53904 0.60998 0.0
H602 H 0.91282 0.54254 0.59883 0.0
H603 H 0.85857 0.58496 0.59897 0.0
Mn604 Mn 0.52581 0.29239 0.16589 0.0
Mn605 Mn 0.48093 0.20016 0.17898 0.0
C606 C 0.52788 0.23474 0.11594 0.0
C607 C 0.53533 0.35826 0.14357 0.0
C608 C 0.556 0.22756 0.213 0.0
O609 O 0.48958 0.31033 0.21274 0.0
O610 O 0.46955 0.24599 0.2192 0.0
C611 C 0.40595 0.22632 0.16271 0.0
N612 N 0.43213 0.19803 0.15671 0.0
C613 C 0.38693 0.14597 0.12648 0.0
C614 C 0.35936 0.17445 0.13224 0.0
C615 C 0.36907 0.21503 0.14987 0.0
C616 C 0.4237 0.15983 0.13756 0.0
H617 H 0.41303 0.25695 0.17783 0.0
C618 C 0.47113 0.28409 0.232 0.0
O619 O 0.55506 0.34769 0.17174 0.0
O620 O 0.50779 0.33211 0.13043 0.0
N621 N 0.48696 0.14991 0.14484 0.0
C622 C 0.51537 0.12466 0.14653 0.0
C623 C 0.50983 0.08252 0.13221 0.0
C624 C 0.47464 0.06608 0.11793 0.0
C625 C 0.44512 0.09185 0.11843 0.0
C626 C 0.45252 0.13394 0.13213 0.0
H627 H 0.54177 0.13618 0.1602 0.0
O628 O 0.55339 0.26506 0.11896 0.0
O629 O 0.50057 0.23851 0.14164 0.0
O630 O 0.5561 0.26418 0.20407 0.0
O631 O 0.5305 0.19932 0.20237 0.0
C632 C 0.40806 0.07683 0.10852 0.0
C633 C 0.37909 0.104 0.1119 0.0
H634 H 0.33058 0.16534 0.12377 0.0
H635 H 0.34794 0.23714 0.15468 0.0
H636 H 0.53234 0.06245 0.13353 0.0
H637 H 0.4702 0.03326 0.10854 0.0
H638 H 0.40143 0.04437 0.09867 0.0
H639 H 0.3508 0.09211 0.10385 0.0
C640 C 0.18736 0.74806 0.95035 0.0
C641 C 0.21381 0.74105 0.91917 0.0
C642 C 0.25567 0.79519 0.9556 0.0
C643 C 0.22475 0.81068 0.97787 0.0
N644 N 0.15979 0.79991 0.99664 0.0
N645 N 0.27461 0.75976 0.89287 0.0
C646 C 0.19036 0.78604 0.97613 0.0
C647 C 0.24879 0.76452 0.92238 0.0
N648 N 0.15781 0.71978 0.95303 0.0
N649 N 0.29144 0.80888 0.96656 0.0
H650 H 0.26856 0.74203 0.86607 0.0
H651 H 0.30052 0.77642 0.89356 0.0
H652 H 0.29764 0.82946 0.9921 0.0
H653 H 0.3149 0.79598 0.95314 0.0
H654 H 0.13914 0.72148 0.97687 0.0
H655 H 0.15393 0.69302 0.93275 0.0
H656 H 0.1331 0.78504 0.99288 0.0
H657 H 0.16025 0.82811 1.0148 0.0
C658 C 0.02454 0.6067 0.40378 0.0
C659 C 0.0277 0.58134 0.43381 0.0
C660 C 0.07145 0.54252 0.38981 0.0
C661 C 0.0764 0.57548 0.3658 0.0
N662 N 0.05896 0.64638 0.36008 0.0
N663 N 0.05478 0.52215 0.45418 0.0
C664 C 0.05371 0.60998 0.37577 0.0
C665 C 0.05224 0.54901 0.42697 0.0
N666 N 0.99195 0.62444 0.39901 0.0
N667 N 0.08054 0.50352 0.37555 0.0
H668 H 0.0374 0.52219 0.47901 0.0
H669 H 0.07529 0.50099 0.45259 0.0
H670 H 0.08666 0.49447 0.3458 0.0
H671 H 0.07532 0.47835 0.39123 0.0
H672 H 0.98745 0.64039 0.37498 0.0
H673 H 0.9682 0.61885 0.41615 0.0
H674 H 0.04319 0.67137 0.36974 0.0
H675 H 0.08087 0.65486 0.34209 0.0
C676 C 0.84768 0.79896 0.934 0.0
C677 C 0.84089 0.79082 0.89233 0.0
C678 C 0.82309 0.71818 0.90046 0.0
C679 C 0.82186 0.72875 0.9422 0.0
N680 N 0.83538 0.77859 0.99967 0.0
N681 N 0.8215 0.74213 0.83595 0.0
C682 C 0.83606 0.76864 0.9593 0.0
C683 C 0.82944 0.74991 0.87544 0.0
N684 N 0.8625 0.8372 0.94954 0.0
N685 N 0.81786 0.67761 0.88493 0.0
H686 H 0.826 0.76463 0.81719 0.0
H687 H 0.80864 0.71437 0.82241 0.0
H688 H 0.81427 0.65423 0.90314 0.0
H689 H 0.82104 0.66704 0.85489 0.0
H690 H 0.87182 0.84455 0.97869 0.0
H691 H 0.86728 0.86128 0.93237 0.0
H692 H 0.84062 0.80839 1.01424 0.0
H693 H 0.82809 0.75694 0.01893 0.0
C694 C 0.02086 0.99126 0.42306 0.0
C695 C 0.01406 1.0135 0.46072 0.0
C696 C 0.95592 0.03566 0.43535 0.0
C697 C 0.96424 1.0156 0.39683 0.0
N698 N 1.01087 0.9854 0.35234 0.0
N699 N 0.98042 0.06497 0.50018 0.0
C700 C 0.99873 0.99693 0.3902 0.0
C701 C 0.98325 0.03841 0.466 0.0
N702 N 0.04774 0.9636 0.41884 0.0
N703 N 0.92138 0.04978 0.4436 0.0
H704 H 1.00014 0.06744 0.52291 0.0
H705 H 0.96058 0.08685 0.50431 0.0
H706 H 0.90006 0.04739 0.42267 0.0
H707 H 0.91281 0.06067 0.47224 0.0
H708 H 0.05117 0.94328 0.39299 0.0
H709 H 0.06433 0.95837 0.44233 0.0
H710 H 0.03746 0.97537 0.34588 0.0
H711 H 0.99605 0.99012 0.32729 0.0
C712 C 0.21381 0.31474 0.63827 0.0
C713 C 0.22314 0.30536 0.6764 0.0
C714 C 0.26711 0.25656 0.64544 0.0
C715 C 0.25487 0.26317 0.60722 0.0
N716 N 0.23213 0.3134 0.56936 0.0
N717 N 0.25226 0.26062 0.71546 0.0
C718 C 0.23311 0.29706 0.6043 0.0
C719 C 0.24855 0.27488 0.67985 0.0
N720 N 0.1837 0.33698 0.63394 0.0
N721 N 0.29779 0.23497 0.64915 0.0
H722 H 0.23835 0.27268 0.7409 0.0
H723 H 0.26558 0.23403 0.71862 0.0
H724 H 0.31606 0.22781 0.62557 0.0
H725 H 0.30857 0.23015 0.67639 0.0
H726 H 0.17309 0.34086 0.60632 0.0
H727 H 0.16704 0.3479 0.65786 0.0
H728 H 0.21896 0.34017 0.5664 0.0
H729 H 0.24884 0.30334 0.54513 0.0
C730 C 0.47062 0.50591 0.6494 0.0
C731 C 0.50124 0.53552 0.65644 0.0
C732 C 0.48588 0.54558 0.7275 0.0
C733 C 0.45419 0.5169 0.7199 0.0
N734 N 0.40961 0.48286 0.67177 0.0
N735 N 0.53508 0.58885 0.69987 0.0
C736 C 0.44468 0.50056 0.6803 0.0
C737 C 0.50807 0.55693 0.69494 0.0
N738 N 0.46645 0.4827 0.61311 0.0
N739 N 0.49487 0.5616 0.76565 0.0
H740 H 0.55164 0.59739 0.67636 0.0
H741 H 0.53938 0.60856 0.72629 0.0
H742 H 0.47776 0.55638 0.78977 0.0
H743 H 0.51991 0.57872 0.77362 0.0
H744 H 0.44662 0.45772 0.60752 0.0
H745 H 0.4849 0.48628 0.58964 0.0
H746 H 0.39982 0.47378 0.64295 0.0
H747 H 0.3891 0.48188 0.6936 0.0
C748 C 0.82593 0.34654 0.6912 0.0
C749 C 0.83426 0.305 0.68036 0.0
C750 C 0.81938 0.30999 0.6111 0.0
C751 C 0.81223 0.35242 0.62137 0.0
N752 N 0.82076 0.41354 0.66947 0.0
N753 N 0.85052 0.25179 0.62937 0.0
C754 C 0.81939 0.37154 0.66093 0.0
C755 C 0.83548 0.28872 0.63987 0.0
N756 N 0.82232 0.36148 0.73035 0.0
N757 N 0.80757 0.28847 0.57567 0.0
H758 H 0.86187 0.23571 0.65045 0.0
H759 H 0.85503 0.2396 0.59993 0.0
H760 H 0.79199 0.3006 0.55492 0.0
H761 H 0.80921 0.25669 0.56889 0.0
H762 H 0.81218 0.3901 0.74001 0.0
H763 H 0.82704 0.34389 0.75304 0.0
H764 H 0.82875 0.42916 0.69714 0.0
H765 H 0.81813 0.43287 0.64768 0.0
C766 C 0.57776 1.00459 0.61443 0.0
C767 C 0.53919 0.99379 0.62089 0.0
C768 C 0.55016 1.00687 0.69347 0.0
C769 C 0.58758 0.0215 0.68671 0.0
N770 N 0.63985 0.02559 0.64197 0.0
N771 N 0.4879 0.98787 0.66686 0.0
C772 C 0.60229 1.01743 0.64748 0.0
C773 C 0.52544 0.99504 0.66063 0.0
N774 N 0.59016 1.00566 0.57647 0.0
N775 N 0.5386 1.00313 0.73145 0.0
H776 H 0.46907 0.97808 0.6438 0.0
H777 H 0.47496 0.99385 0.6944 0.0
H778 H 0.55628 1.01085 0.75591 0.0
H779 H 0.51293 0.98882 0.73854 0.0
H780 H 0.6165 1.01777 0.56879 0.0
H781 H 0.57297 0.99578 0.55226 0.0
H782 H 0.65345 0.01979 0.61481 0.0
H783 H 0.65822 0.0357 0.66539 0.0
C784 C 0.87942 0.19322 0.79776 0.0
C785 C 0.86377 0.23136 0.79516 0.0
C786 C 0.90065 0.26261 0.85342 0.0
C787 C 0.91441 0.2237 0.85801 0.0
N788 N 0.90908 0.14999 0.8394 0.0
N789 N 0.85124 0.29851 0.82827 0.0
C790 C 0.90082 0.18829 0.83197 0.0
C791 C 0.87119 0.26436 0.8261 0.0
N792 N 0.87672 0.16287 0.76626 0.0
N793 N 0.91787 0.29869 0.87155 0.0
H794 H 0.83041 0.30153 0.80787 0.0
H795 H 0.85318 0.32192 0.85224 0.0
H796 H 0.94136 0.30044 0.88949 0.0
H797 H 0.91113 0.32761 0.86533 0.0
H798 H 0.89057 0.13584 0.76481 0.0
H799 H 0.86375 0.16684 0.73997 0.0
H800 H 0.89725 0.12284 0.82352 0.0
H801 H 0.92487 0.14553 0.86392 0.0
C802 C 0.5297 0.92003 0.50719 0.0
C803 C 0.51728 0.92336 0.54741 0.0
C804 C 0.51759 0.8478 0.54454 0.0
C805 C 0.52321 0.84409 0.50279 0.0
N806 N 0.53574 0.87705 0.44391 0.0
N807 N 0.4986 0.89027 0.60419 0.0
C808 C 0.53092 0.88035 0.4842 0.0
C809 C 0.5121 0.88722 0.56633 0.0
N810 N 0.53747 0.9553 0.49016 0.0
N811 N 0.51681 0.81322 0.56318 0.0
H812 H 0.49478 0.91861 0.62064 0.0
H813 H 0.48936 0.86505 0.6184 0.0
H814 H 0.51992 0.78404 0.54771 0.0
H815 H 0.5164 0.81381 0.59392 0.0
H816 H 0.55094 0.95616 0.46293 0.0
H817 H 0.53216 0.98444 0.50442 0.0
H818 H 0.53632 0.90181 0.42753 0.0
H819 H 0.53762 0.84904 0.42598 0.0
C820 C 0.08885 0.31663 0.77525 0.0
C821 C 0.12712 0.31272 0.78225 0.0
C822 C 0.1124 0.29677 0.84892 0.0
C823 C 0.07366 0.29393 0.84017 0.0
N824 N 0.0251 0.29438 0.79082 0.0
N825 N 0.17334 0.28614 0.82066 0.0
C826 C 0.06162 0.30238 0.80227 0.0
C827 C 0.13836 0.29906 0.81769 0.0
N828 N 0.07869 0.33377 0.74282 0.0
N829 N 0.12453 0.2981 0.8871 0.0
H830 H 0.19087 0.28235 0.79601 0.0
H831 H 0.18228 0.27351 0.84527 0.0
H832 H 0.10624 0.29939 0.91132 0.0
H833 H 0.15274 0.30308 0.89484 0.0
H834 H 0.05144 0.34118 0.73809 0.0
H835 H 0.09829 0.3433 0.72225 0.0
H836 H 0.01604 0.29637 0.76213 0.0
H837 H 1.00433 0.282 0.80842 0.0
C838 C 0.55112 0.63856 0.55086 0.0
C839 C 0.5459 0.59554 0.5372 0.0
C840 C 0.51684 0.61201 0.47616 0.0
C841 C 0.52213 0.65479 0.49027 0.0
N842 N 0.55568 0.70842 0.53403 0.0
N843 N 0.53092 0.5419 0.48367 0.0
C844 C 0.54298 0.66792 0.52538 0.0
C845 C 0.53135 0.58259 0.49854 0.0
N846 N 0.56106 0.65141 0.58945 0.0
N847 N 0.49685 0.59948 0.44213 0.0
H848 H 0.54163 0.52051 0.49968 0.0
H849 H 0.52345 0.5301 0.45466 0.0
H850 H 0.48688 0.62019 0.42456 0.0
H851 H 0.4883 0.56882 0.43234 0.0
H852 H 0.5607 0.68199 0.6025 0.0
H853 H 0.56688 0.631 0.60935 0.0
H854 H 0.57387 0.71918 0.55743 0.0
H855 H 0.55133 0.73029 0.51511 0.0
C856 C 0.87326 0.82033 0.77537 0.0
C857 C 0.88221 0.82575 0.81661 0.0
C858 C 0.94762 0.81263 0.79827 0.0
C859 C 0.93892 0.81179 0.75741 0.0
N860 N 0.89571 0.82691 0.70875 0.0
N861 N 0.92998 0.83396 0.86669 0.0
C862 C 0.90235 0.81915 0.74649 0.0
C863 C 0.92002 0.82354 0.82793 0.0
N864 N 0.83667 0.81707 0.76379 0.0
N865 N 0.98227 0.80299 0.80874 0.0
H866 H 0.91049 0.84227 0.88855 0.0
H867 H 0.95761 0.83727 0.87651 0.0
H868 H 1.00371 0.79779 0.78801 0.0
H869 H 0.98906 0.79826 0.83748 0.0
H870 H 0.82833 0.80927 0.73431 0.0
H871 H 0.81457 0.8185 0.78407 0.0
H872 H 0.87029 0.83624 0.69984 0.0
H873 H 0.91702 0.82827 0.68761 0.0
C874 C 0.06121 0.96922 0.61455 0.0
C875 C 0.07011 0.96172 0.57344 0.0
C876 C 0.06509 0.88677 0.57855 0.0
C877 C 0.05035 0.89427 0.61761 0.0
N878 N 0.03329 0.94294 0.67297 0.0
N879 N 0.07659 0.91199 0.51541 0.0
C880 C 0.04864 0.93566 0.6359 0.0
C881 C 0.07168 0.92004 0.5555 0.0
N882 N 0.06453 1.00875 0.633 0.0
N883 N 0.07359 0.84778 0.5635 0.0
H884 H 0.08206 0.93525 0.49763 0.0
H885 H 0.07263 0.88259 0.4995 0.0
H886 H 0.06919 0.82256 0.57922 0.0
H887 H 0.08829 0.84116 0.53706 0.0
H888 H 0.06153 1.01693 0.66347 0.0
H889 H 0.07417 0.03302 0.6179 0.0
H890 H 0.02734 0.9721 0.68653 0.0
H891 H 0.02401 0.91926 0.6893 0.0
C892 C 0.09504 0.69633 0.80952 0.0
C893 C 0.13319 0.70534 0.80115 0.0
C894 C 0.11663 0.72757 0.73804 0.0
C895 C 0.07822 0.72386 0.74876 0.0
N896 N 0.0311 0.71088 0.7983 0.0
N897 N 0.18022 0.73755 0.76186 0.0
C898 C 0.06734 0.70956 0.78539 0.0
C899 C 0.14401 0.72303 0.76652 0.0
N900 N 0.08554 0.67537 0.84083 0.0
N901 N 0.12708 0.73403 0.70036 0.0
H902 H 0.20052 0.73625 0.78314 0.0
H903 H 0.18905 0.75469 0.73921 0.0
H904 H 0.10798 0.73652 0.67805 0.0
H905 H 0.15456 0.7327 0.69014 0.0
H906 H 0.05826 0.66431 0.84652 0.0
H907 H 0.10565 0.666 0.85911 0.0
H908 H 0.02254 0.70483 0.82652 0.0
H909 H 1.01008 0.72186 0.78246 0.0
C910 C 1.00053 0.68758 0.5133 0.0
C911 C 0.01359 0.6475 0.51139 0.0
C912 C 0.0471 0.67147 0.57425 0.0
C913 C 0.02442 0.70535 0.58133 0.0
N914 N 0.9802 0.74728 0.55546 0.0
N915 N 0.05178 0.6023 0.54101 0.0
C916 C 1.00171 0.71424 0.54999 0.0
C917 C 0.03846 0.64017 0.54168 0.0
N918 N 0.98476 0.69895 0.48053 0.0
N919 N 0.07668 0.66894 0.59855 0.0
H920 H 0.04724 0.5796 0.51708 0.0
H921 H 0.06601 0.59325 0.56467 0.0
H922 H 0.08314 0.69083 0.62309 0.0
H923 H 0.09622 0.64689 0.59256 0.0
H924 H 0.97737 0.72879 0.47856 0.0
H925 H 0.98255 0.67916 0.45413 0.0
H926 H 0.95979 0.75234 0.53539 0.0
H927 H 0.98074 0.76817 0.58135 0.0
C928 C 0.78489 0.89369 0.20745 0.0
C929 C 0.74997 0.8941 0.22808 0.0
C930 C 0.77591 0.95142 0.27556 0.0
C931 C 0.81153 0.94876 0.25744 0.0
N932 N 0.84053 0.93608 0.19347 0.0
N933 N 0.70942 0.942 0.2628 0.0
C934 C 0.81377 0.92503 0.21968 0.0
C935 C 0.74461 0.92959 0.25568 0.0
N936 N 0.78904 0.86876 0.17295 0.0
N937 N 0.77163 0.97443 0.31157 0.0
H938 H 0.68646 0.92721 0.24671 0.0
H939 H 0.70411 0.96907 0.28113 0.0
H940 H 0.79414 0.98999 0.32763 0.0
H941 H 0.74618 0.97459 0.32682 0.0
H942 H 0.81525 0.8605 0.16237 0.0
H943 H 0.76864 0.86753 0.1513 0.0
H944 H 0.84261 0.9214 0.16447 0.0
H945 H 0.85694 0.9638 0.1993 0.0
C946 C 0.78716 0.17451 0.31669 0.0
C947 C 0.76298 0.17559 0.35019 0.0
C948 C 0.80384 0.13051 0.37935 0.0
C949 C 0.82279 0.12287 0.3424 0.0
N950 N 0.82481 0.13145 0.27232 0.0
N951 N 0.74636 0.15078 0.41212 0.0
C952 C 0.81305 0.14378 0.31023 0.0
C953 C 0.77112 0.15309 0.3816 0.0
N954 N 0.78356 0.20117 0.28946 0.0
N955 N 0.81702 0.1162 0.41216 0.0
H956 H 0.72184 0.166 0.4138 0.0
H957 H 0.74873 0.13129 0.43377 0.0
H958 H 0.84131 0.10038 0.41152 0.0
H959 H 0.8061 0.1237 0.44055 0.0
H960 H 0.80285 0.2045 0.26665 0.0
H961 H 0.76338 0.22261 0.29202 0.0
H962 H 0.81492 0.1431 0.24758 0.0
H963 H 0.84037 0.10609 0.26429 0.0
C964 C 0.37821 0.04487 0.98653 0.0
C965 C 0.41197 0.03238 1.00042 0.0
C966 C 0.37754 0.97517 0.02786 0.0
C967 C 0.34326 0.99079 0.0182 0.0
N968 N 0.31131 0.04535 0.99496 0.0
N969 N 0.44401 0.98992 0.03969 0.0
C970 C 0.34378 0.02731 0.99969 0.0
C971 C 0.41167 0.99889 0.02291 0.0
N972 N 0.37917 0.07258 0.95971 0.0
N973 N 0.37797 0.93645 0.0387 0.0
H974 H 0.46953 1.00663 0.0363 0.0
H975 H 0.4448 0.96846 0.05975 0.0
H976 H 0.35392 0.91691 0.04056 0.0
H977 H 0.40254 0.92207 0.04192 0.0
H978 H 0.35541 0.08003 0.94556 0.0
H979 H 0.40422 0.08509 0.94881 0.0
H980 H 0.31036 0.07409 0.98507 0.0
H981 H 0.28572 0.0333 1.00477 0.0
C982 C 0.26183 0.40185 0.31215 0.0
C983 C 0.28131 0.40953 0.34851 0.0
C984 C 0.24548 0.47011 0.36784 0.0
C985 C 0.22978 0.46526 0.32906 0.0
N986 N 0.23383 0.43317 0.26067 0.0
N987 N 0.29574 0.45359 0.40937 0.0
C988 C 0.24083 0.43289 0.30015 0.0
C989 C 0.27434 0.44454 0.37597 0.0
N990 N 0.26325 0.36465 0.28911 0.0
N991 N 0.232 0.49777 0.39717 0.0
H992 H 0.31658 0.43488 0.41598 0.0
H993 H 0.29465 0.48088 0.42874 0.0
H994 H 0.21013 0.51594 0.39262 0.0
H995 H 0.24013 0.49994 0.42677 0.0
H996 H 0.24693 0.35617 0.26372 0.0
H997 H 0.27746 0.34079 0.298 0.0
H998 H 0.24425 0.41189 0.23852 0.0
H999 H 0.22219 0.45754 0.24951 0.0
C1000 C 0.12881 0.07458 0.56544 0.0
C1001 C 0.12777 0.03463 0.54302 0.0
C1002 C 0.19123 0.05251 0.51832 0.0
C1003 C 0.19274 0.09135 0.54272 0.0
N1004 N 0.16809 0.13021 0.60128 0.0
N1005 N 0.16225 0.9825 0.50627 0.0
C1006 C 0.16334 0.09929 0.57036 0.0
C1007 C 0.16072 0.02258 0.52254 0.0
N1008 N 0.09635 0.09084 0.57881 0.0
N1009 N 0.21856 0.04427 0.49065 0.0
H1010 H 0.14051 0.9605 0.51014 0.0
H1011 H 0.18622 0.97047 0.49322 0.0
H1012 H 0.24143 0.06503 0.48692 0.0
H1013 H 0.217 1.0183 0.46932 0.0
H1014 H 0.09551 0.1208 0.59336 0.0
H1015 H 0.07012 0.07556 0.5724 0.0
H1016 H 0.14824 0.13491 0.62383 0.0
H1017 H 0.19299 0.14886 0.60576 0.0
C1018 C 0.78397 0.15533 0.71962 0.0
C1019 C 0.79045 0.18802 0.7513 0.0
C1020 C 0.74367 0.15303 0.79114 0.0
C1021 C 0.73278 0.12452 0.75723 0.0
N1022 N 0.73989 0.10206 0.6873 0.0
N1023 N 0.7713 0.22146 0.81468 0.0
C1024 C 0.75244 0.12641 0.72098 0.0
C1025 C 0.76895 0.18775 0.78649 0.0
N1026 N 0.80756 0.15275 0.68765 0.0
N1027 N 0.73108 0.1463 0.82803 0.0
H1028 H 0.78818 0.24789 0.81108 0.0
H1029 H 0.75401 0.22464 0.83958 0.0
H1030 H 0.71517 0.11973 0.83358 0.0
H1031 H 0.73922 0.16529 0.85382 0.0
H1032 H 0.80661 0.12759 0.66541 0.0
H1033 H 0.83017 0.17423 0.68513 0.0
H1034 H 0.75057 0.10523 0.6591 0.0
H1035 H 0.7163 0.08134 0.68692 0.0
C1036 C 0.39432 0.02555 0.56893 0.0
C1037 C 0.42955 0.03329 0.55094 0.0
C1038 C 0.40431 0.08726 0.51727 0.0
C1039 C 0.36873 0.07869 0.53447 0.0
N1040 N 0.32772 0.03512 0.57067 0.0
N1041 N 0.46723 0.06571 0.5033 0.0
C1042 C 0.36307 0.04626 0.55836 0.0
C1043 C 0.43423 0.06245 0.5236 0.0
N1044 N 0.39127 0.99935 0.59719 0.0
N1045 N 0.4096 0.11971 0.49572 0.0
H1046 H 0.48953 0.04811 0.50792 0.0
H1047 H 0.47169 0.08347 0.48015 0.0
H1048 H 0.38784 0.13719 0.48909 0.0
H1049 H 0.43569 0.1306 0.48601 0.0
H1050 H 0.3676 0.99547 0.61477 0.0
H1051 H 0.41362 0.98341 0.605 0.0
H1052 H 0.32103 1.00925 0.58493 0.0
H1053 H 0.30429 0.04987 0.5637 0.0
C1054 C 0.59735 0.48339 0.54349 0.0
C1055 C 0.60124 0.5267 0.55614 0.0
C1056 C 0.66927 0.52593 0.5444 0.0
C1057 C 0.66562 0.4822 0.53536 0.0
N1058 N 0.62674 0.41848 0.52955 0.0
N1059 N 0.64107 0.58854 0.57215 0.0
C1060 C 0.62972 0.46074 0.53551 0.0
C1061 C 0.63725 0.54788 0.55681 0.0
N1062 N 0.56226 0.46385 0.54035 0.0
N1063 N 0.70367 0.5464 0.54201 0.0
H1064 H 0.61809 0.60512 0.58072 0.0
H1065 H 0.66665 0.60522 0.57832 0.0
H1066 H 0.72802 0.53096 0.53732 0.0
H1067 H 0.70798 0.57832 0.54319 0.0
H1068 H 0.55647 0.43342 0.52766 0.0
H1069 H 0.53825 0.47927 0.54784 0.0
H1070 H 0.60218 0.40045 0.53349 0.0
H1071 H 0.64963 0.40088 0.52301 0.0
C1072 C 0.69689 0.25303 0.43464 0.0
C1073 C 0.724 0.24858 0.40379 0.0
C1074 C 0.76286 0.30469 0.44129 0.0
C1075 C 0.73125 0.31664 0.46451 0.0
N1076 N 0.66667 0.30157 0.48219 0.0
N1077 N 0.78296 0.27312 0.37736 0.0
C1078 C 0.69799 0.29018 0.46151 0.0
C1079 C 0.75743 0.27474 0.40731 0.0
N1080 N 0.6687 0.22291 0.43627 0.0
N1081 N 0.79804 0.32094 0.45201 0.0
H1082 H 0.77763 0.25547 0.35031 0.0
H1083 H 0.80751 0.29226 0.37798 0.0
H1084 H 0.8035 0.34138 0.47779 0.0
H1085 H 0.82212 0.3104 0.43784 0.0
H1086 H 0.64975 0.22283 0.4598 0.0
H1087 H 0.66635 0.19635 0.41557 0.0
H1088 H 0.64061 0.28533 0.47783 0.0
H1089 H 0.66583 0.32932 0.50096 0.0
C1090 C 0.51713 0.08418 0.90057 0.0
C1091 C 0.5298 0.07366 0.93724 0.0
C1092 C 0.58986 0.05707 0.90597 0.0
C1093 C 0.57638 0.06481 0.86867 0.0
N1094 N 0.52391 0.07672 0.82886 0.0
N1095 N 0.57195 0.03354 0.96833 0.0
C1096 C 0.53907 0.07604 0.86556 0.0
C1097 C 0.56447 0.0555 0.93826 0.0
N1098 N 0.48325 0.10037 0.89886 0.0
N1099 N 0.62696 0.05238 0.91126 0.0
H1100 H 0.55171 0.02626 0.98901 0.0
H1101 H 0.5958 1.0172 0.96888 0.0
H1102 H 0.64695 0.05453 0.88895 0.0
H1103 H 0.63829 0.05052 0.93908 0.0
H1104 H 0.47436 0.11344 0.87454 0.0
H1105 H 0.46479 0.10306 0.92278 0.0
H1106 H 0.49576 0.08041 0.82417 0.0
H1107 H 0.53861 0.0694 0.80252 0.0
C1108 C 0.35521 0.29478 0.42932 0.0
C1109 C 0.33897 0.28978 0.39081 0.0
C1110 C 0.31521 0.2199 0.4019 0.0
C1111 C 0.32277 0.22884 0.44295 0.0
N1112 N 0.35135 0.27598 0.49644 0.0
N1113 N 0.29412 0.24981 0.34602 0.0
C1114 C 0.34408 0.26625 0.45681 0.0
C1115 C 0.31705 0.25253 0.37809 0.0
N1116 N 0.37946 0.32826 0.44026 0.0
N1117 N 0.3052 0.18035 0.38595 0.0
H1118 H 0.28956 0.27533 0.33195 0.0
H1119 H 0.27565 0.22413 0.33749 0.0
H1120 H 0.30576 0.15594 0.40288 0.0
H1121 H 0.30107 0.17181 0.35554 0.0
H1122 H 0.39476 0.33244 0.46655 0.0
H1123 H 0.38629 0.35017 0.42118 0.0
H1124 H 0.36276 0.30481 0.5091 0.0
H1125 H 0.34425 0.25575 0.51708 0.0
C1126 C 0.46862 0.51479 0.96989 0.0
C1127 C 0.50578 0.50433 0.96191 0.0
C1128 C 0.49566 0.50419 0.89068 0.0
C1129 C 0.45717 0.51 0.8981 0.0
N1130 N 0.40564 0.51526 0.94477 0.0
N1131 N 0.55393 0.48419 0.91525 0.0
C1132 C 0.44325 0.51428 0.93778 0.0
C1133 C 0.51913 0.49788 0.9224 0.0
N1134 N 0.45787 0.5257 1.00828 0.0
N1135 N 0.50987 0.50525 0.85325 0.0
H1136 H 0.5714 0.47889 0.93802 0.0
H1137 H 0.56419 0.47468 0.88699 0.0
H1138 H 0.49337 0.50904 0.82914 0.0
H1139 H 0.53835 0.50586 0.84668 0.0
H1140 H 0.43243 0.53799 0.01617 0.0
H1141 H 0.47578 0.52532 0.03221 0.0
H1142 H 0.39356 0.51352 0.97261 0.0
H1143 H 0.38594 0.51464 0.92233 0.0
C1144 C 0.70846 0.82037 0.12777 0.0
C1145 C 0.72202 0.81321 0.16511 0.0
C1146 C 0.76389 0.76385 0.13176 0.0
C1147 C 0.7458 0.76547 0.09506 0.0
N1148 N 0.71621 0.81055 0.05615 0.0
N1149 N 0.75794 0.77289 0.20316 0.0
C1150 C 0.72228 0.79819 0.09231 0.0
C1151 C 0.74867 0.78371 0.16726 0.0
N1152 N 0.68181 0.8479 0.12662 0.0
N1153 N 0.79729 0.74642 0.13249 0.0
H1154 H 0.74736 0.78663 0.22996 0.0
H1155 H 0.77335 0.74762 0.20587 0.0
H1156 H 0.81273 0.73854 0.10675 0.0
H1157 H 0.81238 0.74597 0.15842 0.0
H1158 H 0.66731 0.85136 0.101 0.0
H1159 H 0.67275 0.86577 0.15217 0.0
H1160 H 0.70121 0.83573 0.0522 0.0
H1161 H 0.73074 0.79928 0.03072 0.0
C1162 C 0.98509 0.9873 0.14996 0.0
C1163 C 1.00853 0.02409 0.15463 0.0
C1164 C 0.9938 0.03424 0.2258 0.0
C1165 C 0.96633 1.00023 0.2201 0.0
N1166 N 0.93147 0.94962 0.17389 0.0
N1167 N 0.03386 0.0848 0.19539 0.0
C1168 C 0.9612 0.97774 0.1815 0.0
C1169 C 1.01264 0.04814 0.19222 0.0
N1170 N 0.98553 0.9615 0.11504 0.0
N1171 N 1.00242 0.05267 0.26337 0.0
H1172 H 0.0484 0.09501 0.17127 0.0
H1173 H 0.035 0.10624 0.22091 0.0
H1174 H 0.98942 0.04324 0.28863 0.0
H1175 H 0.02458 0.07487 0.26981 0.0
H1176 H 0.9724 0.93178 0.11128 0.0
H1177 H 1.00166 0.96862 0.09087 0.0
H1178 H 0.92364 0.93576 0.14553 0.0
H1179 H 0.9123 0.94365 0.19564 0.0
C1180 C 0.34564 0.81339 0.16266 0.0
C1181 C 0.32235 0.80587 0.19523 0.0
C1182 C 0.27556 0.848 0.17203 0.0
C1183 C 0.29945 0.85703 0.13974 0.0
N1184 N 0.36253 0.85908 0.1137 0.0
N1185 N 0.27149 0.82631 0.23774 0.0
C1186 C 0.33621 0.84305 0.13794 0.0
C1187 C 0.28969 0.82719 0.20238 0.0
N1188 N 0.37612 0.79111 0.15455 0.0
N1189 N 0.23846 0.85523 0.17223 0.0
H1190 H 0.28014 0.8091 0.25933 0.0
H1191 H 0.24994 0.84522 0.24658 0.0
H1192 H 0.22497 0.86554 0.14885 0.0
H1193 H 0.21973 0.84614 0.1937 0.0
H1194 H 0.39196 0.79191 0.12867 0.0
H1195 H 0.38382 0.76965 0.17254 0.0
H1196 H 0.39049 0.85225 0.11347 0.0
H1197 H 0.35741 0.88309 0.09762 0.0
C1198 C 0.06994 0.50154 0.1156 0.0
C1199 C 0.03149 0.49242 0.12409 0.0
C1200 C 0.04567 0.50636 0.19604 0.0
C1201 C 0.08333 0.5182 0.18707 0.0
N1202 N 0.1338 0.51707 0.13986 0.0
N1203 N 0.98203 0.48875 0.17249 0.0
C1204 C 0.09623 0.51244 0.14726 0.0
C1205 C 0.01939 0.49466 0.16449 0.0
N1206 N 0.0807 0.50339 0.07723 0.0
N1207 N 0.03528 0.5059 0.23489 0.0
H1208 H 0.96215 0.4795 0.15035 0.0
H1209 H 0.9702 0.49491 0.20055 0.0
H1210 H 0.05384 0.51473 0.25845 0.0
H1211 H 1.00937 0.49387 0.24396 0.0
H1212 H 0.10711 0.51456 0.06868 0.0
H1213 H 0.06201 0.49633 0.05388 0.0
H1214 H 0.14579 0.50953 0.11205 0.0
H1215 H 0.15352 0.52518 0.16245 0.0
C1216 C 0.41362 0.74263 0.28661 0.0
C1217 C 0.37977 0.71729 0.28266 0.0
C1218 C 0.40564 0.68154 0.33561 0.0
C1219 C 0.43099 0.71646 0.34713 0.0
N1220 N 0.4517 0.78574 0.33505 0.0
N1221 N 0.35246 0.65089 0.2968 0.0
C1222 C 0.4326 0.74879 0.32321 0.0
C1223 C 0.37742 0.68366 0.30604 0.0
N1224 N 0.42862 0.75944 0.25484 0.0
N1225 N 0.41031 0.64542 0.35034 0.0
H1226 H 0.34936 0.63845 0.26718 0.0
H1227 H 0.3431 0.63152 0.31754 0.0
H1228 H 0.43167 0.6426 0.37022 0.0
H1229 H 0.39484 0.61777 0.3408 0.0
H1230 H 0.45446 0.77657 0.25632 0.0
H1231 H 0.41686 0.75214 0.2266 0.0
H1232 H 0.45241 0.81008 0.31793 0.0
H1233 H 0.46158 0.79364 0.36394 0.0
C1234 C 0.02001 0.417 1.01306 0.0
C1235 C 1.0072 0.42116 0.05314 0.0
C1236 C 1.00915 0.34608 0.05264 0.0
C1237 C 0.01542 0.34123 1.011 0.0
N1238 N 0.03114 0.37254 0.95176 0.0
N1239 N 0.98852 0.38963 0.11084 0.0
C1240 C 0.02341 0.37692 0.99155 0.0
C1241 C 1.00256 0.38576 0.07319 0.0
N1242 N 0.02659 0.45171 0.99485 0.0
N1243 N 1.00892 0.31225 0.07232 0.0
H1244 H 0.98345 0.41817 0.12625 0.0
H1245 H 0.97986 0.36479 0.12583 0.0
H1246 H 0.01335 0.28302 0.05766 0.0
H1247 H 1.00787 0.31366 0.10312 0.0
H1248 H 0.04015 0.45243 0.96768 0.0
H1249 H 0.01988 0.48082 1.00794 0.0
H1250 H 0.0313 0.39624 0.93413 0.0
H1251 H 0.03739 0.34475 0.93563 0.0
C1252 C 0.60221 0.8085 0.26808 0.0
C1253 C 0.63723 0.82704 0.28221 0.0
C1254 C 0.61578 0.8241 0.35013 0.0
C1255 C 0.58664 0.79461 0.33556 0.0
N1256 N 0.54921 0.7615 0.27975 0.0
N1257 N 0.65105 0.88433 0.3327 0.0
C1258 C 0.57855 0.78798 0.29423 0.0
C1259 C 0.63758 0.84446 0.32257 0.0
N1260 N 0.58932 0.81606 0.23233 0.0
N1261 N 0.62212 0.83371 0.38993 0.0
H1262 H 0.6595 0.90284 0.31092 0.0
H1263 H 0.6487 0.90003 0.36128 0.0
H1264 H 0.6057 0.82073 0.41135 0.0
H1265 H 0.64512 0.85301 0.40106 0.0
H1266 H 0.56239 0.8064 0.22203 0.0
H1267 H 0.60416 0.83663 0.21575 0.0
H1268 H 0.54468 0.75307 0.2494 0.0
H1269 H 0.53108 0.74584 0.29792 0.0
C1270 C 0.04408 0.13296 0.0507 0.0
C1271 C 0.0407 0.09039 0.03505 0.0
C1272 C 1.0104 0.10847 0.97527 0.0
C1273 C 0.01357 0.15085 0.99139 0.0
N1274 N 0.04408 0.20415 0.03801 0.0
N1275 N 0.02863 0.03899 0.97887 0.0
C1276 C 0.03372 0.16329 0.02715 0.0
C1277 C 0.0265 0.07869 0.99603 0.0
N1278 N 0.05531 0.14428 0.08911 0.0
N1279 N 0.99095 0.09653 0.94079 0.0
H1280 H 0.04137 1.01765 0.99321 0.0
H1281 H 0.02163 0.02846 0.94945 0.0
H1282 H 0.98004 0.11753 0.9242 0.0
H1283 H 0.98373 0.06587 0.92968 0.0
H1284 H 0.05356 0.17394 0.10405 0.0
H1285 H 0.06439 0.12327 0.10685 0.0
H1286 H 0.06182 0.21495 0.06178 0.0
H1287 H 0.03819 0.22683 0.02056 0.0
C1288 C 0.42545 0.34528 0.32413 0.0
C1289 C 0.38894 0.32459 0.322 0.0
C1290 C 0.41233 0.27147 0.27341 0.0
C1291 C 0.44621 0.29619 0.26771 0.0
N1292 N 0.48648 0.35606 0.29288 0.0
N1293 N 0.34664 0.27861 0.2798 0.0
C1294 C 0.45325 0.33314 0.29468 0.0
C1295 C 0.38203 0.29057 0.29261 0.0
N1296 N 0.43319 0.37681 0.35393 0.0
N1297 N 0.4086 0.22972 0.2626 0.0
H1298 H 0.32477 0.29722 0.2875 0.0
H1299 H 0.34087 0.25478 0.25664 0.0
H1300 H 0.43117 0.21154 0.2572 0.0
H1301 H 0.38363 0.21235 0.26711 0.0
H1302 H 0.45985 0.39102 0.35981 0.0
H1303 H 0.41283 0.38727 0.37421 0.0
H1304 H 0.49159 0.38567 0.308 0.0
H1305 H 0.50904 0.3454 0.27592 0.0
C1306 C 0.53622 0.46308 0.10377 0.0
C1307 C 0.56698 0.46052 0.07673 0.0
C1308 C 0.5799 0.3938 0.09795 0.0
C1309 C 0.54773 0.39509 0.12309 0.0
N1310 N 0.50074 0.43505 0.15717 0.0
N1311 N 0.62425 0.43049 0.05773 0.0
C1312 C 0.52771 0.4312 0.12839 0.0
C1313 C 0.59087 0.42813 0.07721 0.0
N1314 N 0.51366 0.49488 0.10368 0.0
N1315 N 0.59903 0.35889 0.09231 0.0
H1316 H 0.633 0.45633 0.04432 0.0
H1317 H 0.64481 0.40984 0.05889 0.0
H1318 H 0.59269 0.33356 0.10748 0.0
H1319 H 0.61973 0.35381 0.07084 0.0
H1320 H 0.48807 0.49647 0.1184 0.0
H1321 H 0.52012 0.51918 0.08715 0.0
H1322 H 0.48731 0.46199 0.16535 0.0
H1323 H 0.49373 0.41203 0.1751 0.0
C1324 C 0.60919 0.18713 0.29437 0.0
C1325 C 0.646 0.20181 0.28596 0.0
C1326 C 0.62461 0.22695 0.2261 0.0
C1327 C 0.587 0.21737 0.23742 0.0
N1328 N 0.54324 0.195 0.28665 0.0
N1329 N 0.68862 0.2416 0.2481 0.0
C1330 C 0.57908 0.19873 0.27251 0.0
C1331 C 0.65377 0.22303 0.25277 0.0
N1332 N 0.60325 0.16296 0.32403 0.0
N1333 N 0.63267 0.23903 0.1897 0.0
H1334 H 0.71044 0.23966 0.26752 0.0
H1335 H 0.69491 0.26179 0.22723 0.0
H1336 H 0.61227 0.24269 0.16913 0.0
H1337 H 0.65981 0.24192 0.17849 0.0
H1338 H 0.57738 0.14801 0.32951 0.0
H1339 H 0.62517 0.15503 0.34087 0.0
H1340 H 0.5365 0.1853 0.31405 0.0
H1341 H 0.52049 0.20559 0.27315 0.0
C1342 C 0.50222 0.1805 1.01189 0.0
C1343 C 0.51465 0.14076 1.01396 0.0
C1344 C 0.54845 0.16991 0.07511 0.0
C1345 C 0.52607 0.20407 0.07917 0.0
N1346 N 0.48349 0.24433 0.04873 0.0
N1347 N 0.54829 0.0974 0.05108 0.0
C1348 C 0.50384 0.21045 0.04646 0.0
C1349 C 0.53858 0.13571 0.04584 0.0
N1350 N 0.48714 0.1885 0.97733 0.0
N1351 N 0.57778 0.16917 0.10017 0.0
H1352 H 0.5356 0.07101 0.03518 0.0
H1353 H 0.56506 0.09162 0.07428 0.0
H1354 H 0.58444 0.19303 0.12292 0.0
H1355 H 0.5969 0.14649 0.09627 0.0
H1356 H 0.47949 0.21755 0.97261 0.0
H1357 H 0.4861 0.16657 0.9522 0.0
H1358 H 0.46368 0.2483 0.02759 0.0
H1359 H 0.48484 0.26744 0.073 0.0
C1360 C 0.25724 0.40861 0.71653 0.0
C1361 C 0.24588 0.37897 0.74198 0.0
C1362 C 0.29011 0.41396 0.79203 0.0
C1363 C 0.30593 0.43922 0.76425 0.0
N1364 N 0.30611 0.45702 0.69724 0.0
N1365 N 0.25788 0.34869 0.80101 0.0
C1366 C 0.29029 0.43506 0.72541 0.0
C1367 C 0.26505 0.37978 0.77841 0.0
N1368 N 0.23451 0.41455 0.68625 0.0
N1369 N 0.29611 0.42435 0.8319 0.0
H1370 H 0.24061 0.32275 0.79105 0.0
H1371 H 0.27153 0.34704 0.82759 0.0
H1372 H 0.31084 0.45155 0.84415 0.0
H1373 H 0.2823 0.40869 0.85331 0.0
H1374 H 0.2396 0.43823 0.6687 0.0
H1375 H 0.20819 0.39912 0.68229 0.0
H1376 H 0.29822 0.45156 0.66745 0.0
H1377 H 0.32868 0.47868 0.70312 0.0
C1378 C 0.27026 0.66291 0.829 0.0
C1379 C 0.24657 0.66498 0.86289 0.0
C1380 C 0.28523 0.61621 0.89032 0.0
C1381 C 0.30436 0.60932 0.85337 0.0
N1382 N 0.30508 0.61799 0.78342 0.0
N1383 N 0.22884 0.63916 0.92406 0.0
C1384 C 0.29448 0.63072 0.82164 0.0
C1385 C 0.25354 0.64071 0.8934 0.0
N1386 N 0.26841 0.69081 0.80267 0.0
N1387 N 0.29745 0.59987 0.92242 0.0
H1388 H 0.20532 0.65611 0.9264 0.0
H1389 H 0.23019 0.61885 0.94513 0.0
H1390 H 0.32069 0.58233 0.92113 0.0
H1391 H 0.28663 0.60684 0.95092 0.0
H1392 H 0.25045 0.71452 0.80674 0.0
H1393 H 0.28747 0.69298 0.77944 0.0
H1394 H 0.29528 0.63037 0.75905 0.0
H1395 H 0.31918 0.59154 0.77508 0.0
C1396 C 0.87327 0.55591 0.48484 0.0
C1397 C 0.90769 0.54302 0.49647 0.0
C1398 C 0.87526 0.48505 0.52455 0.0
C1399 C 0.84031 0.49985 0.51567 0.0
N1400 N 0.80636 0.55424 0.49478 0.0
N1401 N 0.94209 0.50071 0.53359 0.0
C1402 C 0.83951 0.53701 0.49829 0.0
C1403 C 0.90884 0.50922 0.51829 0.0
N1404 N 0.87305 0.5853 0.45976 0.0
N1405 N 0.87683 0.4468 0.53618 0.0
H1406 H 0.9671 0.51821 0.52979 0.0
H1407 H 0.9442 0.47912 0.5533 0.0
H1408 H 0.8533 0.42747 0.54077 0.0
H1409 H 0.90174 0.43268 0.53819 0.0
H1410 H 0.8488 0.59328 0.44694 0.0
H1411 H 0.89764 0.59913 0.44903 0.0
H1412 H 0.8044 0.58329 0.4859 0.0
H1413 H 0.78113 0.54104 0.50438 0.0
C1414 C 0.74341 0.89755 0.84058 0.0
C1415 C 0.77855 0.91171 0.85779 0.0
C1416 C 0.76328 0.9832 0.85632 0.0
C1417 C 0.72677 0.96888 0.84127 0.0
N1418 N 0.67878 0.91243 0.83634 0.0
N1419 N 0.81661 0.96722 0.89365 0.0
C1420 C 0.71574 0.92601 0.83896 0.0
C1421 C 0.78652 0.95436 0.86979 0.0
N1422 N 0.73673 0.85735 0.82437 0.0
N1423 N 0.77745 0.02297 0.85526 0.0
H1424 H 0.83397 0.9464 0.90354 0.0
H1425 H 0.822 0.99779 0.90638 0.0
H1426 H 0.76351 0.04549 0.84388 0.0
H1427 H 0.80522 0.03271 0.86225 0.0
H1428 H 0.71249 0.84667 0.80839 0.0
H1429 H 0.7568 0.83579 0.82356 0.0
H1430 H 0.66948 0.88161 0.83724 0.0
H1431 H 0.65744 0.93265 0.83872 0.0
C1432 C 0.62596 0.57058 0.07196 0.0
C1433 C 0.61802 0.53711 0.04166 0.0
C1434 C 0.67416 0.56055 1.00472 0.0
C1435 C 0.6825 0.59375 0.03551 0.0
N1436 N 0.66883 0.62733 0.10103 0.0
N1437 N 0.6375 0.4964 0.98216 0.0
C1438 C 0.6592 0.59759 0.07001 0.0
C1439 C 0.64336 0.53098 1.00913 0.0
N1440 N 0.6003 0.57771 0.10158 0.0
N1441 N 0.69562 0.55719 0.97102 0.0
H1442 H 0.61536 0.47444 0.98483 0.0
H1443 H 0.65602 0.48724 0.95946 0.0
H1444 H 0.72 0.57572 0.96757 0.0
H1445 H 0.6883 0.53759 0.94523 0.0
H1446 H 0.60111 0.60428 0.12211 0.0
H1447 H 0.57703 0.55719 0.10439 0.0
H1448 H 0.6559 0.62902 0.12875 0.0
H1449 H 0.69097 0.64966 0.09959 0.0
C1450 C 0.29343 0.638 0.21252 0.0
C1451 C 0.29893 0.67303 0.24181 0.0
C1452 C 0.24838 0.64312 0.28085 0.0
C1453 C 0.23756 0.6133 0.24778 0.0
N1454 N 0.24887 0.58553 0.17968 0.0
N1455 N 0.27615 0.71189 0.30159 0.0
C1456 C 0.26007 0.61134 0.21296 0.0
C1457 C 0.27481 0.67654 0.27536 0.0
N1458 N 0.32011 0.63081 0.18399 0.0
N1459 N 0.23517 0.63862 0.31806 0.0
H1460 H 0.29329 0.73814 0.298 0.0
H1461 H 0.25755 0.7165 0.32524 0.0
H1462 H 0.21892 0.61273 0.32467 0.0
H1463 H 0.24402 0.65821 0.34333 0.0
H1464 H 0.31941 0.60411 0.16357 0.0
H1465 H 0.34462 0.6501 0.1834 0.0
H1466 H 0.26241 0.58579 0.15237 0.0
H1467 H 0.22398 0.56674 0.17837 0.0
C1468 C 0.92543 0.55917 0.02601 0.0
C1469 C 0.92084 0.53235 0.05553 0.0
C1470 C 0.85503 0.54795 0.06406 0.0
C1471 C 0.86058 0.57777 0.03729 0.0
N1472 N 0.90112 0.61421 0.99437 0.0
N1473 N 0.88324 0.50315 0.10524 0.0
C1474 C 0.8958 0.58394 0.01851 0.0
C1475 C 0.88606 0.52716 0.07515 0.0
N1476 N 0.95804 0.5602 1.00481 0.0
N1477 N 0.81991 0.53918 0.0784 0.0
H1478 H 0.9054 0.48706 0.11332 0.0
H1479 H 0.86008 0.50121 0.12386 0.0
H1480 H 0.79667 0.55403 0.07104 0.0
H1481 H 0.81308 0.5151 0.095 0.0
H1482 H 0.96232 0.57592 0.9802 0.0
H1483 H 0.98021 0.54285 1.01041 0.0
H1484 H 0.92707 0.6235 0.98311 0.0
H1485 H 0.87959 0.63168 0.98708 0.0
C1486 C 0.09855 0.98145 0.03648 0.0
C1487 C 0.10164 0.02479 0.04868 0.0
C1488 C 0.16943 0.02563 0.03565 0.0
C1489 C 0.16687 0.98174 0.02925 0.0
N1490 N 0.12916 0.91727 0.02534 0.0
N1491 N 0.13985 0.08815 0.06128 0.0
C1492 C 0.13136 0.95951 0.02966 0.0
C1493 C 0.13702 0.04698 0.0478 0.0
N1494 N 0.06383 0.96117 0.03312 0.0
N1495 N 0.203 0.04685 0.03069 0.0
H1496 H 0.11636 0.10429 0.06902 0.0
H1497 H 0.16513 0.10576 0.0664 0.0
H1498 H 0.22732 0.0319 0.02399 0.0
H1499 H 0.20634 0.07871 0.03079 0.0
H1500 H 0.05872 0.93047 0.02089 0.0
H1501 H 0.03956 0.97638 0.03947 0.0
H1502 H 0.10488 0.89903 0.02999 0.0
H1503 H 0.15238 0.90008 0.01941 0.0
loop_
_geom_bond_atom_site_label_1
_geom_bond_atom_site_label_2
_geom_bond_distance
_geom_bond_site_symmetry_2
_ccdc_geom_bond_type
C0 N1 1.317 1_565 S
C0 N2 1.348 1_465 S
C0 C3 1.485 . S
N1 C0 1.317 1_545 S
N1 N5 1.370 . S
N2 C0 1.348 1_645 S
N2 C4 1.346 . S
C3 C0 1.485 . S
C3 H7 0.960 . S
C3 H8 0.961 . S
C3 H9 0.960 . S
C4 N2 1.346 . S
C4 N5 1.307 1_655 S
C4 C6 1.486 . S
N5 N1 1.370 . S
N5 C4 1.307 1_455 S
C6 C4 1.486 . S
C6 H10 0.960 . S
C6 H11 0.960 . S
C6 H12 0.959 . S
H7 C3 0.960 . S
H8 C3 0.961 . S
H9 C3 0.960 . S
H10 C6 0.960 . S
H11 C6 0.960 . S
H12 C6 0.959 . S
C13 N14 1.317 . S
C13 N15 1.348 . S
C13 C16 1.485 . S
N14 C13 1.317 . S
N14 N18 1.370 . S
N15 C13 1.348 . S
N15 C17 1.346 . S
C16 C13 1.485 . S
C16 H20 0.960 . S
C16 H21 0.961 . S
C16 H22 0.960 . S
C17 N15 1.346 . S
C17 N18 1.307 . S
C17 C19 1.486 . S
N18 N14 1.370 . S
N18 C17 1.307 . S
C19 C17 1.486 . S
C19 H23 0.960 . S
C19 H24 0.960 . S
C19 H25 0.959 . S
H20 C16 0.960 . S
H21 C16 0.961 . S
H22 C16 0.960 . S
H23 C19 0.960 . S
H24 C19 0.960 . S
H25 C19 0.959 . S
C26 N27 1.317 . S
C26 N28 1.348 . S
C26 C29 1.485 . S
N27 C26 1.317 . S
N27 N31 1.370 . S
N28 C26 1.348 . S
N28 C30 1.346 . S
C29 C26 1.485 . S
C29 H33 0.960 . S
C29 H34 0.961 . S
C29 H35 0.979 . S
C30 N28 1.346 . S
C30 N31 1.307 . S
C30 C32 1.486 1_554 S
N31 N27 1.370 . S
N31 C30 1.307 . S
C32 C30 1.486 1_556 S
C32 H36 0.960 . S
C32 H37 0.960 1_556 S
C32 H38 0.959 . S
H33 C29 0.960 . S
H34 C29 0.961 . S
H35 C29 0.979 . S
H36 C32 0.960 . S
H37 C32 0.960 1_554 S
H38 C32 0.959 . S
C39 N40 1.317 . S
C39 N41 1.348 . S
C39 C42 1.485 . S
N40 C39 1.317 . S
N40 N44 1.370 . S
N41 C39 1.348 . S
N41 C43 1.346 . S
C42 C39 1.485 . S
C42 H46 0.960 . S
C42 H47 0.961 . S
C42 H48 0.960 . S
C43 N41 1.346 . S
C43 N44 1.307 . S
C43 C45 1.486 . S
N44 N40 1.370 . S
N44 C43 1.307 . S
C45 C43 1.486 . S
C45 H49 0.960 . S
C45 H50 0.960 . S
C45 H51 0.959 . S
H46 C42 0.960 . S
H47 C42 0.961 . S
H48 C42 0.960 . S
H49 C45 0.960 . S
H50 C45 0.960 . S
H51 C45 0.959 . S
C52 N53 1.317 . S
C52 N54 1.348 . S
C52 C55 1.485 1_455 S
N53 C52 1.317 . S
N53 N57 1.370 1_565 S
N54 C52 1.348 . S
N54 C56 1.346 1_565 S
C55 C52 1.485 1_655 S
C55 H59 0.960 . S
C55 H60 0.961 . S
C55 H61 0.960 . S
C56 N54 1.346 1_545 S
C56 N57 1.307 . S
C56 C58 1.486 . S
N57 N53 1.370 1_545 S
N57 C56 1.307 . S
C58 C56 1.486 . S
C58 H62 0.960 . S
C58 H63 0.960 . S
C58 H64 0.959 . S
H59 C55 0.960 . S
H60 C55 0.961 . S
H61 C55 0.960 . S
H62 C58 0.960 . S
H63 C58 0.960 . S
H64 C58 0.959 . S
C65 N66 1.317 . S
C65 N67 1.348 . S
C65 C68 1.485 . S
N66 C65 1.317 . S
N66 N70 1.370 . S
N67 C65 1.348 . S
N67 C69 1.346 . S
C68 C65 1.485 . S
C68 H72 0.960 . S
C68 H73 0.961 . S
C68 H74 0.960 . S
C69 N67 1.346 . S
C69 N70 1.307 . S
C69 C71 1.486 . S
N70 N66 1.370 . S
N70 C69 1.307 . S
C71 C69 1.486 . S
C71 H75 0.960 . S
C71 H76 0.960 . S
C71 H77 0.959 . S
H72 C68 0.960 . S
H73 C68 0.961 . S
H74 C68 0.960 . S
H75 C71 0.960 . S
H76 C71 0.960 . S
H77 C71 0.959 . S
C78 N79 1.317 . S
C78 N80 1.348 . S
C78 C81 1.485 . S
N79 C78 1.317 . S
N79 N83 1.370 . S
N80 C78 1.348 . S
N80 C82 1.346 . S
C81 C78 1.485 . S
C81 H85 0.960 . S
C81 H86 0.961 . S
C81 H87 0.960 . S
C82 N80 1.346 . S
C82 N83 1.307 . S
C82 C84 1.486 . S
N83 N79 1.370 . S
N83 C82 1.307 . S
C84 C82 1.486 . S
C84 H88 0.960 . S
C84 H89 0.960 . S
C84 H90 0.959 . S
H85 C81 0.960 . S
H86 C81 0.961 . S
H87 C81 0.960 . S
H88 C84 0.960 . S
H89 C84 0.960 . S
H90 C84 0.959 . S
C91 N92 1.317 . S
C91 N93 1.348 . S
C91 C94 1.485 . S
N92 C91 1.317 . S
N92 N96 1.370 . S
N93 C91 1.348 . S
N93 C95 1.346 . S
C94 C91 1.485 . S
C94 H98 0.960 . S
C94 H99 0.961 . S
C94 H100 0.960 . S
C95 N93 1.346 . S
C95 N96 1.307 . S
C95 C97 1.486 . S
N96 N92 1.370 . S
N96 C95 1.307 . S
C97 C95 1.486 . S
C97 H101 0.960 . S
C97 H102 0.960 . S
C97 H103 0.959 . S
H98 C94 0.960 . S
H99 C94 0.961 . S
H100 C94 0.960 . S
H101 C97 0.960 . S
H102 C97 0.960 . S
H103 C97 0.959 . S
C104 N105 1.317 . S
C104 N106 1.348 . S
C104 C107 1.485 . S
N105 C104 1.317 . S
N105 N109 1.370 . S
N106 C104 1.348 . S
N106 C108 1.346 . S
C107 C104 1.485 . S
C107 H111 0.960 . S
C107 H112 0.961 . S
C107 H113 0.960 . S
C108 N106 1.346 . S
C108 N109 1.307 . S
C108 C110 1.486 . S
N109 N105 1.370 . S
N109 C108 1.307 . S
C110 C108 1.486 . S
C110 H114 0.960 . S
C110 H115 0.960 . S
C110 H116 0.959 . S
H111 C107 0.960 . S
H112 C107 0.961 . S
H113 C107 0.960 . S
H114 C110 0.960 . S
H115 C110 0.960 . S
H116 C110 0.959 . S
C117 N118 1.317 1_545 S
C117 N119 1.348 . S
C117 C120 1.485 . S
N118 C117 1.317 1_565 S
N118 N122 1.370 . S
N119 C117 1.348 . S
N119 C121 1.346 1_545 S
C120 C117 1.485 . S
C120 H124 0.960 . S
C120 H125 0.961 . S
C120 H126 0.960 . S
C121 N119 1.346 1_565 S
C121 N122 1.307 . S
C121 C123 1.486 . S
N122 N118 1.370 . S
N122 C121 1.307 . S
C123 C121 1.486 . S
C123 H127 0.960 . S
C123 H128 0.960 . S
C123 H129 0.959 . S
H124 C120 0.960 . S
H125 C120 0.961 . S
H126 C120 0.960 . S
H127 C123 0.960 . S
H128 C123 0.960 . S
H129 C123 0.959 . S
C130 N131 1.317 . S
C130 N132 1.348 . S
C130 C133 1.485 . S
N131 C130 1.317 . S
N131 N135 1.370 . S
N132 C130 1.348 . S
N132 C134 1.346 . S
C133 C130 1.485 . S
C133 H137 0.960 . S
C133 H138 0.961 . S
C133 H139 0.960 . S
C134 N132 1.346 . S
C134 N135 1.307 . S
C134 C136 1.486 . S
N135 N131 1.370 . S
N135 C134 1.307 . S
C136 C134 1.486 . S
C136 H140 0.960 . S
C136 H141 0.960 . S
C136 H142 0.959 . S
H137 C133 0.960 . S
H138 C133 0.961 . S
H139 C133 0.960 . S
H140 C136 0.960 . S
H141 C136 0.960 . S
H142 C136 0.959 . S
C143 N144 1.317 . S
C143 N145 1.348 . S
C143 C146 1.485 . S
N144 C143 1.317 . S
N144 N148 1.370 . S
N145 C143 1.348 . S
N145 C147 1.346 . S
C146 C143 1.485 . S
C146 H150 0.960 . S
C146 H151 0.961 . S
C146 H152 0.960 . S
C147 N145 1.346 . S
C147 N148 1.307 . S
C147 C149 1.486 . S
N148 N144 1.370 . S
N148 C147 1.307 . S
C149 C147 1.486 . S
C149 H153 0.960 . S
C149 H154 0.960 . S
C149 H155 0.959 . S
H150 C146 0.960 . S
H151 C146 0.961 . S
H152 C146 0.960 . S
H153 C149 0.960 . S
H154 C149 0.960 . S
H155 C149 0.959 . S
C156 N157 1.317 . S
C156 N158 1.348 . S
C156 C159 1.485 . S
N157 C156 1.317 . S
N157 N161 1.370 . S
N158 C156 1.348 . S
N158 C160 1.346 . S
C159 C156 1.485 . S
C159 H163 0.960 . S
C159 H164 0.961 . S
C159 H165 0.960 . S
C160 N158 1.346 . S
C160 N161 1.307 . S
C160 C162 1.486 . S
N161 N157 1.370 . S
N161 C160 1.307 . S
C162 C160 1.486 . S
C162 H166 0.960 . S
C162 H167 0.960 . S
C162 H168 0.959 . S
H163 C159 0.960 . S
H164 C159 0.961 . S
H165 C159 0.960 . S
H166 C162 0.960 . S
H167 C162 0.960 . S
H168 C162 0.959 . S
C169 N170 1.321 . S
C169 N171 1.348 . S
C169 C172 1.485 . S
N170 C169 1.321 . S
N170 N174 1.373 . S
N171 C169 1.348 . S
N171 C173 1.346 . S
C172 C169 1.485 . S
C172 H176 0.960 . S
C172 H177 0.961 . S
C172 H178 0.960 1_556 S
C173 N171 1.346 . S
C173 N174 1.307 . S
C173 C175 1.486 . S
N174 N170 1.373 . S
N174 C173 1.307 . S
C175 C173 1.486 . S
C175 H179 0.960 . S
C175 H180 0.960 . S
C175 H181 0.959 . S
H176 C172 0.960 . S
H177 C172 0.961 . S
H178 C172 0.960 1_554 S
H179 C175 0.960 . S
H180 C175 0.960 . S
H181 C175 0.959 . S
C182 N183 1.317 . S
C182 N184 1.348 . S
C182 C185 1.485 . S
N183 C182 1.317 . S
N183 N187 1.370 . S
N184 C182 1.348 . S
N184 C186 1.346 . S
C185 C182 1.485 . S
C185 H189 0.960 . S
C185 H190 0.961 . S
C185 H191 0.960 . S
C186 N184 1.346 . S
C186 N187 1.307 . S
C186 C188 1.486 . S
N187 N183 1.370 . S
N187 C186 1.307 . S
C188 C186 1.486 . S
C188 H192 0.960 . S
C188 H193 0.960 . S
C188 H194 0.959 . S
H189 C185 0.960 . S
H190 C185 0.961 . S
H191 C185 0.960 . S
H192 C188 0.960 . S
H193 C188 0.960 . S
H194 C188 0.959 . S
C195 N196 1.317 . S
C195 N197 1.348 . S
C195 C198 1.485 1_545 S
N196 C195 1.317 . S
N196 N200 1.370 1_556 S
N197 C195 1.348 . S
N197 C199 1.346 1_556 S
C198 C195 1.485 1_565 S
C198 H202 0.960 . S
C198 H203 0.961 . S
C198 H204 0.960 . S
C199 N197 1.346 1_554 S
C199 N200 1.307 . S
C199 C201 1.486 . S
N200 N196 1.370 1_554 S
N200 C199 1.307 . S
C201 C199 1.486 . S
C201 H205 0.960 . S
C201 H206 0.960 . S
C201 H207 0.959 . S
H202 C198 0.960 . S
H203 C198 0.961 . S
H204 C198 0.960 . S
H205 C201 0.960 . S
H206 C201 0.960 . S
H207 C201 0.959 . S
Mn208 O213 2.095 . S
Mn208 O223 2.162 . S
Mn208 O224 2.297 . S
Mn208 O232 2.385 . S
Mn208 O233 2.209 1_554 S
Mn208 O234 2.094 . S
Mn209 O214 2.121 . S
Mn209 N216 2.257 . S
Mn209 N225 2.282 . S
Mn209 O233 2.215 . S
Mn209 O235 2.117 . S
C210 O232 1.234 1_556 S
C210 O233 1.283 . S
C211 O223 1.281 . S
C211 O224 1.236 . S
C212 O234 1.240 . S
C212 O235 1.264 1_554 S
O213 Mn208 2.095 . S
O213 C222 1.250 . S
O214 Mn209 2.121 . S
O214 C222 1.258 1_556 S
C215 N216 1.326 . S
C215 C219 1.460 . S
C215 H221 0.929 . S
N216 Mn209 2.257 . S
N216 C215 1.326 . S
N216 C220 1.362 . S
C217 C218 1.258 . S
C217 C220 1.431 . S
C217 C237 1.449 . S
C218 C217 1.258 . S
C218 C219 1.477 . S
C218 H238 0.931 . S
C219 C215 1.460 . S
C219 C218 1.477 . S
C219 H239 0.930 . S
C220 N216 1.362 . S
C220 C217 1.431 . S
C220 C230 1.476 . S
H221 C215 0.929 . S
C222 O213 1.250 . S
C222 O214 1.258 1_554 S
O223 Mn208 2.162 . S
O223 C211 1.281 . S
O224 Mn208 2.297 . S
O224 C211 1.236 . S
N225 Mn209 2.282 . S
N225 C226 1.328 . S
N225 C230 1.318 . S
C226 N225 1.328 . S
C226 C227 1.457 . S
C226 H231 0.929 . S
C227 C226 1.457 . S
C227 C228 1.291 . S
C227 H240 0.931 . S
C228 C227 1.291 . S
C228 C229 1.373 . S
C228 H241 0.929 . S
C229 C228 1.373 . S
C229 C230 1.396 . S
C229 C236 1.403 . S
C230 C220 1.476 . S
C230 N225 1.318 . S
C230 C229 1.396 . S
H231 C226 0.929 . S
O232 Mn208 2.385 . S
O232 C210 1.234 1_554 S
O233 Mn208 2.209 1_556 S
O233 Mn209 2.215 . S
O233 C210 1.283 . S
O234 Mn208 2.094 . S
O234 C212 1.240 . S
O235 Mn209 2.117 . S
O235 C212 1.264 1_556 S
C236 C229 1.403 . S
C236 C237 1.399 . S
C236 H242 0.929 . S
C237 C217 1.449 . S
C237 C236 1.399 . S
C237 H243 0.930 . S
H238 C218 0.931 . S
H239 C219 0.930 . S
H240 C227 0.931 . S
H241 C228 0.929 . S
H242 C236 0.929 . S
H243 C237 0.930 . S
Mn244 O249 2.095 . S
Mn244 O259 2.162 . S
Mn244 O260 2.297 . S
Mn244 O268 2.385 . S
Mn244 O269 2.209 . S
Mn244 O270 2.094 . S
Mn245 O250 2.121 . S
Mn245 N252 2.257 . S
Mn245 N261 2.282 . S
Mn245 O269 2.215 . S
Mn245 O271 2.117 . S
C246 O268 1.234 . S
C246 O269 1.283 . S
C247 O259 1.281 . S
C247 O260 1.236 . S
C248 O270 1.240 . S
C248 O271 1.264 . S
O249 Mn244 2.095 . S
O249 C258 1.250 . S
O250 Mn245 2.121 . S
O250 C258 1.258 . S
C251 N252 1.326 . S
C251 C255 1.460 . S
C251 H257 0.929 . S
N252 Mn245 2.257 . S
N252 C251 1.326 . S
N252 C256 1.362 . S
C253 C254 1.258 . S
C253 C256 1.431 . S
C253 C273 1.449 . S
C254 C253 1.258 . S
C254 C255 1.477 . S
C254 H274 0.931 . S
C255 C251 1.460 . S
C255 C254 1.477 . S
C255 H275 0.930 . S
C256 N252 1.362 . S
C256 C253 1.431 . S
C256 C266 1.476 . S
H257 C251 0.929 . S
C258 O249 1.250 . S
C258 O250 1.258 . S
O259 Mn244 2.162 . S
O259 C247 1.281 . S
O260 Mn244 2.297 . S
O260 C247 1.236 . S
N261 Mn245 2.282 . S
N261 C262 1.328 . S
N261 C266 1.318 . S
C262 N261 1.328 . S
C262 C263 1.457 . S
C262 H267 0.929 . S
C263 C262 1.457 . S
C263 C264 1.291 . S
C263 H276 0.931 . S
C264 C263 1.291 . S
C264 C265 1.373 . S
C264 H277 0.929 . S
C265 C264 1.373 . S
C265 C266 1.396 . S
C265 C272 1.403 . S
C266 C256 1.476 . S
C266 N261 1.318 . S
C266 C265 1.396 . S
H267 C262 0.929 . S
O268 Mn244 2.385 . S
O268 C246 1.234 . S
O269 Mn244 2.209 . S
O269 Mn245 2.215 . S
O269 C246 1.283 . S
O270 Mn244 2.094 . S
O270 C248 1.240 . S
O271 Mn245 2.117 . S
O271 C248 1.264 . S
C272 C265 1.403 . S
C272 C273 1.399 . S
C272 H278 0.929 . S
C273 C253 1.449 . S
C273 C272 1.399 . S
C273 H279 0.930 . S
H274 C254 0.931 . S
H275 C255 0.930 . S
H276 C263 0.931 . S
H277 C264 0.929 . S
H278 C272 0.929 . S
H279 C273 0.930 . S
Mn280 O285 2.095 1_554 S
Mn280 O295 2.162 . S
Mn280 O296 2.297 1_554 S
Mn280 O304 2.385 . S
Mn280 O305 2.209 1_554 S
Mn280 O306 2.094 . S
Mn281 O286 2.121 . S
Mn281 N288 2.257 . S
Mn281 N297 2.282 1_556 S
Mn281 O305 2.215 . S
Mn281 O307 2.117 1_556 S
C282 O304 1.234 . S
C282 O305 1.283 1_554 S
C283 O295 1.281 . S
C283 O296 1.236 1_554 S
C284 O306 1.240 . S
C284 O307 1.264 . S
O285 Mn280 2.095 1_556 S
O285 C294 1.250 . S
O286 Mn281 2.121 . S
O286 C294 1.258 . S
C287 N288 1.326 . S
C287 C291 1.460 . S
C287 H293 0.929 . S
N288 Mn281 2.257 . S
N288 C287 1.326 . S
N288 C292 1.362 . S
C289 C290 1.258 . S
C289 C292 1.431 . S
C289 C309 1.449 . S
C290 C289 1.258 . S
C290 C291 1.477 . S
C290 H310 0.931 . S
C291 C287 1.460 . S
C291 C290 1.477 . S
C291 H311 0.930 . S
C292 N288 1.362 . S
C292 C289 1.431 . S
C292 C302 1.476 . S
H293 C287 0.929 . S
C294 O285 1.250 . S
C294 O286 1.258 . S
O295 Mn280 2.162 . S
O295 C283 1.281 . S
O296 Mn280 2.297 1_556 S
O296 C283 1.236 1_556 S
N297 Mn281 2.282 1_554 S
N297 C298 1.328 . S
N297 C302 1.318 1_554 S
C298 N297 1.328 . S
C298 C299 1.457 . S
C298 H303 0.929 . S
C299 C298 1.457 . S
C299 C300 1.291 . S
C299 H312 0.931 . S
C300 C299 1.291 . S
C300 C301 1.373 1_554 S
C300 H313 0.929 . S
C301 C300 1.373 1_556 S
C301 C302 1.396 . S
C301 C308 1.403 . S
C302 C292 1.476 . S
C302 N297 1.318 1_556 S
C302 C301 1.396 . S
H303 C298 0.929 . S
O304 Mn280 2.385 . S
O304 C282 1.234 . S
O305 Mn280 2.209 1_556 S
O305 Mn281 2.215 . S
O305 C282 1.283 1_556 S
O306 Mn280 2.094 . S
O306 C284 1.240 . S
O307 Mn281 2.117 1_554 S
O307 C284 1.264 . S
C308 C301 1.403 . S
C308 C309 1.399 . S
C308 H314 0.929 . S
C309 C289 1.449 . S
C309 C308 1.399 . S
C309 H315 0.930 . S
H310 C290 0.931 . S
H311 C291 0.930 . S
H312 C299 0.931 . S
H313 C300 0.929 . S
H314 C308 0.929 . S
H315 C309 0.930 . S
Mn316 O321 2.095 . S
Mn316 O331 2.162 . S
Mn316 O332 2.297 . S
Mn316 O340 2.385 1_545 S
Mn316 O341 2.209 1_545 S
Mn316 O342 2.094 . S
Mn317 O322 2.121 . S
Mn317 N324 2.257 . S
Mn317 N333 2.282 . S
Mn317 O341 2.215 . S
Mn317 O343 2.117 . S
C318 O340 1.234 . S
C318 O341 1.283 . S
C319 O331 1.281 . S
C319 O332 1.236 . S
C320 O342 1.240 . S
C320 O343 1.264 1_545 S
O321 Mn316 2.095 . S
O321 C330 1.250 . S
O322 Mn317 2.121 . S
O322 C330 1.258 1_565 S
C323 N324 1.326 . S
C323 C327 1.460 . S
C323 H329 0.929 . S
N324 Mn317 2.257 . S
N324 C323 1.326 . S
N324 C328 1.362 . S
C325 C326 1.258 . S
C325 C328 1.431 . S
C325 C345 1.449 . S
C326 C325 1.258 . S
C326 C327 1.477 . S
C326 H346 0.931 . S
C327 C323 1.460 . S
C327 C326 1.477 . S
C327 H347 0.930 . S
C328 N324 1.362 . S
C328 C325 1.431 . S
C328 C338 1.476 . S
H329 C323 0.929 . S
C330 O321 1.250 . S
C330 O322 1.258 1_545 S
O331 Mn316 2.162 . S
O331 C319 1.281 . S
O332 Mn316 2.297 . S
O332 C319 1.236 . S
N333 Mn317 2.282 . S
N333 C334 1.328 . S
N333 C338 1.318 . S
C334 N333 1.328 . S
C334 C335 1.457 . S
C334 H339 0.929 . S
C335 C334 1.457 . S
C335 C336 1.291 . S
C335 H348 0.931 . S
C336 C335 1.291 . S
C336 C337 1.373 . S
C336 H349 0.929 . S
C337 C336 1.373 . S
C337 C338 1.396 . S
C337 C344 1.403 . S
C338 C328 1.476 . S
C338 N333 1.318 . S
C338 C337 1.396 . S
H339 C334 0.929 . S
O340 Mn316 2.385 1_565 S
O340 C318 1.234 . S
O341 Mn316 2.209 1_565 S
O341 Mn317 2.215 . S
O341 C318 1.283 . S
O342 Mn316 2.094 . S
O342 C320 1.240 . S
O343 Mn317 2.117 . S
O343 C320 1.264 1_565 S
C344 C337 1.403 . S
C344 C345 1.399 . S
C344 H350 0.929 . S
C345 C325 1.449 . S
C345 C344 1.399 . S
C345 H351 0.930 . S
H346 C326 0.931 . S
H347 C327 0.930 . S
H348 C335 0.931 . S
H349 C336 0.929 . S
H350 C344 0.929 . S
H351 C345 0.930 . S
Mn352 O357 2.095 . S
Mn352 O367 2.162 . S
Mn352 O368 2.297 . S
Mn352 O376 2.385 . S
Mn352 O377 2.209 . S
Mn352 O378 2.094 . S
Mn353 O358 2.121 . S
Mn353 N360 2.257 . S
Mn353 N369 2.282 . S
Mn353 O377 2.215 . S
Mn353 O379 2.117 . S
C354 O376 1.234 . S
C354 O377 1.283 . S
C355 O367 1.281 . S
C355 O368 1.236 . S
C356 O378 1.240 . S
C356 O379 1.264 . S
O357 Mn352 2.095 . S
O357 C366 1.250 . S
O358 Mn353 2.121 . S
O358 C366 1.258 . S
C359 N360 1.326 . S
C359 C363 1.460 . S
C359 H365 0.929 . S
N360 Mn353 2.257 . S
N360 C359 1.326 . S
N360 C364 1.362 . S
C361 C362 1.258 . S
C361 C364 1.431 . S
C361 C381 1.449 . S
C362 C361 1.258 . S
C362 C363 1.477 . S
C362 H382 0.931 . S
C363 C359 1.460 . S
C363 C362 1.477 . S
C363 H383 0.930 . S
C364 N360 1.362 . S
C364 C361 1.431 . S
C364 C374 1.476 . S
H365 C359 0.929 . S
C366 O357 1.250 . S
C366 O358 1.258 . S
O367 Mn352 2.162 . S
O367 C355 1.281 . S
O368 Mn352 2.297 . S
O368 C355 1.236 . S
N369 Mn353 2.282 . S
N369 C370 1.328 . S
N369 C374 1.318 . S
C370 N369 1.328 . S
C370 C371 1.457 . S
C370 H375 0.929 . S
C371 C370 1.457 . S
C371 C372 1.291 . S
C371 H384 0.931 . S
C372 C371 1.291 . S
C372 C373 1.373 . S
C372 H385 0.929 . S
C373 C372 1.373 . S
C373 C374 1.396 . S
C373 C380 1.403 . S
C374 C364 1.476 . S
C374 N369 1.318 . S
C374 C373 1.396 . S
H375 C370 0.929 . S
O376 Mn352 2.385 . S
O376 C354 1.234 . S
O377 Mn352 2.209 . S
O377 Mn353 2.215 . S
O377 C354 1.283 . S
O378 Mn352 2.094 . S
O378 C356 1.240 . S
O379 Mn353 2.117 . S
O379 C356 1.264 . S
C380 C373 1.403 . S
C380 C381 1.399 . S
C380 H386 0.929 . S
C381 C361 1.449 . S
C381 C380 1.399 . S
C381 H387 0.930 . S
H382 C362 0.931 . S
H383 C363 0.930 . S
H384 C371 0.931 . S
H385 C372 0.929 . S
H386 C380 0.929 . S
H387 C381 0.930 . S
Mn388 O393 2.095 . S
Mn388 O403 2.162 . S
Mn388 O404 2.297 . S
Mn388 O412 2.385 . S
Mn388 O413 2.209 . S
Mn388 O414 2.094 . S
Mn389 O394 2.121 . S
Mn389 N396 2.257 . S
Mn389 N405 2.282 . S
Mn389 O413 2.215 . S
Mn389 O415 2.117 . S
C390 O412 1.234 . S
C390 O413 1.283 . S
C391 O403 1.281 . S
C391 O404 1.236 . S
C392 O414 1.240 . S
C392 O415 1.264 . S
O393 Mn388 2.095 . S
O393 C402 1.250 . S
O394 Mn389 2.121 . S
O394 C402 1.258 . S
C395 N396 1.326 . S
C395 C399 1.460 . S
C395 H401 0.929 . S
N396 Mn389 2.257 . S
N396 C395 1.326 . S
N396 C400 1.362 . S
C397 C398 1.258 . S
C397 C400 1.431 . S
C397 C417 1.449 . S
C398 C397 1.258 . S
C398 C399 1.477 . S
C398 H418 0.931 . S
C399 C395 1.460 . S
C399 C398 1.477 . S
C399 H419 0.930 . S
C400 N396 1.362 . S
C400 C397 1.431 . S
C400 C410 1.476 . S
H401 C395 0.929 . S
C402 O393 1.250 . S
C402 O394 1.258 . S
O403 Mn388 2.162 . S
O403 C391 1.281 . S
O404 Mn388 2.297 . S
O404 C391 1.236 . S
N405 Mn389 2.282 . S
N405 C406 1.328 . S
N405 C410 1.318 . S
C406 N405 1.328 . S
C406 C407 1.457 . S
C406 H411 0.929 . S
C407 C406 1.457 . S
C407 C408 1.291 . S
C407 H420 0.931 . S
C408 C407 1.291 . S
C408 C409 1.373 . S
C408 H421 0.929 . S
C409 C408 1.373 . S
C409 C410 1.396 . S
C409 C416 1.403 . S
C410 C400 1.476 . S
C410 N405 1.318 . S
C410 C409 1.396 . S
H411 C406 0.929 . S
O412 Mn388 2.385 . S
O412 C390 1.234 . S
O413 Mn388 2.209 . S
O413 Mn389 2.215 . S
O413 C390 1.283 . S
O414 Mn388 2.094 . S
O414 C392 1.240 . S
O415 Mn389 2.117 . S
O415 C392 1.264 . S
C416 C409 1.403 . S
C416 C417 1.399 . S
C416 H422 0.929 . S
C417 C397 1.449 . S
C417 C416 1.399 . S
C417 H423 0.930 . S
H418 C398 0.931 . S
H419 C399 0.930 . S
H420 C407 0.931 . S
H421 C408 0.929 . S
H422 C416 0.929 . S
H423 C417 0.930 . S
Mn424 O429 2.095 . S
Mn424 O439 2.162 . S
Mn424 O440 2.297 . S
Mn424 O448 2.385 . S
Mn424 O449 2.209 . S
Mn424 O450 2.094 . S
Mn425 O430 2.121 . S
Mn425 N432 2.257 . S
Mn425 N441 2.282 . S
Mn425 O449 2.215 . S
Mn425 O451 2.117 . S
C426 O448 1.234 . S
C426 O449 1.283 . S
C427 O439 1.281 . S
C427 O440 1.236 . S
C428 O450 1.240 . S
C428 O451 1.264 . S
O429 Mn424 2.095 . S
O429 C438 1.250 . S
O430 Mn425 2.121 . S
O430 C438 1.258 . S
C431 N432 1.326 . S
C431 C435 1.460 . S
C431 H437 0.929 . S
N432 Mn425 2.257 . S
N432 C431 1.326 . S
N432 C436 1.362 . S
C433 C434 1.258 . S
C433 C436 1.431 . S
C433 C453 1.449 . S
C434 C433 1.258 . S
C434 C435 1.477 . S
C434 H454 0.931 . S
C435 C431 1.460 . S
C435 C434 1.477 . S
C435 H455 0.930 . S
C436 N432 1.362 . S
C436 C433 1.431 . S
C436 C446 1.476 . S
H437 C431 0.929 . S
C438 O429 1.250 . S
C438 O430 1.258 . S
O439 Mn424 2.162 . S
O439 C427 1.281 . S
O440 Mn424 2.297 . S
O440 C427 1.236 . S
N441 Mn425 2.282 . S
N441 C442 1.328 . S
N441 C446 1.318 . S
C442 N441 1.328 . S
C442 C443 1.457 . S
C442 H447 0.929 . S
C443 C442 1.457 . S
C443 C444 1.291 . S
C443 H456 0.931 . S
C444 C443 1.291 . S
C444 C445 1.373 . S
C444 H457 0.929 . S
C445 C444 1.373 . S
C445 C446 1.396 . S
C445 C452 1.403 . S
C446 C436 1.476 . S
C446 N441 1.318 . S
C446 C445 1.396 . S
H447 C442 0.929 . S
O448 Mn424 2.385 . S
O448 C426 1.234 . S
O449 Mn424 2.209 . S
O449 Mn425 2.215 . S
O449 C426 1.283 . S
O450 Mn424 2.094 . S
O450 C428 1.240 . S
O451 Mn425 2.117 . S
O451 C428 1.264 . S
C452 C445 1.403 . S
C452 C453 1.399 . S
C452 H458 0.929 . S
C453 C433 1.449 . S
C453 C452 1.399 . S
C453 H459 0.930 . S
H454 C434 0.931 . S
H455 C435 0.930 . S
H456 C443 0.931 . S
H457 C444 0.929 . S
H458 C452 0.929 . S
H459 C453 0.930 . S
Mn460 O465 2.095 . S
Mn460 O475 2.162 1_545 S
Mn460 O476 2.298 . S
Mn460 O484 2.385 . S
Mn460 O485 2.209 . S
Mn460 O486 2.094 1_545 S
Mn461 O466 2.121 . S
Mn461 N468 2.257 . S
Mn461 N477 2.282 . S
Mn461 O485 2.215 . S
Mn461 O487 2.117 . S
C462 O484 1.234 . S
C462 O485 1.283 . S
C463 O475 1.281 . S
C463 O476 1.232 1_565 S
C464 O486 1.240 1_545 S
C464 O487 1.264 . S
O465 Mn460 2.095 . S
O465 C474 1.250 . S
O466 Mn461 2.121 . S
O466 C474 1.258 . S
C467 N468 1.326 . S
C467 C471 1.460 . S
C467 H473 0.929 . S
N468 Mn461 2.257 . S
N468 C467 1.326 . S
N468 C472 1.362 . S
C469 C470 1.258 . S
C469 C472 1.431 . S
C469 C489 1.449 . S
C470 C469 1.258 . S
C470 C471 1.477 . S
C470 H490 0.931 . S
C471 C467 1.460 . S
C471 C470 1.477 . S
C471 H491 0.930 . S
C472 N468 1.362 . S
C472 C469 1.431 . S
C472 C482 1.476 . S
H473 C467 0.929 . S
C474 O465 1.250 . S
C474 O466 1.258 . S
O475 Mn460 2.162 1_565 S
O475 C463 1.281 . S
O476 Mn460 2.298 . S
O476 C463 1.232 1_545 S
N477 Mn461 2.282 . S
N477 C478 1.328 . S
N477 C482 1.318 . S
C478 N477 1.328 . S
C478 C479 1.457 . S
C478 H483 0.929 . S
C479 C478 1.457 . S
C479 C480 1.291 . S
C479 H492 0.931 . S
C480 C479 1.291 . S
C480 C481 1.373 . S
C480 H493 0.929 . S
C481 C480 1.373 . S
C481 C482 1.396 . S
C481 C488 1.403 . S
C482 C472 1.476 . S
C482 N477 1.318 . S
C482 C481 1.396 . S
H483 C478 0.929 . S
O484 Mn460 2.385 . S
O484 C462 1.234 . S
O485 Mn460 2.209 . S
O485 Mn461 2.215 . S
O485 C462 1.283 . S
O486 Mn460 2.094 1_565 S
O486 C464 1.240 1_565 S
O487 Mn461 2.117 . S
O487 C464 1.264 . S
C488 C481 1.403 . S
C488 C489 1.399 . S
C488 H494 0.929 . S
C489 C469 1.449 . S
C489 C488 1.399 . S
C489 H495 0.930 . S
H490 C470 0.931 . S
H491 C471 0.930 . S
H492 C479 0.931 . S
H493 C480 0.929 . S
H494 C488 0.929 . S
H495 C489 0.930 . S
Mn496 O501 2.095 . S
Mn496 O511 2.162 . S
Mn496 O512 2.297 . S
Mn496 O520 2.385 1_455 S
Mn496 O521 2.209 1_455 S
Mn496 O522 2.094 . S
Mn497 O502 2.121 . S
Mn497 N504 2.257 . S
Mn497 N513 2.282 . S
Mn497 O521 2.215 . S
Mn497 O523 2.117 . S
C498 O520 1.234 . S
C498 O521 1.283 . S
C499 O511 1.281 . S
C499 O512 1.236 . S
C500 O522 1.236 1_655 S
C500 O523 1.269 . S
O501 Mn496 2.095 . S
O501 C510 1.250 1_455 S
O502 Mn497 2.121 . S
O502 C510 1.258 . S
C503 N504 1.326 . S
C503 C507 1.460 . S
C503 H509 0.929 . S
N504 Mn497 2.257 . S
N504 C503 1.326 . S
N504 C508 1.362 . S
C505 C506 1.258 . S
C505 C508 1.431 . S
C505 C525 1.449 . S
C506 C505 1.258 . S
C506 C507 1.477 . S
C506 H526 0.931 . S
C507 C503 1.460 . S
C507 C506 1.477 . S
C507 H527 0.930 . S
C508 N504 1.362 . S
C508 C505 1.431 . S
C508 C518 1.476 . S
H509 C503 0.929 . S
C510 O501 1.250 1_655 S
C510 O502 1.258 . S
O511 Mn496 2.162 . S
O511 C499 1.281 . S
O512 Mn496 2.297 . S
O512 C499 1.236 . S
N513 Mn497 2.282 . S
N513 C514 1.328 . S
N513 C518 1.318 . S
C514 N513 1.328 . S
C514 C515 1.457 . S
C514 H519 0.929 . S
C515 C514 1.457 . S
C515 C516 1.291 . S
C515 H528 0.931 . S
C516 C515 1.291 . S
C516 C517 1.373 . S
C516 H529 0.929 . S
C517 C516 1.373 . S
C517 C518 1.396 . S
C517 C524 1.403 . S
C518 C508 1.476 . S
C518 N513 1.318 . S
C518 C517 1.396 . S
H519 C514 0.929 . S
O520 Mn496 2.385 1_655 S
O520 C498 1.234 . S
O521 Mn496 2.209 1_655 S
O521 Mn497 2.215 . S
O521 C498 1.283 . S
O522 Mn496 2.094 . S
O522 C500 1.236 1_455 S
O523 Mn497 2.117 . S
O523 C500 1.269 . S
C524 C517 1.403 . S
C524 C525 1.399 . S
C524 H530 0.929 . S
C525 C505 1.449 . S
C525 C524 1.399 . S
C525 H531 0.930 . S
H526 C506 0.931 . S
H527 C507 0.930 . S
H528 C515 0.931 . S
H529 C516 0.929 . S
H530 C524 0.929 . S
H531 C525 0.930 . S
Mn532 O537 2.095 . S
Mn532 O547 2.162 . S
Mn532 O548 2.297 . S
Mn532 O556 2.385 . S
Mn532 O557 2.209 . S
Mn532 O558 2.094 . S
Mn533 O538 2.121 . S
Mn533 N540 2.257 . S
Mn533 N549 2.282 . S
Mn533 O557 2.215 . S
Mn533 O559 2.117 . S
C534 O556 1.234 . S
C534 O557 1.283 . S
C535 O547 1.281 . S
C535 O548 1.236 . S
C536 O558 1.240 . S
C536 O559 1.264 . S
O537 Mn532 2.095 . S
O537 C546 1.250 . S
O538 Mn533 2.121 . S
O538 C546 1.258 . S
C539 N540 1.326 . S
C539 C543 1.460 . S
C539 H545 0.929 . S
N540 Mn533 2.257 . S
N540 C539 1.326 . S
N540 C544 1.362 . S
C541 C542 1.258 . S
C541 C544 1.431 . S
C541 C561 1.449 . S
C542 C541 1.258 . S
C542 C543 1.477 . S
C542 H562 0.931 . S
C543 C539 1.460 . S
C543 C542 1.477 . S
C543 H563 0.930 . S
C544 N540 1.362 . S
C544 C541 1.431 . S
C544 C554 1.476 . S
H545 C539 0.929 . S
C546 O537 1.250 . S
C546 O538 1.258 . S
O547 Mn532 2.162 . S
O547 C535 1.281 . S
O548 Mn532 2.297 . S
O548 C535 1.236 . S
N549 Mn533 2.282 . S
N549 C550 1.328 . S
N549 C554 1.318 . S
C550 N549 1.328 . S
C550 C551 1.457 . S
C550 H555 0.929 . S
C551 C550 1.457 . S
C551 C552 1.291 . S
C551 H564 0.931 . S
C552 C551 1.291 . S
C552 C553 1.373 . S
C552 H565 0.929 . S
C553 C552 1.373 . S
C553 C554 1.396 . S
C553 C560 1.403 . S
C554 C544 1.476 . S
C554 N549 1.318 . S
C554 C553 1.396 . S
H555 C550 0.929 . S
O556 Mn532 2.385 . S
O556 C534 1.234 . S
O557 Mn532 2.209 . S
O557 Mn533 2.215 . S
O557 C534 1.283 . S
O558 Mn532 2.094 . S
O558 C536 1.240 . S
O559 Mn533 2.117 . S
O559 C536 1.264 . S
C560 C553 1.403 . S
C560 C561 1.399 . S
C560 H566 0.929 . S
C561 C541 1.449 . S
C561 C560 1.399 . S
C561 H567 0.930 . S
H562 C542 0.931 . S
H563 C543 0.930 . S
H564 C551 0.931 . S
H565 C552 0.929 . S
H566 C560 0.929 . S
H567 C561 0.930 . S
Mn568 O573 2.095 . S
Mn568 O583 2.162 . S
Mn568 O584 2.297 . S
Mn568 O592 2.385 . S
Mn568 O593 2.209 1_455 S
Mn568 O594 2.094 . S
Mn569 O574 2.121 . S
Mn569 N576 2.257 . S
Mn569 N585 2.282 1_655 S
Mn569 O593 2.215 . S
Mn569 O595 2.117 1_655 S
C570 O592 1.234 . S
C570 O593 1.283 1_455 S
C571 O583 1.281 . S
C571 O584 1.236 . S
C572 O594 1.240 . S
C572 O595 1.264 . S
O573 Mn568 2.095 . S
O573 C582 1.250 1_455 S
O574 Mn569 2.121 . S
O574 C582 1.258 . S
C575 N576 1.326 . S
C575 C579 1.460 . S
C575 H581 0.929 . S
N576 Mn569 2.257 . S
N576 C575 1.326 . S
N576 C580 1.362 . S
C577 C578 1.258 . S
C577 C580 1.431 . S
C577 C597 1.449 . S
C578 C577 1.258 . S
C578 C579 1.477 . S
C578 H598 0.931 . S
C579 C575 1.460 . S
C579 C578 1.477 . S
C579 H599 0.930 . S
C580 N576 1.362 . S
C580 C577 1.431 . S
C580 C590 1.476 . S
H581 C575 0.929 . S
C582 O573 1.250 1_655 S
C582 O574 1.258 . S
O583 Mn568 2.162 . S
O583 C571 1.281 . S
O584 Mn568 2.297 . S
O584 C571 1.236 . S
N585 Mn569 2.282 1_455 S
N585 C586 1.328 . S
N585 C590 1.318 1_455 S
C586 N585 1.328 . S
C586 C587 1.457 . S
C586 H591 0.929 . S
C587 C586 1.457 . S
C587 C588 1.291 . S
C587 H600 0.931 . S
C588 C587 1.291 . S
C588 C589 1.373 1_455 S
C588 H601 0.929 . S
C589 C588 1.373 1_655 S
C589 C590 1.396 . S
C589 C596 1.403 . S
C590 C580 1.476 . S
C590 N585 1.318 1_655 S
C590 C589 1.396 . S
H591 C586 0.929 . S
O592 Mn568 2.385 . S
O592 C570 1.234 . S
O593 Mn568 2.209 1_655 S
O593 Mn569 2.215 . S
O593 C570 1.283 1_655 S
O594 Mn568 2.094 . S
O594 C572 1.240 . S
O595 Mn569 2.117 1_455 S
O595 C572 1.264 . S
C596 C589 1.403 . S
C596 C597 1.399 . S
C596 H602 0.929 . S
C597 C577 1.449 . S
C597 C596 1.399 . S
C597 H603 0.930 . S
H598 C578 0.931 . S
H599 C579 0.930 . S
H600 C587 0.931 . S
H601 C588 0.929 . S
H602 C596 0.929 . S
H603 C597 0.930 . S
Mn604 O609 2.095 . S
Mn604 O619 2.162 . S
Mn604 O620 2.297 . S
Mn604 O628 2.385 . S
Mn604 O629 2.209 . S
Mn604 O630 2.094 . S
Mn605 O610 2.121 . S
Mn605 N612 2.257 . S
Mn605 N621 2.282 . S
Mn605 O629 2.215 . S
Mn605 O631 2.117 . S
C606 O628 1.234 . S
C606 O629 1.283 . S
C607 O619 1.281 . S
C607 O620 1.236 . S
C608 O630 1.240 . S
C608 O631 1.264 . S
O609 Mn604 2.095 . S
O609 C618 1.250 . S
O610 Mn605 2.121 . S
O610 C618 1.258 . S
C611 N612 1.326 . S
C611 C615 1.460 . S
C611 H617 0.929 . S
N612 Mn605 2.257 . S
N612 C611 1.326 . S
N612 C616 1.362 . S
C613 C614 1.258 . S
C613 C616 1.431 . S
C613 C633 1.449 . S
C614 C613 1.258 . S
C614 C615 1.477 . S
C614 H634 0.931 . S
C615 C611 1.460 . S
C615 C614 1.477 . S
C615 H635 0.930 . S
C616 N612 1.362 . S
C616 C613 1.431 . S
C616 C626 1.476 . S
H617 C611 0.929 . S
C618 O609 1.250 . S
C618 O610 1.258 . S
O619 Mn604 2.162 . S
O619 C607 1.281 . S
O620 Mn604 2.297 . S
O620 C607 1.236 . S
N621 Mn605 2.282 . S
N621 C622 1.328 . S
N621 C626 1.318 . S
C622 N621 1.328 . S
C622 C623 1.457 . S
C622 H627 0.929 . S
C623 C622 1.457 . S
C623 C624 1.291 . S
C623 H636 0.931 . S
C624 C623 1.291 . S
C624 C625 1.373 . S
C624 H637 0.929 . S
C625 C624 1.373 . S
C625 C626 1.396 . S
C625 C632 1.403 . S
C626 C616 1.476 . S
C626 N621 1.318 . S
C626 C625 1.396 . S
H627 C622 0.929 . S
O628 Mn604 2.385 . S
O628 C606 1.234 . S
O629 Mn604 2.209 . S
O629 Mn605 2.215 . S
O629 C606 1.283 . S
O630 Mn604 2.094 . S
O630 C608 1.240 . S
O631 Mn605 2.117 . S
O631 C608 1.264 . S
C632 C625 1.403 . S
C632 C633 1.399 . S
C632 H638 0.929 . S
C633 C613 1.449 . S
C633 C632 1.399 . S
C633 H639 0.930 . S
H634 C614 0.931 . S
H635 C615 0.930 . S
H636 C623 0.931 . S
H637 C624 0.929 . S
H638 C632 0.929 . S
H639 C633 0.930 . S
C640 C641 1.363 . S
C640 C646 1.379 . S
C640 N648 1.356 . S
C641 C640 1.363 . S
C641 C647 1.363 . S
C642 C643 1.363 . S
C642 C647 1.379 . S
C642 N649 1.356 . S
C643 C642 1.363 . S
C643 C646 1.363 . S
N644 C646 1.356 . S
N644 H656 0.987 . S
N644 H657 0.985 . S
N645 C647 1.356 . S
N645 H650 0.984 . S
N645 H651 0.985 . S
C646 C640 1.379 . S
C646 C643 1.363 . S
C646 N644 1.356 . S
C647 C641 1.363 . S
C647 C642 1.379 . S
C647 N645 1.356 . S
N648 C640 1.356 . S
N648 H654 0.984 . S
N648 H655 0.984 . S
N649 C642 1.356 . S
N649 H652 0.984 . S
N649 H653 0.985 . S
H650 N645 0.984 . S
H651 N645 0.985 . S
H652 N649 0.984 . S
H653 N649 0.985 . S
H654 N648 0.984 . S
H655 N648 0.984 . S
H656 N644 0.987 . S
H657 N644 0.985 . S
C658 C659 1.363 . S
C658 C664 1.379 . S
C658 N666 1.356 . S
C659 C658 1.363 . S
C659 C665 1.363 . S
C660 C661 1.363 . S
C660 C665 1.379 . S
C660 N667 1.356 . S
C661 C660 1.363 . S
C661 C664 1.363 . S
N662 C664 1.356 . S
N662 H674 0.984 . S
N662 H675 0.985 . S
N663 C665 1.356 . S
N663 H668 0.984 1_455 S
N663 H669 0.985 . S
C664 C658 1.379 . S
C664 C661 1.363 . S
C664 N662 1.356 . S
C665 C659 1.363 . S
C665 C660 1.379 . S
C665 N663 1.356 . S
N666 C658 1.356 . S
N666 H672 0.984 . S
N666 H673 0.984 1_455 S
N667 C660 1.356 . S
N667 H670 0.984 . S
N667 H671 0.985 . S
H668 N663 0.984 1_655 S
H669 N663 0.985 . S
H670 N667 0.984 . S
H671 N667 0.985 . S
H672 N666 0.984 . S
H673 N666 0.984 1_655 S
H674 N662 0.984 . S
H675 N662 0.985 . S
C676 C677 1.363 . S
C676 C682 1.379 . S
C676 N684 1.356 . S
C677 C676 1.363 . S
C677 C683 1.363 . S
C678 C679 1.363 . S
C678 C683 1.379 . S
C678 N685 1.356 . S
C679 C678 1.363 . S
C679 C682 1.363 . S
N680 C682 1.356 . S
N680 H692 0.984 . S
N680 H693 0.985 . S
N681 C683 1.356 . S
N681 H686 0.984 . S
N681 H687 0.985 . S
C682 C676 1.379 . S
C682 C679 1.363 . S
C682 N680 1.356 . S
C683 C677 1.363 . S
C683 C678 1.379 . S
C683 N681 1.356 . S
N684 C676 1.356 . S
N684 H690 0.984 . S
N684 H691 0.984 . S
N685 C678 1.356 . S
N685 H688 0.984 . S
N685 H689 0.985 . S
H686 N681 0.984 . S
H687 N681 0.985 . S
H688 N685 0.984 . S
H689 N685 0.985 . S
H690 N684 0.984 . S
H691 N684 0.984 . S
H692 N680 0.984 . S
H693 N680 0.985 . S
C694 C695 1.367 . S
C694 C700 1.379 . S
C694 N702 1.356 1_655 S
C695 C694 1.367 . S
C695 C701 1.353 1_565 S
C696 C697 1.363 . S
C696 C701 1.379 . S
C696 N703 1.356 . S
C697 C696 1.363 . S
C697 C700 1.363 1_545 S
N698 C700 1.356 . S
N698 H710 0.984 . S
N698 H711 0.985 . S
N699 C701 1.356 . S
N699 H704 0.984 . S
N699 H705 0.985 . S
C700 C694 1.379 . S
C700 C697 1.363 1_565 S
C700 N698 1.356 . S
C701 C695 1.353 1_545 S
C701 C696 1.379 . S
C701 N699 1.356 . S
N702 C694 1.356 1_455 S
N702 H708 0.984 . S
N702 H709 0.984 . S
N703 C696 1.356 . S
N703 H706 0.984 . S
N703 H707 0.985 . S
H704 N699 0.984 . S
H705 N699 0.985 . S
H706 N703 0.984 . S
H707 N703 0.985 . S
H708 N702 0.984 . S
H709 N702 0.984 . S
H710 N698 0.984 . S
H711 N698 0.985 . S
C712 C713 1.363 . S
C712 C718 1.379 . S
C712 N720 1.356 . S
C713 C712 1.363 . S
C713 C719 1.363 . S
C714 C715 1.363 . S
C714 C719 1.379 . S
C714 N721 1.356 . S
C715 C714 1.363 . S
C715 C718 1.363 . S
N716 C718 1.356 . S
N716 H728 0.984 . S
N716 H729 0.985 . S
N717 C719 1.356 . S
N717 H722 0.984 . S
N717 H723 0.985 . S
C718 C712 1.379 . S
C718 C715 1.363 . S
C718 N716 1.356 . S
C719 C713 1.363 . S
C719 C714 1.379 . S
C719 N717 1.356 . S
N720 C712 1.356 . S
N720 H726 0.984 . S
N720 H727 0.984 . S
N721 C714 1.356 . S
N721 H724 0.984 . S
N721 H725 0.985 . S
H722 N717 0.984 . S
H723 N717 0.985 . S
H724 N721 0.984 . S
H725 N721 0.985 . S
H726 N720 0.984 . S
H727 N720 0.984 . S
H728 N716 0.984 . S
H729 N716 0.985 . S
C730 C731 1.363 . S
C730 C736 1.379 . S
C730 N738 1.356 . S
C731 C730 1.363 . S
C731 C737 1.363 . S
C732 C733 1.363 . S
C732 C737 1.379 . S
C732 N739 1.356 . S
C733 C732 1.363 . S
C733 C736 1.363 . S
N734 C736 1.356 . S
N734 H746 0.984 . S
N734 H747 0.985 . S
N735 C737 1.356 . S
N735 H740 0.984 . S
N735 H741 0.985 . S
C736 C730 1.379 . S
C736 C733 1.363 . S
C736 N734 1.356 . S
C737 C731 1.363 . S
C737 C732 1.379 . S
C737 N735 1.356 . S
N738 C730 1.356 . S
N738 H744 0.984 . S
N738 H745 0.984 . S
N739 C732 1.356 . S
N739 H742 0.984 . S
N739 H743 0.985 . S
H740 N735 0.984 . S
H741 N735 0.985 . S
H742 N739 0.984 . S
H743 N739 0.985 . S
H744 N738 0.984 . S
H745 N738 0.984 . S
H746 N734 0.984 . S
H747 N734 0.985 . S
C748 C749 1.363 . S
C748 C754 1.379 . S
C748 N756 1.356 . S
C749 C748 1.363 . S
C749 C755 1.363 . S
C750 C751 1.363 . S
C750 C755 1.379 . S
C750 N757 1.356 . S
C751 C750 1.363 . S
C751 C754 1.363 . S
N752 C754 1.356 . S
N752 H764 0.984 . S
N752 H765 0.985 . S
N753 C755 1.356 . S
N753 H758 0.984 . S
N753 H759 0.985 . S
C754 C748 1.379 . S
C754 C751 1.363 . S
C754 N752 1.356 . S
C755 C749 1.363 . S
C755 C750 1.379 . S
C755 N753 1.356 . S
N756 C748 1.356 . S
N756 H762 0.984 . S
N756 H763 0.984 . S
N757 C750 1.356 . S
N757 H760 0.984 . S
N757 H761 0.985 . S
H758 N753 0.984 . S
H759 N753 0.985 . S
H760 N757 0.984 . S
H761 N757 0.985 . S
H762 N756 0.984 . S
H763 N756 0.984 . S
H764 N752 0.984 . S
H765 N752 0.985 . S
C766 C767 1.363 1_545 S
C766 C772 1.379 . S
C766 N774 1.356 . S
C767 C766 1.363 1_565 S
C767 C773 1.363 . S
C768 C769 1.363 . S
C768 C773 1.379 . S
C768 N775 1.356 . S
C769 C768 1.363 . S
C769 C772 1.363 1_565 S
N770 C772 1.356 . S
N770 H782 0.984 . S
N770 H783 0.985 . S
N771 C773 1.356 . S
N771 H776 0.984 . S
N771 H777 0.985 . S
C772 C766 1.379 . S
C772 C769 1.363 1_545 S
C772 N770 1.356 . S
C773 C767 1.363 . S
C773 C768 1.379 . S
C773 N771 1.356 . S
N774 C766 1.356 . S
N774 H780 0.984 . S
N774 H781 0.984 . S
N775 C768 1.356 . S
N775 H778 0.984 . S
N775 H779 0.985 . S
H776 N771 0.984 . S
H777 N771 0.985 . S
H778 N775 0.984 . S
H779 N775 0.985 . S
H780 N774 0.984 . S
H781 N774 0.984 . S
H782 N770 0.984 . S
H783 N770 0.985 . S
C784 C785 1.363 . S
C784 C790 1.379 . S
C784 N792 1.356 . S
C785 C784 1.363 . S
C785 C791 1.363 . S
C786 C787 1.363 . S
C786 C791 1.379 . S
C786 N793 1.356 . S
C787 C786 1.363 . S
C787 C790 1.363 . S
N788 C790 1.356 . S
N788 H800 0.984 . S
N788 H801 0.985 . S
N789 C791 1.356 . S
N789 H794 0.984 . S
N789 H795 0.985 . S
C790 C784 1.379 . S
C790 C787 1.363 . S
C790 N788 1.356 . S
C791 C785 1.363 . S
C791 C786 1.379 . S
C791 N789 1.356 . S
N792 C784 1.356 . S
N792 H798 0.984 . S
N792 H799 0.984 . S
N793 C786 1.356 . S
N793 H796 0.984 . S
N793 H797 0.985 . S
H794 N789 0.984 . S
H795 N789 0.985 . S
H796 N793 0.984 . S
H797 N793 0.985 . S
H798 N792 0.984 . S
H799 N792 0.984 . S
H800 N788 0.984 . S
H801 N788 0.985 . S
C802 C803 1.363 . S
C802 C808 1.379 . S
C802 N810 1.356 . S
C803 C802 1.363 . S
C803 C809 1.363 . S
C804 C805 1.363 . S
C804 C809 1.379 . S
C804 N811 1.356 . S
C805 C804 1.363 . S
C805 C808 1.363 . S
N806 C808 1.356 . S
N806 H818 0.984 . S
N806 H819 0.985 . S
N807 C809 1.356 . S
N807 H812 0.984 . S
N807 H813 0.985 . S
C808 C802 1.379 . S
C808 C805 1.363 . S
C808 N806 1.356 . S
C809 C803 1.363 . S
C809 C804 1.379 . S
C809 N807 1.356 . S
N810 C802 1.356 . S
N810 H816 0.984 . S
N810 H817 0.984 . S
N811 C804 1.356 . S
N811 H814 0.984 . S
N811 H815 0.985 . S
H812 N807 0.984 . S
H813 N807 0.985 . S
H814 N811 0.984 . S
H815 N811 0.985 . S
H816 N810 0.984 . S
H817 N810 0.984 . S
H818 N806 0.984 . S
H819 N806 0.985 . S
C820 C821 1.363 . S
C820 C826 1.379 . S
C820 N828 1.356 . S
C821 C820 1.363 . S
C821 C827 1.363 . S
C822 C823 1.363 . S
C822 C827 1.379 . S
C822 N829 1.356 . S
C823 C822 1.363 . S
C823 C826 1.363 . S
N824 C826 1.356 . S
N824 H836 0.984 . S
N824 H837 0.985 . S
N825 C827 1.356 . S
N825 H830 0.984 . S
N825 H831 0.985 . S
C826 C820 1.379 . S
C826 C823 1.363 . S
C826 N824 1.356 . S
C827 C821 1.363 . S
C827 C822 1.379 . S
C827 N825 1.356 . S
N828 C820 1.356 . S
N828 H834 0.984 . S
N828 H835 0.984 . S
N829 C822 1.356 . S
N829 H832 0.984 . S
N829 H833 0.985 . S
H830 N825 0.984 . S
H831 N825 0.985 . S
H832 N829 0.984 . S
H833 N829 0.985 . S
H834 N828 0.984 . S
H835 N828 0.984 . S
H836 N824 0.984 . S
H837 N824 0.985 . S
C838 C839 1.363 . S
C838 C844 1.379 . S
C838 N846 1.356 . S
C839 C838 1.363 . S
C839 C845 1.363 . S
C840 C841 1.363 . S
C840 C845 1.379 . S
C840 N847 1.356 . S
C841 C840 1.363 . S
C841 C844 1.363 . S
N842 C844 1.356 . S
N842 H854 0.984 . S
N842 H855 0.985 . S
N843 C845 1.356 . S
N843 H848 0.984 . S
N843 H849 0.985 . S
C844 C838 1.379 . S
C844 C841 1.363 . S
C844 N842 1.356 . S
C845 C839 1.363 . S
C845 C840 1.379 . S
C845 N843 1.356 . S
N846 C838 1.356 . S
N846 H852 0.984 . S
N846 H853 0.984 . S
N847 C840 1.356 . S
N847 H850 0.984 . S
N847 H851 0.985 . S
H848 N843 0.984 . S
H849 N843 0.985 . S
H850 N847 0.984 . S
H851 N847 0.985 . S
H852 N846 0.984 . S
H853 N846 0.984 . S
H854 N842 0.984 . S
H855 N842 0.985 . S
C856 C857 1.363 . S
C856 C862 1.379 . S
C856 N864 1.356 . S
C857 C856 1.363 . S
C857 C863 1.363 . S
C858 C859 1.363 . S
C858 C863 1.379 . S
C858 N865 1.356 . S
C859 C858 1.363 . S
C859 C862 1.363 . S
N860 C862 1.356 . S
N860 H872 0.984 . S
N860 H873 0.985 . S
N861 C863 1.356 . S
N861 H866 0.984 . S
N861 H867 0.985 . S
C862 C856 1.379 . S
C862 C859 1.363 . S
C862 N860 1.356 . S
C863 C857 1.363 . S
C863 C858 1.379 . S
C863 N861 1.356 . S
N864 C856 1.356 . S
N864 H870 0.984 . S
N864 H871 0.984 . S
N865 C858 1.356 . S
N865 H868 0.984 . S
N865 H869 0.985 . S
H866 N861 0.984 . S
H867 N861 0.985 . S
H868 N865 0.984 . S
H869 N865 0.985 . S
H870 N864 0.984 . S
H871 N864 0.984 . S
H872 N860 0.984 . S
H873 N860 0.985 . S
C874 C875 1.363 . S
C874 C880 1.379 . S
C874 N882 1.356 . S
C875 C874 1.363 . S
C875 C881 1.363 . S
C876 C877 1.363 . S
C876 C881 1.379 . S
C876 N883 1.356 1_455 S
C877 C876 1.363 . S
C877 C880 1.363 . S
N878 C880 1.356 . S
N878 H890 0.984 . S
N878 H891 0.985 . S
N879 C881 1.356 . S
N879 H884 0.984 . S
N879 H885 0.985 1_455 S
C880 C874 1.379 . S
C880 C877 1.363 . S
C880 N878 1.356 . S
C881 C875 1.363 . S
C881 C876 1.379 . S
C881 N879 1.356 . S
N882 C874 1.356 . S
N882 H888 0.984 . S
N882 H889 0.984 . S
N883 C876 1.356 1_655 S
N883 H886 0.984 1_655 S
N883 H887 0.985 . S
H884 N879 0.984 . S
H885 N879 0.985 1_655 S
H886 N883 0.984 1_455 S
H887 N883 0.985 . S
H888 N882 0.984 . S
H889 N882 0.984 . S
H890 N878 0.984 . S
H891 N878 0.985 . S
C892 C893 1.363 . S
C892 C898 1.379 . S
C892 N900 1.356 . S
C893 C892 1.363 . S
C893 C899 1.363 . S
C894 C895 1.363 . S
C894 C899 1.379 . S
C894 N901 1.356 . S
C895 C894 1.363 . S
C895 C898 1.363 . S
N896 C898 1.356 . S
N896 H908 0.984 . S
N896 H909 0.985 . S
N897 C899 1.356 . S
N897 H902 0.984 . S
N897 H903 0.985 . S
C898 C892 1.379 . S
C898 C895 1.363 . S
C898 N896 1.356 . S
C899 C893 1.363 . S
C899 C894 1.379 . S
C899 N897 1.356 . S
N900 C892 1.356 . S
N900 H906 0.984 . S
N900 H907 0.984 . S
N901 C894 1.356 . S
N901 H904 0.984 . S
N901 H905 0.985 . S
H902 N897 0.984 . S
H903 N897 0.985 . S
H904 N901 0.984 . S
H905 N901 0.985 . S
H906 N900 0.984 . S
H907 N900 0.984 . S
H908 N896 0.984 . S
H909 N896 0.985 . S
C910 C911 1.363 . S
C910 C916 1.379 . S
C910 N918 1.356 . S
C911 C910 1.363 . S
C911 C917 1.363 1_655 S
C912 C913 1.363 . S
C912 C917 1.379 . S
C912 N919 1.356 . S
C913 C912 1.363 . S
C913 C916 1.363 1_455 S
N914 C916 1.356 . S
N914 H926 0.984 . S
N914 H927 0.985 . S
N915 C917 1.356 . S
N915 H920 0.984 . S
N915 H921 0.985 . S
C916 C910 1.379 . S
C916 C913 1.363 1_655 S
C916 N914 1.356 . S
C917 C911 1.363 1_455 S
C917 C912 1.379 . S
C917 N915 1.356 . S
N918 C910 1.356 . S
N918 H924 0.984 . S
N918 H925 0.984 . S
N919 C912 1.356 . S
N919 H922 0.984 . S
N919 H923 0.985 . S
H920 N915 0.984 . S
H921 N915 0.985 . S
H922 N919 0.984 . S
H923 N919 0.985 . S
H924 N918 0.984 . S
H925 N918 0.984 . S
H926 N914 0.984 . S
H927 N914 0.985 . S
C928 C929 1.363 . S
C928 C934 1.379 . S
C928 N936 1.356 . S
C929 C928 1.363 . S
C929 C935 1.363 . S
C930 C931 1.363 . S
C930 C935 1.379 . S
C930 N937 1.356 . S
C931 C930 1.363 . S
C931 C934 1.363 . S
N932 C934 1.356 . S
N932 H944 0.984 . S
N932 H945 0.985 . S
N933 C935 1.356 . S
N933 H938 0.984 . S
N933 H939 0.985 . S
C934 C928 1.379 . S
C934 C931 1.363 . S
C934 N932 1.356 . S
C935 C929 1.363 . S
C935 C930 1.379 . S
C935 N933 1.356 . S
N936 C928 1.356 . S
N936 H942 0.984 . S
N936 H943 0.984 . S
N937 C930 1.356 . S
N937 H940 0.984 . S
N937 H941 0.985 . S
H938 N933 0.984 . S
H939 N933 0.985 . S
H940 N937 0.984 . S
H941 N937 0.985 . S
H942 N936 0.984 . S
H943 N936 0.984 . S
H944 N932 0.984 . S
H945 N932 0.985 . S
C946 C947 1.363 . S
C946 C952 1.379 . S
C946 N954 1.356 . S
C947 C946 1.363 . S
C947 C953 1.363 . S
C948 C949 1.363 . S
C948 C953 1.379 . S
C948 N955 1.356 . S
C949 C948 1.363 . S
C949 C952 1.363 . S
N950 C952 1.356 . S
N950 H962 0.984 . S
N950 H963 0.985 . S
N951 C953 1.356 . S
N951 H956 0.984 . S
N951 H957 0.985 . S
C952 C946 1.379 . S
C952 C949 1.363 . S
C952 N950 1.356 . S
C953 C947 1.363 . S
C953 C948 1.379 . S
C953 N951 1.356 . S
N954 C946 1.356 . S
N954 H960 0.984 . S
N954 H961 0.984 . S
N955 C948 1.356 . S
N955 H958 0.984 . S
N955 H959 0.985 . S
H956 N951 0.984 . S
H957 N951 0.985 . S
H958 N955 0.984 . S
H959 N955 0.985 . S
H960 N954 0.984 . S
H961 N954 0.984 . S
H962 N950 0.984 . S
H963 N950 0.985 . S
C964 C965 1.363 . S
C964 C970 1.379 . S
C964 N972 1.356 1_565 S
C965 C964 1.363 . S
C965 C971 1.363 1_556 S
C966 C967 1.363 . S
C966 C971 1.379 . S
C966 N973 1.356 . S
C967 C966 1.363 . S
C967 C970 1.363 1_554 S
N968 C970 1.356 . S
N968 H980 0.984 . S
N968 H981 0.985 . S
N969 C971 1.350 1_545 S
N969 H974 0.999 . S
N969 H975 0.977 1_545 S
C970 C964 1.379 . S
C970 C967 1.363 1_556 S
C970 N968 1.356 . S
C971 C965 1.363 1_554 S
C971 C966 1.379 . S
C971 N969 1.350 1_565 S
N972 C964 1.356 1_545 S
N972 H978 0.984 . S
N972 H979 0.984 . S
N973 C966 1.356 . S
N973 H976 0.984 . S
N973 H977 0.985 . S
H974 N969 0.999 . S
H975 N969 0.977 1_565 S
H976 N973 0.984 . S
H977 N973 0.985 . S
H978 N972 0.984 . S
H979 N972 0.984 . S
H980 N968 0.984 . S
H981 N968 0.985 . S
C982 C983 1.363 . S
C982 C988 1.379 . S
C982 N990 1.356 . S
C983 C982 1.363 . S
C983 C989 1.363 . S
C984 C985 1.363 . S
C984 C989 1.379 . S
C984 N991 1.356 . S
C985 C984 1.363 . S
C985 C988 1.363 . S
N986 C988 1.356 . S
N986 H998 0.984 . S
N986 H999 0.985 . S
N987 C989 1.356 . S
N987 H992 0.984 . S
N987 H993 0.985 . S
C988 C982 1.379 . S
C988 C985 1.363 . S
C988 N986 1.356 . S
C989 C983 1.363 . S
C989 C984 1.379 . S
C989 N987 1.356 . S
N990 C982 1.356 . S
N990 H996 0.984 . S
N990 H997 0.984 . S
N991 C984 1.356 . S
N991 H994 0.984 . S
N991 H995 0.985 . S
H992 N987 0.984 . S
H993 N987 0.985 . S
H994 N991 0.984 . S
H995 N991 0.985 . S
H996 N990 0.984 . S
H997 N990 0.984 . S
H998 N986 0.984 . S
H999 N986 0.985 . S
C1000 C1001 1.363 . S
C1000 C1006 1.379 . S
C1000 N1008 1.356 . S
C1001 C1000 1.363 . S
C1001 C1007 1.363 . S
C1002 C1003 1.363 . S
C1002 C1007 1.379 . S
C1002 N1009 1.356 . S
C1003 C1002 1.363 . S
C1003 C1006 1.363 . S
N1004 C1006 1.356 . S
N1004 H1016 0.984 . S
N1004 H1017 0.985 . S
N1005 C1007 1.356 1_565 S
N1005 H1010 0.984 . S
N1005 H1011 0.985 . S
C1006 C1000 1.379 . S
C1006 C1003 1.363 . S
C1006 N1004 1.356 . S
C1007 C1001 1.363 . S
C1007 C1002 1.379 . S
C1007 N1005 1.356 1_545 S
N1008 C1000 1.356 . S
N1008 H1014 0.984 . S
N1008 H1015 0.984 . S
N1009 C1002 1.356 . S
N1009 H1012 0.984 . S
N1009 H1013 0.985 . S
H1010 N1005 0.984 . S
H1011 N1005 0.985 . S
H1012 N1009 0.984 . S
H1013 N1009 0.985 . S
H1014 N1008 0.984 . S
H1015 N1008 0.984 . S
H1016 N1004 0.984 . S
H1017 N1004 0.985 . S
C1018 C1019 1.363 . S
C1018 C1024 1.379 . S
C1018 N1026 1.356 . S
C1019 C1018 1.363 . S
C1019 C1025 1.363 . S
C1020 C1021 1.363 . S
C1020 C1025 1.379 . S
C1020 N1027 1.356 . S
C1021 C1020 1.363 . S
C1021 C1024 1.363 . S
N1022 C1024 1.356 . S
N1022 H1034 0.984 . S
N1022 H1035 0.985 . S
N1023 C1025 1.356 . S
N1023 H1028 0.984 . S
N1023 H1029 0.985 . S
C1024 C1018 1.379 . S
C1024 C1021 1.363 . S
C1024 N1022 1.356 . S
C1025 C1019 1.363 . S
C1025 C1020 1.379 . S
C1025 N1023 1.356 . S
N1026 C1018 1.356 . S
N1026 H1032 0.984 . S
N1026 H1033 0.984 . S
N1027 C1020 1.356 . S
N1027 H1030 0.984 . S
N1027 H1031 0.985 . S
H1028 N1023 0.984 . S
H1029 N1023 0.985 . S
H1030 N1027 0.984 . S
H1031 N1027 0.985 . S
H1032 N1026 0.984 . S
H1033 N1026 0.984 . S
H1034 N1022 0.984 . S
H1035 N1022 0.985 . S
C1036 C1037 1.363 . S
C1036 C1042 1.379 . S
C1036 N1044 1.356 1_545 S
C1037 C1036 1.363 . S
C1037 C1043 1.363 . S
C1038 C1039 1.363 . S
C1038 C1043 1.379 . S
C1038 N1045 1.356 . S
C1039 C1038 1.363 . S
C1039 C1042 1.363 . S
N1040 C1042 1.356 . S
N1040 H1052 0.984 . S
N1040 H1053 0.985 . S
N1041 C1043 1.356 . S
N1041 H1046 0.984 . S
N1041 H1047 0.985 . S
C1042 C1036 1.379 . S
C1042 C1039 1.363 . S
C1042 N1040 1.356 . S
C1043 C1037 1.363 . S
C1043 C1038 1.379 . S
C1043 N1041 1.356 . S
N1044 C1036 1.356 1_565 S
N1044 H1050 0.984 . S
N1044 H1051 0.984 . S
N1045 C1038 1.356 . S
N1045 H1048 0.984 . S
N1045 H1049 0.985 . S
H1046 N1041 0.984 . S
H1047 N1041 0.985 . S
H1048 N1045 0.984 . S
H1049 N1045 0.985 . S
H1050 N1044 0.984 . S
H1051 N1044 0.984 . S
H1052 N1040 0.984 . S
H1053 N1040 0.985 . S
C1054 C1055 1.363 . S
C1054 C1060 1.379 . S
C1054 N1062 1.356 . S
C1055 C1054 1.363 . S
C1055 C1061 1.363 . S
C1056 C1057 1.363 . S
C1056 C1061 1.379 . S
C1056 N1063 1.356 . S
C1057 C1056 1.363 . S
C1057 C1060 1.363 . S
N1058 C1060 1.356 . S
N1058 H1070 0.984 . S
N1058 H1071 0.985 . S
N1059 C1061 1.356 . S
N1059 H1064 0.984 . S
N1059 H1065 0.985 . S
C1060 C1054 1.379 . S
C1060 C1057 1.363 . S
C1060 N1058 1.356 . S
C1061 C1055 1.363 . S
C1061 C1056 1.379 . S
C1061 N1059 1.356 . S
N1062 C1054 1.356 . S
N1062 H1068 0.984 . S
N1062 H1069 0.984 . S
N1063 C1056 1.356 . S
N1063 H1066 0.984 . S
N1063 H1067 0.985 . S
H1064 N1059 0.984 . S
H1065 N1059 0.985 . S
H1066 N1063 0.984 . S
H1067 N1063 0.985 . S
H1068 N1062 0.984 . S
H1069 N1062 0.984 . S
H1070 N1058 0.984 . S
H1071 N1058 0.985 . S
C1072 C1073 1.363 . S
C1072 C1078 1.379 . S
C1072 N1080 1.356 . S
C1073 C1072 1.363 . S
C1073 C1079 1.363 . S
C1074 C1075 1.363 . S
C1074 C1079 1.379 . S
C1074 N1081 1.356 . S
C1075 C1074 1.363 . S
C1075 C1078 1.363 . S
N1076 C1078 1.356 . S
N1076 H1088 0.984 . S
N1076 H1089 0.985 . S
N1077 C1079 1.356 . S
N1077 H1082 0.984 . S
N1077 H1083 0.985 . S
C1078 C1072 1.379 . S
C1078 C1075 1.363 . S
C1078 N1076 1.356 . S
C1079 C1073 1.363 . S
C1079 C1074 1.379 . S
C1079 N1077 1.356 . S
N1080 C1072 1.356 . S
N1080 H1086 0.984 . S
N1080 H1087 0.984 . S
N1081 C1074 1.356 . S
N1081 H1084 0.984 . S
N1081 H1085 0.985 . S
H1082 N1077 0.984 . S
H1083 N1077 0.985 . S
H1084 N1081 0.984 . S
H1085 N1081 0.985 . S
H1086 N1080 0.984 . S
H1087 N1080 0.984 . S
H1088 N1076 0.984 . S
H1089 N1076 0.985 . S
C1090 C1091 1.363 . S
C1090 C1096 1.379 . S
C1090 N1098 1.356 . S
C1091 C1090 1.363 . S
C1091 C1097 1.363 . S
C1092 C1093 1.363 . S
C1092 C1097 1.379 . S
C1092 N1099 1.356 1_545 S
C1093 C1092 1.363 . S
C1093 C1096 1.363 . S
N1094 C1096 1.356 . S
N1094 H1106 0.984 . S
N1094 H1107 0.985 . S
N1095 C1097 1.356 . S
N1095 H1100 0.984 . S
N1095 H1101 0.985 1_545 S
C1096 C1090 1.379 . S
C1096 C1093 1.363 . S
C1096 N1094 1.356 . S
C1097 C1091 1.363 . S
C1097 C1092 1.379 . S
C1097 N1095 1.356 . S
N1098 C1090 1.356 . S
N1098 H1104 0.984 . S
N1098 H1105 0.984 . S
N1099 C1092 1.356 1_565 S
N1099 H1102 0.984 . S
N1099 H1103 0.985 . S
H1100 N1095 0.984 . S
H1101 N1095 0.985 1_565 S
H1102 N1099 0.984 . S
H1103 N1099 0.985 . S
H1104 N1098 0.984 . S
H1105 N1098 0.984 . S
H1106 N1094 0.984 . S
H1107 N1094 0.985 . S
C1108 C1109 1.363 . S
C1108 C1114 1.379 . S
C1108 N1116 1.356 . S
C1109 C1108 1.363 . S
C1109 C1115 1.363 . S
C1110 C1111 1.363 . S
C1110 C1115 1.379 . S
C1110 N1117 1.356 . S
C1111 C1110 1.363 . S
C1111 C1114 1.363 . S
N1112 C1114 1.356 . S
N1112 H1124 0.984 . S
N1112 H1125 0.985 . S
N1113 C1115 1.356 . S
N1113 H1118 0.984 . S
N1113 H1119 0.985 . S
C1114 C1108 1.379 . S
C1114 C1111 1.363 . S
C1114 N1112 1.356 . S
C1115 C1109 1.363 . S
C1115 C1110 1.379 . S
C1115 N1113 1.356 . S
N1116 C1108 1.356 . S
N1116 H1122 0.984 . S
N1116 H1123 0.984 . S
N1117 C1110 1.356 . S
N1117 H1120 0.984 . S
N1117 H1121 0.985 . S
H1118 N1113 0.984 . S
H1119 N1113 0.985 . S
H1120 N1117 0.984 . S
H1121 N1117 0.985 . S
H1122 N1116 0.984 . S
H1123 N1116 0.984 . S
H1124 N1112 0.984 . S
H1125 N1112 0.985 . S
C1126 C1127 1.363 . S
C1126 C1132 1.379 . S
C1126 N1134 1.356 . S
C1127 C1126 1.363 . S
C1127 C1133 1.363 . S
C1128 C1129 1.363 . S
C1128 C1133 1.379 . S
C1128 N1135 1.356 . S
C1129 C1128 1.363 . S
C1129 C1132 1.363 . S
N1130 C1132 1.356 . S
N1130 H1142 0.984 . S
N1130 H1143 0.985 . S
N1131 C1133 1.356 . S
N1131 H1136 0.984 . S
N1131 H1137 0.985 . S
C1132 C1126 1.379 . S
C1132 C1129 1.363 . S
C1132 N1130 1.356 . S
C1133 C1127 1.363 . S
C1133 C1128 1.379 . S
C1133 N1131 1.356 . S
N1134 C1126 1.356 . S
N1134 H1140 0.984 . S
N1134 H1141 0.984 . S
N1135 C1128 1.356 . S
N1135 H1138 0.984 . S
N1135 H1139 0.985 . S
H1136 N1131 0.984 . S
H1137 N1131 0.985 . S
H1138 N1135 0.984 . S
H1139 N1135 0.985 . S
H1140 N1134 0.984 . S
H1141 N1134 0.984 . S
H1142 N1130 0.984 . S
H1143 N1130 0.985 . S
C1144 C1145 1.363 . S
C1144 C1150 1.379 . S
C1144 N1152 1.356 . S
C1145 C1144 1.363 . S
C1145 C1151 1.363 . S
C1146 C1147 1.363 . S
C1146 C1151 1.379 . S
C1146 N1153 1.356 . S
C1147 C1146 1.363 . S
C1147 C1150 1.363 . S
N1148 C1150 1.356 . S
N1148 H1160 0.984 . S
N1148 H1161 0.985 . S
N1149 C1151 1.356 . S
N1149 H1154 0.984 . S
N1149 H1155 0.985 . S
C1150 C1144 1.379 . S
C1150 C1147 1.363 . S
C1150 N1148 1.356 . S
C1151 C1145 1.363 . S
C1151 C1146 1.379 . S
C1151 N1149 1.356 . S
N1152 C1144 1.356 . S
N1152 H1158 0.984 . S
N1152 H1159 0.984 . S
N1153 C1146 1.356 . S
N1153 H1156 0.984 . S
N1153 H1157 0.985 . S
H1154 N1149 0.984 . S
H1155 N1149 0.985 . S
H1156 N1153 0.984 . S
H1157 N1153 0.985 . S
H1158 N1152 0.984 . S
H1159 N1152 0.984 . S
H1160 N1148 0.984 . S
H1161 N1148 0.985 . S
C1162 C1163 1.363 1_565 S
C1162 C1168 1.379 . S
C1162 N1170 1.356 . S
C1163 C1162 1.363 1_545 S
C1163 C1169 1.363 . S
C1164 C1165 1.363 . S
C1164 C1169 1.379 . S
C1164 N1171 1.356 . S
C1165 C1164 1.363 . S
C1165 C1168 1.363 1_545 S
N1166 C1168 1.356 . S
N1166 H1178 0.984 . S
N1166 H1179 0.985 . S
N1167 C1169 1.356 1_455 S
N1167 H1172 0.984 . S
N1167 H1173 0.985 . S
C1168 C1162 1.379 . S
C1168 C1165 1.363 1_565 S
C1168 N1166 1.356 . S
C1169 C1163 1.363 . S
C1169 C1164 1.379 . S
C1169 N1167 1.356 1_655 S
N1170 C1162 1.356 . S
N1170 H1176 0.984 . S
N1170 H1177 0.984 . S
N1171 C1164 1.356 . S
N1171 H1174 0.984 . S
N1171 H1175 0.985 . S
H1172 N1167 0.984 . S
H1173 N1167 0.985 . S
H1174 N1171 0.984 . S
H1175 N1171 0.985 . S
H1176 N1170 0.984 . S
H1177 N1170 0.984 . S
H1178 N1166 0.984 . S
H1179 N1166 0.985 . S
C1180 C1181 1.363 . S
C1180 C1186 1.379 . S
C1180 N1188 1.356 . S
C1181 C1180 1.363 . S
C1181 C1187 1.363 . S
C1182 C1183 1.363 . S
C1182 C1187 1.379 . S
C1182 N1189 1.356 . S
C1183 C1182 1.363 . S
C1183 C1186 1.363 . S
N1184 C1186 1.356 . S
N1184 H1196 0.984 . S
N1184 H1197 0.985 . S
N1185 C1187 1.356 . S
N1185 H1190 0.984 . S
N1185 H1191 0.985 . S
C1186 C1180 1.379 . S
C1186 C1183 1.363 . S
C1186 N1184 1.356 . S
C1187 C1181 1.363 . S
C1187 C1182 1.379 . S
C1187 N1185 1.356 . S
N1188 C1180 1.356 . S
N1188 H1194 0.984 . S
N1188 H1195 0.984 . S
N1189 C1182 1.356 . S
N1189 H1192 0.984 . S
N1189 H1193 0.985 . S
H1190 N1185 0.984 . S
H1191 N1185 0.985 . S
H1192 N1189 0.984 . S
H1193 N1189 0.985 . S
H1194 N1188 0.984 . S
H1195 N1188 0.984 . S
H1196 N1184 0.984 . S
H1197 N1184 0.985 . S
C1198 C1199 1.363 . S
C1198 C1204 1.379 . S
C1198 N1206 1.356 . S
C1199 C1198 1.363 . S
C1199 C1205 1.363 . S
C1200 C1201 1.363 . S
C1200 C1205 1.379 . S
C1200 N1207 1.356 . S
C1201 C1200 1.363 . S
C1201 C1204 1.363 . S
N1202 C1204 1.356 . S
N1202 H1214 0.984 . S
N1202 H1215 0.985 . S
N1203 C1205 1.356 1_655 S
N1203 H1208 0.984 . S
N1203 H1209 0.985 . S
C1204 C1198 1.379 . S
C1204 C1201 1.363 . S
C1204 N1202 1.356 . S
C1205 C1199 1.363 . S
C1205 C1200 1.379 . S
C1205 N1203 1.356 1_455 S
N1206 C1198 1.356 . S
N1206 H1212 0.984 . S
N1206 H1213 0.984 . S
N1207 C1200 1.356 . S
N1207 H1210 0.984 . S
N1207 H1211 0.985 . S
H1208 N1203 0.984 . S
H1209 N1203 0.985 . S
H1210 N1207 0.984 . S
H1211 N1207 0.985 . S
H1212 N1206 0.984 . S
H1213 N1206 0.984 . S
H1214 N1202 0.984 . S
H1215 N1202 0.985 . S
C1216 C1217 1.363 . S
C1216 C1222 1.379 . S
C1216 N1224 1.356 . S
C1217 C1216 1.363 . S
C1217 C1223 1.363 . S
C1218 C1219 1.363 . S
C1218 C1223 1.379 . S
C1218 N1225 1.356 . S
C1219 C1218 1.363 . S
C1219 C1222 1.363 . S
N1220 C1222 1.356 . S
N1220 H1232 0.984 . S
N1220 H1233 0.985 . S
N1221 C1223 1.356 . S
N1221 H1226 0.984 . S
N1221 H1227 0.985 . S
C1222 C1216 1.379 . S
C1222 C1219 1.363 . S
C1222 N1220 1.356 . S
C1223 C1217 1.363 . S
C1223 C1218 1.379 . S
C1223 N1221 1.356 . S
N1224 C1216 1.356 . S
N1224 H1230 0.984 . S
N1224 H1231 0.984 . S
N1225 C1218 1.356 . S
N1225 H1228 0.984 . S
N1225 H1229 0.985 . S
H1226 N1221 0.984 . S
H1227 N1221 0.985 . S
H1228 N1225 0.984 . S
H1229 N1225 0.985 . S
H1230 N1224 0.984 . S
H1231 N1224 0.984 . S
H1232 N1220 0.984 . S
H1233 N1220 0.985 . S
C1234 C1235 1.363 1_556 S
C1234 C1240 1.379 . S
C1234 N1242 1.356 . S
C1235 C1234 1.363 1_554 S
C1235 C1241 1.363 1_655 S
C1236 C1237 1.363 1_454 S
C1236 C1241 1.379 . S
C1236 N1243 1.356 . S
C1237 C1236 1.363 1_656 S
C1237 C1240 1.363 . S
N1238 C1240 1.356 . S
N1238 H1250 0.984 . S
N1238 H1251 0.985 . S
N1239 C1241 1.356 . S
N1239 H1244 0.984 . S
N1239 H1245 0.985 . S
C1240 C1234 1.379 . S
C1240 C1237 1.363 . S
C1240 N1238 1.356 . S
C1241 C1235 1.363 1_455 S
C1241 C1236 1.379 . S
C1241 N1239 1.356 . S
N1242 C1234 1.356 . S
N1242 H1248 0.984 . S
N1242 H1249 0.984 1_556 S
N1243 C1236 1.356 . S
N1243 H1246 0.984 . S
N1243 H1247 0.985 . S
H1244 N1239 0.984 . S
H1245 N1239 0.985 . S
H1246 N1243 0.984 . S
H1247 N1243 0.985 . S
H1248 N1242 0.984 . S
H1249 N1242 0.984 1_554 S
H1250 N1238 0.984 . S
H1251 N1238 0.985 . S
C1252 C1253 1.363 . S
C1252 C1258 1.379 . S
C1252 N1260 1.356 . S
C1253 C1252 1.363 . S
C1253 C1259 1.363 . S
C1254 C1255 1.363 . S
C1254 C1259 1.379 . S
C1254 N1261 1.356 . S
C1255 C1254 1.363 . S
C1255 C1258 1.363 . S
N1256 C1258 1.356 . S
N1256 H1268 0.984 . S
N1256 H1269 0.985 . S
N1257 C1259 1.356 . S
N1257 H1262 0.984 . S
N1257 H1263 0.985 . S
C1258 C1252 1.379 . S
C1258 C1255 1.363 . S
C1258 N1256 1.356 . S
C1259 C1253 1.363 . S
C1259 C1254 1.379 . S
C1259 N1257 1.356 . S
N1260 C1252 1.356 . S
N1260 H1266 0.984 . S
N1260 H1267 0.984 . S
N1261 C1254 1.356 . S
N1261 H1264 0.984 . S
N1261 H1265 0.985 . S
H1262 N1257 0.984 . S
H1263 N1257 0.985 . S
H1264 N1261 0.984 . S
H1265 N1261 0.985 . S
H1266 N1260 0.984 . S
H1267 N1260 0.984 . S
H1268 N1256 0.984 . S
H1269 N1256 0.985 . S
C1270 C1271 1.363 1_655 S
C1270 C1276 1.379 . S
C1270 N1278 1.356 . S
C1271 C1270 1.363 1_455 S
C1271 C1277 1.363 1_554 S
C1272 C1273 1.363 . S
C1272 C1277 1.379 . S
C1272 N1279 1.356 . S
C1273 C1272 1.363 . S
C1273 C1276 1.363 1_456 S
N1274 C1276 1.356 . S
N1274 H1286 0.984 . S
N1274 H1287 0.985 1_554 S
N1275 C1277 1.356 . S
N1275 H1280 0.984 . S
N1275 H1281 0.985 . S
C1276 C1270 1.379 . S
C1276 C1273 1.363 1_654 S
C1276 N1274 1.356 . S
C1277 C1271 1.363 1_556 S
C1277 C1272 1.379 . S
C1277 N1275 1.356 . S
N1278 C1270 1.356 . S
N1278 H1284 0.984 . S
N1278 H1285 0.984 . S
N1279 C1272 1.356 . S
N1279 H1282 0.984 . S
N1279 H1283 0.985 . S
H1280 N1275 0.984 . S
H1281 N1275 0.985 . S
H1282 N1279 0.984 . S
H1283 N1279 0.985 . S
H1284 N1278 0.984 . S
H1285 N1278 0.984 . S
H1286 N1274 0.984 . S
H1287 N1274 0.985 1_556 S
C1288 C1289 1.363 . S
C1288 C1294 1.379 . S
C1288 N1296 1.356 . S
C1289 C1288 1.363 . S
C1289 C1295 1.363 . S
C1290 C1291 1.363 . S
C1290 C1295 1.379 . S
C1290 N1297 1.356 . S
C1291 C1290 1.363 . S
C1291 C1294 1.363 . S
N1292 C1294 1.356 . S
N1292 H1304 0.984 . S
N1292 H1305 0.985 . S
N1293 C1295 1.356 . S
N1293 H1298 0.984 . S
N1293 H1299 0.985 . S
C1294 C1288 1.379 . S
C1294 C1291 1.363 . S
C1294 N1292 1.356 . S
C1295 C1289 1.363 . S
C1295 C1290 1.379 . S
C1295 N1293 1.356 . S
N1296 C1288 1.356 . S
N1296 H1302 0.984 . S
N1296 H1303 0.984 . S
N1297 C1290 1.356 . S
N1297 H1300 0.984 . S
N1297 H1301 0.985 . S
H1298 N1293 0.984 . S
H1299 N1293 0.985 . S
H1300 N1297 0.984 . S
H1301 N1297 0.985 . S
H1302 N1296 0.984 . S
H1303 N1296 0.984 . S
H1304 N1292 0.984 . S
H1305 N1292 0.985 . S
C1306 C1307 1.363 . S
C1306 C1312 1.379 . S
C1306 N1314 1.356 . S
C1307 C1306 1.363 . S
C1307 C1313 1.363 . S
C1308 C1309 1.363 . S
C1308 C1313 1.379 . S
C1308 N1315 1.356 . S
C1309 C1308 1.363 . S
C1309 C1312 1.363 . S
N1310 C1312 1.356 . S
N1310 H1322 0.984 . S
N1310 H1323 0.985 . S
N1311 C1313 1.356 1_556 S
N1311 H1316 0.984 . S
N1311 H1317 0.985 . S
C1312 C1306 1.379 . S
C1312 C1309 1.363 . S
C1312 N1310 1.356 . S
C1313 C1307 1.363 . S
C1313 C1308 1.379 . S
C1313 N1311 1.356 1_554 S
N1314 C1306 1.356 . S
N1314 H1320 0.984 . S
N1314 H1321 0.984 . S
N1315 C1308 1.356 . S
N1315 H1318 0.984 . S
N1315 H1319 0.985 . S
H1316 N1311 0.984 . S
H1317 N1311 0.985 . S
H1318 N1315 0.984 . S
H1319 N1315 0.985 . S
H1320 N1314 0.984 . S
H1321 N1314 0.984 . S
H1322 N1310 0.984 . S
H1323 N1310 0.985 . S
C1324 C1325 1.363 . S
C1324 C1330 1.379 . S
C1324 N1332 1.356 . S
C1325 C1324 1.363 . S
C1325 C1331 1.363 . S
C1326 C1327 1.363 . S
C1326 C1331 1.379 . S
C1326 N1333 1.356 . S
C1327 C1326 1.363 . S
C1327 C1330 1.363 . S
N1328 C1330 1.356 . S
N1328 H1340 0.984 . S
N1328 H1341 0.985 . S
N1329 C1331 1.356 . S
N1329 H1334 0.984 . S
N1329 H1335 0.985 . S
C1330 C1324 1.379 . S
C1330 C1327 1.363 . S
C1330 N1328 1.356 . S
C1331 C1325 1.363 . S
C1331 C1326 1.379 . S
C1331 N1329 1.356 . S
N1332 C1324 1.356 . S
N1332 H1338 0.984 . S
N1332 H1339 0.984 . S
N1333 C1326 1.356 . S
N1333 H1336 0.984 . S
N1333 H1337 0.985 . S
H1334 N1329 0.984 . S
H1335 N1329 0.985 . S
H1336 N1333 0.984 . S
H1337 N1333 0.985 . S
H1338 N1332 0.984 . S
H1339 N1332 0.984 . S
H1340 N1328 0.984 . S
H1341 N1328 0.985 . S
C1342 C1343 1.363 . S
C1342 C1348 1.379 . S
C1342 N1350 1.356 . S
C1343 C1342 1.363 . S
C1343 C1349 1.363 . S
C1344 C1345 1.363 . S
C1344 C1349 1.379 . S
C1344 N1351 1.356 . S
C1345 C1344 1.363 . S
C1345 C1348 1.363 . S
N1346 C1348 1.356 . S
N1346 H1358 0.984 . S
N1346 H1359 0.985 . S
N1347 C1349 1.356 1_556 S
N1347 H1352 0.984 . S
N1347 H1353 0.985 . S
C1348 C1342 1.379 . S
C1348 C1345 1.363 . S
C1348 N1346 1.356 . S
C1349 C1343 1.363 . S
C1349 C1344 1.379 . S
C1349 N1347 1.356 1_554 S
N1350 C1342 1.356 . S
N1350 H1356 0.984 . S
N1350 H1357 0.984 . S
N1351 C1344 1.356 . S
N1351 H1354 0.984 . S
N1351 H1355 0.985 . S
H1352 N1347 0.984 . S
H1353 N1347 0.985 . S
H1354 N1351 0.984 . S
H1355 N1351 0.985 . S
H1356 N1350 0.984 . S
H1357 N1350 0.984 . S
H1358 N1346 0.984 . S
H1359 N1346 0.985 . S
C1360 C1361 1.363 . S
C1360 C1366 1.379 . S
C1360 N1368 1.356 . S
C1361 C1360 1.363 . S
C1361 C1367 1.363 . S
C1362 C1363 1.363 . S
C1362 C1367 1.379 . S
C1362 N1369 1.356 . S
C1363 C1362 1.363 . S
C1363 C1366 1.363 . S
N1364 C1366 1.356 . S
N1364 H1376 0.984 . S
N1364 H1377 0.985 . S
N1365 C1367 1.356 . S
N1365 H1370 0.984 . S
N1365 H1371 0.985 . S
C1366 C1360 1.379 . S
C1366 C1363 1.363 . S
C1366 N1364 1.356 . S
C1367 C1361 1.363 . S
C1367 C1362 1.379 . S
C1367 N1365 1.356 . S
N1368 C1360 1.356 . S
N1368 H1374 0.984 . S
N1368 H1375 0.984 . S
N1369 C1362 1.356 . S
N1369 H1372 0.984 . S
N1369 H1373 0.985 . S
H1370 N1365 0.984 . S
H1371 N1365 0.985 . S
H1372 N1369 0.984 . S
H1373 N1369 0.985 . S
H1374 N1368 0.984 . S
H1375 N1368 0.984 . S
H1376 N1364 0.984 . S
H1377 N1364 0.985 . S
C1378 C1379 1.363 . S
C1378 C1384 1.379 . S
C1378 N1386 1.356 . S
C1379 C1378 1.363 . S
C1379 C1385 1.363 . S
C1380 C1381 1.363 . S
C1380 C1385 1.379 . S
C1380 N1387 1.356 . S
C1381 C1380 1.363 . S
C1381 C1384 1.363 . S
N1382 C1384 1.356 . S
N1382 H1394 0.984 . S
N1382 H1395 0.985 . S
N1383 C1385 1.356 . S
N1383 H1388 0.984 . S
N1383 H1389 0.985 . S
C1384 C1378 1.379 . S
C1384 C1381 1.363 . S
C1384 N1382 1.356 . S
C1385 C1379 1.363 . S
C1385 C1380 1.379 . S
C1385 N1383 1.356 . S
N1386 C1378 1.356 . S
N1386 H1392 0.984 . S
N1386 H1393 0.984 . S
N1387 C1380 1.356 . S
N1387 H1390 0.984 . S
N1387 H1391 0.985 . S
H1388 N1383 0.984 . S
H1389 N1383 0.985 . S
H1390 N1387 0.984 . S
H1391 N1387 0.985 . S
H1392 N1386 0.984 . S
H1393 N1386 0.984 . S
H1394 N1382 0.984 . S
H1395 N1382 0.985 . S
C1396 C1397 1.363 . S
C1396 C1402 1.379 . S
C1396 N1404 1.356 . S
C1397 C1396 1.363 . S
C1397 C1403 1.363 . S
C1398 C1399 1.363 . S
C1398 C1403 1.379 . S
C1398 N1405 1.356 . S
C1399 C1398 1.363 . S
C1399 C1402 1.363 . S
N1400 C1402 1.356 . S
N1400 H1412 0.984 . S
N1400 H1413 0.985 . S
N1401 C1403 1.356 . S
N1401 H1406 0.984 . S
N1401 H1407 0.985 . S
C1402 C1396 1.379 . S
C1402 C1399 1.363 . S
C1402 N1400 1.356 . S
C1403 C1397 1.363 . S
C1403 C1398 1.379 . S
C1403 N1401 1.356 . S
N1404 C1396 1.356 . S
N1404 H1410 0.984 . S
N1404 H1411 0.984 . S
N1405 C1398 1.356 . S
N1405 H1408 0.984 . S
N1405 H1409 0.985 . S
H1406 N1401 0.984 . S
H1407 N1401 0.985 . S
H1408 N1405 0.984 . S
H1409 N1405 0.985 . S
H1410 N1404 0.984 . S
H1411 N1404 0.984 . S
H1412 N1400 0.984 . S
H1413 N1400 0.985 . S
C1414 C1415 1.363 . S
C1414 C1420 1.379 . S
C1414 N1422 1.356 . S
C1415 C1414 1.363 . S
C1415 C1421 1.363 . S
C1416 C1417 1.363 . S
C1416 C1421 1.379 . S
C1416 N1423 1.356 . S
C1417 C1416 1.363 . S
C1417 C1420 1.363 . S
N1418 C1420 1.356 . S
N1418 H1430 0.984 . S
N1418 H1431 0.985 . S
N1419 C1421 1.356 . S
N1419 H1424 0.984 . S
N1419 H1425 0.985 . S
C1420 C1414 1.379 . S
C1420 C1417 1.363 . S
C1420 N1418 1.356 . S
C1421 C1415 1.363 . S
C1421 C1416 1.379 . S
C1421 N1419 1.356 . S
N1422 C1414 1.356 . S
N1422 H1428 0.984 . S
N1422 H1429 0.984 . S
N1423 C1416 1.356 . S
N1423 H1426 0.984 . S
N1423 H1427 0.985 . S
H1424 N1419 0.984 . S
H1425 N1419 0.985 . S
H1426 N1423 0.984 . S
H1427 N1423 0.985 . S
H1428 N1422 0.984 . S
H1429 N1422 0.984 . S
H1430 N1418 0.984 . S
H1431 N1418 0.985 . S
C1432 C1433 1.363 1_554 S
C1432 C1438 1.379 . S
C1432 N1440 1.356 . S
C1433 C1432 1.363 1_556 S
C1433 C1439 1.363 . S
C1434 C1435 1.363 . S
C1434 C1439 1.379 . S
C1434 N1441 1.356 . S
C1435 C1434 1.363 . S
C1435 C1438 1.363 1_556 S
N1436 C1438 1.356 . S
N1436 H1448 0.984 . S
N1436 H1449 0.985 . S
N1437 C1439 1.356 . S
N1437 H1442 0.984 . S
N1437 H1443 0.985 . S
C1438 C1432 1.379 . S
C1438 C1435 1.363 1_554 S
C1438 N1436 1.356 . S
C1439 C1433 1.363 . S
C1439 C1434 1.379 . S
C1439 N1437 1.356 . S
N1440 C1432 1.356 . S
N1440 H1446 0.984 . S
N1440 H1447 0.984 . S
N1441 C1434 1.356 . S
N1441 H1444 0.984 . S
N1441 H1445 0.985 . S
H1442 N1437 0.984 . S
H1443 N1437 0.985 . S
H1444 N1441 0.984 . S
H1445 N1441 0.985 . S
H1446 N1440 0.984 . S
H1447 N1440 0.984 . S
H1448 N1436 0.984 . S
H1449 N1436 0.985 . S
C1450 C1451 1.363 . S
C1450 C1456 1.379 . S
C1450 N1458 1.356 . S
C1451 C1450 1.363 . S
C1451 C1457 1.363 . S
C1452 C1453 1.363 . S
C1452 C1457 1.379 . S
C1452 N1459 1.356 . S
C1453 C1452 1.363 . S
C1453 C1456 1.363 . S
N1454 C1456 1.356 . S
N1454 H1466 0.984 . S
N1454 H1467 0.985 . S
N1455 C1457 1.356 . S
N1455 H1460 0.984 . S
N1455 H1461 0.985 . S
C1456 C1450 1.379 . S
C1456 C1453 1.363 . S
C1456 N1454 1.356 . S
C1457 C1451 1.363 . S
C1457 C1452 1.379 . S
C1457 N1455 1.356 . S
N1458 C1450 1.356 . S
N1458 H1464 0.984 . S
N1458 H1465 0.984 . S
N1459 C1452 1.356 . S
N1459 H1462 0.984 . S
N1459 H1463 0.985 . S
H1460 N1455 0.984 . S
H1461 N1455 0.985 . S
H1462 N1459 0.984 . S
H1463 N1459 0.985 . S
H1464 N1458 0.984 . S
H1465 N1458 0.984 . S
H1466 N1454 0.984 . S
H1467 N1454 0.985 . S
C1468 C1469 1.363 . S
C1468 C1474 1.379 . S
C1468 N1476 1.356 . S
C1469 C1468 1.363 . S
C1469 C1475 1.363 . S
C1470 C1471 1.363 . S
C1470 C1475 1.379 . S
C1470 N1477 1.356 1_554 S
C1471 C1470 1.363 . S
C1471 C1474 1.363 . S
N1472 C1474 1.356 . S
N1472 H1484 0.984 . S
N1472 H1485 0.985 . S
N1473 C1475 1.356 . S
N1473 H1478 0.984 . S
N1473 H1479 0.985 . S
C1474 C1468 1.379 . S
C1474 C1471 1.363 . S
C1474 N1472 1.356 . S
C1475 C1469 1.363 . S
C1475 C1470 1.379 . S
C1475 N1473 1.356 . S
N1476 C1468 1.356 . S
N1476 H1482 0.984 . S
N1476 H1483 0.984 . S
N1477 C1470 1.356 1_556 S
N1477 H1480 0.984 . S
N1477 H1481 0.985 . S
H1478 N1473 0.984 . S
H1479 N1473 0.985 . S
H1480 N1477 0.984 . S
H1481 N1477 0.985 . S
H1482 N1476 0.984 . S
H1483 N1476 0.984 . S
H1484 N1472 0.984 . S
H1485 N1472 0.985 . S
C1486 C1487 1.363 . S
C1486 C1492 1.379 . S
C1486 N1494 1.356 1_554 S
C1487 C1486 1.363 . S
C1487 C1493 1.363 . S
C1488 C1489 1.363 . S
C1488 C1493 1.379 . S
C1488 N1495 1.356 . S
C1489 C1488 1.363 . S
C1489 C1492 1.363 . S
N1490 C1492 1.356 1_556 S
N1490 H1502 0.984 . S
N1490 H1503 0.985 . S
N1491 C1493 1.356 1_545 S
N1491 H1496 0.984 . S
N1491 H1497 0.985 . S
C1492 C1486 1.379 . S
C1492 C1489 1.363 . S
C1492 N1490 1.356 1_554 S
C1493 C1487 1.363 . S
C1493 C1488 1.379 . S
C1493 N1491 1.356 1_565 S
N1494 C1486 1.356 1_556 S
N1494 H1500 0.984 . S
N1494 H1501 0.984 . S
N1495 C1488 1.356 . S
N1495 H1498 0.984 . S
N1495 H1499 0.985 1_565 S
H1496 N1491 0.984 . S
H1497 N1491 0.985 . S
H1498 N1495 0.984 . S
H1499 N1495 0.985 1_545 S
H1500 N1494 0.984 . S
H1501 N1494 0.984 . S
H1502 N1490 0.984 . S
H1503 N1490 0.985 . S
C643 C210 1.272 . S
C641 N66 1.229 . S
C661 C258 1.567 . S
C659 N79 1.608 1_455 S
C677 N92 1.696 . S
C679 C294 1.631 . S
C697 C330 1.393 . S
C695 N54 1.487 1_655 S
C715 C356 1.433 . S
C713 N131 1.409 . S
C733 C392 1.340 . S
C731 N158 1.338 . S
C749 N145 1.536 . S
C751 C427 1.544 . S
C769 C464 1.728 1_565 S
C767 N118 1.696 . S
C785 N148 1.791 . S
C787 C498 1.789 . S
C805 C546 1.625 . S
C803 N122 1.654 . S
C821 N132 1.269 . S
C823 C499 1.284 . S
C841 C536 1.564 . S
C839 N161 1.507 . S
C857 N96 1.754 . S
C859 C582 1.699 . S
C875 N53 1.672 . S
C877 C571 1.701 . S
C893 N67 1.244 . S
C895 C572 1.240 . S
C911 N83 1.508 . S
C913 C570 1.529 . S
C929 N44 1.357 . S
C931 C318 1.368 . S
C947 N187 1.478 . S
C949 C319 1.487 . S
C967 C222 1.335 . S
C965 N197 1.379 1_565 S
C985 C247 1.376 . S
C983 N106 1.374 . S
C1001 N57 1.806 . S
C1003 C354 1.807 . S
C1021 C462 1.436 . S
C1019 N144 1.415 . S
C1039 C355 1.462 . S
C1037 N119 1.481 . S
C1057 C428 1.771 . S
C1055 N157 1.745 . S
C1075 C426 1.272 . S
C1073 N183 1.229 . S
C1091 N196 1.608 . S
C1093 C474 1.567 . S
C1109 N105 1.696 . S
C1111 C366 1.631 . S
C1129 C402 1.393 . S
C1127 N171 1.481 . S
C1145 N40 1.409 . S
C1147 C284 1.433 . S
C1165 C320 1.340 . S
C1163 N2 1.337 . S
C1183 C211 1.544 . S
C1181 N15 1.536 . S
C1201 C248 1.728 . S
C1199 N27 1.695 1_455 S
C1217 N18 1.791 . S
C1219 C534 1.789 . S
C1235 N31 1.653 . S
C1237 C510 1.625 . S
C1253 N41 1.269 . S
C1255 C535 1.284 . S
C1271 N5 1.507 . S
C1273 C500 1.562 1_455 S
C1291 C618 1.699 . S
C1289 N109 1.754 . S
C1309 C607 1.701 . S
C1307 N170 1.667 1_554 S
C1327 C608 1.240 . S
C1325 N184 1.244 . S
C1343 N200 1.508 . S
C1345 C606 1.529 . S
C1361 N135 1.357 . S
C1363 C390 1.368 . S
C1381 C391 1.487 . S
C1379 N70 1.478 . S
C1399 C438 1.335 . S
C1397 N80 1.379 . S
C1417 C463 1.375 . S
C1415 N93 1.374 . S
C1433 N174 1.806 . S
C1435 C282 1.807 1_556 S
C1453 C246 1.436 . S
C1451 N14 1.415 . S
C1469 N28 1.481 . S
C1471 C283 1.463 . S
C1489 C212 1.771 . S
C1487 N1 1.745 1_565 S
