# Generated by pormake.
# Topology tsx, (6,3)-cn, num edge types: 1
# Building blocks:
#     Node 0, Type 0, BuildingBlock: LEVNOQ01_clean_sbu_1, # of connection points: 6
#     Node 1, Type 0, BuildingBlock: LEVNOQ01_clean_sbu_1, # of connection points: 6
#     Node 2, Type 1, BuildingBlock: VETTIZ_charged_linker_0, # of connection points: 3
#     Node 3, Type 1, BuildingBlock: VETTIZ_charged_linker_0, # of connection points: 3
#     Node 4, Type 1, BuildingBlock: VETTIZ_charged_linker_0, # of connection points: 3
#     Node 5, Type 1, BuildingBlock: VETTIZ_charged_linker_0, # of connection points: 3
#     Edge 6, Type (0, 1), BuildingBlock: KIFKEQ_clean_linker_1, # of connection points: 2
#     Edge 7, Type (0, 1), BuildingBlock: KIFKEQ_clean_linker_1, # of connection points: 2
#     Edge 8, Type (0, 1), BuildingBlock: KIFKEQ_clean_linker_1, # of connection points: 2
#     Edge 9, Type (0, 1), BuildingBlock: KIFKEQ_clean_linker_1, # of connection points: 2
#     Edge 10, Type (0, 1), BuildingBlock: KIFKEQ_clean_linker_1, # of connection points: 2
#     Edge 11, Type (0, 1), BuildingBlock: KIFKEQ_clean_linker_1, # of connection points: 2
#     Edge 12, Type (0, 1), BuildingBlock: KIFKEQ_clean_linker_1, # of connection points: 2
#     Edge 13, Type (0, 1), BuildingBlock: KIFKEQ_clean_linker_1, # of connection points: 2
#     Edge 14, Type (0, 1), BuildingBlock: KIFKEQ_clean_linker_1, # of connection points: 2
#     Edge 15, Type (0, 1), BuildingBlock: KIFKEQ_clean_linker_1, # of connection points: 2
#     Edge 16, Type (0, 1), BuildingBlock: KIFKEQ_clean_linker_1, # of connection points: 2
#     Edge 17, Type (0, 1), BuildingBlock: KIFKEQ_clean_linker_1, # of connection points: 2
# Relax obj value: 0.135
# Max RMSD: 0.160
# Mean RMSD: 0.124
data_MOF--net-tsx--node1-LEVNOQ01_clean_sbu_1--node2-VETTIZ_charged_linker_0--edge1-KIFKEQ_clean_linker_1
_symmetry_space_group_name_H-M    P1
_symmetry_Int_Tables_number       1
_symmetry_cell_setting            triclinic
loop_
_symmetry_equiv_pos_as_xyz
'x, y, z'
_cell_length_a     22.247064
_cell_length_b     26.993933
_cell_length_c     46.45054
_cell_angle_alpha  96.825052
_cell_angle_beta   90.88514
_cell_angle_gamma 90.27612
loop_
_atom_site_label
_atom_site_type_symbol
_atom_site_fract_x
_atom_site_fract_y
_atom_site_fract_z
_atom_type_partial_charge
O0 O 0.13373 0.99105 0.06207 0.0
Mg1 Mg 0.17907 0.01233 0.02594 0.0
O2 O 0.04682 0.00079 0.04032 0.0
Mg3 Mg 0.07752 0.01054 -0.00673 0.0
O4 O 0.15102 0.07443 0.00752 0.0
O5 O 0.2316 0.07181 0.03717 0.0
O6 O 0.11388 0.02621 0.94714 0.0
O7 O 0.0108 0.07674 -0.00703 0.0
Mg8 Mg 0.01802 0.98257 0.94647 0.0
O9 O 1.00037 0.94858 0.98194 0.0
O10 O 0.09211 0.95583 0.92162 0.0
O11 O 0.98695 0.05746 0.94677 0.0
O12 O 0.94963 0.93363 0.93949 0.0
C13 C 0.19286 0.92544 -0.00839 0.0
C14 C 0.07693 0.99112 0.06253 0.0
C15 C 0.19837 0.09589 0.02067 0.0
C16 C 0.12103 0.99625 0.92414 0.0
C17 C 0.98478 0.08761 0.96988 0.0
C18 C 0.95926 0.92393 0.96568 0.0
O19 O 0.23026 0.95786 0.00229 0.0
O20 O 0.13765 0.93741 -0.01025 0.0
O21 O 0.63154 0.59667 0.57629 0.0
Mg22 Mg 0.67295 0.60225 0.53648 0.0
O23 O 0.54983 0.56931 0.55189 0.0
Mg24 Mg 0.55785 0.57955 0.5029 0.0
O25 O 0.62781 0.64582 0.50986 0.0
O26 O 0.7159 0.66701 0.53254 0.0
O27 O 0.56139 0.58848 0.45371 0.0
O28 O 0.49118 0.65023 0.51026 0.0
Mg29 Mg 0.44872 0.57177 0.48904 0.0
O30 O 0.49078 0.50813 0.49669 0.0
O31 O 0.46474 0.60312 0.45049 0.0
O32 O 0.40865 0.61672 0.5234 0.0
O33 O 0.39746 0.51133 0.47751 0.0
C34 C 0.68309 0.50472 0.50139 0.0
C35 C 0.57917 0.57809 0.57576 0.0
C36 C 0.67167 0.67772 0.51613 0.0
C37 C 0.5162 0.6016 0.43928 0.0
C38 C 0.43828 0.65561 0.52045 0.0
C39 C 0.4407 0.48611 0.48724 0.0
O40 O 0.71381 0.53732 0.51706 0.0
O41 O 0.62839 0.51348 0.49479 0.0
C42 C 0.1394 0.93581 0.4472 0.0
C43 C 0.16791 0.89169 0.43552 0.0
C44 C 0.1558 0.87265 0.40641 0.0
C45 C 0.08671 0.94035 0.40131 0.0
C46 C 0.09842 0.95907 0.42984 0.0
C47 C 0.06088 0.00427 0.43922 0.0
H48 H 0.83673 0.16071 0.40615 0.0
C49 C 0.03973 0.97145 0.3897 0.0
C50 C 0.02278 0.00822 0.41211 0.0
H51 H 0.94088 0.16982 0.48581 0.0
H52 H 0.99617 0.09602 0.4673 0.0
H53 H 0.94114 0.14718 0.3677 0.0
H54 H 0.82155 0.03791 0.39529 0.0
H55 H 0.8335 0.02101 0.35806 0.0
H56 H 0.80087 0.08082 0.37019 0.0
H57 H 0.87055 0.13239 0.34956 0.0
H58 H 0.93854 0.09971 0.33863 0.0
C59 C 0.10427 0.04916 0.44577 0.0
C60 C 0.02261 0.99292 0.46514 0.0
C61 C 0.98694 0.9489 0.28197 0.0
C62 C 0.94578 0.97336 0.26514 0.0
C63 C 0.90306 0.00546 0.27951 0.0
C64 C 0.9043 0.01613 0.30972 0.0
C65 C 0.94855 0.99441 0.32599 0.0
C66 C 0.98727 0.95977 0.31228 0.0
C67 C 0.02907 0.93857 0.3335 0.0
C68 C 0.01234 0.96959 0.36175 0.0
C69 C 0.9655 0.00236 0.35707 0.0
C70 C 0.09468 0.94852 0.32505 0.0
C71 C 0.01342 0.8825 0.33366 0.0
C72 C 0.87047 0.14609 0.4199 0.0
C73 C 0.88391 0.17066 0.44757 0.0
C74 C 0.92968 0.15143 0.46438 0.0
C75 C 0.96178 0.10856 0.45356 0.0
C76 C 0.94856 0.08492 0.42547 0.0
C77 C 0.90354 0.10411 0.40922 0.0
C78 C 0.8985 0.07762 0.37903 0.0
C79 C 0.94717 0.0387 0.37977 0.0
C80 C 0.9761 0.04238 0.40709 0.0
C81 C 0.91242 0.11588 0.35746 0.0
C82 C 0.83525 0.05321 0.37514 0.0
H83 H 0.10838 0.88044 0.3673 0.0
H84 H 0.14729 0.95085 0.46962 0.0
H85 H 0.98392 0.01792 0.46879 0.0
H86 H 0.05031 0.99515 0.48532 0.0
H87 H 1.00311 0.95464 0.46115 0.0
H88 H 0.13632 0.05039 0.42771 0.0
H89 H 0.13123 0.04597 0.46577 0.0
H90 H 0.08133 0.08544 0.44793 0.0
H91 H 0.02014 0.92367 0.27181 0.0
H92 H 0.86944 0.02348 0.26731 0.0
H93 H 0.87175 0.04208 0.31918 0.0
H94 H 0.1003 0.98793 0.32073 0.0
H95 H 0.10709 0.924 0.30514 0.0
H96 H 0.12765 0.94278 0.34229 0.0
H97 H 0.96739 0.87332 0.32483 0.0
H98 H 0.0131 0.87152 0.3559 0.0
H99 H 0.04524 0.85828 0.32033 0.0
H100 H 0.17745 0.83884 0.39693 0.0
C101 C 0.11561 0.89677 0.38926 0.0
C102 C 0.17631 0.17934 0.54149 0.0
C103 C 0.22981 0.20164 0.55366 0.0
C104 C 0.24437 0.19719 0.58286 0.0
C105 C 0.15296 0.15007 0.5875 0.0
C106 C 0.13867 0.15374 0.55879 0.0
C107 C 0.0806 0.12696 0.54949 0.0
H108 H 0.84926 0.98045 0.58297 0.0
C109 C 0.10455 0.12188 0.59968 0.0
C110 C 0.06206 0.10783 0.57757 0.0
H111 H 0.89593 0.01954 0.49869 0.0
H112 H 0.97745 0.07242 0.52039 0.0
H113 H 0.98259 0.9605 0.60268 0.0
H114 H 0.87269 0.09158 0.61945 0.0
H115 H 0.91436 0.08549 0.65126 0.0
H116 H 0.86104 0.03734 0.63762 0.0
H117 H 0.91721 0.96261 0.625 0.0
H118 H 0.98951 0.98314 0.6397 0.0
C119 C 0.09403 0.0839 0.52537 0.0
C120 C 0.03522 0.16545 0.54013 0.0
C121 C 0.11885 0.09219 0.7052 0.0
C122 C 0.08021 0.06974 0.72346 0.0
C123 C 0.02425 0.05068 0.71242 0.0
C124 C 0.00771 0.05296 0.68332 0.0
C125 C 0.04747 0.07469 0.66512 0.0
C126 C 0.10141 0.09467 0.67637 0.0
C127 C 0.13674 0.11864 0.65447 0.0
C128 C 0.09579 0.10888 0.62799 0.0
C129 C 0.04393 0.08259 0.63416 0.0
C130 C 0.1973 0.09067 0.65016 0.0
C131 C 0.14278 0.17517 0.66522 0.0
C132 C 0.87627 0.00135 0.56933 0.0
C133 C 0.86639 0.99625 0.53918 0.0
C134 C 0.9032 0.02298 0.52195 0.0
C135 C 0.95039 0.05336 0.53454 0.0
C136 C 0.96142 0.05631 0.56461 0.0
C137 C 0.92427 0.0309 0.58151 0.0
C138 C 0.9449 0.03578 0.61274 0.0
C139 C 1.00134 0.06728 0.61169 0.0
C140 C 0.01047 0.07967 0.58351 0.0
C141 C 0.95909 0.9829 0.62074 0.0
C142 C 0.89578 0.06365 0.63146 0.0
H143 H 0.22014 0.16999 0.62185 0.0
H144 H 0.1641 0.18162 0.51903 0.0
H145 H 0.03402 0.19892 0.55657 0.0
H146 H 0.98881 0.15061 0.53798 0.0
H147 H 0.04805 0.17791 0.51909 0.0
H148 H 0.14284 0.0754 0.5238 0.0
H149 H 0.07865 0.0934 0.50391 0.0
H150 H 0.07238 0.04843 0.52949 0.0
H151 H 0.16161 0.10798 0.71328 0.0
H152 H 0.9938 0.03319 0.72619 0.0
H153 H 0.96489 0.03735 0.67605 0.0
H154 H 0.19139 0.05018 0.65191 0.0
H155 H 0.23117 0.10554 0.66683 0.0
H156 H 0.21614 0.09204 0.6284 0.0
H157 H 0.10318 0.18886 0.67813 0.0
H158 H 0.14395 0.19866 0.6473 0.0
H159 H 0.18342 0.18304 0.67923 0.0
H160 H 0.28453 0.21473 0.59297 0.0
C161 C 0.20642 0.1716 0.59976 0.0
C162 C 0.63944 0.36749 0.94222 0.0
C163 C 0.68288 0.33698 0.92731 0.0
C164 C 0.6793 0.32786 0.89685 0.0
C165 C 0.5921 0.38081 0.89621 0.0
C166 C 0.59467 0.38939 0.92617 0.0
C167 C 0.54664 0.42533 0.93791 0.0
H168 H 0.32255 0.58272 0.90839 0.0
C169 C 0.54172 0.40956 0.88578 0.0
C170 C 0.51408 0.43539 0.9101 0.0
H171 H 0.39553 0.5618 -0.00728 0.0
H172 H 0.45889 0.49488 0.97058 0.0
H173 H 0.43969 0.58176 0.87806 0.0
H174 H 0.31063 0.46534 0.88434 0.0
H175 H 0.33824 0.4543 0.84898 0.0
H176 H 0.30015 0.51216 0.86041 0.0
H177 H 0.37041 0.57695 0.85764 0.0
H178 H 0.43791 0.54689 0.84385 0.0
C179 C 0.57848 0.47257 0.95316 0.0
C180 C 0.50557 0.39886 0.95796 0.0
C181 C 0.51303 0.41901 0.77766 0.0
C182 C 0.47333 0.44683 0.76202 0.0
C183 C 0.42456 0.47106 0.77659 0.0
C184 C 0.41788 0.47062 0.80641 0.0
C185 C 0.46084 0.44639 0.82211 0.0
C186 C 0.50606 0.41949 0.80764 0.0
C187 C 0.54736 0.39604 0.82811 0.0
C188 C 0.5208 0.41531 0.8573 0.0
C189 C 0.47075 0.44521 0.8535 0.0
C190 C 0.61173 0.41669 0.82474 0.0
C191 C 0.54135 0.33855 0.82145 0.0
C192 C 0.3508 0.56306 0.9224 0.0
C193 C 0.35416 0.5778 0.95237 0.0
C194 C 0.39299 0.55171 0.9695 0.0
C195 C 0.42973 0.51312 0.95665 0.0
C196 C 0.42803 0.50088 0.92636 0.0
C197 C 0.38783 0.5251 0.90998 0.0
C198 C 0.39273 0.50923 0.87815 0.0
C199 C 0.44304 0.4717 0.87785 0.0
C200 C 0.46409 0.46681 0.90607 0.0
C201 C 0.41068 0.55583 0.8634 0.0
C202 C 0.33237 0.48424 0.86714 0.0
H203 H 0.63411 0.34075 0.85816 0.0
H204 H 0.64127 0.37507 0.96564 0.0
H205 H 0.46012 0.41507 0.95962 0.0
H206 H 0.52571 0.4 0.98007 0.0
H207 H 0.49854 0.35903 0.94924 0.0
H208 H 0.6159 0.48409 0.93974 0.0
H209 H 0.59788 0.46527 0.9744 0.0
H210 H 0.54883 0.50522 0.9566 0.0
H211 H 0.55031 0.39912 0.76705 0.0
H212 H 0.39344 0.49311 0.76535 0.0
H213 H 0.38117 0.49147 0.81628 0.0
H214 H 0.61041 0.45712 0.82212 0.0
H215 H 0.63371 0.39707 0.80535 0.0
H216 H 0.64109 0.41428 0.84386 0.0
H217 H 0.49599 0.32744 0.81241 0.0
H218 H 0.54579 0.31939 0.84114 0.0
H219 H 0.57492 0.32329 0.80535 0.0
H220 H 0.71175 0.30388 0.885 0.0
C221 C 0.63405 0.34918 0.88129 0.0
C222 C 0.65699 0.6411 0.03759 0.0
C223 C 0.70346 0.6729 0.04988 0.0
C224 C 0.7086 0.68316 0.08023 0.0
C225 C 0.62053 0.63285 0.08577 0.0
C226 C 0.61627 0.62107 0.05604 0.0
C227 C 0.5649 0.58527 0.04741 0.0
H228 H 0.32338 0.45864 0.09075 0.0
C229 C 0.56962 0.60941 0.09887 0.0
C230 C 0.53594 0.58183 0.07664 0.0
H231 H 0.40377 0.44223 0.00608 0.0
H232 H 0.4726 0.51048 0.02179 0.0
H233 H 0.44428 0.45828 0.12341 0.0
H234 H 0.33371 0.58123 0.1045 0.0
H235 H 0.36328 0.59669 0.13974 0.0
H236 H 0.31469 0.54275 0.13202 0.0
H237 H 0.37333 0.47201 0.14036 0.0
H238 H 0.44193 0.50086 0.15497 0.0
C239 C 0.59249 0.53503 0.03471 0.0
C240 C 0.52237 0.60858 0.02617 0.0
C241 C 0.54913 0.63573 0.20798 0.0
C242 C 0.5045 0.62249 0.22659 0.0
C243 C 0.45112 0.5995 0.21491 0.0
C244 C 0.44351 0.58774 0.18487 0.0
C245 C 0.48978 0.59923 0.16644 0.0
C246 C 0.54045 0.62438 0.17806 0.0
C247 C 0.58285 0.63693 0.15521 0.0
C248 C 0.55083 0.61276 0.128 0.0
C249 C 0.49695 0.59007 0.13469 0.0
C250 C 0.64389 0.61155 0.16032 0.0
C251 C 0.58593 0.69469 0.15645 0.0
C252 C 0.35548 0.46981 0.07541 0.0
C253 C 0.35857 0.44433 0.04727 0.0
C254 C 0.40029 0.46105 0.02789 0.0
C255 C 0.44101 0.49998 0.03718 0.0
C256 C 0.44059 0.52195 0.06618 0.0
C257 C 0.3975 0.50722 0.08459 0.0
C258 C 0.40652 0.53089 0.11528 0.0
C259 C 0.46298 0.56141 0.1125 0.0
C260 C 0.4825 0.5568 0.08362 0.0
C261 C 0.41673 0.48867 0.13475 0.0
C262 C 0.3517 0.56445 0.12361 0.0
H263 H 0.67372 0.67339 0.12101 0.0
H264 H 0.65248 0.63225 0.01429 0.0
H265 H 0.51547 0.64887 0.0335 0.0
H266 H 0.47721 0.59143 0.0249 0.0
H267 H 0.54124 0.60528 0.00403 0.0
H268 H 0.63372 0.52678 0.0471 0.0
H269 H 0.60545 0.53621 0.01182 0.0
H270 H 0.56253 0.50277 0.03604 0.0
H271 H 0.59 0.65433 0.21655 0.0
H272 H 0.41614 0.58925 0.22911 0.0
H273 H 0.40252 0.56924 0.17719 0.0
H274 H 0.63679 0.57403 0.16741 0.0
H275 H 0.67108 0.63405 0.17743 0.0
H276 H 0.67089 0.60464 0.14051 0.0
H277 H 0.54509 0.71275 0.16636 0.0
H278 H 0.58744 0.70733 0.13466 0.0
H279 H 0.62532 0.71031 0.16952 0.0
H280 H 0.74349 0.70797 0.09016 0.0
C281 C 0.66747 0.66347 0.09815 0.0
H282 H 0.31024 0.13445 0.02748 0.0
H283 H 0.12852 0.17421 0.00583 0.0
H284 H 0.34122 0.221 0.02965 0.0
H285 H 0.1605 0.26246 0.00812 0.0
H286 H 0.30264 0.40639 -0.00457 0.0
H287 H 0.25675 0.32293 0.98367 0.0
H288 H 0.29385 0.29129 0.07099 0.0
H289 H 0.34031 0.37255 0.08258 0.0
C290 C 0.27691 0.16166 0.02283 0.0
C291 C 0.21658 0.14763 0.0171 0.0
C292 C 0.29487 0.21121 0.02394 0.0
C293 C 0.25312 0.24825 0.01938 0.0
C294 C 0.19346 0.23432 0.01166 0.0
C295 C 0.17523 0.18405 0.01044 0.0
C296 C 0.30034 0.3817 0.01213 0.0
C297 C 0.3249 0.39646 0.04002 0.0
C298 C 0.27363 0.3343 0.00546 0.0
C299 C 0.2718 0.30102 0.0265 0.0
C300 C 0.29453 0.31642 0.05445 0.0
C301 C 0.32079 0.3633 0.0611 0.0
H302 H 0.30707 0.89132 0.98374 0.0
H303 H 0.12276 0.84104 0.98586 0.0
H304 H 0.34083 0.80532 0.9781 0.0
H305 H 0.15665 0.75461 0.98134 0.0
H306 H 0.24042 0.60724 0.93903 0.0
H307 H 0.19888 0.69047 0.94902 0.0
H308 H 0.35285 0.73554 0.00402 0.0
H309 H 0.3962 0.65304 -0.00754 0.0
C310 C 0.27371 0.86179 0.98298 0.0
C311 C 0.21225 0.87299 0.98518 0.0
C312 C 0.29312 0.8124 0.98015 0.0
C313 C 0.25164 0.77282 0.97979 0.0
C314 C 0.18992 0.78403 0.98139 0.0
C315 C 0.17042 0.83358 0.98391 0.0
C316 C 0.26519 0.63482 0.95346 0.0
C317 C 0.32224 0.62373 0.96445 0.0
C318 C 0.24108 0.68255 0.9594 0.0
C319 C 0.27307 0.72024 0.97681 0.0
C320 C 0.32775 0.70787 -0.01019 0.0
C321 C 0.35217 0.66021 0.98362 0.0
H322 H 0.96067 0.89477 0.02033 0.0
H323 H 0.87855 0.86122 0.93521 0.0
H324 H 0.90143 0.82806 0.03747 0.0
H325 H 0.82088 0.79411 0.9521 0.0
H326 H 0.67339 0.72595 0.00554 0.0
H327 H 0.73779 0.78409 0.98361 0.0
H328 H 0.89024 0.73783 0.03245 0.0
H329 H 0.82541 0.68034 0.05464 0.0
C330 C 0.9303 0.87306 0.00527 0.0
C331 C 0.92408 0.88356 0.97649 0.0
C332 C 0.89673 0.83455 0.01499 0.0
C333 C 0.85648 0.80569 -0.0039 0.0
C334 C 0.85084 0.81599 0.96729 0.0
C335 C 0.88413 0.85447 0.95762 0.0
C336 C 0.72098 0.72728 0.01091 0.0
C337 C 0.74443 0.69901 0.03187 0.0
C338 C 0.75789 0.7607 -0.00152 0.0
C339 C 0.81898 0.7662 0.0067 0.0
C340 C 0.84311 0.73537 0.02623 0.0
C341 C 0.80618 0.70216 0.03871 0.0
H342 H 0.96356 0.13689 0.92346 0.0
H343 H 0.92601 0.14245 0.0147 0.0
H344 H 0.89611 0.20611 0.91963 0.0
H345 H 0.85748 0.21279 0.01086 0.0
H346 H 0.67555 0.27484 0.96968 0.0
H347 H 0.75638 0.22232 0.98569 0.0
H348 H 0.88288 0.29536 0.93481 0.0
H349 H 0.80216 0.34667 0.9185 0.0
C350 C 0.94146 0.15349 0.94286 0.0
C351 C 0.9499 0.13408 0.96935 0.0
C352 C 0.90303 0.19351 0.94072 0.0
C353 C 0.87146 0.21515 0.96497 0.0
C354 C 0.88109 0.19679 -0.00821 0.0
C355 C 0.92054 0.15685 -0.00597 0.0
C356 C 0.72104 0.28051 0.9627 0.0
C357 C 0.73266 0.31417 0.94258 0.0
C358 C 0.76733 0.25056 0.97186 0.0
C359 C 0.82582 0.25407 0.96108 0.0
C360 C 0.83809 0.29104 0.94303 0.0
C361 C 0.792 0.32054 0.93378 0.0
H362 H 0.71301 0.71227 0.46723 0.0
H363 H 0.63214 0.75793 0.54965 0.0
H364 H 0.74541 0.79822 0.46431 0.0
H365 H 0.66711 0.84252 0.54814 0.0
H366 H 0.74621 0.99026 0.54953 0.0
H367 H 0.67888 0.92001 0.53435 0.0
H368 H 0.82374 0.84481 0.48601 0.0
H369 H 0.88862 0.91664 0.49957 0.0
C370 C 0.70004 0.74125 0.48412 0.0
C371 C 0.66955 0.72891 0.50849 0.0
C372 C 0.71967 0.79039 0.48285 0.0
C373 C 0.71069 0.82767 0.50637 0.0
C374 C 0.67489 0.81567 0.52938 0.0
C375 C 0.65448 0.76691 0.53033 0.0
C376 C 0.76268 0.95915 0.53495 0.0
C377 C 0.82251 0.95858 0.52583 0.0
C378 C 0.7244 0.91856 0.52643 0.0
C379 C 0.74575 0.87567 0.5094 0.0
C380 C 0.80477 0.87691 0.4988 0.0
C381 C 0.84245 0.91808 0.50672 0.0
H382 H 0.78181 0.46693 0.52573 0.0
H383 H 0.64656 0.42972 0.45886 0.0
H384 H 0.82715 0.38603 0.51437 0.0
H385 H 0.69435 0.34867 0.44617 0.0
H386 H 0.7632 0.18953 0.4471 0.0
H387 H 0.71312 0.26921 0.46007 0.0
H388 H 0.88605 0.33928 0.48125 0.0
H389 H 0.93509 0.25922 0.46961 0.0
C390 C 0.76219 0.44167 0.50819 0.0
C391 C 0.71071 0.45515 0.49303 0.0
C392 C 0.78861 0.39506 0.50152 0.0
C393 C 0.7652 0.36051 0.47907 0.0
C394 C 0.71346 0.37389 0.46385 0.0
C395 C 0.68623 0.42055 0.47091 0.0
C396 C 0.79021 0.22203 0.45486 0.0
C397 C 0.85298 0.21812 0.45762 0.0
C398 C 0.76162 0.26788 0.46202 0.0
C399 C 0.79522 0.31116 0.47172 0.0
C400 C 0.85817 0.30688 0.47451 0.0
C401 C 0.88655 0.26091 0.46782 0.0
H402 H 0.47862 0.43243 0.53038 0.0
H403 H 0.37435 0.42127 0.45074 0.0
H404 H 0.4348 0.35376 0.54146 0.0
H405 H 0.33212 0.34207 0.46115 0.0
H406 H 0.19476 0.26897 0.51746 0.0
H407 H 0.2575 0.32837 0.49619 0.0
H408 H 0.41629 0.26422 0.53123 0.0
H409 H 0.35305 0.20448 0.55263 0.0
C410 C 0.44823 0.4121 0.51472 0.0
C411 C 0.42912 0.4331 0.48995 0.0
C412 C 0.42301 0.36704 0.52103 0.0
C413 C 0.37883 0.34222 0.50248 0.0
C414 C 0.36472 0.36092 0.47626 0.0
C415 C 0.38925 0.40606 0.47018 0.0
C416 C 0.24311 0.26658 0.51998 0.0
C417 C 0.26881 0.23231 0.53696 0.0
C418 C 0.27927 0.30068 0.50775 0.0
C419 C 0.34207 0.30124 0.5121 0.0
C420 C 0.36806 0.26525 0.52783 0.0
C421 C 0.33182 0.23108 0.54008 0.0
H422 H 0.47485 0.73995 0.4975 0.0
H423 H 0.32485 0.67757 0.53936 0.0
H424 H 0.40904 0.80453 0.48207 0.0
H425 H 0.25953 0.74181 0.52378 0.0
H426 H 0.16015 0.79384 0.44322 0.0
H427 H 0.22769 0.74595 0.47099 0.0
H428 H 0.33463 0.87825 0.49641 0.0
H429 H 0.26589 0.92667 0.46868 0.0
C430 C 0.42847 0.74098 0.50432 0.0
C431 C 0.40494 0.70295 0.51924 0.0
C432 C 0.39074 0.77797 0.49539 0.0
C433 C 0.32888 0.77748 0.50117 0.0
C434 C 0.3068 0.74252 0.51855 0.0
C435 C 0.34442 0.70587 0.52761 0.0
C436 C 0.19784 0.81278 0.45489 0.0
C437 C 0.20795 0.86386 0.45372 0.0
C438 C 0.23624 0.7855 0.471 0.0
C439 C 0.28629 0.80842 0.48604 0.0
C440 C 0.29638 0.85967 0.48506 0.0
C441 C 0.25706 0.88732 0.46931 0.0
H442 H 0.1234 0.94096 0.10486 0.0
H443 H 0.96289 0.01654 0.08067 0.0
H444 H 0.07993 0.92983 0.15133 0.0
H445 H 0.91914 0.00545 0.12771 0.0
H446 H 0.92903 0.04686 0.23003 0.0
H447 H 0.94857 0.04356 0.17859 0.0
H448 H 0.99647 0.88832 0.1756 0.0
H449 H 0.97509 0.89089 0.22719 0.0
C450 C 0.07845 0.95476 0.10937 0.0
C451 C 0.04683 0.98022 0.08926 0.0
C452 C 0.05332 0.9479 0.13591 0.0
C453 C 0.99617 0.96679 0.14317 0.0
C454 C 0.96344 0.9907 0.12268 0.0
C455 C 0.98835 0.99695 0.0958 0.0
C456 C 0.9418 0.01144 0.21837 0.0
C457 C 0.95075 0.96916 0.23297 0.0
C458 C 0.95308 0.00967 0.18879 0.0
C459 C 0.97424 0.96577 0.1731 0.0
C460 C 0.98072 0.92283 0.18726 0.0
C461 C 0.96883 0.92443 0.21685 0.0
H462 H 0.16547 0.94102 0.87651 0.0
H463 H 0.12164 0.09198 0.91099 0.0
H464 H 0.16864 0.96613 0.82777 0.0
H465 H 0.12399 0.11685 0.86213 0.0
H466 H 0.18608 0.03453 0.74292 0.0
H467 H 0.21467 0.02411 0.79302 0.0
H468 H 0.04455 0.08605 0.82225 0.0
H469 H 0.01586 0.09605 0.77225 0.0
C470 C 0.1588 0.97994 0.87378 0.0
C471 C 0.14279 0.01442 0.89744 0.0
C472 C 0.16055 0.9943 0.8459 0.0
C473 C 0.1455 0.04319 0.84123 0.0
C474 C 0.13512 0.07878 0.86521 0.0
C475 C 0.13438 0.06462 0.89318 0.0
C476 C 0.15522 0.04642 0.76016 0.0
C477 C 0.09862 0.06577 0.75382 0.0
C478 C 0.17157 0.04046 0.78872 0.0
C479 C 0.13204 0.05468 0.81145 0.0
C480 C 0.07625 0.07551 0.80516 0.0
C481 C 0.05951 0.08066 0.77658 0.0
H482 H 0.48886 0.51041 0.58064 0.0
H483 H 0.61739 0.60636 0.63121 0.0
H484 H 0.46187 0.47288 0.62405 0.0
H485 H 0.58932 0.57008 0.67454 0.0
H486 H 0.58325 0.46246 0.73929 0.0
H487 H 0.60463 0.4919 0.69318 0.0
H488 H 0.41511 0.48721 0.67119 0.0
H489 H 0.39384 0.45469 0.7168 0.0
C490 C 0.51041 0.52422 0.60112 0.0
C491 C 0.55559 0.56109 0.6025 0.0
C492 C 0.49504 0.50263 0.62597 0.0
C493 C 0.52435 0.51776 0.65263 0.0
C494 C 0.56719 0.55648 0.65417 0.0
C495 C 0.58284 0.5777 0.62939 0.0
C496 C 0.54617 0.46613 0.72433 0.0
C497 C 0.48671 0.45654 0.73194 0.0
C498 C 0.55837 0.48398 0.69806 0.0
C499 C 0.51142 0.49318 0.67884 0.0
C500 C 0.45228 0.48077 0.68557 0.0
C501 C 0.44008 0.4625 0.71183 0.0
H502 H 0.42417 0.61335 0.4021 0.0
H503 H 0.61836 0.61443 0.40786 0.0
H504 H 0.4282 0.62648 0.35192 0.0
H505 H 0.62253 0.63005 0.35695 0.0
H506 H 0.59448 0.58447 0.25705 0.0
H507 H 0.6039 0.58729 0.30967 0.0
H508 H 0.44851 0.68333 0.31938 0.0
H509 H 0.43743 0.67757 0.26674 0.0
C510 C 0.46801 0.61729 0.39276 0.0
C511 C 0.52105 0.61267 0.40902 0.0
C512 C 0.47027 0.62543 0.36386 0.0
C513 C 0.52566 0.62998 0.35033 0.0
C514 C 0.57906 0.62637 0.36667 0.0
C515 C 0.57677 0.61758 0.3958 0.0
C516 C 0.56294 0.60657 0.27063 0.0
C517 C 0.5147 0.63017 0.25816 0.0
C518 C 0.56854 0.60856 0.30073 0.0
C519 C 0.5264 0.63487 0.31882 0.0
C520 C 0.48074 0.66149 0.30611 0.0
C521 C 0.47441 0.65852 0.27604 0.0
loop_
_geom_bond_atom_site_label_1
_geom_bond_atom_site_label_2
_geom_bond_distance
_geom_bond_site_symmetry_2
_ccdc_geom_bond_type
O0 Mg1 1.990 . S
O0 C14 1.253 . S
Mg1 O0 1.990 . S
Mg1 O4 2.180 . S
Mg1 O5 2.117 . S
Mg1 O19 2.030 1_545 S
O2 Mg3 2.072 . S
O2 C14 1.260 . S
Mg3 O2 2.072 . S
Mg3 O4 2.099 . S
Mg3 O6 2.079 1_554 S
Mg3 O7 2.072 . S
Mg3 O9 2.099 1_444 S
Mg3 O20 2.079 1_544 S
O4 Mg1 2.180 . S
O4 Mg3 2.099 . S
O4 C15 1.279 . S
O5 Mg1 2.117 . S
O5 C15 1.250 . S
O6 Mg3 2.079 1_556 S
O6 C16 1.264 . S
O7 Mg3 2.072 . S
O7 C17 1.260 1_455 S
Mg8 O9 2.180 1_545 S
Mg8 O10 2.030 . S
Mg8 O11 1.990 . S
Mg8 O12 2.117 1_545 S
O9 Mg3 2.099 1_666 S
O9 Mg8 2.180 1_565 S
O9 C18 1.279 1_556 S
O10 Mg8 2.030 . S
O10 C16 1.248 1_655 S
O11 Mg8 1.990 . S
O11 C17 1.253 1_556 S
O12 Mg8 2.117 1_565 S
O12 C18 1.250 1_556 S
C13 O19 1.248 . S
C13 O20 1.264 1_554 S
C14 O0 1.253 . S
C14 O2 1.260 . S
C15 O4 1.279 . S
C15 O5 1.250 . S
C16 O6 1.264 . S
C16 O10 1.248 1_455 S
C17 O7 1.260 1_655 S
C17 O11 1.253 1_554 S
C18 O9 1.279 1_554 S
C18 O12 1.250 1_554 S
O19 Mg1 2.030 1_565 S
O19 C13 1.248 . S
O20 Mg3 2.079 1_566 S
O20 C13 1.264 1_556 S
O21 Mg22 1.990 . S
O21 C35 1.253 . S
Mg22 O21 1.990 . S
Mg22 O25 2.180 . S
Mg22 O26 2.117 . S
Mg22 O40 2.030 . S
O23 Mg24 2.072 . S
O23 C35 1.260 . S
Mg24 O23 2.072 . S
Mg24 O25 2.099 . S
Mg24 O27 2.079 . S
Mg24 O28 2.072 . S
Mg24 O30 2.099 . S
Mg24 O41 2.079 . S
O25 Mg22 2.180 . S
O25 Mg24 2.099 . S
O25 C36 1.279 . S
O26 Mg22 2.117 . S
O26 C36 1.250 . S
O27 Mg24 2.079 . S
O27 C37 1.264 . S
O28 Mg24 2.072 . S
O28 C38 1.260 . S
Mg29 O30 2.180 . S
Mg29 O31 2.030 . S
Mg29 O32 1.990 . S
Mg29 O33 2.117 . S
O30 Mg24 2.099 . S
O30 Mg29 2.180 . S
O30 C39 1.279 . S
O31 Mg29 2.030 . S
O31 C37 1.248 . S
O32 Mg29 1.990 . S
O32 C38 1.253 . S
O33 Mg29 2.117 . S
O33 C39 1.250 . S
C34 O40 1.248 . S
C34 O41 1.264 . S
C35 O21 1.253 . S
C35 O23 1.260 . S
C36 O25 1.279 . S
C36 O26 1.250 . S
C37 O27 1.264 . S
C37 O31 1.248 . S
C38 O28 1.260 . S
C38 O32 1.253 . S
C39 O30 1.279 . S
C39 O33 1.250 . S
O40 Mg22 2.030 . S
O40 C34 1.248 . S
O41 Mg24 2.079 . S
O41 C34 1.264 . S
C42 C43 1.391 . S
C42 C46 1.391 . S
C42 H84 0.948 . S
C43 C42 1.391 . S
C43 C44 1.391 . S
C44 C43 1.391 . S
C44 H100 0.947 . S
C44 C101 1.392 . S
C45 C46 1.391 . S
C45 C49 1.397 . S
C45 C101 1.419 . S
C46 C42 1.391 . S
C46 C45 1.391 . S
C46 C47 1.399 . S
C47 C46 1.399 . S
C47 C50 1.396 . S
C47 C59 1.453 1_565 S
C47 C60 1.684 . S
H48 C72 0.948 . S
C49 C45 1.397 . S
C49 C50 1.394 . S
C49 C68 1.723 . S
C50 C47 1.396 . S
C50 C49 1.394 . S
C50 C80 1.723 1_565 S
H51 C74 0.947 . S
H52 C75 0.948 . S
H53 C81 0.982 1_455 S
H54 C82 0.979 . S
H55 C82 0.980 . S
H56 C82 0.983 . S
H57 C81 0.979 . S
H58 C81 0.977 . S
C59 C47 1.453 1_545 S
C59 H88 0.982 . S
C59 H89 0.979 1_545 S
C59 H90 0.977 . S
C60 C47 1.684 . S
C60 H85 0.979 1_455 S
C60 H86 0.980 1_455 S
C60 H87 0.983 . S
C61 C62 1.391 . S
C61 C66 1.391 . S
C61 H91 0.948 . S
C62 C61 1.391 . S
C62 C63 1.391 1_565 S
C63 C62 1.391 1_545 S
C63 C64 1.391 1_455 S
C63 H92 0.947 1_455 S
C64 C63 1.391 1_655 S
C64 C65 1.417 1_655 S
C64 H93 0.950 . S
C65 C64 1.417 1_455 S
C65 C66 1.391 1_545 S
C65 C69 1.397 . S
C66 C61 1.391 . S
C66 C65 1.391 1_565 S
C66 C67 1.399 . S
C67 C66 1.399 . S
C67 C68 1.396 . S
C67 C70 1.453 . S
C67 C71 1.684 . S
C68 C49 1.723 . S
C68 C67 1.396 . S
C68 C69 1.394 1_565 S
C69 C65 1.397 . S
C69 C68 1.394 1_545 S
C69 C79 1.723 . S
C70 C67 1.453 . S
C70 H94 0.982 . S
C70 H95 0.979 . S
C70 H96 0.977 . S
C71 C67 1.684 . S
C71 H97 0.979 . S
C71 H98 0.980 . S
C71 H99 0.983 . S
C72 H48 0.948 . S
C72 C73 1.391 . S
C72 C77 1.391 . S
C73 C72 1.391 . S
C73 C74 1.391 . S
C74 H51 0.947 . S
C74 C73 1.391 . S
C74 C75 1.392 . S
C75 H52 0.948 . S
C75 C74 1.392 . S
C75 C76 1.419 . S
C76 C75 1.419 . S
C76 C77 1.391 . S
C76 C80 1.397 1_655 S
C77 C72 1.391 . S
C77 C76 1.391 . S
C77 C78 1.399 . S
C78 C77 1.399 . S
C78 C79 1.396 1_655 S
C78 C81 1.453 . S
C78 C82 1.684 . S
C79 C69 1.723 . S
C79 C78 1.396 1_455 S
C79 C80 1.394 . S
C80 C50 1.723 1_545 S
C80 C76 1.397 1_455 S
C80 C79 1.394 . S
C81 H53 0.982 1_655 S
C81 H57 0.979 . S
C81 H58 0.977 . S
C81 C78 1.453 . S
C82 H54 0.979 . S
C82 H55 0.980 . S
C82 H56 0.983 . S
C82 C78 1.684 . S
H83 C101 0.948 . S
H84 C42 0.948 . S
H85 C60 0.979 1_655 S
H86 C60 0.980 1_655 S
H87 C60 0.983 . S
H88 C59 0.982 . S
H89 C59 0.979 1_565 S
H90 C59 0.977 . S
H91 C61 0.948 . S
H92 C63 0.947 1_655 S
H93 C64 0.950 . S
H94 C70 0.982 . S
H95 C70 0.979 . S
H96 C70 0.977 . S
H97 C71 0.979 . S
H98 C71 0.980 . S
H99 C71 0.983 . S
H100 C44 0.947 . S
C101 C44 1.392 . S
C101 C45 1.419 . S
C101 H83 0.948 . S
C102 C103 1.391 . S
C102 C106 1.391 . S
C102 H144 0.948 . S
C103 C102 1.391 . S
C103 C104 1.391 . S
C104 C103 1.391 . S
C104 H160 0.947 . S
C104 C161 1.392 . S
C105 C106 1.391 . S
C105 C109 1.397 . S
C105 C161 1.419 . S
C106 C102 1.391 . S
C106 C105 1.391 . S
C106 C107 1.399 . S
C107 C106 1.399 . S
C107 C110 1.396 . S
C107 C119 1.453 . S
C107 C120 1.684 1_455 S
H108 C132 0.948 . S
C109 C105 1.397 . S
C109 C110 1.394 . S
C109 C128 1.723 . S
C110 C107 1.396 . S
C110 C109 1.394 . S
C110 C140 1.723 1_455 S
H111 C134 0.947 . S
H112 C135 0.948 . S
H113 C141 0.982 . S
H114 C142 0.979 . S
H115 C142 0.980 . S
H116 C142 0.983 1_565 S
H117 C141 0.979 . S
H118 C141 0.977 . S
C119 C107 1.453 . S
C119 H148 0.982 . S
C119 H149 0.979 . S
C119 H150 0.977 . S
C120 C107 1.684 1_655 S
C120 H145 0.979 . S
C120 H146 0.980 . S
C120 H147 0.983 . S
C121 C122 1.391 1_455 S
C121 C126 1.391 . S
C121 H151 0.948 . S
C122 C121 1.391 1_655 S
C122 C123 1.391 . S
C123 C122 1.391 . S
C123 C124 1.392 . S
C123 H152 0.947 . S
C124 C123 1.392 . S
C124 C125 1.419 . S
C124 H153 0.948 . S
C125 C124 1.419 . S
C125 C126 1.391 1_655 S
C125 C129 1.397 . S
C126 C121 1.391 . S
C126 C125 1.391 1_455 S
C126 C127 1.399 . S
C127 C126 1.399 . S
C127 C128 1.396 . S
C127 C130 1.453 . S
C127 C131 1.684 . S
C128 C109 1.723 . S
C128 C127 1.396 . S
C128 C129 1.394 1_455 S
C129 C125 1.397 . S
C129 C128 1.394 1_655 S
C129 C139 1.723 . S
C130 C127 1.453 . S
C130 H154 0.982 . S
C130 H155 0.979 . S
C130 H156 0.977 . S
C131 C127 1.684 . S
C131 H157 0.979 . S
C131 H158 0.980 . S
C131 H159 0.983 . S
C132 H108 0.948 . S
C132 C133 1.391 . S
C132 C137 1.391 . S
C133 C132 1.391 . S
C133 C134 1.391 . S
C134 H111 0.947 . S
C134 C133 1.391 . S
C134 C135 1.392 1_565 S
C135 H112 0.948 . S
C135 C134 1.392 1_545 S
C135 C136 1.419 . S
C136 C135 1.419 . S
C136 C137 1.391 1_545 S
C136 C140 1.397 . S
C137 C132 1.391 . S
C137 C136 1.391 1_565 S
C137 C138 1.399 1_565 S
C138 C137 1.399 1_545 S
C138 C139 1.396 . S
C138 C141 1.453 1_545 S
C138 C142 1.684 . S
C139 C129 1.723 . S
C139 C138 1.396 . S
C139 C140 1.394 . S
C140 C110 1.723 1_655 S
C140 C136 1.397 . S
C140 C139 1.394 . S
C141 H113 0.982 . S
C141 H117 0.979 . S
C141 H118 0.977 . S
C141 C138 1.453 1_565 S
C142 H114 0.979 . S
C142 H115 0.980 . S
C142 H116 0.983 1_545 S
C142 C138 1.684 . S
H143 C161 0.948 . S
H144 C102 0.948 . S
H145 C120 0.979 . S
H146 C120 0.980 . S
H147 C120 0.983 . S
H148 C119 0.982 . S
H149 C119 0.979 . S
H150 C119 0.977 . S
H151 C121 0.948 . S
H152 C123 0.947 . S
H153 C124 0.948 . S
H154 C130 0.982 . S
H155 C130 0.979 . S
H156 C130 0.977 . S
H157 C131 0.979 . S
H158 C131 0.980 . S
H159 C131 0.983 . S
H160 C104 0.947 . S
C161 C104 1.392 . S
C161 C105 1.419 . S
C161 H143 0.948 . S
C162 C163 1.391 . S
C162 C166 1.391 . S
C162 H204 0.948 1_556 S
C163 C162 1.391 . S
C163 C164 1.391 . S
C164 C163 1.391 . S
C164 H220 0.947 . S
C164 C221 1.392 . S
C165 C166 1.391 . S
C165 C169 1.397 . S
C165 C221 1.419 . S
C166 C162 1.391 . S
C166 C165 1.391 . S
C166 C167 1.399 . S
C167 C166 1.399 . S
C167 C170 1.396 . S
C167 C179 1.453 . S
C167 C180 1.684 1_556 S
H168 C192 0.948 . S
C169 C165 1.397 . S
C169 C170 1.394 . S
C169 C188 1.723 . S
C170 C167 1.396 . S
C170 C169 1.394 . S
C170 C200 1.723 . S
H171 C194 0.947 . S
H172 C195 0.928 1_554 S
H173 C201 0.982 . S
H174 C202 0.979 . S
H175 C202 0.980 . S
H176 C202 0.983 . S
H177 C201 0.979 . S
H178 C201 0.977 . S
C179 C167 1.453 . S
C179 H208 0.982 . S
C179 H209 0.979 1_556 S
C179 H210 0.977 1_556 S
C180 C167 1.684 1_554 S
C180 H205 0.979 1_554 S
C180 H206 0.980 . S
C180 H207 0.983 . S
C181 C182 1.391 . S
C181 C186 1.391 . S
C181 H211 0.948 . S
C182 C181 1.391 . S
C182 C183 1.391 . S
C183 C182 1.391 . S
C183 C184 1.392 . S
C183 H212 0.947 . S
C184 C183 1.392 . S
C184 C185 1.419 . S
C184 H213 0.948 . S
C185 C184 1.419 . S
C185 C186 1.391 . S
C185 C189 1.397 . S
C186 C181 1.391 . S
C186 C185 1.391 . S
C186 C187 1.399 . S
C187 C186 1.399 . S
C187 C188 1.396 . S
C187 C190 1.453 . S
C187 C191 1.684 . S
C188 C169 1.723 . S
C188 C187 1.396 . S
C188 C189 1.394 . S
C189 C185 1.397 . S
C189 C188 1.394 . S
C189 C199 1.723 . S
C190 C187 1.453 . S
C190 H214 0.982 . S
C190 H215 0.979 . S
C190 H216 0.977 . S
C191 C187 1.684 . S
C191 H217 0.979 . S
C191 H218 0.980 . S
C191 H219 0.983 . S
C192 H168 0.948 . S
C192 C193 1.391 . S
C192 C197 1.391 . S
C193 C192 1.391 . S
C193 C194 1.391 1_556 S
C194 H171 0.947 . S
C194 C193 1.391 1_554 S
C194 C195 1.392 1_554 S
C195 H172 0.928 1_556 S
C195 C194 1.392 1_556 S
C195 C196 1.419 . S
C196 C195 1.419 . S
C196 C197 1.391 . S
C196 C200 1.397 . S
C197 C192 1.391 . S
C197 C196 1.391 . S
C197 C198 1.399 . S
C198 C197 1.399 . S
C198 C199 1.396 . S
C198 C201 1.453 . S
C198 C202 1.684 . S
C199 C189 1.723 . S
C199 C198 1.396 . S
C199 C200 1.394 . S
C200 C170 1.723 . S
C200 C196 1.397 . S
C200 C199 1.394 . S
C201 H173 0.982 . S
C201 H177 0.979 . S
C201 H178 0.977 . S
C201 C198 1.453 . S
C202 H174 0.979 . S
C202 H175 0.980 . S
C202 H176 0.983 . S
C202 C198 1.684 . S
H203 C221 0.948 . S
H204 C162 0.948 1_554 S
H205 C180 0.979 1_556 S
H206 C180 0.980 . S
H207 C180 0.983 . S
H208 C179 0.982 . S
H209 C179 0.979 1_554 S
H210 C179 0.977 1_554 S
H211 C181 0.948 . S
H212 C183 0.947 . S
H213 C184 0.948 . S
H214 C190 0.982 . S
H215 C190 0.979 . S
H216 C190 0.977 . S
H217 C191 0.979 . S
H218 C191 0.980 . S
H219 C191 0.983 . S
H220 C164 0.947 . S
C221 C164 1.392 . S
C221 C165 1.419 . S
C221 H203 0.948 . S
C222 C223 1.391 . S
C222 C226 1.391 . S
C222 H264 0.948 . S
C223 C222 1.391 . S
C223 C224 1.391 . S
C224 C223 1.391 . S
C224 H280 0.947 . S
C224 C281 1.392 . S
C225 C226 1.391 . S
C225 C229 1.397 . S
C225 C281 1.419 . S
C226 C222 1.391 . S
C226 C225 1.391 . S
C226 C227 1.399 . S
C227 C226 1.399 . S
C227 C230 1.396 . S
C227 C239 1.453 . S
C227 C240 1.684 . S
H228 C252 0.948 . S
C229 C225 1.397 . S
C229 C230 1.394 . S
C229 C248 1.723 . S
C230 C227 1.396 . S
C230 C229 1.394 . S
C230 C260 1.723 . S
H231 C254 0.947 1_556 S
H232 C255 0.948 . S
H233 C261 0.982 . S
H234 C262 0.979 . S
H235 C262 0.980 . S
H236 C262 0.983 . S
H237 C261 0.979 . S
H238 C261 0.977 . S
C239 C227 1.453 . S
C239 H268 0.982 . S
C239 H269 0.979 . S
C239 H270 0.977 . S
C240 C227 1.684 . S
C240 H265 0.979 . S
C240 H266 0.980 . S
C240 H267 0.983 1_554 S
C241 C242 1.391 . S
C241 C246 1.391 . S
C241 H271 0.948 . S
C242 C241 1.391 . S
C242 C243 1.391 . S
C243 C242 1.391 . S
C243 C244 1.392 . S
C243 H272 0.947 . S
C244 C243 1.392 . S
C244 C245 1.419 . S
C244 H273 0.948 . S
C245 C244 1.419 . S
C245 C246 1.391 . S
C245 C249 1.397 . S
C246 C241 1.391 . S
C246 C245 1.391 . S
C246 C247 1.399 . S
C247 C246 1.399 . S
C247 C248 1.396 . S
C247 C250 1.453 . S
C247 C251 1.684 . S
C248 C229 1.723 . S
C248 C247 1.396 . S
C248 C249 1.394 . S
C249 C245 1.397 . S
C249 C248 1.394 . S
C249 C259 1.723 . S
C250 C247 1.453 . S
C250 H274 0.982 . S
C250 H275 0.979 . S
C250 H276 0.977 . S
C251 C247 1.684 . S
C251 H277 0.979 . S
C251 H278 0.980 . S
C251 H279 0.983 . S
C252 H228 0.948 . S
C252 C253 1.391 . S
C252 C257 1.391 . S
C253 C252 1.391 . S
C253 C254 1.391 . S
C254 H231 0.947 1_554 S
C254 C253 1.391 . S
C254 C255 1.392 . S
C255 H232 0.948 . S
C255 C254 1.392 . S
C255 C256 1.419 . S
C256 C255 1.419 . S
C256 C257 1.391 . S
C256 C260 1.397 . S
C257 C252 1.391 . S
C257 C256 1.391 . S
C257 C258 1.399 . S
C258 C257 1.399 . S
C258 C259 1.396 . S
C258 C261 1.453 . S
C258 C262 1.684 . S
C259 C249 1.723 . S
C259 C258 1.396 . S
C259 C260 1.394 . S
C260 C230 1.723 . S
C260 C256 1.397 . S
C260 C259 1.394 . S
C261 H233 0.982 . S
C261 H237 0.979 . S
C261 H238 0.977 . S
C261 C258 1.453 . S
C262 H234 0.979 . S
C262 H235 0.980 . S
C262 H236 0.983 . S
C262 C258 1.684 . S
H263 C281 0.948 . S
H264 C222 0.948 . S
H265 C240 0.979 . S
H266 C240 0.980 . S
H267 C240 0.983 1_556 S
H268 C239 0.982 . S
H269 C239 0.979 . S
H270 C239 0.977 . S
H271 C241 0.948 . S
H272 C243 0.947 . S
H273 C244 0.948 . S
H274 C250 0.982 . S
H275 C250 0.979 . S
H276 C250 0.977 . S
H277 C251 0.979 . S
H278 C251 0.980 . S
H279 C251 0.983 . S
H280 C224 0.947 . S
C281 C224 1.392 . S
C281 C225 1.419 . S
C281 H263 0.948 . S
H282 C290 0.950 . S
H283 C295 0.950 . S
H284 C292 0.950 . S
H285 C294 0.950 . S
H286 C296 0.950 1_556 S
H287 C298 0.952 . S
H288 C300 0.950 . S
H289 C301 0.950 . S
C290 H282 0.950 . S
C290 C291 1.386 . S
C290 C292 1.391 . S
C291 C290 1.386 . S
C291 C295 1.393 1_554 S
C292 H284 0.950 . S
C292 C290 1.391 . S
C292 C293 1.400 . S
C293 C292 1.400 . S
C293 C294 1.398 1_554 S
C293 C299 1.491 . S
C294 H285 0.950 . S
C294 C293 1.398 1_556 S
C294 C295 1.391 . S
C295 H283 0.950 . S
C295 C291 1.393 1_556 S
C295 C294 1.391 . S
C296 H286 0.950 1_554 S
C296 C297 1.386 . S
C296 C298 1.391 1_554 S
C297 C296 1.386 . S
C297 C301 1.393 . S
C298 H287 0.952 . S
C298 C296 1.391 1_556 S
C298 C299 1.398 1_556 S
C299 C293 1.491 . S
C299 C298 1.398 1_554 S
C299 C300 1.398 . S
C300 H288 0.950 . S
C300 C299 1.398 . S
C300 C301 1.391 . S
C301 H289 0.950 . S
C301 C297 1.393 . S
C301 C300 1.391 . S
H302 C310 0.950 . S
H303 C315 0.950 . S
H304 C312 0.946 1_556 S
H305 C314 0.950 . S
H306 C316 0.950 . S
H307 C318 0.949 1_554 S
H308 C320 0.950 . S
H309 C321 0.950 . S
C310 H302 0.950 . S
C310 C311 1.386 . S
C310 C312 1.391 . S
C311 C310 1.386 . S
C311 C315 1.393 . S
C312 H304 0.946 1_554 S
C312 C310 1.391 . S
C312 C313 1.404 . S
C313 C312 1.404 . S
C313 C314 1.398 . S
C313 C319 1.491 1_554 S
C314 H305 0.950 . S
C314 C313 1.398 . S
C314 C315 1.391 . S
C315 H303 0.950 . S
C315 C311 1.393 . S
C315 C314 1.391 . S
C316 H306 0.950 . S
C316 C317 1.386 . S
C316 C318 1.391 . S
C317 C316 1.386 . S
C317 C321 1.393 . S
C318 H307 0.949 1_556 S
C318 C316 1.391 . S
C318 C319 1.401 . S
C319 C313 1.491 1_556 S
C319 C318 1.401 . S
C319 C320 1.398 . S
C320 H308 0.950 . S
C320 C319 1.398 . S
C320 C321 1.391 . S
C321 H309 0.950 . S
C321 C317 1.393 . S
C321 C320 1.391 . S
H322 C330 0.950 . S
H323 C335 0.950 1_556 S
H324 C332 0.950 . S
H325 C334 0.950 . S
H326 C336 0.950 . S
H327 C338 0.950 . S
H328 C340 0.950 . S
H329 C341 0.950 . S
C330 H322 0.950 . S
C330 C331 1.386 . S
C330 C332 1.391 . S
C331 C330 1.386 . S
C331 C335 1.393 . S
C332 H324 0.950 . S
C332 C330 1.391 . S
C332 C333 1.400 . S
C333 C332 1.400 . S
C333 C334 1.398 . S
C333 C339 1.491 . S
C334 H325 0.950 . S
C334 C333 1.398 . S
C334 C335 1.391 . S
C335 H323 0.950 1_554 S
C335 C331 1.393 . S
C335 C334 1.391 . S
C336 H326 0.950 . S
C336 C337 1.386 . S
C336 C338 1.391 . S
C337 C336 1.386 . S
C337 C341 1.393 . S
C338 H327 0.950 . S
C338 C336 1.391 . S
C338 C339 1.400 . S
C339 C333 1.491 . S
C339 C338 1.400 . S
C339 C340 1.398 . S
C340 H328 0.950 . S
C340 C339 1.398 . S
C340 C341 1.391 . S
C341 H329 0.950 . S
C341 C337 1.393 . S
C341 C340 1.391 . S
H342 C350 0.950 . S
H343 C355 0.950 . S
H344 C352 0.950 . S
H345 C354 0.950 . S
H346 C356 0.950 1_554 S
H347 C358 0.950 . S
H348 C360 0.950 . S
H349 C361 0.950 . S
C350 H342 0.950 . S
C350 C351 1.386 1_556 S
C350 C352 1.391 . S
C351 C350 1.386 1_554 S
C351 C355 1.393 . S
C352 H344 0.950 . S
C352 C350 1.391 . S
C352 C353 1.400 . S
C353 C352 1.400 . S
C353 C354 1.398 1_556 S
C353 C359 1.491 . S
C354 H345 0.950 . S
C354 C353 1.398 1_554 S
C354 C355 1.391 . S
C355 H343 0.950 . S
C355 C351 1.393 . S
C355 C354 1.391 . S
C356 H346 0.950 1_556 S
C356 C357 1.386 . S
C356 C358 1.391 1_556 S
C357 C356 1.386 . S
C357 C361 1.393 . S
C358 H347 0.950 . S
C358 C356 1.391 1_554 S
C358 C359 1.400 1_554 S
C359 C353 1.491 . S
C359 C358 1.400 1_556 S
C359 C360 1.398 . S
C360 H348 0.950 . S
C360 C359 1.398 . S
C360 C361 1.391 . S
C361 H349 0.950 . S
C361 C357 1.393 . S
C361 C360 1.391 . S
H362 C370 0.950 . S
H363 C375 0.950 . S
H364 C372 0.950 . S
H365 C374 0.950 . S
H366 C376 0.950 . S
H367 C378 0.950 . S
H368 C380 0.950 . S
H369 C381 0.950 . S
C370 H362 0.950 . S
C370 C371 1.386 . S
C370 C372 1.391 . S
C371 C370 1.386 . S
C371 C375 1.393 . S
C372 H364 0.950 . S
C372 C370 1.391 . S
C372 C373 1.400 . S
C373 C372 1.400 . S
C373 C374 1.398 . S
C373 C379 1.491 . S
C374 H365 0.950 . S
C374 C373 1.398 . S
C374 C375 1.391 . S
C375 H363 0.950 . S
C375 C371 1.393 . S
C375 C374 1.391 . S
C376 H366 0.950 . S
C376 C377 1.386 . S
C376 C378 1.391 . S
C377 C376 1.386 . S
C377 C381 1.393 . S
C378 H367 0.950 . S
C378 C376 1.391 . S
C378 C379 1.400 . S
C379 C373 1.491 . S
C379 C378 1.400 . S
C379 C380 1.398 . S
C380 H368 0.950 . S
C380 C379 1.398 . S
C380 C381 1.391 . S
C381 H369 0.950 . S
C381 C377 1.393 . S
C381 C380 1.391 . S
H382 C390 0.950 . S
H383 C395 0.950 . S
H384 C392 0.950 . S
H385 C394 0.950 . S
H386 C396 0.950 . S
H387 C398 0.950 . S
H388 C400 0.950 . S
H389 C401 0.950 . S
C390 H382 0.950 . S
C390 C391 1.386 . S
C390 C392 1.391 . S
C391 C390 1.386 . S
C391 C395 1.393 . S
C392 H384 0.950 . S
C392 C390 1.391 . S
C392 C393 1.400 . S
C393 C392 1.400 . S
C393 C394 1.398 . S
C393 C399 1.491 . S
C394 H385 0.950 . S
C394 C393 1.398 . S
C394 C395 1.391 . S
C395 H383 0.950 . S
C395 C391 1.393 . S
C395 C394 1.391 . S
C396 H386 0.950 . S
C396 C397 1.386 . S
C396 C398 1.391 . S
C397 C396 1.386 . S
C397 C401 1.393 . S
C398 H387 0.950 . S
C398 C396 1.391 . S
C398 C399 1.400 . S
C399 C393 1.491 . S
C399 C398 1.400 . S
C399 C400 1.398 . S
C400 H388 0.950 . S
C400 C399 1.398 . S
C400 C401 1.391 . S
C401 H389 0.950 . S
C401 C397 1.393 . S
C401 C400 1.391 . S
H402 C410 0.950 . S
H403 C415 0.950 . S
H404 C412 0.950 . S
H405 C414 0.950 . S
H406 C416 0.950 . S
H407 C418 0.950 . S
H408 C420 0.950 . S
H409 C421 0.950 . S
C410 H402 0.950 . S
C410 C411 1.386 . S
C410 C412 1.391 . S
C411 C410 1.386 . S
C411 C415 1.393 . S
C412 H404 0.950 . S
C412 C410 1.391 . S
C412 C413 1.400 . S
C413 C412 1.400 . S
C413 C414 1.398 . S
C413 C419 1.491 . S
C414 H405 0.950 . S
C414 C413 1.398 . S
C414 C415 1.391 . S
C415 H403 0.950 . S
C415 C411 1.393 . S
C415 C414 1.391 . S
C416 H406 0.950 . S
C416 C417 1.386 . S
C416 C418 1.391 . S
C417 C416 1.386 . S
C417 C421 1.393 . S
C418 H407 0.950 . S
C418 C416 1.391 . S
C418 C419 1.400 . S
C419 C413 1.491 . S
C419 C418 1.400 . S
C419 C420 1.398 . S
C420 H408 0.950 . S
C420 C419 1.398 . S
C420 C421 1.391 . S
C421 H409 0.950 . S
C421 C417 1.393 . S
C421 C420 1.391 . S
H422 C430 0.950 . S
H423 C435 0.950 . S
H424 C432 0.950 . S
H425 C434 0.950 . S
H426 C436 0.950 . S
H427 C438 0.950 . S
H428 C440 0.950 . S
H429 C441 0.950 . S
C430 H422 0.950 . S
C430 C431 1.386 . S
C430 C432 1.391 . S
C431 C430 1.386 . S
C431 C435 1.393 . S
C432 H424 0.950 . S
C432 C430 1.391 . S
C432 C433 1.400 . S
C433 C432 1.400 . S
C433 C434 1.398 . S
C433 C439 1.491 . S
C434 H425 0.950 . S
C434 C433 1.398 . S
C434 C435 1.391 . S
C435 H423 0.950 . S
C435 C431 1.393 . S
C435 C434 1.391 . S
C436 H426 0.950 . S
C436 C437 1.386 . S
C436 C438 1.391 . S
C437 C436 1.386 . S
C437 C441 1.393 . S
C438 H427 0.950 . S
C438 C436 1.391 . S
C438 C439 1.400 . S
C439 C433 1.491 . S
C439 C438 1.400 . S
C439 C440 1.398 . S
C440 H428 0.950 . S
C440 C439 1.398 . S
C440 C441 1.391 . S
C441 H429 0.950 . S
C441 C437 1.393 . S
C441 C440 1.391 . S
H442 C450 0.950 . S
H443 C455 0.950 . S
H444 C452 0.950 . S
H445 C454 0.950 . S
H446 C456 0.950 . S
H447 C458 0.950 . S
H448 C460 0.950 . S
H449 C461 0.950 . S
C450 H442 0.950 . S
C450 C451 1.386 1_565 S
C450 C452 1.391 . S
C451 C450 1.386 1_545 S
C451 C455 1.393 . S
C452 H444 0.950 . S
C452 C450 1.391 . S
C452 C453 1.400 1_565 S
C453 C452 1.400 1_545 S
C453 C454 1.398 . S
C453 C459 1.491 . S
C454 H445 0.950 . S
C454 C453 1.398 . S
C454 C455 1.391 . S
C455 H443 0.950 . S
C455 C451 1.393 . S
C455 C454 1.391 . S
C456 H446 0.950 . S
C456 C457 1.386 1_545 S
C456 C458 1.391 . S
C457 C456 1.386 1_565 S
C457 C461 1.393 . S
C458 H447 0.950 . S
C458 C456 1.391 . S
C458 C459 1.400 . S
C459 C453 1.491 . S
C459 C458 1.400 . S
C459 C460 1.398 1_545 S
C460 H448 0.950 . S
C460 C459 1.398 1_565 S
C460 C461 1.391 . S
C461 H449 0.950 . S
C461 C457 1.393 . S
C461 C460 1.391 . S
H462 C470 0.950 . S
H463 C475 0.950 . S
H464 C472 0.950 . S
H465 C474 0.950 . S
H466 C476 0.950 . S
H467 C478 0.950 . S
H468 C480 0.950 . S
H469 C481 0.950 . S
C470 H462 0.950 . S
C470 C471 1.386 1_655 S
C470 C472 1.391 . S
C471 C470 1.386 1_455 S
C471 C475 1.393 . S
C472 H464 0.950 . S
C472 C470 1.391 . S
C472 C473 1.400 1_655 S
C473 C472 1.400 1_455 S
C473 C474 1.398 . S
C473 C479 1.491 . S
C474 H465 0.950 . S
C474 C473 1.398 . S
C474 C475 1.391 . S
C475 H463 0.950 . S
C475 C471 1.393 . S
C475 C474 1.391 . S
C476 H466 0.950 . S
C476 C477 1.386 . S
C476 C478 1.391 . S
C477 C476 1.386 . S
C477 C481 1.393 1_455 S
C478 H467 0.950 . S
C478 C476 1.391 . S
C478 C479 1.400 . S
C479 C473 1.491 . S
C479 C478 1.400 . S
C479 C480 1.398 1_455 S
C480 H468 0.950 . S
C480 C479 1.398 1_655 S
C480 C481 1.391 . S
C481 H469 0.950 . S
C481 C477 1.393 1_655 S
C481 C480 1.391 . S
H482 C490 0.950 . S
H483 C495 0.950 . S
H484 C492 0.950 . S
H485 C494 0.950 . S
H486 C496 0.950 . S
H487 C498 0.950 . S
H488 C500 0.950 . S
H489 C501 0.950 . S
C490 H482 0.950 . S
C490 C491 1.386 . S
C490 C492 1.391 . S
C491 C490 1.386 . S
C491 C495 1.393 . S
C492 H484 0.950 . S
C492 C490 1.391 . S
C492 C493 1.400 . S
C493 C492 1.400 . S
C493 C494 1.398 . S
C493 C499 1.491 . S
C494 H485 0.950 . S
C494 C493 1.398 . S
C494 C495 1.391 . S
C495 H483 0.950 . S
C495 C491 1.393 . S
C495 C494 1.391 . S
C496 H486 0.950 . S
C496 C497 1.386 . S
C496 C498 1.391 . S
C497 C496 1.386 . S
C497 C501 1.393 . S
C498 H487 0.950 . S
C498 C496 1.391 . S
C498 C499 1.400 . S
C499 C493 1.491 . S
C499 C498 1.400 . S
C499 C500 1.398 . S
C500 H488 0.950 . S
C500 C499 1.398 . S
C500 C501 1.391 . S
C501 H489 0.950 . S
C501 C497 1.393 . S
C501 C500 1.391 . S
H502 C510 0.950 . S
H503 C515 0.950 . S
H504 C512 0.950 . S
H505 C514 0.950 . S
H506 C516 0.950 . S
H507 C518 0.950 . S
H508 C520 0.950 . S
H509 C521 0.950 . S
C510 H502 0.950 . S
C510 C511 1.386 . S
C510 C512 1.391 . S
C511 C510 1.386 . S
C511 C515 1.393 . S
C512 H504 0.950 . S
C512 C510 1.391 . S
C512 C513 1.400 . S
C513 C512 1.400 . S
C513 C514 1.398 . S
C513 C519 1.491 . S
C514 H505 0.950 . S
C514 C513 1.398 . S
C514 C515 1.391 . S
C515 H503 0.950 . S
C515 C511 1.393 . S
C515 C514 1.391 . S
C516 H506 0.950 . S
C516 C517 1.386 . S
C516 C518 1.391 . S
C517 C516 1.386 . S
C517 C521 1.393 . S
C518 H507 0.950 . S
C518 C516 1.391 . S
C518 C519 1.400 . S
C519 C513 1.491 . S
C519 C518 1.400 . S
C519 C520 1.398 . S
C520 H508 0.950 . S
C520 C519 1.398 . S
C520 C521 1.391 . S
C521 H509 0.950 . S
C521 C517 1.393 . S
C521 C520 1.391 . S
C297 C253 1.508 . S
C291 C15 1.343 . S
C311 C13 1.523 . S
C317 C193 1.543 . S
C331 C18 1.295 . S
C337 C223 1.441 . S
C351 C17 1.323 . S
C357 C163 1.340 . S
C371 C36 1.352 . S
C377 C133 1.508 . S
C391 C34 1.532 . S
C397 C73 1.548 . S
C417 C103 1.436 . S
C411 C39 1.283 . S
C437 C43 1.334 . S
C431 C38 1.320 . S
C451 C14 1.501 . S
C457 C62 1.521 . S
C471 C16 1.374 . S
C477 C122 1.406 1_455 S
C497 C182 1.517 . S
C491 C35 1.507 . S
C511 C37 1.381 . S
C517 C242 1.402 . S
