# Generated by pormake.
# Topology rtl, (3,6)-cn, num edge types: 1
# Building blocks:
#     Node 0, Type 0, BuildingBlock: QEWDON_clean_linker_0, # of connection points: 3
#     Node 1, Type 0, BuildingBlock: QEWDON_clean_linker_0, # of connection points: 3
#     Node 2, Type 0, BuildingBlock: QEWDON_clean_linker_0, # of connection points: 3
#     Node 3, Type 0, BuildingBlock: QEWDON_clean_linker_0, # of connection points: 3
#     Node 4, Type 1, BuildingBlock: VOLQOD_clean_sbu_1, # of connection points: 6
#     Node 5, Type 1, BuildingBlock: VOLQOD_clean_sbu_1, # of connection points: 6
#     Edge 6, Type (0, 1), BuildingBlock: MIFKUJ_clean_linker_0, # of connection points: 2
#     Edge 7, Type (0, 1), BuildingBlock: MIFKUJ_clean_linker_0, # of connection points: 2
#     Edge 8, Type (0, 1), BuildingBlock: MIFKUJ_clean_linker_0, # of connection points: 2
#     Edge 9, Type (0, 1), BuildingBlock: MIFKUJ_clean_linker_0, # of connection points: 2
#     Edge 10, Type (0, 1), BuildingBlock: MIFKUJ_clean_linker_0, # of connection points: 2
#     Edge 11, Type (0, 1), BuildingBlock: MIFKUJ_clean_linker_0, # of connection points: 2
#     Edge 12, Type (0, 1), BuildingBlock: MIFKUJ_clean_linker_0, # of connection points: 2
#     Edge 13, Type (0, 1), BuildingBlock: MIFKUJ_clean_linker_0, # of connection points: 2
#     Edge 14, Type (0, 1), BuildingBlock: MIFKUJ_clean_linker_0, # of connection points: 2
#     Edge 15, Type (0, 1), BuildingBlock: MIFKUJ_clean_linker_0, # of connection points: 2
#     Edge 16, Type (0, 1), BuildingBlock: MIFKUJ_clean_linker_0, # of connection points: 2
#     Edge 17, Type (0, 1), BuildingBlock: MIFKUJ_clean_linker_0, # of connection points: 2
# Relax obj value: 0.048
# Max RMSD: 0.148
# Mean RMSD: 0.140
data_MOF--net-rtl--node1-VOLQOD_clean_sbu_1--node2-QEWDON_clean_linker_0--edge1-MIFKUJ_clean_linker_0
_symmetry_space_group_name_H-M    P1
_symmetry_Int_Tables_number       1
_symmetry_cell_setting            triclinic
loop_
_symmetry_equiv_pos_as_xyz
'x, y, z'
_cell_length_a     50.851537
_cell_length_b     51.316441
_cell_length_c     27.46498
_cell_angle_alpha  91.368055
_cell_angle_beta   91.798168
_cell_angle_gamma 90.073746
loop_
_atom_site_label
_atom_site_type_symbol
_atom_site_fract_x
_atom_site_fract_y
_atom_site_fract_z
_atom_type_partial_charge
H0 H 0.22675 0.83176 0.0909 0.0
C1 C 0.21648 0.83365 0.05596 0.0
C2 C 0.18972 0.84037 0.05421 0.0
C3 C 0.23032 0.83065 0.01279 0.0
H4 H 0.15649 0.85 0.00764 0.0
C5 C 0.17683 0.84364 0.0089 0.0
C6 C 0.19068 0.84162 0.96558 0.0
C7 C 0.21749 0.83498 0.96773 0.0
C8 C 0.25898 0.82654 0.01538 0.0
H9 H 0.22854 0.83401 0.9346 0.0
C10 C 0.26963 0.80131 0.01773 0.0
C11 C 0.29707 0.79786 0.02242 0.0
C12 C 0.27578 0.84824 0.01701 0.0
H13 H 0.2678 0.86778 0.01527 0.0
C14 C 0.30295 0.8449 0.02139 0.0
H15 H 0.25663 0.78453 0.01676 0.0
C16 C 0.31357 0.8199 0.02429 0.0
H17 H 0.33474 0.81777 0.02747 0.0
H18 H 0.31583 0.86173 0.0227 0.0
H19 H 0.71843 0.70332 0.47555 0.0
C20 C 0.70626 0.69823 0.50562 0.0
C21 C 0.6798 0.69121 0.49657 0.0
C22 C 0.7174 0.69731 0.55308 0.0
H23 H 0.64411 0.67833 0.52853 0.0
C24 C 0.66444 0.68393 0.53563 0.0
C25 C 0.67537 0.68204 0.58297 0.0
C26 C 0.70185 0.68913 0.59142 0.0
C27 C 0.74587 0.70238 0.5622 0.0
H28 H 0.71078 0.68737 0.62752 0.0
C29 C 0.75788 0.72528 0.54615 0.0
C30 C 0.7849 0.72995 0.55603 0.0
C31 C 0.76118 0.68407 0.58762 0.0
H32 H 0.75248 0.66619 0.59987 0.0
C33 C 0.78788 0.68852 0.5972 0.0
H34 H 0.74618 0.73943 0.52642 0.0
C35 C 0.79967 0.71128 0.58176 0.0
H36 H 0.82033 0.71446 0.59079 0.0
H37 H 0.79946 0.67434 0.61698 0.0
H38 H 0.78228 0.19819 0.0814 0.0
C39 C 0.79296 0.1952 0.04819 0.0
C40 C 0.81929 0.1868 0.05058 0.0
C41 C 0.77994 0.19822 0.00282 0.0
H42 H 0.85216 0.17394 0.00888 0.0
C43 C 0.83245 0.18192 0.00709 0.0
C44 C 0.81967 0.18475 0.96148 0.0
C45 C 0.79339 0.19315 0.95975 0.0
C46 C 0.75128 0.20276 -6e-05 0.0
H47 H 0.78302 0.19499 0.92491 0.0
C48 C 0.74033 0.22687 0.01392 0.0
C49 C 0.7129 0.23078 0.00955 0.0
C50 C 0.73478 0.18258 0.98195 0.0
H51 H 0.74293 0.16391 0.97099 0.0
C52 C 0.70768 0.18625 0.97806 0.0
H53 H 0.75309 0.24248 0.02769 0.0
C54 C 0.69678 0.21015 0.9916 0.0
H55 H 0.6757 0.21264 0.98698 0.0
H56 H 0.69509 0.1706 0.96406 0.0
H57 H 0.31282 0.28409 0.59481 0.0
C58 C 0.31742 0.29578 0.56382 0.0
C59 C 0.32552 0.32187 0.57116 0.0
C60 C 0.31659 0.28441 0.51658 0.0
H61 H 0.34003 0.35608 0.53619 0.0
C62 C 0.3326 0.33636 0.53087 0.0
C63 C 0.33186 0.32525 0.48395 0.0
C64 C 0.32359 0.29941 0.47673 0.0
C65 C 0.31154 0.25617 0.50892 0.0
H66 H 0.32373 0.29062 0.44043 0.0
C67 C 0.28781 0.24461 0.52252 0.0
C68 C 0.28302 0.21785 0.51261 0.0
C69 C 0.33066 0.24075 0.48637 0.0
H70 H 0.34911 0.24923 0.47587 0.0
C71 C 0.32621 0.2143 0.47712 0.0
H72 H 0.27307 0.2565 0.53998 0.0
C73 C 0.30257 0.20293 0.48978 0.0
H74 H 0.2994 0.18251 0.48057 0.0
H75 H 0.34102 0.20262 0.45947 0.0
O76 O 0.94033 0.97852 0.5014 0.0
Zn77 Zn 0.96094 0.01251 0.50303 0.0
O78 O 0.99916 0.00719 0.50546 0.0
Zn79 Zn 0.01469 0.02352 0.56506 0.0
Zn80 Zn 0.00564 0.96968 0.50506 0.0
Zn81 Zn 0.01532 0.02267 0.44885 0.0
O82 O 0.04137 0.05108 0.54999 0.0
O83 O 0.04339 0.04902 0.46941 0.0
O84 O 0.94985 0.03341 0.56176 0.0
O85 O 0.98681 0.04109 0.605 0.0
O86 O 0.03387 0.99678 0.60578 0.0
O87 O 0.02641 0.95938 0.56506 0.0
O88 O 0.02607 0.95849 0.44677 0.0
O89 O 0.95027 0.03313 0.44421 0.0
O90 O 0.0331 0.99508 0.40745 0.0
O91 O 0.98776 0.04142 0.40793 0.0
C92 C 0.94778 0.95482 0.50145 0.0
C93 C 0.05113 0.05863 0.5106 0.0
C94 C 0.03654 0.97216 0.60128 0.0
C95 C 0.96199 0.04349 0.59887 0.0
C96 C 0.03571 0.97051 0.41145 0.0
C97 C 0.96285 0.04369 0.41043 0.0
O98 O 0.9721 0.94901 0.50276 0.0
O99 O 0.5575 0.48148 0.03725 0.0
Zn100 Zn 0.53688 0.51537 0.03711 0.0
O101 O 0.49874 0.50964 0.03687 0.0
Zn102 Zn 0.48207 0.52308 0.97694 0.0
Zn103 Zn 0.49226 0.47229 0.03965 0.0
Zn104 Zn 0.4839 0.52729 0.094 0.0
O105 O 0.45562 0.55132 0.99255 0.0
O106 O 0.45777 0.55469 0.07333 0.0
O107 O 0.54656 0.53558 0.97868 0.0
O108 O 0.50935 0.53938 0.93471 0.0
O109 O 0.46281 0.49452 0.93814 0.0
O110 O 0.47084 0.4592 0.98125 0.0
O111 O 0.47199 0.46379 0.09851 0.0
O112 O 0.54889 0.53724 0.09541 0.0
O113 O 0.46513 0.50176 0.13639 0.0
O114 O 0.51226 0.54609 0.13444 0.0
C115 C 0.55017 0.45784 0.04057 0.0
C116 C 0.44837 0.56195 0.03233 0.0
C117 C 0.46026 0.47012 0.94442 0.0
C118 C 0.53396 0.5435 0.94108 0.0
C119 C 0.46231 0.47707 0.1333 0.0
C120 C 0.53706 0.54836 0.13039 0.0
O121 O 0.52593 0.4519 0.04256 0.0
H122 H 0.27476 0.16904 0.54733 0.0
H123 H 0.23311 0.14595 0.55195 0.0
H124 H 0.19132 0.21545 0.51011 0.0
H125 H 0.23319 0.23828 0.50233 0.0
H126 H 0.19098 0.14817 0.59985 0.0
H127 H 0.13743 0.19918 0.43993 0.0
H128 H 0.14799 0.22259 0.36549 0.0
H129 H 0.22108 0.18115 0.35711 0.0
H130 H 0.2108 0.15729 0.43108 0.0
H131 H 0.06256 0.09435 0.58377 0.0
H132 H 0.09899 0.12554 0.58894 0.0
H133 H 0.1252 0.0976 0.44915 0.0
H134 H 0.08808 0.06735 0.44278 0.0
H135 H 0.1317 0.14656 0.45288 0.0
H136 H 0.15371 0.07824 0.56348 0.0
H137 H 0.147 0.04926 0.63241 0.0
H138 H 0.14384 0.11566 0.7302 0.0
H139 H 0.15021 0.14505 0.66169 0.0
C140 C 0.25673 0.17946 0.53894 0.0
C141 C 0.25742 0.20539 0.52342 0.0
C142 C 0.23285 0.16627 0.54215 0.0
C143 C 0.20901 0.17873 0.53041 0.0
C144 C 0.20947 0.2052 0.51829 0.0
C145 C 0.23345 0.21835 0.51445 0.0
C146 C 0.18407 0.16341 0.52817 0.0
C147 C 0.17792 0.14798 0.56783 0.0
C148 C 0.16721 0.16266 0.48608 0.0
C149 C 0.17348 0.17672 0.44134 0.0
C150 C 0.15572 0.19505 0.4221 0.0
C151 C 0.16166 0.20839 0.38001 0.0
C152 C 0.18524 0.20343 0.3567 0.0
C153 C 0.20287 0.18505 0.37531 0.0
C154 C 0.19701 0.17163 0.41733 0.0
C155 C 0.07602 0.09498 0.55402 0.0
C156 C 0.07253 0.07828 0.51298 0.0
C157 C 0.09693 0.11275 0.55712 0.0
C158 C 0.11524 0.11366 0.51989 0.0
C159 C 0.1114 0.09736 0.4784 0.0
C160 C 0.09019 0.07999 0.47483 0.0
C161 C 0.13873 0.13107 0.52436 0.0
C162 C 0.14455 0.14697 0.48517 0.0
C163 C 0.15584 0.13147 0.56614 0.0
C164 C 0.15214 0.11384 0.6074 0.0
C165 C 0.15141 0.08666 0.59964 0.0
C166 C 0.14769 0.07016 0.63862 0.0
C167 C 0.14492 0.08061 0.68563 0.0
C168 C 0.14594 0.10759 0.69376 0.0
C169 C 0.14962 0.12418 0.65487 0.0
H170 H 0.14204 0.06781 0.71576 0.0
H171 H 0.1898 0.2138 0.32415 0.0
H172 H 0.28759 0.75556 0.96185 0.0
H173 H 0.31037 0.71348 0.9626 0.0
H174 H 0.3554 0.73867 0.09111 0.0
H175 H 0.3333 0.78091 0.08937 0.0
H176 H 0.38689 0.71832 0.03011 0.0
H177 H 0.30403 0.69176 0.09173 0.0
H178 H 0.25581 0.68666 0.09201 0.0
H179 H 0.25745 0.64189 0.95805 0.0
H180 H 0.30567 0.64702 0.95663 0.0
H181 H 0.43864 0.59745 0.10516 0.0
H182 H 0.40994 0.63554 0.10147 0.0
H183 H 0.38661 0.61464 0.95342 0.0
H184 H 0.41569 0.57654 0.95638 0.0
H185 H 0.34375 0.63149 0.01978 0.0
H186 H 0.42768 0.65856 0.96084 0.0
H187 H 0.47601 0.66276 0.96494 0.0
H188 H 0.47178 0.70616 0.10009 0.0
H189 H 0.42341 0.70189 0.09711 0.0
C190 C 0.30211 0.7519 0.99057 0.0
C191 C 0.30879 0.77148 0.02544 0.0
C192 C 0.31508 0.72784 0.99108 0.0
C193 C 0.33456 0.72276 0.02711 0.0
C194 C 0.34061 0.74211 0.06276 0.0
C195 C 0.32795 0.76623 0.06181 0.0
C196 C 0.34971 0.69793 0.02646 0.0
C197 C 0.37733 0.69939 0.02848 0.0
C198 C 0.33742 0.67311 0.02306 0.0
C199 C 0.30843 0.67002 0.0238 0.0
C200 C 0.29408 0.68102 0.06211 0.0
C201 C 0.26676 0.67808 0.06252 0.0
C202 C 0.25356 0.66402 0.025 0.0
C203 C 0.26769 0.65281 0.98705 0.0
C204 C 0.29502 0.65571 0.98644 0.0
C205 C 0.42726 0.60076 0.07189 0.0
C206 C 0.42957 0.584 0.03096 0.0
C207 C 0.41089 0.62256 0.06988 0.0
C208 C 0.39626 0.62789 0.02715 0.0
C209 C 0.39774 0.61078 0.98674 0.0
C210 C 0.41445 0.58913 0.98845 0.0
C211 C 0.38061 0.65215 0.02417 0.0
C212 C 0.35308 0.65054 0.02132 0.0
C213 C 0.39289 0.67687 0.02734 0.0
C214 C 0.42195 0.67969 0.02898 0.0
C215 C 0.43707 0.66881 0.99163 0.0
C216 C 0.46447 0.67124 0.99371 0.0
C217 C 0.47697 0.68466 0.03282 0.0
C218 C 0.46208 0.69575 0.06985 0.0
C219 C 0.43467 0.69335 0.06796 0.0
H220 H 0.49818 0.68651 0.03438 0.0
H221 H 0.23241 0.66177 0.02539 0.0
H222 H 0.76591 0.78005 0.56156 0.0
H223 H 0.78988 0.82047 0.5467 0.0
H224 H 0.85732 0.7756 0.50381 0.0
H225 H 0.83345 0.7353 0.51758 0.0
H226 H 0.86927 0.81252 0.57551 0.0
H227 H 0.82159 0.80753 0.4206 0.0
H228 H 0.78173 0.8048 0.36722 0.0
H229 H 0.75382 0.87686 0.42902 0.0
H230 H 0.79337 0.87984 0.48329 0.0
H231 H 0.95639 0.90286 0.48632 0.0
H232 H 0.92505 0.86721 0.49126 0.0
H233 H 0.86326 0.92211 0.52204 0.0
H234 H 0.89458 0.95824 0.5161 0.0
H235 H 0.84531 0.88284 0.46153 0.0
H236 H 0.89246 0.88936 0.61397 0.0
H237 H 0.93155 0.89285 0.66918 0.0
H238 H 0.95898 0.81868 0.61607 0.0
H239 H 0.92023 0.81491 0.55999 0.0
C240 C 0.78562 0.7788 0.54788 0.0
C241 C 0.79787 0.75444 0.54129 0.0
C242 C 0.79932 0.80192 0.53957 0.0
C243 C 0.82544 0.80103 0.52442 0.0
C244 C 0.83726 0.77674 0.5159 0.0
C245 C 0.82361 0.75372 0.52396 0.0
C246 C 0.84128 0.82518 0.52063 0.0
C247 C 0.86418 0.82776 0.55019 0.0
C248 C 0.83405 0.84553 0.48903 0.0
C249 C 0.81029 0.84375 0.45641 0.0
C250 C 0.80684 0.82267 0.42314 0.0
C251 C 0.78433 0.8211 0.39265 0.0
C252 C 0.76522 0.8406 0.39483 0.0
C253 C 0.76862 0.86175 0.42743 0.0
C254 C 0.79108 0.8634 0.45804 0.0
C255 C 0.93613 0.90748 0.49392 0.0
C256 C 0.92809 0.93345 0.50138 0.0
C257 C 0.91821 0.88701 0.49682 0.0
C258 C 0.89191 0.89193 0.508 0.0
C259 C 0.88349 0.91785 0.51362 0.0
C260 C 0.90144 0.93846 0.51034 0.0
C261 C 0.8737 0.86979 0.51546 0.0
C262 C 0.85032 0.86766 0.48699 0.0
C263 C 0.88028 0.84988 0.54851 0.0
C264 C 0.90353 0.85195 0.58249 0.0
C265 C 0.90691 0.87387 0.61382 0.0
C266 C 0.929 0.87589 0.6453 0.0
C267 C 0.94776 0.85603 0.64606 0.0
C268 C 0.94444 0.83406 0.61542 0.0
C269 C 0.9224 0.83196 0.58381 0.0
H270 H 0.96485 0.85763 0.67045 0.0
H271 H 0.74781 0.83936 0.37118 0.0
H272 H 0.73005 0.2796 0.98649 0.0
H273 H 0.70631 0.32091 0.99617 0.0
H274 H 0.64433 0.28095 0.06801 0.0
H275 H 0.66799 0.23984 0.05905 0.0
H276 H 0.62609 0.30923 0.9908 0.0
H277 H 0.68506 0.32217 0.13095 0.0
H278 H 0.72854 0.3258 0.1729 0.0
H279 H 0.74849 0.38978 0.083 0.0
H280 H 0.70524 0.38629 0.04003 0.0
H281 H 0.54336 0.4081 0.07035 0.0
H282 H 0.57476 0.37235 0.06852 0.0
H283 H 0.63303 0.4232 0.01039 0.0
H284 H 0.60176 0.45954 0.01362 0.0
H285 H 0.65571 0.39135 0.07449 0.0
H286 H 0.59791 0.38017 0.93564 0.0
H287 H 0.55529 0.37709 0.89051 0.0
H288 H 0.53454 0.3102 0.9722 0.0
H289 H 0.5769 0.31309 0.01833 0.0
C290 C 0.71168 0.27976 0.00541 0.0
C291 C 0.70076 0.2564 0.02154 0.0
C292 C 0.69811 0.30336 0.01078 0.0
C293 C 0.67348 0.30397 0.03258 0.0
C294 C 0.6632 0.28089 0.05072 0.0
C295 C 0.67672 0.2574 0.04546 0.0
C296 C 0.65729 0.32803 0.03327 0.0
C297 C 0.63245 0.32709 0.00962 0.0
C298 C 0.66606 0.35165 0.056 0.0
C299 C 0.69202 0.35378 0.08192 0.0
C300 C 0.69881 0.33686 0.11982 0.0
C301 C 0.72339 0.33893 0.14385 0.0
C302 C 0.7413 0.35796 0.13053 0.0
C303 C 0.73462 0.37502 0.09323 0.0
C304 C 0.71007 0.37302 0.06906 0.0
C305 C 0.56287 0.41178 0.05729 0.0
C306 C 0.56994 0.43663 0.04157 0.0
C307 C 0.58081 0.39126 0.05615 0.0
C308 C 0.60609 0.39489 0.03825 0.0
C309 C 0.61359 0.41989 0.02408 0.0
C310 C 0.59568 0.44062 0.02583 0.0
C311 C 0.62417 0.37228 0.03319 0.0
C312 C 0.64939 0.37352 0.05556 0.0
C313 C 0.61594 0.34894 0.00867 0.0
C314 C 0.59051 0.34698 0.9807 0.0
C315 C 0.58419 0.3649 0.9442 0.0
C316 C 0.56009 0.36318 0.91841 0.0
C317 C 0.5422 0.3435 0.92855 0.0
C318 C 0.54841 0.32545 0.96441 0.0
C319 C 0.57248 0.3271 0.99035 0.0
H320 H 0.52354 0.34221 0.90856 0.0
H321 H 0.76032 0.35953 0.14918 0.0
H322 H 0.2049 0.87724 0.12155 0.0
H323 H 0.17889 0.8957 0.18701 0.0
H324 H 0.11748 0.83927 0.1533 0.0
H325 H 0.14308 0.82176 0.08579 0.0
H326 H 0.09589 0.88289 0.16222 0.0
H327 H 0.1584 0.83941 0.26296 0.0
H328 H 0.20206 0.82558 0.29408 0.0
H329 H 0.2219 0.90502 0.33188 0.0
H330 H 0.17848 0.91939 0.30036 0.0
H331 H 0.03111 0.91888 0.38664 0.0
H332 H 0.05749 0.89378 0.32891 0.0
H333 H 0.10178 0.96289 0.29868 0.0
H334 H 0.07499 0.98837 0.35528 0.0
H335 H 0.13052 0.90994 0.32662 0.0
H336 H 0.06644 0.95139 0.21665 0.0
H337 H 0.02108 0.96194 0.18952 0.0
H338 H 0.00268 0.88036 0.17533 0.0
H339 H 0.04787 0.86935 0.20312 0.0
C340 C 0.18613 0.8684 0.12898 0.0
C341 C 0.17603 0.84798 0.09906 0.0
C342 C 0.17125 0.87891 0.16652 0.0
C343 C 0.14626 0.86872 0.17576 0.0
C344 C 0.13665 0.84753 0.14699 0.0
C345 C 0.15131 0.83741 0.10869 0.0
C346 C 0.12936 0.8816 0.21253 0.0
C347 C 0.10346 0.8883 0.19843 0.0
C348 C 0.13907 0.88904 0.25983 0.0
C349 C 0.16523 0.8805 0.27892 0.0
C350 C 0.17214 0.85396 0.27758 0.0
C351 C 0.19684 0.84602 0.29535 0.0
C352 C 0.21476 0.86441 0.31485 0.0
C353 C 0.208 0.89079 0.31673 0.0
C354 C 0.18333 0.89884 0.29898 0.0
C355 C 0.04639 0.92876 0.36751 0.0
C356 C 0.05097 0.9556 0.37534 0.0
C357 C 0.0614 0.9144 0.33466 0.0
C358 C 0.08155 0.92654 0.30987 0.0
C359 C 0.0863 0.95326 0.31769 0.0
C360 C 0.0709 0.96777 0.34973 0.0
C361 C 0.09764 0.91129 0.27563 0.0
C362 C 0.1232 0.90418 0.29042 0.0
C363 C 0.08748 0.90294 0.22947 0.0
C364 C 0.0604 0.90957 0.21254 0.0
C365 C 0.05264 0.93571 0.20825 0.0
C366 C 0.02699 0.94177 0.19263 0.0
C367 C 0.00898 0.92183 0.18087 0.0
C368 C 0.01663 0.89579 0.18455 0.0
C369 C 0.04226 0.88963 0.2002 0.0
H370 H 0.98914 0.92656 0.16877 0.0
H371 H 0.23388 0.85823 0.32859 0.0
H372 H 0.67627 0.69483 0.68128 0.0
H373 H 0.65197 0.6737 0.74524 0.0
H374 H 0.61416 0.62271 0.63747 0.0
H375 H 0.63938 0.64228 0.57407 0.0
H376 H 0.57977 0.64894 0.71155 0.0
H377 H 0.65964 0.59721 0.69298 0.0
H378 H 0.70785 0.59218 0.69182 0.0
H379 H 0.71486 0.62266 0.83863 0.0
H380 H 0.66668 0.62825 0.84035 0.0
H381 H 0.52196 0.54895 0.84404 0.0
H382 H 0.54566 0.57475 0.78578 0.0
H383 H 0.60069 0.59988 0.90043 0.0
H384 H 0.57796 0.57297 0.95793 0.0
H385 H 0.6268 0.59053 0.82622 0.0
H386 H 0.54919 0.64012 0.85143 0.0
H387 H 0.50163 0.64864 0.85657 0.0
H388 H 0.49041 0.62777 0.705 0.0
H389 H 0.53786 0.61877 0.6991 0.0
C390 C 0.66295 0.679 0.67114 0.0
C391 C 0.65973 0.67048 0.62218 0.0
C392 C 0.64893 0.66713 0.70771 0.0
C393 C 0.63121 0.64682 0.69584 0.0
C394 C 0.62753 0.6386 0.64717 0.0
C395 C 0.64187 0.65003 0.61087 0.0
C396 C 0.61724 0.63317 0.73415 0.0
C397 C 0.58991 0.63603 0.73657 0.0
C398 C 0.63073 0.61705 0.76751 0.0
C399 C 0.65962 0.61344 0.76658 0.0
C400 C 0.67149 0.60307 0.72484 0.0
C401 C 0.6988 0.60007 0.72411 0.0
C402 C 0.71441 0.60717 0.76507 0.0
C403 C 0.70274 0.61721 0.8069 0.0
C404 C 0.67544 0.62029 0.80778 0.0
C405 C 0.53914 0.55996 0.85668 0.0
C406 C 0.54813 0.55893 0.90546 0.0
C407 C 0.55257 0.57489 0.82348 0.0
C408 C 0.57473 0.58975 0.83879 0.0
C409 C 0.5837 0.58863 0.88757 0.0
C410 C 0.57067 0.57323 0.92045 0.0
C411 C 0.58895 0.60597 0.80385 0.0
C412 C 0.61644 0.60361 0.80183 0.0
C413 C 0.57561 0.62306 0.77164 0.0
C414 C 0.54706 0.62855 0.77494 0.0
C415 C 0.53656 0.63717 0.81927 0.0
C416 C 0.50962 0.64211 0.82231 0.0
C417 C 0.493 0.63869 0.78116 0.0
C418 C 0.5033 0.63038 0.73685 0.0
C419 C 0.53022 0.62539 0.73362 0.0
H420 H 0.47215 0.64252 0.78359 0.0
H421 H 0.73555 0.60483 0.76444 0.0
H422 H 0.79903 0.15805 0.12314 0.0
H423 H 0.8235 0.13828 0.19084 0.0
H424 H 0.8939 0.17823 0.15019 0.0
H425 H 0.86949 0.19815 0.08256 0.0
H426 H 0.9014 0.12641 0.15542 0.0
H427 H 0.86457 0.19347 0.25678 0.0
H428 H 0.82909 0.2203 0.29087 0.0
H429 H 0.79331 0.15188 0.34703 0.0
H430 H 0.82839 0.12457 0.31269 0.0
H431 H 0.98288 0.07858 0.34732 0.0
H432 H 0.95846 0.10664 0.29137 0.0
H433 H 0.88541 0.0732 0.3361 0.0
H434 H 0.90963 0.0457 0.39327 0.0
H435 H 0.88005 0.12365 0.33017 0.0
H436 H 0.91399 0.05627 0.22542 0.0
H437 H 0.94813 0.02824 0.18986 0.0
H438 H 0.98759 0.09574 0.13812 0.0
H439 H 0.95385 0.12421 0.17395 0.0
C440 C 0.81949 0.16333 0.12964 0.0
C441 C 0.83238 0.17956 0.09741 0.0
C442 C 0.8335 0.15193 0.16825 0.0
C443 C 0.86057 0.1567 0.17546 0.0
C444 C 0.87307 0.17416 0.14511 0.0
C445 C 0.8591 0.18555 0.10658 0.0
C446 C 0.87635 0.14152 0.21121 0.0
C447 C 0.89705 0.12618 0.19384 0.0
C448 C 0.87009 0.14056 0.26095 0.0
C449 C 0.84901 0.15695 0.28178 0.0
C450 C 0.84903 0.18411 0.27606 0.0
C451 C 0.82901 0.19941 0.2955 0.0
C452 C 0.80892 0.1878 0.321 0.0
C453 C 0.80886 0.16085 0.32723 0.0
C454 C 0.82883 0.14546 0.30784 0.0
C455 C 0.96162 0.07707 0.34505 0.0
C456 C 0.94823 0.05979 0.37463 0.0
C457 C 0.94767 0.09312 0.31296 0.0
C458 C 0.92007 0.09185 0.30904 0.0
C459 C 0.90668 0.07459 0.3385 0.0
C460 C 0.92058 0.05878 0.37103 0.0
C461 C 0.90512 0.10851 0.27435 0.0
C462 C 0.88454 0.12403 0.29183 0.0
C463 C 0.91128 0.10947 0.22451 0.0
C464 C 0.93155 0.09238 0.20281 0.0
C465 C 0.93006 0.06515 0.20678 0.0
C466 C 0.94932 0.04918 0.18652 0.0
C467 C 0.97005 0.06021 0.16186 0.0
C468 C 0.97153 0.08723 0.15729 0.0
C469 C 0.95234 0.10329 0.17753 0.0
H470 H 0.98495 0.04781 0.14621 0.0
H471 H 0.79344 0.19967 0.33602 0.0
H472 H 0.35189 0.30094 0.64927 0.0
H473 H 0.36953 0.32499 0.72131 0.0
H474 H 0.32846 0.394 0.67489 0.0
H475 H 0.3105 0.37002 0.6034 0.0
H476 H 0.38277 0.40011 0.68424 0.0
H477 H 0.31197 0.36717 0.77721 0.0
H478 H 0.28376 0.3331 0.81002 0.0
H479 H 0.35102 0.29892 0.88197 0.0
H480 H 0.37972 0.33259 0.849 0.0
H481 H 0.42634 0.48709 0.87257 0.0
H482 H 0.39927 0.46064 0.81539 0.0
H483 H 0.43105 0.3906 0.87799 0.0
H484 H 0.45756 0.41692 0.93632 0.0
H485 H 0.3806 0.3844 0.86152 0.0
H486 H 0.45178 0.41418 0.76792 0.0
H487 H 0.48201 0.44583 0.73304 0.0
H488 H 0.41689 0.48285 0.65943 0.0
H489 H 0.38621 0.45167 0.69453 0.0
C490 C 0.34577 0.32092 0.65551 0.0
C491 C 0.33003 0.3337 0.62054 0.0
C492 C 0.35597 0.33468 0.69654 0.0
C493 C 0.3505 0.36134 0.70309 0.0
C494 C 0.33305 0.37349 0.67029 0.0
C495 C 0.32278 0.35977 0.62956 0.0
C496 C 0.36556 0.37736 0.73994 0.0
C497 C 0.38195 0.39701 0.72312 0.0
C498 C 0.36527 0.37253 0.79035 0.0
C499 C 0.34804 0.35226 0.81021 0.0
C500 C 0.3208 0.35225 0.79964 0.0
C501 C 0.3047 0.33304 0.81836 0.0
C502 C 0.3156 0.31382 0.84795 0.0
C503 C 0.34261 0.31381 0.85899 0.0
C504 C 0.3588 0.33297 0.84034 0.0
C505 C 0.42764 0.46606 0.87411 0.0
C506 C 0.44425 0.45415 0.90887 0.0
C507 C 0.41217 0.45094 0.8413 0.0
C508 C 0.41335 0.42358 0.84188 0.0
C509 C 0.42976 0.41164 0.8768 0.0
C510 C 0.44501 0.42675 0.91001 0.0
C511 C 0.39764 0.40744 0.80587 0.0
C512 C 0.3813 0.38766 0.82271 0.0
C513 C 0.39827 0.41183 0.75521 0.0
C514 C 0.41666 0.43077 0.73435 0.0
C515 C 0.44387 0.42923 0.74469 0.0
C516 C 0.46109 0.44706 0.72481 0.0
C517 C 0.45137 0.4664 0.69417 0.0
C518 C 0.42439 0.46791 0.68327 0.0
C519 C 0.40708 0.45015 0.70314 0.0
H520 H 0.46474 0.48017 0.67878 0.0
H521 H 0.30311 0.29897 0.86242 0.0
H522 H 0.6318 0.7067 0.46039 0.0
H523 H 0.60856 0.68811 0.38838 0.0
H524 H 0.67903 0.6476 0.34757 0.0
H525 H 0.7023 0.66573 0.42008 0.0
H526 H 0.64408 0.66525 0.26554 0.0
H527 H 0.64371 0.61526 0.41352 0.0
H528 H 0.63746 0.61033 0.50147 0.0
H529 H 0.55697 0.63455 0.48389 0.0
H530 H 0.56287 0.63982 0.39575 0.0
H531 H 0.59052 0.5547 0.13805 0.0
H532 H 0.61543 0.58416 0.1933 0.0
H533 H 0.54321 0.61065 0.25616 0.0
H534 H 0.51815 0.5808 0.20177 0.0
H535 H 0.57873 0.60249 0.32519 0.0
H536 H 0.57732 0.64808 0.17537 0.0
H537 H 0.58345 0.65381 0.08758 0.0
H538 H 0.66621 0.63938 0.10727 0.0
H539 H 0.66052 0.63318 0.19513 0.0
C540 C 0.64258 0.6945 0.43524 0.0
C541 C 0.66873 0.68731 0.44627 0.0
C542 C 0.6293 0.68394 0.39411 0.0
C543 C 0.64201 0.66617 0.36324 0.0
C544 C 0.66893 0.66129 0.37104 0.0
C545 C 0.68222 0.67175 0.41241 0.0
C546 C 0.62629 0.64953 0.32852 0.0
C547 C 0.62992 0.65137 0.27836 0.0
C548 C 0.60755 0.63177 0.34548 0.0
C549 C 0.6038 0.62818 0.39822 0.0
C550 C 0.62473 0.61969 0.42849 0.0
C551 C 0.62125 0.61681 0.47835 0.0
C552 C 0.59686 0.62223 0.49832 0.0
C553 C 0.57587 0.6304 0.46838 0.0
C554 C 0.57926 0.6333 0.41846 0.0
C555 C 0.57989 0.56673 0.1637 0.0
C556 C 0.55229 0.56538 0.1654 0.0
C557 C 0.59418 0.58373 0.19503 0.0
C558 C 0.58117 0.59999 0.2283 0.0
C559 C 0.55367 0.59839 0.23064 0.0
C560 C 0.53937 0.58127 0.19954 0.0
C561 C 0.59629 0.61811 0.26164 0.0
C562 C 0.59267 0.61647 0.3119 0.0
C563 C 0.61491 0.63608 0.24456 0.0
C564 C 0.61844 0.63993 0.19178 0.0
C565 C 0.5968 0.64593 0.16093 0.0
C566 C 0.6002 0.6493 0.11116 0.0
C567 C 0.62519 0.6469 0.09184 0.0
C568 C 0.64686 0.6412 0.12228 0.0
C569 C 0.64356 0.63779 0.17208 0.0
H570 H 0.62779 0.6495 0.05329 0.0
H571 H 0.5942 0.62002 0.53695 0.0
H572 H 0.79828 0.15709 0.88323 0.0
H573 H 0.8215 0.13675 0.81601 0.0
H574 H 0.89463 0.16983 0.87244 0.0
H575 H 0.87128 0.19156 0.93832 0.0
H576 H 0.89421 0.16879 0.77612 0.0
H577 H 0.87585 0.10751 0.89984 0.0
H578 H 0.8479 0.0836 0.95548 0.0
H579 H 0.8035 0.05086 0.83322 0.0
H580 H 0.83097 0.07489 0.77685 0.0
H581 H 0.98136 0.07487 0.67383 0.0
H582 H 0.95631 0.10154 0.73097 0.0
H583 H 0.88376 0.07405 0.66212 0.0
H584 H 0.90855 0.04734 0.60485 0.0
H585 H 0.88355 0.0727 0.76278 0.0
H586 H 0.9049 0.13351 0.63909 0.0
H587 H 0.93468 0.15695 0.58604 0.0
H588 H 0.976 0.18971 0.71183 0.0
H589 H 0.94668 0.16617 0.76567 0.0
C590 C 0.81915 0.16077 0.88062 0.0
C591 C 0.83296 0.17575 0.9166 0.0
C592 C 0.83248 0.14881 0.84243 0.0
C593 C 0.85991 0.15118 0.83994 0.0
C594 C 0.87349 0.1675 0.87389 0.0
C595 C 0.86014 0.17972 0.91178 0.0
C596 C 0.87466 0.13529 0.80413 0.0
C597 C 0.89205 0.14776 0.7735 0.0
C598 C 0.8717 0.10784 0.80038 0.0
C599 C 0.85529 0.0932 0.83416 0.0
C600 C 0.86001 0.09535 0.88484 0.0
C601 C 0.84427 0.08176 0.9165 0.0
C602 C 0.82389 0.06577 0.8979 0.0
C603 C 0.81926 0.06329 0.84758 0.0
C604 C 0.83492 0.07687 0.81575 0.0
C605 C 0.96007 0.07442 0.6709 0.0
C606 C 0.94697 0.05899 0.63469 0.0
C607 C 0.94581 0.08979 0.70341 0.0
C608 C 0.9182 0.08995 0.70039 0.0
C609 C 0.90506 0.07425 0.66491 0.0
C610 C 0.91929 0.05903 0.63217 0.0
C611 C 0.90297 0.1062 0.7347 0.0
C612 C 0.88557 0.09375 0.76521 0.0
C613 C 0.90621 0.13357 0.73871 0.0
C614 C 0.92375 0.14787 0.7064 0.0
C615 C 0.92047 0.14555 0.65544 0.0
C616 C 0.93724 0.15888 0.62523 0.0
C617 C 0.95726 0.17476 0.64555 0.0
C618 C 0.9605 0.17739 0.69614 0.0
C619 C 0.9438 0.16407 0.72652 0.0
H620 H 0.97023 0.18506 0.6221 0.0
H621 H 0.81173 0.05527 0.92247 0.0
H622 H 0.38273 0.33785 0.47282 0.0
H623 H 0.40108 0.36563 0.41116 0.0
H624 H 0.32357 0.37489 0.34514 0.0
H625 H 0.30537 0.34608 0.40616 0.0
H626 H 0.35792 0.37034 0.27697 0.0
H627 H 0.35188 0.42298 0.42051 0.0
H628 H 0.35773 0.43443 0.50788 0.0
H629 H 0.44164 0.43196 0.49531 0.0
H630 H 0.43631 0.42007 0.40801 0.0
H631 H 0.4311 0.49828 0.20383 0.0
H632 H 0.40438 0.47489 0.26138 0.0
H633 H 0.4328 0.40159 0.20377 0.0
H634 H 0.4589 0.42462 0.1457 0.0
H635 H 0.41579 0.44377 0.33304 0.0
H636 H 0.38684 0.35528 0.20502 0.0
H637 H 0.37723 0.34645 0.1176 0.0
H638 H 0.35575 0.42655 0.09871 0.0
H639 H 0.36485 0.43579 0.18612 0.0
C640 C 0.36975 0.34563 0.44471 0.0
C641 C 0.34274 0.34003 0.44391 0.0
C642 C 0.38015 0.36165 0.40982 0.0
C643 C 0.36361 0.3729 0.37423 0.0
C644 C 0.33667 0.36657 0.37245 0.0
C645 C 0.32629 0.35016 0.4071 0.0
C646 C 0.37462 0.39137 0.33934 0.0
C647 C 0.37047 0.38646 0.28922 0.0
C648 C 0.39034 0.41294 0.3553 0.0
C649 C 0.39367 0.42048 0.40771 0.0
C650 C 0.37158 0.42474 0.43642 0.0
C651 C 0.3748 0.43131 0.48594 0.0
C652 C 0.40004 0.43388 0.50715 0.0
C653 C 0.4221 0.42995 0.47884 0.0
C654 C 0.41899 0.42333 0.4293 0.0
C655 C 0.43165 0.47718 0.20347 0.0
C656 C 0.447 0.46333 0.1699 0.0
C657 C 0.41637 0.46384 0.23636 0.0
C658 C 0.41619 0.43647 0.23628 0.0
C659 C 0.43207 0.42268 0.20371 0.0
C660 C 0.44713 0.43593 0.17066 0.0
C661 C 0.3999 0.4221 0.27072 0.0
C662 C 0.40302 0.42781 0.32077 0.0
C663 C 0.38263 0.40175 0.25466 0.0
C664 C 0.37673 0.39626 0.20211 0.0
C665 C 0.37993 0.37098 0.18228 0.0
C666 C 0.3746 0.36591 0.1327 0.0
C667 C 0.36595 0.38594 0.10259 0.0
C668 C 0.36253 0.41107 0.12203 0.0
C669 C 0.3678 0.41624 0.17159 0.0
H670 H 0.36186 0.38197 0.06422 0.0
H671 H 0.40249 0.43896 0.54551 0.0
H672 H 0.14347 0.82562 0.92501 0.0
H673 H 0.11898 0.84564 0.85712 0.0
H674 H 0.18371 0.89827 0.83711 0.0
H675 H 0.2084 0.8781 0.90436 0.0
H676 H 0.13227 0.92188 0.85308 0.0
H677 H 0.17386 0.85592 0.75338 0.0
H678 H 0.18566 0.8108 0.73034 0.0
H679 H 0.10383 0.7908 0.71291 0.0
H680 H 0.09153 0.83573 0.73655 0.0
H681 H 0.08017 0.9897 0.65192 0.0
H682 H 0.108 0.96558 0.70919 0.0
H683 H 0.05591 0.89919 0.69223 0.0
H684 H 0.02914 0.92273 0.63225 0.0
H685 H 0.10175 0.88171 0.69522 0.0
H686 H 0.05823 0.94368 0.79722 0.0
H687 H 0.04318 0.98702 0.82522 0.0
H688 H 0.12335 0.01241 0.84551 0.0
H689 H 0.13889 0.96931 0.81708 0.0
C690 C 0.15266 0.84105 0.90527 0.0
C691 C 0.17783 0.85027 0.91965 0.0
C692 C 0.1387 0.85243 0.86664 0.0
C693 C 0.14958 0.87342 0.8423 0.0
C694 C 0.17506 0.88204 0.85546 0.0
C695 C 0.18919 0.87039 0.89354 0.0
C696 C 0.13353 0.88781 0.80606 0.0
C697 C 0.12587 0.91331 0.81817 0.0
C698 C 0.12439 0.87612 0.76163 0.0
C699 C 0.13178 0.84914 0.74721 0.0
C700 C 0.15838 0.84185 0.74508 0.0
C701 C 0.16516 0.81632 0.73181 0.0
C702 C 0.14551 0.79793 0.72029 0.0
C703 C 0.11903 0.80505 0.72189 0.0
C704 C 0.11215 0.83056 0.73518 0.0
C705 C 0.07463 0.97 0.66069 0.0
C706 C 0.05245 0.95811 0.63798 0.0
C707 C 0.09046 0.95624 0.69364 0.0
C708 C 0.08384 0.93066 0.70604 0.0
C709 C 0.06153 0.91885 0.6834 0.0
C710 C 0.04616 0.93234 0.64931 0.0
C711 C 0.10034 0.91609 0.74195 0.0
C712 C 0.10807 0.89046 0.72998 0.0
C713 C 0.10899 0.92743 0.78726 0.0
C714 C 0.09971 0.95334 0.80458 0.0
C715 C 0.07265 0.95856 0.80736 0.0
C716 C 0.06403 0.98308 0.82335 0.0
C717 C 0.08229 0.00248 0.83701 0.0
C718 C 0.10922 0.99738 0.83486 0.0
C719 C 0.11795 0.9729 0.81887 0.0
H720 H 0.07558 0.02145 0.84936 0.0
H721 H 0.15079 0.77817 0.71002 0.0
loop_
_geom_bond_atom_site_label_1
_geom_bond_atom_site_label_2
_geom_bond_distance
_geom_bond_site_symmetry_2
_ccdc_geom_bond_type
H0 C1 0.949 . S
C1 H0 0.949 . S
C1 C2 1.395 . S
C1 C3 1.391 . S
C2 C1 1.395 . S
C2 C5 1.390 . S
C3 C1 1.391 . S
C3 C7 1.387 1_554 S
C3 C8 1.491 . S
H4 C5 0.950 . S
C5 C2 1.390 . S
C5 H4 0.950 . S
C5 C6 1.378 1_554 S
C6 C5 1.378 1_556 S
C6 C7 1.409 . S
C7 C3 1.387 1_556 S
C7 C6 1.409 . S
C7 H9 0.951 . S
C8 C3 1.491 . S
C8 C10 1.381 . S
C8 C12 1.405 1_554 S
H9 C7 0.951 . S
C10 C8 1.381 . S
C10 C11 1.390 . S
C10 H15 0.949 . S
C11 C10 1.390 . S
C11 C16 1.399 1_554 S
C12 C8 1.405 1_556 S
C12 H13 0.950 . S
C12 C14 1.375 . S
H13 C12 0.950 . S
C14 C12 1.375 . S
C14 C16 1.382 . S
C14 H18 0.950 . S
H15 C10 0.949 . S
C16 C11 1.399 1_556 S
C16 C14 1.382 . S
C16 H17 0.952 . S
H17 C16 0.952 . S
H18 C14 0.950 . S
H19 C20 0.949 . S
C20 H19 0.949 . S
C20 C21 1.395 . S
C20 C22 1.391 . S
C21 C20 1.395 . S
C21 C24 1.390 . S
C22 C20 1.391 . S
C22 C26 1.387 . S
C22 C27 1.491 . S
H23 C24 0.950 . S
C24 C21 1.390 . S
C24 H23 0.950 . S
C24 C25 1.378 . S
C25 C24 1.378 . S
C25 C26 1.409 . S
C26 C22 1.387 . S
C26 C25 1.409 . S
C26 H28 0.951 . S
C27 C22 1.491 . S
C27 C29 1.382 . S
C27 C31 1.404 . S
H28 C26 0.951 . S
C29 C27 1.382 . S
C29 C30 1.390 . S
C29 H34 0.949 . S
C30 C29 1.390 . S
C30 C35 1.399 . S
C31 C27 1.404 . S
C31 H32 0.950 . S
C31 C33 1.375 . S
H32 C31 0.950 . S
C33 C31 1.375 . S
C33 C35 1.382 . S
C33 H37 0.950 . S
H34 C29 0.949 . S
C35 C30 1.399 . S
C35 C33 1.382 . S
C35 H36 0.952 . S
H36 C35 0.952 . S
H37 C33 0.950 . S
H38 C39 0.949 . S
C39 H38 0.949 . S
C39 C40 1.395 . S
C39 C41 1.391 . S
C40 C39 1.395 . S
C40 C43 1.390 . S
C41 C39 1.391 . S
C41 C45 1.387 1_554 S
C41 C46 1.491 1_554 S
H42 C43 0.950 . S
C43 C40 1.390 . S
C43 H42 0.950 . S
C43 C44 1.378 1_554 S
C44 C43 1.378 1_556 S
C44 C45 1.409 . S
C45 C41 1.387 1_556 S
C45 C44 1.409 . S
C45 H47 0.951 . S
C46 C41 1.491 1_556 S
C46 C48 1.382 1_556 S
C46 C50 1.404 . S
H47 C45 0.951 . S
C48 C46 1.382 1_554 S
C48 C49 1.390 . S
C48 H53 0.949 . S
C49 C48 1.390 . S
C49 C54 1.399 1_554 S
C50 C46 1.404 . S
C50 H51 0.950 . S
C50 C52 1.375 . S
H51 C50 0.950 . S
C52 C50 1.375 . S
C52 C54 1.382 . S
C52 H56 0.950 . S
H53 C48 0.949 . S
C54 C49 1.399 1_556 S
C54 C52 1.382 . S
C54 H55 0.952 . S
H55 C54 0.952 . S
H56 C52 0.950 . S
H57 C58 0.949 . S
C58 H57 0.949 . S
C58 C59 1.395 . S
C58 C60 1.391 . S
C59 C58 1.395 . S
C59 C62 1.390 . S
C60 C58 1.391 . S
C60 C64 1.387 . S
C60 C65 1.491 . S
H61 C62 0.950 . S
C62 C59 1.390 . S
C62 H61 0.950 . S
C62 C63 1.378 . S
C63 C62 1.378 . S
C63 C64 1.409 . S
C64 C60 1.387 . S
C64 C63 1.409 . S
C64 H66 0.951 . S
C65 C60 1.491 . S
C65 C67 1.382 . S
C65 C69 1.404 . S
H66 C64 0.951 . S
C67 C65 1.382 . S
C67 C68 1.390 . S
C67 H72 0.949 . S
C68 C67 1.390 . S
C68 C73 1.399 . S
C69 C65 1.404 . S
C69 H70 0.950 . S
C69 C71 1.375 . S
H70 C69 0.950 . S
C71 C69 1.375 . S
C71 C73 1.382 . S
C71 H75 0.950 . S
H72 C67 0.949 . S
C73 C68 1.399 . S
C73 C71 1.382 . S
C73 H74 0.952 . S
H74 C73 0.952 . S
H75 C71 0.950 . S
O76 Zn77 1.953 1_565 S
O76 C92 1.225 . S
Zn77 O76 1.953 1_545 S
Zn77 O78 1.949 1_655 S
Zn77 O84 1.919 . S
Zn77 O89 1.924 . S
O78 Zn77 1.949 1_455 S
O78 Zn79 1.923 . S
O78 Zn80 1.950 1_545 S
O78 Zn81 1.945 . S
Zn79 O78 1.923 . S
Zn79 O82 1.933 . S
Zn79 O85 1.941 1_455 S
Zn79 O86 1.965 1_545 S
Zn80 O78 1.950 1_565 S
Zn80 O87 1.938 . S
Zn80 O88 1.906 . S
Zn80 O98 1.953 1_455 S
Zn81 O78 1.945 . S
Zn81 O83 1.932 . S
Zn81 O90 1.990 . S
Zn81 O91 1.910 1_455 S
O82 Zn79 1.933 . S
O82 C93 1.226 . S
O83 Zn81 1.932 . S
O83 C93 1.307 . S
O84 Zn77 1.919 . S
O84 C95 1.253 . S
O85 Zn79 1.941 1_655 S
O85 C95 1.283 . S
O86 Zn79 1.965 1_565 S
O86 C94 1.303 . S
O87 Zn80 1.938 . S
O87 C94 1.247 . S
O88 Zn80 1.906 . S
O88 C96 1.304 . S
O89 Zn77 1.924 . S
O89 C97 1.311 . S
O90 Zn81 1.990 . S
O90 C96 1.252 1_545 S
O91 Zn81 1.910 1_655 S
O91 C97 1.231 . S
C92 O76 1.225 . S
C92 O98 1.298 . S
C93 O82 1.226 . S
C93 O83 1.307 . S
C94 O86 1.303 . S
C94 O87 1.247 . S
C95 O84 1.253 . S
C95 O85 1.283 . S
C96 O88 1.304 . S
C96 O90 1.252 1_565 S
C97 O89 1.311 . S
C97 O91 1.231 . S
O98 Zn80 1.953 1_655 S
O98 C92 1.298 . S
O99 Zn100 1.953 . S
O99 C115 1.225 . S
Zn100 O99 1.953 . S
Zn100 O101 1.949 . S
Zn100 O107 1.919 1_554 S
Zn100 O112 1.924 . S
O101 Zn100 1.949 . S
O101 Zn102 1.923 1_554 S
O101 Zn103 1.950 . S
O101 Zn104 1.945 . S
Zn102 O101 1.923 1_556 S
Zn102 O105 1.933 . S
Zn102 O108 1.941 . S
Zn102 O109 1.965 . S
Zn103 O101 1.950 . S
Zn103 O110 1.938 1_554 S
Zn103 O111 1.906 . S
Zn103 O121 1.953 . S
Zn104 O101 1.945 . S
Zn104 O106 1.932 . S
Zn104 O113 1.977 . S
Zn104 O114 1.910 . S
O105 Zn102 1.933 . S
O105 C116 1.226 1_556 S
O106 Zn104 1.932 . S
O106 C116 1.307 . S
O107 Zn100 1.919 1_556 S
O107 C118 1.253 . S
O108 Zn102 1.941 . S
O108 C118 1.283 . S
O109 Zn102 1.965 . S
O109 C117 1.303 . S
O110 Zn103 1.938 1_556 S
O110 C117 1.247 . S
O111 Zn103 1.906 . S
O111 C119 1.304 . S
O112 Zn100 1.924 . S
O112 C120 1.311 . S
O113 Zn104 1.977 . S
O113 C119 1.272 . S
O114 Zn104 1.910 . S
O114 C120 1.231 . S
C115 O99 1.225 . S
C115 O121 1.298 . S
C116 O105 1.226 1_554 S
C116 O106 1.307 . S
C117 O109 1.303 . S
C117 O110 1.247 . S
C118 O107 1.253 . S
C118 O108 1.283 . S
C119 O111 1.304 . S
C119 O113 1.272 . S
C120 O112 1.311 . S
C120 O114 1.231 . S
O121 Zn103 1.953 . S
O121 C115 1.298 . S
H122 C140 0.951 . S
H123 C142 0.951 . S
H124 C144 0.950 . S
H125 C145 0.950 . S
H126 C147 0.950 . S
H127 C150 0.950 . S
H128 C151 0.950 . S
H129 C153 0.950 . S
H130 C154 0.950 . S
H131 C155 0.951 . S
H132 C157 0.951 . S
H133 C159 0.950 . S
H134 C160 0.950 . S
H135 C162 0.950 . S
H136 C165 0.950 . S
H137 C166 0.950 . S
H138 C168 0.950 . S
H139 C169 0.950 . S
C140 H122 0.951 . S
C140 C141 1.366 . S
C140 C142 1.388 . S
C141 C140 1.366 . S
C141 C145 1.385 . S
C142 H123 0.951 . S
C142 C140 1.388 . S
C142 C143 1.366 . S
C143 C142 1.366 . S
C143 C144 1.414 . S
C143 C146 1.499 . S
C144 H124 0.950 . S
C144 C143 1.414 . S
C144 C145 1.374 . S
C145 H125 0.950 . S
C145 C141 1.385 . S
C145 C144 1.374 . S
C146 C143 1.499 . S
C146 C147 1.373 . S
C146 C148 1.389 . S
C147 H126 0.950 . S
C147 C146 1.373 . S
C147 C163 1.377 . S
C148 C146 1.389 . S
C148 C149 1.524 . S
C148 C162 1.377 . S
C149 C148 1.524 . S
C149 C150 1.397 . S
C149 C154 1.363 . S
C150 H127 0.950 . S
C150 C149 1.397 . S
C150 C151 1.334 . S
C151 H128 0.950 . S
C151 C150 1.334 . S
C151 C152 1.287 . S
C152 C151 1.287 . S
C152 C153 1.524 . S
C152 H171 0.913 . S
C153 H129 0.950 . S
C153 C152 1.524 . S
C153 C154 1.415 . S
C154 H130 0.950 . S
C154 C149 1.363 . S
C154 C153 1.415 . S
C155 H131 0.951 . S
C155 C156 1.366 . S
C155 C157 1.388 . S
C156 C155 1.366 . S
C156 C160 1.385 . S
C157 H132 0.951 . S
C157 C155 1.388 . S
C157 C158 1.366 . S
C158 C157 1.366 . S
C158 C159 1.414 . S
C158 C161 1.499 . S
C159 H133 0.950 . S
C159 C158 1.414 . S
C159 C160 1.374 . S
C160 H134 0.950 . S
C160 C156 1.385 . S
C160 C159 1.374 . S
C161 C158 1.499 . S
C161 C162 1.373 . S
C161 C163 1.389 . S
C162 H135 0.950 . S
C162 C148 1.377 . S
C162 C161 1.373 . S
C163 C147 1.377 . S
C163 C161 1.389 . S
C163 C164 1.524 . S
C164 C163 1.524 . S
C164 C165 1.397 . S
C164 C169 1.363 . S
C165 H136 0.950 . S
C165 C164 1.397 . S
C165 C166 1.334 . S
C166 H137 0.950 . S
C166 C165 1.334 . S
C166 C167 1.287 . S
C167 C166 1.287 . S
C167 C168 1.524 . S
C167 H170 0.999 . S
C168 H138 0.950 . S
C168 C167 1.524 . S
C168 C169 1.415 . S
C169 H139 0.950 . S
C169 C164 1.363 . S
C169 C168 1.415 . S
H170 C167 0.999 . S
H171 C152 0.913 . S
H172 C190 0.951 1_556 S
H173 C192 0.951 1_556 S
H174 C194 0.950 . S
H175 C195 0.950 . S
H176 C197 0.950 . S
H177 C200 0.950 . S
H178 C201 0.950 . S
H179 C203 0.950 . S
H180 C204 0.950 . S
H181 C205 0.951 . S
H182 C207 0.951 . S
H183 C209 0.950 . S
H184 C210 0.950 . S
H185 C212 0.950 . S
H186 C215 0.950 1_556 S
H187 C216 0.950 . S
H188 C218 0.950 . S
H189 C219 0.950 . S
C190 H172 0.951 1_554 S
C190 C191 1.366 . S
C190 C192 1.388 . S
C191 C190 1.366 . S
C191 C195 1.385 . S
C192 H173 0.951 1_554 S
C192 C190 1.388 . S
C192 C193 1.366 . S
C193 C192 1.366 . S
C193 C194 1.414 . S
C193 C196 1.499 . S
C194 H174 0.950 . S
C194 C193 1.414 . S
C194 C195 1.374 . S
C195 H175 0.950 . S
C195 C191 1.385 . S
C195 C194 1.374 . S
C196 C193 1.499 . S
C196 C197 1.373 . S
C196 C198 1.389 . S
C197 H176 0.950 . S
C197 C196 1.373 . S
C197 C213 1.377 . S
C198 C196 1.389 . S
C198 C199 1.524 . S
C198 C212 1.377 . S
C199 C198 1.524 . S
C199 C200 1.397 . S
C199 C204 1.363 1_554 S
C200 H177 0.950 . S
C200 C199 1.397 . S
C200 C201 1.334 . S
C201 H178 0.950 . S
C201 C200 1.334 . S
C201 C202 1.287 . S
C202 C201 1.287 . S
C202 C203 1.524 1_554 S
C202 H221 0.913 . S
C203 H179 0.950 . S
C203 C202 1.524 1_556 S
C203 C204 1.415 . S
C204 H180 0.950 . S
C204 C199 1.363 1_556 S
C204 C203 1.415 . S
C205 H181 0.951 . S
C205 C206 1.366 . S
C205 C207 1.388 . S
C206 C205 1.366 . S
C206 C210 1.385 1_554 S
C207 H182 0.951 . S
C207 C205 1.388 . S
C207 C208 1.366 . S
C208 C207 1.366 . S
C208 C209 1.414 1_554 S
C208 C211 1.499 . S
C209 H183 0.950 . S
C209 C208 1.414 1_556 S
C209 C210 1.374 . S
C210 H184 0.950 . S
C210 C206 1.385 1_556 S
C210 C209 1.374 . S
C211 C208 1.499 . S
C211 C212 1.373 . S
C211 C213 1.389 . S
C212 H185 0.950 . S
C212 C198 1.377 . S
C212 C211 1.373 . S
C213 C197 1.377 . S
C213 C211 1.389 . S
C213 C214 1.524 . S
C214 C213 1.524 . S
C214 C215 1.397 . S
C214 C219 1.363 . S
C215 H186 0.950 1_554 S
C215 C214 1.397 . S
C215 C216 1.334 1_554 S
C216 H187 0.950 . S
C216 C215 1.334 1_556 S
C216 C217 1.287 1_556 S
C217 C216 1.287 1_554 S
C217 C218 1.524 . S
C217 H220 0.999 . S
C218 H188 0.950 . S
C218 C217 1.524 . S
C218 C219 1.415 . S
C219 H189 0.950 . S
C219 C214 1.363 . S
C219 C218 1.415 . S
H220 C217 0.999 . S
H221 C202 0.913 . S
H222 C240 0.951 . S
H223 C242 0.951 . S
H224 C244 0.950 . S
H225 C245 0.950 . S
H226 C247 0.950 . S
H227 C250 0.950 . S
H228 C251 0.950 . S
H229 C253 0.950 . S
H230 C254 0.950 . S
H231 C255 0.951 . S
H232 C257 0.951 . S
H233 C259 0.950 . S
H234 C260 0.950 . S
H235 C262 0.950 . S
H236 C265 0.950 . S
H237 C266 0.950 . S
H238 C268 0.950 . S
H239 C269 0.950 . S
C240 H222 0.951 . S
C240 C241 1.366 . S
C240 C242 1.388 . S
C241 C240 1.366 . S
C241 C245 1.385 . S
C242 H223 0.951 . S
C242 C240 1.388 . S
C242 C243 1.366 . S
C243 C242 1.366 . S
C243 C244 1.414 . S
C243 C246 1.499 . S
C244 H224 0.950 . S
C244 C243 1.414 . S
C244 C245 1.374 . S
C245 H225 0.950 . S
C245 C241 1.385 . S
C245 C244 1.374 . S
C246 C243 1.499 . S
C246 C247 1.373 . S
C246 C248 1.389 . S
C247 H226 0.950 . S
C247 C246 1.373 . S
C247 C263 1.377 . S
C248 C246 1.389 . S
C248 C249 1.524 . S
C248 C262 1.377 . S
C249 C248 1.524 . S
C249 C250 1.397 . S
C249 C254 1.363 . S
C250 H227 0.950 . S
C250 C249 1.397 . S
C250 C251 1.334 . S
C251 H228 0.950 . S
C251 C250 1.334 . S
C251 C252 1.287 . S
C252 C251 1.287 . S
C252 C253 1.524 . S
C252 H271 0.913 . S
C253 H229 0.950 . S
C253 C252 1.524 . S
C253 C254 1.415 . S
C254 H230 0.950 . S
C254 C249 1.363 . S
C254 C253 1.415 . S
C255 H231 0.951 . S
C255 C256 1.366 . S
C255 C257 1.388 . S
C256 C255 1.366 . S
C256 C260 1.385 . S
C257 H232 0.951 . S
C257 C255 1.388 . S
C257 C258 1.366 . S
C258 C257 1.366 . S
C258 C259 1.414 . S
C258 C261 1.499 . S
C259 H233 0.950 . S
C259 C258 1.414 . S
C259 C260 1.374 . S
C260 H234 0.950 . S
C260 C256 1.385 . S
C260 C259 1.374 . S
C261 C258 1.499 . S
C261 C262 1.373 . S
C261 C263 1.389 . S
C262 H235 0.950 . S
C262 C248 1.377 . S
C262 C261 1.373 . S
C263 C247 1.377 . S
C263 C261 1.389 . S
C263 C264 1.524 . S
C264 C263 1.524 . S
C264 C265 1.397 . S
C264 C269 1.363 . S
C265 H236 0.950 . S
C265 C264 1.397 . S
C265 C266 1.334 . S
C266 H237 0.950 . S
C266 C265 1.334 . S
C266 C267 1.287 . S
C267 C266 1.287 . S
C267 C268 1.524 . S
C267 H270 0.999 . S
C268 H238 0.950 . S
C268 C267 1.524 . S
C268 C269 1.415 . S
C269 H239 0.950 . S
C269 C264 1.363 . S
C269 C268 1.415 . S
H270 C267 0.999 . S
H271 C252 0.913 . S
H272 C290 0.951 1_556 S
H273 C292 0.951 1_556 S
H274 C294 0.950 . S
H275 C295 0.950 . S
H276 C297 0.950 . S
H277 C300 0.950 . S
H278 C301 0.950 . S
H279 C303 0.950 1_556 S
H280 C304 0.950 1_556 S
H281 C305 0.951 . S
H282 C307 0.951 . S
H283 C309 0.951 1_556 S
H284 C310 0.934 1_556 S
H285 C312 0.950 . S
H286 C315 0.950 . S
H287 C316 0.950 . S
H288 C318 0.950 . S
H289 C319 0.950 . S
C290 H272 0.951 1_554 S
C290 C291 1.366 . S
C290 C292 1.388 . S
C291 C290 1.366 . S
C291 C295 1.385 . S
C292 H273 0.951 1_554 S
C292 C290 1.388 . S
C292 C293 1.366 . S
C293 C292 1.366 . S
C293 C294 1.414 . S
C293 C296 1.499 . S
C294 H274 0.950 . S
C294 C293 1.414 . S
C294 C295 1.374 . S
C295 H275 0.950 . S
C295 C291 1.385 . S
C295 C294 1.374 . S
C296 C293 1.499 . S
C296 C297 1.373 . S
C296 C298 1.389 . S
C297 H276 0.950 . S
C297 C296 1.373 . S
C297 C313 1.377 . S
C298 C296 1.389 . S
C298 C299 1.524 . S
C298 C312 1.377 . S
C299 C298 1.524 . S
C299 C300 1.397 . S
C299 C304 1.363 . S
C300 H277 0.950 . S
C300 C299 1.397 . S
C300 C301 1.334 . S
C301 H278 0.950 . S
C301 C300 1.334 . S
C301 C302 1.287 . S
C302 C301 1.287 . S
C302 C303 1.524 . S
C302 H321 0.913 . S
C303 H279 0.950 1_554 S
C303 C302 1.524 . S
C303 C304 1.415 . S
C304 H280 0.950 1_554 S
C304 C299 1.363 . S
C304 C303 1.415 . S
C305 H281 0.951 . S
C305 C306 1.366 . S
C305 C307 1.388 . S
C306 C305 1.366 . S
C306 C310 1.401 . S
C307 H282 0.951 . S
C307 C305 1.388 . S
C307 C308 1.366 . S
C308 C307 1.366 . S
C308 C309 1.413 . S
C308 C311 1.499 . S
C309 H283 0.951 1_554 S
C309 C308 1.413 . S
C309 C310 1.373 . S
C310 H284 0.934 1_554 S
C310 C306 1.401 . S
C310 C309 1.373 . S
C311 C308 1.499 . S
C311 C312 1.373 . S
C311 C313 1.389 . S
C312 H285 0.950 . S
C312 C298 1.377 . S
C312 C311 1.373 . S
C313 C297 1.377 . S
C313 C311 1.389 . S
C313 C314 1.524 . S
C314 C313 1.524 . S
C314 C315 1.397 1_554 S
C314 C319 1.363 . S
C315 H286 0.950 . S
C315 C314 1.397 1_556 S
C315 C316 1.334 . S
C316 H287 0.950 . S
C316 C315 1.334 . S
C316 C317 1.287 1_556 S
C317 C316 1.287 1_554 S
C317 C318 1.524 . S
C317 H320 0.999 . S
C318 H288 0.950 . S
C318 C317 1.524 . S
C318 C319 1.415 . S
C319 H289 0.950 . S
C319 C314 1.363 . S
C319 C318 1.415 . S
H320 C317 0.999 . S
H321 C302 0.913 . S
H322 C340 0.951 . S
H323 C342 0.951 . S
H324 C344 0.950 . S
H325 C345 0.950 . S
H326 C347 0.950 . S
H327 C350 0.950 . S
H328 C351 0.950 . S
H329 C353 0.950 . S
H330 C354 0.950 . S
H331 C355 0.951 . S
H332 C357 0.951 . S
H333 C359 0.950 . S
H334 C360 0.950 . S
H335 C362 0.950 . S
H336 C365 0.950 . S
H337 C366 0.950 . S
H338 C368 0.950 . S
H339 C369 0.950 . S
C340 H322 0.951 . S
C340 C341 1.366 . S
C340 C342 1.388 . S
C341 C340 1.366 . S
C341 C345 1.385 . S
C342 H323 0.951 . S
C342 C340 1.388 . S
C342 C343 1.366 . S
C343 C342 1.366 . S
C343 C344 1.414 . S
C343 C346 1.499 . S
C344 H324 0.950 . S
C344 C343 1.414 . S
C344 C345 1.374 . S
C345 H325 0.950 . S
C345 C341 1.385 . S
C345 C344 1.374 . S
C346 C343 1.499 . S
C346 C347 1.373 . S
C346 C348 1.389 . S
C347 H326 0.950 . S
C347 C346 1.373 . S
C347 C363 1.377 . S
C348 C346 1.389 . S
C348 C349 1.524 . S
C348 C362 1.377 . S
C349 C348 1.524 . S
C349 C350 1.397 . S
C349 C354 1.363 . S
C350 H327 0.950 . S
C350 C349 1.397 . S
C350 C351 1.334 . S
C351 H328 0.950 . S
C351 C350 1.334 . S
C351 C352 1.287 . S
C352 C351 1.287 . S
C352 C353 1.524 . S
C352 H371 0.913 . S
C353 H329 0.950 . S
C353 C352 1.524 . S
C353 C354 1.415 . S
C354 H330 0.950 . S
C354 C349 1.363 . S
C354 C353 1.415 . S
C355 H331 0.951 . S
C355 C356 1.366 . S
C355 C357 1.388 . S
C356 C355 1.366 . S
C356 C360 1.385 . S
C357 H332 0.951 . S
C357 C355 1.388 . S
C357 C358 1.366 . S
C358 C357 1.366 . S
C358 C359 1.414 . S
C358 C361 1.499 . S
C359 H333 0.950 . S
C359 C358 1.414 . S
C359 C360 1.374 . S
C360 H334 0.950 . S
C360 C356 1.385 . S
C360 C359 1.374 . S
C361 C358 1.499 . S
C361 C362 1.373 . S
C361 C363 1.389 . S
C362 H335 0.950 . S
C362 C348 1.377 . S
C362 C361 1.373 . S
C363 C347 1.377 . S
C363 C361 1.389 . S
C363 C364 1.524 . S
C364 C363 1.524 . S
C364 C365 1.397 . S
C364 C369 1.363 . S
C365 H336 0.950 . S
C365 C364 1.397 . S
C365 C366 1.334 . S
C366 H337 0.950 . S
C366 C365 1.334 . S
C366 C367 1.287 . S
C367 C366 1.287 . S
C367 C368 1.524 . S
C367 H370 0.999 1_455 S
C368 H338 0.950 . S
C368 C367 1.524 . S
C368 C369 1.415 . S
C369 H339 0.950 . S
C369 C364 1.363 . S
C369 C368 1.415 . S
H370 C367 0.999 1_655 S
H371 C352 0.913 . S
H372 C390 0.951 . S
H373 C392 0.951 . S
H374 C394 0.950 . S
H375 C395 0.950 . S
H376 C397 0.950 . S
H377 C400 0.950 . S
H378 C401 0.950 . S
H379 C403 0.950 . S
H380 C404 0.950 . S
H381 C405 0.951 . S
H382 C407 0.951 . S
H383 C409 0.950 . S
H384 C410 0.950 . S
H385 C412 0.950 . S
H386 C415 0.950 . S
H387 C416 0.950 . S
H388 C418 0.950 . S
H389 C419 0.950 . S
C390 H372 0.951 . S
C390 C391 1.366 . S
C390 C392 1.388 . S
C391 C390 1.366 . S
C391 C395 1.385 . S
C392 H373 0.951 . S
C392 C390 1.388 . S
C392 C393 1.366 . S
C393 C392 1.366 . S
C393 C394 1.414 . S
C393 C396 1.499 . S
C394 H374 0.950 . S
C394 C393 1.414 . S
C394 C395 1.374 . S
C395 H375 0.950 . S
C395 C391 1.385 . S
C395 C394 1.374 . S
C396 C393 1.499 . S
C396 C397 1.373 . S
C396 C398 1.389 . S
C397 H376 0.950 . S
C397 C396 1.373 . S
C397 C413 1.377 . S
C398 C396 1.389 . S
C398 C399 1.524 . S
C398 C412 1.377 . S
C399 C398 1.524 . S
C399 C400 1.397 . S
C399 C404 1.363 . S
C400 H377 0.950 . S
C400 C399 1.397 . S
C400 C401 1.334 . S
C401 H378 0.950 . S
C401 C400 1.334 . S
C401 C402 1.287 . S
C402 C401 1.287 . S
C402 C403 1.524 . S
C402 H421 0.913 . S
C403 H379 0.950 . S
C403 C402 1.524 . S
C403 C404 1.415 . S
C404 H380 0.950 . S
C404 C399 1.363 . S
C404 C403 1.415 . S
C405 H381 0.951 . S
C405 C406 1.366 . S
C405 C407 1.388 . S
C406 C405 1.366 . S
C406 C410 1.385 . S
C407 H382 0.951 . S
C407 C405 1.388 . S
C407 C408 1.366 . S
C408 C407 1.366 . S
C408 C409 1.414 . S
C408 C411 1.499 . S
C409 H383 0.950 . S
C409 C408 1.414 . S
C409 C410 1.374 . S
C410 H384 0.950 . S
C410 C406 1.385 . S
C410 C409 1.374 . S
C411 C408 1.499 . S
C411 C412 1.373 . S
C411 C413 1.389 . S
C412 H385 0.950 . S
C412 C398 1.377 . S
C412 C411 1.373 . S
C413 C397 1.377 . S
C413 C411 1.389 . S
C413 C414 1.524 . S
C414 C413 1.524 . S
C414 C415 1.397 . S
C414 C419 1.363 . S
C415 H386 0.950 . S
C415 C414 1.397 . S
C415 C416 1.334 . S
C416 H387 0.950 . S
C416 C415 1.334 . S
C416 C417 1.287 . S
C417 C416 1.287 . S
C417 C418 1.524 . S
C417 H420 0.999 . S
C418 H388 0.950 . S
C418 C417 1.524 . S
C418 C419 1.415 . S
C419 H389 0.950 . S
C419 C414 1.363 . S
C419 C418 1.415 . S
H420 C417 0.999 . S
H421 C402 0.913 . S
H422 C440 0.951 . S
H423 C442 0.951 . S
H424 C444 0.950 . S
H425 C445 0.950 . S
H426 C447 0.950 . S
H427 C450 0.950 . S
H428 C451 0.950 . S
H429 C453 0.950 . S
H430 C454 0.950 . S
H431 C455 0.951 . S
H432 C457 0.951 . S
H433 C459 0.950 . S
H434 C460 0.950 . S
H435 C462 0.950 . S
H436 C465 0.950 . S
H437 C466 0.950 . S
H438 C468 0.962 . S
H439 C469 0.950 . S
C440 H422 0.951 . S
C440 C441 1.366 . S
C440 C442 1.388 . S
C441 C440 1.366 . S
C441 C445 1.385 . S
C442 H423 0.951 . S
C442 C440 1.388 . S
C442 C443 1.366 . S
C443 C442 1.366 . S
C443 C444 1.414 . S
C443 C446 1.499 . S
C444 H424 0.950 . S
C444 C443 1.414 . S
C444 C445 1.374 . S
C445 H425 0.950 . S
C445 C441 1.385 . S
C445 C444 1.374 . S
C446 C443 1.499 . S
C446 C447 1.373 . S
C446 C448 1.389 . S
C447 H426 0.950 . S
C447 C446 1.373 . S
C447 C463 1.377 . S
C448 C446 1.389 . S
C448 C449 1.524 . S
C448 C462 1.377 . S
C449 C448 1.524 . S
C449 C450 1.397 . S
C449 C454 1.363 . S
C450 H427 0.950 . S
C450 C449 1.397 . S
C450 C451 1.334 . S
C451 H428 0.950 . S
C451 C450 1.334 . S
C451 C452 1.287 . S
C452 C451 1.287 . S
C452 C453 1.524 . S
C452 H471 0.913 . S
C453 H429 0.950 . S
C453 C452 1.524 . S
C453 C454 1.415 . S
C454 H430 0.950 . S
C454 C449 1.363 . S
C454 C453 1.415 . S
C455 H431 0.951 . S
C455 C456 1.366 . S
C455 C457 1.388 . S
C456 C455 1.366 . S
C456 C460 1.385 . S
C457 H432 0.951 . S
C457 C455 1.388 . S
C457 C458 1.366 . S
C458 C457 1.366 . S
C458 C459 1.414 . S
C458 C461 1.499 . S
C459 H433 0.950 . S
C459 C458 1.414 . S
C459 C460 1.374 . S
C460 H434 0.950 . S
C460 C456 1.385 . S
C460 C459 1.374 . S
C461 C458 1.499 . S
C461 C462 1.373 . S
C461 C463 1.389 . S
C462 H435 0.950 . S
C462 C448 1.377 . S
C462 C461 1.373 . S
C463 C447 1.377 . S
C463 C461 1.389 . S
C463 C464 1.524 . S
C464 C463 1.524 . S
C464 C465 1.397 . S
C464 C469 1.363 . S
C465 H436 0.950 . S
C465 C464 1.397 . S
C465 C466 1.334 . S
C466 H437 0.950 . S
C466 C465 1.334 . S
C466 C467 1.287 . S
C467 C466 1.287 . S
C467 C468 1.524 . S
C467 H470 0.999 1_655 S
C468 H438 0.962 . S
C468 C467 1.524 . S
C468 C469 1.415 . S
C469 H439 0.950 . S
C469 C464 1.363 . S
C469 C468 1.415 . S
H470 C467 0.999 1_455 S
H471 C452 0.913 . S
H472 C490 0.951 . S
H473 C492 0.951 . S
H474 C494 0.950 . S
H475 C495 0.950 . S
H476 C497 0.950 . S
H477 C500 0.950 . S
H478 C501 0.950 . S
H479 C503 0.950 . S
H480 C504 0.950 . S
H481 C505 0.951 . S
H482 C507 0.951 . S
H483 C509 0.950 . S
H484 C510 0.950 . S
H485 C512 0.950 . S
H486 C515 0.950 . S
H487 C516 0.950 . S
H488 C518 0.950 . S
H489 C519 0.950 . S
C490 H472 0.951 . S
C490 C491 1.366 . S
C490 C492 1.388 . S
C491 C490 1.366 . S
C491 C495 1.385 . S
C492 H473 0.951 . S
C492 C490 1.388 . S
C492 C493 1.366 . S
C493 C492 1.366 . S
C493 C494 1.414 . S
C493 C496 1.499 . S
C494 H474 0.950 . S
C494 C493 1.414 . S
C494 C495 1.374 . S
C495 H475 0.950 . S
C495 C491 1.385 . S
C495 C494 1.374 . S
C496 C493 1.499 . S
C496 C497 1.373 . S
C496 C498 1.389 . S
C497 H476 0.950 . S
C497 C496 1.373 . S
C497 C513 1.377 . S
C498 C496 1.389 . S
C498 C499 1.524 . S
C498 C512 1.377 . S
C499 C498 1.524 . S
C499 C500 1.397 . S
C499 C504 1.363 . S
C500 H477 0.950 . S
C500 C499 1.397 . S
C500 C501 1.334 . S
C501 H478 0.950 . S
C501 C500 1.334 . S
C501 C502 1.287 . S
C502 C501 1.287 . S
C502 C503 1.524 . S
C502 H521 0.913 . S
C503 H479 0.950 . S
C503 C502 1.524 . S
C503 C504 1.415 . S
C504 H480 0.950 . S
C504 C499 1.363 . S
C504 C503 1.415 . S
C505 H481 0.951 . S
C505 C506 1.366 . S
C505 C507 1.388 . S
C506 C505 1.366 . S
C506 C510 1.385 . S
C507 H482 0.951 . S
C507 C505 1.388 . S
C507 C508 1.366 . S
C508 C507 1.366 . S
C508 C509 1.414 . S
C508 C511 1.499 . S
C509 H483 0.950 . S
C509 C508 1.414 . S
C509 C510 1.374 . S
C510 H484 0.950 . S
C510 C506 1.385 . S
C510 C509 1.374 . S
C511 C508 1.499 . S
C511 C512 1.373 . S
C511 C513 1.389 . S
C512 H485 0.950 . S
C512 C498 1.377 . S
C512 C511 1.373 . S
C513 C497 1.377 . S
C513 C511 1.389 . S
C513 C514 1.524 . S
C514 C513 1.524 . S
C514 C515 1.397 . S
C514 C519 1.363 . S
C515 H486 0.950 . S
C515 C514 1.397 . S
C515 C516 1.334 . S
C516 H487 0.950 . S
C516 C515 1.334 . S
C516 C517 1.287 . S
C517 C516 1.287 . S
C517 C518 1.524 . S
C517 H520 0.999 . S
C518 H488 0.950 . S
C518 C517 1.524 . S
C518 C519 1.415 . S
C519 H489 0.950 . S
C519 C514 1.363 . S
C519 C518 1.415 . S
H520 C517 0.999 . S
H521 C502 0.913 . S
H522 C540 0.951 . S
H523 C542 0.951 . S
H524 C544 0.950 . S
H525 C545 0.950 . S
H526 C547 0.950 . S
H527 C550 0.950 . S
H528 C551 0.950 . S
H529 C553 0.950 . S
H530 C554 0.950 . S
H531 C555 0.951 . S
H532 C557 0.951 . S
H533 C559 0.950 . S
H534 C560 0.950 . S
H535 C562 0.950 . S
H536 C565 0.950 . S
H537 C566 0.950 . S
H538 C568 0.950 . S
H539 C569 0.950 . S
C540 H522 0.951 . S
C540 C541 1.366 . S
C540 C542 1.388 . S
C541 C540 1.366 . S
C541 C545 1.385 . S
C542 H523 0.951 . S
C542 C540 1.388 . S
C542 C543 1.366 . S
C543 C542 1.366 . S
C543 C544 1.414 . S
C543 C546 1.499 . S
C544 H524 0.950 . S
C544 C543 1.414 . S
C544 C545 1.374 . S
C545 H525 0.950 . S
C545 C541 1.385 . S
C545 C544 1.374 . S
C546 C543 1.499 . S
C546 C547 1.373 . S
C546 C548 1.389 . S
C547 H526 0.950 . S
C547 C546 1.373 . S
C547 C563 1.377 . S
C548 C546 1.389 . S
C548 C549 1.524 . S
C548 C562 1.377 . S
C549 C548 1.524 . S
C549 C550 1.397 . S
C549 C554 1.363 . S
C550 H527 0.950 . S
C550 C549 1.397 . S
C550 C551 1.334 . S
C551 H528 0.950 . S
C551 C550 1.334 . S
C551 C552 1.287 . S
C552 C551 1.287 . S
C552 C553 1.524 . S
C552 H571 0.913 . S
C553 H529 0.950 . S
C553 C552 1.524 . S
C553 C554 1.415 . S
C554 H530 0.950 . S
C554 C549 1.363 . S
C554 C553 1.415 . S
C555 H531 0.951 . S
C555 C556 1.366 . S
C555 C557 1.388 . S
C556 C555 1.366 . S
C556 C560 1.385 . S
C557 H532 0.951 . S
C557 C555 1.388 . S
C557 C558 1.366 . S
C558 C557 1.366 . S
C558 C559 1.414 . S
C558 C561 1.499 . S
C559 H533 0.950 . S
C559 C558 1.414 . S
C559 C560 1.374 . S
C560 H534 0.950 . S
C560 C556 1.385 . S
C560 C559 1.374 . S
C561 C558 1.499 . S
C561 C562 1.373 . S
C561 C563 1.389 . S
C562 H535 0.950 . S
C562 C548 1.377 . S
C562 C561 1.373 . S
C563 C547 1.377 . S
C563 C561 1.389 . S
C563 C564 1.524 . S
C564 C563 1.524 . S
C564 C565 1.397 . S
C564 C569 1.363 . S
C565 H536 0.950 . S
C565 C564 1.397 . S
C565 C566 1.334 . S
C566 H537 0.950 . S
C566 C565 1.334 . S
C566 C567 1.287 . S
C567 C566 1.287 . S
C567 C568 1.524 . S
C567 H570 0.999 . S
C568 H538 0.950 . S
C568 C567 1.524 . S
C568 C569 1.415 . S
C569 H539 0.950 . S
C569 C564 1.363 . S
C569 C568 1.415 . S
H570 C567 0.999 . S
H571 C552 0.913 . S
H572 C590 0.951 . S
H573 C592 0.951 . S
H574 C594 0.950 . S
H575 C595 0.950 . S
H576 C597 0.950 . S
H577 C600 0.950 . S
H578 C601 0.950 . S
H579 C603 0.950 . S
H580 C604 0.950 . S
H581 C605 0.951 . S
H582 C607 0.951 . S
H583 C609 0.950 . S
H584 C610 0.950 . S
H585 C612 0.950 . S
H586 C615 0.950 . S
H587 C616 0.950 . S
H588 C618 0.952 . S
H589 C619 0.950 . S
C590 H572 0.951 . S
C590 C591 1.366 . S
C590 C592 1.388 . S
C591 C590 1.366 . S
C591 C595 1.385 . S
C592 H573 0.951 . S
C592 C590 1.388 . S
C592 C593 1.366 . S
C593 C592 1.366 . S
C593 C594 1.414 . S
C593 C596 1.499 . S
C594 H574 0.950 . S
C594 C593 1.414 . S
C594 C595 1.374 . S
C595 H575 0.950 . S
C595 C591 1.385 . S
C595 C594 1.374 . S
C596 C593 1.499 . S
C596 C597 1.373 . S
C596 C598 1.389 . S
C597 H576 0.950 . S
C597 C596 1.373 . S
C597 C613 1.377 . S
C598 C596 1.389 . S
C598 C599 1.524 . S
C598 C612 1.377 . S
C599 C598 1.524 . S
C599 C600 1.397 . S
C599 C604 1.363 . S
C600 H577 0.950 . S
C600 C599 1.397 . S
C600 C601 1.334 . S
C601 H578 0.950 . S
C601 C600 1.334 . S
C601 C602 1.287 . S
C602 C601 1.287 . S
C602 C603 1.524 . S
C602 H621 0.913 . S
C603 H579 0.950 . S
C603 C602 1.524 . S
C603 C604 1.415 . S
C604 H580 0.950 . S
C604 C599 1.363 . S
C604 C603 1.415 . S
C605 H581 0.951 . S
C605 C606 1.366 . S
C605 C607 1.388 . S
C606 C605 1.366 . S
C606 C610 1.385 . S
C607 H582 0.951 . S
C607 C605 1.388 . S
C607 C608 1.366 . S
C608 C607 1.366 . S
C608 C609 1.414 . S
C608 C611 1.499 . S
C609 H583 0.950 . S
C609 C608 1.414 . S
C609 C610 1.374 . S
C610 H584 0.950 . S
C610 C606 1.385 . S
C610 C609 1.374 . S
C611 C608 1.499 . S
C611 C612 1.373 . S
C611 C613 1.389 . S
C612 H585 0.950 . S
C612 C598 1.377 . S
C612 C611 1.373 . S
C613 C597 1.377 . S
C613 C611 1.389 . S
C613 C614 1.524 . S
C614 C613 1.524 . S
C614 C615 1.397 . S
C614 C619 1.363 . S
C615 H586 0.950 . S
C615 C614 1.397 . S
C615 C616 1.334 . S
C616 H587 0.950 . S
C616 C615 1.334 . S
C616 C617 1.287 . S
C617 C616 1.287 . S
C617 C618 1.524 . S
C617 H620 0.999 . S
C618 H588 0.952 . S
C618 C617 1.524 . S
C618 C619 1.415 . S
C619 H589 0.950 . S
C619 C614 1.363 . S
C619 C618 1.415 . S
H620 C617 0.999 . S
H621 C602 0.913 . S
H622 C640 0.951 . S
H623 C642 0.951 . S
H624 C644 0.950 . S
H625 C645 0.950 . S
H626 C647 0.950 . S
H627 C650 0.950 . S
H628 C651 0.950 . S
H629 C653 0.950 . S
H630 C654 0.950 . S
H631 C655 0.951 . S
H632 C657 0.951 . S
H633 C659 0.950 . S
H634 C660 0.950 . S
H635 C662 0.950 . S
H636 C665 0.950 . S
H637 C666 0.950 . S
H638 C668 0.950 . S
H639 C669 0.950 . S
C640 H622 0.951 . S
C640 C641 1.366 . S
C640 C642 1.388 . S
C641 C640 1.366 . S
C641 C645 1.385 . S
C642 H623 0.951 . S
C642 C640 1.388 . S
C642 C643 1.366 . S
C643 C642 1.366 . S
C643 C644 1.414 . S
C643 C646 1.499 . S
C644 H624 0.950 . S
C644 C643 1.414 . S
C644 C645 1.374 . S
C645 H625 0.950 . S
C645 C641 1.385 . S
C645 C644 1.374 . S
C646 C643 1.499 . S
C646 C647 1.373 . S
C646 C648 1.389 . S
C647 H626 0.950 . S
C647 C646 1.373 . S
C647 C663 1.377 . S
C648 C646 1.389 . S
C648 C649 1.524 . S
C648 C662 1.377 . S
C649 C648 1.524 . S
C649 C650 1.397 . S
C649 C654 1.363 . S
C650 H627 0.950 . S
C650 C649 1.397 . S
C650 C651 1.334 . S
C651 H628 0.950 . S
C651 C650 1.334 . S
C651 C652 1.287 . S
C652 C651 1.287 . S
C652 C653 1.524 . S
C652 H671 0.913 . S
C653 H629 0.950 . S
C653 C652 1.524 . S
C653 C654 1.415 . S
C654 H630 0.950 . S
C654 C649 1.363 . S
C654 C653 1.415 . S
C655 H631 0.951 . S
C655 C656 1.366 . S
C655 C657 1.388 . S
C656 C655 1.366 . S
C656 C660 1.385 . S
C657 H632 0.951 . S
C657 C655 1.388 . S
C657 C658 1.366 . S
C658 C657 1.366 . S
C658 C659 1.414 . S
C658 C661 1.499 . S
C659 H633 0.950 . S
C659 C658 1.414 . S
C659 C660 1.374 . S
C660 H634 0.950 . S
C660 C656 1.385 . S
C660 C659 1.374 . S
C661 C658 1.499 . S
C661 C662 1.373 . S
C661 C663 1.389 . S
C662 H635 0.950 . S
C662 C648 1.377 . S
C662 C661 1.373 . S
C663 C647 1.377 . S
C663 C661 1.389 . S
C663 C664 1.524 . S
C664 C663 1.524 . S
C664 C665 1.397 . S
C664 C669 1.363 . S
C665 H636 0.950 . S
C665 C664 1.397 . S
C665 C666 1.334 . S
C666 H637 0.950 . S
C666 C665 1.334 . S
C666 C667 1.287 . S
C667 C666 1.287 . S
C667 C668 1.524 . S
C667 H670 0.999 . S
C668 H638 0.950 . S
C668 C667 1.524 . S
C668 C669 1.415 . S
C669 H639 0.950 . S
C669 C664 1.363 . S
C669 C668 1.415 . S
H670 C667 0.999 . S
H671 C652 0.913 . S
H672 C690 0.951 . S
H673 C692 0.951 . S
H674 C694 0.950 . S
H675 C695 0.950 . S
H676 C697 0.950 . S
H677 C700 0.950 . S
H678 C701 0.950 . S
H679 C703 0.950 . S
H680 C704 0.950 . S
H681 C705 0.951 . S
H682 C707 0.951 . S
H683 C709 0.950 . S
H684 C710 0.950 . S
H685 C712 0.950 . S
H686 C715 0.950 . S
H687 C716 0.950 1_545 S
H688 C718 0.950 1_545 S
H689 C719 0.950 . S
C690 H672 0.951 . S
C690 C691 1.366 . S
C690 C692 1.388 . S
C691 C690 1.366 . S
C691 C695 1.385 . S
C692 H673 0.951 . S
C692 C690 1.388 . S
C692 C693 1.366 . S
C693 C692 1.366 . S
C693 C694 1.414 . S
C693 C696 1.499 . S
C694 H674 0.950 . S
C694 C693 1.414 . S
C694 C695 1.374 . S
C695 H675 0.950 . S
C695 C691 1.385 . S
C695 C694 1.374 . S
C696 C693 1.499 . S
C696 C697 1.373 . S
C696 C698 1.389 . S
C697 H676 0.950 . S
C697 C696 1.373 . S
C697 C713 1.377 . S
C698 C696 1.389 . S
C698 C699 1.524 . S
C698 C712 1.377 . S
C699 C698 1.524 . S
C699 C700 1.397 . S
C699 C704 1.363 . S
C700 H677 0.950 . S
C700 C699 1.397 . S
C700 C701 1.334 . S
C701 H678 0.950 . S
C701 C700 1.334 . S
C701 C702 1.287 . S
C702 C701 1.287 . S
C702 C703 1.524 . S
C702 H721 0.913 . S
C703 H679 0.950 . S
C703 C702 1.524 . S
C703 C704 1.415 . S
C704 H680 0.950 . S
C704 C699 1.363 . S
C704 C703 1.415 . S
C705 H681 0.951 . S
C705 C706 1.366 . S
C705 C707 1.388 . S
C706 C705 1.366 . S
C706 C710 1.385 . S
C707 H682 0.951 . S
C707 C705 1.388 . S
C707 C708 1.366 . S
C708 C707 1.366 . S
C708 C709 1.414 . S
C708 C711 1.499 . S
C709 H683 0.950 . S
C709 C708 1.414 . S
C709 C710 1.374 . S
C710 H684 0.950 . S
C710 C706 1.385 . S
C710 C709 1.374 . S
C711 C708 1.499 . S
C711 C712 1.373 . S
C711 C713 1.389 . S
C712 H685 0.950 . S
C712 C698 1.377 . S
C712 C711 1.373 . S
C713 C697 1.377 . S
C713 C711 1.389 . S
C713 C714 1.524 . S
C714 C713 1.524 . S
C714 C715 1.397 . S
C714 C719 1.363 . S
C715 H686 0.950 . S
C715 C714 1.397 . S
C715 C716 1.334 . S
C716 H687 0.950 1_565 S
C716 C715 1.334 . S
C716 C717 1.287 1_565 S
C717 C716 1.287 1_545 S
C717 C718 1.524 1_545 S
C717 H720 0.999 . S
C718 H688 0.950 1_565 S
C718 C717 1.524 1_565 S
C718 C719 1.415 . S
C719 H689 0.950 . S
C719 C714 1.363 . S
C719 C718 1.415 . S
H720 C717 0.999 . S
H721 C702 0.913 . S
C156 C93 1.539 . S
C141 C68 1.413 . S
C191 C11 1.413 . S
C206 C116 1.542 . S
C241 C30 1.459 . S
C256 C92 1.580 . S
C291 C49 1.449 . S
C306 C115 1.578 . S
C356 C96 1.523 . S
C341 C2 1.518 . S
C406 C118 1.547 . S
C391 C25 1.597 . S
C441 C40 1.537 . S
C456 C97 1.520 . S
C491 C59 1.550 . S
C506 C117 1.528 . S
C556 C120 1.404 . S
C541 C21 1.418 . S
C606 C95 1.435 . S
C591 C44 1.486 . S
C656 C119 1.411 . S
C641 C63 1.445 . S
C691 C6 1.468 . S
C706 C94 1.418 . S
