# Generated by pormake.
# Topology anh, (6,3)-cn, num edge types: 1
# Building blocks:
#     Node 0, Type 0, BuildingBlock: CUWYAW_clean_sbu_0, # of connection points: 6
#     Node 1, Type 0, BuildingBlock: CUWYAW_clean_sbu_0, # of connection points: 6
#     Node 2, Type 0, BuildingBlock: CUWYAW_clean_sbu_0, # of connection points: 6
#     Node 3, Type 1, BuildingBlock: ESEHIV_clean_linker_0, # of connection points: 3
#     Node 4, Type 1, BuildingBlock: ESEHIV_clean_linker_0, # of connection points: 3
#     Node 5, Type 1, BuildingBlock: ESEHIV_clean_linker_0, # of connection points: 3
#     Node 6, Type 1, BuildingBlock: ESEHIV_clean_linker_0, # of connection points: 3
#     Node 7, Type 1, BuildingBlock: ESEHIV_clean_linker_0, # of connection points: 3
#     Node 8, Type 1, BuildingBlock: ESEHIV_clean_linker_0, # of connection points: 3
#     Edge 9, Type (0, 1), BuildingBlock: MIFKUJ_clean_linker_0, # of connection points: 2
#     Edge 10, Type (0, 1), BuildingBlock: MIFKUJ_clean_linker_0, # of connection points: 2
#     Edge 11, Type (0, 1), BuildingBlock: MIFKUJ_clean_linker_0, # of connection points: 2
#     Edge 12, Type (0, 1), BuildingBlock: MIFKUJ_clean_linker_0, # of connection points: 2
#     Edge 13, Type (0, 1), BuildingBlock: MIFKUJ_clean_linker_0, # of connection points: 2
#     Edge 14, Type (0, 1), BuildingBlock: MIFKUJ_clean_linker_0, # of connection points: 2
#     Edge 15, Type (0, 1), BuildingBlock: MIFKUJ_clean_linker_0, # of connection points: 2
#     Edge 16, Type (0, 1), BuildingBlock: MIFKUJ_clean_linker_0, # of connection points: 2
#     Edge 17, Type (0, 1), BuildingBlock: MIFKUJ_clean_linker_0, # of connection points: 2
#     Edge 18, Type (0, 1), BuildingBlock: MIFKUJ_clean_linker_0, # of connection points: 2
#     Edge 19, Type (0, 1), BuildingBlock: MIFKUJ_clean_linker_0, # of connection points: 2
#     Edge 20, Type (0, 1), BuildingBlock: MIFKUJ_clean_linker_0, # of connection points: 2
#     Edge 21, Type (0, 1), BuildingBlock: MIFKUJ_clean_linker_0, # of connection points: 2
#     Edge 22, Type (0, 1), BuildingBlock: MIFKUJ_clean_linker_0, # of connection points: 2
#     Edge 23, Type (0, 1), BuildingBlock: MIFKUJ_clean_linker_0, # of connection points: 2
#     Edge 24, Type (0, 1), BuildingBlock: MIFKUJ_clean_linker_0, # of connection points: 2
#     Edge 25, Type (0, 1), BuildingBlock: MIFKUJ_clean_linker_0, # of connection points: 2
#     Edge 26, Type (0, 1), BuildingBlock: MIFKUJ_clean_linker_0, # of connection points: 2
# Relax obj value: 0.240
# Max RMSD: 0.184
# Mean RMSD: 0.155
data_MOF--net-anh--node1-CUWYAW_clean_sbu_0--node2-ESEHIV_clean_linker_0--edge1-MIFKUJ_clean_linker_0
_symmetry_space_group_name_H-M    P1
_symmetry_Int_Tables_number       1
_symmetry_cell_setting            triclinic
loop_
_symmetry_equiv_pos_as_xyz
'x, y, z'
_cell_length_a     38.233055
_cell_length_b     37.948727
_cell_length_c     67.240601
_cell_angle_alpha  90.18773
_cell_angle_beta   89.752935
_cell_angle_gamma 119.61063
loop_
_atom_site_label
_atom_site_type_symbol
_atom_site_fract_x
_atom_site_fract_y
_atom_site_fract_z
_atom_type_partial_charge
C0 C 1.01945 0.43668 0.15347 0.0
Eu1 Eu 0.07319 0.5091 0.16399 0.0
C2 C 0.97576 0.42056 0.15525 0.0
C3 C 0.96044 0.43031 0.17214 0.0
C4 C 0.92128 0.42375 0.17232 0.0
C5 C 0.89652 0.40742 0.15561 0.0
C6 C 0.9111 0.39594 0.139 0.0
C7 C 0.9506 0.40271 0.13879 0.0
C8 C 0.08751 0.53084 0.20322 0.0
C9 C 1.01856 0.55709 0.16376 0.0
C10 C 0.16284 0.66782 0.18276 0.0
Eu11 Eu 0.11475 0.59561 0.16937 0.0
C12 C 0.20674 0.69422 0.18329 0.0
C13 C 0.22361 0.73276 0.17469 0.0
C14 C 0.26507 0.75856 0.17501 0.0
C15 C 0.29044 0.7464 0.18408 0.0
C16 C 0.27366 0.70753 0.19244 0.0
C17 C 0.23208 0.68146 0.19192 0.0
C18 C 0.09748 0.57318 0.13111 0.0
C19 C 0.17085 0.54992 0.16142 0.0
O20 O 1.03713 0.46638 0.14077 0.0
O21 O 1.03936 0.44416 0.17016 0.0
O22 O 0.09174 0.50224 0.19498 0.0
O23 O 0.07539 0.54686 0.1904 0.0
O24 O 1.02121 0.5243 0.15911 0.0
O25 O 1.05128 0.58924 0.17078 0.0
O26 O 0.14758 0.63542 0.19399 0.0
O27 O 0.14645 0.66099 0.16513 0.0
O28 O 0.09514 0.60332 0.13885 0.0
O29 O 0.11095 0.55798 0.1435 0.0
O30 O 0.16945 0.58313 0.16705 0.0
O31 O 0.13614 0.51622 0.15785 0.0
H32 H 0.97931 0.4449 0.18493 0.0
H33 H 0.91056 0.4321 0.18548 0.0
H34 H 0.89254 0.38324 0.12593 0.0
H35 H 0.96208 0.39582 0.12545 0.0
H36 H 0.20462 0.74312 0.16792 0.0
H37 H 0.27711 0.7887 0.16884 0.0
H38 H 0.29263 0.69757 0.19957 0.0
H39 H 0.21986 0.65161 0.19847 0.0
C40 C 0.55479 0.13168 0.48223 0.0
Eu41 Eu 0.57638 0.08113 0.49579 0.0
C42 C 0.57785 0.17593 0.48016 0.0
C43 C 0.61148 0.19859 0.4923 0.0
C44 C 0.63616 0.23999 0.48909 0.0
C45 C 0.62748 0.2594 0.47378 0.0
C46 C 0.59342 0.23709 0.46187 0.0
C47 C 0.56893 0.19536 0.4649 0.0
C48 C 0.58331 0.06897 0.53532 0.0
C49 C 0.67832 0.13484 0.49591 0.0
C50 C 0.63925 0.98675 0.51717 0.0
Eu51 Eu 0.62017 1.03799 0.5027 0.0
C52 C 0.61754 0.94227 0.5159 0.0
C53 C 0.60052 0.92254 0.49782 0.0
C54 C 0.57855 0.88032 0.49692 0.0
C55 C 0.57259 0.85725 0.51413 0.0
C56 C 0.58848 0.87698 0.5323 0.0
C57 C 0.61093 0.91922 0.53316 0.0
C58 C 0.61327 0.05089 0.46401 0.0
C59 C 0.51913 0.98236 0.49498 0.0
O60 O 0.56721 0.11214 0.47085 0.0
O61 O 0.54734 0.11764 0.50041 0.0
O62 O 0.55107 0.06532 0.52704 0.0
O63 O 0.61109 0.07974 0.52244 0.0
O64 O 0.64345 0.13275 0.49113 0.0
O65 O 0.67727 0.10165 0.50313 0.0
O66 O 0.62128 1.00223 0.52773 0.0
O67 O 0.65437 1.0063 0.50052 0.0
O68 O 0.64575 0.0535 0.47143 0.0
O69 O 0.5861 1.03969 0.47699 0.0
O70 O 0.55305 0.9836 0.50109 0.0
O71 O 0.52084 1.01739 0.49053 0.0
H72 H 0.61904 0.18417 0.50409 0.0
H73 H 0.66195 0.25698 0.49864 0.0
H74 H 0.58609 0.25187 0.45015 0.0
H75 H 0.54338 0.17822 0.45525 0.0
H76 H 0.60425 0.93968 0.48437 0.0
H77 H 0.56653 0.86563 0.48276 0.0
H78 H 0.58472 0.85969 0.54571 0.0
H79 H 0.62318 0.93389 0.54729 0.0
C80 C 0.74994 0.64203 0.82086 0.0
Eu81 Eu 0.67724 0.6156 0.83384 0.0
C82 C 0.76638 0.62227 0.80807 0.0
C83 C 0.80281 0.62447 0.81319 0.0
C84 C 0.81352 0.59747 0.80477 0.0
C85 C 0.78786 0.56786 0.79105 0.0
C86 C 0.75361 0.56884 0.78437 0.0
C87 C 0.74267 0.5955 0.79297 0.0
C88 C 0.65123 0.60925 0.87225 0.0
C89 C 0.62857 0.51292 0.83103 0.0
C90 C 0.51578 0.53882 0.85775 0.0
Eu91 Eu 0.58408 0.56741 0.83948 0.0
C92 C 0.48026 0.54393 0.85653 0.0
C93 C 0.46251 0.54337 0.83819 0.0
C94 C 0.42857 0.54813 0.83754 0.0
C95 C 0.41237 0.55411 0.85517 0.0
C96 C 0.4308 0.55556 0.87342 0.0
C97 C 0.4644 0.55039 0.87408 0.0
C98 C 0.60253 0.58042 0.80027 0.0
C99 C 0.62943 0.66835 0.83102 0.0
O100 O 0.7246 0.65113 0.81247 0.0
O101 O 0.73775 0.62534 0.83839 0.0
O102 O 0.68244 0.6409 0.86495 0.0
O103 O 0.63629 0.5817 0.8591 0.0
O104 O 0.66245 0.54839 0.82827 0.0
O105 O 0.59486 0.51253 0.83677 0.0
O106 O 0.54871 0.57062 0.86406 0.0
O107 O 0.52194 0.51992 0.84292 0.0
O108 O 0.56554 0.56005 0.80658 0.0
O109 O 0.62535 0.59167 0.81501 0.0
O110 O 0.5961 0.63417 0.83641 0.0
O111 O 0.664 0.66817 0.82839 0.0
H112 H 0.82134 0.64477 0.82488 0.0
H113 H 0.83993 0.59745 0.8105 0.0
H114 H 0.73364 0.54687 0.77365 0.0
H115 H 0.71421 0.59301 0.78883 0.0
H116 H 0.47465 0.539 0.8244 0.0
H117 H 0.41489 0.54699 0.8233 0.0
H118 H 0.4185 0.55946 0.88727 0.0
H119 H 0.47786 0.55112 0.88834 0.0
H120 H 0.52818 0.11187 0.27995 0.0
H121 H 0.58877 0.23966 0.26803 0.0
H122 H 0.53904 0.15327 0.21993 0.0
C123 C 0.53712 0.13658 0.26949 0.0
C124 C 0.53203 0.12828 0.24915 0.0
C125 C 0.557 0.17671 0.27636 0.0
C126 C 0.57131 0.20879 0.26269 0.0
C127 C 0.56488 0.20072 0.24214 0.0
C128 C 0.54431 0.16021 0.23565 0.0
H129 H 0.64854 0.59534 0.59405 0.0
H130 H 0.74901 0.57409 0.5925 0.0
H131 H 0.69899 0.58878 0.53796 0.0
C132 C 0.6705 0.5913 0.58556 0.0
C133 C 0.67052 0.5931 0.56475 0.0
C134 C 0.69878 0.5847 0.59564 0.0
C135 C 0.72788 0.58041 0.58478 0.0
C136 C 0.72826 0.58208 0.56388 0.0
C137 C 0.69984 0.58901 0.55406 0.0
H138 H 0.90828 0.41038 0.92827 0.0
H139 H 1.03067 0.44152 0.9407 0.0
H140 H 0.99157 0.43072 0.88036 0.0
C141 C 0.93761 0.41641 0.92309 0.0
C142 C 0.94604 0.41899 0.90254 0.0
C143 C 0.96796 0.42349 0.93693 0.0
C144 C 1.00664 0.434 0.93011 0.0
C145 C 1.01527 0.43707 0.90978 0.0
C146 C 0.98463 0.42811 0.89613 0.0
H147 H 1.04085 0.50014 0.4237 0.0
H148 H 0.15175 0.61299 0.42155 0.0
H149 H 0.10023 0.55886 0.47859 0.0
C150 C 0.06564 0.52478 0.43155 0.0
C151 C 0.06549 0.52421 0.45254 0.0
C152 C 0.0963 0.55648 0.42037 0.0
C153 C 0.12823 0.58924 0.43042 0.0
C154 C 0.1314 0.59177 0.45143 0.0
C155 C 0.09938 0.55813 0.46251 0.0
H156 H 0.61449 0.13756 0.75469 0.0
H157 H 0.62192 1.02811 0.75614 0.0
H158 H 0.62278 0.08783 0.81109 0.0
C159 C 0.61704 0.11473 0.76315 0.0
C160 C 0.61898 0.11821 0.78415 0.0
C161 C 0.61813 0.08276 0.75277 0.0
C162 C 0.62061 0.05249 0.7639 0.0
C163 C 0.62191 0.05283 0.78488 0.0
C164 C 0.62167 0.0866 0.79501 0.0
H165 H 0.54385 0.56236 0.09101 0.0
H166 H 0.65691 0.56332 0.09127 0.0
H167 H 0.59578 0.55479 0.14673 0.0
C168 C 0.56799 0.5619 0.09916 0.0
C169 C 0.56499 0.55924 0.12012 0.0
C170 C 0.60056 0.56301 0.08851 0.0
C171 C 0.63137 0.56131 0.0993 0.0
C172 C 0.63101 0.55797 0.12022 0.0
C173 C 0.59721 0.55727 0.13069 0.0
H174 H 0.24988 0.6161 0.16101 0.0
H175 H 0.31436 0.61784 0.15562 0.0
H176 H 0.25197 0.48806 0.14961 0.0
H177 H 0.18737 0.48632 0.15476 0.0
H178 H 0.32002 0.50847 0.16985 0.0
H179 H 0.29773 0.55843 0.10854 0.0
H180 H 0.2844 0.6034 0.08736 0.0
H181 H 0.39196 0.70678 0.10874 0.0
H182 H 0.40568 0.66244 0.13024 0.0
H183 H 0.49129 0.49351 0.13231 0.0
H184 H 0.42731 0.49132 0.13972 0.0
H185 H 0.48582 0.6212 0.13444 0.0
H186 H 0.54932 0.62284 0.12628 0.0
H187 H 0.41908 0.60078 0.12043 0.0
H188 H 0.44198 0.5539 0.18213 0.0
H189 H 0.45565 0.51125 0.20485 0.0
H190 H 0.34856 0.4055 0.18492 0.0
H191 H 0.33449 0.44748 0.16191 0.0
C192 C 0.24945 0.58769 0.15851 0.0
C193 C 0.21195 0.55104 0.15836 0.0
C194 C 0.28706 0.58872 0.15526 0.0
C195 C 0.28977 0.55312 0.15184 0.0
C196 C 0.25233 0.51644 0.15208 0.0
C197 C 0.21467 0.51545 0.15503 0.0
C198 C 0.33081 0.55405 0.14805 0.0
C199 C 0.34121 0.52845 0.1588 0.0
C200 C 0.36054 0.58048 0.1341 0.0
C201 C 0.35252 0.60716 0.12114 0.0
C202 C 0.3184 0.59078 0.10882 0.0
C203 C 0.31079 0.61615 0.09675 0.0
C204 C 0.33726 0.65793 0.09675 0.0
C205 C 0.37146 0.67441 0.10878 0.0
C206 C 0.37918 0.64918 0.1209 0.0
C207 C 0.49112 0.52189 0.13338 0.0
C208 C 0.52722 0.55857 0.12945 0.0
C209 C 0.45371 0.52071 0.13764 0.0
C210 C 0.44983 0.55618 0.1383 0.0
C211 C 0.48613 0.59283 0.13435 0.0
C212 C 0.52338 0.59392 0.12994 0.0
C213 C 0.40868 0.55524 0.14231 0.0
C214 C 0.39813 0.58081 0.13155 0.0
C215 C 0.37903 0.52914 0.15646 0.0
C216 C 0.38745 0.50377 0.17014 0.0
C217 C 0.42151 0.52151 0.18249 0.0
C218 C 0.4293 0.49746 0.19544 0.0
C219 C 0.40305 0.45568 0.19628 0.0
C220 C 0.3689 0.43786 0.18422 0.0
C221 C 0.36099 0.46176 0.17123 0.0
H222 H 0.40913 0.43712 0.20631 0.0
H223 H 0.33132 0.67753 0.08739 0.0
H224 H 0.75843 0.15093 0.49932 0.0
H225 H 0.82196 0.21364 0.49327 0.0
H226 H 0.75625 0.27546 0.47947 0.0
H227 H 0.69285 0.21204 0.48438 0.0
H228 H 0.81504 0.30934 0.45699 0.0
H229 H 0.81927 0.28245 0.52635 0.0
H230 H 0.81936 0.24467 0.556 0.0
H231 H 0.92351 0.24186 0.53396 0.0
H232 H 0.92391 0.27942 0.50401 0.0
H233 H 0.98743 0.5108 0.45721 0.0
H234 H 0.92516 0.44843 0.46563 0.0
H235 H 0.99323 0.38766 0.47575 0.0
H236 H 1.0558 0.4508 0.4678 0.0
H237 H 0.93387 0.35316 0.50031 0.0
H238 H 0.92866 0.37837 0.43091 0.0
H239 H 0.92926 0.41683 0.40129 0.0
H240 H 0.82629 0.42165 0.42362 0.0
H241 H 0.82541 0.3837 0.45349 0.0
C242 C 0.75712 0.17774 0.49507 0.0
C243 C 0.719 0.17508 0.49271 0.0
C244 C 0.79428 0.21457 0.49171 0.0
C245 C 0.79598 0.25161 0.48619 0.0
C246 C 0.75772 0.24871 0.48368 0.0
C247 C 0.72062 0.21174 0.48673 0.0
C248 C 0.83656 0.29246 0.48275 0.0
C249 C 0.84054 0.31866 0.46681 0.0
C250 C 0.87186 0.30636 0.49482 0.0
C251 C 0.8715 0.28365 0.51282 0.0
C252 C 0.8422 0.2738 0.52775 0.0
C253 C 0.84212 0.25235 0.54463 0.0
C254 C 0.87139 0.24083 0.54685 0.0
C255 C 0.90083 0.25078 0.53221 0.0
C256 C 0.90101 0.27218 0.51528 0.0
C257 C 0.98962 0.48465 0.46182 0.0
C258 C 1.02814 0.48766 0.46239 0.0
C259 C 0.95318 0.44792 0.46629 0.0
C260 C 0.95247 0.41109 0.4711 0.0
C261 C 0.99116 0.41437 0.4722 0.0
C262 C 1.02773 0.45129 0.46779 0.0
C263 C 0.91223 0.36989 0.47458 0.0
C264 C 0.90832 0.34371 0.49052 0.0
C265 C 0.87695 0.35594 0.46253 0.0
C266 C 0.87733 0.37867 0.44457 0.0
C267 C 0.90634 0.3879 0.42957 0.0
C268 C 0.90669 0.40956 0.41272 0.0
C269 C 0.87791 0.42178 0.4106 0.0
C270 C 0.84864 0.41227 0.4253 0.0
C271 C 0.84821 0.39069 0.44221 0.0
H272 H 0.87823 0.43853 0.39754 0.0
H273 H 0.87128 0.22422 0.55993 0.0
H274 H 0.69247 0.74712 0.82388 0.0
H275 H 0.69099 0.81006 0.81789 0.0
H276 H 0.56207 0.74544 0.82367 0.0
H277 H 0.56349 0.6822 0.82971 0.0
H278 H 0.57893 0.79873 0.79473 0.0
H279 H 0.63197 0.81659 0.8605 0.0
H280 H 0.67806 0.81955 0.88682 0.0
H281 H 0.77812 0.91464 0.85547 0.0
H282 H 0.73267 0.91188 0.82882 0.0
H283 H 0.55821 0.97777 0.79611 0.0
H284 H 0.55865 0.91522 0.80499 0.0
H285 H 0.68803 0.97933 0.80238 0.0
H286 H 0.68735 1.04204 0.7938 0.0
H287 H 0.67049 0.92599 0.83016 0.0
H288 H 0.61868 0.90805 0.76426 0.0
H289 H 0.57345 0.90542 0.73755 0.0
H290 H 0.47224 0.81068 0.76842 0.0
H291 H 0.51682 0.81317 0.79548 0.0
C292 C 0.66357 0.74589 0.82402 0.0
C293 C 0.62815 0.70828 0.82753 0.0
C294 C 0.66275 0.78266 0.82062 0.0
C295 C 0.62642 0.78426 0.82043 0.0
C296 C 0.59091 0.74654 0.82366 0.0
C297 C 0.59176 0.70976 0.82725 0.0
C298 C 0.62551 0.82454 0.8168 0.0
C299 C 0.59871 0.8262 0.80282 0.0
C300 C 0.65156 0.862 0.82661 0.0
C301 C 0.67897 0.86373 0.84256 0.0
C302 C 0.66385 0.83792 0.85914 0.0
C303 C 0.68985 0.83959 0.87413 0.0
C304 C 0.73101 0.86718 0.87279 0.0
C305 C 0.74624 0.89323 0.85647 0.0
C306 C 0.72037 0.89164 0.84143 0.0
C307 C 0.58694 0.97908 0.798 0.0
C308 C 0.62277 1.0164 0.79482 0.0
C309 C 0.58724 0.94251 0.80276 0.0
C310 C 0.62341 0.94071 0.80422 0.0
C311 C 0.65929 0.97835 0.80155 0.0
C312 C 0.65895 1.01493 0.79676 0.0
C313 C 0.62387 0.90023 0.80809 0.0
C314 C 0.65064 0.89854 0.82209 0.0
C315 C 0.59792 0.86277 0.79822 0.0
C316 C 0.57103 0.86112 0.782 0.0
C317 C 0.58674 0.88686 0.76542 0.0
C318 C 0.56123 0.88537 0.75021 0.0
C319 C 0.51998 0.85797 0.75132 0.0
C320 C 0.50419 0.83194 0.76761 0.0
C321 C 0.52956 0.83337 0.78289 0.0
H322 H 0.50028 0.85685 0.73952 0.0
H323 H 0.75109 0.86844 0.88442 0.0
H324 H 0.99415 0.61206 0.1773 0.0
H325 H 0.93112 0.61283 0.17153 0.0
H326 H 0.88772 0.50527 0.13566 0.0
H327 H 0.95049 0.50422 0.14165 0.0
H328 H 0.85893 0.54471 0.1189 0.0
H329 H 0.85769 0.51651 0.18826 0.0
H330 H 0.88433 0.52978 0.22241 0.0
H331 H 0.87708 0.63904 0.22442 0.0
H332 H 0.85214 0.62749 0.18993 0.0
H333 H 0.65433 0.50087 0.11245 0.0
H334 H 0.71612 0.50025 0.12089 0.0
H335 H 0.75538 0.60877 0.15558 0.0
H336 H 0.69227 0.6086 0.14747 0.0
H337 H 0.78642 0.5697 0.17346 0.0
H338 H 0.79165 0.60052 0.10422 0.0
H339 H 0.76847 0.59035 0.06942 0.0
H340 H 0.76897 0.47748 0.06738 0.0
H341 H 0.7915 0.48665 0.10229 0.0
C342 C 0.97122 0.58818 0.16829 0.0
C343 C 0.97855 0.55775 0.1603 0.0
C344 C 0.9343 0.58845 0.16502 0.0
C345 C 0.90227 0.55838 0.15347 0.0
C346 C 0.91038 0.52891 0.14487 0.0
C347 C 0.94695 0.52819 0.14843 0.0
C348 C 0.86117 0.55757 0.15018 0.0
C349 C 0.84319 0.54966 0.13109 0.0
C350 C 0.83924 0.56484 0.16549 0.0
C351 C 0.85338 0.57131 0.18639 0.0
C352 C 0.86199 0.54351 0.1959 0.0
C353 C 0.87688 0.55077 0.21532 0.0
C354 C 0.88222 0.58511 0.2256 0.0
C355 C 0.87291 0.61243 0.21644 0.0
C356 C 0.85859 0.60565 0.19691 0.0
C357 C 0.67552 0.52435 0.12227 0.0
C358 C 0.6666 0.55434 0.12939 0.0
C359 C 0.71197 0.52442 0.12689 0.0
C360 C 0.74284 0.55515 0.1386 0.0
C361 C 0.7334 0.58443 0.14643 0.0
C362 C 0.69649 0.58417 0.14188 0.0
C363 C 0.78427 0.55679 0.14219 0.0
C364 C 0.80221 0.56473 0.16132 0.0
C365 C 0.80632 0.54966 0.12691 0.0
C366 C 0.79286 0.54409 0.10593 0.0
C367 C 0.78655 0.5734 0.09639 0.0
C368 C 0.77354 0.56782 0.07665 0.0
C369 C 0.76714 0.53323 0.06622 0.0
C370 C 0.77384 0.50421 0.07549 0.0
C371 C 0.78673 0.50958 0.09526 0.0
H372 H 0.75709 0.52898 0.05093 0.0
H373 H 0.89359 0.59057 0.24067 0.0
H374 H 0.49753 0.90361 0.50823 0.0
H375 H 0.43476 0.83938 0.50392 0.0
H376 H 0.38626 0.9006 0.46942 0.0
H377 H 0.44808 0.96517 0.47491 0.0
H378 H 0.32579 0.84845 0.4849 0.0
H379 H 0.42479 0.82188 0.45353 0.0
H380 H 0.48611 0.81578 0.45206 0.0
H381 H 0.4407 0.72835 0.49926 0.0
H382 H 0.37936 0.73438 0.50124 0.0
H383 H 0.16045 0.6723 0.44098 0.0
H384 H 0.22306 0.73334 0.44929 0.0
H385 H 0.25341 0.66465 0.48946 0.0
H386 H 0.19022 0.60241 0.48061 0.0
H387 H 0.32253 0.71803 0.47307 0.0
H388 H 0.22389 0.74224 0.50388 0.0
H389 H 0.16239 0.74775 0.50632 0.0
H390 H 0.20755 0.8393 0.46099 0.0
H391 H 0.26914 0.83399 0.4581 0.0
C392 C 0.47364 0.90376 0.4997 0.0
C393 C 0.47933 0.94109 0.49203 0.0
C394 C 0.43703 0.86602 0.4969 0.0
C395 C 0.40393 0.86267 0.48568 0.0
C396 C 0.40981 0.90024 0.47813 0.0
C397 C 0.44605 0.93804 0.48127 0.0
C398 C 0.36357 0.82142 0.48209 0.0
C399 C 0.32592 0.82042 0.48197 0.0
C400 C 0.36091 0.78267 0.47889 0.0
C401 C 0.39766 0.7789 0.47766 0.0
C402 C 0.42798 0.80152 0.46367 0.0
C403 C 0.46274 0.79808 0.46275 0.0
C404 C 0.46733 0.77177 0.4756 0.0
C405 C 0.43713 0.74879 0.48936 0.0
C406 C 0.40237 0.75221 0.49039 0.0
C407 C 0.17983 0.66966 0.45185 0.0
C408 C 0.16839 0.63093 0.4601 0.0
C409 C 0.21646 0.70552 0.45678 0.0
C410 C 0.2447 0.70571 0.47046 0.0
C411 C 0.23338 0.66707 0.47892 0.0
C412 C 0.19628 0.63085 0.47399 0.0
C413 C 0.28526 0.74562 0.47543 0.0
C414 C 0.32273 0.74627 0.47587 0.0
C415 C 0.28789 0.78412 0.47896 0.0
C416 C 0.25095 0.78743 0.48064 0.0
C417 C 0.22058 0.76335 0.49433 0.0
C418 C 0.18573 0.76647 0.49581 0.0
C419 C 0.18102 0.79378 0.48378 0.0
C420 C 0.21122 0.81812 0.47028 0.0
C421 C 0.24612 0.81509 0.46873 0.0
H422 H 0.15401 0.79615 0.48495 0.0
H423 H 0.4942 0.76909 0.47484 0.0
H424 H 0.56687 0.43929 0.81665 0.0
H425 H 0.56564 0.37556 0.80986 0.0
H426 H 0.68715 0.42699 0.83148 0.0
H427 H 0.68948 0.49231 0.83614 0.0
H428 H 0.68714 0.3771 0.8113 0.0
H429 H 0.5785 0.34085 0.85546 0.0
H430 H 0.51591 0.3347 0.86938 0.0
H431 H 0.45104 0.26911 0.81748 0.0
H432 H 0.51335 0.27524 0.80316 0.0
H433 H 0.66895 0.17662 0.8127 0.0
H434 H 0.67094 0.24023 0.82259 0.0
H435 H 0.56885 0.21043 0.7853 0.0
H436 H 0.56643 0.14698 0.77578 0.0
H437 H 0.5601 0.24694 0.81671 0.0
H438 H 0.67872 0.29704 0.77166 0.0
H439 H 0.74144 0.29764 0.76197 0.0
H440 H 0.78565 0.32988 0.82163 0.0
H441 H 0.72386 0.33085 0.8314 0.0
C442 C 0.59347 0.43728 0.82008 0.0
C443 C 0.62807 0.4721 0.82732 0.0
C444 C 0.5926 0.39968 0.81647 0.0
C445 C 0.62554 0.3934 0.82088 0.0
C446 C 0.66047 0.4287 0.82789 0.0
C447 C 0.66185 0.46688 0.83075 0.0
C448 C 0.62394 0.35133 0.81776 0.0
C449 C 0.65898 0.34924 0.81255 0.0
C450 C 0.58814 0.31254 0.8197 0.0
C451 C 0.55067 0.30891 0.82816 0.0
C452 C 0.55092 0.32533 0.84698 0.0
C453 C 0.5155 0.32182 0.85494 0.0
C454 C 0.47955 0.30163 0.84429 0.0
C455 C 0.47892 0.28481 0.82569 0.0
C456 C 0.51427 0.28826 0.81765 0.0
C457 C 0.6464 0.18305 0.80681 0.0
C458 C 0.61743 0.15529 0.7933 0.0
C459 C 0.64797 0.22046 0.81224 0.0
C460 C 0.62067 0.23231 0.8045 0.0
C461 C 0.59083 0.20368 0.79168 0.0
C462 C 0.58945 0.16668 0.78616 0.0
C463 C 0.62281 0.27373 0.80938 0.0
C464 C 0.58794 0.2754 0.81507 0.0
C465 C 0.65882 0.31201 0.80838 0.0
C466 C 0.69693 0.31419 0.80222 0.0
C467 C 0.70212 0.30476 0.7826 0.0
C468 C 0.73749 0.30488 0.7771 0.0
C469 C 0.76764 0.31405 0.79115 0.0
C470 C 0.76258 0.32339 0.81069 0.0
C471 C 0.72758 0.324 0.81618 0.0
H472 H 0.79491 0.31391 0.78691 0.0
H473 H 0.45216 0.29895 0.85048 0.0
H474 H 0.59482 0.81541 0.48957 0.0
H475 H 0.57858 0.74542 0.49324 0.0
H476 H 0.49248 0.72831 0.53934 0.0
H477 H 0.51067 0.79974 0.5363 0.0
H478 H 0.54115 0.71027 0.55355 0.0
H479 H 0.46686 0.66688 0.49533 0.0
H480 H 0.44684 0.66844 0.46074 0.0
H481 H 0.55118 0.66504 0.43948 0.0
H482 H 0.57247 0.66447 0.47392 0.0
H483 H 0.59016 0.5589 0.57344 0.0
H484 H 0.54253 0.57762 0.55959 0.0
H485 H 0.63316 0.65813 0.51821 0.0
H486 H 0.68113 0.64032 0.53216 0.0
H487 H 0.55126 0.62023 0.50298 0.0
H488 H 0.63191 0.69385 0.56251 0.0
H489 H 0.65179 0.69343 0.59735 0.0
H490 H 0.52793 0.63649 0.61553 0.0
H491 H 0.50735 0.63607 0.58072 0.0
C492 C 0.57139 0.79631 0.49998 0.0
C493 C 0.55437 0.81286 0.51285 0.0
C494 C 0.56172 0.756 0.50197 0.0
C495 C 0.53411 0.73122 0.51656 0.0
C496 C 0.51402 0.74681 0.52805 0.0
C497 C 0.5244 0.78752 0.52635 0.0
C498 C 0.53348 0.69324 0.5225 0.0
C499 C 0.5416 0.6896 0.5425 0.0
C500 C 0.53412 0.66595 0.50824 0.0
C501 C 0.52124 0.6655 0.48734 0.0
C502 C 0.48568 0.66661 0.48331 0.0
C503 C 0.47411 0.66736 0.4637 0.0
C504 C 0.49768 0.66675 0.44792 0.0
C505 C 0.53288 0.66538 0.45172 0.0
C506 C 0.54468 0.66476 0.47131 0.0
C507 C 0.59979 0.58024 0.56122 0.0
C508 C 0.63976 0.59903 0.55426 0.0
C509 C 0.57234 0.59036 0.55315 0.0
C510 C 0.58449 0.61942 0.53801 0.0
C511 C 0.62317 0.6354 0.52981 0.0
C512 C 0.65065 0.62539 0.5379 0.0
C513 C 0.56084 0.63957 0.53352 0.0
C514 C 0.54846 0.63973 0.51393 0.0
C515 C 0.55556 0.66337 0.54814 0.0
C516 C 0.56808 0.66452 0.56906 0.0
C517 C 0.60895 0.6811 0.57395 0.0
C518 C 0.62033 0.68099 0.59367 0.0
C519 C 0.59112 0.66483 0.60864 0.0
C520 C 0.5505 0.6489 0.60392 0.0
C521 C 0.53896 0.6488 0.58421 0.0
H522 H 0.59992 0.66473 0.6239 0.0
H523 H 0.48868 0.66735 0.43274 0.0
H524 H 0.85723 0.56418 0.78536 0.0
H525 H 0.86483 0.50612 0.79392 0.0
H526 H 0.73604 0.43067 0.79666 0.0
H527 H 0.72797 0.4887 0.78946 0.0
H528 H 0.76782 0.43907 0.8323 0.0
H529 H 0.78908 0.39626 0.77148 0.0
H530 H 0.81241 0.39749 0.73718 0.0
H531 H 0.93467 0.45358 0.75739 0.0
H532 H 0.91225 0.45318 0.79181 0.0
H533 H 0.86545 0.36243 0.89886 0.0
H534 H 0.81985 0.35839 0.87194 0.0
H535 H 0.91635 0.46648 0.84558 0.0
H536 H 0.96099 0.4712 0.87224 0.0
H537 H 0.87452 0.40461 0.81771 0.0
H538 H 0.8494 0.47085 0.87466 0.0
H539 H 0.82566 0.4722 0.90866 0.0
H540 H 0.70884 0.37324 0.89417 0.0
H541 H 0.73209 0.37101 0.86017 0.0
C542 C 0.83043 0.53491 0.78716 0.0
C543 C 0.79215 0.53155 0.78751 0.0
C544 C 0.83477 0.50147 0.7918 0.0
C545 C 0.80083 0.46413 0.79652 0.0
C546 C 0.76248 0.45928 0.79354 0.0
C547 C 0.75805 0.49274 0.78918 0.0
C548 C 0.80604 0.43564 0.80953 0.0
C549 C 0.79001 0.43 0.82887 0.0
C550 C 0.83472 0.42361 0.80508 0.0
C551 C 0.84885 0.42449 0.78435 0.0
C552 C 0.82098 0.40904 0.76865 0.0
C553 C 0.83406 0.40956 0.74916 0.0
C554 C 0.87499 0.42555 0.74511 0.0
C555 C 0.90294 0.44107 0.76056 0.0
C556 C 0.89003 0.44056 0.7801 0.0
C557 C 0.87661 0.38532 0.88734 0.0
C558 C 0.91688 0.41676 0.88746 0.0
C559 C 0.85078 0.38277 0.87193 0.0
C560 C 0.8651 0.41167 0.85658 0.0
C561 C 0.905 0.44331 0.857 0.0
C562 C 0.93044 0.44602 0.8723 0.0
C563 C 0.83888 0.41181 0.84053 0.0
C564 C 0.85094 0.4119 0.82074 0.0
C565 C 0.80659 0.41892 0.84453 0.0
C566 C 0.79279 0.42003 0.86503 0.0
C567 C 0.81884 0.44898 0.87882 0.0
C568 C 0.80542 0.45002 0.89807 0.0
C569 C 0.76585 0.42262 0.90362 0.0
C570 C 0.73957 0.39426 0.8899 0.0
C571 C 0.75287 0.39304 0.87064 0.0
H572 H 0.75549 0.42352 0.91852 0.0
H573 H 0.88506 0.42596 0.73 0.0
H574 H 0.3433 0.79686 0.15616 0.0
H575 H 0.40572 0.85975 0.16304 0.0
H576 H 0.39579 0.82728 0.22508 0.0
H577 H 0.33368 0.76449 0.21826 0.0
H578 H 0.39426 0.91019 0.18588 0.0
H579 H 0.48505 0.8849 0.24858 0.0
H580 H 0.51008 0.83775 0.25613 0.0
H581 H 0.50797 0.81015 0.19402 0.0
H582 H 0.48353 0.85758 0.18604 0.0
H583 H 0.46438 0.0588 0.26016 0.0
H584 H 0.43986 0.99066 0.24627 0.0
H585 H 0.54466 1.03633 0.20847 0.0
H586 H 0.56897 0.10457 0.22202 0.0
H587 H 0.51237 0.95173 0.22975 0.0
H588 H 0.48081 1.03175 0.18439 0.0
H589 H 0.45591 0.07916 0.17712 0.0
H590 H 0.34111 0.99575 0.20252 0.0
H591 H 0.36562 0.94816 0.21024 0.0
C592 C 0.35536 0.80251 0.17111 0.0
C593 C 0.33339 0.77641 0.18677 0.0
C594 C 0.39105 0.83828 0.175 0.0
C595 C 0.4051 0.84835 0.19459 0.0
C596 C 0.38573 0.81996 0.20982 0.0
C597 C 0.35011 0.78408 0.20592 0.0
C598 C 0.43287 0.89109 0.19988 0.0
C599 C 0.42059 0.9193 0.19511 0.0
C600 C 0.46702 0.90298 0.21205 0.0
C601 C 0.4822 0.8747 0.21673 0.0
C602 C 0.49016 0.86899 0.23651 0.0
C603 C 0.5042 0.84215 0.24087 0.0
C604 C 0.51054 0.82091 0.22557 0.0
C605 C 0.50293 0.82653 0.20587 0.0
C606 C 0.4889 0.85334 0.20142 0.0
C607 C 0.48225 0.0541 0.24903 0.0
C608 C 0.51801 0.08679 0.24181 0.0
C609 C 0.46846 1.01533 0.24124 0.0
C610 C 0.49066 1.00881 0.22644 0.0
C611 C 0.52741 1.04097 0.21998 0.0
C612 C 0.54087 0.07983 0.2275 0.0
C613 C 0.47281 0.96962 0.21603 0.0
C614 C 0.4867 0.94241 0.22003 0.0
C615 C 0.44022 0.95842 0.20299 0.0
C616 C 0.42515 0.9866 0.19804 0.0
C617 C 0.45037 1.02369 0.18856 0.0
C618 C 0.43631 0.05056 0.18434 0.0
C619 C 0.39697 1.04051 0.18939 0.0
C620 C 0.37158 1.00351 0.19863 0.0
C621 C 0.38553 0.97657 0.20292 0.0
H622 H 0.38614 0.06136 0.18611 0.0
H623 H 0.52139 0.80014 0.22898 0.0
H624 H 0.70498 0.30209 0.46048 0.0
H625 H 0.7499 0.37568 0.46317 0.0
H626 H 0.65136 0.38757 0.48754 0.0
H627 H 0.60649 0.31521 0.48326 0.0
H628 H 0.69503 0.45153 0.4694 0.0
H629 H 0.72678 0.36665 0.51456 0.0
H630 H 0.7545 0.32161 0.5221 0.0
H631 H 0.86638 0.40588 0.49443 0.0
H632 H 0.83889 0.4507 0.48617 0.0
H633 H 0.73706 0.51628 0.56986 0.0
H634 H 0.75314 0.48132 0.54427 0.0
H635 H 0.7898 0.58306 0.50474 0.0
H636 H 0.77292 0.61814 0.53043 0.0
H637 H 0.80487 0.48203 0.51719 0.0
H638 H 0.74382 0.54952 0.46349 0.0
H639 H 0.70908 0.58981 0.46256 0.0
H640 H 0.6437 0.53075 0.51563 0.0
H641 H 0.67824 0.49036 0.51688 0.0
C642 C 0.69295 0.321 0.46567 0.0
C643 C 0.65252 0.30352 0.47162 0.0
C644 C 0.7186 0.36288 0.4674 0.0
C645 C 0.70444 0.38731 0.47601 0.0
C646 C 0.66327 0.36973 0.48077 0.0
C647 C 0.63751 0.32831 0.47842 0.0
C648 C 0.73202 0.42966 0.48258 0.0
C649 C 0.71981 0.45855 0.47943 0.0
C650 C 0.76509 0.43966 0.49537 0.0
C651 C 0.7806 0.41163 0.49948 0.0
C652 C 0.75708 0.37523 0.50985 0.0
C653 C 0.77273 0.34975 0.51423 0.0
C654 C 0.81211 0.36087 0.50868 0.0
C655 C 0.8358 0.39721 0.49858 0.0
C656 C 0.82015 0.42254 0.49397 0.0
C657 C 0.75045 0.53215 0.55612 0.0
C658 C 0.75273 0.56942 0.55192 0.0
C659 C 0.75971 0.51209 0.54142 0.0
C660 C 0.77146 0.52907 0.52236 0.0
C661 C 0.77992 0.56907 0.51921 0.0
C662 C 0.77027 0.58906 0.53388 0.0
C663 C 0.76488 0.50136 0.50545 0.0
C664 C 0.78162 0.47586 0.50632 0.0
C665 C 0.73481 0.49351 0.49115 0.0
C666 C 0.71372 0.51729 0.49033 0.0
C667 C 0.72198 0.54519 0.47492 0.0
C668 C 0.70241 0.56806 0.47437 0.0
C669 C 0.6743 0.56294 0.48907 0.0
C670 C 0.66553 0.53476 0.50429 0.0
C671 C 0.68512 0.51194 0.50494 0.0
H672 H 0.65926 0.58074 0.48865 0.0
H673 H 0.82443 0.34155 0.51236 0.0
H674 H 0.34314 0.50297 0.83589 0.0
H675 H 0.27701 0.49636 0.84119 0.0
H676 H 0.32979 0.60139 0.87954 0.0
H677 H 0.3961 0.60775 0.87446 0.0
H678 H 0.27336 0.53844 0.89818 0.0
H679 H 0.28218 0.6007 0.83585 0.0
H680 H 0.29492 0.61327 0.7999 0.0
H681 H 0.2006 0.49232 0.78729 0.0
H682 H 0.18766 0.47877 0.82318 0.0
H683 H 0.07979 0.50707 0.922 0.0
H684 H 0.14869 0.53826 0.90933 0.0
H685 H 0.11384 0.4378 0.86891 0.0
H686 H 1.04441 0.40703 0.88122 0.0
H687 H 0.16286 0.50856 0.85091 0.0
H688 H 0.16195 0.44433 0.91326 0.0
H689 H 0.14962 0.43149 0.94925 0.0
H690 H 0.23062 0.55728 0.96146 0.0
H691 H 0.24302 0.57095 0.92552 0.0
C692 C 0.34082 0.52544 0.84491 0.0
C693 C 0.37451 0.55558 0.85496 0.0
C694 C 0.30303 0.52172 0.84789 0.0
C695 C 0.2985 0.54841 0.86076 0.0
C696 C 0.33267 0.58043 0.8696 0.0
C697 C 0.37041 0.58395 0.86675 0.0
C698 C 0.25786 0.5389 0.86742 0.0
C699 C 0.24945 0.53293 0.88785 0.0
C700 C 0.22648 0.53066 0.8539 0.0
C701 C 0.23412 0.53864 0.83225 0.0
C702 C 0.26435 0.57665 0.82543 0.0
C703 C 0.27157 0.58398 0.80505 0.0
C704 C 0.24863 0.55359 0.79132 0.0
C705 C 0.21836 0.51583 0.79794 0.0
C706 C 0.21102 0.50834 0.81831 0.0
C707 C 0.08701 0.4915 0.91056 0.0
C708 C 1.05716 0.45438 0.90278 0.0
C709 C 0.12623 0.5094 0.90327 0.0
C710 C 0.13642 0.49007 0.88836 0.0
C711 C 0.10652 0.4532 0.8804 0.0
C712 C 0.06708 0.43553 0.88751 0.0
C713 C 0.17855 0.50758 0.88155 0.0
C714 C 0.18709 0.51487 0.86117 0.0
C715 C 0.2102 0.51704 0.89508 0.0
C716 C 0.20307 0.50872 0.9167 0.0
C717 C 0.17692 0.46928 0.92362 0.0
C718 C 0.16995 0.46186 0.94401 0.0
C719 C 0.18923 0.49357 0.95763 0.0
C720 C 0.21565 0.53276 0.95089 0.0
C721 C 0.22268 0.54036 0.93052 0.0
H722 H 0.18377 0.48777 0.97341 0.0
H723 H 0.25427 0.55932 0.77555 0.0
H724 H 0.87441 0.46196 0.16824 0.0
H725 H 0.80637 0.45069 0.17307 0.0
H726 H 0.75827 0.32866 0.1508 0.0
H727 H 0.82631 0.3413 0.14414 0.0
H728 H 0.70586 0.35339 0.14432 0.0
H729 H 0.79064 0.35934 0.20087 0.0
H730 H 0.84838 0.39426 0.2236 0.0
H731 H 0.81076 0.48065 0.23849 0.0
H732 H 0.75362 0.44704 0.21531 0.0
H733 H 0.5998 0.19927 0.20693 0.0
H734 H 0.63816 0.25461 0.18451 0.0
H735 H 0.61515 0.33437 0.22128 0.0
H736 H 0.57463 0.27778 0.24385 0.0
H737 H 0.69297 0.35973 0.21749 0.0
H738 H 0.59048 0.32668 0.17148 0.0
H739 H 0.53089 0.28368 0.15109 0.0
H740 H 0.59809 0.23944 0.11845 0.0
H741 H 0.65792 0.28158 0.13881 0.0
C742 C 0.84931 0.43343 0.16351 0.0
C743 C 0.85563 0.40249 0.15583 0.0
C744 C 0.81043 0.42692 0.16641 0.0
C745 C 0.77725 0.3885 0.16284 0.0
C746 C 0.78341 0.3586 0.15371 0.0
C747 C 0.82232 0.36568 0.15005 0.0
C748 C 0.73751 0.37654 0.17189 0.0
C749 C 0.70279 0.35499 0.16029 0.0
C750 C 0.73343 0.38042 0.19263 0.0
C751 C 0.76836 0.40116 0.20613 0.0
C752 C 0.79502 0.38609 0.20882 0.0
C753 C 0.82765 0.40567 0.22175 0.0
C754 C 0.83338 0.4398 0.2324 0.0
C755 C 0.80648 0.45441 0.23012 0.0
C756 C 0.77411 0.43526 0.21701 0.0
C757 C 0.60106 0.22791 0.20994 0.0
C758 C 0.58391 0.23388 0.22728 0.0
C759 C 0.62307 0.25974 0.19693 0.0
C760 C 0.62898 0.29856 0.20097 0.0
C761 C 0.61045 0.30447 0.21775 0.0
C762 C 0.58784 0.27228 0.23076 0.0
C763 C 0.66161 0.33321 0.19019 0.0
C764 C 0.69532 0.35962 0.20139 0.0
C765 C 0.66468 0.33294 0.16921 0.0
C766 C 0.62888 0.30759 0.15668 0.0
C767 C 0.59257 0.3077 0.16 0.0
C768 C 0.55871 0.28344 0.14844 0.0
C769 C 0.56072 0.2589 0.13346 0.0
C770 C 0.59662 0.25858 0.13001 0.0
C771 C 0.63058 0.28277 0.14153 0.0
H772 H 0.53446 0.24011 0.12454 0.0
H773 H 0.85857 0.45485 0.24246 0.0
H774 H 0.09991 0.51028 0.11272 0.0
H775 H 0.06892 0.47843 0.08105 0.0
H776 H 1.02688 0.56424 0.07363 0.0
H777 H 1.05687 0.59545 0.10557 0.0
H778 H 0.96917 0.48973 0.0637 0.0
H779 H 0.10868 0.57472 0.04824 0.0
H780 H 0.18174 0.60202 0.0519 0.0
H781 H 0.16712 0.48437 0.03967 0.0
H782 H 0.09385 0.45621 0.03624 0.0
H783 H 0.94436 0.47088 0.95692 0.0
H784 H 0.95611 0.48891 0.99228 0.0
H785 H 0.99298 0.39937 0.00084 0.0
H786 H 0.98159 0.38166 0.96556 0.0
H787 H 1.05127 0.47438 0.0107 0.0
H788 H 0.91026 0.39097 0.02408 0.0
H789 H 0.83778 0.36631 0.0199 0.0
H790 H 0.8558 0.48421 0.03487 0.0
H791 H 0.92854 0.5098 0.03882 0.0
C792 C 0.0841 0.52235 0.1043 0.0
C793 C 0.08088 0.55538 0.11152 0.0
C794 C 0.06647 0.50421 0.08621 0.0
C795 C 1.04585 0.51918 0.07488 0.0
C796 C 1.04258 0.55216 0.08213 0.0
C797 C 1.06002 0.57016 0.10028 0.0
C798 C 1.02824 0.50082 0.05535 0.0
C799 C 0.98716 0.48672 0.052 0.0
C800 C 1.05161 0.49638 0.04022 0.0
C801 C 0.09571 0.51326 0.0422 0.0
C802 C 0.121 0.55459 0.0465 0.0
C803 C 0.16245 0.57023 0.04851 0.0
C804 C 0.17905 0.54492 0.04609 0.0
C805 C 0.15422 0.50392 0.04158 0.0
C806 C 0.11272 0.48811 0.03959 0.0
C807 C 0.95325 0.4539 0.96657 0.0
C808 C 0.96217 0.42498 0.95861 0.0
C809 C 0.96015 0.46431 0.98674 0.0
C810 C 0.97576 0.44569 0.99915 0.0
C811 C 0.98116 0.41426 0.99151 0.0
C812 C 0.97441 0.40397 0.97141 0.0
C813 C 0.99201 0.46276 0.01906 0.0
C814 C 1.03309 0.477 0.02242 0.0
C815 C 0.96869 0.46769 0.03403 0.0
C816 C 0.92496 0.45242 0.03154 0.0
C817 C 0.89886 0.41177 0.02628 0.0
C818 C 0.8577 0.3976 0.02399 0.0
C819 C 0.84221 0.42371 0.02706 0.0
C820 C 0.86785 0.46404 0.03246 0.0
C821 C 0.90905 0.47838 0.03474 0.0
H822 H 0.81033 0.41266 0.0253 0.0
H823 H 0.21115 0.55708 0.04765 0.0
H824 H 0.67407 0.09408 0.43763 0.0
H825 H 0.66912 0.1235 0.40603 0.0
H826 H 0.54103 0.07082 0.41474 0.0
H827 H 0.54572 1.04076 0.44597 0.0
H828 H 0.5598 0.06161 0.37696 0.0
H829 H 0.60795 0.16896 0.42639 0.0
H830 H 0.65693 0.21222 0.45168 0.0
H831 H 0.74998 0.26236 0.40739 0.0
H832 H 0.70203 0.21809 0.3819 0.0
H833 H 0.50541 0.15533 0.30752 0.0
H834 H 0.52038 0.14538 0.34171 0.0
H835 H 0.64634 0.19977 0.32677 0.0
H836 H 0.63146 0.21078 0.29264 0.0
H837 H 0.6335 0.21081 0.3672 0.0
H838 H 0.59299 0.10352 0.31944 0.0
H839 H 0.54986 0.05771 0.29296 0.0
H840 H 0.44869 1.0077 0.33282 0.0
H841 H 0.4912 0.05354 0.35951 0.0
C842 C 0.64485 0.08841 0.43261 0.0
C843 C 0.61029 0.06542 0.44421 0.0
C844 C 0.64211 0.10545 0.41469 0.0
C845 C 0.6048 0.09986 0.40825 0.0
C846 C 0.57012 0.07565 0.41951 0.0
C847 C 0.57284 0.05857 0.43733 0.0
C848 C 0.60145 0.11932 0.38988 0.0
C849 C 0.57556 0.09425 0.37496 0.0
C850 C 0.62314 0.16189 0.38703 0.0
C851 C 0.65143 0.18983 0.40224 0.0
C852 C 0.63889 0.18901 0.42203 0.0
C853 C 0.66649 0.21372 0.43642 0.0
C854 C 0.70649 0.24008 0.43115 0.0
C855 C 0.71898 0.24187 0.41145 0.0
C856 C 0.69164 0.21688 0.39703 0.0
C857 C 0.53647 0.1669 0.31185 0.0
C858 C 0.56732 0.18366 0.29761 0.0
C859 C 0.545 0.16107 0.3313 0.0
C860 C 0.58433 0.17101 0.33658 0.0
C861 C 0.61582 0.19186 0.32295 0.0
C862 C 0.60733 0.19819 0.30351 0.0
C863 C 0.591 0.15304 0.35466 0.0
C864 C 0.61765 0.17823 0.36935 0.0
C865 C 0.57066 0.11047 0.35725 0.0
C866 C 0.54517 0.08219 0.34141 0.0
C867 C 0.5615 0.08286 0.32253 0.0
C868 C 0.5372 0.05686 0.3075 0.0
C869 C 0.49654 1.0299 0.31119 0.0
C870 C 0.48018 1.02867 0.32997 0.0
C871 C 0.50438 0.05459 0.34507 0.0
H872 H 0.47773 1.00993 0.2995 0.0
H873 H 0.72784 0.2591 0.44232 0.0
H874 H 0.55915 0.53423 0.76901 0.0
H875 H 0.58313 0.53586 0.73499 0.0
H876 H 0.69942 0.63573 0.75082 0.0
H877 H 0.67498 0.63478 0.78466 0.0
H878 H 0.67532 0.64671 0.7147 0.0
H879 H 0.68691 0.54353 0.74818 0.0
H880 H 0.66456 0.48279 0.76912 0.0
H881 H 0.57606 0.41065 0.72549 0.0
H882 H 0.59727 0.47111 0.70451 0.0
H883 H 0.75796 0.62628 0.62297 0.0
H884 H 0.74992 0.62533 0.65932 0.0
H885 H 0.62538 0.53305 0.6535 0.0
H886 H 0.63328 0.53403 0.61737 0.0
H887 H 0.66386 0.52063 0.68614 0.0
H888 H 0.64814 0.62805 0.65536 0.0
H889 H 0.67169 0.68978 0.6351 0.0
H890 H 0.77132 0.75482 0.67465 0.0
H891 H 0.74884 0.69319 0.69493 0.0
C892 C 0.58967 0.55676 0.76513 0.0
C893 C 0.61563 0.58389 0.77946 0.0
C894 C 0.60342 0.55749 0.74579 0.0
C895 C 0.64331 0.58537 0.74054 0.0
C896 C 0.66868 0.61371 0.75463 0.0
C897 C 0.65488 0.61293 0.77397 0.0
C898 C 0.65853 0.58448 0.72038 0.0
C899 C 0.67352 0.61937 0.70857 0.0
C900 C 0.65605 0.54871 0.71244 0.0
C901 C 0.64354 0.51199 0.72483 0.0
C902 C 0.66253 0.51476 0.74312 0.0
C903 C 0.65007 0.48039 0.75499 0.0
C904 C 0.61891 0.44291 0.74864 0.0
C905 C 0.60019 0.43972 0.73039 0.0
C906 C 0.61244 0.47405 0.7185 0.0
C907 C 0.72919 0.60529 0.62957 0.0
C908 C 0.69611 0.58053 0.6175 0.0
C909 C 0.72459 0.60483 0.65024 0.0
C910 C 0.68695 0.57934 0.65901 0.0
C911 C 0.65463 0.55289 0.647 0.0
C912 C 0.6591 0.55365 0.62641 0.0
C913 C 0.67976 0.58257 0.68038 0.0
C914 C 0.66624 0.5481 0.69242 0.0
C915 C 0.6839 0.6188 0.68861 0.0
C916 C 0.69711 0.65589 0.67651 0.0
C917 C 0.67526 0.65541 0.65964 0.0
C918 C 0.68838 0.69039 0.64816 0.0
C919 C 0.723 0.72616 0.65356 0.0
C920 C 0.74455 0.72706 0.67047 0.0
C921 C 0.73167 0.69211 0.68195 0.0
H922 H 0.73307 0.75322 0.64466 0.0
H923 H 0.60929 0.41633 0.75786 0.0
H924 H 0.53351 0.07025 0.56417 0.0
H925 H 0.54182 0.07327 0.60018 0.0
H926 H 0.65249 0.07016 0.59307 0.0
H927 H 0.6452 0.06951 0.55677 0.0
H928 H 0.54062 1.02857 0.62692 0.0
H929 H 0.71425 0.11035 0.63271 0.0
H930 H 0.77393 0.16015 0.61398 0.0
H931 H 0.70463 0.20919 0.58812 0.0
H932 H 0.64471 0.16002 0.60687 0.0
H933 H 0.58392 1.01513 0.728 0.0
H934 H 0.58157 1.01237 0.69184 0.0
H935 H 0.6429 0.14287 0.68937 0.0
H936 H 0.6486 0.14603 0.72548 0.0
H937 H 0.66916 0.12142 0.66038 0.0
H938 H 0.53433 0.07579 0.68202 0.0
H939 H 0.47148 1.03387 0.70066 0.0
H940 H 0.45792 0.92689 0.67162 0.0
H941 H 0.52097 0.96814 0.65298 0.0
C942 C 0.55981 0.07045 0.57023 0.0
C943 C 0.5888 0.0699 0.55744 0.0
C944 C 0.56449 0.07199 0.59099 0.0
C945 C 0.59809 0.07247 0.5998 0.0
C946 C 0.62673 0.07096 0.58698 0.0
C947 C 0.62243 0.07025 0.56611 0.0
C948 C 0.6025 0.07421 0.62224 0.0
C949 C 0.56889 0.04892 0.63411 0.0
C950 C 0.63893 0.10112 0.63212 0.0
C951 C 0.67492 0.1312 0.62102 0.0
C952 C 0.71181 0.13187 0.62308 0.0
C953 C 0.74566 0.15996 0.61245 0.0
C954 C 0.74303 0.18771 0.59981 0.0
C955 C 0.70659 0.18757 0.59785 0.0
C956 C 0.67268 0.15958 0.60846 0.0
C957 C 0.59766 1.04345 0.71992 0.0
C958 C 0.6163 0.08086 0.73018 0.0
C959 C 0.59563 1.04178 0.699 0.0
C960 C 0.61116 0.07737 0.68746 0.0
C961 C 0.63033 0.11474 0.69761 0.0
C962 C 0.63303 0.11647 0.71852 0.0
C963 C 0.60727 0.07577 0.665 0.0
C964 C 0.64096 0.101 0.65315 0.0
C965 C 0.57051 0.0499 0.65512 0.0
C966 C 0.53257 1.025 0.66626 0.0
C967 C 0.51807 1.04329 0.67971 0.0
C968 C 0.4824 1.01966 0.69026 0.0
C969 C 0.46078 0.97773 0.68737 0.0
C970 C 0.47473 0.95936 0.67387 0.0
C971 C 0.51041 0.98285 0.6633 0.0
H972 H 0.43318 0.95948 0.69555 0.0
H973 H 0.76925 0.20938 0.59156 0.0
H974 H 0.69706 0.65776 0.90259 0.0
H975 H 0.686 0.64758 0.93833 0.0
H976 H 0.57351 0.53808 0.92765 0.0
H977 H 0.58617 0.54689 0.8917 0.0
H978 H 0.64045 0.6486 0.96357 0.0
H979 H 0.54414 0.47369 0.96662 0.0
H980 H 0.5353 0.41375 0.94794 0.0
H981 H 0.65648 0.48146 0.92603 0.0
H982 H 0.66616 0.54163 0.94476 0.0
H983 H 0.57238 0.6014 0.06324 0.0
H984 H 0.57599 0.60588 0.02711 0.0
H985 H 0.6398 0.53876 0.02588 0.0
H986 H 0.633 0.53081 0.0618 0.0
H987 H 0.59641 0.51605 0.99597 0.0
H988 H 0.68578 0.64949 0.01988 0.0
H989 H 0.70666 0.71233 0.039 0.0
H990 H 0.6204 0.73242 0.00771 0.0
H991 H 0.59867 0.66941 0.98856 0.0
C992 C 0.66998 0.63134 0.90781 0.0
C993 C 0.64259 0.60311 0.89414 0.0
C994 C 0.66351 0.62559 0.92841 0.0
C995 C 0.62906 0.5917 0.93616 0.0
C996 C 0.60098 0.56397 0.92243 0.0
C997 C 0.60797 0.56924 0.90174 0.0
C998 C 0.62303 0.58595 0.95846 0.0
C999 C 0.63075 0.61947 0.97053 0.0
C1000 C 0.61106 0.54834 0.96807 0.0
C1001 C 0.60568 0.51225 0.95691 0.0
C1002 C 0.56891 0.47573 0.95786 0.0
C1003 C 0.56376 0.44173 0.94726 0.0
C1004 C 0.59526 0.44385 0.93575 0.0
C1005 C 0.63205 0.47991 0.93489 0.0
C1006 C 0.63738 0.51398 0.94548 0.0
C1007 C 0.58658 0.58683 0.05541 0.0
C1008 C 0.60265 0.56596 0.06595 0.0
C1009 C 0.58929 0.59009 0.03452 0.0
C1010 C 0.60912 0.5736 0.02338 0.0
C1011 C 0.62452 0.55215 0.03382 0.0
C1012 C 0.62113 0.54816 0.05464 0.0
C1013 C 0.61408 0.57876 0.00102 0.0
C1014 C 0.60603 0.54514 0.98897 0.0
C1015 C 0.62737 0.61666 0.99148 0.0
C1016 C 0.64032 0.65453 0.00295 0.0
C1017 C 0.67109 0.66718 0.01718 0.0
C1018 C 0.68309 0.70284 0.028 0.0
C1019 C 0.66478 0.72629 0.02461 0.0
C1020 C 0.6345 0.71418 0.01035 0.0
C1021 C 0.62234 0.67852 0.99949 0.0
H1022 H 0.67413 0.75389 0.03301 0.0
H1023 H 0.59119 0.41751 0.92754 0.0
H1024 H 0.08473 0.59164 0.22502 0.0
H1025 H 0.08508 0.59861 0.26152 0.0
H1026 H 0.0888 0.4876 0.268 0.0
H1027 H 0.08938 0.48104 0.23184 0.0
H1028 H 1.03206 0.49171 0.2937 0.0
H1029 H 0.17186 0.57502 0.27467 0.0
H1030 H 0.22726 0.63054 0.25602 0.0
H1031 H 0.19956 0.71646 0.28315 0.0
H1032 H 0.14354 0.66131 0.30172 0.0
H1033 H 0.08018 0.49263 0.39535 0.0
H1034 H 0.07808 0.49068 0.35901 0.0
H1035 H 0.10598 0.61554 0.35783 0.0
H1036 H 0.10962 0.61793 0.39423 0.0
H1037 H 0.14383 0.6072 0.32892 0.0
H1038 H 1.00692 0.52885 0.34864 0.0
H1039 H 0.94837 0.4757 0.3667 0.0
H1040 H 0.96508 0.3839 0.33791 0.0
H1041 H 1.02416 0.43653 0.31992 0.0
C1042 C 0.08567 0.56878 0.23424 0.0
C1043 C 0.08712 0.53583 0.22538 0.0
C1044 C 0.0859 0.57279 0.25515 0.0
C1045 C 0.08699 0.54363 0.26772 0.0
C1046 C 0.08783 0.5105 0.25881 0.0
C1047 C 0.08831 0.50688 0.23802 0.0
C1048 C 0.08781 0.54748 0.29008 0.0
C1049 C 1.0567 0.5168 0.3014 0.0
C1050 C 0.11916 0.58078 0.30031 0.0
C1051 C 0.15324 0.61399 0.28942 0.0
C1052 C 0.17739 0.60571 0.27654 0.0
C1053 C 0.20893 0.63712 0.266 0.0
C1054 C 0.21685 0.67699 0.26835 0.0
C1055 C 0.19335 0.68555 0.28131 0.0
C1056 C 0.16171 0.65424 0.29186 0.0
C1057 C 0.08568 0.51966 0.38738 0.0
C1058 C 0.09485 0.55536 0.39791 0.0
C1059 C 0.08429 0.51851 0.36646 0.0
C1060 C 0.09096 0.5527 0.35528 0.0
C1061 C 0.10059 0.58855 0.3658 0.0
C1062 C 0.10265 0.58991 0.38674 0.0
C1063 C 0.08817 0.55107 0.33277 0.0
C1064 C 0.11893 0.58215 0.32135 0.0
C1065 C 1.05598 0.51851 0.32242 0.0
C1066 C 1.02022 0.48669 0.33306 0.0
C1067 C 0.99827 0.49734 0.34625 0.0
C1068 C 0.96498 0.46731 0.35647 0.0
C1069 C 0.95307 0.42646 0.35348 0.0
C1070 C 0.97438 0.41556 0.34023 0.0
C1071 C 1.00776 0.44548 0.33001 0.0
H1072 H 0.92728 0.40326 0.3614 0.0
H1073 H 0.24126 0.70126 0.26016 0.0
loop_
_geom_bond_atom_site_label_1
_geom_bond_atom_site_label_2
_geom_bond_distance
_geom_bond_site_symmetry_2
_ccdc_geom_bond_type
C0 Eu1 2.848 . S
C0 C2 1.500 . S
C0 O20 1.257 . S
C0 O21 1.260 . S
Eu1 C0 2.848 . S
Eu1 O20 2.485 . S
Eu1 O21 2.490 . S
Eu1 O22 2.431 1_655 S
Eu1 O23 2.668 1_655 S
Eu1 O24 2.411 . S
Eu1 O29 2.358 1_655 S
Eu1 O31 2.356 1_655 S
C2 C0 1.500 . S
C2 C3 1.377 . S
C2 C7 1.377 . S
C3 C2 1.377 . S
C3 C4 1.395 . S
C3 H32 0.931 . S
C4 C3 1.395 . S
C4 C5 1.383 . S
C4 H33 0.931 . S
C5 C4 1.383 . S
C5 C6 1.394 . S
C6 C5 1.394 . S
C6 C7 1.378 . S
C6 H34 0.931 . S
C7 C2 1.377 . S
C7 C6 1.378 . S
C7 H35 0.931 . S
C8 O22 1.259 . S
C8 O23 1.270 . S
C9 O24 1.251 . S
C9 O25 1.251 . S
C10 Eu11 2.835 . S
C10 C12 1.500 . S
C10 O26 1.257 . S
C10 O27 1.260 . S
Eu11 C10 2.835 . S
Eu11 O23 2.355 . S
Eu11 O25 2.374 1_455 S
Eu11 O26 2.473 . S
Eu11 O27 2.480 . S
Eu11 O28 2.430 . S
Eu11 O29 2.670 . S
Eu11 O30 2.394 . S
C12 C10 1.500 . S
C12 C13 1.377 . S
C12 C17 1.377 . S
C13 C12 1.377 . S
C13 C14 1.395 . S
C13 H36 0.931 . S
C14 C13 1.395 . S
C14 C15 1.383 . S
C14 H37 0.931 . S
C15 C14 1.383 . S
C15 C16 1.394 . S
C16 C15 1.394 . S
C16 C17 1.378 . S
C16 H38 0.931 . S
C17 C12 1.377 . S
C17 C16 1.378 . S
C17 H39 0.931 . S
C18 O28 1.259 . S
C18 O29 1.270 . S
C19 O30 1.251 . S
C19 O31 1.251 . S
O20 C0 1.257 . S
O20 Eu1 2.485 . S
O21 C0 1.260 . S
O21 Eu1 2.490 . S
O22 Eu1 2.431 1_455 S
O22 C8 1.259 . S
O23 Eu1 2.668 1_455 S
O23 C8 1.270 . S
O23 Eu11 2.355 . S
O24 Eu1 2.411 . S
O24 C9 1.251 . S
O25 C9 1.251 . S
O25 Eu11 2.374 1_655 S
O26 C10 1.257 . S
O26 Eu11 2.473 . S
O27 C10 1.260 . S
O27 Eu11 2.480 . S
O28 Eu11 2.430 . S
O28 C18 1.259 . S
O29 Eu1 2.358 1_455 S
O29 Eu11 2.670 . S
O29 C18 1.270 . S
O30 Eu11 2.394 . S
O30 C19 1.251 . S
O31 Eu1 2.356 1_455 S
O31 C19 1.251 . S
H32 C3 0.931 . S
H33 C4 0.931 . S
H34 C6 0.931 . S
H35 C7 0.931 . S
H36 C13 0.931 . S
H37 C14 0.931 . S
H38 C16 0.931 . S
H39 C17 0.931 . S
C40 Eu41 2.835 . S
C40 C42 1.500 . S
C40 O60 1.257 . S
C40 O61 1.260 . S
Eu41 C40 2.835 . S
Eu41 O60 2.473 . S
Eu41 O61 2.480 . S
Eu41 O62 2.430 . S
Eu41 O63 2.670 . S
Eu41 O64 2.394 . S
Eu41 O69 2.355 . S
Eu41 O71 2.374 1_545 S
C42 C40 1.500 . S
C42 C43 1.377 . S
C42 C47 1.377 . S
C43 C42 1.377 . S
C43 C44 1.395 . S
C43 H72 0.931 . S
C44 C43 1.395 . S
C44 C45 1.383 . S
C44 H73 0.931 . S
C45 C44 1.383 . S
C45 C46 1.394 . S
C46 C45 1.394 . S
C46 C47 1.378 . S
C46 H74 0.931 . S
C47 C42 1.377 . S
C47 C46 1.378 . S
C47 H75 0.931 . S
C48 O62 1.259 . S
C48 O63 1.270 . S
C49 O64 1.251 . S
C49 O65 1.251 . S
C50 Eu51 2.835 1_565 S
C50 C52 1.500 . S
C50 O66 1.257 . S
C50 O67 1.260 . S
Eu51 C50 2.835 1_545 S
Eu51 O63 2.355 . S
Eu51 O65 2.374 . S
Eu51 O66 2.473 1_545 S
Eu51 O67 2.480 1_545 S
Eu51 O68 2.430 . S
Eu51 O69 2.670 . S
Eu51 O70 2.394 1_545 S
C52 C50 1.500 . S
C52 C53 1.377 . S
C52 C57 1.377 . S
C53 C52 1.377 . S
C53 C54 1.395 . S
C53 H76 0.931 . S
C54 C53 1.395 . S
C54 C55 1.383 . S
C54 H77 0.931 . S
C55 C54 1.383 . S
C55 C56 1.394 . S
C56 C55 1.394 . S
C56 C57 1.378 . S
C56 H78 0.931 . S
C57 C52 1.377 . S
C57 C56 1.378 . S
C57 H79 0.931 . S
C58 O68 1.259 . S
C58 O69 1.270 . S
C59 O70 1.251 . S
C59 O71 1.251 . S
O60 C40 1.257 . S
O60 Eu41 2.473 . S
O61 C40 1.260 . S
O61 Eu41 2.480 . S
O62 Eu41 2.430 . S
O62 C48 1.259 . S
O63 Eu41 2.670 . S
O63 C48 1.270 . S
O63 Eu51 2.355 . S
O64 Eu41 2.394 . S
O64 C49 1.251 . S
O65 C49 1.251 . S
O65 Eu51 2.374 . S
O66 C50 1.257 . S
O66 Eu51 2.473 1_565 S
O67 C50 1.260 . S
O67 Eu51 2.480 1_565 S
O68 Eu51 2.430 . S
O68 C58 1.259 . S
O69 Eu41 2.355 . S
O69 Eu51 2.670 . S
O69 C58 1.270 . S
O70 Eu51 2.394 1_565 S
O70 C59 1.251 . S
O71 Eu41 2.374 1_565 S
O71 C59 1.251 . S
H72 C43 0.931 . S
H73 C44 0.931 . S
H74 C46 0.931 . S
H75 C47 0.931 . S
H76 C53 0.931 . S
H77 C54 0.931 . S
H78 C56 0.931 . S
H79 C57 0.931 . S
C80 Eu81 2.835 . S
C80 C82 1.500 . S
C80 O100 1.257 . S
C80 O101 1.260 . S
Eu81 C80 2.835 . S
Eu81 O100 2.473 . S
Eu81 O101 2.480 . S
Eu81 O102 2.430 . S
Eu81 O103 2.670 . S
Eu81 O104 2.394 . S
Eu81 O109 2.355 . S
Eu81 O111 2.374 . S
C82 C80 1.500 . S
C82 C83 1.377 . S
C82 C87 1.377 . S
C83 C82 1.377 . S
C83 C84 1.395 . S
C83 H112 0.931 . S
C84 C83 1.395 . S
C84 C85 1.383 . S
C84 H113 0.931 . S
C85 C84 1.383 . S
C85 C86 1.394 . S
C86 C85 1.394 . S
C86 C87 1.378 . S
C86 H114 0.931 . S
C87 C82 1.377 . S
C87 C86 1.378 . S
C87 H115 0.931 . S
C88 O102 1.259 . S
C88 O103 1.270 . S
C89 O104 1.251 . S
C89 O105 1.251 . S
C90 Eu91 2.835 . S
C90 C92 1.500 . S
C90 O106 1.257 . S
C90 O107 1.260 . S
Eu91 C90 2.835 . S
Eu91 O103 2.355 . S
Eu91 O105 2.374 . S
Eu91 O106 2.473 . S
Eu91 O107 2.480 . S
Eu91 O108 2.430 . S
Eu91 O109 2.670 . S
Eu91 O110 2.394 . S
C92 C90 1.500 . S
C92 C93 1.377 . S
C92 C97 1.377 . S
C93 C92 1.377 . S
C93 C94 1.395 . S
C93 H116 0.931 . S
C94 C93 1.395 . S
C94 C95 1.383 . S
C94 H117 0.931 . S
C95 C94 1.383 . S
C95 C96 1.394 . S
C96 C95 1.394 . S
C96 C97 1.378 . S
C96 H118 0.931 . S
C97 C92 1.377 . S
C97 C96 1.378 . S
C97 H119 0.931 . S
C98 O108 1.259 . S
C98 O109 1.270 . S
C99 O110 1.251 . S
C99 O111 1.251 . S
O100 C80 1.257 . S
O100 Eu81 2.473 . S
O101 C80 1.260 . S
O101 Eu81 2.480 . S
O102 Eu81 2.430 . S
O102 C88 1.259 . S
O103 Eu81 2.670 . S
O103 C88 1.270 . S
O103 Eu91 2.355 . S
O104 Eu81 2.394 . S
O104 C89 1.251 . S
O105 C89 1.251 . S
O105 Eu91 2.374 . S
O106 C90 1.257 . S
O106 Eu91 2.473 . S
O107 C90 1.260 . S
O107 Eu91 2.480 . S
O108 Eu91 2.430 . S
O108 C98 1.259 . S
O109 Eu81 2.355 . S
O109 Eu91 2.670 . S
O109 C98 1.270 . S
O110 Eu91 2.394 . S
O110 C99 1.251 . S
O111 Eu81 2.374 . S
O111 C99 1.251 . S
H112 C83 0.931 . S
H113 C84 0.931 . S
H114 C86 0.931 . S
H115 C87 0.931 . S
H116 C93 0.931 . S
H117 C94 0.931 . S
H118 C96 0.931 . S
H119 C97 0.931 . S
H120 C123 0.931 . S
H121 C126 0.928 . S
H122 C128 0.930 . S
C123 H120 0.931 . S
C123 C124 1.413 . S
C123 C125 1.360 . S
C124 C123 1.413 . S
C124 C128 1.429 . S
C125 C123 1.360 . S
C125 C126 1.372 . S
C126 H121 0.928 . S
C126 C125 1.372 . S
C126 C127 1.404 . S
C127 C126 1.404 . S
C127 C128 1.391 . S
C128 H122 0.930 . S
C128 C124 1.429 . S
C128 C127 1.391 . S
H129 C132 0.931 . S
H130 C135 0.928 . S
H131 C137 0.930 . S
C132 H129 0.931 . S
C132 C133 1.413 . S
C132 C134 1.360 . S
C133 C132 1.413 . S
C133 C137 1.429 . S
C134 C132 1.360 . S
C134 C135 1.372 . S
C135 H130 0.928 . S
C135 C134 1.372 . S
C135 C136 1.404 . S
C136 C135 1.404 . S
C136 C137 1.391 . S
C137 H131 0.930 . S
C137 C133 1.429 . S
C137 C136 1.391 . S
H138 C141 0.931 . S
H139 C144 0.928 . S
H140 C146 0.930 . S
C141 H138 0.931 . S
C141 C142 1.413 . S
C141 C143 1.360 1_655 S
C142 C141 1.413 . S
C142 C146 1.429 1_655 S
C143 C141 1.360 1_455 S
C143 C144 1.372 . S
C144 H139 0.928 . S
C144 C143 1.372 . S
C144 C145 1.404 . S
C145 C144 1.404 . S
C145 C146 1.391 . S
C146 H140 0.930 . S
C146 C142 1.429 1_455 S
C146 C145 1.391 . S
H147 C150 0.931 . S
H148 C153 0.928 . S
H149 C155 0.930 . S
C150 H147 0.931 . S
C150 C151 1.413 . S
C150 C152 1.360 . S
C151 C150 1.413 . S
C151 C155 1.429 . S
C152 C150 1.360 . S
C152 C153 1.372 . S
C153 H148 0.928 . S
C153 C152 1.372 . S
C153 C154 1.404 . S
C154 C153 1.404 . S
C154 C155 1.391 . S
C155 H149 0.930 . S
C155 C151 1.429 . S
C155 C154 1.391 . S
H156 C159 0.931 . S
H157 C162 0.928 . S
H158 C164 0.930 . S
C159 H156 0.931 . S
C159 C160 1.413 . S
C159 C161 1.360 . S
C160 C159 1.413 . S
C160 C164 1.429 . S
C161 C159 1.360 . S
C161 C162 1.372 1_545 S
C162 H157 0.928 . S
C162 C161 1.372 1_565 S
C162 C163 1.404 . S
C163 C162 1.404 . S
C163 C164 1.391 1_565 S
C164 H158 0.930 . S
C164 C160 1.429 . S
C164 C163 1.391 1_545 S
H165 C168 0.931 . S
H166 C171 0.928 . S
H167 C173 0.930 . S
C168 H165 0.931 . S
C168 C169 1.413 . S
C168 C170 1.360 . S
C169 C168 1.413 . S
C169 C173 1.429 . S
C170 C168 1.360 . S
C170 C171 1.372 . S
C171 H166 0.928 . S
C171 C170 1.372 . S
C171 C172 1.404 . S
C172 C171 1.404 . S
C172 C173 1.391 . S
C173 H167 0.930 . S
C173 C169 1.429 . S
C173 C172 1.391 . S
H174 C192 0.951 . S
H175 C194 0.951 . S
H176 C196 0.950 . S
H177 C197 0.950 . S
H178 C199 0.950 . S
H179 C202 0.950 . S
H180 C203 0.950 . S
H181 C205 0.950 . S
H182 C206 0.950 . S
H183 C207 0.951 . S
H184 C209 0.951 . S
H185 C211 0.950 . S
H186 C212 0.950 . S
H187 C214 0.950 . S
H188 C217 0.950 . S
H189 C218 0.950 . S
H190 C220 0.950 . S
H191 C221 0.950 . S
C192 H174 0.951 . S
C192 C193 1.366 . S
C192 C194 1.388 . S
C193 C192 1.366 . S
C193 C197 1.385 . S
C194 H175 0.951 . S
C194 C192 1.388 . S
C194 C195 1.366 . S
C195 C194 1.366 . S
C195 C196 1.414 . S
C195 C198 1.499 . S
C196 H176 0.950 . S
C196 C195 1.414 . S
C196 C197 1.374 . S
C197 H177 0.950 . S
C197 C193 1.385 . S
C197 C196 1.374 . S
C198 C195 1.499 . S
C198 C199 1.373 . S
C198 C200 1.389 . S
C199 H178 0.950 . S
C199 C198 1.373 . S
C199 C215 1.377 . S
C200 C198 1.389 . S
C200 C201 1.524 . S
C200 C214 1.377 . S
C201 C200 1.524 . S
C201 C202 1.397 . S
C201 C206 1.363 . S
C202 H179 0.950 . S
C202 C201 1.397 . S
C202 C203 1.334 . S
C203 H180 0.950 . S
C203 C202 1.334 . S
C203 C204 1.287 . S
C204 C203 1.287 . S
C204 C205 1.524 . S
C204 H223 0.913 . S
C205 H181 0.950 . S
C205 C204 1.524 . S
C205 C206 1.415 . S
C206 H182 0.950 . S
C206 C201 1.363 . S
C206 C205 1.415 . S
C207 H183 0.951 . S
C207 C208 1.366 . S
C207 C209 1.388 . S
C208 C207 1.366 . S
C208 C212 1.385 . S
C209 H184 0.951 . S
C209 C207 1.388 . S
C209 C210 1.366 . S
C210 C209 1.366 . S
C210 C211 1.414 . S
C210 C213 1.499 . S
C211 H185 0.950 . S
C211 C210 1.414 . S
C211 C212 1.374 . S
C212 H186 0.950 . S
C212 C208 1.385 . S
C212 C211 1.374 . S
C213 C210 1.499 . S
C213 C214 1.373 . S
C213 C215 1.389 . S
C214 H187 0.950 . S
C214 C200 1.377 . S
C214 C213 1.373 . S
C215 C199 1.377 . S
C215 C213 1.389 . S
C215 C216 1.524 . S
C216 C215 1.524 . S
C216 C217 1.397 . S
C216 C221 1.363 . S
C217 H188 0.950 . S
C217 C216 1.397 . S
C217 C218 1.334 . S
C218 H189 0.950 . S
C218 C217 1.334 . S
C218 C219 1.287 . S
C219 C218 1.287 . S
C219 C220 1.524 . S
C219 H222 0.999 . S
C220 H190 0.950 . S
C220 C219 1.524 . S
C220 C221 1.415 . S
C221 H191 0.950 . S
C221 C216 1.363 . S
C221 C220 1.415 . S
H222 C219 0.999 . S
H223 C204 0.913 . S
H224 C242 0.951 . S
H225 C244 0.951 . S
H226 C246 0.950 . S
H227 C247 0.950 . S
H228 C249 0.950 . S
H229 C252 0.950 . S
H230 C253 0.950 . S
H231 C255 0.950 . S
H232 C256 0.950 . S
H233 C257 0.951 . S
H234 C259 0.951 . S
H235 C261 0.950 . S
H236 C262 0.950 . S
H237 C264 0.950 . S
H238 C267 0.950 . S
H239 C268 0.950 . S
H240 C270 0.950 . S
H241 C271 0.950 . S
C242 H224 0.951 . S
C242 C243 1.366 . S
C242 C244 1.388 . S
C243 C242 1.366 . S
C243 C247 1.385 . S
C244 H225 0.951 . S
C244 C242 1.388 . S
C244 C245 1.366 . S
C245 C244 1.366 . S
C245 C246 1.414 . S
C245 C248 1.499 . S
C246 H226 0.950 . S
C246 C245 1.414 . S
C246 C247 1.374 . S
C247 H227 0.950 . S
C247 C243 1.385 . S
C247 C246 1.374 . S
C248 C245 1.499 . S
C248 C249 1.373 . S
C248 C250 1.389 . S
C249 H228 0.950 . S
C249 C248 1.373 . S
C249 C265 1.377 . S
C250 C248 1.389 . S
C250 C251 1.524 . S
C250 C264 1.377 . S
C251 C250 1.524 . S
C251 C252 1.397 . S
C251 C256 1.363 . S
C252 H229 0.950 . S
C252 C251 1.397 . S
C252 C253 1.334 . S
C253 H230 0.950 . S
C253 C252 1.334 . S
C253 C254 1.287 . S
C254 C253 1.287 . S
C254 C255 1.524 . S
C254 H273 0.913 . S
C255 H231 0.950 . S
C255 C254 1.524 . S
C255 C256 1.415 . S
C256 H232 0.950 . S
C256 C251 1.363 . S
C256 C255 1.415 . S
C257 H233 0.951 . S
C257 C258 1.366 . S
C257 C259 1.388 . S
C258 C257 1.366 . S
C258 C262 1.385 . S
C259 H234 0.951 . S
C259 C257 1.388 . S
C259 C260 1.366 . S
C260 C259 1.366 . S
C260 C261 1.414 . S
C260 C263 1.499 . S
C261 H235 0.950 . S
C261 C260 1.414 . S
C261 C262 1.374 . S
C262 H236 0.950 . S
C262 C258 1.385 . S
C262 C261 1.374 . S
C263 C260 1.499 . S
C263 C264 1.373 . S
C263 C265 1.389 . S
C264 H237 0.950 . S
C264 C250 1.377 . S
C264 C263 1.373 . S
C265 C249 1.377 . S
C265 C263 1.389 . S
C265 C266 1.524 . S
C266 C265 1.524 . S
C266 C267 1.397 . S
C266 C271 1.363 . S
C267 H238 0.950 . S
C267 C266 1.397 . S
C267 C268 1.334 . S
C268 H239 0.950 . S
C268 C267 1.334 . S
C268 C269 1.287 . S
C269 C268 1.287 . S
C269 C270 1.524 . S
C269 H272 0.999 . S
C270 H240 0.950 . S
C270 C269 1.524 . S
C270 C271 1.415 . S
C271 H241 0.950 . S
C271 C266 1.363 . S
C271 C270 1.415 . S
H272 C269 0.999 . S
H273 C254 0.913 . S
H274 C292 0.951 . S
H275 C294 0.951 . S
H276 C296 0.950 . S
H277 C297 0.950 . S
H278 C299 0.950 . S
H279 C302 0.950 . S
H280 C303 0.950 . S
H281 C305 0.950 . S
H282 C306 0.950 . S
H283 C307 0.951 . S
H284 C309 0.951 . S
H285 C311 0.950 . S
H286 C312 0.950 . S
H287 C314 0.950 . S
H288 C317 0.950 . S
H289 C318 0.950 . S
H290 C320 0.950 . S
H291 C321 0.950 . S
C292 H274 0.951 . S
C292 C293 1.366 . S
C292 C294 1.388 . S
C293 C292 1.366 . S
C293 C297 1.385 . S
C294 H275 0.951 . S
C294 C292 1.388 . S
C294 C295 1.366 . S
C295 C294 1.366 . S
C295 C296 1.414 . S
C295 C298 1.499 . S
C296 H276 0.950 . S
C296 C295 1.414 . S
C296 C297 1.374 . S
C297 H277 0.950 . S
C297 C293 1.385 . S
C297 C296 1.374 . S
C298 C295 1.499 . S
C298 C299 1.373 . S
C298 C300 1.389 . S
C299 H278 0.950 . S
C299 C298 1.373 . S
C299 C315 1.377 . S
C300 C298 1.389 . S
C300 C301 1.524 . S
C300 C314 1.377 . S
C301 C300 1.524 . S
C301 C302 1.397 . S
C301 C306 1.363 . S
C302 H279 0.950 . S
C302 C301 1.397 . S
C302 C303 1.334 . S
C303 H280 0.950 . S
C303 C302 1.334 . S
C303 C304 1.287 . S
C304 C303 1.287 . S
C304 C305 1.524 . S
C304 H323 0.913 . S
C305 H281 0.950 . S
C305 C304 1.524 . S
C305 C306 1.415 . S
C306 H282 0.950 . S
C306 C301 1.363 . S
C306 C305 1.415 . S
C307 H283 0.951 . S
C307 C308 1.366 . S
C307 C309 1.388 . S
C308 C307 1.366 . S
C308 C312 1.385 . S
C309 H284 0.951 . S
C309 C307 1.388 . S
C309 C310 1.366 . S
C310 C309 1.366 . S
C310 C311 1.414 . S
C310 C313 1.499 . S
C311 H285 0.950 . S
C311 C310 1.414 . S
C311 C312 1.374 . S
C312 H286 0.950 . S
C312 C308 1.385 . S
C312 C311 1.374 . S
C313 C310 1.499 . S
C313 C314 1.373 . S
C313 C315 1.389 . S
C314 H287 0.950 . S
C314 C300 1.377 . S
C314 C313 1.373 . S
C315 C299 1.377 . S
C315 C313 1.389 . S
C315 C316 1.524 . S
C316 C315 1.524 . S
C316 C317 1.397 . S
C316 C321 1.363 . S
C317 H288 0.950 . S
C317 C316 1.397 . S
C317 C318 1.334 . S
C318 H289 0.950 . S
C318 C317 1.334 . S
C318 C319 1.287 . S
C319 C318 1.287 . S
C319 C320 1.524 . S
C319 H322 0.999 . S
C320 H290 0.950 . S
C320 C319 1.524 . S
C320 C321 1.415 . S
C321 H291 0.950 . S
C321 C316 1.363 . S
C321 C320 1.415 . S
H322 C319 0.999 . S
H323 C304 0.913 . S
H324 C342 0.951 . S
H325 C344 0.951 . S
H326 C346 0.950 . S
H327 C347 0.950 . S
H328 C349 0.950 . S
H329 C352 0.950 . S
H330 C353 0.950 . S
H331 C355 0.950 . S
H332 C356 0.950 . S
H333 C357 0.951 . S
H334 C359 0.951 . S
H335 C361 0.950 . S
H336 C362 0.950 . S
H337 C364 0.950 . S
H338 C367 0.950 . S
H339 C368 0.950 . S
H340 C370 0.950 . S
H341 C371 0.950 . S
C342 H324 0.951 . S
C342 C343 1.366 . S
C342 C344 1.388 . S
C343 C342 1.366 . S
C343 C347 1.385 . S
C344 H325 0.951 . S
C344 C342 1.388 . S
C344 C345 1.366 . S
C345 C344 1.366 . S
C345 C346 1.414 . S
C345 C348 1.499 . S
C346 H326 0.950 . S
C346 C345 1.414 . S
C346 C347 1.374 . S
C347 H327 0.950 . S
C347 C343 1.385 . S
C347 C346 1.374 . S
C348 C345 1.499 . S
C348 C349 1.373 . S
C348 C350 1.389 . S
C349 H328 0.950 . S
C349 C348 1.373 . S
C349 C365 1.377 . S
C350 C348 1.389 . S
C350 C351 1.524 . S
C350 C364 1.377 . S
C351 C350 1.524 . S
C351 C352 1.397 . S
C351 C356 1.363 . S
C352 H329 0.950 . S
C352 C351 1.397 . S
C352 C353 1.334 . S
C353 H330 0.950 . S
C353 C352 1.334 . S
C353 C354 1.287 . S
C354 C353 1.287 . S
C354 C355 1.524 . S
C354 H373 0.913 . S
C355 H331 0.950 . S
C355 C354 1.524 . S
C355 C356 1.415 . S
C356 H332 0.950 . S
C356 C351 1.363 . S
C356 C355 1.415 . S
C357 H333 0.951 . S
C357 C358 1.366 . S
C357 C359 1.388 . S
C358 C357 1.366 . S
C358 C362 1.385 . S
C359 H334 0.951 . S
C359 C357 1.388 . S
C359 C360 1.366 . S
C360 C359 1.366 . S
C360 C361 1.414 . S
C360 C363 1.499 . S
C361 H335 0.950 . S
C361 C360 1.414 . S
C361 C362 1.374 . S
C362 H336 0.950 . S
C362 C358 1.385 . S
C362 C361 1.374 . S
C363 C360 1.499 . S
C363 C364 1.373 . S
C363 C365 1.389 . S
C364 H337 0.950 . S
C364 C350 1.377 . S
C364 C363 1.373 . S
C365 C349 1.377 . S
C365 C363 1.389 . S
C365 C366 1.524 . S
C366 C365 1.524 . S
C366 C367 1.397 . S
C366 C371 1.363 . S
C367 H338 0.950 . S
C367 C366 1.397 . S
C367 C368 1.334 . S
C368 H339 0.950 . S
C368 C367 1.334 . S
C368 C369 1.287 . S
C369 C368 1.287 . S
C369 C370 1.524 . S
C369 H372 0.999 . S
C370 H340 0.950 . S
C370 C369 1.524 . S
C370 C371 1.415 . S
C371 H341 0.950 . S
C371 C366 1.363 . S
C371 C370 1.415 . S
H372 C369 0.999 . S
H373 C354 0.913 . S
H374 C392 0.951 . S
H375 C394 0.951 . S
H376 C396 0.950 . S
H377 C397 0.950 . S
H378 C399 0.950 . S
H379 C402 0.950 . S
H380 C403 0.950 . S
H381 C405 0.950 . S
H382 C406 0.950 . S
H383 C407 0.951 . S
H384 C409 0.951 . S
H385 C411 0.950 . S
H386 C412 0.950 . S
H387 C414 0.950 . S
H388 C417 0.950 . S
H389 C418 0.950 . S
H390 C420 0.950 . S
H391 C421 0.950 . S
C392 H374 0.951 . S
C392 C393 1.366 . S
C392 C394 1.388 . S
C393 C392 1.366 . S
C393 C397 1.385 . S
C394 H375 0.951 . S
C394 C392 1.388 . S
C394 C395 1.366 . S
C395 C394 1.366 . S
C395 C396 1.414 . S
C395 C398 1.499 . S
C396 H376 0.950 . S
C396 C395 1.414 . S
C396 C397 1.374 . S
C397 H377 0.950 . S
C397 C393 1.385 . S
C397 C396 1.374 . S
C398 C395 1.499 . S
C398 C399 1.373 . S
C398 C400 1.389 . S
C399 H378 0.950 . S
C399 C398 1.373 . S
C399 C415 1.377 . S
C400 C398 1.389 . S
C400 C401 1.524 . S
C400 C414 1.377 . S
C401 C400 1.524 . S
C401 C402 1.397 . S
C401 C406 1.363 . S
C402 H379 0.950 . S
C402 C401 1.397 . S
C402 C403 1.334 . S
C403 H380 0.950 . S
C403 C402 1.334 . S
C403 C404 1.287 . S
C404 C403 1.287 . S
C404 C405 1.524 . S
C404 H423 0.913 . S
C405 H381 0.950 . S
C405 C404 1.524 . S
C405 C406 1.415 . S
C406 H382 0.950 . S
C406 C401 1.363 . S
C406 C405 1.415 . S
C407 H383 0.951 . S
C407 C408 1.366 . S
C407 C409 1.388 . S
C408 C407 1.366 . S
C408 C412 1.385 . S
C409 H384 0.951 . S
C409 C407 1.388 . S
C409 C410 1.366 . S
C410 C409 1.366 . S
C410 C411 1.414 . S
C410 C413 1.499 . S
C411 H385 0.950 . S
C411 C410 1.414 . S
C411 C412 1.374 . S
C412 H386 0.950 . S
C412 C408 1.385 . S
C412 C411 1.374 . S
C413 C410 1.499 . S
C413 C414 1.373 . S
C413 C415 1.389 . S
C414 H387 0.950 . S
C414 C400 1.377 . S
C414 C413 1.373 . S
C415 C399 1.377 . S
C415 C413 1.389 . S
C415 C416 1.524 . S
C416 C415 1.524 . S
C416 C417 1.397 . S
C416 C421 1.363 . S
C417 H388 0.950 . S
C417 C416 1.397 . S
C417 C418 1.334 . S
C418 H389 0.950 . S
C418 C417 1.334 . S
C418 C419 1.287 . S
C419 C418 1.287 . S
C419 C420 1.524 . S
C419 H422 0.999 . S
C420 H390 0.950 . S
C420 C419 1.524 . S
C420 C421 1.415 . S
C421 H391 0.950 . S
C421 C416 1.363 . S
C421 C420 1.415 . S
H422 C419 0.999 . S
H423 C404 0.913 . S
H424 C442 0.951 . S
H425 C444 0.951 . S
H426 C446 0.950 . S
H427 C447 0.950 . S
H428 C449 0.950 . S
H429 C452 0.950 . S
H430 C453 0.950 . S
H431 C455 0.950 . S
H432 C456 0.950 . S
H433 C457 0.951 . S
H434 C459 0.951 . S
H435 C461 0.950 . S
H436 C462 0.950 . S
H437 C464 0.950 . S
H438 C467 0.950 . S
H439 C468 0.950 . S
H440 C470 0.950 . S
H441 C471 0.950 . S
C442 H424 0.951 . S
C442 C443 1.366 . S
C442 C444 1.388 . S
C443 C442 1.366 . S
C443 C447 1.385 . S
C444 H425 0.951 . S
C444 C442 1.388 . S
C444 C445 1.366 . S
C445 C444 1.366 . S
C445 C446 1.414 . S
C445 C448 1.499 . S
C446 H426 0.950 . S
C446 C445 1.414 . S
C446 C447 1.374 . S
C447 H427 0.950 . S
C447 C443 1.385 . S
C447 C446 1.374 . S
C448 C445 1.499 . S
C448 C449 1.373 . S
C448 C450 1.389 . S
C449 H428 0.950 . S
C449 C448 1.373 . S
C449 C465 1.377 . S
C450 C448 1.389 . S
C450 C451 1.524 . S
C450 C464 1.377 . S
C451 C450 1.524 . S
C451 C452 1.397 . S
C451 C456 1.363 . S
C452 H429 0.950 . S
C452 C451 1.397 . S
C452 C453 1.334 . S
C453 H430 0.950 . S
C453 C452 1.334 . S
C453 C454 1.287 . S
C454 C453 1.287 . S
C454 C455 1.524 . S
C454 H473 0.913 . S
C455 H431 0.950 . S
C455 C454 1.524 . S
C455 C456 1.415 . S
C456 H432 0.950 . S
C456 C451 1.363 . S
C456 C455 1.415 . S
C457 H433 0.951 . S
C457 C458 1.366 . S
C457 C459 1.388 . S
C458 C457 1.366 . S
C458 C462 1.385 . S
C459 H434 0.951 . S
C459 C457 1.388 . S
C459 C460 1.366 . S
C460 C459 1.366 . S
C460 C461 1.414 . S
C460 C463 1.499 . S
C461 H435 0.950 . S
C461 C460 1.414 . S
C461 C462 1.374 . S
C462 H436 0.950 . S
C462 C458 1.385 . S
C462 C461 1.374 . S
C463 C460 1.499 . S
C463 C464 1.373 . S
C463 C465 1.389 . S
C464 H437 0.950 . S
C464 C450 1.377 . S
C464 C463 1.373 . S
C465 C449 1.377 . S
C465 C463 1.389 . S
C465 C466 1.524 . S
C466 C465 1.524 . S
C466 C467 1.397 . S
C466 C471 1.363 . S
C467 H438 0.950 . S
C467 C466 1.397 . S
C467 C468 1.334 . S
C468 H439 0.950 . S
C468 C467 1.334 . S
C468 C469 1.287 . S
C469 C468 1.287 . S
C469 C470 1.524 . S
C469 H472 0.999 . S
C470 H440 0.950 . S
C470 C469 1.524 . S
C470 C471 1.415 . S
C471 H441 0.950 . S
C471 C466 1.363 . S
C471 C470 1.415 . S
H472 C469 0.999 . S
H473 C454 0.913 . S
H474 C492 0.951 . S
H475 C494 0.951 . S
H476 C496 0.950 . S
H477 C497 0.950 . S
H478 C499 0.950 . S
H479 C502 0.950 . S
H480 C503 0.950 . S
H481 C505 0.950 . S
H482 C506 0.950 . S
H483 C507 0.951 . S
H484 C509 0.951 . S
H485 C511 0.950 . S
H486 C512 0.950 . S
H487 C514 0.950 . S
H488 C517 0.950 . S
H489 C518 0.950 . S
H490 C520 0.950 . S
H491 C521 0.950 . S
C492 H474 0.951 . S
C492 C493 1.366 . S
C492 C494 1.388 . S
C493 C492 1.366 . S
C493 C497 1.385 . S
C494 H475 0.951 . S
C494 C492 1.388 . S
C494 C495 1.366 . S
C495 C494 1.366 . S
C495 C496 1.414 . S
C495 C498 1.499 . S
C496 H476 0.950 . S
C496 C495 1.414 . S
C496 C497 1.374 . S
C497 H477 0.950 . S
C497 C493 1.385 . S
C497 C496 1.374 . S
C498 C495 1.499 . S
C498 C499 1.373 . S
C498 C500 1.389 . S
C499 H478 0.950 . S
C499 C498 1.373 . S
C499 C515 1.377 . S
C500 C498 1.389 . S
C500 C501 1.524 . S
C500 C514 1.377 . S
C501 C500 1.524 . S
C501 C502 1.397 . S
C501 C506 1.363 . S
C502 H479 0.950 . S
C502 C501 1.397 . S
C502 C503 1.334 . S
C503 H480 0.950 . S
C503 C502 1.334 . S
C503 C504 1.287 . S
C504 C503 1.287 . S
C504 C505 1.524 . S
C504 H523 0.913 . S
C505 H481 0.950 . S
C505 C504 1.524 . S
C505 C506 1.415 . S
C506 H482 0.950 . S
C506 C501 1.363 . S
C506 C505 1.415 . S
C507 H483 0.951 . S
C507 C508 1.366 . S
C507 C509 1.388 . S
C508 C507 1.366 . S
C508 C512 1.385 . S
C509 H484 0.951 . S
C509 C507 1.388 . S
C509 C510 1.366 . S
C510 C509 1.366 . S
C510 C511 1.414 . S
C510 C513 1.499 . S
C511 H485 0.950 . S
C511 C510 1.414 . S
C511 C512 1.374 . S
C512 H486 0.950 . S
C512 C508 1.385 . S
C512 C511 1.374 . S
C513 C510 1.499 . S
C513 C514 1.373 . S
C513 C515 1.389 . S
C514 H487 0.950 . S
C514 C500 1.377 . S
C514 C513 1.373 . S
C515 C499 1.377 . S
C515 C513 1.389 . S
C515 C516 1.524 . S
C516 C515 1.524 . S
C516 C517 1.397 . S
C516 C521 1.363 . S
C517 H488 0.950 . S
C517 C516 1.397 . S
C517 C518 1.334 . S
C518 H489 0.950 . S
C518 C517 1.334 . S
C518 C519 1.287 . S
C519 C518 1.287 . S
C519 C520 1.524 . S
C519 H522 0.999 . S
C520 H490 0.950 . S
C520 C519 1.524 . S
C520 C521 1.415 . S
C521 H491 0.950 . S
C521 C516 1.363 . S
C521 C520 1.415 . S
H522 C519 0.999 . S
H523 C504 0.913 . S
H524 C542 0.951 . S
H525 C544 0.951 . S
H526 C546 0.950 . S
H527 C547 0.950 . S
H528 C549 0.950 . S
H529 C552 0.950 . S
H530 C553 0.950 . S
H531 C555 0.950 . S
H532 C556 0.950 . S
H533 C557 0.951 . S
H534 C559 0.951 . S
H535 C561 0.950 . S
H536 C562 0.950 . S
H537 C564 0.950 . S
H538 C567 0.950 . S
H539 C568 0.950 . S
H540 C570 0.950 . S
H541 C571 0.950 . S
C542 H524 0.951 . S
C542 C543 1.366 . S
C542 C544 1.388 . S
C543 C542 1.366 . S
C543 C547 1.385 . S
C544 H525 0.951 . S
C544 C542 1.388 . S
C544 C545 1.366 . S
C545 C544 1.366 . S
C545 C546 1.414 . S
C545 C548 1.499 . S
C546 H526 0.950 . S
C546 C545 1.414 . S
C546 C547 1.374 . S
C547 H527 0.950 . S
C547 C543 1.385 . S
C547 C546 1.374 . S
C548 C545 1.499 . S
C548 C549 1.373 . S
C548 C550 1.389 . S
C549 H528 0.950 . S
C549 C548 1.373 . S
C549 C565 1.377 . S
C550 C548 1.389 . S
C550 C551 1.524 . S
C550 C564 1.377 . S
C551 C550 1.524 . S
C551 C552 1.397 . S
C551 C556 1.363 . S
C552 H529 0.950 . S
C552 C551 1.397 . S
C552 C553 1.334 . S
C553 H530 0.950 . S
C553 C552 1.334 . S
C553 C554 1.287 . S
C554 C553 1.287 . S
C554 C555 1.524 . S
C554 H573 0.913 . S
C555 H531 0.950 . S
C555 C554 1.524 . S
C555 C556 1.415 . S
C556 H532 0.950 . S
C556 C551 1.363 . S
C556 C555 1.415 . S
C557 H533 0.951 . S
C557 C558 1.366 . S
C557 C559 1.388 . S
C558 C557 1.366 . S
C558 C562 1.385 . S
C559 H534 0.951 . S
C559 C557 1.388 . S
C559 C560 1.366 . S
C560 C559 1.366 . S
C560 C561 1.414 . S
C560 C563 1.499 . S
C561 H535 0.950 . S
C561 C560 1.414 . S
C561 C562 1.374 . S
C562 H536 0.950 . S
C562 C558 1.385 . S
C562 C561 1.374 . S
C563 C560 1.499 . S
C563 C564 1.373 . S
C563 C565 1.389 . S
C564 H537 0.950 . S
C564 C550 1.377 . S
C564 C563 1.373 . S
C565 C549 1.377 . S
C565 C563 1.389 . S
C565 C566 1.524 . S
C566 C565 1.524 . S
C566 C567 1.397 . S
C566 C571 1.363 . S
C567 H538 0.950 . S
C567 C566 1.397 . S
C567 C568 1.334 . S
C568 H539 0.950 . S
C568 C567 1.334 . S
C568 C569 1.287 . S
C569 C568 1.287 . S
C569 C570 1.524 . S
C569 H572 0.999 . S
C570 H540 0.950 . S
C570 C569 1.524 . S
C570 C571 1.415 . S
C571 H541 0.950 . S
C571 C566 1.363 . S
C571 C570 1.415 . S
H572 C569 0.999 . S
H573 C554 0.913 . S
H574 C592 0.951 . S
H575 C594 0.951 . S
H576 C596 0.950 . S
H577 C597 0.950 . S
H578 C599 0.950 . S
H579 C602 0.950 . S
H580 C603 0.950 . S
H581 C605 0.950 . S
H582 C606 0.950 . S
H583 C607 0.951 . S
H584 C609 0.951 . S
H585 C611 0.950 . S
H586 C612 0.950 . S
H587 C614 0.950 . S
H588 C617 0.950 . S
H589 C618 0.950 . S
H590 C620 0.950 . S
H591 C621 0.950 . S
C592 H574 0.951 . S
C592 C593 1.366 . S
C592 C594 1.388 . S
C593 C592 1.366 . S
C593 C597 1.385 . S
C594 H575 0.951 . S
C594 C592 1.388 . S
C594 C595 1.366 . S
C595 C594 1.366 . S
C595 C596 1.414 . S
C595 C598 1.499 . S
C596 H576 0.950 . S
C596 C595 1.414 . S
C596 C597 1.374 . S
C597 H577 0.950 . S
C597 C593 1.385 . S
C597 C596 1.374 . S
C598 C595 1.499 . S
C598 C599 1.373 . S
C598 C600 1.389 . S
C599 H578 0.950 . S
C599 C598 1.373 . S
C599 C615 1.377 . S
C600 C598 1.389 . S
C600 C601 1.524 . S
C600 C614 1.377 . S
C601 C600 1.524 . S
C601 C602 1.397 . S
C601 C606 1.363 . S
C602 H579 0.950 . S
C602 C601 1.397 . S
C602 C603 1.334 . S
C603 H580 0.950 . S
C603 C602 1.334 . S
C603 C604 1.287 . S
C604 C603 1.287 . S
C604 C605 1.524 . S
C604 H623 0.913 . S
C605 H581 0.950 . S
C605 C604 1.524 . S
C605 C606 1.415 . S
C606 H582 0.950 . S
C606 C601 1.363 . S
C606 C605 1.415 . S
C607 H583 0.951 . S
C607 C608 1.366 . S
C607 C609 1.388 1_545 S
C608 C607 1.366 . S
C608 C612 1.385 . S
C609 H584 0.951 . S
C609 C607 1.388 1_565 S
C609 C610 1.366 . S
C610 C609 1.366 . S
C610 C611 1.414 . S
C610 C613 1.499 . S
C611 H585 0.950 . S
C611 C610 1.414 . S
C611 C612 1.374 1_565 S
C612 H586 0.950 . S
C612 C608 1.385 . S
C612 C611 1.374 1_545 S
C613 C610 1.499 . S
C613 C614 1.373 . S
C613 C615 1.389 . S
C614 H587 0.950 . S
C614 C600 1.377 . S
C614 C613 1.373 . S
C615 C599 1.377 . S
C615 C613 1.389 . S
C615 C616 1.524 . S
C616 C615 1.524 . S
C616 C617 1.397 . S
C616 C621 1.363 . S
C617 H588 0.950 . S
C617 C616 1.397 . S
C617 C618 1.334 1_565 S
C618 H589 0.950 . S
C618 C617 1.334 1_545 S
C618 C619 1.287 1_545 S
C619 C618 1.287 1_565 S
C619 C620 1.524 . S
C619 H622 0.999 1_565 S
C620 H590 0.950 . S
C620 C619 1.524 . S
C620 C621 1.415 . S
C621 H591 0.950 . S
C621 C616 1.363 . S
C621 C620 1.415 . S
H622 C619 0.999 1_545 S
H623 C604 0.913 . S
H624 C642 0.951 . S
H625 C644 0.951 . S
H626 C646 0.950 . S
H627 C647 0.950 . S
H628 C649 0.950 . S
H629 C652 0.950 . S
H630 C653 0.950 . S
H631 C655 0.950 . S
H632 C656 0.950 . S
H633 C657 0.951 . S
H634 C659 0.951 . S
H635 C661 0.950 . S
H636 C662 0.950 . S
H637 C664 0.950 . S
H638 C667 0.950 . S
H639 C668 0.950 . S
H640 C670 0.950 . S
H641 C671 0.950 . S
C642 H624 0.951 . S
C642 C643 1.366 . S
C642 C644 1.388 . S
C643 C642 1.366 . S
C643 C647 1.385 . S
C644 H625 0.951 . S
C644 C642 1.388 . S
C644 C645 1.366 . S
C645 C644 1.366 . S
C645 C646 1.414 . S
C645 C648 1.499 . S
C646 H626 0.950 . S
C646 C645 1.414 . S
C646 C647 1.374 . S
C647 H627 0.950 . S
C647 C643 1.385 . S
C647 C646 1.374 . S
C648 C645 1.499 . S
C648 C649 1.373 . S
C648 C650 1.389 . S
C649 H628 0.950 . S
C649 C648 1.373 . S
C649 C665 1.377 . S
C650 C648 1.389 . S
C650 C651 1.524 . S
C650 C664 1.377 . S
C651 C650 1.524 . S
C651 C652 1.397 . S
C651 C656 1.363 . S
C652 H629 0.950 . S
C652 C651 1.397 . S
C652 C653 1.334 . S
C653 H630 0.950 . S
C653 C652 1.334 . S
C653 C654 1.287 . S
C654 C653 1.287 . S
C654 C655 1.524 . S
C654 H673 0.913 . S
C655 H631 0.950 . S
C655 C654 1.524 . S
C655 C656 1.415 . S
C656 H632 0.950 . S
C656 C651 1.363 . S
C656 C655 1.415 . S
C657 H633 0.951 . S
C657 C658 1.366 . S
C657 C659 1.388 . S
C658 C657 1.366 . S
C658 C662 1.385 . S
C659 H634 0.951 . S
C659 C657 1.388 . S
C659 C660 1.366 . S
C660 C659 1.366 . S
C660 C661 1.414 . S
C660 C663 1.499 . S
C661 H635 0.950 . S
C661 C660 1.414 . S
C661 C662 1.374 . S
C662 H636 0.950 . S
C662 C658 1.385 . S
C662 C661 1.374 . S
C663 C660 1.499 . S
C663 C664 1.373 . S
C663 C665 1.389 . S
C664 H637 0.950 . S
C664 C650 1.377 . S
C664 C663 1.373 . S
C665 C649 1.377 . S
C665 C663 1.389 . S
C665 C666 1.524 . S
C666 C665 1.524 . S
C666 C667 1.397 . S
C666 C671 1.363 . S
C667 H638 0.950 . S
C667 C666 1.397 . S
C667 C668 1.334 . S
C668 H639 0.950 . S
C668 C667 1.334 . S
C668 C669 1.287 . S
C669 C668 1.287 . S
C669 C670 1.524 . S
C669 H672 0.999 . S
C670 H640 0.950 . S
C670 C669 1.524 . S
C670 C671 1.415 . S
C671 H641 0.950 . S
C671 C666 1.363 . S
C671 C670 1.415 . S
H672 C669 0.999 . S
H673 C654 0.913 . S
H674 C692 0.951 . S
H675 C694 0.951 . S
H676 C696 0.950 . S
H677 C697 0.950 . S
H678 C699 0.950 . S
H679 C702 0.950 . S
H680 C703 0.950 . S
H681 C705 0.950 . S
H682 C706 0.950 . S
H683 C707 0.951 . S
H684 C709 0.951 . S
H685 C711 0.950 . S
H686 C712 0.950 . S
H687 C714 0.950 . S
H688 C717 0.950 . S
H689 C718 0.950 . S
H690 C720 0.950 . S
H691 C721 0.950 . S
C692 H674 0.951 . S
C692 C693 1.366 . S
C692 C694 1.388 . S
C693 C692 1.366 . S
C693 C697 1.385 . S
C694 H675 0.951 . S
C694 C692 1.388 . S
C694 C695 1.366 . S
C695 C694 1.366 . S
C695 C696 1.414 . S
C695 C698 1.499 . S
C696 H676 0.950 . S
C696 C695 1.414 . S
C696 C697 1.374 . S
C697 H677 0.950 . S
C697 C693 1.385 . S
C697 C696 1.374 . S
C698 C695 1.499 . S
C698 C699 1.373 . S
C698 C700 1.389 . S
C699 H678 0.950 . S
C699 C698 1.373 . S
C699 C715 1.377 . S
C700 C698 1.389 . S
C700 C701 1.524 . S
C700 C714 1.377 . S
C701 C700 1.524 . S
C701 C702 1.397 . S
C701 C706 1.363 . S
C702 H679 0.950 . S
C702 C701 1.397 . S
C702 C703 1.334 . S
C703 H680 0.950 . S
C703 C702 1.334 . S
C703 C704 1.287 . S
C704 C703 1.287 . S
C704 C705 1.524 . S
C704 H723 0.913 . S
C705 H681 0.950 . S
C705 C704 1.524 . S
C705 C706 1.415 . S
C706 H682 0.950 . S
C706 C701 1.363 . S
C706 C705 1.415 . S
C707 H683 0.951 . S
C707 C708 1.366 . S
C707 C709 1.388 . S
C708 C707 1.366 . S
C708 C712 1.385 . S
C709 H684 0.951 . S
C709 C707 1.388 . S
C709 C710 1.366 . S
C710 C709 1.366 . S
C710 C711 1.414 . S
C710 C713 1.499 . S
C711 H685 0.950 . S
C711 C710 1.414 . S
C711 C712 1.374 . S
C712 H686 0.950 . S
C712 C708 1.385 . S
C712 C711 1.374 . S
C713 C710 1.499 . S
C713 C714 1.373 . S
C713 C715 1.389 . S
C714 H687 0.950 . S
C714 C700 1.377 . S
C714 C713 1.373 . S
C715 C699 1.377 . S
C715 C713 1.389 . S
C715 C716 1.524 . S
C716 C715 1.524 . S
C716 C717 1.397 . S
C716 C721 1.363 . S
C717 H688 0.950 . S
C717 C716 1.397 . S
C717 C718 1.334 . S
C718 H689 0.950 . S
C718 C717 1.334 . S
C718 C719 1.287 . S
C719 C718 1.287 . S
C719 C720 1.524 . S
C719 H722 0.999 . S
C720 H690 0.950 . S
C720 C719 1.524 . S
C720 C721 1.415 . S
C721 H691 0.950 . S
C721 C716 1.363 . S
C721 C720 1.415 . S
H722 C719 0.999 . S
H723 C704 0.913 . S
H724 C742 0.951 . S
H725 C744 0.951 . S
H726 C746 0.950 . S
H727 C747 0.950 . S
H728 C749 0.950 . S
H729 C752 0.950 . S
H730 C753 0.950 . S
H731 C755 0.950 . S
H732 C756 0.950 . S
H733 C757 0.951 . S
H734 C759 0.951 . S
H735 C761 0.950 . S
H736 C762 0.950 . S
H737 C764 0.950 . S
H738 C767 0.950 . S
H739 C768 0.950 . S
H740 C770 0.950 . S
H741 C771 0.950 . S
C742 H724 0.951 . S
C742 C743 1.366 . S
C742 C744 1.388 . S
C743 C742 1.366 . S
C743 C747 1.385 . S
C744 H725 0.951 . S
C744 C742 1.388 . S
C744 C745 1.366 . S
C745 C744 1.366 . S
C745 C746 1.414 . S
C745 C748 1.499 . S
C746 H726 0.950 . S
C746 C745 1.414 . S
C746 C747 1.374 . S
C747 H727 0.950 . S
C747 C743 1.385 . S
C747 C746 1.374 . S
C748 C745 1.499 . S
C748 C749 1.373 . S
C748 C750 1.389 . S
C749 H728 0.950 . S
C749 C748 1.373 . S
C749 C765 1.377 . S
C750 C748 1.389 . S
C750 C751 1.524 . S
C750 C764 1.377 . S
C751 C750 1.524 . S
C751 C752 1.397 . S
C751 C756 1.363 . S
C752 H729 0.950 . S
C752 C751 1.397 . S
C752 C753 1.334 . S
C753 H730 0.950 . S
C753 C752 1.334 . S
C753 C754 1.287 . S
C754 C753 1.287 . S
C754 C755 1.524 . S
C754 H773 0.913 . S
C755 H731 0.950 . S
C755 C754 1.524 . S
C755 C756 1.415 . S
C756 H732 0.950 . S
C756 C751 1.363 . S
C756 C755 1.415 . S
C757 H733 0.951 . S
C757 C758 1.366 . S
C757 C759 1.388 . S
C758 C757 1.366 . S
C758 C762 1.385 . S
C759 H734 0.951 . S
C759 C757 1.388 . S
C759 C760 1.366 . S
C760 C759 1.366 . S
C760 C761 1.414 . S
C760 C763 1.499 . S
C761 H735 0.950 . S
C761 C760 1.414 . S
C761 C762 1.374 . S
C762 H736 0.950 . S
C762 C758 1.385 . S
C762 C761 1.374 . S
C763 C760 1.499 . S
C763 C764 1.373 . S
C763 C765 1.389 . S
C764 H737 0.950 . S
C764 C750 1.377 . S
C764 C763 1.373 . S
C765 C749 1.377 . S
C765 C763 1.389 . S
C765 C766 1.524 . S
C766 C765 1.524 . S
C766 C767 1.397 . S
C766 C771 1.363 . S
C767 H738 0.950 . S
C767 C766 1.397 . S
C767 C768 1.334 . S
C768 H739 0.950 . S
C768 C767 1.334 . S
C768 C769 1.287 . S
C769 C768 1.287 . S
C769 C770 1.524 . S
C769 H772 0.999 . S
C770 H740 0.950 . S
C770 C769 1.524 . S
C770 C771 1.415 . S
C771 H741 0.950 . S
C771 C766 1.363 . S
C771 C770 1.415 . S
H772 C769 0.999 . S
H773 C754 0.913 . S
H774 C792 0.951 . S
H775 C794 0.951 . S
H776 C796 0.950 1_655 S
H777 C797 0.950 1_655 S
H778 C799 0.950 . S
H779 C802 0.950 . S
H780 C803 0.950 . S
H781 C805 0.950 . S
H782 C806 0.950 . S
H783 C807 0.951 . S
H784 C809 0.951 . S
H785 C811 0.950 . S
H786 C812 0.950 . S
H787 C814 0.950 . S
H788 C817 0.947 1_556 S
H789 C818 0.950 . S
H790 C820 0.950 . S
H791 C821 0.950 . S
C792 H774 0.951 . S
C792 C793 1.366 . S
C792 C794 1.388 . S
C793 C792 1.366 . S
C793 C797 1.385 . S
C794 H775 0.951 . S
C794 C792 1.388 . S
C794 C795 1.366 . S
C795 C794 1.366 . S
C795 C796 1.414 . S
C795 C798 1.499 . S
C796 H776 0.950 1_455 S
C796 C795 1.414 . S
C796 C797 1.374 . S
C797 H777 0.950 1_455 S
C797 C793 1.385 . S
C797 C796 1.374 . S
C798 C795 1.499 . S
C798 C799 1.373 1_455 S
C798 C800 1.389 . S
C799 H778 0.950 . S
C799 C798 1.373 1_655 S
C799 C815 1.377 . S
C800 C798 1.389 . S
C800 C801 1.524 . S
C800 C814 1.377 . S
C801 C800 1.524 . S
C801 C802 1.397 . S
C801 C806 1.363 . S
C802 H779 0.950 . S
C802 C801 1.397 . S
C802 C803 1.334 . S
C803 H780 0.950 . S
C803 C802 1.334 . S
C803 C804 1.287 . S
C804 C803 1.287 . S
C804 C805 1.524 . S
C804 H823 0.913 . S
C805 H781 0.950 . S
C805 C804 1.524 . S
C805 C806 1.415 . S
C806 H782 0.950 . S
C806 C801 1.363 . S
C806 C805 1.415 . S
C807 H783 0.951 . S
C807 C808 1.366 1_655 S
C807 C809 1.388 . S
C808 C807 1.366 1_455 S
C808 C812 1.385 . S
C809 H784 0.951 . S
C809 C807 1.388 . S
C809 C810 1.366 1_655 S
C810 C809 1.366 1_455 S
C810 C811 1.414 . S
C810 C813 1.499 1_556 S
C811 H785 0.950 . S
C811 C810 1.414 . S
C811 C812 1.374 . S
C812 H786 0.950 . S
C812 C808 1.385 . S
C812 C811 1.374 . S
C813 C810 1.499 1_554 S
C813 C814 1.373 . S
C813 C815 1.389 1_455 S
C814 H787 0.950 . S
C814 C800 1.377 . S
C814 C813 1.373 . S
C815 C799 1.377 . S
C815 C813 1.389 1_655 S
C815 C816 1.524 . S
C816 C815 1.524 . S
C816 C817 1.404 . S
C816 C821 1.363 . S
C817 H788 0.947 1_554 S
C817 C816 1.404 . S
C817 C818 1.328 1_554 S
C818 H789 0.950 . S
C818 C817 1.328 1_556 S
C818 C819 1.287 . S
C819 C818 1.287 . S
C819 C820 1.524 1_556 S
C819 H822 0.999 . S
C820 H790 0.950 . S
C820 C819 1.524 1_554 S
C820 C821 1.415 . S
C821 H791 0.950 . S
C821 C816 1.363 . S
C821 C820 1.415 . S
H822 C819 0.999 . S
H823 C804 0.913 . S
H824 C842 0.951 . S
H825 C844 0.951 . S
H826 C846 0.950 . S
H827 C847 0.950 . S
H828 C849 0.950 . S
H829 C852 0.950 . S
H830 C853 0.950 . S
H831 C855 0.950 . S
H832 C856 0.950 . S
H833 C857 0.951 . S
H834 C859 0.951 . S
H835 C861 0.950 . S
H836 C862 0.950 . S
H837 C864 0.950 . S
H838 C867 0.950 . S
H839 C868 0.950 . S
H840 C870 0.950 . S
H841 C871 0.949 1_545 S
C842 H824 0.951 . S
C842 C843 1.366 . S
C842 C844 1.388 . S
C843 C842 1.366 . S
C843 C847 1.385 . S
C844 H825 0.951 . S
C844 C842 1.388 . S
C844 C845 1.366 . S
C845 C844 1.366 . S
C845 C846 1.414 . S
C845 C848 1.499 . S
C846 H826 0.950 . S
C846 C845 1.414 . S
C846 C847 1.374 . S
C847 H827 0.950 . S
C847 C843 1.385 . S
C847 C846 1.374 . S
C848 C845 1.499 . S
C848 C849 1.373 . S
C848 C850 1.389 . S
C849 H828 0.950 . S
C849 C848 1.373 . S
C849 C865 1.377 . S
C850 C848 1.389 . S
C850 C851 1.524 . S
C850 C864 1.377 . S
C851 C850 1.524 . S
C851 C852 1.397 . S
C851 C856 1.363 . S
C852 H829 0.950 . S
C852 C851 1.397 . S
C852 C853 1.334 . S
C853 H830 0.950 . S
C853 C852 1.334 . S
C853 C854 1.287 . S
C854 C853 1.287 . S
C854 C855 1.524 . S
C854 H873 0.913 . S
C855 H831 0.950 . S
C855 C854 1.524 . S
C855 C856 1.415 . S
C856 H832 0.950 . S
C856 C851 1.363 . S
C856 C855 1.415 . S
C857 H833 0.951 . S
C857 C858 1.366 . S
C857 C859 1.388 . S
C858 C857 1.366 . S
C858 C862 1.385 . S
C859 H834 0.951 . S
C859 C857 1.388 . S
C859 C860 1.366 . S
C860 C859 1.366 . S
C860 C861 1.414 . S
C860 C863 1.499 . S
C861 H835 0.950 . S
C861 C860 1.414 . S
C861 C862 1.374 . S
C862 H836 0.950 . S
C862 C858 1.385 . S
C862 C861 1.374 . S
C863 C860 1.499 . S
C863 C864 1.373 . S
C863 C865 1.389 . S
C864 H837 0.950 . S
C864 C850 1.377 . S
C864 C863 1.373 . S
C865 C849 1.377 . S
C865 C863 1.389 . S
C865 C866 1.524 1_545 S
C866 C865 1.524 1_565 S
C866 C867 1.397 . S
C866 C871 1.364 . S
C867 H838 0.950 . S
C867 C866 1.397 . S
C867 C868 1.334 . S
C868 H839 0.950 . S
C868 C867 1.334 . S
C868 C869 1.287 . S
C869 C868 1.287 . S
C869 C870 1.524 . S
C869 H872 0.999 . S
C870 H840 0.950 . S
C870 C869 1.524 . S
C870 C871 1.415 . S
C871 H841 0.949 1_565 S
C871 C866 1.364 . S
C871 C870 1.415 . S
H872 C869 0.999 . S
H873 C854 0.913 . S
H874 C892 0.951 . S
H875 C894 0.951 . S
H876 C896 0.950 . S
H877 C897 0.950 . S
H878 C899 0.950 . S
H879 C902 0.950 . S
H880 C903 0.950 . S
H881 C905 0.950 . S
H882 C906 0.950 . S
H883 C907 0.951 . S
H884 C909 0.951 . S
H885 C911 0.950 . S
H886 C912 0.950 . S
H887 C914 0.950 . S
H888 C917 0.950 . S
H889 C918 0.950 . S
H890 C920 0.950 . S
H891 C921 0.950 . S
C892 H874 0.951 . S
C892 C893 1.366 . S
C892 C894 1.388 . S
C893 C892 1.366 . S
C893 C897 1.385 . S
C894 H875 0.951 . S
C894 C892 1.388 . S
C894 C895 1.366 . S
C895 C894 1.366 . S
C895 C896 1.414 . S
C895 C898 1.499 . S
C896 H876 0.950 . S
C896 C895 1.414 . S
C896 C897 1.374 . S
C897 H877 0.950 . S
C897 C893 1.385 . S
C897 C896 1.374 . S
C898 C895 1.499 . S
C898 C899 1.373 . S
C898 C900 1.389 . S
C899 H878 0.950 . S
C899 C898 1.373 . S
C899 C915 1.377 . S
C900 C898 1.389 . S
C900 C901 1.524 . S
C900 C914 1.377 . S
C901 C900 1.524 . S
C901 C902 1.397 . S
C901 C906 1.363 . S
C902 H879 0.950 . S
C902 C901 1.397 . S
C902 C903 1.334 . S
C903 H880 0.950 . S
C903 C902 1.334 . S
C903 C904 1.287 . S
C904 C903 1.287 . S
C904 C905 1.524 . S
C904 H923 0.913 . S
C905 H881 0.950 . S
C905 C904 1.524 . S
C905 C906 1.415 . S
C906 H882 0.950 . S
C906 C901 1.363 . S
C906 C905 1.415 . S
C907 H883 0.951 . S
C907 C908 1.366 . S
C907 C909 1.388 . S
C908 C907 1.366 . S
C908 C912 1.385 . S
C909 H884 0.951 . S
C909 C907 1.388 . S
C909 C910 1.366 . S
C910 C909 1.366 . S
C910 C911 1.414 . S
C910 C913 1.499 . S
C911 H885 0.950 . S
C911 C910 1.414 . S
C911 C912 1.374 . S
C912 H886 0.950 . S
C912 C908 1.385 . S
C912 C911 1.374 . S
C913 C910 1.499 . S
C913 C914 1.373 . S
C913 C915 1.389 . S
C914 H887 0.950 . S
C914 C900 1.377 . S
C914 C913 1.373 . S
C915 C899 1.377 . S
C915 C913 1.389 . S
C915 C916 1.524 . S
C916 C915 1.524 . S
C916 C917 1.397 . S
C916 C921 1.363 . S
C917 H888 0.950 . S
C917 C916 1.397 . S
C917 C918 1.334 . S
C918 H889 0.950 . S
C918 C917 1.334 . S
C918 C919 1.287 . S
C919 C918 1.287 . S
C919 C920 1.524 . S
C919 H922 0.999 . S
C920 H890 0.950 . S
C920 C919 1.524 . S
C920 C921 1.415 . S
C921 H891 0.950 . S
C921 C916 1.363 . S
C921 C920 1.415 . S
H922 C919 0.999 . S
H923 C904 0.913 . S
H924 C942 0.951 . S
H925 C944 0.951 . S
H926 C946 0.950 . S
H927 C947 0.950 . S
H928 C949 0.950 . S
H929 C952 0.950 . S
H930 C953 0.950 . S
H931 C955 0.950 . S
H932 C956 0.950 . S
H933 C957 0.951 . S
H934 C959 0.951 . S
H935 C961 0.950 . S
H936 C962 0.950 . S
H937 C964 0.950 . S
H938 C967 0.950 . S
H939 C968 0.950 . S
H940 C970 0.950 . S
H941 C971 0.950 . S
C942 H924 0.951 . S
C942 C943 1.366 . S
C942 C944 1.388 . S
C943 C942 1.366 . S
C943 C947 1.385 1_545 S
C944 H925 0.951 . S
C944 C942 1.388 . S
C944 C945 1.366 . S
C945 C944 1.366 . S
C945 C946 1.414 1_545 S
C945 C948 1.499 . S
C946 H926 0.950 . S
C946 C945 1.414 1_565 S
C946 C947 1.374 . S
C947 H927 0.950 . S
C947 C943 1.385 1_565 S
C947 C946 1.374 . S
C948 C945 1.499 . S
C948 C949 1.373 1_545 S
C948 C950 1.389 . S
C949 H928 0.950 . S
C949 C948 1.373 1_565 S
C949 C965 1.377 . S
C950 C948 1.389 . S
C950 C951 1.524 . S
C950 C964 1.377 . S
C951 C950 1.524 . S
C951 C952 1.397 . S
C951 C956 1.363 . S
C952 H929 0.950 . S
C952 C951 1.397 . S
C952 C953 1.334 . S
C953 H930 0.950 . S
C953 C952 1.334 . S
C953 C954 1.287 . S
C954 C953 1.287 . S
C954 C955 1.524 . S
C954 H973 0.913 . S
C955 H931 0.950 . S
C955 C954 1.524 . S
C955 C956 1.415 . S
C956 H932 0.950 . S
C956 C951 1.363 . S
C956 C955 1.415 . S
C957 H933 0.951 . S
C957 C958 1.366 1_565 S
C957 C959 1.388 . S
C958 C957 1.366 1_545 S
C958 C962 1.385 . S
C959 H934 0.951 . S
C959 C957 1.388 . S
C959 C960 1.366 1_565 S
C960 C959 1.366 1_545 S
C960 C961 1.414 . S
C960 C963 1.499 . S
C961 H935 0.950 . S
C961 C960 1.414 . S
C961 C962 1.374 . S
C962 H936 0.950 . S
C962 C958 1.385 . S
C962 C961 1.374 . S
C963 C960 1.499 . S
C963 C964 1.373 . S
C963 C965 1.389 1_545 S
C964 H937 0.950 . S
C964 C950 1.377 . S
C964 C963 1.373 . S
C965 C949 1.377 . S
C965 C963 1.389 1_565 S
C965 C966 1.524 . S
C966 C965 1.524 . S
C966 C967 1.397 . S
C966 C971 1.363 . S
C967 H938 0.950 . S
C967 C966 1.397 . S
C967 C968 1.334 . S
C968 H939 0.950 . S
C968 C967 1.334 . S
C968 C969 1.287 . S
C969 C968 1.287 . S
C969 C970 1.524 . S
C969 H972 0.999 . S
C970 H940 0.950 . S
C970 C969 1.524 . S
C970 C971 1.415 . S
C971 H941 0.950 . S
C971 C966 1.363 . S
C971 C970 1.415 . S
H972 C969 0.999 . S
H973 C954 0.913 . S
H974 C992 0.951 . S
H975 C994 0.951 . S
H976 C996 0.950 . S
H977 C997 0.950 . S
H978 C999 0.950 . S
H979 C1002 0.950 . S
H980 C1003 0.950 . S
H981 C1005 0.950 . S
H982 C1006 0.950 . S
H983 C1007 0.951 . S
H984 C1009 0.951 . S
H985 C1011 0.950 . S
H986 C1012 0.950 . S
H987 C1014 0.950 . S
H988 C1017 0.950 . S
H989 C1018 0.950 . S
H990 C1020 0.950 . S
H991 C1021 0.950 . S
C992 H974 0.951 . S
C992 C993 1.366 . S
C992 C994 1.388 . S
C993 C992 1.366 . S
C993 C997 1.385 . S
C994 H975 0.951 . S
C994 C992 1.388 . S
C994 C995 1.366 . S
C995 C994 1.366 . S
C995 C996 1.414 . S
C995 C998 1.499 . S
C996 H976 0.950 . S
C996 C995 1.414 . S
C996 C997 1.374 . S
C997 H977 0.950 . S
C997 C993 1.385 . S
C997 C996 1.374 . S
C998 C995 1.499 . S
C998 C999 1.373 . S
C998 C1000 1.389 . S
C999 H978 0.950 . S
C999 C998 1.373 . S
C999 C1015 1.377 . S
C1000 C998 1.389 . S
C1000 C1001 1.524 . S
C1000 C1014 1.377 . S
C1001 C1000 1.524 . S
C1001 C1002 1.397 . S
C1001 C1006 1.363 . S
C1002 H979 0.950 . S
C1002 C1001 1.397 . S
C1002 C1003 1.334 . S
C1003 H980 0.950 . S
C1003 C1002 1.334 . S
C1003 C1004 1.287 . S
C1004 C1003 1.287 . S
C1004 C1005 1.524 . S
C1004 H1023 0.913 . S
C1005 H981 0.950 . S
C1005 C1004 1.524 . S
C1005 C1006 1.415 . S
C1006 H982 0.950 . S
C1006 C1001 1.363 . S
C1006 C1005 1.415 . S
C1007 H983 0.951 . S
C1007 C1008 1.366 . S
C1007 C1009 1.388 . S
C1008 C1007 1.366 . S
C1008 C1012 1.385 . S
C1009 H984 0.951 . S
C1009 C1007 1.388 . S
C1009 C1010 1.366 . S
C1010 C1009 1.366 . S
C1010 C1011 1.414 . S
C1010 C1013 1.499 1_554 S
C1011 H985 0.950 . S
C1011 C1010 1.414 . S
C1011 C1012 1.374 . S
C1012 H986 0.950 . S
C1012 C1008 1.385 . S
C1012 C1011 1.374 . S
C1013 C1010 1.499 1_556 S
C1013 C1014 1.373 . S
C1013 C1015 1.389 . S
C1014 H987 0.950 . S
C1014 C1000 1.377 . S
C1014 C1013 1.373 . S
C1015 C999 1.377 . S
C1015 C1013 1.389 . S
C1015 C1016 1.524 . S
C1016 C1015 1.524 . S
C1016 C1017 1.397 1_556 S
C1016 C1021 1.363 . S
C1017 H988 0.950 . S
C1017 C1016 1.397 1_554 S
C1017 C1018 1.334 . S
C1018 H989 0.950 . S
C1018 C1017 1.334 . S
C1018 C1019 1.287 . S
C1019 C1018 1.287 . S
C1019 C1020 1.524 1_554 S
C1019 H1022 0.999 . S
C1020 H990 0.950 . S
C1020 C1019 1.524 1_556 S
C1020 C1021 1.415 . S
C1021 H991 0.950 . S
C1021 C1016 1.363 . S
C1021 C1020 1.415 . S
H1022 C1019 0.999 . S
H1023 C1004 0.913 . S
H1024 C1042 0.951 . S
H1025 C1044 0.951 . S
H1026 C1046 0.950 . S
H1027 C1047 0.950 . S
H1028 C1049 0.950 1_655 S
H1029 C1052 0.950 . S
H1030 C1053 0.950 . S
H1031 C1055 0.950 . S
H1032 C1056 0.950 . S
H1033 C1057 0.951 . S
H1034 C1059 0.951 . S
H1035 C1061 0.950 . S
H1036 C1062 0.950 . S
H1037 C1064 0.950 . S
H1038 C1067 0.950 . S
H1039 C1068 0.950 . S
H1040 C1070 0.950 . S
H1041 C1071 0.950 . S
C1042 H1024 0.951 . S
C1042 C1043 1.366 . S
C1042 C1044 1.388 . S
C1043 C1042 1.366 . S
C1043 C1047 1.385 . S
C1044 H1025 0.951 . S
C1044 C1042 1.388 . S
C1044 C1045 1.366 . S
C1045 C1044 1.366 . S
C1045 C1046 1.414 . S
C1045 C1048 1.499 . S
C1046 H1026 0.950 . S
C1046 C1045 1.414 . S
C1046 C1047 1.374 . S
C1047 H1027 0.950 . S
C1047 C1043 1.385 . S
C1047 C1046 1.374 . S
C1048 C1045 1.499 . S
C1048 C1049 1.373 . S
C1048 C1050 1.389 . S
C1049 H1028 0.950 1_455 S
C1049 C1048 1.373 . S
C1049 C1065 1.377 . S
C1050 C1048 1.389 . S
C1050 C1051 1.524 . S
C1050 C1064 1.377 . S
C1051 C1050 1.524 . S
C1051 C1052 1.397 . S
C1051 C1056 1.363 . S
C1052 H1029 0.950 . S
C1052 C1051 1.397 . S
C1052 C1053 1.334 . S
C1053 H1030 0.950 . S
C1053 C1052 1.334 . S
C1053 C1054 1.287 . S
C1054 C1053 1.287 . S
C1054 C1055 1.524 . S
C1054 H1073 0.913 . S
C1055 H1031 0.950 . S
C1055 C1054 1.524 . S
C1055 C1056 1.415 . S
C1056 H1032 0.950 . S
C1056 C1051 1.363 . S
C1056 C1055 1.415 . S
C1057 H1033 0.951 . S
C1057 C1058 1.366 . S
C1057 C1059 1.388 . S
C1058 C1057 1.366 . S
C1058 C1062 1.385 . S
C1059 H1034 0.951 . S
C1059 C1057 1.388 . S
C1059 C1060 1.366 . S
C1060 C1059 1.366 . S
C1060 C1061 1.414 . S
C1060 C1063 1.499 . S
C1061 H1035 0.950 . S
C1061 C1060 1.414 . S
C1061 C1062 1.374 . S
C1062 H1036 0.950 . S
C1062 C1058 1.385 . S
C1062 C1061 1.374 . S
C1063 C1060 1.499 . S
C1063 C1064 1.373 . S
C1063 C1065 1.389 . S
C1064 H1037 0.950 . S
C1064 C1050 1.377 . S
C1064 C1063 1.373 . S
C1065 C1049 1.377 . S
C1065 C1063 1.389 . S
C1065 C1066 1.524 1_455 S
C1066 C1065 1.524 1_655 S
C1066 C1067 1.397 . S
C1066 C1071 1.363 . S
C1067 H1038 0.950 . S
C1067 C1066 1.397 . S
C1067 C1068 1.334 . S
C1068 H1039 0.950 . S
C1068 C1067 1.334 . S
C1068 C1069 1.287 . S
C1069 C1068 1.287 . S
C1069 C1070 1.524 . S
C1069 H1072 0.999 . S
C1070 H1040 0.950 . S
C1070 C1069 1.524 . S
C1070 C1071 1.415 . S
C1071 H1041 0.950 . S
C1071 C1066 1.363 . S
C1071 C1070 1.415 . S
H1072 C1069 0.999 . S
H1073 C1054 0.913 . S
C193 C19 2.810 . S
C208 C169 2.823 . S
C243 C49 2.921 . S
C258 C151 2.894 1_655 S
C293 C99 2.791 . S
C308 C163 2.796 . S
C343 C9 2.903 . S
C358 C172 2.868 . S
C408 C154 2.796 . S
C393 C59 2.791 . S
C458 C160 2.894 . S
C443 C89 2.921 . S
C493 C55 0.340 . S
C508 C133 0.304 . S
C543 C85 0.424 . S
C558 C142 0.277 . S
C593 C15 0.339 . S
C608 C124 0.300 . S
C658 C136 0.260 . S
C643 C45 0.419 . S
C708 C145 0.299 . S
C693 C95 0.324 . S
C743 C5 0.420 . S
C758 C127 0.260 . S
C808 C143 1.068 . S
C793 C18 1.046 . S
C843 C58 1.047 . S
C858 C125 1.070 . S
C893 C98 1.047 . S
C908 C134 1.070 . S
C958 C161 1.796 . S
C943 C48 1.710 . S
C1008 C170 1.797 . S
C993 C88 1.711 . S
C1043 C8 1.710 . S
C1058 C152 1.797 . S
