# Generated by pormake.
# Topology anh, (6,3)-cn, num edge types: 1
# Building blocks:
#     Node 0, Type 0, BuildingBlock: VOLQOD_clean_sbu_1, # of connection points: 6
#     Node 1, Type 0, BuildingBlock: VOLQOD_clean_sbu_1, # of connection points: 6
#     Node 2, Type 0, BuildingBlock: VOLQOD_clean_sbu_1, # of connection points: 6
#     Node 3, Type 1, BuildingBlock: QEWDON_clean_linker_0, # of connection points: 3
#     Node 4, Type 1, BuildingBlock: QEWDON_clean_linker_0, # of connection points: 3
#     Node 5, Type 1, BuildingBlock: QEWDON_clean_linker_0, # of connection points: 3
#     Node 6, Type 1, BuildingBlock: QEWDON_clean_linker_0, # of connection points: 3
#     Node 7, Type 1, BuildingBlock: QEWDON_clean_linker_0, # of connection points: 3
#     Node 8, Type 1, BuildingBlock: QEWDON_clean_linker_0, # of connection points: 3
#     Edge 9, Type (0, 1), BuildingBlock: AJUNOK_clean_linker_0, # of connection points: 2
#     Edge 10, Type (0, 1), BuildingBlock: AJUNOK_clean_linker_0, # of connection points: 2
#     Edge 11, Type (0, 1), BuildingBlock: AJUNOK_clean_linker_0, # of connection points: 2
#     Edge 12, Type (0, 1), BuildingBlock: AJUNOK_clean_linker_0, # of connection points: 2
#     Edge 13, Type (0, 1), BuildingBlock: AJUNOK_clean_linker_0, # of connection points: 2
#     Edge 14, Type (0, 1), BuildingBlock: AJUNOK_clean_linker_0, # of connection points: 2
#     Edge 15, Type (0, 1), BuildingBlock: AJUNOK_clean_linker_0, # of connection points: 2
#     Edge 16, Type (0, 1), BuildingBlock: AJUNOK_clean_linker_0, # of connection points: 2
#     Edge 17, Type (0, 1), BuildingBlock: AJUNOK_clean_linker_0, # of connection points: 2
#     Edge 18, Type (0, 1), BuildingBlock: AJUNOK_clean_linker_0, # of connection points: 2
#     Edge 19, Type (0, 1), BuildingBlock: AJUNOK_clean_linker_0, # of connection points: 2
#     Edge 20, Type (0, 1), BuildingBlock: AJUNOK_clean_linker_0, # of connection points: 2
#     Edge 21, Type (0, 1), BuildingBlock: AJUNOK_clean_linker_0, # of connection points: 2
#     Edge 22, Type (0, 1), BuildingBlock: AJUNOK_clean_linker_0, # of connection points: 2
#     Edge 23, Type (0, 1), BuildingBlock: AJUNOK_clean_linker_0, # of connection points: 2
#     Edge 24, Type (0, 1), BuildingBlock: AJUNOK_clean_linker_0, # of connection points: 2
#     Edge 25, Type (0, 1), BuildingBlock: AJUNOK_clean_linker_0, # of connection points: 2
#     Edge 26, Type (0, 1), BuildingBlock: AJUNOK_clean_linker_0, # of connection points: 2
# Relax obj value: 0.175
# Max RMSD: 0.225
# Mean RMSD: 0.172
data_MOF--net-anh--node1-VOLQOD_clean_sbu_1--node2-QEWDON_clean_linker_0--edge1-AJUNOK_clean_linker_0
_symmetry_space_group_name_H-M    P1
_symmetry_Int_Tables_number       1
_symmetry_cell_setting            triclinic
loop_
_symmetry_equiv_pos_as_xyz
'x, y, z'
_cell_length_a     23.792626
_cell_length_b     23.444088
_cell_length_c     41.440296
_cell_angle_alpha  94.320038
_cell_angle_beta   94.44298
_cell_angle_gamma 120.79285
loop_
_atom_site_label
_atom_site_type_symbol
_atom_site_fract_x
_atom_site_fract_y
_atom_site_fract_z
_atom_type_partial_charge
O0 O 0.02417 0.58859 0.23234 0.0
Zn1 Zn 0.02967 0.60326 0.18525 0.0
O2 O 0.03988 0.53488 0.16105 0.0
Zn3 Zn 0.96563 0.47926 0.12779 0.0
Zn4 Zn 0.04917 0.47839 0.19112 0.0
Zn5 Zn 0.11502 0.57862 0.13777 0.0
O6 O 0.98858 0.48354 0.08189 0.0
O7 O 0.09118 0.56998 0.08905 0.0
O8 O 0.94681 0.60071 0.16648 0.0
O9 O 0.90389 0.51225 0.12848 0.0
O10 O 0.91322 0.38531 0.13771 0.0
O11 O 0.96531 0.38598 0.1847 0.0
O12 O 0.13196 0.47473 0.18502 0.0
O13 O 0.11159 0.69534 0.18715 0.0
O14 O 0.16996 0.53906 0.14567 0.0
O15 O 0.17274 0.67549 0.15589 0.0
C16 C 0.03939 0.55536 0.25025 0.0
C17 C 0.03925 0.52629 0.07018 0.0
C18 C 0.91644 0.35639 0.16196 0.0
C19 C 0.90078 0.55913 0.14402 0.0
C20 C 0.17392 0.50137 0.1651 0.0
C21 C 0.16538 0.71536 0.17515 0.0
O22 O 0.05533 0.5149 0.23803 0.0
O23 O 0.51003 0.08396 0.43655 0.0
Zn24 Zn 0.49318 0.07737 0.48319 0.0
O25 O 0.55805 0.0658 0.50844 0.0
Zn26 Zn 0.61088 0.13859 0.54328 0.0
Zn27 Zn 0.61515 0.05716 0.47939 0.0
Zn28 Zn 0.51212 0.98914 0.53064 0.0
O29 O 0.60841 0.11055 0.5884 0.0
O30 O 0.51461 0.01242 0.57864 0.0
O31 O 0.49471 0.15955 0.50278 0.0
O32 O 0.57389 0.19782 0.54531 0.0
O33 O 0.70283 0.1958 0.53296 0.0
O34 O 0.70455 0.14416 0.48614 0.0
O35 O 0.62219 0.97598 0.48793 0.0
O36 O 0.40172 0.99517 0.47991 0.0
O37 O 0.55465 0.93633 0.52564 0.0
O38 O 0.41819 0.93012 0.51039 0.0
C39 C 0.5404 0.06467 0.419 0.0
C40 C 0.56041 0.061 0.59861 0.0
C41 C 0.73213 0.19386 0.50883 0.0
C42 C 0.52946 0.20126 0.52808 0.0
C43 C 0.59522 0.9341 0.5081 0.0
C44 C 0.38046 0.9395 0.49101 0.0
O45 O 0.57883 0.04713 0.43182 0.0
O46 O 0.48885 0.52442 0.76261 0.0
Zn47 Zn 0.46494 0.49014 0.80562 0.0
O48 O 0.53371 0.55181 0.84097 0.0
Zn49 Zn 0.50381 0.59792 0.86877 0.0
Zn50 Zn 0.61161 0.61797 0.82281 0.0
Zn51 Zn 0.55291 0.49893 0.86834 0.0
O52 O 0.52041 0.59256 0.91688 0.0
O53 O 0.5327 0.50498 0.91424 0.0
O54 O 0.37667 0.48006 0.81267 0.0
O55 O 0.40726 0.55497 0.85674 0.0
O56 O 0.54469 0.69433 0.86114 0.0
O57 O 0.62505 0.71132 0.83193 0.0
O58 O 0.69322 0.61759 0.84145 0.0
O59 O 0.46122 0.40101 0.80085 0.0
O60 O 0.64901 0.53621 0.87253 0.0
O61 O 0.51389 0.40351 0.84803 0.0
C62 C 0.54448 0.56204 0.75309 0.0
C63 C 0.52652 0.54901 0.93079 0.0
C64 C 0.59276 0.73279 0.84651 0.0
C65 C 0.36296 0.5105 0.83463 0.0
C66 C 0.69883 0.58094 0.86118 0.0
C67 C 0.48226 0.37367 0.8199 0.0
O68 O 0.59725 0.59626 0.77335 0.0
H69 H 0.57457 0.1223 0.26837 0.0
C70 C 0.52904 0.0774 0.25728 0.0
C71 C 0.48719 0.03172 0.2771 0.0
C72 C 0.5097 0.06727 0.22338 0.0
H73 H 0.39612 0.93838 0.27775 0.0
C74 C 0.42745 0.97458 0.26259 0.0
C75 C 0.40771 0.9639 0.22884 0.0
C76 C 0.44929 0.01024 0.20942 0.0
C77 C 0.54846 0.11859 0.20248 0.0
H78 H 0.43392 0.00266 0.18334 0.0
C79 C 0.61556 0.1415 0.20069 0.0
C80 C 0.64923 0.18641 0.17855 0.0
C81 C 0.51646 0.14288 0.18295 0.0
H82 H 0.46511 0.12644 0.18416 0.0
C83 C 0.55022 0.18861 0.16174 0.0
H84 H 0.64066 0.12295 0.21555 0.0
C85 C 0.61604 0.21014 0.15945 0.0
H86 H 0.64138 0.24611 0.14292 0.0
H87 H 0.52523 0.20728 0.14695 0.0
H88 H 0.51967 0.59886 0.59689 0.0
C89 C 0.5211 0.55441 0.58929 0.0
C90 C 0.53493 0.52166 0.61291 0.0
C91 C 0.50823 0.52905 0.55593 0.0
H92 H 0.54746 0.439 0.62118 0.0
C93 C 0.53606 0.46374 0.60297 0.0
C94 C 0.52148 0.43708 0.56987 0.0
C95 C 0.508 0.47025 0.5466 0.0
C96 C 0.49472 0.56287 0.53033 0.0
H97 H 0.49731 0.45018 0.52096 0.0
C98 C 0.53592 0.63218 0.53018 0.0
C99 C 0.52475 0.66372 0.50499 0.0
C100 C 0.4421 0.52512 0.50495 0.0
H101 H 0.40933 0.47167 0.50459 0.0
C102 C 0.43085 0.55603 0.47993 0.0
H103 H 0.57694 0.66146 0.5495 0.0
C104 C 0.47158 0.62487 0.47996 0.0
H105 H 0.45992 0.64795 0.46098 0.0
H106 H 0.38981 0.52667 0.46068 0.0
H107 H 0.09576 0.56964 0.91744 0.0
C108 C 0.053 0.57369 0.91116 0.0
C109 C 0.01129 0.56618 0.93482 0.0
C110 C 0.03881 0.58547 0.87948 0.0
H111 H 0.92596 0.5696 0.94571 0.0
C112 C 0.95724 0.57372 0.92722 0.0
C113 C 0.94281 0.58598 0.89601 0.0
C114 C 0.98299 0.59059 0.87219 0.0
C115 C 0.08094 0.59149 0.85361 0.0
H116 H 0.96928 0.59598 0.84756 0.0
C117 C 0.11058 0.55278 0.85157 0.0
C118 C 0.15172 0.55984 0.82762 0.0
C119 C 0.09182 0.63631 0.83068 0.0
H120 H 0.07109 0.66803 0.83182 0.0
C121 C 0.13097 0.64204 0.80632 0.0
H122 H 0.10235 0.51753 0.86876 0.0
C123 C 0.16123 0.60456 0.8049 0.0
H124 H 0.19441 0.61292 0.78691 0.0
H125 H 0.13942 0.67712 0.78904 0.0
H126 H 0.97072 0.53135 0.40051 0.0
C127 C 0.01554 0.57749 0.41112 0.0
C128 C 0.06237 0.61621 0.39104 0.0
C129 C 0.02489 0.60058 0.44456 0.0
H130 H 0.15608 0.70594 0.38944 0.0
C131 C 0.11927 0.67695 0.40479 0.0
C132 C 0.12945 0.70007 0.43814 0.0
C133 C 0.08216 0.66154 0.45784 0.0
C134 C 0.97345 0.56451 0.46561 0.0
H135 H 0.08952 0.67951 0.48361 0.0
C136 C 0.94831 0.49635 0.46851 0.0
C137 C 0.90322 0.46502 0.49072 0.0
C138 C 0.95132 0.60002 0.48416 0.0
H139 H 0.96952 0.65228 0.48209 0.0
C140 C 0.90545 0.5686 0.50546 0.0
H141 H 0.96527 0.46859 0.45444 0.0
C142 C 0.88162 0.50166 0.50882 0.0
H143 H 0.84557 0.47815 0.52537 0.0
H144 H 0.88842 0.59627 0.51949 0.0
H145 H 0.60012 0.04733 0.7544 0.0
C146 C 0.57874 0.0768 0.76153 0.0
C147 C 0.54711 0.09335 0.73736 0.0
C148 C 0.58523 0.10023 0.79462 0.0
H149 H 0.49491 0.14367 0.72739 0.0
C150 C 0.52051 0.13258 0.74632 0.0
C151 C 0.53003 0.1605 0.77899 0.0
C152 C 0.56163 0.14295 0.80311 0.0
C153 C 0.62126 0.08405 0.81979 0.0
H154 H 0.56934 0.16375 0.82842 0.0
C155 C 0.60947 0.01845 0.81921 0.0
C156 C 0.64654 0.00431 0.84185 0.0
C157 C 0.6699 0.1349 0.84374 0.0
H158 H 0.68076 0.1859 0.84459 0.0
C159 C 0.70645 0.12092 0.86629 0.0
H160 H 0.57183 0.97851 0.80106 0.0
C161 C 0.69513 0.05617 0.86533 0.0
H162 H 0.72379 0.04636 0.88319 0.0
H163 H 0.744 0.16055 0.88452 0.0
H164 H 0.51013 0.58357 0.09017 0.0
C165 C 0.55484 0.5829 0.09645 0.0
C166 C 0.58749 0.57419 0.07142 0.0
C167 C 0.57965 0.59015 0.12953 0.0
H168 H 0.67116 0.56737 0.0605 0.0
C169 C 0.64529 0.57334 0.07967 0.0
C170 C 0.67009 0.57992 0.11236 0.0
C171 C 0.63753 0.58882 0.13715 0.0
C172 C 0.54499 0.59775 0.15631 0.0
H173 H 0.65606 0.5922 0.16239 0.0
C174 C 0.47573 0.5592 0.15387 0.0
C175 C 0.44264 0.56723 0.17893 0.0
C176 C 0.58118 0.64347 0.18465 0.0
H177 H 0.63453 0.67436 0.18717 0.0
C178 C 0.54883 0.65096 0.20979 0.0
H179 H 0.44745 0.52302 0.13237 0.0
C180 C 0.48006 0.61368 0.2069 0.0
H181 H 0.45629 0.62321 0.22605 0.0
H182 H 0.57711 0.68696 0.2313 0.0
C183 C 0.27159 0.51612 0.14053 0.0
C184 C 0.23471 0.49832 0.16693 0.0
C185 C 0.33761 0.53388 0.14408 0.0
C186 C 0.36945 0.53386 0.1741 0.0
H187 H 0.25075 0.52104 0.11747 0.0
H188 H 0.36495 0.55238 0.12374 0.0
S189 S 0.29082 0.47642 0.24858 0.0
N190 N 0.23185 0.47177 0.22263 0.0
N191 N 0.35591 0.50298 0.22899 0.0
C192 C 0.33123 0.50915 0.19965 0.0
C193 C 0.26375 0.49151 0.1961 0.0
C194 C 0.79955 0.27614 0.47229 0.0
C195 C 0.79183 0.25712 0.50388 0.0
C196 C 0.84082 0.34345 0.4678 0.0
C197 C 0.87579 0.39356 0.49474 0.0
H198 H 0.76894 0.24016 0.4511 0.0
H199 H 0.84096 0.357 0.44336 0.0
S200 S 0.88509 0.36733 0.58163 0.0
N201 N 0.83164 0.29197 0.56191 0.0
N202 N 0.90968 0.41803 0.5534 0.0
C203 C 0.87444 0.37392 0.52602 0.0
C204 C 0.83237 0.30573 0.53061 0.0
C205 C 0.55857 0.81778 0.84785 0.0
C206 C 0.60833 0.80257 0.84498 0.0
C207 C 0.57088 0.88265 0.84595 0.0
C208 C 0.63373 0.93522 0.8417 0.0
H209 H 0.50933 0.77906 0.8513 0.0
H210 H 0.53124 0.89206 0.84846 0.0
S211 S 0.78105 0.92275 0.83261 0.0
N212 N 0.7229 0.846 0.83713 0.0
N213 N 0.74617 0.96815 0.83427 0.0
C214 C 0.68395 0.92101 0.83876 0.0
C215 C 0.6712 0.85468 0.84017 0.0
C216 C 0.83909 0.61926 0.14947 0.0
C217 C 0.84149 0.56375 0.13589 0.0
C218 C 0.78333 0.62418 0.14196 0.0
C219 C 0.72828 0.57397 0.1205 0.0
H220 H 0.88063 0.65943 0.1659 0.0
H221 H 0.78354 0.66791 0.15268 0.0
S222 S 0.70663 0.41612 0.08026 0.0
N223 N 0.78146 0.45569 0.10101 0.0
N224 N 0.67743 0.46564 0.0872 0.0
C225 C 0.72936 0.51785 0.10717 0.0
C226 C 0.78575 0.51255 0.11478 0.0
C227 C 0.28804 0.8229 0.49369 0.0
C228 C 0.31277 0.88213 0.47907 0.0
C229 C 0.228 0.76497 0.48076 0.0
C230 C 0.19025 0.76373 0.45262 0.0
H231 H 0.316 0.82051 0.5149 0.0
H232 H 0.21209 0.72012 0.4923 0.0
S233 S 0.22912 0.90638 0.40651 0.0
N234 N 0.29219 0.9367 0.4358 0.0
N235 N 0.17884 0.82769 0.41184 0.0
C236 C 0.21277 0.82306 0.43843 0.0
C237 C 0.274 0.8823 0.45161 0.0
C238 C 0.47238 0.26342 0.82653 0.0
C239 C 0.48349 0.31371 0.80693 0.0
C240 C 0.48506 0.21271 0.8168 0.0
C241 C 0.51132 0.21143 0.78755 0.0
H242 H 0.455 0.26409 0.84988 0.0
H243 H 0.47537 0.17496 0.8327 0.0
S244 S 0.55435 0.33608 0.72898 0.0
N245 N 0.52299 0.36016 0.75731 0.0
N246 N 0.55115 0.26842 0.74001 0.0
C247 C 0.52269 0.26195 0.7678 0.0
C248 C 0.50778 0.31214 0.77725 0.0
C249 C 0.59058 0.84399 0.53729 0.0
C250 C 0.60152 0.87478 0.50866 0.0
C251 C 0.57135 0.77671 0.53641 0.0
C252 C 0.56276 0.73783 0.50687 0.0
H253 H 0.59114 0.87039 0.56006 0.0
H254 H 0.55756 0.75382 0.55849 0.0
S255 S 0.6019 0.79945 0.42686 0.0
N256 N 0.61411 0.86502 0.45122 0.0
N257 N 0.57973 0.73842 0.44969 0.0
C258 C 0.58182 0.77029 0.47894 0.0
C259 C 0.60116 0.83903 0.47983 0.0
C260 C 0.76409 0.53724 0.88758 0.0
C261 C 0.76305 0.58642 0.87036 0.0
C262 C 0.82246 0.53821 0.89596 0.0
C263 C 0.88257 0.58848 0.88764 0.0
H264 H 0.71917 0.49657 0.89435 0.0
H265 H 0.82017 0.49831 0.90853 0.0
S266 S 0.90856 0.73121 0.84428 0.0
N267 N 0.82836 0.68831 0.84616 0.0
N268 N 0.93888 0.6905 0.86247 0.0
C269 C 0.88299 0.63871 0.87089 0.0
C270 C 0.82313 0.63766 0.86216 0.0
C271 C 0.28281 0.80453 0.17315 0.0
C272 C 0.22365 0.78345 0.18665 0.0
C273 C 0.34152 0.86369 0.18643 0.0
C274 C 0.34369 0.90425 0.21381 0.0
H275 H 0.28455 0.77409 0.15271 0.0
H276 H 0.38612 0.87653 0.17584 0.0
S277 S 0.20189 0.87666 0.25632 0.0
N278 N 0.17037 0.81142 0.22766 0.0
N279 N 0.28084 0.92304 0.25225 0.0
C280 C 0.28456 0.88581 0.22666 0.0
C281 C 0.22454 0.82549 0.21313 0.0
C282 C 0.55125 0.31403 0.52092 0.0
C283 C 0.52119 0.25755 0.5372 0.0
C284 C 0.55126 0.37194 0.53179 0.0
C285 C 0.52065 0.37489 0.55913 0.0
H286 H 0.57662 0.31409 0.50028 0.0
H287 H 0.57658 0.41517 0.51905 0.0
S288 S 0.43224 0.23743 0.60886 0.0
N289 N 0.45953 0.20637 0.58131 0.0
N290 N 0.4565 0.31423 0.60112 0.0
C291 C 0.48916 0.31768 0.57515 0.0
C292 C 0.49013 0.25914 0.56429 0.0
C293 C 0.27886 0.52196 0.86126 0.0
C294 C 0.2969 0.50231 0.83285 0.0
C295 C 0.22778 0.53504 0.85953 0.0
C296 C 0.1925 0.52869 0.82933 0.0
H297 H 0.30757 0.53211 0.88485 0.0
H298 H 0.21964 0.55542 0.88181 0.0
S299 S 0.21015 0.46395 0.74866 0.0
N300 N 0.26855 0.46664 0.77423 0.0
N301 N 0.17103 0.48992 0.77108 0.0
C302 C 0.20501 0.50185 0.80116 0.0
C303 C 0.25741 0.48864 0.80292 0.0
C304 C 0.83507 0.28902 0.19855 0.0
C305 C 0.85478 0.29529 0.16714 0.0
C306 C 0.76836 0.24793 0.20266 0.0
C307 C 0.71965 0.21165 0.17552 0.0
H308 H 0.86997 0.3211 0.21973 0.0
H309 H 0.75423 0.24936 0.22681 0.0
S310 S 0.74808 0.19786 0.08934 0.0
N311 N 0.82204 0.25231 0.10935 0.0
N312 N 0.69716 0.17457 0.11715 0.0
C313 C 0.74001 0.21108 0.14462 0.0
C314 C 0.80755 0.25298 0.14041 0.0
C315 C 0.08712 0.58341 0.02166 0.0
C316 C 0.0354 0.52956 0.03435 0.0
C317 C 0.08073 0.59313 0.98884 0.0
C318 C 0.02237 0.5495 0.96759 0.0
H319 H 0.13195 0.62007 0.03745 0.0
H320 H 0.12036 0.63684 0.98048 0.0
S321 S 0.87614 0.39582 0.98672 0.0
N322 N 0.92647 0.42799 0.02151 0.0
N323 N 0.9149 0.44694 0.96015 0.0
C324 C 0.97205 0.49337 0.97926 0.0
C325 C 0.97845 0.48318 0.01253 0.0
C326 C 0.57355 0.05946 0.3631 0.0
C327 C 0.52803 0.05973 0.38288 0.0
C328 C 0.56137 0.05269 0.32885 0.0
C329 C 0.50278 0.04485 0.31322 0.0
H330 H 0.61884 0.06432 0.37413 0.0
H331 H 0.5971 0.05173 0.31448 0.0
S332 S 0.36814 0.04334 0.35338 0.0
N333 N 0.42231 0.05257 0.38385 0.0
N334 N 0.3999 0.03985 0.31981 0.0
C335 C 0.45745 0.04605 0.33262 0.0
C336 C 0.46993 0.05348 0.36735 0.0
C337 C 0.49196 0.54942 0.69626 0.0
C338 C 0.54748 0.56213 0.71749 0.0
C339 C 0.49013 0.541 0.66225 0.0
C340 C 0.54329 0.54385 0.64827 0.0
H341 H 0.44884 0.54422 0.70601 0.0
H342 H 0.44548 0.52869 0.64681 0.0
S343 S 0.70136 0.57912 0.69268 0.0
N344 N 0.65836 0.58068 0.72182 0.0
N345 N 0.65408 0.56339 0.65785 0.0
C346 C 0.59998 0.55895 0.66907 0.0
C347 C 0.60235 0.56859 0.7037 0.0
C348 C 0.61346 0.09885 0.65684 0.0
C349 C 0.55577 0.06234 0.63409 0.0
C350 C 0.61011 0.10563 0.69043 0.0
C351 C 0.54897 0.07719 0.70241 0.0
H352 H 0.66158 0.12322 0.64861 0.0
H353 H 0.65563 0.1356 0.70707 0.0
S354 S 0.38356 0.97559 0.65354 0.0
N355 N 0.43552 0.99547 0.62627 0.0
N356 N 0.42975 0.00986 0.68943 0.0
C357 C 0.49103 0.0395 0.68016 0.0
C358 C 0.49431 0.03154 0.64599 0.0
C359 C 0.53985 0.50388 0.98177 0.0
C360 C 0.53234 0.55227 0.96704 0.0
C361 C 0.55441 0.50985 0.01566 0.0
C362 C 0.56176 0.56419 0.03637 0.0
H363 H 0.53674 0.46197 0.96701 0.0
H364 H 0.56195 0.47254 0.0257 0.0
S365 S 0.54162 0.70165 0.01104 0.0
N366 N 0.52886 0.65428 0.97645 0.0
N367 N 0.55658 0.66517 0.04028 0.0
C368 C 0.55092 0.61105 0.02239 0.0
C369 C 0.53618 0.60518 0.98771 0.0
C370 C 0.04819 0.62705 0.3004 0.0
C371 C 0.04142 0.56701 0.28616 0.0
C372 C 0.05347 0.64158 0.33426 0.0
C373 C 0.0513 0.59636 0.35526 0.0
H374 H 0.05107 0.6641 0.28538 0.0
H375 H 0.05996 0.68903 0.34415 0.0
S376 S 0.03103 0.43094 0.3307 0.0
N377 N 0.03063 0.46089 0.2959 0.0
N378 N 0.04003 0.48844 0.35971 0.0
C379 C 0.04272 0.53539 0.34151 0.0
C380 C 0.0381 0.52075 0.30693 0.0
loop_
_geom_bond_atom_site_label_1
_geom_bond_atom_site_label_2
_geom_bond_distance
_geom_bond_site_symmetry_2
_ccdc_geom_bond_type
O0 Zn1 1.953 . S
O0 C16 1.225 . S
Zn1 O0 1.953 . S
Zn1 O2 1.949 . S
Zn1 O8 1.919 1_455 S
Zn1 O13 1.924 . S
O2 Zn1 1.949 . S
O2 Zn3 1.923 1_455 S
O2 Zn4 1.950 . S
O2 Zn5 1.945 . S
Zn3 O2 1.923 1_655 S
Zn3 O6 1.933 . S
Zn3 O9 1.941 . S
Zn3 O10 1.965 . S
Zn4 O2 1.950 . S
Zn4 O11 1.938 1_455 S
Zn4 O12 1.906 . S
Zn4 O22 1.953 . S
Zn5 O2 1.945 . S
Zn5 O7 1.932 . S
Zn5 O14 1.977 . S
Zn5 O15 1.910 . S
O6 Zn3 1.933 . S
O6 C17 1.226 1_655 S
O7 Zn5 1.932 . S
O7 C17 1.307 . S
O8 Zn1 1.919 1_655 S
O8 C19 1.253 . S
O9 Zn3 1.941 . S
O9 C19 1.283 . S
O10 Zn3 1.965 . S
O10 C18 1.303 . S
O11 Zn4 1.938 1_655 S
O11 C18 1.247 . S
O12 Zn4 1.906 . S
O12 C20 1.304 . S
O13 Zn1 1.924 . S
O13 C21 1.311 . S
O14 Zn5 1.977 . S
O14 C20 1.272 . S
O15 Zn5 1.910 . S
O15 C21 1.231 . S
C16 O0 1.225 . S
C16 O22 1.298 . S
C17 O6 1.226 1_455 S
C17 O7 1.307 . S
C18 O10 1.303 . S
C18 O11 1.247 . S
C19 O8 1.253 . S
C19 O9 1.283 . S
C20 O12 1.304 . S
C20 O14 1.272 . S
C21 O13 1.311 . S
C21 O15 1.231 . S
O22 Zn4 1.953 . S
O22 C16 1.298 . S
O23 Zn24 1.953 . S
O23 C39 1.225 . S
Zn24 O23 1.953 . S
Zn24 O25 1.949 . S
Zn24 O31 1.919 . S
Zn24 O36 1.918 1_545 S
O25 Zn24 1.949 . S
O25 Zn26 1.923 . S
O25 Zn27 1.950 . S
O25 Zn28 1.945 1_545 S
Zn26 O25 1.923 . S
Zn26 O29 1.933 . S
Zn26 O32 1.941 . S
Zn26 O33 1.965 . S
Zn27 O25 1.950 . S
Zn27 O34 1.938 . S
Zn27 O35 1.906 1_545 S
Zn27 O45 1.953 . S
Zn28 O25 1.945 1_565 S
Zn28 O30 1.932 1_565 S
Zn28 O37 1.977 . S
Zn28 O38 1.910 . S
O29 Zn26 1.933 . S
O29 C40 1.226 . S
O30 Zn28 1.932 1_545 S
O30 C40 1.307 . S
O31 Zn24 1.919 . S
O31 C42 1.253 . S
O32 Zn26 1.941 . S
O32 C42 1.283 . S
O33 Zn26 1.965 . S
O33 C41 1.303 . S
O34 Zn27 1.938 . S
O34 C41 1.247 . S
O35 Zn27 1.906 1_565 S
O35 C43 1.304 . S
O36 Zn24 1.918 1_565 S
O36 C44 1.325 . S
O37 Zn28 1.977 . S
O37 C43 1.272 . S
O38 Zn28 1.910 . S
O38 C44 1.231 . S
C39 O23 1.225 . S
C39 O45 1.298 . S
C40 O29 1.226 . S
C40 O30 1.307 . S
C41 O33 1.303 . S
C41 O34 1.247 . S
C42 O31 1.253 . S
C42 O32 1.283 . S
C43 O35 1.304 . S
C43 O37 1.272 . S
C44 O36 1.325 . S
C44 O38 1.231 . S
O45 Zn27 1.953 . S
O45 C39 1.298 . S
O46 Zn47 1.953 . S
O46 C62 1.225 . S
Zn47 O46 1.953 . S
Zn47 O48 1.949 . S
Zn47 O54 1.919 . S
Zn47 O59 1.924 . S
O48 Zn47 1.949 . S
O48 Zn49 1.923 . S
O48 Zn50 1.950 . S
O48 Zn51 1.945 . S
Zn49 O48 1.923 . S
Zn49 O52 1.933 . S
Zn49 O55 1.941 . S
Zn49 O56 1.965 . S
Zn50 O48 1.950 . S
Zn50 O57 1.938 . S
Zn50 O58 1.906 . S
Zn50 O68 1.953 . S
Zn51 O48 1.945 . S
Zn51 O53 1.932 . S
Zn51 O60 1.977 . S
Zn51 O61 1.910 . S
O52 Zn49 1.933 . S
O52 C63 1.226 . S
O53 Zn51 1.932 . S
O53 C63 1.307 . S
O54 Zn47 1.919 . S
O54 C65 1.253 . S
O55 Zn49 1.941 . S
O55 C65 1.283 . S
O56 Zn49 1.965 . S
O56 C64 1.303 . S
O57 Zn50 1.938 . S
O57 C64 1.247 . S
O58 Zn50 1.906 . S
O58 C66 1.304 . S
O59 Zn47 1.924 . S
O59 C67 1.311 . S
O60 Zn51 1.977 . S
O60 C66 1.272 . S
O61 Zn51 1.910 . S
O61 C67 1.231 . S
C62 O46 1.225 . S
C62 O68 1.298 . S
C63 O52 1.226 . S
C63 O53 1.307 . S
C64 O56 1.303 . S
C64 O57 1.247 . S
C65 O54 1.253 . S
C65 O55 1.283 . S
C66 O58 1.304 . S
C66 O60 1.272 . S
C67 O59 1.311 . S
C67 O61 1.231 . S
O68 Zn50 1.953 . S
O68 C62 1.298 . S
H69 C70 0.949 . S
C70 H69 0.949 . S
C70 C71 1.395 . S
C70 C72 1.391 . S
C71 C70 1.395 . S
C71 C74 1.390 1_545 S
C72 C70 1.391 . S
C72 C76 1.387 . S
C72 C77 1.491 . S
H73 C74 0.950 . S
C74 C71 1.390 1_565 S
C74 H73 0.950 . S
C74 C75 1.378 . S
C75 C74 1.378 . S
C75 C76 1.409 1_565 S
C76 C72 1.387 . S
C76 C75 1.409 1_545 S
C76 H78 0.951 . S
C77 C72 1.491 . S
C77 C79 1.382 . S
C77 C81 1.404 . S
H78 C76 0.951 . S
C79 C77 1.382 . S
C79 C80 1.390 . S
C79 H84 0.949 . S
C80 C79 1.390 . S
C80 C85 1.399 . S
C81 C77 1.404 . S
C81 H82 0.950 . S
C81 C83 1.375 . S
H82 C81 0.950 . S
C83 C81 1.375 . S
C83 C85 1.382 . S
C83 H87 0.950 . S
H84 C79 0.949 . S
C85 C80 1.399 . S
C85 C83 1.382 . S
C85 H86 0.952 . S
H86 C85 0.952 . S
H87 C83 0.950 . S
H88 C89 0.949 . S
C89 H88 0.949 . S
C89 C90 1.395 . S
C89 C91 1.391 . S
C90 C89 1.395 . S
C90 C93 1.390 . S
C91 C89 1.391 . S
C91 C95 1.387 . S
C91 C96 1.491 . S
H92 C93 0.950 . S
C93 C90 1.390 . S
C93 H92 0.950 . S
C93 C94 1.378 . S
C94 C93 1.378 . S
C94 C95 1.409 . S
C95 C91 1.387 . S
C95 C94 1.409 . S
C95 H97 0.951 . S
C96 C91 1.491 . S
C96 C98 1.382 . S
C96 C100 1.404 . S
H97 C95 0.951 . S
C98 C96 1.382 . S
C98 C99 1.390 . S
C98 H103 0.949 . S
C99 C98 1.390 . S
C99 C104 1.399 . S
C100 C96 1.404 . S
C100 H101 0.950 . S
C100 C102 1.375 . S
H101 C100 0.950 . S
C102 C100 1.375 . S
C102 C104 1.382 . S
C102 H106 0.950 . S
H103 C98 0.949 . S
C104 C99 1.399 . S
C104 C102 1.382 . S
C104 H105 0.952 . S
H105 C104 0.952 . S
H106 C102 0.950 . S
H107 C108 0.949 . S
C108 H107 0.949 . S
C108 C109 1.395 . S
C108 C110 1.391 . S
C109 C108 1.395 . S
C109 C112 1.390 1_455 S
C110 C108 1.391 . S
C110 C114 1.387 . S
C110 C115 1.491 . S
H111 C112 0.950 . S
C112 C109 1.390 1_655 S
C112 H111 0.950 . S
C112 C113 1.378 . S
C113 C112 1.378 . S
C113 C114 1.409 1_655 S
C114 C110 1.387 . S
C114 C113 1.409 1_455 S
C114 H116 0.951 . S
C115 C110 1.491 . S
C115 C117 1.382 . S
C115 C119 1.404 . S
H116 C114 0.951 . S
C117 C115 1.382 . S
C117 C118 1.390 . S
C117 H122 0.949 . S
C118 C117 1.390 . S
C118 C123 1.399 . S
C119 C115 1.404 . S
C119 H120 0.950 . S
C119 C121 1.375 . S
H120 C119 0.950 . S
C121 C119 1.375 . S
C121 C123 1.382 . S
C121 H125 0.950 . S
H122 C117 0.949 . S
C123 C118 1.399 . S
C123 C121 1.382 . S
C123 H124 0.952 . S
H124 C123 0.952 . S
H125 C121 0.950 . S
H126 C127 0.949 1_655 S
C127 H126 0.949 1_455 S
C127 C128 1.395 . S
C127 C129 1.391 . S
C128 C127 1.395 . S
C128 C131 1.390 . S
C129 C127 1.391 . S
C129 C133 1.387 . S
C129 C134 1.491 1_455 S
H130 C131 0.950 . S
C131 C128 1.390 . S
C131 H130 0.950 . S
C131 C132 1.378 . S
C132 C131 1.378 . S
C132 C133 1.409 . S
C133 C129 1.387 . S
C133 C132 1.409 . S
C133 H135 0.951 . S
C134 C129 1.491 1_655 S
C134 C136 1.382 . S
C134 C138 1.404 . S
H135 C133 0.951 . S
C136 C134 1.382 . S
C136 C137 1.390 . S
C136 H141 0.949 . S
C137 C136 1.390 . S
C137 C142 1.399 . S
C138 C134 1.404 . S
C138 H139 0.950 . S
C138 C140 1.375 . S
H139 C138 0.950 . S
C140 C138 1.375 . S
C140 C142 1.382 . S
C140 H144 0.950 . S
H141 C136 0.949 . S
C142 C137 1.399 . S
C142 C140 1.382 . S
C142 H143 0.952 . S
H143 C142 0.952 . S
H144 C140 0.950 . S
H145 C146 0.949 1_565 S
C146 H145 0.949 1_545 S
C146 C147 1.395 . S
C146 C148 1.391 . S
C147 C146 1.395 . S
C147 C150 1.390 . S
C148 C146 1.391 . S
C148 C152 1.387 . S
C148 C153 1.491 1_545 S
H149 C150 0.950 . S
C150 C147 1.390 . S
C150 H149 0.950 . S
C150 C151 1.378 . S
C151 C150 1.378 . S
C151 C152 1.409 . S
C152 C148 1.387 . S
C152 C151 1.409 . S
C152 H154 0.951 . S
C153 C148 1.491 1_565 S
C153 C155 1.382 . S
C153 C157 1.404 . S
H154 C152 0.951 . S
C155 C153 1.382 . S
C155 C156 1.390 . S
C155 H160 0.949 . S
C156 C155 1.390 . S
C156 C161 1.399 . S
C157 C153 1.404 . S
C157 H158 0.950 . S
C157 C159 1.375 . S
H158 C157 0.950 . S
C159 C157 1.375 . S
C159 C161 1.382 . S
C159 H163 0.950 . S
H160 C155 0.949 . S
C161 C156 1.399 . S
C161 C159 1.382 . S
C161 H162 0.952 . S
H162 C161 0.952 . S
H163 C159 0.950 . S
H164 C165 0.949 . S
C165 H164 0.949 . S
C165 C166 1.395 . S
C165 C167 1.391 . S
C166 C165 1.395 . S
C166 C169 1.390 . S
C167 C165 1.391 . S
C167 C171 1.387 . S
C167 C172 1.491 . S
H168 C169 0.950 . S
C169 C166 1.390 . S
C169 H168 0.950 . S
C169 C170 1.378 . S
C170 C169 1.378 . S
C170 C171 1.409 . S
C171 C167 1.387 . S
C171 C170 1.409 . S
C171 H173 0.951 . S
C172 C167 1.491 . S
C172 C174 1.382 . S
C172 C176 1.404 . S
H173 C171 0.951 . S
C174 C172 1.382 . S
C174 C175 1.390 . S
C174 H179 0.949 . S
C175 C174 1.390 . S
C175 C180 1.399 . S
C176 C172 1.404 . S
C176 H177 0.950 . S
C176 C178 1.375 . S
H177 C176 0.950 . S
C178 C176 1.375 . S
C178 C180 1.382 . S
C178 H182 0.950 . S
H179 C174 0.949 . S
C180 C175 1.399 . S
C180 C178 1.382 . S
C180 H181 0.952 . S
H181 C180 0.952 . S
H182 C178 0.950 . S
C183 C184 1.369 . S
C183 C185 1.419 . S
C183 H187 0.930 . S
C184 C183 1.369 . S
C184 C193 1.429 . S
C185 C183 1.419 . S
C185 C186 1.363 . S
C185 H188 0.929 . S
C186 C185 1.363 . S
C186 C192 1.428 . S
H187 C183 0.930 . S
H188 C185 0.929 . S
S189 N190 1.613 . S
S189 N191 1.610 . S
N190 S189 1.613 . S
N190 C193 1.350 . S
N191 S189 1.610 . S
N191 C192 1.351 . S
C192 C186 1.428 . S
C192 N191 1.351 . S
C192 C193 1.434 . S
C193 C184 1.429 . S
C193 N190 1.350 . S
C193 C192 1.434 . S
C194 C195 1.369 . S
C194 C196 1.419 . S
C194 H198 0.930 . S
C195 C194 1.369 . S
C195 C204 1.429 . S
C196 C194 1.419 . S
C196 C197 1.363 . S
C196 H199 0.929 . S
C197 C196 1.363 . S
C197 C203 1.428 . S
H198 C194 0.930 . S
H199 C196 0.929 . S
S200 N201 1.613 . S
S200 N202 1.610 . S
N201 S200 1.613 . S
N201 C204 1.350 . S
N202 S200 1.610 . S
N202 C203 1.351 . S
C203 C197 1.428 . S
C203 N202 1.351 . S
C203 C204 1.434 . S
C204 C195 1.429 . S
C204 N201 1.350 . S
C204 C203 1.434 . S
C205 C206 1.369 . S
C205 C207 1.419 . S
C205 H209 0.930 . S
C206 C205 1.369 . S
C206 C215 1.429 . S
C207 C205 1.419 . S
C207 C208 1.363 . S
C207 H210 0.929 . S
C208 C207 1.363 . S
C208 C214 1.428 . S
H209 C205 0.930 . S
H210 C207 0.929 . S
S211 N212 1.613 . S
S211 N213 1.610 . S
N212 S211 1.613 . S
N212 C215 1.350 . S
N213 S211 1.610 . S
N213 C214 1.351 . S
C214 C208 1.428 . S
C214 N213 1.351 . S
C214 C215 1.434 . S
C215 C206 1.429 . S
C215 N212 1.350 . S
C215 C214 1.434 . S
C216 C217 1.369 . S
C216 C218 1.419 . S
C216 H220 0.930 . S
C217 C216 1.369 . S
C217 C226 1.429 . S
C218 C216 1.419 . S
C218 C219 1.363 . S
C218 H221 0.929 . S
C219 C218 1.363 . S
C219 C225 1.428 . S
H220 C216 0.930 . S
H221 C218 0.929 . S
S222 N223 1.613 . S
S222 N224 1.610 . S
N223 S222 1.613 . S
N223 C226 1.350 . S
N224 S222 1.610 . S
N224 C225 1.351 . S
C225 C219 1.428 . S
C225 N224 1.351 . S
C225 C226 1.434 . S
C226 C217 1.429 . S
C226 N223 1.350 . S
C226 C225 1.434 . S
C227 C228 1.369 . S
C227 C229 1.419 . S
C227 H231 0.930 . S
C228 C227 1.369 . S
C228 C237 1.429 . S
C229 C227 1.419 . S
C229 C230 1.363 . S
C229 H232 0.929 . S
C230 C229 1.363 . S
C230 C236 1.428 . S
H231 C227 0.930 . S
H232 C229 0.929 . S
S233 N234 1.613 . S
S233 N235 1.610 . S
N234 S233 1.613 . S
N234 C237 1.350 . S
N235 S233 1.610 . S
N235 C236 1.351 . S
C236 C230 1.428 . S
C236 N235 1.351 . S
C236 C237 1.434 . S
C237 C228 1.429 . S
C237 N234 1.350 . S
C237 C236 1.434 . S
C238 C239 1.369 . S
C238 C240 1.419 . S
C238 H242 0.930 . S
C239 C238 1.369 . S
C239 C248 1.429 . S
C240 C238 1.419 . S
C240 C241 1.363 . S
C240 H243 0.929 . S
C241 C240 1.363 . S
C241 C247 1.428 . S
H242 C238 0.930 . S
H243 C240 0.929 . S
S244 N245 1.613 . S
S244 N246 1.610 . S
N245 S244 1.613 . S
N245 C248 1.350 . S
N246 S244 1.610 . S
N246 C247 1.351 . S
C247 C241 1.428 . S
C247 N246 1.351 . S
C247 C248 1.434 . S
C248 C239 1.429 . S
C248 N245 1.350 . S
C248 C247 1.434 . S
C249 C250 1.369 . S
C249 C251 1.419 . S
C249 H253 0.930 . S
C250 C249 1.369 . S
C250 C259 1.429 . S
C251 C249 1.419 . S
C251 C252 1.363 . S
C251 H254 0.929 . S
C252 C251 1.363 . S
C252 C258 1.428 . S
H253 C249 0.930 . S
H254 C251 0.929 . S
S255 N256 1.613 . S
S255 N257 1.610 . S
N256 S255 1.613 . S
N256 C259 1.350 . S
N257 S255 1.610 . S
N257 C258 1.351 . S
C258 C252 1.428 . S
C258 N257 1.351 . S
C258 C259 1.434 . S
C259 C250 1.429 . S
C259 N256 1.350 . S
C259 C258 1.434 . S
C260 C261 1.369 . S
C260 C262 1.419 . S
C260 H264 0.930 . S
C261 C260 1.369 . S
C261 C270 1.429 . S
C262 C260 1.419 . S
C262 C263 1.363 . S
C262 H265 0.929 . S
C263 C262 1.363 . S
C263 C269 1.428 . S
H264 C260 0.930 . S
H265 C262 0.929 . S
S266 N267 1.613 . S
S266 N268 1.610 . S
N267 S266 1.613 . S
N267 C270 1.350 . S
N268 S266 1.610 . S
N268 C269 1.351 . S
C269 C263 1.428 . S
C269 N268 1.351 . S
C269 C270 1.434 . S
C270 C261 1.429 . S
C270 N267 1.350 . S
C270 C269 1.434 . S
C271 C272 1.369 . S
C271 C273 1.419 . S
C271 H275 0.930 . S
C272 C271 1.369 . S
C272 C281 1.429 . S
C273 C271 1.419 . S
C273 C274 1.363 . S
C273 H276 0.929 . S
C274 C273 1.363 . S
C274 C280 1.428 . S
H275 C271 0.930 . S
H276 C273 0.929 . S
S277 N278 1.613 1_545 S
S277 N279 1.610 . S
N278 S277 1.613 1_565 S
N278 C281 1.350 . S
N279 S277 1.610 . S
N279 C280 1.351 1_545 S
C280 C274 1.428 . S
C280 N279 1.351 1_565 S
C280 C281 1.434 . S
C281 C272 1.429 . S
C281 N278 1.350 . S
C281 C280 1.434 . S
C282 C283 1.369 . S
C282 C284 1.419 . S
C282 H286 0.930 . S
C283 C282 1.369 . S
C283 C292 1.429 . S
C284 C282 1.419 . S
C284 C285 1.363 . S
C284 H287 0.929 . S
C285 C284 1.363 . S
C285 C291 1.428 . S
H286 C282 0.930 . S
H287 C284 0.929 . S
S288 N289 1.613 . S
S288 N290 1.610 . S
N289 S288 1.613 . S
N289 C292 1.350 . S
N290 S288 1.610 . S
N290 C291 1.351 . S
C291 C285 1.428 . S
C291 N290 1.351 . S
C291 C292 1.434 . S
C292 C283 1.429 . S
C292 N289 1.350 . S
C292 C291 1.434 . S
C293 C294 1.369 . S
C293 C295 1.419 . S
C293 H297 0.930 . S
C294 C293 1.369 . S
C294 C303 1.429 . S
C295 C293 1.419 . S
C295 C296 1.363 . S
C295 H298 0.929 . S
C296 C295 1.363 . S
C296 C302 1.428 . S
H297 C293 0.930 . S
H298 C295 0.929 . S
S299 N300 1.613 . S
S299 N301 1.610 . S
N300 S299 1.613 . S
N300 C303 1.350 . S
N301 S299 1.610 . S
N301 C302 1.351 . S
C302 C296 1.428 . S
C302 N301 1.351 . S
C302 C303 1.434 . S
C303 C294 1.429 . S
C303 N300 1.350 . S
C303 C302 1.434 . S
C304 C305 1.369 . S
C304 C306 1.419 . S
C304 H308 0.930 . S
C305 C304 1.369 . S
C305 C314 1.429 . S
C306 C304 1.419 . S
C306 C307 1.363 . S
C306 H309 0.929 . S
C307 C306 1.363 . S
C307 C313 1.428 . S
H308 C304 0.930 . S
H309 C306 0.929 . S
S310 N311 1.613 . S
S310 N312 1.610 . S
N311 S310 1.613 . S
N311 C314 1.350 . S
N312 S310 1.610 . S
N312 C313 1.351 . S
C313 C307 1.428 . S
C313 N312 1.351 . S
C313 C314 1.434 . S
C314 C305 1.429 . S
C314 N311 1.350 . S
C314 C313 1.434 . S
C315 C316 1.369 . S
C315 C317 1.419 1_554 S
C315 H319 0.930 . S
C316 C315 1.369 . S
C316 C325 1.429 1_455 S
C317 C315 1.419 1_556 S
C317 C318 1.363 . S
C317 H320 0.929 . S
C318 C317 1.363 . S
C318 C324 1.428 1_455 S
H319 C315 0.930 . S
H320 C317 0.929 . S
S321 N322 1.613 . S
S321 N323 1.610 1_554 S
N322 S321 1.613 . S
N322 C325 1.350 . S
N323 S321 1.610 1_556 S
N323 C324 1.351 . S
C324 C318 1.428 1_655 S
C324 N323 1.351 . S
C324 C325 1.434 1_556 S
C325 C316 1.429 1_655 S
C325 N322 1.350 . S
C325 C324 1.434 1_554 S
C326 C327 1.369 . S
C326 C328 1.419 . S
C326 H330 0.930 . S
C327 C326 1.369 . S
C327 C336 1.429 . S
C328 C326 1.419 . S
C328 C329 1.363 . S
C328 H331 0.929 . S
C329 C328 1.363 . S
C329 C335 1.428 . S
H330 C326 0.930 . S
H331 C328 0.929 . S
S332 N333 1.613 . S
S332 N334 1.610 . S
N333 S332 1.613 . S
N333 C336 1.350 . S
N334 S332 1.610 . S
N334 C335 1.351 . S
C335 C329 1.428 . S
C335 N334 1.351 . S
C335 C336 1.434 . S
C336 C327 1.429 . S
C336 N333 1.350 . S
C336 C335 1.434 . S
C337 C338 1.369 . S
C337 C339 1.419 . S
C337 H341 0.930 . S
C338 C337 1.369 . S
C338 C347 1.429 . S
C339 C337 1.419 . S
C339 C340 1.363 . S
C339 H342 0.929 . S
C340 C339 1.363 . S
C340 C346 1.428 . S
H341 C337 0.930 . S
H342 C339 0.929 . S
S343 N344 1.613 . S
S343 N345 1.610 . S
N344 S343 1.613 . S
N344 C347 1.350 . S
N345 S343 1.610 . S
N345 C346 1.351 . S
C346 C340 1.428 . S
C346 N345 1.351 . S
C346 C347 1.434 . S
C347 C338 1.429 . S
C347 N344 1.350 . S
C347 C346 1.434 . S
C348 C349 1.369 . S
C348 C350 1.419 . S
C348 H352 0.930 . S
C349 C348 1.369 . S
C349 C358 1.429 . S
C350 C348 1.419 . S
C350 C351 1.363 . S
C350 H353 0.929 . S
C351 C350 1.363 . S
C351 C357 1.428 . S
H352 C348 0.930 . S
H353 C350 0.929 . S
S354 N355 1.613 . S
S354 N356 1.610 . S
N355 S354 1.613 . S
N355 C358 1.350 . S
N356 S354 1.610 . S
N356 C357 1.351 . S
C357 C351 1.428 . S
C357 N356 1.351 . S
C357 C358 1.434 . S
C358 C349 1.429 . S
C358 N355 1.350 . S
C358 C357 1.434 . S
C359 C360 1.369 . S
C359 C361 1.419 1_556 S
C359 H363 0.930 . S
C360 C359 1.369 . S
C360 C369 1.429 . S
C361 C359 1.419 1_554 S
C361 C362 1.363 . S
C361 H364 0.929 . S
C362 C361 1.363 . S
C362 C368 1.428 . S
H363 C359 0.930 . S
H364 C361 0.929 . S
S365 N366 1.614 . S
S365 N367 1.610 1_556 S
N366 S365 1.614 . S
N366 C369 1.350 . S
N367 S365 1.610 1_554 S
N367 C368 1.351 . S
C368 C362 1.428 . S
C368 N367 1.351 . S
C368 C369 1.434 1_554 S
C369 C360 1.429 . S
C369 N366 1.350 . S
C369 C368 1.434 1_556 S
C370 C371 1.369 . S
C370 C372 1.419 . S
C370 H374 0.930 . S
C371 C370 1.369 . S
C371 C380 1.429 . S
C372 C370 1.419 . S
C372 C373 1.363 . S
C372 H375 0.929 . S
C373 C372 1.363 . S
C373 C379 1.428 . S
H374 C370 0.930 . S
H375 C372 0.929 . S
S376 N377 1.613 . S
S376 N378 1.610 . S
N377 S376 1.613 . S
N377 C380 1.350 1_655 S
N378 S376 1.610 . S
N378 C379 1.351 1_655 S
C379 C373 1.428 . S
C379 N378 1.351 1_455 S
C379 C380 1.434 . S
C380 C371 1.429 . S
C380 N377 1.350 1_455 S
C380 C379 1.434 . S
C184 C20 1.363 . S
C186 C175 1.326 . S
C195 C41 1.391 . S
C197 C137 1.332 . S
C206 C64 1.423 . S
C208 C156 1.378 . S
C217 C19 1.377 . S
C219 C170 1.487 . S
C230 C132 1.434 . S
C228 C44 1.414 . S
C241 C151 1.364 . S
C239 C67 1.362 . S
C250 C43 1.352 . S
C252 C99 1.321 . S
C261 C66 1.283 . S
C263 C113 1.350 . S
C272 C21 1.418 . S
C274 C75 1.430 . S
C285 C94 1.459 . S
C283 C42 1.373 . S
C296 C118 1.375 . S
C294 C65 1.365 . S
C305 C18 1.392 . S
C307 C80 1.338 . S
C318 C109 1.576 . S
C316 C17 1.577 . S
C327 C39 1.597 . S
C329 C71 1.577 . S
C338 C62 1.578 . S
C340 C90 1.561 . S
C351 C147 1.570 . S
C349 C40 1.577 . S
C362 C166 1.550 . S
C360 C63 1.569 . S
C371 C16 1.591 . S
C373 C128 1.577 . S
