# Generated by pormake.
# Topology nom, (4,4)-cn, num edge types: 1
# Building blocks:
#     Node 0, Type 0, BuildingBlock: MUDLON_clean_linker_0, # of connection points: 4
#     Node 1, Type 0, BuildingBlock: MUDLON_clean_linker_0, # of connection points: 4
#     Node 2, Type 0, BuildingBlock: MUDLON_clean_linker_0, # of connection points: 4
#     Node 3, Type 0, BuildingBlock: MUDLON_clean_linker_0, # of connection points: 4
#     Node 4, Type 0, BuildingBlock: MUDLON_clean_linker_0, # of connection points: 4
#     Node 5, Type 0, BuildingBlock: MUDLON_clean_linker_0, # of connection points: 4
#     Node 6, Type 1, BuildingBlock: UXUYUI_clean_sbu_0, # of connection points: 4
#     Node 7, Type 1, BuildingBlock: UXUYUI_clean_sbu_0, # of connection points: 4
#     Node 8, Type 1, BuildingBlock: UXUYUI_clean_sbu_0, # of connection points: 4
#     Node 9, Type 1, BuildingBlock: UXUYUI_clean_sbu_0, # of connection points: 4
#     Node 10, Type 1, BuildingBlock: UXUYUI_clean_sbu_0, # of connection points: 4
#     Node 11, Type 1, BuildingBlock: UXUYUI_clean_sbu_0, # of connection points: 4
#     Edge 12, Type (0, 1), BuildingBlock: TEMPAE_clean_linker_10, # of connection points: 2
#     Edge 13, Type (0, 1), BuildingBlock: TEMPAE_clean_linker_10, # of connection points: 2
#     Edge 14, Type (0, 1), BuildingBlock: TEMPAE_clean_linker_10, # of connection points: 2
#     Edge 15, Type (0, 1), BuildingBlock: TEMPAE_clean_linker_10, # of connection points: 2
#     Edge 16, Type (0, 1), BuildingBlock: TEMPAE_clean_linker_10, # of connection points: 2
#     Edge 17, Type (0, 1), BuildingBlock: TEMPAE_clean_linker_10, # of connection points: 2
#     Edge 18, Type (0, 1), BuildingBlock: TEMPAE_clean_linker_10, # of connection points: 2
#     Edge 19, Type (0, 1), BuildingBlock: TEMPAE_clean_linker_10, # of connection points: 2
#     Edge 20, Type (0, 1), BuildingBlock: TEMPAE_clean_linker_10, # of connection points: 2
#     Edge 21, Type (0, 1), BuildingBlock: TEMPAE_clean_linker_10, # of connection points: 2
#     Edge 22, Type (0, 1), BuildingBlock: TEMPAE_clean_linker_10, # of connection points: 2
#     Edge 23, Type (0, 1), BuildingBlock: TEMPAE_clean_linker_10, # of connection points: 2
#     Edge 24, Type (0, 1), BuildingBlock: TEMPAE_clean_linker_10, # of connection points: 2
#     Edge 25, Type (0, 1), BuildingBlock: TEMPAE_clean_linker_10, # of connection points: 2
#     Edge 26, Type (0, 1), BuildingBlock: TEMPAE_clean_linker_10, # of connection points: 2
#     Edge 27, Type (0, 1), BuildingBlock: TEMPAE_clean_linker_10, # of connection points: 2
#     Edge 28, Type (0, 1), BuildingBlock: TEMPAE_clean_linker_10, # of connection points: 2
#     Edge 29, Type (0, 1), BuildingBlock: TEMPAE_clean_linker_10, # of connection points: 2
#     Edge 30, Type (0, 1), BuildingBlock: TEMPAE_clean_linker_10, # of connection points: 2
#     Edge 31, Type (0, 1), BuildingBlock: TEMPAE_clean_linker_10, # of connection points: 2
#     Edge 32, Type (0, 1), BuildingBlock: TEMPAE_clean_linker_10, # of connection points: 2
#     Edge 33, Type (0, 1), BuildingBlock: TEMPAE_clean_linker_10, # of connection points: 2
#     Edge 34, Type (0, 1), BuildingBlock: TEMPAE_clean_linker_10, # of connection points: 2
#     Edge 35, Type (0, 1), BuildingBlock: TEMPAE_clean_linker_10, # of connection points: 2
# Relax obj value: 0.038
# Max RMSD: 0.149
# Mean RMSD: 0.119
data_MOF--net-nom--node1-UXUYUI_clean_sbu_0--node2-MUDLON_clean_linker_0--edge1-TEMPAE_clean_linker_10
_symmetry_space_group_name_H-M    P1
_symmetry_Int_Tables_number       1
_symmetry_cell_setting            triclinic
loop_
_symmetry_equiv_pos_as_xyz
'x, y, z'
_cell_length_a     71.218765
_cell_length_b     71.889721
_cell_length_c     71.828137
_cell_angle_alpha  90.312048
_cell_angle_beta   89.849831
_cell_angle_gamma 120.30653
loop_
_atom_site_label
_atom_site_type_symbol
_atom_site_fract_x
_atom_site_fract_y
_atom_site_fract_z
_atom_type_partial_charge
H0 H 0.12469 0.53111 0.33061 0.0
N1 N 0.09124 0.53412 0.34285 0.0
H2 H 0.15527 0.55732 0.31174 0.0
H3 H 0.09381 0.56922 0.32535 0.0
H4 H 0.12426 0.59541 0.30646 0.0
H5 H 0.09843 0.57113 0.36022 0.0
H6 H 0.11452 0.58363 0.39099 0.0
H7 H 0.0987 0.51191 0.36814 0.0
H8 H 0.11541 0.5245 0.39877 0.0
H9 H 0.06731 0.49499 0.32875 0.0
H10 H 0.064 0.55064 0.34635 0.0
H11 H 0.02869 0.47634 0.3208 0.0
H12 H 0.02561 0.53254 0.33777 0.0
H13 H 0.90663 0.41525 0.29599 0.0
H14 H 0.89016 0.40958 0.2651 0.0
H15 H 0.92416 0.47845 0.25658 0.0
H16 H 0.94037 0.48392 0.28761 0.0
H17 H 0.92281 0.48518 0.31575 0.0
H18 H 0.89318 0.48449 0.33364 0.0
H19 H 0.87717 0.42269 0.35635 0.0
H20 H 0.90673 0.4234 0.3382 0.0
H21 H 0.96466 0.45425 0.29315 0.0
H22 H 0.00347 0.47573 0.2991 0.0
H23 H 0.99089 0.50365 0.34753 0.0
N24 N 0.93193 0.4525 0.3132 0.0
H25 H 0.95233 0.483 0.34127 0.0
C26 C 0.10696 0.54809 0.32935 0.0
C27 C 0.12431 0.54489 0.32504 0.0
C28 C 0.14179 0.55991 0.31441 0.0
C29 C 0.14217 0.57845 0.30778 0.0
C30 C 0.12428 0.58118 0.31131 0.0
C31 C 0.10686 0.56619 0.32212 0.0
C32 C 0.09727 0.54047 0.36194 0.0
C33 C 0.10147 0.56059 0.36874 0.0
C34 C 0.11093 0.56783 0.38628 0.0
C35 C 0.11646 0.55516 0.39729 0.0
C36 C 0.11117 0.53458 0.39079 0.0
C37 C 0.10166 0.52735 0.37329 0.0
C38 C 0.06856 0.52413 0.33805 0.0
C39 C 0.05824 0.50323 0.3307 0.0
C40 C 0.03621 0.4927 0.32603 0.0
C41 C 0.02399 0.50298 0.3285 0.0
C42 C 0.03443 0.52406 0.33584 0.0
C43 C 0.0565 0.53453 0.34063 0.0
C44 C 0.92464 0.4499 0.2941 0.0
C45 C 0.91075 0.42906 0.28731 0.0
C46 C 0.90143 0.42588 0.26965 0.0
C47 C 0.90581 0.44358 0.2584 0.0
C48 C 0.92026 0.46451 0.26501 0.0
C49 C 0.9296 0.46766 0.2827 0.0
C50 C 0.91679 0.45415 0.32554 0.0
C51 C 0.91303 0.47157 0.32467 0.0
C52 C 0.89612 0.47117 0.3349 0.0
C53 C 0.8828 0.45348 0.34629 0.0
C54 C 0.88729 0.43662 0.34783 0.0
C55 C 0.90409 0.43696 0.33747 0.0
C56 C 0.95506 0.46724 0.31617 0.0
C57 C 0.97017 0.46543 0.30477 0.0
C58 C 0.99246 0.47753 0.30836 0.0
C59 C 1.00038 0.49145 0.32382 0.0
C60 C 0.98544 0.49343 0.33527 0.0
C61 C 0.96311 0.48145 0.33159 0.0
H62 H 0.5072 0.90927 0.48702 0.0
N63 N 0.5009 0.93902 0.47152 0.0
H64 H 0.48166 0.87902 0.50639 0.0
H65 H 0.46279 0.93343 0.48621 0.0
H66 H 0.43715 0.90324 0.50536 0.0
H67 H 0.4649 0.93256 0.45247 0.0
H68 H 0.45349 0.91593 0.42173 0.0
H69 H 0.52406 0.93036 0.44778 0.0
H70 H 0.5131 0.91422 0.41672 0.0
H71 H 0.54181 0.96375 0.48189 0.0
H72 H 0.48329 0.96527 0.47043 0.0
H73 H 0.56097 0.00225 0.48878 0.0
H74 H 0.50177 0.00349 0.47848 0.0
H75 H 0.62131 0.1244 0.51464 0.0
H76 H 0.62757 0.14061 0.5457 0.0
H77 H 0.55854 0.10364 0.55676 0.0
H78 H 0.55245 0.08779 0.52553 0.0
H79 H 0.55177 0.10872 0.49911 0.0
H80 H 0.55266 0.13844 0.48226 0.0
H81 H 0.61021 0.14874 0.45286 0.0
H82 H 0.6099 0.11976 0.47082 0.0
H83 H 0.58628 0.0664 0.51585 0.0
H84 H 0.56476 0.02778 0.51063 0.0
H85 H 0.52799 0.038 0.46822 0.0
N86 N 0.5834 0.09769 0.49866 0.0
H87 H 0.54847 0.07636 0.47426 0.0
C88 C 0.487 0.92361 0.48518 0.0
C89 C 0.49214 0.90826 0.49134 0.0
C90 C 0.47748 0.89095 0.50225 0.0
C91 C 0.45732 0.88867 0.50724 0.0
C92 C 0.45262 0.90466 0.50184 0.0
C93 C 0.4673 0.92195 0.49084 0.0
C94 C 0.49533 0.93258 0.45241 0.0
C95 C 0.47568 0.92897 0.44464 0.0
C96 C 0.4692 0.9195 0.42701 0.0
C97 C 0.48228 0.91352 0.41685 0.0
C98 C 0.50247 0.91826 0.42432 0.0
C99 C 0.50887 0.92766 0.44194 0.0
C100 C 0.51115 0.96159 0.47594 0.0
C101 C 0.53304 0.9724 0.48118 0.0
C102 C 0.54387 0.9944 0.48527 0.0
C103 C 0.53291 0.00609 0.48446 0.0
C104 C 0.51084 0.99514 0.47915 0.0
C105 C 0.5001 0.97312 0.47477 0.0
C106 C 0.58652 0.10496 0.51779 0.0
C107 C 0.60762 0.1196 0.52391 0.0
C108 C 0.61113 0.12876 0.54166 0.0
C109 C 0.59354 0.12345 0.55369 0.0
C110 C 0.5724 0.10826 0.54774 0.0
C111 C 0.5689 0.0991 0.52995 0.0
C112 C 0.5811 0.11233 0.48646 0.0
C113 C 0.56452 0.11731 0.48899 0.0
C114 C 0.56493 0.13421 0.47914 0.0
C115 C 0.58171 0.14629 0.46634 0.0
C116 C 0.59736 0.1402 0.46294 0.0
C117 C 0.5971 0.12349 0.473 0.0
C118 C 0.56903 0.07468 0.49587 0.0
C119 C 0.57327 0.06034 0.5057 0.0
C120 C 0.56109 0.03818 0.50248 0.0
C121 C 0.54467 0.02963 0.48886 0.0
C122 C 0.54024 0.04388 0.47904 0.0
C123 C 0.55219 0.06609 0.4825 0.0
H124 H 0.50356 0.61884 0.66399 0.0
N125 N 0.50116 0.58293 0.67593 0.0
H126 H 0.47839 0.62228 0.64331 0.0
H127 H 0.46794 0.54997 0.65626 0.0
H128 H 0.4431 0.55324 0.63488 0.0
H129 H 0.46014 0.55851 0.69036 0.0
H130 H 0.44793 0.563 0.72079 0.0
H131 H 0.52591 0.60707 0.70397 0.0
H132 H 0.51417 0.61063 0.73515 0.0
H133 H 0.53715 0.59391 0.65697 0.0
H134 H 0.48478 0.54075 0.68611 0.0
H135 H 0.5541 0.57224 0.65094 0.0
H136 H 0.50212 0.51921 0.68103 0.0
H137 H 0.61278 0.51346 0.6352 0.0
H138 H 0.61971 0.50554 0.60356 0.0
H139 H 0.55046 0.46728 0.59392 0.0
H140 H 0.54375 0.47503 0.62554 0.0
H141 H 0.54262 0.45519 0.65285 0.0
H142 H 0.54425 0.42651 0.66946 0.0
H143 H 0.60435 0.47385 0.69551 0.0
H144 H 0.60283 0.50242 0.67839 0.0
H145 H 0.59209 0.53883 0.66091 0.0
H146 H 0.57343 0.55886 0.66712 0.0
H147 H 0.5115 0.50056 0.65873 0.0
N148 N 0.57466 0.49767 0.65214 0.0
H149 H 0.5304 0.48054 0.65356 0.0
C150 C 0.48774 0.58428 0.66161 0.0
C151 C 0.49061 0.60453 0.65739 0.0
C152 C 0.47624 0.60643 0.64547 0.0
C153 C 0.45866 0.58802 0.63737 0.0
C154 C 0.45629 0.56772 0.64104 0.0
C155 C 0.47063 0.56583 0.65312 0.0
C156 C 0.49394 0.5829 0.69473 0.0
C157 C 0.47205 0.56992 0.70002 0.0
C158 C 0.46512 0.57235 0.71761 0.0
C159 C 0.47998 0.58742 0.73047 0.0
C160 C 0.50212 0.59932 0.72549 0.0
C161 C 0.50894 0.59717 0.70776 0.0
C162 C 0.50997 0.56913 0.67217 0.0
C163 C 0.52941 0.57755 0.66214 0.0
C164 C 0.53913 0.56518 0.65888 0.0
C165 C 0.52971 0.54405 0.66578 0.0
C166 C 0.50982 0.53537 0.67544 0.0
C167 C 0.49995 0.54774 0.67851 0.0
C168 C 0.57785 0.49487 0.63276 0.0
C169 C 0.59915 0.50369 0.6261 0.0
C170 C 0.60304 0.4992 0.60803 0.0
C171 C 0.58561 0.4857 0.59627 0.0
C172 C 0.56422 0.47752 0.60274 0.0
C173 C 0.56036 0.48206 0.62082 0.0
C174 C 0.57274 0.48099 0.66434 0.0
C175 C 0.55588 0.45948 0.66243 0.0
C176 C 0.55681 0.44306 0.67199 0.0
C177 C 0.57459 0.44786 0.68362 0.0
C178 C 0.59065 0.46956 0.68639 0.0
C179 C 0.58972 0.48592 0.6768 0.0
C180 C 0.56274 0.50835 0.65659 0.0
C181 C 0.57448 0.53041 0.66057 0.0
C182 C 0.56376 0.54183 0.66392 0.0
C183 C 0.54091 0.53143 0.66312 0.0
C184 C 0.52908 0.5091 0.65953 0.0
C185 C 0.5399 0.49763 0.65639 0.0
H186 H 0.12795 0.61551 0.82139 0.0
N187 N 0.09358 0.57997 0.80884 0.0
H188 H 0.15801 0.61831 0.84008 0.0
H189 H 0.09498 0.54627 0.82526 0.0
H190 H 0.12488 0.54897 0.84407 0.0
H191 H 0.10511 0.55381 0.79038 0.0
H192 H 0.12199 0.56048 0.75974 0.0
H193 H 0.09641 0.60856 0.78408 0.0
H194 H 0.11245 0.61488 0.75292 0.0
H195 H 0.06946 0.59209 0.82744 0.0
H196 H 0.06675 0.53714 0.80042 0.0
H197 H 0.03092 0.57045 0.83535 0.0
H198 H 0.0282 0.51514 0.80857 0.0
H199 H 0.91232 0.51335 0.85642 0.0
H200 H 0.89598 0.50277 0.88739 0.0
H201 H 0.92324 0.46133 0.89319 0.0
H202 H 0.93953 0.47205 0.86219 0.0
H203 H 0.9273 0.45776 0.83213 0.0
H204 H 0.89734 0.42917 0.81417 0.0
H205 H 0.87704 0.47408 0.79774 0.0
H206 H 0.90692 0.50248 0.81589 0.0
H207 H 0.96777 0.52383 0.86128 0.0
H208 H 0.0064 0.54132 0.85507 0.0
H209 H 0.9932 0.51199 0.8005 0.0
N210 N 0.93453 0.49858 0.83799 0.0
H211 H 0.95453 0.49391 0.80673 0.0
C212 C 0.10922 0.5808 0.822 0.0
C213 C 0.12703 0.60097 0.82661 0.0
C214 C 0.14418 0.60251 0.83715 0.0
C215 C 0.14378 0.58383 0.8434 0.0
C216 C 0.12549 0.5636 0.83951 0.0
C217 C 0.10839 0.56206 0.82877 0.0
C218 C 0.09974 0.58092 0.78959 0.0
C219 C 0.10632 0.56695 0.7822 0.0
C220 C 0.1159 0.57075 0.76457 0.0
C221 C 0.11888 0.58842 0.75393 0.0
C222 C 0.11088 0.60143 0.7609 0.0
C223 C 0.1015 0.59773 0.77859 0.0
C224 C 0.07093 0.56632 0.81335 0.0
C225 C 0.06051 0.57528 0.82334 0.0
C226 C 0.03855 0.56282 0.82796 0.0
C227 C 0.02648 0.54099 0.8227 0.0
C228 C 0.03699 0.53194 0.8127 0.0
C229 C 0.05905 0.54448 0.80808 0.0
C230 C 0.92698 0.49345 0.85698 0.0
C231 C 0.91497 0.50222 0.86452 0.0
C232 C 0.90575 0.49621 0.88221 0.0
C233 C 0.90829 0.48117 0.89271 0.0
C234 C 0.9208 0.47275 0.88533 0.0
C235 C 0.93011 0.47886 0.86763 0.0
C236 C 0.91919 0.48224 0.82543 0.0
C237 C 0.9165 0.46147 0.82456 0.0
C238 C 0.89939 0.44517 0.8143 0.0
C239 C 0.88479 0.44937 0.80463 0.0
C240 C 0.88815 0.47039 0.80487 0.0
C241 C 0.90515 0.48661 0.81523 0.0
C242 C 0.95759 0.50641 0.83499 0.0
C243 C 0.97295 0.52037 0.84819 0.0
C244 C 0.99522 0.53075 0.84451 0.0
C245 C 0.00293 0.52806 0.82729 0.0
C246 C 0.98783 0.51407 0.81407 0.0
C247 C 0.96549 0.50359 0.81775 0.0
H248 H 0.52352 0.11818 0.00258 0.0
N249 N 0.52958 0.09509 0.97692 0.0
H250 H 0.55122 0.14736 0.02158 0.0
H251 H 0.57203 0.10526 0.9803 0.0
H252 H 0.59957 0.13337 3e-05 0.0
H253 H 0.55414 0.08847 0.9514 0.0
H254 H 0.5649 0.10521 0.9206 0.0
H255 H 0.51507 0.11795 0.95991 0.0
H256 H 0.52502 0.13414 0.92896 0.0
H257 H 0.4874 0.06833 0.97268 0.0
H258 H 0.54675 0.06991 0.98766 0.0
H259 H 0.46704 0.0295 0.9775 0.0
H260 H 0.52646 0.03144 0.99377 0.0
H261 H 0.40552 0.90806 0.01417 0.0
H262 H 0.39852 0.89188 0.04504 0.0
H263 H 0.46678 0.93164 0.0585 0.0
H264 H 0.47365 0.94706 0.02721 0.0
H265 H 0.47323 0.92216 0.0013 0.0
H266 H 0.47193 0.89243 0.98371 0.0
H267 H 0.41791 0.88655 0.95165 0.0
H268 H 0.41896 0.91603 0.96981 0.0
H269 H 0.43214 0.96497 0.0053 0.0
H270 H 0.45369 0.00377 0.00065 0.0
H271 H 0.50735 0.99683 0.98108 0.0
N272 N 0.44362 0.93571 0.99932 0.0
H273 H 0.48622 0.95835 0.98704 0.0
C274 C 0.54556 0.10938 0.9902 0.0
C275 C 0.54003 0.12118 0.0023 0.0
C276 C 0.55592 0.13781 0.0132 0.0
C277 C 0.57776 0.14288 0.01233 0.0
C278 C 0.58304 0.13023 0.00085 0.0
C279 C 0.56717 0.11384 0.98973 0.0
C280 C 0.53398 0.10223 0.95792 0.0
C281 C 0.54766 0.09831 0.94649 0.0
C282 C 0.55366 0.10778 0.92886 0.0
C283 C 0.54603 0.12124 0.92242 0.0
C284 C 0.53155 0.12423 0.93364 0.0
C285 C 0.52568 0.11488 0.95122 0.0
C286 C 0.51849 0.07218 0.98004 0.0
C287 C 0.49598 0.06029 0.97723 0.0
C288 C 0.48436 0.03809 0.98019 0.0
C289 C 0.49496 0.02719 0.98635 0.0
C290 C 0.51768 0.03913 0.9889 0.0
C291 C 0.52937 0.06135 0.98558 0.0
C292 C 0.43998 0.92877 0.01845 0.0
C293 C 0.41886 0.91347 0.02393 0.0
C294 C 0.41492 0.90434 0.04162 0.0
C295 C 0.43209 0.91044 0.05433 0.0
C296 C 0.45323 0.92635 0.049 0.0
C297 C 0.45717 0.93536 0.03119 0.0
C298 C 0.44602 0.9212 0.98691 0.0
C299 C 0.46137 0.91476 0.99026 0.0
C300 C 0.46068 0.8978 0.9801 0.0
C301 C 0.44465 0.88695 0.96639 0.0
C302 C 0.43021 0.89433 0.96232 0.0
C303 C 0.4309 0.91127 0.97253 0.0
C304 C 0.45727 0.95859 0.99632 0.0
C305 C 0.4486 0.97189 8e-05 0.0
C306 C 0.46093 0.99408 0.99722 0.0
C307 C 0.48225 0.00357 0.99016 0.0
C308 C 0.4911 0.99023 0.98666 0.0
C309 C 0.47885 0.96802 0.98989 0.0
H310 H 0.52474 0.41413 0.16258 0.0
N311 N 0.52655 0.44998 0.1744 0.0
H312 H 0.55147 0.41086 0.14376 0.0
H313 H 0.56087 0.48308 0.15544 0.0
H314 H 0.58695 0.47988 0.13584 0.0
H315 H 0.56664 0.47363 0.19074 0.0
H316 H 0.5771 0.46777 0.22141 0.0
H317 H 0.50058 0.42305 0.20043 0.0
H318 H 0.51085 0.41736 0.23155 0.0
H319 H 0.49042 0.44262 0.15729 0.0
H320 H 0.54764 0.49276 0.1846 0.0
H321 H 0.47797 0.46823 0.15144 0.0
H322 H 0.53564 0.51838 0.17854 0.0
H323 H 0.4462 0.53604 0.1342 0.0
H324 H 0.42928 0.53789 0.10519 0.0
H325 H 0.49162 0.5887 0.08581 0.0
H326 H 0.50835 0.58714 0.11512 0.0
H327 H 0.51012 0.60412 0.15456 0.0
H328 H 0.49668 0.62333 0.17363 0.0
H329 H 0.43745 0.56332 0.18421 0.0
H330 H 0.45137 0.54408 0.16569 0.0
H331 H 0.48093 0.52745 0.12349 0.0
H332 H 0.48854 0.49956 0.13206 0.0
H333 H 0.50846 0.52774 0.18682 0.0
N334 N 0.48862 0.5629 0.14463 0.0
H335 H 0.50125 0.5562 0.17824 0.0
C336 C 0.54058 0.44871 0.16048 0.0
C337 C 0.53807 0.42849 0.15646 0.0
C338 C 0.55337 0.42667 0.14562 0.0
C339 C 0.57153 0.44513 0.13832 0.0
C340 C 0.57342 0.46535 0.14151 0.0
C341 C 0.55825 0.46717 0.1526 0.0
C342 C 0.53274 0.44864 0.19325 0.0
C343 C 0.55426 0.46152 0.1996 0.0
C344 C 0.56023 0.4582 0.21723 0.0
C345 C 0.54483 0.44201 0.2289 0.0
C346 C 0.52315 0.42974 0.22278 0.0
C347 C 0.51721 0.43306 0.20511 0.0
C348 C 0.51987 0.46564 0.17136 0.0
C349 C 0.50027 0.45914 0.16201 0.0
C350 C 0.49325 0.4738 0.15865 0.0
C351 C 0.50578 0.49535 0.16458 0.0
C352 C 0.52538 0.50182 0.17409 0.0
C353 C 0.53236 0.48715 0.17746 0.0
C354 C 0.47856 0.56175 0.1269 0.0
C355 C 0.45621 0.54762 0.12376 0.0
C356 C 0.44658 0.5486 0.10716 0.0
C357 C 0.45914 0.56348 0.09332 0.0
C358 C 0.4816 0.57695 0.09618 0.0
C359 C 0.49116 0.57614 0.11288 0.0
C360 C 0.4817 0.57281 0.15849 0.0
C361 C 0.49451 0.59507 0.16143 0.0
C362 C 0.48681 0.60598 0.1723 0.0
C363 C 0.46597 0.59479 0.18024 0.0
C364 C 0.4535 0.5723 0.17808 0.0
C365 C 0.4614 0.56134 0.16746 0.0
C366 C 0.48948 0.54395 0.15042 0.0
C367 C 0.48619 0.52756 0.13762 0.0
C368 C 0.49066 0.51141 0.14249 0.0
C369 C 0.49901 0.51132 0.16015 0.0
C370 C 0.50211 0.52738 0.17305 0.0
C371 C 0.49763 0.54355 0.1682 0.0
Li372 Li 0.63659 0.39805 0.4301 0.0
Li373 Li 0.62909 0.36367 0.41592 0.0
Li374 Li 0.66466 0.39803 0.40953 0.0
Li375 Li 0.63033 0.39134 0.39624 0.0
C376 C 0.6613 0.38177 0.45011 0.0
N377 N 0.67864 0.37967 0.4839 0.0
C378 C 0.64901 0.36488 0.4624 0.0
C379 C 0.68256 0.3974 0.45491 0.0
C380 C 0.65801 0.36416 0.47944 0.0
C381 C 0.69099 0.39611 0.47208 0.0
C382 C 0.58964 0.35996 0.42148 0.0
C383 C 0.5574 0.32625 0.41389 0.0
N384 N 0.54885 0.32645 0.4308 0.0
C385 C 0.5805 0.35988 0.43874 0.0
C386 C 0.57797 0.34307 0.4089 0.0
C387 C 0.55987 0.34278 0.4432 0.0
C388 C 0.62956 0.42882 0.44819 0.0
N389 N 0.63145 0.41116 0.45113 0.0
C390 C 0.62456 0.41192 0.48361 0.0
C391 C 0.62889 0.40254 0.46839 0.0
C392 C 0.62272 0.43031 0.48105 0.0
C393 C 0.62528 0.43876 0.46303 0.0
H394 H 0.63129 0.43513 0.43427 0.0
H395 H 0.62971 0.38812 0.4703 0.0
C396 C 0.62566 0.32366 0.40941 0.0
N397 N 0.61741 0.33356 0.42003 0.0
C398 C 0.61935 0.30212 0.41253 0.0
C399 C 0.59566 0.30113 0.43712 0.0
C400 C 0.60267 0.32277 0.43369 0.0
C401 C 0.60427 0.29056 0.42667 0.0
H402 H 0.63764 0.3327 0.39884 0.0
H403 H 0.59669 0.33104 0.44228 0.0
C404 C 0.66821 0.43858 0.41368 0.0
N405 N 0.69923 0.48029 0.42316 0.0
C406 C 0.6731 0.45549 0.40146 0.0
C407 C 0.67897 0.4429 0.43077 0.0
C408 C 0.68888 0.47647 0.40648 0.0
C409 C 0.69462 0.46408 0.43531 0.0
C410 C 0.64351 0.3718 0.37334 0.0
C411 C 0.66044 0.38618 0.36183 0.0
C412 C 0.62464 0.35489 0.36545 0.0
C413 C 0.65808 0.38356 0.34253 0.0
C414 C 0.6229 0.35283 0.34609 0.0
N415 N 0.6395 0.3671 0.33512 0.0
C416 C 0.7025 0.39569 0.40998 0.0
C417 C 0.70753 0.42797 0.3966 0.0
C418 C 0.72398 0.40159 0.40598 0.0
N419 N 0.69473 0.40882 0.40521 0.0
C420 C 0.72918 0.43458 0.39243 0.0
C421 C 0.73755 0.42117 0.39692 0.0
H422 H 0.69184 0.38043 0.41661 0.0
H423 H 0.70083 0.43785 0.39246 0.0
C424 C 0.59659 0.38679 0.37223 0.0
N425 N 0.61845 0.39724 0.37495 0.0
C426 C 0.58794 0.39149 0.35675 0.0
C427 C 0.62447 0.41773 0.34723 0.0
C428 C 0.6324 0.41254 0.36291 0.0
C429 C 0.60194 0.40718 0.34401 0.0
H430 H 0.58584 0.3749 0.38211 0.0
H431 H 0.6497 0.42075 0.36556 0.0
O432 O 0.65284 0.38253 0.43322 0.0
O433 O 0.60982 0.37658 0.41689 0.0
O434 O 0.65291 0.41795 0.40887 0.0
O435 O 0.64531 0.3744 0.39223 0.0
H436 H 0.63259 0.3526 0.45893 0.0
H437 H 0.69256 0.41032 0.44544 0.0
H438 H 0.64859 0.35127 0.48913 0.0
H439 H 0.7074 0.40814 0.47597 0.0
H440 H 0.54825 0.31302 0.40433 0.0
H441 H 0.58923 0.37288 0.44859 0.0
H442 H 0.58482 0.34285 0.39551 0.0
H443 H 0.55262 0.34248 0.45653 0.0
H444 H 0.6222 0.40457 0.49718 0.0
H445 H 0.6241 0.45296 0.46043 0.0
H446 H 0.62681 0.29489 0.40435 0.0
H447 H 0.58381 0.29289 0.44801 0.0
H448 H 0.66485 0.45244 0.3882 0.0
H449 H 0.67509 0.43009 0.44051 0.0
H450 H 0.69289 0.4897 0.39713 0.0
H451 H 0.70305 0.46764 0.4485 0.0
H452 H 0.67514 0.39936 0.36773 0.0
H453 H 0.61147 0.34354 0.37419 0.0
H454 H 0.67099 0.39465 0.33343 0.0
H455 H 0.60834 0.33989 0.33978 0.0
H456 H 0.72986 0.39086 0.40976 0.0
H457 H 0.739 0.44963 0.38515 0.0
H458 H 0.57049 0.38284 0.3547 0.0
H459 H 0.63583 0.43013 0.33791 0.0
Li460 Li 0.26716 0.64662 0.59241 0.0
Li461 Li 0.29424 0.64138 0.5779 0.0
Li462 Li 0.29395 0.67426 0.57296 0.0
Li463 Li 0.26571 0.63984 0.55791 0.0
C464 C 0.29856 0.66441 0.61547 0.0
N465 N 0.29606 0.66488 0.65386 0.0
C466 C 0.30084 0.64939 0.62604 0.0
C467 C 0.295 0.67967 0.62445 0.0
C468 C 0.29956 0.64991 0.64543 0.0
C469 C 0.29377 0.67963 0.64387 0.0
C470 C 0.26035 0.60036 0.57821 0.0
C471 C 0.25102 0.56752 0.56164 0.0
N472 N 0.25567 0.55978 0.57712 0.0
C473 C 0.26503 0.59207 0.59396 0.0
C474 C 0.25329 0.58799 0.56191 0.0
C475 C 0.26257 0.57154 0.59313 0.0
C476 C 0.23724 0.65094 0.6158 0.0
N477 N 0.24834 0.64029 0.61344 0.0
C478 C 0.2315 0.61896 0.64044 0.0
C479 C 0.24571 0.62454 0.62537 0.0
C480 C 0.21976 0.62963 0.64325 0.0
C481 C 0.22285 0.64589 0.63071 0.0
H482 H 0.2394 0.66322 0.60602 0.0
H483 H 0.25454 0.6162 0.62316 0.0
C484 C 0.33318 0.64584 0.59033 0.0
N485 N 0.31487 0.6317 0.58095 0.0
C486 C 0.34926 0.6408 0.59416 0.0
C487 C 0.32798 0.60702 0.57787 0.0
C488 C 0.31241 0.6129 0.57411 0.0
C489 C 0.34656 0.6209 0.58836 0.0
H490 H 0.33526 0.66111 0.59496 0.0
H491 H 0.29837 0.60236 0.56581 0.0
C492 C 0.26128 0.67966 0.56621 0.0
N493 N 0.26198 0.71645 0.55416 0.0
C494 C 0.2566 0.68146 0.54764 0.0
C495 C 0.26621 0.69653 0.57867 0.0
C496 C 0.25704 0.7002 0.54182 0.0
C497 C 0.26653 0.71502 0.5723 0.0
C498 C 0.31354 0.65452 0.54559 0.0
C499 C 0.33517 0.67059 0.54848 0.0
C500 C 0.30883 0.63633 0.53498 0.0
C501 C 0.35179 0.66811 0.54074 0.0
C502 C 0.32592 0.63446 0.52746 0.0
N503 N 0.34687 0.65025 0.53049 0.0
C504 C 0.32406 0.71832 0.58181 0.0
C505 C 0.31398 0.71053 0.55007 0.0
C506 C 0.33852 0.73993 0.5776 0.0
N507 N 0.31222 0.70417 0.56808 0.0
C508 C 0.32823 0.73193 0.54523 0.0
C509 C 0.34091 0.74695 0.55906 0.0
H510 H 0.32264 0.71277 0.59597 0.0
H511 H 0.30462 0.69881 0.5394 0.0
C512 C 0.22504 0.61677 0.54103 0.0
N513 N 0.24671 0.62773 0.53733 0.0
C514 C 0.21 0.60841 0.5265 0.0
C515 C 0.2399 0.62265 0.50463 0.0
C516 C 0.25438 0.63083 0.51961 0.0
C517 C 0.21737 0.61139 0.508 0.0
H518 H 0.21948 0.61473 0.5553 0.0
H519 H 0.27171 0.63997 0.51709 0.0
O520 O 0.2993 0.66388 0.59644 0.0
O521 O 0.26226 0.62028 0.57881 0.0
O522 O 0.26147 0.66168 0.57207 0.0
O523 O 0.29709 0.65638 0.55348 0.0
H524 H 0.30323 0.63723 0.61936 0.0
H525 H 0.29288 0.69121 0.61652 0.0
H526 H 0.30121 0.63833 0.65376 0.0
H527 H 0.29091 0.69127 0.65098 0.0
H528 H 0.2456 0.55779 0.54912 0.0
H529 H 0.27098 0.60153 0.60656 0.0
H530 H 0.24964 0.59409 0.54956 0.0
H531 H 0.26628 0.565 0.60517 0.0
H532 H 0.22942 0.60612 0.64957 0.0
H533 H 0.2143 0.65468 0.63244 0.0
H534 H 0.36364 0.65241 0.60168 0.0
H535 H 0.3252 0.59157 0.57296 0.0
H536 H 0.25284 0.66864 0.53778 0.0
H537 H 0.27011 0.69552 0.59303 0.0
H538 H 0.25354 0.70184 0.52748 0.0
H539 H 0.27048 0.72826 0.58175 0.0
H540 H 0.33905 0.6847 0.55678 0.0
H541 H 0.29216 0.62363 0.53282 0.0
H542 H 0.36862 0.68036 0.54293 0.0
H543 H 0.32254 0.62041 0.51931 0.0
H544 H 0.34786 0.75096 0.58872 0.0
H545 H 0.32981 0.73647 0.53071 0.0
H546 H 0.19279 0.59966 0.5297 0.0
H547 H 0.24625 0.62555 0.49057 0.0
Li548 Li 0.66678 0.28647 0.74043 0.0
Li549 Li 0.63172 0.25656 0.75441 0.0
Li550 Li 0.63854 0.25848 0.72223 0.0
Li551 Li 0.63013 0.28414 0.73485 0.0
C552 C 0.65909 0.23962 0.73472 0.0
N553 N 0.66458 0.20785 0.7183 0.0
C554 C 0.64267 0.21803 0.73593 0.0
C555 C 0.67836 0.24506 0.72528 0.0
C556 C 0.64573 0.20221 0.72748 0.0
C557 C 0.68082 0.22875 0.71706 0.0
C558 C 0.6511 0.29861 0.77525 0.0
C559 C 0.64377 0.31729 0.79965 0.0
N560 N 0.66155 0.32005 0.80907 0.0
C561 C 0.66935 0.30173 0.78515 0.0
C562 C 0.63825 0.30654 0.78251 0.0
C563 C 0.67433 0.31256 0.80223 0.0
C564 C 0.70343 0.32764 0.74259 0.0
N565 N 0.69657 0.3064 0.74486 0.0
C566 C 0.73163 0.31478 0.75584 0.0
C567 C 0.71013 0.29971 0.75124 0.0
C568 C 0.73909 0.33688 0.75403 0.0
C569 C 0.72474 0.34325 0.74713 0.0
H570 H 0.69217 0.33243 0.73762 0.0
H571 H 0.70406 0.28272 0.75327 0.0
C572 C 0.60194 0.21829 0.77312 0.0
N573 N 0.61994 0.23805 0.77551 0.0
C574 C 0.59326 0.20404 0.78806 0.0
C575 C 0.62191 0.2306 0.80761 0.0
C576 C 0.63005 0.2443 0.7923 0.0
C577 C 0.6033 0.21012 0.80561 0.0
H578 H 0.59445 0.21349 0.75954 0.0
H579 H 0.64456 0.25981 0.79381 0.0
C580 C 0.65471 0.292 0.69849 0.0
N581 N 0.65595 0.29532 0.66018 0.0
C582 C 0.63548 0.28489 0.68844 0.0
C583 C 0.67459 0.30098 0.68912 0.0
C584 C 0.63645 0.28665 0.66906 0.0
C585 C 0.67487 0.30248 0.66972 0.0
C586 C 0.59111 0.24743 0.74162 0.0
C587 C 0.57174 0.23394 0.73213 0.0
C588 C 0.59035 0.25624 0.7588 0.0
C589 C 0.55195 0.22948 0.74002 0.0
C590 C 0.57025 0.25138 0.76624 0.0
N591 N 0.55162 0.23821 0.75677 0.0
C592 C 0.61362 0.22353 0.69822 0.0
C593 C 0.65034 0.24485 0.68869 0.0
C594 C 0.60907 0.20982 0.68295 0.0
N595 N 0.63393 0.24071 0.70074 0.0
C596 C 0.64652 0.23157 0.67322 0.0
C597 C 0.62563 0.2138 0.67016 0.0
H598 H 0.60094 0.22044 0.70812 0.0
H599 H 0.66646 0.25837 0.69118 0.0
C600 C 0.62974 0.32275 0.73743 0.0
N601 N 0.61794 0.30206 0.73131 0.0
C602 C 0.62246 0.33721 0.73427 0.0
C603 C 0.59102 0.30882 0.71847 0.0
C604 C 0.59888 0.29487 0.722 0.0
C605 C 0.60295 0.33036 0.72452 0.0
H606 H 0.64506 0.32812 0.74446 0.0
H607 H 0.59 0.27844 0.71697 0.0
O608 O 0.65619 0.25536 0.74256 0.0
O609 O 0.64624 0.28848 0.75827 0.0
O610 O 0.65409 0.29016 0.71743 0.0
O611 O 0.61059 0.25208 0.73387 0.0
H612 H 0.62762 0.21358 0.7431 0.0
H613 H 0.69114 0.26171 0.72403 0.0
H614 H 0.6331 0.18545 0.72819 0.0
H615 H 0.69558 0.23272 0.70959 0.0
H616 H 0.63395 0.32347 0.80543 0.0
H617 H 0.6794 0.29559 0.77984 0.0
H618 H 0.62417 0.30448 0.775 0.0
H619 H 0.68835 0.31499 0.81007 0.0
H620 H 0.74207 0.30923 0.76137 0.0
H621 H 0.7299 0.36012 0.7454 0.0
H622 H 0.57909 0.18829 0.78579 0.0
H623 H 0.63007 0.23607 0.82091 0.0
H624 H 0.61997 0.27782 0.69553 0.0
H625 H 0.68961 0.30657 0.69675 0.0
H626 H 0.62168 0.28107 0.66108 0.0
H627 H 0.69012 0.3093 0.66225 0.0
H628 H 0.57199 0.22709 0.71875 0.0
H629 H 0.60505 0.26655 0.76642 0.0
H630 H 0.53686 0.21909 0.73281 0.0
H631 H 0.56946 0.25805 0.77956 0.0
H632 H 0.59269 0.19642 0.68105 0.0
H633 H 0.65985 0.23504 0.66387 0.0
H634 H 0.63238 0.35377 0.73888 0.0
H635 H 0.57587 0.30286 0.71096 0.0
Li636 Li 0.38508 0.63378 0.9313 0.0
Li637 Li 0.39185 0.66743 0.91624 0.0
Li638 Li 0.35702 0.63234 0.9108 0.0
Li639 Li 0.39075 0.6387 0.89657 0.0
C640 C 0.3633 0.64958 0.95247 0.0
N641 N 0.3531 0.65041 0.98951 0.0
C642 C 0.37391 0.66882 0.96265 0.0
C643 C 0.34729 0.63084 0.96109 0.0
C644 C 0.36858 0.66889 0.98137 0.0
C645 C 0.34243 0.63156 0.97984 0.0
C646 C 0.4325 0.67041 0.9202 0.0
C647 C 0.46665 0.69974 0.90915 0.0
N648 N 0.47537 0.70172 0.92637 0.0
C649 C 0.4419 0.67259 0.93773 0.0
C650 C 0.44505 0.68396 0.90573 0.0
C651 C 0.46356 0.68856 0.94059 0.0
C652 C 0.39162 0.60355 0.95058 0.0
N653 N 0.39127 0.62218 0.95268 0.0
C654 C 0.40203 0.62492 0.98451 0.0
C655 C 0.39641 0.63293 0.96921 0.0
C656 C 0.40282 0.60584 0.98275 0.0
C657 C 0.39735 0.59503 0.96551 0.0
H658 H 0.38788 0.59554 0.93718 0.0
H659 H 0.39679 0.64807 0.97042 0.0
C660 C 0.3937 0.70695 0.91069 0.0
N661 N 0.40363 0.69769 0.91976 0.0
C662 C 0.40041 0.72864 0.91364 0.0
C663 C 0.42751 0.73096 0.93519 0.0
C664 C 0.42025 0.70922 0.93185 0.0
C665 C 0.41741 0.74091 0.92619 0.0
H666 H 0.38021 0.69731 0.90145 0.0
H667 H 0.42741 0.70144 0.93941 0.0
C668 C 0.35148 0.59258 0.9106 0.0
N669 N 0.31506 0.55184 0.9102 0.0
C670 C 0.34398 0.5812 0.89385 0.0
C671 C 0.34068 0.58306 0.92719 0.0
C672 C 0.32548 0.56068 0.89392 0.0
C673 C 0.32224 0.5625 0.92669 0.0
C674 C 0.38094 0.66368 0.87505 0.0
C675 C 0.36639 0.65404 0.86028 0.0
C676 C 0.40104 0.6822 0.87186 0.0
C677 C 0.37239 0.66284 0.84247 0.0
C678 C 0.40644 0.69053 0.85386 0.0
N679 N 0.39213 0.68074 0.83965 0.0
C680 C 0.31403 0.62267 0.91925 0.0
C681 C 0.31836 0.60998 0.88998 0.0
C682 C 0.29217 0.61535 0.91542 0.0
N683 N 0.32664 0.61999 0.90653 0.0
C684 C 0.29667 0.60262 0.88547 0.0
C685 C 0.28329 0.60553 0.89817 0.0
H686 H 0.32106 0.63105 0.93215 0.0
H687 H 0.3288 0.60827 0.88002 0.0
C688 C 0.42381 0.63719 0.87571 0.0
N689 N 0.40274 0.63235 0.8754 0.0
C690 C 0.43269 0.63221 0.86045 0.0
C691 C 0.39781 0.61669 0.84508 0.0
C692 C 0.38971 0.62225 0.86053 0.0
C693 C 0.41963 0.6217 0.84485 0.0
H694 H 0.43371 0.64476 0.88785 0.0
H695 H 0.37291 0.61826 0.86076 0.0
O696 O 0.36844 0.64922 0.93414 0.0
O697 O 0.41128 0.65485 0.91718 0.0
O698 O 0.36941 0.61283 0.91078 0.0
O699 O 0.37545 0.65516 0.89257 0.0
H700 H 0.38618 0.68353 0.95621 0.0
H701 H 0.33861 0.61592 0.95338 0.0
H702 H 0.37675 0.68364 0.98943 0.0
H703 H 0.33013 0.61715 0.98669 0.0
H704 H 0.4765 0.71036 0.89808 0.0
H705 H 0.43256 0.66215 0.94905 0.0
H706 H 0.43829 0.68219 0.89196 0.0
H707 H 0.47097 0.69049 0.95413 0.0
H708 H 0.40592 0.63372 0.99755 0.0
H709 H 0.39808 0.58048 0.96339 0.0
H710 H 0.39187 0.73551 0.90666 0.0
H711 H 0.44071 0.7398 0.94494 0.0
H712 H 0.35225 0.58819 0.88091 0.0
H713 H 0.34653 0.5914 0.94032 0.0
H714 H 0.3194 0.55178 0.88103 0.0
H715 H 0.31367 0.555 0.93943 0.0
H716 H 0.35067 0.63986 0.86248 0.0
H717 H 0.41229 0.69017 0.88316 0.0
H718 H 0.36133 0.65544 0.83089 0.0
H719 H 0.42198 0.70482 0.8512 0.0
H720 H 0.28247 0.61773 0.92575 0.0
H721 H 0.29076 0.59554 0.87187 0.0
H722 H 0.44965 0.63667 0.86089 0.0
H723 H 0.38694 0.60821 0.83361 0.0
Li724 Li 0.73884 0.39567 0.07734 0.0
Li725 Li 0.76716 0.39103 0.09142 0.0
Li726 Li 0.7654 0.39433 0.05711 0.0
Li727 Li 0.73861 0.36155 0.07275 0.0
C728 C 0.77286 0.43571 0.07753 0.0
N729 N 0.77636 0.47574 0.0791 0.0
C730 C 0.775 0.44582 0.0947 0.0
C731 C 0.77285 0.44609 0.06114 0.0
C732 C 0.77664 0.46602 0.09521 0.0
C733 C 0.77455 0.46629 0.06223 0.0
C734 C 0.73125 0.36028 0.11082 0.0
C735 C 0.73776 0.33461 0.12674 0.0
N736 N 0.72272 0.33194 0.13977 0.0
C737 C 0.71586 0.35729 0.12436 0.0
C738 C 0.74232 0.34887 0.112 0.0
C739 C 0.71178 0.34289 0.13889 0.0
C740 C 0.70564 0.40571 0.0694 0.0
N741 N 0.72031 0.40711 0.08223 0.0
C742 C 0.70622 0.42139 0.10485 0.0
C743 C 0.72086 0.41477 0.09968 0.0
C744 C 0.69063 0.41982 0.092 0.0
C745 C 0.69065 0.41213 0.07398 0.0
H746 H 0.70497 0.39888 0.05585 0.0
H747 H 0.73232 0.41518 0.10975 0.0
C748 C 0.80566 0.40022 0.11025 0.0
N749 N 0.78586 0.39845 0.11231 0.0
C750 C 0.81968 0.40568 0.12547 0.0
C751 C 0.79272 0.40765 0.14457 0.0
C752 C 0.77924 0.40216 0.12898 0.0
C753 C 0.81324 0.40942 0.14295 0.0
H754 H 0.81056 0.39741 0.09676 0.0
H755 H 0.7635 0.40092 0.13013 0.0
C756 C 0.72686 0.37824 0.03639 0.0
N757 N 0.71427 0.37748 -0.00011 0.0
C758 C 0.71663 0.35884 0.0264 0.0
C759 C 0.7305 0.3972 0.02785 0.0
C760 C 0.71045 0.35881 0.00795 0.0
C761 C 0.72406 0.3965 0.00938 0.0
C762 C 0.77684 0.36213 0.06017 0.0
C763 C 0.76603 0.35352 0.04336 0.0
C764 C 0.79394 0.35902 0.06541 0.0
C765 C 0.77259 0.34203 0.03196 0.0
C766 C 0.80001 0.3474 0.05365 0.0
N767 N 0.78931 0.33924 0.0373 0.0
C768 C 0.80375 0.42331 0.03884 0.0
C769 C 0.77748 0.39737 0.01832 0.0
C770 C 0.81858 0.43262 0.02424 0.0
N771 N 0.78362 0.40607 0.03566 0.0
C772 C 0.79172 0.40625 0.00331 0.0
C773 C 0.81259 0.42409 0.00618 0.0
H774 H 0.80832 0.42977 0.05279 0.0
H775 H 0.7617 0.38334 0.01607 0.0
C776 C 0.69785 0.32547 0.0695 0.0
N777 N 0.71918 0.33134 0.0705 0.0
C778 C 0.68204 0.30406 0.06614 0.0
C779 C 0.71035 0.2949 0.0655 0.0
C780 C 0.72561 0.3165 0.06916 0.0
C781 C 0.68823 0.28849 0.06356 0.0
H782 H 0.69322 0.33761 0.07087 0.0
H783 H 0.7426 0.32143 0.07047 0.0
O784 O 0.77103 0.41586 0.07676 0.0
O785 O 0.73545 0.37443 0.0966 0.0
O786 O 0.73308 0.37855 0.05445 0.0
O787 O 0.77071 0.37347 0.07155 0.0
H788 H 0.77523 0.43805 0.1075 0.0
H789 H 0.77169 0.43869 0.04772 0.0
H790 H 0.77815 0.47397 0.10841 0.0
H791 H 0.77448 0.47447 0.04965 0.0
H792 H 0.7462 0.32568 0.12782 0.0
H793 H 0.7072 0.36606 0.12365 0.0
H794 H 0.75432 0.35099 0.1017 0.0
H795 H 0.69991 0.34043 0.14948 0.0
H796 H 0.70687 0.42735 0.11885 0.0
H797 H 0.67866 0.41026 0.06375 0.0
H798 H 0.83527 0.4067 0.12362 0.0
H799 H 0.78723 0.41073 0.15769 0.0
H800 H 0.7136 0.34398 0.03277 0.0
H801 H 0.73818 0.41229 0.0354 0.0
H802 H 0.70261 0.34394 4e-05 0.0
H803 H 0.72684 0.41107 0.00259 0.0
H804 H 0.75258 0.35548 0.03927 0.0
H805 H 0.80238 0.36542 0.07845 0.0
H806 H 0.76434 0.33528 0.01891 0.0
H807 H 0.81321 0.34486 0.05753 0.0
H808 H 0.83449 0.44643 0.02702 0.0
H809 H 0.7866 0.39895 0.98966 0.0
H810 H 0.66517 0.29985 0.06529 0.0
H811 H 0.71597 0.28356 0.06358 0.0
Li812 Li 0.39081 0.77185 0.25232 0.0
Li813 Li 0.35585 0.7423 0.23851 0.0
Li814 Li 0.38991 0.74437 0.23196 0.0
Li815 Li 0.38281 0.77061 0.21858 0.0
C816 C 0.37684 0.72361 0.26413 0.0
N817 N 0.37975 0.68941 0.27808 0.0
C818 C 0.35905 0.70267 0.26291 0.0
C819 C 0.39601 0.72719 0.27266 0.0
C820 C 0.36086 0.68558 0.27001 0.0
C821 C 0.39719 0.70968 0.27956 0.0
C822 C 0.35286 0.78028 0.23361 0.0
C823 C 0.3232 0.7749 0.21385 0.0
N824 N 0.32498 0.79344 0.2206 0.0
C825 C 0.35444 0.79929 0.24034 0.0
C826 C 0.33715 0.76798 0.22025 0.0
C827 C 0.34017 0.80566 0.2336 0.0
C828 C 0.41443 0.81212 0.26987 0.0
N829 N 0.40311 0.79055 0.27299 0.0
C830 C 0.40887 0.79618 0.30575 0.0
C831 C 0.4002 0.78236 0.29044 0.0
C832 C 0.4206 0.8186 0.30302 0.0
C833 C 0.4234 0.82652 0.28477 0.0
H834 H 0.41636 0.81809 0.25579 0.0
H835 H 0.39109 0.7651 0.29245 0.0
C836 C 0.31272 0.70902 0.23104 0.0
N837 N 0.32598 0.72382 0.24382 0.0
C838 C 0.29111 0.69426 0.23551 0.0
C839 C 0.29722 0.71045 0.26613 0.0
C840 C 0.31867 0.72495 0.26103 0.0
C841 C 0.28317 0.69465 0.25336 0.0
H842 H 0.31905 0.70846 0.2175 0.0
H843 H 0.32972 0.73677 0.27095 0.0
C844 C 0.4317 0.78408 0.23234 0.0
N845 N 0.47601 0.80047 0.23517 0.0
C846 C 0.44496 0.79224 0.21661 0.0
C847 C 0.44102 0.78445 0.24954 0.0
C848 C 0.46731 0.80038 0.21831 0.0
C849 C 0.46345 0.79276 0.25068 0.0
C850 C 0.37139 0.73524 0.19634 0.0
C851 C 0.39305 0.74528 0.19049 0.0
C852 C 0.35485 0.72165 0.18406 0.0
C853 C 0.39782 0.7415 0.17248 0.0
C854 C 0.36028 0.7183 0.16614 0.0
N855 N 0.38148 0.7282 0.16077 0.0
C856 C 0.3862 0.70452 0.22433 0.0
C857 C 0.42302 0.73225 0.22697 0.0
C858 C 0.39243 0.68924 0.221 0.0
N859 N 0.40142 0.72554 0.22741 0.0
C860 C 0.43 0.71759 0.22332 0.0
C861 C 0.41459 0.69579 0.22035 0.0
H862 H 0.36913 0.69962 0.22445 0.0
H863 H 0.43496 0.7489 0.22932 0.0
C864 C 0.40603 0.80853 0.19824 0.0
N865 N 0.38749 0.789 0.19807 0.0
C866 C 0.41091 0.82272 0.18342 0.0
C867 C 0.37715 0.79666 0.16877 0.0
C868 C 0.37306 0.78286 0.18379 0.0
C869 C 0.3964 0.81688 0.16836 0.0
H870 H 0.41715 0.81301 0.20985 0.0
H871 H 0.35838 0.76725 0.18405 0.0
O872 O 0.37553 0.74049 0.25692 0.0
O873 O 0.36684 0.77394 0.23996 0.0
O874 O 0.4098 0.77622 0.23091 0.0
O875 O 0.36623 0.73888 0.21385 0.0
H876 H 0.34409 0.69959 0.25635 0.0
H877 H 0.40988 0.74329 0.27384 0.0
H878 H 0.34728 0.66927 0.26904 0.0
H879 H 0.41198 0.7122 0.28607 0.0
H880 H 0.311 0.76557 0.20347 0.0
H881 H 0.36659 0.80901 0.25065 0.0
H882 H 0.33589 0.75336 0.21473 0.0
H883 H 0.34119 0.82034 0.23868 0.0
H884 H 0.40656 0.78938 0.31956 0.0
H885 H 0.43211 0.84367 0.28205 0.0
H886 H 0.28082 0.68254 0.22516 0.0
H887 H 0.29195 0.71115 0.28014 0.0
H888 H 0.43807 0.79224 0.2032 0.0
H889 H 0.4311 0.77833 0.26187 0.0
H890 H 0.47774 0.80666 0.20624 0.0
H891 H 0.47086 0.79308 0.26389 0.0
H892 H 0.40605 0.75584 0.19972 0.0
H893 H 0.33798 0.71386 0.18828 0.0
H894 H 0.41453 0.74915 0.1678 0.0
H895 H 0.34764 0.70784 0.1565 0.0
H896 H 0.3801 0.67259 0.21855 0.0
H897 H 0.44725 0.72319 0.22292 0.0
H898 H 0.42609 0.83794 0.18365 0.0
H899 H 0.3653 0.79157 0.15766 0.0
C900 C 0.18236 0.6029 0.30656 0.0
C901 C 0.1619 0.59558 0.29847 0.0
C902 C 0.20129 0.61933 0.29828 0.0
C903 C 0.19978 0.62852 0.28138 0.0
C904 C 0.17916 0.62117 0.2731 0.0
C905 C 0.1604 0.60486 0.28183 0.0
C906 C 0.22293 0.6269 0.3077 0.0
C907 C 0.17697 0.63043 0.25497 0.0
C908 C 0.24828 0.68349 0.27048 0.0
C909 C 0.26079 0.67802 0.25903 0.0
C910 C 0.22798 0.66762 0.2773 0.0
C911 C 0.21992 0.64576 0.27248 0.0
C912 C 0.23202 0.64022 0.26031 0.0
C913 C 0.25234 0.6564 0.2538 0.0
C914 C 0.21556 0.67416 0.29026 0.0
C915 C 0.22392 0.6171 0.25478 0.0
H916 H 0.1835 0.59599 0.31958 0.0
H917 H 0.14459 0.59914 0.27554 0.0
H918 H 0.23388 0.62446 0.29828 0.0
H919 H 0.23092 0.64441 0.31074 0.0
H920 H 0.22125 0.61826 0.32093 0.0
H921 H 0.15977 0.62296 0.25036 0.0
H922 H 0.18381 0.64806 0.25645 0.0
H923 H 0.18643 0.62795 0.24393 0.0
H924 H 0.25452 0.7002 0.27432 0.0
H925 H 0.26196 0.65194 0.24517 0.0
H926 H 0.21462 0.66734 0.30429 0.0
H927 H 0.19864 0.66755 0.28524 0.0
H928 H 0.22331 0.69193 0.2916 0.0
H929 H 0.22385 0.60787 0.26714 0.0
H930 H 0.23421 0.61571 0.24385 0.0
H931 H 0.20696 0.60945 0.24959 0.0
C932 C 0.56543 0.16729 0.45284 0.0
C933 C 0.58388 0.16615 0.45781 0.0
C934 C 0.56732 0.18666 0.4466 0.0
C935 C 0.58818 0.20526 0.44503 0.0
C936 C 0.6069 0.20401 0.44928 0.0
C937 C 0.60452 0.18457 0.45575 0.0
C938 C 0.54697 0.18741 0.44233 0.0
C939 C 0.62946 0.22344 0.44761 0.0
C940 C 0.59678 0.25369 0.41703 0.0
C941 C 0.59854 0.26807 0.43116 0.0
C942 C 0.59296 0.233 0.42127 0.0
C943 C 0.59051 0.2264 0.44008 0.0
C944 C 0.59151 0.24052 0.45436 0.0
C945 C 0.5957 0.2612 0.44975 0.0
C946 C 0.59218 0.21846 0.40568 0.0
C947 C 0.58879 0.23401 0.47459 0.0
H948 H 0.54943 0.1531 0.45407 0.0
H949 H 0.6189 0.18409 0.45985 0.0
H950 H 0.54542 0.1984 0.45232 0.0
H951 H 0.54797 0.19396 0.42818 0.0
H952 H 0.53206 0.17128 0.44321 0.0
H953 H 0.64237 0.21936 0.44998 0.0
H954 H 0.63179 0.23072 0.43361 0.0
H955 H 0.63152 0.23585 0.45796 0.0
H956 H 0.59856 0.25864 0.40261 0.0
H957 H 0.59739 0.27222 0.46084 0.0
H958 H 0.57687 0.20268 0.40637 0.0
H959 H 0.60582 0.2153 0.40722 0.0
H960 H 0.59335 0.22559 0.39174 0.0
H961 H 0.57354 0.21839 0.47655 0.0
H962 H 0.58838 0.24621 0.48387 0.0
H963 H 0.60244 0.23178 0.47899 0.0
C964 C 0.4198 0.57517 0.62883 0.0
C965 C 0.44203 0.59006 0.62643 0.0
C966 C 0.40385 0.57848 0.62065 0.0
C967 C 0.41025 0.59729 0.61005 0.0
C968 C 0.4326 0.61178 0.60673 0.0
C969 C 0.44821 0.6079 0.61484 0.0
C970 C 0.38016 0.56248 0.62428 0.0
C971 C 0.44011 0.63207 0.59557 0.0
C972 C 0.36843 0.60291 0.58144 0.0
C973 C 0.36279 0.61459 0.59371 0.0
C974 C 0.3837 0.59694 0.58658 0.0
C975 C 0.39377 0.60305 0.60428 0.0
C976 C 0.38817 0.61483 0.61668 0.0
C977 C 0.37263 0.62025 0.61133 0.0
C978 C 0.38908 0.58413 0.57309 0.0
C979 C 0.39862 0.62178 0.63566 0.0
H980 H 0.41479 0.56143 0.63787 0.0
H981 H 0.46532 0.61924 0.61255 0.0
H982 H 0.37339 0.56971 0.63393 0.0
H983 H 0.37067 0.55842 0.61117 0.0
H984 H 0.37781 0.54737 0.63058 0.0
H985 H 0.45787 0.64056 0.59275 0.0
H986 H 0.43131 0.62832 0.58211 0.0
H987 H 0.43635 0.64319 0.60334 0.0
H988 H 0.36111 0.59863 0.56773 0.0
H989 H 0.36805 0.6288 0.62111 0.0
H990 H 0.38599 0.56891 0.57968 0.0
H991 H 0.4066 0.59335 0.56945 0.0
H992 H 0.3794 0.58014 0.56006 0.0
H993 H 0.39505 0.60743 0.64402 0.0
H994 H 0.39282 0.63131 0.64348 0.0
H995 H 0.41655 0.63168 0.63419 0.0
C996 C 0.85858 0.43463 0.77791 0.0
C997 C 0.86516 0.43167 0.79549 0.0
C998 C 0.83889 0.4188 0.76998 0.0
C999 C 0.8254 0.39964 0.77996 0.0
C1000 C 0.83231 0.39627 0.79745 0.0
C1001 C 0.85214 0.4123 0.80497 0.0
C1002 C 0.8322 0.42287 0.75121 0.0
C1003 C 0.81831 0.37614 0.80859 0.0
C1004 C 0.76459 0.37085 0.77102 0.0
C1005 C 0.76136 0.35323 0.76011 0.0
C1006 C 0.78537 0.38612 0.77744 0.0
C1007 C 0.80342 0.3838 0.77275 0.0
C1008 C 0.80032 0.3662 0.76157 0.0
C1009 C 0.77929 0.35105 0.75545 0.0
C1010 C 0.78796 0.40455 0.78949 0.0
C1011 C 0.8192 0.36331 0.75616 0.0
H1012 H 0.86872 0.4495 0.77045 0.0
H1013 H 0.85702 0.41004 0.81866 0.0
H1014 H 0.82777 0.40903 0.74173 0.0
H1015 H 0.81758 0.42448 0.75279 0.0
H1016 H 0.84528 0.43774 0.7446 0.0
H1017 H 0.82663 0.37536 0.82137 0.0
H1018 H 0.80303 0.37562 0.81272 0.0
H1019 H 0.81373 0.36159 0.8 0.0
H1020 H 0.75074 0.37244 0.7749 0.0
H1021 H 0.77688 0.33755 0.74689 0.0
H1022 H 0.79969 0.42016 0.78301 0.0
H1023 H 0.79465 0.40397 0.80327 0.0
H1024 H 0.77232 0.40417 0.79169 0.0
H1025 H 0.83178 0.37789 0.74888 0.0
H1026 H 0.81415 0.34909 0.74695 0.0
H1027 H 0.82688 0.36133 0.76883 0.0
C1028 C 0.42081 0.8488 0.95585 0.0
C1029 C 0.44175 0.86683 0.95771 0.0
C1030 C 0.41771 0.829 0.94941 0.0
C1031 C 0.436 0.8271 0.94476 0.0
C1032 C 0.45715 0.84537 0.94604 0.0
C1033 C 0.45978 0.86502 0.95251 0.0
C1034 C 0.39488 0.8099 0.94827 0.0
C1035 C 0.47702 0.84397 0.94114 0.0
C1036 C 0.4277 0.77088 0.94917 0.0
C1037 C 0.42366 0.76354 0.93066 0.0
C1038 C 0.43236 0.79175 0.95384 0.0
C1039 C 0.43292 0.80564 0.93968 0.0
C1040 C 0.42936 0.79855 0.92092 0.0
C1041 C 0.42477 0.77758 0.91663 0.0
C1042 C 0.43603 0.79869 0.97403 0.0
C1043 C 0.42988 0.81294 0.90545 0.0
H1044 H 0.4068 0.84992 0.96012 0.0
H1045 H 0.47598 0.87893 0.95373 0.0
H1046 H 0.3918 0.80244 0.93422 0.0
H1047 H 0.39296 0.79748 0.95842 0.0
H1048 H 0.38236 0.81438 0.95125 0.0
H1049 H 0.49218 0.85995 0.94164 0.0
H1050 H 0.47867 0.83306 0.95102 0.0
H1051 H 0.4753 0.83701 0.92699 0.0
H1052 H 0.42655 0.76006 0.96014 0.0
H1053 H 0.42195 0.77212 0.90228 0.0
H1054 H 0.42296 0.80167 0.97884 0.0
H1055 H 0.45169 0.81402 0.97564 0.0
H1056 H 0.43623 0.7864 0.98321 0.0
H1057 H 0.41656 0.81651 0.90747 0.0
H1058 H 0.42801 0.80546 0.8915 0.0
H1059 H 0.44542 0.82854 0.9058 0.0
C1060 C 0.58432 0.42552 0.1174 0.0
C1061 C 0.58919 0.44337 0.12875 0.0
C1062 C 0.60088 0.42243 0.11015 0.0
C1063 C 0.62288 0.43772 0.11407 0.0
C1064 C 0.62798 0.45631 0.1247 0.0
C1065 C 0.6111 0.45882 0.13203 0.0
C1066 C 0.59478 0.40234 0.09892 0.0
C1067 C 0.65125 0.4731 0.12904 0.0
C1068 C 0.66337 0.41813 0.11502 0.0
C1069 C 0.67365 0.42496 0.09769 0.0
C1070 C 0.64687 0.42221 0.12049 0.0
C1071 C 0.64046 0.43344 0.10833 0.0
C1072 C 0.65081 0.44049 0.09083 0.0
C1073 C 0.66727 0.43612 0.0857 0.0
C1074 C 0.63615 0.41432 0.13922 0.0
C1075 C 0.64452 0.45265 0.07757 0.0
H1076 H 0.5675 0.4137 0.11446 0.0
H1077 H 0.61515 0.47252 0.14098 0.0
H1078 H 0.60358 0.40662 0.08544 0.0
H1079 H 0.5997 0.3921 0.10657 0.0
H1080 H 0.57703 0.39271 0.09612 0.0
H1081 H 0.65256 0.48764 0.13582 0.0
H1082 H 0.65842 0.46617 0.13847 0.0
H1083 H 0.66113 0.47808 0.11612 0.0
H1084 H 0.66792 0.40915 0.12422 0.0
H1085 H 0.67528 0.44161 0.07235 0.0
H1086 H 0.61844 0.40314 0.13737 0.0
H1087 H 0.63812 0.42809 0.14777 0.0
H1088 H 0.64304 0.40584 0.14704 0.0
H1089 H 0.62704 0.44272 0.07393 0.0
H1090 H 0.65422 0.45711 0.06453 0.0
H1091 H 0.64683 0.46756 0.08437 0.0
C1092 C 0.42838 0.86992 0.53156 0.0
C1093 C 0.44063 0.86883 0.51671 0.0
C1094 C 0.412 0.85107 0.54002 0.0
C1095 C 0.40765 0.83071 0.5333 0.0
C1096 C 0.42006 0.82956 0.51838 0.0
C1097 C 0.43641 0.84862 0.51031 0.0
C1098 C 0.39925 0.8529 0.55603 0.0
C1099 C 0.4158 0.80817 0.51069 0.0
C1100 C 0.37811 0.77964 0.56197 0.0
C1101 C 0.35732 0.76944 0.5539 0.0
C1102 C 0.39441 0.80006 0.55598 0.0
C1103 C 0.38985 0.81047 0.54149 0.0
C1104 C 0.36868 0.80064 0.53379 0.0
C1105 C 0.35266 0.78029 0.54012 0.0
C1106 C 0.41676 0.81006 0.56461 0.0
C1107 C 0.36318 0.81123 0.51831 0.0
H1108 H 0.4317 0.88553 0.53661 0.0
H1109 H 0.44557 0.84768 0.49863 0.0
H1110 H 0.38179 0.84506 0.55226 0.0
H1111 H 0.40048 0.84435 0.56836 0.0
H1112 H 0.40506 0.86993 0.55995 0.0
H1113 H 0.42712 0.81009 0.49921 0.0
H1114 H 0.41745 0.79853 0.52189 0.0
H1115 H 0.39889 0.79883 0.50536 0.0
H1116 H 0.38196 0.77131 0.57248 0.0
H1117 H 0.33653 0.77269 0.53406 0.0
H1118 H 0.42247 0.82694 0.56887 0.0
H1119 H 0.42848 0.81046 0.55419 0.0
H1120 H 0.41707 0.80097 0.57696 0.0
H1121 H 0.36774 0.8279 0.52233 0.0
H1122 H 0.34561 0.80219 0.51471 0.0
H1123 H 0.37267 0.8123 0.50567 0.0
C1124 C 0.59785 0.43187 0.69064 0.0
C1125 C 0.57742 0.43032 0.69145 0.0
C1126 C 0.60078 0.41507 0.69689 0.0
C1127 C 0.58283 0.39616 0.70413 0.0
C1128 C 0.5622 0.39456 0.70525 0.0
C1129 C 0.55973 0.41165 0.69885 0.0
C1130 C 0.62303 0.41739 0.69536 0.0
C1131 C 0.54272 0.37468 0.71296 0.0
C1132 C 0.58831 0.34634 0.70191 0.0
C1133 C 0.5958 0.34597 0.71987 0.0
C1134 C 0.58326 0.36213 0.6968 0.0
C1135 C 0.58571 0.37792 0.70998 0.0
C1136 C 0.5925 0.37717 0.72833 0.0
C1137 C 0.5975 0.36123 0.73305 0.0
C1138 C 0.57615 0.36243 0.67707 0.0
C1139 C 0.59518 0.39365 0.74281 0.0
H1140 H 0.61152 0.44604 0.6846 0.0
H1141 H 0.54393 0.4104 0.69963 0.0
H1142 H 0.62845 0.41514 0.7092 0.0
H1143 H 0.62227 0.40471 0.68598 0.0
H1144 H 0.63542 0.43338 0.68988 0.0
H1145 H 0.528 0.37626 0.71351 0.0
H1146 H 0.5391 0.36049 0.7042 0.0
H1147 H 0.54629 0.37139 0.7272 0.0
H1148 H 0.58719 0.33476 0.69159 0.0
H1149 H 0.60299 0.36084 0.74702 0.0
H1150 H 0.58873 0.37714 0.66993 0.0
H1151 H 0.56088 0.363 0.67703 0.0
H1152 H 0.57351 0.34813 0.66891 0.0
H1153 H 0.6086 0.40979 0.73866 0.0
H1154 H 0.59892 0.38983 0.7568 0.0
H1155 H 0.58017 0.39465 0.74376 0.0
C1156 C 0.1837 0.59813 0.84484 0.0
C1157 C 0.16307 0.58552 0.85278 0.0
C1158 C 0.20227 0.59996 0.85328 0.0
C1159 C 0.2002 0.58911 0.87022 0.0
C1160 C 0.17939 0.57631 0.87833 0.0
C1161 C 0.161 0.57452 0.86941 0.0
C1162 C 0.22412 0.61352 0.84404 0.0
C1163 C 0.17662 0.56478 0.89651 0.0
C1164 C 0.24787 0.58153 0.88177 0.0
C1165 C 0.26077 0.59976 0.89286 0.0
C1166 C 0.22767 0.57735 0.87489 0.0
C1167 C 0.22001 0.59155 0.87943 0.0
C1168 C 0.23235 0.60929 0.89142 0.0
C1169 C 0.25264 0.61328 0.89786 0.0
C1170 C 0.21501 0.55831 0.86206 0.0
C1171 C 0.22463 0.62469 0.89673 0.0
H1172 H 0.18527 0.60638 0.83183 0.0
H1173 H 0.14504 0.56483 0.87557 0.0
H1174 H 0.23513 0.62693 0.85342 0.0
H1175 H 0.23181 0.60364 0.84136 0.0
H1176 H 0.22284 0.62045 0.83065 0.0
H1177 H 0.15932 0.5553 0.90088 0.0
H1178 H 0.18321 0.55375 0.89529 0.0
H1179 H 0.186 0.57665 0.90762 0.0
H1180 H 0.25377 0.57073 0.87813 0.0
H1181 H 0.26251 0.62756 0.90619 0.0
H1182 H 0.21451 0.56414 0.8479 0.0
H1183 H 0.19797 0.54844 0.86691 0.0
H1184 H 0.22233 0.54787 0.86109 0.0
H1185 H 0.22511 0.63406 0.88434 0.0
H1186 H 0.23485 0.63617 0.90782 0.0
H1187 H 0.20753 0.61568 0.90163 0.0
C1188 C 0.59116 0.16873 0.03948 0.0
C1189 C 0.59512 0.16235 0.02209 0.0
C1190 C 0.60649 0.18837 0.04772 0.0
C1191 C 0.62641 0.2018 0.0385 0.0
C1192 C 0.63099 0.19497 0.02144 0.0
C1193 C 0.61524 0.17547 0.01337 0.0
C1194 C 0.60095 0.19518 0.06586 0.0
C1195 C 0.65216 0.20871 0.01127 0.0
C1196 C 0.65508 0.26232 0.04557 0.0
C1197 C 0.67187 0.26603 0.05794 0.0
C1198 C 0.63988 0.24145 0.03958 0.0
C1199 C 0.64169 0.22378 0.04579 0.0
C1200 C 0.65849 0.22729 0.05833 0.0
C1201 C 0.67329 0.24836 0.06435 0.0
C1202 C 0.62211 0.23838 0.0263 0.0
C1203 C 0.66106 0.20885 0.06509 0.0
H1204 H 0.57588 0.15857 0.04653 0.0
H1205 H 0.61843 0.17098 -0.00019 0.0
H1206 H 0.61421 0.19985 0.07613 0.0
H1207 H 0.59932 0.20955 0.06351 0.0
H1208 H 0.58552 0.18225 0.07195 0.0
H1209 H 0.65416 0.20012 0.99921 0.0
H1210 H 0.65278 0.22353 0.0061 0.0
H1211 H 0.66614 0.21382 0.02085 0.0
H1212 H 0.65404 0.27582 0.04016 0.0
H1213 H 0.686 0.25097 0.07409 0.0
H1214 H 0.60596 0.22641 0.03196 0.0
H1215 H 0.6241 0.23198 0.01281 0.0
H1216 H 0.62221 0.25364 0.02364 0.0
H1217 H 0.64582 0.19646 0.0718 0.0
H1218 H 0.67463 0.2142 0.07519 0.0
H1219 H 0.66418 0.20102 0.05308 0.0
C1220 C 0.43669 0.60404 0.18283 0.0
C1221 C 0.45662 0.60697 0.18911 0.0
C1222 C 0.42896 0.61749 0.18908 0.0
C1223 C 0.44132 0.63401 0.20217 0.0
C1224 C 0.4609 0.63628 0.2093 0.0
C1225 C 0.46845 0.62287 0.20251 0.0
C1226 C 0.4082 0.61476 0.18091 0.0
C1227 C 0.47428 0.65338 0.22356 0.0
C1228 C 0.4363 0.68413 0.20147 0.0
C1229 C 0.42163 0.68008 0.21602 0.0
C1230 C 0.44275 0.66921 0.1968 0.0
C1231 C 0.43467 0.64998 0.20721 0.0
C1232 C 0.4201 0.64598 0.22214 0.0
C1233 C 0.41354 0.661 0.22624 0.0
C1234 C 0.45798 0.67389 0.18055 0.0
C1235 C 0.4115 0.62589 0.23379 0.0
H1236 H 0.42766 0.59191 0.17229 0.0
H1237 H 0.48382 0.62505 0.20743 0.0
H1238 H 0.3969 0.61346 0.19215 0.0
H1239 H 0.41193 0.62916 0.17255 0.0
H1240 H 0.39979 0.60028 0.17182 0.0
H1241 H 0.48778 0.65153 0.22914 0.0
H1242 H 0.48133 0.66955 0.21715 0.0
H1243 H 0.46386 0.65281 0.23531 0.0
H1244 H 0.44238 0.69882 0.19347 0.0
H1245 H 0.4023 0.65797 0.23759 0.0
H1246 H 0.45022 0.66079 0.17003 0.0
H1247 H 0.47305 0.67442 0.18529 0.0
H1248 H 0.46252 0.68943 0.17372 0.0
H1249 H 0.40209 0.6114 0.22492 0.0
H1250 H 0.40085 0.62552 0.24528 0.0
H1251 H 0.42524 0.62481 0.23984 0.0
C1252 C 0.84888 0.45559 0.34504 0.0
C1253 C 0.86322 0.45171 0.35537 0.0
C1254 C 0.82916 0.4519 0.35271 0.0
C1255 C 0.82375 0.44432 0.37121 0.0
C1256 C 0.83856 0.44118 0.38195 0.0
C1257 C 0.85808 0.44478 0.37385 0.0
C1258 C 0.81371 0.45523 0.34072 0.0
C1259 C 0.83348 0.43339 0.4018 0.0
C1260 C 0.7774 0.448 0.39387 0.0
C1261 C 0.75991 0.427 0.39124 0.0
C1262 C 0.79844 0.45378 0.38784 0.0
C1263 C 0.80194 0.43825 0.37878 0.0
C1264 C 0.78437 0.41698 0.37627 0.0
C1265 C 0.76359 0.4116 0.38259 0.0
C1266 C 0.81683 0.47655 0.39094 0.0
C1267 C 0.78739 0.40001 0.3665 0.0
H1268 H 0.85266 0.46067 0.33067 0.0
H1269 H 0.86924 0.44195 0.38191 0.0
H1270 H 0.79862 0.43955 0.33833 0.0
H1271 H 0.80898 0.46594 0.34791 0.0
H1272 H 0.82089 0.46235 0.327 0.0
H1273 H 0.84747 0.43353 0.40875 0.0
H1274 H 0.82885 0.4436 0.40997 0.0
H1275 H 0.8194 0.4167 0.40205 0.0
H1276 H 0.77464 0.45989 0.40071 0.0
H1277 H 0.75006 0.39543 0.38029 0.0
H1278 H 0.82334 0.48447 0.37734 0.0
H1279 H 0.83036 0.47642 0.39846 0.0
H1280 H 0.81163 0.48639 0.39903 0.0
H1281 H 0.79298 0.40512 0.35201 0.0
H1282 H 0.77215 0.38409 0.36606 0.0
H1283 H 0.80011 0.39811 0.37363 0.0
C1284 C 0.14687 0.58526 0.41518 0.0
C1285 C 0.12934 0.56399 0.41468 0.0
C1286 C 0.16048 0.59331 0.43082 0.0
C1287 C 0.15657 0.57975 0.44631 0.0
C1288 C 0.13856 0.55847 0.44613 0.0
C1289 C 0.12514 0.55086 0.43033 0.0
C1290 C 0.17948 0.61612 0.4305 0.0
C1291 C 0.13382 0.54356 0.46243 0.0
C1292 C 0.20491 0.59262 0.47717 0.0
C1293 C 0.20164 0.60305 0.49231 0.0
C1294 C 0.19025 0.58478 0.46221 0.0
C1295 C 0.17191 0.58754 0.46233 0.0
C1296 C 0.16848 0.59802 0.47759 0.0
C1297 C 0.18336 0.60562 0.49241 0.0
C1298 C 0.1944 0.57358 0.44623 0.0
C1299 C 0.14922 0.60142 0.47814 0.0
H1300 H 0.15046 0.59543 0.40307 0.0
H1301 H 0.11147 0.5345 0.43013 0.0
H1302 H 0.17919 0.62508 0.44301 0.0
H1303 H 0.19495 0.6159 0.43085 0.0
H1304 H 0.17947 0.62501 0.4179 0.0
H1305 H 0.11861 0.52783 0.46045 0.0
H1306 H 0.1475 0.54054 0.4644 0.0
H1307 H 0.13236 0.55117 0.47541 0.0
H1308 H 0.21886 0.59037 0.47713 0.0
H1309 H 0.1809 0.61392 0.50396 0.0
H1310 H 0.19625 0.58239 0.43309 0.0
H1311 H 0.1803 0.55706 0.44444 0.0
H1312 H 0.20925 0.57248 0.44838 0.0
H1313 H 0.1499 0.61138 0.46613 0.0
H1314 H 0.14866 0.60951 0.49118 0.0
H1315 H 0.13387 0.58572 0.47691 0.0
C1316 C 0.61508 0.13874 0.58307 0.0
C1317 C 0.59722 0.13464 0.57194 0.0
C1318 C 0.61966 0.15074 0.59962 0.0
C1319 C 0.60603 0.15882 0.60518 0.0
C1320 C 0.58765 0.15426 0.59428 0.0
C1321 C 0.58348 0.14225 0.57779 0.0
C1322 C 0.63936 0.1552 0.61092 0.0
C1323 C 0.57272 0.16259 0.59976 0.0
C1324 C 0.6079 0.17717 0.65521 0.0
C1325 C 0.62104 0.19962 0.65362 0.0
C1326 C 0.60301 0.16366 0.6396 0.0
C1327 C 0.61148 0.17281 0.62198 0.0
C1328 C 0.62493 0.19542 0.62031 0.0
C1329 C 0.62953 0.20855 0.63614 0.0
C1330 C 0.58866 0.13961 0.64193 0.0
C1331 C 0.63425 0.20579 0.60175 0.0
H1332 H 0.6256 0.13267 0.57875 0.0
H1333 H 0.56981 0.13941 0.56915 0.0
H1334 H 0.65108 0.17279 0.61131 0.0
H1335 H 0.63456 0.14988 0.6255 0.0
H1336 H 0.64774 0.14694 0.60513 0.0
H1337 H 0.55851 0.1567 0.59029 0.0
H1338 H 0.5667 0.15757 0.61417 0.0
H1339 H 0.58183 0.18046 0.59956 0.0
H1340 H 0.60153 0.17014 0.66873 0.0
H1341 H 0.63946 0.22588 0.63476 0.0
H1342 H 0.59733 0.13129 0.63705 0.0
H1343 H 0.57384 0.13365 0.63325 0.0
H1344 H 0.58364 0.13503 0.65663 0.0
H1345 H 0.64396 0.19909 0.59572 0.0
H1346 H 0.64478 0.22357 0.60288 0.0
H1347 H 0.62087 0.20211 0.59185 0.0
C1348 C 0.45457 0.5749 0.75801 0.0
C1349 C 0.47222 0.59162 0.74847 0.0
C1350 C 0.446 0.57906 0.77408 0.0
C1351 C 0.45559 0.60038 0.78106 0.0
C1352 C 0.47388 0.61719 0.77195 0.0
C1353 C 0.48179 0.61267 0.75568 0.0
C1354 C 0.42631 0.56074 0.78331 0.0
C1355 C 0.48479 0.64009 0.77914 0.0
C1356 C 0.42202 0.61705 0.81036 0.0
C1357 C 0.42866 0.61591 0.82851 0.0
C1358 C 0.43034 0.61161 0.79486 0.0
C1359 C 0.44603 0.6053 0.79748 0.0
C1360 C 0.45288 0.60418 0.81569 0.0
C1361 C 0.44397 0.60928 0.83098 0.0
C1362 C 0.42242 0.61277 0.77564 0.0
C1363 C 0.46981 0.5978 0.81902 0.0
H1364 H 0.44728 0.55852 0.75283 0.0
H1365 H 0.49515 0.62583 0.74832 0.0
H1366 H 0.42983 0.55954 0.79814 0.0
H1367 H 0.41259 0.56391 0.78299 0.0
H1368 H 0.42104 0.54501 0.77638 0.0
H1369 H 0.49981 0.65099 0.77127 0.0
H1370 H 0.47343 0.64634 0.7781 0.0
H1371 H 0.48905 0.64062 0.79406 0.0
H1372 H 0.41052 0.62249 0.8082 0.0
H1373 H 0.44893 0.60792 0.84491 0.0
H1374 H 0.41609 0.59707 0.76836 0.0
H1375 H 0.43615 0.62505 0.76725 0.0
H1376 H 0.4094 0.61696 0.77605 0.0
H1377 H 0.46417 0.58148 0.81325 0.0
H1378 H 0.47348 0.59782 0.83404 0.0
H1379 H 0.48509 0.60909 0.81167 0.0
C1380 C 0.88541 0.45141 0.91487 0.0
C1381 C 0.89688 0.47349 0.91083 0.0
C1382 C 0.87288 0.44368 0.93112 0.0
C1383 C 0.87183 0.4584 0.94365 0.0
C1384 C 0.88399 0.48078 0.93999 0.0
C1385 C 0.89635 0.48805 0.9236 0.0
C1386 C 0.86012 0.4197 0.93453 0.0
C1387 C 0.88342 0.49698 0.95309 0.0
C1388 C 0.8209 0.43692 0.97325 0.0
C1389 C 0.82804 0.43354 0.9904 0.0
C1390 C 0.83508 0.44526 0.95802 0.0
C1391 C 0.85693 0.45026 0.95995 0.0
C1392 C 0.86431 0.4471 0.97728 0.0
C1393 C 0.84978 0.43882 0.99233 0.0
C1394 C 0.82664 0.44857 0.93981 0.0
C1395 C 0.88745 0.45213 0.97983 0.0
H1396 H 0.88556 0.44006 0.90496 0.0
H1397 H 0.90542 0.50516 0.92065 0.0
H1398 H 0.86365 0.41602 0.94863 0.0
H1399 H 0.84245 0.41393 0.93393 0.0
H1400 H 0.86386 0.41054 0.92412 0.0
H1401 H 0.89492 0.51385 0.94887 0.0
H1402 H 0.86676 0.49455 0.95347 0.0
H1403 H 0.88749 0.49459 0.96745 0.0
H1404 H 0.80419 0.43313 0.97178 0.0
H1405 H 0.85531 0.43603 0.0055 0.0
H1406 H 0.8282 0.43862 0.92874 0.0
H1407 H 0.83649 0.46566 0.93548 0.0
H1408 H 0.80932 0.44425 0.94072 0.0
H1409 H 0.89077 0.44189 0.97034 0.0
H1410 H 0.89081 0.4494 0.99435 0.0
H1411 H 0.89896 0.46915 0.9761 0.0
C1412 C 0.44273 0.89348 0.07955 0.0
C1413 C 0.42799 0.89924 0.07255 0.0
C1414 C 0.43817 0.88124 0.09585 0.0
C1415 C 0.41825 0.87433 0.10526 0.0
C1416 C 0.40357 0.88057 0.0986 0.0
C1417 C 0.40868 0.89308 0.08242 0.0
C1418 C 0.45437 0.87513 0.10266 0.0
C1419 C 0.38212 0.87344 0.1082 0.0
C1420 C 0.39631 0.82339 0.13404 0.0
C1421 C 0.40153 0.83165 0.15224 0.0
C1422 C 0.40141 0.8371 0.11868 0.0
C1423 C 0.4123 0.85967 0.12152 0.0
C1424 C 0.41763 0.86817 0.1398 0.0
C1425 C 0.41203 0.85406 0.15494 0.0
C1426 C 0.39528 0.82741 0.09939 0.0
C1427 C 0.42941 0.89216 0.14335 0.0
H1428 H 0.45755 0.89788 0.07195 0.0
H1429 H 0.39737 0.89778 0.07734 0.0
H1430 H 0.45812 0.87945 0.11758 0.0
H1431 H 0.44728 0.85744 0.10145 0.0
H1432 H 0.46981 0.88318 0.09463 0.0
H1433 H 0.37292 0.88042 0.10172 0.0
H1434 H 0.37195 0.85561 0.10763 0.0
H1435 H 0.38482 0.87817 0.12311 0.0
H1436 H 0.38856 0.80616 0.13172 0.0
H1437 H 0.41582 0.86063 0.16893 0.0
H1438 H 0.41014 0.83294 0.09084 0.0
H1439 H 0.38508 0.83292 0.0924 0.0
H1440 H 0.3862 0.80951 0.09961 0.0
H1441 H 0.44522 0.90004 0.13591 0.0
H1442 H 0.4325 0.89619 0.1584 0.0
H1443 H 0.41976 0.89912 0.13784 0.0
C1444 C 0.54409 0.41572 0.25205 0.0
C1445 C 0.55172 0.43716 0.24686 0.0
C1446 C 0.5516 0.41082 0.26828 0.0
C1447 C 0.56718 0.42777 0.27958 0.0
C1448 C 0.5746 0.44943 0.27466 0.0
C1449 C 0.56676 0.45387 0.25837 0.0
C1450 C 0.54328 0.38751 0.27308 0.0
C1451 C 0.59117 0.46792 0.2864 0.0
C1452 C 0.57464 0.41474 0.32923 0.0
C1453 C 0.5931 0.41261 0.32754 0.0
C1454 C 0.56608 0.41979 0.31376 0.0
C1455 C 0.57624 0.42279 0.29619 0.0
C1456 C 0.59493 0.42076 0.29441 0.0
C1457 C 0.60312 0.41568 0.3101 0.0
C1458 C 0.54615 0.42188 0.3162 0.0
C1459 C 0.60617 0.42379 0.27588 0.0
H1460 H 0.53273 0.40272 0.2431 0.0
H1461 H 0.57252 0.47046 0.25457 0.0
H1462 H 0.5569 0.3842 0.27273 0.0
H1463 H 0.53657 0.38413 0.28742 0.0
H1464 H 0.53045 0.37624 0.26331 0.0
H1465 H 0.59467 0.48382 0.28102 0.0
H1466 H 0.58531 0.46625 0.30096 0.0
H1467 H 0.60659 0.46762 0.28674 0.0
H1468 H 0.56701 0.41269 0.34272 0.0
H1469 H 0.61723 0.4138 0.30866 0.0
H1470 H 0.53284 0.41004 0.30713 0.0
H1471 H 0.54979 0.43816 0.31187 0.0
H1472 H 0.54028 0.4192 0.33083 0.0
H1473 H 0.59473 0.41183 0.26566 0.0
H1474 H 0.62073 0.42198 0.2769 0.0
H1475 H 0.61127 0.44003 0.27031 0.0
C1476 C 0.47694 0.88321 0.39601 0.0
C1477 C 0.47424 0.901 0.39923 0.0
C1478 C 0.46859 0.87049 0.37993 0.0
C1479 C 0.45719 0.87561 0.36674 0.0
C1480 C 0.45461 0.89368 0.36976 0.0
C1481 C 0.46316 0.90616 0.38598 0.0
C1482 C 0.47161 0.85131 0.37726 0.0
C1483 C 0.44261 0.89966 0.35596 0.0
C1484 C 0.45077 0.85171 0.31825 0.0
C1485 C 0.42977 0.83362 0.31914 0.0
C1486 C 0.45976 0.86576 0.33352 0.0
C1487 C 0.44747 0.86162 0.35007 0.0
C1488 C 0.42615 0.84357 0.35096 0.0
C1489 C 0.41757 0.8298 0.3355 0.0
C1490 C 0.48257 0.8848 0.33206 0.0
C1491 C 0.41251 0.83864 0.36835 0.0
H1492 H 0.48511 0.87886 0.40632 0.0
H1493 H 0.46119 0.91999 0.3883 0.0
H1494 H 0.45552 0.83628 0.37694 0.0
H1495 H 0.47965 0.85247 0.36372 0.0
H1496 H 0.48153 0.84996 0.38852 0.0
H1497 H 0.44251 0.91453 0.36011 0.0
H1498 H 0.45019 0.90216 0.342 0.0
H1499 H 0.42553 0.8863 0.35465 0.0
H1500 H 0.46038 0.85464 0.30573 0.0
H1501 H 0.40121 0.81605 0.33617 0.0
H1502 H 0.49326 0.88313 0.34231 0.0
H1503 H 0.48266 0.89991 0.33548 0.0
H1504 H 0.4896 0.88632 0.31794 0.0
H1505 H 0.42068 0.83564 0.38012 0.0
H1506 H 0.39601 0.82434 0.3666 0.0
H1507 H 0.41082 0.85269 0.37224 0.0
C1508 C 0.57801 0.45721 0.57248 0.0
C1509 C 0.58983 0.47894 0.5779 0.0
C1510 C 0.583 0.45011 0.55598 0.0
C1511 C 0.60022 0.4651 0.5446 0.0
C1512 C 0.61176 0.48717 0.54967 0.0
C1513 C 0.60645 0.49382 0.56629 0.0
C1514 C 0.57035 0.42643 0.55107 0.0
C1515 C 0.6301 0.50364 0.53779 0.0
C1516 C 0.6277 0.44236 0.51436 0.0
C1517 C 0.61773 0.44027 0.49706 0.0
C1518 C 0.62243 0.45081 0.52984 0.0
C1519 C 0.60687 0.4574 0.52798 0.0
C1520 C 0.59709 0.45581 0.51046 0.0
C1521 C 0.60261 0.44722 0.49521 0.0
C1522 C 0.63326 0.45231 0.54829 0.0
C1523 C 0.58043 0.46269 0.50795 0.0
H1524 H 0.56535 0.44557 0.58151 0.0
H1525 H 0.61546 0.51067 0.57031 0.0
H1526 H 0.56376 0.42415 0.53674 0.0
H1527 H 0.58133 0.41967 0.5514 0.0
H1528 H 0.55664 0.41708 0.56082 0.0
H1529 H 0.63652 0.52034 0.54305 0.0
H1530 H 0.6436 0.50015 0.5375 0.0
H1531 H 0.62452 0.50271 0.52323 0.0
H1532 H 0.63965 0.43736 0.51581 0.0
H1533 H 0.59466 0.44545 0.48193 0.0
H1534 H 0.62082 0.44209 0.55872 0.0
H1535 H 0.64144 0.46913 0.55359 0.0
H1536 H 0.64548 0.44708 0.54728 0.0
H1537 H 0.56585 0.45236 0.5165 0.0
H1538 H 0.5753 0.46159 0.4932 0.0
H1539 H 0.58708 0.47952 0.51286 0.0
C1540 C 0.14692 0.61596 0.73258 0.0
C1541 C 0.13182 0.59428 0.7364 0.0
C1542 C 0.16045 0.62179 0.71688 0.0
C1543 C 0.15906 0.60556 0.70478 0.0
C1544 C 0.1436 0.58368 0.70831 0.0
C1545 C 0.13012 0.57831 0.72404 0.0
C1546 C 0.17667 0.64531 0.71356 0.0
C1547 C 0.14168 0.56592 0.69572 0.0
C1548 C 0.18394 0.62209 0.65652 0.0
C1549 C 0.2042 0.62358 0.65902 0.0
C1550 C 0.16902 0.61613 0.67125 0.0
C1551 C 0.17445 0.61146 0.68888 0.0
C1552 C 0.19482 0.61287 0.69148 0.0
C1553 C 0.20946 0.61897 0.67655 0.0
C1554 C 0.14747 0.61486 0.66797 0.0
C1555 C 0.20122 0.60804 0.71009 0.0
H1556 H 0.14869 0.62842 0.74219 0.0
H1557 H 0.11833 0.56155 0.72674 0.0
H1558 H 0.19344 0.64814 0.7147 0.0
H1559 H 0.17478 0.64992 0.69926 0.0
H1560 H 0.17481 0.65603 0.72365 0.0
H1561 H 0.12827 0.5498 0.69998 0.0
H1562 H 0.13883 0.56891 0.68115 0.0
H1563 H 0.15715 0.5657 0.69588 0.0
H1564 H 0.17961 0.62531 0.64295 0.0
H1565 H 0.22519 0.62037 0.67867 0.0
H1566 H 0.14577 0.6261 0.67753 0.0
H1567 H 0.13393 0.5984 0.67108 0.0
H1568 H 0.1457 0.61891 0.65342 0.0
H1569 H 0.20151 0.61935 0.72081 0.0
H1570 H 0.21746 0.6094 0.70969 0.0
H1571 H 0.18902 0.59151 0.71456 0.0
C1572 C 0.55617 0.12298 0.88862 0.0
C1573 C 0.55392 0.13307 0.90455 0.0
C1574 C 0.56385 0.13427 0.8718 0.0
C1575 C 0.56942 0.15614 0.87093 0.0
C1576 C 0.56716 0.16638 0.88696 0.0
C1577 C 0.55951 0.15476 0.90355 0.0
C1578 C 0.56602 0.12282 0.85497 0.0
C1579 C 0.57302 0.18972 0.88664 0.0
C1580 C 0.60861 0.19358 0.83432 0.0
C1581 C 0.59448 0.19525 0.82175 0.0
C1582 C 0.60063 0.18044 0.85011 0.0
C1583 C 0.57794 0.16858 0.8534 0.0
C1584 C 0.56354 0.1697 0.84051 0.0
C1585 C 0.57198 0.18305 0.82487 0.0
C1586 C 0.61652 0.17966 0.86351 0.0
C1587 C 0.53924 0.15729 0.84355 0.0
H1588 H 0.55172 0.10618 0.88926 0.0
H1589 H 0.55823 0.16281 0.91588 0.0
H1590 H 0.55601 0.12327 0.84336 0.0
H1591 H 0.58316 0.1312 0.85015 0.0
H1592 H 0.56087 0.10574 0.8579 0.0
H1593 H 0.56997 0.19518 0.90022 0.0
H1594 H 0.59046 0.2001 0.88305 0.0
H1595 H 0.56346 0.19216 0.87575 0.0
H1596 H 0.62599 0.20262 0.83183 0.0
H1597 H 0.56095 0.18439 0.81533 0.0
H1598 H 0.6123 0.16273 0.86578 0.0
H1599 H 0.6155 0.18629 0.87722 0.0
H1600 H 0.63357 0.18899 0.85847 0.0
H1601 H 0.53355 0.13999 0.84583 0.0
H1602 H 0.53019 0.15871 0.83159 0.0
H1603 H 0.53515 0.16339 0.85624 0.0
C1604 C 0.45774 0.56731 0.05882 0.0
C1605 C 0.44873 0.56602 0.07647 0.0
C1606 C 0.44919 0.57175 0.04299 0.0
C1607 C 0.43146 0.57532 0.04495 0.0
C1608 C 0.42187 0.57334 0.06267 0.0
C1609 C 0.43056 0.56859 0.07821 0.0
C1610 C 0.45961 0.57337 0.02428 0.0
C1611 C 0.40313 0.57729 0.06536 0.0
C1612 C 0.4272 0.61239 0.01008 0.0
C1613 C 0.4101 0.5978 0.9986 0.0
C1614 C 0.43423 0.60524 0.0252 0.0
C1615 C 0.42414 0.5829 0.02882 0.0
C1616 C 0.40707 0.56802 0.01719 0.0
C1617 C 0.40018 0.57566 0.00226 0.0
C1618 C 0.45244 0.62164 0.03733 0.0
C1619 C 0.39606 0.54407 0.02057 0.0
H1620 H 0.47167 0.56512 0.05746 0.0
H1621 H 0.42372 0.5678 0.09188 0.0
H1622 H 0.44705 0.56338 0.01381 0.0
H1623 H 0.46779 0.59029 0.01939 0.0
H1624 H 0.47185 0.56813 0.02484 0.0
H1625 H 0.39652 0.57358 0.07975 0.0
H1626 H 0.40863 0.59443 0.06243 0.0
H1627 H 0.38982 0.56737 0.05545 0.0
H1628 H 0.4353 0.62949 0.00714 0.0
H1629 H 0.38682 0.56428 0.99359 0.0
H1630 H 0.46631 0.6187 0.03711 0.0
H1631 H 0.44684 0.62 0.05198 0.0
H1632 H 0.45835 0.63844 0.03277 0.0
H1633 H 0.40829 0.53884 0.02055 0.0
H1634 H 0.3835 0.53459 0.0099 0.0
H1635 H 0.38822 0.54022 0.03448 0.0
C1636 C 0.89142 0.42334 0.22834 0.0
C1637 C 0.8944 0.44012 0.24029 0.0
C1638 C 0.87918 0.41883 0.21193 0.0
C1639 C 0.86967 0.43139 0.20736 0.0
C1640 C 0.87312 0.44873 0.21908 0.0
C1641 C 0.88543 0.45288 0.23541 0.0
C1642 C 0.87598 0.40028 0.19972 0.0
C1643 C 0.86323 0.46248 0.21469 0.0
C1644 C 0.85019 0.42961 0.15778 0.0
C1645 C 0.82778 0.41507 0.15941 0.0
C1646 C 0.86405 0.43507 0.17325 0.0
C1647 C 0.85529 0.42578 0.19077 0.0
C1648 C 0.8327 0.41108 0.1925 0.0
C1649 C 0.81924 0.4059 0.17682 0.0
C1650 C 0.88804 0.45085 0.17087 0.0
C1651 C 0.82275 0.40077 0.21094 0.0
H1652 H 0.89856 0.4136 0.23191 0.0
H1653 H 0.88741 0.46569 0.24469 0.0
H1654 H 0.85848 0.3878 0.19926 0.0
H1655 H 0.8811 0.40589 0.18525 0.0
H1656 H 0.88529 0.39272 0.20478 0.0
H1657 H 0.86848 0.4761 0.22465 0.0
H1658 H 0.86777 0.46907 0.20041 0.0
H1659 H 0.84523 0.45246 0.21514 0.0
H1660 H 0.85687 0.43698 0.14443 0.0
H1661 H 0.802 0.39441 0.17814 0.0
H1662 H 0.89761 0.44329 0.17513 0.0
H1663 H 0.89303 0.46507 0.18003 0.0
H1664 H 0.89232 0.45648 0.15627 0.0
H1665 H 0.83029 0.39152 0.21607 0.0
H1666 H 0.80489 0.38974 0.20997 0.0
H1667 H 0.82603 0.41341 0.22148 0.0
loop_
_geom_bond_atom_site_label_1
_geom_bond_atom_site_label_2
_geom_bond_distance
_geom_bond_site_symmetry_2
_ccdc_geom_bond_type
H0 C27 0.929 . S
N1 C26 1.433 . S
N1 C32 1.435 . S
N1 C38 1.423 . S
H2 C28 0.930 . S
H3 C31 0.931 . S
H4 C30 0.929 . S
H5 C33 0.930 . S
H6 C34 0.932 . S
H7 C37 0.929 . S
H8 C36 0.931 . S
H9 C39 0.929 . S
H10 C43 0.932 . S
H11 C40 0.931 . S
H12 C42 0.929 . S
H13 C45 0.929 . S
H14 C46 0.930 . S
H15 C48 0.929 . S
H16 C49 0.931 . S
H17 C51 0.930 . S
H18 C52 0.932 . S
H19 C54 0.931 . S
H20 C55 0.929 . S
H21 C57 0.929 . S
H22 C58 0.931 1_455 S
H23 C60 0.929 . S
N24 C44 1.433 . S
N24 C50 1.435 . S
N24 C56 1.423 . S
H25 C61 0.932 . S
C26 N1 1.433 . S
C26 C27 1.363 . S
C26 C31 1.370 . S
C27 H0 0.929 . S
C27 C26 1.363 . S
C27 C28 1.385 . S
C28 H2 0.930 . S
C28 C27 1.385 . S
C28 C29 1.357 . S
C29 C28 1.357 . S
C29 C30 1.406 . S
C30 H4 0.929 . S
C30 C29 1.406 . S
C30 C31 1.391 . S
C31 H3 0.931 . S
C31 C26 1.370 . S
C31 C30 1.391 . S
C32 N1 1.435 . S
C32 C33 1.358 . S
C32 C37 1.371 . S
C33 H5 0.930 . S
C33 C32 1.358 . S
C33 C34 1.405 . S
C34 H6 0.932 . S
C34 C33 1.405 . S
C34 C35 1.383 . S
C35 C34 1.383 . S
C35 C36 1.393 . S
C36 H8 0.931 . S
C36 C35 1.393 . S
C36 C37 1.382 . S
C37 H7 0.929 . S
C37 C32 1.371 . S
C37 C36 1.382 . S
C38 N1 1.423 . S
C38 C39 1.362 . S
C38 C43 1.388 . S
C39 H9 0.929 . S
C39 C38 1.362 . S
C39 C40 1.376 . S
C40 H11 0.931 . S
C40 C39 1.376 . S
C40 C41 1.396 . S
C41 C40 1.396 . S
C41 C42 1.348 . S
C41 C59 1.472 . S
C42 H12 0.929 . S
C42 C41 1.348 . S
C42 C43 1.443 . S
C43 H10 0.932 . S
C43 C38 1.388 . S
C43 C42 1.443 . S
C44 N24 1.433 . S
C44 C45 1.363 . S
C44 C49 1.370 . S
C45 H13 0.929 . S
C45 C44 1.363 . S
C45 C46 1.385 . S
C46 H14 0.930 . S
C46 C45 1.385 . S
C46 C47 1.357 . S
C47 C46 1.357 . S
C47 C48 1.406 . S
C48 H15 0.929 . S
C48 C47 1.406 . S
C48 C49 1.391 . S
C49 H16 0.931 . S
C49 C44 1.370 . S
C49 C48 1.391 . S
C50 N24 1.435 . S
C50 C51 1.358 . S
C50 C55 1.371 . S
C51 H17 0.930 . S
C51 C50 1.358 . S
C51 C52 1.405 . S
C52 H18 0.932 . S
C52 C51 1.405 . S
C52 C53 1.383 . S
C53 C52 1.383 . S
C53 C54 1.393 . S
C54 H19 0.931 . S
C54 C53 1.393 . S
C54 C55 1.382 . S
C55 H20 0.929 . S
C55 C50 1.371 . S
C55 C54 1.382 . S
C56 N24 1.423 . S
C56 C57 1.362 . S
C56 C61 1.388 . S
C57 H21 0.929 . S
C57 C56 1.362 . S
C57 C58 1.376 . S
C58 H22 0.931 1_655 S
C58 C57 1.376 . S
C58 C59 1.396 1_655 S
C59 C41 1.472 . S
C59 C58 1.396 1_455 S
C59 C60 1.348 1_455 S
C60 H23 0.929 . S
C60 C59 1.348 1_655 S
C60 C61 1.443 . S
C61 H25 0.932 . S
C61 C56 1.388 . S
C61 C60 1.443 . S
H62 C89 0.929 . S
N63 C88 1.433 . S
N63 C94 1.435 . S
N63 C100 1.423 . S
H64 C90 0.930 . S
H65 C93 0.931 . S
H66 C92 0.929 . S
H67 C95 0.930 . S
H68 C96 0.932 . S
H69 C99 0.929 . S
H70 C98 0.931 . S
H71 C101 0.929 . S
H72 C105 0.932 . S
H73 C102 0.928 . S
H74 C104 0.929 . S
H75 C107 0.929 . S
H76 C108 0.930 . S
H77 C110 0.929 . S
H78 C111 0.931 . S
H79 C113 0.930 . S
H80 C114 0.932 . S
H81 C116 0.931 . S
H82 C117 0.929 . S
H83 C119 0.929 . S
H84 C120 0.931 . S
H85 C122 0.929 . S
N86 C106 1.433 . S
N86 C112 1.435 . S
N86 C118 1.423 . S
H87 C123 0.932 . S
C88 N63 1.433 . S
C88 C89 1.363 . S
C88 C93 1.370 . S
C89 H62 0.929 . S
C89 C88 1.363 . S
C89 C90 1.385 . S
C90 H64 0.930 . S
C90 C89 1.385 . S
C90 C91 1.357 . S
C91 C90 1.357 . S
C91 C92 1.406 . S
C92 H66 0.929 . S
C92 C91 1.406 . S
C92 C93 1.391 . S
C93 H65 0.931 . S
C93 C88 1.370 . S
C93 C92 1.391 . S
C94 N63 1.435 . S
C94 C95 1.358 . S
C94 C99 1.371 . S
C95 H67 0.930 . S
C95 C94 1.358 . S
C95 C96 1.405 . S
C96 H68 0.932 . S
C96 C95 1.405 . S
C96 C97 1.383 . S
C97 C96 1.383 . S
C97 C98 1.393 . S
C98 H70 0.931 . S
C98 C97 1.393 . S
C98 C99 1.382 . S
C99 H69 0.929 . S
C99 C94 1.371 . S
C99 C98 1.382 . S
C100 N63 1.423 . S
C100 C101 1.362 . S
C100 C105 1.388 . S
C101 H71 0.929 . S
C101 C100 1.362 . S
C101 C102 1.376 . S
C102 H73 0.928 . S
C102 C101 1.376 . S
C102 C103 1.396 1_565 S
C103 C102 1.396 1_545 S
C103 C104 1.348 . S
C103 C121 1.472 . S
C104 H74 0.929 . S
C104 C103 1.348 . S
C104 C105 1.443 1_545 S
C105 H72 0.932 . S
C105 C100 1.388 . S
C105 C104 1.443 1_565 S
C106 N86 1.433 . S
C106 C107 1.363 . S
C106 C111 1.370 . S
C107 H75 0.929 . S
C107 C106 1.363 . S
C107 C108 1.385 . S
C108 H76 0.930 . S
C108 C107 1.385 . S
C108 C109 1.357 . S
C109 C108 1.357 . S
C109 C110 1.406 . S
C110 H77 0.929 . S
C110 C109 1.406 . S
C110 C111 1.391 . S
C111 H78 0.931 . S
C111 C106 1.370 . S
C111 C110 1.391 . S
C112 N86 1.435 . S
C112 C113 1.358 . S
C112 C117 1.371 . S
C113 H79 0.930 . S
C113 C112 1.358 . S
C113 C114 1.405 . S
C114 H80 0.932 . S
C114 C113 1.405 . S
C114 C115 1.383 . S
C115 C114 1.383 . S
C115 C116 1.393 . S
C116 H81 0.931 . S
C116 C115 1.393 . S
C116 C117 1.382 . S
C117 H82 0.929 . S
C117 C112 1.371 . S
C117 C116 1.382 . S
C118 N86 1.423 . S
C118 C119 1.362 . S
C118 C123 1.388 . S
C119 H83 0.929 . S
C119 C118 1.362 . S
C119 C120 1.376 . S
C120 H84 0.931 . S
C120 C119 1.376 . S
C120 C121 1.396 . S
C121 C103 1.472 . S
C121 C120 1.396 . S
C121 C122 1.348 . S
C122 H85 0.929 . S
C122 C121 1.348 . S
C122 C123 1.443 . S
C123 H87 0.932 . S
C123 C118 1.388 . S
C123 C122 1.443 . S
H124 C151 0.929 . S
N125 C150 1.433 . S
N125 C156 1.435 . S
N125 C162 1.423 . S
H126 C152 0.930 . S
H127 C155 0.931 . S
H128 C154 0.929 . S
H129 C157 0.930 . S
H130 C158 0.932 . S
H131 C161 0.929 . S
H132 C160 0.931 . S
H133 C163 0.929 . S
H134 C167 0.932 . S
H135 C164 0.931 . S
H136 C166 0.929 . S
H137 C169 0.929 . S
H138 C170 0.930 . S
H139 C172 0.929 . S
H140 C173 0.931 . S
H141 C175 0.930 . S
H142 C176 0.932 . S
H143 C178 0.931 . S
H144 C179 0.929 . S
H145 C181 0.929 . S
H146 C182 0.931 . S
H147 C184 0.929 . S
N148 C168 1.433 . S
N148 C174 1.435 . S
N148 C180 1.423 . S
H149 C185 0.932 . S
C150 N125 1.433 . S
C150 C151 1.363 . S
C150 C155 1.370 . S
C151 H124 0.929 . S
C151 C150 1.363 . S
C151 C152 1.385 . S
C152 H126 0.930 . S
C152 C151 1.385 . S
C152 C153 1.357 . S
C153 C152 1.357 . S
C153 C154 1.406 . S
C154 H128 0.929 . S
C154 C153 1.406 . S
C154 C155 1.391 . S
C155 H127 0.931 . S
C155 C150 1.370 . S
C155 C154 1.391 . S
C156 N125 1.435 . S
C156 C157 1.358 . S
C156 C161 1.371 . S
C157 H129 0.930 . S
C157 C156 1.358 . S
C157 C158 1.405 . S
C158 H130 0.932 . S
C158 C157 1.405 . S
C158 C159 1.383 . S
C159 C158 1.383 . S
C159 C160 1.393 . S
C160 H132 0.931 . S
C160 C159 1.393 . S
C160 C161 1.382 . S
C161 H131 0.929 . S
C161 C156 1.371 . S
C161 C160 1.382 . S
C162 N125 1.423 . S
C162 C163 1.362 . S
C162 C167 1.388 . S
C163 H133 0.929 . S
C163 C162 1.362 . S
C163 C164 1.376 . S
C164 H135 0.931 . S
C164 C163 1.376 . S
C164 C165 1.396 . S
C165 C164 1.396 . S
C165 C166 1.348 . S
C165 C183 1.472 . S
C166 H136 0.929 . S
C166 C165 1.348 . S
C166 C167 1.443 . S
C167 H134 0.932 . S
C167 C162 1.388 . S
C167 C166 1.443 . S
C168 N148 1.433 . S
C168 C169 1.363 . S
C168 C173 1.370 . S
C169 H137 0.929 . S
C169 C168 1.363 . S
C169 C170 1.385 . S
C170 H138 0.930 . S
C170 C169 1.385 . S
C170 C171 1.357 . S
C171 C170 1.357 . S
C171 C172 1.406 . S
C172 H139 0.929 . S
C172 C171 1.406 . S
C172 C173 1.391 . S
C173 H140 0.931 . S
C173 C168 1.370 . S
C173 C172 1.391 . S
C174 N148 1.435 . S
C174 C175 1.358 . S
C174 C179 1.371 . S
C175 H141 0.930 . S
C175 C174 1.358 . S
C175 C176 1.405 . S
C176 H142 0.932 . S
C176 C175 1.405 . S
C176 C177 1.383 . S
C177 C176 1.383 . S
C177 C178 1.393 . S
C178 H143 0.931 . S
C178 C177 1.393 . S
C178 C179 1.382 . S
C179 H144 0.929 . S
C179 C174 1.371 . S
C179 C178 1.382 . S
C180 N148 1.423 . S
C180 C181 1.362 . S
C180 C185 1.388 . S
C181 H145 0.929 . S
C181 C180 1.362 . S
C181 C182 1.376 . S
C182 H146 0.931 . S
C182 C181 1.376 . S
C182 C183 1.396 . S
C183 C165 1.472 . S
C183 C182 1.396 . S
C183 C184 1.348 . S
C184 H147 0.929 . S
C184 C183 1.348 . S
C184 C185 1.443 . S
C185 H149 0.932 . S
C185 C180 1.388 . S
C185 C184 1.443 . S
H186 C213 0.929 . S
N187 C212 1.433 . S
N187 C218 1.435 . S
N187 C224 1.423 . S
H188 C214 0.930 . S
H189 C217 0.931 . S
H190 C216 0.929 . S
H191 C219 0.930 . S
H192 C220 0.932 . S
H193 C223 0.929 . S
H194 C222 0.931 . S
H195 C225 0.929 . S
H196 C229 0.932 . S
H197 C226 0.931 . S
H198 C228 0.929 . S
H199 C231 0.929 . S
H200 C232 0.930 . S
H201 C234 0.929 . S
H202 C235 0.931 . S
H203 C237 0.930 . S
H204 C238 0.932 . S
H205 C240 0.931 . S
H206 C241 0.929 . S
H207 C243 0.929 . S
H208 C244 0.931 1_455 S
H209 C246 0.929 . S
N210 C230 1.433 . S
N210 C236 1.435 . S
N210 C242 1.423 . S
H211 C247 0.932 . S
C212 N187 1.433 . S
C212 C213 1.363 . S
C212 C217 1.370 . S
C213 H186 0.929 . S
C213 C212 1.363 . S
C213 C214 1.385 . S
C214 H188 0.930 . S
C214 C213 1.385 . S
C214 C215 1.357 . S
C215 C214 1.357 . S
C215 C216 1.406 . S
C216 H190 0.929 . S
C216 C215 1.406 . S
C216 C217 1.391 . S
C217 H189 0.931 . S
C217 C212 1.370 . S
C217 C216 1.391 . S
C218 N187 1.435 . S
C218 C219 1.358 . S
C218 C223 1.371 . S
C219 H191 0.930 . S
C219 C218 1.358 . S
C219 C220 1.405 . S
C220 H192 0.932 . S
C220 C219 1.405 . S
C220 C221 1.383 . S
C221 C220 1.383 . S
C221 C222 1.393 . S
C222 H194 0.931 . S
C222 C221 1.393 . S
C222 C223 1.382 . S
C223 H193 0.929 . S
C223 C218 1.371 . S
C223 C222 1.382 . S
C224 N187 1.423 . S
C224 C225 1.362 . S
C224 C229 1.388 . S
C225 H195 0.929 . S
C225 C224 1.362 . S
C225 C226 1.376 . S
C226 H197 0.931 . S
C226 C225 1.376 . S
C226 C227 1.396 . S
C227 C226 1.396 . S
C227 C228 1.348 . S
C227 C245 1.472 . S
C228 H198 0.929 . S
C228 C227 1.348 . S
C228 C229 1.443 . S
C229 H196 0.932 . S
C229 C224 1.388 . S
C229 C228 1.443 . S
C230 N210 1.433 . S
C230 C231 1.363 . S
C230 C235 1.370 . S
C231 H199 0.929 . S
C231 C230 1.363 . S
C231 C232 1.385 . S
C232 H200 0.930 . S
C232 C231 1.385 . S
C232 C233 1.357 . S
C233 C232 1.357 . S
C233 C234 1.406 . S
C234 H201 0.929 . S
C234 C233 1.406 . S
C234 C235 1.391 . S
C235 H202 0.931 . S
C235 C230 1.370 . S
C235 C234 1.391 . S
C236 N210 1.435 . S
C236 C237 1.358 . S
C236 C241 1.371 . S
C237 H203 0.930 . S
C237 C236 1.358 . S
C237 C238 1.405 . S
C238 H204 0.932 . S
C238 C237 1.405 . S
C238 C239 1.383 . S
C239 C238 1.383 . S
C239 C240 1.393 . S
C240 H205 0.931 . S
C240 C239 1.393 . S
C240 C241 1.382 . S
C241 H206 0.929 . S
C241 C236 1.371 . S
C241 C240 1.382 . S
C242 N210 1.423 . S
C242 C243 1.362 . S
C242 C247 1.388 . S
C243 H207 0.929 . S
C243 C242 1.362 . S
C243 C244 1.376 . S
C244 H208 0.931 1_655 S
C244 C243 1.376 . S
C244 C245 1.396 1_655 S
C245 C227 1.472 . S
C245 C244 1.396 1_455 S
C245 C246 1.348 1_455 S
C246 H209 0.929 . S
C246 C245 1.348 1_655 S
C246 C247 1.443 . S
C247 H211 0.932 . S
C247 C242 1.388 . S
C247 C246 1.443 . S
H248 C275 0.929 . S
N249 C274 1.433 . S
N249 C280 1.435 . S
N249 C286 1.423 . S
H250 C276 0.934 . S
H251 C279 0.931 . S
H252 C278 0.929 . S
H253 C281 0.930 . S
H254 C282 0.932 . S
H255 C285 0.929 . S
H256 C284 0.931 . S
H257 C287 0.929 . S
H258 C291 0.932 . S
H259 C288 0.967 . S
H260 C290 0.929 . S
H261 C293 0.929 . S
H262 C294 0.930 . S
H263 C296 0.929 . S
H264 C297 0.931 . S
H265 C299 0.930 . S
H266 C300 0.932 . S
H267 C302 0.931 . S
H268 C303 0.929 . S
H269 C305 0.929 . S
H270 C306 0.931 1_545 S
H271 C308 0.929 . S
N272 C292 1.433 . S
N272 C298 1.435 1_554 S
N272 C304 1.423 . S
H273 C309 0.932 . S
C274 N249 1.433 . S
C274 C275 1.363 . S
C274 C279 1.419 . S
C275 H248 0.929 . S
C275 C274 1.363 . S
C275 C276 1.432 . S
C276 H250 0.934 . S
C276 C275 1.432 . S
C276 C277 1.309 1_556 S
C277 C276 1.309 1_554 S
C277 C278 1.406 . S
C278 H252 0.929 . S
C278 C277 1.406 . S
C278 C279 1.344 1_554 S
C279 H251 0.931 . S
C279 C274 1.419 . S
C279 C278 1.344 1_556 S
C280 N249 1.435 . S
C280 C281 1.358 . S
C280 C285 1.371 . S
C281 H253 0.930 . S
C281 C280 1.358 . S
C281 C282 1.405 . S
C282 H254 0.932 . S
C282 C281 1.405 . S
C282 C283 1.383 . S
C283 C282 1.383 . S
C283 C284 1.393 . S
C284 H256 0.931 . S
C284 C283 1.393 . S
C284 C285 1.382 . S
C285 H255 0.929 . S
C285 C280 1.371 . S
C285 C284 1.382 . S
C286 N249 1.423 . S
C286 C287 1.362 . S
C286 C291 1.388 . S
C287 H257 0.929 . S
C287 C286 1.362 . S
C287 C288 1.376 . S
C288 H259 0.967 . S
C288 C287 1.376 . S
C288 C289 1.396 . S
C289 C288 1.396 . S
C289 C290 1.348 . S
C289 C307 1.516 . S
C290 H260 0.929 . S
C290 C289 1.348 . S
C290 C291 1.443 . S
C291 H258 0.932 . S
C291 C286 1.388 . S
C291 C290 1.443 . S
C292 N272 1.433 . S
C292 C293 1.363 . S
C292 C297 1.370 . S
C293 H261 0.929 . S
C293 C292 1.363 . S
C293 C294 1.385 . S
C294 H262 0.930 . S
C294 C293 1.385 . S
C294 C295 1.357 . S
C295 C294 1.357 . S
C295 C296 1.406 . S
C296 H263 0.929 . S
C296 C295 1.406 . S
C296 C297 1.391 . S
C297 H264 0.931 . S
C297 C292 1.370 . S
C297 C296 1.391 . S
C298 N272 1.435 1_556 S
C298 C299 1.358 1_556 S
C298 C303 1.371 . S
C299 H265 0.930 . S
C299 C298 1.358 1_554 S
C299 C300 1.405 1_554 S
C300 H266 0.932 . S
C300 C299 1.405 1_556 S
C300 C301 1.383 . S
C301 C300 1.383 . S
C301 C302 1.393 . S
C302 H267 0.931 . S
C302 C301 1.393 . S
C302 C303 1.382 . S
C303 H268 0.929 . S
C303 C298 1.371 . S
C303 C302 1.382 . S
C304 N272 1.423 . S
C304 C305 1.362 . S
C304 C309 1.388 1_554 S
C305 H269 0.929 . S
C305 C304 1.362 . S
C305 C306 1.376 . S
C306 H270 0.931 1_565 S
C306 C305 1.376 . S
C306 C307 1.397 1_564 S
C307 C289 1.516 . S
C307 C306 1.397 1_546 S
C307 C308 1.301 1_545 S
C308 H271 0.929 . S
C308 C307 1.301 1_565 S
C308 C309 1.443 . S
C309 H273 0.932 . S
C309 C304 1.388 1_556 S
C309 C308 1.443 . S
H310 C337 0.929 . S
N311 C336 1.433 . S
N311 C342 1.435 . S
N311 C348 1.423 . S
H312 C338 0.930 . S
H313 C341 0.931 . S
H314 C340 0.929 . S
H315 C343 0.930 . S
H316 C344 0.932 . S
H317 C347 0.929 . S
H318 C346 0.931 . S
H319 C349 0.929 . S
H320 C353 0.932 . S
H321 C350 0.931 . S
H322 C352 0.929 . S
H323 C355 0.929 . S
H324 C356 0.930 . S
H325 C358 0.929 . S
H326 C359 0.931 . S
H327 C361 0.930 . S
H328 C362 0.932 . S
H329 C364 0.931 . S
H330 C365 0.929 . S
H331 C367 0.929 . S
H332 C368 0.931 . S
H333 C370 0.929 . S
N334 C354 1.433 . S
N334 C360 1.435 . S
N334 C366 1.423 . S
H335 C371 0.932 . S
C336 N311 1.433 . S
C336 C337 1.363 . S
C336 C341 1.370 . S
C337 H310 0.929 . S
C337 C336 1.363 . S
C337 C338 1.385 . S
C338 H312 0.930 . S
C338 C337 1.385 . S
C338 C339 1.357 . S
C339 C338 1.357 . S
C339 C340 1.406 . S
C340 H314 0.929 . S
C340 C339 1.406 . S
C340 C341 1.391 . S
C341 H313 0.931 . S
C341 C336 1.370 . S
C341 C340 1.391 . S
C342 N311 1.435 . S
C342 C343 1.358 . S
C342 C347 1.371 . S
C343 H315 0.930 . S
C343 C342 1.358 . S
C343 C344 1.405 . S
C344 H316 0.932 . S
C344 C343 1.405 . S
C344 C345 1.383 . S
C345 C344 1.383 . S
C345 C346 1.393 . S
C346 H318 0.931 . S
C346 C345 1.393 . S
C346 C347 1.382 . S
C347 H317 0.929 . S
C347 C342 1.371 . S
C347 C346 1.382 . S
C348 N311 1.423 . S
C348 C349 1.362 . S
C348 C353 1.388 . S
C349 H319 0.929 . S
C349 C348 1.362 . S
C349 C350 1.376 . S
C350 H321 0.931 . S
C350 C349 1.376 . S
C350 C351 1.396 . S
C351 C350 1.396 . S
C351 C352 1.348 . S
C351 C369 1.472 . S
C352 H322 0.929 . S
C352 C351 1.348 . S
C352 C353 1.443 . S
C353 H320 0.932 . S
C353 C348 1.388 . S
C353 C352 1.443 . S
C354 N334 1.433 . S
C354 C355 1.363 . S
C354 C359 1.370 . S
C355 H323 0.929 . S
C355 C354 1.363 . S
C355 C356 1.385 . S
C356 H324 0.930 . S
C356 C355 1.385 . S
C356 C357 1.357 . S
C357 C356 1.357 . S
C357 C358 1.406 . S
C358 H325 0.929 . S
C358 C357 1.406 . S
C358 C359 1.391 . S
C359 H326 0.931 . S
C359 C354 1.370 . S
C359 C358 1.391 . S
C360 N334 1.435 . S
C360 C361 1.358 . S
C360 C365 1.371 . S
C361 H327 0.930 . S
C361 C360 1.358 . S
C361 C362 1.405 . S
C362 H328 0.932 . S
C362 C361 1.405 . S
C362 C363 1.383 . S
C363 C362 1.383 . S
C363 C364 1.393 . S
C364 H329 0.931 . S
C364 C363 1.393 . S
C364 C365 1.382 . S
C365 H330 0.929 . S
C365 C360 1.371 . S
C365 C364 1.382 . S
C366 N334 1.423 . S
C366 C367 1.362 . S
C366 C371 1.388 . S
C367 H331 0.929 . S
C367 C366 1.362 . S
C367 C368 1.376 . S
C368 H332 0.931 . S
C368 C367 1.376 . S
C368 C369 1.396 . S
C369 C351 1.472 . S
C369 C368 1.396 . S
C369 C370 1.348 . S
C370 H333 0.929 . S
C370 C369 1.348 . S
C370 C371 1.443 . S
C371 H335 0.932 . S
C371 C366 1.388 . S
C371 C370 1.443 . S
Li372 N389 1.990 . S
Li372 O432 1.956 . S
Li372 O433 1.970 . S
Li372 O434 1.961 . S
Li373 N397 1.990 . S
Li373 O432 1.970 . S
Li373 O433 1.956 . S
Li373 O435 1.961 . S
Li374 N419 1.990 . S
Li374 O432 1.961 . S
Li374 O434 1.956 . S
Li374 O435 1.970 . S
Li375 N425 1.990 . S
Li375 O433 1.961 . S
Li375 O434 1.970 . S
Li375 O435 1.956 . S
C376 C378 1.348 . S
C376 C379 1.356 . S
C376 O432 1.325 . S
N377 C380 1.314 . S
N377 C381 1.279 . S
C378 C376 1.348 . S
C378 C380 1.353 . S
C378 H436 0.929 . S
C379 C376 1.356 . S
C379 C381 1.358 . S
C379 H437 0.930 . S
C380 N377 1.314 . S
C380 C378 1.353 . S
C380 H438 0.930 . S
C381 N377 1.279 . S
C381 C379 1.358 . S
C381 H439 0.930 . S
C382 C385 1.348 . S
C382 C386 1.356 . S
C382 O433 1.325 . S
C383 N384 1.279 . S
C383 C386 1.358 . S
C383 H440 0.930 . S
N384 C383 1.279 . S
N384 C387 1.314 . S
C385 C382 1.348 . S
C385 C387 1.353 . S
C385 H441 0.929 . S
C386 C382 1.356 . S
C386 C383 1.358 . S
C386 H442 0.930 . S
C387 N384 1.314 . S
C387 C385 1.353 . S
C387 H443 0.930 . S
C388 N389 1.314 . S
C388 C393 1.353 . S
C388 H394 0.930 . S
N389 Li372 1.990 . S
N389 C388 1.314 . S
N389 C391 1.279 . S
C390 C391 1.358 . S
C390 C392 1.356 . S
C390 H444 0.930 . S
C391 N389 1.279 . S
C391 C390 1.358 . S
C391 H395 0.930 . S
C392 C390 1.356 . S
C392 C393 1.348 . S
C393 C388 1.353 . S
C393 C392 1.348 . S
C393 H445 0.929 . S
H394 C388 0.930 . S
H395 C391 0.930 . S
C396 N397 1.314 . S
C396 C398 1.353 . S
C396 H402 0.930 . S
N397 Li373 1.990 . S
N397 C396 1.314 . S
N397 C400 1.279 . S
C398 C396 1.353 . S
C398 C401 1.348 . S
C398 H446 0.929 . S
C399 C400 1.358 . S
C399 C401 1.356 . S
C399 H447 0.930 . S
C400 N397 1.279 . S
C400 C399 1.358 . S
C400 H403 0.930 . S
C401 C398 1.348 . S
C401 C399 1.356 . S
H402 C396 0.930 . S
H403 C400 0.930 . S
C404 C406 1.348 . S
C404 C407 1.356 . S
C404 O434 1.325 . S
N405 C408 1.314 . S
N405 C409 1.279 . S
C406 C404 1.348 . S
C406 C408 1.353 . S
C406 H448 0.929 . S
C407 C404 1.356 . S
C407 C409 1.358 . S
C407 H449 0.930 . S
C408 N405 1.314 . S
C408 C406 1.353 . S
C408 H450 0.930 . S
C409 N405 1.279 . S
C409 C407 1.358 . S
C409 H451 0.930 . S
C410 C411 1.348 . S
C410 C412 1.356 . S
C410 O435 1.325 . S
C411 C410 1.348 . S
C411 C413 1.353 . S
C411 H452 0.929 . S
C412 C410 1.356 . S
C412 C414 1.358 . S
C412 H453 0.930 . S
C413 C411 1.353 . S
C413 N415 1.314 . S
C413 H454 0.930 . S
C414 C412 1.358 . S
C414 N415 1.279 . S
C414 H455 0.930 . S
N415 C413 1.314 . S
N415 C414 1.279 . S
C416 C418 1.353 . S
C416 N419 1.314 . S
C416 H422 0.930 . S
C417 N419 1.279 . S
C417 C420 1.358 . S
C417 H423 0.930 . S
C418 C416 1.353 . S
C418 C421 1.348 . S
C418 H456 0.929 . S
N419 Li374 1.990 . S
N419 C416 1.314 . S
N419 C417 1.279 . S
C420 C417 1.358 . S
C420 C421 1.356 . S
C420 H457 0.930 . S
C421 C418 1.348 . S
C421 C420 1.356 . S
H422 C416 0.930 . S
H423 C417 0.930 . S
C424 N425 1.314 . S
C424 C426 1.353 . S
C424 H430 0.930 . S
N425 Li375 1.990 . S
N425 C424 1.314 . S
N425 C428 1.279 . S
C426 C424 1.353 . S
C426 C429 1.348 . S
C426 H458 0.929 . S
C427 C428 1.358 . S
C427 C429 1.356 . S
C427 H459 0.930 . S
C428 N425 1.279 . S
C428 C427 1.358 . S
C428 H431 0.930 . S
C429 C426 1.348 . S
C429 C427 1.356 . S
H430 C424 0.930 . S
H431 C428 0.930 . S
O432 Li372 1.956 . S
O432 Li373 1.970 . S
O432 Li374 1.961 . S
O432 C376 1.325 . S
O433 Li372 1.970 . S
O433 Li373 1.956 . S
O433 Li375 1.961 . S
O433 C382 1.325 . S
O434 Li372 1.961 . S
O434 Li374 1.956 . S
O434 Li375 1.970 . S
O434 C404 1.325 . S
O435 Li373 1.961 . S
O435 Li374 1.970 . S
O435 Li375 1.956 . S
O435 C410 1.325 . S
H436 C378 0.929 . S
H437 C379 0.930 . S
H438 C380 0.930 . S
H439 C381 0.930 . S
H440 C383 0.930 . S
H441 C385 0.929 . S
H442 C386 0.930 . S
H443 C387 0.930 . S
H444 C390 0.930 . S
H445 C393 0.929 . S
H446 C398 0.929 . S
H447 C399 0.930 . S
H448 C406 0.929 . S
H449 C407 0.930 . S
H450 C408 0.930 . S
H451 C409 0.930 . S
H452 C411 0.929 . S
H453 C412 0.930 . S
H454 C413 0.930 . S
H455 C414 0.930 . S
H456 C418 0.929 . S
H457 C420 0.930 . S
H458 C426 0.929 . S
H459 C427 0.930 . S
Li460 N477 1.990 . S
Li460 O520 1.956 . S
Li460 O521 1.970 . S
Li460 O522 1.961 . S
Li461 N485 1.990 . S
Li461 O520 1.970 . S
Li461 O521 1.956 . S
Li461 O523 1.961 . S
Li462 N507 1.990 . S
Li462 O520 1.961 . S
Li462 O522 1.956 . S
Li462 O523 1.970 . S
Li463 N513 1.990 . S
Li463 O521 1.961 . S
Li463 O522 1.970 . S
Li463 O523 1.956 . S
C464 C466 1.348 . S
C464 C467 1.356 . S
C464 O520 1.325 . S
N465 C468 1.314 . S
N465 C469 1.279 . S
C466 C464 1.348 . S
C466 C468 1.353 . S
C466 H524 0.929 . S
C467 C464 1.356 . S
C467 C469 1.358 . S
C467 H525 0.930 . S
C468 N465 1.314 . S
C468 C466 1.353 . S
C468 H526 0.930 . S
C469 N465 1.279 . S
C469 C467 1.358 . S
C469 H527 0.930 . S
C470 C473 1.348 . S
C470 C474 1.356 . S
C470 O521 1.325 . S
C471 N472 1.279 . S
C471 C474 1.358 . S
C471 H528 0.930 . S
N472 C471 1.279 . S
N472 C475 1.314 . S
C473 C470 1.348 . S
C473 C475 1.353 . S
C473 H529 0.929 . S
C474 C470 1.356 . S
C474 C471 1.358 . S
C474 H530 0.930 . S
C475 N472 1.314 . S
C475 C473 1.353 . S
C475 H531 0.930 . S
C476 N477 1.314 . S
C476 C481 1.353 . S
C476 H482 0.930 . S
N477 Li460 1.990 . S
N477 C476 1.314 . S
N477 C479 1.279 . S
C478 C479 1.358 . S
C478 C480 1.356 . S
C478 H532 0.930 . S
C479 N477 1.279 . S
C479 C478 1.358 . S
C479 H483 0.930 . S
C480 C478 1.356 . S
C480 C481 1.348 . S
C481 C476 1.353 . S
C481 C480 1.348 . S
C481 H533 0.929 . S
H482 C476 0.930 . S
H483 C479 0.930 . S
C484 N485 1.314 . S
C484 C486 1.353 . S
C484 H490 0.930 . S
N485 Li461 1.990 . S
N485 C484 1.314 . S
N485 C488 1.279 . S
C486 C484 1.353 . S
C486 C489 1.348 . S
C486 H534 0.929 . S
C487 C488 1.358 . S
C487 C489 1.356 . S
C487 H535 0.930 . S
C488 N485 1.279 . S
C488 C487 1.358 . S
C488 H491 0.930 . S
C489 C486 1.348 . S
C489 C487 1.356 . S
H490 C484 0.930 . S
H491 C488 0.930 . S
C492 C494 1.348 . S
C492 C495 1.356 . S
C492 O522 1.325 . S
N493 C496 1.314 . S
N493 C497 1.279 . S
C494 C492 1.348 . S
C494 C496 1.353 . S
C494 H536 0.929 . S
C495 C492 1.356 . S
C495 C497 1.358 . S
C495 H537 0.930 . S
C496 N493 1.314 . S
C496 C494 1.353 . S
C496 H538 0.930 . S
C497 N493 1.279 . S
C497 C495 1.358 . S
C497 H539 0.930 . S
C498 C499 1.348 . S
C498 C500 1.356 . S
C498 O523 1.325 . S
C499 C498 1.348 . S
C499 C501 1.353 . S
C499 H540 0.929 . S
C500 C498 1.356 . S
C500 C502 1.358 . S
C500 H541 0.930 . S
C501 C499 1.353 . S
C501 N503 1.314 . S
C501 H542 0.930 . S
C502 C500 1.358 . S
C502 N503 1.279 . S
C502 H543 0.930 . S
N503 C501 1.314 . S
N503 C502 1.279 . S
C504 C506 1.353 . S
C504 N507 1.314 . S
C504 H510 0.930 . S
C505 N507 1.279 . S
C505 C508 1.358 . S
C505 H511 0.930 . S
C506 C504 1.353 . S
C506 C509 1.348 . S
C506 H544 0.929 . S
N507 Li462 1.990 . S
N507 C504 1.314 . S
N507 C505 1.279 . S
C508 C505 1.358 . S
C508 C509 1.356 . S
C508 H545 0.930 . S
C509 C506 1.348 . S
C509 C508 1.356 . S
H510 C504 0.930 . S
H511 C505 0.930 . S
C512 N513 1.314 . S
C512 C514 1.353 . S
C512 H518 0.930 . S
N513 Li463 1.990 . S
N513 C512 1.314 . S
N513 C516 1.279 . S
C514 C512 1.353 . S
C514 C517 1.348 . S
C514 H546 0.929 . S
C515 C516 1.358 . S
C515 C517 1.356 . S
C515 H547 0.930 . S
C516 N513 1.279 . S
C516 C515 1.358 . S
C516 H519 0.930 . S
C517 C514 1.348 . S
C517 C515 1.356 . S
H518 C512 0.930 . S
H519 C516 0.930 . S
O520 Li460 1.956 . S
O520 Li461 1.970 . S
O520 Li462 1.961 . S
O520 C464 1.325 . S
O521 Li460 1.970 . S
O521 Li461 1.956 . S
O521 Li463 1.961 . S
O521 C470 1.325 . S
O522 Li460 1.961 . S
O522 Li462 1.956 . S
O522 Li463 1.970 . S
O522 C492 1.325 . S
O523 Li461 1.961 . S
O523 Li462 1.970 . S
O523 Li463 1.956 . S
O523 C498 1.325 . S
H524 C466 0.929 . S
H525 C467 0.930 . S
H526 C468 0.930 . S
H527 C469 0.930 . S
H528 C471 0.930 . S
H529 C473 0.929 . S
H530 C474 0.930 . S
H531 C475 0.930 . S
H532 C478 0.930 . S
H533 C481 0.929 . S
H534 C486 0.929 . S
H535 C487 0.930 . S
H536 C494 0.929 . S
H537 C495 0.930 . S
H538 C496 0.930 . S
H539 C497 0.930 . S
H540 C499 0.929 . S
H541 C500 0.930 . S
H542 C501 0.930 . S
H543 C502 0.930 . S
H544 C506 0.929 . S
H545 C508 0.930 . S
H546 C514 0.929 . S
H547 C515 0.930 . S
Li548 N565 1.990 . S
Li548 O608 1.956 . S
Li548 O609 1.970 . S
Li548 O610 1.961 . S
Li549 N573 1.990 . S
Li549 O608 1.970 . S
Li549 O609 1.956 . S
Li549 O611 1.961 . S
Li550 N595 1.990 . S
Li550 O608 1.961 . S
Li550 O610 1.956 . S
Li550 O611 1.970 . S
Li551 N601 1.990 . S
Li551 O609 1.961 . S
Li551 O610 1.970 . S
Li551 O611 1.956 . S
C552 C554 1.348 . S
C552 C555 1.356 . S
C552 O608 1.325 . S
N553 C556 1.314 . S
N553 C557 1.279 . S
C554 C552 1.348 . S
C554 C556 1.353 . S
C554 H612 0.929 . S
C555 C552 1.356 . S
C555 C557 1.358 . S
C555 H613 0.930 . S
C556 N553 1.314 . S
C556 C554 1.353 . S
C556 H614 0.930 . S
C557 N553 1.279 . S
C557 C555 1.358 . S
C557 H615 0.930 . S
C558 C561 1.348 . S
C558 C562 1.356 . S
C558 O609 1.325 . S
C559 N560 1.279 . S
C559 C562 1.358 . S
C559 H616 0.930 . S
N560 C559 1.279 . S
N560 C563 1.314 . S
C561 C558 1.348 . S
C561 C563 1.353 . S
C561 H617 0.929 . S
C562 C558 1.356 . S
C562 C559 1.358 . S
C562 H618 0.930 . S
C563 N560 1.314 . S
C563 C561 1.353 . S
C563 H619 0.930 . S
C564 N565 1.314 . S
C564 C569 1.353 . S
C564 H570 0.930 . S
N565 Li548 1.990 . S
N565 C564 1.314 . S
N565 C567 1.279 . S
C566 C567 1.358 . S
C566 C568 1.356 . S
C566 H620 0.930 . S
C567 N565 1.279 . S
C567 C566 1.358 . S
C567 H571 0.930 . S
C568 C566 1.356 . S
C568 C569 1.348 . S
C569 C564 1.353 . S
C569 C568 1.348 . S
C569 H621 0.929 . S
H570 C564 0.930 . S
H571 C567 0.930 . S
C572 N573 1.314 . S
C572 C574 1.353 . S
C572 H578 0.930 . S
N573 Li549 1.990 . S
N573 C572 1.314 . S
N573 C576 1.279 . S
C574 C572 1.353 . S
C574 C577 1.348 . S
C574 H622 0.929 . S
C575 C576 1.358 . S
C575 C577 1.356 . S
C575 H623 0.930 . S
C576 N573 1.279 . S
C576 C575 1.358 . S
C576 H579 0.930 . S
C577 C574 1.348 . S
C577 C575 1.356 . S
H578 C572 0.930 . S
H579 C576 0.930 . S
C580 C582 1.348 . S
C580 C583 1.356 . S
C580 O610 1.325 . S
N581 C584 1.314 . S
N581 C585 1.279 . S
C582 C580 1.348 . S
C582 C584 1.353 . S
C582 H624 0.929 . S
C583 C580 1.356 . S
C583 C585 1.358 . S
C583 H625 0.930 . S
C584 N581 1.314 . S
C584 C582 1.353 . S
C584 H626 0.930 . S
C585 N581 1.279 . S
C585 C583 1.358 . S
C585 H627 0.930 . S
C586 C587 1.348 . S
C586 C588 1.356 . S
C586 O611 1.325 . S
C587 C586 1.348 . S
C587 C589 1.353 . S
C587 H628 0.929 . S
C588 C586 1.356 . S
C588 C590 1.358 . S
C588 H629 0.930 . S
C589 C587 1.353 . S
C589 N591 1.314 . S
C589 H630 0.930 . S
C590 C588 1.358 . S
C590 N591 1.279 . S
C590 H631 0.930 . S
N591 C589 1.314 . S
N591 C590 1.279 . S
C592 C594 1.353 . S
C592 N595 1.314 . S
C592 H598 0.930 . S
C593 N595 1.279 . S
C593 C596 1.358 . S
C593 H599 0.930 . S
C594 C592 1.353 . S
C594 C597 1.348 . S
C594 H632 0.929 . S
N595 Li550 1.990 . S
N595 C592 1.314 . S
N595 C593 1.279 . S
C596 C593 1.358 . S
C596 C597 1.356 . S
C596 H633 0.930 . S
C597 C594 1.348 . S
C597 C596 1.356 . S
H598 C592 0.930 . S
H599 C593 0.930 . S
C600 N601 1.314 . S
C600 C602 1.353 . S
C600 H606 0.930 . S
N601 Li551 1.990 . S
N601 C600 1.314 . S
N601 C604 1.279 . S
C602 C600 1.353 . S
C602 C605 1.348 . S
C602 H634 0.929 . S
C603 C604 1.358 . S
C603 C605 1.356 . S
C603 H635 0.930 . S
C604 N601 1.279 . S
C604 C603 1.358 . S
C604 H607 0.930 . S
C605 C602 1.348 . S
C605 C603 1.356 . S
H606 C600 0.930 . S
H607 C604 0.930 . S
O608 Li548 1.956 . S
O608 Li549 1.970 . S
O608 Li550 1.961 . S
O608 C552 1.325 . S
O609 Li548 1.970 . S
O609 Li549 1.956 . S
O609 Li551 1.961 . S
O609 C558 1.325 . S
O610 Li548 1.961 . S
O610 Li550 1.956 . S
O610 Li551 1.970 . S
O610 C580 1.325 . S
O611 Li549 1.961 . S
O611 Li550 1.970 . S
O611 Li551 1.956 . S
O611 C586 1.325 . S
H612 C554 0.929 . S
H613 C555 0.930 . S
H614 C556 0.930 . S
H615 C557 0.930 . S
H616 C559 0.930 . S
H617 C561 0.929 . S
H618 C562 0.930 . S
H619 C563 0.930 . S
H620 C566 0.930 . S
H621 C569 0.929 . S
H622 C574 0.929 . S
H623 C575 0.930 . S
H624 C582 0.929 . S
H625 C583 0.930 . S
H626 C584 0.930 . S
H627 C585 0.930 . S
H628 C587 0.929 . S
H629 C588 0.930 . S
H630 C589 0.930 . S
H631 C590 0.930 . S
H632 C594 0.929 . S
H633 C596 0.930 . S
H634 C602 0.929 . S
H635 C603 0.930 . S
Li636 N653 1.990 . S
Li636 O696 1.956 . S
Li636 O697 1.970 . S
Li636 O698 1.961 . S
Li637 N661 1.990 . S
Li637 O696 1.970 . S
Li637 O697 1.956 . S
Li637 O699 1.961 . S
Li638 N683 1.990 . S
Li638 O696 1.961 . S
Li638 O698 1.956 . S
Li638 O699 1.970 . S
Li639 N689 1.990 . S
Li639 O697 1.961 . S
Li639 O698 1.970 . S
Li639 O699 1.956 . S
C640 C642 1.348 . S
C640 C643 1.356 . S
C640 O696 1.325 . S
N641 C644 1.314 . S
N641 C645 1.279 . S
C642 C640 1.348 . S
C642 C644 1.353 . S
C642 H700 0.929 . S
C643 C640 1.356 . S
C643 C645 1.358 . S
C643 H701 0.930 . S
C644 N641 1.314 . S
C644 C642 1.353 . S
C644 H702 0.930 . S
C645 N641 1.279 . S
C645 C643 1.358 . S
C645 H703 0.930 . S
C646 C649 1.348 . S
C646 C650 1.356 . S
C646 O697 1.325 . S
C647 N648 1.279 . S
C647 C650 1.358 . S
C647 H704 0.930 . S
N648 C647 1.279 . S
N648 C651 1.314 . S
C649 C646 1.348 . S
C649 C651 1.353 . S
C649 H705 0.929 . S
C650 C646 1.356 . S
C650 C647 1.358 . S
C650 H706 0.930 . S
C651 N648 1.314 . S
C651 C649 1.353 . S
C651 H707 0.930 . S
C652 N653 1.314 . S
C652 C657 1.353 . S
C652 H658 0.930 . S
N653 Li636 1.990 . S
N653 C652 1.314 . S
N653 C655 1.279 . S
C654 C655 1.358 . S
C654 C656 1.356 . S
C654 H708 0.930 1_556 S
C655 N653 1.279 . S
C655 C654 1.358 . S
C655 H659 0.930 . S
C656 C654 1.356 . S
C656 C657 1.348 . S
C657 C652 1.353 . S
C657 C656 1.348 . S
C657 H709 0.929 . S
H658 C652 0.930 . S
H659 C655 0.930 . S
C660 N661 1.314 . S
C660 C662 1.353 . S
C660 H666 0.930 . S
N661 Li637 1.990 . S
N661 C660 1.314 . S
N661 C664 1.279 . S
C662 C660 1.353 . S
C662 C665 1.348 . S
C662 H710 0.929 . S
C663 C664 1.358 . S
C663 C665 1.356 . S
C663 H711 0.930 . S
C664 N661 1.279 . S
C664 C663 1.358 . S
C664 H667 0.930 . S
C665 C662 1.348 . S
C665 C663 1.356 . S
H666 C660 0.930 . S
H667 C664 0.930 . S
C668 C670 1.348 . S
C668 C671 1.356 . S
C668 O698 1.325 . S
N669 C672 1.314 . S
N669 C673 1.279 . S
C670 C668 1.348 . S
C670 C672 1.353 . S
C670 H712 0.929 . S
C671 C668 1.356 . S
C671 C673 1.358 . S
C671 H713 0.930 . S
C672 N669 1.314 . S
C672 C670 1.353 . S
C672 H714 0.930 . S
C673 N669 1.279 . S
C673 C671 1.358 . S
C673 H715 0.930 . S
C674 C675 1.348 . S
C674 C676 1.356 . S
C674 O699 1.325 . S
C675 C674 1.348 . S
C675 C677 1.353 . S
C675 H716 0.929 . S
C676 C674 1.356 . S
C676 C678 1.358 . S
C676 H717 0.930 . S
C677 C675 1.353 . S
C677 N679 1.314 . S
C677 H718 0.930 . S
C678 C676 1.358 . S
C678 N679 1.279 . S
C678 H719 0.930 . S
N679 C677 1.314 . S
N679 C678 1.279 . S
C680 C682 1.353 . S
C680 N683 1.314 . S
C680 H686 0.930 . S
C681 N683 1.279 . S
C681 C684 1.358 . S
C681 H687 0.930 . S
C682 C680 1.353 . S
C682 C685 1.348 . S
C682 H720 0.929 . S
N683 Li638 1.990 . S
N683 C680 1.314 . S
N683 C681 1.279 . S
C684 C681 1.358 . S
C684 C685 1.356 . S
C684 H721 0.930 . S
C685 C682 1.348 . S
C685 C684 1.356 . S
H686 C680 0.930 . S
H687 C681 0.930 . S
C688 N689 1.314 . S
C688 C690 1.353 . S
C688 H694 0.930 . S
N689 Li639 1.990 . S
N689 C688 1.314 . S
N689 C692 1.279 . S
C690 C688 1.353 . S
C690 C693 1.348 . S
C690 H722 0.929 . S
C691 C692 1.358 . S
C691 C693 1.356 . S
C691 H723 0.930 . S
C692 N689 1.279 . S
C692 C691 1.358 . S
C692 H695 0.930 . S
C693 C690 1.348 . S
C693 C691 1.356 . S
H694 C688 0.930 . S
H695 C692 0.930 . S
O696 Li636 1.956 . S
O696 Li637 1.970 . S
O696 Li638 1.961 . S
O696 C640 1.325 . S
O697 Li636 1.970 . S
O697 Li637 1.956 . S
O697 Li639 1.961 . S
O697 C646 1.325 . S
O698 Li636 1.961 . S
O698 Li638 1.956 . S
O698 Li639 1.970 . S
O698 C668 1.325 . S
O699 Li637 1.961 . S
O699 Li638 1.970 . S
O699 Li639 1.956 . S
O699 C674 1.325 . S
H700 C642 0.929 . S
H701 C643 0.930 . S
H702 C644 0.930 . S
H703 C645 0.930 . S
H704 C647 0.930 . S
H705 C649 0.929 . S
H706 C650 0.930 . S
H707 C651 0.930 . S
H708 C654 0.930 1_554 S
H709 C657 0.929 . S
H710 C662 0.929 . S
H711 C663 0.930 . S
H712 C670 0.929 . S
H713 C671 0.930 . S
H714 C672 0.930 . S
H715 C673 0.930 . S
H716 C675 0.929 . S
H717 C676 0.930 . S
H718 C677 0.930 . S
H719 C678 0.930 . S
H720 C682 0.929 . S
H721 C684 0.930 . S
H722 C690 0.929 . S
H723 C691 0.930 . S
Li724 N741 1.990 . S
Li724 O784 1.956 . S
Li724 O785 1.970 . S
Li724 O786 1.961 . S
Li725 N749 1.990 . S
Li725 O784 1.970 . S
Li725 O785 1.956 . S
Li725 O787 1.961 . S
Li726 N771 1.990 . S
Li726 O784 1.961 . S
Li726 O786 1.956 . S
Li726 O787 1.970 . S
Li727 N777 1.990 . S
Li727 O785 1.961 . S
Li727 O786 1.970 . S
Li727 O787 1.956 . S
C728 C730 1.348 . S
C728 C731 1.356 . S
C728 O784 1.325 . S
N729 C732 1.314 . S
N729 C733 1.279 . S
C730 C728 1.348 . S
C730 C732 1.353 . S
C730 H788 0.929 . S
C731 C728 1.356 . S
C731 C733 1.358 . S
C731 H789 0.930 . S
C732 N729 1.314 . S
C732 C730 1.353 . S
C732 H790 0.930 . S
C733 N729 1.279 . S
C733 C731 1.358 . S
C733 H791 0.930 . S
C734 C737 1.348 . S
C734 C738 1.356 . S
C734 O785 1.325 . S
C735 N736 1.279 . S
C735 C738 1.358 . S
C735 H792 0.930 . S
N736 C735 1.279 . S
N736 C739 1.314 . S
C737 C734 1.348 . S
C737 C739 1.353 . S
C737 H793 0.929 . S
C738 C734 1.356 . S
C738 C735 1.358 . S
C738 H794 0.930 . S
C739 N736 1.314 . S
C739 C737 1.353 . S
C739 H795 0.930 . S
C740 N741 1.314 . S
C740 C745 1.353 . S
C740 H746 0.930 . S
N741 Li724 1.990 . S
N741 C740 1.314 . S
N741 C743 1.279 . S
C742 C743 1.358 . S
C742 C744 1.356 . S
C742 H796 0.930 . S
C743 N741 1.279 . S
C743 C742 1.358 . S
C743 H747 0.930 . S
C744 C742 1.356 . S
C744 C745 1.348 . S
C745 C740 1.353 . S
C745 C744 1.348 . S
C745 H797 0.929 . S
H746 C740 0.930 . S
H747 C743 0.930 . S
C748 N749 1.314 . S
C748 C750 1.353 . S
C748 H754 0.930 . S
N749 Li725 1.990 . S
N749 C748 1.314 . S
N749 C752 1.279 . S
C750 C748 1.353 . S
C750 C753 1.348 . S
C750 H798 0.929 . S
C751 C752 1.358 . S
C751 C753 1.356 . S
C751 H799 0.930 . S
C752 N749 1.279 . S
C752 C751 1.358 . S
C752 H755 0.930 . S
C753 C750 1.348 . S
C753 C751 1.356 . S
H754 C748 0.930 . S
H755 C752 0.930 . S
C756 C758 1.348 . S
C756 C759 1.356 . S
C756 O786 1.325 . S
N757 C760 1.314 . S
N757 C761 1.279 . S
C758 C756 1.348 . S
C758 C760 1.353 . S
C758 H800 0.929 . S
C759 C756 1.356 . S
C759 C761 1.358 . S
C759 H801 0.930 . S
C760 N757 1.314 . S
C760 C758 1.353 . S
C760 H802 0.930 . S
C761 N757 1.279 . S
C761 C759 1.358 . S
C761 H803 0.930 . S
C762 C763 1.348 . S
C762 C764 1.356 . S
C762 O787 1.325 . S
C763 C762 1.348 . S
C763 C765 1.353 . S
C763 H804 0.929 . S
C764 C762 1.356 . S
C764 C766 1.358 . S
C764 H805 0.930 . S
C765 C763 1.353 . S
C765 N767 1.314 . S
C765 H806 0.930 . S
C766 C764 1.358 . S
C766 N767 1.279 . S
C766 H807 0.930 . S
N767 C765 1.314 . S
N767 C766 1.279 . S
C768 C770 1.353 . S
C768 N771 1.314 . S
C768 H774 0.930 . S
C769 N771 1.279 . S
C769 C772 1.358 . S
C769 H775 0.930 . S
C770 C768 1.353 . S
C770 C773 1.348 . S
C770 H808 0.929 . S
N771 Li726 1.990 . S
N771 C768 1.314 . S
N771 C769 1.279 . S
C772 C769 1.358 . S
C772 C773 1.356 . S
C772 H809 0.930 1_554 S
C773 C770 1.348 . S
C773 C772 1.356 . S
H774 C768 0.930 . S
H775 C769 0.930 . S
C776 N777 1.314 . S
C776 C778 1.353 . S
C776 H782 0.930 . S
N777 Li727 1.990 . S
N777 C776 1.314 . S
N777 C780 1.279 . S
C778 C776 1.353 . S
C778 C781 1.348 . S
C778 H810 0.929 . S
C779 C780 1.358 . S
C779 C781 1.356 . S
C779 H811 0.930 . S
C780 N777 1.279 . S
C780 C779 1.358 . S
C780 H783 0.930 . S
C781 C778 1.348 . S
C781 C779 1.356 . S
H782 C776 0.930 . S
H783 C780 0.930 . S
O784 Li724 1.956 . S
O784 Li725 1.970 . S
O784 Li726 1.961 . S
O784 C728 1.325 . S
O785 Li724 1.970 . S
O785 Li725 1.956 . S
O785 Li727 1.961 . S
O785 C734 1.325 . S
O786 Li724 1.961 . S
O786 Li726 1.956 . S
O786 Li727 1.970 . S
O786 C756 1.325 . S
O787 Li725 1.961 . S
O787 Li726 1.970 . S
O787 Li727 1.956 . S
O787 C762 1.325 . S
H788 C730 0.929 . S
H789 C731 0.930 . S
H790 C732 0.930 . S
H791 C733 0.930 . S
H792 C735 0.930 . S
H793 C737 0.929 . S
H794 C738 0.930 . S
H795 C739 0.930 . S
H796 C742 0.930 . S
H797 C745 0.929 . S
H798 C750 0.929 . S
H799 C751 0.930 . S
H800 C758 0.929 . S
H801 C759 0.930 . S
H802 C760 0.930 . S
H803 C761 0.930 . S
H804 C763 0.929 . S
H805 C764 0.930 . S
H806 C765 0.930 . S
H807 C766 0.930 . S
H808 C770 0.929 . S
H809 C772 0.930 1_556 S
H810 C778 0.929 . S
H811 C779 0.930 . S
Li812 N829 1.990 . S
Li812 O872 1.956 . S
Li812 O873 1.970 . S
Li812 O874 1.961 . S
Li813 N837 1.990 . S
Li813 O872 1.970 . S
Li813 O873 1.956 . S
Li813 O875 1.961 . S
Li814 N859 1.990 . S
Li814 O872 1.961 . S
Li814 O874 1.956 . S
Li814 O875 1.970 . S
Li815 N865 1.990 . S
Li815 O873 1.961 . S
Li815 O874 1.970 . S
Li815 O875 1.956 . S
C816 C818 1.348 . S
C816 C819 1.356 . S
C816 O872 1.325 . S
N817 C820 1.314 . S
N817 C821 1.279 . S
C818 C816 1.348 . S
C818 C820 1.353 . S
C818 H876 0.929 . S
C819 C816 1.356 . S
C819 C821 1.358 . S
C819 H877 0.930 . S
C820 N817 1.314 . S
C820 C818 1.353 . S
C820 H878 0.930 . S
C821 N817 1.279 . S
C821 C819 1.358 . S
C821 H879 0.930 . S
C822 C825 1.348 . S
C822 C826 1.356 . S
C822 O873 1.325 . S
C823 N824 1.279 . S
C823 C826 1.358 . S
C823 H880 0.930 . S
N824 C823 1.279 . S
N824 C827 1.314 . S
C825 C822 1.348 . S
C825 C827 1.353 . S
C825 H881 0.929 . S
C826 C822 1.356 . S
C826 C823 1.358 . S
C826 H882 0.930 . S
C827 N824 1.314 . S
C827 C825 1.353 . S
C827 H883 0.930 . S
C828 N829 1.314 . S
C828 C833 1.353 . S
C828 H834 0.930 . S
N829 Li812 1.990 . S
N829 C828 1.314 . S
N829 C831 1.279 . S
C830 C831 1.358 . S
C830 C832 1.356 . S
C830 H884 0.930 . S
C831 N829 1.279 . S
C831 C830 1.358 . S
C831 H835 0.930 . S
C832 C830 1.356 . S
C832 C833 1.348 . S
C833 C828 1.353 . S
C833 C832 1.348 . S
C833 H885 0.929 . S
H834 C828 0.930 . S
H835 C831 0.930 . S
C836 N837 1.314 . S
C836 C838 1.353 . S
C836 H842 0.930 . S
N837 Li813 1.990 . S
N837 C836 1.314 . S
N837 C840 1.279 . S
C838 C836 1.353 . S
C838 C841 1.348 . S
C838 H886 0.929 . S
C839 C840 1.358 . S
C839 C841 1.356 . S
C839 H887 0.930 . S
C840 N837 1.279 . S
C840 C839 1.358 . S
C840 H843 0.930 . S
C841 C838 1.348 . S
C841 C839 1.356 . S
H842 C836 0.930 . S
H843 C840 0.930 . S
C844 C846 1.348 . S
C844 C847 1.356 . S
C844 O874 1.325 . S
N845 C848 1.314 . S
N845 C849 1.279 . S
C846 C844 1.348 . S
C846 C848 1.353 . S
C846 H888 0.929 . S
C847 C844 1.356 . S
C847 C849 1.358 . S
C847 H889 0.930 . S
C848 N845 1.314 . S
C848 C846 1.353 . S
C848 H890 0.930 . S
C849 N845 1.279 . S
C849 C847 1.358 . S
C849 H891 0.930 . S
C850 C851 1.348 . S
C850 C852 1.356 . S
C850 O875 1.325 . S
C851 C850 1.348 . S
C851 C853 1.353 . S
C851 H892 0.929 . S
C852 C850 1.356 . S
C852 C854 1.358 . S
C852 H893 0.930 . S
C853 C851 1.353 . S
C853 N855 1.314 . S
C853 H894 0.930 . S
C854 C852 1.358 . S
C854 N855 1.279 . S
C854 H895 0.930 . S
N855 C853 1.314 . S
N855 C854 1.279 . S
C856 C858 1.353 . S
C856 N859 1.314 . S
C856 H862 0.930 . S
C857 N859 1.279 . S
C857 C860 1.358 . S
C857 H863 0.930 . S
C858 C856 1.353 . S
C858 C861 1.348 . S
C858 H896 0.929 . S
N859 Li814 1.990 . S
N859 C856 1.314 . S
N859 C857 1.279 . S
C860 C857 1.358 . S
C860 C861 1.356 . S
C860 H897 0.930 . S
C861 C858 1.348 . S
C861 C860 1.356 . S
H862 C856 0.930 . S
H863 C857 0.930 . S
C864 N865 1.314 . S
C864 C866 1.353 . S
C864 H870 0.930 . S
N865 Li815 1.990 . S
N865 C864 1.314 . S
N865 C868 1.279 . S
C866 C864 1.353 . S
C866 C869 1.348 . S
C866 H898 0.929 . S
C867 C868 1.358 . S
C867 C869 1.356 . S
C867 H899 0.930 . S
C868 N865 1.279 . S
C868 C867 1.358 . S
C868 H871 0.930 . S
C869 C866 1.348 . S
C869 C867 1.356 . S
H870 C864 0.930 . S
H871 C868 0.930 . S
O872 Li812 1.956 . S
O872 Li813 1.970 . S
O872 Li814 1.961 . S
O872 C816 1.325 . S
O873 Li812 1.970 . S
O873 Li813 1.956 . S
O873 Li815 1.961 . S
O873 C822 1.325 . S
O874 Li812 1.961 . S
O874 Li814 1.956 . S
O874 Li815 1.970 . S
O874 C844 1.325 . S
O875 Li813 1.961 . S
O875 Li814 1.970 . S
O875 Li815 1.956 . S
O875 C850 1.325 . S
H876 C818 0.929 . S
H877 C819 0.930 . S
H878 C820 0.930 . S
H879 C821 0.930 . S
H880 C823 0.930 . S
H881 C825 0.929 . S
H882 C826 0.930 . S
H883 C827 0.930 . S
H884 C830 0.930 . S
H885 C833 0.929 . S
H886 C838 0.929 . S
H887 C839 0.930 . S
H888 C846 0.929 . S
H889 C847 0.930 . S
H890 C848 0.930 . S
H891 C849 0.930 . S
H892 C851 0.929 . S
H893 C852 0.930 . S
H894 C853 0.930 . S
H895 C854 0.930 . S
H896 C858 0.929 . S
H897 C860 0.930 . S
H898 C866 0.929 . S
H899 C867 0.930 . S
C900 C901 1.391 . S
C900 C902 1.394 . S
C900 H916 0.931 . S
C901 C900 1.391 . S
C901 C905 1.376 . S
C902 C900 1.394 . S
C902 C903 1.369 . S
C902 C906 1.531 . S
C903 C902 1.369 . S
C903 C904 1.410 . S
C903 C911 1.503 . S
C904 C903 1.410 . S
C904 C905 1.392 . S
C904 C907 1.511 . S
C905 C901 1.376 . S
C905 C904 1.392 . S
C905 H917 0.929 . S
C906 C902 1.531 . S
C906 H918 0.960 . S
C906 H919 0.962 . S
C906 H920 0.960 . S
C907 C904 1.511 . S
C907 H921 0.961 . S
C907 H922 0.961 . S
C907 H923 0.961 . S
C908 C909 1.370 . S
C908 C910 1.363 . S
C908 H924 0.931 . S
C909 C908 1.370 . S
C909 C913 1.408 . S
C910 C908 1.363 . S
C910 C911 1.370 . S
C910 C914 1.524 . S
C911 C903 1.503 . S
C911 C910 1.370 . S
C911 C912 1.403 . S
C912 C911 1.403 . S
C912 C913 1.404 . S
C912 C915 1.539 . S
C913 C909 1.408 . S
C913 C912 1.404 . S
C913 H925 0.930 . S
C914 C910 1.524 . S
C914 H926 0.956 . S
C914 H927 0.961 . S
C914 H928 0.961 . S
C915 C912 1.539 . S
C915 H929 0.958 . S
C915 H930 0.961 . S
C915 H931 0.960 . S
H916 C900 0.931 . S
H917 C905 0.929 . S
H918 C906 0.960 . S
H919 C906 0.962 . S
H920 C906 0.960 . S
H921 C907 0.961 . S
H922 C907 0.961 . S
H923 C907 0.961 . S
H924 C908 0.931 . S
H925 C913 0.930 . S
H926 C914 0.956 . S
H927 C914 0.961 . S
H928 C914 0.961 . S
H929 C915 0.958 . S
H930 C915 0.961 . S
H931 C915 0.960 . S
C932 C933 1.391 . S
C932 C934 1.394 . S
C932 H948 0.931 . S
C933 C932 1.391 . S
C933 C937 1.376 . S
C934 C932 1.394 . S
C934 C935 1.369 . S
C934 C938 1.531 . S
C935 C934 1.369 . S
C935 C936 1.410 . S
C935 C943 1.503 . S
C936 C935 1.410 . S
C936 C937 1.392 . S
C936 C939 1.511 . S
C937 C933 1.376 . S
C937 C936 1.392 . S
C937 H949 0.929 . S
C938 C934 1.531 . S
C938 H950 0.960 . S
C938 H951 0.962 . S
C938 H952 0.960 . S
C939 C936 1.511 . S
C939 H953 0.961 . S
C939 H954 0.961 . S
C939 H955 0.961 . S
C940 C941 1.370 . S
C940 C942 1.363 . S
C940 H956 0.931 . S
C941 C940 1.370 . S
C941 C945 1.408 . S
C942 C940 1.363 . S
C942 C943 1.370 . S
C942 C946 1.524 . S
C943 C935 1.503 . S
C943 C942 1.370 . S
C943 C944 1.403 . S
C944 C943 1.403 . S
C944 C945 1.404 . S
C944 C947 1.539 . S
C945 C941 1.408 . S
C945 C944 1.404 . S
C945 H957 0.930 . S
C946 C942 1.524 . S
C946 H958 0.956 . S
C946 H959 0.961 . S
C946 H960 0.961 . S
C947 C944 1.539 . S
C947 H961 0.958 . S
C947 H962 0.961 . S
C947 H963 0.960 . S
H948 C932 0.931 . S
H949 C937 0.929 . S
H950 C938 0.960 . S
H951 C938 0.962 . S
H952 C938 0.960 . S
H953 C939 0.961 . S
H954 C939 0.961 . S
H955 C939 0.961 . S
H956 C940 0.931 . S
H957 C945 0.930 . S
H958 C946 0.956 . S
H959 C946 0.961 . S
H960 C946 0.961 . S
H961 C947 0.958 . S
H962 C947 0.961 . S
H963 C947 0.960 . S
C964 C965 1.391 . S
C964 C966 1.394 . S
C964 H980 0.931 . S
C965 C964 1.391 . S
C965 C969 1.376 . S
C966 C964 1.394 . S
C966 C967 1.369 . S
C966 C970 1.531 . S
C967 C966 1.369 . S
C967 C968 1.410 . S
C967 C975 1.503 . S
C968 C967 1.410 . S
C968 C969 1.392 . S
C968 C971 1.511 . S
C969 C965 1.376 . S
C969 C968 1.392 . S
C969 H981 0.929 . S
C970 C966 1.531 . S
C970 H982 0.960 . S
C970 H983 0.962 . S
C970 H984 0.960 . S
C971 C968 1.511 . S
C971 H985 0.961 . S
C971 H986 0.961 . S
C971 H987 0.961 . S
C972 C973 1.370 . S
C972 C974 1.363 . S
C972 H988 0.931 . S
C973 C972 1.370 . S
C973 C977 1.408 . S
C974 C972 1.363 . S
C974 C975 1.370 . S
C974 C978 1.524 . S
C975 C967 1.503 . S
C975 C974 1.370 . S
C975 C976 1.403 . S
C976 C975 1.403 . S
C976 C977 1.404 . S
C976 C979 1.539 . S
C977 C973 1.408 . S
C977 C976 1.404 . S
C977 H989 0.930 . S
C978 C974 1.524 . S
C978 H990 0.956 . S
C978 H991 0.961 . S
C978 H992 0.961 . S
C979 C976 1.539 . S
C979 H993 0.958 . S
C979 H994 0.961 . S
C979 H995 0.960 . S
H980 C964 0.931 . S
H981 C969 0.929 . S
H982 C970 0.960 . S
H983 C970 0.962 . S
H984 C970 0.960 . S
H985 C971 0.961 . S
H986 C971 0.961 . S
H987 C971 0.961 . S
H988 C972 0.931 . S
H989 C977 0.930 . S
H990 C978 0.956 . S
H991 C978 0.961 . S
H992 C978 0.961 . S
H993 C979 0.958 . S
H994 C979 0.961 . S
H995 C979 0.960 . S
C996 C997 1.391 . S
C996 C998 1.394 . S
C996 H1012 0.931 . S
C997 C996 1.391 . S
C997 C1001 1.376 . S
C998 C996 1.394 . S
C998 C999 1.369 . S
C998 C1002 1.531 . S
C999 C998 1.369 . S
C999 C1000 1.410 . S
C999 C1007 1.503 . S
C1000 C999 1.410 . S
C1000 C1001 1.392 . S
C1000 C1003 1.511 . S
C1001 C997 1.376 . S
C1001 C1000 1.392 . S
C1001 H1013 0.929 . S
C1002 C998 1.531 . S
C1002 H1014 0.960 . S
C1002 H1015 0.962 . S
C1002 H1016 0.960 . S
C1003 C1000 1.511 . S
C1003 H1017 0.961 . S
C1003 H1018 0.961 . S
C1003 H1019 0.961 . S
C1004 C1005 1.370 . S
C1004 C1006 1.363 . S
C1004 H1020 0.931 . S
C1005 C1004 1.370 . S
C1005 C1009 1.408 . S
C1006 C1004 1.363 . S
C1006 C1007 1.370 . S
C1006 C1010 1.524 . S
C1007 C999 1.503 . S
C1007 C1006 1.370 . S
C1007 C1008 1.403 . S
C1008 C1007 1.403 . S
C1008 C1009 1.404 . S
C1008 C1011 1.539 . S
C1009 C1005 1.408 . S
C1009 C1008 1.404 . S
C1009 H1021 0.930 . S
C1010 C1006 1.524 . S
C1010 H1022 0.956 . S
C1010 H1023 0.961 . S
C1010 H1024 0.961 . S
C1011 C1008 1.539 . S
C1011 H1025 0.958 . S
C1011 H1026 0.961 . S
C1011 H1027 0.960 . S
H1012 C996 0.931 . S
H1013 C1001 0.929 . S
H1014 C1002 0.960 . S
H1015 C1002 0.962 . S
H1016 C1002 0.960 . S
H1017 C1003 0.961 . S
H1018 C1003 0.961 . S
H1019 C1003 0.961 . S
H1020 C1004 0.931 . S
H1021 C1009 0.930 . S
H1022 C1010 0.956 . S
H1023 C1010 0.961 . S
H1024 C1010 0.961 . S
H1025 C1011 0.958 . S
H1026 C1011 0.961 . S
H1027 C1011 0.960 . S
C1028 C1029 1.391 . S
C1028 C1030 1.394 . S
C1028 H1044 0.931 . S
C1029 C1028 1.391 . S
C1029 C1033 1.376 . S
C1030 C1028 1.394 . S
C1030 C1031 1.369 . S
C1030 C1034 1.531 . S
C1031 C1030 1.369 . S
C1031 C1032 1.410 . S
C1031 C1039 1.503 . S
C1032 C1031 1.410 . S
C1032 C1033 1.392 . S
C1032 C1035 1.511 . S
C1033 C1029 1.376 . S
C1033 C1032 1.392 . S
C1033 H1045 0.929 . S
C1034 C1030 1.531 . S
C1034 H1046 0.960 . S
C1034 H1047 0.962 . S
C1034 H1048 0.960 . S
C1035 C1032 1.511 . S
C1035 H1049 0.961 . S
C1035 H1050 0.961 . S
C1035 H1051 0.961 . S
C1036 C1037 1.370 . S
C1036 C1038 1.363 . S
C1036 H1052 0.931 . S
C1037 C1036 1.370 . S
C1037 C1041 1.408 . S
C1038 C1036 1.363 . S
C1038 C1039 1.370 . S
C1038 C1042 1.524 . S
C1039 C1031 1.503 . S
C1039 C1038 1.370 . S
C1039 C1040 1.403 . S
C1040 C1039 1.403 . S
C1040 C1041 1.404 . S
C1040 C1043 1.539 . S
C1041 C1037 1.408 . S
C1041 C1040 1.404 . S
C1041 H1053 0.930 . S
C1042 C1038 1.524 . S
C1042 H1054 0.956 . S
C1042 H1055 0.961 . S
C1042 H1056 0.961 . S
C1043 C1040 1.539 . S
C1043 H1057 0.958 . S
C1043 H1058 0.961 . S
C1043 H1059 0.960 . S
H1044 C1028 0.931 . S
H1045 C1033 0.929 . S
H1046 C1034 0.960 . S
H1047 C1034 0.962 . S
H1048 C1034 0.960 . S
H1049 C1035 0.961 . S
H1050 C1035 0.961 . S
H1051 C1035 0.961 . S
H1052 C1036 0.931 . S
H1053 C1041 0.930 . S
H1054 C1042 0.956 . S
H1055 C1042 0.961 . S
H1056 C1042 0.961 . S
H1057 C1043 0.958 . S
H1058 C1043 0.961 . S
H1059 C1043 0.960 . S
C1060 C1061 1.391 . S
C1060 C1062 1.394 . S
C1060 H1076 0.931 . S
C1061 C1060 1.391 . S
C1061 C1065 1.376 . S
C1062 C1060 1.394 . S
C1062 C1063 1.369 . S
C1062 C1066 1.531 . S
C1063 C1062 1.369 . S
C1063 C1064 1.410 . S
C1063 C1071 1.503 . S
C1064 C1063 1.410 . S
C1064 C1065 1.392 . S
C1064 C1067 1.511 . S
C1065 C1061 1.376 . S
C1065 C1064 1.392 . S
C1065 H1077 0.929 . S
C1066 C1062 1.531 . S
C1066 H1078 0.960 . S
C1066 H1079 0.962 . S
C1066 H1080 0.960 . S
C1067 C1064 1.511 . S
C1067 H1081 0.961 . S
C1067 H1082 0.961 . S
C1067 H1083 0.961 . S
C1068 C1069 1.370 . S
C1068 C1070 1.363 . S
C1068 H1084 0.931 . S
C1069 C1068 1.370 . S
C1069 C1073 1.408 . S
C1070 C1068 1.363 . S
C1070 C1071 1.370 . S
C1070 C1074 1.524 . S
C1071 C1063 1.503 . S
C1071 C1070 1.370 . S
C1071 C1072 1.403 . S
C1072 C1071 1.403 . S
C1072 C1073 1.404 . S
C1072 C1075 1.539 . S
C1073 C1069 1.408 . S
C1073 C1072 1.404 . S
C1073 H1085 0.930 . S
C1074 C1070 1.524 . S
C1074 H1086 0.956 . S
C1074 H1087 0.961 . S
C1074 H1088 0.961 . S
C1075 C1072 1.539 . S
C1075 H1089 0.958 . S
C1075 H1090 0.961 . S
C1075 H1091 0.960 . S
H1076 C1060 0.931 . S
H1077 C1065 0.929 . S
H1078 C1066 0.960 . S
H1079 C1066 0.962 . S
H1080 C1066 0.960 . S
H1081 C1067 0.961 . S
H1082 C1067 0.961 . S
H1083 C1067 0.961 . S
H1084 C1068 0.931 . S
H1085 C1073 0.930 . S
H1086 C1074 0.956 . S
H1087 C1074 0.961 . S
H1088 C1074 0.961 . S
H1089 C1075 0.958 . S
H1090 C1075 0.961 . S
H1091 C1075 0.960 . S
C1092 C1093 1.391 . S
C1092 C1094 1.394 . S
C1092 H1108 0.931 . S
C1093 C1092 1.391 . S
C1093 C1097 1.376 . S
C1094 C1092 1.394 . S
C1094 C1095 1.369 . S
C1094 C1098 1.531 . S
C1095 C1094 1.369 . S
C1095 C1096 1.410 . S
C1095 C1103 1.503 . S
C1096 C1095 1.410 . S
C1096 C1097 1.392 . S
C1096 C1099 1.511 . S
C1097 C1093 1.376 . S
C1097 C1096 1.392 . S
C1097 H1109 0.929 . S
C1098 C1094 1.531 . S
C1098 H1110 0.960 . S
C1098 H1111 0.962 . S
C1098 H1112 0.960 . S
C1099 C1096 1.511 . S
C1099 H1113 0.961 . S
C1099 H1114 0.961 . S
C1099 H1115 0.961 . S
C1100 C1101 1.370 . S
C1100 C1102 1.363 . S
C1100 H1116 0.931 . S
C1101 C1100 1.370 . S
C1101 C1105 1.408 . S
C1102 C1100 1.363 . S
C1102 C1103 1.370 . S
C1102 C1106 1.524 . S
C1103 C1095 1.503 . S
C1103 C1102 1.370 . S
C1103 C1104 1.403 . S
C1104 C1103 1.403 . S
C1104 C1105 1.404 . S
C1104 C1107 1.539 . S
C1105 C1101 1.408 . S
C1105 C1104 1.404 . S
C1105 H1117 0.930 . S
C1106 C1102 1.524 . S
C1106 H1118 0.956 . S
C1106 H1119 0.961 . S
C1106 H1120 0.961 . S
C1107 C1104 1.539 . S
C1107 H1121 0.958 . S
C1107 H1122 0.961 . S
C1107 H1123 0.960 . S
H1108 C1092 0.931 . S
H1109 C1097 0.929 . S
H1110 C1098 0.960 . S
H1111 C1098 0.962 . S
H1112 C1098 0.960 . S
H1113 C1099 0.961 . S
H1114 C1099 0.961 . S
H1115 C1099 0.961 . S
H1116 C1100 0.931 . S
H1117 C1105 0.930 . S
H1118 C1106 0.956 . S
H1119 C1106 0.961 . S
H1120 C1106 0.961 . S
H1121 C1107 0.958 . S
H1122 C1107 0.961 . S
H1123 C1107 0.960 . S
C1124 C1125 1.391 . S
C1124 C1126 1.394 . S
C1124 H1140 0.931 . S
C1125 C1124 1.391 . S
C1125 C1129 1.376 . S
C1126 C1124 1.394 . S
C1126 C1127 1.369 . S
C1126 C1130 1.531 . S
C1127 C1126 1.369 . S
C1127 C1128 1.410 . S
C1127 C1135 1.503 . S
C1128 C1127 1.410 . S
C1128 C1129 1.392 . S
C1128 C1131 1.511 . S
C1129 C1125 1.376 . S
C1129 C1128 1.392 . S
C1129 H1141 0.929 . S
C1130 C1126 1.531 . S
C1130 H1142 0.960 . S
C1130 H1143 0.962 . S
C1130 H1144 0.960 . S
C1131 C1128 1.511 . S
C1131 H1145 0.961 . S
C1131 H1146 0.961 . S
C1131 H1147 0.961 . S
C1132 C1133 1.370 . S
C1132 C1134 1.363 . S
C1132 H1148 0.931 . S
C1133 C1132 1.370 . S
C1133 C1137 1.408 . S
C1134 C1132 1.363 . S
C1134 C1135 1.370 . S
C1134 C1138 1.524 . S
C1135 C1127 1.503 . S
C1135 C1134 1.370 . S
C1135 C1136 1.403 . S
C1136 C1135 1.403 . S
C1136 C1137 1.404 . S
C1136 C1139 1.539 . S
C1137 C1133 1.408 . S
C1137 C1136 1.404 . S
C1137 H1149 0.930 . S
C1138 C1134 1.524 . S
C1138 H1150 0.956 . S
C1138 H1151 0.961 . S
C1138 H1152 0.961 . S
C1139 C1136 1.539 . S
C1139 H1153 0.958 . S
C1139 H1154 0.961 . S
C1139 H1155 0.960 . S
H1140 C1124 0.931 . S
H1141 C1129 0.929 . S
H1142 C1130 0.960 . S
H1143 C1130 0.962 . S
H1144 C1130 0.960 . S
H1145 C1131 0.961 . S
H1146 C1131 0.961 . S
H1147 C1131 0.961 . S
H1148 C1132 0.931 . S
H1149 C1137 0.930 . S
H1150 C1138 0.956 . S
H1151 C1138 0.961 . S
H1152 C1138 0.961 . S
H1153 C1139 0.958 . S
H1154 C1139 0.961 . S
H1155 C1139 0.960 . S
C1156 C1157 1.391 . S
C1156 C1158 1.394 . S
C1156 H1172 0.931 . S
C1157 C1156 1.391 . S
C1157 C1161 1.376 . S
C1158 C1156 1.394 . S
C1158 C1159 1.369 . S
C1158 C1162 1.531 . S
C1159 C1158 1.369 . S
C1159 C1160 1.410 . S
C1159 C1167 1.503 . S
C1160 C1159 1.410 . S
C1160 C1161 1.392 . S
C1160 C1163 1.511 . S
C1161 C1157 1.376 . S
C1161 C1160 1.392 . S
C1161 H1173 0.929 . S
C1162 C1158 1.531 . S
C1162 H1174 0.960 . S
C1162 H1175 0.962 . S
C1162 H1176 0.960 . S
C1163 C1160 1.511 . S
C1163 H1177 0.961 . S
C1163 H1178 0.961 . S
C1163 H1179 0.961 . S
C1164 C1165 1.370 . S
C1164 C1166 1.363 . S
C1164 H1180 0.931 . S
C1165 C1164 1.370 . S
C1165 C1169 1.408 . S
C1166 C1164 1.363 . S
C1166 C1167 1.370 . S
C1166 C1170 1.524 . S
C1167 C1159 1.503 . S
C1167 C1166 1.370 . S
C1167 C1168 1.403 . S
C1168 C1167 1.403 . S
C1168 C1169 1.404 . S
C1168 C1171 1.539 . S
C1169 C1165 1.408 . S
C1169 C1168 1.404 . S
C1169 H1181 0.930 . S
C1170 C1166 1.524 . S
C1170 H1182 0.956 . S
C1170 H1183 0.961 . S
C1170 H1184 0.961 . S
C1171 C1168 1.539 . S
C1171 H1185 0.958 . S
C1171 H1186 0.961 . S
C1171 H1187 0.960 . S
H1172 C1156 0.931 . S
H1173 C1161 0.929 . S
H1174 C1162 0.960 . S
H1175 C1162 0.962 . S
H1176 C1162 0.960 . S
H1177 C1163 0.961 . S
H1178 C1163 0.961 . S
H1179 C1163 0.961 . S
H1180 C1164 0.931 . S
H1181 C1169 0.930 . S
H1182 C1170 0.956 . S
H1183 C1170 0.961 . S
H1184 C1170 0.961 . S
H1185 C1171 0.958 . S
H1186 C1171 0.961 . S
H1187 C1171 0.960 . S
C1188 C1189 1.391 . S
C1188 C1190 1.394 . S
C1188 H1204 0.931 . S
C1189 C1188 1.391 . S
C1189 C1193 1.376 . S
C1190 C1188 1.394 . S
C1190 C1191 1.369 . S
C1190 C1194 1.531 . S
C1191 C1190 1.369 . S
C1191 C1192 1.410 . S
C1191 C1199 1.503 . S
C1192 C1191 1.410 . S
C1192 C1193 1.392 . S
C1192 C1195 1.511 . S
C1193 C1189 1.376 . S
C1193 C1192 1.392 . S
C1193 H1205 0.929 . S
C1194 C1190 1.531 . S
C1194 H1206 0.960 . S
C1194 H1207 0.962 . S
C1194 H1208 0.960 . S
C1195 C1192 1.511 . S
C1195 H1209 0.961 . S
C1195 H1210 0.961 . S
C1195 H1211 0.961 . S
C1196 C1197 1.370 . S
C1196 C1198 1.363 . S
C1196 H1212 0.931 . S
C1197 C1196 1.370 . S
C1197 C1201 1.408 . S
C1198 C1196 1.363 . S
C1198 C1199 1.370 . S
C1198 C1202 1.524 . S
C1199 C1191 1.503 . S
C1199 C1198 1.370 . S
C1199 C1200 1.403 . S
C1200 C1199 1.403 . S
C1200 C1201 1.404 . S
C1200 C1203 1.539 . S
C1201 C1197 1.408 . S
C1201 C1200 1.404 . S
C1201 H1213 0.930 . S
C1202 C1198 1.524 . S
C1202 H1214 0.956 . S
C1202 H1215 0.961 . S
C1202 H1216 0.961 . S
C1203 C1200 1.539 . S
C1203 H1217 0.958 . S
C1203 H1218 0.961 . S
C1203 H1219 0.960 . S
H1204 C1188 0.931 . S
H1205 C1193 0.929 . S
H1206 C1194 0.960 . S
H1207 C1194 0.962 . S
H1208 C1194 0.960 . S
H1209 C1195 0.961 . S
H1210 C1195 0.961 . S
H1211 C1195 0.961 . S
H1212 C1196 0.931 . S
H1213 C1201 0.930 . S
H1214 C1202 0.956 . S
H1215 C1202 0.961 . S
H1216 C1202 0.961 . S
H1217 C1203 0.958 . S
H1218 C1203 0.961 . S
H1219 C1203 0.960 . S
C1220 C1221 1.391 . S
C1220 C1222 1.394 . S
C1220 H1236 0.931 . S
C1221 C1220 1.391 . S
C1221 C1225 1.376 . S
C1222 C1220 1.394 . S
C1222 C1223 1.369 . S
C1222 C1226 1.531 . S
C1223 C1222 1.369 . S
C1223 C1224 1.410 . S
C1223 C1231 1.503 . S
C1224 C1223 1.410 . S
C1224 C1225 1.392 . S
C1224 C1227 1.511 . S
C1225 C1221 1.376 . S
C1225 C1224 1.392 . S
C1225 H1237 0.929 . S
C1226 C1222 1.531 . S
C1226 H1238 0.960 . S
C1226 H1239 0.962 . S
C1226 H1240 0.960 . S
C1227 C1224 1.511 . S
C1227 H1241 0.961 . S
C1227 H1242 0.961 . S
C1227 H1243 0.961 . S
C1228 C1229 1.370 . S
C1228 C1230 1.363 . S
C1228 H1244 0.931 . S
C1229 C1228 1.370 . S
C1229 C1233 1.408 . S
C1230 C1228 1.363 . S
C1230 C1231 1.370 . S
C1230 C1234 1.524 . S
C1231 C1223 1.503 . S
C1231 C1230 1.370 . S
C1231 C1232 1.403 . S
C1232 C1231 1.403 . S
C1232 C1233 1.404 . S
C1232 C1235 1.539 . S
C1233 C1229 1.408 . S
C1233 C1232 1.404 . S
C1233 H1245 0.930 . S
C1234 C1230 1.524 . S
C1234 H1246 0.956 . S
C1234 H1247 0.961 . S
C1234 H1248 0.961 . S
C1235 C1232 1.539 . S
C1235 H1249 0.958 . S
C1235 H1250 0.961 . S
C1235 H1251 0.960 . S
H1236 C1220 0.931 . S
H1237 C1225 0.929 . S
H1238 C1226 0.960 . S
H1239 C1226 0.962 . S
H1240 C1226 0.960 . S
H1241 C1227 0.961 . S
H1242 C1227 0.961 . S
H1243 C1227 0.961 . S
H1244 C1228 0.931 . S
H1245 C1233 0.930 . S
H1246 C1234 0.956 . S
H1247 C1234 0.961 . S
H1248 C1234 0.961 . S
H1249 C1235 0.958 . S
H1250 C1235 0.961 . S
H1251 C1235 0.960 . S
C1252 C1253 1.391 . S
C1252 C1254 1.394 . S
C1252 H1268 0.931 . S
C1253 C1252 1.391 . S
C1253 C1257 1.376 . S
C1254 C1252 1.394 . S
C1254 C1255 1.369 . S
C1254 C1258 1.531 . S
C1255 C1254 1.369 . S
C1255 C1256 1.410 . S
C1255 C1263 1.503 . S
C1256 C1255 1.410 . S
C1256 C1257 1.392 . S
C1256 C1259 1.511 . S
C1257 C1253 1.376 . S
C1257 C1256 1.392 . S
C1257 H1269 0.929 . S
C1258 C1254 1.531 . S
C1258 H1270 0.960 . S
C1258 H1271 0.962 . S
C1258 H1272 0.960 . S
C1259 C1256 1.511 . S
C1259 H1273 0.961 . S
C1259 H1274 0.961 . S
C1259 H1275 0.961 . S
C1260 C1261 1.370 . S
C1260 C1262 1.363 . S
C1260 H1276 0.931 . S
C1261 C1260 1.370 . S
C1261 C1265 1.408 . S
C1262 C1260 1.363 . S
C1262 C1263 1.370 . S
C1262 C1266 1.524 . S
C1263 C1255 1.503 . S
C1263 C1262 1.370 . S
C1263 C1264 1.403 . S
C1264 C1263 1.403 . S
C1264 C1265 1.404 . S
C1264 C1267 1.539 . S
C1265 C1261 1.408 . S
C1265 C1264 1.404 . S
C1265 H1277 0.930 . S
C1266 C1262 1.524 . S
C1266 H1278 0.956 . S
C1266 H1279 0.961 . S
C1266 H1280 0.961 . S
C1267 C1264 1.539 . S
C1267 H1281 0.958 . S
C1267 H1282 0.961 . S
C1267 H1283 0.960 . S
H1268 C1252 0.931 . S
H1269 C1257 0.929 . S
H1270 C1258 0.960 . S
H1271 C1258 0.962 . S
H1272 C1258 0.960 . S
H1273 C1259 0.961 . S
H1274 C1259 0.961 . S
H1275 C1259 0.961 . S
H1276 C1260 0.931 . S
H1277 C1265 0.930 . S
H1278 C1266 0.956 . S
H1279 C1266 0.961 . S
H1280 C1266 0.961 . S
H1281 C1267 0.958 . S
H1282 C1267 0.961 . S
H1283 C1267 0.960 . S
C1284 C1285 1.391 . S
C1284 C1286 1.394 . S
C1284 H1300 0.931 . S
C1285 C1284 1.391 . S
C1285 C1289 1.376 . S
C1286 C1284 1.394 . S
C1286 C1287 1.369 . S
C1286 C1290 1.531 . S
C1287 C1286 1.369 . S
C1287 C1288 1.410 . S
C1287 C1295 1.503 . S
C1288 C1287 1.410 . S
C1288 C1289 1.392 . S
C1288 C1291 1.511 . S
C1289 C1285 1.376 . S
C1289 C1288 1.392 . S
C1289 H1301 0.929 . S
C1290 C1286 1.531 . S
C1290 H1302 0.960 . S
C1290 H1303 0.962 . S
C1290 H1304 0.960 . S
C1291 C1288 1.511 . S
C1291 H1305 0.961 . S
C1291 H1306 0.961 . S
C1291 H1307 0.961 . S
C1292 C1293 1.370 . S
C1292 C1294 1.363 . S
C1292 H1308 0.931 . S
C1293 C1292 1.370 . S
C1293 C1297 1.408 . S
C1294 C1292 1.363 . S
C1294 C1295 1.370 . S
C1294 C1298 1.524 . S
C1295 C1287 1.503 . S
C1295 C1294 1.370 . S
C1295 C1296 1.403 . S
C1296 C1295 1.403 . S
C1296 C1297 1.404 . S
C1296 C1299 1.539 . S
C1297 C1293 1.408 . S
C1297 C1296 1.404 . S
C1297 H1309 0.930 . S
C1298 C1294 1.524 . S
C1298 H1310 0.956 . S
C1298 H1311 0.961 . S
C1298 H1312 0.961 . S
C1299 C1296 1.539 . S
C1299 H1313 0.958 . S
C1299 H1314 0.961 . S
C1299 H1315 0.960 . S
H1300 C1284 0.931 . S
H1301 C1289 0.929 . S
H1302 C1290 0.960 . S
H1303 C1290 0.962 . S
H1304 C1290 0.960 . S
H1305 C1291 0.961 . S
H1306 C1291 0.961 . S
H1307 C1291 0.961 . S
H1308 C1292 0.931 . S
H1309 C1297 0.930 . S
H1310 C1298 0.956 . S
H1311 C1298 0.961 . S
H1312 C1298 0.961 . S
H1313 C1299 0.958 . S
H1314 C1299 0.961 . S
H1315 C1299 0.960 . S
C1316 C1317 1.391 . S
C1316 C1318 1.394 . S
C1316 H1332 0.931 . S
C1317 C1316 1.391 . S
C1317 C1321 1.376 . S
C1318 C1316 1.394 . S
C1318 C1319 1.369 . S
C1318 C1322 1.531 . S
C1319 C1318 1.369 . S
C1319 C1320 1.410 . S
C1319 C1327 1.503 . S
C1320 C1319 1.410 . S
C1320 C1321 1.392 . S
C1320 C1323 1.511 . S
C1321 C1317 1.376 . S
C1321 C1320 1.392 . S
C1321 H1333 0.929 . S
C1322 C1318 1.531 . S
C1322 H1334 0.960 . S
C1322 H1335 0.962 . S
C1322 H1336 0.960 . S
C1323 C1320 1.511 . S
C1323 H1337 0.961 . S
C1323 H1338 0.961 . S
C1323 H1339 0.961 . S
C1324 C1325 1.370 . S
C1324 C1326 1.363 . S
C1324 H1340 0.931 . S
C1325 C1324 1.370 . S
C1325 C1329 1.408 . S
C1326 C1324 1.363 . S
C1326 C1327 1.370 . S
C1326 C1330 1.524 . S
C1327 C1319 1.503 . S
C1327 C1326 1.370 . S
C1327 C1328 1.403 . S
C1328 C1327 1.403 . S
C1328 C1329 1.404 . S
C1328 C1331 1.539 . S
C1329 C1325 1.408 . S
C1329 C1328 1.404 . S
C1329 H1341 0.930 . S
C1330 C1326 1.524 . S
C1330 H1342 0.956 . S
C1330 H1343 0.961 . S
C1330 H1344 0.961 . S
C1331 C1328 1.539 . S
C1331 H1345 0.958 . S
C1331 H1346 0.961 . S
C1331 H1347 0.960 . S
H1332 C1316 0.931 . S
H1333 C1321 0.929 . S
H1334 C1322 0.960 . S
H1335 C1322 0.962 . S
H1336 C1322 0.960 . S
H1337 C1323 0.961 . S
H1338 C1323 0.961 . S
H1339 C1323 0.961 . S
H1340 C1324 0.931 . S
H1341 C1329 0.930 . S
H1342 C1330 0.956 . S
H1343 C1330 0.961 . S
H1344 C1330 0.961 . S
H1345 C1331 0.958 . S
H1346 C1331 0.961 . S
H1347 C1331 0.960 . S
C1348 C1349 1.391 . S
C1348 C1350 1.394 . S
C1348 H1364 0.931 . S
C1349 C1348 1.391 . S
C1349 C1353 1.376 . S
C1350 C1348 1.394 . S
C1350 C1351 1.369 . S
C1350 C1354 1.531 . S
C1351 C1350 1.369 . S
C1351 C1352 1.410 . S
C1351 C1359 1.503 . S
C1352 C1351 1.410 . S
C1352 C1353 1.392 . S
C1352 C1355 1.511 . S
C1353 C1349 1.376 . S
C1353 C1352 1.392 . S
C1353 H1365 0.929 . S
C1354 C1350 1.531 . S
C1354 H1366 0.960 . S
C1354 H1367 0.962 . S
C1354 H1368 0.960 . S
C1355 C1352 1.511 . S
C1355 H1369 0.961 . S
C1355 H1370 0.961 . S
C1355 H1371 0.961 . S
C1356 C1357 1.370 . S
C1356 C1358 1.363 . S
C1356 H1372 0.931 . S
C1357 C1356 1.370 . S
C1357 C1361 1.408 . S
C1358 C1356 1.363 . S
C1358 C1359 1.370 . S
C1358 C1362 1.524 . S
C1359 C1351 1.503 . S
C1359 C1358 1.370 . S
C1359 C1360 1.403 . S
C1360 C1359 1.403 . S
C1360 C1361 1.404 . S
C1360 C1363 1.539 . S
C1361 C1357 1.408 . S
C1361 C1360 1.404 . S
C1361 H1373 0.930 . S
C1362 C1358 1.524 . S
C1362 H1374 0.956 . S
C1362 H1375 0.961 . S
C1362 H1376 0.961 . S
C1363 C1360 1.539 . S
C1363 H1377 0.958 . S
C1363 H1378 0.961 . S
C1363 H1379 0.960 . S
H1364 C1348 0.931 . S
H1365 C1353 0.929 . S
H1366 C1354 0.960 . S
H1367 C1354 0.962 . S
H1368 C1354 0.960 . S
H1369 C1355 0.961 . S
H1370 C1355 0.961 . S
H1371 C1355 0.961 . S
H1372 C1356 0.931 . S
H1373 C1361 0.930 . S
H1374 C1362 0.956 . S
H1375 C1362 0.961 . S
H1376 C1362 0.961 . S
H1377 C1363 0.958 . S
H1378 C1363 0.961 . S
H1379 C1363 0.960 . S
C1380 C1381 1.391 . S
C1380 C1382 1.394 . S
C1380 H1396 0.931 . S
C1381 C1380 1.391 . S
C1381 C1385 1.376 . S
C1382 C1380 1.394 . S
C1382 C1383 1.369 . S
C1382 C1386 1.531 . S
C1383 C1382 1.369 . S
C1383 C1384 1.410 . S
C1383 C1391 1.503 . S
C1384 C1383 1.410 . S
C1384 C1385 1.392 . S
C1384 C1387 1.511 . S
C1385 C1381 1.376 . S
C1385 C1384 1.392 . S
C1385 H1397 0.929 . S
C1386 C1382 1.531 . S
C1386 H1398 0.960 . S
C1386 H1399 0.962 . S
C1386 H1400 0.960 . S
C1387 C1384 1.511 . S
C1387 H1401 0.961 . S
C1387 H1402 0.961 . S
C1387 H1403 0.961 . S
C1388 C1389 1.370 . S
C1388 C1390 1.363 . S
C1388 H1404 0.931 . S
C1389 C1388 1.370 . S
C1389 C1393 1.408 . S
C1390 C1388 1.363 . S
C1390 C1391 1.370 . S
C1390 C1394 1.524 . S
C1391 C1383 1.503 . S
C1391 C1390 1.370 . S
C1391 C1392 1.403 . S
C1392 C1391 1.403 . S
C1392 C1393 1.404 . S
C1392 C1395 1.539 . S
C1393 C1389 1.408 . S
C1393 C1392 1.404 . S
C1393 H1405 0.930 . S
C1394 C1390 1.524 . S
C1394 H1406 0.956 . S
C1394 H1407 0.961 . S
C1394 H1408 0.961 . S
C1395 C1392 1.539 . S
C1395 H1409 0.958 . S
C1395 H1410 0.961 . S
C1395 H1411 0.960 . S
H1396 C1380 0.931 . S
H1397 C1385 0.929 . S
H1398 C1386 0.960 . S
H1399 C1386 0.962 . S
H1400 C1386 0.960 . S
H1401 C1387 0.961 . S
H1402 C1387 0.961 . S
H1403 C1387 0.961 . S
H1404 C1388 0.931 . S
H1405 C1393 0.930 . S
H1406 C1394 0.956 . S
H1407 C1394 0.961 . S
H1408 C1394 0.961 . S
H1409 C1395 0.958 . S
H1410 C1395 0.961 . S
H1411 C1395 0.960 . S
C1412 C1413 1.391 . S
C1412 C1414 1.394 . S
C1412 H1428 0.931 . S
C1413 C1412 1.391 . S
C1413 C1417 1.376 . S
C1414 C1412 1.394 . S
C1414 C1415 1.369 . S
C1414 C1418 1.531 . S
C1415 C1414 1.369 . S
C1415 C1416 1.410 . S
C1415 C1423 1.503 . S
C1416 C1415 1.410 . S
C1416 C1417 1.392 . S
C1416 C1419 1.511 . S
C1417 C1413 1.376 . S
C1417 C1416 1.392 . S
C1417 H1429 0.929 . S
C1418 C1414 1.531 . S
C1418 H1430 0.960 . S
C1418 H1431 0.962 . S
C1418 H1432 0.960 . S
C1419 C1416 1.511 . S
C1419 H1433 0.961 . S
C1419 H1434 0.961 . S
C1419 H1435 0.961 . S
C1420 C1421 1.370 . S
C1420 C1422 1.363 . S
C1420 H1436 0.931 . S
C1421 C1420 1.370 . S
C1421 C1425 1.408 . S
C1422 C1420 1.363 . S
C1422 C1423 1.370 . S
C1422 C1426 1.524 . S
C1423 C1415 1.503 . S
C1423 C1422 1.370 . S
C1423 C1424 1.403 . S
C1424 C1423 1.403 . S
C1424 C1425 1.404 . S
C1424 C1427 1.539 . S
C1425 C1421 1.408 . S
C1425 C1424 1.404 . S
C1425 H1437 0.930 . S
C1426 C1422 1.524 . S
C1426 H1438 0.956 . S
C1426 H1439 0.961 . S
C1426 H1440 0.961 . S
C1427 C1424 1.539 . S
C1427 H1441 0.958 . S
C1427 H1442 0.961 . S
C1427 H1443 0.960 . S
H1428 C1412 0.931 . S
H1429 C1417 0.929 . S
H1430 C1418 0.960 . S
H1431 C1418 0.962 . S
H1432 C1418 0.960 . S
H1433 C1419 0.961 . S
H1434 C1419 0.961 . S
H1435 C1419 0.961 . S
H1436 C1420 0.931 . S
H1437 C1425 0.930 . S
H1438 C1426 0.956 . S
H1439 C1426 0.961 . S
H1440 C1426 0.961 . S
H1441 C1427 0.958 . S
H1442 C1427 0.961 . S
H1443 C1427 0.960 . S
C1444 C1445 1.391 . S
C1444 C1446 1.394 . S
C1444 H1460 0.931 . S
C1445 C1444 1.391 . S
C1445 C1449 1.376 . S
C1446 C1444 1.394 . S
C1446 C1447 1.369 . S
C1446 C1450 1.531 . S
C1447 C1446 1.369 . S
C1447 C1448 1.410 . S
C1447 C1455 1.503 . S
C1448 C1447 1.410 . S
C1448 C1449 1.392 . S
C1448 C1451 1.511 . S
C1449 C1445 1.376 . S
C1449 C1448 1.392 . S
C1449 H1461 0.929 . S
C1450 C1446 1.531 . S
C1450 H1462 0.960 . S
C1450 H1463 0.962 . S
C1450 H1464 0.960 . S
C1451 C1448 1.511 . S
C1451 H1465 0.961 . S
C1451 H1466 0.961 . S
C1451 H1467 0.961 . S
C1452 C1453 1.370 . S
C1452 C1454 1.363 . S
C1452 H1468 0.931 . S
C1453 C1452 1.370 . S
C1453 C1457 1.408 . S
C1454 C1452 1.363 . S
C1454 C1455 1.370 . S
C1454 C1458 1.524 . S
C1455 C1447 1.503 . S
C1455 C1454 1.370 . S
C1455 C1456 1.403 . S
C1456 C1455 1.403 . S
C1456 C1457 1.404 . S
C1456 C1459 1.539 . S
C1457 C1453 1.408 . S
C1457 C1456 1.404 . S
C1457 H1469 0.930 . S
C1458 C1454 1.524 . S
C1458 H1470 0.956 . S
C1458 H1471 0.961 . S
C1458 H1472 0.961 . S
C1459 C1456 1.539 . S
C1459 H1473 0.958 . S
C1459 H1474 0.961 . S
C1459 H1475 0.960 . S
H1460 C1444 0.931 . S
H1461 C1449 0.929 . S
H1462 C1450 0.960 . S
H1463 C1450 0.962 . S
H1464 C1450 0.960 . S
H1465 C1451 0.961 . S
H1466 C1451 0.961 . S
H1467 C1451 0.961 . S
H1468 C1452 0.931 . S
H1469 C1457 0.930 . S
H1470 C1458 0.956 . S
H1471 C1458 0.961 . S
H1472 C1458 0.961 . S
H1473 C1459 0.958 . S
H1474 C1459 0.961 . S
H1475 C1459 0.960 . S
C1476 C1477 1.391 . S
C1476 C1478 1.394 . S
C1476 H1492 0.931 . S
C1477 C1476 1.391 . S
C1477 C1481 1.376 . S
C1478 C1476 1.394 . S
C1478 C1479 1.369 . S
C1478 C1482 1.531 . S
C1479 C1478 1.369 . S
C1479 C1480 1.410 . S
C1479 C1487 1.503 . S
C1480 C1479 1.410 . S
C1480 C1481 1.392 . S
C1480 C1483 1.511 . S
C1481 C1477 1.376 . S
C1481 C1480 1.392 . S
C1481 H1493 0.929 . S
C1482 C1478 1.531 . S
C1482 H1494 0.960 . S
C1482 H1495 0.962 . S
C1482 H1496 0.960 . S
C1483 C1480 1.511 . S
C1483 H1497 0.961 . S
C1483 H1498 0.961 . S
C1483 H1499 0.961 . S
C1484 C1485 1.370 . S
C1484 C1486 1.363 . S
C1484 H1500 0.931 . S
C1485 C1484 1.370 . S
C1485 C1489 1.408 . S
C1486 C1484 1.363 . S
C1486 C1487 1.370 . S
C1486 C1490 1.524 . S
C1487 C1479 1.503 . S
C1487 C1486 1.370 . S
C1487 C1488 1.403 . S
C1488 C1487 1.403 . S
C1488 C1489 1.404 . S
C1488 C1491 1.539 . S
C1489 C1485 1.408 . S
C1489 C1488 1.404 . S
C1489 H1501 0.930 . S
C1490 C1486 1.524 . S
C1490 H1502 0.956 . S
C1490 H1503 0.961 . S
C1490 H1504 0.961 . S
C1491 C1488 1.539 . S
C1491 H1505 0.958 . S
C1491 H1506 0.961 . S
C1491 H1507 0.960 . S
H1492 C1476 0.931 . S
H1493 C1481 0.929 . S
H1494 C1482 0.960 . S
H1495 C1482 0.962 . S
H1496 C1482 0.960 . S
H1497 C1483 0.961 . S
H1498 C1483 0.961 . S
H1499 C1483 0.961 . S
H1500 C1484 0.931 . S
H1501 C1489 0.930 . S
H1502 C1490 0.956 . S
H1503 C1490 0.961 . S
H1504 C1490 0.961 . S
H1505 C1491 0.958 . S
H1506 C1491 0.961 . S
H1507 C1491 0.960 . S
C1508 C1509 1.391 . S
C1508 C1510 1.394 . S
C1508 H1524 0.931 . S
C1509 C1508 1.391 . S
C1509 C1513 1.376 . S
C1510 C1508 1.394 . S
C1510 C1511 1.369 . S
C1510 C1514 1.531 . S
C1511 C1510 1.369 . S
C1511 C1512 1.410 . S
C1511 C1519 1.503 . S
C1512 C1511 1.410 . S
C1512 C1513 1.392 . S
C1512 C1515 1.511 . S
C1513 C1509 1.376 . S
C1513 C1512 1.392 . S
C1513 H1525 0.929 . S
C1514 C1510 1.531 . S
C1514 H1526 0.960 . S
C1514 H1527 0.962 . S
C1514 H1528 0.960 . S
C1515 C1512 1.511 . S
C1515 H1529 0.961 . S
C1515 H1530 0.961 . S
C1515 H1531 0.961 . S
C1516 C1517 1.370 . S
C1516 C1518 1.363 . S
C1516 H1532 0.931 . S
C1517 C1516 1.370 . S
C1517 C1521 1.408 . S
C1518 C1516 1.363 . S
C1518 C1519 1.370 . S
C1518 C1522 1.524 . S
C1519 C1511 1.503 . S
C1519 C1518 1.370 . S
C1519 C1520 1.403 . S
C1520 C1519 1.403 . S
C1520 C1521 1.404 . S
C1520 C1523 1.539 . S
C1521 C1517 1.408 . S
C1521 C1520 1.404 . S
C1521 H1533 0.930 . S
C1522 C1518 1.524 . S
C1522 H1534 0.956 . S
C1522 H1535 0.961 . S
C1522 H1536 0.961 . S
C1523 C1520 1.539 . S
C1523 H1537 0.958 . S
C1523 H1538 0.961 . S
C1523 H1539 0.960 . S
H1524 C1508 0.931 . S
H1525 C1513 0.929 . S
H1526 C1514 0.960 . S
H1527 C1514 0.962 . S
H1528 C1514 0.960 . S
H1529 C1515 0.961 . S
H1530 C1515 0.961 . S
H1531 C1515 0.961 . S
H1532 C1516 0.931 . S
H1533 C1521 0.930 . S
H1534 C1522 0.956 . S
H1535 C1522 0.961 . S
H1536 C1522 0.961 . S
H1537 C1523 0.958 . S
H1538 C1523 0.961 . S
H1539 C1523 0.960 . S
C1540 C1541 1.391 . S
C1540 C1542 1.394 . S
C1540 H1556 0.931 . S
C1541 C1540 1.391 . S
C1541 C1545 1.376 . S
C1542 C1540 1.394 . S
C1542 C1543 1.369 . S
C1542 C1546 1.531 . S
C1543 C1542 1.369 . S
C1543 C1544 1.410 . S
C1543 C1551 1.503 . S
C1544 C1543 1.410 . S
C1544 C1545 1.392 . S
C1544 C1547 1.511 . S
C1545 C1541 1.376 . S
C1545 C1544 1.392 . S
C1545 H1557 0.929 . S
C1546 C1542 1.531 . S
C1546 H1558 0.960 . S
C1546 H1559 0.962 . S
C1546 H1560 0.960 . S
C1547 C1544 1.511 . S
C1547 H1561 0.961 . S
C1547 H1562 0.961 . S
C1547 H1563 0.961 . S
C1548 C1549 1.370 . S
C1548 C1550 1.363 . S
C1548 H1564 0.931 . S
C1549 C1548 1.370 . S
C1549 C1553 1.408 . S
C1550 C1548 1.363 . S
C1550 C1551 1.370 . S
C1550 C1554 1.524 . S
C1551 C1543 1.503 . S
C1551 C1550 1.370 . S
C1551 C1552 1.403 . S
C1552 C1551 1.403 . S
C1552 C1553 1.404 . S
C1552 C1555 1.539 . S
C1553 C1549 1.408 . S
C1553 C1552 1.404 . S
C1553 H1565 0.930 . S
C1554 C1550 1.524 . S
C1554 H1566 0.956 . S
C1554 H1567 0.961 . S
C1554 H1568 0.961 . S
C1555 C1552 1.539 . S
C1555 H1569 0.958 . S
C1555 H1570 0.961 . S
C1555 H1571 0.960 . S
H1556 C1540 0.931 . S
H1557 C1545 0.929 . S
H1558 C1546 0.960 . S
H1559 C1546 0.962 . S
H1560 C1546 0.960 . S
H1561 C1547 0.961 . S
H1562 C1547 0.961 . S
H1563 C1547 0.961 . S
H1564 C1548 0.931 . S
H1565 C1553 0.930 . S
H1566 C1554 0.956 . S
H1567 C1554 0.961 . S
H1568 C1554 0.961 . S
H1569 C1555 0.958 . S
H1570 C1555 0.961 . S
H1571 C1555 0.960 . S
C1572 C1573 1.391 . S
C1572 C1574 1.394 . S
C1572 H1588 0.931 . S
C1573 C1572 1.391 . S
C1573 C1577 1.376 . S
C1574 C1572 1.394 . S
C1574 C1575 1.369 . S
C1574 C1578 1.531 . S
C1575 C1574 1.369 . S
C1575 C1576 1.410 . S
C1575 C1583 1.503 . S
C1576 C1575 1.410 . S
C1576 C1577 1.392 . S
C1576 C1579 1.511 . S
C1577 C1573 1.376 . S
C1577 C1576 1.392 . S
C1577 H1589 0.929 . S
C1578 C1574 1.531 . S
C1578 H1590 0.960 . S
C1578 H1591 0.962 . S
C1578 H1592 0.960 . S
C1579 C1576 1.511 . S
C1579 H1593 0.961 . S
C1579 H1594 0.961 . S
C1579 H1595 0.961 . S
C1580 C1581 1.370 . S
C1580 C1582 1.363 . S
C1580 H1596 0.931 . S
C1581 C1580 1.370 . S
C1581 C1585 1.408 . S
C1582 C1580 1.363 . S
C1582 C1583 1.370 . S
C1582 C1586 1.524 . S
C1583 C1575 1.503 . S
C1583 C1582 1.370 . S
C1583 C1584 1.403 . S
C1584 C1583 1.403 . S
C1584 C1585 1.404 . S
C1584 C1587 1.539 . S
C1585 C1581 1.408 . S
C1585 C1584 1.404 . S
C1585 H1597 0.930 . S
C1586 C1582 1.524 . S
C1586 H1598 0.956 . S
C1586 H1599 0.961 . S
C1586 H1600 0.961 . S
C1587 C1584 1.539 . S
C1587 H1601 0.958 . S
C1587 H1602 0.961 . S
C1587 H1603 0.960 . S
H1588 C1572 0.931 . S
H1589 C1577 0.929 . S
H1590 C1578 0.960 . S
H1591 C1578 0.962 . S
H1592 C1578 0.960 . S
H1593 C1579 0.961 . S
H1594 C1579 0.961 . S
H1595 C1579 0.961 . S
H1596 C1580 0.931 . S
H1597 C1585 0.930 . S
H1598 C1586 0.956 . S
H1599 C1586 0.961 . S
H1600 C1586 0.961 . S
H1601 C1587 0.958 . S
H1602 C1587 0.961 . S
H1603 C1587 0.960 . S
C1604 C1605 1.391 . S
C1604 C1606 1.394 . S
C1604 H1620 0.931 . S
C1605 C1604 1.391 . S
C1605 C1609 1.376 . S
C1606 C1604 1.394 . S
C1606 C1607 1.369 . S
C1606 C1610 1.531 . S
C1607 C1606 1.369 . S
C1607 C1608 1.410 . S
C1607 C1615 1.503 . S
C1608 C1607 1.410 . S
C1608 C1609 1.392 . S
C1608 C1611 1.511 . S
C1609 C1605 1.376 . S
C1609 C1608 1.392 . S
C1609 H1621 0.929 . S
C1610 C1606 1.531 . S
C1610 H1622 0.960 . S
C1610 H1623 0.962 . S
C1610 H1624 0.960 . S
C1611 C1608 1.511 . S
C1611 H1625 0.961 . S
C1611 H1626 0.961 . S
C1611 H1627 0.961 . S
C1612 C1613 1.370 . S
C1612 C1614 1.363 . S
C1612 H1628 0.931 . S
C1613 C1612 1.370 . S
C1613 C1617 1.408 . S
C1614 C1612 1.363 . S
C1614 C1615 1.370 . S
C1614 C1618 1.524 . S
C1615 C1607 1.503 . S
C1615 C1614 1.370 . S
C1615 C1616 1.403 . S
C1616 C1615 1.403 . S
C1616 C1617 1.404 . S
C1616 C1619 1.539 . S
C1617 C1613 1.408 . S
C1617 C1616 1.404 . S
C1617 H1629 0.929 . S
C1618 C1614 1.524 . S
C1618 H1630 0.956 . S
C1618 H1631 0.961 . S
C1618 H1632 0.961 . S
C1619 C1616 1.539 . S
C1619 H1633 0.958 . S
C1619 H1634 0.961 . S
C1619 H1635 0.960 . S
H1620 C1604 0.931 . S
H1621 C1609 0.929 . S
H1622 C1610 0.960 . S
H1623 C1610 0.962 . S
H1624 C1610 0.960 . S
H1625 C1611 0.961 . S
H1626 C1611 0.961 . S
H1627 C1611 0.961 . S
H1628 C1612 0.931 . S
H1629 C1617 0.929 . S
H1630 C1618 0.956 . S
H1631 C1618 0.961 . S
H1632 C1618 0.961 . S
H1633 C1619 0.958 . S
H1634 C1619 0.961 . S
H1635 C1619 0.960 . S
C1636 C1637 1.391 . S
C1636 C1638 1.394 . S
C1636 H1652 0.931 . S
C1637 C1636 1.391 . S
C1637 C1641 1.376 . S
C1638 C1636 1.394 . S
C1638 C1639 1.369 . S
C1638 C1642 1.531 . S
C1639 C1638 1.369 . S
C1639 C1640 1.410 . S
C1639 C1647 1.503 . S
C1640 C1639 1.410 . S
C1640 C1641 1.392 . S
C1640 C1643 1.511 . S
C1641 C1637 1.376 . S
C1641 C1640 1.392 . S
C1641 H1653 0.929 . S
C1642 C1638 1.531 . S
C1642 H1654 0.960 . S
C1642 H1655 0.962 . S
C1642 H1656 0.960 . S
C1643 C1640 1.511 . S
C1643 H1657 0.961 . S
C1643 H1658 0.961 . S
C1643 H1659 0.961 . S
C1644 C1645 1.370 . S
C1644 C1646 1.363 . S
C1644 H1660 0.931 . S
C1645 C1644 1.370 . S
C1645 C1649 1.408 . S
C1646 C1644 1.363 . S
C1646 C1647 1.370 . S
C1646 C1650 1.524 . S
C1647 C1639 1.503 . S
C1647 C1646 1.370 . S
C1647 C1648 1.403 . S
C1648 C1647 1.403 . S
C1648 C1649 1.404 . S
C1648 C1651 1.539 . S
C1649 C1645 1.408 . S
C1649 C1648 1.404 . S
C1649 H1661 0.930 . S
C1650 C1646 1.524 . S
C1650 H1662 0.956 . S
C1650 H1663 0.961 . S
C1650 H1664 0.961 . S
C1651 C1648 1.539 . S
C1651 H1665 0.958 . S
C1651 H1666 0.961 . S
C1651 H1667 0.960 . S
H1652 C1636 0.931 . S
H1653 C1641 0.929 . S
H1654 C1642 0.960 . S
H1655 C1642 0.962 . S
H1656 C1642 0.960 . S
H1657 C1643 0.961 . S
H1658 C1643 0.961 . S
H1659 C1643 0.961 . S
H1660 C1644 0.931 . S
H1661 C1649 0.930 . S
H1662 C1650 0.956 . S
H1663 C1650 0.961 . S
H1664 C1650 0.961 . S
H1665 C1651 0.958 . S
H1666 C1651 0.961 . S
H1667 C1651 0.960 . S
C909 C841 1.720 . S
C901 C29 1.677 . S
C933 C115 1.593 . S
C941 C401 1.624 . S
C965 C153 1.607 . S
C973 C489 1.694 . S
C997 C239 1.628 . S
C1005 C568 1.652 . S
C1037 C665 1.660 . S
C1029 C301 1.653 . S
C1061 C339 1.930 . S
C1069 C744 1.988 . S
C1093 C91 1.622 . S
C1101 C509 1.705 . S
C1125 C177 1.623 . S
C1133 C605 1.632 . S
C1157 C215 1.676 . S
C1165 C685 1.719 . S
C1197 C781 1.993 . S
C1189 C277 1.920 . S
C1229 C861 1.653 . S
C1221 C363 1.658 . S
C1261 C421 1.637 . S
C1253 C53 1.656 . S
C1285 C35 1.541 . S
C1293 C517 1.555 . S
C1317 C109 1.340 . S
C1325 C597 1.514 . S
C1357 C693 1.424 . S
C1349 C159 1.421 . S
C1381 C233 1.626 . S
C1389 C773 1.733 1_556 S
C1421 C869 1.561 . S
C1413 C295 1.450 . S
C1453 C429 1.349 . S
C1445 C345 1.302 . S
C1485 C832 1.426 . S
C1477 C97 1.383 . S
C1509 C171 1.419 . S
C1517 C392 1.506 . S
C1549 C480 1.562 . S
C1541 C221 1.502 . S
C1573 C283 1.339 . S
C1581 C577 1.352 . S
C1605 C357 1.412 . S
C1613 C656 1.566 1_554 S
C1637 C47 1.559 . S
C1645 C753 1.742 . S
